# Generated by pormake.
# Topology anh, (6,3)-cn, num edge types: 1
# Building blocks:
#     Node 0, Type 0, BuildingBlock: GEDQOX_clean_sbu_0, # of connection points: 6
#     Node 1, Type 0, BuildingBlock: GEDQOX_clean_sbu_0, # of connection points: 6
#     Node 2, Type 0, BuildingBlock: GEDQOX_clean_sbu_0, # of connection points: 6
#     Node 3, Type 1, BuildingBlock: BETDIP_clean_linker_0, # of connection points: 3
#     Node 4, Type 1, BuildingBlock: BETDIP_clean_linker_0, # of connection points: 3
#     Node 5, Type 1, BuildingBlock: BETDIP_clean_linker_0, # of connection points: 3
#     Node 6, Type 1, BuildingBlock: BETDIP_clean_linker_0, # of connection points: 3
#     Node 7, Type 1, BuildingBlock: BETDIP_clean_linker_0, # of connection points: 3
#     Node 8, Type 1, BuildingBlock: BETDIP_clean_linker_0, # of connection points: 3
#     Edge 9, Type (0, 1), BuildingBlock: AJUNOK_clean_linker_0, # of connection points: 2
#     Edge 10, Type (0, 1), BuildingBlock: AJUNOK_clean_linker_0, # of connection points: 2
#     Edge 11, Type (0, 1), BuildingBlock: AJUNOK_clean_linker_0, # of connection points: 2
#     Edge 12, Type (0, 1), BuildingBlock: AJUNOK_clean_linker_0, # of connection points: 2
#     Edge 13, Type (0, 1), BuildingBlock: AJUNOK_clean_linker_0, # of connection points: 2
#     Edge 14, Type (0, 1), BuildingBlock: AJUNOK_clean_linker_0, # of connection points: 2
#     Edge 15, Type (0, 1), BuildingBlock: AJUNOK_clean_linker_0, # of connection points: 2
#     Edge 16, Type (0, 1), BuildingBlock: AJUNOK_clean_linker_0, # of connection points: 2
#     Edge 17, Type (0, 1), BuildingBlock: AJUNOK_clean_linker_0, # of connection points: 2
#     Edge 18, Type (0, 1), BuildingBlock: AJUNOK_clean_linker_0, # of connection points: 2
#     Edge 19, Type (0, 1), BuildingBlock: AJUNOK_clean_linker_0, # of connection points: 2
#     Edge 20, Type (0, 1), BuildingBlock: AJUNOK_clean_linker_0, # of connection points: 2
#     Edge 21, Type (0, 1), BuildingBlock: AJUNOK_clean_linker_0, # of connection points: 2
#     Edge 22, Type (0, 1), BuildingBlock: AJUNOK_clean_linker_0, # of connection points: 2
#     Edge 23, Type (0, 1), BuildingBlock: AJUNOK_clean_linker_0, # of connection points: 2
#     Edge 24, Type (0, 1), BuildingBlock: AJUNOK_clean_linker_0, # of connection points: 2
#     Edge 25, Type (0, 1), BuildingBlock: AJUNOK_clean_linker_0, # of connection points: 2
#     Edge 26, Type (0, 1), BuildingBlock: AJUNOK_clean_linker_0, # of connection points: 2
# Relax obj value: 0.212
# Max RMSD: 0.209
# Mean RMSD: 0.134
data_MOF--net-anh--node1-GEDQOX_clean_sbu_0--node2-BETDIP_clean_linker_0--edge1-AJUNOK_clean_linker_0
_symmetry_space_group_name_H-M    P1
_symmetry_Int_Tables_number       1
_symmetry_cell_setting            triclinic
loop_
_symmetry_equiv_pos_as_xyz
'x, y, z'
_cell_length_a     22.679739
_cell_length_b     21.877759
_cell_length_c     36.611218
_cell_angle_alpha  94.973873
_cell_angle_beta   90.994814
_cell_angle_gamma 96.382684
loop_
_atom_site_label
_atom_site_type_symbol
_atom_site_fract_x
_atom_site_fract_y
_atom_site_fract_z
_atom_type_partial_charge
Nd0 Nd 0.15601 0.6677 0.14018 0.0
Nd1 Nd 0.14601 0.52882 0.13217 0.0
C2 C 0.19511 0.78486 0.13566 0.0
C3 C 0.25308 0.81933 0.14724 0.0
C4 C 0.28347 0.85896 0.12392 0.0
C5 C 0.34078 0.8874 0.13355 0.0
C6 C 0.36875 0.87629 0.16655 0.0
C7 C 0.33768 0.83735 0.19004 0.0
C8 C 0.28082 0.80874 0.18035 0.0
C9 C 0.14066 0.61526 0.20487 0.0
C10 C 0.28207 0.59506 0.13601 0.0
C11 C 1.11465 0.41111 0.14126 0.0
C12 C 1.061 0.3738 0.15322 0.0
C13 C 1.06349 0.3457 0.1862 0.0
C14 C 1.01277 0.31326 0.19929 0.0
C15 C 0.95847 0.30786 0.17959 0.0
C16 C 0.95618 0.33431 0.14604 0.0
C17 C 1.0069 0.3673 0.13304 0.0
C18 C 0.16326 0.58474 0.06854 0.0
C19 C 1.02054 0.60004 0.13162 0.0
O20 O 0.19663 0.74262 0.10826 0.0
O21 O 0.16093 0.76598 0.16186 0.0
O22 O 1.11577 0.66312 0.19681 0.0
O23 O 0.17446 0.59825 0.17986 0.0
O24 O 0.25612 0.64677 0.1355 0.0
O25 O 0.24894 0.54147 0.1375 0.0
O26 O 0.14283 0.4501 0.16654 0.0
O27 O 1.11202 0.43383 0.10939 0.0
O28 O 0.18841 0.53618 0.07546 0.0
O29 O 0.12847 0.5987 0.09348 0.0
O30 O 1.04657 0.55024 0.13835 0.0
O31 O 1.05405 0.65234 0.12651 0.0
H32 H 0.26327 0.86705 0.09801 0.0
H33 H 0.36362 0.91721 0.11493 0.0
H34 H 0.35721 0.82913 0.21612 0.0
H35 H 0.25886 0.77773 0.19867 0.0
H36 H 1.10461 0.3496 0.20217 0.0
H37 H 1.01592 0.29251 0.22497 0.0
H38 H 0.91479 0.33079 0.13037 0.0
H39 H 1.00341 0.38842 0.10752 0.0
Nd40 Nd 0.55037 1.00409 0.51383 0.0
Nd41 Nd 0.68145 1.01226 0.50343 0.0
C42 C 0.4383 0.97285 0.52982 0.0
C43 C 0.39761 0.91542 0.5222 0.0
C44 C 0.41712 0.8575 0.52606 0.0
C45 C 0.38138 0.80318 0.51372 0.0
C46 C 0.32556 0.80575 0.49705 0.0
C47 C 0.30484 0.8636 0.49487 0.0
C48 C 0.34065 0.91797 0.50726 0.0
C49 C 0.58441 1.01237 0.44293 0.0
C50 C 0.6184 0.876 0.50998 0.0
C51 C 0.78955 0.04454 0.48074 0.0
C52 C 0.82234 0.10325 0.47115 0.0
C53 C 0.82653 0.11623 0.43428 0.0
C54 C 0.85512 0.17257 0.42511 0.0
C55 C 0.88035 0.21709 0.45259 0.0
C56 C 0.87748 0.20369 0.48937 0.0
C57 C 0.84871 0.14742 0.49859 0.0
C58 C 0.64926 1.00512 0.57479 0.0
C59 C 0.6145 0.14009 0.51397 0.0
O60 O 0.48267 0.97156 0.55299 0.0
O61 O 0.45409 1.00133 0.50103 0.0
O62 O 0.54335 0.04204 0.45775 0.0
O63 O 0.60497 0.97824 0.46487 0.0
O64 O 0.57195 0.9047 0.51946 0.0
O65 O 0.66671 0.90626 0.49783 0.0
O66 O 0.74557 1.02036 0.45856 0.0
O67 O 0.7772 0.04045 0.51527 0.0
O68 O 0.69273 0.97852 0.5603 0.0
O69 O 0.62696 0.03805 0.55271 0.0
O70 O 0.6585 0.11259 0.499 0.0
O71 O 0.56978 0.10765 0.52847 0.0
H72 H 0.46073 0.85415 0.53752 0.0
H73 H 0.39802 0.7592 0.51639 0.0
H74 H 0.26203 0.86692 0.48206 0.0
H75 H 0.32479 0.96211 0.50385 0.0
H76 H 0.80729 0.08298 0.41247 0.0
H77 H 0.85781 0.18122 0.39646 0.0
H78 H 0.89668 0.23719 0.51106 0.0
H79 H 0.84668 0.1389 0.52727 0.0
Nd80 Nd 0.535 0.47132 0.8149 0.0
Nd81 Nd 0.66068 0.4864 0.83998 0.0
C82 C 0.42827 0.45743 0.78399 0.0
C83 C 0.39031 0.50711 0.77939 0.0
C84 C 0.41166 0.5587 0.76095 0.0
C85 C 0.38799 0.61469 0.76779 0.0
C86 C 0.34288 0.61992 0.79317 0.0
C87 C 0.31651 0.56655 0.80787 0.0
C88 C 0.33989 0.51041 0.80086 0.0
C89 C 0.5529 0.49888 0.88949 0.0
C90 C 0.59717 0.61144 0.82353 0.0
C91 C 0.76632 0.51304 0.87244 0.0
C92 C 0.82275 0.54808 0.86472 0.0
C93 C 0.87498 0.53148 0.8799 0.0
C94 C 0.92967 0.56219 0.8719 0.0
C95 C 0.93306 0.6099 0.84837 0.0
C96 C 0.88053 0.62647 0.83303 0.0
C97 C 0.82558 0.59531 0.84092 0.0
C98 C 0.64729 0.46788 0.76487 0.0
C99 C 0.59662 0.34768 0.82823 0.0
O100 O 0.47663 0.45885 0.7649 0.0
O101 O 0.43786 0.44648 0.81804 0.0
O102 O 0.51557 0.52384 0.86989 0.0
O103 O 0.5784 0.46007 0.86996 0.0
O104 O 0.55338 0.5735 0.80754 0.0
O105 O 0.64165 0.58969 0.8404 0.0
O106 O 0.75152 0.46356 0.85028 0.0
O107 O 0.72165 0.5445 0.88028 0.0
O108 O 0.68734 0.4456 0.78366 0.0
O109 O 0.61818 0.5016 0.78553 0.0
O110 O 0.63576 0.38419 0.84945 0.0
O111 O 0.55825 0.37142 0.80769 0.0
H112 H 0.45035 0.55783 0.74406 0.0
H113 H 0.40918 0.6552 0.75619 0.0
H114 H 0.28116 0.5695 0.82726 0.0
H115 H 0.32237 0.47133 0.81521 0.0
H116 H 0.87344 0.49488 0.89813 0.0
H117 H 0.96927 0.54981 0.88505 0.0
H118 H 0.88205 0.66364 0.81524 0.0
H119 H 0.78544 0.60809 0.82862 0.0
H120 H 0.62942 0.05087 0.18529 0.0
H121 H 0.71057 0.10178 0.29271 0.0
H122 H 0.55807 0.96663 0.27937 0.0
H123 H 0.73681 0.19124 0.26739 0.0
C124 C 0.75032 0.17578 0.24015 0.0
C125 C 0.63129 0.04556 0.21443 0.0
C126 C 0.58926 1.00344 0.22958 0.0
C127 C 0.67523 0.08166 0.23688 0.0
C128 C 0.67678 0.07511 0.27488 0.0
C129 C 0.6347 0.03347 0.2902 0.0
C130 C 0.59171 0.9974 0.26737 0.0
N131 N 0.7175 0.12347 0.22056 0.0
H132 H 0.62893 0.4536 0.49913 0.0
H133 H 0.64416 0.56414 0.60318 0.0
H134 H 0.63656 0.36697 0.59991 0.0
H135 H 0.57176 0.61001 0.56826 0.0
C136 C 0.60164 0.61936 0.54598 0.0
C137 C 0.63315 0.45728 0.52878 0.0
C138 C 0.63354 0.40355 0.54741 0.0
C139 C 0.63552 0.51565 0.54883 0.0
C140 C 0.64061 0.51953 0.58746 0.0
C141 C 0.64215 0.4662 0.60597 0.0
C142 C 0.6378 0.40863 0.58572 0.0
N143 N 0.63184 0.57003 0.53032 0.0
H144 H 0.18809 0.81 0.8558 0.0
H145 H 0.27474 0.80371 0.96112 0.0
H146 H 0.13012 0.66701 0.92456 0.0
H147 H 0.32445 0.90295 0.85408 0.0
C148 C 0.30967 0.85983 0.86542 0.0
C149 C 0.19256 0.78813 0.881 0.0
C150 C 0.15458 0.73542 0.88707 0.0
C151 C 0.23696 0.8122 0.90737 0.0
C152 C 0.2411 0.78487 0.94058 0.0
C153 C 0.20292 0.7318 0.94641 0.0
C154 C 0.16045 0.70724 0.91953 0.0
N155 N 0.27995 0.86119 0.89939 0.0
H156 H 0.13872 0.55514 0.46239 0.0
H157 H 1.06906 0.48785 0.35431 0.0
H158 H 0.21054 0.63583 0.36714 0.0
H159 H 0.98357 0.47075 0.38909 0.0
C160 C 1.00301 0.44749 0.41059 0.0
C161 C 0.13945 0.55683 0.43291 0.0
C162 C 0.18015 0.59999 0.41751 0.0
C163 C 1.09886 0.51648 0.41043 0.0
C164 C 1.09956 0.51907 0.37215 0.0
C165 C 0.14052 0.56131 0.35655 0.0
C166 C 0.18059 0.60152 0.37926 0.0
N167 N 1.05887 0.47273 0.42679 0.0
H168 H 0.61418 0.04007 0.83928 0.0
H169 H 0.63025 0.92923 0.73744 0.0
H170 H 0.62079 0.12416 0.73716 0.0
H171 H 0.54839 0.87262 0.77524 0.0
C172 C 0.58308 0.86853 0.7955 0.0
C173 C 0.61849 0.03633 0.80978 0.0
C174 C 0.61753 0.08916 0.79033 0.0
C175 C 0.62168 0.97799 0.79063 0.0
C176 C 0.62645 0.97368 0.75222 0.0
C177 C 0.6276 0.0264 0.73285 0.0
C178 C 0.62229 0.08361 0.75209 0.0
N179 N 0.61876 0.92353 0.80969 0.0
H180 H 0.5981 0.61244 0.15235 0.0
H181 H 0.68243 0.56827 0.04985 0.0
H182 H 0.49273 0.56148 0.05294 0.0
H183 H 0.74355 0.52134 0.09236 0.0
C184 C 0.75589 0.56472 0.10891 0.0
C185 C 0.59512 0.59822 0.12325 0.0
C186 C 0.53779 0.5879 0.10486 0.0
C187 C 0.64855 0.58912 0.10367 0.0
C188 C 0.64285 0.57202 0.06563 0.0
C189 C 0.58711 0.56244 0.04727 0.0
C190 C 0.53563 0.5698 0.06716 0.0
N191 N 0.70752 0.59906 0.12119 0.0
C192 C 0.37895 0.54375 0.13719 0.0
C193 C 0.34982 0.59702 0.13335 0.0
C194 C 0.44088 0.54282 0.13158 0.0
C195 C 0.47792 0.59525 0.12223 0.0
H196 H 0.35331 0.50135 0.14342 0.0
H197 H 0.45941 0.49947 0.13272 0.0
S198 S 0.42573 0.74674 0.10813 0.0
N199 N 0.36515 0.70439 0.11961 0.0
N200 N 0.47971 0.70199 0.10896 0.0
C201 C 0.44983 0.64915 0.11916 0.0
C202 C 0.38679 0.65027 0.12484 0.0
C203 C 0.96787 0.29844 0.45637 0.0
C204 C 0.91008 0.27721 0.44285 0.0
C205 C 0.99758 0.35405 0.4464 0.0
C206 C 0.97042 0.39047 0.42264 0.0
H207 H 0.99076 0.27121 0.47417 0.0
H208 H 1.04243 0.36789 0.45693 0.0
S209 S 0.81747 0.35842 0.3828 0.0
N210 N 0.82531 0.29907 0.4067 0.0
N211 N 0.88122 0.40322 0.38768 0.0
C212 C 0.91213 0.37053 0.40974 0.0
C213 C 0.88194 0.314 0.41989 0.0
C214 C 0.54336 0.69873 0.80608 0.0
C215 C 0.59537 0.67907 0.8206 0.0
C216 C 0.54009 0.76029 0.79947 0.0
C217 C 0.58828 0.80587 0.80747 0.0
H218 H 0.50465 0.66605 0.79895 0.0
H219 H 0.49939 0.7721 0.78731 0.0
S220 S 0.73403 0.78091 0.84779 0.0
N221 N 0.69595 0.71162 0.84424 0.0
N222 N 0.68935 0.82807 0.83217 0.0
C223 C 0.64001 0.78804 0.82338 0.0
C224 C 0.64362 0.72458 0.82989 0.0
C225 C 0.91911 0.53578 0.12382 0.0
C226 C 0.95242 0.59467 0.12846 0.0
C227 C 0.85643 0.52794 0.11904 0.0
C228 C 0.82208 0.5782 0.11948 0.0
H229 H 0.94179 0.49466 0.12286 0.0
H230 H 0.8345 0.48125 0.11436 0.0
S231 S 0.88533 0.74291 0.13193 0.0
N232 N 0.94436 0.70508 0.13377 0.0
N233 N 0.82723 0.68996 0.12573 0.0
C234 C 0.85419 0.63755 0.12511 0.0
C235 C 0.91869 0.64576 0.1293 0.0
C236 C 0.2298 0.73639 0.48652 0.0
C237 C 0.29062 0.74889 0.47962 0.0
C238 C 0.19491 0.68599 0.46771 0.0
C239 C 0.21947 0.64682 0.44102 0.0
H240 H 0.20883 0.76648 0.50612 0.0
H241 H 0.14787 0.67923 0.47296 0.0
S242 S 0.37674 0.65789 0.41383 0.0
N243 N 0.37418 0.71668 0.44503 0.0
N244 N 0.30865 0.62192 0.40996 0.0
C245 C 0.28052 0.65763 0.43472 0.0
C246 C 0.31609 0.70862 0.45397 0.0
C247 C 0.65092 0.25401 0.83299 0.0
C248 C 0.59809 0.27943 0.82512 0.0
C249 C 0.65589 0.19072 0.82445 0.0
C250 C 0.60795 0.15062 0.8083 0.0
H251 H 0.68981 0.28372 0.8438 0.0
H252 H 0.69843 0.17383 0.82852 0.0
S253 S 0.45792 0.19159 0.78664 0.0
N254 N 0.49515 0.25743 0.80352 0.0
N255 N 0.5049 0.13923 0.78768 0.0
C256 C 0.55398 0.17453 0.80257 0.0
C257 C 0.54891 0.23869 0.81097 0.0
C258 C 0.57604 0.78657 0.54267 0.0
C259 C 0.61613 0.8095 0.51683 0.0
C260 C 0.57192 0.7251 0.55095 0.0
C261 C 0.60772 0.68313 0.534 0.0
H262 H 0.5482 0.81668 0.55751 0.0
H263 H 0.54053 0.71049 0.57134 0.0
S264 S 0.72058 0.71878 0.4644 0.0
N265 N 0.6929 0.78486 0.4742 0.0
N266 N 0.68521 0.66864 0.48999 0.0
C267 C 0.64825 0.70485 0.50803 0.0
C268 C 0.65257 0.76817 0.49953 0.0
C269 C 0.99717 0.71033 0.85462 0.0
C270 C 0.99099 0.6465 0.84411 0.0
C271 C 1.05319 0.74243 0.86358 0.0
C272 C 1.10421 0.71146 0.86217 0.0
H273 H 0.9583 0.7341 0.85979 0.0
H274 H 1.05576 0.78969 0.87566 0.0
S275 S 1.11303 0.54894 0.82736 0.0
N276 N 1.04142 0.55677 0.8256 0.0
N277 N 0.14672 0.61725 0.84306 0.0
C278 C 1.09936 0.65002 0.84697 0.0
C279 C 1.04254 0.61738 0.83778 0.0
C280 C 0.44361 0.97041 0.17551 0.0
C281 C 0.42942 0.90642 0.17732 0.0
C282 C 0.4976 1.00117 0.19024 0.0
C283 C 0.53916 0.96897 0.20727 0.0
H284 H 0.41152 0.99747 0.16438 0.0
H285 H 0.50536 0.05093 0.1902 0.0
S286 S 0.52797 0.79999 0.21374 0.0
N287 N 0.46493 0.81099 0.19341 0.0
N288 N 0.56576 0.86906 0.22146 0.0
C289 C 0.52727 0.90459 0.20711 0.0
C290 C 0.47258 0.87325 0.19206 0.0
C291 C 0.67172 0.24539 0.51352 0.0
C292 C 0.61695 0.20863 0.51591 0.0
C293 C 0.67624 0.31009 0.5202 0.0
C294 C 0.62602 0.34034 0.52865 0.0
H295 H 0.71201 0.22396 0.50857 0.0
H296 H 0.71979 0.33624 0.52102 0.0
S297 S 0.4715 0.267 0.53356 0.0
N298 N 0.51057 0.2086 0.52385 0.0
N299 N 0.51956 0.32983 0.53617 0.0
C300 C 0.57064 0.30471 0.52859 0.0
C301 C 0.56596 0.23898 0.52223 0.0
C302 C 0.34063 0.69355 0.84837 0.0
C303 C 0.33263 0.68151 0.81017 0.0
C304 C 0.3353 0.75192 0.86574 0.0
C305 C 0.32068 0.80029 0.84568 0.0
H306 H 0.3523 0.65779 0.86498 0.0
H307 H 0.34266 0.75912 0.89518 0.0
S308 S 0.29743 0.79363 0.74499 0.0
N309 N 0.31182 0.7233 0.75253 0.0
N310 N 0.30049 0.83348 0.7856 0.0
C311 C 0.31406 0.78961 0.80741 0.0
C312 C 0.32005 0.72999 0.78955 0.0
C313 C 0.87045 0.22661 0.17382 0.0
C314 C 0.90418 0.27587 0.19461 0.0
C315 C 0.82042 0.19434 0.1884 0.0
C316 C 0.8021 0.21075 0.22415 0.0
H317 H 0.88353 0.21214 0.14638 0.0
H318 H 0.79635 0.15614 0.1716 0.0
S319 S 0.87303 0.33918 0.28862 0.0
N320 N 0.91417 0.34135 0.25191 0.0
N321 N 0.82036 0.28118 0.27928 0.0
C322 C 0.83475 0.26085 0.24479 0.0
C323 C 0.88573 0.29328 0.23006 0.0
C324 C 0.14662 0.67493 0.03437 0.0
C325 C 0.17878 0.62445 0.03867 0.0
C326 C 0.15851 0.71302 0.00603 0.0
C327 C 0.203 0.70211 0.98095 0.0
H328 H 1.11086 0.68434 0.05253 0.0
H329 H 0.13078 0.74951 0.00259 0.0
S330 S 0.30157 0.57807 0.9806 0.0
N331 N 0.25895 0.56731 0.01617 0.0
N332 N 0.28027 0.6387 0.96221 0.0
C333 C 0.23671 0.65311 0.98535 0.0
C334 C 0.22481 0.61425 0.01439 0.0
C335 C 0.62037 0.96904 0.38302 0.0
C336 C 0.60516 1.01994 0.40551 0.0
C337 C 0.63244 0.9742 0.34584 0.0
C338 C 0.63141 0.03085 0.3304 0.0
H339 H 0.61999 0.92435 0.39372 0.0
H340 H 0.64102 0.93333 0.32877 0.0
S341 S 0.60084 0.17923 0.37908 0.0
N342 N 0.59402 0.12952 0.41063 0.0
N343 N 0.61827 0.13957 0.34111 0.0
C344 C 0.61979 0.08279 0.35326 0.0
C345 C 0.60624 0.07723 0.39077 0.0
C346 C 0.60715 0.50043 0.70634 0.0
C347 C 0.64731 0.46784 0.72447 0.0
C348 C 0.60683 0.5013 0.66804 0.0
C349 C 0.64647 0.46951 0.64659 0.0
H350 H 0.57554 0.52508 0.72178 0.0
H351 H 0.57434 0.5258 0.65506 0.0
S352 S 0.76247 0.38016 0.68079 0.0
N353 N 0.72892 0.4046 0.71804 0.0
N354 N 0.72878 0.40721 0.64632 0.0
C355 C 0.68757 0.43783 0.66446 0.0
C356 C 0.68777 0.43676 0.70332 0.0
C357 C 0.60017 0.9736 0.63154 0.0
C358 C 0.64229 1.01298 0.61461 0.0
C359 C 0.59579 0.97792 0.66988 0.0
C360 C 0.63335 1.0219 0.69236 0.0
H361 H 0.57092 0.93891 0.61506 0.0
H362 H 0.56255 0.94697 0.68199 0.0
S363 S 0.75229 0.13409 0.66066 0.0
N364 N 0.72277 0.09613 0.62254 0.0
N365 N 0.71503 0.10443 0.69456 0.0
C366 C 0.6757 0.06142 0.67547 0.0
C367 C 0.68011 0.05684 0.63655 0.0
C368 C 0.53559 0.56192 0.94766 0.0
C369 C 0.5641 0.51467 0.92943 0.0
C370 C 0.54427 0.5776 0.98546 0.0
C371 C 0.58167 0.54653 0.00676 0.0
H372 H 0.5061 0.58708 0.93265 0.0
H373 H 0.52136 0.6145 -0.00185 0.0
S374 S 0.66698 0.41919 0.97216 0.0
N375 N 0.63212 0.43742 0.93534 0.0
N376 N 0.64743 0.46595 0.00658 0.0
C377 C 0.61103 0.49956 0.98878 0.0
C378 C 0.6024 0.48379 0.95013 0.0
C379 C 1.09037 0.60329 0.26397 0.0
C380 C 0.13933 0.59381 0.24197 0.0
C381 C 1.08992 0.58963 0.30065 0.0
C382 C 0.13891 0.56717 0.31669 0.0
H383 H 1.05254 0.62255 0.25296 0.0
H384 H 1.05204 0.59905 0.31699 0.0
S385 S 0.27681 0.53167 0.27065 0.0
N386 N 0.23679 0.55745 0.23838 0.0
N387 N 0.23656 0.53363 0.30785 0.0
C388 C 0.18747 0.55588 0.29484 0.0
C389 C 0.18747 0.56859 0.25725 0.0
loop_
_geom_bond_atom_site_label_1
_geom_bond_atom_site_label_2
_geom_bond_distance
_geom_bond_site_symmetry_2
_ccdc_geom_bond_type
Nd0 C2 2.836 . S
Nd0 O20 2.500 . S
Nd0 O21 2.492 . S
Nd0 O22 2.487 . S
Nd0 O23 2.682 . S
Nd0 O24 2.410 . S
Nd0 O29 2.414 . S
Nd0 O31 2.424 1_455 S
Nd1 C11 2.836 1_455 S
Nd1 O23 2.414 . S
Nd1 O25 2.424 . S
Nd1 O26 2.500 1_455 S
Nd1 O27 2.492 1_455 S
Nd1 O28 2.487 . S
Nd1 O29 2.682 . S
Nd1 O30 2.410 1_455 S
C2 Nd0 2.836 . S
C2 C3 1.498 . S
C2 O20 1.258 . S
C2 O21 1.239 . S
C3 C2 1.498 . S
C3 C4 1.366 . S
C3 C8 1.407 . S
C4 C3 1.366 . S
C4 C5 1.392 . S
C4 H32 0.930 . S
C5 C4 1.392 . S
C5 C6 1.398 . S
C5 H33 0.929 . S
C6 C5 1.398 . S
C6 C7 1.352 . S
C7 C6 1.352 . S
C7 C8 1.384 . S
C7 H34 0.930 . S
C8 C3 1.407 . S
C8 C7 1.384 . S
C8 H35 0.929 . S
C9 O22 1.241 . S
C9 O23 1.273 . S
C10 O24 1.251 . S
C10 O25 1.268 . S
C11 Nd1 2.836 1_655 S
C11 C12 1.498 . S
C11 O26 1.258 . S
C11 O27 1.239 . S
C12 C11 1.498 . S
C12 C13 1.366 . S
C12 C17 1.407 . S
C13 C12 1.366 . S
C13 C14 1.392 . S
C13 H36 0.930 . S
C14 C13 1.392 . S
C14 C15 1.398 . S
C14 H37 0.929 . S
C15 C14 1.398 . S
C15 C16 1.352 . S
C16 C15 1.352 . S
C16 C17 1.384 . S
C16 H38 0.930 . S
C17 C12 1.407 . S
C17 C16 1.384 . S
C17 H39 0.929 . S
C18 O28 1.241 . S
C18 O29 1.273 . S
C19 O30 1.251 . S
C19 O31 1.268 . S
O20 Nd0 2.500 . S
O20 C2 1.258 . S
O21 Nd0 2.492 . S
O21 C2 1.239 . S
O22 Nd0 2.487 . S
O22 C9 1.241 . S
O23 Nd0 2.682 . S
O23 Nd1 2.414 . S
O23 C9 1.273 . S
O24 Nd0 2.410 . S
O24 C10 1.251 . S
O25 Nd1 2.424 . S
O25 C10 1.268 . S
O26 Nd1 2.500 1_655 S
O26 C11 1.258 . S
O27 Nd1 2.492 1_655 S
O27 C11 1.239 . S
O28 Nd1 2.487 . S
O28 C18 1.241 . S
O29 Nd0 2.414 . S
O29 Nd1 2.682 . S
O29 C18 1.273 . S
O30 Nd1 2.410 1_655 S
O30 C19 1.251 . S
O31 Nd0 2.424 1_655 S
O31 C19 1.268 . S
H32 C4 0.930 . S
H33 C5 0.929 . S
H34 C7 0.930 . S
H35 C8 0.929 . S
H36 C13 0.930 . S
H37 C14 0.929 . S
H38 C16 0.930 . S
H39 C17 0.929 . S
Nd40 C42 2.836 1_545 S
Nd40 O60 2.500 1_545 S
Nd40 O61 2.492 1_545 S
Nd40 O62 2.487 . S
Nd40 O63 2.682 . S
Nd40 O64 2.410 1_545 S
Nd40 O69 2.414 . S
Nd40 O71 2.424 . S
Nd41 C51 2.836 . S
Nd41 O63 2.414 . S
Nd41 O65 2.424 1_545 S
Nd41 O66 2.500 . S
Nd41 O67 2.492 . S
Nd41 O68 2.487 . S
Nd41 O69 2.682 . S
Nd41 O70 2.410 . S
C42 Nd40 2.836 1_565 S
C42 C43 1.498 . S
C42 O60 1.258 . S
C42 O61 1.239 . S
C43 C42 1.498 . S
C43 C44 1.366 . S
C43 C48 1.407 . S
C44 C43 1.366 . S
C44 C45 1.392 . S
C44 H72 0.930 . S
C45 C44 1.392 . S
C45 C46 1.398 . S
C45 H73 0.929 . S
C46 C45 1.398 . S
C46 C47 1.352 . S
C47 C46 1.352 . S
C47 C48 1.384 . S
C47 H74 0.930 . S
C48 C43 1.407 . S
C48 C47 1.384 . S
C48 H75 0.929 . S
C49 O62 1.241 . S
C49 O63 1.273 . S
C50 O64 1.251 . S
C50 O65 1.268 . S
C51 Nd41 2.836 . S
C51 C52 1.498 . S
C51 O66 1.258 . S
C51 O67 1.239 . S
C52 C51 1.498 . S
C52 C53 1.366 . S
C52 C57 1.407 . S
C53 C52 1.366 . S
C53 C54 1.392 . S
C53 H76 0.930 . S
C54 C53 1.392 . S
C54 C55 1.398 . S
C54 H77 0.929 . S
C55 C54 1.398 . S
C55 C56 1.352 . S
C56 C55 1.352 . S
C56 C57 1.384 . S
C56 H78 0.930 . S
C57 C52 1.407 . S
C57 C56 1.384 . S
C57 H79 0.929 . S
C58 O68 1.241 . S
C58 O69 1.273 . S
C59 O70 1.251 . S
C59 O71 1.268 . S
O60 Nd40 2.500 1_565 S
O60 C42 1.258 . S
O61 Nd40 2.492 1_565 S
O61 C42 1.239 . S
O62 Nd40 2.487 . S
O62 C49 1.241 . S
O63 Nd40 2.682 . S
O63 Nd41 2.414 . S
O63 C49 1.273 . S
O64 Nd40 2.410 1_565 S
O64 C50 1.251 . S
O65 Nd41 2.424 1_565 S
O65 C50 1.268 . S
O66 Nd41 2.500 . S
O66 C51 1.258 . S
O67 Nd41 2.492 . S
O67 C51 1.239 . S
O68 Nd41 2.487 . S
O68 C58 1.241 . S
O69 Nd40 2.414 . S
O69 Nd41 2.682 . S
O69 C58 1.273 . S
O70 Nd41 2.410 . S
O70 C59 1.251 . S
O71 Nd40 2.424 . S
O71 C59 1.268 . S
H72 C44 0.930 . S
H73 C45 0.929 . S
H74 C47 0.930 . S
H75 C48 0.929 . S
H76 C53 0.930 . S
H77 C54 0.929 . S
H78 C56 0.930 . S
H79 C57 0.929 . S
Nd80 C82 2.836 . S
Nd80 O100 2.500 . S
Nd80 O101 2.492 . S
Nd80 O102 2.487 . S
Nd80 O103 2.682 . S
Nd80 O104 2.410 . S
Nd80 O109 2.414 . S
Nd80 O111 2.424 . S
Nd81 C91 2.836 . S
Nd81 O103 2.414 . S
Nd81 O105 2.424 . S
Nd81 O106 2.500 . S
Nd81 O107 2.492 . S
Nd81 O108 2.487 . S
Nd81 O109 2.682 . S
Nd81 O110 2.410 . S
C82 Nd80 2.836 . S
C82 C83 1.498 . S
C82 O100 1.258 . S
C82 O101 1.239 . S
C83 C82 1.498 . S
C83 C84 1.366 . S
C83 C88 1.407 . S
C84 C83 1.366 . S
C84 C85 1.392 . S
C84 H112 0.930 . S
C85 C84 1.392 . S
C85 C86 1.398 . S
C85 H113 0.929 . S
C86 C85 1.398 . S
C86 C87 1.352 . S
C87 C86 1.352 . S
C87 C88 1.384 . S
C87 H114 0.930 . S
C88 C83 1.407 . S
C88 C87 1.384 . S
C88 H115 0.929 . S
C89 O102 1.241 . S
C89 O103 1.273 . S
C90 O104 1.251 . S
C90 O105 1.268 . S
C91 Nd81 2.836 . S
C91 C92 1.498 . S
C91 O106 1.258 . S
C91 O107 1.239 . S
C92 C91 1.498 . S
C92 C93 1.366 . S
C92 C97 1.407 . S
C93 C92 1.366 . S
C93 C94 1.392 . S
C93 H116 0.930 . S
C94 C93 1.392 . S
C94 C95 1.398 . S
C94 H117 0.929 . S
C95 C94 1.398 . S
C95 C96 1.352 . S
C96 C95 1.352 . S
C96 C97 1.384 . S
C96 H118 0.930 . S
C97 C92 1.407 . S
C97 C96 1.384 . S
C97 H119 0.929 . S
C98 O108 1.241 . S
C98 O109 1.273 . S
C99 O110 1.251 . S
C99 O111 1.268 . S
O100 Nd80 2.500 . S
O100 C82 1.258 . S
O101 Nd80 2.492 . S
O101 C82 1.239 . S
O102 Nd80 2.487 . S
O102 C89 1.241 . S
O103 Nd80 2.682 . S
O103 Nd81 2.414 . S
O103 C89 1.273 . S
O104 Nd80 2.410 . S
O104 C90 1.251 . S
O105 Nd81 2.424 . S
O105 C90 1.268 . S
O106 Nd81 2.500 . S
O106 C91 1.258 . S
O107 Nd81 2.492 . S
O107 C91 1.239 . S
O108 Nd81 2.487 . S
O108 C98 1.241 . S
O109 Nd80 2.414 . S
O109 Nd81 2.682 . S
O109 C98 1.273 . S
O110 Nd81 2.410 . S
O110 C99 1.251 . S
O111 Nd80 2.424 . S
O111 C99 1.268 . S
H112 C84 0.930 . S
H113 C85 0.929 . S
H114 C87 0.930 . S
H115 C88 0.929 . S
H116 C93 0.930 . S
H117 C94 0.929 . S
H118 C96 0.930 . S
H119 C97 0.929 . S
H120 C125 0.930 . S
H121 C128 0.930 . S
H122 C130 0.930 1_565 S
H123 C124 1.016 . S
C124 H123 1.016 . S
C124 N131 1.286 . S
C125 H120 0.930 . S
C125 C126 1.397 1_545 S
C125 C127 1.361 . S
C126 C125 1.397 1_565 S
C126 C130 1.390 1_565 S
C127 C125 1.361 . S
C127 C128 1.393 . S
C127 N131 1.413 . S
C128 H121 0.930 . S
C128 C127 1.393 . S
C128 C129 1.399 . S
C129 C128 1.399 . S
C129 C130 1.381 . S
C130 H122 0.930 1_545 S
C130 C126 1.390 1_545 S
C130 C129 1.381 . S
N131 C124 1.286 . S
N131 C127 1.413 . S
H132 C137 0.930 . S
H133 C140 0.930 . S
H134 C142 0.930 . S
H135 C136 1.016 . S
C136 H135 1.016 . S
C136 N143 1.286 . S
C137 H132 0.930 . S
C137 C138 1.397 . S
C137 C139 1.361 . S
C138 C137 1.397 . S
C138 C142 1.390 . S
C139 C137 1.361 . S
C139 C140 1.393 . S
C139 N143 1.413 . S
C140 H133 0.930 . S
C140 C139 1.393 . S
C140 C141 1.399 . S
C141 C140 1.399 . S
C141 C142 1.381 . S
C142 H134 0.930 . S
C142 C138 1.390 . S
C142 C141 1.381 . S
N143 C136 1.286 . S
N143 C139 1.413 . S
H144 C149 0.930 . S
H145 C152 0.930 . S
H146 C154 0.930 . S
H147 C148 1.016 . S
C148 H147 1.016 . S
C148 N155 1.286 . S
C149 H144 0.930 . S
C149 C150 1.397 1_455 S
C149 C151 1.361 . S
C150 C149 1.397 1_655 S
C150 C154 1.390 . S
C151 C149 1.361 . S
C151 C152 1.393 . S
C151 N155 1.413 . S
C152 H145 0.930 . S
C152 C151 1.393 . S
C152 C153 1.399 . S
C153 C152 1.399 . S
C153 C154 1.381 1_455 S
C154 H146 0.930 . S
C154 C150 1.390 . S
C154 C153 1.381 1_655 S
N155 C148 1.286 . S
N155 C151 1.413 . S
H156 C161 0.930 . S
H157 C164 0.930 . S
H158 C166 0.930 . S
H159 C160 1.016 . S
C160 H159 1.016 . S
C160 N167 1.286 . S
C161 H156 0.930 . S
C161 C162 1.397 . S
C161 C163 1.361 1_455 S
C162 C161 1.397 . S
C162 C166 1.390 . S
C163 C161 1.361 1_655 S
C163 C164 1.393 . S
C163 N167 1.413 . S
C164 H157 0.930 . S
C164 C163 1.393 . S
C164 C165 1.399 1_655 S
C165 C164 1.399 1_455 S
C165 C166 1.381 . S
C166 H158 0.930 . S
C166 C162 1.390 . S
C166 C165 1.381 . S
N167 C160 1.286 . S
N167 C163 1.413 . S
H168 C173 0.930 . S
H169 C176 0.930 . S
H170 C178 0.930 . S
H171 C172 1.016 . S
C172 H171 1.016 . S
C172 N179 1.286 . S
C173 H168 0.930 . S
C173 C174 1.397 . S
C173 C175 1.361 1_545 S
C174 C173 1.397 . S
C174 C178 1.390 . S
C175 C173 1.361 1_565 S
C175 C176 1.393 . S
C175 N179 1.413 . S
C176 H169 0.930 . S
C176 C175 1.393 . S
C176 C177 1.399 1_565 S
C177 C176 1.399 1_545 S
C177 C178 1.381 . S
C178 H170 0.930 . S
C178 C174 1.390 . S
C178 C177 1.381 . S
N179 C172 1.286 . S
N179 C175 1.413 . S
H180 C185 0.930 . S
H181 C188 0.930 . S
H182 C190 0.930 . S
H183 C184 1.016 . S
C184 H183 1.016 . S
C184 N191 1.286 . S
C185 H180 0.930 . S
C185 C186 1.397 . S
C185 C187 1.361 . S
C186 C185 1.397 . S
C186 C190 1.390 . S
C187 C185 1.361 . S
C187 C188 1.393 . S
C187 N191 1.413 . S
C188 H181 0.930 . S
C188 C187 1.393 . S
C188 C189 1.399 . S
C189 C188 1.399 . S
C189 C190 1.381 . S
C190 H182 0.930 . S
C190 C186 1.390 . S
C190 C189 1.381 . S
N191 C184 1.286 . S
N191 C187 1.413 . S
C192 C193 1.369 . S
C192 C194 1.419 . S
C192 H196 0.930 . S
C193 C192 1.369 . S
C193 C202 1.429 . S
C194 C192 1.419 . S
C194 C195 1.363 . S
C194 H197 0.929 . S
C195 C194 1.363 . S
C195 C201 1.428 . S
H196 C192 0.930 . S
H197 C194 0.929 . S
S198 N199 1.613 . S
S198 N200 1.610 . S
N199 S198 1.613 . S
N199 C202 1.350 . S
N200 S198 1.610 . S
N200 C201 1.351 . S
C201 C195 1.428 . S
C201 N200 1.351 . S
C201 C202 1.434 . S
C202 C193 1.429 . S
C202 N199 1.350 . S
C202 C201 1.434 . S
C203 C204 1.369 . S
C203 C205 1.419 . S
C203 H207 0.930 . S
C204 C203 1.369 . S
C204 C213 1.429 . S
C205 C203 1.419 . S
C205 C206 1.363 . S
C205 H208 0.929 . S
C206 C205 1.363 . S
C206 C212 1.428 . S
H207 C203 0.930 . S
H208 C205 0.929 . S
S209 N210 1.613 . S
S209 N211 1.610 . S
N210 S209 1.613 . S
N210 C213 1.350 . S
N211 S209 1.610 . S
N211 C212 1.351 . S
C212 C206 1.428 . S
C212 N211 1.351 . S
C212 C213 1.434 . S
C213 C204 1.429 . S
C213 N210 1.350 . S
C213 C212 1.434 . S
C214 C215 1.369 . S
C214 C216 1.419 . S
C214 H218 0.930 . S
C215 C214 1.369 . S
C215 C224 1.429 . S
C216 C214 1.419 . S
C216 C217 1.363 . S
C216 H219 0.929 . S
C217 C216 1.363 . S
C217 C223 1.428 . S
H218 C214 0.930 . S
H219 C216 0.929 . S
S220 N221 1.613 . S
S220 N222 1.610 . S
N221 S220 1.613 . S
N221 C224 1.350 . S
N222 S220 1.610 . S
N222 C223 1.351 . S
C223 C217 1.428 . S
C223 N222 1.351 . S
C223 C224 1.434 . S
C224 C215 1.429 . S
C224 N221 1.350 . S
C224 C223 1.434 . S
C225 C226 1.369 . S
C225 C227 1.419 . S
C225 H229 0.930 . S
C226 C225 1.369 . S
C226 C235 1.429 . S
C227 C225 1.419 . S
C227 C228 1.363 . S
C227 H230 0.929 . S
C228 C227 1.363 . S
C228 C234 1.428 . S
H229 C225 0.930 . S
H230 C227 0.929 . S
S231 N232 1.613 . S
S231 N233 1.610 . S
N232 S231 1.613 . S
N232 C235 1.350 . S
N233 S231 1.610 . S
N233 C234 1.351 . S
C234 C228 1.428 . S
C234 N233 1.351 . S
C234 C235 1.434 . S
C235 C226 1.429 . S
C235 N232 1.350 . S
C235 C234 1.434 . S
C236 C237 1.369 . S
C236 C238 1.419 . S
C236 H240 0.930 . S
C237 C236 1.369 . S
C237 C246 1.429 . S
C238 C236 1.419 . S
C238 C239 1.363 . S
C238 H241 0.929 . S
C239 C238 1.363 . S
C239 C245 1.428 . S
H240 C236 0.930 . S
H241 C238 0.929 . S
S242 N243 1.613 . S
S242 N244 1.610 . S
N243 S242 1.613 . S
N243 C246 1.350 . S
N244 S242 1.610 . S
N244 C245 1.351 . S
C245 C239 1.428 . S
C245 N244 1.351 . S
C245 C246 1.434 . S
C246 C237 1.429 . S
C246 N243 1.350 . S
C246 C245 1.434 . S
C247 C248 1.369 . S
C247 C249 1.419 . S
C247 H251 0.930 . S
C248 C247 1.369 . S
C248 C257 1.429 . S
C249 C247 1.419 . S
C249 C250 1.363 . S
C249 H252 0.929 . S
C250 C249 1.363 . S
C250 C256 1.428 . S
H251 C247 0.930 . S
H252 C249 0.929 . S
S253 N254 1.613 . S
S253 N255 1.610 . S
N254 S253 1.613 . S
N254 C257 1.350 . S
N255 S253 1.610 . S
N255 C256 1.351 . S
C256 C250 1.428 . S
C256 N255 1.351 . S
C256 C257 1.434 . S
C257 C248 1.429 . S
C257 N254 1.350 . S
C257 C256 1.434 . S
C258 C259 1.369 . S
C258 C260 1.419 . S
C258 H262 0.930 . S
C259 C258 1.369 . S
C259 C268 1.429 . S
C260 C258 1.419 . S
C260 C261 1.363 . S
C260 H263 0.929 . S
C261 C260 1.363 . S
C261 C267 1.428 . S
H262 C258 0.930 . S
H263 C260 0.929 . S
S264 N265 1.613 . S
S264 N266 1.610 . S
N265 S264 1.613 . S
N265 C268 1.350 . S
N266 S264 1.610 . S
N266 C267 1.351 . S
C267 C261 1.428 . S
C267 N266 1.351 . S
C267 C268 1.434 . S
C268 C259 1.429 . S
C268 N265 1.350 . S
C268 C267 1.434 . S
C269 C270 1.369 . S
C269 C271 1.419 . S
C269 H273 0.930 . S
C270 C269 1.369 . S
C270 C279 1.429 . S
C271 C269 1.419 . S
C271 C272 1.363 . S
C271 H274 0.929 . S
C272 C271 1.363 . S
C272 C278 1.428 . S
H273 C269 0.930 . S
H274 C271 0.929 . S
S275 N276 1.613 . S
S275 N277 1.610 . S
N276 S275 1.613 . S
N276 C279 1.350 . S
N277 S275 1.610 . S
N277 C278 1.351 . S
C278 C272 1.428 . S
C278 N277 1.351 . S
C278 C279 1.434 . S
C279 C270 1.429 . S
C279 N276 1.350 . S
C279 C278 1.434 . S
C280 C281 1.369 . S
C280 C282 1.419 . S
C280 H284 0.930 . S
C281 C280 1.369 . S
C281 C290 1.429 . S
C282 C280 1.419 . S
C282 C283 1.363 . S
C282 H285 0.929 . S
C283 C282 1.363 . S
C283 C289 1.428 . S
H284 C280 0.930 . S
H285 C282 0.929 . S
S286 N287 1.613 . S
S286 N288 1.610 . S
N287 S286 1.613 . S
N287 C290 1.350 . S
N288 S286 1.610 . S
N288 C289 1.351 . S
C289 C283 1.428 . S
C289 N288 1.351 . S
C289 C290 1.434 . S
C290 C281 1.429 . S
C290 N287 1.350 . S
C290 C289 1.434 . S
C291 C292 1.369 . S
C291 C293 1.419 . S
C291 H295 0.930 . S
C292 C291 1.369 . S
C292 C301 1.429 . S
C293 C291 1.419 . S
C293 C294 1.363 . S
C293 H296 0.929 . S
C294 C293 1.363 . S
C294 C300 1.428 . S
H295 C291 0.930 . S
H296 C293 0.929 . S
S297 N298 1.613 . S
S297 N299 1.610 . S
N298 S297 1.613 . S
N298 C301 1.350 . S
N299 S297 1.610 . S
N299 C300 1.351 . S
C300 C294 1.428 . S
C300 N299 1.351 . S
C300 C301 1.434 . S
C301 C292 1.429 . S
C301 N298 1.350 . S
C301 C300 1.434 . S
C302 C303 1.369 . S
C302 C304 1.419 . S
C302 H306 0.930 . S
C303 C302 1.369 . S
C303 C312 1.429 . S
C304 C302 1.419 . S
C304 C305 1.363 . S
C304 H307 0.929 . S
C305 C304 1.363 . S
C305 C311 1.428 . S
H306 C302 0.930 . S
H307 C304 0.929 . S
S308 N309 1.613 . S
S308 N310 1.610 . S
N309 S308 1.613 . S
N309 C312 1.350 . S
N310 S308 1.610 . S
N310 C311 1.351 . S
C311 C305 1.428 . S
C311 N310 1.351 . S
C311 C312 1.434 . S
C312 C303 1.429 . S
C312 N309 1.350 . S
C312 C311 1.434 . S
C313 C314 1.369 . S
C313 C315 1.419 . S
C313 H317 0.930 . S
C314 C313 1.369 . S
C314 C323 1.429 . S
C315 C313 1.419 . S
C315 C316 1.363 . S
C315 H318 0.929 . S
C316 C315 1.363 . S
C316 C322 1.428 . S
H317 C313 0.930 . S
H318 C315 0.929 . S
S319 N320 1.613 . S
S319 N321 1.610 . S
N320 S319 1.613 . S
N320 C323 1.350 . S
N321 S319 1.610 . S
N321 C322 1.351 . S
C322 C316 1.428 . S
C322 N321 1.351 . S
C322 C323 1.434 . S
C323 C314 1.429 . S
C323 N320 1.350 . S
C323 C322 1.434 . S
C324 C325 1.369 . S
C324 C326 1.419 . S
C324 H328 0.930 . S
C325 C324 1.369 . S
C325 C334 1.429 . S
C326 C324 1.419 . S
C326 C327 1.363 1_554 S
C326 H329 0.929 . S
C327 C326 1.363 1_556 S
C327 C333 1.428 . S
H328 C324 0.930 . S
H329 C326 0.929 . S
S330 N331 1.613 1_556 S
S330 N332 1.610 . S
N331 S330 1.613 1_554 S
N331 C334 1.350 . S
N332 S330 1.610 . S
N332 C333 1.351 . S
C333 C327 1.428 . S
C333 N332 1.351 . S
C333 C334 1.434 1_556 S
C334 C325 1.429 . S
C334 N331 1.350 . S
C334 C333 1.434 1_554 S
C335 C336 1.369 1_565 S
C335 C337 1.418 1_565 S
C335 H339 0.930 . S
C336 C335 1.369 1_545 S
C336 C345 1.429 . S
C337 C335 1.418 1_545 S
C337 C338 1.365 . S
C337 H340 0.927 1_545 S
C338 C337 1.365 . S
C338 C344 1.428 . S
H339 C335 0.930 . S
H340 C337 0.927 1_565 S
S341 N342 1.613 . S
S341 N343 1.610 . S
N342 S341 1.613 . S
N342 C345 1.350 . S
N343 S341 1.610 . S
N343 C344 1.351 . S
C344 C338 1.428 . S
C344 N343 1.351 . S
C344 C345 1.434 . S
C345 C336 1.429 . S
C345 N342 1.350 . S
C345 C344 1.434 . S
C346 C347 1.369 . S
C346 C348 1.419 . S
C346 H350 0.930 . S
C347 C346 1.369 . S
C347 C356 1.429 . S
C348 C346 1.419 . S
C348 C349 1.363 . S
C348 H351 0.929 . S
C349 C348 1.363 . S
C349 C355 1.428 . S
H350 C346 0.930 . S
H351 C348 0.929 . S
S352 N353 1.613 . S
S352 N354 1.610 . S
N353 S352 1.613 . S
N353 C356 1.350 . S
N354 S352 1.610 . S
N354 C355 1.351 . S
C355 C349 1.428 . S
C355 N354 1.351 . S
C355 C356 1.434 . S
C356 C347 1.429 . S
C356 N353 1.350 . S
C356 C355 1.434 . S
C357 C358 1.369 1_565 S
C357 C359 1.419 . S
C357 H361 0.930 . S
C358 C357 1.369 1_545 S
C358 C367 1.429 . S
C359 C357 1.419 . S
C359 C360 1.363 1_565 S
C359 H362 0.929 . S
C360 C359 1.363 1_545 S
C360 C366 1.428 . S
H361 C357 0.930 . S
H362 C359 0.929 . S
S363 N364 1.613 . S
S363 N365 1.610 . S
N364 S363 1.613 . S
N364 C367 1.350 . S
N365 S363 1.610 . S
N365 C366 1.351 . S
C366 C360 1.428 . S
C366 N365 1.351 . S
C366 C367 1.434 . S
C367 C358 1.429 . S
C367 N364 1.350 . S
C367 C366 1.434 . S
C368 C369 1.369 . S
C368 C370 1.446 . S
C368 H372 0.930 . S
C369 C368 1.369 . S
C369 C378 1.429 . S
C370 C368 1.446 . S
C370 C371 1.346 1_556 S
C370 H373 0.919 1_556 S
C371 C370 1.346 1_554 S
C371 C377 1.428 1_554 S
H372 C368 0.930 . S
H373 C370 0.919 1_554 S
S374 N375 1.613 . S
S374 N376 1.610 1_556 S
N375 S374 1.613 . S
N375 C378 1.350 . S
N376 S374 1.610 1_554 S
N376 C377 1.351 1_554 S
C377 C371 1.428 1_556 S
C377 N376 1.351 1_556 S
C377 C378 1.434 . S
C378 C369 1.429 . S
C378 N375 1.350 . S
C378 C377 1.434 . S
C379 C380 1.369 . S
C379 C381 1.418 . S
C379 H383 0.930 1_455 S
C380 C379 1.369 . S
C380 C389 1.429 . S
C381 C379 1.418 . S
C381 C382 1.362 . S
C381 H384 0.931 1_455 S
C382 C381 1.362 . S
C382 C388 1.428 . S
H383 C379 0.930 1_655 S
H384 C381 0.931 1_655 S
S385 N386 1.613 . S
S385 N387 1.610 . S
N386 S385 1.613 . S
N386 C389 1.350 . S
N387 S385 1.610 . S
N387 C388 1.351 . S
C388 C382 1.428 . S
C388 N387 1.351 . S
C388 C389 1.434 . S
C389 C380 1.429 . S
C389 N386 1.350 . S
C389 C388 1.434 . S
C193 C10 3.326 . S
C195 C186 3.297 . S
C204 C55 1.365 . S
C206 C160 1.398 . S
C215 C90 1.977 . S
C217 C172 1.930 . S
C226 C19 2.913 . S
C228 C184 2.800 . S
C239 C162 1.258 . S
C237 C46 1.225 . S
C250 C174 1.932 . S
C248 C99 1.942 . S
C259 C50 1.965 . S
C261 C136 1.895 . S
C270 C95 1.160 . S
C272 C150 1.277 . S
C281 C6 1.225 . S
C283 C126 1.245 . S
C294 C138 1.875 . S
C292 C59 1.917 . S
C305 C148 0.481 . S
C303 C86 0.651 . S
C314 C15 1.411 . S
C316 C124 1.462 . S
C327 C153 1.189 . S
C325 C18 1.169 . S
C336 C49 1.508 . S
C338 C129 1.517 . S
C347 C98 1.387 . S
C349 C141 1.418 . S
C360 C177 1.451 . S
C358 C58 1.384 . S
C371 C189 1.824 . S
C369 C89 1.713 . S
C380 C9 1.500 . S
C382 C165 1.521 . S
