# Generated by pormake.
# Topology apo, (3,6)-cn, num edge types: 1
# Building blocks:
#     Node 0, Type 0, BuildingBlock: KAKCAD_clean_linker_0, # of connection points: 3
#     Node 1, Type 0, BuildingBlock: KAKCAD_clean_linker_0, # of connection points: 3
#     Node 2, Type 0, BuildingBlock: KAKCAD_clean_linker_0, # of connection points: 3
#     Node 3, Type 0, BuildingBlock: KAKCAD_clean_linker_0, # of connection points: 3
#     Node 4, Type 0, BuildingBlock: KAKCAD_clean_linker_0, # of connection points: 3
#     Node 5, Type 0, BuildingBlock: KAKCAD_clean_linker_0, # of connection points: 3
#     Node 6, Type 0, BuildingBlock: KAKCAD_clean_linker_0, # of connection points: 3
#     Node 7, Type 0, BuildingBlock: KAKCAD_clean_linker_0, # of connection points: 3
#     Node 8, Type 1, BuildingBlock: KUMBOL_clean_sbu_1, # of connection points: 6
#     Node 9, Type 1, BuildingBlock: KUMBOL_clean_sbu_1, # of connection points: 6
#     Node 10, Type 1, BuildingBlock: KUMBOL_clean_sbu_1, # of connection points: 6
#     Node 11, Type 1, BuildingBlock: KUMBOL_clean_sbu_1, # of connection points: 6
#     Edge 12, Type (0, 1), BuildingBlock: KIFKEQ_clean_linker_1, # of connection points: 2
#     Edge 13, Type (0, 1), BuildingBlock: KIFKEQ_clean_linker_1, # of connection points: 2
#     Edge 14, Type (0, 1), BuildingBlock: KIFKEQ_clean_linker_1, # of connection points: 2
#     Edge 15, Type (0, 1), BuildingBlock: KIFKEQ_clean_linker_1, # of connection points: 2
#     Edge 16, Type (0, 1), BuildingBlock: KIFKEQ_clean_linker_1, # of connection points: 2
#     Edge 17, Type (0, 1), BuildingBlock: KIFKEQ_clean_linker_1, # of connection points: 2
#     Edge 18, Type (0, 1), BuildingBlock: KIFKEQ_clean_linker_1, # of connection points: 2
#     Edge 19, Type (0, 1), BuildingBlock: KIFKEQ_clean_linker_1, # of connection points: 2
#     Edge 20, Type (0, 1), BuildingBlock: KIFKEQ_clean_linker_1, # of connection points: 2
#     Edge 21, Type (0, 1), BuildingBlock: KIFKEQ_clean_linker_1, # of connection points: 2
#     Edge 22, Type (0, 1), BuildingBlock: KIFKEQ_clean_linker_1, # of connection points: 2
#     Edge 23, Type (0, 1), BuildingBlock: KIFKEQ_clean_linker_1, # of connection points: 2
#     Edge 24, Type (0, 1), BuildingBlock: KIFKEQ_clean_linker_1, # of connection points: 2
#     Edge 25, Type (0, 1), BuildingBlock: KIFKEQ_clean_linker_1, # of connection points: 2
#     Edge 26, Type (0, 1), BuildingBlock: KIFKEQ_clean_linker_1, # of connection points: 2
#     Edge 27, Type (0, 1), BuildingBlock: KIFKEQ_clean_linker_1, # of connection points: 2
#     Edge 28, Type (0, 1), BuildingBlock: KIFKEQ_clean_linker_1, # of connection points: 2
#     Edge 29, Type (0, 1), BuildingBlock: KIFKEQ_clean_linker_1, # of connection points: 2
#     Edge 30, Type (0, 1), BuildingBlock: KIFKEQ_clean_linker_1, # of connection points: 2
#     Edge 31, Type (0, 1), BuildingBlock: KIFKEQ_clean_linker_1, # of connection points: 2
#     Edge 32, Type (0, 1), BuildingBlock: KIFKEQ_clean_linker_1, # of connection points: 2
#     Edge 33, Type (0, 1), BuildingBlock: KIFKEQ_clean_linker_1, # of connection points: 2
#     Edge 34, Type (0, 1), BuildingBlock: KIFKEQ_clean_linker_1, # of connection points: 2
#     Edge 35, Type (0, 1), BuildingBlock: KIFKEQ_clean_linker_1, # of connection points: 2
# Relax obj value: 0.010
# Max RMSD: 0.097
# Mean RMSD: 0.076
data_MOF--net-apo--node1-KUMBOL_clean_sbu_1--node2-KAKCAD_clean_linker_0--edge1-KIFKEQ_clean_linker_1
_symmetry_space_group_name_H-M    P1
_symmetry_Int_Tables_number       1
_symmetry_cell_setting            triclinic
loop_
_symmetry_equiv_pos_as_xyz
'x, y, z'
_cell_length_a     29.919959
_cell_length_b     53.076406
_cell_length_c     64.517029
_cell_angle_alpha  89.927745
_cell_angle_beta   89.913528
_cell_angle_gamma 90.244384
loop_
_atom_site_label
_atom_site_type_symbol
_atom_site_fract_x
_atom_site_fract_y
_atom_site_fract_z
_atom_type_partial_charge
C0 C 0.29933 0.46082 0.36973 0.0
C1 C 0.34523 0.46498 0.36658 0.0
C2 C 0.28465 0.44055 0.38189 0.0
C3 C 0.31568 0.42456 0.39149 0.0
C4 C 0.36157 0.42907 0.38868 0.0
C5 C 0.37621 0.44895 0.37614 0.0
C6 C 0.30048 0.40269 0.40391 0.0
C7 C 0.27251 0.38442 0.39503 0.0
C8 C 0.26063 0.36269 0.40617 0.0
C9 C 0.27575 0.35967 0.42662 0.0
C10 C 0.3025 0.37828 0.43605 0.0
C11 C 0.31524 0.39958 0.42439 0.0
C12 C 0.31627 0.37586 0.45814 0.0
C13 C 0.28596 0.3669 0.47314 0.0
C14 C 0.35919 0.3834 0.46456 0.0
C15 C 0.3711 0.38261 0.4855 0.0
C16 C 0.34043 0.37419 0.50057 0.0
C17 C 0.23376 0.34277 0.39606 0.0
C18 C 0.19191 0.34837 0.38751 0.0
C19 C 0.25079 0.31832 0.39409 0.0
C20 C 0.22691 0.29991 0.38321 0.0
C21 C 0.18498 0.30542 0.37439 0.0
C22 C 0.16753 0.32984 0.37702 0.0
C23 C 0.2979 0.36605 0.49408 0.0
H24 H 0.27491 0.47294 0.36243 0.0
H25 H 0.2491 0.4374 0.38388 0.0
H26 H 0.38606 0.41687 0.39584 0.0
H27 H 0.41177 0.45189 0.37397 0.0
H28 H 0.26149 0.38661 0.37912 0.0
H29 H 0.3358 0.41414 0.43135 0.0
H30 H 0.26659 0.34281 0.43515 0.0
H31 H 0.25249 0.36115 0.4688 0.0
H32 H 0.3836 0.39008 0.4534 0.0
H33 H 0.404 0.38925 0.48992 0.0
H34 H 0.17805 0.36711 0.38899 0.0
H35 H 0.28328 0.31368 0.4004 0.0
H36 H 0.27364 0.35913 0.50521 0.0
H37 H 0.13499 0.33476 0.37097 0.0
H38 H 0.24207 0.28159 0.38125 0.0
C39 C 0.20748 0.04545 0.87025 0.0
C40 C 0.16154 0.04005 0.86937 0.0
C41 C 0.22328 0.06529 0.88248 0.0
C42 C 0.19349 0.07975 0.89434 0.0
C43 C 0.14761 0.07412 0.89369 0.0
C44 C 0.13173 0.05458 0.88115 0.0
C45 C 0.21025 0.10082 0.90721 0.0
C46 C 0.23764 0.11944 0.89842 0.0
C47 C 0.25437 0.13951 0.91042 0.0
C48 C 0.24281 0.14062 0.93161 0.0
C49 C 0.21459 0.12227 0.94059 0.0
C50 C 0.19867 0.1024 0.9282 0.0
C51 C 0.20147 0.1236 0.96285 0.0
C52 C 0.23269 0.13025 0.9782 0.0
C53 C 0.15764 0.11742 0.96898 0.0
C54 C 0.14561 0.1172 0.9899 0.0
C55 C 0.17697 0.12336 1.00531 0.0
C56 C 0.28258 0.1595 0.90046 0.0
C57 C 0.31107 0.15355 0.8838 0.0
C58 C 0.2798 0.18482 0.90675 0.0
C59 C 0.30385 0.20367 0.89633 0.0
C60 C 0.33058 0.19785 0.87899 0.0
C61 C 0.3341 0.17242 0.87306 0.0
C62 C 0.22057 0.13014 0.99918 0.0
H63 H 0.23107 0.03458 0.86122 0.0
H64 H 0.25883 0.06923 0.88282 0.0
H65 H 0.12401 0.08509 0.90263 0.0
H66 H 0.09617 0.05067 0.88081 0.0
H67 H 0.24467 0.11854 0.88196 0.0
H68 H 0.17796 0.08773 0.93498 0.0
H69 H 0.25543 0.15584 0.94114 0.0
H70 H 0.2668 0.13496 0.97406 0.0
H71 H 0.13251 0.11258 0.95757 0.0
H72 H 0.11188 0.1116 0.99398 0.0
H73 H 0.31527 0.13426 0.87876 0.0
H74 H 0.25809 0.19034 0.91937 0.0
H75 H 0.24546 0.13531 0.01059 0.0
H76 H 0.35366 0.16693 0.8597 0.0
H77 H 0.30094 0.22284 0.90182 0.0
C78 C 0.81152 0.05001 0.64986 0.0
C79 C 0.85761 0.04484 0.65057 0.0
C80 C 0.79518 0.06971 0.63771 0.0
C81 C 0.82434 0.08449 0.62568 0.0
C82 C 0.87017 0.07904 0.62582 0.0
C83 C 0.8867 0.05955 0.63826 0.0
C84 C 0.80685 0.10624 0.61381 0.0
C85 C 0.78011 0.12408 0.62387 0.0
C86 C 0.76197 0.14465 0.61305 0.0
C87 C 0.77096 0.14702 0.59169 0.0
C88 C 0.79847 0.12954 0.58141 0.0
C89 C 0.81654 0.10927 0.59266 0.0
C90 C 0.80855 0.13256 0.55895 0.0
C91 C 0.77439 0.13805 0.54474 0.0
C92 C 0.85255 0.13022 0.5516 0.0
C93 C 0.86229 0.13358 0.53056 0.0
C94 C 0.82817 0.13911 0.51625 0.0
C95 C 0.73499 0.16387 0.62438 0.0
C96 C 0.70751 0.15671 0.64117 0.0
C97 C 0.73813 0.18964 0.61928 0.0
C98 C 0.71533 0.20772 0.63097 0.0
C99 C 0.68962 0.20047 0.64819 0.0
C100 C 0.68558 0.17482 0.65307 0.0
C101 C 0.78402 0.14115 0.52365 0.0
H102 H 0.78784 0.03878 0.65864 0.0
H103 H 0.75958 0.0734 0.63769 0.0
H104 H 0.89337 0.09033 0.61681 0.0
H105 H 0.92243 0.05647 0.63857 0.0
H106 H 0.7746 0.12218 0.6404 0.0
H107 H 0.83716 0.09546 0.58484 0.0
H108 H 0.75696 0.1626 0.58304 0.0
H109 H 0.74005 0.13965 0.5499 0.0
H110 H 0.87967 0.12631 0.56222 0.0
H111 H 0.8968 0.13234 0.52561 0.0
H112 H 0.70313 0.13707 0.64527 0.0
H113 H 0.75934 0.196 0.6067 0.0
H114 H 0.7567 0.14493 0.51312 0.0
H115 H 0.66539 0.16878 0.66614 0.0
H116 H 0.71901 0.22746 0.62698 0.0
C117 C 0.70692 0.45891 0.14584 0.0
C118 C 0.66215 0.46689 0.14543 0.0
C119 C 0.72035 0.43778 0.1346 0.0
C120 C 0.68949 0.42431 0.12249 0.0
C121 C 0.6451 0.43266 0.12149 0.0
C122 C 0.6315 0.45364 0.13293 0.0
C123 C 0.70329 0.40094 0.11175 0.0
C124 C 0.72674 0.38241 0.12268 0.0
C125 C 0.74057 0.36008 0.11295 0.0
C126 C 0.72993 0.35643 0.0919 0.0
C127 C 0.70583 0.3747 0.0807 0.0
C128 C 0.69276 0.39696 0.09083 0.0
C129 C 0.69425 0.37057 0.05847 0.0
C130 C 0.72456 0.3588 0.04494 0.0
C131 C 0.6527 0.37835 0.0506 0.0
C132 C 0.64182 0.37457 0.02977 0.0
C133 C 0.67202 0.36268 0.01625 0.0
C134 C 0.76535 0.34062 0.12502 0.0
C135 C 0.79536 0.34781 0.14073 0.0
C136 C 0.75829 0.31476 0.12148 0.0
C137 C 0.78014 0.29666 0.13351 0.0
C138 C 0.80905 0.30389 0.14968 0.0
C139 C 0.81642 0.32976 0.15303 0.0
C140 C 0.71351 0.35481 0.02414 0.0
H141 H 0.7317 0.46894 0.15488 0.0
H142 H 0.75493 0.43189 0.13542 0.0
H143 H 0.62058 0.42245 0.11241 0.0
H144 H 0.59663 0.45898 0.13244 0.0
H145 H 0.73311 0.38522 0.13904 0.0
H146 H 0.67523 0.41152 0.08236 0.0
H147 H 0.74024 0.33928 0.08423 0.0
H148 H 0.7571 0.35284 0.05033 0.0
H149 H 0.62824 0.38718 0.06059 0.0
H150 H 0.6098 0.38119 0.02424 0.0
H151 H 0.80255 0.36749 0.1437 0.0
H152 H 0.73516 0.30838 0.1097 0.0
H153 H 0.73743 0.34527 0.01432 0.0
H154 H 0.83784 0.33627 0.16544 0.0
H155 H 0.77418 0.27697 0.13009 0.0
C156 C 0.65881 0.5671 0.65952 0.0
C157 C 0.65374 0.54293 0.65087 0.0
C158 C 0.67352 0.58736 0.64748 0.0
C159 C 0.68522 0.58404 0.62652 0.0
C160 C 0.68089 0.5598 0.6179 0.0
C161 C 0.66491 0.53962 0.62983 0.0
C162 C 0.7016 0.60587 0.61388 0.0
C163 C 0.72586 0.62547 0.62331 0.0
C164 C 0.73874 0.64707 0.61217 0.0
C165 C 0.72937 0.6484 0.59085 0.0
C166 C 0.70661 0.6286 0.58086 0.0
C167 C 0.69229 0.60765 0.59256 0.0
C168 C 0.69723 0.6297 0.55825 0.0
C169 C 0.68028 0.65171 0.54907 0.0
C170 C 0.70449 0.60844 0.54574 0.0
C171 C 0.69465 0.60906 0.52458 0.0
C172 C 0.67702 0.63091 0.51543 0.0
C173 C 0.76126 0.66819 0.62321 0.0
C174 C 0.7465 0.67528 0.64307 0.0
C175 C 0.79823 0.68081 0.61452 0.0
C176 C 0.82077 0.69953 0.62576 0.0
C177 C 0.80682 0.70591 0.64591 0.0
C178 C 0.76905 0.69382 0.65428 0.0
C179 C 0.67005 0.65226 0.5279 0.0
H180 H 0.65166 0.57055 0.67571 0.0
H181 H 0.67525 0.60571 0.65473 0.0
H182 H 0.69006 0.55625 0.60194 0.0
H183 H 0.66091 0.52149 0.62238 0.0
H184 H 0.73524 0.62393 0.63946 0.0
H185 H 0.67276 0.59308 0.58504 0.0
H186 H 0.73964 0.66484 0.58205 0.0
H187 H 0.67406 0.66834 0.55833 0.0
H188 H 0.71788 0.59128 0.55234 0.0
H189 H 0.69998 0.59222 0.51547 0.0
H190 H 0.71748 0.66638 0.65003 0.0
H191 H 0.81058 0.6757 0.59932 0.0
H192 H 0.65678 0.66942 0.52126 0.0
H193 H 0.75688 0.6987 0.66958 0.0
H194 H 0.84991 0.70845 0.61894 0.0
C195 C 0.78304 0.86935 0.02219 0.0
C196 C 0.82408 0.87873 0.01469 0.0
C197 C 0.77276 0.87041 0.04337 0.0
C198 C 0.80322 0.88091 0.05756 0.0
C199 C 0.84451 0.88989 0.05008 0.0
C200 C 0.85475 0.88886 0.02896 0.0
C201 C 0.79189 0.88299 0.08002 0.0
C202 C 0.76991 0.8632 0.09048 0.0
C203 C 0.75983 0.86502 0.11176 0.0
C204 C 0.77227 0.88702 0.1225 0.0
C205 C 0.7944 0.907 0.11242 0.0
C206 C 0.80358 0.90486 0.09112 0.0
C207 C 0.80901 0.92971 0.12434 0.0
C208 C 0.78299 0.93909 0.14079 0.0
C209 C 0.85 0.94164 0.1199 0.0
C210 C 0.86491 0.96201 0.13178 0.0
C211 C 0.83963 0.97083 0.14868 0.0
C212 C 0.7365 0.84409 0.12296 0.0
C213 C 0.70221 0.8301 0.11335 0.0
C214 C 0.74745 0.83843 0.14367 0.0
C215 C 0.72382 0.82 0.15467 0.0
C216 C 0.68921 0.80638 0.14515 0.0
C217 C 0.67905 0.81133 0.12429 0.0
C218 C 0.79824 0.9592 0.15288 0.0
H219 H 0.75879 0.86117 0.0117 0.0
H220 H 0.74055 0.86345 0.04856 0.0
H221 H 0.86906 0.89777 0.06058 0.0
H222 H 0.88645 0.89653 0.02377 0.0
H223 H 0.76182 0.84606 0.08217 0.0
H224 H 0.81927 0.92046 0.08303 0.0
H225 H 0.76493 0.88854 0.13887 0.0
H226 H 0.75083 0.93079 0.14448 0.0
H227 H 0.87128 0.93488 0.10752 0.0
H228 H 0.89651 0.97074 0.12772 0.0
H229 H 0.69245 0.83406 0.09753 0.0
H230 H 0.77441 0.84821 0.15147 0.0
H231 H 0.77789 0.96518 0.16584 0.0
H232 H 0.65237 0.80112 0.11662 0.0
H233 H 0.73287 0.81623 0.17063 0.0
C234 C 0.14439 0.93717 0.36146 0.0
C235 C 0.14421 0.96126 0.37049 0.0
C236 C 0.15953 0.91634 0.37258 0.0
C237 C 0.17538 0.91904 0.39296 0.0
C238 C 0.17491 0.94306 0.40211 0.0
C239 C 0.15947 0.96395 0.391 0.0
C240 C 0.19294 0.89681 0.40437 0.0
C241 C 0.2188 0.87887 0.3939 0.0
C242 C 0.23362 0.85695 0.40389 0.0
C243 C 0.22411 0.85368 0.42509 0.0
C244 C 0.19891 0.87167 0.43608 0.0
C245 C 0.18314 0.89306 0.42545 0.0
C246 C 0.18799 0.86791 0.45847 0.0
C247 C 0.17908 0.84367 0.46642 0.0
C248 C 0.18572 0.88861 0.47207 0.0
C249 C 0.17413 0.88523 0.4929 0.0
C250 C 0.16531 0.86103 0.50072 0.0
C251 C 0.25778 0.83732 0.39181 0.0
C252 C 0.24489 0.83197 0.37132 0.0
C253 C 0.29387 0.82401 0.40038 0.0
C254 C 0.31675 0.80602 0.38862 0.0
C255 C 0.30426 0.80102 0.36799 0.0
C256 C 0.26799 0.81426 0.35954 0.0
C257 C 0.16823 0.84027 0.48733 0.0
H258 H 0.13346 0.9344 0.34563 0.0
H259 H 0.15874 0.89806 0.36515 0.0
H260 H 0.18714 0.94582 0.41774 0.0
H261 H 0.1593 0.98217 0.39852 0.0
H262 H 0.22769 0.8821 0.37783 0.0
H263 H 0.16197 0.90645 0.43339 0.0
H264 H 0.23598 0.83698 0.43296 0.0
H265 H 0.17955 0.8273 0.45643 0.0
H266 H 0.19321 0.9075 0.46669 0.0
H267 H 0.17257 0.90152 0.50296 0.0
H268 H 0.21673 0.84146 0.3643 0.0
H269 H 0.30493 0.82774 0.41605 0.0
H270 H 0.16109 0.82143 0.49294 0.0
H271 H 0.25768 0.81128 0.34365 0.0
H272 H 0.34412 0.79596 0.39577 0.0
C273 C 0.29636 0.65214 0.99242 0.0
C274 C 0.33602 0.64265 1.00092 0.0
C275 C 0.28606 0.64809 0.97156 0.0
C276 C 0.31566 0.63488 0.95854 0.0
C277 C 0.35532 0.62527 0.9672 0.0
C278 C 0.36515 0.62892 0.98819 0.0
C279 C 0.30554 0.63158 0.93601 0.0
C280 C 0.283 0.65057 0.92492 0.0
C281 C 0.27374 0.64781 0.90373 0.0
C282 C 0.28706 0.62583 0.89345 0.0
C283 C 0.30949 0.60665 0.90414 0.0
C284 C 0.31868 0.60963 0.92536 0.0
C285 C 0.32362 0.58363 0.89297 0.0
C286 C 0.29279 0.56996 0.88097 0.0
C287 C 0.36832 0.57571 0.89364 0.0
C288 C 0.38219 0.55486 0.88208 0.0
C289 C 0.35141 0.54128 0.86998 0.0
C290 C 0.25033 0.66799 0.89223 0.0
C291 C 0.20884 0.67694 0.8992 0.0
C292 C 0.26906 0.67815 0.87406 0.0
C293 C 0.24671 0.69698 0.86305 0.0
C294 C 0.20481 0.70558 0.86979 0.0
C295 C 0.18604 0.69539 0.88794 0.0
C296 C 0.30648 0.54883 0.86973 0.0
H297 H 0.2731 0.66255 1.002 0.0
H298 H 0.2547 0.65526 0.96571 0.0
H299 H 0.37939 0.61539 0.95771 0.0
H300 H 0.39614 0.62158 0.99436 0.0
H301 H 0.27364 0.66794 0.93256 0.0
H302 H 0.33519 0.59451 0.93359 0.0
H303 H 0.28004 0.62368 0.87706 0.0
H304 H 0.2581 0.57566 0.88027 0.0
H305 H 0.39273 0.58602 0.9027 0.0
H306 H 0.41698 0.54933 0.88259 0.0
H307 H 0.1937 0.6693 0.91313 0.0
H308 H 0.30112 0.6716 0.86845 0.0
H309 H 0.28217 0.53875 0.86044 0.0
H310 H 0.15382 0.70179 0.89346 0.0
H311 H 0.26171 0.70446 0.84903 0.0
C312 C 0.86649 0.10291 0.26814 0.0
C313 C 0.8792 0.06257 0.28463 0.0
C314 C 0.89155 0.08791 0.28127 0.0
C315 C 0.84279 0.05229 0.27375 0.0
C316 C 0.82887 0.09303 0.25782 0.0
C317 C 0.81766 0.06749 0.26038 0.0
N318 N 0.87892 0.12735 0.26556 0.0
C319 C 0.85323 0.14355 0.2543 0.0
C320 C 0.80349 0.10921 0.24538 0.0
C321 C 0.81541 0.13466 0.24384 0.0
Gd322 Gd 0.05068 0.14201 0.24335 0.0
Gd323 Gd 0.9442 0.14041 0.28255 0.0
N324 N 0.92647 0.09849 0.29159 0.0
C325 C 0.90296 0.04856 0.29931 0.0
C326 C 0.94691 0.0856 0.30723 0.0
C327 C 0.93637 0.0603 0.31095 0.0
H328 H 0.97092 0.09485 0.31711 0.0
H329 H 0.9536 0.04998 0.323 0.0
H330 H 0.04485 0.19903 0.22265 0.0
H331 H 0.86265 0.16318 0.25305 0.0
H332 H 0.08738 0.23926 0.22331 0.0
H333 H 0.89457 0.02902 0.30234 0.0
H334 H 0.83313 0.03277 0.27595 0.0
H335 H 0.12055 0.09819 0.2637 0.0
H336 H 0.77433 0.10234 0.23717 0.0
H337 H 0.7956 0.14738 0.23454 0.0
H338 H 0.21159 0.22199 0.26827 0.0
H339 H 0.78917 0.05944 0.25238 0.0
H340 H 0.23049 0.13694 0.29156 0.0
H341 H 0.18952 0.09735 0.28434 0.0
N342 N 0.11886 0.13825 0.26141 0.0
C343 C 0.14252 0.15995 0.26397 0.0
C344 C 0.13651 0.11579 0.26767 0.0
C345 C 0.19937 0.13753 0.283 0.0
C346 C 0.1763 0.11516 0.27901 0.0
C347 C 0.18324 0.16023 0.27496 0.0
H348 H 0.23843 0.18351 0.28547 0.0
N349 N 0.0887 0.1806 0.24354 0.0
C350 C 0.12748 0.18167 0.25437 0.0
C351 C 0.13757 0.22518 0.24425 0.0
C352 C 0.15259 0.20416 0.25537 0.0
C353 C 0.07485 0.20058 0.23189 0.0
C354 C 0.09883 0.22327 0.23223 0.0
O355 O 0.9392 0.12535 0.24966 0.0
O356 O 0.00736 0.10726 0.24471 0.0
O357 O 0.04274 0.14499 0.21002 0.0
O358 O 0.10181 0.12759 0.22257 0.0
O359 O 0.00957 0.12367 0.29385 0.0
O360 O 0.04261 0.10782 0.26426 0.0
O361 O 0.0372 0.17478 0.2651 0.0
O362 O 0.01065 0.15476 0.29392 0.0
O363 O 0.90858 0.13916 0.312 0.0
O364 O 0.91045 0.17359 0.29426 0.0
O365 O 0.98709 0.16032 0.23205 0.0
O366 O 0.94887 0.17438 0.26129 0.0
C367 C 0.96401 0.10735 0.24194 0.0
C368 C 0.03545 0.10724 0.28441 0.0
C369 C 0.07502 0.11263 0.19046 0.0
C370 C 0.08281 0.09851 0.15464 0.0
C371 C 0.04938 0.07093 0.18062 0.0
C372 C 0.05552 0.08943 0.19573 0.0
C373 C 0.06279 0.07542 0.16017 0.0
C374 C 0.08882 0.11707 0.16997 0.0
C375 C 0.07927 0.1328 0.2059 0.0
C376 C 0.19209 0.2048 0.26708 0.0
C377 C 0.20732 0.1829 0.27691 0.0
H378 H 0.15598 0.24279 0.24457 0.0
C379 C 0.03276 0.17337 0.28531 0.0
C380 C 0.95865 0.17553 0.24134 0.0
C381 C 0.91502 0.17704 0.33089 0.0
C382 C 0.91612 0.18079 0.36871 0.0
C383 C 0.96005 0.20952 0.34741 0.0
C384 C 0.94482 0.19756 0.32952 0.0
C385 C 0.9461 0.20114 0.36688 0.0
C386 C 0.90036 0.16894 0.35058 0.0
C387 C 0.90092 0.16325 0.31205 0.0
H388 H 0.03412 0.05309 0.18475 0.0
H389 H 0.04489 0.08569 0.21147 0.0
H390 H 0.05797 0.06073 0.14875 0.0
H391 H 0.10333 0.13517 0.16589 0.0
H392 H 0.98307 0.22525 0.34619 0.0
H393 H 0.95686 0.20422 0.31464 0.0
H394 H 0.95845 0.21074 0.38055 0.0
H395 H 0.87769 0.15301 0.35181 0.0
C396 C 0.64248 0.39138 0.75988 0.0
C397 C 0.63786 0.43613 0.76732 0.0
C398 C 0.6196 0.41162 0.76854 0.0
C399 C 0.67863 0.44008 0.75697 0.0
C400 C 0.68352 0.39528 0.74957 0.0
C401 C 0.70139 0.41973 0.74813 0.0
N402 N 0.62371 0.36801 0.76087 0.0
C403 C 0.64479 0.34765 0.75254 0.0
C404 C 0.70505 0.37453 0.74071 0.0
C405 C 0.68567 0.35061 0.74228 0.0
Gd406 Gd 0.44531 0.36298 0.74205 0.0
Gd407 Gd 0.55505 0.36516 0.77816 0.0
N408 N 0.5795 0.40737 0.77803 0.0
C409 C 0.61479 0.45595 0.77672 0.0
C410 C 0.55886 0.4263 0.78858 0.0
C411 C 0.57552 0.45093 0.78768 0.0
H412 H 0.53054 0.42251 0.79833 0.0
H413 H 0.55847 0.46594 0.79578 0.0
H414 H 0.46774 0.30194 0.73135 0.0
H415 H 0.63048 0.32905 0.75411 0.0
H416 H 0.43133 0.26067 0.73537 0.0
H417 H 0.6277 0.47505 0.77612 0.0
H418 H 0.69297 0.45881 0.75579 0.0
H419 H 0.372 0.40561 0.75944 0.0
H420 H 0.73662 0.37676 0.73266 0.0
H421 H 0.70226 0.33442 0.73564 0.0
H422 H 0.28786 0.27983 0.76448 0.0
H423 H 0.73278 0.4231 0.74019 0.0
H424 H 0.25376 0.36625 0.77862 0.0
H425 H 0.29592 0.40612 0.77434 0.0
N426 N 0.37325 0.3658 0.75593 0.0
C427 C 0.35051 0.34368 0.75787 0.0
C428 C 0.35419 0.38806 0.76161 0.0
C429 C 0.28722 0.36589 0.77217 0.0
C430 C 0.31096 0.38844 0.76985 0.0
C431 C 0.30689 0.34314 0.76616 0.0
H432 H 0.251 0.3192 0.77479 0.0
N433 N 0.41434 0.32238 0.74496 0.0
C434 C 0.37149 0.32137 0.75211 0.0
C435 C 0.3712 0.27605 0.74856 0.0
C436 C 0.34907 0.29811 0.75441 0.0
C437 C 0.43529 0.30105 0.73842 0.0
C438 C 0.41433 0.27757 0.74037 0.0
O439 O 0.55763 0.38187 0.74566 0.0
O440 O 0.48766 0.39808 0.74091 0.0
O441 O 0.44636 0.35525 0.70896 0.0
O442 O 0.39561 0.37954 0.72178 0.0
O443 O 0.49098 0.38287 0.79038 0.0
O444 O 0.45432 0.3979 0.7614 0.0
O445 O 0.44055 0.34449 0.77375 0.0
O446 O 0.51157 0.33051 0.78097 0.0
O447 O 0.56135 0.36977 0.81161 0.0
O448 O 0.61026 0.34818 0.79466 0.0
O449 O 0.50866 0.34411 0.73058 0.0
O450 O 0.54629 0.32965 0.75953 0.0
C451 C 0.53088 0.39875 0.73759 0.0
C452 C 0.46205 0.39813 0.78148 0.0
C453 C 0.42142 0.38873 0.68807 0.0
C454 C 0.42104 0.39887 0.65112 0.0
C455 C 0.44671 0.42982 0.67629 0.0
C456 C 0.43807 0.41289 0.69237 0.0
C457 C 0.43834 0.4229 0.65579 0.0
C458 C 0.4128 0.38179 0.66745 0.0
C459 C 0.41358 0.37059 0.70498 0.0
C460 C 0.30553 0.29755 0.76256 0.0
C461 C 0.28452 0.31998 0.76842 0.0
H462 H 0.35512 0.25781 0.75009 0.0
C463 C 0.46816 0.32988 0.78402 0.0
C464 C 0.53774 0.32905 0.73953 0.0
C465 C 0.59539 0.3357 0.82914 0.0
C466 C 0.60138 0.32451 0.86585 0.0
C467 C 0.59153 0.29186 0.83972 0.0
C468 C 0.59129 0.31008 0.82413 0.0
C469 C 0.59672 0.29894 0.86042 0.0
C470 C 0.60023 0.34282 0.84999 0.0
C471 C 0.5961 0.35515 0.81281 0.0
H472 H 0.45959 0.44843 0.67974 0.0
H473 H 0.44408 0.41865 0.70817 0.0
H474 H 0.44454 0.43656 0.64363 0.0
H475 H 0.40006 0.36308 0.66414 0.0
H476 H 0.58833 0.27214 0.83573 0.0
H477 H 0.58823 0.30412 0.80815 0.0
H478 H 0.59816 0.28429 0.87208 0.0
H479 H 0.60318 0.36265 0.85379 0.0
C480 C 0.86823 0.82998 0.75685 0.0
C481 C 0.88004 0.78619 0.76608 0.0
C482 C 0.89321 0.81172 0.76706 0.0
C483 C 0.84289 0.77922 0.75405 0.0
C484 C 0.83053 0.8231 0.74503 0.0
C485 C 0.81821 0.79761 0.74357 0.0
N486 N 0.88202 0.85439 0.75775 0.0
C487 C 0.85881 0.87302 0.74799 0.0
C488 C 0.8068 0.84204 0.73471 0.0
C489 C 0.82089 0.86711 0.73629 0.0
Gd490 Gd 0.05851 0.86148 0.74119 0.0
Gd491 Gd 0.94668 0.8624 0.77703 0.0
N492 N 0.92985 0.81893 0.77815 0.0
C493 C 0.9041 0.76846 0.77754 0.0
C494 C 0.95031 0.80207 0.79097 0.0
C495 C 0.93874 0.77653 0.7904 0.0
H496 H 0.9745 0.80819 0.80223 0.0
H497 H 0.95596 0.76318 0.80021 0.0
H498 H 0.05761 0.9239 0.73339 0.0
H499 H 0.86993 0.89237 0.7491 0.0
H500 H 0.10848 0.96021 0.73818 0.0
H501 H 0.89505 0.74867 0.77721 0.0
H502 H 0.83267 0.75966 0.75295 0.0
H503 H 0.11712 0.81003 0.75355 0.0
H504 H 0.77768 0.8375 0.72546 0.0
H505 H 0.80271 0.88186 0.7284 0.0
H506 H 0.24274 0.92354 0.76539 0.0
H507 H 0.78959 0.79193 0.73439 0.0
H508 H 0.24613 0.83388 0.77475 0.0
H509 H 0.19151 0.79976 0.76784 0.0
N510 N 0.12879 0.84953 0.75361 0.0
C511 C 0.15862 0.8685 0.75679 0.0
C512 C 0.14035 0.82506 0.75707 0.0
C513 C 0.21336 0.8385 0.76875 0.0
C514 C 0.18259 0.81918 0.76491 0.0
C515 C 0.20173 0.86351 0.76451 0.0
H516 H 0.26506 0.88008 0.77363 0.0
N517 N 0.10387 0.89724 0.74522 0.0
C518 C 0.14609 0.89303 0.75214 0.0
C519 C 0.16229 0.9376 0.75016 0.0
C520 C 0.17626 0.91317 0.75508 0.0
C521 C 0.09056 0.92086 0.73964 0.0
C522 C 0.11937 0.94143 0.74227 0.0
O523 O 0.94563 0.85113 0.74306 0.0
O524 O 0.01009 0.82906 0.74082 0.0
O525 O 0.05105 0.8701 0.7085 0.0
O526 O 0.10262 0.84438 0.71847 0.0
O527 O 0.01125 0.84685 0.79042 0.0
O528 O 0.04122 0.82858 0.76155 0.0
O529 O 0.06402 0.88489 0.7705 0.0
O530 O 0.99303 0.89512 0.78282 0.0
O531 O 0.92876 0.85667 0.80944 0.0
O532 O 0.89144 0.88286 0.79084 0.0
O533 O 0.00227 0.88732 0.73126 0.0
O534 O 0.95562 0.89847 0.75889 0.0
C535 C 0.96865 0.83254 0.7352 0.0
C536 C 0.03954 0.83117 0.78172 0.0
C537 C 0.07059 0.83763 0.68554 0.0
C538 C 0.07049 0.82865 0.64847 0.0
C539 C 0.03212 0.80059 0.67249 0.0
C540 C 0.04552 0.81567 0.68909 0.0
C541 C 0.04426 0.80709 0.65226 0.0
C542 C 0.08346 0.84392 0.66525 0.0
C543 C 0.08225 0.85453 0.70274 0.0
C544 C 0.21913 0.9083 0.76293 0.0
C545 C 0.23182 0.88354 0.76765 0.0
H546 H 0.18444 0.9536 0.75225 0.0
C547 C 0.03667 0.89836 0.78201 0.0
C548 C 0.97228 0.90203 0.74012 0.0
C549 C 0.90194 0.89301 0.82622 0.0
C550 C 0.89806 0.90338 0.86315 0.0
C551 C 0.92017 0.93527 0.83795 0.0
C552 C 0.91514 0.9179 0.82193 0.0
C553 C 0.91182 0.92812 0.85842 0.0
C554 C 0.89311 0.88588 0.84687 0.0
C555 C 0.89865 0.87425 0.8094 0.0
H556 H 0.01241 0.78378 0.67533 0.0
H557 H 0.03639 0.81026 0.70467 0.0
H558 H 0.03392 0.79501 0.6396 0.0
H559 H 0.10298 0.86086 0.66249 0.0
H560 H 0.93052 0.95439 0.83449 0.0
H561 H 0.92161 0.9239 0.80617 0.0
H562 H 0.91545 0.94208 0.87053 0.0
H563 H 0.88316 0.86664 0.85026 0.0
C564 C 0.65341 0.6595 0.25681 0.0
C565 C 0.65572 0.7052 0.2586 0.0
C566 C 0.63335 0.68217 0.26223 0.0
C567 C 0.69834 0.70513 0.24945 0.0
C568 C 0.69619 0.65938 0.24762 0.0
C569 C 0.71852 0.6823 0.24398 0.0
N570 N 0.63061 0.63763 0.26007 0.0
C571 C 0.64904 0.61497 0.25505 0.0
C572 C 0.71509 0.63621 0.24219 0.0
C573 C 0.69146 0.61392 0.24599 0.0
Gd574 Gd 0.44909 0.63937 0.23854 0.0
Gd575 Gd 0.55923 0.64149 0.27459 0.0
N576 N 0.59131 0.6817 0.27037 0.0
C577 C 0.63446 0.72763 0.26417 0.0
C578 C 0.5713 0.70344 0.27665 0.0
C579 C 0.59226 0.72671 0.27342 0.0
H580 H 0.53946 0.70302 0.28435 0.0
H581 H 0.57595 0.74393 0.27817 0.0
H582 H 0.47543 0.58299 0.21672 0.0
H583 H 0.63127 0.59766 0.25831 0.0
H584 H 0.45087 0.53895 0.21909 0.0
H585 H 0.6505 0.74571 0.26161 0.0
H586 H 0.71595 0.72265 0.24648 0.0
H587 H 0.37048 0.67342 0.26198 0.0
H588 H 0.7479 0.63533 0.2351 0.0
H589 H 0.70594 0.59591 0.24198 0.0
H590 H 0.31738 0.54247 0.26011 0.0
H591 H 0.75136 0.68257 0.23689 0.0
H592 H 0.26754 0.6234 0.28324 0.0
H593 H 0.29876 0.6665 0.28023 0.0
N594 N 0.38005 0.63474 0.25527 0.0
C595 C 0.36302 0.61097 0.25627 0.0
C596 C 0.35737 0.65458 0.2635 0.0
C597 C 0.29901 0.62636 0.27525 0.0
C598 C 0.3166 0.65071 0.27366 0.0
C599 C 0.32218 0.60612 0.26649 0.0
H600 H 0.27499 0.57716 0.27582 0.0
N601 N 0.42695 0.59664 0.23802 0.0
C602 C 0.38739 0.59135 0.24761 0.0
C603 C 0.39491 0.54731 0.2389 0.0
C604 C 0.3708 0.56645 0.24866 0.0
C605 C 0.44815 0.57839 0.22688 0.0
C606 C 0.43326 0.5534 0.22761 0.0
O607 O 0.56308 0.65904 0.24255 0.0
O608 O 0.49258 0.67408 0.23586 0.0
O609 O 0.44259 0.6342 0.20524 0.0
O610 O 0.39548 0.65756 0.22167 0.0
O611 O 0.49709 0.66162 0.28593 0.0
O612 O 0.45616 0.67487 0.25742 0.0
O613 O 0.44563 0.62412 0.27145 0.0
O614 O 0.51493 0.60711 0.27644 0.0
O615 O 0.56017 0.65065 0.30742 0.0
O616 O 0.60818 0.62439 0.29501 0.0
O617 O 0.51364 0.62193 0.22677 0.0
O618 O 0.54859 0.60627 0.25589 0.0
C619 C 0.53598 0.67452 0.23294 0.0
C620 C 0.4673 0.67645 0.27715 0.0
C621 C 0.41377 0.66923 0.18732 0.0
C622 C 0.40903 0.68082 0.15063 0.0
C623 C 0.42931 0.71218 0.17661 0.0
C624 C 0.42587 0.69408 0.19222 0.0
C625 C 0.42065 0.70573 0.15602 0.0
C626 C 0.40587 0.66263 0.16656 0.0
C627 C 0.40955 0.64995 0.20366 0.0
C628 C 0.33039 0.56151 0.25904 0.0
C629 C 0.30614 0.58128 0.26791 0.0
H630 H 0.3833 0.52795 0.23934 0.0
C631 C 0.47167 0.60706 0.27976 0.0
C632 C 0.54182 0.60633 0.23576 0.0
C633 C 0.58261 0.61746 0.32915 0.0
C634 C 0.58448 0.60855 0.36631 0.0
C635 C 0.55057 0.57859 0.34245 0.0
C636 C 0.56089 0.59437 0.3258 0.0
C637 C 0.56215 0.58561 0.36258 0.0
C638 C 0.5946 0.62445 0.34941 0.0
C639 C 0.59167 0.63459 0.31166 0.0
H640 H 0.43836 0.73137 0.18051 0.0
H641 H 0.43239 0.69952 0.2081 0.0
H642 H 0.42247 0.72043 0.14441 0.0
H643 H 0.39768 0.64324 0.16289 0.0
H644 H 0.53371 0.56082 0.33972 0.0
H645 H 0.55206 0.58857 0.3103 0.0
H646 H 0.55433 0.57286 0.37522 0.0
H647 H 0.61121 0.64236 0.35202 0.0
H648 H 0.07384 0.96356 0.34345 0.0
H649 H 0.17918 0.00918 0.37001 0.0
H650 H 0.05036 0.9992 0.32235 0.0
H651 H 0.15477 0.04502 0.34919 0.0
H652 H 0.05436 0.05962 0.27162 0.0
H653 H 0.08188 0.02465 0.29268 0.0
H654 H 0.08743 0.07349 0.34613 0.0
H655 H 0.06007 0.10849 0.32501 0.0
C656 C 0.09218 0.98112 0.34473 0.0
C657 C 0.12861 0.98341 0.35837 0.0
C658 C 0.07865 1.00154 0.33264 0.0
C659 C 0.10093 0.0248 0.33404 0.0
C660 C 0.1368 0.02733 0.34792 0.0
C661 C 0.15062 0.00682 0.3599 0.0
C662 C 0.06194 0.06291 0.28782 0.0
C663 C 0.05499 0.08666 0.29675 0.0
C664 C 0.07731 0.04289 0.29989 0.0
C665 C 0.08651 0.04634 0.32106 0.0
C666 C 0.08081 0.07033 0.32983 0.0
C667 C 0.06499 0.09028 0.3178 0.0
H668 H 0.42039 0.54036 0.84242 0.0
H669 H 0.31588 0.49381 0.86854 0.0
H670 H 0.4444 0.50514 0.82064 0.0
H671 H 0.3404 0.4584 0.84695 0.0
H672 H 0.4437 0.39701 0.82291 0.0
H673 H 0.41484 0.43138 0.84437 0.0
H674 H 0.4072 0.47911 0.7903 0.0
H675 H 0.43527 0.44469 0.76878 0.0
C676 C 0.40279 0.52253 0.84357 0.0
C677 C 0.36636 0.51974 0.85715 0.0
C678 C 0.41628 0.50249 0.83103 0.0
C679 C 0.39414 0.47913 0.83211 0.0
C680 C 0.35806 0.47621 0.84588 0.0
C681 C 0.34398 0.49644 0.85814 0.0
C682 C 0.4354 0.41477 0.81561 0.0
C683 C 0.4416 0.41818 0.7942 0.0
C684 C 0.41881 0.43436 0.82786 0.0
C685 C 0.40901 0.45787 0.81897 0.0
C686 C 0.41476 0.46119 0.79753 0.0
C687 C 0.43049 0.44146 0.78522 0.0
H688 H 0.67375 0.49229 0.6478 0.0
H689 H 0.59405 0.54461 0.68337 0.0
H690 H 0.64368 0.45769 0.66806 0.0
H691 H 0.56852 0.51058 0.70514 0.0
H692 H 0.49224 0.44387 0.72886 0.0
H693 H 0.521 0.47749 0.70722 0.0
H694 H 0.64407 0.43608 0.69881 0.0
H695 H 0.61246 0.40108 0.71837 0.0
C696 C 0.65 0.49656 0.65995 0.0
C697 C 0.63648 0.52151 0.66374 0.0
C698 C 0.63336 0.47662 0.67194 0.0
C699 C 0.60348 0.48107 0.68841 0.0
C700 C 0.59063 0.50607 0.6924 0.0
C701 C 0.60625 0.52588 0.68008 0.0
C702 C 0.52506 0.44172 0.72201 0.0
C703 C 0.54987 0.41968 0.72519 0.0
C704 C 0.54212 0.46132 0.70989 0.0
C705 C 0.58524 0.45985 0.70119 0.0
C706 C 0.61045 0.4379 0.7048 0.0
C707 C 0.59269 0.41793 0.7164 0.0
H708 H 0.79221 0.00819 0.1685 0.0
H709 H 0.92662 0.98045 0.15984 0.0
H710 H 0.8204 0.0403 0.19198 0.0
H711 H 0.95507 0.01381 0.1818 0.0
H712 H 0.99117 0.05889 0.23834 0.0
H713 H 0.95975 0.02603 0.21641 0.0
H714 H 0.86037 0.07841 0.19409 0.0
H715 H 0.89116 0.11094 0.21673 0.0
C716 C 0.82778 0.00892 0.1715 0.0
C717 C 0.85697 0.9915 0.16222 0.0
C718 C 0.84407 0.02766 0.18477 0.0
C719 C 0.89009 0.02972 0.18894 0.0
C720 C 0.91933 0.01259 0.17936 0.0
C721 C 0.903 0.99365 0.16636 0.0
C722 C 0.96252 0.06328 0.22876 0.0
C723 C 0.94362 0.08741 0.22915 0.0
C724 C 0.94462 0.04451 0.21606 0.0
C725 C 0.90772 0.04952 0.2032 0.0
C726 C 0.88842 0.07368 0.2039 0.0
C727 C 0.90609 0.09238 0.21682 0.0
H728 H 0.82691 0.03006 0.68895 0.0
H729 H 0.92827 0.01304 0.64329 0.0
H730 H 0.8532 0.9956 0.71039 0.0
H731 H 0.95696 0.98003 0.66555 0.0
H732 H 0.96919 0.9052 0.6981 0.0
H733 H 0.94115 0.9395 0.677 0.0
H734 H 0.90977 0.98155 0.7325 0.0
H735 H 0.93597 0.9464 0.75365 0.0
C736 C 0.85485 0.01903 0.68343 0.0
C737 C 0.87509 0.02434 0.66418 0.0
C738 C 0.87049 0.99946 0.69598 0.0
C739 C 0.90726 0.98484 0.6898 0.0
C740 C 0.92805 0.99048 0.67074 0.0
C741 C 0.91199 0.0098 0.65805 0.0
C742 C 0.95633 0.92179 0.70581 0.0
C743 C 0.9549 0.92314 0.72755 0.0
C744 C 0.94048 0.9416 0.69368 0.0
C745 C 0.92347 0.96356 0.70293 0.0
C746 C 0.922 0.96486 0.72475 0.0
C747 C 0.93721 0.94477 0.73692 0.0
H748 H 0.68989 0.47938 0.18461 0.0
H749 H 0.60046 0.50328 0.1359 0.0
H750 H 0.66523 0.51426 0.20605 0.0
H751 H 0.5735 0.5371 0.15793 0.0
H752 H 0.5606 0.60904 0.19453 0.0
H753 H 0.59284 0.57643 0.17262 0.0
H754 H 0.60288 0.52717 0.22585 0.0
H755 H 0.57219 0.56019 0.24779 0.0
C756 C 0.6651 0.49212 0.1784 0.0
C757 C 0.64728 0.48846 0.15845 0.0
C758 C 0.65043 0.51194 0.19086 0.0
C759 C 0.6172 0.52851 0.18381 0.0
C760 C 0.59956 0.52495 0.16381 0.0
C761 C 0.61456 0.50527 0.15127 0.0
C762 C 0.57008 0.59128 0.20153 0.0
C763 C 0.56398 0.58713 0.22284 0.0
C764 C 0.58826 0.57252 0.18896 0.0
C765 C 0.60024 0.54904 0.19739 0.0
C766 C 0.59473 0.54511 0.21883 0.0
C767 C 0.57701 0.564 0.23143 0.0
H768 H 0.39705 0.46134 0.33218 0.0
H769 H 0.32877 0.51516 0.37073 0.0
H770 H 0.42453 0.49535 0.31013 0.0
H771 H 0.35847 0.5496 0.34963 0.0
H772 H 0.39048 0.60617 0.29932 0.0
H773 H 0.35675 0.57146 0.31856 0.0
H774 H 0.47631 0.52736 0.30889 0.0
H775 H 0.5076 0.56104 0.28794 0.0
C776 C 0.38832 0.48058 0.33597 0.0
C777 C 0.36099 0.48574 0.3531 0.0
C778 C 0.40433 0.50015 0.32347 0.0
C779 C 0.39427 0.52545 0.32811 0.0
C780 C 0.36647 0.53046 0.34527 0.0
C781 C 0.34964 0.51078 0.35749 0.0
C782 C 0.40907 0.58884 0.30099 0.0
C783 C 0.45161 0.58633 0.29204 0.0
C784 C 0.39006 0.56902 0.31234 0.0
C785 C 0.41366 0.54642 0.31545 0.0
C786 C 0.45649 0.54414 0.30657 0.0
C787 C 0.47492 0.5637 0.29482 0.0
H788 H 0.09544 0.0425 0.84054 0.0
H789 H 0.18975 0.99129 0.8682 0.0
H790 H 0.06718 0.0087 0.81859 0.0
H791 H 0.16022 0.95697 0.84705 0.0
H792 H 0.12387 0.90492 0.794 0.0
H793 H 0.15553 0.93974 0.8137 0.0
H794 H 0.02383 0.9723 0.8196 0.0
H795 H 0.99337 0.93889 0.79827 0.0
C796 C 0.10975 0.02386 0.84203 0.0
C797 C 0.14462 0.01943 0.85606 0.0
C798 C 0.09346 0.00442 0.82955 0.0
C799 C 0.1111 0.97992 0.83108 0.0
C800 C 0.14622 0.9756 0.84514 0.0
C801 C 0.16303 0.9952 0.85737 0.0
C802 C 0.10188 0.91978 0.79916 0.0
C803 C 0.05604 0.9191 0.7945 0.0
C804 C 0.11991 0.93959 0.81079 0.0
C805 C 0.09234 0.95896 0.81836 0.0
C806 C 0.04639 0.95806 0.8138 0.0
C807 C 0.02863 0.93856 0.80186 0.0
H808 H 0.22756 0.1063 0.03787 0.0
H809 H 0.09764 0.13699 0.02349 0.0
H810 H 0.20531 0.10169 0.07406 0.0
H811 H 0.07524 0.13182 0.05959 0.0
H812 H 0.03633 0.08839 0.11915 0.0
H813 H 0.05987 0.09573 0.08338 0.0
H814 H 0.18453 0.12721 0.10518 0.0
H815 H 0.16122 0.11952 0.141 0.0
C816 C 0.19449 0.11239 0.04243 0.0
C817 C 0.16436 0.12192 0.02766 0.0
C818 C 0.18171 0.10967 0.06319 0.0
C819 C 0.13843 0.11624 0.06965 0.0
C820 C 0.10859 0.1262 0.05501 0.0
C821 C 0.12144 0.12911 0.0343 0.0
C822 C 0.06884 0.09677 0.1163 0.0
C823 C 0.09696 0.10332 0.13289 0.0
C824 C 0.08214 0.1012 0.09583 0.0
C825 C 0.12403 0.11209 0.09146 0.0
C826 C 0.15219 0.11864 0.10805 0.0
C827 C 0.1387 0.11442 0.12854 0.0
H828 H 0.42047 0.36215 0.51879 0.0
H829 H 0.28719 0.38793 0.53319 0.0
H830 H 0.44071 0.36561 0.55532 0.0
H831 H 0.30733 0.3911 0.56964 0.0
H832 H 0.34679 0.37464 0.63626 0.0
H833 H 0.32784 0.36587 0.60016 0.0
H834 H 0.4525 0.39968 0.58053 0.0
H835 H 0.47192 0.40783 0.61662 0.0
C836 C 0.39549 0.36857 0.52972 0.0
C837 C 0.35221 0.37483 0.52299 0.0
C838 C 0.40709 0.37051 0.55066 0.0
C839 C 0.37565 0.37866 0.56539 0.0
C840 C 0.33215 0.3844 0.55875 0.0
C841 C 0.32059 0.38255 0.53782 0.0
C842 C 0.37044 0.37983 0.62425 0.0
C843 C 0.41077 0.39203 0.6293 0.0
C844 C 0.35939 0.37503 0.60356 0.0
C845 C 0.38855 0.38219 0.58746 0.0
C846 C 0.42944 0.39375 0.59256 0.0
C847 C 0.44037 0.39865 0.61322 0.0
H848 H 0.59027 0.34995 0.99986 0.0
H849 H 0.72699 0.36567 0.9822 0.0
H850 H 0.57113 0.34305 0.9637 0.0
H851 H 0.70855 0.35705 0.94624 0.0
H852 H 0.65623 0.36181 0.88094 0.0
H853 H 0.67064 0.3727 0.91691 0.0
H854 H 0.58056 0.31351 0.93679 0.0
H855 H 0.56382 0.3038 0.90083 0.0
C856 C 0.61629 0.352 0.98829 0.0
C857 C 0.66025 0.35838 0.99406 0.0
C858 C 0.60542 0.34767 0.96752 0.0
C859 C 0.63826 0.34937 0.95195 0.0
C860 C 0.68216 0.35587 0.95771 0.0
C861 C 0.69294 0.36043 0.97845 0.0
C862 C 0.63875 0.35144 0.89295 0.0
C863 C 0.6089 0.33185 0.88789 0.0
C864 C 0.64758 0.35744 0.91365 0.0
C865 C 0.62711 0.34387 0.92987 0.0
C866 C 0.59668 0.32457 0.92479 0.0
C867 C 0.58754 0.31873 0.9041 0.0
H868 H 0.89051 0.11462 0.49232 0.0
H869 H 0.79007 0.17283 0.48917 0.0
H870 H 0.91054 0.12286 0.45629 0.0
H871 H 0.80931 0.18038 0.45296 0.0
H872 H 0.83125 0.1709 0.38256 0.0
H873 H 0.80811 0.15898 0.41772 0.0
H874 H 0.9462 0.15916 0.43707 0.0
H875 H 0.9692 0.17099 0.40203 0.0
C876 C 0.87271 0.1292 0.48403 0.0
C877 C 0.8388 0.14315 0.49384 0.0
C878 C 0.88409 0.13381 0.46332 0.0
C879 C 0.86153 0.15228 0.4518 0.0
C880 C 0.82692 0.1658 0.46136 0.0
C881 C 0.81585 0.1614 0.48215 0.0
C882 C 0.85659 0.16811 0.3943 0.0
C883 C 0.90199 0.17198 0.3896 0.0
C884 C 0.84337 0.16149 0.41444 0.0
C885 C 0.87534 0.15819 0.43016 0.0
C886 C 0.9208 0.16138 0.42527 0.0
C887 C 0.93394 0.16833 0.40525 0.0
H888 H 0.76765 0.88879 0.98222 0.0
H889 H 0.90432 0.86871 0.99579 0.0
H890 H 0.78607 0.89163 0.94546 0.0
H891 H 0.92276 0.87183 0.95904 0.0
H892 H 0.9478 0.9145 0.89743 0.0
H893 H 0.92972 0.90597 0.93362 0.0
H894 H 0.80933 0.86718 0.91473 0.0
H895 H 0.82707 0.87623 0.87841 0.0
C896 C 0.80145 0.88458 0.97736 0.0
C897 C 0.83454 0.87869 0.99206 0.0
C898 C 0.81202 0.88623 0.95625 0.0
C899 C 0.85596 0.88211 0.9493 0.0
C900 C 0.88876 0.87554 0.96391 0.0
C901 C 0.87817 0.8738 0.98499 0.0
C902 C 0.9175 0.90412 0.90099 0.0
C903 C 0.88871 0.8962 0.88505 0.0
C904 C 0.90734 0.89901 0.92173 0.0
C905 C 0.868 0.88594 0.9271 0.0
C906 C 0.83967 0.8775 0.91113 0.0
C907 C 0.85003 0.88247 0.89032 0.0
H908 H 0.72528 0.61236 0.48282 0.0
H909 H 0.60113 0.64954 0.49753 0.0
H910 H 0.7029 0.60972 0.44651 0.0
H911 H 0.5791 0.64733 0.46112 0.0
H912 H 0.53394 0.60505 0.40151 0.0
H913 H 0.55715 0.61305 0.43714 0.0
H914 H 0.68776 0.63589 0.41537 0.0
H915 H 0.66469 0.62745 0.37967 0.0
C916 C 0.69332 0.6201 0.47827 0.0
C917 C 0.66488 0.63104 0.49308 0.0
C918 C 0.6807 0.61882 0.45743 0.0
C919 C 0.63918 0.62826 0.45094 0.0
C920 C 0.61114 0.63968 0.46567 0.0
C921 C 0.62392 0.64115 0.48649 0.0
C922 C 0.56757 0.61184 0.40433 0.0
C923 C 0.59757 0.61547 0.38779 0.0
C924 C 0.58074 0.61666 0.42473 0.0
C925 C 0.62434 0.62505 0.42909 0.0
C926 C 0.65407 0.62922 0.41252 0.0
C927 C 0.64075 0.62461 0.39207 0.0
H928 H 0.33866 0.68797 0.02055 0.0
H929 H 0.35898 0.60846 0.03072 0.0
H930 H 0.35782 0.69641 0.0568 0.0
H931 H 0.37733 0.61687 0.06716 0.0
H932 H 0.34798 0.64642 0.13547 0.0
H933 H 0.33223 0.63614 0.09935 0.0
H934 H 0.43122 0.69027 0.07941 0.0
H935 H 0.4491 0.69969 0.11542 0.0
C936 C 0.34703 0.67232 0.0306 0.0
C937 C 0.34736 0.64758 0.0229 0.0
C938 C 0.3582 0.67715 0.05125 0.0
C939 C 0.36905 0.65728 0.06471 0.0
C940 C 0.36892 0.63249 0.05709 0.0
C941 C 0.35866 0.62771 0.03629 0.0
C942 C 0.36719 0.65581 0.12349 0.0
C943 C 0.39981 0.67402 0.12855 0.0
C944 C 0.35788 0.64998 0.10278 0.0
C945 C 0.38035 0.66252 0.08665 0.0
C946 C 0.41305 0.68055 0.09159 0.0
C947 C 0.42301 0.68605 0.11226 0.0
H948 H 0.20073 0.82801 0.52861 0.0
H949 H 0.10076 0.88591 0.52235 0.0
H950 H 0.17832 0.82148 0.56477 0.0
H951 H 0.07802 0.87918 0.55845 0.0
H952 H 0.01806 0.83226 0.61405 0.0
H953 H 0.04178 0.84134 0.57844 0.0
H954 H 0.17854 0.84792 0.59901 0.0
H955 H 0.15472 0.83914 0.63468 0.0
C956 C 0.17397 0.8393 0.53499 0.0
C957 C 0.15244 0.85745 0.52273 0.0
C958 C 0.16137 0.83569 0.55567 0.0
C959 C 0.12645 0.84983 0.56435 0.0
C960 C 0.1049 0.86796 0.55208 0.0
C961 C 0.11805 0.8719 0.53152 0.0
C962 C 0.05313 0.83574 0.61093 0.0
C963 C 0.0846 0.835 0.62706 0.0
C964 C 0.06664 0.84105 0.59063 0.0
C965 C 0.11198 0.84527 0.58602 0.0
C966 C 0.14343 0.8446 0.60216 0.0
C967 C 0.1298 0.83974 0.62253 0.0
H968 H 0.13121 0.31273 0.34036 0.0
H969 H 0.18254 0.25394 0.38012 0.0
H970 H 0.09154 0.28147 0.32018 0.0
H971 H 0.14654 0.22247 0.3586 0.0
H972 H 0.04644 0.17142 0.32715 0.0
H973 H 0.07993 0.20346 0.34918 0.0
H974 H 0.10111 0.2509 0.29542 0.0
H975 H 0.06357 0.21988 0.27399 0.0
C976 C 0.1341 0.29316 0.3449 0.0
C977 C 0.16029 0.28606 0.36203 0.0
C978 C 0.11191 0.27507 0.33297 0.0
C979 C 0.11597 0.24924 0.3375 0.0
C980 C 0.14198 0.24212 0.35469 0.0
C981 C 0.16345 0.26026 0.36688 0.0
C982 C 0.05803 0.18879 0.32009 0.0
C983 C 0.05323 0.19288 0.29869 0.0
C984 C 0.07776 0.20711 0.3327 0.0
C985 C 0.09383 0.22986 0.32418 0.0
C986 C 0.08873 0.23389 0.30274 0.0
C987 C 0.06805 0.21581 0.29026 0.0
H988 H 0.30318 0.24682 0.87262 0.0
H989 H 0.40975 0.19535 0.857 0.0
H990 H 0.33842 0.27915 0.85185 0.0
H991 H 0.44182 0.22661 0.83415 0.0
H992 H 0.51193 0.29253 0.80498 0.0
H993 H 0.4814 0.26267 0.82973 0.0
H994 H 0.34921 0.29287 0.819 0.0
H995 H 0.38103 0.32463 0.79648 0.0
C996 C 0.33414 0.24226 0.86483 0.0
C997 C 0.35321 0.21815 0.86662 0.0
C998 C 0.35399 0.2608 0.85241 0.0
C999 C 0.39288 0.25566 0.84087 0.0
C1000 C 0.41227 0.23165 0.84286 0.0
C1001 C 0.39314 0.21335 0.85576 0.0
C1002 C 0.47656 0.29314 0.80828 0.0
C1003 C 0.44912 0.31107 0.79867 0.0
C1004 C 0.45869 0.27561 0.82225 0.0
C1005 C 0.41248 0.27499 0.82652 0.0
C1006 C 0.38502 0.29285 0.81665 0.0
C1007 C 0.40321 0.31088 0.80325 0.0
H1008 H 0.70094 0.20731 0.68955 0.0
H1009 H 0.63005 0.23656 0.63669 0.0
H1010 H 0.6664 0.23893 0.71166 0.0
H1011 H 0.59289 0.26725 0.65885 0.0
H1012 H 0.56205 0.33434 0.69918 0.0
H1013 H 0.60049 0.30404 0.67731 0.0
H1014 H 0.6018 0.25089 0.72825 0.0
H1015 H 0.56597 0.28205 0.75037 0.0
C1016 C 0.67744 0.22042 0.68277 0.0
C1017 C 0.66807 0.2196 0.66148 0.0
C1018 C 0.6573 0.23846 0.69544 0.0
C1019 C 0.62648 0.25578 0.6872 0.0
C1020 C 0.61703 0.2547 0.6658 0.0
C1021 C 0.63801 0.237 0.65306 0.0
C1022 C 0.57074 0.31616 0.70565 0.0
C1023 C 0.56109 0.31049 0.72643 0.0
C1024 C 0.59252 0.29865 0.69307 0.0
C1025 C 0.60424 0.27476 0.70083 0.0
C1026 C 0.59427 0.26917 0.72172 0.0
C1027 C 0.57342 0.28695 0.73442 0.0
H1028 H 0.7757 0.25783 0.16219 0.0
H1029 H 0.89202 0.3061 0.16814 0.0
H1030 H 0.81155 0.22656 0.1843 0.0
H1031 H 0.92591 0.27539 0.19138 0.0
H1032 H 0.93157 0.22272 0.25229 0.0
H1033 H 0.89497 0.25407 0.23005 0.0
H1034 H 0.89548 0.20127 0.17928 0.0
H1035 H 0.93321 0.17023 0.20119 0.0
C1036 C 0.80886 0.26184 0.16804 0.0
C1037 C 0.83081 0.28467 0.16322 0.0
C1038 C 0.82908 0.24398 0.18088 0.0
C1039 C 0.87116 0.24879 0.18957 0.0
C1040 C 0.89312 0.2715 0.18501 0.0
C1041 C 0.87344 0.28912 0.17178 0.0
C1042 C 0.92374 0.21785 0.2364 0.0
C1043 C 0.9353 0.19417 0.22839 0.0
C1044 C 0.90305 0.23574 0.22372 0.0
C1045 C 0.89257 0.22992 0.20306 0.0
C1046 C 0.90324 0.20607 0.1952 0.0
C1047 C 0.92492 0.18844 0.20768 0.0
H1048 H 0.8306 0.70207 0.68658 0.0
H1049 H 0.83994 0.75187 0.63373 0.0
H1050 H 0.87005 0.73297 0.70776 0.0
H1051 H 0.88034 0.78269 0.65492 0.0
H1052 H 0.9022 0.84159 0.70748 0.0
H1053 H 0.86373 0.81096 0.68539 0.0
H1054 H 0.94652 0.75166 0.71015 0.0
H1055 H 0.98458 0.78227 0.73233 0.0
C1056 C 0.84104 0.71965 0.6795 0.0
C1057 C 0.83197 0.72459 0.6585 0.0
C1058 C 0.86401 0.73723 0.69158 0.0
C1059 C 0.8783 0.76022 0.68299 0.0
C1060 C 0.8694 0.76519 0.66199 0.0
C1061 C 0.84666 0.74748 0.64983 0.0
C1062 C 0.91217 0.822 0.7081 0.0
C1063 C 0.94638 0.81423 0.72148 0.0
C1064 C 0.8904 0.80453 0.69539 0.0
C1065 C 0.90221 0.77894 0.69601 0.0
C1066 C 0.9365 0.77123 0.70945 0.0
C1067 C 0.95849 0.78873 0.722 0.0
H1068 H 0.67102 0.75767 0.13427 0.0
H1069 H 0.65017 0.81195 0.18306 0.0
H1070 H 0.63173 0.7256 0.15487 0.0
H1071 H 0.61049 0.78 0.20352 0.0
H1072 H 0.50216 0.72064 0.22244 0.0
H1073 H 0.5371 0.75278 0.20034 0.0
H1074 H 0.65002 0.7039 0.19041 0.0
H1075 H 0.61535 0.67187 0.21245 0.0
C1076 C 0.65765 0.76277 0.1493 0.0
C1077 C 0.66372 0.78723 0.15712 0.0
C1078 C 0.63543 0.74444 0.1611 0.0
C1079 C 0.61812 0.75037 0.18076 0.0
C1080 C 0.62325 0.77499 0.18836 0.0
C1081 C 0.64617 0.79318 0.17673 0.0
C1082 C 0.5342 0.71669 0.21535 0.0
C1083 C 0.55592 0.69372 0.21908 0.0
C1084 C 0.5543 0.73512 0.20286 0.0
C1085 C 0.59614 0.73074 0.19363 0.0
C1086 C 0.61755 0.70765 0.19716 0.0
C1087 C 0.59779 0.6894 0.20986 0.0
H1088 H 0.3945 0.79135 0.36771 0.0
H1089 H 0.27035 0.7683 0.33901 0.0
H1090 H 0.43495 0.76161 0.34586 0.0
H1091 H 0.31125 0.73943 0.3167 0.0
H1092 H 0.40914 0.71366 0.26525 0.0
H1093 H 0.37009 0.74358 0.28749 0.0
H1094 H 0.43782 0.71342 0.34099 0.0
H1095 H 0.47607 0.68305 0.319 0.0
C1096 C 0.37572 0.77987 0.35691 0.0
C1097 C 0.32905 0.78238 0.35513 0.0
C1098 C 0.39899 0.76295 0.34431 0.0
C1099 C 0.37623 0.74842 0.3295 0.0
C1100 C 0.32969 0.75074 0.32777 0.0
C1101 C 0.30633 0.76737 0.34053 0.0
C1102 C 0.41549 0.71322 0.28176 0.0
C1103 C 0.4452 0.69561 0.29034 0.0
C1104 C 0.39316 0.7304 0.29447 0.0
C1105 C 0.40079 0.73069 0.31595 0.0
C1106 C 0.43147 0.71366 0.32447 0.0
C1107 C 0.45326 0.69622 0.31183 0.0
H1108 H 0.11967 0.70247 0.8552 0.0
H1109 H 0.2349 0.75162 0.85684 0.0
H1110 H 0.07976 0.73341 0.834 0.0
H1111 H 0.19457 0.78282 0.83596 0.0
H1112 H 0.07816 0.84028 0.8192 0.0
H1113 H 0.119 0.81026 0.84108 0.0
H1114 H 0.09578 0.75175 0.79593 0.0
H1115 H 0.05594 0.78178 0.77393 0.0
C1116 C 0.13622 0.72 0.85117 0.0
C1117 C 0.18028 0.72472 0.85761 0.0
C1118 C 0.11354 0.73759 0.83899 0.0
C1119 C 0.13418 0.76043 0.8334 0.0
C1120 C 0.17793 0.76538 0.84018 0.0
C1121 C 0.20098 0.74754 0.85199 0.0
C1122 C 0.08197 0.82101 0.81401 0.0
C1123 C 0.06422 0.8133 0.7949 0.0
C1124 C 0.10539 0.80393 0.82643 0.0
C1125 C 0.11036 0.77875 0.82015 0.0
C1126 C 0.0922 0.77104 0.80113 0.0
C1127 C 0.06969 0.78821 0.78853 0.0
loop_
_geom_bond_atom_site_label_1
_geom_bond_atom_site_label_2
_geom_bond_distance
_geom_bond_site_symmetry_2
_ccdc_geom_bond_type
C0 C1 1.386 . S
C0 C2 1.397 . S
C0 H24 0.931 . S
C1 C0 1.386 . S
C1 C5 1.397 . S
C2 C0 1.397 . S
C2 C3 1.384 . S
C2 H25 0.930 . S
C3 C2 1.384 . S
C3 C4 1.377 . S
C3 C6 1.481 . S
C4 C3 1.377 . S
C4 C5 1.389 . S
C4 H26 0.929 . S
C5 C1 1.397 . S
C5 C4 1.389 . S
C5 H27 0.931 . S
C6 C3 1.481 . S
C6 C7 1.387 . S
C6 C11 1.390 . S
C7 C6 1.387 . S
C7 C8 1.401 . S
C7 H28 0.930 . S
C8 C7 1.401 . S
C8 C9 1.376 . S
C8 C17 1.511 . S
C9 C8 1.376 . S
C9 C10 1.392 . S
C9 H30 0.931 . S
C10 C9 1.392 . S
C10 C11 1.361 . S
C10 C12 1.500 . S
C11 C6 1.390 . S
C11 C10 1.361 . S
C11 H29 0.931 . S
C12 C10 1.500 . S
C12 C13 1.371 . S
C12 C14 1.365 . S
C13 C12 1.371 . S
C13 C23 1.386 . S
C13 H31 0.931 . S
C14 C12 1.365 . S
C14 C15 1.409 . S
C14 H32 0.929 . S
C15 C14 1.409 . S
C15 C16 1.380 . S
C15 H33 0.930 . S
C16 C15 1.380 . S
C16 C23 1.357 . S
C17 C8 1.511 . S
C17 C18 1.341 . S
C17 C19 1.371 . S
C18 C17 1.341 . S
C18 C22 1.394 . S
C18 H34 0.930 . S
C19 C17 1.371 . S
C19 C20 1.392 . S
C19 H35 0.931 . S
C20 C19 1.392 . S
C20 C21 1.331 . S
C20 H38 0.932 . S
C21 C20 1.331 . S
C21 C22 1.336 . S
C22 C18 1.394 . S
C22 C21 1.336 . S
C22 H37 0.929 . S
C23 C13 1.386 . S
C23 C16 1.357 . S
C23 H36 0.928 . S
H24 C0 0.931 . S
H25 C2 0.930 . S
H26 C4 0.929 . S
H27 C5 0.931 . S
H28 C7 0.930 . S
H29 C11 0.931 . S
H30 C9 0.931 . S
H31 C13 0.931 . S
H32 C14 0.929 . S
H33 C15 0.930 . S
H34 C18 0.930 . S
H35 C19 0.931 . S
H36 C23 0.928 . S
H37 C22 0.929 . S
H38 C20 0.932 . S
C39 C40 1.386 . S
C39 C41 1.397 . S
C39 H63 0.931 . S
C40 C39 1.386 . S
C40 C44 1.397 . S
C41 C39 1.397 . S
C41 C42 1.384 . S
C41 H64 0.930 . S
C42 C41 1.384 . S
C42 C43 1.377 . S
C42 C45 1.481 . S
C43 C42 1.377 . S
C43 C44 1.389 . S
C43 H65 0.929 . S
C44 C40 1.397 . S
C44 C43 1.389 . S
C44 H66 0.931 . S
C45 C42 1.481 . S
C45 C46 1.387 . S
C45 C50 1.390 . S
C46 C45 1.387 . S
C46 C47 1.401 . S
C46 H67 0.930 . S
C47 C46 1.401 . S
C47 C48 1.376 . S
C47 C56 1.511 . S
C48 C47 1.376 . S
C48 C49 1.392 . S
C48 H69 0.931 . S
C49 C48 1.392 . S
C49 C50 1.361 . S
C49 C51 1.500 . S
C50 C45 1.390 . S
C50 C49 1.361 . S
C50 H68 0.931 . S
C51 C49 1.500 . S
C51 C52 1.371 . S
C51 C53 1.365 . S
C52 C51 1.371 . S
C52 C62 1.386 . S
C52 H70 0.931 . S
C53 C51 1.365 . S
C53 C54 1.409 . S
C53 H71 0.929 . S
C54 C53 1.409 . S
C54 C55 1.380 . S
C54 H72 0.930 . S
C55 C54 1.380 . S
C55 C62 1.357 . S
C56 C47 1.511 . S
C56 C57 1.341 . S
C56 C58 1.371 . S
C57 C56 1.341 . S
C57 C61 1.394 . S
C57 H73 0.930 . S
C58 C56 1.371 . S
C58 C59 1.392 . S
C58 H74 0.931 . S
C59 C58 1.392 . S
C59 C60 1.331 . S
C59 H77 0.932 . S
C60 C59 1.331 . S
C60 C61 1.336 . S
C61 C57 1.394 . S
C61 C60 1.336 . S
C61 H76 0.929 . S
C62 C52 1.386 . S
C62 C55 1.357 . S
C62 H75 0.928 . S
H63 C39 0.931 . S
H64 C41 0.930 . S
H65 C43 0.929 . S
H66 C44 0.931 . S
H67 C46 0.930 . S
H68 C50 0.931 . S
H69 C48 0.931 . S
H70 C52 0.931 . S
H71 C53 0.929 . S
H72 C54 0.930 . S
H73 C57 0.930 . S
H74 C58 0.931 . S
H75 C62 0.928 . S
H76 C61 0.929 . S
H77 C59 0.932 . S
C78 C79 1.386 . S
C78 C80 1.397 . S
C78 H102 0.931 . S
C79 C78 1.386 . S
C79 C83 1.397 . S
C80 C78 1.397 . S
C80 C81 1.384 . S
C80 H103 0.930 . S
C81 C80 1.384 . S
C81 C82 1.377 . S
C81 C84 1.481 . S
C82 C81 1.377 . S
C82 C83 1.389 . S
C82 H104 0.929 . S
C83 C79 1.397 . S
C83 C82 1.389 . S
C83 H105 0.931 . S
C84 C81 1.481 . S
C84 C85 1.387 . S
C84 C89 1.390 . S
C85 C84 1.387 . S
C85 C86 1.401 . S
C85 H106 0.930 . S
C86 C85 1.401 . S
C86 C87 1.376 . S
C86 C95 1.511 . S
C87 C86 1.376 . S
C87 C88 1.392 . S
C87 H108 0.931 . S
C88 C87 1.392 . S
C88 C89 1.361 . S
C88 C90 1.500 . S
C89 C84 1.390 . S
C89 C88 1.361 . S
C89 H107 0.931 . S
C90 C88 1.500 . S
C90 C91 1.371 . S
C90 C92 1.365 . S
C91 C90 1.371 . S
C91 C101 1.386 . S
C91 H109 0.931 . S
C92 C90 1.365 . S
C92 C93 1.409 . S
C92 H110 0.929 . S
C93 C92 1.409 . S
C93 C94 1.380 . S
C93 H111 0.930 . S
C94 C93 1.380 . S
C94 C101 1.357 . S
C95 C86 1.511 . S
C95 C96 1.341 . S
C95 C97 1.371 . S
C96 C95 1.341 . S
C96 C100 1.394 . S
C96 H112 0.930 . S
C97 C95 1.371 . S
C97 C98 1.392 . S
C97 H113 0.931 . S
C98 C97 1.392 . S
C98 C99 1.331 . S
C98 H116 0.932 . S
C99 C98 1.331 . S
C99 C100 1.336 . S
C100 C96 1.394 . S
C100 C99 1.336 . S
C100 H115 0.929 . S
C101 C91 1.386 . S
C101 C94 1.357 . S
C101 H114 0.928 . S
H102 C78 0.931 . S
H103 C80 0.930 . S
H104 C82 0.929 . S
H105 C83 0.931 . S
H106 C85 0.930 . S
H107 C89 0.931 . S
H108 C87 0.931 . S
H109 C91 0.931 . S
H110 C92 0.929 . S
H111 C93 0.930 . S
H112 C96 0.930 . S
H113 C97 0.931 . S
H114 C101 0.928 . S
H115 C100 0.929 . S
H116 C98 0.932 . S
C117 C118 1.386 . S
C117 C119 1.397 . S
C117 H141 0.931 . S
C118 C117 1.386 . S
C118 C122 1.397 . S
C119 C117 1.397 . S
C119 C120 1.384 . S
C119 H142 0.930 . S
C120 C119 1.384 . S
C120 C121 1.377 . S
C120 C123 1.481 . S
C121 C120 1.377 . S
C121 C122 1.389 . S
C121 H143 0.929 . S
C122 C118 1.397 . S
C122 C121 1.389 . S
C122 H144 0.931 . S
C123 C120 1.481 . S
C123 C124 1.387 . S
C123 C128 1.390 . S
C124 C123 1.387 . S
C124 C125 1.401 . S
C124 H145 0.930 . S
C125 C124 1.401 . S
C125 C126 1.376 . S
C125 C134 1.511 . S
C126 C125 1.376 . S
C126 C127 1.392 . S
C126 H147 0.931 . S
C127 C126 1.392 . S
C127 C128 1.361 . S
C127 C129 1.500 . S
C128 C123 1.390 . S
C128 C127 1.361 . S
C128 H146 0.931 . S
C129 C127 1.500 . S
C129 C130 1.371 . S
C129 C131 1.365 . S
C130 C129 1.371 . S
C130 C140 1.386 . S
C130 H148 0.931 . S
C131 C129 1.365 . S
C131 C132 1.409 . S
C131 H149 0.929 . S
C132 C131 1.409 . S
C132 C133 1.380 . S
C132 H150 0.930 . S
C133 C132 1.380 . S
C133 C140 1.357 . S
C134 C125 1.511 . S
C134 C135 1.341 . S
C134 C136 1.371 . S
C135 C134 1.341 . S
C135 C139 1.394 . S
C135 H151 0.930 . S
C136 C134 1.371 . S
C136 C137 1.392 . S
C136 H152 0.931 . S
C137 C136 1.392 . S
C137 C138 1.331 . S
C137 H155 0.932 . S
C138 C137 1.331 . S
C138 C139 1.336 . S
C139 C135 1.394 . S
C139 C138 1.336 . S
C139 H154 0.929 . S
C140 C130 1.386 . S
C140 C133 1.357 . S
C140 H153 0.928 . S
H141 C117 0.931 . S
H142 C119 0.930 . S
H143 C121 0.929 . S
H144 C122 0.931 . S
H145 C124 0.930 . S
H146 C128 0.931 . S
H147 C126 0.931 . S
H148 C130 0.931 . S
H149 C131 0.929 . S
H150 C132 0.930 . S
H151 C135 0.930 . S
H152 C136 0.931 . S
H153 C140 0.928 . S
H154 C139 0.929 . S
H155 C137 0.932 . S
C156 C157 1.386 . S
C156 C158 1.397 . S
C156 H180 0.931 . S
C157 C156 1.386 . S
C157 C161 1.397 . S
C158 C156 1.397 . S
C158 C159 1.384 . S
C158 H181 0.930 . S
C159 C158 1.384 . S
C159 C160 1.377 . S
C159 C162 1.481 . S
C160 C159 1.377 . S
C160 C161 1.389 . S
C160 H182 0.929 . S
C161 C157 1.397 . S
C161 C160 1.389 . S
C161 H183 0.931 . S
C162 C159 1.481 . S
C162 C163 1.387 . S
C162 C167 1.390 . S
C163 C162 1.387 . S
C163 C164 1.401 . S
C163 H184 0.930 . S
C164 C163 1.401 . S
C164 C165 1.376 . S
C164 C173 1.511 . S
C165 C164 1.376 . S
C165 C166 1.392 . S
C165 H186 0.931 . S
C166 C165 1.392 . S
C166 C167 1.361 . S
C166 C168 1.500 . S
C167 C162 1.390 . S
C167 C166 1.361 . S
C167 H185 0.931 . S
C168 C166 1.500 . S
C168 C169 1.371 . S
C168 C170 1.365 . S
C169 C168 1.371 . S
C169 C179 1.386 . S
C169 H187 0.931 . S
C170 C168 1.365 . S
C170 C171 1.409 . S
C170 H188 0.929 . S
C171 C170 1.409 . S
C171 C172 1.380 . S
C171 H189 0.930 . S
C172 C171 1.380 . S
C172 C179 1.357 . S
C173 C164 1.511 . S
C173 C174 1.341 . S
C173 C175 1.371 . S
C174 C173 1.341 . S
C174 C178 1.394 . S
C174 H190 0.930 . S
C175 C173 1.371 . S
C175 C176 1.392 . S
C175 H191 0.931 . S
C176 C175 1.392 . S
C176 C177 1.331 . S
C176 H194 0.932 . S
C177 C176 1.331 . S
C177 C178 1.336 . S
C178 C174 1.394 . S
C178 C177 1.336 . S
C178 H193 0.929 . S
C179 C169 1.386 . S
C179 C172 1.357 . S
C179 H192 0.928 . S
H180 C156 0.931 . S
H181 C158 0.930 . S
H182 C160 0.929 . S
H183 C161 0.931 . S
H184 C163 0.930 . S
H185 C167 0.931 . S
H186 C165 0.931 . S
H187 C169 0.931 . S
H188 C170 0.929 . S
H189 C171 0.930 . S
H190 C174 0.930 . S
H191 C175 0.931 . S
H192 C179 0.928 . S
H193 C178 0.929 . S
H194 C176 0.932 . S
C195 C196 1.386 . S
C195 C197 1.397 . S
C195 H219 0.931 . S
C196 C195 1.386 . S
C196 C200 1.397 . S
C197 C195 1.397 . S
C197 C198 1.384 . S
C197 H220 0.930 . S
C198 C197 1.384 . S
C198 C199 1.377 . S
C198 C201 1.481 . S
C199 C198 1.377 . S
C199 C200 1.389 . S
C199 H221 0.929 . S
C200 C196 1.397 . S
C200 C199 1.389 . S
C200 H222 0.931 . S
C201 C198 1.481 . S
C201 C202 1.387 . S
C201 C206 1.390 . S
C202 C201 1.387 . S
C202 C203 1.401 . S
C202 H223 0.930 . S
C203 C202 1.401 . S
C203 C204 1.376 . S
C203 C212 1.511 . S
C204 C203 1.376 . S
C204 C205 1.392 . S
C204 H225 0.931 . S
C205 C204 1.392 . S
C205 C206 1.361 . S
C205 C207 1.500 . S
C206 C201 1.390 . S
C206 C205 1.361 . S
C206 H224 0.931 . S
C207 C205 1.500 . S
C207 C208 1.371 . S
C207 C209 1.365 . S
C208 C207 1.371 . S
C208 C218 1.386 . S
C208 H226 0.931 . S
C209 C207 1.365 . S
C209 C210 1.409 . S
C209 H227 0.929 . S
C210 C209 1.409 . S
C210 C211 1.380 . S
C210 H228 0.930 . S
C211 C210 1.380 . S
C211 C218 1.357 . S
C212 C203 1.511 . S
C212 C213 1.341 . S
C212 C214 1.371 . S
C213 C212 1.341 . S
C213 C217 1.394 . S
C213 H229 0.930 . S
C214 C212 1.371 . S
C214 C215 1.392 . S
C214 H230 0.931 . S
C215 C214 1.392 . S
C215 C216 1.331 . S
C215 H233 0.932 . S
C216 C215 1.331 . S
C216 C217 1.336 . S
C217 C213 1.394 . S
C217 C216 1.336 . S
C217 H232 0.929 . S
C218 C208 1.386 . S
C218 C211 1.357 . S
C218 H231 0.928 . S
H219 C195 0.931 . S
H220 C197 0.930 . S
H221 C199 0.929 . S
H222 C200 0.931 . S
H223 C202 0.930 . S
H224 C206 0.931 . S
H225 C204 0.931 . S
H226 C208 0.931 . S
H227 C209 0.929 . S
H228 C210 0.930 . S
H229 C213 0.930 . S
H230 C214 0.931 . S
H231 C218 0.928 . S
H232 C217 0.929 . S
H233 C215 0.932 . S
C234 C235 1.386 . S
C234 C236 1.397 . S
C234 H258 0.931 . S
C235 C234 1.386 . S
C235 C239 1.397 . S
C236 C234 1.397 . S
C236 C237 1.384 . S
C236 H259 0.930 . S
C237 C236 1.384 . S
C237 C238 1.377 . S
C237 C240 1.481 . S
C238 C237 1.377 . S
C238 C239 1.389 . S
C238 H260 0.929 . S
C239 C235 1.397 . S
C239 C238 1.389 . S
C239 H261 0.931 . S
C240 C237 1.481 . S
C240 C241 1.387 . S
C240 C245 1.390 . S
C241 C240 1.387 . S
C241 C242 1.401 . S
C241 H262 0.930 . S
C242 C241 1.401 . S
C242 C243 1.376 . S
C242 C251 1.511 . S
C243 C242 1.376 . S
C243 C244 1.392 . S
C243 H264 0.931 . S
C244 C243 1.392 . S
C244 C245 1.361 . S
C244 C246 1.500 . S
C245 C240 1.390 . S
C245 C244 1.361 . S
C245 H263 0.931 . S
C246 C244 1.500 . S
C246 C247 1.371 . S
C246 C248 1.365 . S
C247 C246 1.371 . S
C247 C257 1.386 . S
C247 H265 0.931 . S
C248 C246 1.365 . S
C248 C249 1.409 . S
C248 H266 0.929 . S
C249 C248 1.409 . S
C249 C250 1.380 . S
C249 H267 0.930 . S
C250 C249 1.380 . S
C250 C257 1.357 . S
C251 C242 1.511 . S
C251 C252 1.341 . S
C251 C253 1.371 . S
C252 C251 1.341 . S
C252 C256 1.394 . S
C252 H268 0.930 . S
C253 C251 1.371 . S
C253 C254 1.392 . S
C253 H269 0.931 . S
C254 C253 1.392 . S
C254 C255 1.331 . S
C254 H272 0.932 . S
C255 C254 1.331 . S
C255 C256 1.336 . S
C256 C252 1.394 . S
C256 C255 1.336 . S
C256 H271 0.929 . S
C257 C247 1.386 . S
C257 C250 1.357 . S
C257 H270 0.928 . S
H258 C234 0.931 . S
H259 C236 0.930 . S
H260 C238 0.929 . S
H261 C239 0.931 . S
H262 C241 0.930 . S
H263 C245 0.931 . S
H264 C243 0.931 . S
H265 C247 0.931 . S
H266 C248 0.929 . S
H267 C249 0.930 . S
H268 C252 0.930 . S
H269 C253 0.931 . S
H270 C257 0.928 . S
H271 C256 0.929 . S
H272 C254 0.932 . S
C273 C274 1.386 . S
C273 C275 1.397 . S
C273 H297 0.931 . S
C274 C273 1.386 . S
C274 C278 1.397 . S
C275 C273 1.397 . S
C275 C276 1.384 . S
C275 H298 0.930 . S
C276 C275 1.384 . S
C276 C277 1.377 . S
C276 C279 1.481 . S
C277 C276 1.377 . S
C277 C278 1.389 . S
C277 H299 0.929 . S
C278 C274 1.397 . S
C278 C277 1.389 . S
C278 H300 0.931 . S
C279 C276 1.481 . S
C279 C280 1.387 . S
C279 C284 1.390 . S
C280 C279 1.387 . S
C280 C281 1.401 . S
C280 H301 0.930 . S
C281 C280 1.401 . S
C281 C282 1.376 . S
C281 C290 1.511 . S
C282 C281 1.376 . S
C282 C283 1.392 . S
C282 H303 0.931 . S
C283 C282 1.392 . S
C283 C284 1.361 . S
C283 C285 1.500 . S
C284 C279 1.390 . S
C284 C283 1.361 . S
C284 H302 0.931 . S
C285 C283 1.500 . S
C285 C286 1.371 . S
C285 C287 1.365 . S
C286 C285 1.371 . S
C286 C296 1.386 . S
C286 H304 0.931 . S
C287 C285 1.365 . S
C287 C288 1.409 . S
C287 H305 0.929 . S
C288 C287 1.409 . S
C288 C289 1.380 . S
C288 H306 0.930 . S
C289 C288 1.380 . S
C289 C296 1.357 . S
C290 C281 1.511 . S
C290 C291 1.341 . S
C290 C292 1.371 . S
C291 C290 1.341 . S
C291 C295 1.394 . S
C291 H307 0.930 . S
C292 C290 1.371 . S
C292 C293 1.392 . S
C292 H308 0.931 . S
C293 C292 1.392 . S
C293 C294 1.331 . S
C293 H311 0.932 . S
C294 C293 1.331 . S
C294 C295 1.336 . S
C295 C291 1.394 . S
C295 C294 1.336 . S
C295 H310 0.929 . S
C296 C286 1.386 . S
C296 C289 1.357 . S
C296 H309 0.928 . S
H297 C273 0.931 . S
H298 C275 0.930 . S
H299 C277 0.929 . S
H300 C278 0.931 . S
H301 C280 0.930 . S
H302 C284 0.931 . S
H303 C282 0.931 . S
H304 C286 0.931 . S
H305 C287 0.929 . S
H306 C288 0.930 . S
H307 C291 0.930 . S
H308 C292 0.931 . S
H309 C296 0.928 . S
H310 C295 0.929 . S
H311 C293 0.932 . S
C312 C314 1.422 . S
C312 C316 1.415 . S
C312 N318 1.369 . S
C313 C314 1.421 . S
C313 C315 1.417 . S
C313 C325 1.422 . S
C314 C312 1.422 . S
C314 C313 1.421 . S
C314 N324 1.359 . S
C315 C313 1.417 . S
C315 C317 1.329 . S
C315 H334 0.930 . S
C316 C312 1.415 . S
C316 C317 1.437 . S
C316 C320 1.413 . S
C317 C315 1.329 . S
C317 C316 1.437 . S
C317 H339 0.929 . S
N318 C312 1.369 . S
N318 C319 1.338 . S
N318 Gd323 2.622 . S
C319 N318 1.338 . S
C319 C321 1.378 . S
C319 H331 0.929 . S
C320 C316 1.413 . S
C320 C321 1.348 . S
C320 H336 0.931 . S
C321 C319 1.378 . S
C321 C320 1.348 . S
C321 H337 0.930 . S
Gd322 N342 2.622 . S
Gd322 N349 2.570 . S
Gd322 O356 2.353 . S
Gd322 O357 2.468 . S
Gd322 O358 2.427 . S
Gd322 O360 2.388 . S
Gd322 O361 2.386 . S
Gd322 O365 2.327 . S
Gd322 C375 2.805 . S
Gd323 N318 2.622 . S
Gd323 N324 2.570 . S
Gd323 O355 2.386 . S
Gd323 O359 2.307 1_655 S
Gd323 O362 2.353 1_655 S
Gd323 O363 2.468 . S
Gd323 O364 2.427 . S
Gd323 O366 2.388 . S
Gd323 C387 2.805 . S
N324 C314 1.359 . S
N324 Gd323 2.570 . S
N324 C326 1.343 . S
C325 C313 1.422 . S
C325 C327 1.321 . S
C325 H333 0.931 . S
C326 N324 1.343 . S
C326 C327 1.390 . S
C326 H328 0.931 . S
C327 C325 1.321 . S
C327 C326 1.390 . S
C327 H329 0.930 . S
H328 C326 0.931 . S
H329 C327 0.930 . S
H330 C353 0.931 . S
H331 C319 0.929 . S
H332 C354 0.930 . S
H333 C325 0.931 . S
H334 C315 0.930 . S
H335 C344 0.929 . S
H336 C320 0.931 . S
H337 C321 0.930 . S
H338 C376 0.930 . S
H339 C317 0.929 . S
H340 C345 0.931 . S
H341 C346 0.930 . S
N342 Gd322 2.622 . S
N342 C343 1.369 . S
N342 C344 1.338 . S
C343 N342 1.369 . S
C343 C347 1.415 . S
C343 C350 1.422 . S
C344 H335 0.929 . S
C344 N342 1.338 . S
C344 C346 1.378 . S
C345 H340 0.931 . S
C345 C346 1.348 . S
C345 C347 1.413 . S
C346 H341 0.930 . S
C346 C344 1.378 . S
C346 C345 1.348 . S
C347 C343 1.415 . S
C347 C345 1.413 . S
C347 C377 1.437 . S
H348 C377 0.929 . S
N349 Gd322 2.570 . S
N349 C350 1.359 . S
N349 C353 1.343 . S
C350 C343 1.422 . S
C350 N349 1.359 . S
C350 C352 1.421 . S
C351 C352 1.422 . S
C351 C354 1.321 . S
C351 H378 0.931 . S
C352 C350 1.421 . S
C352 C351 1.422 . S
C352 C376 1.417 . S
C353 H330 0.931 . S
C353 N349 1.343 . S
C353 C354 1.390 . S
C354 H332 0.930 . S
C354 C351 1.321 . S
C354 C353 1.390 . S
O355 Gd323 2.386 . S
O355 C367 1.265 . S
O356 Gd322 2.353 . S
O356 C367 1.242 1_455 S
O357 Gd322 2.468 . S
O357 C375 1.263 . S
O358 Gd322 2.427 . S
O358 C375 1.252 . S
O359 Gd323 2.307 1_455 S
O359 C368 1.261 . S
O360 Gd322 2.388 . S
O360 C368 1.252 . S
O361 Gd322 2.386 . S
O361 C379 1.265 . S
O362 Gd323 2.353 1_455 S
O362 C379 1.242 . S
O363 Gd323 2.468 . S
O363 C387 1.263 . S
O364 Gd323 2.427 . S
O364 C387 1.252 . S
O365 Gd322 2.327 . S
O365 C380 1.238 1_455 S
O366 Gd323 2.388 . S
O366 C380 1.252 . S
C367 O355 1.265 . S
C367 O356 1.242 1_655 S
C368 O359 1.261 . S
C368 O360 1.252 . S
C369 C372 1.394 . S
C369 C374 1.370 . S
C369 C375 1.500 . S
C370 C373 1.383 . S
C370 C374 1.395 . S
C371 C372 1.396 . S
C371 C373 1.365 . S
C371 H388 0.929 . S
C372 C369 1.394 . S
C372 C371 1.396 . S
C372 H389 0.930 . S
C373 C370 1.383 . S
C373 C371 1.365 . S
C373 H390 0.931 . S
C374 C369 1.370 . S
C374 C370 1.395 . S
C374 H391 0.930 . S
C375 Gd322 2.805 . S
C375 O357 1.263 . S
C375 O358 1.252 . S
C375 C369 1.500 . S
C376 H338 0.930 . S
C376 C352 1.417 . S
C376 C377 1.329 . S
C377 C347 1.437 . S
C377 H348 0.929 . S
C377 C376 1.329 . S
H378 C351 0.931 . S
C379 O361 1.265 . S
C379 O362 1.242 . S
C380 O365 1.238 1_655 S
C380 O366 1.252 . S
C381 C384 1.394 . S
C381 C386 1.370 . S
C381 C387 1.500 . S
C382 C385 1.383 . S
C382 C386 1.395 . S
C383 C384 1.396 . S
C383 C385 1.365 . S
C383 H392 0.929 . S
C384 C381 1.394 . S
C384 C383 1.396 . S
C384 H393 0.930 . S
C385 C382 1.383 . S
C385 C383 1.365 . S
C385 H394 0.931 . S
C386 C381 1.370 . S
C386 C382 1.395 . S
C386 H395 0.930 . S
C387 Gd323 2.805 . S
C387 O363 1.263 . S
C387 O364 1.252 . S
C387 C381 1.500 . S
H388 C371 0.929 . S
H389 C372 0.930 . S
H390 C373 0.931 . S
H391 C374 0.930 . S
H392 C383 0.929 . S
H393 C384 0.930 . S
H394 C385 0.931 . S
H395 C386 0.930 . S
C396 C398 1.422 . S
C396 C400 1.415 . S
C396 N402 1.369 . S
C397 C398 1.421 . S
C397 C399 1.417 . S
C397 C409 1.422 . S
C398 C396 1.422 . S
C398 C397 1.421 . S
C398 N408 1.359 . S
C399 C397 1.417 . S
C399 C401 1.329 . S
C399 H418 0.930 . S
C400 C396 1.415 . S
C400 C401 1.437 . S
C400 C404 1.413 . S
C401 C399 1.329 . S
C401 C400 1.437 . S
C401 H423 0.929 . S
N402 C396 1.369 . S
N402 C403 1.338 . S
N402 Gd407 2.622 . S
C403 N402 1.338 . S
C403 C405 1.378 . S
C403 H415 0.929 . S
C404 C400 1.413 . S
C404 C405 1.348 . S
C404 H420 0.931 . S
C405 C403 1.378 . S
C405 C404 1.348 . S
C405 H421 0.930 . S
Gd406 N426 2.622 . S
Gd406 N433 2.570 . S
Gd406 O440 2.353 . S
Gd406 O441 2.468 . S
Gd406 O442 2.427 . S
Gd406 O444 2.388 . S
Gd406 O445 2.386 . S
Gd406 O449 2.307 . S
Gd406 C459 2.805 . S
Gd407 N402 2.622 . S
Gd407 N408 2.570 . S
Gd407 O439 2.386 . S
Gd407 O443 2.307 . S
Gd407 O446 2.353 . S
Gd407 O447 2.468 . S
Gd407 O448 2.427 . S
Gd407 O450 2.388 . S
Gd407 C471 2.805 . S
N408 C398 1.359 . S
N408 Gd407 2.570 . S
N408 C410 1.343 . S
C409 C397 1.422 . S
C409 C411 1.321 . S
C409 H417 0.931 . S
C410 N408 1.343 . S
C410 C411 1.390 . S
C410 H412 0.931 . S
C411 C409 1.321 . S
C411 C410 1.390 . S
C411 H413 0.930 . S
H412 C410 0.931 . S
H413 C411 0.930 . S
H414 C437 0.931 . S
H415 C403 0.929 . S
H416 C438 0.930 . S
H417 C409 0.931 . S
H418 C399 0.930 . S
H419 C428 0.929 . S
H420 C404 0.931 . S
H421 C405 0.930 . S
H422 C460 0.930 . S
H423 C401 0.929 . S
H424 C429 0.931 . S
H425 C430 0.930 . S
N426 Gd406 2.622 . S
N426 C427 1.369 . S
N426 C428 1.338 . S
C427 N426 1.369 . S
C427 C431 1.415 . S
C427 C434 1.422 . S
C428 H419 0.929 . S
C428 N426 1.338 . S
C428 C430 1.378 . S
C429 H424 0.931 . S
C429 C430 1.348 . S
C429 C431 1.413 . S
C430 H425 0.930 . S
C430 C428 1.378 . S
C430 C429 1.348 . S
C431 C427 1.415 . S
C431 C429 1.413 . S
C431 C461 1.437 . S
H432 C461 0.929 . S
N433 Gd406 2.570 . S
N433 C434 1.359 . S
N433 C437 1.343 . S
C434 C427 1.422 . S
C434 N433 1.359 . S
C434 C436 1.421 . S
C435 C436 1.422 . S
C435 C438 1.321 . S
C435 H462 0.931 . S
C436 C434 1.421 . S
C436 C435 1.422 . S
C436 C460 1.417 . S
C437 H414 0.931 . S
C437 N433 1.343 . S
C437 C438 1.390 . S
C438 H416 0.930 . S
C438 C435 1.321 . S
C438 C437 1.390 . S
O439 Gd407 2.386 . S
O439 C451 1.265 . S
O440 Gd406 2.353 . S
O440 C451 1.242 . S
O441 Gd406 2.468 . S
O441 C459 1.263 . S
O442 Gd406 2.427 . S
O442 C459 1.252 . S
O443 Gd407 2.307 . S
O443 C452 1.261 . S
O444 Gd406 2.388 . S
O444 C452 1.252 . S
O445 Gd406 2.386 . S
O445 C463 1.265 . S
O446 Gd407 2.353 . S
O446 C463 1.242 . S
O447 Gd407 2.468 . S
O447 C471 1.263 . S
O448 Gd407 2.427 . S
O448 C471 1.252 . S
O449 Gd406 2.307 . S
O449 C464 1.261 . S
O450 Gd407 2.388 . S
O450 C464 1.252 . S
C451 O439 1.265 . S
C451 O440 1.242 . S
C452 O443 1.261 . S
C452 O444 1.252 . S
C453 C456 1.394 . S
C453 C458 1.370 . S
C453 C459 1.500 . S
C454 C457 1.383 . S
C454 C458 1.395 . S
C455 C456 1.396 . S
C455 C457 1.365 . S
C455 H472 0.929 . S
C456 C453 1.394 . S
C456 C455 1.396 . S
C456 H473 0.930 . S
C457 C454 1.383 . S
C457 C455 1.365 . S
C457 H474 0.931 . S
C458 C453 1.370 . S
C458 C454 1.395 . S
C458 H475 0.930 . S
C459 Gd406 2.805 . S
C459 O441 1.263 . S
C459 O442 1.252 . S
C459 C453 1.500 . S
C460 H422 0.930 . S
C460 C436 1.417 . S
C460 C461 1.329 . S
C461 C431 1.437 . S
C461 H432 0.929 . S
C461 C460 1.329 . S
H462 C435 0.931 . S
C463 O445 1.265 . S
C463 O446 1.242 . S
C464 O449 1.261 . S
C464 O450 1.252 . S
C465 C468 1.394 . S
C465 C470 1.370 . S
C465 C471 1.500 . S
C466 C469 1.383 . S
C466 C470 1.395 . S
C467 C468 1.396 . S
C467 C469 1.365 . S
C467 H476 0.929 . S
C468 C465 1.394 . S
C468 C467 1.396 . S
C468 H477 0.930 . S
C469 C466 1.383 . S
C469 C467 1.365 . S
C469 H478 0.931 . S
C470 C465 1.370 . S
C470 C466 1.395 . S
C470 H479 0.930 . S
C471 Gd407 2.805 . S
C471 O447 1.263 . S
C471 O448 1.252 . S
C471 C465 1.500 . S
H472 C455 0.929 . S
H473 C456 0.930 . S
H474 C457 0.931 . S
H475 C458 0.930 . S
H476 C467 0.929 . S
H477 C468 0.930 . S
H478 C469 0.931 . S
H479 C470 0.930 . S
C480 C482 1.422 . S
C480 C484 1.415 . S
C480 N486 1.369 . S
C481 C482 1.421 . S
C481 C483 1.417 . S
C481 C493 1.422 . S
C482 C480 1.422 . S
C482 C481 1.421 . S
C482 N492 1.359 . S
C483 C481 1.417 . S
C483 C485 1.329 . S
C483 H502 0.930 . S
C484 C480 1.415 . S
C484 C485 1.437 . S
C484 C488 1.413 . S
C485 C483 1.329 . S
C485 C484 1.437 . S
C485 H507 0.929 . S
N486 C480 1.369 . S
N486 C487 1.338 . S
N486 Gd491 2.622 . S
C487 N486 1.338 . S
C487 C489 1.378 . S
C487 H499 0.929 . S
C488 C484 1.413 . S
C488 C489 1.348 . S
C488 H504 0.931 . S
C489 C487 1.378 . S
C489 C488 1.348 . S
C489 H505 0.930 . S
Gd490 N510 2.622 . S
Gd490 N517 2.570 . S
Gd490 O524 2.353 . S
Gd490 O525 2.468 . S
Gd490 O526 2.427 . S
Gd490 O528 2.388 . S
Gd490 O529 2.386 . S
Gd490 O533 2.307 . S
Gd490 C543 2.805 . S
Gd491 N486 2.622 . S
Gd491 N492 2.570 . S
Gd491 O523 2.386 . S
Gd491 O527 2.307 1_655 S
Gd491 O530 2.353 1_655 S
Gd491 O531 2.468 . S
Gd491 O532 2.427 . S
Gd491 O534 2.388 . S
Gd491 C555 2.805 . S
N492 C482 1.359 . S
N492 Gd491 2.570 . S
N492 C494 1.343 . S
C493 C481 1.422 . S
C493 C495 1.321 . S
C493 H501 0.931 . S
C494 N492 1.343 . S
C494 C495 1.390 . S
C494 H496 0.931 . S
C495 C493 1.321 . S
C495 C494 1.390 . S
C495 H497 0.930 . S
H496 C494 0.931 . S
H497 C495 0.930 . S
H498 C521 0.931 . S
H499 C487 0.929 . S
H500 C522 0.930 . S
H501 C493 0.931 . S
H502 C483 0.930 . S
H503 C512 0.929 . S
H504 C488 0.931 . S
H505 C489 0.930 . S
H506 C544 0.930 . S
H507 C485 0.929 . S
H508 C513 0.931 . S
H509 C514 0.930 . S
N510 Gd490 2.622 . S
N510 C511 1.369 . S
N510 C512 1.338 . S
C511 N510 1.369 . S
C511 C515 1.415 . S
C511 C518 1.422 . S
C512 H503 0.929 . S
C512 N510 1.338 . S
C512 C514 1.378 . S
C513 H508 0.931 . S
C513 C514 1.348 . S
C513 C515 1.413 . S
C514 H509 0.930 . S
C514 C512 1.378 . S
C514 C513 1.348 . S
C515 C511 1.415 . S
C515 C513 1.413 . S
C515 C545 1.437 . S
H516 C545 0.929 . S
N517 Gd490 2.570 . S
N517 C518 1.359 . S
N517 C521 1.343 . S
C518 C511 1.422 . S
C518 N517 1.359 . S
C518 C520 1.421 . S
C519 C520 1.422 . S
C519 C522 1.321 . S
C519 H546 0.931 . S
C520 C518 1.421 . S
C520 C519 1.422 . S
C520 C544 1.417 . S
C521 H498 0.931 . S
C521 N517 1.343 . S
C521 C522 1.390 . S
C522 H500 0.930 . S
C522 C519 1.321 . S
C522 C521 1.390 . S
O523 Gd491 2.386 . S
O523 C535 1.265 . S
O524 Gd490 2.353 . S
O524 C535 1.242 1_455 S
O525 Gd490 2.468 . S
O525 C543 1.263 . S
O526 Gd490 2.427 . S
O526 C543 1.252 . S
O527 Gd491 2.307 1_455 S
O527 C536 1.261 . S
O528 Gd490 2.388 . S
O528 C536 1.252 . S
O529 Gd490 2.386 . S
O529 C547 1.265 . S
O530 Gd491 2.353 1_455 S
O530 C547 1.242 . S
O531 Gd491 2.468 . S
O531 C555 1.263 . S
O532 Gd491 2.427 . S
O532 C555 1.252 . S
O533 Gd490 2.307 . S
O533 C548 1.261 1_455 S
O534 Gd491 2.388 . S
O534 C548 1.252 . S
C535 O523 1.265 . S
C535 O524 1.242 1_655 S
C536 O527 1.261 . S
C536 O528 1.252 . S
C537 C540 1.394 . S
C537 C542 1.370 . S
C537 C543 1.500 . S
C538 C541 1.383 . S
C538 C542 1.395 . S
C539 C540 1.396 . S
C539 C541 1.365 . S
C539 H556 0.929 . S
C540 C537 1.394 . S
C540 C539 1.396 . S
C540 H557 0.930 . S
C541 C538 1.383 . S
C541 C539 1.365 . S
C541 H558 0.931 . S
C542 C537 1.370 . S
C542 C538 1.395 . S
C542 H559 0.930 . S
C543 Gd490 2.805 . S
C543 O525 1.263 . S
C543 O526 1.252 . S
C543 C537 1.500 . S
C544 H506 0.930 . S
C544 C520 1.417 . S
C544 C545 1.329 . S
C545 C515 1.437 . S
C545 H516 0.929 . S
C545 C544 1.329 . S
H546 C519 0.931 . S
C547 O529 1.265 . S
C547 O530 1.242 . S
C548 O533 1.261 1_655 S
C548 O534 1.252 . S
C549 C552 1.394 . S
C549 C554 1.370 . S
C549 C555 1.500 . S
C550 C553 1.383 . S
C550 C554 1.395 . S
C551 C552 1.396 . S
C551 C553 1.365 . S
C551 H560 0.929 . S
C552 C549 1.394 . S
C552 C551 1.396 . S
C552 H561 0.930 . S
C553 C550 1.383 . S
C553 C551 1.365 . S
C553 H562 0.931 . S
C554 C549 1.370 . S
C554 C550 1.395 . S
C554 H563 0.930 . S
C555 Gd491 2.805 . S
C555 O531 1.263 . S
C555 O532 1.252 . S
C555 C549 1.500 . S
H556 C539 0.929 . S
H557 C540 0.930 . S
H558 C541 0.931 . S
H559 C542 0.930 . S
H560 C551 0.929 . S
H561 C552 0.930 . S
H562 C553 0.931 . S
H563 C554 0.930 . S
C564 C566 1.422 . S
C564 C568 1.415 . S
C564 N570 1.369 . S
C565 C566 1.421 . S
C565 C567 1.417 . S
C565 C577 1.422 . S
C566 C564 1.422 . S
C566 C565 1.421 . S
C566 N576 1.359 . S
C567 C565 1.417 . S
C567 C569 1.329 . S
C567 H586 0.930 . S
C568 C564 1.415 . S
C568 C569 1.437 . S
C568 C572 1.413 . S
C569 C567 1.329 . S
C569 C568 1.437 . S
C569 H591 0.929 . S
N570 C564 1.369 . S
N570 C571 1.338 . S
N570 Gd575 2.622 . S
C571 N570 1.338 . S
C571 C573 1.378 . S
C571 H583 0.929 . S
C572 C568 1.413 . S
C572 C573 1.348 . S
C572 H588 0.931 . S
C573 C571 1.378 . S
C573 C572 1.348 . S
C573 H589 0.930 . S
Gd574 N594 2.622 . S
Gd574 N601 2.570 . S
Gd574 O608 2.353 . S
Gd574 O609 2.468 . S
Gd574 O610 2.427 . S
Gd574 O612 2.388 . S
Gd574 O613 2.386 . S
Gd574 O617 2.307 . S
Gd574 C627 2.805 . S
Gd575 N570 2.622 . S
Gd575 N576 2.570 . S
Gd575 O607 2.386 . S
Gd575 O611 2.307 . S
Gd575 O614 2.353 . S
Gd575 O615 2.468 . S
Gd575 O616 2.427 . S
Gd575 O618 2.388 . S
Gd575 C639 2.805 . S
N576 C566 1.359 . S
N576 Gd575 2.570 . S
N576 C578 1.343 . S
C577 C565 1.422 . S
C577 C579 1.321 . S
C577 H585 0.931 . S
C578 N576 1.343 . S
C578 C579 1.390 . S
C578 H580 0.931 . S
C579 C577 1.321 . S
C579 C578 1.390 . S
C579 H581 0.930 . S
H580 C578 0.931 . S
H581 C579 0.930 . S
H582 C605 0.931 . S
H583 C571 0.929 . S
H584 C606 0.930 . S
H585 C577 0.931 . S
H586 C567 0.930 . S
H587 C596 0.929 . S
H588 C572 0.931 . S
H589 C573 0.930 . S
H590 C628 0.930 . S
H591 C569 0.929 . S
H592 C597 0.931 . S
H593 C598 0.930 . S
N594 Gd574 2.622 . S
N594 C595 1.369 . S
N594 C596 1.338 . S
C595 N594 1.369 . S
C595 C599 1.415 . S
C595 C602 1.422 . S
C596 H587 0.929 . S
C596 N594 1.338 . S
C596 C598 1.378 . S
C597 H592 0.931 . S
C597 C598 1.348 . S
C597 C599 1.413 . S
C598 H593 0.930 . S
C598 C596 1.378 . S
C598 C597 1.348 . S
C599 C595 1.415 . S
C599 C597 1.413 . S
C599 C629 1.437 . S
H600 C629 0.929 . S
N601 Gd574 2.570 . S
N601 C602 1.359 . S
N601 C605 1.343 . S
C602 C595 1.422 . S
C602 N601 1.359 . S
C602 C604 1.421 . S
C603 C604 1.422 . S
C603 C606 1.321 . S
C603 H630 0.931 . S
C604 C602 1.421 . S
C604 C603 1.422 . S
C604 C628 1.417 . S
C605 H582 0.931 . S
C605 N601 1.343 . S
C605 C606 1.390 . S
C606 H584 0.930 . S
C606 C603 1.321 . S
C606 C605 1.390 . S
O607 Gd575 2.386 . S
O607 C619 1.265 . S
O608 Gd574 2.353 . S
O608 C619 1.242 . S
O609 Gd574 2.468 . S
O609 C627 1.263 . S
O610 Gd574 2.427 . S
O610 C627 1.252 . S
O611 Gd575 2.307 . S
O611 C620 1.261 . S
O612 Gd574 2.388 . S
O612 C620 1.252 . S
O613 Gd574 2.386 . S
O613 C631 1.265 . S
O614 Gd575 2.353 . S
O614 C631 1.242 . S
O615 Gd575 2.468 . S
O615 C639 1.263 . S
O616 Gd575 2.427 . S
O616 C639 1.252 . S
O617 Gd574 2.307 . S
O617 C632 1.261 . S
O618 Gd575 2.388 . S
O618 C632 1.252 . S
C619 O607 1.265 . S
C619 O608 1.242 . S
C620 O611 1.261 . S
C620 O612 1.252 . S
C621 C624 1.394 . S
C621 C626 1.370 . S
C621 C627 1.500 . S
C622 C625 1.383 . S
C622 C626 1.395 . S
C623 C624 1.396 . S
C623 C625 1.365 . S
C623 H640 0.929 . S
C624 C621 1.394 . S
C624 C623 1.396 . S
C624 H641 0.930 . S
C625 C622 1.383 . S
C625 C623 1.365 . S
C625 H642 0.931 . S
C626 C621 1.370 . S
C626 C622 1.395 . S
C626 H643 0.930 . S
C627 Gd574 2.805 . S
C627 O609 1.263 . S
C627 O610 1.252 . S
C627 C621 1.500 . S
C628 H590 0.930 . S
C628 C604 1.417 . S
C628 C629 1.329 . S
C629 C599 1.437 . S
C629 H600 0.929 . S
C629 C628 1.329 . S
H630 C603 0.931 . S
C631 O613 1.265 . S
C631 O614 1.242 . S
C632 O617 1.261 . S
C632 O618 1.252 . S
C633 C636 1.394 . S
C633 C638 1.370 . S
C633 C639 1.500 . S
C634 C637 1.383 . S
C634 C638 1.395 . S
C635 C636 1.396 . S
C635 C637 1.365 . S
C635 H644 0.929 . S
C636 C633 1.394 . S
C636 C635 1.396 . S
C636 H645 0.930 . S
C637 C634 1.383 . S
C637 C635 1.365 . S
C637 H646 0.931 . S
C638 C633 1.370 . S
C638 C634 1.395 . S
C638 H647 0.930 . S
C639 Gd575 2.805 . S
C639 O615 1.263 . S
C639 O616 1.252 . S
C639 C633 1.500 . S
H640 C623 0.929 . S
H641 C624 0.930 . S
H642 C625 0.931 . S
H643 C626 0.930 . S
H644 C635 0.929 . S
H645 C636 0.930 . S
H646 C637 0.931 . S
H647 C638 0.930 . S
H648 C656 0.950 . S
H649 C661 0.957 . S
H650 C658 0.950 . S
H651 C660 0.950 . S
H652 C662 0.950 . S
H653 C664 0.950 . S
H654 C666 0.950 . S
H655 C667 0.952 1_655 S
C656 H648 0.950 . S
C656 C657 1.386 . S
C656 C658 1.391 1_565 S
C657 C656 1.386 . S
C657 C661 1.393 1_565 S
C658 H650 0.950 . S
C658 C656 1.391 1_545 S
C658 C659 1.400 . S
C659 C658 1.400 . S
C659 C660 1.398 . S
C659 C665 1.491 . S
C660 H651 0.950 . S
C660 C659 1.398 . S
C660 C661 1.391 . S
C661 H649 0.957 . S
C661 C657 1.393 1_545 S
C661 C660 1.391 . S
C662 H652 0.950 . S
C662 C663 1.386 . S
C662 C664 1.391 . S
C663 C662 1.386 . S
C663 C667 1.393 . S
C664 H653 0.950 . S
C664 C662 1.391 . S
C664 C665 1.400 . S
C665 C659 1.491 . S
C665 C664 1.400 . S
C665 C666 1.398 . S
C666 H654 0.950 . S
C666 C665 1.398 . S
C666 C667 1.391 . S
C667 H655 0.952 1_455 S
C667 C663 1.393 . S
C667 C666 1.391 . S
H668 C676 0.950 . S
H669 C681 0.950 . S
H670 C678 0.950 . S
H671 C680 0.950 . S
H672 C682 0.950 . S
H673 C684 0.950 . S
H674 C686 0.950 . S
H675 C687 0.950 . S
C676 H668 0.950 . S
C676 C677 1.386 . S
C676 C678 1.391 . S
C677 C676 1.386 . S
C677 C681 1.393 . S
C678 H670 0.950 . S
C678 C676 1.391 . S
C678 C679 1.400 . S
C679 C678 1.400 . S
C679 C680 1.398 . S
C679 C685 1.491 . S
C680 H671 0.950 . S
C680 C679 1.398 . S
C680 C681 1.391 . S
C681 H669 0.950 . S
C681 C677 1.393 . S
C681 C680 1.391 . S
C682 H672 0.950 . S
C682 C683 1.386 . S
C682 C684 1.391 . S
C683 C682 1.386 . S
C683 C687 1.393 . S
C684 H673 0.950 . S
C684 C682 1.391 . S
C684 C685 1.400 . S
C685 C679 1.491 . S
C685 C684 1.400 . S
C685 C686 1.398 . S
C686 H674 0.950 . S
C686 C685 1.398 . S
C686 C687 1.391 . S
C687 H675 0.950 . S
C687 C683 1.393 . S
C687 C686 1.391 . S
H688 C696 0.950 . S
H689 C701 0.950 . S
H690 C698 0.950 . S
H691 C700 0.950 . S
H692 C702 0.950 . S
H693 C704 0.950 . S
H694 C706 0.950 . S
H695 C707 0.950 . S
C696 H688 0.950 . S
C696 C697 1.386 . S
C696 C698 1.391 . S
C697 C696 1.386 . S
C697 C701 1.393 . S
C698 H690 0.950 . S
C698 C696 1.391 . S
C698 C699 1.400 . S
C699 C698 1.400 . S
C699 C700 1.398 . S
C699 C705 1.491 . S
C700 H691 0.950 . S
C700 C699 1.398 . S
C700 C701 1.391 . S
C701 H689 0.950 . S
C701 C697 1.393 . S
C701 C700 1.391 . S
C702 H692 0.950 . S
C702 C703 1.386 . S
C702 C704 1.391 . S
C703 C702 1.386 . S
C703 C707 1.393 . S
C704 H693 0.950 . S
C704 C702 1.391 . S
C704 C705 1.400 . S
C705 C699 1.491 . S
C705 C704 1.400 . S
C705 C706 1.398 . S
C706 H694 0.950 . S
C706 C705 1.398 . S
C706 C707 1.391 . S
C707 H695 0.950 . S
C707 C703 1.393 . S
C707 C706 1.391 . S
H708 C716 0.954 . S
H709 C721 0.948 . S
H710 C718 0.950 . S
H711 C720 0.950 . S
H712 C722 0.950 . S
H713 C724 0.950 . S
H714 C726 0.950 . S
H715 C727 0.950 . S
C716 H708 0.954 . S
C716 C717 1.390 . S
C716 C718 1.383 1_565 S
C717 C716 1.390 . S
C717 C721 1.391 . S
C718 H710 0.950 . S
C718 C716 1.383 1_545 S
C718 C719 1.400 . S
C719 C718 1.400 . S
C719 C720 1.398 . S
C719 C725 1.491 . S
C720 H711 0.950 . S
C720 C719 1.398 . S
C720 C721 1.393 1_545 S
C721 H709 0.948 . S
C721 C717 1.391 . S
C721 C720 1.393 1_565 S
C722 H712 0.950 . S
C722 C723 1.386 . S
C722 C724 1.391 . S
C723 C722 1.386 . S
C723 C727 1.393 . S
C724 H713 0.950 . S
C724 C722 1.391 . S
C724 C725 1.400 . S
C725 C719 1.491 . S
C725 C724 1.400 . S
C725 C726 1.398 . S
C726 H714 0.950 . S
C726 C725 1.398 . S
C726 C727 1.391 . S
C727 H715 0.950 . S
C727 C723 1.393 . S
C727 C726 1.391 . S
H728 C736 0.950 . S
H729 C741 0.940 1_545 S
H730 C738 0.950 . S
H731 C740 0.950 . S
H732 C742 0.950 . S
H733 C744 0.950 . S
H734 C746 0.950 . S
H735 C747 0.950 . S
C736 H728 0.950 . S
C736 C737 1.386 . S
C736 C738 1.391 1_545 S
C737 C736 1.386 . S
C737 C741 1.375 1_545 S
C738 H730 0.950 . S
C738 C736 1.391 1_565 S
C738 C739 1.400 . S
C739 C738 1.400 . S
C739 C740 1.398 . S
C739 C745 1.491 . S
C740 H731 0.950 . S
C740 C739 1.398 . S
C740 C741 1.420 . S
C741 H729 0.940 1_565 S
C741 C737 1.375 1_565 S
C741 C740 1.420 . S
C742 H732 0.950 . S
C742 C743 1.386 . S
C742 C744 1.391 . S
C743 C742 1.386 . S
C743 C747 1.393 . S
C744 H733 0.950 . S
C744 C742 1.391 . S
C744 C745 1.400 . S
C745 C739 1.491 . S
C745 C744 1.400 . S
C745 C746 1.398 . S
C746 H734 0.950 . S
C746 C745 1.398 . S
C746 C747 1.391 . S
C747 H735 0.950 . S
C747 C743 1.393 . S
C747 C746 1.391 . S
H748 C756 0.950 . S
H749 C761 0.950 . S
H750 C758 0.950 . S
H751 C760 0.950 . S
H752 C762 0.950 . S
H753 C764 0.950 . S
H754 C766 0.950 . S
H755 C767 0.950 . S
C756 H748 0.950 . S
C756 C757 1.386 . S
C756 C758 1.391 . S
C757 C756 1.386 . S
C757 C761 1.393 . S
C758 H750 0.950 . S
C758 C756 1.391 . S
C758 C759 1.400 . S
C759 C758 1.400 . S
C759 C760 1.398 . S
C759 C765 1.491 . S
C760 H751 0.950 . S
C760 C759 1.398 . S
C760 C761 1.391 . S
C761 H749 0.950 . S
C761 C757 1.393 . S
C761 C760 1.391 . S
C762 H752 0.950 . S
C762 C763 1.386 . S
C762 C764 1.391 . S
C763 C762 1.386 . S
C763 C767 1.393 . S
C764 H753 0.950 . S
C764 C762 1.391 . S
C764 C765 1.400 . S
C765 C759 1.491 . S
C765 C764 1.400 . S
C765 C766 1.398 . S
C766 H754 0.950 . S
C766 C765 1.398 . S
C766 C767 1.391 . S
C767 H755 0.950 . S
C767 C763 1.393 . S
C767 C766 1.391 . S
H768 C776 0.950 . S
H769 C781 0.950 . S
H770 C778 0.950 . S
H771 C780 0.950 . S
H772 C782 0.950 . S
H773 C784 0.950 . S
H774 C786 0.950 . S
H775 C787 0.950 . S
C776 H768 0.950 . S
C776 C777 1.386 . S
C776 C778 1.391 . S
C777 C776 1.386 . S
C777 C781 1.393 . S
C778 H770 0.950 . S
C778 C776 1.391 . S
C778 C779 1.400 . S
C779 C778 1.400 . S
C779 C780 1.398 . S
C779 C785 1.491 . S
C780 H771 0.950 . S
C780 C779 1.398 . S
C780 C781 1.391 . S
C781 H769 0.950 . S
C781 C777 1.393 . S
C781 C780 1.391 . S
C782 H772 0.950 . S
C782 C783 1.386 . S
C782 C784 1.391 . S
C783 C782 1.386 . S
C783 C787 1.393 . S
C784 H773 0.950 . S
C784 C782 1.391 . S
C784 C785 1.400 . S
C785 C779 1.491 . S
C785 C784 1.400 . S
C785 C786 1.398 . S
C786 H774 0.950 . S
C786 C785 1.398 . S
C786 C787 1.391 . S
C787 H775 0.950 . S
C787 C783 1.393 . S
C787 C786 1.391 . S
H788 C796 0.950 . S
H789 C801 0.950 . S
H790 C798 0.950 1_545 S
H791 C800 0.950 . S
H792 C802 0.950 . S
H793 C804 0.950 . S
H794 C806 0.950 . S
H795 C807 0.950 . S
C796 H788 0.950 . S
C796 C797 1.386 . S
C796 C798 1.391 1_545 S
C797 C796 1.386 . S
C797 C801 1.393 1_545 S
C798 H790 0.950 1_565 S
C798 C796 1.391 1_565 S
C798 C799 1.400 . S
C799 C798 1.400 . S
C799 C800 1.398 . S
C799 C805 1.491 . S
C800 H791 0.950 . S
C800 C799 1.398 . S
C800 C801 1.391 . S
C801 H789 0.950 . S
C801 C797 1.393 1_565 S
C801 C800 1.391 . S
C802 H792 0.950 . S
C802 C803 1.386 . S
C802 C804 1.391 . S
C803 C802 1.386 . S
C803 C807 1.393 . S
C804 H793 0.950 . S
C804 C802 1.391 . S
C804 C805 1.400 . S
C805 C799 1.491 . S
C805 C804 1.400 . S
C805 C806 1.398 . S
C806 H794 0.950 . S
C806 C805 1.398 . S
C806 C807 1.391 . S
C807 H795 0.950 . S
C807 C803 1.393 . S
C807 C806 1.391 . S
H808 C816 0.950 . S
H809 C821 0.950 . S
H810 C818 0.950 . S
H811 C820 0.950 . S
H812 C822 0.950 . S
H813 C824 0.950 . S
H814 C826 0.950 . S
H815 C827 0.950 . S
C816 H808 0.950 . S
C816 C817 1.386 . S
C816 C818 1.391 . S
C817 C816 1.386 . S
C817 C821 1.393 . S
C818 H810 0.950 . S
C818 C816 1.391 . S
C818 C819 1.400 . S
C819 C818 1.400 . S
C819 C820 1.398 . S
C819 C825 1.491 . S
C820 H811 0.950 . S
C820 C819 1.398 . S
C820 C821 1.391 . S
C821 H809 0.950 . S
C821 C817 1.393 . S
C821 C820 1.391 . S
C822 H812 0.950 . S
C822 C823 1.386 . S
C822 C824 1.391 . S
C823 C822 1.386 . S
C823 C827 1.393 . S
C824 H813 0.950 . S
C824 C822 1.391 . S
C824 C825 1.400 . S
C825 C819 1.491 . S
C825 C824 1.400 . S
C825 C826 1.398 . S
C826 H814 0.950 . S
C826 C825 1.398 . S
C826 C827 1.391 . S
C827 H815 0.950 . S
C827 C823 1.393 . S
C827 C826 1.391 . S
H828 C836 0.950 . S
H829 C841 0.950 . S
H830 C838 0.950 . S
H831 C840 0.950 . S
H832 C842 0.950 . S
H833 C844 0.950 . S
H834 C846 0.950 . S
H835 C847 0.950 . S
C836 H828 0.950 . S
C836 C837 1.386 . S
C836 C838 1.391 . S
C837 C836 1.386 . S
C837 C841 1.393 . S
C838 H830 0.950 . S
C838 C836 1.391 . S
C838 C839 1.400 . S
C839 C838 1.400 . S
C839 C840 1.398 . S
C839 C845 1.491 . S
C840 H831 0.950 . S
C840 C839 1.398 . S
C840 C841 1.391 . S
C841 H829 0.950 . S
C841 C837 1.393 . S
C841 C840 1.391 . S
C842 H832 0.950 . S
C842 C843 1.386 . S
C842 C844 1.391 . S
C843 C842 1.386 . S
C843 C847 1.393 . S
C844 H833 0.950 . S
C844 C842 1.391 . S
C844 C845 1.400 . S
C845 C839 1.491 . S
C845 C844 1.400 . S
C845 C846 1.398 . S
C846 H834 0.950 . S
C846 C845 1.398 . S
C846 C847 1.391 . S
C847 H835 0.950 . S
C847 C843 1.393 . S
C847 C846 1.391 . S
H848 C856 0.950 . S
H849 C861 0.950 . S
H850 C858 0.950 . S
H851 C860 0.950 . S
H852 C862 0.950 . S
H853 C864 0.950 . S
H854 C866 0.950 . S
H855 C867 0.950 . S
C856 H848 0.950 . S
C856 C857 1.386 . S
C856 C858 1.391 . S
C857 C856 1.386 . S
C857 C861 1.393 . S
C858 H850 0.950 . S
C858 C856 1.391 . S
C858 C859 1.400 . S
C859 C858 1.400 . S
C859 C860 1.398 . S
C859 C865 1.491 . S
C860 H851 0.950 . S
C860 C859 1.398 . S
C860 C861 1.391 . S
C861 H849 0.950 . S
C861 C857 1.393 . S
C861 C860 1.391 . S
C862 H852 0.950 . S
C862 C863 1.386 . S
C862 C864 1.391 . S
C863 C862 1.386 . S
C863 C867 1.393 . S
C864 H853 0.950 . S
C864 C862 1.391 . S
C864 C865 1.400 . S
C865 C859 1.491 . S
C865 C864 1.400 . S
C865 C866 1.398 . S
C866 H854 0.950 . S
C866 C865 1.398 . S
C866 C867 1.391 . S
C867 H855 0.950 . S
C867 C863 1.393 . S
C867 C866 1.391 . S
H868 C876 0.950 . S
H869 C881 0.950 . S
H870 C878 0.950 . S
H871 C880 0.950 . S
H872 C882 0.950 . S
H873 C884 0.950 . S
H874 C886 0.950 . S
H875 C887 0.950 . S
C876 H868 0.950 . S
C876 C877 1.386 . S
C876 C878 1.391 . S
C877 C876 1.386 . S
C877 C881 1.393 . S
C878 H870 0.950 . S
C878 C876 1.391 . S
C878 C879 1.400 . S
C879 C878 1.400 . S
C879 C880 1.398 . S
C879 C885 1.491 . S
C880 H871 0.950 . S
C880 C879 1.398 . S
C880 C881 1.391 . S
C881 H869 0.950 . S
C881 C877 1.393 . S
C881 C880 1.391 . S
C882 H872 0.950 . S
C882 C883 1.386 . S
C882 C884 1.391 . S
C883 C882 1.386 . S
C883 C887 1.393 . S
C884 H873 0.950 . S
C884 C882 1.391 . S
C884 C885 1.400 . S
C885 C879 1.491 . S
C885 C884 1.400 . S
C885 C886 1.398 . S
C886 H874 0.950 . S
C886 C885 1.398 . S
C886 C887 1.391 . S
C887 H875 0.950 . S
C887 C883 1.393 . S
C887 C886 1.391 . S
H888 C896 0.950 . S
H889 C901 0.950 . S
H890 C898 0.950 . S
H891 C900 0.950 . S
H892 C902 0.950 . S
H893 C904 0.950 . S
H894 C906 0.950 . S
H895 C907 0.950 . S
C896 H888 0.950 . S
C896 C897 1.386 . S
C896 C898 1.391 . S
C897 C896 1.386 . S
C897 C901 1.393 . S
C898 H890 0.950 . S
C898 C896 1.391 . S
C898 C899 1.400 . S
C899 C898 1.400 . S
C899 C900 1.398 . S
C899 C905 1.491 . S
C900 H891 0.950 . S
C900 C899 1.398 . S
C900 C901 1.391 . S
C901 H889 0.950 . S
C901 C897 1.393 . S
C901 C900 1.391 . S
C902 H892 0.950 . S
C902 C903 1.386 . S
C902 C904 1.391 . S
C903 C902 1.386 . S
C903 C907 1.393 . S
C904 H893 0.950 . S
C904 C902 1.391 . S
C904 C905 1.400 . S
C905 C899 1.491 . S
C905 C904 1.400 . S
C905 C906 1.398 . S
C906 H894 0.950 . S
C906 C905 1.398 . S
C906 C907 1.391 . S
C907 H895 0.950 . S
C907 C903 1.393 . S
C907 C906 1.391 . S
H908 C916 0.950 . S
H909 C921 0.950 . S
H910 C918 0.950 . S
H911 C920 0.950 . S
H912 C922 0.950 . S
H913 C924 0.950 . S
H914 C926 0.950 . S
H915 C927 0.950 . S
C916 H908 0.950 . S
C916 C917 1.386 . S
C916 C918 1.391 . S
C917 C916 1.386 . S
C917 C921 1.393 . S
C918 H910 0.950 . S
C918 C916 1.391 . S
C918 C919 1.400 . S
C919 C918 1.400 . S
C919 C920 1.398 . S
C919 C925 1.491 . S
C920 H911 0.950 . S
C920 C919 1.398 . S
C920 C921 1.391 . S
C921 H909 0.950 . S
C921 C917 1.393 . S
C921 C920 1.391 . S
C922 H912 0.950 . S
C922 C923 1.386 . S
C922 C924 1.391 . S
C923 C922 1.386 . S
C923 C927 1.393 . S
C924 H913 0.950 . S
C924 C922 1.391 . S
C924 C925 1.400 . S
C925 C919 1.491 . S
C925 C924 1.400 . S
C925 C926 1.398 . S
C926 H914 0.950 . S
C926 C925 1.398 . S
C926 C927 1.391 . S
C927 H915 0.950 . S
C927 C923 1.393 . S
C927 C926 1.391 . S
H928 C936 0.950 . S
H929 C941 0.950 . S
H930 C938 0.950 . S
H931 C940 0.950 . S
H932 C942 0.950 . S
H933 C944 0.950 . S
H934 C946 0.950 . S
H935 C947 0.950 . S
C936 H928 0.950 . S
C936 C937 1.386 . S
C936 C938 1.391 . S
C937 C936 1.386 . S
C937 C941 1.393 . S
C938 H930 0.950 . S
C938 C936 1.391 . S
C938 C939 1.400 . S
C939 C938 1.400 . S
C939 C940 1.398 . S
C939 C945 1.491 . S
C940 H931 0.950 . S
C940 C939 1.398 . S
C940 C941 1.391 . S
C941 H929 0.950 . S
C941 C937 1.393 . S
C941 C940 1.391 . S
C942 H932 0.950 . S
C942 C943 1.386 . S
C942 C944 1.391 . S
C943 C942 1.386 . S
C943 C947 1.393 . S
C944 H933 0.950 . S
C944 C942 1.391 . S
C944 C945 1.400 . S
C945 C939 1.491 . S
C945 C944 1.400 . S
C945 C946 1.398 . S
C946 H934 0.950 . S
C946 C945 1.398 . S
C946 C947 1.391 . S
C947 H935 0.950 . S
C947 C943 1.393 . S
C947 C946 1.391 . S
H948 C956 0.950 . S
H949 C961 0.950 . S
H950 C958 0.950 . S
H951 C960 0.950 . S
H952 C962 0.950 . S
H953 C964 0.950 . S
H954 C966 0.950 . S
H955 C967 0.950 . S
C956 H948 0.950 . S
C956 C957 1.386 . S
C956 C958 1.391 . S
C957 C956 1.386 . S
C957 C961 1.393 . S
C958 H950 0.950 . S
C958 C956 1.391 . S
C958 C959 1.400 . S
C959 C958 1.400 . S
C959 C960 1.398 . S
C959 C965 1.491 . S
C960 H951 0.950 . S
C960 C959 1.398 . S
C960 C961 1.391 . S
C961 H949 0.950 . S
C961 C957 1.393 . S
C961 C960 1.391 . S
C962 H952 0.950 . S
C962 C963 1.386 . S
C962 C964 1.391 . S
C963 C962 1.386 . S
C963 C967 1.393 . S
C964 H953 0.950 . S
C964 C962 1.391 . S
C964 C965 1.400 . S
C965 C959 1.491 . S
C965 C964 1.400 . S
C965 C966 1.398 . S
C966 H954 0.950 . S
C966 C965 1.398 . S
C966 C967 1.391 . S
C967 H955 0.950 . S
C967 C963 1.393 . S
C967 C966 1.391 . S
H968 C976 0.950 . S
H969 C981 0.950 . S
H970 C978 0.950 . S
H971 C980 0.950 . S
H972 C982 0.950 . S
H973 C984 0.950 . S
H974 C986 0.950 . S
H975 C987 0.950 . S
C976 H968 0.950 . S
C976 C977 1.386 . S
C976 C978 1.391 . S
C977 C976 1.386 . S
C977 C981 1.393 . S
C978 H970 0.950 . S
C978 C976 1.391 . S
C978 C979 1.400 . S
C979 C978 1.400 . S
C979 C980 1.398 . S
C979 C985 1.491 . S
C980 H971 0.950 . S
C980 C979 1.398 . S
C980 C981 1.391 . S
C981 H969 0.950 . S
C981 C977 1.393 . S
C981 C980 1.391 . S
C982 H972 0.950 . S
C982 C983 1.386 . S
C982 C984 1.391 . S
C983 C982 1.386 . S
C983 C987 1.393 . S
C984 H973 0.950 . S
C984 C982 1.391 . S
C984 C985 1.400 . S
C985 C979 1.491 . S
C985 C984 1.400 . S
C985 C986 1.398 . S
C986 H974 0.950 . S
C986 C985 1.398 . S
C986 C987 1.391 . S
C987 H975 0.950 . S
C987 C983 1.393 . S
C987 C986 1.391 . S
H988 C996 0.950 . S
H989 C1001 0.950 . S
H990 C998 0.950 . S
H991 C1000 0.950 . S
H992 C1002 0.950 . S
H993 C1004 0.950 . S
H994 C1006 0.950 . S
H995 C1007 0.950 . S
C996 H988 0.950 . S
C996 C997 1.386 . S
C996 C998 1.391 . S
C997 C996 1.386 . S
C997 C1001 1.393 . S
C998 H990 0.950 . S
C998 C996 1.391 . S
C998 C999 1.400 . S
C999 C998 1.400 . S
C999 C1000 1.398 . S
C999 C1005 1.491 . S
C1000 H991 0.950 . S
C1000 C999 1.398 . S
C1000 C1001 1.391 . S
C1001 H989 0.950 . S
C1001 C997 1.393 . S
C1001 C1000 1.391 . S
C1002 H992 0.950 . S
C1002 C1003 1.386 . S
C1002 C1004 1.391 . S
C1003 C1002 1.386 . S
C1003 C1007 1.393 . S
C1004 H993 0.950 . S
C1004 C1002 1.391 . S
C1004 C1005 1.400 . S
C1005 C999 1.491 . S
C1005 C1004 1.400 . S
C1005 C1006 1.398 . S
C1006 H994 0.950 . S
C1006 C1005 1.398 . S
C1006 C1007 1.391 . S
C1007 H995 0.950 . S
C1007 C1003 1.393 . S
C1007 C1006 1.391 . S
H1008 C1016 0.950 . S
H1009 C1021 0.950 . S
H1010 C1018 0.950 . S
H1011 C1020 0.950 . S
H1012 C1022 0.950 . S
H1013 C1024 0.950 . S
H1014 C1026 0.950 . S
H1015 C1027 0.950 . S
C1016 H1008 0.950 . S
C1016 C1017 1.386 . S
C1016 C1018 1.391 . S
C1017 C1016 1.386 . S
C1017 C1021 1.393 . S
C1018 H1010 0.950 . S
C1018 C1016 1.391 . S
C1018 C1019 1.400 . S
C1019 C1018 1.400 . S
C1019 C1020 1.398 . S
C1019 C1025 1.491 . S
C1020 H1011 0.950 . S
C1020 C1019 1.398 . S
C1020 C1021 1.391 . S
C1021 H1009 0.950 . S
C1021 C1017 1.393 . S
C1021 C1020 1.391 . S
C1022 H1012 0.950 . S
C1022 C1023 1.386 . S
C1022 C1024 1.391 . S
C1023 C1022 1.386 . S
C1023 C1027 1.393 . S
C1024 H1013 0.950 . S
C1024 C1022 1.391 . S
C1024 C1025 1.400 . S
C1025 C1019 1.491 . S
C1025 C1024 1.400 . S
C1025 C1026 1.398 . S
C1026 H1014 0.950 . S
C1026 C1025 1.398 . S
C1026 C1027 1.391 . S
C1027 H1015 0.950 . S
C1027 C1023 1.393 . S
C1027 C1026 1.391 . S
H1028 C1036 0.950 . S
H1029 C1041 0.950 . S
H1030 C1038 0.950 . S
H1031 C1040 0.950 . S
H1032 C1042 0.950 . S
H1033 C1044 0.950 . S
H1034 C1046 0.950 . S
H1035 C1047 0.950 . S
C1036 H1028 0.950 . S
C1036 C1037 1.386 . S
C1036 C1038 1.391 . S
C1037 C1036 1.386 . S
C1037 C1041 1.393 . S
C1038 H1030 0.950 . S
C1038 C1036 1.391 . S
C1038 C1039 1.400 . S
C1039 C1038 1.400 . S
C1039 C1040 1.398 . S
C1039 C1045 1.491 . S
C1040 H1031 0.950 . S
C1040 C1039 1.398 . S
C1040 C1041 1.391 . S
C1041 H1029 0.950 . S
C1041 C1037 1.393 . S
C1041 C1040 1.391 . S
C1042 H1032 0.950 . S
C1042 C1043 1.386 . S
C1042 C1044 1.391 . S
C1043 C1042 1.386 . S
C1043 C1047 1.393 . S
C1044 H1033 0.950 . S
C1044 C1042 1.391 . S
C1044 C1045 1.400 . S
C1045 C1039 1.491 . S
C1045 C1044 1.400 . S
C1045 C1046 1.398 . S
C1046 H1034 0.950 . S
C1046 C1045 1.398 . S
C1046 C1047 1.391 . S
C1047 H1035 0.950 . S
C1047 C1043 1.393 . S
C1047 C1046 1.391 . S
H1048 C1056 0.950 . S
H1049 C1061 0.950 . S
H1050 C1058 0.950 . S
H1051 C1060 0.950 . S
H1052 C1062 0.950 . S
H1053 C1064 0.950 . S
H1054 C1066 0.950 . S
H1055 C1067 0.950 . S
C1056 H1048 0.950 . S
C1056 C1057 1.386 . S
C1056 C1058 1.391 . S
C1057 C1056 1.386 . S
C1057 C1061 1.393 . S
C1058 H1050 0.950 . S
C1058 C1056 1.391 . S
C1058 C1059 1.400 . S
C1059 C1058 1.400 . S
C1059 C1060 1.398 . S
C1059 C1065 1.491 . S
C1060 H1051 0.950 . S
C1060 C1059 1.398 . S
C1060 C1061 1.391 . S
C1061 H1049 0.950 . S
C1061 C1057 1.393 . S
C1061 C1060 1.391 . S
C1062 H1052 0.950 . S
C1062 C1063 1.386 . S
C1062 C1064 1.391 . S
C1063 C1062 1.386 . S
C1063 C1067 1.393 . S
C1064 H1053 0.950 . S
C1064 C1062 1.391 . S
C1064 C1065 1.400 . S
C1065 C1059 1.491 . S
C1065 C1064 1.400 . S
C1065 C1066 1.398 . S
C1066 H1054 0.950 . S
C1066 C1065 1.398 . S
C1066 C1067 1.391 . S
C1067 H1055 0.950 . S
C1067 C1063 1.393 . S
C1067 C1066 1.391 . S
H1068 C1076 0.950 . S
H1069 C1081 0.950 . S
H1070 C1078 0.950 . S
H1071 C1080 0.950 . S
H1072 C1082 0.950 . S
H1073 C1084 0.950 . S
H1074 C1086 0.950 . S
H1075 C1087 0.950 . S
C1076 H1068 0.950 . S
C1076 C1077 1.386 . S
C1076 C1078 1.391 . S
C1077 C1076 1.386 . S
C1077 C1081 1.393 . S
C1078 H1070 0.950 . S
C1078 C1076 1.391 . S
C1078 C1079 1.400 . S
C1079 C1078 1.400 . S
C1079 C1080 1.398 . S
C1079 C1085 1.491 . S
C1080 H1071 0.950 . S
C1080 C1079 1.398 . S
C1080 C1081 1.391 . S
C1081 H1069 0.950 . S
C1081 C1077 1.393 . S
C1081 C1080 1.391 . S
C1082 H1072 0.950 . S
C1082 C1083 1.386 . S
C1082 C1084 1.391 . S
C1083 C1082 1.386 . S
C1083 C1087 1.393 . S
C1084 H1073 0.950 . S
C1084 C1082 1.391 . S
C1084 C1085 1.400 . S
C1085 C1079 1.491 . S
C1085 C1084 1.400 . S
C1085 C1086 1.398 . S
C1086 H1074 0.950 . S
C1086 C1085 1.398 . S
C1086 C1087 1.391 . S
C1087 H1075 0.950 . S
C1087 C1083 1.393 . S
C1087 C1086 1.391 . S
H1088 C1096 0.950 . S
H1089 C1101 0.950 . S
H1090 C1098 0.950 . S
H1091 C1100 0.950 . S
H1092 C1102 0.950 . S
H1093 C1104 0.950 . S
H1094 C1106 0.950 . S
H1095 C1107 0.950 . S
C1096 H1088 0.950 . S
C1096 C1097 1.386 . S
C1096 C1098 1.391 . S
C1097 C1096 1.386 . S
C1097 C1101 1.393 . S
C1098 H1090 0.950 . S
C1098 C1096 1.391 . S
C1098 C1099 1.400 . S
C1099 C1098 1.400 . S
C1099 C1100 1.398 . S
C1099 C1105 1.491 . S
C1100 H1091 0.950 . S
C1100 C1099 1.398 . S
C1100 C1101 1.391 . S
C1101 H1089 0.950 . S
C1101 C1097 1.393 . S
C1101 C1100 1.391 . S
C1102 H1092 0.950 . S
C1102 C1103 1.386 . S
C1102 C1104 1.391 . S
C1103 C1102 1.386 . S
C1103 C1107 1.393 . S
C1104 H1093 0.950 . S
C1104 C1102 1.391 . S
C1104 C1105 1.400 . S
C1105 C1099 1.491 . S
C1105 C1104 1.400 . S
C1105 C1106 1.398 . S
C1106 H1094 0.950 . S
C1106 C1105 1.398 . S
C1106 C1107 1.391 . S
C1107 H1095 0.950 . S
C1107 C1103 1.393 . S
C1107 C1106 1.391 . S
H1108 C1116 0.950 . S
H1109 C1121 0.950 . S
H1110 C1118 0.950 . S
H1111 C1120 0.950 . S
H1112 C1122 0.950 . S
H1113 C1124 0.950 . S
H1114 C1126 0.950 . S
H1115 C1127 0.950 . S
C1116 H1108 0.950 . S
C1116 C1117 1.386 . S
C1116 C1118 1.391 . S
C1117 C1116 1.386 . S
C1117 C1121 1.393 . S
C1118 H1110 0.950 . S
C1118 C1116 1.391 . S
C1118 C1119 1.400 . S
C1119 C1118 1.400 . S
C1119 C1120 1.398 . S
C1119 C1125 1.491 . S
C1120 H1111 0.950 . S
C1120 C1119 1.398 . S
C1120 C1121 1.391 . S
C1121 H1109 0.950 . S
C1121 C1117 1.393 . S
C1121 C1120 1.391 . S
C1122 H1112 0.950 . S
C1122 C1123 1.386 . S
C1122 C1124 1.391 . S
C1123 C1122 1.386 . S
C1123 C1127 1.393 . S
C1124 H1113 0.950 . S
C1124 C1122 1.391 . S
C1124 C1125 1.400 . S
C1125 C1119 1.491 . S
C1125 C1124 1.400 . S
C1125 C1126 1.398 . S
C1126 H1114 0.950 . S
C1126 C1125 1.398 . S
C1126 C1127 1.391 . S
C1127 H1115 0.950 . S
C1127 C1123 1.393 . S
C1127 C1126 1.391 . S
C657 C235 1.483 . S
C663 C368 1.458 . S
C683 C452 1.455 . S
C677 C289 1.477 . S
C703 C451 1.469 . S
C697 C157 1.467 . S
C717 C211 1.463 . S
C723 C367 1.465 . S
C743 C548 1.458 . S
C737 C79 1.483 . S
C763 C632 1.467 . S
C757 C118 1.486 . S
C777 C1 1.467 . S
C783 C631 1.467 . S
C797 C40 1.474 . S
C803 C547 1.473 . S
C823 C370 1.311 . S
C817 C55 1.511 1_554 S
C843 C454 1.351 . S
C837 C16 1.516 . S
C863 C466 1.394 . S
C857 C133 1.539 1_556 S
C883 C382 1.405 . S
C877 C94 1.541 . S
C903 C550 1.335 . S
C897 C196 1.519 1_556 S
C917 C172 1.520 . S
C923 C634 1.348 . S
C943 C622 1.421 . S
C937 C274 1.546 1_554 S
C957 C250 1.543 . S
C963 C538 1.393 . S
C983 C379 1.582 . S
C977 C21 1.576 . S
C1003 C463 1.588 . S
C997 C60 1.585 . S
C1017 C99 1.565 . S
C1023 C464 1.554 . S
C1043 C380 1.555 . S
C1037 C138 1.574 . S
C1063 C535 1.591 . S
C1057 C177 1.586 . S
C1077 C216 1.575 . S
C1083 C619 1.584 . S
C1097 C255 1.568 . S
C1103 C620 1.559 . S
C1117 C294 1.572 . S
C1123 C536 1.556 . S
