# Generated by pormake.
# Topology eea, (3,6)-cn, num edge types: 1
# Building blocks:
#     Node 0, Type 0, BuildingBlock: VETTIZ_charged_linker_0, # of connection points: 3
#     Node 1, Type 0, BuildingBlock: VETTIZ_charged_linker_0, # of connection points: 3
#     Node 2, Type 0, BuildingBlock: VETTIZ_charged_linker_0, # of connection points: 3
#     Node 3, Type 0, BuildingBlock: VETTIZ_charged_linker_0, # of connection points: 3
#     Node 4, Type 0, BuildingBlock: VETTIZ_charged_linker_0, # of connection points: 3
#     Node 5, Type 0, BuildingBlock: VETTIZ_charged_linker_0, # of connection points: 3
#     Node 6, Type 0, BuildingBlock: VETTIZ_charged_linker_0, # of connection points: 3
#     Node 7, Type 0, BuildingBlock: VETTIZ_charged_linker_0, # of connection points: 3
#     Node 8, Type 0, BuildingBlock: VETTIZ_charged_linker_0, # of connection points: 3
#     Node 9, Type 0, BuildingBlock: VETTIZ_charged_linker_0, # of connection points: 3
#     Node 10, Type 0, BuildingBlock: VETTIZ_charged_linker_0, # of connection points: 3
#     Node 11, Type 0, BuildingBlock: VETTIZ_charged_linker_0, # of connection points: 3
#     Node 12, Type 0, BuildingBlock: VETTIZ_charged_linker_0, # of connection points: 3
#     Node 13, Type 0, BuildingBlock: VETTIZ_charged_linker_0, # of connection points: 3
#     Node 14, Type 0, BuildingBlock: VETTIZ_charged_linker_0, # of connection points: 3
#     Node 15, Type 0, BuildingBlock: VETTIZ_charged_linker_0, # of connection points: 3
#     Node 16, Type 0, BuildingBlock: VETTIZ_charged_linker_0, # of connection points: 3
#     Node 17, Type 0, BuildingBlock: VETTIZ_charged_linker_0, # of connection points: 3
#     Node 18, Type 1, BuildingBlock: NUHQIS_clean_sbu_0, # of connection points: 6
#     Node 19, Type 1, BuildingBlock: NUHQIS_clean_sbu_0, # of connection points: 6
#     Node 20, Type 1, BuildingBlock: NUHQIS_clean_sbu_0, # of connection points: 6
#     Node 21, Type 1, BuildingBlock: NUHQIS_clean_sbu_0, # of connection points: 6
#     Node 22, Type 1, BuildingBlock: NUHQIS_clean_sbu_0, # of connection points: 6
#     Node 23, Type 1, BuildingBlock: NUHQIS_clean_sbu_0, # of connection points: 6
#     Node 24, Type 1, BuildingBlock: NUHQIS_clean_sbu_0, # of connection points: 6
#     Node 25, Type 1, BuildingBlock: NUHQIS_clean_sbu_0, # of connection points: 6
#     Node 26, Type 1, BuildingBlock: NUHQIS_clean_sbu_0, # of connection points: 6
#     Edge 27, Type (0, 1), BuildingBlock: AJUNOK_clean_linker_0, # of connection points: 2
#     Edge 28, Type (0, 1), BuildingBlock: AJUNOK_clean_linker_0, # of connection points: 2
#     Edge 29, Type (0, 1), BuildingBlock: AJUNOK_clean_linker_0, # of connection points: 2
#     Edge 30, Type (0, 1), BuildingBlock: AJUNOK_clean_linker_0, # of connection points: 2
#     Edge 31, Type (0, 1), BuildingBlock: AJUNOK_clean_linker_0, # of connection points: 2
#     Edge 32, Type (0, 1), BuildingBlock: AJUNOK_clean_linker_0, # of connection points: 2
#     Edge 33, Type (0, 1), BuildingBlock: AJUNOK_clean_linker_0, # of connection points: 2
#     Edge 34, Type (0, 1), BuildingBlock: AJUNOK_clean_linker_0, # of connection points: 2
#     Edge 35, Type (0, 1), BuildingBlock: AJUNOK_clean_linker_0, # of connection points: 2
#     Edge 36, Type (0, 1), BuildingBlock: AJUNOK_clean_linker_0, # of connection points: 2
#     Edge 37, Type (0, 1), BuildingBlock: AJUNOK_clean_linker_0, # of connection points: 2
#     Edge 38, Type (0, 1), BuildingBlock: AJUNOK_clean_linker_0, # of connection points: 2
#     Edge 39, Type (0, 1), BuildingBlock: AJUNOK_clean_linker_0, # of connection points: 2
#     Edge 40, Type (0, 1), BuildingBlock: AJUNOK_clean_linker_0, # of connection points: 2
#     Edge 41, Type (0, 1), BuildingBlock: AJUNOK_clean_linker_0, # of connection points: 2
#     Edge 42, Type (0, 1), BuildingBlock: AJUNOK_clean_linker_0, # of connection points: 2
#     Edge 43, Type (0, 1), BuildingBlock: AJUNOK_clean_linker_0, # of connection points: 2
#     Edge 44, Type (0, 1), BuildingBlock: AJUNOK_clean_linker_0, # of connection points: 2
#     Edge 45, Type (0, 1), BuildingBlock: AJUNOK_clean_linker_0, # of connection points: 2
#     Edge 46, Type (0, 1), BuildingBlock: AJUNOK_clean_linker_0, # of connection points: 2
#     Edge 47, Type (0, 1), BuildingBlock: AJUNOK_clean_linker_0, # of connection points: 2
#     Edge 48, Type (0, 1), BuildingBlock: AJUNOK_clean_linker_0, # of connection points: 2
#     Edge 49, Type (0, 1), BuildingBlock: AJUNOK_clean_linker_0, # of connection points: 2
#     Edge 50, Type (0, 1), BuildingBlock: AJUNOK_clean_linker_0, # of connection points: 2
#     Edge 51, Type (0, 1), BuildingBlock: AJUNOK_clean_linker_0, # of connection points: 2
#     Edge 52, Type (0, 1), BuildingBlock: AJUNOK_clean_linker_0, # of connection points: 2
#     Edge 53, Type (0, 1), BuildingBlock: AJUNOK_clean_linker_0, # of connection points: 2
#     Edge 54, Type (0, 1), BuildingBlock: AJUNOK_clean_linker_0, # of connection points: 2
#     Edge 55, Type (0, 1), BuildingBlock: AJUNOK_clean_linker_0, # of connection points: 2
#     Edge 56, Type (0, 1), BuildingBlock: AJUNOK_clean_linker_0, # of connection points: 2
#     Edge 57, Type (0, 1), BuildingBlock: AJUNOK_clean_linker_0, # of connection points: 2
#     Edge 58, Type (0, 1), BuildingBlock: AJUNOK_clean_linker_0, # of connection points: 2
#     Edge 59, Type (0, 1), BuildingBlock: AJUNOK_clean_linker_0, # of connection points: 2
#     Edge 60, Type (0, 1), BuildingBlock: AJUNOK_clean_linker_0, # of connection points: 2
#     Edge 61, Type (0, 1), BuildingBlock: AJUNOK_clean_linker_0, # of connection points: 2
#     Edge 62, Type (0, 1), BuildingBlock: AJUNOK_clean_linker_0, # of connection points: 2
#     Edge 63, Type (0, 1), BuildingBlock: AJUNOK_clean_linker_0, # of connection points: 2
#     Edge 64, Type (0, 1), BuildingBlock: AJUNOK_clean_linker_0, # of connection points: 2
#     Edge 65, Type (0, 1), BuildingBlock: AJUNOK_clean_linker_0, # of connection points: 2
#     Edge 66, Type (0, 1), BuildingBlock: AJUNOK_clean_linker_0, # of connection points: 2
#     Edge 67, Type (0, 1), BuildingBlock: AJUNOK_clean_linker_0, # of connection points: 2
#     Edge 68, Type (0, 1), BuildingBlock: AJUNOK_clean_linker_0, # of connection points: 2
#     Edge 69, Type (0, 1), BuildingBlock: AJUNOK_clean_linker_0, # of connection points: 2
#     Edge 70, Type (0, 1), BuildingBlock: AJUNOK_clean_linker_0, # of connection points: 2
#     Edge 71, Type (0, 1), BuildingBlock: AJUNOK_clean_linker_0, # of connection points: 2
#     Edge 72, Type (0, 1), BuildingBlock: AJUNOK_clean_linker_0, # of connection points: 2
#     Edge 73, Type (0, 1), BuildingBlock: AJUNOK_clean_linker_0, # of connection points: 2
#     Edge 74, Type (0, 1), BuildingBlock: AJUNOK_clean_linker_0, # of connection points: 2
#     Edge 75, Type (0, 1), BuildingBlock: AJUNOK_clean_linker_0, # of connection points: 2
#     Edge 76, Type (0, 1), BuildingBlock: AJUNOK_clean_linker_0, # of connection points: 2
#     Edge 77, Type (0, 1), BuildingBlock: AJUNOK_clean_linker_0, # of connection points: 2
#     Edge 78, Type (0, 1), BuildingBlock: AJUNOK_clean_linker_0, # of connection points: 2
#     Edge 79, Type (0, 1), BuildingBlock: AJUNOK_clean_linker_0, # of connection points: 2
#     Edge 80, Type (0, 1), BuildingBlock: AJUNOK_clean_linker_0, # of connection points: 2
# Relax obj value: 0.035
# Max RMSD: 0.132
# Mean RMSD: 0.087
data_MOF--net-eea--node1-NUHQIS_clean_sbu_0--node2-VETTIZ_charged_linker_0--edge1-AJUNOK_clean_linker_0
_symmetry_space_group_name_H-M    P1
_symmetry_Int_Tables_number       1
_symmetry_cell_setting            triclinic
loop_
_symmetry_equiv_pos_as_xyz
'x, y, z'
_cell_length_a     48.150387
_cell_length_b     48.588814
_cell_length_c     73.599503
_cell_angle_alpha  92.946658
_cell_angle_beta   92.787007
_cell_angle_gamma 119.9657
loop_
_atom_site_label
_atom_site_type_symbol
_atom_site_fract_x
_atom_site_fract_y
_atom_site_fract_z
_atom_type_partial_charge
C0 C 0.24169 0.19633 0.38659 0.0
C1 C 0.24279 0.22347 0.39507 0.0
C2 C 0.25238 0.23135 0.41394 0.0
C3 C 0.26053 0.18615 0.41532 0.0
C4 C 0.25037 0.178 0.39695 0.0
C5 C 0.24863 0.14743 0.39021 0.0
H6 H 0.26275 0.01999 0.40852 0.0
C7 C 0.26756 0.16197 0.42209 0.0
C8 C 0.26044 0.13915 0.40742 0.0
H9 H 0.22506 0.03639 0.35831 0.0
H10 H 0.23806 0.08856 0.37117 0.0
H11 H 0.32369 0.08893 0.41613 0.0
H12 H 0.22905 0.04616 0.43485 0.0
H13 H 0.2568 0.06743 0.45381 0.0
H14 H 0.25847 0.03538 0.44155 0.0
H15 H 0.31337 0.06496 0.43512 0.0
H16 H 0.32887 0.10746 0.43813 0.0
C17 C 0.27207 0.15472 0.37511 0.0
C18 C 0.21298 0.12262 0.38394 0.0
C19 C 0.3096 0.17111 0.48839 0.0
C20 C 0.31926 0.15253 0.49801 0.0
C21 C 0.31837 0.12605 0.48863 0.0
C22 C 0.30755 0.11778 0.47013 0.0
C23 C 0.29741 0.13611 0.46079 0.0
C24 C 0.29906 0.16262 0.46977 0.0
C25 C 0.28825 0.17976 0.45729 0.0
C26 C 0.27961 0.1589 0.43944 0.0
C27 C 0.28465 0.13318 0.44174 0.0
C28 C 0.31716 0.21363 0.45599 0.0
C29 C 0.25844 0.17919 0.46473 0.0
C30 C 0.25746 0.03495 0.4003 0.0
C31 C 0.24301 0.02423 0.3824 0.0
C32 C 0.23665 0.04437 0.37205 0.0
C33 C 0.24385 0.07448 0.37962 0.0
C34 C 0.25721 0.0844 0.3978 0.0
C35 C 0.26419 0.06491 0.40772 0.0
C36 C 0.27766 0.07898 0.42693 0.0
C37 C 0.27665 0.1097 0.42707 0.0
C38 C 0.26473 0.11275 0.41 0.0
C39 C 0.31262 0.08529 0.42937 0.0
C40 C 0.25458 0.05588 0.4401 0.0
H41 H 0.2685 0.22026 0.43833 0.0
H42 H 0.23407 0.18934 0.3722 0.0
H43 H 0.19612 0.12792 0.39109 0.0
H44 H 0.2062 0.09821 0.38725 0.0
H45 H 0.20773 0.12236 0.36904 0.0
H46 H 0.29504 0.17739 0.37899 0.0
H47 H 0.26155 0.15729 0.36198 0.0
H48 H 0.27896 0.13637 0.37283 0.0
H49 H 0.30964 0.1914 0.49523 0.0
H50 H 0.32611 0.11166 0.49565 0.0
H51 H 0.30727 0.09722 0.46388 0.0
H52 H 0.3398 0.21289 0.45517 0.0
H53 H 0.32045 0.22972 0.4682 0.0
H54 H 0.31497 0.22452 0.44362 0.0
H55 H 0.24323 0.1565 0.47095 0.0
H56 H 0.24228 0.18015 0.45394 0.0
H57 H 0.26569 0.19911 0.47541 0.0
H58 H 0.25227 0.25139 0.42101 0.0
C59 C 0.26149 0.21303 0.42405 0.0
C60 C 0.98386 0.1861 0.39349 0.0
C61 C 0.00822 0.21718 0.39961 0.0
C62 C 0.00595 0.23097 0.41646 0.0
C63 C 0.95546 0.18313 0.42046 0.0
C64 C 0.95779 0.16982 0.40393 0.0
C65 C 0.92964 0.13708 0.39883 0.0
H66 H 0.78736 0.01451 0.41801 0.0
C67 C 0.92518 0.15959 0.42781 0.0
C68 C 0.91003 0.1327 0.41503 0.0
H69 H 0.83907 0.02215 0.3704 0.0
H70 H 0.88135 0.0746 0.38231 0.0
H71 H 0.84861 0.04309 0.44686 0.0
H72 H 0.79846 0.08385 0.41996 0.0
H73 H 0.80994 0.10276 0.44218 0.0
H74 H 0.78338 0.0601 0.43885 0.0
H75 H 0.81076 0.03722 0.45341 0.0
H76 H 0.8485 0.07055 0.46323 0.0
C77 C 0.94223 0.11329 0.39768 0.0
C78 C 0.91198 0.13803 0.38086 0.0
C79 C 0.89253 0.18191 0.48973 0.0
C80 C 0.86504 0.16378 0.49909 0.0
C81 C 0.84131 0.13336 0.49133 0.0
C82 C 0.84437 0.1212 0.47445 0.0
C83 C 0.87156 0.13951 0.46507 0.0
C84 C 0.89516 0.16935 0.47262 0.0
C85 C 0.92198 0.18523 0.46021 0.0
C86 C 0.91057 0.15978 0.4442 0.0
C87 C 0.88101 0.13314 0.4473 0.0
C88 C 0.95356 0.19108 0.47038 0.0
C89 C 0.92306 0.21592 0.45451 0.0
C90 C 0.80801 0.02741 0.41028 0.0
C91 C 0.81016 0.01423 0.39335 0.0
C92 C 0.83698 0.03197 0.38348 0.0
C93 C 0.8615 0.06237 0.39045 0.0
C94 C 0.8591 0.07525 0.40745 0.0
C95 C 0.83269 0.0578 0.41704 0.0
C96 C 0.8341 0.07526 0.43481 0.0
C97 C 0.86574 0.10619 0.43429 0.0
C98 C 0.88021 0.106 0.41828 0.0
C99 C 0.83533 0.05562 0.45049 0.0
C100 C 0.80494 0.0807 0.43412 0.0
H101 H 0.97944 0.22586 0.43958 0.0
H102 H 0.98513 0.17439 0.3809 0.0
H103 H 0.91394 0.16173 0.38002 0.0
H104 H 0.88582 0.12097 0.37983 0.0
H105 H 0.92238 0.13347 0.36871 0.0
H106 H 0.96257 0.12044 0.40821 0.0
H107 H 0.95104 0.11239 0.38412 0.0
H108 H 0.92404 0.0889 0.40047 0.0
H109 H 0.91117 0.20534 0.49545 0.0
H110 H 0.8203 0.11877 0.49846 0.0
H111 H 0.82532 0.09791 0.46938 0.0
H112 H 0.94934 0.1698 0.47746 0.0
H113 H 0.96315 0.21171 0.48084 0.0
H114 H 0.9724 0.19525 0.46115 0.0
H115 H 0.89832 0.21207 0.45216 0.0
H116 H 0.93397 0.22339 0.44151 0.0
H117 H 0.93636 0.2359 0.46531 0.0
H118 H 0.02436 0.25495 0.4215 0.0
C119 C 0.97978 0.21412 0.42691 0.0
C120 C 0.98085 0.79577 0.39616 0.0
C121 C 0.00735 0.79355 0.40298 0.0
C122 C 0.00685 0.78289 0.42055 0.0
C123 C 0.95432 0.77737 0.42403 0.0
C124 C 0.95503 0.78794 0.40686 0.0
C125 C 0.92577 0.7901 0.40153 0.0
H126 H 0.78409 0.7763 0.42136 0.0
C127 C 0.92359 0.77109 0.43139 0.0
C128 C 0.90704 0.7788 0.41818 0.0
H129 H 0.8344 0.80874 0.3729 0.0
H130 H 0.87613 0.79946 0.38475 0.0
H131 H 0.79501 0.71671 0.42382 0.0
H132 H 0.8471 0.81191 0.45029 0.0
H133 H 0.84292 0.78543 0.46677 0.0
H134 H 0.80747 0.78275 0.45552 0.0
H135 H 0.78063 0.72866 0.44298 0.0
H136 H 0.80782 0.71344 0.44591 0.0
C137 C 0.90788 0.76683 0.38427 0.0
C138 C 0.93688 0.82557 0.39904 0.0
C139 C 0.89325 0.72692 0.4937 0.0
C140 C 0.86582 0.7183 0.50339 0.0
C141 C 0.84088 0.72222 0.49547 0.0
C142 C 0.843 0.73438 0.47843 0.0
C143 C 0.87037 0.74285 0.46894 0.0
C144 C 0.89495 0.73901 0.47651 0.0
C145 C 0.92201 0.74909 0.46415 0.0
C146 C 0.90943 0.75933 0.44796 0.0
C147 C 0.87916 0.75573 0.45097 0.0
C148 C 0.92523 0.71971 0.45873 0.0
C149 C 0.95281 0.77738 0.47423 0.0
C150 C 0.80412 0.78126 0.41335 0.0
C151 C 0.80632 0.79389 0.39633 0.0
C152 C 0.83258 0.79979 0.38623 0.0
C153 C 0.85677 0.79424 0.39313 0.0
C154 C 0.85485 0.78255 0.41037 0.0
C155 C 0.82871 0.77593 0.42011 0.0
C156 C 0.83083 0.76333 0.43812 0.0
C157 C 0.86282 0.7641 0.43766 0.0
C158 C 0.87668 0.77541 0.42137 0.0
C159 C 0.80206 0.72883 0.43789 0.0
C160 C 0.83194 0.7868 0.45359 0.0
H161 H 0.9817 0.76697 0.44432 0.0
H162 H 0.97988 0.80306 0.38259 0.0
H163 H 0.95865 0.84188 0.40832 0.0
H164 H 0.91887 0.83224 0.40264 0.0
H165 H 0.94298 0.83129 0.38484 0.0
H166 H 0.90983 0.74498 0.38469 0.0
H167 H 0.91816 0.77809 0.37165 0.0
H168 H 0.88174 0.75795 0.3831 0.0
H169 H 0.91309 0.72467 0.49943 0.0
H170 H 0.81935 0.71549 0.50243 0.0
H171 H 0.82309 0.73665 0.47328 0.0
H172 H 0.90108 0.69815 0.45543 0.0
H173 H 0.93771 0.71474 0.47009 0.0
H174 H 0.93816 0.72234 0.4464 0.0
H175 H 0.94702 0.79391 0.48195 0.0
H176 H 0.97055 0.79212 0.46485 0.0
H177 H 0.96441 0.76889 0.48414 0.0
H178 H 0.02695 0.78097 0.42621 0.0
C179 C 0.98057 0.77483 0.43108 0.0
C180 C 0.1871 0.21471 0.62647 0.0
C181 C 0.21621 0.22042 0.61979 0.0
C182 C 0.22495 0.23496 0.6033 0.0
C183 C 0.17531 0.23644 0.60006 0.0
C184 C 0.16711 0.22279 0.61641 0.0
C185 C 0.13507 0.2177 0.62141 0.0
H186 H 1.00261 0.22961 0.60289 0.0
C187 C 0.14886 0.24123 0.59285 0.0
C188 C 0.12526 0.23032 0.60532 0.0
H189 H 0.02689 0.19219 0.64927 0.0
H190 H 0.07617 0.20279 0.63703 0.0
H191 H 0.07586 0.29054 0.59988 0.0
H192 H 0.02759 0.19553 0.57216 0.0
H193 H 0.04704 0.22397 0.55642 0.0
H194 H 0.01474 0.22373 0.56792 0.0
H195 H 0.04136 0.27669 0.58375 0.0
H196 H 0.08122 0.29253 0.57635 0.0
C197 C 0.14081 0.23828 0.63954 0.0
C198 C 0.11214 0.18138 0.62222 0.0
C199 C 0.15665 0.28802 0.53193 0.0
C200 C 0.13608 0.29442 0.52102 0.0
C201 C 0.10676 0.2886 0.52768 0.0
C202 C 0.09783 0.27593 0.54464 0.0
C203 C 0.11845 0.26903 0.55518 0.0
C204 C 0.14735 0.27524 0.5487 0.0
C205 C 0.16636 0.26633 0.56142 0.0
C206 C 0.14425 0.25367 0.57665 0.0
C207 C 0.11608 0.25527 0.57306 0.0
C208 C 0.19847 0.29704 0.56808 0.0
C209 C 0.17029 0.23993 0.55121 0.0
C210 C 0.01866 0.22375 0.61033 0.0
C211 C 0.01113 0.21072 0.62735 0.0
C212 C 0.03248 0.20311 0.63648 0.0
C213 C 0.0611 0.20909 0.62925 0.0
C214 C 0.06872 0.22271 0.61252 0.0
C215 C 0.04765 0.22965 0.60321 0.0
C216 C 0.06008 0.2437 0.58544 0.0
C217 C 0.09213 0.24434 0.58586 0.0
C218 C 0.09684 0.23193 0.60183 0.0
C219 C 0.06478 0.27763 0.58622 0.0
C220 C 0.03614 0.22078 0.56955 0.0
H221 H 0.2127 0.25377 0.58093 0.0
H222 H 0.1797 0.20356 0.63909 0.0
H223 H 0.1177 0.16728 0.61217 0.0
H224 H 0.08666 0.17377 0.6185 0.0
H225 H 0.11438 0.17389 0.63597 0.0
H226 H 0.16428 0.26096 0.64028 0.0
H227 H 0.14118 0.22548 0.65154 0.0
H228 H 0.12282 0.24586 0.64094 0.0
H229 H 0.17972 0.29296 0.52754 0.0
H230 H 0.09047 0.29337 0.5196 0.0
H231 H 0.07514 0.27183 0.54887 0.0
H232 H 0.19503 0.31803 0.56959 0.0
H233 H 0.21692 0.30226 0.55824 0.0
H234 H 0.20824 0.29593 0.58174 0.0
H235 H 0.14835 0.22359 0.54205 0.0
H236 H 0.17333 0.22427 0.56046 0.0
H237 H 0.19094 0.25036 0.54264 0.0
H238 H 0.24757 0.24023 0.59806 0.0
C239 C 0.2047 0.24294 0.59342 0.0
C240 C 0.77285 0.7992 0.63399 0.0
C241 C 0.76695 0.76938 0.62671 0.0
C242 C 0.74971 0.75676 0.60945 0.0
C243 C 0.74527 0.80403 0.60692 0.0
C244 C 0.76179 0.81595 0.62398 0.0
C245 C 0.76668 0.84818 0.62983 0.0
H246 H 0.74484 0.97127 0.61271 0.0
C247 C 0.73778 0.8279 0.60009 0.0
C248 C 0.75012 0.85364 0.61356 0.0
H249 H 0.79942 0.96333 0.65856 0.0
H250 H 0.78487 0.91052 0.64662 0.0
H251 H 0.77398 0.94683 0.58416 0.0
H252 H 0.68451 0.8978 0.60872 0.0
H253 H 0.67647 0.88479 0.58532 0.0
H254 H 0.69232 0.92642 0.59235 0.0
H255 H 0.73968 0.9498 0.57663 0.0
H256 H 0.74626 0.91877 0.56707 0.0
C257 C 0.80342 0.8724 0.63212 0.0
C258 C 0.7491 0.84532 0.64733 0.0
C259 C 0.68298 0.81121 0.53624 0.0
C260 C 0.67366 0.82989 0.52651 0.0
C261 C 0.67813 0.85853 0.53516 0.0
C262 C 0.69181 0.86859 0.55315 0.0
C263 C 0.70152 0.85004 0.56261 0.0
C264 C 0.69672 0.82166 0.55429 0.0
C265 C 0.70847 0.80515 0.56666 0.0
C266 C 0.72189 0.8288 0.58352 0.0
C267 C 0.71779 0.85504 0.58097 0.0
C268 C 0.73511 0.80198 0.55748 0.0
C269 C 0.67917 0.77297 0.57054 0.0
C270 C 0.75354 0.95808 0.62022 0.0
C271 C 0.77266 0.97128 0.63686 0.0
C272 C 0.78371 0.95338 0.64607 0.0
C273 C 0.77561 0.9228 0.63896 0.0
C274 C 0.75681 0.91012 0.62222 0.0
C275 C 0.74627 0.92776 0.61309 0.0
C276 C 0.72859 0.91142 0.59485 0.0
C277 C 0.72994 0.88085 0.59469 0.0
C278 C 0.74622 0.88019 0.61081 0.0
C279 C 0.74778 0.93269 0.57981 0.0
C280 C 0.69365 0.90484 0.59513 0.0
H281 H 0.72613 0.76336 0.58635 0.0
H282 H 0.78598 0.80939 0.64725 0.0
H283 H 0.72554 0.82269 0.64628 0.0
H284 H 0.74325 0.86438 0.64973 0.0
H285 H 0.76359 0.84535 0.65956 0.0
H286 H 0.81688 0.86446 0.62348 0.0
H287 H 0.81334 0.87548 0.6465 0.0
H288 H 0.80952 0.896 0.6276 0.0
H289 H 0.6798 0.78909 0.52991 0.0
H290 H 0.67181 0.87365 0.52782 0.0
H291 H 0.69478 0.89073 0.55886 0.0
H292 H 0.75137 0.82426 0.5512 0.0
H293 H 0.72454 0.78208 0.54651 0.0
H294 H 0.75086 0.79829 0.5672 0.0
H295 H 0.65722 0.775 0.57123 0.0
H296 H 0.68236 0.76508 0.5839 0.0
H297 H 0.67394 0.75397 0.55962 0.0
H298 H 0.7453 0.73393 0.6035 0.0
C299 C 0.73881 0.77395 0.5995 0.0
C300 C 0.03206 0.81196 0.62873 0.0
C301 C 0.0054 0.78294 0.62155 0.0
C302 C 1.00487 0.77135 0.60346 0.0
C303 C 0.05665 0.81808 0.6 0.0
C304 C 0.05705 0.82909 0.61778 0.0
C305 C 0.08641 0.86075 0.62344 0.0
H306 H 0.22331 0.98808 0.60233 0.0
C307 C 0.08638 0.84214 0.59239 0.0
C308 C 0.10367 0.86718 0.60615 0.0
H309 H 0.18028 0.9718 0.65379 0.0
H310 H 0.13782 0.92002 0.64135 0.0
H311 H 0.21512 0.91942 0.59612 0.0
H312 H 0.15851 0.9592 0.5766 0.0
H313 H 0.15949 0.93542 0.55812 0.0
H314 H 0.19661 0.96886 0.56846 0.0
H315 H 0.22566 0.94352 0.57719 0.0
H316 H 0.19935 0.90079 0.57408 0.0
C317 C 0.10567 0.85642 0.63947 0.0
C318 C 0.07531 0.88512 0.62799 0.0
C319 C 0.11289 0.82489 0.52774 0.0
C320 C 0.13937 0.84374 0.51782 0.0
C321 C 0.16339 0.87398 0.5257 0.0
C322 C 0.16167 0.88514 0.54321 0.0
C323 C 0.13562 0.86596 0.55314 0.0
C324 C 0.11154 0.83649 0.54541 0.0
C325 C 0.08573 0.8198 0.55828 0.0
C326 C 0.09891 0.8438 0.57506 0.0
C327 C 0.12812 0.87076 0.57181 0.0
C328 C 0.08411 0.78809 0.56219 0.0
C329 C 0.05386 0.81567 0.54954 0.0
C330 C 0.20498 0.97312 0.61097 0.0
C331 C 0.20508 0.98399 0.62906 0.0
C332 C 0.1805 0.96401 0.63976 0.0
C333 C 0.15589 0.93392 0.63251 0.0
C334 C 0.15573 0.92357 0.61431 0.0
C335 C 0.18023 0.94286 0.60395 0.0
C336 C 0.17644 0.92753 0.58504 0.0
C337 C 0.14526 0.89613 0.58567 0.0
C338 C 0.13322 0.89413 0.60278 0.0
C339 C 0.20563 0.92266 0.5828 0.0
C340 C 0.17278 0.94878 0.57121 0.0
H341 H 0.02852 0.77882 0.57898 0.0
H342 H 0.03366 0.82116 0.6427 0.0
H343 H 0.05393 0.88002 0.6188 0.0
H344 H 0.09353 0.90987 0.6259 0.0
H345 H 0.06852 0.88417 0.64225 0.0
H346 H 0.10267 0.83214 0.63826 0.0
H347 H 0.09743 0.85966 0.65283 0.0
H348 H 0.13191 0.87276 0.63968 0.0
H349 H 0.09413 0.80147 0.52206 0.0
H350 H 0.18372 0.88909 0.51824 0.0
H351 H 0.1809 0.9083 0.54835 0.0
H352 H 0.10875 0.79166 0.56445 0.0
H353 H 0.07128 0.76975 0.55051 0.0
H354 H 0.0723 0.77846 0.57467 0.0
H355 H 0.05833 0.83708 0.54251 0.0
H356 H 0.0368 0.81318 0.55969 0.0
H357 H 0.04197 0.79472 0.53924 0.0
H358 H 0.98456 0.74895 0.59762 0.0
C359 C 0.03033 0.78877 0.59264 0.0
C360 C 0.89811 0.52181 0.71994 0.0
C361 C 0.90402 0.55176 0.72715 0.0
C362 C 0.9206 0.56401 0.74464 0.0
C363 C 0.92422 0.51649 0.74751 0.0
C364 C 0.90882 0.50494 0.73018 0.0
C365 C 0.90539 0.47331 0.72421 0.0
H366 H 0.92299 0.34851 0.74411 0.0
C367 C 0.9315 0.49274 0.75462 0.0
C368 C 0.92099 0.46764 0.74089 0.0
H369 H 0.88197 0.36141 0.69398 0.0
H370 H 0.89431 0.41371 0.70613 0.0
H371 H 0.9836 0.41714 0.7498 0.0
H372 H 0.89072 0.37731 0.77074 0.0
H373 H 0.91964 0.4001 0.78894 0.0
H374 H 0.92021 0.36672 0.77758 0.0
H375 H 0.97392 0.39359 0.76898 0.0
H376 H 0.99044 0.43626 0.77179 0.0
C377 C 0.92463 0.47747 0.70726 0.0
C378 C 0.86898 0.44844 0.72093 0.0
C379 C 0.9756 0.50576 0.82073 0.0
C380 C 0.98407 0.48694 0.83094 0.0
C381 C 0.98241 0.45962 0.82218 0.0
C382 C 0.97159 0.45056 0.80373 0.0
C383 C 0.96221 0.46893 0.79384 0.0
C384 C 0.96498 0.49643 0.80218 0.0
C385 C 0.95516 0.51357 0.78914 0.0
C386 C 0.94501 0.49113 0.77185 0.0
C387 C 0.94887 0.4649 0.77483 0.0
C388 C 0.985 0.54651 0.78692 0.0
C389 C 0.9265 0.51537 0.79652 0.0
C390 C 0.91678 0.36274 0.7358 0.0
C391 C 0.90173 0.35111 0.71808 0.0
C392 C 0.89406 0.37021 0.70758 0.0
C393 C 0.90104 0.40044 0.71471 0.0
C394 C 0.91563 0.41159 0.73258 0.0
C395 C 0.92354 0.39296 0.74273 0.0
C396 C 0.93871 0.40858 0.76148 0.0
C397 C 0.93853 0.43966 0.76092 0.0
C398 C 0.9248 0.44114 0.74403 0.0
C399 C 0.97339 0.41408 0.76329 0.0
C400 C 0.91647 0.38717 0.77555 0.0
H401 H 0.94285 0.55696 0.76811 0.0
H402 H 0.88494 0.51134 0.70674 0.0
H403 H 0.85522 0.45295 0.73123 0.0
H404 H 0.86348 0.42378 0.7224 0.0
H405 H 0.8591 0.44953 0.7072 0.0
H406 H 0.94591 0.50193 0.70779 0.0
H407 H 0.90954 0.47356 0.69443 0.0
H408 H 0.9348 0.46152 0.70643 0.0
H409 H 0.9765 0.52682 0.82708 0.0
H410 H 0.98938 0.44509 0.82967 0.0
H411 H 0.97062 0.42937 0.79795 0.0
H412 H 0.00777 0.54615 0.78954 0.0
H413 H 0.98606 0.56538 0.79661 0.0
H414 H 0.98565 0.55364 0.77284 0.0
H415 H 0.90848 0.4919 0.80096 0.0
H416 H 0.91338 0.52129 0.78621 0.0
H417 H 0.9347 0.53332 0.80848 0.0
H418 H 0.92584 0.58722 0.75043 0.0
C419 C 0.93063 0.54651 0.75486 0.0
C420 C 0.64565 0.53069 0.72315 0.0
C421 C 0.67135 0.56055 0.73003 0.0
C422 C 0.67046 0.57328 0.74755 0.0
C423 C 0.61887 0.52632 0.75098 0.0
C424 C 0.61993 0.5141 0.73378 0.0
C425 C 0.59171 0.48143 0.72861 0.0
H426 H 0.4531 0.35573 0.74937 0.0
C427 C 0.58904 0.50235 0.75856 0.0
C428 C 0.57323 0.47605 0.74539 0.0
H429 H 0.50344 0.36527 0.70093 0.0
H430 H 0.54413 0.41866 0.71229 0.0
H431 H 0.51654 0.38698 0.77742 0.0
H432 H 0.4607 0.42307 0.75192 0.0
H433 H 0.4747 0.44437 0.77349 0.0
H434 H 0.44883 0.40155 0.77185 0.0
H435 H 0.47735 0.37746 0.78364 0.0
H436 H 0.51332 0.41194 0.79424 0.0
C437 C 0.60441 0.45785 0.72602 0.0
C438 C 0.57281 0.48318 0.71147 0.0
C439 C 0.55881 0.52207 0.82186 0.0
C440 C 0.53141 0.50377 0.83125 0.0
C441 C 0.50715 0.47389 0.82315 0.0
C442 C 0.50971 0.4623 0.80596 0.0
C443 C 0.53687 0.4807 0.79659 0.0
C444 C 0.56086 0.51016 0.8044 0.0
C445 C 0.58738 0.52642 0.79183 0.0
C446 C 0.57521 0.50173 0.77537 0.0
C447 C 0.54574 0.47497 0.77848 0.0
C448 C 0.61899 0.53129 0.80141 0.0
C449 C 0.58887 0.55771 0.78703 0.0
C450 C 0.47312 0.36922 0.74133 0.0
C451 C 0.47532 0.35622 0.72434 0.0
C452 C 0.50125 0.37485 0.71406 0.0
C453 C 0.52493 0.4058 0.72073 0.0
C454 C 0.52276 0.41829 0.73791 0.0
C455 C 0.49713 0.40008 0.74787 0.0
C456 C 0.49892 0.41708 0.7659 0.0
C457 C 0.53005 0.44845 0.7652 0.0
C458 C 0.54379 0.44901 0.74879 0.0
C459 C 0.50145 0.39744 0.7812 0.0
C460 C 0.46925 0.42168 0.76598 0.0
H461 H 0.64509 0.5672 0.77127 0.0
H462 H 0.64604 0.51985 0.71 0.0
H463 H 0.57249 0.50595 0.71224 0.0
H464 H 0.54722 0.46431 0.71004 0.0
H465 H 0.58401 0.48196 0.69884 0.0
H466 H 0.62707 0.46596 0.7348 0.0
H467 H 0.60956 0.45558 0.71165 0.0
H468 H 0.5877 0.43389 0.73019 0.0
H469 H 0.57778 0.54517 0.82782 0.0
H470 H 0.4861 0.45931 0.83026 0.0
H471 H 0.4903 0.43936 0.80066 0.0
H472 H 0.61449 0.50981 0.80837 0.0
H473 H 0.6296 0.55195 0.81189 0.0
H474 H 0.63712 0.53477 0.7918 0.0
H475 H 0.56421 0.55399 0.7845 0.0
H476 H 0.60062 0.56646 0.7744 0.0
H477 H 0.60164 0.57675 0.79838 0.0
H478 H 0.69015 0.59625 0.75317 0.0
C479 C 0.64432 0.5564 0.75802 0.0
C480 C 0.64752 0.12326 0.72967 0.0
C481 C 0.67319 0.11959 0.73639 0.0
C482 C 0.67289 0.11013 0.75428 0.0
C483 C 0.62136 0.10685 0.75785 0.0
C484 C 0.6222 0.11696 0.74055 0.0
C485 C 0.59355 0.12023 0.73527 0.0
H486 H 0.4548 0.11264 0.75581 0.0
C487 C 0.59123 0.10205 0.76538 0.0
C488 C 0.57512 0.11018 0.75212 0.0
H489 H 0.50273 0.13949 0.7061 0.0
H490 H 0.54437 0.13043 0.71832 0.0
H491 H 0.46284 0.05202 0.75881 0.0
H492 H 0.51889 0.14774 0.78421 0.0
H493 H 0.51371 0.1214 0.80099 0.0
H494 H 0.47892 0.1201 0.78976 0.0
H495 H 0.45019 0.06548 0.77817 0.0
H496 H 0.47615 0.0488 0.78077 0.0
C497 C 0.57471 0.09666 0.71825 0.0
C498 C 0.60583 0.15579 0.7324 0.0
C499 C 0.55946 0.05746 0.82749 0.0
C500 C 0.53216 0.04959 0.83717 0.0
C501 C 0.50847 0.05568 0.82966 0.0
C502 C 0.51149 0.06893 0.8129 0.0
C503 C 0.53848 0.0762 0.80326 0.0
C504 C 0.56206 0.07063 0.81057 0.0
C505 C 0.58892 0.07981 0.79814 0.0
C506 C 0.57715 0.09108 0.78209 0.0
C507 C 0.54758 0.08899 0.78528 0.0
C508 C 0.5907 0.04968 0.79249 0.0
C509 C 0.6203 0.10722 0.80829 0.0
C510 C 0.47406 0.1162 0.74748 0.0
C511 C 0.47537 0.12691 0.72991 0.0
C512 C 0.50126 0.13169 0.71973 0.0
C513 C 0.52543 0.12626 0.72684 0.0
C514 C 0.52393 0.11576 0.74439 0.0
C515 C 0.49841 0.11061 0.75435 0.0
C516 C 0.50045 0.09846 0.77253 0.0
C517 C 0.53175 0.09788 0.77195 0.0
C518 C 0.54538 0.10819 0.75546 0.0
C519 C 0.47087 0.06453 0.77278 0.0
C520 C 0.50292 0.12294 0.78778 0.0
H521 H 0.6483 0.09637 0.77838 0.0
H522 H 0.64685 0.13051 0.71605 0.0
H523 H 0.62725 0.17177 0.742 0.0
H524 H 0.58811 0.16319 0.73528 0.0
H525 H 0.61294 0.16108 0.71831 0.0
H526 H 0.5763 0.07461 0.71863 0.0
H527 H 0.58448 0.1075 0.70545 0.0
H528 H 0.54865 0.08812 0.71748 0.0
H529 H 0.57797 0.05282 0.83276 0.0
H530 H 0.48743 0.05021 0.83685 0.0
H531 H 0.49251 0.07287 0.80804 0.0
H532 H 0.56615 0.0289 0.78887 0.0
H533 H 0.60219 0.0436 0.80384 0.0
H534 H 0.60394 0.05214 0.78031 0.0
H535 H 0.61535 0.12394 0.8165 0.0
H536 H 0.638 0.12209 0.79891 0.0
H537 H 0.63162 0.09785 0.81776 0.0
H538 H 0.69274 0.10799 0.7601 0.0
C539 C 0.64714 0.10363 0.76497 0.0
C540 C 0.84987 0.54252 0.95941 0.0
C541 C 0.87802 0.54585 0.95249 0.0
C542 C 0.8862 0.55823 0.93539 0.0
C543 C 0.83815 0.56271 0.93228 0.0
C544 C 0.83032 0.55075 0.94908 0.0
C545 C 0.79908 0.54745 0.9543 0.0
H546 H 0.66884 0.56256 0.9351 0.0
C547 C 0.8124 0.56857 0.92506 0.0
C548 C 0.7894 0.55948 0.9379 0.0
H549 H 0.6917 0.52566 0.98227 0.0
H550 H 0.74113 0.53554 0.97041 0.0
H551 H 0.74218 0.62211 0.93246 0.0
H552 H 0.69145 0.52696 0.9052 0.0
H553 H 0.71214 0.55423 0.88917 0.0
H554 H 0.68076 0.5565 0.90034 0.0
H555 H 0.70892 0.60944 0.91561 0.0
H556 H 0.7493 0.62425 0.9092 0.0
C557 C 0.80626 0.56956 0.97196 0.0
C558 C 0.77521 0.5116 0.95604 0.0
C559 C 0.82098 0.61606 0.86408 0.0
C560 C 0.80142 0.62468 0.8539 0.0
C561 C 0.77228 0.61909 0.86071 0.0
C562 C 0.76312 0.60577 0.87744 0.0
C563 C 0.78318 0.59772 0.88756 0.0
C564 C 0.81151 0.60278 0.88076 0.0
C565 C 0.82981 0.59265 0.89325 0.0
C566 C 0.80806 0.58096 0.90874 0.0
C567 C 0.78065 0.58392 0.90539 0.0
C568 C 0.86281 0.62242 0.89965 0.0
C569 C 0.83199 0.5653 0.8829 0.0
C570 C 0.68439 0.55633 0.94276 0.0
C571 C 0.67613 0.54313 0.95969 0.0
C572 C 0.69748 0.53606 0.96934 0.0
C573 C 0.72618 0.54164 0.96234 0.0
C574 C 0.73395 0.55445 0.9454 0.0
C575 C 0.7133 0.56166 0.93587 0.0
C576 C 0.72582 0.57506 0.91802 0.0
C577 C 0.7572 0.57445 0.91843 0.0
C578 C 0.76169 0.56235 0.93456 0.0
C579 C 0.73175 0.60947 0.91866 0.0
C580 C 0.70131 0.55226 0.90226 0.0
H581 H 0.87397 0.57577 0.91232 0.0
H582 H 0.84318 0.53379 0.97267 0.0
H583 H 0.77996 0.49614 0.94654 0.0
H584 H 0.74992 0.50461 0.95221 0.0
H585 H 0.77725 0.50512 0.9701 0.0
H586 H 0.8298 0.59198 0.97189 0.0
H587 H 0.80738 0.55776 0.98428 0.0
H588 H 0.78858 0.57751 0.97344 0.0
H589 H 0.8435 0.62 0.85929 0.0
H590 H 0.75634 0.62476 0.85298 0.0
H591 H 0.74072 0.60221 0.88184 0.0
H592 H 0.86024 0.64376 0.90228 0.0
H593 H 0.88014 0.62773 0.8891 0.0
H594 H 0.87353 0.6201 0.91265 0.0
H595 H 0.80982 0.54992 0.87368 0.0
H596 H 0.83379 0.5489 0.8921 0.0
H597 H 0.85273 0.57483 0.87438 0.0
H598 H 0.9077 0.56099 0.92971 0.0
C599 C 0.86647 0.56666 0.92526 0.0
C600 C 0.44076 0.13586 0.96776 0.0
C601 C 0.43168 0.10449 0.96147 0.0
C602 C 0.41177 0.09083 0.94502 0.0
C603 C 0.41093 0.13968 0.9414 0.0
C604 C 0.42965 0.15263 0.95777 0.0
C605 C 0.43583 0.1855 0.96319 0.0
H606 H 0.41331 0.30816 0.94592 0.0
C607 C 0.40398 0.16372 0.93437 0.0
C608 C 0.418 0.19032 0.94729 0.0
H609 H 0.46975 0.30146 0.99123 0.0
H610 H 0.45538 0.24863 0.97938 0.0
H611 H 0.44175 0.28459 0.91736 0.0
H612 H 0.35284 0.23396 0.94214 0.0
H613 H 0.34494 0.22278 0.91846 0.0
H614 H 0.36125 0.264 0.92662 0.0
H615 H 0.40624 0.28445 0.90872 0.0
H616 H 0.41546 0.2544 0.90069 0.0
C617 C 0.47265 0.209 0.96412 0.0
C618 C 0.42041 0.18443 0.98136 0.0
C619 C 0.35074 0.14699 0.87019 0.0
C620 C 0.34354 0.16658 0.85986 0.0
C621 C 0.34788 0.19529 0.86832 0.0
C622 C 0.36037 0.20503 0.88653 0.0
C623 C 0.36885 0.186 0.89643 0.0
C624 C 0.3635 0.15723 0.88839 0.0
C625 C 0.37391 0.1402 0.90119 0.0
C626 C 0.38782 0.16432 0.91784 0.0
C627 C 0.38468 0.191 0.91491 0.0
C628 C 0.39993 0.1354 0.89242 0.0
C629 C 0.34374 0.10879 0.90522 0.0
C630 C 0.42241 0.29522 0.95335 0.0
C631 C 0.44193 0.30871 0.96983 0.0
C632 C 0.45365 0.29121 0.9789 0.0
C633 C 0.44559 0.26062 0.97185 0.0
C634 C 0.42607 0.24749 0.95537 0.0
C635 C 0.41512 0.26487 0.9463 0.0
C636 C 0.39691 0.24816 0.92823 0.0
C637 C 0.39786 0.2174 0.92828 0.0
C638 C 0.41472 0.21713 0.94427 0.0
C639 C 0.41574 0.26886 0.91288 0.0
C640 C 0.36214 0.24197 0.92871 0.0
H641 H 0.38656 0.09673 0.92247 0.0
H642 H 0.45663 0.14749 0.98006 0.0
H643 H 0.39743 0.16151 0.98164 0.0
H644 H 0.41377 0.20301 0.98333 0.0
H645 H 0.43666 0.18654 0.99326 0.0
H646 H 0.48423 0.20083 0.95415 0.0
H647 H 0.48435 0.21115 0.97792 0.0
H648 H 0.47873 0.233 0.96037 0.0
H649 H 0.34693 0.12444 0.86416 0.0
H650 H 0.34251 0.21075 0.86065 0.0
H651 H 0.36353 0.22734 0.89208 0.0
H652 H 0.4181 0.15784 0.88702 0.0
H653 H 0.38904 0.11653 0.88087 0.0
H654 H 0.41346 0.129 0.90216 0.0
H655 H 0.32169 0.11079 0.90399 0.0
H656 H 0.34522 0.1027 0.91937 0.0
H657 H 0.33965 0.08855 0.89554 0.0
H658 H 0.40414 0.06657 0.93993 0.0
C659 C 0.40144 0.10829 0.93493 0.0
C660 C 0.69732 0.13816 0.96247 0.0
C661 C 0.67148 0.10853 0.95536 0.0
C662 C 0.67136 0.09711 0.93731 0.0
C663 C 0.72249 0.14468 0.93391 0.0
C664 C 0.72231 0.1557 0.95159 0.0
C665 C 0.7508 0.18804 0.95713 0.0
H666 H 0.88922 0.31506 0.93712 0.0
C667 C 0.7518 0.16936 0.92627 0.0
C668 C 0.76826 0.1948 0.9399 0.0
H669 H 0.84216 0.30094 0.98714 0.0
H670 H 0.79959 0.24937 0.97445 0.0
H671 H 0.87799 0.24498 0.93083 0.0
H672 H 0.8257 0.28878 0.91053 0.0
H673 H 0.82403 0.26306 0.89235 0.0
H674 H 0.86258 0.29564 0.90181 0.0
H675 H 0.89165 0.27194 0.91326 0.0
H676 H 0.86513 0.22962 0.90799 0.0
C677 C 0.77054 0.18488 0.97335 0.0
C678 C 0.73841 0.21149 0.96134 0.0
C679 C 0.77964 0.15262 0.86188 0.0
C680 C 0.80595 0.17191 0.85196 0.0
C681 C 0.82945 0.20239 0.85982 0.0
C682 C 0.82739 0.2134 0.8773 0.0
C683 C 0.80151 0.19381 0.88723 0.0
C684 C 0.77794 0.16408 0.87952 0.0
C685 C 0.75218 0.14698 0.89235 0.0
C686 C 0.76467 0.17118 0.90903 0.0
C687 C 0.79359 0.1985 0.90581 0.0
C688 C 0.75159 0.11583 0.89649 0.0
C689 C 0.71995 0.14178 0.88345 0.0
C690 C 0.86965 0.30079 0.94527 0.0
C691 C 0.86921 0.31176 0.96323 0.0
C692 C 0.84335 0.29262 0.97342 0.0
C693 C 0.81853 0.26276 0.96596 0.0
C694 C 0.8194 0.2519 0.94805 0.0
C695 C 0.8446 0.27086 0.93801 0.0
C696 C 0.84141 0.25544 0.9192 0.0
C697 C 0.81007 0.22412 0.91961 0.0
C698 C 0.79741 0.22223 0.93653 0.0
C699 C 0.87055 0.25032 0.91753 0.0
C700 C 0.8385 0.27676 0.90512 0.0
H701 H 0.69535 0.10507 0.91294 0.0
H702 H 0.69768 0.14802 0.97608 0.0
H703 H 0.71575 0.20443 0.95282 0.0
H704 H 0.75524 0.23603 0.95803 0.0
H705 H 0.73336 0.21204 0.97588 0.0
H706 H 0.77015 0.16179 0.9717 0.0
H707 H 0.76053 0.18579 0.9865 0.0
H708 H 0.7963 0.20323 0.97436 0.0
H709 H 0.76128 0.12902 0.85623 0.0
H710 H 0.84965 0.21784 0.85237 0.0
H711 H 0.84625 0.23675 0.88243 0.0
H712 H 0.77651 0.12015 0.89882 0.0
H713 H 0.73915 0.09724 0.88489 0.0
H714 H 0.73994 0.10616 0.90901 0.0
H715 H 0.72383 0.16283 0.87623 0.0
H716 H 0.70267 0.139 0.89351 0.0
H717 H 0.70857 0.12063 0.87328 0.0
H718 H 0.65153 0.07436 0.9315 0.0
C719 C 0.69678 0.11496 0.92656 0.0
C720 C 0.57725 0.8643 0.05211 0.0
C721 C 0.57859 0.8916 0.0605 0.0
C722 C 0.589 0.90007 0.07926 0.0
C723 C 0.59632 0.85438 0.08082 0.0
C724 C 0.58589 0.84602 0.06249 0.0
C725 C 0.58336 0.81505 0.05587 0.0
H726 H 0.59209 0.68507 0.07488 0.0
C727 C 0.60241 0.82968 0.08773 0.0
C728 C 0.59471 0.80655 0.07314 0.0
H729 H 0.55729 0.70308 0.02421 0.0
H730 H 0.57169 0.75575 0.03693 0.0
H731 H 0.65433 0.75285 0.08287 0.0
H732 H 0.55911 0.71282 0.10047 0.0
H733 H 0.58625 0.73372 0.11968 0.0
H734 H 0.58742 0.70104 0.10787 0.0
H735 H 0.64247 0.72866 0.10175 0.0
H736 H 0.65944 0.77139 0.10485 0.0
C737 C 0.60675 0.82166 0.0408 0.0
C738 C 0.54753 0.79081 0.04961 0.0
C739 C 0.64066 0.83658 0.15454 0.0
C740 C 0.64774 0.81646 0.1644 0.0
C741 C 0.64671 0.78989 0.1551 0.0
C742 C 0.63741 0.78253 0.13643 0.0
C743 C 0.629 0.80193 0.12687 0.0
C744 C 0.63135 0.82885 0.13577 0.0
C745 C 0.62212 0.8469 0.12307 0.0
C746 C 0.61357 0.8261 0.10521 0.0
C747 C 0.61731 0.79965 0.10768 0.0
C748 C 0.65197 0.88027 0.12208 0.0
C749 C 0.59257 0.84751 0.13005 0.0
C750 C 0.58771 0.70048 0.06654 0.0
C751 C 0.57368 0.69009 0.04855 0.0
C752 C 0.56852 0.7108 0.03803 0.0
C753 C 0.57657 0.74122 0.04551 0.0
C754 C 0.58954 0.75085 0.06377 0.0
C755 C 0.59529 0.73075 0.07386 0.0
C756 C 0.60846 0.74456 0.09313 0.0
C757 C 0.60887 0.77597 0.09308 0.0
C758 C 0.59778 0.7795 0.07588 0.0
C759 C 0.64286 0.7495 0.09597 0.0
C760 C 0.58435 0.72195 0.1061 0.0
H761 H 0.60562 0.88934 0.10362 0.0
H762 H 0.56914 0.85697 0.03778 0.0
H763 H 0.53104 0.79658 0.05682 0.0
H764 H 0.54019 0.76626 0.05286 0.0
H765 H 0.54234 0.79074 0.03473 0.0
H766 H 0.62989 0.84421 0.04457 0.0
H767 H 0.59636 0.8241 0.02759 0.0
H768 H 0.61333 0.80303 0.03876 0.0
H769 H 0.6416 0.85736 0.16136 0.0
H770 H 0.65301 0.77465 0.16235 0.0
H771 H 0.63671 0.76173 0.13023 0.0
H772 H 0.67416 0.87861 0.12168 0.0
H773 H 0.65529 0.89653 0.1342 0.0
H774 H 0.65087 0.89148 0.10961 0.0
H775 H 0.5763 0.82485 0.13599 0.0
H776 H 0.57738 0.84947 0.11906 0.0
H777 H 0.60008 0.86734 0.14082 0.0
H778 H 0.58927 0.92037 0.08625 0.0
C779 C 0.59813 0.88179 0.0894 0.0
C780 C 0.31514 0.85128 0.05912 0.0
C781 C 0.33994 0.88224 0.06503 0.0
C782 C 0.33833 0.89643 0.08192 0.0
C783 C 0.28744 0.84924 0.08628 0.0
C784 C 0.28924 0.83554 0.06975 0.0
C785 C 0.26077 0.80296 0.06484 0.0
H786 H 0.1202 0.67984 0.08549 0.0
C787 C 0.25713 0.8261 0.09383 0.0
C788 C 0.24153 0.79907 0.08114 0.0
H789 H 0.17032 0.68839 0.03708 0.0
H790 H 0.21194 0.74119 0.0485 0.0
H791 H 0.18228 0.71118 0.11382 0.0
H792 H 0.1294 0.74913 0.08686 0.0
H793 H 0.14196 0.76943 0.10871 0.0
H794 H 0.11569 0.72668 0.10634 0.0
H795 H 0.14376 0.70373 0.12013 0.0
H796 H 0.18068 0.73793 0.13008 0.0
C797 C 0.27296 0.77884 0.06367 0.0
C798 C 0.24295 0.80395 0.04693 0.0
C799 C 0.22534 0.85007 0.15567 0.0
C800 C 0.1979 0.83233 0.16517 0.0
C801 C 0.17413 0.80172 0.15766 0.0
C802 C 0.17702 0.78906 0.14089 0.0
C803 C 0.20409 0.80703 0.13136 0.0
C804 C 0.22781 0.837 0.13868 0.0
C805 C 0.25455 0.85241 0.12615 0.0
C806 C 0.24281 0.82665 0.11028 0.0
C807 C 0.21323 0.80018 0.11359 0.0
C808 C 0.28611 0.85817 0.1363 0.0
C809 C 0.25591 0.88311 0.12025 0.0
C810 C 0.14012 0.69326 0.07737 0.0
C811 C 0.14237 0.67985 0.06053 0.0
C812 C 0.16853 0.69801 0.05029 0.0
C813 C 0.19258 0.72877 0.05692 0.0
C814 C 0.19045 0.7417 0.07395 0.0
C815 C 0.16443 0.72413 0.08381 0.0
C816 C 0.16617 0.74193 0.10154 0.0
C817 C 0.19761 0.77302 0.10071 0.0
C818 C 0.21167 0.77261 0.08458 0.0
C819 C 0.1681 0.7228 0.11732 0.0
C820 C 0.13677 0.74699 0.10104 0.0
H821 H 0.31243 0.89214 0.10525 0.0
H822 H 0.31592 0.8392 0.04654 0.0
H823 H 0.24582 0.82798 0.04582 0.0
H824 H 0.21664 0.78768 0.04627 0.0
H825 H 0.25246 0.7983 0.03472 0.0
H826 H 0.29341 0.78589 0.07411 0.0
H827 H 0.28149 0.77765 0.05006 0.0
H828 H 0.25466 0.75457 0.06658 0.0
H829 H 0.24405 0.87361 0.16119 0.0
H830 H 0.15321 0.78736 0.16491 0.0
H831 H 0.15793 0.76567 0.13602 0.0
H832 H 0.28176 0.83705 0.14359 0.0
H833 H 0.29601 0.87909 0.14658 0.0
H834 H 0.30475 0.86185 0.12702 0.0
H835 H 0.23122 0.87922 0.11751 0.0
H836 H 0.26745 0.89066 0.10743 0.0
H837 H 0.26879 0.90305 0.13111 0.0
H838 H 0.35713 0.92032 0.08684 0.0
C839 C 0.31229 0.8801 0.09257 0.0
C840 C 0.31206 0.45408 0.06231 0.0
C841 C 0.3388 0.45242 0.06931 0.0
C842 C 0.33944 0.44435 0.08746 0.0
C843 C 0.28708 0.4392 0.09095 0.0
C844 C 0.28683 0.44762 0.07328 0.0
C845 C 0.25725 0.44912 0.06777 0.0
H846 H 0.12313 0.44881 0.09018 0.0
C847 C 0.25713 0.43449 0.09865 0.0
C848 C 0.23987 0.44068 0.08506 0.0
H849 H 0.16161 0.45953 0.03735 0.0
H850 H 0.20399 0.45194 0.04977 0.0
H851 H 0.12708 0.3873 0.09569 0.0
H852 H 0.19021 0.48493 0.11626 0.0
H853 H 0.18433 0.46063 0.13435 0.0
H854 H 0.15027 0.46049 0.12301 0.0
H855 H 0.11947 0.40415 0.11575 0.0
H856 H 0.14409 0.38579 0.11695 0.0
C857 C 0.23812 0.42355 0.05157 0.0
C858 C 0.26811 0.4838 0.06348 0.0
C859 C 0.22912 0.39628 0.16242 0.0
C860 C 0.20292 0.39038 0.17268 0.0
C861 C 0.17961 0.3972 0.1654 0.0
C862 C 0.18175 0.40888 0.1482 0.0
C863 C 0.20752 0.41396 0.13796 0.0
C864 C 0.23096 0.4081 0.14514 0.0
C865 C 0.25705 0.41595 0.1323 0.0
C866 C 0.2444 0.42575 0.11592 0.0
C867 C 0.21539 0.42464 0.11945 0.0
C868 C 0.25861 0.38546 0.12744 0.0
C869 C 0.28888 0.44407 0.14159 0.0
C870 C 0.14028 0.44902 0.08114 0.0
C871 C 0.1389 0.45523 0.06268 0.0
C872 C 0.16231 0.45566 0.05168 0.0
C873 C 0.1869 0.45096 0.0589 0.0
C874 C 0.18816 0.44524 0.07734 0.0
C875 C 0.16461 0.44346 0.08801 0.0
C876 C 0.16824 0.4341 0.10682 0.0
C877 C 0.19862 0.43194 0.10583 0.0
C878 C 0.21044 0.43913 0.08864 0.0
C879 C 0.1382 0.40128 0.1091 0.0
C880 C 0.17335 0.46126 0.12098 0.0
H881 H 0.31559 0.43142 0.11187 0.0
H882 H 0.31059 0.46003 0.04845 0.0
H883 H 0.28769 0.50118 0.0737 0.0
H884 H 0.24889 0.4898 0.06411 0.0
H885 H 0.27744 0.4884 0.04978 0.0
H886 H 0.24315 0.40354 0.05166 0.0
H887 H 0.24445 0.43387 0.03824 0.0
H888 H 0.21176 0.41199 0.05224 0.0
H889 H 0.24781 0.39193 0.16776 0.0
H890 H 0.1592 0.39285 0.17292 0.0
H891 H 0.16305 0.41333 0.14349 0.0
H892 H 0.23399 0.36468 0.124 0.0
H893 H 0.26993 0.37992 0.13914 0.0
H894 H 0.272 0.38719 0.11541 0.0
H895 H 0.28432 0.46107 0.1498 0.0
H896 H 0.30561 0.45849 0.13168 0.0
H897 H 0.30118 0.43548 0.15093 0.0
H898 H 0.36003 0.44362 0.09344 0.0
C899 C 0.31373 0.43758 0.09825 0.0
C900 C 0.51925 0.88283 0.29348 0.0
C901 C 0.54794 0.88742 0.28675 0.0
C902 C 0.55545 0.89902 0.26941 0.0
C903 C 0.50614 0.90123 0.26599 0.0
C904 C 0.49895 0.88994 0.28299 0.0
C905 C 0.46766 0.88624 0.28835 0.0
H906 H 0.32887 0.88403 0.26651 0.0
C907 C 0.47936 0.90537 0.25852 0.0
C908 C 0.45678 0.89652 0.27159 0.0
H909 H 0.36329 0.86776 0.318 0.0
H910 H 0.41269 0.87921 0.30585 0.0
H911 H 0.39777 0.9491 0.26284 0.0
H912 H 0.35954 0.85301 0.23834 0.0
H913 H 0.37529 0.8804 0.22157 0.0
H914 H 0.34187 0.87701 0.23322 0.0
H915 H 0.36613 0.93228 0.24467 0.0
H916 H 0.40795 0.95098 0.24017 0.0
C917 C 0.47485 0.90937 0.30558 0.0
C918 C 0.44481 0.85055 0.29096 0.0
C919 C 0.48304 0.94628 0.19586 0.0
C920 C 0.46187 0.95219 0.18513 0.0
C921 C 0.4323 0.94533 0.19186 0.0
C922 C 0.42404 0.93291 0.20891 0.0
C923 C 0.44561 0.92739 0.21951 0.0
C924 C 0.4745 0.93396 0.21286 0.0
C925 C 0.4945 0.92654 0.22586 0.0
C926 C 0.47337 0.9153 0.24164 0.0
C927 C 0.44458 0.91566 0.23787 0.0
C928 C 0.52667 0.95776 0.2315 0.0
C929 C 0.49831 0.89951 0.21643 0.0
C930 C 0.34705 0.88284 0.27512 0.0
C931 C 0.34119 0.87323 0.29303 0.0
C932 C 0.36609 0.87314 0.30389 0.0
C933 C 0.39518 0.88033 0.29687 0.0
C934 C 0.40018 0.88853 0.27883 0.0
C935 C 0.37683 0.89067 0.26839 0.0
C936 C 0.38811 0.90276 0.25008 0.0
C937 C 0.42141 0.90609 0.25108 0.0
C938 C 0.42792 0.89722 0.26793 0.0
C939 C 0.38996 0.93539 0.2492 0.0
C940 C 0.36499 0.87715 0.23489 0.0
H941 H 0.5419 0.91477 0.24596 0.0
H942 H 0.51234 0.8733 0.30655 0.0
H943 H 0.44666 0.83506 0.27998 0.0
H944 H 0.41919 0.84364 0.29013 0.0
H945 H 0.45106 0.84431 0.30426 0.0
H946 H 0.5001 0.92959 0.30682 0.0
H947 H 0.47118 0.89695 0.31826 0.0
H948 H 0.46002 0.92094 0.30514 0.0
H949 H 0.50583 0.95104 0.19108 0.0
H950 H 0.41574 0.95013 0.18409 0.0
H951 H 0.40123 0.92822 0.21323 0.0
H952 H 0.52262 0.9783 0.23349 0.0
H953 H 0.54379 0.96312 0.22083 0.0
H954 H 0.53834 0.95724 0.24465 0.0
H955 H 0.47618 0.88245 0.20761 0.0
H956 H 0.50172 0.88476 0.22621 0.0
H957 H 0.51868 0.90924 0.20764 0.0
H958 H 0.57744 0.90282 0.2639 0.0
C959 C 0.53479 0.90599 0.25902 0.0
C960 C 0.10239 0.46827 0.30427 0.0
C961 C 0.10046 0.44043 0.29634 0.0
C962 C 0.08665 0.42927 0.27825 0.0
C963 C 0.07906 0.47472 0.27595 0.0
C964 C 0.09185 0.48506 0.29385 0.0
C965 C 0.09412 0.51609 0.30001 0.0
H966 H 0.08207 0.64334 0.27907 0.0
C967 C 0.07183 0.49852 0.26877 0.0
C968 C 0.08062 0.52277 0.28286 0.0
H969 H 0.1159 0.62732 0.33072 0.0
H970 H 0.10339 0.5749 0.31851 0.0
H971 H 0.11453 0.61529 0.25422 0.0
H972 H 0.01953 0.57428 0.27225 0.0
H973 H 0.01447 0.55635 0.25011 0.0
H974 H 0.03129 0.59901 0.25361 0.0
H975 H 0.08522 0.62511 0.2458 0.0
H976 H 0.08771 0.59218 0.23532 0.0
C977 C 0.13017 0.54114 0.30494 0.0
C978 C 0.07239 0.51033 0.3159 0.0
C979 C 0.02902 0.48659 0.20236 0.0
C980 C 0.02223 0.50642 0.19205 0.0
C981 C 0.02503 0.53432 0.20065 0.0
C982 C 0.0354 0.54301 0.21916 0.0
C983 C 0.04326 0.5237 0.22921 0.0
C984 C 0.03966 0.49579 0.22092 0.0
C985 C 0.04947 0.47857 0.23393 0.0
C986 C 0.0595 0.50082 0.25131 0.0
C987 C 0.05595 0.52724 0.24833 0.0
C988 C 0.07818 0.47685 0.22653 0.0
C989 C 0.01963 0.44569 0.23605 0.0
C990 C 0.08615 0.62826 0.28786 0.0
C991 C 0.0998 0.63927 0.30588 0.0
C992 C 0.10549 0.61927 0.31675 0.0
C993 C 0.09821 0.5889 0.30963 0.0
C994 C 0.08538 0.57855 0.29139 0.0
C995 C 0.07906 0.59793 0.28095 0.0
C996 C 0.06546 0.58314 0.26188 0.0
C997 C 0.06517 0.55184 0.26248 0.0
C998 C 0.07708 0.54942 0.27971 0.0
C999 C 0.08916 0.60497 0.24848 0.0
C1000 C 0.03099 0.57804 0.25914 0.0
H1001 H 0.06599 0.43682 0.25424 0.0
H1002 H 0.11225 0.47706 0.31827 0.0
H1003 H 0.05053 0.4862 0.31389 0.0
H1004 H 0.06307 0.52698 0.31685 0.0
H1005 H 0.08534 0.51198 0.32919 0.0
H1006 H 0.14571 0.53698 0.29581 0.0
H1007 H 0.13791 0.53995 0.3192 0.0
H1008 H 0.13595 0.56578 0.30311 0.0
H1009 H 0.02697 0.46497 0.19599 0.0
H1010 H 0.01937 0.54957 0.19295 0.0
H1011 H 0.03736 0.56474 0.22482 0.0
H1012 H 0.09451 0.49914 0.22028 0.0
H1013 H 0.06974 0.45666 0.21587 0.0
H1014 H 0.09357 0.47469 0.2373 0.0
H1015 H 0.99758 0.44763 0.23632 0.0
H1016 H 0.02126 0.43589 0.249 0.0
H1017 H 0.01567 0.42817 0.22447 0.0
H1018 H 0.08487 0.40777 0.27189 0.0
C1019 C 0.07589 0.44624 0.26801 0.0
C1020 C 0.36734 0.46941 0.29692 0.0
C1021 C 0.34087 0.44047 0.28947 0.0
C1022 C 0.34142 0.42862 0.27163 0.0
C1023 C 0.39321 0.47558 0.26861 0.0
C1024 C 0.39298 0.48649 0.28632 0.0
C1025 C 0.42197 0.51843 0.29207 0.0
H1026 H 0.5556 0.64895 0.27054 0.0
C1027 C 0.42268 0.50017 0.26105 0.0
C1028 C 0.4395 0.52525 0.27486 0.0
H1029 H 0.51428 0.6306 0.3225 0.0
H1030 H 0.47324 0.57796 0.31023 0.0
H1031 H 0.55039 0.58108 0.26375 0.0
H1032 H 0.4905 0.61823 0.24574 0.0
H1033 H 0.49124 0.59491 0.22696 0.0
H1034 H 0.5283 0.62902 0.2368 0.0
H1035 H 0.55983 0.60614 0.24527 0.0
H1036 H 0.53488 0.56329 0.24151 0.0
C1037 C 0.44131 0.51447 0.30819 0.0
C1038 C 0.41025 0.54233 0.29652 0.0
C1039 C 0.44651 0.48712 0.19507 0.0
C1040 C 0.47155 0.50751 0.18471 0.0
C1041 C 0.49577 0.53737 0.1929 0.0
C1042 C 0.49532 0.54697 0.21103 0.0
C1043 C 0.47026 0.52663 0.22123 0.0
C1044 C 0.44629 0.49727 0.21331 0.0
C1045 C 0.42137 0.47939 0.22644 0.0
C1046 C 0.43482 0.50268 0.24354 0.0
C1047 C 0.46342 0.53029 0.24024 0.0
C1048 C 0.42099 0.44794 0.22944 0.0
C1049 C 0.38877 0.47466 0.21854 0.0
C1050 C 0.53803 0.63336 0.27935 0.0
C1051 C 0.53814 0.6439 0.29751 0.0
C1052 C 0.51449 0.62308 0.30841 0.0
C1053 C 0.49072 0.59248 0.30127 0.0
C1054 C 0.49046 0.58253 0.28297 0.0
C1055 C 0.51416 0.60264 0.27244 0.0
C1056 C 0.51039 0.58776 0.25341 0.0
C1057 C 0.48019 0.55558 0.25418 0.0
C1058 C 0.46851 0.55283 0.27145 0.0
C1059 C 0.5404 0.58449 0.25065 0.0
C1060 C 0.50504 0.60849 0.23989 0.0
H1061 H 0.36632 0.43593 0.24766 0.0
H1062 H 0.3676 0.4792 0.31053 0.0
H1063 H 0.38936 0.53736 0.28694 0.0
H1064 H 0.42848 0.56731 0.29496 0.0
H1065 H 0.40251 0.54063 0.31059 0.0
H1066 H 0.43842 0.49023 0.30719 0.0
H1067 H 0.43312 0.51796 0.32152 0.0
H1068 H 0.46755 0.53087 0.30832 0.0
H1069 H 0.42742 0.46413 0.18905 0.0
H1070 H 0.51539 0.5533 0.18525 0.0
H1071 H 0.51457 0.56999 0.21636 0.0
H1072 H 0.44592 0.45204 0.2307 0.0
H1073 H 0.40744 0.42977 0.21778 0.0
H1074 H 0.41063 0.43789 0.24219 0.0
H1075 H 0.39222 0.49639 0.21225 0.0
H1076 H 0.37187 0.47072 0.22903 0.0
H1077 H 0.3771 0.45438 0.2078 0.0
H1078 H 0.32154 0.406 0.26571 0.0
C1079 C 0.36743 0.44599 0.26118 0.0
Tb1080 Tb 0.49398 0.97669 0.99109 0.0
Eu1081 Eu 0.51904 0.02146 0.03156 0.0
C1082 C 0.52719 0.96114 0.02393 0.0
C1083 C 0.45036 0.95558 0.0241 0.0
C1084 C 0.48921 0.965 0.94085 0.0
C1085 C 0.49165 0.95906 0.90797 0.0
C1086 C 0.48357 0.94562 0.92472 0.0
C1087 C 0.50294 0.99804 0.93994 0.0
C1088 C 0.51125 0.01153 0.92325 0.0
C1089 C 0.50591 0.99224 0.90705 0.0
C1090 C 0.48264 0.95109 0.95868 0.0
O1091 O 0.47058 0.00492 0.99185 0.0
O1092 O 0.50488 0.04781 0.01235 0.0
O1093 O 0.5622 0.03854 0.01496 0.0
O1094 O 0.53287 0.02404 0.98733 0.0
C1095 C 0.48206 0.03438 0.99886 0.0
O1096 O 0.51118 0.04786 0.05375 0.0
O1097 O 0.55236 0.04126 0.05618 0.0
O1098 O 0.51907 0.9764 0.03565 0.0
O1099 O 0.52422 0.96243 1.00621 0.0
O1100 O 0.45853 0.94596 1.00921 0.0
O1101 O 0.46714 0.98463 0.03211 0.0
C1102 C 0.56054 0.03953 0.99714 0.0
O1103 O 0.5081 0.95812 0.96933 0.0
O1104 O 0.46137 0.95382 0.96773 0.0
C1105 C 0.52403 0.03553 0.0824 0.0
C1106 C 0.50226 0.00828 0.11567 0.0
C1107 C 0.51772 0.04155 0.11476 0.0
C1108 C 0.52836 0.05502 0.09825 0.0
C1109 C 0.50898 0.00237 0.08332 0.0
C1110 C 0.49826 0.9889 0.09975 0.0
C1111 C 0.53403 0.04932 0.06477 0.0
H1112 H 0.48716 0.94353 0.89575 0.0
H1113 H 0.47319 0.9201 0.92509 0.0
H1114 H 0.50741 0.01345 0.95219 0.0
H1115 H 0.5215 0.03705 0.923 0.0
H1116 H 0.52117 0.05714 0.12676 0.0
H1117 H 0.53978 0.08063 0.09785 0.0
H1118 H 0.50548 0.98686 0.07127 0.0
H1119 H 0.48715 0.9633 0.10003 0.0
Tb1120 Tb 0.02306 0.50562 0.99389 0.0
Eu1121 Eu 0.98043 0.48786 0.02965 0.0
C1122 C 0.04537 0.55438 0.02826 0.0
C1123 C 0.04349 0.4815 0.02882 0.0
C1124 C 0.04397 0.51701 0.94579 0.0
C1125 C 0.02313 0.53335 0.9203 0.0
C1126 C 0.03237 0.53623 0.93892 0.0
C1127 C 0.04663 0.49533 0.93369 0.0
C1128 C 0.03708 0.49223 0.91516 0.0
C1129 C 0.02514 0.5111 0.90834 0.0
C1130 C 0.0528 0.51861 0.96546 0.0
O1131 O 0.97813 0.46169 0.9857 0.0
O1132 O 0.96892 0.44239 0.01368 0.0
O1133 O 0.95013 0.49168 1.00677 0.0
O1134 O 0.99197 0.52621 0.9912 0.0
C1135 C 0.96464 0.43773 0.99586 0.0
O1136 O 0.95061 0.4528 0.04789 0.0
O1137 O 0.95929 0.50094 0.05171 0.0
O1138 O 0.01563 0.54081 0.03279 0.0
O1139 O 0.05414 0.54099 0.01564 0.0
O1140 O 0.04258 0.48271 0.01097 0.0
O1141 O 0.02526 0.48753 0.03904 0.0
C1142 C 0.96151 0.51241 0.99449 0.0
O1143 O 0.05086 0.53968 0.97621 0.0
O1144 O 0.04145 0.49126 0.97246 0.0
C1145 C 0.95846 0.47513 0.07792 0.0
C1146 C 0.97956 0.48102 0.11494 0.0
C1147 C 0.94818 0.47451 0.10988 0.0
C1148 C 0.93772 0.47167 0.09145 0.0
C1149 C 0.98946 0.48074 0.08294 0.0
C1150 C 0.9999 0.48356 0.10129 0.0
C1151 C 0.94826 0.47357 0.05862 0.0
H1152 H 0.01371 0.54793 0.9153 0.0
H1153 H 0.03001 0.55318 0.94791 0.0
H1154 H 0.05568 0.48042 0.93863 0.0
H1155 H 0.03895 0.47502 0.90612 0.0
H1156 H 0.93214 0.47255 0.1202 0.0
H1157 H 0.91369 0.46727 0.08777 0.0
H1158 H 0.00574 0.48332 0.07266 0.0
H1159 H 0.02401 0.48808 0.10485 0.0
Tb1160 Tb 0.51659 0.49321 0.02772 0.0
Eu1161 Eu 0.48626 0.50458 0.98946 0.0
C1162 C 0.48279 0.43848 0.99644 0.0
C1163 C 0.55654 0.51165 0.99275 0.0
C1164 C 0.52237 0.48551 0.07678 0.0
C1165 C 0.52462 0.4805 0.10941 0.0
C1166 C 0.53649 0.48051 0.09241 0.0
C1167 C 0.49594 0.49005 0.07827 0.0
C1168 C 0.48406 0.49004 0.09524 0.0
C1169 C 0.49833 0.48537 0.11101 0.0
C1170 C 0.53475 0.48554 0.05888 0.0
O1171 O 0.5139 0.53637 0.03191 0.0
O1172 O 0.52428 0.5515 1.00329 0.0
O1173 O 0.45256 0.50066 0.01107 0.0
O1174 O 0.46494 0.47067 0.02915 0.0
C1175 C 0.52552 0.55886 0.02071 0.0
O1176 O 0.48731 0.53813 0.9704 0.0
O1177 O 0.45378 0.48771 0.96454 0.0
O1178 O 0.46765 0.45209 0.98938 0.0
O1179 O 0.50716 0.45322 1.00892 0.0
O1180 O 0.55732 0.51442 0.01076 0.0
O1181 O 0.52994 0.50229 0.98228 0.0
C1182 C 0.446 0.48171 0.02438 0.0
O1183 O 0.51499 0.46221 0.04701 0.0
O1184 O 0.54812 0.51273 0.05163 0.0
C1185 C 0.4789 0.51736 0.93973 0.0
C1186 C 0.50179 0.52169 0.90473 0.0
C1187 C 0.49086 0.54215 0.91107 0.0
C1188 C 0.47944 0.53992 0.92839 0.0
C1189 C 0.49061 0.49749 0.93365 0.0
C1190 C 0.50183 0.49957 0.91631 0.0
C1191 C 0.46745 0.51564 0.95812 0.0
H1192 H 0.53655 0.47755 0.12138 0.0
H1193 H 0.55687 0.47694 0.0915 0.0
H1194 H 0.4846 0.4938 0.06632 0.0
H1195 H 0.46381 0.49386 0.09605 0.0
H1196 H 0.49113 0.55987 0.90262 0.0
H1197 H 0.47105 0.55586 0.93295 0.0
H1198 H 0.49094 0.4802 0.94226 0.0
H1199 H 0.50989 0.48335 0.91178 0.0
Tb1200 Tb 0.16191 0.31354 0.32645 0.0
Eu1201 Eu 0.18951 0.35859 0.36647 0.0
C1202 C 0.1958 0.29699 0.35878 0.0
C1203 C 0.12001 0.29208 0.3599 0.0
C1204 C 0.15828 0.30383 0.27591 0.0
C1205 C 0.19416 0.32147 0.2513 0.0
C1206 C 0.18558 0.30723 0.26775 0.0
C1207 C 0.13963 0.31486 0.26701 0.0
C1208 C 0.14819 0.32904 0.25051 0.0
C1209 C 0.17552 0.33246 0.24239 0.0
C1210 C 0.15003 0.28945 0.29373 0.0
O1211 O 0.13708 0.34036 0.32935 0.0
O1212 O 0.17545 0.38473 0.34706 0.0
O1213 O 0.23187 0.37459 0.34919 0.0
O1214 O 0.20072 0.3606 0.32233 0.0
C1215 C 0.15038 0.37073 0.33494 0.0
O1216 O 0.18272 0.38616 0.38843 0.0
O1217 O 0.22363 0.37913 0.39077 0.0
O1218 O 0.19027 0.31403 0.37078 0.0
O1219 O 0.19084 0.29709 0.34106 0.0
O1220 O 0.12677 0.28263 0.34444 0.0
O1221 O 0.13798 0.32081 0.36829 0.0
C1222 C 0.22905 0.37556 0.3314 0.0
O1223 O 0.17416 0.29334 0.30457 0.0
O1224 O 0.12944 0.29336 0.30281 0.0
C1225 C 0.19602 0.37449 0.41714 0.0
C1226 C 0.17586 0.34793 0.45079 0.0
C1227 C 0.1951 0.38118 0.45011 0.0
C1228 C 0.20508 0.39433 0.43343 0.0
C1229 C 0.1767 0.3414 0.41776 0.0
C1230 C 0.1665 0.32828 0.43432 0.0
C1231 C 0.20576 0.3878 0.39937 0.0
H1232 H 0.21576 0.32436 0.24571 0.0
H1233 H 0.20059 0.29912 0.2742 0.0
H1234 H 0.11844 0.31265 0.27281 0.0
H1235 H 0.13318 0.33709 0.24399 0.0
H1236 H 0.20276 0.39701 0.46252 0.0
H1237 H 0.21987 0.41994 0.43327 0.0
H1238 H 0.16942 0.3257 0.40533 0.0
H1239 H 0.151 0.30271 0.43418 0.0
Tb1240 Tb 0.68855 0.84089 0.32732 0.0
Eu1241 Eu 0.64598 0.8228 0.36291 0.0
C1242 C 0.70917 0.88964 0.362 0.0
C1243 C 0.71033 0.81835 0.36165 0.0
C1244 C 0.70769 0.84922 0.27947 0.0
C1245 C 0.71957 0.85283 0.24775 0.0
C1246 C 0.72999 0.85766 0.26631 0.0
C1247 C 0.67492 0.83606 0.27395 0.0
C1248 C 0.66453 0.83142 0.25545 0.0
C1249 C 0.68671 0.83948 0.24216 0.0
C1250 C 0.71859 0.85505 0.29894 0.0
O1251 O 0.65765 0.78914 0.3249 0.0
O1252 O 0.61603 0.7859 0.34007 0.0
O1253 O 0.6313 0.85153 0.34575 0.0
O1254 O 0.64348 0.83799 0.31831 0.0
C1255 C 0.62741 0.77338 0.32856 0.0
O1256 O 0.61617 0.78717 0.38097 0.0
O1257 O 0.62478 0.83545 0.38497 0.0
O1258 O 0.69287 0.86654 0.37227 0.0
O1259 O 0.70428 0.88523 0.34411 0.0
O1260 O 0.71946 0.83793 0.34868 0.0
O1261 O 0.68068 0.80441 0.36648 0.0
C1262 C 0.62865 0.84954 0.3278 0.0
O1263 O 0.71158 0.87395 0.30824 0.0
O1264 O 0.71223 0.82989 0.3074 0.0
C1265 C 0.62083 0.80822 0.41114 0.0
C1266 C 0.63513 0.80945 0.44881 0.0
C1267 C 0.60361 0.78954 0.44074 0.0
C1268 C 0.59652 0.78903 0.42204 0.0
C1269 C 0.65248 0.82748 0.41902 0.0
C1270 C 0.65956 0.82814 0.43772 0.0
C1271 C 0.61309 0.8077 0.39155 0.0
H1272 H 0.73712 0.85915 0.23776 0.0
H1273 H 0.75539 0.86799 0.27039 0.0
H1274 H 0.6574 0.82957 0.28396 0.0
H1275 H 0.63916 0.82173 0.25154 0.0
H1276 H 0.58447 0.77436 0.44889 0.0
H1277 H 0.57205 0.77371 0.4161 0.0
H1278 H 0.67164 0.84221 0.41074 0.0
H1279 H 0.68403 0.84374 0.44358 0.0
Tb1280 Tb 0.18214 0.82536 0.36112 0.0
Eu1281 Eu 0.15357 0.83899 0.32299 0.0
C1282 C 0.14568 0.77152 0.33033 0.0
C1283 C 0.22312 0.84399 0.32651 0.0
C1284 C 0.18747 0.81563 0.41001 0.0
C1285 C 0.18257 0.80088 0.44121 0.0
C1286 C 0.19352 0.80035 0.424 0.0
C1287 C 0.16984 0.831 0.41332 0.0
C1288 C 0.15904 0.8317 0.43054 0.0
C1289 C 0.16532 0.81668 0.44471 0.0
C1290 C 0.19841 0.81447 0.39182 0.0
O1291 O 0.1839 0.87074 0.36572 0.0
O1292 O 0.19238 0.88564 0.3368 0.0
O1293 O 0.12169 0.83871 0.34475 0.0
O1294 O 0.13086 0.80662 0.36287 0.0
C1295 C 0.19506 0.89305 0.35437 0.0
O1296 O 0.1526 0.87184 0.30399 0.0
O1297 O 0.12253 0.82099 0.29756 0.0
O1298 O 0.13042 0.78605 0.32489 0.0
O1299 O 0.17223 0.78664 0.34119 0.0
O1300 O 0.22317 0.84415 0.34446 0.0
O1301 O 0.19771 0.83769 0.31574 0.0
C1302 C 0.1141 0.82016 0.35829 0.0
O1303 O 0.17671 0.7924 0.37999 0.0
O1304 O 0.21424 0.84172 0.38477 0.0
C1305 C 0.14735 0.85197 0.27329 0.0
C1306 C 0.17 0.85596 0.23822 0.0
C1307 C 0.15519 0.87342 0.24361 0.0
C1308 C 0.14383 0.87131 0.26097 0.0
C1309 C 0.16336 0.83561 0.26824 0.0
C1310 C 0.17446 0.83749 0.25088 0.0
C1311 C 0.1346 0.84904 0.29138 0.0
H1312 H 0.18772 0.78905 0.45183 0.0
H1313 H 0.20674 0.78805 0.42161 0.0
H1314 H 0.16467 0.8427 0.40261 0.0
H1315 H 0.14654 0.84473 0.43288 0.0
H1316 H 0.15211 0.88851 0.23437 0.0
H1317 H 0.13204 0.88456 0.2647 0.0
H1318 H 0.16682 0.82089 0.27762 0.0
H1319 H 0.18567 0.82368 0.24718 0.0
Tb1320 Tb 0.83042 0.64664 0.65809 0.0
Eu1321 Eu 0.85495 0.69021 0.69842 0.0
C1322 C 0.86126 0.62782 0.68994 0.0
C1323 C 0.78713 0.62684 0.69153 0.0
C1324 C 0.8241 0.63494 0.60751 0.0
C1325 C 0.86278 0.65761 0.58454 0.0
C1326 C 0.85451 0.64413 0.60127 0.0
C1327 C 0.80213 0.63925 0.59647 0.0
C1328 C 0.81047 0.65287 0.57983 0.0
C1329 C 0.84089 0.66225 0.57365 0.0
C1330 C 0.81526 0.62159 0.62554 0.0
O1331 O 0.83414 0.69224 0.65461 0.0
O1332 O 0.82077 0.70112 0.68273 0.0
O1333 O 0.89069 0.72003 0.67883 0.0
O1334 O 0.88239 0.67747 0.6595 0.0
C1335 C 0.82146 0.70454 0.66521 0.0
O1336 O 0.84467 0.71477 0.72041 0.0
O1337 O 0.8878 0.71152 0.72329 0.0
O1338 O 0.87455 0.65694 0.69786 0.0
O1339 O 0.83926 0.6171 0.676 0.0
O1340 O 0.78768 0.62898 0.67371 0.0
O1341 O 0.81333 0.64269 0.70254 0.0
C1342 C 0.89935 0.70785 0.66534 0.0
O1343 O 0.83789 0.622 0.63626 0.0
O1344 O 0.79761 0.62983 0.63468 0.0
C1345 C 0.85905 0.70537 0.74992 0.0
C1346 C 0.84081 0.68026 0.78421 0.0
C1347 C 0.82114 0.68803 0.77349 0.0
C1348 C 0.8302 0.70055 0.75664 0.0
C1349 C 0.87878 0.69764 0.76066 0.0
C1350 C 0.8697 0.68512 0.77755 0.0
C1351 C 0.86798 0.71774 0.73167 0.0
H1352 H 0.88655 0.66497 0.5803 0.0
H1353 H 0.87214 0.64127 0.60937 0.0
H1354 H 0.77848 0.63231 0.60078 0.0
H1355 H 0.79298 0.65595 0.57172 0.0
H1356 H 0.79842 0.68399 0.778 0.0
H1357 H 0.81432 0.70616 0.74881 0.0
H1358 H 0.90121 0.70112 0.75599 0.0
H1359 H 0.88546 0.67948 0.7855 0.0
Tb1360 Tb 0.36101 0.17769 0.66066 0.0
Eu1361 Eu 0.31794 0.16103 0.69603 0.0
C1362 C 0.3805 0.22785 0.6944 0.0
C1363 C 0.38082 0.15402 0.69512 0.0
C1364 C 0.38168 0.18448 0.61301 0.0
C1365 C 0.39439 0.1935 0.5816 0.0
C1366 C 0.4044 0.19788 0.60021 0.0
C1367 C 0.34887 0.16638 0.60707 0.0
C1368 C 0.33883 0.16218 0.58852 0.0
C1369 C 0.36144 0.17595 0.57559 0.0
C1370 C 0.39196 0.19083 0.63259 0.0
O1371 O 0.32859 0.12612 0.65795 0.0
O1372 O 0.28757 0.12375 0.67348 0.0
O1373 O 0.30221 0.18787 0.67788 0.0
O1374 O 0.31628 0.17482 0.65088 0.0
C1375 C 0.29837 0.11101 0.66172 0.0
O1376 O 0.28742 0.1262 0.71422 0.0
O1377 O 0.29779 0.17509 0.71809 0.0
O1378 O 0.36496 0.205 0.70495 0.0
O1379 O 0.37561 0.22256 0.67655 0.0
O1380 O 0.39098 0.17438 0.68255 0.0
O1381 O 0.35107 0.14092 0.69968 0.0
C1382 C 0.29998 0.1852 0.65991 0.0
O1383 O 0.38473 0.21005 0.64134 0.0
O1384 O 0.38527 0.166 0.64146 0.0
C1385 C 0.29318 0.14786 0.74432 0.0
C1386 C 0.30809 0.14815 0.7818 0.0
C1387 C 0.27606 0.13044 0.77414 0.0
C1388 C 0.26868 0.13027 0.75552 0.0
C1389 C 0.32521 0.16543 0.75186 0.0
C1390 C 0.33259 0.16573 0.77048 0.0
C1391 C 0.28529 0.14736 0.72477 0.0
H1392 H 0.41243 0.20362 0.57193 0.0
H1393 H 0.42983 0.21188 0.60461 0.0
H1394 H 0.33104 0.15583 0.61682 0.0
H1395 H 0.31332 0.14848 0.58429 0.0
H1396 H 0.25674 0.11669 0.78257 0.0
H1397 H 0.24386 0.11644 0.74986 0.0
H1398 H 0.34446 0.17908 0.74336 0.0
H1399 H 0.35738 0.18023 0.77606 0.0
Tb1400 Tb 0.84975 0.15528 0.69526 0.0
Eu1401 Eu 0.8213 0.16874 0.65706 0.0
C1402 C 0.81628 0.10183 0.66337 0.0
C1403 C 0.89156 0.17647 0.66101 0.0
C1404 C 0.85557 0.14598 0.74419 0.0
C1405 C 0.85112 0.13122 0.77539 0.0
C1406 C 0.86236 0.13123 0.7582 0.0
C1407 C 0.83683 0.16017 0.74743 0.0
C1408 C 0.82576 0.16035 0.76463 0.0
C1409 C 0.83285 0.14595 0.77885 0.0
C1410 C 0.86703 0.14558 0.72606 0.0
O1411 O 0.84763 0.19857 0.70034 0.0
O1412 O 0.85835 0.2151 0.67196 0.0
O1413 O 0.78721 0.16496 0.67839 0.0
O1414 O 0.79814 0.13404 0.69654 0.0
C1415 C 0.85918 0.22158 0.68947 0.0
O1416 O 0.82413 0.20315 0.63815 0.0
O1417 O 0.78893 0.15322 0.63213 0.0
O1418 O 0.80159 0.11599 0.65649 0.0
O1419 O 0.84066 0.11611 0.67585 0.0
O1420 O 0.89122 0.17812 0.67897 0.0
O1421 O 0.8653 0.16672 0.65014 0.0
C1422 C 0.77989 0.14579 0.69161 0.0
O1423 O 0.84617 0.12297 0.71418 0.0
O1424 O 0.88167 0.17292 0.719 0.0
C1425 C 0.81476 0.18255 0.60747 0.0
C1426 C 0.8366 0.18553 0.57229 0.0
C1427 C 0.82301 0.20406 0.57784 0.0
C1428 C 0.81209 0.20248 0.59526 0.0
C1429 C 0.82929 0.16483 0.60222 0.0
C1430 C 0.84001 0.16624 0.58478 0.0
C1431 C 0.80355 0.18124 0.62586 0.0
H1432 H 0.85691 0.11986 0.78604 0.0
H1433 H 0.87644 0.11982 0.75587 0.0
H1434 H 0.83105 0.17142 0.7367 0.0
H1435 H 0.81244 0.17257 0.76693 0.0
H1436 H 0.82075 0.21973 0.5687 0.0
H1437 H 0.80152 0.2168 0.59919 0.0
H1438 H 0.8321 0.14968 0.61155 0.0
H1439 H 0.85028 0.15163 0.58092 0.0
C1440 C 0.39921 0.916 0.06244 0.0
C1441 C 0.36777 0.89929 0.05385 0.0
C1442 C 0.4258 0.93282 0.05242 0.0
C1443 C 0.42218 0.93332 0.03338 0.0
H1444 H 0.40336 0.91626 0.07707 0.0
H1445 H 0.44946 0.94602 0.05972 0.0
S1446 S 0.34538 0.89427 1.00421 0.0
N1447 N 0.33463 0.88497 0.02501 0.0
N1448 N 0.38507 0.91598 1.00623 0.0
C1449 C 0.39116 0.91621 0.02447 0.0
C1450 C 0.36385 0.89936 0.0347 0.0
C1451 C 0.12216 0.48496 0.042 0.0
C1452 C 0.11381 0.46178 0.05469 0.0
C1453 C 0.09916 0.49084 0.03353 0.0
C1454 C 0.06705 0.47451 0.03779 0.0
H1455 H 0.14678 0.49888 0.03856 0.0
H1456 H 0.10671 0.50873 0.0238 0.0
S1457 S 0.03181 0.41125 0.06957 0.0
N1458 N 0.07015 0.42148 0.0704 0.0
N1459 N 0.02758 0.43432 0.05532 0.0
C1460 C 0.05824 0.4518 0.05063 0.0
C1461 C 0.08144 0.44505 0.0589 0.0
C1462 C 0.54384 0.63159 0.05168 0.0
C1463 C 0.5626 0.65699 0.04127 0.0
C1464 C 0.53225 0.59995 0.04501 0.0
C1465 C 0.53889 0.59254 0.02762 0.0
H1466 H 0.53758 0.63618 0.065 0.0
H1467 H 0.51756 0.58119 0.05344 0.0
S1468 S 0.58914 0.65069 0.99558 0.0
N1469 N 0.58891 0.67293 0.01324 0.0
N1470 N 0.56689 0.6134 1.00048 0.0
C1471 C 0.55812 0.6178 0.01718 0.0
C1472 C 0.57001 0.65004 0.02404 0.0
C1473 C 0.90442 0.37053 0.96169 0.0
C1474 C 0.89526 0.34336 0.97126 0.0
C1475 C 0.92756 0.40095 0.96955 0.0
C1476 C 0.94228 0.40522 0.98726 0.0
H1477 H 0.89295 0.36838 0.94825 0.0
H1478 H 0.93321 0.42129 0.96188 0.0
S1479 S 0.92948 0.34113 0.01703 0.0
N1480 N 0.90469 0.32222 0.99861 0.0
N1481 N 0.94796 0.37932 0.0135 0.0
C1482 C 0.93418 0.37805 0.99668 0.0
C1483 C 0.91071 0.34714 0.98865 0.0
C1484 C 0.64542 0.54434 0.98614 0.0
C1485 C 0.64541 0.5362 0.96747 0.0
C1486 C 0.61672 0.53626 0.99416 0.0
C1487 C 0.58666 0.51974 0.98387 0.0
H1488 H 0.66789 0.5571 0.99468 0.0
H1489 H 0.61822 0.54321 1.00855 0.0
S1490 S 0.57328 0.49198 0.93448 0.0
N1491 N 0.61266 0.50999 0.939 0.0
N1492 N 0.55881 0.49515 0.95386 0.0
C1493 C 0.58632 0.5116 0.96512 0.0
C1494 C 0.61561 0.51978 0.95698 0.0
C1495 C 0.45504 0.06871 0.96184 0.0
C1496 C 0.44405 0.08657 0.97159 0.0
C1497 C 0.46742 0.05206 0.97089 0.0
C1498 C 0.46995 0.05319 0.99004 0.0
H1499 H 0.45443 0.06783 0.94708 0.0
H1500 H 0.47542 0.03846 0.96284 0.0
S1501 S 0.44301 0.09457 0.02202 0.0
N1502 N 0.43475 0.1026 1.00159 0.0
N1503 N 0.45977 0.07247 0.01854 0.0
C1504 C 0.4593 0.07091 1.00004 0.0
C1505 C 0.44592 0.08732 0.99082 0.0
C1506 C 0.61248 0.08015 0.95886 0.0
C1507 C 0.64386 0.0907 0.96641 0.0
C1508 C 0.58603 0.06451 0.96913 0.0
C1509 C 0.58971 0.05852 0.9874 0.0
H1510 H 0.60834 0.08444 0.94495 0.0
H1511 H 0.56244 0.05707 0.9626 0.0
S1512 S 0.66697 0.08026 0.01331 0.0
N1513 N 0.67732 0.09354 0.9931 0.0
N1514 N 0.62746 0.06394 0.01245 0.0
C1515 C 0.62103 0.06897 0.99514 0.0
C1516 C 0.64809 0.08504 0.98464 0.0
C1517 C 0.93243 0.55695 0.96518 0.0
C1518 C 0.89882 0.5366 0.96311 0.0
C1519 C 0.95245 0.54897 0.97535 0.0
C1520 C 0.93968 0.52039 0.98397 0.0
H1521 H 0.94337 0.57947 0.95909 0.0
H1522 H 0.97814 0.56554 0.97659 0.0
S1523 S 0.8535 0.45749 0.9814 0.0
N1524 N 0.85389 0.48555 0.96951 0.0
N1525 N 0.89131 0.47086 0.98889 0.0
C1526 C 0.90614 0.49962 0.98181 0.0
C1527 C 0.88579 0.50763 0.97133 0.0
C1528 C 0.46078 0.36574 0.96494 0.0
C1529 C 0.45148 0.34158 0.977 0.0
C1530 C 0.4706 0.39713 0.97133 0.0
C1531 C 0.47213 0.40549 0.99001 0.0
H1532 H 0.46095 0.36049 0.95048 0.0
H1533 H 0.47766 0.41511 0.96167 0.0
S1534 S 0.44805 0.35143 0.02707 0.0
N1535 N 0.44211 0.32812 1.00842 0.0
N1536 N 0.4623 0.38769 0.02043 0.0
C1537 C 0.46278 0.38185 1.00222 0.0
C1538 C 0.45204 0.34972 0.99571 0.0
C1539 C 0.08482 0.63756 0.05254 0.0
C1540 C 0.11767 0.64697 0.05354 0.0
C1541 C 0.06133 0.60718 0.04475 0.0
C1542 C 0.07 0.58535 0.03766 0.0
H1543 H 0.07732 0.6541 0.05732 0.0
H1544 H 0.03636 0.60114 0.04379 0.0
S1545 S 0.15239 0.59691 0.03948 0.0
N1546 N 0.15735 0.63099 0.04862 0.0
N1547 N 0.1134 0.57411 0.03383 0.0
C1548 C 0.10266 0.59405 0.03932 0.0
C1549 C 0.12646 0.62482 0.0473 0.0
C1550 C 0.37772 0.48519 0.04676 0.0
C1551 C 0.36572 0.4591 0.0576 0.0
C1552 C 0.40296 0.49188 0.03562 0.0
C1553 C 0.41735 0.47282 0.03489 0.0
H1554 H 0.36791 0.50097 0.04713 0.0
H1555 H 0.41176 0.51261 0.0279 0.0
S1556 S 0.39291 0.39993 0.05927 0.0
N1557 N 0.3688 0.41284 0.06579 0.0
N1558 N 0.41627 0.42549 0.04524 0.0
C1559 C 0.40507 0.44623 0.04535 0.0
C1560 C 0.37935 0.43939 0.0566 0.0
C1561 C 0.53868 0.89383 0.03828 0.0
C1562 C 0.56736 0.91001 0.04995 0.0
C1563 C 0.52641 0.91056 0.02906 0.0
C1564 C 0.54226 0.94391 0.03138 0.0
H1565 H 0.525 0.86801 0.03672 0.0
H1566 H 0.50378 0.89732 0.02069 0.0
S1567 S 0.61947 0.99783 0.0586 0.0
N1568 N 0.61265 0.96163 0.06176 0.0
N1569 N 0.58868 0.99282 0.04502 0.0
C1570 C 0.57128 0.96045 0.04247 0.0
C1571 C 0.58407 0.94356 0.05162 0.0
C1572 C 0.06755 0.25159 0.39769 0.0
C1573 C 0.03636 0.2348 0.38877 0.0
C1574 C 0.09446 0.26897 0.38801 0.0
C1575 C 0.09143 0.27002 0.36899 0.0
H1576 H 0.07126 0.25138 0.4123 0.0
H1577 H 0.1179 0.28191 0.39553 0.0
S1578 S 0.01543 0.2309 0.33905 0.0
N1579 N 1.00405 0.22091 0.35966 0.0
N1580 N 0.05508 0.25301 0.3415 0.0
C1581 C 0.06064 0.25285 0.35976 0.0
C1582 C 0.03301 0.23541 0.36964 0.0
C1583 C 0.74875 0.77805 0.38747 0.0
C1584 C 0.78168 0.80126 0.38891 0.0
C1585 C 0.72559 0.78389 0.37897 0.0
C1586 C 0.73462 0.81306 0.37155 0.0
H1587 H 0.74095 0.75491 0.39245 0.0
H1588 H 0.7006 0.76511 0.37775 0.0
S1589 S 0.81714 0.88333 0.37441 0.0
N1590 N 0.82162 0.8557 0.38407 0.0
N1591 N 0.77838 0.86656 0.36802 0.0
C1592 C 0.76731 0.83691 0.37367 0.0
C1593 C 0.79075 0.83104 0.38237 0.0
C1594 C 0.2145 0.96579 0.3857 0.0
C1595 C 0.23243 0.99121 0.37511 0.0
C1596 C 0.20298 0.93418 0.37897 0.0
C1597 C 0.20881 0.92679 0.36136 0.0
H1598 H 0.20873 0.9703 0.39918 0.0
H1599 H 0.18883 0.91542 0.38755 0.0
S1600 S 0.2569 0.98502 0.3288 0.0
N1601 N 0.25725 0.00721 0.34666 0.0
N1602 N 0.23534 0.94772 0.33382 0.0
C1603 C 0.22732 0.95207 0.35075 0.0
C1604 C 0.23915 0.9843 0.35767 0.0
C1605 C 0.55079 0.69527 0.31423 0.0
C1606 C 0.56168 0.67697 0.30492 0.0
C1607 C 0.57224 0.72644 0.32159 0.0
C1608 C 0.60553 0.74068 0.31993 0.0
H1609 H 0.52537 0.68549 0.31575 0.0
H1610 H 0.56248 0.73941 0.32864 0.0
S1611 S 0.64637 0.70253 0.29699 0.0
N1612 N 0.60786 0.67495 0.29459 0.0
N1613 N 0.64838 0.73385 0.30824 0.0
C1614 C 0.61677 0.72272 0.31048 0.0
C1615 C 0.59482 0.69082 0.30302 0.0
C1616 C 0.29439 0.88187 0.29778 0.0
C1617 C 0.30986 0.86417 0.30082 0.0
C1618 C 0.26613 0.87501 0.30602 0.0
C1619 C 0.2527 0.85069 0.31791 0.0
H1620 H 0.30453 0.90164 0.28931 0.0
H1621 H 0.25509 0.8893 0.3034 0.0
S1622 S 0.28077 0.79456 0.32863 0.0
N1623 N 0.30688 0.81858 0.315 0.0
N1624 N 0.25506 0.80728 0.33122 0.0
C1625 C 0.26725 0.83234 0.32075 0.0
C1626 C 0.29548 0.83867 0.31203 0.0
C1627 C 0.09469 0.39025 0.30752 0.0
C1628 C 0.11335 0.4234 0.30681 0.0
C1629 C 0.10661 0.37361 0.31708 0.0
C1630 C 0.13763 0.3895 0.32632 0.0
H1631 H 0.07066 0.37706 0.30066 0.0
H1632 H 0.09138 0.34802 0.31711 0.0
S1633 S 0.19664 0.47613 0.32787 0.0
N1634 N 0.16473 0.4715 0.31561 0.0
N1635 N 0.18704 0.44031 0.33377 0.0
C1636 C 0.15648 0.42273 0.32581 0.0
C1637 C 0.14437 0.43965 0.31599 0.0
C1638 C 0.31563 0.41864 0.31843 0.0
C1639 C 0.31218 0.42382 0.3 0.0
C1640 C 0.28883 0.40378 0.32871 0.0
C1641 C 0.25759 0.3937 0.32096 0.0
H1642 H 0.33921 0.42579 0.32491 0.0
H1643 H 0.2926 0.39967 0.3427 0.0
S1644 S 0.23615 0.40456 0.27359 0.0
N1645 N 0.27547 0.41963 0.27478 0.0
N1646 N 0.22522 0.39181 0.29381 0.0
C1647 C 0.25402 0.39951 0.3026 0.0
C1648 C 0.28125 0.41448 0.29219 0.0
C1649 C 0.58078 0.86052 0.28899 0.0
C1650 C 0.56929 0.87901 0.29749 0.0
C1651 C 0.59981 0.85114 0.29891 0.0
C1652 C 0.60816 0.85978 0.31781 0.0
H1653 H 0.57453 0.85271 0.27457 0.0
H1654 H 0.60775 0.83668 0.29167 0.0
S1655 S 0.58611 0.91014 0.3463 0.0
N1656 N 0.56911 0.90718 0.32572 0.0
N1657 N 0.60447 0.88923 0.34445 0.0
C1658 C 0.59717 0.87866 0.32645 0.0
C1659 C 0.57787 0.88833 0.31629 0.0
C1660 C 0.14157 0.69216 0.32095 0.0
C1661 C 0.11011 0.67232 0.31286 0.0
C1662 C 0.15276 0.72415 0.32658 0.0
C1663 C 0.1329 0.73754 0.32431 0.0
H1664 H 0.15796 0.68309 0.32254 0.0
H1665 H 0.17736 0.73857 0.33251 0.0
S1666 S 0.04759 0.69474 0.3051 0.0
N1667 N 0.05859 0.66756 0.30377 0.0
N1668 N 0.0796 0.72788 0.3142 0.0
C1669 C 0.10112 0.71774 0.31653 0.0
C1670 C 0.08973 0.68509 0.31085 0.0
C1671 C 0.77049 0.97796 0.36787 0.0
C1672 C 0.78426 0.98228 0.38581 0.0
C1673 C 0.74596 0.94798 0.36038 0.0
C1674 C 0.73425 0.9212 0.37057 0.0
H1675 H 0.7786 0.99799 0.35961 0.0
H1676 H 0.73607 0.94585 0.34651 0.0
S1677 S 0.76384 0.91971 0.41786 0.0
N1678 N 0.78553 0.95729 0.41336 0.0
N1679 N 0.73925 0.90083 0.39937 0.0
C1680 C 0.74797 0.9252 0.38853 0.0
C1681 C 0.77301 0.95577 0.39613 0.0
C1682 C 0.04753 0.78083 0.39019 0.0
C1683 C 0.03482 0.8013 0.39156 0.0
C1684 C 0.07267 0.78694 0.37918 0.0
C1685 C 0.08619 0.81373 0.36892 0.0
H1686 H 0.03771 0.75959 0.39751 0.0
H1687 H 0.08148 0.77033 0.37869 0.0
S1688 S 0.06327 0.87615 0.36868 0.0
N1689 N 0.03899 0.85059 0.38243 0.0
N1690 N 0.08574 0.86165 0.36148 0.0
C1691 C 0.07386 0.83454 0.37021 0.0
C1692 C 0.04837 0.82845 0.38157 0.0
C1693 C 0.20485 0.22764 0.37215 0.0
C1694 C 0.23281 0.24278 0.38443 0.0
C1695 C 0.19372 0.24537 0.36297 0.0
C1696 C 0.21 0.27871 0.36594 0.0
H1697 H 0.19081 0.20186 0.37011 0.0
H1698 H 0.17151 0.23289 0.35418 0.0
S1699 S 0.28612 0.33016 0.39472 0.0
N1700 N 0.27823 0.29346 0.39735 0.0
N1701 N 0.25638 0.32647 0.38072 0.0
C1702 C 0.23847 0.2942 0.37756 0.0
C1703 C 0.25011 0.27632 0.38666 0.0
C1704 C 0.7307 0.58728 0.72821 0.0
C1705 C 0.7001 0.57711 0.71958 0.0
C1706 C 0.75828 0.60218 0.71874 0.0
C1707 C 0.75662 0.60779 0.70019 0.0
H1708 H 0.73336 0.58344 0.74241 0.0
H1709 H 0.78122 0.60962 0.7262 0.0
S1710 S 0.68199 0.58609 0.67136 0.0
N1711 N 0.66943 0.57364 0.69145 0.0
N1712 N 0.72148 0.60193 0.67358 0.0
C1713 C 0.72606 0.59742 0.6913 0.0
C1714 C 0.6978 0.58206 0.701 0.0
C1715 C 0.45996 0.16142 0.7129 0.0
C1716 C 0.45044 0.1337 0.72205 0.0
C1717 C 0.43731 0.16774 0.70439 0.0
C1718 C 0.40404 0.14676 0.70473 0.0
H1719 H 0.48526 0.17848 0.71228 0.0
H1720 H 0.44607 0.1894 0.69751 0.0
S1721 S 0.36623 0.07059 0.72669 0.0
N1722 N 0.40527 0.08479 0.73072 0.0
N1723 N 0.36264 0.09702 0.7151 0.0
C1724 C 0.39408 0.11918 0.7141 0.0
C1725 C 0.41724 0.11259 0.72266 0.0
C1726 C 0.87508 0.29269 0.72122 0.0
C1727 C 0.89271 0.31855 0.71087 0.0
C1728 C 0.8648 0.26141 0.71432 0.0
C1729 C 0.87178 0.25492 0.69681 0.0
H1730 H 0.86851 0.2966 0.73458 0.0
H1731 H 0.85071 0.24218 0.72264 0.0
S1732 S 0.92032 0.3149 0.66515 0.0
N1733 N 0.91887 0.33611 0.68295 0.0
N1734 N 0.89952 0.27733 0.66982 0.0
C1735 C 0.8903 0.28076 0.68656 0.0
C1736 C 0.90075 0.31258 0.69362 0.0
C1737 C 0.21987 0.03595 0.64579 0.0
C1738 C 0.22969 0.01657 0.63666 0.0
C1739 C 0.24231 0.06648 0.65362 0.0
C1740 C 0.27556 0.07898 0.65261 0.0
H1741 H 0.19455 0.02748 0.64687 0.0
H1742 H 0.23336 0.08034 0.66052 0.0
S1743 S 0.31375 0.03759 0.63022 0.0
N1744 N 0.27477 0.01172 0.62707 0.0
N1745 N 0.3172 0.06949 0.64161 0.0
C1746 C 0.28575 0.06001 0.64326 0.0
C1747 C 0.26277 0.02874 0.63533 0.0
C1748 C 0.95095 0.18694 0.62565 0.0
C1749 C 0.98109 0.20438 0.63575 0.0
C1750 C 0.92224 0.17814 0.6339 0.0
C1751 C 0.92246 0.18637 0.65262 0.0
H1752 H 0.94948 0.17925 0.61138 0.0
H1753 H 0.89967 0.1643 0.62556 0.0
S1754 S 0.99548 0.23524 0.68453 0.0
N1755 N 0.00959 0.23194 0.66505 0.0
N1756 N 0.95593 0.21522 0.68058 0.0
C1757 C 0.95258 0.20471 0.6627 0.0
C1758 C 0.98175 0.21376 0.65427 0.0
C1759 C 0.81288 0.76846 0.64328 0.0
C1760 C 0.78005 0.75238 0.63694 0.0
C1761 C 0.8261 0.75304 0.65296 0.0
C1762 C 0.80674 0.72132 0.65684 0.0
H1763 H 0.82858 0.79295 0.64042 0.0
H1764 H 0.85163 0.76582 0.65721 0.0
S1765 S 0.71961 0.66887 0.64381 0.0
N1766 N 0.72852 0.70308 0.63556 0.0
N1767 N 0.75357 0.6742 0.65389 0.0
C1768 C 0.77396 0.70504 0.65083 0.0
C1769 C 0.76052 0.72057 0.64082 0.0
C1770 C 0.9668 0.73184 0.63413 0.0
C1771 C 0.97864 0.76459 0.6331 0.0
C1772 C 0.94192 0.71407 0.64509 0.0
C1773 C 0.92787 0.7283 0.65552 0.0
H1774 H 0.97698 0.71985 0.6265 0.0
H1775 H 0.93351 0.68883 0.64525 0.0
S1776 S 0.9491 0.81306 0.65686 0.0
N1777 N 0.97371 0.81043 0.64294 0.0
N1778 N 0.92717 0.77705 0.6637 0.0
C1779 C 0.93958 0.76109 0.65469 0.0
C1780 C 0.96486 0.7792 0.64344 0.0
C1781 C 0.24562 0.21935 0.6487 0.0
C1782 C 0.2372 0.21085 0.62984 0.0
C1783 C 0.26571 0.21081 0.65834 0.0
C1784 C 0.2781 0.19334 0.64951 0.0
H1785 H 0.23701 0.23314 0.65602 0.0
H1786 H 0.27183 0.21831 0.67279 0.0
S1787 S 0.26061 0.1627 0.6005 0.0
N1788 N 0.24101 0.18228 0.60291 0.0
N1789 N 0.27866 0.16625 0.62084 0.0
C1790 C 0.26922 0.18413 0.63068 0.0
C1791 C 0.24883 0.19287 0.6209 0.0
C1792 C 0.79268 0.02854 0.6319 0.0
C1793 C 0.78268 0.00434 0.64397 0.0
C1794 C 0.80323 0.06014 0.63827 0.0
C1795 C 0.80484 0.06865 0.65693 0.0
H1796 H 0.7929 0.02319 0.61746 0.0
H1797 H 0.81082 0.07813 0.62859 0.0
S1798 S 0.77896 0.01458 0.69399 0.0
N1799 N 0.77263 0.99105 0.67537 0.0
N1800 N 0.7942 0.05093 0.68733 0.0
C1801 C 0.79472 0.04494 0.66914 0.0
C1802 C 0.78323 0.01263 0.66266 0.0
C1803 C 0.43704 0.31731 0.69915 0.0
C1804 C 0.45069 0.32333 0.71725 0.0
C1805 C 0.4142 0.2864 0.69196 0.0
C1806 C 0.40403 0.26032 0.70262 0.0
H1807 H 0.44395 0.33669 0.69048 0.0
H1808 H 0.40438 0.28301 0.67793 0.0
S1809 S 0.43364 0.26327 0.75063 0.0
N1810 N 0.45337 0.30066 0.74552 0.0
N1811 N 0.41003 0.24252 0.73213 0.0
C1812 C 0.41748 0.26602 0.72078 0.0
C1813 C 0.44089 0.29753 0.72807 0.0
C1814 C 0.71333 0.15215 0.71429 0.0
C1815 C 0.69992 0.12548 0.72467 0.0
C1816 C 0.73842 0.15809 0.70316 0.0
C1817 C 0.75125 0.13769 0.70199 0.0
H1818 H 0.70479 0.16896 0.71502 0.0
H1819 H 0.74839 0.17931 0.69582 0.0
S1820 S 0.72265 0.06287 0.72498 0.0
N1821 N 0.69992 0.07723 0.73188 0.0
N1822 N 0.74714 0.08853 0.71138 0.0
C1823 C 0.73753 0.11053 0.71197 0.0
C1824 C 0.71194 0.10443 0.7232 0.0
C1825 C 0.8777 0.58486 0.7262 0.0
C1826 C 0.89207 0.56985 0.71687 0.0
C1827 C 0.86711 0.60296 0.71716 0.0
C1828 C 0.86982 0.60613 0.69839 0.0
H1829 H 0.87468 0.58273 0.74065 0.0
H1830 H 0.85681 0.6147 0.72493 0.0
S1831 S 0.906 0.57254 0.66761 0.0
N1832 N 0.90924 0.56035 0.68773 0.0
N1833 N 0.88774 0.59335 0.67066 0.0
C1834 C 0.88336 0.59084 0.68872 0.0
C1835 C 0.89485 0.5729 0.69799 0.0
C1836 C 0.50206 0.99271 0.16602 0.0
C1837 C 0.47118 0.96625 0.16725 0.0
C1838 C 0.51168 0.00633 0.14942 0.0
C1839 C 0.49097 0.99391 0.13326 0.0
H1840 H 0.51893 0.00316 0.17805 0.0
H1841 H 0.53577 0.02647 0.14919 0.0
S1842 S 0.40743 0.92508 0.12899 0.0
N1843 N 0.41988 0.92818 0.15071 0.0
N1844 N 0.43778 0.95398 0.11965 0.0
C1845 C 0.45995 0.96758 0.13429 0.0
C1846 C 0.45009 0.95378 0.15122 0.0
C1847 C 0.98509 0.47042 0.16552 0.0
C1848 C 0.013 0.49892 0.17223 0.0
C1849 C 0.97442 0.46457 0.14689 0.0
C1850 C 0.99166 0.48684 0.13442 0.0
H1851 H 0.97094 0.45303 0.1748 0.0
H1852 H 0.95251 0.44259 0.14221 0.0
S1853 S 0.06692 0.56451 0.14522 0.0
N1854 N 0.05818 0.54908 0.16505 0.0
N1855 N 0.0382 0.53818 0.13008 0.0
C1856 C 0.02002 0.51505 0.14096 0.0
C1857 C 0.03068 0.52107 0.15987 0.0
C1858 C 0.47782 0.51998 0.15215 0.0
C1859 C 0.47334 0.49854 0.16539 0.0
C1860 C 0.48459 0.51479 0.13442 0.0
C1861 C 0.48746 0.4881 0.12926 0.0
H1862 H 0.47702 0.54148 0.15571 0.0
H1863 H 0.48897 0.53257 0.12492 0.0
S1864 S 0.47524 0.42344 0.15834 0.0
N1865 N 0.47031 0.44863 0.17184 0.0
N1866 N 0.48288 0.43871 0.13841 0.0
C1867 C 0.48166 0.46575 0.14212 0.0
C1868 C 0.47454 0.47095 0.16018 0.0
C1869 C 0.9803 0.47013 0.86261 0.0
C1870 C 0.99364 0.49466 0.85082 0.0
C1871 C 0.99028 0.47587 0.88124 0.0
C1872 C 0.01373 0.50643 0.88884 0.0
H1873 H 0.96212 0.44616 0.85736 0.0
H1874 H 0.9797 0.45621 0.88978 0.0
S1875 S 0.05616 0.5789 0.86409 0.0
N1876 N 0.03164 0.55074 0.84815 0.0
N1877 N 0.04988 0.56163 0.88341 0.0
C1878 C 0.02672 0.5314 0.87739 0.0
C1879 C 0.01677 0.52551 0.85832 0.0
C1880 C 0.54771 0.51791 0.86479 0.0
C1881 C 0.52723 0.51471 0.84956 0.0
C1882 C 0.54001 0.52141 0.88263 0.0
C1883 C 0.5117 0.5221 0.88583 0.0
H1884 H 0.56886 0.51594 0.86293 0.0
H1885 H 0.55584 0.52268 0.89402 0.0
S1886 S 0.45138 0.51679 0.85031 0.0
N1887 N 0.47866 0.51436 0.83867 0.0
N1888 N 0.46399 0.52068 0.87206 0.0
C1889 C 0.49193 0.5205 0.87061 0.0
C1890 C 0.49973 0.51685 0.85252 0.0
C1891 C 0.49747 0.00726 0.85724 0.0
C1892 C 0.5273 0.03433 0.85479 0.0
C1893 C 0.49109 0.99354 0.87398 0.0
C1894 C 0.51413 0.00646 0.88914 0.0
H1895 H 0.47871 0.99665 0.84609 0.0
H1896 H 0.46757 0.97306 0.87519 0.0
S1897 S 0.59658 0.07638 0.88987 0.0
N1898 N 0.58051 0.073 0.86894 0.0
N1899 N 0.5686 0.04718 0.90037 0.0
C1900 C 0.54431 0.03316 0.88683 0.0
C1901 C 0.55091 0.04701 0.86968 0.0
C1902 C 0.14309 0.33361 0.49789 0.0
C1903 C 0.14537 0.30712 0.50281 0.0
C1904 C 0.15312 0.34674 0.48117 0.0
C1905 C 0.16558 0.33377 0.46858 0.0
H1906 H 0.13399 0.34466 0.50718 0.0
H1907 H 0.15083 0.36709 0.47803 0.0
S1908 S 0.176 0.26394 0.47469 0.0
N1909 N 0.16022 0.26782 0.49339 0.0
N1910 N 0.17979 0.2929 0.46238 0.0
C1911 C 0.16776 0.30713 0.4733 0.0
C1912 C 0.15754 0.29377 0.49028 0.0
C1913 C 0.67856 0.8144 0.49442 0.0
C1914 C 0.66114 0.82091 0.50704 0.0
C1915 C 0.66952 0.80992 0.47563 0.0
C1916 C 0.64261 0.81155 0.46881 0.0
H1917 H 0.70006 0.814 0.49904 0.0
H1918 H 0.68401 0.80564 0.46634 0.0
S1919 S 0.58781 0.82591 0.49635 0.0
N1920 N 0.61468 0.82683 0.51157 0.0
N1921 N 0.59803 0.81907 0.47625 0.0
C1922 C 0.62433 0.81691 0.48136 0.0
C1923 C 0.63355 0.82148 0.50047 0.0
C1924 C 0.17304 0.83526 0.49602 0.0
C1925 C 0.14329 0.83246 0.49948 0.0
C1926 C 0.17941 0.829 0.47841 0.0
C1927 C 0.1563 0.81971 0.46347 0.0
H1928 H 0.19195 0.84319 0.50698 0.0
H1929 H 0.20314 0.83272 0.47638 0.0
S1930 S 0.07349 0.80611 0.46548 0.0
N1931 N 0.08976 0.81801 0.48673 0.0
N1932 N 0.10145 0.80557 0.45356 0.0
C1933 C 0.12588 0.81542 0.46686 0.0
C1934 C 0.11939 0.82182 0.48488 0.0
C1935 C 0.68103 0.85253 0.19196 0.0
C1936 C 0.65599 0.82265 0.18438 0.0
C1937 C 0.69078 0.85788 0.2107 0.0
C1938 C 0.67558 0.83361 0.22248 0.0
H1939 H 0.69368 0.87162 0.18328 0.0
H1940 H 0.71035 0.88114 0.21601 0.0
S1941 S 0.60787 0.75157 0.2094 0.0
N1942 N 0.61532 0.76895 0.19012 0.0
N1943 N 0.63401 0.77877 0.22523 0.0
C1944 C 0.65009 0.80384 0.21509 0.0
C1945 C 0.64022 0.79842 0.19606 0.0
C1946 C 0.21582 0.85219 0.19817 0.0
C1947 C 0.19343 0.84452 0.18307 0.0
C1948 C 0.20872 0.85731 0.21592 0.0
C1949 C 0.17906 0.85513 0.21917 0.0
H1950 H 0.23819 0.85253 0.1964 0.0
H1951 H 0.22617 0.86203 0.22725 0.0
S1952 S 0.11359 0.8384 0.18383 0.0
N1953 N 0.14168 0.83753 0.17224 0.0
N1954 N 0.12799 0.84643 0.20546 0.0
C1955 C 0.15729 0.84917 0.20399 0.0
C1956 C 0.16455 0.84402 0.18599 0.0
C1957 C 0.19104 0.39014 0.20564 0.0
C1958 C 0.19894 0.37667 0.19077 0.0
C1959 C 0.18406 0.37603 0.22227 0.0
C1960 C 0.18456 0.34773 0.22479 0.0
H1961 H 0.18996 0.41171 0.20436 0.0
H1962 H 0.17811 0.38738 0.23325 0.0
S1963 S 0.20288 0.30229 0.18998 0.0
N1964 N 0.20653 0.33316 0.17963 0.0
N1965 N 0.19323 0.30652 0.21075 0.0
C1966 C 0.19285 0.33423 0.2101 0.0
C1967 C 0.20008 0.3487 0.19317 0.0
C1968 C 0.82281 0.62611 0.82314 0.0
C1969 C 0.8114 0.63934 0.83624 0.0
C1970 C 0.83241 0.63952 0.80647 0.0
C1971 C 0.83101 0.66675 0.80217 0.0
H1972 H 0.82395 0.60491 0.82568 0.0
H1973 H 0.84054 0.62816 0.79674 0.0
S1974 S 0.80582 0.71235 0.83244 0.0
N1975 N 0.80118 0.68247 0.84417 0.0
N1976 N 0.81912 0.70757 0.81295 0.0
C1977 C 0.82015 0.68052 0.81528 0.0
C1978 C 0.81039 0.66688 0.83224 0.0
C1979 C 0.30667 0.16077 0.83295 0.0
C1980 C 0.33288 0.15828 0.84011 0.0
C1981 C 0.29822 0.15645 0.81412 0.0
C1982 C 0.31576 0.14963 0.80173 0.0
H1983 H 0.29295 0.16671 0.84197 0.0
H1984 H 0.27847 0.15955 0.8092 0.0
S1985 S 0.38526 0.13875 0.81352 0.0
N1986 N 0.37567 0.14749 0.83338 0.0
N1987 N 0.35926 0.1386 0.79798 0.0
C1988 C 0.34132 0.14598 0.80873 0.0
C1989 C 0.34995 0.15039 0.82792 0.0
C1990 C 0.84033 0.16461 0.83015 0.0
C1991 C 0.8102 0.16089 0.83363 0.0
C1992 C 0.84691 0.15862 0.81254 0.0
C1993 C 0.82366 0.14865 0.79762 0.0
H1994 H 0.85934 0.17308 0.84109 0.0
H1995 H 0.8709 0.16308 0.81051 0.0
S1996 S 0.73995 0.1325 0.79966 0.0
N1997 N 0.75621 0.14484 0.8209 0.0
N1998 N 0.76833 0.13285 0.78775 0.0
C1999 C 0.7929 0.14342 0.80102 0.0
C2000 C 0.78619 0.14957 0.81903 0.0
C2001 C 0.31736 0.13489 0.52944 0.0
C2002 C 0.32958 0.15978 0.51785 0.0
C2003 C 0.32763 0.14044 0.54806 0.0
C2004 C 0.35054 0.17113 0.55586 0.0
H2005 H 0.2997 0.11081 0.52407 0.0
H2006 H 0.31792 0.12038 0.55634 0.0
S2007 S 0.38915 0.24477 0.53162 0.0
N2008 N 0.36556 0.21639 0.51555 0.0
N2009 N 0.38415 0.22706 0.55073 0.0
C2010 C 0.36254 0.19639 0.54452 0.0
C2011 C 0.35214 0.1907 0.5255 0.0
C2012 C 0.88246 0.18198 0.53227 0.0
C2013 C 0.86047 0.17537 0.51713 0.0
C2014 C 0.87517 0.18652 0.55005 0.0
C2015 C 0.84574 0.18483 0.55328 0.0
H2016 H 0.90465 0.18195 0.53045 0.0
H2017 H 0.8923 0.19048 0.5614 0.0
S2018 S 0.78127 0.17064 0.5179 0.0
N2019 N 0.80927 0.16965 0.50628 0.0
N2020 N 0.79527 0.17762 0.53957 0.0
C2021 C 0.82434 0.17984 0.53809 0.0
C2022 C 0.83178 0.17524 0.52006 0.0
C2023 C 0.85059 0.71627 0.53574 0.0
C2024 C 0.86248 0.70527 0.52169 0.0
C2025 C 0.84424 0.7026 0.55249 0.0
C2026 C 0.84967 0.67742 0.55605 0.0
H2027 H 0.84582 0.7355 0.53371 0.0
H2028 H 0.83484 0.71179 0.56274 0.0
S2029 S 0.88034 0.63945 0.52396 0.0
N2030 N 0.87929 0.66737 0.51256 0.0
N2031 N 0.86773 0.642 0.54412 0.0
C2032 C 0.86224 0.6666 0.54234 0.0
C2033 C 0.86857 0.68044 0.52518 0.0
loop_
_geom_bond_atom_site_label_1
_geom_bond_atom_site_label_2
_geom_bond_distance
_geom_bond_site_symmetry_2
_ccdc_geom_bond_type
C0 C1 1.391 . S
C0 C4 1.391 . S
C0 H42 0.948 . S
C1 C0 1.391 . S
C1 C2 1.391 . S
C2 C1 1.391 . S
C2 H58 0.947 . S
C2 C59 1.392 . S
C3 C4 1.391 . S
C3 C7 1.397 . S
C3 C59 1.419 . S
C4 C0 1.391 . S
C4 C3 1.391 . S
C4 C5 1.399 . S
C5 C4 1.399 . S
C5 C8 1.396 . S
C5 C17 1.453 . S
C5 C18 1.684 . S
H6 C30 0.948 . S
C7 C3 1.397 . S
C7 C8 1.394 . S
C7 C26 1.723 . S
C8 C5 1.396 . S
C8 C7 1.394 . S
C8 C38 1.723 . S
H9 C32 0.947 . S
H10 C33 0.948 . S
H11 C39 0.982 . S
H12 C40 0.979 . S
H13 C40 0.980 . S
H14 C40 0.983 . S
H15 C39 0.979 . S
H16 C39 0.977 . S
C17 C5 1.453 . S
C17 H46 0.982 . S
C17 H47 0.979 . S
C17 H48 0.977 . S
C18 C5 1.684 . S
C18 H43 0.979 . S
C18 H44 0.980 . S
C18 H45 0.983 . S
C19 C20 1.391 . S
C19 C24 1.391 . S
C19 H49 0.948 . S
C20 C19 1.391 . S
C20 C21 1.391 . S
C21 C20 1.391 . S
C21 C22 1.392 . S
C21 H50 0.947 . S
C22 C21 1.392 . S
C22 C23 1.419 . S
C22 H51 0.948 . S
C23 C22 1.419 . S
C23 C24 1.391 . S
C23 C27 1.397 . S
C24 C19 1.391 . S
C24 C23 1.391 . S
C24 C25 1.399 . S
C25 C24 1.399 . S
C25 C26 1.396 . S
C25 C28 1.453 . S
C25 C29 1.684 . S
C26 C7 1.723 . S
C26 C25 1.396 . S
C26 C27 1.394 . S
C27 C23 1.397 . S
C27 C26 1.394 . S
C27 C37 1.723 . S
C28 C25 1.453 . S
C28 H52 0.982 . S
C28 H53 0.979 . S
C28 H54 0.977 . S
C29 C25 1.684 . S
C29 H55 0.979 . S
C29 H56 0.980 . S
C29 H57 0.983 . S
C30 H6 0.948 . S
C30 C31 1.391 . S
C30 C35 1.391 . S
C31 C30 1.391 . S
C31 C32 1.391 . S
C32 H9 0.947 . S
C32 C31 1.391 . S
C32 C33 1.392 . S
C33 H10 0.948 . S
C33 C32 1.392 . S
C33 C34 1.419 . S
C34 C33 1.419 . S
C34 C35 1.391 . S
C34 C38 1.397 . S
C35 C30 1.391 . S
C35 C34 1.391 . S
C35 C36 1.399 . S
C36 C35 1.399 . S
C36 C37 1.396 . S
C36 C39 1.453 . S
C36 C40 1.684 . S
C37 C27 1.723 . S
C37 C36 1.396 . S
C37 C38 1.394 . S
C38 C8 1.723 . S
C38 C34 1.397 . S
C38 C37 1.394 . S
C39 H11 0.982 . S
C39 H15 0.979 . S
C39 H16 0.977 . S
C39 C36 1.453 . S
C40 H12 0.979 . S
C40 H13 0.980 . S
C40 H14 0.983 . S
C40 C36 1.684 . S
H41 C59 0.948 . S
H42 C0 0.948 . S
H43 C18 0.979 . S
H44 C18 0.980 . S
H45 C18 0.983 . S
H46 C17 0.982 . S
H47 C17 0.979 . S
H48 C17 0.977 . S
H49 C19 0.948 . S
H50 C21 0.947 . S
H51 C22 0.948 . S
H52 C28 0.982 . S
H53 C28 0.979 . S
H54 C28 0.977 . S
H55 C29 0.979 . S
H56 C29 0.980 . S
H57 C29 0.983 . S
H58 C2 0.947 . S
C59 C2 1.392 . S
C59 C3 1.419 . S
C59 H41 0.948 . S
C60 C61 1.391 . S
C60 C64 1.391 . S
C60 H102 0.948 . S
C61 C60 1.391 . S
C61 C62 1.391 . S
C62 C61 1.391 . S
C62 H118 0.947 . S
C62 C119 1.392 . S
C63 C64 1.391 . S
C63 C67 1.397 . S
C63 C119 1.419 . S
C64 C60 1.391 . S
C64 C63 1.391 . S
C64 C65 1.399 . S
C65 C64 1.399 . S
C65 C68 1.396 . S
C65 C77 1.453 . S
C65 C78 1.684 . S
H66 C90 0.948 . S
C67 C63 1.397 . S
C67 C68 1.394 . S
C67 C86 1.723 . S
C68 C65 1.396 . S
C68 C67 1.394 . S
C68 C98 1.723 . S
H69 C92 0.947 . S
H70 C93 0.948 . S
H71 C99 0.982 . S
H72 C100 0.979 . S
H73 C100 0.980 . S
H74 C100 0.983 . S
H75 C99 0.979 . S
H76 C99 0.977 . S
C77 C65 1.453 . S
C77 H106 0.982 . S
C77 H107 0.979 . S
C77 H108 0.977 . S
C78 C65 1.684 . S
C78 H103 0.979 . S
C78 H104 0.980 . S
C78 H105 0.983 . S
C79 C80 1.391 . S
C79 C84 1.391 . S
C79 H109 0.948 . S
C80 C79 1.391 . S
C80 C81 1.391 . S
C81 C80 1.391 . S
C81 C82 1.392 . S
C81 H110 0.947 . S
C82 C81 1.392 . S
C82 C83 1.419 . S
C82 H111 0.948 . S
C83 C82 1.419 . S
C83 C84 1.391 . S
C83 C87 1.397 . S
C84 C79 1.391 . S
C84 C83 1.391 . S
C84 C85 1.399 . S
C85 C84 1.399 . S
C85 C86 1.396 . S
C85 C88 1.453 . S
C85 C89 1.684 . S
C86 C67 1.723 . S
C86 C85 1.396 . S
C86 C87 1.394 . S
C87 C83 1.397 . S
C87 C86 1.394 . S
C87 C97 1.723 . S
C88 C85 1.453 . S
C88 H112 0.982 . S
C88 H113 0.979 . S
C88 H114 0.977 . S
C89 C85 1.684 . S
C89 H115 0.979 . S
C89 H116 0.980 . S
C89 H117 0.983 . S
C90 H66 0.948 . S
C90 C91 1.391 . S
C90 C95 1.391 . S
C91 C90 1.391 . S
C91 C92 1.391 . S
C92 H69 0.947 . S
C92 C91 1.391 . S
C92 C93 1.392 . S
C93 H70 0.948 . S
C93 C92 1.392 . S
C93 C94 1.419 . S
C94 C93 1.419 . S
C94 C95 1.391 . S
C94 C98 1.397 . S
C95 C90 1.391 . S
C95 C94 1.391 . S
C95 C96 1.399 . S
C96 C95 1.399 . S
C96 C97 1.396 . S
C96 C99 1.453 . S
C96 C100 1.684 . S
C97 C87 1.723 . S
C97 C96 1.396 . S
C97 C98 1.394 . S
C98 C68 1.723 . S
C98 C94 1.397 . S
C98 C97 1.394 . S
C99 H71 0.982 . S
C99 H75 0.979 . S
C99 H76 0.977 . S
C99 C96 1.453 . S
C100 H72 0.979 . S
C100 H73 0.980 . S
C100 H74 0.983 . S
C100 C96 1.684 . S
H101 C119 0.948 . S
H102 C60 0.948 . S
H103 C78 0.979 . S
H104 C78 0.980 . S
H105 C78 0.983 . S
H106 C77 0.982 . S
H107 C77 0.979 . S
H108 C77 0.977 . S
H109 C79 0.948 . S
H110 C81 0.947 . S
H111 C82 0.948 . S
H112 C88 0.982 . S
H113 C88 0.979 . S
H114 C88 0.977 . S
H115 C89 0.979 . S
H116 C89 0.980 . S
H117 C89 0.983 . S
H118 C62 0.947 . S
C119 C62 1.392 . S
C119 C63 1.419 . S
C119 H101 0.948 . S
C120 C121 1.391 . S
C120 C124 1.391 . S
C120 H162 0.948 . S
C121 C120 1.391 . S
C121 C122 1.391 . S
C122 C121 1.391 . S
C122 H178 0.947 1_655 S
C122 C179 1.392 . S
C123 C124 1.391 . S
C123 C127 1.397 . S
C123 C179 1.419 . S
C124 C120 1.391 . S
C124 C123 1.391 . S
C124 C125 1.399 . S
C125 C124 1.399 . S
C125 C128 1.396 . S
C125 C137 1.453 . S
C125 C138 1.684 . S
H126 C150 0.948 . S
C127 C123 1.397 . S
C127 C128 1.394 . S
C127 C146 1.723 . S
C128 C125 1.396 . S
C128 C127 1.394 . S
C128 C158 1.723 . S
H129 C152 0.947 . S
H130 C153 0.948 . S
H131 C159 0.982 . S
H132 C160 0.979 . S
H133 C160 0.980 . S
H134 C160 0.983 . S
H135 C159 0.979 . S
H136 C159 0.977 . S
C137 C125 1.453 . S
C137 H166 0.982 . S
C137 H167 0.979 . S
C137 H168 0.977 . S
C138 C125 1.684 . S
C138 H163 0.979 . S
C138 H164 0.980 . S
C138 H165 0.983 . S
C139 C140 1.391 . S
C139 C144 1.391 . S
C139 H169 0.948 . S
C140 C139 1.391 . S
C140 C141 1.391 . S
C141 C140 1.391 . S
C141 C142 1.392 . S
C141 H170 0.947 . S
C142 C141 1.392 . S
C142 C143 1.419 . S
C142 H171 0.948 . S
C143 C142 1.419 . S
C143 C144 1.391 . S
C143 C147 1.397 . S
C144 C139 1.391 . S
C144 C143 1.391 . S
C144 C145 1.399 . S
C145 C144 1.399 . S
C145 C146 1.396 . S
C145 C148 1.453 . S
C145 C149 1.684 . S
C146 C127 1.723 . S
C146 C145 1.396 . S
C146 C147 1.394 . S
C147 C143 1.397 . S
C147 C146 1.394 . S
C147 C157 1.723 . S
C148 C145 1.453 . S
C148 H172 0.982 . S
C148 H173 0.979 . S
C148 H174 0.977 . S
C149 C145 1.684 . S
C149 H175 0.979 . S
C149 H176 0.980 . S
C149 H177 0.983 . S
C150 H126 0.948 . S
C150 C151 1.391 . S
C150 C155 1.391 . S
C151 C150 1.391 . S
C151 C152 1.391 . S
C152 H129 0.947 . S
C152 C151 1.391 . S
C152 C153 1.392 . S
C153 H130 0.948 . S
C153 C152 1.392 . S
C153 C154 1.419 . S
C154 C153 1.419 . S
C154 C155 1.391 . S
C154 C158 1.397 . S
C155 C150 1.391 . S
C155 C154 1.391 . S
C155 C156 1.399 . S
C156 C155 1.399 . S
C156 C157 1.396 . S
C156 C159 1.453 . S
C156 C160 1.684 . S
C157 C147 1.723 . S
C157 C156 1.396 . S
C157 C158 1.394 . S
C158 C128 1.723 . S
C158 C154 1.397 . S
C158 C157 1.394 . S
C159 H131 0.982 . S
C159 H135 0.979 . S
C159 H136 0.977 . S
C159 C156 1.453 . S
C160 H132 0.979 . S
C160 H133 0.980 . S
C160 H134 0.983 . S
C160 C156 1.684 . S
H161 C179 0.948 . S
H162 C120 0.948 . S
H163 C138 0.979 . S
H164 C138 0.980 . S
H165 C138 0.983 . S
H166 C137 0.982 . S
H167 C137 0.979 . S
H168 C137 0.977 . S
H169 C139 0.948 . S
H170 C141 0.947 . S
H171 C142 0.948 . S
H172 C148 0.982 . S
H173 C148 0.979 . S
H174 C148 0.977 . S
H175 C149 0.979 . S
H176 C149 0.980 . S
H177 C149 0.983 . S
H178 C122 0.947 1_455 S
C179 C122 1.392 . S
C179 C123 1.419 . S
C179 H161 0.948 . S
C180 C181 1.391 . S
C180 C184 1.391 . S
C180 H222 0.948 . S
C181 C180 1.391 . S
C181 C182 1.391 . S
C182 C181 1.391 . S
C182 H238 0.947 . S
C182 C239 1.392 . S
C183 C184 1.391 . S
C183 C187 1.397 . S
C183 C239 1.419 . S
C184 C180 1.391 . S
C184 C183 1.391 . S
C184 C185 1.399 . S
C185 C184 1.399 . S
C185 C188 1.396 . S
C185 C197 1.453 . S
C185 C198 1.684 . S
H186 C210 0.954 . S
C187 C183 1.397 . S
C187 C188 1.394 . S
C187 C206 1.723 . S
C188 C185 1.396 . S
C188 C187 1.394 . S
C188 C218 1.723 . S
H189 C212 0.947 . S
H190 C213 0.948 . S
H191 C219 0.982 . S
H192 C220 0.979 . S
H193 C220 0.980 . S
H194 C220 0.983 . S
H195 C219 0.979 . S
H196 C219 0.977 . S
C197 C185 1.453 . S
C197 H226 0.982 . S
C197 H227 0.979 . S
C197 H228 0.977 . S
C198 C185 1.684 . S
C198 H223 0.979 . S
C198 H224 0.980 . S
C198 H225 0.983 . S
C199 C200 1.391 . S
C199 C204 1.391 . S
C199 H229 0.948 . S
C200 C199 1.391 . S
C200 C201 1.391 . S
C201 C200 1.391 . S
C201 C202 1.392 . S
C201 H230 0.947 . S
C202 C201 1.392 . S
C202 C203 1.419 . S
C202 H231 0.948 . S
C203 C202 1.419 . S
C203 C204 1.391 . S
C203 C207 1.397 . S
C204 C199 1.391 . S
C204 C203 1.391 . S
C204 C205 1.399 . S
C205 C204 1.399 . S
C205 C206 1.396 . S
C205 C208 1.453 . S
C205 C209 1.684 . S
C206 C187 1.723 . S
C206 C205 1.396 . S
C206 C207 1.394 . S
C207 C203 1.397 . S
C207 C206 1.394 . S
C207 C217 1.723 . S
C208 C205 1.453 . S
C208 H232 0.982 . S
C208 H233 0.979 . S
C208 H234 0.977 . S
C209 C205 1.684 . S
C209 H235 0.979 . S
C209 H236 0.980 . S
C209 H237 0.983 . S
C210 H186 0.954 . S
C210 C211 1.391 . S
C210 C215 1.391 . S
C211 C210 1.391 . S
C211 C212 1.391 . S
C212 H189 0.947 . S
C212 C211 1.391 . S
C212 C213 1.392 . S
C213 H190 0.948 . S
C213 C212 1.392 . S
C213 C214 1.419 . S
C214 C213 1.419 . S
C214 C215 1.391 . S
C214 C218 1.397 . S
C215 C210 1.391 . S
C215 C214 1.391 . S
C215 C216 1.399 . S
C216 C215 1.399 . S
C216 C217 1.396 . S
C216 C219 1.453 . S
C216 C220 1.684 . S
C217 C207 1.723 . S
C217 C216 1.396 . S
C217 C218 1.394 . S
C218 C188 1.723 . S
C218 C214 1.397 . S
C218 C217 1.394 . S
C219 H191 0.982 . S
C219 H195 0.979 . S
C219 H196 0.977 . S
C219 C216 1.453 . S
C220 H192 0.979 . S
C220 H193 0.980 . S
C220 H194 0.983 . S
C220 C216 1.684 . S
H221 C239 0.948 . S
H222 C180 0.948 . S
H223 C198 0.979 . S
H224 C198 0.980 . S
H225 C198 0.983 . S
H226 C197 0.982 . S
H227 C197 0.979 . S
H228 C197 0.977 . S
H229 C199 0.948 . S
H230 C201 0.947 . S
H231 C202 0.948 . S
H232 C208 0.982 . S
H233 C208 0.979 . S
H234 C208 0.977 . S
H235 C209 0.979 . S
H236 C209 0.980 . S
H237 C209 0.983 . S
H238 C182 0.947 . S
C239 C182 1.392 . S
C239 C183 1.419 . S
C239 H221 0.948 . S
C240 C241 1.391 . S
C240 C244 1.391 . S
C240 H282 0.948 . S
C241 C240 1.391 . S
C241 C242 1.391 . S
C242 C241 1.391 . S
C242 H298 0.947 . S
C242 C299 1.392 . S
C243 C244 1.391 . S
C243 C247 1.397 . S
C243 C299 1.419 . S
C244 C240 1.391 . S
C244 C243 1.391 . S
C244 C245 1.399 . S
C245 C244 1.399 . S
C245 C248 1.396 . S
C245 C257 1.453 . S
C245 C258 1.684 . S
H246 C270 0.948 . S
C247 C243 1.397 . S
C247 C248 1.394 . S
C247 C266 1.723 . S
C248 C245 1.396 . S
C248 C247 1.394 . S
C248 C278 1.723 . S
H249 C272 0.947 . S
H250 C273 0.948 . S
H251 C279 0.982 . S
H252 C280 0.979 . S
H253 C280 0.980 . S
H254 C280 0.983 . S
H255 C279 0.979 . S
H256 C279 0.977 . S
C257 C245 1.453 . S
C257 H286 0.982 . S
C257 H287 0.979 . S
C257 H288 0.977 . S
C258 C245 1.684 . S
C258 H283 0.979 . S
C258 H284 0.980 . S
C258 H285 0.983 . S
C259 C260 1.391 . S
C259 C264 1.391 . S
C259 H289 0.948 . S
C260 C259 1.391 . S
C260 C261 1.391 . S
C261 C260 1.391 . S
C261 C262 1.392 . S
C261 H290 0.947 . S
C262 C261 1.392 . S
C262 C263 1.419 . S
C262 H291 0.948 . S
C263 C262 1.419 . S
C263 C264 1.391 . S
C263 C267 1.397 . S
C264 C259 1.391 . S
C264 C263 1.391 . S
C264 C265 1.399 . S
C265 C264 1.399 . S
C265 C266 1.396 . S
C265 C268 1.453 . S
C265 C269 1.684 . S
C266 C247 1.723 . S
C266 C265 1.396 . S
C266 C267 1.394 . S
C267 C263 1.397 . S
C267 C266 1.394 . S
C267 C277 1.723 . S
C268 C265 1.453 . S
C268 H292 0.982 . S
C268 H293 0.979 . S
C268 H294 0.977 . S
C269 C265 1.684 . S
C269 H295 0.979 . S
C269 H296 0.980 . S
C269 H297 0.983 . S
C270 H246 0.948 . S
C270 C271 1.391 . S
C270 C275 1.391 . S
C271 C270 1.391 . S
C271 C272 1.391 . S
C272 H249 0.947 . S
C272 C271 1.391 . S
C272 C273 1.392 . S
C273 H250 0.948 . S
C273 C272 1.392 . S
C273 C274 1.419 . S
C274 C273 1.419 . S
C274 C275 1.391 . S
C274 C278 1.397 . S
C275 C270 1.391 . S
C275 C274 1.391 . S
C275 C276 1.399 . S
C276 C275 1.399 . S
C276 C277 1.396 . S
C276 C279 1.453 . S
C276 C280 1.684 . S
C277 C267 1.723 . S
C277 C276 1.396 . S
C277 C278 1.394 . S
C278 C248 1.723 . S
C278 C274 1.397 . S
C278 C277 1.394 . S
C279 H251 0.982 . S
C279 H255 0.979 . S
C279 H256 0.977 . S
C279 C276 1.453 . S
C280 H252 0.979 . S
C280 H253 0.980 . S
C280 H254 0.983 . S
C280 C276 1.684 . S
H281 C299 0.948 . S
H282 C240 0.948 . S
H283 C258 0.979 . S
H284 C258 0.980 . S
H285 C258 0.983 . S
H286 C257 0.982 . S
H287 C257 0.979 . S
H288 C257 0.977 . S
H289 C259 0.948 . S
H290 C261 0.947 . S
H291 C262 0.948 . S
H292 C268 0.982 . S
H293 C268 0.979 . S
H294 C268 0.977 . S
H295 C269 0.979 . S
H296 C269 0.980 . S
H297 C269 0.983 . S
H298 C242 0.947 . S
C299 C242 1.392 . S
C299 C243 1.419 . S
C299 H281 0.948 . S
C300 C301 1.391 . S
C300 C304 1.391 . S
C300 H342 0.948 . S
C301 C300 1.391 . S
C301 C302 1.391 . S
C302 C301 1.391 . S
C302 H358 0.947 . S
C302 C359 1.392 . S
C303 C304 1.391 . S
C303 C307 1.397 . S
C303 C359 1.419 . S
C304 C300 1.391 . S
C304 C303 1.391 . S
C304 C305 1.399 . S
C305 C304 1.399 . S
C305 C308 1.396 . S
C305 C317 1.453 . S
C305 C318 1.684 . S
H306 C330 0.948 . S
C307 C303 1.397 . S
C307 C308 1.394 . S
C307 C326 1.723 . S
C308 C305 1.396 . S
C308 C307 1.394 . S
C308 C338 1.723 . S
H309 C332 0.947 . S
H310 C333 0.948 . S
H311 C339 0.982 . S
H312 C340 0.979 . S
H313 C340 0.980 . S
H314 C340 0.983 . S
H315 C339 0.979 . S
H316 C339 0.977 . S
C317 C305 1.453 . S
C317 H346 0.982 . S
C317 H347 0.979 . S
C317 H348 0.977 . S
C318 C305 1.684 . S
C318 H343 0.979 . S
C318 H344 0.980 . S
C318 H345 0.983 . S
C319 C320 1.391 . S
C319 C324 1.391 . S
C319 H349 0.948 . S
C320 C319 1.391 . S
C320 C321 1.391 . S
C321 C320 1.391 . S
C321 C322 1.392 . S
C321 H350 0.947 . S
C322 C321 1.392 . S
C322 C323 1.419 . S
C322 H351 0.948 . S
C323 C322 1.419 . S
C323 C324 1.391 . S
C323 C327 1.397 . S
C324 C319 1.391 . S
C324 C323 1.391 . S
C324 C325 1.399 . S
C325 C324 1.399 . S
C325 C326 1.396 . S
C325 C328 1.453 . S
C325 C329 1.684 . S
C326 C307 1.723 . S
C326 C325 1.396 . S
C326 C327 1.394 . S
C327 C323 1.397 . S
C327 C326 1.394 . S
C327 C337 1.723 . S
C328 C325 1.453 . S
C328 H352 0.982 . S
C328 H353 0.979 . S
C328 H354 0.977 . S
C329 C325 1.684 . S
C329 H355 0.979 . S
C329 H356 0.980 . S
C329 H357 0.983 . S
C330 H306 0.948 . S
C330 C331 1.391 . S
C330 C335 1.391 . S
C331 C330 1.391 . S
C331 C332 1.391 . S
C332 H309 0.947 . S
C332 C331 1.391 . S
C332 C333 1.392 . S
C333 H310 0.948 . S
C333 C332 1.392 . S
C333 C334 1.419 . S
C334 C333 1.419 . S
C334 C335 1.391 . S
C334 C338 1.397 . S
C335 C330 1.391 . S
C335 C334 1.391 . S
C335 C336 1.399 . S
C336 C335 1.399 . S
C336 C337 1.396 . S
C336 C339 1.453 . S
C336 C340 1.684 . S
C337 C327 1.723 . S
C337 C336 1.396 . S
C337 C338 1.394 . S
C338 C308 1.723 . S
C338 C334 1.397 . S
C338 C337 1.394 . S
C339 H311 0.982 . S
C339 H315 0.979 . S
C339 H316 0.977 . S
C339 C336 1.453 . S
C340 H312 0.979 . S
C340 H313 0.980 . S
C340 H314 0.983 . S
C340 C336 1.684 . S
H341 C359 0.948 . S
H342 C300 0.948 . S
H343 C318 0.979 . S
H344 C318 0.980 . S
H345 C318 0.983 . S
H346 C317 0.982 . S
H347 C317 0.979 . S
H348 C317 0.977 . S
H349 C319 0.948 . S
H350 C321 0.947 . S
H351 C322 0.948 . S
H352 C328 0.982 . S
H353 C328 0.979 . S
H354 C328 0.977 . S
H355 C329 0.979 . S
H356 C329 0.980 . S
H357 C329 0.983 . S
H358 C302 0.947 . S
C359 C302 1.392 . S
C359 C303 1.419 . S
C359 H341 0.948 . S
C360 C361 1.391 . S
C360 C364 1.391 . S
C360 H402 0.948 . S
C361 C360 1.391 . S
C361 C362 1.391 . S
C362 C361 1.391 . S
C362 H418 0.947 . S
C362 C419 1.392 . S
C363 C364 1.391 . S
C363 C367 1.397 . S
C363 C419 1.419 . S
C364 C360 1.391 . S
C364 C363 1.391 . S
C364 C365 1.399 . S
C365 C364 1.399 . S
C365 C368 1.396 . S
C365 C377 1.453 . S
C365 C378 1.684 . S
H366 C390 0.948 . S
C367 C363 1.397 . S
C367 C368 1.394 . S
C367 C386 1.723 . S
C368 C365 1.396 . S
C368 C367 1.394 . S
C368 C398 1.723 . S
H369 C392 0.947 . S
H370 C393 0.948 . S
H371 C399 0.982 1_455 S
H372 C400 0.979 . S
H373 C400 0.980 . S
H374 C400 0.983 . S
H375 C399 0.979 . S
H376 C399 0.977 . S
C377 C365 1.453 . S
C377 H406 0.982 . S
C377 H407 0.979 . S
C377 H408 0.977 . S
C378 C365 1.684 . S
C378 H403 0.979 . S
C378 H404 0.980 . S
C378 H405 0.983 . S
C379 C380 1.391 . S
C379 C384 1.391 . S
C379 H409 0.948 . S
C380 C379 1.391 . S
C380 C381 1.391 . S
C381 C380 1.391 . S
C381 C382 1.392 . S
C381 H410 0.947 . S
C382 C381 1.392 . S
C382 C383 1.419 . S
C382 H411 0.948 . S
C383 C382 1.419 . S
C383 C384 1.391 . S
C383 C387 1.397 . S
C384 C379 1.391 . S
C384 C383 1.391 . S
C384 C385 1.399 . S
C385 C384 1.399 . S
C385 C386 1.396 . S
C385 C388 1.460 . S
C385 C389 1.684 . S
C386 C367 1.723 . S
C386 C385 1.396 . S
C386 C387 1.394 . S
C387 C383 1.397 . S
C387 C386 1.394 . S
C387 C397 1.723 . S
C388 C385 1.460 . S
C388 H412 0.961 1_655 S
C388 H413 0.982 1_655 S
C388 H414 0.988 . S
C389 C385 1.684 . S
C389 H415 0.979 . S
C389 H416 0.980 . S
C389 H417 0.983 . S
C390 H366 0.948 . S
C390 C391 1.391 . S
C390 C395 1.391 . S
C391 C390 1.391 . S
C391 C392 1.391 . S
C392 H369 0.947 . S
C392 C391 1.391 . S
C392 C393 1.392 . S
C393 H370 0.948 . S
C393 C392 1.392 . S
C393 C394 1.419 . S
C394 C393 1.419 . S
C394 C395 1.391 . S
C394 C398 1.397 . S
C395 C390 1.391 . S
C395 C394 1.391 . S
C395 C396 1.399 . S
C396 C395 1.399 . S
C396 C397 1.396 . S
C396 C399 1.453 . S
C396 C400 1.684 . S
C397 C387 1.723 . S
C397 C396 1.396 . S
C397 C398 1.394 . S
C398 C368 1.723 . S
C398 C394 1.397 . S
C398 C397 1.394 . S
C399 H371 0.982 1_655 S
C399 H375 0.979 . S
C399 H376 0.977 . S
C399 C396 1.453 . S
C400 H372 0.979 . S
C400 H373 0.980 . S
C400 H374 0.983 . S
C400 C396 1.684 . S
H401 C419 0.948 . S
H402 C360 0.948 . S
H403 C378 0.979 . S
H404 C378 0.980 . S
H405 C378 0.983 . S
H406 C377 0.982 . S
H407 C377 0.979 . S
H408 C377 0.977 . S
H409 C379 0.948 . S
H410 C381 0.947 . S
H411 C382 0.948 . S
H412 C388 0.961 1_455 S
H413 C388 0.982 1_455 S
H414 C388 0.988 . S
H415 C389 0.979 . S
H416 C389 0.980 . S
H417 C389 0.983 . S
H418 C362 0.947 . S
C419 C362 1.392 . S
C419 C363 1.419 . S
C419 H401 0.948 . S
C420 C421 1.391 . S
C420 C424 1.391 . S
C420 H462 0.948 . S
C421 C420 1.391 . S
C421 C422 1.391 . S
C422 C421 1.391 . S
C422 H478 0.947 . S
C422 C479 1.392 . S
C423 C424 1.391 . S
C423 C427 1.397 . S
C423 C479 1.419 . S
C424 C420 1.391 . S
C424 C423 1.391 . S
C424 C425 1.399 . S
C425 C424 1.399 . S
C425 C428 1.396 . S
C425 C437 1.453 . S
C425 C438 1.684 . S
H426 C450 0.948 . S
C427 C423 1.397 . S
C427 C428 1.394 . S
C427 C446 1.723 . S
C428 C425 1.396 . S
C428 C427 1.394 . S
C428 C458 1.723 . S
H429 C452 0.947 . S
H430 C453 0.948 . S
H431 C459 0.982 . S
H432 C460 0.979 . S
H433 C460 0.980 . S
H434 C460 0.983 . S
H435 C459 0.979 . S
H436 C459 0.977 . S
C437 C425 1.453 . S
C437 H466 0.982 . S
C437 H467 0.979 . S
C437 H468 0.977 . S
C438 C425 1.684 . S
C438 H463 0.979 . S
C438 H464 0.980 . S
C438 H465 0.983 . S
C439 C440 1.391 . S
C439 C444 1.391 . S
C439 H469 0.948 . S
C440 C439 1.391 . S
C440 C441 1.391 . S
C441 C440 1.391 . S
C441 C442 1.392 . S
C441 H470 0.947 . S
C442 C441 1.392 . S
C442 C443 1.419 . S
C442 H471 0.948 . S
C443 C442 1.419 . S
C443 C444 1.391 . S
C443 C447 1.397 . S
C444 C439 1.391 . S
C444 C443 1.391 . S
C444 C445 1.399 . S
C445 C444 1.399 . S
C445 C446 1.396 . S
C445 C448 1.453 . S
C445 C449 1.684 . S
C446 C427 1.723 . S
C446 C445 1.396 . S
C446 C447 1.394 . S
C447 C443 1.397 . S
C447 C446 1.394 . S
C447 C457 1.723 . S
C448 C445 1.453 . S
C448 H472 0.982 . S
C448 H473 0.979 . S
C448 H474 0.977 . S
C449 C445 1.684 . S
C449 H475 0.979 . S
C449 H476 0.980 . S
C449 H477 0.983 . S
C450 H426 0.948 . S
C450 C451 1.391 . S
C450 C455 1.391 . S
C451 C450 1.391 . S
C451 C452 1.391 . S
C452 H429 0.947 . S
C452 C451 1.391 . S
C452 C453 1.392 . S
C453 H430 0.948 . S
C453 C452 1.392 . S
C453 C454 1.419 . S
C454 C453 1.419 . S
C454 C455 1.391 . S
C454 C458 1.397 . S
C455 C450 1.391 . S
C455 C454 1.391 . S
C455 C456 1.399 . S
C456 C455 1.399 . S
C456 C457 1.396 . S
C456 C459 1.453 . S
C456 C460 1.684 . S
C457 C447 1.723 . S
C457 C456 1.396 . S
C457 C458 1.394 . S
C458 C428 1.723 . S
C458 C454 1.397 . S
C458 C457 1.394 . S
C459 H431 0.982 . S
C459 H435 0.979 . S
C459 H436 0.977 . S
C459 C456 1.453 . S
C460 H432 0.979 . S
C460 H433 0.980 . S
C460 H434 0.983 . S
C460 C456 1.684 . S
H461 C479 0.948 . S
H462 C420 0.948 . S
H463 C438 0.979 . S
H464 C438 0.980 . S
H465 C438 0.983 . S
H466 C437 0.982 . S
H467 C437 0.979 . S
H468 C437 0.977 . S
H469 C439 0.948 . S
H470 C441 0.947 . S
H471 C442 0.948 . S
H472 C448 0.982 . S
H473 C448 0.979 . S
H474 C448 0.977 . S
H475 C449 0.979 . S
H476 C449 0.980 . S
H477 C449 0.983 . S
H478 C422 0.947 . S
C479 C422 1.392 . S
C479 C423 1.419 . S
C479 H461 0.948 . S
C480 C481 1.391 . S
C480 C484 1.391 . S
C480 H522 0.948 . S
C481 C480 1.391 . S
C481 C482 1.391 . S
C482 C481 1.391 . S
C482 H538 0.947 . S
C482 C539 1.392 . S
C483 C484 1.391 . S
C483 C487 1.397 . S
C483 C539 1.419 . S
C484 C480 1.391 . S
C484 C483 1.391 . S
C484 C485 1.399 . S
C485 C484 1.399 . S
C485 C488 1.396 . S
C485 C497 1.453 . S
C485 C498 1.684 . S
H486 C510 0.948 . S
C487 C483 1.397 . S
C487 C488 1.394 . S
C487 C506 1.723 . S
C488 C485 1.396 . S
C488 C487 1.394 . S
C488 C518 1.723 . S
H489 C512 0.947 . S
H490 C513 0.948 . S
H491 C519 0.982 . S
H492 C520 0.979 . S
H493 C520 0.980 . S
H494 C520 0.983 . S
H495 C519 0.979 . S
H496 C519 0.977 . S
C497 C485 1.453 . S
C497 H526 0.982 . S
C497 H527 0.979 . S
C497 H528 0.977 . S
C498 C485 1.684 . S
C498 H523 0.979 . S
C498 H524 0.980 . S
C498 H525 0.983 . S
C499 C500 1.391 . S
C499 C504 1.391 . S
C499 H529 0.948 . S
C500 C499 1.391 . S
C500 C501 1.391 . S
C501 C500 1.391 . S
C501 C502 1.392 . S
C501 H530 0.947 . S
C502 C501 1.392 . S
C502 C503 1.419 . S
C502 H531 0.948 . S
C503 C502 1.419 . S
C503 C504 1.391 . S
C503 C507 1.397 . S
C504 C499 1.391 . S
C504 C503 1.391 . S
C504 C505 1.399 . S
C505 C504 1.399 . S
C505 C506 1.396 . S
C505 C508 1.453 . S
C505 C509 1.684 . S
C506 C487 1.723 . S
C506 C505 1.396 . S
C506 C507 1.394 . S
C507 C503 1.397 . S
C507 C506 1.394 . S
C507 C517 1.723 . S
C508 C505 1.453 . S
C508 H532 0.982 . S
C508 H533 0.979 . S
C508 H534 0.977 . S
C509 C505 1.684 . S
C509 H535 0.979 . S
C509 H536 0.980 . S
C509 H537 0.983 . S
C510 H486 0.948 . S
C510 C511 1.391 . S
C510 C515 1.391 . S
C511 C510 1.391 . S
C511 C512 1.391 . S
C512 H489 0.947 . S
C512 C511 1.391 . S
C512 C513 1.392 . S
C513 H490 0.948 . S
C513 C512 1.392 . S
C513 C514 1.419 . S
C514 C513 1.419 . S
C514 C515 1.391 . S
C514 C518 1.397 . S
C515 C510 1.391 . S
C515 C514 1.391 . S
C515 C516 1.399 . S
C516 C515 1.399 . S
C516 C517 1.396 . S
C516 C519 1.453 . S
C516 C520 1.684 . S
C517 C507 1.723 . S
C517 C516 1.396 . S
C517 C518 1.394 . S
C518 C488 1.723 . S
C518 C514 1.397 . S
C518 C517 1.394 . S
C519 H491 0.982 . S
C519 H495 0.979 . S
C519 H496 0.977 . S
C519 C516 1.453 . S
C520 H492 0.979 . S
C520 H493 0.980 . S
C520 H494 0.983 . S
C520 C516 1.684 . S
H521 C539 0.948 . S
H522 C480 0.948 . S
H523 C498 0.979 . S
H524 C498 0.980 . S
H525 C498 0.983 . S
H526 C497 0.982 . S
H527 C497 0.979 . S
H528 C497 0.977 . S
H529 C499 0.948 . S
H530 C501 0.947 . S
H531 C502 0.948 . S
H532 C508 0.982 . S
H533 C508 0.979 . S
H534 C508 0.977 . S
H535 C509 0.979 . S
H536 C509 0.980 . S
H537 C509 0.983 . S
H538 C482 0.947 . S
C539 C482 1.392 . S
C539 C483 1.419 . S
C539 H521 0.948 . S
C540 C541 1.391 . S
C540 C544 1.391 . S
C540 H582 0.948 . S
C541 C540 1.391 . S
C541 C542 1.391 . S
C542 C541 1.391 . S
C542 H598 0.947 . S
C542 C599 1.392 . S
C543 C544 1.391 . S
C543 C547 1.397 . S
C543 C599 1.419 . S
C544 C540 1.391 . S
C544 C543 1.391 . S
C544 C545 1.399 . S
C545 C544 1.399 . S
C545 C548 1.396 . S
C545 C557 1.453 . S
C545 C558 1.684 . S
H546 C570 0.948 . S
C547 C543 1.397 . S
C547 C548 1.394 . S
C547 C566 1.723 . S
C548 C545 1.396 . S
C548 C547 1.394 . S
C548 C578 1.723 . S
H549 C572 0.947 . S
H550 C573 0.948 . S
H551 C579 0.982 . S
H552 C580 0.979 . S
H553 C580 0.980 . S
H554 C580 0.983 . S
H555 C579 0.979 . S
H556 C579 0.977 . S
C557 C545 1.453 . S
C557 H586 0.982 . S
C557 H587 0.979 . S
C557 H588 0.977 . S
C558 C545 1.684 . S
C558 H583 0.979 . S
C558 H584 0.980 . S
C558 H585 0.983 . S
C559 C560 1.391 . S
C559 C564 1.391 . S
C559 H589 0.948 . S
C560 C559 1.391 . S
C560 C561 1.391 . S
C561 C560 1.391 . S
C561 C562 1.392 . S
C561 H590 0.947 . S
C562 C561 1.392 . S
C562 C563 1.419 . S
C562 H591 0.948 . S
C563 C562 1.419 . S
C563 C564 1.391 . S
C563 C567 1.397 . S
C564 C559 1.391 . S
C564 C563 1.391 . S
C564 C565 1.399 . S
C565 C564 1.399 . S
C565 C566 1.396 . S
C565 C568 1.453 . S
C565 C569 1.684 . S
C566 C547 1.723 . S
C566 C565 1.396 . S
C566 C567 1.394 . S
C567 C563 1.397 . S
C567 C566 1.394 . S
C567 C577 1.723 . S
C568 C565 1.453 . S
C568 H592 0.982 . S
C568 H593 0.979 . S
C568 H594 0.977 . S
C569 C565 1.684 . S
C569 H595 0.979 . S
C569 H596 0.980 . S
C569 H597 0.983 . S
C570 H546 0.948 . S
C570 C571 1.391 . S
C570 C575 1.391 . S
C571 C570 1.391 . S
C571 C572 1.391 . S
C572 H549 0.947 . S
C572 C571 1.391 . S
C572 C573 1.392 . S
C573 H550 0.948 . S
C573 C572 1.392 . S
C573 C574 1.419 . S
C574 C573 1.419 . S
C574 C575 1.391 . S
C574 C578 1.397 . S
C575 C570 1.391 . S
C575 C574 1.391 . S
C575 C576 1.399 . S
C576 C575 1.399 . S
C576 C577 1.396 . S
C576 C579 1.453 . S
C576 C580 1.684 . S
C577 C567 1.723 . S
C577 C576 1.396 . S
C577 C578 1.394 . S
C578 C548 1.723 . S
C578 C574 1.397 . S
C578 C577 1.394 . S
C579 H551 0.982 . S
C579 H555 0.979 . S
C579 H556 0.977 . S
C579 C576 1.453 . S
C580 H552 0.979 . S
C580 H553 0.980 . S
C580 H554 0.983 . S
C580 C576 1.684 . S
H581 C599 0.948 . S
H582 C540 0.948 . S
H583 C558 0.979 . S
H584 C558 0.980 . S
H585 C558 0.983 . S
H586 C557 0.982 . S
H587 C557 0.979 . S
H588 C557 0.977 . S
H589 C559 0.948 . S
H590 C561 0.947 . S
H591 C562 0.948 . S
H592 C568 0.982 . S
H593 C568 0.979 . S
H594 C568 0.977 . S
H595 C569 0.979 . S
H596 C569 0.980 . S
H597 C569 0.983 . S
H598 C542 0.947 . S
C599 C542 1.392 . S
C599 C543 1.419 . S
C599 H581 0.948 . S
C600 C601 1.391 . S
C600 C604 1.391 . S
C600 H642 0.948 . S
C601 C600 1.391 . S
C601 C602 1.391 . S
C602 C601 1.391 . S
C602 H658 0.947 . S
C602 C659 1.392 . S
C603 C604 1.391 . S
C603 C607 1.397 . S
C603 C659 1.419 . S
C604 C600 1.391 . S
C604 C603 1.391 . S
C604 C605 1.399 . S
C605 C604 1.399 . S
C605 C608 1.396 . S
C605 C617 1.453 . S
C605 C618 1.684 . S
H606 C630 0.948 . S
C607 C603 1.397 . S
C607 C608 1.394 . S
C607 C626 1.723 . S
C608 C605 1.396 . S
C608 C607 1.394 . S
C608 C638 1.723 . S
H609 C632 0.947 1_554 S
H610 C633 0.948 . S
H611 C639 0.982 . S
H612 C640 0.979 . S
H613 C640 0.980 . S
H614 C640 0.983 . S
H615 C639 0.979 . S
H616 C639 0.977 . S
C617 C605 1.453 . S
C617 H646 0.982 . S
C617 H647 0.979 . S
C617 H648 0.977 . S
C618 C605 1.684 . S
C618 H643 0.979 . S
C618 H644 0.980 . S
C618 H645 0.983 1_556 S
C619 C620 1.391 . S
C619 C624 1.391 . S
C619 H649 0.948 . S
C620 C619 1.391 . S
C620 C621 1.391 . S
C621 C620 1.391 . S
C621 C622 1.392 . S
C621 H650 0.947 . S
C622 C621 1.392 . S
C622 C623 1.419 . S
C622 H651 0.948 . S
C623 C622 1.419 . S
C623 C624 1.391 . S
C623 C627 1.397 . S
C624 C619 1.391 . S
C624 C623 1.391 . S
C624 C625 1.399 . S
C625 C624 1.399 . S
C625 C626 1.396 . S
C625 C628 1.453 . S
C625 C629 1.684 . S
C626 C607 1.723 . S
C626 C625 1.396 . S
C626 C627 1.394 . S
C627 C623 1.397 . S
C627 C626 1.394 . S
C627 C637 1.723 . S
C628 C625 1.453 . S
C628 H652 0.982 . S
C628 H653 0.979 . S
C628 H654 0.977 . S
C629 C625 1.684 . S
C629 H655 0.979 . S
C629 H656 0.980 . S
C629 H657 0.983 . S
C630 H606 0.948 . S
C630 C631 1.391 . S
C630 C635 1.391 . S
C631 C630 1.391 . S
C631 C632 1.391 . S
C632 H609 0.947 1_556 S
C632 C631 1.391 . S
C632 C633 1.392 . S
C633 H610 0.948 . S
C633 C632 1.392 . S
C633 C634 1.419 . S
C634 C633 1.419 . S
C634 C635 1.391 . S
C634 C638 1.397 . S
C635 C630 1.391 . S
C635 C634 1.391 . S
C635 C636 1.399 . S
C636 C635 1.399 . S
C636 C637 1.396 . S
C636 C639 1.453 . S
C636 C640 1.684 . S
C637 C627 1.723 . S
C637 C636 1.396 . S
C637 C638 1.394 . S
C638 C608 1.723 . S
C638 C634 1.397 . S
C638 C637 1.394 . S
C639 H611 0.982 . S
C639 H615 0.979 . S
C639 H616 0.977 . S
C639 C636 1.453 . S
C640 H612 0.979 . S
C640 H613 0.980 . S
C640 H614 0.983 . S
C640 C636 1.684 . S
H641 C659 0.948 . S
H642 C600 0.948 . S
H643 C618 0.979 . S
H644 C618 0.980 . S
H645 C618 0.983 1_554 S
H646 C617 0.982 . S
H647 C617 0.979 . S
H648 C617 0.977 . S
H649 C619 0.948 . S
H650 C621 0.947 . S
H651 C622 0.948 . S
H652 C628 0.982 . S
H653 C628 0.979 . S
H654 C628 0.977 . S
H655 C629 0.979 . S
H656 C629 0.980 . S
H657 C629 0.983 . S
H658 C602 0.947 . S
C659 C602 1.392 . S
C659 C603 1.419 . S
C659 H641 0.948 . S
C660 C661 1.391 . S
C660 C664 1.391 . S
C660 H702 0.948 . S
C661 C660 1.391 . S
C661 C662 1.391 . S
C662 C661 1.391 . S
C662 H718 0.947 . S
C662 C719 1.392 . S
C663 C664 1.391 . S
C663 C667 1.397 . S
C663 C719 1.419 . S
C664 C660 1.391 . S
C664 C663 1.391 . S
C664 C665 1.399 . S
C665 C664 1.399 . S
C665 C668 1.396 . S
C665 C677 1.453 . S
C665 C678 1.684 . S
H666 C690 0.948 . S
C667 C663 1.397 . S
C667 C668 1.394 . S
C667 C686 1.723 . S
C668 C665 1.396 . S
C668 C667 1.394 . S
C668 C698 1.723 . S
H669 C692 0.947 . S
H670 C693 0.948 . S
H671 C699 0.982 . S
H672 C700 0.979 . S
H673 C700 0.980 . S
H674 C700 0.983 . S
H675 C699 0.979 . S
H676 C699 0.977 . S
C677 C665 1.453 . S
C677 H706 0.982 . S
C677 H707 0.979 . S
C677 H708 0.977 . S
C678 C665 1.684 . S
C678 H703 0.979 . S
C678 H704 0.980 . S
C678 H705 0.983 . S
C679 C680 1.391 . S
C679 C684 1.391 . S
C679 H709 0.948 . S
C680 C679 1.391 . S
C680 C681 1.391 . S
C681 C680 1.391 . S
C681 C682 1.392 . S
C681 H710 0.947 . S
C682 C681 1.392 . S
C682 C683 1.419 . S
C682 H711 0.948 . S
C683 C682 1.419 . S
C683 C684 1.391 . S
C683 C687 1.397 . S
C684 C679 1.391 . S
C684 C683 1.391 . S
C684 C685 1.399 . S
C685 C684 1.399 . S
C685 C686 1.396 . S
C685 C688 1.453 . S
C685 C689 1.684 . S
C686 C667 1.723 . S
C686 C685 1.396 . S
C686 C687 1.394 . S
C687 C683 1.397 . S
C687 C686 1.394 . S
C687 C697 1.723 . S
C688 C685 1.453 . S
C688 H712 0.982 . S
C688 H713 0.979 . S
C688 H714 0.977 . S
C689 C685 1.684 . S
C689 H715 0.979 . S
C689 H716 0.980 . S
C689 H717 0.983 . S
C690 H666 0.948 . S
C690 C691 1.391 . S
C690 C695 1.391 . S
C691 C690 1.391 . S
C691 C692 1.391 . S
C692 H669 0.947 . S
C692 C691 1.391 . S
C692 C693 1.392 . S
C693 H670 0.948 . S
C693 C692 1.392 . S
C693 C694 1.419 . S
C694 C693 1.419 . S
C694 C695 1.391 . S
C694 C698 1.397 . S
C695 C690 1.391 . S
C695 C694 1.391 . S
C695 C696 1.399 . S
C696 C695 1.399 . S
C696 C697 1.396 . S
C696 C699 1.453 . S
C696 C700 1.684 . S
C697 C687 1.723 . S
C697 C696 1.396 . S
C697 C698 1.394 . S
C698 C668 1.723 . S
C698 C694 1.397 . S
C698 C697 1.394 . S
C699 H671 0.982 . S
C699 H675 0.979 . S
C699 H676 0.977 . S
C699 C696 1.453 . S
C700 H672 0.979 . S
C700 H673 0.980 . S
C700 H674 0.983 . S
C700 C696 1.684 . S
H701 C719 0.948 . S
H702 C660 0.948 . S
H703 C678 0.979 . S
H704 C678 0.980 . S
H705 C678 0.983 . S
H706 C677 0.982 . S
H707 C677 0.979 . S
H708 C677 0.977 . S
H709 C679 0.948 . S
H710 C681 0.947 . S
H711 C682 0.948 . S
H712 C688 0.982 . S
H713 C688 0.979 . S
H714 C688 0.977 . S
H715 C689 0.979 . S
H716 C689 0.980 . S
H717 C689 0.983 . S
H718 C662 0.947 . S
C719 C662 1.392 . S
C719 C663 1.419 . S
C719 H701 0.948 . S
C720 C721 1.391 . S
C720 C724 1.391 . S
C720 H762 0.948 . S
C721 C720 1.391 . S
C721 C722 1.391 . S
C722 C721 1.391 . S
C722 H778 0.947 . S
C722 C779 1.392 . S
C723 C724 1.391 . S
C723 C727 1.397 . S
C723 C779 1.419 . S
C724 C720 1.391 . S
C724 C723 1.391 . S
C724 C725 1.399 . S
C725 C724 1.399 . S
C725 C728 1.396 . S
C725 C737 1.453 . S
C725 C738 1.684 . S
H726 C750 0.948 . S
C727 C723 1.397 . S
C727 C728 1.394 . S
C727 C746 1.723 . S
C728 C725 1.396 . S
C728 C727 1.394 . S
C728 C758 1.723 . S
H729 C752 0.947 1_556 S
H730 C753 0.948 . S
H731 C759 0.982 . S
H732 C760 0.979 . S
H733 C760 0.980 . S
H734 C760 0.983 . S
H735 C759 0.979 . S
H736 C759 0.977 . S
C737 C725 1.453 . S
C737 H766 0.982 . S
C737 H767 0.979 . S
C737 H768 0.977 . S
C738 C725 1.684 . S
C738 H763 0.979 . S
C738 H764 0.980 . S
C738 H765 1.028 . S
C739 C740 1.391 . S
C739 C744 1.391 . S
C739 H769 0.948 . S
C740 C739 1.391 . S
C740 C741 1.391 . S
C741 C740 1.391 . S
C741 C742 1.392 . S
C741 H770 0.947 . S
C742 C741 1.392 . S
C742 C743 1.419 . S
C742 H771 0.948 . S
C743 C742 1.419 . S
C743 C744 1.391 . S
C743 C747 1.397 . S
C744 C739 1.391 . S
C744 C743 1.391 . S
C744 C745 1.399 . S
C745 C744 1.399 . S
C745 C746 1.396 . S
C745 C748 1.453 . S
C745 C749 1.684 . S
C746 C727 1.723 . S
C746 C745 1.396 . S
C746 C747 1.394 . S
C747 C743 1.397 . S
C747 C746 1.394 . S
C747 C757 1.723 . S
C748 C745 1.453 . S
C748 H772 0.982 . S
C748 H773 0.979 . S
C748 H774 0.977 . S
C749 C745 1.684 . S
C749 H775 0.979 . S
C749 H776 0.980 . S
C749 H777 0.983 . S
C750 H726 0.948 . S
C750 C751 1.391 . S
C750 C755 1.391 . S
C751 C750 1.391 . S
C751 C752 1.391 . S
C752 H729 0.947 1_554 S
C752 C751 1.391 . S
C752 C753 1.392 . S
C753 H730 0.948 . S
C753 C752 1.392 . S
C753 C754 1.419 . S
C754 C753 1.419 . S
C754 C755 1.391 . S
C754 C758 1.397 . S
C755 C750 1.391 . S
C755 C754 1.391 . S
C755 C756 1.399 . S
C756 C755 1.399 . S
C756 C757 1.396 . S
C756 C759 1.453 . S
C756 C760 1.684 . S
C757 C747 1.723 . S
C757 C756 1.396 . S
C757 C758 1.394 . S
C758 C728 1.723 . S
C758 C754 1.397 . S
C758 C757 1.394 . S
C759 H731 0.982 . S
C759 H735 0.979 . S
C759 H736 0.977 . S
C759 C756 1.453 . S
C760 H732 0.979 . S
C760 H733 0.980 . S
C760 H734 0.983 . S
C760 C756 1.684 . S
H761 C779 0.948 . S
H762 C720 0.948 . S
H763 C738 0.979 . S
H764 C738 0.980 . S
H765 C738 1.028 . S
H766 C737 0.982 . S
H767 C737 0.979 . S
H768 C737 0.977 . S
H769 C739 0.948 . S
H770 C741 0.947 . S
H771 C742 0.948 . S
H772 C748 0.982 . S
H773 C748 0.979 . S
H774 C748 0.977 . S
H775 C749 0.979 . S
H776 C749 0.980 . S
H777 C749 0.983 . S
H778 C722 0.947 . S
C779 C722 1.392 . S
C779 C723 1.419 . S
C779 H761 0.948 . S
C780 C781 1.391 . S
C780 C784 1.391 . S
C780 H822 0.948 . S
C781 C780 1.391 . S
C781 C782 1.391 . S
C782 C781 1.391 . S
C782 H838 0.947 . S
C782 C839 1.392 . S
C783 C784 1.391 . S
C783 C787 1.397 . S
C783 C839 1.419 . S
C784 C780 1.391 . S
C784 C783 1.391 . S
C784 C785 1.399 . S
C785 C784 1.399 . S
C785 C788 1.396 . S
C785 C797 1.453 . S
C785 C798 1.684 . S
H786 C810 0.948 . S
C787 C783 1.397 . S
C787 C788 1.394 . S
C787 C806 1.723 . S
C788 C785 1.396 . S
C788 C787 1.394 . S
C788 C818 1.723 . S
H789 C812 0.947 . S
H790 C813 0.948 . S
H791 C819 0.982 . S
H792 C820 0.979 . S
H793 C820 0.980 . S
H794 C820 0.983 . S
H795 C819 0.979 . S
H796 C819 0.977 . S
C797 C785 1.453 . S
C797 H826 0.982 . S
C797 H827 0.979 . S
C797 H828 0.977 . S
C798 C785 1.684 . S
C798 H823 0.979 . S
C798 H824 0.980 . S
C798 H825 0.983 . S
C799 C800 1.391 . S
C799 C804 1.391 . S
C799 H829 0.948 . S
C800 C799 1.391 . S
C800 C801 1.391 . S
C801 C800 1.391 . S
C801 C802 1.392 . S
C801 H830 0.947 . S
C802 C801 1.392 . S
C802 C803 1.419 . S
C802 H831 0.948 . S
C803 C802 1.419 . S
C803 C804 1.391 . S
C803 C807 1.397 . S
C804 C799 1.391 . S
C804 C803 1.391 . S
C804 C805 1.399 . S
C805 C804 1.399 . S
C805 C806 1.396 . S
C805 C808 1.453 . S
C805 C809 1.684 . S
C806 C787 1.723 . S
C806 C805 1.396 . S
C806 C807 1.394 . S
C807 C803 1.397 . S
C807 C806 1.394 . S
C807 C817 1.723 . S
C808 C805 1.453 . S
C808 H832 0.982 . S
C808 H833 0.979 . S
C808 H834 0.977 . S
C809 C805 1.684 . S
C809 H835 0.979 . S
C809 H836 0.980 . S
C809 H837 0.983 . S
C810 H786 0.948 . S
C810 C811 1.391 . S
C810 C815 1.391 . S
C811 C810 1.391 . S
C811 C812 1.391 . S
C812 H789 0.947 . S
C812 C811 1.391 . S
C812 C813 1.392 . S
C813 H790 0.948 . S
C813 C812 1.392 . S
C813 C814 1.419 . S
C814 C813 1.419 . S
C814 C815 1.391 . S
C814 C818 1.397 . S
C815 C810 1.391 . S
C815 C814 1.391 . S
C815 C816 1.399 . S
C816 C815 1.399 . S
C816 C817 1.396 . S
C816 C819 1.453 . S
C816 C820 1.684 . S
C817 C807 1.723 . S
C817 C816 1.396 . S
C817 C818 1.394 . S
C818 C788 1.723 . S
C818 C814 1.397 . S
C818 C817 1.394 . S
C819 H791 0.982 . S
C819 H795 0.979 . S
C819 H796 0.977 . S
C819 C816 1.453 . S
C820 H792 0.979 . S
C820 H793 0.980 . S
C820 H794 0.983 . S
C820 C816 1.684 . S
H821 C839 0.948 . S
H822 C780 0.948 . S
H823 C798 0.979 . S
H824 C798 0.980 . S
H825 C798 0.983 . S
H826 C797 0.982 . S
H827 C797 0.979 . S
H828 C797 0.977 . S
H829 C799 0.948 . S
H830 C801 0.947 . S
H831 C802 0.948 . S
H832 C808 0.982 . S
H833 C808 0.979 . S
H834 C808 0.977 . S
H835 C809 0.979 . S
H836 C809 0.980 . S
H837 C809 0.983 . S
H838 C782 0.947 . S
C839 C782 1.392 . S
C839 C783 1.419 . S
C839 H821 0.948 . S
C840 C841 1.391 . S
C840 C844 1.391 . S
C840 H882 0.948 . S
C841 C840 1.391 . S
C841 C842 1.391 . S
C842 C841 1.391 . S
C842 H898 0.947 . S
C842 C899 1.392 . S
C843 C844 1.391 . S
C843 C847 1.397 . S
C843 C899 1.419 . S
C844 C840 1.391 . S
C844 C843 1.391 . S
C844 C845 1.399 . S
C845 C844 1.399 . S
C845 C848 1.396 . S
C845 C857 1.453 . S
C845 C858 1.684 . S
H846 C870 0.948 . S
C847 C843 1.397 . S
C847 C848 1.394 . S
C847 C866 1.723 . S
C848 C845 1.396 . S
C848 C847 1.394 . S
C848 C878 1.723 . S
H849 C872 0.947 . S
H850 C873 0.948 . S
H851 C879 0.982 . S
H852 C880 0.979 . S
H853 C880 0.980 . S
H854 C880 0.983 . S
H855 C879 0.979 . S
H856 C879 0.977 . S
C857 C845 1.453 . S
C857 H886 0.982 . S
C857 H887 0.979 . S
C857 H888 0.977 . S
C858 C845 1.684 . S
C858 H883 0.979 . S
C858 H884 0.980 . S
C858 H885 0.983 . S
C859 C860 1.391 . S
C859 C864 1.391 . S
C859 H889 0.948 . S
C860 C859 1.391 . S
C860 C861 1.391 . S
C861 C860 1.391 . S
C861 C862 1.392 . S
C861 H890 0.947 . S
C862 C861 1.392 . S
C862 C863 1.419 . S
C862 H891 0.948 . S
C863 C862 1.419 . S
C863 C864 1.391 . S
C863 C867 1.397 . S
C864 C859 1.391 . S
C864 C863 1.391 . S
C864 C865 1.399 . S
C865 C864 1.399 . S
C865 C866 1.396 . S
C865 C868 1.453 . S
C865 C869 1.684 . S
C866 C847 1.723 . S
C866 C865 1.396 . S
C866 C867 1.394 . S
C867 C863 1.397 . S
C867 C866 1.394 . S
C867 C877 1.723 . S
C868 C865 1.453 . S
C868 H892 0.982 . S
C868 H893 0.979 . S
C868 H894 0.977 . S
C869 C865 1.684 . S
C869 H895 0.979 . S
C869 H896 0.980 . S
C869 H897 0.983 . S
C870 H846 0.948 . S
C870 C871 1.391 . S
C870 C875 1.391 . S
C871 C870 1.391 . S
C871 C872 1.391 . S
C872 H849 0.947 . S
C872 C871 1.391 . S
C872 C873 1.392 . S
C873 H850 0.948 . S
C873 C872 1.392 . S
C873 C874 1.419 . S
C874 C873 1.419 . S
C874 C875 1.391 . S
C874 C878 1.397 . S
C875 C870 1.391 . S
C875 C874 1.391 . S
C875 C876 1.399 . S
C876 C875 1.399 . S
C876 C877 1.396 . S
C876 C879 1.453 . S
C876 C880 1.684 . S
C877 C867 1.723 . S
C877 C876 1.396 . S
C877 C878 1.394 . S
C878 C848 1.723 . S
C878 C874 1.397 . S
C878 C877 1.394 . S
C879 H851 0.982 . S
C879 H855 0.979 . S
C879 H856 0.977 . S
C879 C876 1.453 . S
C880 H852 0.979 . S
C880 H853 0.980 . S
C880 H854 0.983 . S
C880 C876 1.684 . S
H881 C899 0.948 . S
H882 C840 0.948 . S
H883 C858 0.979 . S
H884 C858 0.980 . S
H885 C858 0.983 . S
H886 C857 0.982 . S
H887 C857 0.979 . S
H888 C857 0.977 . S
H889 C859 0.948 . S
H890 C861 0.947 . S
H891 C862 0.948 . S
H892 C868 0.982 . S
H893 C868 0.979 . S
H894 C868 0.977 . S
H895 C869 0.979 . S
H896 C869 0.980 . S
H897 C869 0.983 . S
H898 C842 0.947 . S
C899 C842 1.392 . S
C899 C843 1.419 . S
C899 H881 0.948 . S
C900 C901 1.391 . S
C900 C904 1.391 . S
C900 H942 0.948 . S
C901 C900 1.391 . S
C901 C902 1.391 . S
C902 C901 1.391 . S
C902 H958 0.947 . S
C902 C959 1.392 . S
C903 C904 1.391 . S
C903 C907 1.397 . S
C903 C959 1.419 . S
C904 C900 1.391 . S
C904 C903 1.391 . S
C904 C905 1.399 . S
C905 C904 1.399 . S
C905 C908 1.396 . S
C905 C917 1.453 . S
C905 C918 1.684 . S
H906 C930 0.948 . S
C907 C903 1.397 . S
C907 C908 1.394 . S
C907 C926 1.723 . S
C908 C905 1.396 . S
C908 C907 1.394 . S
C908 C938 1.723 . S
H909 C932 0.947 . S
H910 C933 0.948 . S
H911 C939 0.982 . S
H912 C940 0.979 . S
H913 C940 0.980 . S
H914 C940 0.983 . S
H915 C939 0.979 . S
H916 C939 0.977 . S
C917 C905 1.453 . S
C917 H946 0.982 . S
C917 H947 0.979 . S
C917 H948 0.977 . S
C918 C905 1.684 . S
C918 H943 0.979 . S
C918 H944 0.980 . S
C918 H945 0.983 . S
C919 C920 1.391 . S
C919 C924 1.391 . S
C919 H949 0.948 . S
C920 C919 1.391 . S
C920 C921 1.391 . S
C921 C920 1.391 . S
C921 C922 1.392 . S
C921 H950 0.947 . S
C922 C921 1.392 . S
C922 C923 1.419 . S
C922 H951 0.948 . S
C923 C922 1.419 . S
C923 C924 1.391 . S
C923 C927 1.397 . S
C924 C919 1.391 . S
C924 C923 1.391 . S
C924 C925 1.399 . S
C925 C924 1.399 . S
C925 C926 1.396 . S
C925 C928 1.453 . S
C925 C929 1.684 . S
C926 C907 1.723 . S
C926 C925 1.396 . S
C926 C927 1.394 . S
C927 C923 1.397 . S
C927 C926 1.394 . S
C927 C937 1.723 . S
C928 C925 1.453 . S
C928 H952 0.982 . S
C928 H953 0.979 . S
C928 H954 0.977 . S
C929 C925 1.684 . S
C929 H955 0.979 . S
C929 H956 0.980 . S
C929 H957 0.983 . S
C930 H906 0.948 . S
C930 C931 1.391 . S
C930 C935 1.391 . S
C931 C930 1.391 . S
C931 C932 1.391 . S
C932 H909 0.947 . S
C932 C931 1.391 . S
C932 C933 1.392 . S
C933 H910 0.948 . S
C933 C932 1.392 . S
C933 C934 1.419 . S
C934 C933 1.419 . S
C934 C935 1.391 . S
C934 C938 1.397 . S
C935 C930 1.391 . S
C935 C934 1.391 . S
C935 C936 1.399 . S
C936 C935 1.399 . S
C936 C937 1.396 . S
C936 C939 1.453 . S
C936 C940 1.684 . S
C937 C927 1.723 . S
C937 C936 1.396 . S
C937 C938 1.394 . S
C938 C908 1.723 . S
C938 C934 1.397 . S
C938 C937 1.394 . S
C939 H911 0.982 . S
C939 H915 0.979 . S
C939 H916 0.977 . S
C939 C936 1.453 . S
C940 H912 0.979 . S
C940 H913 0.980 . S
C940 H914 0.983 . S
C940 C936 1.684 . S
H941 C959 0.948 . S
H942 C900 0.948 . S
H943 C918 0.979 . S
H944 C918 0.980 . S
H945 C918 0.983 . S
H946 C917 0.982 . S
H947 C917 0.979 . S
H948 C917 0.977 . S
H949 C919 0.948 . S
H950 C921 0.947 . S
H951 C922 0.948 . S
H952 C928 0.982 . S
H953 C928 0.979 . S
H954 C928 0.977 . S
H955 C929 0.979 . S
H956 C929 0.980 . S
H957 C929 0.983 . S
H958 C902 0.947 . S
C959 C902 1.392 . S
C959 C903 1.419 . S
C959 H941 0.948 . S
C960 C961 1.391 . S
C960 C964 1.391 . S
C960 H1002 0.948 . S
C961 C960 1.391 . S
C961 C962 1.391 . S
C962 C961 1.391 . S
C962 H1018 0.947 . S
C962 C1019 1.392 . S
C963 C964 1.391 . S
C963 C967 1.397 . S
C963 C1019 1.419 . S
C964 C960 1.391 . S
C964 C963 1.391 . S
C964 C965 1.399 . S
C965 C964 1.399 . S
C965 C968 1.396 . S
C965 C977 1.453 . S
C965 C978 1.684 . S
H966 C990 0.948 . S
C967 C963 1.397 . S
C967 C968 1.394 . S
C967 C986 1.723 . S
C968 C965 1.396 . S
C968 C967 1.394 . S
C968 C998 1.723 . S
H969 C992 0.947 . S
H970 C993 0.948 . S
H971 C999 0.982 . S
H972 C1000 0.979 1_655 S
H973 C1000 0.977 . S
H974 C1000 0.983 . S
H975 C999 0.979 . S
H976 C999 0.977 . S
C977 C965 1.453 . S
C977 H1006 0.982 . S
C977 H1007 0.979 . S
C977 H1008 0.977 . S
C978 C965 1.684 . S
C978 H1003 0.979 . S
C978 H1004 0.980 . S
C978 H1005 0.983 . S
C979 C980 1.391 1_455 S
C979 C984 1.391 . S
C979 H1009 0.950 1_455 S
C980 C979 1.391 1_655 S
C980 C981 1.391 1_655 S
C981 C980 1.391 1_455 S
C981 C982 1.392 . S
C981 H1010 0.941 1_455 S
C982 C981 1.392 . S
C982 C983 1.419 . S
C982 H1011 0.948 . S
C983 C982 1.419 . S
C983 C984 1.391 . S
C983 C987 1.397 . S
C984 C979 1.391 . S
C984 C983 1.391 . S
C984 C985 1.399 . S
C985 C984 1.399 . S
C985 C986 1.396 . S
C985 C988 1.453 . S
C985 C989 1.684 1_455 S
C986 C967 1.723 . S
C986 C985 1.396 . S
C986 C987 1.394 . S
C987 C983 1.397 . S
C987 C986 1.394 . S
C987 C997 1.723 . S
C988 C985 1.453 . S
C988 H1012 0.982 . S
C988 H1013 0.979 . S
C988 H1014 0.977 . S
C989 C985 1.684 1_655 S
C989 H1015 0.979 . S
C989 H1016 0.980 1_655 S
C989 H1017 0.983 . S
C990 H966 0.948 . S
C990 C991 1.391 . S
C990 C995 1.391 . S
C991 C990 1.391 . S
C991 C992 1.391 . S
C992 H969 0.947 . S
C992 C991 1.391 . S
C992 C993 1.392 . S
C993 H970 0.948 . S
C993 C992 1.392 . S
C993 C994 1.419 . S
C994 C993 1.419 . S
C994 C995 1.391 . S
C994 C998 1.397 . S
C995 C990 1.391 . S
C995 C994 1.391 . S
C995 C996 1.399 . S
C996 C995 1.399 . S
C996 C997 1.396 . S
C996 C999 1.453 . S
C996 C1000 1.684 . S
C997 C987 1.723 . S
C997 C996 1.396 . S
C997 C998 1.394 . S
C998 C968 1.723 . S
C998 C994 1.397 . S
C998 C997 1.394 . S
C999 H971 0.982 . S
C999 H975 0.979 . S
C999 H976 0.977 . S
C999 C996 1.453 . S
C1000 H972 0.979 1_455 S
C1000 H973 0.977 . S
C1000 H974 0.983 . S
C1000 C996 1.684 . S
H1001 C1019 0.948 . S
H1002 C960 0.948 . S
H1003 C978 0.979 . S
H1004 C978 0.980 . S
H1005 C978 0.983 . S
H1006 C977 0.982 . S
H1007 C977 0.979 . S
H1008 C977 0.977 . S
H1009 C979 0.950 1_655 S
H1010 C981 0.941 1_655 S
H1011 C982 0.948 . S
H1012 C988 0.982 . S
H1013 C988 0.979 . S
H1014 C988 0.977 . S
H1015 C989 0.979 . S
H1016 C989 0.980 1_455 S
H1017 C989 0.983 . S
H1018 C962 0.947 . S
C1019 C962 1.392 . S
C1019 C963 1.419 . S
C1019 H1001 0.948 . S
C1020 C1021 1.391 . S
C1020 C1024 1.391 . S
C1020 H1062 0.948 . S
C1021 C1020 1.391 . S
C1021 C1022 1.391 . S
C1022 C1021 1.391 . S
C1022 H1078 0.947 . S
C1022 C1079 1.392 . S
C1023 C1024 1.391 . S
C1023 C1027 1.397 . S
C1023 C1079 1.419 . S
C1024 C1020 1.391 . S
C1024 C1023 1.391 . S
C1024 C1025 1.399 . S
C1025 C1024 1.399 . S
C1025 C1028 1.396 . S
C1025 C1037 1.453 . S
C1025 C1038 1.684 . S
H1026 C1050 0.948 . S
C1027 C1023 1.397 . S
C1027 C1028 1.394 . S
C1027 C1046 1.723 . S
C1028 C1025 1.396 . S
C1028 C1027 1.394 . S
C1028 C1058 1.723 . S
H1029 C1052 0.947 . S
H1030 C1053 0.948 . S
H1031 C1059 0.982 . S
H1032 C1060 0.979 . S
H1033 C1060 0.980 . S
H1034 C1060 0.983 . S
H1035 C1059 0.979 . S
H1036 C1059 0.977 . S
C1037 C1025 1.453 . S
C1037 H1066 0.982 . S
C1037 H1067 0.979 . S
C1037 H1068 0.977 . S
C1038 C1025 1.684 . S
C1038 H1063 0.979 . S
C1038 H1064 0.980 . S
C1038 H1065 0.983 . S
C1039 C1040 1.391 . S
C1039 C1044 1.391 . S
C1039 H1069 0.948 . S
C1040 C1039 1.391 . S
C1040 C1041 1.391 . S
C1041 C1040 1.391 . S
C1041 C1042 1.392 . S
C1041 H1070 0.947 . S
C1042 C1041 1.392 . S
C1042 C1043 1.419 . S
C1042 H1071 0.948 . S
C1043 C1042 1.419 . S
C1043 C1044 1.391 . S
C1043 C1047 1.397 . S
C1044 C1039 1.391 . S
C1044 C1043 1.391 . S
C1044 C1045 1.399 . S
C1045 C1044 1.399 . S
C1045 C1046 1.396 . S
C1045 C1048 1.453 . S
C1045 C1049 1.684 . S
C1046 C1027 1.723 . S
C1046 C1045 1.396 . S
C1046 C1047 1.394 . S
C1047 C1043 1.397 . S
C1047 C1046 1.394 . S
C1047 C1057 1.723 . S
C1048 C1045 1.453 . S
C1048 H1072 0.982 . S
C1048 H1073 0.979 . S
C1048 H1074 0.977 . S
C1049 C1045 1.684 . S
C1049 H1075 0.979 . S
C1049 H1076 0.980 . S
C1049 H1077 0.983 . S
C1050 H1026 0.948 . S
C1050 C1051 1.391 . S
C1050 C1055 1.391 . S
C1051 C1050 1.391 . S
C1051 C1052 1.391 . S
C1052 H1029 0.947 . S
C1052 C1051 1.391 . S
C1052 C1053 1.392 . S
C1053 H1030 0.948 . S
C1053 C1052 1.392 . S
C1053 C1054 1.419 . S
C1054 C1053 1.419 . S
C1054 C1055 1.391 . S
C1054 C1058 1.397 . S
C1055 C1050 1.391 . S
C1055 C1054 1.391 . S
C1055 C1056 1.399 . S
C1056 C1055 1.399 . S
C1056 C1057 1.396 . S
C1056 C1059 1.453 . S
C1056 C1060 1.684 . S
C1057 C1047 1.723 . S
C1057 C1056 1.396 . S
C1057 C1058 1.394 . S
C1058 C1028 1.723 . S
C1058 C1054 1.397 . S
C1058 C1057 1.394 . S
C1059 H1031 0.982 . S
C1059 H1035 0.979 . S
C1059 H1036 0.977 . S
C1059 C1056 1.453 . S
C1060 H1032 0.979 . S
C1060 H1033 0.980 . S
C1060 H1034 0.983 . S
C1060 C1056 1.684 . S
H1061 C1079 0.948 . S
H1062 C1020 0.948 . S
H1063 C1038 0.979 . S
H1064 C1038 0.980 . S
H1065 C1038 0.983 . S
H1066 C1037 0.982 . S
H1067 C1037 0.979 . S
H1068 C1037 0.977 . S
H1069 C1039 0.948 . S
H1070 C1041 0.947 . S
H1071 C1042 0.948 . S
H1072 C1048 0.982 . S
H1073 C1048 0.979 . S
H1074 C1048 0.977 . S
H1075 C1049 0.979 . S
H1076 C1049 0.980 . S
H1077 C1049 0.983 . S
H1078 C1022 0.947 . S
C1079 C1022 1.392 . S
C1079 C1023 1.419 . S
C1079 H1061 0.948 . S
Tb1080 C1090 2.825 . S
Tb1080 O1091 2.347 1_565 S
Tb1080 O1094 2.366 1_565 S
Tb1080 O1099 2.418 . S
Tb1080 O1100 2.384 . S
Tb1080 O1103 2.479 . S
Tb1080 O1104 2.477 . S
Eu1081 O1092 2.418 . S
Eu1081 O1093 2.384 . S
Eu1081 O1096 2.479 . S
Eu1081 O1097 2.482 . S
Eu1081 O1098 2.347 1_545 S
Eu1081 O1101 2.366 1_545 S
Eu1081 C1111 2.825 . S
C1082 O1098 1.259 . S
C1082 O1099 1.265 1_554 S
C1083 O1100 1.255 1_554 S
C1083 O1101 1.265 . S
C1084 C1086 1.380 . S
C1084 C1087 1.374 1_565 S
C1084 C1090 1.507 . S
C1085 C1086 1.384 . S
C1085 C1089 1.387 1_565 S
C1085 H1112 0.930 . S
C1086 C1084 1.380 . S
C1086 C1085 1.384 . S
C1086 H1113 0.931 . S
C1087 C1084 1.374 1_545 S
C1087 C1088 1.390 . S
C1087 H1114 0.930 . S
C1088 C1087 1.390 . S
C1088 C1089 1.391 . S
C1088 H1115 0.930 . S
C1089 C1085 1.387 1_545 S
C1089 C1088 1.391 . S
C1090 Tb1080 2.825 . S
C1090 C1084 1.507 . S
C1090 O1103 1.238 . S
C1090 O1104 1.256 . S
O1091 Tb1080 2.347 1_545 S
O1091 C1095 1.259 . S
O1092 Eu1081 2.418 . S
O1092 C1095 1.265 1_554 S
O1093 Eu1081 2.384 . S
O1093 C1102 1.255 1_554 S
O1094 Tb1080 2.366 1_545 S
O1094 C1102 1.265 . S
C1095 O1091 1.259 . S
C1095 O1092 1.265 1_556 S
O1096 Eu1081 2.479 . S
O1096 C1111 1.238 . S
O1097 Eu1081 2.482 . S
O1097 C1111 1.264 . S
O1098 Eu1081 2.347 1_565 S
O1098 C1082 1.259 . S
O1099 Tb1080 2.418 . S
O1099 C1082 1.265 1_556 S
O1100 Tb1080 2.384 . S
O1100 C1083 1.255 1_556 S
O1101 Eu1081 2.366 1_565 S
O1101 C1083 1.265 . S
C1102 O1093 1.255 1_556 S
C1102 O1094 1.265 . S
O1103 Tb1080 2.479 . S
O1103 C1090 1.238 . S
O1104 Tb1080 2.477 . S
O1104 C1090 1.256 . S
C1105 C1108 1.380 . S
C1105 C1109 1.374 1_545 S
C1105 C1111 1.507 . S
C1106 C1107 1.387 1_565 S
C1106 C1110 1.391 . S
C1107 C1106 1.387 1_545 S
C1107 C1108 1.384 . S
C1107 H1116 0.930 . S
C1108 C1105 1.380 . S
C1108 C1107 1.384 . S
C1108 H1117 0.931 . S
C1109 C1105 1.374 1_565 S
C1109 C1110 1.390 . S
C1109 H1118 0.930 . S
C1110 C1106 1.391 . S
C1110 C1109 1.390 . S
C1110 H1119 0.930 . S
C1111 Eu1081 2.825 . S
C1111 O1096 1.238 . S
C1111 O1097 1.264 . S
C1111 C1105 1.507 . S
H1112 C1085 0.930 . S
H1113 C1086 0.931 . S
H1114 C1087 0.930 . S
H1115 C1088 0.930 . S
H1116 C1107 0.930 . S
H1117 C1108 0.931 . S
H1118 C1109 0.930 . S
H1119 C1110 0.930 . S
Tb1120 C1130 2.825 . S
Tb1120 O1131 2.347 1_455 S
Tb1120 O1134 2.366 1_455 S
Tb1120 O1139 2.418 . S
Tb1120 O1140 2.384 1_556 S
Tb1120 O1143 2.479 . S
Tb1120 O1144 2.471 1_455 S
Eu1121 O1132 2.418 . S
Eu1121 O1133 2.384 1_554 S
Eu1121 O1136 2.479 . S
Eu1121 O1137 2.471 1_655 S
Eu1121 O1138 2.347 1_655 S
Eu1121 O1141 2.366 1_655 S
Eu1121 C1151 2.825 . S
C1122 O1138 1.259 . S
C1122 O1139 1.265 1_554 S
C1123 O1140 1.255 . S
C1123 O1141 1.265 . S
C1124 C1126 1.380 . S
C1124 C1127 1.374 1_455 S
C1124 C1130 1.507 . S
C1125 C1126 1.384 . S
C1125 C1129 1.387 1_455 S
C1125 H1152 0.930 . S
C1126 C1124 1.380 . S
C1126 C1125 1.384 . S
C1126 H1153 0.931 . S
C1127 C1124 1.374 1_655 S
C1127 C1128 1.390 . S
C1127 H1154 0.930 . S
C1128 C1127 1.390 . S
C1128 C1129 1.391 . S
C1128 H1155 0.930 . S
C1129 C1125 1.387 1_655 S
C1129 C1128 1.391 . S
C1130 Tb1120 2.825 . S
C1130 C1124 1.507 . S
C1130 O1143 1.238 . S
C1130 O1144 1.247 1_455 S
O1131 Tb1120 2.347 1_655 S
O1131 C1135 1.259 . S
O1132 Eu1121 2.418 . S
O1132 C1135 1.265 1_554 S
O1133 Eu1121 2.384 1_556 S
O1133 C1142 1.255 . S
O1134 Tb1120 2.366 1_655 S
O1134 C1142 1.265 . S
C1135 O1131 1.259 . S
C1135 O1132 1.265 1_556 S
O1136 Eu1121 2.479 . S
O1136 C1151 1.238 . S
O1137 Eu1121 2.471 1_455 S
O1137 C1151 1.247 1_455 S
O1138 Eu1121 2.347 1_455 S
O1138 C1122 1.259 . S
O1139 Tb1120 2.418 . S
O1139 C1122 1.265 1_556 S
O1140 Tb1120 2.384 1_554 S
O1140 C1123 1.255 . S
O1141 Eu1121 2.366 1_455 S
O1141 C1123 1.265 . S
C1142 O1133 1.255 . S
C1142 O1134 1.265 . S
O1143 Tb1120 2.479 . S
O1143 C1130 1.238 . S
O1144 Tb1120 2.471 1_655 S
O1144 C1130 1.247 1_655 S
C1145 C1148 1.380 . S
C1145 C1149 1.374 1_655 S
C1145 C1151 1.507 . S
C1146 C1147 1.387 1_455 S
C1146 C1150 1.391 . S
C1147 C1146 1.387 1_655 S
C1147 C1148 1.384 . S
C1147 H1156 0.930 . S
C1148 C1145 1.380 . S
C1148 C1147 1.384 . S
C1148 H1157 0.931 . S
C1149 C1145 1.374 1_455 S
C1149 C1150 1.390 . S
C1149 H1158 0.930 . S
C1150 C1146 1.391 . S
C1150 C1149 1.390 . S
C1150 H1159 0.930 . S
C1151 Eu1121 2.825 . S
C1151 O1136 1.238 . S
C1151 O1137 1.247 1_655 S
C1151 C1145 1.507 . S
H1152 C1125 0.930 . S
H1153 C1126 0.931 . S
H1154 C1127 0.930 . S
H1155 C1128 0.930 . S
H1156 C1147 0.930 . S
H1157 C1148 0.931 . S
H1158 C1149 0.930 . S
H1159 C1150 0.930 . S
Tb1160 C1170 2.825 . S
Tb1160 O1171 2.347 . S
Tb1160 O1174 2.366 . S
Tb1160 O1179 2.418 . S
Tb1160 O1180 2.385 . S
Tb1160 O1183 2.479 . S
Tb1160 O1184 2.471 . S
Eu1161 O1172 2.418 . S
Eu1161 O1173 2.384 1_556 S
Eu1161 O1176 2.479 . S
Eu1161 O1177 2.471 . S
Eu1161 O1178 2.347 . S
Eu1161 O1181 2.366 . S
Eu1161 C1191 2.825 . S
C1162 O1178 1.259 . S
C1162 O1179 1.265 1_556 S
C1163 O1180 1.254 1_556 S
C1163 O1181 1.265 . S
C1164 C1166 1.380 . S
C1164 C1167 1.374 . S
C1164 C1170 1.507 . S
C1165 C1166 1.384 . S
C1165 C1169 1.387 . S
C1165 H1192 0.930 . S
C1166 C1164 1.380 . S
C1166 C1165 1.384 . S
C1166 H1193 0.931 . S
C1167 C1164 1.374 . S
C1167 C1168 1.390 . S
C1167 H1194 0.930 . S
C1168 C1167 1.390 . S
C1168 C1169 1.391 . S
C1168 H1195 0.930 . S
C1169 C1165 1.387 . S
C1169 C1168 1.391 . S
C1170 Tb1160 2.825 . S
C1170 C1164 1.507 . S
C1170 O1183 1.238 . S
C1170 O1184 1.247 . S
O1171 Tb1160 2.347 . S
O1171 C1175 1.259 . S
O1172 Eu1161 2.418 . S
O1172 C1175 1.265 1_556 S
O1173 Eu1161 2.384 1_554 S
O1173 C1182 1.255 . S
O1174 Tb1160 2.366 . S
O1174 C1182 1.265 . S
C1175 O1171 1.259 . S
C1175 O1172 1.265 1_554 S
O1176 Eu1161 2.479 . S
O1176 C1191 1.238 . S
O1177 Eu1161 2.471 . S
O1177 C1191 1.247 . S
O1178 Eu1161 2.347 . S
O1178 C1162 1.259 . S
O1179 Tb1160 2.418 . S
O1179 C1162 1.265 1_554 S
O1180 Tb1160 2.385 . S
O1180 C1163 1.254 1_554 S
O1181 Eu1161 2.366 . S
O1181 C1163 1.265 . S
C1182 O1173 1.255 . S
C1182 O1174 1.265 . S
O1183 Tb1160 2.479 . S
O1183 C1170 1.238 . S
O1184 Tb1160 2.471 . S
O1184 C1170 1.247 . S
C1185 C1188 1.380 . S
C1185 C1189 1.374 . S
C1185 C1191 1.507 . S
C1186 C1187 1.387 . S
C1186 C1190 1.391 . S
C1187 C1186 1.387 . S
C1187 C1188 1.384 . S
C1187 H1196 0.930 . S
C1188 C1185 1.380 . S
C1188 C1187 1.384 . S
C1188 H1197 0.931 . S
C1189 C1185 1.374 . S
C1189 C1190 1.390 . S
C1189 H1198 0.930 . S
C1190 C1186 1.391 . S
C1190 C1189 1.390 . S
C1190 H1199 0.930 . S
C1191 Eu1161 2.825 . S
C1191 O1176 1.238 . S
C1191 O1177 1.247 . S
C1191 C1185 1.507 . S
H1192 C1165 0.930 . S
H1193 C1166 0.931 . S
H1194 C1167 0.930 . S
H1195 C1168 0.930 . S
H1196 C1187 0.930 . S
H1197 C1188 0.931 . S
H1198 C1189 0.930 . S
H1199 C1190 0.930 . S
Tb1200 C1210 2.825 . S
Tb1200 O1211 2.347 . S
Tb1200 O1214 2.366 . S
Tb1200 O1219 2.418 . S
Tb1200 O1220 2.384 . S
Tb1200 O1223 2.479 . S
Tb1200 O1224 2.471 . S
Eu1201 O1212 2.418 . S
Eu1201 O1213 2.384 . S
Eu1201 O1216 2.479 . S
Eu1201 O1217 2.471 . S
Eu1201 O1218 2.347 . S
Eu1201 O1221 2.366 . S
Eu1201 C1231 2.825 . S
C1202 O1218 1.259 . S
C1202 O1219 1.265 . S
C1203 O1220 1.255 . S
C1203 O1221 1.265 . S
C1204 C1206 1.380 . S
C1204 C1207 1.374 . S
C1204 C1210 1.507 . S
C1205 C1206 1.384 . S
C1205 C1209 1.387 . S
C1205 H1232 0.930 . S
C1206 C1204 1.380 . S
C1206 C1205 1.384 . S
C1206 H1233 0.931 . S
C1207 C1204 1.374 . S
C1207 C1208 1.390 . S
C1207 H1234 0.930 . S
C1208 C1207 1.390 . S
C1208 C1209 1.391 . S
C1208 H1235 0.930 . S
C1209 C1205 1.387 . S
C1209 C1208 1.391 . S
C1210 Tb1200 2.825 . S
C1210 C1204 1.507 . S
C1210 O1223 1.238 . S
C1210 O1224 1.247 . S
O1211 Tb1200 2.347 . S
O1211 C1215 1.259 . S
O1212 Eu1201 2.418 . S
O1212 C1215 1.265 . S
O1213 Eu1201 2.384 . S
O1213 C1222 1.255 . S
O1214 Tb1200 2.366 . S
O1214 C1222 1.265 . S
C1215 O1211 1.259 . S
C1215 O1212 1.265 . S
O1216 Eu1201 2.479 . S
O1216 C1231 1.238 . S
O1217 Eu1201 2.471 . S
O1217 C1231 1.247 . S
O1218 Eu1201 2.347 . S
O1218 C1202 1.259 . S
O1219 Tb1200 2.418 . S
O1219 C1202 1.265 . S
O1220 Tb1200 2.384 . S
O1220 C1203 1.255 . S
O1221 Eu1201 2.366 . S
O1221 C1203 1.265 . S
C1222 O1213 1.255 . S
C1222 O1214 1.265 . S
O1223 Tb1200 2.479 . S
O1223 C1210 1.238 . S
O1224 Tb1200 2.471 . S
O1224 C1210 1.247 . S
C1225 C1228 1.380 . S
C1225 C1229 1.374 . S
C1225 C1231 1.507 . S
C1226 C1227 1.387 . S
C1226 C1230 1.391 . S
C1227 C1226 1.387 . S
C1227 C1228 1.384 . S
C1227 H1236 0.930 . S
C1228 C1225 1.380 . S
C1228 C1227 1.384 . S
C1228 H1237 0.931 . S
C1229 C1225 1.374 . S
C1229 C1230 1.390 . S
C1229 H1238 0.930 . S
C1230 C1226 1.391 . S
C1230 C1229 1.390 . S
C1230 H1239 0.930 . S
C1231 Eu1201 2.825 . S
C1231 O1216 1.238 . S
C1231 O1217 1.247 . S
C1231 C1225 1.507 . S
H1232 C1205 0.930 . S
H1233 C1206 0.931 . S
H1234 C1207 0.930 . S
H1235 C1208 0.930 . S
H1236 C1227 0.930 . S
H1237 C1228 0.931 . S
H1238 C1229 0.930 . S
H1239 C1230 0.930 . S
Tb1240 C1250 2.825 . S
Tb1240 O1251 2.347 . S
Tb1240 O1254 2.366 . S
Tb1240 O1259 2.418 . S
Tb1240 O1260 2.384 . S
Tb1240 O1263 2.479 . S
Tb1240 O1264 2.471 . S
Eu1241 O1252 2.418 . S
Eu1241 O1253 2.384 . S
Eu1241 O1256 2.479 . S
Eu1241 O1257 2.471 . S
Eu1241 O1258 2.347 . S
Eu1241 O1261 2.366 . S
Eu1241 C1271 2.825 . S
C1242 O1258 1.259 . S
C1242 O1259 1.265 . S
C1243 O1260 1.255 . S
C1243 O1261 1.265 . S
C1244 C1246 1.380 . S
C1244 C1247 1.374 . S
C1244 C1250 1.507 . S
C1245 C1246 1.384 . S
C1245 C1249 1.387 . S
C1245 H1272 0.930 . S
C1246 C1244 1.380 . S
C1246 C1245 1.384 . S
C1246 H1273 0.931 . S
C1247 C1244 1.374 . S
C1247 C1248 1.390 . S
C1247 H1274 0.930 . S
C1248 C1247 1.390 . S
C1248 C1249 1.391 . S
C1248 H1275 0.930 . S
C1249 C1245 1.387 . S
C1249 C1248 1.391 . S
C1250 Tb1240 2.825 . S
C1250 C1244 1.507 . S
C1250 O1263 1.238 . S
C1250 O1264 1.247 . S
O1251 Tb1240 2.347 . S
O1251 C1255 1.259 . S
O1252 Eu1241 2.418 . S
O1252 C1255 1.265 . S
O1253 Eu1241 2.384 . S
O1253 C1262 1.255 . S
O1254 Tb1240 2.366 . S
O1254 C1262 1.265 . S
C1255 O1251 1.259 . S
C1255 O1252 1.265 . S
O1256 Eu1241 2.479 . S
O1256 C1271 1.238 . S
O1257 Eu1241 2.471 . S
O1257 C1271 1.247 . S
O1258 Eu1241 2.347 . S
O1258 C1242 1.259 . S
O1259 Tb1240 2.418 . S
O1259 C1242 1.265 . S
O1260 Tb1240 2.384 . S
O1260 C1243 1.255 . S
O1261 Eu1241 2.366 . S
O1261 C1243 1.265 . S
C1262 O1253 1.255 . S
C1262 O1254 1.265 . S
O1263 Tb1240 2.479 . S
O1263 C1250 1.238 . S
O1264 Tb1240 2.471 . S
O1264 C1250 1.247 . S
C1265 C1268 1.380 . S
C1265 C1269 1.374 . S
C1265 C1271 1.507 . S
C1266 C1267 1.387 . S
C1266 C1270 1.391 . S
C1267 C1266 1.387 . S
C1267 C1268 1.384 . S
C1267 H1276 0.930 . S
C1268 C1265 1.380 . S
C1268 C1267 1.384 . S
C1268 H1277 0.931 . S
C1269 C1265 1.374 . S
C1269 C1270 1.390 . S
C1269 H1278 0.930 . S
C1270 C1266 1.391 . S
C1270 C1269 1.390 . S
C1270 H1279 0.930 . S
C1271 Eu1241 2.825 . S
C1271 O1256 1.238 . S
C1271 O1257 1.247 . S
C1271 C1265 1.507 . S
H1272 C1245 0.930 . S
H1273 C1246 0.931 . S
H1274 C1247 0.930 . S
H1275 C1248 0.930 . S
H1276 C1267 0.930 . S
H1277 C1268 0.931 . S
H1278 C1269 0.930 . S
H1279 C1270 0.930 . S
Tb1280 C1290 2.825 . S
Tb1280 O1291 2.347 . S
Tb1280 O1294 2.366 . S
Tb1280 O1299 2.418 . S
Tb1280 O1300 2.384 . S
Tb1280 O1303 2.479 . S
Tb1280 O1304 2.471 . S
Eu1281 O1292 2.418 . S
Eu1281 O1293 2.384 . S
Eu1281 O1296 2.479 . S
Eu1281 O1297 2.471 . S
Eu1281 O1298 2.347 . S
Eu1281 O1301 2.366 . S
Eu1281 C1311 2.825 . S
C1282 O1298 1.259 . S
C1282 O1299 1.265 . S
C1283 O1300 1.255 . S
C1283 O1301 1.265 . S
C1284 C1286 1.380 . S
C1284 C1287 1.374 . S
C1284 C1290 1.507 . S
C1285 C1286 1.384 . S
C1285 C1289 1.387 . S
C1285 H1312 0.930 . S
C1286 C1284 1.380 . S
C1286 C1285 1.384 . S
C1286 H1313 0.931 . S
C1287 C1284 1.374 . S
C1287 C1288 1.390 . S
C1287 H1314 0.930 . S
C1288 C1287 1.390 . S
C1288 C1289 1.391 . S
C1288 H1315 0.930 . S
C1289 C1285 1.387 . S
C1289 C1288 1.391 . S
C1290 Tb1280 2.825 . S
C1290 C1284 1.507 . S
C1290 O1303 1.238 . S
C1290 O1304 1.247 . S
O1291 Tb1280 2.347 . S
O1291 C1295 1.259 . S
O1292 Eu1281 2.418 . S
O1292 C1295 1.265 . S
O1293 Eu1281 2.384 . S
O1293 C1302 1.255 . S
O1294 Tb1280 2.366 . S
O1294 C1302 1.265 . S
C1295 O1291 1.259 . S
C1295 O1292 1.265 . S
O1296 Eu1281 2.479 . S
O1296 C1311 1.238 . S
O1297 Eu1281 2.471 . S
O1297 C1311 1.247 . S
O1298 Eu1281 2.347 . S
O1298 C1282 1.259 . S
O1299 Tb1280 2.418 . S
O1299 C1282 1.265 . S
O1300 Tb1280 2.384 . S
O1300 C1283 1.255 . S
O1301 Eu1281 2.366 . S
O1301 C1283 1.265 . S
C1302 O1293 1.255 . S
C1302 O1294 1.265 . S
O1303 Tb1280 2.479 . S
O1303 C1290 1.238 . S
O1304 Tb1280 2.471 . S
O1304 C1290 1.247 . S
C1305 C1308 1.380 . S
C1305 C1309 1.374 . S
C1305 C1311 1.507 . S
C1306 C1307 1.387 . S
C1306 C1310 1.391 . S
C1307 C1306 1.387 . S
C1307 C1308 1.384 . S
C1307 H1316 0.930 . S
C1308 C1305 1.380 . S
C1308 C1307 1.384 . S
C1308 H1317 0.931 . S
C1309 C1305 1.374 . S
C1309 C1310 1.390 . S
C1309 H1318 0.930 . S
C1310 C1306 1.391 . S
C1310 C1309 1.390 . S
C1310 H1319 0.930 . S
C1311 Eu1281 2.825 . S
C1311 O1296 1.238 . S
C1311 O1297 1.247 . S
C1311 C1305 1.507 . S
H1312 C1285 0.930 . S
H1313 C1286 0.931 . S
H1314 C1287 0.930 . S
H1315 C1288 0.930 . S
H1316 C1307 0.930 . S
H1317 C1308 0.931 . S
H1318 C1309 0.930 . S
H1319 C1310 0.930 . S
Tb1320 C1330 2.825 . S
Tb1320 O1331 2.347 . S
Tb1320 O1334 2.366 . S
Tb1320 O1339 2.418 . S
Tb1320 O1340 2.384 . S
Tb1320 O1343 2.479 . S
Tb1320 O1344 2.471 . S
Eu1321 O1332 2.418 . S
Eu1321 O1333 2.384 . S
Eu1321 O1336 2.479 . S
Eu1321 O1337 2.471 . S
Eu1321 O1338 2.347 . S
Eu1321 O1341 2.366 . S
Eu1321 C1351 2.825 . S
C1322 O1338 1.259 . S
C1322 O1339 1.265 . S
C1323 O1340 1.255 . S
C1323 O1341 1.265 . S
C1324 C1326 1.380 . S
C1324 C1327 1.374 . S
C1324 C1330 1.507 . S
C1325 C1326 1.384 . S
C1325 C1329 1.387 . S
C1325 H1352 0.930 . S
C1326 C1324 1.380 . S
C1326 C1325 1.384 . S
C1326 H1353 0.931 . S
C1327 C1324 1.374 . S
C1327 C1328 1.390 . S
C1327 H1354 0.930 . S
C1328 C1327 1.390 . S
C1328 C1329 1.391 . S
C1328 H1355 0.930 . S
C1329 C1325 1.387 . S
C1329 C1328 1.391 . S
C1330 Tb1320 2.825 . S
C1330 C1324 1.507 . S
C1330 O1343 1.238 . S
C1330 O1344 1.247 . S
O1331 Tb1320 2.347 . S
O1331 C1335 1.259 . S
O1332 Eu1321 2.418 . S
O1332 C1335 1.265 . S
O1333 Eu1321 2.384 . S
O1333 C1342 1.255 . S
O1334 Tb1320 2.366 . S
O1334 C1342 1.265 . S
C1335 O1331 1.259 . S
C1335 O1332 1.265 . S
O1336 Eu1321 2.479 . S
O1336 C1351 1.238 . S
O1337 Eu1321 2.471 . S
O1337 C1351 1.247 . S
O1338 Eu1321 2.347 . S
O1338 C1322 1.259 . S
O1339 Tb1320 2.418 . S
O1339 C1322 1.265 . S
O1340 Tb1320 2.384 . S
O1340 C1323 1.255 . S
O1341 Eu1321 2.366 . S
O1341 C1323 1.265 . S
C1342 O1333 1.255 . S
C1342 O1334 1.265 . S
O1343 Tb1320 2.479 . S
O1343 C1330 1.238 . S
O1344 Tb1320 2.471 . S
O1344 C1330 1.247 . S
C1345 C1348 1.380 . S
C1345 C1349 1.374 . S
C1345 C1351 1.507 . S
C1346 C1347 1.387 . S
C1346 C1350 1.391 . S
C1347 C1346 1.387 . S
C1347 C1348 1.384 . S
C1347 H1356 0.930 . S
C1348 C1345 1.380 . S
C1348 C1347 1.384 . S
C1348 H1357 0.931 . S
C1349 C1345 1.374 . S
C1349 C1350 1.390 . S
C1349 H1358 0.930 . S
C1350 C1346 1.391 . S
C1350 C1349 1.390 . S
C1350 H1359 0.930 . S
C1351 Eu1321 2.825 . S
C1351 O1336 1.238 . S
C1351 O1337 1.247 . S
C1351 C1345 1.507 . S
H1352 C1325 0.930 . S
H1353 C1326 0.931 . S
H1354 C1327 0.930 . S
H1355 C1328 0.930 . S
H1356 C1347 0.930 . S
H1357 C1348 0.931 . S
H1358 C1349 0.930 . S
H1359 C1350 0.930 . S
Tb1360 C1370 2.825 . S
Tb1360 O1371 2.347 . S
Tb1360 O1374 2.366 . S
Tb1360 O1379 2.418 . S
Tb1360 O1380 2.384 . S
Tb1360 O1383 2.479 . S
Tb1360 O1384 2.471 . S
Eu1361 O1372 2.418 . S
Eu1361 O1373 2.384 . S
Eu1361 O1376 2.479 . S
Eu1361 O1377 2.471 . S
Eu1361 O1378 2.347 . S
Eu1361 O1381 2.366 . S
Eu1361 C1391 2.825 . S
C1362 O1378 1.259 . S
C1362 O1379 1.265 . S
C1363 O1380 1.255 . S
C1363 O1381 1.265 . S
C1364 C1366 1.380 . S
C1364 C1367 1.374 . S
C1364 C1370 1.507 . S
C1365 C1366 1.384 . S
C1365 C1369 1.387 . S
C1365 H1392 0.930 . S
C1366 C1364 1.380 . S
C1366 C1365 1.384 . S
C1366 H1393 0.931 . S
C1367 C1364 1.374 . S
C1367 C1368 1.390 . S
C1367 H1394 0.930 . S
C1368 C1367 1.390 . S
C1368 C1369 1.391 . S
C1368 H1395 0.930 . S
C1369 C1365 1.387 . S
C1369 C1368 1.391 . S
C1370 Tb1360 2.825 . S
C1370 C1364 1.507 . S
C1370 O1383 1.238 . S
C1370 O1384 1.247 . S
O1371 Tb1360 2.347 . S
O1371 C1375 1.259 . S
O1372 Eu1361 2.418 . S
O1372 C1375 1.265 . S
O1373 Eu1361 2.384 . S
O1373 C1382 1.255 . S
O1374 Tb1360 2.366 . S
O1374 C1382 1.265 . S
C1375 O1371 1.259 . S
C1375 O1372 1.265 . S
O1376 Eu1361 2.479 . S
O1376 C1391 1.238 . S
O1377 Eu1361 2.471 . S
O1377 C1391 1.247 . S
O1378 Eu1361 2.347 . S
O1378 C1362 1.259 . S
O1379 Tb1360 2.418 . S
O1379 C1362 1.265 . S
O1380 Tb1360 2.384 . S
O1380 C1363 1.255 . S
O1381 Eu1361 2.366 . S
O1381 C1363 1.265 . S
C1382 O1373 1.255 . S
C1382 O1374 1.265 . S
O1383 Tb1360 2.479 . S
O1383 C1370 1.238 . S
O1384 Tb1360 2.471 . S
O1384 C1370 1.247 . S
C1385 C1388 1.380 . S
C1385 C1389 1.374 . S
C1385 C1391 1.507 . S
C1386 C1387 1.387 . S
C1386 C1390 1.391 . S
C1387 C1386 1.387 . S
C1387 C1388 1.384 . S
C1387 H1396 0.930 . S
C1388 C1385 1.380 . S
C1388 C1387 1.384 . S
C1388 H1397 0.931 . S
C1389 C1385 1.374 . S
C1389 C1390 1.390 . S
C1389 H1398 0.930 . S
C1390 C1386 1.391 . S
C1390 C1389 1.390 . S
C1390 H1399 0.930 . S
C1391 Eu1361 2.825 . S
C1391 O1376 1.238 . S
C1391 O1377 1.247 . S
C1391 C1385 1.507 . S
H1392 C1365 0.930 . S
H1393 C1366 0.931 . S
H1394 C1367 0.930 . S
H1395 C1368 0.930 . S
H1396 C1387 0.930 . S
H1397 C1388 0.931 . S
H1398 C1389 0.930 . S
H1399 C1390 0.930 . S
Tb1400 C1410 2.825 . S
Tb1400 O1411 2.347 . S
Tb1400 O1414 2.366 . S
Tb1400 O1419 2.418 . S
Tb1400 O1420 2.384 . S
Tb1400 O1423 2.479 . S
Tb1400 O1424 2.471 . S
Eu1401 O1412 2.418 . S
Eu1401 O1413 2.384 . S
Eu1401 O1416 2.479 . S
Eu1401 O1417 2.471 . S
Eu1401 O1418 2.347 . S
Eu1401 O1421 2.366 . S
Eu1401 C1431 2.825 . S
C1402 O1418 1.259 . S
C1402 O1419 1.265 . S
C1403 O1420 1.255 . S
C1403 O1421 1.265 . S
C1404 C1406 1.380 . S
C1404 C1407 1.374 . S
C1404 C1410 1.507 . S
C1405 C1406 1.384 . S
C1405 C1409 1.387 . S
C1405 H1432 0.930 . S
C1406 C1404 1.380 . S
C1406 C1405 1.384 . S
C1406 H1433 0.931 . S
C1407 C1404 1.374 . S
C1407 C1408 1.390 . S
C1407 H1434 0.930 . S
C1408 C1407 1.390 . S
C1408 C1409 1.391 . S
C1408 H1435 0.930 . S
C1409 C1405 1.387 . S
C1409 C1408 1.391 . S
C1410 Tb1400 2.825 . S
C1410 C1404 1.507 . S
C1410 O1423 1.238 . S
C1410 O1424 1.247 . S
O1411 Tb1400 2.347 . S
O1411 C1415 1.259 . S
O1412 Eu1401 2.418 . S
O1412 C1415 1.265 . S
O1413 Eu1401 2.384 . S
O1413 C1422 1.255 . S
O1414 Tb1400 2.366 . S
O1414 C1422 1.265 . S
C1415 O1411 1.259 . S
C1415 O1412 1.265 . S
O1416 Eu1401 2.479 . S
O1416 C1431 1.238 . S
O1417 Eu1401 2.471 . S
O1417 C1431 1.247 . S
O1418 Eu1401 2.347 . S
O1418 C1402 1.259 . S
O1419 Tb1400 2.418 . S
O1419 C1402 1.265 . S
O1420 Tb1400 2.384 . S
O1420 C1403 1.255 . S
O1421 Eu1401 2.366 . S
O1421 C1403 1.265 . S
C1422 O1413 1.255 . S
C1422 O1414 1.265 . S
O1423 Tb1400 2.479 . S
O1423 C1410 1.238 . S
O1424 Tb1400 2.471 . S
O1424 C1410 1.247 . S
C1425 C1428 1.380 . S
C1425 C1429 1.374 . S
C1425 C1431 1.507 . S
C1426 C1427 1.387 . S
C1426 C1430 1.391 . S
C1427 C1426 1.387 . S
C1427 C1428 1.384 . S
C1427 H1436 0.930 . S
C1428 C1425 1.380 . S
C1428 C1427 1.384 . S
C1428 H1437 0.931 . S
C1429 C1425 1.374 . S
C1429 C1430 1.390 . S
C1429 H1438 0.930 . S
C1430 C1426 1.391 . S
C1430 C1429 1.390 . S
C1430 H1439 0.930 . S
C1431 Eu1401 2.825 . S
C1431 O1416 1.238 . S
C1431 O1417 1.247 . S
C1431 C1425 1.507 . S
H1432 C1405 0.930 . S
H1433 C1406 0.931 . S
H1434 C1407 0.930 . S
H1435 C1408 0.930 . S
H1436 C1427 0.930 . S
H1437 C1428 0.931 . S
H1438 C1429 0.930 . S
H1439 C1430 0.930 . S
C1440 C1441 1.369 . S
C1440 C1442 1.419 . S
C1440 H1444 0.930 . S
C1441 C1440 1.369 . S
C1441 C1450 1.429 . S
C1442 C1440 1.419 . S
C1442 C1443 1.363 . S
C1442 H1445 0.929 . S
C1443 C1442 1.363 . S
C1443 C1449 1.428 . S
H1444 C1440 0.930 . S
H1445 C1442 0.929 . S
S1446 N1447 1.597 1_545 S
S1446 N1448 1.579 1_545 S
N1447 S1446 1.597 1_565 S
N1447 C1450 1.350 . S
N1448 S1446 1.579 1_565 S
N1448 C1449 1.351 . S
C1449 C1443 1.428 . S
C1449 N1448 1.351 . S
C1449 C1450 1.434 . S
C1450 C1441 1.429 . S
C1450 N1447 1.350 . S
C1450 C1449 1.434 . S
C1451 C1452 1.369 . S
C1451 C1453 1.419 . S
C1451 H1455 0.930 . S
C1452 C1451 1.369 . S
C1452 C1461 1.429 . S
C1453 C1451 1.419 . S
C1453 C1454 1.363 . S
C1453 H1456 0.929 . S
C1454 C1453 1.363 . S
C1454 C1460 1.428 . S
H1455 C1451 0.930 . S
H1456 C1453 0.929 . S
S1457 N1458 1.613 . S
S1457 N1459 1.610 . S
N1458 S1457 1.613 . S
N1458 C1461 1.350 . S
N1459 S1457 1.610 . S
N1459 C1460 1.351 . S
C1460 C1454 1.428 . S
C1460 N1459 1.351 . S
C1460 C1461 1.434 . S
C1461 C1452 1.429 . S
C1461 N1458 1.350 . S
C1461 C1460 1.434 . S
C1462 C1463 1.369 . S
C1462 C1464 1.419 . S
C1462 H1466 0.930 . S
C1463 C1462 1.369 . S
C1463 C1472 1.450 . S
C1464 C1462 1.419 . S
C1464 C1465 1.363 . S
C1464 H1467 0.929 . S
C1465 C1464 1.363 . S
C1465 C1471 1.390 1_554 S
H1466 C1462 0.930 . S
H1467 C1464 0.929 . S
S1468 N1469 1.613 . S
S1468 N1470 1.610 . S
N1469 S1468 1.613 . S
N1469 C1472 1.325 1_556 S
N1470 S1468 1.610 . S
N1470 C1471 1.391 . S
C1471 C1465 1.390 1_556 S
C1471 N1470 1.391 . S
C1471 C1472 1.440 1_556 S
C1472 C1463 1.450 . S
C1472 N1469 1.325 1_554 S
C1472 C1471 1.440 1_554 S
C1473 C1474 1.369 . S
C1473 C1475 1.419 . S
C1473 H1477 0.930 . S
C1474 C1473 1.369 . S
C1474 C1483 1.429 . S
C1475 C1473 1.419 . S
C1475 C1476 1.363 . S
C1475 H1478 0.929 . S
C1476 C1475 1.363 . S
C1476 C1482 1.428 . S
H1477 C1473 0.930 . S
H1478 C1475 0.929 . S
S1479 N1480 1.613 . S
S1479 N1481 1.610 . S
N1480 S1479 1.613 . S
N1480 C1483 1.350 1_554 S
N1481 S1479 1.610 . S
N1481 C1482 1.351 1_554 S
C1482 C1476 1.428 . S
C1482 N1481 1.351 1_556 S
C1482 C1483 1.434 . S
C1483 C1474 1.429 . S
C1483 N1480 1.350 1_556 S
C1483 C1482 1.434 . S
C1484 C1485 1.369 . S
C1484 C1486 1.419 . S
C1484 H1488 0.930 . S
C1485 C1484 1.369 . S
C1485 C1494 1.429 . S
C1486 C1484 1.419 . S
C1486 C1487 1.363 . S
C1486 H1489 0.929 . S
C1487 C1486 1.363 . S
C1487 C1493 1.428 . S
H1488 C1484 0.930 . S
H1489 C1486 0.929 . S
S1490 N1491 1.613 . S
S1490 N1492 1.610 . S
N1491 S1490 1.613 . S
N1491 C1494 1.350 . S
N1492 S1490 1.610 . S
N1492 C1493 1.351 . S
C1493 C1487 1.428 . S
C1493 N1492 1.351 . S
C1493 C1494 1.434 . S
C1494 C1485 1.429 . S
C1494 N1491 1.350 . S
C1494 C1493 1.434 . S
C1495 C1496 1.369 . S
C1495 C1497 1.419 . S
C1495 H1499 0.930 . S
C1496 C1495 1.369 . S
C1496 C1505 1.429 . S
C1497 C1495 1.419 . S
C1497 C1498 1.363 . S
C1497 H1500 0.929 . S
C1498 C1497 1.363 . S
C1498 C1504 1.428 . S
H1499 C1495 0.930 . S
H1500 C1497 0.929 . S
S1501 N1502 1.613 . S
S1501 N1503 1.610 . S
N1502 S1501 1.613 . S
N1502 C1505 1.350 1_554 S
N1503 S1501 1.610 . S
N1503 C1504 1.351 1_554 S
C1504 C1498 1.428 . S
C1504 N1503 1.351 1_556 S
C1504 C1505 1.434 . S
C1505 C1496 1.429 . S
C1505 N1502 1.350 1_556 S
C1505 C1504 1.434 . S
C1506 C1507 1.369 . S
C1506 C1508 1.419 . S
C1506 H1510 0.930 . S
C1507 C1506 1.369 . S
C1507 C1516 1.429 . S
C1508 C1506 1.419 . S
C1508 C1509 1.363 . S
C1508 H1511 0.929 . S
C1509 C1508 1.363 . S
C1509 C1515 1.428 . S
H1510 C1506 0.930 . S
H1511 C1508 0.929 . S
S1512 N1513 1.613 . S
S1512 N1514 1.610 . S
N1513 S1512 1.613 . S
N1513 C1516 1.350 1_554 S
N1514 S1512 1.610 . S
N1514 C1515 1.351 1_554 S
C1515 C1509 1.428 . S
C1515 N1514 1.351 1_556 S
C1515 C1516 1.434 . S
C1516 C1507 1.429 . S
C1516 N1513 1.350 1_556 S
C1516 C1515 1.434 . S
C1517 C1518 1.369 . S
C1517 C1519 1.419 . S
C1517 H1521 0.930 . S
C1518 C1517 1.369 . S
C1518 C1527 1.429 . S
C1519 C1517 1.419 . S
C1519 C1520 1.363 . S
C1519 H1522 0.929 . S
C1520 C1519 1.363 . S
C1520 C1526 1.428 . S
H1521 C1517 0.930 . S
H1522 C1519 0.929 . S
S1523 N1524 1.613 . S
S1523 N1525 1.610 . S
N1524 S1523 1.613 . S
N1524 C1527 1.350 . S
N1525 S1523 1.610 . S
N1525 C1526 1.351 . S
C1526 C1520 1.428 . S
C1526 N1525 1.351 . S
C1526 C1527 1.434 . S
C1527 C1518 1.429 . S
C1527 N1524 1.350 . S
C1527 C1526 1.434 . S
C1528 C1529 1.369 . S
C1528 C1530 1.419 . S
C1528 H1532 0.930 . S
C1529 C1528 1.369 . S
C1529 C1538 1.429 1_556 S
C1530 C1528 1.419 . S
C1530 C1531 1.363 . S
C1530 H1533 0.929 . S
C1531 C1530 1.363 . S
C1531 C1537 1.428 1_556 S
H1532 C1528 0.930 . S
H1533 C1530 0.929 . S
S1534 N1535 1.613 . S
S1534 N1536 1.610 . S
N1535 S1534 1.613 . S
N1535 C1538 1.350 . S
N1536 S1534 1.610 . S
N1536 C1537 1.351 . S
C1537 C1531 1.428 1_554 S
C1537 N1536 1.351 . S
C1537 C1538 1.434 . S
C1538 C1529 1.429 1_554 S
C1538 N1535 1.350 . S
C1538 C1537 1.434 . S
C1539 C1540 1.369 . S
C1539 C1541 1.419 . S
C1539 H1543 0.930 . S
C1540 C1539 1.369 . S
C1540 C1549 1.429 . S
C1541 C1539 1.419 . S
C1541 C1542 1.363 . S
C1541 H1544 0.929 . S
C1542 C1541 1.363 . S
C1542 C1548 1.428 . S
H1543 C1539 0.930 . S
H1544 C1541 0.929 . S
S1545 N1546 1.613 . S
S1545 N1547 1.610 . S
N1546 S1545 1.613 . S
N1546 C1549 1.350 . S
N1547 S1545 1.610 . S
N1547 C1548 1.351 . S
C1548 C1542 1.428 . S
C1548 N1547 1.351 . S
C1548 C1549 1.434 . S
C1549 C1540 1.429 . S
C1549 N1546 1.350 . S
C1549 C1548 1.434 . S
C1550 C1551 1.369 . S
C1550 C1552 1.419 . S
C1550 H1554 0.930 . S
C1551 C1550 1.369 . S
C1551 C1560 1.429 . S
C1552 C1550 1.419 . S
C1552 C1553 1.363 . S
C1552 H1555 0.929 . S
C1553 C1552 1.363 . S
C1553 C1559 1.428 . S
H1554 C1550 0.930 . S
H1555 C1552 0.929 . S
S1556 N1557 1.613 . S
S1556 N1558 1.610 . S
N1557 S1556 1.613 . S
N1557 C1560 1.350 . S
N1558 S1556 1.610 . S
N1558 C1559 1.351 . S
C1559 C1553 1.428 . S
C1559 N1558 1.351 . S
C1559 C1560 1.434 . S
C1560 C1551 1.429 . S
C1560 N1557 1.350 . S
C1560 C1559 1.434 . S
C1561 C1562 1.369 . S
C1561 C1563 1.419 . S
C1561 H1565 0.930 . S
C1562 C1561 1.369 . S
C1562 C1571 1.429 . S
C1563 C1561 1.419 . S
C1563 C1564 1.363 . S
C1563 H1566 0.929 . S
C1564 C1563 1.363 . S
C1564 C1570 1.428 . S
H1565 C1561 0.930 . S
H1566 C1563 0.929 . S
S1567 N1568 1.613 1_545 S
S1567 N1569 1.610 . S
N1568 S1567 1.613 1_565 S
N1568 C1571 1.350 . S
N1569 S1567 1.610 . S
N1569 C1570 1.351 1_545 S
C1570 C1564 1.428 . S
C1570 N1569 1.351 1_565 S
C1570 C1571 1.434 . S
C1571 C1562 1.429 . S
C1571 N1568 1.350 . S
C1571 C1570 1.434 . S
C1572 C1573 1.369 . S
C1572 C1574 1.419 . S
C1572 H1576 0.930 . S
C1573 C1572 1.369 . S
C1573 C1582 1.429 . S
C1574 C1572 1.419 . S
C1574 C1575 1.363 . S
C1574 H1577 0.929 . S
C1575 C1574 1.363 . S
C1575 C1581 1.428 . S
H1576 C1572 0.930 . S
H1577 C1574 0.929 . S
S1578 N1579 1.613 . S
S1578 N1580 1.610 . S
N1579 S1578 1.613 . S
N1579 C1582 1.350 . S
N1580 S1578 1.610 . S
N1580 C1581 1.351 . S
C1581 C1575 1.428 . S
C1581 N1580 1.351 . S
C1581 C1582 1.434 . S
C1582 C1573 1.429 . S
C1582 N1579 1.350 . S
C1582 C1581 1.434 . S
C1583 C1584 1.369 . S
C1583 C1585 1.419 . S
C1583 H1587 0.930 . S
C1584 C1583 1.369 . S
C1584 C1593 1.429 . S
C1585 C1583 1.419 . S
C1585 C1586 1.363 . S
C1585 H1588 0.929 . S
C1586 C1585 1.363 . S
C1586 C1592 1.428 . S
H1587 C1583 0.930 . S
H1588 C1585 0.929 . S
S1589 N1590 1.613 . S
S1589 N1591 1.610 . S
N1590 S1589 1.613 . S
N1590 C1593 1.350 . S
N1591 S1589 1.610 . S
N1591 C1592 1.351 . S
C1592 C1586 1.428 . S
C1592 N1591 1.351 . S
C1592 C1593 1.434 . S
C1593 C1584 1.429 . S
C1593 N1590 1.350 . S
C1593 C1592 1.434 . S
C1594 C1595 1.369 1_565 S
C1594 C1596 1.419 . S
C1594 H1598 0.930 1_565 S
C1595 C1594 1.369 1_545 S
C1595 C1604 1.429 1_545 S
C1596 C1594 1.419 . S
C1596 C1597 1.363 . S
C1596 H1599 0.929 . S
C1597 C1596 1.363 . S
C1597 C1603 1.428 . S
H1598 C1594 0.930 1_545 S
H1599 C1596 0.929 . S
S1600 N1601 1.613 . S
S1600 N1602 1.610 . S
N1601 S1600 1.613 . S
N1601 C1604 1.350 . S
N1602 S1600 1.610 . S
N1602 C1603 1.351 . S
C1603 C1597 1.428 . S
C1603 N1602 1.351 . S
C1603 C1604 1.434 . S
C1604 C1595 1.429 1_565 S
C1604 N1601 1.350 . S
C1604 C1603 1.434 . S
C1605 C1606 1.369 . S
C1605 C1607 1.419 . S
C1605 H1609 0.930 . S
C1606 C1605 1.369 . S
C1606 C1615 1.429 . S
C1607 C1605 1.419 . S
C1607 C1608 1.363 . S
C1607 H1610 0.929 . S
C1608 C1607 1.363 . S
C1608 C1614 1.428 . S
H1609 C1605 0.930 . S
H1610 C1607 0.929 . S
S1611 N1612 1.613 . S
S1611 N1613 1.610 . S
N1612 S1611 1.613 . S
N1612 C1615 1.350 . S
N1613 S1611 1.610 . S
N1613 C1614 1.351 . S
C1614 C1608 1.428 . S
C1614 N1613 1.351 . S
C1614 C1615 1.434 . S
C1615 C1606 1.429 . S
C1615 N1612 1.350 . S
C1615 C1614 1.434 . S
C1616 C1617 1.369 . S
C1616 C1618 1.419 . S
C1616 H1620 0.930 . S
C1617 C1616 1.369 . S
C1617 C1626 1.429 . S
C1618 C1616 1.419 . S
C1618 C1619 1.363 . S
C1618 H1621 0.929 . S
C1619 C1618 1.363 . S
C1619 C1625 1.428 . S
H1620 C1616 0.930 . S
H1621 C1618 0.929 . S
S1622 N1623 1.613 . S
S1622 N1624 1.610 . S
N1623 S1622 1.613 . S
N1623 C1626 1.350 . S
N1624 S1622 1.610 . S
N1624 C1625 1.351 . S
C1625 C1619 1.428 . S
C1625 N1624 1.351 . S
C1625 C1626 1.434 . S
C1626 C1617 1.429 . S
C1626 N1623 1.350 . S
C1626 C1625 1.434 . S
C1627 C1628 1.369 . S
C1627 C1629 1.419 . S
C1627 H1631 0.930 . S
C1628 C1627 1.369 . S
C1628 C1637 1.429 . S
C1629 C1627 1.419 . S
C1629 C1630 1.363 . S
C1629 H1632 0.929 . S
C1630 C1629 1.363 . S
C1630 C1636 1.428 . S
H1631 C1627 0.930 . S
H1632 C1629 0.929 . S
S1633 N1634 1.613 . S
S1633 N1635 1.610 . S
N1634 S1633 1.613 . S
N1634 C1637 1.350 . S
N1635 S1633 1.610 . S
N1635 C1636 1.351 . S
C1636 C1630 1.428 . S
C1636 N1635 1.351 . S
C1636 C1637 1.434 . S
C1637 C1628 1.429 . S
C1637 N1634 1.350 . S
C1637 C1636 1.434 . S
C1638 C1639 1.369 . S
C1638 C1640 1.419 . S
C1638 H1642 0.930 . S
C1639 C1638 1.369 . S
C1639 C1648 1.429 . S
C1640 C1638 1.419 . S
C1640 C1641 1.363 . S
C1640 H1643 0.929 . S
C1641 C1640 1.363 . S
C1641 C1647 1.428 . S
H1642 C1638 0.930 . S
H1643 C1640 0.929 . S
S1644 N1645 1.613 . S
S1644 N1646 1.610 . S
N1645 S1644 1.613 . S
N1645 C1648 1.350 . S
N1646 S1644 1.610 . S
N1646 C1647 1.351 . S
C1647 C1641 1.428 . S
C1647 N1646 1.351 . S
C1647 C1648 1.434 . S
C1648 C1639 1.429 . S
C1648 N1645 1.350 . S
C1648 C1647 1.434 . S
C1649 C1650 1.369 . S
C1649 C1651 1.419 . S
C1649 H1653 0.930 . S
C1650 C1649 1.369 . S
C1650 C1659 1.429 . S
C1651 C1649 1.419 . S
C1651 C1652 1.363 . S
C1651 H1654 0.929 . S
C1652 C1651 1.363 . S
C1652 C1658 1.428 . S
H1653 C1649 0.930 . S
H1654 C1651 0.929 . S
S1655 N1656 1.613 . S
S1655 N1657 1.610 . S
N1656 S1655 1.613 . S
N1656 C1659 1.350 . S
N1657 S1655 1.610 . S
N1657 C1658 1.351 . S
C1658 C1652 1.428 . S
C1658 N1657 1.351 . S
C1658 C1659 1.434 . S
C1659 C1650 1.429 . S
C1659 N1656 1.350 . S
C1659 C1658 1.434 . S
C1660 C1661 1.369 . S
C1660 C1662 1.419 . S
C1660 H1664 0.930 . S
C1661 C1660 1.369 . S
C1661 C1670 1.429 . S
C1662 C1660 1.419 . S
C1662 C1663 1.363 . S
C1662 H1665 0.929 . S
C1663 C1662 1.363 . S
C1663 C1669 1.428 . S
H1664 C1660 0.930 . S
H1665 C1662 0.929 . S
S1666 N1667 1.613 . S
S1666 N1668 1.610 . S
N1667 S1666 1.613 . S
N1667 C1670 1.350 . S
N1668 S1666 1.610 . S
N1668 C1669 1.351 . S
C1669 C1663 1.428 . S
C1669 N1668 1.351 . S
C1669 C1670 1.434 . S
C1670 C1661 1.429 . S
C1670 N1667 1.350 . S
C1670 C1669 1.434 . S
C1671 C1672 1.369 1_565 S
C1671 C1673 1.419 . S
C1671 H1675 0.930 . S
C1672 C1671 1.369 1_545 S
C1672 C1681 1.429 1_545 S
C1673 C1671 1.419 . S
C1673 C1674 1.363 . S
C1673 H1676 0.929 . S
C1674 C1673 1.363 . S
C1674 C1680 1.428 . S
H1675 C1671 0.930 . S
H1676 C1673 0.929 . S
S1677 N1678 1.613 . S
S1677 N1679 1.610 . S
N1678 S1677 1.613 . S
N1678 C1681 1.350 . S
N1679 S1677 1.610 . S
N1679 C1680 1.351 . S
C1680 C1674 1.428 . S
C1680 N1679 1.351 . S
C1680 C1681 1.434 . S
C1681 C1672 1.429 1_565 S
C1681 N1678 1.350 . S
C1681 C1680 1.434 . S
C1682 C1683 1.369 . S
C1682 C1684 1.419 . S
C1682 H1686 0.930 . S
C1683 C1682 1.369 . S
C1683 C1692 1.429 . S
C1684 C1682 1.419 . S
C1684 C1685 1.363 . S
C1684 H1687 0.929 . S
C1685 C1684 1.363 . S
C1685 C1691 1.428 . S
H1686 C1682 0.930 . S
H1687 C1684 0.929 . S
S1688 N1689 1.613 1_455 S
S1688 N1690 1.610 . S
N1689 S1688 1.613 1_655 S
N1689 C1692 1.350 1_655 S
N1690 S1688 1.610 . S
N1690 C1691 1.351 . S
C1691 C1685 1.428 . S
C1691 N1690 1.351 . S
C1691 C1692 1.434 . S
C1692 C1683 1.429 . S
C1692 N1689 1.350 1_455 S
C1692 C1691 1.434 . S
C1693 C1694 1.369 . S
C1693 C1695 1.419 . S
C1693 H1697 0.930 . S
C1694 C1693 1.369 . S
C1694 C1703 1.429 . S
C1695 C1693 1.419 . S
C1695 C1696 1.363 . S
C1695 H1698 0.929 . S
C1696 C1695 1.363 . S
C1696 C1702 1.428 . S
H1697 C1693 0.930 . S
H1698 C1695 0.929 . S
S1699 N1700 1.613 . S
S1699 N1701 1.610 . S
N1700 S1699 1.613 . S
N1700 C1703 1.350 . S
N1701 S1699 1.610 . S
N1701 C1702 1.351 . S
C1702 C1696 1.428 . S
C1702 N1701 1.351 . S
C1702 C1703 1.434 . S
C1703 C1694 1.429 . S
C1703 N1700 1.350 . S
C1703 C1702 1.434 . S
C1704 C1705 1.369 . S
C1704 C1706 1.419 . S
C1704 H1708 0.930 . S
C1705 C1704 1.369 . S
C1705 C1714 1.429 . S
C1706 C1704 1.419 . S
C1706 C1707 1.363 . S
C1706 H1709 0.929 . S
C1707 C1706 1.363 . S
C1707 C1713 1.428 . S
H1708 C1704 0.930 . S
H1709 C1706 0.929 . S
S1710 N1711 1.613 . S
S1710 N1712 1.610 . S
N1711 S1710 1.613 . S
N1711 C1714 1.350 . S
N1712 S1710 1.610 . S
N1712 C1713 1.351 . S
C1713 C1707 1.428 . S
C1713 N1712 1.351 . S
C1713 C1714 1.434 . S
C1714 C1705 1.429 . S
C1714 N1711 1.350 . S
C1714 C1713 1.434 . S
C1715 C1716 1.369 . S
C1715 C1717 1.419 . S
C1715 H1719 0.930 . S
C1716 C1715 1.369 . S
C1716 C1725 1.429 . S
C1717 C1715 1.419 . S
C1717 C1718 1.363 . S
C1717 H1720 0.929 . S
C1718 C1717 1.363 . S
C1718 C1724 1.428 . S
H1719 C1715 0.930 . S
H1720 C1717 0.929 . S
S1721 N1722 1.613 . S
S1721 N1723 1.610 . S
N1722 S1721 1.613 . S
N1722 C1725 1.350 . S
N1723 S1721 1.610 . S
N1723 C1724 1.351 . S
C1724 C1718 1.428 . S
C1724 N1723 1.351 . S
C1724 C1725 1.434 . S
C1725 C1716 1.429 . S
C1725 N1722 1.350 . S
C1725 C1724 1.434 . S
C1726 C1727 1.369 . S
C1726 C1728 1.419 . S
C1726 H1730 0.930 . S
C1727 C1726 1.369 . S
C1727 C1736 1.429 . S
C1728 C1726 1.419 . S
C1728 C1729 1.363 . S
C1728 H1731 0.929 . S
C1729 C1728 1.363 . S
C1729 C1735 1.428 . S
H1730 C1726 0.930 . S
H1731 C1728 0.929 . S
S1732 N1733 1.613 . S
S1732 N1734 1.610 . S
N1733 S1732 1.613 . S
N1733 C1736 1.350 . S
N1734 S1732 1.610 . S
N1734 C1735 1.351 . S
C1735 C1729 1.428 . S
C1735 N1734 1.351 . S
C1735 C1736 1.434 . S
C1736 C1727 1.429 . S
C1736 N1733 1.350 . S
C1736 C1735 1.434 . S
C1737 C1738 1.369 1_545 S
C1737 C1739 1.419 . S
C1737 H1741 0.932 . S
C1738 C1737 1.369 1_565 S
C1738 C1747 1.429 1_565 S
C1739 C1737 1.419 . S
C1739 C1740 1.363 . S
C1739 H1742 0.929 . S
C1740 C1739 1.363 . S
C1740 C1746 1.428 . S
H1741 C1737 0.932 . S
H1742 C1739 0.929 . S
S1743 N1744 1.613 . S
S1743 N1745 1.610 . S
N1744 S1743 1.613 . S
N1744 C1747 1.350 . S
N1745 S1743 1.610 . S
N1745 C1746 1.351 . S
C1746 C1740 1.428 . S
C1746 N1745 1.351 . S
C1746 C1747 1.434 . S
C1747 C1738 1.429 1_545 S
C1747 N1744 1.350 . S
C1747 C1746 1.434 . S
C1748 C1749 1.369 . S
C1748 C1750 1.419 . S
C1748 H1752 0.930 . S
C1749 C1748 1.369 . S
C1749 C1758 1.429 . S
C1750 C1748 1.419 . S
C1750 C1751 1.363 . S
C1750 H1753 0.929 . S
C1751 C1750 1.363 . S
C1751 C1757 1.428 . S
H1752 C1748 0.930 . S
H1753 C1750 0.929 . S
S1754 N1755 1.613 . S
S1754 N1756 1.610 . S
N1755 S1754 1.613 . S
N1755 C1758 1.350 . S
N1756 S1754 1.610 . S
N1756 C1757 1.351 . S
C1757 C1751 1.428 . S
C1757 N1756 1.351 . S
C1757 C1758 1.434 . S
C1758 C1749 1.429 . S
C1758 N1755 1.350 . S
C1758 C1757 1.434 . S
C1759 C1760 1.369 . S
C1759 C1761 1.419 . S
C1759 H1763 0.930 . S
C1760 C1759 1.369 . S
C1760 C1769 1.429 . S
C1761 C1759 1.419 . S
C1761 C1762 1.363 . S
C1761 H1764 0.929 . S
C1762 C1761 1.363 . S
C1762 C1768 1.428 . S
H1763 C1759 0.930 . S
H1764 C1761 0.929 . S
S1765 N1766 1.613 . S
S1765 N1767 1.610 . S
N1766 S1765 1.613 . S
N1766 C1769 1.350 . S
N1767 S1765 1.610 . S
N1767 C1768 1.351 . S
C1768 C1762 1.428 . S
C1768 N1767 1.351 . S
C1768 C1769 1.434 . S
C1769 C1760 1.429 . S
C1769 N1766 1.350 . S
C1769 C1768 1.434 . S
C1770 C1771 1.369 . S
C1770 C1772 1.419 . S
C1770 H1774 0.930 . S
C1771 C1770 1.369 . S
C1771 C1780 1.429 . S
C1772 C1770 1.419 . S
C1772 C1773 1.363 . S
C1772 H1775 0.929 . S
C1773 C1772 1.363 . S
C1773 C1779 1.428 . S
H1774 C1770 0.930 . S
H1775 C1772 0.929 . S
S1776 N1777 1.613 1_655 S
S1776 N1778 1.610 . S
N1777 S1776 1.613 1_455 S
N1777 C1780 1.350 1_455 S
N1778 S1776 1.610 . S
N1778 C1779 1.351 . S
C1779 C1773 1.428 . S
C1779 N1778 1.351 . S
C1779 C1780 1.434 . S
C1780 C1771 1.429 . S
C1780 N1777 1.350 1_655 S
C1780 C1779 1.434 . S
C1781 C1782 1.369 . S
C1781 C1783 1.419 . S
C1781 H1785 0.930 . S
C1782 C1781 1.369 . S
C1782 C1791 1.429 . S
C1783 C1781 1.419 . S
C1783 C1784 1.363 . S
C1783 H1786 0.929 . S
C1784 C1783 1.363 . S
C1784 C1790 1.428 . S
H1785 C1781 0.930 . S
H1786 C1783 0.929 . S
S1787 N1788 1.613 . S
S1787 N1789 1.610 . S
N1788 S1787 1.613 . S
N1788 C1791 1.350 . S
N1789 S1787 1.610 . S
N1789 C1790 1.351 . S
C1790 C1784 1.428 . S
C1790 N1789 1.351 . S
C1790 C1791 1.434 . S
C1791 C1782 1.429 . S
C1791 N1788 1.350 . S
C1791 C1790 1.434 . S
C1792 C1793 1.369 1_545 S
C1792 C1794 1.419 . S
C1792 H1796 0.930 . S
C1793 C1792 1.369 1_565 S
C1793 C1802 1.429 1_565 S
C1794 C1792 1.419 . S
C1794 C1795 1.363 . S
C1794 H1797 0.929 . S
C1795 C1794 1.363 . S
C1795 C1801 1.428 . S
H1796 C1792 0.930 . S
H1797 C1794 0.929 . S
S1798 N1799 1.613 1_545 S
S1798 N1800 1.610 . S
N1799 S1798 1.613 1_565 S
N1799 C1802 1.350 1_565 S
N1800 S1798 1.610 . S
N1800 C1801 1.351 . S
C1801 C1795 1.428 . S
C1801 N1800 1.351 . S
C1801 C1802 1.434 . S
C1802 C1793 1.429 1_545 S
C1802 N1799 1.350 1_545 S
C1802 C1801 1.434 . S
C1803 C1804 1.369 . S
C1803 C1805 1.419 . S
C1803 H1807 0.930 . S
C1804 C1803 1.369 . S
C1804 C1813 1.429 . S
C1805 C1803 1.419 . S
C1805 C1806 1.363 . S
C1805 H1808 0.929 . S
C1806 C1805 1.363 . S
C1806 C1812 1.428 . S
H1807 C1803 0.930 . S
H1808 C1805 0.929 . S
S1809 N1810 1.613 . S
S1809 N1811 1.610 . S
N1810 S1809 1.613 . S
N1810 C1813 1.350 . S
N1811 S1809 1.610 . S
N1811 C1812 1.351 . S
C1812 C1806 1.428 . S
C1812 N1811 1.351 . S
C1812 C1813 1.434 . S
C1813 C1804 1.429 . S
C1813 N1810 1.350 . S
C1813 C1812 1.434 . S
C1814 C1815 1.369 . S
C1814 C1816 1.419 . S
C1814 H1818 0.930 . S
C1815 C1814 1.369 . S
C1815 C1824 1.429 . S
C1816 C1814 1.419 . S
C1816 C1817 1.363 . S
C1816 H1819 0.929 . S
C1817 C1816 1.363 . S
C1817 C1823 1.428 . S
H1818 C1814 0.930 . S
H1819 C1816 0.929 . S
S1820 N1821 1.613 . S
S1820 N1822 1.610 . S
N1821 S1820 1.613 . S
N1821 C1824 1.350 . S
N1822 S1820 1.610 . S
N1822 C1823 1.351 . S
C1823 C1817 1.428 . S
C1823 N1822 1.351 . S
C1823 C1824 1.434 . S
C1824 C1815 1.429 . S
C1824 N1821 1.350 . S
C1824 C1823 1.434 . S
C1825 C1826 1.369 . S
C1825 C1827 1.419 . S
C1825 H1829 0.930 . S
C1826 C1825 1.369 . S
C1826 C1835 1.429 . S
C1827 C1825 1.419 . S
C1827 C1828 1.363 . S
C1827 H1830 0.929 . S
C1828 C1827 1.363 . S
C1828 C1834 1.428 . S
H1829 C1825 0.930 . S
H1830 C1827 0.929 . S
S1831 N1832 1.613 . S
S1831 N1833 1.610 . S
N1832 S1831 1.613 . S
N1832 C1835 1.350 . S
N1833 S1831 1.610 . S
N1833 C1834 1.351 . S
C1834 C1828 1.428 . S
C1834 N1833 1.351 . S
C1834 C1835 1.434 . S
C1835 C1826 1.429 . S
C1835 N1832 1.350 . S
C1835 C1834 1.434 . S
C1836 C1837 1.369 . S
C1836 C1838 1.419 . S
C1836 H1840 0.930 . S
C1837 C1836 1.369 . S
C1837 C1846 1.429 . S
C1838 C1836 1.419 . S
C1838 C1839 1.363 . S
C1838 H1841 0.929 1_565 S
C1839 C1838 1.363 . S
C1839 C1845 1.428 . S
H1840 C1836 0.930 . S
H1841 C1838 0.929 1_545 S
S1842 N1843 1.613 . S
S1842 N1844 1.610 . S
N1843 S1842 1.613 . S
N1843 C1846 1.350 . S
N1844 S1842 1.610 . S
N1844 C1845 1.351 . S
C1845 C1839 1.428 . S
C1845 N1844 1.351 . S
C1845 C1846 1.434 . S
C1846 C1837 1.429 . S
C1846 N1843 1.350 . S
C1846 C1845 1.434 . S
C1847 C1848 1.369 1_655 S
C1847 C1849 1.419 1_655 S
C1847 H1851 0.930 . S
C1848 C1847 1.369 1_455 S
C1848 C1857 1.429 . S
C1849 C1847 1.419 1_455 S
C1849 C1850 1.363 . S
C1849 H1852 0.929 1_455 S
C1850 C1849 1.363 . S
C1850 C1856 1.428 . S
H1851 C1847 0.930 . S
H1852 C1849 0.929 1_655 S
S1853 N1854 1.613 . S
S1853 N1855 1.610 . S
N1854 S1853 1.613 . S
N1854 C1857 1.350 . S
N1855 S1853 1.610 . S
N1855 C1856 1.351 . S
C1856 C1850 1.428 . S
C1856 N1855 1.351 . S
C1856 C1857 1.434 . S
C1857 C1848 1.429 . S
C1857 N1854 1.350 . S
C1857 C1856 1.434 . S
C1858 C1859 1.369 . S
C1858 C1860 1.419 . S
C1858 H1862 0.930 . S
C1859 C1858 1.369 . S
C1859 C1868 1.429 . S
C1860 C1858 1.419 . S
C1860 C1861 1.363 . S
C1860 H1863 0.929 . S
C1861 C1860 1.363 . S
C1861 C1867 1.428 . S
H1862 C1858 0.930 . S
H1863 C1860 0.929 . S
S1864 N1865 1.613 . S
S1864 N1866 1.610 . S
N1865 S1864 1.613 . S
N1865 C1868 1.350 . S
N1866 S1864 1.610 . S
N1866 C1867 1.351 . S
C1867 C1861 1.428 . S
C1867 N1866 1.351 . S
C1867 C1868 1.434 . S
C1868 C1859 1.429 . S
C1868 N1865 1.350 . S
C1868 C1867 1.434 . S
C1869 C1870 1.397 . S
C1869 C1871 1.419 . S
C1869 H1873 0.930 . S
C1870 C1869 1.397 . S
C1870 C1879 1.410 1_655 S
C1871 C1869 1.419 . S
C1871 C1872 1.363 . S
C1871 H1874 0.929 . S
C1872 C1871 1.363 . S
C1872 C1878 1.428 1_655 S
H1873 C1869 0.930 . S
H1874 C1871 0.929 . S
S1875 N1876 1.613 . S
S1875 N1877 1.610 . S
N1876 S1875 1.613 . S
N1876 C1879 1.350 . S
N1877 S1875 1.610 . S
N1877 C1878 1.351 . S
C1878 C1872 1.428 1_455 S
C1878 N1877 1.351 . S
C1878 C1879 1.434 . S
C1879 C1870 1.410 1_455 S
C1879 N1876 1.350 . S
C1879 C1878 1.434 . S
C1880 C1881 1.369 . S
C1880 C1882 1.419 . S
C1880 H1884 0.930 . S
C1881 C1880 1.369 . S
C1881 C1890 1.429 . S
C1882 C1880 1.419 . S
C1882 C1883 1.363 . S
C1882 H1885 0.929 . S
C1883 C1882 1.363 . S
C1883 C1889 1.428 . S
H1884 C1880 0.930 . S
H1885 C1882 0.929 . S
S1886 N1887 1.613 . S
S1886 N1888 1.610 . S
N1887 S1886 1.613 . S
N1887 C1890 1.350 . S
N1888 S1886 1.610 . S
N1888 C1889 1.351 . S
C1889 C1883 1.428 . S
C1889 N1888 1.351 . S
C1889 C1890 1.434 . S
C1890 C1881 1.429 . S
C1890 N1887 1.350 . S
C1890 C1889 1.434 . S
C1891 C1892 1.349 1_565 S
C1891 C1893 1.429 . S
C1891 H1895 0.941 . S
C1892 C1891 1.349 1_545 S
C1892 C1901 1.429 . S
C1893 C1891 1.429 . S
C1893 C1894 1.363 1_565 S
C1893 H1896 0.929 . S
C1894 C1893 1.363 1_545 S
C1894 C1900 1.428 . S
H1895 C1891 0.941 . S
H1896 C1893 0.929 . S
S1897 N1898 1.613 . S
S1897 N1899 1.610 . S
N1898 S1897 1.613 . S
N1898 C1901 1.350 . S
N1899 S1897 1.610 . S
N1899 C1900 1.351 . S
C1900 C1894 1.428 . S
C1900 N1899 1.351 . S
C1900 C1901 1.434 . S
C1901 C1892 1.429 . S
C1901 N1898 1.350 . S
C1901 C1900 1.434 . S
C1902 C1903 1.369 . S
C1902 C1904 1.419 . S
C1902 H1906 0.930 . S
C1903 C1902 1.369 . S
C1903 C1912 1.429 . S
C1904 C1902 1.419 . S
C1904 C1905 1.363 . S
C1904 H1907 0.929 . S
C1905 C1904 1.363 . S
C1905 C1911 1.428 . S
H1906 C1902 0.930 . S
H1907 C1904 0.929 . S
S1908 N1909 1.613 . S
S1908 N1910 1.610 . S
N1909 S1908 1.613 . S
N1909 C1912 1.350 . S
N1910 S1908 1.610 . S
N1910 C1911 1.351 . S
C1911 C1905 1.428 . S
C1911 N1910 1.351 . S
C1911 C1912 1.434 . S
C1912 C1903 1.429 . S
C1912 N1909 1.350 . S
C1912 C1911 1.434 . S
C1913 C1914 1.369 . S
C1913 C1915 1.419 . S
C1913 H1917 0.930 . S
C1914 C1913 1.369 . S
C1914 C1923 1.429 . S
C1915 C1913 1.419 . S
C1915 C1916 1.363 . S
C1915 H1918 0.929 . S
C1916 C1915 1.363 . S
C1916 C1922 1.428 . S
H1917 C1913 0.930 . S
H1918 C1915 0.929 . S
S1919 N1920 1.613 . S
S1919 N1921 1.610 . S
N1920 S1919 1.613 . S
N1920 C1923 1.350 . S
N1921 S1919 1.610 . S
N1921 C1922 1.351 . S
C1922 C1916 1.428 . S
C1922 N1921 1.351 . S
C1922 C1923 1.434 . S
C1923 C1914 1.429 . S
C1923 N1920 1.350 . S
C1923 C1922 1.434 . S
C1924 C1925 1.369 . S
C1924 C1926 1.419 . S
C1924 H1928 0.930 . S
C1925 C1924 1.369 . S
C1925 C1934 1.429 . S
C1926 C1924 1.419 . S
C1926 C1927 1.363 . S
C1926 H1929 0.929 . S
C1927 C1926 1.363 . S
C1927 C1933 1.428 . S
H1928 C1924 0.930 . S
H1929 C1926 0.929 . S
S1930 N1931 1.613 . S
S1930 N1932 1.610 . S
N1931 S1930 1.613 . S
N1931 C1934 1.350 . S
N1932 S1930 1.610 . S
N1932 C1933 1.351 . S
C1933 C1927 1.428 . S
C1933 N1932 1.351 . S
C1933 C1934 1.434 . S
C1934 C1925 1.429 . S
C1934 N1931 1.350 . S
C1934 C1933 1.434 . S
C1935 C1936 1.369 . S
C1935 C1937 1.419 . S
C1935 H1939 0.930 . S
C1936 C1935 1.369 . S
C1936 C1945 1.429 . S
C1937 C1935 1.419 . S
C1937 C1938 1.363 . S
C1937 H1940 0.929 . S
C1938 C1937 1.363 . S
C1938 C1944 1.428 . S
H1939 C1935 0.930 . S
H1940 C1937 0.929 . S
S1941 N1942 1.613 . S
S1941 N1943 1.610 . S
N1942 S1941 1.613 . S
N1942 C1945 1.350 . S
N1943 S1941 1.610 . S
N1943 C1944 1.351 . S
C1944 C1938 1.428 . S
C1944 N1943 1.351 . S
C1944 C1945 1.434 . S
C1945 C1936 1.429 . S
C1945 N1942 1.350 . S
C1945 C1944 1.434 . S
C1946 C1947 1.369 . S
C1946 C1948 1.419 . S
C1946 H1950 0.930 . S
C1947 C1946 1.369 . S
C1947 C1956 1.429 . S
C1948 C1946 1.419 . S
C1948 C1949 1.363 . S
C1948 H1951 0.929 . S
C1949 C1948 1.363 . S
C1949 C1955 1.428 . S
H1950 C1946 0.930 . S
H1951 C1948 0.929 . S
S1952 N1953 1.613 . S
S1952 N1954 1.610 . S
N1953 S1952 1.613 . S
N1953 C1956 1.350 . S
N1954 S1952 1.610 . S
N1954 C1955 1.351 . S
C1955 C1949 1.428 . S
C1955 N1954 1.351 . S
C1955 C1956 1.434 . S
C1956 C1947 1.429 . S
C1956 N1953 1.350 . S
C1956 C1955 1.434 . S
C1957 C1958 1.369 . S
C1957 C1959 1.419 . S
C1957 H1961 0.930 . S
C1958 C1957 1.369 . S
C1958 C1967 1.429 . S
C1959 C1957 1.419 . S
C1959 C1960 1.363 . S
C1959 H1962 0.929 . S
C1960 C1959 1.363 . S
C1960 C1966 1.428 . S
H1961 C1957 0.930 . S
H1962 C1959 0.929 . S
S1963 N1964 1.613 . S
S1963 N1965 1.610 . S
N1964 S1963 1.613 . S
N1964 C1967 1.350 . S
N1965 S1963 1.610 . S
N1965 C1966 1.351 . S
C1966 C1960 1.428 . S
C1966 N1965 1.351 . S
C1966 C1967 1.434 . S
C1967 C1958 1.429 . S
C1967 N1964 1.350 . S
C1967 C1966 1.434 . S
C1968 C1969 1.369 . S
C1968 C1970 1.419 . S
C1968 H1972 0.930 . S
C1969 C1968 1.369 . S
C1969 C1978 1.429 . S
C1970 C1968 1.419 . S
C1970 C1971 1.363 . S
C1970 H1973 0.929 . S
C1971 C1970 1.363 . S
C1971 C1977 1.428 . S
H1972 C1968 0.930 . S
H1973 C1970 0.929 . S
S1974 N1975 1.613 . S
S1974 N1976 1.610 . S
N1975 S1974 1.613 . S
N1975 C1978 1.350 . S
N1976 S1974 1.610 . S
N1976 C1977 1.351 . S
C1977 C1971 1.428 . S
C1977 N1976 1.351 . S
C1977 C1978 1.434 . S
C1978 C1969 1.429 . S
C1978 N1975 1.350 . S
C1978 C1977 1.434 . S
C1979 C1980 1.369 . S
C1979 C1981 1.419 . S
C1979 H1983 0.930 . S
C1980 C1979 1.369 . S
C1980 C1989 1.429 . S
C1981 C1979 1.419 . S
C1981 C1982 1.363 . S
C1981 H1984 0.929 . S
C1982 C1981 1.363 . S
C1982 C1988 1.428 . S
H1983 C1979 0.930 . S
H1984 C1981 0.929 . S
S1985 N1986 1.613 . S
S1985 N1987 1.610 . S
N1986 S1985 1.613 . S
N1986 C1989 1.350 . S
N1987 S1985 1.610 . S
N1987 C1988 1.351 . S
C1988 C1982 1.428 . S
C1988 N1987 1.351 . S
C1988 C1989 1.434 . S
C1989 C1980 1.429 . S
C1989 N1986 1.350 . S
C1989 C1988 1.434 . S
C1990 C1991 1.369 . S
C1990 C1992 1.419 . S
C1990 H1994 0.930 . S
C1991 C1990 1.369 . S
C1991 C2000 1.429 . S
C1992 C1990 1.419 . S
C1992 C1993 1.363 . S
C1992 H1995 0.929 . S
C1993 C1992 1.363 . S
C1993 C1999 1.428 . S
H1994 C1990 0.930 . S
H1995 C1992 0.929 . S
S1996 N1997 1.613 . S
S1996 N1998 1.610 . S
N1997 S1996 1.613 . S
N1997 C2000 1.350 . S
N1998 S1996 1.610 . S
N1998 C1999 1.351 . S
C1999 C1993 1.428 . S
C1999 N1998 1.351 . S
C1999 C2000 1.434 . S
C2000 C1991 1.429 . S
C2000 N1997 1.350 . S
C2000 C1999 1.434 . S
C2001 C2002 1.369 . S
C2001 C2003 1.419 . S
C2001 H2005 0.930 . S
C2002 C2001 1.369 . S
C2002 C2011 1.429 . S
C2003 C2001 1.419 . S
C2003 C2004 1.363 . S
C2003 H2006 0.929 . S
C2004 C2003 1.363 . S
C2004 C2010 1.428 . S
H2005 C2001 0.930 . S
H2006 C2003 0.929 . S
S2007 N2008 1.613 . S
S2007 N2009 1.610 . S
N2008 S2007 1.613 . S
N2008 C2011 1.350 . S
N2009 S2007 1.610 . S
N2009 C2010 1.351 . S
C2010 C2004 1.428 . S
C2010 N2009 1.351 . S
C2010 C2011 1.434 . S
C2011 C2002 1.429 . S
C2011 N2008 1.350 . S
C2011 C2010 1.434 . S
C2012 C2013 1.369 . S
C2012 C2014 1.419 . S
C2012 H2016 0.930 . S
C2013 C2012 1.369 . S
C2013 C2022 1.429 . S
C2014 C2012 1.419 . S
C2014 C2015 1.363 . S
C2014 H2017 0.929 . S
C2015 C2014 1.363 . S
C2015 C2021 1.428 . S
H2016 C2012 0.930 . S
H2017 C2014 0.929 . S
S2018 N2019 1.613 . S
S2018 N2020 1.610 . S
N2019 S2018 1.613 . S
N2019 C2022 1.350 . S
N2020 S2018 1.610 . S
N2020 C2021 1.351 . S
C2021 C2015 1.428 . S
C2021 N2020 1.351 . S
C2021 C2022 1.434 . S
C2022 C2013 1.429 . S
C2022 N2019 1.350 . S
C2022 C2021 1.434 . S
C2023 C2024 1.369 . S
C2023 C2025 1.419 . S
C2023 H2027 0.930 . S
C2024 C2023 1.369 . S
C2024 C2033 1.429 . S
C2025 C2023 1.419 . S
C2025 C2026 1.363 . S
C2025 H2028 0.929 . S
C2026 C2025 1.363 . S
C2026 C2032 1.428 . S
H2027 C2023 0.930 . S
H2028 C2025 0.929 . S
S2029 N2030 1.613 . S
S2029 N2031 1.610 . S
N2030 S2029 1.613 . S
N2030 C2033 1.350 . S
N2031 S2029 1.610 . S
N2031 C2032 1.351 . S
C2032 C2026 1.428 . S
C2032 N2031 1.351 . S
C2032 C2033 1.434 . S
C2033 C2024 1.429 . S
C2033 N2030 1.350 . S
C2033 C2032 1.434 . S
C1441 C781 1.754 . S
C1443 C1083 1.750 . S
C1452 C871 1.738 . S
C1454 C1123 1.783 . S
C1463 C751 1.747 . S
C1465 C1175 1.818 . S
C1474 C691 1.584 . S
C1476 C1135 1.634 . S
C1487 C1163 1.533 . S
C1485 C571 1.442 . S
C1496 C601 1.554 . S
C1498 C1095 1.574 . S
C1509 C1102 1.750 . S
C1507 C661 1.660 . S
C1520 C1142 1.786 . S
C1518 C541 1.709 . S
C1529 C631 1.853 . S
C1531 C1162 1.818 . S
C1540 C811 1.662 . S
C1542 C1122 1.636 . S
C1551 C841 1.481 . S
C1553 C1182 1.531 . S
C1564 C1082 1.579 . S
C1562 C721 1.444 . S
C1575 C1203 1.750 . S
C1573 C61 1.754 1_455 S
C1584 C151 1.731 . S
C1586 C1243 1.787 . S
C1595 C31 1.747 . S
C1597 C1295 1.818 . S
C1606 C1051 1.584 . S
C1608 C1255 1.638 . S
C1617 C931 1.435 . S
C1619 C1283 1.534 . S
C1628 C961 1.548 . S
C1630 C1215 1.580 . S
C1639 C1021 1.651 . S
C1641 C1222 1.753 . S
C1650 C901 1.710 . S
C1652 C1262 1.784 . S
C1663 C1282 1.823 . S
C1661 C991 1.851 . S
C1672 C91 1.664 . S
C1674 C1242 1.641 . S
C1685 C1302 1.532 . S
C1683 C121 1.484 1_455 S
C1694 C1 1.443 . S
C1696 C1202 1.578 . S
C1707 C1323 1.753 . S
C1705 C421 1.752 . S
C1716 C511 1.739 . S
C1718 C1363 1.785 . S
C1729 C1415 1.818 . S
C1727 C391 1.748 . S
C1740 C1375 1.636 . S
C1738 C331 1.585 . S
C1751 C1403 1.530 . S
C1749 C211 1.443 1_655 S
C1760 C241 1.549 . S
C1762 C1335 1.579 . S
C1771 C301 1.658 1_655 S
C1773 C1342 1.752 . S
C1782 C181 1.701 . S
C1784 C1382 1.788 . S
C1795 C1402 1.818 . S
C1793 C271 1.851 . S
C1804 C451 1.662 . S
C1806 C1362 1.640 . S
C1815 C481 1.484 . S
C1817 C1422 1.530 . S
C1826 C361 1.449 . S
C1828 C1322 1.576 . S
C1837 C920 1.366 . S
C1839 C1106 1.388 . S
C1850 C1146 1.819 . S
C1848 C980 1.850 1_455 S
C1859 C1040 1.520 . S
C1861 C1169 1.577 . S
C1870 C380 1.778 . S
C1872 C1129 1.818 . S
C1881 C440 1.560 . S
C1883 C1186 1.576 . S
C1894 C1089 1.387 . S
C1892 C500 1.387 . S
C1903 C200 1.373 . S
C1905 C1226 1.383 . S
C1914 C260 1.851 . S
C1916 C1266 1.818 . S
C1925 C320 1.519 . S
C1927 C1289 1.578 . S
C1936 C740 1.773 . S
C1938 C1249 1.820 . S
C1949 C1306 1.576 . S
C1947 C800 1.558 . S
C1958 C860 1.390 . S
C1960 C1209 1.386 . S
C1969 C560 1.368 . S
C1971 C1346 1.387 . S
C1980 C620 1.848 . S
C1982 C1386 1.822 . S
C1993 C1409 1.578 . S
C1991 C680 1.519 . S
C2002 C20 1.781 . S
C2004 C1369 1.820 . S
C2013 C80 1.556 . S
C2015 C1426 1.576 . S
C2024 C140 1.389 . S
C2026 C1329 1.385 . S
