# Generated by pormake.
# Topology anh, (6,3)-cn, num edge types: 1
# Building blocks:
#     Node 0, Type 0, BuildingBlock: NUHQIS_clean_sbu_0, # of connection points: 6
#     Node 1, Type 0, BuildingBlock: NUHQIS_clean_sbu_0, # of connection points: 6
#     Node 2, Type 0, BuildingBlock: NUHQIS_clean_sbu_0, # of connection points: 6
#     Node 3, Type 1, BuildingBlock: BETDIP_clean_linker_0, # of connection points: 3
#     Node 4, Type 1, BuildingBlock: BETDIP_clean_linker_0, # of connection points: 3
#     Node 5, Type 1, BuildingBlock: BETDIP_clean_linker_0, # of connection points: 3
#     Node 6, Type 1, BuildingBlock: BETDIP_clean_linker_0, # of connection points: 3
#     Node 7, Type 1, BuildingBlock: BETDIP_clean_linker_0, # of connection points: 3
#     Node 8, Type 1, BuildingBlock: BETDIP_clean_linker_0, # of connection points: 3
#     Edge 9, Type (0, 1), BuildingBlock: XUDNAN_clean_linker_2, # of connection points: 2
#     Edge 10, Type (0, 1), BuildingBlock: XUDNAN_clean_linker_2, # of connection points: 2
#     Edge 11, Type (0, 1), BuildingBlock: XUDNAN_clean_linker_2, # of connection points: 2
#     Edge 12, Type (0, 1), BuildingBlock: XUDNAN_clean_linker_2, # of connection points: 2
#     Edge 13, Type (0, 1), BuildingBlock: XUDNAN_clean_linker_2, # of connection points: 2
#     Edge 14, Type (0, 1), BuildingBlock: XUDNAN_clean_linker_2, # of connection points: 2
#     Edge 15, Type (0, 1), BuildingBlock: XUDNAN_clean_linker_2, # of connection points: 2
#     Edge 16, Type (0, 1), BuildingBlock: XUDNAN_clean_linker_2, # of connection points: 2
#     Edge 17, Type (0, 1), BuildingBlock: XUDNAN_clean_linker_2, # of connection points: 2
#     Edge 18, Type (0, 1), BuildingBlock: XUDNAN_clean_linker_2, # of connection points: 2
#     Edge 19, Type (0, 1), BuildingBlock: XUDNAN_clean_linker_2, # of connection points: 2
#     Edge 20, Type (0, 1), BuildingBlock: XUDNAN_clean_linker_2, # of connection points: 2
#     Edge 21, Type (0, 1), BuildingBlock: XUDNAN_clean_linker_2, # of connection points: 2
#     Edge 22, Type (0, 1), BuildingBlock: XUDNAN_clean_linker_2, # of connection points: 2
#     Edge 23, Type (0, 1), BuildingBlock: XUDNAN_clean_linker_2, # of connection points: 2
#     Edge 24, Type (0, 1), BuildingBlock: XUDNAN_clean_linker_2, # of connection points: 2
#     Edge 25, Type (0, 1), BuildingBlock: XUDNAN_clean_linker_2, # of connection points: 2
#     Edge 26, Type (0, 1), BuildingBlock: XUDNAN_clean_linker_2, # of connection points: 2
# Relax obj value: 0.250
# Max RMSD: 0.170
# Mean RMSD: 0.124
data_MOF--net-anh--node1-NUHQIS_clean_sbu_0--node2-BETDIP_clean_linker_0--edge1-XUDNAN_clean_linker_2
_symmetry_space_group_name_H-M    P1
_symmetry_Int_Tables_number       1
_symmetry_cell_setting            triclinic
loop_
_symmetry_equiv_pos_as_xyz
'x, y, z'
_cell_length_a     31.696756
_cell_length_b     31.894546
_cell_length_c     49.915806
_cell_angle_alpha  93.607721
_cell_angle_beta   93.297289
_cell_angle_gamma 120.12685
loop_
_atom_site_label
_atom_site_type_symbol
_atom_site_fract_x
_atom_site_fract_y
_atom_site_fract_z
_atom_type_partial_charge
Tb0 Tb 0.12897 0.59914 0.15139 0.0
Eu1 Eu 1.07206 0.65446 0.16073 0.0
C2 C 0.11798 0.62795 0.20828 0.0
C3 C 1.01043 0.53218 0.15696 0.0
C4 C 0.22971 0.57612 0.14221 0.0
C5 C 0.29986 0.56542 0.14245 0.0
C6 C 0.25135 0.54823 0.1473 0.0
C7 C 0.25696 0.62167 0.13248 0.0
C8 C 0.30563 0.63898 0.12761 0.0
C9 C 0.32753 0.61098 0.1326 0.0
C10 C 0.1799 0.55904 0.14894 0.0
O11 O 0.12143 0.6166 0.11049 0.0
O12 O 1.05914 0.63193 0.11551 0.0
O13 O 0.1493 0.71912 0.15479 0.0
O14 O 0.19158 0.67889 0.15969 0.0
C15 C 1.0867 0.6233 0.09998 0.0
O16 O 1.0322 0.6898 0.14666 0.0
O17 O 1.04121 0.68369 0.18921 0.0
O18 O 0.119 0.66577 0.19921 0.0
O19 O 0.10529 0.58994 0.19138 0.0
O20 O 1.05015 0.53565 0.14679 0.0
O21 O 1.01297 0.57346 0.16632 0.0
C22 C 0.19221 0.72101 0.15805 0.0
O23 O 0.17738 0.58163 0.17084 0.0
O24 O 0.14821 0.55402 0.12932 0.0
C25 C 0.96231 0.66142 0.16993 0.0
C26 C 0.86278 0.59025 0.15824 0.0
C27 C 0.88228 0.63387 0.14609 0.0
C28 C 0.932 0.66925 0.15182 0.0
C29 C 0.94132 0.61955 0.18378 0.0
C30 C 0.89211 0.58426 0.17786 0.0
C31 C 1.01601 0.69027 0.17006 0.0
H32 H 0.31531 0.54239 0.1458 0.0
H33 H 0.23075 0.51318 0.15501 0.0
H34 H 0.24063 0.64382 0.12875 0.0
H35 H 0.32607 0.67407 0.11994 0.0
H36 H 0.86002 0.63905 0.13087 0.0
H37 H 0.94744 0.70099 0.14075 0.0
H38 H 0.96352 0.61215 0.19783 0.0
H39 H 0.87753 0.55111 0.18767 0.0
Tb40 Tb 0.66405 0.16848 0.49339 0.0
Eu41 Eu 0.54768 0.11414 0.48894 0.0
C42 C 0.60891 0.12698 0.54362 0.0
C43 C 0.6042 1.04765 0.49057 0.0
C44 C 0.80303 0.25765 0.50465 0.0
C45 C 0.88681 0.30652 0.52519 0.0
C46 C 0.83963 0.26694 0.5251 0.0
C47 C 0.81351 0.28966 0.48473 0.0
C48 C 0.86101 0.32973 0.48485 0.0
C49 C 0.89845 0.33803 0.50485 0.0
C50 C 0.75581 0.21247 0.50426 0.0
O51 O 0.64959 0.16383 0.45015 0.0
O52 O 0.5654 0.11976 0.44496 0.0
O53 O 0.56623 0.19533 0.49063 0.0
O54 O 0.64987 0.23227 0.49713 0.0
C55 C 0.60785 0.1409 0.4347 0.0
O56 O 0.47619 0.06519 0.4667 0.0
O57 O 0.48029 0.09875 0.50642 0.0
O58 O 0.57241 0.13103 0.53361 0.0
O59 O 0.64224 0.13001 0.52861 0.0
O60 O 0.64458 0.08929 0.48657 0.0
O61 O 0.56353 1.04942 0.49407 0.0
C62 C 0.60959 0.23619 0.49511 0.0
O63 O 0.72581 0.21248 0.52105 0.0
O64 O 0.73318 0.18769 0.48103 0.0
C65 C 0.41457 1.01918 0.49419 0.0
C66 C 0.34104 0.92714 0.50632 0.0
C67 C 0.33379 0.96725 0.50835 0.0
C68 C 0.3703 1.01292 0.50224 0.0
C69 C 0.42281 0.97992 0.49325 0.0
C70 C 0.38633 0.93433 0.49902 0.0
C71 C 0.45186 0.06648 0.48659 0.0
H72 H 0.91466 0.31088 0.54055 0.0
H73 H 0.83213 0.24242 0.54057 0.0
H74 H 0.78548 0.28307 0.46883 0.0
H75 H 0.86864 0.35356 0.46904 0.0
H76 H 0.29962 0.96316 0.51413 0.0
H77 H 0.36367 1.04314 0.50338 0.0
H78 H 0.45697 0.98412 0.48732 0.0
H79 H 0.3931 0.90431 0.49654 0.0
Tb80 Tb 0.60674 0.61549 0.8286 0.0
Eu81 Eu 0.5424 0.50231 0.80672 0.0
C82 C 0.5913 0.53411 0.86747 0.0
C83 C 0.66628 0.55568 0.81973 0.0
C84 C 0.66325 0.75143 0.8413 0.0
C85 C 0.71476 0.83937 0.8468 0.0
C86 C 0.70424 0.79387 0.85403 0.0
C87 C 0.63186 0.75478 0.82171 0.0
C88 C 0.64221 0.80045 0.81452 0.0
C89 C 0.68426 0.84323 0.8267 0.0
C90 C 0.65642 0.70429 0.84736 0.0
O91 O 0.60347 0.61826 0.78464 0.0
O92 O 0.55269 0.53781 0.76825 0.0
O93 O 0.48409 0.52249 0.82033 0.0
O94 O 0.53045 0.60516 0.82257 0.0
C95 C 0.57993 0.58376 0.76434 0.0
O96 O 0.5241 0.43722 0.77991 0.0
O97 O 0.47541 0.4337 0.80954 0.0
O98 O 0.57318 0.50055 0.84708 0.0
O99 O 0.59928 0.57829 0.86515 0.0
O100 O 0.66654 0.59697 0.8262 0.0
O101 O 0.62323 0.51523 0.8115 0.0
C102 C 0.48648 0.56541 0.82283 0.0
O103 O 0.61442 0.67321 0.85527 0.0
O104 O 0.6708 0.68356 0.82979 0.0
C105 C 0.48612 0.36645 0.80226 0.0
C106 C 0.49867 0.29095 0.81961 0.0
C107 C 0.4791 0.28758 0.793 0.0
C108 C 0.47307 0.32526 0.78435 0.0
C109 C 0.50265 0.36835 0.82926 0.0
C110 C 0.50908 0.331 0.83786 0.0
C111 C 0.48638 0.40897 0.7924 0.0
H112 H 0.74791 0.87134 0.85623 0.0
H113 H 0.72903 0.79173 0.86902 0.0
H114 H 0.60012 0.72214 0.81161 0.0
H115 H 0.61772 0.8022 0.79918 0.0
H116 H 0.47152 0.25741 0.77841 0.0
H117 H 0.46027 0.32322 0.76345 0.0
H118 H 0.51235 0.39961 0.84346 0.0
H119 H 0.52423 0.33442 0.85844 0.0
H120 H 0.55575 0.08299 0.15485 0.0
H121 H 0.64496 0.16639 0.2288 0.0
H122 H 0.51171 1.0309 0.23249 0.0
H123 H 0.67705 0.2327 0.20614 0.0
C124 C 0.684 0.22002 0.18715 0.0
C125 C 0.56209 0.08753 0.17665 0.0
C126 C 0.52596 1.04931 0.1918 0.0
C127 C 0.60667 0.13145 0.18981 0.0
C128 C 0.61275 0.13513 0.21817 0.0
C129 C 0.5792 0.09924 0.23346 0.0
C130 C 0.53681 1.05754 0.22022 0.0
N131 N 0.64586 0.16981 0.17541 0.0
H132 H 0.60861 0.59888 0.48927 0.0
H133 H 0.59327 0.67006 0.56168 0.0
H134 H 0.59593 0.53706 0.56526 0.0
H135 H 0.5608 0.70428 0.53398 0.0
C136 C 0.58622 0.71663 0.51869 0.0
C137 C 0.60362 0.59968 0.51051 0.0
C138 C 0.60035 0.55943 0.52525 0.0
C139 C 0.59955 0.64054 0.5233 0.0
C140 C 0.59497 0.64032 0.5512 0.0
C141 C 0.59462 0.60404 0.56638 0.0
C142 C 0.59571 0.56397 0.55315 0.0
N143 N 0.60329 0.68259 0.50946 0.0
H144 H 1.03357 0.55844 0.81993 0.0
H145 H 0.11546 0.57712 0.89681 0.0
H146 H 0.97441 0.56635 0.89461 0.0
H147 H 0.14753 0.53209 0.87162 0.0
C148 C 0.1577 0.55292 0.85434 0.0
C149 C 1.03627 0.56123 0.84175 0.0
C150 C 0.99587 0.56059 0.8553 0.0
C151 C 1.07985 0.56461 0.8565 0.0
C152 C 1.08274 0.57106 0.88506 0.0
C153 C 1.04584 0.57364 0.89868 0.0
C154 C 1.00271 0.56582 0.88367 0.0
N155 N 0.12158 0.56586 0.84321 0.0
H156 H 0.22435 0.57722 0.46854 0.0
H157 H 0.22608 0.53257 0.38583 0.0
H158 H 0.18155 0.63704 0.40496 0.0
H159 H 0.26449 0.49389 0.47079 0.0
C160 C 0.236 0.49847 0.46075 0.0
C161 C 0.21667 0.57809 0.44724 0.0
C162 C 0.20001 0.60908 0.43916 0.0
C163 C 0.22544 0.54991 0.42802 0.0
C164 C 0.21837 0.55364 0.40054 0.0
C165 C 0.2014 0.58425 0.39205 0.0
C166 C 0.1919 0.61137 0.41147 0.0
N167 N 0.24424 0.51988 0.43601 0.0
H168 H 0.75938 0.19975 0.81066 0.0
H169 H 0.79126 0.18973 0.72877 0.0
H170 H 0.64385 0.14505 0.74546 0.0
H171 H 0.87525 0.20943 0.81278 0.0
C172 C 0.8434 0.18863 0.7981 0.0
C173 C 0.74693 0.18997 0.78931 0.0
C174 C 0.69743 0.17158 0.78036 0.0
C175 C 0.78074 0.19661 0.77068 0.0
C176 C 0.76504 0.18481 0.74305 0.0
C177 C 0.71536 0.16511 0.73398 0.0
C178 C 0.68196 0.15901 0.75265 0.0
N179 N 0.8304 0.21361 0.77979 0.0
H180 H 0.48198 0.45465 0.10339 0.0
H181 H 0.55702 0.40016 0.05714 0.0
H182 H 0.57922 0.54356 0.04837 0.0
H183 H 0.49536 0.31473 0.10348 0.0
C184 C 0.5169 0.35395 0.10317 0.0
C185 C 0.50808 0.46041 0.0889 0.0
C186 C 0.53186 0.50458 0.07743 0.0
C187 C 0.51759 0.42319 0.08177 0.0
C188 C 0.55028 0.42953 0.06239 0.0
C189 C 0.5721 0.47236 0.04922 0.0
C190 C 0.56351 0.51013 0.05778 0.0
N191 N 0.49324 0.37907 0.09402 0.0
H192 H 0.39933 0.60492 0.16148 0.0
H193 H 0.36593 0.64822 0.08636 0.0
H194 H 0.43632 0.64834 0.06815 0.0
H195 H 0.54153 0.66188 0.15593 0.0
H196 H 0.53844 0.60985 0.17001 0.0
H197 H 0.50086 0.63374 0.18137 0.0
H198 H 0.42393 0.54806 0.16983 0.0
H199 H 0.46061 0.52416 0.1579 0.0
H200 H 0.4104 0.51838 0.1359 0.0
H201 H 0.48608 0.61563 0.05277 0.0
H202 H 0.51577 0.55934 0.04261 0.0
H203 H 0.51974 0.53576 0.12714 0.0
C204 C 0.40852 0.61667 0.14168 0.0
C205 C 0.37731 0.62626 0.12524 0.0
C206 C 0.38978 0.64131 0.0994 0.0
C207 C 0.42981 0.64146 0.08889 0.0
C208 C 0.45718 0.6271 0.10463 0.0
C209 C 0.44791 0.61618 0.13085 0.0
C210 C 0.4753 0.59208 0.14149 0.0
C211 C 0.51649 0.62645 0.1635 0.0
C212 C 0.44045 0.54278 0.15184 0.0
C213 C 0.49613 0.5855 0.11614 0.0
C214 C 0.48708 0.60779 0.09546 0.0
C215 C 0.4954 0.59989 0.06903 0.0
C216 C 0.51223 0.56764 0.06344 0.0
C217 C 0.52052 0.5435 0.0842 0.0
C218 C 0.51394 0.55397 0.11096 0.0
H219 H 0.94679 0.36489 0.45951 0.0
H220 H 0.96843 0.39565 0.54679 0.0
H221 H 1.05778 0.44406 0.54483 0.0
H222 H 1.0421 0.34764 0.4512 0.0
H223 H 1.06068 0.37785 0.42108 0.0
H224 H 0.99812 0.35164 0.42856 0.0
H225 H 1.00291 0.4349 0.42633 0.0
H226 H 1.06534 0.46128 0.41822 0.0
H227 H 1.05127 0.48816 0.44661 0.0
H228 H 0.14462 0.47676 0.53397 0.0
H229 H 0.22286 0.50243 0.51402 0.0
H230 H 0.14396 0.45464 0.43405 0.0
C231 C 0.97 0.38337 0.47816 0.0
C232 C 0.95048 0.37589 0.50332 0.0
C233 C 0.98253 0.4 0.52728 0.0
C234 C 1.03335 0.42784 0.52638 0.0
C235 C 1.05149 0.43228 0.50134 0.0
C236 C 1.02073 0.41191 0.47759 0.0
C237 C 1.04961 0.42006 0.45341 0.0
C238 C 1.03686 0.3714 0.43766 0.0
C239 C 1.04181 0.45307 0.43506 0.0
C240 C 0.10121 0.44597 0.46739 0.0
C241 C 0.10164 0.45292 0.49503 0.0
C242 C 0.14488 0.47269 0.5123 0.0
C243 C 0.18892 0.48664 0.5009 0.0
C244 C 0.18916 0.4812 0.47263 0.0
C245 C 0.14475 0.46027 0.45574 0.0
H246 H 0.72507 0.93181 0.85743 0.0
H247 H 0.67736 0.86406 0.77475 0.0
H248 H 0.7091 0.94509 0.75873 0.0
H249 H 0.70194 1.03254 0.8496 0.0
H250 H 0.75603 0.07545 0.87151 0.0
H251 H 0.72444 1.01179 0.87669 0.0
H252 H 0.80521 1.01067 0.87347 0.0
H253 H 0.83692 0.07413 0.86802 0.0
H254 H 0.83747 1.02988 0.84395 0.0
H255 H 0.75252 1.0331 0.7513 0.0
H256 H 0.80197 0.12264 0.75314 0.0
H257 H 0.82324 0.13378 0.84043 0.0
C258 C 0.7209 0.93391 0.83596 0.0
C259 C 0.69849 0.89145 0.81737 0.0
C260 C 0.6935 0.89588 0.78945 0.0
C261 C 0.71174 0.9418 0.78012 0.0
C262 C 0.7348 0.98288 0.79895 0.0
C263 C 0.73917 0.97942 0.8263 0.0
C264 C 0.76786 1.02934 0.84217 0.0
C265 C 0.73563 1.03777 0.86111 0.0
C266 C 0.81464 1.0364 0.85782 0.0
C267 C 0.77991 0.06142 0.81941 0.0
C268 C 0.76008 1.03384 0.79467 0.0
C269 C 0.76742 1.05511 0.77058 0.0
C270 C 0.79525 0.10597 0.77184 0.0
C271 C 0.81506 0.1349 0.79699 0.0
C272 C 0.80791 0.11231 0.82101 0.0
H273 H 0.77488 0.58736 0.15672 0.0
H274 H 0.8412 0.5001 0.13814 0.0
H275 H 0.7593 0.42876 0.12303 0.0
H276 H 0.66969 0.49409 0.18337 0.0
H277 H 0.62805 0.51186 0.1693 0.0
H278 H 0.69199 0.5567 0.17755 0.0
H279 H 0.69775 0.57989 0.12837 0.0
H280 H 0.63368 0.53535 0.12018 0.0
H281 H 0.67866 0.53289 0.10071 0.0
H282 H 0.6703 0.36688 0.11042 0.0
H283 H 0.58001 0.32011 0.09901 0.0
H284 H 0.5724 0.44635 0.12929 0.0
C285 C 0.77191 0.55321 0.14934 0.0
C286 C 0.81383 0.54875 0.14862 0.0
C287 C 0.80908 0.50375 0.13895 0.0
C288 C 0.7629 0.4632 0.13034 0.0
C289 C 0.72201 0.4683 0.13188 0.0
C290 C 0.72601 0.51216 0.14103 0.0
C291 C 0.67622 0.50769 0.14084 0.0
C292 C 0.66589 0.5182 0.16947 0.0
C293 C 0.67132 0.54093 0.12137 0.0
C294 C 0.6438 0.45454 0.13031 0.0
C295 C 0.67079 0.43245 0.12507 0.0
C296 C 0.64869 0.38377 0.11439 0.0
C297 C 0.5976 0.35746 0.10813 0.0
C298 C 0.56976 0.38013 0.11256 0.0
C299 C 0.59302 0.42861 0.12476 0.0
H300 H 0.34721 0.853 0.52735 0.0
H301 H 0.24338 0.88703 0.48902 0.0
H302 H 0.18235 0.79982 0.48075 0.0
H303 H 0.33398 0.77484 0.47932 0.0
H304 H 0.34002 0.73181 0.49858 0.0
H305 H 0.36661 0.79374 0.51266 0.0
H306 H 0.31766 0.76543 0.55417 0.0
H307 H 0.29081 0.7028 0.54012 0.0
H308 H 0.25193 0.72636 0.54938 0.0
H309 H 0.1432 0.71336 0.46405 0.0
H310 H 0.13225 0.63887 0.43911 0.0
H311 H 0.26478 0.66101 0.48338 0.0
C312 C 0.31097 0.84206 0.51809 0.0
C313 C 0.30035 0.87691 0.50868 0.0
C314 C 0.25242 0.86129 0.49684 0.0
C315 C 0.21733 0.81153 0.49202 0.0
C316 C 0.23059 0.77781 0.49918 0.0
C317 C 0.27629 0.79252 0.51231 0.0
C318 C 0.28623 0.75076 0.51211 0.0
C319 C 0.33447 0.76357 0.49991 0.0
C320 C 0.28666 0.73543 0.54064 0.0
C321 C 0.24164 0.71197 0.49418 0.0
C322 C 0.20867 0.72729 0.4882 0.0
C323 C 0.1681 0.70048 0.46911 0.0
C324 C 0.16244 0.65845 0.45482 0.0
C325 C 0.19789 0.64433 0.45916 0.0
C326 C 0.23642 0.67011 0.48006 0.0
H327 H 0.58926 0.31654 0.84125 0.0
H328 H 0.44845 0.19105 0.81135 0.0
H329 H 0.48514 0.1387 0.81211 0.0
H330 H 0.65174 0.29653 0.79985 0.0
H331 H 0.70735 0.31636 0.82153 0.0
H332 H 0.66809 0.33959 0.82928 0.0
H333 H 0.66152 0.30969 0.87669 0.0
H334 H 0.70137 0.28637 0.8691 0.0
H335 H 0.64203 0.24672 0.88 0.0
H336 H 0.5388 0.10605 0.80351 0.0
H337 H 0.6038 0.09746 0.78365 0.0
H338 H 0.71142 0.24441 0.81735 0.0
C339 C 0.56569 0.27753 0.83644 0.0
C340 C 0.51603 0.25749 0.82667 0.0
C341 C 0.4865 0.20679 0.8192 0.0
C342 C 0.50704 0.17683 0.81979 0.0
C343 C 0.55709 0.1982 0.8279 0.0
C344 C 0.58602 0.24753 0.8364 0.0
C345 C 0.64007 0.26385 0.83821 0.0
C346 C 0.66836 0.30649 0.82117 0.0
C347 C 0.66256 0.27744 0.86776 0.0
C348 C 0.63718 0.21741 0.82657 0.0
C349 C 0.58905 0.17932 0.82205 0.0
C350 C 0.57663 0.13507 0.80767 0.0
C351 C 0.61372 0.13056 0.79633 0.0
C352 C 0.66244 0.17036 0.79908 0.0
C353 C 0.67464 0.21312 0.81565 0.0
H354 H 0.54296 0.95501 0.51322 0.0
H355 H 0.67191 1.02605 0.47032 0.0
H356 H 0.68069 0.9534 0.4709 0.0
H357 H 0.59062 0.89563 0.55683 0.0
H358 H 0.5323 0.84047 0.55689 0.0
H359 H 0.53458 0.89713 0.5522 0.0
H360 H 0.47818 0.85774 0.50771 0.0
H361 H 0.47582 0.801 0.51225 0.0
H362 H 0.49546 0.82923 0.48166 0.0
H363 H 0.67512 0.86571 0.47584 0.0
H364 H 0.65867 0.78411 0.48703 0.0
H365 H 0.53673 0.76851 0.52906 0.0
C366 C 0.57301 0.95556 0.50368 0.0
C367 C 0.60642 0.99872 0.49132 0.0
C368 C 0.64515 0.99544 0.47984 0.0
C369 C 0.65053 0.95332 0.48006 0.0
C370 C 0.61748 0.9121 0.49225 0.0
C371 C 0.57952 0.91327 0.50413 0.0
C372 C 0.55003 0.86472 0.51686 0.0
C373 C 0.55198 0.8751 0.54752 0.0
C374 C 0.4967 0.83651 0.50386 0.0
C375 C 0.57672 0.83613 0.51029 0.0
C376 C 0.61546 0.86394 0.4958 0.0
C377 C 0.64471 0.84448 0.48728 0.0
C378 C 0.63493 0.79706 0.4937 0.0
C379 C 0.59602 0.7673 0.50905 0.0
C380 C 0.56688 0.78862 0.51722 0.0
H381 H 0.70712 0.50545 0.84934 0.0
H382 H 0.74551 0.61211 0.79198 0.0
H383 H 0.82768 0.62089 0.79202 0.0
H384 H 0.8284 0.56849 0.88839 0.0
H385 H 0.82796 0.51364 0.89568 0.0
H386 H 0.77096 0.51299 0.88987 0.0
H387 H 0.74091 0.44224 0.8521 0.0
H388 H 0.79791 0.44283 0.85774 0.0
H389 H 0.77754 0.44916 0.82458 0.0
H390 H 0.91157 0.6176 0.7981 0.0
H391 H 0.98305 0.6094 0.81293 0.0
H392 H 0.89623 0.50979 0.86907 0.0
C393 C 0.73236 0.53022 0.83639 0.0
C394 C 0.71715 0.55724 0.81999 0.0
C395 C 0.75388 0.5901 0.80444 0.0
C396 C 0.80158 0.59542 0.80436 0.0
C397 C 0.8152 0.56857 0.82049 0.0
C398 C 0.78148 0.53693 0.83658 0.0
C399 C 0.80658 0.51454 0.85331 0.0
C400 C 0.80857 0.52821 0.88361 0.0
C401 C 0.77909 0.45888 0.84654 0.0
C402 C 0.85911 0.53805 0.84422 0.0
C403 C 0.86312 0.56869 0.82492 0.0
C404 C 0.90794 0.59363 0.81333 0.0
C405 C 0.94909 0.58834 0.82179 0.0
C406 C 0.94768 0.55869 0.84234 0.0
C407 C 0.90058 0.53302 0.8533 0.0
H408 H 0.28928 0.76285 0.18846 0.0
H409 H 0.20978 0.79961 0.13016 0.0
H410 H 0.28326 0.88113 0.13007 0.0
H411 H 0.35463 0.88472 0.22699 0.0
H412 H 0.41081 0.88457 0.23471 0.0
H413 H 0.35319 0.8278 0.22912 0.0
H414 H 0.3872 0.79688 0.19191 0.0
H415 H 0.44487 0.85365 0.19736 0.0
H416 H 0.41187 0.83243 0.16415 0.0
H417 H 0.37184 0.96413 0.1356 0.0
H418 H 0.45495 1.03523 0.14978 0.0
H419 H 0.47856 0.9514 0.20756 0.0
C420 C 0.28712 0.78766 0.17539 0.0
C421 C 0.24152 0.77211 0.15884 0.0
C422 C 0.24249 0.80823 0.14293 0.0
C423 C 0.28496 0.85559 0.14272 0.0
C424 C 0.3286 0.86955 0.15906 0.0
C425 C 0.32963 0.83654 0.17549 0.0
C426 C 0.38052 0.86202 0.19233 0.0
C427 C 0.37443 0.86493 0.22259 0.0
C428 C 0.40773 0.8346 0.18608 0.0
C429 C 0.40788 0.91388 0.18286 0.0
C430 C 0.37742 0.9172 0.16327 0.0
C431 C 0.39517 0.96111 0.15111 0.0
C432 C 0.44354 1.00205 0.15924 0.0
C433 C 0.4759 1.0014 0.18005 0.0
C434 C 0.45643 0.95524 0.19168 0.0
H435 H 0.54916 0.27295 0.51729 0.0
H436 H 0.68088 0.32235 0.47698 0.0
H437 H 0.69015 0.40426 0.47738 0.0
H438 H 0.50377 0.34647 0.48626 0.0
H439 H 0.48378 0.36111 0.51671 0.0
H440 H 0.48564 0.30554 0.51215 0.0
H441 H 0.54128 0.3303 0.55688 0.0
H442 H 0.53935 0.38579 0.56163 0.0
H443 H 0.59751 0.38844 0.56185 0.0
H444 H 0.68301 0.48652 0.48071 0.0
H445 H 0.66742 0.55426 0.49195 0.0
H446 H 0.54576 0.45784 0.53463 0.0
C447 C 0.58004 0.30071 0.50837 0.0
C448 C 0.61396 0.28846 0.49664 0.0
C449 C 0.6538 0.32828 0.48599 0.0
C450 C 0.65935 0.37591 0.48608 0.0
C451 C 0.62562 0.38647 0.49757 0.0
C452 C 0.5871 0.34979 0.50908 0.0
C453 C 0.55765 0.37161 0.52171 0.0
C454 C 0.50454 0.34455 0.50843 0.0
C455 C 0.55901 0.36885 0.55234 0.0
C456 C 0.58476 0.42562 0.51536 0.0
C457 C 0.62355 0.43329 0.50096 0.0
C458 C 0.65272 0.47993 0.49219 0.0
C459 C 0.6432 0.51898 0.49854 0.0
C460 C 0.60493 0.51379 0.51425 0.0
C461 C 0.57547 0.46507 0.52251 0.0
H462 H 0.39293 0.5045 0.84444 0.0
H463 H 0.46866 0.63727 0.80596 0.0
H464 H 0.39618 0.6472 0.80725 0.0
H465 H 0.26799 0.46153 0.81332 0.0
H466 H 0.23871 0.44009 0.84348 0.0
H467 H 0.29544 0.44184 0.83848 0.0
H468 H 0.33489 0.49484 0.88399 0.0
H469 H 0.2782 0.49302 0.88917 0.0
H470 H 0.33429 0.55082 0.89021 0.0
H471 H 0.30741 0.64102 0.8116 0.0
H472 H 0.22536 0.6247 0.82299 0.0
H473 H 0.2076 0.50095 0.86273 0.0
C474 C 0.39458 0.53572 0.83609 0.0
C475 C 0.43875 0.56976 0.82465 0.0
C476 C 0.4371 0.61005 0.81473 0.0
C477 C 0.39513 0.61603 0.81534 0.0
C478 C 0.35278 0.58218 0.82657 0.0
C479 C 0.35277 0.54307 0.83723 0.0
C480 C 0.30361 0.51329 0.84957 0.0
C481 C 0.27473 0.46107 0.83538 0.0
C482 C 0.31332 0.51295 0.88005 0.0
C483 C 0.27582 0.54096 0.84407 0.0
C484 C 0.30452 0.58038 0.83035 0.0
C485 C 0.28558 0.61019 0.82252 0.0
C486 C 0.23787 0.6004 0.82898 0.0
C487 C 0.20752 0.56113 0.84384 0.0
C488 C 0.22823 0.53136 0.85128 0.0
H489 H 0.92945 0.49836 0.19061 0.0
H490 H 0.97812 0.44512 0.12429 0.0
H491 H 0.90341 0.36384 0.12298 0.0
H492 H 0.87983 0.38428 0.22348 0.0
H493 H 0.82938 0.38826 0.23564 0.0
H494 H 0.88523 0.443 0.23058 0.0
H495 H 0.83611 0.46812 0.19885 0.0
H496 H 0.78053 0.41381 0.2046 0.0
H497 H 0.79598 0.42552 0.17072 0.0
H498 H 0.81514 0.28196 0.12852 0.0
H499 H 0.73638 0.21665 0.14252 0.0
H500 H 0.74587 0.3187 0.20728 0.0
C501 C 0.92464 0.46989 0.17561 0.0
C502 C 0.96186 0.48069 0.15725 0.0
C503 C 0.95206 0.44015 0.13865 0.0
C504 C 0.90875 0.39289 0.13772 0.0
C505 C 0.87333 0.38366 0.1559 0.0
C506 C 0.88147 0.42137 0.17485 0.0
C507 C 0.83922 0.40115 0.19327 0.0
C508 C 0.85962 0.40438 0.22248 0.0
C509 C 0.81136 0.4289 0.19179 0.0
C510 C 0.80549 0.34719 0.18147 0.0
C511 C 0.82558 0.33758 0.15976 0.0
C512 C 0.80005 0.29011 0.14564 0.0
C513 C 0.75434 0.25244 0.15373 0.0
C514 C 0.73255 0.26053 0.1762 0.0
C515 C 0.75988 0.30962 0.18995 0.0
H516 H 0.11088 0.57738 0.05931 0.0
H517 H 1.044 0.66595 0.07234 0.0
H518 H 1.03055 0.66531 0.02313 0.0
H519 H 0.17085 0.63028 -7e-05 0.0
H520 H 0.15798 0.57306 0.98274 0.0
H521 H 0.16475 0.58182 0.0191 0.0
H522 H 1.07916 0.50536 0.01995 0.0
H523 H 1.07221 0.49626 0.98361 0.0
H524 H 1.02666 0.50135 0.00124 0.0
H525 H 1.02597 0.65745 0.97287 0.0
H526 H 1.02261 0.63647 0.92441 0.0
H527 H 1.08626 0.54686 0.94164 0.0
C528 C 0.09368 0.59688 0.05178 0.0
C529 C 1.07881 0.62209 0.06994 0.0
C530 C 1.05574 0.64642 0.05909 0.0
C531 C 1.0481 0.64642 0.03107 0.0
C532 C 1.06308 0.62137 0.01381 0.0
C533 C 1.08487 0.5965 0.02363 0.0
C534 C 0.09517 0.57059 0.00032 0.0
C535 C 0.15048 0.59011 0.00055 0.0
C536 C 1.06659 0.5151 0.00135 0.0
C537 C 1.07579 0.58487 0.97593 0.0
C538 C 1.05806 0.61466 0.98441 0.0
C539 C 1.03903 0.6335 0.96605 0.0
C540 C 1.03693 0.6209 0.93838 0.0
C541 C 1.05277 0.58869 0.92874 0.0
C542 C 1.07345 0.57124 0.94804 0.0
H543 H 0.53249 0.10618 0.3919 0.0
H544 H 0.68972 0.16753 0.40898 0.0
H545 H 0.69744 0.16079 0.36064 0.0
H546 H 0.51503 1.02051 0.33467 0.0
H547 H 0.47112 1.02932 0.31502 0.0
H548 H 0.47631 1.0379 0.35135 0.0
H549 H 0.49147 0.12527 0.34958 0.0
H550 H 0.48605 0.11684 0.31325 0.0
H551 H 0.54034 0.16759 0.3315 0.0
H552 H 0.68991 0.14632 0.31095 0.0
H553 H 0.66795 0.13017 0.26189 0.0
H554 H 0.51618 0.08139 0.27406 0.0
C555 C 0.56851 0.11825 0.38545 0.0
C556 C 0.61045 0.13747 0.4047 0.0
C557 C 0.65684 0.15287 0.39509 0.0
C558 C 0.66175 0.14903 0.36748 0.0
C559 C 0.62007 0.12993 0.34918 0.0
C560 C 0.57432 0.11512 0.35757 0.0
C561 C 0.53601 0.09702 0.33311 0.0
C562 C 0.49732 1.04297 0.33358 0.0
C563 C 0.51205 0.12857 0.33179 0.0
C564 C 0.56759 0.10407 0.30991 0.0
C565 C 0.61589 0.12278 0.31988 0.0
C566 C 0.65227 0.13218 0.30286 0.0
C567 C 0.63939 0.12314 0.27488 0.0
C568 C 0.59046 0.1053 0.26372 0.0
C569 C 0.55393 0.09499 0.28172 0.0
H570 H 0.53984 0.52219 0.71658 0.0
H571 H 0.63353 0.67476 0.74707 0.0
H572 H 0.64617 0.69597 0.70031 0.0
H573 H 0.60922 0.52242 0.6623 0.0
H574 H 0.55635 0.48156 0.63902 0.0
H575 H 0.5533 0.47817 0.67481 0.0
H576 H 0.4781 0.48985 0.67187 0.0
H577 H 0.48079 0.49308 0.63605 0.0
H578 H 0.48241 0.54192 0.65719 0.0
H579 H 0.6512 0.70054 0.65006 0.0
H580 H 0.6469 0.68879 0.6006 0.0
H581 H 0.54804 0.53335 0.60178 0.0
C582 C 0.56278 0.56017 0.71351 0.0
C583 C 0.58559 0.59679 0.73584 0.0
C584 C 0.61548 0.64592 0.73059 0.0
C585 C 0.62295 0.65837 0.70399 0.0
C586 C 0.60029 0.62141 0.68258 0.0
C587 C 0.57063 0.57329 0.68702 0.0
C588 C 0.55098 0.54056 0.66039 0.0
C589 C 0.56852 0.50349 0.65906 0.0
C590 C 0.49473 0.51484 0.65613 0.0
C591 C 0.57442 0.57771 0.64027 0.0
C592 C 0.6027 0.62411 0.65357 0.0
C593 C 0.62867 0.6644 0.63948 0.0
C594 C 0.6256 0.6573 0.61119 0.0
C595 C 0.59648 0.6102 0.59679 0.0
C596 C 0.57072 0.56989 0.61185 0.0
H597 H 0.59322 0.16611 0.59006 0.0
H598 H 0.6362 0.06427 0.55942 0.0
H599 H 0.66185 1.05778 0.60571 0.0
H600 H 0.69135 0.23141 0.63731 0.0
H601 H 0.65962 0.24147 0.66352 0.0
H602 H 0.6354 0.23161 0.62876 0.0
H603 H 0.5527 0.15912 0.63912 0.0
H604 H 0.57627 0.16936 0.67413 0.0
H605 H 0.55214 0.11019 0.65563 0.0
H606 H 0.69624 0.07313 0.65322 0.0
H607 H 0.72844 0.10219 0.70118 0.0
H608 H 0.66234 0.19274 0.70215 0.0
C609 C 0.60606 0.14096 0.59334 0.0
C610 C 0.61257 0.11547 0.57138 0.0
C611 C 0.63095 0.084 0.57614 0.0
C612 C 0.64557 0.08003 0.60231 0.0
C613 C 0.64126 0.10755 0.62354 0.0
C614 C 0.62108 0.13668 0.61953 0.0
C615 C 0.62467 0.16553 0.64575 0.0
C616 C 0.65455 0.22076 0.64369 0.0
C617 C 0.57339 0.15011 0.65416 0.0
C618 C 0.65183 0.14959 0.66467 0.0
C619 C 0.66076 0.11592 0.65144 0.0
C620 C 0.68859 0.09866 0.66403 0.0
C621 C 0.70716 0.11568 0.69108 0.0
C622 C 0.69761 0.1494 0.70514 0.0
C623 C 0.66952 0.16643 0.69179 0.0
H624 H 0.6316 0.591 0.91659 0.0
H625 H 0.5773 0.44521 0.87722 0.0
H626 H 0.58694 0.41754 0.92037 0.0
H627 H 0.72143 0.58378 0.96935 0.0
H628 H 0.7104 0.61871 -0.00513 0.0
H629 H 0.70875 0.63036 0.96004 0.0
H630 H 0.62115 0.6166 0.9618 0.0
H631 H 0.62266 0.60519 -0.00351 0.0
H632 H 0.57381 0.5603 0.97228 0.0
H633 H 0.58022 0.4003 0.96714 0.0
H634 H 0.56133 0.39623 0.01366 0.0
H635 H 0.63818 0.55496 0.0258 0.0
C636 C 0.62292 0.55362 0.91702 0.0
C637 C 0.60253 0.52017 0.89352 0.0
C638 C 0.59183 0.47153 0.89491 0.0
C639 C 0.59791 0.45542 0.91936 0.0
C640 C 0.61637 0.48866 0.94231 0.0
C641 C 0.62993 0.53706 0.94138 0.0
C642 C 0.64438 0.56375 0.96955 0.0
C643 C 0.69953 0.60138 0.97369 0.0
C644 C 0.61364 0.58782 0.97535 0.0
C645 C 0.63192 0.52164 0.9863 0.0
C646 C 0.61665 0.47886 0.97013 0.0
C647 C 0.59394 0.43377 0.98027 0.0
C648 C 0.58356 0.43195 0.00718 0.0
C649 C 0.59672 0.47519 0.02401 0.0
C650 C 0.62525 0.52069 0.01371 0.0
H651 H 1.08068 0.62104 0.25694 0.0
H652 H 0.20722 0.63877 0.21882 0.0
H653 H 0.24316 0.6304 0.26201 0.0
H654 H 0.14786 0.68638 0.32347 0.0
H655 H 0.09874 0.6451 0.34177 0.0
H656 H 1.08526 0.65686 0.30845 0.0
H657 H 1.03892 0.56412 0.29312 0.0
H658 H 1.05288 0.55214 0.32625 0.0
H659 H 1.07026 0.53047 0.29707 0.0
H660 H 0.26215 0.61388 0.30798 0.0
H661 H 0.26639 0.59654 0.35527 0.0
H662 H 0.12714 0.58872 0.36375 0.0
C663 C 0.11653 0.62447 0.25805 0.0
C664 C 0.14174 0.63106 0.23493 0.0
C665 C 0.18785 0.63407 0.23659 0.0
C666 C 0.20841 0.6293 0.26095 0.0
C667 C 0.18222 0.62153 0.28336 0.0
C668 C 0.13759 0.61971 0.28229 0.0
C669 C 0.11628 0.60908 0.30911 0.0
C670 C 0.11179 0.65192 0.32143 0.0
C671 C 1.06665 0.5611 0.3062 0.0
C672 C 0.1555 0.60446 0.3252 0.0
C673 C 0.19319 0.6118 0.30996 0.0
C674 C 0.23303 0.60834 0.32021 0.0
C675 C 0.23486 0.59798 0.34697 0.0
C676 C 0.19708 0.59119 0.36314 0.0
C677 C 0.15677 0.59415 0.35194 0.0
loop_
_geom_bond_atom_site_label_1
_geom_bond_atom_site_label_2
_geom_bond_distance
_geom_bond_site_symmetry_2
_ccdc_geom_bond_type
Tb0 C10 2.825 . S
Tb0 O11 2.347 . S
Tb0 O14 2.366 . S
Tb0 O19 2.418 . S
Tb0 O20 2.384 . S
Tb0 O23 2.479 . S
Tb0 O24 2.471 . S
Eu1 O12 2.418 . S
Eu1 O13 2.384 . S
Eu1 O16 2.479 1_455 S
Eu1 O17 2.471 1_455 S
Eu1 O18 2.347 . S
Eu1 O21 2.366 1_455 S
Eu1 C31 2.825 1_455 S
C2 O18 1.259 . S
C2 O19 1.265 . S
C3 O20 1.255 1_655 S
C3 O21 1.265 . S
C4 C6 1.380 . S
C4 C7 1.374 . S
C4 C10 1.507 . S
C5 C6 1.384 . S
C5 C9 1.387 . S
C5 H32 0.930 . S
C6 C4 1.380 . S
C6 C5 1.384 . S
C6 H33 0.931 . S
C7 C4 1.374 . S
C7 C8 1.390 . S
C7 H34 0.930 . S
C8 C7 1.390 . S
C8 C9 1.391 . S
C8 H35 0.930 . S
C9 C5 1.387 . S
C9 C8 1.391 . S
C10 Tb0 2.825 . S
C10 C4 1.507 . S
C10 O23 1.238 . S
C10 O24 1.247 . S
O11 Tb0 2.347 . S
O11 C15 1.259 . S
O12 Eu1 2.418 . S
O12 C15 1.265 . S
O13 Eu1 2.384 . S
O13 C22 1.255 . S
O14 Tb0 2.366 . S
O14 C22 1.265 . S
C15 O11 1.259 . S
C15 O12 1.265 . S
O16 Eu1 2.479 1_655 S
O16 C31 1.238 . S
O17 Eu1 2.471 1_655 S
O17 C31 1.247 . S
O18 Eu1 2.347 . S
O18 C2 1.259 . S
O19 Tb0 2.418 . S
O19 C2 1.265 . S
O20 Tb0 2.384 . S
O20 C3 1.255 1_455 S
O21 Eu1 2.366 1_655 S
O21 C3 1.265 . S
C22 O13 1.255 . S
C22 O14 1.265 . S
O23 Tb0 2.479 . S
O23 C10 1.238 . S
O24 Tb0 2.471 . S
O24 C10 1.247 . S
C25 C28 1.380 . S
C25 C29 1.374 . S
C25 C31 1.507 . S
C26 C27 1.387 . S
C26 C30 1.391 . S
C27 C26 1.387 . S
C27 C28 1.384 . S
C27 H36 0.930 . S
C28 C25 1.380 . S
C28 C27 1.384 . S
C28 H37 0.931 . S
C29 C25 1.374 . S
C29 C30 1.390 . S
C29 H38 0.930 . S
C30 C26 1.391 . S
C30 C29 1.390 . S
C30 H39 0.930 . S
C31 Eu1 2.825 1_655 S
C31 O16 1.238 . S
C31 O17 1.247 . S
C31 C25 1.507 . S
H32 C5 0.930 . S
H33 C6 0.931 . S
H34 C7 0.930 . S
H35 C8 0.930 . S
H36 C27 0.930 . S
H37 C28 0.931 . S
H38 C29 0.930 . S
H39 C30 0.930 . S
Tb40 C50 2.825 . S
Tb40 O51 2.347 . S
Tb40 O54 2.366 . S
Tb40 O59 2.418 . S
Tb40 O60 2.384 . S
Tb40 O63 2.479 . S
Tb40 O64 2.471 . S
Eu41 O52 2.418 . S
Eu41 O53 2.384 . S
Eu41 O56 2.479 1_545 S
Eu41 O57 2.471 1_545 S
Eu41 O58 2.347 . S
Eu41 O61 2.366 1_545 S
Eu41 C71 2.825 1_545 S
C42 O58 1.259 . S
C42 O59 1.265 . S
C43 O60 1.255 1_565 S
C43 O61 1.265 . S
C44 C46 1.380 . S
C44 C47 1.374 . S
C44 C50 1.507 . S
C45 C46 1.384 . S
C45 C49 1.387 . S
C45 H72 0.930 . S
C46 C44 1.380 . S
C46 C45 1.384 . S
C46 H73 0.931 . S
C47 C44 1.374 . S
C47 C48 1.390 . S
C47 H74 0.930 . S
C48 C47 1.390 . S
C48 C49 1.391 . S
C48 H75 0.930 . S
C49 C45 1.387 . S
C49 C48 1.391 . S
C50 Tb40 2.825 . S
C50 C44 1.507 . S
C50 O63 1.238 . S
C50 O64 1.247 . S
O51 Tb40 2.347 . S
O51 C55 1.259 . S
O52 Eu41 2.418 . S
O52 C55 1.265 . S
O53 Eu41 2.384 . S
O53 C62 1.255 . S
O54 Tb40 2.366 . S
O54 C62 1.265 . S
C55 O51 1.259 . S
C55 O52 1.265 . S
O56 Eu41 2.479 1_565 S
O56 C71 1.238 . S
O57 Eu41 2.471 1_565 S
O57 C71 1.247 . S
O58 Eu41 2.347 . S
O58 C42 1.259 . S
O59 Tb40 2.418 . S
O59 C42 1.265 . S
O60 Tb40 2.384 . S
O60 C43 1.255 1_545 S
O61 Eu41 2.366 1_565 S
O61 C43 1.265 . S
C62 O53 1.255 . S
C62 O54 1.265 . S
O63 Tb40 2.479 . S
O63 C50 1.238 . S
O64 Tb40 2.471 . S
O64 C50 1.247 . S
C65 C68 1.380 . S
C65 C69 1.374 . S
C65 C71 1.507 . S
C66 C67 1.387 . S
C66 C70 1.391 . S
C67 C66 1.387 . S
C67 C68 1.384 . S
C67 H76 0.930 . S
C68 C65 1.380 . S
C68 C67 1.384 . S
C68 H77 0.931 . S
C69 C65 1.374 . S
C69 C70 1.390 . S
C69 H78 0.930 . S
C70 C66 1.391 . S
C70 C69 1.390 . S
C70 H79 0.930 . S
C71 Eu41 2.825 1_565 S
C71 O56 1.238 . S
C71 O57 1.247 . S
C71 C65 1.507 . S
H72 C45 0.930 . S
H73 C46 0.931 . S
H74 C47 0.930 . S
H75 C48 0.930 . S
H76 C67 0.930 . S
H77 C68 0.931 . S
H78 C69 0.930 . S
H79 C70 0.930 . S
Tb80 C90 2.825 . S
Tb80 O91 2.347 . S
Tb80 O94 2.366 . S
Tb80 O99 2.418 . S
Tb80 O100 2.384 . S
Tb80 O103 2.479 . S
Tb80 O104 2.471 . S
Eu81 O92 2.418 . S
Eu81 O93 2.384 . S
Eu81 O96 2.479 . S
Eu81 O97 2.471 . S
Eu81 O98 2.347 . S
Eu81 O101 2.366 . S
Eu81 C111 2.825 . S
C82 O98 1.259 . S
C82 O99 1.265 . S
C83 O100 1.255 . S
C83 O101 1.265 . S
C84 C86 1.380 . S
C84 C87 1.374 . S
C84 C90 1.507 . S
C85 C86 1.384 . S
C85 C89 1.387 . S
C85 H112 0.930 . S
C86 C84 1.380 . S
C86 C85 1.384 . S
C86 H113 0.931 . S
C87 C84 1.374 . S
C87 C88 1.390 . S
C87 H114 0.930 . S
C88 C87 1.390 . S
C88 C89 1.391 . S
C88 H115 0.930 . S
C89 C85 1.387 . S
C89 C88 1.391 . S
C90 Tb80 2.825 . S
C90 C84 1.507 . S
C90 O103 1.238 . S
C90 O104 1.247 . S
O91 Tb80 2.347 . S
O91 C95 1.259 . S
O92 Eu81 2.418 . S
O92 C95 1.265 . S
O93 Eu81 2.384 . S
O93 C102 1.255 . S
O94 Tb80 2.366 . S
O94 C102 1.265 . S
C95 O91 1.259 . S
C95 O92 1.265 . S
O96 Eu81 2.479 . S
O96 C111 1.238 . S
O97 Eu81 2.471 . S
O97 C111 1.247 . S
O98 Eu81 2.347 . S
O98 C82 1.259 . S
O99 Tb80 2.418 . S
O99 C82 1.265 . S
O100 Tb80 2.384 . S
O100 C83 1.255 . S
O101 Eu81 2.366 . S
O101 C83 1.265 . S
C102 O93 1.255 . S
C102 O94 1.265 . S
O103 Tb80 2.479 . S
O103 C90 1.238 . S
O104 Tb80 2.471 . S
O104 C90 1.247 . S
C105 C108 1.380 . S
C105 C109 1.374 . S
C105 C111 1.507 . S
C106 C107 1.387 . S
C106 C110 1.391 . S
C107 C106 1.387 . S
C107 C108 1.384 . S
C107 H116 0.930 . S
C108 C105 1.380 . S
C108 C107 1.384 . S
C108 H117 0.931 . S
C109 C105 1.374 . S
C109 C110 1.390 . S
C109 H118 0.930 . S
C110 C106 1.391 . S
C110 C109 1.390 . S
C110 H119 0.930 . S
C111 Eu81 2.825 . S
C111 O96 1.238 . S
C111 O97 1.247 . S
C111 C105 1.507 . S
H112 C85 0.930 . S
H113 C86 0.931 . S
H114 C87 0.930 . S
H115 C88 0.930 . S
H116 C107 0.930 . S
H117 C108 0.931 . S
H118 C109 0.930 . S
H119 C110 0.930 . S
H120 C125 0.930 . S
H121 C128 0.930 . S
H122 C130 0.930 1_565 S
H123 C124 1.016 . S
C124 H123 1.016 . S
C124 N131 1.286 . S
C125 H120 0.930 . S
C125 C126 1.390 1_545 S
C125 C127 1.361 . S
C126 C125 1.390 1_565 S
C126 C130 1.384 1_565 S
C127 C125 1.361 . S
C127 C128 1.393 . S
C127 N131 1.413 . S
C128 H121 0.930 . S
C128 C127 1.393 . S
C128 C129 1.399 . S
C129 C128 1.399 . S
C129 C130 1.381 . S
C130 H122 0.930 1_545 S
C130 C126 1.384 1_545 S
C130 C129 1.381 . S
N131 C124 1.286 . S
N131 C127 1.413 . S
H132 C137 0.930 . S
H133 C140 0.930 . S
H134 C142 0.930 . S
H135 C136 1.016 . S
C136 H135 1.016 . S
C136 N143 1.286 . S
C137 H132 0.930 . S
C137 C138 1.397 . S
C137 C139 1.361 . S
C138 C137 1.397 . S
C138 C142 1.390 . S
C139 C137 1.361 . S
C139 C140 1.393 . S
C139 N143 1.413 . S
C140 H133 0.930 . S
C140 C139 1.393 . S
C140 C141 1.399 . S
C141 C140 1.399 . S
C141 C142 1.381 . S
C142 H134 0.930 . S
C142 C138 1.390 . S
C142 C141 1.381 . S
N143 C136 1.286 . S
N143 C139 1.413 . S
H144 C149 0.930 . S
H145 C152 0.930 . S
H146 C154 0.930 . S
H147 C148 1.016 . S
C148 H147 1.016 . S
C148 N155 1.286 . S
C149 H144 0.930 . S
C149 C150 1.397 . S
C149 C151 1.361 1_655 S
C150 C149 1.397 . S
C150 C154 1.390 . S
C151 C149 1.361 1_455 S
C151 C152 1.393 . S
C151 N155 1.413 . S
C152 H145 0.930 . S
C152 C151 1.393 . S
C152 C153 1.399 . S
C153 C152 1.399 . S
C153 C154 1.381 1_455 S
C154 H146 0.930 . S
C154 C150 1.390 . S
C154 C153 1.381 1_655 S
N155 C148 1.286 . S
N155 C151 1.413 . S
H156 C161 0.930 . S
H157 C164 0.930 . S
H158 C166 0.930 . S
H159 C160 1.016 . S
C160 H159 1.016 . S
C160 N167 1.286 . S
C161 H156 0.930 . S
C161 C162 1.397 . S
C161 C163 1.361 . S
C162 C161 1.397 . S
C162 C166 1.390 . S
C163 C161 1.361 . S
C163 C164 1.393 1_455 S
C163 N167 1.413 1_455 S
C164 H157 0.930 . S
C164 C163 1.393 1_655 S
C164 C165 1.399 1_655 S
C165 C164 1.399 1_455 S
C165 C166 1.381 . S
C166 H158 0.930 . S
C166 C162 1.390 . S
C166 C165 1.381 . S
N167 C160 1.286 . S
N167 C163 1.413 1_655 S
H168 C173 0.930 . S
H169 C176 0.930 . S
H170 C178 0.930 . S
H171 C172 1.016 . S
C172 H171 1.016 . S
C172 N179 1.286 . S
C173 H168 0.930 . S
C173 C174 1.397 . S
C173 C175 1.361 . S
C174 C173 1.397 . S
C174 C178 1.390 . S
C175 C173 1.361 . S
C175 C176 1.393 1_545 S
C175 N179 1.413 1_545 S
C176 H169 0.930 . S
C176 C175 1.393 1_565 S
C176 C177 1.399 1_565 S
C177 C176 1.399 1_545 S
C177 C178 1.381 . S
C178 H170 0.930 . S
C178 C174 1.390 . S
C178 C177 1.381 . S
N179 C172 1.286 . S
N179 C175 1.413 1_565 S
H180 C185 0.930 . S
H181 C188 0.930 . S
H182 C190 0.930 . S
H183 C184 1.016 . S
C184 H183 1.016 . S
C184 N191 1.286 . S
C185 H180 0.930 . S
C185 C186 1.397 . S
C185 C187 1.361 . S
C186 C185 1.397 . S
C186 C190 1.390 . S
C187 C185 1.361 . S
C187 C188 1.393 . S
C187 N191 1.413 . S
C188 H181 0.930 . S
C188 C187 1.393 . S
C188 C189 1.399 . S
C189 C188 1.399 . S
C189 C190 1.381 . S
C190 H182 0.930 . S
C190 C186 1.390 . S
C190 C189 1.381 . S
N191 C184 1.286 . S
N191 C187 1.413 . S
H192 C204 0.930 . S
H193 C206 0.930 . S
H194 C207 0.930 . S
H195 C211 0.959 . S
H196 C211 0.959 . S
H197 C211 0.961 . S
H198 C212 0.960 . S
H199 C212 0.961 . S
H200 C212 0.959 . S
H201 C215 0.929 . S
H202 C216 0.931 . S
H203 C218 0.930 . S
C204 H192 0.930 . S
C204 C205 1.399 . S
C204 C209 1.399 . S
C205 C204 1.399 . S
C205 C206 1.376 . S
C206 H193 0.930 . S
C206 C205 1.376 . S
C206 C207 1.388 . S
C207 H194 0.930 . S
C207 C206 1.388 . S
C207 C208 1.390 . S
C208 C207 1.390 . S
C208 C209 1.394 . S
C208 C214 1.465 . S
C209 C204 1.399 . S
C209 C208 1.394 . S
C209 C210 1.516 . S
C210 C209 1.516 . S
C210 C211 1.502 . S
C210 C212 1.561 . S
C210 C213 1.526 . S
C211 H195 0.959 . S
C211 H196 0.959 . S
C211 H197 0.961 . S
C211 C210 1.502 . S
C212 H198 0.960 . S
C212 H199 0.961 . S
C212 H200 0.959 . S
C212 C210 1.561 . S
C213 C210 1.526 . S
C213 C214 1.396 . S
C213 C218 1.390 . S
C214 C208 1.465 . S
C214 C213 1.396 . S
C214 C215 1.399 . S
C215 H201 0.929 . S
C215 C214 1.399 . S
C215 C216 1.385 . S
C216 H202 0.931 . S
C216 C215 1.385 . S
C216 C217 1.389 . S
C217 C216 1.389 . S
C217 C218 1.387 . S
C218 H203 0.930 . S
C218 C213 1.390 . S
C218 C217 1.387 . S
H219 C231 0.930 . S
H220 C233 0.930 . S
H221 C234 0.930 . S
H222 C238 0.959 . S
H223 C238 0.959 . S
H224 C238 0.961 . S
H225 C239 0.960 . S
H226 C239 0.961 . S
H227 C239 0.959 . S
H228 C242 0.929 . S
H229 C243 0.931 . S
H230 C245 0.930 . S
C231 H219 0.930 . S
C231 C232 1.399 . S
C231 C236 1.399 . S
C232 C231 1.399 . S
C232 C233 1.376 . S
C233 H220 0.930 . S
C233 C232 1.376 . S
C233 C234 1.388 . S
C234 H221 0.930 . S
C234 C233 1.388 . S
C234 C235 1.390 . S
C235 C234 1.390 . S
C235 C236 1.394 . S
C235 C241 1.465 . S
C236 C231 1.399 . S
C236 C235 1.394 . S
C236 C237 1.516 . S
C237 C236 1.516 . S
C237 C238 1.502 . S
C237 C239 1.561 . S
C237 C240 1.526 . S
C238 H222 0.959 . S
C238 H223 0.959 . S
C238 H224 0.961 . S
C238 C237 1.502 . S
C239 H225 0.960 . S
C239 H226 0.961 . S
C239 H227 0.959 . S
C239 C237 1.561 . S
C240 C237 1.526 . S
C240 C241 1.396 . S
C240 C245 1.390 . S
C241 C235 1.465 . S
C241 C240 1.396 . S
C241 C242 1.399 . S
C242 H228 0.929 . S
C242 C241 1.399 . S
C242 C243 1.385 . S
C243 H229 0.931 . S
C243 C242 1.385 . S
C243 C244 1.389 . S
C244 C243 1.389 . S
C244 C245 1.387 . S
C245 H230 0.930 . S
C245 C240 1.390 . S
C245 C244 1.387 . S
H246 C258 0.930 . S
H247 C260 0.930 . S
H248 C261 0.930 . S
H249 C265 0.959 . S
H250 C265 0.959 . S
H251 C265 0.961 . S
H252 C266 0.960 . S
H253 C266 0.961 . S
H254 C266 0.959 . S
H255 C269 0.929 . S
H256 C270 0.931 . S
H257 C272 0.930 . S
C258 H246 0.930 . S
C258 C259 1.399 . S
C258 C263 1.399 . S
C259 C258 1.399 . S
C259 C260 1.376 . S
C260 H247 0.930 . S
C260 C259 1.376 . S
C260 C261 1.388 . S
C261 H248 0.930 . S
C261 C260 1.388 . S
C261 C262 1.390 . S
C262 C261 1.390 . S
C262 C263 1.394 . S
C262 C268 1.465 . S
C263 C258 1.399 . S
C263 C262 1.394 . S
C263 C264 1.516 . S
C264 C263 1.516 . S
C264 C265 1.502 . S
C264 C266 1.561 . S
C264 C267 1.526 . S
C265 H249 0.959 . S
C265 H250 0.959 . S
C265 H251 0.961 . S
C265 C264 1.502 . S
C266 H252 0.960 . S
C266 H253 0.961 . S
C266 H254 0.959 . S
C266 C264 1.561 . S
C267 C264 1.526 . S
C267 C268 1.396 . S
C267 C272 1.390 . S
C268 C262 1.465 . S
C268 C267 1.396 . S
C268 C269 1.399 . S
C269 H255 0.929 . S
C269 C268 1.399 . S
C269 C270 1.385 . S
C270 H256 0.931 . S
C270 C269 1.385 . S
C270 C271 1.389 . S
C271 C270 1.389 . S
C271 C272 1.387 . S
C272 H257 0.930 . S
C272 C267 1.390 . S
C272 C271 1.387 . S
H273 C285 0.930 . S
H274 C287 0.930 . S
H275 C288 0.930 . S
H276 C292 0.959 . S
H277 C292 0.959 . S
H278 C292 0.961 . S
H279 C293 0.960 . S
H280 C293 0.961 . S
H281 C293 0.959 . S
H282 C296 0.929 . S
H283 C297 0.931 . S
H284 C299 0.930 . S
C285 H273 0.930 . S
C285 C286 1.399 . S
C285 C290 1.399 . S
C286 C285 1.399 . S
C286 C287 1.376 . S
C287 H274 0.930 . S
C287 C286 1.376 . S
C287 C288 1.388 . S
C288 H275 0.930 . S
C288 C287 1.388 . S
C288 C289 1.390 . S
C289 C288 1.390 . S
C289 C290 1.394 . S
C289 C295 1.465 . S
C290 C285 1.399 . S
C290 C289 1.394 . S
C290 C291 1.516 . S
C291 C290 1.516 . S
C291 C292 1.502 . S
C291 C293 1.561 . S
C291 C294 1.526 . S
C292 H276 0.959 . S
C292 H277 0.959 . S
C292 H278 0.961 . S
C292 C291 1.502 . S
C293 H279 0.960 . S
C293 H280 0.961 . S
C293 H281 0.959 . S
C293 C291 1.561 . S
C294 C291 1.526 . S
C294 C295 1.396 . S
C294 C299 1.390 . S
C295 C289 1.465 . S
C295 C294 1.396 . S
C295 C296 1.399 . S
C296 H282 0.929 . S
C296 C295 1.399 . S
C296 C297 1.385 . S
C297 H283 0.931 . S
C297 C296 1.385 . S
C297 C298 1.389 . S
C298 C297 1.389 . S
C298 C299 1.387 . S
C299 H284 0.930 . S
C299 C294 1.390 . S
C299 C298 1.387 . S
H300 C312 0.930 . S
H301 C314 0.930 . S
H302 C315 0.930 . S
H303 C319 0.959 . S
H304 C319 0.959 . S
H305 C319 0.961 . S
H306 C320 0.960 . S
H307 C320 0.961 . S
H308 C320 0.959 . S
H309 C323 0.929 . S
H310 C324 0.931 . S
H311 C326 0.930 . S
C312 H300 0.930 . S
C312 C313 1.399 . S
C312 C317 1.399 . S
C313 C312 1.399 . S
C313 C314 1.376 . S
C314 H301 0.930 . S
C314 C313 1.376 . S
C314 C315 1.388 . S
C315 H302 0.930 . S
C315 C314 1.388 . S
C315 C316 1.390 . S
C316 C315 1.390 . S
C316 C317 1.394 . S
C316 C322 1.465 . S
C317 C312 1.399 . S
C317 C316 1.394 . S
C317 C318 1.516 . S
C318 C317 1.516 . S
C318 C319 1.502 . S
C318 C320 1.561 . S
C318 C321 1.526 . S
C319 H303 0.959 . S
C319 H304 0.959 . S
C319 H305 0.961 . S
C319 C318 1.502 . S
C320 H306 0.960 . S
C320 H307 0.961 . S
C320 H308 0.959 . S
C320 C318 1.561 . S
C321 C318 1.526 . S
C321 C322 1.396 . S
C321 C326 1.390 . S
C322 C316 1.465 . S
C322 C321 1.396 . S
C322 C323 1.399 . S
C323 H309 0.929 . S
C323 C322 1.399 . S
C323 C324 1.385 . S
C324 H310 0.931 . S
C324 C323 1.385 . S
C324 C325 1.389 . S
C325 C324 1.389 . S
C325 C326 1.387 . S
C326 H311 0.930 . S
C326 C321 1.390 . S
C326 C325 1.387 . S
H327 C339 0.930 . S
H328 C341 0.930 . S
H329 C342 0.930 . S
H330 C346 0.959 . S
H331 C346 0.959 . S
H332 C346 0.961 . S
H333 C347 0.960 . S
H334 C347 0.961 . S
H335 C347 0.959 . S
H336 C350 0.929 . S
H337 C351 0.931 . S
H338 C353 0.930 . S
C339 H327 0.930 . S
C339 C340 1.399 . S
C339 C344 1.399 . S
C340 C339 1.399 . S
C340 C341 1.376 . S
C341 H328 0.930 . S
C341 C340 1.376 . S
C341 C342 1.388 . S
C342 H329 0.930 . S
C342 C341 1.388 . S
C342 C343 1.390 . S
C343 C342 1.390 . S
C343 C344 1.394 . S
C343 C349 1.465 . S
C344 C339 1.399 . S
C344 C343 1.394 . S
C344 C345 1.516 . S
C345 C344 1.516 . S
C345 C346 1.502 . S
C345 C347 1.561 . S
C345 C348 1.526 . S
C346 H330 0.959 . S
C346 H331 0.959 . S
C346 H332 0.961 . S
C346 C345 1.502 . S
C347 H333 0.960 . S
C347 H334 0.961 . S
C347 H335 0.959 . S
C347 C345 1.561 . S
C348 C345 1.526 . S
C348 C349 1.396 . S
C348 C353 1.390 . S
C349 C343 1.465 . S
C349 C348 1.396 . S
C349 C350 1.399 . S
C350 H336 0.929 . S
C350 C349 1.399 . S
C350 C351 1.385 . S
C351 H337 0.931 . S
C351 C350 1.385 . S
C351 C352 1.389 . S
C352 C351 1.389 . S
C352 C353 1.387 . S
C353 H338 0.930 . S
C353 C348 1.390 . S
C353 C352 1.387 . S
H354 C366 0.930 . S
H355 C368 0.930 . S
H356 C369 0.930 . S
H357 C373 0.959 . S
H358 C373 0.959 . S
H359 C373 0.961 . S
H360 C374 0.960 . S
H361 C374 0.961 . S
H362 C374 0.959 . S
H363 C377 0.929 . S
H364 C378 0.931 . S
H365 C380 0.930 . S
C366 H354 0.930 . S
C366 C367 1.399 . S
C366 C371 1.399 . S
C367 C366 1.399 . S
C367 C368 1.376 . S
C368 H355 0.930 . S
C368 C367 1.376 . S
C368 C369 1.388 . S
C369 H356 0.930 . S
C369 C368 1.388 . S
C369 C370 1.390 . S
C370 C369 1.390 . S
C370 C371 1.394 . S
C370 C376 1.465 . S
C371 C366 1.399 . S
C371 C370 1.394 . S
C371 C372 1.516 . S
C372 C371 1.516 . S
C372 C373 1.502 . S
C372 C374 1.561 . S
C372 C375 1.526 . S
C373 H357 0.959 . S
C373 H358 0.959 . S
C373 H359 0.961 . S
C373 C372 1.502 . S
C374 H360 0.960 . S
C374 H361 0.961 . S
C374 H362 0.959 . S
C374 C372 1.561 . S
C375 C372 1.526 . S
C375 C376 1.396 . S
C375 C380 1.390 . S
C376 C370 1.465 . S
C376 C375 1.396 . S
C376 C377 1.399 . S
C377 H363 0.929 . S
C377 C376 1.399 . S
C377 C378 1.385 . S
C378 H364 0.931 . S
C378 C377 1.385 . S
C378 C379 1.389 . S
C379 C378 1.389 . S
C379 C380 1.387 . S
C380 H365 0.930 . S
C380 C375 1.390 . S
C380 C379 1.387 . S
H381 C393 0.930 . S
H382 C395 0.930 . S
H383 C396 0.930 . S
H384 C400 0.959 . S
H385 C400 0.959 . S
H386 C400 0.961 . S
H387 C401 0.960 . S
H388 C401 0.961 . S
H389 C401 0.959 . S
H390 C404 0.929 . S
H391 C405 0.931 . S
H392 C407 0.930 . S
C393 H381 0.930 . S
C393 C394 1.399 . S
C393 C398 1.399 . S
C394 C393 1.399 . S
C394 C395 1.376 . S
C395 H382 0.930 . S
C395 C394 1.376 . S
C395 C396 1.388 . S
C396 H383 0.930 . S
C396 C395 1.388 . S
C396 C397 1.390 . S
C397 C396 1.390 . S
C397 C398 1.394 . S
C397 C403 1.465 . S
C398 C393 1.399 . S
C398 C397 1.394 . S
C398 C399 1.516 . S
C399 C398 1.516 . S
C399 C400 1.502 . S
C399 C401 1.561 . S
C399 C402 1.526 . S
C400 H384 0.959 . S
C400 H385 0.959 . S
C400 H386 0.961 . S
C400 C399 1.502 . S
C401 H387 0.960 . S
C401 H388 0.961 . S
C401 H389 0.959 . S
C401 C399 1.561 . S
C402 C399 1.526 . S
C402 C403 1.396 . S
C402 C407 1.390 . S
C403 C397 1.465 . S
C403 C402 1.396 . S
C403 C404 1.399 . S
C404 H390 0.929 . S
C404 C403 1.399 . S
C404 C405 1.385 . S
C405 H391 0.931 . S
C405 C404 1.385 . S
C405 C406 1.389 . S
C406 C405 1.389 . S
C406 C407 1.387 . S
C407 H392 0.930 . S
C407 C402 1.390 . S
C407 C406 1.387 . S
H408 C420 0.930 . S
H409 C422 0.930 . S
H410 C423 0.930 . S
H411 C427 0.959 . S
H412 C427 0.959 . S
H413 C427 0.961 . S
H414 C428 0.960 . S
H415 C428 0.961 . S
H416 C428 0.959 . S
H417 C431 0.929 . S
H418 C432 0.931 . S
H419 C434 0.930 . S
C420 H408 0.930 . S
C420 C421 1.399 . S
C420 C425 1.399 . S
C421 C420 1.399 . S
C421 C422 1.376 . S
C422 H409 0.930 . S
C422 C421 1.376 . S
C422 C423 1.388 . S
C423 H410 0.930 . S
C423 C422 1.388 . S
C423 C424 1.390 . S
C424 C423 1.390 . S
C424 C425 1.394 . S
C424 C430 1.465 . S
C425 C420 1.399 . S
C425 C424 1.394 . S
C425 C426 1.516 . S
C426 C425 1.516 . S
C426 C427 1.502 . S
C426 C428 1.561 . S
C426 C429 1.526 . S
C427 H411 0.959 . S
C427 H412 0.959 . S
C427 H413 0.961 . S
C427 C426 1.502 . S
C428 H414 0.960 . S
C428 H415 0.961 . S
C428 H416 0.959 . S
C428 C426 1.561 . S
C429 C426 1.526 . S
C429 C430 1.396 . S
C429 C434 1.390 . S
C430 C424 1.465 . S
C430 C429 1.396 . S
C430 C431 1.399 . S
C431 H417 0.929 . S
C431 C430 1.399 . S
C431 C432 1.385 . S
C432 H418 0.931 . S
C432 C431 1.385 . S
C432 C433 1.389 . S
C433 C432 1.389 . S
C433 C434 1.387 . S
C434 H419 0.930 . S
C434 C429 1.390 . S
C434 C433 1.387 . S
H435 C447 0.930 . S
H436 C449 0.930 . S
H437 C450 0.930 . S
H438 C454 0.959 . S
H439 C454 0.959 . S
H440 C454 0.961 . S
H441 C455 0.960 . S
H442 C455 0.961 . S
H443 C455 0.959 . S
H444 C458 0.929 . S
H445 C459 0.931 . S
H446 C461 0.930 . S
C447 H435 0.930 . S
C447 C448 1.399 . S
C447 C452 1.399 . S
C448 C447 1.399 . S
C448 C449 1.376 . S
C449 H436 0.930 . S
C449 C448 1.376 . S
C449 C450 1.388 . S
C450 H437 0.930 . S
C450 C449 1.388 . S
C450 C451 1.390 . S
C451 C450 1.390 . S
C451 C452 1.394 . S
C451 C457 1.465 . S
C452 C447 1.399 . S
C452 C451 1.394 . S
C452 C453 1.516 . S
C453 C452 1.516 . S
C453 C454 1.502 . S
C453 C455 1.561 . S
C453 C456 1.526 . S
C454 H438 0.959 . S
C454 H439 0.959 . S
C454 H440 0.961 . S
C454 C453 1.502 . S
C455 H441 0.960 . S
C455 H442 0.961 . S
C455 H443 0.959 . S
C455 C453 1.561 . S
C456 C453 1.526 . S
C456 C457 1.396 . S
C456 C461 1.390 . S
C457 C451 1.465 . S
C457 C456 1.396 . S
C457 C458 1.399 . S
C458 H444 0.929 . S
C458 C457 1.399 . S
C458 C459 1.385 . S
C459 H445 0.931 . S
C459 C458 1.385 . S
C459 C460 1.389 . S
C460 C459 1.389 . S
C460 C461 1.387 . S
C461 H446 0.930 . S
C461 C456 1.390 . S
C461 C460 1.387 . S
H462 C474 0.930 . S
H463 C476 0.930 . S
H464 C477 0.930 . S
H465 C481 0.959 . S
H466 C481 0.959 . S
H467 C481 0.961 . S
H468 C482 0.960 . S
H469 C482 0.961 . S
H470 C482 0.959 . S
H471 C485 0.929 . S
H472 C486 0.931 . S
H473 C488 0.930 . S
C474 H462 0.930 . S
C474 C475 1.399 . S
C474 C479 1.399 . S
C475 C474 1.399 . S
C475 C476 1.376 . S
C476 H463 0.930 . S
C476 C475 1.376 . S
C476 C477 1.388 . S
C477 H464 0.930 . S
C477 C476 1.388 . S
C477 C478 1.390 . S
C478 C477 1.390 . S
C478 C479 1.394 . S
C478 C484 1.465 . S
C479 C474 1.399 . S
C479 C478 1.394 . S
C479 C480 1.516 . S
C480 C479 1.516 . S
C480 C481 1.502 . S
C480 C482 1.561 . S
C480 C483 1.526 . S
C481 H465 0.959 . S
C481 H466 0.959 . S
C481 H467 0.961 . S
C481 C480 1.502 . S
C482 H468 0.960 . S
C482 H469 0.961 . S
C482 H470 0.959 . S
C482 C480 1.561 . S
C483 C480 1.526 . S
C483 C484 1.396 . S
C483 C488 1.390 . S
C484 C478 1.465 . S
C484 C483 1.396 . S
C484 C485 1.399 . S
C485 H471 0.929 . S
C485 C484 1.399 . S
C485 C486 1.385 . S
C486 H472 0.931 . S
C486 C485 1.385 . S
C486 C487 1.389 . S
C487 C486 1.389 . S
C487 C488 1.387 . S
C488 H473 0.930 . S
C488 C483 1.390 . S
C488 C487 1.387 . S
H489 C501 0.930 . S
H490 C503 0.930 . S
H491 C504 0.930 . S
H492 C508 0.959 . S
H493 C508 0.959 . S
H494 C508 0.961 . S
H495 C509 0.960 . S
H496 C509 0.961 . S
H497 C509 0.959 . S
H498 C512 0.929 . S
H499 C513 0.931 . S
H500 C515 0.930 . S
C501 H489 0.930 . S
C501 C502 1.399 . S
C501 C506 1.399 . S
C502 C501 1.399 . S
C502 C503 1.376 . S
C503 H490 0.930 . S
C503 C502 1.376 . S
C503 C504 1.388 . S
C504 H491 0.930 . S
C504 C503 1.388 . S
C504 C505 1.390 . S
C505 C504 1.390 . S
C505 C506 1.394 . S
C505 C511 1.465 . S
C506 C501 1.399 . S
C506 C505 1.394 . S
C506 C507 1.516 . S
C507 C506 1.516 . S
C507 C508 1.502 . S
C507 C509 1.561 . S
C507 C510 1.526 . S
C508 H492 0.959 . S
C508 H493 0.959 . S
C508 H494 0.961 . S
C508 C507 1.502 . S
C509 H495 0.960 . S
C509 H496 0.961 . S
C509 H497 0.959 . S
C509 C507 1.561 . S
C510 C507 1.526 . S
C510 C511 1.396 . S
C510 C515 1.390 . S
C511 C505 1.465 . S
C511 C510 1.396 . S
C511 C512 1.399 . S
C512 H498 0.929 . S
C512 C511 1.399 . S
C512 C513 1.385 . S
C513 H499 0.931 . S
C513 C512 1.385 . S
C513 C514 1.389 . S
C514 C513 1.389 . S
C514 C515 1.387 . S
C515 H500 0.930 . S
C515 C510 1.390 . S
C515 C514 1.387 . S
H516 C528 0.930 . S
H517 C530 0.930 . S
H518 C531 0.930 . S
H519 C535 0.959 . S
H520 C535 0.959 1_556 S
H521 C535 0.961 . S
H522 C536 0.960 . S
H523 C536 0.961 1_556 S
H524 C536 0.959 . S
H525 C539 0.929 . S
H526 C540 0.931 . S
H527 C542 0.930 . S
C528 H516 0.930 . S
C528 C529 1.399 . S
C528 C533 1.399 . S
C529 C528 1.399 . S
C529 C530 1.376 . S
C530 H517 0.930 . S
C530 C529 1.376 . S
C530 C531 1.388 . S
C531 H518 0.930 . S
C531 C530 1.388 . S
C531 C532 1.390 . S
C532 C531 1.390 . S
C532 C533 1.394 . S
C532 C538 1.465 1_554 S
C533 C528 1.399 . S
C533 C532 1.394 . S
C533 C534 1.516 . S
C534 C533 1.516 . S
C534 C535 1.502 . S
C534 C536 1.561 1_455 S
C534 C537 1.526 1_554 S
C535 H519 0.959 . S
C535 H520 0.959 1_554 S
C535 H521 0.961 . S
C535 C534 1.502 . S
C536 H522 0.960 . S
C536 H523 0.961 1_554 S
C536 H524 0.959 . S
C536 C534 1.561 1_655 S
C537 C534 1.526 1_556 S
C537 C538 1.396 . S
C537 C542 1.390 . S
C538 C532 1.465 1_556 S
C538 C537 1.396 . S
C538 C539 1.399 . S
C539 H525 0.929 . S
C539 C538 1.399 . S
C539 C540 1.385 . S
C540 H526 0.931 . S
C540 C539 1.385 . S
C540 C541 1.389 . S
C541 C540 1.389 . S
C541 C542 1.387 . S
C542 H527 0.930 . S
C542 C537 1.390 . S
C542 C541 1.387 . S
H543 C555 0.930 . S
H544 C557 0.930 1_565 S
H545 C558 0.930 1_565 S
H546 C562 0.959 . S
H547 C562 0.959 . S
H548 C562 0.961 . S
H549 C563 0.960 . S
H550 C563 0.961 . S
H551 C563 0.959 . S
H552 C566 0.929 . S
H553 C567 0.931 1_565 S
H554 C569 0.930 . S
C555 H543 0.930 . S
C555 C556 1.399 . S
C555 C560 1.399 . S
C556 C555 1.399 . S
C556 C557 1.376 . S
C557 H544 0.930 1_545 S
C557 C556 1.376 . S
C557 C558 1.388 . S
C558 H545 0.930 1_545 S
C558 C557 1.388 . S
C558 C559 1.390 . S
C559 C558 1.390 . S
C559 C560 1.394 . S
C559 C565 1.465 . S
C560 C555 1.399 . S
C560 C559 1.394 . S
C560 C561 1.516 . S
C561 C560 1.516 . S
C561 C562 1.502 . S
C561 C563 1.561 . S
C561 C564 1.526 . S
C562 H546 0.959 . S
C562 H547 0.959 . S
C562 H548 0.961 . S
C562 C561 1.502 . S
C563 H549 0.960 . S
C563 H550 0.961 . S
C563 H551 0.959 . S
C563 C561 1.561 . S
C564 C561 1.526 . S
C564 C565 1.396 . S
C564 C569 1.390 . S
C565 C559 1.465 . S
C565 C564 1.396 . S
C565 C566 1.399 1_545 S
C566 H552 0.929 . S
C566 C565 1.399 1_565 S
C566 C567 1.385 1_565 S
C567 H553 0.931 1_545 S
C567 C566 1.385 1_545 S
C567 C568 1.389 . S
C568 C567 1.389 . S
C568 C569 1.387 . S
C569 H554 0.930 . S
C569 C564 1.390 . S
C569 C568 1.387 . S
H570 C582 0.930 . S
H571 C584 0.930 . S
H572 C585 0.930 . S
H573 C589 0.959 . S
H574 C589 0.959 . S
H575 C589 0.961 . S
H576 C590 0.960 . S
H577 C590 0.961 . S
H578 C590 0.959 . S
H579 C593 0.929 . S
H580 C594 0.931 . S
H581 C596 0.930 . S
C582 H570 0.930 . S
C582 C583 1.399 . S
C582 C587 1.399 . S
C583 C582 1.399 . S
C583 C584 1.376 . S
C584 H571 0.930 . S
C584 C583 1.376 . S
C584 C585 1.388 . S
C585 H572 0.930 . S
C585 C584 1.388 . S
C585 C586 1.390 . S
C586 C585 1.390 . S
C586 C587 1.394 . S
C586 C592 1.465 . S
C587 C582 1.399 . S
C587 C586 1.394 . S
C587 C588 1.516 . S
C588 C587 1.516 . S
C588 C589 1.502 . S
C588 C590 1.561 . S
C588 C591 1.526 . S
C589 H573 0.959 . S
C589 H574 0.959 . S
C589 H575 0.961 . S
C589 C588 1.502 . S
C590 H576 0.960 . S
C590 H577 0.961 . S
C590 H578 0.959 . S
C590 C588 1.561 . S
C591 C588 1.526 . S
C591 C592 1.396 . S
C591 C596 1.390 . S
C592 C586 1.465 . S
C592 C591 1.396 . S
C592 C593 1.399 . S
C593 H579 0.929 . S
C593 C592 1.399 . S
C593 C594 1.385 . S
C594 H580 0.931 . S
C594 C593 1.385 . S
C594 C595 1.389 . S
C595 C594 1.389 . S
C595 C596 1.387 . S
C596 H581 0.930 . S
C596 C591 1.390 . S
C596 C595 1.387 . S
H597 C609 0.930 . S
H598 C611 0.930 1_565 S
H599 C612 0.930 . S
H600 C616 0.959 . S
H601 C616 0.959 . S
H602 C616 0.961 . S
H603 C617 0.960 . S
H604 C617 0.961 . S
H605 C617 0.959 . S
H606 C620 0.929 . S
H607 C621 0.931 . S
H608 C623 0.930 . S
C609 H597 0.930 . S
C609 C610 1.399 . S
C609 C614 1.399 . S
C610 C609 1.399 . S
C610 C611 1.376 . S
C611 H598 0.930 1_545 S
C611 C610 1.376 . S
C611 C612 1.388 1_545 S
C612 H599 0.930 . S
C612 C611 1.388 1_565 S
C612 C613 1.390 1_565 S
C613 C612 1.390 1_545 S
C613 C614 1.394 . S
C613 C619 1.465 . S
C614 C609 1.399 . S
C614 C613 1.394 . S
C614 C615 1.516 . S
C615 C614 1.516 . S
C615 C616 1.502 . S
C615 C617 1.561 . S
C615 C618 1.526 . S
C616 H600 0.959 . S
C616 H601 0.959 . S
C616 H602 0.961 . S
C616 C615 1.502 . S
C617 H603 0.960 . S
C617 H604 0.961 . S
C617 H605 0.959 . S
C617 C615 1.561 . S
C618 C615 1.526 . S
C618 C619 1.396 . S
C618 C623 1.390 . S
C619 C613 1.465 . S
C619 C618 1.396 . S
C619 C620 1.399 1_545 S
C620 H606 0.929 . S
C620 C619 1.399 1_565 S
C620 C621 1.385 . S
C621 H607 0.931 . S
C621 C620 1.385 . S
C621 C622 1.389 1_565 S
C622 C621 1.389 1_545 S
C622 C623 1.387 . S
C623 H608 0.930 . S
C623 C618 1.390 . S
C623 C622 1.387 . S
H624 C636 0.930 . S
H625 C638 0.930 . S
H626 C639 0.930 . S
H627 C643 0.959 . S
H628 C643 0.959 1_554 S
H629 C643 0.961 . S
H630 C644 0.960 . S
H631 C644 0.961 1_554 S
H632 C644 0.959 . S
H633 C647 0.929 1_556 S
H634 C648 0.931 . S
H635 C650 0.930 . S
C636 H624 0.930 . S
C636 C637 1.399 . S
C636 C641 1.399 . S
C637 C636 1.399 . S
C637 C638 1.376 . S
C638 H625 0.930 . S
C638 C637 1.376 . S
C638 C639 1.388 . S
C639 H626 0.930 . S
C639 C638 1.388 . S
C639 C640 1.390 . S
C640 C639 1.390 . S
C640 C641 1.394 . S
C640 C646 1.465 . S
C641 C636 1.399 . S
C641 C640 1.394 . S
C641 C642 1.516 . S
C642 C641 1.516 . S
C642 C643 1.502 . S
C642 C644 1.561 . S
C642 C645 1.526 1_556 S
C643 H627 0.959 . S
C643 H628 0.959 1_556 S
C643 H629 0.961 . S
C643 C642 1.502 . S
C644 H630 0.960 . S
C644 H631 0.961 1_556 S
C644 H632 0.959 . S
C644 C642 1.561 . S
C645 C642 1.526 1_554 S
C645 C646 1.396 1_554 S
C645 C650 1.390 . S
C646 C640 1.465 . S
C646 C645 1.396 1_556 S
C646 C647 1.399 1_556 S
C647 H633 0.929 1_554 S
C647 C646 1.399 1_554 S
C647 C648 1.385 . S
C648 H634 0.931 . S
C648 C647 1.385 . S
C648 C649 1.389 . S
C649 C648 1.389 . S
C649 C650 1.387 . S
C650 H635 0.930 . S
C650 C645 1.390 . S
C650 C649 1.387 . S
H651 C663 0.930 . S
H652 C665 0.930 1_655 S
H653 C666 0.930 . S
H654 C670 0.959 . S
H655 C670 0.959 . S
H656 C670 0.961 . S
H657 C671 0.960 . S
H658 C671 0.961 . S
H659 C671 0.959 . S
H660 C674 0.929 . S
H661 C675 0.931 . S
H662 C677 0.930 . S
C663 H651 0.930 . S
C663 C664 1.399 . S
C663 C668 1.399 . S
C664 C663 1.399 . S
C664 C665 1.376 . S
C665 H652 0.930 1_455 S
C665 C664 1.376 . S
C665 C666 1.388 1_455 S
C666 H653 0.930 . S
C666 C665 1.388 1_655 S
C666 C667 1.390 1_655 S
C667 C666 1.390 1_455 S
C667 C668 1.394 . S
C667 C673 1.465 . S
C668 C663 1.399 . S
C668 C667 1.394 . S
C668 C669 1.516 . S
C669 C668 1.516 . S
C669 C670 1.502 . S
C669 C671 1.561 . S
C669 C672 1.526 . S
C670 H654 0.959 . S
C670 H655 0.959 . S
C670 H656 0.961 . S
C670 C669 1.502 . S
C671 H657 0.960 . S
C671 H658 0.961 . S
C671 H659 0.959 . S
C671 C669 1.561 . S
C672 C669 1.526 . S
C672 C673 1.396 . S
C672 C677 1.390 . S
C673 C667 1.465 . S
C673 C672 1.396 . S
C673 C674 1.399 1_455 S
C674 H660 0.929 . S
C674 C673 1.399 1_655 S
C674 C675 1.385 . S
C675 H661 0.931 . S
C675 C674 1.385 . S
C675 C676 1.389 1_655 S
C676 C675 1.389 1_455 S
C676 C677 1.387 . S
C677 H662 0.930 . S
C677 C672 1.390 . S
C677 C676 1.387 . S
C205 C9 0.624 . S
C217 C186 0.720 . S
C232 C49 0.538 . S
C244 C160 0.467 . S
C259 C89 0.289 . S
C271 C172 0.307 . S
C286 C26 0.205 . S
C298 C184 0.125 . S
C325 C162 0.210 . S
C313 C66 0.209 . S
C352 C174 0.337 . S
C340 C106 0.409 . S
C367 C43 3.028 . S
C379 C136 2.946 . S
C394 C83 3.312 . S
C406 C150 3.297 . S
C421 C22 3.023 . S
C433 C126 2.977 . S
C460 C138 2.965 . S
C448 C62 3.022 . S
C487 C148 2.648 . S
C475 C102 2.778 . S
C502 C3 3.026 . S
C514 C124 2.946 . S
C541 C153 1.775 . S
C529 C15 1.669 . S
C556 C55 1.738 . S
C568 C129 1.747 . S
C583 C95 1.700 . S
C595 C141 1.724 . S
C622 C177 1.249 . S
C610 C42 1.208 . S
C649 C189 1.254 . S
C637 C82 1.240 . S
C664 C2 1.189 . S
C676 C165 1.227 . S
