# Generated by pormake.
# Topology anh, (6,3)-cn, num edge types: 1
# Building blocks:
#     Node 0, Type 0, BuildingBlock: HISSIN_clean_sbu_0, # of connection points: 6
#     Node 1, Type 0, BuildingBlock: HISSIN_clean_sbu_0, # of connection points: 6
#     Node 2, Type 0, BuildingBlock: HISSIN_clean_sbu_0, # of connection points: 6
#     Node 3, Type 1, BuildingBlock: KAKCAD_clean_linker_0, # of connection points: 3
#     Node 4, Type 1, BuildingBlock: KAKCAD_clean_linker_0, # of connection points: 3
#     Node 5, Type 1, BuildingBlock: KAKCAD_clean_linker_0, # of connection points: 3
#     Node 6, Type 1, BuildingBlock: KAKCAD_clean_linker_0, # of connection points: 3
#     Node 7, Type 1, BuildingBlock: KAKCAD_clean_linker_0, # of connection points: 3
#     Node 8, Type 1, BuildingBlock: KAKCAD_clean_linker_0, # of connection points: 3
#     Edge 9, Type (0, 1), BuildingBlock: MIFKUJ_clean_linker_0, # of connection points: 2
#     Edge 10, Type (0, 1), BuildingBlock: MIFKUJ_clean_linker_0, # of connection points: 2
#     Edge 11, Type (0, 1), BuildingBlock: MIFKUJ_clean_linker_0, # of connection points: 2
#     Edge 12, Type (0, 1), BuildingBlock: MIFKUJ_clean_linker_0, # of connection points: 2
#     Edge 13, Type (0, 1), BuildingBlock: MIFKUJ_clean_linker_0, # of connection points: 2
#     Edge 14, Type (0, 1), BuildingBlock: MIFKUJ_clean_linker_0, # of connection points: 2
#     Edge 15, Type (0, 1), BuildingBlock: MIFKUJ_clean_linker_0, # of connection points: 2
#     Edge 16, Type (0, 1), BuildingBlock: MIFKUJ_clean_linker_0, # of connection points: 2
#     Edge 17, Type (0, 1), BuildingBlock: MIFKUJ_clean_linker_0, # of connection points: 2
#     Edge 18, Type (0, 1), BuildingBlock: MIFKUJ_clean_linker_0, # of connection points: 2
#     Edge 19, Type (0, 1), BuildingBlock: MIFKUJ_clean_linker_0, # of connection points: 2
#     Edge 20, Type (0, 1), BuildingBlock: MIFKUJ_clean_linker_0, # of connection points: 2
#     Edge 21, Type (0, 1), BuildingBlock: MIFKUJ_clean_linker_0, # of connection points: 2
#     Edge 22, Type (0, 1), BuildingBlock: MIFKUJ_clean_linker_0, # of connection points: 2
#     Edge 23, Type (0, 1), BuildingBlock: MIFKUJ_clean_linker_0, # of connection points: 2
#     Edge 24, Type (0, 1), BuildingBlock: MIFKUJ_clean_linker_0, # of connection points: 2
#     Edge 25, Type (0, 1), BuildingBlock: MIFKUJ_clean_linker_0, # of connection points: 2
#     Edge 26, Type (0, 1), BuildingBlock: MIFKUJ_clean_linker_0, # of connection points: 2
# Relax obj value: 0.200
# Max RMSD: 0.183
# Mean RMSD: 0.149
data_MOF--net-anh--node1-HISSIN_clean_sbu_0--node2-KAKCAD_clean_linker_0--edge1-MIFKUJ_clean_linker_0
_symmetry_space_group_name_H-M    P1
_symmetry_Int_Tables_number       1
_symmetry_cell_setting            triclinic
loop_
_symmetry_equiv_pos_as_xyz
'x, y, z'
_cell_length_a     47.172101
_cell_length_b     47.252332
_cell_length_c     82.700825
_cell_angle_alpha  93.536481
_cell_angle_beta   89.929262
_cell_angle_gamma 119.64132
loop_
_atom_site_label
_atom_site_type_symbol
_atom_site_fract_x
_atom_site_fract_y
_atom_site_fract_z
_atom_type_partial_charge
Eu0 Eu 1.02882 0.48961 0.1729 0.0
Eu1 Eu 0.06747 0.56711 0.17606 0.0
C2 C 0.04777 0.52753 0.2087 0.0
C3 C 0.96217 0.40674 0.15938 0.0
C4 C 0.93869 0.41665 0.161 0.0
C5 C 0.92481 0.36106 0.14111 0.0
C6 C 0.90838 0.39868 0.15301 0.0
C7 C 0.95525 0.3791 0.14921 0.0
C8 C 0.90091 0.3705 0.14307 0.0
C9 C 0.99445 0.42657 0.16745 0.0
O10 O 0.11069 0.55652 0.17522 0.0
O11 O 0.0827 0.50094 0.17009 0.0
C12 C 0.11096 0.52879 0.17185 0.0
O13 O 1.02514 0.50692 0.14857 0.0
O14 O 0.10366 0.61473 0.18706 0.0
O15 O 0.0735 0.61159 0.16647 0.0
O16 O 0.07491 0.55178 0.15105 0.0
C17 C 0.05051 0.52993 0.14189 0.0
O18 O 0.98619 0.50109 0.17501 0.0
O19 O 1.01419 0.55494 0.16987 0.0
O20 O 0.05364 0.55432 0.20195 0.0
O21 O 1.01762 0.4452 0.15809 0.0
O22 O 0.99513 0.44184 0.18128 0.0
O23 O 0.04212 0.50111 0.19979 0.0
C24 C 0.12868 0.65125 0.16644 0.0
C25 C 0.12721 0.67233 0.15569 0.0
C26 C 0.1833 0.66661 0.15774 0.0
C27 C 0.15361 0.69051 0.14604 0.0
C28 C 0.15681 0.64824 0.16724 0.0
C29 C 0.1821 0.68809 0.14708 0.0
C30 C 0.09966 0.6302 0.17548 0.0
C31 C 0.9859 0.52799 0.17154 0.0
H32 H 0.94356 0.43815 0.16861 0.0
H33 H 0.91986 0.33958 0.13344 0.0
H34 H 0.89043 0.40632 0.15513 0.0
H35 H 0.97333 0.37147 0.14757 0.0
H36 H 0.10546 0.67448 0.15464 0.0
H37 H 0.20507 0.66463 0.15913 0.0
H38 H 0.15182 0.70663 0.13786 0.0
H39 H 0.15845 0.6317 0.1752 0.0
Eu40 Eu 0.57245 1.01727 0.50449 0.0
Eu41 Eu 0.53127 0.0534 0.50742 0.0
C42 C 0.55276 0.03317 0.54038 0.0
C43 C 0.58736 0.94628 0.49797 0.0
C44 C 0.55791 0.92501 0.50503 0.0
C45 C 0.58997 0.89989 0.48557 0.0
C46 C 0.54478 0.8913 0.50254 0.0
C47 C 0.60319 0.93359 0.48816 0.0
C48 C 0.56073 0.87846 0.4928 0.0
C49 C 0.60008 0.98156 0.49951 0.0
O50 O 0.58467 0.09525 0.50284 0.0
O51 O 0.61531 0.07067 0.50626 0.0
C52 C 0.61392 0.09748 0.50386 0.0
O53 O 0.57702 0.03993 0.48079 0.0
O54 O 0.52581 0.09327 0.51882 0.0
O55 O 0.49413 0.06377 0.49842 0.0
O56 O 0.52765 0.03665 0.48116 0.0
C57 C 0.55256 0.03936 0.47316 0.0
O58 O 0.51795 0.97452 0.50168 0.0
O59 O 0.48845 1.00034 0.50727 0.0
O60 O 0.53298 0.04127 0.53342 0.0
O61 O 0.59033 0.99249 0.48795 0.0
O62 O 0.59892 0.9943 0.51377 0.0
O63 O 0.57214 0.02607 0.53176 0.0
C64 C 0.51828 0.12064 0.49824 0.0
C65 C 0.53665 0.12347 0.48442 0.0
C66 C 0.53402 0.17772 0.49785 0.0
C67 C 0.55412 0.15336 0.47755 0.0
C68 C 0.5165 0.14774 0.50471 0.0
C69 C 0.55369 0.18101 0.48445 0.0
C70 C 0.50599 0.09125 0.50726 0.0
C71 C 0.48914 0.97293 0.50372 0.0
H72 H 0.54499 0.93445 0.51237 0.0
H73 H 0.60301 0.89061 0.47822 0.0
H74 H 0.52217 0.87526 0.5082 0.0
H75 H 0.62567 0.94974 0.48243 0.0
H76 H 0.53879 0.10293 0.47936 0.0
H77 H 0.53361 0.19871 0.50362 0.0
H78 H 0.56883 0.15507 0.4672 0.0
H79 H 0.50298 0.14614 0.51554 0.0
Eu80 Eu 0.51524 0.50982 0.83774 0.0
Eu81 Eu 0.59229 0.54961 0.84272 0.0
C82 C 0.5485 0.53036 0.87391 0.0
C83 C 0.43088 0.4877 0.82436 0.0
C84 C 0.4446 0.51448 0.81472 0.0
C85 C 0.37787 0.48307 0.82056 0.0
C86 C 0.4252 0.52609 0.80841 0.0
C87 C 0.39733 0.47149 0.82688 0.0
C88 C 0.39184 0.51114 0.81171 0.0
C89 C 0.45213 0.47901 0.83307 0.0
O90 O 0.58139 0.4956 0.84289 0.0
O91 O 0.52818 0.46848 0.83359 0.0
C92 C 0.55518 0.4679 0.83742 0.0
O93 O 0.53452 0.5278 0.81331 0.0
O94 O 0.63757 0.561 0.8554 0.0
O95 O 0.63892 0.58709 0.83442 0.0
O96 O 0.58225 0.52821 0.81709 0.0
C97 C 0.56025 0.52782 0.80741 0.0
O98 O 0.52513 0.56338 0.83773 0.0
O99 O 0.58093 0.59105 0.83757 0.0
O100 O 0.57423 0.55379 0.86757 0.0
O101 O 0.47164 0.4731 0.82411 0.0
O102 O 0.467 0.49789 0.84604 0.0
O103 O 0.52533 0.50699 0.86443 0.0
C104 C 0.67925 0.57249 0.83673 0.0
C105 C 0.70687 0.59716 0.82981 0.0
C106 C 0.69496 0.53283 0.82702 0.0
C107 C 0.72855 0.58978 0.82162 0.0
C108 C 0.67312 0.54015 0.83505 0.0
C109 C 0.72294 0.55761 0.82032 0.0
C110 C 0.65565 0.58024 0.84443 0.0
C111 C 0.55292 0.59128 0.83669 0.0
H112 H 0.47058 0.5273 0.8127 0.0
H113 H 0.35235 0.47133 0.82353 0.0
H114 H 0.43656 0.54762 0.80156 0.0
H115 H 0.38649 0.45088 0.83437 0.0
H116 H 0.71166 0.62213 0.83075 0.0
H117 H 0.69015 0.50785 0.82615 0.0
H118 H 0.75023 0.60937 0.81675 0.0
H119 H 0.6515 0.52054 0.83995 0.0
C120 C 0.54732 0.08943 0.29415 0.0
C121 C 0.5382 0.06012 0.30134 0.0
C122 C 0.54399 0.08955 0.27736 0.0
C123 C 0.532 0.06042 0.2674 0.0
C124 C 0.52331 0.03119 0.27472 0.0
C125 C 0.52608 0.03102 0.2915 0.0
C126 C 0.52899 0.06044 0.24948 0.0
C127 C 0.55242 0.08674 0.2411 0.0
C128 C 0.55056 0.0858 0.22414 0.0
C129 C 0.52493 0.05891 0.21555 0.0
C130 C 0.50153 0.03254 0.22357 0.0
C131 C 0.50346 0.03345 0.24052 0.0
C132 C 0.47716 1.0032 0.21379 0.0
C133 C 0.46122 1.00654 0.20032 0.0
C134 C 0.4731 0.97239 0.21649 0.0
C135 C 0.4548 0.94576 0.20542 0.0
C136 C 0.44021 0.9495 0.1915 0.0
C137 C 0.57622 0.11148 0.21493 0.0
C138 C 0.58488 0.14438 0.21789 0.0
C139 C 0.5902 0.10243 0.20208 0.0
C140 C 0.61158 0.12558 0.19198 0.0
C141 C 0.61961 0.15839 0.19454 0.0
C142 C 0.60636 0.16771 0.2077 0.0
C143 C 0.44299 0.98 0.18927 0.0
H144 H 0.55651 0.11214 0.30155 0.0
H145 H 0.55048 0.11244 0.27223 0.0
H146 H 0.51481 1.00841 0.26749 0.0
H147 H 0.51927 1.00818 0.29679 0.0
H148 H 0.57296 0.10718 0.24762 0.0
H149 H 0.485 1.01307 0.24667 0.0
H150 H 0.52392 0.05804 0.20241 0.0
H151 H 0.46387 0.03004 0.19801 0.0
H152 H 0.48536 0.96924 0.22672 0.0
H153 H 0.45252 0.92237 0.20762 0.0
H154 H 0.57424 0.15181 0.22772 0.0
H155 H 0.584 0.07719 0.19963 0.0
H156 H 0.43213 0.98371 0.17866 0.0
H157 H 0.6125 0.19294 0.21005 0.0
H158 H 0.62114 0.11758 0.18187 0.0
C159 C 0.60984 0.55547 0.6278 0.0
C160 C 0.62786 0.54653 0.63773 0.0
C161 C 0.61792 0.56202 0.61172 0.0
C162 C 0.6447 0.56052 0.60515 0.0
C163 C 0.66257 0.55122 0.61498 0.0
C164 C 0.65417 0.54418 0.63107 0.0
C165 C 0.65379 0.56882 0.58815 0.0
C166 C 0.65001 0.59361 0.58163 0.0
C167 C 0.65543 0.59976 0.56526 0.0
C168 C 0.66657 0.58229 0.55551 0.0
C169 C 0.66975 0.55685 0.56155 0.0
C170 C 0.66378 0.55054 0.57798 0.0
C171 C 0.67481 0.5344 0.55007 0.0
C172 C 0.65864 0.52514 0.53477 0.0
C173 C 0.69441 0.52108 0.55433 0.0
C174 C 0.69715 0.49847 0.5436 0.0
C175 C 0.68025 0.48878 0.52849 0.0
C176 C 0.64434 0.62017 0.55755 0.0
C177 C 0.61256 0.61457 0.56007 0.0
C178 C 0.66336 0.64186 0.54603 0.0
C179 C 0.65035 0.65669 0.53675 0.0
C180 C 0.61802 0.64981 0.53874 0.0
C181 C 0.59948 0.62917 0.55071 0.0
C182 C 0.6616 0.50294 0.52409 0.0
H183 H 0.58974 0.55805 0.63248 0.0
H184 H 0.60301 0.56827 0.60444 0.0
H185 H 0.68338 0.54986 0.61034 0.0
H186 H 0.66833 0.53689 0.63826 0.0
H187 H 0.64196 0.60771 0.58916 0.0
H188 H 0.66484 0.53009 0.58258 0.0
H189 H 0.67056 0.58701 0.54281 0.0
H190 H 0.64274 0.53424 0.53115 0.0
H191 H 0.70729 0.52786 0.56599 0.0
H192 H 0.71153 0.48775 0.54736 0.0
H193 H 0.5972 0.5976 0.56872 0.0
H194 H 0.68791 0.64652 0.54386 0.0
H195 H 0.64858 0.49627 0.51246 0.0
H196 H 0.57466 0.62388 0.55264 0.0
H197 H 0.66515 0.67255 0.52759 0.0
C198 C 0.11122 0.61658 0.96846 0.0
C199 C 0.08036 0.59304 0.97346 0.0
C200 C 0.11563 0.6258 0.95251 0.0
C201 C 0.08936 0.61152 0.94112 0.0
C202 C 0.05864 0.5876 0.94606 0.0
C203 C 0.05416 0.57864 0.96203 0.0
C204 C 0.09395 0.62143 0.92415 0.0
C205 C 0.12255 0.62751 0.91603 0.0
C206 C 0.12611 0.63521 0.89974 0.0
C207 C 0.10164 0.63825 0.89185 0.0
C208 C 0.07269 0.6311 0.89948 0.0
C209 C 0.06894 0.623 0.91564 0.0
C210 C 0.04493 0.62662 0.88938 0.0
C211 C 0.04803 0.65179 0.88006 0.0
C212 C 1.01797 0.59517 0.88659 0.0
C213 C 0.99544 0.58851 0.874 0.0
C214 C 0.99931 0.61334 0.86422 0.0
C215 C 0.15281 0.63573 0.8901 0.0
C216 C 0.1854 0.65252 0.89592 0.0
C217 C 0.14525 0.61872 0.87476 0.0
C218 C 0.16964 0.61883 0.86531 0.0
C219 C 0.20228 0.63576 0.87096 0.0
C220 C 0.21 0.65253 0.8864 0.0
C221 C 1.0251 0.64526 0.86767 0.0
H222 H 0.13211 0.62783 0.97685 0.0
H223 H 0.13957 0.64443 0.94918 0.0
H224 H 1.03796 0.57554 0.93756 0.0
H225 H 1.02996 0.56072 0.96544 0.0
H226 H 0.14106 0.62427 0.92202 0.0
H227 H 0.04634 0.61753 0.92143 0.0
H228 H 0.10405 0.64381 0.87921 0.0
H229 H 0.06895 0.67609 0.88192 0.0
H230 H 1.0155 0.57531 0.89346 0.0
H231 H 0.97543 0.56381 0.87163 0.0
H232 H 0.19182 0.66577 0.90771 0.0
H233 H 0.12024 0.60472 0.87013 0.0
H234 H 1.02838 0.66475 0.86027 0.0
H235 H 0.235 0.66563 0.89108 0.0
H236 H 0.16272 0.60474 0.85373 0.0
C237 C 1.01525 0.51355 0.39375 0.0
C238 C 0.04444 0.52601 0.38524 0.0
C239 C 1.01562 0.51437 0.41081 0.0
C240 C 0.04519 0.52721 0.41997 0.0
C241 C 0.0743 0.53901 0.41132 0.0
C242 C 0.07394 0.53871 0.39431 0.0
C243 C 0.04593 0.52871 0.43835 0.0
C244 C 1.02036 0.50439 0.44684 0.0
C245 C 1.02005 0.50473 0.46396 0.0
C246 C 0.04851 0.53163 0.47277 0.0
C247 C 0.07556 0.55714 0.46435 0.0
C248 C 0.0725 0.55465 0.44727 0.0
C249 C 0.10824 0.5868 0.47173 0.0
C250 C 0.11021 0.61152 0.48315 0.0
C251 C 0.13847 0.59404 0.46472 0.0
C252 C 0.16816 0.624 0.46827 0.0
C253 C 0.17022 0.64933 0.47922 0.0
C254 C 0.98873 0.4763 0.47113 0.0
C255 C 0.95714 0.46877 0.46544 0.0
C256 C 0.98883 0.45265 0.48091 0.0
C257 C 0.95933 0.42326 0.48443 0.0
C258 C 0.92769 0.41554 0.47844 0.0
C259 C 0.92788 0.43976 0.46898 0.0
C260 C 0.14029 0.64173 0.48685 0.0
H261 H 0.99207 0.50381 0.38721 0.0
H262 H 0.99264 0.50547 0.4168 0.0
H263 H 0.0976 0.54829 0.41765 0.0
H264 H 0.09687 0.54804 0.38821 0.0
H265 H 1.00032 0.48419 0.43992 0.0
H266 H 0.09134 0.57391 0.4407 0.0
H267 H 0.04958 0.53267 0.48588 0.0
H268 H 0.08814 0.60824 0.48876 0.0
H269 H 0.13907 0.57651 0.45585 0.0
H270 H 0.18976 0.62719 0.46219 0.0
H271 H 0.95501 0.48525 0.45763 0.0
H272 H 1.01198 0.45613 0.48538 0.0
H273 H 0.13964 0.65973 0.49535 0.0
H274 H 0.90526 0.43602 0.46366 0.0
H275 H 0.96163 0.4064 0.49185 0.0
C276 C 0.53431 0.99606 0.7247 0.0
C277 C 0.55575 1.02414 0.71673 0.0
C278 C 0.53468 0.99611 0.74174 0.0
C279 C 0.55628 0.02431 0.75144 0.0
C280 C 0.57788 0.05225 0.74351 0.0
C281 C 0.57772 0.05214 0.72651 0.0
C282 C 0.55595 0.025 0.76971 0.0
C283 C 0.55395 0.99885 0.77795 0.0
C284 C 0.55402 0.99868 0.79507 0.0
C285 C 0.55607 0.02734 0.80406 0.0
C286 C 0.55792 0.05471 0.79583 0.0
C287 C 0.55774 0.05211 0.77873 0.0
C288 C 0.56072 0.08716 0.80355 0.0
C289 C 0.53713 0.08871 0.81368 0.0
C290 C 0.5843 0.11763 0.79794 0.0
C291 C 0.58388 0.14732 0.80164 0.0
C292 C 0.55977 0.149 0.81128 0.0
C293 C 0.55147 0.96744 0.80212 0.0
C294 C 0.5283 0.93584 0.79534 0.0
C295 C 0.57461 0.96779 0.81323 0.0
C296 C 0.57484 0.93847 0.81695 0.0
C297 C 0.55187 0.90683 0.80984 0.0
C298 C 0.52841 0.90677 0.79906 0.0
C299 C 0.53678 0.11873 0.8175 0.0
H300 H 0.51661 0.97408 0.71781 0.0
H301 H 0.51743 0.97421 0.74734 0.0
H302 H 0.59527 0.0743 0.75049 0.0
H303 H 0.59524 0.07409 0.72105 0.0
H304 H 0.55313 0.97842 0.7708 0.0
H305 H 0.5584 0.07158 0.77216 0.0
H306 H 0.55621 0.02831 0.81717 0.0
H307 H 0.51786 0.06637 0.8181 0.0
H308 H 0.60301 0.11844 0.79006 0.0
H309 H 0.60281 0.1692 0.79671 0.0
H310 H 0.51009 0.93353 0.78659 0.0
H311 H 0.59351 0.991 0.81866 0.0
H312 H 0.51745 0.11778 0.82491 0.0
H313 H 0.51027 0.88411 0.79286 0.0
H314 H 0.59346 0.94087 0.82543 0.0
C315 C 0.55178 0.50845 0.05837 0.0
C316 C 0.54512 0.53032 0.05058 0.0
C317 C 0.55283 0.50869 0.07537 0.0
C318 C 0.54682 0.5305 0.08519 0.0
C319 C 0.53988 0.55221 0.07742 0.0
C320 C 0.5393 0.55229 0.06039 0.0
C321 C 0.54779 0.53041 0.10341 0.0
C322 C 0.57327 0.52887 0.11141 0.0
C323 C 0.57495 0.52698 0.1284 0.0
C324 C 0.54879 0.52786 0.13755 0.0
C325 C 0.5224 0.53024 0.12961 0.0
C326 C 0.52314 0.53142 0.11259 0.0
C327 C 0.49329 0.53201 0.13766 0.0
C328 C 0.46634 0.50482 0.14406 0.0
C329 C 0.48837 0.55884 0.13535 0.0
C330 C 0.45865 0.55863 0.13906 0.0
C331 C 0.43125 0.53128 0.14514 0.0
C332 C 0.60463 0.52408 0.13508 0.0
C333 C 0.61799 0.50786 0.12532 0.0
C334 C 0.62245 0.53951 0.14989 0.0
C335 C 0.65223 0.53969 0.15417 0.0
C336 C 0.66626 0.52502 0.14376 0.0
C337 C 0.64783 0.50882 0.12934 0.0
C338 C 0.43633 0.50448 0.14771 0.0
H339 H 0.55666 0.49135 0.0513 0.0
H340 H 0.558 0.49143 0.08086 0.0
H341 H 0.53531 0.56948 0.08452 0.0
H342 H 0.53386 0.56935 0.05489 0.0
H343 H 0.5927 0.52991 0.10404 0.0
H344 H 0.50359 0.53249 0.10627 0.0
H345 H 0.54893 0.5267 0.15057 0.0
H346 H 0.46784 0.48302 0.14563 0.0
H347 H 0.50747 0.58003 0.12998 0.0
H348 H 0.45696 0.5799 0.13645 0.0
H349 H 0.60547 0.49431 0.11412 0.0
H350 H 0.61403 0.55244 0.15802 0.0
H351 H 0.41686 0.4827 0.15243 0.0
H352 H 0.65643 0.49639 0.12098 0.0
H353 H 0.66491 0.55241 0.16548 0.0
H354 H 0.1753 0.58154 0.17317 0.0
H355 H 0.22719 0.58229 0.16919 0.0
H356 H 0.17548 0.4777 0.16078 0.0
H357 H 0.12352 0.4769 0.16507 0.0
H358 H 0.22815 0.49008 0.17583 0.0
H359 H 0.21656 0.54036 0.12981 0.0
H360 H 0.20904 0.58013 0.11509 0.0
H361 H 0.2967 0.65862 0.13794 0.0
H362 H 0.30438 0.61941 0.15316 0.0
H363 H 0.36648 0.47817 0.14549 0.0
H364 H 0.31493 0.4776 0.14973 0.0
H365 H 0.36646 0.5824 0.15638 0.0
H366 H 0.41807 0.58317 0.15198 0.0
H367 H 0.31386 0.57018 0.14225 0.0
H368 H 0.32491 0.52044 0.18875 0.0
H369 H 0.33233 0.48088 0.20374 0.0
H370 H 0.24594 0.40191 0.18007 0.0
H371 H 0.23822 0.44099 0.1648 0.0
C372 C 0.17462 0.55849 0.17048 0.0
C373 C 0.14402 0.52914 0.16952 0.0
C374 C 0.20492 0.55895 0.16801 0.0
C375 C 0.20674 0.5301 0.16426 0.0
C376 C 0.17615 0.50072 0.16354 0.0
C377 C 0.14582 0.50026 0.16601 0.0
C378 C 0.23982 0.53038 0.16127 0.0
C379 C 0.24645 0.50748 0.16825 0.0
C380 C 0.26541 0.5532 0.15175 0.0
C381 C 0.26084 0.57694 0.14275 0.0
C382 C 0.23407 0.56613 0.13183 0.0
C383 C 0.22978 0.58858 0.12342 0.0
C384 C 0.2523 0.6219 0.12567 0.0
C385 C 0.27918 0.63283 0.13633 0.0
C386 C 0.28352 0.6105 0.14485 0.0
C387 C 0.36742 0.50135 0.14804 0.0
C388 C 0.39803 0.53071 0.14832 0.0
C389 C 0.33715 0.501 0.15058 0.0
C390 C 0.33525 0.52994 0.15381 0.0
C391 C 0.36576 0.55928 0.15397 0.0
C392 C 0.39601 0.55967 0.15136 0.0
C393 C 0.30221 0.52983 0.15682 0.0
C394 C 0.29558 0.55278 0.14984 0.0
C395 C 0.27663 0.50714 0.16639 0.0
C396 C 0.2812 0.4836 0.17551 0.0
C397 C 0.30763 0.49461 0.18667 0.0
C398 C 0.31186 0.47229 0.19522 0.0
C399 C 0.28967 0.4389 0.19282 0.0
C400 C 0.26314 0.42778 0.18189 0.0
C401 C 0.25881 0.45 0.17329 0.0
H402 H 0.29299 0.42165 0.19946 0.0
H403 H 0.24903 0.63923 0.11908 0.0
H404 H 0.67965 0.11287 0.50558 0.0
H405 H 0.72986 0.16408 0.50159 0.0
H406 H 0.67331 0.21074 0.49288 0.0
H407 H 0.62285 0.15914 0.49664 0.0
H408 H 0.72097 0.23752 0.47389 0.0
H409 H 0.72764 0.22421 0.53029 0.0
H410 H 0.7279 0.1963 0.55447 0.0
H411 H 0.80993 0.18905 0.5369 0.0
H412 H 0.80991 0.2166 0.51251 0.0
H413 H 0.86156 0.40106 0.47764 0.0
H414 H 0.8112 0.35068 0.48185 0.0
H415 H 0.86634 0.30287 0.49103 0.0
H416 H 0.91715 0.3535 0.48688 0.0
H417 H 0.81885 0.27688 0.50992 0.0
H418 H 0.81336 0.2927 0.45379 0.0
H419 H 0.81252 0.32066 0.42974 0.0
H420 H 0.72728 0.32262 0.44653 0.0
H421 H 0.72776 0.2949 0.47071 0.0
C422 C 0.67751 0.1339 0.50293 0.0
C423 C 0.64596 0.13064 0.50168 0.0
C424 C 0.70692 0.16398 0.50072 0.0
C425 C 0.70704 0.19314 0.49717 0.0
C426 C 0.67542 0.18975 0.49567 0.0
C427 C 0.64593 0.15963 0.49793 0.0
C428 C 0.73943 0.22629 0.49484 0.0
C429 C 0.74203 0.24603 0.48202 0.0
C430 C 0.76845 0.23872 0.50489 0.0
C431 C 0.76855 0.22216 0.5195 0.0
C432 C 0.74559 0.21647 0.53153 0.0
C433 C 0.74572 0.20075 0.54529 0.0
C434 C 0.76886 0.19082 0.5472 0.0
C435 C 0.79199 0.1967 0.53539 0.0
C436 C 0.79194 0.21239 0.5216 0.0
C437 C 0.86363 0.38004 0.48033 0.0
C438 C 0.89514 0.38295 0.4816 0.0
C439 C 0.83392 0.35037 0.48277 0.0
C440 C 0.83323 0.32107 0.48652 0.0
C441 C 0.86465 0.32403 0.48814 0.0
C442 C 0.89446 0.35378 0.48574 0.0
C443 C 0.80054 0.28815 0.4889 0.0
C444 C 0.79785 0.26843 0.50175 0.0
C445 C 0.77143 0.2758 0.47887 0.0
C446 C 0.77107 0.29241 0.46429 0.0
C447 C 0.79465 0.29942 0.45245 0.0
C448 C 0.79418 0.31514 0.43876 0.0
C449 C 0.77001 0.32362 0.43666 0.0
C450 C 0.74613 0.31623 0.44821 0.0
C451 C 0.74652 0.30055 0.46193 0.0
H452 H 0.76967 0.33577 0.42604 0.0
H453 H 0.76893 0.17865 0.55786 0.0
H454 H 0.60483 0.65607 0.83818 0.0
H455 H 0.60502 0.7072 0.83411 0.0
H456 H 0.50112 0.65355 0.82508 0.0
H457 H 0.50087 0.60226 0.82923 0.0
H458 H 0.52464 0.70086 0.80454 0.0
H459 H 0.54322 0.70633 0.86203 0.0
H460 H 0.57132 0.70583 0.88705 0.0
H461 H 0.66035 0.78733 0.87266 0.0
H462 H 0.63287 0.78806 0.84745 0.0
H463 H 0.50119 0.84075 0.80686 0.0
H464 H 0.5017 0.79058 0.81132 0.0
H465 H 0.6035 0.84609 0.82544 0.0
H466 H 0.60319 0.89681 0.82101 0.0
H467 H 0.58174 0.7979 0.84328 0.0
H468 H 0.56699 0.79336 0.78637 0.0
H469 H 0.54243 0.79506 0.7604 0.0
H470 H 0.45106 0.71345 0.77214 0.0
H471 H 0.47487 0.71145 0.79832 0.0
C472 C 0.58179 0.65479 0.83542 0.0
C473 C 0.55281 0.62385 0.83425 0.0
C474 C 0.58187 0.68468 0.83312 0.0
C475 C 0.55301 0.68577 0.82938 0.0
C476 C 0.5241 0.65477 0.82795 0.0
C477 C 0.52394 0.62486 0.83044 0.0
C478 C 0.553 0.71855 0.82692 0.0
C479 C 0.5368 0.7217 0.81327 0.0
C480 C 0.56952 0.74738 0.83765 0.0
C481 C 0.58606 0.74703 0.85279 0.0
C482 C 0.56885 0.724 0.86415 0.0
C483 C 0.58466 0.7237 0.87838 0.0
C484 C 0.61762 0.74647 0.88142 0.0
C485 C 0.63483 0.76966 0.87027 0.0
C486 C 0.61914 0.77005 0.85602 0.0
C487 C 0.52413 0.84296 0.8107 0.0
C488 C 0.55226 0.87449 0.81324 0.0
C489 C 0.52439 0.81337 0.81328 0.0
C490 C 0.55283 0.81288 0.81849 0.0
C491 C 0.58082 0.84432 0.8214 0.0
C492 C 0.58058 0.87403 0.81883 0.0
C493 C 0.55321 0.78021 0.82093 0.0
C494 C 0.56949 0.77706 0.83455 0.0
C495 C 0.53722 0.75153 0.81004 0.0
C496 C 0.52263 0.7525 0.79438 0.0
C497 C 0.54157 0.77591 0.78347 0.0
C498 C 0.52778 0.7769 0.76871 0.0
C499 C 0.49514 0.75441 0.76466 0.0
C500 C 0.47627 0.73085 0.77534 0.0
C501 C 0.4899 0.72976 0.79013 0.0
H502 H 0.4845 0.7552 0.75323 0.0
H503 H 0.62982 0.7462 0.89244 0.0
H504 H 0.97134 0.56619 0.15234 0.0
H505 H 0.91986 0.56517 0.14737 0.0
H506 H 0.87293 0.48993 0.18073 0.0
H507 H 0.92406 0.48891 0.1844 0.0
H508 H 0.82689 0.47721 0.16406 0.0
H509 H 0.89876 0.58705 0.18447 0.0
H510 H 0.94789 0.64165 0.18621 0.0
H511 H 0.92763 0.65647 0.13781 0.0
H512 H 0.87855 0.60182 0.13574 0.0
H513 H 0.69185 0.51522 0.17253 0.0
H514 H 0.74343 0.51498 0.17734 0.0
H515 H 0.76981 0.53887 0.12825 0.0
H516 H 0.71789 0.53776 0.12322 0.0
H517 H 0.82475 0.57816 0.15355 0.0
H518 H 0.7484 0.46601 0.13596 0.0
H519 H 0.69819 0.41289 0.13742 0.0
H520 H 0.72642 0.40558 0.18565 0.0
H521 H 0.77659 0.45883 0.18455 0.0
C522 C 0.9502 0.54939 0.15874 0.0
C523 C 0.95307 0.5279 0.169 0.0
C524 C 0.92007 0.54911 0.15605 0.0
C525 C 0.8909 0.5284 0.16403 0.0
C526 C 0.89387 0.50667 0.17421 0.0
C527 C 0.9238 0.50617 0.17647 0.0
C528 C 0.85786 0.5288 0.16159 0.0
C529 C 0.82712 0.49975 0.16206 0.0
C530 C 0.8558 0.55744 0.15872 0.0
C531 C 0.88521 0.59024 0.15989 0.0
C532 C 0.9049 0.60191 0.17418 0.0
C533 C 0.93271 0.63286 0.17522 0.0
C534 C 0.94093 0.65247 0.16211 0.0
C535 C 0.92127 0.64122 0.14794 0.0
C536 C 0.89344 0.61028 0.14683 0.0
C537 C 0.70849 0.52053 0.16268 0.0
C538 C 0.69959 0.5265 0.14738 0.0
C539 C 0.73843 0.52027 0.16546 0.0
C540 C 0.76175 0.52694 0.15326 0.0
C541 C 0.75317 0.53361 0.13811 0.0
C542 C 0.7229 0.53289 0.13519 0.0
C543 C 0.79452 0.52684 0.15612 0.0
C544 C 0.82498 0.55586 0.15568 0.0
C545 C 0.79628 0.49848 0.15955 0.0
C546 C 0.76605 0.46659 0.16024 0.0
C547 C 0.74373 0.45323 0.14694 0.0
C548 C 0.71532 0.42304 0.14768 0.0
C549 C 0.70906 0.40588 0.16162 0.0
C550 C 0.73125 0.41886 0.17485 0.0
C551 C 0.75969 0.44904 0.17417 0.0
H552 H 0.68705 0.38252 0.16216 0.0
H553 H 0.96248 0.67642 0.16294 0.0
H554 H 0.42458 0.95993 0.49979 0.0
H555 H 0.37353 0.90813 0.49573 0.0
H556 H 0.42634 0.85599 0.49943 0.0
H557 H 0.4778 0.90816 0.50247 0.0
H558 H 0.38162 0.81754 0.48171 0.0
H559 H 0.36621 0.86541 0.53055 0.0
H560 H 0.36395 0.9072 0.54904 0.0
H561 H 0.28972 0.90548 0.51831 0.0
H562 H 0.2918 0.86392 0.49954 0.0
H563 H 0.19456 0.69503 0.50676 0.0
H564 H 0.24631 0.74652 0.51119 0.0
H565 H 0.27319 0.73415 0.46263 0.0
H566 H 0.22233 0.6826 0.45839 0.0
H567 H 0.27882 0.80339 0.5047 0.0
H568 H 0.35336 0.78041 0.45465 0.0
H569 H 0.35934 0.735 0.44206 0.0
H570 H 0.32015 0.68077 0.48405 0.0
H571 H 0.31421 0.72596 0.49694 0.0
C572 C 0.42566 0.93758 0.49983 0.0
C573 C 0.45652 0.93949 0.50167 0.0
C574 C 0.39568 0.90715 0.49765 0.0
C575 C 0.39413 0.87627 0.49762 0.0
C576 C 0.42516 0.87827 0.49934 0.0
C577 C 0.45527 0.90877 0.50121 0.0
C578 C 0.36104 0.84263 0.49558 0.0
C579 C 0.35935 0.81504 0.48675 0.0
C580 C 0.33075 0.83686 0.50237 0.0
C581 C 0.32942 0.86183 0.51356 0.0
C582 C 0.34955 0.8741 0.52769 0.0
C583 C 0.34828 0.89772 0.53823 0.0
C584 C 0.32677 0.90906 0.53483 0.0
C585 C 0.30641 0.89672 0.52091 0.0
C586 C 0.3076 0.87312 0.51032 0.0
C587 C 0.21132 0.70292 0.49692 0.0
C588 C 0.20297 0.68288 0.48218 0.0
C589 C 0.24165 0.7331 0.4995 0.0
C590 C 0.26581 0.74558 0.48753 0.0
C591 C 0.25697 0.72596 0.47267 0.0
C592 C 0.22693 0.6957 0.47015 0.0
C593 C 0.29924 0.77864 0.49041 0.0
C594 C 0.30102 0.80605 0.49948 0.0
C595 C 0.32992 0.78382 0.48444 0.0
C596 C 0.33296 0.7564 0.47666 0.0
C597 C 0.34601 0.75879 0.46119 0.0
C598 C 0.3494 0.73309 0.45401 0.0
C599 C 0.34001 0.70497 0.46223 0.0
C600 C 0.32727 0.7025 0.47766 0.0
C601 C 0.32383 0.72812 0.4849 0.0
H602 H 0.34269 0.68513 0.45665 0.0
H603 H 0.32582 0.92735 0.543 0.0
H604 H 0.60414 0.45298 0.84594 0.0
H605 H 0.60486 0.40122 0.84199 0.0
H606 H 0.50859 0.35517 0.81974 0.0
H607 H 0.50783 0.40664 0.82366 0.0
H608 H 0.5751 0.34127 0.85157 0.0
H609 H 0.49298 0.28928 0.7934 0.0
H610 H 0.47896 0.30899 0.76938 0.0
H611 H 0.57102 0.39796 0.77451 0.0
H612 H 0.58575 0.37861 0.79842 0.0
H613 H 0.53507 0.17133 0.83746 0.0
H614 H 0.53414 0.22267 0.84203 0.0
H615 H 0.58132 0.25442 0.79692 0.0
H616 H 0.58167 0.20306 0.79212 0.0
H617 H 0.542 0.27699 0.79861 0.0
H618 H 0.61952 0.28586 0.83866 0.0
H619 H 0.6398 0.26963 0.86182 0.0
H620 H 0.56614 0.27172 0.89161 0.0
H621 H 0.54518 0.2876 0.86855 0.0
C622 C 0.58296 0.43196 0.84019 0.0
C623 C 0.55592 0.43516 0.83519 0.0
C624 C 0.58334 0.40177 0.83793 0.0
C625 C 0.55697 0.37295 0.83027 0.0
C626 C 0.52989 0.37618 0.82539 0.0
C627 C 0.52937 0.4062 0.82778 0.0
C628 C 0.55773 0.34015 0.82738 0.0
C629 C 0.56753 0.32736 0.83995 0.0
C630 C 0.54876 0.32093 0.81225 0.0
C631 C 0.54028 0.33262 0.7978 0.0
C632 C 0.51026 0.313 0.78936 0.0
C633 C 0.50219 0.32412 0.77578 0.0
C634 C 0.52404 0.35475 0.77046 0.0
C635 C 0.55407 0.37429 0.77868 0.0
C636 C 0.56227 0.36327 0.79225 0.0
C637 C 0.54526 0.18893 0.82836 0.0
C638 C 0.55876 0.18169 0.81437 0.0
C639 C 0.54502 0.21913 0.83112 0.0
C640 C 0.55814 0.24417 0.82006 0.0
C641 C 0.57101 0.23667 0.80597 0.0
C642 C 0.57149 0.20668 0.80326 0.0
C643 C 0.55836 0.2775 0.82296 0.0
C644 C 0.54905 0.29058 0.81033 0.0
C645 C 0.5681 0.29713 0.83798 0.0
C646 C 0.58058 0.28757 0.85184 0.0
C647 C 0.60751 0.28263 0.85012 0.0
C648 C 0.61915 0.27353 0.86323 0.0
C649 C 0.60421 0.26956 0.87816 0.0
C650 C 0.57765 0.27476 0.88002 0.0
C651 C 0.5659 0.28382 0.86694 0.0
H652 H 0.61326 0.26252 0.8883 0.0
H653 H 0.51773 0.36333 0.75995 0.0
H654 H 0.55361 0.84007 0.46522 0.0
H655 H 0.54342 0.78382 0.46371 0.0
H656 H 0.53246 0.78196 0.51557 0.0
H657 H 0.54153 0.83725 0.51697 0.0
H658 H 0.58196 0.76798 0.47487 0.0
H659 H 0.49478 0.71184 0.5297 0.0
H660 H 0.44182 0.7047 0.53842 0.0
H661 H 0.4186 0.71643 0.48999 0.0
H662 H 0.47118 0.7231 0.48088 0.0
H663 H 0.64458 0.7127 0.53076 0.0
H664 H 0.61989 0.73588 0.51397 0.0
H665 H 0.53391 0.64105 0.50575 0.0
H666 H 0.55845 0.61783 0.52291 0.0
H667 H 0.51571 0.68308 0.51236 0.0
H668 H 0.58442 0.67698 0.4739 0.0
H669 H 0.63375 0.67985 0.46217 0.0
H670 H 0.68596 0.78385 0.47219 0.0
H671 H 0.63716 0.78162 0.48422 0.0
C672 C 0.5481 0.82715 0.47619 0.0
C673 C 0.54861 0.84297 0.49124 0.0
C674 C 0.54216 0.79504 0.47531 0.0
C675 C 0.53696 0.77844 0.48949 0.0
C676 C 0.53545 0.79368 0.50436 0.0
C677 C 0.54093 0.82552 0.5052 0.0
C678 C 0.53943 0.74835 0.48956 0.0
C679 C 0.56705 0.74902 0.48279 0.0
C680 C 0.51902 0.72244 0.49912 0.0
C681 C 0.48706 0.71795 0.50458 0.0
C682 C 0.47829 0.71255 0.52085 0.0
C683 C 0.44834 0.70869 0.52588 0.0
C684 C 0.42687 0.71011 0.51477 0.0
C685 C 0.43528 0.71538 0.49859 0.0
C686 C 0.46519 0.71925 0.49349 0.0
C687 C 0.6206 0.69674 0.5252 0.0
C688 C 0.6034 0.66355 0.52813 0.0
C689 C 0.60655 0.70991 0.51551 0.0
C690 C 0.57527 0.69005 0.5083 0.0
C691 C 0.55811 0.65677 0.5111 0.0
C692 C 0.57207 0.64361 0.52095 0.0
C693 C 0.55997 0.70514 0.49904 0.0
C694 C 0.52985 0.70133 0.50396 0.0
C695 C 0.57737 0.72735 0.48725 0.0
C696 C 0.607 0.72909 0.47997 0.0
C697 C 0.60645 0.70046 0.47368 0.0
C698 C 0.63434 0.70198 0.46697 0.0
C699 C 0.66296 0.73201 0.46643 0.0
C700 C 0.66375 0.7606 0.47258 0.0
C701 C 0.63593 0.75923 0.47932 0.0
H702 H 0.68454 0.73313 0.46123 0.0
H703 H 0.40371 0.70714 0.5187 0.0
H704 H 0.75386 0.57516 0.79155 0.0
H705 H 0.80254 0.57245 0.78342 0.0
H706 H 0.79837 0.52462 0.82699 0.0
H707 H 0.7494 0.52574 0.83446 0.0
H708 H 0.85617 0.60406 0.79626 0.0
H709 H 0.83709 0.48779 0.8295 0.0
H710 H 0.79656 0.42923 0.82821 0.0
H711 H 0.76157 0.43609 0.78154 0.0
H712 H 0.80229 0.49463 0.78236 0.0
H713 H 0.9629 0.64151 0.85801 0.0
H714 H 0.9218 0.62547 0.83637 0.0
H715 H 0.94515 0.55278 0.81678 0.0
H716 H 0.98518 0.56781 0.83916 0.0
H717 H 0.88575 0.52547 0.81687 0.0
H718 H 0.95608 0.61971 0.79375 0.0
H719 H 0.99843 0.67673 0.79072 0.0
H720 H 0.93413 0.71005 0.8092 0.0
H721 H 0.89156 0.65335 0.81262 0.0
C722 C 0.76293 0.56311 0.79902 0.0
C723 C 0.74812 0.55076 0.81365 0.0
C724 C 0.79065 0.5615 0.79437 0.0
C725 C 0.80425 0.54809 0.80446 0.0
C726 C 0.78807 0.53407 0.81859 0.0
C727 C 0.76011 0.53504 0.82302 0.0
C728 C 0.83816 0.55442 0.80243 0.0
C729 C 0.86269 0.58667 0.80043 0.0
C730 C 0.84725 0.53129 0.80653 0.0
C731 C 0.82301 0.49577 0.80595 0.0
C732 C 0.82112 0.47683 0.81884 0.0
C733 C 0.79797 0.4436 0.81823 0.0
C734 C 0.77653 0.42894 0.8048 0.0
C735 C 0.77819 0.44748 0.79194 0.0
C736 C 0.80129 0.48071 0.79248 0.0
C737 C 0.95953 0.62247 0.84892 0.0
C738 C 0.97682 0.60569 0.85023 0.0
C739 C 0.93636 0.61354 0.83639 0.0
C740 C 0.93071 0.58829 0.82463 0.0
C741 C 0.94905 0.57237 0.82562 0.0
C742 C 0.97178 0.58086 0.8384 0.0
C743 C 0.90254 0.57597 0.81296 0.0
C744 C 0.87941 0.54253 0.81208 0.0
C745 C 0.89509 0.59765 0.80539 0.0
C746 C 0.92048 0.63208 0.80337 0.0
C747 C 0.95097 0.63917 0.79723 0.0
C748 C 0.97504 0.67148 0.79545 0.0
C749 C 0.96895 0.69699 0.79974 0.0
C750 C 0.93877 0.69025 0.80582 0.0
C751 C 0.9146 0.65799 0.80764 0.0
H752 H 0.98763 0.72198 0.79836 0.0
H753 H 0.75861 0.40322 0.80436 0.0
H754 H 0.22719 0.67485 0.13259 0.0
H755 H 0.28314 0.71539 0.12657 0.0
H756 H 0.25996 0.79224 0.13656 0.0
H757 H 0.20479 0.75239 0.1428 0.0
H758 H 0.31009 0.81031 0.1152 0.0
H759 H 0.27685 0.75768 0.16775 0.0
H760 H 0.25531 0.70855 0.18323 0.0
H761 H 0.33095 0.69034 0.16568 0.0
H762 H 0.35242 0.739 0.14978 0.0
H763 H 0.38276 0.9316 0.17541 0.0
H764 H 0.35274 0.88536 0.15582 0.0
H765 H 0.42733 0.85838 0.16011 0.0
H766 H 0.45787 0.90513 0.17974 0.0
H767 H 0.36877 0.80854 0.16454 0.0
H768 H 0.41407 0.8803 0.12334 0.0
H769 H 0.43375 0.93092 0.1093 0.0
H770 H 0.33622 0.91551 0.10613 0.0
H771 H 0.31597 0.86509 0.12036 0.0
C772 C 0.23384 0.70035 0.13303 0.0
C773 C 0.21189 0.71051 0.13866 0.0
C774 C 0.26568 0.72341 0.12941 0.0
C775 C 0.27581 0.75681 0.13147 0.0
C776 C 0.25266 0.76657 0.1349 0.0
C777 C 0.22098 0.74364 0.13854 0.0
C778 C 0.31061 0.78152 0.13422 0.0
C779 C 0.32343 0.80992 0.12577 0.0
C780 C 0.32847 0.78045 0.1477 0.0
C781 C 0.31595 0.75162 0.15745 0.0
C782 C 0.28876 0.74308 0.16715 0.0
C783 C 0.27654 0.71531 0.17597 0.0
C784 C 0.29168 0.69626 0.17539 0.0
C785 C 0.31918 0.70506 0.16607 0.0
C786 C 0.33131 0.73264 0.1571 0.0
C787 C 0.39317 0.91629 0.17195 0.0
C788 C 0.42259 0.92193 0.17918 0.0
C789 C 0.37611 0.88996 0.16063 0.0
C790 C 0.38815 0.86879 0.15624 0.0
C791 C 0.41782 0.87463 0.16321 0.0
C792 C 0.43498 0.90108 0.17455 0.0
C793 C 0.36709 0.83829 0.14623 0.0
C794 C 0.35686 0.80874 0.15336 0.0
C795 C 0.35161 0.83851 0.13162 0.0
C796 C 0.36348 0.86876 0.12291 0.0
C797 C 0.39681 0.88775 0.11971 0.0
C798 C 0.40808 0.91643 0.11171 0.0
C799 C 0.38625 0.92641 0.10681 0.0
C800 C 0.35309 0.9077 0.10989 0.0
C801 C 0.34169 0.879 0.11789 0.0
H802 H 0.39503 0.94863 0.10063 0.0
H803 H 0.28216 0.67473 0.1822 0.0
H804 H 0.61754 0.20604 0.47609 0.0
H805 H 0.65684 0.2632 0.47226 0.0
H806 H 0.57994 0.28724 0.47734 0.0
H807 H 0.54046 0.23016 0.48032 0.0
H808 H 0.62528 0.32692 0.45735 0.0
H809 H 0.62539 0.28067 0.51042 0.0
H810 H 0.63656 0.24416 0.52602 0.0
H811 H 0.7353 0.29085 0.5102 0.0
H812 H 0.72457 0.32753 0.49446 0.0
H813 H 0.62731 0.43826 0.51285 0.0
H814 H 0.62461 0.39357 0.49565 0.0
H815 H 0.72834 0.43291 0.50283 0.0
H816 H 0.73126 0.47846 0.52029 0.0
H817 H 0.69571 0.3695 0.5074 0.0
H818 H 0.6982 0.43055 0.46445 0.0
H819 H 0.6865 0.46686 0.44906 0.0
H820 H 0.58496 0.39425 0.4452 0.0
H821 H 0.59587 0.35767 0.46077 0.0
C822 C 0.60879 0.22332 0.47575 0.0
C823 C 0.57599 0.21378 0.47885 0.0
C824 C 0.63136 0.256 0.47364 0.0
C825 C 0.62147 0.27958 0.47489 0.0
C826 C 0.5882 0.26951 0.47642 0.0
C827 C 0.56567 0.23693 0.47834 0.0
C828 C 0.64532 0.31487 0.47741 0.0
C829 C 0.64114 0.33647 0.46813 0.0
C830 C 0.66741 0.32748 0.491 0.0
C831 C 0.67402 0.30633 0.50102 0.0
C832 C 0.64944 0.28307 0.51026 0.0
C833 C 0.65569 0.26237 0.51912 0.0
C834 C 0.68657 0.26508 0.51904 0.0
C835 C 0.71135 0.28868 0.5102 0.0
C836 C 0.70519 0.3094 0.5013 0.0
C837 C 0.64976 0.43796 0.51051 0.0
C838 C 0.67958 0.46214 0.51776 0.0
C839 C 0.64822 0.41241 0.50058 0.0
C840 C 0.67645 0.41039 0.49753 0.0
C841 C 0.70637 0.43433 0.50481 0.0
C842 C 0.70795 0.46013 0.51485 0.0
C843 C 0.67306 0.38103 0.4882 0.0
C844 C 0.68133 0.36059 0.49613 0.0
C845 C 0.6548 0.36956 0.47334 0.0
C846 C 0.64795 0.39126 0.46375 0.0
C847 C 0.67335 0.42233 0.46036 0.0
C848 C 0.66684 0.44298 0.4516 0.0
C849 C 0.63502 0.43285 0.44613 0.0
C850 C 0.60963 0.40202 0.4494 0.0
C851 C 0.61598 0.38127 0.45815 0.0
H852 H 0.63003 0.44889 0.43937 0.0
H853 H 0.69131 0.24895 0.52586 0.0
H854 H 0.32875 0.48326 0.79987 0.0
H855 H 0.29415 0.50843 0.80106 0.0
H856 H 0.3773 0.60053 0.81785 0.0
H857 H 0.41174 0.57577 0.81654 0.0
H858 H 0.28245 0.52735 0.82859 0.0
H859 H 0.36657 0.66386 0.8132 0.0
H860 H 0.40348 0.69373 0.79165 0.0
H861 H 0.35588 0.60815 0.75884 0.0
H862 H 0.31835 0.57789 0.7801 0.0
H863 H 0.25042 0.62442 0.88131 0.0
H864 H 0.28335 0.60848 0.86438 0.0
H865 H 0.2422 0.62359 0.82141 0.0
H866 H 0.21001 0.64074 0.83831 0.0
H867 H 0.30577 0.63869 0.81736 0.0
H868 H 0.20667 0.55011 0.83371 0.0
H869 H 0.16453 0.51759 0.85282 0.0
H870 H 0.23376 0.50159 0.87859 0.0
H871 H 0.27648 0.5345 0.8598 0.0
C872 C 0.33974 0.50911 0.80334 0.0
C873 C 0.37281 0.52745 0.8083 0.0
C874 C 0.32002 0.52348 0.80396 0.0
C875 C 0.33308 0.55634 0.8096 0.0
C876 C 0.3667 0.57531 0.81318 0.0
C877 C 0.38643 0.56104 0.81247 0.0
C878 C 0.31129 0.56913 0.81484 0.0
C879 C 0.28731 0.5515 0.8259 0.0
C880 C 0.31708 0.60037 0.81114 0.0
C881 C 0.33971 0.61854 0.79831 0.0
C882 C 0.36384 0.65144 0.80137 0.0
C883 C 0.38493 0.66844 0.7892 0.0
C884 C 0.38205 0.65282 0.77388 0.0
C885 C 0.35813 0.62018 0.77072 0.0
C886 C 0.33699 0.60308 0.78284 0.0
C887 C 0.24923 0.62548 0.8683 0.0
C888 C 0.22725 0.63326 0.86111 0.0
C889 C 0.26784 0.61612 0.85863 0.0
C890 C 0.2645 0.61412 0.84166 0.0
C891 C 0.24485 0.62471 0.83448 0.0
C892 C 0.22634 0.63424 0.84414 0.0
C893 C 0.27856 0.5975 0.83161 0.0
C894 C 0.30078 0.61436 0.81973 0.0
C895 C 0.27052 0.56508 0.83414 0.0
C896 C 0.24483 0.54497 0.84541 0.0
C897 C 0.21296 0.53984 0.84352 0.0
C898 C 0.18897 0.52132 0.85429 0.0
C899 C 0.19647 0.50757 0.86693 0.0
C900 C 0.22798 0.51227 0.8688 0.0
C901 C 0.2521 0.53084 0.85809 0.0
H902 H 0.17786 0.49323 0.87525 0.0
H903 H 0.39825 0.66599 0.76443 0.0
H904 H 0.86532 0.30407 0.14154 0.0
H905 H 0.80664 0.27084 0.13784 0.0
H906 H 0.80024 0.35559 0.12675 0.0
H907 H 0.8596 0.3892 0.13008 0.0
H908 H 0.76744 0.3295 0.15293 0.0
H909 H 0.76515 0.28831 0.09984 0.0
H910 H 0.78204 0.26702 0.07602 0.0
H911 H 0.76131 0.18151 0.10037 0.0
H912 H 0.74479 0.20245 0.12445 0.0
H913 H 0.613 0.20659 0.18114 0.0
H914 H 0.6491 0.24498 0.16183 0.0
H915 H 0.71119 0.20202 0.16325 0.0
H916 H 0.67571 0.16414 0.1825 0.0
H917 H 0.7008 0.21389 0.13199 0.0
H918 H 0.73221 0.27242 0.18691 0.0
H919 H 0.71792 0.29324 0.21191 0.0
H920 H 0.6842 0.34467 0.18365 0.0
H921 H 0.69867 0.32442 0.15849 0.0
C922 C 0.85177 0.3155 0.13756 0.0
C923 C 0.86709 0.34941 0.13644 0.0
C924 C 0.81804 0.29637 0.13539 0.0
C925 C 0.79899 0.31074 0.13204 0.0
C926 C 0.81449 0.34405 0.12935 0.0
C927 C 0.84836 0.36321 0.1314 0.0
C928 C 0.76363 0.29243 0.13502 0.0
C929 C 0.75228 0.30462 0.14785 0.0
C930 C 0.74382 0.26 0.12845 0.0
C931 C 0.7536 0.24699 0.11398 0.0
C932 C 0.76431 0.26503 0.10016 0.0
C933 C 0.77383 0.25301 0.0866 0.0
C934 C 0.77271 0.22292 0.08668 0.0
C935 C 0.76207 0.20478 0.10032 0.0
C936 C 0.75253 0.21668 0.11391 0.0
C937 C 0.63447 0.20554 0.17736 0.0
C938 C 0.64159 0.1824 0.18331 0.0
C939 C 0.65482 0.2272 0.16624 0.0
C940 C 0.68256 0.22604 0.16101 0.0
C941 C 0.68954 0.20289 0.1669 0.0
C942 C 0.66935 0.18137 0.17797 0.0
C943 C 0.70639 0.25044 0.15054 0.0
C944 C 0.71528 0.23933 0.13635 0.0
C945 C 0.72409 0.28384 0.15584 0.0
C946 C 0.71625 0.29676 0.17089 0.0
C947 C 0.72181 0.28823 0.18607 0.0
C948 C 0.71375 0.29998 0.20024 0.0
C949 C 0.70023 0.32033 0.19936 0.0
C950 C 0.69486 0.32908 0.1843 0.0
C951 C 0.70304 0.31755 0.17009 0.0
H952 H 0.69388 0.32931 0.21034 0.0
H953 H 0.7801 0.21366 0.07617 0.0
H954 H 0.09397 0.58115 0.12546 0.0
H955 H 0.09441 0.58721 0.0964 0.0
H956 H 1.00955 0.49156 0.08903 0.0
H957 H 1.00868 0.48524 0.11833 0.0
H958 H 0.06228 0.50618 0.06659 0.0
H959 H 0.99599 0.55021 0.08733 0.0
H960 H 0.9832 0.58447 0.10623 0.0
H961 H 0.06749 0.67056 0.09152 0.0
H962 H 0.08109 0.63676 0.07271 0.0
H963 H 0.04114 0.53248 0.98468 0.0
H964 H 1.03173 0.51816 0.01278 0.0
H965 H 0.10011 0.61789 0.02907 0.0
H966 H 0.10801 0.63288 0.00109 0.0
H967 H 0.04942 0.59644 0.04689 0.0
H968 H 0.11908 0.55436 0.02829 0.0
H969 H 0.13547 0.52162 0.01038 0.0
H970 H 0.04898 0.43391 0.02168 0.0
H971 H 1.03186 0.4662 0.0395 0.0
C972 C 0.07543 0.56126 0.1177 0.0
C973 C 0.05119 0.53272 0.12419 0.0
C974 C 0.0757 0.56484 0.1011 0.0
C975 C 0.05187 0.53994 0.09065 0.0
C976 C 1.02808 0.51104 0.09697 0.0
C977 C 1.02757 0.50754 0.11367 0.0
C978 C 0.05182 0.54475 0.07317 0.0
C979 C 0.05886 0.52547 0.06217 0.0
C980 C 0.0481 0.57044 0.06759 0.0
C981 C 0.03968 0.59091 0.07869 0.0
C982 C 1.01192 0.57643 0.0882 0.0
C983 C 1.00451 0.59577 0.09889 0.0
C984 C 1.02455 0.62967 0.10009 0.0
C985 C 0.05199 0.6443 0.09057 0.0
C986 C 0.05954 0.62506 0.07988 0.0
C987 C 0.05391 0.5515 0.99422 0.0
C988 C 0.0754 0.58388 0.99056 0.0
C989 C 0.0488 0.54315 0.01031 0.0
C990 C 0.06554 0.56684 0.02306 0.0
C991 C 0.08697 0.59915 0.01944 0.0
C992 C 0.09177 0.6076 0.00339 0.0
C993 C 0.06057 0.55827 0.0402 0.0
C994 C 0.05252 0.57687 0.05118 0.0
C995 C 0.06374 0.53216 0.04578 0.0
C996 C 0.07401 0.51273 0.03508 0.0
C997 C 0.10343 0.52812 0.02685 0.0
C998 C 0.11288 0.50964 0.01674 0.0
C999 C 0.09323 0.47572 0.01486 0.0
C1000 C 0.06414 0.46019 0.02312 0.0
C1001 C 0.05456 0.47857 0.03324 0.0
H1002 H 0.10059 0.46146 0.00702 0.0
H1003 H 1.01878 0.6446 0.10838 0.0
H1004 H 0.50073 1.02065 0.45234 0.0
H1005 H 0.50167 0.02527 0.423 0.0
H1006 H 0.60657 0.07012 0.42483 0.0
H1007 H 0.60584 0.06491 0.45419 0.0
H1008 H 0.57589 0.10254 0.40652 0.0
H1009 H 0.57423 1.00034 0.41095 0.0
H1010 H 0.55315 0.94556 0.42089 0.0
H1011 H 0.45941 0.91456 0.39839 0.0
H1012 H 0.47981 0.96936 0.38853 0.0
H1013 H 0.59214 0.09711 0.32097 0.0
H1014 H 0.59752 0.09467 0.35024 0.0
H1015 H 0.49596 1.02045 0.35086 0.0
H1016 H 0.49107 1.02188 0.32151 0.0
H1017 H 0.52867 1.00367 0.36843 0.0
H1018 H 0.5267 0.1037 0.36491 0.0
H1019 H 0.54415 0.15851 0.35582 0.0
H1020 H 0.63975 0.19392 0.37715 0.0
H1021 H 0.62297 0.13917 0.38619 0.0
C1022 C 0.524 0.03148 0.4465 0.0
C1023 C 0.55321 0.04229 0.4555 0.0
C1024 C 0.52447 0.03406 0.42977 0.0
C1025 C 0.55418 0.04796 0.42184 0.0
C1026 C 0.58345 0.05931 0.43081 0.0
C1027 C 0.58295 0.05617 0.44751 0.0
C1028 C 0.55439 0.0503 0.40413 0.0
C1029 C 0.56609 0.08107 0.3981 0.0
C1030 C 0.54071 1.0221 0.39334 0.0
C1031 C 0.52847 0.98905 0.39914 0.0
C1032 C 0.54904 0.98194 0.40825 0.0
C1033 C 0.53723 0.95086 0.41384 0.0
C1034 C 0.50494 0.92662 0.41031 0.0
C1035 C 0.48441 0.93338 0.40113 0.0
C1036 C 0.49609 0.96443 0.39553 0.0
C1037 C 0.571 0.08045 0.32744 0.0
C1038 C 0.54119 0.05972 0.31909 0.0
C1039 C 0.57402 0.07913 0.34415 0.0
C1040 C 0.54702 0.05769 0.35284 0.0
C1041 C 0.51717 0.03713 0.34445 0.0
C1042 C 0.51434 0.03799 0.32771 0.0
C1043 C 0.54985 0.05606 0.37061 0.0
C1044 C 0.53869 0.02533 0.37672 0.0
C1045 C 0.56354 0.08432 0.38149 0.0
C1046 C 0.57368 0.11725 0.37607 0.0
C1047 C 0.55151 0.12311 0.36755 0.0
C1048 C 0.56127 0.15418 0.36243 0.0
C1049 C 0.59307 0.17966 0.36586 0.0
C1050 C 0.61515 0.17414 0.37447 0.0
C1051 C 0.60552 0.14311 0.37961 0.0
H1052 H 0.60057 0.2037 0.36189 0.0
H1053 H 0.49584 0.90257 0.41465 0.0
H1054 H 0.61504 0.5374 0.79203 0.0
H1055 H 0.624 0.53853 0.76299 0.0
H1056 H 0.52591 0.51928 0.75364 0.0
H1057 H 0.51661 0.51824 0.78287 0.0
H1058 H 0.54591 0.48076 0.73325 0.0
H1059 H 0.58316 0.593 0.7511 0.0
H1060 H 0.61479 0.64328 0.76878 0.0
H1061 H 0.704 0.6466 0.75473 0.0
H1062 H 0.67284 0.59604 0.73714 0.0
H1063 H 0.56719 0.51804 0.65089 0.0
H1064 H 0.55426 0.5135 0.67943 0.0
H1065 H 0.65641 0.55498 0.69243 0.0
H1066 H 0.66985 0.56209 0.66396 0.0
H1067 H 0.63239 0.58208 0.71122 0.0
H1068 H 0.59768 0.47066 0.69418 0.0
H1069 H 0.56786 0.41896 0.6773 0.0
H1070 H 0.47663 0.41207 0.69035 0.0
H1071 H 0.50593 0.46397 0.70715 0.0
C1072 C 0.59526 0.5333 0.78384 0.0
C1073 C 0.56511 0.52783 0.78976 0.0
C1074 C 0.60049 0.53403 0.76725 0.0
C1075 C 0.5757 0.52921 0.75624 0.0
C1076 C 0.54533 0.52308 0.76201 0.0
C1077 C 0.54012 0.52264 0.77868 0.0
C1078 C 0.58196 0.53114 0.73871 0.0
C1079 C 0.56443 0.50299 0.72832 0.0
C1080 C 0.60683 0.55992 0.73249 0.0
C1081 C 0.62564 0.59058 0.7429 0.0
C1082 C 0.6095 0.60432 0.75187 0.0
C1083 C 0.62735 0.63289 0.76186 0.0
C1084 C 0.66138 0.64809 0.7629 0.0
C1085 C 0.67764 0.63479 0.75392 0.0
C1086 C 0.6599 0.6062 0.74392 0.0
C1087 C 0.58702 0.5265 0.65979 0.0
C1088 C 0.61965 0.54068 0.65504 0.0
C1089 C 0.57949 0.52338 0.67615 0.0
C1090 C 0.60429 0.5335 0.68812 0.0
C1091 C 0.6368 0.54694 0.68342 0.0
C1092 C 0.64443 0.55061 0.66708 0.0
C1093 C 0.59655 0.53151 0.70558 0.0
C1094 C 0.61379 0.55974 0.71602 0.0
C1095 C 0.5717 0.50262 0.71187 0.0
C1096 C 0.55402 0.47137 0.7018 0.0
C1097 C 0.57127 0.45825 0.69336 0.0
C1098 C 0.55446 0.42888 0.68382 0.0
C1099 C 0.52038 0.41228 0.68272 0.0
C1100 C 0.50303 0.42497 0.6912 0.0
C1101 C 0.51972 0.45434 0.70074 0.0
H1102 H 0.50741 0.38956 0.67533 0.0
H1103 H 0.67516 0.6702 0.77065 0.0
H1104 H 0.59516 0.02481 0.5598 0.0
H1105 H 0.59561 1.02249 0.5893 0.0
H1106 H 0.51206 0.03647 0.5918 0.0
H1107 H 0.51143 0.03883 0.56232 0.0
H1108 H 0.60364 0.06575 0.61432 0.0
H1109 H 0.46445 0.994 0.62295 0.0
H1110 H 0.41433 0.95339 0.60767 0.0
H1111 H 0.46941 0.91866 0.57994 0.0
H1112 H 0.51974 0.95874 0.5952 0.0
H1113 H 0.5681 0.0753 0.69789 0.0
H1114 H 0.56824 0.07598 0.66841 0.0
H1115 H 0.54107 0.97432 0.66403 0.0
H1116 H 0.54183 0.97353 0.69356 0.0
H1117 H 0.50583 0.98662 0.64233 0.0
H1118 H 0.61883 0.03275 0.65763 0.0
H1119 H 0.67031 0.0708 0.67262 0.0
H1120 H 0.67008 0.15195 0.65207 0.0
H1121 H 0.61832 0.1144 0.63712 0.0
C1122 C 0.57681 0.02738 0.56657 0.0
C1123 C 0.55319 0.03193 0.5585 0.0
C1124 C 0.57719 0.02617 0.58353 0.0
C1125 C 0.55374 0.02903 0.59294 0.0
C1126 C 0.53025 0.03378 0.58493 0.0
C1127 C 0.53 0.03525 0.56799 0.0
C1128 C 0.55382 0.02698 0.61105 0.0
C1129 C 0.58216 0.04849 0.6204 0.0
C1130 C 0.52611 1.00418 0.61918 0.0
C1131 C 0.4959 0.97961 0.61011 0.0
C1132 C 0.46583 0.97761 0.61363 0.0
C1133 C 0.43739 0.9547 0.60497 0.0
C1134 C 0.4387 0.93354 0.5928 0.0
C1135 C 0.46844 0.93515 0.58932 0.0
C1136 C 0.49693 0.95798 0.59797 0.0
C1137 C 0.5626 0.05308 0.69078 0.0
C1138 C 0.55517 0.02439 0.69843 0.0
C1139 C 0.56251 0.0535 0.67378 0.0
C1140 C 0.5549 0.02527 0.66382 0.0
C1141 C 0.54694 0.99647 0.67134 0.0
C1142 C 0.54725 0.99606 0.68835 0.0
C1143 C 0.55542 0.02588 0.64562 0.0
C1144 C 0.52723 1.00403 0.63625 0.0
C1145 C 0.58338 0.04815 0.63746 0.0
C1146 C 0.61454 0.07078 0.64638 0.0
C1147 C 0.62962 0.05873 0.65641 0.0
C1148 C 0.65888 0.08021 0.66488 0.0
C1149 C 0.67342 0.11378 0.66333 0.0
C1150 C 0.65877 0.12594 0.65327 0.0
C1151 C 0.62949 0.10457 0.64479 0.0
H1152 H 0.69607 0.13037 0.66989 0.0
H1153 H 0.41667 0.91586 0.58609 0.0
H1154 H 0.50957 0.47902 0.8923 0.0
H1155 H 0.50821 0.47834 0.92187 0.0
H1156 H 0.58038 0.5807 0.92625 0.0
H1157 H 0.58294 0.58097 0.89675 0.0
H1158 H 0.59552 0.55513 0.94771 0.0
H1159 H 0.49287 0.54621 0.93383 0.0
H1160 H 0.43911 0.52326 0.91981 0.0
H1161 H 0.40756 0.43162 0.94054 0.0
H1162 H 0.46129 0.45391 0.95453 0.0
H1163 H 0.571 0.58282 0.03154 0.0
H1164 H 0.57049 0.58243 0.00187 0.0
H1165 H 0.51698 0.47727 0.99846 0.0
H1166 H 0.51742 0.47749 0.02812 0.0
H1167 H 0.49193 0.50387 0.97695 0.0
H1168 H 0.59654 0.51605 0.99137 0.0
H1169 H 0.65006 0.54201 0.00588 0.0
H1170 H 0.6773 0.63209 0.98441 0.0
H1171 H 0.62373 0.60677 0.96994 0.0
C1172 C 0.52504 0.50144 0.89956 0.0
C1173 C 0.54629 0.53006 0.89202 0.0
C1174 C 0.52412 0.50112 0.91657 0.0
C1175 C 0.54379 0.52963 0.92661 0.0
C1176 C 0.56491 0.55824 0.91902 0.0
C1177 C 0.56627 0.55841 0.90204 0.0
C1178 C 0.54305 0.52966 0.9449 0.0
C1179 C 0.57274 0.5443 0.95401 0.0
C1180 C 0.51354 0.51511 0.95347 0.0
C1181 C 0.48121 0.50163 0.94509 0.0
C1182 C 0.47454 0.52109 0.93531 0.0
C1183 C 0.44406 0.50822 0.92738 0.0
C1184 C 0.41996 0.47598 0.92925 0.0
C1185 C 0.42626 0.45658 0.93908 0.0
C1186 C 0.45671 0.46932 0.94702 0.0
C1187 C 0.55893 0.55958 0.02451 0.0
C1188 C 0.54434 0.53018 0.03235 0.0
C1189 C 0.55882 0.55938 0.00748 0.0
C1190 C 0.54387 0.52981 0.99778 0.0
C1191 C 0.52874 0.50045 0.00557 0.0
C1192 C 0.52922 0.50062 0.02259 0.0
C1193 C 0.54429 0.52947 0.97956 0.0
C1194 C 0.51459 0.51473 0.97054 0.0
C1195 C 0.57374 0.54442 0.97108 0.0
C1196 C 0.60601 0.5596 0.9797 0.0
C1197 C 0.61385 0.54147 0.98984 0.0
C1198 C 0.64421 0.55605 0.99804 0.0
C1199 C 0.66704 0.5887 0.9961 0.0
C1200 C 0.65958 0.60681 0.98592 0.0
C1201 C 0.62923 0.59235 0.9777 0.0
H1202 H 0.69053 0.59995 0.00246 0.0
H1203 H 0.39639 0.46605 0.9231 0.0
H1204 H 1.02015 0.47444 0.22727 0.0
H1205 H 1.0191 0.47406 0.25694 0.0
H1206 H 0.07414 0.57915 0.26106 0.0
H1207 H 0.07468 0.57978 0.23142 0.0
H1208 H 0.09777 0.54814 0.2822 0.0
H1209 H 0.99717 0.54515 0.26782 0.0
H1210 H 0.94418 0.523 0.25314 0.0
H1211 H 0.91004 0.4311 0.27403 0.0
H1212 H 0.96304 0.45257 0.28866 0.0
H1213 H 0.08371 0.57586 0.36636 0.0
H1214 H 0.08383 0.57608 0.33681 0.0
H1215 H 1.00578 0.476 0.33313 0.0
H1216 H 1.00469 0.47631 0.36278 0.0
H1217 H 0.99392 0.50361 0.31125 0.0
H1218 H 0.0917 0.50304 0.3252 0.0
H1219 H 0.14463 0.52136 0.33926 0.0
H1220 H 0.18438 0.61423 0.3187 0.0
H1221 H 0.13153 0.59661 0.30468 0.0
C1222 C 1.03206 0.49752 0.23446 0.0
C1223 C 0.04745 0.52716 0.22684 0.0
C1224 C 1.03136 0.49725 0.25147 0.0
C1225 C 0.04647 0.52658 0.26135 0.0
C1226 C 0.0623 0.55617 0.25379 0.0
C1227 C 0.06247 0.55648 0.23678 0.0
C1228 C 0.04568 0.52642 0.27952 0.0
C1229 C 0.0751 0.53878 0.28857 0.0
C1230 C 1.0161 0.51324 0.28792 0.0
C1231 C 0.98419 0.50036 0.2792 0.0
C1232 C 0.97847 0.52013 0.26917 0.0
C1233 C 0.94841 0.50771 0.26088 0.0
C1234 C 0.92379 0.47563 0.26262 0.0
C1235 C 0.92915 0.45593 0.27268 0.0
C1236 C 0.95918 0.46822 0.28098 0.0
C1237 C 0.06663 0.55383 0.35926 0.0
C1238 C 0.04432 0.52601 0.36704 0.0
C1239 C 0.06682 0.55388 0.34226 0.0
C1240 C 0.04534 0.52579 0.33243 0.0
C1241 C 1.02275 0.49808 0.34023 0.0
C1242 C 1.02214 0.49824 0.35726 0.0
C1243 C 0.04616 0.52543 0.31413 0.0
C1244 C 1.01671 0.51294 0.30499 0.0
C1245 C 0.07573 0.53791 0.30562 0.0
C1246 C 0.10755 0.54861 0.31402 0.0
C1247 C 0.11166 0.52745 0.32377 0.0
C1248 C 0.14166 0.5377 0.33172 0.0
C1249 C 0.16782 0.56897 0.32991 0.0
C1250 C 0.16407 0.59003 0.32011 0.0
C1251 C 0.13411 0.57992 0.31215 0.0
H1252 H 0.19103 0.57686 0.33607 0.0
H1253 H 0.90053 0.46607 0.25619 0.0
loop_
_geom_bond_atom_site_label_1
_geom_bond_atom_site_label_2
_geom_bond_distance
_geom_bond_site_symmetry_2
_ccdc_geom_bond_type
Eu0 C9 2.828 . S
Eu0 O11 2.392 1_655 S
Eu0 O13 2.418 . S
Eu0 O18 2.373 . S
Eu0 O21 2.488 . S
Eu0 O22 2.471 . S
Eu0 O23 2.349 . S
Eu1 O10 2.373 . S
Eu1 O14 2.488 . S
Eu1 O15 2.471 . S
Eu1 O16 2.349 . S
Eu1 O19 2.392 1_455 S
Eu1 O20 2.418 . S
Eu1 C30 2.828 . S
C2 O20 1.244 . S
C2 O23 1.265 1_455 S
C3 C4 1.379 . S
C3 C7 1.373 . S
C3 C9 1.505 . S
C4 C3 1.379 . S
C4 C6 1.369 . S
C4 H32 0.930 . S
C5 C7 1.383 . S
C5 C8 1.382 . S
C5 H33 0.930 . S
C6 C4 1.369 . S
C6 C8 1.392 . S
C6 H34 0.930 . S
C7 C3 1.373 . S
C7 C5 1.383 . S
C7 H35 0.931 . S
C8 C5 1.382 . S
C8 C6 1.392 . S
C9 Eu0 2.828 . S
C9 C3 1.505 . S
C9 O21 1.249 . S
C9 O22 1.244 . S
O10 Eu1 2.373 . S
O10 C12 1.258 . S
O11 Eu0 2.392 1_455 S
O11 C12 1.242 . S
C12 O10 1.258 . S
C12 O11 1.242 . S
O13 Eu0 2.418 . S
O13 C17 1.244 1_655 S
O14 Eu1 2.488 . S
O14 C30 1.249 . S
O15 Eu1 2.471 . S
O15 C30 1.244 . S
O16 Eu1 2.349 . S
O16 C17 1.265 . S
C17 O13 1.244 1_455 S
C17 O16 1.265 . S
O18 Eu0 2.373 . S
O18 C31 1.258 . S
O19 Eu1 2.392 1_655 S
O19 C31 1.242 . S
O20 Eu1 2.418 . S
O20 C2 1.244 . S
O21 Eu0 2.488 . S
O21 C9 1.249 . S
O22 Eu0 2.471 . S
O22 C9 1.244 . S
O23 Eu0 2.349 . S
O23 C2 1.265 1_655 S
C24 C25 1.379 . S
C24 C28 1.373 . S
C24 C30 1.505 . S
C25 C24 1.379 . S
C25 C27 1.369 . S
C25 H36 0.930 . S
C26 C28 1.383 . S
C26 C29 1.382 . S
C26 H37 0.930 . S
C27 C25 1.369 . S
C27 C29 1.392 . S
C27 H38 0.930 . S
C28 C24 1.373 . S
C28 C26 1.383 . S
C28 H39 0.931 . S
C29 C26 1.382 . S
C29 C27 1.392 . S
C30 Eu1 2.828 . S
C30 O14 1.249 . S
C30 O15 1.244 . S
C30 C24 1.505 . S
C31 O18 1.258 . S
C31 O19 1.242 . S
H32 C4 0.930 . S
H33 C5 0.930 . S
H34 C6 0.930 . S
H35 C7 0.931 . S
H36 C25 0.930 . S
H37 C26 0.930 . S
H38 C27 0.930 . S
H39 C28 0.931 . S
Eu40 C49 2.828 . S
Eu40 O51 2.392 1_565 S
Eu40 O53 2.418 . S
Eu40 O58 2.373 . S
Eu40 O61 2.488 . S
Eu40 O62 2.471 . S
Eu40 O63 2.349 1_565 S
Eu41 O50 2.373 . S
Eu41 O54 2.488 . S
Eu41 O55 2.471 . S
Eu41 O56 2.349 . S
Eu41 O59 2.392 1_545 S
Eu41 O60 2.418 . S
Eu41 C70 2.828 . S
C42 O60 1.244 . S
C42 O63 1.265 . S
C43 C44 1.379 . S
C43 C47 1.373 . S
C43 C49 1.505 . S
C44 C43 1.379 . S
C44 C46 1.369 . S
C44 H72 0.930 . S
C45 C47 1.383 . S
C45 C48 1.382 . S
C45 H73 0.930 . S
C46 C44 1.369 . S
C46 C48 1.392 . S
C46 H74 0.930 . S
C47 C43 1.373 . S
C47 C45 1.383 . S
C47 H75 0.931 . S
C48 C45 1.382 . S
C48 C46 1.392 . S
C49 Eu40 2.828 . S
C49 C43 1.505 . S
C49 O61 1.249 . S
C49 O62 1.244 . S
O50 Eu41 2.373 . S
O50 C52 1.258 . S
O51 Eu40 2.392 1_545 S
O51 C52 1.242 . S
C52 O50 1.258 . S
C52 O51 1.242 . S
O53 Eu40 2.418 . S
O53 C57 1.244 1_565 S
O54 Eu41 2.488 . S
O54 C70 1.249 . S
O55 Eu41 2.471 . S
O55 C70 1.244 . S
O56 Eu41 2.349 . S
O56 C57 1.265 . S
C57 O53 1.244 1_545 S
C57 O56 1.265 . S
O58 Eu40 2.373 . S
O58 C71 1.258 . S
O59 Eu41 2.392 1_565 S
O59 C71 1.242 . S
O60 Eu41 2.418 . S
O60 C42 1.244 . S
O61 Eu40 2.488 . S
O61 C49 1.249 . S
O62 Eu40 2.471 . S
O62 C49 1.244 . S
O63 Eu40 2.349 1_545 S
O63 C42 1.265 . S
C64 C65 1.379 . S
C64 C68 1.373 . S
C64 C70 1.505 . S
C65 C64 1.379 . S
C65 C67 1.369 . S
C65 H76 0.930 . S
C66 C68 1.383 . S
C66 C69 1.382 . S
C66 H77 0.930 . S
C67 C65 1.369 . S
C67 C69 1.392 . S
C67 H78 0.930 . S
C68 C64 1.373 . S
C68 C66 1.383 . S
C68 H79 0.931 . S
C69 C66 1.382 . S
C69 C67 1.392 . S
C70 Eu41 2.828 . S
C70 O54 1.249 . S
C70 O55 1.244 . S
C70 C64 1.505 . S
C71 O58 1.258 . S
C71 O59 1.242 . S
H72 C44 0.930 . S
H73 C45 0.930 . S
H74 C46 0.930 . S
H75 C47 0.931 . S
H76 C65 0.930 . S
H77 C66 0.930 . S
H78 C67 0.930 . S
H79 C68 0.931 . S
Eu80 C89 2.828 . S
Eu80 O91 2.392 . S
Eu80 O93 2.418 . S
Eu80 O98 2.373 . S
Eu80 O101 2.488 . S
Eu80 O102 2.471 . S
Eu80 O103 2.349 . S
Eu81 O90 2.373 . S
Eu81 O94 2.488 . S
Eu81 O95 2.471 . S
Eu81 O96 2.349 . S
Eu81 O99 2.392 . S
Eu81 O100 2.418 . S
Eu81 C110 2.828 . S
C82 O100 1.244 . S
C82 O103 1.265 . S
C83 C84 1.379 . S
C83 C87 1.373 . S
C83 C89 1.505 . S
C84 C83 1.379 . S
C84 C86 1.369 . S
C84 H112 0.930 . S
C85 C87 1.383 . S
C85 C88 1.382 . S
C85 H113 0.930 . S
C86 C84 1.369 . S
C86 C88 1.392 . S
C86 H114 0.930 . S
C87 C83 1.373 . S
C87 C85 1.383 . S
C87 H115 0.931 . S
C88 C85 1.382 . S
C88 C86 1.392 . S
C89 Eu80 2.828 . S
C89 C83 1.505 . S
C89 O101 1.249 . S
C89 O102 1.244 . S
O90 Eu81 2.373 . S
O90 C92 1.258 . S
O91 Eu80 2.392 . S
O91 C92 1.242 . S
C92 O90 1.258 . S
C92 O91 1.242 . S
O93 Eu80 2.418 . S
O93 C97 1.244 . S
O94 Eu81 2.488 . S
O94 C110 1.249 . S
O95 Eu81 2.471 . S
O95 C110 1.244 . S
O96 Eu81 2.349 . S
O96 C97 1.265 . S
C97 O93 1.244 . S
C97 O96 1.265 . S
O98 Eu80 2.373 . S
O98 C111 1.258 . S
O99 Eu81 2.392 . S
O99 C111 1.242 . S
O100 Eu81 2.418 . S
O100 C82 1.244 . S
O101 Eu80 2.488 . S
O101 C89 1.249 . S
O102 Eu80 2.471 . S
O102 C89 1.244 . S
O103 Eu80 2.349 . S
O103 C82 1.265 . S
C104 C105 1.379 . S
C104 C108 1.373 . S
C104 C110 1.505 . S
C105 C104 1.379 . S
C105 C107 1.369 . S
C105 H116 0.930 . S
C106 C108 1.383 . S
C106 C109 1.382 . S
C106 H117 0.930 . S
C107 C105 1.369 . S
C107 C109 1.392 . S
C107 H118 0.930 . S
C108 C104 1.373 . S
C108 C106 1.383 . S
C108 H119 0.931 . S
C109 C106 1.382 . S
C109 C107 1.392 . S
C110 Eu81 2.828 . S
C110 O94 1.249 . S
C110 O95 1.244 . S
C110 C104 1.505 . S
C111 O98 1.258 . S
C111 O99 1.242 . S
H112 C84 0.930 . S
H113 C85 0.930 . S
H114 C86 0.930 . S
H115 C87 0.931 . S
H116 C105 0.930 . S
H117 C106 0.930 . S
H118 C107 0.930 . S
H119 C108 0.931 . S
C120 C121 1.386 . S
C120 C122 1.397 . S
C120 H144 0.931 . S
C121 C120 1.386 . S
C121 C125 1.386 1_545 S
C122 C120 1.397 . S
C122 C123 1.384 . S
C122 H145 0.930 . S
C123 C122 1.384 . S
C123 C124 1.375 . S
C123 C126 1.481 . S
C124 C123 1.375 . S
C124 C125 1.388 1_545 S
C124 H146 0.931 1_545 S
C125 C121 1.386 1_565 S
C125 C124 1.388 1_565 S
C125 H147 0.943 . S
C126 C123 1.481 . S
C126 C127 1.387 . S
C126 C131 1.390 . S
C127 C126 1.387 . S
C127 C128 1.401 . S
C127 H148 0.930 . S
C128 C127 1.401 . S
C128 C129 1.376 . S
C128 C137 1.511 . S
C129 C128 1.376 . S
C129 C130 1.392 . S
C129 H150 0.931 . S
C130 C129 1.392 . S
C130 C131 1.361 . S
C130 C132 1.500 1_545 S
C131 C126 1.390 . S
C131 C130 1.361 . S
C131 H149 0.931 1_545 S
C132 C130 1.500 1_565 S
C132 C133 1.371 . S
C132 C134 1.365 . S
C133 C132 1.371 . S
C133 C143 1.386 . S
C133 H151 0.931 . S
C134 C132 1.365 . S
C134 C135 1.409 . S
C134 H152 0.929 . S
C135 C134 1.409 . S
C135 C136 1.380 . S
C135 H153 0.930 . S
C136 C135 1.380 . S
C136 C143 1.357 . S
C137 C128 1.511 . S
C137 C138 1.341 . S
C137 C139 1.371 . S
C138 C137 1.341 . S
C138 C142 1.394 . S
C138 H154 0.930 . S
C139 C137 1.371 . S
C139 C140 1.392 . S
C139 H155 0.931 . S
C140 C139 1.392 . S
C140 C141 1.331 . S
C140 H158 0.932 . S
C141 C140 1.331 . S
C141 C142 1.336 . S
C142 C138 1.394 . S
C142 C141 1.336 . S
C142 H157 0.929 . S
C143 C133 1.386 . S
C143 C136 1.357 . S
C143 H156 0.928 . S
H144 C120 0.931 . S
H145 C122 0.930 . S
H146 C124 0.931 1_565 S
H147 C125 0.943 . S
H148 C127 0.930 . S
H149 C131 0.931 1_565 S
H150 C129 0.931 . S
H151 C133 0.931 . S
H152 C134 0.929 . S
H153 C135 0.930 . S
H154 C138 0.930 . S
H155 C139 0.931 . S
H156 C143 0.928 . S
H157 C142 0.929 . S
H158 C140 0.932 . S
C159 C160 1.386 . S
C159 C161 1.397 . S
C159 H183 0.931 . S
C160 C159 1.386 . S
C160 C164 1.397 . S
C161 C159 1.397 . S
C161 C162 1.384 . S
C161 H184 0.930 . S
C162 C161 1.384 . S
C162 C163 1.377 . S
C162 C165 1.481 . S
C163 C162 1.377 . S
C163 C164 1.389 . S
C163 H185 0.929 . S
C164 C160 1.397 . S
C164 C163 1.389 . S
C164 H186 0.931 . S
C165 C162 1.481 . S
C165 C166 1.387 . S
C165 C170 1.390 . S
C166 C165 1.387 . S
C166 C167 1.401 . S
C166 H187 0.930 . S
C167 C166 1.401 . S
C167 C168 1.376 . S
C167 C176 1.511 . S
C168 C167 1.376 . S
C168 C169 1.392 . S
C168 H189 0.931 . S
C169 C168 1.392 . S
C169 C170 1.361 . S
C169 C171 1.500 . S
C170 C165 1.390 . S
C170 C169 1.361 . S
C170 H188 0.931 . S
C171 C169 1.500 . S
C171 C172 1.371 . S
C171 C173 1.365 . S
C172 C171 1.371 . S
C172 C182 1.386 . S
C172 H190 0.931 . S
C173 C171 1.365 . S
C173 C174 1.409 . S
C173 H191 0.929 . S
C174 C173 1.409 . S
C174 C175 1.380 . S
C174 H192 0.930 . S
C175 C174 1.380 . S
C175 C182 1.357 . S
C176 C167 1.511 . S
C176 C177 1.341 . S
C176 C178 1.371 . S
C177 C176 1.341 . S
C177 C181 1.394 . S
C177 H193 0.930 . S
C178 C176 1.371 . S
C178 C179 1.392 . S
C178 H194 0.931 . S
C179 C178 1.392 . S
C179 C180 1.331 . S
C179 H197 0.932 . S
C180 C179 1.331 . S
C180 C181 1.336 . S
C181 C177 1.394 . S
C181 C180 1.336 . S
C181 H196 0.929 . S
C182 C172 1.386 . S
C182 C175 1.357 . S
C182 H195 0.928 . S
H183 C159 0.931 . S
H184 C161 0.930 . S
H185 C163 0.929 . S
H186 C164 0.931 . S
H187 C166 0.930 . S
H188 C170 0.931 . S
H189 C168 0.931 . S
H190 C172 0.931 . S
H191 C173 0.929 . S
H192 C174 0.930 . S
H193 C177 0.930 . S
H194 C178 0.931 . S
H195 C182 0.928 . S
H196 C181 0.929 . S
H197 C179 0.932 . S
C198 C199 1.386 . S
C198 C200 1.397 . S
C198 H222 0.931 . S
C199 C198 1.386 . S
C199 C203 1.397 . S
C200 C198 1.397 . S
C200 C201 1.384 . S
C200 H223 0.930 . S
C201 C200 1.384 . S
C201 C202 1.377 . S
C201 C204 1.481 . S
C202 C201 1.377 . S
C202 C203 1.389 . S
C202 H224 0.929 1_455 S
C203 C199 1.397 . S
C203 C202 1.389 . S
C203 H225 0.931 1_455 S
C204 C201 1.481 . S
C204 C205 1.387 . S
C204 C209 1.390 . S
C205 C204 1.387 . S
C205 C206 1.401 . S
C205 H226 0.930 . S
C206 C205 1.401 . S
C206 C207 1.376 . S
C206 C215 1.511 . S
C207 C206 1.376 . S
C207 C208 1.392 . S
C207 H228 0.931 . S
C208 C207 1.392 . S
C208 C209 1.361 . S
C208 C210 1.500 1_455 S
C209 C204 1.390 . S
C209 C208 1.361 . S
C209 H227 0.931 1_455 S
C210 C208 1.500 1_655 S
C210 C211 1.371 . S
C210 C212 1.365 . S
C211 C210 1.371 . S
C211 C221 1.386 . S
C211 H229 0.931 1_655 S
C212 C210 1.365 . S
C212 C213 1.409 . S
C212 H230 0.929 . S
C213 C212 1.409 . S
C213 C214 1.380 . S
C213 H231 0.930 . S
C214 C213 1.380 . S
C214 C221 1.357 . S
C215 C206 1.511 . S
C215 C216 1.341 . S
C215 C217 1.371 . S
C216 C215 1.341 . S
C216 C220 1.394 . S
C216 H232 0.930 . S
C217 C215 1.371 . S
C217 C218 1.392 . S
C217 H233 0.931 . S
C218 C217 1.392 . S
C218 C219 1.331 . S
C218 H236 0.932 . S
C219 C218 1.331 . S
C219 C220 1.336 . S
C220 C216 1.394 . S
C220 C219 1.336 . S
C220 H235 0.929 . S
C221 C211 1.386 . S
C221 C214 1.357 . S
C221 H234 0.928 . S
H222 C198 0.931 . S
H223 C200 0.930 . S
H224 C202 0.929 1_655 S
H225 C203 0.931 1_655 S
H226 C205 0.930 . S
H227 C209 0.931 1_655 S
H228 C207 0.931 . S
H229 C211 0.931 1_455 S
H230 C212 0.929 . S
H231 C213 0.930 . S
H232 C216 0.930 . S
H233 C217 0.931 . S
H234 C221 0.928 . S
H235 C220 0.929 . S
H236 C218 0.932 . S
C237 C238 1.386 1_655 S
C237 C239 1.397 . S
C237 H261 0.931 . S
C238 C237 1.386 1_455 S
C238 C242 1.397 . S
C239 C237 1.397 . S
C239 C240 1.384 1_655 S
C239 H262 0.930 . S
C240 C239 1.384 1_455 S
C240 C241 1.377 . S
C240 C243 1.481 . S
C241 C240 1.377 . S
C241 C242 1.389 . S
C241 H263 0.929 . S
C242 C238 1.397 . S
C242 C241 1.389 . S
C242 H264 0.931 . S
C243 C240 1.481 . S
C243 C244 1.387 1_455 S
C243 C248 1.390 . S
C244 C243 1.387 1_655 S
C244 C245 1.401 . S
C244 H265 0.930 . S
C245 C244 1.401 . S
C245 C246 1.376 1_655 S
C245 C254 1.511 . S
C246 C245 1.376 1_455 S
C246 C247 1.392 . S
C246 H267 0.931 . S
C247 C246 1.392 . S
C247 C248 1.361 . S
C247 C249 1.500 . S
C248 C243 1.390 . S
C248 C247 1.361 . S
C248 H266 0.931 . S
C249 C247 1.500 . S
C249 C250 1.371 . S
C249 C251 1.365 . S
C250 C249 1.371 . S
C250 C260 1.386 . S
C250 H268 0.931 . S
C251 C249 1.365 . S
C251 C252 1.409 . S
C251 H269 0.929 . S
C252 C251 1.409 . S
C252 C253 1.380 . S
C252 H270 0.930 . S
C253 C252 1.380 . S
C253 C260 1.357 . S
C254 C245 1.511 . S
C254 C255 1.341 . S
C254 C256 1.371 . S
C255 C254 1.341 . S
C255 C259 1.394 . S
C255 H271 0.930 . S
C256 C254 1.371 . S
C256 C257 1.392 . S
C256 H272 0.931 . S
C257 C256 1.392 . S
C257 C258 1.331 . S
C257 H275 0.932 . S
C258 C257 1.331 . S
C258 C259 1.336 . S
C259 C255 1.394 . S
C259 C258 1.336 . S
C259 H274 0.929 . S
C260 C250 1.386 . S
C260 C253 1.357 . S
C260 H273 0.928 . S
H261 C237 0.931 . S
H262 C239 0.930 . S
H263 C241 0.929 . S
H264 C242 0.931 . S
H265 C244 0.930 . S
H266 C248 0.931 . S
H267 C246 0.931 . S
H268 C250 0.931 . S
H269 C251 0.929 . S
H270 C252 0.930 . S
H271 C255 0.930 . S
H272 C256 0.931 . S
H273 C260 0.928 . S
H274 C259 0.929 . S
H275 C257 0.932 . S
C276 C277 1.386 1_565 S
C276 C278 1.397 . S
C276 H300 0.931 . S
C277 C276 1.386 1_545 S
C277 C281 1.397 . S
C278 C276 1.397 . S
C278 C279 1.384 1_565 S
C278 H301 0.930 . S
C279 C278 1.384 1_545 S
C279 C280 1.377 . S
C279 C282 1.481 . S
C280 C279 1.377 . S
C280 C281 1.389 . S
C280 H302 0.929 . S
C281 C277 1.397 . S
C281 C280 1.389 . S
C281 H303 0.931 . S
C282 C279 1.481 . S
C282 C283 1.387 1_545 S
C282 C287 1.390 . S
C283 C282 1.387 1_565 S
C283 C284 1.401 . S
C283 H304 0.930 . S
C284 C283 1.401 . S
C284 C285 1.376 1_565 S
C284 C293 1.511 . S
C285 C284 1.376 1_545 S
C285 C286 1.392 . S
C285 H306 0.931 . S
C286 C285 1.392 . S
C286 C287 1.361 . S
C286 C288 1.500 . S
C287 C282 1.390 . S
C287 C286 1.361 . S
C287 H305 0.931 . S
C288 C286 1.500 . S
C288 C289 1.371 . S
C288 C290 1.365 . S
C289 C288 1.371 . S
C289 C299 1.386 . S
C289 H307 0.931 . S
C290 C288 1.365 . S
C290 C291 1.409 . S
C290 H308 0.929 . S
C291 C290 1.409 . S
C291 C292 1.380 . S
C291 H309 0.930 . S
C292 C291 1.380 . S
C292 C299 1.357 . S
C293 C284 1.511 . S
C293 C294 1.341 . S
C293 C295 1.371 . S
C294 C293 1.341 . S
C294 C298 1.394 . S
C294 H310 0.930 . S
C295 C293 1.371 . S
C295 C296 1.392 . S
C295 H311 0.931 . S
C296 C295 1.392 . S
C296 C297 1.331 . S
C296 H314 0.932 . S
C297 C296 1.331 . S
C297 C298 1.336 . S
C298 C294 1.394 . S
C298 C297 1.336 . S
C298 H313 0.929 . S
C299 C289 1.386 . S
C299 C292 1.357 . S
C299 H312 0.928 . S
H300 C276 0.931 . S
H301 C278 0.930 . S
H302 C280 0.929 . S
H303 C281 0.931 . S
H304 C283 0.930 . S
H305 C287 0.931 . S
H306 C285 0.931 . S
H307 C289 0.931 . S
H308 C290 0.929 . S
H309 C291 0.930 . S
H310 C294 0.930 . S
H311 C295 0.931 . S
H312 C299 0.928 . S
H313 C298 0.929 . S
H314 C296 0.932 . S
C315 C316 1.386 . S
C315 C317 1.397 . S
C315 H339 0.931 . S
C316 C315 1.386 . S
C316 C320 1.397 . S
C317 C315 1.397 . S
C317 C318 1.384 . S
C317 H340 0.930 . S
C318 C317 1.384 . S
C318 C319 1.377 . S
C318 C321 1.481 . S
C319 C318 1.377 . S
C319 C320 1.389 . S
C319 H341 0.929 . S
C320 C316 1.397 . S
C320 C319 1.389 . S
C320 H342 0.931 . S
C321 C318 1.481 . S
C321 C322 1.387 . S
C321 C326 1.390 . S
C322 C321 1.387 . S
C322 C323 1.401 . S
C322 H343 0.930 . S
C323 C322 1.401 . S
C323 C324 1.376 . S
C323 C332 1.511 . S
C324 C323 1.376 . S
C324 C325 1.392 . S
C324 H345 0.931 . S
C325 C324 1.392 . S
C325 C326 1.361 . S
C325 C327 1.500 . S
C326 C321 1.390 . S
C326 C325 1.361 . S
C326 H344 0.931 . S
C327 C325 1.500 . S
C327 C328 1.371 . S
C327 C329 1.365 . S
C328 C327 1.371 . S
C328 C338 1.386 . S
C328 H346 0.931 . S
C329 C327 1.365 . S
C329 C330 1.409 . S
C329 H347 0.929 . S
C330 C329 1.409 . S
C330 C331 1.380 . S
C330 H348 0.930 . S
C331 C330 1.380 . S
C331 C338 1.357 . S
C332 C323 1.511 . S
C332 C333 1.341 . S
C332 C334 1.371 . S
C333 C332 1.341 . S
C333 C337 1.394 . S
C333 H349 0.930 . S
C334 C332 1.371 . S
C334 C335 1.392 . S
C334 H350 0.931 . S
C335 C334 1.392 . S
C335 C336 1.331 . S
C335 H353 0.932 . S
C336 C335 1.331 . S
C336 C337 1.336 . S
C337 C333 1.394 . S
C337 C336 1.336 . S
C337 H352 0.929 . S
C338 C328 1.386 . S
C338 C331 1.357 . S
C338 H351 0.928 . S
H339 C315 0.931 . S
H340 C317 0.930 . S
H341 C319 0.929 . S
H342 C320 0.931 . S
H343 C322 0.930 . S
H344 C326 0.931 . S
H345 C324 0.931 . S
H346 C328 0.931 . S
H347 C329 0.929 . S
H348 C330 0.930 . S
H349 C333 0.930 . S
H350 C334 0.931 . S
H351 C338 0.928 . S
H352 C337 0.929 . S
H353 C335 0.932 . S
H354 C372 0.951 . S
H355 C374 0.951 . S
H356 C376 0.950 . S
H357 C377 0.950 . S
H358 C379 0.950 . S
H359 C382 0.950 . S
H360 C383 0.950 . S
H361 C385 0.950 . S
H362 C386 0.950 . S
H363 C387 0.951 . S
H364 C389 0.951 . S
H365 C391 0.950 . S
H366 C392 0.950 . S
H367 C394 0.950 . S
H368 C397 0.950 . S
H369 C398 0.950 . S
H370 C400 0.950 . S
H371 C401 0.950 . S
C372 H354 0.951 . S
C372 C373 1.366 . S
C372 C374 1.388 . S
C373 C372 1.366 . S
C373 C377 1.385 . S
C374 H355 0.951 . S
C374 C372 1.388 . S
C374 C375 1.366 . S
C375 C374 1.366 . S
C375 C376 1.414 . S
C375 C378 1.499 . S
C376 H356 0.950 . S
C376 C375 1.414 . S
C376 C377 1.374 . S
C377 H357 0.950 . S
C377 C373 1.385 . S
C377 C376 1.374 . S
C378 C375 1.499 . S
C378 C379 1.373 . S
C378 C380 1.389 . S
C379 H358 0.950 . S
C379 C378 1.373 . S
C379 C395 1.377 . S
C380 C378 1.389 . S
C380 C381 1.524 . S
C380 C394 1.377 . S
C381 C380 1.524 . S
C381 C382 1.397 . S
C381 C386 1.363 . S
C382 H359 0.950 . S
C382 C381 1.397 . S
C382 C383 1.334 . S
C383 H360 0.950 . S
C383 C382 1.334 . S
C383 C384 1.287 . S
C384 C383 1.287 . S
C384 C385 1.524 . S
C384 H403 0.913 . S
C385 H361 0.950 . S
C385 C384 1.524 . S
C385 C386 1.415 . S
C386 H362 0.950 . S
C386 C381 1.363 . S
C386 C385 1.415 . S
C387 H363 0.951 . S
C387 C388 1.366 . S
C387 C389 1.388 . S
C388 C387 1.366 . S
C388 C392 1.385 . S
C389 H364 0.951 . S
C389 C387 1.388 . S
C389 C390 1.366 . S
C390 C389 1.366 . S
C390 C391 1.414 . S
C390 C393 1.499 . S
C391 H365 0.950 . S
C391 C390 1.414 . S
C391 C392 1.374 . S
C392 H366 0.950 . S
C392 C388 1.385 . S
C392 C391 1.374 . S
C393 C390 1.499 . S
C393 C394 1.373 . S
C393 C395 1.389 . S
C394 H367 0.950 . S
C394 C380 1.377 . S
C394 C393 1.373 . S
C395 C379 1.377 . S
C395 C393 1.389 . S
C395 C396 1.524 . S
C396 C395 1.524 . S
C396 C397 1.397 . S
C396 C401 1.363 . S
C397 H368 0.950 . S
C397 C396 1.397 . S
C397 C398 1.334 . S
C398 H369 0.950 . S
C398 C397 1.334 . S
C398 C399 1.287 . S
C399 C398 1.287 . S
C399 C400 1.524 . S
C399 H402 0.999 . S
C400 H370 0.950 . S
C400 C399 1.524 . S
C400 C401 1.415 . S
C401 H371 0.950 . S
C401 C396 1.363 . S
C401 C400 1.415 . S
H402 C399 0.999 . S
H403 C384 0.913 . S
H404 C422 0.951 . S
H405 C424 0.951 . S
H406 C426 0.950 . S
H407 C427 0.950 . S
H408 C429 0.950 . S
H409 C432 0.950 . S
H410 C433 0.950 . S
H411 C435 0.950 . S
H412 C436 0.950 . S
H413 C437 0.951 . S
H414 C439 0.951 . S
H415 C441 0.950 . S
H416 C442 0.950 . S
H417 C444 0.950 . S
H418 C447 0.950 . S
H419 C448 0.950 . S
H420 C450 0.950 . S
H421 C451 0.950 . S
C422 H404 0.951 . S
C422 C423 1.366 . S
C422 C424 1.388 . S
C423 C422 1.366 . S
C423 C427 1.385 . S
C424 H405 0.951 . S
C424 C422 1.388 . S
C424 C425 1.366 . S
C425 C424 1.366 . S
C425 C426 1.414 . S
C425 C428 1.499 . S
C426 H406 0.950 . S
C426 C425 1.414 . S
C426 C427 1.374 . S
C427 H407 0.950 . S
C427 C423 1.385 . S
C427 C426 1.374 . S
C428 C425 1.499 . S
C428 C429 1.373 . S
C428 C430 1.389 . S
C429 H408 0.950 . S
C429 C428 1.373 . S
C429 C445 1.377 . S
C430 C428 1.389 . S
C430 C431 1.524 . S
C430 C444 1.377 . S
C431 C430 1.524 . S
C431 C432 1.397 . S
C431 C436 1.363 . S
C432 H409 0.950 . S
C432 C431 1.397 . S
C432 C433 1.334 . S
C433 H410 0.950 . S
C433 C432 1.334 . S
C433 C434 1.287 . S
C434 C433 1.287 . S
C434 C435 1.524 . S
C434 H453 0.913 . S
C435 H411 0.950 . S
C435 C434 1.524 . S
C435 C436 1.415 . S
C436 H412 0.950 . S
C436 C431 1.363 . S
C436 C435 1.415 . S
C437 H413 0.951 . S
C437 C438 1.366 . S
C437 C439 1.388 . S
C438 C437 1.366 . S
C438 C442 1.385 . S
C439 H414 0.951 . S
C439 C437 1.388 . S
C439 C440 1.366 . S
C440 C439 1.366 . S
C440 C441 1.414 . S
C440 C443 1.499 . S
C441 H415 0.950 . S
C441 C440 1.414 . S
C441 C442 1.374 . S
C442 H416 0.950 . S
C442 C438 1.385 . S
C442 C441 1.374 . S
C443 C440 1.499 . S
C443 C444 1.373 . S
C443 C445 1.389 . S
C444 H417 0.950 . S
C444 C430 1.377 . S
C444 C443 1.373 . S
C445 C429 1.377 . S
C445 C443 1.389 . S
C445 C446 1.524 . S
C446 C445 1.524 . S
C446 C447 1.397 . S
C446 C451 1.363 . S
C447 H418 0.950 . S
C447 C446 1.397 . S
C447 C448 1.334 . S
C448 H419 0.950 . S
C448 C447 1.334 . S
C448 C449 1.287 . S
C449 C448 1.287 . S
C449 C450 1.524 . S
C449 H452 0.999 . S
C450 H420 0.950 . S
C450 C449 1.524 . S
C450 C451 1.415 . S
C451 H421 0.950 . S
C451 C446 1.363 . S
C451 C450 1.415 . S
H452 C449 0.999 . S
H453 C434 0.913 . S
H454 C472 0.951 . S
H455 C474 0.951 . S
H456 C476 0.950 . S
H457 C477 0.950 . S
H458 C479 0.950 . S
H459 C482 0.950 . S
H460 C483 0.950 . S
H461 C485 0.950 . S
H462 C486 0.950 . S
H463 C487 0.951 . S
H464 C489 0.951 . S
H465 C491 0.950 . S
H466 C492 0.950 . S
H467 C494 0.950 . S
H468 C497 0.950 . S
H469 C498 0.950 . S
H470 C500 0.950 . S
H471 C501 0.950 . S
C472 H454 0.951 . S
C472 C473 1.366 . S
C472 C474 1.388 . S
C473 C472 1.366 . S
C473 C477 1.385 . S
C474 H455 0.951 . S
C474 C472 1.388 . S
C474 C475 1.366 . S
C475 C474 1.366 . S
C475 C476 1.414 . S
C475 C478 1.499 . S
C476 H456 0.950 . S
C476 C475 1.414 . S
C476 C477 1.374 . S
C477 H457 0.950 . S
C477 C473 1.385 . S
C477 C476 1.374 . S
C478 C475 1.499 . S
C478 C479 1.373 . S
C478 C480 1.389 . S
C479 H458 0.950 . S
C479 C478 1.373 . S
C479 C495 1.377 . S
C480 C478 1.389 . S
C480 C481 1.524 . S
C480 C494 1.377 . S
C481 C480 1.524 . S
C481 C482 1.397 . S
C481 C486 1.363 . S
C482 H459 0.950 . S
C482 C481 1.397 . S
C482 C483 1.334 . S
C483 H460 0.950 . S
C483 C482 1.334 . S
C483 C484 1.287 . S
C484 C483 1.287 . S
C484 C485 1.524 . S
C484 H503 0.913 . S
C485 H461 0.950 . S
C485 C484 1.524 . S
C485 C486 1.415 . S
C486 H462 0.950 . S
C486 C481 1.363 . S
C486 C485 1.415 . S
C487 H463 0.951 . S
C487 C488 1.366 . S
C487 C489 1.388 . S
C488 C487 1.366 . S
C488 C492 1.385 . S
C489 H464 0.951 . S
C489 C487 1.388 . S
C489 C490 1.366 . S
C490 C489 1.366 . S
C490 C491 1.414 . S
C490 C493 1.499 . S
C491 H465 0.950 . S
C491 C490 1.414 . S
C491 C492 1.374 . S
C492 H466 0.950 . S
C492 C488 1.385 . S
C492 C491 1.374 . S
C493 C490 1.499 . S
C493 C494 1.373 . S
C493 C495 1.389 . S
C494 H467 0.950 . S
C494 C480 1.377 . S
C494 C493 1.373 . S
C495 C479 1.377 . S
C495 C493 1.389 . S
C495 C496 1.524 . S
C496 C495 1.524 . S
C496 C497 1.397 . S
C496 C501 1.363 . S
C497 H468 0.950 . S
C497 C496 1.397 . S
C497 C498 1.334 . S
C498 H469 0.950 . S
C498 C497 1.334 . S
C498 C499 1.287 . S
C499 C498 1.287 . S
C499 C500 1.524 . S
C499 H502 0.999 . S
C500 H470 0.950 . S
C500 C499 1.524 . S
C500 C501 1.415 . S
C501 H471 0.950 . S
C501 C496 1.363 . S
C501 C500 1.415 . S
H502 C499 0.999 . S
H503 C484 0.913 . S
H504 C522 0.951 . S
H505 C524 0.951 . S
H506 C526 0.950 . S
H507 C527 0.950 . S
H508 C529 0.950 . S
H509 C532 0.950 . S
H510 C533 0.950 . S
H511 C535 0.950 . S
H512 C536 0.950 . S
H513 C537 0.951 . S
H514 C539 0.951 . S
H515 C541 0.950 . S
H516 C542 0.950 . S
H517 C544 0.950 . S
H518 C547 0.950 . S
H519 C548 0.950 . S
H520 C550 0.950 . S
H521 C551 0.950 . S
C522 H504 0.951 . S
C522 C523 1.366 . S
C522 C524 1.388 . S
C523 C522 1.366 . S
C523 C527 1.385 . S
C524 H505 0.951 . S
C524 C522 1.388 . S
C524 C525 1.366 . S
C525 C524 1.366 . S
C525 C526 1.414 . S
C525 C528 1.499 . S
C526 H506 0.950 . S
C526 C525 1.414 . S
C526 C527 1.374 . S
C527 H507 0.950 . S
C527 C523 1.385 . S
C527 C526 1.374 . S
C528 C525 1.499 . S
C528 C529 1.373 . S
C528 C530 1.389 . S
C529 H508 0.950 . S
C529 C528 1.373 . S
C529 C545 1.377 . S
C530 C528 1.389 . S
C530 C531 1.524 . S
C530 C544 1.377 . S
C531 C530 1.524 . S
C531 C532 1.397 . S
C531 C536 1.363 . S
C532 H509 0.950 . S
C532 C531 1.397 . S
C532 C533 1.334 . S
C533 H510 0.950 . S
C533 C532 1.334 . S
C533 C534 1.287 . S
C534 C533 1.287 . S
C534 C535 1.524 . S
C534 H553 0.913 . S
C535 H511 0.950 . S
C535 C534 1.524 . S
C535 C536 1.415 . S
C536 H512 0.950 . S
C536 C531 1.363 . S
C536 C535 1.415 . S
C537 H513 0.951 . S
C537 C538 1.366 . S
C537 C539 1.388 . S
C538 C537 1.366 . S
C538 C542 1.385 . S
C539 H514 0.951 . S
C539 C537 1.388 . S
C539 C540 1.366 . S
C540 C539 1.366 . S
C540 C541 1.414 . S
C540 C543 1.499 . S
C541 H515 0.950 . S
C541 C540 1.414 . S
C541 C542 1.374 . S
C542 H516 0.950 . S
C542 C538 1.385 . S
C542 C541 1.374 . S
C543 C540 1.499 . S
C543 C544 1.373 . S
C543 C545 1.389 . S
C544 H517 0.950 . S
C544 C530 1.377 . S
C544 C543 1.373 . S
C545 C529 1.377 . S
C545 C543 1.389 . S
C545 C546 1.524 . S
C546 C545 1.524 . S
C546 C547 1.397 . S
C546 C551 1.363 . S
C547 H518 0.950 . S
C547 C546 1.397 . S
C547 C548 1.334 . S
C548 H519 0.950 . S
C548 C547 1.334 . S
C548 C549 1.287 . S
C549 C548 1.287 . S
C549 C550 1.524 . S
C549 H552 0.999 . S
C550 H520 0.950 . S
C550 C549 1.524 . S
C550 C551 1.415 . S
C551 H521 0.950 . S
C551 C546 1.363 . S
C551 C550 1.415 . S
H552 C549 0.999 . S
H553 C534 0.913 . S
H554 C572 0.951 . S
H555 C574 0.951 . S
H556 C576 0.950 . S
H557 C577 0.950 . S
H558 C579 0.950 . S
H559 C582 0.950 . S
H560 C583 0.950 . S
H561 C585 0.950 . S
H562 C586 0.950 . S
H563 C587 0.951 . S
H564 C589 0.951 . S
H565 C591 0.950 . S
H566 C592 0.950 . S
H567 C594 0.950 . S
H568 C597 0.950 . S
H569 C598 0.950 . S
H570 C600 0.950 . S
H571 C601 0.950 . S
C572 H554 0.951 . S
C572 C573 1.366 . S
C572 C574 1.388 . S
C573 C572 1.366 . S
C573 C577 1.385 . S
C574 H555 0.951 . S
C574 C572 1.388 . S
C574 C575 1.366 . S
C575 C574 1.366 . S
C575 C576 1.414 . S
C575 C578 1.499 . S
C576 H556 0.950 . S
C576 C575 1.414 . S
C576 C577 1.374 . S
C577 H557 0.950 . S
C577 C573 1.385 . S
C577 C576 1.374 . S
C578 C575 1.499 . S
C578 C579 1.373 . S
C578 C580 1.389 . S
C579 H558 0.950 . S
C579 C578 1.373 . S
C579 C595 1.377 . S
C580 C578 1.389 . S
C580 C581 1.524 . S
C580 C594 1.377 . S
C581 C580 1.524 . S
C581 C582 1.397 . S
C581 C586 1.363 . S
C582 H559 0.950 . S
C582 C581 1.397 . S
C582 C583 1.334 . S
C583 H560 0.950 . S
C583 C582 1.334 . S
C583 C584 1.287 . S
C584 C583 1.287 . S
C584 C585 1.524 . S
C584 H603 0.913 . S
C585 H561 0.950 . S
C585 C584 1.524 . S
C585 C586 1.415 . S
C586 H562 0.950 . S
C586 C581 1.363 . S
C586 C585 1.415 . S
C587 H563 0.951 . S
C587 C588 1.366 . S
C587 C589 1.388 . S
C588 C587 1.366 . S
C588 C592 1.385 . S
C589 H564 0.951 . S
C589 C587 1.388 . S
C589 C590 1.366 . S
C590 C589 1.366 . S
C590 C591 1.414 . S
C590 C593 1.499 . S
C591 H565 0.950 . S
C591 C590 1.414 . S
C591 C592 1.374 . S
C592 H566 0.950 . S
C592 C588 1.385 . S
C592 C591 1.374 . S
C593 C590 1.499 . S
C593 C594 1.373 . S
C593 C595 1.389 . S
C594 H567 0.950 . S
C594 C580 1.377 . S
C594 C593 1.373 . S
C595 C579 1.377 . S
C595 C593 1.389 . S
C595 C596 1.524 . S
C596 C595 1.524 . S
C596 C597 1.397 . S
C596 C601 1.363 . S
C597 H568 0.950 . S
C597 C596 1.397 . S
C597 C598 1.334 . S
C598 H569 0.950 . S
C598 C597 1.334 . S
C598 C599 1.287 . S
C599 C598 1.287 . S
C599 C600 1.524 . S
C599 H602 0.999 . S
C600 H570 0.950 . S
C600 C599 1.524 . S
C600 C601 1.415 . S
C601 H571 0.950 . S
C601 C596 1.363 . S
C601 C600 1.415 . S
H602 C599 0.999 . S
H603 C584 0.913 . S
H604 C622 0.951 . S
H605 C624 0.951 . S
H606 C626 0.950 . S
H607 C627 0.950 . S
H608 C629 0.950 . S
H609 C632 0.950 . S
H610 C633 0.950 . S
H611 C635 0.950 . S
H612 C636 0.950 . S
H613 C637 0.951 . S
H614 C639 0.951 . S
H615 C641 0.950 . S
H616 C642 0.950 . S
H617 C644 0.950 . S
H618 C647 0.950 . S
H619 C648 0.950 . S
H620 C650 0.950 . S
H621 C651 0.950 . S
C622 H604 0.951 . S
C622 C623 1.366 . S
C622 C624 1.388 . S
C623 C622 1.366 . S
C623 C627 1.385 . S
C624 H605 0.951 . S
C624 C622 1.388 . S
C624 C625 1.366 . S
C625 C624 1.366 . S
C625 C626 1.414 . S
C625 C628 1.499 . S
C626 H606 0.950 . S
C626 C625 1.414 . S
C626 C627 1.374 . S
C627 H607 0.950 . S
C627 C623 1.385 . S
C627 C626 1.374 . S
C628 C625 1.499 . S
C628 C629 1.373 . S
C628 C630 1.389 . S
C629 H608 0.950 . S
C629 C628 1.373 . S
C629 C645 1.377 . S
C630 C628 1.389 . S
C630 C631 1.524 . S
C630 C644 1.377 . S
C631 C630 1.524 . S
C631 C632 1.397 . S
C631 C636 1.363 . S
C632 H609 0.950 . S
C632 C631 1.397 . S
C632 C633 1.334 . S
C633 H610 0.950 . S
C633 C632 1.334 . S
C633 C634 1.287 . S
C634 C633 1.287 . S
C634 C635 1.524 . S
C634 H653 0.913 . S
C635 H611 0.950 . S
C635 C634 1.524 . S
C635 C636 1.415 . S
C636 H612 0.950 . S
C636 C631 1.363 . S
C636 C635 1.415 . S
C637 H613 0.951 . S
C637 C638 1.366 . S
C637 C639 1.388 . S
C638 C637 1.366 . S
C638 C642 1.385 . S
C639 H614 0.951 . S
C639 C637 1.388 . S
C639 C640 1.366 . S
C640 C639 1.366 . S
C640 C641 1.414 . S
C640 C643 1.499 . S
C641 H615 0.950 . S
C641 C640 1.414 . S
C641 C642 1.374 . S
C642 H616 0.950 . S
C642 C638 1.385 . S
C642 C641 1.374 . S
C643 C640 1.499 . S
C643 C644 1.373 . S
C643 C645 1.389 . S
C644 H617 0.950 . S
C644 C630 1.377 . S
C644 C643 1.373 . S
C645 C629 1.377 . S
C645 C643 1.389 . S
C645 C646 1.524 . S
C646 C645 1.524 . S
C646 C647 1.397 . S
C646 C651 1.363 . S
C647 H618 0.950 . S
C647 C646 1.397 . S
C647 C648 1.334 . S
C648 H619 0.950 . S
C648 C647 1.334 . S
C648 C649 1.287 . S
C649 C648 1.287 . S
C649 C650 1.524 . S
C649 H652 0.999 . S
C650 H620 0.950 . S
C650 C649 1.524 . S
C650 C651 1.415 . S
C651 H621 0.950 . S
C651 C646 1.363 . S
C651 C650 1.415 . S
H652 C649 0.999 . S
H653 C634 0.913 . S
H654 C672 0.951 . S
H655 C674 0.951 . S
H656 C676 0.950 . S
H657 C677 0.950 . S
H658 C679 0.950 . S
H659 C682 0.950 . S
H660 C683 0.950 . S
H661 C685 0.950 . S
H662 C686 0.950 . S
H663 C687 0.951 . S
H664 C689 0.951 . S
H665 C691 0.950 . S
H666 C692 0.950 . S
H667 C694 0.950 . S
H668 C697 0.950 . S
H669 C698 0.950 . S
H670 C700 0.950 . S
H671 C701 0.950 . S
C672 H654 0.951 . S
C672 C673 1.366 . S
C672 C674 1.388 . S
C673 C672 1.366 . S
C673 C677 1.385 . S
C674 H655 0.951 . S
C674 C672 1.388 . S
C674 C675 1.366 . S
C675 C674 1.366 . S
C675 C676 1.414 . S
C675 C678 1.499 . S
C676 H656 0.950 . S
C676 C675 1.414 . S
C676 C677 1.374 . S
C677 H657 0.950 . S
C677 C673 1.385 . S
C677 C676 1.374 . S
C678 C675 1.499 . S
C678 C679 1.373 . S
C678 C680 1.389 . S
C679 H658 0.950 . S
C679 C678 1.373 . S
C679 C695 1.377 . S
C680 C678 1.389 . S
C680 C681 1.524 . S
C680 C694 1.377 . S
C681 C680 1.524 . S
C681 C682 1.397 . S
C681 C686 1.363 . S
C682 H659 0.950 . S
C682 C681 1.397 . S
C682 C683 1.334 . S
C683 H660 0.950 . S
C683 C682 1.334 . S
C683 C684 1.287 . S
C684 C683 1.287 . S
C684 C685 1.524 . S
C684 H703 0.913 . S
C685 H661 0.950 . S
C685 C684 1.524 . S
C685 C686 1.415 . S
C686 H662 0.950 . S
C686 C681 1.363 . S
C686 C685 1.415 . S
C687 H663 0.951 . S
C687 C688 1.366 . S
C687 C689 1.388 . S
C688 C687 1.366 . S
C688 C692 1.385 . S
C689 H664 0.951 . S
C689 C687 1.388 . S
C689 C690 1.366 . S
C690 C689 1.366 . S
C690 C691 1.414 . S
C690 C693 1.499 . S
C691 H665 0.950 . S
C691 C690 1.414 . S
C691 C692 1.374 . S
C692 H666 0.950 . S
C692 C688 1.385 . S
C692 C691 1.374 . S
C693 C690 1.499 . S
C693 C694 1.373 . S
C693 C695 1.389 . S
C694 H667 0.950 . S
C694 C680 1.377 . S
C694 C693 1.373 . S
C695 C679 1.377 . S
C695 C693 1.389 . S
C695 C696 1.524 . S
C696 C695 1.524 . S
C696 C697 1.397 . S
C696 C701 1.363 . S
C697 H668 0.950 . S
C697 C696 1.397 . S
C697 C698 1.334 . S
C698 H669 0.950 . S
C698 C697 1.334 . S
C698 C699 1.287 . S
C699 C698 1.287 . S
C699 C700 1.524 . S
C699 H702 0.999 . S
C700 H670 0.950 . S
C700 C699 1.524 . S
C700 C701 1.415 . S
C701 H671 0.950 . S
C701 C696 1.363 . S
C701 C700 1.415 . S
H702 C699 0.999 . S
H703 C684 0.913 . S
H704 C722 0.951 . S
H705 C724 0.951 . S
H706 C726 0.950 . S
H707 C727 0.950 . S
H708 C729 0.950 . S
H709 C732 0.950 . S
H710 C733 0.950 . S
H711 C735 0.950 . S
H712 C736 0.950 . S
H713 C737 0.951 . S
H714 C739 0.951 . S
H715 C741 0.950 . S
H716 C742 0.950 . S
H717 C744 0.950 . S
H718 C747 0.950 . S
H719 C748 0.950 . S
H720 C750 0.950 . S
H721 C751 0.950 . S
C722 H704 0.951 . S
C722 C723 1.366 . S
C722 C724 1.388 . S
C723 C722 1.366 . S
C723 C727 1.385 . S
C724 H705 0.951 . S
C724 C722 1.388 . S
C724 C725 1.366 . S
C725 C724 1.366 . S
C725 C726 1.414 . S
C725 C728 1.499 . S
C726 H706 0.950 . S
C726 C725 1.414 . S
C726 C727 1.374 . S
C727 H707 0.950 . S
C727 C723 1.385 . S
C727 C726 1.374 . S
C728 C725 1.499 . S
C728 C729 1.373 . S
C728 C730 1.389 . S
C729 H708 0.950 . S
C729 C728 1.373 . S
C729 C745 1.377 . S
C730 C728 1.389 . S
C730 C731 1.524 . S
C730 C744 1.377 . S
C731 C730 1.524 . S
C731 C732 1.397 . S
C731 C736 1.363 . S
C732 H709 0.950 . S
C732 C731 1.397 . S
C732 C733 1.334 . S
C733 H710 0.950 . S
C733 C732 1.334 . S
C733 C734 1.287 . S
C734 C733 1.287 . S
C734 C735 1.524 . S
C734 H753 0.913 . S
C735 H711 0.950 . S
C735 C734 1.524 . S
C735 C736 1.415 . S
C736 H712 0.950 . S
C736 C731 1.363 . S
C736 C735 1.415 . S
C737 H713 0.951 . S
C737 C738 1.366 . S
C737 C739 1.388 . S
C738 C737 1.366 . S
C738 C742 1.385 . S
C739 H714 0.951 . S
C739 C737 1.388 . S
C739 C740 1.366 . S
C740 C739 1.366 . S
C740 C741 1.414 . S
C740 C743 1.499 . S
C741 H715 0.950 . S
C741 C740 1.414 . S
C741 C742 1.374 . S
C742 H716 0.950 . S
C742 C738 1.385 . S
C742 C741 1.374 . S
C743 C740 1.499 . S
C743 C744 1.373 . S
C743 C745 1.389 . S
C744 H717 0.950 . S
C744 C730 1.377 . S
C744 C743 1.373 . S
C745 C729 1.377 . S
C745 C743 1.389 . S
C745 C746 1.524 . S
C746 C745 1.524 . S
C746 C747 1.397 . S
C746 C751 1.363 . S
C747 H718 0.950 . S
C747 C746 1.397 . S
C747 C748 1.334 . S
C748 H719 0.950 . S
C748 C747 1.334 . S
C748 C749 1.287 . S
C749 C748 1.287 . S
C749 C750 1.524 . S
C749 H752 0.999 . S
C750 H720 0.950 . S
C750 C749 1.524 . S
C750 C751 1.415 . S
C751 H721 0.950 . S
C751 C746 1.363 . S
C751 C750 1.415 . S
H752 C749 0.999 . S
H753 C734 0.913 . S
H754 C772 0.951 . S
H755 C774 0.951 . S
H756 C776 0.950 . S
H757 C777 0.950 . S
H758 C779 0.950 . S
H759 C782 0.950 . S
H760 C783 0.950 . S
H761 C785 0.950 . S
H762 C786 0.950 . S
H763 C787 0.951 . S
H764 C789 0.951 . S
H765 C791 0.950 . S
H766 C792 0.950 . S
H767 C794 0.950 . S
H768 C797 0.950 . S
H769 C798 0.950 . S
H770 C800 0.950 . S
H771 C801 0.950 . S
C772 H754 0.951 . S
C772 C773 1.366 . S
C772 C774 1.388 . S
C773 C772 1.366 . S
C773 C777 1.385 . S
C774 H755 0.951 . S
C774 C772 1.388 . S
C774 C775 1.366 . S
C775 C774 1.366 . S
C775 C776 1.414 . S
C775 C778 1.499 . S
C776 H756 0.950 . S
C776 C775 1.414 . S
C776 C777 1.374 . S
C777 H757 0.950 . S
C777 C773 1.385 . S
C777 C776 1.374 . S
C778 C775 1.499 . S
C778 C779 1.373 . S
C778 C780 1.389 . S
C779 H758 0.950 . S
C779 C778 1.373 . S
C779 C795 1.377 . S
C780 C778 1.389 . S
C780 C781 1.524 . S
C780 C794 1.377 . S
C781 C780 1.524 . S
C781 C782 1.397 . S
C781 C786 1.363 . S
C782 H759 0.950 . S
C782 C781 1.397 . S
C782 C783 1.334 . S
C783 H760 0.950 . S
C783 C782 1.334 . S
C783 C784 1.287 . S
C784 C783 1.287 . S
C784 C785 1.524 . S
C784 H803 0.913 . S
C785 H761 0.950 . S
C785 C784 1.524 . S
C785 C786 1.415 . S
C786 H762 0.950 . S
C786 C781 1.363 . S
C786 C785 1.415 . S
C787 H763 0.951 . S
C787 C788 1.366 . S
C787 C789 1.388 . S
C788 C787 1.366 . S
C788 C792 1.385 . S
C789 H764 0.951 . S
C789 C787 1.388 . S
C789 C790 1.366 . S
C790 C789 1.366 . S
C790 C791 1.414 . S
C790 C793 1.499 . S
C791 H765 0.950 . S
C791 C790 1.414 . S
C791 C792 1.374 . S
C792 H766 0.950 . S
C792 C788 1.385 . S
C792 C791 1.374 . S
C793 C790 1.499 . S
C793 C794 1.373 . S
C793 C795 1.389 . S
C794 H767 0.950 . S
C794 C780 1.377 . S
C794 C793 1.373 . S
C795 C779 1.377 . S
C795 C793 1.389 . S
C795 C796 1.524 . S
C796 C795 1.524 . S
C796 C797 1.397 . S
C796 C801 1.363 . S
C797 H768 0.950 . S
C797 C796 1.397 . S
C797 C798 1.334 . S
C798 H769 0.950 . S
C798 C797 1.334 . S
C798 C799 1.287 . S
C799 C798 1.287 . S
C799 C800 1.524 . S
C799 H802 0.999 . S
C800 H770 0.950 . S
C800 C799 1.524 . S
C800 C801 1.415 . S
C801 H771 0.950 . S
C801 C796 1.363 . S
C801 C800 1.415 . S
H802 C799 0.999 . S
H803 C784 0.913 . S
H804 C822 0.951 . S
H805 C824 0.951 . S
H806 C826 0.950 . S
H807 C827 0.950 . S
H808 C829 0.950 . S
H809 C832 0.950 . S
H810 C833 0.950 . S
H811 C835 0.950 . S
H812 C836 0.950 . S
H813 C837 0.951 . S
H814 C839 0.951 . S
H815 C841 0.950 . S
H816 C842 0.950 . S
H817 C844 0.950 . S
H818 C847 0.950 . S
H819 C848 0.950 . S
H820 C850 0.950 . S
H821 C851 0.950 . S
C822 H804 0.951 . S
C822 C823 1.366 . S
C822 C824 1.388 . S
C823 C822 1.366 . S
C823 C827 1.385 . S
C824 H805 0.951 . S
C824 C822 1.388 . S
C824 C825 1.366 . S
C825 C824 1.366 . S
C825 C826 1.414 . S
C825 C828 1.499 . S
C826 H806 0.950 . S
C826 C825 1.414 . S
C826 C827 1.374 . S
C827 H807 0.950 . S
C827 C823 1.385 . S
C827 C826 1.374 . S
C828 C825 1.499 . S
C828 C829 1.373 . S
C828 C830 1.389 . S
C829 H808 0.950 . S
C829 C828 1.373 . S
C829 C845 1.377 . S
C830 C828 1.389 . S
C830 C831 1.524 . S
C830 C844 1.377 . S
C831 C830 1.524 . S
C831 C832 1.397 . S
C831 C836 1.363 . S
C832 H809 0.950 . S
C832 C831 1.397 . S
C832 C833 1.334 . S
C833 H810 0.950 . S
C833 C832 1.334 . S
C833 C834 1.287 . S
C834 C833 1.287 . S
C834 C835 1.524 . S
C834 H853 0.913 . S
C835 H811 0.950 . S
C835 C834 1.524 . S
C835 C836 1.415 . S
C836 H812 0.950 . S
C836 C831 1.363 . S
C836 C835 1.415 . S
C837 H813 0.951 . S
C837 C838 1.366 . S
C837 C839 1.388 . S
C838 C837 1.366 . S
C838 C842 1.385 . S
C839 H814 0.951 . S
C839 C837 1.388 . S
C839 C840 1.366 . S
C840 C839 1.366 . S
C840 C841 1.414 . S
C840 C843 1.499 . S
C841 H815 0.950 . S
C841 C840 1.414 . S
C841 C842 1.374 . S
C842 H816 0.950 . S
C842 C838 1.385 . S
C842 C841 1.374 . S
C843 C840 1.499 . S
C843 C844 1.373 . S
C843 C845 1.389 . S
C844 H817 0.950 . S
C844 C830 1.377 . S
C844 C843 1.373 . S
C845 C829 1.377 . S
C845 C843 1.389 . S
C845 C846 1.524 . S
C846 C845 1.524 . S
C846 C847 1.397 . S
C846 C851 1.363 . S
C847 H818 0.950 . S
C847 C846 1.397 . S
C847 C848 1.334 . S
C848 H819 0.950 . S
C848 C847 1.334 . S
C848 C849 1.287 . S
C849 C848 1.287 . S
C849 C850 1.524 . S
C849 H852 0.999 . S
C850 H820 0.950 . S
C850 C849 1.524 . S
C850 C851 1.415 . S
C851 H821 0.950 . S
C851 C846 1.363 . S
C851 C850 1.415 . S
H852 C849 0.999 . S
H853 C834 0.913 . S
H854 C872 0.951 . S
H855 C874 0.951 . S
H856 C876 0.950 . S
H857 C877 0.950 . S
H858 C879 0.950 . S
H859 C882 0.950 . S
H860 C883 0.950 . S
H861 C885 0.950 . S
H862 C886 0.950 . S
H863 C887 0.951 . S
H864 C889 0.951 . S
H865 C891 0.950 . S
H866 C892 0.950 . S
H867 C894 0.950 . S
H868 C897 0.950 . S
H869 C898 0.950 . S
H870 C900 0.950 . S
H871 C901 0.950 . S
C872 H854 0.951 . S
C872 C873 1.366 . S
C872 C874 1.388 . S
C873 C872 1.366 . S
C873 C877 1.385 . S
C874 H855 0.951 . S
C874 C872 1.388 . S
C874 C875 1.366 . S
C875 C874 1.366 . S
C875 C876 1.414 . S
C875 C878 1.499 . S
C876 H856 0.950 . S
C876 C875 1.414 . S
C876 C877 1.374 . S
C877 H857 0.950 . S
C877 C873 1.385 . S
C877 C876 1.374 . S
C878 C875 1.499 . S
C878 C879 1.373 . S
C878 C880 1.389 . S
C879 H858 0.950 . S
C879 C878 1.373 . S
C879 C895 1.377 . S
C880 C878 1.389 . S
C880 C881 1.524 . S
C880 C894 1.377 . S
C881 C880 1.524 . S
C881 C882 1.397 . S
C881 C886 1.363 . S
C882 H859 0.950 . S
C882 C881 1.397 . S
C882 C883 1.334 . S
C883 H860 0.950 . S
C883 C882 1.334 . S
C883 C884 1.287 . S
C884 C883 1.287 . S
C884 C885 1.524 . S
C884 H903 0.913 . S
C885 H861 0.950 . S
C885 C884 1.524 . S
C885 C886 1.415 . S
C886 H862 0.950 . S
C886 C881 1.363 . S
C886 C885 1.415 . S
C887 H863 0.951 . S
C887 C888 1.366 . S
C887 C889 1.388 . S
C888 C887 1.366 . S
C888 C892 1.385 . S
C889 H864 0.951 . S
C889 C887 1.388 . S
C889 C890 1.366 . S
C890 C889 1.366 . S
C890 C891 1.414 . S
C890 C893 1.499 . S
C891 H865 0.950 . S
C891 C890 1.414 . S
C891 C892 1.374 . S
C892 H866 0.950 . S
C892 C888 1.385 . S
C892 C891 1.374 . S
C893 C890 1.499 . S
C893 C894 1.373 . S
C893 C895 1.389 . S
C894 H867 0.950 . S
C894 C880 1.377 . S
C894 C893 1.373 . S
C895 C879 1.377 . S
C895 C893 1.389 . S
C895 C896 1.524 . S
C896 C895 1.524 . S
C896 C897 1.397 . S
C896 C901 1.363 . S
C897 H868 0.950 . S
C897 C896 1.397 . S
C897 C898 1.334 . S
C898 H869 0.950 . S
C898 C897 1.334 . S
C898 C899 1.287 . S
C899 C898 1.287 . S
C899 C900 1.524 . S
C899 H902 0.999 . S
C900 H870 0.950 . S
C900 C899 1.524 . S
C900 C901 1.415 . S
C901 H871 0.950 . S
C901 C896 1.363 . S
C901 C900 1.415 . S
H902 C899 0.999 . S
H903 C884 0.913 . S
H904 C922 0.951 . S
H905 C924 0.951 . S
H906 C926 0.950 . S
H907 C927 0.950 . S
H908 C929 0.950 . S
H909 C932 0.950 . S
H910 C933 0.950 . S
H911 C935 0.950 . S
H912 C936 0.950 . S
H913 C937 0.951 . S
H914 C939 0.951 . S
H915 C941 0.950 . S
H916 C942 0.950 . S
H917 C944 0.950 . S
H918 C947 0.950 . S
H919 C948 0.950 . S
H920 C950 0.950 . S
H921 C951 0.950 . S
C922 H904 0.951 . S
C922 C923 1.366 . S
C922 C924 1.388 . S
C923 C922 1.366 . S
C923 C927 1.385 . S
C924 H905 0.951 . S
C924 C922 1.388 . S
C924 C925 1.366 . S
C925 C924 1.366 . S
C925 C926 1.414 . S
C925 C928 1.499 . S
C926 H906 0.950 . S
C926 C925 1.414 . S
C926 C927 1.374 . S
C927 H907 0.950 . S
C927 C923 1.385 . S
C927 C926 1.374 . S
C928 C925 1.499 . S
C928 C929 1.373 . S
C928 C930 1.389 . S
C929 H908 0.950 . S
C929 C928 1.373 . S
C929 C945 1.377 . S
C930 C928 1.389 . S
C930 C931 1.524 . S
C930 C944 1.377 . S
C931 C930 1.524 . S
C931 C932 1.397 . S
C931 C936 1.363 . S
C932 H909 0.950 . S
C932 C931 1.397 . S
C932 C933 1.334 . S
C933 H910 0.950 . S
C933 C932 1.334 . S
C933 C934 1.287 . S
C934 C933 1.287 . S
C934 C935 1.524 . S
C934 H953 0.913 . S
C935 H911 0.950 . S
C935 C934 1.524 . S
C935 C936 1.415 . S
C936 H912 0.950 . S
C936 C931 1.363 . S
C936 C935 1.415 . S
C937 H913 0.951 . S
C937 C938 1.366 . S
C937 C939 1.388 . S
C938 C937 1.366 . S
C938 C942 1.385 . S
C939 H914 0.951 . S
C939 C937 1.388 . S
C939 C940 1.366 . S
C940 C939 1.366 . S
C940 C941 1.414 . S
C940 C943 1.499 . S
C941 H915 0.950 . S
C941 C940 1.414 . S
C941 C942 1.374 . S
C942 H916 0.950 . S
C942 C938 1.385 . S
C942 C941 1.374 . S
C943 C940 1.499 . S
C943 C944 1.373 . S
C943 C945 1.389 . S
C944 H917 0.950 . S
C944 C930 1.377 . S
C944 C943 1.373 . S
C945 C929 1.377 . S
C945 C943 1.389 . S
C945 C946 1.524 . S
C946 C945 1.524 . S
C946 C947 1.397 . S
C946 C951 1.363 . S
C947 H918 0.950 . S
C947 C946 1.397 . S
C947 C948 1.334 . S
C948 H919 0.950 . S
C948 C947 1.334 . S
C948 C949 1.287 . S
C949 C948 1.287 . S
C949 C950 1.524 . S
C949 H952 0.999 . S
C950 H920 0.950 . S
C950 C949 1.524 . S
C950 C951 1.415 . S
C951 H921 0.950 . S
C951 C946 1.363 . S
C951 C950 1.415 . S
H952 C949 0.999 . S
H953 C934 0.913 . S
H954 C972 0.951 . S
H955 C974 0.951 . S
H956 C976 0.950 . S
H957 C977 0.950 . S
H958 C979 0.950 . S
H959 C982 0.950 . S
H960 C983 0.950 . S
H961 C985 0.950 . S
H962 C986 0.950 . S
H963 C987 0.951 1_655 S
H964 C989 0.951 1_655 S
H965 C991 0.950 . S
H966 C992 0.950 . S
H967 C994 0.950 . S
H968 C997 0.950 . S
H969 C998 0.950 . S
H970 C1000 0.954 . S
H971 C1001 0.950 . S
C972 H954 0.951 . S
C972 C973 1.366 . S
C972 C974 1.388 . S
C973 C972 1.366 . S
C973 C977 1.385 1_455 S
C974 H955 0.951 . S
C974 C972 1.388 . S
C974 C975 1.366 . S
C975 C974 1.366 . S
C975 C976 1.414 1_455 S
C975 C978 1.499 . S
C976 H956 0.950 . S
C976 C975 1.414 1_655 S
C976 C977 1.374 . S
C977 H957 0.950 . S
C977 C973 1.385 1_655 S
C977 C976 1.374 . S
C978 C975 1.499 . S
C978 C979 1.373 . S
C978 C980 1.389 . S
C979 H958 0.950 . S
C979 C978 1.373 . S
C979 C995 1.377 . S
C980 C978 1.389 . S
C980 C981 1.524 . S
C980 C994 1.377 . S
C981 C980 1.524 . S
C981 C982 1.397 1_455 S
C981 C986 1.363 . S
C982 H959 0.950 . S
C982 C981 1.397 1_655 S
C982 C983 1.334 . S
C983 H960 0.950 . S
C983 C982 1.334 . S
C983 C984 1.287 1_655 S
C984 C983 1.287 1_455 S
C984 C985 1.524 . S
C984 H1003 0.913 . S
C985 H961 0.950 . S
C985 C984 1.524 . S
C985 C986 1.415 . S
C986 H962 0.950 . S
C986 C981 1.363 . S
C986 C985 1.415 . S
C987 H963 0.951 1_455 S
C987 C988 1.366 . S
C987 C989 1.388 1_556 S
C988 C987 1.366 . S
C988 C992 1.385 . S
C989 H964 0.951 1_455 S
C989 C987 1.388 1_554 S
C989 C990 1.366 . S
C990 C989 1.366 . S
C990 C991 1.414 . S
C990 C993 1.499 . S
C991 H965 0.950 . S
C991 C990 1.414 . S
C991 C992 1.374 1_554 S
C992 H966 0.950 . S
C992 C988 1.385 . S
C992 C991 1.374 1_556 S
C993 C990 1.499 . S
C993 C994 1.373 . S
C993 C995 1.389 . S
C994 H967 0.950 . S
C994 C980 1.377 . S
C994 C993 1.373 . S
C995 C979 1.377 . S
C995 C993 1.389 . S
C995 C996 1.524 . S
C996 C995 1.524 . S
C996 C997 1.397 . S
C996 C1001 1.363 1_455 S
C997 H968 0.950 . S
C997 C996 1.397 . S
C997 C998 1.334 . S
C998 H969 0.950 . S
C998 C997 1.334 . S
C998 C999 1.287 . S
C999 C998 1.287 . S
C999 C1000 1.510 1_455 S
C999 H1002 0.999 . S
C1000 H970 0.954 . S
C1000 C999 1.510 1_655 S
C1000 C1001 1.424 . S
C1001 H971 0.950 . S
C1001 C996 1.363 1_655 S
C1001 C1000 1.424 . S
H1002 C999 0.999 . S
H1003 C984 0.913 . S
H1004 C1022 0.951 . S
H1005 C1024 0.951 . S
H1006 C1026 0.950 . S
H1007 C1027 0.950 . S
H1008 C1029 0.950 . S
H1009 C1032 0.950 . S
H1010 C1033 0.950 . S
H1011 C1035 0.950 . S
H1012 C1036 0.950 . S
H1013 C1037 0.951 . S
H1014 C1039 0.951 . S
H1015 C1041 0.950 1_565 S
H1016 C1042 0.950 1_565 S
H1017 C1044 0.950 . S
H1018 C1047 0.950 . S
H1019 C1048 0.950 . S
H1020 C1050 0.950 . S
H1021 C1051 0.950 . S
C1022 H1004 0.951 . S
C1022 C1023 1.366 1_565 S
C1022 C1024 1.388 . S
C1023 C1022 1.366 1_545 S
C1023 C1027 1.385 . S
C1024 H1005 0.951 . S
C1024 C1022 1.388 . S
C1024 C1025 1.366 1_565 S
C1025 C1024 1.366 1_545 S
C1025 C1026 1.414 . S
C1025 C1028 1.499 . S
C1026 H1006 0.950 . S
C1026 C1025 1.414 . S
C1026 C1027 1.374 . S
C1027 H1007 0.950 . S
C1027 C1023 1.385 . S
C1027 C1026 1.374 . S
C1028 C1025 1.499 . S
C1028 C1029 1.373 . S
C1028 C1030 1.389 1_545 S
C1029 H1008 0.950 . S
C1029 C1028 1.373 . S
C1029 C1045 1.377 . S
C1030 C1028 1.389 1_565 S
C1030 C1031 1.524 . S
C1030 C1044 1.377 . S
C1031 C1030 1.524 . S
C1031 C1032 1.397 . S
C1031 C1036 1.363 . S
C1032 H1009 0.950 . S
C1032 C1031 1.397 . S
C1032 C1033 1.334 . S
C1033 H1010 0.950 . S
C1033 C1032 1.334 . S
C1033 C1034 1.287 . S
C1034 C1033 1.287 . S
C1034 C1035 1.524 . S
C1034 H1053 0.913 . S
C1035 H1011 0.950 . S
C1035 C1034 1.524 . S
C1035 C1036 1.415 . S
C1036 H1012 0.950 . S
C1036 C1031 1.363 . S
C1036 C1035 1.415 . S
C1037 H1013 0.951 . S
C1037 C1038 1.366 . S
C1037 C1039 1.388 . S
C1038 C1037 1.366 . S
C1038 C1042 1.385 . S
C1039 H1014 0.951 . S
C1039 C1037 1.388 . S
C1039 C1040 1.366 . S
C1040 C1039 1.366 . S
C1040 C1041 1.414 . S
C1040 C1043 1.499 . S
C1041 H1015 0.950 1_545 S
C1041 C1040 1.414 . S
C1041 C1042 1.374 . S
C1042 H1016 0.950 1_545 S
C1042 C1038 1.385 . S
C1042 C1041 1.374 . S
C1043 C1040 1.499 . S
C1043 C1044 1.373 1_545 S
C1043 C1045 1.389 . S
C1044 H1017 0.950 . S
C1044 C1030 1.377 . S
C1044 C1043 1.373 1_565 S
C1045 C1029 1.377 . S
C1045 C1043 1.389 . S
C1045 C1046 1.524 . S
C1046 C1045 1.524 . S
C1046 C1047 1.397 . S
C1046 C1051 1.363 . S
C1047 H1018 0.950 . S
C1047 C1046 1.397 . S
C1047 C1048 1.334 . S
C1048 H1019 0.950 . S
C1048 C1047 1.334 . S
C1048 C1049 1.287 . S
C1049 C1048 1.287 . S
C1049 C1050 1.524 . S
C1049 H1052 0.999 . S
C1050 H1020 0.950 . S
C1050 C1049 1.524 . S
C1050 C1051 1.415 . S
C1051 H1021 0.950 . S
C1051 C1046 1.363 . S
C1051 C1050 1.415 . S
H1052 C1049 0.999 . S
H1053 C1034 0.913 . S
H1054 C1072 0.951 . S
H1055 C1074 0.951 . S
H1056 C1076 0.950 . S
H1057 C1077 0.950 . S
H1058 C1079 0.950 . S
H1059 C1082 0.950 . S
H1060 C1083 0.950 . S
H1061 C1085 0.950 . S
H1062 C1086 0.950 . S
H1063 C1087 0.951 . S
H1064 C1089 0.951 . S
H1065 C1091 0.950 . S
H1066 C1092 0.950 . S
H1067 C1094 0.950 . S
H1068 C1097 0.950 . S
H1069 C1098 0.950 . S
H1070 C1100 0.950 . S
H1071 C1101 0.950 . S
C1072 H1054 0.951 . S
C1072 C1073 1.366 . S
C1072 C1074 1.388 . S
C1073 C1072 1.366 . S
C1073 C1077 1.385 . S
C1074 H1055 0.951 . S
C1074 C1072 1.388 . S
C1074 C1075 1.366 . S
C1075 C1074 1.366 . S
C1075 C1076 1.414 . S
C1075 C1078 1.499 . S
C1076 H1056 0.950 . S
C1076 C1075 1.414 . S
C1076 C1077 1.374 . S
C1077 H1057 0.950 . S
C1077 C1073 1.385 . S
C1077 C1076 1.374 . S
C1078 C1075 1.499 . S
C1078 C1079 1.373 . S
C1078 C1080 1.389 . S
C1079 H1058 0.950 . S
C1079 C1078 1.373 . S
C1079 C1095 1.377 . S
C1080 C1078 1.389 . S
C1080 C1081 1.524 . S
C1080 C1094 1.377 . S
C1081 C1080 1.524 . S
C1081 C1082 1.397 . S
C1081 C1086 1.363 . S
C1082 H1059 0.950 . S
C1082 C1081 1.397 . S
C1082 C1083 1.334 . S
C1083 H1060 0.950 . S
C1083 C1082 1.334 . S
C1083 C1084 1.287 . S
C1084 C1083 1.287 . S
C1084 C1085 1.524 . S
C1084 H1103 0.913 . S
C1085 H1061 0.950 . S
C1085 C1084 1.524 . S
C1085 C1086 1.415 . S
C1086 H1062 0.950 . S
C1086 C1081 1.363 . S
C1086 C1085 1.415 . S
C1087 H1063 0.951 . S
C1087 C1088 1.366 . S
C1087 C1089 1.388 . S
C1088 C1087 1.366 . S
C1088 C1092 1.385 . S
C1089 H1064 0.951 . S
C1089 C1087 1.388 . S
C1089 C1090 1.366 . S
C1090 C1089 1.366 . S
C1090 C1091 1.414 . S
C1090 C1093 1.499 . S
C1091 H1065 0.950 . S
C1091 C1090 1.414 . S
C1091 C1092 1.374 . S
C1092 H1066 0.950 . S
C1092 C1088 1.385 . S
C1092 C1091 1.374 . S
C1093 C1090 1.499 . S
C1093 C1094 1.373 . S
C1093 C1095 1.389 . S
C1094 H1067 0.950 . S
C1094 C1080 1.377 . S
C1094 C1093 1.373 . S
C1095 C1079 1.377 . S
C1095 C1093 1.389 . S
C1095 C1096 1.524 . S
C1096 C1095 1.524 . S
C1096 C1097 1.397 . S
C1096 C1101 1.363 . S
C1097 H1068 0.950 . S
C1097 C1096 1.397 . S
C1097 C1098 1.334 . S
C1098 H1069 0.950 . S
C1098 C1097 1.334 . S
C1098 C1099 1.287 . S
C1099 C1098 1.287 . S
C1099 C1100 1.524 . S
C1099 H1102 0.999 . S
C1100 H1070 0.950 . S
C1100 C1099 1.524 . S
C1100 C1101 1.415 . S
C1101 H1071 0.950 . S
C1101 C1096 1.363 . S
C1101 C1100 1.415 . S
H1102 C1099 0.999 . S
H1103 C1084 0.913 . S
H1104 C1122 0.951 . S
H1105 C1124 0.951 . S
H1106 C1126 0.950 . S
H1107 C1127 0.950 . S
H1108 C1129 0.950 . S
H1109 C1132 0.950 . S
H1110 C1133 0.950 1_545 S
H1111 C1135 0.950 . S
H1112 C1136 0.950 . S
H1113 C1137 0.951 . S
H1114 C1139 0.951 . S
H1115 C1141 0.950 . S
H1116 C1142 0.950 . S
H1117 C1144 0.950 . S
H1118 C1147 0.950 1_565 S
H1119 C1148 0.950 . S
H1120 C1150 0.950 . S
H1121 C1151 0.950 . S
C1122 H1104 0.951 . S
C1122 C1123 1.366 1_565 S
C1122 C1124 1.388 . S
C1123 C1122 1.366 1_545 S
C1123 C1127 1.385 . S
C1124 H1105 0.951 . S
C1124 C1122 1.388 . S
C1124 C1125 1.366 1_565 S
C1125 C1124 1.366 1_545 S
C1125 C1126 1.414 . S
C1125 C1128 1.499 . S
C1126 H1106 0.950 . S
C1126 C1125 1.414 . S
C1126 C1127 1.374 . S
C1127 H1107 0.950 . S
C1127 C1123 1.385 . S
C1127 C1126 1.374 . S
C1128 C1125 1.499 . S
C1128 C1129 1.373 . S
C1128 C1130 1.389 1_545 S
C1129 H1108 0.950 . S
C1129 C1128 1.373 . S
C1129 C1145 1.377 . S
C1130 C1128 1.389 1_565 S
C1130 C1131 1.524 . S
C1130 C1144 1.377 . S
C1131 C1130 1.524 . S
C1131 C1132 1.397 1_565 S
C1131 C1136 1.363 . S
C1132 H1109 0.950 . S
C1132 C1131 1.397 1_545 S
C1132 C1133 1.334 1_545 S
C1133 H1110 0.950 1_565 S
C1133 C1132 1.334 1_565 S
C1133 C1134 1.287 . S
C1134 C1133 1.287 . S
C1134 C1135 1.524 . S
C1134 H1153 0.913 . S
C1135 H1111 0.950 . S
C1135 C1134 1.524 . S
C1135 C1136 1.415 . S
C1136 H1112 0.950 . S
C1136 C1131 1.363 . S
C1136 C1135 1.415 . S
C1137 H1113 0.951 . S
C1137 C1138 1.366 . S
C1137 C1139 1.388 . S
C1138 C1137 1.366 . S
C1138 C1142 1.385 1_545 S
C1139 H1114 0.951 . S
C1139 C1137 1.388 . S
C1139 C1140 1.366 . S
C1140 C1139 1.366 . S
C1140 C1141 1.414 1_545 S
C1140 C1143 1.499 . S
C1141 H1115 0.950 . S
C1141 C1140 1.414 1_565 S
C1141 C1142 1.374 . S
C1142 H1116 0.950 . S
C1142 C1138 1.385 1_565 S
C1142 C1141 1.374 . S
C1143 C1140 1.499 . S
C1143 C1144 1.373 1_545 S
C1143 C1145 1.389 . S
C1144 H1117 0.950 . S
C1144 C1130 1.377 . S
C1144 C1143 1.373 1_565 S
C1145 C1129 1.377 . S
C1145 C1143 1.389 . S
C1145 C1146 1.524 . S
C1146 C1145 1.524 . S
C1146 C1147 1.397 . S
C1146 C1151 1.363 . S
C1147 H1118 0.950 1_545 S
C1147 C1146 1.397 . S
C1147 C1148 1.334 . S
C1148 H1119 0.950 . S
C1148 C1147 1.334 . S
C1148 C1149 1.287 . S
C1149 C1148 1.287 . S
C1149 C1150 1.524 . S
C1149 H1152 0.999 . S
C1150 H1120 0.950 . S
C1150 C1149 1.524 . S
C1150 C1151 1.415 . S
C1151 H1121 0.950 . S
C1151 C1146 1.363 . S
C1151 C1150 1.415 . S
H1152 C1149 0.999 . S
H1153 C1134 0.913 . S
H1154 C1172 0.951 . S
H1155 C1174 0.951 . S
H1156 C1176 0.950 . S
H1157 C1177 0.950 . S
H1158 C1179 0.950 . S
H1159 C1182 0.950 . S
H1160 C1183 0.950 . S
H1161 C1185 0.950 . S
H1162 C1186 0.950 . S
H1163 C1187 0.951 . S
H1164 C1189 0.951 . S
H1165 C1191 0.950 . S
H1166 C1192 0.950 . S
H1167 C1194 0.950 . S
H1168 C1197 0.950 . S
H1169 C1198 0.950 . S
H1170 C1200 0.950 . S
H1171 C1201 0.950 . S
C1172 H1154 0.951 . S
C1172 C1173 1.366 . S
C1172 C1174 1.388 . S
C1173 C1172 1.366 . S
C1173 C1177 1.385 . S
C1174 H1155 0.951 . S
C1174 C1172 1.388 . S
C1174 C1175 1.366 . S
C1175 C1174 1.366 . S
C1175 C1176 1.414 . S
C1175 C1178 1.499 . S
C1176 H1156 0.950 . S
C1176 C1175 1.414 . S
C1176 C1177 1.374 . S
C1177 H1157 0.950 . S
C1177 C1173 1.385 . S
C1177 C1176 1.374 . S
C1178 C1175 1.499 . S
C1178 C1179 1.373 . S
C1178 C1180 1.389 . S
C1179 H1158 0.950 . S
C1179 C1178 1.373 . S
C1179 C1195 1.377 . S
C1180 C1178 1.389 . S
C1180 C1181 1.524 . S
C1180 C1194 1.377 . S
C1181 C1180 1.524 . S
C1181 C1182 1.397 . S
C1181 C1186 1.363 . S
C1182 H1159 0.950 . S
C1182 C1181 1.397 . S
C1182 C1183 1.334 . S
C1183 H1160 0.950 . S
C1183 C1182 1.334 . S
C1183 C1184 1.287 . S
C1184 C1183 1.287 . S
C1184 C1185 1.524 . S
C1184 H1203 0.913 . S
C1185 H1161 0.950 . S
C1185 C1184 1.524 . S
C1185 C1186 1.415 . S
C1186 H1162 0.950 . S
C1186 C1181 1.363 . S
C1186 C1185 1.415 . S
C1187 H1163 0.951 . S
C1187 C1188 1.366 . S
C1187 C1189 1.388 1_554 S
C1188 C1187 1.366 . S
C1188 C1192 1.385 . S
C1189 H1164 0.951 . S
C1189 C1187 1.388 1_556 S
C1189 C1190 1.366 . S
C1190 C1189 1.366 . S
C1190 C1191 1.414 . S
C1190 C1193 1.499 . S
C1191 H1165 0.950 . S
C1191 C1190 1.414 . S
C1191 C1192 1.374 1_556 S
C1192 H1166 0.950 . S
C1192 C1188 1.385 . S
C1192 C1191 1.374 1_554 S
C1193 C1190 1.499 . S
C1193 C1194 1.373 . S
C1193 C1195 1.389 . S
C1194 H1167 0.950 . S
C1194 C1180 1.377 . S
C1194 C1193 1.373 . S
C1195 C1179 1.377 . S
C1195 C1193 1.389 . S
C1195 C1196 1.524 . S
C1196 C1195 1.524 . S
C1196 C1197 1.397 . S
C1196 C1201 1.363 . S
C1197 H1168 0.950 . S
C1197 C1196 1.397 . S
C1197 C1198 1.334 . S
C1198 H1169 0.950 . S
C1198 C1197 1.334 . S
C1198 C1199 1.287 . S
C1199 C1198 1.287 . S
C1199 C1200 1.524 . S
C1199 H1202 0.999 . S
C1200 H1170 0.950 . S
C1200 C1199 1.524 . S
C1200 C1201 1.415 . S
C1201 H1171 0.950 . S
C1201 C1196 1.363 . S
C1201 C1200 1.415 . S
H1202 C1199 0.999 . S
H1203 C1184 0.913 . S
H1204 C1222 0.951 . S
H1205 C1224 0.951 . S
H1206 C1226 0.950 . S
H1207 C1227 0.950 . S
H1208 C1229 0.950 . S
H1209 C1232 0.950 . S
H1210 C1233 0.950 . S
H1211 C1235 0.950 . S
H1212 C1236 0.950 . S
H1213 C1237 0.951 . S
H1214 C1239 0.951 . S
H1215 C1241 0.950 . S
H1216 C1242 0.950 . S
H1217 C1244 0.950 . S
H1218 C1247 0.950 . S
H1219 C1248 0.950 . S
H1220 C1250 0.950 . S
H1221 C1251 0.950 . S
C1222 H1204 0.951 . S
C1222 C1223 1.366 1_655 S
C1222 C1224 1.388 . S
C1223 C1222 1.366 1_455 S
C1223 C1227 1.385 . S
C1224 H1205 0.951 . S
C1224 C1222 1.388 . S
C1224 C1225 1.366 1_655 S
C1225 C1224 1.366 1_455 S
C1225 C1226 1.414 . S
C1225 C1228 1.499 . S
C1226 H1206 0.950 . S
C1226 C1225 1.414 . S
C1226 C1227 1.374 . S
C1227 H1207 0.950 . S
C1227 C1223 1.385 . S
C1227 C1226 1.374 . S
C1228 C1225 1.499 . S
C1228 C1229 1.373 . S
C1228 C1230 1.389 1_455 S
C1229 H1208 0.950 . S
C1229 C1228 1.373 . S
C1229 C1245 1.377 . S
C1230 C1228 1.389 1_655 S
C1230 C1231 1.524 . S
C1230 C1244 1.377 . S
C1231 C1230 1.524 . S
C1231 C1232 1.397 . S
C1231 C1236 1.363 . S
C1232 H1209 0.950 . S
C1232 C1231 1.397 . S
C1232 C1233 1.334 . S
C1233 H1210 0.950 . S
C1233 C1232 1.334 . S
C1233 C1234 1.287 . S
C1234 C1233 1.287 . S
C1234 C1235 1.524 . S
C1234 H1253 0.913 . S
C1235 H1211 0.950 . S
C1235 C1234 1.524 . S
C1235 C1236 1.415 . S
C1236 H1212 0.950 . S
C1236 C1231 1.363 . S
C1236 C1235 1.415 . S
C1237 H1213 0.951 . S
C1237 C1238 1.366 . S
C1237 C1239 1.388 . S
C1238 C1237 1.366 . S
C1238 C1242 1.385 1_455 S
C1239 H1214 0.951 . S
C1239 C1237 1.388 . S
C1239 C1240 1.366 . S
C1240 C1239 1.366 . S
C1240 C1241 1.414 1_455 S
C1240 C1243 1.499 . S
C1241 H1215 0.950 . S
C1241 C1240 1.414 1_655 S
C1241 C1242 1.374 . S
C1242 H1216 0.950 . S
C1242 C1238 1.385 1_655 S
C1242 C1241 1.374 . S
C1243 C1240 1.499 . S
C1243 C1244 1.373 1_455 S
C1243 C1245 1.389 . S
C1244 H1217 0.950 . S
C1244 C1230 1.377 . S
C1244 C1243 1.373 1_655 S
C1245 C1229 1.377 . S
C1245 C1243 1.389 . S
C1245 C1246 1.524 . S
C1246 C1245 1.524 . S
C1246 C1247 1.397 . S
C1246 C1251 1.363 . S
C1247 H1218 0.950 . S
C1247 C1246 1.397 . S
C1247 C1248 1.334 . S
C1248 H1219 0.950 . S
C1248 C1247 1.334 . S
C1248 C1249 1.287 . S
C1249 C1248 1.287 . S
C1249 C1250 1.524 . S
C1249 H1252 0.999 . S
C1250 H1220 0.950 . S
C1250 C1249 1.524 . S
C1250 C1251 1.415 . S
C1251 H1221 0.950 . S
C1251 C1246 1.363 . S
C1251 C1250 1.415 . S
H1252 C1249 0.999 . S
H1253 C1234 0.913 . S
C373 C12 2.875 . S
C388 C331 2.837 . S
C423 C52 2.857 . S
C438 C258 2.825 . S
C473 C111 2.923 . S
C488 C297 2.884 . S
C523 C31 3.072 . S
C538 C336 3.022 . S
C588 C253 3.034 . S
C573 C71 3.089 . S
C638 C292 2.966 . S
C623 C92 3.017 . S
C673 C48 0.406 . S
C688 C180 0.380 . S
C723 C109 0.434 . S
C738 C214 0.343 . S
C773 C29 0.398 . S
C788 C136 0.302 . S
C838 C175 0.248 . S
C823 C69 0.337 . S
C888 C219 0.253 . S
C873 C88 0.236 . S
C923 C8 0.256 . S
C938 C141 0.251 . S
C988 C199 1.103 . S
C973 C17 1.084 . S
C1023 C57 1.084 . S
C1038 C121 1.099 . S
C1073 C97 1.090 . S
C1088 C160 1.109 . S
C1138 C277 1.773 . S
C1123 C42 1.711 . S
C1188 C316 1.770 . S
C1173 C82 1.721 . S
C1223 C2 1.724 . S
C1238 C238 1.773 . S
