# Generated by pormake.
# Topology bwt, (3,3)-cn, num edge types: 1
# Building blocks:
#     Node 0, Type 0, BuildingBlock: OLANEW_clean_sbu_2, # of connection points: 3
#     Node 1, Type 0, BuildingBlock: OLANEW_clean_sbu_2, # of connection points: 3
#     Node 2, Type 0, BuildingBlock: OLANEW_clean_sbu_2, # of connection points: 3
#     Node 3, Type 0, BuildingBlock: OLANEW_clean_sbu_2, # of connection points: 3
#     Node 4, Type 0, BuildingBlock: OLANEW_clean_sbu_2, # of connection points: 3
#     Node 5, Type 0, BuildingBlock: OLANEW_clean_sbu_2, # of connection points: 3
#     Node 6, Type 0, BuildingBlock: OLANEW_clean_sbu_2, # of connection points: 3
#     Node 7, Type 0, BuildingBlock: OLANEW_clean_sbu_2, # of connection points: 3
#     Node 8, Type 0, BuildingBlock: OLANEW_clean_sbu_2, # of connection points: 3
#     Node 9, Type 0, BuildingBlock: OLANEW_clean_sbu_2, # of connection points: 3
#     Node 10, Type 0, BuildingBlock: OLANEW_clean_sbu_2, # of connection points: 3
#     Node 11, Type 0, BuildingBlock: OLANEW_clean_sbu_2, # of connection points: 3
#     Node 12, Type 0, BuildingBlock: OLANEW_clean_sbu_2, # of connection points: 3
#     Node 13, Type 0, BuildingBlock: OLANEW_clean_sbu_2, # of connection points: 3
#     Node 14, Type 0, BuildingBlock: OLANEW_clean_sbu_2, # of connection points: 3
#     Node 15, Type 0, BuildingBlock: OLANEW_clean_sbu_2, # of connection points: 3
#     Node 16, Type 0, BuildingBlock: OLANEW_clean_sbu_2, # of connection points: 3
#     Node 17, Type 0, BuildingBlock: OLANEW_clean_sbu_2, # of connection points: 3
#     Node 18, Type 0, BuildingBlock: OLANEW_clean_sbu_2, # of connection points: 3
#     Node 19, Type 0, BuildingBlock: OLANEW_clean_sbu_2, # of connection points: 3
#     Node 20, Type 0, BuildingBlock: OLANEW_clean_sbu_2, # of connection points: 3
#     Node 21, Type 0, BuildingBlock: OLANEW_clean_sbu_2, # of connection points: 3
#     Node 22, Type 0, BuildingBlock: OLANEW_clean_sbu_2, # of connection points: 3
#     Node 23, Type 0, BuildingBlock: OLANEW_clean_sbu_2, # of connection points: 3
#     Node 24, Type 1, BuildingBlock: BELTOD_clean_linker_0, # of connection points: 3
#     Node 25, Type 1, BuildingBlock: BELTOD_clean_linker_0, # of connection points: 3
#     Node 26, Type 1, BuildingBlock: BELTOD_clean_linker_0, # of connection points: 3
#     Node 27, Type 1, BuildingBlock: BELTOD_clean_linker_0, # of connection points: 3
#     Node 28, Type 1, BuildingBlock: BELTOD_clean_linker_0, # of connection points: 3
#     Node 29, Type 1, BuildingBlock: BELTOD_clean_linker_0, # of connection points: 3
#     Node 30, Type 1, BuildingBlock: BELTOD_clean_linker_0, # of connection points: 3
#     Node 31, Type 1, BuildingBlock: BELTOD_clean_linker_0, # of connection points: 3
#     Node 32, Type 1, BuildingBlock: BELTOD_clean_linker_0, # of connection points: 3
#     Node 33, Type 1, BuildingBlock: BELTOD_clean_linker_0, # of connection points: 3
#     Node 34, Type 1, BuildingBlock: BELTOD_clean_linker_0, # of connection points: 3
#     Node 35, Type 1, BuildingBlock: BELTOD_clean_linker_0, # of connection points: 3
#     Node 36, Type 1, BuildingBlock: BELTOD_clean_linker_0, # of connection points: 3
#     Node 37, Type 1, BuildingBlock: BELTOD_clean_linker_0, # of connection points: 3
#     Node 38, Type 1, BuildingBlock: BELTOD_clean_linker_0, # of connection points: 3
#     Node 39, Type 1, BuildingBlock: BELTOD_clean_linker_0, # of connection points: 3
#     Node 40, Type 1, BuildingBlock: BELTOD_clean_linker_0, # of connection points: 3
#     Node 41, Type 1, BuildingBlock: BELTOD_clean_linker_0, # of connection points: 3
#     Node 42, Type 1, BuildingBlock: BELTOD_clean_linker_0, # of connection points: 3
#     Node 43, Type 1, BuildingBlock: BELTOD_clean_linker_0, # of connection points: 3
#     Node 44, Type 1, BuildingBlock: BELTOD_clean_linker_0, # of connection points: 3
#     Node 45, Type 1, BuildingBlock: BELTOD_clean_linker_0, # of connection points: 3
#     Node 46, Type 1, BuildingBlock: BELTOD_clean_linker_0, # of connection points: 3
#     Node 47, Type 1, BuildingBlock: BELTOD_clean_linker_0, # of connection points: 3
#     Edge 48, Type (0, 1), BuildingBlock: AJUNOK_clean_linker_0, # of connection points: 2
#     Edge 49, Type (0, 1), BuildingBlock: AJUNOK_clean_linker_0, # of connection points: 2
#     Edge 50, Type (0, 1), BuildingBlock: AJUNOK_clean_linker_0, # of connection points: 2
#     Edge 51, Type (0, 1), BuildingBlock: AJUNOK_clean_linker_0, # of connection points: 2
#     Edge 52, Type (0, 1), BuildingBlock: AJUNOK_clean_linker_0, # of connection points: 2
#     Edge 53, Type (0, 1), BuildingBlock: AJUNOK_clean_linker_0, # of connection points: 2
#     Edge 54, Type (0, 1), BuildingBlock: AJUNOK_clean_linker_0, # of connection points: 2
#     Edge 55, Type (0, 1), BuildingBlock: AJUNOK_clean_linker_0, # of connection points: 2
#     Edge 56, Type (0, 1), BuildingBlock: AJUNOK_clean_linker_0, # of connection points: 2
#     Edge 57, Type (0, 1), BuildingBlock: AJUNOK_clean_linker_0, # of connection points: 2
#     Edge 58, Type (0, 1), BuildingBlock: AJUNOK_clean_linker_0, # of connection points: 2
#     Edge 59, Type (0, 1), BuildingBlock: AJUNOK_clean_linker_0, # of connection points: 2
#     Edge 60, Type (0, 1), BuildingBlock: AJUNOK_clean_linker_0, # of connection points: 2
#     Edge 61, Type (0, 1), BuildingBlock: AJUNOK_clean_linker_0, # of connection points: 2
#     Edge 62, Type (0, 1), BuildingBlock: AJUNOK_clean_linker_0, # of connection points: 2
#     Edge 63, Type (0, 1), BuildingBlock: AJUNOK_clean_linker_0, # of connection points: 2
#     Edge 64, Type (0, 1), BuildingBlock: AJUNOK_clean_linker_0, # of connection points: 2
#     Edge 65, Type (0, 1), BuildingBlock: AJUNOK_clean_linker_0, # of connection points: 2
#     Edge 66, Type (0, 1), BuildingBlock: AJUNOK_clean_linker_0, # of connection points: 2
#     Edge 67, Type (0, 1), BuildingBlock: AJUNOK_clean_linker_0, # of connection points: 2
#     Edge 68, Type (0, 1), BuildingBlock: AJUNOK_clean_linker_0, # of connection points: 2
#     Edge 69, Type (0, 1), BuildingBlock: AJUNOK_clean_linker_0, # of connection points: 2
#     Edge 70, Type (0, 1), BuildingBlock: AJUNOK_clean_linker_0, # of connection points: 2
#     Edge 71, Type (0, 1), BuildingBlock: AJUNOK_clean_linker_0, # of connection points: 2
#     Edge 72, Type (0, 1), BuildingBlock: AJUNOK_clean_linker_0, # of connection points: 2
#     Edge 73, Type (0, 1), BuildingBlock: AJUNOK_clean_linker_0, # of connection points: 2
#     Edge 74, Type (0, 1), BuildingBlock: AJUNOK_clean_linker_0, # of connection points: 2
#     Edge 75, Type (0, 1), BuildingBlock: AJUNOK_clean_linker_0, # of connection points: 2
#     Edge 76, Type (0, 1), BuildingBlock: AJUNOK_clean_linker_0, # of connection points: 2
#     Edge 77, Type (0, 1), BuildingBlock: AJUNOK_clean_linker_0, # of connection points: 2
#     Edge 78, Type (0, 1), BuildingBlock: AJUNOK_clean_linker_0, # of connection points: 2
#     Edge 79, Type (0, 1), BuildingBlock: AJUNOK_clean_linker_0, # of connection points: 2
#     Edge 80, Type (0, 1), BuildingBlock: AJUNOK_clean_linker_0, # of connection points: 2
#     Edge 81, Type (0, 1), BuildingBlock: AJUNOK_clean_linker_0, # of connection points: 2
#     Edge 82, Type (0, 1), BuildingBlock: AJUNOK_clean_linker_0, # of connection points: 2
#     Edge 83, Type (0, 1), BuildingBlock: AJUNOK_clean_linker_0, # of connection points: 2
#     Edge 84, Type (0, 1), BuildingBlock: AJUNOK_clean_linker_0, # of connection points: 2
#     Edge 85, Type (0, 1), BuildingBlock: AJUNOK_clean_linker_0, # of connection points: 2
#     Edge 86, Type (0, 1), BuildingBlock: AJUNOK_clean_linker_0, # of connection points: 2
#     Edge 87, Type (0, 1), BuildingBlock: AJUNOK_clean_linker_0, # of connection points: 2
#     Edge 88, Type (0, 1), BuildingBlock: AJUNOK_clean_linker_0, # of connection points: 2
#     Edge 89, Type (0, 1), BuildingBlock: AJUNOK_clean_linker_0, # of connection points: 2
#     Edge 90, Type (0, 1), BuildingBlock: AJUNOK_clean_linker_0, # of connection points: 2
#     Edge 91, Type (0, 1), BuildingBlock: AJUNOK_clean_linker_0, # of connection points: 2
#     Edge 92, Type (0, 1), BuildingBlock: AJUNOK_clean_linker_0, # of connection points: 2
#     Edge 93, Type (0, 1), BuildingBlock: AJUNOK_clean_linker_0, # of connection points: 2
#     Edge 94, Type (0, 1), BuildingBlock: AJUNOK_clean_linker_0, # of connection points: 2
#     Edge 95, Type (0, 1), BuildingBlock: AJUNOK_clean_linker_0, # of connection points: 2
#     Edge 96, Type (0, 1), BuildingBlock: AJUNOK_clean_linker_0, # of connection points: 2
#     Edge 97, Type (0, 1), BuildingBlock: AJUNOK_clean_linker_0, # of connection points: 2
#     Edge 98, Type (0, 1), BuildingBlock: AJUNOK_clean_linker_0, # of connection points: 2
#     Edge 99, Type (0, 1), BuildingBlock: AJUNOK_clean_linker_0, # of connection points: 2
#     Edge 100, Type (0, 1), BuildingBlock: AJUNOK_clean_linker_0, # of connection points: 2
#     Edge 101, Type (0, 1), BuildingBlock: AJUNOK_clean_linker_0, # of connection points: 2
#     Edge 102, Type (0, 1), BuildingBlock: AJUNOK_clean_linker_0, # of connection points: 2
#     Edge 103, Type (0, 1), BuildingBlock: AJUNOK_clean_linker_0, # of connection points: 2
#     Edge 104, Type (0, 1), BuildingBlock: AJUNOK_clean_linker_0, # of connection points: 2
#     Edge 105, Type (0, 1), BuildingBlock: AJUNOK_clean_linker_0, # of connection points: 2
#     Edge 106, Type (0, 1), BuildingBlock: AJUNOK_clean_linker_0, # of connection points: 2
#     Edge 107, Type (0, 1), BuildingBlock: AJUNOK_clean_linker_0, # of connection points: 2
#     Edge 108, Type (0, 1), BuildingBlock: AJUNOK_clean_linker_0, # of connection points: 2
#     Edge 109, Type (0, 1), BuildingBlock: AJUNOK_clean_linker_0, # of connection points: 2
#     Edge 110, Type (0, 1), BuildingBlock: AJUNOK_clean_linker_0, # of connection points: 2
#     Edge 111, Type (0, 1), BuildingBlock: AJUNOK_clean_linker_0, # of connection points: 2
#     Edge 112, Type (0, 1), BuildingBlock: AJUNOK_clean_linker_0, # of connection points: 2
#     Edge 113, Type (0, 1), BuildingBlock: AJUNOK_clean_linker_0, # of connection points: 2
#     Edge 114, Type (0, 1), BuildingBlock: AJUNOK_clean_linker_0, # of connection points: 2
#     Edge 115, Type (0, 1), BuildingBlock: AJUNOK_clean_linker_0, # of connection points: 2
#     Edge 116, Type (0, 1), BuildingBlock: AJUNOK_clean_linker_0, # of connection points: 2
#     Edge 117, Type (0, 1), BuildingBlock: AJUNOK_clean_linker_0, # of connection points: 2
#     Edge 118, Type (0, 1), BuildingBlock: AJUNOK_clean_linker_0, # of connection points: 2
#     Edge 119, Type (0, 1), BuildingBlock: AJUNOK_clean_linker_0, # of connection points: 2
# Relax obj value: 0.125
# Max RMSD: 0.130
# Mean RMSD: 0.086
data_MOF--net-bwt--node1-OLANEW_clean_sbu_2--node2-BELTOD_clean_linker_0--edge1-AJUNOK_clean_linker_0
_symmetry_space_group_name_H-M    P1
_symmetry_Int_Tables_number       1
_symmetry_cell_setting            triclinic
loop_
_symmetry_equiv_pos_as_xyz
'x, y, z'
_cell_length_a     51.967591
_cell_length_b     51.914322
_cell_length_c     51.964061
_cell_angle_alpha  93.354483
_cell_angle_beta   93.361665
_cell_angle_gamma 93.34603
loop_
_atom_site_label
_atom_site_type_symbol
_atom_site_fract_x
_atom_site_fract_y
_atom_site_fract_z
_atom_type_partial_charge
O0 O 0.2855 0.55014 0.31077 0.0
Cd1 Cd 0.27357 0.55337 0.26479 0.0
O2 O 0.28855 0.59212 0.31947 0.0
Cd3 Cd 0.29358 0.59621 0.27862 0.0
O4 O 0.32871 0.57801 0.26864 0.0
C5 C 0.34948 0.58941 0.27872 0.0
O6 O 0.3483 0.61222 0.29083 0.0
C7 C 0.28832 0.56935 0.32728 0.0
C8 C 0.21976 0.55064 0.25853 0.0
O9 O 0.23253 0.53033 0.25634 0.0
O10 O 0.23258 0.57246 0.26292 0.0
O11 O 0.22283 0.38683 0.72534 0.0
Cd12 Cd 0.23099 0.37488 0.68052 0.0
O13 O 0.18226 0.37205 0.72209 0.0
Cd14 Cd 0.17997 0.36683 0.68011 0.0
O15 O 0.14731 0.39091 0.67554 0.0
C16 C 0.12627 0.38161 0.68347 0.0
O17 O 0.12493 0.35743 0.68975 0.0
C18 C 0.20165 0.38232 0.73573 0.0
C19 C 0.2824 0.38998 0.67432 0.0
O20 O 0.26444 0.4056 0.67112 0.0
O21 O 0.27591 0.36677 0.67958 0.0
O22 O 0.77774 0.01145 0.68078 0.0
Cd23 Cd 0.77192 0.01012 0.72715 0.0
O24 O 0.76807 0.96983 0.67277 0.0
Cd25 Cd 0.78015 0.96546 0.71302 0.0
O26 O 0.81712 0.98604 0.725 0.0
C27 C 0.83667 0.97864 0.7137 0.0
O28 O 0.83416 0.95725 0.69871 0.0
C29 C 0.77255 0.9922 0.66462 0.0
C30 C 0.72003 0.01658 0.73529 0.0
O31 O 0.73666 0.0359 0.73663 0.0
O32 O 0.72812 0.99401 0.7307 0.0
O33 O 0.72887 0.00035 0.27034 0.0
Cd34 Cd 0.73761 0.99203 0.31583 0.0
O35 O 0.71369 0.0384 0.27808 0.0
Cd36 Cd 0.70419 0.02764 0.31647 0.0
O37 O 0.66589 0.00856 0.31859 0.0
C38 C 0.66236 0.98591 0.30785 0.0
O39 O 0.68249 0.97437 0.29972 0.0
C40 C 0.7212 0.02137 0.26212 0.0
C41 C 0.78881 0.97852 0.32123 0.0
O42 O 0.77025 0.96132 0.31595 0.0
O43 O 0.78302 0.00206 0.32489 0.0
O44 O 0.31678 0.2803 0.56166 0.0
Cd45 Cd 0.27204 0.26966 0.5714 0.0
O46 O 0.32798 0.29729 0.60064 0.0
Cd47 Cd 0.28813 0.30579 0.6066 0.0
O48 O 0.27877 0.34414 0.59523 0.0
C49 C 0.28095 0.34803 0.57151 0.0
O50 O 0.28502 0.32823 0.55566 0.0
C51 C 0.33429 0.28931 0.57844 0.0
C52 C 0.26378 0.21595 0.56452 0.0
O53 O 0.25908 0.23058 0.54601 0.0
O54 O 0.27154 0.22686 0.5866 0.0
O55 O 0.29663 0.75647 0.03899 0.0
Cd56 Cd 0.34019 0.77707 0.03951 0.0
O57 O 0.30799 0.72498 0.01276 0.0
Cd58 Cd 0.29818 0.68813 0.99074 0.0
O59 O 0.2817 0.65118 0.97302 0.0
C60 C 0.26071 0.64172 0.98096 0.0
O61 O 0.24982 0.65454 -0.00048 0.0
C62 C 0.29068 0.73591 0.02494 0.0
C63 C 0.33619 0.824 0.01649 0.0
O64 O 0.33911 0.80307 0.00292 0.0
O65 O 0.33597 0.82282 0.04104 0.0
O66 O 0.70978 0.22601 0.40963 0.0
Cd67 Cd 0.66607 0.23254 0.39189 0.0
O68 O 0.72217 0.21433 0.37128 0.0
Cd69 Cd 0.68282 0.20047 0.35858 0.0
O70 O 0.67837 0.16012 0.36815 0.0
C71 C 0.67812 0.15611 0.39202 0.0
O72 O 0.67647 0.17602 0.40853 0.0
C73 C 0.72781 0.22086 0.395 0.0
C74 C 0.65984 0.28562 0.39576 0.0
O75 O 0.65147 0.27097 0.41286 0.0
O76 O 0.67034 0.27504 0.37645 0.0
O77 O 0.67437 0.74072 0.98001 0.0
Cd78 Cd 0.71999 0.73445 0.974 0.0
O79 O 0.67437 0.78045 0.96732 0.0
Cd80 Cd 0.71557 0.78922 0.96427 0.0
O81 O 0.72736 0.82971 0.97485 0.0
C82 C 0.72636 0.8366 -0.00138 0.0
O83 O 0.72208 0.8186 0.01488 0.0
C84 C 0.6623 0.76061 0.97499 0.0
C85 C 0.72976 0.6841 0.98646 0.0
O86 O 0.73341 0.70317 0.00334 0.0
O87 O 0.72214 0.68898 0.96345 0.0
O88 O 0.5666 0.31125 0.27613 0.0
Cd89 Cd 0.58266 0.26862 0.26597 0.0
O90 O 0.6033 0.32552 0.29647 0.0
Cd91 Cd 0.61261 0.28616 0.30423 0.0
O92 O 0.59794 0.27256 0.33987 0.0
C93 C 0.57355 0.27251 0.34092 0.0
O94 O 0.55971 0.27679 0.31981 0.0
C95 C 0.581 0.32991 0.28693 0.0
C96 C 0.57786 0.25913 0.21245 0.0
O97 O 0.5604 0.25063 0.22677 0.0
O98 O 0.59795 0.2715 0.22354 0.0
O99 O 0.04314 0.28327 0.76532 0.0
Cd100 Cd 0.0454 0.32665 0.78661 0.0
O101 O 0.02306 0.29735 0.73107 0.0
Cd102 Cd 0.00072 0.2908 0.69402 0.0
O103 O 0.98031 0.27776 0.65725 0.0
C104 C 0.99101 0.28065 0.63616 0.0
O105 O 0.01426 0.29218 0.63684 0.0
C106 C 0.03224 0.2788 0.74285 0.0
C107 C 0.01818 0.32444 0.83122 0.0
O108 O 0.00691 0.32916 0.80956 0.0
O109 O 0.04254 0.32155 0.83187 0.0
O110 O 0.42839 0.71036 0.20721 0.0
Cd111 Cd 0.41014 0.66697 0.21447 0.0
O112 O 0.39698 0.72808 0.22699 0.0
Cd113 Cd 0.37309 0.69389 0.21233 0.0
O114 O 0.38121 0.69387 0.17151 0.0
C115 C 0.37887 0.71562 0.16186 0.0
O116 O 0.36874 0.734 0.1757 0.0
C117 C 0.41894 0.73028 0.21746 0.0
C118 C 0.41499 0.66176 0.26769 0.0
O119 O 0.43224 0.65401 0.25288 0.0
O120 O 0.39491 0.67097 0.25713 0.0
O121 O 0.96276 0.68547 0.75091 0.0
Cd122 Cd 0.96032 0.73165 0.7449 0.0
O123 O 0.97392 0.69137 0.79234 0.0
Cd124 Cd 0.97594 0.73337 0.79714 0.0
O125 O -0.00116 0.74129 0.83349 0.0
C126 C 0.99003 0.72988 0.85239 0.0
O127 O 0.96704 0.71776 0.84921 0.0
C128 C 0.96883 0.67624 0.77239 0.0
C129 C 0.97783 0.74109 0.6964 0.0
O130 O 0.99331 0.74299 0.71664 0.0
O131 O 0.95387 0.73549 0.69929 0.0
O132 O 0.7606 0.38542 0.64401 0.0
Cd133 Cd 0.76709 0.365 0.68486 0.0
O134 O 0.72948 0.40607 0.66087 0.0
Cd135 Cd 0.69588 0.42934 0.65918 0.0
O136 O 0.65789 0.44407 0.66342 0.0
C137 C 0.63842 0.42808 0.65939 0.0
O138 O 0.64223 0.40404 0.652 0.0
C139 C 0.74324 0.40154 0.6419 0.0
C140 C 0.81325 0.38479 0.71049 0.0
O141 O 0.81248 0.36438 0.69529 0.0
O142 O 0.79203 0.39559 0.71381 0.0
O143 O 0.72714 0.6298 0.25175 0.0
Cd144 Cd 0.72545 0.64889 0.29569 0.0
O145 O 0.7641 0.61285 0.26022 0.0
Cd146 Cd 0.79784 0.59157 0.25096 0.0
O147 O 0.83618 0.57641 0.25089 0.0
C148 C 0.85433 0.58996 0.26356 0.0
O149 O 0.84897 0.61197 0.27523 0.0
C150 C 0.74511 0.61607 0.24442 0.0
C151 C 0.6803 0.62797 0.31472 0.0
O152 O 0.68027 0.64846 0.30213 0.0
O153 O 0.70195 0.618 0.31929 0.0
O154 O 0.28 0.04144 0.30687 0.0
Cd155 Cd 0.28232 0.04152 0.26014 0.0
O156 O 0.24272 0.01906 0.30308 0.0
Cd157 Cd 0.20734 0.00129 0.31702 0.0
O158 O 0.16647 0.98857 0.31706 0.0
C159 C 0.15075 0.00269 0.30572 0.0
O160 O 0.16004 0.02382 0.29596 0.0
C161 C 0.26139 0.03003 0.31731 0.0
C162 C 0.32559 0.01595 0.246 0.0
O163 O 0.32704 0.04041 0.25147 0.0
O164 O 0.30352 0.00376 0.24678 0.0
O165 O 0.2198 0.95828 0.71787 0.0
Cd166 Cd 0.20602 0.96012 0.67233 0.0
O167 O 0.25451 0.98311 0.71267 0.0
Cd168 Cd 0.29176 0.00262 0.72615 0.0
O169 O 0.33156 0.01862 0.7329 0.0
C170 C 0.34928 0.00359 0.73832 0.0
O171 O 0.34283 0.97905 0.7408 0.0
C172 C 0.24034 0.97061 0.72736 0.0
C173 C 0.16004 0.98524 0.66805 0.0
O174 O 0.15983 0.9606 0.66872 0.0
O175 O 0.18203 -0.00209 0.66906 0.0
O176 O 0.6668 0.75853 0.39508 0.0
Cd177 Cd 0.70452 0.76968 0.37123 0.0
O178 O 0.68139 0.72043 0.39985 0.0
Cd179 Cd 0.68705 0.68117 0.41117 0.0
O180 O 0.72371 0.66656 0.39475 0.0
C181 C 0.7305 0.6436 0.38958 0.0
O182 O 0.72429 0.66721 0.39457 0.0
C183 C 0.66417 0.73631 0.40392 0.0
C184 C 0.72464 0.81882 0.38879 0.0
O185 O 0.70828 0.81566 0.36926 0.0
O186 O 0.73187 0.79863 0.39953 0.0
O187 O 0.70651 0.24932 0.94718 0.0
Cd188 Cd 0.66241 0.23094 0.94875 0.0
O189 O 0.70342 0.27182 0.98387 0.0
Cd190 Cd 0.72019 0.29574 0.01756 0.0
O191 O 0.74377 0.30279 0.05627 0.0
C192 C 0.75341 0.32305 0.06964 0.0
O193 O 0.74386 0.30224 0.05649 0.0
C194 C 0.71697 0.2642 0.96562 0.0
C195 C 0.66434 0.18443 0.97331 0.0
O196 O 0.66511 0.18483 0.94873 0.0
O197 O 0.66212 0.20596 0.98611 0.0
O198 O 0.25791 0.72623 0.63972 0.0
Cd199 Cd 0.29989 0.72609 0.66328 0.0
O200 O 0.26158 0.76702 0.63081 0.0
Cd201 Cd 0.25089 0.80116 0.61084 0.0
O202 O 0.24979 0.83844 0.59345 0.0
C203 C 0.26873 0.85463 0.59962 0.0
O204 O 0.28714 0.84802 0.61592 0.0
C205 C 0.24907 0.74514 0.62833 0.0
C206 C 0.32239 0.68379 0.64041 0.0
O207 O 0.30979 0.68152 0.66071 0.0
O208 O 0.32552 0.70637 0.6319 0.0
O209 O 0.31211 0.28784 0.05976 0.0
Cd210 Cd 0.26614 0.28541 0.0671 0.0
O211 O 0.30673 0.25203 0.03513 0.0
Cd212 Cd 0.31816 0.21805 0.01266 0.0
O213 O 0.31529 0.17841 0.99567 0.0
C214 C 0.29825 0.16358 0.00483 0.0
O215 O 0.28473 0.17313 0.02331 0.0
C216 C 0.3215 0.27081 0.04512 0.0
C217 C 0.24205 0.32083 0.03709 0.0
O218 O 0.25058 0.32713 0.06039 0.0
O219 O 0.24445 0.29758 0.0283 0.0
O220 O 0.37866 0.66053 0.76128 0.0
Cd221 Cd 0.36164 0.70272 0.77054 0.0
O222 O 0.39374 0.6733 0.72525 0.0
Cd223 Cd 0.4123 0.66716 0.68884 0.0
O224 O 0.42893 0.66903 0.65131 0.0
C225 C 0.41995 0.65509 0.63151 0.0
O226 O 0.4004 0.63834 0.63381 0.0
C227 C 0.39116 0.656 0.74138 0.0
C228 C 0.37917 0.72131 0.82033 0.0
O229 O 0.35721 0.70875 0.81618 0.0
O230 O 0.39256 0.72539 0.80087 0.0
O231 O 0.95905 0.71595 0.21971 0.0
Cd232 Cd 0.96477 0.67046 0.20842 0.0
O233 O 0.99132 0.71582 0.24875 0.0
Cd234 Cd 0.0156 0.73247 0.28207 0.0
O235 O 0.02997 0.73836 0.3224 0.0
C236 C 0.01536 0.72815 0.33825 0.0
O237 O 0.99357 0.71597 0.32911 0.0
C238 C 0.97389 0.72792 0.23731 0.0
C239 C 0.99267 0.66564 0.16436 0.0
O240 O 0.96795 0.66534 0.16271 0.0
O241 O 0.00415 0.66794 0.18697 0.0
O242 O 0.63856 0.25645 0.72661 0.0
Cd243 Cd 0.6564 0.30087 0.72579 0.0
O244 O 0.61977 0.26631 0.76226 0.0
Cd245 Cd 0.59696 0.25743 0.79505 0.0
O246 O 0.58038 0.25564 0.8326 0.0
C247 C 0.59411 0.26585 0.85199 0.0
O248 O 0.61714 0.27629 0.84826 0.0
C249 C 0.62344 0.25004 0.74381 0.0
C250 C 0.63244 0.31951 0.68202 0.0
O251 O 0.65511 0.3111 0.68133 0.0
O252 O 0.62177 0.32022 0.70363 0.0
O253 O 0.063 0.31182 0.28739 0.0
Cd254 Cd 0.06758 0.26526 0.28456 0.0
O255 O 0.03391 0.30671 0.25499 0.0
Cd256 Cd 0.00798 0.31947 0.22425 0.0
O257 O 0.98805 0.31884 0.18603 0.0
C258 C 0.99489 0.30156 0.16996 0.0
O259 O 0.01285 0.28638 0.17759 0.0
C260 C 0.04671 0.32146 0.27215 0.0
C261 C 0.03788 0.24306 0.32137 0.0
O262 O 0.06165 0.25047 0.32665 0.0
O263 O 0.02837 0.24565 0.29841 0.0
P264 P 0.34802 0.52625 0.51381 0.0
H265 H 0.37174 0.53868 0.56559 0.0
H266 H 0.36791 0.57485 0.59743 0.0
H267 H 0.31058 0.60589 0.54635 0.0
H268 H 0.31452 0.56993 0.5147 0.0
H269 H 0.36118 0.47273 0.50613 0.0
H270 H 0.34129 0.43195 0.51877 0.0
H271 H 0.28027 0.47314 0.55231 0.0
H272 H 0.30076 0.51407 0.54018 0.0
H273 H 0.36803 0.56126 0.47712 0.0
H274 H 0.3004 0.50989 0.48188 0.0
O275 O 0.37964 0.52271 0.51252 0.0
H276 H 0.35184 0.57285 0.4344 0.0
H277 H 0.284 0.52166 0.43933 0.0
C278 C 0.3438 0.55193 0.53764 0.0
C279 C 0.35826 0.55324 0.56136 0.0
C280 C 0.3559 0.57374 0.5796 0.0
C281 C 0.33899 0.59318 0.57429 0.0
C282 C 0.324 0.59133 0.55077 0.0
C283 C 0.32626 0.57078 0.53266 0.0
C284 C 0.33281 0.49641 0.52286 0.0
C285 C 0.34363 0.47301 0.51636 0.0
C286 C 0.33211 0.44971 0.52339 0.0
C287 C 0.30939 0.44939 0.53682 0.0
C288 C 0.29809 0.47285 0.54252 0.0
C289 C 0.30974 0.49621 0.53557 0.0
C290 C 0.33568 0.53438 0.48243 0.0
C291 C 0.3497 0.5525 0.46896 0.0
C292 C 0.34029 0.55933 0.44473 0.0
C293 C 0.31655 0.5483 0.43368 0.0
C294 C 0.30238 0.53038 0.44739 0.0
C295 C 0.31179 0.5236 0.47168 0.0
P296 P 0.17238 0.46107 0.92025 0.0
H297 H 0.15672 0.44422 0.97016 0.0
H298 H 0.17221 0.41095 -0.00207 0.0
H299 H 0.23126 0.39478 0.94523 0.0
H300 H 0.21573 0.42779 0.91757 0.0
H301 H 0.15447 0.51331 0.91906 0.0
H302 H 0.17557 0.55606 0.93131 0.0
H303 H 0.24672 0.52059 0.95071 0.0
H304 H 0.22567 0.47799 0.93806 0.0
H305 H 0.14941 0.41612 0.8901 0.0
H306 H 0.2054 0.47862 0.87943 0.0
O307 O 0.14081 0.46281 0.9238 0.0
H308 H 0.1574 0.39636 0.84767 0.0
H309 H 0.21294 0.45935 0.83662 0.0
C310 C 0.18468 0.43797 0.94153 0.0
C311 C 0.17297 0.43347 0.9646 0.0
C312 C 0.18185 0.41457 0.98045 0.0
C313 C 0.20254 0.39997 0.97337 0.0
C314 C 0.21483 0.40529 0.95074 0.0
C315 C 0.20602 0.42419 0.935 0.0
C316 C 0.18839 0.49248 0.92809 0.0
C317 C 0.17463 0.51475 0.92587 0.0
C318 C 0.18667 0.53914 0.93288 0.0
C319 C 0.21278 0.54164 0.94191 0.0
C320 C 0.22668 0.51928 0.94348 0.0
C321 C 0.2146 0.4949 0.93649 0.0
C322 C 0.17657 0.44893 0.88775 0.0
C323 C 0.16313 0.42578 0.87842 0.0
C324 C 0.16776 0.41449 0.85423 0.0
C325 C 0.18601 0.42615 0.83895 0.0
C326 C 0.19919 0.44962 0.84821 0.0
C327 C 0.19463 0.46084 0.87253 0.0
P328 P 0.77558 0.00591 0.4657 0.0
H329 H 0.78607 0.97988 0.41647 0.0
H330 H 0.77548 0.93574 0.39767 0.0
H331 H 0.735 0.9177 0.4652 0.0
H332 H 0.74554 0.96146 0.48384 0.0
H333 H 0.77557 0.06138 0.47489 0.0
H334 H 0.74855 0.09405 0.45747 0.0
H335 H 0.70148 0.03418 0.41268 0.0
H336 H 0.72882 0.00154 0.42994 0.0
H337 H 0.81589 0.00022 0.50621 0.0
H338 H 0.73413 0.01108 0.50112 0.0
O339 O 0.80542 0.01462 0.45792 0.0
H340 H 0.81498 -0.00192 0.55314 0.0
H341 H 0.7331 0.00853 0.5481 0.0
C342 C 0.76715 0.97377 0.4518 0.0
C343 C 0.77503 0.96635 0.42725 0.0
C344 C 0.76892 0.94125 0.41651 0.0
C345 C 0.75491 0.92327 0.43028 0.0
C346 C 0.7464 0.93103 0.45452 0.0
C347 C 0.75238 0.95611 0.46514 0.0
C348 C 0.75434 0.02913 0.45357 0.0
C349 C 0.75938 0.05528 0.46138 0.0
C350 C 0.74386 0.07389 0.45152 0.0
C351 C 0.72301 0.06665 0.43359 0.0
C352 C 0.71766 0.04032 0.42616 0.0
C353 C 0.73323 0.02166 0.43611 0.0
C354 C 0.77518 0.00631 0.50032 0.0
C355 C 0.79782 0.00248 0.51523 0.0
C356 C 0.7973 0.00123 0.54198 0.0
C357 C 0.77401 0.00335 0.55411 0.0
C358 C 0.75128 0.00694 0.53912 0.0
C359 C 0.7519 0.00855 0.5124 0.0
P360 P 0.66561 0.01273 0.06722 0.0
H361 H 0.64007 0.0272 0.0194 0.0
H362 H 0.64139 0.06736 -0.00311 0.0
H363 H 0.70266 0.0995 0.05115 0.0
H364 H 0.70096 0.05948 0.07384 0.0
H365 H 0.65349 0.95842 0.07272 0.0
H366 H 0.67204 0.91911 0.05626 0.0
H367 H 0.72708 0.96503 0.01628 0.0
H368 H 0.70797 0.00458 0.03261 0.0
H369 H 0.64409 0.0345 0.11366 0.0
H370 H 0.71643 0.00521 0.09257 0.0
O371 O 0.63385 0.00628 0.0682 0.0
H372 H 0.66044 0.0398 0.15883 0.0
H373 H 0.7331 0.0109 0.13777 0.0
C374 C 0.67003 0.04058 0.04855 0.0
C375 C 0.65395 0.04281 0.02629 0.0
C376 C 0.65476 0.06572 0.01342 0.0
C377 C 0.67173 0.08674 0.02263 0.0
C378 C 0.68891 0.08384 0.04406 0.0
C379 C 0.68806 0.06092 0.05694 0.0
C380 C 0.67896 0.9843 0.05337 0.0
C381 C 0.66934 0.96005 0.06015 0.0
C382 C 0.68012 0.93762 0.05094 0.0
C383 C 0.70094 0.93899 0.0349 0.0
C384 C 0.71078 0.96339 0.02827 0.0
C385 C 0.6999 0.98595 0.03756 0.0
C386 C 0.67885 0.01895 0.09991 0.0
C387 C 0.6636 0.02948 0.11872 0.0
C388 C 0.67308 0.03277 0.1445 0.0
C389 C 0.69811 0.02589 0.15181 0.0
C390 C 0.71369 0.01624 0.13269 0.0
C391 C 0.70418 0.01295 0.10689 0.0
P392 P 0.51576 0.34205 0.51652 0.0
H393 H 0.55898 0.37556 0.54063 0.0
H394 H 0.58769 0.37176 0.57912 0.0
H395 H 0.55275 0.29552 0.58813 0.0
H396 H 0.52355 0.29978 0.55024 0.0
H397 H 0.5078 0.35368 0.46277 0.0
H398 H 0.51869 0.33202 0.42236 0.0
H399 H 0.55019 0.27053 0.46447 0.0
H400 H 0.53997 0.29288 0.50513 0.0
H401 H 0.47994 0.36663 0.54939 0.0
H402 H 0.48353 0.29341 0.50646 0.0
O403 O 0.51523 0.37349 0.51151 0.0
H404 H 0.43843 0.35206 0.56503 0.0
H405 H 0.44214 0.27852 0.52246 0.0
C406 C 0.53903 0.33802 0.54273 0.0
C407 C 0.55766 0.35795 0.55076 0.0
C408 C 0.57419 0.35569 0.57263 0.0
C409 C 0.57249 0.33331 0.58656 0.0
C410 C 0.55434 0.31307 0.57788 0.0
C411 C 0.53774 0.31542 0.55617 0.0
C412 C 0.52346 0.32515 0.48698 0.0
C413 C 0.51704 0.33555 0.46337 0.0
C414 C 0.52293 0.32291 0.44022 0.0
C415 C 0.53488 0.29929 0.44018 0.0
C416 C 0.54094 0.28868 0.4639 0.0
C417 C 0.53516 0.30147 0.48714 0.0
C418 C 0.48452 0.33132 0.52638 0.0
C419 C 0.47171 0.34746 0.54324 0.0
C420 C 0.44818 0.33898 0.55244 0.0
C421 C 0.43724 0.31402 0.54522 0.0
C422 C 0.45014 0.29786 0.52829 0.0
C423 C 0.47373 0.30639 0.51907 0.0
P424 P 0.10078 0.65887 0.00146 0.0
H425 H 0.05917 0.62468 0.01751 0.0
H426 H 0.03369 0.62547 0.05567 0.0
H427 H 0.07825 0.69429 0.08673 0.0
H428 H 0.10394 0.69319 0.04864 0.0
H429 H 0.10233 0.65754 0.94557 0.0
H430 H 0.07757 0.67842 0.91197 0.0
H431 H 0.03516 0.71681 0.97041 0.0
H432 H 0.05995 0.69595 0.00395 0.0
H433 H 0.14561 0.64464 0.03244 0.0
H434 H 0.12637 0.70641 0.98407 0.0
O435 O 0.10361 0.62834 0.99059 0.0
H436 H 0.19026 0.66323 0.03876 0.0
H437 H 0.17078 0.72486 0.99028 0.0
C438 C 0.08373 0.65856 0.03055 0.0
C439 C 0.06366 0.63974 0.03269 0.0
C440 C 0.04895 0.64037 0.05434 0.0
C441 C 0.0539 0.66006 0.07403 0.0
C442 C 0.07417 0.67881 0.07189 0.0
C443 C 0.08887 0.67817 0.0502 0.0
C444 C 0.08265 0.67479 0.97716 0.0
C445 C 0.08774 0.67049 0.95114 0.0
C446 C 0.0738 0.68262 0.93202 0.0
C447 C 0.05461 0.69936 0.93868 0.0
C448 C 0.04984 0.70396 0.96482 0.0
C449 C 0.06394 0.69195 0.98395 0.0
C450 C 0.1328 0.67392 0.00753 0.0
C451 C 0.15096 0.66223 0.02331 0.0
C452 C 0.17635 0.67286 0.02697 0.0
C453 C 0.18392 0.69524 0.01472 0.0
C454 C 0.16548 0.70733 -0.00044 0.0
C455 C 0.14008 0.6968 0.99605 0.0
P456 P 0.91501 0.18794 0.46263 0.0
H457 H 0.96321 0.16718 0.44738 0.0
H458 H 0.99261 0.17819 0.41394 0.0
H459 H 0.94291 0.2374 0.39007 0.0
H460 H 0.91345 0.22608 0.42319 0.0
H461 H 0.91086 0.17671 0.51657 0.0
H462 H 0.92741 0.19968 0.55718 0.0
H463 H 0.95983 0.26149 0.51464 0.0
H464 H 0.9436 0.23822 0.47406 0.0
H465 H 0.87515 0.15967 0.42902 0.0
H466 H 0.884 0.2325 0.47397 0.0
O467 O 0.91544 0.15635 0.46695 0.0
H468 H 0.83161 0.16961 0.41381 0.0
H469 H 0.84054 0.24273 0.4585 0.0
C470 C 0.93595 0.19548 0.43743 0.0
C471 C 0.95856 0.18237 0.43479 0.0
C472 C 0.97542 0.18882 0.41586 0.0
C473 C 0.97005 0.20872 0.39951 0.0
C474 C 0.94737 0.22182 0.40226 0.0
C475 C 0.93053 0.21536 0.42118 0.0
C476 C 0.92642 0.20553 0.49234 0.0
C477 C 0.92151 0.19521 0.516 0.0
C478 C 0.93076 0.20846 0.53918 0.0
C479 C 0.94479 0.23244 0.53905 0.0
C480 C 0.94922 0.24296 0.51528 0.0
C481 C 0.93997 0.22967 0.4921 0.0
C482 C 0.88251 0.19504 0.45308 0.0
C483 C 0.8676 0.17768 0.43582 0.0
C484 C 0.84284 0.18347 0.42699 0.0
C485 C 0.83263 0.20683 0.43517 0.0
C486 C 0.84774 0.22435 0.45231 0.0
C487 C 0.87256 0.21853 0.46113 0.0
P488 P 0.46663 0.78116 0.00083 0.0
H489 H 0.42009 0.79764 0.97362 0.0
H490 H 0.39779 0.78335 0.93184 0.0
H491 H 0.45117 0.72334 0.92229 0.0
H492 H 0.47328 0.73753 0.96403 0.0
H493 H 0.46704 0.79939 0.05484 0.0
H494 H 0.44702 0.782 0.09217 0.0
H495 H 0.41814 0.71402 0.04502 0.0
H496 H 0.43856 0.73132 0.00781 0.0
H497 H 0.50119 0.79553 0.96184 0.0
H498 H 0.50593 0.75548 0.03222 0.0
O499 O 0.46387 0.81303 0.00415 0.0
H500 H 0.54658 0.78878 0.95569 0.0
H501 H 0.55175 0.74938 0.02661 0.0
C502 C 0.44866 0.76902 0.97156 0.0
C503 C 0.42685 0.78129 0.96261 0.0
C504 C 0.41406 0.77305 0.93886 0.0
C505 C 0.42292 0.75236 0.92386 0.0
C506 C 0.44418 0.73951 0.9334 0.0
C507 C 0.4568 0.74762 0.95719 0.0
C508 C 0.45384 0.76688 0.02849 0.0
C509 C 0.45655 0.78067 0.05258 0.0
C510 C 0.44509 0.77075 0.07385 0.0
C511 C 0.43092 0.74674 0.07142 0.0
C512 C 0.42912 0.73247 0.04748 0.0
C513 C 0.44062 0.74244 0.02617 0.0
C514 C 0.50021 0.77595 -0.0026 0.0
C515 C 0.51207 0.78532 0.97601 0.0
C516 C 0.538 0.7815 0.97255 0.0
C517 C 0.55269 0.76838 0.99056 0.0
C518 C 0.54078 0.75908 0.01213 0.0
C519 C 0.51466 0.76278 0.01548 0.0
P520 P 0.51742 0.51016 0.34263 0.0
H521 H 0.54497 0.54953 0.37871 0.0
H522 H 0.58282 0.57931 0.3745 0.0
H523 H 0.58776 0.54951 0.29581 0.0
H524 H 0.55045 0.51932 0.3002 0.0
H525 H 0.46281 0.49627 0.34627 0.0
H526 H 0.42356 0.51268 0.32664 0.0
H527 H 0.47001 0.56209 0.28116 0.0
H528 H 0.50909 0.54614 0.3012 0.0
H529 H 0.54661 0.47144 0.36714 0.0
H530 H 0.50814 0.48023 0.29265 0.0
O531 O 0.51138 0.50914 0.37376 0.0
H532 H 0.56102 0.42966 0.3516 0.0
H533 H 0.5229 0.43847 0.27679 0.0
C534 C 0.54497 0.53222 0.33975 0.0
C535 C 0.55425 0.54931 0.36059 0.0
C536 C 0.5758 0.56628 0.35823 0.0
C537 C 0.58791 0.56664 0.33482 0.0
C538 C 0.57852 0.5496 0.31398 0.0
C539 C 0.55732 0.53237 0.3165 0.0
C540 C 0.4889 0.52021 0.32555 0.0
C541 C 0.46453 0.51041 0.33185 0.0
C542 C 0.44211 0.5196 0.32042 0.0
C543 C 0.44374 0.53857 0.30224 0.0
C544 C 0.46821 0.54754 0.29518 0.0
C545 C 0.4906 0.53838 0.30667 0.0
C546 C 0.52579 0.47856 0.33125 0.0
C547 C 0.54099 0.4642 0.34752 0.0
C548 C 0.54941 0.44046 0.33856 0.0
C549 C 0.54293 0.43074 0.31305 0.0
C550 C 0.52776 0.44527 0.29668 0.0
C551 C 0.51933 0.4691 0.30571 0.0
P552 P 0.99484 0.09029 0.66316 0.0
H553 H 0.01235 0.05043 0.62744 0.0
H554 H 0.05049 0.02481 0.62836 0.0
H555 H 0.07608 0.0618 0.70279 0.0
H556 H 0.03791 0.0874 0.70178 0.0
H557 H 0.93909 0.09165 0.65454 0.0
H558 H 0.90276 0.06691 0.67107 0.0
H559 H 0.9559 0.02719 0.71938 0.0
H560 H 0.99223 0.05204 0.70286 0.0
H561 H 0.04007 0.12611 0.66293 0.0
H562 H 0.96608 0.12473 0.69654 0.0
O563 O 0.98628 0.0943 0.63227 0.0
H564 H 0.0503 0.16989 0.68207 0.0
H565 H 0.97576 0.16894 0.7148 0.0
C566 C 0.02269 0.07124 0.66423 0.0
C567 C 0.0262 0.05306 0.64393 0.0
C568 C 0.04785 0.0383 0.64456 0.0
C569 C 0.06619 0.04138 0.66565 0.0
C570 C 0.06233 0.05926 0.68621 0.0
C571 C 0.04061 0.07391 0.68561 0.0
C572 C 0.96834 0.07337 0.67712 0.0
C573 C 0.94292 0.07777 0.66884 0.0
C574 C 0.92219 0.06381 0.67846 0.0
C575 C 0.92657 0.04525 0.6966 0.0
C576 C 0.95205 0.04136 0.70538 0.0
C577 C 0.97279 0.05552 0.69589 0.0
C578 C 0.00255 0.12194 0.67872 0.0
C579 C 0.02607 0.13519 0.67453 0.0
C580 C 0.03175 0.16035 0.68518 0.0
C581 C 0.01369 0.17299 0.69966 0.0
C582 C 0.99012 0.15964 0.70385 0.0
C583 C 0.98455 0.13435 0.69338 0.0
P584 P 0.49118 0.92005 0.20668 0.0
H585 H 0.47115 0.96767 0.18843 0.0
H586 H 0.43217 0.99021 0.19735 0.0
H587 H 0.41259 0.93444 0.25265 0.0
H588 H 0.45129 0.91181 0.24343 0.0
H589 H 0.54604 0.92002 0.19888 0.0
H590 H 0.58462 0.93391 0.22645 0.0
H591 H 0.53677 0.95377 0.28899 0.0
H592 H 0.4981 0.9404 0.26099 0.0
H593 H 0.46264 0.88309 0.16995 0.0
H594 H 0.49935 0.88286 0.24655 0.0
O595 O 0.49797 0.9258 0.17647 0.0
H596 H 0.44731 0.8379 0.17235 0.0
H597 H 0.48432 0.83749 0.24892 0.0
C598 C 0.46375 0.93775 0.21483 0.0
C599 C 0.45845 0.9603 0.20246 0.0
C600 C 0.43626 0.97319 0.20761 0.0
C601 C 0.41912 0.96372 0.22527 0.0
C602 C 0.4251 0.94173 0.23841 0.0
C603 C 0.44727 0.92887 0.23325 0.0
C604 C 0.51924 0.92981 0.22768 0.0
C605 C 0.54383 0.92751 0.21847 0.0
C606 C 0.56586 0.93524 0.23432 0.0
C607 C 0.56371 0.94521 0.2598 0.0
C608 C 0.539 0.94671 0.26927 0.0
C609 C 0.51691 0.93902 0.25331 0.0
C610 C 0.48264 0.8861 0.2078 0.0
C611 C 0.46788 0.87313 0.18705 0.0
C612 C 0.45919 0.84731 0.18841 0.0
C613 C 0.46501 0.8341 0.21066 0.0
C614 C 0.47973 0.8472 0.23149 0.0
C615 C 0.48846 0.87304 0.23008 0.0
P616 P 0.98872 0.47772 0.77924 0.0
H617 H 0.96477 0.42816 0.79181 0.0
H618 H 0.92324 0.40519 0.77786 0.0
H619 H 0.90336 0.46893 0.73231 0.0
H620 H 0.94465 0.49182 0.74639 0.0
H621 H 0.04488 0.47864 0.78396 0.0
H622 H 0.07664 0.45893 0.75722 0.0
H623 H 0.01552 0.43084 0.70092 0.0
H624 H 0.98387 0.45051 0.72764 0.0
H625 H 0.96387 0.51448 0.81202 0.0
H626 H 0.00744 0.5162 0.74395 0.0
O627 O -0.00237 0.47104 0.80938 0.0
H628 H 0.95834 0.56084 0.81048 0.0
H629 H 0.00256 0.56279 0.74271 0.0
C630 C 0.9575 0.46187 0.77057 0.0
C631 C 0.9513 0.43728 0.77908 0.0
C632 C 0.92773 0.42412 0.77095 0.0
C633 C 0.91018 0.43532 0.75398 0.0
C634 C 0.91645 0.46002 0.74561 0.0
C635 C 0.94001 0.47311 0.75368 0.0
C636 C 0.01202 0.46561 0.75806 0.0
C637 C 0.03837 0.46849 0.76572 0.0
C638 C 0.05649 0.45743 0.75034 0.0
C639 C 0.04848 0.44345 0.72697 0.0
C640 C 0.02215 0.44145 0.71889 0.0
C641 C 0.00406 0.45264 0.73422 0.0
C642 C 0.98652 0.51208 0.77847 0.0
C643 C 0.9726 0.52496 0.797 0.0
C644 C 0.96951 0.55142 0.79614 0.0
C645 C 0.9804 0.56548 0.77673 0.0
C646 C 0.99404 0.55242 0.75792 0.0
C647 C -0.00298 0.52586 0.75874 0.0
P648 P 0.71588 0.47037 0.45959 0.0
H649 H 0.70429 0.45092 0.40602 0.0
H650 H 0.68415 0.40988 0.38689 0.0
H651 H 0.66619 0.38762 0.463 0.0
H652 H 0.6843 0.42897 0.48149 0.0
H653 H 0.72864 0.52153 0.48431 0.0
H654 H 0.72292 0.56435 0.46847 0.0
H655 H 0.67088 0.53031 0.40635 0.0
H656 H 0.67652 0.48751 0.42226 0.0
H657 H 0.75714 0.44462 0.48555 0.0
H658 H 0.68937 0.48286 0.50687 0.0
O659 O 0.74369 0.47057 0.44508 0.0
H660 H 0.76352 0.43063 0.52931 0.0
H661 H 0.69528 0.46825 0.55082 0.0
C662 C 0.696 0.44305 0.4452 0.0
C663 C 0.69515 0.43753 0.41842 0.0
C664 C 0.6838 0.41399 0.40754 0.0
C665 C 0.67349 0.39537 0.42335 0.0
C666 C 0.67324 0.40163 0.45005 0.0
C667 C 0.68405 0.42535 0.46079 0.0
C668 C 0.70307 0.50126 0.45449 0.0
C669 C 0.71504 0.52335 0.468 0.0
C670 C 0.71175 0.54785 0.45894 0.0
C671 C 0.69672 0.55052 0.43602 0.0
C672 C 0.6827 0.52868 0.42399 0.0
C673 C 0.68595 0.50419 0.43311 0.0
C674 C 0.72311 0.46524 0.49314 0.0
C675 C 0.74398 0.45057 0.49984 0.0
C676 C 0.74745 0.44232 0.52479 0.0
C677 C 0.7299 0.44832 0.54347 0.0
C678 C 0.70936 0.46371 0.53695 0.0
C679 C 0.70598 0.47209 0.51189 0.0
P680 P 0.70182 0.51229 0.06837 0.0
H681 H 0.67174 0.54053 0.0314 0.0
H682 H 0.68305 0.5788 0.00841 0.0
H683 H 0.76348 0.57288 0.03169 0.0
H684 H 0.75206 0.53422 0.05463 0.0
H685 H 0.71931 0.47698 0.1065 0.0
H686 H 0.73308 0.43294 0.10271 0.0
H687 H 0.72588 0.43381 0.01963 0.0
H688 H 0.7127 0.47863 0.02349 0.0
H689 H 0.67265 0.54313 0.10376 0.0
H690 H 0.75074 0.51989 0.09993 0.0
O691 O 0.66984 0.50629 0.06569 0.0
H692 H 0.68494 0.56855 0.14413 0.0
H693 H 0.76324 0.54564 0.14029 0.0
C694 C 0.71106 0.53455 0.04479 0.0
C695 C 0.69192 0.54685 0.03089 0.0
C696 C 0.69839 0.56879 0.01775 0.0
C697 C 0.72408 0.57899 0.01862 0.0
C698 C 0.74348 0.56557 0.03102 0.0
C699 C 0.737 0.54342 0.04397 0.0
C700 C 0.71594 0.48149 0.06527 0.0
C701 C 0.72152 0.46818 0.08743 0.0
C702 C 0.72918 0.44288 0.08527 0.0
C703 C 0.73063 0.4301 0.06089 0.0
C704 C 0.72494 0.44334 0.03863 0.0
C705 C 0.71767 0.46893 0.04083 0.0
C706 C 0.71063 0.52914 0.09919 0.0
C707 C 0.69239 0.5433 0.11172 0.0
C708 C 0.69951 0.55809 0.13461 0.0
C709 C 0.72511 0.55925 0.14517 0.0
C710 C 0.74337 0.54501 0.13259 0.0
C711 C 0.73623 0.53027 0.10961 0.0
P712 P 0.304 0.02912 0.51493 0.0
H713 H 0.32661 0.06976 0.55205 0.0
H714 H 0.31218 0.11192 0.56593 0.0
H715 H 0.23802 0.09262 0.52532 0.0
H716 H 0.25284 0.05053 0.51089 0.0
H717 H 0.32824 0.98049 0.51553 0.0
H718 H 0.31798 0.93991 0.53531 0.0
H719 H 0.24929 0.97105 0.56428 0.0
H720 H 0.2597 0.01189 0.54436 0.0
H721 H 0.3287 0.04955 0.47106 0.0
H722 H 0.25798 0.00612 0.4845 0.0
O723 O 0.33618 0.03305 0.51811 0.0
H724 H 0.31574 0.04917 0.42519 0.0
H725 H 0.2443 0.00658 0.43854 0.0
C726 C 0.29102 0.05726 0.52994 0.0
C727 C 0.30711 0.07439 0.54639 0.0
C728 C 0.29879 0.09847 0.55444 0.0
C729 C 0.27416 0.10579 0.54624 0.0
C730 C 0.25734 0.08776 0.53138 0.0
C731 C 0.26574 0.06365 0.52325 0.0
C732 C 0.29503 -0.00067 0.52896 0.0
C733 C 0.31098 0.97865 0.52616 0.0
C734 C 0.30511 0.95549 0.53744 0.0
C735 C 0.28294 0.95245 0.5514 0.0
C736 C 0.26644 0.97291 0.55349 0.0
C737 C 0.27245 0.99625 0.54228 0.0
C738 C 0.29456 0.02737 0.48103 0.0
C739 C 0.31043 0.03977 0.46408 0.0
C740 C 0.30286 0.03977 0.4379 0.0
C741 C 0.27905 0.02772 0.42819 0.0
C742 C 0.26299 0.01554 0.44532 0.0
C743 C 0.27074 0.01534 0.47157 0.0
P744 P 0.25474 0.97515 0.92748 0.0
H745 H 0.25443 0.95608 0.97868 0.0
H746 H 0.27774 0.92287 -0.0002 0.0
H747 H 0.32198 0.91184 0.93261 0.0
H748 H 0.29801 0.94472 0.91125 0.0
H749 H 0.22514 0.02065 0.93301 0.0
H750 H 0.23619 0.06482 0.95083 0.0
H751 H 0.31533 0.04598 0.96545 0.0
H752 H 0.30416 0.00161 0.94744 0.0
H753 H 0.2209 0.94793 0.88675 0.0
H754 H 0.29196 0.99573 0.89233 0.0
O755 O 0.22423 0.96841 0.93452 0.0
H756 H 0.22074 0.94639 0.83974 0.0
H757 H 0.29241 0.99353 0.84509 0.0
C758 C 0.27421 0.95255 0.94331 0.0
C759 C 0.26931 0.94667 0.96858 0.0
C760 C 0.28286 0.92789 0.98074 0.0
C761 C 0.30189 0.9149 0.96795 0.0
C762 C 0.30738 0.92149 0.94288 0.0
C763 C 0.29369 0.94027 0.93068 0.0
C764 C 0.26368 0.00775 0.9396 0.0
C765 C 0.24485 0.02596 0.94013 0.0
C766 C 0.25116 0.05115 0.95031 0.0
C767 C 0.27648 0.05857 0.95994 0.0
C768 C 0.29563 0.04062 0.95831 0.0
C769 C 0.28924 0.0153 0.94819 0.0
C770 C 0.25612 0.97245 0.89295 0.0
C771 C 0.23657 0.95799 0.87785 0.0
C772 C 0.2366 0.95695 0.85096 0.0
C773 C 0.25636 0.97016 0.8387 0.0
C774 C 0.27658 0.98371 0.85398 0.0
C775 C 0.27642 0.98489 0.88094 0.0
P776 P 0.47702 0.71457 0.45447 0.0
H777 H 0.42678 0.68785 0.43842 0.0
H778 H 0.40879 0.66892 0.39625 0.0
H779 H 0.48307 0.68278 0.36467 0.0
H780 H 0.50087 0.70069 0.40632 0.0
H781 H 0.46223 0.73932 0.50237 0.0
H782 H 0.4501 0.7229 0.54319 0.0
H783 H 0.46054 0.64499 0.51337 0.0
H784 H 0.47159 0.66163 0.47186 0.0
H785 H 0.51164 0.75647 0.43972 0.0
H786 H 0.51838 0.68067 0.46831 0.0
O787 O 0.46492 0.74351 0.45236 0.0
H788 H 0.5575 0.75917 0.43248 0.0
H789 H 0.5648 0.68359 0.46182 0.0
C790 C 0.46524 0.69541 0.42572 0.0
C791 C 0.4393 0.68609 0.42254 0.0
C792 C 0.42899 0.67556 0.3984 0.0
C793 C 0.44445 0.67462 0.37704 0.0
C794 C 0.47068 0.68293 0.38073 0.0
C795 C 0.48091 0.6933 0.40473 0.0
C796 C 0.46727 0.70163 0.48396 0.0
C797 C 0.46156 0.71866 0.50443 0.0
C798 C 0.45488 0.70927 0.52787 0.0
C799 C 0.45417 0.68263 0.53148 0.0
C800 C 0.46033 0.66556 0.511 0.0
C801 C 0.46678 0.67502 0.48735 0.0
C802 C 0.51166 0.71856 0.45496 0.0
C803 C 0.52314 0.74072 0.44521 0.0
C804 C 0.54942 0.74221 0.44104 0.0
C805 C 0.56475 0.72151 0.44644 0.0
C806 C 0.55339 0.69967 0.45713 0.0
C807 C 0.52696 0.69815 0.46119 0.0
P808 P 0.91543 0.25982 0.98238 0.0
H809 H 0.96248 0.24648 0.95864 0.0
H810 H 0.98664 0.26541 0.92473 0.0
H811 H 0.9349 0.32753 0.92238 0.0
H812 H 0.91034 0.30804 0.95598 0.0
H813 H 0.9182 0.2313 0.02886 0.0
H814 H 0.93575 0.24268 0.073 0.0
H815 H 0.95649 0.32005 0.05192 0.0
H816 H 0.93882 0.30853 0.00758 0.0
H817 H 0.87558 0.23957 0.94394 0.0
H818 H 0.88178 0.29451 0.0099 0.0
O819 O 0.91759 0.22799 0.97729 0.0
H820 H 0.82922 0.24505 0.93873 0.0
H821 H 0.8354 0.30044 0.00449 0.0
C822 C 0.93428 0.27551 0.95927 0.0
C823 C 0.95634 0.26418 0.95084 0.0
C824 C 0.97023 0.27511 0.93159 0.0
C825 C 0.9624 0.29771 0.9206 0.0
C826 C 0.94098 0.30975 0.93004 0.0
C827 C 0.92702 0.29871 0.94929 0.0
C828 C 0.92777 0.26891 0.01487 0.0
C829 C 0.92656 0.2507 0.03368 0.0
C830 C 0.93653 0.25721 0.05888 0.0
C831 C 0.9475 0.2822 0.06578 0.0
C832 C 0.94796 0.30071 0.0471 0.0
C833 C 0.9381 0.29409 0.02177 0.0
C834 C 0.88195 0.26623 0.97758 0.0
C835 C 0.86698 0.25306 0.9571 0.0
C836 C 0.84056 0.25643 0.95396 0.0
C837 C 0.82875 0.27332 0.97111 0.0
C838 C 0.84403 0.28725 0.99106 0.0
C839 C 0.8705 0.28383 0.99419 0.0
P840 P 0.06987 0.70796 0.52976 0.0
H841 H 0.02294 0.68571 0.55019 0.0
H842 H -0.00119 0.69854 0.58725 0.0
H843 H 0.04705 0.76933 0.5993 0.0
H844 H 0.07134 0.75626 0.56216 0.0
H845 H 0.09908 0.70892 0.48367 0.0
H846 H 0.08643 0.71716 0.43887 0.0
H847 H 0.01323 0.74212 0.46278 0.0
H848 H 0.02575 0.7335 0.50739 0.0
H849 H 0.10217 0.67973 0.5639 0.0
H850 H 0.10865 0.7511 0.52563 0.0
O851 O 0.06438 0.67596 0.52539 0.0
H852 H 0.14499 0.68933 0.58521 0.0
H853 H 0.15204 0.76072 0.54679 0.0
C854 C 0.04924 0.71979 0.55381 0.0
C855 C 0.02807 0.70419 0.5605 0.0
C856 C 0.01413 0.71166 0.58155 0.0
C857 C 0.02106 0.73496 0.59613 0.0
C858 C 0.0414 0.75123 0.58845 0.0
C859 C 0.05528 0.74377 0.56728 0.0
C860 C 0.0635 0.72088 0.49887 0.0
C861 C 0.08063 0.71691 0.47937 0.0
C862 C 0.07339 0.72157 0.45381 0.0
C863 C 0.04873 0.72993 0.44739 0.0
C864 C 0.03221 0.73532 0.46721 0.0
C865 C 0.03946 0.73063 0.49274 0.0
C866 C 0.10263 0.7143 0.5426 0.0
C867 C 0.1131 0.69719 0.55961 0.0
C868 C 0.13758 0.70269 0.57177 0.0
C869 C 0.15202 0.72551 0.56723 0.0
C870 C 0.14136 0.74288 0.55042 0.0
C871 C 0.11676 0.73731 0.53818 0.0
P872 P 0.51887 0.30227 0.0308 0.0
H873 H 0.57039 0.28681 0.04707 0.0
H874 H 0.58748 0.26999 0.08743 0.0
H875 H 0.51038 0.26473 0.11434 0.0
H876 H 0.49356 0.28086 0.07437 0.0
H877 H 0.53598 0.33311 0.98945 0.0
H878 H 0.55406 0.3222 0.94818 0.0
H879 H 0.54961 0.24147 0.96422 0.0
H880 H 0.53176 0.25256 0.00602 0.0
H881 H 0.47768 0.33499 0.04535 0.0
H882 H 0.48399 0.25858 0.00986 0.0
O883 O 0.52682 0.33348 0.03863 0.0
H884 H 0.43111 0.32648 0.0467 0.0
H885 H 0.43724 0.2499 0.01136 0.0
C886 C 0.53065 0.2846 0.0574 0.0
C887 C 0.55712 0.28118 0.06134 0.0
C888 C 0.56686 0.27171 0.08442 0.0
C889 C 0.55022 0.26565 0.10391 0.0
C890 C 0.52363 0.26839 0.09944 0.0
C891 C 0.51397 0.27781 0.07649 0.0
C892 C 0.53289 0.29367 0.00092 0.0
C893 C 0.53909 0.31307 0.98429 0.0
C894 C 0.54939 0.30685 0.9607 0.0
C895 C 0.5532 0.28104 0.95312 0.0
C896 C 0.54669 0.26151 0.96964 0.0
C897 C 0.53662 0.26782 0.99347 0.0
C898 C 0.48425 0.29759 0.02707 0.0
C899 C 0.469 0.3166 0.03728 0.0
C900 C 0.44242 0.31165 0.03826 0.0
C901 C 0.43063 0.28756 0.02911 0.0
C902 C 0.44581 0.26877 0.01818 0.0
C903 C 0.47249 0.27373 0.01728 0.0
P904 P 0.46235 0.47302 0.7284 0.0
H905 H 0.43555 0.42373 0.7382 0.0
H906 H 0.39511 0.40197 0.71976 0.0
H907 H 0.3892 0.45978 0.66358 0.0
H908 H 0.42954 0.48167 0.68231 0.0
H909 H 0.51586 0.48658 0.74501 0.0
H910 H 0.55659 0.47775 0.72585 0.0
H911 H 0.51419 0.4436 0.65705 0.0
H912 H 0.47355 0.45186 0.67654 0.0
H913 H 0.43598 0.50204 0.76723 0.0
H914 H 0.46942 0.51629 0.69502 0.0
O915 O 0.46689 0.46272 0.75807 0.0
H916 H 0.42055 0.5456 0.76939 0.0
H917 H 0.45321 0.55972 0.69657 0.0
C918 C 0.43521 0.45461 0.71198 0.0
C919 C 0.42579 0.43151 0.72167 0.0
C920 C 0.40281 0.41892 0.71093 0.0
C921 C 0.38904 0.4292 0.69021 0.0
C922 C 0.39938 0.45155 0.67962 0.0
C923 C 0.42236 0.46409 0.69037 0.0
C924 C 0.49176 0.46941 0.71242 0.0
C925 C 0.51536 0.47734 0.72573 0.0
C926 C 0.53859 0.47242 0.71472 0.0
C927 C 0.53852 0.45957 0.69016 0.0
C928 C 0.51478 0.45297 0.67627 0.0
C929 C 0.49154 0.45781 0.68736 0.0
C930 C 0.45432 0.5062 0.73127 0.0
C931 C 0.44036 0.51472 0.75204 0.0
C932 C 0.43131 0.53951 0.75311 0.0
C933 C 0.43577 0.55612 0.73321 0.0
C934 C 0.44996 0.54757 0.71246 0.0
C935 C 0.45919 0.52277 0.71152 0.0
P936 P 0.96286 0.92727 0.25859 0.0
H937 H 0.9375 0.97553 0.26203 0.0
H938 H 0.89875 0.9882 0.28263 0.0
H939 H 0.89446 0.91574 0.3195 0.0
H940 H 0.93298 0.90293 0.29833 0.0
H941 H 0.00638 0.9441 0.22988 0.0
H942 H 0.04951 0.9633 0.24296 0.0
H943 H 0.03214 0.96129 0.32305 0.0
H944 H 0.98853 0.94216 0.30978 0.0
H945 H 0.93704 0.88657 0.22378 0.0
H946 H 0.98994 0.89172 0.29127 0.0
O947 O 0.95551 0.93577 0.22867 0.0
H948 H 0.93864 0.83961 0.22104 0.0
H949 H 0.99111 0.84453 0.28903 0.0
C950 C 0.93785 0.93818 0.27832 0.0
C951 C 0.92852 0.9626 0.27497 0.0
C952 C 0.90648 0.9699 0.28695 0.0
C953 C 0.89357 0.95298 0.30277 0.0
C954 C 0.90393 0.92911 0.30731 0.0
C955 C 0.92597 0.92179 0.29522 0.0
C956 C 0.9941 0.94229 0.26885 0.0
C957 C 0.01164 0.9481 0.25025 0.0
C958 C 0.03627 0.95907 0.25772 0.0
C959 C 0.04392 0.96412 0.28397 0.0
C960 C 0.02655 0.95774 0.30269 0.0
C961 C 0.0017 0.94697 0.29514 0.0
C962 C 0.96378 0.89264 0.2574 0.0
C963 C 0.94893 0.87758 0.23808 0.0
C964 C 0.94961 0.8507 0.23673 0.0
C965 C 0.96481 0.83838 0.25498 0.0
C966 C 0.97932 0.85354 0.27464 0.0
C967 C 0.97869 0.88048 0.27591 0.0
P968 P 0.53519 0.06684 0.70147 0.0
H969 H 0.56665 0.02868 0.67684 0.0
H970 H 0.60887 0.01381 0.68983 0.0
H971 H 0.60464 0.05152 0.76562 0.0
H972 H 0.56238 0.06669 0.7524 0.0
H973 H 0.48379 0.08094 0.68667 0.0
H974 H 0.44106 0.06694 0.69958 0.0
H975 H 0.47627 0.02205 0.75803 0.0
H976 H 0.51906 0.03533 0.74418 0.0
H977 H 0.56686 0.10249 0.67404 0.0
H978 H 0.52805 0.10377 0.74515 0.0
O979 O 0.53146 0.06139 0.66945 0.0
H980 H 0.58664 0.14571 0.68586 0.0
H981 H 0.5483 0.14696 0.75742 0.0
C982 C 0.56151 0.04903 0.71357 0.0
C983 C 0.5744 0.03317 0.69648 0.0
C984 C 0.59855 0.02463 0.70394 0.0
C985 C 0.61021 0.03197 0.72855 0.0
C986 C 0.59627 0.04602 0.74636 0.0
C987 C 0.57207 0.05452 0.73889 0.0
C988 C 0.50451 0.05888 0.71419 0.0
C989 C 0.48231 0.0682 0.70237 0.0
C990 C 0.45791 0.0603 0.70989 0.0
C991 C 0.45525 0.04305 0.72956 0.0
C992 C 0.47767 0.03482 0.74235 0.0
C993 C 0.50216 0.04257 0.73461 0.0
C994 C 0.54547 0.10027 0.7084 0.0
C995 C 0.56214 0.11234 0.69195 0.0
C996 C 0.57369 0.13688 0.69887 0.0
C997 C 0.56897 0.1497 0.72253 0.0
C998 C 0.55192 0.13771 0.73887 0.0
C999 C 0.54032 0.1131 0.73187 0.0
P1000 P 0.03391 0.51931 0.30819 0.0
H1001 H 0.07648 0.55656 0.32596 0.0
H1002 H 0.11842 0.56627 0.30886 0.0
H1003 H 0.09407 0.52038 0.23871 0.0
H1004 H 0.05233 0.50997 0.25631 0.0
H1005 H 0.98967 0.53284 0.33657 0.0
H1006 H 0.94836 0.54995 0.32393 0.0
H1007 H 0.9701 0.55125 0.2451 0.0
H1008 H 0.01186 0.53435 0.25792 0.0
H1009 H 0.0596 0.47912 0.33421 0.0
H1010 H 0.00647 0.48381 0.26794 0.0
O1011 O 0.03914 0.52573 0.33999 0.0
H1012 H 0.06132 0.4327 0.32445 0.0
H1013 H 0.00867 0.4374 0.25765 0.0
C1014 C 0.06146 0.53216 0.29261 0.0
C1015 C 0.07992 0.54895 0.3067 0.0
C1016 C 0.10389 0.5546 0.29685 0.0
C1017 C 0.10973 0.54359 0.27269 0.0
C1018 C 0.09033 0.52859 0.25767 0.0
C1019 C 0.06639 0.52282 0.26762 0.0
C1020 C 0.00403 0.53273 0.29827 0.0
C1021 C 0.98577 0.53703 0.3166 0.0
C1022 C 0.96215 0.54676 0.30939 0.0
C1023 C 0.95615 0.55191 0.28359 0.0
C1024 C 0.97429 0.5473 0.2651 0.0
C1025 C -0.00184 0.53781 0.27243 0.0
C1026 C 0.0324 0.48478 0.3022 0.0
C1027 C 0.04798 0.47008 0.31778 0.0
C1028 C 0.04916 0.44361 0.31203 0.0
C1029 C 0.035 0.4314 0.29038 0.0
C1030 C 0.01936 0.44619 0.27476 0.0
C1031 C 0.01812 0.47272 0.28062 0.0
C1032 C 0.17776 0.5711 0.26401 0.0
C1033 C 0.19109 0.54884 0.25811 0.0
C1034 C 0.15115 0.56947 0.26739 0.0
C1035 C 0.13678 0.54556 0.26483 0.0
H1036 H 0.18808 0.58987 0.26704 0.0
H1037 H 0.14189 0.58698 0.27281 0.0
S1038 S 0.16191 0.4817 0.24776 0.0
N1039 N 0.18738 0.50229 0.24816 0.0
N1040 N 0.13755 0.49926 0.25493 0.0
C1041 C 0.14957 0.52332 0.2577 0.0
C1042 C 0.17666 0.52496 0.25425 0.0
C1043 C 0.31649 0.42603 0.67775 0.0
C1044 C 0.30989 0.39932 0.67444 0.0
C1045 C 0.34227 0.43552 0.6815 0.0
C1046 C 0.36249 0.41867 0.68209 0.0
H1047 H 0.30161 0.43977 0.67859 0.0
H1048 H 0.34628 0.45615 0.68525 0.0
S1049 S 0.35593 0.3474 0.67034 0.0
N1050 N 0.3259 0.35631 0.66912 0.0
N1051 N 0.37449 0.37428 0.67614 0.0
C1052 C 0.35633 0.39204 0.67728 0.0
C1053 C 0.33001 0.38233 0.67345 0.0
C1054 C 0.67379 -0.00052 0.73053 0.0
C1055 C 0.69205 0.02031 0.73714 0.0
C1056 C 0.64722 0.00311 0.72892 0.0
C1057 C 0.63789 0.02761 0.73416 0.0
H1058 H 0.68003 0.98037 0.72559 0.0
H1059 H 0.6339 0.98675 0.72286 0.0
S1060 S 0.67732 0.08823 0.7538 0.0
N1061 N 0.69865 0.06613 0.75032 0.0
N1062 N 0.6488 0.07287 0.7471 0.0
C1063 C 0.6558 0.04837 0.74188 0.0
C1064 C 0.68285 0.04474 0.74341 0.0
C1065 C 0.82165 0.94656 0.31153 0.0
C1066 C 0.81612 0.97158 0.32068 0.0
C1067 C 0.84695 0.94037 0.30711 0.0
C1068 C 0.8678 0.95892 0.31173 0.0
H1069 H 0.80621 0.93186 0.30661 0.0
H1070 H 0.85 0.92127 0.29874 0.0
S1071 S 0.86444 0.02595 0.33963 0.0
N1072 N 0.83411 0.01421 0.33693 0.0
N1073 N 0.88172 0.00237 0.32884 0.0
C1074 C 0.86283 0.98348 0.32246 0.0
C1075 C 0.83701 0.98985 0.32692 0.0
C1076 C 0.26994 0.17194 0.5804 0.0
C1077 C 0.26242 0.18733 0.56014 0.0
C1078 C 0.27242 0.14532 0.57606 0.0
C1079 C 0.26735 0.13296 0.55132 0.0
H1080 H 0.2749 0.18064 0.59964 0.0
H1081 H 0.27911 0.13444 0.59205 0.0
S1082 S 0.24535 0.16392 0.49199 0.0
N1083 N 0.2483 0.18773 0.51465 0.0
N1084 N 0.25336 0.13784 0.5065 0.0
C1085 C 0.25861 0.14781 0.53115 0.0
C1086 C 0.25606 0.17493 0.53555 0.0
C1087 C 0.3232 0.84728 0.97747 0.0
C1088 C 0.33102 0.84827 0.00393 0.0
C1089 C 0.3149 0.86922 0.96573 0.0
C1090 C 0.31423 0.89305 0.97995 0.0
H1091 H 0.32238 0.82916 0.96591 0.0
H1092 H 0.30783 0.86718 0.94564 0.0
S1093 S 0.33657 0.90699 0.04874 0.0
N1094 N 0.34014 0.87578 0.04335 0.0
N1095 N 0.32496 0.9171 0.02109 0.0
C1096 C 0.32349 0.89471 0.00601 0.0
C1097 C 0.3318 0.87232 0.01803 0.0
C1098 C 0.67946 0.32954 0.38929 0.0
C1099 C 0.65996 0.31411 0.3996 0.0
C1100 C 0.68278 0.35611 0.39595 0.0
C1101 C 0.66642 0.36841 0.41283 0.0
H1102 H 0.69328 0.32083 0.37717 0.0
H1103 H 0.69922 0.36674 0.38893 0.0
S1104 S 0.60924 0.33741 0.44096 0.0
N1105 N 0.62228 0.31344 0.42515 0.0
N1106 N 0.62754 0.36365 0.4365 0.0
C1107 C 0.64551 0.35352 0.42154 0.0
C1108 C 0.64253 0.32633 0.41522 0.0
C1109 C 0.72175 0.63637 0.97678 0.0
C1110 C 0.73216 0.65704 0.99373 0.0
C1111 C 0.72036 0.6109 0.98447 0.0
C1112 C 0.7297 0.60506 0.00925 0.0
H1113 H 0.71352 0.63997 0.95778 0.0
H1114 H 0.71118 0.59576 0.97121 0.0
S1115 S 0.76068 0.6516 0.06029 0.0
N1116 N 0.75353 0.66952 0.03595 0.0
N1117 N 0.75088 0.62168 0.05029 0.0
C1118 C 0.74139 0.62526 0.02591 0.0
C1119 C 0.74262 0.65124 0.01819 0.0
C1120 C 0.58705 0.27476 0.16917 0.0
C1121 C 0.57378 0.25703 0.18392 0.0
C1122 C 0.58048 0.27625 0.14277 0.0
C1123 C 0.56053 0.25992 0.1301 0.0
H1124 H 0.60162 0.28865 0.17833 0.0
H1125 H 0.59003 0.29138 0.13265 0.0
S1126 S 0.52342 0.20674 0.15879 0.0
N1127 N 0.54217 0.22049 0.18314 0.0
N1128 N 0.53022 0.22296 0.13338 0.0
C1129 C 0.54861 0.24069 0.14414 0.0
C1130 C 0.55513 0.23932 0.17107 0.0
C1131 C 0.0166 0.31623 0.87809 0.0
C1132 C 0.00341 0.32077 0.8545 0.0
C1133 C 0.00319 0.30982 0.89967 0.0
C1134 C 0.97604 0.30773 0.89857 0.0
H1135 H 0.03751 0.31695 0.8798 0.0
H1136 H 0.01418 0.30593 0.91724 0.0
S1137 S 0.93218 0.31868 0.84185 0.0
N1138 N 0.96146 0.3238 0.83175 0.0
N1139 N 0.93635 0.31135 0.87223 0.0
C1140 C 0.96256 0.31312 0.87544 0.0
C1141 C 0.97621 0.31972 0.85344 0.0
C1142 C 0.44027 0.64931 0.30697 0.0
C1143 C 0.41929 0.66185 0.2962 0.0
C1144 C 0.44707 0.65194 0.33351 0.0
C1145 C 0.43339 0.66749 0.35035 0.0
H1146 H 0.4521 0.63797 0.29473 0.0
H1147 H 0.46389 0.64258 0.34075 0.0
S1148 S 0.37573 0.703 0.33226 0.0
N1149 N 0.3836 0.68881 0.30482 0.0
N1150 N 0.39698 0.69449 0.35456 0.0
C1151 C 0.41152 0.67901 0.34009 0.0
C1152 C 0.40436 0.67607 0.31305 0.0
C1153 C 0.01458 0.74708 0.6679 0.0
C1154 C 0.9878 0.74328 0.67036 0.0
C1155 C 0.02502 0.74576 0.64366 0.0
C1156 C 0.00912 0.74056 0.6209 0.0
H1157 H 0.02778 0.7501 0.68488 0.0
H1158 H 0.04583 0.74753 0.64285 0.0
S1159 S 0.93761 0.73281 0.6162 0.0
N1160 N 0.94539 0.73674 0.64752 0.0
N1161 N 0.9652 0.73434 0.60197 0.0
C1162 C 0.98225 0.73826 0.62288 0.0
C1163 C 0.97155 0.73965 0.64758 0.0
C1164 C 0.8389 0.42124 0.7354 0.0
C1165 C 0.838 0.39632 0.72299 0.0
C1166 C 0.86225 0.4335 0.74578 0.0
C1167 C 0.88556 0.42122 0.74441 0.0
H1168 H 0.82153 0.4317 0.73664 0.0
H1169 H 0.8621 0.45284 0.7548 0.0
S1170 S 0.89387 0.35573 0.71481 0.0
N1171 N 0.86261 0.35952 0.71063 0.0
N1172 N 0.90646 0.38271 0.73014 0.0
C1173 C 0.88495 0.3961 0.73267 0.0
C1174 C 0.86119 0.38363 0.72194 0.0
C1175 C 0.65644 0.59623 0.34057 0.0
C1176 C 0.65588 0.61495 0.322 0.0
C1177 C 0.63404 0.58144 0.34558 0.0
C1178 C 0.61046 0.5846 0.33188 0.0
H1179 H 0.67442 0.59253 0.35087 0.0
H1180 H 0.63539 0.56673 0.35948 0.0
S1181 S 0.59799 0.63177 0.28258 0.0
N1182 N 0.62911 0.63669 0.29099 0.0
N1183 N 0.58726 0.60842 0.30017 0.0
C1184 C 0.60934 0.60373 0.31398 0.0
C1185 C 0.63199 0.61907 0.30913 0.0
C1186 C 0.37316 0.01604 0.2404 0.0
C1187 C 0.34894 0.00222 0.23972 0.0
C1188 C 0.3957 0.00352 0.23549 0.0
C1189 C 0.39495 0.97667 0.22984 0.0
H1190 H 0.37483 0.03671 0.24501 0.0
H1191 H 0.41394 0.01488 0.23656 0.0
S1192 S 0.33649 0.93168 0.22393 0.0
N1193 N 0.32561 0.96015 0.2318 0.0
N1194 N 0.368 0.93679 0.22245 0.0
C1195 C 0.3709 0.96264 0.22862 0.0
C1196 C 0.34791 0.97537 0.23356 0.0
C1197 C 0.13671 0.02604 0.67074 0.0
C1198 C 0.13571 -0.00109 0.66683 0.0
C1199 C 0.11414 0.03954 0.67045 0.0
C1200 C 0.08969 0.0265 0.66598 0.0
H1201 H 0.15508 0.03702 0.67429 0.0
H1202 H 0.11586 0.06041 0.67352 0.0
S1203 S 0.07613 0.95569 0.65484 0.0
N1204 N 0.10794 0.9595 0.65844 0.0
N1205 N 0.06558 0.98504 0.65787 0.0
C1206 C 0.0883 -0.00055 0.66193 0.0
C1207 C 0.11128 0.98562 0.66239 0.0
C1208 C 0.72889 0.86669 0.38485 0.0
C1209 C 0.73411 0.84512 0.39912 0.0
C1210 C 0.73629 0.8919 0.39476 0.0
C1211 C 0.74889 0.89647 0.4194 0.0
H1212 H 0.71876 0.86415 0.36597 0.0
H1213 H 0.73149 0.90797 0.38335 0.0
S1214 S 0.76844 0.84697 0.46403 0.0
N1215 N 0.75377 0.83019 0.43884 0.0
N1216 N 0.76752 0.87761 0.45734 0.0
C1217 C 0.75478 0.87518 0.43363 0.0
C1218 C 0.74746 0.8495 0.42351 0.0
C1219 C 0.66866 0.13648 0.97177 0.0
C1220 C 0.66633 0.15984 0.98644 0.0
C1221 C 0.67063 0.11299 0.98358 0.0
C1222 C 0.67056 0.11194 0.01055 0.0
H1223 H 0.6689 0.13624 0.95093 0.0
H1224 H 0.67236 0.09552 0.97151 0.0
S1225 S 0.66412 0.16721 0.05784 0.0
N1226 N 0.6637 0.18018 0.02958 0.0
N1227 N 0.66722 0.13604 0.0516 0.0
C1228 C 0.66822 0.13506 0.02548 0.0
C1229 C 0.66614 0.15898 0.01349 0.0
C1230 C 0.33606 0.66287 0.59943 0.0
C1231 C 0.33035 0.66074 0.62539 0.0
C1232 C 0.3394 0.64095 0.5833 0.0
C1233 C 0.33754 0.61603 0.59254 0.0
H1234 H 0.33685 0.68151 0.59109 0.0
H1235 H 0.34304 0.6435 0.56326 0.0
S1236 S 0.32579 0.59997 0.65961 0.0
N1237 N 0.32505 0.63176 0.66014 0.0
N1238 N 0.33149 0.59052 0.6297 0.0
C1239 C 0.33331 0.61365 0.61877 0.0
C1240 C 0.32966 0.63601 0.63522 0.0
C1241 C 0.22715 0.36526 0.03129 0.0
C1242 C 0.23059 0.34019 0.02066 0.0
C1243 C 0.2176 0.38437 0.016 0.0
C1244 C 0.21134 0.37918 0.98947 0.0
H1245 H 0.23213 0.37034 0.05155 0.0
H1246 H 0.21567 0.40351 0.02488 0.0
S1247 S 0.21509 0.31646 0.95232 0.0
N1248 N 0.22576 0.31104 0.98195 0.0
N1249 N 0.20782 0.34702 0.95337 0.0
C1250 C 0.2141 0.35413 0.97865 0.0
C1251 C 0.22369 0.33462 0.9942 0.0
C1252 C 0.41596 0.73675 0.85156 0.0
C1253 C 0.3894 0.73 0.84686 0.0
C1254 C 0.42656 0.74389 0.87653 0.0
C1255 C 0.41097 0.74492 0.89772 0.0
H1256 H 0.42883 0.7361 0.83591 0.0
H1257 H 0.44713 0.74879 0.87926 0.0
S1258 S 0.34029 0.72979 0.89601 0.0
N1259 N 0.34766 0.7252 0.86565 0.0
N1260 N 0.36772 0.73891 0.91258 0.0
C1261 C 0.38436 0.73866 0.89336 0.0
C1262 C 0.37355 0.73109 0.86794 0.0
C1263 C 0.03487 0.66488 0.14349 0.0
C1264 C 0.00768 0.66378 0.14093 0.0
C1265 C 0.04965 0.6637 0.12179 0.0
C1266 C 0.03783 0.66121 0.09667 0.0
H1267 H 0.04493 0.66676 0.16242 0.0
H1268 H 0.0705 0.66453 0.1247 0.0
S1269 S 0.96747 0.65831 0.07908 0.0
N1270 N 0.9696 0.66048 0.11097 0.0
N1271 N -0.00252 0.65843 0.07029 0.0
C1272 C 0.01072 0.66014 0.09374 0.0
C1273 C 0.99563 0.6614 0.11582 0.0
C1274 C 0.59084 0.32076 0.65615 0.0
C1275 C 0.6178 0.3255 0.65811 0.0
C1276 C 0.57647 0.32341 0.63296 0.0
C1277 C 0.58842 0.33141 0.61093 0.0
H1278 H 0.58076 0.31417 0.67245 0.0
H1279 H 0.55576 0.31928 0.63232 0.0
S1280 S 0.65843 0.34755 0.60631 0.0
N1281 N 0.65593 0.33932 0.63634 0.0
N1282 N 0.62879 0.34475 0.5927 0.0
C1283 C 0.61531 0.33697 0.6128 0.0
C1284 C 0.63004 0.33386 0.63638 0.0
C1285 C 0.99497 0.2267 0.33533 0.0
C1286 C 0.02148 0.23282 0.34138 0.0
C1287 C 0.97859 0.21859 0.35415 0.0
C1288 C 0.98807 0.21612 0.37972 0.0
H1289 H 0.98662 0.22856 0.31599 0.0
H1290 H 0.95828 0.2143 0.34866 0.0
S1291 S 0.05581 0.22947 0.40576 0.0
N1292 N 0.05647 0.23544 0.37494 0.0
N1293 N 0.02552 0.22037 0.41025 0.0
C1294 C 0.01455 0.22173 0.38601 0.0
C1295 C 0.03127 0.23005 0.36687 0.0
C1296 C 0.29312 0.53942 0.36305 0.0
C1297 C 0.29318 0.56492 0.35511 0.0
C1298 C 0.29997 0.53431 0.38863 0.0
C1299 C 0.30727 0.55446 0.40732 0.0
H1300 H 0.28831 0.52311 0.3493 0.0
H1301 H 0.30036 0.51435 0.39361 0.0
S1302 S 0.30843 0.62468 0.39749 0.0
N1303 N 0.29963 0.61068 0.36871 0.0
N1304 N 0.31238 0.60091 0.41682 0.0
C1305 C 0.30655 0.58006 0.4 0.0
C1306 C 0.29949 0.58533 0.37393 0.0
C1307 C 0.17354 0.39416 0.77144 0.0
C1308 C 0.19854 0.39155 0.76289 0.0
C1309 C 0.16975 0.40517 0.79605 0.0
C1310 C 0.19077 0.41396 0.81322 0.0
H1311 H 0.15664 0.38835 0.75876 0.0
H1312 H 0.15013 0.40736 0.80146 0.0
S1313 S 0.26012 0.40934 0.80141 0.0
N1314 N 0.24471 0.39731 0.77427 0.0
N1315 N 0.23749 0.41761 0.82076 0.0
C1316 C 0.21587 0.41077 0.8053 0.0
C1317 C 0.21978 0.39964 0.78013 0.0
C1318 C 0.75717 0.97911 0.61891 0.0
C1319 C 0.77269 0.99575 0.63659 0.0
C1320 C 0.7573 0.98201 0.59224 0.0
C1321 C 0.77337 0.0013 0.58234 0.0
H1322 H 0.7447 0.96384 0.62573 0.0
H1323 H 0.74511 0.9688 0.57923 0.0
S1324 S 0.81795 0.04953 0.62027 0.0
N1325 N 0.80461 0.0322 0.64219 0.0
N1326 N 0.80509 0.03727 0.59206 0.0
C1327 C 0.78903 0.01798 0.59974 0.0
C1328 C 0.78861 0.01532 0.62687 0.0
C1329 C 0.72274 0.00366 0.21643 0.0
C1330 C 0.71849 0.0246 0.23386 0.0
C1331 C 0.71711 0.0047 0.18984 0.0
C1332 C 0.70703 0.02671 0.17954 0.0
H1333 H 0.72956 0.98586 0.2234 0.0
H1334 H 0.71963 0.98767 0.17739 0.0
S1335 S 0.69566 0.08809 0.21609 0.0
N1336 N 0.70585 0.06902 0.23839 0.0
N1337 N 0.69551 0.0709 0.18831 0.0
C1338 C 0.704 0.0483 0.19646 0.0
C1339 C 0.70971 0.04728 0.2236 0.0
C1340 C 0.36726 0.28869 0.54517 0.0
C1341 C 0.36146 0.29288 0.57119 0.0
C1342 C 0.39202 0.29478 0.53709 0.0
C1343 C 0.41198 0.30531 0.55469 0.0
H1344 H 0.35236 0.28145 0.53066 0.0
H1345 H 0.3953 0.29212 0.51674 0.0
S1346 S 0.40807 0.31698 0.62543 0.0
N1347 N 0.3786 0.30615 0.61491 0.0
N1348 N 0.42515 0.31734 0.59963 0.0
C1349 C 0.40688 0.30843 0.58093 0.0
C1350 C 0.38165 0.30225 0.5892 0.0
C1351 C 0.24955 0.72172 0.04406 0.0
C1352 C 0.26366 0.72529 0.02215 0.0
C1353 C 0.22377 0.71169 0.04158 0.0
C1354 C 0.21118 0.70553 0.01709 0.0
H1355 H 0.25857 0.72644 0.06321 0.0
H1356 H 0.21352 0.70904 0.05888 0.0
S1357 S 0.23951 0.71224 0.9538 0.0
N1358 N 0.26306 0.72265 0.97528 0.0
N1359 N 0.21473 0.70373 0.97061 0.0
C1360 C 0.22504 0.70934 0.99508 0.0
C1361 C 0.25128 0.71925 -0.00239 0.0
C1362 C 0.7743 0.21335 0.38913 0.0
C1363 C 0.75492 0.22011 0.40569 0.0
C1364 C 0.79946 0.20971 0.3988 0.0
C1365 C 0.80636 0.21279 0.42541 0.0
H1366 H 0.76994 0.21023 0.36851 0.0
H1367 H 0.81359 0.20414 0.38533 0.0
S1368 S 0.76343 0.23115 0.47709 0.0
N1369 N 0.74481 0.23056 0.45017 0.0
N1370 N 0.79214 0.2235 0.46821 0.0
C1371 C 0.78752 0.22029 0.44217 0.0
C1372 C 0.76181 0.22399 0.43236 0.0
C1373 C 0.62238 0.78508 0.97688 0.0
C1374 C 0.63424 0.76151 0.97895 0.0
C1375 C 0.59618 0.78704 0.98088 0.0
C1376 C 0.58058 0.76553 0.98709 0.0
H1377 H 0.63342 0.80238 0.97229 0.0
H1378 H 0.5881 0.8057 0.97929 0.0
S1379 S 0.60161 0.69909 0.99405 0.0
N1380 N 0.62805 0.71595 0.98733 0.0
N1381 N 0.57858 0.71969 0.99451 0.0
C1382 C 0.59202 0.74178 0.9892 0.0
C1383 C 0.61885 0.73975 0.98517 0.0
C1384 C 0.58781 0.37664 0.30194 0.0
C1385 C 0.5712 0.35615 0.2906 0.0
C1386 C 0.57862 0.40085 0.30841 0.0
C1387 C 0.55245 0.40564 0.30378 0.0
H1388 H 0.60804 0.37387 0.30646 0.0
H1389 H 0.59207 0.41588 0.3175 0.0
S1390 S 0.50094 0.35907 0.27384 0.0
N1391 N 0.52726 0.34271 0.27424 0.0
N1392 N 0.51008 0.38824 0.28668 0.0
C1393 C 0.53574 0.3857 0.29172 0.0
C1394 C 0.54508 0.36097 0.28508 0.0
C1395 C 0.01955 0.23224 0.74672 0.0
C1396 C 0.02862 0.25199 0.73156 0.0
C1397 C 0.01479 0.20678 0.73626 0.0
C1398 C 0.01926 0.20008 0.71033 0.0
H1399 H 0.01564 0.23661 0.76671 0.0
H1400 H 0.00767 0.1922 0.74861 0.0
S1401 S 0.04483 0.24446 0.66313 0.0
N1402 N 0.04346 0.26299 0.6899 0.0
N1403 N 0.03394 0.21528 0.66994 0.0
C1404 C 0.02886 0.21961 0.69513 0.0
C1405 C 0.03366 0.24554 0.7058 0.0
C1406 C 0.42954 0.77553 0.23561 0.0
C1407 C 0.43212 0.75609 0.2161 0.0
C1408 C 0.44083 0.80053 0.234 0.0
C1409 C 0.45467 0.8071 0.21259 0.0
H1410 H 0.41865 0.77141 0.2522 0.0
H1411 H 0.43814 0.81502 0.24931 0.0
S1412 S 0.46642 0.76333 0.15602 0.0
N1413 N 0.44933 0.74509 0.17459 0.0
N1414 N 0.47039 0.79212 0.17151 0.0
C1415 C 0.45741 0.78781 0.19297 0.0
C1416 C 0.44621 0.76229 0.19476 0.0
C1417 C 0.96582 0.63095 0.7521 0.0
C1418 C 0.9712 0.64796 0.77415 0.0
C1419 C 0.96892 0.60435 0.75305 0.0
C1420 C 0.97742 0.5937 0.77609 0.0
H1421 H 0.95927 0.6382 0.73388 0.0
H1422 H 0.96441 0.59199 0.73566 0.0
S1423 S 0.99511 0.62962 0.83905 0.0
N1424 N 0.98596 0.65195 0.81973 0.0
N1425 N 0.992 0.60212 0.82122 0.0
C1426 C 0.98296 0.61039 0.79824 0.0
C1427 C 0.9798 0.63744 0.79734 0.0
C1428 C 0.73949 0.39914 0.59386 0.0
C1429 C 0.73869 0.41388 0.6173 0.0
C1430 C 0.73622 0.41042 0.57017 0.0
C1431 C 0.73229 0.43695 0.569 0.0
H1432 H 0.74258 0.37867 0.59384 0.0
H1433 H 0.73675 0.39823 0.55258 0.0
S1434 S 0.73069 0.48438 0.62498 0.0
N1435 N 0.73501 0.45658 0.63805 0.0
N1436 N 0.7288 0.47785 0.59341 0.0
C1437 C 0.73154 0.45194 0.59233 0.0
C1438 C 0.73481 0.4404 0.61651 0.0
C1439 C 0.75036 0.57763 0.21427 0.0
C1440 C 0.74289 0.60311 0.21822 0.0
C1441 C 0.74533 0.56383 0.1903 0.0
C1442 C 0.73252 0.57499 0.16951 0.0
H1443 H 0.75898 0.5678 0.23011 0.0
H1444 H 0.75054 0.54394 0.18834 0.0
S1445 S 0.71165 0.64207 0.16906 0.0
N1446 N 0.72385 0.63958 0.19881 0.0
N1447 N 0.71459 0.61373 0.15373 0.0
C1448 C 0.72594 0.60079 0.17291 0.0
C1449 C 0.73103 0.6148 0.19728 0.0
C1450 C 0.27076 0.05194 0.36092 0.0
C1451 C 0.26214 0.02953 0.34568 0.0
C1452 C 0.27503 0.05137 0.38772 0.0
C1453 C 0.2713 0.02824 0.40025 0.0
H1454 H 0.2747 0.06998 0.35199 0.0
H1455 H 0.2819 0.0691 0.39865 0.0
S1456 S 0.24951 0.96404 0.36874 0.0
N1457 N 0.25 0.98359 0.34479 0.0
N1458 N 0.25851 0.9823 0.3952 0.0
C1459 C 0.26211 0.00577 0.38524 0.0
C1460 C 0.25746 0.00646 0.35792 0.0
C1461 C 0.24448 0.94752 0.76794 0.0
C1462 C 0.24712 0.97062 0.7553 0.0
C1463 C 0.24855 0.94738 0.79483 0.0
C1464 C 0.25505 0.97042 0.81008 0.0
H1465 H 0.23895 0.92944 0.75698 0.0
H1466 H 0.24614 0.92915 0.8038 0.0
S1467 S 0.26259 0.03628 0.78624 0.0
N1468 N 0.25578 0.01719 0.75989 0.0
N1469 N 0.26319 0.01708 0.81047 0.0
C1470 C 0.25795 0.99365 0.79757 0.0
C1471 C 0.25399 0.99372 0.77017 0.0
C1472 C 0.63162 0.74918 0.43444 0.0
C1473 C 0.64124 0.72982 0.41827 0.0
C1474 C 0.60759 0.74558 0.44491 0.0
C1475 C 0.59205 0.72262 0.43931 0.0
H1476 H 0.64239 0.76764 0.43834 0.0
H1477 H 0.60066 0.76135 0.45666 0.0
S1478 S 0.60889 0.66561 0.39857 0.0
N1479 N 0.63408 0.68646 0.39798 0.0
N1480 N 0.5885 0.67977 0.41721 0.0
C1481 C 0.602 0.70258 0.42413 0.0
C1482 C 0.6267 0.70618 0.41368 0.0
C1483 C 0.75962 0.26841 0.99055 0.0
C1484 C 0.74518 0.27003 0.96703 0.0
C1485 C 0.78665 0.27074 0.99186 0.0
C1486 C 0.80025 0.27445 0.96962 0.0
H1487 H 0.75011 0.26385 0.00784 0.0
H1488 H 0.79696 0.26832 0.01021 0.0
S1489 S 0.77142 0.28182 0.90366 0.0
N1490 N 0.74633 0.27685 0.92125 0.0
N1491 N 0.79725 0.2813 0.92368 0.0
C1492 C 0.78603 0.27689 0.94611 0.0
C1493 C 0.75848 0.27457 0.94481 0.0
C1494 C 0.20692 0.75973 0.61009 0.0
C1495 C 0.22522 0.74085 0.6113 0.0
C1496 C 0.18357 0.75503 0.59506 0.0
C1497 C 0.17779 0.73128 0.58081 0.0
H1498 H 0.2102 0.77785 0.62154 0.0
H1499 H 0.16958 0.7697 0.59532 0.0
S1500 S 0.22053 0.67672 0.57526 0.0
N1501 N 0.23681 0.69832 0.5955 0.0
N1502 N 0.19314 0.68963 0.56717 0.0
C1503 C 0.19636 0.71268 0.58114 0.0
C1504 C 0.22 0.71741 0.59645 0.0
C1505 C 0.36698 0.28235 0.061 0.0
C1506 C 0.34931 0.27298 0.04063 0.0
C1507 C 0.39327 0.28655 0.05712 0.0
C1508 C 0.40286 0.28171 0.03266 0.0
H1509 H 0.36042 0.28662 0.08011 0.0
H1510 H 0.4062 0.29377 0.07339 0.0
S1511 S 0.36434 0.25876 0.97255 0.0
N1512 N 0.34298 0.26015 0.99484 0.0
N1513 N 0.3926 0.26777 0.9876 0.0
C1514 C 0.38545 0.27222 0.01212 0.0
C1515 C 0.3586 0.26796 0.01608 0.0
C1516 C 0.38795 0.60805 0.74185 0.0
C1517 C 0.4025 0.63082 0.73741 0.0
C1518 C 0.39874 0.58398 0.73991 0.0
C1519 C 0.42462 0.58183 0.73382 0.0
H1520 H 0.36806 0.60886 0.74691 0.0
H1521 H 0.38673 0.5669 0.74331 0.0
S1522 S 0.4714 0.63609 0.7224 0.0
N1523 N 0.4443 0.65005 0.72776 0.0
N1524 N 0.46477 0.60478 0.72434 0.0
C1525 C 0.43939 0.60453 0.72938 0.0
C1526 C 0.4283 0.62905 0.73117 0.0
C1527 C 0.99297 0.77256 0.24938 0.0
C1528 C 0.97098 0.7556 0.24402 0.0
C1529 C 0.99076 0.79923 0.25365 0.0
C1530 C 0.96646 0.80989 0.2527 0.0
H1531 H 0.01211 0.76535 0.24923 0.0
H1532 H 0.00826 0.81169 0.25681 0.0
S1533 S 0.90284 0.77334 0.24204 0.0
N1534 N 0.92411 0.75103 0.2396 0.0
N1535 N 0.91988 0.80112 0.24807 0.0
C1536 C 0.94428 0.79299 0.24825 0.0
C1537 C 0.94656 0.76587 0.24376 0.0
C1538 C 0.62271 0.20261 0.73319 0.0
C1539 C 0.60967 0.22427 0.74139 0.0
C1540 C 0.60949 0.17842 0.72788 0.0
C1541 C 0.58267 0.17509 0.73028 0.0
H1542 H 0.64324 0.20446 0.73051 0.0
H1543 H 0.6203 0.16226 0.72151 0.0
S1544 S 0.53935 0.22616 0.74948 0.0
N1545 N 0.56834 0.24117 0.75072 0.0
N1546 N 0.54346 0.19564 0.74078 0.0
C1547 C 0.56943 0.19656 0.73871 0.0
C1548 C 0.58294 0.22119 0.74421 0.0
C1549 C 0.06476 0.36688 0.27983 0.0
C1550 C 0.04314 0.34945 0.27455 0.0
C1551 C 0.06193 0.39339 0.28427 0.0
C1552 C 0.03733 0.40343 0.28392 0.0
H1553 H 0.08404 0.35994 0.28068 0.0
H1554 H 0.07915 0.40613 0.28822 0.0
S1555 S 0.9745 0.36555 0.27279 0.0
N1556 N 0.99631 0.34379 0.2702 0.0
N1557 N 0.99092 0.39369 0.2787 0.0
C1558 C 0.01553 0.38619 0.27857 0.0
C1559 C 0.01844 0.35917 0.27389 0.0
C1560 C 0.39699 0.59017 0.28882 0.0
C1561 C 0.37383 0.57589 0.2807 0.0
C1562 C 0.41973 0.57795 0.29461 0.0
C1563 C 0.42019 0.55086 0.29272 0.0
H1564 H 0.39735 0.61098 0.29157 0.0
H1565 H 0.4368 0.58978 0.30177 0.0
S1566 S 0.3654 0.50442 0.27036 0.0
N1567 N 0.35318 0.53305 0.26952 0.0
N1568 N 0.39605 0.51006 0.28043 0.0
C1569 C 0.39749 0.53629 0.28359 0.0
C1570 C 0.3743 0.54879 0.27749 0.0
C1571 C 0.08121 0.38737 0.69586 0.0
C1572 C 0.10543 0.3986 0.69037 0.0
C1573 C 0.06244 0.4023 0.70653 0.0
C1574 C 0.06725 0.42899 0.71236 0.0
H1575 H 0.07698 0.3667 0.69272 0.0
H1576 H 0.04448 0.39263 0.71139 0.0
S1577 S 0.1264 0.46836 0.69952 0.0
N1578 N 0.13239 0.43856 0.68982 0.0
N1579 N 0.09701 0.46649 0.71002 0.0
C1580 C 0.09083 0.44073 0.70586 0.0
C1581 C 0.10991 0.42558 0.69475 0.0
C1582 C 0.88337 0.98551 0.70555 0.0
C1583 C 0.86046 0.99581 0.71353 0.0
C1584 C 0.90513 0.00163 0.70139 0.0
C1585 C 0.90467 0.02866 0.7047 0.0
H1586 H 0.88428 0.96486 0.70173 0.0
H1587 H 0.92202 0.99291 0.69435 0.0
S1588 S 0.85032 0.06539 0.72725 0.0
N1589 N 0.8393 0.03483 0.72617 0.0
N1590 N 0.8802 0.06503 0.71811 0.0
C1591 C 0.88234 0.0392 0.71371 0.0
C1592 C 0.86025 0.02279 0.71825 0.0
C1593 C 0.63278 0.94932 0.28844 0.0
C1594 C 0.63592 0.97461 0.30001 0.0
C1595 C 0.60902 0.93953 0.2766 0.0
C1596 C 0.5874 0.9546 0.27584 0.0
H1597 H 0.64904 0.93723 0.28762 0.0
H1598 H 0.60778 0.92025 0.26726 0.0
S1599 S 0.58464 0.0213 0.30493 0.0
N1600 N 0.61468 0.0139 0.31152 0.0
N1601 N 0.57017 0.99556 0.28887 0.0
C1602 C 0.58981 0.97939 0.28853 0.0
C1603 C 0.61402 0.98937 0.30071 0.0
C1604 C 0.28847 0.37814 0.53653 0.0
C1605 C 0.28382 0.37468 0.56258 0.0
C1606 C 0.29562 0.40254 0.52814 0.0
C1607 C 0.29828 0.42454 0.5454 0.0
H1608 H 0.28759 0.36172 0.52258 0.0
H1609 H 0.29978 0.40407 0.50808 0.0
S1610 S 0.28611 0.42668 0.61504 0.0
N1611 N 0.28051 0.39594 0.60521 0.0
N1612 N 0.29424 0.44172 0.58936 0.0
C1613 C 0.29233 0.4217 0.57116 0.0
C1614 C 0.28502 0.39681 0.57977 0.0
C1615 C 0.2245 0.60751 0.97778 0.0
C1616 C 0.24876 0.61646 0.96995 0.0
C1617 C 0.2129 0.58351 0.96831 0.0
C1618 C 0.22511 0.56741 0.95073 0.0
H1619 H 0.21435 0.61903 0.99148 0.0
H1620 H 0.1944 0.57729 0.97521 0.0
S1621 S 0.28803 0.5821 0.92294 0.0
N1622 N 0.28418 0.60747 0.94272 0.0
N1623 N 0.26219 0.56243 0.92492 0.0
C1624 C 0.24913 0.5762 0.94239 0.0
C1625 C 0.26097 0.6007 0.95195 0.0
C1626 C 0.6877 0.12814 0.42848 0.0
C1627 C 0.68508 0.13086 0.40166 0.0
C1628 C 0.69883 0.10668 0.43859 0.0
C1629 C 0.70767 0.08695 0.42231 0.0
H1630 H 0.68216 0.14325 0.44195 0.0
H1631 H 0.70131 0.10593 0.45938 0.0
S1632 S 0.70312 0.0832 0.35067 0.0
N1633 N 0.69038 0.11067 0.35892 0.0
N1634 N 0.71153 0.07045 0.37806 0.0
C1635 C 0.70377 0.08852 0.39546 0.0
C1636 C 0.69242 0.11043 0.3851 0.0
C1637 C 0.72368 0.87096 0.03385 0.0
C1638 C 0.72482 0.86423 0.00732 0.0
C1639 C 0.71732 0.89564 0.04264 0.0
C1640 C 0.71188 0.91469 0.0253 0.0
H1641 H 0.72666 0.85672 0.04799 0.0
H1642 H 0.71577 0.89958 0.06319 0.0
S1643 S 0.71463 0.90804 0.95409 0.0
N1644 N 0.72207 0.87955 0.96386 0.0
N1645 N 0.70982 0.9259 0.98052 0.0
C1646 C 0.71453 0.90887 -0.00113 0.0
C1647 C 0.72107 0.88366 0.98985 0.0
C1648 C 0.57749 0.27308 0.38929 0.0
C1649 C 0.56178 0.27364 0.36632 0.0
C1650 C 0.56802 0.27947 0.41343 0.0
C1651 C 0.54265 0.28705 0.41547 0.0
H1652 H 0.59764 0.26897 0.3886 0.0
H1653 H 0.58114 0.27998 0.43044 0.0
S1654 S 0.49193 0.28588 0.36207 0.0
N1655 N 0.51818 0.27802 0.3478 0.0
N1656 N 0.50067 0.29024 0.39315 0.0
C1657 C 0.52606 0.28528 0.393 0.0
C1658 C 0.53556 0.27853 0.36844 0.0
C1659 C 0.99293 0.26642 0.58951 0.0
C1660 C 0.9783 0.26962 0.61131 0.0
C1661 C 0.98183 0.2548 0.56613 0.0
C1662 C 0.95565 0.24596 0.56361 0.0
H1663 H 0.01331 0.2724 0.5906 0.0
H1664 H 0.99401 0.25214 0.55009 0.0
S1665 S 0.90823 0.25203 0.61391 0.0
N1666 N 0.93573 0.26444 0.62827 0.0
N1667 N 0.91489 0.24287 0.5842 0.0
C1668 C 0.94058 0.24972 0.58495 0.0
C1669 C 0.95189 0.26148 0.60881 0.0
C1670 C 0.38815 0.74649 0.12804 0.0
C1671 C 0.39067 0.72179 0.13742 0.0
C1672 C 0.40105 0.75418 0.10661 0.0
C1673 C 0.41696 0.7375 0.09356 0.0
H1674 H 0.37645 0.7603 0.13756 0.0
H1675 H 0.39859 0.77344 0.10023 0.0
S1676 S 0.43029 0.67084 0.11001 0.0
N1677 N 0.41034 0.68055 0.13168 0.0
N1678 N 0.43462 0.6952 0.09134 0.0
C1679 C 0.41938 0.71261 0.10232 0.0
C1680 C 0.40625 0.70472 0.12426 0.0
C1681 C 0.99591 0.71433 0.89682 0.0
C1682 C 0.00673 0.72615 0.87589 0.0
C1683 C 0.01149 0.70679 0.91762 0.0
C1684 C 0.03851 0.71059 0.91821 0.0
H1685 H 0.97526 0.71004 0.89679 0.0
H1686 H 0.00238 0.69685 0.93278 0.0
S1687 S 0.07647 0.74323 0.86995 0.0
N1688 N 0.04622 0.74327 0.8583 0.0
N1689 N 0.0754 0.72893 0.89746 0.0
C1690 C 0.04956 0.72353 0.89817 0.0
C1691 C 0.03369 0.73142 0.87703 0.0
C1692 C 0.6087 0.46183 0.6733 0.0
C1693 C 0.61221 0.43602 0.66496 0.0
C1694 C 0.58465 0.46949 0.68072 0.0
C1695 C 0.56314 0.45169 0.67996 0.0
H1696 H 0.62475 0.47622 0.67461 0.0
H1697 H 0.58296 0.48945 0.6874 0.0
S1698 S 0.56167 0.38201 0.65938 0.0
N1699 N 0.59169 0.39278 0.65587 0.0
N1700 N 0.54671 0.40723 0.67019 0.0
C1701 C 0.56616 0.426 0.67114 0.0
C1702 C 0.59062 0.41815 0.66355 0.0
C1703 C 0.89884 0.59365 0.28492 0.0
C1704 C 0.88073 0.58059 0.26674 0.0
C1705 C 0.92336 0.58453 0.28977 0.0
C1706 C 0.93091 0.56219 0.27642 0.0
H1707 H 0.89391 0.61079 0.29602 0.0
H1708 H 0.93647 0.59491 0.30431 0.0
S1709 S 0.89147 0.52127 0.22624 0.0
N1710 N 0.87253 0.54436 0.23476 0.0
N1711 N 0.91884 0.52742 0.24391 0.0
C1712 C 0.91342 0.54928 0.25769 0.0
C1713 C 0.88827 0.55841 0.25287 0.0
C1714 C 0.11303 0.97188 0.31259 0.0
C1715 C 0.12282 0.99449 0.30185 0.0
C1716 C 0.08717 0.96266 0.30758 0.0
C1717 C 0.07024 0.9756 0.29149 0.0
H1718 H 0.12553 0.96086 0.32456 0.0
H1719 H 0.08063 0.94481 0.31562 0.0
S1720 S 0.08516 0.0367 0.2604 0.0
N1721 N 0.11264 0.03048 0.27569 0.0
N1722 N 0.06426 0.01293 0.26629 0.0
C1723 C 0.0794 -0.00136 0.28139 0.0
C1724 C 0.10562 0.00816 0.28658 0.0
C1725 C 0.38324 0.03994 0.73908 0.0
C1726 C 0.37684 0.01322 0.7393 0.0
C1727 C 0.40879 0.04949 0.73717 0.0
C1728 C 0.42903 0.03274 0.73532 0.0
H1729 H 0.36832 0.05364 0.73978 0.0
H1730 H 0.41266 0.07017 0.73653 0.0
S1731 S 0.42291 0.96119 0.73604 0.0
N1732 N 0.39319 0.97019 0.73872 0.0
N1733 N 0.44106 0.98815 0.73451 0.0
C1734 C 0.42309 0.00605 0.73648 0.0
C1735 C 0.39706 0.9963 0.7386 0.0
C1736 C 0.70492 0.62178 0.42304 0.0
C1737 C 0.71714 0.62078 0.39954 0.0
C1738 C 0.69689 0.59889 0.43432 0.0
C1739 C 0.7003 0.57449 0.42213 0.0
H1740 H 0.70299 0.64014 0.43353 0.0
H1741 H 0.68888 0.60024 0.4531 0.0
S1742 S 0.73 0.56199 0.35976 0.0
N1743 N 0.73153 0.59379 0.36427 0.0
N1744 N 0.71571 0.55096 0.38481 0.0
C1745 C 0.71125 0.57349 0.39802 0.0
C1746 C 0.71989 0.59663 0.38693 0.0
C1747 C 0.76505 0.3696 0.07413 0.0
C1748 C 0.74761 0.34962 0.06338 0.0
C1749 C 0.75998 0.39562 0.07215 0.0
C1750 C 0.7372 0.40269 0.05927 0.0
H1751 H 0.78258 0.36508 0.08485 0.0
H1752 H 0.77366 0.41035 0.08139 0.0
S1753 S 0.68444 0.35809 0.02861 0.0
N1754 N 0.70598 0.33883 0.04006 0.0
N1755 N 0.69682 0.38785 0.03571 0.0
C1756 C 0.71975 0.38301 0.04786 0.0
C1757 C 0.72481 0.35639 0.05009 0.0
C1758 C 0.29406 0.89565 0.59234 0.0
C1759 C 0.27097 0.88004 0.58791 0.0
C1760 C 0.2975 0.91917 0.58076 0.0
C1761 C 0.27792 0.92819 0.56445 0.0
H1762 H 0.3099 0.88955 0.60455 0.0
H1763 H 0.31573 0.93036 0.58451 0.0
S1764 S 0.21356 0.8953 0.54684 0.0
N1765 N 0.2279 0.87572 0.56628 0.0
N1766 N 0.23453 0.9201 0.54459 0.0
C1767 C 0.25453 0.91318 0.5602 0.0
C1768 C 0.25103 0.88905 0.57186 0.0
C1769 C 0.30762 0.12635 0.97441 0.0
C1770 C 0.2931 0.13639 0.99434 0.0
C1771 C 0.30251 0.10099 0.96365 0.0
C1772 C 0.28257 0.08485 0.97227 0.0
H1773 H 0.32292 0.1382 0.96685 0.0
H1774 H 0.31388 0.09415 0.94811 0.0
S1775 S 0.24001 0.10078 0.02499 0.0
N1776 N 0.25862 0.12737 0.02301 0.0
N1777 N 0.2492 0.07991 0.00269 0.0
C1778 C 0.26828 0.09434 0.99247 0.0
C1779 C 0.27351 0.12005 0.00354 0.0
C1780 C 0.44942 0.67942 0.60382 0.0
C1781 C 0.43006 0.65962 0.60585 0.0
C1782 C 0.45769 0.68603 0.57978 0.0
C1783 C 0.44699 0.67317 0.55671 0.0
H1784 H 0.45792 0.69042 0.62088 0.0
H1785 H 0.47233 0.7017 0.57926 0.0
S1786 S 0.39737 0.61852 0.55119 0.0
N1787 N 0.40178 0.62588 0.58255 0.0
N1788 N 0.41696 0.63887 0.53734 0.0
C1789 C 0.42841 0.65264 0.55841 0.0
C1790 C 0.42002 0.64577 0.58296 0.0
C1791 C 0.04606 0.74302 0.37606 0.0
C1792 C 0.02305 0.72919 0.36632 0.0
C1793 C 0.05413 0.74354 0.40236 0.0
C1794 C 0.03939 0.73045 0.41991 0.0
H1795 H 0.05809 0.75338 0.36327 0.0
H1796 H 0.07204 0.75424 0.409 0.0
S1797 S 0.97827 0.69056 0.40444 0.0
N1798 N 0.98594 0.70161 0.37658 0.0
N1799 N 0.00127 0.70256 0.42577 0.0
C1800 C 0.01639 0.71659 0.41052 0.0
C1801 C 0.00818 0.71598 0.3838 0.0
C1802 C 0.59732 0.28389 0.89777 0.0
C1803 C 0.58393 0.2677 0.87809 0.0
C1804 C 0.5875 0.28756 0.92214 0.0
C1805 C 0.5641 0.27495 0.92795 0.0
H1806 H 0.61527 0.29437 0.89422 0.0
H1807 H 0.59818 0.30064 0.93651 0.0
S1808 S 0.52194 0.22969 0.88395 0.0
N1809 N 0.54625 0.23825 0.86652 0.0
N1810 N 0.528 0.24516 0.91254 0.0
C1811 C 0.55083 0.25812 0.90885 0.0
C1812 C 0.56068 0.25452 0.88387 0.0
C1813 C 0.98932 0.27681 0.12716 0.0
C1814 C 0.98268 0.2978 0.14334 0.0
C1815 C 0.9779 0.27209 0.10215 0.0
C1816 C 0.95953 0.28826 0.09216 0.0
H1817 H 0.00333 0.26367 0.13385 0.0
H1818 H 0.98361 0.25566 0.09046 0.0
S1819 S 0.93516 0.34576 0.12624 0.0
N1820 N 0.95634 0.33499 0.14734 0.0
N1821 N 0.93497 0.32599 0.10014 0.0
C1822 C 0.9528 0.30945 0.10788 0.0
C1823 C 0.96432 0.31422 0.13351 0.0
loop_
_geom_bond_atom_site_label_1
_geom_bond_atom_site_label_2
_geom_bond_distance
_geom_bond_site_symmetry_2
_ccdc_geom_bond_type
O0 Cd1 2.300 . S
O0 C7 1.275 . S
Cd1 O0 2.300 . S
Cd1 O9 2.381 . S
Cd1 O10 2.378 . S
O2 Cd3 2.385 . S
O2 C7 1.255 . S
Cd3 O2 2.385 . S
Cd3 O4 2.317 . S
O4 Cd3 2.317 . S
O4 C5 1.232 . S
C5 O4 1.232 . S
C5 O6 1.218 . S
O6 C5 1.218 . S
C7 O0 1.275 . S
C7 O2 1.255 . S
C8 O9 1.258 . S
C8 O10 1.256 . S
O9 Cd1 2.381 . S
O9 C8 1.258 . S
O10 Cd1 2.378 . S
O10 C8 1.256 . S
O11 Cd12 2.300 . S
O11 C18 1.275 . S
Cd12 O11 2.300 . S
Cd12 O20 2.381 . S
Cd12 O21 2.378 . S
O13 Cd14 2.385 . S
O13 C18 1.255 . S
Cd14 O13 2.385 . S
Cd14 O15 2.317 . S
O15 Cd14 2.317 . S
O15 C16 1.232 . S
C16 O15 1.232 . S
C16 O17 1.218 . S
O17 C16 1.218 . S
C18 O11 1.275 . S
C18 O13 1.255 . S
C19 O20 1.258 . S
C19 O21 1.256 . S
O20 Cd12 2.381 . S
O20 C19 1.258 . S
O21 Cd12 2.378 . S
O21 C19 1.256 . S
O22 Cd23 2.300 . S
O22 C29 1.275 . S
Cd23 O22 2.300 . S
Cd23 O31 2.381 1_565 S
Cd23 O32 2.378 . S
O24 Cd25 2.385 . S
O24 C29 1.255 . S
Cd25 O24 2.385 . S
Cd25 O26 2.317 . S
O26 Cd25 2.317 . S
O26 C27 1.232 . S
C27 O26 1.232 . S
C27 O28 1.218 . S
O28 C27 1.218 . S
C29 O22 1.275 . S
C29 O24 1.255 . S
C30 O31 1.258 . S
C30 O32 1.256 1_545 S
O31 Cd23 2.381 1_545 S
O31 C30 1.258 . S
O32 Cd23 2.378 . S
O32 C30 1.256 1_565 S
O33 Cd34 2.300 . S
O33 C40 1.275 . S
Cd34 O33 2.300 . S
Cd34 O42 2.381 1_545 S
Cd34 O43 2.378 . S
O35 Cd36 2.385 . S
O35 C40 1.255 . S
Cd36 O35 2.385 . S
Cd36 O37 2.317 . S
O37 Cd36 2.317 . S
O37 C38 1.232 . S
C38 O37 1.232 . S
C38 O39 1.218 . S
O39 C38 1.218 . S
C40 O33 1.275 . S
C40 O35 1.255 . S
C41 O42 1.258 . S
C41 O43 1.256 1_565 S
O42 Cd34 2.381 1_565 S
O42 C41 1.258 . S
O43 Cd34 2.378 . S
O43 C41 1.256 1_545 S
O44 Cd45 2.300 . S
O44 C51 1.275 . S
Cd45 O44 2.300 . S
Cd45 O53 2.381 . S
Cd45 O54 2.378 . S
O46 Cd47 2.385 . S
O46 C51 1.255 . S
Cd47 O46 2.385 . S
Cd47 O48 2.317 . S
O48 Cd47 2.317 . S
O48 C49 1.232 . S
C49 O48 1.232 . S
C49 O50 1.218 . S
O50 C49 1.218 . S
C51 O44 1.275 . S
C51 O46 1.255 . S
C52 O53 1.258 . S
C52 O54 1.256 . S
O53 Cd45 2.381 . S
O53 C52 1.258 . S
O54 Cd45 2.378 . S
O54 C52 1.256 . S
O55 Cd56 2.300 . S
O55 C62 1.275 . S
Cd56 O55 2.300 . S
Cd56 O64 2.381 1_554 S
Cd56 O65 2.378 . S
O57 Cd58 2.385 . S
O57 C62 1.255 . S
Cd58 O57 2.385 . S
Cd58 O59 2.317 . S
O59 Cd58 2.317 . S
O59 C60 1.232 . S
C60 O59 1.232 . S
C60 O61 1.218 . S
O61 C60 1.218 . S
C62 O55 1.275 . S
C62 O57 1.255 . S
C63 O64 1.258 . S
C63 O65 1.256 1_556 S
O64 Cd56 2.381 1_556 S
O64 C63 1.258 . S
O65 Cd56 2.378 . S
O65 C63 1.256 1_554 S
O66 Cd67 2.300 . S
O66 C73 1.275 . S
Cd67 O66 2.300 . S
Cd67 O75 2.381 . S
Cd67 O76 2.378 . S
O68 Cd69 2.385 . S
O68 C73 1.255 . S
Cd69 O68 2.385 . S
Cd69 O70 2.317 . S
O70 Cd69 2.317 . S
O70 C71 1.232 . S
C71 O70 1.232 . S
C71 O72 1.218 . S
O72 C71 1.218 . S
C73 O66 1.275 . S
C73 O68 1.255 . S
C74 O75 1.258 . S
C74 O76 1.256 . S
O75 Cd67 2.381 . S
O75 C74 1.258 . S
O76 Cd67 2.378 . S
O76 C74 1.256 . S
O77 Cd78 2.300 . S
O77 C84 1.275 . S
Cd78 O77 2.300 . S
Cd78 O86 2.381 1_556 S
Cd78 O87 2.378 . S
O79 Cd80 2.385 . S
O79 C84 1.255 . S
Cd80 O79 2.385 . S
Cd80 O81 2.317 . S
O81 Cd80 2.317 . S
O81 C82 1.232 . S
C82 O81 1.232 . S
C82 O83 1.218 . S
O83 C82 1.218 . S
C84 O77 1.275 . S
C84 O79 1.255 . S
C85 O86 1.258 . S
C85 O87 1.256 1_554 S
O86 Cd78 2.381 1_554 S
O86 C85 1.258 . S
O87 Cd78 2.378 . S
O87 C85 1.256 1_556 S
O88 Cd89 2.300 . S
O88 C95 1.275 . S
Cd89 O88 2.300 . S
Cd89 O97 2.381 . S
Cd89 O98 2.378 . S
O90 Cd91 2.385 . S
O90 C95 1.255 . S
Cd91 O90 2.385 . S
Cd91 O92 2.317 . S
O92 Cd91 2.317 . S
O92 C93 1.232 . S
C93 O92 1.232 . S
C93 O94 1.218 . S
O94 C93 1.218 . S
C95 O88 1.275 . S
C95 O90 1.255 . S
C96 O97 1.258 . S
C96 O98 1.256 . S
O97 Cd89 2.381 . S
O97 C96 1.258 . S
O98 Cd89 2.378 . S
O98 C96 1.256 . S
O99 Cd100 2.300 . S
O99 C106 1.275 . S
Cd100 O99 2.300 . S
Cd100 O108 2.381 1_455 S
Cd100 O109 2.378 . S
O101 Cd102 2.385 . S
O101 C106 1.255 . S
Cd102 O101 2.385 . S
Cd102 O103 2.317 . S
O103 Cd102 2.317 . S
O103 C104 1.232 . S
C104 O103 1.232 . S
C104 O105 1.218 . S
O105 C104 1.218 . S
C106 O99 1.275 . S
C106 O101 1.255 . S
C107 O108 1.258 . S
C107 O109 1.256 1_655 S
O108 Cd100 2.381 1_655 S
O108 C107 1.258 . S
O109 Cd100 2.378 . S
O109 C107 1.256 1_455 S
O110 Cd111 2.300 . S
O110 C117 1.275 . S
Cd111 O110 2.300 . S
Cd111 O119 2.381 . S
Cd111 O120 2.378 . S
O112 Cd113 2.385 . S
O112 C117 1.255 . S
Cd113 O112 2.385 . S
Cd113 O114 2.317 . S
O114 Cd113 2.317 . S
O114 C115 1.232 . S
C115 O114 1.232 . S
C115 O116 1.218 . S
O116 C115 1.218 . S
C117 O110 1.275 . S
C117 O112 1.255 . S
C118 O119 1.258 . S
C118 O120 1.256 . S
O119 Cd111 2.381 . S
O119 C118 1.258 . S
O120 Cd111 2.378 . S
O120 C118 1.256 . S
O121 Cd122 2.300 . S
O121 C128 1.275 . S
Cd122 O121 2.300 . S
Cd122 O130 2.381 1_655 S
Cd122 O131 2.378 . S
O123 Cd124 2.385 . S
O123 C128 1.255 . S
Cd124 O123 2.385 . S
Cd124 O125 2.317 . S
O125 Cd124 2.317 . S
O125 C126 1.232 . S
C126 O125 1.232 . S
C126 O127 1.218 . S
O127 C126 1.218 . S
C128 O121 1.275 . S
C128 O123 1.255 . S
C129 O130 1.258 . S
C129 O131 1.256 1_455 S
O130 Cd122 2.381 1_455 S
O130 C129 1.258 . S
O131 Cd122 2.378 . S
O131 C129 1.256 1_655 S
O132 Cd133 2.300 . S
O132 C139 1.275 . S
Cd133 O132 2.300 . S
Cd133 O141 2.381 . S
Cd133 O142 2.378 . S
O134 Cd135 2.385 . S
O134 C139 1.255 . S
Cd135 O134 2.385 . S
Cd135 O136 2.317 . S
O136 Cd135 2.317 . S
O136 C137 1.232 . S
C137 O136 1.232 . S
C137 O138 1.218 . S
O138 C137 1.218 . S
C139 O132 1.275 . S
C139 O134 1.255 . S
C140 O141 1.258 . S
C140 O142 1.256 . S
O141 Cd133 2.381 . S
O141 C140 1.258 . S
O142 Cd133 2.378 . S
O142 C140 1.256 . S
O143 Cd144 2.300 . S
O143 C150 1.275 . S
Cd144 O143 2.300 . S
Cd144 O152 2.381 . S
Cd144 O153 2.378 . S
O145 Cd146 2.385 . S
O145 C150 1.255 . S
Cd146 O145 2.385 . S
Cd146 O147 2.317 . S
O147 Cd146 2.317 . S
O147 C148 1.232 . S
C148 O147 1.232 . S
C148 O149 1.218 . S
O149 C148 1.218 . S
C150 O143 1.275 . S
C150 O145 1.255 . S
C151 O152 1.258 . S
C151 O153 1.256 . S
O152 Cd144 2.381 . S
O152 C151 1.258 . S
O153 Cd144 2.378 . S
O153 C151 1.256 . S
O154 Cd155 2.300 1_545 S
O154 C161 1.275 . S
Cd155 O154 2.300 1_565 S
Cd155 O163 2.381 1_565 S
Cd155 O164 2.378 . S
O156 Cd157 2.385 . S
O156 C161 1.255 1_565 S
Cd157 O156 2.385 . S
Cd157 O158 2.317 . S
O158 Cd157 2.317 . S
O158 C159 1.232 . S
C159 O158 1.232 . S
C159 O160 1.218 . S
O160 C159 1.218 . S
C161 O154 1.275 . S
C161 O156 1.255 1_545 S
C162 O163 1.258 1_565 S
C162 O164 1.256 . S
O163 Cd155 2.381 1_545 S
O163 C162 1.258 1_545 S
O164 Cd155 2.378 . S
O164 C162 1.256 . S
O165 Cd166 2.300 1_565 S
O165 C172 1.275 . S
Cd166 O165 2.300 1_545 S
Cd166 O174 2.381 1_545 S
Cd166 O175 2.378 . S
O167 Cd168 2.385 . S
O167 C172 1.255 1_545 S
Cd168 O167 2.385 . S
Cd168 O169 2.317 . S
O169 Cd168 2.317 . S
O169 C170 1.232 . S
C170 O169 1.232 . S
C170 O171 1.218 . S
O171 C170 1.218 . S
C172 O165 1.275 . S
C172 O167 1.255 1_565 S
C173 O174 1.258 1_545 S
C173 O175 1.256 . S
O174 Cd166 2.381 1_565 S
O174 C173 1.258 1_565 S
O175 Cd166 2.378 . S
O175 C173 1.256 . S
O176 Cd177 2.300 . S
O176 C183 1.275 . S
Cd177 O176 2.300 . S
Cd177 O185 2.381 . S
Cd177 O186 2.378 . S
O178 Cd179 2.385 . S
O178 C183 1.255 . S
Cd179 O178 2.385 . S
Cd179 O180 2.317 . S
O180 Cd179 2.317 . S
O180 C181 1.232 . S
C181 O180 1.232 . S
C181 O182 1.218 . S
O182 C181 1.218 . S
C183 O176 1.275 . S
C183 O178 1.255 . S
C184 O185 1.258 . S
C184 O186 1.256 . S
O185 Cd177 2.381 . S
O185 C184 1.258 . S
O186 Cd177 2.378 . S
O186 C184 1.256 . S
O187 Cd188 2.300 1_556 S
O187 C194 1.275 . S
Cd188 O187 2.300 1_554 S
Cd188 O196 2.381 1_554 S
Cd188 O197 2.378 . S
O189 Cd190 2.385 . S
O189 C194 1.255 1_554 S
Cd190 O189 2.385 . S
Cd190 O191 2.317 . S
O191 Cd190 2.317 . S
O191 C192 1.232 . S
C192 O191 1.232 . S
C192 O193 1.218 . S
O193 C192 1.218 . S
C194 O187 1.275 . S
C194 O189 1.255 1_556 S
C195 O196 1.258 1_554 S
C195 O197 1.256 . S
O196 Cd188 2.381 1_556 S
O196 C195 1.258 1_556 S
O197 Cd188 2.378 . S
O197 C195 1.256 . S
O198 Cd199 2.300 . S
O198 C205 1.275 . S
Cd199 O198 2.300 . S
Cd199 O207 2.381 . S
Cd199 O208 2.378 . S
O200 Cd201 2.385 . S
O200 C205 1.255 . S
Cd201 O200 2.385 . S
Cd201 O202 2.317 . S
O202 Cd201 2.317 . S
O202 C203 1.232 . S
C203 O202 1.232 . S
C203 O204 1.218 . S
O204 C203 1.218 . S
C205 O198 1.275 . S
C205 O200 1.255 . S
C206 O207 1.258 . S
C206 O208 1.256 . S
O207 Cd199 2.381 . S
O207 C206 1.258 . S
O208 Cd199 2.378 . S
O208 C206 1.256 . S
O209 Cd210 2.300 1_554 S
O209 C216 1.275 . S
Cd210 O209 2.300 1_556 S
Cd210 O218 2.381 1_556 S
Cd210 O219 2.378 . S
O211 Cd212 2.385 . S
O211 C216 1.255 1_556 S
Cd212 O211 2.385 . S
Cd212 O213 2.317 . S
O213 Cd212 2.317 . S
O213 C214 1.232 . S
C214 O213 1.232 . S
C214 O215 1.218 . S
O215 C214 1.218 . S
C216 O209 1.275 . S
C216 O211 1.255 1_554 S
C217 O218 1.258 1_556 S
C217 O219 1.256 . S
O218 Cd210 2.381 1_554 S
O218 C217 1.258 1_554 S
O219 Cd210 2.378 . S
O219 C217 1.256 . S
O220 Cd221 2.300 . S
O220 C227 1.275 . S
Cd221 O220 2.300 . S
Cd221 O229 2.381 . S
Cd221 O230 2.378 . S
O222 Cd223 2.385 . S
O222 C227 1.255 . S
Cd223 O222 2.385 . S
Cd223 O224 2.317 . S
O224 Cd223 2.317 . S
O224 C225 1.232 . S
C225 O224 1.232 . S
C225 O226 1.218 . S
O226 C225 1.218 . S
C227 O220 1.275 . S
C227 O222 1.255 . S
C228 O229 1.258 . S
C228 O230 1.256 . S
O229 Cd221 2.381 . S
O229 C228 1.258 . S
O230 Cd221 2.378 . S
O230 C228 1.256 . S
O231 Cd232 2.300 1_655 S
O231 C238 1.275 . S
Cd232 O231 2.300 1_455 S
Cd232 O240 2.381 1_455 S
Cd232 O241 2.378 . S
O233 Cd234 2.385 . S
O233 C238 1.255 1_455 S
Cd234 O233 2.385 . S
Cd234 O235 2.317 . S
O235 Cd234 2.317 . S
O235 C236 1.232 . S
C236 O235 1.232 . S
C236 O237 1.218 . S
O237 C236 1.218 . S
C238 O231 1.275 . S
C238 O233 1.255 1_655 S
C239 O240 1.258 1_455 S
C239 O241 1.256 . S
O240 Cd232 2.381 1_655 S
O240 C239 1.258 1_655 S
O241 Cd232 2.378 . S
O241 C239 1.256 . S
O242 Cd243 2.300 . S
O242 C249 1.275 . S
Cd243 O242 2.300 . S
Cd243 O251 2.381 . S
Cd243 O252 2.378 . S
O244 Cd245 2.385 . S
O244 C249 1.255 . S
Cd245 O244 2.385 . S
Cd245 O246 2.317 . S
O246 Cd245 2.317 . S
O246 C247 1.232 . S
C247 O246 1.232 . S
C247 O248 1.218 . S
O248 C247 1.218 . S
C249 O242 1.275 . S
C249 O244 1.255 . S
C250 O251 1.258 . S
C250 O252 1.256 . S
O251 Cd243 2.381 . S
O251 C250 1.258 . S
O252 Cd243 2.378 . S
O252 C250 1.256 . S
O253 Cd254 2.300 1_455 S
O253 C260 1.275 . S
Cd254 O253 2.300 1_655 S
Cd254 O262 2.381 1_655 S
Cd254 O263 2.378 . S
O255 Cd256 2.385 . S
O255 C260 1.255 1_655 S
Cd256 O255 2.385 . S
Cd256 O257 2.317 . S
O257 Cd256 2.317 . S
O257 C258 1.232 . S
C258 O257 1.232 . S
C258 O259 1.218 . S
O259 C258 1.218 . S
C260 O253 1.275 . S
C260 O255 1.255 1_455 S
C261 O262 1.258 1_655 S
C261 O263 1.256 . S
O262 Cd254 2.381 1_455 S
O262 C261 1.258 1_455 S
O263 Cd254 2.378 . S
O263 C261 1.256 . S
P264 O275 1.490 . S
P264 C278 1.812 . S
P264 C284 1.803 . S
P264 C290 1.819 . S
H265 C279 0.941 . S
H266 C280 0.939 . S
H267 C282 0.940 . S
H268 C283 0.940 . S
H269 C285 0.939 . S
H270 C286 0.942 . S
H271 C288 0.940 . S
H272 C289 0.939 . S
H273 C291 0.941 . S
H274 C295 0.939 . S
O275 P264 1.490 . S
H276 C292 0.939 . S
H277 C294 0.940 . S
C278 P264 1.812 . S
C278 C279 1.389 . S
C278 C283 1.391 . S
C279 H265 0.941 . S
C279 C278 1.389 . S
C279 C280 1.397 . S
C280 H266 0.939 . S
C280 C279 1.397 . S
C280 C281 1.378 . S
C281 C280 1.378 . S
C281 C282 1.378 . S
C282 H267 0.940 . S
C282 C281 1.378 . S
C282 C283 1.396 . S
C283 H268 0.940 . S
C283 C278 1.391 . S
C283 C282 1.396 . S
C284 P264 1.803 . S
C284 C285 1.378 . S
C284 C289 1.400 . S
C285 H269 0.939 . S
C285 C284 1.378 . S
C285 C286 1.361 . S
C286 H270 0.942 . S
C286 C285 1.361 . S
C286 C287 1.369 . S
C287 C286 1.369 . S
C287 C288 1.404 . S
C288 H271 0.940 . S
C288 C287 1.404 . S
C288 C289 1.389 . S
C289 H272 0.939 . S
C289 C284 1.400 . S
C289 C288 1.389 . S
C290 P264 1.819 . S
C290 C291 1.391 . S
C290 C295 1.391 . S
C291 H273 0.941 . S
C291 C290 1.391 . S
C291 C292 1.396 . S
C292 H276 0.939 . S
C292 C291 1.396 . S
C292 C293 1.397 . S
C293 C292 1.397 . S
C293 C294 1.385 . S
C294 H277 0.940 . S
C294 C293 1.385 . S
C294 C295 1.388 . S
C295 H274 0.939 . S
C295 C290 1.391 . S
C295 C294 1.388 . S
P296 O307 1.490 . S
P296 C310 1.812 . S
P296 C316 1.803 . S
P296 C322 1.819 . S
H297 C311 0.941 . S
H298 C312 0.939 . S
H299 C314 0.940 . S
H300 C315 0.940 . S
H301 C317 0.939 . S
H302 C318 0.942 . S
H303 C320 0.940 . S
H304 C321 0.939 . S
H305 C323 0.941 . S
H306 C327 0.939 . S
O307 P296 1.490 . S
H308 C324 0.939 . S
H309 C326 0.940 . S
C310 P296 1.812 . S
C310 C311 1.389 . S
C310 C315 1.391 . S
C311 H297 0.941 . S
C311 C310 1.389 . S
C311 C312 1.397 . S
C312 H298 0.939 . S
C312 C311 1.397 . S
C312 C313 1.378 . S
C313 C312 1.378 . S
C313 C314 1.378 . S
C314 H299 0.940 . S
C314 C313 1.378 . S
C314 C315 1.396 . S
C315 H300 0.940 . S
C315 C310 1.391 . S
C315 C314 1.396 . S
C316 P296 1.803 . S
C316 C317 1.378 . S
C316 C321 1.400 . S
C317 H301 0.939 . S
C317 C316 1.378 . S
C317 C318 1.361 . S
C318 H302 0.942 . S
C318 C317 1.361 . S
C318 C319 1.369 . S
C319 C318 1.369 . S
C319 C320 1.404 . S
C320 H303 0.940 . S
C320 C319 1.404 . S
C320 C321 1.389 . S
C321 H304 0.939 . S
C321 C316 1.400 . S
C321 C320 1.389 . S
C322 P296 1.819 . S
C322 C323 1.391 . S
C322 C327 1.391 . S
C323 H305 0.941 . S
C323 C322 1.391 . S
C323 C324 1.396 . S
C324 H308 0.939 . S
C324 C323 1.396 . S
C324 C325 1.397 . S
C325 C324 1.397 . S
C325 C326 1.385 . S
C326 H309 0.940 . S
C326 C325 1.385 . S
C326 C327 1.388 . S
C327 H306 0.939 . S
C327 C322 1.391 . S
C327 C326 1.388 . S
P328 O339 1.490 . S
P328 C342 1.812 1_545 S
P328 C348 1.803 . S
P328 C354 1.819 . S
H329 C343 0.941 . S
H330 C344 0.939 . S
H331 C346 0.940 . S
H332 C347 0.940 . S
H333 C349 0.939 . S
H334 C350 0.942 . S
H335 C352 0.940 . S
H336 C353 0.939 . S
H337 C355 0.941 . S
H338 C359 0.939 . S
O339 P328 1.490 . S
H340 C356 0.939 . S
H341 C358 0.940 . S
C342 P328 1.812 1_565 S
C342 C343 1.389 . S
C342 C347 1.391 . S
C343 H329 0.941 . S
C343 C342 1.389 . S
C343 C344 1.397 . S
C344 H330 0.939 . S
C344 C343 1.397 . S
C344 C345 1.378 . S
C345 C344 1.378 . S
C345 C346 1.378 . S
C346 H331 0.940 . S
C346 C345 1.378 . S
C346 C347 1.396 . S
C347 H332 0.940 . S
C347 C342 1.391 . S
C347 C346 1.396 . S
C348 P328 1.803 . S
C348 C349 1.378 . S
C348 C353 1.400 . S
C349 H333 0.939 . S
C349 C348 1.378 . S
C349 C350 1.361 . S
C350 H334 0.942 . S
C350 C349 1.361 . S
C350 C351 1.369 . S
C351 C350 1.369 . S
C351 C352 1.404 . S
C352 H335 0.940 . S
C352 C351 1.404 . S
C352 C353 1.389 . S
C353 H336 0.939 . S
C353 C348 1.400 . S
C353 C352 1.389 . S
C354 P328 1.819 . S
C354 C355 1.391 1_545 S
C354 C359 1.391 . S
C355 H337 0.941 . S
C355 C354 1.391 1_565 S
C355 C356 1.396 . S
C356 H340 0.939 . S
C356 C355 1.396 . S
C356 C357 1.397 1_565 S
C357 C356 1.397 1_545 S
C357 C358 1.385 . S
C358 H341 0.940 . S
C358 C357 1.385 . S
C358 C359 1.388 . S
C359 H338 0.939 . S
C359 C354 1.391 . S
C359 C358 1.388 . S
P360 O371 1.490 . S
P360 C374 1.812 1_565 S
P360 C380 1.803 . S
P360 C386 1.819 . S
H361 C375 0.941 . S
H362 C376 0.939 . S
H363 C378 0.940 . S
H364 C379 0.940 . S
H365 C381 0.939 . S
H366 C382 0.942 . S
H367 C384 0.940 . S
H368 C385 0.939 . S
H369 C387 0.941 . S
H370 C391 0.939 . S
O371 P360 1.490 . S
H372 C388 0.939 . S
H373 C390 0.940 . S
C374 P360 1.812 1_545 S
C374 C375 1.389 . S
C374 C379 1.391 . S
C375 H361 0.941 . S
C375 C374 1.389 . S
C375 C376 1.397 . S
C376 H362 0.939 . S
C376 C375 1.397 . S
C376 C377 1.378 . S
C377 C376 1.378 . S
C377 C378 1.378 . S
C378 H363 0.940 . S
C378 C377 1.378 . S
C378 C379 1.396 . S
C379 H364 0.940 . S
C379 C374 1.391 . S
C379 C378 1.396 . S
C380 P360 1.803 . S
C380 C381 1.378 . S
C380 C385 1.400 . S
C381 H365 0.939 . S
C381 C380 1.378 . S
C381 C382 1.361 . S
C382 H366 0.942 . S
C382 C381 1.361 . S
C382 C383 1.369 . S
C383 C382 1.369 . S
C383 C384 1.404 . S
C384 H367 0.940 . S
C384 C383 1.404 . S
C384 C385 1.389 . S
C385 H368 0.939 . S
C385 C380 1.400 . S
C385 C384 1.389 . S
C386 P360 1.819 . S
C386 C387 1.391 1_565 S
C386 C391 1.391 . S
C387 H369 0.941 . S
C387 C386 1.391 1_545 S
C387 C388 1.396 . S
C388 H372 0.939 . S
C388 C387 1.396 . S
C388 C389 1.397 . S
C389 C388 1.397 . S
C389 C390 1.385 1_545 S
C390 H373 0.940 . S
C390 C389 1.385 1_565 S
C390 C391 1.388 . S
C391 H370 0.939 . S
C391 C386 1.391 . S
C391 C390 1.388 . S
P392 O403 1.490 . S
P392 C406 1.812 . S
P392 C412 1.803 . S
P392 C418 1.819 . S
H393 C407 0.941 . S
H394 C408 0.939 . S
H395 C410 0.940 . S
H396 C411 0.940 . S
H397 C413 0.939 . S
H398 C414 0.942 . S
H399 C416 0.940 . S
H400 C417 0.939 . S
H401 C419 0.941 . S
H402 C423 0.939 . S
O403 P392 1.490 . S
H404 C420 0.939 . S
H405 C422 0.940 . S
C406 P392 1.812 . S
C406 C407 1.389 . S
C406 C411 1.391 . S
C407 H393 0.941 . S
C407 C406 1.389 . S
C407 C408 1.397 . S
C408 H394 0.939 . S
C408 C407 1.397 . S
C408 C409 1.378 . S
C409 C408 1.378 . S
C409 C410 1.378 . S
C410 H395 0.940 . S
C410 C409 1.378 . S
C410 C411 1.396 . S
C411 H396 0.940 . S
C411 C406 1.391 . S
C411 C410 1.396 . S
C412 P392 1.803 . S
C412 C413 1.378 . S
C412 C417 1.400 . S
C413 H397 0.939 . S
C413 C412 1.378 . S
C413 C414 1.361 . S
C414 H398 0.942 . S
C414 C413 1.361 . S
C414 C415 1.369 . S
C415 C414 1.369 . S
C415 C416 1.404 . S
C416 H399 0.940 . S
C416 C415 1.404 . S
C416 C417 1.389 . S
C417 H400 0.939 . S
C417 C412 1.400 . S
C417 C416 1.389 . S
C418 P392 1.819 . S
C418 C419 1.391 . S
C418 C423 1.391 . S
C419 H401 0.941 . S
C419 C418 1.391 . S
C419 C420 1.396 . S
C420 H404 0.939 . S
C420 C419 1.396 . S
C420 C421 1.397 . S
C421 C420 1.397 . S
C421 C422 1.385 . S
C422 H405 0.940 . S
C422 C421 1.385 . S
C422 C423 1.388 . S
C423 H402 0.939 . S
C423 C418 1.391 . S
C423 C422 1.388 . S
P424 O435 1.490 . S
P424 C438 1.812 1_556 S
P424 C444 1.803 . S
P424 C450 1.819 . S
H425 C439 0.941 . S
H426 C440 0.939 . S
H427 C442 0.940 . S
H428 C443 0.940 . S
H429 C445 0.939 . S
H430 C446 0.942 . S
H431 C448 0.940 . S
H432 C449 0.939 . S
H433 C451 0.941 . S
H434 C455 0.939 . S
O435 P424 1.490 . S
H436 C452 0.939 . S
H437 C454 0.940 . S
C438 P424 1.812 1_554 S
C438 C439 1.389 . S
C438 C443 1.391 . S
C439 H425 0.941 . S
C439 C438 1.389 . S
C439 C440 1.397 . S
C440 H426 0.939 . S
C440 C439 1.397 . S
C440 C441 1.378 . S
C441 C440 1.378 . S
C441 C442 1.378 . S
C442 H427 0.940 . S
C442 C441 1.378 . S
C442 C443 1.396 . S
C443 H428 0.940 . S
C443 C438 1.391 . S
C443 C442 1.396 . S
C444 P424 1.803 . S
C444 C445 1.378 . S
C444 C449 1.400 . S
C445 H429 0.939 . S
C445 C444 1.378 . S
C445 C446 1.361 . S
C446 H430 0.942 . S
C446 C445 1.361 . S
C446 C447 1.369 . S
C447 C446 1.369 . S
C447 C448 1.404 . S
C448 H431 0.940 . S
C448 C447 1.404 . S
C448 C449 1.389 . S
C449 H432 0.939 . S
C449 C444 1.400 . S
C449 C448 1.389 . S
C450 P424 1.819 . S
C450 C451 1.391 1_556 S
C450 C455 1.391 . S
C451 H433 0.941 . S
C451 C450 1.391 1_554 S
C451 C452 1.396 . S
C452 H436 0.939 . S
C452 C451 1.396 . S
C452 C453 1.397 . S
C453 C452 1.397 . S
C453 C454 1.385 1_554 S
C454 H437 0.940 . S
C454 C453 1.385 1_556 S
C454 C455 1.388 . S
C455 H434 0.939 . S
C455 C450 1.391 . S
C455 C454 1.388 . S
P456 O467 1.490 . S
P456 C470 1.812 . S
P456 C476 1.803 . S
P456 C482 1.819 . S
H457 C471 0.941 . S
H458 C472 0.939 . S
H459 C474 0.940 . S
H460 C475 0.940 . S
H461 C477 0.939 . S
H462 C478 0.942 . S
H463 C480 0.940 . S
H464 C481 0.939 . S
H465 C483 0.941 . S
H466 C487 0.939 . S
O467 P456 1.490 . S
H468 C484 0.939 . S
H469 C486 0.940 . S
C470 P456 1.812 . S
C470 C471 1.389 . S
C470 C475 1.391 . S
C471 H457 0.941 . S
C471 C470 1.389 . S
C471 C472 1.397 . S
C472 H458 0.939 . S
C472 C471 1.397 . S
C472 C473 1.378 . S
C473 C472 1.378 . S
C473 C474 1.378 . S
C474 H459 0.940 . S
C474 C473 1.378 . S
C474 C475 1.396 . S
C475 H460 0.940 . S
C475 C470 1.391 . S
C475 C474 1.396 . S
C476 P456 1.803 . S
C476 C477 1.378 . S
C476 C481 1.400 . S
C477 H461 0.939 . S
C477 C476 1.378 . S
C477 C478 1.361 . S
C478 H462 0.942 . S
C478 C477 1.361 . S
C478 C479 1.369 . S
C479 C478 1.369 . S
C479 C480 1.404 . S
C480 H463 0.940 . S
C480 C479 1.404 . S
C480 C481 1.389 . S
C481 H464 0.939 . S
C481 C476 1.400 . S
C481 C480 1.389 . S
C482 P456 1.819 . S
C482 C483 1.391 . S
C482 C487 1.391 . S
C483 H465 0.941 . S
C483 C482 1.391 . S
C483 C484 1.396 . S
C484 H468 0.939 . S
C484 C483 1.396 . S
C484 C485 1.397 . S
C485 C484 1.397 . S
C485 C486 1.385 . S
C486 H469 0.940 . S
C486 C485 1.385 . S
C486 C487 1.388 . S
C487 H466 0.939 . S
C487 C482 1.391 . S
C487 C486 1.388 . S
P488 O499 1.490 . S
P488 C502 1.812 1_554 S
P488 C508 1.803 . S
P488 C514 1.819 . S
H489 C503 0.941 . S
H490 C504 0.939 . S
H491 C506 0.940 . S
H492 C507 0.940 . S
H493 C509 0.939 . S
H494 C510 0.942 . S
H495 C512 0.940 . S
H496 C513 0.939 . S
H497 C515 0.941 . S
H498 C519 0.939 . S
O499 P488 1.490 . S
H500 C516 0.939 . S
H501 C518 0.940 . S
C502 P488 1.812 1_556 S
C502 C503 1.389 . S
C502 C507 1.391 . S
C503 H489 0.941 . S
C503 C502 1.389 . S
C503 C504 1.397 . S
C504 H490 0.939 . S
C504 C503 1.397 . S
C504 C505 1.378 . S
C505 C504 1.378 . S
C505 C506 1.378 . S
C506 H491 0.940 . S
C506 C505 1.378 . S
C506 C507 1.396 . S
C507 H492 0.940 . S
C507 C502 1.391 . S
C507 C506 1.396 . S
C508 P488 1.803 . S
C508 C509 1.378 . S
C508 C513 1.400 . S
C509 H493 0.939 . S
C509 C508 1.378 . S
C509 C510 1.361 . S
C510 H494 0.942 . S
C510 C509 1.361 . S
C510 C511 1.369 . S
C511 C510 1.369 . S
C511 C512 1.404 . S
C512 H495 0.940 . S
C512 C511 1.404 . S
C512 C513 1.389 . S
C513 H496 0.939 . S
C513 C508 1.400 . S
C513 C512 1.389 . S
C514 P488 1.819 . S
C514 C515 1.391 1_554 S
C514 C519 1.391 . S
C515 H497 0.941 . S
C515 C514 1.391 1_556 S
C515 C516 1.396 . S
C516 H500 0.939 . S
C516 C515 1.396 . S
C516 C517 1.397 1_556 S
C517 C516 1.397 1_554 S
C517 C518 1.385 . S
C518 H501 0.940 . S
C518 C517 1.385 . S
C518 C519 1.388 . S
C519 H498 0.939 . S
C519 C514 1.391 . S
C519 C518 1.388 . S
P520 O531 1.490 . S
P520 C534 1.812 . S
P520 C540 1.803 . S
P520 C546 1.819 . S
H521 C535 0.941 . S
H522 C536 0.939 . S
H523 C538 0.940 . S
H524 C539 0.940 . S
H525 C541 0.939 . S
H526 C542 0.942 . S
H527 C544 0.940 . S
H528 C545 0.939 . S
H529 C547 0.941 . S
H530 C551 0.939 . S
O531 P520 1.490 . S
H532 C548 0.939 . S
H533 C550 0.940 . S
C534 P520 1.812 . S
C534 C535 1.389 . S
C534 C539 1.391 . S
C535 H521 0.941 . S
C535 C534 1.389 . S
C535 C536 1.397 . S
C536 H522 0.939 . S
C536 C535 1.397 . S
C536 C537 1.378 . S
C537 C536 1.378 . S
C537 C538 1.378 . S
C538 H523 0.940 . S
C538 C537 1.378 . S
C538 C539 1.396 . S
C539 H524 0.940 . S
C539 C534 1.391 . S
C539 C538 1.396 . S
C540 P520 1.803 . S
C540 C541 1.378 . S
C540 C545 1.400 . S
C541 H525 0.939 . S
C541 C540 1.378 . S
C541 C542 1.361 . S
C542 H526 0.942 . S
C542 C541 1.361 . S
C542 C543 1.369 . S
C543 C542 1.369 . S
C543 C544 1.404 . S
C544 H527 0.940 . S
C544 C543 1.404 . S
C544 C545 1.389 . S
C545 H528 0.939 . S
C545 C540 1.400 . S
C545 C544 1.389 . S
C546 P520 1.819 . S
C546 C547 1.391 . S
C546 C551 1.391 . S
C547 H529 0.941 . S
C547 C546 1.391 . S
C547 C548 1.396 . S
C548 H532 0.939 . S
C548 C547 1.396 . S
C548 C549 1.397 . S
C549 C548 1.397 . S
C549 C550 1.385 . S
C550 H533 0.940 . S
C550 C549 1.385 . S
C550 C551 1.388 . S
C551 H530 0.939 . S
C551 C546 1.391 . S
C551 C550 1.388 . S
P552 O563 1.490 . S
P552 C566 1.812 1_655 S
P552 C572 1.803 . S
P552 C578 1.819 . S
H553 C567 0.941 . S
H554 C568 0.939 . S
H555 C570 0.940 . S
H556 C571 0.940 . S
H557 C573 0.939 . S
H558 C574 0.942 . S
H559 C576 0.940 . S
H560 C577 0.939 . S
H561 C579 0.941 . S
H562 C583 0.939 . S
O563 P552 1.490 . S
H564 C580 0.939 . S
H565 C582 0.940 . S
C566 P552 1.812 1_455 S
C566 C567 1.389 . S
C566 C571 1.391 . S
C567 H553 0.941 . S
C567 C566 1.389 . S
C567 C568 1.397 . S
C568 H554 0.939 . S
C568 C567 1.397 . S
C568 C569 1.378 . S
C569 C568 1.378 . S
C569 C570 1.378 . S
C570 H555 0.940 . S
C570 C569 1.378 . S
C570 C571 1.396 . S
C571 H556 0.940 . S
C571 C566 1.391 . S
C571 C570 1.396 . S
C572 P552 1.803 . S
C572 C573 1.378 . S
C572 C577 1.400 . S
C573 H557 0.939 . S
C573 C572 1.378 . S
C573 C574 1.361 . S
C574 H558 0.942 . S
C574 C573 1.361 . S
C574 C575 1.369 . S
C575 C574 1.369 . S
C575 C576 1.404 . S
C576 H559 0.940 . S
C576 C575 1.404 . S
C576 C577 1.389 . S
C577 H560 0.939 . S
C577 C572 1.400 . S
C577 C576 1.389 . S
C578 P552 1.819 . S
C578 C579 1.391 1_655 S
C578 C583 1.391 . S
C579 H561 0.941 . S
C579 C578 1.391 1_455 S
C579 C580 1.396 . S
C580 H564 0.939 . S
C580 C579 1.396 . S
C580 C581 1.397 . S
C581 C580 1.397 . S
C581 C582 1.385 1_455 S
C582 H565 0.940 . S
C582 C581 1.385 1_655 S
C582 C583 1.388 . S
C583 H562 0.939 . S
C583 C578 1.391 . S
C583 C582 1.388 . S
P584 O595 1.490 . S
P584 C598 1.812 . S
P584 C604 1.803 . S
P584 C610 1.819 . S
H585 C599 0.941 . S
H586 C600 0.939 . S
H587 C602 0.940 . S
H588 C603 0.940 . S
H589 C605 0.939 . S
H590 C606 0.942 . S
H591 C608 0.940 . S
H592 C609 0.939 . S
H593 C611 0.941 . S
H594 C615 0.939 . S
O595 P584 1.490 . S
H596 C612 0.939 . S
H597 C614 0.940 . S
C598 P584 1.812 . S
C598 C599 1.389 . S
C598 C603 1.391 . S
C599 H585 0.941 . S
C599 C598 1.389 . S
C599 C600 1.397 . S
C600 H586 0.939 . S
C600 C599 1.397 . S
C600 C601 1.378 . S
C601 C600 1.378 . S
C601 C602 1.378 . S
C602 H587 0.940 . S
C602 C601 1.378 . S
C602 C603 1.396 . S
C603 H588 0.940 . S
C603 C598 1.391 . S
C603 C602 1.396 . S
C604 P584 1.803 . S
C604 C605 1.378 . S
C604 C609 1.400 . S
C605 H589 0.939 . S
C605 C604 1.378 . S
C605 C606 1.361 . S
C606 H590 0.942 . S
C606 C605 1.361 . S
C606 C607 1.369 . S
C607 C606 1.369 . S
C607 C608 1.404 . S
C608 H591 0.940 . S
C608 C607 1.404 . S
C608 C609 1.389 . S
C609 H592 0.939 . S
C609 C604 1.400 . S
C609 C608 1.389 . S
C610 P584 1.819 . S
C610 C611 1.391 . S
C610 C615 1.391 . S
C611 H593 0.941 . S
C611 C610 1.391 . S
C611 C612 1.396 . S
C612 H596 0.939 . S
C612 C611 1.396 . S
C612 C613 1.397 . S
C613 C612 1.397 . S
C613 C614 1.385 . S
C614 H597 0.940 . S
C614 C613 1.385 . S
C614 C615 1.388 . S
C615 H594 0.939 . S
C615 C610 1.391 . S
C615 C614 1.388 . S
P616 O627 1.490 . S
P616 C630 1.812 1_455 S
P616 C636 1.803 . S
P616 C642 1.819 . S
H617 C631 0.941 . S
H618 C632 0.939 . S
H619 C634 0.940 . S
H620 C635 0.940 . S
H621 C637 0.939 . S
H622 C638 0.942 . S
H623 C640 0.940 . S
H624 C641 0.939 . S
H625 C643 0.941 . S
H626 C647 0.939 . S
O627 P616 1.490 . S
H628 C644 0.939 . S
H629 C646 0.940 . S
C630 P616 1.812 1_655 S
C630 C631 1.389 . S
C630 C635 1.391 . S
C631 H617 0.941 . S
C631 C630 1.389 . S
C631 C632 1.397 . S
C632 H618 0.939 . S
C632 C631 1.397 . S
C632 C633 1.378 . S
C633 C632 1.378 . S
C633 C634 1.378 . S
C634 H619 0.940 . S
C634 C633 1.378 . S
C634 C635 1.396 . S
C635 H620 0.940 . S
C635 C630 1.391 . S
C635 C634 1.396 . S
C636 P616 1.803 . S
C636 C637 1.378 . S
C636 C641 1.400 . S
C637 H621 0.939 . S
C637 C636 1.378 . S
C637 C638 1.361 . S
C638 H622 0.942 . S
C638 C637 1.361 . S
C638 C639 1.369 . S
C639 C638 1.369 . S
C639 C640 1.404 . S
C640 H623 0.940 . S
C640 C639 1.404 . S
C640 C641 1.389 . S
C641 H624 0.939 . S
C641 C636 1.400 . S
C641 C640 1.389 . S
C642 P616 1.819 . S
C642 C643 1.391 1_455 S
C642 C647 1.391 . S
C643 H625 0.941 . S
C643 C642 1.391 1_655 S
C643 C644 1.396 . S
C644 H628 0.939 . S
C644 C643 1.396 . S
C644 C645 1.397 1_655 S
C645 C644 1.397 1_455 S
C645 C646 1.385 . S
C646 H629 0.940 . S
C646 C645 1.385 . S
C646 C647 1.388 . S
C647 H626 0.939 . S
C647 C642 1.391 . S
C647 C646 1.388 . S
P648 O659 1.490 . S
P648 C662 1.812 . S
P648 C668 1.803 . S
P648 C674 1.819 . S
H649 C663 0.941 . S
H650 C664 0.939 . S
H651 C666 0.940 . S
H652 C667 0.940 . S
H653 C669 0.939 . S
H654 C670 0.942 . S
H655 C672 0.940 . S
H656 C673 0.939 . S
H657 C675 0.941 . S
H658 C679 0.939 . S
O659 P648 1.490 . S
H660 C676 0.939 . S
H661 C678 0.940 . S
C662 P648 1.812 . S
C662 C663 1.389 . S
C662 C667 1.391 . S
C663 H649 0.941 . S
C663 C662 1.389 . S
C663 C664 1.397 . S
C664 H650 0.939 . S
C664 C663 1.397 . S
C664 C665 1.378 . S
C665 C664 1.378 . S
C665 C666 1.378 . S
C666 H651 0.940 . S
C666 C665 1.378 . S
C666 C667 1.396 . S
C667 H652 0.940 . S
C667 C662 1.391 . S
C667 C666 1.396 . S
C668 P648 1.803 . S
C668 C669 1.378 . S
C668 C673 1.400 . S
C669 H653 0.939 . S
C669 C668 1.378 . S
C669 C670 1.361 . S
C670 H654 0.942 . S
C670 C669 1.361 . S
C670 C671 1.369 . S
C671 C670 1.369 . S
C671 C672 1.404 . S
C672 H655 0.940 . S
C672 C671 1.404 . S
C672 C673 1.389 . S
C673 H656 0.939 . S
C673 C668 1.400 . S
C673 C672 1.389 . S
C674 P648 1.819 . S
C674 C675 1.391 . S
C674 C679 1.391 . S
C675 H657 0.941 . S
C675 C674 1.391 . S
C675 C676 1.396 . S
C676 H660 0.939 . S
C676 C675 1.396 . S
C676 C677 1.397 . S
C677 C676 1.397 . S
C677 C678 1.385 . S
C678 H661 0.940 . S
C678 C677 1.385 . S
C678 C679 1.388 . S
C679 H658 0.939 . S
C679 C674 1.391 . S
C679 C678 1.388 . S
P680 O691 1.490 . S
P680 C694 1.812 . S
P680 C700 1.803 . S
P680 C706 1.819 . S
H681 C695 0.941 . S
H682 C696 0.939 . S
H683 C698 0.940 . S
H684 C699 0.940 . S
H685 C701 0.939 . S
H686 C702 0.942 . S
H687 C704 0.940 . S
H688 C705 0.939 . S
H689 C707 0.941 . S
H690 C711 0.939 . S
O691 P680 1.490 . S
H692 C708 0.939 . S
H693 C710 0.940 . S
C694 P680 1.812 . S
C694 C695 1.389 . S
C694 C699 1.391 . S
C695 H681 0.941 . S
C695 C694 1.389 . S
C695 C696 1.397 . S
C696 H682 0.939 . S
C696 C695 1.397 . S
C696 C697 1.378 . S
C697 C696 1.378 . S
C697 C698 1.378 . S
C698 H683 0.940 . S
C698 C697 1.378 . S
C698 C699 1.396 . S
C699 H684 0.940 . S
C699 C694 1.391 . S
C699 C698 1.396 . S
C700 P680 1.803 . S
C700 C701 1.378 . S
C700 C705 1.400 . S
C701 H685 0.939 . S
C701 C700 1.378 . S
C701 C702 1.361 . S
C702 H686 0.942 . S
C702 C701 1.361 . S
C702 C703 1.369 . S
C703 C702 1.369 . S
C703 C704 1.404 . S
C704 H687 0.940 . S
C704 C703 1.404 . S
C704 C705 1.389 . S
C705 H688 0.939 . S
C705 C700 1.400 . S
C705 C704 1.389 . S
C706 P680 1.819 . S
C706 C707 1.391 . S
C706 C711 1.391 . S
C707 H689 0.941 . S
C707 C706 1.391 . S
C707 C708 1.396 . S
C708 H692 0.939 . S
C708 C707 1.396 . S
C708 C709 1.397 . S
C709 C708 1.397 . S
C709 C710 1.385 . S
C710 H693 0.940 . S
C710 C709 1.385 . S
C710 C711 1.388 . S
C711 H690 0.939 . S
C711 C706 1.391 . S
C711 C710 1.388 . S
P712 O723 1.491 . S
P712 C726 1.775 1_565 S
P712 C732 1.837 . S
P712 C738 1.820 . S
H713 C727 0.941 . S
H714 C728 0.939 . S
H715 C730 0.940 . S
H716 C731 0.940 . S
H717 C733 0.939 . S
H718 C734 0.942 . S
H719 C736 0.940 . S
H720 C737 0.939 . S
H721 C739 0.941 . S
H722 C743 0.939 . S
O723 P712 1.491 . S
H724 C740 0.939 . S
H725 C742 0.940 . S
C726 P712 1.775 1_545 S
C726 C727 1.389 . S
C726 C731 1.391 . S
C727 H713 0.941 . S
C727 C726 1.389 . S
C727 C728 1.397 . S
C728 H714 0.939 . S
C728 C727 1.397 . S
C728 C729 1.378 . S
C729 C728 1.378 . S
C729 C730 1.378 . S
C730 H715 0.940 . S
C730 C729 1.378 . S
C730 C731 1.396 . S
C731 H716 0.940 . S
C731 C726 1.391 . S
C731 C730 1.396 . S
C732 P712 1.837 . S
C732 C733 1.378 . S
C732 C737 1.400 . S
C733 H717 0.939 . S
C733 C732 1.378 . S
C733 C734 1.361 . S
C734 H718 0.942 . S
C734 C733 1.361 . S
C734 C735 1.369 . S
C735 C734 1.369 . S
C735 C736 1.404 . S
C736 H719 0.940 . S
C736 C735 1.404 . S
C736 C737 1.389 . S
C737 H720 0.939 . S
C737 C732 1.400 . S
C737 C736 1.389 . S
C738 P712 1.820 . S
C738 C739 1.391 1_565 S
C738 C743 1.391 . S
C739 H721 0.941 . S
C739 C738 1.391 1_545 S
C739 C740 1.396 . S
C740 H724 0.939 . S
C740 C739 1.396 . S
C740 C741 1.397 1_545 S
C741 C740 1.397 1_565 S
C741 C742 1.385 . S
C742 H725 0.940 . S
C742 C741 1.385 . S
C742 C743 1.388 . S
C743 H722 0.939 . S
C743 C738 1.391 . S
C743 C742 1.388 . S
P744 O755 1.490 . S
P744 C758 1.814 . S
P744 C764 1.801 1_565 S
P744 C770 1.818 1_565 S
H745 C759 0.941 . S
H746 C760 0.939 . S
H747 C762 0.940 . S
H748 C763 0.940 . S
H749 C765 0.939 . S
H750 C766 0.942 . S
H751 C768 0.940 . S
H752 C769 0.939 . S
H753 C771 0.941 . S
H754 C775 0.939 . S
O755 P744 1.490 . S
H756 C772 0.939 . S
H757 C774 0.940 . S
C758 P744 1.814 . S
C758 C759 1.389 . S
C758 C763 1.391 . S
C759 H745 0.941 . S
C759 C758 1.389 . S
C759 C760 1.397 . S
C760 H746 0.939 . S
C760 C759 1.397 . S
C760 C761 1.378 . S
C761 C760 1.378 . S
C761 C762 1.378 . S
C762 H747 0.940 . S
C762 C761 1.378 . S
C762 C763 1.396 . S
C763 H748 0.940 . S
C763 C758 1.391 . S
C763 C762 1.396 . S
C764 P744 1.801 1_545 S
C764 C765 1.378 . S
C764 C769 1.400 . S
C765 H749 0.939 . S
C765 C764 1.378 . S
C765 C766 1.361 . S
C766 H750 0.942 . S
C766 C765 1.361 . S
C766 C767 1.369 . S
C767 C766 1.369 . S
C767 C768 1.404 . S
C768 H751 0.940 . S
C768 C767 1.404 . S
C768 C769 1.389 . S
C769 H752 0.939 . S
C769 C764 1.400 . S
C769 C768 1.389 . S
C770 P744 1.818 1_545 S
C770 C771 1.387 1_545 S
C770 C775 1.396 . S
C771 H753 0.941 . S
C771 C770 1.387 1_565 S
C771 C772 1.396 . S
C772 H756 0.939 . S
C772 C771 1.396 . S
C772 C773 1.397 . S
C773 C772 1.397 . S
C773 C774 1.385 1_565 S
C774 H757 0.940 . S
C774 C773 1.385 1_545 S
C774 C775 1.388 . S
C775 H754 0.939 . S
C775 C770 1.396 . S
C775 C774 1.388 . S
P776 O787 1.490 . S
P776 C790 1.812 . S
P776 C796 1.803 . S
P776 C802 1.819 . S
H777 C791 0.941 . S
H778 C792 0.939 . S
H779 C794 0.940 . S
H780 C795 0.940 . S
H781 C797 0.939 . S
H782 C798 0.942 . S
H783 C800 0.940 . S
H784 C801 0.939 . S
H785 C803 0.941 . S
H786 C807 0.939 . S
O787 P776 1.490 . S
H788 C804 0.939 . S
H789 C806 0.940 . S
C790 P776 1.812 . S
C790 C791 1.389 . S
C790 C795 1.391 . S
C791 H777 0.941 . S
C791 C790 1.389 . S
C791 C792 1.397 . S
C792 H778 0.939 . S
C792 C791 1.397 . S
C792 C793 1.378 . S
C793 C792 1.378 . S
C793 C794 1.378 . S
C794 H779 0.940 . S
C794 C793 1.378 . S
C794 C795 1.396 . S
C795 H780 0.940 . S
C795 C790 1.391 . S
C795 C794 1.396 . S
C796 P776 1.803 . S
C796 C797 1.378 . S
C796 C801 1.400 . S
C797 H781 0.939 . S
C797 C796 1.378 . S
C797 C798 1.361 . S
C798 H782 0.942 . S
C798 C797 1.361 . S
C798 C799 1.369 . S
C799 C798 1.369 . S
C799 C800 1.404 . S
C800 H783 0.940 . S
C800 C799 1.404 . S
C800 C801 1.389 . S
C801 H784 0.939 . S
C801 C796 1.400 . S
C801 C800 1.389 . S
C802 P776 1.819 . S
C802 C803 1.391 . S
C802 C807 1.391 . S
C803 H785 0.941 . S
C803 C802 1.391 . S
C803 C804 1.396 . S
C804 H788 0.939 . S
C804 C803 1.396 . S
C804 C805 1.397 . S
C805 C804 1.397 . S
C805 C806 1.385 . S
C806 H789 0.940 . S
C806 C805 1.385 . S
C806 C807 1.388 . S
C807 H786 0.939 . S
C807 C802 1.391 . S
C807 C806 1.388 . S
P808 O819 1.490 . S
P808 C822 1.814 . S
P808 C828 1.801 1_556 S
P808 C834 1.818 1_556 S
H809 C823 0.941 . S
H810 C824 0.939 . S
H811 C826 0.940 . S
H812 C827 0.940 . S
H813 C829 0.939 . S
H814 C830 0.942 . S
H815 C832 0.940 . S
H816 C833 0.939 . S
H817 C835 0.941 . S
H818 C839 0.939 . S
O819 P808 1.490 . S
H820 C836 0.939 . S
H821 C838 0.940 . S
C822 P808 1.814 . S
C822 C823 1.389 . S
C822 C827 1.391 . S
C823 H809 0.941 . S
C823 C822 1.389 . S
C823 C824 1.397 . S
C824 H810 0.939 . S
C824 C823 1.397 . S
C824 C825 1.378 . S
C825 C824 1.378 . S
C825 C826 1.378 . S
C826 H811 0.940 . S
C826 C825 1.378 . S
C826 C827 1.396 . S
C827 H812 0.940 . S
C827 C822 1.391 . S
C827 C826 1.396 . S
C828 P808 1.801 1_554 S
C828 C829 1.378 . S
C828 C833 1.400 . S
C829 H813 0.939 . S
C829 C828 1.378 . S
C829 C830 1.361 . S
C830 H814 0.942 . S
C830 C829 1.361 . S
C830 C831 1.369 . S
C831 C830 1.369 . S
C831 C832 1.404 . S
C832 H815 0.940 . S
C832 C831 1.404 . S
C832 C833 1.389 . S
C833 H816 0.939 . S
C833 C828 1.400 . S
C833 C832 1.389 . S
C834 P808 1.818 1_554 S
C834 C835 1.387 1_554 S
C834 C839 1.396 . S
C835 H817 0.941 . S
C835 C834 1.387 1_556 S
C835 C836 1.396 . S
C836 H820 0.939 . S
C836 C835 1.396 . S
C836 C837 1.397 . S
C837 C836 1.397 . S
C837 C838 1.385 1_556 S
C838 H821 0.940 . S
C838 C837 1.385 1_554 S
C838 C839 1.388 . S
C839 H818 0.939 . S
C839 C834 1.396 . S
C839 C838 1.388 . S
P840 O851 1.490 . S
P840 C854 1.812 . S
P840 C860 1.803 . S
P840 C866 1.819 . S
H841 C855 0.941 . S
H842 C856 0.939 . S
H843 C858 0.940 . S
H844 C859 0.940 . S
H845 C861 0.939 . S
H846 C862 0.942 . S
H847 C864 0.940 . S
H848 C865 0.939 . S
H849 C867 0.941 . S
H850 C871 0.939 . S
O851 P840 1.490 . S
H852 C868 0.939 . S
H853 C870 0.940 . S
C854 P840 1.812 . S
C854 C855 1.389 . S
C854 C859 1.391 . S
C855 H841 0.941 . S
C855 C854 1.389 . S
C855 C856 1.397 . S
C856 H842 0.939 . S
C856 C855 1.397 . S
C856 C857 1.378 . S
C857 C856 1.378 . S
C857 C858 1.378 . S
C858 H843 0.940 . S
C858 C857 1.378 . S
C858 C859 1.396 . S
C859 H844 0.940 . S
C859 C854 1.391 . S
C859 C858 1.396 . S
C860 P840 1.803 . S
C860 C861 1.378 . S
C860 C865 1.400 . S
C861 H845 0.939 . S
C861 C860 1.378 . S
C861 C862 1.361 . S
C862 H846 0.942 . S
C862 C861 1.361 . S
C862 C863 1.369 . S
C863 C862 1.369 . S
C863 C864 1.404 . S
C864 H847 0.940 . S
C864 C863 1.404 . S
C864 C865 1.389 . S
C865 H848 0.939 . S
C865 C860 1.400 . S
C865 C864 1.389 . S
C866 P840 1.819 . S
C866 C867 1.391 . S
C866 C871 1.391 . S
C867 H849 0.941 . S
C867 C866 1.391 . S
C867 C868 1.396 . S
C868 H852 0.939 . S
C868 C867 1.396 . S
C868 C869 1.397 . S
C869 C868 1.397 . S
C869 C870 1.385 . S
C870 H853 0.940 . S
C870 C869 1.385 . S
C870 C871 1.388 . S
C871 H850 0.939 . S
C871 C866 1.391 . S
C871 C870 1.388 . S
P872 O883 1.491 . S
P872 C886 1.775 1_556 S
P872 C892 1.837 . S
P872 C898 1.820 . S
H873 C887 0.941 . S
H874 C888 0.939 . S
H875 C890 0.940 . S
H876 C891 0.940 . S
H877 C893 0.939 . S
H878 C894 0.942 . S
H879 C896 0.940 . S
H880 C897 0.939 . S
H881 C899 0.941 . S
H882 C903 0.939 . S
O883 P872 1.491 . S
H884 C900 0.939 . S
H885 C902 0.940 . S
C886 P872 1.775 1_554 S
C886 C887 1.389 . S
C886 C891 1.391 . S
C887 H873 0.941 . S
C887 C886 1.389 . S
C887 C888 1.397 . S
C888 H874 0.939 . S
C888 C887 1.397 . S
C888 C889 1.378 . S
C889 C888 1.378 . S
C889 C890 1.378 . S
C890 H875 0.940 . S
C890 C889 1.378 . S
C890 C891 1.396 . S
C891 H876 0.940 . S
C891 C886 1.391 . S
C891 C890 1.396 . S
C892 P872 1.837 . S
C892 C893 1.378 . S
C892 C897 1.400 . S
C893 H877 0.939 . S
C893 C892 1.378 . S
C893 C894 1.361 . S
C894 H878 0.942 . S
C894 C893 1.361 . S
C894 C895 1.369 . S
C895 C894 1.369 . S
C895 C896 1.404 . S
C896 H879 0.940 . S
C896 C895 1.404 . S
C896 C897 1.389 . S
C897 H880 0.939 . S
C897 C892 1.400 . S
C897 C896 1.389 . S
C898 P872 1.820 . S
C898 C899 1.391 1_556 S
C898 C903 1.391 . S
C899 H881 0.941 . S
C899 C898 1.391 1_554 S
C899 C900 1.396 . S
C900 H884 0.939 . S
C900 C899 1.396 . S
C900 C901 1.397 1_554 S
C901 C900 1.397 1_556 S
C901 C902 1.385 . S
C902 H885 0.940 . S
C902 C901 1.385 . S
C902 C903 1.388 . S
C903 H882 0.939 . S
C903 C898 1.391 . S
C903 C902 1.388 . S
P904 O915 1.490 . S
P904 C918 1.812 . S
P904 C924 1.803 . S
P904 C930 1.819 . S
H905 C919 0.941 . S
H906 C920 0.939 . S
H907 C922 0.940 . S
H908 C923 0.940 . S
H909 C925 0.939 . S
H910 C926 0.942 . S
H911 C928 0.940 . S
H912 C929 0.939 . S
H913 C931 0.941 . S
H914 C935 0.939 . S
O915 P904 1.490 . S
H916 C932 0.939 . S
H917 C934 0.940 . S
C918 P904 1.812 . S
C918 C919 1.389 . S
C918 C923 1.391 . S
C919 H905 0.941 . S
C919 C918 1.389 . S
C919 C920 1.397 . S
C920 H906 0.939 . S
C920 C919 1.397 . S
C920 C921 1.378 . S
C921 C920 1.378 . S
C921 C922 1.378 . S
C922 H907 0.940 . S
C922 C921 1.378 . S
C922 C923 1.396 . S
C923 H908 0.940 . S
C923 C918 1.391 . S
C923 C922 1.396 . S
C924 P904 1.803 . S
C924 C925 1.378 . S
C924 C929 1.400 . S
C925 H909 0.939 . S
C925 C924 1.378 . S
C925 C926 1.361 . S
C926 H910 0.942 . S
C926 C925 1.361 . S
C926 C927 1.369 . S
C927 C926 1.369 . S
C927 C928 1.404 . S
C928 H911 0.940 . S
C928 C927 1.404 . S
C928 C929 1.389 . S
C929 H912 0.939 . S
C929 C924 1.400 . S
C929 C928 1.389 . S
C930 P904 1.819 . S
C930 C931 1.391 . S
C930 C935 1.391 . S
C931 H913 0.941 . S
C931 C930 1.391 . S
C931 C932 1.396 . S
C932 H916 0.939 . S
C932 C931 1.396 . S
C932 C933 1.397 . S
C933 C932 1.397 . S
C933 C934 1.385 . S
C934 H917 0.940 . S
C934 C933 1.385 . S
C934 C935 1.388 . S
C935 H914 0.939 . S
C935 C930 1.391 . S
C935 C934 1.388 . S
P936 O947 1.490 . S
P936 C950 1.814 . S
P936 C956 1.801 1_655 S
P936 C962 1.818 1_655 S
H937 C951 0.941 . S
H938 C952 0.939 . S
H939 C954 0.940 . S
H940 C955 0.940 . S
H941 C957 0.939 . S
H942 C958 0.942 . S
H943 C960 0.940 . S
H944 C961 0.939 . S
H945 C963 0.941 . S
H946 C967 0.939 . S
O947 P936 1.490 . S
H948 C964 0.939 . S
H949 C966 0.940 . S
C950 P936 1.814 . S
C950 C951 1.389 . S
C950 C955 1.391 . S
C951 H937 0.941 . S
C951 C950 1.389 . S
C951 C952 1.397 . S
C952 H938 0.939 . S
C952 C951 1.397 . S
C952 C953 1.378 . S
C953 C952 1.378 . S
C953 C954 1.378 . S
C954 H939 0.940 . S
C954 C953 1.378 . S
C954 C955 1.396 . S
C955 H940 0.940 . S
C955 C950 1.391 . S
C955 C954 1.396 . S
C956 P936 1.801 1_455 S
C956 C957 1.378 . S
C956 C961 1.400 . S
C957 H941 0.939 . S
C957 C956 1.378 . S
C957 C958 1.361 . S
C958 H942 0.942 . S
C958 C957 1.361 . S
C958 C959 1.369 . S
C959 C958 1.369 . S
C959 C960 1.404 . S
C960 H943 0.940 . S
C960 C959 1.404 . S
C960 C961 1.389 . S
C961 H944 0.939 . S
C961 C956 1.400 . S
C961 C960 1.389 . S
C962 P936 1.818 1_455 S
C962 C963 1.387 1_455 S
C962 C967 1.396 . S
C963 H945 0.941 . S
C963 C962 1.387 1_655 S
C963 C964 1.396 . S
C964 H948 0.939 . S
C964 C963 1.396 . S
C964 C965 1.397 . S
C965 C964 1.397 . S
C965 C966 1.385 1_655 S
C966 H949 0.940 . S
C966 C965 1.385 1_455 S
C966 C967 1.388 . S
C967 H946 0.939 . S
C967 C962 1.396 . S
C967 C966 1.388 . S
P968 O979 1.490 . S
P968 C982 1.812 . S
P968 C988 1.803 . S
P968 C994 1.819 . S
H969 C983 0.941 . S
H970 C984 0.939 . S
H971 C986 0.940 . S
H972 C987 0.940 . S
H973 C989 0.939 . S
H974 C990 0.942 . S
H975 C992 0.940 . S
H976 C993 0.939 . S
H977 C995 0.941 . S
H978 C999 0.939 . S
O979 P968 1.490 . S
H980 C996 0.939 . S
H981 C998 0.940 . S
C982 P968 1.812 . S
C982 C983 1.389 . S
C982 C987 1.391 . S
C983 H969 0.941 . S
C983 C982 1.389 . S
C983 C984 1.397 . S
C984 H970 0.939 . S
C984 C983 1.397 . S
C984 C985 1.378 . S
C985 C984 1.378 . S
C985 C986 1.378 . S
C986 H971 0.940 . S
C986 C985 1.378 . S
C986 C987 1.396 . S
C987 H972 0.940 . S
C987 C982 1.391 . S
C987 C986 1.396 . S
C988 P968 1.803 . S
C988 C989 1.378 . S
C988 C993 1.400 . S
C989 H973 0.939 . S
C989 C988 1.378 . S
C989 C990 1.361 . S
C990 H974 0.942 . S
C990 C989 1.361 . S
C990 C991 1.369 . S
C991 C990 1.369 . S
C991 C992 1.404 . S
C992 H975 0.940 . S
C992 C991 1.404 . S
C992 C993 1.389 . S
C993 H976 0.939 . S
C993 C988 1.400 . S
C993 C992 1.389 . S
C994 P968 1.819 . S
C994 C995 1.391 . S
C994 C999 1.391 . S
C995 H977 0.941 . S
C995 C994 1.391 . S
C995 C996 1.396 . S
C996 H980 0.939 . S
C996 C995 1.396 . S
C996 C997 1.397 . S
C997 C996 1.397 . S
C997 C998 1.385 . S
C998 H981 0.940 . S
C998 C997 1.385 . S
C998 C999 1.388 . S
C999 H978 0.939 . S
C999 C994 1.391 . S
C999 C998 1.388 . S
P1000 O1011 1.491 . S
P1000 C1014 1.775 1_655 S
P1000 C1020 1.837 . S
P1000 C1026 1.820 . S
H1001 C1015 0.941 . S
H1002 C1016 0.939 . S
H1003 C1018 0.940 . S
H1004 C1019 0.940 . S
H1005 C1021 0.939 . S
H1006 C1022 0.942 . S
H1007 C1024 0.940 . S
H1008 C1025 0.939 . S
H1009 C1027 0.941 . S
H1010 C1031 0.939 . S
O1011 P1000 1.491 . S
H1012 C1028 0.939 . S
H1013 C1030 0.940 . S
C1014 P1000 1.775 1_455 S
C1014 C1015 1.389 . S
C1014 C1019 1.391 . S
C1015 H1001 0.941 . S
C1015 C1014 1.389 . S
C1015 C1016 1.397 . S
C1016 H1002 0.939 . S
C1016 C1015 1.397 . S
C1016 C1017 1.378 . S
C1017 C1016 1.378 . S
C1017 C1018 1.378 . S
C1018 H1003 0.940 . S
C1018 C1017 1.378 . S
C1018 C1019 1.396 . S
C1019 H1004 0.940 . S
C1019 C1014 1.391 . S
C1019 C1018 1.396 . S
C1020 P1000 1.837 . S
C1020 C1021 1.378 . S
C1020 C1025 1.400 . S
C1021 H1005 0.939 . S
C1021 C1020 1.378 . S
C1021 C1022 1.361 . S
C1022 H1006 0.942 . S
C1022 C1021 1.361 . S
C1022 C1023 1.369 . S
C1023 C1022 1.369 . S
C1023 C1024 1.404 . S
C1024 H1007 0.940 . S
C1024 C1023 1.404 . S
C1024 C1025 1.389 . S
C1025 H1008 0.939 . S
C1025 C1020 1.400 . S
C1025 C1024 1.389 . S
C1026 P1000 1.820 . S
C1026 C1027 1.391 1_655 S
C1026 C1031 1.391 . S
C1027 H1009 0.941 . S
C1027 C1026 1.391 1_455 S
C1027 C1028 1.396 . S
C1028 H1012 0.939 . S
C1028 C1027 1.396 . S
C1028 C1029 1.397 1_455 S
C1029 C1028 1.397 1_655 S
C1029 C1030 1.385 . S
C1030 H1013 0.940 . S
C1030 C1029 1.385 . S
C1030 C1031 1.388 . S
C1031 H1010 0.939 . S
C1031 C1026 1.391 . S
C1031 C1030 1.388 . S
C1032 C1033 1.369 . S
C1032 C1034 1.419 . S
C1032 H1036 0.930 . S
C1033 C1032 1.369 . S
C1033 C1042 1.429 . S
C1034 C1032 1.419 . S
C1034 C1035 1.363 . S
C1034 H1037 0.929 . S
C1035 C1034 1.363 . S
C1035 C1041 1.428 . S
H1036 C1032 0.930 . S
H1037 C1034 0.929 . S
S1038 N1039 1.613 . S
S1038 N1040 1.610 . S
N1039 S1038 1.613 . S
N1039 C1042 1.350 . S
N1040 S1038 1.610 . S
N1040 C1041 1.351 . S
C1041 C1035 1.428 . S
C1041 N1040 1.351 . S
C1041 C1042 1.434 . S
C1042 C1033 1.429 . S
C1042 N1039 1.350 . S
C1042 C1041 1.434 . S
C1043 C1044 1.369 . S
C1043 C1045 1.419 . S
C1043 H1047 0.930 . S
C1044 C1043 1.369 . S
C1044 C1053 1.429 . S
C1045 C1043 1.419 . S
C1045 C1046 1.363 . S
C1045 H1048 0.929 . S
C1046 C1045 1.363 . S
C1046 C1052 1.428 . S
H1047 C1043 0.930 . S
H1048 C1045 0.929 . S
S1049 N1050 1.613 . S
S1049 N1051 1.610 . S
N1050 S1049 1.613 . S
N1050 C1053 1.350 . S
N1051 S1049 1.610 . S
N1051 C1052 1.351 . S
C1052 C1046 1.428 . S
C1052 N1051 1.351 . S
C1052 C1053 1.434 . S
C1053 C1044 1.429 . S
C1053 N1050 1.350 . S
C1053 C1052 1.434 . S
C1054 C1055 1.369 . S
C1054 C1056 1.419 . S
C1054 H1058 0.930 . S
C1055 C1054 1.369 . S
C1055 C1064 1.429 . S
C1056 C1054 1.419 . S
C1056 C1057 1.363 . S
C1056 H1059 0.929 . S
C1057 C1056 1.363 . S
C1057 C1063 1.428 . S
H1058 C1054 0.930 . S
H1059 C1056 0.929 . S
S1060 N1061 1.613 . S
S1060 N1062 1.610 . S
N1061 S1060 1.613 . S
N1061 C1064 1.350 . S
N1062 S1060 1.610 . S
N1062 C1063 1.351 . S
C1063 C1057 1.428 . S
C1063 N1062 1.351 . S
C1063 C1064 1.434 . S
C1064 C1055 1.429 . S
C1064 N1061 1.350 . S
C1064 C1063 1.434 . S
C1065 C1066 1.369 . S
C1065 C1067 1.419 . S
C1065 H1069 0.930 . S
C1066 C1065 1.369 . S
C1066 C1075 1.429 1_565 S
C1067 C1065 1.419 . S
C1067 C1068 1.363 . S
C1067 H1070 0.929 . S
C1068 C1067 1.363 . S
C1068 C1074 1.428 . S
H1069 C1065 0.930 . S
H1070 C1067 0.929 . S
S1071 N1072 1.613 . S
S1071 N1073 1.610 . S
N1072 S1071 1.613 . S
N1072 C1075 1.350 . S
N1073 S1071 1.610 . S
N1073 C1074 1.351 1_545 S
C1074 C1068 1.428 . S
C1074 N1073 1.351 1_565 S
C1074 C1075 1.434 1_565 S
C1075 C1066 1.429 1_545 S
C1075 N1072 1.350 . S
C1075 C1074 1.434 1_545 S
C1076 C1077 1.369 . S
C1076 C1078 1.419 . S
C1076 H1080 0.930 . S
C1077 C1076 1.369 . S
C1077 C1086 1.429 . S
C1078 C1076 1.419 . S
C1078 C1079 1.363 . S
C1078 H1081 0.929 . S
C1079 C1078 1.363 . S
C1079 C1085 1.428 . S
H1080 C1076 0.930 . S
H1081 C1078 0.929 . S
S1082 N1083 1.613 . S
S1082 N1084 1.610 . S
N1083 S1082 1.613 . S
N1083 C1086 1.350 . S
N1084 S1082 1.610 . S
N1084 C1085 1.351 . S
C1085 C1079 1.428 . S
C1085 N1084 1.351 . S
C1085 C1086 1.434 . S
C1086 C1077 1.429 . S
C1086 N1083 1.350 . S
C1086 C1085 1.434 . S
C1087 C1088 1.369 . S
C1087 C1089 1.419 . S
C1087 H1091 0.930 . S
C1088 C1087 1.369 . S
C1088 C1097 1.429 1_556 S
C1089 C1087 1.419 . S
C1089 C1090 1.363 . S
C1089 H1092 0.929 . S
C1090 C1089 1.363 . S
C1090 C1096 1.428 . S
H1091 C1087 0.930 . S
H1092 C1089 0.929 . S
S1093 N1094 1.613 . S
S1093 N1095 1.610 . S
N1094 S1093 1.613 . S
N1094 C1097 1.350 . S
N1095 S1093 1.610 . S
N1095 C1096 1.351 1_554 S
C1096 C1090 1.428 . S
C1096 N1095 1.351 1_556 S
C1096 C1097 1.434 1_556 S
C1097 C1088 1.429 1_554 S
C1097 N1094 1.350 . S
C1097 C1096 1.434 1_554 S
C1098 C1099 1.369 . S
C1098 C1100 1.419 . S
C1098 H1102 0.930 . S
C1099 C1098 1.369 . S
C1099 C1108 1.429 . S
C1100 C1098 1.419 . S
C1100 C1101 1.363 . S
C1100 H1103 0.929 . S
C1101 C1100 1.363 . S
C1101 C1107 1.428 . S
H1102 C1098 0.930 . S
H1103 C1100 0.929 . S
S1104 N1105 1.613 . S
S1104 N1106 1.610 . S
N1105 S1104 1.613 . S
N1105 C1108 1.350 . S
N1106 S1104 1.610 . S
N1106 C1107 1.351 . S
C1107 C1101 1.428 . S
C1107 N1106 1.351 . S
C1107 C1108 1.434 . S
C1108 C1099 1.429 . S
C1108 N1105 1.350 . S
C1108 C1107 1.434 . S
C1109 C1110 1.369 . S
C1109 C1111 1.419 . S
C1109 H1113 0.930 1_554 S
C1110 C1109 1.369 . S
C1110 C1119 1.429 . S
C1111 C1109 1.419 . S
C1111 C1112 1.363 . S
C1111 H1114 0.929 . S
C1112 C1111 1.363 . S
C1112 C1118 1.428 . S
H1113 C1109 0.930 1_556 S
H1114 C1111 0.929 . S
S1115 N1116 1.613 . S
S1115 N1117 1.610 . S
N1116 S1115 1.613 . S
N1116 C1119 1.350 . S
N1117 S1115 1.610 . S
N1117 C1118 1.351 . S
C1118 C1112 1.428 . S
C1118 N1117 1.351 . S
C1118 C1119 1.434 . S
C1119 C1110 1.429 . S
C1119 N1116 1.350 . S
C1119 C1118 1.434 . S
C1120 C1121 1.369 . S
C1120 C1122 1.419 . S
C1120 H1124 0.930 . S
C1121 C1120 1.369 . S
C1121 C1130 1.429 . S
C1122 C1120 1.419 . S
C1122 C1123 1.363 . S
C1122 H1125 0.929 . S
C1123 C1122 1.363 . S
C1123 C1129 1.428 . S
H1124 C1120 0.930 . S
H1125 C1122 0.929 . S
S1126 N1127 1.613 . S
S1126 N1128 1.610 . S
N1127 S1126 1.613 . S
N1127 C1130 1.350 . S
N1128 S1126 1.610 . S
N1128 C1129 1.351 . S
C1129 C1123 1.428 . S
C1129 N1128 1.351 . S
C1129 C1130 1.434 . S
C1130 C1121 1.429 . S
C1130 N1127 1.350 . S
C1130 C1129 1.434 . S
C1131 C1132 1.369 1_455 S
C1131 C1133 1.419 1_455 S
C1131 H1135 0.930 . S
C1132 C1131 1.369 1_655 S
C1132 C1141 1.429 . S
C1133 C1131 1.419 1_655 S
C1133 C1134 1.363 . S
C1133 H1136 0.929 1_655 S
C1134 C1133 1.363 . S
C1134 C1140 1.428 . S
H1135 C1131 0.930 . S
H1136 C1133 0.929 1_455 S
S1137 N1138 1.613 . S
S1137 N1139 1.610 . S
N1138 S1137 1.613 . S
N1138 C1141 1.350 . S
N1139 S1137 1.610 . S
N1139 C1140 1.351 . S
C1140 C1134 1.428 . S
C1140 N1139 1.351 . S
C1140 C1141 1.434 . S
C1141 C1132 1.429 . S
C1141 N1138 1.350 . S
C1141 C1140 1.434 . S
C1142 C1143 1.369 . S
C1142 C1144 1.419 . S
C1142 H1146 0.930 . S
C1143 C1142 1.369 . S
C1143 C1152 1.429 . S
C1144 C1142 1.419 . S
C1144 C1145 1.363 . S
C1144 H1147 0.929 . S
C1145 C1144 1.363 . S
C1145 C1151 1.428 . S
H1146 C1142 0.930 . S
H1147 C1144 0.929 . S
S1148 N1149 1.613 . S
S1148 N1150 1.610 . S
N1149 S1148 1.613 . S
N1149 C1152 1.350 . S
N1150 S1148 1.610 . S
N1150 C1151 1.351 . S
C1151 C1145 1.428 . S
C1151 N1150 1.351 . S
C1151 C1152 1.434 . S
C1152 C1143 1.429 . S
C1152 N1149 1.350 . S
C1152 C1151 1.434 . S
C1153 C1154 1.369 . S
C1153 C1155 1.419 . S
C1153 H1157 0.930 . S
C1154 C1153 1.369 . S
C1154 C1163 1.429 1_455 S
C1155 C1153 1.419 . S
C1155 C1156 1.363 . S
C1155 H1158 0.929 . S
C1156 C1155 1.363 . S
C1156 C1162 1.462 . S
H1157 C1153 0.930 . S
H1158 C1155 0.929 . S
S1159 N1160 1.613 . S
S1159 N1161 1.610 . S
N1160 S1159 1.613 . S
N1160 C1163 1.350 . S
N1161 S1159 1.610 . S
N1161 C1162 1.327 1_655 S
C1162 C1156 1.462 . S
C1162 N1161 1.327 1_455 S
C1162 C1163 1.424 1_455 S
C1163 C1154 1.429 1_655 S
C1163 N1160 1.350 . S
C1163 C1162 1.424 1_655 S
C1164 C1165 1.369 . S
C1164 C1166 1.419 . S
C1164 H1168 0.930 . S
C1165 C1164 1.369 . S
C1165 C1174 1.429 . S
C1166 C1164 1.419 . S
C1166 C1167 1.363 . S
C1166 H1169 0.929 . S
C1167 C1166 1.363 . S
C1167 C1173 1.428 . S
H1168 C1164 0.930 . S
H1169 C1166 0.929 . S
S1170 N1171 1.613 . S
S1170 N1172 1.610 . S
N1171 S1170 1.613 . S
N1171 C1174 1.350 . S
N1172 S1170 1.610 . S
N1172 C1173 1.351 . S
C1173 C1167 1.428 . S
C1173 N1172 1.351 . S
C1173 C1174 1.434 . S
C1174 C1165 1.429 . S
C1174 N1171 1.350 . S
C1174 C1173 1.434 . S
C1175 C1176 1.369 . S
C1175 C1177 1.419 . S
C1175 H1179 0.930 . S
C1176 C1175 1.369 . S
C1176 C1185 1.429 . S
C1177 C1175 1.419 . S
C1177 C1178 1.363 . S
C1177 H1180 0.929 . S
C1178 C1177 1.363 . S
C1178 C1184 1.428 . S
H1179 C1175 0.930 . S
H1180 C1177 0.929 . S
S1181 N1182 1.613 . S
S1181 N1183 1.610 . S
N1182 S1181 1.613 . S
N1182 C1185 1.350 . S
N1183 S1181 1.610 . S
N1183 C1184 1.351 . S
C1184 C1178 1.428 . S
C1184 N1183 1.351 . S
C1184 C1185 1.434 . S
C1185 C1176 1.429 . S
C1185 N1182 1.350 . S
C1185 C1184 1.434 . S
C1186 C1187 1.369 1_545 S
C1186 C1188 1.419 . S
C1186 H1190 0.930 . S
C1187 C1186 1.369 1_565 S
C1187 C1196 1.429 . S
C1188 C1186 1.419 . S
C1188 C1189 1.363 1_545 S
C1188 H1191 0.929 . S
C1189 C1188 1.363 1_565 S
C1189 C1195 1.428 . S
H1190 C1186 0.930 . S
H1191 C1188 0.929 . S
S1192 N1193 1.613 . S
S1192 N1194 1.610 . S
N1193 S1192 1.613 . S
N1193 C1196 1.350 . S
N1194 S1192 1.610 . S
N1194 C1195 1.351 . S
C1195 C1189 1.428 . S
C1195 N1194 1.351 . S
C1195 C1196 1.434 . S
C1196 C1187 1.429 . S
C1196 N1193 1.350 . S
C1196 C1195 1.434 . S
C1197 C1198 1.369 . S
C1197 C1199 1.419 . S
C1197 H1201 0.930 . S
C1198 C1197 1.369 . S
C1198 C1207 1.429 1_545 S
C1199 C1197 1.419 . S
C1199 C1200 1.363 . S
C1199 H1202 0.929 . S
C1200 C1199 1.363 . S
C1200 C1206 1.428 . S
H1201 C1197 0.930 . S
H1202 C1199 0.929 . S
S1203 N1204 1.613 . S
S1203 N1205 1.610 . S
N1204 S1203 1.613 . S
N1204 C1207 1.350 . S
N1205 S1203 1.610 . S
N1205 C1206 1.351 1_565 S
C1206 C1200 1.428 . S
C1206 N1205 1.351 1_545 S
C1206 C1207 1.434 1_545 S
C1207 C1198 1.429 1_565 S
C1207 N1204 1.350 . S
C1207 C1206 1.434 1_565 S
C1208 C1209 1.369 . S
C1208 C1210 1.419 . S
C1208 H1212 0.930 . S
C1209 C1208 1.369 . S
C1209 C1218 1.429 . S
C1210 C1208 1.419 . S
C1210 C1211 1.363 . S
C1210 H1213 0.929 . S
C1211 C1210 1.363 . S
C1211 C1217 1.428 . S
H1212 C1208 0.930 . S
H1213 C1210 0.929 . S
S1214 N1215 1.613 . S
S1214 N1216 1.610 . S
N1215 S1214 1.613 . S
N1215 C1218 1.350 . S
N1216 S1214 1.610 . S
N1216 C1217 1.351 . S
C1217 C1211 1.428 . S
C1217 N1216 1.351 . S
C1217 C1218 1.434 . S
C1218 C1209 1.429 . S
C1218 N1215 1.350 . S
C1218 C1217 1.434 . S
C1219 C1220 1.369 1_556 S
C1219 C1221 1.419 1_556 S
C1219 H1223 0.930 . S
C1220 C1219 1.369 1_554 S
C1220 C1229 1.429 . S
C1221 C1219 1.419 1_554 S
C1221 C1222 1.363 . S
C1221 H1224 0.929 1_554 S
C1222 C1221 1.363 . S
C1222 C1228 1.428 . S
H1223 C1219 0.930 . S
H1224 C1221 0.929 1_556 S
S1225 N1226 1.613 . S
S1225 N1227 1.610 . S
N1226 S1225 1.613 . S
N1226 C1229 1.350 . S
N1227 S1225 1.610 . S
N1227 C1228 1.351 . S
C1228 C1222 1.428 . S
C1228 N1227 1.351 . S
C1228 C1229 1.434 . S
C1229 C1220 1.429 . S
C1229 N1226 1.350 . S
C1229 C1228 1.434 . S
C1230 C1231 1.369 . S
C1230 C1232 1.419 . S
C1230 H1234 0.930 . S
C1231 C1230 1.369 . S
C1231 C1240 1.429 . S
C1232 C1230 1.419 . S
C1232 C1233 1.363 . S
C1232 H1235 0.929 . S
C1233 C1232 1.363 . S
C1233 C1239 1.428 . S
H1234 C1230 0.930 . S
H1235 C1232 0.929 . S
S1236 N1237 1.613 . S
S1236 N1238 1.610 . S
N1237 S1236 1.613 . S
N1237 C1240 1.350 . S
N1238 S1236 1.610 . S
N1238 C1239 1.351 . S
C1239 C1233 1.428 . S
C1239 N1238 1.351 . S
C1239 C1240 1.434 . S
C1240 C1231 1.429 . S
C1240 N1237 1.350 . S
C1240 C1239 1.434 . S
C1241 C1242 1.377 . S
C1241 C1243 1.424 . S
C1241 H1245 0.916 1_556 S
C1242 C1241 1.377 . S
C1242 C1251 1.429 . S
C1243 C1241 1.424 . S
C1243 C1244 1.363 . S
C1243 H1246 0.929 1_556 S
C1244 C1243 1.363 . S
C1244 C1250 1.428 . S
H1245 C1241 0.916 1_554 S
H1246 C1243 0.929 1_554 S
S1247 N1248 1.613 . S
S1247 N1249 1.610 . S
N1248 S1247 1.613 . S
N1248 C1251 1.350 . S
N1249 S1247 1.610 . S
N1249 C1250 1.351 . S
C1250 C1244 1.428 . S
C1250 N1249 1.351 . S
C1250 C1251 1.434 . S
C1251 C1242 1.429 . S
C1251 N1248 1.350 . S
C1251 C1250 1.434 . S
C1252 C1253 1.369 . S
C1252 C1254 1.419 . S
C1252 H1256 0.930 . S
C1253 C1252 1.369 . S
C1253 C1262 1.429 . S
C1254 C1252 1.419 . S
C1254 C1255 1.363 . S
C1254 H1257 0.929 . S
C1255 C1254 1.363 . S
C1255 C1261 1.428 . S
H1256 C1252 0.930 . S
H1257 C1254 0.929 . S
S1258 N1259 1.613 . S
S1258 N1260 1.610 . S
N1259 S1258 1.613 . S
N1259 C1262 1.350 . S
N1260 S1258 1.610 . S
N1260 C1261 1.351 . S
C1261 C1255 1.428 . S
C1261 N1260 1.351 . S
C1261 C1262 1.434 . S
C1262 C1253 1.429 . S
C1262 N1259 1.350 . S
C1262 C1261 1.434 . S
C1263 C1264 1.369 . S
C1263 C1265 1.419 . S
C1263 H1267 0.930 . S
C1264 C1263 1.369 . S
C1264 C1273 1.410 1_455 S
C1265 C1263 1.419 . S
C1265 C1266 1.363 . S
C1265 H1268 0.929 . S
C1266 C1265 1.363 . S
C1266 C1272 1.428 . S
H1267 C1263 0.930 . S
H1268 C1265 0.929 . S
S1269 N1270 1.613 . S
S1269 N1271 1.610 . S
N1270 S1269 1.613 . S
N1270 C1273 1.380 . S
N1271 S1269 1.610 . S
N1271 C1272 1.351 1_655 S
C1272 C1266 1.428 . S
C1272 N1271 1.351 1_455 S
C1272 C1273 1.423 1_455 S
C1273 C1264 1.410 1_655 S
C1273 N1270 1.380 . S
C1273 C1272 1.423 1_655 S
C1274 C1275 1.369 . S
C1274 C1276 1.419 . S
C1274 H1278 0.930 . S
C1275 C1274 1.369 . S
C1275 C1284 1.429 . S
C1276 C1274 1.419 . S
C1276 C1277 1.363 . S
C1276 H1279 0.929 . S
C1277 C1276 1.363 . S
C1277 C1283 1.428 . S
H1278 C1274 0.930 . S
H1279 C1276 0.929 . S
S1280 N1281 1.613 . S
S1280 N1282 1.610 . S
N1281 S1280 1.613 . S
N1281 C1284 1.350 . S
N1282 S1280 1.610 . S
N1282 C1283 1.351 . S
C1283 C1277 1.428 . S
C1283 N1282 1.351 . S
C1283 C1284 1.434 . S
C1284 C1275 1.429 . S
C1284 N1281 1.350 . S
C1284 C1283 1.434 . S
C1285 C1286 1.369 . S
C1285 C1287 1.419 . S
C1285 H1289 0.930 . S
C1286 C1285 1.369 . S
C1286 C1295 1.429 1_655 S
C1287 C1285 1.419 . S
C1287 C1288 1.363 . S
C1287 H1290 0.929 . S
C1288 C1287 1.363 . S
C1288 C1294 1.450 . S
H1289 C1285 0.930 . S
H1290 C1287 0.929 . S
S1291 N1292 1.613 . S
S1291 N1293 1.610 . S
N1292 S1291 1.613 . S
N1292 C1295 1.350 . S
N1293 S1291 1.610 . S
N1293 C1294 1.334 1_455 S
C1294 C1288 1.450 . S
C1294 N1293 1.334 1_655 S
C1294 C1295 1.428 1_655 S
C1295 C1286 1.429 1_455 S
C1295 N1292 1.350 . S
C1295 C1294 1.428 1_455 S
C1296 C1297 1.369 . S
C1296 C1298 1.419 . S
C1296 H1300 0.930 . S
C1297 C1296 1.369 . S
C1297 C1306 1.429 . S
C1298 C1296 1.419 . S
C1298 C1299 1.363 . S
C1298 H1301 0.929 . S
C1299 C1298 1.363 . S
C1299 C1305 1.428 . S
H1300 C1296 0.930 . S
H1301 C1298 0.929 . S
S1302 N1303 1.613 . S
S1302 N1304 1.610 . S
N1303 S1302 1.613 . S
N1303 C1306 1.350 . S
N1304 S1302 1.610 . S
N1304 C1305 1.351 . S
C1305 C1299 1.428 . S
C1305 N1304 1.351 . S
C1305 C1306 1.434 . S
C1306 C1297 1.429 . S
C1306 N1303 1.350 . S
C1306 C1305 1.434 . S
C1307 C1308 1.369 . S
C1307 C1309 1.419 . S
C1307 H1311 0.930 . S
C1308 C1307 1.369 . S
C1308 C1317 1.429 . S
C1309 C1307 1.419 . S
C1309 C1310 1.363 . S
C1309 H1312 0.929 . S
C1310 C1309 1.363 . S
C1310 C1316 1.428 . S
H1311 C1307 0.930 . S
H1312 C1309 0.929 . S
S1313 N1314 1.613 . S
S1313 N1315 1.610 . S
N1314 S1313 1.613 . S
N1314 C1317 1.350 . S
N1315 S1313 1.610 . S
N1315 C1316 1.351 . S
C1316 C1310 1.428 . S
C1316 N1315 1.351 . S
C1316 C1317 1.434 . S
C1317 C1308 1.429 . S
C1317 N1314 1.350 . S
C1317 C1316 1.434 . S
C1318 C1319 1.369 . S
C1318 C1320 1.419 . S
C1318 H1322 0.930 . S
C1319 C1318 1.369 . S
C1319 C1328 1.429 1_565 S
C1320 C1318 1.419 . S
C1320 C1321 1.363 1_565 S
C1320 H1323 0.929 . S
C1321 C1320 1.363 1_545 S
C1321 C1327 1.428 . S
H1322 C1318 0.930 . S
H1323 C1320 0.929 . S
S1324 N1325 1.613 . S
S1324 N1326 1.610 . S
N1325 S1324 1.613 . S
N1325 C1328 1.350 . S
N1326 S1324 1.610 . S
N1326 C1327 1.351 . S
C1327 C1321 1.428 . S
C1327 N1326 1.351 . S
C1327 C1328 1.434 . S
C1328 C1319 1.429 1_545 S
C1328 N1325 1.350 . S
C1328 C1327 1.434 . S
C1329 C1330 1.369 1_565 S
C1329 C1331 1.419 . S
C1329 H1333 0.930 . S
C1330 C1329 1.369 1_545 S
C1330 C1339 1.429 . S
C1331 C1329 1.419 . S
C1331 C1332 1.363 1_565 S
C1331 H1334 0.929 . S
C1332 C1331 1.363 1_545 S
C1332 C1338 1.428 . S
H1333 C1329 0.930 . S
H1334 C1331 0.929 . S
S1335 N1336 1.613 . S
S1335 N1337 1.610 . S
N1336 S1335 1.613 . S
N1336 C1339 1.350 . S
N1337 S1335 1.610 . S
N1337 C1338 1.351 . S
C1338 C1332 1.428 . S
C1338 N1337 1.351 . S
C1338 C1339 1.434 . S
C1339 C1330 1.429 . S
C1339 N1336 1.350 . S
C1339 C1338 1.434 . S
C1340 C1341 1.369 . S
C1340 C1342 1.419 . S
C1340 H1344 0.930 . S
C1341 C1340 1.369 . S
C1341 C1350 1.429 . S
C1342 C1340 1.419 . S
C1342 C1343 1.363 . S
C1342 H1345 0.929 . S
C1343 C1342 1.363 . S
C1343 C1349 1.428 . S
H1344 C1340 0.930 . S
H1345 C1342 0.929 . S
S1346 N1347 1.613 . S
S1346 N1348 1.610 . S
N1347 S1346 1.613 . S
N1347 C1350 1.350 . S
N1348 S1346 1.610 . S
N1348 C1349 1.351 . S
C1349 C1343 1.428 . S
C1349 N1348 1.351 . S
C1349 C1350 1.434 . S
C1350 C1341 1.429 . S
C1350 N1347 1.350 . S
C1350 C1349 1.434 . S
C1351 C1352 1.369 . S
C1351 C1353 1.419 . S
C1351 H1355 0.930 . S
C1352 C1351 1.369 . S
C1352 C1361 1.429 1_554 S
C1353 C1351 1.419 . S
C1353 C1354 1.363 . S
C1353 H1356 0.929 . S
C1354 C1353 1.363 . S
C1354 C1360 1.428 1_554 S
H1355 C1351 0.930 . S
H1356 C1353 0.929 . S
S1357 N1358 1.613 . S
S1357 N1359 1.610 . S
N1358 S1357 1.613 . S
N1358 C1361 1.350 . S
N1359 S1357 1.610 . S
N1359 C1360 1.351 . S
C1360 C1354 1.428 1_556 S
C1360 N1359 1.351 . S
C1360 C1361 1.434 . S
C1361 C1352 1.429 1_556 S
C1361 N1358 1.350 . S
C1361 C1360 1.434 . S
C1362 C1363 1.369 . S
C1362 C1364 1.419 . S
C1362 H1366 0.930 . S
C1363 C1362 1.369 . S
C1363 C1372 1.429 . S
C1364 C1362 1.419 . S
C1364 C1365 1.363 . S
C1364 H1367 0.929 . S
C1365 C1364 1.363 . S
C1365 C1371 1.428 . S
H1366 C1362 0.930 . S
H1367 C1364 0.929 . S
S1368 N1369 1.613 . S
S1368 N1370 1.610 . S
N1369 S1368 1.613 . S
N1369 C1372 1.350 . S
N1370 S1368 1.610 . S
N1370 C1371 1.351 . S
C1371 C1365 1.428 . S
C1371 N1370 1.351 . S
C1371 C1372 1.434 . S
C1372 C1363 1.429 . S
C1372 N1369 1.350 . S
C1372 C1371 1.434 . S
C1373 C1374 1.369 . S
C1373 C1375 1.419 1_556 S
C1373 H1377 0.930 . S
C1374 C1373 1.369 . S
C1374 C1383 1.429 . S
C1375 C1373 1.419 1_554 S
C1375 C1376 1.363 . S
C1375 H1378 0.929 . S
C1376 C1375 1.363 . S
C1376 C1382 1.428 1_554 S
H1377 C1373 0.930 . S
H1378 C1375 0.929 . S
S1379 N1380 1.613 . S
S1379 N1381 1.610 . S
N1380 S1379 1.613 . S
N1380 C1383 1.350 . S
N1381 S1379 1.610 . S
N1381 C1382 1.351 . S
C1382 C1376 1.428 1_556 S
C1382 N1381 1.351 . S
C1382 C1383 1.434 . S
C1383 C1374 1.429 . S
C1383 N1380 1.350 . S
C1383 C1382 1.434 . S
C1384 C1385 1.369 . S
C1384 C1386 1.419 . S
C1384 H1388 0.930 . S
C1385 C1384 1.369 . S
C1385 C1394 1.429 . S
C1386 C1384 1.419 . S
C1386 C1387 1.363 . S
C1386 H1389 0.929 . S
C1387 C1386 1.363 . S
C1387 C1393 1.428 . S
H1388 C1384 0.930 . S
H1389 C1386 0.929 . S
S1390 N1391 1.613 . S
S1390 N1392 1.610 . S
N1391 S1390 1.613 . S
N1391 C1394 1.350 . S
N1392 S1390 1.610 . S
N1392 C1393 1.351 . S
C1393 C1387 1.428 . S
C1393 N1392 1.351 . S
C1393 C1394 1.434 . S
C1394 C1385 1.429 . S
C1394 N1391 1.350 . S
C1394 C1393 1.434 . S
C1395 C1396 1.369 . S
C1395 C1397 1.419 1_455 S
C1395 H1399 0.930 1_455 S
C1396 C1395 1.369 . S
C1396 C1405 1.429 . S
C1397 C1395 1.419 1_655 S
C1397 C1398 1.363 1_655 S
C1397 H1400 0.929 . S
C1398 C1397 1.363 1_455 S
C1398 C1404 1.428 . S
H1399 C1395 0.930 1_655 S
H1400 C1397 0.929 . S
S1401 N1402 1.613 . S
S1401 N1403 1.610 . S
N1402 S1401 1.613 . S
N1402 C1405 1.350 . S
N1403 S1401 1.610 . S
N1403 C1404 1.351 . S
C1404 C1398 1.428 . S
C1404 N1403 1.351 . S
C1404 C1405 1.434 . S
C1405 C1396 1.429 . S
C1405 N1402 1.350 . S
C1405 C1404 1.434 . S
C1406 C1407 1.369 . S
C1406 C1408 1.419 . S
C1406 H1410 0.930 . S
C1407 C1406 1.369 . S
C1407 C1416 1.429 . S
C1408 C1406 1.419 . S
C1408 C1409 1.363 . S
C1408 H1411 0.929 . S
C1409 C1408 1.363 . S
C1409 C1415 1.428 . S
H1410 C1406 0.930 . S
H1411 C1408 0.929 . S
S1412 N1413 1.613 . S
S1412 N1414 1.610 . S
N1413 S1412 1.613 . S
N1413 C1416 1.350 . S
N1414 S1412 1.610 . S
N1414 C1415 1.351 . S
C1415 C1409 1.428 . S
C1415 N1414 1.351 . S
C1415 C1416 1.434 . S
C1416 C1407 1.429 . S
C1416 N1413 1.350 . S
C1416 C1415 1.434 . S
C1417 C1418 1.369 . S
C1417 C1419 1.419 1_655 S
C1417 H1421 0.930 . S
C1418 C1417 1.369 . S
C1418 C1427 1.429 . S
C1419 C1417 1.419 1_455 S
C1419 C1420 1.363 . S
C1419 H1422 0.929 . S
C1420 C1419 1.363 . S
C1420 C1426 1.428 1_455 S
H1421 C1417 0.930 . S
H1422 C1419 0.929 . S
S1423 N1424 1.613 . S
S1423 N1425 1.610 1_655 S
N1424 S1423 1.613 . S
N1424 C1427 1.350 . S
N1425 S1423 1.610 1_455 S
N1425 C1426 1.351 1_455 S
C1426 C1420 1.428 1_655 S
C1426 N1425 1.351 1_655 S
C1426 C1427 1.434 . S
C1427 C1418 1.429 . S
C1427 N1424 1.350 . S
C1427 C1426 1.434 . S
C1428 C1429 1.369 . S
C1428 C1430 1.419 . S
C1428 H1432 0.930 . S
C1429 C1428 1.369 . S
C1429 C1438 1.429 . S
C1430 C1428 1.419 . S
C1430 C1431 1.363 . S
C1430 H1433 0.929 . S
C1431 C1430 1.363 . S
C1431 C1437 1.428 . S
H1432 C1428 0.930 . S
H1433 C1430 0.929 . S
S1434 N1435 1.613 . S
S1434 N1436 1.610 . S
N1435 S1434 1.613 . S
N1435 C1438 1.350 . S
N1436 S1434 1.610 . S
N1436 C1437 1.351 . S
C1437 C1431 1.428 . S
C1437 N1436 1.351 . S
C1437 C1438 1.434 . S
C1438 C1429 1.429 . S
C1438 N1435 1.350 . S
C1438 C1437 1.434 . S
C1439 C1440 1.369 . S
C1439 C1441 1.419 . S
C1439 H1443 0.930 . S
C1440 C1439 1.369 . S
C1440 C1449 1.429 . S
C1441 C1439 1.419 . S
C1441 C1442 1.363 . S
C1441 H1444 0.929 . S
C1442 C1441 1.363 . S
C1442 C1448 1.428 . S
H1443 C1439 0.930 . S
H1444 C1441 0.929 . S
S1445 N1446 1.613 . S
S1445 N1447 1.610 . S
N1446 S1445 1.613 . S
N1446 C1449 1.350 . S
N1447 S1445 1.610 . S
N1447 C1448 1.351 . S
C1448 C1442 1.428 . S
C1448 N1447 1.351 . S
C1448 C1449 1.434 . S
C1449 C1440 1.429 . S
C1449 N1446 1.350 . S
C1449 C1448 1.434 . S
C1450 C1451 1.369 . S
C1450 C1452 1.419 . S
C1450 H1454 0.930 . S
C1451 C1450 1.369 . S
C1451 C1460 1.429 1_545 S
C1452 C1450 1.419 . S
C1452 C1453 1.363 1_545 S
C1452 H1455 0.929 . S
C1453 C1452 1.363 1_565 S
C1453 C1459 1.428 . S
H1454 C1450 0.930 . S
H1455 C1452 0.929 . S
S1456 N1457 1.613 . S
S1456 N1458 1.610 . S
N1457 S1456 1.613 . S
N1457 C1460 1.350 . S
N1458 S1456 1.610 . S
N1458 C1459 1.351 . S
C1459 C1453 1.428 . S
C1459 N1458 1.351 . S
C1459 C1460 1.434 . S
C1460 C1451 1.429 1_565 S
C1460 N1457 1.350 . S
C1460 C1459 1.434 . S
C1461 C1462 1.369 . S
C1461 C1463 1.419 . S
C1461 H1465 0.930 . S
C1462 C1461 1.369 . S
C1462 C1471 1.429 1_565 S
C1463 C1461 1.419 . S
C1463 C1464 1.363 . S
C1463 H1466 0.929 . S
C1464 C1463 1.363 . S
C1464 C1470 1.428 1_565 S
H1465 C1461 0.930 . S
H1466 C1463 0.929 . S
S1467 N1468 1.613 . S
S1467 N1469 1.610 . S
N1468 S1467 1.613 . S
N1468 C1471 1.350 . S
N1469 S1467 1.610 . S
N1469 C1470 1.351 . S
C1470 C1464 1.428 1_545 S
C1470 N1469 1.351 . S
C1470 C1471 1.434 . S
C1471 C1462 1.429 1_545 S
C1471 N1468 1.350 . S
C1471 C1470 1.434 . S
C1472 C1473 1.369 . S
C1472 C1474 1.419 . S
C1472 H1476 0.930 . S
C1473 C1472 1.369 . S
C1473 C1482 1.429 . S
C1474 C1472 1.419 . S
C1474 C1475 1.363 . S
C1474 H1477 0.929 . S
C1475 C1474 1.363 . S
C1475 C1481 1.428 . S
H1476 C1472 0.930 . S
H1477 C1474 0.929 . S
S1478 N1479 1.613 . S
S1478 N1480 1.610 . S
N1479 S1478 1.613 . S
N1479 C1482 1.350 . S
N1480 S1478 1.610 . S
N1480 C1481 1.351 . S
C1481 C1475 1.428 . S
C1481 N1480 1.351 . S
C1481 C1482 1.434 . S
C1482 C1473 1.429 . S
C1482 N1479 1.350 . S
C1482 C1481 1.434 . S
C1483 C1484 1.349 1_554 S
C1483 C1485 1.424 . S
C1483 H1487 0.946 . S
C1484 C1483 1.349 1_556 S
C1484 C1493 1.429 . S
C1485 C1483 1.424 . S
C1485 C1486 1.363 1_554 S
C1485 H1488 0.929 . S
C1486 C1485 1.363 1_556 S
C1486 C1492 1.428 . S
H1487 C1483 0.946 . S
H1488 C1485 0.929 . S
S1489 N1490 1.613 . S
S1489 N1491 1.610 . S
N1490 S1489 1.613 . S
N1490 C1493 1.350 . S
N1491 S1489 1.610 . S
N1491 C1492 1.351 . S
C1492 C1486 1.428 . S
C1492 N1491 1.351 . S
C1492 C1493 1.434 . S
C1493 C1484 1.429 . S
C1493 N1490 1.350 . S
C1493 C1492 1.434 . S
C1494 C1495 1.369 . S
C1494 C1496 1.419 . S
C1494 H1498 0.930 . S
C1495 C1494 1.369 . S
C1495 C1504 1.429 . S
C1496 C1494 1.419 . S
C1496 C1497 1.363 . S
C1496 H1499 0.929 . S
C1497 C1496 1.363 . S
C1497 C1503 1.428 . S
H1498 C1494 0.930 . S
H1499 C1496 0.929 . S
S1500 N1501 1.613 . S
S1500 N1502 1.610 . S
N1501 S1500 1.613 . S
N1501 C1504 1.350 . S
N1502 S1500 1.610 . S
N1502 C1503 1.351 . S
C1503 C1497 1.428 . S
C1503 N1502 1.351 . S
C1503 C1504 1.434 . S
C1504 C1495 1.429 . S
C1504 N1501 1.350 . S
C1504 C1503 1.434 . S
C1505 C1506 1.369 . S
C1505 C1507 1.419 . S
C1505 H1509 0.930 . S
C1506 C1505 1.369 . S
C1506 C1515 1.429 1_554 S
C1507 C1505 1.419 . S
C1507 C1508 1.363 1_554 S
C1507 H1510 0.929 . S
C1508 C1507 1.363 1_556 S
C1508 C1514 1.428 . S
H1509 C1505 0.930 . S
H1510 C1507 0.929 . S
S1511 N1512 1.613 . S
S1511 N1513 1.610 . S
N1512 S1511 1.613 . S
N1512 C1515 1.350 . S
N1513 S1511 1.610 . S
N1513 C1514 1.351 . S
C1514 C1508 1.428 . S
C1514 N1513 1.351 . S
C1514 C1515 1.434 . S
C1515 C1506 1.429 1_556 S
C1515 N1512 1.350 . S
C1515 C1514 1.434 . S
C1516 C1517 1.369 . S
C1516 C1518 1.419 . S
C1516 H1520 0.930 . S
C1517 C1516 1.369 . S
C1517 C1526 1.429 . S
C1518 C1516 1.419 . S
C1518 C1519 1.363 . S
C1518 H1521 0.929 . S
C1519 C1518 1.363 . S
C1519 C1525 1.428 . S
H1520 C1516 0.930 . S
H1521 C1518 0.929 . S
S1522 N1523 1.613 . S
S1522 N1524 1.610 . S
N1523 S1522 1.613 . S
N1523 C1526 1.350 . S
N1524 S1522 1.610 . S
N1524 C1525 1.351 . S
C1525 C1519 1.428 . S
C1525 N1524 1.351 . S
C1525 C1526 1.434 . S
C1526 C1517 1.429 . S
C1526 N1523 1.350 . S
C1526 C1525 1.434 . S
C1527 C1528 1.369 . S
C1527 C1529 1.419 . S
C1527 H1531 0.930 . S
C1528 C1527 1.369 . S
C1528 C1537 1.429 . S
C1529 C1527 1.419 . S
C1529 C1530 1.363 . S
C1529 H1532 0.929 . S
C1530 C1529 1.363 . S
C1530 C1536 1.428 . S
H1531 C1527 0.930 . S
H1532 C1529 0.929 . S
S1533 N1534 1.613 . S
S1533 N1535 1.610 . S
N1534 S1533 1.613 . S
N1534 C1537 1.350 . S
N1535 S1533 1.610 . S
N1535 C1536 1.351 . S
C1536 C1530 1.428 . S
C1536 N1535 1.351 . S
C1536 C1537 1.434 . S
C1537 C1528 1.429 . S
C1537 N1534 1.350 . S
C1537 C1536 1.434 . S
C1538 C1539 1.369 . S
C1538 C1540 1.419 . S
C1538 H1542 0.930 . S
C1539 C1538 1.369 . S
C1539 C1548 1.429 . S
C1540 C1538 1.419 . S
C1540 C1541 1.363 . S
C1540 H1543 0.929 . S
C1541 C1540 1.363 . S
C1541 C1547 1.428 . S
H1542 C1538 0.930 . S
H1543 C1540 0.929 . S
S1544 N1545 1.613 . S
S1544 N1546 1.610 . S
N1545 S1544 1.613 . S
N1545 C1548 1.350 . S
N1546 S1544 1.610 . S
N1546 C1547 1.351 . S
C1547 C1541 1.428 . S
C1547 N1546 1.351 . S
C1547 C1548 1.434 . S
C1548 C1539 1.429 . S
C1548 N1545 1.350 . S
C1548 C1547 1.434 . S
C1549 C1550 1.369 . S
C1549 C1551 1.415 1_455 S
C1549 H1553 0.930 . S
C1550 C1549 1.369 . S
C1550 C1559 1.429 . S
C1551 C1549 1.415 1_655 S
C1551 C1552 1.365 . S
C1551 H1554 0.930 . S
C1552 C1551 1.365 . S
C1552 C1558 1.429 1_655 S
H1553 C1549 0.930 . S
H1554 C1551 0.930 . S
S1555 N1556 1.613 . S
S1555 N1557 1.610 1_455 S
N1556 S1555 1.613 . S
N1556 C1559 1.350 . S
N1557 S1555 1.610 1_655 S
N1557 C1558 1.351 1_655 S
C1558 C1552 1.429 1_455 S
C1558 N1557 1.351 1_455 S
C1558 C1559 1.433 . S
C1559 C1550 1.429 . S
C1559 N1556 1.350 . S
C1559 C1558 1.433 . S
C1560 C1561 1.369 . S
C1560 C1562 1.419 . S
C1560 H1564 0.930 . S
C1561 C1560 1.369 . S
C1561 C1570 1.429 . S
C1562 C1560 1.419 . S
C1562 C1563 1.363 . S
C1562 H1565 0.929 . S
C1563 C1562 1.363 . S
C1563 C1569 1.428 . S
H1564 C1560 0.930 . S
H1565 C1562 0.929 . S
S1566 N1567 1.613 . S
S1566 N1568 1.610 . S
N1567 S1566 1.613 . S
N1567 C1570 1.350 . S
N1568 S1566 1.610 . S
N1568 C1569 1.351 . S
C1569 C1563 1.428 . S
C1569 N1568 1.351 . S
C1569 C1570 1.434 . S
C1570 C1561 1.429 . S
C1570 N1567 1.350 . S
C1570 C1569 1.434 . S
C1571 C1572 1.369 . S
C1571 C1573 1.419 . S
C1571 H1575 0.930 . S
C1572 C1571 1.369 . S
C1572 C1581 1.429 . S
C1573 C1571 1.419 . S
C1573 C1574 1.363 . S
C1573 H1576 0.929 . S
C1574 C1573 1.363 . S
C1574 C1580 1.428 . S
H1575 C1571 0.930 . S
H1576 C1573 0.929 . S
S1577 N1578 1.613 . S
S1577 N1579 1.610 . S
N1578 S1577 1.613 . S
N1578 C1581 1.350 . S
N1579 S1577 1.610 . S
N1579 C1580 1.351 . S
C1580 C1574 1.428 . S
C1580 N1579 1.351 . S
C1580 C1581 1.434 . S
C1581 C1572 1.429 . S
C1581 N1578 1.350 . S
C1581 C1580 1.434 . S
C1582 C1583 1.366 1_565 S
C1582 C1584 1.417 1_565 S
C1582 H1586 0.935 . S
C1583 C1582 1.366 1_545 S
C1583 C1592 1.429 . S
C1584 C1582 1.417 1_545 S
C1584 C1585 1.363 . S
C1584 H1587 0.929 1_545 S
C1585 C1584 1.363 . S
C1585 C1591 1.428 . S
H1586 C1582 0.935 . S
H1587 C1584 0.929 1_565 S
S1588 N1589 1.613 . S
S1588 N1590 1.610 . S
N1589 S1588 1.613 . S
N1589 C1592 1.350 . S
N1590 S1588 1.610 . S
N1590 C1591 1.351 . S
C1591 C1585 1.428 . S
C1591 N1590 1.351 . S
C1591 C1592 1.434 . S
C1592 C1583 1.429 . S
C1592 N1589 1.350 . S
C1592 C1591 1.434 . S
C1593 C1594 1.369 . S
C1593 C1595 1.419 . S
C1593 H1597 0.930 . S
C1594 C1593 1.369 . S
C1594 C1603 1.429 . S
C1595 C1593 1.419 . S
C1595 C1596 1.363 . S
C1595 H1598 0.929 . S
C1596 C1595 1.363 . S
C1596 C1602 1.428 . S
H1597 C1593 0.930 . S
H1598 C1595 0.929 . S
S1599 N1600 1.613 . S
S1599 N1601 1.610 . S
N1600 S1599 1.613 . S
N1600 C1603 1.350 . S
N1601 S1599 1.610 . S
N1601 C1602 1.351 . S
C1602 C1596 1.428 . S
C1602 N1601 1.351 . S
C1602 C1603 1.434 . S
C1603 C1594 1.429 . S
C1603 N1600 1.350 . S
C1603 C1602 1.434 . S
C1604 C1605 1.369 . S
C1604 C1606 1.419 . S
C1604 H1608 0.930 . S
C1605 C1604 1.369 . S
C1605 C1614 1.429 . S
C1606 C1604 1.419 . S
C1606 C1607 1.363 . S
C1606 H1609 0.929 . S
C1607 C1606 1.363 . S
C1607 C1613 1.428 . S
H1608 C1604 0.930 . S
H1609 C1606 0.929 . S
S1610 N1611 1.613 . S
S1610 N1612 1.610 . S
N1611 S1610 1.613 . S
N1611 C1614 1.350 . S
N1612 S1610 1.610 . S
N1612 C1613 1.351 . S
C1613 C1607 1.428 . S
C1613 N1612 1.351 . S
C1613 C1614 1.434 . S
C1614 C1605 1.429 . S
C1614 N1611 1.350 . S
C1614 C1613 1.434 . S
C1615 C1616 1.369 . S
C1615 C1617 1.419 . S
C1615 H1619 0.930 . S
C1616 C1615 1.369 . S
C1616 C1625 1.429 . S
C1617 C1615 1.419 . S
C1617 C1618 1.363 . S
C1617 H1620 0.929 . S
C1618 C1617 1.363 . S
C1618 C1624 1.428 . S
H1619 C1615 0.930 . S
H1620 C1617 0.929 . S
S1621 N1622 1.613 . S
S1621 N1623 1.610 . S
N1622 S1621 1.613 . S
N1622 C1625 1.350 . S
N1623 S1621 1.610 . S
N1623 C1624 1.351 . S
C1624 C1618 1.428 . S
C1624 N1623 1.351 . S
C1624 C1625 1.434 . S
C1625 C1616 1.429 . S
C1625 N1622 1.350 . S
C1625 C1624 1.434 . S
C1626 C1627 1.369 . S
C1626 C1628 1.419 . S
C1626 H1630 0.930 . S
C1627 C1626 1.369 . S
C1627 C1636 1.429 . S
C1628 C1626 1.419 . S
C1628 C1629 1.363 . S
C1628 H1631 0.929 . S
C1629 C1628 1.363 . S
C1629 C1635 1.428 . S
H1630 C1626 0.930 . S
H1631 C1628 0.929 . S
S1632 N1633 1.613 . S
S1632 N1634 1.610 . S
N1633 S1632 1.613 . S
N1633 C1636 1.350 . S
N1634 S1632 1.610 . S
N1634 C1635 1.351 . S
C1635 C1629 1.428 . S
C1635 N1634 1.351 . S
C1635 C1636 1.434 . S
C1636 C1627 1.429 . S
C1636 N1633 1.350 . S
C1636 C1635 1.434 . S
C1637 C1638 1.369 . S
C1637 C1639 1.419 . S
C1637 H1641 0.930 . S
C1638 C1637 1.369 . S
C1638 C1647 1.429 1_554 S
C1639 C1637 1.419 . S
C1639 C1640 1.363 . S
C1639 H1642 0.929 . S
C1640 C1639 1.363 . S
C1640 C1646 1.428 1_554 S
H1641 C1637 0.930 . S
H1642 C1639 0.929 . S
S1643 N1644 1.613 . S
S1643 N1645 1.610 . S
N1644 S1643 1.613 . S
N1644 C1647 1.350 . S
N1645 S1643 1.610 . S
N1645 C1646 1.351 . S
C1646 C1640 1.428 1_556 S
C1646 N1645 1.351 . S
C1646 C1647 1.434 . S
C1647 C1638 1.429 1_556 S
C1647 N1644 1.350 . S
C1647 C1646 1.434 . S
C1648 C1649 1.369 . S
C1648 C1650 1.419 . S
C1648 H1652 0.930 . S
C1649 C1648 1.369 . S
C1649 C1658 1.429 . S
C1650 C1648 1.419 . S
C1650 C1651 1.363 . S
C1650 H1653 0.929 . S
C1651 C1650 1.363 . S
C1651 C1657 1.428 . S
H1652 C1648 0.930 . S
H1653 C1650 0.929 . S
S1654 N1655 1.613 . S
S1654 N1656 1.610 . S
N1655 S1654 1.613 . S
N1655 C1658 1.350 . S
N1656 S1654 1.610 . S
N1656 C1657 1.351 . S
C1657 C1651 1.428 . S
C1657 N1656 1.351 . S
C1657 C1658 1.434 . S
C1658 C1649 1.429 . S
C1658 N1655 1.350 . S
C1658 C1657 1.434 . S
C1659 C1660 1.369 . S
C1659 C1661 1.419 . S
C1659 H1663 0.930 . S
C1660 C1659 1.369 . S
C1660 C1669 1.429 . S
C1661 C1659 1.419 . S
C1661 C1662 1.363 . S
C1661 H1664 0.929 . S
C1662 C1661 1.363 . S
C1662 C1668 1.428 . S
H1663 C1659 0.930 . S
H1664 C1661 0.929 . S
S1665 N1666 1.613 . S
S1665 N1667 1.610 . S
N1666 S1665 1.613 . S
N1666 C1669 1.350 . S
N1667 S1665 1.610 . S
N1667 C1668 1.351 . S
C1668 C1662 1.428 . S
C1668 N1667 1.351 . S
C1668 C1669 1.434 . S
C1669 C1660 1.429 . S
C1669 N1666 1.350 . S
C1669 C1668 1.434 . S
C1670 C1671 1.369 . S
C1670 C1672 1.419 . S
C1670 H1674 0.930 . S
C1671 C1670 1.369 . S
C1671 C1680 1.429 . S
C1672 C1670 1.419 . S
C1672 C1673 1.363 . S
C1672 H1675 0.929 . S
C1673 C1672 1.363 . S
C1673 C1679 1.428 . S
H1674 C1670 0.930 . S
H1675 C1672 0.929 . S
S1676 N1677 1.613 . S
S1676 N1678 1.610 . S
N1677 S1676 1.613 . S
N1677 C1680 1.350 . S
N1678 S1676 1.610 . S
N1678 C1679 1.351 . S
C1679 C1673 1.428 . S
C1679 N1678 1.351 . S
C1679 C1680 1.434 . S
C1680 C1671 1.429 . S
C1680 N1677 1.350 . S
C1680 C1679 1.434 . S
C1681 C1682 1.369 1_655 S
C1681 C1683 1.419 . S
C1681 H1685 0.930 . S
C1682 C1681 1.369 1_455 S
C1682 C1691 1.429 . S
C1683 C1681 1.419 . S
C1683 C1684 1.363 1_655 S
C1683 H1686 0.929 . S
C1684 C1683 1.363 1_455 S
C1684 C1690 1.428 . S
H1685 C1681 0.930 . S
H1686 C1683 0.929 . S
S1687 N1688 1.613 . S
S1687 N1689 1.610 . S
N1688 S1687 1.613 . S
N1688 C1691 1.350 . S
N1689 S1687 1.610 . S
N1689 C1690 1.351 . S
C1690 C1684 1.428 . S
C1690 N1689 1.351 . S
C1690 C1691 1.434 . S
C1691 C1682 1.429 . S
C1691 N1688 1.350 . S
C1691 C1690 1.434 . S
C1692 C1693 1.369 . S
C1692 C1694 1.419 . S
C1692 H1696 0.930 . S
C1693 C1692 1.369 . S
C1693 C1702 1.429 . S
C1694 C1692 1.419 . S
C1694 C1695 1.363 . S
C1694 H1697 0.929 . S
C1695 C1694 1.363 . S
C1695 C1701 1.428 . S
H1696 C1692 0.930 . S
H1697 C1694 0.929 . S
S1698 N1699 1.613 . S
S1698 N1700 1.610 . S
N1699 S1698 1.613 . S
N1699 C1702 1.350 . S
N1700 S1698 1.610 . S
N1700 C1701 1.351 . S
C1701 C1695 1.428 . S
C1701 N1700 1.351 . S
C1701 C1702 1.434 . S
C1702 C1693 1.429 . S
C1702 N1699 1.350 . S
C1702 C1701 1.434 . S
C1703 C1704 1.369 . S
C1703 C1705 1.419 . S
C1703 H1707 0.930 . S
C1704 C1703 1.369 . S
C1704 C1713 1.429 . S
C1705 C1703 1.419 . S
C1705 C1706 1.363 . S
C1705 H1708 0.929 . S
C1706 C1705 1.363 . S
C1706 C1712 1.428 . S
H1707 C1703 0.930 . S
H1708 C1705 0.929 . S
S1709 N1710 1.613 . S
S1709 N1711 1.610 . S
N1710 S1709 1.613 . S
N1710 C1713 1.350 . S
N1711 S1709 1.610 . S
N1711 C1712 1.351 . S
C1712 C1706 1.428 . S
C1712 N1711 1.351 . S
C1712 C1713 1.434 . S
C1713 C1704 1.429 . S
C1713 N1710 1.350 . S
C1713 C1712 1.434 . S
C1714 C1715 1.369 . S
C1714 C1716 1.419 . S
C1714 H1718 0.930 . S
C1715 C1714 1.369 . S
C1715 C1724 1.429 . S
C1716 C1714 1.419 . S
C1716 C1717 1.363 . S
C1716 H1719 0.929 . S
C1717 C1716 1.363 . S
C1717 C1723 1.428 . S
H1718 C1714 0.930 . S
H1719 C1716 0.929 . S
S1720 N1721 1.613 . S
S1720 N1722 1.610 . S
N1721 S1720 1.613 . S
N1721 C1724 1.350 . S
N1722 S1720 1.610 . S
N1722 C1723 1.351 . S
C1723 C1717 1.428 . S
C1723 N1722 1.351 . S
C1723 C1724 1.434 . S
C1724 C1715 1.429 . S
C1724 N1721 1.350 . S
C1724 C1723 1.434 . S
C1725 C1726 1.369 . S
C1725 C1727 1.419 . S
C1725 H1729 0.930 . S
C1726 C1725 1.369 . S
C1726 C1735 1.429 1_545 S
C1727 C1725 1.419 . S
C1727 C1728 1.363 . S
C1727 H1730 0.929 . S
C1728 C1727 1.363 . S
C1728 C1734 1.428 . S
H1729 C1725 0.930 . S
H1730 C1727 0.929 . S
S1731 N1732 1.613 . S
S1731 N1733 1.610 . S
N1732 S1731 1.613 . S
N1732 C1735 1.350 . S
N1733 S1731 1.610 . S
N1733 C1734 1.351 1_565 S
C1734 C1728 1.428 . S
C1734 N1733 1.351 1_545 S
C1734 C1735 1.434 1_545 S
C1735 C1726 1.429 1_565 S
C1735 N1732 1.350 . S
C1735 C1734 1.434 1_565 S
C1736 C1737 1.369 . S
C1736 C1738 1.419 . S
C1736 H1740 0.930 . S
C1737 C1736 1.369 . S
C1737 C1746 1.429 . S
C1738 C1736 1.419 . S
C1738 C1739 1.363 . S
C1738 H1741 0.929 . S
C1739 C1738 1.363 . S
C1739 C1745 1.428 . S
H1740 C1736 0.930 . S
H1741 C1738 0.929 . S
S1742 N1743 1.613 . S
S1742 N1744 1.610 . S
N1743 S1742 1.613 . S
N1743 C1746 1.350 . S
N1744 S1742 1.610 . S
N1744 C1745 1.351 . S
C1745 C1739 1.428 . S
C1745 N1744 1.351 . S
C1745 C1746 1.434 . S
C1746 C1737 1.429 . S
C1746 N1743 1.350 . S
C1746 C1745 1.434 . S
C1747 C1748 1.369 . S
C1747 C1749 1.419 . S
C1747 H1751 0.930 . S
C1748 C1747 1.369 . S
C1748 C1757 1.429 . S
C1749 C1747 1.419 . S
C1749 C1750 1.363 . S
C1749 H1752 0.929 . S
C1750 C1749 1.363 . S
C1750 C1756 1.428 . S
H1751 C1747 0.930 . S
H1752 C1749 0.929 . S
S1753 N1754 1.613 . S
S1753 N1755 1.610 . S
N1754 S1753 1.613 . S
N1754 C1757 1.350 . S
N1755 S1753 1.610 . S
N1755 C1756 1.351 . S
C1756 C1750 1.428 . S
C1756 N1755 1.351 . S
C1756 C1757 1.434 . S
C1757 C1748 1.429 . S
C1757 N1754 1.350 . S
C1757 C1756 1.434 . S
C1758 C1759 1.369 . S
C1758 C1760 1.419 . S
C1758 H1762 0.930 . S
C1759 C1758 1.369 . S
C1759 C1768 1.429 . S
C1760 C1758 1.419 . S
C1760 C1761 1.363 . S
C1760 H1763 0.929 . S
C1761 C1760 1.363 . S
C1761 C1767 1.428 . S
H1762 C1758 0.930 . S
H1763 C1760 0.929 . S
S1764 N1765 1.613 . S
S1764 N1766 1.610 . S
N1765 S1764 1.613 . S
N1765 C1768 1.350 . S
N1766 S1764 1.610 . S
N1766 C1767 1.351 . S
C1767 C1761 1.428 . S
C1767 N1766 1.351 . S
C1767 C1768 1.434 . S
C1768 C1759 1.429 . S
C1768 N1765 1.350 . S
C1768 C1767 1.434 . S
C1769 C1770 1.369 . S
C1769 C1771 1.419 . S
C1769 H1773 0.930 . S
C1770 C1769 1.369 . S
C1770 C1779 1.429 . S
C1771 C1769 1.419 . S
C1771 C1772 1.363 . S
C1771 H1774 0.929 . S
C1772 C1771 1.363 . S
C1772 C1778 1.428 . S
H1773 C1769 0.930 . S
H1774 C1771 0.929 . S
S1775 N1776 1.613 . S
S1775 N1777 1.610 . S
N1776 S1775 1.613 . S
N1776 C1779 1.350 1_554 S
N1777 S1775 1.610 . S
N1777 C1778 1.351 1_554 S
C1778 C1772 1.428 . S
C1778 N1777 1.351 1_556 S
C1778 C1779 1.434 . S
C1779 C1770 1.429 . S
C1779 N1776 1.350 1_556 S
C1779 C1778 1.434 . S
C1780 C1781 1.369 . S
C1780 C1782 1.419 . S
C1780 H1784 0.930 . S
C1781 C1780 1.369 . S
C1781 C1790 1.429 . S
C1782 C1780 1.419 . S
C1782 C1783 1.363 . S
C1782 H1785 0.929 . S
C1783 C1782 1.363 . S
C1783 C1789 1.428 . S
H1784 C1780 0.930 . S
H1785 C1782 0.929 . S
S1786 N1787 1.613 . S
S1786 N1788 1.610 . S
N1787 S1786 1.613 . S
N1787 C1790 1.350 . S
N1788 S1786 1.610 . S
N1788 C1789 1.351 . S
C1789 C1783 1.428 . S
C1789 N1788 1.351 . S
C1789 C1790 1.434 . S
C1790 C1781 1.429 . S
C1790 N1787 1.350 . S
C1790 C1789 1.434 . S
C1791 C1792 1.369 . S
C1791 C1793 1.419 . S
C1791 H1795 0.930 1_455 S
C1792 C1791 1.369 . S
C1792 C1801 1.429 . S
C1793 C1791 1.419 . S
C1793 C1794 1.363 . S
C1793 H1796 0.929 . S
C1794 C1793 1.363 . S
C1794 C1800 1.428 . S
H1795 C1791 0.930 1_655 S
H1796 C1793 0.929 . S
S1797 N1798 1.613 . S
S1797 N1799 1.610 . S
N1798 S1797 1.613 . S
N1798 C1801 1.350 . S
N1799 S1797 1.610 . S
N1799 C1800 1.351 . S
C1800 C1794 1.428 . S
C1800 N1799 1.351 . S
C1800 C1801 1.434 . S
C1801 C1792 1.429 . S
C1801 N1798 1.350 . S
C1801 C1800 1.434 . S
C1802 C1803 1.369 . S
C1802 C1804 1.419 . S
C1802 H1806 0.930 . S
C1803 C1802 1.369 . S
C1803 C1812 1.429 . S
C1804 C1802 1.419 . S
C1804 C1805 1.363 . S
C1804 H1807 0.929 . S
C1805 C1804 1.363 . S
C1805 C1811 1.428 . S
H1806 C1802 0.930 . S
H1807 C1804 0.929 . S
S1808 N1809 1.613 . S
S1808 N1810 1.610 . S
N1809 S1808 1.613 . S
N1809 C1812 1.350 . S
N1810 S1808 1.610 . S
N1810 C1811 1.351 . S
C1811 C1805 1.428 . S
C1811 N1810 1.351 . S
C1811 C1812 1.434 . S
C1812 C1803 1.429 . S
C1812 N1809 1.350 . S
C1812 C1811 1.434 . S
C1813 C1814 1.369 . S
C1813 C1815 1.419 . S
C1813 H1817 0.930 . S
C1814 C1813 1.369 . S
C1814 C1823 1.429 . S
C1815 C1813 1.419 . S
C1815 C1816 1.363 . S
C1815 H1818 0.929 . S
C1816 C1815 1.363 . S
C1816 C1822 1.428 . S
H1817 C1813 0.930 . S
H1818 C1815 0.929 . S
S1819 N1820 1.613 . S
S1819 N1821 1.610 . S
N1820 S1819 1.613 . S
N1820 C1823 1.350 . S
N1821 S1819 1.610 . S
N1821 C1822 1.351 . S
C1822 C1816 1.428 . S
C1822 N1821 1.351 . S
C1822 C1823 1.434 . S
C1823 C1814 1.429 . S
C1823 N1820 1.350 . S
C1823 C1822 1.434 . S
C1035 C1017 1.783 . S
C1033 C8 1.794 . S
C1046 C921 1.629 . S
C1044 C19 1.570 . S
C1057 C985 1.463 . S
C1055 C30 1.480 . S
C1068 C953 1.932 . S
C1066 C41 1.892 . S
C1079 C729 1.784 . S
C1077 C52 1.795 . S
C1088 C63 1.892 . S
C1090 C761 1.937 . S
C1101 C665 1.630 . S
C1099 C74 1.575 . S
C1110 C85 1.482 . S
C1112 C697 1.461 . S
C1123 C889 1.786 . S
C1121 C96 1.795 . S
C1132 C107 1.893 . S
C1134 C825 1.936 . S
C1143 C118 1.567 . S
C1145 C793 1.627 . S
C1156 C857 1.466 . S
C1154 C129 1.478 . S
C1167 C633 1.793 . S
C1165 C140 1.771 . S
C1176 C151 1.516 . S
C1178 C537 1.594 . S
C1189 C601 1.481 . S
C1187 C162 1.449 . S
C1198 C173 1.831 . S
C1200 C569 1.905 . S
C1211 C345 1.793 . S
C1209 C184 1.764 . S
C1222 C377 1.901 . S
C1220 C195 1.830 . S
C1231 C206 1.520 . S
C1233 C281 1.593 . S
C1242 C217 1.453 . S
C1244 C313 1.478 . S
C1253 C228 1.766 . S
C1255 C505 1.797 . S
C1264 C239 1.833 . S
C1266 C441 1.903 . S
C1277 C409 1.589 . S
C1275 C250 1.524 . S
C1286 C261 1.458 . S
C1288 C473 1.479 . S
C1299 C293 1.363 . S
C1297 C7 1.390 . S
C1310 C325 1.426 . S
C1308 C18 1.449 . S
C1319 C29 1.353 . S
C1321 C357 1.353 . S
C1330 C40 1.148 . S
C1332 C389 1.150 . S
C1343 C421 1.364 . S
C1341 C51 1.389 . S
C1352 C62 1.144 . S
C1354 C453 1.152 . S
C1365 C485 1.432 . S
C1363 C73 1.442 . S
C1376 C517 1.351 . S
C1374 C84 1.355 . S
C1387 C549 1.369 . S
C1385 C95 1.385 . S
C1396 C106 1.148 . S
C1398 C581 1.149 . S
C1407 C117 1.443 . S
C1409 C613 1.432 . S
C1418 C128 1.355 . S
C1420 C645 1.352 . S
C1429 C139 1.248 . S
C1431 C677 1.300 . S
C1440 C150 1.254 . S
C1442 C709 1.316 . S
C1451 C161 1.213 . S
C1453 C741 1.259 . S
C1462 C172 1.044 . S
C1464 C773 1.093 . S
C1473 C183 1.261 . S
C1475 C805 1.305 . S
C1486 C837 1.084 . S
C1484 C194 1.051 . S
C1497 C869 1.316 . S
C1495 C205 1.248 . S
C1508 C901 1.260 . S
C1506 C216 1.213 . S
C1519 C933 1.306 . S
C1517 C227 1.255 . S
C1528 C238 1.056 . S
C1530 C965 1.094 . S
C1539 C249 1.242 . S
C1541 C997 1.319 . S
C1550 C260 1.216 . S
C1552 C1029 1.255 . S
C1561 C5 1.483 . S
C1563 C543 1.782 . S
C1574 C639 1.767 . S
C1572 C16 1.492 . S
C1583 C27 1.323 1_545 S
C1585 C575 1.527 . S
C1596 C607 2.112 . S
C1594 C38 1.840 1_565 S
C1605 C49 1.489 . S
C1607 C287 1.782 . S
C1616 C60 1.845 1_556 S
C1618 C319 2.111 . S
C1627 C71 1.490 . S
C1629 C351 1.763 . S
C1638 C82 1.318 1_554 S
C1640 C383 1.529 . S
C1651 C415 1.781 . S
C1649 C93 1.488 . S
C1662 C479 2.112 . S
C1660 C104 1.841 1_655 S
C1671 C115 1.501 . S
C1673 C511 1.762 . S
C1682 C126 1.332 1_455 S
C1684 C447 1.526 . S
C1695 C927 1.646 . S
C1693 C137 1.311 . S
C1706 C1023 1.601 . S
C1704 C148 1.160 . S
C1715 C159 1.133 . S
C1717 C959 1.397 . S
C1728 C991 1.914 . S
C1726 C170 1.440 . S
C1737 C181 1.315 . S
C1739 C671 1.642 . S
C1748 C192 1.448 . S
C1750 C703 1.907 . S
C1759 C203 1.166 . S
C1761 C735 1.597 . S
C1772 C767 1.406 . S
C1770 C214 1.131 . S
C1783 C799 1.648 . S
C1781 C225 1.306 . S
C1794 C863 1.907 . S
C1792 C236 1.446 . S
C1803 C247 1.165 . S
C1805 C895 1.592 . S
C1816 C831 1.412 . S
C1814 C258 1.108 . S
