# Generated by pormake.
# Topology anh, (6,3)-cn, num edge types: 1
# Building blocks:
#     Node 0, Type 0, BuildingBlock: PAMTOO_clean_sbu_0, # of connection points: 6
#     Node 1, Type 0, BuildingBlock: PAMTOO_clean_sbu_0, # of connection points: 6
#     Node 2, Type 0, BuildingBlock: PAMTOO_clean_sbu_0, # of connection points: 6
#     Node 3, Type 1, BuildingBlock: BELTOD_clean_linker_0, # of connection points: 3
#     Node 4, Type 1, BuildingBlock: BELTOD_clean_linker_0, # of connection points: 3
#     Node 5, Type 1, BuildingBlock: BELTOD_clean_linker_0, # of connection points: 3
#     Node 6, Type 1, BuildingBlock: BELTOD_clean_linker_0, # of connection points: 3
#     Node 7, Type 1, BuildingBlock: BELTOD_clean_linker_0, # of connection points: 3
#     Node 8, Type 1, BuildingBlock: BELTOD_clean_linker_0, # of connection points: 3
#     Edge 9, Type (0, 1), BuildingBlock: TEMPAE_clean_linker_10, # of connection points: 2
#     Edge 10, Type (0, 1), BuildingBlock: TEMPAE_clean_linker_10, # of connection points: 2
#     Edge 11, Type (0, 1), BuildingBlock: TEMPAE_clean_linker_10, # of connection points: 2
#     Edge 12, Type (0, 1), BuildingBlock: TEMPAE_clean_linker_10, # of connection points: 2
#     Edge 13, Type (0, 1), BuildingBlock: TEMPAE_clean_linker_10, # of connection points: 2
#     Edge 14, Type (0, 1), BuildingBlock: TEMPAE_clean_linker_10, # of connection points: 2
#     Edge 15, Type (0, 1), BuildingBlock: TEMPAE_clean_linker_10, # of connection points: 2
#     Edge 16, Type (0, 1), BuildingBlock: TEMPAE_clean_linker_10, # of connection points: 2
#     Edge 17, Type (0, 1), BuildingBlock: TEMPAE_clean_linker_10, # of connection points: 2
#     Edge 18, Type (0, 1), BuildingBlock: TEMPAE_clean_linker_10, # of connection points: 2
#     Edge 19, Type (0, 1), BuildingBlock: TEMPAE_clean_linker_10, # of connection points: 2
#     Edge 20, Type (0, 1), BuildingBlock: TEMPAE_clean_linker_10, # of connection points: 2
#     Edge 21, Type (0, 1), BuildingBlock: TEMPAE_clean_linker_10, # of connection points: 2
#     Edge 22, Type (0, 1), BuildingBlock: TEMPAE_clean_linker_10, # of connection points: 2
#     Edge 23, Type (0, 1), BuildingBlock: TEMPAE_clean_linker_10, # of connection points: 2
#     Edge 24, Type (0, 1), BuildingBlock: TEMPAE_clean_linker_10, # of connection points: 2
#     Edge 25, Type (0, 1), BuildingBlock: TEMPAE_clean_linker_10, # of connection points: 2
#     Edge 26, Type (0, 1), BuildingBlock: TEMPAE_clean_linker_10, # of connection points: 2
# Relax obj value: 0.177
# Max RMSD: 0.192
# Mean RMSD: 0.149
data_MOF--net-anh--node1-PAMTOO_clean_sbu_0--node2-BELTOD_clean_linker_0--edge1-TEMPAE_clean_linker_10
_symmetry_space_group_name_H-M    P1
_symmetry_Int_Tables_number       1
_symmetry_cell_setting            triclinic
loop_
_symmetry_equiv_pos_as_xyz
'x, y, z'
_cell_length_a     34.835811
_cell_length_b     33.631298
_cell_length_c     61.553538
_cell_angle_alpha  90.937741
_cell_angle_beta   95.252154
_cell_angle_gamma 105.10647
loop_
_atom_site_label
_atom_site_type_symbol
_atom_site_fract_x
_atom_site_fract_y
_atom_site_fract_z
_atom_type_partial_charge
Dy0 Dy 0.05539 0.61117 0.14974 0.0
Dy1 Dy 1.02659 0.51114 0.1397 0.0
C2 C 1.03903 0.57411 0.10216 0.0
O3 O 0.98942 0.59555 0.15404 0.0
O4 O 0.96944 0.53095 0.13699 0.0
O5 O 0.07905 0.67155 0.13772 0.0
O6 O 0.06654 0.66513 0.1715 0.0
O7 O 1.01928 0.52271 0.17467 0.0
O8 O 0.07056 0.58086 0.18008 0.0
O9 O 0.09344 0.52459 0.1471 0.0
O10 O 0.1109 0.59402 0.14125 0.0
O11 O 1.02681 0.44935 0.14862 0.0
O12 O 0.99288 0.45919 0.11882 0.0
C13 C 0.96098 0.56335 0.14571 0.0
O14 O 1.02758 0.5984 0.1155 0.0
O15 O 1.04882 0.54131 0.10944 0.0
C16 C 0.12331 0.71683 0.1637 0.0
C17 C 0.20044 0.7694 0.17479 0.0
C18 C 0.19543 0.72803 0.16807 0.0
C19 C 0.15722 0.70197 0.16266 0.0
C20 C 0.12805 0.75787 0.17064 0.0
C21 C 0.16632 0.78396 0.17621 0.0
C22 C 0.08323 0.68993 0.15694 0.0
C23 C 1.04649 0.54866 0.18777 0.0
C24 C 0.12069 0.559 0.14414 0.0
C25 C 0.96527 0.40116 0.13872 0.0
C26 C 0.89978 0.34128 0.15224 0.0
C27 C 0.90201 0.38352 0.1547 0.0
C28 C 0.93458 0.4132 0.14808 0.0
C29 C 0.96299 0.35917 0.13597 0.0
C30 C 0.93054 0.32945 0.14269 0.0
C31 C 1.00029 0.43227 0.13252 0.0
H32 H 0.22106 0.71572 0.16712 0.0
H33 H 0.15418 0.67029 0.15747 0.0
H34 H 0.10219 0.76985 0.17151 0.0
H35 H 0.16925 0.81573 0.18121 0.0
H36 H 0.87909 0.39366 0.16222 0.0
H37 H 0.93609 0.44556 0.15053 0.0
H38 H 0.98647 0.34937 0.12881 0.0
H39 H 0.92948 0.29717 0.14037 0.0
Dy40 Dy 0.52632 0.02296 0.5186 0.0
Dy41 Dy 0.62443 0.05226 0.5279 0.0
C42 C 0.56942 0.02763 0.56695 0.0
O43 O 0.5419 0.08976 0.52925 0.0
O44 O 0.60456 0.10784 0.51775 0.0
O45 O 0.46707 0.01016 0.52961 0.0
O46 O 0.47435 0.00267 0.49539 0.0
O47 O 0.61025 0.03486 0.49243 0.0
O48 O 0.54965 0.04936 0.48783 0.0
O49 O 0.60724 0.98533 0.53504 0.0
O50 O 0.54793 0.96667 0.51315 0.0
O51 O 0.6831 0.04747 0.52141 0.0
O52 O 0.67694 0.09265 0.54537 0.0
C53 C 0.57318 0.11802 0.52398 0.0
O54 O 0.5398 0.00712 0.55303 0.0
O55 O 0.60138 0.05291 0.56045 0.0
C56 C 0.42131 0.95472 0.50934 0.0
C57 C 0.36557 0.87651 0.50511 0.0
C58 C 0.35476 0.91124 0.51299 0.0
C59 C 0.38237 0.95001 0.515 0.0
C60 C 0.43267 0.91999 0.5022 0.0
C61 C 0.40506 0.88138 0.49996 0.0
C62 C 0.44959 0.99593 0.51038 0.0
C63 C 0.58111 0.04285 0.47972 0.0
C64 C 0.57778 0.95693 0.52454 0.0
C65 C 0.73188 0.11121 0.52489 0.0
C66 C 0.79061 0.17442 0.50825 0.0
C67 C 0.74987 0.16898 0.50131 0.0
C68 C 0.72074 0.13758 0.50955 0.0
C69 C 0.77234 0.11632 0.53179 0.0
C70 C 0.8015 0.14764 0.52355 0.0
C71 C 0.70146 0.07923 0.53428 0.0
H72 H 0.32489 0.90857 0.51749 0.0
H73 H 0.37317 0.97641 0.52073 0.0
H74 H 0.4627 0.92281 0.49789 0.0
H75 H 0.41446 0.85564 0.49355 0.0
H76 H 0.74054 0.18876 0.48937 0.0
H77 H 0.68952 0.13401 0.50407 0.0
H78 H 0.78137 0.09634 0.54373 0.0
H79 H 0.83255 0.15133 0.52942 0.0
Dy80 Dy 0.57287 0.45751 0.84978 0.0
Dy81 Dy 0.47516 0.43082 0.83912 0.0
C82 C 0.53459 0.45024 0.80183 0.0
O83 O 0.5548 0.51514 0.84136 0.0
O84 O 0.49051 0.4969 0.85029 0.0
O85 O 0.62852 0.50218 0.84691 0.0
O86 O 0.62771 0.44866 0.86625 0.0
O87 O 0.48652 0.41755 0.87431 0.0
O88 O 0.54743 0.46478 0.88093 0.0
O89 O 0.49058 0.37098 0.83558 0.0
O90 O 0.55634 0.38869 0.85051 0.0
O91 O 0.41534 0.4255 0.84762 0.0
O92 O 0.42481 0.40953 0.81471 0.0
C93 C 0.52228 0.52508 0.8459 0.0
O94 O 0.5613 0.43846 0.81462 0.0
O95 O 0.50384 0.45878 0.8098 0.0
C96 C 0.68689 0.47906 0.8497 0.0
C97 C 0.7628 0.49356 0.83439 0.0
C98 C 0.72819 0.48527 0.81954 0.0
C99 C 0.69043 0.47807 0.82715 0.0
C100 C 0.72093 0.48384 0.86444 0.0
C101 C 0.75854 0.49101 0.85689 0.0
C102 C 0.64964 0.48162 0.85828 0.0
C103 C 0.51551 0.44035 0.88791 0.0
C104 C 0.52348 0.3611 0.84271 0.0
C105 C 0.3806 0.4502 0.81919 0.0
C106 C 0.34623 0.51659 0.81238 0.0
C107 C 0.38765 0.52237 0.81216 0.0
C108 C 0.40455 0.48944 0.81534 0.0
C109 C 0.33911 0.44334 0.8179 0.0
C110 C 0.32194 0.47621 0.8142 0.0
C111 C 0.40007 0.4189 0.82733 0.0
H112 H 0.73044 0.48651 0.80212 0.0
H113 H 0.66433 0.47415 0.81549 0.0
H114 H 0.71873 0.48482 0.88188 0.0
H115 H 0.78442 0.4978 0.86885 0.0
H116 H 0.40759 0.55272 0.811 0.0
H117 H 0.43672 0.49521 0.81611 0.0
H118 H 0.3202 0.41313 0.82069 0.0
H119 H 0.2898 0.47024 0.81375 0.0
P120 P 0.61247 0.00542 0.24417 0.0
H121 H 0.57661 0.92435 0.22274 0.0
H122 H 0.50816 0.88875 0.20911 0.0
H123 H 0.4705 0.99789 0.22415 0.0
H124 H 0.53966 0.0338 0.23739 0.0
H125 H 0.68013 0.07218 0.26121 0.0
H126 H 0.72073 0.13203 0.24471 0.0
H127 H 0.64187 0.10254 0.18492 0.0
H128 H 0.60175 0.04186 0.20153 0.0
H129 H 0.61935 0.95501 0.28168 0.0
H130 H 0.59319 0.07143 0.26916 0.0
O131 O 0.64132 0.97332 0.24173 0.0
H132 H 0.61185 0.96406 0.32035 0.0
H133 H 0.5847 0.08039 0.30785 0.0
C134 C 0.56324 0.98178 0.23103 0.0
C135 C 0.55384 0.94094 0.2228 0.0
C136 C 0.51455 0.92044 0.21518 0.0
C137 C 0.48376 0.94029 0.21578 0.0
C138 C 0.49355 0.98179 0.22334 0.0
C139 C 0.53301 0.00233 0.23095 0.0
C140 C 0.63741 0.05312 0.23278 0.0
C141 C 0.67101 0.07911 0.24472 0.0
C142 C 0.69421 0.11343 0.23524 0.0
C143 C 0.68451 0.12232 0.21349 0.0
C144 C 0.65033 0.09648 0.20165 0.0
C145 C 0.62711 0.062 0.2112 0.0
C146 C 0.60767 0.01297 0.27269 0.0
C147 C 0.61213 0.98263 0.28729 0.0
C148 C 0.60743 0.98766 0.30937 0.0
C149 C 0.59772 0.02299 0.31722 0.0
C150 C 0.59276 0.05313 0.30241 0.0
C151 C 0.5975 0.04802 0.2803 0.0
P152 P 0.63146 0.55574 0.57871 0.0
H153 H 0.68258 0.50228 0.57167 0.0
H154 H 0.66878 0.43056 0.55905 0.0
H155 H 0.54481 0.42728 0.5425 0.0
H156 H 0.55909 0.50003 0.55504 0.0
H157 H 0.60156 0.61823 0.59964 0.0
H158 H 0.58235 0.6782 0.58618 0.0
H159 H 0.59052 0.6386 0.51999 0.0
H160 H 0.61094 0.5784 0.53389 0.0
H161 H 0.6783 0.56594 0.62153 0.0
H162 H 0.55512 0.51873 0.59558 0.0
O163 O 0.68037 0.5784 0.58004 0.0
H164 H 0.66009 0.54792 0.65818 0.0
H165 H 0.5366 0.50071 0.63229 0.0
C166 C 0.62203 0.50683 0.56395 0.0
C167 C 0.65262 0.48668 0.56474 0.0
C168 C 0.64459 0.4454 0.55777 0.0
C169 C 0.60561 0.42305 0.55003 0.0
C170 C 0.57519 0.44375 0.54829 0.0
C171 C 0.58332 0.48531 0.55537 0.0
C172 C 0.6067 0.59305 0.56775 0.0
C173 C 0.59796 0.62147 0.58216 0.0
C174 C 0.58692 0.65606 0.57438 0.0
C175 C 0.58467 0.66345 0.55193 0.0
C176 C 0.5922 0.63414 0.5374 0.0
C177 C 0.60338 0.59938 0.54527 0.0
C178 C 0.61803 0.54364 0.60585 0.0
C179 C 0.64729 0.55187 0.62371 0.0
C180 C 0.63682 0.5417 0.64469 0.0
C181 C 0.5969 0.5229 0.64812 0.0
C182 C 0.56765 0.51475 0.63013 0.0
C183 C 0.57815 0.52515 0.60917 0.0
P184 P 0.13241 0.76704 0.89404 0.0
H185 H 0.17832 0.80412 0.85904 0.0
H186 H 0.23009 0.78408 0.84027 0.0
H187 H 0.23582 0.69346 0.88843 0.0
H188 H 0.18329 0.7119 0.90636 0.0
H189 H 0.06003 0.78615 0.87382 0.0
H190 H 1.00081 0.74319 0.85215 0.0
H191 H 0.05799 0.64378 0.85015 0.0
H192 H 0.11682 0.68669 0.87161 0.0
H193 H 0.18293 0.76717 0.93518 0.0
H194 H 0.05852 0.72107 0.91122 0.0
O195 O 0.13404 0.81704 0.89532 0.0
H196 H 0.16958 0.73212 0.96931 0.0
H197 H 1.04468 0.68801 0.94535 0.0
C198 C 0.17779 0.76051 0.88454 0.0
C199 C 0.19179 0.78097 0.86598 0.0
C200 C 0.22117 0.76948 0.85523 0.0
C201 C 0.23726 0.73774 0.86314 0.0
C202 C 0.22464 0.7188 0.88235 0.0
C203 C 0.19469 0.7296 0.89275 0.0
C204 C 0.09296 0.73979 0.87409 0.0
C205 C 0.06024 0.75558 0.86814 0.0
C206 C 1.0264 0.73095 0.85586 0.0
C207 C 1.02481 0.69012 0.84948 0.0
C208 C 0.05856 0.67528 0.8545 0.0
C209 C 0.09222 0.69983 0.86684 0.0
C210 C 0.12218 0.74528 0.92022 0.0
C211 C 0.15277 0.74962 0.93726 0.0
C212 C 0.14498 0.72981 0.95685 0.0
C213 C 0.10615 0.70631 0.95994 0.0
C214 C 0.0752 0.70444 0.94329 0.0
C215 C 0.08313 0.72369 0.92369 0.0
P216 P 0.12023 0.47394 0.42078 0.0
H217 H 0.16221 0.49917 0.464 0.0
H218 H 0.19664 0.5669 0.48125 0.0
H219 H 0.15602 0.62576 0.42512 0.0
H220 H 0.12157 0.5584 0.40808 0.0
H221 H 0.07242 0.39112 0.40921 0.0
H222 H 1.01438 0.34619 0.42381 0.0
H223 H 1.01443 0.44251 0.47115 0.0
H224 H 0.07278 0.48738 0.45646 0.0
H225 H 0.16905 0.48653 0.38423 0.0
H226 H 1.04628 0.47692 0.39461 0.0
O227 O 0.15579 0.44887 0.42342 0.0
H228 H 0.15456 0.49783 0.34557 0.0
H229 H 1.03119 0.48699 0.35584 0.0
C230 C 0.13986 0.52368 0.43465 0.0
C231 C 0.16025 0.52671 0.45558 0.0
C232 C 0.17976 0.56536 0.46544 0.0
C233 C 0.17935 0.60152 0.45439 0.0
C234 C 0.15729 0.59835 0.43385 0.0
C235 C 0.13752 0.55976 0.42412 0.0
C236 C 0.07693 0.44242 0.43178 0.0
C237 C 0.05985 0.4026 0.42269 0.0
C238 C 1.02653 0.37707 0.43096 0.0
C239 C 1.00974 0.39087 0.44858 0.0
C240 C 1.02691 0.43095 0.45766 0.0
C241 C 0.06021 0.45664 0.44925 0.0
C242 C 0.10855 0.4799 0.39213 0.0
C243 C 0.13881 0.48619 0.37809 0.0
C244 C 0.13044 0.49253 0.35598 0.0
C245 C 0.09161 0.49295 0.34755 0.0
C246 C 0.06144 0.48707 0.36181 0.0
C247 C 0.06992 0.48086 0.38394 0.0
P248 P 0.58163 0.95776 0.80208 0.0
H249 H 0.60473 0.01301 0.84106 0.0
H250 H 0.5849 0.07478 0.85132 0.0
H251 H 0.48989 0.04643 0.79868 0.0
H252 H 0.50981 0.98456 0.78854 0.0
H253 H 0.59362 0.88251 0.78427 0.0
H254 H 0.57053 0.81026 0.79283 0.0
H255 H 0.50357 0.84325 0.84274 0.0
H256 H 0.52678 0.91623 0.83384 0.0
H257 H 0.62495 0.02144 0.77539 0.0
H258 H 0.52872 0.9103 0.76509 0.0
O259 O 0.63003 0.96999 0.81121 0.0
H260 H 0.61915 0.03297 0.73614 0.0
H261 H 0.52366 0.9211 0.72582 0.0
C262 C 0.5592 0.99462 0.8138 0.0
C263 C 0.57891 0.01939 0.83211 0.0
C264 C 0.56751 0.05472 0.83798 0.0
C265 C 0.5363 0.06584 0.82554 0.0
C266 C 0.51451 0.039 0.80833 0.0
C267 C 0.52571 0.00349 0.80261 0.0
C268 C 0.56114 0.90458 0.80804 0.0
C269 C 0.57335 0.8742 0.79678 0.0
C270 C 0.56004 0.83286 0.80166 0.0
C271 C 0.53476 0.82095 0.81826 0.0
C272 C 0.52287 0.85153 0.82979 0.0
C273 C 0.53594 0.89313 0.82467 0.0
C274 C 0.57823 0.96432 0.77305 0.0
C275 C 0.60301 -0.00078 0.76464 0.0
C276 C 0.59948 0.00595 0.7423 0.0
C277 C 0.57119 0.97771 0.72801 0.0
C278 C 0.5461 0.94297 0.73649 0.0
C279 C 0.54919 0.93667 0.7589 0.0
P280 P 0.52463 0.49991 0.12556 0.0
H281 H 0.58016 0.48956 0.16259 0.0
H282 H 0.65265 0.5073 0.16776 0.0
H283 H 0.65779 0.58789 0.11352 0.0
H284 H 0.58474 0.56811 0.10784 0.0
H285 H 0.44204 0.45469 0.12075 0.0
H286 H 0.37916 0.47134 0.12471 0.0
H287 H 0.44334 0.59485 0.14744 0.0
H288 H 0.50744 0.57787 0.14303 0.0
H289 H 0.56062 0.4523 0.09753 0.0
H290 H 0.48293 0.53309 0.08903 0.0
O291 O 0.5185 0.45269 0.1351 0.0
H292 H 0.55537 0.44011 0.05801 0.0
H293 H 0.47584 0.51949 0.04968 0.0
C294 C 0.5764 0.52729 0.13477 0.0
C295 C 0.59669 0.51203 0.15215 0.0
C296 C 0.6387 0.52227 0.15508 0.0
C297 C 0.66203 0.54862 0.14084 0.0
C298 C 0.64143 0.56657 0.12452 0.0
C299 C 0.59929 0.55595 0.1215 0.0
C300 C 0.47981 0.51472 0.13188 0.0
C301 C 0.44296 0.48534 0.12688 0.0
C302 C 0.40675 0.49501 0.12895 0.0
C303 C 0.40588 0.53451 0.13626 0.0
C304 C 0.44286 0.56403 0.14183 0.0
C305 C 0.47956 0.55438 0.13938 0.0
C306 C 0.52157 0.49289 0.09628 0.0
C307 C 0.54214 0.46712 0.08715 0.0
C308 C 0.53881 0.45993 0.06454 0.0
C309 C 0.51467 0.4783 0.05059 0.0
C310 C 0.49484 0.50495 0.05985 0.0
C311 C 0.49857 0.51246 0.08246 0.0
C312 C 0.19252 0.59246 0.13731 0.0
C313 C 0.16368 0.55821 0.1438 0.0
C314 C 0.2328 0.59173 0.13647 0.0
C315 C 0.24514 0.55604 0.14247 0.0
C316 C 0.21633 0.52169 0.14944 0.0
C317 C 0.1762 0.52309 0.1499 0.0
C318 C 0.26201 0.62897 0.12871 0.0
C319 C 0.22784 0.48312 0.15626 0.0
C320 C 0.33619 0.53229 0.11984 0.0
C321 C 0.36613 0.54399 0.13742 0.0
C322 C 0.2974 0.53718 0.12107 0.0
C323 C 0.28753 0.55371 0.14051 0.0
C324 C 0.31787 0.56647 0.15818 0.0
C325 C 0.35675 0.56181 0.15637 0.0
C326 C 0.26668 0.52382 0.10161 0.0
C327 C 0.30889 0.58384 0.17931 0.0
H328 H 0.18354 0.61983 0.13252 0.0
H329 H 0.15456 0.49647 0.1551 0.0
H330 H 0.28827 0.63952 0.141 0.0
H331 H 0.27315 0.62062 0.11341 0.0
H332 H 0.24838 0.65501 0.12559 0.0
H333 H 0.20265 0.4599 0.16236 0.0
H334 H 0.23801 0.46901 0.14219 0.0
H335 H 0.25317 0.49088 0.16926 0.0
H336 H 0.34309 0.51889 0.10503 0.0
H337 H 0.37942 0.57067 0.17011 0.0
H338 H 0.25346 0.54947 0.09689 0.0
H339 H 0.24201 0.49785 0.10593 0.0
H340 H 0.27955 0.51385 0.08727 0.0
H341 H 0.29616 0.61042 0.17615 0.0
H342 H 0.33591 0.59402 0.19117 0.0
H343 H 0.28612 0.5601 0.18685 0.0
C344 C 0.81604 0.2475 0.49735 0.0
C345 C 0.82168 0.2079 0.49963 0.0
C346 C 0.84532 0.2794 0.48934 0.0
C347 C 0.88107 0.27147 0.48349 0.0
C348 C 0.88693 0.23158 0.48576 0.0
C349 C 0.85717 0.2003 0.49379 0.0
C350 C 0.83805 0.32156 0.48719 0.0
C351 C 0.92458 0.22186 0.4796 0.0
C352 C 0.9433 0.33859 0.44367 0.0
C353 C 0.97509 0.36286 0.45768 0.0
C354 C 0.91188 0.30957 0.4519 0.0
C355 C 0.9123 0.30463 0.47471 0.0
C356 C 0.94365 0.32993 0.48899 0.0
C357 C 0.97467 0.35882 0.48031 0.0
C358 C 0.8788 0.28343 0.43615 0.0
C359 C 0.94516 0.32551 0.5134 0.0
H360 H 0.7889 0.25372 0.5021 0.0
H361 H 0.86149 0.16965 0.49523 0.0
H362 H 0.86191 0.34477 0.49718 0.0
H363 H 0.83924 0.33067 0.46997 0.0
H364 H 0.80866 0.32266 0.49244 0.0
H365 H 0.92475 0.18943 0.48263 0.0
H366 H 0.92777 0.22737 0.46206 0.0
H367 H 0.9511 0.24261 0.48906 0.0
H368 H 0.9432 0.34205 0.42619 0.0
H369 H 0.99933 0.37724 0.4912 0.0
H370 H 0.84931 0.28571 0.44065 0.0
H371 H 0.8791 0.25059 0.43707 0.0
H372 H 0.88174 0.29265 0.419 0.0
H373 H 0.91669 0.32789 0.51935 0.0
H374 H 0.97016 0.34926 0.52234 0.0
H375 H 0.94883 0.2946 0.51746 0.0
C376 C 0.5544 0.59952 0.84039 0.0
C377 C 0.52041 0.56861 0.84443 0.0
C378 C 0.55262 0.64033 0.83749 0.0
C379 C 0.51587 0.65062 0.83853 0.0
C380 C 0.48154 0.61981 0.84302 0.0
C381 C 0.48428 0.57922 0.84605 0.0
C382 C 0.58997 0.67227 0.83276 0.0
C383 C 0.44177 0.62948 0.84414 0.0
C384 C 0.52754 0.76578 0.84573 0.0
C385 C 0.52303 0.77691 0.82397 0.0
C386 C 0.52293 0.72432 0.8509 0.0
C387 C 0.51351 0.69336 0.83392 0.0
C388 C 0.50618 0.7042 0.81209 0.0
C389 C 0.51111 0.74581 0.80739 0.0
C390 C 0.53058 0.71399 0.8744 0.0
C391 C 0.49544 0.67212 0.79353 0.0
H392 H 0.58247 0.59178 0.83919 0.0
H393 H 0.45782 0.55565 0.84923 0.0
H394 H 0.58538 0.68436 0.81633 0.0
H395 H 0.5964 0.69869 0.84477 0.0
H396 H 0.61649 0.65965 0.83331 0.0
H397 H 0.4183 0.60251 0.84872 0.0
H398 H 0.44486 0.65529 0.85619 0.0
H399 H 0.4316 0.63958 0.82806 0.0
H400 H 0.53686 0.78967 0.8586 0.0
H401 H 0.50691 0.75423 0.79058 0.0
H402 H 0.5591 0.70498 0.87668 0.0
H403 H 0.50654 0.6874 0.87874 0.0
H404 H 0.53257 0.74048 0.88586 0.0
H405 H 0.52135 0.65948 0.79144 0.0
H406 H 0.48695 0.68497 0.77784 0.0
H407 H 0.47028 0.64606 0.79722 0.0
C408 C 0.90612 0.59963 0.14929 0.0
C409 C 0.91769 0.56314 0.14585 0.0
C410 C 0.86534 0.59951 0.14873 0.0
C411 C 0.83495 0.56191 0.14505 0.0
C412 C 0.84654 0.52493 0.14195 0.0
C413 C 0.88741 0.52604 0.14218 0.0
C414 C 0.85472 0.63982 0.15181 0.0
C415 C 0.81568 0.48394 0.13836 0.0
C416 C 0.72969 0.55365 0.16222 0.0
C417 C 0.70702 0.555 0.14219 0.0
C418 C 0.77105 0.55626 0.16342 0.0
C419 C 0.79113 0.56109 0.1442 0.0
C420 C 0.76885 0.56369 0.12403 0.0
C421 C 0.72739 0.56032 0.12324 0.0
C422 C 0.79314 0.55296 0.1853 0.0
C423 C 0.78869 0.56923 0.10309 0.0
H424 H 0.92897 0.62855 0.15203 0.0
H425 H 0.89563 0.49752 0.13962 0.0
H426 H 0.83584 0.64516 0.13721 0.0
H427 H 0.83698 0.63859 0.16598 0.0
H428 H 0.88159 0.66642 0.15451 0.0
H429 H 0.82943 0.45777 0.13707 0.0
H430 H 0.79648 0.47873 0.15201 0.0
H431 H 0.79597 0.48402 0.12316 0.0
H432 H 0.71513 0.55039 0.17714 0.0
H433 H 0.71078 0.56071 0.10753 0.0
H434 H 0.81868 0.58058 0.18891 0.0
H435 H 0.80559 0.52579 0.18489 0.0
H436 H 0.77361 0.54987 0.1988 0.0
H437 H 0.81512 0.59634 0.10488 0.0
H438 H 0.76811 0.57353 0.08897 0.0
H439 H 0.7995 0.54184 0.09945 0.0
C440 C 0.29618 0.83355 0.49267 0.0
C441 C 0.33553 0.8358 0.50118 0.0
C442 C 0.26861 0.79543 0.48695 0.0
C443 C 0.28081 0.75865 0.48944 0.0
C444 C 0.31996 0.76053 0.49874 0.0
C445 C 0.3467 0.79901 0.50468 0.0
C446 C 0.22694 0.79468 0.47735 0.0
C447 C 0.33422 0.72202 0.50153 0.0
C448 C 0.20376 0.6544 0.4853 0.0
C449 C 0.20418 0.64219 0.46345 0.0
C450 C 0.2281 0.69254 0.49398 0.0
C451 C 0.25386 0.71862 0.48055 0.0
C452 C 0.25439 0.70632 0.4585 0.0
C453 C 0.22938 0.6684 0.4502 0.0
C454 C 0.22628 0.70494 0.51746 0.0
C455 C 0.28182 0.73294 0.44372 0.0
H456 H 0.28723 0.86165 0.48964 0.0
H457 H 0.3767 0.80027 0.5117 0.0
H458 H 0.22309 0.78491 0.45981 0.0
H459 H 0.20438 0.77195 0.48559 0.0
H460 H 0.22074 0.82533 0.4788 0.0
H461 H 0.3647 0.7285 0.51026 0.0
H462 H 0.31341 0.69927 0.51071 0.0
H463 H 0.33459 0.70747 0.48527 0.0
H464 H 0.18413 0.63424 0.49553 0.0
H465 H 0.23022 0.65875 0.43339 0.0
H466 H 0.21857 0.73489 0.51831 0.0
H467 H 0.25599 0.70925 0.52676 0.0
H468 H 0.20392 0.68165 0.52556 0.0
H469 H 0.27539 0.76349 0.44252 0.0
H470 H 0.27868 0.7188 0.42699 0.0
H471 H 0.31335 0.73832 0.4507 0.0
C472 C 0.55985 0.3058 0.8434 0.0
C473 C 0.52364 0.317 0.84168 0.0
C474 C 0.56048 0.26428 0.84161 0.0
C475 C 0.52401 0.23309 0.83832 0.0
C476 C 0.48735 0.24411 0.83711 0.0
C477 C 0.4876 0.28591 0.83864 0.0
C478 C 0.60023 0.25388 0.84272 0.0
C479 C 0.44784 0.21175 0.8339 0.0
C480 C 0.52702 0.132 0.81099 0.0
C481 C 0.52962 0.10731 0.82893 0.0
C482 C 0.52461 0.17273 0.81382 0.0
C483 C 0.52437 0.18916 0.83511 0.0
C484 C 0.52584 0.16404 0.85327 0.0
C485 C 0.52878 0.12349 0.84998 0.0
C486 C 0.52361 0.1986 0.79405 0.0
C487 C 0.52502 0.18024 0.87619 0.0
H488 H 0.58786 0.32957 0.84568 0.0
H489 H 0.45945 0.2942 0.83749 0.0
H490 H 0.60209 0.23199 0.85581 0.0
H491 H 0.60307 0.23845 0.8271 0.0
H492 H 0.62587 0.28162 0.84588 0.0
H493 H 0.42201 0.22518 0.83458 0.0
H494 H 0.4449 0.19522 0.81784 0.0
H495 H 0.44649 0.18854 0.84661 0.0
H496 H 0.52839 0.11993 0.79472 0.0
H497 H 0.53063 0.10446 0.86387 0.0
H498 H 0.55034 0.22538 0.79543 0.0
H499 H 0.49696 0.21095 0.79319 0.0
H500 H 0.52296 0.18089 0.77856 0.0
H501 H 0.552 0.20599 0.88069 0.0
H502 H 0.52399 0.15609 0.88838 0.0
H503 H 0.49865 0.19268 0.8771 0.0
C504 C 0.60465 0.90109 0.54148 0.0
C505 C 0.57736 0.91274 0.52634 0.0
C506 C 0.6037 0.85943 0.54408 0.0
C507 C 0.57503 0.82845 0.53108 0.0
C508 C 0.54773 0.83996 0.51554 0.0
C509 C 0.54908 0.88191 0.51343 0.0
C510 C 0.63305 0.84854 0.56104 0.0
C511 C 0.51696 0.80796 0.50122 0.0
C512 C 0.60003 0.72488 0.52819 0.0
C513 C 0.57787 0.70329 0.54427 0.0
C514 C 0.5979 0.76487 0.52294 0.0
C515 C 0.57339 0.78408 0.5342 0.0
C516 C 0.5496 0.76181 0.54972 0.0
C517 C 0.55189 0.72168 0.55443 0.0
C518 C 0.62332 0.78729 0.50606 0.0
C519 C 0.5231 0.78106 0.56214 0.0
H520 H 0.62646 0.92453 0.55164 0.0
H521 H 0.52789 0.89051 0.50165 0.0
H522 H 0.61667 0.82856 0.5732 0.0
H523 H 0.65124 0.83085 0.55322 0.0
H524 H 0.65352 0.87625 0.5698 0.0
H525 H 0.4984 0.82198 0.48963 0.0
H526 H 0.53197 0.7891 0.49176 0.0
H527 H 0.49695 0.78672 0.51147 0.0
H528 H 0.62051 0.71134 0.52035 0.0
H529 H 0.53399 0.70506 0.56654 0.0
H530 H 0.64739 0.813 0.51415 0.0
H531 H 0.6051 0.80092 0.49411 0.0
H532 H 0.63728 0.76668 0.49709 0.0
H533 H 0.54183 0.80733 0.5727 0.0
H534 H 0.50448 0.75878 0.57259 0.0
H535 H 0.5031 0.79349 0.55067 0.0
C536 C 0.80829 0.54323 0.81222 0.0
C537 C 0.80303 0.51161 0.82717 0.0
C538 C 0.84631 0.56938 0.81026 0.0
C539 C 0.8795 0.56409 0.82381 0.0
C540 C 0.87509 0.52914 0.8368 0.0
C541 C 0.83686 0.50305 0.83817 0.0
C542 C 0.85009 0.60536 0.79554 0.0
C543 C 0.90985 0.52196 0.85125 0.0
C544 C 0.98524 0.63257 0.82343 0.0
C545 C 0.98657 0.66124 0.8405 0.0
C546 C 0.95001 0.60168 0.81695 0.0
C547 C 0.91579 0.59907 0.82816 0.0
C548 C 0.91668 0.62889 0.84487 0.0
C549 C 0.95196 0.65966 0.85073 0.0
C550 C 0.95006 0.57102 0.79879 0.0
C551 C 0.88088 0.6272 0.85733 0.0
H552 H 0.78246 0.55008 0.80351 0.0
H553 H 0.83311 0.47786 0.84923 0.0
H554 H 0.85096 0.63352 0.80544 0.0
H555 H 0.87819 0.61121 0.78753 0.0
H556 H 0.82441 0.6001 0.78276 0.0
H557 H 0.90296 0.49044 0.85764 0.0
H558 H 0.93673 0.52662 0.84226 0.0
H559 H 0.91726 0.54458 0.86534 0.0
H560 H 1.01196 0.63384 0.81542 0.0
H561 H 0.95301 0.68128 0.86417 0.0
H562 H 0.92142 0.56357 0.78815 0.0
H563 H 0.9536 0.54195 0.80591 0.0
H564 H 0.975 0.58266 0.78858 0.0
H565 H 0.85455 0.62779 0.84588 0.0
H566 H 0.88627 0.65332 0.8695 0.0
H567 H 0.87323 0.59796 0.86603 0.0
C568 C 0.2715 0.79696 0.16667 0.0
C569 C 0.24121 0.79717 0.18017 0.0
C570 C 0.31049 0.82194 0.17186 0.0
C571 C 0.31953 0.84762 0.19111 0.0
C572 C 0.28893 0.8485 0.20462 0.0
C573 C 0.2501 0.82335 0.19895 0.0
C574 C 0.34218 0.82033 0.15695 0.0
C575 C 0.29745 0.87523 0.22536 0.0
C576 C 0.42725 0.87668 0.21633 0.0
C577 C 0.44149 0.91702 0.20949 0.0
C578 C 0.38762 0.85395 0.21057 0.0
C579 C 0.36142 0.87194 0.19764 0.0
C580 C 0.37543 0.91276 0.1908 0.0
C581 C 0.4153 0.93486 0.19685 0.0
C582 C 0.37382 0.81061 0.2183 0.0
C583 C 0.34841 0.93291 0.17693 0.0
H584 H 0.26464 0.77723 0.15195 0.0
H585 H 0.2269 0.82338 0.20954 0.0
H586 H 0.35658 0.85177 0.15186 0.0
H587 H 0.36586 0.8085 0.1658 0.0
H588 H 0.32988 0.80023 0.14208 0.0
H589 H 0.27003 0.87381 0.23356 0.0
H590 H 0.31916 0.86521 0.23688 0.0
H591 H 0.31125 0.90776 0.22177 0.0
H592 H 0.44706 0.86295 0.22646 0.0
H593 H 0.42616 0.96589 0.19138 0.0
H594 H 0.36353 0.78852 0.20406 0.0
H595 H 0.34804 0.808 0.22802 0.0
H596 H 0.39781 0.8013 0.22846 0.0
H597 H 0.33767 0.91482 0.16131 0.0
H598 H 0.36368 0.96506 0.17324 0.0
H599 H 0.32169 0.93324 0.18539 0.0
C600 C 0.60524 0.19237 0.51787 0.0
C601 C 0.57379 0.16239 0.52551 0.0
C602 C 0.60783 0.23461 0.52046 0.0
C603 C 0.57842 0.2474 0.53109 0.0
C604 C 0.54599 0.21731 0.5383 0.0
C605 C 0.54398 0.1752 0.53536 0.0
C606 C 0.64279 0.2656 0.51241 0.0
C607 C 0.51416 0.22962 0.54984 0.0
C608 C 0.6124 0.35321 0.56002 0.0
C609 C 0.59681 0.3778 0.54529 0.0
C610 C 0.60595 0.31075 0.55575 0.0
C611 C 0.58344 0.29217 0.53618 0.0
C612 C 0.56697 0.31663 0.52137 0.0
C613 C 0.57365 0.35916 0.52616 0.0
C614 C 0.6237 0.28585 0.57212 0.0
C615 C 0.54301 0.29803 0.50028 0.0
H616 H 0.62833 0.18292 0.51011 0.0
H617 H 0.51956 0.15236 0.54133 0.0
H618 H 0.63205 0.28767 0.50183 0.0
H619 H 0.66189 0.28367 0.52651 0.0
H620 H 0.66148 0.25069 0.50307 0.0
H621 H 0.48941 0.20264 0.55302 0.0
H622 H 0.52758 0.24581 0.56567 0.0
H623 H 0.50156 0.25141 0.53999 0.0
H624 H 0.62968 0.36727 0.57504 0.0
H625 H 0.56163 0.37801 0.5147 0.0
H626 H 0.64541 0.27244 0.56451 0.0
H627 H 0.59991 0.25983 0.57724 0.0
H628 H 0.63927 0.30468 0.5869 0.0
H629 H 0.56207 0.28563 0.48996 0.0
H630 H 0.53099 0.32082 0.49089 0.0
H631 H 0.51772 0.27183 0.50365 0.0
C632 C 0.34694 0.58989 0.8037 0.0
C633 C 0.32957 0.55305 0.81368 0.0
C634 C 0.33593 0.62631 0.80807 0.0
C635 C 0.30616 0.6256 0.82232 0.0
C636 C 0.28676 0.58805 0.83131 0.0
C637 C 0.29901 0.55249 0.82711 0.0
C638 C 0.35769 0.66581 0.79839 0.0
C639 C 0.25435 0.58578 0.84636 0.0
C640 C 0.29705 0.71137 0.85969 0.0
C641 C 0.26211 0.71943 0.84993 0.0
C642 C 0.31482 0.68417 0.84946 0.0
C643 C 0.29652 0.66402 0.82931 0.0
C644 C 0.26369 0.6754 0.81839 0.0
C645 C 0.24691 0.70324 0.82884 0.0
C646 C 0.35071 0.67386 0.86125 0.0
C647 C 0.24351 0.65482 0.79685 0.0
H648 H 0.37008 0.59069 0.79297 0.0
H649 H 0.28582 0.52476 0.83534 0.0
H650 H 0.3367 0.68406 0.79263 0.0
H651 H 0.37966 0.68491 0.81113 0.0
H652 H 0.37412 0.65989 0.78456 0.0
H653 H 0.24008 0.55363 0.85052 0.0
H654 H 0.26722 0.60394 0.86174 0.0
H655 H 0.23085 0.59932 0.83869 0.0
H656 H 0.30895 0.72429 0.87593 0.0
H657 H 0.21976 0.7094 0.82133 0.0
H658 H 0.37319 0.67275 0.84977 0.0
H659 H 0.34133 0.64294 0.86816 0.0
H660 H 0.36503 0.69661 0.87481 0.0
H661 H 0.26588 0.65137 0.78574 0.0
H662 H 0.22378 0.67237 0.78862 0.0
H663 H 0.22497 0.62347 0.79973 0.0
C664 C 0.82664 0.31279 0.15621 0.0
C665 C 0.86607 0.30973 0.16015 0.0
C666 C 0.79472 0.28341 0.16391 0.0
C667 C 0.80246 0.25034 0.17595 0.0
C668 C 0.84219 0.24708 0.17994 0.0
C669 C 0.87346 0.27673 0.17196 0.0
C670 C 0.75275 0.28775 0.15917 0.0
C671 C 0.85176 0.21249 0.19286 0.0
C672 C 0.72976 0.19417 0.21473 0.0
C673 C 0.71155 0.15687 0.20298 0.0
C674 C 0.75853 0.22535 0.20588 0.0
C675 C 0.76923 0.21928 0.18468 0.0
C676 C 0.74981 0.18245 0.17236 0.0
C677 C 0.72132 0.15166 0.18167 0.0
C678 C 0.77848 0.26421 0.21954 0.0
C679 C 0.76023 0.1749 0.14965 0.0
H680 H 0.82069 0.33799 0.1469 0.0
H681 H 0.9039 0.27451 0.17534 0.0
H682 H 0.73358 0.25968 0.15017 0.0
H683 H 0.73969 0.29072 0.1747 0.0
H684 H 0.7517 0.31497 0.14938 0.0
H685 H 0.88417 0.21416 0.19437 0.0
H686 H 0.84207 0.2135 0.20949 0.0
H687 H 0.83511 0.1823 0.18493 0.0
H688 H 0.72193 0.19878 0.23105 0.0
H689 H 0.70782 0.12281 0.17254 0.0
H690 H 0.77605 0.29172 0.21038 0.0
H691 H 0.81078 0.2664 0.22317 0.0
H692 H 0.76525 0.26515 0.23523 0.0
H693 H 0.75849 0.20127 0.13936 0.0
H694 H 0.74014 0.14627 0.14156 0.0
H695 H 0.79143 0.17229 0.15047 0.0
C696 C 1.02595 0.61486 0.0702 0.0
C697 C 1.04589 0.58733 0.07975 0.0
C698 C 1.03534 0.63169 0.05005 0.0
C699 C 0.06597 0.62134 0.03939 0.0
C700 C 0.08552 0.5927 0.04868 0.0
C701 C 0.07497 0.57571 0.06869 0.0
C702 C 1.0132 0.66143 0.04046 0.0
C703 C 0.11869 0.58133 0.03795 0.0
C704 C 0.06992 0.64469 0.97937 0.0
C705 C 0.09761 0.6836 0.9803 0.0
C706 C 0.0598 0.62375 -0.00158 0.0
C707 C 0.07833 0.64173 0.01894 0.0
C708 C 0.1073 0.68028 0.02 0.0
C709 C 0.11638 0.70088 0.0007 0.0
C710 C 1.02855 0.58286 0.99662 0.0
C711 C 0.12805 0.70023 0.04158 0.0
H712 H 1.00332 0.62376 0.07866 0.0
H713 H 0.09076 0.55477 0.07615 0.0
H714 H 1.0342 0.69241 0.03986 0.0
H715 H 1.0006 0.6513 0.02346 0.0
H716 H 0.9885 0.66421 0.0501 0.0
H717 H 0.12948 0.55704 0.04668 0.0
H718 H 0.10842 0.5703 0.02079 0.0
H719 H 0.14421 0.60903 0.03757 0.0
H720 H 0.05592 0.63053 0.96369 0.0
H721 H 0.1375 0.73102 0.00168 0.0
H722 H 1.00259 0.58538 0.00523 0.0
H723 H 1.04077 0.55887 0.00466 0.0
H724 H 1.01782 0.57246 0.97939 0.0
H725 H 0.10596 0.70813 0.05159 0.0
H726 H 0.15185 0.72878 0.03951 0.0
H727 H 0.14157 0.67841 0.05087 0.0
C728 C 0.55292 0.05216 0.44172 0.0
C729 C 0.58348 0.04348 0.45579 0.0
C730 C 0.55415 0.05102 0.41897 0.0
C731 C 0.58661 0.04081 0.41009 0.0
C732 C 0.61786 0.03273 0.42421 0.0
C733 C 0.61596 0.03424 0.44687 0.0
C734 C 0.52039 0.06006 0.40442 0.0
C735 C 0.65295 0.02165 0.41538 0.0
C736 C 0.57319 0.99466 0.35232 0.0
C737 C 0.59303 0.02828 0.34078 0.0
C738 C 0.57022 -0.00144 0.37479 0.0
C739 C 0.58736 0.03707 0.38602 0.0
C740 C 0.60659 0.0714 0.3744 0.0
C741 C 0.60924 0.06658 0.35192 0.0
C742 C 0.54938 0.96124 0.38659 0.0
C743 C 0.62518 0.11296 0.38582 0.0
H744 H 0.52776 0.05945 0.44844 0.0
H745 H 0.63977 0.02755 0.45757 0.0
H746 H 0.53235 0.08511 0.3934 0.0
H747 H 0.50479 0.03235 0.39395 0.0
H748 H 0.49823 0.06927 0.4139 0.0
H749 H 0.67541 0.01752 0.42857 0.0
H750 H 0.64234 0.99261 0.40521 0.0
H751 H 0.66783 0.04604 0.40472 0.0
H752 H 0.55997 0.96516 0.34375 0.0
H753 H 0.62495 0.0926 0.34318 0.0
H754 H 0.52502 0.96806 0.39515 0.0
H755 H 0.57083 0.9534 0.39917 0.0
H756 H 0.53651 0.93387 0.37535 0.0
H757 H 0.60286 0.1228 0.39485 0.0
H758 H 0.63704 0.13708 0.37425 0.0
H759 H 0.65003 0.11078 0.39798 0.0
C760 C 0.57424 0.44921 0.76998 0.0
C761 C 0.54147 0.45818 0.7787 0.0
C762 C 0.58236 0.4586 0.74846 0.0
C763 C 0.5572 0.47757 0.73536 0.0
C764 C 0.52372 0.48613 0.74394 0.0
C765 C 0.51619 0.47623 0.76548 0.0
C766 C 0.61825 0.44883 0.73986 0.0
C767 C 0.49631 0.50649 0.73049 0.0
C768 C 0.60159 0.5392 0.6883 0.0
C769 C 0.58596 0.51158 0.67039 0.0
C770 C 0.59214 0.52866 0.70949 0.0
C771 C 0.56659 0.48946 0.71288 0.0
C772 C 0.55051 0.46153 0.69487 0.0
C773 C 0.56032 0.47297 0.67382 0.0
C774 C 0.60962 0.55942 0.72827 0.0
C775 C 0.52337 0.41937 0.69786 0.0
H776 H 0.59391 0.4352 0.78004 0.0
H777 H 0.49083 0.48334 0.77207 0.0
H778 H 0.60891 0.4291 0.72468 0.0
H779 H 0.6396 0.47771 0.73566 0.0
H780 H 0.63405 0.43279 0.75189 0.0
H781 H 0.47094 0.51005 0.73936 0.0
H782 H 0.51336 0.53743 0.72596 0.0
H783 H 0.48415 0.48814 0.71509 0.0
H784 H 0.62101 0.56928 0.68569 0.0
H785 H 0.54852 0.45134 0.66007 0.0
H786 H 0.62814 0.54623 0.74027 0.0
H787 H 0.58529 0.56619 0.7369 0.0
H788 H 0.62845 0.58884 0.72283 0.0
H789 H 0.53935 0.40161 0.70871 0.0
H790 H 0.51284 0.40153 0.68212 0.0
H791 H 0.49695 0.42234 0.70589 0.0
C792 C 0.53137 0.00322 0.59896 0.0
C793 C 0.56781 0.02082 0.59057 0.0
C794 C 0.52981 0.99619 0.62134 0.0
C795 C 0.56563 0.0063 0.63553 0.0
C796 C 0.60249 0.02391 0.62712 0.0
C797 C 0.60309 0.03128 0.60479 0.0
C798 C 0.48989 0.97799 0.6298 0.0
C799 C 0.6414 0.03451 0.64168 0.0
C800 C 0.56443 0.02244 0.69664 0.0
C801 C 0.56802 0.98444 0.70429 0.0
C802 C 0.5624 0.02957 0.67422 0.0
C803 C 0.56482 -0.00181 0.65918 0.0
C804 C 0.56816 0.95964 0.66685 0.0
C805 C 0.56936 0.95311 0.68933 0.0
C806 C 0.55811 0.07081 0.66663 0.0
C807 C 0.57155 0.9257 0.65137 0.0
H808 H 0.50399 0.99525 0.58807 0.0
H809 H 0.63142 0.04456 0.5984 0.0
H810 H 0.48963 0.94809 0.6372 0.0
H811 H 0.48486 -0.00123 0.64281 0.0
H812 H 0.4647 0.97291 0.61673 0.0
H813 H 0.66755 0.0476 0.63252 0.0
H814 H 0.64053 0.05718 0.65479 0.0
H815 H 0.64579 0.0065 0.6497 0.0
H816 H 0.563 0.04652 0.70823 0.0
H817 H 0.57243 0.92383 0.6953 0.0
H818 H 0.53202 0.06637 0.65421 0.0
H819 H 0.58497 0.08688 0.65876 0.0
H820 H 0.55428 0.091 0.68028 0.0
H821 H 0.54557 0.918 0.63877 0.0
H822 H 0.57311 0.89724 0.65991 0.0
H823 H 0.59878 0.93634 0.64273 0.0
C824 C 0.47498 0.43043 0.92006 0.0
C825 C 0.51226 0.44039 0.91171 0.0
C826 C 0.4722 0.43432 0.94263 0.0
C827 C 0.50756 0.44779 0.95709 0.0
C828 C 0.54525 0.45638 0.94874 0.0
C829 C 0.54711 0.45286 0.92618 0.0
C830 C 0.43149 0.42534 0.95093 0.0
C831 C 0.58369 0.47017 0.9636 0.0
C832 C 0.50902 0.50137 0.01204 0.0
C833 C 0.51041 0.46982 0.02651 0.0
C834 C 0.50633 0.49411 0.98936 0.0
C835 C 0.50559 0.45449 0.98088 0.0
C836 C 0.50617 0.42229 0.99532 0.0
C837 C 0.50831 0.43027 0.01793 0.0
C838 C 0.50556 0.52923 0.97449 0.0
C839 C 0.50576 0.37972 0.98693 0.0
H840 H 0.44797 0.42101 0.90892 0.0
H841 H 0.57605 0.4602 0.91984 0.0
H842 H 0.42923 0.40257 0.9639 0.0
H843 H 0.42714 0.45396 0.95833 0.0
H844 H 0.40699 0.41325 0.93774 0.0
H845 H 0.61053 0.4735 0.95462 0.0
H846 H 0.58544 0.50026 0.97184 0.0
H847 H 0.58441 0.4477 0.97653 0.0
H848 H 0.5111 0.53214 0.01844 0.0
H849 H 0.50851 0.40544 0.0289 0.0
H850 H 0.48027 0.51973 0.96153 0.0
H851 H 0.53347 0.53756 0.96629 0.0
H852 H 0.50276 0.55708 0.98348 0.0
H853 H 0.47998 0.36783 0.97448 0.0
H854 H 0.50408 0.35748 0.00018 0.0
H855 H 0.53328 0.38121 0.97886 0.0
C856 C 0.08267 0.56607 0.22513 0.0
C857 C 1.05111 0.54078 0.21136 0.0
C858 C 0.08833 0.55826 0.24734 0.0
C859 C 0.06168 0.52444 0.25606 0.0
C860 C 1.02944 0.49911 0.24234 0.0
C861 C 1.02459 0.50751 0.22013 0.0
C862 C 0.12317 0.58588 0.26144 0.0
C863 C 1.0003 0.4629 0.25109 0.0
C864 C 0.09947 0.4815 0.30801 0.0
C865 C 0.08287 0.50005 0.32404 0.0
C866 C 0.09247 0.48884 0.28582 0.0
C867 C 0.0681 0.51522 0.27946 0.0
C868 C 1.05075 0.53356 0.29549 0.0
C869 C 0.05842 0.52584 0.31759 0.0
C870 C 0.1115 0.46871 0.26919 0.0
C871 C 1.02457 0.56183 0.28932 0.0
H872 H 0.10336 0.59181 0.21851 0.0
H873 H 1.00006 0.48785 0.20964 0.0
H874 H 0.1123 0.59949 0.27542 0.0
H875 H 0.1433 0.56752 0.26828 0.0
H876 H 0.14077 0.6113 0.25223 0.0
H877 H 0.97626 0.44681 0.2384 0.0
H878 H 1.01634 0.44046 0.25759 0.0
H879 H 0.98636 0.47343 0.26482 0.0
H880 H 0.11787 0.46103 0.31283 0.0
H881 H 1.04589 0.54071 0.32988 0.0
H882 H 0.13151 0.4927 0.26025 0.0
H883 H 0.08815 0.44996 0.25697 0.0
H884 H 0.12918 0.44853 0.27679 0.0
H885 H 1.04207 0.58928 0.2815 0.0
H886 H 1.01211 0.57239 0.30367 0.0
H887 H 0.99945 0.54587 0.27723 0.0
loop_
_geom_bond_atom_site_label_1
_geom_bond_atom_site_label_2
_geom_bond_distance
_geom_bond_site_symmetry_2
_ccdc_geom_bond_type
Dy0 O3 2.307 1_455 S
Dy0 O5 2.395 . S
Dy0 O6 2.379 . S
Dy0 O8 2.339 . S
Dy0 O10 2.298 . S
Dy0 O14 2.275 . S
Dy0 C22 2.738 . S
Dy1 O4 2.298 . S
Dy1 O7 2.275 1_655 S
Dy1 O9 2.307 1_655 S
Dy1 O11 2.395 . S
Dy1 O12 2.379 . S
Dy1 O15 2.339 . S
Dy1 C31 2.738 . S
C2 O14 1.254 . S
C2 O15 1.257 1_455 S
O3 Dy0 2.307 1_655 S
O3 C13 1.266 . S
O4 Dy1 2.298 . S
O4 C13 1.236 . S
O5 Dy0 2.395 . S
O5 C22 1.255 . S
O6 Dy0 2.379 . S
O6 C22 1.249 . S
O7 Dy1 2.275 1_455 S
O7 C23 1.254 . S
O8 Dy0 2.339 . S
O8 C23 1.257 . S
O9 Dy1 2.307 1_455 S
O9 C24 1.266 . S
O10 Dy0 2.298 . S
O10 C24 1.236 . S
O11 Dy1 2.395 . S
O11 C31 1.255 . S
O12 Dy1 2.379 . S
O12 C31 1.249 . S
C13 O3 1.266 . S
C13 O4 1.236 . S
O14 Dy0 2.275 . S
O14 C2 1.254 . S
O15 Dy1 2.339 . S
O15 C2 1.257 1_655 S
C16 C19 1.344 . S
C16 C20 1.328 . S
C16 C22 1.516 . S
C17 C18 1.304 . S
C17 C21 1.323 . S
C18 C17 1.304 . S
C18 C19 1.371 . S
C18 H32 0.930 . S
C19 C16 1.344 . S
C19 C18 1.371 . S
C19 H33 0.931 . S
C20 C16 1.328 . S
C20 C21 1.433 . S
C20 H34 0.931 . S
C21 C17 1.323 . S
C21 C20 1.433 . S
C21 H35 0.933 . S
C22 Dy0 2.738 . S
C22 O5 1.255 . S
C22 O6 1.249 . S
C22 C16 1.516 . S
C23 O7 1.254 . S
C23 O8 1.257 . S
C24 O9 1.266 . S
C24 O10 1.236 . S
C25 C28 1.344 . S
C25 C29 1.328 . S
C25 C31 1.516 . S
C26 C27 1.304 . S
C26 C30 1.323 . S
C27 C26 1.304 . S
C27 C28 1.371 . S
C27 H36 0.930 . S
C28 C25 1.344 . S
C28 C27 1.371 . S
C28 H37 0.931 . S
C29 C25 1.328 . S
C29 C30 1.433 . S
C29 H38 0.931 . S
C30 C26 1.323 . S
C30 C29 1.433 . S
C30 H39 0.933 . S
C31 Dy1 2.738 . S
C31 O11 1.255 . S
C31 O12 1.249 . S
C31 C25 1.516 . S
H32 C18 0.930 . S
H33 C19 0.931 . S
H34 C20 0.931 . S
H35 C21 0.933 . S
H36 C27 0.930 . S
H37 C28 0.931 . S
H38 C29 0.931 . S
H39 C30 0.933 . S
Dy40 O43 2.307 . S
Dy40 O45 2.395 1_545 S
Dy40 O46 2.379 1_545 S
Dy40 O48 2.339 . S
Dy40 O50 2.298 1_545 S
Dy40 O54 2.275 . S
Dy40 C62 2.738 1_545 S
Dy41 O44 2.298 . S
Dy41 O47 2.275 . S
Dy41 O49 2.307 1_545 S
Dy41 O51 2.395 . S
Dy41 O52 2.379 . S
Dy41 O55 2.339 . S
Dy41 C71 2.738 . S
C42 O54 1.254 . S
C42 O55 1.257 . S
O43 Dy40 2.307 . S
O43 C53 1.266 . S
O44 Dy41 2.298 . S
O44 C53 1.236 . S
O45 Dy40 2.395 1_565 S
O45 C62 1.255 . S
O46 Dy40 2.379 1_565 S
O46 C62 1.249 . S
O47 Dy41 2.275 . S
O47 C63 1.254 . S
O48 Dy40 2.339 . S
O48 C63 1.257 . S
O49 Dy41 2.307 1_565 S
O49 C64 1.266 . S
O50 Dy40 2.298 1_565 S
O50 C64 1.236 . S
O51 Dy41 2.395 . S
O51 C71 1.255 . S
O52 Dy41 2.379 . S
O52 C71 1.249 . S
C53 O43 1.266 . S
C53 O44 1.236 . S
O54 Dy40 2.275 . S
O54 C42 1.254 . S
O55 Dy41 2.339 . S
O55 C42 1.257 . S
C56 C59 1.344 . S
C56 C60 1.328 . S
C56 C62 1.516 . S
C57 C58 1.304 . S
C57 C61 1.323 . S
C58 C57 1.304 . S
C58 C59 1.371 . S
C58 H72 0.930 . S
C59 C56 1.344 . S
C59 C58 1.371 . S
C59 H73 0.931 . S
C60 C56 1.328 . S
C60 C61 1.433 . S
C60 H74 0.931 . S
C61 C57 1.323 . S
C61 C60 1.433 . S
C61 H75 0.933 . S
C62 Dy40 2.738 1_565 S
C62 O45 1.255 . S
C62 O46 1.249 . S
C62 C56 1.516 . S
C63 O47 1.254 . S
C63 O48 1.257 . S
C64 O49 1.266 . S
C64 O50 1.236 . S
C65 C68 1.344 . S
C65 C69 1.328 . S
C65 C71 1.516 . S
C66 C67 1.304 . S
C66 C70 1.323 . S
C67 C66 1.304 . S
C67 C68 1.371 . S
C67 H76 0.930 . S
C68 C65 1.344 . S
C68 C67 1.371 . S
C68 H77 0.931 . S
C69 C65 1.328 . S
C69 C70 1.433 . S
C69 H78 0.931 . S
C70 C66 1.323 . S
C70 C69 1.433 . S
C70 H79 0.933 . S
C71 Dy41 2.738 . S
C71 O51 1.255 . S
C71 O52 1.249 . S
C71 C65 1.516 . S
H72 C58 0.930 . S
H73 C59 0.931 . S
H74 C60 0.931 . S
H75 C61 0.933 . S
H76 C67 0.930 . S
H77 C68 0.931 . S
H78 C69 0.931 . S
H79 C70 0.933 . S
Dy80 O83 2.307 . S
Dy80 O85 2.395 . S
Dy80 O86 2.379 . S
Dy80 O88 2.339 . S
Dy80 O90 2.298 . S
Dy80 O94 2.275 . S
Dy80 C102 2.738 . S
Dy81 O84 2.298 . S
Dy81 O87 2.275 . S
Dy81 O89 2.307 . S
Dy81 O91 2.395 . S
Dy81 O92 2.379 . S
Dy81 O95 2.339 . S
Dy81 C111 2.738 . S
C82 O94 1.254 . S
C82 O95 1.257 . S
O83 Dy80 2.307 . S
O83 C93 1.266 . S
O84 Dy81 2.298 . S
O84 C93 1.236 . S
O85 Dy80 2.395 . S
O85 C102 1.255 . S
O86 Dy80 2.379 . S
O86 C102 1.249 . S
O87 Dy81 2.275 . S
O87 C103 1.254 . S
O88 Dy80 2.339 . S
O88 C103 1.257 . S
O89 Dy81 2.307 . S
O89 C104 1.266 . S
O90 Dy80 2.298 . S
O90 C104 1.236 . S
O91 Dy81 2.395 . S
O91 C111 1.255 . S
O92 Dy81 2.379 . S
O92 C111 1.249 . S
C93 O83 1.266 . S
C93 O84 1.236 . S
O94 Dy80 2.275 . S
O94 C82 1.254 . S
O95 Dy81 2.339 . S
O95 C82 1.257 . S
C96 C99 1.344 . S
C96 C100 1.328 . S
C96 C102 1.516 . S
C97 C98 1.304 . S
C97 C101 1.323 . S
C98 C97 1.304 . S
C98 C99 1.371 . S
C98 H112 0.930 . S
C99 C96 1.344 . S
C99 C98 1.371 . S
C99 H113 0.931 . S
C100 C96 1.328 . S
C100 C101 1.433 . S
C100 H114 0.931 . S
C101 C97 1.323 . S
C101 C100 1.433 . S
C101 H115 0.933 . S
C102 Dy80 2.738 . S
C102 O85 1.255 . S
C102 O86 1.249 . S
C102 C96 1.516 . S
C103 O87 1.254 . S
C103 O88 1.257 . S
C104 O89 1.266 . S
C104 O90 1.236 . S
C105 C108 1.344 . S
C105 C109 1.328 . S
C105 C111 1.516 . S
C106 C107 1.304 . S
C106 C110 1.323 . S
C107 C106 1.304 . S
C107 C108 1.371 . S
C107 H116 0.930 . S
C108 C105 1.344 . S
C108 C107 1.371 . S
C108 H117 0.931 . S
C109 C105 1.328 . S
C109 C110 1.433 . S
C109 H118 0.931 . S
C110 C106 1.323 . S
C110 C109 1.433 . S
C110 H119 0.933 . S
C111 Dy81 2.738 . S
C111 O91 1.255 . S
C111 O92 1.249 . S
C111 C105 1.516 . S
H112 C98 0.930 . S
H113 C99 0.931 . S
H114 C100 0.931 . S
H115 C101 0.933 . S
H116 C107 0.930 . S
H117 C108 0.931 . S
H118 C109 0.931 . S
H119 C110 0.933 . S
P120 O131 1.490 1_545 S
P120 C134 1.812 1_545 S
P120 C140 1.803 . S
P120 C146 1.819 . S
H121 C135 0.941 . S
H122 C136 0.939 . S
H123 C138 0.934 1_545 S
H124 C139 0.940 . S
H125 C141 0.939 . S
H126 C142 0.942 . S
H127 C144 0.940 . S
H128 C145 0.939 . S
H129 C147 0.957 . S
H130 C151 0.939 . S
O131 P120 1.490 1_565 S
H132 C148 0.939 1_565 S
H133 C150 0.940 . S
C134 P120 1.812 1_565 S
C134 C135 1.389 . S
C134 C139 1.391 1_565 S
C135 H121 0.941 . S
C135 C134 1.389 . S
C135 C136 1.397 . S
C136 H122 0.939 . S
C136 C135 1.397 . S
C136 C137 1.378 . S
C137 C136 1.378 . S
C137 C138 1.378 . S
C138 H123 0.934 1_565 S
C138 C137 1.378 . S
C138 C139 1.396 1_565 S
C139 H124 0.940 . S
C139 C134 1.391 1_545 S
C139 C138 1.396 1_545 S
C140 P120 1.803 . S
C140 C141 1.378 . S
C140 C145 1.400 . S
C141 H125 0.939 . S
C141 C140 1.378 . S
C141 C142 1.361 . S
C142 H126 0.942 . S
C142 C141 1.361 . S
C142 C143 1.369 . S
C143 C142 1.369 . S
C143 C144 1.404 . S
C144 H127 0.940 . S
C144 C143 1.404 . S
C144 C145 1.389 . S
C145 H128 0.939 . S
C145 C140 1.400 . S
C145 C144 1.389 . S
C146 P120 1.819 . S
C146 C147 1.380 1_545 S
C146 C151 1.391 . S
C147 H129 0.957 . S
C147 C146 1.380 1_565 S
C147 C148 1.393 1_565 S
C148 H132 0.939 1_545 S
C148 C147 1.393 1_545 S
C148 C149 1.397 . S
C149 C148 1.397 . S
C149 C150 1.385 . S
C150 H133 0.940 . S
C150 C149 1.385 . S
C150 C151 1.388 . S
C151 H130 0.939 . S
C151 C146 1.391 . S
C151 C150 1.388 . S
P152 O163 1.490 . S
P152 C166 1.812 . S
P152 C172 1.803 . S
P152 C178 1.819 . S
H153 C167 0.941 . S
H154 C168 0.939 . S
H155 C170 0.940 . S
H156 C171 0.940 . S
H157 C173 0.939 . S
H158 C174 0.942 . S
H159 C176 0.940 . S
H160 C177 0.939 . S
H161 C179 0.941 . S
H162 C183 0.939 . S
O163 P152 1.490 . S
H164 C180 0.939 . S
H165 C182 0.940 . S
C166 P152 1.812 . S
C166 C167 1.389 . S
C166 C171 1.391 . S
C167 H153 0.941 . S
C167 C166 1.389 . S
C167 C168 1.397 . S
C168 H154 0.939 . S
C168 C167 1.397 . S
C168 C169 1.378 . S
C169 C168 1.378 . S
C169 C170 1.378 . S
C170 H155 0.940 . S
C170 C169 1.378 . S
C170 C171 1.396 . S
C171 H156 0.940 . S
C171 C166 1.391 . S
C171 C170 1.396 . S
C172 P152 1.803 . S
C172 C173 1.378 . S
C172 C177 1.400 . S
C173 H157 0.939 . S
C173 C172 1.378 . S
C173 C174 1.361 . S
C174 H158 0.942 . S
C174 C173 1.361 . S
C174 C175 1.369 . S
C175 C174 1.369 . S
C175 C176 1.404 . S
C176 H159 0.940 . S
C176 C175 1.404 . S
C176 C177 1.389 . S
C177 H160 0.939 . S
C177 C172 1.400 . S
C177 C176 1.389 . S
C178 P152 1.819 . S
C178 C179 1.391 . S
C178 C183 1.391 . S
C179 H161 0.941 . S
C179 C178 1.391 . S
C179 C180 1.396 . S
C180 H164 0.939 . S
C180 C179 1.396 . S
C180 C181 1.397 . S
C181 C180 1.397 . S
C181 C182 1.385 . S
C182 H165 0.940 . S
C182 C181 1.385 . S
C182 C183 1.388 . S
C183 H162 0.939 . S
C183 C178 1.391 . S
C183 C182 1.388 . S
P184 O195 1.490 . S
P184 C198 1.812 . S
P184 C204 1.803 1_455 S
P184 C210 1.819 . S
H185 C199 0.941 . S
H186 C200 0.939 . S
H187 C202 0.940 . S
H188 C203 0.940 . S
H189 C205 0.939 . S
H190 C206 0.942 . S
H191 C208 0.940 . S
H192 C209 0.939 . S
H193 C211 0.941 . S
H194 C215 0.939 . S
O195 P184 1.490 . S
H196 C212 0.939 . S
H197 C214 0.940 . S
C198 P184 1.812 . S
C198 C199 1.389 . S
C198 C203 1.391 . S
C199 H185 0.941 . S
C199 C198 1.389 . S
C199 C200 1.397 . S
C200 H186 0.939 . S
C200 C199 1.397 . S
C200 C201 1.378 . S
C201 C200 1.378 . S
C201 C202 1.378 . S
C202 H187 0.940 . S
C202 C201 1.378 . S
C202 C203 1.396 . S
C203 H188 0.940 . S
C203 C198 1.391 . S
C203 C202 1.396 . S
C204 P184 1.803 1_655 S
C204 C205 1.378 . S
C204 C209 1.400 . S
C205 H189 0.939 . S
C205 C204 1.378 . S
C205 C206 1.361 . S
C206 H190 0.942 . S
C206 C205 1.361 . S
C206 C207 1.369 . S
C207 C206 1.369 . S
C207 C208 1.404 . S
C208 H191 0.940 . S
C208 C207 1.404 . S
C208 C209 1.389 . S
C209 H192 0.939 . S
C209 C204 1.400 . S
C209 C208 1.389 . S
C210 P184 1.819 . S
C210 C211 1.391 . S
C210 C215 1.391 1_455 S
C211 H193 0.941 . S
C211 C210 1.391 . S
C211 C212 1.396 . S
C212 H196 0.939 . S
C212 C211 1.396 . S
C212 C213 1.397 . S
C213 C212 1.397 . S
C213 C214 1.385 1_455 S
C214 H197 0.940 . S
C214 C213 1.385 1_655 S
C214 C215 1.388 . S
C215 H194 0.939 . S
C215 C210 1.391 1_655 S
C215 C214 1.388 . S
P216 O227 1.490 . S
P216 C230 1.812 . S
P216 C236 1.803 1_455 S
P216 C242 1.819 . S
H217 C231 0.941 . S
H218 C232 0.939 . S
H219 C234 0.940 . S
H220 C235 0.940 . S
H221 C237 0.939 . S
H222 C238 0.942 . S
H223 C240 0.940 . S
H224 C241 0.939 . S
H225 C243 0.941 . S
H226 C247 0.939 . S
O227 P216 1.490 . S
H228 C244 0.939 . S
H229 C246 0.940 . S
C230 P216 1.812 . S
C230 C231 1.389 . S
C230 C235 1.391 . S
C231 H217 0.941 . S
C231 C230 1.389 . S
C231 C232 1.397 . S
C232 H218 0.939 . S
C232 C231 1.397 . S
C232 C233 1.378 . S
C233 C232 1.378 . S
C233 C234 1.378 . S
C234 H219 0.940 . S
C234 C233 1.378 . S
C234 C235 1.396 . S
C235 H220 0.940 . S
C235 C230 1.391 . S
C235 C234 1.396 . S
C236 P216 1.803 1_655 S
C236 C237 1.378 . S
C236 C241 1.400 . S
C237 H221 0.939 . S
C237 C236 1.378 . S
C237 C238 1.361 . S
C238 H222 0.942 . S
C238 C237 1.361 . S
C238 C239 1.369 . S
C239 C238 1.369 . S
C239 C240 1.404 . S
C240 H223 0.940 . S
C240 C239 1.404 . S
C240 C241 1.389 . S
C241 H224 0.939 . S
C241 C236 1.400 . S
C241 C240 1.389 . S
C242 P216 1.819 . S
C242 C243 1.391 . S
C242 C247 1.391 1_455 S
C243 H225 0.941 . S
C243 C242 1.391 . S
C243 C244 1.396 . S
C244 H228 0.939 . S
C244 C243 1.396 . S
C244 C245 1.397 . S
C245 C244 1.397 . S
C245 C246 1.385 1_455 S
C246 H229 0.940 . S
C246 C245 1.385 1_655 S
C246 C247 1.388 . S
C247 H226 0.939 . S
C247 C242 1.391 1_655 S
C247 C246 1.388 . S
P248 O259 1.490 . S
P248 C262 1.812 . S
P248 C268 1.803 1_545 S
P248 C274 1.819 . S
H249 C263 0.941 . S
H250 C264 0.939 . S
H251 C266 0.940 . S
H252 C267 0.940 . S
H253 C269 0.939 . S
H254 C270 0.942 . S
H255 C272 0.940 . S
H256 C273 0.939 . S
H257 C275 0.941 . S
H258 C279 0.939 . S
O259 P248 1.490 . S
H260 C276 0.939 . S
H261 C278 0.940 . S
C262 P248 1.812 . S
C262 C263 1.389 . S
C262 C267 1.391 . S
C263 H249 0.941 . S
C263 C262 1.389 . S
C263 C264 1.397 . S
C264 H250 0.939 . S
C264 C263 1.397 . S
C264 C265 1.378 . S
C265 C264 1.378 . S
C265 C266 1.378 . S
C266 H251 0.940 . S
C266 C265 1.378 . S
C266 C267 1.396 . S
C267 H252 0.940 . S
C267 C262 1.391 . S
C267 C266 1.396 . S
C268 P248 1.803 1_565 S
C268 C269 1.378 . S
C268 C273 1.400 . S
C269 H253 0.939 . S
C269 C268 1.378 . S
C269 C270 1.361 . S
C270 H254 0.942 . S
C270 C269 1.361 . S
C270 C271 1.369 . S
C271 C270 1.369 . S
C271 C272 1.404 . S
C272 H255 0.940 . S
C272 C271 1.404 . S
C272 C273 1.389 . S
C273 H256 0.939 . S
C273 C268 1.400 . S
C273 C272 1.389 . S
C274 P248 1.819 . S
C274 C275 1.391 . S
C274 C279 1.391 1_545 S
C275 H257 0.941 . S
C275 C274 1.391 . S
C275 C276 1.396 . S
C276 H260 0.939 . S
C276 C275 1.396 . S
C276 C277 1.397 . S
C277 C276 1.397 . S
C277 C278 1.385 1_545 S
C278 H261 0.940 . S
C278 C277 1.385 1_565 S
C278 C279 1.388 . S
C279 H258 0.939 . S
C279 C274 1.391 1_565 S
C279 C278 1.388 . S
P280 O291 1.490 . S
P280 C294 1.812 . S
P280 C300 1.803 . S
P280 C306 1.819 . S
H281 C295 0.941 . S
H282 C296 0.939 . S
H283 C298 0.940 . S
H284 C299 0.940 . S
H285 C301 0.939 . S
H286 C302 0.942 . S
H287 C304 0.940 . S
H288 C305 0.939 . S
H289 C307 0.941 . S
H290 C311 0.939 . S
O291 P280 1.490 . S
H292 C308 0.939 . S
H293 C310 0.940 . S
C294 P280 1.812 . S
C294 C295 1.389 . S
C294 C299 1.391 . S
C295 H281 0.941 . S
C295 C294 1.389 . S
C295 C296 1.397 . S
C296 H282 0.939 . S
C296 C295 1.397 . S
C296 C297 1.378 . S
C297 C296 1.378 . S
C297 C298 1.378 . S
C298 H283 0.940 . S
C298 C297 1.378 . S
C298 C299 1.396 . S
C299 H284 0.940 . S
C299 C294 1.391 . S
C299 C298 1.396 . S
C300 P280 1.803 . S
C300 C301 1.378 . S
C300 C305 1.400 . S
C301 H285 0.939 . S
C301 C300 1.378 . S
C301 C302 1.361 . S
C302 H286 0.942 . S
C302 C301 1.361 . S
C302 C303 1.369 . S
C303 C302 1.369 . S
C303 C304 1.404 . S
C304 H287 0.940 . S
C304 C303 1.404 . S
C304 C305 1.389 . S
C305 H288 0.939 . S
C305 C300 1.400 . S
C305 C304 1.389 . S
C306 P280 1.819 . S
C306 C307 1.391 . S
C306 C311 1.391 . S
C307 H289 0.941 . S
C307 C306 1.391 . S
C307 C308 1.396 . S
C308 H292 0.939 . S
C308 C307 1.396 . S
C308 C309 1.397 . S
C309 C308 1.397 . S
C309 C310 1.385 . S
C310 H293 0.940 . S
C310 C309 1.385 . S
C310 C311 1.388 . S
C311 H290 0.939 . S
C311 C306 1.391 . S
C311 C310 1.388 . S
C312 C313 1.391 . S
C312 C314 1.394 . S
C312 H328 0.931 . S
C313 C312 1.391 . S
C313 C317 1.376 . S
C314 C312 1.394 . S
C314 C315 1.369 . S
C314 C318 1.531 . S
C315 C314 1.369 . S
C315 C316 1.410 . S
C315 C323 1.503 . S
C316 C315 1.410 . S
C316 C317 1.392 . S
C316 C319 1.511 . S
C317 C313 1.376 . S
C317 C316 1.392 . S
C317 H329 0.929 . S
C318 C314 1.531 . S
C318 H330 0.960 . S
C318 H331 0.962 . S
C318 H332 0.960 . S
C319 C316 1.511 . S
C319 H333 0.961 . S
C319 H334 0.961 . S
C319 H335 0.961 . S
C320 C321 1.370 . S
C320 C322 1.363 . S
C320 H336 0.931 . S
C321 C320 1.370 . S
C321 C325 1.408 . S
C322 C320 1.363 . S
C322 C323 1.370 . S
C322 C326 1.524 . S
C323 C315 1.503 . S
C323 C322 1.370 . S
C323 C324 1.403 . S
C324 C323 1.403 . S
C324 C325 1.404 . S
C324 C327 1.539 . S
C325 C321 1.408 . S
C325 C324 1.404 . S
C325 H337 0.930 . S
C326 C322 1.524 . S
C326 H338 0.956 . S
C326 H339 0.961 . S
C326 H340 0.961 . S
C327 C324 1.539 . S
C327 H341 0.958 . S
C327 H342 0.961 . S
C327 H343 0.960 . S
H328 C312 0.931 . S
H329 C317 0.929 . S
H330 C318 0.960 . S
H331 C318 0.962 . S
H332 C318 0.960 . S
H333 C319 0.961 . S
H334 C319 0.961 . S
H335 C319 0.961 . S
H336 C320 0.931 . S
H337 C325 0.930 . S
H338 C326 0.956 . S
H339 C326 0.961 . S
H340 C326 0.961 . S
H341 C327 0.958 . S
H342 C327 0.961 . S
H343 C327 0.960 . S
C344 C345 1.391 . S
C344 C346 1.394 . S
C344 H360 0.931 . S
C345 C344 1.391 . S
C345 C349 1.376 . S
C346 C344 1.394 . S
C346 C347 1.369 . S
C346 C350 1.531 . S
C347 C346 1.369 . S
C347 C348 1.410 . S
C347 C355 1.503 . S
C348 C347 1.410 . S
C348 C349 1.392 . S
C348 C351 1.511 . S
C349 C345 1.376 . S
C349 C348 1.392 . S
C349 H361 0.929 . S
C350 C346 1.531 . S
C350 H362 0.960 . S
C350 H363 0.962 . S
C350 H364 0.960 . S
C351 C348 1.511 . S
C351 H365 0.961 . S
C351 H366 0.961 . S
C351 H367 0.961 . S
C352 C353 1.370 . S
C352 C354 1.363 . S
C352 H368 0.931 . S
C353 C352 1.370 . S
C353 C357 1.408 . S
C354 C352 1.363 . S
C354 C355 1.370 . S
C354 C358 1.524 . S
C355 C347 1.503 . S
C355 C354 1.370 . S
C355 C356 1.403 . S
C356 C355 1.403 . S
C356 C357 1.404 . S
C356 C359 1.539 . S
C357 C353 1.408 . S
C357 C356 1.404 . S
C357 H369 0.930 . S
C358 C354 1.524 . S
C358 H370 0.956 . S
C358 H371 0.961 . S
C358 H372 0.961 . S
C359 C356 1.539 . S
C359 H373 0.958 . S
C359 H374 0.961 . S
C359 H375 0.960 . S
H360 C344 0.931 . S
H361 C349 0.929 . S
H362 C350 0.960 . S
H363 C350 0.962 . S
H364 C350 0.960 . S
H365 C351 0.961 . S
H366 C351 0.961 . S
H367 C351 0.961 . S
H368 C352 0.931 . S
H369 C357 0.930 . S
H370 C358 0.956 . S
H371 C358 0.961 . S
H372 C358 0.961 . S
H373 C359 0.958 . S
H374 C359 0.961 . S
H375 C359 0.960 . S
C376 C377 1.391 . S
C376 C378 1.394 . S
C376 H392 0.931 . S
C377 C376 1.391 . S
C377 C381 1.376 . S
C378 C376 1.394 . S
C378 C379 1.369 . S
C378 C382 1.531 . S
C379 C378 1.369 . S
C379 C380 1.410 . S
C379 C387 1.503 . S
C380 C379 1.410 . S
C380 C381 1.392 . S
C380 C383 1.511 . S
C381 C377 1.376 . S
C381 C380 1.392 . S
C381 H393 0.929 . S
C382 C378 1.531 . S
C382 H394 0.960 . S
C382 H395 0.962 . S
C382 H396 0.960 . S
C383 C380 1.511 . S
C383 H397 0.961 . S
C383 H398 0.961 . S
C383 H399 0.961 . S
C384 C385 1.370 . S
C384 C386 1.363 . S
C384 H400 0.931 . S
C385 C384 1.370 . S
C385 C389 1.408 . S
C386 C384 1.363 . S
C386 C387 1.370 . S
C386 C390 1.524 . S
C387 C379 1.503 . S
C387 C386 1.370 . S
C387 C388 1.403 . S
C388 C387 1.403 . S
C388 C389 1.404 . S
C388 C391 1.539 . S
C389 C385 1.408 . S
C389 C388 1.404 . S
C389 H401 0.930 . S
C390 C386 1.524 . S
C390 H402 0.956 . S
C390 H403 0.961 . S
C390 H404 0.961 . S
C391 C388 1.539 . S
C391 H405 0.958 . S
C391 H406 0.961 . S
C391 H407 0.960 . S
H392 C376 0.931 . S
H393 C381 0.929 . S
H394 C382 0.960 . S
H395 C382 0.962 . S
H396 C382 0.960 . S
H397 C383 0.961 . S
H398 C383 0.961 . S
H399 C383 0.961 . S
H400 C384 0.931 . S
H401 C389 0.930 . S
H402 C390 0.956 . S
H403 C390 0.961 . S
H404 C390 0.961 . S
H405 C391 0.958 . S
H406 C391 0.961 . S
H407 C391 0.960 . S
C408 C409 1.391 . S
C408 C410 1.394 . S
C408 H424 0.931 . S
C409 C408 1.391 . S
C409 C413 1.376 . S
C410 C408 1.394 . S
C410 C411 1.369 . S
C410 C414 1.531 . S
C411 C410 1.369 . S
C411 C412 1.410 . S
C411 C419 1.503 . S
C412 C411 1.410 . S
C412 C413 1.392 . S
C412 C415 1.511 . S
C413 C409 1.376 . S
C413 C412 1.392 . S
C413 H425 0.929 . S
C414 C410 1.531 . S
C414 H426 0.960 . S
C414 H427 0.962 . S
C414 H428 0.960 . S
C415 C412 1.511 . S
C415 H429 0.961 . S
C415 H430 0.961 . S
C415 H431 0.961 . S
C416 C417 1.370 . S
C416 C418 1.363 . S
C416 H432 0.931 . S
C417 C416 1.370 . S
C417 C421 1.408 . S
C418 C416 1.363 . S
C418 C419 1.370 . S
C418 C422 1.524 . S
C419 C411 1.503 . S
C419 C418 1.370 . S
C419 C420 1.403 . S
C420 C419 1.403 . S
C420 C421 1.404 . S
C420 C423 1.539 . S
C421 C417 1.408 . S
C421 C420 1.404 . S
C421 H433 0.930 . S
C422 C418 1.524 . S
C422 H434 0.956 . S
C422 H435 0.961 . S
C422 H436 0.961 . S
C423 C420 1.539 . S
C423 H437 0.958 . S
C423 H438 0.961 . S
C423 H439 0.960 . S
H424 C408 0.931 . S
H425 C413 0.929 . S
H426 C414 0.960 . S
H427 C414 0.962 . S
H428 C414 0.960 . S
H429 C415 0.961 . S
H430 C415 0.961 . S
H431 C415 0.961 . S
H432 C416 0.931 . S
H433 C421 0.930 . S
H434 C422 0.956 . S
H435 C422 0.961 . S
H436 C422 0.961 . S
H437 C423 0.958 . S
H438 C423 0.961 . S
H439 C423 0.960 . S
C440 C441 1.391 . S
C440 C442 1.394 . S
C440 H456 0.931 . S
C441 C440 1.391 . S
C441 C445 1.376 . S
C442 C440 1.394 . S
C442 C443 1.369 . S
C442 C446 1.531 . S
C443 C442 1.369 . S
C443 C444 1.410 . S
C443 C451 1.503 . S
C444 C443 1.410 . S
C444 C445 1.392 . S
C444 C447 1.511 . S
C445 C441 1.376 . S
C445 C444 1.392 . S
C445 H457 0.929 . S
C446 C442 1.531 . S
C446 H458 0.960 . S
C446 H459 0.962 . S
C446 H460 0.960 . S
C447 C444 1.511 . S
C447 H461 0.961 . S
C447 H462 0.961 . S
C447 H463 0.961 . S
C448 C449 1.370 . S
C448 C450 1.363 . S
C448 H464 0.931 . S
C449 C448 1.370 . S
C449 C453 1.408 . S
C450 C448 1.363 . S
C450 C451 1.370 . S
C450 C454 1.524 . S
C451 C443 1.503 . S
C451 C450 1.370 . S
C451 C452 1.403 . S
C452 C451 1.403 . S
C452 C453 1.404 . S
C452 C455 1.539 . S
C453 C449 1.408 . S
C453 C452 1.404 . S
C453 H465 0.930 . S
C454 C450 1.524 . S
C454 H466 0.956 . S
C454 H467 0.961 . S
C454 H468 0.961 . S
C455 C452 1.539 . S
C455 H469 0.958 . S
C455 H470 0.961 . S
C455 H471 0.960 . S
H456 C440 0.931 . S
H457 C445 0.929 . S
H458 C446 0.960 . S
H459 C446 0.962 . S
H460 C446 0.960 . S
H461 C447 0.961 . S
H462 C447 0.961 . S
H463 C447 0.961 . S
H464 C448 0.931 . S
H465 C453 0.930 . S
H466 C454 0.956 . S
H467 C454 0.961 . S
H468 C454 0.961 . S
H469 C455 0.958 . S
H470 C455 0.961 . S
H471 C455 0.960 . S
C472 C473 1.391 . S
C472 C474 1.394 . S
C472 H488 0.931 . S
C473 C472 1.391 . S
C473 C477 1.376 . S
C474 C472 1.394 . S
C474 C475 1.369 . S
C474 C478 1.531 . S
C475 C474 1.369 . S
C475 C476 1.410 . S
C475 C483 1.503 . S
C476 C475 1.410 . S
C476 C477 1.392 . S
C476 C479 1.511 . S
C477 C473 1.376 . S
C477 C476 1.392 . S
C477 H489 0.929 . S
C478 C474 1.531 . S
C478 H490 0.960 . S
C478 H491 0.962 . S
C478 H492 0.960 . S
C479 C476 1.511 . S
C479 H493 0.961 . S
C479 H494 0.961 . S
C479 H495 0.961 . S
C480 C481 1.370 . S
C480 C482 1.363 . S
C480 H496 0.931 . S
C481 C480 1.370 . S
C481 C485 1.408 . S
C482 C480 1.363 . S
C482 C483 1.370 . S
C482 C486 1.524 . S
C483 C475 1.503 . S
C483 C482 1.370 . S
C483 C484 1.403 . S
C484 C483 1.403 . S
C484 C485 1.404 . S
C484 C487 1.539 . S
C485 C481 1.408 . S
C485 C484 1.404 . S
C485 H497 0.930 . S
C486 C482 1.524 . S
C486 H498 0.956 . S
C486 H499 0.961 . S
C486 H500 0.961 . S
C487 C484 1.539 . S
C487 H501 0.958 . S
C487 H502 0.961 . S
C487 H503 0.960 . S
H488 C472 0.931 . S
H489 C477 0.929 . S
H490 C478 0.960 . S
H491 C478 0.962 . S
H492 C478 0.960 . S
H493 C479 0.961 . S
H494 C479 0.961 . S
H495 C479 0.961 . S
H496 C480 0.931 . S
H497 C485 0.930 . S
H498 C486 0.956 . S
H499 C486 0.961 . S
H500 C486 0.961 . S
H501 C487 0.958 . S
H502 C487 0.961 . S
H503 C487 0.960 . S
C504 C505 1.391 . S
C504 C506 1.394 . S
C504 H520 0.931 . S
C505 C504 1.391 . S
C505 C509 1.376 . S
C506 C504 1.394 . S
C506 C507 1.369 . S
C506 C510 1.531 . S
C507 C506 1.369 . S
C507 C508 1.410 . S
C507 C515 1.503 . S
C508 C507 1.410 . S
C508 C509 1.392 . S
C508 C511 1.511 . S
C509 C505 1.376 . S
C509 C508 1.392 . S
C509 H521 0.929 . S
C510 C506 1.531 . S
C510 H522 0.960 . S
C510 H523 0.962 . S
C510 H524 0.960 . S
C511 C508 1.511 . S
C511 H525 0.961 . S
C511 H526 0.961 . S
C511 H527 0.961 . S
C512 C513 1.370 . S
C512 C514 1.363 . S
C512 H528 0.931 . S
C513 C512 1.370 . S
C513 C517 1.408 . S
C514 C512 1.363 . S
C514 C515 1.370 . S
C514 C518 1.524 . S
C515 C507 1.503 . S
C515 C514 1.370 . S
C515 C516 1.403 . S
C516 C515 1.403 . S
C516 C517 1.404 . S
C516 C519 1.539 . S
C517 C513 1.408 . S
C517 C516 1.404 . S
C517 H529 0.930 . S
C518 C514 1.524 . S
C518 H530 0.956 . S
C518 H531 0.961 . S
C518 H532 0.961 . S
C519 C516 1.539 . S
C519 H533 0.958 . S
C519 H534 0.961 . S
C519 H535 0.960 . S
H520 C504 0.931 . S
H521 C509 0.929 . S
H522 C510 0.960 . S
H523 C510 0.962 . S
H524 C510 0.960 . S
H525 C511 0.961 . S
H526 C511 0.961 . S
H527 C511 0.961 . S
H528 C512 0.931 . S
H529 C517 0.930 . S
H530 C518 0.956 . S
H531 C518 0.961 . S
H532 C518 0.961 . S
H533 C519 0.958 . S
H534 C519 0.961 . S
H535 C519 0.960 . S
C536 C537 1.391 . S
C536 C538 1.394 . S
C536 H552 0.931 . S
C537 C536 1.391 . S
C537 C541 1.376 . S
C538 C536 1.394 . S
C538 C539 1.369 . S
C538 C542 1.531 . S
C539 C538 1.369 . S
C539 C540 1.410 . S
C539 C547 1.503 . S
C540 C539 1.410 . S
C540 C541 1.392 . S
C540 C543 1.511 . S
C541 C537 1.376 . S
C541 C540 1.392 . S
C541 H553 0.929 . S
C542 C538 1.531 . S
C542 H554 0.960 . S
C542 H555 0.962 . S
C542 H556 0.960 . S
C543 C540 1.511 . S
C543 H557 0.961 . S
C543 H558 0.961 . S
C543 H559 0.961 . S
C544 C545 1.370 . S
C544 C546 1.363 . S
C544 H560 0.931 . S
C545 C544 1.370 . S
C545 C549 1.408 . S
C546 C544 1.363 . S
C546 C547 1.370 . S
C546 C550 1.524 . S
C547 C539 1.503 . S
C547 C546 1.370 . S
C547 C548 1.403 . S
C548 C547 1.403 . S
C548 C549 1.404 . S
C548 C551 1.539 . S
C549 C545 1.408 . S
C549 C548 1.404 . S
C549 H561 0.930 . S
C550 C546 1.524 . S
C550 H562 0.956 . S
C550 H563 0.961 . S
C550 H564 0.961 . S
C551 C548 1.539 . S
C551 H565 0.958 . S
C551 H566 0.961 . S
C551 H567 0.960 . S
H552 C536 0.931 . S
H553 C541 0.929 . S
H554 C542 0.960 . S
H555 C542 0.962 . S
H556 C542 0.960 . S
H557 C543 0.961 . S
H558 C543 0.961 . S
H559 C543 0.961 . S
H560 C544 0.931 . S
H561 C549 0.930 . S
H562 C550 0.956 . S
H563 C550 0.961 . S
H564 C550 0.961 . S
H565 C551 0.958 . S
H566 C551 0.961 . S
H567 C551 0.960 . S
C568 C569 1.391 . S
C568 C570 1.394 . S
C568 H584 0.931 . S
C569 C568 1.391 . S
C569 C573 1.376 . S
C570 C568 1.394 . S
C570 C571 1.369 . S
C570 C574 1.531 . S
C571 C570 1.369 . S
C571 C572 1.410 . S
C571 C579 1.503 . S
C572 C571 1.410 . S
C572 C573 1.392 . S
C572 C575 1.511 . S
C573 C569 1.376 . S
C573 C572 1.392 . S
C573 H585 0.929 . S
C574 C570 1.531 . S
C574 H586 0.960 . S
C574 H587 0.962 . S
C574 H588 0.960 . S
C575 C572 1.511 . S
C575 H589 0.961 . S
C575 H590 0.961 . S
C575 H591 0.961 . S
C576 C577 1.370 . S
C576 C578 1.363 . S
C576 H592 0.931 . S
C577 C576 1.370 . S
C577 C581 1.408 . S
C578 C576 1.363 . S
C578 C579 1.370 . S
C578 C582 1.524 . S
C579 C571 1.503 . S
C579 C578 1.370 . S
C579 C580 1.403 . S
C580 C579 1.403 . S
C580 C581 1.404 . S
C580 C583 1.539 . S
C581 C577 1.408 . S
C581 C580 1.404 . S
C581 H593 0.930 . S
C582 C578 1.524 . S
C582 H594 0.956 . S
C582 H595 0.961 . S
C582 H596 0.961 . S
C583 C580 1.539 . S
C583 H597 0.958 . S
C583 H598 0.961 . S
C583 H599 0.960 . S
H584 C568 0.931 . S
H585 C573 0.929 . S
H586 C574 0.960 . S
H587 C574 0.962 . S
H588 C574 0.960 . S
H589 C575 0.961 . S
H590 C575 0.961 . S
H591 C575 0.961 . S
H592 C576 0.931 . S
H593 C581 0.930 . S
H594 C582 0.956 . S
H595 C582 0.961 . S
H596 C582 0.961 . S
H597 C583 0.958 . S
H598 C583 0.961 . S
H599 C583 0.960 . S
C600 C601 1.391 . S
C600 C602 1.394 . S
C600 H616 0.931 . S
C601 C600 1.391 . S
C601 C605 1.376 . S
C602 C600 1.394 . S
C602 C603 1.369 . S
C602 C606 1.531 . S
C603 C602 1.369 . S
C603 C604 1.410 . S
C603 C611 1.503 . S
C604 C603 1.410 . S
C604 C605 1.392 . S
C604 C607 1.511 . S
C605 C601 1.376 . S
C605 C604 1.392 . S
C605 H617 0.929 . S
C606 C602 1.531 . S
C606 H618 0.960 . S
C606 H619 0.962 . S
C606 H620 0.960 . S
C607 C604 1.511 . S
C607 H621 0.961 . S
C607 H622 0.961 . S
C607 H623 0.961 . S
C608 C609 1.370 . S
C608 C610 1.363 . S
C608 H624 0.931 . S
C609 C608 1.370 . S
C609 C613 1.408 . S
C610 C608 1.363 . S
C610 C611 1.370 . S
C610 C614 1.524 . S
C611 C603 1.503 . S
C611 C610 1.370 . S
C611 C612 1.403 . S
C612 C611 1.403 . S
C612 C613 1.404 . S
C612 C615 1.539 . S
C613 C609 1.408 . S
C613 C612 1.404 . S
C613 H625 0.930 . S
C614 C610 1.524 . S
C614 H626 0.956 . S
C614 H627 0.961 . S
C614 H628 0.961 . S
C615 C612 1.539 . S
C615 H629 0.958 . S
C615 H630 0.961 . S
C615 H631 0.960 . S
H616 C600 0.931 . S
H617 C605 0.929 . S
H618 C606 0.960 . S
H619 C606 0.962 . S
H620 C606 0.960 . S
H621 C607 0.961 . S
H622 C607 0.961 . S
H623 C607 0.961 . S
H624 C608 0.931 . S
H625 C613 0.930 . S
H626 C614 0.956 . S
H627 C614 0.961 . S
H628 C614 0.961 . S
H629 C615 0.958 . S
H630 C615 0.961 . S
H631 C615 0.960 . S
C632 C633 1.391 . S
C632 C634 1.394 . S
C632 H648 0.931 . S
C633 C632 1.391 . S
C633 C637 1.376 . S
C634 C632 1.394 . S
C634 C635 1.369 . S
C634 C638 1.531 . S
C635 C634 1.369 . S
C635 C636 1.410 . S
C635 C643 1.503 . S
C636 C635 1.410 . S
C636 C637 1.392 . S
C636 C639 1.511 . S
C637 C633 1.376 . S
C637 C636 1.392 . S
C637 H649 0.929 . S
C638 C634 1.531 . S
C638 H650 0.960 . S
C638 H651 0.962 . S
C638 H652 0.960 . S
C639 C636 1.511 . S
C639 H653 0.961 . S
C639 H654 0.961 . S
C639 H655 0.961 . S
C640 C641 1.370 . S
C640 C642 1.363 . S
C640 H656 0.931 . S
C641 C640 1.370 . S
C641 C645 1.408 . S
C642 C640 1.363 . S
C642 C643 1.370 . S
C642 C646 1.524 . S
C643 C635 1.503 . S
C643 C642 1.370 . S
C643 C644 1.403 . S
C644 C643 1.403 . S
C644 C645 1.404 . S
C644 C647 1.539 . S
C645 C641 1.408 . S
C645 C644 1.404 . S
C645 H657 0.930 . S
C646 C642 1.524 . S
C646 H658 0.956 . S
C646 H659 0.961 . S
C646 H660 0.961 . S
C647 C644 1.539 . S
C647 H661 0.958 . S
C647 H662 0.961 . S
C647 H663 0.960 . S
H648 C632 0.931 . S
H649 C637 0.929 . S
H650 C638 0.960 . S
H651 C638 0.962 . S
H652 C638 0.960 . S
H653 C639 0.961 . S
H654 C639 0.961 . S
H655 C639 0.961 . S
H656 C640 0.931 . S
H657 C645 0.930 . S
H658 C646 0.956 . S
H659 C646 0.961 . S
H660 C646 0.961 . S
H661 C647 0.958 . S
H662 C647 0.961 . S
H663 C647 0.960 . S
C664 C665 1.391 . S
C664 C666 1.394 . S
C664 H680 0.931 . S
C665 C664 1.391 . S
C665 C669 1.376 . S
C666 C664 1.394 . S
C666 C667 1.369 . S
C666 C670 1.531 . S
C667 C666 1.369 . S
C667 C668 1.410 . S
C667 C675 1.503 . S
C668 C667 1.410 . S
C668 C669 1.392 . S
C668 C671 1.511 . S
C669 C665 1.376 . S
C669 C668 1.392 . S
C669 H681 0.929 . S
C670 C666 1.531 . S
C670 H682 0.960 . S
C670 H683 0.962 . S
C670 H684 0.960 . S
C671 C668 1.511 . S
C671 H685 0.961 . S
C671 H686 0.961 . S
C671 H687 0.961 . S
C672 C673 1.370 . S
C672 C674 1.363 . S
C672 H688 0.931 . S
C673 C672 1.370 . S
C673 C677 1.408 . S
C674 C672 1.363 . S
C674 C675 1.370 . S
C674 C678 1.524 . S
C675 C667 1.503 . S
C675 C674 1.370 . S
C675 C676 1.403 . S
C676 C675 1.403 . S
C676 C677 1.404 . S
C676 C679 1.539 . S
C677 C673 1.408 . S
C677 C676 1.404 . S
C677 H689 0.930 . S
C678 C674 1.524 . S
C678 H690 0.956 . S
C678 H691 0.961 . S
C678 H692 0.961 . S
C679 C676 1.539 . S
C679 H693 0.958 . S
C679 H694 0.961 . S
C679 H695 0.960 . S
H680 C664 0.931 . S
H681 C669 0.929 . S
H682 C670 0.960 . S
H683 C670 0.962 . S
H684 C670 0.960 . S
H685 C671 0.961 . S
H686 C671 0.961 . S
H687 C671 0.961 . S
H688 C672 0.931 . S
H689 C677 0.930 . S
H690 C678 0.956 . S
H691 C678 0.961 . S
H692 C678 0.961 . S
H693 C679 0.958 . S
H694 C679 0.961 . S
H695 C679 0.960 . S
C696 C697 1.391 . S
C696 C698 1.394 . S
C696 H712 0.931 1_455 S
C697 C696 1.391 . S
C697 C701 1.376 . S
C698 C696 1.394 . S
C698 C699 1.369 . S
C698 C702 1.531 1_455 S
C699 C698 1.369 . S
C699 C700 1.410 . S
C699 C707 1.503 . S
C700 C699 1.410 . S
C700 C701 1.392 . S
C700 C703 1.511 . S
C701 C697 1.376 . S
C701 C700 1.392 . S
C701 H713 0.929 . S
C702 C698 1.531 1_655 S
C702 H714 0.960 1_655 S
C702 H715 0.962 . S
C702 H716 0.960 . S
C703 C700 1.511 . S
C703 H717 0.961 . S
C703 H718 0.961 . S
C703 H719 0.961 . S
C704 C705 1.386 1_554 S
C704 C706 1.361 1_455 S
C704 H720 0.918 1_454 S
C705 C704 1.386 1_556 S
C705 C709 1.408 1_556 S
C706 C704 1.361 1_655 S
C706 C707 1.369 1_655 S
C706 C710 1.526 . S
C707 C699 1.503 . S
C707 C706 1.369 1_455 S
C707 C708 1.403 . S
C708 C707 1.403 . S
C708 C709 1.404 . S
C708 C711 1.539 . S
C709 C705 1.408 1_554 S
C709 C708 1.404 . S
C709 H721 0.951 . S
C710 C706 1.526 . S
C710 H722 0.956 . S
C710 H723 0.961 . S
C710 H724 0.961 . S
C711 C708 1.539 . S
C711 H725 0.958 . S
C711 H726 0.961 . S
C711 H727 0.960 . S
H712 C696 0.931 1_655 S
H713 C701 0.929 . S
H714 C702 0.960 1_455 S
H715 C702 0.962 . S
H716 C702 0.960 . S
H717 C703 0.961 . S
H718 C703 0.961 . S
H719 C703 0.961 . S
H720 C704 0.918 1_656 S
H721 C709 0.951 . S
H722 C710 0.956 . S
H723 C710 0.961 . S
H724 C710 0.961 . S
H725 C711 0.958 . S
H726 C711 0.961 . S
H727 C711 0.960 . S
C728 C729 1.391 . S
C728 C730 1.394 . S
C728 H744 0.931 . S
C729 C728 1.391 . S
C729 C733 1.376 . S
C730 C728 1.394 . S
C730 C731 1.369 . S
C730 C734 1.531 . S
C731 C730 1.369 . S
C731 C732 1.410 . S
C731 C739 1.503 . S
C732 C731 1.410 . S
C732 C733 1.392 . S
C732 C735 1.511 1_545 S
C733 C729 1.376 . S
C733 C732 1.392 . S
C733 H745 0.929 1_545 S
C734 C730 1.531 . S
C734 H746 0.960 . S
C734 H747 0.962 . S
C734 H748 0.960 . S
C735 C732 1.511 1_565 S
C735 H749 0.961 . S
C735 H750 0.961 . S
C735 H751 0.961 1_565 S
C736 C737 1.370 . S
C736 C738 1.363 . S
C736 H752 0.931 . S
C737 C736 1.370 . S
C737 C741 1.408 . S
C738 C736 1.363 . S
C738 C739 1.370 . S
C738 C742 1.524 1_545 S
C739 C731 1.503 . S
C739 C738 1.370 . S
C739 C740 1.403 . S
C740 C739 1.403 . S
C740 C741 1.404 . S
C740 C743 1.539 . S
C741 C737 1.408 . S
C741 C740 1.404 . S
C741 H753 0.930 . S
C742 C738 1.524 1_565 S
C742 H754 0.956 1_565 S
C742 H755 0.961 . S
C742 H756 0.961 . S
C743 C740 1.539 . S
C743 H757 0.958 . S
C743 H758 0.961 . S
C743 H759 0.960 . S
H744 C728 0.931 . S
H745 C733 0.929 1_565 S
H746 C734 0.960 . S
H747 C734 0.962 . S
H748 C734 0.960 . S
H749 C735 0.961 . S
H750 C735 0.961 . S
H751 C735 0.961 1_545 S
H752 C736 0.931 . S
H753 C741 0.930 . S
H754 C742 0.956 1_545 S
H755 C742 0.961 . S
H756 C742 0.961 . S
H757 C743 0.958 . S
H758 C743 0.961 . S
H759 C743 0.960 . S
C760 C761 1.391 . S
C760 C762 1.394 . S
C760 H776 0.931 . S
C761 C760 1.391 . S
C761 C765 1.376 . S
C762 C760 1.394 . S
C762 C763 1.369 . S
C762 C766 1.531 . S
C763 C762 1.369 . S
C763 C764 1.410 . S
C763 C771 1.503 . S
C764 C763 1.410 . S
C764 C765 1.392 . S
C764 C767 1.511 . S
C765 C761 1.376 . S
C765 C764 1.392 . S
C765 H777 0.929 . S
C766 C762 1.531 . S
C766 H778 0.960 . S
C766 H779 0.962 . S
C766 H780 0.960 . S
C767 C764 1.511 . S
C767 H781 0.961 . S
C767 H782 0.961 . S
C767 H783 0.961 . S
C768 C769 1.370 . S
C768 C770 1.363 . S
C768 H784 0.931 . S
C769 C768 1.370 . S
C769 C773 1.408 . S
C770 C768 1.363 . S
C770 C771 1.370 . S
C770 C774 1.524 . S
C771 C763 1.503 . S
C771 C770 1.370 . S
C771 C772 1.403 . S
C772 C771 1.403 . S
C772 C773 1.404 . S
C772 C775 1.539 . S
C773 C769 1.408 . S
C773 C772 1.404 . S
C773 H785 0.930 . S
C774 C770 1.524 . S
C774 H786 0.956 . S
C774 H787 0.961 . S
C774 H788 0.961 . S
C775 C772 1.539 . S
C775 H789 0.958 . S
C775 H790 0.961 . S
C775 H791 0.960 . S
H776 C760 0.931 . S
H777 C765 0.929 . S
H778 C766 0.960 . S
H779 C766 0.962 . S
H780 C766 0.960 . S
H781 C767 0.961 . S
H782 C767 0.961 . S
H783 C767 0.961 . S
H784 C768 0.931 . S
H785 C773 0.930 . S
H786 C774 0.956 . S
H787 C774 0.961 . S
H788 C774 0.961 . S
H789 C775 0.958 . S
H790 C775 0.961 . S
H791 C775 0.960 . S
C792 C793 1.391 . S
C792 C794 1.393 1_545 S
C792 H808 0.931 1_545 S
C793 C792 1.391 . S
C793 C797 1.376 . S
C794 C792 1.393 1_565 S
C794 C795 1.372 1_565 S
C794 C798 1.529 . S
C795 C794 1.372 1_545 S
C795 C796 1.410 . S
C795 C803 1.503 . S
C796 C795 1.410 . S
C796 C797 1.392 . S
C796 C799 1.511 . S
C797 C793 1.376 . S
C797 C796 1.392 . S
C797 H809 0.929 . S
C798 C794 1.529 . S
C798 H810 0.960 . S
C798 H811 0.962 1_565 S
C798 H812 0.960 . S
C799 C796 1.511 . S
C799 H813 0.961 . S
C799 H814 0.961 . S
C799 H815 0.961 1_545 S
C800 C801 1.370 . S
C800 C802 1.363 . S
C800 H816 0.931 . S
C801 C800 1.370 . S
C801 C805 1.408 1_545 S
C802 C800 1.363 . S
C802 C803 1.370 . S
C802 C806 1.524 . S
C803 C795 1.503 . S
C803 C802 1.370 . S
C803 C804 1.403 1_545 S
C804 C803 1.403 1_565 S
C804 C805 1.404 . S
C804 C807 1.539 . S
C805 C801 1.408 1_565 S
C805 C804 1.404 . S
C805 H817 0.930 . S
C806 C802 1.524 . S
C806 H818 0.956 . S
C806 H819 0.961 . S
C806 H820 0.961 . S
C807 C804 1.539 . S
C807 H821 0.958 . S
C807 H822 0.961 . S
C807 H823 0.960 . S
H808 C792 0.931 1_565 S
H809 C797 0.929 . S
H810 C798 0.960 . S
H811 C798 0.962 1_545 S
H812 C798 0.960 . S
H813 C799 0.961 . S
H814 C799 0.961 . S
H815 C799 0.961 1_565 S
H816 C800 0.931 . S
H817 C805 0.930 . S
H818 C806 0.956 . S
H819 C806 0.961 . S
H820 C806 0.961 . S
H821 C807 0.958 . S
H822 C807 0.961 . S
H823 C807 0.960 . S
C824 C825 1.391 . S
C824 C826 1.394 . S
C824 H840 0.931 . S
C825 C824 1.391 . S
C825 C829 1.376 . S
C826 C824 1.394 . S
C826 C827 1.369 . S
C826 C830 1.531 . S
C827 C826 1.369 . S
C827 C828 1.410 . S
C827 C835 1.503 . S
C828 C827 1.410 . S
C828 C829 1.392 . S
C828 C831 1.511 . S
C829 C825 1.376 . S
C829 C828 1.392 . S
C829 H841 0.929 . S
C830 C826 1.531 . S
C830 H842 0.960 . S
C830 H843 0.962 . S
C830 H844 0.960 . S
C831 C828 1.511 . S
C831 H845 0.961 . S
C831 H846 0.961 . S
C831 H847 0.961 . S
C832 C833 1.370 1_556 S
C832 C834 1.363 . S
C832 H848 0.931 1_556 S
C833 C832 1.370 1_554 S
C833 C837 1.408 . S
C834 C832 1.363 . S
C834 C835 1.370 . S
C834 C838 1.524 . S
C835 C827 1.503 . S
C835 C834 1.370 . S
C835 C836 1.403 . S
C836 C835 1.403 . S
C836 C837 1.404 1_556 S
C836 C839 1.539 . S
C837 C833 1.408 . S
C837 C836 1.404 1_554 S
C837 H849 0.930 . S
C838 C834 1.524 . S
C838 H850 0.956 . S
C838 H851 0.961 . S
C838 H852 0.961 . S
C839 C836 1.539 . S
C839 H853 0.958 . S
C839 H854 0.961 . S
C839 H855 0.960 . S
H840 C824 0.931 . S
H841 C829 0.929 . S
H842 C830 0.960 . S
H843 C830 0.962 . S
H844 C830 0.960 . S
H845 C831 0.961 . S
H846 C831 0.961 . S
H847 C831 0.961 . S
H848 C832 0.931 1_554 S
H849 C837 0.930 . S
H850 C838 0.956 . S
H851 C838 0.961 . S
H852 C838 0.961 . S
H853 C839 0.958 . S
H854 C839 0.961 . S
H855 C839 0.960 . S
C856 C857 1.391 . S
C856 C858 1.394 . S
C856 H872 0.931 . S
C857 C856 1.391 . S
C857 C861 1.376 1_455 S
C858 C856 1.394 . S
C858 C859 1.369 . S
C858 C862 1.531 . S
C859 C858 1.369 . S
C859 C860 1.410 1_455 S
C859 C867 1.507 . S
C860 C859 1.410 1_655 S
C860 C861 1.392 . S
C860 C863 1.511 . S
C861 C857 1.376 1_655 S
C861 C860 1.392 . S
C861 H873 0.929 . S
C862 C858 1.531 . S
C862 H874 0.960 . S
C862 H875 0.962 . S
C862 H876 0.960 . S
C863 C860 1.511 . S
C863 H877 0.961 . S
C863 H878 0.961 . S
C863 H879 0.961 . S
C864 C865 1.371 . S
C864 C866 1.362 1_655 S
C864 H880 0.928 1_655 S
C865 C864 1.371 . S
C865 C869 1.404 . S
C866 C864 1.362 1_455 S
C866 C867 1.376 . S
C866 C870 1.523 . S
C867 C859 1.507 . S
C867 C866 1.376 . S
C867 C868 1.402 . S
C868 C867 1.402 . S
C868 C869 1.400 1_455 S
C868 C871 1.524 1_455 S
C869 C865 1.404 . S
C869 C868 1.400 1_655 S
C869 H881 0.936 . S
C870 C866 1.523 . S
C870 H882 0.967 . S
C870 H883 0.953 1_455 S
C870 H884 0.962 1_455 S
C871 C868 1.524 1_655 S
C871 H885 0.940 1_655 S
C871 H886 0.979 . S
C871 H887 0.967 . S
H872 C856 0.931 . S
H873 C861 0.929 . S
H874 C862 0.960 . S
H875 C862 0.962 . S
H876 C862 0.960 . S
H877 C863 0.961 . S
H878 C863 0.961 . S
H879 C863 0.961 . S
H880 C864 0.928 1_455 S
H881 C869 0.936 . S
H882 C870 0.967 . S
H883 C870 0.953 1_655 S
H884 C870 0.962 1_655 S
H885 C871 0.940 1_455 S
H886 C871 0.979 . S
H887 C871 0.967 . S
C313 C24 2.898 . S
C321 C303 2.833 . S
C345 C66 1.179 . S
C353 C239 1.143 . S
C377 C93 1.789 . S
C385 C271 1.742 . S
C409 C13 3.046 . S
C417 C297 3.005 . S
C449 C233 1.239 . S
C441 C57 1.240 . S
C481 C265 1.865 . S
C473 C104 1.901 . S
C505 C64 1.922 . S
C513 C175 1.856 . S
C537 C97 0.455 . S
C545 C207 0.472 . S
C569 C17 1.299 . S
C577 C137 1.304 . S
C609 C169 1.766 . S
C601 C53 1.795 . S
C641 C201 0.239 . S
C633 C106 0.473 . S
C665 C26 1.191 . S
C673 C143 1.164 . S
C705 C213 1.073 . S
C697 C2 1.097 . S
C729 C63 1.480 . S
C737 C149 1.460 . S
C761 C82 1.358 . S
C769 C181 1.381 . S
C801 C277 1.361 . S
C793 C42 1.397 . S
C833 C309 1.739 . S
C825 C103 1.726 . S
C857 C23 1.448 . S
C865 C245 1.476 1_655 S
