# Generated by pormake.
# Topology ptr, (4,4)-cn, num edge types: 1
# Building blocks:
#     Node 0, Type 0, BuildingBlock: UXUYUI_clean_sbu_0, # of connection points: 4
#     Node 1, Type 0, BuildingBlock: UXUYUI_clean_sbu_0, # of connection points: 4
#     Node 2, Type 0, BuildingBlock: UXUYUI_clean_sbu_0, # of connection points: 4
#     Node 3, Type 0, BuildingBlock: UXUYUI_clean_sbu_0, # of connection points: 4
#     Node 4, Type 0, BuildingBlock: UXUYUI_clean_sbu_0, # of connection points: 4
#     Node 5, Type 0, BuildingBlock: UXUYUI_clean_sbu_0, # of connection points: 4
#     Node 6, Type 0, BuildingBlock: UXUYUI_clean_sbu_0, # of connection points: 4
#     Node 7, Type 0, BuildingBlock: UXUYUI_clean_sbu_0, # of connection points: 4
#     Node 8, Type 0, BuildingBlock: UXUYUI_clean_sbu_0, # of connection points: 4
#     Node 9, Type 0, BuildingBlock: UXUYUI_clean_sbu_0, # of connection points: 4
#     Node 10, Type 0, BuildingBlock: UXUYUI_clean_sbu_0, # of connection points: 4
#     Node 11, Type 0, BuildingBlock: UXUYUI_clean_sbu_0, # of connection points: 4
#     Node 12, Type 0, BuildingBlock: UXUYUI_clean_sbu_0, # of connection points: 4
#     Node 13, Type 0, BuildingBlock: UXUYUI_clean_sbu_0, # of connection points: 4
#     Node 14, Type 0, BuildingBlock: UXUYUI_clean_sbu_0, # of connection points: 4
#     Node 15, Type 0, BuildingBlock: UXUYUI_clean_sbu_0, # of connection points: 4
#     Node 16, Type 0, BuildingBlock: UXUYUI_clean_sbu_0, # of connection points: 4
#     Node 17, Type 0, BuildingBlock: UXUYUI_clean_sbu_0, # of connection points: 4
#     Node 18, Type 1, BuildingBlock: GIZVER_clean_linker_0, # of connection points: 4
#     Node 19, Type 1, BuildingBlock: GIZVER_clean_linker_0, # of connection points: 4
#     Node 20, Type 1, BuildingBlock: GIZVER_clean_linker_0, # of connection points: 4
#     Node 21, Type 1, BuildingBlock: GIZVER_clean_linker_0, # of connection points: 4
#     Node 22, Type 1, BuildingBlock: GIZVER_clean_linker_0, # of connection points: 4
#     Node 23, Type 1, BuildingBlock: GIZVER_clean_linker_0, # of connection points: 4
#     Node 24, Type 1, BuildingBlock: GIZVER_clean_linker_0, # of connection points: 4
#     Node 25, Type 1, BuildingBlock: GIZVER_clean_linker_0, # of connection points: 4
#     Node 26, Type 1, BuildingBlock: GIZVER_clean_linker_0, # of connection points: 4
#     Node 27, Type 1, BuildingBlock: GIZVER_clean_linker_0, # of connection points: 4
#     Node 28, Type 1, BuildingBlock: GIZVER_clean_linker_0, # of connection points: 4
#     Node 29, Type 1, BuildingBlock: GIZVER_clean_linker_0, # of connection points: 4
#     Node 30, Type 1, BuildingBlock: GIZVER_clean_linker_0, # of connection points: 4
#     Node 31, Type 1, BuildingBlock: GIZVER_clean_linker_0, # of connection points: 4
#     Node 32, Type 1, BuildingBlock: GIZVER_clean_linker_0, # of connection points: 4
#     Node 33, Type 1, BuildingBlock: GIZVER_clean_linker_0, # of connection points: 4
#     Node 34, Type 1, BuildingBlock: GIZVER_clean_linker_0, # of connection points: 4
#     Node 35, Type 1, BuildingBlock: GIZVER_clean_linker_0, # of connection points: 4
#     Edge 36, Type (0, 1), BuildingBlock: TEMPAE_clean_linker_10, # of connection points: 2
#     Edge 37, Type (0, 1), BuildingBlock: TEMPAE_clean_linker_10, # of connection points: 2
#     Edge 38, Type (0, 1), BuildingBlock: TEMPAE_clean_linker_10, # of connection points: 2
#     Edge 39, Type (0, 1), BuildingBlock: TEMPAE_clean_linker_10, # of connection points: 2
#     Edge 40, Type (0, 1), BuildingBlock: TEMPAE_clean_linker_10, # of connection points: 2
#     Edge 41, Type (0, 1), BuildingBlock: TEMPAE_clean_linker_10, # of connection points: 2
#     Edge 42, Type (0, 1), BuildingBlock: TEMPAE_clean_linker_10, # of connection points: 2
#     Edge 43, Type (0, 1), BuildingBlock: TEMPAE_clean_linker_10, # of connection points: 2
#     Edge 44, Type (0, 1), BuildingBlock: TEMPAE_clean_linker_10, # of connection points: 2
#     Edge 45, Type (0, 1), BuildingBlock: TEMPAE_clean_linker_10, # of connection points: 2
#     Edge 46, Type (0, 1), BuildingBlock: TEMPAE_clean_linker_10, # of connection points: 2
#     Edge 47, Type (0, 1), BuildingBlock: TEMPAE_clean_linker_10, # of connection points: 2
#     Edge 48, Type (0, 1), BuildingBlock: TEMPAE_clean_linker_10, # of connection points: 2
#     Edge 49, Type (0, 1), BuildingBlock: TEMPAE_clean_linker_10, # of connection points: 2
#     Edge 50, Type (0, 1), BuildingBlock: TEMPAE_clean_linker_10, # of connection points: 2
#     Edge 51, Type (0, 1), BuildingBlock: TEMPAE_clean_linker_10, # of connection points: 2
#     Edge 52, Type (0, 1), BuildingBlock: TEMPAE_clean_linker_10, # of connection points: 2
#     Edge 53, Type (0, 1), BuildingBlock: TEMPAE_clean_linker_10, # of connection points: 2
#     Edge 54, Type (0, 1), BuildingBlock: TEMPAE_clean_linker_10, # of connection points: 2
#     Edge 55, Type (0, 1), BuildingBlock: TEMPAE_clean_linker_10, # of connection points: 2
#     Edge 56, Type (0, 1), BuildingBlock: TEMPAE_clean_linker_10, # of connection points: 2
#     Edge 57, Type (0, 1), BuildingBlock: TEMPAE_clean_linker_10, # of connection points: 2
#     Edge 58, Type (0, 1), BuildingBlock: TEMPAE_clean_linker_10, # of connection points: 2
#     Edge 59, Type (0, 1), BuildingBlock: TEMPAE_clean_linker_10, # of connection points: 2
#     Edge 60, Type (0, 1), BuildingBlock: TEMPAE_clean_linker_10, # of connection points: 2
#     Edge 61, Type (0, 1), BuildingBlock: TEMPAE_clean_linker_10, # of connection points: 2
#     Edge 62, Type (0, 1), BuildingBlock: TEMPAE_clean_linker_10, # of connection points: 2
#     Edge 63, Type (0, 1), BuildingBlock: TEMPAE_clean_linker_10, # of connection points: 2
#     Edge 64, Type (0, 1), BuildingBlock: TEMPAE_clean_linker_10, # of connection points: 2
#     Edge 65, Type (0, 1), BuildingBlock: TEMPAE_clean_linker_10, # of connection points: 2
#     Edge 66, Type (0, 1), BuildingBlock: TEMPAE_clean_linker_10, # of connection points: 2
#     Edge 67, Type (0, 1), BuildingBlock: TEMPAE_clean_linker_10, # of connection points: 2
#     Edge 68, Type (0, 1), BuildingBlock: TEMPAE_clean_linker_10, # of connection points: 2
#     Edge 69, Type (0, 1), BuildingBlock: TEMPAE_clean_linker_10, # of connection points: 2
#     Edge 70, Type (0, 1), BuildingBlock: TEMPAE_clean_linker_10, # of connection points: 2
#     Edge 71, Type (0, 1), BuildingBlock: TEMPAE_clean_linker_10, # of connection points: 2
#     Edge 72, Type (0, 1), BuildingBlock: TEMPAE_clean_linker_10, # of connection points: 2
#     Edge 73, Type (0, 1), BuildingBlock: TEMPAE_clean_linker_10, # of connection points: 2
#     Edge 74, Type (0, 1), BuildingBlock: TEMPAE_clean_linker_10, # of connection points: 2
#     Edge 75, Type (0, 1), BuildingBlock: TEMPAE_clean_linker_10, # of connection points: 2
#     Edge 76, Type (0, 1), BuildingBlock: TEMPAE_clean_linker_10, # of connection points: 2
#     Edge 77, Type (0, 1), BuildingBlock: TEMPAE_clean_linker_10, # of connection points: 2
#     Edge 78, Type (0, 1), BuildingBlock: TEMPAE_clean_linker_10, # of connection points: 2
#     Edge 79, Type (0, 1), BuildingBlock: TEMPAE_clean_linker_10, # of connection points: 2
#     Edge 80, Type (0, 1), BuildingBlock: TEMPAE_clean_linker_10, # of connection points: 2
#     Edge 81, Type (0, 1), BuildingBlock: TEMPAE_clean_linker_10, # of connection points: 2
#     Edge 82, Type (0, 1), BuildingBlock: TEMPAE_clean_linker_10, # of connection points: 2
#     Edge 83, Type (0, 1), BuildingBlock: TEMPAE_clean_linker_10, # of connection points: 2
#     Edge 84, Type (0, 1), BuildingBlock: TEMPAE_clean_linker_10, # of connection points: 2
#     Edge 85, Type (0, 1), BuildingBlock: TEMPAE_clean_linker_10, # of connection points: 2
#     Edge 86, Type (0, 1), BuildingBlock: TEMPAE_clean_linker_10, # of connection points: 2
#     Edge 87, Type (0, 1), BuildingBlock: TEMPAE_clean_linker_10, # of connection points: 2
#     Edge 88, Type (0, 1), BuildingBlock: TEMPAE_clean_linker_10, # of connection points: 2
#     Edge 89, Type (0, 1), BuildingBlock: TEMPAE_clean_linker_10, # of connection points: 2
#     Edge 90, Type (0, 1), BuildingBlock: TEMPAE_clean_linker_10, # of connection points: 2
#     Edge 91, Type (0, 1), BuildingBlock: TEMPAE_clean_linker_10, # of connection points: 2
#     Edge 92, Type (0, 1), BuildingBlock: TEMPAE_clean_linker_10, # of connection points: 2
#     Edge 93, Type (0, 1), BuildingBlock: TEMPAE_clean_linker_10, # of connection points: 2
#     Edge 94, Type (0, 1), BuildingBlock: TEMPAE_clean_linker_10, # of connection points: 2
#     Edge 95, Type (0, 1), BuildingBlock: TEMPAE_clean_linker_10, # of connection points: 2
#     Edge 96, Type (0, 1), BuildingBlock: TEMPAE_clean_linker_10, # of connection points: 2
#     Edge 97, Type (0, 1), BuildingBlock: TEMPAE_clean_linker_10, # of connection points: 2
#     Edge 98, Type (0, 1), BuildingBlock: TEMPAE_clean_linker_10, # of connection points: 2
#     Edge 99, Type (0, 1), BuildingBlock: TEMPAE_clean_linker_10, # of connection points: 2
#     Edge 100, Type (0, 1), BuildingBlock: TEMPAE_clean_linker_10, # of connection points: 2
#     Edge 101, Type (0, 1), BuildingBlock: TEMPAE_clean_linker_10, # of connection points: 2
#     Edge 102, Type (0, 1), BuildingBlock: TEMPAE_clean_linker_10, # of connection points: 2
#     Edge 103, Type (0, 1), BuildingBlock: TEMPAE_clean_linker_10, # of connection points: 2
#     Edge 104, Type (0, 1), BuildingBlock: TEMPAE_clean_linker_10, # of connection points: 2
#     Edge 105, Type (0, 1), BuildingBlock: TEMPAE_clean_linker_10, # of connection points: 2
#     Edge 106, Type (0, 1), BuildingBlock: TEMPAE_clean_linker_10, # of connection points: 2
#     Edge 107, Type (0, 1), BuildingBlock: TEMPAE_clean_linker_10, # of connection points: 2
# Relax obj value: 0.092
# Max RMSD: 0.230
# Mean RMSD: 0.120
data_MOF--net-ptr--node1-UXUYUI_clean_sbu_0--node2-GIZVER_clean_linker_0--edge1-TEMPAE_clean_linker_10
_symmetry_space_group_name_H-M    P1
_symmetry_Int_Tables_number       1
_symmetry_cell_setting            triclinic
loop_
_symmetry_equiv_pos_as_xyz
'x, y, z'
_cell_length_a     99.956715
_cell_length_b     100.00131
_cell_length_c     56.705703
_cell_angle_alpha  90.236861
_cell_angle_beta   90.239649
_cell_angle_gamma 120.07209
loop_
_atom_site_label
_atom_site_type_symbol
_atom_site_fract_x
_atom_site_fract_y
_atom_site_fract_z
_atom_type_partial_charge
Li0 Li 0.98805 0.34114 0.00299 0.0
Li1 Li 0.01515 0.35454 0.00892 0.0
Li2 Li 0.99911 0.36371 0.02887 0.0
Li3 Li 0.00356 0.36642 0.98451 0.0
C4 C 0.99348 0.33422 0.05123 0.0
N5 N 0.98177 0.31353 0.08802 0.0
C6 C 0.99782 0.32302 0.05402 0.0
C7 C 0.98333 0.33502 0.06731 0.0
C8 C 0.99172 0.31263 0.07268 0.0
C9 C 0.9775 0.32442 0.08575 0.0
C10 C 0.00559 0.33564 0.96829 0.0
C11 C 0.01167 0.32451 0.93515 0.0
N12 N 0.009 0.31221 0.94866 0.0
C13 C 0.00289 0.3229 0.98186 0.0
C14 C 0.00999 0.33646 0.94475 0.0
C15 C 0.00467 0.31117 0.9716 0.0
C16 C 0.96557 0.31726 0.97453 0.0
N17 N 0.97024 0.32094 0.99736 0.0
C18 C 0.95033 0.296 0.00985 0.0
C19 C 0.96274 0.31071 0.01496 0.0
C20 C 0.94539 0.29177 0.98639 0.0
C21 C 0.95309 0.30276 0.96864 0.0
H22 H 0.9716 0.32563 0.96084 0.0
H23 H 0.96633 0.31379 0.03301 0.0
C24 C 0.03685 0.35275 0.03725 0.0
N25 N 0.03283 0.35236 0.01426 0.0
C26 C 0.0489 0.35022 0.04348 0.0
C27 C 0.05278 0.3473 0.00216 0.0
C28 C 0.0407 0.35004 0.99671 0.0
C29 C 0.05685 0.34709 0.02587 0.0
H30 H 0.03053 0.35484 0.05081 0.0
H31 H 0.03745 0.35004 0.97851 0.0
C32 C 0.96863 0.351 0.99749 0.0
N33 N 0.93747 0.33412 0.98678 0.0
C34 C 0.9635 0.35056 0.97439 0.0
C35 C 0.95792 0.34295 0.01519 0.0
C36 C 0.94769 0.34194 0.96932 0.0
C37 C 0.94221 0.33445 0.0094 0.0
C38 C 0.03447 0.3842 0.00858 0.0
C39 C 0.04395 0.39077 0.02838 0.0
C40 C 0.04113 0.38537 0.9865 0.0
C41 C 0.05999 0.39845 0.02575 0.0
C42 C 0.05721 0.39313 0.98461 0.0
N43 N 0.06623 0.39945 0.00411 0.0
C44 C 0.00795 0.38048 0.07187 0.0
C45 C 0.98518 0.37762 0.05393 0.0
C46 C 0.00772 0.39057 0.08877 0.0
N47 N 0.99694 0.37451 0.05468 0.0
C48 C 0.98437 0.38745 0.07067 0.0
C49 C 0.99595 0.39435 0.08799 0.0
H50 H 0.01717 0.37779 0.07197 0.0
H51 H 0.97674 0.37294 0.03981 0.0
C52 C 0.0017 0.3762 0.93757 0.0
N53 N 0.00639 0.38052 0.96024 0.0
C54 C 0.00328 0.38725 0.92104 0.0
C55 C 0.01479 0.4069 0.95145 0.0
C56 C 0.01285 0.3955 0.96737 0.0
C57 C 0.00985 0.40283 0.928 0.0
H58 H 0.99651 0.36417 0.93245 0.0
H59 H 0.0163 0.39854 0.9856 0.0
O60 O 0.99948 0.34462 0.03326 0.0
O61 O 0.00415 0.3474 0.97795 0.0
O62 O 0.98409 0.35901 0.00265 0.0
O63 O 0.01875 0.37612 0.01086 0.0
H64 H 0.00582 0.32237 0.04192 0.0
H65 H 0.97991 0.34365 0.06548 0.0
H66 H 0.99493 0.30387 0.07501 0.0
H67 H 0.96957 0.32485 0.09825 0.0
H68 H 0.01512 0.32501 0.91697 0.0
H69 H 0.9995 0.32212 0.0001 0.0
H70 H 0.01216 0.34629 0.93407 0.0
H71 H 0.00264 0.30124 0.98189 0.0
H72 H 0.94491 0.28794 0.02415 0.0
H73 H 0.94953 0.30021 0.95035 0.0
H74 H 0.05187 0.35059 0.06195 0.0
H75 H 0.05855 0.34493 0.988 0.0
H76 H 0.97166 0.35668 0.96048 0.0
H77 H 0.96173 0.34309 0.03313 0.0
H78 H 0.94356 0.34143 0.9515 0.0
H79 H 0.9338 0.32806 0.02288 0.0
H80 H 0.03899 0.38986 0.04562 0.0
H81 H 0.03394 0.38012 0.97106 0.0
H82 H 0.06748 0.40356 0.04094 0.0
H83 H 0.06253 0.39407 0.96766 0.0
H84 H 0.01677 0.39556 0.10205 0.0
H85 H 0.97518 0.39019 0.06942 0.0
H86 H 0.99942 0.38367 0.90305 0.0
H87 H 0.01971 0.41872 0.9576 0.0
Li88 Li 0.66027 0.64517 0.00831 0.0
Li89 Li 0.64684 0.65958 0.01561 0.0
Li90 Li 0.6377 0.63321 0.03456 0.0
Li91 Li 0.63388 0.63581 0.99139 0.0
C92 C 0.66699 0.65727 0.05794 0.0
N93 N 0.68687 0.66588 0.09616 0.0
C94 C 0.67602 0.67286 0.06417 0.0
C95 C 0.66795 0.64604 0.07122 0.0
C96 C 0.68604 0.67698 0.08353 0.0
C97 C 0.6781 0.65063 0.09047 0.0
C98 C 0.65896 0.66616 0.96791 0.0
C99 C 0.65494 0.6805 0.93734 0.0
N100 N 0.67047 0.68891 0.93398 0.0
C101 C 0.67488 0.67485 0.96403 0.0
C102 C 0.64888 0.6689 0.95435 0.0
C103 C 0.68048 0.68634 0.94684 0.0
C104 C 0.68213 0.64155 0.98186 0.0
N105 N 0.68025 0.64765 0.00219 0.0
C106 C 0.70696 0.65809 0.01215 0.0
C107 C 0.69233 0.65588 0.0172 0.0
C108 C 0.70924 0.6518 0.9914 0.0
C109 C 0.69652 0.64333 0.97623 0.0
H110 H 0.67249 0.63545 0.96985 0.0
H111 H 0.69082 0.66107 0.03286 0.0
C112 C 0.63999 0.68112 0.0362 0.0
N113 N 0.64949 0.6796 0.02068 0.0
C114 C 0.64181 0.69567 0.04092 0.0
C115 C 0.66301 0.70678 0.01339 0.0
C116 C 0.66096 0.69208 0.00953 0.0
C117 C 0.65342 0.70869 0.02936 0.0
H118 H 0.63111 0.67104 0.04509 0.0
H119 H 0.66873 0.69073 0.99798 0.0
C120 C 0.64753 0.61413 0.00156 0.0
N121 N 0.65915 0.59512 0.98975 0.0
C122 C 0.64498 0.6076 0.979 0.0
C123 C 0.65585 0.61089 0.0182 0.0
C124 C 0.65099 0.59803 0.97335 0.0
C125 C 0.66168 0.60128 0.01186 0.0
C126 C 0.61223 0.64175 0.01505 0.0
C127 C 0.59872 0.63116 0.02658 0.0
C128 C 0.61192 0.65238 -0.0005 0.0
C129 C 0.58503 0.63129 0.02214 0.0
C130 C 0.598 0.65216 0.99555 0.0
N131 N 0.58496 0.6417 0.00684 0.0
C132 C 0.62478 0.62345 0.08088 0.0
C133 C 0.62061 0.60408 0.0528 0.0
C134 C 0.61518 0.61215 0.097 0.0
N135 N 0.62715 0.61919 0.05922 0.0
C136 C 0.61103 0.59248 0.06828 0.0
C137 C 0.60795 0.59642 0.09057 0.0
H138 H 0.62994 0.63558 0.08534 0.0
H139 H 0.62248 0.60102 0.03533 0.0
C140 C 0.62158 0.62712 0.94417 0.0
N141 N 0.61897 0.6247 0.96767 0.0
C142 C 0.60996 0.61782 0.92797 0.0
C143 C 0.59329 0.60399 0.96057 0.0
C144 C 0.60524 0.61338 0.97603 0.0
C145 C 0.59559 0.60598 0.93614 0.0
H146 H 0.63273 0.63602 0.938 0.0
H147 H 0.60364 0.61152 0.99482 0.0
O148 O 0.65719 0.65307 0.03898 0.0
O149 O 0.6533 0.65485 0.98463 0.0
O150 O 0.64187 0.62362 0.00734 0.0
O151 O 0.62572 0.64177 0.01923 0.0
H152 H 0.67535 0.68167 0.05407 0.0
H153 H 0.66094 0.63392 0.06672 0.0
H154 H 0.69316 0.68901 0.08852 0.0
H155 H 0.67901 0.64208 0.10089 0.0
H156 H 0.64728 0.68278 0.92676 0.0
H157 H 0.68283 0.67283 0.97432 0.0
H158 H 0.63652 0.66212 0.95685 0.0
H159 H 0.69277 0.69321 0.94374 0.0
H160 H 0.71646 0.66503 0.0241 0.0
H161 H 0.69765 0.63816 0.9601 0.0
H162 H 0.63426 0.69675 0.05346 0.0
H163 H 0.6723 0.71662 0.00456 0.0
H164 H 0.63853 0.60998 0.96595 0.0
H165 H 0.65785 0.61582 0.03575 0.0
H166 H 0.64918 0.59295 0.95592 0.0
H167 H 0.66821 0.59874 0.02451 0.0
H168 H 0.59882 0.62289 0.03875 0.0
H169 H 0.62232 0.66079 0.99073 0.0
H170 H 0.57446 0.62313 0.03087 0.0
H171 H 0.59758 0.66032 0.98355 0.0
H172 H 0.613 0.61571 0.11393 0.0
H173 H 0.60591 0.58053 0.0627 0.0
H174 H 0.61237 0.61959 0.90929 0.0
H175 H 0.5824 0.59517 0.96774 0.0
Li176 Li 0.36206 0.99893 0.98646 0.0
Li177 Li 0.36423 0.00334 0.03061 0.0
Li178 Li 0.33974 0.98833 0.01131 0.0
Li179 Li 0.35238 0.01522 0.00704 0.0
C180 C 0.34974 0.9684 0.01283 0.0
N181 N 0.33439 0.9365 0.01398 0.0
C182 C 0.34336 0.96064 0.0339 0.0
C183 C 0.34841 0.95995 0.99239 0.0
C184 C 0.33561 0.9445 0.0341 0.0
C185 C 0.34059 0.94382 0.99333 0.0
C186 C 0.38385 0.0321 0.99321 0.0
C187 C 0.4043 0.05879 0.99327 0.0
N188 N 0.40379 0.05881 0.9693 0.0
C189 C 0.38347 0.03246 0.96856 0.0
C190 C 0.39434 0.04543 0.00566 0.0
C191 C 0.39367 0.04603 0.95681 0.0
C192 C 0.37068 0.99528 0.93872 0.0
N193 N 0.37349 0.99594 0.9623 0.0
C194 C 0.39503 0.99223 0.95598 0.0
C195 C 0.38535 0.99446 0.97107 0.0
C196 C 0.39256 0.99161 0.93154 0.0
C197 C 0.38021 0.99319 0.92289 0.0
H198 H 0.36121 0.99658 0.9322 0.0
H199 H 0.38729 0.99508 0.98993 0.0
C200 C 0.374 0.99582 0.07363 0.0
N201 N 0.37825 0.00568 0.05513 0.0
C202 C 0.38524 0.9964 0.08908 0.0
C203 C 0.40478 0.01782 0.06689 0.0
C204 C 0.39326 0.01659 0.05165 0.0
C205 C 0.40095 0.00736 0.08556 0.0
H206 H 0.362 0.98713 0.07584 0.0
H207 H 0.3964 0.024 0.0365 0.0
C208 C 0.32846 0.99224 0.9712 0.0
N209 N 0.29905 0.97661 0.95195 0.0
C210 C 0.31665 0.99412 0.98082 0.0
C211 C 0.32536 0.98252 0.95168 0.0
C212 C 0.30184 0.98607 0.97089 0.0
C213 C 0.3104 0.97471 0.94221 0.0
C214 C 0.34817 0.01397 0.05552 0.0
C215 C 0.33715 0.0111 0.07287 0.0
C216 C 0.36249 0.02758 0.05667 0.0
C217 C 0.34065 0.02189 0.09099 0.0
C218 C 0.36558 0.03807 0.07509 0.0
N219 N 0.35468 0.03504 0.09173 0.0
C220 C 0.31139 0.97044 0.03395 0.0
C221 C 0.31326 0.95855 -0.00109 0.0
C222 C 0.29652 0.95817 0.03791 0.0
N223 N 0.31946 0.97045 0.01475 0.0
C224 C 0.29836 0.94599 0.00217 0.0
C225 C 0.28982 0.94568 0.02198 0.0
H226 H 0.31649 0.98001 0.04619 0.0
H227 H 0.31985 0.95877 0.98372 0.0
C228 C 0.35797 0.04494 0.99099 0.0
N229 N 0.34904 0.03261 0.00487 0.0
C230 C 0.35514 0.0572 0.98931 0.0
C231 C 0.33363 0.04385 0.01579 0.0
C232 C 0.33701 0.03189 0.01717 0.0
C233 C 0.34279 0.05673 0.0017 0.0
H234 H 0.36709 0.04524 0.98069 0.0
H235 H 0.3298 0.02186 0.02773 0.0
O236 O 0.3572 0.98418 0.01219 0.0
O237 O 0.37415 0.01878 0.00501 0.0
O238 O 0.34299 0.99991 0.98084 0.0
O239 O 0.34477 0.00355 0.03748 0.0
H240 H 0.34417 0.967 0.04981 0.0
H241 H 0.3532 0.96575 0.9759 0.0
H242 H 0.33051 0.93834 0.05023 0.0
H243 H 0.3394 0.93713 0.97761 0.0
H244 H 0.41245 0.06916 0.00271 0.0
H245 H 0.37507 0.02256 0.95861 0.0
H246 H 0.39482 0.04557 0.02471 0.0
H247 H 0.39344 0.04645 0.93776 0.0
H248 H 0.40453 0.99129 0.96337 0.0
H249 H 0.37788 0.99271 0.90414 0.0
H250 H 0.38167 0.98794 0.103 0.0
H251 H 0.41663 0.02668 0.06367 0.0
H252 H 0.31883 0.00151 0.99601 0.0
H253 H 0.33435 0.98087 0.94411 0.0
H254 H 0.29255 0.98731 0.97827 0.0
H255 H 0.30781 0.96708 0.92718 0.0
H256 H 0.32595 1.00071 0.07234 0.0
H257 H 0.37113 0.03006 0.04349 0.0
H258 H 0.33221 0.01981 0.10446 0.0
H259 H 0.37664 0.04864 0.07614 0.0
H260 H 0.29028 0.95856 0.05323 0.0
H261 H 0.2937 0.93655 0.98953 0.0
H262 H 0.3622 0.06671 0.97768 0.0
H263 H 0.3239 0.04298 0.02543 0.0
Li264 Li 0.01439 0.65975 0.01429 0.0
Li265 Li 0.99663 0.63404 0.03164 0.0
Li266 Li 0.00354 0.63656 0.98954 0.0
Li267 Li 0.98604 0.64527 0.00417 0.0
C268 C 0.03222 0.64532 0.01348 0.0
N269 N 0.06257 0.6533 0.00578 0.0
C270 C 0.03995 0.64101 0.02961 0.0
C271 C 0.0399 0.65371 0.99347 0.0
C272 C 0.05531 0.64516 0.02541 0.0
C273 C 0.05525 0.65761 0.98986 0.0
C274 C 0.99328 0.65528 0.05823 0.0
C275 C 0.97527 0.64995 0.08985 0.0
N276 N 0.98731 0.65858 0.10475 0.0
C277 C 0.00547 0.66415 0.0738 0.0
C278 C 0.97805 0.64818 0.06624 0.0
C279 C 0.00221 0.66567 0.09727 0.0
C280 C 0.03132 0.69168 0.00782 0.0
N281 N 0.03147 0.67986 0.01934 0.0
C282 C 0.05554 0.69736 0.03789 0.0
C283 C 0.04324 0.68237 0.03415 0.0
C284 C 0.05569 0.70983 0.02627 0.0
C285 C 0.04342 0.70683 0.01094 0.0
H286 H 0.0217 0.68933 0.99636 0.0
H287 H 0.04299 0.67277 0.04324 0.0
C288 C 0.99032 0.606 0.04738 0.0
N289 N 0.99249 0.61959 0.05627 0.0
C290 C 0.98816 0.59407 0.0623 0.0
C291 C 0.99015 0.61013 0.09559 0.0
C292 C 0.9924 0.62186 0.07992 0.0
C293 C 0.98817 0.59604 0.08681 0.0
H294 H 0.99065 0.60458 0.02856 0.0
H295 H 0.99434 0.63277 0.08674 0.0
C296 C 0.00612 0.65871 0.95907 0.0
N297 N 0.00996 0.66324 0.91098 0.0
C298 C 0.99406 0.64936 0.9436 0.0
C299 C 0.02013 0.67038 0.9501 0.0
C300 C 0.99623 0.65183 0.91934 0.0
C301 C 0.02185 0.67248 0.92573 0.0
C302 C 0.96788 0.61338 0.00247 0.0
C303 C 0.96184 0.60529 0.98132 0.0
C304 C 0.95825 0.61019 0.02193 0.0
C305 C 0.94614 0.59423 0.97992 0.0
C306 C 0.94262 0.59904 0.01982 0.0
N307 N 0.93693 0.59136 -0.00096 0.0
C308 C 1.0002 0.60972 0.97191 0.0
C309 C 0.01588 0.63043 0.9465 0.0
C310 C 0.00203 0.59936 0.95777 0.0
N311 N 0.00705 0.6249 0.96616 0.0
C312 C 0.01795 0.62038 0.93165 0.0
C313 C 0.01105 0.60463 0.93739 0.0
H314 H 0.99333 0.60564 0.98766 0.0
H315 H 0.0215 0.64258 0.94246 0.0
C316 C 0.9679 0.65912 0.0104 0.0
N317 N 0.96887 0.64802 0.99786 0.0
C318 C 0.95588 0.66211 0.0061 0.0
C319 C 0.94601 0.64209 0.97615 0.0
C320 C 0.95823 0.63952 0.98101 0.0
C321 C 0.94481 0.65363 0.98859 0.0
H322 H 0.97664 0.66586 0.02349 0.0
H323 H 0.9593 0.63089 0.97107 0.0
O324 O 0.01732 0.64167 0.0177 0.0
O325 O 0.99623 0.6538 0.03515 0.0
O326 O 0.00421 0.65653 0.98288 0.0
O327 O 0.98319 0.62432 0.00407 0.0
H328 H 0.03415 0.6346 0.04528 0.0
H329 H 0.03412 0.65726 0.98099 0.0
H330 H 0.06146 0.64194 0.03778 0.0
H331 H 0.06135 0.6641 0.97445 0.0
H332 H 0.96355 0.64448 0.09633 0.0
H333 H 0.01732 0.66977 0.06783 0.0
H334 H 0.96848 0.6414 0.05434 0.0
H335 H 0.01153 0.67246 0.10955 0.0
H336 H 0.06483 0.69917 0.04977 0.0
H337 H 0.04298 0.71613 0.00193 0.0
H338 H 0.98703 0.58362 0.05463 0.0
H339 H 0.99012 0.61214 0.11436 0.0
H340 H 0.98321 0.64019 0.95025 0.0
H341 H 0.02962 0.6777 0.9618 0.0
H342 H 0.98701 0.64465 0.90715 0.0
H343 H 0.03264 0.68143 0.91854 0.0
H344 H 0.96917 0.60767 0.96609 0.0
H345 H 0.96281 0.61626 0.03847 0.0
H346 H 0.94127 0.58794 0.96363 0.0
H347 H 0.935 0.59647 0.03472 0.0
H348 H 0.99629 0.58728 0.96265 0.0
H349 H 0.02509 0.62492 0.91614 0.0
H350 H 0.95553 0.67125 0.01586 0.0
H351 H 0.93764 0.63518 0.96267 0.0
Li352 Li 0.34197 0.35861 0.01673 0.0
Li353 Li 0.36837 0.36738 0.03146 0.0
Li354 Li 0.36306 0.36933 0.98924 0.0
Li355 Li 0.3556 0.34402 0.00621 0.0
C356 C 0.35468 0.38907 0.02466 0.0
N357 N 0.34324 0.40746 0.04084 0.0
C358 C 0.35833 0.39537 0.04741 0.0
C359 C 0.34533 0.39224 0.01006 0.0
C360 C 0.35241 0.40462 0.05528 0.0
C361 C 0.33961 0.40152 0.01859 0.0
C362 C 0.34842 0.34282 0.06069 0.0
C363 C 0.35361 0.32882 0.09048 0.0
N364 N 0.34675 0.33333 0.10686 0.0
C365 C 0.34125 0.34716 0.07777 0.0
C366 C 0.35449 0.33342 0.06704 0.0
C367 C 0.34058 0.34231 0.10103 0.0
C368 C 0.31019 0.34573 0.00859 0.0
N369 N 0.32184 0.35551 0.02328 0.0
C370 C 0.30408 0.35919 0.04667 0.0
C371 C 0.31906 0.36225 0.04206 0.0
C372 C 0.2918 0.34902 0.03189 0.0
C373 C 0.29504 0.34235 0.01251 0.0
H374 H 0.31262 0.34031 0.99399 0.0
H375 H 0.32841 0.3699 0.05365 0.0
C376 C 0.39857 0.38675 0.04619 0.0
N377 N 0.38402 0.37833 0.05488 0.0
C378 C 0.41099 0.39596 0.0611 0.0
C379 C 0.39324 0.38807 0.09373 0.0
C380 C 0.38117 0.37878 0.0782 0.0
C381 C 0.40843 0.39692 0.08522 0.0
H382 H 0.40052 0.38651 0.02751 0.0
H383 H 0.3695 0.37241 0.08468 0.0
C384 C 0.34021 0.35032 0.96223 0.0
N385 N 0.33513 0.352 0.91469 0.0
C386 C 0.34373 0.34206 0.94587 0.0
C387 C 0.33398 0.3593 0.95445 0.0
C388 C 0.34111 0.34309 0.92189 0.0
C389 C 0.33153 0.36003 0.93034 0.0
C390 C 0.38746 0.35768 0.00451 0.0
C391 C 0.39676 0.35936 0.98512 0.0
C392 C 0.3894 0.3515 0.02543 0.0
C393 C 0.40766 0.35456 0.98689 0.0
C394 C 0.40044 0.34686 0.02653 0.0
N395 N 0.40925 0.34845 0.00738 0.0
C396 C 0.37455 0.39693 0.9635 0.0
C397 C 0.37803 0.37754 0.94518 0.0
C398 C 0.38347 0.40759 0.94628 0.0
N399 N 0.37221 0.38231 0.96281 0.0
C400 C 0.38712 0.38785 0.9277 0.0
C401 C 0.3902 0.40319 0.92844 0.0
H402 H 0.37011 0.40054 0.97799 0.0
H403 H 0.37612 0.36591 0.94521 0.0
C404 C 0.34162 0.31191 0.01303 0.0
N405 N 0.35266 0.32397 0.00061 0.0
C406 C 0.33869 0.2969 0.00878 0.0
C407 C 0.35854 0.30704 0.97898 0.0
C408 C 0.36107 0.32182 0.98382 0.0
C409 C 0.34713 0.29431 0.99139 0.0
H410 H 0.3349 0.31392 0.02599 0.0
H411 H 0.36953 0.33154 0.97382 0.0
O412 O 0.36036 0.37997 0.01667 0.0
O413 O 0.34902 0.34734 0.03777 0.0
O414 O 0.34289 0.34963 0.98575 0.0
O415 O 0.37656 0.36211 0.00296 0.0
H416 H 0.36561 0.39311 0.0589 0.0
H417 H 0.34244 0.38753 0.99238 0.0
H418 H 0.3551 0.40952 0.07288 0.0
H419 H 0.33229 0.404 0.00752 0.0
H420 H 0.35832 0.32159 0.09562 0.0
H421 H 0.33642 0.35434 0.07322 0.0
H422 H 0.35973 0.3296 0.05401 0.0
H423 H 0.33519 0.3457 0.11445 0.0
H424 H 0.30211 0.36469 0.0617 0.0
H425 H 0.28589 0.33427 0.00089 0.0
H426 H 0.42246 0.40235 0.05368 0.0
H427 H 0.39058 0.38867 0.11206 0.0
H428 H 0.34852 0.33502 0.95159 0.0
H429 H 0.33106 0.36564 0.96691 0.0
H430 H 0.34385 0.33684 0.90902 0.0
H431 H 0.32676 0.36699 0.92406 0.0
H432 H 0.39552 0.36422 0.96884 0.0
H433 H 0.38256 0.35046 0.04073 0.0
H434 H 0.41487 0.3557 0.97198 0.0
H435 H 0.40202 0.34203 0.04262 0.0
H436 H 0.3857 0.41934 0.94757 0.0
H437 H 0.39198 0.38399 0.91406 0.0
H438 H 0.32963 0.2874 0.01849 0.0
H439 H 0.36538 0.30559 0.96553 0.0
Li440 Li 0.64764 0.98638 0.01391 0.0
Li441 Li 0.63869 0.00283 0.03245 0.0
Li442 Li 0.63602 0.99749 0.98908 0.0
Li443 Li 0.66156 0.01488 0.00651 0.0
C444 C 0.6176 0.96812 0.02329 0.0
N445 N 0.60021 0.93817 0.03927 0.0
C446 C 0.61394 0.96532 0.04719 0.0
C447 C 0.61228 0.95571 0.00748 0.0
C448 C 0.60516 0.95009 0.05493 0.0
C449 C 0.60355 0.94065 0.01592 0.0
C450 C 0.66482 0.00964 0.05889 0.0
C451 C 0.67727 0.03123 0.08592 0.0
N452 N 0.67669 0.02151 0.10311 0.0
C453 C 0.66442 0.99988 0.0768 0.0
C454 C 0.67136 0.02545 0.06346 0.0
C455 C 0.67045 0.00609 0.09904 0.0
C456 C 0.65737 0.96511 0.00117 0.0
N457 N 0.65059 0.9691 0.01844 0.0
C458 C 0.64939 0.94941 0.04355 0.0
C459 C 0.64654 0.96149 0.03931 0.0
C460 C 0.65663 0.94519 0.02623 0.0
C461 C 0.66046 0.95308 0.00467 0.0
H462 H 0.66072 0.97149 0.98487 0.0
H463 H 0.64131 0.96495 0.05284 0.0
C464 C 0.61395 0.00426 0.04865 0.0
N465 N 0.6273 0.00554 0.057 0.0
C466 C 0.60368 0.00545 0.06388 0.0
C467 C 0.62119 0.00951 0.09619 0.0
C468 C 0.6311 0.00812 0.08029 0.0
C469 C 0.6072 0.00808 0.08805 0.0
H470 H 0.61119 0.00209 0.03005 0.0
H471 H 0.64168 0.009 0.08667 0.0
C472 C 0.65469 0.99452 0.95992 0.0
N473 N 0.65214 0.98844 0.91204 0.0
C474 C 0.66429 0.00604 0.94418 0.0
C475 C 0.64391 0.97986 0.95134 0.0
C476 C 0.6628 0.00275 0.92002 0.0
C477 C 0.64276 0.97703 0.92707 0.0
C478 C 0.64661 0.03231 0.00606 0.0
C479 C 0.6466 0.03948 0.98497 0.0
C480 C 0.6499 0.04054 0.02729 0.0
C481 C 0.65028 0.05493 0.98541 0.0
C482 C 0.65351 0.05596 0.02701 0.0
N483 N 0.65365 0.06279 0.00624 0.0
C484 C 0.60675 0.98454 0.96873 0.0
C485 C 0.62636 0.00304 0.94415 0.0
C486 C 0.59529 0.98327 0.95324 0.0
N487 N 0.62191 0.99442 0.96412 0.0
C488 C 0.61526 0.00207 0.92806 0.0
C489 C 0.59947 0.99232 0.93281 0.0
H490 H 0.60349 0.97804 0.98493 0.0
H491 H 0.63846 0.01112 0.94117 0.0
C492 C 0.6936 0.03456 0.01482 0.0
N493 N 0.68144 0.03259 0.00135 0.0
C494 C 0.70842 0.04701 0.01085 0.0
C495 C 0.69805 0.05488 0.97865 0.0
C496 C 0.68339 0.04243 0.9835 0.0
C497 C 0.71078 0.05724 0.99241 0.0
H498 H 0.69188 0.02629 0.02837 0.0
H499 H 0.67367 0.04035 0.97255 0.0
O500 O 0.62627 0.98294 0.01538 0.0
O501 O 0.65899 0.00374 0.03698 0.0
O502 O 0.65588 0.99754 0.98363 0.0
O503 O 0.64299 0.01718 0.00594 0.0
H504 H 0.61798 0.97478 0.05969 0.0
H505 H 0.61487 0.95769 0.9889 0.0
H506 H 0.60232 0.94774 0.0734 0.0
H507 H 0.59942 0.93093 0.00389 0.0
H508 H 0.68235 0.04344 0.08968 0.0
H509 H 0.65952 0.98764 0.07359 0.0
H510 H 0.67195 0.03322 0.04978 0.0
H511 H 0.67018 0.99866 0.11307 0.0
H512 H 0.64608 0.94352 0.06032 0.0
H513 H 0.66623 0.95034 0.99097 0.0
H514 H 0.59293 0.00395 0.05681 0.0
H515 H 0.62446 0.01168 0.11464 0.0
H516 H 0.67279 0.01739 0.95052 0.0
H517 H 0.63648 0.9708 0.96331 0.0
H518 H 0.67011 0.01157 0.90762 0.0
H519 H 0.63441 0.96576 0.92017 0.0
H520 H 0.64393 0.03324 0.96841 0.0
H521 H 0.64957 0.03508 0.04385 0.0
H522 H 0.65046 0.06067 0.96918 0.0
H523 H 0.65614 0.06249 0.04331 0.0
H524 H 0.58326 0.97552 0.95744 0.0
H525 H 0.61897 0.00937 0.91263 0.0
H526 H 0.71802 0.04829 0.02151 0.0
H527 H 0.69946 0.06249 0.96415 0.0
Li528 Li 0.6541 0.67753 0.33574 0.0
Li529 Li 0.68147 0.69078 0.34218 0.0
Li530 Li 0.66514 0.70074 0.3587 0.0
Li531 Li 0.67069 0.70312 0.3167 0.0
C532 C 0.65722 0.66714 0.37606 0.0
N533 N 0.64056 0.63748 0.39349 0.0
C534 C 0.66281 0.65689 0.37353 0.0
C535 C 0.64322 0.66233 0.38758 0.0
C536 C 0.65421 0.64194 0.38246 0.0
C537 C 0.63495 0.64728 0.39621 0.0
C538 C 0.67936 0.68428 0.29242 0.0
C539 C 0.70157 0.69921 0.26787 0.0
N540 N 0.69712 0.68663 0.25375 0.0
C541 C 0.67494 0.67153 0.27758 0.0
C542 C 0.69272 0.69827 0.28747 0.0
C543 C 0.6841 0.67293 0.25816 0.0
C544 C 0.62221 0.65336 0.33528 0.0
N545 N 0.63709 0.65711 0.33126 0.0
C546 C 0.62908 0.63099 0.32077 0.0
C547 C 0.64069 0.6463 0.32422 0.0
C548 C 0.61358 0.62676 0.32463 0.0
C549 C 0.6102 0.63813 0.33218 0.0
H550 H 0.61964 0.66217 0.34078 0.0
H551 H 0.65265 0.6496 0.32139 0.0
C552 C 0.70371 0.68994 0.37148 0.0
N553 N 0.69888 0.68797 0.34863 0.0
C554 C 0.71602 0.68788 0.37815 0.0
C555 C 0.71797 0.68132 0.3378 0.0
C556 C 0.70565 0.68357 0.3319 0.0
C557 C 0.72331 0.68346 0.36121 0.0
H558 H 0.69784 0.6929 0.38467 0.0
H559 H 0.70141 0.68143 0.31403 0.0
C560 C 0.64143 0.70115 0.33871 0.0
N561 N 0.62451 0.71452 0.35374 0.0
C562 C 0.64346 0.71463 0.32808 0.0
C563 C 0.63068 0.69439 0.35683 0.0
C564 C 0.63482 0.72122 0.33596 0.0
C565 C 0.62228 0.70135 0.36423 0.0
C566 C 0.69918 0.72109 0.35465 0.0
C567 C 0.69967 0.72115 0.3793 0.0
C568 C 0.71285 0.72977 0.34206 0.0
C569 C 0.71384 0.72984 0.39093 0.0
C570 C 0.72679 0.7383 0.35434 0.0
N571 N 0.727 0.73816 0.37832 0.0
C572 C 0.65535 0.70738 0.40321 0.0
C573 C 0.66754 0.72769 0.37561 0.0
C574 C 0.65286 0.71698 0.41839 0.0
N575 N 0.6625 0.71288 0.38223 0.0
C576 C 0.66527 0.73763 0.39013 0.0
C577 C 0.65782 0.73233 0.41185 0.0
H578 H 0.65143 0.69555 0.40802 0.0
H579 H 0.67306 0.73167 0.35869 0.0
C580 C 0.66643 0.71265 0.27089 0.0
N581 N 0.67423 0.71706 0.29176 0.0
C582 C 0.66806 0.72382 0.25456 0.0
C583 C 0.68594 0.74368 0.28138 0.0
C584 C 0.68398 0.73219 0.2971 0.0
C585 C 0.6777 0.7396 0.25997 0.0
H586 H 0.65858 0.70053 0.2673 0.0
H587 H 0.68985 0.73537 0.31398 0.0
O588 O 0.66529 0.68169 0.36693 0.0
O589 O 0.67034 0.68315 0.31123 0.0
O590 O 0.65008 0.69474 0.33163 0.0
O591 O 0.68545 0.71252 0.34286 0.0
H592 H 0.67356 0.66036 0.3645 0.0
H593 H 0.63867 0.67006 0.38954 0.0
H594 H 0.65834 0.63386 0.38051 0.0
H595 H 0.62403 0.64337 0.40501 0.0
H596 H 0.71197 0.70995 0.26389 0.0
H597 H 0.66454 0.66066 0.28103 0.0
H598 H 0.69627 0.70824 0.29873 0.0
H599 H 0.68085 0.66314 0.24657 0.0
H600 H 0.63218 0.62254 0.31517 0.0
H601 H 0.59838 0.63536 0.33506 0.0
H602 H 0.71975 0.68972 0.39642 0.0
H603 H 0.72298 0.67755 0.32425 0.0
H604 H 0.65169 0.72003 0.31403 0.0
H605 H 0.62911 0.6841 0.36549 0.0
H606 H 0.63634 0.7317 0.32798 0.0
H607 H 0.61406 0.69634 0.37842 0.0
H608 H 0.68929 0.71431 0.38938 0.0
H609 H 0.71271 0.72995 0.32299 0.0
H610 H 0.71439 0.7299 0.40999 0.0
H611 H 0.73745 0.74504 0.34481 0.0
H612 H 0.64728 0.71249 0.43514 0.0
H613 H 0.66913 0.74928 0.38425 0.0
H614 H 0.6614 0.72018 0.23832 0.0
H615 H 0.69366 0.75567 0.28612 0.0
Li616 Li 0.30079 0.97217 0.32358 0.0
Li617 Li 0.30115 0.96777 0.366 0.0
Li618 Li 0.31216 0.99401 0.3494 0.0
Li619 Li 0.32548 0.97936 0.34384 0.0
C620 C 0.28341 0.98473 0.35694 0.0
N621 N 0.27097 0.00204 0.37403 0.0
C622 C 0.28003 0.98436 0.3809 0.0
C623 C 0.28042 0.99387 0.34165 0.0
C624 C 0.27374 0.99319 0.3892 0.0
C625 C 0.27415 0.00256 0.35064 0.0
C626 C 0.3042 0.94438 0.34566 0.0
C627 C 0.30889 0.92758 0.37041 0.0
N628 N 0.29749 0.9151 0.35883 0.0
C629 C 0.29256 0.93139 0.33394 0.0
C630 C 0.31247 0.94247 0.36399 0.0
C631 C 0.28933 0.91669 0.34089 0.0
C632 C 0.29194 0.95401 0.282 0.0
N633 N 0.28807 0.96219 0.2969 0.0
C634 C 0.2635 0.95238 0.27793 0.0
C635 C 0.27428 0.96171 0.29502 0.0
C636 C 0.2669 0.94332 0.26289 0.0
C637 C 0.28146 0.94444 0.26474 0.0
H638 H 0.3029 0.95443 0.28419 0.0
H639 H 0.27137 0.96805 0.30744 0.0
C640 C 0.29148 0.9555 0.41283 0.0
N641 N 0.28873 0.95324 0.38926 0.0
C642 C 0.2816 0.94419 0.42869 0.0
C643 C 0.26653 0.92844 0.39563 0.0
C644 C 0.27638 0.94021 0.38057 0.0
C645 C 0.26893 0.93031 0.42016 0.0
H646 H 0.30119 0.96616 0.41932 0.0
H647 H 0.27422 0.93892 0.36178 0.0
C648 C 0.32195 0.99165 0.29605 0.0
N649 N 0.32252 0.99095 0.24736 0.0
C650 C 0.33169 0.9875 0.28454 0.0
C651 C 0.31255 0.9955 0.28281 0.0
C652 C 0.3318 0.98721 0.2599 0.0
C653 C 0.31299 0.99505 0.25821 0.0
C654 C 0.33347 0.99197 0.38869 0.0
C655 C 0.34447 0.00772 0.38874 0.0
C656 C 0.33549 0.982 0.40358 0.0
C657 C 0.35746 0.01319 0.40339 0.0
C658 C 0.34864 0.98792 0.41797 0.0
N659 N 0.35927 0.00326 0.41756 0.0
C660 C 0.31607 0.01906 0.3776 0.0
C661 C 0.31778 0.02379 0.33652 0.0
C662 C 0.31903 0.034 0.38237 0.0
N663 N 0.3156 0.01431 0.35499 0.0
C664 C 0.32059 0.03879 0.34045 0.0
C665 C 0.32137 0.04415 0.36366 0.0
H666 H 0.31435 0.01127 0.39195 0.0
H667 H 0.31737 0.01973 0.31871 0.0
C668 C 0.34624 0.96843 0.33409 0.0
N669 N 0.34528 0.98098 0.34081 0.0
C670 C 0.36062 0.96972 0.33012 0.0
C671 C 0.37282 0.99686 0.3401 0.0
C672 C 0.35819 0.99505 0.34366 0.0
C673 C 0.37419 0.98412 0.33293 0.0
H674 H 0.33583 0.95751 0.33092 0.0
H675 H 0.35713 0.005 0.348 0.0
O676 O 0.29005 0.97658 0.34863 0.0
O677 O 0.30738 0.95887 0.33933 0.0
O678 O 0.32148 0.99176 0.32016 0.0
O679 O 0.32063 0.9864 0.37455 0.0
H680 H 0.28239 0.97746 0.39302 0.0
H681 H 0.28318 0.99448 0.32311 0.0
H682 H 0.27113 0.99306 0.40771 0.0
H683 H 0.2719 0.00978 0.33904 0.0
H684 H 0.3152 0.92595 0.38459 0.0
H685 H 0.28598 0.93264 0.3198 0.0
H686 H 0.32159 0.9524 0.37308 0.0
H687 H 0.28031 0.90653 0.33204 0.0
H688 H 0.25236 0.95173 0.27721 0.0
H689 H 0.28458 0.93775 0.2533 0.0
H690 H 0.28378 0.94647 0.44739 0.0
H691 H 0.2572 0.91796 0.38796 0.0
H692 H 0.33903 0.98446 0.29447 0.0
H693 H 0.30479 0.99853 0.29143 0.0
H694 H 0.33925 0.98398 0.25075 0.0
H695 H 0.30569 0.99789 0.24775 0.0
H696 H 0.3431 0.0156 0.37734 0.0
H697 H 0.32696 0.96984 0.40414 0.0
H698 H 0.36613 0.02533 0.40346 0.0
H699 H 0.35037 0.98033 0.42951 0.0
H700 H 0.31982 0.03765 0.40057 0.0
H701 H 0.32211 0.04607 0.32545 0.0
H702 H 0.36103 0.95968 0.32392 0.0
H703 H 0.38293 0.00818 0.34246 0.0
Li704 Li 0.03326 0.33344 0.32213 0.0
Li705 Li 0.03501 0.3403 0.36385 0.0
Li706 Li 0.00946 0.32304 0.34569 0.0
Li707 Li 0.02433 0.35104 0.33738 0.0
C708 C 0.02785 0.30674 0.34414 0.0
N709 N 0.03002 0.28115 0.33177 0.0
C710 C 0.0398 0.30485 0.35328 0.0
C711 C 0.01695 0.29558 0.32884 0.0
C712 C 0.04072 0.29184 0.34677 0.0
C713 C 0.01825 0.28273 0.32276 0.0
C714 C 0.05425 0.36836 0.3277 0.0
C715 C 0.06598 0.39609 0.33043 0.0
N716 N 0.07121 0.39734 0.30799 0.0
C717 C 0.05978 0.36993 0.30469 0.0
C718 C 0.05742 0.38155 0.34073 0.0
C719 C 0.06833 0.38468 0.29504 0.0
C720 C 0.03979 0.3262 0.27582 0.0
N721 N 0.0441 0.32896 0.2989 0.0
C722 C 0.06572 0.32551 0.29176 0.0
C723 C 0.05687 0.32886 0.30698 0.0
C724 C 0.06156 0.32251 0.26787 0.0
C725 C 0.04844 0.32295 0.25987 0.0
H726 H 0.02974 0.32662 0.26978 0.0
H727 H 0.06019 0.33146 0.32533 0.0
C728 C 0.04606 0.33216 0.40441 0.0
N729 N 0.04846 0.34394 0.38993 0.0
C730 C 0.05752 0.33404 0.42051 0.0
C731 C 0.07336 0.36031 0.40709 0.0
C732 C 0.06163 0.35791 0.39129 0.0
C733 C 0.07157 0.34816 0.42152 0.0
H734 H 0.03558 0.32107 0.40261 0.0
H735 H 0.06334 0.36701 0.37938 0.0
C736 C 0.00205 0.32789 0.29885 0.0
N737 N 0.97734 0.31619 0.26772 0.0
C738 C 0.99371 0.33556 0.2956 0.0
C739 C 0.99791 0.31437 0.28609 0.0
C740 C 0.98123 0.32943 0.27983 0.0
C741 C 0.98535 0.30861 0.27049 0.0
C742 C 0.01661 0.34284 0.39159 0.0
C743 C 0.0089 0.33014 0.40647 0.0
C744 C 0.02613 0.35754 0.40125 0.0
C745 C 0.01089 0.33236 0.43085 0.0
C746 C 0.02784 0.35928 0.42572 0.0
N747 N 0.02025 0.34676 0.43989 0.0
C748 C 0.98772 0.29364 0.36332 0.0
C749 C 0.97662 0.30555 0.34075 0.0
C750 C 0.97312 0.28083 0.3673 0.0
N751 N 0.98921 0.30563 0.35012 0.0
C752 C 0.96184 0.29286 0.34391 0.0
C753 C 0.95998 0.28034 0.35743 0.0
H754 H 0.99787 0.2941 0.37099 0.0
H755 H 0.97796 0.31542 0.33115 0.0
C756 C 0.02691 0.37606 0.31009 0.0
N757 N 0.02191 0.3684 0.33081 0.0
C758 C 0.02541 0.38896 0.3056 0.0
C759 C 0.01289 0.38535 0.34329 0.0
C760 C 0.0149 0.37269 0.34722 0.0
C761 C 0.01827 0.39378 0.32228 0.0
H762 H 0.03218 0.37222 0.29713 0.0
H763 H 0.01071 0.36618 0.36333 0.0
O764 O 0.02686 0.31947 0.35015 0.0
O765 O 0.04581 0.35401 0.33744 0.0
O766 O 0.01436 0.33379 0.31413 0.0
O767 O 0.01515 0.34085 0.36767 0.0
H768 H 0.04835 0.31341 0.36513 0.0
H769 H 0.00756 0.29679 0.32179 0.0
H770 H 0.04994 0.29026 0.35363 0.0
H771 H 0.0099 0.27401 0.31091 0.0
H772 H 0.0684 0.40637 0.34024 0.0
H773 H 0.05746 0.3599 0.29431 0.0
H774 H 0.05307 0.38056 0.35846 0.0
H775 H 0.07264 0.38606 0.27722 0.0
H776 H 0.0759 0.32556 0.29854 0.0
H777 H 0.04486 0.3207 0.24154 0.0
H778 H 0.05571 0.32432 0.43117 0.0
H779 H 0.0839 0.37144 0.40755 0.0
H780 H 0.99674 0.34604 0.30531 0.0
H781 H 0.00434 0.30839 0.28813 0.0
H782 H 0.97463 0.33519 0.27723 0.0
H783 H 0.982 0.29812 0.26055 0.0
H784 H 0.00155 0.31868 0.39925 0.0
H785 H 0.03229 0.36747 0.38995 0.0
H786 H 0.00504 0.32264 0.44259 0.0
H787 H 0.03523 0.37058 0.43344 0.0
H788 H 0.97211 0.27141 0.37797 0.0
H789 H 0.95193 0.29303 0.33646 0.0
H790 H 0.02994 0.39515 0.28928 0.0
H791 H 0.00699 0.38833 0.35644 0.0
Li792 Li 0.68266 0.99245 0.34185 0.0
Li793 Li 0.66653 0.96768 0.36019 0.0
Li794 Li 0.67198 0.96913 0.31687 0.0
Li795 Li 0.65492 0.97781 0.33429 0.0
C796 C 0.70154 0.98025 0.35013 0.0
N797 N 0.73209 0.99129 0.36256 0.0
C798 C 0.70738 0.98824 0.37139 0.0
C799 C 0.71126 0.97791 0.33514 0.0
C800 C 0.72285 0.99373 0.37737 0.0
C801 C 0.72667 0.98357 0.34175 0.0
C802 C 0.6633 0.98609 0.3884 0.0
C803 C 0.64664 0.97484 0.42192 0.0
N804 N 0.6587 0.98381 0.43658 0.0
C805 C 0.6755 0.99527 0.4038 0.0
C806 C 0.64872 0.97587 0.39752 0.0
C807 C 0.67295 0.99392 0.4281 0.0
C808 C 0.69615 0.023 0.35693 0.0
N809 N 0.69956 0.01305 0.3457 0.0
C810 C 0.72607 0.03281 0.34235 0.0
C811 C 0.7141 0.01774 0.3379 0.0
C812 C 0.72299 0.0431 0.35488 0.0
C813 C 0.70775 0.03811 0.36185 0.0
H814 H 0.68443 0.01908 0.36245 0.0
H815 H 0.71653 0.00975 0.32863 0.0
C816 C 0.65137 0.93954 0.38399 0.0
N817 N 0.66341 0.95426 0.38601 0.0
C818 C 0.64943 0.92839 0.40044 0.0
C819 C 0.67224 0.94775 0.42099 0.0
C820 C 0.67364 0.95858 0.40426 0.0
C821 C 0.66015 0.93239 0.41892 0.0
H822 H 0.64355 0.93627 0.36914 0.0
H823 H 0.68311 0.97029 0.40557 0.0
C824 C 0.68169 0.99756 0.29348 0.0
N825 N 0.70191 0.01594 0.25897 0.0
C826 C 0.67846 0.00739 0.28029 0.0
C827 C 0.69519 0.99709 0.28916 0.0
C828 C 0.68882 0.01659 0.26289 0.0
C829 C 0.70527 0.00647 0.27164 0.0
C830 C 0.63729 0.94775 0.32555 0.0
C831 C 0.63453 0.94228 0.3023 0.0
C832 C 0.62481 0.94407 0.34043 0.0
C833 C 0.6193 0.93337 0.29423 0.0
C834 C 0.60976 0.93515 0.33169 0.0
N835 N 0.60733 0.93004 0.30895 0.0
C836 C 0.67819 0.94691 0.30113 0.0
C837 C 0.67506 0.96046 0.26934 0.0
C838 C 0.68092 0.93773 0.28558 0.0
N839 N 0.67548 0.95806 0.29284 0.0
C840 C 0.67773 0.95151 0.25309 0.0
C841 C 0.68076 0.93999 0.2612 0.0
H842 H 0.67822 0.94517 0.31995 0.0
H843 H 0.67263 0.96925 0.26322 0.0
C844 C 0.63301 0.9869 0.34494 0.0
N845 N 0.63734 0.97993 0.32846 0.0
C846 C 0.62032 0.98888 0.34082 0.0
C847 C 0.6167 0.97627 0.30297 0.0
C848 C 0.62964 0.97485 0.30762 0.0
C849 C 0.61193 0.98351 0.31958 0.0
H850 H 0.63956 0.99116 0.36116 0.0
H851 H 0.63355 0.96968 0.29458 0.0
O852 O 0.68643 0.97481 0.34389 0.0
O853 O 0.6656 0.98707 0.36454 0.0
O854 O 0.67167 0.98854 0.31061 0.0
O855 O 0.65213 0.95661 0.33373 0.0
H856 H 0.70016 0.99051 0.38288 0.0
H857 H 0.707 0.97185 0.31853 0.0
H858 H 0.72753 1.00001 0.39372 0.0
H859 H 0.73431 0.98184 0.33033 0.0
H860 H 0.63544 0.96692 0.42921 0.0
H861 H 0.68685 0.00331 0.39712 0.0
H862 H 0.63914 0.96876 0.38587 0.0
H863 H 0.68231 1.0009 0.44021 0.0
H864 H 0.73769 0.0362 0.33676 0.0
H865 H 0.70486 0.04577 0.37121 0.0
H866 H 0.64003 0.91662 0.39817 0.0
H867 H 0.68063 0.9513 0.43522 0.0
H868 H 0.66804 0.00789 0.28345 0.0
H869 H 0.69787 0.98957 0.29923 0.0
H870 H 0.68647 0.02424 0.25252 0.0
H871 H 0.71578 0.00622 0.26813 0.0
H872 H 0.64401 0.94497 0.29053 0.0
H873 H 0.62672 0.94813 0.3585 0.0
H874 H 0.61699 0.92913 0.27624 0.0
H875 H 0.6 0.93231 0.34297 0.0
H876 H 0.68292 0.92882 0.29259 0.0
H877 H 0.67758 0.95367 0.23442 0.0
H878 H 0.61735 0.99483 0.35395 0.0
H879 H 0.61051 0.97169 0.2865 0.0
Li880 Li 0.03505 0.70208 0.36395 0.0
Li881 Li 0.00866 0.6918 0.34782 0.0
Li882 Li 0.02439 0.67961 0.33712 0.0
Li883 Li 0.03089 0.7053 0.32198 0.0
C884 C 0.01793 0.67558 0.38972 0.0
N885 N 0.02096 0.66436 0.43262 0.0
C886 C 0.00854 0.67457 0.40861 0.0
C887 C 0.02877 0.67078 0.39256 0.0
C888 C 0.01027 0.6689 0.43018 0.0
C889 C 0.03015 0.66517 0.41441 0.0
C890 C 0.01955 0.72292 0.34522 0.0
C891 C 0.00496 0.73022 0.31973 0.0
N892 N 0.0065 0.74101 0.33588 0.0
C893 C 0.02097 0.73404 0.36159 0.0
C894 C 0.01144 0.72093 0.32414 0.0
C895 C 0.0143 0.74309 0.35654 0.0
C896 C 0.06417 0.7224 0.3808 0.0
N897 N 0.04956 0.71283 0.38849 0.0
C898 C 0.0575 0.72069 0.42839 0.0
C899 C 0.04598 0.7119 0.41176 0.0
C900 C 0.07276 0.73051 0.42088 0.0
C901 C 0.07601 0.73129 0.39674 0.0
H902 H 0.06661 0.72327 0.36216 0.0
H903 H 0.03421 0.70451 0.4174 0.0
C904 C 0.97653 0.67894 0.34003 0.0
N905 N 0.9885 0.68794 0.35478 0.0
C906 C 0.96164 0.67605 0.34501 0.0
C907 C 0.97167 0.69151 0.3805 0.0
C908 C 0.98639 0.69425 0.37468 0.0
C909 C 0.95907 0.68228 0.36557 0.0
H910 H 0.97852 0.67387 0.32454 0.0
H911 H 0.99615 0.70135 0.38608 0.0
C912 C 0.05714 0.69765 0.32998 0.0
N913 N 0.08253 0.6953 0.31728 0.0
C914 C 0.06244 0.70051 0.30674 0.0
C915 C 0.06483 0.69373 0.3468 0.0
C916 C 0.07528 0.69922 0.30067 0.0
C917 C 0.07762 0.69256 0.34001 0.0
C918 C 0.01006 0.68215 0.29219 0.0
C919 C 0.02035 0.67887 0.28045 0.0
C920 C 0.99835 0.68273 0.27945 0.0
C921 C 0.01872 0.67613 0.25615 0.0
C922 C 0.99709 0.67991 0.25516 0.0
N923 N 0.00721 0.67669 0.24411 0.0
C924 C 0.01087 0.64744 0.34135 0.0
C925 C 0.03443 0.65882 0.32033 0.0
C926 C 0.00936 0.63282 0.339 0.0
N927 N 0.02326 0.66008 0.33204 0.0
C928 C 0.03346 0.64449 0.31776 0.0
C929 C 0.0208 0.63125 0.32711 0.0
H930 H 0.00216 0.64875 0.35065 0.0
H931 H 0.04403 0.66884 0.31266 0.0
C932 C 0.05524 0.73201 0.30631 0.0
N933 N 0.04135 0.72048 0.29837 0.0
C934 C 0.06517 0.74374 0.29125 0.0
C935 C 0.04609 0.73192 0.26015 0.0
C936 C 0.03649 0.72034 0.27588 0.0
C937 C 0.06076 0.74368 0.26772 0.0
H938 H 0.05872 0.73187 0.32435 0.0
H939 H 0.02534 0.7112 0.26997 0.0
O940 O 0.01646 0.68123 0.36856 0.0
O941 O 0.02555 0.71362 0.35031 0.0
O942 O 0.04455 0.6988 0.33624 0.0
O943 O 0.01154 0.685 0.31595 0.0
H944 H 1.00006 0.67822 0.40664 0.0
H945 H 0.03603 0.67137 0.37805 0.0
H946 H 0.00313 0.66811 0.445 0.0
H947 H 0.03852 0.66145 0.4169 0.0
H948 H 0.99864 0.72881 0.3035 0.0
H949 H 0.02708 0.73557 0.3781 0.0
H950 H 0.01005 0.71222 0.31144 0.0
H951 H 0.01527 0.75172 0.36907 0.0
H952 H 0.05454 0.71977 0.44689 0.0
H953 H 0.08753 0.73893 0.39017 0.0
H954 H 0.95217 0.66871 0.33325 0.0
H955 H 0.97015 0.69658 0.39645 0.0
H956 H 0.05661 0.70352 0.29348 0.0
H957 H 0.06097 0.69163 0.3649 0.0
H958 H 0.07946 0.70132 0.28274 0.0
H959 H 0.08366 0.68949 0.35282 0.0
H960 H 0.0296 0.67862 0.28995 0.0
H961 H 0.99042 0.6855 0.28815 0.0
H962 H 0.02663 0.6736 0.24684 0.0
H963 H 0.98811 0.68035 0.24508 0.0
H964 H 0.99939 0.62286 0.3464 0.0
H965 H 0.04234 0.64373 0.30797 0.0
H966 H 0.07627 0.7527 0.29792 0.0
H967 H 0.04227 0.73139 0.24209 0.0
Li968 Li 0.30426 0.33586 0.35969 0.0
Li969 Li 0.31235 0.31923 0.34029 0.0
Li970 Li 0.32733 0.34698 0.33436 0.0
Li971 Li 0.30187 0.33143 0.31618 0.0
C972 C 0.33227 0.34578 0.38251 0.0
N973 N 0.34964 0.36648 0.41778 0.0
C974 C 0.34197 0.34294 0.39682 0.0
C975 C 0.3314 0.35916 0.38613 0.0
C976 C 0.35066 0.35354 0.41457 0.0
C977 C 0.34027 0.36948 0.40405 0.0
C978 C 0.28332 0.30118 0.34722 0.0
C979 C 0.26922 0.27444 0.33502 0.0
N980 N 0.26812 0.2701 0.35796 0.0
C981 C 0.28198 0.29646 0.37067 0.0
C982 C 0.27683 0.2901 0.32923 0.0
C983 C 0.27427 0.28069 0.37574 0.0
C984 C 0.2853 0.3458 0.37768 0.0
N985 N 0.29345 0.33897 0.38459 0.0
C986 C 0.283 0.33533 0.4234 0.0
C987 C 0.29267 0.3339 0.40702 0.0
C988 C 0.27424 0.34221 0.41664 0.0
C989 C 0.27584 0.3478 0.39352 0.0
H990 H 0.2859 0.34941 0.35959 0.0
H991 H 0.29917 0.32835 0.41197 0.0
C992 C 0.313 0.29183 0.32679 0.0
N993 N 0.31411 0.30126 0.34497 0.0
C994 C 0.31479 0.27902 0.33083 0.0
C995 C 0.31886 0.28592 0.37218 0.0
C996 C 0.31693 0.29852 0.36736 0.0
C997 C 0.31783 0.27596 0.35379 0.0
H998 H 0.31082 0.29427 0.30913 0.0
H999 H 0.31781 0.30624 0.38147 0.0
C1000 C 0.31407 0.36494 0.32336 0.0
N1001 N 0.32298 0.39299 0.30218 0.0
C1002 C 0.32003 0.36779 0.30055 0.0
C1003 C 0.31281 0.37644 0.33554 0.0
C1004 C 0.32442 0.38201 0.29009 0.0
C1005 C 0.31733 0.39053 0.32449 0.0
C1006 C 0.3207 0.32858 0.28633 0.0
C1007 C 0.33202 0.34028 0.27246 0.0
C1008 C 0.30912 0.31512 0.27552 0.0
C1009 C 0.33149 0.33835 0.248 0.0
C1010 C 0.30899 0.31362 0.251 0.0
N1011 N 0.32008 0.32517 0.23786 0.0
C1012 C 0.35846 0.36026 0.32289 0.0
C1013 C 0.35204 0.37864 0.33712 0.0
C1014 C 0.37374 0.37184 0.31934 0.0
N1015 N 0.34791 0.36386 0.33116 0.0
C1016 C 0.36723 0.3906 0.33386 0.0
C1017 C 0.37825 0.38729 0.32452 0.0
H1018 H 0.35492 0.34836 0.31877 0.0
H1019 H 0.34357 0.3812 0.34424 0.0
C1020 C 0.27248 0.3211 0.29903 0.0
N1021 N 0.28743 0.329 0.2918 0.0
C1022 C 0.26054 0.31923 0.28414 0.0
C1023 C 0.27948 0.33369 0.25435 0.0
C1024 C 0.29111 0.33525 0.26987 0.0
C1025 C 0.26394 0.32572 0.26155 0.0
H1026 H 0.2698 0.31645 0.31664 0.0
H1027 H 0.30303 0.34165 0.26445 0.0
O1028 O 0.32378 0.3355 0.365 0.0
O1029 O 0.2913 0.31655 0.34186 0.0
O1030 O 0.31002 0.3512 0.33409 0.0
O1031 O 0.32108 0.33023 0.31035 0.0
H1032 H 0.34281 0.33265 0.3942 0.0
H1033 H 0.32401 0.36161 0.37523 0.0
H1034 H 0.35822 0.35148 0.42577 0.0
H1035 H 0.33973 0.37989 0.40702 0.0
H1036 H 0.26421 0.26574 0.32127 0.0
H1037 H 0.28705 0.30489 0.38477 0.0
H1038 H 0.27774 0.29357 0.31099 0.0
H1039 H 0.27324 0.27687 0.3938 0.0
H1040 H 0.28205 0.33064 0.44087 0.0
H1041 H 0.26968 0.3535 0.3875 0.0
H1042 H 0.3138 0.27162 0.31614 0.0
H1043 H 0.32149 0.28425 0.39009 0.0
H1044 H 0.32148 0.35921 0.29119 0.0
H1045 H 0.30856 0.37461 0.35342 0.0
H1046 H 0.32906 0.38435 0.27243 0.0
H1047 H 0.31641 0.39953 0.3337 0.0
H1048 H 0.34107 0.3508 0.28045 0.0
H1049 H 0.30016 0.30603 0.2859 0.0
H1050 H 0.34015 0.34734 0.23707 0.0
H1051 H 0.30003 0.3033 0.24242 0.0
H1052 H 0.38193 0.36873 0.3125 0.0
H1053 H 0.37019 0.40236 0.33801 0.0
H1054 H 0.24874 0.31281 0.29035 0.0
H1055 H 0.28266 0.33903 0.23717 0.0
Li1056 Li 0.32542 0.01104 0.66652 0.0
Li1057 Li 0.35227 0.02716 0.67531 0.0
Li1058 Li 0.33401 0.03447 0.69076 0.0
Li1059 Li 0.34139 0.03804 0.64792 0.0
C1060 C 0.32686 0.00534 0.71503 0.0
N1061 N 0.30921 0.98359 0.74839 0.0
C1062 C 0.33175 0.99555 0.72434 0.0
C1063 C 0.31309 0.00416 0.72288 0.0
C1064 C 0.32263 0.9846 0.74113 0.0
C1065 C 0.30431 0.99307 0.73971 0.0
C1066 C 0.34928 0.01147 0.63276 0.0
C1067 C 0.36361 0.0089 0.60069 0.0
N1068 N 0.3626 0.99622 0.61121 0.0
C1069 C 0.34833 0.9984 0.64323 0.0
C1070 C 0.35693 0.01676 0.61131 0.0
C1071 C 0.35517 0.99086 0.63206 0.0
C1072 C 0.29741 0.98796 0.64584 0.0
N1073 N 0.30902 0.9904 0.66097 0.0
C1074 C 0.29711 0.96331 0.66851 0.0
C1075 C 0.30918 0.97842 0.67199 0.0
C1076 C 0.28494 0.96046 0.65312 0.0
C1077 C 0.28519 0.97299 0.6416 0.0
H1078 H 0.29766 0.99766 0.63704 0.0
H1079 H 0.31874 0.98053 0.68329 0.0
C1080 C 0.37292 0.0246 0.70573 0.0
N1081 N 0.37074 0.0267 0.6827 0.0
C1082 C 0.38569 0.02343 0.71266 0.0
C1083 C 0.39398 0.02688 0.67208 0.0
C1084 C 0.38117 0.02829 0.66601 0.0
C1085 C 0.39628 0.02419 0.69568 0.0
H1086 H 0.3647 0.02384 0.71875 0.0
H1087 H 0.37951 0.0305 0.64793 0.0
C1088 C 0.30719 0.02848 0.66323 0.0
N1089 N 0.28048 0.03021 0.66514 0.0
C1090 C 0.30649 0.04056 0.65209 0.0
C1091 C 0.2942 0.01711 0.67493 0.0
C1092 C 0.29291 0.04129 0.65339 0.0
C1093 C 0.28083 0.01823 0.6758 0.0
C1094 C 0.36884 0.0564 0.68518 0.0
C1095 C 0.37111 0.0582 0.70958 0.0
C1096 C 0.38159 0.06267 0.67018 0.0
C1097 C 0.38618 0.06622 0.7186 0.0
C1098 C 0.39646 0.0706 0.6799 0.0
N1099 N 0.39843 0.07219 0.7037 0.0
C1100 C 0.32837 0.04302 0.73714 0.0
C1101 C 0.32698 0.05652 0.70386 0.0
C1102 C 0.32537 0.05234 0.75215 0.0
N1103 N 0.32902 0.04524 0.71345 0.0
C1104 C 0.32364 0.06583 0.71805 0.0
C1105 C 0.32299 0.064 0.74263 0.0
H1106 H 0.33056 0.03432 0.74442 0.0
H1107 H 0.32825 0.05847 0.68509 0.0
C1108 C 0.33647 0.048 0.60267 0.0
N1109 N 0.34418 0.05214 0.62364 0.0
C1110 C 0.33728 0.05939 0.58745 0.0
C1111 C 0.35413 0.07889 0.61559 0.0
C1112 C 0.35301 0.06721 0.63014 0.0
C1113 C 0.34597 0.07507 0.59415 0.0
H1114 H 0.32923 0.0359 0.59821 0.0
H1115 H 0.35876 0.07019 0.6471 0.0
O1116 O 0.33561 0.01603 0.69842 0.0
O1117 O 0.34282 0.01913 0.64344 0.0
O1118 O 0.32041 0.0276 0.66209 0.0
O1119 O 0.35422 0.04812 0.67606 0.0
H1120 H 0.34236 0.99626 0.71841 0.0
H1121 H 0.3093 0.01183 0.71624 0.0
H1122 H 0.32622 0.97688 0.74834 0.0
H1123 H 0.29361 0.99204 0.74592 0.0
H1124 H 0.36961 0.01288 0.58412 0.0
H1125 H 0.34261 0.99428 0.65996 0.0
H1126 H 0.35775 0.02688 0.60303 0.0
H1127 H 0.35461 0.98078 0.64 0.0
H1128 H 0.29749 0.95391 0.67732 0.0
H1129 H 0.276 0.97124 0.62956 0.0
H1130 H 0.38721 0.02192 0.73118 0.0
H1131 H 0.40176 0.02755 0.65832 0.0
H1132 H 0.31638 0.04938 0.64274 0.0
H1133 H 0.29433 0.00742 0.68302 0.0
H1134 H 0.29227 0.05066 0.64504 0.0
H1135 H 0.27071 0.00953 0.68486 0.0
H1136 H 0.36136 0.05328 0.72142 0.0
H1137 H 0.37999 0.06124 0.65125 0.0
H1138 H 0.38812 0.06763 0.73745 0.0
H1139 H 0.40645 0.07544 0.66852 0.0
H1140 H 0.32539 0.05072 0.77101 0.0
H1141 H 0.32177 0.0745 0.70976 0.0
H1142 H 0.33071 0.05596 0.57113 0.0
H1143 H 0.36112 0.09081 0.62128 0.0
Li1144 Li 0.99165 0.31395 0.67879 0.0
Li1145 Li 0.976 0.32611 0.68634 0.0
Li1146 Li 0.9679 0.30004 0.7016 0.0
Li1147 Li 0.96616 0.30472 0.65982 0.0
C1148 C 0.99965 0.32716 0.7233 0.0
N1149 N 0.02643 0.34228 0.75002 0.0
C1150 C 0.00812 0.34331 0.72397 0.0
C1151 C 0.0047 0.31871 0.73643 0.0
C1152 C 0.02165 0.35074 0.73753 0.0
C1153 C 0.0183 0.32657 0.74976 0.0
C1154 C 0.98549 0.32576 0.63228 0.0
C1155 C 0.975 0.32898 0.59576 0.0
N1156 N 0.9847 0.32569 0.58357 0.0
C1157 C 0.99537 0.32243 0.61941 0.0
C1158 C 0.97524 0.3291 0.6204 0.0
C1159 C 0.9948 0.32245 0.59479 0.0
C1160 C 0.01404 0.30587 0.66598 0.0
N1161 N 0.01215 0.31752 0.67459 0.0
C1162 C 0.03952 0.33468 0.67504 0.0
C1163 C 0.02451 0.33178 0.67892 0.0
C1164 C 0.04184 0.32288 0.66608 0.0
C1165 C 0.02882 0.30829 0.66162 0.0
H1166 H 0.00405 0.29481 0.66179 0.0
H1167 H 0.02272 0.34103 0.68488 0.0
C1168 C 0.97423 0.34865 0.7146 0.0
N1169 N 0.97713 0.34537 0.69258 0.0
C1170 C 0.97486 0.36268 0.71918 0.0
C1171 C 0.98161 0.36973 0.67842 0.0
C1172 C 0.98082 0.35556 0.67462 0.0
C1173 C 0.97865 0.37347 0.70096 0.0
H1174 H 0.9714 0.34034 0.72857 0.0
H1175 H 0.98328 0.35274 0.65737 0.0
C1176 C 0.97289 0.27863 0.68003 0.0
N1177 N 0.96866 0.25015 0.69281 0.0
C1178 C 0.96132 0.26518 0.66917 0.0
C1179 C 0.98234 0.27761 0.6973 0.0
C1180 C 0.95936 0.25089 0.6759 0.0
C1181 C 0.98001 0.2631 0.70355 0.0
C1182 C 0.94646 0.31326 0.69545 0.0
C1183 C 0.94193 0.31052 0.71904 0.0
C1184 C 0.9426 0.32245 0.68175 0.0
C1185 C 0.93365 0.31708 0.72857 0.0
C1186 C 0.93435 0.32884 0.69195 0.0
N1187 N 0.93009 0.32604 0.71495 0.0
C1188 C 0.96156 0.28636 0.74777 0.0
C1189 C 0.94449 0.27174 0.7166 0.0
C1190 C 0.95303 0.27443 0.76367 0.0
N1191 N 0.95718 0.28473 0.72473 0.0
C1192 C 0.93585 0.25946 0.7317 0.0
C1193 C 0.94007 0.26074 0.75556 0.0
H1194 H 0.97158 0.29691 0.7538 0.0
H1195 H 0.94112 0.27094 0.69827 0.0
C1196 C 0.95745 0.28707 0.61761 0.0
N1197 N 0.95339 0.29471 0.63326 0.0
C1198 C 0.94705 0.27784 0.60002 0.0
C1199 C 0.92875 0.28498 0.61455 0.0
C1200 C 0.93946 0.29398 0.63191 0.0
C1201 C 0.93238 0.27651 0.59864 0.0
H1202 H 0.96855 0.28772 0.61933 0.0
H1203 H 0.93642 0.29992 0.64486 0.0
O1204 O 0.9863 0.31968 0.71029 0.0
O1205 O 0.98565 0.32548 0.65639 0.0
O1206 O 0.9749 0.29273 0.67382 0.0
O1207 O 0.95482 0.30717 0.6859 0.0
H1208 H 0.0044 0.35005 0.71392 0.0
H1209 H 0.99819 0.30623 0.73641 0.0
H1210 H 0.02837 0.36322 0.73809 0.0
H1211 H 0.02237 0.32017 0.75995 0.0
H1212 H 0.96706 0.33144 0.58633 0.0
H1213 H 0.00335 0.31978 0.62831 0.0
H1214 H 0.96737 0.33151 0.63009 0.0
H1215 H 0.00235 0.31986 0.58459 0.0
H1216 H 0.04918 0.34611 0.67872 0.0
H1217 H 0.02997 0.29897 0.65403 0.0
H1218 H 0.97236 0.36503 0.73678 0.0
H1219 H 0.98482 0.37781 0.66398 0.0
H1220 H 0.95387 0.26577 0.65583 0.0
H1221 H 0.99138 0.28791 0.70575 0.0
H1222 H 0.95043 0.24037 0.66771 0.0
H1223 H 0.98723 0.26214 0.71692 0.0
H1224 H 0.94486 0.3035 0.72995 0.0
H1225 H 0.94621 0.32489 0.66355 0.0
H1226 H 0.93011 0.31509 0.74682 0.0
H1227 H 0.93141 0.33608 0.68162 0.0
H1228 H 0.95658 0.27582 0.782 0.0
H1229 H 0.92579 0.24917 0.72491 0.0
H1230 H 0.95034 0.27161 0.58789 0.0
H1231 H 0.91752 0.28414 0.61423 0.0
Li1232 Li 0.6887 0.6809 0.67099 0.0
Li1233 Li 0.67594 0.65347 0.67966 0.0
Li1234 Li 0.70267 0.67141 0.69311 0.0
Li1235 Li 0.69682 0.66391 0.65194 0.0
C1236 C 0.67692 0.6782 0.71377 0.0
N1237 N 0.66347 0.69348 0.73487 0.0
C1238 C 0.66083 0.67111 0.71518 0.0
C1239 C 0.68617 0.693 0.72327 0.0
C1240 C 0.65425 0.67904 0.7259 0.0
C1241 C 0.67914 0.70056 0.73379 0.0
C1242 C 0.675 0.66203 0.62533 0.0
C1243 C 0.6692 0.64709 0.58942 0.0
N1244 N 0.67302 0.66002 0.57673 0.0
C1245 C 0.67884 0.67517 0.61197 0.0
C1246 C 0.67011 0.64786 0.61402 0.0
C1247 C 0.67775 0.67391 0.5874 0.0
C1248 C 0.69626 0.71233 0.66612 0.0
N1249 N 0.6846 0.69742 0.6673 0.0
C1250 C 0.66568 0.70527 0.66417 0.0
C1251 C 0.66953 0.69371 0.66626 0.0
C1252 C 0.67747 0.7208 0.6629 0.0
C1253 C 0.69293 0.72427 0.66398 0.0
H1254 H 0.70813 0.71495 0.66657 0.0
H1255 H 0.66051 0.68172 0.66708 0.0
C1256 C 0.65407 0.62908 0.7082 0.0
N1257 N 0.65643 0.63604 0.6869 0.0
C1258 C 0.63975 0.61629 0.71348 0.0
C1259 C 0.63033 0.61851 0.6752 0.0
C1260 C 0.64493 0.63108 0.6705 0.0
C1261 C 0.62755 0.61088 0.69694 0.0
H1262 H 0.66333 0.63346 0.72109 0.0
H1263 H 0.64704 0.63702 0.65387 0.0
C1264 C 0.72497 0.69485 0.67006 0.0
N1265 N 0.75576 0.71396 0.68171 0.0
C1266 C 0.73639 0.69305 0.65881 0.0
C1267 C 0.72922 0.70642 0.68717 0.0
C1268 C 0.75189 0.70282 0.66495 0.0
C1269 C 0.74484 0.71594 0.69284 0.0
C1270 C 0.68853 0.63631 0.68838 0.0
C1271 C 0.69218 0.63473 0.71165 0.0
C1272 C 0.6787 0.62313 0.67511 0.0
C1273 C 0.6859 0.61997 0.72128 0.0
C1274 C 0.67262 0.60858 0.68541 0.0
N1275 N 0.67632 0.60731 0.70808 0.0
C1276 C 0.71943 0.68235 0.73704 0.0
C1277 C 0.72925 0.67225 0.70836 0.0
C1278 C 0.73175 0.68555 0.75226 0.0
N1279 N 0.71846 0.67581 0.7156 0.0
C1280 C 0.74179 0.67539 0.72283 0.0
C1281 C 0.74311 0.682 0.74522 0.0
H1282 H 0.71064 0.685 0.74236 0.0
H1283 H 0.72812 0.66704 0.69117 0.0
C1284 C 0.71223 0.66972 0.6074 0.0
N1285 N 0.70575 0.65959 0.62545 0.0
C1286 C 0.72131 0.66758 0.59078 0.0
C1287 C 0.71635 0.64438 0.6112 0.0
C1288 C 0.7074 0.64695 0.62731 0.0
C1289 C 0.72381 0.65499 0.59303 0.0
H1290 H 0.71105 0.67989 0.60666 0.0
H1291 H 0.7024 0.63922 0.64199 0.0
O1292 O 0.68357 0.67071 0.70307 0.0
O1293 O 0.67625 0.66307 0.64936 0.0
O1294 O 0.70971 0.68522 0.66458 0.0
O1295 O 0.69446 0.65067 0.67866 0.0
H1296 H 0.65349 0.65967 0.7079 0.0
H1297 H 0.69862 0.69865 0.72232 0.0
H1298 H 0.64182 0.67373 0.72702 0.0
H1299 H 0.68616 0.71206 0.74106 0.0
H1300 H 0.66551 0.63622 0.58041 0.0
H1301 H 0.68272 0.68623 0.62046 0.0
H1302 H 0.6672 0.63762 0.62414 0.0
H1303 H 0.68073 0.68398 0.57681 0.0
H1304 H 0.65361 0.70209 0.66347 0.0
H1305 H 0.70237 0.73605 0.66251 0.0
H1306 H 0.6383 0.6107 0.73033 0.0
H1307 H 0.62126 0.61504 0.66209 0.0
H1308 H 0.73334 0.68409 0.64569 0.0
H1309 H 0.72055 0.70787 0.69627 0.0
H1310 H 0.76084 0.70151 0.65646 0.0
H1311 H 0.74828 0.72486 0.70617 0.0
H1312 H 0.69967 0.64477 0.72226 0.0
H1313 H 0.67563 0.62416 0.65715 0.0
H1314 H 0.68859 0.61858 0.73928 0.0
H1315 H 0.66493 0.5983 0.6754 0.0
H1316 H 0.73216 0.69042 0.76953 0.0
H1317 H 0.75034 0.67264 0.71651 0.0
H1318 H 0.72697 0.6761 0.57711 0.0
H1319 H 0.71781 0.63443 0.61337 0.0
Li1320 Li 0.34828 0.3265 0.68187 0.0
Li1321 Li 0.32994 0.30109 0.69896 0.0
Li1322 Li 0.33713 0.30301 0.65849 0.0
Li1323 Li 0.32008 0.31254 0.67094 0.0
C1324 C 0.36515 0.31081 0.68032 0.0
N1325 N 0.39397 0.31567 0.66816 0.0
C1326 C 0.371 0.30223 0.69102 0.0
C1327 C 0.37394 0.32185 0.66342 0.0
C1328 C 0.3856 0.30486 0.68464 0.0
C1329 C 0.38848 0.32413 0.65751 0.0
C1330 C 0.32855 0.32394 0.7252 0.0
C1331 C 0.31345 0.32535 0.75717 0.0
N1332 N 0.32578 0.33001 0.77195 0.0
C1333 C 0.34107 0.32876 0.74067 0.0
C1334 C 0.31463 0.32226 0.73347 0.0
C1335 C 0.33944 0.33177 0.76425 0.0
C1336 C 0.3658 0.35824 0.67377 0.0
N1337 N 0.36544 0.34664 0.68668 0.0
C1338 C 0.38927 0.36429 0.70567 0.0
C1339 C 0.37688 0.34932 0.70229 0.0
C1340 C 0.38989 0.37656 0.69274 0.0
C1341 C 0.37802 0.37337 0.67647 0.0
H1342 H 0.35651 0.35573 0.6615 0.0
H1343 H 0.37636 0.33983 0.71214 0.0
C1344 C 0.32806 0.27541 0.71724 0.0
N1345 N 0.32551 0.28697 0.7241 0.0
C1346 C 0.32543 0.26356 0.73268 0.0
C1347 C 0.31746 0.27562 0.76218 0.0
C1348 C 0.32019 0.28727 0.74603 0.0
C1349 C 0.32008 0.26356 0.75551 0.0
H1350 H 0.33221 0.27546 0.69963 0.0
H1351 H 0.31797 0.29639 0.75101 0.0
C1352 C 0.33895 0.32309 0.62606 0.0
N1353 N 0.33996 0.32276 0.57741 0.0
C1354 C 0.32626 0.31199 0.61315 0.0
C1355 C 0.35214 0.33407 0.61427 0.0
C1356 C 0.32701 0.312 0.58855 0.0
C1357 C 0.35243 0.33371 0.58965 0.0
C1358 C 0.30091 0.2813 0.67674 0.0
C1359 C 0.29155 0.2692 0.66132 0.0
C1360 C 0.29458 0.28353 0.69728 0.0
C1361 C 0.27598 0.25949 0.66676 0.0
C1362 C 0.27897 0.27355 0.70212 0.0
N1363 N 0.27007 0.26184 0.68689 0.0
C1364 C 0.3317 0.27576 0.63755 0.0
C1365 C 0.35252 0.29756 0.6195 0.0
C1366 C 0.33375 0.26576 0.6228 0.0
N1367 N 0.34093 0.29132 0.63557 0.0
C1368 C 0.35513 0.28794 0.60457 0.0
C1369 C 0.34563 0.27183 0.60613 0.0
H1370 H 0.32285 0.27109 0.6509 0.0
H1371 H 0.35985 0.30994 0.61841 0.0
C1372 C 0.30465 0.32923 0.67299 0.0
N1373 N 0.30369 0.31624 0.66361 0.0
C1374 C 0.29316 0.33291 0.66827 0.0
C1375 C 0.27996 0.30983 0.64416 0.0
C1376 C 0.29168 0.30656 0.64943 0.0
C1377 C 0.28066 0.3232 0.65356 0.0
H1378 H 0.31444 0.33679 0.68402 0.0
H1379 H 0.29124 0.29636 0.64207 0.0
O1380 O 0.35088 0.30837 0.68644 0.0
O1381 O 0.32991 0.32099 0.70204 0.0
O1382 O 0.33852 0.3231 0.65014 0.0
O1383 O 0.31607 0.29108 0.67132 0.0
H1384 H 0.36432 0.29364 0.70415 0.0
H1385 H 0.36954 0.3285 0.65482 0.0
H1386 H 0.39029 0.29831 0.6928 0.0
H1387 H 0.39539 0.33262 0.64442 0.0
H1388 H 0.30273 0.32405 0.76382 0.0
H1389 H 0.35187 0.33001 0.7346 0.0
H1390 H 0.30481 0.31854 0.72172 0.0
H1391 H 0.34902 0.33547 0.77646 0.0
H1392 H 0.39828 0.36625 0.71822 0.0
H1393 H 0.378 0.38252 0.66635 0.0
H1394 H 0.32782 0.25464 0.72691 0.0
H1395 H 0.31321 0.27596 0.77958 0.0
H1396 H 0.31604 0.30332 0.62205 0.0
H1397 H 0.36207 0.34273 0.62403 0.0
H1398 H 0.31731 0.30342 0.57833 0.0
H1399 H 0.36256 0.3421 0.58027 0.0
H1400 H 0.29623 0.26744 0.64519 0.0
H1401 H 0.30161 0.29288 0.70929 0.0
H1402 H 0.2686 0.25011 0.65495 0.0
H1403 H 0.27392 0.27514 0.71797 0.0
H1404 H 0.32629 0.2534 0.62466 0.0
H1405 H 0.36435 0.29303 0.59177 0.0
H1406 H 0.29425 0.34344 0.6756 0.0
H1407 H 0.27045 0.30196 0.63288 0.0
Li1408 Li 0.67777 0.02458 0.67882 0.0
Li1409 Li 0.70368 0.03211 0.69436 0.0
Li1410 Li 0.69956 0.03532 0.65143 0.0
Li1411 Li 0.69056 0.00931 0.66814 0.0
C1412 C 0.69174 0.05574 0.68255 0.0
N1413 N 0.6815 0.07653 0.6888 0.0
C1414 C 0.69266 0.06224 0.70478 0.0
C1415 C 0.68579 0.05993 0.66344 0.0
C1416 C 0.68737 0.0727 0.7076 0.0
C1417 C 0.68063 0.07043 0.66697 0.0
C1418 C 0.68511 0.00708 0.72122 0.0
C1419 C 0.69634 0.9958 0.74623 0.0
N1420 N 0.6878 0.99615 0.7646 0.0
C1421 C 0.67638 0.00725 0.74028 0.0
C1422 C 0.69512 0.00125 0.72415 0.0
C1423 C 0.67793 0.0017 0.76209 0.0
C1424 C 0.64637 0.01582 0.67109 0.0
N1425 N 0.65849 0.02307 0.68636 0.0
C1426 C 0.64287 0.02742 0.7136 0.0
C1427 C 0.65699 0.02877 0.70736 0.0
C1428 C 0.63015 0.02006 0.69812 0.0
C1429 C 0.63205 0.01429 0.67656 0.0
H1430 H 0.6477 0.01095 0.65485 0.0
H1431 H 0.66671 0.03419 0.7194 0.0
C1432 C 0.73355 0.04965 0.71205 0.0
N1433 N 0.71851 0.04219 0.71886 0.0
C1434 C 0.7453 0.05852 0.72821 0.0
C1435 C 0.72591 0.0518 0.75823 0.0
C1436 C 0.7145 0.0431 0.74142 0.0
C1437 C 0.74157 0.0598 0.75164 0.0
H1438 H 0.73639 0.04906 0.69385 0.0
H1439 H 0.70245 0.03739 0.74627 0.0
C1440 C 0.67459 0.01508 0.62427 0.0
N1441 N 0.66565 0.01269 0.57754 0.0
C1442 C 0.67673 0.00539 0.60882 0.0
C1443 C 0.66786 0.02352 0.61598 0.0
C1444 C 0.67214 0.00436 0.58525 0.0
C1445 C 0.66343 0.02216 0.59229 0.0
C1446 C 0.72223 0.02302 0.65801 0.0
C1447 C 0.72594 0.02447 0.63407 0.0
C1448 C 0.72928 0.01761 0.6736 0.0
C1449 C 0.7365 0.02022 0.62605 0.0
C1450 C 0.73976 0.01347 0.66489 0.0
N1451 N 0.74311 0.01484 0.64149 0.0
C1452 C 0.72209 0.06338 0.63565 0.0
C1453 C 0.70741 0.04766 0.60343 0.0
C1454 C 0.73167 0.07526 0.62046 0.0
N1455 N 0.71026 0.04991 0.62701 0.0
C1456 C 0.71661 0.05932 0.58757 0.0
C1457 C 0.72905 0.07335 0.596 0.0
H1458 H 0.72424 0.06478 0.65446 0.0
H1459 H 0.69822 0.0368 0.59676 0.0
C1460 C 0.67562 0.97726 0.67635 0.0
N1461 N 0.68666 0.98868 0.66292 0.0
C1462 C 0.67202 0.96193 0.67329 0.0
C1463 C 0.69112 0.97032 0.6425 0.0
C1464 C 0.69433 0.98546 0.64614 0.0
C1465 C 0.67977 0.95828 0.65608 0.0
H1466 H 0.66947 0.98004 0.68932 0.0
H1467 H 0.70277 0.99457 0.63526 0.0
O1468 O 0.69666 0.04534 0.67953 0.0
O1469 O 0.68383 0.01257 0.69979 0.0
O1470 O 0.67882 0.01608 0.64746 0.0
O1471 O 0.71198 0.02718 0.6662 0.0
H1472 H 0.69729 0.05913 0.71972 0.0
H1473 H 0.68519 0.05513 0.64608 0.0
H1474 H 0.68791 0.07775 0.72473 0.0
H1475 H 0.67594 0.07374 0.65236 0.0
H1476 H 0.70407 0.99129 0.74877 0.0
H1477 H 0.66853 0.01167 0.73827 0.0
H1478 H 0.70184 0.00092 0.70951 0.0
H1479 H 0.67129 0.00181 0.77703 0.0
H1480 H 0.6419 0.03207 0.73038 0.0
H1481 H 0.62247 0.00827 0.66434 0.0
H1482 H 0.75715 0.06469 0.72218 0.0
H1483 H 0.72248 0.05233 0.77614 0.0
H1484 H 0.68187 0.99876 0.61493 0.0
H1485 H 0.6661 0.03106 0.62768 0.0
H1486 H 0.67376 0.99693 0.57309 0.0
H1487 H 0.65824 0.02864 0.58562 0.0
H1488 H 0.7206 0.02865 0.62177 0.0
H1489 H 0.72673 0.01667 0.69224 0.0
H1490 H 0.7394 0.02118 0.60754 0.0
H1491 H 0.74526 0.0092 0.67673 0.0
H1492 H 0.74128 0.08567 0.62785 0.0
H1493 H 0.71402 0.05733 0.5689 0.0
H1494 H 0.66301 0.953 0.68389 0.0
H1495 H 0.69748 0.96809 0.62915 0.0
Li1496 Li 0.97374 0.67435 0.69214 0.0
Li1497 Li 0.98031 0.65558 0.67528 0.0
Li1498 Li 0.99569 0.68385 0.66586 0.0
Li1499 Li 0.96954 0.66762 0.64904 0.0
C1500 C 0.99645 0.6772 0.72016 0.0
N1501 N 0.0031 0.68485 0.7673 0.0
C1502 C 0.99541 0.66617 0.73623 0.0
C1503 C 1.00101 0.69216 0.72801 0.0
C1504 C 0.99879 0.67026 0.76001 0.0
C1505 C 0.00428 0.69579 0.75193 0.0
C1506 C 0.94807 0.63953 0.67884 0.0
C1507 C 0.93014 0.61482 0.66152 0.0
N1508 N 0.92396 0.60955 0.68316 0.0
C1509 C 0.94143 0.63394 0.70086 0.0
C1510 C 0.9423 0.62997 0.65896 0.0
C1511 C 0.9293 0.61872 0.7027 0.0
C1512 C 0.9578 0.68781 0.71115 0.0
N1513 N 0.964 0.67891 0.71719 0.0
C1514 C 0.95282 0.67479 0.75554 0.0
C1515 C 0.96175 0.67245 0.73892 0.0
C1516 C 0.9459 0.68357 0.74947 0.0
C1517 C 0.94867 0.6903 0.72707 0.0
H1518 H 0.9595 0.69255 0.6936 0.0
H1519 H 0.96638 0.66501 0.74307 0.0
C1520 C 0.9899 0.63361 0.66708 0.0
N1521 N 0.98131 0.63731 0.68133 0.0
C1522 C 0.99086 0.62036 0.67129 0.0
C1523 C 0.97477 0.61539 0.70552 0.0
C1524 C 0.97385 0.62854 0.70032 0.0
C1525 C 0.98334 0.61106 0.69089 0.0
H1526 H 0.99616 0.64102 0.65252 0.0
H1527 H 0.96754 0.632 0.71186 0.0
C1528 C 0.98438 0.70272 0.65631 0.0
N1529 N 0.99683 0.7324 0.6392 0.0
C1530 C 0.98304 0.70512 0.63236 0.0
C1531 C 0.99189 0.71539 0.67161 0.0
C1532 C 0.98945 0.72023 0.62405 0.0
C1533 C 0.99816 0.7303 0.6626 0.0
C1534 C 0.98762 0.65967 0.62199 0.0
C1535 C 0.99658 0.66932 0.60374 0.0
C1536 C 0.97812 0.64384 0.61767 0.0
C1537 C 0.99584 0.66298 0.58144 0.0
C1538 C 0.97773 0.63793 0.59514 0.0
N1539 N 0.98652 0.64755 0.57764 0.0
C1540 C 0.02702 0.70432 0.67753 0.0
C1541 C 0.01955 0.70865 0.63993 0.0
C1542 C 0.0421 0.71648 0.67433 0.0
N1543 N 0.0161 0.70068 0.66048 0.0
C1544 C 0.03447 0.72089 0.63598 0.0
C1545 C 0.04601 0.72491 0.65328 0.0
H1546 H 0.02411 0.69765 0.69353 0.0
H1547 H 0.01075 0.70547 0.62653 0.0
C1548 C 0.94351 0.66716 0.63365 0.0
N1549 N 0.9546 0.66435 0.62531 0.0
C1550 C 0.93117 0.66486 0.6193 0.0
C1551 C 0.94178 0.65671 0.58787 0.0
C1552 C 0.95405 0.65936 0.60279 0.0
C1553 C 0.93006 0.65942 0.59608 0.0
H1554 H 0.94428 0.67117 0.65163 0.0
H1555 H 0.96297 0.65729 0.59632 0.0
O1556 O 0.99317 0.67342 0.69681 0.0
O1557 O 0.95996 0.65439 0.67675 0.0
O1558 O 0.97824 0.68804 0.66477 0.0
O1559 O 0.98835 0.66568 0.644 0.0
H1560 H 0.99207 0.65459 0.73043 0.0
H1561 H 0.00198 0.70085 0.71576 0.0
H1562 H 0.998 0.66182 0.77266 0.0
H1563 H 0.00776 0.7073 0.75827 0.0
H1564 H 0.92559 0.60726 0.64629 0.0
H1565 H 0.9457 0.64125 0.71639 0.0
H1566 H 0.94709 0.63421 0.64172 0.0
H1567 H 0.92412 0.6142 0.71966 0.0
H1568 H 0.95075 0.66921 0.77253 0.0
H1569 H 0.94356 0.69716 0.72177 0.0
H1570 H 0.99753 0.61755 0.65937 0.0
H1571 H 0.96918 0.60899 0.72128 0.0
H1572 H 0.97727 0.69545 0.62028 0.0
H1573 H 0.99286 0.71371 0.69023 0.0
H1574 H 0.98859 0.72227 0.60553 0.0
H1575 H 0.00406 0.74022 0.67422 0.0
H1576 H 0.00404 0.68157 0.60676 0.0
H1577 H 0.97111 0.63618 0.63153 0.0
H1578 H 0.0027 0.67033 0.56716 0.0
H1579 H 0.97042 0.62571 0.59157 0.0
H1580 H 0.05069 0.71901 0.68795 0.0
H1581 H 0.03694 0.72716 0.61955 0.0
H1582 H 0.92266 0.66746 0.62632 0.0
H1583 H 0.94138 0.65237 0.57021 0.0
H1584 H 0.13498 0.29681 0.15309 0.0
H1585 H 0.14007 0.31103 0.08029 0.0
H1586 H 0.11427 0.32274 0.12827 0.0
H1587 H 0.14347 0.28477 0.12336 0.0
H1588 H 0.14493 0.29008 0.09304 0.0
H1589 H 0.16396 0.30329 0.15267 0.0
H1590 H 0.20925 0.32991 0.12289 0.0
H1591 H 0.1696 0.30828 0.0772 0.0
C1592 C 0.13311 0.30301 0.13901 0.0
C1593 C 0.12422 0.31001 0.14321 0.0
C1594 C 0.13901 0.30343 0.11631 0.0
C1595 C 0.13593 0.311 0.09794 0.0
C1596 C 0.12722 0.31823 0.10228 0.0
C1597 C 0.12152 0.31772 0.12497 0.0
C1598 C 0.14751 0.29481 0.11134 0.0
C1599 C 0.16473 0.30518 0.11462 0.0
C1600 C 0.1713 0.30828 0.13745 0.0
C1601 C 0.18738 0.31739 0.14056 0.0
C1602 C 0.19677 0.32351 0.12073 0.0
C1603 C 0.19048 0.3202 0.09796 0.0
C1604 C 0.17444 0.3111 0.09487 0.0
H1605 H 0.70024 0.83758 0.14867 0.0
H1606 H 0.69339 0.83034 0.07352 0.0
H1607 H 0.67079 0.79197 0.12054 0.0
H1608 H 0.71841 0.85703 0.11954 0.0
H1609 H 0.71369 0.8548 0.08882 0.0
H1610 H 0.70608 0.86654 0.14715 0.0
H1611 H 0.68277 0.88871 0.1171 0.0
H1612 H 0.69436 0.86104 0.07293 0.0
C1613 C 0.6945 0.83 0.13374 0.0
C1614 C 0.68473 0.8141 0.1374 0.0
C1615 C 0.69734 0.83604 0.11072 0.0
C1616 C 0.69061 0.82596 0.09134 0.0
C1617 C 0.68084 0.8101 0.09496 0.0
C1618 C 0.67767 0.80436 0.11794 0.0
C1619 C 0.70862 0.85294 0.10677 0.0
C1620 C 0.70086 0.86244 0.10979 0.0
C1621 C 0.70071 0.86866 0.13208 0.0
C1622 C 0.69433 0.87826 0.1346 0.0
C1623 C 0.68754 0.88111 0.11514 0.0
C1624 C 0.6874 0.87488 0.09297 0.0
C1625 C 0.69413 0.86558 0.09021 0.0
H1626 H 0.15257 0.82048 0.15592 0.0
H1627 H 0.15561 0.81908 0.08028 0.0
H1628 H 0.11131 0.79652 0.11392 0.0
H1629 H 0.17659 0.82613 0.13725 0.0
H1630 H 0.17762 0.82433 0.10618 0.0
H1631 H 0.18476 0.85082 0.15512 0.0
H1632 H 0.20721 0.89092 0.11132 0.0
H1633 H 0.18201 0.84585 0.07948 0.0
C1634 C 0.14697 0.81758 0.13876 0.0
C1635 C 0.13082 0.80827 0.13723 0.0
C1636 C 0.15601 0.82178 0.11818 0.0
C1637 C 0.14869 0.81677 0.09602 0.0
C1638 C 0.13253 0.80773 0.09435 0.0
C1639 C 0.12374 0.80409 0.11497 0.0
C1640 C 0.17335 0.82913 0.12009 0.0
C1641 C 0.18146 0.84647 0.11758 0.0
C1642 C 0.18694 0.85601 0.13779 0.0
C1643 C 0.19653 0.87205 0.13555 0.0
C1644 C 0.19959 0.87855 0.11301 0.0
C1645 C 0.19467 0.86926 0.09266 0.0
C1646 C 0.1854 0.85318 0.09504 0.0
H1647 H 0.33116 0.1797 0.85988 0.0
H1648 H 0.33896 0.18621 0.93485 0.0
H1649 H 0.31579 0.20645 0.89849 0.0
H1650 H 0.35286 0.17811 0.88116 0.0
H1651 H 0.35256 0.17667 0.91244 0.0
H1652 H 0.33357 0.15655 0.85618 0.0
H1653 H 0.31492 0.11165 0.88654 0.0
H1654 H 0.33772 0.15203 0.93096 0.0
C1655 C 0.32935 0.18386 0.87655 0.0
C1656 C 0.32207 0.19277 0.87686 0.0
C1657 C 0.33519 0.18114 0.89752 0.0
C1658 C 0.33375 0.18752 0.91887 0.0
C1659 C 0.3266 0.19652 0.91933 0.0
C1660 C 0.32043 0.19869 0.89841 0.0
C1661 C 0.34498 0.17357 0.89655 0.0
C1662 C 0.3353 0.15621 0.89423 0.0
C1663 C 0.33052 0.14936 0.87173 0.0
C1664 C 0.3232 0.1333 0.86908 0.0
C1665 C 0.32015 0.12405 0.88897 0.0
C1666 C 0.32596 0.13065 0.9112 0.0
C1667 C 0.33293 0.14676 0.91397 0.0
H1668 H 0.8664 0.16088 0.86837 0.0
H1669 H 0.86041 0.17035 0.94077 0.0
H1670 H 0.8852 0.20765 0.89239 0.0
H1671 H 0.85918 0.14106 0.89877 0.0
H1672 H 0.857 0.145 0.92876 0.0
H1673 H 0.8378 0.13341 0.86976 0.0
H1674 H 0.79237 0.11409 0.89936 0.0
H1675 H 0.8322 0.14034 0.9435 0.0
C1676 C 0.86772 0.16898 0.88219 0.0
C1677 C 0.87618 0.18488 0.87782 0.0
C1678 C 0.86179 0.1636 0.90487 0.0
C1679 C 0.86437 0.17434 0.92304 0.0
C1680 C 0.87256 0.19027 0.91845 0.0
C1681 C 0.87824 0.19535 0.89577 0.0
C1682 C 0.85431 0.14659 0.91028 0.0
C1683 C 0.837 0.13843 0.90678 0.0
C1684 C 0.8304 0.13208 0.88455 0.0
C1685 C 0.81428 0.12305 0.88194 0.0
C1686 C 0.80484 0.1212 0.90123 0.0
C1687 C 0.81118 0.12738 0.92334 0.0
C1688 C 0.82727 0.136 0.92617 0.0
H1689 H 0.84886 0.6682 0.8524 0.0
H1690 H 0.8463 0.66286 0.92787 0.0
H1691 H 0.89034 0.68431 0.89322 0.0
H1692 H 0.82471 0.65022 0.87086 0.0
H1693 H 0.82398 0.64644 0.90162 0.0
H1694 H 0.82093 0.67109 0.85588 0.0
H1695 H 0.79666 0.68578 0.90186 0.0
H1696 H 0.81681 0.66 0.92973 0.0
C1697 C 0.85454 0.67058 0.86949 0.0
C1698 C 0.87067 0.67757 0.87072 0.0
C1699 C 0.84566 0.66552 0.89015 0.0
C1700 C 0.85312 0.66754 0.91207 0.0
C1701 C 0.86929 0.67448 0.91337 0.0
C1702 C 0.87796 0.67985 0.89265 0.0
C1703 C 0.8283 0.65592 0.88848 0.0
C1704 C 0.82078 0.66554 0.89267 0.0
C1705 C 0.81757 0.67242 0.8735 0.0
C1706 C 0.80858 0.67947 0.87668 0.0
C1707 C 0.80391 0.68067 0.89949 0.0
C1708 C 0.80653 0.67343 0.9186 0.0
C1709 C 0.81522 0.66609 0.91521 0.0
H1710 H 0.80359 0.63546 0.48457 0.0
H1711 H 0.80778 0.64848 0.41132 0.0
H1712 H 0.78679 0.66501 0.46073 0.0
H1713 H 0.80898 0.6211 0.45334 0.0
H1714 H 0.8125 0.62786 0.42363 0.0
H1715 H 0.82891 0.63551 0.48511 0.0
H1716 H 0.87573 0.66226 0.4614 0.0
H1717 H 0.83841 0.64641 0.41127 0.0
C1718 C 0.80227 0.64206 0.47057 0.0
C1719 C 0.79515 0.6508 0.47534 0.0
C1720 C 0.80729 0.64153 0.44759 0.0
C1721 C 0.80459 0.6494 0.42925 0.0
C1722 C 0.79733 0.65803 0.43398 0.0
C1723 C 0.79303 0.65894 0.45714 0.0
C1724 C 0.81451 0.63171 0.44239 0.0
C1725 C 0.83163 0.64051 0.44771 0.0
C1726 C 0.83702 0.64136 0.471 0.0
C1727 C 0.85292 0.64939 0.47591 0.0
C1728 C 0.86341 0.65662 0.45765 0.0
C1729 C 0.8583 0.65544 0.43433 0.0
C1730 C 0.84238 0.64749 0.42937 0.0
H1731 H 0.36408 0.17452 0.48735 0.0
H1732 H 0.36266 0.16595 0.4124 0.0
H1733 H 0.34231 0.12805 0.46064 0.0
H1734 H 0.38324 0.19432 0.45796 0.0
H1735 H 0.37874 0.19164 0.42727 0.0
H1736 H 0.36853 0.20123 0.48551 0.0
H1737 H 0.34415 0.222 0.45418 0.0
H1738 H 0.36014 0.19793 0.41039 0.0
C1739 C 0.36011 0.16657 0.4725 0.0
C1740 C 0.35213 0.1506 0.47659 0.0
C1741 C 0.36354 0.17226 0.44927 0.0
C1742 C 0.3593 0.16174 0.43021 0.0
C1743 C 0.35178 0.14581 0.43443 0.0
C1744 C 0.34779 0.14039 0.45746 0.0
C1745 C 0.37346 0.1894 0.4451 0.0
C1746 C 0.36445 0.19773 0.44787 0.0
C1747 C 0.36323 0.20325 0.47026 0.0
C1748 C 0.35619 0.21232 0.47263 0.0
C1749 C 0.34977 0.21515 0.45261 0.0
C1750 C 0.35151 0.21042 0.43018 0.0
C1751 C 0.35852 0.20136 0.42781 0.0
H1752 H 0.82384 0.158 0.49126 0.0
H1753 H 0.82584 0.14821 0.41774 0.0
H1754 H 0.78209 0.1285 0.45232 0.0
H1755 H 0.84768 0.16063 0.47336 0.0
H1756 H 0.84871 0.15808 0.44246 0.0
H1757 H 0.85341 0.18522 0.48962 0.0
H1758 H 0.87442 0.22454 0.44405 0.0
H1759 H 0.85328 0.17876 0.41449 0.0
C1760 C 0.81797 0.15282 0.47476 0.0
C1761 C 0.80176 0.14338 0.47425 0.0
C1762 C 0.82673 0.15481 0.45434 0.0
C1763 C 0.81916 0.14743 0.43322 0.0
C1764 C 0.80303 0.13824 0.43244 0.0
C1765 C 0.79445 0.13652 0.45278 0.0
C1766 C 0.84413 0.16288 0.45587 0.0
C1767 C 0.85141 0.18007 0.45233 0.0
C1768 C 0.85571 0.19003 0.47202 0.0
C1769 C 0.86437 0.20611 0.46911 0.0
C1770 C 0.86756 0.21212 0.44625 0.0
C1771 C 0.86402 0.20245 0.42647 0.0
C1772 C 0.85566 0.18636 0.42956 0.0
H1773 H 0.00756 0.51529 0.18836 0.0
H1774 H 0.02593 0.53253 0.25793 0.0
H1775 H 0.99747 0.54738 0.22338 0.0
H1776 H 0.03187 0.51631 0.20455 0.0
H1777 H 0.03614 0.51944 0.23529 0.0
H1778 H 0.01382 0.49114 0.18952 0.0
H1779 H 0.99473 0.45298 0.23758 0.0
H1780 H 0.01988 0.49939 0.2644 0.0
C1781 C 0.00818 0.52192 0.20391 0.0
C1782 C 1.00088 0.53083 0.20382 0.0
C1783 C 0.01699 0.52222 0.2236 0.0
C1784 C 0.01851 0.53158 0.24324 0.0
C1785 C 0.01154 0.54073 0.243 0.0
C1786 C 0.00239 0.53987 0.22368 0.0
C1787 C 0.02646 0.51432 0.22226 0.0
C1788 C 0.01672 0.49719 0.22653 0.0
C1789 C 0.01118 0.48675 0.20734 0.0
C1790 C 0.00359 0.47073 0.21121 0.0
C1791 C 1.00051 0.46532 0.23443 0.0
C1792 C 0.0067 0.4755 0.25364 0.0
C1793 C 0.01461 0.49147 0.24967 0.0
H1794 H 0.52962 0.49969 0.20181 0.0
H1795 H 0.5278 0.50683 0.27657 0.0
H1796 H 0.54826 0.54559 0.22978 0.0
H1797 H 0.52529 0.47926 0.23116 0.0
H1798 H 0.52245 0.48175 0.2616 0.0
H1799 H 0.50474 0.47446 0.20114 0.0
H1800 H 0.45849 0.45321 0.22785 0.0
H1801 H 0.49695 0.47473 0.27592 0.0
C1802 C 0.53164 0.50735 0.21665 0.0
C1803 C 0.53895 0.52335 0.21303 0.0
C1804 C 0.52726 0.50125 0.2395 0.0
C1805 C 0.5306 0.51137 0.25884 0.0
C1806 C 0.53797 0.5274 0.25531 0.0
C1807 C 0.54186 0.53318 0.23239 0.0
C1808 C 0.52005 0.48408 0.24335 0.0
C1809 C 0.50282 0.47589 0.23896 0.0
C1810 C 0.49691 0.47174 0.21582 0.0
C1811 C 0.48089 0.46378 0.21167 0.0
C1812 C 0.47087 0.46007 0.23083 0.0
C1813 C 0.4765 0.46391 0.25397 0.0
C1814 C 0.49253 0.47191 0.25801 0.0
H1815 H 0.50805 0.98895 0.18942 0.0
H1816 H 0.50543 0.9804 0.26411 0.0
H1817 H 0.54957 0.00601 0.23087 0.0
H1818 H 0.4846 0.96707 0.20823 0.0
H1819 H 0.48302 0.96574 0.23953 0.0
H1820 H 0.48356 0.98866 0.18698 0.0
H1821 H 0.45415 0.00284 0.22008 0.0
H1822 H 0.47126 0.97815 0.26015 0.0
C1823 C 0.51371 0.99083 0.20643 0.0
C1824 C 0.52995 0.99886 0.20777 0.0
C1825 C 0.50475 0.98441 0.22679 0.0
C1826 C 0.51219 0.98605 0.2486 0.0
C1827 C 0.52837 0.99408 0.25012 0.0
C1828 C 0.5371 1.00073 0.22983 0.0
C1829 C 0.48746 0.97409 0.2247 0.0
C1830 C 0.47927 0.9833 0.2241 0.0
C1831 C 0.47819 0.98988 0.20277 0.0
C1832 C 0.46937 0.99719 0.20142 0.0
C1833 C 0.46166 0.99793 0.22146 0.0
C1834 C 0.46198 0.99081 0.24248 0.0
C1835 C 0.47123 0.98395 0.24405 0.0
H1836 H 0.47452 0.97551 0.82136 0.0
H1837 H 0.48365 0.99435 0.75102 0.0
H1838 H 0.45491 0.00272 0.79797 0.0
H1839 H 0.48452 0.96532 0.79123 0.0
H1840 H 0.48711 0.97213 0.76164 0.0
H1841 H 0.50425 0.98169 0.82273 0.0
H1842 H 0.5506 0.00818 0.79677 0.0
H1843 H 0.51234 0.9908 0.74832 0.0
C1844 C 0.47349 0.98266 0.80798 0.0
C1845 C 0.46425 0.98928 0.81221 0.0
C1846 C 0.48068 0.98456 0.78593 0.0
C1847 C 0.47859 0.99327 0.76828 0.0
C1848 C 0.46952 1.00011 0.77268 0.0
C1849 C 0.46254 0.99812 0.79474 0.0
C1850 C 0.48914 0.97597 0.78041 0.0
C1851 C 0.50628 0.98583 0.78514 0.0
C1852 C 0.51212 0.98736 0.80827 0.0
C1853 C 0.52813 0.9956 0.81258 0.0
C1854 C 0.53822 0.00253 0.79368 0.0
C1855 C 0.53266 1.00075 0.77052 0.0
C1856 C 0.51666 0.9925 0.76629 0.0
H1857 H 0.02684 0.49856 0.81595 0.0
H1858 H 0.00869 0.49292 0.74508 0.0
H1859 H 0.99693 0.4532 0.78771 0.0
H1860 H 0.03856 0.51991 0.78719 0.0
H1861 H 0.03067 0.5176 0.75815 0.0
H1862 H 0.02355 0.52187 0.8222 0.0
H1863 H 0.99787 0.54452 0.80657 0.0
H1864 H 0.01425 0.52787 0.74991 0.0
C1865 C 0.01939 0.49121 0.80188 0.0
C1866 C 0.01184 0.4751 0.80433 0.0
C1867 C 0.01812 0.49778 0.7806 0.0
C1868 C 0.00915 0.48803 0.76188 0.0
C1869 C 1.00129 0.47193 0.76459 0.0
C1870 C 0.0025 0.46566 0.78594 0.0
C1871 C 0.02752 0.51502 0.77706 0.0
C1872 C 0.01881 0.5229 0.78516 0.0
C1873 C 0.01792 0.52545 0.80939 0.0
C1874 C 0.01031 0.53322 0.81702 0.0
C1875 C 0.00355 0.53834 0.80043 0.0
C1876 C 0.00549 0.53719 0.77617 0.0
C1877 C 0.01264 0.52889 0.76858 0.0
H1878 H 0.48338 0.48135 0.82441 0.0
H1879 H 0.49068 0.4833 0.74954 0.0
H1880 H 0.44463 0.46322 0.77675 0.0
H1881 H 0.50807 0.4873 0.80928 0.0
H1882 H 0.5105 0.48562 0.77853 0.0
H1883 H 0.51451 0.51208 0.82702 0.0
H1884 H 0.54284 0.5524 0.78595 0.0
H1885 H 0.51937 0.50787 0.75225 0.0
C1886 C 0.47878 0.47977 0.80663 0.0
C1887 C 0.46271 0.47178 0.80289 0.0
C1888 C 0.48898 0.48439 0.7874 0.0
C1889 C 0.48295 0.48089 0.7643 0.0
C1890 C 0.46692 0.47312 0.76036 0.0
C1891 C 0.45702 0.4695 0.7797 0.0
C1892 C 0.50601 0.49073 0.79159 0.0
C1893 C 0.515 0.50808 0.78958 0.0
C1894 C 0.51857 0.5174 0.80996 0.0
C1895 C 0.52868 0.53338 0.80861 0.0
C1896 C 0.53443 0.54014 0.78671 0.0
C1897 C 0.53115 0.53105 0.76635 0.0
C1898 C 0.52134 0.515 0.76776 0.0
H1899 H 0.66966 0.85152 0.52707 0.0
H1900 H 0.67245 0.84989 0.60262 0.0
H1901 H 0.64945 0.87183 0.57072 0.0
H1902 H 0.68678 0.84422 0.5449 0.0
H1903 H 0.68981 0.84577 0.57598 0.0
H1904 H 0.66679 0.8201 0.52657 0.0
H1905 H 0.6508 0.77909 0.56828 0.0
H1906 H 0.67627 0.82362 0.60115 0.0
C1907 C 0.66632 0.8535 0.54432 0.0
C1908 C 0.65898 0.8623 0.54646 0.0
C1909 C 0.67076 0.84852 0.56455 0.0
C1910 C 0.66793 0.85256 0.58705 0.0
C1911 C 0.66029 0.86106 0.58934 0.0
C1912 C 0.65508 0.865 0.56899 0.0
C1913 C 0.68065 0.84114 0.56209 0.0
C1914 C 0.67118 0.82378 0.56404 0.0
C1915 C 0.66496 0.81458 0.54359 0.0
C1916 C 0.65797 0.79839 0.54485 0.0
C1917 C 0.65605 0.79155 0.56704 0.0
C1918 C 0.66306 0.80053 0.58714 0.0
C1919 C 0.6703 0.81665 0.58578 0.0
H1920 H 0.19479 0.83325 0.53383 0.0
H1921 H 0.19998 0.83821 0.60947 0.0
H1922 H 0.2174 0.87839 0.56619 0.0
H1923 H 0.19408 0.81237 0.5602 0.0
H1924 H 0.19243 0.81359 0.59135 0.0
H1925 H 0.17168 0.80309 0.53455 0.0
H1926 H 0.12707 0.78395 0.56671 0.0
H1927 H 0.16795 0.81026 0.60889 0.0
C1928 C 0.19843 0.84055 0.54945 0.0
C1929 C 0.206 0.85671 0.54714 0.0
C1930 C 0.19601 0.83375 0.57192 0.0
C1931 C 0.20124 0.84326 0.59217 0.0
C1932 C 0.20862 0.85934 0.58996 0.0
C1933 C 0.21082 0.8659 0.5676 0.0
C1934 C 0.1892 0.81652 0.57413 0.0
C1935 C 0.17182 0.80813 0.5718 0.0
C1936 C 0.16468 0.80177 0.54987 0.0
C1937 C 0.14854 0.79283 0.54815 0.0
C1938 C 0.13957 0.79102 0.568 0.0
C1939 C 0.14642 0.79729 0.58984 0.0
C1940 C 0.16259 0.80581 0.59182 0.0
H1941 H 0.17883 0.33119 0.52287 0.0
H1942 H 0.18114 0.33218 0.59876 0.0
H1943 H 0.22276 0.35122 0.55786 0.0
H1944 H 0.1563 0.31375 0.54684 0.0
H1945 H 0.15727 0.31476 0.57823 0.0
H1946 H 0.15817 0.33778 0.52472 0.0
H1947 H 0.12696 0.35024 0.55627 0.0
H1948 H 0.14336 0.32511 0.59655 0.0
C1949 C 0.18555 0.3351 0.53906 0.0
C1950 C 0.20171 0.34247 0.53802 0.0
C1951 C 0.17803 0.33179 0.56098 0.0
C1952 C 0.18689 0.33561 0.58188 0.0
C1953 C 0.20308 0.34264 0.58093 0.0
C1954 C 0.21037 0.34658 0.55891 0.0
C1955 C 0.16064 0.32195 0.56204 0.0
C1956 C 0.15275 0.33147 0.56135 0.0
C1957 C 0.15222 0.33851 0.54015 0.0
C1958 C 0.14312 0.34554 0.53834 0.0
C1959 C 0.13468 0.34559 0.55793 0.0
C1960 C 0.13444 0.338 0.57872 0.0
C1961 C 0.14387 0.33137 0.5807 0.0
C1962 C 0.00973 0.42028 0.10749 0.0
C1963 C 0.99617 0.40599 0.10444 0.0
C1964 C 0.01023 0.43143 0.12311 0.0
C1965 C 0.99692 0.4281 0.13627 0.0
C1966 C 0.98309 0.41381 0.13288 0.0
C1967 C 0.98285 0.40295 0.11684 0.0
C1968 C 0.02515 0.4466 0.12603 0.0
C1969 C 0.96874 0.40973 0.14689 0.0
C1970 C 0.00483 0.44795 0.19576 0.0
C1971 C 1.00125 0.45967 0.19177 0.0
C1972 C 0.00307 0.43743 0.17802 0.0
C1973 C 0.99801 0.43885 0.15535 0.0
C1974 C 0.99452 0.45073 0.15096 0.0
C1975 C 0.99614 0.461 0.16928 0.0
C1976 C 0.00687 0.42492 0.18353 0.0
C1977 C 0.98928 0.45268 0.12687 0.0
H1978 H 0.01995 0.42274 0.09757 0.0
H1979 H 0.97236 0.3919 0.11447 0.0
H1980 H 0.02298 0.4564 0.12426 0.0
H1981 H 0.02998 0.44733 0.14394 0.0
H1982 H 0.03395 0.44798 0.11288 0.0
H1983 H 0.95862 0.39869 0.14087 0.0
H1984 H 0.97092 0.40866 0.1658 0.0
H1985 H 0.96584 0.41905 0.14552 0.0
H1986 H 0.00934 0.44712 0.21276 0.0
H1987 H 0.99339 0.47003 0.16603 0.0
H1988 H 0.0168 0.42655 0.17273 0.0
H1989 H 0.99691 0.41341 0.17896 0.0
H1990 H 0.00984 0.4249 0.20243 0.0
H1991 H 0.99832 0.45489 0.11369 0.0
H1992 H 0.98684 0.46236 0.12639 0.0
H1993 H 0.97869 0.44188 0.12143 0.0
C1994 C 0.59982 0.58479 0.13076 0.0
C1995 C 0.59681 0.58415 0.1065 0.0
C1996 C 0.58927 0.57333 0.14593 0.0
C1997 C 0.57537 0.56093 0.13662 0.0
C1998 C 0.57234 0.5601 0.11212 0.0
C1999 C 0.58306 0.57175 0.09738 0.0
C2000 C 0.59292 0.5746 0.172 0.0
C2001 C 0.55766 0.54708 0.10156 0.0
C2002 C 0.55545 0.52682 0.17799 0.0
C2003 C 0.54536 0.5304 0.18985 0.0
C2004 C 0.56468 0.53613 0.15948 0.0
C2005 C 0.56376 0.54929 0.15284 0.0
C2006 C 0.55267 0.55219 0.16351 0.0
C2007 C 0.54357 0.54267 0.18184 0.0
C2008 C 0.5762 0.53254 0.14827 0.0
C2009 C 0.55123 0.56602 0.15684 0.0
H2010 H 0.6105 0.59422 0.13787 0.0
H2011 H 0.58053 0.57128 0.07869 0.0
H2012 H 0.58395 0.57561 0.18202 0.0
H2013 H 0.59277 0.56401 0.17813 0.0
H2014 H 0.60439 0.58475 0.17634 0.0
H2015 H 0.55748 0.5476 0.082 0.0
H2016 H 0.55627 0.53577 0.10674 0.0
H2017 H 0.54753 0.54754 0.10848 0.0
H2018 H 0.55694 0.51741 0.18425 0.0
H2019 H 0.53567 0.54536 0.1909 0.0
H2020 H 0.58803 0.54113 0.15436 0.0
H2021 H 0.57594 0.5334 0.1288 0.0
H2022 H 0.57396 0.52082 0.15292 0.0
H2023 H 0.56171 0.57674 0.16283 0.0
H2024 H 0.54096 0.56567 0.16493 0.0
H2025 H 0.55042 0.5667 0.13742 0.0
C2026 C 0.41084 0.00374 0.12446 0.0
C2027 C 0.41333 0.00747 0.10046 0.0
C2028 C 0.42217 0.00316 0.13838 0.0
C2029 C 0.43652 0.00676 0.12824 0.0
C2030 C 0.43931 0.01094 0.10424 0.0
C2031 C 0.42762 0.01102 0.09056 0.0
C2032 C 0.41869 0.9985 0.16393 0.0
C2033 C 0.45456 0.01514 0.09294 0.0
C2034 C 0.4666 0.01574 0.17558 0.0
C2035 C 0.46523 0.00121 0.17857 0.0
C2036 C 0.45837 0.01818 0.15765 0.0
C2037 C 0.4483 0.00567 0.14285 0.0
C2038 C 0.44798 0.99139 0.14451 0.0
C2039 C 0.45659 0.98937 0.1623 0.0
C2040 C 0.45941 0.03373 0.15595 0.0
C2041 C 0.43733 0.97772 0.1292 0.0
H2042 H 0.40002 0.00126 0.13245 0.0
H2043 H 0.42963 0.01362 0.07195 0.0
H2044 H 0.41983 0.98819 0.16729 0.0
H2045 H 0.42716 0.00794 0.17554 0.0
H2046 H 0.40687 0.99578 0.169 0.0
H2047 H 0.45536 0.01935 0.07461 0.0
H2048 H 0.46426 0.02424 0.10349 0.0
H2049 H 0.45612 0.00491 0.09256 0.0
H2050 H 0.47327 0.02487 0.18828 0.0
H2051 H 0.45538 0.97808 0.16485 0.0
H2052 H 0.44893 0.03304 0.16381 0.0
H2053 H 0.45991 0.03718 0.13726 0.0
H2054 H 0.46971 0.04287 0.16547 0.0
H2055 H 0.42522 0.9732 0.13494 0.0
H2056 H 0.44003 0.96823 0.13037 0.0
H2057 H 0.43803 0.98117 0.1105 0.0
C2058 C 0.40773 0.97883 0.92013 0.0
C2059 C 0.4031 0.98968 0.91528 0.0
C2060 C 0.41808 0.97723 0.90532 0.0
C2061 C 0.42398 0.98675 0.88524 0.0
C2062 C 0.41933 0.99771 0.88027 0.0
C2063 C 0.40892 0.99901 0.8953 0.0
C2064 C 0.42262 0.96531 0.91105 0.0
C2065 C 0.4254 0.00813 0.85906 0.0
C2066 C 0.46077 0.99479 0.85392 0.0
C2067 C 0.45469 0.98582 0.83349 0.0
C2068 C 0.45091 0.99446 0.87182 0.0
C2069 C 0.43467 0.98506 0.86892 0.0
C2070 C 0.42862 0.97523 0.84894 0.0
C2071 C 0.43873 0.97577 0.83143 0.0
C2072 C 0.4578 0.00501 0.89294 0.0
C2073 C 0.41142 0.96503 0.84514 0.0
H2074 H 0.40315 0.97149 0.93545 0.0
H2075 H 0.40554 0.00754 0.89166 0.0
H2076 H 0.41913 0.95681 0.89638 0.0
H2077 H 0.43537 0.97094 0.91293 0.0
H2078 H 0.41722 0.95899 0.92756 0.0
H2079 H 0.42083 0.0162 0.85787 0.0
H2080 H 0.43821 0.015 0.85984 0.0
H2081 H 0.42219 0.00106 0.84267 0.0
H2082 H 0.47311 0.00273 0.85522 0.0
H2083 H 0.43409 0.96903 0.81537 0.0
H2084 H 0.4525 0.9987 0.90946 0.0
H2085 H 0.45534 0.01464 0.89169 0.0
H2086 H 0.47053 0.00999 0.89412 0.0
H2087 H 0.40584 0.95843 0.86133 0.0
H2088 H 0.4087 0.95676 0.83029 0.0
H2089 H 0.40624 0.97233 0.84117 0.0
C2090 C 0.99874 0.41193 0.89648 0.0
C2091 C 0.01122 0.41477 0.91116 0.0
C2092 C 0.99978 0.42318 0.88072 0.0
C2093 C 0.01368 0.43759 0.87947 0.0
C2094 C 0.02627 0.4406 0.89441 0.0
C2095 C 0.02487 0.42916 0.91013 0.0
C2096 C 0.98606 0.41956 0.86515 0.0
C2097 C 0.04133 0.45573 0.89339 0.0
C2098 C 0.01988 0.45716 0.82037 0.0
C2099 C 0.01473 0.46765 0.82465 0.0
C2100 C 0.02024 0.44781 0.83835 0.0
C2101 C 0.01533 0.44897 0.86124 0.0
C2102 C 0.01095 0.46019 0.86601 0.0
C2103 C 0.01073 0.46946 0.84758 0.0
C2104 C 0.02509 0.4361 0.83249 0.0
C2105 C 0.0057 0.46179 0.89023 0.0
H2106 H 0.98808 0.40092 0.8975 0.0
H2107 H 0.03459 0.43137 0.92136 0.0
H2108 H 0.98281 0.42861 0.86728 0.0
H2109 H 0.98914 0.41956 0.84637 0.0
H2110 H 0.97583 0.40815 0.86917 0.0
H2111 H 0.04968 0.45663 0.90718 0.0
H2112 H 0.0467 0.45695 0.87585 0.0
H2113 H 0.03922 0.46555 0.89556 0.0
H2114 H 0.02308 0.45586 0.80261 0.0
H2115 H 0.00669 0.47754 0.8508 0.0
H2116 H 0.01499 0.42426 0.83396 0.0
H2117 H 0.03399 0.43704 0.8452 0.0
H2118 H 0.02978 0.43755 0.81436 0.0
H2119 H 0.99447 0.45134 0.89419 0.0
H2120 H 0.00425 0.47208 0.89168 0.0
H2121 H 0.01411 0.46267 0.90385 0.0
C2122 C 0.58077 0.60057 0.89799 0.0
C2123 C 0.58336 0.59522 0.9194 0.0
C2124 C 0.5701 0.59027 0.88135 0.0
C2125 C 0.56176 0.57426 0.88628 0.0
C2126 C 0.56375 0.56888 0.90831 0.0
C2127 C 0.57459 0.57939 0.92451 0.0
C2128 C 0.56831 0.59645 0.85801 0.0
C2129 C 0.55507 0.5519 0.91425 0.0
C2130 C 0.52863 0.54755 0.84523 0.0
C2131 C 0.53626 0.54262 0.82993 0.0
C2132 C 0.5367 0.55777 0.86398 0.0
C2133 C 0.55266 0.563 0.8673 0.0
C2134 C 0.56021 0.55763 0.85215 0.0
C2135 C 0.55191 0.54753 0.83365 0.0
C2136 C 0.52832 0.56326 0.87983 0.0
C2137 C 0.57716 0.56283 0.8551 0.0
H2138 H 0.58727 0.6128 0.89408 0.0
H2139 H 0.57661 0.57506 0.94082 0.0
H2140 H 0.57312 0.59251 0.84374 0.0
H2141 H 0.55591 0.59189 0.85388 0.0
H2142 H 0.57438 0.60928 0.85785 0.0
H2143 H 0.55638 0.54983 0.93314 0.0
H2144 H 0.54259 0.54678 0.91013 0.0
H2145 H 0.55949 0.54572 0.90335 0.0
H2146 H 0.51653 0.54377 0.84212 0.0
H2147 H 0.55773 0.54366 0.82168 0.0
H2148 H 0.53334 0.57592 0.87789 0.0
H2149 H 0.52984 0.5611 0.89856 0.0
H2150 H 0.51576 0.55747 0.87571 0.0
H2151 H 0.58419 0.57555 0.85298 0.0
H2152 H 0.58115 0.55727 0.84209 0.0
H2153 H 0.57942 0.56009 0.8731 0.0
C2154 C 0.01562 0.58232 0.93238 0.0
C2155 C 0.01293 0.59356 0.92222 0.0
C2156 C 0.01622 0.571 0.91844 0.0
C2157 C 0.01406 0.57092 0.89377 0.0
C2158 C 0.01174 0.58248 0.88335 0.0
C2159 C 0.01123 0.59367 0.89771 0.0
C2160 C 0.01881 0.55895 0.93014 0.0
C2161 C 0.00939 0.58278 0.85706 0.0
C2162 C 0.02627 0.55113 0.84889 0.0
C2163 C 0.01186 0.53907 0.84138 0.0
C2164 C 0.02737 0.56101 0.86737 0.0
C2165 C 0.01373 0.55857 0.87866 0.0
C2166 C 0.99937 0.54535 0.87283 0.0
C2167 C 0.99859 0.53582 0.85403 0.0
C2168 C 0.04289 0.57496 0.873 0.0
C2169 C 0.9846 0.54214 0.88478 0.0
H2170 H 0.01715 0.58232 0.95131 0.0
H2171 H 0.009 0.60222 0.88981 0.0
H2172 H 0.0085 0.54734 0.92743 0.0
H2173 H 0.02876 0.55872 0.92199 0.0
H2174 H 0.02102 0.56106 0.94939 0.0
H2175 H 0.00828 0.59285 0.85166 0.0
H2176 H 0.01924 0.58319 0.84747 0.0
H2177 H 0.99878 0.57205 0.85144 0.0
H2178 H 0.0365 0.55377 0.8388 0.0
H2179 H 0.98744 0.52656 0.848 0.0
H2180 H 0.04457 0.57689 0.89232 0.0
H2181 H 0.04341 0.58538 0.86523 0.0
H2182 H 0.05257 0.5738 0.86573 0.0
H2183 H 0.98632 0.54376 0.90415 0.0
H2184 H 0.97501 0.53023 0.88108 0.0
H2185 H 0.9811 0.55042 0.87835 0.0
C2186 C 0.41531 0.41563 0.90702 0.0
C2187 C 0.40111 0.41475 0.91155 0.0
C2188 C 0.42575 0.42632 0.89092 0.0
C2189 C 0.42183 0.43627 0.87887 0.0
C2190 C 0.40768 0.43571 0.88381 0.0
C2191 C 0.39751 0.42499 0.90022 0.0
C2192 C 0.44077 0.42664 0.88628 0.0
C2193 C 0.40303 0.446 0.87109 0.0
C2194 C 0.45386 0.46983 0.84507 0.0
C2195 C 0.45182 0.46335 0.82243 0.0
C2196 C 0.444 0.4613 0.86365 0.0
C2197 C 0.4318 0.44601 0.85936 0.0
C2198 C 0.42953 0.43955 0.83648 0.0
C2199 C 0.43966 0.44817 0.81848 0.0
C2200 C 0.44683 0.46847 0.88793 0.0
C2201 C 0.41664 0.42331 0.83109 0.0
H2202 H 0.41827 0.40795 0.91614 0.0
H2203 H 0.38653 0.42431 0.90369 0.0
H2204 H 0.44077 0.42267 0.86797 0.0
H2205 H 0.45065 0.43861 0.88794 0.0
H2206 H 0.44268 0.41912 0.89858 0.0
H2207 H 0.39231 0.4451 0.87839 0.0
H2208 H 0.41243 0.45823 0.87218 0.0
H2209 H 0.40105 0.44275 0.85213 0.0
H2210 H 0.46321 0.48151 0.8483 0.0
H2211 H 0.43825 0.44277 0.80134 0.0
H2212 H 0.44983 0.46181 0.90036 0.0
H2213 H 0.43617 0.46796 0.89459 0.0
H2214 H 0.45634 0.4807 0.88814 0.0
H2215 H 0.4186 0.41488 0.84095 0.0
H2216 H 0.41579 0.42043 0.81199 0.0
H2217 H 0.40539 0.42182 0.83689 0.0
C2218 C 0.58855 0.9917 0.89267 0.0
C2219 C 0.58741 0.99217 0.91724 0.0
C2220 C 0.5774 0.99194 0.87782 0.0
C2221 C 0.56487 0.9928 0.88778 0.0
C2222 C 0.5636 0.99319 0.91258 0.0
C2223 C 0.57486 0.99284 0.92701 0.0
C2224 C 0.57911 0.99139 0.85143 0.0
C2225 C 0.55051 0.99426 0.92384 0.0
C2226 C 0.54712 0.00877 0.84528 0.0
C2227 C 0.53485 0.99518 0.83571 0.0
C2228 C 0.55641 0.00822 0.86343 0.0
C2229 C 0.55339 0.9937 0.87205 0.0
C2230 C 0.54028 0.98001 0.8637 0.0
C2231 C 0.53112 0.98092 0.84563 0.0
C2232 C 0.57013 0.0231 0.87208 0.0
C2233 C 0.53665 0.96432 0.87246 0.0
H2234 H 0.59814 0.99105 0.88506 0.0
H2235 H 0.57404 0.99343 0.946 0.0
H2236 H 0.56857 0.98146 0.84371 0.0
H2237 H 0.58038 0.00204 0.84334 0.0
H2238 H 0.58927 0.9903 0.84653 0.0
H2239 H 0.55088 0.99392 0.9434 0.0
H2240 H 0.55103 0.00519 0.91855 0.0
H2241 H 0.53923 0.98463 0.91757 0.0
H2242 H 0.55 0.0198 0.8376 0.0
H2243 H 0.52175 0.97038 0.83805 0.0
H2244 H 0.58094 0.02387 0.86553 0.0
H2245 H 0.57071 0.02337 0.89163 0.0
H2246 H 0.5697 0.03341 0.86591 0.0
H2247 H 0.54542 0.96159 0.86569 0.0
H2248 H 0.52504 0.95505 0.86656 0.0
H2249 H 0.5372 0.96426 0.892 0.0
C2250 C 0.5934 0.00175 0.12682 0.0
C2251 C 0.59604 0.00876 0.10464 0.0
C2252 C 0.58233 0.00157 0.14214 0.0
C2253 C 0.57354 0.00843 0.13507 0.0
C2254 C 0.57627 0.01572 0.11288 0.0
C2255 C 0.58754 0.01588 0.09799 0.0
C2256 C 0.57983 0.99375 0.16576 0.0
C2257 C 0.56712 0.02314 0.10473 0.0
C2258 C 0.53563 0.99228 0.16779 0.0
C2259 C 0.53964 0.00305 0.18623 0.0
C2260 C 0.54625 0.99441 0.15003 0.0
C2261 C 0.56127 0.00756 0.15085 0.0
C2262 C 0.56498 0.01903 0.16838 0.0
C2263 C 0.55409 0.01668 0.18578 0.0
C2264 C 0.54177 0.98201 0.13143 0.0
C2265 C 0.58084 0.03324 0.16984 0.0
H2266 H 0.59972 0.99603 0.13201 0.0
H2267 H 0.58966 0.02155 0.08106 0.0
H2268 H 0.58122 0.00191 0.18016 0.0
H2269 H 0.56787 0.98381 0.16672 0.0
H2270 H 0.58802 0.98949 0.16898 0.0
H2271 H 0.57093 0.0287 0.08724 0.0
H2272 H 0.55467 0.01429 0.10356 0.0
H2273 H 0.56825 0.03198 0.11773 0.0
H2274 H 0.52457 0.98165 0.16808 0.0
H2275 H 0.55718 0.02514 0.19982 0.0
H2276 H 0.54801 0.97563 0.13478 0.0
H2277 H 0.54514 0.98722 0.11367 0.0
H2278 H 0.52915 0.97361 0.13135 0.0
H2279 H 0.58936 0.02987 0.17564 0.0
H2280 H 0.58125 0.04194 0.18251 0.0
H2281 H 0.58452 0.03869 0.15228 0.0
C2282 C 0.97757 0.56806 0.0971 0.0
C2283 C 0.98705 0.58378 0.1029 0.0
C2284 C 0.97749 0.55644 0.11106 0.0
C2285 C 0.98693 0.56063 0.1315 0.0
C2286 C 0.99616 0.57643 0.13783 0.0
C2287 C 0.99618 0.58779 0.1234 0.0
C2288 C 0.96758 0.53974 0.10368 0.0
C2289 C 0.00628 0.58139 0.15967 0.0
C2290 C 0.98101 0.53497 0.18364 0.0
C2291 C 0.99413 0.53334 0.18205 0.0
C2292 C 0.97766 0.54276 0.16617 0.0
C2293 C 0.98746 0.54869 0.1464 0.0
C2294 C 0.99945 0.54522 0.1432 0.0
C2295 C 0.00272 0.53764 0.16118 0.0
C2296 C 0.96474 0.54615 0.17031 0.0
C2297 C 0.00987 0.55093 0.122 0.0
H2298 H 0.97028 0.56481 0.08151 0.0
H2299 H 0.00374 0.59987 0.12786 0.0
H2300 H 0.97504 0.53471 0.0999 0.0
H2301 H 0.95977 0.53294 0.11822 0.0
H2302 H 0.96049 0.53837 0.08775 0.0
H2303 H 0.01223 0.59408 0.16267 0.0
H2304 H 0.99924 0.57555 0.17542 0.0
H2305 H 0.01517 0.57791 0.15807 0.0
H2306 H 0.97418 0.5314 0.19959 0.0
H2307 H 0.01287 0.53642 0.15978 0.0
H2308 H 0.9582 0.54484 0.1538 0.0
H2309 H 0.96974 0.5583 0.17641 0.0
H2310 H 0.95656 0.53848 0.18393 0.0
H2311 H 0.00309 0.54937 0.10565 0.0
H2312 H 0.01654 0.54486 0.11985 0.0
H2313 H 0.01819 0.56347 0.12413 0.0
C2314 C 0.42184 0.4035 0.1247 0.0
C2315 C 0.42139 0.40753 0.10116 0.0
C2316 C 0.43337 0.41381 0.14032 0.0
C2317 C 0.44494 0.42844 0.13214 0.0
C2318 C 0.44498 0.43234 0.1082 0.0
C2319 C 0.43312 0.42193 0.09307 0.0
C2320 C 0.43286 0.40923 0.1658 0.0
C2321 C 0.45726 0.44771 0.09872 0.0
C2322 C 0.46122 0.45873 0.18047 0.0
C2323 C 0.4741 0.45778 0.18798 0.0
C2324 C 0.45211 0.44988 0.16138 0.0
C2325 C 0.45612 0.44001 0.14924 0.0
C2326 C 0.46993 0.44009 0.15533 0.0
C2327 C 0.47875 0.44895 0.17476 0.0
C2328 C 0.43751 0.45018 0.15547 0.0
C2329 C 0.47478 0.43 0.14244 0.0
H2330 H 0.41308 0.39229 0.13105 0.0
H2331 H 0.43284 0.42533 0.07505 0.0
H2332 H 0.444 0.41016 0.17099 0.0
H2333 H 0.43116 0.41725 0.17733 0.0
H2334 H 0.4234 0.39725 0.16918 0.0
H2335 H 0.45684 0.44817 0.07917 0.0
H2336 H 0.45566 0.45709 0.10615 0.0
H2337 H 0.46893 0.45008 0.10417 0.0
H2338 H 0.45773 0.46573 0.19049 0.0
H2339 H 0.48867 0.44814 0.18053 0.0
H2340 H 0.4273 0.43893 0.16017 0.0
H2341 H 0.4368 0.45182 0.13627 0.0
H2342 H 0.43681 0.4595 0.1651 0.0
H2343 H 0.46718 0.41778 0.14763 0.0
H2344 H 0.48694 0.4333 0.14657 0.0
H2345 H 0.47354 0.43067 0.1231 0.0
C2346 C 0.66773 0.75822 0.43109 0.0
C2347 C 0.65572 0.74293 0.42788 0.0
C2348 C 0.66652 0.76803 0.44762 0.0
C2349 C 0.653 0.76239 0.46141 0.0
C2350 C 0.64046 0.74729 0.45725 0.0
C2351 C 0.64198 0.73772 0.44056 0.0
C2352 C 0.68018 0.78404 0.45149 0.0
C2353 C 0.62582 0.74088 0.47148 0.0
C2354 C 0.66057 0.77788 0.52383 0.0
C2355 C 0.65569 0.78884 0.52335 0.0
C2356 C 0.65924 0.76894 0.50402 0.0
C2357 C 0.6532 0.77118 0.48277 0.0
C2358 C 0.64825 0.78221 0.48195 0.0
C2359 C 0.64956 0.79095 0.50231 0.0
C2360 C 0.6647 0.75734 0.50577 0.0
C2361 C 0.64185 0.78495 0.4595 0.0
H2362 H 0.67842 0.76234 0.42147 0.0
H2363 H 0.63251 0.72603 0.43778 0.0
H2364 H 0.67635 0.79269 0.45267 0.0
H2365 H 0.68595 0.78441 0.46844 0.0
H2366 H 0.68882 0.78746 0.43716 0.0
H2367 H 0.61634 0.73002 0.46368 0.0
H2368 H 0.62812 0.73841 0.48964 0.0
H2369 H 0.62189 0.74944 0.47288 0.0
H2370 H 0.66587 0.77651 0.53965 0.0
H2371 H 0.64585 0.79944 0.50175 0.0
H2372 H 0.67459 0.76066 0.49374 0.0
H2373 H 0.65533 0.74572 0.5002 0.0
H2374 H 0.6684 0.75651 0.52394 0.0
H2375 H 0.65098 0.78967 0.44587 0.0
H2376 H 0.63755 0.79316 0.46215 0.0
H2377 H 0.63226 0.77388 0.45254 0.0
C2378 C 0.26359 0.9156 0.45823 0.0
C2379 C 0.25819 0.91793 0.4366 0.0
C2380 C 0.25354 0.90435 0.47412 0.0
C2381 C 0.23776 0.89476 0.46796 0.0
C2382 C 0.2323 0.89661 0.44588 0.0
C2383 C 0.24247 0.90835 0.43071 0.0
C2384 C 0.25976 0.90294 0.49774 0.0
C2385 C 0.21566 0.88634 0.4384 0.0
C2386 C 0.21745 0.85939 0.50687 0.0
C2387 C 0.21079 0.86448 0.52385 0.0
C2388 C 0.22534 0.86867 0.48746 0.0
C2389 C 0.22689 0.88349 0.48536 0.0
C2390 C 0.21921 0.88816 0.50144 0.0
C2391 C 0.211 0.87846 0.52018 0.0
C2392 C 0.23286 0.86303 0.47012 0.0
C2393 C 0.22071 0.90394 0.50006 0.0
H2394 H 0.27571 0.92256 0.46286 0.0
H2395 H 0.23795 0.91012 0.41438 0.0
H2396 H 0.25337 0.9048 0.51215 0.0
H2397 H 0.25799 0.89114 0.49979 0.0
H2398 H 0.27228 0.91141 0.49995 0.0
H2399 H 0.21368 0.88805 0.41964 0.0
H2400 H 0.21213 0.87401 0.44096 0.0
H2401 H 0.20803 0.88879 0.44952 0.0
H2402 H 0.21738 0.84862 0.50949 0.0
H2403 H 0.20554 0.88229 0.53289 0.0
H2404 H 0.24552 0.86916 0.47336 0.0
H2405 H 0.23096 0.86555 0.45176 0.0
H2406 H 0.22835 0.85041 0.47172 0.0
H2407 H 0.23286 0.91294 0.50385 0.0
H2408 H 0.2131 0.90534 0.51285 0.0
H2409 H 0.21784 0.90606 0.48208 0.0
C2410 C 0.09971 0.35717 0.42759 0.0
C2411 C 0.0846 0.34992 0.4365 0.0
C2412 C 0.11207 0.3584 0.44118 0.0
C2413 C 0.10922 0.35221 0.46419 0.0
C2414 C 0.09403 0.34506 0.47337 0.0
C2415 C 0.08191 0.344 0.45941 0.0
C2416 C 0.12809 0.36609 0.4308 0.0
C2417 C 0.09053 0.3384 0.49793 0.0
C2418 C 0.13313 0.33874 0.49722 0.0
C2419 C 0.13941 0.34986 0.51527 0.0
C2420 C 0.12438 0.34008 0.47895 0.0
C2421 C 0.12192 0.35285 0.47881 0.0
C2422 C 0.12979 0.365 0.49538 0.0
C2423 C 0.13848 0.36335 0.51345 0.0
C2424 C 0.11637 0.32699 0.4614 0.0
C2425 C 0.12772 0.37894 0.49563 0.0
H2426 H 0.10184 0.36157 0.40975 0.0
H2427 H 0.07031 0.33856 0.46647 0.0
H2428 H 0.13641 0.3754 0.44273 0.0
H2429 H 0.132 0.35753 0.42901 0.0
H2430 H 0.12852 0.37111 0.41319 0.0
H2431 H 0.07814 0.3334 0.50253 0.0
H2432 H 0.09362 0.32922 0.49946 0.0
H2433 H 0.09761 0.34752 0.51108 0.0
H2434 H 0.13375 0.32825 0.49862 0.0
H2435 H 0.14343 0.37201 0.52733 0.0
H2436 H 0.11691 0.33146 0.44335 0.0
H2437 H 0.10399 0.31987 0.46613 0.0
H2438 H 0.12154 0.3194 0.46122 0.0
H2439 H 0.12809 0.38322 0.47749 0.0
H2440 H 0.13672 0.3885 0.50654 0.0
H2441 H 0.11624 0.37566 0.50308 0.0
C2442 C 0.07542 0.32681 0.22959 0.0
C2443 C 0.0711 0.3193 0.25135 0.0
C2444 C 0.08473 0.32419 0.21399 0.0
C2445 C 0.08974 0.31369 0.22023 0.0
C2446 C 0.0854 0.30603 0.24217 0.0
C2447 C 0.07617 0.30898 0.25753 0.0
C2448 C 0.0892 0.33267 0.1908 0.0
C2449 C 0.09037 0.29464 0.2493 0.0
C2450 C 0.10033 0.29824 0.16683 0.0
C2451 C 0.1163 0.30833 0.16576 0.0
C2452 C 0.09163 0.29913 0.18545 0.0
C2453 C 0.09914 0.31049 0.20328 0.0
C2454 C 0.11546 0.31998 0.2031 0.0
C2455 C 0.12388 0.31882 0.18419 0.0
C2456 C 0.07429 0.28875 0.18501 0.0
C2457 C 0.12389 0.33216 0.22184 0.0
H2458 H 0.0717 0.33496 0.22491 0.0
H2459 H 0.07274 0.30305 0.27429 0.0
H2460 H 0.10197 0.3394 0.18927 0.0
H2461 H 0.08474 0.32426 0.17595 0.0
H2462 H 0.08463 0.34071 0.18886 0.0
H2463 H 0.08633 0.28993 0.26722 0.0
H2464 H 0.08573 0.28488 0.23651 0.0
H2465 H 0.10316 0.30024 0.24891 0.0
H2466 H 0.09452 0.29029 0.15229 0.0
H2467 H 0.13622 0.32675 0.18305 0.0
H2468 H 0.06876 0.29567 0.18051 0.0
H2469 H 0.07002 0.28363 0.20262 0.0
H2470 H 0.0705 0.27927 0.17182 0.0
H2471 H 0.12139 0.34171 0.21943 0.0
H2472 H 0.1366 0.33704 0.22104 0.0
H2473 H 0.11983 0.32733 0.23966 0.0
C2474 C 0.67998 0.75054 0.21949 0.0
C2475 C 0.6788 0.75181 0.24391 0.0
C2476 C 0.68106 0.76205 0.20423 0.0
C2477 C 0.68091 0.77514 0.21362 0.0
C2478 C 0.6797 0.77648 0.23825 0.0
C2479 C 0.67864 0.7648 0.25309 0.0
C2480 C 0.68236 0.76022 0.17803 0.0
C2481 C 0.67939 0.79019 0.24889 0.0
C2482 C 0.69705 0.80935 0.17223 0.0
C2483 C 0.68359 0.80689 0.16064 0.0
C2484 C 0.69632 0.79961 0.19057 0.0
C2485 C 0.68176 0.78722 0.19746 0.0
C2486 C 0.66808 0.78551 0.18711 0.0
C2487 C 0.66916 0.79536 0.16877 0.0
C2488 C 0.71117 0.80186 0.20125 0.0
C2489 C 0.65233 0.77258 0.19416 0.0
H2490 H 0.68026 0.74062 0.21232 0.0
H2491 H 0.67747 0.76574 0.27193 0.0
H2492 H 0.67251 0.76003 0.16863 0.0
H2493 H 0.69312 0.77022 0.17128 0.0
H2494 H 0.68248 0.74945 0.17358 0.0
H2495 H 0.6787 0.78964 0.26845 0.0
H2496 H 0.68993 0.80106 0.24383 0.0
H2497 H 0.66931 0.79077 0.24191 0.0
H2498 H 0.70823 0.81814 0.16579 0.0
H2499 H 0.65875 0.79349 0.15982 0.0
H2500 H 0.71313 0.79242 0.19518 0.0
H2501 H 0.71043 0.80129 0.22076 0.0
H2502 H 0.72131 0.81308 0.19617 0.0
H2503 H 0.65083 0.7614 0.1878 0.0
H2504 H 0.64285 0.77403 0.18665 0.0
H2505 H 0.65123 0.77192 0.21364 0.0
C2506 C 0.24635 0.93666 0.23217 0.0
C2507 C 0.25508 0.93223 0.2461 0.0
C2508 C 0.23546 0.92636 0.21577 0.0
C2509 C 0.23319 0.91126 0.21338 0.0
C2510 C 0.24155 0.90654 0.22804 0.0
C2511 C 0.25243 0.9171 0.24416 0.0
C2512 C 0.22687 0.93186 0.2003 0.0
C2513 C 0.23939 0.89051 0.22613 0.0
C2514 C 0.1987 0.88095 0.17784 0.0
C2515 C 0.20557 0.88187 0.15595 0.0
C2516 C 0.20751 0.89046 0.19684 0.0
C2517 C 0.22349 0.90104 0.19375 0.0
C2518 C 0.23045 0.90185 0.17176 0.0
C2519 C 0.22146 0.89218 0.15328 0.0
C2520 C 0.19976 0.88925 0.22014 0.0
C2521 C 0.24745 0.91291 0.16769 0.0
H2522 H 0.24838 0.94835 0.2336 0.0
H2523 H 0.25892 0.91353 0.25527 0.0
H2524 H 0.23068 0.93257 0.18177 0.0
H2525 H 0.21427 0.9235 0.20068 0.0
H2526 H 0.22889 0.9434 0.20581 0.0
H2527 H 0.24565 0.88818 0.24031 0.0
H2528 H 0.22694 0.88169 0.22697 0.0
H2529 H 0.24372 0.88912 0.20884 0.0
H2530 H 0.18645 0.87296 0.18001 0.0
H2531 H 0.22697 0.89263 0.13664 0.0
H2532 H 0.20089 0.90055 0.22487 0.0
H2533 H 0.20556 0.88634 0.23429 0.0
H2534 H 0.18729 0.88033 0.21976 0.0
H2535 H 0.25023 0.92493 0.17143 0.0
H2536 H 0.25097 0.91233 0.14932 0.0
H2537 H 0.2545 0.91027 0.17992 0.0
C2538 C 0.69535 0.92676 0.24898 0.0
C2539 C 0.68364 0.93028 0.24442 0.0
C2540 C 0.6982 0.9176 0.23327 0.0
C2541 C 0.68914 0.91186 0.2125 0.0
C2542 C 0.6772 0.91523 0.20793 0.0
C2543 C 0.6746 0.9244 0.22393 0.0
C2544 C 0.71108 0.91433 0.23865 0.0
C2545 C 0.66729 0.90931 0.18594 0.0
C2546 C 0.70396 0.90265 0.15713 0.0
C2547 C 0.6955 0.88648 0.15683 0.0
C2548 C 0.70271 0.91106 0.17593 0.0
C2549 C 0.69263 0.90307 0.19475 0.0
C2550 C 0.68478 0.88669 0.19521 0.0
C2551 C 0.68634 0.87854 0.17615 0.0
C2552 C 0.71137 0.92849 0.17481 0.0
C2553 C 0.67397 0.87778 0.21502 0.0
H2554 H 0.70249 0.93141 0.26466 0.0
H2555 H 0.66538 0.92687 0.2205 0.0
H2556 H 0.70665 0.9017 0.23813 0.0
H2557 H 0.72016 0.91965 0.225 0.0
H2558 H 0.71647 0.9189 0.2562 0.0
H2559 H 0.65813 0.9125 0.18543 0.0
H2560 H 0.67461 0.91409 0.17008 0.0
H2561 H 0.66173 0.89654 0.18486 0.0
H2562 H 0.71099 0.90871 0.14203 0.0
H2563 H 0.67969 0.86602 0.17568 0.0
H2564 H 0.7174 0.93356 0.19177 0.0
H2565 H 0.70306 0.93261 0.17178 0.0
H2566 H 0.72 0.93291 0.1604 0.0
H2567 H 0.67954 0.88255 0.23236 0.0
H2568 H 0.6703 0.8653 0.21428 0.0
H2569 H 0.66351 0.87893 0.2139 0.0
C2570 C 0.06668 0.76231 0.23446 0.0
C2571 C 0.07175 0.75537 0.25094 0.0
C2572 C 0.07684 0.77261 0.2176 0.0
C2573 C 0.09238 0.77594 0.21712 0.0
C2574 C 0.09769 0.7694 0.23426 0.0
C2575 C 0.08732 0.7592 0.25095 0.0
C2576 C 0.07076 0.77941 0.19967 0.0
C2577 C 0.11411 0.7725 0.23421 0.0
C2578 C 0.1117 0.78429 0.15752 0.0
C2579 C 0.12142 0.80039 0.15827 0.0
C2580 C 0.10222 0.7763 0.17652 0.0
C2581 C 0.10249 0.78456 0.19697 0.0
C2582 C 0.11246 0.80081 0.19809 0.0
C2583 C 0.12192 0.80856 0.17869 0.0
C2584 C 0.09191 0.75896 0.17462 0.0
C2585 C 0.11301 0.80996 0.21965 0.0
H2586 H 0.05473 0.75956 0.23459 0.0
H2587 H 0.09128 0.75375 0.26347 0.0
H2588 H 0.07858 0.79209 0.19851 0.0
H2589 H 0.07042 0.77443 0.18199 0.0
H2590 H 0.05895 0.77705 0.20398 0.0
H2591 H 0.11685 0.76789 0.25016 0.0
H2592 H 0.11592 0.76703 0.21842 0.0
H2593 H 0.12239 0.78509 0.2332 0.0
H2594 H 0.11155 0.77788 0.14195 0.0
H2595 H 0.12946 0.82099 0.17929 0.0
H2596 H 0.07964 0.75578 0.17684 0.0
H2597 H 0.09477 0.75324 0.1889 0.0
H2598 H 0.09306 0.75431 0.1574 0.0
H2599 H 0.10139 0.80843 0.22295 0.0
H2600 H 0.12141 0.8225 0.21779 0.0
H2601 H 0.11623 0.80561 0.23539 0.0
C2602 C 0.25137 0.32152 0.22169 0.0
C2603 C 0.25134 0.3244 0.2459 0.0
C2604 C 0.23955 0.32028 0.20678 0.0
C2605 C 0.22735 0.32191 0.21631 0.0
C2606 C 0.22717 0.3247 0.24074 0.0
C2607 C 0.23919 0.32597 0.25522 0.0
C2608 C 0.24017 0.31731 0.18078 0.0
C2609 C 0.21438 0.32651 0.25153 0.0
C2610 C 0.20733 0.33345 0.17072 0.0
C2611 C 0.195 0.31903 0.16373 0.0
C2612 C 0.21744 0.33468 0.1889 0.0
C2613 C 0.21512 0.32115 0.2004 0.0
C2614 C 0.20192 0.30673 0.19478 0.0
C2615 C 0.19198 0.30584 0.17646 0.0
C2616 C 0.23128 0.3503 0.19446 0.0
C2617 C 0.19895 0.29207 0.20682 0.0
H2618 H 0.26059 0.32008 0.21441 0.0
H2619 H 0.23918 0.32844 0.27385 0.0
H2620 H 0.22952 0.30658 0.1753 0.0
H2621 H 0.24068 0.32693 0.17039 0.0
H2622 H 0.25033 0.31614 0.17621 0.0
H2623 H 0.21559 0.32801 0.27099 0.0
H2624 H 0.21438 0.3367 0.24387 0.0
H2625 H 0.20299 0.31625 0.24735 0.0
H2626 H 0.20961 0.34367 0.16094 0.0
H2627 H 0.18254 0.29465 0.17097 0.0
H2628 H 0.24192 0.35065 0.188 0.0
H2629 H 0.23262 0.35235 0.21379 0.0
H2630 H 0.23041 0.35985 0.18607 0.0
H2631 H 0.20754 0.28889 0.20075 0.0
H2632 H 0.18718 0.28227 0.20288 0.0
H2633 H 0.20033 0.29379 0.2262 0.0
C2634 C 0.26614 0.34524 0.45746 0.0
C2635 C 0.26308 0.34307 0.43313 0.0
C2636 C 0.25545 0.34555 0.47311 0.0
C2637 C 0.24149 0.34406 0.4642 0.0
C2638 C 0.23848 0.34227 0.43968 0.0
C2639 C 0.24915 0.34155 0.42452 0.0
C2640 C 0.25897 0.34723 0.49924 0.0
C2641 C 0.22386 0.34091 0.42947 0.0
C2642 C 0.20809 0.32914 0.50704 0.0
C2643 C 0.20964 0.34293 0.51592 0.0
C2644 C 0.21814 0.32933 0.4897 0.0
C2645 C 0.22978 0.34366 0.48072 0.0
C2646 C 0.23074 0.35758 0.48863 0.0
C2647 C 0.2208 0.35706 0.50651 0.0
C2648 C 0.21694 0.31426 0.48215 0.0
C2649 C 0.24269 0.37304 0.479 0.0
H2650 H 0.27692 0.3467 0.46435 0.0
H2651 H 0.24639 0.33951 0.4059 0.0
H2652 H 0.25911 0.35768 0.50622 0.0
H2653 H 0.24977 0.33714 0.50871 0.0
H2654 H 0.27028 0.34814 0.50334 0.0
H2655 H 0.22382 0.34082 0.40988 0.0
H2656 H 0.21368 0.33011 0.43564 0.0
H2657 H 0.22247 0.35068 0.4357 0.0
H2658 H 0.19966 0.31826 0.5148 0.0
H2659 H 0.22209 0.36771 0.51372 0.0
H2660 H 0.22753 0.31413 0.48773 0.0
H2661 H 0.21613 0.31308 0.46267 0.0
H2662 H 0.20675 0.30409 0.4899 0.0
H2663 H 0.25437 0.37579 0.48507 0.0
H2664 H 0.24068 0.3825 0.48481 0.0
H2665 H 0.24266 0.37268 0.45943 0.0
C2666 C 0.64495 0.91024 0.44608 0.0
C2667 C 0.65905 0.92046 0.43544 0.0
C2668 C 0.64395 0.89929 0.46246 0.0
C2669 C 0.65734 0.89847 0.46804 0.0
C2670 C 0.67145 0.90833 0.45654 0.0
C2671 C 0.67215 0.91929 0.4405 0.0
C2672 C 0.62878 0.88915 0.47462 0.0
C2673 C 0.68594 0.90768 0.46181 0.0
C2674 C 0.66161 0.88648 0.52941 0.0
C2675 C 0.65785 0.87104 0.52608 0.0
C2676 C 0.66105 0.89529 0.51079 0.0
C2677 C 0.65712 0.88874 0.48792 0.0
C2678 C 0.65351 0.87326 0.48418 0.0
C2679 C 0.65384 0.86453 0.50337 0.0
C2680 C 0.66493 0.91174 0.51562 0.0
C2681 C 0.64951 0.86602 0.4599 0.0
H2682 H 0.63481 0.91115 0.44217 0.0
H2683 H 0.683 0.927 0.43192 0.0
H2684 H 0.62577 0.87687 0.47375 0.0
H2685 H 0.62985 0.89244 0.49354 0.0
H2686 H 0.61915 0.89019 0.46673 0.0
H2687 H 0.69547 0.9149 0.44952 0.0
H2688 H 0.68992 0.91185 0.48007 0.0
H2689 H 0.68354 0.8956 0.46069 0.0
H2690 H 0.66533 0.89189 0.54662 0.0
H2691 H 0.65098 0.85266 0.50061 0.0
H2692 H 0.65544 0.91352 0.50923 0.0
H2693 H 0.67552 0.91987 0.50593 0.0
H2694 H 0.66687 0.91477 0.53469 0.0
H2695 H 0.63943 0.86647 0.45262 0.0
H2696 H 0.64679 0.8538 0.45998 0.0
H2697 H 0.65934 0.87266 0.44782 0.0
C2698 C 0.0827 0.74833 0.45581 0.0
C2699 C 0.08525 0.74015 0.43797 0.0
C2700 C 0.09443 0.75757 0.47197 0.0
C2701 C 0.10905 0.75858 0.47031 0.0
C2702 C 0.11177 0.7505 0.45215 0.0
C2703 C 0.09983 0.74139 0.43617 0.0
C2704 C 0.09111 0.76605 0.49107 0.0
C2705 C 0.12714 0.75116 0.44998 0.0
C2706 C 0.14146 0.79142 0.5054 0.0
C2707 C 0.14063 0.78396 0.52662 0.0
C2708 C 0.1317 0.78315 0.48633 0.0
C2709 C 0.12101 0.76714 0.48872 0.0
C2710 C 0.12088 0.75946 0.50968 0.0
C2711 C 0.13069 0.76797 0.52836 0.0
C2712 C 0.1322 0.7917 0.46418 0.0
C2713 C 0.10977 0.7424 0.51293 0.0
H2714 H 0.07153 0.7476 0.45702 0.0
H2715 H 0.10181 0.73498 0.4225 0.0
H2716 H 0.09194 0.76163 0.50862 0.0
H2717 H 0.09984 0.77854 0.49072 0.0
H2718 H 0.07942 0.76469 0.48918 0.0
H2719 H 0.12773 0.74506 0.43394 0.0
H2720 H 0.13667 0.76335 0.44943 0.0
H2721 H 0.12915 0.7458 0.46567 0.0
H2722 H 0.14912 0.8038 0.50417 0.0
H2723 H 0.13018 0.76223 0.54479 0.0
H2724 H 0.12145 0.79232 0.46272 0.0
H2725 H 0.13275 0.78542 0.44837 0.0
H2726 H 0.14225 0.80365 0.46408 0.0
H2727 H 0.09776 0.74026 0.51354 0.0
H2728 H 0.1121 0.73795 0.52944 0.0
H2729 H 0.11044 0.7357 0.49781 0.0
C2730 C 0.3272 0.09041 0.75225 0.0
C2731 C 0.3207 0.07474 0.75819 0.0
C2732 C 0.32613 0.10092 0.76746 0.0
C2733 C 0.31876 0.09576 0.78946 0.0
C2734 C 0.31161 0.07988 0.79518 0.0
C2735 C 0.31254 0.06955 0.77939 0.0
C2736 C 0.33366 0.1177 0.76054 0.0
C2737 C 0.30374 0.07395 0.8186 0.0
C2738 C 0.33475 0.12291 0.84174 0.0
C2739 C 0.32297 0.12624 0.84614 0.0
C2740 C 0.33367 0.11336 0.82291 0.0
C2741 C 0.32056 0.10719 0.80786 0.0
C2742 C 0.30902 0.11128 0.8114 0.0
C2743 C 0.31026 0.12066 0.83083 0.0
C2744 C 0.34615 0.10917 0.82001 0.0
C2745 C 0.29508 0.10521 0.79535 0.0
H2746 H 0.33372 0.09469 0.73612 0.0
H2747 H 0.30715 0.05743 0.78391 0.0
H2748 H 0.32595 0.12242 0.76452 0.0
H2749 H 0.34446 0.12453 0.77092 0.0
H2750 H 0.3366 0.11939 0.74151 0.0
H2751 H 0.29762 0.06113 0.81953 0.0
H2752 H 0.31249 0.07873 0.833 0.0
H2753 H 0.29531 0.07786 0.82188 0.0
H2754 H 0.34446 0.12714 0.85391 0.0
H2755 H 0.30109 0.12315 0.83455 0.0
H2756 H 0.35095 0.11194 0.80195 0.0
H2757 H 0.34116 0.09655 0.82248 0.0
H2758 H 0.35579 0.11534 0.83286 0.0
H2759 H 0.29863 0.10656 0.7766 0.0
H2760 H 0.28841 0.11121 0.79835 0.0
H2761 H 0.28734 0.09269 0.7985 0.0
C2762 C 0.92682 0.23275 0.76622 0.0
C2763 C 0.93069 0.24794 0.7719 0.0
C2764 C 0.91763 0.22046 0.78135 0.0
C2765 C 0.91201 0.22346 0.8024 0.0
C2766 C 0.91581 0.23879 0.80808 0.0
C2767 C 0.92521 0.25086 0.79284 0.0
C2768 C 0.91407 0.20433 0.77494 0.0
C2769 C 0.90991 0.24244 0.83028 0.0
C2770 C 0.87742 0.19317 0.83614 0.0
C2771 C 0.88473 0.19117 0.85576 0.0
C2772 C 0.88618 0.20287 0.81762 0.0
C2773 C 0.90255 0.21076 0.81906 0.0
C2774 C 0.90988 0.20783 0.83812 0.0
C2775 C 0.90086 0.19808 0.8563 0.0
C2776 C 0.87795 0.20563 0.7975 0.0
C2777 C 0.92728 0.21594 0.84034 0.0
H2778 H 0.93115 0.23052 0.75006 0.0
H2779 H 0.92806 0.26258 0.79707 0.0
H2780 H 0.91869 0.1999 0.78878 0.0
H2781 H 0.90138 0.19643 0.77412 0.0
H2782 H 0.91912 0.20391 0.75773 0.0
H2783 H 0.91355 0.25489 0.83175 0.0
H2784 H 0.8971 0.23558 0.83066 0.0
H2785 H 0.91427 0.23918 0.846 0.0
H2786 H 0.86494 0.18797 0.83603 0.0
H2787 H 0.90644 0.19662 0.87173 0.0
H2788 H 0.88296 0.20508 0.78036 0.0
H2789 H 0.87949 0.21738 0.79924 0.0
H2790 H 0.86537 0.19709 0.79725 0.0
H2791 H 0.93252 0.2154 0.82342 0.0
H2792 H 0.93109 0.21087 0.85441 0.0
H2793 H 0.93181 0.22832 0.84463 0.0
C2794 C 0.7602 0.67307 0.76311 0.0
C2795 C 0.75578 0.68434 0.76158 0.0
C2796 C 0.77106 0.67427 0.77991 0.0
C2797 C 0.77759 0.68697 0.79577 0.0
C2798 C 0.77387 0.69883 0.79349 0.0
C2799 C 0.76299 0.69737 0.7764 0.0
C2800 C 0.77469 0.66135 0.78176 0.0
C2801 C 0.78066 0.71258 0.81 0.0
C2802 C 0.78528 0.67691 0.85651 0.0
C2803 C 0.80128 0.68261 0.85621 0.0
C2804 C 0.77762 0.67876 0.83724 0.0
C2805 C 0.78612 0.68641 0.81692 0.0
C2806 C 0.80233 0.69244 0.8165 0.0
C2807 C 0.80974 0.69038 0.83618 0.0
C2808 C 0.76031 0.67202 0.8384 0.0
C2809 C 0.81173 0.70073 0.79514 0.0
H2810 H 0.7546 0.66288 0.75193 0.0
H2811 H 0.75989 0.70628 0.775 0.0
H2812 H 0.78734 0.66607 0.78339 0.0
H2813 H 0.76926 0.65452 0.79785 0.0
H2814 H 0.77033 0.65343 0.76626 0.0
H2815 H 0.77849 0.72185 0.80372 0.0
H2816 H 0.77542 0.70887 0.82769 0.0
H2817 H 0.7933 0.71743 0.81206 0.0
H2818 H 0.77857 0.67052 0.87166 0.0
H2819 H 0.82209 0.69476 0.83589 0.0
H2820 H 0.75453 0.66274 0.82494 0.0
H2821 H 0.75727 0.68103 0.83441 0.0
H2822 H 0.75557 0.66709 0.85598 0.0
H2823 H 0.80832 0.69252 0.78007 0.0
H2824 H 0.82434 0.70586 0.79834 0.0
H2825 H 0.80939 0.71003 0.78985 0.0
C2826 C 0.74571 0.64993 0.58749 0.0
C2827 C 0.73492 0.65342 0.57762 0.0
C2828 C 0.75654 0.6487 0.57337 0.0
C2829 C 0.75656 0.65098 0.54878 0.0
C2830 C 0.74561 0.65438 0.53867 0.0
C2831 C 0.73496 0.65562 0.55324 0.0
C2832 C 0.76812 0.64523 0.58481 0.0
C2833 C 0.7452 0.65677 0.51245 0.0
C2834 C 0.79171 0.66375 0.51036 0.0
C2835 C 0.78783 0.65005 0.49821 0.0
C2836 C 0.78214 0.664 0.52815 0.0
C2837 C 0.76824 0.65025 0.53353 0.0
C2838 C 0.76486 0.63617 0.52244 0.0
C2839 C 0.77478 0.63623 0.50493 0.0
C2840 C 0.78632 0.67919 0.53989 0.0
C2841 C 0.75014 0.62129 0.52762 0.0
H2842 H 0.74589 0.64846 0.60639 0.0
H2843 H 0.72657 0.6582 0.54554 0.0
H2844 H 0.76744 0.63482 0.57658 0.0
H2845 H 0.78001 0.65499 0.58193 0.0
H2846 H 0.76625 0.64328 0.60408 0.0
H2847 H 0.73568 0.65889 0.5073 0.0
H2848 H 0.75632 0.66679 0.50682 0.0
H2849 H 0.74373 0.64648 0.50268 0.0
H2850 H 0.80177 0.67445 0.50493 0.0
H2851 H 0.77168 0.6257 0.49521 0.0
H2852 H 0.78488 0.67779 0.55927 0.0
H2853 H 0.77844 0.68321 0.53344 0.0
H2854 H 0.79841 0.68828 0.53611 0.0
H2855 H 0.74837 0.61959 0.54691 0.0
H2856 H 0.75017 0.61109 0.51983 0.0
H2857 H 0.74015 0.62186 0.52022 0.0
C2858 C 0.3449 0.09946 0.58989 0.0
C2859 C 0.34624 0.08743 0.57938 0.0
C2860 C 0.34553 0.11147 0.57633 0.0
C2861 C 0.34755 0.11146 0.55167 0.0
C2862 C 0.3488 0.0993 0.54093 0.0
C2863 C 0.34808 0.08741 0.55491 0.0
C2864 C 0.34401 0.12413 0.58837 0.0
C2865 C 0.351 0.0989 0.51465 0.0
C2866 C 0.33592 0.13201 0.50744 0.0
C2867 C 0.3504 0.14404 0.50043 0.0
C2868 C 0.33467 0.12199 0.52561 0.0
C2869 C 0.34826 0.12402 0.53682 0.0
C2870 C 0.36274 0.13706 0.53134 0.0
C2871 C 0.36363 0.14698 0.51319 0.0
C2872 C 0.31898 0.1084 0.53118 0.0
C2873 C 0.37748 0.1397 0.54298 0.0
H2874 H 0.34322 0.0994 0.60877 0.0
H2875 H 0.34926 0.07824 0.54674 0.0
H2876 H 0.35442 0.13551 0.58498 0.0
H2877 H 0.33394 0.12457 0.581 0.0
H2878 H 0.34253 0.12246 0.60773 0.0
H2879 H 0.35185 0.08869 0.50907 0.0
H2880 H 0.34118 0.09866 0.50507 0.0
H2881 H 0.36168 0.10952 0.5092 0.0
H2882 H 0.32571 0.12972 0.49744 0.0
H2883 H 0.37485 0.15617 0.50755 0.0
H2884 H 0.31742 0.10671 0.55051 0.0
H2885 H 0.31802 0.09773 0.52348 0.0
H2886 H 0.30946 0.10986 0.52386 0.0
H2887 H 0.376 0.13807 0.56232 0.0
H2888 H 0.38733 0.15145 0.53948 0.0
H2889 H 0.38045 0.1311 0.5361 0.0
C2890 C 0.91174 0.27041 0.56833 0.0
C2891 C 0.92067 0.26581 0.5814 0.0
C2892 C 0.90093 0.26048 0.55151 0.0
C2893 C 0.89902 0.24561 0.54778 0.0
C2894 C 0.90758 0.2407 0.56158 0.0
C2895 C 0.91834 0.25088 0.57817 0.0
C2896 C 0.8921 0.26616 0.53701 0.0
C2897 C 0.90583 0.22491 0.55818 0.0
C2898 C 0.86546 0.21511 0.51111 0.0
C2899 C 0.87266 0.21656 0.48935 0.0
C2900 C 0.87377 0.22471 0.53032 0.0
C2901 C 0.88959 0.23593 0.52758 0.0
C2902 C 0.89682 0.23753 0.50558 0.0
C2903 C 0.88834 0.22775 0.4869 0.0
C2904 C 0.86574 0.22269 0.5536 0.0
C2905 C 0.91367 0.24933 0.50186 0.0
H2906 H 0.91353 0.28195 0.57076 0.0
H2907 H 0.92498 0.24717 0.58862 0.0
H2908 H 0.89614 0.2678 0.51849 0.0
H2909 H 0.87958 0.25747 0.53681 0.0
H2910 H 0.89365 0.2773 0.54378 0.0
H2911 H 0.91223 0.22234 0.5718 0.0
H2912 H 0.89345 0.21585 0.55875 0.0
H2913 H 0.91025 0.22421 0.54058 0.0
H2914 H 0.85337 0.20647 0.51311 0.0
H2915 H 0.89418 0.22866 0.47041 0.0
H2916 H 0.86702 0.23385 0.55957 0.0
H2917 H 0.87124 0.21904 0.56723 0.0
H2918 H 0.85324 0.21394 0.55255 0.0
H2919 H 0.91729 0.24964 0.48327 0.0
H2920 H 0.92102 0.24664 0.51333 0.0
H2921 H 0.91594 0.26103 0.50687 0.0
C2922 C 0.3352 0.24995 0.57728 0.0
C2923 C 0.34781 0.26138 0.59007 0.0
C2924 C 0.3372 0.24072 0.56061 0.0
C2925 C 0.35213 0.2428 0.55693 0.0
C2926 C 0.36474 0.2537 0.57084 0.0
C2927 C 0.36246 0.26302 0.58706 0.0
C2928 C 0.32349 0.22944 0.54586 0.0
C2929 C 0.38075 0.25599 0.56787 0.0
C2930 C 0.35358 0.21282 0.51691 0.0
C2931 C 0.35676 0.22035 0.4951 0.0
C2932 C 0.35274 0.22022 0.53759 0.0
C2933 C 0.35487 0.23533 0.53622 0.0
C2934 C 0.35874 0.24315 0.51443 0.0
C2935 C 0.35993 0.2357 0.49434 0.0
C2936 C 0.34908 0.21172 0.5607 0.0
C2937 C 0.36097 0.2592 0.51204 0.0
H2938 H 0.32387 0.2487 0.57959 0.0
H2939 H 0.37217 0.2717 0.59725 0.0
H2940 H 0.32518 0.23346 0.52732 0.0
H2941 H 0.3225 0.21789 0.54585 0.0
H2942 H 0.31246 0.22824 0.55229 0.0
H2943 H 0.38866 0.26301 0.58244 0.0
H2944 H 0.38029 0.24467 0.56709 0.0
H2945 H 0.3857 0.26198 0.551 0.0
H2946 H 0.35126 0.20102 0.51768 0.0
H2947 H 0.363 0.24184 0.47774 0.0
H2948 H 0.3372 0.20847 0.56617 0.0
H2949 H 0.3571 0.21929 0.57476 0.0
H2950 H 0.34987 0.20105 0.55945 0.0
H2951 H 0.35019 0.25909 0.51705 0.0
H2952 H 0.36402 0.26369 0.4938 0.0
H2953 H 0.37025 0.26735 0.52416 0.0
C2954 C 0.74601 0.10138 0.58536 0.0
C2955 C 0.7396 0.08567 0.57945 0.0
C2956 C 0.75659 0.11304 0.57042 0.0
C2957 C 0.76071 0.10892 0.54888 0.0
C2958 C 0.75406 0.09312 0.54258 0.0
C2959 C 0.74371 0.08172 0.55799 0.0
C2960 C 0.76351 0.12975 0.57781 0.0
C2961 C 0.75803 0.08823 0.51964 0.0
C2962 C 0.77729 0.13552 0.49648 0.0
C2963 C 0.79251 0.13828 0.49631 0.0
C2964 C 0.76699 0.12681 0.51441 0.0
C2965 C 0.77213 0.12096 0.53286 0.0
C2966 C 0.78789 0.12506 0.53409 0.0
C2967 C 0.79788 0.13359 0.51572 0.0
C2968 C 0.75029 0.12273 0.5124 0.0
C2969 C 0.79392 0.11935 0.55377 0.0
H2970 H 0.74275 0.1046 0.6017 0.0
H2971 H 0.73911 0.06966 0.55338 0.0
H2972 H 0.77626 0.1352 0.57927 0.0
H2973 H 0.76108 0.13622 0.56424 0.0
H2974 H 0.75897 0.13104 0.59499 0.0
H2975 H 0.75141 0.0755 0.51694 0.0
H2976 H 0.75562 0.09378 0.50458 0.0
H2977 H 0.77055 0.09209 0.51934 0.0
H2978 H 0.77313 0.13937 0.48177 0.0
H2979 H 0.80957 0.13556 0.51578 0.0
H2980 H 0.74592 0.12408 0.52966 0.0
H2981 H 0.74314 0.11043 0.50697 0.0
H2982 H 0.74866 0.12996 0.49919 0.0
H2983 H 0.78967 0.12081 0.57109 0.0
H2984 H 0.80675 0.12551 0.55429 0.0
H2985 H 0.78961 0.10683 0.55121 0.0
C2986 C 0.90195 0.65094 0.58987 0.0
C2987 C 0.91685 0.65674 0.58057 0.0
C2988 C 0.88952 0.64883 0.57557 0.0
C2989 C 0.89196 0.65233 0.55129 0.0
C2990 C 0.90688 0.65792 0.54168 0.0
C2991 C 0.91914 0.66018 0.55645 0.0
C2992 C 0.87381 0.64297 0.58647 0.0
C2993 C 0.90993 0.66165 0.51578 0.0
C2994 C 0.86009 0.63572 0.50514 0.0
C2995 C 0.85919 0.64881 0.4992 0.0
C2996 C 0.87002 0.63636 0.52324 0.0
C2997 C 0.87908 0.65041 0.53574 0.0
C2998 C 0.87715 0.66326 0.53107 0.0
C2999 C 0.86735 0.66236 0.51258 0.0
C3000 C 0.87186 0.62247 0.52744 0.0
C3001 C 0.88634 0.67833 0.54432 0.0
H3002 H 0.89995 0.64796 0.60837 0.0
H3003 H 0.93061 0.6649 0.5491 0.0
H3004 H 0.86995 0.65151 0.58378 0.0
H3005 H 0.86518 0.63208 0.57768 0.0
H3006 H 0.87383 0.64083 0.60567 0.0
H3007 H 0.92204 0.66529 0.51091 0.0
H3008 H 0.90203 0.6514 0.50493 0.0
H3009 H 0.90761 0.67107 0.51116 0.0
H3010 H 0.85397 0.62536 0.49438 0.0
H3011 H 0.86677 0.67253 0.50766 0.0
H3012 H 0.87189 0.62025 0.54657 0.0
H3013 H 0.88312 0.62475 0.52029 0.0
H3014 H 0.86252 0.6119 0.51875 0.0
H3015 H 0.88621 0.67626 0.56355 0.0
H3016 H 0.88181 0.6863 0.54117 0.0
H3017 H 0.89856 0.68412 0.53855 0.0
C3018 C 0.93872 0.68826 0.78969 0.0
C3019 C 0.93498 0.68478 0.76577 0.0
C3020 C 0.92803 0.68841 0.8055 0.0
C3021 C 0.91317 0.68477 0.79721 0.0
C3022 C 0.9095 0.68167 0.77295 0.0
C3023 C 0.92048 0.68176 0.7575 0.0
C3024 C 0.93242 0.69192 0.83122 0.0
C3025 C 0.89376 0.6776 0.76347 0.0
C3026 C 0.88112 0.66655 0.84218 0.0
C3027 C 0.87975 0.67918 0.84946 0.0
C3028 C 0.89171 0.66816 0.82478 0.0
C3029 C 0.90106 0.68277 0.81429 0.0
C3030 C 0.89926 0.69546 0.82095 0.0
C3031 C 0.88869 0.69355 0.83875 0.0
C3032 C 0.89338 0.65439 0.8184 0.0
C3033 C 0.90889 0.71115 0.80995 0.0
H3034 H 0.94999 0.69075 0.79605 0.0
H3035 H 0.91749 0.6789 0.73904 0.0
H3036 H 0.93012 0.70107 0.83759 0.0
H3037 H 0.92525 0.68144 0.84186 0.0
H3038 H 0.9448 0.69573 0.83448 0.0
H3039 H 0.8932 0.67685 0.74391 0.0
H3040 H 0.88491 0.66629 0.77065 0.0
H3041 H 0.89067 0.68632 0.76926 0.0
H3042 H 0.87434 0.65553 0.85091 0.0
H3043 H 0.88772 0.70333 0.84478 0.0
H3044 H 0.90511 0.65673 0.82337 0.0
H3045 H 0.89207 0.65233 0.79907 0.0
H3046 H 0.88473 0.64369 0.82741 0.0
H3047 H 0.92119 0.71596 0.81504 0.0
H3048 H 0.90514 0.71942 0.81555 0.0
H3049 H 0.9082 0.71014 0.79043 0.0
C3050 C 0.31081 0.23577 0.76476 0.0
C3051 C 0.31776 0.25122 0.77231 0.0
C3052 C 0.30972 0.22417 0.77987 0.0
C3053 C 0.31575 0.22815 0.80306 0.0
C3054 C 0.32236 0.24366 0.81101 0.0
C3055 C 0.32326 0.255 0.79555 0.0
C3056 C 0.30244 0.20776 0.77085 0.0
C3057 C 0.32893 0.24838 0.83565 0.0
C3058 C 0.30521 0.1995 0.85285 0.0
C3059 C 0.31867 0.19846 0.85476 0.0
C3060 C 0.30362 0.20835 0.83509 0.0
C3061 C 0.31579 0.21634 0.8189 0.0
C3062 C 0.32882 0.21431 0.81957 0.0
C3063 C 0.3301 0.20537 0.83751 0.0
C3064 C 0.28945 0.21005 0.8348 0.0
C3065 C 0.34201 0.22255 0.80251 0.0
H3066 H 0.30634 0.23275 0.7469 0.0
H3067 H 0.32877 0.26694 0.80142 0.0
H3068 H 0.31125 0.20412 0.77033 0.0
H3069 H 0.2932 0.19981 0.78297 0.0
H3070 H 0.29741 0.2064 0.75289 0.0
H3071 H 0.33318 0.26079 0.83936 0.0
H3072 H 0.32001 0.24135 0.84885 0.0
H3073 H 0.33868 0.24617 0.83809 0.0
H3074 H 0.29629 0.19406 0.86607 0.0
H3075 H 0.3406 0.20477 0.83901 0.0
H3076 H 0.28488 0.20885 0.81658 0.0
H3077 H 0.29259 0.22176 0.84127 0.0
H3078 H 0.28013 0.20139 0.84617 0.0
H3079 H 0.33758 0.22104 0.78415 0.0
H3080 H 0.35037 0.21833 0.80355 0.0
H3081 H 0.34825 0.23512 0.80653 0.0
C3082 C 0.75143 0.07897 0.78506 0.0
C3083 C 0.75391 0.0698 0.76887 0.0
C3084 C 0.76282 0.08828 0.80164 0.0
C3085 C 0.77711 0.08854 0.80201 0.0
C3086 C 0.77987 0.07963 0.78535 0.0
C3087 C 0.76822 0.07032 0.76905 0.0
C3088 C 0.75938 0.09756 0.81919 0.0
C3089 C 0.79495 0.0796 0.78517 0.0
C3090 C 0.80884 0.12128 0.83837 0.0
C3091 C 0.80689 0.11405 0.86018 0.0
C3092 C 0.79973 0.11294 0.81875 0.0
C3093 C 0.78852 0.09708 0.82118 0.0
C3094 C 0.78725 0.08958 0.84284 0.0
C3095 C 0.79648 0.09815 0.86201 0.0
C3096 C 0.80152 0.12128 0.79584 0.0
C3097 C 0.77552 0.0727 0.84624 0.0
H3098 H 0.74056 0.07892 0.78474 0.0
H3099 H 0.77021 0.06318 0.75676 0.0
H3100 H 0.7594 0.09342 0.83731 0.0
H3101 H 0.76851 0.10991 0.81856 0.0
H3102 H 0.74801 0.09667 0.81584 0.0
H3103 H 0.79585 0.07321 0.76975 0.0
H3104 H 0.80484 0.09161 0.78493 0.0
H3105 H 0.79604 0.07413 0.8015 0.0
H3106 H 0.8169 0.13358 0.83697 0.0
H3107 H 0.79513 0.09251 0.87885 0.0
H3108 H 0.79119 0.12245 0.79275 0.0
H3109 H 0.8023 0.11454 0.78085 0.0
H3110 H 0.81194 0.133 0.79592 0.0
H3111 H 0.76369 0.071 0.84515 0.0
H3112 H 0.77688 0.06834 0.86356 0.0
H3113 H 0.77654 0.06559 0.83207 0.0
C3114 C 0.0668 0.33398 0.05228 0.0
C3115 C 0.06893 0.34319 0.03249 0.0
C3116 C 0.07823 0.33069 0.05965 0.0
C3117 C 0.09212 0.33654 0.04673 0.0
C3118 C 0.09418 0.34539 0.02623 0.0
C3119 C 0.08258 0.34868 0.0194 0.0
C3120 C 0.07553 0.3212 0.08165 0.0
C3121 C 0.10876 0.35169 0.01189 0.0
C3122 C 0.12375 0.33951 0.08663 0.0
C3123 C 0.12231 0.32495 0.08322 0.0
C3124 C 0.11503 0.34415 0.07313 0.0
C3125 C 0.10465 0.33397 0.05579 0.0
C3126 C 0.10447 0.32001 0.05052 0.0
C3127 C 0.11333 0.31564 0.06437 0.0
C3128 C 0.1157 0.35918 0.07927 0.0
C3129 C 0.09375 0.30894 0.03194 0.0
H3130 H 0.05614 0.32932 0.06214 0.0
H3131 H 0.08437 0.35586 0.00414 0.0
H3132 H 0.07655 0.31089 0.07758 0.0
H3133 H 0.08447 0.32812 0.09513 0.0
H3134 H 0.06397 0.31727 0.08942 0.0
H3135 H 0.10791 0.35696 0.99515 0.0
H3136 H 0.11866 0.3606 0.0223 0.0
H3137 H 0.11134 0.34237 0.0077 0.0
H3138 H 0.13079 0.34674 0.10115 0.0
H3139 H 0.11215 0.30435 0.06177 0.0
H3140 H 0.10522 0.3567 0.08936 0.0
H3141 H 0.11586 0.36545 0.0631 0.0
H3142 H 0.12603 0.36683 0.0902 0.0
H3143 H 0.08182 0.30258 0.039 0.0
H3144 H 0.09718 0.30037 0.02668 0.0
H3145 H 0.09351 0.31525 0.01604 0.0
C3146 C 0.65727 0.73436 0.01683 0.0
C3147 C 0.65615 0.72433 0.0349 0.0
C3148 C 0.66049 0.74945 0.02199 0.0
C3149 C 0.66303 0.75466 0.0457 0.0
C3150 C 0.66186 0.74451 0.06399 0.0
C3151 C 0.65827 0.72941 0.05836 0.0
C3152 C 0.66127 0.75981 0.00213 0.0
C3153 C 0.66475 0.7497 0.0895 0.0
C3154 C 0.68739 0.79626 0.06516 0.0
C3155 C 0.67615 0.79877 0.0755 0.0
C3156 C 0.68319 0.78231 0.05344 0.0
C3157 C 0.66737 0.77083 0.05175 0.0
C3158 C 0.65593 0.77413 0.05977 0.0
C3159 C 0.66047 0.78802 0.07191 0.0
C3160 C 0.69578 0.77922 0.04543 0.0
C3161 C 0.63893 0.76238 0.05769 0.0
H3162 H 0.65555 0.73035 -0.00132 0.0
H3163 H 0.65757 0.72169 0.07228 0.0
H3164 H 0.65342 0.76441 0.00572 0.0
H3165 H 0.67315 0.76987 0.00089 0.0
H3166 H 0.65807 0.75369 0.98485 0.0
H3167 H 0.66359 0.74043 0.10151 0.0
H3168 H 0.67656 0.75981 0.0916 0.0
H3169 H 0.65646 0.75339 0.09509 0.0
H3170 H 0.69951 0.80451 0.06832 0.0
H3171 H 0.65182 0.78998 0.08013 0.0
H3172 H 0.69302 0.77353 0.02785 0.0
H3173 H 0.69671 0.77126 0.05804 0.0
H3174 H 0.7072 0.78999 0.04457 0.0
H3175 H 0.63621 0.75653 0.04022 0.0
H3176 H 0.63164 0.76776 0.06023 0.0
H3177 H 0.6358 0.7534 0.07135 0.0
C3178 C 0.26985 0.92674 0.04935 0.0
C3179 C 0.27409 0.9324 0.0264 0.0
C3180 C 0.25485 0.91491 0.05439 0.0
C3181 C 0.24374 0.90837 0.03595 0.0
C3182 C 0.24805 0.91363 0.01256 0.0
C3183 C 0.26318 0.92565 0.00806 0.0
C3184 C 0.25082 0.90962 0.07964 0.0
C3185 C 0.23661 0.90693 0.9924 0.0
C3186 C 0.21133 0.87104 0.05897 0.0
C3187 C 0.20248 0.87647 0.07019 0.0
C3188 C 0.22388 0.88087 0.04472 0.0
C3189 C 0.22762 0.89643 0.04191 0.0
C3190 C 0.21727 0.90114 0.05017 0.0
C3191 C 0.2047 0.89102 0.06409 0.0
C3192 C 0.23428 0.87519 0.03539 0.0
C3193 C 0.22063 0.91753 0.04721 0.0
H3194 H 0.27831 0.93165 0.0635 0.0
H3195 H 0.26633 0.93004 0.99029 0.0
H3196 H 0.24132 0.91145 0.08576 0.0
H3197 H 0.24668 0.89708 0.08084 0.0
H3198 H 0.26082 0.91588 0.09185 0.0
H3199 H 0.24248 0.90974 0.97504 0.0
H3200 H 0.22936 0.8942 0.9939 0.0
H3201 H 0.22878 0.91179 0.99289 0.0
H3202 H 0.20963 0.85976 0.06345 0.0
H3203 H 0.19768 0.89514 0.07243 0.0
H3204 H 0.24434 0.87905 0.04745 0.0
H3205 H 0.23876 0.88004 0.01771 0.0
H3206 H 0.22815 0.86238 0.03422 0.0
H3207 H 0.2298 0.92515 0.05995 0.0
H3208 H 0.21024 0.91855 0.05053 0.0
H3209 H 0.22492 0.92178 0.02923 0.0
C3210 C 0.32373 0.0651 0.99165 0.0
C3211 C 0.33885 0.06902 0.99794 0.0
C3212 C 0.32055 0.07626 0.98259 0.0
C3213 C 0.33278 0.09166 0.97988 0.0
C3214 C 0.34768 0.09598 0.98872 0.0
C3215 C 0.35056 0.08457 0.99753 0.0
C3216 C 0.30449 0.07115 0.97343 0.0
C3217 C 0.361 0.1123 0.98654 0.0
C3218 C 0.33269 0.11078 0.92268 0.0
C3219 C 0.32758 0.12096 0.92955 0.0
C3220 C 0.33423 0.10118 0.93891 0.0
C3221 C 0.33098 0.10198 0.96295 0.0
C3222 C 0.32624 0.11254 0.97031 0.0
C3223 C 0.32456 0.12193 0.95344 0.0
C3224 C 0.33939 0.09017 0.93018 0.0
C3225 C 0.32289 0.11382 0.99587 0.0
H3226 H 0.31463 0.05309 0.99195 0.0
H3227 H 0.36221 0.08768 0.00285 0.0
H3228 H 0.30107 0.07988 0.97754 0.0
H3229 H 0.30431 0.06989 0.95395 0.0
H3230 H 0.29578 0.05988 0.98094 0.0
H3231 H 0.37074 0.1145 0.99849 0.0
H3232 H 0.3653 0.11427 0.96815 0.0
H3233 H 0.35727 0.12081 0.99053 0.0
H3234 H 0.33564 0.11036 0.90442 0.0
H3235 H 0.32076 0.12989 0.95886 0.0
H3236 H 0.33069 0.07812 0.9348 0.0
H3237 H 0.35045 0.09287 0.93883 0.0
H3238 H 0.34107 0.09075 0.91077 0.0
H3239 H 0.31295 0.10273 0.00175 0.0
H3240 H 0.32017 0.12318 -0.00108 0.0
H3241 H 0.33295 0.11606 0.00703 0.0
C3242 C 0.93338 0.2685 0.95977 0.0
C3243 C 0.93263 0.27589 0.98038 0.0
C3244 C 0.92154 0.2536 0.95369 0.0
C3245 C 0.90866 0.2457 0.96877 0.0
C3246 C 0.90788 0.25294 0.98979 0.0
C3247 C 0.91981 0.26799 0.99527 0.0
C3248 C 0.92281 0.24634 0.93099 0.0
C3249 C 0.8944 0.24483 0.00636 0.0
C3250 C 0.87505 0.21461 0.93428 0.0
C3251 C 0.8775 0.20209 0.93731 0.0
C3252 C 0.88415 0.22858 0.94642 0.0
C3253 C 0.89598 0.23002 0.96184 0.0
C3254 C 0.89725 0.21684 0.96699 0.0
C3255 C 0.88795 0.20297 0.95461 0.0
C3256 C 0.88225 0.24225 0.94056 0.0
C3257 C 0.90957 0.21782 0.98354 0.0
H3258 H 0.94335 0.27429 0.9484 0.0
H3259 H 0.91899 0.27363 0.0111 0.0
H3260 H 0.92264 0.23538 0.93481 0.0
H3261 H 0.91274 0.24347 0.91938 0.0
H3262 H 0.93354 0.25405 0.9212 0.0
H3263 H 0.89586 0.25176 0.02253 0.0
H3264 H 0.88357 0.24247 0.99728 0.0
H3265 H 0.89297 0.23352 0.01161 0.0
H3266 H 0.86696 0.2139 0.92084 0.0
H3267 H 0.88994 0.19333 0.95681 0.0
H3268 H 0.89156 0.24998 0.92835 0.0
H3269 H 0.88326 0.24905 0.95665 0.0
H3270 H 0.87093 0.23863 0.93192 0.0
H3271 H 0.9209 0.22361 0.97448 0.0
H3272 H 0.90715 0.20619 0.98918 0.0
H3273 H 0.91061 0.2248 -0.00057 0.0
C3274 C 0.73502 0.65478 0.00258 0.0
C3275 C 0.72489 0.65462 0.98515 0.0
C3276 C 0.74997 0.65786 0.99683 0.0
C3277 C 0.75482 0.66067 0.97309 0.0
C3278 C 0.74462 0.6604 0.95541 0.0
C3279 C 0.72987 0.65749 0.96168 0.0
C3280 C 0.76057 0.65818 0.01613 0.0
C3281 C 0.74933 0.66328 0.9298 0.0
C3282 C 0.79553 0.68249 0.9501 0.0
C3283 C 0.79678 0.67042 0.93972 0.0
C3284 C 0.78253 0.67941 0.96347 0.0
C3285 C 0.77051 0.66392 0.96624 0.0
C3286 C 0.77263 0.65169 0.95819 0.0
C3287 C 0.78583 0.65511 0.94509 0.0
C3288 C 0.78089 0.69278 0.97223 0.0
C3289 C 0.76014 0.63501 0.96078 0.0
H3290 H 0.73124 0.6524 0.02073 0.0
H3291 H 0.7223 0.65773 0.94816 0.0
H3292 H 0.76408 0.64948 0.01241 0.0
H3293 H 0.77127 0.66965 0.0167 0.0
H3294 H 0.75506 0.6558 0.03376 0.0
H3295 H 0.7399 0.6623 0.91817 0.0
H3296 H 0.75951 0.67501 0.92779 0.0
H3297 H 0.75273 0.65487 0.9236 0.0
H3298 H 0.80404 0.69434 0.94599 0.0
H3299 H 0.78669 0.64574 0.93692 0.0
H3300 H 0.77562 0.6904 0.98999 0.0
H3301 H 0.77315 0.69451 0.96009 0.0
H3302 H 0.79222 0.70369 0.97298 0.0
H3303 H 0.75485 0.63286 0.97851 0.0
H3304 H 0.76466 0.62701 0.95783 0.0
H3305 H 0.75087 0.63228 0.94759 0.0
C3306 C 0.92888 0.65782 0.95872 0.0
C3307 C 0.93254 0.65729 0.98245 0.0
C3308 C 0.91743 0.66129 0.95233 0.0
C3309 C 0.90944 0.66443 0.97011 0.0
C3310 C 0.91312 0.66405 0.99413 0.0
C3311 C 0.92464 0.66047 4e-05 0.0
C3312 C 0.91392 0.66162 0.92644 0.0
C3313 C 0.90487 0.66738 0.01351 0.0
C3314 C 0.89136 0.68559 0.94197 0.0
C3315 C 0.87709 0.67313 0.93473 0.0
C3316 C 0.90149 0.6832 0.95617 0.0
C3317 C 0.89724 0.66799 0.963 0.0
C3318 C 0.88209 0.65571 0.9582 0.0
C3319 C 0.87214 0.65845 0.94414 0.0
C3320 C 0.9174 0.69668 0.96137 0.0
C3321 C 0.87703 0.63933 0.96526 0.0
H3322 H 0.93515 0.65571 0.94503 0.0
H3323 H 0.92736 0.65998 0.01843 0.0
H3324 H 0.90156 0.65325 0.92274 0.0
H3325 H 0.916 0.67326 0.92166 0.0
H3326 H 0.92109 0.65877 0.91487 0.0
H3327 H 0.90931 0.66691 0.0313 0.0
H3328 H 0.90621 0.67898 0.01103 0.0
H3329 H 0.89231 0.65888 0.01271 0.0
H3330 H 0.89513 0.69698 0.93486 0.0
H3331 H 0.86115 0.64877 0.93851 0.0
H3332 H 0.92576 0.69649 0.94876 0.0
H3333 H 0.92126 0.69592 0.97942 0.0
H3334 H 0.91773 0.7079 0.95954 0.0
H3335 H 0.88211 0.63445 0.95293 0.0
H3336 H 0.86425 0.63186 0.96461 0.0
H3337 H 0.88117 0.63894 0.98327 0.0
C3338 C 0.3408 0.26754 0.00311 0.0
C3339 C 0.34359 0.27839 0.9854 0.0
C3340 C 0.33742 0.25246 0.99738 0.0
C3341 C 0.33682 0.24819 0.97341 0.0
C3342 C 0.33953 0.25908 0.9555 0.0
C3343 C 0.34284 0.274 0.96171 0.0
C3344 C 0.33457 0.24114 0.01691 0.0
C3345 C 0.33892 0.25499 0.92966 0.0
C3346 C 0.3431 0.21676 0.94864 0.0
C3347 C 0.32827 0.20646 0.93989 0.0
C3348 C 0.34586 0.22978 0.96192 0.0
C3349 C 0.33347 0.23244 0.96655 0.0
C3350 C 0.3182 0.22106 0.96023 0.0
C3351 C 0.31578 0.20819 0.94688 0.0
C3352 C 0.3623 0.24156 0.96847 0.0
C3353 C 0.30462 0.2233 0.96517 0.0
H3354 H 0.34146 0.2709 0.02146 0.0
H3355 H 0.34467 0.28222 0.94793 0.0
H3356 H 0.3231 0.2306 0.01445 0.0
H3357 H 0.34336 0.23748 0.01628 0.0
H3358 H 0.335 0.24613 0.03463 0.0
H3359 H 0.34136 0.26482 0.91795 0.0
H3360 H 0.34748 0.25128 0.92597 0.0
H3361 H 0.32732 0.24516 0.92507 0.0
H3362 H 0.3528 0.21552 0.94317 0.0
H3363 H 0.30429 0.20014 0.94025 0.0
H3364 H 0.36293 0.24632 0.9864 0.0
H3365 H 0.36671 0.25132 0.9559 0.0
H3366 H 0.37003 0.23656 0.96779 0.0
H3367 H 0.30551 0.22818 0.98309 0.0
H3368 H 0.29346 0.21228 0.96355 0.0
H3369 H 0.30456 0.2316 0.95232 0.0
C3370 C 0.7365 0.07985 0.00396 0.0
C3371 C 0.72659 0.06968 0.98651 0.0
C3372 C 0.75162 0.09145 0.99841 0.0
C3373 C 0.75698 0.09262 0.97502 0.0
C3374 C 0.74699 0.08229 0.95741 0.0
C3375 C 0.73188 0.07106 0.96335 0.0
C3376 C 0.76183 0.10243 0.0175 0.0
C3377 C 0.75231 0.08296 0.93231 0.0
C3378 C 0.78956 0.12706 0.9451 0.0
C3379 C 0.80054 0.12233 0.94351 0.0
C3380 C 0.77588 0.11835 0.95783 0.0
C3381 C 0.77304 0.10441 0.96856 0.0
C3382 C 0.78483 0.10047 0.96893 0.0
C3383 C 0.79854 0.10959 0.95647 0.0
C3384 C 0.76379 0.12317 0.95752 0.0
C3385 C 0.78227 0.08566 0.97994 0.0
H3386 H 0.73235 0.07881 0.02187 0.0
H3387 H 0.72429 0.06306 0.94994 0.0
H3388 H 0.77228 0.10138 0.01991 0.0
H3389 H 0.76582 0.11453 0.01222 0.0
H3390 H 0.75579 0.10023 0.03466 0.0
H3391 H 0.7432 0.07387 0.9209 0.0
H3392 H 0.75572 0.0944 0.9246 0.0
H3393 H 0.76263 0.08155 0.932 0.0
H3394 H 0.79109 0.13684 0.93479 0.0
H3395 H 0.80695 0.10582 0.95483 0.0
H3396 H 0.75803 0.1211 0.97487 0.0
H3397 H 0.7548 0.11618 0.94416 0.0
H3398 H 0.76885 0.13556 0.95295 0.0
H3399 H 0.77646 0.08371 0.99722 0.0
H3400 H 0.7933 0.08566 0.98245 0.0
H3401 H 0.77462 0.07579 0.96824 0.0
C3402 C 0.65864 0.92199 0.01412 0.0
C3403 C 0.66081 0.93314 0.03118 0.0
C3404 C 0.66245 0.9105 0.01899 0.0
C3405 C 0.66857 0.91021 0.04141 0.0
C3406 C 0.67099 0.92159 0.05853 0.0
C3407 C 0.66711 0.93288 0.05319 0.0
C3408 C 0.65969 0.89856 0.00036 0.0
C3409 C 0.6776 0.92178 0.08266 0.0
C3410 C 0.66593 0.87593 0.07289 0.0
C3411 C 0.68145 0.87975 0.07294 0.0
C3412 C 0.66109 0.8848 0.06025 0.0
C3413 C 0.67215 0.8979 0.04771 0.0
C3414 C 0.68746 0.90069 0.04556 0.0
C3415 C 0.69194 0.89153 0.05825 0.0
C3416 C 0.64461 0.88125 0.06276 0.0
C3417 C 0.69958 0.91445 0.03226 0.0
H3418 H 0.6537 0.92208 0.99711 0.0
H3419 H 0.66913 0.94165 0.06627 0.0
H3420 H 0.67043 0.89815 0.99727 0.0
H3421 H 0.65081 0.88695 0.00652 0.0
H3422 H 0.65574 0.90093 0.98336 0.0
H3423 H 0.67903 0.9316 0.09376 0.0
H3424 H 0.66989 0.91086 0.09199 0.0
H3425 H 0.68903 0.92258 0.0809 0.0
H3426 H 0.65788 0.86688 0.08446 0.0
H3427 H 0.704 0.89458 0.05858 0.0
H3428 H 0.64006 0.88283 0.04577 0.0
H3429 H 0.6442 0.88935 0.0758 0.0
H3430 H 0.63691 0.86926 0.06897 0.0
H3431 H 0.69479 0.91611 0.01556 0.0
H3432 H 0.70978 0.91324 0.02817 0.0
H3433 H 0.70354 0.92503 0.04318 0.0
C3434 C 0.07503 0.73649 0.01247 0.0
C3435 C 0.06821 0.72593 0.03096 0.0
C3436 C 0.08674 0.75181 0.01696 0.0
C3437 C 0.09162 0.75664 0.04048 0.0
C3438 C 0.0847 0.74601 0.05918 0.0
C3439 C 0.07313 0.73081 0.05417 0.0
C3440 C 0.0939 0.76278 0.99662 0.0
C3441 C 0.08945 0.75071 0.08459 0.0
C3442 C 0.12957 0.78906 0.06289 0.0
C3443 C 0.12471 0.7988 0.0727 0.0
C3444 C 0.11931 0.77601 0.04957 0.0
C3445 C 0.10391 0.77273 0.0461 0.0
C3446 C 0.09972 0.78374 0.05302 0.0
C3447 C 0.11023 0.79673 0.0662 0.0
C3448 C 0.12437 0.76474 0.04206 0.0
C3449 C 0.08352 0.78085 0.04937 0.0
H3450 H 0.07132 0.73272 0.99448 0.0
H3451 H 0.06771 0.72278 0.06853 0.0
H3452 H 0.09253 0.77304 -0.00088 0.0
H3453 H 0.10648 0.76701 0.99602 0.0
H3454 H 0.08865 0.75728 0.9794 0.0
H3455 H 0.08286 0.74107 0.09702 0.0
H3456 H 0.10194 0.7548 0.08691 0.0
H3457 H 0.08761 0.76043 0.08946 0.0
H3458 H 0.14074 0.79059 0.06783 0.0
H3459 H 0.10654 0.80437 0.07354 0.0
H3460 H 0.11943 0.75958 0.02456 0.0
H3461 H 0.12012 0.7552 0.055 0.0
H3462 H 0.13716 0.77035 0.04127 0.0
H3463 H 0.07886 0.77551 0.03187 0.0
H3464 H 0.08306 0.79169 0.05092 0.0
H3465 H 0.07585 0.77271 0.06301 0.0
C3466 C 0.27032 0.34174 0.0605 0.0
C3467 C 0.27565 0.34491 0.03725 0.0
C3468 C 0.2551 0.33766 0.06601 0.0
C3469 C 0.24491 0.33675 0.04781 0.0
C3470 C 0.25017 0.33989 0.02426 0.0
C3471 C 0.26549 0.3439 0.01924 0.0
C3472 C 0.24992 0.33429 0.09138 0.0
C3473 C 0.23966 0.3391 0.00447 0.0
C3474 C 0.20346 0.31301 0.06754 0.0
C3475 C 0.20133 0.32447 0.07812 0.0
C3476 C 0.21717 0.31692 0.0555 0.0
C3477 C 0.22885 0.33266 0.05391 0.0
C3478 C 0.22591 0.34431 0.06223 0.0
C3479 C 0.2122 0.34006 0.07449 0.0
C3480 C 0.21984 0.30413 0.04697 0.0
C3481 C 0.23791 0.36122 0.06051 0.0
H3482 H 0.27802 0.34222 0.07442 0.0
H3483 H 0.26959 0.34645 0.00124 0.0
H3484 H 0.24617 0.34242 0.09759 0.0
H3485 H 0.23985 0.32243 0.09281 0.0
H3486 H 0.25922 0.33529 0.10334 0.0
H3487 H 0.24546 0.34167 0.98706 0.0
H3488 H 0.22921 0.32745 0.00366 0.0
H3489 H 0.23568 0.34749 0.00783 0.0
H3490 H 0.19512 0.30096 0.07071 0.0
H3491 H 0.21056 0.34888 0.08291 0.0
H3492 H 0.22758 0.30278 0.05961 0.0
H3493 H 0.22559 0.30695 0.02956 0.0
H3494 H 0.20886 0.29291 0.04556 0.0
H3495 H 0.24707 0.36409 0.07396 0.0
H3496 H 0.23284 0.36873 0.06363 0.0
H3497 H 0.24348 0.36389 0.04295 0.0
C3498 C 0.74897 0.68529 0.35357 0.0
C3499 C 0.73603 0.68058 0.36809 0.0
C3500 C 0.76102 0.6826 0.36003 0.0
C3501 C 0.76011 0.67509 0.38155 0.0
C3502 C 0.74704 0.67022 0.39618 0.0
C3503 C 0.73517 0.67297 0.38923 0.0
C3504 C 0.77476 0.68794 0.34401 0.0
C3505 C 0.7456 0.66215 0.4193 0.0
C3506 C 0.78155 0.65419 0.39781 0.0
C3507 C 0.79182 0.66425 0.41498 0.0
C3508 C 0.77203 0.65818 0.38494 0.0
C3509 C 0.77288 0.67254 0.38943 0.0
C3510 C 0.78447 0.68339 0.40481 0.0
C3511 C 0.79383 0.67911 0.41739 0.0
C3512 C 0.75998 0.64636 0.36845 0.0
C3513 C 0.78589 0.69887 0.40999 0.0
H3514 H 0.7498 0.69129 0.3373 0.0
H3515 H 0.72509 0.66901 0.40032 0.0
H3516 H 0.78538 0.69675 0.35322 0.0
H3517 H 0.77652 0.67811 0.33954 0.0
H3518 H 0.77339 0.69299 0.32739 0.0
H3519 H 0.73464 0.65901 0.42853 0.0
H3520 H 0.74612 0.65146 0.41619 0.0
H3521 H 0.75541 0.66973 0.43113 0.0
H3522 H 0.7799 0.64266 0.39602 0.0
H3523 H 0.80184 0.68692 0.43061 0.0
H3524 H 0.75896 0.65191 0.35217 0.0
H3525 H 0.74856 0.6408 0.37725 0.0
H3526 H 0.76267 0.63721 0.36349 0.0
H3527 H 0.78499 0.70434 0.39355 0.0
H3528 H 0.79699 0.70689 0.41897 0.0
H3529 H 0.77628 0.69719 0.42165 0.0
C3530 C 0.31829 0.06358 0.38764 0.0
C3531 C 0.32508 0.06032 0.3685 0.0
C3532 C 0.32292 0.07884 0.39412 0.0
C3533 C 0.33439 0.09121 0.38084 0.0
C3534 C 0.34056 0.08803 0.36058 0.0
C3535 C 0.33596 0.07263 0.35478 0.0
C3536 C 0.31611 0.08171 0.41599 0.0
C3537 C 0.35259 0.10089 0.34572 0.0
C3538 C 0.3385 0.12976 0.39864 0.0
C3539 C 0.34997 0.13451 0.41606 0.0
C3540 C 0.33409 0.11623 0.38538 0.0
C3541 C 0.34118 0.10728 0.39011 0.0
C3542 C 0.35362 0.1128 0.40641 0.0
C3543 C 0.35791 0.12641 0.41905 0.0
C3544 C 0.32109 0.11092 0.36765 0.0
C3545 C 0.36147 0.10364 0.41217 0.0
H3546 H 0.30957 0.05417 0.39796 0.0
H3547 H 0.34138 0.07033 0.34003 0.0
H3548 H 0.32529 0.08757 0.4296 0.0
H3549 H 0.31148 0.08947 0.41193 0.0
H3550 H 0.30668 0.07085 0.42356 0.0
H3551 H 0.35416 0.09657 0.32847 0.0
H3552 H 0.34938 0.10987 0.34251 0.0
H3553 H 0.36385 0.10652 0.35523 0.0
H3554 H 0.33233 0.13603 0.39646 0.0
H3555 H 0.36678 0.13016 0.43262 0.0
H3556 H 0.31033 0.10143 0.37531 0.0
H3557 H 0.32366 0.10635 0.35149 0.0
H3558 H 0.31895 0.12043 0.36268 0.0
H3559 H 0.35324 0.09292 0.42153 0.0
H3560 H 0.37186 0.11025 0.42354 0.0
H3561 H 0.36498 0.10015 0.3958 0.0
C3562 C 0.93374 0.25957 0.34385 0.0
C3563 C 0.94432 0.26722 0.36228 0.0
C3564 C 0.91878 0.24729 0.34848 0.0
C3565 C 0.91426 0.24285 0.37209 0.0
C3566 C 0.92493 0.25064 0.39074 0.0
C3567 C 0.93986 0.26262 0.38556 0.0
C3568 C 0.90784 0.23908 0.32817 0.0
C3569 C 0.92052 0.24646 0.41625 0.0
C3570 C 0.874 0.22351 0.3967 0.0
C3571 C 0.87258 0.20956 0.40445 0.0
C3572 C 0.88687 0.23401 0.38364 0.0
C3573 C 0.89838 0.23026 0.37788 0.0
C3574 C 0.89573 0.21522 0.38246 0.0
C3575 C 0.88283 0.20501 0.39579 0.0
C3576 C 0.88912 0.24985 0.37896 0.0
C3577 C 0.90748 0.21058 0.37603 0.0
H3578 H 0.93724 0.2631 0.32582 0.0
H3579 H 0.94798 0.26866 0.39981 0.0
H3580 H 0.90372 0.22652 0.32884 0.0
H3581 H 0.89751 0.24043 0.3296 0.0
H3582 H 0.91332 0.24358 0.3108 0.0
H3583 H 0.93009 0.25383 0.42862 0.0
H3584 H 0.91036 0.24767 0.4206 0.0
H3585 H 0.91718 0.23422 0.41923 0.0
H3586 H 0.86596 0.22697 0.40315 0.0
H3587 H 0.88181 0.19424 0.40166 0.0
H3588 H 0.89432 0.25412 0.36141 0.0
H3589 H 0.89715 0.25808 0.39242 0.0
H3590 H 0.87803 0.24988 0.37993 0.0
H3591 H 0.91256 0.21514 0.3585 0.0
H3592 H 0.90231 0.19782 0.37587 0.0
H3593 H 0.91702 0.2155 0.38922 0.0
C3594 C 0.01736 0.41735 0.33597 0.0
C3595 C 0.01624 0.40733 0.31761 0.0
C3596 C 0.0155 0.43016 0.33161 0.0
C3597 C 0.01284 0.43324 0.30828 0.0
C3598 C 0.01168 0.42318 0.28969 0.0
C3599 C 0.01319 0.41029 0.29464 0.0
C3600 C 0.01652 0.44046 0.3519 0.0
C3601 C 0.00894 0.42609 0.26443 0.0
C3602 C 0.99532 0.45644 0.28609 0.0
C3603 C 0.00835 0.46893 0.27603 0.0
C3604 C 0.99678 0.44552 0.29962 0.0
C3605 C 0.01158 0.44709 0.30267 0.0
C3606 C 0.02488 0.4608 0.29532 0.0
C3607 C 0.0231 0.47168 0.28224 0.0
C3608 C 0.98234 0.43133 0.30789 0.0
C3609 C 0.04088 0.46299 0.29815 0.0
H3610 H 0.0199 0.41533 0.35376 0.0
H3611 H 0.01189 0.40246 0.2804 0.0
H3612 H 0.0269 0.45206 0.34992 0.0
H3613 H 0.0063 0.44205 0.35186 0.0
H3614 H 0.01724 0.43571 0.36923 0.0
H3615 H 0.00871 0.41736 0.25199 0.0
H3616 H 0.99778 0.42589 0.26293 0.0
H3617 H 0.01818 0.4377 0.25885 0.0
H3618 H 0.98391 0.45433 0.28127 0.0
H3619 H 0.03318 0.48129 0.27433 0.0
H3620 H 0.98424 0.42751 0.32529 0.0
H3621 H 0.97915 0.42176 0.29509 0.0
H3622 H 0.97246 0.43345 0.30921 0.0
H3623 H 0.04236 0.45897 0.31564 0.0
H3624 H 0.04999 0.47527 0.29599 0.0
H3625 H 0.04262 0.45602 0.28452 0.0
C3626 C 0.60123 0.6034 0.29861 0.0
C3627 C 0.60101 0.61074 0.31959 0.0
C3628 C 0.5892 0.58855 0.29284 0.0
C3629 C 0.57665 0.58073 0.30852 0.0
C3630 C 0.57653 0.58789 0.33005 0.0
C3631 C 0.58867 0.60289 0.33526 0.0
C3632 C 0.58975 0.58141 0.26957 0.0
C3633 C 0.56347 0.57983 0.34733 0.0
C3634 C 0.54179 0.55158 0.27414 0.0
C3635 C 0.54376 0.53867 0.2751 0.0
C3636 C 0.55152 0.56504 0.28698 0.0
C3637 C 0.56337 0.56549 0.3013 0.0
C3638 C 0.56406 0.55182 0.3047 0.0
C3639 C 0.55424 0.53852 0.29143 0.0
C3640 C 0.55029 0.5793 0.28287 0.0
C3641 C 0.57628 0.5517 0.32025 0.0
H3642 H 0.61064 0.60949 0.28633 0.0
H3643 H 0.58855 0.60848 0.35161 0.0
H3644 H 0.58904 0.57012 0.27258 0.0
H3645 H 0.57968 0.57922 0.25846 0.0
H3646 H 0.60048 0.58891 0.25961 0.0
H3647 H 0.56586 0.58629 0.36426 0.0
H3648 H 0.55267 0.57854 0.3396 0.0
H3649 H 0.56136 0.56804 0.351 0.0
H3650 H 0.53357 0.55163 0.26164 0.0
H3651 H 0.55581 0.52855 0.2922 0.0
H3652 H 0.55971 0.58721 0.27095 0.0
H3653 H 0.55165 0.58561 0.29964 0.0
H3654 H 0.53906 0.57645 0.27462 0.0
H3655 H 0.58743 0.55706 0.3107 0.0
H3656 H 0.57323 0.53975 0.3251 0.0
H3657 H 0.57804 0.55853 0.33661 0.0
C3658 C 0.4 0.99903 0.31345 0.0
C3659 C 0.38944 0.98604 0.32627 0.0
C3660 C 0.41339 1.0 0.30396 0.0
C3661 C 0.41624 0.98761 0.30715 0.0
C3662 C 0.40624 0.97498 0.32145 0.0
C3663 C 0.39296 0.97435 0.33087 0.0
C3664 C 0.42379 0.01372 0.2889 0.0
C3665 C 0.40894 0.96159 0.3254 0.0
C3666 C 0.43481 0.98098 0.25395 0.0
C3667 C 0.45041 0.98829 0.26067 0.0
C3668 C 0.42354 0.98012 0.26935 0.0
C3669 C 0.42796 0.9867 0.29219 0.0
C3670 C 0.4436 0.99336 0.29961 0.0
C3671 C 0.45471 0.99407 0.28366 0.0
C3672 C 0.40702 0.97285 0.26067 0.0
C3673 C 0.44869 1.00037 0.32388 0.0
H3674 H 0.39738 0.00808 0.30959 0.0
H3675 H 0.38505 0.96442 0.34119 0.0
H3676 H 0.43611 0.01815 0.29354 0.0
H3677 H 0.4222 0.01011 0.27008 0.0
H3678 H 0.42124 0.02328 0.29085 0.0
H3679 H 0.40174 0.95404 0.33995 0.0
H3680 H 0.40599 0.95452 0.30904 0.0
H3681 H 0.42128 0.9658 0.3295 0.0
H3682 H 0.43149 0.97633 0.2362 0.0
H3683 H 0.4668 0.99971 0.2888 0.0
H3684 H 0.40354 0.98178 0.2597 0.0
H3685 H 0.39911 0.96389 0.27317 0.0
H3686 H 0.40538 0.96746 0.24295 0.0
H3687 H 0.44839 0.0113 0.32489 0.0
H3688 H 0.46062 0.00295 0.32814 0.0
H3689 H 0.4407 0.99252 0.33747 0.0
C3690 C 0.59574 0.98868 0.29129 0.0
C3691 C 0.59853 0.98573 0.31442 0.0
C3692 C 0.5829 0.99017 0.28575 0.0
C3693 C 0.57277 0.98919 0.30392 0.0
C3694 C 0.57576 0.98681 0.32746 0.0
C3695 C 0.58849 0.98489 0.3324 0.0
C3696 C 0.58009 0.99262 0.26031 0.0
C3697 C 0.56544 0.98609 0.34735 0.0
C3698 C 0.54919 0.00607 0.28056 0.0
C3699 C 0.5365 0.99281 0.27104 0.0
C3700 C 0.56035 0.00495 0.29414 0.0
C3701 C 0.55888 0.99026 0.29762 0.0
C3702 C 0.54519 0.97677 0.29031 0.0
C3703 C 0.53406 0.97822 0.27723 0.0
C3704 C 0.57451 0.01958 0.30239 0.0
C3705 C 0.54318 0.96089 0.29351 0.0
H3706 H 0.60363 0.98985 0.27735 0.0
H3707 H 0.59041 0.98249 0.35032 0.0
H3708 H 0.56847 0.98335 0.25449 0.0
H3709 H 0.58034 0.00378 0.25851 0.0
H3710 H 0.58884 0.99266 0.24824 0.0
H3711 H 0.57047 0.98622 0.36491 0.0
H3712 H 0.56332 0.99596 0.3464 0.0
H3713 H 0.55405 0.97535 0.34575 0.0
H3714 H 0.55103 0.01736 0.27577 0.0
H3715 H 0.5243 0.96797 0.26967 0.0
H3716 H 0.58411 0.02256 0.28991 0.0
H3717 H 0.57832 0.01802 0.32005 0.0
H3718 H 0.57235 0.02945 0.30317 0.0
H3719 H 0.55048 0.95917 0.28053 0.0
H3720 H 0.53098 0.95163 0.29074 0.0
H3721 H 0.54696 0.95964 0.31137 0.0
C3722 C 0.03191 0.61371 0.32558 0.0
C3723 C 0.01916 0.61586 0.32285 0.0
C3724 C 0.03132 0.60011 0.31762 0.0
C3725 C 0.01774 0.58854 0.30634 0.0
C3726 C 0.00443 0.59013 0.30533 0.0
C3727 C 0.00529 0.60376 0.3137 0.0
C3728 C 0.04562 0.59869 0.31957 0.0
C3729 C 0.98972 0.57809 0.29342 0.0
C3730 C 0.02151 0.56827 0.25269 0.0
C3731 C 0.01546 0.5531 0.26067 0.0
C3732 C 0.02289 0.58 0.26773 0.0
C3733 C 0.01832 0.57653 0.29155 0.0
C3734 C 0.01325 0.56146 0.3002 0.0
C3735 C 0.01181 0.54982 0.28454 0.0
C3736 C 0.02841 0.59589 0.25768 0.0
C3737 C 0.00859 0.55742 0.32558 0.0
H3738 H 0.04257 0.62293 0.33308 0.0
H3739 H 0.99541 0.60538 0.31154 0.0
H3740 H 0.04256 0.58678 0.32456 0.0
H3741 H 0.05142 0.60115 0.30221 0.0
H3742 H 0.05397 0.60694 0.33274 0.0
H3743 H 0.97988 0.58002 0.29686 0.0
H3744 H 0.99154 0.57845 0.27408 0.0
H3745 H 0.98657 0.56635 0.29947 0.0
H3746 H 0.02454 0.57081 0.23425 0.0
H3747 H 0.00716 0.53807 0.29067 0.0
H3748 H 0.03826 0.60476 0.26822 0.0
H3749 H 0.01897 0.59867 0.25856 0.0
H3750 H 0.0321 0.59678 0.23903 0.0
H3751 H 0.01687 0.56672 0.33759 0.0
H3752 H 0.00791 0.54637 0.33057 0.0
H3753 H 0.99706 0.55624 0.3283 0.0
C3754 C 0.40233 0.41238 0.33467 0.0
C3755 C 0.39414 0.39991 0.31903 0.0
C3756 C 0.41711 0.42461 0.32897 0.0
C3757 C 0.42375 0.42439 0.30708 0.0
C3758 C 0.41562 0.41171 0.29144 0.0
C3759 C 0.40095 0.39966 0.29761 0.0
C3760 C 0.42548 0.43787 0.34614 0.0
C3761 C 0.42223 0.41104 0.26782 0.0
C3762 C 0.45204 0.45921 0.27257 0.0
C3763 C 0.46519 0.45762 0.27341 0.0
C3764 C 0.43879 0.44935 0.28542 0.0
C3765 C 0.43877 0.43768 0.29951 0.0
C3766 C 0.45263 0.43725 0.30258 0.0
C3767 C 0.46573 0.44726 0.28941 0.0
C3768 C 0.42433 0.45031 0.28174 0.0
C3769 C 0.45316 0.42517 0.31774 0.0
H3770 H 0.39718 0.41256 0.35136 0.0
H3771 H 0.39461 0.39019 0.28529 0.0
H3772 H 0.43732 0.44 0.34958 0.0
H3773 H 0.42666 0.44858 0.3384 0.0
H3774 H 0.41931 0.43571 0.36319 0.0
H3775 H 0.41463 0.40014 0.25804 0.0
H3776 H 0.4239 0.4209 0.2568 0.0
H3777 H 0.43372 0.41206 0.27028 0.0
H3778 H 0.45168 0.46732 0.26029 0.0
H3779 H 0.47587 0.44598 0.29002 0.0
H3780 H 0.4183 0.44901 0.29867 0.0
H3781 H 0.41627 0.44074 0.2699 0.0
H3782 H 0.42688 0.46142 0.27358 0.0
H3783 H 0.44669 0.42349 0.33435 0.0
H3784 H 0.46523 0.4283 0.32215 0.0
H3785 H 0.44762 0.41397 0.3081 0.0
C3786 C 0.31528 0.25456 0.37967 0.0
C3787 C 0.32059 0.2629 0.35865 0.0
C3788 C 0.31975 0.2439 0.38642 0.0
C3789 C 0.32957 0.24125 0.37157 0.0
C3790 C 0.33385 0.24858 0.34938 0.0
C3791 C 0.32944 0.25944 0.34325 0.0
C3792 C 0.31489 0.23634 0.41027 0.0
C3793 C 0.34393 0.24573 0.33276 0.0
C3794 C 0.35655 0.23362 0.40811 0.0
C3795 C 0.34822 0.21749 0.40979 0.0
C3796 C 0.35116 0.24147 0.39421 0.0
C3797 C 0.33724 0.23293 0.38122 0.0
C3798 C 0.3297 0.21655 0.38081 0.0
C3799 C 0.33519 0.20896 0.39544 0.0
C3800 C 0.35955 0.25892 0.39546 0.0
C3801 C 0.31519 0.20706 0.36644 0.0
H3802 H 0.30804 0.2568 0.39133 0.0
H3803 H 0.3336 0.26577 0.32693 0.0
H3804 H 0.30973 0.22365 0.40856 0.0
H3805 H 0.32518 0.24064 0.42197 0.0
H3806 H 0.30637 0.23877 0.41892 0.0
H3807 H 0.34341 0.2495 0.31454 0.0
H3808 H 0.35611 0.25228 0.33896 0.0
H3809 H 0.34043 0.2333 0.33235 0.0
H3810 H 0.36664 0.24015 0.4193 0.0
H3811 H 0.32875 0.19647 0.39682 0.0
H3812 H 0.35232 0.26269 0.40503 0.0
H3813 H 0.36155 0.26389 0.37752 0.0
H3814 H 0.37087 0.26379 0.40473 0.0
H3815 H 0.30514 0.20614 0.3761 0.0
H3816 H 0.31308 0.19518 0.36322 0.0
H3817 H 0.31585 0.21259 0.34923 0.0
C3818 C 0.74717 0.0681 0.3459 0.0
C3819 C 0.7357 0.05862 0.36196 0.0
C3820 C 0.75946 0.08261 0.35291 0.0
C3821 C 0.76037 0.08757 0.37658 0.0
C3822 C 0.74874 0.07807 0.39277 0.0
C3823 C 0.73653 0.06376 0.38522 0.0
C3824 C 0.77151 0.09257 0.33511 0.0
C3825 C 0.74934 0.08284 0.41826 0.0
C3826 C 0.79733 0.11522 0.40856 0.0
C3827 C 0.79505 0.12777 0.41236 0.0
C3828 C 0.7867 0.10241 0.39518 0.0
C3829 C 0.77369 0.10238 0.38508 0.0
C3830 C 0.77229 0.11576 0.38684 0.0
C3831 C 0.78288 0.12824 0.40084 0.0
C3832 C 0.7885 0.08831 0.39411 0.0
C3833 C 0.75884 0.11635 0.37579 0.0
H3834 H 0.74648 0.0642 0.32784 0.0
H3835 H 0.72781 0.05637 0.39776 0.0
H3836 H 0.7727 0.10421 0.33462 0.0
H3837 H 0.78292 0.09415 0.34039 0.0
H3838 H 0.76864 0.08745 0.31709 0.0
H3839 H 0.73936 0.0741 0.42854 0.0
H3840 H 0.76015 0.08463 0.42672 0.0
H3841 H 0.74944 0.09397 0.41931 0.0
H3842 H 0.80663 0.1148 0.41783 0.0
H3843 H 0.78111 0.13795 0.404 0.0
H3844 H 0.78632 0.08343 0.37599 0.0
H3845 H 0.77987 0.07928 0.40584 0.0
H3846 H 0.80022 0.09092 0.39986 0.0
H3847 H 0.75632 0.11115 0.35785 0.0
H3848 H 0.76107 0.12838 0.37464 0.0
H3849 H 0.74837 0.10957 0.38664 0.0
C3850 C 0.93367 0.68023 0.35515 0.0
C3851 C 0.94325 0.67878 0.37185 0.0
C3852 C 0.91872 0.67704 0.36114 0.0
C3853 C 0.91321 0.67207 0.38424 0.0
C3854 C 0.9228 0.6704 0.40104 0.0
C3855 C 0.93772 0.67387 0.39468 0.0
C3856 C 0.90892 0.67917 0.3429 0.0
C3857 C 0.91729 0.66492 0.4258 0.0
C3858 C 0.88208 0.67606 0.41543 0.0
C3859 C 0.87001 0.66069 0.41555 0.0
C3860 C 0.8958 0.68028 0.40322 0.0
C3861 C 0.89753 0.66876 0.39133 0.0
C3862 C 0.88482 0.65349 0.38969 0.0
C3863 C 0.87112 0.64965 0.40175 0.0
C3864 C 0.90893 0.69675 0.405 0.0
C3865 C 0.88619 0.64083 0.37735 0.0
H3866 H 0.93798 0.68412 0.33752 0.0
H3867 H 0.94504 0.67254 0.40751 0.0
H3868 H 0.89782 0.66822 0.34033 0.0
H3869 H 0.90607 0.68797 0.34915 0.0
H3870 H 0.91481 0.68287 0.32561 0.0
H3871 H 0.92601 0.6638 0.4365 0.0
H3872 H 0.91463 0.67316 0.43488 0.0
H3873 H 0.90648 0.65354 0.42522 0.0
H3874 H 0.8812 0.68454 0.42628 0.0
H3875 H 0.86184 0.63772 0.40217 0.0
H3876 H 0.91474 0.70078 0.38774 0.0
H3877 H 0.91767 0.69741 0.41781 0.0
H3878 H 0.90492 0.70473 0.41105 0.0
H3879 H 0.89211 0.64487 0.36018 0.0
H3880 H 0.87472 0.63037 0.37429 0.0
H3881 H 0.89327 0.63755 0.38839 0.0
C3882 C 0.42387 0.03007 0.69172 0.0
C3883 C 0.40937 0.02186 0.70264 0.0
C3884 C 0.43625 0.02803 0.69867 0.0
C3885 C 0.4342 0.01785 0.71735 0.0
C3886 C 0.41956 0.00938 0.72817 0.0
C3887 C 0.40732 0.01132 0.72047 0.0
C3888 C 0.45156 0.0369 0.68626 0.0
C3889 C 0.41685 0.99839 0.74821 0.0
C3890 C 0.45794 0.99939 0.73326 0.0
C3891 C 0.46523 0.00759 0.75393 0.0
C3892 C 0.44902 0.00365 0.71939 0.0
C3893 C 0.44731 0.0163 0.72658 0.0
C3894 C 0.45614 0.02566 0.74584 0.0
C3895 C 0.4651 0.02125 0.75917 0.0
C3896 C 0.44003 0.99348 0.69875 0.0
C3897 C 0.45464 0.03919 0.75424 0.0
H3898 H 0.42566 0.03831 0.67802 0.0
H3899 H 0.39609 0.00453 0.72853 0.0
H3900 H 0.46024 0.04578 0.69837 0.0
H3901 H 0.45591 0.02903 0.68121 0.0
H3902 H 0.45072 0.04275 0.67019 0.0
H3903 H 0.41927 0.98923 0.74236 0.0
H3904 H 0.42485 0.0047 0.76307 0.0
H3905 H 0.40481 0.99279 0.75485 0.0
H3906 H 0.45798 0.98881 0.72914 0.0
H3907 H 0.47088 0.02768 0.77505 0.0
H3908 H 0.43782 1.00002 0.68501 0.0
H3909 H 0.42871 0.98408 0.70505 0.0
H3910 H 0.44625 0.98803 0.69067 0.0
H3911 H 0.45483 0.04633 0.7392 0.0
H3912 H 0.464 0.04667 0.76685 0.0
H3913 H 0.44338 0.03481 0.76326 0.0
C3914 C 0.97438 0.39533 0.68946 0.0
C3915 C 0.98007 0.38876 0.70566 0.0
C3916 C 0.97596 0.40992 0.69369 0.0
C3917 C 0.98339 0.41808 0.71461 0.0
C3918 C 0.98914 0.41148 0.73101 0.0
C3919 C 0.98742 0.39694 0.7263 0.0
C3920 C 0.96964 0.41656 0.67592 0.0
C3921 C 0.99719 0.4198 0.75357 0.0
C3922 C 0.00367 0.46074 0.727 0.0
C3923 C 0.99407 0.46112 0.74458 0.0
C3924 C 0.99944 0.44701 0.71456 0.0
C3925 C 0.98529 0.43351 0.7199 0.0
C3926 C 0.97461 0.43457 0.73499 0.0
C3927 C 0.97916 0.44843 0.74722 0.0
C3928 C 0.01107 0.44646 0.69831 0.0
C3929 C 0.95928 0.42057 0.74087 0.0
H3930 H 0.96855 0.38899 0.67356 0.0
H3931 H 0.99208 0.39206 0.73868 0.0
H3932 H 0.9606 0.41832 0.6842 0.0
H3933 H 0.97894 0.42805 0.67002 0.0
H3934 H 0.96457 0.40895 0.66021 0.0
H3935 H 1.001 0.41306 0.7644 0.0
H3936 H 0.00747 0.43112 0.74943 0.0
H3937 H 0.98931 0.42212 0.76434 0.0
H3938 H 0.01524 0.47055 0.72503 0.0
H3939 H 0.97175 0.44877 0.76084 0.0
H3940 H 0.00529 0.43886 0.68286 0.0
H3941 H 0.01738 0.44166 0.70798 0.0
H3942 H 0.01966 0.45816 0.69197 0.0
H3943 H 0.95394 0.41316 0.72509 0.0
H3944 H 0.95108 0.4239 0.74827 0.0
H3945 H 0.96116 0.41358 0.75423 0.0
C3946 C 0.60266 0.58701 0.68504 0.0
C3947 C 0.61197 0.59764 0.70259 0.0
C3948 C 0.58789 0.57462 0.69027 0.0
C3949 C 0.58245 0.57261 0.71369 0.0
C3950 C 0.59179 0.58322 0.73149 0.0
C3951 C 0.6063 0.59568 0.72566 0.0
C3952 C 0.57813 0.5637 0.67079 0.0
C3953 C 0.58648 0.58142 0.75681 0.0
C3954 C 0.5414 0.55113 0.73525 0.0
C3955 C 0.54102 0.53828 0.74567 0.0
C3956 C 0.55425 0.56164 0.72215 0.0
C3957 C 0.56711 0.55939 0.72013 0.0
C3958 C 0.56604 0.54558 0.72856 0.0
C3959 C 0.55289 0.53508 0.74108 0.0
C3960 C 0.55473 0.57598 0.7128 0.0
C3961 C 0.57952 0.54279 0.72706 0.0
H3962 H 0.60696 0.58825 0.66721 0.0
H3963 H 0.61314 0.60398 0.73926 0.0
H3964 H 0.57586 0.55187 0.67455 0.0
H3965 H 0.56675 0.5631 0.66992 0.0
H3966 H 0.58375 0.56726 0.6533 0.0
H3967 H 0.59537 0.59036 0.76865 0.0
H3968 H 0.57582 0.58221 0.75791 0.0
H3969 H 0.58363 0.56987 0.76343 0.0
H3970 H 0.53223 0.55361 0.73898 0.0
H3971 H 0.55266 0.52525 0.74948 0.0
H3972 H 0.56033 0.57908 0.69527 0.0
H3973 H 0.56164 0.58581 0.72499 0.0
H3974 H 0.54296 0.57446 0.71128 0.0
H3975 H 0.58505 0.54602 0.7095 0.0
H3976 H 0.57596 0.53052 0.73049 0.0
H3977 H 0.58836 0.5501 0.74042 0.0
C3978 C 0.66252 0.73106 0.64181 0.0
C3979 C 0.67373 0.73323 0.65869 0.0
C3980 C 0.66029 0.74328 0.63512 0.0
C3981 C 0.66946 0.75804 0.64565 0.0
C3982 C 0.67997 0.76001 0.66396 0.0
C3983 C 0.68207 0.7476 0.67017 0.0
C3984 C 0.64899 0.74067 0.61543 0.0
C3985 C 0.68966 0.77546 0.67599 0.0
C3986 C 0.67872 0.78979 0.60204 0.0
C3987 C 0.66688 0.79308 0.60627 0.0
C3988 C 0.68024 0.77904 0.61572 0.0
C3989 C 0.66988 0.77169 0.63455 0.0
C3990 C 0.6588 0.77607 0.64028 0.0
C3991 C 0.65721 0.78657 0.62569 0.0
C3992 C 0.69199 0.77451 0.60856 0.0
C3993 C 0.64794 0.76891 0.66072 0.0
H3994 H 0.6561 0.72003 0.63276 0.0
H3995 H 0.69053 0.74925 0.68359 0.0
H3996 H 0.64127 0.74517 0.62051 0.0
H3997 H 0.65542 0.74705 0.59953 0.0
H3998 H 0.64173 0.72824 0.61069 0.0
H3999 H 0.69507 0.77443 0.69253 0.0
H4000 H 0.69901 0.78337 0.66398 0.0
H4001 H 0.68256 0.78084 0.68013 0.0
H4002 H 0.68602 0.79475 0.58674 0.0
H4003 H 0.64797 0.78905 0.62873 0.0
H4004 H 0.68591 0.76241 0.60189 0.0
H4005 H 0.69911 0.77503 0.62395 0.0
H4006 H 0.69981 0.78207 0.59452 0.0
H4007 H 0.6384 0.75731 0.65546 0.0
H4008 H 0.6428 0.77603 0.66624 0.0
H4009 H 0.65399 0.76741 0.67606 0.0
C4010 C 0.26808 0.93925 0.62515 0.0
C4011 C 0.27237 0.94442 0.64842 0.0
C4012 C 0.2566 0.92399 0.62023 0.0
C4013 C 0.24904 0.91368 0.63907 0.0
C4014 C 0.25318 0.91888 0.66264 0.0
C4015 C 0.26491 0.93419 0.66705 0.0
C4016 C 0.25268 0.91886 0.59479 0.0
C4017 C 0.24519 0.9083 0.68313 0.0
C4018 C 0.21153 0.8804 0.61647 0.0
C4019 C 0.21629 0.86991 0.61002 0.0
C4020 C 0.22163 0.89413 0.62851 0.0
C4021 C 0.23689 0.8975 0.63363 0.0
C4022 C 0.24115 0.88617 0.62929 0.0
C4023 C 0.23071 0.87241 0.61759 0.0
C4024 C 0.2165 0.90573 0.63333 0.0
C4025 C 0.25731 0.8893 0.63435 0.0
H4026 H 0.27398 0.94709 0.61075 0.0
H4027 H 0.26816 0.93822 0.68507 0.0
H4028 H 0.25441 0.90891 0.59127 0.0
H4029 H 0.24033 0.91495 0.5912 0.0
H4030 H 0.25985 0.92823 0.58224 0.0
H4031 H 0.24964 0.91419 0.70042 0.0
H4032 H 0.23258 0.90393 0.68215 0.0
H4033 H 0.24679 0.89811 0.68224 0.0
H4034 H 0.20041 0.87848 0.61033 0.0
H4035 H 0.23443 0.86437 0.6122 0.0
H4036 H 0.22137 0.91488 0.61973 0.0
H4037 H 0.22079 0.91138 0.65077 0.0
H4038 H 0.2037 0.90027 0.63281 0.0
H4039 H 0.26527 0.89724 0.62079 0.0
H4040 H 0.25794 0.87852 0.63396 0.0
H4041 H 0.26148 0.89499 0.65177 0.0
C4042 C 0.06174 0.31461 0.66266 0.0
C4043 C 0.05757 0.32598 0.6596 0.0
C4044 C 0.07561 0.31652 0.65346 0.0
C4045 C 0.08558 0.33015 0.64101 0.0
C4046 C 0.082 0.34215 0.63942 0.0
C4047 C 0.06802 0.33989 0.64862 0.0
C4048 C 0.07903 0.30349 0.65561 0.0
C4049 C 0.09235 0.3569 0.62637 0.0
C4050 C 0.1254 0.3393 0.61961 0.0
C4051 C 0.1221 0.33465 0.59597 0.0
C4052 C 0.11354 0.33748 0.63493 0.0
C4053 C 0.09817 0.33083 0.62625 0.0
C4054 C 0.09479 0.32551 0.60263 0.0
C4055 C 0.10677 0.32745 0.58786 0.0
C4056 C 0.11754 0.34323 0.66004 0.0
C4057 C 0.07858 0.31827 0.59261 0.0
H4058 H 0.05391 0.30397 0.6716 0.0
H4059 H 0.06491 0.34872 0.64597 0.0
H4060 H 0.07708 0.29758 0.63827 0.0
H4061 H 0.0913 0.30798 0.66062 0.0
H4062 H 0.07152 0.29481 0.66881 0.0
H4063 H 0.08914 0.3659 0.62961 0.0
H4064 H 0.10461 0.36158 0.63166 0.0
H4065 H 0.09147 0.35446 0.60715 0.0
H4066 H 0.13727 0.34484 0.62583 0.0
H4067 H 0.10422 0.32364 0.56962 0.0
H4068 H 0.10948 0.33431 0.67246 0.0
H4069 H 0.11627 0.35355 0.6624 0.0
H4070 H 0.12957 0.34641 0.66482 0.0
H4071 H 0.07046 0.30839 0.60362 0.0
H4072 H 0.07782 0.3141 0.5742 0.0
H4073 H 0.07463 0.32685 0.59281 0.0
C4074 C 0.26254 0.33276 0.66458 0.0
C4075 C 0.26868 0.32725 0.64736 0.0
C4076 C 0.25123 0.33664 0.6587 0.0
C4077 C 0.246 0.33499 0.63507 0.0
C4078 C 0.25228 0.32957 0.61761 0.0
C4079 C 0.26351 0.32577 0.62398 0.0
C4080 C 0.2448 0.34236 0.67775 0.0
C4081 C 0.24712 0.32776 0.59212 0.0
C4082 C 0.20759 0.32875 0.61351 0.0
C4083 C 0.21227 0.34264 0.60155 0.0
C4084 C 0.21822 0.3266 0.62682 0.0
C4085 C 0.23382 0.33864 0.62817 0.0
C4086 C 0.23809 0.3533 0.61865 0.0
C4087 C 0.22723 0.35513 0.60543 0.0
C4088 C 0.21313 0.31084 0.63694 0.0
C4089 C 0.25454 0.36653 0.62001 0.0
H4090 H 0.26643 0.33383 0.68272 0.0
H4091 H 0.26842 0.3218 0.61053 0.0
H4092 H 0.2463 0.35376 0.67285 0.0
H4093 H 0.2322 0.33428 0.67956 0.0
H4094 H 0.25046 0.34349 0.69512 0.0
H4095 H 0.25323 0.32349 0.58073 0.0
H4096 H 0.23451 0.31952 0.59075 0.0
H4097 H 0.24924 0.33901 0.58517 0.0
H4098 H 0.19607 0.31902 0.61053 0.0
H4099 H 0.23082 0.36594 0.5964 0.0
H4100 H 0.21837 0.31182 0.65459 0.0
H4101 H 0.21705 0.30458 0.62523 0.0
H4102 H 0.20035 0.30383 0.63845 0.0
H4103 H 0.25967 0.36719 0.63766 0.0
H4104 H 0.25528 0.37777 0.61622 0.0
H4105 H 0.26161 0.36464 0.60683 0.0
C4106 C 0.67291 0.93179 0.67048 0.0
C4107 C 0.67575 0.94199 0.65171 0.0
C4108 C 0.66936 0.91647 0.66633 0.0
C4109 C 0.66871 0.91128 0.64288 0.0
C4110 C 0.67135 0.92146 0.62387 0.0
C4111 C 0.67477 0.93662 0.62853 0.0
C4112 C 0.66653 0.90594 0.687 0.0
C4113 C 0.67066 0.91638 0.59851 0.0
C4114 C 0.67581 0.87992 0.62067 0.0
C4115 C 0.66117 0.86952 0.61137 0.0
C4116 C 0.6782 0.89289 0.63375 0.0
C4117 C 0.66562 0.89537 0.63764 0.0
C4118 C 0.65046 0.88365 0.63142 0.0
C4119 C 0.64841 0.8708 0.61834 0.0
C4120 C 0.69452 0.90495 0.6404 0.0
C4121 C 0.63666 0.88562 0.63571 0.0
H4122 H 0.67374 0.93588 0.68846 0.0
H4123 H 0.6766 0.94429 0.61391 0.0
H4124 H 0.65553 0.89487 0.6845 0.0
H4125 H 0.67593 0.90312 0.68817 0.0
H4126 H 0.66605 0.91127 0.70396 0.0
H4127 H 0.67293 0.9257 0.58581 0.0
H4128 H 0.67933 0.9127 0.59563 0.0
H4129 H 0.65911 0.9063 0.59451 0.0
H4130 H 0.68573 0.879 0.61535 0.0
H4131 H 0.63705 0.86267 0.61134 0.0
H4132 H 0.6949 0.91012 0.6579 0.0
H4133 H 0.69899 0.91437 0.62723 0.0
H4134 H 0.70233 0.90004 0.64075 0.0
H4135 H 0.63755 0.89115 0.65308 0.0
H4136 H 0.62567 0.87437 0.63492 0.0
H4137 H 0.6362 0.89323 0.62192 0.0
C4138 C 0.06889 0.73863 0.62693 0.0
C4139 C 0.06213 0.73746 0.64898 0.0
C4140 C 0.08405 0.75035 0.62236 0.0
C4141 C 0.09272 0.76123 0.64032 0.0
C4142 C 0.08605 0.76007 0.66271 0.0
C4143 C 0.07081 0.74817 0.6668 0.0
C4144 C 0.09074 0.75111 0.59821 0.0
C4145 C 0.09493 0.77148 0.6822 0.0
C4146 C 0.1349 0.78062 0.62454 0.0
C4147 C 0.13614 0.79263 0.61044 0.0
C4148 C 0.12122 0.77112 0.63687 0.0
C4149 C 0.10866 0.77387 0.635 0.0
C4150 C 0.11073 0.78728 0.62339 0.0
C4151 C 0.12447 0.79648 0.61109 0.0
C4152 C 0.11957 0.75705 0.64923 0.0
C4153 C 0.09775 0.7908 0.62126 0.0
H4154 H 0.06237 0.73023 0.61324 0.0
H4155 H 0.0656 0.74739 0.68384 0.0
H4156 H 0.09392 0.7623 0.5898 0.0
H4157 H 0.10145 0.75042 0.59982 0.0
H4158 H 0.08253 0.74163 0.58636 0.0
H4159 H 0.08836 0.76854 0.69895 0.0
H4160 H 0.10609 0.7719 0.68544 0.0
H4161 H 0.09767 0.78323 0.67684 0.0
H4162 H 0.14387 0.77755 0.62378 0.0
H4163 H 0.12543 0.80573 0.59999 0.0
H4164 H 0.11315 0.74679 0.63758 0.0
H4165 H 0.11291 0.75482 0.66577 0.0
H4166 H 0.131 0.75829 0.65344 0.0
H4167 H 0.08945 0.78319 0.60752 0.0
H4168 H 0.10209 0.803 0.61616 0.0
H4169 H 0.09137 0.78851 0.63808 0.0
C4170 C 0.9733 0.58466 0.70844 0.0
C4171 C 0.9852 0.59757 0.69702 0.0
C4172 C 0.97576 0.57308 0.71772 0.0
C4173 C 0.99035 0.57418 0.71499 0.0
C4174 C 0.00189 0.58634 0.70154 0.0
C4175 C 0.99928 0.598 0.69303 0.0
C4176 C 0.96318 0.5604 0.73218 0.0
C4177 C 0.01748 0.58773 0.6977 0.0
C4178 C 0.0051 0.56132 0.76655 0.0
C4179 C 0.00186 0.54648 0.75958 0.0
C4180 C 1.00123 0.57024 0.75227 0.0
C4181 C 0.9945 0.56454 0.72984 0.0
C4182 C 0.99179 0.54989 0.72208 0.0
C4183 C 0.99538 0.54093 0.73717 0.0
C4184 C 0.00426 0.58575 0.76141 0.0
C4185 C 0.98504 0.54367 0.69797 0.0
H4186 H 0.9622 0.58388 0.71097 0.0
H4187 H 0.00865 0.60786 0.68438 0.0
H4188 H 0.96173 0.549 0.72732 0.0
H4189 H 0.9665 0.56246 0.75112 0.0
H4190 H 0.9519 0.55992 0.72995 0.0
H4191 H 0.0239 0.59581 0.68317 0.0
H4192 H 0.02452 0.59213 0.71407 0.0
H4193 H 0.0162 0.57629 0.69359 0.0
H4194 H 0.01072 0.56606 0.78337 0.0
H4195 H 0.99293 0.52955 0.73155 0.0
H4196 H 0.99341 0.58623 0.76113 0.0
H4197 H 0.01265 0.5951 0.74987 0.0
H4198 H 0.00894 0.58815 0.77971 0.0
H4199 H 0.97304 0.54154 0.69696 0.0
H4200 H 0.98485 0.53271 0.69382 0.0
H4201 H 0.99181 0.5523 0.68426 0.0
C4202 C 0.40699 0.39812 0.72004 0.0
C4203 C 0.40254 0.39267 0.69692 0.0
C4204 C 0.4188 0.41329 0.72456 0.0
C4205 C 0.42644 0.4233 0.70543 0.0
C4206 C 0.42197 0.41793 0.682 0.0
C4207 C 0.41001 0.40265 0.67801 0.0
C4208 C 0.42307 0.41859 0.74989 0.0
C4209 C 0.4299 0.42823 0.66122 0.0
C4210 C 0.44622 0.46377 0.72952 0.0
C4211 C 0.46001 0.46492 0.7378 0.0
C4212 C 0.4357 0.45097 0.71601 0.0
C4213 C 0.43922 0.43925 0.71055 0.0
C4214 C 0.45419 0.44173 0.71548 0.0
C4215 C 0.46446 0.4546 0.72909 0.0
C4216 C 0.42 0.44898 0.71067 0.0
C4217 C 0.45859 0.42972 0.70948 0.0
H4218 H 0.40106 0.39054 0.7347 0.0
H4219 H 0.40665 0.39843 0.66009 0.0
H4220 H 0.43537 0.42217 0.75322 0.0
H4221 H 0.42173 0.42879 0.75335 0.0
H4222 H 0.41584 0.40943 0.76267 0.0
H4223 H 0.42433 0.42265 0.64418 0.0
H4224 H 0.42981 0.43924 0.66298 0.0
H4225 H 0.44217 0.43119 0.66079 0.0
H4226 H 0.44287 0.4719 0.73592 0.0
H4227 H 0.47513 0.45544 0.73529 0.0
H4228 H 0.41171 0.44152 0.72431 0.0
H4229 H 0.41557 0.44329 0.69329 0.0
H4230 H 0.42032 0.46025 0.71082 0.0
H4231 H 0.45362 0.42041 0.72283 0.0
H4232 H 0.47133 0.43474 0.70951 0.0
H4233 H 0.45391 0.42439 0.69199 0.0
C4234 C 0.60582 0.02058 0.68868 0.0
C4235 C 0.61484 0.01787 0.70489 0.0
C4236 C 0.59133 0.01852 0.69507 0.0
C4237 C 0.58572 0.01353 0.71812 0.0
C4238 C 0.59473 0.01063 0.73444 0.0
C4239 C 0.60917 0.01287 0.72764 0.0
C4240 C 0.58211 0.02185 0.6773 0.0
C4241 C 0.58912 0.00514 0.75916 0.0
C4242 C 0.55681 0.02027 0.75087 0.0
C4243 C 0.54399 0.0053 0.75119 0.0
C4244 C 0.57009 0.02354 0.7381 0.0
C4245 C 0.57056 0.01147 0.7257 0.0
C4246 C 0.55707 0.99671 0.72411 0.0
C4247 C 0.54388 0.99382 0.73684 0.0
C4248 C 0.5841 0.03951 0.7399 0.0
C4249 C 0.55708 0.98351 0.71111 0.0
H4250 H 0.6102 0.02454 0.67111 0.0
H4251 H 0.61597 0.01051 0.7401 0.0
H4252 H 0.5705 0.01151 0.67478 0.0
H4253 H 0.58033 0.03128 0.68396 0.0
H4254 H 0.58791 0.02527 0.65991 0.0
H4255 H 0.59739 0.00312 0.76952 0.0
H4256 H 0.58731 0.01383 0.76865 0.0
H4257 H 0.57783 0.99423 0.75848 0.0
H4258 H 0.55687 0.02914 0.76204 0.0
H4259 H 0.53401 0.98219 0.7373 0.0
H4260 H 0.58982 0.04331 0.72255 0.0
H4261 H 0.59259 0.0393 0.75235 0.0
H4262 H 0.58107 0.04814 0.74643 0.0
H4263 H 0.56297 0.98737 0.69389 0.0
H4264 H 0.54516 0.97373 0.70803 0.0
H4265 H 0.56352 0.97924 0.72169 0.0
loop_
_geom_bond_atom_site_label_1
_geom_bond_atom_site_label_2
_geom_bond_distance
_geom_bond_site_symmetry_2
_ccdc_geom_bond_type
Li0 N17 1.990 . S
Li0 O60 1.956 . S
Li0 O61 1.970 1_654 S
Li0 O62 1.961 . S
Li1 N25 1.990 . S
Li1 O60 1.970 1_455 S
Li1 O61 1.956 1_554 S
Li1 O63 1.961 . S
Li2 N47 1.990 . S
Li2 O60 1.961 . S
Li2 O62 1.956 . S
Li2 O63 1.970 1_655 S
Li3 N53 1.990 . S
Li3 O61 1.961 . S
Li3 O62 1.970 1_456 S
Li3 O63 1.956 1_556 S
C4 C6 1.348 1_655 S
C4 C7 1.356 . S
C4 O60 1.325 . S
N5 C8 1.314 . S
N5 C9 1.279 . S
C6 C4 1.348 1_455 S
C6 C8 1.353 1_455 S
C6 H64 0.929 . S
C7 C4 1.356 . S
C7 C9 1.358 . S
C7 H65 0.930 . S
C8 N5 1.314 . S
C8 C6 1.353 1_655 S
C8 H66 0.930 1_655 S
C9 N5 1.279 . S
C9 C7 1.358 . S
C9 H67 0.930 . S
C10 C13 1.349 1_455 S
C10 C14 1.356 . S
C10 O61 1.325 . S
C11 N12 1.279 . S
C11 C14 1.358 . S
C11 H68 0.930 . S
N12 C11 1.279 . S
N12 C15 1.314 . S
C13 C10 1.349 1_655 S
C13 C15 1.324 1_655 S
C13 H69 0.961 . S
C14 C10 1.356 . S
C14 C11 1.358 . S
C14 H70 0.930 . S
C15 N12 1.314 . S
C15 C13 1.324 1_455 S
C15 H71 0.930 1_455 S
C16 N17 1.314 1_556 S
C16 C21 1.353 . S
C16 H22 0.930 . S
N17 Li0 1.990 . S
N17 C16 1.314 1_554 S
N17 C19 1.279 . S
C18 C19 1.358 . S
C18 C20 1.356 1_554 S
C18 H72 0.930 . S
C19 N17 1.279 . S
C19 C18 1.358 . S
C19 H23 0.930 . S
C20 C18 1.356 1_556 S
C20 C21 1.348 . S
C21 C16 1.353 . S
C21 C20 1.348 . S
C21 H73 0.929 . S
H22 C16 0.930 . S
H23 C19 0.930 . S
C24 N25 1.314 . S
C24 C26 1.353 . S
C24 H30 0.930 . S
N25 Li1 1.990 . S
N25 C24 1.314 . S
N25 C28 1.279 . S
C26 C24 1.353 . S
C26 C29 1.348 . S
C26 H74 0.929 . S
C27 C28 1.358 . S
C27 C29 1.356 . S
C27 H75 0.930 . S
C28 N25 1.279 . S
C28 C27 1.358 . S
C28 H31 0.930 1_554 S
C29 C26 1.348 . S
C29 C27 1.356 . S
H30 C24 0.930 . S
H31 C28 0.930 1_556 S
C32 C34 1.323 1_554 S
C32 C35 1.378 . S
C32 O62 1.332 . S
N33 C36 1.314 . S
N33 C37 1.279 1_556 S
C34 C32 1.323 1_556 S
C34 C36 1.353 . S
C34 H76 0.929 . S
C35 C32 1.378 . S
C35 C37 1.358 . S
C35 H77 0.930 . S
C36 N33 1.314 . S
C36 C34 1.353 . S
C36 H78 0.930 . S
C37 N33 1.279 1_554 S
C37 C35 1.358 . S
C37 H79 0.930 . S
C38 C39 1.348 . S
C38 C40 1.356 . S
C38 O63 1.325 . S
C39 C38 1.348 . S
C39 C41 1.353 . S
C39 H80 0.929 . S
C40 C38 1.356 . S
C40 C42 1.358 . S
C40 H81 0.928 . S
C41 C39 1.353 . S
C41 N43 1.314 . S
C41 H82 0.930 . S
C42 C40 1.358 . S
C42 N43 1.279 . S
C42 H83 0.930 . S
N43 C41 1.314 . S
N43 C42 1.279 . S
C44 C46 1.353 . S
C44 N47 1.314 . S
C44 H50 0.930 1_655 S
C45 N47 1.279 . S
C45 C48 1.358 . S
C45 H51 0.930 . S
C46 C44 1.353 . S
C46 C49 1.348 . S
C46 H84 0.928 1_655 S
N47 Li2 1.990 . S
N47 C44 1.314 . S
N47 C45 1.279 . S
C48 C45 1.358 . S
C48 C49 1.356 . S
C48 H85 0.930 . S
C49 C46 1.348 . S
C49 C48 1.356 . S
H50 C44 0.930 1_455 S
H51 C45 0.930 . S
C52 N53 1.314 . S
C52 C54 1.353 . S
C52 H58 0.930 1_455 S
N53 Li3 1.990 . S
N53 C52 1.314 . S
N53 C56 1.279 . S
C54 C52 1.353 . S
C54 C57 1.348 . S
C54 H86 0.949 . S
C55 C56 1.358 . S
C55 C57 1.356 . S
C55 H87 0.930 . S
C56 N53 1.279 . S
C56 C55 1.358 . S
C56 H59 0.930 . S
C57 C54 1.348 . S
C57 C55 1.356 . S
H58 C52 0.930 1_655 S
H59 C56 0.930 . S
O60 Li0 1.956 . S
O60 Li1 1.970 1_655 S
O60 Li2 1.961 . S
O60 C4 1.325 . S
O61 Li0 1.970 1_456 S
O61 Li1 1.956 1_556 S
O61 Li3 1.961 . S
O61 C10 1.325 . S
O62 Li0 1.961 . S
O62 Li2 1.956 . S
O62 Li3 1.970 1_654 S
O62 C32 1.332 . S
O63 Li1 1.961 . S
O63 Li2 1.970 1_455 S
O63 Li3 1.956 1_554 S
O63 C38 1.325 . S
H64 C6 0.929 . S
H65 C7 0.930 . S
H66 C8 0.930 1_455 S
H67 C9 0.930 . S
H68 C11 0.930 . S
H69 C13 0.961 . S
H70 C14 0.930 . S
H71 C15 0.930 1_655 S
H72 C18 0.930 . S
H73 C21 0.929 . S
H74 C26 0.929 . S
H75 C27 0.930 . S
H76 C34 0.929 . S
H77 C35 0.930 . S
H78 C36 0.930 . S
H79 C37 0.930 . S
H80 C39 0.929 . S
H81 C40 0.928 . S
H82 C41 0.930 . S
H83 C42 0.930 . S
H84 C46 0.928 1_455 S
H85 C48 0.930 . S
H86 C54 0.949 . S
H87 C55 0.930 . S
Li88 N105 1.990 1_554 S
Li88 O148 1.956 . S
Li88 O149 1.970 1_554 S
Li88 O150 1.961 . S
Li89 N113 1.990 . S
Li89 O148 1.970 . S
Li89 O149 1.956 1_554 S
Li89 O151 1.961 . S
Li90 N135 1.990 . S
Li90 O148 1.961 . S
Li90 O150 1.956 . S
Li90 O151 1.970 . S
Li91 N141 1.990 . S
Li91 O149 1.961 . S
Li91 O150 1.970 1_556 S
Li91 O151 1.956 1_556 S
C92 C94 1.348 . S
C92 C95 1.356 . S
C92 O148 1.325 . S
N93 C96 1.314 . S
N93 C97 1.279 . S
C94 C92 1.348 . S
C94 C96 1.353 . S
C94 H152 0.929 . S
C95 C92 1.356 . S
C95 C97 1.358 . S
C95 H153 0.930 . S
C96 N93 1.314 . S
C96 C94 1.353 . S
C96 H154 0.930 . S
C97 N93 1.279 . S
C97 C95 1.358 . S
C97 H155 0.930 . S
C98 C101 1.348 . S
C98 C102 1.356 . S
C98 O149 1.325 . S
C99 N100 1.279 . S
C99 C102 1.358 . S
C99 H156 0.930 . S
N100 C99 1.279 . S
N100 C103 1.314 . S
C101 C98 1.348 . S
C101 C103 1.353 . S
C101 H157 0.929 . S
C102 C98 1.356 . S
C102 C99 1.358 . S
C102 H158 0.930 . S
C103 N100 1.314 . S
C103 C101 1.353 . S
C103 H159 0.930 . S
C104 N105 1.314 . S
C104 C109 1.353 . S
C104 H110 0.930 . S
N105 Li88 1.990 1_556 S
N105 C104 1.314 . S
N105 C107 1.279 1_556 S
C106 C107 1.358 . S
C106 C108 1.356 1_554 S
C106 H160 0.930 . S
C107 N105 1.279 1_554 S
C107 C106 1.358 . S
C107 H111 0.930 . S
C108 C106 1.356 1_556 S
C108 C109 1.348 . S
C109 C104 1.353 . S
C109 C108 1.348 . S
C109 H161 0.929 . S
H110 C104 0.930 . S
H111 C107 0.930 . S
C112 N113 1.314 . S
C112 C114 1.353 . S
C112 H118 0.930 . S
N113 Li89 1.990 . S
N113 C112 1.314 . S
N113 C116 1.279 . S
C114 C112 1.353 . S
C114 C117 1.348 . S
C114 H162 0.929 . S
C115 C116 1.358 . S
C115 C117 1.356 . S
C115 H163 0.930 . S
C116 N113 1.279 . S
C116 C115 1.358 . S
C116 H119 0.930 1_554 S
C117 C114 1.348 . S
C117 C115 1.356 . S
H118 C112 0.930 . S
H119 C116 0.930 1_556 S
C120 C122 1.348 . S
C120 C123 1.356 1_556 S
C120 O150 1.325 1_556 S
N121 C124 1.314 . S
N121 C125 1.279 1_556 S
C122 C120 1.348 . S
C122 C124 1.353 . S
C122 H164 0.929 . S
C123 C120 1.356 1_554 S
C123 C125 1.358 . S
C123 H165 0.930 . S
C124 N121 1.314 . S
C124 C122 1.353 . S
C124 H166 0.930 . S
C125 N121 1.279 1_554 S
C125 C123 1.358 . S
C125 H167 0.930 . S
C126 C127 1.348 . S
C126 C128 1.356 . S
C126 O151 1.325 . S
C127 C126 1.348 . S
C127 C129 1.353 . S
C127 H168 0.929 . S
C128 C126 1.356 . S
C128 C130 1.358 . S
C128 H169 0.930 . S
C129 C127 1.353 . S
C129 N131 1.314 . S
C129 H170 0.930 . S
C130 C128 1.358 . S
C130 N131 1.279 . S
C130 H171 0.930 . S
N131 C129 1.314 . S
N131 C130 1.279 . S
C132 C134 1.353 . S
C132 N135 1.314 . S
C132 H138 0.930 . S
C133 N135 1.279 . S
C133 C136 1.358 . S
C133 H139 0.930 . S
C134 C132 1.353 . S
C134 C137 1.348 . S
C134 H172 0.929 . S
N135 Li90 1.990 . S
N135 C132 1.314 . S
N135 C133 1.279 . S
C136 C133 1.358 . S
C136 C137 1.356 . S
C136 H173 0.930 . S
C137 C134 1.348 . S
C137 C136 1.356 . S
H138 C132 0.930 . S
H139 C133 0.930 . S
C140 N141 1.314 . S
C140 C142 1.353 . S
C140 H146 0.930 . S
N141 Li91 1.990 . S
N141 C140 1.314 . S
N141 C144 1.279 . S
C142 C140 1.353 . S
C142 C145 1.348 . S
C142 H174 0.929 . S
C143 C144 1.358 . S
C143 C145 1.356 . S
C143 H175 0.930 . S
C144 N141 1.279 . S
C144 C143 1.358 . S
C144 H147 0.930 . S
C145 C142 1.348 . S
C145 C143 1.356 . S
H146 C140 0.930 . S
H147 C144 0.930 . S
O148 Li88 1.956 . S
O148 Li89 1.970 . S
O148 Li90 1.961 . S
O148 C92 1.325 . S
O149 Li88 1.970 1_556 S
O149 Li89 1.956 1_556 S
O149 Li91 1.961 . S
O149 C98 1.325 . S
O150 Li88 1.961 . S
O150 Li90 1.956 . S
O150 Li91 1.970 1_554 S
O150 C120 1.325 1_554 S
O151 Li89 1.961 . S
O151 Li90 1.970 . S
O151 Li91 1.956 1_554 S
O151 C126 1.325 . S
H152 C94 0.929 . S
H153 C95 0.930 . S
H154 C96 0.930 . S
H155 C97 0.930 . S
H156 C99 0.930 . S
H157 C101 0.929 . S
H158 C102 0.930 . S
H159 C103 0.930 . S
H160 C106 0.930 . S
H161 C109 0.929 . S
H162 C114 0.929 . S
H163 C115 0.930 . S
H164 C122 0.929 . S
H165 C123 0.930 . S
H166 C124 0.930 . S
H167 C125 0.930 . S
H168 C127 0.929 . S
H169 C128 0.930 . S
H170 C129 0.930 . S
H171 C130 0.930 . S
H172 C134 0.929 . S
H173 C136 0.930 . S
H174 C142 0.929 . S
H175 C143 0.930 . S
Li176 N193 1.990 . S
Li176 O236 1.956 1_556 S
Li176 O237 1.970 1_566 S
Li176 O238 1.961 . S
Li177 N201 1.990 . S
Li177 O236 1.970 1_545 S
Li177 O237 1.956 . S
Li177 O239 1.961 . S
Li178 N223 1.990 . S
Li178 O236 1.961 . S
Li178 O238 1.956 1_554 S
Li178 O239 1.970 1_565 S
Li179 N229 1.990 . S
Li179 O237 1.961 . S
Li179 O238 1.970 1_544 S
Li179 O239 1.956 . S
C180 C182 1.348 . S
C180 C183 1.356 . S
C180 O236 1.325 . S
N181 C184 1.314 . S
N181 C185 1.279 . S
C182 C180 1.348 . S
C182 C184 1.353 . S
C182 H240 0.929 . S
C183 C180 1.356 . S
C183 C185 1.358 . S
C183 H241 0.930 1_554 S
C184 N181 1.314 . S
C184 C182 1.353 . S
C184 H242 0.930 . S
C185 N181 1.279 . S
C185 C183 1.358 . S
C185 H243 0.930 . S
C186 C189 1.337 1_554 S
C186 C190 1.365 . S
C186 O237 1.328 . S
C187 N188 1.279 1_554 S
C187 C190 1.358 . S
C187 H244 0.930 . S
N188 C187 1.279 1_556 S
N188 C191 1.314 . S
C189 C186 1.337 1_556 S
C189 C191 1.353 . S
C189 H245 0.929 . S
C190 C186 1.365 . S
C190 C187 1.358 . S
C190 H246 0.930 . S
C191 N188 1.314 . S
C191 C189 1.353 . S
C191 H247 0.930 . S
C192 N193 1.314 . S
C192 C197 1.353 . S
C192 H198 0.930 1_565 S
N193 Li176 1.990 . S
N193 C192 1.314 . S
N193 C195 1.279 . S
C194 C195 1.358 . S
C194 C196 1.356 . S
C194 H248 0.930 . S
C195 N193 1.279 . S
C195 C194 1.358 . S
C195 H199 0.930 . S
C196 C194 1.356 . S
C196 C197 1.348 . S
C197 C192 1.353 . S
C197 C196 1.348 . S
C197 H249 0.939 . S
H198 C192 0.930 1_545 S
H199 C195 0.930 . S
C200 N201 1.314 . S
C200 C202 1.353 . S
C200 H206 0.930 1_545 S
N201 Li177 1.990 . S
N201 C200 1.314 . S
N201 C204 1.279 . S
C202 C200 1.353 . S
C202 C205 1.348 . S
C202 H250 0.929 . S
C203 C204 1.358 . S
C203 C205 1.356 . S
C203 H251 0.930 . S
C204 N201 1.279 . S
C204 C203 1.358 . S
C204 H207 0.930 . S
C205 C202 1.348 . S
C205 C203 1.356 . S
H206 C200 0.930 1_565 S
H207 C204 0.930 . S
C208 C210 1.348 1_565 S
C208 C211 1.356 . S
C208 O238 1.325 . S
N209 C212 1.314 . S
N209 C213 1.279 . S
C210 C208 1.348 1_545 S
C210 C212 1.353 1_545 S
C210 H252 0.929 . S
C211 C208 1.356 . S
C211 C213 1.358 . S
C211 H253 0.930 . S
C212 N209 1.314 . S
C212 C210 1.353 1_565 S
C212 H254 0.930 1_565 S
C213 N209 1.279 . S
C213 C211 1.358 . S
C213 H255 0.930 . S
C214 C215 1.348 1_545 S
C214 C216 1.356 . S
C214 O239 1.325 . S
C215 C214 1.348 1_565 S
C215 C217 1.341 1_565 S
C215 H256 0.942 . S
C216 C214 1.356 . S
C216 C218 1.358 . S
C216 H257 0.930 . S
C217 C215 1.341 1_545 S
C217 N219 1.314 . S
C217 H258 0.930 1_545 S
C218 C216 1.358 . S
C218 N219 1.279 . S
C218 H259 0.930 . S
N219 C217 1.314 . S
N219 C218 1.279 . S
C220 C222 1.353 . S
C220 N223 1.314 . S
C220 H226 0.930 . S
C221 N223 1.279 . S
C221 C224 1.358 . S
C221 H227 0.930 1_554 S
C222 C220 1.353 . S
C222 C225 1.348 . S
C222 H260 0.929 . S
N223 Li178 1.990 . S
N223 C220 1.314 . S
N223 C221 1.279 . S
C224 C221 1.358 . S
C224 C225 1.356 . S
C224 H261 0.930 . S
C225 C222 1.348 . S
C225 C224 1.356 . S
H226 C220 0.930 . S
H227 C221 0.930 1_556 S
C228 N229 1.314 1_556 S
C228 C230 1.353 . S
C228 H234 0.930 . S
N229 Li179 1.990 . S
N229 C228 1.314 1_554 S
N229 C232 1.279 . S
C230 C228 1.353 . S
C230 C233 1.348 . S
C230 H262 0.929 . S
C231 C232 1.358 . S
C231 C233 1.356 1_554 S
C231 H263 0.930 . S
C232 N229 1.279 . S
C232 C231 1.358 . S
C232 H235 0.930 . S
C233 C230 1.348 . S
C233 C231 1.356 1_556 S
H234 C228 0.930 . S
H235 C232 0.930 . S
O236 Li176 1.956 1_554 S
O236 Li177 1.970 1_565 S
O236 Li178 1.961 . S
O236 C180 1.325 . S
O237 Li176 1.970 1_544 S
O237 Li177 1.956 . S
O237 Li179 1.961 . S
O237 C186 1.328 . S
O238 Li176 1.961 . S
O238 Li178 1.956 1_556 S
O238 Li179 1.970 1_566 S
O238 C208 1.325 . S
O239 Li177 1.961 . S
O239 Li178 1.970 1_545 S
O239 Li179 1.956 . S
O239 C214 1.325 . S
H240 C182 0.929 . S
H241 C183 0.930 1_556 S
H242 C184 0.930 . S
H243 C185 0.930 . S
H244 C187 0.930 . S
H245 C189 0.929 . S
H246 C190 0.930 . S
H247 C191 0.930 . S
H248 C194 0.930 . S
H249 C197 0.939 . S
H250 C202 0.929 . S
H251 C203 0.930 . S
H252 C210 0.929 . S
H253 C211 0.930 . S
H254 C212 0.930 1_545 S
H255 C213 0.930 . S
H256 C215 0.942 . S
H257 C216 0.930 . S
H258 C217 0.930 1_565 S
H259 C218 0.930 . S
H260 C222 0.929 . S
H261 C224 0.930 . S
H262 C230 0.929 . S
H263 C231 0.930 . S
Li264 N281 1.990 . S
Li264 O324 1.956 . S
Li264 O325 1.970 1_455 S
Li264 O326 1.961 1_554 S
Li265 N289 1.990 . S
Li265 O324 1.970 1_655 S
Li265 O325 1.956 . S
Li265 O327 1.961 . S
Li266 N311 1.990 . S
Li266 O324 1.961 1_556 S
Li266 O326 1.956 . S
Li266 O327 1.970 1_456 S
Li267 N317 1.990 1_554 S
Li267 O325 1.961 . S
Li267 O326 1.970 1_654 S
Li267 O327 1.956 . S
C268 C270 1.348 . S
C268 C271 1.356 . S
C268 O324 1.325 . S
N269 C272 1.314 . S
N269 C273 1.279 . S
C270 C268 1.348 . S
C270 C272 1.353 . S
C270 H328 0.929 . S
C271 C268 1.356 . S
C271 C273 1.358 . S
C271 H329 0.930 1_554 S
C272 N269 1.314 . S
C272 C270 1.353 . S
C272 H330 0.930 . S
C273 N269 1.279 . S
C273 C271 1.358 . S
C273 H331 0.930 1_554 S
C274 C277 1.348 1_655 S
C274 C278 1.356 . S
C274 O325 1.325 . S
C275 N276 1.279 . S
C275 C278 1.358 . S
C275 H332 0.930 . S
N276 C275 1.279 . S
N276 C279 1.250 1_655 S
C277 C274 1.348 1_455 S
C277 C279 1.392 . S
C277 H333 0.929 . S
C278 C274 1.356 . S
C278 C275 1.358 . S
C278 H334 0.930 . S
C279 N276 1.250 1_455 S
C279 C277 1.392 . S
C279 H335 0.963 . S
C280 N281 1.314 . S
C280 C285 1.353 . S
C280 H286 0.930 . S
N281 Li264 1.990 . S
N281 C280 1.314 . S
N281 C283 1.279 . S
C282 C283 1.358 . S
C282 C284 1.356 . S
C282 H336 0.930 . S
C283 N281 1.279 . S
C283 C282 1.358 . S
C283 H287 0.930 . S
C284 C282 1.356 . S
C284 C285 1.348 . S
C285 C280 1.353 . S
C285 C284 1.348 . S
C285 H337 0.929 . S
H286 C280 0.930 . S
H287 C283 0.930 . S
C288 N289 1.314 . S
C288 C290 1.353 . S
C288 H294 0.930 . S
N289 Li265 1.990 . S
N289 C288 1.314 . S
N289 C292 1.279 . S
C290 C288 1.353 . S
C290 C293 1.348 . S
C290 H338 0.929 . S
C291 C292 1.358 . S
C291 C293 1.356 . S
C291 H339 0.930 . S
C292 N289 1.279 . S
C292 C291 1.358 . S
C292 H295 0.930 . S
C293 C290 1.348 . S
C293 C291 1.356 . S
H294 C288 0.930 . S
H295 C292 0.930 . S
C296 C298 1.348 1_455 S
C296 C299 1.356 . S
C296 O326 1.325 . S
N297 C300 1.262 1_455 S
N297 C301 1.279 . S
C298 C296 1.348 1_655 S
C298 C300 1.351 . S
C298 H340 0.929 . S
C299 C296 1.356 . S
C299 C301 1.358 . S
C299 H341 0.930 . S
C300 N297 1.262 1_655 S
C300 C298 1.351 . S
C300 H342 0.994 . S
C301 N297 1.279 . S
C301 C299 1.358 . S
C301 H343 0.930 . S
C302 C303 1.348 . S
C302 C304 1.356 1_556 S
C302 O327 1.325 1_556 S
C303 C302 1.348 . S
C303 C305 1.353 . S
C303 H344 0.929 . S
C304 C302 1.356 1_554 S
C304 C306 1.358 . S
C304 H345 0.930 . S
C305 C303 1.353 . S
C305 N307 1.314 . S
C305 H346 0.930 . S
C306 C304 1.358 . S
C306 N307 1.279 1_554 S
C306 H347 0.930 . S
N307 C305 1.314 . S
N307 C306 1.279 1_556 S
C308 C310 1.353 . S
C308 N311 1.314 . S
C308 H314 0.930 . S
C309 N311 1.279 . S
C309 C312 1.358 . S
C309 H315 0.930 . S
C310 C308 1.353 . S
C310 C313 1.348 . S
C310 H348 0.929 . S
N311 Li266 1.990 . S
N311 C308 1.314 . S
N311 C309 1.279 . S
C312 C309 1.358 . S
C312 C313 1.356 . S
C312 H349 0.930 . S
C313 C310 1.348 . S
C313 C312 1.356 . S
H314 C308 0.930 . S
H315 C309 0.930 . S
C316 N317 1.314 1_554 S
C316 C318 1.353 1_554 S
C316 H322 0.930 . S
N317 Li267 1.990 1_556 S
N317 C316 1.314 1_556 S
N317 C320 1.279 . S
C318 C316 1.353 1_556 S
C318 C321 1.348 . S
C318 H350 0.929 1_556 S
C319 C320 1.358 . S
C319 C321 1.356 . S
C319 H351 0.930 . S
C320 N317 1.279 . S
C320 C319 1.358 . S
C320 H323 0.930 . S
C321 C318 1.348 . S
C321 C319 1.356 . S
H322 C316 0.930 . S
H323 C320 0.930 . S
O324 Li264 1.956 . S
O324 Li265 1.970 1_455 S
O324 Li266 1.961 1_554 S
O324 C268 1.325 . S
O325 Li264 1.970 1_655 S
O325 Li265 1.956 . S
O325 Li267 1.961 . S
O325 C274 1.325 . S
O326 Li264 1.961 1_556 S
O326 Li266 1.956 . S
O326 Li267 1.970 1_456 S
O326 C296 1.325 . S
O327 Li265 1.961 . S
O327 Li266 1.970 1_654 S
O327 Li267 1.956 . S
O327 C302 1.325 1_554 S
H328 C270 0.929 . S
H329 C271 0.930 1_556 S
H330 C272 0.930 . S
H331 C273 0.930 1_556 S
H332 C275 0.930 . S
H333 C277 0.929 . S
H334 C278 0.930 . S
H335 C279 0.963 . S
H336 C282 0.930 . S
H337 C285 0.929 . S
H338 C290 0.929 . S
H339 C291 0.930 . S
H340 C298 0.929 . S
H341 C299 0.930 . S
H342 C300 0.994 . S
H343 C301 0.930 . S
H344 C303 0.929 . S
H345 C304 0.930 . S
H346 C305 0.930 . S
H347 C306 0.930 . S
H348 C310 0.929 . S
H349 C312 0.930 . S
H350 C318 0.929 1_554 S
H351 C319 0.930 . S
Li352 N369 1.990 . S
Li352 O412 1.956 . S
Li352 O413 1.970 . S
Li352 O414 1.961 1_554 S
Li353 N377 1.990 . S
Li353 O412 1.970 . S
Li353 O413 1.956 . S
Li353 O415 1.961 . S
Li354 N399 1.990 . S
Li354 O412 1.961 1_556 S
Li354 O414 1.956 . S
Li354 O415 1.970 1_556 S
Li355 N405 1.990 1_554 S
Li355 O413 1.961 . S
Li355 O414 1.970 1_554 S
Li355 O415 1.956 . S
C356 C358 1.348 . S
C356 C359 1.356 . S
C356 O412 1.325 . S
N357 C360 1.314 . S
N357 C361 1.279 . S
C358 C356 1.348 . S
C358 C360 1.353 . S
C358 H416 0.929 . S
C359 C356 1.356 . S
C359 C361 1.358 . S
C359 H417 0.930 1_554 S
C360 N357 1.314 . S
C360 C358 1.353 . S
C360 H418 0.930 . S
C361 N357 1.279 . S
C361 C359 1.358 . S
C361 H419 0.930 . S
C362 C365 1.348 . S
C362 C366 1.356 . S
C362 O413 1.325 . S
C363 N364 1.279 . S
C363 C366 1.358 . S
C363 H420 0.930 . S
N364 C363 1.279 . S
N364 C367 1.314 . S
C365 C362 1.348 . S
C365 C367 1.353 . S
C365 H421 0.929 . S
C366 C362 1.356 . S
C366 C363 1.358 . S
C366 H422 0.930 . S
C367 N364 1.314 . S
C367 C365 1.353 . S
C367 H423 0.930 . S
C368 N369 1.314 . S
C368 C373 1.353 . S
C368 H374 0.930 . S
N369 Li352 1.990 . S
N369 C368 1.314 . S
N369 C371 1.279 . S
C370 C371 1.358 . S
C370 C372 1.356 . S
C370 H424 0.930 . S
C371 N369 1.279 . S
C371 C370 1.358 . S
C371 H375 0.930 . S
C372 C370 1.356 . S
C372 C373 1.348 . S
C373 C368 1.353 . S
C373 C372 1.348 . S
C373 H425 0.929 . S
H374 C368 0.930 . S
H375 C371 0.930 . S
C376 N377 1.314 . S
C376 C378 1.353 . S
C376 H382 0.930 . S
N377 Li353 1.990 . S
N377 C376 1.314 . S
N377 C380 1.279 . S
C378 C376 1.353 . S
C378 C381 1.348 . S
C378 H426 0.929 . S
C379 C380 1.358 . S
C379 C381 1.356 . S
C379 H427 0.930 . S
C380 N377 1.279 . S
C380 C379 1.358 . S
C380 H383 0.930 . S
C381 C378 1.348 . S
C381 C379 1.356 . S
H382 C376 0.930 . S
H383 C380 0.930 . S
C384 C386 1.348 . S
C384 C387 1.356 . S
C384 O414 1.325 . S
N385 C388 1.314 . S
N385 C389 1.279 . S
C386 C384 1.348 . S
C386 C388 1.353 . S
C386 H428 0.929 . S
C387 C384 1.356 . S
C387 C389 1.358 . S
C387 H429 0.930 . S
C388 N385 1.314 . S
C388 C386 1.353 . S
C388 H430 0.930 . S
C389 N385 1.279 . S
C389 C387 1.358 . S
C389 H431 0.930 . S
C390 C391 1.348 . S
C390 C392 1.356 1_556 S
C390 O415 1.325 1_556 S
C391 C390 1.348 . S
C391 C393 1.353 . S
C391 H432 0.929 . S
C392 C390 1.356 1_554 S
C392 C394 1.358 . S
C392 H433 0.930 . S
C393 C391 1.353 . S
C393 N395 1.314 . S
C393 H434 0.930 . S
C394 C392 1.358 . S
C394 N395 1.279 1_554 S
C394 H435 0.930 . S
N395 C393 1.314 . S
N395 C394 1.279 1_556 S
C396 C398 1.353 . S
C396 N399 1.314 . S
C396 H402 0.930 . S
C397 N399 1.279 . S
C397 C400 1.358 . S
C397 H403 0.930 . S
C398 C396 1.353 . S
C398 C401 1.348 . S
C398 H436 0.929 . S
N399 Li354 1.990 . S
N399 C396 1.314 . S
N399 C397 1.279 . S
C400 C397 1.358 . S
C400 C401 1.356 . S
C400 H437 0.930 . S
C401 C398 1.348 . S
C401 C400 1.356 . S
H402 C396 0.930 . S
H403 C397 0.930 . S
C404 N405 1.304 1_554 S
C404 C406 1.343 1_554 S
C404 H410 0.955 . S
N405 Li355 1.990 1_556 S
N405 C404 1.304 1_556 S
N405 C408 1.279 . S
C406 C404 1.343 1_556 S
C406 C409 1.348 . S
C406 H438 0.916 1_556 S
C407 C408 1.358 . S
C407 C409 1.356 . S
C407 H439 0.930 . S
C408 N405 1.279 . S
C408 C407 1.358 . S
C408 H411 0.930 . S
C409 C406 1.348 . S
C409 C407 1.356 . S
H410 C404 0.955 . S
H411 C408 0.930 . S
O412 Li352 1.956 . S
O412 Li353 1.970 . S
O412 Li354 1.961 1_554 S
O412 C356 1.325 . S
O413 Li352 1.970 . S
O413 Li353 1.956 . S
O413 Li355 1.961 . S
O413 C362 1.325 . S
O414 Li352 1.961 1_556 S
O414 Li354 1.956 . S
O414 Li355 1.970 1_556 S
O414 C384 1.325 . S
O415 Li353 1.961 . S
O415 Li354 1.970 1_554 S
O415 Li355 1.956 . S
O415 C390 1.325 1_554 S
H416 C358 0.929 . S
H417 C359 0.930 1_556 S
H418 C360 0.930 . S
H419 C361 0.930 . S
H420 C363 0.930 . S
H421 C365 0.929 . S
H422 C366 0.930 . S
H423 C367 0.930 . S
H424 C370 0.930 . S
H425 C373 0.929 . S
H426 C378 0.929 . S
H427 C379 0.930 . S
H428 C386 0.929 . S
H429 C387 0.930 . S
H430 C388 0.930 . S
H431 C389 0.930 . S
H432 C391 0.929 . S
H433 C392 0.930 . S
H434 C393 0.930 . S
H435 C394 0.930 . S
H436 C398 0.929 . S
H437 C400 0.930 . S
H438 C406 0.916 1_554 S
H439 C407 0.930 . S
Li440 N457 1.990 . S
Li440 O500 1.956 . S
Li440 O501 1.970 1_565 S
Li440 O502 1.961 1_554 S
Li441 N465 1.990 . S
Li441 O500 1.970 1_545 S
Li441 O501 1.956 . S
Li441 O503 1.961 . S
Li442 N487 1.990 . S
Li442 O500 1.961 1_556 S
Li442 O502 1.956 . S
Li442 O503 1.970 1_566 S
Li443 N493 1.990 1_554 S
Li443 O501 1.961 . S
Li443 O502 1.970 1_544 S
Li443 O503 1.956 . S
C444 C446 1.348 . S
C444 C447 1.356 . S
C444 O500 1.325 . S
N445 C448 1.314 . S
N445 C449 1.279 . S
C446 C444 1.348 . S
C446 C448 1.353 . S
C446 H504 0.929 . S
C447 C444 1.356 . S
C447 C449 1.358 . S
C447 H505 0.930 1_554 S
C448 N445 1.314 . S
C448 C446 1.353 . S
C448 H506 0.930 . S
C449 N445 1.279 . S
C449 C447 1.358 . S
C449 H507 0.930 1_554 S
C450 C453 1.348 1_545 S
C450 C454 1.356 . S
C450 O501 1.325 . S
C451 N452 1.279 . S
C451 C454 1.358 . S
C451 H508 0.930 . S
N452 C451 1.279 . S
N452 C455 1.282 1_545 S
C453 C450 1.348 1_565 S
C453 C455 1.351 . S
C453 H509 0.929 . S
C454 C450 1.356 . S
C454 C451 1.358 . S
C454 H510 0.930 . S
C455 N452 1.282 1_565 S
C455 C453 1.351 . S
C455 H511 0.969 . S
C456 N457 1.314 . S
C456 C461 1.353 . S
C456 H462 0.930 . S
N457 Li440 1.990 . S
N457 C456 1.314 . S
N457 C459 1.279 . S
C458 C459 1.358 . S
C458 C460 1.356 . S
C458 H512 0.930 . S
C459 N457 1.279 . S
C459 C458 1.358 . S
C459 H463 0.930 . S
C460 C458 1.356 . S
C460 C461 1.348 . S
C461 C456 1.353 . S
C461 C460 1.348 . S
C461 H513 0.929 . S
H462 C456 0.930 . S
H463 C459 0.930 . S
C464 N465 1.314 . S
C464 C466 1.353 . S
C464 H470 0.930 . S
N465 Li441 1.990 . S
N465 C464 1.314 . S
N465 C468 1.279 . S
C466 C464 1.353 . S
C466 C469 1.348 . S
C466 H514 0.929 . S
C467 C468 1.358 . S
C467 C469 1.356 . S
C467 H515 0.930 . S
C468 N465 1.279 . S
C468 C467 1.358 . S
C468 H471 0.930 . S
C469 C466 1.348 . S
C469 C467 1.356 . S
H470 C464 0.930 . S
H471 C468 0.930 . S
C472 C474 1.348 1_565 S
C472 C475 1.356 . S
C472 O502 1.325 . S
N473 C476 1.282 1_565 S
N473 C477 1.279 . S
C474 C472 1.348 1_545 S
C474 C476 1.372 . S
C474 H516 0.929 . S
C475 C472 1.356 . S
C475 C477 1.358 . S
C475 H517 0.930 . S
C476 N473 1.282 1_545 S
C476 C474 1.372 . S
C476 H518 0.946 . S
C477 N473 1.279 . S
C477 C475 1.358 . S
C477 H519 0.930 . S
C478 C479 1.345 . S
C478 C480 1.358 1_556 S
C478 O503 1.325 1_556 S
C479 C478 1.345 . S
C479 C481 1.353 . S
C479 H520 0.929 . S
C480 C478 1.358 1_554 S
C480 C482 1.358 . S
C480 H521 0.930 . S
C481 C479 1.353 . S
C481 N483 1.314 . S
C481 H522 0.930 . S
C482 C480 1.358 . S
C482 N483 1.279 1_554 S
C482 H523 0.930 . S
N483 C481 1.314 . S
N483 C482 1.279 1_556 S
C484 C486 1.353 . S
C484 N487 1.314 . S
C484 H490 0.930 . S
C485 N487 1.279 . S
C485 C488 1.358 . S
C485 H491 0.930 . S
C486 C484 1.353 . S
C486 C489 1.348 . S
C486 H524 0.929 . S
N487 Li442 1.990 . S
N487 C484 1.314 . S
N487 C485 1.279 . S
C488 C485 1.358 . S
C488 C489 1.356 . S
C488 H525 0.930 . S
C489 C486 1.348 . S
C489 C488 1.356 . S
H490 C484 0.930 . S
H491 C485 0.930 . S
C492 N493 1.314 1_554 S
C492 C494 1.353 . S
C492 H498 0.930 . S
N493 Li443 1.990 1_556 S
N493 C492 1.314 1_556 S
N493 C496 1.280 . S
C494 C492 1.353 . S
C494 C497 1.348 1_554 S
C494 H526 0.929 . S
C495 C496 1.358 . S
C495 C497 1.356 . S
C495 H527 0.930 . S
C496 N493 1.280 . S
C496 C495 1.358 . S
C496 H499 0.930 . S
C497 C494 1.348 1_556 S
C497 C495 1.356 . S
H498 C492 0.930 . S
H499 C496 0.930 . S
O500 Li440 1.956 . S
O500 Li441 1.970 1_565 S
O500 Li442 1.961 1_554 S
O500 C444 1.325 . S
O501 Li440 1.970 1_545 S
O501 Li441 1.956 . S
O501 Li443 1.961 . S
O501 C450 1.325 . S
O502 Li440 1.961 1_556 S
O502 Li442 1.956 . S
O502 Li443 1.970 1_566 S
O502 C472 1.325 . S
O503 Li441 1.961 . S
O503 Li442 1.970 1_544 S
O503 Li443 1.956 . S
O503 C478 1.325 1_554 S
H504 C446 0.929 . S
H505 C447 0.930 1_556 S
H506 C448 0.930 . S
H507 C449 0.930 1_556 S
H508 C451 0.930 . S
H509 C453 0.929 . S
H510 C454 0.930 . S
H511 C455 0.969 . S
H512 C458 0.930 . S
H513 C461 0.929 . S
H514 C466 0.929 . S
H515 C467 0.930 . S
H516 C474 0.929 . S
H517 C475 0.930 . S
H518 C476 0.946 . S
H519 C477 0.930 . S
H520 C479 0.929 . S
H521 C480 0.930 . S
H522 C481 0.930 . S
H523 C482 0.930 . S
H524 C486 0.929 . S
H525 C488 0.930 . S
H526 C494 0.929 . S
H527 C495 0.930 . S
Li528 N545 1.990 . S
Li528 O588 1.956 . S
Li528 O589 1.970 . S
Li528 O590 1.961 . S
Li529 N553 1.990 . S
Li529 O588 1.970 . S
Li529 O589 1.956 . S
Li529 O591 1.961 . S
Li530 N575 1.990 . S
Li530 O588 1.961 . S
Li530 O590 1.956 . S
Li530 O591 1.970 . S
Li531 N581 1.990 . S
Li531 O589 1.961 . S
Li531 O590 1.970 . S
Li531 O591 1.956 . S
C532 C534 1.348 . S
C532 C535 1.356 . S
C532 O588 1.325 . S
N533 C536 1.314 . S
N533 C537 1.279 . S
C534 C532 1.348 . S
C534 C536 1.353 . S
C534 H592 0.929 . S
C535 C532 1.356 . S
C535 C537 1.358 . S
C535 H593 0.930 . S
C536 N533 1.314 . S
C536 C534 1.353 . S
C536 H594 0.930 . S
C537 N533 1.279 . S
C537 C535 1.358 . S
C537 H595 0.930 . S
C538 C541 1.348 . S
C538 C542 1.356 . S
C538 O589 1.325 . S
C539 N540 1.279 . S
C539 C542 1.358 . S
C539 H596 0.930 . S
N540 C539 1.279 . S
N540 C543 1.314 . S
C541 C538 1.348 . S
C541 C543 1.353 . S
C541 H597 0.929 . S
C542 C538 1.356 . S
C542 C539 1.358 . S
C542 H598 0.930 . S
C543 N540 1.314 . S
C543 C541 1.353 . S
C543 H599 0.930 . S
C544 N545 1.314 . S
C544 C549 1.353 . S
C544 H550 0.930 . S
N545 Li528 1.990 . S
N545 C544 1.314 . S
N545 C547 1.279 . S
C546 C547 1.358 . S
C546 C548 1.356 . S
C546 H600 0.930 . S
C547 N545 1.279 . S
C547 C546 1.358 . S
C547 H551 0.930 . S
C548 C546 1.356 . S
C548 C549 1.348 . S
C549 C544 1.353 . S
C549 C548 1.348 . S
C549 H601 0.929 . S
H550 C544 0.930 . S
H551 C547 0.930 . S
C552 N553 1.314 . S
C552 C554 1.353 . S
C552 H558 0.930 . S
N553 Li529 1.990 . S
N553 C552 1.314 . S
N553 C556 1.279 . S
C554 C552 1.353 . S
C554 C557 1.348 . S
C554 H602 0.929 . S
C555 C556 1.358 . S
C555 C557 1.356 . S
C555 H603 0.930 . S
C556 N553 1.279 . S
C556 C555 1.358 . S
C556 H559 0.930 . S
C557 C554 1.348 . S
C557 C555 1.356 . S
H558 C552 0.930 . S
H559 C556 0.930 . S
C560 C562 1.348 . S
C560 C563 1.356 . S
C560 O590 1.325 . S
N561 C564 1.314 . S
N561 C565 1.279 . S
C562 C560 1.348 . S
C562 C564 1.353 . S
C562 H604 0.929 . S
C563 C560 1.356 . S
C563 C565 1.358 . S
C563 H605 0.930 . S
C564 N561 1.314 . S
C564 C562 1.353 . S
C564 H606 0.930 . S
C565 N561 1.279 . S
C565 C563 1.358 . S
C565 H607 0.930 . S
C566 C567 1.348 . S
C566 C568 1.356 . S
C566 O591 1.325 . S
C567 C566 1.348 . S
C567 C569 1.353 . S
C567 H608 0.929 . S
C568 C566 1.356 . S
C568 C570 1.358 . S
C568 H609 0.930 . S
C569 C567 1.353 . S
C569 N571 1.314 . S
C569 H610 0.930 . S
C570 C568 1.358 . S
C570 N571 1.279 . S
C570 H611 0.930 . S
N571 C569 1.314 . S
N571 C570 1.279 . S
C572 C574 1.353 . S
C572 N575 1.314 . S
C572 H578 0.930 . S
C573 N575 1.279 . S
C573 C576 1.358 . S
C573 H579 0.930 . S
C574 C572 1.353 . S
C574 C577 1.348 . S
C574 H612 0.929 . S
N575 Li530 1.990 . S
N575 C572 1.314 . S
N575 C573 1.279 . S
C576 C573 1.358 . S
C576 C577 1.356 . S
C576 H613 0.930 . S
C577 C574 1.348 . S
C577 C576 1.356 . S
H578 C572 0.930 . S
H579 C573 0.930 . S
C580 N581 1.314 . S
C580 C582 1.353 . S
C580 H586 0.930 . S
N581 Li531 1.990 . S
N581 C580 1.314 . S
N581 C584 1.279 . S
C582 C580 1.353 . S
C582 C585 1.348 . S
C582 H614 0.929 . S
C583 C584 1.358 . S
C583 C585 1.356 . S
C583 H615 0.930 . S
C584 N581 1.279 . S
C584 C583 1.358 . S
C584 H587 0.930 . S
C585 C582 1.348 . S
C585 C583 1.356 . S
H586 C580 0.930 . S
H587 C584 0.930 . S
O588 Li528 1.956 . S
O588 Li529 1.970 . S
O588 Li530 1.961 . S
O588 C532 1.325 . S
O589 Li528 1.970 . S
O589 Li529 1.956 . S
O589 Li531 1.961 . S
O589 C538 1.325 . S
O590 Li528 1.961 . S
O590 Li530 1.956 . S
O590 Li531 1.970 . S
O590 C560 1.325 . S
O591 Li529 1.961 . S
O591 Li530 1.970 . S
O591 Li531 1.956 . S
O591 C566 1.325 . S
H592 C534 0.929 . S
H593 C535 0.930 . S
H594 C536 0.930 . S
H595 C537 0.930 . S
H596 C539 0.930 . S
H597 C541 0.929 . S
H598 C542 0.930 . S
H599 C543 0.930 . S
H600 C546 0.930 . S
H601 C549 0.929 . S
H602 C554 0.929 . S
H603 C555 0.930 . S
H604 C562 0.929 . S
H605 C563 0.930 . S
H606 C564 0.930 . S
H607 C565 0.930 . S
H608 C567 0.929 . S
H609 C568 0.930 . S
H610 C569 0.930 . S
H611 C570 0.930 . S
H612 C574 0.929 . S
H613 C576 0.930 . S
H614 C582 0.929 . S
H615 C583 0.930 . S
Li616 N633 1.990 . S
Li616 O676 1.956 . S
Li616 O677 1.970 . S
Li616 O678 1.961 . S
Li617 N641 1.990 . S
Li617 O676 1.970 . S
Li617 O677 1.956 . S
Li617 O679 1.961 . S
Li618 N663 1.990 1_565 S
Li618 O676 1.961 . S
Li618 O678 1.956 . S
Li618 O679 1.970 . S
Li619 N669 1.990 . S
Li619 O677 1.961 . S
Li619 O678 1.970 . S
Li619 O679 1.956 . S
C620 C622 1.348 . S
C620 C623 1.356 . S
C620 O676 1.325 . S
N621 C624 1.314 . S
N621 C625 1.279 . S
C622 C620 1.348 . S
C622 C624 1.353 . S
C622 H680 0.929 . S
C623 C620 1.356 . S
C623 C625 1.358 . S
C623 H681 0.930 . S
C624 N621 1.314 . S
C624 C622 1.353 . S
C624 H682 0.930 . S
C625 N621 1.279 . S
C625 C623 1.358 . S
C625 H683 0.930 . S
C626 C629 1.348 . S
C626 C630 1.356 . S
C626 O677 1.325 . S
C627 N628 1.279 . S
C627 C630 1.358 . S
C627 H684 0.930 . S
N628 C627 1.279 . S
N628 C631 1.314 . S
C629 C626 1.348 . S
C629 C631 1.353 . S
C629 H685 0.929 . S
C630 C626 1.356 . S
C630 C627 1.358 . S
C630 H686 0.930 . S
C631 N628 1.314 . S
C631 C629 1.353 . S
C631 H687 0.930 . S
C632 N633 1.314 . S
C632 C637 1.353 . S
C632 H638 0.930 . S
N633 Li616 1.990 . S
N633 C632 1.314 . S
N633 C635 1.279 . S
C634 C635 1.358 . S
C634 C636 1.356 . S
C634 H688 0.930 . S
C635 N633 1.279 . S
C635 C634 1.358 . S
C635 H639 0.930 . S
C636 C634 1.356 . S
C636 C637 1.348 . S
C637 C632 1.353 . S
C637 C636 1.348 . S
C637 H689 0.929 . S
H638 C632 0.930 . S
H639 C635 0.930 . S
C640 N641 1.314 . S
C640 C642 1.353 . S
C640 H646 0.930 . S
N641 Li617 1.990 . S
N641 C640 1.314 . S
N641 C644 1.279 . S
C642 C640 1.353 . S
C642 C645 1.348 . S
C642 H690 0.929 . S
C643 C644 1.358 . S
C643 C645 1.356 . S
C643 H691 0.930 . S
C644 N641 1.279 . S
C644 C643 1.358 . S
C644 H647 0.930 . S
C645 C642 1.348 . S
C645 C643 1.356 . S
H646 C640 0.930 . S
H647 C644 0.930 . S
C648 C650 1.348 . S
C648 C651 1.356 . S
C648 O678 1.325 1_545 S
N649 C652 1.314 . S
N649 C653 1.279 . S
C650 C648 1.348 . S
C650 C652 1.353 . S
C650 H692 0.929 . S
C651 C648 1.356 . S
C651 C653 1.358 . S
C651 H693 0.930 . S
C652 N649 1.314 . S
C652 C650 1.353 . S
C652 H694 0.930 . S
C653 N649 1.279 . S
C653 C651 1.358 . S
C653 H695 0.930 . S
C654 C655 1.348 1_565 S
C654 C656 1.356 . S
C654 O679 1.325 . S
C655 C654 1.348 1_545 S
C655 C657 1.353 . S
C655 H696 0.929 . S
C656 C654 1.356 . S
C656 C658 1.358 . S
C656 H697 0.930 . S
C657 C655 1.353 . S
C657 N659 1.314 . S
C657 H698 0.930 . S
C658 C656 1.358 . S
C658 N659 1.279 1_565 S
C658 H699 0.930 . S
N659 C657 1.314 . S
N659 C658 1.279 1_545 S
C660 C662 1.353 . S
C660 N663 1.314 . S
C660 H666 0.930 . S
C661 N663 1.279 . S
C661 C664 1.358 . S
C661 H667 0.930 . S
C662 C660 1.353 . S
C662 C665 1.348 . S
C662 H700 0.929 . S
N663 Li618 1.990 1_545 S
N663 C660 1.314 . S
N663 C661 1.279 . S
C664 C661 1.358 . S
C664 C665 1.356 . S
C664 H701 0.930 . S
C665 C662 1.348 . S
C665 C664 1.356 . S
H666 C660 0.930 . S
H667 C661 0.930 . S
C668 N669 1.314 . S
C668 C670 1.353 . S
C668 H674 0.930 . S
N669 Li619 1.990 . S
N669 C668 1.314 . S
N669 C672 1.279 . S
C670 C668 1.353 . S
C670 C673 1.348 . S
C670 H702 0.929 . S
C671 C672 1.358 . S
C671 C673 1.356 . S
C671 H703 0.930 . S
C672 N669 1.279 . S
C672 C671 1.358 . S
C672 H675 0.930 . S
C673 C670 1.348 . S
C673 C671 1.356 . S
H674 C668 0.930 . S
H675 C672 0.930 . S
O676 Li616 1.956 . S
O676 Li617 1.970 . S
O676 Li618 1.961 . S
O676 C620 1.325 . S
O677 Li616 1.970 . S
O677 Li617 1.956 . S
O677 Li619 1.961 . S
O677 C626 1.325 . S
O678 Li616 1.961 . S
O678 Li618 1.956 . S
O678 Li619 1.970 . S
O678 C648 1.325 1_565 S
O679 Li617 1.961 . S
O679 Li618 1.970 . S
O679 Li619 1.956 . S
O679 C654 1.325 . S
H680 C622 0.929 . S
H681 C623 0.930 . S
H682 C624 0.930 . S
H683 C625 0.930 . S
H684 C627 0.930 . S
H685 C629 0.929 . S
H686 C630 0.930 . S
H687 C631 0.930 . S
H688 C634 0.930 . S
H689 C637 0.929 . S
H690 C642 0.929 . S
H691 C643 0.930 . S
H692 C650 0.929 . S
H693 C651 0.930 . S
H694 C652 0.930 . S
H695 C653 0.930 . S
H696 C655 0.929 . S
H697 C656 0.930 . S
H698 C657 0.930 . S
H699 C658 0.930 . S
H700 C662 0.929 . S
H701 C664 0.930 . S
H702 C670 0.929 . S
H703 C671 0.930 . S
Li704 N721 1.990 . S
Li704 O764 1.956 . S
Li704 O765 1.970 . S
Li704 O766 1.961 . S
Li705 N729 1.990 . S
Li705 O764 1.970 . S
Li705 O765 1.956 . S
Li705 O767 1.961 . S
Li706 N751 1.990 1_455 S
Li706 O764 1.961 . S
Li706 O766 1.956 . S
Li706 O767 1.970 . S
Li707 N757 1.990 . S
Li707 O765 1.961 . S
Li707 O766 1.970 . S
Li707 O767 1.956 . S
C708 C710 1.348 . S
C708 C711 1.356 . S
C708 O764 1.325 . S
N709 C712 1.314 . S
N709 C713 1.279 . S
C710 C708 1.348 . S
C710 C712 1.353 . S
C710 H768 0.929 . S
C711 C708 1.356 . S
C711 C713 1.358 . S
C711 H769 0.930 . S
C712 N709 1.314 . S
C712 C710 1.353 . S
C712 H770 0.930 . S
C713 N709 1.279 . S
C713 C711 1.358 . S
C713 H771 0.930 . S
C714 C717 1.348 . S
C714 C718 1.356 . S
C714 O765 1.325 . S
C715 N716 1.279 . S
C715 C718 1.358 . S
C715 H772 0.930 . S
N716 C715 1.279 . S
N716 C719 1.314 . S
C717 C714 1.348 . S
C717 C719 1.353 . S
C717 H773 0.929 . S
C718 C714 1.356 . S
C718 C715 1.358 . S
C718 H774 0.930 . S
C719 N716 1.314 . S
C719 C717 1.353 . S
C719 H775 0.930 . S
C720 N721 1.314 . S
C720 C725 1.353 . S
C720 H726 0.930 . S
N721 Li704 1.990 . S
N721 C720 1.314 . S
N721 C723 1.279 . S
C722 C723 1.358 . S
C722 C724 1.356 . S
C722 H776 0.930 . S
C723 N721 1.279 . S
C723 C722 1.358 . S
C723 H727 0.930 . S
C724 C722 1.356 . S
C724 C725 1.348 . S
C725 C720 1.353 . S
C725 C724 1.348 . S
C725 H777 0.929 . S
H726 C720 0.930 . S
H727 C723 0.930 . S
C728 N729 1.314 . S
C728 C730 1.353 . S
C728 H734 0.930 . S
N729 Li705 1.990 . S
N729 C728 1.314 . S
N729 C732 1.279 . S
C730 C728 1.353 . S
C730 C733 1.348 . S
C730 H778 0.929 . S
C731 C732 1.358 . S
C731 C733 1.356 . S
C731 H779 0.930 . S
C732 N729 1.279 . S
C732 C731 1.358 . S
C732 H735 0.930 . S
C733 C730 1.348 . S
C733 C731 1.356 . S
H734 C728 0.930 . S
H735 C732 0.930 . S
C736 C738 1.348 . S
C736 C739 1.356 . S
C736 O766 1.325 1_655 S
N737 C740 1.314 . S
N737 C741 1.279 . S
C738 C736 1.348 . S
C738 C740 1.353 . S
C738 H780 0.929 . S
C739 C736 1.356 . S
C739 C741 1.358 . S
C739 H781 0.930 . S
C740 N737 1.314 . S
C740 C738 1.353 . S
C740 H782 0.930 . S
C741 N737 1.279 . S
C741 C739 1.358 . S
C741 H783 0.930 . S
C742 C743 1.348 1_455 S
C742 C744 1.356 . S
C742 O767 1.325 . S
C743 C742 1.348 1_655 S
C743 C745 1.353 . S
C743 H784 0.929 . S
C744 C742 1.356 . S
C744 C746 1.358 . S
C744 H785 0.930 . S
C745 C743 1.353 . S
C745 N747 1.314 . S
C745 H786 0.930 . S
C746 C744 1.358 . S
C746 N747 1.279 1_455 S
C746 H787 0.930 . S
N747 C745 1.314 . S
N747 C746 1.279 1_655 S
C748 C750 1.353 . S
C748 N751 1.314 . S
C748 H754 0.930 . S
C749 N751 1.279 . S
C749 C752 1.358 . S
C749 H755 0.930 . S
C750 C748 1.353 . S
C750 C753 1.348 . S
C750 H788 0.929 . S
N751 Li706 1.990 1_655 S
N751 C748 1.314 . S
N751 C749 1.279 . S
C752 C749 1.358 . S
C752 C753 1.356 . S
C752 H789 0.930 . S
C753 C750 1.348 . S
C753 C752 1.356 . S
H754 C748 0.930 . S
H755 C749 0.930 . S
C756 N757 1.314 . S
C756 C758 1.353 . S
C756 H762 0.930 . S
N757 Li707 1.990 . S
N757 C756 1.314 . S
N757 C760 1.279 . S
C758 C756 1.353 . S
C758 C761 1.348 . S
C758 H790 0.929 . S
C759 C760 1.358 . S
C759 C761 1.356 . S
C759 H791 0.930 . S
C760 N757 1.279 . S
C760 C759 1.358 . S
C760 H763 0.930 . S
C761 C758 1.348 . S
C761 C759 1.356 . S
H762 C756 0.930 . S
H763 C760 0.930 . S
O764 Li704 1.956 . S
O764 Li705 1.970 . S
O764 Li706 1.961 . S
O764 C708 1.325 . S
O765 Li704 1.970 . S
O765 Li705 1.956 . S
O765 Li707 1.961 . S
O765 C714 1.325 . S
O766 Li704 1.961 . S
O766 Li706 1.956 . S
O766 Li707 1.970 . S
O766 C736 1.325 1_455 S
O767 Li705 1.961 . S
O767 Li706 1.970 . S
O767 Li707 1.956 . S
O767 C742 1.325 . S
H768 C710 0.929 . S
H769 C711 0.930 . S
H770 C712 0.930 . S
H771 C713 0.930 . S
H772 C715 0.930 . S
H773 C717 0.929 . S
H774 C718 0.930 . S
H775 C719 0.930 . S
H776 C722 0.930 . S
H777 C725 0.929 . S
H778 C730 0.929 . S
H779 C731 0.930 . S
H780 C738 0.929 . S
H781 C739 0.930 . S
H782 C740 0.930 . S
H783 C741 0.930 . S
H784 C743 0.929 . S
H785 C744 0.930 . S
H786 C745 0.930 . S
H787 C746 0.930 . S
H788 C750 0.929 . S
H789 C752 0.930 . S
H790 C758 0.929 . S
H791 C759 0.930 . S
Li792 N809 1.990 1_565 S
Li792 O852 1.956 . S
Li792 O853 1.970 . S
Li792 O854 1.961 . S
Li793 N817 1.990 . S
Li793 O852 1.970 . S
Li793 O853 1.956 . S
Li793 O855 1.961 . S
Li794 N839 1.990 . S
Li794 O852 1.961 . S
Li794 O854 1.956 . S
Li794 O855 1.970 . S
Li795 N845 1.990 . S
Li795 O853 1.961 . S
Li795 O854 1.970 . S
Li795 O855 1.956 . S
C796 C798 1.348 . S
C796 C799 1.356 . S
C796 O852 1.325 . S
N797 C800 1.314 . S
N797 C801 1.279 . S
C798 C796 1.348 . S
C798 C800 1.353 . S
C798 H856 0.929 . S
C799 C796 1.356 . S
C799 C801 1.358 . S
C799 H857 0.930 . S
C800 N797 1.314 . S
C800 C798 1.353 . S
C800 H858 0.930 . S
C801 N797 1.279 . S
C801 C799 1.358 . S
C801 H859 0.930 . S
C802 C805 1.348 1_565 S
C802 C806 1.356 . S
C802 O853 1.325 . S
C803 N804 1.279 1_565 S
C803 C806 1.358 . S
C803 H860 0.930 . S
N804 C803 1.279 1_545 S
N804 C807 1.314 . S
C805 C802 1.348 1_545 S
C805 C807 1.353 . S
C805 H861 0.929 . S
C806 C802 1.356 . S
C806 C803 1.358 . S
C806 H862 0.930 . S
C807 N804 1.314 . S
C807 C805 1.353 . S
C807 H863 0.930 . S
C808 N809 1.314 . S
C808 C813 1.353 . S
C808 H814 0.930 . S
N809 Li792 1.990 1_545 S
N809 C808 1.314 . S
N809 C811 1.279 . S
C810 C811 1.358 . S
C810 C812 1.356 . S
C810 H864 0.930 . S
C811 N809 1.279 . S
C811 C810 1.358 . S
C811 H815 0.930 . S
C812 C810 1.356 . S
C812 C813 1.348 . S
C813 C808 1.353 . S
C813 C812 1.348 . S
C813 H865 0.929 . S
H814 C808 0.930 . S
H815 C811 0.930 . S
C816 N817 1.314 . S
C816 C818 1.353 . S
C816 H822 0.930 . S
N817 Li793 1.990 . S
N817 C816 1.314 . S
N817 C820 1.279 . S
C818 C816 1.353 . S
C818 C821 1.348 . S
C818 H866 0.929 . S
C819 C820 1.358 . S
C819 C821 1.356 . S
C819 H867 0.930 . S
C820 N817 1.279 . S
C820 C819 1.358 . S
C820 H823 0.930 . S
C821 C818 1.348 . S
C821 C819 1.356 . S
H822 C816 0.930 . S
H823 C820 0.930 . S
C824 C826 1.348 . S
C824 C827 1.356 . S
C824 O854 1.325 1_545 S
N825 C828 1.314 . S
N825 C829 1.279 . S
C826 C824 1.348 . S
C826 C828 1.353 . S
C826 H868 0.929 1_545 S
C827 C824 1.356 . S
C827 C829 1.358 . S
C827 H869 0.930 . S
C828 N825 1.314 . S
C828 C826 1.353 . S
C828 H870 0.930 . S
C829 N825 1.279 . S
C829 C827 1.358 . S
C829 H871 0.930 . S
C830 C831 1.348 . S
C830 C832 1.356 . S
C830 O855 1.325 . S
C831 C830 1.348 . S
C831 C833 1.353 . S
C831 H872 0.929 . S
C832 C830 1.356 . S
C832 C834 1.358 . S
C832 H873 0.930 . S
C833 C831 1.353 . S
C833 N835 1.314 . S
C833 H874 0.930 . S
C834 C832 1.358 . S
C834 N835 1.279 . S
C834 H875 0.930 . S
N835 C833 1.314 . S
N835 C834 1.279 . S
C836 C838 1.353 . S
C836 N839 1.314 . S
C836 H842 0.930 . S
C837 N839 1.279 . S
C837 C840 1.358 . S
C837 H843 0.930 . S
C838 C836 1.353 . S
C838 C841 1.348 . S
C838 H876 0.929 . S
N839 Li794 1.990 . S
N839 C836 1.314 . S
N839 C837 1.279 . S
C840 C837 1.358 . S
C840 C841 1.356 . S
C840 H877 0.930 . S
C841 C838 1.348 . S
C841 C840 1.356 . S
H842 C836 0.930 . S
H843 C837 0.930 . S
C844 N845 1.314 . S
C844 C846 1.353 . S
C844 H850 0.930 1_565 S
N845 Li795 1.990 . S
N845 C844 1.314 . S
N845 C848 1.279 . S
C846 C844 1.353 . S
C846 C849 1.348 . S
C846 H878 0.929 1_565 S
C847 C848 1.358 . S
C847 C849 1.356 . S
C847 H879 0.930 . S
C848 N845 1.279 . S
C848 C847 1.358 . S
C848 H851 0.930 . S
C849 C846 1.348 . S
C849 C847 1.356 . S
H850 C844 0.930 1_545 S
H851 C848 0.930 . S
O852 Li792 1.956 . S
O852 Li793 1.970 . S
O852 Li794 1.961 . S
O852 C796 1.325 . S
O853 Li792 1.970 . S
O853 Li793 1.956 . S
O853 Li795 1.961 . S
O853 C802 1.325 . S
O854 Li792 1.961 . S
O854 Li794 1.956 . S
O854 Li795 1.970 . S
O854 C824 1.325 1_565 S
O855 Li793 1.961 . S
O855 Li794 1.970 . S
O855 Li795 1.956 . S
O855 C830 1.325 . S
H856 C798 0.929 . S
H857 C799 0.930 . S
H858 C800 0.930 . S
H859 C801 0.930 . S
H860 C803 0.930 . S
H861 C805 0.929 . S
H862 C806 0.930 . S
H863 C807 0.930 . S
H864 C810 0.930 . S
H865 C813 0.929 . S
H866 C818 0.929 . S
H867 C819 0.930 . S
H868 C826 0.929 1_565 S
H869 C827 0.930 . S
H870 C828 0.930 . S
H871 C829 0.930 . S
H872 C831 0.929 . S
H873 C832 0.930 . S
H874 C833 0.930 . S
H875 C834 0.930 . S
H876 C838 0.929 . S
H877 C840 0.930 . S
H878 C846 0.929 1_545 S
H879 C847 0.930 . S
Li880 N897 1.990 . S
Li880 O940 1.956 . S
Li880 O941 1.970 . S
Li880 O942 1.961 . S
Li881 N905 1.990 1_455 S
Li881 O940 1.970 . S
Li881 O941 1.956 . S
Li881 O943 1.961 . S
Li882 N927 1.990 . S
Li882 O940 1.961 . S
Li882 O942 1.956 . S
Li882 O943 1.970 . S
Li883 N933 1.990 . S
Li883 O941 1.961 . S
Li883 O942 1.970 . S
Li883 O943 1.956 . S
C884 C886 1.348 1_455 S
C884 C887 1.356 . S
C884 O940 1.325 . S
N885 C888 1.314 . S
N885 C889 1.279 1_655 S
C886 C884 1.348 1_655 S
C886 C888 1.353 . S
C886 H944 0.929 . S
C887 C884 1.356 . S
C887 C889 1.358 . S
C887 H945 0.930 . S
C888 N885 1.314 . S
C888 C886 1.353 . S
C888 H946 0.930 . S
C889 N885 1.279 1_455 S
C889 C887 1.358 . S
C889 H947 0.930 . S
C890 C893 1.348 . S
C890 C894 1.356 . S
C890 O941 1.325 . S
C891 N892 1.279 . S
C891 C894 1.358 . S
C891 H948 0.930 . S
N892 C891 1.279 . S
N892 C895 1.314 . S
C893 C890 1.348 . S
C893 C895 1.353 . S
C893 H949 0.929 . S
C894 C890 1.356 . S
C894 C891 1.358 . S
C894 H950 0.930 . S
C895 N892 1.314 . S
C895 C893 1.353 . S
C895 H951 0.930 . S
C896 N897 1.314 . S
C896 C901 1.353 . S
C896 H902 0.930 . S
N897 Li880 1.990 . S
N897 C896 1.314 . S
N897 C899 1.279 . S
C898 C899 1.358 . S
C898 C900 1.356 . S
C898 H952 0.930 . S
C899 N897 1.279 . S
C899 C898 1.358 . S
C899 H903 0.930 . S
C900 C898 1.356 . S
C900 C901 1.348 . S
C901 C896 1.353 . S
C901 C900 1.348 . S
C901 H953 0.929 . S
H902 C896 0.930 . S
H903 C899 0.930 . S
C904 N905 1.314 . S
C904 C906 1.353 . S
C904 H910 0.930 . S
N905 Li881 1.990 1_655 S
N905 C904 1.314 . S
N905 C908 1.279 . S
C906 C904 1.353 . S
C906 C909 1.348 . S
C906 H954 0.929 . S
C907 C908 1.358 . S
C907 C909 1.356 . S
C907 H955 0.930 . S
C908 N905 1.279 . S
C908 C907 1.358 . S
C908 H911 0.930 . S
C909 C906 1.348 . S
C909 C907 1.356 . S
H910 C904 0.930 . S
H911 C908 0.930 . S
C912 C914 1.348 . S
C912 C915 1.356 . S
C912 O942 1.325 . S
N913 C916 1.314 . S
N913 C917 1.279 . S
C914 C912 1.348 . S
C914 C916 1.353 . S
C914 H956 0.929 . S
C915 C912 1.356 . S
C915 C917 1.358 . S
C915 H957 0.930 . S
C916 N913 1.314 . S
C916 C914 1.353 . S
C916 H958 0.930 . S
C917 N913 1.279 . S
C917 C915 1.358 . S
C917 H959 0.930 . S
C918 C919 1.348 . S
C918 C920 1.356 . S
C918 O943 1.325 1_655 S
C919 C918 1.348 . S
C919 C921 1.353 . S
C919 H960 0.929 1_655 S
C920 C918 1.356 . S
C920 C922 1.358 . S
C920 H961 0.930 . S
C921 C919 1.353 . S
C921 N923 1.314 . S
C921 H962 0.930 . S
C922 C920 1.358 . S
C922 N923 1.279 . S
C922 H963 0.930 . S
N923 C921 1.314 . S
N923 C922 1.279 . S
C924 C926 1.353 . S
C924 N927 1.314 . S
C924 H930 0.930 1_455 S
C925 N927 1.279 . S
C925 C928 1.358 . S
C925 H931 0.930 . S
C926 C924 1.353 . S
C926 C929 1.348 . S
C926 H964 0.929 1_455 S
N927 Li882 1.990 . S
N927 C924 1.314 . S
N927 C925 1.279 . S
C928 C925 1.358 . S
C928 C929 1.356 . S
C928 H965 0.930 . S
C929 C926 1.348 . S
C929 C928 1.356 . S
H930 C924 0.930 1_655 S
H931 C925 0.930 . S
C932 N933 1.314 . S
C932 C934 1.353 . S
C932 H938 0.930 . S
N933 Li883 1.990 . S
N933 C932 1.314 . S
N933 C936 1.279 . S
C934 C932 1.353 . S
C934 C937 1.348 . S
C934 H966 0.929 . S
C935 C936 1.358 . S
C935 C937 1.356 . S
C935 H967 0.930 . S
C936 N933 1.279 . S
C936 C935 1.358 . S
C936 H939 0.930 . S
C937 C934 1.348 . S
C937 C935 1.356 . S
H938 C932 0.930 . S
H939 C936 0.930 . S
O940 Li880 1.956 . S
O940 Li881 1.970 . S
O940 Li882 1.961 . S
O940 C884 1.325 . S
O941 Li880 1.970 . S
O941 Li881 1.956 . S
O941 Li883 1.961 . S
O941 C890 1.325 . S
O942 Li880 1.961 . S
O942 Li882 1.956 . S
O942 Li883 1.970 . S
O942 C912 1.325 . S
O943 Li881 1.961 . S
O943 Li882 1.970 . S
O943 Li883 1.956 . S
O943 C918 1.325 1_455 S
H944 C886 0.929 . S
H945 C887 0.930 . S
H946 C888 0.930 . S
H947 C889 0.930 . S
H948 C891 0.930 . S
H949 C893 0.929 . S
H950 C894 0.930 . S
H951 C895 0.930 . S
H952 C898 0.930 . S
H953 C901 0.929 . S
H954 C906 0.929 . S
H955 C907 0.930 . S
H956 C914 0.929 . S
H957 C915 0.930 . S
H958 C916 0.930 . S
H959 C917 0.930 . S
H960 C919 0.929 1_455 S
H961 C920 0.930 . S
H962 C921 0.930 . S
H963 C922 0.930 . S
H964 C926 0.929 1_655 S
H965 C928 0.930 . S
H966 C934 0.929 . S
H967 C935 0.930 . S
Li968 N985 1.990 . S
Li968 O1028 1.956 . S
Li968 O1029 1.970 . S
Li968 O1030 1.961 . S
Li969 N993 1.990 . S
Li969 O1028 1.970 . S
Li969 O1029 1.956 . S
Li969 O1031 1.961 . S
Li970 N1015 1.990 . S
Li970 O1028 1.961 . S
Li970 O1030 1.956 . S
Li970 O1031 1.970 . S
Li971 N1021 1.990 . S
Li971 O1029 1.961 . S
Li971 O1030 1.970 . S
Li971 O1031 1.956 . S
C972 C974 1.348 . S
C972 C975 1.356 . S
C972 O1028 1.325 . S
N973 C976 1.314 . S
N973 C977 1.279 . S
C974 C972 1.348 . S
C974 C976 1.353 . S
C974 H1032 0.929 . S
C975 C972 1.356 . S
C975 C977 1.358 . S
C975 H1033 0.930 . S
C976 N973 1.314 . S
C976 C974 1.353 . S
C976 H1034 0.930 . S
C977 N973 1.279 . S
C977 C975 1.358 . S
C977 H1035 0.930 . S
C978 C981 1.348 . S
C978 C982 1.356 . S
C978 O1029 1.325 . S
C979 N980 1.279 . S
C979 C982 1.358 . S
C979 H1036 0.930 . S
N980 C979 1.279 . S
N980 C983 1.314 . S
C981 C978 1.348 . S
C981 C983 1.353 . S
C981 H1037 0.929 . S
C982 C978 1.356 . S
C982 C979 1.358 . S
C982 H1038 0.930 . S
C983 N980 1.314 . S
C983 C981 1.353 . S
C983 H1039 0.930 . S
C984 N985 1.314 . S
C984 C989 1.353 . S
C984 H990 0.930 . S
N985 Li968 1.990 . S
N985 C984 1.314 . S
N985 C987 1.279 . S
C986 C987 1.358 . S
C986 C988 1.356 . S
C986 H1040 0.930 . S
C987 N985 1.279 . S
C987 C986 1.358 . S
C987 H991 0.930 . S
C988 C986 1.356 . S
C988 C989 1.348 . S
C989 C984 1.353 . S
C989 C988 1.348 . S
C989 H1041 0.929 . S
H990 C984 0.930 . S
H991 C987 0.930 . S
C992 N993 1.314 . S
C992 C994 1.353 . S
C992 H998 0.930 . S
N993 Li969 1.990 . S
N993 C992 1.314 . S
N993 C996 1.279 . S
C994 C992 1.353 . S
C994 C997 1.348 . S
C994 H1042 0.929 . S
C995 C996 1.358 . S
C995 C997 1.356 . S
C995 H1043 0.930 . S
C996 N993 1.279 . S
C996 C995 1.358 . S
C996 H999 0.930 . S
C997 C994 1.348 . S
C997 C995 1.356 . S
H998 C992 0.930 . S
H999 C996 0.930 . S
C1000 C1002 1.348 . S
C1000 C1003 1.356 . S
C1000 O1030 1.325 . S
N1001 C1004 1.314 . S
N1001 C1005 1.279 . S
C1002 C1000 1.348 . S
C1002 C1004 1.353 . S
C1002 H1044 0.929 . S
C1003 C1000 1.356 . S
C1003 C1005 1.358 . S
C1003 H1045 0.930 . S
C1004 N1001 1.314 . S
C1004 C1002 1.353 . S
C1004 H1046 0.930 . S
C1005 N1001 1.279 . S
C1005 C1003 1.358 . S
C1005 H1047 0.930 . S
C1006 C1007 1.348 . S
C1006 C1008 1.356 . S
C1006 O1031 1.325 . S
C1007 C1006 1.348 . S
C1007 C1009 1.353 . S
C1007 H1048 0.929 . S
C1008 C1006 1.356 . S
C1008 C1010 1.358 . S
C1008 H1049 0.930 . S
C1009 C1007 1.353 . S
C1009 N1011 1.314 . S
C1009 H1050 0.930 . S
C1010 C1008 1.358 . S
C1010 N1011 1.279 . S
C1010 H1051 0.930 . S
N1011 C1009 1.314 . S
N1011 C1010 1.279 . S
C1012 C1014 1.353 . S
C1012 N1015 1.314 . S
C1012 H1018 0.930 . S
C1013 N1015 1.279 . S
C1013 C1016 1.358 . S
C1013 H1019 0.930 . S
C1014 C1012 1.353 . S
C1014 C1017 1.348 . S
C1014 H1052 0.929 . S
N1015 Li970 1.990 . S
N1015 C1012 1.314 . S
N1015 C1013 1.279 . S
C1016 C1013 1.358 . S
C1016 C1017 1.356 . S
C1016 H1053 0.930 . S
C1017 C1014 1.348 . S
C1017 C1016 1.356 . S
H1018 C1012 0.930 . S
H1019 C1013 0.930 . S
C1020 N1021 1.314 . S
C1020 C1022 1.353 . S
C1020 H1026 0.930 . S
N1021 Li971 1.990 . S
N1021 C1020 1.314 . S
N1021 C1024 1.279 . S
C1022 C1020 1.353 . S
C1022 C1025 1.348 . S
C1022 H1054 0.929 . S
C1023 C1024 1.358 . S
C1023 C1025 1.356 . S
C1023 H1055 0.930 . S
C1024 N1021 1.279 . S
C1024 C1023 1.358 . S
C1024 H1027 0.930 . S
C1025 C1022 1.348 . S
C1025 C1023 1.356 . S
H1026 C1020 0.930 . S
H1027 C1024 0.930 . S
O1028 Li968 1.956 . S
O1028 Li969 1.970 . S
O1028 Li970 1.961 . S
O1028 C972 1.325 . S
O1029 Li968 1.970 . S
O1029 Li969 1.956 . S
O1029 Li971 1.961 . S
O1029 C978 1.325 . S
O1030 Li968 1.961 . S
O1030 Li970 1.956 . S
O1030 Li971 1.970 . S
O1030 C1000 1.325 . S
O1031 Li969 1.961 . S
O1031 Li970 1.970 . S
O1031 Li971 1.956 . S
O1031 C1006 1.325 . S
H1032 C974 0.929 . S
H1033 C975 0.930 . S
H1034 C976 0.930 . S
H1035 C977 0.930 . S
H1036 C979 0.930 . S
H1037 C981 0.929 . S
H1038 C982 0.930 . S
H1039 C983 0.930 . S
H1040 C986 0.930 . S
H1041 C989 0.929 . S
H1042 C994 0.929 . S
H1043 C995 0.930 . S
H1044 C1002 0.929 . S
H1045 C1003 0.930 . S
H1046 C1004 0.930 . S
H1047 C1005 0.930 . S
H1048 C1007 0.929 . S
H1049 C1008 0.930 . S
H1050 C1009 0.930 . S
H1051 C1010 0.930 . S
H1052 C1014 0.929 . S
H1053 C1016 0.930 . S
H1054 C1022 0.929 . S
H1055 C1023 0.930 . S
Li1056 N1073 1.990 1_545 S
Li1056 O1116 1.956 . S
Li1056 O1117 1.970 . S
Li1056 O1118 1.961 . S
Li1057 N1081 1.990 . S
Li1057 O1116 1.970 . S
Li1057 O1117 1.956 . S
Li1057 O1119 1.961 . S
Li1058 N1103 1.990 . S
Li1058 O1116 1.961 . S
Li1058 O1118 1.956 . S
Li1058 O1119 1.970 . S
Li1059 N1109 1.990 . S
Li1059 O1117 1.961 . S
Li1059 O1118 1.970 . S
Li1059 O1119 1.956 . S
C1060 C1062 1.348 . S
C1060 C1063 1.356 . S
C1060 O1116 1.325 1_565 S
N1061 C1064 1.314 . S
N1061 C1065 1.279 . S
C1062 C1060 1.348 . S
C1062 C1064 1.353 . S
C1062 H1120 0.929 . S
C1063 C1060 1.356 . S
C1063 C1065 1.358 . S
C1063 H1121 0.930 . S
C1064 N1061 1.314 . S
C1064 C1062 1.353 . S
C1064 H1122 0.930 . S
C1065 N1061 1.279 . S
C1065 C1063 1.358 . S
C1065 H1123 0.930 . S
C1066 C1069 1.348 1_545 S
C1066 C1070 1.356 . S
C1066 O1117 1.325 . S
C1067 N1068 1.279 1_545 S
C1067 C1070 1.358 . S
C1067 H1124 0.930 . S
N1068 C1067 1.279 1_565 S
N1068 C1071 1.314 . S
C1069 C1066 1.348 1_565 S
C1069 C1071 1.353 . S
C1069 H1125 0.929 . S
C1070 C1066 1.356 . S
C1070 C1067 1.358 . S
C1070 H1126 0.930 . S
C1071 N1068 1.314 . S
C1071 C1069 1.353 . S
C1071 H1127 0.930 . S
C1072 N1073 1.314 . S
C1072 C1077 1.353 . S
C1072 H1078 0.930 . S
N1073 Li1056 1.990 1_565 S
N1073 C1072 1.314 . S
N1073 C1075 1.279 . S
C1074 C1075 1.358 . S
C1074 C1076 1.356 . S
C1074 H1128 0.930 . S
C1075 N1073 1.279 . S
C1075 C1074 1.358 . S
C1075 H1079 0.930 . S
C1076 C1074 1.356 . S
C1076 C1077 1.348 . S
C1077 C1072 1.353 . S
C1077 C1076 1.348 . S
C1077 H1129 0.929 . S
H1078 C1072 0.930 . S
H1079 C1075 0.930 . S
C1080 N1081 1.314 . S
C1080 C1082 1.353 . S
C1080 H1086 0.930 . S
N1081 Li1057 1.990 . S
N1081 C1080 1.314 . S
N1081 C1084 1.279 . S
C1082 C1080 1.353 . S
C1082 C1085 1.348 . S
C1082 H1130 0.929 . S
C1083 C1084 1.358 . S
C1083 C1085 1.356 . S
C1083 H1131 0.930 . S
C1084 N1081 1.279 . S
C1084 C1083 1.358 . S
C1084 H1087 0.930 . S
C1085 C1082 1.348 . S
C1085 C1083 1.356 . S
H1086 C1080 0.930 . S
H1087 C1084 0.930 . S
C1088 C1090 1.348 . S
C1088 C1091 1.356 . S
C1088 O1118 1.325 . S
N1089 C1092 1.314 . S
N1089 C1093 1.279 . S
C1090 C1088 1.348 . S
C1090 C1092 1.353 . S
C1090 H1132 0.929 . S
C1091 C1088 1.356 . S
C1091 C1093 1.358 . S
C1091 H1133 0.930 . S
C1092 N1089 1.314 . S
C1092 C1090 1.353 . S
C1092 H1134 0.930 . S
C1093 N1089 1.279 . S
C1093 C1091 1.358 . S
C1093 H1135 0.930 . S
C1094 C1095 1.348 . S
C1094 C1096 1.356 . S
C1094 O1119 1.325 . S
C1095 C1094 1.348 . S
C1095 C1097 1.353 . S
C1095 H1136 0.929 . S
C1096 C1094 1.356 . S
C1096 C1098 1.358 . S
C1096 H1137 0.930 . S
C1097 C1095 1.353 . S
C1097 N1099 1.314 . S
C1097 H1138 0.930 . S
C1098 C1096 1.358 . S
C1098 N1099 1.279 . S
C1098 H1139 0.930 . S
N1099 C1097 1.314 . S
N1099 C1098 1.279 . S
C1100 C1102 1.353 . S
C1100 N1103 1.314 . S
C1100 H1106 0.930 . S
C1101 N1103 1.279 . S
C1101 C1104 1.358 . S
C1101 H1107 0.930 . S
C1102 C1100 1.353 . S
C1102 C1105 1.348 . S
C1102 H1140 0.929 . S
N1103 Li1058 1.990 . S
N1103 C1100 1.314 . S
N1103 C1101 1.279 . S
C1104 C1101 1.358 . S
C1104 C1105 1.356 . S
C1104 H1141 0.930 . S
C1105 C1102 1.348 . S
C1105 C1104 1.356 . S
H1106 C1100 0.930 . S
H1107 C1101 0.930 . S
C1108 N1109 1.314 . S
C1108 C1110 1.353 . S
C1108 H1114 0.930 . S
N1109 Li1059 1.990 . S
N1109 C1108 1.314 . S
N1109 C1112 1.279 . S
C1110 C1108 1.353 . S
C1110 C1113 1.348 . S
C1110 H1142 0.929 . S
C1111 C1112 1.358 . S
C1111 C1113 1.356 . S
C1111 H1143 0.930 . S
C1112 N1109 1.279 . S
C1112 C1111 1.358 . S
C1112 H1115 0.930 . S
C1113 C1110 1.348 . S
C1113 C1111 1.356 . S
H1114 C1108 0.930 . S
H1115 C1112 0.930 . S
O1116 Li1056 1.956 . S
O1116 Li1057 1.970 . S
O1116 Li1058 1.961 . S
O1116 C1060 1.325 1_545 S
O1117 Li1056 1.970 . S
O1117 Li1057 1.956 . S
O1117 Li1059 1.961 . S
O1117 C1066 1.325 . S
O1118 Li1056 1.961 . S
O1118 Li1058 1.956 . S
O1118 Li1059 1.970 . S
O1118 C1088 1.325 . S
O1119 Li1057 1.961 . S
O1119 Li1058 1.970 . S
O1119 Li1059 1.956 . S
O1119 C1094 1.325 . S
H1120 C1062 0.929 . S
H1121 C1063 0.930 . S
H1122 C1064 0.930 . S
H1123 C1065 0.930 . S
H1124 C1067 0.930 . S
H1125 C1069 0.929 . S
H1126 C1070 0.930 . S
H1127 C1071 0.930 . S
H1128 C1074 0.930 . S
H1129 C1077 0.929 . S
H1130 C1082 0.929 . S
H1131 C1083 0.930 . S
H1132 C1090 0.929 . S
H1133 C1091 0.930 . S
H1134 C1092 0.930 . S
H1135 C1093 0.930 . S
H1136 C1095 0.929 . S
H1137 C1096 0.930 . S
H1138 C1097 0.930 . S
H1139 C1098 0.930 . S
H1140 C1102 0.929 . S
H1141 C1104 0.930 . S
H1142 C1110 0.929 . S
H1143 C1111 0.930 . S
Li1144 N1161 1.990 1_655 S
Li1144 O1204 1.956 . S
Li1144 O1205 1.970 . S
Li1144 O1206 1.961 . S
Li1145 N1169 1.990 . S
Li1145 O1204 1.970 . S
Li1145 O1205 1.956 . S
Li1145 O1207 1.961 . S
Li1146 N1191 1.990 . S
Li1146 O1204 1.961 . S
Li1146 O1206 1.956 . S
Li1146 O1207 1.970 . S
Li1147 N1197 1.990 . S
Li1147 O1205 1.961 . S
Li1147 O1206 1.970 . S
Li1147 O1207 1.956 . S
C1148 C1150 1.348 . S
C1148 C1151 1.356 . S
C1148 O1204 1.325 1_455 S
N1149 C1152 1.314 . S
N1149 C1153 1.279 . S
C1150 C1148 1.348 . S
C1150 C1152 1.353 . S
C1150 H1208 0.929 . S
C1151 C1148 1.356 . S
C1151 C1153 1.358 . S
C1151 H1209 0.930 . S
C1152 N1149 1.314 . S
C1152 C1150 1.353 . S
C1152 H1210 0.930 . S
C1153 N1149 1.279 . S
C1153 C1151 1.358 . S
C1153 H1211 0.930 . S
C1154 C1157 1.348 1_655 S
C1154 C1158 1.356 . S
C1154 O1205 1.325 . S
C1155 N1156 1.279 1_655 S
C1155 C1158 1.358 . S
C1155 H1212 0.930 . S
N1156 C1155 1.279 1_455 S
N1156 C1159 1.314 . S
C1157 C1154 1.348 1_455 S
C1157 C1159 1.353 . S
C1157 H1213 0.929 . S
C1158 C1154 1.356 . S
C1158 C1155 1.358 . S
C1158 H1214 0.930 . S
C1159 N1156 1.314 . S
C1159 C1157 1.353 . S
C1159 H1215 0.930 . S
C1160 N1161 1.314 . S
C1160 C1165 1.353 . S
C1160 H1166 0.930 . S
N1161 Li1144 1.990 1_455 S
N1161 C1160 1.314 . S
N1161 C1163 1.279 . S
C1162 C1163 1.358 . S
C1162 C1164 1.356 . S
C1162 H1216 0.930 . S
C1163 N1161 1.279 . S
C1163 C1162 1.358 . S
C1163 H1167 0.930 . S
C1164 C1162 1.356 . S
C1164 C1165 1.348 . S
C1165 C1160 1.353 . S
C1165 C1164 1.348 . S
C1165 H1217 0.929 . S
H1166 C1160 0.930 . S
H1167 C1163 0.930 . S
C1168 N1169 1.314 . S
C1168 C1170 1.353 . S
C1168 H1174 0.930 . S
N1169 Li1145 1.990 . S
N1169 C1168 1.314 . S
N1169 C1172 1.279 . S
C1170 C1168 1.353 . S
C1170 C1173 1.348 . S
C1170 H1218 0.929 . S
C1171 C1172 1.358 . S
C1171 C1173 1.356 . S
C1171 H1219 0.930 . S
C1172 N1169 1.279 . S
C1172 C1171 1.358 . S
C1172 H1175 0.930 . S
C1173 C1170 1.348 . S
C1173 C1171 1.356 . S
H1174 C1168 0.930 . S
H1175 C1172 0.930 . S
C1176 C1178 1.348 . S
C1176 C1179 1.356 . S
C1176 O1206 1.325 . S
N1177 C1180 1.314 . S
N1177 C1181 1.279 . S
C1178 C1176 1.348 . S
C1178 C1180 1.353 . S
C1178 H1220 0.929 . S
C1179 C1176 1.356 . S
C1179 C1181 1.358 . S
C1179 H1221 0.930 . S
C1180 N1177 1.314 . S
C1180 C1178 1.353 . S
C1180 H1222 0.930 . S
C1181 N1177 1.279 . S
C1181 C1179 1.358 . S
C1181 H1223 0.930 . S
C1182 C1183 1.348 . S
C1182 C1184 1.356 . S
C1182 O1207 1.325 . S
C1183 C1182 1.348 . S
C1183 C1185 1.353 . S
C1183 H1224 0.929 . S
C1184 C1182 1.356 . S
C1184 C1186 1.358 . S
C1184 H1225 0.930 . S
C1185 C1183 1.353 . S
C1185 N1187 1.314 . S
C1185 H1226 0.930 . S
C1186 C1184 1.358 . S
C1186 N1187 1.279 . S
C1186 H1227 0.930 . S
N1187 C1185 1.314 . S
N1187 C1186 1.279 . S
C1188 C1190 1.353 . S
C1188 N1191 1.314 . S
C1188 H1194 0.930 . S
C1189 N1191 1.279 . S
C1189 C1192 1.358 . S
C1189 H1195 0.930 . S
C1190 C1188 1.353 . S
C1190 C1193 1.348 . S
C1190 H1228 0.929 . S
N1191 Li1146 1.990 . S
N1191 C1188 1.314 . S
N1191 C1189 1.279 . S
C1192 C1189 1.358 . S
C1192 C1193 1.356 . S
C1192 H1229 0.930 . S
C1193 C1190 1.348 . S
C1193 C1192 1.356 . S
H1194 C1188 0.930 . S
H1195 C1189 0.930 . S
C1196 N1197 1.314 . S
C1196 C1198 1.353 . S
C1196 H1202 0.930 . S
N1197 Li1147 1.990 . S
N1197 C1196 1.314 . S
N1197 C1200 1.279 . S
C1198 C1196 1.353 . S
C1198 C1201 1.348 . S
C1198 H1230 0.929 . S
C1199 C1200 1.358 . S
C1199 C1201 1.356 . S
C1199 H1231 0.930 . S
C1200 N1197 1.279 . S
C1200 C1199 1.358 . S
C1200 H1203 0.930 . S
C1201 C1198 1.348 . S
C1201 C1199 1.356 . S
H1202 C1196 0.930 . S
H1203 C1200 0.930 . S
O1204 Li1144 1.956 . S
O1204 Li1145 1.970 . S
O1204 Li1146 1.961 . S
O1204 C1148 1.325 1_655 S
O1205 Li1144 1.970 . S
O1205 Li1145 1.956 . S
O1205 Li1147 1.961 . S
O1205 C1154 1.325 . S
O1206 Li1144 1.961 . S
O1206 Li1146 1.956 . S
O1206 Li1147 1.970 . S
O1206 C1176 1.325 . S
O1207 Li1145 1.961 . S
O1207 Li1146 1.970 . S
O1207 Li1147 1.956 . S
O1207 C1182 1.325 . S
H1208 C1150 0.929 . S
H1209 C1151 0.930 . S
H1210 C1152 0.930 . S
H1211 C1153 0.930 . S
H1212 C1155 0.930 . S
H1213 C1157 0.929 . S
H1214 C1158 0.930 . S
H1215 C1159 0.930 . S
H1216 C1162 0.930 . S
H1217 C1165 0.929 . S
H1218 C1170 0.929 . S
H1219 C1171 0.930 . S
H1220 C1178 0.929 . S
H1221 C1179 0.930 . S
H1222 C1180 0.930 . S
H1223 C1181 0.930 . S
H1224 C1183 0.929 . S
H1225 C1184 0.930 . S
H1226 C1185 0.930 . S
H1227 C1186 0.930 . S
H1228 C1190 0.929 . S
H1229 C1192 0.930 . S
H1230 C1198 0.929 . S
H1231 C1199 0.930 . S
Li1232 N1249 1.990 . S
Li1232 O1292 1.956 . S
Li1232 O1293 1.970 . S
Li1232 O1294 1.961 . S
Li1233 N1257 1.990 . S
Li1233 O1292 1.970 . S
Li1233 O1293 1.956 . S
Li1233 O1295 1.961 . S
Li1234 N1279 1.990 . S
Li1234 O1292 1.961 . S
Li1234 O1294 1.956 . S
Li1234 O1295 1.970 . S
Li1235 N1285 1.990 . S
Li1235 O1293 1.961 . S
Li1235 O1294 1.970 . S
Li1235 O1295 1.956 . S
C1236 C1238 1.348 . S
C1236 C1239 1.356 . S
C1236 O1292 1.325 . S
N1237 C1240 1.314 . S
N1237 C1241 1.279 . S
C1238 C1236 1.348 . S
C1238 C1240 1.353 . S
C1238 H1296 0.929 . S
C1239 C1236 1.356 . S
C1239 C1241 1.358 . S
C1239 H1297 0.930 . S
C1240 N1237 1.314 . S
C1240 C1238 1.353 . S
C1240 H1298 0.930 . S
C1241 N1237 1.279 . S
C1241 C1239 1.358 . S
C1241 H1299 0.930 . S
C1242 C1245 1.348 . S
C1242 C1246 1.356 . S
C1242 O1293 1.325 . S
C1243 N1244 1.279 . S
C1243 C1246 1.358 . S
C1243 H1300 0.930 . S
N1244 C1243 1.279 . S
N1244 C1247 1.314 . S
C1245 C1242 1.348 . S
C1245 C1247 1.353 . S
C1245 H1301 0.929 . S
C1246 C1242 1.356 . S
C1246 C1243 1.358 . S
C1246 H1302 0.930 . S
C1247 N1244 1.314 . S
C1247 C1245 1.353 . S
C1247 H1303 0.930 . S
C1248 N1249 1.314 . S
C1248 C1253 1.353 . S
C1248 H1254 0.930 . S
N1249 Li1232 1.990 . S
N1249 C1248 1.314 . S
N1249 C1251 1.279 . S
C1250 C1251 1.358 . S
C1250 C1252 1.356 . S
C1250 H1304 0.930 . S
C1251 N1249 1.279 . S
C1251 C1250 1.358 . S
C1251 H1255 0.930 . S
C1252 C1250 1.356 . S
C1252 C1253 1.348 . S
C1253 C1248 1.353 . S
C1253 C1252 1.348 . S
C1253 H1305 0.929 . S
H1254 C1248 0.930 . S
H1255 C1251 0.930 . S
C1256 N1257 1.314 . S
C1256 C1258 1.353 . S
C1256 H1262 0.930 . S
N1257 Li1233 1.990 . S
N1257 C1256 1.314 . S
N1257 C1260 1.279 . S
C1258 C1256 1.353 . S
C1258 C1261 1.348 . S
C1258 H1306 0.929 . S
C1259 C1260 1.358 . S
C1259 C1261 1.356 . S
C1259 H1307 0.930 . S
C1260 N1257 1.279 . S
C1260 C1259 1.358 . S
C1260 H1263 0.930 . S
C1261 C1258 1.348 . S
C1261 C1259 1.356 . S
H1262 C1256 0.930 . S
H1263 C1260 0.930 . S
C1264 C1266 1.348 . S
C1264 C1267 1.356 . S
C1264 O1294 1.325 . S
N1265 C1268 1.314 . S
N1265 C1269 1.279 . S
C1266 C1264 1.348 . S
C1266 C1268 1.353 . S
C1266 H1308 0.929 . S
C1267 C1264 1.356 . S
C1267 C1269 1.358 . S
C1267 H1309 0.930 . S
C1268 N1265 1.314 . S
C1268 C1266 1.353 . S
C1268 H1310 0.930 . S
C1269 N1265 1.279 . S
C1269 C1267 1.358 . S
C1269 H1311 0.930 . S
C1270 C1271 1.348 . S
C1270 C1272 1.356 . S
C1270 O1295 1.325 . S
C1271 C1270 1.348 . S
C1271 C1273 1.353 . S
C1271 H1312 0.929 . S
C1272 C1270 1.356 . S
C1272 C1274 1.358 . S
C1272 H1313 0.930 . S
C1273 C1271 1.353 . S
C1273 N1275 1.314 . S
C1273 H1314 0.930 . S
C1274 C1272 1.358 . S
C1274 N1275 1.279 . S
C1274 H1315 0.930 . S
N1275 C1273 1.314 . S
N1275 C1274 1.279 . S
C1276 C1278 1.353 . S
C1276 N1279 1.314 . S
C1276 H1282 0.930 . S
C1277 N1279 1.279 . S
C1277 C1280 1.358 . S
C1277 H1283 0.930 . S
C1278 C1276 1.353 . S
C1278 C1281 1.348 . S
C1278 H1316 0.929 . S
N1279 Li1234 1.990 . S
N1279 C1276 1.314 . S
N1279 C1277 1.279 . S
C1280 C1277 1.358 . S
C1280 C1281 1.356 . S
C1280 H1317 0.930 . S
C1281 C1278 1.348 . S
C1281 C1280 1.356 . S
H1282 C1276 0.930 . S
H1283 C1277 0.930 . S
C1284 N1285 1.314 . S
C1284 C1286 1.353 . S
C1284 H1290 0.930 . S
N1285 Li1235 1.990 . S
N1285 C1284 1.314 . S
N1285 C1288 1.279 . S
C1286 C1284 1.353 . S
C1286 C1289 1.348 . S
C1286 H1318 0.929 . S
C1287 C1288 1.358 . S
C1287 C1289 1.356 . S
C1287 H1319 0.930 . S
C1288 N1285 1.279 . S
C1288 C1287 1.358 . S
C1288 H1291 0.930 . S
C1289 C1286 1.348 . S
C1289 C1287 1.356 . S
H1290 C1284 0.930 . S
H1291 C1288 0.930 . S
O1292 Li1232 1.956 . S
O1292 Li1233 1.970 . S
O1292 Li1234 1.961 . S
O1292 C1236 1.325 . S
O1293 Li1232 1.970 . S
O1293 Li1233 1.956 . S
O1293 Li1235 1.961 . S
O1293 C1242 1.325 . S
O1294 Li1232 1.961 . S
O1294 Li1234 1.956 . S
O1294 Li1235 1.970 . S
O1294 C1264 1.325 . S
O1295 Li1233 1.961 . S
O1295 Li1234 1.970 . S
O1295 Li1235 1.956 . S
O1295 C1270 1.325 . S
H1296 C1238 0.929 . S
H1297 C1239 0.930 . S
H1298 C1240 0.930 . S
H1299 C1241 0.930 . S
H1300 C1243 0.930 . S
H1301 C1245 0.929 . S
H1302 C1246 0.930 . S
H1303 C1247 0.930 . S
H1304 C1250 0.930 . S
H1305 C1253 0.929 . S
H1306 C1258 0.929 . S
H1307 C1259 0.930 . S
H1308 C1266 0.929 . S
H1309 C1267 0.930 . S
H1310 C1268 0.930 . S
H1311 C1269 0.930 . S
H1312 C1271 0.929 . S
H1313 C1272 0.930 . S
H1314 C1273 0.930 . S
H1315 C1274 0.930 . S
H1316 C1278 0.929 . S
H1317 C1280 0.930 . S
H1318 C1286 0.929 . S
H1319 C1287 0.930 . S
Li1320 N1337 1.990 . S
Li1320 O1380 1.956 . S
Li1320 O1381 1.970 . S
Li1320 O1382 1.961 . S
Li1321 N1345 1.990 . S
Li1321 O1380 1.970 . S
Li1321 O1381 1.956 . S
Li1321 O1383 1.961 . S
Li1322 N1367 1.990 . S
Li1322 O1380 1.961 . S
Li1322 O1382 1.956 . S
Li1322 O1383 1.970 . S
Li1323 N1373 1.990 . S
Li1323 O1381 1.961 . S
Li1323 O1382 1.970 . S
Li1323 O1383 1.956 . S
C1324 C1326 1.348 . S
C1324 C1327 1.356 . S
C1324 O1380 1.325 . S
N1325 C1328 1.314 . S
N1325 C1329 1.279 . S
C1326 C1324 1.348 . S
C1326 C1328 1.353 . S
C1326 H1384 0.929 . S
C1327 C1324 1.356 . S
C1327 C1329 1.358 . S
C1327 H1385 0.930 . S
C1328 N1325 1.314 . S
C1328 C1326 1.353 . S
C1328 H1386 0.930 . S
C1329 N1325 1.279 . S
C1329 C1327 1.358 . S
C1329 H1387 0.930 . S
C1330 C1333 1.348 . S
C1330 C1334 1.356 . S
C1330 O1381 1.325 . S
C1331 N1332 1.279 . S
C1331 C1334 1.358 . S
C1331 H1388 0.930 . S
N1332 C1331 1.279 . S
N1332 C1335 1.314 . S
C1333 C1330 1.348 . S
C1333 C1335 1.353 . S
C1333 H1389 0.929 . S
C1334 C1330 1.356 . S
C1334 C1331 1.358 . S
C1334 H1390 0.930 . S
C1335 N1332 1.314 . S
C1335 C1333 1.353 . S
C1335 H1391 0.930 . S
C1336 N1337 1.314 . S
C1336 C1341 1.353 . S
C1336 H1342 0.930 . S
N1337 Li1320 1.990 . S
N1337 C1336 1.314 . S
N1337 C1339 1.279 . S
C1338 C1339 1.358 . S
C1338 C1340 1.356 . S
C1338 H1392 0.930 . S
C1339 N1337 1.279 . S
C1339 C1338 1.358 . S
C1339 H1343 0.930 . S
C1340 C1338 1.356 . S
C1340 C1341 1.348 . S
C1341 C1336 1.353 . S
C1341 C1340 1.348 . S
C1341 H1393 0.929 . S
H1342 C1336 0.930 . S
H1343 C1339 0.930 . S
C1344 N1345 1.314 . S
C1344 C1346 1.353 . S
C1344 H1350 0.930 . S
N1345 Li1321 1.990 . S
N1345 C1344 1.314 . S
N1345 C1348 1.279 . S
C1346 C1344 1.353 . S
C1346 C1349 1.348 . S
C1346 H1394 0.929 . S
C1347 C1348 1.358 . S
C1347 C1349 1.356 . S
C1347 H1395 0.930 . S
C1348 N1345 1.279 . S
C1348 C1347 1.358 . S
C1348 H1351 0.930 . S
C1349 C1346 1.348 . S
C1349 C1347 1.356 . S
H1350 C1344 0.930 . S
H1351 C1348 0.930 . S
C1352 C1354 1.348 . S
C1352 C1355 1.356 . S
C1352 O1382 1.325 . S
N1353 C1356 1.314 . S
N1353 C1357 1.279 . S
C1354 C1352 1.348 . S
C1354 C1356 1.353 . S
C1354 H1396 0.929 . S
C1355 C1352 1.356 . S
C1355 C1357 1.358 . S
C1355 H1397 0.930 . S
C1356 N1353 1.314 . S
C1356 C1354 1.353 . S
C1356 H1398 0.930 . S
C1357 N1353 1.279 . S
C1357 C1355 1.358 . S
C1357 H1399 0.930 . S
C1358 C1359 1.348 . S
C1358 C1360 1.356 . S
C1358 O1383 1.325 . S
C1359 C1358 1.348 . S
C1359 C1361 1.353 . S
C1359 H1400 0.929 . S
C1360 C1358 1.356 . S
C1360 C1362 1.358 . S
C1360 H1401 0.930 . S
C1361 C1359 1.353 . S
C1361 N1363 1.314 . S
C1361 H1402 0.930 . S
C1362 C1360 1.358 . S
C1362 N1363 1.279 . S
C1362 H1403 0.930 . S
N1363 C1361 1.314 . S
N1363 C1362 1.279 . S
C1364 C1366 1.353 . S
C1364 N1367 1.314 . S
C1364 H1370 0.930 . S
C1365 N1367 1.279 . S
C1365 C1368 1.358 . S
C1365 H1371 0.930 . S
C1366 C1364 1.353 . S
C1366 C1369 1.348 . S
C1366 H1404 0.929 . S
N1367 Li1322 1.990 . S
N1367 C1364 1.314 . S
N1367 C1365 1.279 . S
C1368 C1365 1.358 . S
C1368 C1369 1.356 . S
C1368 H1405 0.930 . S
C1369 C1366 1.348 . S
C1369 C1368 1.356 . S
H1370 C1364 0.930 . S
H1371 C1365 0.930 . S
C1372 N1373 1.314 . S
C1372 C1374 1.353 . S
C1372 H1378 0.930 . S
N1373 Li1323 1.990 . S
N1373 C1372 1.314 . S
N1373 C1376 1.279 . S
C1374 C1372 1.353 . S
C1374 C1377 1.348 . S
C1374 H1406 0.929 . S
C1375 C1376 1.358 . S
C1375 C1377 1.356 . S
C1375 H1407 0.930 . S
C1376 N1373 1.279 . S
C1376 C1375 1.358 . S
C1376 H1379 0.930 . S
C1377 C1374 1.348 . S
C1377 C1375 1.356 . S
H1378 C1372 0.930 . S
H1379 C1376 0.930 . S
O1380 Li1320 1.956 . S
O1380 Li1321 1.970 . S
O1380 Li1322 1.961 . S
O1380 C1324 1.325 . S
O1381 Li1320 1.970 . S
O1381 Li1321 1.956 . S
O1381 Li1323 1.961 . S
O1381 C1330 1.325 . S
O1382 Li1320 1.961 . S
O1382 Li1322 1.956 . S
O1382 Li1323 1.970 . S
O1382 C1352 1.325 . S
O1383 Li1321 1.961 . S
O1383 Li1322 1.970 . S
O1383 Li1323 1.956 . S
O1383 C1358 1.325 . S
H1384 C1326 0.929 . S
H1385 C1327 0.930 . S
H1386 C1328 0.930 . S
H1387 C1329 0.930 . S
H1388 C1331 0.930 . S
H1389 C1333 0.929 . S
H1390 C1334 0.930 . S
H1391 C1335 0.930 . S
H1392 C1338 0.930 . S
H1393 C1341 0.929 . S
H1394 C1346 0.929 . S
H1395 C1347 0.930 . S
H1396 C1354 0.929 . S
H1397 C1355 0.930 . S
H1398 C1356 0.930 . S
H1399 C1357 0.930 . S
H1400 C1359 0.929 . S
H1401 C1360 0.930 . S
H1402 C1361 0.930 . S
H1403 C1362 0.930 . S
H1404 C1366 0.929 . S
H1405 C1368 0.930 . S
H1406 C1374 0.929 . S
H1407 C1375 0.930 . S
Li1408 N1425 1.990 . S
Li1408 O1468 1.956 . S
Li1408 O1469 1.970 . S
Li1408 O1470 1.961 . S
Li1409 N1433 1.990 . S
Li1409 O1468 1.970 . S
Li1409 O1469 1.956 . S
Li1409 O1471 1.961 . S
Li1410 N1455 1.990 . S
Li1410 O1468 1.961 . S
Li1410 O1470 1.956 . S
Li1410 O1471 1.970 . S
Li1411 N1461 1.990 1_545 S
Li1411 O1469 1.961 . S
Li1411 O1470 1.970 . S
Li1411 O1471 1.956 . S
C1412 C1414 1.348 . S
C1412 C1415 1.356 . S
C1412 O1468 1.325 . S
N1413 C1416 1.314 . S
N1413 C1417 1.279 . S
C1414 C1412 1.348 . S
C1414 C1416 1.353 . S
C1414 H1472 0.929 . S
C1415 C1412 1.356 . S
C1415 C1417 1.358 . S
C1415 H1473 0.930 . S
C1416 N1413 1.314 . S
C1416 C1414 1.353 . S
C1416 H1474 0.930 . S
C1417 N1413 1.279 . S
C1417 C1415 1.358 . S
C1417 H1475 0.930 . S
C1418 C1421 1.348 . S
C1418 C1422 1.356 . S
C1418 O1469 1.325 1_565 S
C1419 N1420 1.279 . S
C1419 C1422 1.358 . S
C1419 H1476 0.930 . S
N1420 C1419 1.279 . S
N1420 C1423 1.314 . S
C1421 C1418 1.348 . S
C1421 C1423 1.353 . S
C1421 H1477 0.929 1_565 S
C1422 C1418 1.356 . S
C1422 C1419 1.358 . S
C1422 H1478 0.930 . S
C1423 N1420 1.314 . S
C1423 C1421 1.353 . S
C1423 H1479 0.930 . S
C1424 N1425 1.314 . S
C1424 C1429 1.353 . S
C1424 H1430 0.930 1_545 S
N1425 Li1408 1.990 . S
N1425 C1424 1.314 . S
N1425 C1427 1.279 . S
C1426 C1427 1.358 . S
C1426 C1428 1.356 . S
C1426 H1480 0.930 . S
C1427 N1425 1.279 . S
C1427 C1426 1.358 . S
C1427 H1431 0.930 . S
C1428 C1426 1.356 . S
C1428 C1429 1.348 . S
C1429 C1424 1.353 . S
C1429 C1428 1.348 . S
C1429 H1481 0.929 1_545 S
H1430 C1424 0.930 1_565 S
H1431 C1427 0.930 . S
C1432 N1433 1.314 . S
C1432 C1434 1.353 . S
C1432 H1438 0.930 . S
N1433 Li1409 1.990 . S
N1433 C1432 1.314 . S
N1433 C1436 1.279 . S
C1434 C1432 1.353 . S
C1434 C1437 1.348 . S
C1434 H1482 0.929 . S
C1435 C1436 1.358 . S
C1435 C1437 1.356 . S
C1435 H1483 0.930 . S
C1436 N1433 1.279 . S
C1436 C1435 1.358 . S
C1436 H1439 0.930 . S
C1437 C1434 1.348 . S
C1437 C1435 1.356 . S
H1438 C1432 0.930 . S
H1439 C1436 0.930 . S
C1440 C1442 1.348 1_545 S
C1440 C1443 1.356 . S
C1440 O1470 1.325 . S
N1441 C1444 1.314 . S
N1441 C1445 1.279 1_565 S
C1442 C1440 1.348 1_565 S
C1442 C1444 1.353 . S
C1442 H1484 0.929 . S
C1443 C1440 1.356 . S
C1443 C1445 1.358 . S
C1443 H1485 0.930 . S
C1444 N1441 1.314 . S
C1444 C1442 1.353 . S
C1444 H1486 0.930 . S
C1445 N1441 1.279 1_545 S
C1445 C1443 1.358 . S
C1445 H1487 0.930 . S
C1446 C1447 1.348 . S
C1446 C1448 1.356 . S
C1446 O1471 1.325 . S
C1447 C1446 1.348 . S
C1447 C1449 1.353 . S
C1447 H1488 0.929 . S
C1448 C1446 1.356 . S
C1448 C1450 1.358 . S
C1448 H1489 0.930 . S
C1449 C1447 1.353 . S
C1449 N1451 1.314 . S
C1449 H1490 0.930 . S
C1450 C1448 1.358 . S
C1450 N1451 1.279 . S
C1450 H1491 0.930 . S
N1451 C1449 1.314 . S
N1451 C1450 1.279 . S
C1452 C1454 1.353 . S
C1452 N1455 1.314 . S
C1452 H1458 0.930 . S
C1453 N1455 1.279 . S
C1453 C1456 1.358 . S
C1453 H1459 0.930 . S
C1454 C1452 1.353 . S
C1454 C1457 1.348 . S
C1454 H1492 0.929 . S
N1455 Li1410 1.990 . S
N1455 C1452 1.314 . S
N1455 C1453 1.279 . S
C1456 C1453 1.358 . S
C1456 C1457 1.356 . S
C1456 H1493 0.930 . S
C1457 C1454 1.348 . S
C1457 C1456 1.356 . S
H1458 C1452 0.930 . S
H1459 C1453 0.930 . S
C1460 N1461 1.314 . S
C1460 C1462 1.353 . S
C1460 H1466 0.930 . S
N1461 Li1411 1.990 1_565 S
N1461 C1460 1.314 . S
N1461 C1464 1.279 . S
C1462 C1460 1.353 . S
C1462 C1465 1.348 . S
C1462 H1494 0.929 . S
C1463 C1464 1.358 . S
C1463 C1465 1.356 . S
C1463 H1495 0.930 . S
C1464 N1461 1.279 . S
C1464 C1463 1.358 . S
C1464 H1467 0.930 . S
C1465 C1462 1.348 . S
C1465 C1463 1.356 . S
H1466 C1460 0.930 . S
H1467 C1464 0.930 . S
O1468 Li1408 1.956 . S
O1468 Li1409 1.970 . S
O1468 Li1410 1.961 . S
O1468 C1412 1.325 . S
O1469 Li1408 1.970 . S
O1469 Li1409 1.956 . S
O1469 Li1411 1.961 . S
O1469 C1418 1.325 1_545 S
O1470 Li1408 1.961 . S
O1470 Li1410 1.956 . S
O1470 Li1411 1.970 . S
O1470 C1440 1.325 . S
O1471 Li1409 1.961 . S
O1471 Li1410 1.970 . S
O1471 Li1411 1.956 . S
O1471 C1446 1.325 . S
H1472 C1414 0.929 . S
H1473 C1415 0.930 . S
H1474 C1416 0.930 . S
H1475 C1417 0.930 . S
H1476 C1419 0.930 . S
H1477 C1421 0.929 1_545 S
H1478 C1422 0.930 . S
H1479 C1423 0.930 . S
H1480 C1426 0.930 . S
H1481 C1429 0.929 1_565 S
H1482 C1434 0.929 . S
H1483 C1435 0.930 . S
H1484 C1442 0.929 . S
H1485 C1443 0.930 . S
H1486 C1444 0.930 . S
H1487 C1445 0.930 . S
H1488 C1447 0.929 . S
H1489 C1448 0.930 . S
H1490 C1449 0.930 . S
H1491 C1450 0.930 . S
H1492 C1454 0.929 . S
H1493 C1456 0.930 . S
H1494 C1462 0.929 . S
H1495 C1463 0.930 . S
Li1496 N1513 1.990 . S
Li1496 O1556 1.956 . S
Li1496 O1557 1.970 . S
Li1496 O1558 1.961 . S
Li1497 N1521 1.990 . S
Li1497 O1556 1.970 . S
Li1497 O1557 1.956 . S
Li1497 O1559 1.961 . S
Li1498 N1543 1.990 1_655 S
Li1498 O1556 1.961 . S
Li1498 O1558 1.956 . S
Li1498 O1559 1.970 . S
Li1499 N1549 1.990 . S
Li1499 O1557 1.961 . S
Li1499 O1558 1.970 . S
Li1499 O1559 1.956 . S
C1500 C1502 1.348 . S
C1500 C1503 1.356 . S
C1500 O1556 1.325 1_455 S
N1501 C1504 1.314 . S
N1501 C1505 1.279 . S
C1502 C1500 1.348 . S
C1502 C1504 1.353 . S
C1502 H1560 0.929 1_455 S
C1503 C1500 1.356 . S
C1503 C1505 1.358 . S
C1503 H1561 0.930 . S
C1504 N1501 1.314 . S
C1504 C1502 1.353 . S
C1504 H1562 0.930 . S
C1505 N1501 1.279 . S
C1505 C1503 1.358 . S
C1505 H1563 0.930 . S
C1506 C1509 1.348 . S
C1506 C1510 1.356 . S
C1506 O1557 1.325 . S
C1507 N1508 1.279 . S
C1507 C1510 1.358 . S
C1507 H1564 0.930 . S
N1508 C1507 1.279 . S
N1508 C1511 1.314 . S
C1509 C1506 1.348 . S
C1509 C1511 1.353 . S
C1509 H1565 0.929 . S
C1510 C1506 1.356 . S
C1510 C1507 1.358 . S
C1510 H1566 0.930 . S
C1511 N1508 1.314 . S
C1511 C1509 1.353 . S
C1511 H1567 0.930 . S
C1512 N1513 1.314 . S
C1512 C1517 1.353 . S
C1512 H1518 0.930 . S
N1513 Li1496 1.990 . S
N1513 C1512 1.314 . S
N1513 C1515 1.279 . S
C1514 C1515 1.358 . S
C1514 C1516 1.356 . S
C1514 H1568 0.930 . S
C1515 N1513 1.279 . S
C1515 C1514 1.358 . S
C1515 H1519 0.930 . S
C1516 C1514 1.356 . S
C1516 C1517 1.348 . S
C1517 C1512 1.353 . S
C1517 C1516 1.348 . S
C1517 H1569 0.929 . S
H1518 C1512 0.930 . S
H1519 C1515 0.930 . S
C1520 N1521 1.314 . S
C1520 C1522 1.353 . S
C1520 H1526 0.930 1_655 S
N1521 Li1497 1.990 . S
N1521 C1520 1.314 . S
N1521 C1524 1.279 . S
C1522 C1520 1.353 . S
C1522 C1525 1.348 . S
C1522 H1570 0.929 1_655 S
C1523 C1524 1.358 . S
C1523 C1525 1.356 . S
C1523 H1571 0.930 . S
C1524 N1521 1.279 . S
C1524 C1523 1.358 . S
C1524 H1527 0.930 . S
C1525 C1522 1.348 . S
C1525 C1523 1.356 . S
H1526 C1520 0.930 1_455 S
H1527 C1524 0.930 . S
C1528 C1530 1.348 . S
C1528 C1531 1.356 . S
C1528 O1558 1.325 . S
N1529 C1532 1.314 . S
N1529 C1533 1.279 . S
C1530 C1528 1.348 . S
C1530 C1532 1.353 . S
C1530 H1572 0.929 . S
C1531 C1528 1.356 . S
C1531 C1533 1.358 . S
C1531 H1573 0.930 . S
C1532 N1529 1.314 . S
C1532 C1530 1.353 . S
C1532 H1574 0.930 . S
C1533 N1529 1.279 . S
C1533 C1531 1.358 . S
C1533 H1575 0.930 . S
C1534 C1535 1.348 1_655 S
C1534 C1536 1.356 . S
C1534 O1559 1.325 . S
C1535 C1534 1.348 1_455 S
C1535 C1537 1.353 . S
C1535 H1576 0.929 . S
C1536 C1534 1.356 . S
C1536 C1538 1.358 . S
C1536 H1577 0.930 . S
C1537 C1535 1.353 . S
C1537 N1539 1.314 . S
C1537 H1578 0.930 . S
C1538 C1536 1.358 . S
C1538 N1539 1.279 1_655 S
C1538 H1579 0.930 . S
N1539 C1537 1.314 . S
N1539 C1538 1.279 1_455 S
C1540 C1542 1.353 . S
C1540 N1543 1.314 . S
C1540 H1546 0.930 . S
C1541 N1543 1.279 . S
C1541 C1544 1.358 . S
C1541 H1547 0.930 . S
C1542 C1540 1.353 . S
C1542 C1545 1.348 . S
C1542 H1580 0.929 . S
N1543 Li1498 1.990 1_455 S
N1543 C1540 1.314 . S
N1543 C1541 1.279 . S
C1544 C1541 1.358 . S
C1544 C1545 1.356 . S
C1544 H1581 0.930 . S
C1545 C1542 1.348 . S
C1545 C1544 1.356 . S
H1546 C1540 0.930 . S
H1547 C1541 0.930 . S
C1548 N1549 1.314 . S
C1548 C1550 1.353 . S
C1548 H1554 0.930 . S
N1549 Li1499 1.990 . S
N1549 C1548 1.314 . S
N1549 C1552 1.279 . S
C1550 C1548 1.353 . S
C1550 C1553 1.348 . S
C1550 H1582 0.929 . S
C1551 C1552 1.358 . S
C1551 C1553 1.356 . S
C1551 H1583 0.930 . S
C1552 N1549 1.279 . S
C1552 C1551 1.358 . S
C1552 H1555 0.930 . S
C1553 C1550 1.348 . S
C1553 C1551 1.356 . S
H1554 C1548 0.930 . S
H1555 C1552 0.930 . S
O1556 Li1496 1.956 . S
O1556 Li1497 1.970 . S
O1556 Li1498 1.961 . S
O1556 C1500 1.325 1_655 S
O1557 Li1496 1.970 . S
O1557 Li1497 1.956 . S
O1557 Li1499 1.961 . S
O1557 C1506 1.325 . S
O1558 Li1496 1.961 . S
O1558 Li1498 1.956 . S
O1558 Li1499 1.970 . S
O1558 C1528 1.325 . S
O1559 Li1497 1.961 . S
O1559 Li1498 1.970 . S
O1559 Li1499 1.956 . S
O1559 C1534 1.325 . S
H1560 C1502 0.929 1_655 S
H1561 C1503 0.930 . S
H1562 C1504 0.930 . S
H1563 C1505 0.930 . S
H1564 C1507 0.930 . S
H1565 C1509 0.929 . S
H1566 C1510 0.930 . S
H1567 C1511 0.930 . S
H1568 C1514 0.930 . S
H1569 C1517 0.929 . S
H1570 C1522 0.929 1_455 S
H1571 C1523 0.930 . S
H1572 C1530 0.929 . S
H1573 C1531 0.930 . S
H1574 C1532 0.930 . S
H1575 C1533 0.930 . S
H1576 C1535 0.929 . S
H1577 C1536 0.930 . S
H1578 C1537 0.930 . S
H1579 C1538 0.930 . S
H1580 C1542 0.929 . S
H1581 C1544 0.930 . S
H1582 C1550 0.929 . S
H1583 C1551 0.930 . S
H1584 C1592 0.930 . S
H1585 C1595 0.930 . S
H1586 C1597 0.930 . S
H1587 C1598 0.970 . S
H1588 C1598 0.970 . S
H1589 C1600 0.930 . S
H1590 C1602 0.930 . S
H1591 C1604 0.930 . S
C1592 H1584 0.930 . S
C1592 C1593 1.382 . S
C1592 C1594 1.426 . S
C1593 C1592 1.382 . S
C1593 C1597 1.389 . S
C1594 C1592 1.426 . S
C1594 C1595 1.375 . S
C1594 C1598 1.532 . S
C1595 H1585 0.930 . S
C1595 C1594 1.375 . S
C1595 C1596 1.416 . S
C1596 C1595 1.416 . S
C1596 C1597 1.371 . S
C1597 H1586 0.930 . S
C1597 C1593 1.389 . S
C1597 C1596 1.371 . S
C1598 H1587 0.970 . S
C1598 H1588 0.970 . S
C1598 C1594 1.532 . S
C1598 C1599 1.499 . S
C1599 C1598 1.499 . S
C1599 C1600 1.370 . S
C1599 C1604 1.415 . S
C1600 H1589 0.930 . S
C1600 C1599 1.370 . S
C1600 C1601 1.407 . S
C1601 C1600 1.407 . S
C1601 C1602 1.365 . S
C1602 H1590 0.930 . S
C1602 C1601 1.365 . S
C1602 C1603 1.393 . S
C1603 C1602 1.393 . S
C1603 C1604 1.387 . S
C1604 H1591 0.930 . S
C1604 C1599 1.415 . S
C1604 C1603 1.387 . S
H1605 C1613 0.930 . S
H1606 C1616 0.930 . S
H1607 C1618 0.930 . S
H1608 C1619 0.970 . S
H1609 C1619 0.970 . S
H1610 C1621 0.930 . S
H1611 C1623 0.930 . S
H1612 C1625 0.930 . S
C1613 H1605 0.930 . S
C1613 C1614 1.382 . S
C1613 C1615 1.426 . S
C1614 C1613 1.382 . S
C1614 C1618 1.389 . S
C1615 C1613 1.426 . S
C1615 C1616 1.375 . S
C1615 C1619 1.532 . S
C1616 H1606 0.930 . S
C1616 C1615 1.375 . S
C1616 C1617 1.416 . S
C1617 C1616 1.416 . S
C1617 C1618 1.371 . S
C1618 H1607 0.930 . S
C1618 C1614 1.389 . S
C1618 C1617 1.371 . S
C1619 H1608 0.970 . S
C1619 H1609 0.970 . S
C1619 C1615 1.532 . S
C1619 C1620 1.499 . S
C1620 C1619 1.499 . S
C1620 C1621 1.370 . S
C1620 C1625 1.415 . S
C1621 H1610 0.930 . S
C1621 C1620 1.370 . S
C1621 C1622 1.407 . S
C1622 C1621 1.407 . S
C1622 C1623 1.365 . S
C1623 H1611 0.930 . S
C1623 C1622 1.365 . S
C1623 C1624 1.393 . S
C1624 C1623 1.393 . S
C1624 C1625 1.387 . S
C1625 H1612 0.930 . S
C1625 C1620 1.415 . S
C1625 C1624 1.387 . S
H1626 C1634 0.930 . S
H1627 C1637 0.930 . S
H1628 C1639 0.930 . S
H1629 C1640 0.970 . S
H1630 C1640 0.970 . S
H1631 C1642 0.930 . S
H1632 C1644 0.930 . S
H1633 C1646 0.930 . S
C1634 H1626 0.930 . S
C1634 C1635 1.382 . S
C1634 C1636 1.426 . S
C1635 C1634 1.382 . S
C1635 C1639 1.389 . S
C1636 C1634 1.426 . S
C1636 C1637 1.375 . S
C1636 C1640 1.532 . S
C1637 H1627 0.930 . S
C1637 C1636 1.375 . S
C1637 C1638 1.416 . S
C1638 C1637 1.416 . S
C1638 C1639 1.371 . S
C1639 H1628 0.930 . S
C1639 C1635 1.389 . S
C1639 C1638 1.371 . S
C1640 H1629 0.970 . S
C1640 H1630 0.970 . S
C1640 C1636 1.532 . S
C1640 C1641 1.499 . S
C1641 C1640 1.499 . S
C1641 C1642 1.370 . S
C1641 C1646 1.415 . S
C1642 H1631 0.930 . S
C1642 C1641 1.370 . S
C1642 C1643 1.407 . S
C1643 C1642 1.407 . S
C1643 C1644 1.365 . S
C1644 H1632 0.930 . S
C1644 C1643 1.365 . S
C1644 C1645 1.393 . S
C1645 C1644 1.393 . S
C1645 C1646 1.387 . S
C1646 H1633 0.930 . S
C1646 C1641 1.415 . S
C1646 C1645 1.387 . S
H1647 C1655 0.930 . S
H1648 C1658 0.930 . S
H1649 C1660 0.930 . S
H1650 C1661 0.970 . S
H1651 C1661 0.970 . S
H1652 C1663 0.930 . S
H1653 C1665 0.930 . S
H1654 C1667 0.930 . S
C1655 H1647 0.930 . S
C1655 C1656 1.382 . S
C1655 C1657 1.426 . S
C1656 C1655 1.382 . S
C1656 C1660 1.389 . S
C1657 C1655 1.426 . S
C1657 C1658 1.375 . S
C1657 C1661 1.532 . S
C1658 H1648 0.930 . S
C1658 C1657 1.375 . S
C1658 C1659 1.416 . S
C1659 C1658 1.416 . S
C1659 C1660 1.371 . S
C1660 H1649 0.930 . S
C1660 C1656 1.389 . S
C1660 C1659 1.371 . S
C1661 H1650 0.970 . S
C1661 H1651 0.970 . S
C1661 C1657 1.532 . S
C1661 C1662 1.499 . S
C1662 C1661 1.499 . S
C1662 C1663 1.370 . S
C1662 C1667 1.415 . S
C1663 H1652 0.930 . S
C1663 C1662 1.370 . S
C1663 C1664 1.407 . S
C1664 C1663 1.407 . S
C1664 C1665 1.365 . S
C1665 H1653 0.930 . S
C1665 C1664 1.365 . S
C1665 C1666 1.393 . S
C1666 C1665 1.393 . S
C1666 C1667 1.387 . S
C1667 H1654 0.930 . S
C1667 C1662 1.415 . S
C1667 C1666 1.387 . S
H1668 C1676 0.930 . S
H1669 C1679 0.930 . S
H1670 C1681 0.930 . S
H1671 C1682 0.970 . S
H1672 C1682 0.970 . S
H1673 C1684 0.930 . S
H1674 C1686 0.930 . S
H1675 C1688 0.930 . S
C1676 H1668 0.930 . S
C1676 C1677 1.382 . S
C1676 C1678 1.426 . S
C1677 C1676 1.382 . S
C1677 C1681 1.389 . S
C1678 C1676 1.426 . S
C1678 C1679 1.375 . S
C1678 C1682 1.532 . S
C1679 H1669 0.930 . S
C1679 C1678 1.375 . S
C1679 C1680 1.416 . S
C1680 C1679 1.416 . S
C1680 C1681 1.371 . S
C1681 H1670 0.930 . S
C1681 C1677 1.389 . S
C1681 C1680 1.371 . S
C1682 H1671 0.970 . S
C1682 H1672 0.970 . S
C1682 C1678 1.532 . S
C1682 C1683 1.499 . S
C1683 C1682 1.499 . S
C1683 C1684 1.370 . S
C1683 C1688 1.415 . S
C1684 H1673 0.930 . S
C1684 C1683 1.370 . S
C1684 C1685 1.407 . S
C1685 C1684 1.407 . S
C1685 C1686 1.365 . S
C1686 H1674 0.930 . S
C1686 C1685 1.365 . S
C1686 C1687 1.393 . S
C1687 C1686 1.393 . S
C1687 C1688 1.387 . S
C1688 H1675 0.930 . S
C1688 C1683 1.415 . S
C1688 C1687 1.387 . S
H1689 C1697 0.930 . S
H1690 C1700 0.930 . S
H1691 C1702 0.930 . S
H1692 C1703 0.970 . S
H1693 C1703 0.970 . S
H1694 C1705 0.930 . S
H1695 C1707 0.930 . S
H1696 C1709 0.930 . S
C1697 H1689 0.930 . S
C1697 C1698 1.382 . S
C1697 C1699 1.426 . S
C1698 C1697 1.382 . S
C1698 C1702 1.389 . S
C1699 C1697 1.426 . S
C1699 C1700 1.375 . S
C1699 C1703 1.532 . S
C1700 H1690 0.930 . S
C1700 C1699 1.375 . S
C1700 C1701 1.416 . S
C1701 C1700 1.416 . S
C1701 C1702 1.371 . S
C1702 H1691 0.930 . S
C1702 C1698 1.389 . S
C1702 C1701 1.371 . S
C1703 H1692 0.970 . S
C1703 H1693 0.970 . S
C1703 C1699 1.532 . S
C1703 C1704 1.499 . S
C1704 C1703 1.499 . S
C1704 C1705 1.370 . S
C1704 C1709 1.415 . S
C1705 H1694 0.930 . S
C1705 C1704 1.370 . S
C1705 C1706 1.407 . S
C1706 C1705 1.407 . S
C1706 C1707 1.365 . S
C1707 H1695 0.930 . S
C1707 C1706 1.365 . S
C1707 C1708 1.393 . S
C1708 C1707 1.393 . S
C1708 C1709 1.387 . S
C1709 H1696 0.930 . S
C1709 C1704 1.415 . S
C1709 C1708 1.387 . S
H1710 C1718 0.930 . S
H1711 C1721 0.930 . S
H1712 C1723 0.930 . S
H1713 C1724 0.970 . S
H1714 C1724 0.970 . S
H1715 C1726 0.930 . S
H1716 C1728 0.930 . S
H1717 C1730 0.930 . S
C1718 H1710 0.930 . S
C1718 C1719 1.382 . S
C1718 C1720 1.426 . S
C1719 C1718 1.382 . S
C1719 C1723 1.389 . S
C1720 C1718 1.426 . S
C1720 C1721 1.375 . S
C1720 C1724 1.532 . S
C1721 H1711 0.930 . S
C1721 C1720 1.375 . S
C1721 C1722 1.416 . S
C1722 C1721 1.416 . S
C1722 C1723 1.371 . S
C1723 H1712 0.930 . S
C1723 C1719 1.389 . S
C1723 C1722 1.371 . S
C1724 H1713 0.970 . S
C1724 H1714 0.970 . S
C1724 C1720 1.532 . S
C1724 C1725 1.499 . S
C1725 C1724 1.499 . S
C1725 C1726 1.370 . S
C1725 C1730 1.415 . S
C1726 H1715 0.930 . S
C1726 C1725 1.370 . S
C1726 C1727 1.407 . S
C1727 C1726 1.407 . S
C1727 C1728 1.365 . S
C1728 H1716 0.930 . S
C1728 C1727 1.365 . S
C1728 C1729 1.393 . S
C1729 C1728 1.393 . S
C1729 C1730 1.387 . S
C1730 H1717 0.930 . S
C1730 C1725 1.415 . S
C1730 C1729 1.387 . S
H1731 C1739 0.930 . S
H1732 C1742 0.930 . S
H1733 C1744 0.930 . S
H1734 C1745 0.970 . S
H1735 C1745 0.970 . S
H1736 C1747 0.930 . S
H1737 C1749 0.930 . S
H1738 C1751 0.930 . S
C1739 H1731 0.930 . S
C1739 C1740 1.382 . S
C1739 C1741 1.426 . S
C1740 C1739 1.382 . S
C1740 C1744 1.389 . S
C1741 C1739 1.426 . S
C1741 C1742 1.375 . S
C1741 C1745 1.532 . S
C1742 H1732 0.930 . S
C1742 C1741 1.375 . S
C1742 C1743 1.416 . S
C1743 C1742 1.416 . S
C1743 C1744 1.371 . S
C1744 H1733 0.930 . S
C1744 C1740 1.389 . S
C1744 C1743 1.371 . S
C1745 H1734 0.970 . S
C1745 H1735 0.970 . S
C1745 C1741 1.532 . S
C1745 C1746 1.499 . S
C1746 C1745 1.499 . S
C1746 C1747 1.370 . S
C1746 C1751 1.415 . S
C1747 H1736 0.930 . S
C1747 C1746 1.370 . S
C1747 C1748 1.407 . S
C1748 C1747 1.407 . S
C1748 C1749 1.365 . S
C1749 H1737 0.930 . S
C1749 C1748 1.365 . S
C1749 C1750 1.393 . S
C1750 C1749 1.393 . S
C1750 C1751 1.387 . S
C1751 H1738 0.930 . S
C1751 C1746 1.415 . S
C1751 C1750 1.387 . S
H1752 C1760 0.930 . S
H1753 C1763 0.930 . S
H1754 C1765 0.930 . S
H1755 C1766 0.970 . S
H1756 C1766 0.970 . S
H1757 C1768 0.930 . S
H1758 C1770 0.930 . S
H1759 C1772 0.930 . S
C1760 H1752 0.930 . S
C1760 C1761 1.382 . S
C1760 C1762 1.426 . S
C1761 C1760 1.382 . S
C1761 C1765 1.389 . S
C1762 C1760 1.426 . S
C1762 C1763 1.375 . S
C1762 C1766 1.532 . S
C1763 H1753 0.930 . S
C1763 C1762 1.375 . S
C1763 C1764 1.416 . S
C1764 C1763 1.416 . S
C1764 C1765 1.371 . S
C1765 H1754 0.930 . S
C1765 C1761 1.389 . S
C1765 C1764 1.371 . S
C1766 H1755 0.970 . S
C1766 H1756 0.970 . S
C1766 C1762 1.532 . S
C1766 C1767 1.499 . S
C1767 C1766 1.499 . S
C1767 C1768 1.370 . S
C1767 C1772 1.415 . S
C1768 H1757 0.930 . S
C1768 C1767 1.370 . S
C1768 C1769 1.407 . S
C1769 C1768 1.407 . S
C1769 C1770 1.365 . S
C1770 H1758 0.930 . S
C1770 C1769 1.365 . S
C1770 C1771 1.393 . S
C1771 C1770 1.393 . S
C1771 C1772 1.387 . S
C1772 H1759 0.930 . S
C1772 C1767 1.415 . S
C1772 C1771 1.387 . S
H1773 C1781 0.930 . S
H1774 C1784 0.930 . S
H1775 C1786 0.930 . S
H1776 C1787 0.970 . S
H1777 C1787 0.970 . S
H1778 C1789 0.930 . S
H1779 C1791 0.930 . S
H1780 C1793 0.930 . S
C1781 H1773 0.930 . S
C1781 C1782 1.382 . S
C1781 C1783 1.426 . S
C1782 C1781 1.382 . S
C1782 C1786 1.389 1_455 S
C1783 C1781 1.426 . S
C1783 C1784 1.375 . S
C1783 C1787 1.532 . S
C1784 H1774 0.930 . S
C1784 C1783 1.375 . S
C1784 C1785 1.416 . S
C1785 C1784 1.416 . S
C1785 C1786 1.371 1_455 S
C1786 H1775 0.930 . S
C1786 C1782 1.389 1_655 S
C1786 C1785 1.371 1_655 S
C1787 H1776 0.970 . S
C1787 H1777 0.970 . S
C1787 C1783 1.532 . S
C1787 C1788 1.499 . S
C1788 C1787 1.499 . S
C1788 C1789 1.370 . S
C1788 C1793 1.415 . S
C1789 H1778 0.930 . S
C1789 C1788 1.370 . S
C1789 C1790 1.409 . S
C1790 C1789 1.409 . S
C1790 C1791 1.368 1_455 S
C1791 H1779 0.930 . S
C1791 C1790 1.368 1_655 S
C1791 C1792 1.393 1_655 S
C1792 C1791 1.393 1_455 S
C1792 C1793 1.387 . S
C1793 H1780 0.930 . S
C1793 C1788 1.415 . S
C1793 C1792 1.387 . S
H1794 C1802 0.930 . S
H1795 C1805 0.930 . S
H1796 C1807 0.930 . S
H1797 C1808 0.970 . S
H1798 C1808 0.970 . S
H1799 C1810 0.930 . S
H1800 C1812 0.930 . S
H1801 C1814 0.930 . S
C1802 H1794 0.930 . S
C1802 C1803 1.382 . S
C1802 C1804 1.426 . S
C1803 C1802 1.382 . S
C1803 C1807 1.389 . S
C1804 C1802 1.426 . S
C1804 C1805 1.375 . S
C1804 C1808 1.532 . S
C1805 H1795 0.930 . S
C1805 C1804 1.375 . S
C1805 C1806 1.416 . S
C1806 C1805 1.416 . S
C1806 C1807 1.371 . S
C1807 H1796 0.930 . S
C1807 C1803 1.389 . S
C1807 C1806 1.371 . S
C1808 H1797 0.970 . S
C1808 H1798 0.970 . S
C1808 C1804 1.532 . S
C1808 C1809 1.499 . S
C1809 C1808 1.499 . S
C1809 C1810 1.370 . S
C1809 C1814 1.415 . S
C1810 H1799 0.930 . S
C1810 C1809 1.370 . S
C1810 C1811 1.407 . S
C1811 C1810 1.407 . S
C1811 C1812 1.365 . S
C1812 H1800 0.930 . S
C1812 C1811 1.365 . S
C1812 C1813 1.393 . S
C1813 C1812 1.393 . S
C1813 C1814 1.387 . S
C1814 H1801 0.930 . S
C1814 C1809 1.415 . S
C1814 C1813 1.387 . S
H1815 C1823 0.930 . S
H1816 C1826 0.930 . S
H1817 C1828 0.930 . S
H1818 C1829 0.970 . S
H1819 C1829 0.970 . S
H1820 C1831 0.930 . S
H1821 C1833 0.930 . S
H1822 C1835 0.930 . S
C1823 H1815 0.930 . S
C1823 C1824 1.382 . S
C1823 C1825 1.426 . S
C1824 C1823 1.382 . S
C1824 C1828 1.389 1_565 S
C1825 C1823 1.426 . S
C1825 C1826 1.375 . S
C1825 C1829 1.532 . S
C1826 H1816 0.930 . S
C1826 C1825 1.375 . S
C1826 C1827 1.416 . S
C1827 C1826 1.416 . S
C1827 C1828 1.371 1_565 S
C1828 H1817 0.930 . S
C1828 C1824 1.389 1_545 S
C1828 C1827 1.371 1_545 S
C1829 H1818 0.970 . S
C1829 H1819 0.970 . S
C1829 C1825 1.532 . S
C1829 C1830 1.499 . S
C1830 C1829 1.499 . S
C1830 C1831 1.370 . S
C1830 C1835 1.415 . S
C1831 H1820 0.930 . S
C1831 C1830 1.370 . S
C1831 C1832 1.427 . S
C1832 C1831 1.427 . S
C1832 C1833 1.357 1_565 S
C1833 H1821 0.930 . S
C1833 C1832 1.357 1_545 S
C1833 C1834 1.393 1_545 S
C1834 C1833 1.393 1_565 S
C1834 C1835 1.387 . S
C1835 H1822 0.930 . S
C1835 C1830 1.415 . S
C1835 C1834 1.387 . S
H1836 C1844 0.930 . S
H1837 C1847 0.930 . S
H1838 C1849 0.930 . S
H1839 C1850 0.970 . S
H1840 C1850 0.970 . S
H1841 C1852 0.930 . S
H1842 C1854 0.930 . S
H1843 C1856 0.930 . S
C1844 H1836 0.930 . S
C1844 C1845 1.382 . S
C1844 C1846 1.426 . S
C1845 C1844 1.382 . S
C1845 C1849 1.389 1_565 S
C1846 C1844 1.426 . S
C1846 C1847 1.375 . S
C1846 C1850 1.532 . S
C1847 H1837 0.930 . S
C1847 C1846 1.375 . S
C1847 C1848 1.474 . S
C1848 C1847 1.474 . S
C1848 C1849 1.350 1_565 S
C1849 H1838 0.930 . S
C1849 C1845 1.389 1_545 S
C1849 C1848 1.350 1_545 S
C1850 H1839 0.970 . S
C1850 H1840 0.970 . S
C1850 C1846 1.532 . S
C1850 C1851 1.499 . S
C1851 C1850 1.499 . S
C1851 C1852 1.370 . S
C1851 C1856 1.415 . S
C1852 H1841 0.930 . S
C1852 C1851 1.370 . S
C1852 C1853 1.407 . S
C1853 C1852 1.407 . S
C1853 C1854 1.365 1_565 S
C1854 H1842 0.930 . S
C1854 C1853 1.365 1_545 S
C1854 C1855 1.393 1_545 S
C1855 C1854 1.393 1_565 S
C1855 C1856 1.387 . S
C1856 H1843 0.930 . S
C1856 C1851 1.415 . S
C1856 C1855 1.387 . S
H1857 C1865 0.930 . S
H1858 C1868 0.930 . S
H1859 C1870 0.930 . S
H1860 C1871 0.970 . S
H1861 C1871 0.970 . S
H1862 C1873 0.930 . S
H1863 C1875 0.930 . S
H1864 C1877 0.930 . S
C1865 H1857 0.930 . S
C1865 C1866 1.382 . S
C1865 C1867 1.426 . S
C1866 C1865 1.382 . S
C1866 C1870 1.389 1_455 S
C1867 C1865 1.426 . S
C1867 C1868 1.375 . S
C1867 C1871 1.532 . S
C1868 H1858 0.930 . S
C1868 C1867 1.375 . S
C1868 C1869 1.420 . S
C1869 C1868 1.420 . S
C1869 C1870 1.380 1_455 S
C1870 H1859 0.930 . S
C1870 C1866 1.389 1_655 S
C1870 C1869 1.380 1_655 S
C1871 H1860 0.970 . S
C1871 H1861 0.970 . S
C1871 C1867 1.532 . S
C1871 C1872 1.499 . S
C1872 C1871 1.499 . S
C1872 C1873 1.370 . S
C1872 C1877 1.415 . S
C1873 H1862 0.930 . S
C1873 C1872 1.370 . S
C1873 C1874 1.407 . S
C1874 C1873 1.407 . S
C1874 C1875 1.365 1_455 S
C1875 H1863 0.930 . S
C1875 C1874 1.365 1_655 S
C1875 C1876 1.393 1_655 S
C1876 C1875 1.393 1_455 S
C1876 C1877 1.387 . S
C1877 H1864 0.930 . S
C1877 C1872 1.415 . S
C1877 C1876 1.387 . S
H1878 C1886 0.930 . S
H1879 C1889 0.930 . S
H1880 C1891 0.930 . S
H1881 C1892 0.970 . S
H1882 C1892 0.970 . S
H1883 C1894 0.930 . S
H1884 C1896 0.930 . S
H1885 C1898 0.930 . S
C1886 H1878 0.930 . S
C1886 C1887 1.382 . S
C1886 C1888 1.426 . S
C1887 C1886 1.382 . S
C1887 C1891 1.389 . S
C1888 C1886 1.426 . S
C1888 C1889 1.375 . S
C1888 C1892 1.532 . S
C1889 H1879 0.930 . S
C1889 C1888 1.375 . S
C1889 C1890 1.416 . S
C1890 C1889 1.416 . S
C1890 C1891 1.371 . S
C1891 H1880 0.930 . S
C1891 C1887 1.389 . S
C1891 C1890 1.371 . S
C1892 H1881 0.970 . S
C1892 H1882 0.970 . S
C1892 C1888 1.532 . S
C1892 C1893 1.499 . S
C1893 C1892 1.499 . S
C1893 C1894 1.370 . S
C1893 C1898 1.415 . S
C1894 H1883 0.930 . S
C1894 C1893 1.370 . S
C1894 C1895 1.407 . S
C1895 C1894 1.407 . S
C1895 C1896 1.365 . S
C1896 H1884 0.930 . S
C1896 C1895 1.365 . S
C1896 C1897 1.393 . S
C1897 C1896 1.393 . S
C1897 C1898 1.387 . S
C1898 H1885 0.930 . S
C1898 C1893 1.415 . S
C1898 C1897 1.387 . S
H1899 C1907 0.930 . S
H1900 C1910 0.930 . S
H1901 C1912 0.930 . S
H1902 C1913 0.970 . S
H1903 C1913 0.970 . S
H1904 C1915 0.930 . S
H1905 C1917 0.930 . S
H1906 C1919 0.930 . S
C1907 H1899 0.930 . S
C1907 C1908 1.382 . S
C1907 C1909 1.426 . S
C1908 C1907 1.382 . S
C1908 C1912 1.389 . S
C1909 C1907 1.426 . S
C1909 C1910 1.375 . S
C1909 C1913 1.532 . S
C1910 H1900 0.930 . S
C1910 C1909 1.375 . S
C1910 C1911 1.416 . S
C1911 C1910 1.416 . S
C1911 C1912 1.371 . S
C1912 H1901 0.930 . S
C1912 C1908 1.389 . S
C1912 C1911 1.371 . S
C1913 H1902 0.970 . S
C1913 H1903 0.970 . S
C1913 C1909 1.532 . S
C1913 C1914 1.499 . S
C1914 C1913 1.499 . S
C1914 C1915 1.370 . S
C1914 C1919 1.415 . S
C1915 H1904 0.930 . S
C1915 C1914 1.370 . S
C1915 C1916 1.407 . S
C1916 C1915 1.407 . S
C1916 C1917 1.365 . S
C1917 H1905 0.930 . S
C1917 C1916 1.365 . S
C1917 C1918 1.393 . S
C1918 C1917 1.393 . S
C1918 C1919 1.387 . S
C1919 H1906 0.930 . S
C1919 C1914 1.415 . S
C1919 C1918 1.387 . S
H1920 C1928 0.930 . S
H1921 C1931 0.930 . S
H1922 C1933 0.930 . S
H1923 C1934 0.970 . S
H1924 C1934 0.970 . S
H1925 C1936 0.930 . S
H1926 C1938 0.930 . S
H1927 C1940 0.930 . S
C1928 H1920 0.930 . S
C1928 C1929 1.382 . S
C1928 C1930 1.426 . S
C1929 C1928 1.382 . S
C1929 C1933 1.389 . S
C1930 C1928 1.426 . S
C1930 C1931 1.375 . S
C1930 C1934 1.532 . S
C1931 H1921 0.930 . S
C1931 C1930 1.375 . S
C1931 C1932 1.416 . S
C1932 C1931 1.416 . S
C1932 C1933 1.371 . S
C1933 H1922 0.930 . S
C1933 C1929 1.389 . S
C1933 C1932 1.371 . S
C1934 H1923 0.970 . S
C1934 H1924 0.970 . S
C1934 C1930 1.532 . S
C1934 C1935 1.499 . S
C1935 C1934 1.499 . S
C1935 C1936 1.370 . S
C1935 C1940 1.415 . S
C1936 H1925 0.930 . S
C1936 C1935 1.370 . S
C1936 C1937 1.407 . S
C1937 C1936 1.407 . S
C1937 C1938 1.365 . S
C1938 H1926 0.930 . S
C1938 C1937 1.365 . S
C1938 C1939 1.393 . S
C1939 C1938 1.393 . S
C1939 C1940 1.387 . S
C1940 H1927 0.930 . S
C1940 C1935 1.415 . S
C1940 C1939 1.387 . S
H1941 C1949 0.930 . S
H1942 C1952 0.930 . S
H1943 C1954 0.930 . S
H1944 C1955 0.970 . S
H1945 C1955 0.970 . S
H1946 C1957 0.930 . S
H1947 C1959 0.930 . S
H1948 C1961 0.930 . S
C1949 H1941 0.930 . S
C1949 C1950 1.382 . S
C1949 C1951 1.426 . S
C1950 C1949 1.382 . S
C1950 C1954 1.389 . S
C1951 C1949 1.426 . S
C1951 C1952 1.375 . S
C1951 C1955 1.532 . S
C1952 H1942 0.930 . S
C1952 C1951 1.375 . S
C1952 C1953 1.416 . S
C1953 C1952 1.416 . S
C1953 C1954 1.371 . S
C1954 H1943 0.930 . S
C1954 C1950 1.389 . S
C1954 C1953 1.371 . S
C1955 H1944 0.970 . S
C1955 H1945 0.970 . S
C1955 C1951 1.532 . S
C1955 C1956 1.499 . S
C1956 C1955 1.499 . S
C1956 C1957 1.370 . S
C1956 C1961 1.415 . S
C1957 H1946 0.930 . S
C1957 C1956 1.370 . S
C1957 C1958 1.407 . S
C1958 C1957 1.407 . S
C1958 C1959 1.365 . S
C1959 H1947 0.930 . S
C1959 C1958 1.365 . S
C1959 C1960 1.393 . S
C1960 C1959 1.393 . S
C1960 C1961 1.387 . S
C1961 H1948 0.930 . S
C1961 C1956 1.415 . S
C1961 C1960 1.387 . S
C1962 C1963 1.354 1_455 S
C1962 C1964 1.368 . S
C1962 H1978 0.996 . S
C1963 C1962 1.354 1_655 S
C1963 C1967 1.376 . S
C1964 C1962 1.368 . S
C1964 C1965 1.369 1_455 S
C1964 C1968 1.531 . S
C1965 C1964 1.369 1_655 S
C1965 C1966 1.410 . S
C1965 C1973 1.503 . S
C1966 C1965 1.410 . S
C1966 C1967 1.392 . S
C1966 C1969 1.511 . S
C1967 C1963 1.376 . S
C1967 C1966 1.392 . S
C1967 H1979 0.929 . S
C1968 C1964 1.531 . S
C1968 H1980 0.960 . S
C1968 H1981 0.962 . S
C1968 H1982 0.960 . S
C1969 C1966 1.511 . S
C1969 H1983 0.961 . S
C1969 H1984 0.961 . S
C1969 H1985 0.961 . S
C1970 C1971 1.370 . S
C1970 C1972 1.363 . S
C1970 H1986 0.931 1_655 S
C1971 C1970 1.370 . S
C1971 C1975 1.408 . S
C1972 C1970 1.363 . S
C1972 C1973 1.370 . S
C1972 C1976 1.524 . S
C1973 C1965 1.503 . S
C1973 C1972 1.370 . S
C1973 C1974 1.403 . S
C1974 C1973 1.403 . S
C1974 C1975 1.404 . S
C1974 C1977 1.539 . S
C1975 C1971 1.408 . S
C1975 C1974 1.404 . S
C1975 H1987 0.930 . S
C1976 C1972 1.524 . S
C1976 H1988 0.956 1_655 S
C1976 H1989 0.961 . S
C1976 H1990 0.956 1_655 S
C1977 C1974 1.539 . S
C1977 H1991 0.958 . S
C1977 H1992 0.961 . S
C1977 H1993 0.960 . S
H1978 C1962 0.996 . S
H1979 C1967 0.929 . S
H1980 C1968 0.960 . S
H1981 C1968 0.962 . S
H1982 C1968 0.960 . S
H1983 C1969 0.961 . S
H1984 C1969 0.961 . S
H1985 C1969 0.961 . S
H1986 C1970 0.931 1_455 S
H1987 C1975 0.930 . S
H1988 C1976 0.956 1_455 S
H1989 C1976 0.961 . S
H1990 C1976 0.956 1_455 S
H1991 C1977 0.958 . S
H1992 C1977 0.961 . S
H1993 C1977 0.960 . S
C1994 C1995 1.391 . S
C1994 C1996 1.394 . S
C1994 H2010 0.931 . S
C1995 C1994 1.391 . S
C1995 C1999 1.376 . S
C1996 C1994 1.394 . S
C1996 C1997 1.369 . S
C1996 C2000 1.531 . S
C1997 C1996 1.369 . S
C1997 C1998 1.410 . S
C1997 C2005 1.503 . S
C1998 C1997 1.410 . S
C1998 C1999 1.392 . S
C1998 C2001 1.511 . S
C1999 C1995 1.376 . S
C1999 C1998 1.392 . S
C1999 H2011 0.929 . S
C2000 C1996 1.531 . S
C2000 H2012 0.960 . S
C2000 H2013 0.962 . S
C2000 H2014 0.960 . S
C2001 C1998 1.511 . S
C2001 H2015 0.961 . S
C2001 H2016 0.961 . S
C2001 H2017 0.961 . S
C2002 C2003 1.370 . S
C2002 C2004 1.363 . S
C2002 H2018 0.931 . S
C2003 C2002 1.370 . S
C2003 C2007 1.408 . S
C2004 C2002 1.363 . S
C2004 C2005 1.370 . S
C2004 C2008 1.524 . S
C2005 C1997 1.503 . S
C2005 C2004 1.370 . S
C2005 C2006 1.403 . S
C2006 C2005 1.403 . S
C2006 C2007 1.404 . S
C2006 C2009 1.539 . S
C2007 C2003 1.408 . S
C2007 C2006 1.404 . S
C2007 H2019 0.930 . S
C2008 C2004 1.524 . S
C2008 H2020 0.956 . S
C2008 H2021 0.961 . S
C2008 H2022 0.961 . S
C2009 C2006 1.539 . S
C2009 H2023 0.958 . S
C2009 H2024 0.961 . S
C2009 H2025 0.960 . S
H2010 C1994 0.931 . S
H2011 C1999 0.929 . S
H2012 C2000 0.960 . S
H2013 C2000 0.962 . S
H2014 C2000 0.960 . S
H2015 C2001 0.961 . S
H2016 C2001 0.961 . S
H2017 C2001 0.961 . S
H2018 C2002 0.931 . S
H2019 C2007 0.930 . S
H2020 C2008 0.956 . S
H2021 C2008 0.961 . S
H2022 C2008 0.961 . S
H2023 C2009 0.958 . S
H2024 C2009 0.961 . S
H2025 C2009 0.960 . S
C2026 C2027 1.391 . S
C2026 C2028 1.394 . S
C2026 H2042 0.931 . S
C2027 C2026 1.391 . S
C2027 C2031 1.376 . S
C2028 C2026 1.394 . S
C2028 C2029 1.369 . S
C2028 C2032 1.531 . S
C2029 C2028 1.369 . S
C2029 C2030 1.410 . S
C2029 C2037 1.503 . S
C2030 C2029 1.410 . S
C2030 C2031 1.392 . S
C2030 C2033 1.511 . S
C2031 C2027 1.376 . S
C2031 C2030 1.392 . S
C2031 H2043 0.929 . S
C2032 C2028 1.531 . S
C2032 H2044 0.960 . S
C2032 H2045 0.962 . S
C2032 H2046 0.960 . S
C2033 C2030 1.511 . S
C2033 H2047 0.961 . S
C2033 H2048 0.961 . S
C2033 H2049 0.961 1_545 S
C2034 C2035 1.370 . S
C2034 C2036 1.363 . S
C2034 H2050 0.931 . S
C2035 C2034 1.370 . S
C2035 C2039 1.408 1_545 S
C2036 C2034 1.363 . S
C2036 C2037 1.370 . S
C2036 C2040 1.524 . S
C2037 C2029 1.503 . S
C2037 C2036 1.370 . S
C2037 C2038 1.403 1_545 S
C2038 C2037 1.403 1_565 S
C2038 C2039 1.404 . S
C2038 C2041 1.539 . S
C2039 C2035 1.408 1_565 S
C2039 C2038 1.404 . S
C2039 H2051 0.930 . S
C2040 C2036 1.524 . S
C2040 H2052 0.956 . S
C2040 H2053 0.961 . S
C2040 H2054 0.961 . S
C2041 C2038 1.539 . S
C2041 H2055 0.958 . S
C2041 H2056 0.961 . S
C2041 H2057 0.960 . S
H2042 C2026 0.931 . S
H2043 C2031 0.929 . S
H2044 C2032 0.960 . S
H2045 C2032 0.962 . S
H2046 C2032 0.960 . S
H2047 C2033 0.961 . S
H2048 C2033 0.961 . S
H2049 C2033 0.961 1_565 S
H2050 C2034 0.931 . S
H2051 C2039 0.930 . S
H2052 C2040 0.956 . S
H2053 C2040 0.961 . S
H2054 C2040 0.961 . S
H2055 C2041 0.958 . S
H2056 C2041 0.961 . S
H2057 C2041 0.960 . S
C2058 C2059 1.391 . S
C2058 C2060 1.394 . S
C2058 H2074 0.931 . S
C2059 C2058 1.391 . S
C2059 C2063 1.380 . S
C2060 C2058 1.394 . S
C2060 C2061 1.369 . S
C2060 C2064 1.531 . S
C2061 C2060 1.369 . S
C2061 C2062 1.410 1_565 S
C2061 C2069 1.503 . S
C2062 C2061 1.410 1_545 S
C2062 C2063 1.394 1_545 S
C2062 C2065 1.511 . S
C2063 C2059 1.380 . S
C2063 C2062 1.394 1_565 S
C2063 H2075 0.923 1_565 S
C2064 C2060 1.531 . S
C2064 H2076 0.960 . S
C2064 H2077 0.962 . S
C2064 H2078 0.960 . S
C2065 C2062 1.511 . S
C2065 H2079 0.961 . S
C2065 H2080 0.961 . S
C2065 H2081 0.961 . S
C2066 C2067 1.370 . S
C2066 C2068 1.363 . S
C2066 H2082 0.931 1_565 S
C2067 C2066 1.370 . S
C2067 C2071 1.408 . S
C2068 C2066 1.363 . S
C2068 C2069 1.370 . S
C2068 C2072 1.515 1_565 S
C2069 C2061 1.503 . S
C2069 C2068 1.370 . S
C2069 C2070 1.403 . S
C2070 C2069 1.403 . S
C2070 C2071 1.404 . S
C2070 C2073 1.539 . S
C2071 C2067 1.408 . S
C2071 C2070 1.404 . S
C2071 H2083 0.930 . S
C2072 C2068 1.515 1_545 S
C2072 H2084 0.927 1_545 S
C2072 H2085 1.003 . S
C2072 H2086 0.959 . S
C2073 C2070 1.539 . S
C2073 H2087 0.958 . S
C2073 H2088 0.961 . S
C2073 H2089 0.960 . S
H2074 C2058 0.931 . S
H2075 C2063 0.923 1_545 S
H2076 C2064 0.960 . S
H2077 C2064 0.962 . S
H2078 C2064 0.960 . S
H2079 C2065 0.961 . S
H2080 C2065 0.961 . S
H2081 C2065 0.961 . S
H2082 C2066 0.931 1_545 S
H2083 C2071 0.930 . S
H2084 C2072 0.927 1_565 S
H2085 C2072 1.003 . S
H2086 C2072 0.959 . S
H2087 C2073 0.958 . S
H2088 C2073 0.961 . S
H2089 C2073 0.960 . S
C2090 C2091 1.433 . S
C2090 C2092 1.343 1_455 S
C2090 H2106 0.910 1_455 S
C2091 C2090 1.433 . S
C2091 C2095 1.376 . S
C2092 C2090 1.343 1_655 S
C2092 C2093 1.338 1_655 S
C2092 C2096 1.597 . S
C2093 C2092 1.338 1_455 S
C2093 C2094 1.410 . S
C2093 C2101 1.503 . S
C2094 C2093 1.410 . S
C2094 C2095 1.392 . S
C2094 C2097 1.511 . S
C2095 C2091 1.376 . S
C2095 C2094 1.392 . S
C2095 H2107 0.929 . S
C2096 C2092 1.597 . S
C2096 H2108 0.960 . S
C2096 H2109 0.962 . S
C2096 H2110 0.960 . S
C2097 C2094 1.511 . S
C2097 H2111 0.961 . S
C2097 H2112 0.961 . S
C2097 H2113 0.961 . S
C2098 C2099 1.351 . S
C2098 C2100 1.409 . S
C2098 H2114 0.911 1_455 S
C2099 C2098 1.351 . S
C2099 C2103 1.408 . S
C2100 C2098 1.409 . S
C2100 C2101 1.370 . S
C2100 C2104 1.544 1_455 S
C2101 C2093 1.503 . S
C2101 C2100 1.370 . S
C2101 C2102 1.403 . S
C2102 C2101 1.403 . S
C2102 C2103 1.404 . S
C2102 C2105 1.539 . S
C2103 C2099 1.408 . S
C2103 C2102 1.404 . S
C2103 H2115 0.930 . S
C2104 C2100 1.544 1_655 S
C2104 H2116 0.992 . S
C2104 H2117 0.891 1_655 S
C2104 H2118 0.980 . S
C2105 C2102 1.539 . S
C2105 H2119 0.958 . S
C2105 H2120 0.961 . S
C2105 H2121 0.960 . S
H2106 C2090 0.910 1_655 S
H2107 C2095 0.929 . S
H2108 C2096 0.960 . S
H2109 C2096 0.962 . S
H2110 C2096 0.960 . S
H2111 C2097 0.961 . S
H2112 C2097 0.961 . S
H2113 C2097 0.961 . S
H2114 C2098 0.911 1_655 S
H2115 C2103 0.930 . S
H2116 C2104 0.992 . S
H2117 C2104 0.891 1_455 S
H2118 C2104 0.980 . S
H2119 C2105 0.958 . S
H2120 C2105 0.961 . S
H2121 C2105 0.960 . S
C2122 C2123 1.391 . S
C2122 C2124 1.394 . S
C2122 H2138 0.931 . S
C2123 C2122 1.391 . S
C2123 C2127 1.376 . S
C2124 C2122 1.394 . S
C2124 C2125 1.369 . S
C2124 C2128 1.531 . S
C2125 C2124 1.369 . S
C2125 C2126 1.410 . S
C2125 C2133 1.503 . S
C2126 C2125 1.410 . S
C2126 C2127 1.392 . S
C2126 C2129 1.511 . S
C2127 C2123 1.376 . S
C2127 C2126 1.392 . S
C2127 H2139 0.929 . S
C2128 C2124 1.531 . S
C2128 H2140 0.960 . S
C2128 H2141 0.962 . S
C2128 H2142 0.960 . S
C2129 C2126 1.511 . S
C2129 H2143 0.961 . S
C2129 H2144 0.961 . S
C2129 H2145 0.961 . S
C2130 C2131 1.370 . S
C2130 C2132 1.363 . S
C2130 H2146 0.931 . S
C2131 C2130 1.370 . S
C2131 C2135 1.408 . S
C2132 C2130 1.363 . S
C2132 C2133 1.370 . S
C2132 C2136 1.524 . S
C2133 C2125 1.503 . S
C2133 C2132 1.370 . S
C2133 C2134 1.403 . S
C2134 C2133 1.403 . S
C2134 C2135 1.404 . S
C2134 C2137 1.539 . S
C2135 C2131 1.408 . S
C2135 C2134 1.404 . S
C2135 H2147 0.930 . S
C2136 C2132 1.524 . S
C2136 H2148 0.956 . S
C2136 H2149 0.961 . S
C2136 H2150 0.961 . S
C2137 C2134 1.539 . S
C2137 H2151 0.958 . S
C2137 H2152 0.961 . S
C2137 H2153 0.960 . S
H2138 C2122 0.931 . S
H2139 C2127 0.929 . S
H2140 C2128 0.960 . S
H2141 C2128 0.962 . S
H2142 C2128 0.960 . S
H2143 C2129 0.961 . S
H2144 C2129 0.961 . S
H2145 C2129 0.961 . S
H2146 C2130 0.931 . S
H2147 C2135 0.930 . S
H2148 C2136 0.956 . S
H2149 C2136 0.961 . S
H2150 C2136 0.961 . S
H2151 C2137 0.958 . S
H2152 C2137 0.961 . S
H2153 C2137 0.960 . S
C2154 C2155 1.391 . S
C2154 C2156 1.394 . S
C2154 H2170 0.931 . S
C2155 C2154 1.391 . S
C2155 C2159 1.404 . S
C2156 C2154 1.394 . S
C2156 C2157 1.369 . S
C2156 C2160 1.531 . S
C2157 C2156 1.369 . S
C2157 C2158 1.410 1_455 S
C2157 C2165 1.503 . S
C2158 C2157 1.410 1_655 S
C2158 C2159 1.405 1_655 S
C2158 C2161 1.511 . S
C2159 C2155 1.404 . S
C2159 C2158 1.405 1_455 S
C2159 H2171 0.889 1_455 S
C2160 C2156 1.531 . S
C2160 H2172 0.960 . S
C2160 H2173 0.962 . S
C2160 H2174 0.960 . S
C2161 C2158 1.511 . S
C2161 H2175 0.961 . S
C2161 H2176 0.961 . S
C2161 H2177 0.961 . S
C2162 C2163 1.370 . S
C2162 C2164 1.363 . S
C2162 H2178 0.931 . S
C2163 C2162 1.370 . S
C2163 C2167 1.408 1_455 S
C2164 C2162 1.363 . S
C2164 C2165 1.370 . S
C2164 C2168 1.524 . S
C2165 C2157 1.503 . S
C2165 C2164 1.370 . S
C2165 C2166 1.403 1_455 S
C2166 C2165 1.403 1_655 S
C2166 C2167 1.404 . S
C2166 C2169 1.539 . S
C2167 C2163 1.408 1_655 S
C2167 C2166 1.404 . S
C2167 H2179 0.930 . S
C2168 C2164 1.524 . S
C2168 H2180 0.956 . S
C2168 H2181 0.961 . S
C2168 H2182 0.961 . S
C2169 C2166 1.539 . S
C2169 H2183 0.958 . S
C2169 H2184 0.961 . S
C2169 H2185 0.960 . S
H2170 C2154 0.931 . S
H2171 C2159 0.889 1_655 S
H2172 C2160 0.960 . S
H2173 C2160 0.962 . S
H2174 C2160 0.960 . S
H2175 C2161 0.961 . S
H2176 C2161 0.961 . S
H2177 C2161 0.961 . S
H2178 C2162 0.931 . S
H2179 C2167 0.930 . S
H2180 C2168 0.956 . S
H2181 C2168 0.961 . S
H2182 C2168 0.961 . S
H2183 C2169 0.958 . S
H2184 C2169 0.961 . S
H2185 C2169 0.960 . S
C2186 C2187 1.391 . S
C2186 C2188 1.394 . S
C2186 H2202 0.931 . S
C2187 C2186 1.391 . S
C2187 C2191 1.376 . S
C2188 C2186 1.394 . S
C2188 C2189 1.369 . S
C2188 C2192 1.531 . S
C2189 C2188 1.369 . S
C2189 C2190 1.410 . S
C2189 C2197 1.503 . S
C2190 C2189 1.410 . S
C2190 C2191 1.392 . S
C2190 C2193 1.511 . S
C2191 C2187 1.376 . S
C2191 C2190 1.392 . S
C2191 H2203 0.929 . S
C2192 C2188 1.531 . S
C2192 H2204 0.960 . S
C2192 H2205 0.962 . S
C2192 H2206 0.960 . S
C2193 C2190 1.511 . S
C2193 H2207 0.961 . S
C2193 H2208 0.961 . S
C2193 H2209 0.961 . S
C2194 C2195 1.370 . S
C2194 C2196 1.363 . S
C2194 H2210 0.931 . S
C2195 C2194 1.370 . S
C2195 C2199 1.408 . S
C2196 C2194 1.363 . S
C2196 C2197 1.370 . S
C2196 C2200 1.524 . S
C2197 C2189 1.503 . S
C2197 C2196 1.370 . S
C2197 C2198 1.403 . S
C2198 C2197 1.403 . S
C2198 C2199 1.404 . S
C2198 C2201 1.539 . S
C2199 C2195 1.408 . S
C2199 C2198 1.404 . S
C2199 H2211 0.930 . S
C2200 C2196 1.524 . S
C2200 H2212 0.956 . S
C2200 H2213 0.961 . S
C2200 H2214 0.961 . S
C2201 C2198 1.539 . S
C2201 H2215 0.958 . S
C2201 H2216 0.961 . S
C2201 H2217 0.960 . S
H2202 C2186 0.931 . S
H2203 C2191 0.929 . S
H2204 C2192 0.960 . S
H2205 C2192 0.962 . S
H2206 C2192 0.960 . S
H2207 C2193 0.961 . S
H2208 C2193 0.961 . S
H2209 C2193 0.961 . S
H2210 C2194 0.931 . S
H2211 C2199 0.930 . S
H2212 C2200 0.956 . S
H2213 C2200 0.961 . S
H2214 C2200 0.961 . S
H2215 C2201 0.958 . S
H2216 C2201 0.961 . S
H2217 C2201 0.960 . S
C2218 C2219 1.391 . S
C2218 C2220 1.394 . S
C2218 H2234 0.931 . S
C2219 C2218 1.391 . S
C2219 C2223 1.376 . S
C2220 C2218 1.394 . S
C2220 C2221 1.369 . S
C2220 C2224 1.531 . S
C2221 C2220 1.369 . S
C2221 C2222 1.410 . S
C2221 C2229 1.503 . S
C2222 C2221 1.410 . S
C2222 C2223 1.392 . S
C2222 C2225 1.511 . S
C2223 C2219 1.376 . S
C2223 C2222 1.392 . S
C2223 H2235 0.929 . S
C2224 C2220 1.531 . S
C2224 H2236 0.960 . S
C2224 H2237 0.962 . S
C2224 H2238 0.960 . S
C2225 C2222 1.511 . S
C2225 H2239 0.961 . S
C2225 H2240 0.961 . S
C2225 H2241 0.961 . S
C2226 C2227 1.370 1_545 S
C2226 C2228 1.363 . S
C2226 H2242 0.931 . S
C2227 C2226 1.370 1_565 S
C2227 C2231 1.408 . S
C2228 C2226 1.363 . S
C2228 C2229 1.370 1_545 S
C2228 C2232 1.524 . S
C2229 C2221 1.503 . S
C2229 C2228 1.370 1_565 S
C2229 C2230 1.403 . S
C2230 C2229 1.403 . S
C2230 C2231 1.404 . S
C2230 C2233 1.539 . S
C2231 C2227 1.408 . S
C2231 C2230 1.404 . S
C2231 H2243 0.930 . S
C2232 C2228 1.524 . S
C2232 H2244 0.956 . S
C2232 H2245 0.961 . S
C2232 H2246 0.961 . S
C2233 C2230 1.539 . S
C2233 H2247 0.958 . S
C2233 H2248 0.961 . S
C2233 H2249 0.960 . S
H2234 C2218 0.931 . S
H2235 C2223 0.929 . S
H2236 C2224 0.960 . S
H2237 C2224 0.962 . S
H2238 C2224 0.960 . S
H2239 C2225 0.961 . S
H2240 C2225 0.961 . S
H2241 C2225 0.961 . S
H2242 C2226 0.931 . S
H2243 C2231 0.930 . S
H2244 C2232 0.956 . S
H2245 C2232 0.961 . S
H2246 C2232 0.961 . S
H2247 C2233 0.958 . S
H2248 C2233 0.961 . S
H2249 C2233 0.960 . S
C2250 C2251 1.391 . S
C2250 C2252 1.394 . S
C2250 H2266 0.931 1_545 S
C2251 C2250 1.391 . S
C2251 C2255 1.376 . S
C2252 C2250 1.394 . S
C2252 C2253 1.369 . S
C2252 C2256 1.531 1_545 S
C2253 C2252 1.369 . S
C2253 C2254 1.410 . S
C2253 C2261 1.503 . S
C2254 C2253 1.410 . S
C2254 C2255 1.392 . S
C2254 C2257 1.511 . S
C2255 C2251 1.376 . S
C2255 C2254 1.392 . S
C2255 H2267 0.929 . S
C2256 C2252 1.531 1_565 S
C2256 H2268 0.960 . S
C2256 H2269 0.962 . S
C2256 H2270 0.960 . S
C2257 C2254 1.511 . S
C2257 H2271 0.961 . S
C2257 H2272 0.961 . S
C2257 H2273 0.961 . S
C2258 C2259 1.370 1_565 S
C2258 C2260 1.363 . S
C2258 H2274 0.931 . S
C2259 C2258 1.370 1_545 S
C2259 C2263 1.408 . S
C2260 C2258 1.363 . S
C2260 C2261 1.370 1_565 S
C2260 C2264 1.524 . S
C2261 C2253 1.503 . S
C2261 C2260 1.370 1_545 S
C2261 C2262 1.403 . S
C2262 C2261 1.403 . S
C2262 C2263 1.404 . S
C2262 C2265 1.539 . S
C2263 C2259 1.408 . S
C2263 C2262 1.404 . S
C2263 H2275 0.930 . S
C2264 C2260 1.524 . S
C2264 H2276 0.956 . S
C2264 H2277 0.961 . S
C2264 H2278 0.961 . S
C2265 C2262 1.539 . S
C2265 H2279 0.958 . S
C2265 H2280 0.961 . S
C2265 H2281 0.960 . S
H2266 C2250 0.931 1_565 S
H2267 C2255 0.929 . S
H2268 C2256 0.960 . S
H2269 C2256 0.962 . S
H2270 C2256 0.960 . S
H2271 C2257 0.961 . S
H2272 C2257 0.961 . S
H2273 C2257 0.961 . S
H2274 C2258 0.931 . S
H2275 C2263 0.930 . S
H2276 C2264 0.956 . S
H2277 C2264 0.961 . S
H2278 C2264 0.961 . S
H2279 C2265 0.958 . S
H2280 C2265 0.961 . S
H2281 C2265 0.960 . S
C2282 C2283 1.391 . S
C2282 C2284 1.394 . S
C2282 H2298 0.931 . S
C2283 C2282 1.391 . S
C2283 C2287 1.376 1_655 S
C2284 C2282 1.394 . S
C2284 C2285 1.369 . S
C2284 C2288 1.531 . S
C2285 C2284 1.369 . S
C2285 C2286 1.410 1_655 S
C2285 C2293 1.503 . S
C2286 C2285 1.410 1_455 S
C2286 C2287 1.392 . S
C2286 C2289 1.511 . S
C2287 C2283 1.376 1_455 S
C2287 C2286 1.392 . S
C2287 H2299 0.929 . S
C2288 C2284 1.531 . S
C2288 H2300 0.960 . S
C2288 H2301 0.962 . S
C2288 H2302 0.960 . S
C2289 C2286 1.511 . S
C2289 H2303 0.961 . S
C2289 H2304 0.961 . S
C2289 H2305 0.961 . S
C2290 C2291 1.370 . S
C2290 C2292 1.363 . S
C2290 H2306 0.931 . S
C2291 C2290 1.370 . S
C2291 C2295 1.408 1_655 S
C2292 C2290 1.363 . S
C2292 C2293 1.370 . S
C2292 C2296 1.524 . S
C2293 C2285 1.503 . S
C2293 C2292 1.370 . S
C2293 C2294 1.365 1_655 S
C2294 C2293 1.365 1_455 S
C2294 C2295 1.430 . S
C2294 C2297 1.556 . S
C2295 C2291 1.408 1_455 S
C2295 C2294 1.430 . S
C2295 H2307 0.930 . S
C2296 C2292 1.524 . S
C2296 H2308 0.956 . S
C2296 H2309 0.961 . S
C2296 H2310 0.961 . S
C2297 C2294 1.556 . S
C2297 H2311 0.958 1_455 S
C2297 H2312 0.961 . S
C2297 H2313 0.960 . S
H2298 C2282 0.931 . S
H2299 C2287 0.929 . S
H2300 C2288 0.960 . S
H2301 C2288 0.962 . S
H2302 C2288 0.960 . S
H2303 C2289 0.961 . S
H2304 C2289 0.961 . S
H2305 C2289 0.961 . S
H2306 C2290 0.931 . S
H2307 C2295 0.930 . S
H2308 C2296 0.956 . S
H2309 C2296 0.961 . S
H2310 C2296 0.961 . S
H2311 C2297 0.958 1_655 S
H2312 C2297 0.961 . S
H2313 C2297 0.960 . S
C2314 C2315 1.391 . S
C2314 C2316 1.394 . S
C2314 H2330 0.931 . S
C2315 C2314 1.391 . S
C2315 C2319 1.376 . S
C2316 C2314 1.394 . S
C2316 C2317 1.369 . S
C2316 C2320 1.531 . S
C2317 C2316 1.369 . S
C2317 C2318 1.410 . S
C2317 C2325 1.503 . S
C2318 C2317 1.410 . S
C2318 C2319 1.392 . S
C2318 C2321 1.511 . S
C2319 C2315 1.376 . S
C2319 C2318 1.392 . S
C2319 H2331 0.929 . S
C2320 C2316 1.531 . S
C2320 H2332 0.960 . S
C2320 H2333 0.962 . S
C2320 H2334 0.960 . S
C2321 C2318 1.511 . S
C2321 H2335 0.961 . S
C2321 H2336 0.961 . S
C2321 H2337 0.961 . S
C2322 C2323 1.370 . S
C2322 C2324 1.363 . S
C2322 H2338 0.931 . S
C2323 C2322 1.370 . S
C2323 C2327 1.408 . S
C2324 C2322 1.363 . S
C2324 C2325 1.370 . S
C2324 C2328 1.524 . S
C2325 C2317 1.503 . S
C2325 C2324 1.370 . S
C2325 C2326 1.403 . S
C2326 C2325 1.403 . S
C2326 C2327 1.404 . S
C2326 C2329 1.539 . S
C2327 C2323 1.408 . S
C2327 C2326 1.404 . S
C2327 H2339 0.930 . S
C2328 C2324 1.524 . S
C2328 H2340 0.956 . S
C2328 H2341 0.961 . S
C2328 H2342 0.961 . S
C2329 C2326 1.539 . S
C2329 H2343 0.958 . S
C2329 H2344 0.961 . S
C2329 H2345 0.960 . S
H2330 C2314 0.931 . S
H2331 C2319 0.929 . S
H2332 C2320 0.960 . S
H2333 C2320 0.962 . S
H2334 C2320 0.960 . S
H2335 C2321 0.961 . S
H2336 C2321 0.961 . S
H2337 C2321 0.961 . S
H2338 C2322 0.931 . S
H2339 C2327 0.930 . S
H2340 C2328 0.956 . S
H2341 C2328 0.961 . S
H2342 C2328 0.961 . S
H2343 C2329 0.958 . S
H2344 C2329 0.961 . S
H2345 C2329 0.960 . S
C2346 C2347 1.391 . S
C2346 C2348 1.394 . S
C2346 H2362 0.931 . S
C2347 C2346 1.391 . S
C2347 C2351 1.376 . S
C2348 C2346 1.394 . S
C2348 C2349 1.369 . S
C2348 C2352 1.531 . S
C2349 C2348 1.369 . S
C2349 C2350 1.410 . S
C2349 C2357 1.503 . S
C2350 C2349 1.410 . S
C2350 C2351 1.392 . S
C2350 C2353 1.511 . S
C2351 C2347 1.376 . S
C2351 C2350 1.392 . S
C2351 H2363 0.929 . S
C2352 C2348 1.531 . S
C2352 H2364 0.960 . S
C2352 H2365 0.962 . S
C2352 H2366 0.960 . S
C2353 C2350 1.511 . S
C2353 H2367 0.961 . S
C2353 H2368 0.961 . S
C2353 H2369 0.961 . S
C2354 C2355 1.370 . S
C2354 C2356 1.363 . S
C2354 H2370 0.931 . S
C2355 C2354 1.370 . S
C2355 C2359 1.408 . S
C2356 C2354 1.363 . S
C2356 C2357 1.370 . S
C2356 C2360 1.524 . S
C2357 C2349 1.503 . S
C2357 C2356 1.370 . S
C2357 C2358 1.403 . S
C2358 C2357 1.403 . S
C2358 C2359 1.404 . S
C2358 C2361 1.539 . S
C2359 C2355 1.408 . S
C2359 C2358 1.404 . S
C2359 H2371 0.930 . S
C2360 C2356 1.524 . S
C2360 H2372 0.956 . S
C2360 H2373 0.961 . S
C2360 H2374 0.961 . S
C2361 C2358 1.539 . S
C2361 H2375 0.958 . S
C2361 H2376 0.961 . S
C2361 H2377 0.960 . S
H2362 C2346 0.931 . S
H2363 C2351 0.929 . S
H2364 C2352 0.960 . S
H2365 C2352 0.962 . S
H2366 C2352 0.960 . S
H2367 C2353 0.961 . S
H2368 C2353 0.961 . S
H2369 C2353 0.961 . S
H2370 C2354 0.931 . S
H2371 C2359 0.930 . S
H2372 C2360 0.956 . S
H2373 C2360 0.961 . S
H2374 C2360 0.961 . S
H2375 C2361 0.958 . S
H2376 C2361 0.961 . S
H2377 C2361 0.960 . S
C2378 C2379 1.391 . S
C2378 C2380 1.394 . S
C2378 H2394 0.931 . S
C2379 C2378 1.391 . S
C2379 C2383 1.376 . S
C2380 C2378 1.394 . S
C2380 C2381 1.369 . S
C2380 C2384 1.531 . S
C2381 C2380 1.369 . S
C2381 C2382 1.410 . S
C2381 C2389 1.503 . S
C2382 C2381 1.410 . S
C2382 C2383 1.392 . S
C2382 C2385 1.511 . S
C2383 C2379 1.376 . S
C2383 C2382 1.392 . S
C2383 H2395 0.929 . S
C2384 C2380 1.531 . S
C2384 H2396 0.960 . S
C2384 H2397 0.962 . S
C2384 H2398 0.960 . S
C2385 C2382 1.511 . S
C2385 H2399 0.961 . S
C2385 H2400 0.961 . S
C2385 H2401 0.961 . S
C2386 C2387 1.370 . S
C2386 C2388 1.363 . S
C2386 H2402 0.931 . S
C2387 C2386 1.370 . S
C2387 C2391 1.408 . S
C2388 C2386 1.363 . S
C2388 C2389 1.370 . S
C2388 C2392 1.524 . S
C2389 C2381 1.503 . S
C2389 C2388 1.370 . S
C2389 C2390 1.403 . S
C2390 C2389 1.403 . S
C2390 C2391 1.404 . S
C2390 C2393 1.539 . S
C2391 C2387 1.408 . S
C2391 C2390 1.404 . S
C2391 H2403 0.930 . S
C2392 C2388 1.524 . S
C2392 H2404 0.956 . S
C2392 H2405 0.961 . S
C2392 H2406 0.961 . S
C2393 C2390 1.539 . S
C2393 H2407 0.958 . S
C2393 H2408 0.961 . S
C2393 H2409 0.960 . S
H2394 C2378 0.931 . S
H2395 C2383 0.929 . S
H2396 C2384 0.960 . S
H2397 C2384 0.962 . S
H2398 C2384 0.960 . S
H2399 C2385 0.961 . S
H2400 C2385 0.961 . S
H2401 C2385 0.961 . S
H2402 C2386 0.931 . S
H2403 C2391 0.930 . S
H2404 C2392 0.956 . S
H2405 C2392 0.961 . S
H2406 C2392 0.961 . S
H2407 C2393 0.958 . S
H2408 C2393 0.961 . S
H2409 C2393 0.960 . S
C2410 C2411 1.391 . S
C2410 C2412 1.394 . S
C2410 H2426 0.931 . S
C2411 C2410 1.391 . S
C2411 C2415 1.376 . S
C2412 C2410 1.394 . S
C2412 C2413 1.369 . S
C2412 C2416 1.531 . S
C2413 C2412 1.369 . S
C2413 C2414 1.410 . S
C2413 C2421 1.503 . S
C2414 C2413 1.410 . S
C2414 C2415 1.392 . S
C2414 C2417 1.511 . S
C2415 C2411 1.376 . S
C2415 C2414 1.392 . S
C2415 H2427 0.929 . S
C2416 C2412 1.531 . S
C2416 H2428 0.960 . S
C2416 H2429 0.962 . S
C2416 H2430 0.960 . S
C2417 C2414 1.511 . S
C2417 H2431 0.961 . S
C2417 H2432 0.961 . S
C2417 H2433 0.961 . S
C2418 C2419 1.370 . S
C2418 C2420 1.363 . S
C2418 H2434 0.931 . S
C2419 C2418 1.370 . S
C2419 C2423 1.408 . S
C2420 C2418 1.363 . S
C2420 C2421 1.370 . S
C2420 C2424 1.524 . S
C2421 C2413 1.503 . S
C2421 C2420 1.370 . S
C2421 C2422 1.403 . S
C2422 C2421 1.403 . S
C2422 C2423 1.404 . S
C2422 C2425 1.539 . S
C2423 C2419 1.408 . S
C2423 C2422 1.404 . S
C2423 H2435 0.930 . S
C2424 C2420 1.524 . S
C2424 H2436 0.956 . S
C2424 H2437 0.961 . S
C2424 H2438 0.961 . S
C2425 C2422 1.539 . S
C2425 H2439 0.958 . S
C2425 H2440 0.961 . S
C2425 H2441 0.960 . S
H2426 C2410 0.931 . S
H2427 C2415 0.929 . S
H2428 C2416 0.960 . S
H2429 C2416 0.962 . S
H2430 C2416 0.960 . S
H2431 C2417 0.961 . S
H2432 C2417 0.961 . S
H2433 C2417 0.961 . S
H2434 C2418 0.931 . S
H2435 C2423 0.930 . S
H2436 C2424 0.956 . S
H2437 C2424 0.961 . S
H2438 C2424 0.961 . S
H2439 C2425 0.958 . S
H2440 C2425 0.961 . S
H2441 C2425 0.960 . S
C2442 C2443 1.391 . S
C2442 C2444 1.394 . S
C2442 H2458 0.931 . S
C2443 C2442 1.391 . S
C2443 C2447 1.376 . S
C2444 C2442 1.394 . S
C2444 C2445 1.369 . S
C2444 C2448 1.531 . S
C2445 C2444 1.369 . S
C2445 C2446 1.410 . S
C2445 C2453 1.503 . S
C2446 C2445 1.410 . S
C2446 C2447 1.392 . S
C2446 C2449 1.511 . S
C2447 C2443 1.376 . S
C2447 C2446 1.392 . S
C2447 H2459 0.929 . S
C2448 C2444 1.531 . S
C2448 H2460 0.960 . S
C2448 H2461 0.962 . S
C2448 H2462 0.960 . S
C2449 C2446 1.511 . S
C2449 H2463 0.961 . S
C2449 H2464 0.961 . S
C2449 H2465 0.961 . S
C2450 C2451 1.370 . S
C2450 C2452 1.363 . S
C2450 H2466 0.931 . S
C2451 C2450 1.370 . S
C2451 C2455 1.408 . S
C2452 C2450 1.363 . S
C2452 C2453 1.370 . S
C2452 C2456 1.524 . S
C2453 C2445 1.503 . S
C2453 C2452 1.370 . S
C2453 C2454 1.403 . S
C2454 C2453 1.403 . S
C2454 C2455 1.404 . S
C2454 C2457 1.539 . S
C2455 C2451 1.408 . S
C2455 C2454 1.404 . S
C2455 H2467 0.930 . S
C2456 C2452 1.524 . S
C2456 H2468 0.956 . S
C2456 H2469 0.961 . S
C2456 H2470 0.961 . S
C2457 C2454 1.539 . S
C2457 H2471 0.958 . S
C2457 H2472 0.961 . S
C2457 H2473 0.960 . S
H2458 C2442 0.931 . S
H2459 C2447 0.929 . S
H2460 C2448 0.960 . S
H2461 C2448 0.962 . S
H2462 C2448 0.960 . S
H2463 C2449 0.961 . S
H2464 C2449 0.961 . S
H2465 C2449 0.961 . S
H2466 C2450 0.931 . S
H2467 C2455 0.930 . S
H2468 C2456 0.956 . S
H2469 C2456 0.961 . S
H2470 C2456 0.961 . S
H2471 C2457 0.958 . S
H2472 C2457 0.961 . S
H2473 C2457 0.960 . S
C2474 C2475 1.391 . S
C2474 C2476 1.394 . S
C2474 H2490 0.931 . S
C2475 C2474 1.391 . S
C2475 C2479 1.376 . S
C2476 C2474 1.394 . S
C2476 C2477 1.369 . S
C2476 C2480 1.531 . S
C2477 C2476 1.369 . S
C2477 C2478 1.410 . S
C2477 C2485 1.503 . S
C2478 C2477 1.410 . S
C2478 C2479 1.392 . S
C2478 C2481 1.511 . S
C2479 C2475 1.376 . S
C2479 C2478 1.392 . S
C2479 H2491 0.929 . S
C2480 C2476 1.531 . S
C2480 H2492 0.960 . S
C2480 H2493 0.962 . S
C2480 H2494 0.960 . S
C2481 C2478 1.511 . S
C2481 H2495 0.961 . S
C2481 H2496 0.961 . S
C2481 H2497 0.961 . S
C2482 C2483 1.370 . S
C2482 C2484 1.363 . S
C2482 H2498 0.931 . S
C2483 C2482 1.370 . S
C2483 C2487 1.408 . S
C2484 C2482 1.363 . S
C2484 C2485 1.370 . S
C2484 C2488 1.524 . S
C2485 C2477 1.503 . S
C2485 C2484 1.370 . S
C2485 C2486 1.403 . S
C2486 C2485 1.403 . S
C2486 C2487 1.404 . S
C2486 C2489 1.539 . S
C2487 C2483 1.408 . S
C2487 C2486 1.404 . S
C2487 H2499 0.930 . S
C2488 C2484 1.524 . S
C2488 H2500 0.956 . S
C2488 H2501 0.961 . S
C2488 H2502 0.961 . S
C2489 C2486 1.539 . S
C2489 H2503 0.958 . S
C2489 H2504 0.961 . S
C2489 H2505 0.960 . S
H2490 C2474 0.931 . S
H2491 C2479 0.929 . S
H2492 C2480 0.960 . S
H2493 C2480 0.962 . S
H2494 C2480 0.960 . S
H2495 C2481 0.961 . S
H2496 C2481 0.961 . S
H2497 C2481 0.961 . S
H2498 C2482 0.931 . S
H2499 C2487 0.930 . S
H2500 C2488 0.956 . S
H2501 C2488 0.961 . S
H2502 C2488 0.961 . S
H2503 C2489 0.958 . S
H2504 C2489 0.961 . S
H2505 C2489 0.960 . S
C2506 C2507 1.391 . S
C2506 C2508 1.394 . S
C2506 H2522 0.931 . S
C2507 C2506 1.391 . S
C2507 C2511 1.376 . S
C2508 C2506 1.394 . S
C2508 C2509 1.369 . S
C2508 C2512 1.531 . S
C2509 C2508 1.369 . S
C2509 C2510 1.410 . S
C2509 C2517 1.503 . S
C2510 C2509 1.410 . S
C2510 C2511 1.392 . S
C2510 C2513 1.511 . S
C2511 C2507 1.376 . S
C2511 C2510 1.392 . S
C2511 H2523 0.929 . S
C2512 C2508 1.531 . S
C2512 H2524 0.960 . S
C2512 H2525 0.962 . S
C2512 H2526 0.960 . S
C2513 C2510 1.511 . S
C2513 H2527 0.961 . S
C2513 H2528 0.961 . S
C2513 H2529 0.961 . S
C2514 C2515 1.370 . S
C2514 C2516 1.363 . S
C2514 H2530 0.931 . S
C2515 C2514 1.370 . S
C2515 C2519 1.408 . S
C2516 C2514 1.363 . S
C2516 C2517 1.370 . S
C2516 C2520 1.524 . S
C2517 C2509 1.503 . S
C2517 C2516 1.370 . S
C2517 C2518 1.403 . S
C2518 C2517 1.403 . S
C2518 C2519 1.404 . S
C2518 C2521 1.539 . S
C2519 C2515 1.408 . S
C2519 C2518 1.404 . S
C2519 H2531 0.930 . S
C2520 C2516 1.524 . S
C2520 H2532 0.956 . S
C2520 H2533 0.961 . S
C2520 H2534 0.961 . S
C2521 C2518 1.539 . S
C2521 H2535 0.958 . S
C2521 H2536 0.961 . S
C2521 H2537 0.960 . S
H2522 C2506 0.931 . S
H2523 C2511 0.929 . S
H2524 C2512 0.960 . S
H2525 C2512 0.962 . S
H2526 C2512 0.960 . S
H2527 C2513 0.961 . S
H2528 C2513 0.961 . S
H2529 C2513 0.961 . S
H2530 C2514 0.931 . S
H2531 C2519 0.930 . S
H2532 C2520 0.956 . S
H2533 C2520 0.961 . S
H2534 C2520 0.961 . S
H2535 C2521 0.958 . S
H2536 C2521 0.961 . S
H2537 C2521 0.960 . S
C2538 C2539 1.391 . S
C2538 C2540 1.394 . S
C2538 H2554 0.931 . S
C2539 C2538 1.391 . S
C2539 C2543 1.376 . S
C2540 C2538 1.394 . S
C2540 C2541 1.369 . S
C2540 C2544 1.531 . S
C2541 C2540 1.369 . S
C2541 C2542 1.410 . S
C2541 C2549 1.503 . S
C2542 C2541 1.410 . S
C2542 C2543 1.392 . S
C2542 C2545 1.511 . S
C2543 C2539 1.376 . S
C2543 C2542 1.392 . S
C2543 H2555 0.929 . S
C2544 C2540 1.531 . S
C2544 H2556 0.960 . S
C2544 H2557 0.962 . S
C2544 H2558 0.960 . S
C2545 C2542 1.511 . S
C2545 H2559 0.961 . S
C2545 H2560 0.961 . S
C2545 H2561 0.961 . S
C2546 C2547 1.370 . S
C2546 C2548 1.363 . S
C2546 H2562 0.931 . S
C2547 C2546 1.370 . S
C2547 C2551 1.408 . S
C2548 C2546 1.363 . S
C2548 C2549 1.370 . S
C2548 C2552 1.524 . S
C2549 C2541 1.503 . S
C2549 C2548 1.370 . S
C2549 C2550 1.403 . S
C2550 C2549 1.403 . S
C2550 C2551 1.404 . S
C2550 C2553 1.539 . S
C2551 C2547 1.408 . S
C2551 C2550 1.404 . S
C2551 H2563 0.930 . S
C2552 C2548 1.524 . S
C2552 H2564 0.956 . S
C2552 H2565 0.961 . S
C2552 H2566 0.961 . S
C2553 C2550 1.539 . S
C2553 H2567 0.958 . S
C2553 H2568 0.961 . S
C2553 H2569 0.960 . S
H2554 C2538 0.931 . S
H2555 C2543 0.929 . S
H2556 C2544 0.960 . S
H2557 C2544 0.962 . S
H2558 C2544 0.960 . S
H2559 C2545 0.961 . S
H2560 C2545 0.961 . S
H2561 C2545 0.961 . S
H2562 C2546 0.931 . S
H2563 C2551 0.930 . S
H2564 C2552 0.956 . S
H2565 C2552 0.961 . S
H2566 C2552 0.961 . S
H2567 C2553 0.958 . S
H2568 C2553 0.961 . S
H2569 C2553 0.960 . S
C2570 C2571 1.391 . S
C2570 C2572 1.394 . S
C2570 H2586 0.931 . S
C2571 C2570 1.391 . S
C2571 C2575 1.376 . S
C2572 C2570 1.394 . S
C2572 C2573 1.369 . S
C2572 C2576 1.531 . S
C2573 C2572 1.369 . S
C2573 C2574 1.410 . S
C2573 C2581 1.503 . S
C2574 C2573 1.410 . S
C2574 C2575 1.392 . S
C2574 C2577 1.511 . S
C2575 C2571 1.376 . S
C2575 C2574 1.392 . S
C2575 H2587 0.929 . S
C2576 C2572 1.531 . S
C2576 H2588 0.960 . S
C2576 H2589 0.962 . S
C2576 H2590 0.960 . S
C2577 C2574 1.511 . S
C2577 H2591 0.961 . S
C2577 H2592 0.961 . S
C2577 H2593 0.961 . S
C2578 C2579 1.370 . S
C2578 C2580 1.363 . S
C2578 H2594 0.931 . S
C2579 C2578 1.370 . S
C2579 C2583 1.408 . S
C2580 C2578 1.363 . S
C2580 C2581 1.370 . S
C2580 C2584 1.524 . S
C2581 C2573 1.503 . S
C2581 C2580 1.370 . S
C2581 C2582 1.403 . S
C2582 C2581 1.403 . S
C2582 C2583 1.404 . S
C2582 C2585 1.539 . S
C2583 C2579 1.408 . S
C2583 C2582 1.404 . S
C2583 H2595 0.930 . S
C2584 C2580 1.524 . S
C2584 H2596 0.956 . S
C2584 H2597 0.961 . S
C2584 H2598 0.961 . S
C2585 C2582 1.539 . S
C2585 H2599 0.958 . S
C2585 H2600 0.961 . S
C2585 H2601 0.960 . S
H2586 C2570 0.931 . S
H2587 C2575 0.929 . S
H2588 C2576 0.960 . S
H2589 C2576 0.962 . S
H2590 C2576 0.960 . S
H2591 C2577 0.961 . S
H2592 C2577 0.961 . S
H2593 C2577 0.961 . S
H2594 C2578 0.931 . S
H2595 C2583 0.930 . S
H2596 C2584 0.956 . S
H2597 C2584 0.961 . S
H2598 C2584 0.961 . S
H2599 C2585 0.958 . S
H2600 C2585 0.961 . S
H2601 C2585 0.960 . S
C2602 C2603 1.391 . S
C2602 C2604 1.394 . S
C2602 H2618 0.931 . S
C2603 C2602 1.391 . S
C2603 C2607 1.376 . S
C2604 C2602 1.394 . S
C2604 C2605 1.369 . S
C2604 C2608 1.531 . S
C2605 C2604 1.369 . S
C2605 C2606 1.410 . S
C2605 C2613 1.503 . S
C2606 C2605 1.410 . S
C2606 C2607 1.392 . S
C2606 C2609 1.511 . S
C2607 C2603 1.376 . S
C2607 C2606 1.392 . S
C2607 H2619 0.929 . S
C2608 C2604 1.531 . S
C2608 H2620 0.960 . S
C2608 H2621 0.962 . S
C2608 H2622 0.960 . S
C2609 C2606 1.511 . S
C2609 H2623 0.961 . S
C2609 H2624 0.961 . S
C2609 H2625 0.961 . S
C2610 C2611 1.370 . S
C2610 C2612 1.363 . S
C2610 H2626 0.931 . S
C2611 C2610 1.370 . S
C2611 C2615 1.408 . S
C2612 C2610 1.363 . S
C2612 C2613 1.370 . S
C2612 C2616 1.524 . S
C2613 C2605 1.503 . S
C2613 C2612 1.370 . S
C2613 C2614 1.403 . S
C2614 C2613 1.403 . S
C2614 C2615 1.404 . S
C2614 C2617 1.539 . S
C2615 C2611 1.408 . S
C2615 C2614 1.404 . S
C2615 H2627 0.930 . S
C2616 C2612 1.524 . S
C2616 H2628 0.956 . S
C2616 H2629 0.961 . S
C2616 H2630 0.961 . S
C2617 C2614 1.539 . S
C2617 H2631 0.958 . S
C2617 H2632 0.961 . S
C2617 H2633 0.960 . S
H2618 C2602 0.931 . S
H2619 C2607 0.929 . S
H2620 C2608 0.960 . S
H2621 C2608 0.962 . S
H2622 C2608 0.960 . S
H2623 C2609 0.961 . S
H2624 C2609 0.961 . S
H2625 C2609 0.961 . S
H2626 C2610 0.931 . S
H2627 C2615 0.930 . S
H2628 C2616 0.956 . S
H2629 C2616 0.961 . S
H2630 C2616 0.961 . S
H2631 C2617 0.958 . S
H2632 C2617 0.961 . S
H2633 C2617 0.960 . S
C2634 C2635 1.391 . S
C2634 C2636 1.394 . S
C2634 H2650 0.931 . S
C2635 C2634 1.391 . S
C2635 C2639 1.376 . S
C2636 C2634 1.394 . S
C2636 C2637 1.369 . S
C2636 C2640 1.531 . S
C2637 C2636 1.369 . S
C2637 C2638 1.410 . S
C2637 C2645 1.503 . S
C2638 C2637 1.410 . S
C2638 C2639 1.392 . S
C2638 C2641 1.511 . S
C2639 C2635 1.376 . S
C2639 C2638 1.392 . S
C2639 H2651 0.929 . S
C2640 C2636 1.531 . S
C2640 H2652 0.960 . S
C2640 H2653 0.962 . S
C2640 H2654 0.960 . S
C2641 C2638 1.511 . S
C2641 H2655 0.961 . S
C2641 H2656 0.961 . S
C2641 H2657 0.961 . S
C2642 C2643 1.370 . S
C2642 C2644 1.363 . S
C2642 H2658 0.931 . S
C2643 C2642 1.370 . S
C2643 C2647 1.408 . S
C2644 C2642 1.363 . S
C2644 C2645 1.370 . S
C2644 C2648 1.524 . S
C2645 C2637 1.503 . S
C2645 C2644 1.370 . S
C2645 C2646 1.403 . S
C2646 C2645 1.403 . S
C2646 C2647 1.404 . S
C2646 C2649 1.539 . S
C2647 C2643 1.408 . S
C2647 C2646 1.404 . S
C2647 H2659 0.930 . S
C2648 C2644 1.524 . S
C2648 H2660 0.956 . S
C2648 H2661 0.961 . S
C2648 H2662 0.961 . S
C2649 C2646 1.539 . S
C2649 H2663 0.958 . S
C2649 H2664 0.961 . S
C2649 H2665 0.960 . S
H2650 C2634 0.931 . S
H2651 C2639 0.929 . S
H2652 C2640 0.960 . S
H2653 C2640 0.962 . S
H2654 C2640 0.960 . S
H2655 C2641 0.961 . S
H2656 C2641 0.961 . S
H2657 C2641 0.961 . S
H2658 C2642 0.931 . S
H2659 C2647 0.930 . S
H2660 C2648 0.956 . S
H2661 C2648 0.961 . S
H2662 C2648 0.961 . S
H2663 C2649 0.958 . S
H2664 C2649 0.961 . S
H2665 C2649 0.960 . S
C2666 C2667 1.391 . S
C2666 C2668 1.394 . S
C2666 H2682 0.931 . S
C2667 C2666 1.391 . S
C2667 C2671 1.376 . S
C2668 C2666 1.394 . S
C2668 C2669 1.369 . S
C2668 C2672 1.531 . S
C2669 C2668 1.369 . S
C2669 C2670 1.410 . S
C2669 C2677 1.503 . S
C2670 C2669 1.410 . S
C2670 C2671 1.392 . S
C2670 C2673 1.511 . S
C2671 C2667 1.376 . S
C2671 C2670 1.392 . S
C2671 H2683 0.929 . S
C2672 C2668 1.531 . S
C2672 H2684 0.960 . S
C2672 H2685 0.962 . S
C2672 H2686 0.960 . S
C2673 C2670 1.511 . S
C2673 H2687 0.961 . S
C2673 H2688 0.961 . S
C2673 H2689 0.961 . S
C2674 C2675 1.370 . S
C2674 C2676 1.363 . S
C2674 H2690 0.931 . S
C2675 C2674 1.370 . S
C2675 C2679 1.408 . S
C2676 C2674 1.363 . S
C2676 C2677 1.370 . S
C2676 C2680 1.524 . S
C2677 C2669 1.503 . S
C2677 C2676 1.370 . S
C2677 C2678 1.403 . S
C2678 C2677 1.403 . S
C2678 C2679 1.404 . S
C2678 C2681 1.539 . S
C2679 C2675 1.408 . S
C2679 C2678 1.404 . S
C2679 H2691 0.930 . S
C2680 C2676 1.524 . S
C2680 H2692 0.956 . S
C2680 H2693 0.961 . S
C2680 H2694 0.961 . S
C2681 C2678 1.539 . S
C2681 H2695 0.958 . S
C2681 H2696 0.961 . S
C2681 H2697 0.960 . S
H2682 C2666 0.931 . S
H2683 C2671 0.929 . S
H2684 C2672 0.960 . S
H2685 C2672 0.962 . S
H2686 C2672 0.960 . S
H2687 C2673 0.961 . S
H2688 C2673 0.961 . S
H2689 C2673 0.961 . S
H2690 C2674 0.931 . S
H2691 C2679 0.930 . S
H2692 C2680 0.956 . S
H2693 C2680 0.961 . S
H2694 C2680 0.961 . S
H2695 C2681 0.958 . S
H2696 C2681 0.961 . S
H2697 C2681 0.960 . S
C2698 C2699 1.391 . S
C2698 C2700 1.394 . S
C2698 H2714 0.931 . S
C2699 C2698 1.391 . S
C2699 C2703 1.376 . S
C2700 C2698 1.394 . S
C2700 C2701 1.369 . S
C2700 C2704 1.531 . S
C2701 C2700 1.369 . S
C2701 C2702 1.410 . S
C2701 C2709 1.503 . S
C2702 C2701 1.410 . S
C2702 C2703 1.392 . S
C2702 C2705 1.511 . S
C2703 C2699 1.376 . S
C2703 C2702 1.392 . S
C2703 H2715 0.929 . S
C2704 C2700 1.531 . S
C2704 H2716 0.960 . S
C2704 H2717 0.962 . S
C2704 H2718 0.960 . S
C2705 C2702 1.511 . S
C2705 H2719 0.961 . S
C2705 H2720 0.961 . S
C2705 H2721 0.961 . S
C2706 C2707 1.370 . S
C2706 C2708 1.363 . S
C2706 H2722 0.931 . S
C2707 C2706 1.370 . S
C2707 C2711 1.408 . S
C2708 C2706 1.363 . S
C2708 C2709 1.370 . S
C2708 C2712 1.524 . S
C2709 C2701 1.503 . S
C2709 C2708 1.370 . S
C2709 C2710 1.403 . S
C2710 C2709 1.403 . S
C2710 C2711 1.404 . S
C2710 C2713 1.539 . S
C2711 C2707 1.408 . S
C2711 C2710 1.404 . S
C2711 H2723 0.930 . S
C2712 C2708 1.524 . S
C2712 H2724 0.956 . S
C2712 H2725 0.961 . S
C2712 H2726 0.961 . S
C2713 C2710 1.539 . S
C2713 H2727 0.958 . S
C2713 H2728 0.961 . S
C2713 H2729 0.960 . S
H2714 C2698 0.931 . S
H2715 C2703 0.929 . S
H2716 C2704 0.960 . S
H2717 C2704 0.962 . S
H2718 C2704 0.960 . S
H2719 C2705 0.961 . S
H2720 C2705 0.961 . S
H2721 C2705 0.961 . S
H2722 C2706 0.931 . S
H2723 C2711 0.930 . S
H2724 C2712 0.956 . S
H2725 C2712 0.961 . S
H2726 C2712 0.961 . S
H2727 C2713 0.958 . S
H2728 C2713 0.961 . S
H2729 C2713 0.960 . S
C2730 C2731 1.391 . S
C2730 C2732 1.394 . S
C2730 H2746 0.931 . S
C2731 C2730 1.391 . S
C2731 C2735 1.376 . S
C2732 C2730 1.394 . S
C2732 C2733 1.369 . S
C2732 C2736 1.531 . S
C2733 C2732 1.369 . S
C2733 C2734 1.410 . S
C2733 C2741 1.503 . S
C2734 C2733 1.410 . S
C2734 C2735 1.392 . S
C2734 C2737 1.511 . S
C2735 C2731 1.376 . S
C2735 C2734 1.392 . S
C2735 H2747 0.929 . S
C2736 C2732 1.531 . S
C2736 H2748 0.960 . S
C2736 H2749 0.962 . S
C2736 H2750 0.960 . S
C2737 C2734 1.511 . S
C2737 H2751 0.961 . S
C2737 H2752 0.961 . S
C2737 H2753 0.961 . S
C2738 C2739 1.370 . S
C2738 C2740 1.363 . S
C2738 H2754 0.931 . S
C2739 C2738 1.370 . S
C2739 C2743 1.408 . S
C2740 C2738 1.363 . S
C2740 C2741 1.370 . S
C2740 C2744 1.524 . S
C2741 C2733 1.503 . S
C2741 C2740 1.370 . S
C2741 C2742 1.403 . S
C2742 C2741 1.403 . S
C2742 C2743 1.404 . S
C2742 C2745 1.539 . S
C2743 C2739 1.408 . S
C2743 C2742 1.404 . S
C2743 H2755 0.930 . S
C2744 C2740 1.524 . S
C2744 H2756 0.956 . S
C2744 H2757 0.961 . S
C2744 H2758 0.961 . S
C2745 C2742 1.539 . S
C2745 H2759 0.958 . S
C2745 H2760 0.961 . S
C2745 H2761 0.960 . S
H2746 C2730 0.931 . S
H2747 C2735 0.929 . S
H2748 C2736 0.960 . S
H2749 C2736 0.962 . S
H2750 C2736 0.960 . S
H2751 C2737 0.961 . S
H2752 C2737 0.961 . S
H2753 C2737 0.961 . S
H2754 C2738 0.931 . S
H2755 C2743 0.930 . S
H2756 C2744 0.956 . S
H2757 C2744 0.961 . S
H2758 C2744 0.961 . S
H2759 C2745 0.958 . S
H2760 C2745 0.961 . S
H2761 C2745 0.960 . S
C2762 C2763 1.391 . S
C2762 C2764 1.394 . S
C2762 H2778 0.931 . S
C2763 C2762 1.391 . S
C2763 C2767 1.376 . S
C2764 C2762 1.394 . S
C2764 C2765 1.369 . S
C2764 C2768 1.531 . S
C2765 C2764 1.369 . S
C2765 C2766 1.410 . S
C2765 C2773 1.503 . S
C2766 C2765 1.410 . S
C2766 C2767 1.392 . S
C2766 C2769 1.511 . S
C2767 C2763 1.376 . S
C2767 C2766 1.392 . S
C2767 H2779 0.929 . S
C2768 C2764 1.531 . S
C2768 H2780 0.960 . S
C2768 H2781 0.962 . S
C2768 H2782 0.960 . S
C2769 C2766 1.511 . S
C2769 H2783 0.961 . S
C2769 H2784 0.961 . S
C2769 H2785 0.961 . S
C2770 C2771 1.370 . S
C2770 C2772 1.363 . S
C2770 H2786 0.931 . S
C2771 C2770 1.370 . S
C2771 C2775 1.408 . S
C2772 C2770 1.363 . S
C2772 C2773 1.370 . S
C2772 C2776 1.524 . S
C2773 C2765 1.503 . S
C2773 C2772 1.370 . S
C2773 C2774 1.403 . S
C2774 C2773 1.403 . S
C2774 C2775 1.404 . S
C2774 C2777 1.539 . S
C2775 C2771 1.408 . S
C2775 C2774 1.404 . S
C2775 H2787 0.930 . S
C2776 C2772 1.524 . S
C2776 H2788 0.956 . S
C2776 H2789 0.961 . S
C2776 H2790 0.961 . S
C2777 C2774 1.539 . S
C2777 H2791 0.958 . S
C2777 H2792 0.961 . S
C2777 H2793 0.960 . S
H2778 C2762 0.931 . S
H2779 C2767 0.929 . S
H2780 C2768 0.960 . S
H2781 C2768 0.962 . S
H2782 C2768 0.960 . S
H2783 C2769 0.961 . S
H2784 C2769 0.961 . S
H2785 C2769 0.961 . S
H2786 C2770 0.931 . S
H2787 C2775 0.930 . S
H2788 C2776 0.956 . S
H2789 C2776 0.961 . S
H2790 C2776 0.961 . S
H2791 C2777 0.958 . S
H2792 C2777 0.961 . S
H2793 C2777 0.960 . S
C2794 C2795 1.391 . S
C2794 C2796 1.394 . S
C2794 H2810 0.931 . S
C2795 C2794 1.391 . S
C2795 C2799 1.376 . S
C2796 C2794 1.394 . S
C2796 C2797 1.369 . S
C2796 C2800 1.531 . S
C2797 C2796 1.369 . S
C2797 C2798 1.410 . S
C2797 C2805 1.503 . S
C2798 C2797 1.410 . S
C2798 C2799 1.392 . S
C2798 C2801 1.511 . S
C2799 C2795 1.376 . S
C2799 C2798 1.392 . S
C2799 H2811 0.929 . S
C2800 C2796 1.531 . S
C2800 H2812 0.960 . S
C2800 H2813 0.962 . S
C2800 H2814 0.960 . S
C2801 C2798 1.511 . S
C2801 H2815 0.961 . S
C2801 H2816 0.961 . S
C2801 H2817 0.961 . S
C2802 C2803 1.370 . S
C2802 C2804 1.363 . S
C2802 H2818 0.931 . S
C2803 C2802 1.370 . S
C2803 C2807 1.408 . S
C2804 C2802 1.363 . S
C2804 C2805 1.370 . S
C2804 C2808 1.524 . S
C2805 C2797 1.503 . S
C2805 C2804 1.370 . S
C2805 C2806 1.403 . S
C2806 C2805 1.403 . S
C2806 C2807 1.404 . S
C2806 C2809 1.539 . S
C2807 C2803 1.408 . S
C2807 C2806 1.404 . S
C2807 H2819 0.930 . S
C2808 C2804 1.524 . S
C2808 H2820 0.956 . S
C2808 H2821 0.961 . S
C2808 H2822 0.961 . S
C2809 C2806 1.539 . S
C2809 H2823 0.958 . S
C2809 H2824 0.961 . S
C2809 H2825 0.960 . S
H2810 C2794 0.931 . S
H2811 C2799 0.929 . S
H2812 C2800 0.960 . S
H2813 C2800 0.962 . S
H2814 C2800 0.960 . S
H2815 C2801 0.961 . S
H2816 C2801 0.961 . S
H2817 C2801 0.961 . S
H2818 C2802 0.931 . S
H2819 C2807 0.930 . S
H2820 C2808 0.956 . S
H2821 C2808 0.961 . S
H2822 C2808 0.961 . S
H2823 C2809 0.958 . S
H2824 C2809 0.961 . S
H2825 C2809 0.960 . S
C2826 C2827 1.391 . S
C2826 C2828 1.394 . S
C2826 H2842 0.931 . S
C2827 C2826 1.391 . S
C2827 C2831 1.376 . S
C2828 C2826 1.394 . S
C2828 C2829 1.369 . S
C2828 C2832 1.531 . S
C2829 C2828 1.369 . S
C2829 C2830 1.410 . S
C2829 C2837 1.503 . S
C2830 C2829 1.410 . S
C2830 C2831 1.392 . S
C2830 C2833 1.511 . S
C2831 C2827 1.376 . S
C2831 C2830 1.392 . S
C2831 H2843 0.929 . S
C2832 C2828 1.531 . S
C2832 H2844 0.960 . S
C2832 H2845 0.962 . S
C2832 H2846 0.960 . S
C2833 C2830 1.511 . S
C2833 H2847 0.961 . S
C2833 H2848 0.961 . S
C2833 H2849 0.961 . S
C2834 C2835 1.370 . S
C2834 C2836 1.363 . S
C2834 H2850 0.931 . S
C2835 C2834 1.370 . S
C2835 C2839 1.408 . S
C2836 C2834 1.363 . S
C2836 C2837 1.370 . S
C2836 C2840 1.524 . S
C2837 C2829 1.503 . S
C2837 C2836 1.370 . S
C2837 C2838 1.403 . S
C2838 C2837 1.403 . S
C2838 C2839 1.404 . S
C2838 C2841 1.539 . S
C2839 C2835 1.408 . S
C2839 C2838 1.404 . S
C2839 H2851 0.930 . S
C2840 C2836 1.524 . S
C2840 H2852 0.956 . S
C2840 H2853 0.961 . S
C2840 H2854 0.961 . S
C2841 C2838 1.539 . S
C2841 H2855 0.958 . S
C2841 H2856 0.961 . S
C2841 H2857 0.960 . S
H2842 C2826 0.931 . S
H2843 C2831 0.929 . S
H2844 C2832 0.960 . S
H2845 C2832 0.962 . S
H2846 C2832 0.960 . S
H2847 C2833 0.961 . S
H2848 C2833 0.961 . S
H2849 C2833 0.961 . S
H2850 C2834 0.931 . S
H2851 C2839 0.930 . S
H2852 C2840 0.956 . S
H2853 C2840 0.961 . S
H2854 C2840 0.961 . S
H2855 C2841 0.958 . S
H2856 C2841 0.961 . S
H2857 C2841 0.960 . S
C2858 C2859 1.391 . S
C2858 C2860 1.394 . S
C2858 H2874 0.931 . S
C2859 C2858 1.391 . S
C2859 C2863 1.376 . S
C2860 C2858 1.394 . S
C2860 C2861 1.369 . S
C2860 C2864 1.531 . S
C2861 C2860 1.369 . S
C2861 C2862 1.410 . S
C2861 C2869 1.503 . S
C2862 C2861 1.410 . S
C2862 C2863 1.392 . S
C2862 C2865 1.511 . S
C2863 C2859 1.376 . S
C2863 C2862 1.392 . S
C2863 H2875 0.929 . S
C2864 C2860 1.531 . S
C2864 H2876 0.960 . S
C2864 H2877 0.962 . S
C2864 H2878 0.960 . S
C2865 C2862 1.511 . S
C2865 H2879 0.961 . S
C2865 H2880 0.961 . S
C2865 H2881 0.961 . S
C2866 C2867 1.370 . S
C2866 C2868 1.363 . S
C2866 H2882 0.931 . S
C2867 C2866 1.370 . S
C2867 C2871 1.408 . S
C2868 C2866 1.363 . S
C2868 C2869 1.370 . S
C2868 C2872 1.524 . S
C2869 C2861 1.503 . S
C2869 C2868 1.370 . S
C2869 C2870 1.403 . S
C2870 C2869 1.403 . S
C2870 C2871 1.404 . S
C2870 C2873 1.539 . S
C2871 C2867 1.408 . S
C2871 C2870 1.404 . S
C2871 H2883 0.930 . S
C2872 C2868 1.524 . S
C2872 H2884 0.956 . S
C2872 H2885 0.961 . S
C2872 H2886 0.961 . S
C2873 C2870 1.539 . S
C2873 H2887 0.958 . S
C2873 H2888 0.961 . S
C2873 H2889 0.960 . S
H2874 C2858 0.931 . S
H2875 C2863 0.929 . S
H2876 C2864 0.960 . S
H2877 C2864 0.962 . S
H2878 C2864 0.960 . S
H2879 C2865 0.961 . S
H2880 C2865 0.961 . S
H2881 C2865 0.961 . S
H2882 C2866 0.931 . S
H2883 C2871 0.930 . S
H2884 C2872 0.956 . S
H2885 C2872 0.961 . S
H2886 C2872 0.961 . S
H2887 C2873 0.958 . S
H2888 C2873 0.961 . S
H2889 C2873 0.960 . S
C2890 C2891 1.391 . S
C2890 C2892 1.394 . S
C2890 H2906 0.931 . S
C2891 C2890 1.391 . S
C2891 C2895 1.376 . S
C2892 C2890 1.394 . S
C2892 C2893 1.369 . S
C2892 C2896 1.531 . S
C2893 C2892 1.369 . S
C2893 C2894 1.410 . S
C2893 C2901 1.503 . S
C2894 C2893 1.410 . S
C2894 C2895 1.392 . S
C2894 C2897 1.511 . S
C2895 C2891 1.376 . S
C2895 C2894 1.392 . S
C2895 H2907 0.929 . S
C2896 C2892 1.531 . S
C2896 H2908 0.960 . S
C2896 H2909 0.962 . S
C2896 H2910 0.960 . S
C2897 C2894 1.511 . S
C2897 H2911 0.961 . S
C2897 H2912 0.961 . S
C2897 H2913 0.961 . S
C2898 C2899 1.370 . S
C2898 C2900 1.363 . S
C2898 H2914 0.931 . S
C2899 C2898 1.370 . S
C2899 C2903 1.408 . S
C2900 C2898 1.363 . S
C2900 C2901 1.370 . S
C2900 C2904 1.524 . S
C2901 C2893 1.503 . S
C2901 C2900 1.370 . S
C2901 C2902 1.403 . S
C2902 C2901 1.403 . S
C2902 C2903 1.404 . S
C2902 C2905 1.539 . S
C2903 C2899 1.408 . S
C2903 C2902 1.404 . S
C2903 H2915 0.930 . S
C2904 C2900 1.524 . S
C2904 H2916 0.956 . S
C2904 H2917 0.961 . S
C2904 H2918 0.961 . S
C2905 C2902 1.539 . S
C2905 H2919 0.958 . S
C2905 H2920 0.961 . S
C2905 H2921 0.960 . S
H2906 C2890 0.931 . S
H2907 C2895 0.929 . S
H2908 C2896 0.960 . S
H2909 C2896 0.962 . S
H2910 C2896 0.960 . S
H2911 C2897 0.961 . S
H2912 C2897 0.961 . S
H2913 C2897 0.961 . S
H2914 C2898 0.931 . S
H2915 C2903 0.930 . S
H2916 C2904 0.956 . S
H2917 C2904 0.961 . S
H2918 C2904 0.961 . S
H2919 C2905 0.958 . S
H2920 C2905 0.961 . S
H2921 C2905 0.960 . S
C2922 C2923 1.391 . S
C2922 C2924 1.394 . S
C2922 H2938 0.931 . S
C2923 C2922 1.391 . S
C2923 C2927 1.376 . S
C2924 C2922 1.394 . S
C2924 C2925 1.369 . S
C2924 C2928 1.531 . S
C2925 C2924 1.369 . S
C2925 C2926 1.410 . S
C2925 C2933 1.503 . S
C2926 C2925 1.410 . S
C2926 C2927 1.392 . S
C2926 C2929 1.511 . S
C2927 C2923 1.376 . S
C2927 C2926 1.392 . S
C2927 H2939 0.929 . S
C2928 C2924 1.531 . S
C2928 H2940 0.960 . S
C2928 H2941 0.962 . S
C2928 H2942 0.960 . S
C2929 C2926 1.511 . S
C2929 H2943 0.961 . S
C2929 H2944 0.961 . S
C2929 H2945 0.961 . S
C2930 C2931 1.370 . S
C2930 C2932 1.363 . S
C2930 H2946 0.931 . S
C2931 C2930 1.370 . S
C2931 C2935 1.408 . S
C2932 C2930 1.363 . S
C2932 C2933 1.370 . S
C2932 C2936 1.524 . S
C2933 C2925 1.503 . S
C2933 C2932 1.370 . S
C2933 C2934 1.403 . S
C2934 C2933 1.403 . S
C2934 C2935 1.404 . S
C2934 C2937 1.539 . S
C2935 C2931 1.408 . S
C2935 C2934 1.404 . S
C2935 H2947 0.930 . S
C2936 C2932 1.524 . S
C2936 H2948 0.956 . S
C2936 H2949 0.961 . S
C2936 H2950 0.961 . S
C2937 C2934 1.539 . S
C2937 H2951 0.958 . S
C2937 H2952 0.961 . S
C2937 H2953 0.960 . S
H2938 C2922 0.931 . S
H2939 C2927 0.929 . S
H2940 C2928 0.960 . S
H2941 C2928 0.962 . S
H2942 C2928 0.960 . S
H2943 C2929 0.961 . S
H2944 C2929 0.961 . S
H2945 C2929 0.961 . S
H2946 C2930 0.931 . S
H2947 C2935 0.930 . S
H2948 C2936 0.956 . S
H2949 C2936 0.961 . S
H2950 C2936 0.961 . S
H2951 C2937 0.958 . S
H2952 C2937 0.961 . S
H2953 C2937 0.960 . S
C2954 C2955 1.391 . S
C2954 C2956 1.394 . S
C2954 H2970 0.931 . S
C2955 C2954 1.391 . S
C2955 C2959 1.376 . S
C2956 C2954 1.394 . S
C2956 C2957 1.369 . S
C2956 C2960 1.531 . S
C2957 C2956 1.369 . S
C2957 C2958 1.410 . S
C2957 C2965 1.503 . S
C2958 C2957 1.410 . S
C2958 C2959 1.392 . S
C2958 C2961 1.511 . S
C2959 C2955 1.376 . S
C2959 C2958 1.392 . S
C2959 H2971 0.929 . S
C2960 C2956 1.531 . S
C2960 H2972 0.960 . S
C2960 H2973 0.962 . S
C2960 H2974 0.960 . S
C2961 C2958 1.511 . S
C2961 H2975 0.961 . S
C2961 H2976 0.961 . S
C2961 H2977 0.961 . S
C2962 C2963 1.370 . S
C2962 C2964 1.363 . S
C2962 H2978 0.931 . S
C2963 C2962 1.370 . S
C2963 C2967 1.408 . S
C2964 C2962 1.363 . S
C2964 C2965 1.370 . S
C2964 C2968 1.524 . S
C2965 C2957 1.503 . S
C2965 C2964 1.370 . S
C2965 C2966 1.403 . S
C2966 C2965 1.403 . S
C2966 C2967 1.404 . S
C2966 C2969 1.539 . S
C2967 C2963 1.408 . S
C2967 C2966 1.404 . S
C2967 H2979 0.930 . S
C2968 C2964 1.524 . S
C2968 H2980 0.956 . S
C2968 H2981 0.961 . S
C2968 H2982 0.961 . S
C2969 C2966 1.539 . S
C2969 H2983 0.958 . S
C2969 H2984 0.961 . S
C2969 H2985 0.960 . S
H2970 C2954 0.931 . S
H2971 C2959 0.929 . S
H2972 C2960 0.960 . S
H2973 C2960 0.962 . S
H2974 C2960 0.960 . S
H2975 C2961 0.961 . S
H2976 C2961 0.961 . S
H2977 C2961 0.961 . S
H2978 C2962 0.931 . S
H2979 C2967 0.930 . S
H2980 C2968 0.956 . S
H2981 C2968 0.961 . S
H2982 C2968 0.961 . S
H2983 C2969 0.958 . S
H2984 C2969 0.961 . S
H2985 C2969 0.960 . S
C2986 C2987 1.391 . S
C2986 C2988 1.394 . S
C2986 H3002 0.931 . S
C2987 C2986 1.391 . S
C2987 C2991 1.376 . S
C2988 C2986 1.394 . S
C2988 C2989 1.369 . S
C2988 C2992 1.531 . S
C2989 C2988 1.369 . S
C2989 C2990 1.410 . S
C2989 C2997 1.503 . S
C2990 C2989 1.410 . S
C2990 C2991 1.392 . S
C2990 C2993 1.511 . S
C2991 C2987 1.376 . S
C2991 C2990 1.392 . S
C2991 H3003 0.929 . S
C2992 C2988 1.531 . S
C2992 H3004 0.960 . S
C2992 H3005 0.962 . S
C2992 H3006 0.960 . S
C2993 C2990 1.511 . S
C2993 H3007 0.961 . S
C2993 H3008 0.961 . S
C2993 H3009 0.961 . S
C2994 C2995 1.370 . S
C2994 C2996 1.363 . S
C2994 H3010 0.931 . S
C2995 C2994 1.370 . S
C2995 C2999 1.408 . S
C2996 C2994 1.363 . S
C2996 C2997 1.370 . S
C2996 C3000 1.524 . S
C2997 C2989 1.503 . S
C2997 C2996 1.370 . S
C2997 C2998 1.403 . S
C2998 C2997 1.403 . S
C2998 C2999 1.404 . S
C2998 C3001 1.539 . S
C2999 C2995 1.408 . S
C2999 C2998 1.404 . S
C2999 H3011 0.930 . S
C3000 C2996 1.524 . S
C3000 H3012 0.956 . S
C3000 H3013 0.961 . S
C3000 H3014 0.961 . S
C3001 C2998 1.539 . S
C3001 H3015 0.958 . S
C3001 H3016 0.961 . S
C3001 H3017 0.960 . S
H3002 C2986 0.931 . S
H3003 C2991 0.929 . S
H3004 C2992 0.960 . S
H3005 C2992 0.962 . S
H3006 C2992 0.960 . S
H3007 C2993 0.961 . S
H3008 C2993 0.961 . S
H3009 C2993 0.961 . S
H3010 C2994 0.931 . S
H3011 C2999 0.930 . S
H3012 C3000 0.956 . S
H3013 C3000 0.961 . S
H3014 C3000 0.961 . S
H3015 C3001 0.958 . S
H3016 C3001 0.961 . S
H3017 C3001 0.960 . S
C3018 C3019 1.391 . S
C3018 C3020 1.394 . S
C3018 H3034 0.931 . S
C3019 C3018 1.391 . S
C3019 C3023 1.376 . S
C3020 C3018 1.394 . S
C3020 C3021 1.369 . S
C3020 C3024 1.531 . S
C3021 C3020 1.369 . S
C3021 C3022 1.410 . S
C3021 C3029 1.503 . S
C3022 C3021 1.410 . S
C3022 C3023 1.392 . S
C3022 C3025 1.511 . S
C3023 C3019 1.376 . S
C3023 C3022 1.392 . S
C3023 H3035 0.929 . S
C3024 C3020 1.531 . S
C3024 H3036 0.960 . S
C3024 H3037 0.962 . S
C3024 H3038 0.960 . S
C3025 C3022 1.511 . S
C3025 H3039 0.961 . S
C3025 H3040 0.961 . S
C3025 H3041 0.961 . S
C3026 C3027 1.370 . S
C3026 C3028 1.363 . S
C3026 H3042 0.931 . S
C3027 C3026 1.370 . S
C3027 C3031 1.408 . S
C3028 C3026 1.363 . S
C3028 C3029 1.370 . S
C3028 C3032 1.524 . S
C3029 C3021 1.503 . S
C3029 C3028 1.370 . S
C3029 C3030 1.403 . S
C3030 C3029 1.403 . S
C3030 C3031 1.404 . S
C3030 C3033 1.539 . S
C3031 C3027 1.408 . S
C3031 C3030 1.404 . S
C3031 H3043 0.930 . S
C3032 C3028 1.524 . S
C3032 H3044 0.956 . S
C3032 H3045 0.961 . S
C3032 H3046 0.961 . S
C3033 C3030 1.539 . S
C3033 H3047 0.958 . S
C3033 H3048 0.961 . S
C3033 H3049 0.960 . S
H3034 C3018 0.931 . S
H3035 C3023 0.929 . S
H3036 C3024 0.960 . S
H3037 C3024 0.962 . S
H3038 C3024 0.960 . S
H3039 C3025 0.961 . S
H3040 C3025 0.961 . S
H3041 C3025 0.961 . S
H3042 C3026 0.931 . S
H3043 C3031 0.930 . S
H3044 C3032 0.956 . S
H3045 C3032 0.961 . S
H3046 C3032 0.961 . S
H3047 C3033 0.958 . S
H3048 C3033 0.961 . S
H3049 C3033 0.960 . S
C3050 C3051 1.391 . S
C3050 C3052 1.394 . S
C3050 H3066 0.931 . S
C3051 C3050 1.391 . S
C3051 C3055 1.376 . S
C3052 C3050 1.394 . S
C3052 C3053 1.369 . S
C3052 C3056 1.531 . S
C3053 C3052 1.369 . S
C3053 C3054 1.410 . S
C3053 C3061 1.503 . S
C3054 C3053 1.410 . S
C3054 C3055 1.392 . S
C3054 C3057 1.511 . S
C3055 C3051 1.376 . S
C3055 C3054 1.392 . S
C3055 H3067 0.929 . S
C3056 C3052 1.531 . S
C3056 H3068 0.960 . S
C3056 H3069 0.962 . S
C3056 H3070 0.960 . S
C3057 C3054 1.511 . S
C3057 H3071 0.961 . S
C3057 H3072 0.961 . S
C3057 H3073 0.961 . S
C3058 C3059 1.370 . S
C3058 C3060 1.363 . S
C3058 H3074 0.931 . S
C3059 C3058 1.370 . S
C3059 C3063 1.408 . S
C3060 C3058 1.363 . S
C3060 C3061 1.370 . S
C3060 C3064 1.524 . S
C3061 C3053 1.503 . S
C3061 C3060 1.370 . S
C3061 C3062 1.403 . S
C3062 C3061 1.403 . S
C3062 C3063 1.404 . S
C3062 C3065 1.539 . S
C3063 C3059 1.408 . S
C3063 C3062 1.404 . S
C3063 H3075 0.930 . S
C3064 C3060 1.524 . S
C3064 H3076 0.956 . S
C3064 H3077 0.961 . S
C3064 H3078 0.961 . S
C3065 C3062 1.539 . S
C3065 H3079 0.958 . S
C3065 H3080 0.961 . S
C3065 H3081 0.960 . S
H3066 C3050 0.931 . S
H3067 C3055 0.929 . S
H3068 C3056 0.960 . S
H3069 C3056 0.962 . S
H3070 C3056 0.960 . S
H3071 C3057 0.961 . S
H3072 C3057 0.961 . S
H3073 C3057 0.961 . S
H3074 C3058 0.931 . S
H3075 C3063 0.930 . S
H3076 C3064 0.956 . S
H3077 C3064 0.961 . S
H3078 C3064 0.961 . S
H3079 C3065 0.958 . S
H3080 C3065 0.961 . S
H3081 C3065 0.960 . S
C3082 C3083 1.391 . S
C3082 C3084 1.394 . S
C3082 H3098 0.931 . S
C3083 C3082 1.391 . S
C3083 C3087 1.376 . S
C3084 C3082 1.394 . S
C3084 C3085 1.369 . S
C3084 C3088 1.531 . S
C3085 C3084 1.369 . S
C3085 C3086 1.410 . S
C3085 C3093 1.503 . S
C3086 C3085 1.410 . S
C3086 C3087 1.392 . S
C3086 C3089 1.511 . S
C3087 C3083 1.376 . S
C3087 C3086 1.392 . S
C3087 H3099 0.929 . S
C3088 C3084 1.531 . S
C3088 H3100 0.960 . S
C3088 H3101 0.962 . S
C3088 H3102 0.960 . S
C3089 C3086 1.511 . S
C3089 H3103 0.961 . S
C3089 H3104 0.961 . S
C3089 H3105 0.961 . S
C3090 C3091 1.370 . S
C3090 C3092 1.363 . S
C3090 H3106 0.931 . S
C3091 C3090 1.370 . S
C3091 C3095 1.408 . S
C3092 C3090 1.363 . S
C3092 C3093 1.370 . S
C3092 C3096 1.524 . S
C3093 C3085 1.503 . S
C3093 C3092 1.370 . S
C3093 C3094 1.403 . S
C3094 C3093 1.403 . S
C3094 C3095 1.404 . S
C3094 C3097 1.539 . S
C3095 C3091 1.408 . S
C3095 C3094 1.404 . S
C3095 H3107 0.930 . S
C3096 C3092 1.524 . S
C3096 H3108 0.956 . S
C3096 H3109 0.961 . S
C3096 H3110 0.961 . S
C3097 C3094 1.539 . S
C3097 H3111 0.958 . S
C3097 H3112 0.961 . S
C3097 H3113 0.960 . S
H3098 C3082 0.931 . S
H3099 C3087 0.929 . S
H3100 C3088 0.960 . S
H3101 C3088 0.962 . S
H3102 C3088 0.960 . S
H3103 C3089 0.961 . S
H3104 C3089 0.961 . S
H3105 C3089 0.961 . S
H3106 C3090 0.931 . S
H3107 C3095 0.930 . S
H3108 C3096 0.956 . S
H3109 C3096 0.961 . S
H3110 C3096 0.961 . S
H3111 C3097 0.958 . S
H3112 C3097 0.961 . S
H3113 C3097 0.960 . S
C3114 C3115 1.391 . S
C3114 C3116 1.394 . S
C3114 H3130 0.931 . S
C3115 C3114 1.391 . S
C3115 C3119 1.376 . S
C3116 C3114 1.394 . S
C3116 C3117 1.369 . S
C3116 C3120 1.531 . S
C3117 C3116 1.369 . S
C3117 C3118 1.410 . S
C3117 C3125 1.503 . S
C3118 C3117 1.410 . S
C3118 C3119 1.392 . S
C3118 C3121 1.511 . S
C3119 C3115 1.376 . S
C3119 C3118 1.392 . S
C3119 H3131 0.929 . S
C3120 C3116 1.531 . S
C3120 H3132 0.960 . S
C3120 H3133 0.962 . S
C3120 H3134 0.960 . S
C3121 C3118 1.511 . S
C3121 H3135 0.961 . S
C3121 H3136 0.961 . S
C3121 H3137 0.961 . S
C3122 C3123 1.370 . S
C3122 C3124 1.363 . S
C3122 H3138 0.931 . S
C3123 C3122 1.370 . S
C3123 C3127 1.408 . S
C3124 C3122 1.363 . S
C3124 C3125 1.370 . S
C3124 C3128 1.524 . S
C3125 C3117 1.503 . S
C3125 C3124 1.370 . S
C3125 C3126 1.403 . S
C3126 C3125 1.403 . S
C3126 C3127 1.404 . S
C3126 C3129 1.539 . S
C3127 C3123 1.408 . S
C3127 C3126 1.404 . S
C3127 H3139 0.930 . S
C3128 C3124 1.524 . S
C3128 H3140 0.956 . S
C3128 H3141 0.961 . S
C3128 H3142 0.961 . S
C3129 C3126 1.539 . S
C3129 H3143 0.958 . S
C3129 H3144 0.961 . S
C3129 H3145 0.960 . S
H3130 C3114 0.931 . S
H3131 C3119 0.929 . S
H3132 C3120 0.960 . S
H3133 C3120 0.962 . S
H3134 C3120 0.960 . S
H3135 C3121 0.961 . S
H3136 C3121 0.961 . S
H3137 C3121 0.961 . S
H3138 C3122 0.931 . S
H3139 C3127 0.930 . S
H3140 C3128 0.956 . S
H3141 C3128 0.961 . S
H3142 C3128 0.961 . S
H3143 C3129 0.958 . S
H3144 C3129 0.961 . S
H3145 C3129 0.960 . S
C3146 C3147 1.391 . S
C3146 C3148 1.394 . S
C3146 H3162 0.931 . S
C3147 C3146 1.391 . S
C3147 C3151 1.376 . S
C3148 C3146 1.394 . S
C3148 C3149 1.369 . S
C3148 C3152 1.531 . S
C3149 C3148 1.369 . S
C3149 C3150 1.410 . S
C3149 C3157 1.503 . S
C3150 C3149 1.410 . S
C3150 C3151 1.392 . S
C3150 C3153 1.511 . S
C3151 C3147 1.376 . S
C3151 C3150 1.392 . S
C3151 H3163 0.929 . S
C3152 C3148 1.531 . S
C3152 H3164 0.960 . S
C3152 H3165 0.962 . S
C3152 H3166 0.960 . S
C3153 C3150 1.511 . S
C3153 H3167 0.961 . S
C3153 H3168 0.961 . S
C3153 H3169 0.961 . S
C3154 C3155 1.370 . S
C3154 C3156 1.363 . S
C3154 H3170 0.931 . S
C3155 C3154 1.370 . S
C3155 C3159 1.408 . S
C3156 C3154 1.363 . S
C3156 C3157 1.370 . S
C3156 C3160 1.524 . S
C3157 C3149 1.503 . S
C3157 C3156 1.370 . S
C3157 C3158 1.403 . S
C3158 C3157 1.403 . S
C3158 C3159 1.404 . S
C3158 C3161 1.539 . S
C3159 C3155 1.408 . S
C3159 C3158 1.404 . S
C3159 H3171 0.930 . S
C3160 C3156 1.524 . S
C3160 H3172 0.956 . S
C3160 H3173 0.961 . S
C3160 H3174 0.961 . S
C3161 C3158 1.539 . S
C3161 H3175 0.958 . S
C3161 H3176 0.961 . S
C3161 H3177 0.960 . S
H3162 C3146 0.931 . S
H3163 C3151 0.929 . S
H3164 C3152 0.960 . S
H3165 C3152 0.962 . S
H3166 C3152 0.960 . S
H3167 C3153 0.961 . S
H3168 C3153 0.961 . S
H3169 C3153 0.961 . S
H3170 C3154 0.931 . S
H3171 C3159 0.930 . S
H3172 C3160 0.956 . S
H3173 C3160 0.961 . S
H3174 C3160 0.961 . S
H3175 C3161 0.958 . S
H3176 C3161 0.961 . S
H3177 C3161 0.960 . S
C3178 C3179 1.391 . S
C3178 C3180 1.394 . S
C3178 H3194 0.931 . S
C3179 C3178 1.391 . S
C3179 C3183 1.376 . S
C3180 C3178 1.394 . S
C3180 C3181 1.369 . S
C3180 C3184 1.531 . S
C3181 C3180 1.369 . S
C3181 C3182 1.410 . S
C3181 C3189 1.503 . S
C3182 C3181 1.410 . S
C3182 C3183 1.392 . S
C3182 C3185 1.511 . S
C3183 C3179 1.376 . S
C3183 C3182 1.392 . S
C3183 H3195 0.929 . S
C3184 C3180 1.531 . S
C3184 H3196 0.960 . S
C3184 H3197 0.962 . S
C3184 H3198 0.960 . S
C3185 C3182 1.511 . S
C3185 H3199 0.961 . S
C3185 H3200 0.961 . S
C3185 H3201 0.961 . S
C3186 C3187 1.370 . S
C3186 C3188 1.363 . S
C3186 H3202 0.931 . S
C3187 C3186 1.370 . S
C3187 C3191 1.408 . S
C3188 C3186 1.363 . S
C3188 C3189 1.370 . S
C3188 C3192 1.524 . S
C3189 C3181 1.503 . S
C3189 C3188 1.370 . S
C3189 C3190 1.403 . S
C3190 C3189 1.403 . S
C3190 C3191 1.404 . S
C3190 C3193 1.539 . S
C3191 C3187 1.408 . S
C3191 C3190 1.404 . S
C3191 H3203 0.930 . S
C3192 C3188 1.524 . S
C3192 H3204 0.956 . S
C3192 H3205 0.961 . S
C3192 H3206 0.961 . S
C3193 C3190 1.539 . S
C3193 H3207 0.958 . S
C3193 H3208 0.961 . S
C3193 H3209 0.960 . S
H3194 C3178 0.931 . S
H3195 C3183 0.929 . S
H3196 C3184 0.960 . S
H3197 C3184 0.962 . S
H3198 C3184 0.960 . S
H3199 C3185 0.961 . S
H3200 C3185 0.961 . S
H3201 C3185 0.961 . S
H3202 C3186 0.931 . S
H3203 C3191 0.930 . S
H3204 C3192 0.956 . S
H3205 C3192 0.961 . S
H3206 C3192 0.961 . S
H3207 C3193 0.958 . S
H3208 C3193 0.961 . S
H3209 C3193 0.960 . S
C3210 C3211 1.391 . S
C3210 C3212 1.394 . S
C3210 H3226 0.931 . S
C3211 C3210 1.391 . S
C3211 C3215 1.376 . S
C3212 C3210 1.394 . S
C3212 C3213 1.369 . S
C3212 C3216 1.531 . S
C3213 C3212 1.369 . S
C3213 C3214 1.410 . S
C3213 C3221 1.503 . S
C3214 C3213 1.410 . S
C3214 C3215 1.392 . S
C3214 C3217 1.511 . S
C3215 C3211 1.376 . S
C3215 C3214 1.392 . S
C3215 H3227 0.929 . S
C3216 C3212 1.531 . S
C3216 H3228 0.960 . S
C3216 H3229 0.962 . S
C3216 H3230 0.960 . S
C3217 C3214 1.511 . S
C3217 H3231 0.961 . S
C3217 H3232 0.961 . S
C3217 H3233 0.961 . S
C3218 C3219 1.370 . S
C3218 C3220 1.363 . S
C3218 H3234 0.931 . S
C3219 C3218 1.370 . S
C3219 C3223 1.408 . S
C3220 C3218 1.363 . S
C3220 C3221 1.370 . S
C3220 C3224 1.524 . S
C3221 C3213 1.503 . S
C3221 C3220 1.370 . S
C3221 C3222 1.403 . S
C3222 C3221 1.403 . S
C3222 C3223 1.404 . S
C3222 C3225 1.539 . S
C3223 C3219 1.408 . S
C3223 C3222 1.404 . S
C3223 H3235 0.930 . S
C3224 C3220 1.524 . S
C3224 H3236 0.956 . S
C3224 H3237 0.961 . S
C3224 H3238 0.961 . S
C3225 C3222 1.539 . S
C3225 H3239 0.958 1_556 S
C3225 H3240 0.961 1_556 S
C3225 H3241 0.960 1_556 S
H3226 C3210 0.931 . S
H3227 C3215 0.929 . S
H3228 C3216 0.960 . S
H3229 C3216 0.962 . S
H3230 C3216 0.960 . S
H3231 C3217 0.961 . S
H3232 C3217 0.961 . S
H3233 C3217 0.961 . S
H3234 C3218 0.931 . S
H3235 C3223 0.930 . S
H3236 C3224 0.956 . S
H3237 C3224 0.961 . S
H3238 C3224 0.961 . S
H3239 C3225 0.958 1_554 S
H3240 C3225 0.961 1_554 S
H3241 C3225 0.960 1_554 S
C3242 C3243 1.391 . S
C3242 C3244 1.394 . S
C3242 H3258 0.931 . S
C3243 C3242 1.391 . S
C3243 C3247 1.376 . S
C3244 C3242 1.394 . S
C3244 C3245 1.369 . S
C3244 C3248 1.531 . S
C3245 C3244 1.369 . S
C3245 C3246 1.410 . S
C3245 C3253 1.503 . S
C3246 C3245 1.410 . S
C3246 C3247 1.392 . S
C3246 C3249 1.511 . S
C3247 C3243 1.376 . S
C3247 C3246 1.392 . S
C3247 H3259 0.929 . S
C3248 C3244 1.531 . S
C3248 H3260 0.960 . S
C3248 H3261 0.962 . S
C3248 H3262 0.960 . S
C3249 C3246 1.511 . S
C3249 H3263 0.961 . S
C3249 H3264 0.961 . S
C3249 H3265 0.961 1_556 S
C3250 C3251 1.370 . S
C3250 C3252 1.363 . S
C3250 H3266 0.931 . S
C3251 C3250 1.370 . S
C3251 C3255 1.408 . S
C3252 C3250 1.363 . S
C3252 C3253 1.370 . S
C3252 C3256 1.524 . S
C3253 C3245 1.503 . S
C3253 C3252 1.370 . S
C3253 C3254 1.403 . S
C3254 C3253 1.403 . S
C3254 C3255 1.404 . S
C3254 C3257 1.539 . S
C3255 C3251 1.408 . S
C3255 C3254 1.404 . S
C3255 H3267 0.930 . S
C3256 C3252 1.524 . S
C3256 H3268 0.956 . S
C3256 H3269 0.961 . S
C3256 H3270 0.961 . S
C3257 C3254 1.539 . S
C3257 H3271 0.958 . S
C3257 H3272 0.961 1_556 S
C3257 H3273 0.960 1_556 S
H3258 C3242 0.931 . S
H3259 C3247 0.929 . S
H3260 C3248 0.960 . S
H3261 C3248 0.962 . S
H3262 C3248 0.960 . S
H3263 C3249 0.961 . S
H3264 C3249 0.961 . S
H3265 C3249 0.961 1_554 S
H3266 C3250 0.931 . S
H3267 C3255 0.930 . S
H3268 C3256 0.956 . S
H3269 C3256 0.961 . S
H3270 C3256 0.961 . S
H3271 C3257 0.958 . S
H3272 C3257 0.961 1_554 S
H3273 C3257 0.960 1_554 S
C3274 C3275 1.391 . S
C3274 C3276 1.394 . S
C3274 H3290 0.931 . S
C3275 C3274 1.391 . S
C3275 C3279 1.376 . S
C3276 C3274 1.394 . S
C3276 C3277 1.369 . S
C3276 C3280 1.531 . S
C3277 C3276 1.369 . S
C3277 C3278 1.410 . S
C3277 C3285 1.503 . S
C3278 C3277 1.410 . S
C3278 C3279 1.392 . S
C3278 C3281 1.511 . S
C3279 C3275 1.376 . S
C3279 C3278 1.392 . S
C3279 H3291 0.929 . S
C3280 C3276 1.531 . S
C3280 H3292 0.960 . S
C3280 H3293 0.962 . S
C3280 H3294 0.960 . S
C3281 C3278 1.511 . S
C3281 H3295 0.961 . S
C3281 H3296 0.961 . S
C3281 H3297 0.961 . S
C3282 C3283 1.370 . S
C3282 C3284 1.363 . S
C3282 H3298 0.931 . S
C3283 C3282 1.370 . S
C3283 C3287 1.408 . S
C3284 C3282 1.363 . S
C3284 C3285 1.370 . S
C3284 C3288 1.524 . S
C3285 C3277 1.503 . S
C3285 C3284 1.370 . S
C3285 C3286 1.403 . S
C3286 C3285 1.403 . S
C3286 C3287 1.404 . S
C3286 C3289 1.539 . S
C3287 C3283 1.408 . S
C3287 C3286 1.404 . S
C3287 H3299 0.930 . S
C3288 C3284 1.524 . S
C3288 H3300 0.956 . S
C3288 H3301 0.961 . S
C3288 H3302 0.961 . S
C3289 C3286 1.539 . S
C3289 H3303 0.958 . S
C3289 H3304 0.961 . S
C3289 H3305 0.960 . S
H3290 C3274 0.931 . S
H3291 C3279 0.929 . S
H3292 C3280 0.960 . S
H3293 C3280 0.962 . S
H3294 C3280 0.960 . S
H3295 C3281 0.961 . S
H3296 C3281 0.961 . S
H3297 C3281 0.961 . S
H3298 C3282 0.931 . S
H3299 C3287 0.930 . S
H3300 C3288 0.956 . S
H3301 C3288 0.961 . S
H3302 C3288 0.961 . S
H3303 C3289 0.958 . S
H3304 C3289 0.961 . S
H3305 C3289 0.960 . S
C3306 C3307 1.391 . S
C3306 C3308 1.394 . S
C3306 H3322 0.931 . S
C3307 C3306 1.391 . S
C3307 C3311 1.376 . S
C3308 C3306 1.394 . S
C3308 C3309 1.369 . S
C3308 C3312 1.531 . S
C3309 C3308 1.369 . S
C3309 C3310 1.410 . S
C3309 C3317 1.503 . S
C3310 C3309 1.410 . S
C3310 C3311 1.392 . S
C3310 C3313 1.511 . S
C3311 C3307 1.376 . S
C3311 C3310 1.392 . S
C3311 H3323 0.929 1_556 S
C3312 C3308 1.531 . S
C3312 H3324 0.960 . S
C3312 H3325 0.962 . S
C3312 H3326 0.960 . S
C3313 C3310 1.511 . S
C3313 H3327 0.961 1_556 S
C3313 H3328 0.961 . S
C3313 H3329 0.961 . S
C3314 C3315 1.370 . S
C3314 C3316 1.363 . S
C3314 H3330 0.931 . S
C3315 C3314 1.370 . S
C3315 C3319 1.408 . S
C3316 C3314 1.363 . S
C3316 C3317 1.370 . S
C3316 C3320 1.524 . S
C3317 C3309 1.503 . S
C3317 C3316 1.370 . S
C3317 C3318 1.403 . S
C3318 C3317 1.403 . S
C3318 C3319 1.404 . S
C3318 C3321 1.539 . S
C3319 C3315 1.408 . S
C3319 C3318 1.404 . S
C3319 H3331 0.930 . S
C3320 C3316 1.524 . S
C3320 H3332 0.956 . S
C3320 H3333 0.961 . S
C3320 H3334 0.961 . S
C3321 C3318 1.539 . S
C3321 H3335 0.958 . S
C3321 H3336 0.961 . S
C3321 H3337 0.960 . S
H3322 C3306 0.931 . S
H3323 C3311 0.929 1_554 S
H3324 C3312 0.960 . S
H3325 C3312 0.962 . S
H3326 C3312 0.960 . S
H3327 C3313 0.961 1_554 S
H3328 C3313 0.961 . S
H3329 C3313 0.961 . S
H3330 C3314 0.931 . S
H3331 C3319 0.930 . S
H3332 C3320 0.956 . S
H3333 C3320 0.961 . S
H3334 C3320 0.961 . S
H3335 C3321 0.958 . S
H3336 C3321 0.961 . S
H3337 C3321 0.960 . S
C3338 C3339 1.391 . S
C3338 C3340 1.394 . S
C3338 H3354 0.931 1_556 S
C3339 C3338 1.391 . S
C3339 C3343 1.376 . S
C3340 C3338 1.394 . S
C3340 C3341 1.369 . S
C3340 C3344 1.531 1_556 S
C3341 C3340 1.369 . S
C3341 C3342 1.410 . S
C3341 C3349 1.503 . S
C3342 C3341 1.410 . S
C3342 C3343 1.392 . S
C3342 C3345 1.511 . S
C3343 C3339 1.376 . S
C3343 C3342 1.392 . S
C3343 H3355 0.929 . S
C3344 C3340 1.531 1_554 S
C3344 H3356 0.960 1_554 S
C3344 H3357 0.962 . S
C3344 H3358 0.960 . S
C3345 C3342 1.511 . S
C3345 H3359 0.961 . S
C3345 H3360 0.961 . S
C3345 H3361 0.961 . S
C3346 C3347 1.370 . S
C3346 C3348 1.363 . S
C3346 H3362 0.931 . S
C3347 C3346 1.370 . S
C3347 C3351 1.408 . S
C3348 C3346 1.363 . S
C3348 C3349 1.370 . S
C3348 C3352 1.524 . S
C3349 C3341 1.503 . S
C3349 C3348 1.370 . S
C3349 C3350 1.403 . S
C3350 C3349 1.403 . S
C3350 C3351 1.404 . S
C3350 C3353 1.539 . S
C3351 C3347 1.408 . S
C3351 C3350 1.404 . S
C3351 H3363 0.930 . S
C3352 C3348 1.524 . S
C3352 H3364 0.956 . S
C3352 H3365 0.961 . S
C3352 H3366 0.961 . S
C3353 C3350 1.539 . S
C3353 H3367 0.958 . S
C3353 H3368 0.961 . S
C3353 H3369 0.960 . S
H3354 C3338 0.931 1_554 S
H3355 C3343 0.929 . S
H3356 C3344 0.960 1_556 S
H3357 C3344 0.962 . S
H3358 C3344 0.960 . S
H3359 C3345 0.961 . S
H3360 C3345 0.961 . S
H3361 C3345 0.961 . S
H3362 C3346 0.931 . S
H3363 C3351 0.930 . S
H3364 C3352 0.956 . S
H3365 C3352 0.961 . S
H3366 C3352 0.961 . S
H3367 C3353 0.958 . S
H3368 C3353 0.961 . S
H3369 C3353 0.960 . S
C3370 C3371 1.391 . S
C3370 C3372 1.394 . S
C3370 H3386 0.931 1_556 S
C3371 C3370 1.391 . S
C3371 C3375 1.376 . S
C3372 C3370 1.394 . S
C3372 C3373 1.369 . S
C3372 C3376 1.531 1_556 S
C3373 C3372 1.369 . S
C3373 C3374 1.410 . S
C3373 C3381 1.503 . S
C3374 C3373 1.410 . S
C3374 C3375 1.392 . S
C3374 C3377 1.511 . S
C3375 C3371 1.376 . S
C3375 C3374 1.392 . S
C3375 H3387 0.929 . S
C3376 C3372 1.531 1_554 S
C3376 H3388 0.960 . S
C3376 H3389 0.962 . S
C3376 H3390 0.960 . S
C3377 C3374 1.511 . S
C3377 H3391 0.961 . S
C3377 H3392 0.961 . S
C3377 H3393 0.961 . S
C3378 C3379 1.370 . S
C3378 C3380 1.363 . S
C3378 H3394 0.931 . S
C3379 C3378 1.370 . S
C3379 C3383 1.408 . S
C3380 C3378 1.363 . S
C3380 C3381 1.370 . S
C3380 C3384 1.524 . S
C3381 C3373 1.503 . S
C3381 C3380 1.370 . S
C3381 C3382 1.403 . S
C3382 C3381 1.403 . S
C3382 C3383 1.404 . S
C3382 C3385 1.539 . S
C3383 C3379 1.408 . S
C3383 C3382 1.404 . S
C3383 H3395 0.930 . S
C3384 C3380 1.524 . S
C3384 H3396 0.956 . S
C3384 H3397 0.961 . S
C3384 H3398 0.961 . S
C3385 C3382 1.539 . S
C3385 H3399 0.958 . S
C3385 H3400 0.961 . S
C3385 H3401 0.960 . S
H3386 C3370 0.931 1_554 S
H3387 C3375 0.929 . S
H3388 C3376 0.960 . S
H3389 C3376 0.962 . S
H3390 C3376 0.960 . S
H3391 C3377 0.961 . S
H3392 C3377 0.961 . S
H3393 C3377 0.961 . S
H3394 C3378 0.931 . S
H3395 C3383 0.930 . S
H3396 C3384 0.956 . S
H3397 C3384 0.961 . S
H3398 C3384 0.961 . S
H3399 C3385 0.958 . S
H3400 C3385 0.961 . S
H3401 C3385 0.960 . S
C3402 C3403 1.391 . S
C3402 C3404 1.394 . S
C3402 H3418 0.931 . S
C3403 C3402 1.391 . S
C3403 C3407 1.376 . S
C3404 C3402 1.394 . S
C3404 C3405 1.369 . S
C3404 C3408 1.531 . S
C3405 C3404 1.369 . S
C3405 C3406 1.410 . S
C3405 C3413 1.503 . S
C3406 C3405 1.410 . S
C3406 C3407 1.392 . S
C3406 C3409 1.511 . S
C3407 C3403 1.376 . S
C3407 C3406 1.392 . S
C3407 H3419 0.929 . S
C3408 C3404 1.531 . S
C3408 H3420 0.960 . S
C3408 H3421 0.962 . S
C3408 H3422 0.960 1_554 S
C3409 C3406 1.511 . S
C3409 H3423 0.961 . S
C3409 H3424 0.961 . S
C3409 H3425 0.961 . S
C3410 C3411 1.370 . S
C3410 C3412 1.363 . S
C3410 H3426 0.931 . S
C3411 C3410 1.370 . S
C3411 C3415 1.408 . S
C3412 C3410 1.363 . S
C3412 C3413 1.370 . S
C3412 C3416 1.524 . S
C3413 C3405 1.503 . S
C3413 C3412 1.370 . S
C3413 C3414 1.403 . S
C3414 C3413 1.403 . S
C3414 C3415 1.404 . S
C3414 C3417 1.539 . S
C3415 C3411 1.408 . S
C3415 C3414 1.404 . S
C3415 H3427 0.930 . S
C3416 C3412 1.524 . S
C3416 H3428 0.956 . S
C3416 H3429 0.961 . S
C3416 H3430 0.961 . S
C3417 C3414 1.539 . S
C3417 H3431 0.958 . S
C3417 H3432 0.961 . S
C3417 H3433 0.960 . S
H3418 C3402 0.931 . S
H3419 C3407 0.929 . S
H3420 C3408 0.960 . S
H3421 C3408 0.962 . S
H3422 C3408 0.960 1_556 S
H3423 C3409 0.961 . S
H3424 C3409 0.961 . S
H3425 C3409 0.961 . S
H3426 C3410 0.931 . S
H3427 C3415 0.930 . S
H3428 C3416 0.956 . S
H3429 C3416 0.961 . S
H3430 C3416 0.961 . S
H3431 C3417 0.958 . S
H3432 C3417 0.961 . S
H3433 C3417 0.960 . S
C3434 C3435 1.391 . S
C3434 C3436 1.394 . S
C3434 H3450 0.931 . S
C3435 C3434 1.391 . S
C3435 C3439 1.376 . S
C3436 C3434 1.394 . S
C3436 C3437 1.369 . S
C3436 C3440 1.531 . S
C3437 C3436 1.369 . S
C3437 C3438 1.410 . S
C3437 C3445 1.503 . S
C3438 C3437 1.410 . S
C3438 C3439 1.392 . S
C3438 C3441 1.511 . S
C3439 C3435 1.376 . S
C3439 C3438 1.392 . S
C3439 H3451 0.929 . S
C3440 C3436 1.531 . S
C3440 H3452 0.960 . S
C3440 H3453 0.962 . S
C3440 H3454 0.960 1_554 S
C3441 C3438 1.511 . S
C3441 H3455 0.961 . S
C3441 H3456 0.961 . S
C3441 H3457 0.961 . S
C3442 C3443 1.370 . S
C3442 C3444 1.363 . S
C3442 H3458 0.931 . S
C3443 C3442 1.370 . S
C3443 C3447 1.408 . S
C3444 C3442 1.363 . S
C3444 C3445 1.370 . S
C3444 C3448 1.524 . S
C3445 C3437 1.503 . S
C3445 C3444 1.370 . S
C3445 C3446 1.403 . S
C3446 C3445 1.403 . S
C3446 C3447 1.404 . S
C3446 C3449 1.539 . S
C3447 C3443 1.408 . S
C3447 C3446 1.404 . S
C3447 H3459 0.930 . S
C3448 C3444 1.524 . S
C3448 H3460 0.956 . S
C3448 H3461 0.961 . S
C3448 H3462 0.961 . S
C3449 C3446 1.539 . S
C3449 H3463 0.958 . S
C3449 H3464 0.961 . S
C3449 H3465 0.960 . S
H3450 C3434 0.931 . S
H3451 C3439 0.929 . S
H3452 C3440 0.960 . S
H3453 C3440 0.962 . S
H3454 C3440 0.960 1_556 S
H3455 C3441 0.961 . S
H3456 C3441 0.961 . S
H3457 C3441 0.961 . S
H3458 C3442 0.931 . S
H3459 C3447 0.930 . S
H3460 C3448 0.956 . S
H3461 C3448 0.961 . S
H3462 C3448 0.961 . S
H3463 C3449 0.958 . S
H3464 C3449 0.961 . S
H3465 C3449 0.960 . S
C3466 C3467 1.391 . S
C3466 C3468 1.394 . S
C3466 H3482 0.931 . S
C3467 C3466 1.391 . S
C3467 C3471 1.376 . S
C3468 C3466 1.394 . S
C3468 C3469 1.369 . S
C3468 C3472 1.531 . S
C3469 C3468 1.369 . S
C3469 C3470 1.410 . S
C3469 C3477 1.503 . S
C3470 C3469 1.410 . S
C3470 C3471 1.392 . S
C3470 C3473 1.511 . S
C3471 C3467 1.376 . S
C3471 C3470 1.392 . S
C3471 H3483 0.929 . S
C3472 C3468 1.531 . S
C3472 H3484 0.960 . S
C3472 H3485 0.962 . S
C3472 H3486 0.960 . S
C3473 C3470 1.511 . S
C3473 H3487 0.961 . S
C3473 H3488 0.961 . S
C3473 H3489 0.961 . S
C3474 C3475 1.370 . S
C3474 C3476 1.363 . S
C3474 H3490 0.931 . S
C3475 C3474 1.370 . S
C3475 C3479 1.408 . S
C3476 C3474 1.363 . S
C3476 C3477 1.370 . S
C3476 C3480 1.524 . S
C3477 C3469 1.503 . S
C3477 C3476 1.370 . S
C3477 C3478 1.403 . S
C3478 C3477 1.403 . S
C3478 C3479 1.404 . S
C3478 C3481 1.539 . S
C3479 C3475 1.408 . S
C3479 C3478 1.404 . S
C3479 H3491 0.930 . S
C3480 C3476 1.524 . S
C3480 H3492 0.956 . S
C3480 H3493 0.961 . S
C3480 H3494 0.961 . S
C3481 C3478 1.539 . S
C3481 H3495 0.958 . S
C3481 H3496 0.961 . S
C3481 H3497 0.960 . S
H3482 C3466 0.931 . S
H3483 C3471 0.929 . S
H3484 C3472 0.960 . S
H3485 C3472 0.962 . S
H3486 C3472 0.960 . S
H3487 C3473 0.961 . S
H3488 C3473 0.961 . S
H3489 C3473 0.961 . S
H3490 C3474 0.931 . S
H3491 C3479 0.930 . S
H3492 C3480 0.956 . S
H3493 C3480 0.961 . S
H3494 C3480 0.961 . S
H3495 C3481 0.958 . S
H3496 C3481 0.961 . S
H3497 C3481 0.960 . S
C3498 C3499 1.391 . S
C3498 C3500 1.394 . S
C3498 H3514 0.931 . S
C3499 C3498 1.391 . S
C3499 C3503 1.376 . S
C3500 C3498 1.394 . S
C3500 C3501 1.369 . S
C3500 C3504 1.531 . S
C3501 C3500 1.369 . S
C3501 C3502 1.410 . S
C3501 C3509 1.503 . S
C3502 C3501 1.410 . S
C3502 C3503 1.392 . S
C3502 C3505 1.511 . S
C3503 C3499 1.376 . S
C3503 C3502 1.392 . S
C3503 H3515 0.929 . S
C3504 C3500 1.531 . S
C3504 H3516 0.960 . S
C3504 H3517 0.962 . S
C3504 H3518 0.960 . S
C3505 C3502 1.511 . S
C3505 H3519 0.961 . S
C3505 H3520 0.961 . S
C3505 H3521 0.961 . S
C3506 C3507 1.370 . S
C3506 C3508 1.363 . S
C3506 H3522 0.931 . S
C3507 C3506 1.370 . S
C3507 C3511 1.408 . S
C3508 C3506 1.363 . S
C3508 C3509 1.370 . S
C3508 C3512 1.524 . S
C3509 C3501 1.503 . S
C3509 C3508 1.370 . S
C3509 C3510 1.403 . S
C3510 C3509 1.403 . S
C3510 C3511 1.404 . S
C3510 C3513 1.539 . S
C3511 C3507 1.408 . S
C3511 C3510 1.404 . S
C3511 H3523 0.930 . S
C3512 C3508 1.524 . S
C3512 H3524 0.956 . S
C3512 H3525 0.961 . S
C3512 H3526 0.961 . S
C3513 C3510 1.539 . S
C3513 H3527 0.958 . S
C3513 H3528 0.961 . S
C3513 H3529 0.960 . S
H3514 C3498 0.931 . S
H3515 C3503 0.929 . S
H3516 C3504 0.960 . S
H3517 C3504 0.962 . S
H3518 C3504 0.960 . S
H3519 C3505 0.961 . S
H3520 C3505 0.961 . S
H3521 C3505 0.961 . S
H3522 C3506 0.931 . S
H3523 C3511 0.930 . S
H3524 C3512 0.956 . S
H3525 C3512 0.961 . S
H3526 C3512 0.961 . S
H3527 C3513 0.958 . S
H3528 C3513 0.961 . S
H3529 C3513 0.960 . S
C3530 C3531 1.391 . S
C3530 C3532 1.394 . S
C3530 H3546 0.931 . S
C3531 C3530 1.391 . S
C3531 C3535 1.376 . S
C3532 C3530 1.394 . S
C3532 C3533 1.369 . S
C3532 C3536 1.531 . S
C3533 C3532 1.369 . S
C3533 C3534 1.410 . S
C3533 C3541 1.503 . S
C3534 C3533 1.410 . S
C3534 C3535 1.392 . S
C3534 C3537 1.511 . S
C3535 C3531 1.376 . S
C3535 C3534 1.392 . S
C3535 H3547 0.929 . S
C3536 C3532 1.531 . S
C3536 H3548 0.960 . S
C3536 H3549 0.962 . S
C3536 H3550 0.960 . S
C3537 C3534 1.511 . S
C3537 H3551 0.961 . S
C3537 H3552 0.961 . S
C3537 H3553 0.961 . S
C3538 C3539 1.370 . S
C3538 C3540 1.363 . S
C3538 H3554 0.931 . S
C3539 C3538 1.370 . S
C3539 C3543 1.408 . S
C3540 C3538 1.363 . S
C3540 C3541 1.370 . S
C3540 C3544 1.524 . S
C3541 C3533 1.503 . S
C3541 C3540 1.370 . S
C3541 C3542 1.403 . S
C3542 C3541 1.403 . S
C3542 C3543 1.404 . S
C3542 C3545 1.539 . S
C3543 C3539 1.408 . S
C3543 C3542 1.404 . S
C3543 H3555 0.930 . S
C3544 C3540 1.524 . S
C3544 H3556 0.956 . S
C3544 H3557 0.961 . S
C3544 H3558 0.961 . S
C3545 C3542 1.539 . S
C3545 H3559 0.958 . S
C3545 H3560 0.961 . S
C3545 H3561 0.960 . S
H3546 C3530 0.931 . S
H3547 C3535 0.929 . S
H3548 C3536 0.960 . S
H3549 C3536 0.962 . S
H3550 C3536 0.960 . S
H3551 C3537 0.961 . S
H3552 C3537 0.961 . S
H3553 C3537 0.961 . S
H3554 C3538 0.931 . S
H3555 C3543 0.930 . S
H3556 C3544 0.956 . S
H3557 C3544 0.961 . S
H3558 C3544 0.961 . S
H3559 C3545 0.958 . S
H3560 C3545 0.961 . S
H3561 C3545 0.960 . S
C3562 C3563 1.391 . S
C3562 C3564 1.394 . S
C3562 H3578 0.931 . S
C3563 C3562 1.391 . S
C3563 C3567 1.376 . S
C3564 C3562 1.394 . S
C3564 C3565 1.369 . S
C3564 C3568 1.531 . S
C3565 C3564 1.369 . S
C3565 C3566 1.410 . S
C3565 C3573 1.503 . S
C3566 C3565 1.410 . S
C3566 C3567 1.392 . S
C3566 C3569 1.511 . S
C3567 C3563 1.376 . S
C3567 C3566 1.392 . S
C3567 H3579 0.929 . S
C3568 C3564 1.531 . S
C3568 H3580 0.960 . S
C3568 H3581 0.962 . S
C3568 H3582 0.960 . S
C3569 C3566 1.511 . S
C3569 H3583 0.961 . S
C3569 H3584 0.961 . S
C3569 H3585 0.961 . S
C3570 C3571 1.370 . S
C3570 C3572 1.363 . S
C3570 H3586 0.931 . S
C3571 C3570 1.370 . S
C3571 C3575 1.408 . S
C3572 C3570 1.363 . S
C3572 C3573 1.370 . S
C3572 C3576 1.524 . S
C3573 C3565 1.503 . S
C3573 C3572 1.370 . S
C3573 C3574 1.403 . S
C3574 C3573 1.403 . S
C3574 C3575 1.404 . S
C3574 C3577 1.539 . S
C3575 C3571 1.408 . S
C3575 C3574 1.404 . S
C3575 H3587 0.930 . S
C3576 C3572 1.524 . S
C3576 H3588 0.956 . S
C3576 H3589 0.961 . S
C3576 H3590 0.961 . S
C3577 C3574 1.539 . S
C3577 H3591 0.958 . S
C3577 H3592 0.961 . S
C3577 H3593 0.960 . S
H3578 C3562 0.931 . S
H3579 C3567 0.929 . S
H3580 C3568 0.960 . S
H3581 C3568 0.962 . S
H3582 C3568 0.960 . S
H3583 C3569 0.961 . S
H3584 C3569 0.961 . S
H3585 C3569 0.961 . S
H3586 C3570 0.931 . S
H3587 C3575 0.930 . S
H3588 C3576 0.956 . S
H3589 C3576 0.961 . S
H3590 C3576 0.961 . S
H3591 C3577 0.958 . S
H3592 C3577 0.961 . S
H3593 C3577 0.960 . S
C3594 C3595 1.391 . S
C3594 C3596 1.394 . S
C3594 H3610 0.931 . S
C3595 C3594 1.391 . S
C3595 C3599 1.376 . S
C3596 C3594 1.394 . S
C3596 C3597 1.369 . S
C3596 C3600 1.531 . S
C3597 C3596 1.369 . S
C3597 C3598 1.410 . S
C3597 C3605 1.503 . S
C3598 C3597 1.410 . S
C3598 C3599 1.392 . S
C3598 C3601 1.511 . S
C3599 C3595 1.376 . S
C3599 C3598 1.392 . S
C3599 H3611 0.929 . S
C3600 C3596 1.531 . S
C3600 H3612 0.960 . S
C3600 H3613 0.962 . S
C3600 H3614 0.960 . S
C3601 C3598 1.511 . S
C3601 H3615 0.961 . S
C3601 H3616 0.961 . S
C3601 H3617 0.961 . S
C3602 C3603 1.370 1_655 S
C3602 C3604 1.363 . S
C3602 H3618 0.931 . S
C3603 C3602 1.370 1_455 S
C3603 C3607 1.408 . S
C3604 C3602 1.363 . S
C3604 C3605 1.370 1_655 S
C3604 C3608 1.524 . S
C3605 C3597 1.503 . S
C3605 C3604 1.370 1_455 S
C3605 C3606 1.403 . S
C3606 C3605 1.403 . S
C3606 C3607 1.404 . S
C3606 C3609 1.539 . S
C3607 C3603 1.408 . S
C3607 C3606 1.404 . S
C3607 H3619 0.930 . S
C3608 C3604 1.524 . S
C3608 H3620 0.956 . S
C3608 H3621 0.961 . S
C3608 H3622 0.961 . S
C3609 C3606 1.539 . S
C3609 H3623 0.958 . S
C3609 H3624 0.961 . S
C3609 H3625 0.960 . S
H3610 C3594 0.931 . S
H3611 C3599 0.929 . S
H3612 C3600 0.960 . S
H3613 C3600 0.962 . S
H3614 C3600 0.960 . S
H3615 C3601 0.961 . S
H3616 C3601 0.961 . S
H3617 C3601 0.961 . S
H3618 C3602 0.931 . S
H3619 C3607 0.930 . S
H3620 C3608 0.956 . S
H3621 C3608 0.961 . S
H3622 C3608 0.961 . S
H3623 C3609 0.958 . S
H3624 C3609 0.961 . S
H3625 C3609 0.960 . S
C3626 C3627 1.391 . S
C3626 C3628 1.394 . S
C3626 H3642 0.931 . S
C3627 C3626 1.391 . S
C3627 C3631 1.376 . S
C3628 C3626 1.394 . S
C3628 C3629 1.369 . S
C3628 C3632 1.531 . S
C3629 C3628 1.369 . S
C3629 C3630 1.410 . S
C3629 C3637 1.503 . S
C3630 C3629 1.410 . S
C3630 C3631 1.392 . S
C3630 C3633 1.511 . S
C3631 C3627 1.376 . S
C3631 C3630 1.392 . S
C3631 H3643 0.929 . S
C3632 C3628 1.531 . S
C3632 H3644 0.960 . S
C3632 H3645 0.962 . S
C3632 H3646 0.960 . S
C3633 C3630 1.511 . S
C3633 H3647 0.961 . S
C3633 H3648 0.961 . S
C3633 H3649 0.961 . S
C3634 C3635 1.370 . S
C3634 C3636 1.363 . S
C3634 H3650 0.931 . S
C3635 C3634 1.370 . S
C3635 C3639 1.408 . S
C3636 C3634 1.363 . S
C3636 C3637 1.370 . S
C3636 C3640 1.524 . S
C3637 C3629 1.503 . S
C3637 C3636 1.370 . S
C3637 C3638 1.403 . S
C3638 C3637 1.403 . S
C3638 C3639 1.404 . S
C3638 C3641 1.539 . S
C3639 C3635 1.408 . S
C3639 C3638 1.404 . S
C3639 H3651 0.930 . S
C3640 C3636 1.524 . S
C3640 H3652 0.956 . S
C3640 H3653 0.961 . S
C3640 H3654 0.961 . S
C3641 C3638 1.539 . S
C3641 H3655 0.958 . S
C3641 H3656 0.961 . S
C3641 H3657 0.960 . S
H3642 C3626 0.931 . S
H3643 C3631 0.929 . S
H3644 C3632 0.960 . S
H3645 C3632 0.962 . S
H3646 C3632 0.960 . S
H3647 C3633 0.961 . S
H3648 C3633 0.961 . S
H3649 C3633 0.961 . S
H3650 C3634 0.931 . S
H3651 C3639 0.930 . S
H3652 C3640 0.956 . S
H3653 C3640 0.961 . S
H3654 C3640 0.961 . S
H3655 C3641 0.958 . S
H3656 C3641 0.961 . S
H3657 C3641 0.960 . S
C3658 C3659 1.391 1_545 S
C3658 C3660 1.394 . S
C3658 H3674 0.931 . S
C3659 C3658 1.391 1_565 S
C3659 C3663 1.376 . S
C3660 C3658 1.394 . S
C3660 C3661 1.369 1_545 S
C3660 C3664 1.531 . S
C3661 C3660 1.369 1_565 S
C3661 C3662 1.410 . S
C3661 C3669 1.503 . S
C3662 C3661 1.410 . S
C3662 C3663 1.392 . S
C3662 C3665 1.511 . S
C3663 C3659 1.376 . S
C3663 C3662 1.392 . S
C3663 H3675 0.929 . S
C3664 C3660 1.531 . S
C3664 H3676 0.960 . S
C3664 H3677 0.962 . S
C3664 H3678 0.960 . S
C3665 C3662 1.511 . S
C3665 H3679 0.961 . S
C3665 H3680 0.961 . S
C3665 H3681 0.961 . S
C3666 C3667 1.370 . S
C3666 C3668 1.363 . S
C3666 H3682 0.931 . S
C3667 C3666 1.370 . S
C3667 C3671 1.408 . S
C3668 C3666 1.363 . S
C3668 C3669 1.370 . S
C3668 C3672 1.524 . S
C3669 C3661 1.503 . S
C3669 C3668 1.370 . S
C3669 C3670 1.403 . S
C3670 C3669 1.403 . S
C3670 C3671 1.404 . S
C3670 C3673 1.539 . S
C3671 C3667 1.408 . S
C3671 C3670 1.404 . S
C3671 H3683 0.930 . S
C3672 C3668 1.524 . S
C3672 H3684 0.956 1_565 S
C3672 H3685 0.961 . S
C3672 H3686 0.961 . S
C3673 C3670 1.539 . S
C3673 H3687 0.958 1_565 S
C3673 H3688 0.961 . S
C3673 H3689 0.960 . S
H3674 C3658 0.931 . S
H3675 C3663 0.929 . S
H3676 C3664 0.960 . S
H3677 C3664 0.962 . S
H3678 C3664 0.960 . S
H3679 C3665 0.961 . S
H3680 C3665 0.961 . S
H3681 C3665 0.961 . S
H3682 C3666 0.931 . S
H3683 C3671 0.930 . S
H3684 C3672 0.956 1_545 S
H3685 C3672 0.961 . S
H3686 C3672 0.961 . S
H3687 C3673 0.958 1_545 S
H3688 C3673 0.961 . S
H3689 C3673 0.960 . S
C3690 C3691 1.391 . S
C3690 C3692 1.394 . S
C3690 H3706 0.931 . S
C3691 C3690 1.391 . S
C3691 C3695 1.376 . S
C3692 C3690 1.394 . S
C3692 C3693 1.369 . S
C3692 C3696 1.531 . S
C3693 C3692 1.369 . S
C3693 C3694 1.410 . S
C3693 C3701 1.503 . S
C3694 C3693 1.410 . S
C3694 C3695 1.392 . S
C3694 C3697 1.511 . S
C3695 C3691 1.376 . S
C3695 C3694 1.392 . S
C3695 H3707 0.929 . S
C3696 C3692 1.531 . S
C3696 H3708 0.960 . S
C3696 H3709 0.962 . S
C3696 H3710 0.960 . S
C3697 C3694 1.511 . S
C3697 H3711 0.961 1_565 S
C3697 H3712 0.961 1_565 S
C3697 H3713 0.961 . S
C3698 C3699 1.370 1_545 S
C3698 C3700 1.363 . S
C3698 H3714 0.931 . S
C3699 C3698 1.370 1_565 S
C3699 C3703 1.408 . S
C3700 C3698 1.363 . S
C3700 C3701 1.370 1_545 S
C3700 C3704 1.524 . S
C3701 C3693 1.503 . S
C3701 C3700 1.370 1_565 S
C3701 C3702 1.403 . S
C3702 C3701 1.403 . S
C3702 C3703 1.404 . S
C3702 C3705 1.539 . S
C3703 C3699 1.408 . S
C3703 C3702 1.404 . S
C3703 H3715 0.930 . S
C3704 C3700 1.524 . S
C3704 H3716 0.956 . S
C3704 H3717 0.961 . S
C3704 H3718 0.961 . S
C3705 C3702 1.539 . S
C3705 H3719 0.958 . S
C3705 H3720 0.961 . S
C3705 H3721 0.960 . S
H3706 C3690 0.931 . S
H3707 C3695 0.929 . S
H3708 C3696 0.960 . S
H3709 C3696 0.962 . S
H3710 C3696 0.960 . S
H3711 C3697 0.961 1_545 S
H3712 C3697 0.961 1_545 S
H3713 C3697 0.961 . S
H3714 C3698 0.931 . S
H3715 C3703 0.930 . S
H3716 C3704 0.956 . S
H3717 C3704 0.961 . S
H3718 C3704 0.961 . S
H3719 C3705 0.958 . S
H3720 C3705 0.961 . S
H3721 C3705 0.960 . S
C3722 C3723 1.391 . S
C3722 C3724 1.394 . S
C3722 H3738 0.931 . S
C3723 C3722 1.391 . S
C3723 C3727 1.376 1_455 S
C3724 C3722 1.394 . S
C3724 C3725 1.369 . S
C3724 C3728 1.531 . S
C3725 C3724 1.369 . S
C3725 C3726 1.410 1_455 S
C3725 C3733 1.503 . S
C3726 C3725 1.410 1_655 S
C3726 C3727 1.392 . S
C3726 C3729 1.511 . S
C3727 C3723 1.376 1_655 S
C3727 C3726 1.392 . S
C3727 H3739 0.929 . S
C3728 C3724 1.531 . S
C3728 H3740 0.960 . S
C3728 H3741 0.962 . S
C3728 H3742 0.960 . S
C3729 C3726 1.511 . S
C3729 H3743 0.961 . S
C3729 H3744 0.961 . S
C3729 H3745 0.961 . S
C3730 C3731 1.370 . S
C3730 C3732 1.363 . S
C3730 H3746 0.931 . S
C3731 C3730 1.370 . S
C3731 C3735 1.408 . S
C3732 C3730 1.363 . S
C3732 C3733 1.370 . S
C3732 C3736 1.524 . S
C3733 C3725 1.503 . S
C3733 C3732 1.370 . S
C3733 C3734 1.403 . S
C3734 C3733 1.403 . S
C3734 C3735 1.404 . S
C3734 C3737 1.539 . S
C3735 C3731 1.408 . S
C3735 C3734 1.404 . S
C3735 H3747 0.930 . S
C3736 C3732 1.524 . S
C3736 H3748 0.956 . S
C3736 H3749 0.961 1_455 S
C3736 H3750 0.961 . S
C3737 C3734 1.539 . S
C3737 H3751 0.958 . S
C3737 H3752 0.958 1_455 S
C3737 H3753 0.960 . S
H3738 C3722 0.931 . S
H3739 C3727 0.929 . S
H3740 C3728 0.960 . S
H3741 C3728 0.962 . S
H3742 C3728 0.960 . S
H3743 C3729 0.961 . S
H3744 C3729 0.961 . S
H3745 C3729 0.961 . S
H3746 C3730 0.931 . S
H3747 C3735 0.930 . S
H3748 C3736 0.956 . S
H3749 C3736 0.961 1_655 S
H3750 C3736 0.961 . S
H3751 C3737 0.958 . S
H3752 C3737 0.958 1_655 S
H3753 C3737 0.960 . S
C3754 C3755 1.391 . S
C3754 C3756 1.394 . S
C3754 H3770 0.931 . S
C3755 C3754 1.391 . S
C3755 C3759 1.376 . S
C3756 C3754 1.394 . S
C3756 C3757 1.369 . S
C3756 C3760 1.531 . S
C3757 C3756 1.369 . S
C3757 C3758 1.410 . S
C3757 C3765 1.503 . S
C3758 C3757 1.410 . S
C3758 C3759 1.392 . S
C3758 C3761 1.511 . S
C3759 C3755 1.376 . S
C3759 C3758 1.392 . S
C3759 H3771 0.929 . S
C3760 C3756 1.531 . S
C3760 H3772 0.960 . S
C3760 H3773 0.962 . S
C3760 H3774 0.960 . S
C3761 C3758 1.511 . S
C3761 H3775 0.961 . S
C3761 H3776 0.961 . S
C3761 H3777 0.961 . S
C3762 C3763 1.370 . S
C3762 C3764 1.363 . S
C3762 H3778 0.931 . S
C3763 C3762 1.370 . S
C3763 C3767 1.408 . S
C3764 C3762 1.363 . S
C3764 C3765 1.370 . S
C3764 C3768 1.524 . S
C3765 C3757 1.503 . S
C3765 C3764 1.370 . S
C3765 C3766 1.403 . S
C3766 C3765 1.403 . S
C3766 C3767 1.404 . S
C3766 C3769 1.539 . S
C3767 C3763 1.408 . S
C3767 C3766 1.404 . S
C3767 H3779 0.930 . S
C3768 C3764 1.524 . S
C3768 H3780 0.956 . S
C3768 H3781 0.961 . S
C3768 H3782 0.961 . S
C3769 C3766 1.539 . S
C3769 H3783 0.958 . S
C3769 H3784 0.961 . S
C3769 H3785 0.960 . S
H3770 C3754 0.931 . S
H3771 C3759 0.929 . S
H3772 C3760 0.960 . S
H3773 C3760 0.962 . S
H3774 C3760 0.960 . S
H3775 C3761 0.961 . S
H3776 C3761 0.961 . S
H3777 C3761 0.961 . S
H3778 C3762 0.931 . S
H3779 C3767 0.930 . S
H3780 C3768 0.956 . S
H3781 C3768 0.961 . S
H3782 C3768 0.961 . S
H3783 C3769 0.958 . S
H3784 C3769 0.961 . S
H3785 C3769 0.960 . S
C3786 C3787 1.391 . S
C3786 C3788 1.394 . S
C3786 H3802 0.931 . S
C3787 C3786 1.391 . S
C3787 C3791 1.376 . S
C3788 C3786 1.394 . S
C3788 C3789 1.369 . S
C3788 C3792 1.531 . S
C3789 C3788 1.369 . S
C3789 C3790 1.410 . S
C3789 C3797 1.503 . S
C3790 C3789 1.410 . S
C3790 C3791 1.392 . S
C3790 C3793 1.511 . S
C3791 C3787 1.376 . S
C3791 C3790 1.392 . S
C3791 H3803 0.929 . S
C3792 C3788 1.531 . S
C3792 H3804 0.960 . S
C3792 H3805 0.962 . S
C3792 H3806 0.960 . S
C3793 C3790 1.511 . S
C3793 H3807 0.961 . S
C3793 H3808 0.961 . S
C3793 H3809 0.961 . S
C3794 C3795 1.370 . S
C3794 C3796 1.363 . S
C3794 H3810 0.931 . S
C3795 C3794 1.370 . S
C3795 C3799 1.408 . S
C3796 C3794 1.363 . S
C3796 C3797 1.370 . S
C3796 C3800 1.524 . S
C3797 C3789 1.503 . S
C3797 C3796 1.370 . S
C3797 C3798 1.403 . S
C3798 C3797 1.403 . S
C3798 C3799 1.404 . S
C3798 C3801 1.539 . S
C3799 C3795 1.408 . S
C3799 C3798 1.404 . S
C3799 H3811 0.930 . S
C3800 C3796 1.524 . S
C3800 H3812 0.956 . S
C3800 H3813 0.961 . S
C3800 H3814 0.961 . S
C3801 C3798 1.539 . S
C3801 H3815 0.958 . S
C3801 H3816 0.961 . S
C3801 H3817 0.960 . S
H3802 C3786 0.931 . S
H3803 C3791 0.929 . S
H3804 C3792 0.960 . S
H3805 C3792 0.962 . S
H3806 C3792 0.960 . S
H3807 C3793 0.961 . S
H3808 C3793 0.961 . S
H3809 C3793 0.961 . S
H3810 C3794 0.931 . S
H3811 C3799 0.930 . S
H3812 C3800 0.956 . S
H3813 C3800 0.961 . S
H3814 C3800 0.961 . S
H3815 C3801 0.958 . S
H3816 C3801 0.961 . S
H3817 C3801 0.960 . S
C3818 C3819 1.391 . S
C3818 C3820 1.394 . S
C3818 H3834 0.931 . S
C3819 C3818 1.391 . S
C3819 C3823 1.376 . S
C3820 C3818 1.394 . S
C3820 C3821 1.369 . S
C3820 C3824 1.531 . S
C3821 C3820 1.369 . S
C3821 C3822 1.410 . S
C3821 C3829 1.503 . S
C3822 C3821 1.410 . S
C3822 C3823 1.392 . S
C3822 C3825 1.511 . S
C3823 C3819 1.376 . S
C3823 C3822 1.392 . S
C3823 H3835 0.929 . S
C3824 C3820 1.531 . S
C3824 H3836 0.960 . S
C3824 H3837 0.962 . S
C3824 H3838 0.960 . S
C3825 C3822 1.511 . S
C3825 H3839 0.961 . S
C3825 H3840 0.961 . S
C3825 H3841 0.961 . S
C3826 C3827 1.370 . S
C3826 C3828 1.363 . S
C3826 H3842 0.931 . S
C3827 C3826 1.370 . S
C3827 C3831 1.408 . S
C3828 C3826 1.363 . S
C3828 C3829 1.370 . S
C3828 C3832 1.524 . S
C3829 C3821 1.503 . S
C3829 C3828 1.370 . S
C3829 C3830 1.403 . S
C3830 C3829 1.403 . S
C3830 C3831 1.404 . S
C3830 C3833 1.539 . S
C3831 C3827 1.408 . S
C3831 C3830 1.404 . S
C3831 H3843 0.930 . S
C3832 C3828 1.524 . S
C3832 H3844 0.956 . S
C3832 H3845 0.961 . S
C3832 H3846 0.961 . S
C3833 C3830 1.539 . S
C3833 H3847 0.958 . S
C3833 H3848 0.961 . S
C3833 H3849 0.960 . S
H3834 C3818 0.931 . S
H3835 C3823 0.929 . S
H3836 C3824 0.960 . S
H3837 C3824 0.962 . S
H3838 C3824 0.960 . S
H3839 C3825 0.961 . S
H3840 C3825 0.961 . S
H3841 C3825 0.961 . S
H3842 C3826 0.931 . S
H3843 C3831 0.930 . S
H3844 C3832 0.956 . S
H3845 C3832 0.961 . S
H3846 C3832 0.961 . S
H3847 C3833 0.958 . S
H3848 C3833 0.961 . S
H3849 C3833 0.960 . S
C3850 C3851 1.391 . S
C3850 C3852 1.394 . S
C3850 H3866 0.931 . S
C3851 C3850 1.391 . S
C3851 C3855 1.376 . S
C3852 C3850 1.394 . S
C3852 C3853 1.369 . S
C3852 C3856 1.531 . S
C3853 C3852 1.369 . S
C3853 C3854 1.410 . S
C3853 C3861 1.503 . S
C3854 C3853 1.410 . S
C3854 C3855 1.392 . S
C3854 C3857 1.511 . S
C3855 C3851 1.376 . S
C3855 C3854 1.392 . S
C3855 H3867 0.929 . S
C3856 C3852 1.531 . S
C3856 H3868 0.960 . S
C3856 H3869 0.962 . S
C3856 H3870 0.960 . S
C3857 C3854 1.511 . S
C3857 H3871 0.961 . S
C3857 H3872 0.961 . S
C3857 H3873 0.961 . S
C3858 C3859 1.370 . S
C3858 C3860 1.363 . S
C3858 H3874 0.931 . S
C3859 C3858 1.370 . S
C3859 C3863 1.408 . S
C3860 C3858 1.363 . S
C3860 C3861 1.370 . S
C3860 C3864 1.524 . S
C3861 C3853 1.503 . S
C3861 C3860 1.370 . S
C3861 C3862 1.403 . S
C3862 C3861 1.403 . S
C3862 C3863 1.404 . S
C3862 C3865 1.539 . S
C3863 C3859 1.408 . S
C3863 C3862 1.404 . S
C3863 H3875 0.930 . S
C3864 C3860 1.524 . S
C3864 H3876 0.956 . S
C3864 H3877 0.961 . S
C3864 H3878 0.961 . S
C3865 C3862 1.539 . S
C3865 H3879 0.958 . S
C3865 H3880 0.961 . S
C3865 H3881 0.960 . S
H3866 C3850 0.931 . S
H3867 C3855 0.929 . S
H3868 C3856 0.960 . S
H3869 C3856 0.962 . S
H3870 C3856 0.960 . S
H3871 C3857 0.961 . S
H3872 C3857 0.961 . S
H3873 C3857 0.961 . S
H3874 C3858 0.931 . S
H3875 C3863 0.930 . S
H3876 C3864 0.956 . S
H3877 C3864 0.961 . S
H3878 C3864 0.961 . S
H3879 C3865 0.958 . S
H3880 C3865 0.961 . S
H3881 C3865 0.960 . S
C3882 C3883 1.391 . S
C3882 C3884 1.394 . S
C3882 H3898 0.931 . S
C3883 C3882 1.391 . S
C3883 C3887 1.376 . S
C3884 C3882 1.394 . S
C3884 C3885 1.369 . S
C3884 C3888 1.531 . S
C3885 C3884 1.369 . S
C3885 C3886 1.413 . S
C3885 C3893 1.503 . S
C3886 C3885 1.413 . S
C3886 C3887 1.399 . S
C3886 C3889 1.502 1_545 S
C3887 C3883 1.376 . S
C3887 C3886 1.399 . S
C3887 H3899 0.929 1_545 S
C3888 C3884 1.531 . S
C3888 H3900 0.960 . S
C3888 H3901 0.962 . S
C3888 H3902 0.960 . S
C3889 C3886 1.502 1_565 S
C3889 H3903 0.961 . S
C3889 H3904 0.961 . S
C3889 H3905 0.961 . S
C3890 C3891 1.370 1_565 S
C3890 C3892 1.363 1_565 S
C3890 H3906 0.931 . S
C3891 C3890 1.370 1_545 S
C3891 C3895 1.408 . S
C3892 C3890 1.363 1_545 S
C3892 C3893 1.370 . S
C3892 C3896 1.524 1_545 S
C3893 C3885 1.503 . S
C3893 C3892 1.370 . S
C3893 C3894 1.403 . S
C3894 C3893 1.403 . S
C3894 C3895 1.404 . S
C3894 C3897 1.539 . S
C3895 C3891 1.408 . S
C3895 C3894 1.404 . S
C3895 H3907 0.930 . S
C3896 C3892 1.524 1_565 S
C3896 H3908 0.956 1_565 S
C3896 H3909 0.961 . S
C3896 H3910 0.961 . S
C3897 C3894 1.539 . S
C3897 H3911 0.958 . S
C3897 H3912 0.961 . S
C3897 H3913 0.960 . S
H3898 C3882 0.931 . S
H3899 C3887 0.929 1_565 S
H3900 C3888 0.960 . S
H3901 C3888 0.962 . S
H3902 C3888 0.960 . S
H3903 C3889 0.961 . S
H3904 C3889 0.961 . S
H3905 C3889 0.961 . S
H3906 C3890 0.931 . S
H3907 C3895 0.930 . S
H3908 C3896 0.956 1_545 S
H3909 C3896 0.961 . S
H3910 C3896 0.961 . S
H3911 C3897 0.958 . S
H3912 C3897 0.961 . S
H3913 C3897 0.960 . S
C3914 C3915 1.391 . S
C3914 C3916 1.394 . S
C3914 H3930 0.931 . S
C3915 C3914 1.391 . S
C3915 C3919 1.376 . S
C3916 C3914 1.394 . S
C3916 C3917 1.369 . S
C3916 C3920 1.531 . S
C3917 C3916 1.369 . S
C3917 C3918 1.410 . S
C3917 C3925 1.503 . S
C3918 C3917 1.410 . S
C3918 C3919 1.392 . S
C3918 C3921 1.511 1_655 S
C3919 C3915 1.376 . S
C3919 C3918 1.392 . S
C3919 H3931 0.997 . S
C3920 C3916 1.531 . S
C3920 H3932 0.960 . S
C3920 H3933 0.962 . S
C3920 H3934 0.960 . S
C3921 C3918 1.511 1_455 S
C3921 H3935 0.961 . S
C3921 H3936 0.961 . S
C3921 H3937 0.961 1_455 S
C3922 C3923 1.370 1_455 S
C3922 C3924 1.363 . S
C3922 H3938 0.931 . S
C3923 C3922 1.370 1_655 S
C3923 C3927 1.408 . S
C3924 C3922 1.363 . S
C3924 C3925 1.370 1_455 S
C3924 C3928 1.524 . S
C3925 C3917 1.503 . S
C3925 C3924 1.370 1_655 S
C3925 C3926 1.403 . S
C3926 C3925 1.403 . S
C3926 C3927 1.404 . S
C3926 C3929 1.539 . S
C3927 C3923 1.408 . S
C3927 C3926 1.404 . S
C3927 H3939 0.930 . S
C3928 C3924 1.524 . S
C3928 H3940 0.956 . S
C3928 H3941 0.961 . S
C3928 H3942 0.961 . S
C3929 C3926 1.539 . S
C3929 H3943 0.958 . S
C3929 H3944 0.961 . S
C3929 H3945 0.960 . S
H3930 C3914 0.931 . S
H3931 C3919 0.997 . S
H3932 C3920 0.960 . S
H3933 C3920 0.962 . S
H3934 C3920 0.960 . S
H3935 C3921 0.961 . S
H3936 C3921 0.961 . S
H3937 C3921 0.961 1_655 S
H3938 C3922 0.931 . S
H3939 C3927 0.930 . S
H3940 C3928 0.956 . S
H3941 C3928 0.961 . S
H3942 C3928 0.961 . S
H3943 C3929 0.958 . S
H3944 C3929 0.961 . S
H3945 C3929 0.960 . S
C3946 C3947 1.391 . S
C3946 C3948 1.394 . S
C3946 H3962 0.931 . S
C3947 C3946 1.391 . S
C3947 C3951 1.376 . S
C3948 C3946 1.394 . S
C3948 C3949 1.369 . S
C3948 C3952 1.531 . S
C3949 C3948 1.369 . S
C3949 C3950 1.410 . S
C3949 C3957 1.503 . S
C3950 C3949 1.410 . S
C3950 C3951 1.392 . S
C3950 C3953 1.511 . S
C3951 C3947 1.376 . S
C3951 C3950 1.392 . S
C3951 H3963 0.929 . S
C3952 C3948 1.531 . S
C3952 H3964 0.960 . S
C3952 H3965 0.962 . S
C3952 H3966 0.960 . S
C3953 C3950 1.511 . S
C3953 H3967 0.961 . S
C3953 H3968 0.961 . S
C3953 H3969 0.961 . S
C3954 C3955 1.370 . S
C3954 C3956 1.363 . S
C3954 H3970 0.931 . S
C3955 C3954 1.370 . S
C3955 C3959 1.408 . S
C3956 C3954 1.363 . S
C3956 C3957 1.370 . S
C3956 C3960 1.524 . S
C3957 C3949 1.503 . S
C3957 C3956 1.370 . S
C3957 C3958 1.403 . S
C3958 C3957 1.403 . S
C3958 C3959 1.404 . S
C3958 C3961 1.539 . S
C3959 C3955 1.408 . S
C3959 C3958 1.404 . S
C3959 H3971 0.930 . S
C3960 C3956 1.524 . S
C3960 H3972 0.956 . S
C3960 H3973 0.961 . S
C3960 H3974 0.961 . S
C3961 C3958 1.539 . S
C3961 H3975 0.958 . S
C3961 H3976 0.961 . S
C3961 H3977 0.960 . S
H3962 C3946 0.931 . S
H3963 C3951 0.929 . S
H3964 C3952 0.960 . S
H3965 C3952 0.962 . S
H3966 C3952 0.960 . S
H3967 C3953 0.961 . S
H3968 C3953 0.961 . S
H3969 C3953 0.961 . S
H3970 C3954 0.931 . S
H3971 C3959 0.930 . S
H3972 C3960 0.956 . S
H3973 C3960 0.961 . S
H3974 C3960 0.961 . S
H3975 C3961 0.958 . S
H3976 C3961 0.961 . S
H3977 C3961 0.960 . S
C3978 C3979 1.391 . S
C3978 C3980 1.394 . S
C3978 H3994 0.931 . S
C3979 C3978 1.391 . S
C3979 C3983 1.376 . S
C3980 C3978 1.394 . S
C3980 C3981 1.369 . S
C3980 C3984 1.531 . S
C3981 C3980 1.369 . S
C3981 C3982 1.410 . S
C3981 C3989 1.503 . S
C3982 C3981 1.410 . S
C3982 C3983 1.392 . S
C3982 C3985 1.511 . S
C3983 C3979 1.376 . S
C3983 C3982 1.392 . S
C3983 H3995 0.929 . S
C3984 C3980 1.531 . S
C3984 H3996 0.960 . S
C3984 H3997 0.962 . S
C3984 H3998 0.960 . S
C3985 C3982 1.511 . S
C3985 H3999 0.961 . S
C3985 H4000 0.961 . S
C3985 H4001 0.961 . S
C3986 C3987 1.370 . S
C3986 C3988 1.363 . S
C3986 H4002 0.931 . S
C3987 C3986 1.370 . S
C3987 C3991 1.408 . S
C3988 C3986 1.363 . S
C3988 C3989 1.370 . S
C3988 C3992 1.524 . S
C3989 C3981 1.503 . S
C3989 C3988 1.370 . S
C3989 C3990 1.403 . S
C3990 C3989 1.403 . S
C3990 C3991 1.404 . S
C3990 C3993 1.539 . S
C3991 C3987 1.408 . S
C3991 C3990 1.404 . S
C3991 H4003 0.930 . S
C3992 C3988 1.524 . S
C3992 H4004 0.956 . S
C3992 H4005 0.961 . S
C3992 H4006 0.961 . S
C3993 C3990 1.539 . S
C3993 H4007 0.958 . S
C3993 H4008 0.961 . S
C3993 H4009 0.960 . S
H3994 C3978 0.931 . S
H3995 C3983 0.929 . S
H3996 C3984 0.960 . S
H3997 C3984 0.962 . S
H3998 C3984 0.960 . S
H3999 C3985 0.961 . S
H4000 C3985 0.961 . S
H4001 C3985 0.961 . S
H4002 C3986 0.931 . S
H4003 C3991 0.930 . S
H4004 C3992 0.956 . S
H4005 C3992 0.961 . S
H4006 C3992 0.961 . S
H4007 C3993 0.958 . S
H4008 C3993 0.961 . S
H4009 C3993 0.960 . S
C4010 C4011 1.391 . S
C4010 C4012 1.394 . S
C4010 H4026 0.931 . S
C4011 C4010 1.391 . S
C4011 C4015 1.376 . S
C4012 C4010 1.394 . S
C4012 C4013 1.369 . S
C4012 C4016 1.531 . S
C4013 C4012 1.369 . S
C4013 C4014 1.410 . S
C4013 C4021 1.503 . S
C4014 C4013 1.410 . S
C4014 C4015 1.392 . S
C4014 C4017 1.511 . S
C4015 C4011 1.376 . S
C4015 C4014 1.392 . S
C4015 H4027 0.929 . S
C4016 C4012 1.531 . S
C4016 H4028 0.960 . S
C4016 H4029 0.962 . S
C4016 H4030 0.960 . S
C4017 C4014 1.511 . S
C4017 H4031 0.961 . S
C4017 H4032 0.961 . S
C4017 H4033 0.961 . S
C4018 C4019 1.370 . S
C4018 C4020 1.363 . S
C4018 H4034 0.931 . S
C4019 C4018 1.370 . S
C4019 C4023 1.408 . S
C4020 C4018 1.363 . S
C4020 C4021 1.370 . S
C4020 C4024 1.524 . S
C4021 C4013 1.503 . S
C4021 C4020 1.370 . S
C4021 C4022 1.403 . S
C4022 C4021 1.403 . S
C4022 C4023 1.404 . S
C4022 C4025 1.539 . S
C4023 C4019 1.408 . S
C4023 C4022 1.404 . S
C4023 H4035 0.930 . S
C4024 C4020 1.524 . S
C4024 H4036 0.956 . S
C4024 H4037 0.961 . S
C4024 H4038 0.961 . S
C4025 C4022 1.539 . S
C4025 H4039 0.958 . S
C4025 H4040 0.961 . S
C4025 H4041 0.960 . S
H4026 C4010 0.931 . S
H4027 C4015 0.929 . S
H4028 C4016 0.960 . S
H4029 C4016 0.962 . S
H4030 C4016 0.960 . S
H4031 C4017 0.961 . S
H4032 C4017 0.961 . S
H4033 C4017 0.961 . S
H4034 C4018 0.931 . S
H4035 C4023 0.930 . S
H4036 C4024 0.956 . S
H4037 C4024 0.961 . S
H4038 C4024 0.961 . S
H4039 C4025 0.958 . S
H4040 C4025 0.961 . S
H4041 C4025 0.960 . S
C4042 C4043 1.391 . S
C4042 C4044 1.394 . S
C4042 H4058 0.931 . S
C4043 C4042 1.391 . S
C4043 C4047 1.376 . S
C4044 C4042 1.394 . S
C4044 C4045 1.369 . S
C4044 C4048 1.531 . S
C4045 C4044 1.369 . S
C4045 C4046 1.410 . S
C4045 C4053 1.503 . S
C4046 C4045 1.410 . S
C4046 C4047 1.392 . S
C4046 C4049 1.511 . S
C4047 C4043 1.376 . S
C4047 C4046 1.392 . S
C4047 H4059 0.929 . S
C4048 C4044 1.531 . S
C4048 H4060 0.960 . S
C4048 H4061 0.962 . S
C4048 H4062 0.960 . S
C4049 C4046 1.511 . S
C4049 H4063 0.961 . S
C4049 H4064 0.961 . S
C4049 H4065 0.961 . S
C4050 C4051 1.370 . S
C4050 C4052 1.363 . S
C4050 H4066 0.931 . S
C4051 C4050 1.370 . S
C4051 C4055 1.408 . S
C4052 C4050 1.363 . S
C4052 C4053 1.370 . S
C4052 C4056 1.524 . S
C4053 C4045 1.503 . S
C4053 C4052 1.370 . S
C4053 C4054 1.403 . S
C4054 C4053 1.403 . S
C4054 C4055 1.404 . S
C4054 C4057 1.539 . S
C4055 C4051 1.408 . S
C4055 C4054 1.404 . S
C4055 H4067 0.930 . S
C4056 C4052 1.524 . S
C4056 H4068 0.956 . S
C4056 H4069 0.961 . S
C4056 H4070 0.961 . S
C4057 C4054 1.539 . S
C4057 H4071 0.958 . S
C4057 H4072 0.961 . S
C4057 H4073 0.960 . S
H4058 C4042 0.931 . S
H4059 C4047 0.929 . S
H4060 C4048 0.960 . S
H4061 C4048 0.962 . S
H4062 C4048 0.960 . S
H4063 C4049 0.961 . S
H4064 C4049 0.961 . S
H4065 C4049 0.961 . S
H4066 C4050 0.931 . S
H4067 C4055 0.930 . S
H4068 C4056 0.956 . S
H4069 C4056 0.961 . S
H4070 C4056 0.961 . S
H4071 C4057 0.958 . S
H4072 C4057 0.961 . S
H4073 C4057 0.960 . S
C4074 C4075 1.391 . S
C4074 C4076 1.394 . S
C4074 H4090 0.931 . S
C4075 C4074 1.391 . S
C4075 C4079 1.376 . S
C4076 C4074 1.394 . S
C4076 C4077 1.369 . S
C4076 C4080 1.531 . S
C4077 C4076 1.369 . S
C4077 C4078 1.410 . S
C4077 C4085 1.503 . S
C4078 C4077 1.410 . S
C4078 C4079 1.392 . S
C4078 C4081 1.511 . S
C4079 C4075 1.376 . S
C4079 C4078 1.392 . S
C4079 H4091 0.929 . S
C4080 C4076 1.531 . S
C4080 H4092 0.960 . S
C4080 H4093 0.962 . S
C4080 H4094 0.960 . S
C4081 C4078 1.511 . S
C4081 H4095 0.961 . S
C4081 H4096 0.961 . S
C4081 H4097 0.961 . S
C4082 C4083 1.370 . S
C4082 C4084 1.363 . S
C4082 H4098 0.931 . S
C4083 C4082 1.370 . S
C4083 C4087 1.408 . S
C4084 C4082 1.363 . S
C4084 C4085 1.370 . S
C4084 C4088 1.524 . S
C4085 C4077 1.503 . S
C4085 C4084 1.370 . S
C4085 C4086 1.403 . S
C4086 C4085 1.403 . S
C4086 C4087 1.404 . S
C4086 C4089 1.539 . S
C4087 C4083 1.408 . S
C4087 C4086 1.404 . S
C4087 H4099 0.930 . S
C4088 C4084 1.524 . S
C4088 H4100 0.956 . S
C4088 H4101 0.961 . S
C4088 H4102 0.961 . S
C4089 C4086 1.539 . S
C4089 H4103 0.958 . S
C4089 H4104 0.961 . S
C4089 H4105 0.960 . S
H4090 C4074 0.931 . S
H4091 C4079 0.929 . S
H4092 C4080 0.960 . S
H4093 C4080 0.962 . S
H4094 C4080 0.960 . S
H4095 C4081 0.961 . S
H4096 C4081 0.961 . S
H4097 C4081 0.961 . S
H4098 C4082 0.931 . S
H4099 C4087 0.930 . S
H4100 C4088 0.956 . S
H4101 C4088 0.961 . S
H4102 C4088 0.961 . S
H4103 C4089 0.958 . S
H4104 C4089 0.961 . S
H4105 C4089 0.960 . S
C4106 C4107 1.391 . S
C4106 C4108 1.394 . S
C4106 H4122 0.931 . S
C4107 C4106 1.391 . S
C4107 C4111 1.376 . S
C4108 C4106 1.394 . S
C4108 C4109 1.369 . S
C4108 C4112 1.531 . S
C4109 C4108 1.369 . S
C4109 C4110 1.410 . S
C4109 C4117 1.503 . S
C4110 C4109 1.410 . S
C4110 C4111 1.392 . S
C4110 C4113 1.511 . S
C4111 C4107 1.376 . S
C4111 C4110 1.392 . S
C4111 H4123 0.929 . S
C4112 C4108 1.531 . S
C4112 H4124 0.960 . S
C4112 H4125 0.962 . S
C4112 H4126 0.960 . S
C4113 C4110 1.511 . S
C4113 H4127 0.961 . S
C4113 H4128 0.961 . S
C4113 H4129 0.961 . S
C4114 C4115 1.370 . S
C4114 C4116 1.363 . S
C4114 H4130 0.931 . S
C4115 C4114 1.370 . S
C4115 C4119 1.408 . S
C4116 C4114 1.363 . S
C4116 C4117 1.370 . S
C4116 C4120 1.524 . S
C4117 C4109 1.503 . S
C4117 C4116 1.370 . S
C4117 C4118 1.403 . S
C4118 C4117 1.403 . S
C4118 C4119 1.404 . S
C4118 C4121 1.539 . S
C4119 C4115 1.408 . S
C4119 C4118 1.404 . S
C4119 H4131 0.930 . S
C4120 C4116 1.524 . S
C4120 H4132 0.956 . S
C4120 H4133 0.961 . S
C4120 H4134 0.961 . S
C4121 C4118 1.539 . S
C4121 H4135 0.958 . S
C4121 H4136 0.961 . S
C4121 H4137 0.960 . S
H4122 C4106 0.931 . S
H4123 C4111 0.929 . S
H4124 C4112 0.960 . S
H4125 C4112 0.962 . S
H4126 C4112 0.960 . S
H4127 C4113 0.961 . S
H4128 C4113 0.961 . S
H4129 C4113 0.961 . S
H4130 C4114 0.931 . S
H4131 C4119 0.930 . S
H4132 C4120 0.956 . S
H4133 C4120 0.961 . S
H4134 C4120 0.961 . S
H4135 C4121 0.958 . S
H4136 C4121 0.961 . S
H4137 C4121 0.960 . S
C4138 C4139 1.391 . S
C4138 C4140 1.394 . S
C4138 H4154 0.931 . S
C4139 C4138 1.391 . S
C4139 C4143 1.376 . S
C4140 C4138 1.394 . S
C4140 C4141 1.369 . S
C4140 C4144 1.531 . S
C4141 C4140 1.369 . S
C4141 C4142 1.410 . S
C4141 C4149 1.503 . S
C4142 C4141 1.410 . S
C4142 C4143 1.392 . S
C4142 C4145 1.511 . S
C4143 C4139 1.376 . S
C4143 C4142 1.392 . S
C4143 H4155 0.929 . S
C4144 C4140 1.531 . S
C4144 H4156 0.960 . S
C4144 H4157 0.962 . S
C4144 H4158 0.960 . S
C4145 C4142 1.511 . S
C4145 H4159 0.961 . S
C4145 H4160 0.961 . S
C4145 H4161 0.961 . S
C4146 C4147 1.370 . S
C4146 C4148 1.363 . S
C4146 H4162 0.931 . S
C4147 C4146 1.370 . S
C4147 C4151 1.408 . S
C4148 C4146 1.363 . S
C4148 C4149 1.370 . S
C4148 C4152 1.524 . S
C4149 C4141 1.503 . S
C4149 C4148 1.370 . S
C4149 C4150 1.403 . S
C4150 C4149 1.403 . S
C4150 C4151 1.404 . S
C4150 C4153 1.539 . S
C4151 C4147 1.408 . S
C4151 C4150 1.404 . S
C4151 H4163 0.930 . S
C4152 C4148 1.524 . S
C4152 H4164 0.956 . S
C4152 H4165 0.961 . S
C4152 H4166 0.961 . S
C4153 C4150 1.539 . S
C4153 H4167 0.958 . S
C4153 H4168 0.961 . S
C4153 H4169 0.960 . S
H4154 C4138 0.931 . S
H4155 C4143 0.929 . S
H4156 C4144 0.960 . S
H4157 C4144 0.962 . S
H4158 C4144 0.960 . S
H4159 C4145 0.961 . S
H4160 C4145 0.961 . S
H4161 C4145 0.961 . S
H4162 C4146 0.931 . S
H4163 C4151 0.930 . S
H4164 C4152 0.956 . S
H4165 C4152 0.961 . S
H4166 C4152 0.961 . S
H4167 C4153 0.958 . S
H4168 C4153 0.961 . S
H4169 C4153 0.960 . S
C4170 C4171 1.391 . S
C4170 C4172 1.394 . S
C4170 H4186 0.931 . S
C4171 C4170 1.391 . S
C4171 C4175 1.376 1_655 S
C4172 C4170 1.394 . S
C4172 C4173 1.369 . S
C4172 C4176 1.531 . S
C4173 C4172 1.369 . S
C4173 C4174 1.410 1_655 S
C4173 C4181 1.503 . S
C4174 C4173 1.410 1_455 S
C4174 C4175 1.392 . S
C4174 C4177 1.511 . S
C4175 C4171 1.376 1_455 S
C4175 C4174 1.392 . S
C4175 H4187 0.929 . S
C4176 C4172 1.531 . S
C4176 H4188 0.960 . S
C4176 H4189 0.962 . S
C4176 H4190 0.960 . S
C4177 C4174 1.511 . S
C4177 H4191 0.961 . S
C4177 H4192 0.961 . S
C4177 H4193 0.961 . S
C4178 C4179 1.370 . S
C4178 C4180 1.363 . S
C4178 H4194 0.931 . S
C4179 C4178 1.370 . S
C4179 C4183 1.410 . S
C4180 C4178 1.363 . S
C4180 C4181 1.370 . S
C4180 C4184 1.524 . S
C4181 C4173 1.503 . S
C4181 C4180 1.370 . S
C4181 C4182 1.403 . S
C4182 C4181 1.403 . S
C4182 C4183 1.437 . S
C4182 C4185 1.547 . S
C4183 C4179 1.410 . S
C4183 C4182 1.437 . S
C4183 H4195 0.899 1_655 S
C4184 C4180 1.524 . S
C4184 H4196 0.956 . S
C4184 H4197 0.961 . S
C4184 H4198 0.961 . S
C4185 C4182 1.547 . S
C4185 H4199 1.018 . S
C4185 H4200 0.883 1_655 S
C4185 H4201 0.979 1_655 S
H4186 C4170 0.931 . S
H4187 C4175 0.929 . S
H4188 C4176 0.960 . S
H4189 C4176 0.962 . S
H4190 C4176 0.960 . S
H4191 C4177 0.961 . S
H4192 C4177 0.961 . S
H4193 C4177 0.961 . S
H4194 C4178 0.931 . S
H4195 C4183 0.899 1_455 S
H4196 C4184 0.956 . S
H4197 C4184 0.961 . S
H4198 C4184 0.961 . S
H4199 C4185 1.018 . S
H4200 C4185 0.883 1_455 S
H4201 C4185 0.979 1_455 S
C4202 C4203 1.391 . S
C4202 C4204 1.394 . S
C4202 H4218 0.931 . S
C4203 C4202 1.391 . S
C4203 C4207 1.376 . S
C4204 C4202 1.394 . S
C4204 C4205 1.369 . S
C4204 C4208 1.531 . S
C4205 C4204 1.369 . S
C4205 C4206 1.410 . S
C4205 C4213 1.503 . S
C4206 C4205 1.410 . S
C4206 C4207 1.392 . S
C4206 C4209 1.511 . S
C4207 C4203 1.376 . S
C4207 C4206 1.392 . S
C4207 H4219 0.929 . S
C4208 C4204 1.531 . S
C4208 H4220 0.960 . S
C4208 H4221 0.962 . S
C4208 H4222 0.960 . S
C4209 C4206 1.511 . S
C4209 H4223 0.961 . S
C4209 H4224 0.961 . S
C4209 H4225 0.961 . S
C4210 C4211 1.370 . S
C4210 C4212 1.363 . S
C4210 H4226 0.931 . S
C4211 C4210 1.370 . S
C4211 C4215 1.408 . S
C4212 C4210 1.363 . S
C4212 C4213 1.370 . S
C4212 C4216 1.524 . S
C4213 C4205 1.503 . S
C4213 C4212 1.370 . S
C4213 C4214 1.403 . S
C4214 C4213 1.403 . S
C4214 C4215 1.404 . S
C4214 C4217 1.539 . S
C4215 C4211 1.408 . S
C4215 C4214 1.404 . S
C4215 H4227 0.930 . S
C4216 C4212 1.524 . S
C4216 H4228 0.956 . S
C4216 H4229 0.961 . S
C4216 H4230 0.961 . S
C4217 C4214 1.539 . S
C4217 H4231 0.958 . S
C4217 H4232 0.961 . S
C4217 H4233 0.960 . S
H4218 C4202 0.931 . S
H4219 C4207 0.929 . S
H4220 C4208 0.960 . S
H4221 C4208 0.962 . S
H4222 C4208 0.960 . S
H4223 C4209 0.961 . S
H4224 C4209 0.961 . S
H4225 C4209 0.961 . S
H4226 C4210 0.931 . S
H4227 C4215 0.930 . S
H4228 C4216 0.956 . S
H4229 C4216 0.961 . S
H4230 C4216 0.961 . S
H4231 C4217 0.958 . S
H4232 C4217 0.961 . S
H4233 C4217 0.960 . S
C4234 C4235 1.391 . S
C4234 C4236 1.394 . S
C4234 H4250 0.931 . S
C4235 C4234 1.391 . S
C4235 C4239 1.376 . S
C4236 C4234 1.394 . S
C4236 C4237 1.369 . S
C4236 C4240 1.531 . S
C4237 C4236 1.369 . S
C4237 C4238 1.410 . S
C4237 C4245 1.503 . S
C4238 C4237 1.410 . S
C4238 C4239 1.392 . S
C4238 C4241 1.522 . S
C4239 C4235 1.376 . S
C4239 C4238 1.392 . S
C4239 H4251 0.929 . S
C4240 C4236 1.531 . S
C4240 H4252 0.959 1_545 S
C4240 H4253 0.962 . S
C4240 H4254 0.960 . S
C4241 C4238 1.522 . S
C4241 H4255 0.966 . S
C4241 H4256 1.016 . S
C4241 H4257 0.897 1_545 S
C4242 C4243 1.415 . S
C4242 C4244 1.363 . S
C4242 H4258 0.931 . S
C4243 C4242 1.415 . S
C4243 C4247 1.333 1_545 S
C4244 C4242 1.363 . S
C4244 C4245 1.370 . S
C4244 C4248 1.524 . S
C4245 C4237 1.503 . S
C4245 C4244 1.370 . S
C4245 C4246 1.403 1_545 S
C4246 C4245 1.403 1_565 S
C4246 C4247 1.404 . S
C4246 C4249 1.539 . S
C4247 C4243 1.333 1_565 S
C4247 C4246 1.404 . S
C4247 H4259 0.930 . S
C4248 C4244 1.524 . S
C4248 H4260 0.956 . S
C4248 H4261 0.961 . S
C4248 H4262 0.961 . S
C4249 C4246 1.539 . S
C4249 H4263 0.958 . S
C4249 H4264 0.961 . S
C4249 H4265 0.960 . S
H4250 C4234 0.931 . S
H4251 C4239 0.929 . S
H4252 C4240 0.959 1_565 S
H4253 C4240 0.962 . S
H4254 C4240 0.960 . S
H4255 C4241 0.966 . S
H4256 C4241 1.016 . S
H4257 C4241 0.897 1_565 S
H4258 C4242 0.931 . S
H4259 C4247 0.930 . S
H4260 C4248 0.956 . S
H4261 C4248 0.961 . S
H4262 C4248 0.961 . S
H4263 C4249 0.958 . S
H4264 C4249 0.961 . S
H4265 C4249 0.960 . S
C1963 C49 1.676 . S
C1971 C1790 1.665 1_655 S
C1995 C137 1.689 . S
C2003 C1803 1.647 . S
C2035 C1832 1.628 1_545 S
C2027 C205 1.678 . S
C2059 C196 1.693 . S
C2067 C1845 1.612 . S
C2091 C57 1.676 . S
C2099 C1866 1.655 . S
C2123 C145 1.686 . S
C2131 C1895 1.605 . S
C2155 C313 1.675 . S
C2163 C1874 1.643 . S
C2195 C1887 1.621 . S
C2187 C401 1.696 . S
C2227 C1853 1.626 . S
C2219 C489 1.707 . S
C2251 C469 1.703 . S
C2259 C1824 1.653 1_545 S
C2291 C1782 1.675 1_655 S
C2283 C293 1.674 . S
C2315 C381 1.679 . S
C2323 C1811 1.634 . S
C2347 C577 1.703 . S
C2355 C1916 1.659 . S
C2379 C645 1.707 . S
C2387 C1929 1.660 . S
C2419 C1958 1.609 . S
C2411 C733 1.695 . S
C2443 C724 1.662 . S
C2451 C1593 1.659 . S
C2475 C585 1.699 . S
C2483 C1614 1.680 . S
C2507 C636 1.726 . S
C2515 C1643 1.629 . S
C2539 C841 1.669 . S
C2547 C1622 1.652 . S
C2571 C937 1.693 . S
C2579 C1635 1.661 . S
C2611 C1601 1.646 . S
C2603 C1025 1.706 . S
C2643 C1950 1.655 . S
C2635 C988 1.704 . S
C2675 C1908 1.624 . S
C2667 C821 1.659 . S
C2707 C1937 1.630 . S
C2699 C900 1.705 . S
C2731 C1105 1.688 . S
C2739 C1664 1.642 . S
C2763 C1193 1.727 . S
C2771 C1677 1.674 . S
C2795 C1281 1.701 . S
C2803 C1706 1.647 . S
C2827 C1289 1.719 . S
C2835 C1719 1.661 . S
C2867 C1740 1.646 . S
C2859 C1113 1.690 . S
C2899 C1769 1.609 . S
C2891 C1201 1.714 . S
C2931 C1748 1.655 . S
C2923 C1369 1.724 . S
C2963 C1761 1.631 . S
C2955 C1457 1.673 . S
C2987 C1553 1.658 . S
C2995 C1727 1.629 . S
C3027 C1698 1.635 . S
C3019 C1516 1.674 . S
C3051 C1349 1.686 . S
C3059 C1656 1.641 . S
C3091 C1685 1.647 . S
C3083 C1437 1.722 . S
C3123 C1596 1.297 . S
C3115 C29 1.361 . S
C3147 C117 1.320 . S
C3155 C1617 1.235 . S
C3187 C1645 1.255 . S
C3179 C225 1.350 . S
C3219 C1666 1.259 . S
C3211 C233 1.359 . S
C3251 C1680 1.306 . S
C3243 C20 1.370 . S
C3283 C1708 1.179 . S
C3275 C108 1.320 . S
C3307 C321 1.400 . S
C3315 C1701 1.223 . S
C3339 C409 1.327 . S
C3347 C1659 1.191 . S
C3371 C497 1.386 . S
C3379 C1687 1.334 . S
C3403 C460 1.370 . S
C3411 C1624 1.324 . S
C3443 C1638 1.250 . S
C3435 C284 1.384 . S
C3467 C372 1.357 . S
C3475 C1603 1.291 . S
C3507 C1722 1.236 . S
C3499 C557 1.337 . S
C3531 C665 1.371 . S
C3539 C1743 1.265 . S
C3563 C753 1.388 . S
C3571 C1771 1.243 . S
C3603 C1792 1.120 . S
C3595 C761 1.214 . S
C3627 C548 1.317 . S
C3635 C1806 1.246 . S
C3659 C673 1.236 . S
C3667 C1834 1.167 . S
C3691 C849 1.247 . S
C3699 C1827 1.119 . S
C3723 C929 1.245 . S
C3731 C1785 1.146 . S
C3763 C1813 1.287 . S
C3755 C1017 1.347 . S
C3787 C997 1.353 . S
C3795 C1750 1.293 . S
C3819 C812 1.413 . S
C3827 C1764 1.265 . S
C3859 C1729 1.337 . S
C3851 C909 1.408 . S
C3891 C1848 1.078 1_545 S
C3883 C1085 1.223 . S
C3915 C1173 1.222 . S
C3923 C1869 1.124 1_655 S
C3947 C1261 1.318 . S
C3955 C1897 1.182 . S
C3987 C1918 1.220 . S
C3979 C1252 1.321 . S
C4019 C1932 1.295 . S
C4011 C1076 1.381 . S
C4043 C1164 1.380 . S
C4051 C1960 1.247 . S
C4075 C1377 1.355 . S
C4083 C1953 1.210 . S
C4107 C1465 1.395 . S
C4115 C1911 1.222 . S
C4147 C1939 1.336 . S
C4139 C1545 1.417 . S
C4179 C1876 1.171 1_655 S
C4171 C1525 1.227 . S
C4211 C1890 1.175 . S
C4203 C1340 1.355 . S
C4235 C1428 1.243 . S
C4243 C1855 1.178 1_545 S
