# Generated by pormake.
# Topology eea, (3,6)-cn, num edge types: 1
# Building blocks:
#     Node 0, Type 0, BuildingBlock: VETTIZ_charged_linker_0, # of connection points: 3
#     Node 1, Type 0, BuildingBlock: VETTIZ_charged_linker_0, # of connection points: 3
#     Node 2, Type 0, BuildingBlock: VETTIZ_charged_linker_0, # of connection points: 3
#     Node 3, Type 0, BuildingBlock: VETTIZ_charged_linker_0, # of connection points: 3
#     Node 4, Type 0, BuildingBlock: VETTIZ_charged_linker_0, # of connection points: 3
#     Node 5, Type 0, BuildingBlock: VETTIZ_charged_linker_0, # of connection points: 3
#     Node 6, Type 0, BuildingBlock: VETTIZ_charged_linker_0, # of connection points: 3
#     Node 7, Type 0, BuildingBlock: VETTIZ_charged_linker_0, # of connection points: 3
#     Node 8, Type 0, BuildingBlock: VETTIZ_charged_linker_0, # of connection points: 3
#     Node 9, Type 0, BuildingBlock: VETTIZ_charged_linker_0, # of connection points: 3
#     Node 10, Type 0, BuildingBlock: VETTIZ_charged_linker_0, # of connection points: 3
#     Node 11, Type 0, BuildingBlock: VETTIZ_charged_linker_0, # of connection points: 3
#     Node 12, Type 0, BuildingBlock: VETTIZ_charged_linker_0, # of connection points: 3
#     Node 13, Type 0, BuildingBlock: VETTIZ_charged_linker_0, # of connection points: 3
#     Node 14, Type 0, BuildingBlock: VETTIZ_charged_linker_0, # of connection points: 3
#     Node 15, Type 0, BuildingBlock: VETTIZ_charged_linker_0, # of connection points: 3
#     Node 16, Type 0, BuildingBlock: VETTIZ_charged_linker_0, # of connection points: 3
#     Node 17, Type 0, BuildingBlock: VETTIZ_charged_linker_0, # of connection points: 3
#     Node 18, Type 1, BuildingBlock: KUMBUR_clean_sbu_0, # of connection points: 6
#     Node 19, Type 1, BuildingBlock: KUMBUR_clean_sbu_0, # of connection points: 6
#     Node 20, Type 1, BuildingBlock: KUMBUR_clean_sbu_0, # of connection points: 6
#     Node 21, Type 1, BuildingBlock: KUMBUR_clean_sbu_0, # of connection points: 6
#     Node 22, Type 1, BuildingBlock: KUMBUR_clean_sbu_0, # of connection points: 6
#     Node 23, Type 1, BuildingBlock: KUMBUR_clean_sbu_0, # of connection points: 6
#     Node 24, Type 1, BuildingBlock: KUMBUR_clean_sbu_0, # of connection points: 6
#     Node 25, Type 1, BuildingBlock: KUMBUR_clean_sbu_0, # of connection points: 6
#     Node 26, Type 1, BuildingBlock: KUMBUR_clean_sbu_0, # of connection points: 6
#     Edge 27, Type (0, 1), BuildingBlock: ZUJKAS_clean_linker_0, # of connection points: 2
#     Edge 28, Type (0, 1), BuildingBlock: ZUJKAS_clean_linker_0, # of connection points: 2
#     Edge 29, Type (0, 1), BuildingBlock: ZUJKAS_clean_linker_0, # of connection points: 2
#     Edge 30, Type (0, 1), BuildingBlock: ZUJKAS_clean_linker_0, # of connection points: 2
#     Edge 31, Type (0, 1), BuildingBlock: ZUJKAS_clean_linker_0, # of connection points: 2
#     Edge 32, Type (0, 1), BuildingBlock: ZUJKAS_clean_linker_0, # of connection points: 2
#     Edge 33, Type (0, 1), BuildingBlock: ZUJKAS_clean_linker_0, # of connection points: 2
#     Edge 34, Type (0, 1), BuildingBlock: ZUJKAS_clean_linker_0, # of connection points: 2
#     Edge 35, Type (0, 1), BuildingBlock: ZUJKAS_clean_linker_0, # of connection points: 2
#     Edge 36, Type (0, 1), BuildingBlock: ZUJKAS_clean_linker_0, # of connection points: 2
#     Edge 37, Type (0, 1), BuildingBlock: ZUJKAS_clean_linker_0, # of connection points: 2
#     Edge 38, Type (0, 1), BuildingBlock: ZUJKAS_clean_linker_0, # of connection points: 2
#     Edge 39, Type (0, 1), BuildingBlock: ZUJKAS_clean_linker_0, # of connection points: 2
#     Edge 40, Type (0, 1), BuildingBlock: ZUJKAS_clean_linker_0, # of connection points: 2
#     Edge 41, Type (0, 1), BuildingBlock: ZUJKAS_clean_linker_0, # of connection points: 2
#     Edge 42, Type (0, 1), BuildingBlock: ZUJKAS_clean_linker_0, # of connection points: 2
#     Edge 43, Type (0, 1), BuildingBlock: ZUJKAS_clean_linker_0, # of connection points: 2
#     Edge 44, Type (0, 1), BuildingBlock: ZUJKAS_clean_linker_0, # of connection points: 2
#     Edge 45, Type (0, 1), BuildingBlock: ZUJKAS_clean_linker_0, # of connection points: 2
#     Edge 46, Type (0, 1), BuildingBlock: ZUJKAS_clean_linker_0, # of connection points: 2
#     Edge 47, Type (0, 1), BuildingBlock: ZUJKAS_clean_linker_0, # of connection points: 2
#     Edge 48, Type (0, 1), BuildingBlock: ZUJKAS_clean_linker_0, # of connection points: 2
#     Edge 49, Type (0, 1), BuildingBlock: ZUJKAS_clean_linker_0, # of connection points: 2
#     Edge 50, Type (0, 1), BuildingBlock: ZUJKAS_clean_linker_0, # of connection points: 2
#     Edge 51, Type (0, 1), BuildingBlock: ZUJKAS_clean_linker_0, # of connection points: 2
#     Edge 52, Type (0, 1), BuildingBlock: ZUJKAS_clean_linker_0, # of connection points: 2
#     Edge 53, Type (0, 1), BuildingBlock: ZUJKAS_clean_linker_0, # of connection points: 2
#     Edge 54, Type (0, 1), BuildingBlock: ZUJKAS_clean_linker_0, # of connection points: 2
#     Edge 55, Type (0, 1), BuildingBlock: ZUJKAS_clean_linker_0, # of connection points: 2
#     Edge 56, Type (0, 1), BuildingBlock: ZUJKAS_clean_linker_0, # of connection points: 2
#     Edge 57, Type (0, 1), BuildingBlock: ZUJKAS_clean_linker_0, # of connection points: 2
#     Edge 58, Type (0, 1), BuildingBlock: ZUJKAS_clean_linker_0, # of connection points: 2
#     Edge 59, Type (0, 1), BuildingBlock: ZUJKAS_clean_linker_0, # of connection points: 2
#     Edge 60, Type (0, 1), BuildingBlock: ZUJKAS_clean_linker_0, # of connection points: 2
#     Edge 61, Type (0, 1), BuildingBlock: ZUJKAS_clean_linker_0, # of connection points: 2
#     Edge 62, Type (0, 1), BuildingBlock: ZUJKAS_clean_linker_0, # of connection points: 2
#     Edge 63, Type (0, 1), BuildingBlock: ZUJKAS_clean_linker_0, # of connection points: 2
#     Edge 64, Type (0, 1), BuildingBlock: ZUJKAS_clean_linker_0, # of connection points: 2
#     Edge 65, Type (0, 1), BuildingBlock: ZUJKAS_clean_linker_0, # of connection points: 2
#     Edge 66, Type (0, 1), BuildingBlock: ZUJKAS_clean_linker_0, # of connection points: 2
#     Edge 67, Type (0, 1), BuildingBlock: ZUJKAS_clean_linker_0, # of connection points: 2
#     Edge 68, Type (0, 1), BuildingBlock: ZUJKAS_clean_linker_0, # of connection points: 2
#     Edge 69, Type (0, 1), BuildingBlock: ZUJKAS_clean_linker_0, # of connection points: 2
#     Edge 70, Type (0, 1), BuildingBlock: ZUJKAS_clean_linker_0, # of connection points: 2
#     Edge 71, Type (0, 1), BuildingBlock: ZUJKAS_clean_linker_0, # of connection points: 2
#     Edge 72, Type (0, 1), BuildingBlock: ZUJKAS_clean_linker_0, # of connection points: 2
#     Edge 73, Type (0, 1), BuildingBlock: ZUJKAS_clean_linker_0, # of connection points: 2
#     Edge 74, Type (0, 1), BuildingBlock: ZUJKAS_clean_linker_0, # of connection points: 2
#     Edge 75, Type (0, 1), BuildingBlock: ZUJKAS_clean_linker_0, # of connection points: 2
#     Edge 76, Type (0, 1), BuildingBlock: ZUJKAS_clean_linker_0, # of connection points: 2
#     Edge 77, Type (0, 1), BuildingBlock: ZUJKAS_clean_linker_0, # of connection points: 2
#     Edge 78, Type (0, 1), BuildingBlock: ZUJKAS_clean_linker_0, # of connection points: 2
#     Edge 79, Type (0, 1), BuildingBlock: ZUJKAS_clean_linker_0, # of connection points: 2
#     Edge 80, Type (0, 1), BuildingBlock: ZUJKAS_clean_linker_0, # of connection points: 2
# Relax obj value: 0.010
# Max RMSD: 0.100
# Mean RMSD: 0.054
data_MOF--net-eea--node1-KUMBUR_clean_sbu_0--node2-VETTIZ_charged_linker_0--edge1-ZUJKAS_clean_linker_0
_symmetry_space_group_name_H-M    P1
_symmetry_Int_Tables_number       1
_symmetry_cell_setting            triclinic
loop_
_symmetry_equiv_pos_as_xyz
'x, y, z'
_cell_length_a     77.429278
_cell_length_b     78.967208
_cell_length_c     106.7876
_cell_angle_alpha  90.21898
_cell_angle_beta   90.179605
_cell_angle_gamma 119.98361
loop_
_atom_site_label
_atom_site_type_symbol
_atom_site_fract_x
_atom_site_fract_y
_atom_site_fract_z
_atom_type_partial_charge
C0 C 0.22528 0.16013 0.40725 0.0
C1 C 0.22805 0.1776 0.41265 0.0
C2 C 0.23639 0.18287 0.42478 0.0
C3 C 0.23881 0.15346 0.42592 0.0
C4 C 0.23069 0.14835 0.41403 0.0
C5 C 0.22842 0.12922 0.40967 0.0
H6 H 0.23964 0.05108 0.42091 0.0
C7 C 0.24259 0.13791 0.4304 0.0
C8 C 0.23649 0.12366 0.42092 0.0
H9 H 0.21442 0.06275 0.38808 0.0
H10 H 0.22051 0.09318 0.39716 0.0
H11 H 0.27626 0.0954 0.42496 0.0
H12 H 0.21727 0.06324 0.44037 0.0
H13 H 0.23293 0.07793 0.45253 0.0
H14 H 0.23715 0.05946 0.44554 0.0
H15 H 0.26903 0.07577 0.43586 0.0
H16 H 0.27816 0.10055 0.4411 0.0
C17 C 0.24166 0.13319 0.39796 0.0
C18 C 0.20592 0.11468 0.40745 0.0
C19 C 0.27249 0.14298 0.47368 0.0
C20 C 0.27712 0.13051 0.48046 0.0
C21 C 0.27366 0.11287 0.47489 0.0
C22 C 0.26573 0.10771 0.46276 0.0
C23 C 0.26109 0.12025 0.45611 0.0
C24 C 0.26443 0.13753 0.46159 0.0
C25 C 0.25819 0.14882 0.45321 0.0
C26 C 0.25064 0.13551 0.44179 0.0
C27 C 0.25245 0.11885 0.44354 0.0
C28 C 0.27691 0.1687 0.45023 0.0
C29 C 0.24128 0.15047 0.4598 0.0
C30 C 0.23529 0.06011 0.41569 0.0
C31 C 0.22659 0.05444 0.4037 0.0
C32 C 0.22144 0.06684 0.39722 0.0
C33 C 0.22484 0.08448 0.40257 0.0
C34 C 0.2334 0.08983 0.41458 0.0
C35 C 0.23846 0.07771 0.42094 0.0
C36 C 0.24704 0.08559 0.43371 0.0
C37 C 0.24634 0.10446 0.43394 0.0
C38 C 0.2384 0.10687 0.4227 0.0
C39 C 0.26872 0.08946 0.43406 0.0
C40 C 0.23306 0.07083 0.44362 0.0
H41 H 0.24798 0.1757 0.44063 0.0
H42 H 0.21917 0.15575 0.3979 0.0
H43 H 0.19658 0.11751 0.41409 0.0
H44 H 0.20177 0.09932 0.40914 0.0
H45 H 0.2013 0.11599 0.39781 0.0
H46 H 0.25583 0.14736 0.39891 0.0
H47 H 0.23394 0.13391 0.38936 0.0
H48 H 0.24632 0.12219 0.39656 0.0
H49 H 0.27478 0.15653 0.47777 0.0
H50 H 0.27731 0.10313 0.47987 0.0
H51 H 0.26351 0.09412 0.45904 0.0
H52 H 0.29017 0.16691 0.44893 0.0
H53 H 0.28034 0.17937 0.45797 0.0
H54 H 0.27553 0.17515 0.4414 0.0
H55 H 0.23167 0.13711 0.46533 0.0
H56 H 0.23097 0.15163 0.45316 0.0
H57 H 0.24744 0.16316 0.46634 0.0
H58 H 0.23848 0.19611 0.42923 0.0
C59 C 0.24179 0.17092 0.43143 0.0
C60 C 0.94866 0.16253 0.40437 0.0
C61 C 0.96307 0.18103 0.40893 0.0
C62 C 0.96044 0.18702 0.42089 0.0
C63 C 0.92956 0.15632 0.42352 0.0
C64 C 0.93209 0.15053 0.41176 0.0
C65 C 0.91526 0.13062 0.40817 0.0
H66 H 0.82656 0.05137 0.42227 0.0
C67 C 0.91076 0.14039 0.42875 0.0
C68 C 0.9023 0.12532 0.41975 0.0
H69 H 0.86152 0.06193 0.38865 0.0
H70 H 0.88667 0.09298 0.39694 0.0
H71 H 0.8629 0.06515 0.44084 0.0
H72 H 0.83422 0.09531 0.42576 0.0
H73 H 0.83834 0.10091 0.44184 0.0
H74 H 0.82266 0.07589 0.43693 0.0
H75 H 0.83975 0.06155 0.44693 0.0
H76 H 0.86348 0.08074 0.45277 0.0
C77 C 0.92394 0.11687 0.40624 0.0
C78 C 0.90467 0.13289 0.39649 0.0
C79 C 0.88863 0.14673 0.47258 0.0
C80 C 0.87221 0.13402 0.47997 0.0
C81 C 0.85799 0.11572 0.47495 0.0
C82 C 0.86004 0.11013 0.46283 0.0
C83 C 0.87655 0.12291 0.45559 0.0
C84 C 0.89055 0.14084 0.46049 0.0
C85 C 0.9073 0.15231 0.45147 0.0
C86 C 0.90104 0.13827 0.4404 0.0
C87 C 0.88295 0.12113 0.44286 0.0
C88 C 0.92695 0.15563 0.45755 0.0
C89 C 0.9072 0.17134 0.44816 0.0
C90 C 0.83969 0.06025 0.41671 0.0
C91 C 0.84185 0.05411 0.4047 0.0
C92 C 0.85917 0.06637 0.3978 0.0
C93 C 0.87389 0.0844 0.40268 0.0
C94 C 0.87143 0.09033 0.41464 0.0
C95 C 0.85461 0.07825 0.42148 0.0
C96 C 0.85474 0.08673 0.43414 0.0
C97 C 0.87425 0.10602 0.43369 0.0
C98 C 0.88392 0.10808 0.42223 0.0
C99 C 0.8551 0.07287 0.44427 0.0
C100 C 0.83651 0.08981 0.43484 0.0
H101 H 0.94272 0.18016 0.43723 0.0
H102 H 0.95008 0.15759 0.39516 0.0
H103 H 0.90434 0.1468 0.39695 0.0
H104 H 0.88887 0.12135 0.3957 0.0
H105 H 0.91253 0.13308 0.38776 0.0
H106 H 0.93642 0.12055 0.41291 0.0
H107 H 0.92984 0.11814 0.39661 0.0
H108 H 0.91302 0.10139 0.40812 0.0
H109 H 0.89991 0.16082 0.4762 0.0
H110 H 0.84507 0.10577 0.48037 0.0
H111 H 0.84865 0.09605 0.45958 0.0
H112 H 0.9244 0.1425 0.46288 0.0
H113 H 0.93308 0.16819 0.46419 0.0
H114 H 0.9385 0.15803 0.45063 0.0
H115 H 0.89168 0.16869 0.44766 0.0
H116 H 0.91357 0.17708 0.43886 0.0
H117 H 0.91537 0.18288 0.45534 0.0
H118 H 0.9714 0.20112 0.42468 0.0
C119 C 0.94381 0.17478 0.4282 0.0
C120 C 0.94802 0.79305 0.40526 0.0
C121 C 0.96334 0.7906 0.41049 0.0
C122 C 0.96123 0.78373 0.42289 0.0
C123 C 0.92914 0.78202 0.42462 0.0
C124 C 0.93121 0.78884 0.41249 0.0
C125 C 0.9139 0.79127 0.40851 0.0
H126 H 0.82508 0.78437 0.42218 0.0
C127 C 0.91007 0.77927 0.42962 0.0
C128 C 0.90114 0.78483 0.42024 0.0
H129 H 0.85829 0.80365 0.38766 0.0
H130 H 0.88402 0.7985 0.39643 0.0
H131 H 0.83285 0.74819 0.42676 0.0
H132 H 0.86236 0.80752 0.44044 0.0
H133 H 0.86202 0.79287 0.45286 0.0
H134 H 0.83876 0.78918 0.44646 0.0
H135 H 0.82163 0.757 0.43776 0.0
H136 H 0.83752 0.74773 0.44284 0.0
C137 C 0.90333 0.77728 0.39732 0.0
C138 C 0.92194 0.81316 0.40563 0.0
C139 C 0.88733 0.75165 0.47345 0.0
C140 C 0.87057 0.74783 0.48071 0.0
C141 C 0.85669 0.75264 0.47565 0.0
C142 C 0.8591 0.76051 0.4636 0.0
C143 C 0.87567 0.76385 0.45643 0.0
C144 C 0.88961 0.7597 0.46144 0.0
C145 C 0.90668 0.76495 0.4526 0.0
C146 C 0.90042 0.77246 0.44136 0.0
C147 C 0.88216 0.77166 0.44364 0.0
C148 C 0.90719 0.74606 0.44941 0.0
C149 C 0.92604 0.78125 0.45882 0.0
C150 C 0.83798 0.78767 0.41654 0.0
C151 C 0.83954 0.7944 0.40417 0.0
C152 C 0.8565 0.7982 0.39714 0.0
C153 C 0.87153 0.7953 0.40228 0.0
C154 C 0.86969 0.78848 0.41462 0.0
C155 C 0.85311 0.78479 0.42153 0.0
C156 C 0.85358 0.77745 0.43445 0.0
C157 C 0.87317 0.77737 0.43417 0.0
C158 C 0.88257 0.78386 0.42252 0.0
C159 C 0.83543 0.75655 0.43565 0.0
C160 C 0.85406 0.79235 0.44413 0.0
H161 H 0.94356 0.77413 0.43927 0.0
H162 H 0.94925 0.79851 0.39582 0.0
H163 H 0.9343 0.82266 0.41216 0.0
H164 H 0.91066 0.81765 0.40695 0.0
H165 H 0.92781 0.81676 0.39595 0.0
H166 H 0.90328 0.76327 0.39852 0.0
H167 H 0.91102 0.78387 0.38838 0.0
H168 H 0.88746 0.77302 0.39642 0.0
H169 H 0.89833 0.74816 0.47692 0.0
H170 H 0.84392 0.75047 0.48103 0.0
H171 H 0.84792 0.7637 0.46035 0.0
H172 H 0.89182 0.73362 0.44783 0.0
H173 H 0.91396 0.74202 0.45719 0.0
H174 H 0.91534 0.7472 0.44071 0.0
H175 H 0.92286 0.7907 0.46503 0.0
H176 H 0.93684 0.79142 0.45194 0.0
H177 H 0.93335 0.77495 0.46463 0.0
H178 H 0.97268 0.7815 0.4271 0.0
C179 C 0.94426 0.77938 0.42994 0.0
C180 C 0.15728 0.20969 0.60805 0.0
C181 C 0.17505 0.2124 0.60261 0.0
C182 C 0.17958 0.21956 0.59026 0.0
C183 C 0.1491 0.22109 0.58901 0.0
C184 C 0.14456 0.21406 0.6011 0.0
C185 C 0.12502 0.21189 0.60539 0.0
H186 H 0.04369 0.22065 0.59311 0.0
C187 C 0.13287 0.22422 0.58436 0.0
C188 C 0.11865 0.21881 0.5939 0.0
H189 H 0.05763 0.20014 0.62706 0.0
H190 H 0.08827 0.20513 0.61795 0.0
H191 H 0.0878 0.25644 0.58868 0.0
H192 H 0.05761 0.19767 0.5739 0.0
H193 H 0.07068 0.21363 0.56157 0.0
H194 H 0.05113 0.21566 0.56933 0.0
H195 H 0.06837 0.24847 0.57712 0.0
H196 H 0.09403 0.2577 0.57278 0.0
C197 C 0.12926 0.22563 0.61679 0.0
C198 C 0.11054 0.18999 0.60809 0.0
C199 C 0.13714 0.25122 0.54055 0.0
C200 C 0.12466 0.25592 0.53356 0.0
C201 C 0.1067 0.25275 0.53903 0.0
C202 C 0.10135 0.24516 0.55118 0.0
C203 C 0.11405 0.24064 0.55803 0.0
C204 C 0.13159 0.24367 0.55267 0.0
C205 C 0.1433 0.23809 0.56131 0.0
C206 C 0.12997 0.23129 0.57276 0.0
C207 C 0.11283 0.2328 0.57081 0.0
C208 C 0.1636 0.25668 0.5641 0.0
C209 C 0.1449 0.22116 0.55508 0.0
C210 C 0.05324 0.21705 0.59854 0.0
C211 C 0.04813 0.20999 0.61086 0.0
C212 C 0.06124 0.20582 0.61764 0.0
C213 C 0.07902 0.20863 0.61229 0.0
C214 C 0.08392 0.21574 0.60001 0.0
C215 C 0.07111 0.21984 0.59335 0.0
C216 C 0.07887 0.22751 0.58046 0.0
C217 C 0.09836 0.22723 0.58045 0.0
C218 C 0.10125 0.2203 0.59193 0.0
C219 C 0.08237 0.24858 0.57958 0.0
C220 C 0.06382 0.21303 0.57072 0.0
H221 H 0.17118 0.22932 0.57415 0.0
H222 H 0.1532 0.20406 0.61747 0.0
H223 H 0.11264 0.18054 0.60123 0.0
H224 H 0.09471 0.18584 0.60715 0.0
H225 H 0.11313 0.18601 0.6176 0.0
H226 H 0.1436 0.23953 0.61561 0.0
H227 H 0.13034 0.21871 0.62558 0.0
H228 H 0.11796 0.23012 0.61797 0.0
H229 H 0.1509 0.25318 0.53664 0.0
H230 H 0.09689 0.25644 0.53399 0.0
H231 H 0.08755 0.24319 0.55478 0.0
H232 H 0.16187 0.26982 0.56476 0.0
H233 H 0.17453 0.25934 0.55657 0.0
H234 H 0.17012 0.25612 0.57319 0.0
H235 H 0.13118 0.21141 0.54961 0.0
H236 H 0.14622 0.21144 0.56195 0.0
H237 H 0.15771 0.22684 0.54855 0.0
H238 H 0.19326 0.22211 0.58588 0.0
C239 C 0.16676 0.22389 0.58347 0.0
C240 C 0.77889 0.84067 0.60878 0.0
C241 C 0.77509 0.82266 0.60371 0.0
C242 C 0.76606 0.817 0.59177 0.0
C243 C 0.76526 0.84721 0.59011 0.0
C244 C 0.77383 0.8526 0.60188 0.0
C245 C 0.77692 0.87217 0.60596 0.0
H246 H 0.77089 0.95281 0.59305 0.0
C247 C 0.76227 0.86313 0.58536 0.0
C248 C 0.76903 0.87776 0.59463 0.0
H249 H 0.79187 0.9393 0.62709 0.0
H250 H 0.78516 0.90848 0.61826 0.0
H251 H 0.79172 0.93767 0.57427 0.0
H252 H 0.73239 0.90954 0.58938 0.0
H253 H 0.73029 0.90326 0.57342 0.0
H254 H 0.74081 0.92858 0.57791 0.0
H255 H 0.77317 0.94329 0.56893 0.0
H256 H 0.77552 0.92359 0.56212 0.0
C257 C 0.79958 0.88616 0.60793 0.0
C258 C 0.76405 0.8691 0.61775 0.0
C259 C 0.7336 0.85833 0.54173 0.0
C260 C 0.72989 0.87116 0.53464 0.0
C261 C 0.73421 0.88925 0.53992 0.0
C262 C 0.74207 0.89449 0.55206 0.0
C263 C 0.74575 0.88155 0.55902 0.0
C264 C 0.74157 0.86383 0.55383 0.0
C265 C 0.74681 0.85212 0.56254 0.0
C266 C 0.75471 0.86569 0.57382 0.0
C267 C 0.754 0.88288 0.57171 0.0
C268 C 0.76323 0.84932 0.55625 0.0
C269 C 0.72743 0.83282 0.56559 0.0
C270 C 0.77385 0.94313 0.59865 0.0
C271 C 0.78199 0.94857 0.61078 0.0
C272 C 0.78588 0.93562 0.61766 0.0
C273 C 0.78185 0.91764 0.61254 0.0
C274 C 0.77382 0.91247 0.60039 0.0
C275 C 0.76988 0.9251 0.59368 0.0
C276 C 0.76131 0.91713 0.58092 0.0
C277 C 0.7607 0.89761 0.58111 0.0
C278 C 0.7681 0.89502 0.59252 0.0
C279 C 0.77601 0.93111 0.57097 0.0
C280 C 0.74014 0.91456 0.58024 0.0
H281 H 0.75434 0.82404 0.57593 0.0
H282 H 0.78599 0.84561 0.61785 0.0
H283 H 0.75014 0.85461 0.61746 0.0
H284 H 0.75884 0.87979 0.6185 0.0
H285 H 0.77229 0.86971 0.62643 0.0
H286 H 0.80833 0.88346 0.60075 0.0
H287 H 0.80449 0.88401 0.61728 0.0
H288 H 0.80406 0.90172 0.60689 0.0
H289 H 0.73065 0.84442 0.53788 0.0
H290 H 0.73127 0.89929 0.53471 0.0
H291 H 0.74497 0.90844 0.55555 0.0
H292 H 0.77374 0.8626 0.55094 0.0
H293 H 0.75665 0.83682 0.54956 0.0
H294 H 0.77269 0.84714 0.56305 0.0
H295 H 0.7145 0.83527 0.56624 0.0
H296 H 0.72804 0.82674 0.57477 0.0
H297 H 0.72396 0.82161 0.5582 0.0
H298 H 0.76264 0.80307 0.58771 0.0
C299 C 0.76114 0.82916 0.58496 0.0
C300 C 0.05959 0.83923 0.61041 0.0
C301 C 0.04475 0.82116 0.60556 0.0
C302 C 0.04693 0.81568 0.59334 0.0
C303 C 0.07805 0.84624 0.59093 0.0
C304 C 0.07603 0.85143 0.60299 0.0
C305 C 0.09315 0.87102 0.60682 0.0
H306 H 0.17893 0.95311 0.59193 0.0
C307 C 0.09665 0.86243 0.58568 0.0
C308 C 0.10554 0.87697 0.59498 0.0
H309 H 0.1489 0.93768 0.62762 0.0
H310 H 0.12341 0.90686 0.61903 0.0
H311 H 0.17439 0.91131 0.58689 0.0
H312 H 0.1396 0.93691 0.57463 0.0
H313 H 0.14133 0.92379 0.56184 0.0
H314 H 0.16374 0.94402 0.56834 0.0
H315 H 0.18292 0.9298 0.57506 0.0
H316 H 0.16778 0.90418 0.57122 0.0
C317 C 0.10422 0.86794 0.61794 0.0
C318 C 0.08476 0.88475 0.60975 0.0
C319 C 0.11725 0.85842 0.54094 0.0
C320 C 0.13325 0.87166 0.53346 0.0
C321 C 0.1471 0.89008 0.53851 0.0
C322 C 0.14519 0.89522 0.55077 0.0
C323 C 0.12923 0.88184 0.55816 0.0
C324 C 0.11547 0.86385 0.55319 0.0
C325 C 0.09919 0.85179 0.56237 0.0
C326 C 0.1057 0.86535 0.57371 0.0
C327 C 0.12336 0.88289 0.57117 0.0
C328 C 0.09981 0.83284 0.56503 0.0
C329 C 0.07916 0.84833 0.55683 0.0
C330 C 0.16674 0.94313 0.59783 0.0
C331 C 0.16582 0.94782 0.61044 0.0
C332 C 0.14996 0.93431 0.6179 0.0
C333 C 0.13515 0.91646 0.61288 0.0
C334 C 0.13626 0.91194 0.60027 0.0
C335 C 0.15197 0.9251 0.593 0.0
C336 C 0.15118 0.91744 0.57997 0.0
C337 C 0.13234 0.89757 0.58058 0.0
C338 C 0.12358 0.89452 0.59245 0.0
C339 C 0.17005 0.91566 0.57805 0.0
C340 C 0.14899 0.93124 0.57062 0.0
H341 H 0.06418 0.82316 0.57675 0.0
H342 H 0.05856 0.84372 0.61984 0.0
H343 H 0.07319 0.8827 0.60274 0.0
H344 H 0.09613 0.90039 0.6093 0.0
H345 H 0.07773 0.88166 0.61915 0.0
H346 H 0.10266 0.85315 0.61761 0.0
H347 H 0.09822 0.86939 0.62707 0.0
H348 H 0.1205 0.87814 0.61776 0.0
H349 H 0.10624 0.84424 0.53728 0.0
H350 H 0.15967 0.90046 0.53301 0.0
H351 H 0.15631 0.90941 0.55405 0.0
H352 H 0.11548 0.83594 0.56558 0.0
H353 H 0.09214 0.82182 0.55749 0.0
H354 H 0.09317 0.82622 0.57412 0.0
H355 H 0.0813 0.86138 0.55157 0.0
H356 H 0.06805 0.84599 0.56406 0.0
H357 H 0.07267 0.83569 0.55024 0.0
H358 H 0.03565 0.80188 0.58936 0.0
C359 C 0.06345 0.82811 0.586 0.0
C360 C 0.89553 0.49561 0.74052 0.0
C361 C 0.89919 0.51346 0.74577 0.0
C362 C 0.90777 0.51871 0.75784 0.0
C363 C 0.90869 0.48852 0.75919 0.0
C364 C 0.90037 0.48346 0.74734 0.0
C365 C 0.89722 0.46395 0.7431 0.0
H366 H 0.90285 0.38289 0.75514 0.0
C367 C 0.91163 0.47248 0.76378 0.0
C368 C 0.90491 0.45806 0.75438 0.0
H369 H 0.8815 0.39695 0.72147 0.0
H370 H 0.88844 0.42769 0.73056 0.0
H371 H 0.94137 0.42572 0.75872 0.0
H372 H 0.88246 0.39815 0.77442 0.0
H373 H 0.89916 0.4117 0.78652 0.0
H374 H 0.90085 0.39195 0.7792 0.0
H375 H 0.93333 0.40705 0.77041 0.0
H376 H 0.94405 0.43252 0.77459 0.0
C377 C 0.91025 0.46724 0.73136 0.0
C378 C 0.87456 0.45009 0.74096 0.0
C379 C 0.94162 0.47691 0.80697 0.0
C380 C 0.94599 0.46421 0.81372 0.0
C381 C 0.94146 0.44615 0.80825 0.0
C382 C 0.93294 0.4409 0.79628 0.0
C383 C 0.92881 0.45379 0.78963 0.0
C384 C 0.93307 0.47142 0.795 0.0
C385 C 0.92751 0.48318 0.78655 0.0
C386 C 0.91935 0.46975 0.7752 0.0
C387 C 0.92017 0.45257 0.77708 0.0
C388 C 0.94673 0.50257 0.78343 0.0
C389 C 0.91121 0.48582 0.79315 0.0
C390 C 0.89985 0.39267 0.74967 0.0
C391 C 0.89154 0.3874 0.73757 0.0
C392 C 0.88761 0.40049 0.73088 0.0
C393 C 0.89178 0.41841 0.73615 0.0
C394 C 0.89998 0.42341 0.74827 0.0
C395 C 0.90394 0.41065 0.7548 0.0
C396 C 0.91275 0.41846 0.76754 0.0
C397 C 0.91337 0.43798 0.76757 0.0
C398 C 0.90584 0.44076 0.75628 0.0
C399 C 0.93394 0.421 0.76797 0.0
C400 C 0.89823 0.40437 0.77751 0.0
H401 H 0.91904 0.51119 0.7737 0.0
H402 H 0.88869 0.49096 0.73135 0.0
H403 H 0.8657 0.45305 0.74791 0.0
H404 H 0.8699 0.43453 0.74226 0.0
H405 H 0.86992 0.45207 0.73148 0.0
H406 H 0.92445 0.48146 0.73198 0.0
H407 H 0.90238 0.46743 0.72269 0.0
H408 H 0.91494 0.4562 0.73032 0.0
H409 H 0.94504 0.49096 0.81083 0.0
H410 H 0.94432 0.43593 0.8133 0.0
H411 H 0.92987 0.42696 0.79268 0.0
H412 H 0.95959 0.50011 0.78225 0.0
H413 H 0.9506 0.51352 0.79105 0.0
H414 H 0.94569 0.509 0.7745 0.0
H415 H 0.901 0.47255 0.79857 0.0
H416 H 0.9014 0.48781 0.78652 0.0
H417 H 0.91793 0.49838 0.79979 0.0
H418 H 0.91097 0.53249 0.76205 0.0
C419 C 0.91254 0.50636 0.76457 0.0
C420 C 0.61527 0.49391 0.73834 0.0
C421 C 0.63073 0.51127 0.74358 0.0
C422 C 0.62886 0.51622 0.75602 0.0
C423 C 0.59657 0.48678 0.75772 0.0
C424 C 0.59849 0.48189 0.74556 0.0
C425 C 0.58105 0.46262 0.74153 0.0
H426 H 0.49254 0.38271 0.7552 0.0
C427 C 0.57741 0.47105 0.76268 0.0
C428 C 0.56832 0.45679 0.75323 0.0
H429 H 0.52566 0.39591 0.72062 0.0
H430 H 0.55125 0.42641 0.72937 0.0
H431 H 0.52954 0.39682 0.77344 0.0
H432 H 0.49952 0.42635 0.75939 0.0
H433 H 0.50488 0.43274 0.77527 0.0
H434 H 0.48873 0.40747 0.77095 0.0
H435 H 0.50555 0.39158 0.77906 0.0
H436 H 0.52836 0.41081 0.78587 0.0
C437 C 0.58885 0.44838 0.73861 0.0
C438 C 0.57064 0.46639 0.73035 0.0
C439 C 0.55517 0.47638 0.80668 0.0
C440 C 0.53828 0.46389 0.8138 0.0
C441 C 0.5238 0.44592 0.80852 0.0
C442 C 0.526 0.44051 0.79638 0.0
C443 C 0.54288 0.45315 0.78936 0.0
C444 C 0.55719 0.4707 0.79455 0.0
C445 C 0.57435 0.48203 0.78577 0.0
C446 C 0.56777 0.46854 0.7744 0.0
C447 C 0.5493 0.45168 0.77657 0.0
C448 C 0.5935 0.48413 0.79189 0.0
C449 C 0.57536 0.5017 0.78288 0.0
C450 C 0.50521 0.39225 0.74946 0.0
C451 C 0.50706 0.38679 0.73719 0.0
C452 C 0.52397 0.39958 0.73015 0.0
C453 C 0.53879 0.41737 0.73523 0.0
C454 C 0.53679 0.42254 0.74753 0.0
C455 C 0.52017 0.41008 0.7544 0.0
C456 C 0.52055 0.41799 0.76731 0.0
C457 C 0.54019 0.43719 0.76706 0.0
C458 C 0.54963 0.43977 0.75545 0.0
C459 C 0.52088 0.40359 0.777 0.0
C460 C 0.50246 0.42124 0.76843 0.0
H461 H 0.61133 0.50875 0.77246 0.0
H462 H 0.61638 0.48956 0.72887 0.0
H463 H 0.57083 0.48048 0.73159 0.0
H464 H 0.5547 0.45527 0.72944 0.0
H465 H 0.57827 0.46718 0.7214 0.0
H466 H 0.60146 0.45114 0.74494 0.0
H467 H 0.59431 0.4501 0.72883 0.0
H468 H 0.57758 0.43291 0.74018 0.0
H469 H 0.56668 0.49018 0.81052 0.0
H470 H 0.51055 0.43613 0.81372 0.0
H471 H 0.51439 0.42669 0.79291 0.0
H472 H 0.59004 0.47119 0.79775 0.0
H473 H 0.60088 0.49728 0.79803 0.0
H474 H 0.60434 0.48475 0.78494 0.0
H475 H 0.56012 0.49951 0.78149 0.0
H476 H 0.58339 0.50848 0.77415 0.0
H477 H 0.5825 0.51228 0.79072 0.0
H478 H 0.64049 0.52961 0.76023 0.0
C479 C 0.61188 0.50413 0.76309 0.0
C480 C 0.61466 0.12626 0.73865 0.0
C481 C 0.62978 0.12351 0.74391 0.0
C482 C 0.62735 0.11632 0.75624 0.0
C483 C 0.59525 0.11464 0.75778 0.0
C484 C 0.59765 0.12182 0.74574 0.0
C485 C 0.58032 0.12413 0.7416 0.0
H486 H 0.48945 0.1135 0.75373 0.0
C487 C 0.57584 0.11136 0.76254 0.0
C488 C 0.56705 0.11697 0.75309 0.0
H489 H 0.52503 0.13675 0.72039 0.0
H490 H 0.55094 0.13209 0.72947 0.0
H491 H 0.49853 0.07796 0.75774 0.0
H492 H 0.52526 0.13626 0.77297 0.0
H493 H 0.52435 0.12099 0.78515 0.0
H494 H 0.50142 0.11703 0.77806 0.0
H495 H 0.48612 0.08522 0.7689 0.0
H496 H 0.50266 0.07658 0.7738 0.0
C497 C 0.57042 0.11063 0.73011 0.0
C498 C 0.58815 0.1461 0.73911 0.0
C499 C 0.5522 0.08295 0.80613 0.0
C500 C 0.53472 0.07793 0.81294 0.0
C501 C 0.52011 0.08127 0.80741 0.0
C502 C 0.52267 0.08917 0.79537 0.0
C503 C 0.54006 0.0939 0.78865 0.0
C504 C 0.55452 0.09085 0.79406 0.0
C505 C 0.57204 0.09678 0.78548 0.0
C506 C 0.5657 0.10388 0.77407 0.0
C507 C 0.54692 0.10212 0.77599 0.0
C508 C 0.57356 0.07837 0.78249 0.0
C509 C 0.5908 0.11356 0.79191 0.0
C510 C 0.50275 0.11743 0.74834 0.0
C511 C 0.50511 0.12545 0.73628 0.0
C512 C 0.52286 0.1307 0.72972 0.0
C513 C 0.53788 0.12789 0.73499 0.0
C514 C 0.53526 0.11981 0.74703 0.0
C515 C 0.51797 0.11485 0.75352 0.0
C516 C 0.51796 0.1069 0.76631 0.0
C517 C 0.53802 0.10777 0.76641 0.0
C518 C 0.54806 0.11524 0.75506 0.0
C519 C 0.50037 0.08559 0.76685 0.0
C520 C 0.51706 0.12084 0.77622 0.0
H521 H 0.60931 0.10638 0.77246 0.0
H522 H 0.61611 0.13198 0.72928 0.0
H523 H 0.60067 0.15547 0.74558 0.0
H524 H 0.57682 0.15041 0.74085 0.0
H525 H 0.59373 0.15007 0.72938 0.0
H526 H 0.56992 0.09641 0.73135 0.0
H527 H 0.57891 0.11742 0.72143 0.0
H528 H 0.55476 0.1068 0.72868 0.0
H529 H 0.56369 0.08047 0.80999 0.0
H530 H 0.50667 0.07792 0.81247 0.0
H531 H 0.51094 0.09129 0.79176 0.0
H532 H 0.55847 0.06528 0.78139 0.0
H533 H 0.58137 0.07532 0.79013 0.0
H534 H 0.58115 0.07943 0.77355 0.0
H535 H 0.58697 0.12333 0.79728 0.0
H536 H 0.60224 0.12325 0.78517 0.0
H537 H 0.59756 0.10772 0.79858 0.0
H538 H 0.63859 0.11381 0.7605 0.0
C539 C 0.61024 0.11188 0.76317 0.0
C540 C 0.82374 0.54335 0.94181 0.0
C541 C 0.84257 0.54816 0.93692 0.0
C542 C 0.84807 0.55768 0.92521 0.0
C543 C 0.81637 0.55675 0.92341 0.0
C544 C 0.8111 0.54797 0.93501 0.0
C545 C 0.79113 0.54483 0.93919 0.0
H546 H 0.70891 0.55207 0.92735 0.0
C547 C 0.79989 0.55949 0.91877 0.0
C548 C 0.78513 0.55274 0.92804 0.0
H549 H 0.72351 0.53161 0.96106 0.0
H550 H 0.75439 0.53733 0.95184 0.0
H551 H 0.75224 0.58871 0.92336 0.0
H552 H 0.72435 0.53052 0.90772 0.0
H553 H 0.73722 0.5471 0.89564 0.0
H554 H 0.71703 0.54799 0.90339 0.0
H555 H 0.73304 0.58052 0.91162 0.0
H556 H 0.75894 0.5908 0.9075 0.0
C557 C 0.79438 0.55717 0.95121 0.0
C558 C 0.77692 0.52261 0.94085 0.0
C559 C 0.80357 0.58679 0.87508 0.0
C560 C 0.79068 0.59101 0.86815 0.0
C561 C 0.77256 0.58728 0.87363 0.0
C562 C 0.76735 0.57949 0.88573 0.0
C563 C 0.7804 0.5754 0.89254 0.0
C564 C 0.79819 0.5791 0.88719 0.0
C565 C 0.81042 0.57426 0.8959 0.0
C566 C 0.79694 0.5668 0.90728 0.0
C567 C 0.77935 0.56748 0.90526 0.0
C568 C 0.83024 0.59336 0.89884 0.0
C569 C 0.8131 0.558 0.88966 0.0
C570 C 0.71869 0.54867 0.9327 0.0
C571 C 0.71372 0.54136 0.94497 0.0
C572 C 0.72705 0.53743 0.95165 0.0
C573 C 0.74497 0.54071 0.94626 0.0
C574 C 0.7498 0.54816 0.93405 0.0
C575 C 0.73676 0.55205 0.92748 0.0
C576 C 0.74461 0.56036 0.91472 0.0
C577 C 0.76453 0.56092 0.91474 0.0
C578 C 0.76743 0.55364 0.92607 0.0
C579 C 0.74727 0.58114 0.91413 0.0
C580 C 0.73008 0.54591 0.90477 0.0
H581 H 0.84024 0.56901 0.90961 0.0
H582 H 0.81877 0.53602 0.95071 0.0
H583 H 0.77878 0.51427 0.93306 0.0
H584 H 0.76103 0.51843 0.94063 0.0
H585 H 0.78008 0.51744 0.94977 0.0
H586 H 0.80944 0.57046 0.95136 0.0
H587 H 0.79305 0.54865 0.95976 0.0
H588 H 0.78396 0.56287 0.95187 0.0
H589 H 0.81774 0.58975 0.87126 0.0
H590 H 0.76226 0.59021 0.86848 0.0
H591 H 0.75334 0.57697 0.88932 0.0
H592 H 0.82834 0.6064 0.89823 0.0
H593 H 0.8421 0.5955 0.89214 0.0
H594 H 0.8356 0.59378 0.90851 0.0
H595 H 0.79885 0.54668 0.88533 0.0
H596 H 0.81731 0.55005 0.89634 0.0
H597 H 0.82449 0.56409 0.88216 0.0
H598 H 0.8626 0.56227 0.92126 0.0
C599 C 0.83509 0.56184 0.91844 0.0
C600 C 0.44328 0.17283 0.94127 0.0
C601 C 0.43954 0.15494 0.93603 0.0
C602 C 0.43059 0.14952 0.92406 0.0
C603 C 0.42952 0.17964 0.92277 0.0
C604 C 0.43812 0.18482 0.93454 0.0
C605 C 0.44104 0.2042 0.93887 0.0
H606 H 0.43406 0.2846 0.92732 0.0
C607 C 0.42628 0.19553 0.91829 0.0
C608 C 0.43296 0.20992 0.92771 0.0
H609 H 0.45571 0.27056 0.96087 0.0
H610 H 0.4491 0.24002 0.95164 0.0
H611 H 0.45473 0.26992 0.90795 0.0
H612 H 0.3958 0.2416 0.92363 0.0
H613 H 0.3932 0.23499 0.90773 0.0
H614 H 0.40367 0.26038 0.91203 0.0
H615 H 0.4361 0.27579 0.90318 0.0
H616 H 0.43818 0.25627 0.89582 0.0
C617 C 0.4637 0.21831 0.94081 0.0
C618 C 0.42824 0.20074 0.95075 0.0
C619 C 0.39668 0.19141 0.87503 0.0
C620 C 0.39228 0.20412 0.86832 0.0
C621 C 0.39641 0.22197 0.87392 0.0
C622 C 0.40464 0.22705 0.88597 0.0
C623 C 0.40889 0.21418 0.89255 0.0
C624 C 0.40495 0.19672 0.88707 0.0
C625 C 0.41056 0.18496 0.89548 0.0
C626 C 0.41847 0.19825 0.9069 0.0
C627 C 0.41743 0.21532 0.90511 0.0
C628 C 0.42707 0.18263 0.88891 0.0
C629 C 0.39142 0.16541 0.89846 0.0
C630 C 0.43718 0.27486 0.93274 0.0
C631 C 0.44549 0.28007 0.94484 0.0
C632 C 0.44959 0.26705 0.95146 0.0
C633 C 0.44562 0.24924 0.94611 0.0
C634 C 0.43744 0.24431 0.93399 0.0
C635 C 0.43327 0.25698 0.92753 0.0
C636 C 0.4245 0.24924 0.91478 0.0
C637 C 0.4241 0.22983 0.91466 0.0
C638 C 0.43175 0.22708 0.92591 0.0
C639 C 0.43894 0.26351 0.90484 0.0
C640 C 0.40323 0.24648 0.91439 0.0
H641 H 0.4188 0.15681 0.90836 0.0
H642 H 0.45036 0.17762 0.95036 0.0
H643 H 0.41443 0.18616 0.95042 0.0
H644 H 0.42283 0.21125 0.95169 0.0
H645 H 0.4366 0.20132 0.95936 0.0
H646 H 0.47247 0.2158 0.93355 0.0
H647 H 0.46872 0.21611 0.95011 0.0
H648 H 0.46805 0.23385 0.93986 0.0
H649 H 0.39354 0.1775 0.87106 0.0
H650 H 0.3935 0.23219 0.8689 0.0
H651 H 0.40744 0.24085 0.88966 0.0
H652 H 0.43753 0.19623 0.88386 0.0
H653 H 0.42056 0.1705 0.88194 0.0
H654 H 0.43655 0.18013 0.89551 0.0
H655 H 0.37833 0.16757 0.89932 0.0
H656 H 0.39227 0.15917 0.90752 0.0
H657 H 0.38803 0.15443 0.89093 0.0
H658 H 0.42727 0.1357 0.91987 0.0
C659 C 0.42557 0.16176 0.91741 0.0
C660 C 0.72385 0.17539 0.94186 0.0
C661 C 0.70858 0.15792 0.93661 0.0
C662 C 0.71061 0.15296 0.92421 0.0
C663 C 0.74286 0.18249 0.9226 0.0
C664 C 0.7407 0.18744 0.9347 0.0
C665 C 0.75802 0.20674 0.93879 0.0
H666 H 0.84833 0.28492 0.92638 0.0
C667 C 0.76218 0.19813 0.91779 0.0
C668 C 0.77106 0.21243 0.92723 0.0
H669 H 0.81233 0.274 0.95954 0.0
H670 H 0.78699 0.24349 0.95073 0.0
H671 H 0.83962 0.24088 0.92254 0.0
H672 H 0.8126 0.27243 0.90719 0.0
H673 H 0.81335 0.2578 0.89504 0.0
H674 H 0.83637 0.27644 0.90201 0.0
H675 H 0.85178 0.25988 0.91117 0.0
H676 H 0.83526 0.23483 0.90656 0.0
C677 C 0.76811 0.20306 0.95019 0.0
C678 C 0.75018 0.22105 0.9414 0.0
C679 C 0.78573 0.19228 0.87429 0.0
C680 C 0.8032 0.20433 0.86751 0.0
C681 C 0.81782 0.22207 0.87299 0.0
C682 C 0.81525 0.22761 0.88501 0.0
C683 C 0.79785 0.21535 0.8917 0.0
C684 C 0.78339 0.19805 0.88633 0.0
C685 C 0.76585 0.18694 0.89488 0.0
C686 C 0.77224 0.20041 0.90625 0.0
C687 C 0.79101 0.21701 0.90432 0.0
C688 C 0.7643 0.16706 0.89791 0.0
C689 C 0.74711 0.18526 0.88843 0.0
C690 C 0.83493 0.27608 0.93173 0.0
C691 C 0.8325 0.28197 0.94375 0.0
C692 C 0.81486 0.26975 0.95038 0.0
C693 C 0.80003 0.25206 0.9452 0.0
C694 C 0.80269 0.24644 0.93319 0.0
C695 C 0.81988 0.25843 0.92664 0.0
C696 C 0.81995 0.25032 0.91388 0.0
C697 C 0.79995 0.2315 0.91385 0.0
C698 C 0.78998 0.22925 0.92521 0.0
C699 C 0.83761 0.24634 0.91338 0.0
C700 C 0.82075 0.26496 0.90394 0.0
H701 H 0.72837 0.16046 0.90786 0.0
H702 H 0.72258 0.17976 0.95129 0.0
H703 H 0.73705 0.21761 0.93539 0.0
H704 H 0.76121 0.23637 0.93913 0.0
H705 H 0.74553 0.22025 0.95131 0.0
H706 H 0.76872 0.18939 0.94883 0.0
H707 H 0.75967 0.20146 0.95892 0.0
H708 H 0.78374 0.21466 0.9516 0.0
H709 H 0.77425 0.17849 0.87043 0.0
H710 H 0.83125 0.23182 0.86793 0.0
H711 H 0.82697 0.24126 0.88861 0.0
H712 H 0.77938 0.16886 0.8993 0.0
H713 H 0.7569 0.15641 0.89014 0.0
H714 H 0.75628 0.16057 0.90669 0.0
H715 H 0.751 0.19855 0.88284 0.0
H716 H 0.73585 0.18425 0.89518 0.0
H717 H 0.7401 0.17248 0.88197 0.0
H718 H 0.69911 0.13951 0.91999 0.0
C719 C 0.72766 0.1651 0.91721 0.0
C720 C 0.56161 0.82902 0.07199 0.0
C721 C 0.564 0.84618 0.07764 0.0
C722 C 0.57175 0.85092 0.08993 0.0
C723 C 0.57398 0.8214 0.09081 0.0
C724 C 0.5666 0.8169 0.07872 0.0
C725 C 0.56441 0.79791 0.07414 0.0
H726 H 0.57029 0.71688 0.08571 0.0
C727 C 0.57711 0.80543 0.09526 0.0
C728 C 0.57149 0.79162 0.08554 0.0
H729 H 0.55186 0.73265 0.05149 0.0
H730 H 0.55794 0.76289 0.06093 0.0
H731 H 0.60846 0.76 0.0908 0.0
H732 H 0.54815 0.73066 0.10432 0.0
H733 H 0.56356 0.74377 0.11702 0.0
H734 H 0.56639 0.72465 0.10973 0.0
H735 H 0.59952 0.74046 0.10191 0.0
H736 H 0.6095 0.76554 0.10682 0.0
C737 C 0.57847 0.80229 0.06281 0.0
C738 C 0.54204 0.78374 0.07125 0.0
C739 C 0.60358 0.80788 0.13926 0.0
C740 C 0.60731 0.79484 0.14608 0.0
C741 C 0.60348 0.77713 0.14042 0.0
C742 C 0.59617 0.77253 0.12813 0.0
C743 C 0.59256 0.78571 0.12141 0.0
C744 C 0.59616 0.803 0.127 0.0
C745 C 0.59098 0.815 0.11852 0.0
C746 C 0.58398 0.8022 0.10686 0.0
C747 C 0.58499 0.7851 0.10861 0.0
C748 C 0.61022 0.83473 0.11612 0.0
C749 C 0.57392 0.81692 0.12467 0.0
C750 C 0.56777 0.72694 0.0802 0.0
C751 C 0.56048 0.72229 0.06784 0.0
C752 C 0.55717 0.73572 0.06108 0.0
C753 C 0.56081 0.75334 0.06657 0.0
C754 C 0.56783 0.75765 0.07898 0.0
C755 C 0.57134 0.74462 0.08554 0.0
C756 C 0.57894 0.75173 0.09859 0.0
C757 C 0.57928 0.77112 0.09879 0.0
C758 C 0.57269 0.77445 0.08729 0.0
C759 C 0.60016 0.7545 0.09972 0.0
C760 C 0.56364 0.73697 0.10798 0.0
H761 H 0.58244 0.84299 0.10588 0.0
H762 H 0.556 0.82508 0.0625 0.0
H763 H 0.53241 0.78578 0.07809 0.0
H764 H 0.53774 0.76819 0.07207 0.0
H765 H 0.53799 0.78632 0.06174 0.0
H766 H 0.59226 0.81677 0.06389 0.0
H767 H 0.57109 0.80254 0.05393 0.0
H768 H 0.58386 0.79177 0.06187 0.0
H769 H 0.60614 0.82148 0.14342 0.0
H770 H 0.60643 0.76694 0.14544 0.0
H771 H 0.59365 0.75887 0.12434 0.0
H772 H 0.62326 0.83254 0.11502 0.0
H773 H 0.6135 0.84506 0.12405 0.0
H774 H 0.6096 0.8418 0.10737 0.0
H775 H 0.56381 0.80354 0.13005 0.0
H776 H 0.5641 0.81837 0.11776 0.0
H777 H 0.57991 0.82952 0.13128 0.0
H778 H 0.57357 0.86395 0.09456 0.0
C779 C 0.57676 0.83865 0.09653 0.0
C780 C 0.28155 0.82904 0.07145 0.0
C781 C 0.29689 0.84647 0.07669 0.0
C782 C 0.295 0.85135 0.08913 0.0
C783 C 0.2629 0.82168 0.09086 0.0
C784 C 0.26485 0.81687 0.07869 0.0
C785 C 0.24757 0.79751 0.07465 0.0
H786 H 0.1597 0.71688 0.0883 0.0
C787 C 0.24385 0.80578 0.09583 0.0
C788 C 0.23488 0.79153 0.08638 0.0
H789 H 0.1929 0.73054 0.05374 0.0
H790 H 0.21816 0.76121 0.0625 0.0
H791 H 0.19674 0.73138 0.10652 0.0
H792 H 0.16612 0.76039 0.09261 0.0
H793 H 0.17138 0.76665 0.10852 0.0
H794 H 0.15548 0.74138 0.10409 0.0
H795 H 0.17268 0.72583 0.11217 0.0
H796 H 0.19539 0.74522 0.11898 0.0
C797 C 0.25563 0.78349 0.07168 0.0
C798 C 0.23698 0.80114 0.06351 0.0
C799 C 0.22164 0.81058 0.13994 0.0
C800 C 0.20484 0.79792 0.14707 0.0
C801 C 0.19046 0.77992 0.14177 0.0
C802 C 0.19267 0.77464 0.12959 0.0
C803 C 0.20946 0.78743 0.12257 0.0
C804 C 0.22367 0.80502 0.12777 0.0
C805 C 0.24073 0.81655 0.11897 0.0
C806 C 0.23424 0.80312 0.10758 0.0
C807 C 0.21588 0.78611 0.10975 0.0
C808 C 0.26002 0.81884 0.12502 0.0
C809 C 0.24147 0.83611 0.11615 0.0
C810 C 0.17231 0.72657 0.08258 0.0
C811 C 0.1743 0.72119 0.07031 0.0
C812 C 0.19113 0.73416 0.06327 0.0
C813 C 0.20575 0.75204 0.06836 0.0
C814 C 0.20364 0.75711 0.08065 0.0
C815 C 0.18709 0.74449 0.08753 0.0
C816 C 0.18738 0.7523 0.10045 0.0
C817 C 0.20688 0.77164 0.10021 0.0
C818 C 0.21631 0.77437 0.08859 0.0
C819 C 0.18793 0.73797 0.11011 0.0
C820 C 0.16912 0.75526 0.10161 0.0
H821 H 0.27751 0.84367 0.10561 0.0
H822 H 0.28268 0.82474 0.06197 0.0
H823 H 0.23694 0.81512 0.0648 0.0
H824 H 0.2211 0.78986 0.0626 0.0
H825 H 0.24465 0.80209 0.05455 0.0
H826 H 0.26841 0.7865 0.07791 0.0
H827 H 0.2609 0.78518 0.06186 0.0
H828 H 0.24455 0.76798 0.07335 0.0
H829 H 0.23307 0.8244 0.14379 0.0
H830 H 0.17728 0.77001 0.14698 0.0
H831 H 0.18114 0.76078 0.12611 0.0
H832 H 0.25674 0.80589 0.1308 0.0
H833 H 0.26726 0.83193 0.13121 0.0
H834 H 0.27091 0.8197 0.11803 0.0
H835 H 0.22616 0.83375 0.11485 0.0
H836 H 0.24938 0.84297 0.10741 0.0
H837 H 0.2486 0.84669 0.12399 0.0
H838 H 0.30654 0.86479 0.09335 0.0
C839 C 0.27809 0.8391 0.09622 0.0
C840 C 0.28176 0.46059 0.07245 0.0
C841 C 0.29683 0.45776 0.07772 0.0
C842 C 0.29435 0.45054 0.09005 0.0
C843 C 0.26231 0.44898 0.09155 0.0
C844 C 0.26476 0.45619 0.07952 0.0
C845 C 0.2475 0.4586 0.07538 0.0
H846 H 0.15668 0.44808 0.08752 0.0
C847 C 0.24293 0.44575 0.0963 0.0
C848 C 0.2342 0.45144 0.08686 0.0
H849 H 0.19234 0.47155 0.05424 0.0
H850 H 0.21823 0.4668 0.06329 0.0
H851 H 0.16571 0.41249 0.09144 0.0
H852 H 0.19234 0.47072 0.10677 0.0
H853 H 0.19157 0.45546 0.11892 0.0
H854 H 0.16857 0.45142 0.1119 0.0
H855 H 0.15326 0.41972 0.10258 0.0
H856 H 0.16975 0.41103 0.1075 0.0
C857 C 0.23757 0.44515 0.06387 0.0
C858 C 0.25541 0.48059 0.07292 0.0
C859 C 0.2191 0.41703 0.13976 0.0
C860 C 0.20162 0.41201 0.14656 0.0
C861 C 0.18707 0.41547 0.14107 0.0
C862 C 0.1897 0.4235 0.12907 0.0
C863 C 0.20709 0.42821 0.12235 0.0
C864 C 0.22149 0.42505 0.12773 0.0
C865 C 0.23903 0.431 0.11918 0.0
C866 C 0.23276 0.43822 0.10781 0.0
C867 C 0.214 0.43651 0.10972 0.0
C868 C 0.24048 0.41256 0.11612 0.0
C869 C 0.2578 0.44768 0.12567 0.0
C870 C 0.16999 0.45204 0.08214 0.0
C871 C 0.1724 0.46013 0.07011 0.0
C872 C 0.19016 0.46543 0.06355 0.0
C873 C 0.20515 0.46257 0.0688 0.0
C874 C 0.20249 0.4544 0.08081 0.0
C875 C 0.18518 0.44941 0.0873 0.0
C876 C 0.18512 0.44138 0.10007 0.0
C877 C 0.20516 0.44223 0.10016 0.0
C878 C 0.21524 0.44976 0.08883 0.0
C879 C 0.16751 0.42008 0.10056 0.0
C880 C 0.18421 0.45528 0.11001 0.0
H881 H 0.27628 0.44061 0.10625 0.0
H882 H 0.28326 0.46633 0.06308 0.0
H883 H 0.26796 0.48991 0.07938 0.0
H884 H 0.24412 0.48496 0.07469 0.0
H885 H 0.26096 0.48457 0.06319 0.0
H886 H 0.23693 0.43086 0.06512 0.0
H887 H 0.24614 0.45191 0.05521 0.0
H888 H 0.22197 0.44146 0.06239 0.0
H889 H 0.23054 0.41445 0.1436 0.0
H890 H 0.17363 0.41212 0.14613 0.0
H891 H 0.17802 0.4257 0.12548 0.0
H892 H 0.22536 0.39952 0.11498 0.0
H893 H 0.24823 0.4094 0.12375 0.0
H894 H 0.24809 0.41366 0.10719 0.0
H895 H 0.25397 0.45736 0.13115 0.0
H896 H 0.26921 0.4575 0.11895 0.0
H897 H 0.26459 0.44176 0.13223 0.0
H898 H 0.30556 0.44798 0.0943 0.0
C899 C 0.27724 0.44614 0.09696 0.0
C900 C 0.49115 0.87702 0.27451 0.0
C901 C 0.50978 0.88142 0.26957 0.0
C902 C 0.51501 0.8898 0.25755 0.0
C903 C 0.48364 0.88961 0.25575 0.0
C904 C 0.47845 0.88133 0.26751 0.0
C905 C 0.45843 0.87816 0.27155 0.0
H906 H 0.37945 0.89102 0.26097 0.0
C907 C 0.46737 0.89268 0.25109 0.0
C908 C 0.45259 0.8861 0.26035 0.0
H909 H 0.38939 0.86203 0.29223 0.0
H910 H 0.42008 0.86773 0.28308 0.0
H911 H 0.42491 0.92582 0.25726 0.0
H912 H 0.39123 0.86863 0.24042 0.0
H913 H 0.40602 0.88477 0.22864 0.0
H914 H 0.38727 0.88839 0.23617 0.0
H915 H 0.40461 0.91942 0.24654 0.0
H916 H 0.4296 0.92801 0.24105 0.0
C917 C 0.46159 0.89054 0.28352 0.0
C918 C 0.44418 0.85591 0.27323 0.0
C919 C 0.47249 0.92215 0.20794 0.0
C920 C 0.46022 0.92744 0.20123 0.0
C921 C 0.44252 0.92459 0.2069 0.0
C922 C 0.43709 0.91657 0.21893 0.0
C923 C 0.44948 0.91131 0.22548 0.0
C924 C 0.4669 0.91422 0.21998 0.0
C925 C 0.47849 0.90825 0.22846 0.0
C926 C 0.46493 0.90081 0.2398 0.0
C927 C 0.44794 0.90263 0.23802 0.0
C928 C 0.49875 0.92671 0.2316 0.0
C929 C 0.48029 0.89171 0.22186 0.0
C930 C 0.38805 0.88571 0.26586 0.0
C931 C 0.38184 0.87634 0.27757 0.0
C932 C 0.39385 0.86984 0.28345 0.0
C933 C 0.4117 0.87299 0.27805 0.0
C934 C 0.41774 0.88258 0.26649 0.0
C935 C 0.4058 0.88845 0.26048 0.0
C936 C 0.41405 0.89735 0.24789 0.0
C937 C 0.43312 0.89627 0.24749 0.0
C938 C 0.4353 0.88779 0.2585 0.0
C939 C 0.41846 0.91876 0.24807 0.0
C940 C 0.39891 0.8843 0.23768 0.0
H941 H 0.50698 0.9002 0.24155 0.0
H942 H 0.48672 0.87075 0.28375 0.0
H943 H 0.4481 0.84726 0.26678 0.0
H944 H 0.42853 0.85134 0.27085 0.0
H945 H 0.4449 0.85129 0.28293 0.0
H946 H 0.47518 0.90518 0.28267 0.0
H947 H 0.46352 0.88331 0.29188 0.0
H948 H 0.44932 0.8935 0.28529 0.0
H949 H 0.48636 0.92444 0.20398 0.0
H950 H 0.43269 0.92836 0.20194 0.0
H951 H 0.42344 0.91478 0.22267 0.0
H952 H 0.49736 0.94008 0.23171 0.0
H953 H 0.51025 0.92898 0.22458 0.0
H954 H 0.50433 0.92623 0.24105 0.0
H955 H 0.46602 0.88129 0.21713 0.0
H956 H 0.48334 0.88274 0.22842 0.0
H957 H 0.49213 0.89771 0.21463 0.0
H958 H 0.52912 0.89311 0.25344 0.0
C959 C 0.50208 0.89385 0.25063 0.0
C960 C 0.11083 0.50606 0.27492 0.0
C961 C 0.10691 0.48808 0.26974 0.0
C962 C 0.09788 0.48263 0.25779 0.0
C963 C 0.09731 0.51298 0.25634 0.0
C964 C 0.10588 0.51816 0.26812 0.0
C965 C 0.10905 0.53769 0.27235 0.0
H966 H 0.10371 0.61887 0.26022 0.0
C967 C 0.09448 0.52906 0.25172 0.0
C968 C 0.10128 0.54353 0.26109 0.0
H969 H 0.12399 0.60428 0.29414 0.0
H970 H 0.11728 0.57367 0.28499 0.0
H971 H 0.12458 0.60406 0.24131 0.0
H972 H 0.06505 0.57569 0.2561 0.0
H973 H 0.06319 0.57002 0.24005 0.0
H974 H 0.07378 0.59517 0.24494 0.0
H975 H 0.10612 0.60976 0.23591 0.0
H976 H 0.10858 0.59015 0.22903 0.0
C977 C 0.13173 0.55155 0.27439 0.0
C978 C 0.09615 0.53448 0.28415 0.0
C979 C 0.06602 0.52525 0.20812 0.0
C980 C 0.06262 0.53837 0.20112 0.0
C981 C 0.06722 0.55648 0.20652 0.0
C982 C 0.07503 0.56144 0.21868 0.0
C983 C 0.07839 0.54821 0.22555 0.0
C984 C 0.07398 0.5305 0.22024 0.0
C985 C 0.07904 0.51852 0.22884 0.0
C986 C 0.08704 0.53191 0.24021 0.0
C987 C 0.08654 0.54923 0.23824 0.0
C988 C 0.09533 0.5156 0.22248 0.0
C989 C 0.05954 0.49929 0.23181 0.0
C990 C 0.10651 0.609 0.26573 0.0
C991 C 0.11447 0.61408 0.27792 0.0
C992 C 0.11816 0.60089 0.28467 0.0
C993 C 0.11412 0.58303 0.27936 0.0
C994 C 0.10627 0.57821 0.26716 0.0
C995 C 0.10251 0.59106 0.26057 0.0
C996 C 0.09406 0.58341 0.24774 0.0
C997 C 0.09328 0.56381 0.24775 0.0
C998 C 0.10052 0.5609 0.25913 0.0
C999 C 0.10892 0.59755 0.23791 0.0
C1000 C 0.07296 0.58101 0.24703 0.0
H1001 H 0.08627 0.48999 0.24203 0.0
H1002 H 0.11794 0.51086 0.284 0.0
H1003 H 0.08232 0.51992 0.28387 0.0
H1004 H 0.09078 0.54504 0.2849 0.0
H1005 H 0.10442 0.53518 0.29283 0.0
H1006 H 0.14046 0.54898 0.26713 0.0
H1007 H 0.13659 0.54913 0.28368 0.0
H1008 H 0.13628 0.56715 0.27353 0.0
H1009 H 0.06285 0.51132 0.20417 0.0
H1010 H 0.06453 0.56674 0.20137 0.0
H1011 H 0.07815 0.57541 0.22226 0.0
H1012 H 0.10596 0.52891 0.21724 0.0
H1013 H 0.08864 0.5032 0.21572 0.0
H1014 H 0.10469 0.51319 0.22924 0.0
H1015 H 0.04675 0.50193 0.23262 0.0
H1016 H 0.06013 0.49293 0.24088 0.0
H1017 H 0.05588 0.48823 0.22429 0.0
H1018 H 0.09436 0.46872 0.25364 0.0
C1019 C 0.09308 0.49497 0.25107 0.0
C1020 C 0.39086 0.50881 0.27476 0.0
C1021 C 0.37582 0.49107 0.26964 0.0
C1022 C 0.37805 0.48594 0.25732 0.0
C1023 C 0.41 0.51578 0.25557 0.0
C1024 C 0.40769 0.5209 0.26758 0.0
C1025 C 0.42487 0.54037 0.27158 0.0
H1026 H 0.51488 0.6189 0.25885 0.0
C1027 C 0.42927 0.53147 0.25071 0.0
C1028 C 0.438 0.54596 0.26006 0.0
H1029 H 0.47895 0.60821 0.29201 0.0
H1030 H 0.45375 0.57744 0.28338 0.0
H1031 H 0.50668 0.575 0.25541 0.0
H1032 H 0.47908 0.60577 0.23966 0.0
H1033 H 0.47993 0.59099 0.22765 0.0
H1034 H 0.5029 0.60989 0.23451 0.0
H1035 H 0.51862 0.59378 0.24388 0.0
H1036 H 0.5023 0.56859 0.23948 0.0
C1037 C 0.43499 0.53703 0.2831 0.0
C1038 C 0.41682 0.55455 0.27396 0.0
C1039 C 0.45306 0.52528 0.20735 0.0
C1040 C 0.47049 0.53738 0.20054 0.0
C1041 C 0.48497 0.55526 0.20594 0.0
C1042 C 0.48231 0.5609 0.2179 0.0
C1043 C 0.46495 0.54861 0.22462 0.0
C1044 C 0.45063 0.53116 0.21933 0.0
C1045 C 0.43313 0.52003 0.22792 0.0
C1046 C 0.43937 0.53367 0.2392 0.0
C1047 C 0.45804 0.55036 0.2372 0.0
C1048 C 0.43185 0.50031 0.23111 0.0
C1049 C 0.41428 0.51801 0.2214 0.0
C1050 C 0.50154 0.61005 0.26423 0.0
C1051 C 0.49907 0.61609 0.27619 0.0
C1052 C 0.4815 0.60386 0.28289 0.0
C1053 C 0.46675 0.58601 0.27781 0.0
C1054 C 0.46944 0.58025 0.26585 0.0
C1055 C 0.48658 0.59224 0.25926 0.0
C1056 C 0.48673 0.58397 0.24657 0.0
C1057 C 0.46684 0.56503 0.24664 0.0
C1058 C 0.45684 0.56287 0.25797 0.0
C1059 C 0.50454 0.58021 0.24618 0.0
C1060 C 0.48733 0.59835 0.2365 0.0
H1061 H 0.39588 0.49335 0.24101 0.0
H1062 H 0.38948 0.51332 0.28412 0.0
H1063 H 0.40392 0.55109 0.26771 0.0
H1064 H 0.42787 0.56991 0.27184 0.0
H1065 H 0.41172 0.5536 0.28378 0.0
H1066 H 0.43564 0.52335 0.28195 0.0
H1067 H 0.42656 0.53566 0.29179 0.0
H1068 H 0.45062 0.54869 0.28444 0.0
H1069 H 0.44169 0.51139 0.20355 0.0
H1070 H 0.49835 0.56505 0.20086 0.0
H1071 H 0.49392 0.57466 0.22143 0.0
H1072 H 0.44701 0.50228 0.23241 0.0
H1073 H 0.42435 0.48944 0.22346 0.0
H1074 H 0.42406 0.49401 0.23998 0.0
H1075 H 0.418 0.53126 0.21582 0.0
H1076 H 0.40288 0.51677 0.22811 0.0
H1077 H 0.40752 0.50524 0.21493 0.0
H1078 H 0.36678 0.47227 0.2532 0.0
C1079 C 0.39503 0.49815 0.25029 0.0
Tb1080 Tb 0.49388 0.9869 0.99264 0.0
C1081 C 0.53782 0.06201 0.02444 0.0
C1082 C 0.57261 0.07154 0.02267 0.0
C1083 C 0.56318 0.09635 0.02582 0.0
C1084 C 0.55228 0.05702 0.02264 0.0
C1085 C 0.54304 0.08166 0.02637 0.0
C1086 C 0.57796 0.09129 0.02395 0.0
C1087 C 0.5083 0.07056 0.03031 0.0
N1088 N 0.51862 0.04735 0.025 0.0
C1089 C 0.50391 0.05128 0.02835 0.0
C1090 C 0.52792 0.08586 0.02915 0.0
Tb1091 Tb 0.51266 0.01627 0.02113 0.0
N1092 N 0.54642 0.03778 0.02161 0.0
C1093 C 0.56039 0.03198 0.02163 0.0
C1094 C 0.5869 0.06571 0.02184 0.0
C1095 C 0.58076 0.04582 0.02154 0.0
H1096 H 0.48867 0.03962 0.0292 0.0
H1097 H 0.59169 0.04111 0.02118 0.0
H1098 H 0.59349 0.10269 0.02387 0.0
H1099 H 0.49654 0.07361 0.03268 0.0
H1100 H 0.55601 0.01672 0.02129 0.0
H1101 H 0.415 0.9628 0.99195 0.0
H1102 H 0.60268 0.0764 0.02178 0.0
H1103 H 0.51762 0.96304 0.98529 0.0
H1104 H 0.45075 0.98693 0.99199 0.0
H1105 H 0.50947 0.92886 0.98225 0.0
H1106 H 0.56752 0.11158 0.02715 0.0
H1107 H 0.40369 0.92744 0.99159 0.0
H1108 H 0.41256 0.90087 0.98996 0.0
H1109 H 0.5313 0.10078 0.0307 0.0
H1110 H 0.43833 0.89159 0.98719 0.0
N1111 N 0.46006 0.96566 0.99198 0.0
C1112 C 0.44624 0.97163 0.99176 0.0
C1113 C 0.4195 0.93801 0.99159 0.0
C1114 C 0.43366 0.93198 0.991 0.0
C1115 C 0.42583 0.95794 0.99176 0.0
C1116 C 0.45404 0.94636 0.9911 0.0
H1117 H 0.47455 0.90197 0.98409 0.0
N1118 N 0.48766 0.95566 0.98909 0.0
C1119 C 0.49776 0.93211 0.98436 0.0
C1120 C 0.46839 0.94115 0.98957 0.0
C1121 C 0.50231 0.95149 0.98605 0.0
C1122 C 0.47805 0.91696 0.98544 0.0
C1123 C 0.463 0.92141 0.98788 0.0
O1124 O 0.50801 0.99063 0.97521 0.0
O1125 O 0.51788 0.01192 1.00191 0.0
O1126 O 0.50871 0.03432 0.00724 0.0
O1127 O 0.48565 0.00989 0.99386 0.0
O1128 O 0.52558 0.99679 0.9899 0.0
O1129 O 0.48264 0.99464 0.97705 0.0
O1130 O 0.49822 0.01159 0.03853 0.0
O1131 O 0.48865 0.99134 0.01181 0.0
O1132 O 0.49745 0.9689 0.00674 0.0
O1133 O 0.52105 0.9934 0.0198 0.0
O1134 O 0.48094 0.00633 0.02391 0.0
O1135 O 0.52452 0.00914 0.0367 0.0
C1136 C 0.53268 0.01185 0.99712 0.0
C1137 C 0.48778 0.9844 0.95728 0.0
C1138 C 0.48662 0.98579 0.93438 0.0
C1139 C 0.49398 0.99512 0.94606 0.0
C1140 C 0.4731 0.96551 0.93418 0.0
C1141 C 0.47423 0.96427 0.9568 0.0
C1142 C 0.46698 0.9549 0.9453 0.0
C1143 C 0.4951 0.02815 0.99819 0.0
C1144 C 0.49557 0.99444 0.96937 0.0
C1145 C 0.44279 0.90688 0.98835 0.0
C1146 C 0.42813 0.91216 0.98992 0.0
C1147 C 0.47384 0.99139 0.01659 0.0
C1148 C 0.51847 0.01864 0.0565 0.0
C1149 C 0.51132 0.00808 0.06771 0.0
C1150 C 0.51764 0.0176 0.07943 0.0
C1151 C 0.53136 0.03781 0.07969 0.0
C1152 C 0.53218 0.03873 0.05702 0.0
C1153 C 0.53858 0.04823 0.06857 0.0
C1154 C 0.51132 0.97508 0.01562 0.0
C1155 C 0.51118 0.00855 0.04437 0.0
H1156 H 0.50429 0.01073 0.94648 0.0
H1157 H 0.46739 0.95775 0.92539 0.0
H1158 H 0.46928 0.95581 0.9653 0.0
H1159 H 0.45659 0.93933 0.945 0.0
H1160 H 0.50059 0.99256 0.0673 0.0
H1161 H 0.53673 0.04554 0.08852 0.0
H1162 H 0.5379 0.04707 0.04853 0.0
H1163 H 0.54919 0.06376 0.06891 0.0
Tb1164 Tb 0.01967 0.50529 0.99449 0.0
C1165 C 0.94022 0.47713 0.02201 0.0
C1166 C 0.9313 0.50192 0.01804 0.0
C1167 C 0.90532 0.46833 0.02164 0.0
C1168 C 0.94581 0.49622 0.01935 0.0
C1169 C 0.91995 0.463 0.02349 0.0
C1170 C 0.911 0.48778 0.0189 0.0
C1171 C 0.93028 0.43997 0.0296 0.0
N1172 N 0.95482 0.47268 0.02383 0.0
C1173 C 0.95019 0.45455 0.02806 0.0
C1174 C 0.91507 0.44413 0.02715 0.0
Tb1175 Tb 0.98699 0.49738 0.02089 0.0
N1176 N 0.96558 0.50941 0.01873 0.0
C1177 C 0.97184 0.52891 0.0177 0.0
C1178 C 0.93767 0.52171 0.01624 0.0
C1179 C 0.95803 0.53529 0.01624 0.0
H1180 H 0.9618 0.45112 0.02993 0.0
H1181 H 0.96313 0.55069 0.01507 0.0
H1182 H 0.89961 0.49182 0.01779 0.0
H1183 H 0.92669 0.42553 0.03267 0.0
H1184 H 0.98749 0.53967 0.01761 0.0
H1185 H 0.04217 0.45079 0.99918 0.0
H1186 H 0.92701 0.52669 0.01512 0.0
H1187 H 0.04569 0.55181 0.98619 0.0
H1188 H 0.01831 0.46246 0.99703 0.0
H1189 H 0.08106 0.57719 0.98406 0.0
H1190 H 0.88964 0.45766 0.02261 0.0
H1191 H 0.07839 0.47433 0.99953 0.0
H1192 H 0.10625 0.50918 0.99785 0.0
H1193 H 0.89966 0.43284 0.02839 0.0
H1194 H 0.1169 0.54371 0.99374 0.0
N1195 N 0.0406 0.49266 0.9965 0.0
C1196 C 0.034 0.47305 0.99715 0.0
C1197 C 0.06796 0.47962 0.99864 0.0
C1198 C 0.07468 0.49957 0.99734 0.0
C1199 C 0.04753 0.46629 0.99839 0.0
C1200 C 0.06044 0.50564 0.99616 0.0
H1201 H 0.10758 0.56918 0.98837 0.0
N1202 N 0.05208 0.52973 0.99201 0.0
C1203 C 0.07715 0.56256 0.98688 0.0
C1204 C 0.06641 0.52492 0.99384 0.0
C1205 C 0.05711 0.54811 0.98805 0.0
C1206 C 0.09208 0.558 0.98935 0.0
C1207 C 0.0868 0.53889 0.99267 0.0
O1208 O 0.01848 0.51434 0.97616 0.0
O1209 O 0.99338 0.5049 1.00145 0.0
O1210 O 0.96971 0.47446 0.00716 0.0
O1211 O 0.99551 0.47446 0.99585 0.0
O1212 O 0.01015 0.52617 0.98898 0.0
O1213 O 0.01372 0.48546 0.97968 0.0
O1214 O 0.98927 0.4892 0.03928 0.0
O1215 O 0.01314 0.49766 0.01385 0.0
O1216 O 0.03679 0.52785 0.00846 0.0
O1217 O 0.0109 0.52827 0.01933 0.0
O1218 O 0.99675 0.47666 0.02651 0.0
O1219 O 0.9924 0.51739 0.03551 0.0
C1220 C 0.99404 0.51887 0.99541 0.0
C1221 C 0.02778 0.49986 0.96025 0.0
C1222 C 0.03097 0.4996 0.93752 0.0
C1223 C 0.01957 0.49767 0.94822 0.0
C1224 C 0.05079 0.50382 0.93908 0.0
C1225 C 0.04751 0.50395 0.96161 0.0
C1226 C 0.05895 0.50594 0.95106 0.0
C1227 C 0.97648 0.46625 0.99919 0.0
C1228 C 0.01551 0.49802 0.97118 0.0
C1229 C 0.10114 0.53317 0.99447 0.0
C1230 C 0.09508 0.51352 0.9968 0.0
C1231 C 0.01264 0.48378 0.01989 0.0
C1232 C 0.97922 0.50308 0.05513 0.0
C1233 C 0.98759 0.50528 0.06711 0.0
C1234 C 0.97607 0.50258 0.07787 0.0
C1235 C 0.956 0.49758 0.07646 0.0
C1236 C 0.95925 0.4983 0.0539 0.0
C1237 C 0.94771 0.49554 0.06453 0.0
C1238 C 0.02999 0.53631 0.01619 0.0
C1239 C 0.99149 0.50532 0.04412 0.0
H1240 H 0.0042 0.49421 0.94724 0.0
H1241 H 0.06008 0.50568 0.93105 0.0
H1242 H 0.05406 0.50559 0.97078 0.0
H1243 H 0.07421 0.50919 0.95217 0.0
H1244 H 0.00299 0.50882 0.06805 0.0
H1245 H 0.94683 0.49556 0.08458 0.0
H1246 H 0.95258 0.49669 0.04478 0.0
H1247 H 0.93229 0.49183 0.06352 0.0
Tb1248 Tb 0.51265 0.49557 0.02067 0.0
C1249 C 0.46691 0.52674 0.99043 0.0
C1250 C 0.43223 0.50173 0.99182 0.0
C1251 C 0.44116 0.53573 0.98929 0.0
C1252 C 0.45264 0.50744 0.992 0.0
C1253 C 0.4614 0.54111 0.98879 0.0
C1254 C 0.42658 0.51604 0.99078 0.0
C1255 C 0.49606 0.56458 0.98508 0.0
N1256 N 0.48621 0.53122 0.98978 0.0
C1257 C 0.50073 0.54973 0.98665 0.0
C1258 C 0.47634 0.56031 0.98631 0.0
Tb1259 Tb 0.49258 0.50613 0.99286 0.0
N1260 N 0.45875 0.49412 0.99284 0.0
C1261 C 0.44499 0.47457 0.99274 0.0
C1262 C 0.41815 0.4818 0.99226 0.0
C1263 C 0.42457 0.46816 0.9926 0.0
H1264 H 0.51604 0.55322 0.98573 0.0
H1265 H 0.41381 0.45268 0.99276 0.0
H1266 H 0.41098 0.51197 0.99078 0.0
H1267 H 0.50768 0.57929 0.98292 0.0
H1268 H 0.44955 0.46374 0.99302 0.0
H1269 H 0.59167 0.54816 0.01965 0.0
H1270 H 0.40232 0.47677 0.99202 0.0
H1271 H 0.48894 0.4486 0.02823 0.0
H1272 H 0.55602 0.53762 0.02051 0.0
H1273 H 0.49691 0.42222 0.03077 0.0
H1274 H 0.43661 0.54657 0.98817 0.0
H1275 H 0.60263 0.52362 0.01938 0.0
H1276 H 0.59348 0.48828 0.02084 0.0
H1277 H 0.47274 0.5718 0.98501 0.0
H1278 H 0.56763 0.4539 0.024 0.0
N1279 N 0.54641 0.50716 0.02045 0.0
C1280 C 0.56039 0.52663 0.02049 0.0
C1281 C 0.58687 0.51885 0.01979 0.0
C1282 C 0.57259 0.49901 0.02056 0.0
C1283 C 0.58074 0.53274 0.01998 0.0
C1284 C 0.55228 0.49362 0.02099 0.0
H1285 H 0.53156 0.42914 0.02796 0.0
N1286 N 0.51871 0.47025 0.02375 0.0
C1287 C 0.50858 0.43684 0.02846 0.0
C1288 C 0.53789 0.47443 0.02275 0.0
C1289 C 0.50414 0.45186 0.02705 0.0
C1290 C 0.52814 0.44079 0.02683 0.0
C1291 C 0.54316 0.45985 0.02413 0.0
O1292 O 0.49949 0.48586 0.03834 0.0
O1293 O 0.4882 0.49702 0.01207 0.0
O1294 O 0.49676 0.52776 0.00707 0.0
O1295 O 0.521 0.5267 0.01958 0.0
O1296 O 0.48096 0.47472 0.02413 0.0
O1297 O 0.52531 0.5144 0.03617 0.0
O1298 O 0.50606 0.51613 0.9753 0.0
O1299 O 0.51701 0.50471 1.00145 0.0
O1300 O 0.5084 0.47386 0.00651 0.0
O1301 O 0.48436 0.47502 0.99387 0.0
O1302 O 0.52423 0.5271 0.98944 0.0
O1303 O 0.48027 0.48748 0.97723 0.0
C1304 C 0.47355 0.48267 0.01711 0.0
C1305 C 0.52122 0.49879 0.05564 0.0
C1306 C 0.52223 0.49881 0.07854 0.0
C1307 C 0.51454 0.50166 0.06726 0.0
C1308 C 0.53666 0.49295 0.07795 0.0
C1309 C 0.53568 0.49308 0.05529 0.0
C1310 C 0.54332 0.49015 0.0664 0.0
C1311 C 0.51106 0.53539 0.01567 0.0
C1312 C 0.51277 0.50167 0.04404 0.0
C1313 C 0.56326 0.46491 0.0231 0.0
C1314 C 0.57797 0.48448 0.0213 0.0
C1315 C 0.53165 0.51907 0.9964 0.0
C1316 C 0.48492 0.50326 0.95774 0.0
C1317 C 0.49212 0.50058 0.94628 0.0
C1318 C 0.48517 0.50388 0.93486 0.0
C1319 C 0.47083 0.50985 0.93511 0.0
C1320 C 0.47055 0.5091 0.95779 0.0
C1321 C 0.46356 0.51238 0.94651 0.0
C1322 C 0.49423 0.4663 0.99784 0.0
C1323 C 0.493 0.50033 0.96949 0.0
H1324 H 0.50356 0.50634 0.06747 0.0
H1325 H 0.54266 0.49031 0.08642 0.0
H1326 H 0.54104 0.49087 0.04647 0.0
H1327 H 0.55441 0.48564 0.06607 0.0
H1328 H 0.50339 0.49624 0.94628 0.0
H1329 H 0.46504 0.51231 0.92649 0.0
H1330 H 0.46478 0.51116 0.96649 0.0
H1331 H 0.45246 0.51689 0.9466 0.0
Tb1332 Tb 0.16168 0.31997 0.32597 0.0
C1333 C 0.20583 0.39454 0.35821 0.0
C1334 C 0.24052 0.40349 0.35711 0.0
C1335 C 0.23159 0.42868 0.36007 0.0
C1336 C 0.22011 0.38925 0.35662 0.0
C1337 C 0.21133 0.41425 0.36026 0.0
C1338 C 0.24619 0.42331 0.3585 0.0
C1339 C 0.17658 0.40363 0.36372 0.0
N1340 N 0.18651 0.38011 0.3585 0.0
C1341 C 0.17192 0.38428 0.36169 0.0
C1342 C 0.19635 0.41873 0.36283 0.0
Tb1343 Tb 0.18011 0.3489 0.35462 0.0
N1344 N 0.21396 0.36996 0.35545 0.0
C1345 C 0.22766 0.36383 0.35565 0.0
C1346 C 0.25458 0.39732 0.35665 0.0
C1347 C 0.24809 0.37738 0.35608 0.0
H1348 H 0.15657 0.37276 0.36231 0.0
H1349 H 0.25883 0.3724 0.35594 0.0
H1350 H 0.2618 0.4345 0.35874 0.0
H1351 H 0.16491 0.40689 0.36594 0.0
H1352 H 0.22306 0.34853 0.35516 0.0
H1353 H 0.08274 0.2955 0.32458 0.0
H1354 H 0.27041 0.40776 0.35709 0.0
H1355 H 0.18595 0.29649 0.31893 0.0
H1356 H 0.11843 0.31975 0.3254 0.0
H1357 H 0.17808 0.26249 0.31544 0.0
H1358 H 0.23614 0.44395 0.3615 0.0
H1359 H 0.07164 0.26023 0.32323 0.0
H1360 H 0.08073 0.23389 0.32129 0.0
H1361 H 0.19993 0.43369 0.36446 0.0
H1362 H 0.10673 0.22486 0.31879 0.0
N1363 N 0.12791 0.29861 0.32493 0.0
C1364 C 0.11402 0.30449 0.3248 0.0
C1365 C 0.08742 0.27085 0.32364 0.0
C1366 C 0.10168 0.26495 0.32308 0.0
C1367 C 0.09364 0.29074 0.32435 0.0
C1368 C 0.12202 0.27938 0.32365 0.0
H1369 H 0.14311 0.23547 0.31642 0.0
N1370 N 0.15578 0.28888 0.32219 0.0
C1371 C 0.16623 0.2656 0.3174 0.0
C1372 C 0.13651 0.27431 0.32224 0.0
C1373 C 0.17062 0.28489 0.31934 0.0
C1374 C 0.14649 0.25039 0.31799 0.0
C1375 C 0.13128 0.25467 0.32024 0.0
O1376 O 0.17596 0.32401 0.30857 0.0
O1377 O 0.18558 0.34486 0.33542 0.0
O1378 O 0.17642 0.36713 0.34072 0.0
O1379 O 0.15327 0.34279 0.32736 0.0
O1380 O 0.19346 0.33002 0.32333 0.0
O1381 O 0.15059 0.32801 0.31045 0.0
O1382 O 0.1659 0.34496 0.37204 0.0
O1383 O 0.15616 0.32414 0.34515 0.0
O1384 O 0.16478 0.30162 0.34 0.0
O1385 O 0.18826 0.32584 0.35325 0.0
O1386 O 0.14837 0.33892 0.35739 0.0
O1387 O 0.19109 0.34068 0.37011 0.0
C1388 C 0.20046 0.34491 0.33069 0.0
C1389 C 0.15578 0.31799 0.29064 0.0
C1390 C 0.15451 0.31969 0.26777 0.0
C1391 C 0.16184 0.32888 0.2795 0.0
C1392 C 0.14113 0.29939 0.26745 0.0
C1393 C 0.14238 0.29783 0.29005 0.0
C1394 C 0.13514 0.28861 0.27851 0.0
C1395 C 0.16279 0.36105 0.33168 0.0
C1396 C 0.16355 0.32789 0.30277 0.0
C1397 C 0.11107 0.24007 0.32021 0.0
C1398 C 0.09628 0.24522 0.32163 0.0
C1399 C 0.14132 0.32407 0.34998 0.0
C1400 C 0.18597 0.35067 0.38997 0.0
C1401 C 0.17911 0.33981 0.40108 0.0
C1402 C 0.18636 0.34881 0.41286 0.0
C1403 C 0.20052 0.36891 0.41326 0.0
C1404 C 0.20013 0.37063 0.39063 0.0
C1405 C 0.20732 0.37968 0.40223 0.0
C1406 C 0.17847 0.30756 0.34897 0.0
C1407 C 0.1782 0.34091 0.37781 0.0
H1408 H 0.17203 0.34451 0.27999 0.0
H1409 H 0.13546 0.29175 0.25863 0.0
H1410 H 0.13753 0.28924 0.29849 0.0
H1411 H 0.12487 0.27301 0.27812 0.0
H1412 H 0.16834 0.32432 0.40052 0.0
H1413 H 0.20618 0.37642 0.42212 0.0
H1414 H 0.2056 0.37919 0.3822 0.0
H1415 H 0.21819 0.39512 0.40268 0.0
Tb1416 Tb 0.68655 0.84105 0.32651 0.0
C1417 C 0.60782 0.80863 0.35516 0.0
C1418 C 0.59802 0.83312 0.35299 0.0
C1419 C 0.57271 0.79899 0.35555 0.0
C1420 C 0.6129 0.82781 0.35338 0.0
C1421 C 0.58771 0.794 0.35656 0.0
C1422 C 0.57786 0.81854 0.35376 0.0
C1423 C 0.59896 0.7711 0.36102 0.0
N1424 N 0.62278 0.80452 0.35626 0.0
C1425 C 0.61869 0.78617 0.35963 0.0
C1426 C 0.58337 0.77497 0.35933 0.0
Tb1427 Tb 0.65462 0.83004 0.35361 0.0
N1428 N 0.63255 0.84143 0.35287 0.0
C1429 C 0.63835 0.86088 0.35282 0.0
C1430 C 0.60389 0.85295 0.35225 0.0
C1431 C 0.62415 0.8669 0.35233 0.0
H1432 H 0.63059 0.78296 0.36091 0.0
H1433 H 0.62886 0.88231 0.35199 0.0
H1434 H 0.56619 0.8223 0.35334 0.0
H1435 H 0.59579 0.75651 0.36339 0.0
H1436 H 0.65391 0.87191 0.35285 0.0
H1437 H 0.70997 0.787 0.32651 0.0
H1438 H 0.59292 0.85764 0.35195 0.0
H1439 H 0.71171 0.88834 0.32003 0.0
H1440 H 0.68582 0.79843 0.32687 0.0
H1441 H 0.74681 0.91419 0.31761 0.0
H1442 H 0.55714 0.78795 0.35647 0.0
H1443 H 0.74608 0.81078 0.3259 0.0
H1444 H 0.77361 0.84587 0.32498 0.0
H1445 H 0.56811 0.7633 0.36047 0.0
H1446 H 0.78371 0.88064 0.32284 0.0
N1447 N 0.70785 0.82874 0.32697 0.0
C1448 C 0.70147 0.80915 0.32672 0.0
C1449 C 0.73553 0.81598 0.32623 0.0
C1450 C 0.74201 0.83599 0.32605 0.0
C1451 C 0.71516 0.80252 0.32651 0.0
C1452 C 0.72761 0.84194 0.32635 0.0
H1453 H 0.77379 0.90626 0.31989 0.0
N1454 N 0.71871 0.86607 0.32418 0.0
C1455 C 0.74322 0.8994 0.31974 0.0
C1456 C 0.73327 0.86136 0.32499 0.0
C1457 C 0.72333 0.88468 0.3211 0.0
C1458 C 0.75841 0.89488 0.32109 0.0
C1459 C 0.75351 0.87558 0.32348 0.0
O1460 O 0.68487 0.85173 0.3088 0.0
O1461 O 0.66021 0.83947 0.33442 0.0
O1462 O 0.63716 0.80846 0.33924 0.0
O1463 O 0.66273 0.80994 0.32691 0.0
O1464 O 0.67656 0.86215 0.32276 0.0
O1465 O 0.68035 0.82265 0.31084 0.0
O1466 O 0.65714 0.82025 0.37146 0.0
O1467 O 0.68086 0.83162 0.3456 0.0
O1468 O 0.7039 0.86236 0.34109 0.0
O1469 O 0.67814 0.86121 0.35301 0.0
O1470 O 0.66517 0.80932 0.35754 0.0
O1471 O 0.6602 0.84871 0.36905 0.0
C1472 C 0.66057 0.85399 0.3293 0.0
C1473 C 0.69376 0.83877 0.29175 0.0
C1474 C 0.69557 0.83816 0.26897 0.0
C1475 C 0.68448 0.83514 0.27998 0.0
C1476 C 0.71611 0.84488 0.26992 0.0
C1477 C 0.71422 0.84531 0.29253 0.0
C1478 C 0.72533 0.84836 0.28165 0.0
C1479 C 0.64382 0.80111 0.33059 0.0
C1480 C 0.68182 0.83592 0.30303 0.0
C1481 C 0.76806 0.86993 0.32389 0.0
C1482 C 0.7623 0.85014 0.32511 0.0
C1483 C 0.68089 0.81733 0.35075 0.0
C1484 C 0.64721 0.83274 0.38825 0.0
C1485 C 0.65597 0.83502 0.40011 0.0
C1486 C 0.64461 0.83169 0.41103 0.0
C1487 C 0.62432 0.826 0.4099 0.0
C1488 C 0.62701 0.82723 0.38732 0.0
C1489 C 0.61563 0.82384 0.3981 0.0
C1490 C 0.69715 0.86985 0.3496 0.0
C1491 C 0.65939 0.83591 0.37704 0.0
H1492 H 0.66868 0.83023 0.27939 0.0
H1493 H 0.72498 0.84716 0.26161 0.0
H1494 H 0.72161 0.84806 0.30147 0.0
H1495 H 0.74113 0.85342 0.28232 0.0
H1496 H 0.67157 0.83916 0.40082 0.0
H1497 H 0.61526 0.82352 0.41814 0.0
H1498 H 0.62004 0.82558 0.37831 0.0
H1499 H 0.60003 0.81959 0.3973 0.0
Tb1500 Tb 0.1802 0.82935 0.35438 0.0
C1501 C 0.13452 0.86011 0.32389 0.0
C1502 C 0.09986 0.83566 0.32651 0.0
C1503 C 0.10913 0.8696 0.32319 0.0
C1504 C 0.12016 0.84102 0.32603 0.0
C1505 C 0.12921 0.8746 0.32211 0.0
C1506 C 0.09446 0.85015 0.32541 0.0
C1507 C 0.16366 0.89733 0.31727 0.0
N1508 N 0.15367 0.86423 0.32284 0.0
C1509 C 0.16815 0.8824 0.3191 0.0
C1510 C 0.14414 0.89348 0.31895 0.0
Tb1511 Tb 0.15977 0.83907 0.32643 0.0
N1512 N 0.12603 0.82751 0.32686 0.0
C1513 C 0.11205 0.80805 0.32715 0.0
C1514 C 0.0856 0.81587 0.32766 0.0
C1515 C 0.09172 0.80198 0.32775 0.0
H1516 H 0.18331 0.8856 0.31785 0.0
H1517 H 0.08079 0.78658 0.32835 0.0
H1518 H 0.07897 0.84637 0.3259 0.0
H1519 H 0.17526 0.91179 0.3146 0.0
H1520 H 0.11644 0.79707 0.32733 0.0
H1521 H 0.25912 0.88234 0.35328 0.0
H1522 H 0.06985 0.81113 0.32812 0.0
H1523 H 0.1565 0.78242 0.3621 0.0
H1524 H 0.22342 0.87157 0.35344 0.0
H1525 H 0.16469 0.75638 0.3655 0.0
H1526 H 0.10474 0.88055 0.322 0.0
H1527 H 0.27036 0.85806 0.35452 0.0
H1528 H 0.26147 0.82295 0.35694 0.0
H1529 H 0.14069 0.90504 0.3175 0.0
H1530 H 0.23573 0.78859 0.36026 0.0
N1531 N 0.21401 0.84117 0.35442 0.0
C1532 C 0.22788 0.86067 0.35402 0.0
C1533 C 0.25456 0.85319 0.35458 0.0
C1534 C 0.24038 0.83336 0.35565 0.0
C1535 C 0.24827 0.86692 0.35392 0.0
C1536 C 0.22001 0.8278 0.35563 0.0
H1537 H 0.19958 0.76364 0.36363 0.0
N1538 N 0.18639 0.80424 0.35799 0.0
C1539 C 0.17637 0.771 0.36319 0.0
C1540 C 0.20566 0.80861 0.35747 0.0
C1541 C 0.17179 0.78585 0.36128 0.0
C1542 C 0.19606 0.77514 0.3621 0.0
C1543 C 0.21107 0.79421 0.3594 0.0
O1544 O 0.16664 0.82014 0.37199 0.0
O1545 O 0.15561 0.8306 0.3458 0.0
O1546 O 0.16451 0.8615 0.34021 0.0
O1547 O 0.18855 0.86042 0.35291 0.0
O1548 O 0.14865 0.80835 0.35789 0.0
O1549 O 0.1929 0.84837 0.3698 0.0
O1550 O 0.17292 0.84794 0.30868 0.0
O1551 O 0.18436 0.83789 0.33503 0.0
O1552 O 0.17593 0.8073 0.34046 0.0
O1553 O 0.15158 0.808 0.32787 0.0
O1554 O 0.19134 0.85979 0.32264 0.0
O1555 O 0.14649 0.81991 0.31114 0.0
C1556 C 0.14109 0.81623 0.35093 0.0
C1557 C 0.18781 0.83307 0.38952 0.0
C1558 C 0.18704 0.83248 0.41239 0.0
C1559 C 0.18033 0.83573 0.40087 0.0
C1560 C 0.20142 0.82655 0.41236 0.0
C1561 C 0.20221 0.82726 0.38969 0.0
C1562 C 0.20895 0.82401 0.40107 0.0
C1563 C 0.17872 0.86915 0.34887 0.0
C1564 C 0.17997 0.83594 0.37765 0.0
C1565 C 0.23126 0.79945 0.35891 0.0
C1566 C 0.24591 0.81901 0.35703 0.0
C1567 C 0.1989 0.85203 0.32971 0.0
C1568 C 0.15113 0.83513 0.29143 0.0
C1569 C 0.15847 0.83273 0.27995 0.0
C1570 C 0.1515 0.8361 0.26856 0.0
C1571 C 0.13701 0.84188 0.26887 0.0
C1572 C 0.13661 0.84077 0.29153 0.0
C1573 C 0.12961 0.84413 0.28029 0.0
C1574 C 0.16162 0.79946 0.33188 0.0
C1575 C 0.15926 0.83218 0.30315 0.0
H1576 H 0.16904 0.84003 0.4007 0.0
H1577 H 0.20706 0.82414 0.42107 0.0
H1578 H 0.2082 0.82522 0.38107 0.0
H1579 H 0.22008 0.81954 0.40115 0.0
H1580 H 0.16985 0.82855 0.2799 0.0
H1581 H 0.1312 0.84439 0.26027 0.0
H1582 H 0.13072 0.8426 0.30026 0.0
H1583 H 0.11839 0.84848 0.28042 0.0
Tb1584 Tb 0.82849 0.65361 0.66 0.0
C1585 C 0.87089 0.72792 0.69269 0.0
C1586 C 0.90577 0.73747 0.69195 0.0
C1587 C 0.89617 0.76219 0.69489 0.0
C1588 C 0.88546 0.72297 0.69129 0.0
C1589 C 0.87599 0.74751 0.69481 0.0
C1590 C 0.91105 0.75717 0.69346 0.0
C1591 C 0.84101 0.73633 0.69774 0.0
N1592 N 0.85165 0.71328 0.69269 0.0
C1593 C 0.83673 0.71711 0.69565 0.0
C1594 C 0.86071 0.75164 0.69715 0.0
Tb1595 Tb 0.84595 0.6823 0.6888 0.0
N1596 N 0.87968 0.70377 0.69001 0.0
C1597 C 0.89364 0.69798 0.69026 0.0
C1598 C 0.92011 0.73167 0.69146 0.0
C1599 C 0.914 0.71181 0.69078 0.0
H1600 H 0.82144 0.70543 0.69607 0.0
H1601 H 0.92496 0.70712 0.69062 0.0
H1602 H 0.92658 0.76855 0.69386 0.0
H1603 H 0.8291 0.73932 0.69978 0.0
H1604 H 0.88931 0.68273 0.68968 0.0
H1605 H 0.74934 0.62822 0.659 0.0
H1606 H 0.93587 0.74235 0.69193 0.0
H1607 H 0.85304 0.6308 0.65199 0.0
H1608 H 0.78497 0.65282 0.65935 0.0
H1609 H 0.84554 0.59698 0.64822 0.0
H1610 H 0.90042 0.77736 0.69639 0.0
H1611 H 0.73865 0.59301 0.65814 0.0
H1612 H 0.74819 0.56697 0.65603 0.0
H1613 H 0.86399 0.76651 0.69883 0.0
H1614 H 0.77445 0.55842 0.65296 0.0
N1615 N 0.79479 0.63194 0.65908 0.0
C1616 C 0.78071 0.63759 0.65892 0.0
C1617 C 0.7544 0.60378 0.6583 0.0
C1618 C 0.76884 0.59813 0.6576 0.0
C1619 C 0.76038 0.62363 0.65874 0.0
C1620 C 0.78912 0.61276 0.65791 0.0
H1621 H 0.81083 0.56958 0.64976 0.0
N1622 N 0.82292 0.62272 0.65595 0.0
C1623 C 0.83364 0.59985 0.65054 0.0
C1624 C 0.80375 0.60796 0.65624 0.0
C1625 C 0.83782 0.61903 0.65266 0.0
C1626 C 0.81404 0.58441 0.65145 0.0
C1627 C 0.79874 0.58839 0.65414 0.0
O1628 O 0.84382 0.65928 0.64289 0.0
O1629 O 0.85204 0.67853 0.66966 0.0
O1630 O 0.84264 0.7006 0.6748 0.0
O1631 O 0.81989 0.67636 0.66123 0.0
O1632 O 0.8603 0.66377 0.6577 0.0
O1633 O 0.81668 0.66031 0.64419 0.0
O1634 O 0.83083 0.6775 0.70594 0.0
O1635 O 0.82244 0.65737 0.67915 0.0
O1636 O 0.83221 0.63534 0.67384 0.0
O1637 O 0.8545 0.65953 0.68765 0.0
O1638 O 0.81411 0.67213 0.69102 0.0
O1639 O 0.85708 0.67488 0.70459 0.0
C1640 C 0.86705 0.67864 0.66507 0.0
C1641 C 0.82445 0.65196 0.62451 0.0
C1642 C 0.82633 0.65385 0.60164 0.0
C1643 C 0.83118 0.66309 0.61348 0.0
C1644 C 0.81446 0.63337 0.60102 0.0
C1645 C 0.81249 0.63159 0.62366 0.0
C1646 C 0.80752 0.62237 0.61196 0.0
C1647 C 0.82923 0.69457 0.66564 0.0
C1648 C 0.8307 0.66177 0.6368 0.0
C1649 C 0.77862 0.57359 0.65442 0.0
C1650 C 0.76368 0.57845 0.65617 0.0
C1651 C 0.80738 0.6572 0.6837 0.0
C1652 C 0.85042 0.68435 0.72421 0.0
C1653 C 0.84321 0.67367 0.73537 0.0
C1654 C 0.84914 0.68315 0.74712 0.0
C1655 C 0.86252 0.70343 0.74747 0.0
C1656 C 0.86381 0.70452 0.72483 0.0
C1657 C 0.86981 0.71398 0.73641 0.0
C1658 C 0.84542 0.64139 0.68312 0.0
C1659 C 0.84351 0.67433 0.71202 0.0
H1660 H 0.84054 0.67884 0.61412 0.0
H1661 H 0.81037 0.62588 0.59206 0.0
H1662 H 0.80709 0.62281 0.632 0.0
H1663 H 0.79831 0.60662 0.61136 0.0
H1664 H 0.83275 0.65809 0.73489 0.0
H1665 H 0.86756 0.71113 0.75634 0.0
H1666 H 0.86959 0.71294 0.71639 0.0
H1667 H 0.88017 0.72956 0.73681 0.0
Tb1668 Tb 0.35261 0.17263 0.66082 0.0
C1669 C 0.27255 0.14119 0.68756 0.0
C1670 C 0.26383 0.16656 0.68636 0.0
C1671 C 0.23769 0.1325 0.68761 0.0
C1672 C 0.27827 0.16066 0.68642 0.0
C1673 C 0.25223 0.12686 0.68836 0.0
C1674 C 0.24349 0.15235 0.6867 0.0
C1675 C 0.26229 0.10284 0.69199 0.0
N1676 N 0.28707 0.13647 0.68869 0.0
C1677 C 0.28226 0.11767 0.6914 0.0
C1678 C 0.24719 0.10742 0.69034 0.0
Tb1679 Tb 0.31936 0.16165 0.68724 0.0
N1680 N 0.29805 0.17391 0.68631 0.0
C1681 C 0.30438 0.19348 0.68672 0.0
C1682 C 0.27028 0.18657 0.68642 0.0
C1683 C 0.29065 0.20007 0.68664 0.0
H1684 H 0.29382 0.11398 0.69268 0.0
H1685 H 0.2958 0.21558 0.68679 0.0
H1686 H 0.23216 0.15657 0.68655 0.0
H1687 H 0.25857 0.08791 0.69377 0.0
H1688 H 0.32003 0.20422 0.68694 0.0
H1689 H 0.37756 0.11975 0.66331 0.0
H1690 H 0.25969 0.19173 0.68652 0.0
H1691 H 0.37749 0.21984 0.65392 0.0
H1692 H 0.35285 0.13048 0.66174 0.0
H1693 H 0.41255 0.24616 0.65236 0.0
H1694 H 0.22198 0.12172 0.68813 0.0
H1695 H 0.41354 0.14414 0.6642 0.0
H1696 H 0.4406 0.17944 0.66342 0.0
H1697 H 0.23174 0.09595 0.69095 0.0
H1698 H 0.45018 0.21397 0.66042 0.0
N1699 N 0.3744 0.16091 0.66207 0.0
C1700 C 0.36843 0.14141 0.66208 0.0
C1701 C 0.40273 0.149 0.66355 0.0
C1702 C 0.40882 0.16889 0.66286 0.0
C1703 C 0.38244 0.1352 0.663 0.0
C1704 C 0.39412 0.17439 0.66201 0.0
H1705 H 0.4398 0.23897 0.65607 0.0
N1706 N 0.38473 0.19797 0.65882 0.0
C1707 C 0.40909 0.23146 0.65466 0.0
C1708 C 0.39949 0.19366 0.66033 0.0
C1709 C 0.38922 0.21647 0.65552 0.0
C1710 C 0.42443 0.22736 0.6568 0.0
C1711 C 0.41973 0.2082 0.65947 0.0
O1712 O 0.35104 0.18269 0.64287 0.0
O1713 O 0.32613 0.1713 0.66824 0.0
O1714 O 0.30277 0.14099 0.67223 0.0
O1715 O 0.32902 0.14143 0.66132 0.0
O1716 O 0.34249 0.19356 0.6564 0.0
O1717 O 0.34743 0.15403 0.64537 0.0
O1718 O 0.3195 0.1505 0.70507 0.0
O1719 O 0.34592 0.1631 0.67991 0.0
O1720 O 0.36935 0.19402 0.67544 0.0
O1721 O 0.34323 0.19276 0.68707 0.0
O1722 O 0.3293 0.14064 0.69163 0.0
O1723 O 0.32513 0.17998 0.7029 0.0
C1724 C 0.3265 0.18568 0.66296 0.0
C1725 C 0.3613 0.1701 0.62632 0.0
C1726 C 0.36452 0.17064 0.60359 0.0
C1727 C 0.35279 0.16722 0.61434 0.0
C1728 C 0.38493 0.177 0.60501 0.0
C1729 C 0.38163 0.17627 0.62757 0.0
C1730 C 0.39337 0.17972 0.61695 0.0
C1731 C 0.30984 0.13308 0.66428 0.0
C1732 C 0.34875 0.16699 0.63733 0.0
C1733 C 0.43452 0.203 0.66093 0.0
C1734 C 0.42907 0.18335 0.66263 0.0
C1735 C 0.34548 0.14872 0.68527 0.0
C1736 C 0.31023 0.16384 0.72173 0.0
C1737 C 0.31882 0.16725 0.73371 0.0
C1738 C 0.30729 0.16475 0.74444 0.0
C1739 C 0.28696 0.15877 0.74296 0.0
C1740 C 0.28998 0.15793 0.72045 0.0
C1741 C 0.27841 0.15541 0.73102 0.0
C1742 C 0.36231 0.20147 0.68378 0.0
C1743 C 0.32271 0.16642 0.71078 0.0
H1744 H 0.33709 0.16261 0.6134 0.0
H1745 H 0.39428 0.17959 0.5969 0.0
H1746 H 0.38843 0.17844 0.63669 0.0
H1747 H 0.40907 0.1845 0.61797 0.0
H1748 H 0.33457 0.17208 0.73464 0.0
H1749 H 0.27761 0.15646 0.75103 0.0
H1750 H 0.28309 0.15526 0.71133 0.0
H1751 H 0.26275 0.15078 0.72997 0.0
Tb1752 Tb 0.846 0.16249 0.68752 0.0
C1753 C 0.80193 0.19506 0.65726 0.0
C1754 C 0.76717 0.17011 0.65818 0.0
C1755 C 0.77633 0.20425 0.65619 0.0
C1756 C 0.78755 0.17572 0.65849 0.0
C1757 C 0.79656 0.20956 0.65583 0.0
C1758 C 0.76164 0.18453 0.65735 0.0
C1759 C 0.83136 0.23305 0.65259 0.0
N1760 N 0.82122 0.19947 0.65674 0.0
C1761 C 0.8359 0.21808 0.65394 0.0
C1762 C 0.81163 0.22883 0.65369 0.0
Tb1763 Tb 0.82734 0.17416 0.65956 0.0
N1764 N 0.79355 0.16229 0.65913 0.0
C1765 C 0.77973 0.14277 0.65867 0.0
C1766 C 0.75301 0.15018 0.65827 0.0
C1767 C 0.75933 0.13646 0.65839 0.0
H1768 H 0.8512 0.22153 0.65313 0.0
H1769 H 0.7485 0.12099 0.65828 0.0
H1770 H 0.74607 0.18054 0.65726 0.0
H1771 H 0.84309 0.24784 0.6507 0.0
H1772 H 0.78423 0.13188 0.65879 0.0
H1773 H 0.92469 0.21602 0.68937 0.0
H1774 H 0.7372 0.14523 0.65793 0.0
H1775 H 0.82227 0.11503 0.69366 0.0
H1776 H 0.88897 0.20491 0.68834 0.0
H1777 H 0.83056 0.08886 0.69621 0.0
H1778 H 0.77188 0.21519 0.65523 0.0
H1779 H 0.93621 0.19197 0.69014 0.0
H1780 H 0.92758 0.15674 0.69086 0.0
H1781 H 0.80814 0.24043 0.65256 0.0
H1782 H 0.9019 0.122 0.69257 0.0
N1783 N 0.87982 0.17454 0.68811 0.0
C1784 C 0.89354 0.19408 0.68861 0.0
C1785 C 0.92039 0.18692 0.68955 0.0
C1786 C 0.90634 0.16695 0.68951 0.0
C1787 C 0.91395 0.20053 0.68919 0.0
C1788 C 0.88594 0.16121 0.6889 0.0
H1789 H 0.86563 0.09654 0.69475 0.0
N1790 N 0.85228 0.13727 0.69033 0.0
C1791 C 0.84226 0.1037 0.69443 0.0
C1792 C 0.87162 0.14182 0.69 0.0
C1793 C 0.83763 0.11859 0.69301 0.0
C1794 C 0.86206 0.10807 0.69355 0.0
C1795 C 0.87709 0.1274 0.69155 0.0
O1796 O 0.83215 0.15158 0.70488 0.0
O1797 O 0.82192 0.16425 0.67863 0.0
O1798 O 0.8307 0.19517 0.67401 0.0
O1799 O 0.85423 0.19364 0.68693 0.0
O1800 O 0.81419 0.14134 0.69023 0.0
O1801 O 0.85736 0.18067 0.70341 0.0
O1802 O 0.84135 0.18484 0.64222 0.0
O1803 O 0.85137 0.17236 0.66847 0.0
O1804 O 0.84271 0.14156 0.67302 0.0
O1805 O 0.81909 0.14301 0.66014 0.0
O1806 O 0.85923 0.19516 0.65677 0.0
O1807 O 0.81552 0.15612 0.64363 0.0
C1808 C 0.80705 0.14962 0.68328 0.0
C1809 C 0.85293 0.16436 0.72264 0.0
C1810 C 0.85386 0.16468 0.74553 0.0
C1811 C 0.84632 0.16752 0.73419 0.0
C1812 C 0.86806 0.15852 0.74508 0.0
C1813 C 0.86717 0.15836 0.72242 0.0
C1814 C 0.87465 0.15542 0.7336 0.0
C1815 C 0.84449 0.20247 0.68291 0.0
C1816 C 0.84472 0.16732 0.71095 0.0
C1817 C 0.89736 0.13287 0.69149 0.0
C1818 C 0.91198 0.15264 0.69051 0.0
C1819 C 0.8663 0.18687 0.66379 0.0
C1820 C 0.82057 0.17272 0.62444 0.0
C1821 C 0.82767 0.17019 0.6129 0.0
C1822 C 0.82085 0.17392 0.60157 0.0
C1823 C 0.80675 0.18019 0.60199 0.0
C1824 C 0.80642 0.17885 0.62464 0.0
C1825 C 0.79957 0.18257 0.61346 0.0
C1826 C 0.82886 0.1342 0.66414 0.0
C1827 C 0.82843 0.1693 0.63612 0.0
H1828 H 0.83552 0.17243 0.7343 0.0
H1829 H 0.87393 0.15586 0.7536 0.0
H1830 H 0.87249 0.15593 0.71366 0.0
H1831 H 0.88557 0.15068 0.73336 0.0
H1832 H 0.83874 0.1656 0.61276 0.0
H1833 H 0.80104 0.18297 0.59344 0.0
H1834 H 0.80069 0.18078 0.6334 0.0
H1835 H 0.78864 0.18729 0.61369 0.0
H1836 H 0.29845 0.85854 0.05253 0.0
H1837 H 0.32805 0.8809 0.04057 0.0
H1838 H 0.36546 0.88585 0.07202 0.0
H1839 H 0.33588 0.86385 0.08409 0.0
H1840 H 0.37545 0.92062 0.06318 0.0
H1841 H 0.36951 0.87293 0.02329 0.0
H1842 H 0.34751 0.87481 0.02518 0.0
H1843 H 0.35461 0.86355 0.03722 0.0
C1844 C 0.31302 0.86422 0.05682 0.0
C1845 C 0.31486 0.85948 0.06925 0.0
C1846 C 0.32994 0.87691 0.04995 0.0
C1847 C 0.34905 0.88481 0.0553 0.0
C1848 C 0.35089 0.8799 0.06767 0.0
H1849 H 0.46475 0.9533 0.01966 0.0
H1850 H 0.43361 0.92648 0.02796 0.0
C1851 C 0.33398 0.8674 0.07458 0.0
C1852 C 0.36703 0.89927 0.04838 0.0
H1853 H 0.39297 0.90705 0.02111 0.0
C1854 C 0.3793 0.91756 0.05401 0.0
C1855 C 0.37223 0.89525 0.03647 0.0
C1856 C 0.36039 0.8755 0.03023 0.0
C1857 C 0.39642 0.93202 0.04804 0.0
C1858 C 0.40113 0.92834 0.0359 0.0
C1859 C 0.38913 0.90994 0.03032 0.0
C1860 C 0.41871 0.94345 0.02906 0.0
C1861 C 0.4095 0.951 0.05492 0.0
C1862 C 0.42033 0.96158 0.02643 0.0
C1863 C 0.43809 0.97688 0.02176 0.0
C1864 C 0.45432 0.97416 0.01929 0.0
C1865 C 0.45233 0.95568 0.02124 0.0
C1866 C 0.43458 0.94038 0.02603 0.0
H1867 H 0.40693 0.94943 0.06519 0.0
H1868 H 0.42553 0.95633 0.05316 0.0
H1869 H 0.40601 0.96226 0.0516 0.0
H1870 H 0.40813 0.96414 0.02847 0.0
H1871 H 0.43935 0.99105 0.02038 0.0
H1872 H 0.13214 0.43469 0.06988 0.0
H1873 H 0.10597 0.43943 0.06056 0.0
H1874 H 0.15033 0.49705 0.04851 0.0
H1875 H 0.1766 0.4922 0.05759 0.0
H1876 H 0.09467 0.46541 0.06584 0.0
H1877 H 0.11976 0.47568 0.01649 0.0
H1878 H 0.13006 0.46698 0.02833 0.0
H1879 H 0.13855 0.49269 0.02704 0.0
C1880 C 0.13632 0.44836 0.06523 0.0
C1881 C 0.15647 0.46303 0.06442 0.0
C1882 C 0.12135 0.45104 0.05987 0.0
C1883 C 0.12614 0.46846 0.0536 0.0
C1884 C 0.14624 0.48324 0.05294 0.0
H1885 H 0.05176 0.51283 0.02276 0.0
H1886 H 0.07961 0.5094 0.03064 0.0
C1887 C 0.16126 0.48049 0.05819 0.0
C1888 C 0.11002 0.47134 0.0482 0.0
H1889 H 0.09387 0.48252 0.02128 0.0
C1890 C 0.09446 0.46902 0.05607 0.0
C1891 C 0.10971 0.47613 0.03545 0.0
C1892 C 0.1253 0.47783 0.0263 0.0
C1893 C 0.07876 0.47144 0.05158 0.0
C1894 C 0.0785 0.47623 0.03887 0.0
C1895 C 0.09411 0.47881 0.03101 0.0
C1896 C 0.06186 0.4782 0.03355 0.0
C1897 C 0.06264 0.46909 0.0605 0.0
C1898 C 0.04272 0.46178 0.03242 0.0
C1899 C 0.02687 0.46367 0.02775 0.0
C1900 C 0.02993 0.48197 0.02395 0.0
C1901 C 0.04907 0.49844 0.02519 0.0
C1902 C 0.06497 0.49653 0.02979 0.0
H1903 H 0.06707 0.46936 0.07044 0.0
H1904 H 0.05893 0.48083 0.05908 0.0
H1905 H 0.04895 0.45486 0.05865 0.0
H1906 H 0.04003 0.44749 0.03522 0.0
H1907 H 0.01219 0.45081 0.02709 0.0
H1908 H 0.5824 0.70385 0.0695 0.0
H1909 H 0.57455 0.67232 0.06032 0.0
H1910 H 0.5208 0.66653 0.04405 0.0
H1911 H 0.52837 0.69788 0.05329 0.0
H1912 H 0.53972 0.63557 0.0643 0.0
H1913 H 0.54876 0.65709 0.01425 0.0
H1914 H 0.55854 0.67477 0.02687 0.0
H1915 H 0.53248 0.66284 0.02292 0.0
C1916 C 0.56887 0.69583 0.064 0.0
C1917 C 0.55605 0.7034 0.06208 0.0
C1918 C 0.56447 0.67789 0.05873 0.0
C1919 C 0.54726 0.66728 0.05138 0.0
C1920 C 0.53439 0.67472 0.04947 0.0
H1921 H 0.49053 0.55513 0.01358 0.0
H1922 H 0.49958 0.58711 0.02241 0.0
C1923 C 0.53875 0.69264 0.05475 0.0
C1924 C 0.54239 0.64809 0.04605 0.0
H1925 H 0.5346 0.62324 0.01847 0.0
C1926 C 0.53871 0.63287 0.05429 0.0
C1927 C 0.54104 0.64467 0.03298 0.0
C1928 C 0.54557 0.66073 0.02371 0.0
C1929 C 0.5333 0.61413 0.0498 0.0
C1930 C 0.5319 0.6107 0.03673 0.0
C1931 C 0.53565 0.62595 0.02849 0.0
C1932 C 0.52655 0.59137 0.03141 0.0
C1933 C 0.52865 0.59806 0.05909 0.0
C1934 C 0.53885 0.58331 0.03345 0.0
C1935 C 0.53378 0.56507 0.02837 0.0
C1936 C 0.5164 0.55467 0.02107 0.0
C1937 C 0.50415 0.56285 0.01902 0.0
C1938 C 0.50924 0.58109 0.02409 0.0
H1939 H 0.52551 0.60176 0.06855 0.0
H1940 H 0.51561 0.58406 0.05594 0.0
H1941 H 0.54167 0.59584 0.05989 0.0
H1942 H 0.55246 0.5912 0.03888 0.0
H1943 H 0.54359 0.55924 0.03011 0.0
H1944 H 0.85558 0.31689 0.93181 0.0
H1945 H 0.88122 0.34775 0.94092 0.0
H1946 H 0.86955 0.3212 0.97742 0.0
H1947 H 0.84475 0.28999 0.9683 0.0
H1948 H 0.87798 0.37063 0.95791 0.0
H1949 H 0.92917 0.34657 0.97622 0.0
H1950 H 0.90895 0.33176 0.9656 0.0
H1951 H 0.90433 0.33209 0.98209 0.0
C1952 C 0.85873 0.31746 0.94174 0.0
C1953 C 0.84813 0.30084 0.94929 0.0
C1954 C 0.87329 0.33519 0.94695 0.0
C1955 C 0.87757 0.33674 0.95982 0.0
C1956 C 0.86688 0.32027 0.96742 0.0
H1957 H 0.93584 0.44585 1.00177 0.0
H1958 H 0.9122 0.41444 0.99241 0.0
C1959 C 0.85244 0.30248 0.9622 0.0
C1960 C 0.89268 0.35576 0.96535 0.0
H1961 H 0.9348 0.37758 0.98346 0.0
C1962 C 0.89048 0.37217 0.96343 0.0
C1963 C 0.90916 0.35786 0.9724 0.0
C1964 C 0.91319 0.34118 0.9741 0.0
C1965 C 0.90408 0.39052 0.96853 0.0
C1966 C 0.92002 0.39239 0.97609 0.0
C1967 C 0.92244 0.37608 0.97781 0.0
C1968 C 0.93447 0.41119 0.98217 0.0
C1969 C 0.90144 0.40776 0.96555 0.0
C1970 C 0.95498 0.4195 0.97995 0.0
C1971 C 0.96865 0.43726 0.98558 0.0
C1972 C 0.96207 0.44709 0.99355 0.0
C1973 C 0.94151 0.43863 0.99583 0.0
C1974 C 0.92789 0.42076 0.99031 0.0
H1975 H 0.89264 0.40527 0.95681 0.0
H1976 H 0.89322 0.40997 0.97329 0.0
H1977 H 0.91604 0.42136 0.96449 0.0
H1978 H 0.96041 0.41233 0.97374 0.0
H1979 H 0.98434 0.44331 0.98359 0.0
H1980 H 0.70848 0.55141 0.96864 0.0
H1981 H 0.6776 0.54638 0.97818 0.0
H1982 H 0.64535 0.51853 0.94424 0.0
H1983 H 0.67631 0.52395 0.93455 0.0
H1984 H 0.63501 0.54359 0.95241 0.0
H1985 H 0.63196 0.498 0.9925 0.0
H1986 H 0.65479 0.52098 0.99221 0.0
H1987 H 0.64911 0.50355 0.97972 0.0
C1988 C 0.69476 0.54402 0.96325 0.0
C1989 C 0.69484 0.53801 0.95084 0.0
C1990 C 0.67707 0.54105 0.96875 0.0
C1991 C 0.65898 0.53168 0.96206 0.0
C1992 C 0.65906 0.52571 0.94964 0.0
H1993 H 0.54 0.48939 0.9929 0.0
H1994 H 0.57107 0.49233 0.98504 0.0
C1995 C 0.67678 0.52887 0.94409 0.0
C1996 C 0.64018 0.52898 0.96772 0.0
H1997 H 0.60976 0.5108 0.99323 0.0
C1998 C 0.62947 0.53631 0.9613 0.0
C1999 C 0.63269 0.51923 0.97926 0.0
C2000 C 0.64262 0.50981 0.98626 0.0
C2001 C 0.61177 0.53449 0.96614 0.0
C2002 C 0.60481 0.52559 0.97795 0.0
C2003 C 0.61526 0.51789 0.98428 0.0
C2004 C 0.58654 0.5239 0.98374 0.0
C2005 C 0.6005 0.54179 0.9584 0.0
C2006 C 0.58505 0.54066 0.98598 0.0
C2007 C 0.5673 0.53898 0.99044 0.0
C2008 C 0.55089 0.52056 0.99311 0.0
C2009 C 0.55254 0.5038 0.99123 0.0
C2010 C 0.57028 0.50548 0.98667 0.0
H2011 H 0.60442 0.54278 0.94832 0.0
H2012 H 0.58414 0.53208 0.95932 0.0
H2013 H 0.60442 0.55665 0.96167 0.0
H2014 H 0.59752 0.55506 0.98407 0.0
H2015 H 0.56633 0.55209 0.99173 0.0
H2016 H 0.43599 0.14729 0.96118 0.0
H2017 H 0.44677 0.12759 0.9728 0.0
H2018 H 0.46555 0.11313 0.93837 0.0
H2019 H 0.45575 0.13359 0.92673 0.0
H2020 H 0.43424 0.08923 0.97127 0.0
H2021 H 0.51469 0.13169 0.96008 0.0
H2022 H 0.49783 0.14074 0.95699 0.0
H2023 H 0.49921 0.12375 0.94633 0.0
C2024 C 0.44269 0.14016 0.95608 0.0
C2025 C 0.44518 0.14218 0.94302 0.0
C2026 C 0.44872 0.1288 0.96274 0.0
C2027 C 0.45733 0.11922 0.95649 0.0
C2028 C 0.4594 0.12079 0.94342 0.0
H2029 H 0.46546 0.02028 0.98126 0.0
H2030 H 0.45669 0.0431 0.97202 0.0
C2031 C 0.4535 0.13226 0.93676 0.0
C2032 C 0.46359 0.1071 0.9636 0.0
H2033 H 0.50304 0.1001 0.96902 0.0
C2034 C 0.44932 0.0917 0.97086 0.0
C2035 C 0.48337 0.11059 0.96326 0.0
C2036 C 0.49971 0.12772 0.95635 0.0
C2037 C 0.45413 0.07929 0.97746 0.0
C2038 C 0.4736 0.08206 0.97651 0.0
C2039 C 0.48805 0.09786 0.96961 0.0
C2040 C 0.47906 0.06833 0.98224 0.0
C2041 C 0.43833 0.0634 0.98544 0.0
C2042 C 0.49505 0.07506 0.99074 0.0
C2043 C 0.50035 0.06206 0.99593 0.0
C2044 C 0.4897 0.04208 0.99273 0.0
C2045 C 0.47388 0.03549 0.98407 0.0
C2046 C 0.4687 0.0485 0.97883 0.0
H2047 H 0.4268 0.06706 0.98833 0.0
H2048 H 0.43077 0.04958 0.97994 0.0
H2049 H 0.44492 0.06084 0.99398 0.0
H2050 H 0.5034 0.09038 0.99336 0.0
H2051 H 0.51288 0.06771 1.00235 0.0
H2052 H 0.66958 0.14035 0.92917 0.0
H2053 H 0.64004 0.11816 0.94122 0.0
H2054 H 0.67753 0.12336 0.97269 0.0
H2055 H 0.70706 0.14592 0.96076 0.0
H2056 H 0.63029 0.08348 0.95 0.0
H2057 H 0.63581 0.13076 0.99002 0.0
H2058 H 0.65072 0.14031 0.97611 0.0
H2059 H 0.65795 0.12913 0.98814 0.0
C2060 C 0.67149 0.13683 0.93868 0.0
C2061 C 0.69062 0.14488 0.94403 0.0
C2062 C 0.65461 0.12422 0.94558 0.0
C2063 C 0.65649 0.11931 0.95795 0.0
C2064 C 0.6756 0.12735 0.96331 0.0
H2065 H 0.56723 0.0125 0.99285 0.0
H2066 H 0.59815 0.03958 0.98457 0.0
C2067 C 0.69249 0.14015 0.95646 0.0
C2068 C 0.63857 0.10472 0.96486 0.0
H2069 H 0.61275 0.09652 0.99221 0.0
C2070 C 0.62642 0.08642 0.9592 0.0
C2071 C 0.63335 0.10859 0.97681 0.0
C2072 C 0.64503 0.12833 0.98307 0.0
C2073 C 0.60942 0.07181 0.96518 0.0
C2074 C 0.60472 0.07534 0.97736 0.0
C2075 C 0.61659 0.09375 0.98296 0.0
C2076 C 0.5873 0.06007 0.98424 0.0
C2077 C 0.59646 0.05283 0.95827 0.0
C2078 C 0.57139 0.06296 0.98746 0.0
C2079 C 0.55381 0.04756 0.99236 0.0
C2080 C 0.55204 0.02915 0.99421 0.0
C2081 C 0.56832 0.0266 0.99154 0.0
C2082 C 0.5859 0.042 0.98676 0.0
H2083 H 0.59891 0.0545 0.948 0.0
H2084 H 0.60019 0.04169 0.96149 0.0
H2085 H 0.58041 0.04729 0.96012 0.0
H2086 H 0.57219 0.07682 0.98563 0.0
H2087 H 0.54136 0.04982 0.99411 0.0
H2088 H 0.84683 0.5462 0.96257 0.0
H2089 H 0.86965 0.53873 0.97372 0.0
H2090 H 0.8942 0.53385 0.9386 0.0
H2091 H 0.87008 0.53917 0.92733 0.0
H2092 H 0.89178 0.50726 0.95279 0.0
H2093 H 0.92607 0.57503 0.9814 0.0
H2094 H 0.8999 0.56018 0.98428 0.0
H2095 H 0.90846 0.57081 0.96905 0.0
C2096 C 0.85678 0.54319 0.95714 0.0
C2097 C 0.85656 0.54357 0.94393 0.0
C2098 C 0.87019 0.5393 0.9636 0.0
C2099 C 0.88419 0.53631 0.95708 0.0
C2100 C 0.88377 0.53632 0.94393 0.0
H2101 H 0.99501 0.55128 0.98655 0.0
H2102 H 0.9676 0.55438 0.97764 0.0
C2103 C 0.87005 0.53969 0.93746 0.0
C2104 C 0.89917 0.53294 0.9638 0.0
H2105 H 0.9356 0.55161 0.98633 0.0
C2106 C 0.90141 0.51704 0.96009 0.0
C2107 C 0.91196 0.54575 0.97328 0.0
C2108 C 0.91164 0.564 0.97715 0.0
C2109 C 0.9162 0.51381 0.96533 0.0
C2110 C 0.92858 0.52628 0.97506 0.0
C2111 C 0.92608 0.54194 0.97896 0.0
C2112 C 0.94504 0.52418 0.98078 0.0
C2113 C 0.91889 0.49759 0.95992 0.0
C2114 C 0.94165 0.50624 0.98562 0.0
C2115 C 0.95748 0.50436 0.99041 0.0
C2116 C 0.97683 0.52062 0.99104 0.0
C2117 C 0.98017 0.53859 0.98638 0.0
C2118 C 0.96447 0.54037 0.98133 0.0
H2119 H 0.91266 0.49358 0.95028 0.0
H2120 H 0.93487 0.5018 0.95962 0.0
H2121 H 0.91084 0.48437 0.96582 0.0
H2122 H 0.92679 0.49362 0.98567 0.0
H2123 H 0.95451 0.49018 0.99357 0.0
H2124 H 0.47843 0.30526 0.95851 0.0
H2125 H 0.4859 0.33652 0.96787 0.0
H2126 H 0.43094 0.32957 0.95284 0.0
H2127 H 0.42297 0.29794 0.94385 0.0
H2128 H 0.49055 0.36951 0.95569 0.0
H2129 H 0.42831 0.34205 0.9897 0.0
H2130 H 0.43548 0.32616 0.98194 0.0
H2131 H 0.42061 0.33433 0.97382 0.0
C2132 C 0.46777 0.31023 0.95737 0.0
C2133 C 0.45004 0.29906 0.9505 0.0
C2134 C 0.47213 0.32815 0.96264 0.0
C2135 C 0.45884 0.3352 0.96119 0.0
C2136 C 0.44122 0.3242 0.95426 0.0
H2137 H 0.46188 0.44239 0.98327 0.0
H2138 H 0.45356 0.41071 0.9742 0.0
C2139 C 0.43681 0.30625 0.949 0.0
C2140 C 0.46376 0.35437 0.96661 0.0
H2141 H 0.44753 0.37646 0.98722 0.0
C2142 C 0.4812 0.37104 0.96262 0.0
C2143 C 0.45149 0.35627 0.97563 0.0
C2144 C 0.43302 0.33874 0.98063 0.0
C2145 C 0.48659 0.38966 0.96731 0.0
C2146 C 0.47432 0.39155 0.97633 0.0
C2147 C 0.45685 0.3749 0.98029 0.0
C2148 C 0.47946 0.4107 0.98183 0.0
C2149 C 0.50516 0.4072 0.96243 0.0
C2150 C 0.49668 0.42103 0.9892 0.0
C2151 C 0.50151 0.43913 0.99438 0.0
C2152 C 0.48908 0.44713 0.99236 0.0
C2153 C 0.47177 0.43666 0.98501 0.0
C2154 C 0.46696 0.41855 0.97984 0.0
H2155 H 0.51024 0.40387 0.95351 0.0
H2156 H 0.50259 0.41967 0.96089 0.0
H2157 H 0.51734 0.41181 0.96943 0.0
H2158 H 0.50637 0.41506 0.99097 0.0
H2159 H 0.51506 0.44688 0.99988 0.0
H2160 H 0.13363 0.70347 0.07216 0.0
H2161 H 0.10865 0.67185 0.06335 0.0
H2162 H 0.15541 0.66445 0.04715 0.0
H2163 H 0.18047 0.69574 0.05618 0.0
H2164 H 0.10227 0.66002 0.03788 0.0
H2165 H 0.12183 0.61331 0.06641 0.0
H2166 H 0.13006 0.63846 0.07045 0.0
H2167 H 0.14252 0.63279 0.05837 0.0
C2168 C 0.1386 0.695 0.06685 0.0
C2169 C 0.15905 0.70209 0.06491 0.0
C2170 C 0.12431 0.67701 0.06176 0.0
C2171 C 0.1302 0.66571 0.05475 0.0
C2172 C 0.15057 0.6728 0.05271 0.0
H2173 H 0.07074 0.55498 0.01538 0.0
H2174 H 0.09448 0.5867 0.02442 0.0
C2175 C 0.16486 0.69079 0.05776 0.0
C2176 C 0.11505 0.64667 0.04934 0.0
H2177 H 0.09929 0.59784 0.04949 0.0
C2178 C 0.10151 0.64639 0.04046 0.0
C2179 C 0.11414 0.62895 0.05273 0.0
C2180 C 0.12778 0.62827 0.06259 0.0
C2181 C 0.08736 0.62888 0.03464 0.0
C2182 C 0.08654 0.61117 0.03797 0.0
C2183 C 0.09999 0.61145 0.04693 0.0
C2184 C 0.07196 0.59217 0.03221 0.0
C2185 C 0.0738 0.62957 0.02472 0.0
C2186 C 0.05139 0.58463 0.03367 0.0
C2187 C 0.03773 0.56654 0.0284 0.0
C2188 C 0.0444 0.55561 0.02163 0.0
C2189 C 0.06504 0.56314 0.02032 0.0
C2190 C 0.07867 0.58123 0.02556 0.0
H2191 H 0.07964 0.64458 0.02102 0.0
H2192 H 0.0718 0.6196 0.0168 0.0
H2193 H 0.05894 0.6248 0.02886 0.0
H2194 H 0.04589 0.59264 0.03901 0.0
H2195 H 0.02195 0.56114 0.02969 0.0
H2196 H 0.29913 0.44927 0.05304 0.0
H2197 H 0.32875 0.45475 0.04147 0.0
H2198 H 0.36516 0.48161 0.07423 0.0
H2199 H 0.33564 0.47608 0.08586 0.0
H2200 H 0.36429 0.48797 0.03573 0.0
H2201 H 0.37811 0.43899 0.06597 0.0
H2202 H 0.35524 0.43977 0.06657 0.0
H2203 H 0.37726 0.45821 0.07446 0.0
C2204 C 0.31347 0.4565 0.05775 0.0
C2205 C 0.31496 0.46204 0.07043 0.0
C2206 C 0.33039 0.45958 0.05113 0.0
C2207 C 0.34915 0.46825 0.05704 0.0
C2208 C 0.35079 0.47443 0.06955 0.0
H2209 H 0.46523 0.51229 0.02105 0.0
H2210 H 0.4346 0.50923 0.0297 0.0
C2211 C 0.33388 0.47126 0.0762 0.0
C2212 C 0.36691 0.47048 0.05021 0.0
H2213 H 0.40323 0.45801 0.0513 0.0
C2214 C 0.37278 0.48137 0.03909 0.0
C2215 C 0.37785 0.46165 0.0545 0.0
C2216 C 0.37172 0.44884 0.06596 0.0
C2217 C 0.38941 0.48385 0.03225 0.0
C2218 C 0.40071 0.47548 0.03674 0.0
C2219 C 0.39469 0.46449 0.04782 0.0
C2220 C 0.41866 0.47756 0.03015 0.0
C2221 C 0.39436 0.49504 0.02014 0.0
C2222 C 0.42017 0.46087 0.02757 0.0
C2223 C 0.43782 0.46265 0.02283 0.0
C2224 C 0.45423 0.48112 0.0203 0.0
C2225 C 0.45263 0.49784 0.02253 0.0
C2226 C 0.43505 0.49608 0.02747 0.0
H2227 H 0.38116 0.49515 0.01613 0.0
H2228 H 0.40607 0.51043 0.0219 0.0
H2229 H 0.40001 0.48866 0.01313 0.0
H2230 H 0.40784 0.44642 0.02956 0.0
H2231 H 0.43879 0.44957 0.02135 0.0
H2232 H 0.58365 0.8862 0.0769 0.0
H2233 H 0.57366 0.90695 0.06569 0.0
H2234 H 0.52164 0.85566 0.0513 0.0
H2235 H 0.53108 0.83482 0.06282 0.0
H2236 H 0.56773 0.90826 0.03994 0.0
H2237 H 0.49832 0.88748 0.0664 0.0
H2238 H 0.51703 0.88197 0.07189 0.0
H2239 H 0.49973 0.86725 0.05981 0.0
C2240 C 0.56994 0.87934 0.07149 0.0
C2241 C 0.55812 0.85886 0.07079 0.0
C2242 C 0.56434 0.8912 0.06502 0.0
C2243 C 0.54679 0.88282 0.05781 0.0
C2244 C 0.53506 0.86241 0.05699 0.0
H2245 H 0.49112 0.93516 0.01315 0.0
H2246 H 0.49983 0.91211 0.02247 0.0
C2247 C 0.54062 0.85054 0.06346 0.0
C2248 C 0.54096 0.89547 0.05098 0.0
H2249 H 0.50456 0.90771 0.04872 0.0
C2250 C 0.55393 0.90817 0.04186 0.0
C2251 C 0.52289 0.89521 0.05348 0.0
C2252 C 0.50874 0.88238 0.0635 0.0
C2253 C 0.54931 0.92063 0.03515 0.0
C2254 C 0.53138 0.92054 0.03777 0.0
C2255 C 0.51826 0.90765 0.04673 0.0
C2256 C 0.52646 0.93443 0.03175 0.0
C2257 C 0.56357 0.93372 0.02526 0.0
C2258 C 0.53846 0.95454 0.034 0.0
C2259 C 0.53357 0.96772 0.02869 0.0
C2260 C 0.51655 0.96103 0.02104 0.0
C2261 C 0.50448 0.94082 0.01884 0.0
C2262 C 0.50938 0.92762 0.0242 0.0
H2263 H 0.57376 0.92846 0.02213 0.0
H2264 H 0.55537 0.93467 0.017 0.0
H2265 H 0.57282 0.94866 0.02919 0.0
H2266 H 0.55149 0.96002 0.04 0.0
H2267 H 0.54315 0.98315 0.03064 0.0
H2268 H 0.98667 0.17108 0.39535 0.0
H2269 H 0.01601 0.19264 0.38285 0.0
H2270 H 0.00888 0.24178 0.39268 0.0
H2271 H 0.97942 0.22032 0.40509 0.0
H2272 H 0.01585 0.23667 0.36549 0.0
H2273 H 0.07084 0.23559 0.39878 0.0
H2274 H 0.04971 0.21249 0.39428 0.0
H2275 H 0.04601 0.22939 0.40354 0.0
C2276 C 0.99127 0.18645 0.39478 0.0
C2277 C 0.98077 0.19402 0.40126 0.0
C2278 C 0.00808 0.19875 0.3877 0.0
C2279 C 0.01465 0.21879 0.38693 0.0
C2280 C 0.00406 0.22635 0.39321 0.0
H2281 H 0.10741 0.32419 0.35515 0.0
H2282 H 0.07588 0.29695 0.36245 0.0
C2283 C 0.98733 0.2141 0.40036 0.0
C2284 C 0.03273 0.23201 0.37973 0.0
H2285 H 0.08351 0.25451 0.38066 0.0
C2286 C 0.03066 0.24051 0.36874 0.0
C2287 C 0.05197 0.2368 0.38395 0.0
C2288 C 0.05494 0.22823 0.39582 0.0
C2289 C 0.0474 0.25391 0.3619 0.0
C2290 C 0.06673 0.25932 0.36638 0.0
C2291 C 0.06872 0.25036 0.3772 0.0
C2292 C 0.0851 0.27529 0.36061 0.0
C2293 C 0.04416 0.26206 0.34993 0.0
C2294 C 0.10097 0.27233 0.35733 0.0
C2295 C 0.11913 0.28801 0.35334 0.0
C2296 C 0.12162 0.30684 0.35241 0.0
C2297 C 0.10568 0.30971 0.35553 0.0
C2298 C 0.08761 0.29411 0.3596 0.0
H2299 H 0.02964 0.25161 0.34551 0.0
H2300 H 0.04387 0.27567 0.35209 0.0
H2301 H 0.05622 0.26554 0.34309 0.0
H2302 H 0.09948 0.258 0.35818 0.0
H2303 H 0.13135 0.28547 0.35141 0.0
H2304 H 0.81871 0.81017 0.41523 0.0
H2305 H 0.79251 0.81491 0.40592 0.0
H2306 H 0.79796 0.79015 0.37112 0.0
H2307 H 0.82411 0.78532 0.38035 0.0
H2308 H 0.79661 0.82407 0.36772 0.0
H2309 H 0.73498 0.77316 0.39854 0.0
H2310 H 0.75642 0.79176 0.40675 0.0
H2311 H 0.75846 0.77356 0.39775 0.0
C2312 C 0.81419 0.80553 0.40563 0.0
C2313 C 0.82352 0.7973 0.39856 0.0
C2314 C 0.79918 0.80824 0.40033 0.0
C2315 C 0.79304 0.80264 0.38787 0.0
C2316 C 0.80242 0.79458 0.38076 0.0
H2317 H 0.68239 0.78441 0.35507 0.0
H2318 H 0.71044 0.78158 0.3632 0.0
C2319 C 0.81745 0.7919 0.38604 0.0
C2320 C 0.77708 0.80543 0.38213 0.0
H2321 H 0.728 0.79233 0.38471 0.0
C2322 C 0.78158 0.8171 0.37141 0.0
C2323 C 0.75744 0.79623 0.38689 0.0
C2324 C 0.75142 0.78283 0.39805 0.0
C2325 C 0.76702 0.81982 0.36531 0.0
C2326 C 0.74738 0.81084 0.37015 0.0
C2327 C 0.74297 0.79922 0.38093 0.0
C2328 C 0.73099 0.81279 0.36411 0.0
C2329 C 0.7728 0.8318 0.35352 0.0
C2330 C 0.73308 0.83124 0.36174 0.0
C2331 C 0.71713 0.83282 0.35681 0.0
C2332 C 0.69868 0.81599 0.3543 0.0
C2333 C 0.69655 0.79759 0.35673 0.0
C2334 C 0.71257 0.79599 0.36144 0.0
H2335 H 0.78603 0.83243 0.34903 0.0
H2336 H 0.76035 0.82565 0.34671 0.0
H2337 H 0.7766 0.84699 0.35583 0.0
H2338 H 0.7468 0.84448 0.36408 0.0
H2339 H 0.71905 0.84722 0.35547 0.0
H2340 H 0.21325 0.01931 0.41546 0.0
H2341 H 0.20649 0.98828 0.40617 0.0
H2342 H 0.22267 0.01532 0.36983 0.0
H2343 H 0.23053 0.04668 0.37914 0.0
H2344 H 0.17941 0.96649 0.38866 0.0
H2345 H 0.2551 0.98828 0.37142 0.0
H2346 H 0.25043 0.00323 0.38214 0.0
H2347 H 0.24589 0.00359 0.36563 0.0
C2348 C 0.21578 0.01879 0.40553 0.0
C2349 C 0.22257 0.03556 0.39807 0.0
C2350 C 0.21173 0.00098 0.40022 0.0
C2351 C 0.21436 0.99955 0.38734 0.0
C2352 C 0.22095 0.01618 0.37984 0.0
H2353 H 0.16012 0.8905 0.34509 0.0
H2354 H 0.16897 0.92226 0.35411 0.0
C2355 C 0.22516 0.03404 0.38515 0.0
C2356 C 0.20949 0.98047 0.38172 0.0
H2357 H 0.22867 0.95759 0.36418 0.0
C2358 C 0.1902 0.96451 0.38336 0.0
C2359 C 0.22367 0.97786 0.37495 0.0
C2360 C 0.24498 0.99409 0.37353 0.0
C2361 C 0.18462 0.94606 0.37827 0.0
C2362 C 0.19857 0.94365 0.37108 0.0
C2363 C 0.21793 0.95954 0.36958 0.0
C2364 C 0.19352 0.92465 0.36525 0.0
C2365 C 0.16399 0.92925 0.38091 0.0
C2366 C 0.2048 0.91575 0.36816 0.0
C2367 C 0.20009 0.8978 0.36277 0.0
C2368 C 0.18397 0.88839 0.35435 0.0
C2369 C 0.17277 0.89742 0.3514 0.0
C2370 C 0.17763 0.91547 0.35669 0.0
H2371 H 0.15744 0.9321 0.38935 0.0
H2372 H 0.15408 0.92723 0.37283 0.0
H2373 H 0.1642 0.91543 0.38231 0.0
H2374 H 0.21717 0.92262 0.37471 0.0
H2375 H 0.20905 0.8913 0.36528 0.0
H2376 H 0.51164 0.62457 0.30066 0.0
H2377 H 0.53623 0.65609 0.3096 0.0
H2378 H 0.54723 0.682 0.27291 0.0
H2379 H 0.52187 0.65086 0.264 0.0
H2380 H 0.57551 0.6788 0.30542 0.0
H2381 H 0.53671 0.71934 0.29277 0.0
H2382 H 0.52486 0.69308 0.29154 0.0
H2383 H 0.54152 0.70835 0.2795 0.0
C2384 C 0.51903 0.63703 0.2945 0.0
C2385 C 0.51458 0.63514 0.28161 0.0
C2386 C 0.53324 0.65502 0.29962 0.0
C2387 C 0.54334 0.67151 0.29197 0.0
C2388 C 0.53931 0.6696 0.27906 0.0
H2389 H 0.65157 0.77877 0.3143 0.0
H2390 H 0.62761 0.74746 0.30477 0.0
C2391 C 0.52498 0.65167 0.27394 0.0
C2392 C 0.5582 0.69064 0.29751 0.0
H2393 H 0.56985 0.73827 0.30051 0.0
C2394 C 0.57426 0.6918 0.30438 0.0
C2395 C 0.55639 0.70754 0.2963 0.0
C2396 C 0.53884 0.70702 0.28974 0.0
C2397 C 0.58863 0.70941 0.30999 0.0
C2398 C 0.58721 0.72646 0.3084 0.0
C2399 C 0.57107 0.72525 0.30161 0.0
C2400 C 0.60188 0.74557 0.31405 0.0
C2401 C 0.60489 0.70942 0.31783 0.0
C2402 C 0.59535 0.75531 0.32208 0.0
C2403 C 0.60894 0.77338 0.32734 0.0
C2404 C 0.62944 0.78206 0.3248 0.0
C2405 C 0.63594 0.77242 0.3166 0.0
C2406 C 0.62227 0.75441 0.31122 0.0
H2407 H 0.60068 0.69446 0.321 0.0
H2408 H 0.61861 0.71496 0.31213 0.0
H2409 H 0.6084 0.71901 0.32619 0.0
H2410 H 0.57968 0.7489 0.3243 0.0
H2411 H 0.6033 0.78056 0.33334 0.0
H2412 H 0.37377 0.87577 0.30277 0.0
H2413 H 0.34283 0.86937 0.31261 0.0
H2414 H 0.3167 0.86561 0.27626 0.0
H2415 H 0.3469 0.8701 0.26627 0.0
H2416 H 0.32429 0.88816 0.31367 0.0
H2417 H 0.27272 0.81776 0.2908 0.0
H2418 H 0.29938 0.82905 0.28929 0.0
H2419 H 0.28544 0.8364 0.27934 0.0
C2420 C 0.36133 0.87305 0.29678 0.0
C2421 C 0.363 0.87321 0.28363 0.0
C2422 C 0.34362 0.86963 0.30248 0.0
C2423 C 0.32711 0.86653 0.29523 0.0
C2424 C 0.32889 0.86728 0.28212 0.0
H2425 H 0.23202 0.88456 0.32223 0.0
H2426 H 0.26316 0.88763 0.31463 0.0
C2427 C 0.34646 0.87029 0.27639 0.0
C2428 C 0.30838 0.86325 0.30143 0.0
H2429 H 0.25763 0.83428 0.30089 0.0
C2430 C 0.30975 0.87623 0.31094 0.0
C2431 C 0.28931 0.84744 0.29817 0.0
C2432 C 0.28664 0.83176 0.28895 0.0
C2433 C 0.29271 0.8742 0.317 0.0
C2434 C 0.27356 0.85926 0.31308 0.0
C2435 C 0.27221 0.84593 0.30383 0.0
C2436 C 0.25475 0.85748 0.31816 0.0
C2437 C 0.2956 0.88795 0.32768 0.0
C2438 C 0.23913 0.83933 0.32224 0.0
C2439 C 0.22102 0.83745 0.32624 0.0
C2440 C 0.21836 0.85379 0.32658 0.0
C2441 C 0.23389 0.87185 0.32242 0.0
C2442 C 0.2518 0.87365 0.31818 0.0
H2443 H 0.31011 0.89296 0.3325 0.0
H2444 H 0.29571 0.9011 0.32395 0.0
H2445 H 0.28354 0.88099 0.3347 0.0
H2446 H 0.24083 0.82652 0.32218 0.0
H2447 H 0.20909 0.82317 0.32887 0.0
H2448 H 0.12268 0.46641 0.26035 0.0
H2449 H 0.13202 0.44548 0.27185 0.0
H2450 H 0.11438 0.46068 0.30646 0.0
H2451 H 0.10402 0.48083 0.29498 0.0
H2452 H 0.15984 0.45505 0.29023 0.0
H2453 H 0.0848 0.40164 0.30802 0.0
H2454 H 0.08851 0.41907 0.29598 0.0
H2455 H 0.09271 0.42652 0.31216 0.0
C2456 C 0.12042 0.46502 0.27037 0.0
C2457 C 0.11246 0.47521 0.27671 0.0
C2458 C 0.12596 0.45321 0.27695 0.0
C2459 C 0.12366 0.45133 0.28999 0.0
C2460 C 0.11594 0.46162 0.29638 0.0
H2461 H 0.18053 0.40064 0.3359 0.0
H2462 H 0.17136 0.42338 0.32668 0.0
C2463 C 0.11025 0.47333 0.2898 0.0
C2464 C 0.12965 0.43881 0.29688 0.0
H2465 H 0.11197 0.39893 0.31584 0.0
C2466 C 0.1494 0.44277 0.29584 0.0
C2467 C 0.11593 0.42271 0.3041 0.0
C2468 C 0.09426 0.41708 0.30506 0.0
C2469 C 0.15579 0.431 0.30175 0.0
C2470 C 0.14215 0.41511 0.30914 0.0
C2471 C 0.12245 0.41124 0.31026 0.0
C2472 C 0.14758 0.40149 0.31513 0.0
C2473 C 0.17687 0.4353 0.29967 0.0
C2474 C 0.1369 0.38157 0.31198 0.0
C2475 C 0.1418 0.3685 0.31742 0.0
C2476 C 0.15753 0.37506 0.32615 0.0
C2477 C 0.16819 0.39504 0.32934 0.0
C2478 C 0.16314 0.40812 0.32395 0.0
H2479 H 0.18374 0.44478 0.2914 0.0
H2480 H 0.18609 0.44304 0.30801 0.0
H2481 H 0.17734 0.42159 0.29833 0.0
H2482 H 0.12483 0.37614 0.3052 0.0
H2483 H 0.13324 0.35325 0.31471 0.0
H2484 H 0.3745 0.48066 0.29419 0.0
H2485 H 0.34524 0.4576 0.30619 0.0
H2486 H 0.3076 0.44883 0.27413 0.0
H2487 H 0.33679 0.47166 0.26205 0.0
H2488 H 0.31034 0.45665 0.3127 0.0
H2489 H 0.29452 0.39354 0.28212 0.0
H2490 H 0.31748 0.41661 0.28122 0.0
H2491 H 0.2952 0.41355 0.27379 0.0
C2492 C 0.35996 0.47392 0.28973 0.0
C2493 C 0.35797 0.47781 0.27712 0.0
C2494 C 0.34327 0.46074 0.2966 0.0
C2495 C 0.32428 0.45122 0.291 0.0
C2496 C 0.32216 0.45562 0.27855 0.0
H2497 H 0.20909 0.38279 0.32739 0.0
H2498 H 0.24002 0.40974 0.3191 0.0
C2499 C 0.33885 0.46867 0.27166 0.0
C2500 C 0.30678 0.43631 0.29805 0.0
H2501 H 0.27006 0.38844 0.29721 0.0
C2502 C 0.30155 0.4417 0.30936 0.0
C2503 C 0.29552 0.41674 0.29379 0.0
C2504 C 0.30105 0.40968 0.28213 0.0
C2505 C 0.28517 0.4281 0.31642 0.0
C2506 C 0.27352 0.40867 0.31193 0.0
C2507 C 0.27892 0.40332 0.30067 0.0
C2508 C 0.25571 0.39345 0.31864 0.0
C2509 C 0.28081 0.43458 0.32873 0.0
C2510 C 0.25411 0.37527 0.32117 0.0
C2511 C 0.23633 0.35979 0.32569 0.0
C2512 C 0.21993 0.36227 0.32804 0.0
C2513 C 0.22169 0.38064 0.326 0.0
C2514 C 0.23943 0.39608 0.32128 0.0
H2515 H 0.29419 0.44767 0.33257 0.0
H2516 H 0.26901 0.43847 0.3273 0.0
H2517 H 0.27546 0.42273 0.33575 0.0
H2518 H 0.26642 0.37282 0.3192 0.0
H2519 H 0.23521 0.34569 0.32706 0.0
H2520 H 0.55007 0.90527 0.27246 0.0
H2521 H 0.57337 0.89881 0.28419 0.0
H2522 H 0.52483 0.8427 0.29524 0.0
H2523 H 0.50138 0.84897 0.28341 0.0
H2524 H 0.57125 0.88871 0.31115 0.0
H2525 H 0.56767 0.83152 0.27884 0.0
H2526 H 0.56026 0.8489 0.27403 0.0
H2527 H 0.54438 0.82895 0.28402 0.0
C2528 C 0.54434 0.89148 0.2773 0.0
C2529 C 0.52386 0.87758 0.27692 0.0
C2530 C 0.55767 0.88787 0.28407 0.0
C2531 C 0.55086 0.87021 0.29049 0.0
C2532 C 0.53042 0.85635 0.29025 0.0
H2533 H 0.62139 0.82488 0.32645 0.0
H2534 H 0.59353 0.82834 0.31869 0.0
C2535 C 0.51703 0.86002 0.28356 0.0
C2536 C 0.56525 0.86641 0.29741 0.0
H2537 H 0.58843 0.83927 0.29654 0.0
C2538 C 0.57496 0.87784 0.30801 0.0
C2539 C 0.56994 0.85212 0.29335 0.0
C2540 C 0.56016 0.83969 0.2819 0.0
C2541 C 0.58932 0.87545 0.31463 0.0
C2542 C 0.59456 0.8616 0.31033 0.0
C2543 C 0.58448 0.84987 0.29987 0.0
C2544 C 0.61108 0.85967 0.3161 0.0
C2545 C 0.59853 0.88771 0.32623 0.0
C2546 C 0.63029 0.87605 0.31725 0.0
C2547 C 0.64609 0.87413 0.32197 0.0
C2548 C 0.64312 0.85578 0.32557 0.0
C2549 C 0.62401 0.83931 0.32421 0.0
C2550 C 0.60811 0.84126 0.31963 0.0
H2551 H 0.58811 0.89164 0.33078 0.0
H2552 H 0.60284 0.88004 0.33315 0.0
H2553 H 0.61207 0.90153 0.32357 0.0
H2554 H 0.63323 0.8903 0.31419 0.0
H2555 H 0.66078 0.88698 0.32261 0.0
H2556 H 0.14699 0.63894 0.29205 0.0
H2557 H 0.15424 0.67002 0.30159 0.0
H2558 H 0.10005 0.66375 0.28571 0.0
H2559 H 0.09229 0.63229 0.27652 0.0
H2560 H 0.15957 0.70351 0.28973 0.0
H2561 H 0.09576 0.67501 0.32258 0.0
H2562 H 0.10323 0.65935 0.31483 0.0
H2563 H 0.08879 0.66786 0.30655 0.0
C2564 C 0.13645 0.64402 0.29074 0.0
C2565 C 0.11899 0.63307 0.28359 0.0
C2566 C 0.1407 0.66185 0.29612 0.0
C2567 C 0.12754 0.66903 0.2945 0.0
C2568 C 0.11021 0.65828 0.28726 0.0
H2569 H 0.12958 0.77552 0.31709 0.0
H2570 H 0.12162 0.74399 0.30795 0.0
C2571 C 0.10593 0.64042 0.28189 0.0
C2572 C 0.13226 0.68804 0.30012 0.0
H2573 H 0.11515 0.7095 0.32062 0.0
C2574 C 0.14992 0.70483 0.29653 0.0
C2575 C 0.1196 0.68967 0.30897 0.0
C2576 C 0.10087 0.672 0.31357 0.0
C2577 C 0.15513 0.7233 0.30142 0.0
C2578 C 0.14246 0.72492 0.31025 0.0
C2579 C 0.12479 0.70816 0.31383 0.0
C2580 C 0.14731 0.74393 0.31589 0.0
C2581 C 0.17393 0.74098 0.29691 0.0
C2582 C 0.16428 0.75418 0.3235 0.0
C2583 C 0.16892 0.77221 0.32872 0.0
C2584 C 0.15656 0.78023 0.32651 0.0
C2585 C 0.13945 0.7698 0.31897 0.0
C2586 C 0.13483 0.75176 0.31376 0.0
H2587 H 0.17939 0.73793 0.28805 0.0
H2588 H 0.17146 0.75352 0.29541 0.0
H2589 H 0.18579 0.74533 0.30412 0.0
H2590 H 0.17394 0.74822 0.3254 0.0
H2591 H 0.18229 0.77991 0.33439 0.0
H2592 H 0.82879 0.04549 0.38033 0.0
H2593 H 0.80372 0.01406 0.37161 0.0
H2594 H 0.79355 0.98828 0.4083 0.0
H2595 H 0.81946 0.01937 0.41701 0.0
H2596 H 0.79602 0.96499 0.39124 0.0
H2597 H 0.74417 0.98877 0.37378 0.0
H2598 H 0.76876 0.00317 0.36752 0.0
H2599 H 0.76481 0.00375 0.38409 0.0
C2600 C 0.82138 0.03312 0.38656 0.0
C2601 C 0.82618 0.03505 0.3994 0.0
C2602 C 0.80679 0.0152 0.38157 0.0
C2603 C 0.79642 0.99889 0.38934 0.0
C2604 C 0.80122 0.00071 0.40214 0.0
H2605 H 0.68918 0.89205 0.36582 0.0
H2606 H 0.71305 0.92277 0.37601 0.0
C2607 C 0.81593 0.01857 0.40712 0.0
C2608 C 0.78108 0.97976 0.38404 0.0
H2609 H 0.73842 0.95774 0.36643 0.0
C2610 C 0.78335 0.96338 0.38589 0.0
C2611 C 0.76435 0.97756 0.37723 0.0
C2612 C 0.76023 0.9942 0.37565 0.0
C2613 C 0.76962 0.94499 0.3809 0.0
C2614 C 0.75348 0.94302 0.37354 0.0
C2615 C 0.75094 0.95929 0.37193 0.0
C2616 C 0.73905 0.92425 0.36741 0.0
C2617 C 0.77242 0.9278 0.38375 0.0
C2618 C 0.74567 0.91492 0.35909 0.0
C2619 C 0.73209 0.89722 0.35339 0.0
C2620 C 0.71152 0.88867 0.35564 0.0
C2621 C 0.70489 0.89819 0.36385 0.0
C2622 C 0.71852 0.9158 0.36967 0.0
H2623 H 0.78132 0.93029 0.39245 0.0
H2624 H 0.75787 0.91414 0.38483 0.0
H2625 H 0.78061 0.92571 0.37595 0.0
H2626 H 0.76137 0.92135 0.35697 0.0
H2627 H 0.7378 0.89021 0.34728 0.0
H2628 H 1.00222 0.81097 0.41827 0.0
H2629 H 0.03201 0.81741 0.40662 0.0
H2630 H 0.9954 0.78659 0.37462 0.0
H2631 H 0.96557 0.78053 0.38618 0.0
H2632 H 0.04195 0.79242 0.39806 0.0
H2633 H 0.03821 0.83425 0.35768 0.0
H2634 H 0.02274 0.82928 0.37133 0.0
H2635 H 0.01596 0.81096 0.3593 0.0
C2636 C 1.00053 0.80566 0.40872 0.0
C2637 C 0.98151 0.79522 0.40316 0.0
C2638 C 0.01759 0.80941 0.40204 0.0
C2639 C 0.01609 0.80275 0.38964 0.0
C2640 C 0.9971 0.79238 0.38403 0.0
H2641 H 0.10685 0.78317 0.35618 0.0
H2642 H 0.076 0.78006 0.36457 0.0
C2643 C 0.98002 0.78882 0.39068 0.0
C2644 C 0.03426 0.80553 0.38299 0.0
H2645 H 0.06135 0.82264 0.35606 0.0
C2646 C 0.0462 0.79914 0.38891 0.0
C2647 C 0.04006 0.81451 0.37109 0.0
C2648 C 0.02869 0.82283 0.36453 0.0
C2649 C 0.0635 0.80121 0.38326 0.0
C2650 C 0.06881 0.80938 0.37113 0.0
C2651 C 0.05712 0.81611 0.36527 0.0
C2652 C 0.08656 0.81113 0.36455 0.0
C2653 C 0.07615 0.79495 0.39049 0.0
C2654 C 0.1024 0.82954 0.36111 0.0
C2655 C 0.11997 0.8313 0.35614 0.0
C2656 C 0.12184 0.81464 0.35437 0.0
C2657 C 0.10572 0.79622 0.3574 0.0
C2658 C 0.08816 0.79445 0.36227 0.0
H2659 H 0.07336 0.79443 0.40072 0.0
H2660 H 0.0724 0.78006 0.38741 0.0
H2661 H 0.09227 0.80502 0.38883 0.0
H2662 H 0.1015 0.84262 0.36275 0.0
H2663 H 0.13228 0.84572 0.35413 0.0
H2664 H 0.24813 0.21757 0.41131 0.0
H2665 H 0.23841 0.23824 0.39977 0.0
H2666 H 0.18569 0.18689 0.38614 0.0
H2667 H 0.19484 0.16615 0.39804 0.0
H2668 H 0.23247 0.23893 0.37417 0.0
H2669 H 0.1632 0.21986 0.4003 0.0
H2670 H 0.18155 0.214 0.40601 0.0
H2671 H 0.16417 0.19926 0.39397 0.0
C2672 C 0.2343 0.21068 0.40602 0.0
C2673 C 0.22221 0.19021 0.40565 0.0
C2674 C 0.22886 0.2225 0.39935 0.0
C2675 C 0.21121 0.2141 0.39224 0.0
C2676 C 0.19919 0.19368 0.39175 0.0
H2677 H 0.15788 0.26766 0.34634 0.0
H2678 H 0.16581 0.24419 0.35588 0.0
C2679 C 0.20458 0.18185 0.39844 0.0
C2680 C 0.20564 0.22674 0.38514 0.0
H2681 H 0.1699 0.23982 0.38244 0.0
C2682 C 0.2188 0.23913 0.37597 0.0
C2683 C 0.18774 0.22689 0.38748 0.0
C2684 C 0.17341 0.21443 0.39755 0.0
C2685 C 0.21454 0.25172 0.3691 0.0
C2686 C 0.1968 0.25206 0.37157 0.0
C2687 C 0.18346 0.23943 0.38056 0.0
C2688 C 0.19234 0.26618 0.36541 0.0
C2689 C 0.22902 0.26452 0.35921 0.0
C2690 C 0.20456 0.28625 0.36772 0.0
C2691 C 0.20011 0.29967 0.3623 0.0
C2692 C 0.18332 0.29327 0.35446 0.0
C2693 C 0.17106 0.27311 0.35219 0.0
C2694 C 0.17551 0.25967 0.35767 0.0
H2695 H 0.23907 0.25901 0.35624 0.0
H2696 H 0.22098 0.26547 0.35084 0.0
H2697 H 0.23838 0.27951 0.36305 0.0
H2698 H 0.21742 0.29152 0.37385 0.0
H2699 H 0.20982 0.31506 0.36431 0.0
H2700 H 0.63251 0.52337 0.71941 0.0
H2701 H 0.66223 0.54573 0.70753 0.0
H2702 H 0.69938 0.55039 0.73906 0.0
H2703 H 0.66969 0.5284 0.75105 0.0
H2704 H 0.70952 0.58522 0.73035 0.0
H2705 H 0.7038 0.53801 0.69025 0.0
H2706 H 0.68179 0.53986 0.6921 0.0
H2707 H 0.68878 0.52847 0.70412 0.0
C2708 C 0.64705 0.52898 0.72373 0.0
C2709 C 0.64878 0.52417 0.73616 0.0
C2710 C 0.66404 0.54167 0.71691 0.0
C2711 C 0.68311 0.54951 0.7223 0.0
C2712 C 0.68485 0.54449 0.73467 0.0
H2713 H 0.79888 0.61922 0.6866 0.0
H2714 H 0.76798 0.59205 0.69493 0.0
C2715 C 0.66787 0.532 0.74153 0.0
C2716 C 0.70116 0.56404 0.71545 0.0
H2717 H 0.72714 0.57221 0.68816 0.0
C2718 C 0.7134 0.58228 0.72116 0.0
C2719 C 0.70641 0.56018 0.70351 0.0
C2720 C 0.69462 0.54049 0.69719 0.0
C2721 C 0.7305 0.59683 0.71523 0.0
C2722 C 0.73523 0.59332 0.70305 0.0
C2723 C 0.72329 0.57497 0.69741 0.0
C2724 C 0.75268 0.60863 0.6962 0.0
C2725 C 0.74351 0.61576 0.72217 0.0
C2726 C 0.754 0.62666 0.69366 0.0
C2727 C 0.7716 0.64215 0.68897 0.0
C2728 C 0.78802 0.63975 0.68641 0.0
C2729 C 0.78633 0.62137 0.68827 0.0
C2730 C 0.76872 0.60587 0.69307 0.0
H2731 H 0.741 0.61406 0.73244 0.0
H2732 H 0.75956 0.62122 0.72037 0.0
H2733 H 0.7399 0.62699 0.71896 0.0
H2734 H 0.74167 0.62899 0.69578 0.0
H2735 H 0.77261 0.65621 0.68765 0.0
H2736 H 0.46479 0.10013 0.73622 0.0
H2737 H 0.43865 0.10476 0.72671 0.0
H2738 H 0.4831 0.16203 0.71419 0.0
H2739 H 0.50932 0.15732 0.72348 0.0
H2740 H 0.42733 0.13087 0.73149 0.0
H2741 H 0.45262 0.1399 0.68222 0.0
H2742 H 0.46282 0.13145 0.69428 0.0
H2743 H 0.4714 0.15713 0.69268 0.0
C2744 C 0.469 0.11371 0.73144 0.0
C2745 C 0.48917 0.12831 0.73055 0.0
C2746 C 0.45404 0.11632 0.72596 0.0
C2747 C 0.45887 0.13359 0.71949 0.0
C2748 C 0.47898 0.14833 0.71878 0.0
H2749 H 0.38435 0.178 0.68891 0.0
H2750 H 0.41223 0.17459 0.69677 0.0
C2751 C 0.49397 0.14565 0.72415 0.0
C2752 C 0.44277 0.13638 0.71391 0.0
H2753 H 0.42676 0.14696 0.68668 0.0
C2754 C 0.42718 0.13427 0.72167 0.0
C2755 C 0.44252 0.14086 0.70108 0.0
C2756 C 0.45813 0.14228 0.69205 0.0
C2757 C 0.41154 0.13665 0.717 0.0
C2758 C 0.41137 0.1412 0.70423 0.0
C2759 C 0.42697 0.1435 0.69647 0.0
C2760 C 0.39482 0.14319 0.69877 0.0
C2761 C 0.39531 0.13446 0.72577 0.0
C2762 C 0.37589 0.12665 0.69714 0.0
C2763 C 0.36003 0.12854 0.69247 0.0
C2764 C 0.36287 0.14697 0.68921 0.0
C2765 C 0.38184 0.16355 0.69092 0.0
C2766 C 0.39775 0.16163 0.69551 0.0
H2767 H 0.39932 0.13423 0.73575 0.0
H2768 H 0.39215 0.14659 0.72444 0.0
H2769 H 0.38141 0.12055 0.72364 0.0
H2770 H 0.37333 0.11228 0.6996 0.0
H2771 H 0.34549 0.11558 0.69144 0.0
H2772 H 0.85865 0.3623 0.72378 0.0
H2773 H 0.85106 0.33091 0.71453 0.0
H2774 H 0.90605 0.33788 0.72948 0.0
H2775 H 0.91393 0.36941 0.73862 0.0
H2776 H 0.87441 0.32335 0.69712 0.0
H2777 H 0.86295 0.28338 0.74184 0.0
H2778 H 0.86292 0.30619 0.7409 0.0
H2779 H 0.88607 0.3061 0.74074 0.0
C2780 C 0.86922 0.35723 0.72502 0.0
C2781 C 0.88688 0.36834 0.73197 0.0
C2782 C 0.8648 0.33927 0.71979 0.0
C2783 C 0.87787 0.332 0.72147 0.0
C2784 C 0.89559 0.34308 0.72829 0.0
H2785 H 0.8765 0.2262 0.6978 0.0
H2786 H 0.88478 0.25788 0.70682 0.0
C2787 C 0.90004 0.36107 0.73352 0.0
C2788 C 0.8731 0.31297 0.7159 0.0
H2789 H 0.86284 0.26686 0.72327 0.0
C2790 C 0.87181 0.31096 0.70282 0.0
C2791 C 0.86978 0.2969 0.72339 0.0
C2792 C 0.87032 0.2981 0.7375 0.0
C2793 C 0.86757 0.29333 0.69699 0.0
C2794 C 0.86416 0.27722 0.70448 0.0
C2795 C 0.86549 0.27925 0.71757 0.0
C2796 C 0.85909 0.25807 0.69894 0.0
C2797 C 0.8672 0.29223 0.68287 0.0
C2798 C 0.84174 0.24755 0.69169 0.0
C2799 C 0.83698 0.22947 0.68651 0.0
C2800 C 0.84945 0.22152 0.68853 0.0
C2801 C 0.86662 0.23193 0.696 0.0
C2802 C 0.87139 0.25004 0.70116 0.0
H2803 H 0.87528 0.307 0.67861 0.0
H2804 H 0.87395 0.28355 0.67947 0.0
H2805 H 0.8515 0.28499 0.67954 0.0
H2806 H 0.83177 0.25325 0.69013 0.0
H2807 H 0.8234 0.22164 0.68103 0.0
H2808 H 0.1801 0.98435 0.6008 0.0
H2809 H 0.20532 0.01552 0.60995 0.0
H2810 H 0.21221 0.98487 0.64121 0.0
H2811 H 0.18647 0.95374 0.63229 0.0
H2812 H 0.21052 0.01527 0.64929 0.0
H2813 H 0.26445 0.03942 0.61033 0.0
H2814 H 0.24041 0.03478 0.60518 0.0
H2815 H 0.24331 0.015 0.6111 0.0
C2816 C 0.18713 0.9843 0.60958 0.0
C2817 C 0.18141 0.96666 0.61583 0.0
C2818 C 0.20163 0.0021 0.61477 0.0
C2819 C 0.21102 0.00256 0.62615 0.0
C2820 C 0.20526 0.98491 0.6324 0.0
H2821 H 0.31804 0.10635 0.65357 0.0
H2822 H 0.29422 0.07429 0.64483 0.0
C2823 C 0.19055 0.96714 0.62731 0.0
C2824 C 0.22628 0.02145 0.63179 0.0
H2825 H 0.26961 0.0637 0.62564 0.0
C2826 C 0.22352 0.02579 0.64414 0.0
C2827 C 0.24346 0.03506 0.62518 0.0
C2828 C 0.24821 0.03075 0.61227 0.0
C2829 C 0.23721 0.04349 0.64996 0.0
C2830 C 0.25378 0.05756 0.6431 0.0
C2831 C 0.25677 0.05305 0.63085 0.0
C2832 C 0.2682 0.07702 0.64844 0.0
C2833 C 0.23392 0.04668 0.66349 0.0
C2834 C 0.26158 0.08938 0.6532 0.0
C2835 C 0.27513 0.10757 0.65836 0.0
C2836 C 0.29564 0.11396 0.65862 0.0
C2837 C 0.30234 0.10184 0.65352 0.0
C2838 C 0.28873 0.08351 0.64852 0.0
H2839 H 0.22484 0.03258 0.66841 0.0
H2840 H 0.24827 0.05526 0.6686 0.0
H2841 H 0.22567 0.05481 0.66392 0.0
H2842 H 0.24593 0.08503 0.65288 0.0
H2843 H 0.26952 0.1167 0.66202 0.0
H2844 H 0.01099 0.19451 0.60008 0.0
H2845 H 0.98022 0.18976 0.60969 0.0
H2846 H 0.01178 0.21399 0.6444 0.0
H2847 H 0.04257 0.21873 0.63488 0.0
H2848 H 0.97589 0.1808 0.64814 0.0
H2849 H 0.96583 0.23154 0.61724 0.0
H2850 H 0.96766 0.2127 0.60894 0.0
H2851 H 0.98871 0.23076 0.61776 0.0
C2852 C 0.01144 0.19902 0.60972 0.0
C2853 C 0.02932 0.20708 0.61668 0.0
C2854 C 0.99382 0.1963 0.61521 0.0
C2855 C 0.9937 0.20178 0.62773 0.0
C2856 C 0.01147 0.20965 0.63473 0.0
H2857 H 0.90148 0.21991 0.66015 0.0
H2858 H 0.9327 0.22298 0.65251 0.0
C2859 C 0.02907 0.2123 0.62927 0.0
C2860 C 0.97509 0.1992 0.6336 0.0
H2861 H 0.93927 0.2122 0.63097 0.0
C2862 C 0.96789 0.18771 0.64442 0.0
C2863 C 0.96475 0.20835 0.62883 0.0
C2864 C 0.9722 0.22168 0.61763 0.0
C2865 C 0.95064 0.18506 0.65054 0.0
C2866 C 0.94002 0.19388 0.64562 0.0
C2867 C 0.94729 0.20539 0.63479 0.0
C2868 C 0.92159 0.1918 0.65156 0.0
C2869 C 0.94438 0.17327 0.66242 0.0
C2870 C 0.90489 0.17329 0.65379 0.0
C2871 C 0.88714 0.17157 0.65841 0.0
C2872 C 0.88566 0.18832 0.66077 0.0
C2873 C 0.90233 0.20679 0.65859 0.0
C2874 C 0.92014 0.20852 0.65416 0.0
H2875 H 0.95705 0.17276 0.66694 0.0
H2876 H 0.93821 0.17946 0.66919 0.0
H2877 H 0.93271 0.15803 0.6602 0.0
H2878 H 0.90527 0.16011 0.65152 0.0
H2879 H 0.87438 0.15713 0.65959 0.0
H2880 H 0.77188 0.81541 0.62893 0.0
H2881 H 0.78242 0.79552 0.64059 0.0
H2882 H 0.8007 0.78053 0.60616 0.0
H2883 H 0.79113 0.80112 0.59449 0.0
H2884 H 0.76935 0.75688 0.63902 0.0
H2885 H 0.84982 0.79861 0.62784 0.0
H2886 H 0.8332 0.80797 0.62479 0.0
H2887 H 0.83436 0.79092 0.61407 0.0
C2888 C 0.77843 0.80812 0.62385 0.0
C2889 C 0.78079 0.80999 0.61077 0.0
C2890 C 0.78431 0.79666 0.63052 0.0
C2891 C 0.79269 0.78684 0.62427 0.0
C2892 C 0.79471 0.78834 0.61121 0.0
H2893 H 0.79962 0.68694 0.64872 0.0
H2894 H 0.79106 0.70998 0.63955 0.0
C2895 C 0.78894 0.7999 0.60453 0.0
C2896 C 0.79874 0.77454 0.63137 0.0
H2897 H 0.83779 0.76685 0.63661 0.0
C2898 C 0.78436 0.75916 0.63858 0.0
C2899 C 0.81843 0.77775 0.63098 0.0
C2900 C 0.83489 0.79483 0.62411 0.0
C2901 C 0.78894 0.74649 0.64508 0.0
C2902 C 0.80831 0.74901 0.64409 0.0
C2903 C 0.82288 0.7648 0.63723 0.0
C2904 C 0.81358 0.7351 0.64978 0.0
C2905 C 0.77302 0.73061 0.65301 0.0
C2906 C 0.82956 0.74169 0.65827 0.0
C2907 C 0.83473 0.72856 0.66342 0.0
C2908 C 0.82395 0.7086 0.66019 0.0
C2909 C 0.80813 0.70215 0.65155 0.0
C2910 C 0.80308 0.71528 0.64635 0.0
H2911 H 0.76158 0.73438 0.65591 0.0
H2912 H 0.76539 0.71685 0.64746 0.0
H2913 H 0.77952 0.72791 0.66153 0.0
H2914 H 0.83802 0.75699 0.66092 0.0
H2915 H 0.84726 0.73412 0.66984 0.0
H2916 H 0.02738 0.78157 0.6086 0.0
H2917 H 0.99797 0.76021 0.62112 0.0
H2918 H 0.99278 0.80993 0.6324 0.0
H2919 H 0.0221 0.8314 0.61986 0.0
H2920 H 0.99227 0.76631 0.64931 0.0
H2921 H 0.93697 0.76685 0.616 0.0
H2922 H 0.96133 0.77184 0.61097 0.0
H2923 H 0.95887 0.78974 0.61994 0.0
C2924 C 0.01992 0.78794 0.61369 0.0
C2925 C 0.02703 0.80816 0.61322 0.0
C2926 C 0.00322 0.77575 0.62089 0.0
C2927 C 0.99323 0.78353 0.62763 0.0
C2928 C 1.0003 0.80368 0.62723 0.0
H2929 H 0.87669 0.71714 0.66345 0.0
H2930 H 0.90848 0.74468 0.65657 0.0
C2931 C 0.01708 0.81591 0.62012 0.0
C2932 C 0.97523 0.77044 0.63492 0.0
H2933 H 0.92445 0.74779 0.63407 0.0
C2934 C 0.97742 0.76232 0.64605 0.0
C2935 C 0.95597 0.76551 0.63069 0.0
C2936 C 0.95295 0.77381 0.61872 0.0
C2937 C 0.96074 0.7491 0.65301 0.0
C2938 C 0.94137 0.74348 0.6485 0.0
C2939 C 0.93927 0.7521 0.63755 0.0
C2940 C 0.92308 0.72756 0.65436 0.0
C2941 C 0.96408 0.74135 0.66512 0.0
C2942 C 0.92075 0.70883 0.65554 0.0
C2943 C 0.90274 0.69321 0.65966 0.0
C2944 C 0.88668 0.69596 0.66265 0.0
C2945 C 0.889 0.71471 0.66159 0.0
C2946 C 0.90711 0.73042 0.65755 0.0
H2947 H 0.97861 0.75197 0.66946 0.0
H2948 H 0.95204 0.73804 0.67194 0.0
H2949 H 0.96442 0.72771 0.66317 0.0
H2950 H 0.93256 0.70607 0.65277 0.0
H2951 H 0.90114 0.67879 0.66015 0.0
H2952 H 0.18631 0.22017 0.62736 0.0
H2953 H 0.21072 0.21462 0.63854 0.0
H2954 H 0.2198 0.18925 0.60516 0.0
H2955 H 0.19541 0.19465 0.59394 0.0
H2956 H 0.21221 0.18047 0.64311 0.0
H2957 H 0.27634 0.23226 0.61426 0.0
H2958 H 0.25266 0.2315 0.61398 0.0
H2959 H 0.25586 0.21366 0.60537 0.0
C2960 C 0.19335 0.21323 0.62242 0.0
C2961 C 0.18903 0.20806 0.6097 0.0
C2962 C 0.20737 0.21014 0.62882 0.0
C2963 C 0.2174 0.20187 0.62262 0.0
C2964 C 0.21264 0.19611 0.61005 0.0
H2965 H 0.28842 0.15631 0.65752 0.0
H2966 H 0.26131 0.15972 0.64851 0.0
C2967 C 0.19868 0.19922 0.60365 0.0
C2968 C 0.23292 0.19939 0.62927 0.0
H2969 H 0.28218 0.21265 0.62844 0.0
C2970 C 0.22755 0.18756 0.63995 0.0
C2971 C 0.25296 0.20878 0.62521 0.0
C2972 C 0.2599 0.22241 0.61415 0.0
C2973 C 0.2416 0.18471 0.64662 0.0
C2974 C 0.26161 0.19376 0.64241 0.0
C2975 C 0.26693 0.20568 0.63174 0.0
C2976 C 0.27745 0.19141 0.6489 0.0
C2977 C 0.23485 0.17242 0.65826 0.0
C2978 C 0.29584 0.20798 0.65197 0.0
C2979 C 0.31151 0.206 0.65691 0.0
C2980 C 0.30903 0.18743 0.65919 0.0
C2981 C 0.29058 0.17082 0.65632 0.0
C2982 C 0.27499 0.17279 0.65116 0.0
H2983 H 0.22139 0.17185 0.66234 0.0
H2984 H 0.23102 0.15723 0.65591 0.0
H2985 H 0.2468 0.17824 0.66542 0.0
H2986 H 0.29825 0.22252 0.6503 0.0
H2987 H 0.32569 0.21902 0.65886 0.0
H2988 H 0.75946 0.96638 0.60936 0.0
H2989 H 0.76713 0.99802 0.61824 0.0
H2990 H 0.82213 0.00546 0.63354 0.0
H2991 H 0.81472 0.97397 0.62457 0.0
H2992 H 0.79871 0.01318 0.65068 0.0
H2993 H 0.80998 0.05237 0.60565 0.0
H2994 H 0.78689 0.02965 0.60688 0.0
H2995 H 0.81007 0.02961 0.60679 0.0
C2996 C 0.7733 0.97485 0.61449 0.0
C2997 C 0.78651 0.96769 0.61622 0.0
C2998 C 0.77764 0.9929 0.61956 0.0
C2999 C 0.7953 0.00414 0.6264 0.0
C3000 C 0.80843 0.99699 0.62826 0.0
H3001 H 0.84998 0.11506 0.66602 0.0
H3002 H 0.84148 0.08332 0.65709 0.0
C3003 C 0.80412 0.97896 0.62319 0.0
C3004 C 0.79996 0.02324 0.63182 0.0
H3005 H 0.81014 0.0692 0.62408 0.0
C3006 C 0.80127 0.02547 0.64488 0.0
C3007 C 0.80322 0.03916 0.6242 0.0
C3008 C 0.80265 0.03773 0.61009 0.0
C3009 C 0.80552 0.04319 0.65057 0.0
C3010 C 0.80891 0.05917 0.64295 0.0
C3011 C 0.80752 0.0569 0.62988 0.0
C3012 C 0.81408 0.07842 0.64836 0.0
C3013 C 0.80594 0.04453 0.66469 0.0
C3014 C 0.80179 0.08645 0.6461 0.0
C3015 C 0.80663 0.10464 0.65117 0.0
C3016 C 0.82388 0.11512 0.65857 0.0
C3017 C 0.83636 0.10719 0.6606 0.0
C3018 C 0.83152 0.08902 0.65552 0.0
H3019 H 0.79787 0.02984 0.66905 0.0
H3020 H 0.82165 0.05182 0.668 0.0
H3021 H 0.79921 0.05328 0.66799 0.0
H3022 H 0.78834 0.07854 0.64051 0.0
H3023 H 0.79674 0.11036 0.64937 0.0
H3024 H 0.51257 0.36104 0.7229 0.0
H3025 H 0.48711 0.32997 0.71387 0.0
H3026 H 0.44102 0.3382 0.73031 0.0
H3027 H 0.46642 0.36944 0.73932 0.0
H3028 H 0.43561 0.30059 0.73388 0.0
H3029 H 0.45051 0.32252 0.68403 0.0
H3030 H 0.47221 0.32673 0.69271 0.0
H3031 H 0.45977 0.34006 0.69673 0.0
C3032 C 0.49702 0.35639 0.72447 0.0
C3033 C 0.49154 0.36781 0.73176 0.0
C3034 C 0.48248 0.33861 0.71931 0.0
C3035 C 0.46217 0.33194 0.72125 0.0
C3036 C 0.45662 0.34314 0.72866 0.0
H3037 H 0.35379 0.22535 0.698 0.0
H3038 H 0.37742 0.257 0.70734 0.0
C3039 C 0.47116 0.36094 0.73384 0.0
C3040 C 0.44677 0.31307 0.71576 0.0
H3041 H 0.42923 0.28866 0.688 0.0
C3042 C 0.43408 0.298 0.72385 0.0
C3043 C 0.44483 0.30976 0.70267 0.0
C3044 C 0.45742 0.32567 0.69351 0.0
C3045 C 0.41987 0.27951 0.7192 0.0
C3046 C 0.41812 0.27614 0.70612 0.0
C3047 C 0.43065 0.29128 0.69803 0.0
C3048 C 0.40369 0.25688 0.7006 0.0
C3049 C 0.40727 0.26357 0.72834 0.0
C3050 C 0.41061 0.24648 0.69356 0.0
C3051 C 0.39716 0.22843 0.68818 0.0
C3052 C 0.37649 0.22051 0.68963 0.0
C3053 C 0.36959 0.23098 0.69671 0.0
C3054 C 0.38308 0.24905 0.70211 0.0
H3055 H 0.41361 0.26709 0.73798 0.0
H3056 H 0.39212 0.26177 0.72863 0.0
H3057 H 0.40578 0.2494 0.72539 0.0
H3058 H 0.42645 0.25226 0.69228 0.0
H3059 H 0.40304 0.22066 0.68297 0.0
H3060 H 0.63216 0.11529 0.71916 0.0
H3061 H 0.66182 0.12096 0.70755 0.0
H3062 H 0.69816 0.14746 0.74039 0.0
H3063 H 0.66862 0.14176 0.75205 0.0
H3064 H 0.6974 0.1543 0.70192 0.0
H3065 H 0.71123 0.10501 0.73182 0.0
H3066 H 0.68833 0.10572 0.73247 0.0
H3067 H 0.7103 0.12409 0.74043 0.0
C3068 C 0.64649 0.12248 0.72389 0.0
C3069 C 0.64795 0.12787 0.7366 0.0
C3070 C 0.66344 0.12567 0.71724 0.0
C3071 C 0.6822 0.1343 0.72315 0.0
C3072 C 0.6838 0.14032 0.7357 0.0
H3073 H 0.79867 0.17916 0.68755 0.0
H3074 H 0.7679 0.17586 0.69613 0.0
C3075 C 0.66687 0.13705 0.74237 0.0
C3076 C 0.7 0.13665 0.71628 0.0
H3077 H 0.7364 0.12426 0.71724 0.0
C3078 C 0.70591 0.14768 0.70523 0.0
C3079 C 0.71097 0.1278 0.7205 0.0
C3080 C 0.70481 0.11483 0.73188 0.0
C3081 C 0.72259 0.15031 0.69838 0.0
C3082 C 0.73391 0.14192 0.7028 0.0
C3083 C 0.72785 0.13076 0.71381 0.0
C3084 C 0.75195 0.14418 0.69621 0.0
C3085 C 0.7276 0.16167 0.68633 0.0
C3086 C 0.75348 0.12757 0.69342 0.0
C3087 C 0.77119 0.12947 0.68869 0.0
C3088 C 0.78767 0.14801 0.6864 0.0
C3089 C 0.78604 0.16467 0.68884 0.0
C3090 C 0.76838 0.16277 0.69375 0.0
H3091 H 0.71444 0.16191 0.68237 0.0
H3092 H 0.73938 0.17702 0.68817 0.0
H3093 H 0.73322 0.15535 0.67926 0.0
H3094 H 0.74111 0.11306 0.69524 0.0
H3095 H 0.77216 0.11643 0.68705 0.0
H3096 H 0.88207 0.53412 0.7548 0.0
H3097 H 0.87271 0.55485 0.74305 0.0
H3098 H 0.89408 0.54223 0.70902 0.0
H3099 H 0.9042 0.52207 0.72077 0.0
H3100 H 0.90633 0.581 0.71154 0.0
H3101 H 0.825 0.53637 0.71961 0.0
H3102 H 0.83933 0.54338 0.73386 0.0
H3103 H 0.84197 0.5275 0.72287 0.0
C3104 C 0.88496 0.5359 0.74483 0.0
C3105 C 0.89381 0.52636 0.73871 0.0
C3106 C 0.87935 0.54754 0.73811 0.0
C3107 C 0.88232 0.54974 0.72512 0.0
C3108 C 0.89146 0.54054 0.71901 0.0
H3109 H 0.82875 0.60208 0.67826 0.0
H3110 H 0.83823 0.57948 0.68733 0.0
C3111 C 0.89712 0.52894 0.72573 0.0
C3112 C 0.87638 0.56207 0.71796 0.0
H3113 H 0.83678 0.56833 0.71132 0.0
C3114 C 0.8911 0.57816 0.71141 0.0
C3115 C 0.85643 0.5581 0.7176 0.0
C3116 C 0.83973 0.54028 0.72375 0.0
C3117 C 0.88654 0.59079 0.70483 0.0
C3118 C 0.8668 0.58746 0.70507 0.0
C3119 C 0.85195 0.57099 0.71127 0.0
C3120 C 0.8614 0.60123 0.69928 0.0
C3121 C 0.9029 0.60747 0.69762 0.0
C3122 C 0.87108 0.62088 0.7031 0.0
C3123 C 0.86595 0.63388 0.69779 0.0
C3124 C 0.8508 0.62746 0.68865 0.0
C3125 C 0.84078 0.60764 0.68505 0.0
C3126 C 0.84608 0.59466 0.69029 0.0
H3127 H 0.91493 0.60435 0.69506 0.0
H3128 H 0.89704 0.61052 0.68893 0.0
H3129 H 0.90964 0.62084 0.70356 0.0
H3130 H 0.88252 0.62615 0.71029 0.0
H3131 H 0.87384 0.64896 0.70094 0.0
H3132 H 0.47544 0.91601 0.18187 0.0
H3133 H 0.48484 0.93034 0.16092 0.0
H3134 H 0.46693 0.97234 0.17062 0.0
H3135 H 0.45773 0.95829 0.19159 0.0
H3136 H 0.45961 0.93559 0.14239 0.0
H3137 H 0.52539 0.00552 0.15767 0.0
H3138 H 0.51445 0.98392 0.16731 0.0
H3139 H 0.50271 0.99853 0.16604 0.0
C3140 C 0.47365 0.9284 0.17958 0.0
C3141 C 0.46588 0.93603 0.18845 0.0
C3142 C 0.47891 0.93648 0.16757 0.0
C3143 C 0.47676 0.95251 0.16424 0.0
C3144 C 0.46891 0.9601 0.17303 0.0
H3145 H 0.50507 0.02865 0.10021 0.0
H3146 H 0.49446 0.01185 0.12029 0.0
C3147 C 0.46351 0.95195 0.18499 0.0
C3148 C 0.48266 0.96133 0.15158 0.0
H3149 H 0.51535 0.00332 0.13651 0.0
C3150 C 0.47186 0.95036 0.14107 0.0
C3151 C 0.49861 0.98061 0.14988 0.0
C3152 C 0.51111 0.99284 0.16079 0.0
C3153 C 0.47624 0.95834 0.12894 0.0
C3154 C 0.49219 0.97769 0.12724 0.0
C3155 C 0.5031 0.98853 0.13777 0.0
C3156 C 0.49767 0.9872 0.1147 0.0
C3157 C 0.4633 0.94619 0.11815 0.0
C3158 C 0.50299 0.97897 0.10477 0.0
C3159 C 0.50896 0.98854 0.09322 0.0
C3160 C 0.51006 0.00669 0.0914 0.0
C3161 C 0.5046 0.0148 0.10133 0.0
C3162 C 0.49848 0.00518 0.11281 0.0
H3163 H 0.44862 0.93426 0.12141 0.0
H3164 H 0.46071 0.95532 0.11137 0.0
H3165 H 0.47085 0.93935 0.11318 0.0
H3166 H 0.50298 0.96538 0.10604 0.0
H3167 H 0.51332 0.98202 0.08583 0.0
H3168 H 0.03117 0.50385 0.19284 0.0
H3169 H 0.01671 0.49601 0.17168 0.0
H3170 H 0.06057 0.55358 0.15931 0.0
H3171 H 0.07518 0.56149 0.18038 0.0
H3172 H 1.00205 0.51929 0.15818 0.0
H3173 H 0.06225 0.51412 0.1333 0.0
H3174 H 0.05897 0.51131 0.15006 0.0
H3175 H 0.07007 0.5352 0.14324 0.0
C3176 C 0.03787 0.51474 0.18556 0.0
C3177 C 0.05429 0.53329 0.18825 0.0
C3178 C 0.02956 0.51027 0.17352 0.0
C3179 C 0.03771 0.52417 0.16396 0.0
C3180 C 0.05422 0.5426 0.16656 0.0
H3181 H 0.0121 0.532 0.08617 0.0
H3182 H 0.02653 0.53646 0.10718 0.0
C3183 C 0.06243 0.54714 0.17861 0.0
C3184 C 0.02841 0.51978 0.15137 0.0
H3185 H 0.03676 0.51372 0.12076 0.0
C3186 C 0.00952 0.51791 0.14999 0.0
C3187 C 0.03833 0.51815 0.14076 0.0
C3188 C 0.05848 0.51965 0.14185 0.0
C3189 C 1.00045 0.51495 0.13817 0.0
C3190 C 0.01035 0.51329 0.12751 0.0
C3191 C 0.02919 0.51497 0.12894 0.0
C3192 C 1.00163 0.51026 0.11475 0.0
C3193 C 0.98068 0.51431 0.13718 0.0
C3194 C 0.98299 0.49389 0.11197 0.0
C3195 C 0.97467 0.49139 0.1 0.0
C3196 C 0.98499 0.50506 0.09053 0.0
C3197 C 0.00386 0.52118 0.09326 0.0
C3198 C 0.01209 0.52376 0.10525 0.0
H3199 H 0.9779 0.52115 0.14546 0.0
H3200 H 0.97996 0.5219 0.12863 0.0
H3201 H 0.96851 0.49885 0.13665 0.0
H3202 H 0.9749 0.48301 0.11905 0.0
H3203 H 0.96026 0.47865 0.09811 0.0
H3204 H 0.50517 0.54154 0.19106 0.0
H3205 H 0.51117 0.53343 0.17004 0.0
H3206 H 0.44933 0.51104 0.16047 0.0
H3207 H 0.44332 0.51977 0.18141 0.0
H3208 H 0.49411 0.49757 0.15788 0.0
H3209 H 0.47837 0.54949 0.13213 0.0
H3210 H 0.48207 0.55081 0.14888 0.0
H3211 H 0.45872 0.53269 0.14217 0.0
C3212 C 0.49286 0.5351 0.18445 0.0
C3213 C 0.4738 0.53152 0.18789 0.0
C3214 C 0.4963 0.53034 0.17246 0.0
C3215 C 0.48078 0.52192 0.16361 0.0
C3216 C 0.46161 0.51788 0.16707 0.0
H3217 H 0.48417 0.48892 0.08549 0.0
H3218 H 0.47297 0.49363 0.10598 0.0
C3219 C 0.45815 0.52267 0.17909 0.0
C3220 C 0.48485 0.51731 0.15083 0.0
H3221 H 0.48599 0.52908 0.11995 0.0
C3222 C 0.49228 0.50442 0.14959 0.0
C3223 C 0.48239 0.52622 0.14001 0.0
C3224 C 0.47511 0.5407 0.14081 0.0
C3225 C 0.49746 0.50029 0.13784 0.0
C3226 C 0.49544 0.50953 0.12706 0.0
C3227 C 0.48755 0.52205 0.12824 0.0
C3228 C 0.50222 0.50698 0.11458 0.0
C3229 C 0.50501 0.48602 0.13705 0.0
C3230 C 0.52243 0.5133 0.11255 0.0
C3231 C 0.52891 0.51079 0.10086 0.0
C3232 C 0.5153 0.50193 0.0909 0.0
C3233 C 0.49508 0.49594 0.0929 0.0
C3234 C 0.48863 0.49852 0.10462 0.0
H3235 H 0.50069 0.47641 0.14539 0.0
H3236 H 0.49921 0.47672 0.12852 0.0
H3237 H 0.52153 0.49426 0.13656 0.0
H3238 H 0.53325 0.52028 0.12003 0.0
H3239 H 0.54464 0.51597 0.09959 0.0
H3240 H 0.9375 0.48225 0.83278 0.0
H3241 H 0.95257 0.49073 0.85371 0.0
H3242 H 0.98975 0.46622 0.8444 0.0
H3243 H 0.97537 0.45838 0.82336 0.0
H3244 H 0.95238 0.46585 0.87185 0.0
H3245 H 0.02999 0.51944 0.85859 0.0
H3246 H 0.00927 0.51138 0.84785 0.0
H3247 H 0.02043 0.49646 0.85055 0.0
C3248 C 0.94913 0.47897 0.83512 0.0
C3249 C 0.95526 0.46968 0.82638 0.0
C3250 C 0.95762 0.48371 0.84711 0.0
C3251 C 0.97249 0.47937 0.85055 0.0
C3252 C 0.9786 0.47006 0.84187 0.0
H3253 H 0.03575 0.48097 0.91727 0.0
H3254 H 0.02127 0.47691 0.89633 0.0
C3255 C 0.97016 0.46536 0.82989 0.0
C3256 C 0.98107 0.4838 0.86337 0.0
H3257 H 0.02509 0.50738 0.87954 0.0
C3258 C 0.96825 0.4751 0.87356 0.0
C3259 C 1.00177 0.4959 0.86556 0.0
C3260 C 0.01615 0.50649 0.85507 0.0
C3261 C 0.97568 0.47764 0.88585 0.0
C3262 C 0.99642 0.48935 0.88798 0.0
C3263 C 0.0092 0.49833 0.87783 0.0
C3264 C 0.00523 0.49207 0.90066 0.0
C3265 C 0.96138 0.46731 0.89641 0.0
C3266 C 1.00117 0.50216 0.90996 0.0
C3267 C 0.00956 0.50466 0.92192 0.0
C3268 C 0.02218 0.49713 0.92477 0.0
C3269 C 0.02631 0.48716 0.91536 0.0
C3270 C 0.01797 0.48473 0.90341 0.0
H3271 H 0.94652 0.45584 0.89294 0.0
H3272 H 0.96743 0.46046 0.90282 0.0
H3273 H 0.95932 0.47811 0.90192 0.0
H3274 H 0.99165 0.50823 0.90795 0.0
H3275 H 0.00635 0.51271 0.92887 0.0
H3276 H 0.52581 0.44107 0.83474 0.0
H3277 H 0.51903 0.44972 0.85547 0.0
H3278 H 0.53768 0.50804 0.84265 0.0
H3279 H 0.5443 0.49945 0.82182 0.0
H3280 H 0.5462 0.48245 0.87228 0.0
H3281 H 0.47939 0.4857 0.85639 0.0
H3282 H 0.48957 0.47322 0.84752 0.0
H3283 H 0.50182 0.49942 0.84746 0.0
C3284 C 0.52844 0.45574 0.83632 0.0
C3285 C 0.53545 0.46954 0.82661 0.0
C3286 C 0.52468 0.46068 0.84819 0.0
C3287 C 0.52766 0.47944 0.85054 0.0
C3288 C 0.53511 0.49342 0.84097 0.0
H3289 H 0.49656 0.52769 0.91437 0.0
H3290 H 0.50825 0.52262 0.89419 0.0
C3291 C 0.53902 0.48853 0.82911 0.0
C3292 C 0.52249 0.48417 0.86292 0.0
H3293 H 0.48896 0.49354 0.87751 0.0
C3294 C 0.53372 0.48492 0.87346 0.0
C3295 C 0.50624 0.48742 0.86438 0.0
C3296 C 0.49341 0.4863 0.85338 0.0
C3297 C 0.52922 0.48901 0.88544 0.0
C3298 C 0.51271 0.49192 0.88696 0.0
C3299 C 0.5016 0.49132 0.87636 0.0
C3300 C 0.50645 0.49533 0.89943 0.0
C3301 C 0.54244 0.49056 0.89631 0.0
C3302 C 0.50142 0.48163 0.90908 0.0
C3303 C 0.49481 0.48454 0.92064 0.0
C3304 C 0.4928 0.50107 0.92272 0.0
C3305 C 0.49778 0.51473 0.91302 0.0
C3306 C 0.50453 0.51188 0.90151 0.0
H3307 H 0.55748 0.49398 0.89311 0.0
H3308 H 0.54416 0.50201 0.90309 0.0
H3309 H 0.53567 0.47635 0.90126 0.0
H3310 H 0.50222 0.46847 0.9076 0.0
H3311 H 0.49079 0.47361 0.92785 0.0
H3312 H 0.5001 0.0483 0.82269 0.0
H3313 H 0.49438 0.03448 0.8437 0.0
H3314 H 0.55628 0.07291 0.85302 0.0
H3315 H 0.56202 0.08733 0.83209 0.0
H3316 H 0.51161 0.01534 0.85539 0.0
H3317 H 0.52785 0.08227 0.88213 0.0
H3318 H 0.52385 0.08022 0.86539 0.0
H3319 H 0.54733 0.08492 0.87181 0.0
C3320 C 0.51248 0.05404 0.82924 0.0
C3321 C 0.5315 0.06911 0.82569 0.0
C3322 C 0.5092 0.046 0.84124 0.0
C3323 C 0.5248 0.05284 0.85004 0.0
C3324 C 0.5439 0.06764 0.8465 0.0
H3325 H 0.52399 0.01524 0.92763 0.0
H3326 H 0.53427 0.03199 0.90741 0.0
C3327 C 0.54721 0.07571 0.83446 0.0
C3328 C 0.52098 0.04407 0.86278 0.0
H3329 H 0.52079 0.05429 0.89394 0.0
C3330 C 0.51365 0.02388 0.86381 0.0
C3331 C 0.52374 0.05521 0.87381 0.0
C3332 C 0.53096 0.07682 0.87329 0.0
C3333 C 0.50891 0.01453 0.8755 0.0
C3334 C 0.51122 0.02557 0.88649 0.0
C3335 C 0.51899 0.04583 0.88552 0.0
C3336 C 0.50492 0.01614 0.89898 0.0
C3337 C 0.50161 0.99289 0.87597 0.0
C3338 C 0.48491 0.00205 0.9011 0.0
C3339 C 0.47898 0.99255 0.91263 0.0
C3340 C 0.4929 0.99693 0.92238 0.0
C3341 C 0.51284 0.01154 0.92038 0.0
C3342 C 0.51877 0.02107 0.9088 0.0
H3343 H 0.50595 0.98778 0.86747 0.0
H3344 H 0.50758 0.98919 0.88435 0.0
H3345 H 0.48509 0.98477 0.87651 0.0
H3346 H 0.47384 0.99835 0.89378 0.0
H3347 H 0.46342 0.98174 0.9139 0.0
H3348 H 0.10055 0.24805 0.51285 0.0
H3349 H 0.11011 0.26207 0.49189 0.0
H3350 H 0.17123 0.29665 0.50413 0.0
H3351 H 0.16182 0.28291 0.52512 0.0
H3352 H 0.12799 0.30123 0.48466 0.0
H3353 H 0.17603 0.27007 0.47242 0.0
H3354 H 0.15887 0.26125 0.48538 0.0
H3355 H 0.1826 0.28328 0.487 0.0
C3356 C 0.11602 0.25871 0.51112 0.0
C3357 C 0.13042 0.26426 0.52071 0.0
C3358 C 0.12147 0.26664 0.4991 0.0
C3359 C 0.14144 0.28017 0.49636 0.0
C3360 C 0.15581 0.28587 0.50592 0.0
H3361 H 0.20829 0.35151 0.43376 0.0
H3362 H 0.19642 0.33427 0.4536 0.0
C3363 C 0.15039 0.27798 0.51794 0.0
C3364 C 0.14716 0.28882 0.48363 0.0
H3365 H 0.17763 0.29475 0.45893 0.0
C3366 C 0.13871 0.29967 0.47898 0.0
C3367 C 0.16116 0.28679 0.47622 0.0
C3368 C 0.17007 0.27457 0.48043 0.0
C3369 C 0.14434 0.30908 0.46732 0.0
C3370 C 0.15854 0.30726 0.45997 0.0
C3371 C 0.16678 0.29617 0.46455 0.0
C3372 C 0.16558 0.31732 0.44772 0.0
C3373 C 0.13554 0.32142 0.46316 0.0
C3374 C 0.15227 0.31332 0.43769 0.0
C3375 C 0.159 0.3233 0.42633 0.0
C3376 C 0.17922 0.33745 0.42473 0.0
C3377 C 0.19257 0.34101 0.43471 0.0
C3378 C 0.18583 0.33105 0.44605 0.0
H3379 H 0.1288 0.32519 0.47109 0.0
H3380 H 0.14704 0.33517 0.45877 0.0
H3381 H 0.12364 0.31315 0.45612 0.0
H3382 H 0.13664 0.3025 0.43865 0.0
H3383 H 0.14827 0.32021 0.41889 0.0
H3384 H 0.74171 0.8941 0.51379 0.0
H3385 H 0.72716 0.88553 0.49272 0.0
H3386 H 0.68495 0.82751 0.50529 0.0
H3387 H 0.69925 0.83602 0.52645 0.0
H3388 H 0.72174 0.85219 0.47675 0.0
H3389 H 0.65116 0.85049 0.48933 0.0
H3390 H 0.67345 0.86297 0.49884 0.0
H3391 H 0.65869 0.8368 0.49912 0.0
C3392 C 0.72926 0.87955 0.51208 0.0
C3393 C 0.72153 0.86576 0.52178 0.0
C3394 C 0.72107 0.87466 0.50004 0.0
C3395 C 0.7049 0.85597 0.49753 0.0
C3396 C 0.69732 0.84206 0.50711 0.0
H3397 H 0.62977 0.8077 0.43132 0.0
H3398 H 0.64486 0.81259 0.45217 0.0
C3399 C 0.70559 0.8469 0.51915 0.0
C3400 C 0.69585 0.85116 0.48488 0.0
H3401 H 0.65415 0.8422 0.46856 0.0
C3402 C 0.70696 0.84996 0.47492 0.0
C3403 C 0.67654 0.8482 0.48261 0.0
C3404 C 0.66423 0.84978 0.49299 0.0
C3405 C 0.69919 0.84575 0.46269 0.0
C3406 C 0.68001 0.84318 0.46035 0.0
C3407 C 0.66884 0.84418 0.47037 0.0
C3408 C 0.67136 0.83985 0.44757 0.0
C3409 C 0.71146 0.84378 0.45244 0.0
C3410 C 0.68118 0.85362 0.43809 0.0
C3411 C 0.67263 0.85083 0.42618 0.0
C3412 C 0.65395 0.83435 0.42357 0.0
C3413 C 0.6441 0.82062 0.43309 0.0
C3414 C 0.65273 0.82335 0.44498 0.0
H3415 H 0.7226 0.84022 0.4563 0.0
H3416 H 0.70187 0.83225 0.44558 0.0
H3417 H 0.71969 0.85787 0.44741 0.0
H3418 H 0.69529 0.86673 0.43997 0.0
H3419 H 0.6804 0.86182 0.4191 0.0
H3420 H 0.13008 0.83732 0.5252 0.0
H3421 H 0.13733 0.82989 0.5042 0.0
H3422 H 0.14934 0.88651 0.49148 0.0
H3423 H 0.14237 0.8941 0.51244 0.0
H3424 H 0.12128 0.82827 0.4808 0.0
H3425 H 0.20051 0.88716 0.48255 0.0
H3426 H 0.18482 0.87952 0.49622 0.0
H3427 H 0.18333 0.89581 0.4851 0.0
C3428 C 0.13408 0.8481 0.51789 0.0
C3429 C 0.1359 0.86639 0.52051 0.0
C3430 C 0.13827 0.84386 0.50591 0.0
C3431 C 0.14433 0.85782 0.49634 0.0
C3432 C 0.14526 0.87573 0.4988 0.0
H3433 H 0.18105 0.86268 0.41898 0.0
H3434 H 0.16932 0.86806 0.43909 0.0
C3435 C 0.14122 0.88003 0.51077 0.0
C3436 C 0.15004 0.85383 0.48387 0.0
H3437 H 0.18844 0.87104 0.463 0.0
C3438 C 0.13598 0.83757 0.47693 0.0
C3439 C 0.16927 0.86594 0.47884 0.0
C3440 C 0.18542 0.88297 0.4861 0.0
C3441 C 0.14054 0.83332 0.465 0.0
C3442 C 0.15969 0.84555 0.45995 0.0
C3443 C 0.17373 0.86177 0.46688 0.0
C3444 C 0.16565 0.84164 0.44757 0.0
C3445 C 0.12477 0.81597 0.45779 0.0
C3446 C 0.16752 0.82503 0.44571 0.0
C3447 C 0.17426 0.82195 0.43425 0.0
C3448 C 0.17923 0.83541 0.42443 0.0
C3449 C 0.17713 0.85193 0.4263 0.0
C3450 C 0.17052 0.85507 0.43779 0.0
H3451 H 0.10965 0.81062 0.46172 0.0
H3452 H 0.12467 0.81972 0.44779 0.0
H3453 H 0.12812 0.80386 0.45821 0.0
H3454 H 0.16411 0.81463 0.4532 0.0
H3455 H 0.17557 0.80901 0.43307 0.0
H3456 H 0.63772 0.82959 0.15487 0.0
H3457 H 0.65192 0.83706 0.17606 0.0
H3458 H 0.60904 0.77864 0.18769 0.0
H3459 H 0.59496 0.77102 0.1665 0.0
H3460 H 0.6353 0.83654 0.1988 0.0
H3461 H 0.66131 0.78258 0.19807 0.0
H3462 H 0.65301 0.78934 0.18413 0.0
H3463 H 0.63515 0.772 0.19489 0.0
C3464 C 0.63126 0.81839 0.16198 0.0
C3465 C 0.61536 0.79966 0.15902 0.0
C3466 C 0.63941 0.82265 0.17405 0.0
C3467 C 0.63179 0.80828 0.18337 0.0
C3468 C 0.6155 0.78977 0.18055 0.0
H3469 H 0.66029 0.8064 0.2618 0.0
H3470 H 0.64426 0.79964 0.24114 0.0
C3471 C 0.60745 0.78545 0.16846 0.0
C3472 C 0.64089 0.81267 0.19604 0.0
H3473 H 0.66342 0.79807 0.21757 0.0
C3474 C 0.64153 0.82819 0.20289 0.0
C3475 C 0.64905 0.80177 0.20134 0.0
C3476 C 0.6498 0.78562 0.19419 0.0
C3477 C 0.64985 0.83292 0.21497 0.0
C3478 C 0.65782 0.8219 0.22027 0.0
C3479 C 0.65717 0.80639 0.21346 0.0
C3480 C 0.66717 0.8264 0.23283 0.0
C3481 C 0.64984 0.84946 0.22208 0.0
C3482 C 0.68538 0.84363 0.23491 0.0
C3483 C 0.69459 0.84749 0.24666 0.0
C3484 C 0.68569 0.8342 0.25653 0.0
C3485 C 0.66738 0.817 0.25441 0.0
C3486 C 0.65826 0.81308 0.24263 0.0
H3487 H 0.63977 0.85401 0.2177 0.0
H3488 H 0.64519 0.84518 0.23193 0.0
H3489 H 0.66518 0.86226 0.22223 0.0
H3490 H 0.69257 0.85396 0.22739 0.0
H3491 H 0.70862 0.86092 0.24805 0.0
H3492 H 0.19267 0.77496 0.16795 0.0
H3493 H 0.18592 0.78337 0.18877 0.0
H3494 H 0.204 0.84166 0.17616 0.0
H3495 H 0.21058 0.83331 0.15524 0.0
H3496 H 0.21296 0.81602 0.20562 0.0
H3497 H 0.14578 0.81886 0.19005 0.0
H3498 H 0.15608 0.80662 0.18106 0.0
H3499 H 0.16815 0.83281 0.18111 0.0
C3500 C 0.19518 0.78956 0.1696 0.0
C3501 C 0.20201 0.80343 0.15992 0.0
C3502 C 0.19143 0.79437 0.18151 0.0
C3503 C 0.19426 0.81305 0.18395 0.0
C3504 C 0.20155 0.82709 0.17442 0.0
H3505 H 0.16277 0.86019 0.24821 0.0
H3506 H 0.17458 0.8555 0.22796 0.0
C3507 C 0.20543 0.82234 0.16251 0.0
C3508 C 0.1891 0.81763 0.19638 0.0
H3509 H 0.15543 0.82658 0.21117 0.0
C3510 C 0.20041 0.81837 0.20687 0.0
C3511 C 0.17276 0.82073 0.19793 0.0
C3512 C 0.15984 0.81961 0.18698 0.0
C3513 C 0.19591 0.82231 0.2189 0.0
C3514 C 0.17932 0.82505 0.2205 0.0
C3515 C 0.16813 0.82447 0.20996 0.0
C3516 C 0.17304 0.82826 0.23302 0.0
C3517 C 0.20922 0.82385 0.22972 0.0
C3518 C 0.16812 0.81447 0.2426 0.0
C3519 C 0.16144 0.81716 0.2542 0.0
C3520 C 0.15925 0.83356 0.25639 0.0
C3521 C 0.16413 0.84732 0.24677 0.0
C3522 C 0.17095 0.84469 0.23522 0.0
H3523 H 0.22428 0.82742 0.22647 0.0
H3524 H 0.21086 0.83519 0.23656 0.0
H3525 H 0.20256 0.80959 0.2346 0.0
H3526 H 0.16905 0.80139 0.24103 0.0
H3527 H 0.1575 0.80615 0.26134 0.0
H3528 H 0.22877 0.42126 0.16575 0.0
H3529 H 0.22296 0.40639 0.18656 0.0
H3530 H 0.16112 0.36808 0.17702 0.0
H3531 H 0.1669 0.38233 0.15616 0.0
H3532 H 0.19682 0.40438 0.2053 0.0
H3533 H 0.17807 0.33004 0.18986 0.0
H3534 H 0.18985 0.35096 0.17968 0.0
H3535 H 0.16336 0.33872 0.18218 0.0
C3536 C 0.214 0.40948 0.16802 0.0
C3537 C 0.19832 0.40299 0.15923 0.0
C3538 C 0.21067 0.40109 0.17996 0.0
C3539 C 0.19166 0.38592 0.18331 0.0
C3540 C 0.17599 0.37951 0.17459 0.0
H3541 H 0.13122 0.31576 0.24737 0.0
H3542 H 0.14154 0.3328 0.22738 0.0
C3543 C 0.17929 0.38787 0.16269 0.0
C3544 C 0.18799 0.377 0.19598 0.0
H3545 H 0.17 0.33325 0.21096 0.0
C3546 C 0.19116 0.38887 0.20656 0.0
C3547 C 0.18066 0.35676 0.19764 0.0
C3548 C 0.17797 0.3434 0.18675 0.0
C3549 C 0.18645 0.3809 0.21868 0.0
C3550 C 0.17861 0.36057 0.22028 0.0
C3551 C 0.17588 0.34881 0.20973 0.0
C3552 C 0.17249 0.35101 0.23273 0.0
C3553 C 0.18923 0.39419 0.22962 0.0
C3554 C 0.18645 0.35557 0.24244 0.0
C3555 C 0.1806 0.34573 0.25391 0.0
C3556 C 0.16069 0.33104 0.25587 0.0
C3557 C 0.14673 0.32674 0.24615 0.0
C3558 C 0.15259 0.33655 0.23472 0.0
H3559 H 0.19117 0.40846 0.22655 0.0
H3560 H 0.17628 0.3872 0.23604 0.0
H3561 H 0.20274 0.39706 0.23497 0.0
H3562 H 0.20197 0.36641 0.24105 0.0
H3563 H 0.1918 0.34925 0.2611 0.0
H3564 H 0.78678 0.62087 0.85822 0.0
H3565 H 0.79598 0.63491 0.83723 0.0
H3566 H 0.81649 0.59469 0.82814 0.0
H3567 H 0.80717 0.58043 0.8491 0.0
H3568 H 0.83604 0.6518 0.82613 0.0
H3569 H 0.77748 0.5891 0.7988 0.0
H3570 H 0.77512 0.59221 0.81536 0.0
H3571 H 0.79143 0.58371 0.81002 0.0
C3572 C 0.79305 0.61486 0.85172 0.0
C3573 C 0.79617 0.59947 0.85534 0.0
C3574 C 0.79838 0.62296 0.83975 0.0
C3575 C 0.80672 0.61571 0.83108 0.0
C3576 C 0.80986 0.60035 0.83463 0.0
H3577 H 0.84579 0.648 0.75358 0.0
H3578 H 0.83562 0.63133 0.77383 0.0
C3579 C 0.80468 0.59234 0.84665 0.0
C3580 C 0.81271 0.6247 0.81848 0.0
H3581 H 0.80135 0.61614 0.7873 0.0
C3582 C 0.82846 0.64403 0.81763 0.0
C3583 C 0.80292 0.61445 0.80741 0.0
C3584 C 0.7857 0.59375 0.80785 0.0
C3585 C 0.83477 0.65339 0.80601 0.0
C3586 C 0.82466 0.64335 0.79492 0.0
C3587 C 0.80905 0.62388 0.79577 0.0
C3588 C 0.82991 0.65292 0.78242 0.0
C3589 C 0.85252 0.67383 0.80573 0.0
C3590 C 0.82953 0.67029 0.78034 0.0
C3591 C 0.83543 0.67986 0.76883 0.0
C3592 C 0.84156 0.67214 0.75903 0.0
C3593 C 0.84111 0.6543 0.76092 0.0
C3594 C 0.83536 0.6448 0.77251 0.0
H3595 H 0.86213 0.67696 0.81415 0.0
H3596 H 0.86173 0.67613 0.79727 0.0
H3597 H 0.84721 0.68454 0.8056 0.0
H3598 H 0.82478 0.67654 0.78767 0.0
H3599 H 0.83521 0.69336 0.7676 0.0
H3600 H 0.36279 0.20953 0.85843 0.0
H3601 H 0.34916 0.20209 0.83716 0.0
H3602 H 0.38798 0.1794 0.82803 0.0
H3603 H 0.40196 0.18705 0.84927 0.0
H3604 H 0.37142 0.21672 0.81445 0.0
H3605 H 0.33168 0.13551 0.81695 0.0
H3606 H 0.33956 0.15088 0.83077 0.0
H3607 H 0.35744 0.14799 0.82173 0.0
C3608 C 0.36851 0.20304 0.85189 0.0
C3609 C 0.3835 0.19892 0.85554 0.0
C3610 C 0.36063 0.19871 0.83977 0.0
C3611 C 0.36744 0.19004 0.8311 0.0
C3612 C 0.3823 0.18578 0.83468 0.0
H3613 H 0.33414 0.15466 0.75334 0.0
H3614 H 0.34971 0.16141 0.77411 0.0
C3615 C 0.39024 0.19014 0.84681 0.0
C3616 C 0.3594 0.18609 0.81817 0.0
H3617 H 0.33176 0.14935 0.79736 0.0
C3618 C 0.36274 0.202 0.81069 0.0
C3619 C 0.34822 0.16688 0.81332 0.0
C3620 C 0.34383 0.14927 0.8211 0.0
C3621 C 0.35521 0.19922 0.79844 0.0
C3622 C 0.34366 0.17998 0.79366 0.0
C3623 C 0.34058 0.16408 0.80108 0.0
C3624 C 0.33434 0.17605 0.78107 0.0
C3625 C 0.35993 0.21692 0.79066 0.0
C3626 C 0.32036 0.18183 0.77818 0.0
C3627 C 0.31157 0.17816 0.7663 0.0
C3628 C 0.31648 0.16847 0.75712 0.0
C3629 C 0.33028 0.16244 0.76012 0.0
C3630 C 0.33909 0.16615 0.77201 0.0
H3631 H 0.3733 0.23026 0.79427 0.0
H3632 H 0.36251 0.21465 0.78072 0.0
H3633 H 0.34714 0.21956 0.791 0.0
H3634 H 0.3162 0.18915 0.78512 0.0
H3635 H 0.30112 0.18312 0.76427 0.0
H3636 H 0.83771 0.2082 0.85794 0.0
H3637 H 0.8435 0.20006 0.83687 0.0
H3638 H 0.78175 0.1784 0.82739 0.0
H3639 H 0.77595 0.18717 0.84837 0.0
H3640 H 0.82593 0.16415 0.82474 0.0
H3641 H 0.81109 0.21672 0.79903 0.0
H3642 H 0.81485 0.21801 0.81577 0.0
H3643 H 0.79137 0.2001 0.80909 0.0
C3644 C 0.82538 0.20193 0.85134 0.0
C3645 C 0.80641 0.19855 0.85482 0.0
C3646 C 0.8287 0.19715 0.83932 0.0
C3647 C 0.81315 0.18891 0.83049 0.0
C3648 C 0.79406 0.1851 0.83398 0.0
H3649 H 0.81592 0.15533 0.75241 0.0
H3650 H 0.80485 0.16037 0.77286 0.0
C3651 C 0.79073 0.18991 0.84602 0.0
C3652 C 0.81707 0.1842 0.8177 0.0
H3653 H 0.81833 0.19604 0.78683 0.0
C3654 C 0.82422 0.17108 0.81645 0.0
C3655 C 0.81474 0.19321 0.80689 0.0
C3656 C 0.80775 0.20792 0.8077 0.0
C3657 C 0.82927 0.16685 0.8047 0.0
C3658 C 0.8274 0.17619 0.79393 0.0
C3659 C 0.81977 0.18893 0.79512 0.0
C3660 C 0.8341 0.17354 0.78145 0.0
C3661 C 0.83653 0.15235 0.80389 0.0
C3662 C 0.85427 0.17967 0.77944 0.0
C3663 C 0.86067 0.17697 0.76777 0.0
C3664 C 0.84703 0.16811 0.75783 0.0
C3665 C 0.82686 0.16234 0.75981 0.0
C3666 C 0.82048 0.16511 0.77151 0.0
H3667 H 0.83212 0.14274 0.81224 0.0
H3668 H 0.8306 0.14306 0.79537 0.0
H3669 H 0.85305 0.1604 0.80338 0.0
H3670 H 0.86511 0.18663 0.78691 0.0
H3671 H 0.87637 0.18199 0.76651 0.0
H3672 H 0.26613 0.10705 0.50104 0.0
H3673 H 0.2808 0.11544 0.52209 0.0
H3674 H 0.32169 0.17414 0.50997 0.0
H3675 H 0.30716 0.16584 0.48884 0.0
H3676 H 0.33866 0.15251 0.52328 0.0
H3677 H 0.27608 0.1531 0.54831 0.0
H3678 H 0.26957 0.13244 0.53823 0.0
H3679 H 0.27933 0.15631 0.53157 0.0
C3680 C 0.27824 0.12175 0.50287 0.0
C3681 C 0.28553 0.13579 0.49331 0.0
C3682 C 0.28648 0.12654 0.5149 0.0
C3683 C 0.30217 0.14543 0.51756 0.0
C3684 C 0.30948 0.15952 0.50808 0.0
H3685 H 0.37903 0.19467 0.58331 0.0
H3686 H 0.36417 0.18931 0.56237 0.0
C3687 C 0.30113 0.15478 0.49606 0.0
C3688 C 0.31148 0.15019 0.53014 0.0
H3689 H 0.30249 0.15535 0.56078 0.0
C3690 C 0.33087 0.15329 0.53149 0.0
C3691 C 0.30113 0.15102 0.54078 0.0
C3692 C 0.28042 0.14819 0.53972 0.0
C3693 C 0.34006 0.15674 0.5433 0.0
C3694 C 0.32974 0.15762 0.55398 0.0
C3695 C 0.31039 0.15469 0.55258 0.0
C3696 C 0.33859 0.16118 0.56672 0.0
C3697 C 0.36045 0.15873 0.54426 0.0
C3698 C 0.32883 0.14747 0.57623 0.0
C3699 C 0.33717 0.15061 0.58823 0.0
C3700 C 0.35547 0.16751 0.59092 0.0
C3701 C 0.36509 0.18135 0.58143 0.0
C3702 C 0.35664 0.17829 0.56947 0.0
H3703 H 0.36379 0.15234 0.53596 0.0
H3704 H 0.37191 0.17447 0.54477 0.0
H3705 H 0.36179 0.15148 0.5528 0.0
H3706 H 0.31485 0.13421 0.57433 0.0
H3707 H 0.32949 0.13964 0.59533 0.0
H3708 H 0.87692 0.16913 0.48789 0.0
H3709 H 0.87089 0.17771 0.50889 0.0
H3710 H 0.85538 0.12027 0.52198 0.0
H3711 H 0.86157 0.11166 0.50109 0.0
H3712 H 0.83325 0.1565 0.52207 0.0
H3713 H 0.89618 0.15836 0.54839 0.0
H3714 H 0.89617 0.16044 0.53154 0.0
H3715 H 0.88187 0.13699 0.53881 0.0
C3716 C 0.87253 0.15844 0.49529 0.0
C3717 C 0.86969 0.13971 0.49283 0.0
C3718 C 0.86901 0.16333 0.50726 0.0
C3719 C 0.86288 0.14969 0.51701 0.0
C3720 C 0.86036 0.1311 0.51463 0.0
H3721 H 0.82586 0.14344 0.59411 0.0
H3722 H 0.83659 0.13832 0.57358 0.0
C3723 C 0.86373 0.12615 0.50266 0.0
C3724 C 0.85798 0.15442 0.52948 0.0
H3725 H 0.87108 0.15956 0.56041 0.0
C3726 C 0.8416 0.15735 0.53045 0.0
C3727 C 0.86882 0.15532 0.54038 0.0
C3728 C 0.88685 0.15277 0.53979 0.0
C3729 C 0.83543 0.16068 0.5421 0.0
C3730 C 0.84629 0.16164 0.55304 0.0
C3731 C 0.86279 0.15885 0.55204 0.0
C3732 C 0.84055 0.1652 0.56563 0.0
C3733 C 0.81693 0.16249 0.54261 0.0
C3734 C 0.83963 0.18221 0.56809 0.0
C3735 C 0.8334 0.18511 0.57978 0.0
C3736 C 0.82825 0.17119 0.58932 0.0
C3737 C 0.82982 0.15448 0.58698 0.0
C3738 C 0.8359 0.15151 0.57524 0.0
H3739 H 0.8074 0.15603 0.53416 0.0
H3740 H 0.80793 0.15518 0.55103 0.0
H3741 H 0.82136 0.17818 0.54304 0.0
H3742 H 0.84368 0.19325 0.56095 0.0
H3743 H 0.83272 0.19832 0.58138 0.0
H3744 H 0.89864 0.75318 0.49868 0.0
H3745 H 0.89304 0.73769 0.51919 0.0
H3746 H 0.82959 0.70753 0.51252 0.0
H3747 H 0.83504 0.72179 0.49175 0.0
H3748 H 0.87434 0.73934 0.53952 0.0
H3749 H 0.83633 0.66272 0.5228 0.0
H3750 H 0.84884 0.6831 0.51229 0.0
H3751 H 0.82383 0.67528 0.51743 0.0
C3752 C 0.88349 0.74296 0.50144 0.0
C3753 C 0.86733 0.73873 0.49341 0.0
C3754 C 0.8803 0.73425 0.51327 0.0
C3755 C 0.8609 0.72111 0.51737 0.0
C3756 C 0.84474 0.71719 0.5095 0.0
H3757 H 0.82406 0.68606 0.59469 0.0
H3758 H 0.83354 0.70312 0.57459 0.0
C3759 C 0.84791 0.72568 0.49764 0.0
C3760 C 0.85747 0.71172 0.52993 0.0
H3761 H 0.83335 0.66751 0.5446 0.0
C3762 C 0.86551 0.72361 0.54062 0.0
C3763 C 0.84626 0.69117 0.53142 0.0
C3764 C 0.83851 0.67733 0.52036 0.0
C3765 C 0.86227 0.71559 0.55272 0.0
C3766 C 0.85012 0.69511 0.55425 0.0
C3767 C 0.84246 0.68322 0.54353 0.0
C3768 C 0.84526 0.68554 0.5668 0.0
C3769 C 0.87228 0.72918 0.56369 0.0
C3770 C 0.8482 0.66965 0.56913 0.0
C3771 C 0.84238 0.65963 0.58051 0.0
C3772 C 0.83361 0.66535 0.58989 0.0
C3773 C 0.83102 0.68149 0.5877 0.0
C3774 C 0.83656 0.69133 0.57622 0.0
H3775 H 0.88581 0.74282 0.56073 0.0
H3776 H 0.86181 0.73337 0.56783 0.0
H3777 H 0.87662 0.72209 0.57104 0.0
H3778 H 0.85486 0.66483 0.56208 0.0
H3779 H 0.84468 0.64732 0.58195 0.0
loop_
_geom_bond_atom_site_label_1
_geom_bond_atom_site_label_2
_geom_bond_distance
_geom_bond_site_symmetry_2
_ccdc_geom_bond_type
C0 C1 1.391 . S
C0 C4 1.391 . S
C0 H42 0.948 . S
C1 C0 1.391 . S
C1 C2 1.391 . S
C2 C1 1.391 . S
C2 H58 0.947 . S
C2 C59 1.392 . S
C3 C4 1.391 . S
C3 C7 1.397 . S
C3 C59 1.419 . S
C4 C0 1.391 . S
C4 C3 1.391 . S
C4 C5 1.399 . S
C5 C4 1.399 . S
C5 C8 1.396 . S
C5 C17 1.453 . S
C5 C18 1.684 . S
H6 C30 0.948 . S
C7 C3 1.397 . S
C7 C8 1.394 . S
C7 C26 1.723 . S
C8 C5 1.396 . S
C8 C7 1.394 . S
C8 C38 1.723 . S
H9 C32 0.947 . S
H10 C33 0.948 . S
H11 C39 0.982 . S
H12 C40 0.979 . S
H13 C40 0.980 . S
H14 C40 0.983 . S
H15 C39 0.979 . S
H16 C39 0.977 . S
C17 C5 1.453 . S
C17 H46 0.982 . S
C17 H47 0.979 . S
C17 H48 0.977 . S
C18 C5 1.684 . S
C18 H43 0.979 . S
C18 H44 0.980 . S
C18 H45 0.983 . S
C19 C20 1.391 . S
C19 C24 1.391 . S
C19 H49 0.948 . S
C20 C19 1.391 . S
C20 C21 1.391 . S
C21 C20 1.391 . S
C21 C22 1.392 . S
C21 H50 0.947 . S
C22 C21 1.392 . S
C22 C23 1.419 . S
C22 H51 0.948 . S
C23 C22 1.419 . S
C23 C24 1.391 . S
C23 C27 1.397 . S
C24 C19 1.391 . S
C24 C23 1.391 . S
C24 C25 1.399 . S
C25 C24 1.399 . S
C25 C26 1.396 . S
C25 C28 1.453 . S
C25 C29 1.684 . S
C26 C7 1.723 . S
C26 C25 1.396 . S
C26 C27 1.394 . S
C27 C23 1.397 . S
C27 C26 1.394 . S
C27 C37 1.723 . S
C28 C25 1.453 . S
C28 H52 0.982 . S
C28 H53 0.979 . S
C28 H54 0.977 . S
C29 C25 1.684 . S
C29 H55 0.979 . S
C29 H56 0.980 . S
C29 H57 0.983 . S
C30 H6 0.948 . S
C30 C31 1.391 . S
C30 C35 1.391 . S
C31 C30 1.391 . S
C31 C32 1.391 . S
C32 H9 0.947 . S
C32 C31 1.391 . S
C32 C33 1.392 . S
C33 H10 0.948 . S
C33 C32 1.392 . S
C33 C34 1.419 . S
C34 C33 1.419 . S
C34 C35 1.391 . S
C34 C38 1.397 . S
C35 C30 1.391 . S
C35 C34 1.391 . S
C35 C36 1.399 . S
C36 C35 1.399 . S
C36 C37 1.396 . S
C36 C39 1.453 . S
C36 C40 1.684 . S
C37 C27 1.723 . S
C37 C36 1.396 . S
C37 C38 1.394 . S
C38 C8 1.723 . S
C38 C34 1.397 . S
C38 C37 1.394 . S
C39 H11 0.982 . S
C39 H15 0.979 . S
C39 H16 0.977 . S
C39 C36 1.453 . S
C40 H12 0.979 . S
C40 H13 0.980 . S
C40 H14 0.983 . S
C40 C36 1.684 . S
H41 C59 0.948 . S
H42 C0 0.948 . S
H43 C18 0.979 . S
H44 C18 0.980 . S
H45 C18 0.983 . S
H46 C17 0.982 . S
H47 C17 0.979 . S
H48 C17 0.977 . S
H49 C19 0.948 . S
H50 C21 0.947 . S
H51 C22 0.948 . S
H52 C28 0.982 . S
H53 C28 0.979 . S
H54 C28 0.977 . S
H55 C29 0.979 . S
H56 C29 0.980 . S
H57 C29 0.983 . S
H58 C2 0.947 . S
C59 C2 1.392 . S
C59 C3 1.419 . S
C59 H41 0.948 . S
C60 C61 1.391 . S
C60 C64 1.391 . S
C60 H102 0.948 . S
C61 C60 1.391 . S
C61 C62 1.391 . S
C62 C61 1.391 . S
C62 H118 0.947 . S
C62 C119 1.392 . S
C63 C64 1.391 . S
C63 C67 1.397 . S
C63 C119 1.419 . S
C64 C60 1.391 . S
C64 C63 1.391 . S
C64 C65 1.399 . S
C65 C64 1.399 . S
C65 C68 1.396 . S
C65 C77 1.453 . S
C65 C78 1.684 . S
H66 C90 0.948 . S
C67 C63 1.397 . S
C67 C68 1.394 . S
C67 C86 1.723 . S
C68 C65 1.396 . S
C68 C67 1.394 . S
C68 C98 1.723 . S
H69 C92 0.947 . S
H70 C93 0.948 . S
H71 C99 0.982 . S
H72 C100 0.979 . S
H73 C100 0.980 . S
H74 C100 0.983 . S
H75 C99 0.979 . S
H76 C99 0.977 . S
C77 C65 1.453 . S
C77 H106 0.982 . S
C77 H107 0.979 . S
C77 H108 0.977 . S
C78 C65 1.684 . S
C78 H103 0.979 . S
C78 H104 0.980 . S
C78 H105 0.983 . S
C79 C80 1.391 . S
C79 C84 1.391 . S
C79 H109 0.948 . S
C80 C79 1.391 . S
C80 C81 1.391 . S
C81 C80 1.391 . S
C81 C82 1.392 . S
C81 H110 0.947 . S
C82 C81 1.392 . S
C82 C83 1.419 . S
C82 H111 0.948 . S
C83 C82 1.419 . S
C83 C84 1.391 . S
C83 C87 1.397 . S
C84 C79 1.391 . S
C84 C83 1.391 . S
C84 C85 1.399 . S
C85 C84 1.399 . S
C85 C86 1.396 . S
C85 C88 1.453 . S
C85 C89 1.684 . S
C86 C67 1.723 . S
C86 C85 1.396 . S
C86 C87 1.394 . S
C87 C83 1.397 . S
C87 C86 1.394 . S
C87 C97 1.723 . S
C88 C85 1.453 . S
C88 H112 0.982 . S
C88 H113 0.979 . S
C88 H114 0.977 . S
C89 C85 1.684 . S
C89 H115 0.979 . S
C89 H116 0.980 . S
C89 H117 0.983 . S
C90 H66 0.948 . S
C90 C91 1.391 . S
C90 C95 1.391 . S
C91 C90 1.391 . S
C91 C92 1.391 . S
C92 H69 0.947 . S
C92 C91 1.391 . S
C92 C93 1.392 . S
C93 H70 0.948 . S
C93 C92 1.392 . S
C93 C94 1.419 . S
C94 C93 1.419 . S
C94 C95 1.391 . S
C94 C98 1.397 . S
C95 C90 1.391 . S
C95 C94 1.391 . S
C95 C96 1.399 . S
C96 C95 1.399 . S
C96 C97 1.396 . S
C96 C99 1.453 . S
C96 C100 1.684 . S
C97 C87 1.723 . S
C97 C96 1.396 . S
C97 C98 1.394 . S
C98 C68 1.723 . S
C98 C94 1.397 . S
C98 C97 1.394 . S
C99 H71 0.982 . S
C99 H75 0.979 . S
C99 H76 0.977 . S
C99 C96 1.453 . S
C100 H72 0.979 . S
C100 H73 0.980 . S
C100 H74 0.983 . S
C100 C96 1.684 . S
H101 C119 0.948 . S
H102 C60 0.948 . S
H103 C78 0.979 . S
H104 C78 0.980 . S
H105 C78 0.983 . S
H106 C77 0.982 . S
H107 C77 0.979 . S
H108 C77 0.977 . S
H109 C79 0.948 . S
H110 C81 0.947 . S
H111 C82 0.948 . S
H112 C88 0.982 . S
H113 C88 0.979 . S
H114 C88 0.977 . S
H115 C89 0.979 . S
H116 C89 0.980 . S
H117 C89 0.983 . S
H118 C62 0.947 . S
C119 C62 1.392 . S
C119 C63 1.419 . S
C119 H101 0.948 . S
C120 C121 1.391 . S
C120 C124 1.391 . S
C120 H162 0.948 . S
C121 C120 1.391 . S
C121 C122 1.391 . S
C122 C121 1.391 . S
C122 H178 0.947 . S
C122 C179 1.392 . S
C123 C124 1.391 . S
C123 C127 1.397 . S
C123 C179 1.419 . S
C124 C120 1.391 . S
C124 C123 1.391 . S
C124 C125 1.399 . S
C125 C124 1.399 . S
C125 C128 1.396 . S
C125 C137 1.453 . S
C125 C138 1.684 . S
H126 C150 0.948 . S
C127 C123 1.397 . S
C127 C128 1.394 . S
C127 C146 1.723 . S
C128 C125 1.396 . S
C128 C127 1.394 . S
C128 C158 1.723 . S
H129 C152 0.947 . S
H130 C153 0.948 . S
H131 C159 0.982 . S
H132 C160 0.979 . S
H133 C160 0.980 . S
H134 C160 0.983 . S
H135 C159 0.979 . S
H136 C159 0.977 . S
C137 C125 1.453 . S
C137 H166 0.982 . S
C137 H167 0.979 . S
C137 H168 0.977 . S
C138 C125 1.684 . S
C138 H163 0.979 . S
C138 H164 0.980 . S
C138 H165 0.983 . S
C139 C140 1.391 . S
C139 C144 1.391 . S
C139 H169 0.948 . S
C140 C139 1.391 . S
C140 C141 1.391 . S
C141 C140 1.391 . S
C141 C142 1.392 . S
C141 H170 0.947 . S
C142 C141 1.392 . S
C142 C143 1.419 . S
C142 H171 0.948 . S
C143 C142 1.419 . S
C143 C144 1.391 . S
C143 C147 1.397 . S
C144 C139 1.391 . S
C144 C143 1.391 . S
C144 C145 1.399 . S
C145 C144 1.399 . S
C145 C146 1.396 . S
C145 C148 1.453 . S
C145 C149 1.684 . S
C146 C127 1.723 . S
C146 C145 1.396 . S
C146 C147 1.394 . S
C147 C143 1.397 . S
C147 C146 1.394 . S
C147 C157 1.723 . S
C148 C145 1.453 . S
C148 H172 0.982 . S
C148 H173 0.979 . S
C148 H174 0.977 . S
C149 C145 1.684 . S
C149 H175 0.979 . S
C149 H176 0.980 . S
C149 H177 0.983 . S
C150 H126 0.948 . S
C150 C151 1.391 . S
C150 C155 1.391 . S
C151 C150 1.391 . S
C151 C152 1.391 . S
C152 H129 0.947 . S
C152 C151 1.391 . S
C152 C153 1.392 . S
C153 H130 0.948 . S
C153 C152 1.392 . S
C153 C154 1.419 . S
C154 C153 1.419 . S
C154 C155 1.391 . S
C154 C158 1.397 . S
C155 C150 1.391 . S
C155 C154 1.391 . S
C155 C156 1.399 . S
C156 C155 1.399 . S
C156 C157 1.396 . S
C156 C159 1.453 . S
C156 C160 1.684 . S
C157 C147 1.723 . S
C157 C156 1.396 . S
C157 C158 1.394 . S
C158 C128 1.723 . S
C158 C154 1.397 . S
C158 C157 1.394 . S
C159 H131 0.982 . S
C159 H135 0.979 . S
C159 H136 0.977 . S
C159 C156 1.453 . S
C160 H132 0.979 . S
C160 H133 0.980 . S
C160 H134 0.983 . S
C160 C156 1.684 . S
H161 C179 0.948 . S
H162 C120 0.948 . S
H163 C138 0.979 . S
H164 C138 0.980 . S
H165 C138 0.983 . S
H166 C137 0.982 . S
H167 C137 0.979 . S
H168 C137 0.977 . S
H169 C139 0.948 . S
H170 C141 0.947 . S
H171 C142 0.948 . S
H172 C148 0.982 . S
H173 C148 0.979 . S
H174 C148 0.977 . S
H175 C149 0.979 . S
H176 C149 0.980 . S
H177 C149 0.983 . S
H178 C122 0.947 . S
C179 C122 1.392 . S
C179 C123 1.419 . S
C179 H161 0.948 . S
C180 C181 1.391 . S
C180 C184 1.391 . S
C180 H222 0.948 . S
C181 C180 1.391 . S
C181 C182 1.391 . S
C182 C181 1.391 . S
C182 H238 0.947 . S
C182 C239 1.392 . S
C183 C184 1.391 . S
C183 C187 1.397 . S
C183 C239 1.419 . S
C184 C180 1.391 . S
C184 C183 1.391 . S
C184 C185 1.399 . S
C185 C184 1.399 . S
C185 C188 1.396 . S
C185 C197 1.453 . S
C185 C198 1.684 . S
H186 C210 0.948 . S
C187 C183 1.397 . S
C187 C188 1.394 . S
C187 C206 1.723 . S
C188 C185 1.396 . S
C188 C187 1.394 . S
C188 C218 1.723 . S
H189 C212 0.947 . S
H190 C213 0.948 . S
H191 C219 0.982 . S
H192 C220 0.979 . S
H193 C220 0.980 . S
H194 C220 0.983 . S
H195 C219 0.979 . S
H196 C219 0.977 . S
C197 C185 1.453 . S
C197 H226 0.982 . S
C197 H227 0.979 . S
C197 H228 0.977 . S
C198 C185 1.684 . S
C198 H223 0.979 . S
C198 H224 0.980 . S
C198 H225 0.983 . S
C199 C200 1.391 . S
C199 C204 1.391 . S
C199 H229 0.948 . S
C200 C199 1.391 . S
C200 C201 1.391 . S
C201 C200 1.391 . S
C201 C202 1.392 . S
C201 H230 0.947 . S
C202 C201 1.392 . S
C202 C203 1.419 . S
C202 H231 0.948 . S
C203 C202 1.419 . S
C203 C204 1.391 . S
C203 C207 1.397 . S
C204 C199 1.391 . S
C204 C203 1.391 . S
C204 C205 1.399 . S
C205 C204 1.399 . S
C205 C206 1.396 . S
C205 C208 1.453 . S
C205 C209 1.684 . S
C206 C187 1.723 . S
C206 C205 1.396 . S
C206 C207 1.394 . S
C207 C203 1.397 . S
C207 C206 1.394 . S
C207 C217 1.723 . S
C208 C205 1.453 . S
C208 H232 0.982 . S
C208 H233 0.979 . S
C208 H234 0.977 . S
C209 C205 1.684 . S
C209 H235 0.979 . S
C209 H236 0.980 . S
C209 H237 0.983 . S
C210 H186 0.948 . S
C210 C211 1.391 . S
C210 C215 1.391 . S
C211 C210 1.391 . S
C211 C212 1.391 . S
C212 H189 0.947 . S
C212 C211 1.391 . S
C212 C213 1.392 . S
C213 H190 0.948 . S
C213 C212 1.392 . S
C213 C214 1.419 . S
C214 C213 1.419 . S
C214 C215 1.391 . S
C214 C218 1.397 . S
C215 C210 1.391 . S
C215 C214 1.391 . S
C215 C216 1.399 . S
C216 C215 1.399 . S
C216 C217 1.396 . S
C216 C219 1.453 . S
C216 C220 1.684 . S
C217 C207 1.723 . S
C217 C216 1.396 . S
C217 C218 1.394 . S
C218 C188 1.723 . S
C218 C214 1.397 . S
C218 C217 1.394 . S
C219 H191 0.982 . S
C219 H195 0.979 . S
C219 H196 0.977 . S
C219 C216 1.453 . S
C220 H192 0.979 . S
C220 H193 0.980 . S
C220 H194 0.983 . S
C220 C216 1.684 . S
H221 C239 0.948 . S
H222 C180 0.948 . S
H223 C198 0.979 . S
H224 C198 0.980 . S
H225 C198 0.983 . S
H226 C197 0.982 . S
H227 C197 0.979 . S
H228 C197 0.977 . S
H229 C199 0.948 . S
H230 C201 0.947 . S
H231 C202 0.948 . S
H232 C208 0.982 . S
H233 C208 0.979 . S
H234 C208 0.977 . S
H235 C209 0.979 . S
H236 C209 0.980 . S
H237 C209 0.983 . S
H238 C182 0.947 . S
C239 C182 1.392 . S
C239 C183 1.419 . S
C239 H221 0.948 . S
C240 C241 1.391 . S
C240 C244 1.391 . S
C240 H282 0.948 . S
C241 C240 1.391 . S
C241 C242 1.391 . S
C242 C241 1.391 . S
C242 H298 0.947 . S
C242 C299 1.392 . S
C243 C244 1.391 . S
C243 C247 1.397 . S
C243 C299 1.419 . S
C244 C240 1.391 . S
C244 C243 1.391 . S
C244 C245 1.399 . S
C245 C244 1.399 . S
C245 C248 1.396 . S
C245 C257 1.453 . S
C245 C258 1.684 . S
H246 C270 0.948 . S
C247 C243 1.397 . S
C247 C248 1.394 . S
C247 C266 1.723 . S
C248 C245 1.396 . S
C248 C247 1.394 . S
C248 C278 1.723 . S
H249 C272 0.947 . S
H250 C273 0.948 . S
H251 C279 0.982 . S
H252 C280 0.979 . S
H253 C280 0.980 . S
H254 C280 0.983 . S
H255 C279 0.979 . S
H256 C279 0.977 . S
C257 C245 1.453 . S
C257 H286 0.982 . S
C257 H287 0.979 . S
C257 H288 0.977 . S
C258 C245 1.684 . S
C258 H283 0.979 . S
C258 H284 0.980 . S
C258 H285 0.983 . S
C259 C260 1.391 . S
C259 C264 1.391 . S
C259 H289 0.948 . S
C260 C259 1.391 . S
C260 C261 1.391 . S
C261 C260 1.391 . S
C261 C262 1.392 . S
C261 H290 0.947 . S
C262 C261 1.392 . S
C262 C263 1.419 . S
C262 H291 0.948 . S
C263 C262 1.419 . S
C263 C264 1.391 . S
C263 C267 1.397 . S
C264 C259 1.391 . S
C264 C263 1.391 . S
C264 C265 1.399 . S
C265 C264 1.399 . S
C265 C266 1.396 . S
C265 C268 1.453 . S
C265 C269 1.684 . S
C266 C247 1.723 . S
C266 C265 1.396 . S
C266 C267 1.394 . S
C267 C263 1.397 . S
C267 C266 1.394 . S
C267 C277 1.723 . S
C268 C265 1.453 . S
C268 H292 0.982 . S
C268 H293 0.979 . S
C268 H294 0.977 . S
C269 C265 1.684 . S
C269 H295 0.979 . S
C269 H296 0.980 . S
C269 H297 0.983 . S
C270 H246 0.948 . S
C270 C271 1.391 . S
C270 C275 1.391 . S
C271 C270 1.391 . S
C271 C272 1.391 . S
C272 H249 0.947 . S
C272 C271 1.391 . S
C272 C273 1.392 . S
C273 H250 0.948 . S
C273 C272 1.392 . S
C273 C274 1.419 . S
C274 C273 1.419 . S
C274 C275 1.391 . S
C274 C278 1.397 . S
C275 C270 1.391 . S
C275 C274 1.391 . S
C275 C276 1.399 . S
C276 C275 1.399 . S
C276 C277 1.396 . S
C276 C279 1.453 . S
C276 C280 1.684 . S
C277 C267 1.723 . S
C277 C276 1.396 . S
C277 C278 1.394 . S
C278 C248 1.723 . S
C278 C274 1.397 . S
C278 C277 1.394 . S
C279 H251 0.982 . S
C279 H255 0.979 . S
C279 H256 0.977 . S
C279 C276 1.453 . S
C280 H252 0.979 . S
C280 H253 0.980 . S
C280 H254 0.983 . S
C280 C276 1.684 . S
H281 C299 0.948 . S
H282 C240 0.948 . S
H283 C258 0.979 . S
H284 C258 0.980 . S
H285 C258 0.983 . S
H286 C257 0.982 . S
H287 C257 0.979 . S
H288 C257 0.977 . S
H289 C259 0.948 . S
H290 C261 0.947 . S
H291 C262 0.948 . S
H292 C268 0.982 . S
H293 C268 0.979 . S
H294 C268 0.977 . S
H295 C269 0.979 . S
H296 C269 0.980 . S
H297 C269 0.983 . S
H298 C242 0.947 . S
C299 C242 1.392 . S
C299 C243 1.419 . S
C299 H281 0.948 . S
C300 C301 1.391 . S
C300 C304 1.391 . S
C300 H342 0.948 . S
C301 C300 1.391 . S
C301 C302 1.391 . S
C302 C301 1.391 . S
C302 H358 0.947 . S
C302 C359 1.392 . S
C303 C304 1.391 . S
C303 C307 1.397 . S
C303 C359 1.419 . S
C304 C300 1.391 . S
C304 C303 1.391 . S
C304 C305 1.399 . S
C305 C304 1.399 . S
C305 C308 1.396 . S
C305 C317 1.453 . S
C305 C318 1.684 . S
H306 C330 0.948 . S
C307 C303 1.397 . S
C307 C308 1.394 . S
C307 C326 1.723 . S
C308 C305 1.396 . S
C308 C307 1.394 . S
C308 C338 1.723 . S
H309 C332 0.947 . S
H310 C333 0.948 . S
H311 C339 0.982 . S
H312 C340 0.979 . S
H313 C340 0.980 . S
H314 C340 0.983 . S
H315 C339 0.979 . S
H316 C339 0.977 . S
C317 C305 1.453 . S
C317 H346 0.982 . S
C317 H347 0.979 . S
C317 H348 0.977 . S
C318 C305 1.684 . S
C318 H343 0.979 . S
C318 H344 0.980 . S
C318 H345 0.983 . S
C319 C320 1.391 . S
C319 C324 1.391 . S
C319 H349 0.948 . S
C320 C319 1.391 . S
C320 C321 1.391 . S
C321 C320 1.391 . S
C321 C322 1.392 . S
C321 H350 0.947 . S
C322 C321 1.392 . S
C322 C323 1.419 . S
C322 H351 0.948 . S
C323 C322 1.419 . S
C323 C324 1.391 . S
C323 C327 1.397 . S
C324 C319 1.391 . S
C324 C323 1.391 . S
C324 C325 1.399 . S
C325 C324 1.399 . S
C325 C326 1.396 . S
C325 C328 1.453 . S
C325 C329 1.684 . S
C326 C307 1.723 . S
C326 C325 1.396 . S
C326 C327 1.394 . S
C327 C323 1.397 . S
C327 C326 1.394 . S
C327 C337 1.723 . S
C328 C325 1.453 . S
C328 H352 0.982 . S
C328 H353 0.979 . S
C328 H354 0.977 . S
C329 C325 1.684 . S
C329 H355 0.979 . S
C329 H356 0.980 . S
C329 H357 0.983 . S
C330 H306 0.948 . S
C330 C331 1.391 . S
C330 C335 1.391 . S
C331 C330 1.391 . S
C331 C332 1.391 . S
C332 H309 0.947 . S
C332 C331 1.391 . S
C332 C333 1.392 . S
C333 H310 0.948 . S
C333 C332 1.392 . S
C333 C334 1.419 . S
C334 C333 1.419 . S
C334 C335 1.391 . S
C334 C338 1.397 . S
C335 C330 1.391 . S
C335 C334 1.391 . S
C335 C336 1.399 . S
C336 C335 1.399 . S
C336 C337 1.396 . S
C336 C339 1.453 . S
C336 C340 1.684 . S
C337 C327 1.723 . S
C337 C336 1.396 . S
C337 C338 1.394 . S
C338 C308 1.723 . S
C338 C334 1.397 . S
C338 C337 1.394 . S
C339 H311 0.982 . S
C339 H315 0.979 . S
C339 H316 0.977 . S
C339 C336 1.453 . S
C340 H312 0.979 . S
C340 H313 0.980 . S
C340 H314 0.983 . S
C340 C336 1.684 . S
H341 C359 0.948 . S
H342 C300 0.948 . S
H343 C318 0.979 . S
H344 C318 0.980 . S
H345 C318 0.983 . S
H346 C317 0.982 . S
H347 C317 0.979 . S
H348 C317 0.977 . S
H349 C319 0.948 . S
H350 C321 0.947 . S
H351 C322 0.948 . S
H352 C328 0.982 . S
H353 C328 0.979 . S
H354 C328 0.977 . S
H355 C329 0.979 . S
H356 C329 0.980 . S
H357 C329 0.983 . S
H358 C302 0.947 . S
C359 C302 1.392 . S
C359 C303 1.419 . S
C359 H341 0.948 . S
C360 C361 1.391 . S
C360 C364 1.391 . S
C360 H402 0.948 . S
C361 C360 1.391 . S
C361 C362 1.391 . S
C362 C361 1.391 . S
C362 H418 0.947 . S
C362 C419 1.392 . S
C363 C364 1.391 . S
C363 C367 1.397 . S
C363 C419 1.419 . S
C364 C360 1.391 . S
C364 C363 1.391 . S
C364 C365 1.399 . S
C365 C364 1.399 . S
C365 C368 1.396 . S
C365 C377 1.453 . S
C365 C378 1.684 . S
H366 C390 0.948 . S
C367 C363 1.397 . S
C367 C368 1.394 . S
C367 C386 1.723 . S
C368 C365 1.396 . S
C368 C367 1.394 . S
C368 C398 1.723 . S
H369 C392 0.947 . S
H370 C393 0.948 . S
H371 C399 0.982 . S
H372 C400 0.979 . S
H373 C400 0.980 . S
H374 C400 0.983 . S
H375 C399 0.979 . S
H376 C399 0.977 . S
C377 C365 1.453 . S
C377 H406 0.982 . S
C377 H407 0.979 . S
C377 H408 0.977 . S
C378 C365 1.684 . S
C378 H403 0.979 . S
C378 H404 0.980 . S
C378 H405 0.983 . S
C379 C380 1.391 . S
C379 C384 1.391 . S
C379 H409 0.948 . S
C380 C379 1.391 . S
C380 C381 1.391 . S
C381 C380 1.391 . S
C381 C382 1.392 . S
C381 H410 0.947 . S
C382 C381 1.392 . S
C382 C383 1.419 . S
C382 H411 0.948 . S
C383 C382 1.419 . S
C383 C384 1.391 . S
C383 C387 1.397 . S
C384 C379 1.391 . S
C384 C383 1.391 . S
C384 C385 1.399 . S
C385 C384 1.399 . S
C385 C386 1.396 . S
C385 C388 1.453 . S
C385 C389 1.684 . S
C386 C367 1.723 . S
C386 C385 1.396 . S
C386 C387 1.394 . S
C387 C383 1.397 . S
C387 C386 1.394 . S
C387 C397 1.723 . S
C388 C385 1.453 . S
C388 H412 0.982 . S
C388 H413 0.979 . S
C388 H414 0.977 . S
C389 C385 1.684 . S
C389 H415 0.979 . S
C389 H416 0.980 . S
C389 H417 0.983 . S
C390 H366 0.948 . S
C390 C391 1.391 . S
C390 C395 1.391 . S
C391 C390 1.391 . S
C391 C392 1.391 . S
C392 H369 0.947 . S
C392 C391 1.391 . S
C392 C393 1.392 . S
C393 H370 0.948 . S
C393 C392 1.392 . S
C393 C394 1.419 . S
C394 C393 1.419 . S
C394 C395 1.391 . S
C394 C398 1.397 . S
C395 C390 1.391 . S
C395 C394 1.391 . S
C395 C396 1.399 . S
C396 C395 1.399 . S
C396 C397 1.396 . S
C396 C399 1.453 . S
C396 C400 1.684 . S
C397 C387 1.723 . S
C397 C396 1.396 . S
C397 C398 1.394 . S
C398 C368 1.723 . S
C398 C394 1.397 . S
C398 C397 1.394 . S
C399 H371 0.982 . S
C399 H375 0.979 . S
C399 H376 0.977 . S
C399 C396 1.453 . S
C400 H372 0.979 . S
C400 H373 0.980 . S
C400 H374 0.983 . S
C400 C396 1.684 . S
H401 C419 0.948 . S
H402 C360 0.948 . S
H403 C378 0.979 . S
H404 C378 0.980 . S
H405 C378 0.983 . S
H406 C377 0.982 . S
H407 C377 0.979 . S
H408 C377 0.977 . S
H409 C379 0.948 . S
H410 C381 0.947 . S
H411 C382 0.948 . S
H412 C388 0.982 . S
H413 C388 0.979 . S
H414 C388 0.977 . S
H415 C389 0.979 . S
H416 C389 0.980 . S
H417 C389 0.983 . S
H418 C362 0.947 . S
C419 C362 1.392 . S
C419 C363 1.419 . S
C419 H401 0.948 . S
C420 C421 1.391 . S
C420 C424 1.391 . S
C420 H462 0.948 . S
C421 C420 1.391 . S
C421 C422 1.391 . S
C422 C421 1.391 . S
C422 H478 0.947 . S
C422 C479 1.392 . S
C423 C424 1.391 . S
C423 C427 1.397 . S
C423 C479 1.419 . S
C424 C420 1.391 . S
C424 C423 1.391 . S
C424 C425 1.399 . S
C425 C424 1.399 . S
C425 C428 1.396 . S
C425 C437 1.453 . S
C425 C438 1.684 . S
H426 C450 0.948 . S
C427 C423 1.397 . S
C427 C428 1.394 . S
C427 C446 1.723 . S
C428 C425 1.396 . S
C428 C427 1.394 . S
C428 C458 1.723 . S
H429 C452 0.947 . S
H430 C453 0.948 . S
H431 C459 0.982 . S
H432 C460 0.979 . S
H433 C460 0.980 . S
H434 C460 0.983 . S
H435 C459 0.979 . S
H436 C459 0.977 . S
C437 C425 1.453 . S
C437 H466 0.982 . S
C437 H467 0.979 . S
C437 H468 0.977 . S
C438 C425 1.684 . S
C438 H463 0.979 . S
C438 H464 0.980 . S
C438 H465 0.983 . S
C439 C440 1.391 . S
C439 C444 1.391 . S
C439 H469 0.948 . S
C440 C439 1.391 . S
C440 C441 1.391 . S
C441 C440 1.391 . S
C441 C442 1.392 . S
C441 H470 0.947 . S
C442 C441 1.392 . S
C442 C443 1.419 . S
C442 H471 0.948 . S
C443 C442 1.419 . S
C443 C444 1.391 . S
C443 C447 1.397 . S
C444 C439 1.391 . S
C444 C443 1.391 . S
C444 C445 1.399 . S
C445 C444 1.399 . S
C445 C446 1.396 . S
C445 C448 1.453 . S
C445 C449 1.684 . S
C446 C427 1.723 . S
C446 C445 1.396 . S
C446 C447 1.394 . S
C447 C443 1.397 . S
C447 C446 1.394 . S
C447 C457 1.723 . S
C448 C445 1.453 . S
C448 H472 0.982 . S
C448 H473 0.979 . S
C448 H474 0.977 . S
C449 C445 1.684 . S
C449 H475 0.979 . S
C449 H476 0.980 . S
C449 H477 0.983 . S
C450 H426 0.948 . S
C450 C451 1.391 . S
C450 C455 1.391 . S
C451 C450 1.391 . S
C451 C452 1.391 . S
C452 H429 0.947 . S
C452 C451 1.391 . S
C452 C453 1.392 . S
C453 H430 0.948 . S
C453 C452 1.392 . S
C453 C454 1.419 . S
C454 C453 1.419 . S
C454 C455 1.391 . S
C454 C458 1.397 . S
C455 C450 1.391 . S
C455 C454 1.391 . S
C455 C456 1.399 . S
C456 C455 1.399 . S
C456 C457 1.396 . S
C456 C459 1.453 . S
C456 C460 1.684 . S
C457 C447 1.723 . S
C457 C456 1.396 . S
C457 C458 1.394 . S
C458 C428 1.723 . S
C458 C454 1.397 . S
C458 C457 1.394 . S
C459 H431 0.982 . S
C459 H435 0.979 . S
C459 H436 0.977 . S
C459 C456 1.453 . S
C460 H432 0.979 . S
C460 H433 0.980 . S
C460 H434 0.983 . S
C460 C456 1.684 . S
H461 C479 0.948 . S
H462 C420 0.948 . S
H463 C438 0.979 . S
H464 C438 0.980 . S
H465 C438 0.983 . S
H466 C437 0.982 . S
H467 C437 0.979 . S
H468 C437 0.977 . S
H469 C439 0.948 . S
H470 C441 0.947 . S
H471 C442 0.948 . S
H472 C448 0.982 . S
H473 C448 0.979 . S
H474 C448 0.977 . S
H475 C449 0.979 . S
H476 C449 0.980 . S
H477 C449 0.983 . S
H478 C422 0.947 . S
C479 C422 1.392 . S
C479 C423 1.419 . S
C479 H461 0.948 . S
C480 C481 1.391 . S
C480 C484 1.391 . S
C480 H522 0.948 . S
C481 C480 1.391 . S
C481 C482 1.391 . S
C482 C481 1.391 . S
C482 H538 0.947 . S
C482 C539 1.392 . S
C483 C484 1.391 . S
C483 C487 1.397 . S
C483 C539 1.419 . S
C484 C480 1.391 . S
C484 C483 1.391 . S
C484 C485 1.399 . S
C485 C484 1.399 . S
C485 C488 1.396 . S
C485 C497 1.453 . S
C485 C498 1.684 . S
H486 C510 0.948 . S
C487 C483 1.397 . S
C487 C488 1.394 . S
C487 C506 1.723 . S
C488 C485 1.396 . S
C488 C487 1.394 . S
C488 C518 1.723 . S
H489 C512 0.947 . S
H490 C513 0.948 . S
H491 C519 0.982 . S
H492 C520 0.979 . S
H493 C520 0.980 . S
H494 C520 0.983 . S
H495 C519 0.979 . S
H496 C519 0.977 . S
C497 C485 1.453 . S
C497 H526 0.982 . S
C497 H527 0.979 . S
C497 H528 0.977 . S
C498 C485 1.684 . S
C498 H523 0.979 . S
C498 H524 0.980 . S
C498 H525 0.983 . S
C499 C500 1.391 . S
C499 C504 1.391 . S
C499 H529 0.948 . S
C500 C499 1.391 . S
C500 C501 1.391 . S
C501 C500 1.391 . S
C501 C502 1.392 . S
C501 H530 0.947 . S
C502 C501 1.392 . S
C502 C503 1.419 . S
C502 H531 0.948 . S
C503 C502 1.419 . S
C503 C504 1.391 . S
C503 C507 1.397 . S
C504 C499 1.391 . S
C504 C503 1.391 . S
C504 C505 1.399 . S
C505 C504 1.399 . S
C505 C506 1.396 . S
C505 C508 1.453 . S
C505 C509 1.684 . S
C506 C487 1.723 . S
C506 C505 1.396 . S
C506 C507 1.394 . S
C507 C503 1.397 . S
C507 C506 1.394 . S
C507 C517 1.723 . S
C508 C505 1.453 . S
C508 H532 0.982 . S
C508 H533 0.979 . S
C508 H534 0.977 . S
C509 C505 1.684 . S
C509 H535 0.979 . S
C509 H536 0.980 . S
C509 H537 0.983 . S
C510 H486 0.948 . S
C510 C511 1.391 . S
C510 C515 1.391 . S
C511 C510 1.391 . S
C511 C512 1.391 . S
C512 H489 0.947 . S
C512 C511 1.391 . S
C512 C513 1.392 . S
C513 H490 0.948 . S
C513 C512 1.392 . S
C513 C514 1.419 . S
C514 C513 1.419 . S
C514 C515 1.391 . S
C514 C518 1.397 . S
C515 C510 1.391 . S
C515 C514 1.391 . S
C515 C516 1.399 . S
C516 C515 1.399 . S
C516 C517 1.396 . S
C516 C519 1.453 . S
C516 C520 1.684 . S
C517 C507 1.723 . S
C517 C516 1.396 . S
C517 C518 1.394 . S
C518 C488 1.723 . S
C518 C514 1.397 . S
C518 C517 1.394 . S
C519 H491 0.982 . S
C519 H495 0.979 . S
C519 H496 0.977 . S
C519 C516 1.453 . S
C520 H492 0.979 . S
C520 H493 0.980 . S
C520 H494 0.983 . S
C520 C516 1.684 . S
H521 C539 0.948 . S
H522 C480 0.948 . S
H523 C498 0.979 . S
H524 C498 0.980 . S
H525 C498 0.983 . S
H526 C497 0.982 . S
H527 C497 0.979 . S
H528 C497 0.977 . S
H529 C499 0.948 . S
H530 C501 0.947 . S
H531 C502 0.948 . S
H532 C508 0.982 . S
H533 C508 0.979 . S
H534 C508 0.977 . S
H535 C509 0.979 . S
H536 C509 0.980 . S
H537 C509 0.983 . S
H538 C482 0.947 . S
C539 C482 1.392 . S
C539 C483 1.419 . S
C539 H521 0.948 . S
C540 C541 1.391 . S
C540 C544 1.391 . S
C540 H582 0.948 . S
C541 C540 1.391 . S
C541 C542 1.391 . S
C542 C541 1.391 . S
C542 H598 0.947 . S
C542 C599 1.392 . S
C543 C544 1.391 . S
C543 C547 1.397 . S
C543 C599 1.419 . S
C544 C540 1.391 . S
C544 C543 1.391 . S
C544 C545 1.399 . S
C545 C544 1.399 . S
C545 C548 1.396 . S
C545 C557 1.453 . S
C545 C558 1.684 . S
H546 C570 0.948 . S
C547 C543 1.397 . S
C547 C548 1.394 . S
C547 C566 1.723 . S
C548 C545 1.396 . S
C548 C547 1.394 . S
C548 C578 1.723 . S
H549 C572 0.947 . S
H550 C573 0.948 . S
H551 C579 0.982 . S
H552 C580 0.979 . S
H553 C580 0.980 . S
H554 C580 0.983 . S
H555 C579 0.979 . S
H556 C579 0.977 . S
C557 C545 1.453 . S
C557 H586 0.982 . S
C557 H587 0.979 . S
C557 H588 0.977 . S
C558 C545 1.684 . S
C558 H583 0.979 . S
C558 H584 0.980 . S
C558 H585 0.983 . S
C559 C560 1.391 . S
C559 C564 1.391 . S
C559 H589 0.948 . S
C560 C559 1.391 . S
C560 C561 1.391 . S
C561 C560 1.391 . S
C561 C562 1.392 . S
C561 H590 0.947 . S
C562 C561 1.392 . S
C562 C563 1.419 . S
C562 H591 0.948 . S
C563 C562 1.419 . S
C563 C564 1.391 . S
C563 C567 1.397 . S
C564 C559 1.391 . S
C564 C563 1.391 . S
C564 C565 1.399 . S
C565 C564 1.399 . S
C565 C566 1.396 . S
C565 C568 1.453 . S
C565 C569 1.684 . S
C566 C547 1.723 . S
C566 C565 1.396 . S
C566 C567 1.394 . S
C567 C563 1.397 . S
C567 C566 1.394 . S
C567 C577 1.723 . S
C568 C565 1.453 . S
C568 H592 0.982 . S
C568 H593 0.979 . S
C568 H594 0.977 . S
C569 C565 1.684 . S
C569 H595 0.979 . S
C569 H596 0.980 . S
C569 H597 0.983 . S
C570 H546 0.948 . S
C570 C571 1.391 . S
C570 C575 1.391 . S
C571 C570 1.391 . S
C571 C572 1.391 . S
C572 H549 0.947 . S
C572 C571 1.391 . S
C572 C573 1.392 . S
C573 H550 0.948 . S
C573 C572 1.392 . S
C573 C574 1.419 . S
C574 C573 1.419 . S
C574 C575 1.391 . S
C574 C578 1.397 . S
C575 C570 1.391 . S
C575 C574 1.391 . S
C575 C576 1.399 . S
C576 C575 1.399 . S
C576 C577 1.396 . S
C576 C579 1.453 . S
C576 C580 1.684 . S
C577 C567 1.723 . S
C577 C576 1.396 . S
C577 C578 1.394 . S
C578 C548 1.723 . S
C578 C574 1.397 . S
C578 C577 1.394 . S
C579 H551 0.982 . S
C579 H555 0.979 . S
C579 H556 0.977 . S
C579 C576 1.453 . S
C580 H552 0.979 . S
C580 H553 0.980 . S
C580 H554 0.983 . S
C580 C576 1.684 . S
H581 C599 0.948 . S
H582 C540 0.948 . S
H583 C558 0.979 . S
H584 C558 0.980 . S
H585 C558 0.983 . S
H586 C557 0.982 . S
H587 C557 0.979 . S
H588 C557 0.977 . S
H589 C559 0.948 . S
H590 C561 0.947 . S
H591 C562 0.948 . S
H592 C568 0.982 . S
H593 C568 0.979 . S
H594 C568 0.977 . S
H595 C569 0.979 . S
H596 C569 0.980 . S
H597 C569 0.983 . S
H598 C542 0.947 . S
C599 C542 1.392 . S
C599 C543 1.419 . S
C599 H581 0.948 . S
C600 C601 1.391 . S
C600 C604 1.391 . S
C600 H642 0.948 . S
C601 C600 1.391 . S
C601 C602 1.391 . S
C602 C601 1.391 . S
C602 H658 0.947 . S
C602 C659 1.392 . S
C603 C604 1.391 . S
C603 C607 1.397 . S
C603 C659 1.419 . S
C604 C600 1.391 . S
C604 C603 1.391 . S
C604 C605 1.399 . S
C605 C604 1.399 . S
C605 C608 1.396 . S
C605 C617 1.453 . S
C605 C618 1.684 . S
H606 C630 0.948 . S
C607 C603 1.397 . S
C607 C608 1.394 . S
C607 C626 1.723 . S
C608 C605 1.396 . S
C608 C607 1.394 . S
C608 C638 1.723 . S
H609 C632 0.947 . S
H610 C633 0.948 . S
H611 C639 0.982 . S
H612 C640 0.979 . S
H613 C640 0.980 . S
H614 C640 0.983 . S
H615 C639 0.979 . S
H616 C639 0.977 . S
C617 C605 1.453 . S
C617 H646 0.982 . S
C617 H647 0.979 . S
C617 H648 0.977 . S
C618 C605 1.684 . S
C618 H643 0.979 . S
C618 H644 0.980 . S
C618 H645 0.983 . S
C619 C620 1.391 . S
C619 C624 1.391 . S
C619 H649 0.948 . S
C620 C619 1.391 . S
C620 C621 1.391 . S
C621 C620 1.391 . S
C621 C622 1.392 . S
C621 H650 0.947 . S
C622 C621 1.392 . S
C622 C623 1.419 . S
C622 H651 0.948 . S
C623 C622 1.419 . S
C623 C624 1.391 . S
C623 C627 1.397 . S
C624 C619 1.391 . S
C624 C623 1.391 . S
C624 C625 1.399 . S
C625 C624 1.399 . S
C625 C626 1.396 . S
C625 C628 1.453 . S
C625 C629 1.684 . S
C626 C607 1.723 . S
C626 C625 1.396 . S
C626 C627 1.394 . S
C627 C623 1.397 . S
C627 C626 1.394 . S
C627 C637 1.723 . S
C628 C625 1.453 . S
C628 H652 0.982 . S
C628 H653 0.979 . S
C628 H654 0.977 . S
C629 C625 1.684 . S
C629 H655 0.979 . S
C629 H656 0.980 . S
C629 H657 0.983 . S
C630 H606 0.948 . S
C630 C631 1.391 . S
C630 C635 1.391 . S
C631 C630 1.391 . S
C631 C632 1.391 . S
C632 H609 0.947 . S
C632 C631 1.391 . S
C632 C633 1.392 . S
C633 H610 0.948 . S
C633 C632 1.392 . S
C633 C634 1.419 . S
C634 C633 1.419 . S
C634 C635 1.391 . S
C634 C638 1.397 . S
C635 C630 1.391 . S
C635 C634 1.391 . S
C635 C636 1.399 . S
C636 C635 1.399 . S
C636 C637 1.396 . S
C636 C639 1.453 . S
C636 C640 1.684 . S
C637 C627 1.723 . S
C637 C636 1.396 . S
C637 C638 1.394 . S
C638 C608 1.723 . S
C638 C634 1.397 . S
C638 C637 1.394 . S
C639 H611 0.982 . S
C639 H615 0.979 . S
C639 H616 0.977 . S
C639 C636 1.453 . S
C640 H612 0.979 . S
C640 H613 0.980 . S
C640 H614 0.983 . S
C640 C636 1.684 . S
H641 C659 0.948 . S
H642 C600 0.948 . S
H643 C618 0.979 . S
H644 C618 0.980 . S
H645 C618 0.983 . S
H646 C617 0.982 . S
H647 C617 0.979 . S
H648 C617 0.977 . S
H649 C619 0.948 . S
H650 C621 0.947 . S
H651 C622 0.948 . S
H652 C628 0.982 . S
H653 C628 0.979 . S
H654 C628 0.977 . S
H655 C629 0.979 . S
H656 C629 0.980 . S
H657 C629 0.983 . S
H658 C602 0.947 . S
C659 C602 1.392 . S
C659 C603 1.419 . S
C659 H641 0.948 . S
C660 C661 1.391 . S
C660 C664 1.391 . S
C660 H702 0.948 . S
C661 C660 1.391 . S
C661 C662 1.391 . S
C662 C661 1.391 . S
C662 H718 0.947 . S
C662 C719 1.392 . S
C663 C664 1.391 . S
C663 C667 1.397 . S
C663 C719 1.419 . S
C664 C660 1.391 . S
C664 C663 1.391 . S
C664 C665 1.399 . S
C665 C664 1.399 . S
C665 C668 1.396 . S
C665 C677 1.453 . S
C665 C678 1.684 . S
H666 C690 0.948 . S
C667 C663 1.397 . S
C667 C668 1.394 . S
C667 C686 1.723 . S
C668 C665 1.396 . S
C668 C667 1.394 . S
C668 C698 1.723 . S
H669 C692 0.947 . S
H670 C693 0.948 . S
H671 C699 0.982 . S
H672 C700 0.979 . S
H673 C700 0.980 . S
H674 C700 0.983 . S
H675 C699 0.979 . S
H676 C699 0.977 . S
C677 C665 1.453 . S
C677 H706 0.982 . S
C677 H707 0.979 . S
C677 H708 0.977 . S
C678 C665 1.684 . S
C678 H703 0.979 . S
C678 H704 0.980 . S
C678 H705 0.983 . S
C679 C680 1.391 . S
C679 C684 1.391 . S
C679 H709 0.948 . S
C680 C679 1.391 . S
C680 C681 1.391 . S
C681 C680 1.391 . S
C681 C682 1.392 . S
C681 H710 0.947 . S
C682 C681 1.392 . S
C682 C683 1.419 . S
C682 H711 0.948 . S
C683 C682 1.419 . S
C683 C684 1.391 . S
C683 C687 1.397 . S
C684 C679 1.391 . S
C684 C683 1.391 . S
C684 C685 1.399 . S
C685 C684 1.399 . S
C685 C686 1.396 . S
C685 C688 1.453 . S
C685 C689 1.684 . S
C686 C667 1.723 . S
C686 C685 1.396 . S
C686 C687 1.394 . S
C687 C683 1.397 . S
C687 C686 1.394 . S
C687 C697 1.723 . S
C688 C685 1.453 . S
C688 H712 0.982 . S
C688 H713 0.979 . S
C688 H714 0.977 . S
C689 C685 1.684 . S
C689 H715 0.979 . S
C689 H716 0.980 . S
C689 H717 0.983 . S
C690 H666 0.948 . S
C690 C691 1.391 . S
C690 C695 1.391 . S
C691 C690 1.391 . S
C691 C692 1.391 . S
C692 H669 0.947 . S
C692 C691 1.391 . S
C692 C693 1.392 . S
C693 H670 0.948 . S
C693 C692 1.392 . S
C693 C694 1.419 . S
C694 C693 1.419 . S
C694 C695 1.391 . S
C694 C698 1.397 . S
C695 C690 1.391 . S
C695 C694 1.391 . S
C695 C696 1.399 . S
C696 C695 1.399 . S
C696 C697 1.396 . S
C696 C699 1.453 . S
C696 C700 1.684 . S
C697 C687 1.723 . S
C697 C696 1.396 . S
C697 C698 1.394 . S
C698 C668 1.723 . S
C698 C694 1.397 . S
C698 C697 1.394 . S
C699 H671 0.982 . S
C699 H675 0.979 . S
C699 H676 0.977 . S
C699 C696 1.453 . S
C700 H672 0.979 . S
C700 H673 0.980 . S
C700 H674 0.983 . S
C700 C696 1.684 . S
H701 C719 0.948 . S
H702 C660 0.948 . S
H703 C678 0.979 . S
H704 C678 0.980 . S
H705 C678 0.983 . S
H706 C677 0.982 . S
H707 C677 0.979 . S
H708 C677 0.977 . S
H709 C679 0.948 . S
H710 C681 0.947 . S
H711 C682 0.948 . S
H712 C688 0.982 . S
H713 C688 0.979 . S
H714 C688 0.977 . S
H715 C689 0.979 . S
H716 C689 0.980 . S
H717 C689 0.983 . S
H718 C662 0.947 . S
C719 C662 1.392 . S
C719 C663 1.419 . S
C719 H701 0.948 . S
C720 C721 1.391 . S
C720 C724 1.391 . S
C720 H762 0.948 . S
C721 C720 1.391 . S
C721 C722 1.391 . S
C722 C721 1.391 . S
C722 H778 0.947 . S
C722 C779 1.392 . S
C723 C724 1.391 . S
C723 C727 1.397 . S
C723 C779 1.419 . S
C724 C720 1.391 . S
C724 C723 1.391 . S
C724 C725 1.399 . S
C725 C724 1.399 . S
C725 C728 1.396 . S
C725 C737 1.453 . S
C725 C738 1.684 . S
H726 C750 0.948 . S
C727 C723 1.397 . S
C727 C728 1.394 . S
C727 C746 1.723 . S
C728 C725 1.396 . S
C728 C727 1.394 . S
C728 C758 1.723 . S
H729 C752 0.947 . S
H730 C753 0.948 . S
H731 C759 0.982 . S
H732 C760 0.979 . S
H733 C760 0.980 . S
H734 C760 0.983 . S
H735 C759 0.979 . S
H736 C759 0.977 . S
C737 C725 1.453 . S
C737 H766 0.982 . S
C737 H767 0.979 . S
C737 H768 0.977 . S
C738 C725 1.684 . S
C738 H763 0.979 . S
C738 H764 0.980 . S
C738 H765 0.983 . S
C739 C740 1.391 . S
C739 C744 1.391 . S
C739 H769 0.948 . S
C740 C739 1.391 . S
C740 C741 1.391 . S
C741 C740 1.391 . S
C741 C742 1.392 . S
C741 H770 0.947 . S
C742 C741 1.392 . S
C742 C743 1.419 . S
C742 H771 0.948 . S
C743 C742 1.419 . S
C743 C744 1.391 . S
C743 C747 1.397 . S
C744 C739 1.391 . S
C744 C743 1.391 . S
C744 C745 1.399 . S
C745 C744 1.399 . S
C745 C746 1.396 . S
C745 C748 1.453 . S
C745 C749 1.684 . S
C746 C727 1.723 . S
C746 C745 1.396 . S
C746 C747 1.394 . S
C747 C743 1.397 . S
C747 C746 1.394 . S
C747 C757 1.723 . S
C748 C745 1.453 . S
C748 H772 0.982 . S
C748 H773 0.979 . S
C748 H774 0.977 . S
C749 C745 1.684 . S
C749 H775 0.979 . S
C749 H776 0.980 . S
C749 H777 0.983 . S
C750 H726 0.948 . S
C750 C751 1.391 . S
C750 C755 1.391 . S
C751 C750 1.391 . S
C751 C752 1.391 . S
C752 H729 0.947 . S
C752 C751 1.391 . S
C752 C753 1.392 . S
C753 H730 0.948 . S
C753 C752 1.392 . S
C753 C754 1.419 . S
C754 C753 1.419 . S
C754 C755 1.391 . S
C754 C758 1.397 . S
C755 C750 1.391 . S
C755 C754 1.391 . S
C755 C756 1.399 . S
C756 C755 1.399 . S
C756 C757 1.396 . S
C756 C759 1.453 . S
C756 C760 1.684 . S
C757 C747 1.723 . S
C757 C756 1.396 . S
C757 C758 1.394 . S
C758 C728 1.723 . S
C758 C754 1.397 . S
C758 C757 1.394 . S
C759 H731 0.982 . S
C759 H735 0.979 . S
C759 H736 0.977 . S
C759 C756 1.453 . S
C760 H732 0.979 . S
C760 H733 0.980 . S
C760 H734 0.983 . S
C760 C756 1.684 . S
H761 C779 0.948 . S
H762 C720 0.948 . S
H763 C738 0.979 . S
H764 C738 0.980 . S
H765 C738 0.983 . S
H766 C737 0.982 . S
H767 C737 0.979 . S
H768 C737 0.977 . S
H769 C739 0.948 . S
H770 C741 0.947 . S
H771 C742 0.948 . S
H772 C748 0.982 . S
H773 C748 0.979 . S
H774 C748 0.977 . S
H775 C749 0.979 . S
H776 C749 0.980 . S
H777 C749 0.983 . S
H778 C722 0.947 . S
C779 C722 1.392 . S
C779 C723 1.419 . S
C779 H761 0.948 . S
C780 C781 1.391 . S
C780 C784 1.391 . S
C780 H822 0.948 . S
C781 C780 1.391 . S
C781 C782 1.391 . S
C782 C781 1.391 . S
C782 H838 0.947 . S
C782 C839 1.392 . S
C783 C784 1.391 . S
C783 C787 1.397 . S
C783 C839 1.419 . S
C784 C780 1.391 . S
C784 C783 1.391 . S
C784 C785 1.399 . S
C785 C784 1.399 . S
C785 C788 1.396 . S
C785 C797 1.453 . S
C785 C798 1.684 . S
H786 C810 0.948 . S
C787 C783 1.397 . S
C787 C788 1.394 . S
C787 C806 1.723 . S
C788 C785 1.396 . S
C788 C787 1.394 . S
C788 C818 1.723 . S
H789 C812 0.947 . S
H790 C813 0.948 . S
H791 C819 0.982 . S
H792 C820 0.979 . S
H793 C820 0.980 . S
H794 C820 0.983 . S
H795 C819 0.979 . S
H796 C819 0.977 . S
C797 C785 1.453 . S
C797 H826 0.982 . S
C797 H827 0.979 . S
C797 H828 0.977 . S
C798 C785 1.684 . S
C798 H823 0.979 . S
C798 H824 0.980 . S
C798 H825 0.983 . S
C799 C800 1.391 . S
C799 C804 1.391 . S
C799 H829 0.948 . S
C800 C799 1.391 . S
C800 C801 1.391 . S
C801 C800 1.391 . S
C801 C802 1.392 . S
C801 H830 0.947 . S
C802 C801 1.392 . S
C802 C803 1.419 . S
C802 H831 0.948 . S
C803 C802 1.419 . S
C803 C804 1.391 . S
C803 C807 1.397 . S
C804 C799 1.391 . S
C804 C803 1.391 . S
C804 C805 1.399 . S
C805 C804 1.399 . S
C805 C806 1.396 . S
C805 C808 1.453 . S
C805 C809 1.684 . S
C806 C787 1.723 . S
C806 C805 1.396 . S
C806 C807 1.394 . S
C807 C803 1.397 . S
C807 C806 1.394 . S
C807 C817 1.723 . S
C808 C805 1.453 . S
C808 H832 0.982 . S
C808 H833 0.979 . S
C808 H834 0.977 . S
C809 C805 1.684 . S
C809 H835 0.979 . S
C809 H836 0.980 . S
C809 H837 0.983 . S
C810 H786 0.948 . S
C810 C811 1.391 . S
C810 C815 1.391 . S
C811 C810 1.391 . S
C811 C812 1.391 . S
C812 H789 0.947 . S
C812 C811 1.391 . S
C812 C813 1.392 . S
C813 H790 0.948 . S
C813 C812 1.392 . S
C813 C814 1.419 . S
C814 C813 1.419 . S
C814 C815 1.391 . S
C814 C818 1.397 . S
C815 C810 1.391 . S
C815 C814 1.391 . S
C815 C816 1.399 . S
C816 C815 1.399 . S
C816 C817 1.396 . S
C816 C819 1.453 . S
C816 C820 1.684 . S
C817 C807 1.723 . S
C817 C816 1.396 . S
C817 C818 1.394 . S
C818 C788 1.723 . S
C818 C814 1.397 . S
C818 C817 1.394 . S
C819 H791 0.982 . S
C819 H795 0.979 . S
C819 H796 0.977 . S
C819 C816 1.453 . S
C820 H792 0.979 . S
C820 H793 0.980 . S
C820 H794 0.983 . S
C820 C816 1.684 . S
H821 C839 0.948 . S
H822 C780 0.948 . S
H823 C798 0.979 . S
H824 C798 0.980 . S
H825 C798 0.983 . S
H826 C797 0.982 . S
H827 C797 0.979 . S
H828 C797 0.977 . S
H829 C799 0.948 . S
H830 C801 0.947 . S
H831 C802 0.948 . S
H832 C808 0.982 . S
H833 C808 0.979 . S
H834 C808 0.977 . S
H835 C809 0.979 . S
H836 C809 0.980 . S
H837 C809 0.983 . S
H838 C782 0.947 . S
C839 C782 1.392 . S
C839 C783 1.419 . S
C839 H821 0.948 . S
C840 C841 1.391 . S
C840 C844 1.391 . S
C840 H882 0.948 . S
C841 C840 1.391 . S
C841 C842 1.391 . S
C842 C841 1.391 . S
C842 H898 0.947 . S
C842 C899 1.392 . S
C843 C844 1.391 . S
C843 C847 1.397 . S
C843 C899 1.419 . S
C844 C840 1.391 . S
C844 C843 1.391 . S
C844 C845 1.399 . S
C845 C844 1.399 . S
C845 C848 1.396 . S
C845 C857 1.453 . S
C845 C858 1.684 . S
H846 C870 0.948 . S
C847 C843 1.397 . S
C847 C848 1.394 . S
C847 C866 1.723 . S
C848 C845 1.396 . S
C848 C847 1.394 . S
C848 C878 1.723 . S
H849 C872 0.947 . S
H850 C873 0.948 . S
H851 C879 0.982 . S
H852 C880 0.979 . S
H853 C880 0.980 . S
H854 C880 0.983 . S
H855 C879 0.979 . S
H856 C879 0.977 . S
C857 C845 1.453 . S
C857 H886 0.982 . S
C857 H887 0.979 . S
C857 H888 0.977 . S
C858 C845 1.684 . S
C858 H883 0.979 . S
C858 H884 0.980 . S
C858 H885 0.983 . S
C859 C860 1.391 . S
C859 C864 1.391 . S
C859 H889 0.948 . S
C860 C859 1.391 . S
C860 C861 1.391 . S
C861 C860 1.391 . S
C861 C862 1.392 . S
C861 H890 0.947 . S
C862 C861 1.392 . S
C862 C863 1.419 . S
C862 H891 0.948 . S
C863 C862 1.419 . S
C863 C864 1.391 . S
C863 C867 1.397 . S
C864 C859 1.391 . S
C864 C863 1.391 . S
C864 C865 1.399 . S
C865 C864 1.399 . S
C865 C866 1.396 . S
C865 C868 1.453 . S
C865 C869 1.684 . S
C866 C847 1.723 . S
C866 C865 1.396 . S
C866 C867 1.394 . S
C867 C863 1.397 . S
C867 C866 1.394 . S
C867 C877 1.723 . S
C868 C865 1.453 . S
C868 H892 0.982 . S
C868 H893 0.979 . S
C868 H894 0.977 . S
C869 C865 1.684 . S
C869 H895 0.979 . S
C869 H896 0.980 . S
C869 H897 0.983 . S
C870 H846 0.948 . S
C870 C871 1.391 . S
C870 C875 1.391 . S
C871 C870 1.391 . S
C871 C872 1.391 . S
C872 H849 0.947 . S
C872 C871 1.391 . S
C872 C873 1.392 . S
C873 H850 0.948 . S
C873 C872 1.392 . S
C873 C874 1.419 . S
C874 C873 1.419 . S
C874 C875 1.391 . S
C874 C878 1.397 . S
C875 C870 1.391 . S
C875 C874 1.391 . S
C875 C876 1.399 . S
C876 C875 1.399 . S
C876 C877 1.396 . S
C876 C879 1.453 . S
C876 C880 1.684 . S
C877 C867 1.723 . S
C877 C876 1.396 . S
C877 C878 1.394 . S
C878 C848 1.723 . S
C878 C874 1.397 . S
C878 C877 1.394 . S
C879 H851 0.982 . S
C879 H855 0.979 . S
C879 H856 0.977 . S
C879 C876 1.453 . S
C880 H852 0.979 . S
C880 H853 0.980 . S
C880 H854 0.983 . S
C880 C876 1.684 . S
H881 C899 0.948 . S
H882 C840 0.948 . S
H883 C858 0.979 . S
H884 C858 0.980 . S
H885 C858 0.983 . S
H886 C857 0.982 . S
H887 C857 0.979 . S
H888 C857 0.977 . S
H889 C859 0.948 . S
H890 C861 0.947 . S
H891 C862 0.948 . S
H892 C868 0.982 . S
H893 C868 0.979 . S
H894 C868 0.977 . S
H895 C869 0.979 . S
H896 C869 0.980 . S
H897 C869 0.983 . S
H898 C842 0.947 . S
C899 C842 1.392 . S
C899 C843 1.419 . S
C899 H881 0.948 . S
C900 C901 1.391 . S
C900 C904 1.391 . S
C900 H942 0.948 . S
C901 C900 1.391 . S
C901 C902 1.391 . S
C902 C901 1.391 . S
C902 H958 0.947 . S
C902 C959 1.392 . S
C903 C904 1.391 . S
C903 C907 1.397 . S
C903 C959 1.419 . S
C904 C900 1.391 . S
C904 C903 1.391 . S
C904 C905 1.399 . S
C905 C904 1.399 . S
C905 C908 1.396 . S
C905 C917 1.453 . S
C905 C918 1.684 . S
H906 C930 0.948 . S
C907 C903 1.397 . S
C907 C908 1.394 . S
C907 C926 1.723 . S
C908 C905 1.396 . S
C908 C907 1.394 . S
C908 C938 1.723 . S
H909 C932 0.947 . S
H910 C933 0.948 . S
H911 C939 0.982 . S
H912 C940 0.979 . S
H913 C940 0.980 . S
H914 C940 0.983 . S
H915 C939 0.979 . S
H916 C939 0.977 . S
C917 C905 1.453 . S
C917 H946 0.982 . S
C917 H947 0.979 . S
C917 H948 0.977 . S
C918 C905 1.684 . S
C918 H943 0.979 . S
C918 H944 0.980 . S
C918 H945 0.983 . S
C919 C920 1.391 . S
C919 C924 1.391 . S
C919 H949 0.948 . S
C920 C919 1.391 . S
C920 C921 1.391 . S
C921 C920 1.391 . S
C921 C922 1.392 . S
C921 H950 0.947 . S
C922 C921 1.392 . S
C922 C923 1.419 . S
C922 H951 0.948 . S
C923 C922 1.419 . S
C923 C924 1.391 . S
C923 C927 1.397 . S
C924 C919 1.391 . S
C924 C923 1.391 . S
C924 C925 1.399 . S
C925 C924 1.399 . S
C925 C926 1.396 . S
C925 C928 1.453 . S
C925 C929 1.684 . S
C926 C907 1.723 . S
C926 C925 1.396 . S
C926 C927 1.394 . S
C927 C923 1.397 . S
C927 C926 1.394 . S
C927 C937 1.723 . S
C928 C925 1.453 . S
C928 H952 0.982 . S
C928 H953 0.979 . S
C928 H954 0.977 . S
C929 C925 1.684 . S
C929 H955 0.979 . S
C929 H956 0.980 . S
C929 H957 0.983 . S
C930 H906 0.948 . S
C930 C931 1.391 . S
C930 C935 1.391 . S
C931 C930 1.391 . S
C931 C932 1.391 . S
C932 H909 0.947 . S
C932 C931 1.391 . S
C932 C933 1.392 . S
C933 H910 0.948 . S
C933 C932 1.392 . S
C933 C934 1.419 . S
C934 C933 1.419 . S
C934 C935 1.391 . S
C934 C938 1.397 . S
C935 C930 1.391 . S
C935 C934 1.391 . S
C935 C936 1.399 . S
C936 C935 1.399 . S
C936 C937 1.396 . S
C936 C939 1.453 . S
C936 C940 1.684 . S
C937 C927 1.723 . S
C937 C936 1.396 . S
C937 C938 1.394 . S
C938 C908 1.723 . S
C938 C934 1.397 . S
C938 C937 1.394 . S
C939 H911 0.982 . S
C939 H915 0.979 . S
C939 H916 0.977 . S
C939 C936 1.453 . S
C940 H912 0.979 . S
C940 H913 0.980 . S
C940 H914 0.983 . S
C940 C936 1.684 . S
H941 C959 0.948 . S
H942 C900 0.948 . S
H943 C918 0.979 . S
H944 C918 0.980 . S
H945 C918 0.983 . S
H946 C917 0.982 . S
H947 C917 0.979 . S
H948 C917 0.977 . S
H949 C919 0.948 . S
H950 C921 0.947 . S
H951 C922 0.948 . S
H952 C928 0.982 . S
H953 C928 0.979 . S
H954 C928 0.977 . S
H955 C929 0.979 . S
H956 C929 0.980 . S
H957 C929 0.983 . S
H958 C902 0.947 . S
C959 C902 1.392 . S
C959 C903 1.419 . S
C959 H941 0.948 . S
C960 C961 1.391 . S
C960 C964 1.391 . S
C960 H1002 0.948 . S
C961 C960 1.391 . S
C961 C962 1.391 . S
C962 C961 1.391 . S
C962 H1018 0.947 . S
C962 C1019 1.392 . S
C963 C964 1.391 . S
C963 C967 1.397 . S
C963 C1019 1.419 . S
C964 C960 1.391 . S
C964 C963 1.391 . S
C964 C965 1.399 . S
C965 C964 1.399 . S
C965 C968 1.396 . S
C965 C977 1.453 . S
C965 C978 1.684 . S
H966 C990 0.948 . S
C967 C963 1.397 . S
C967 C968 1.394 . S
C967 C986 1.723 . S
C968 C965 1.396 . S
C968 C967 1.394 . S
C968 C998 1.723 . S
H969 C992 0.947 . S
H970 C993 0.948 . S
H971 C999 0.982 . S
H972 C1000 0.979 . S
H973 C1000 0.980 . S
H974 C1000 0.983 . S
H975 C999 0.979 . S
H976 C999 0.977 . S
C977 C965 1.453 . S
C977 H1006 0.982 . S
C977 H1007 0.979 . S
C977 H1008 0.977 . S
C978 C965 1.684 . S
C978 H1003 0.979 . S
C978 H1004 0.980 . S
C978 H1005 0.983 . S
C979 C980 1.391 . S
C979 C984 1.391 . S
C979 H1009 0.948 . S
C980 C979 1.391 . S
C980 C981 1.391 . S
C981 C980 1.391 . S
C981 C982 1.392 . S
C981 H1010 0.947 . S
C982 C981 1.392 . S
C982 C983 1.419 . S
C982 H1011 0.948 . S
C983 C982 1.419 . S
C983 C984 1.391 . S
C983 C987 1.397 . S
C984 C979 1.391 . S
C984 C983 1.391 . S
C984 C985 1.399 . S
C985 C984 1.399 . S
C985 C986 1.396 . S
C985 C988 1.453 . S
C985 C989 1.684 . S
C986 C967 1.723 . S
C986 C985 1.396 . S
C986 C987 1.394 . S
C987 C983 1.397 . S
C987 C986 1.394 . S
C987 C997 1.723 . S
C988 C985 1.453 . S
C988 H1012 0.982 . S
C988 H1013 0.979 . S
C988 H1014 0.977 . S
C989 C985 1.684 . S
C989 H1015 0.979 . S
C989 H1016 0.980 . S
C989 H1017 0.983 . S
C990 H966 0.948 . S
C990 C991 1.391 . S
C990 C995 1.391 . S
C991 C990 1.391 . S
C991 C992 1.391 . S
C992 H969 0.947 . S
C992 C991 1.391 . S
C992 C993 1.392 . S
C993 H970 0.948 . S
C993 C992 1.392 . S
C993 C994 1.419 . S
C994 C993 1.419 . S
C994 C995 1.391 . S
C994 C998 1.397 . S
C995 C990 1.391 . S
C995 C994 1.391 . S
C995 C996 1.399 . S
C996 C995 1.399 . S
C996 C997 1.396 . S
C996 C999 1.453 . S
C996 C1000 1.684 . S
C997 C987 1.723 . S
C997 C996 1.396 . S
C997 C998 1.394 . S
C998 C968 1.723 . S
C998 C994 1.397 . S
C998 C997 1.394 . S
C999 H971 0.982 . S
C999 H975 0.979 . S
C999 H976 0.977 . S
C999 C996 1.453 . S
C1000 H972 0.979 . S
C1000 H973 0.980 . S
C1000 H974 0.983 . S
C1000 C996 1.684 . S
H1001 C1019 0.948 . S
H1002 C960 0.948 . S
H1003 C978 0.979 . S
H1004 C978 0.980 . S
H1005 C978 0.983 . S
H1006 C977 0.982 . S
H1007 C977 0.979 . S
H1008 C977 0.977 . S
H1009 C979 0.948 . S
H1010 C981 0.947 . S
H1011 C982 0.948 . S
H1012 C988 0.982 . S
H1013 C988 0.979 . S
H1014 C988 0.977 . S
H1015 C989 0.979 . S
H1016 C989 0.980 . S
H1017 C989 0.983 . S
H1018 C962 0.947 . S
C1019 C962 1.392 . S
C1019 C963 1.419 . S
C1019 H1001 0.948 . S
C1020 C1021 1.391 . S
C1020 C1024 1.391 . S
C1020 H1062 0.948 . S
C1021 C1020 1.391 . S
C1021 C1022 1.391 . S
C1022 C1021 1.391 . S
C1022 H1078 0.947 . S
C1022 C1079 1.392 . S
C1023 C1024 1.391 . S
C1023 C1027 1.397 . S
C1023 C1079 1.419 . S
C1024 C1020 1.391 . S
C1024 C1023 1.391 . S
C1024 C1025 1.399 . S
C1025 C1024 1.399 . S
C1025 C1028 1.396 . S
C1025 C1037 1.453 . S
C1025 C1038 1.684 . S
H1026 C1050 0.948 . S
C1027 C1023 1.397 . S
C1027 C1028 1.394 . S
C1027 C1046 1.723 . S
C1028 C1025 1.396 . S
C1028 C1027 1.394 . S
C1028 C1058 1.723 . S
H1029 C1052 0.947 . S
H1030 C1053 0.948 . S
H1031 C1059 0.982 . S
H1032 C1060 0.979 . S
H1033 C1060 0.980 . S
H1034 C1060 0.983 . S
H1035 C1059 0.979 . S
H1036 C1059 0.977 . S
C1037 C1025 1.453 . S
C1037 H1066 0.982 . S
C1037 H1067 0.979 . S
C1037 H1068 0.977 . S
C1038 C1025 1.684 . S
C1038 H1063 0.979 . S
C1038 H1064 0.980 . S
C1038 H1065 0.983 . S
C1039 C1040 1.391 . S
C1039 C1044 1.391 . S
C1039 H1069 0.948 . S
C1040 C1039 1.391 . S
C1040 C1041 1.391 . S
C1041 C1040 1.391 . S
C1041 C1042 1.392 . S
C1041 H1070 0.947 . S
C1042 C1041 1.392 . S
C1042 C1043 1.419 . S
C1042 H1071 0.948 . S
C1043 C1042 1.419 . S
C1043 C1044 1.391 . S
C1043 C1047 1.397 . S
C1044 C1039 1.391 . S
C1044 C1043 1.391 . S
C1044 C1045 1.399 . S
C1045 C1044 1.399 . S
C1045 C1046 1.396 . S
C1045 C1048 1.453 . S
C1045 C1049 1.684 . S
C1046 C1027 1.723 . S
C1046 C1045 1.396 . S
C1046 C1047 1.394 . S
C1047 C1043 1.397 . S
C1047 C1046 1.394 . S
C1047 C1057 1.723 . S
C1048 C1045 1.453 . S
C1048 H1072 0.982 . S
C1048 H1073 0.979 . S
C1048 H1074 0.977 . S
C1049 C1045 1.684 . S
C1049 H1075 0.979 . S
C1049 H1076 0.980 . S
C1049 H1077 0.983 . S
C1050 H1026 0.948 . S
C1050 C1051 1.391 . S
C1050 C1055 1.391 . S
C1051 C1050 1.391 . S
C1051 C1052 1.391 . S
C1052 H1029 0.947 . S
C1052 C1051 1.391 . S
C1052 C1053 1.392 . S
C1053 H1030 0.948 . S
C1053 C1052 1.392 . S
C1053 C1054 1.419 . S
C1054 C1053 1.419 . S
C1054 C1055 1.391 . S
C1054 C1058 1.397 . S
C1055 C1050 1.391 . S
C1055 C1054 1.391 . S
C1055 C1056 1.399 . S
C1056 C1055 1.399 . S
C1056 C1057 1.396 . S
C1056 C1059 1.453 . S
C1056 C1060 1.684 . S
C1057 C1047 1.723 . S
C1057 C1056 1.396 . S
C1057 C1058 1.394 . S
C1058 C1028 1.723 . S
C1058 C1054 1.397 . S
C1058 C1057 1.394 . S
C1059 H1031 0.982 . S
C1059 H1035 0.979 . S
C1059 H1036 0.977 . S
C1059 C1056 1.453 . S
C1060 H1032 0.979 . S
C1060 H1033 0.980 . S
C1060 H1034 0.983 . S
C1060 C1056 1.684 . S
H1061 C1079 0.948 . S
H1062 C1020 0.948 . S
H1063 C1038 0.979 . S
H1064 C1038 0.980 . S
H1065 C1038 0.983 . S
H1066 C1037 0.982 . S
H1067 C1037 0.979 . S
H1068 C1037 0.977 . S
H1069 C1039 0.948 . S
H1070 C1041 0.947 . S
H1071 C1042 0.948 . S
H1072 C1048 0.982 . S
H1073 C1048 0.979 . S
H1074 C1048 0.977 . S
H1075 C1049 0.979 . S
H1076 C1049 0.980 . S
H1077 C1049 0.983 . S
H1078 C1022 0.947 . S
C1079 C1022 1.392 . S
C1079 C1023 1.419 . S
C1079 H1061 0.948 . S
Tb1080 N1111 2.660 . S
Tb1080 N1118 2.600 . S
Tb1080 O1124 2.546 . S
Tb1080 O1125 2.652 1_565 S
Tb1080 O1127 2.320 1_565 S
Tb1080 O1128 2.552 1_565 S
Tb1080 O1129 2.413 . S
Tb1080 O1131 2.362 1_556 S
Tb1080 O1132 2.421 . S
Tb1080 C1144 2.833 . S
C1081 C1084 1.432 . S
C1081 C1085 1.414 . S
C1081 N1088 1.359 . S
C1082 C1084 1.417 . S
C1082 C1086 1.432 . S
C1082 C1094 1.410 . S
C1083 C1085 1.444 . S
C1083 C1086 1.317 . S
C1083 H1106 0.929 . S
C1084 C1081 1.432 . S
C1084 C1082 1.417 . S
C1084 N1092 1.360 . S
C1085 C1081 1.414 . S
C1085 C1083 1.444 . S
C1085 C1090 1.385 . S
C1086 C1082 1.432 . S
C1086 C1083 1.317 . S
C1086 H1098 0.930 . S
C1087 C1089 1.392 . S
C1087 C1090 1.370 . S
C1087 H1099 0.931 . S
N1088 C1081 1.359 . S
N1088 C1089 1.327 . S
N1088 Tb1091 2.600 . S
C1089 C1087 1.392 . S
C1089 N1088 1.327 . S
C1089 H1096 0.930 . S
C1090 C1085 1.385 . S
C1090 C1087 1.370 . S
C1090 H1109 0.930 . S
Tb1091 N1088 2.600 . S
Tb1091 N1092 2.660 . S
Tb1091 O1125 2.292 1_554 S
Tb1091 O1126 2.421 . S
Tb1091 O1130 2.546 . S
Tb1091 O1131 2.610 1_545 S
Tb1091 O1133 2.320 1_545 S
Tb1091 O1134 2.552 1_545 S
Tb1091 O1135 2.413 . S
Tb1091 C1155 2.833 . S
N1092 C1084 1.360 . S
N1092 Tb1091 2.660 . S
N1092 C1093 1.305 . S
C1093 N1092 1.305 . S
C1093 C1095 1.407 . S
C1093 H1100 0.930 . S
C1094 C1082 1.410 . S
C1094 C1095 1.345 . S
C1094 H1102 0.930 . S
C1095 C1093 1.407 . S
C1095 C1094 1.345 . S
C1095 H1097 0.930 . S
H1096 C1089 0.930 . S
H1097 C1095 0.930 . S
H1098 C1086 0.930 . S
H1099 C1087 0.931 . S
H1100 C1093 0.930 . S
H1101 C1115 0.930 . S
H1102 C1094 0.930 . S
H1103 C1121 0.930 . S
H1104 C1112 0.930 . S
H1105 C1119 0.931 . S
H1106 C1083 0.929 . S
H1107 C1113 0.930 . S
H1108 C1146 0.930 . S
H1109 C1090 0.930 . S
H1110 C1145 0.929 . S
N1111 Tb1080 2.660 . S
N1111 C1112 1.305 . S
N1111 C1116 1.360 . S
C1112 H1104 0.930 . S
C1112 N1111 1.305 . S
C1112 C1115 1.407 . S
C1113 H1107 0.930 . S
C1113 C1114 1.410 . S
C1113 C1115 1.345 . S
C1114 C1113 1.410 . S
C1114 C1116 1.417 . S
C1114 C1146 1.432 . S
C1115 H1101 0.930 . S
C1115 C1112 1.407 . S
C1115 C1113 1.345 . S
C1116 N1111 1.360 . S
C1116 C1114 1.417 . S
C1116 C1120 1.432 . S
H1117 C1122 0.930 . S
N1118 Tb1080 2.600 . S
N1118 C1120 1.359 . S
N1118 C1121 1.327 . S
C1119 H1105 0.931 . S
C1119 C1121 1.392 . S
C1119 C1122 1.370 . S
C1120 C1116 1.432 . S
C1120 N1118 1.359 . S
C1120 C1123 1.414 . S
C1121 H1103 0.930 . S
C1121 N1118 1.327 . S
C1121 C1119 1.392 . S
C1122 H1117 0.930 . S
C1122 C1119 1.370 . S
C1122 C1123 1.385 . S
C1123 C1120 1.414 . S
C1123 C1122 1.385 . S
C1123 C1145 1.444 . S
O1124 Tb1080 2.546 . S
O1124 C1144 1.251 . S
O1125 Tb1080 2.652 1_545 S
O1125 Tb1091 2.292 1_556 S
O1125 C1136 1.341 . S
O1126 Tb1091 2.421 . S
O1126 C1143 1.262 1_554 S
O1127 Tb1080 2.320 1_545 S
O1127 C1143 1.260 . S
O1128 Tb1080 2.552 1_545 S
O1128 C1136 1.243 . S
O1129 Tb1080 2.413 . S
O1129 C1144 1.256 . S
O1130 Tb1091 2.546 . S
O1130 C1155 1.251 . S
O1131 Tb1080 2.362 1_554 S
O1131 Tb1091 2.610 1_565 S
O1131 C1147 1.283 . S
O1132 Tb1080 2.421 . S
O1132 C1154 1.262 1_556 S
O1133 Tb1091 2.320 1_565 S
O1133 C1154 1.260 . S
O1134 Tb1091 2.552 1_565 S
O1134 C1147 1.243 . S
O1135 Tb1091 2.413 . S
O1135 C1155 1.256 . S
C1136 O1125 1.341 . S
C1136 O1128 1.243 . S
C1137 C1139 1.382 1_565 S
C1137 C1141 1.393 . S
C1137 C1144 1.500 . S
C1138 C1139 1.400 . S
C1138 C1140 1.384 1_545 S
C1139 C1137 1.382 1_545 S
C1139 C1138 1.400 . S
C1139 H1156 0.930 . S
C1140 C1138 1.384 1_565 S
C1140 C1142 1.392 . S
C1140 H1157 0.931 . S
C1141 C1137 1.393 . S
C1141 C1142 1.401 . S
C1141 H1158 0.930 . S
C1142 C1140 1.392 . S
C1142 C1141 1.401 . S
C1142 H1159 0.930 . S
C1143 O1126 1.262 1_556 S
C1143 O1127 1.260 . S
C1144 Tb1080 2.833 . S
C1144 O1124 1.251 . S
C1144 O1129 1.256 . S
C1144 C1137 1.500 . S
C1145 H1110 0.929 . S
C1145 C1123 1.444 . S
C1145 C1146 1.317 . S
C1146 H1108 0.930 . S
C1146 C1114 1.432 . S
C1146 C1145 1.317 . S
C1147 O1131 1.283 . S
C1147 O1134 1.243 . S
C1148 C1149 1.382 1_545 S
C1148 C1152 1.393 . S
C1148 C1155 1.500 . S
C1149 C1148 1.382 1_565 S
C1149 C1150 1.400 . S
C1149 H1160 0.930 . S
C1150 C1149 1.400 . S
C1150 C1151 1.384 1_565 S
C1151 C1150 1.384 1_545 S
C1151 C1153 1.392 . S
C1151 H1161 0.931 . S
C1152 C1148 1.393 . S
C1152 C1153 1.401 . S
C1152 H1162 0.930 . S
C1153 C1151 1.392 . S
C1153 C1152 1.401 . S
C1153 H1163 0.930 . S
C1154 O1132 1.262 1_554 S
C1154 O1133 1.260 . S
C1155 Tb1091 2.833 . S
C1155 O1130 1.251 . S
C1155 O1135 1.256 . S
C1155 C1148 1.500 . S
H1156 C1139 0.930 . S
H1157 C1140 0.931 . S
H1158 C1141 0.930 . S
H1159 C1142 0.930 . S
H1160 C1149 0.930 . S
H1161 C1151 0.931 . S
H1162 C1152 0.930 . S
H1163 C1153 0.930 . S
Tb1164 N1195 2.660 . S
Tb1164 N1202 2.600 . S
Tb1164 O1208 2.546 . S
Tb1164 O1209 2.610 1_455 S
Tb1164 O1211 2.320 1_455 S
Tb1164 O1212 2.552 1_455 S
Tb1164 O1213 2.413 . S
Tb1164 O1215 2.362 1_556 S
Tb1164 O1216 2.421 . S
Tb1164 C1228 2.833 . S
C1165 C1168 1.432 . S
C1165 C1169 1.414 . S
C1165 N1172 1.359 . S
C1166 C1168 1.417 . S
C1166 C1170 1.432 . S
C1166 C1178 1.410 . S
C1167 C1169 1.444 . S
C1167 C1170 1.317 . S
C1167 H1190 0.929 . S
C1168 C1165 1.432 . S
C1168 C1166 1.417 . S
C1168 N1176 1.360 . S
C1169 C1165 1.414 . S
C1169 C1167 1.444 . S
C1169 C1174 1.385 . S
C1170 C1166 1.432 . S
C1170 C1167 1.317 . S
C1170 H1182 0.930 . S
C1171 C1173 1.392 . S
C1171 C1174 1.370 . S
C1171 H1183 0.931 . S
N1172 C1165 1.359 . S
N1172 C1173 1.327 . S
N1172 Tb1175 2.600 . S
C1173 C1171 1.392 . S
C1173 N1172 1.327 . S
C1173 H1180 0.930 . S
C1174 C1169 1.385 . S
C1174 C1171 1.370 . S
C1174 H1193 0.930 . S
Tb1175 N1172 2.600 . S
Tb1175 N1176 2.660 . S
Tb1175 O1209 2.362 1_554 S
Tb1175 O1210 2.421 . S
Tb1175 O1214 2.546 . S
Tb1175 O1215 2.610 1_655 S
Tb1175 O1217 2.320 1_655 S
Tb1175 O1218 2.552 1_655 S
Tb1175 O1219 2.413 . S
Tb1175 C1239 2.833 . S
N1176 C1168 1.360 . S
N1176 Tb1175 2.660 . S
N1176 C1177 1.305 . S
C1177 N1176 1.305 . S
C1177 C1179 1.407 . S
C1177 H1184 0.930 . S
C1178 C1166 1.410 . S
C1178 C1179 1.345 . S
C1178 H1186 0.930 . S
C1179 C1177 1.407 . S
C1179 C1178 1.345 . S
C1179 H1181 0.930 . S
H1180 C1173 0.930 . S
H1181 C1179 0.930 . S
H1182 C1170 0.930 . S
H1183 C1171 0.931 . S
H1184 C1177 0.930 . S
H1185 C1199 0.930 . S
H1186 C1178 0.930 . S
H1187 C1205 0.930 . S
H1188 C1196 0.930 . S
H1189 C1203 0.931 . S
H1190 C1167 0.929 . S
H1191 C1197 0.930 . S
H1192 C1230 0.930 . S
H1193 C1174 0.930 . S
H1194 C1229 0.929 . S
N1195 Tb1164 2.660 . S
N1195 C1196 1.305 . S
N1195 C1200 1.360 . S
C1196 H1188 0.930 . S
C1196 N1195 1.305 . S
C1196 C1199 1.407 . S
C1197 H1191 0.930 . S
C1197 C1198 1.410 . S
C1197 C1199 1.345 . S
C1198 C1197 1.410 . S
C1198 C1200 1.417 . S
C1198 C1230 1.432 . S
C1199 H1185 0.930 . S
C1199 C1196 1.407 . S
C1199 C1197 1.345 . S
C1200 N1195 1.360 . S
C1200 C1198 1.417 . S
C1200 C1204 1.432 . S
H1201 C1206 0.930 . S
N1202 Tb1164 2.600 . S
N1202 C1204 1.359 . S
N1202 C1205 1.327 . S
C1203 H1189 0.931 . S
C1203 C1205 1.392 . S
C1203 C1206 1.370 . S
C1204 C1200 1.432 . S
C1204 N1202 1.359 . S
C1204 C1207 1.414 . S
C1205 H1187 0.930 . S
C1205 N1202 1.327 . S
C1205 C1203 1.392 . S
C1206 H1201 0.930 . S
C1206 C1203 1.370 . S
C1206 C1207 1.385 . S
C1207 C1204 1.414 . S
C1207 C1206 1.385 . S
C1207 C1229 1.444 . S
O1208 Tb1164 2.546 . S
O1208 C1228 1.251 . S
O1209 Tb1164 2.610 1_655 S
O1209 Tb1175 2.362 1_556 S
O1209 C1220 1.283 . S
O1210 Tb1175 2.421 . S
O1210 C1227 1.262 1_554 S
O1211 Tb1164 2.320 1_655 S
O1211 C1227 1.260 . S
O1212 Tb1164 2.552 1_655 S
O1212 C1220 1.243 . S
O1213 Tb1164 2.413 . S
O1213 C1228 1.256 . S
O1214 Tb1175 2.546 . S
O1214 C1239 1.251 . S
O1215 Tb1164 2.362 1_554 S
O1215 Tb1175 2.610 1_455 S
O1215 C1231 1.283 . S
O1216 Tb1164 2.421 . S
O1216 C1238 1.262 1_556 S
O1217 Tb1175 2.320 1_455 S
O1217 C1238 1.260 . S
O1218 Tb1175 2.552 1_455 S
O1218 C1231 1.243 . S
O1219 Tb1175 2.413 . S
O1219 C1239 1.256 . S
C1220 O1209 1.283 . S
C1220 O1212 1.243 . S
C1221 C1223 1.382 1_455 S
C1221 C1225 1.393 . S
C1221 C1228 1.500 . S
C1222 C1223 1.400 . S
C1222 C1224 1.384 1_655 S
C1223 C1221 1.382 1_655 S
C1223 C1222 1.400 . S
C1223 H1240 0.930 . S
C1224 C1222 1.384 1_455 S
C1224 C1226 1.392 . S
C1224 H1241 0.931 . S
C1225 C1221 1.393 . S
C1225 C1226 1.401 . S
C1225 H1242 0.930 . S
C1226 C1224 1.392 . S
C1226 C1225 1.401 . S
C1226 H1243 0.930 . S
C1227 O1210 1.262 1_556 S
C1227 O1211 1.260 . S
C1228 Tb1164 2.833 . S
C1228 O1208 1.251 . S
C1228 O1213 1.256 . S
C1228 C1221 1.500 . S
C1229 H1194 0.929 . S
C1229 C1207 1.444 . S
C1229 C1230 1.317 . S
C1230 H1192 0.930 . S
C1230 C1198 1.432 . S
C1230 C1229 1.317 . S
C1231 O1215 1.283 . S
C1231 O1218 1.243 . S
C1232 C1233 1.382 1_655 S
C1232 C1236 1.393 . S
C1232 C1239 1.500 . S
C1233 C1232 1.382 1_455 S
C1233 C1234 1.400 . S
C1233 H1244 0.930 . S
C1234 C1233 1.400 . S
C1234 C1235 1.384 1_455 S
C1235 C1234 1.384 1_655 S
C1235 C1237 1.392 . S
C1235 H1245 0.931 . S
C1236 C1232 1.393 . S
C1236 C1237 1.401 . S
C1236 H1246 0.930 . S
C1237 C1235 1.392 . S
C1237 C1236 1.401 . S
C1237 H1247 0.930 . S
C1238 O1216 1.262 1_554 S
C1238 O1217 1.260 . S
C1239 Tb1175 2.833 . S
C1239 O1214 1.251 . S
C1239 O1219 1.256 . S
C1239 C1232 1.500 . S
H1240 C1223 0.930 . S
H1241 C1224 0.931 . S
H1242 C1225 0.930 . S
H1243 C1226 0.930 . S
H1244 C1233 0.930 . S
H1245 C1235 0.931 . S
H1246 C1236 0.930 . S
H1247 C1237 0.930 . S
Tb1248 N1279 2.660 . S
Tb1248 N1286 2.600 . S
Tb1248 O1292 2.546 . S
Tb1248 O1293 2.610 . S
Tb1248 O1295 2.320 . S
Tb1248 O1296 2.552 . S
Tb1248 O1297 2.413 . S
Tb1248 O1299 2.362 1_554 S
Tb1248 O1300 2.421 . S
Tb1248 C1312 2.833 . S
C1249 C1252 1.432 . S
C1249 C1253 1.414 . S
C1249 N1256 1.359 . S
C1250 C1252 1.417 . S
C1250 C1254 1.432 . S
C1250 C1262 1.410 . S
C1251 C1253 1.444 . S
C1251 C1254 1.317 . S
C1251 H1274 0.929 . S
C1252 C1249 1.432 . S
C1252 C1250 1.417 . S
C1252 N1260 1.360 . S
C1253 C1249 1.414 . S
C1253 C1251 1.444 . S
C1253 C1258 1.385 . S
C1254 C1250 1.432 . S
C1254 C1251 1.317 . S
C1254 H1266 0.930 . S
C1255 C1257 1.392 . S
C1255 C1258 1.370 . S
C1255 H1267 0.931 . S
N1256 C1249 1.359 . S
N1256 C1257 1.327 . S
N1256 Tb1259 2.600 . S
C1257 C1255 1.392 . S
C1257 N1256 1.327 . S
C1257 H1264 0.930 . S
C1258 C1253 1.385 . S
C1258 C1255 1.370 . S
C1258 H1277 0.930 . S
Tb1259 N1256 2.600 . S
Tb1259 N1260 2.660 . S
Tb1259 O1293 2.362 1_556 S
Tb1259 O1294 2.421 . S
Tb1259 O1298 2.546 . S
Tb1259 O1299 2.610 . S
Tb1259 O1301 2.320 . S
Tb1259 O1302 2.552 . S
Tb1259 O1303 2.413 . S
Tb1259 C1323 2.833 . S
N1260 C1252 1.360 . S
N1260 Tb1259 2.660 . S
N1260 C1261 1.305 . S
C1261 N1260 1.305 . S
C1261 C1263 1.407 . S
C1261 H1268 0.930 . S
C1262 C1250 1.410 . S
C1262 C1263 1.345 . S
C1262 H1270 0.930 . S
C1263 C1261 1.407 . S
C1263 C1262 1.345 . S
C1263 H1265 0.930 . S
H1264 C1257 0.930 . S
H1265 C1263 0.930 . S
H1266 C1254 0.930 . S
H1267 C1255 0.931 . S
H1268 C1261 0.930 . S
H1269 C1283 0.930 . S
H1270 C1262 0.930 . S
H1271 C1289 0.930 . S
H1272 C1280 0.930 . S
H1273 C1287 0.931 . S
H1274 C1251 0.929 . S
H1275 C1281 0.930 . S
H1276 C1314 0.930 . S
H1277 C1258 0.930 . S
H1278 C1313 0.929 . S
N1279 Tb1248 2.660 . S
N1279 C1280 1.305 . S
N1279 C1284 1.360 . S
C1280 H1272 0.930 . S
C1280 N1279 1.305 . S
C1280 C1283 1.407 . S
C1281 H1275 0.930 . S
C1281 C1282 1.410 . S
C1281 C1283 1.345 . S
C1282 C1281 1.410 . S
C1282 C1284 1.417 . S
C1282 C1314 1.432 . S
C1283 H1269 0.930 . S
C1283 C1280 1.407 . S
C1283 C1281 1.345 . S
C1284 N1279 1.360 . S
C1284 C1282 1.417 . S
C1284 C1288 1.432 . S
H1285 C1290 0.930 . S
N1286 Tb1248 2.600 . S
N1286 C1288 1.359 . S
N1286 C1289 1.327 . S
C1287 H1273 0.931 . S
C1287 C1289 1.392 . S
C1287 C1290 1.370 . S
C1288 C1284 1.432 . S
C1288 N1286 1.359 . S
C1288 C1291 1.414 . S
C1289 H1271 0.930 . S
C1289 N1286 1.327 . S
C1289 C1287 1.392 . S
C1290 H1285 0.930 . S
C1290 C1287 1.370 . S
C1290 C1291 1.385 . S
C1291 C1288 1.414 . S
C1291 C1290 1.385 . S
C1291 C1313 1.444 . S
O1292 Tb1248 2.546 . S
O1292 C1312 1.251 . S
O1293 Tb1248 2.610 . S
O1293 Tb1259 2.362 1_554 S
O1293 C1304 1.283 . S
O1294 Tb1259 2.421 . S
O1294 C1311 1.262 1_556 S
O1295 Tb1248 2.320 . S
O1295 C1311 1.260 . S
O1296 Tb1248 2.552 . S
O1296 C1304 1.243 . S
O1297 Tb1248 2.413 . S
O1297 C1312 1.256 . S
O1298 Tb1259 2.546 . S
O1298 C1323 1.251 . S
O1299 Tb1248 2.362 1_556 S
O1299 Tb1259 2.610 . S
O1299 C1315 1.283 . S
O1300 Tb1248 2.421 . S
O1300 C1322 1.262 1_554 S
O1301 Tb1259 2.320 . S
O1301 C1322 1.260 . S
O1302 Tb1259 2.552 . S
O1302 C1315 1.243 . S
O1303 Tb1259 2.413 . S
O1303 C1323 1.256 . S
C1304 O1293 1.283 . S
C1304 O1296 1.243 . S
C1305 C1307 1.382 . S
C1305 C1309 1.393 . S
C1305 C1312 1.500 . S
C1306 C1307 1.400 . S
C1306 C1308 1.384 . S
C1307 C1305 1.382 . S
C1307 C1306 1.400 . S
C1307 H1324 0.930 . S
C1308 C1306 1.384 . S
C1308 C1310 1.392 . S
C1308 H1325 0.931 . S
C1309 C1305 1.393 . S
C1309 C1310 1.401 . S
C1309 H1326 0.930 . S
C1310 C1308 1.392 . S
C1310 C1309 1.401 . S
C1310 H1327 0.930 . S
C1311 O1294 1.262 1_554 S
C1311 O1295 1.260 . S
C1312 Tb1248 2.833 . S
C1312 O1292 1.251 . S
C1312 O1297 1.256 . S
C1312 C1305 1.500 . S
C1313 H1278 0.929 . S
C1313 C1291 1.444 . S
C1313 C1314 1.317 . S
C1314 H1276 0.930 . S
C1314 C1282 1.432 . S
C1314 C1313 1.317 . S
C1315 O1299 1.283 . S
C1315 O1302 1.243 . S
C1316 C1317 1.382 . S
C1316 C1320 1.393 . S
C1316 C1323 1.500 . S
C1317 C1316 1.382 . S
C1317 C1318 1.400 . S
C1317 H1328 0.930 . S
C1318 C1317 1.400 . S
C1318 C1319 1.384 . S
C1319 C1318 1.384 . S
C1319 C1321 1.392 . S
C1319 H1329 0.931 . S
C1320 C1316 1.393 . S
C1320 C1321 1.401 . S
C1320 H1330 0.930 . S
C1321 C1319 1.392 . S
C1321 C1320 1.401 . S
C1321 H1331 0.930 . S
C1322 O1300 1.262 1_556 S
C1322 O1301 1.260 . S
C1323 Tb1259 2.833 . S
C1323 O1298 1.251 . S
C1323 O1303 1.256 . S
C1323 C1316 1.500 . S
H1324 C1307 0.930 . S
H1325 C1308 0.931 . S
H1326 C1309 0.930 . S
H1327 C1310 0.930 . S
H1328 C1317 0.930 . S
H1329 C1319 0.931 . S
H1330 C1320 0.930 . S
H1331 C1321 0.930 . S
Tb1332 N1363 2.660 . S
Tb1332 N1370 2.600 . S
Tb1332 O1376 2.546 . S
Tb1332 O1377 2.610 . S
Tb1332 O1379 2.320 . S
Tb1332 O1380 2.552 . S
Tb1332 O1381 2.413 . S
Tb1332 O1383 2.362 . S
Tb1332 O1384 2.421 . S
Tb1332 C1396 2.833 . S
C1333 C1336 1.432 . S
C1333 C1337 1.414 . S
C1333 N1340 1.359 . S
C1334 C1336 1.417 . S
C1334 C1338 1.432 . S
C1334 C1346 1.410 . S
C1335 C1337 1.444 . S
C1335 C1338 1.317 . S
C1335 H1358 0.929 . S
C1336 C1333 1.432 . S
C1336 C1334 1.417 . S
C1336 N1344 1.360 . S
C1337 C1333 1.414 . S
C1337 C1335 1.444 . S
C1337 C1342 1.385 . S
C1338 C1334 1.432 . S
C1338 C1335 1.317 . S
C1338 H1350 0.930 . S
C1339 C1341 1.392 . S
C1339 C1342 1.370 . S
C1339 H1351 0.931 . S
N1340 C1333 1.359 . S
N1340 C1341 1.327 . S
N1340 Tb1343 2.600 . S
C1341 C1339 1.392 . S
C1341 N1340 1.327 . S
C1341 H1348 0.930 . S
C1342 C1337 1.385 . S
C1342 C1339 1.370 . S
C1342 H1361 0.930 . S
Tb1343 N1340 2.600 . S
Tb1343 N1344 2.660 . S
Tb1343 O1377 2.362 . S
Tb1343 O1378 2.421 . S
Tb1343 O1382 2.546 . S
Tb1343 O1383 2.610 . S
Tb1343 O1385 2.320 . S
Tb1343 O1386 2.552 . S
Tb1343 O1387 2.413 . S
Tb1343 C1407 2.833 . S
N1344 C1336 1.360 . S
N1344 Tb1343 2.660 . S
N1344 C1345 1.305 . S
C1345 N1344 1.305 . S
C1345 C1347 1.407 . S
C1345 H1352 0.930 . S
C1346 C1334 1.410 . S
C1346 C1347 1.345 . S
C1346 H1354 0.930 . S
C1347 C1345 1.407 . S
C1347 C1346 1.345 . S
C1347 H1349 0.930 . S
H1348 C1341 0.930 . S
H1349 C1347 0.930 . S
H1350 C1338 0.930 . S
H1351 C1339 0.931 . S
H1352 C1345 0.930 . S
H1353 C1367 0.930 . S
H1354 C1346 0.930 . S
H1355 C1373 0.930 . S
H1356 C1364 0.930 . S
H1357 C1371 0.931 . S
H1358 C1335 0.929 . S
H1359 C1365 0.930 . S
H1360 C1398 0.930 . S
H1361 C1342 0.930 . S
H1362 C1397 0.929 . S
N1363 Tb1332 2.660 . S
N1363 C1364 1.305 . S
N1363 C1368 1.360 . S
C1364 H1356 0.930 . S
C1364 N1363 1.305 . S
C1364 C1367 1.407 . S
C1365 H1359 0.930 . S
C1365 C1366 1.410 . S
C1365 C1367 1.345 . S
C1366 C1365 1.410 . S
C1366 C1368 1.417 . S
C1366 C1398 1.432 . S
C1367 H1353 0.930 . S
C1367 C1364 1.407 . S
C1367 C1365 1.345 . S
C1368 N1363 1.360 . S
C1368 C1366 1.417 . S
C1368 C1372 1.432 . S
H1369 C1374 0.930 . S
N1370 Tb1332 2.600 . S
N1370 C1372 1.359 . S
N1370 C1373 1.327 . S
C1371 H1357 0.931 . S
C1371 C1373 1.392 . S
C1371 C1374 1.370 . S
C1372 C1368 1.432 . S
C1372 N1370 1.359 . S
C1372 C1375 1.414 . S
C1373 H1355 0.930 . S
C1373 N1370 1.327 . S
C1373 C1371 1.392 . S
C1374 H1369 0.930 . S
C1374 C1371 1.370 . S
C1374 C1375 1.385 . S
C1375 C1372 1.414 . S
C1375 C1374 1.385 . S
C1375 C1397 1.444 . S
O1376 Tb1332 2.546 . S
O1376 C1396 1.251 . S
O1377 Tb1332 2.610 . S
O1377 Tb1343 2.362 . S
O1377 C1388 1.283 . S
O1378 Tb1343 2.421 . S
O1378 C1395 1.262 . S
O1379 Tb1332 2.320 . S
O1379 C1395 1.260 . S
O1380 Tb1332 2.552 . S
O1380 C1388 1.243 . S
O1381 Tb1332 2.413 . S
O1381 C1396 1.256 . S
O1382 Tb1343 2.546 . S
O1382 C1407 1.251 . S
O1383 Tb1332 2.362 . S
O1383 Tb1343 2.610 . S
O1383 C1399 1.283 . S
O1384 Tb1332 2.421 . S
O1384 C1406 1.262 . S
O1385 Tb1343 2.320 . S
O1385 C1406 1.260 . S
O1386 Tb1343 2.552 . S
O1386 C1399 1.243 . S
O1387 Tb1343 2.413 . S
O1387 C1407 1.256 . S
C1388 O1377 1.283 . S
C1388 O1380 1.243 . S
C1389 C1391 1.382 . S
C1389 C1393 1.393 . S
C1389 C1396 1.500 . S
C1390 C1391 1.400 . S
C1390 C1392 1.384 . S
C1391 C1389 1.382 . S
C1391 C1390 1.400 . S
C1391 H1408 0.930 . S
C1392 C1390 1.384 . S
C1392 C1394 1.392 . S
C1392 H1409 0.931 . S
C1393 C1389 1.393 . S
C1393 C1394 1.401 . S
C1393 H1410 0.930 . S
C1394 C1392 1.392 . S
C1394 C1393 1.401 . S
C1394 H1411 0.930 . S
C1395 O1378 1.262 . S
C1395 O1379 1.260 . S
C1396 Tb1332 2.833 . S
C1396 O1376 1.251 . S
C1396 O1381 1.256 . S
C1396 C1389 1.500 . S
C1397 H1362 0.929 . S
C1397 C1375 1.444 . S
C1397 C1398 1.317 . S
C1398 H1360 0.930 . S
C1398 C1366 1.432 . S
C1398 C1397 1.317 . S
C1399 O1383 1.283 . S
C1399 O1386 1.243 . S
C1400 C1401 1.382 . S
C1400 C1404 1.393 . S
C1400 C1407 1.500 . S
C1401 C1400 1.382 . S
C1401 C1402 1.400 . S
C1401 H1412 0.930 . S
C1402 C1401 1.400 . S
C1402 C1403 1.384 . S
C1403 C1402 1.384 . S
C1403 C1405 1.392 . S
C1403 H1413 0.931 . S
C1404 C1400 1.393 . S
C1404 C1405 1.401 . S
C1404 H1414 0.930 . S
C1405 C1403 1.392 . S
C1405 C1404 1.401 . S
C1405 H1415 0.930 . S
C1406 O1384 1.262 . S
C1406 O1385 1.260 . S
C1407 Tb1343 2.833 . S
C1407 O1382 1.251 . S
C1407 O1387 1.256 . S
C1407 C1400 1.500 . S
H1408 C1391 0.930 . S
H1409 C1392 0.931 . S
H1410 C1393 0.930 . S
H1411 C1394 0.930 . S
H1412 C1401 0.930 . S
H1413 C1403 0.931 . S
H1414 C1404 0.930 . S
H1415 C1405 0.930 . S
Tb1416 N1447 2.660 . S
Tb1416 N1454 2.600 . S
Tb1416 O1460 2.546 . S
Tb1416 O1461 2.610 . S
Tb1416 O1463 2.320 . S
Tb1416 O1464 2.552 . S
Tb1416 O1465 2.413 . S
Tb1416 O1467 2.362 . S
Tb1416 O1468 2.421 . S
Tb1416 C1480 2.833 . S
C1417 C1420 1.432 . S
C1417 C1421 1.414 . S
C1417 N1424 1.359 . S
C1418 C1420 1.417 . S
C1418 C1422 1.432 . S
C1418 C1430 1.410 . S
C1419 C1421 1.444 . S
C1419 C1422 1.317 . S
C1419 H1442 0.929 . S
C1420 C1417 1.432 . S
C1420 C1418 1.417 . S
C1420 N1428 1.360 . S
C1421 C1417 1.414 . S
C1421 C1419 1.444 . S
C1421 C1426 1.385 . S
C1422 C1418 1.432 . S
C1422 C1419 1.317 . S
C1422 H1434 0.930 . S
C1423 C1425 1.392 . S
C1423 C1426 1.370 . S
C1423 H1435 0.931 . S
N1424 C1417 1.359 . S
N1424 C1425 1.327 . S
N1424 Tb1427 2.600 . S
C1425 C1423 1.392 . S
C1425 N1424 1.327 . S
C1425 H1432 0.930 . S
C1426 C1421 1.385 . S
C1426 C1423 1.370 . S
C1426 H1445 0.930 . S
Tb1427 N1424 2.600 . S
Tb1427 N1428 2.660 . S
Tb1427 O1461 2.362 . S
Tb1427 O1462 2.421 . S
Tb1427 O1466 2.546 . S
Tb1427 O1467 2.610 . S
Tb1427 O1469 2.320 . S
Tb1427 O1470 2.552 . S
Tb1427 O1471 2.413 . S
Tb1427 C1491 2.833 . S
N1428 C1420 1.360 . S
N1428 Tb1427 2.660 . S
N1428 C1429 1.305 . S
C1429 N1428 1.305 . S
C1429 C1431 1.407 . S
C1429 H1436 0.930 . S
C1430 C1418 1.410 . S
C1430 C1431 1.345 . S
C1430 H1438 0.930 . S
C1431 C1429 1.407 . S
C1431 C1430 1.345 . S
C1431 H1433 0.930 . S
H1432 C1425 0.930 . S
H1433 C1431 0.930 . S
H1434 C1422 0.930 . S
H1435 C1423 0.931 . S
H1436 C1429 0.930 . S
H1437 C1451 0.930 . S
H1438 C1430 0.930 . S
H1439 C1457 0.930 . S
H1440 C1448 0.930 . S
H1441 C1455 0.931 . S
H1442 C1419 0.929 . S
H1443 C1449 0.930 . S
H1444 C1482 0.930 . S
H1445 C1426 0.930 . S
H1446 C1481 0.929 . S
N1447 Tb1416 2.660 . S
N1447 C1448 1.305 . S
N1447 C1452 1.360 . S
C1448 H1440 0.930 . S
C1448 N1447 1.305 . S
C1448 C1451 1.407 . S
C1449 H1443 0.930 . S
C1449 C1450 1.410 . S
C1449 C1451 1.345 . S
C1450 C1449 1.410 . S
C1450 C1452 1.417 . S
C1450 C1482 1.432 . S
C1451 H1437 0.930 . S
C1451 C1448 1.407 . S
C1451 C1449 1.345 . S
C1452 N1447 1.360 . S
C1452 C1450 1.417 . S
C1452 C1456 1.432 . S
H1453 C1458 0.930 . S
N1454 Tb1416 2.600 . S
N1454 C1456 1.359 . S
N1454 C1457 1.327 . S
C1455 H1441 0.931 . S
C1455 C1457 1.392 . S
C1455 C1458 1.370 . S
C1456 C1452 1.432 . S
C1456 N1454 1.359 . S
C1456 C1459 1.414 . S
C1457 H1439 0.930 . S
C1457 N1454 1.327 . S
C1457 C1455 1.392 . S
C1458 H1453 0.930 . S
C1458 C1455 1.370 . S
C1458 C1459 1.385 . S
C1459 C1456 1.414 . S
C1459 C1458 1.385 . S
C1459 C1481 1.444 . S
O1460 Tb1416 2.546 . S
O1460 C1480 1.251 . S
O1461 Tb1416 2.610 . S
O1461 Tb1427 2.362 . S
O1461 C1472 1.283 . S
O1462 Tb1427 2.421 . S
O1462 C1479 1.262 . S
O1463 Tb1416 2.320 . S
O1463 C1479 1.260 . S
O1464 Tb1416 2.552 . S
O1464 C1472 1.243 . S
O1465 Tb1416 2.413 . S
O1465 C1480 1.256 . S
O1466 Tb1427 2.546 . S
O1466 C1491 1.251 . S
O1467 Tb1416 2.362 . S
O1467 Tb1427 2.610 . S
O1467 C1483 1.283 . S
O1468 Tb1416 2.421 . S
O1468 C1490 1.262 . S
O1469 Tb1427 2.320 . S
O1469 C1490 1.260 . S
O1470 Tb1427 2.552 . S
O1470 C1483 1.243 . S
O1471 Tb1427 2.413 . S
O1471 C1491 1.256 . S
C1472 O1461 1.283 . S
C1472 O1464 1.243 . S
C1473 C1475 1.382 . S
C1473 C1477 1.393 . S
C1473 C1480 1.500 . S
C1474 C1475 1.400 . S
C1474 C1476 1.384 . S
C1475 C1473 1.382 . S
C1475 C1474 1.400 . S
C1475 H1492 0.930 . S
C1476 C1474 1.384 . S
C1476 C1478 1.392 . S
C1476 H1493 0.931 . S
C1477 C1473 1.393 . S
C1477 C1478 1.401 . S
C1477 H1494 0.930 . S
C1478 C1476 1.392 . S
C1478 C1477 1.401 . S
C1478 H1495 0.930 . S
C1479 O1462 1.262 . S
C1479 O1463 1.260 . S
C1480 Tb1416 2.833 . S
C1480 O1460 1.251 . S
C1480 O1465 1.256 . S
C1480 C1473 1.500 . S
C1481 H1446 0.929 . S
C1481 C1459 1.444 . S
C1481 C1482 1.317 . S
C1482 H1444 0.930 . S
C1482 C1450 1.432 . S
C1482 C1481 1.317 . S
C1483 O1467 1.283 . S
C1483 O1470 1.243 . S
C1484 C1485 1.382 . S
C1484 C1488 1.393 . S
C1484 C1491 1.500 . S
C1485 C1484 1.382 . S
C1485 C1486 1.400 . S
C1485 H1496 0.930 . S
C1486 C1485 1.400 . S
C1486 C1487 1.384 . S
C1487 C1486 1.384 . S
C1487 C1489 1.392 . S
C1487 H1497 0.931 . S
C1488 C1484 1.393 . S
C1488 C1489 1.401 . S
C1488 H1498 0.930 . S
C1489 C1487 1.392 . S
C1489 C1488 1.401 . S
C1489 H1499 0.930 . S
C1490 O1468 1.262 . S
C1490 O1469 1.260 . S
C1491 Tb1427 2.833 . S
C1491 O1466 1.251 . S
C1491 O1471 1.256 . S
C1491 C1484 1.500 . S
H1492 C1475 0.930 . S
H1493 C1476 0.931 . S
H1494 C1477 0.930 . S
H1495 C1478 0.930 . S
H1496 C1485 0.930 . S
H1497 C1487 0.931 . S
H1498 C1488 0.930 . S
H1499 C1489 0.930 . S
Tb1500 N1531 2.660 . S
Tb1500 N1538 2.600 . S
Tb1500 O1544 2.546 . S
Tb1500 O1545 2.610 . S
Tb1500 O1547 2.320 . S
Tb1500 O1548 2.552 . S
Tb1500 O1549 2.413 . S
Tb1500 O1551 2.362 . S
Tb1500 O1552 2.421 . S
Tb1500 C1564 2.833 . S
C1501 C1504 1.432 . S
C1501 C1505 1.414 . S
C1501 N1508 1.359 . S
C1502 C1504 1.417 . S
C1502 C1506 1.432 . S
C1502 C1514 1.410 . S
C1503 C1505 1.444 . S
C1503 C1506 1.317 . S
C1503 H1526 0.929 . S
C1504 C1501 1.432 . S
C1504 C1502 1.417 . S
C1504 N1512 1.360 . S
C1505 C1501 1.414 . S
C1505 C1503 1.444 . S
C1505 C1510 1.385 . S
C1506 C1502 1.432 . S
C1506 C1503 1.317 . S
C1506 H1518 0.930 . S
C1507 C1509 1.392 . S
C1507 C1510 1.370 . S
C1507 H1519 0.931 . S
N1508 C1501 1.359 . S
N1508 C1509 1.327 . S
N1508 Tb1511 2.600 . S
C1509 C1507 1.392 . S
C1509 N1508 1.327 . S
C1509 H1516 0.930 . S
C1510 C1505 1.385 . S
C1510 C1507 1.370 . S
C1510 H1529 0.930 . S
Tb1511 N1508 2.600 . S
Tb1511 N1512 2.660 . S
Tb1511 O1545 2.362 . S
Tb1511 O1546 2.421 . S
Tb1511 O1550 2.546 . S
Tb1511 O1551 2.610 . S
Tb1511 O1553 2.320 . S
Tb1511 O1554 2.552 . S
Tb1511 O1555 2.413 . S
Tb1511 C1575 2.833 . S
N1512 C1504 1.360 . S
N1512 Tb1511 2.660 . S
N1512 C1513 1.305 . S
C1513 N1512 1.305 . S
C1513 C1515 1.407 . S
C1513 H1520 0.930 . S
C1514 C1502 1.410 . S
C1514 C1515 1.345 . S
C1514 H1522 0.930 . S
C1515 C1513 1.407 . S
C1515 C1514 1.345 . S
C1515 H1517 0.930 . S
H1516 C1509 0.930 . S
H1517 C1515 0.930 . S
H1518 C1506 0.930 . S
H1519 C1507 0.931 . S
H1520 C1513 0.930 . S
H1521 C1535 0.930 . S
H1522 C1514 0.930 . S
H1523 C1541 0.930 . S
H1524 C1532 0.930 . S
H1525 C1539 0.931 . S
H1526 C1503 0.929 . S
H1527 C1533 0.930 . S
H1528 C1566 0.930 . S
H1529 C1510 0.930 . S
H1530 C1565 0.929 . S
N1531 Tb1500 2.660 . S
N1531 C1532 1.305 . S
N1531 C1536 1.360 . S
C1532 H1524 0.930 . S
C1532 N1531 1.305 . S
C1532 C1535 1.407 . S
C1533 H1527 0.930 . S
C1533 C1534 1.410 . S
C1533 C1535 1.345 . S
C1534 C1533 1.410 . S
C1534 C1536 1.417 . S
C1534 C1566 1.432 . S
C1535 H1521 0.930 . S
C1535 C1532 1.407 . S
C1535 C1533 1.345 . S
C1536 N1531 1.360 . S
C1536 C1534 1.417 . S
C1536 C1540 1.432 . S
H1537 C1542 0.930 . S
N1538 Tb1500 2.600 . S
N1538 C1540 1.359 . S
N1538 C1541 1.327 . S
C1539 H1525 0.931 . S
C1539 C1541 1.392 . S
C1539 C1542 1.370 . S
C1540 C1536 1.432 . S
C1540 N1538 1.359 . S
C1540 C1543 1.414 . S
C1541 H1523 0.930 . S
C1541 N1538 1.327 . S
C1541 C1539 1.392 . S
C1542 H1537 0.930 . S
C1542 C1539 1.370 . S
C1542 C1543 1.385 . S
C1543 C1540 1.414 . S
C1543 C1542 1.385 . S
C1543 C1565 1.444 . S
O1544 Tb1500 2.546 . S
O1544 C1564 1.251 . S
O1545 Tb1500 2.610 . S
O1545 Tb1511 2.362 . S
O1545 C1556 1.283 . S
O1546 Tb1511 2.421 . S
O1546 C1563 1.262 . S
O1547 Tb1500 2.320 . S
O1547 C1563 1.260 . S
O1548 Tb1500 2.552 . S
O1548 C1556 1.243 . S
O1549 Tb1500 2.413 . S
O1549 C1564 1.256 . S
O1550 Tb1511 2.546 . S
O1550 C1575 1.251 . S
O1551 Tb1500 2.362 . S
O1551 Tb1511 2.610 . S
O1551 C1567 1.283 . S
O1552 Tb1500 2.421 . S
O1552 C1574 1.262 . S
O1553 Tb1511 2.320 . S
O1553 C1574 1.260 . S
O1554 Tb1511 2.552 . S
O1554 C1567 1.243 . S
O1555 Tb1511 2.413 . S
O1555 C1575 1.256 . S
C1556 O1545 1.283 . S
C1556 O1548 1.243 . S
C1557 C1559 1.382 . S
C1557 C1561 1.393 . S
C1557 C1564 1.500 . S
C1558 C1559 1.400 . S
C1558 C1560 1.384 . S
C1559 C1557 1.382 . S
C1559 C1558 1.400 . S
C1559 H1576 0.930 . S
C1560 C1558 1.384 . S
C1560 C1562 1.392 . S
C1560 H1577 0.931 . S
C1561 C1557 1.393 . S
C1561 C1562 1.401 . S
C1561 H1578 0.930 . S
C1562 C1560 1.392 . S
C1562 C1561 1.401 . S
C1562 H1579 0.930 . S
C1563 O1546 1.262 . S
C1563 O1547 1.260 . S
C1564 Tb1500 2.833 . S
C1564 O1544 1.251 . S
C1564 O1549 1.256 . S
C1564 C1557 1.500 . S
C1565 H1530 0.929 . S
C1565 C1543 1.444 . S
C1565 C1566 1.317 . S
C1566 H1528 0.930 . S
C1566 C1534 1.432 . S
C1566 C1565 1.317 . S
C1567 O1551 1.283 . S
C1567 O1554 1.243 . S
C1568 C1569 1.382 . S
C1568 C1572 1.393 . S
C1568 C1575 1.500 . S
C1569 C1568 1.382 . S
C1569 C1570 1.400 . S
C1569 H1580 0.930 . S
C1570 C1569 1.400 . S
C1570 C1571 1.384 . S
C1571 C1570 1.384 . S
C1571 C1573 1.392 . S
C1571 H1581 0.931 . S
C1572 C1568 1.393 . S
C1572 C1573 1.401 . S
C1572 H1582 0.930 . S
C1573 C1571 1.392 . S
C1573 C1572 1.401 . S
C1573 H1583 0.930 . S
C1574 O1552 1.262 . S
C1574 O1553 1.260 . S
C1575 Tb1511 2.833 . S
C1575 O1550 1.251 . S
C1575 O1555 1.256 . S
C1575 C1568 1.500 . S
H1576 C1559 0.930 . S
H1577 C1560 0.931 . S
H1578 C1561 0.930 . S
H1579 C1562 0.930 . S
H1580 C1569 0.930 . S
H1581 C1571 0.931 . S
H1582 C1572 0.930 . S
H1583 C1573 0.930 . S
Tb1584 N1615 2.660 . S
Tb1584 N1622 2.600 . S
Tb1584 O1628 2.546 . S
Tb1584 O1629 2.610 . S
Tb1584 O1631 2.320 . S
Tb1584 O1632 2.552 . S
Tb1584 O1633 2.413 . S
Tb1584 O1635 2.362 . S
Tb1584 O1636 2.421 . S
Tb1584 C1648 2.833 . S
C1585 C1588 1.432 . S
C1585 C1589 1.414 . S
C1585 N1592 1.359 . S
C1586 C1588 1.417 . S
C1586 C1590 1.432 . S
C1586 C1598 1.410 . S
C1587 C1589 1.444 . S
C1587 C1590 1.317 . S
C1587 H1610 0.929 . S
C1588 C1585 1.432 . S
C1588 C1586 1.417 . S
C1588 N1596 1.360 . S
C1589 C1585 1.414 . S
C1589 C1587 1.444 . S
C1589 C1594 1.385 . S
C1590 C1586 1.432 . S
C1590 C1587 1.317 . S
C1590 H1602 0.930 . S
C1591 C1593 1.392 . S
C1591 C1594 1.370 . S
C1591 H1603 0.931 . S
N1592 C1585 1.359 . S
N1592 C1593 1.327 . S
N1592 Tb1595 2.600 . S
C1593 C1591 1.392 . S
C1593 N1592 1.327 . S
C1593 H1600 0.930 . S
C1594 C1589 1.385 . S
C1594 C1591 1.370 . S
C1594 H1613 0.930 . S
Tb1595 N1592 2.600 . S
Tb1595 N1596 2.660 . S
Tb1595 O1629 2.362 . S
Tb1595 O1630 2.421 . S
Tb1595 O1634 2.546 . S
Tb1595 O1635 2.610 . S
Tb1595 O1637 2.320 . S
Tb1595 O1638 2.552 . S
Tb1595 O1639 2.413 . S
Tb1595 C1659 2.833 . S
N1596 C1588 1.360 . S
N1596 Tb1595 2.660 . S
N1596 C1597 1.305 . S
C1597 N1596 1.305 . S
C1597 C1599 1.407 . S
C1597 H1604 0.930 . S
C1598 C1586 1.410 . S
C1598 C1599 1.345 . S
C1598 H1606 0.930 . S
C1599 C1597 1.407 . S
C1599 C1598 1.345 . S
C1599 H1601 0.930 . S
H1600 C1593 0.930 . S
H1601 C1599 0.930 . S
H1602 C1590 0.930 . S
H1603 C1591 0.931 . S
H1604 C1597 0.930 . S
H1605 C1619 0.930 . S
H1606 C1598 0.930 . S
H1607 C1625 0.930 . S
H1608 C1616 0.930 . S
H1609 C1623 0.931 . S
H1610 C1587 0.929 . S
H1611 C1617 0.930 . S
H1612 C1650 0.930 . S
H1613 C1594 0.930 . S
H1614 C1649 0.929 . S
N1615 Tb1584 2.660 . S
N1615 C1616 1.305 . S
N1615 C1620 1.360 . S
C1616 H1608 0.930 . S
C1616 N1615 1.305 . S
C1616 C1619 1.407 . S
C1617 H1611 0.930 . S
C1617 C1618 1.410 . S
C1617 C1619 1.345 . S
C1618 C1617 1.410 . S
C1618 C1620 1.417 . S
C1618 C1650 1.432 . S
C1619 H1605 0.930 . S
C1619 C1616 1.407 . S
C1619 C1617 1.345 . S
C1620 N1615 1.360 . S
C1620 C1618 1.417 . S
C1620 C1624 1.432 . S
H1621 C1626 0.930 . S
N1622 Tb1584 2.600 . S
N1622 C1624 1.359 . S
N1622 C1625 1.327 . S
C1623 H1609 0.931 . S
C1623 C1625 1.392 . S
C1623 C1626 1.370 . S
C1624 C1620 1.432 . S
C1624 N1622 1.359 . S
C1624 C1627 1.414 . S
C1625 H1607 0.930 . S
C1625 N1622 1.327 . S
C1625 C1623 1.392 . S
C1626 H1621 0.930 . S
C1626 C1623 1.370 . S
C1626 C1627 1.385 . S
C1627 C1624 1.414 . S
C1627 C1626 1.385 . S
C1627 C1649 1.444 . S
O1628 Tb1584 2.546 . S
O1628 C1648 1.251 . S
O1629 Tb1584 2.610 . S
O1629 Tb1595 2.362 . S
O1629 C1640 1.283 . S
O1630 Tb1595 2.421 . S
O1630 C1647 1.262 . S
O1631 Tb1584 2.320 . S
O1631 C1647 1.260 . S
O1632 Tb1584 2.552 . S
O1632 C1640 1.243 . S
O1633 Tb1584 2.413 . S
O1633 C1648 1.256 . S
O1634 Tb1595 2.546 . S
O1634 C1659 1.251 . S
O1635 Tb1584 2.362 . S
O1635 Tb1595 2.610 . S
O1635 C1651 1.283 . S
O1636 Tb1584 2.421 . S
O1636 C1658 1.262 . S
O1637 Tb1595 2.320 . S
O1637 C1658 1.260 . S
O1638 Tb1595 2.552 . S
O1638 C1651 1.243 . S
O1639 Tb1595 2.413 . S
O1639 C1659 1.256 . S
C1640 O1629 1.283 . S
C1640 O1632 1.243 . S
C1641 C1643 1.382 . S
C1641 C1645 1.393 . S
C1641 C1648 1.500 . S
C1642 C1643 1.400 . S
C1642 C1644 1.384 . S
C1643 C1641 1.382 . S
C1643 C1642 1.400 . S
C1643 H1660 0.930 . S
C1644 C1642 1.384 . S
C1644 C1646 1.392 . S
C1644 H1661 0.931 . S
C1645 C1641 1.393 . S
C1645 C1646 1.401 . S
C1645 H1662 0.930 . S
C1646 C1644 1.392 . S
C1646 C1645 1.401 . S
C1646 H1663 0.930 . S
C1647 O1630 1.262 . S
C1647 O1631 1.260 . S
C1648 Tb1584 2.833 . S
C1648 O1628 1.251 . S
C1648 O1633 1.256 . S
C1648 C1641 1.500 . S
C1649 H1614 0.929 . S
C1649 C1627 1.444 . S
C1649 C1650 1.317 . S
C1650 H1612 0.930 . S
C1650 C1618 1.432 . S
C1650 C1649 1.317 . S
C1651 O1635 1.283 . S
C1651 O1638 1.243 . S
C1652 C1653 1.382 . S
C1652 C1656 1.393 . S
C1652 C1659 1.500 . S
C1653 C1652 1.382 . S
C1653 C1654 1.400 . S
C1653 H1664 0.930 . S
C1654 C1653 1.400 . S
C1654 C1655 1.384 . S
C1655 C1654 1.384 . S
C1655 C1657 1.392 . S
C1655 H1665 0.931 . S
C1656 C1652 1.393 . S
C1656 C1657 1.401 . S
C1656 H1666 0.930 . S
C1657 C1655 1.392 . S
C1657 C1656 1.401 . S
C1657 H1667 0.930 . S
C1658 O1636 1.262 . S
C1658 O1637 1.260 . S
C1659 Tb1595 2.833 . S
C1659 O1634 1.251 . S
C1659 O1639 1.256 . S
C1659 C1652 1.500 . S
H1660 C1643 0.930 . S
H1661 C1644 0.931 . S
H1662 C1645 0.930 . S
H1663 C1646 0.930 . S
H1664 C1653 0.930 . S
H1665 C1655 0.931 . S
H1666 C1656 0.930 . S
H1667 C1657 0.930 . S
Tb1668 N1699 2.660 . S
Tb1668 N1706 2.600 . S
Tb1668 O1712 2.546 . S
Tb1668 O1713 2.610 . S
Tb1668 O1715 2.320 . S
Tb1668 O1716 2.552 . S
Tb1668 O1717 2.413 . S
Tb1668 O1719 2.362 . S
Tb1668 O1720 2.421 . S
Tb1668 C1732 2.833 . S
C1669 C1672 1.432 . S
C1669 C1673 1.414 . S
C1669 N1676 1.359 . S
C1670 C1672 1.417 . S
C1670 C1674 1.432 . S
C1670 C1682 1.410 . S
C1671 C1673 1.444 . S
C1671 C1674 1.317 . S
C1671 H1694 0.929 . S
C1672 C1669 1.432 . S
C1672 C1670 1.417 . S
C1672 N1680 1.360 . S
C1673 C1669 1.414 . S
C1673 C1671 1.444 . S
C1673 C1678 1.385 . S
C1674 C1670 1.432 . S
C1674 C1671 1.317 . S
C1674 H1686 0.930 . S
C1675 C1677 1.392 . S
C1675 C1678 1.370 . S
C1675 H1687 0.931 . S
N1676 C1669 1.359 . S
N1676 C1677 1.327 . S
N1676 Tb1679 2.600 . S
C1677 C1675 1.392 . S
C1677 N1676 1.327 . S
C1677 H1684 0.930 . S
C1678 C1673 1.385 . S
C1678 C1675 1.370 . S
C1678 H1697 0.930 . S
Tb1679 N1676 2.600 . S
Tb1679 N1680 2.660 . S
Tb1679 O1713 2.362 . S
Tb1679 O1714 2.421 . S
Tb1679 O1718 2.546 . S
Tb1679 O1719 2.610 . S
Tb1679 O1721 2.320 . S
Tb1679 O1722 2.552 . S
Tb1679 O1723 2.413 . S
Tb1679 C1743 2.833 . S
N1680 C1672 1.360 . S
N1680 Tb1679 2.660 . S
N1680 C1681 1.305 . S
C1681 N1680 1.305 . S
C1681 C1683 1.407 . S
C1681 H1688 0.930 . S
C1682 C1670 1.410 . S
C1682 C1683 1.345 . S
C1682 H1690 0.930 . S
C1683 C1681 1.407 . S
C1683 C1682 1.345 . S
C1683 H1685 0.930 . S
H1684 C1677 0.930 . S
H1685 C1683 0.930 . S
H1686 C1674 0.930 . S
H1687 C1675 0.931 . S
H1688 C1681 0.930 . S
H1689 C1703 0.930 . S
H1690 C1682 0.930 . S
H1691 C1709 0.930 . S
H1692 C1700 0.930 . S
H1693 C1707 0.931 . S
H1694 C1671 0.929 . S
H1695 C1701 0.930 . S
H1696 C1734 0.930 . S
H1697 C1678 0.930 . S
H1698 C1733 0.929 . S
N1699 Tb1668 2.660 . S
N1699 C1700 1.305 . S
N1699 C1704 1.360 . S
C1700 H1692 0.930 . S
C1700 N1699 1.305 . S
C1700 C1703 1.407 . S
C1701 H1695 0.930 . S
C1701 C1702 1.410 . S
C1701 C1703 1.345 . S
C1702 C1701 1.410 . S
C1702 C1704 1.417 . S
C1702 C1734 1.432 . S
C1703 H1689 0.930 . S
C1703 C1700 1.407 . S
C1703 C1701 1.345 . S
C1704 N1699 1.360 . S
C1704 C1702 1.417 . S
C1704 C1708 1.432 . S
H1705 C1710 0.930 . S
N1706 Tb1668 2.600 . S
N1706 C1708 1.359 . S
N1706 C1709 1.327 . S
C1707 H1693 0.931 . S
C1707 C1709 1.392 . S
C1707 C1710 1.370 . S
C1708 C1704 1.432 . S
C1708 N1706 1.359 . S
C1708 C1711 1.414 . S
C1709 H1691 0.930 . S
C1709 N1706 1.327 . S
C1709 C1707 1.392 . S
C1710 H1705 0.930 . S
C1710 C1707 1.370 . S
C1710 C1711 1.385 . S
C1711 C1708 1.414 . S
C1711 C1710 1.385 . S
C1711 C1733 1.444 . S
O1712 Tb1668 2.546 . S
O1712 C1732 1.251 . S
O1713 Tb1668 2.610 . S
O1713 Tb1679 2.362 . S
O1713 C1724 1.283 . S
O1714 Tb1679 2.421 . S
O1714 C1731 1.262 . S
O1715 Tb1668 2.320 . S
O1715 C1731 1.260 . S
O1716 Tb1668 2.552 . S
O1716 C1724 1.243 . S
O1717 Tb1668 2.413 . S
O1717 C1732 1.256 . S
O1718 Tb1679 2.546 . S
O1718 C1743 1.251 . S
O1719 Tb1668 2.362 . S
O1719 Tb1679 2.610 . S
O1719 C1735 1.283 . S
O1720 Tb1668 2.421 . S
O1720 C1742 1.262 . S
O1721 Tb1679 2.320 . S
O1721 C1742 1.260 . S
O1722 Tb1679 2.552 . S
O1722 C1735 1.243 . S
O1723 Tb1679 2.413 . S
O1723 C1743 1.256 . S
C1724 O1713 1.283 . S
C1724 O1716 1.243 . S
C1725 C1727 1.382 . S
C1725 C1729 1.393 . S
C1725 C1732 1.500 . S
C1726 C1727 1.400 . S
C1726 C1728 1.384 . S
C1727 C1725 1.382 . S
C1727 C1726 1.400 . S
C1727 H1744 0.930 . S
C1728 C1726 1.384 . S
C1728 C1730 1.392 . S
C1728 H1745 0.931 . S
C1729 C1725 1.393 . S
C1729 C1730 1.401 . S
C1729 H1746 0.930 . S
C1730 C1728 1.392 . S
C1730 C1729 1.401 . S
C1730 H1747 0.930 . S
C1731 O1714 1.262 . S
C1731 O1715 1.260 . S
C1732 Tb1668 2.833 . S
C1732 O1712 1.251 . S
C1732 O1717 1.256 . S
C1732 C1725 1.500 . S
C1733 H1698 0.929 . S
C1733 C1711 1.444 . S
C1733 C1734 1.317 . S
C1734 H1696 0.930 . S
C1734 C1702 1.432 . S
C1734 C1733 1.317 . S
C1735 O1719 1.283 . S
C1735 O1722 1.243 . S
C1736 C1737 1.382 . S
C1736 C1740 1.393 . S
C1736 C1743 1.500 . S
C1737 C1736 1.382 . S
C1737 C1738 1.400 . S
C1737 H1748 0.930 . S
C1738 C1737 1.400 . S
C1738 C1739 1.384 . S
C1739 C1738 1.384 . S
C1739 C1741 1.392 . S
C1739 H1749 0.931 . S
C1740 C1736 1.393 . S
C1740 C1741 1.401 . S
C1740 H1750 0.930 . S
C1741 C1739 1.392 . S
C1741 C1740 1.401 . S
C1741 H1751 0.930 . S
C1742 O1720 1.262 . S
C1742 O1721 1.260 . S
C1743 Tb1679 2.833 . S
C1743 O1718 1.251 . S
C1743 O1723 1.256 . S
C1743 C1736 1.500 . S
H1744 C1727 0.930 . S
H1745 C1728 0.931 . S
H1746 C1729 0.930 . S
H1747 C1730 0.930 . S
H1748 C1737 0.930 . S
H1749 C1739 0.931 . S
H1750 C1740 0.930 . S
H1751 C1741 0.930 . S
Tb1752 N1783 2.660 . S
Tb1752 N1790 2.600 . S
Tb1752 O1796 2.546 . S
Tb1752 O1797 2.610 . S
Tb1752 O1799 2.320 . S
Tb1752 O1800 2.552 . S
Tb1752 O1801 2.413 . S
Tb1752 O1803 2.362 . S
Tb1752 O1804 2.421 . S
Tb1752 C1816 2.833 . S
C1753 C1756 1.432 . S
C1753 C1757 1.414 . S
C1753 N1760 1.359 . S
C1754 C1756 1.417 . S
C1754 C1758 1.432 . S
C1754 C1766 1.410 . S
C1755 C1757 1.444 . S
C1755 C1758 1.317 . S
C1755 H1778 0.929 . S
C1756 C1753 1.432 . S
C1756 C1754 1.417 . S
C1756 N1764 1.360 . S
C1757 C1753 1.414 . S
C1757 C1755 1.444 . S
C1757 C1762 1.385 . S
C1758 C1754 1.432 . S
C1758 C1755 1.317 . S
C1758 H1770 0.930 . S
C1759 C1761 1.392 . S
C1759 C1762 1.370 . S
C1759 H1771 0.931 . S
N1760 C1753 1.359 . S
N1760 C1761 1.327 . S
N1760 Tb1763 2.600 . S
C1761 C1759 1.392 . S
C1761 N1760 1.327 . S
C1761 H1768 0.930 . S
C1762 C1757 1.385 . S
C1762 C1759 1.370 . S
C1762 H1781 0.930 . S
Tb1763 N1760 2.600 . S
Tb1763 N1764 2.660 . S
Tb1763 O1797 2.362 . S
Tb1763 O1798 2.421 . S
Tb1763 O1802 2.546 . S
Tb1763 O1803 2.610 . S
Tb1763 O1805 2.320 . S
Tb1763 O1806 2.552 . S
Tb1763 O1807 2.413 . S
Tb1763 C1827 2.833 . S
N1764 C1756 1.360 . S
N1764 Tb1763 2.660 . S
N1764 C1765 1.305 . S
C1765 N1764 1.305 . S
C1765 C1767 1.407 . S
C1765 H1772 0.930 . S
C1766 C1754 1.410 . S
C1766 C1767 1.345 . S
C1766 H1774 0.930 . S
C1767 C1765 1.407 . S
C1767 C1766 1.345 . S
C1767 H1769 0.930 . S
H1768 C1761 0.930 . S
H1769 C1767 0.930 . S
H1770 C1758 0.930 . S
H1771 C1759 0.931 . S
H1772 C1765 0.930 . S
H1773 C1787 0.930 . S
H1774 C1766 0.930 . S
H1775 C1793 0.930 . S
H1776 C1784 0.930 . S
H1777 C1791 0.931 . S
H1778 C1755 0.929 . S
H1779 C1785 0.930 . S
H1780 C1818 0.930 . S
H1781 C1762 0.930 . S
H1782 C1817 0.929 . S
N1783 Tb1752 2.660 . S
N1783 C1784 1.305 . S
N1783 C1788 1.360 . S
C1784 H1776 0.930 . S
C1784 N1783 1.305 . S
C1784 C1787 1.407 . S
C1785 H1779 0.930 . S
C1785 C1786 1.410 . S
C1785 C1787 1.345 . S
C1786 C1785 1.410 . S
C1786 C1788 1.417 . S
C1786 C1818 1.432 . S
C1787 H1773 0.930 . S
C1787 C1784 1.407 . S
C1787 C1785 1.345 . S
C1788 N1783 1.360 . S
C1788 C1786 1.417 . S
C1788 C1792 1.432 . S
H1789 C1794 0.930 . S
N1790 Tb1752 2.600 . S
N1790 C1792 1.359 . S
N1790 C1793 1.327 . S
C1791 H1777 0.931 . S
C1791 C1793 1.392 . S
C1791 C1794 1.370 . S
C1792 C1788 1.432 . S
C1792 N1790 1.359 . S
C1792 C1795 1.414 . S
C1793 H1775 0.930 . S
C1793 N1790 1.327 . S
C1793 C1791 1.392 . S
C1794 H1789 0.930 . S
C1794 C1791 1.370 . S
C1794 C1795 1.385 . S
C1795 C1792 1.414 . S
C1795 C1794 1.385 . S
C1795 C1817 1.444 . S
O1796 Tb1752 2.546 . S
O1796 C1816 1.251 . S
O1797 Tb1752 2.610 . S
O1797 Tb1763 2.362 . S
O1797 C1808 1.283 . S
O1798 Tb1763 2.421 . S
O1798 C1815 1.262 . S
O1799 Tb1752 2.320 . S
O1799 C1815 1.260 . S
O1800 Tb1752 2.552 . S
O1800 C1808 1.243 . S
O1801 Tb1752 2.413 . S
O1801 C1816 1.256 . S
O1802 Tb1763 2.546 . S
O1802 C1827 1.251 . S
O1803 Tb1752 2.362 . S
O1803 Tb1763 2.610 . S
O1803 C1819 1.283 . S
O1804 Tb1752 2.421 . S
O1804 C1826 1.262 . S
O1805 Tb1763 2.320 . S
O1805 C1826 1.260 . S
O1806 Tb1763 2.552 . S
O1806 C1819 1.243 . S
O1807 Tb1763 2.413 . S
O1807 C1827 1.256 . S
C1808 O1797 1.283 . S
C1808 O1800 1.243 . S
C1809 C1811 1.382 . S
C1809 C1813 1.393 . S
C1809 C1816 1.500 . S
C1810 C1811 1.400 . S
C1810 C1812 1.384 . S
C1811 C1809 1.382 . S
C1811 C1810 1.400 . S
C1811 H1828 0.930 . S
C1812 C1810 1.384 . S
C1812 C1814 1.392 . S
C1812 H1829 0.931 . S
C1813 C1809 1.393 . S
C1813 C1814 1.401 . S
C1813 H1830 0.930 . S
C1814 C1812 1.392 . S
C1814 C1813 1.401 . S
C1814 H1831 0.930 . S
C1815 O1798 1.262 . S
C1815 O1799 1.260 . S
C1816 Tb1752 2.833 . S
C1816 O1796 1.251 . S
C1816 O1801 1.256 . S
C1816 C1809 1.500 . S
C1817 H1782 0.929 . S
C1817 C1795 1.444 . S
C1817 C1818 1.317 . S
C1818 H1780 0.930 . S
C1818 C1786 1.432 . S
C1818 C1817 1.317 . S
C1819 O1803 1.283 . S
C1819 O1806 1.243 . S
C1820 C1821 1.382 . S
C1820 C1824 1.393 . S
C1820 C1827 1.500 . S
C1821 C1820 1.382 . S
C1821 C1822 1.400 . S
C1821 H1832 0.930 . S
C1822 C1821 1.400 . S
C1822 C1823 1.384 . S
C1823 C1822 1.384 . S
C1823 C1825 1.392 . S
C1823 H1833 0.931 . S
C1824 C1820 1.393 . S
C1824 C1825 1.401 . S
C1824 H1834 0.930 . S
C1825 C1823 1.392 . S
C1825 C1824 1.401 . S
C1825 H1835 0.930 . S
C1826 O1804 1.262 . S
C1826 O1805 1.260 . S
C1827 Tb1763 2.833 . S
C1827 O1802 1.251 . S
C1827 O1807 1.256 . S
C1827 C1820 1.500 . S
H1828 C1811 0.930 . S
H1829 C1812 0.931 . S
H1830 C1813 0.930 . S
H1831 C1814 0.930 . S
H1832 C1821 0.930 . S
H1833 C1823 0.931 . S
H1834 C1824 0.930 . S
H1835 C1825 0.930 . S
H1836 C1844 0.929 . S
H1837 C1846 0.930 . S
H1838 C1848 0.930 . S
H1839 C1851 0.929 . S
H1840 C1854 0.930 . S
H1841 C1856 0.960 . S
H1842 C1856 0.960 . S
H1843 C1856 0.960 . S
C1844 H1836 0.929 . S
C1844 C1845 1.377 . S
C1844 C1846 1.384 . S
C1845 C1844 1.377 . S
C1845 C1851 1.390 . S
C1846 H1837 0.930 . S
C1846 C1844 1.384 . S
C1846 C1847 1.372 . S
C1847 C1846 1.372 . S
C1847 C1848 1.400 . S
C1847 C1852 1.490 . S
C1848 H1838 0.930 . S
C1848 C1847 1.400 . S
C1848 C1851 1.386 . S
H1849 C1865 0.930 . S
H1850 C1866 0.931 . S
C1851 H1839 0.929 . S
C1851 C1845 1.390 . S
C1851 C1848 1.386 . S
C1852 C1847 1.490 . S
C1852 C1854 1.395 . S
C1852 C1855 1.403 . S
H1853 C1859 0.930 . S
C1854 H1840 0.930 . S
C1854 C1852 1.395 . S
C1854 C1857 1.403 . S
C1855 C1852 1.403 . S
C1855 C1856 1.524 . S
C1855 C1859 1.400 . S
C1856 H1841 0.960 . S
C1856 H1842 0.960 . S
C1856 H1843 0.960 . S
C1856 C1855 1.524 . S
C1857 C1854 1.403 . S
C1857 C1858 1.392 . S
C1857 C1861 1.495 . S
C1858 C1857 1.392 . S
C1858 C1859 1.385 . S
C1858 C1860 1.478 . S
C1859 H1853 0.930 . S
C1859 C1855 1.400 . S
C1859 C1858 1.385 . S
C1860 C1858 1.478 . S
C1860 C1862 1.381 . S
C1860 C1866 1.383 . S
C1861 C1857 1.495 . S
C1861 H1867 0.959 . S
C1861 H1868 0.961 . S
C1861 H1869 0.960 . S
C1862 C1860 1.381 . S
C1862 C1863 1.394 . S
C1862 H1870 0.930 . S
C1863 C1862 1.394 . S
C1863 C1864 1.383 . S
C1863 H1871 0.929 . S
C1864 C1863 1.383 . S
C1864 C1865 1.377 . S
C1865 H1849 0.930 . S
C1865 C1864 1.377 . S
C1865 C1866 1.379 . S
C1866 H1850 0.931 . S
C1866 C1860 1.383 . S
C1866 C1865 1.379 . S
H1867 C1861 0.959 . S
H1868 C1861 0.961 . S
H1869 C1861 0.960 . S
H1870 C1862 0.930 . S
H1871 C1863 0.929 . S
H1872 C1880 0.929 . S
H1873 C1882 0.930 . S
H1874 C1884 0.930 . S
H1875 C1887 0.929 . S
H1876 C1890 0.930 . S
H1877 C1892 0.960 . S
H1878 C1892 0.960 . S
H1879 C1892 0.960 . S
C1880 H1872 0.929 . S
C1880 C1881 1.377 . S
C1880 C1882 1.384 . S
C1881 C1880 1.377 . S
C1881 C1887 1.390 . S
C1882 H1873 0.930 . S
C1882 C1880 1.384 . S
C1882 C1883 1.372 . S
C1883 C1882 1.372 . S
C1883 C1884 1.400 . S
C1883 C1888 1.490 . S
C1884 H1874 0.930 . S
C1884 C1883 1.400 . S
C1884 C1887 1.386 . S
H1885 C1901 0.930 . S
H1886 C1902 0.931 . S
C1887 H1875 0.929 . S
C1887 C1881 1.390 . S
C1887 C1884 1.386 . S
C1888 C1883 1.490 . S
C1888 C1890 1.395 . S
C1888 C1891 1.403 . S
H1889 C1895 0.930 . S
C1890 H1876 0.930 . S
C1890 C1888 1.395 . S
C1890 C1893 1.403 . S
C1891 C1888 1.403 . S
C1891 C1892 1.524 . S
C1891 C1895 1.400 . S
C1892 H1877 0.960 . S
C1892 H1878 0.960 . S
C1892 H1879 0.960 . S
C1892 C1891 1.524 . S
C1893 C1890 1.403 . S
C1893 C1894 1.392 . S
C1893 C1897 1.495 . S
C1894 C1893 1.392 . S
C1894 C1895 1.385 . S
C1894 C1896 1.478 . S
C1895 H1889 0.930 . S
C1895 C1891 1.400 . S
C1895 C1894 1.385 . S
C1896 C1894 1.478 . S
C1896 C1898 1.381 . S
C1896 C1902 1.383 . S
C1897 C1893 1.495 . S
C1897 H1903 0.959 . S
C1897 H1904 0.961 . S
C1897 H1905 0.960 . S
C1898 C1896 1.381 . S
C1898 C1899 1.394 . S
C1898 H1906 0.930 . S
C1899 C1898 1.394 . S
C1899 C1900 1.383 . S
C1899 H1907 0.929 . S
C1900 C1899 1.383 . S
C1900 C1901 1.377 . S
C1901 H1885 0.930 . S
C1901 C1900 1.377 . S
C1901 C1902 1.379 . S
C1902 H1886 0.931 . S
C1902 C1896 1.383 . S
C1902 C1901 1.379 . S
H1903 C1897 0.959 . S
H1904 C1897 0.961 . S
H1905 C1897 0.960 . S
H1906 C1898 0.930 . S
H1907 C1899 0.929 . S
H1908 C1916 0.929 . S
H1909 C1918 0.930 . S
H1910 C1920 0.930 . S
H1911 C1923 0.929 . S
H1912 C1926 0.930 . S
H1913 C1928 0.960 . S
H1914 C1928 0.960 . S
H1915 C1928 0.960 . S
C1916 H1908 0.929 . S
C1916 C1917 1.377 . S
C1916 C1918 1.384 . S
C1917 C1916 1.377 . S
C1917 C1923 1.390 . S
C1918 H1909 0.930 . S
C1918 C1916 1.384 . S
C1918 C1919 1.372 . S
C1919 C1918 1.372 . S
C1919 C1920 1.400 . S
C1919 C1924 1.490 . S
C1920 H1910 0.930 . S
C1920 C1919 1.400 . S
C1920 C1923 1.386 . S
H1921 C1937 0.930 . S
H1922 C1938 0.931 . S
C1923 H1911 0.929 . S
C1923 C1917 1.390 . S
C1923 C1920 1.386 . S
C1924 C1919 1.490 . S
C1924 C1926 1.395 . S
C1924 C1927 1.403 . S
H1925 C1931 0.930 . S
C1926 H1912 0.930 . S
C1926 C1924 1.395 . S
C1926 C1929 1.403 . S
C1927 C1924 1.403 . S
C1927 C1928 1.524 . S
C1927 C1931 1.400 . S
C1928 H1913 0.960 . S
C1928 H1914 0.960 . S
C1928 H1915 0.960 . S
C1928 C1927 1.524 . S
C1929 C1926 1.403 . S
C1929 C1930 1.392 . S
C1929 C1933 1.495 . S
C1930 C1929 1.392 . S
C1930 C1931 1.385 . S
C1930 C1932 1.478 . S
C1931 H1925 0.930 . S
C1931 C1927 1.400 . S
C1931 C1930 1.385 . S
C1932 C1930 1.478 . S
C1932 C1934 1.381 . S
C1932 C1938 1.383 . S
C1933 C1929 1.495 . S
C1933 H1939 0.959 . S
C1933 H1940 0.961 . S
C1933 H1941 0.960 . S
C1934 C1932 1.381 . S
C1934 C1935 1.394 . S
C1934 H1942 0.930 . S
C1935 C1934 1.394 . S
C1935 C1936 1.383 . S
C1935 H1943 0.929 . S
C1936 C1935 1.383 . S
C1936 C1937 1.377 . S
C1937 H1921 0.930 . S
C1937 C1936 1.377 . S
C1937 C1938 1.379 . S
C1938 H1922 0.931 . S
C1938 C1932 1.383 . S
C1938 C1937 1.379 . S
H1939 C1933 0.959 . S
H1940 C1933 0.961 . S
H1941 C1933 0.960 . S
H1942 C1934 0.930 . S
H1943 C1935 0.929 . S
H1944 C1952 0.929 . S
H1945 C1954 0.930 . S
H1946 C1956 0.930 . S
H1947 C1959 0.929 . S
H1948 C1962 0.930 . S
H1949 C1964 0.960 . S
H1950 C1964 0.960 . S
H1951 C1964 0.960 . S
C1952 H1944 0.929 . S
C1952 C1953 1.377 . S
C1952 C1954 1.384 . S
C1953 C1952 1.377 . S
C1953 C1959 1.390 . S
C1954 H1945 0.930 . S
C1954 C1952 1.384 . S
C1954 C1955 1.372 . S
C1955 C1954 1.372 . S
C1955 C1956 1.400 . S
C1955 C1960 1.490 . S
C1956 H1946 0.930 . S
C1956 C1955 1.400 . S
C1956 C1959 1.386 . S
H1957 C1973 0.930 1_554 S
H1958 C1974 0.931 . S
C1959 H1947 0.929 . S
C1959 C1953 1.390 . S
C1959 C1956 1.386 . S
C1960 C1955 1.490 . S
C1960 C1962 1.395 . S
C1960 C1963 1.403 . S
H1961 C1967 0.930 . S
C1962 H1948 0.930 . S
C1962 C1960 1.395 . S
C1962 C1965 1.403 . S
C1963 C1960 1.403 . S
C1963 C1964 1.524 . S
C1963 C1967 1.400 . S
C1964 H1949 0.960 . S
C1964 H1950 0.960 . S
C1964 H1951 0.960 . S
C1964 C1963 1.524 . S
C1965 C1962 1.403 . S
C1965 C1966 1.392 . S
C1965 C1969 1.495 . S
C1966 C1965 1.392 . S
C1966 C1967 1.385 . S
C1966 C1968 1.478 . S
C1967 H1961 0.930 . S
C1967 C1963 1.400 . S
C1967 C1966 1.385 . S
C1968 C1966 1.478 . S
C1968 C1970 1.381 . S
C1968 C1974 1.383 . S
C1969 C1965 1.495 . S
C1969 H1975 0.959 . S
C1969 H1976 0.961 . S
C1969 H1977 0.960 . S
C1970 C1968 1.381 . S
C1970 C1971 1.394 . S
C1970 H1978 0.930 . S
C1971 C1970 1.394 . S
C1971 C1972 1.383 . S
C1971 H1979 0.929 . S
C1972 C1971 1.383 . S
C1972 C1973 1.377 . S
C1973 H1957 0.930 1_556 S
C1973 C1972 1.377 . S
C1973 C1974 1.379 . S
C1974 H1958 0.931 . S
C1974 C1968 1.383 . S
C1974 C1973 1.379 . S
H1975 C1969 0.959 . S
H1976 C1969 0.961 . S
H1977 C1969 0.960 . S
H1978 C1970 0.930 . S
H1979 C1971 0.929 . S
H1980 C1988 0.929 . S
H1981 C1990 0.930 . S
H1982 C1992 0.930 . S
H1983 C1995 0.929 . S
H1984 C1998 0.930 . S
H1985 C2000 0.960 . S
H1986 C2000 0.960 . S
H1987 C2000 0.960 . S
C1988 H1980 0.929 . S
C1988 C1989 1.377 . S
C1988 C1990 1.384 . S
C1989 C1988 1.377 . S
C1989 C1995 1.390 . S
C1990 H1981 0.930 . S
C1990 C1988 1.384 . S
C1990 C1991 1.372 . S
C1991 C1990 1.372 . S
C1991 C1992 1.400 . S
C1991 C1996 1.490 . S
C1992 H1982 0.930 . S
C1992 C1991 1.400 . S
C1992 C1995 1.386 . S
H1993 C2009 0.930 . S
H1994 C2010 0.931 . S
C1995 H1983 0.929 . S
C1995 C1989 1.390 . S
C1995 C1992 1.386 . S
C1996 C1991 1.490 . S
C1996 C1998 1.395 . S
C1996 C1999 1.403 . S
H1997 C2003 0.930 . S
C1998 H1984 0.930 . S
C1998 C1996 1.395 . S
C1998 C2001 1.403 . S
C1999 C1996 1.403 . S
C1999 C2000 1.524 . S
C1999 C2003 1.400 . S
C2000 H1985 0.960 . S
C2000 H1986 0.960 . S
C2000 H1987 0.960 . S
C2000 C1999 1.524 . S
C2001 C1998 1.403 . S
C2001 C2002 1.392 . S
C2001 C2005 1.495 . S
C2002 C2001 1.392 . S
C2002 C2003 1.385 . S
C2002 C2004 1.478 . S
C2003 H1997 0.930 . S
C2003 C1999 1.400 . S
C2003 C2002 1.385 . S
C2004 C2002 1.478 . S
C2004 C2006 1.381 . S
C2004 C2010 1.383 . S
C2005 C2001 1.495 . S
C2005 H2011 0.959 . S
C2005 H2012 0.961 . S
C2005 H2013 0.960 . S
C2006 C2004 1.381 . S
C2006 C2007 1.394 . S
C2006 H2014 0.930 . S
C2007 C2006 1.394 . S
C2007 C2008 1.383 . S
C2007 H2015 0.929 . S
C2008 C2007 1.383 . S
C2008 C2009 1.377 . S
C2009 H1993 0.930 . S
C2009 C2008 1.377 . S
C2009 C2010 1.379 . S
C2010 H1994 0.931 . S
C2010 C2004 1.383 . S
C2010 C2009 1.379 . S
H2011 C2005 0.959 . S
H2012 C2005 0.961 . S
H2013 C2005 0.960 . S
H2014 C2006 0.930 . S
H2015 C2007 0.929 . S
H2016 C2024 0.929 . S
H2017 C2026 0.930 . S
H2018 C2028 0.930 . S
H2019 C2031 0.929 . S
H2020 C2034 0.930 . S
H2021 C2036 0.960 . S
H2022 C2036 0.960 . S
H2023 C2036 0.960 . S
C2024 H2016 0.929 . S
C2024 C2025 1.377 . S
C2024 C2026 1.384 . S
C2025 C2024 1.377 . S
C2025 C2031 1.390 . S
C2026 H2017 0.930 . S
C2026 C2024 1.384 . S
C2026 C2027 1.372 . S
C2027 C2026 1.372 . S
C2027 C2028 1.400 . S
C2027 C2032 1.490 . S
C2028 H2018 0.930 . S
C2028 C2027 1.400 . S
C2028 C2031 1.386 . S
H2029 C2045 0.930 . S
H2030 C2046 0.931 . S
C2031 H2019 0.929 . S
C2031 C2025 1.390 . S
C2031 C2028 1.386 . S
C2032 C2027 1.490 . S
C2032 C2034 1.395 . S
C2032 C2035 1.403 . S
H2033 C2039 0.930 . S
C2034 H2020 0.930 . S
C2034 C2032 1.395 . S
C2034 C2037 1.403 . S
C2035 C2032 1.403 . S
C2035 C2036 1.524 . S
C2035 C2039 1.400 . S
C2036 H2021 0.960 . S
C2036 H2022 0.960 . S
C2036 H2023 0.960 . S
C2036 C2035 1.524 . S
C2037 C2034 1.403 . S
C2037 C2038 1.392 . S
C2037 C2041 1.495 . S
C2038 C2037 1.392 . S
C2038 C2039 1.385 . S
C2038 C2040 1.478 . S
C2039 H2033 0.930 . S
C2039 C2035 1.400 . S
C2039 C2038 1.385 . S
C2040 C2038 1.478 . S
C2040 C2042 1.381 . S
C2040 C2046 1.383 . S
C2041 C2037 1.495 . S
C2041 H2047 0.959 . S
C2041 H2048 0.961 . S
C2041 H2049 0.960 . S
C2042 C2040 1.381 . S
C2042 C2043 1.394 . S
C2042 H2050 0.930 . S
C2043 C2042 1.394 . S
C2043 C2044 1.383 . S
C2043 H2051 0.929 1_556 S
C2044 C2043 1.383 . S
C2044 C2045 1.377 . S
C2045 H2029 0.930 . S
C2045 C2044 1.377 . S
C2045 C2046 1.379 . S
C2046 H2030 0.931 . S
C2046 C2040 1.383 . S
C2046 C2045 1.379 . S
H2047 C2041 0.959 . S
H2048 C2041 0.961 . S
H2049 C2041 0.960 . S
H2050 C2042 0.930 . S
H2051 C2043 0.929 1_554 S
H2052 C2060 0.929 . S
H2053 C2062 0.930 . S
H2054 C2064 0.930 . S
H2055 C2067 0.929 . S
H2056 C2070 0.930 . S
H2057 C2072 0.960 . S
H2058 C2072 0.960 . S
H2059 C2072 0.960 . S
C2060 H2052 0.929 . S
C2060 C2061 1.377 . S
C2060 C2062 1.384 . S
C2061 C2060 1.377 . S
C2061 C2067 1.390 . S
C2062 H2053 0.930 . S
C2062 C2060 1.384 . S
C2062 C2063 1.372 . S
C2063 C2062 1.372 . S
C2063 C2064 1.400 . S
C2063 C2068 1.490 . S
C2064 H2054 0.930 . S
C2064 C2063 1.400 . S
C2064 C2067 1.386 . S
H2065 C2081 0.930 1_554 S
H2066 C2082 0.931 . S
C2067 H2055 0.929 . S
C2067 C2061 1.390 . S
C2067 C2064 1.386 . S
C2068 C2063 1.490 . S
C2068 C2070 1.395 . S
C2068 C2071 1.403 . S
H2069 C2075 0.930 . S
C2070 H2056 0.930 . S
C2070 C2068 1.395 . S
C2070 C2073 1.403 . S
C2071 C2068 1.403 . S
C2071 C2072 1.524 . S
C2071 C2075 1.400 . S
C2072 H2057 0.960 . S
C2072 H2058 0.960 . S
C2072 H2059 0.960 . S
C2072 C2071 1.524 . S
C2073 C2070 1.403 . S
C2073 C2074 1.392 . S
C2073 C2077 1.495 . S
C2074 C2073 1.392 . S
C2074 C2075 1.385 . S
C2074 C2076 1.478 . S
C2075 H2069 0.930 . S
C2075 C2071 1.400 . S
C2075 C2074 1.385 . S
C2076 C2074 1.478 . S
C2076 C2078 1.381 . S
C2076 C2082 1.383 . S
C2077 C2073 1.495 . S
C2077 H2083 0.959 . S
C2077 H2084 0.961 . S
C2077 H2085 0.960 . S
C2078 C2076 1.381 . S
C2078 C2079 1.394 . S
C2078 H2086 0.930 . S
C2079 C2078 1.394 . S
C2079 C2080 1.383 . S
C2079 H2087 0.929 . S
C2080 C2079 1.383 . S
C2080 C2081 1.377 . S
C2081 H2065 0.930 1_556 S
C2081 C2080 1.377 . S
C2081 C2082 1.379 . S
C2082 H2066 0.931 . S
C2082 C2076 1.383 . S
C2082 C2081 1.379 . S
H2083 C2077 0.959 . S
H2084 C2077 0.961 . S
H2085 C2077 0.960 . S
H2086 C2078 0.930 . S
H2087 C2079 0.929 . S
H2088 C2096 0.929 . S
H2089 C2098 0.930 . S
H2090 C2100 0.930 . S
H2091 C2103 0.929 . S
H2092 C2106 0.930 . S
H2093 C2108 0.960 . S
H2094 C2108 0.960 . S
H2095 C2108 0.960 . S
C2096 H2088 0.929 . S
C2096 C2097 1.377 . S
C2096 C2098 1.384 . S
C2097 C2096 1.377 . S
C2097 C2103 1.390 . S
C2098 H2089 0.930 . S
C2098 C2096 1.384 . S
C2098 C2099 1.372 . S
C2099 C2098 1.372 . S
C2099 C2100 1.400 . S
C2099 C2104 1.490 . S
C2100 H2090 0.930 . S
C2100 C2099 1.400 . S
C2100 C2103 1.386 . S
H2101 C2117 0.930 . S
H2102 C2118 0.931 . S
C2103 H2091 0.929 . S
C2103 C2097 1.390 . S
C2103 C2100 1.386 . S
C2104 C2099 1.490 . S
C2104 C2106 1.395 . S
C2104 C2107 1.403 . S
H2105 C2111 0.930 . S
C2106 H2092 0.930 . S
C2106 C2104 1.395 . S
C2106 C2109 1.403 . S
C2107 C2104 1.403 . S
C2107 C2108 1.524 . S
C2107 C2111 1.400 . S
C2108 H2093 0.960 . S
C2108 H2094 0.960 . S
C2108 H2095 0.960 . S
C2108 C2107 1.524 . S
C2109 C2106 1.403 . S
C2109 C2110 1.392 . S
C2109 C2113 1.495 . S
C2110 C2109 1.392 . S
C2110 C2111 1.385 . S
C2110 C2112 1.478 . S
C2111 H2105 0.930 . S
C2111 C2107 1.400 . S
C2111 C2110 1.385 . S
C2112 C2110 1.478 . S
C2112 C2114 1.381 . S
C2112 C2118 1.383 . S
C2113 C2109 1.495 . S
C2113 H2119 0.959 . S
C2113 H2120 0.961 . S
C2113 H2121 0.960 . S
C2114 C2112 1.381 . S
C2114 C2115 1.394 . S
C2114 H2122 0.930 . S
C2115 C2114 1.394 . S
C2115 C2116 1.383 . S
C2115 H2123 0.929 1_556 S
C2116 C2115 1.383 . S
C2116 C2117 1.377 . S
C2117 H2101 0.930 . S
C2117 C2116 1.377 . S
C2117 C2118 1.379 . S
C2118 H2102 0.931 . S
C2118 C2112 1.383 . S
C2118 C2117 1.379 . S
H2119 C2113 0.959 . S
H2120 C2113 0.961 . S
H2121 C2113 0.960 . S
H2122 C2114 0.930 . S
H2123 C2115 0.929 1_554 S
H2124 C2132 0.929 . S
H2125 C2134 0.930 . S
H2126 C2136 0.930 . S
H2127 C2139 0.929 . S
H2128 C2142 0.930 . S
H2129 C2144 0.960 . S
H2130 C2144 0.960 . S
H2131 C2144 0.960 . S
C2132 H2124 0.929 . S
C2132 C2133 1.377 . S
C2132 C2134 1.384 . S
C2133 C2132 1.377 . S
C2133 C2139 1.390 . S
C2134 H2125 0.930 . S
C2134 C2132 1.384 . S
C2134 C2135 1.372 . S
C2135 C2134 1.372 . S
C2135 C2136 1.400 . S
C2135 C2140 1.490 . S
C2136 H2126 0.930 . S
C2136 C2135 1.400 . S
C2136 C2139 1.386 . S
H2137 C2153 0.930 . S
H2138 C2154 0.931 . S
C2139 H2127 0.929 . S
C2139 C2133 1.390 . S
C2139 C2136 1.386 . S
C2140 C2135 1.490 . S
C2140 C2142 1.395 . S
C2140 C2143 1.403 . S
H2141 C2147 0.930 . S
C2142 H2128 0.930 . S
C2142 C2140 1.395 . S
C2142 C2145 1.403 . S
C2143 C2140 1.403 . S
C2143 C2144 1.524 . S
C2143 C2147 1.400 . S
C2144 H2129 0.960 . S
C2144 H2130 0.960 . S
C2144 H2131 0.960 . S
C2144 C2143 1.524 . S
C2145 C2142 1.403 . S
C2145 C2146 1.392 . S
C2145 C2149 1.495 . S
C2146 C2145 1.392 . S
C2146 C2147 1.385 . S
C2146 C2148 1.478 . S
C2147 H2141 0.930 . S
C2147 C2143 1.400 . S
C2147 C2146 1.385 . S
C2148 C2146 1.478 . S
C2148 C2150 1.381 . S
C2148 C2154 1.383 . S
C2149 C2145 1.495 . S
C2149 H2155 0.959 . S
C2149 H2156 0.961 . S
C2149 H2157 0.960 . S
C2150 C2148 1.381 . S
C2150 C2151 1.394 . S
C2150 H2158 0.930 . S
C2151 C2150 1.394 . S
C2151 C2152 1.383 . S
C2151 H2159 0.929 . S
C2152 C2151 1.383 . S
C2152 C2153 1.377 . S
C2153 H2137 0.930 . S
C2153 C2152 1.377 . S
C2153 C2154 1.379 . S
C2154 H2138 0.931 . S
C2154 C2148 1.383 . S
C2154 C2153 1.379 . S
H2155 C2149 0.959 . S
H2156 C2149 0.961 . S
H2157 C2149 0.960 . S
H2158 C2150 0.930 . S
H2159 C2151 0.929 . S
H2160 C2168 0.929 . S
H2161 C2170 0.930 . S
H2162 C2172 0.930 . S
H2163 C2175 0.929 . S
H2164 C2178 0.930 . S
H2165 C2180 0.960 . S
H2166 C2180 0.960 . S
H2167 C2180 0.960 . S
C2168 H2160 0.929 . S
C2168 C2169 1.377 . S
C2168 C2170 1.384 . S
C2169 C2168 1.377 . S
C2169 C2175 1.390 . S
C2170 H2161 0.930 . S
C2170 C2168 1.384 . S
C2170 C2171 1.372 . S
C2171 C2170 1.372 . S
C2171 C2172 1.400 . S
C2171 C2176 1.490 . S
C2172 H2162 0.930 . S
C2172 C2171 1.400 . S
C2172 C2175 1.386 . S
H2173 C2189 0.930 . S
H2174 C2190 0.931 . S
C2175 H2163 0.929 . S
C2175 C2169 1.390 . S
C2175 C2172 1.386 . S
C2176 C2171 1.490 . S
C2176 C2178 1.395 . S
C2176 C2179 1.403 . S
H2177 C2183 0.930 . S
C2178 H2164 0.930 . S
C2178 C2176 1.395 . S
C2178 C2181 1.403 . S
C2179 C2176 1.403 . S
C2179 C2180 1.524 . S
C2179 C2183 1.400 . S
C2180 H2165 0.960 . S
C2180 H2166 0.960 . S
C2180 H2167 0.960 . S
C2180 C2179 1.524 . S
C2181 C2178 1.403 . S
C2181 C2182 1.392 . S
C2181 C2185 1.495 . S
C2182 C2181 1.392 . S
C2182 C2183 1.385 . S
C2182 C2184 1.478 . S
C2183 H2177 0.930 . S
C2183 C2179 1.400 . S
C2183 C2182 1.385 . S
C2184 C2182 1.478 . S
C2184 C2186 1.381 . S
C2184 C2190 1.383 . S
C2185 C2181 1.495 . S
C2185 H2191 0.959 . S
C2185 H2192 0.961 . S
C2185 H2193 0.960 . S
C2186 C2184 1.381 . S
C2186 C2187 1.394 . S
C2186 H2194 0.930 . S
C2187 C2186 1.394 . S
C2187 C2188 1.383 . S
C2187 H2195 0.929 . S
C2188 C2187 1.383 . S
C2188 C2189 1.377 . S
C2189 H2173 0.930 . S
C2189 C2188 1.377 . S
C2189 C2190 1.379 . S
C2190 H2174 0.931 . S
C2190 C2184 1.383 . S
C2190 C2189 1.379 . S
H2191 C2185 0.959 . S
H2192 C2185 0.961 . S
H2193 C2185 0.960 . S
H2194 C2186 0.930 . S
H2195 C2187 0.929 . S
H2196 C2204 0.929 . S
H2197 C2206 0.930 . S
H2198 C2208 0.930 . S
H2199 C2211 0.929 . S
H2200 C2214 0.930 . S
H2201 C2216 0.960 . S
H2202 C2216 0.960 . S
H2203 C2216 0.960 . S
C2204 H2196 0.929 . S
C2204 C2205 1.377 . S
C2204 C2206 1.384 . S
C2205 C2204 1.377 . S
C2205 C2211 1.390 . S
C2206 H2197 0.930 . S
C2206 C2204 1.384 . S
C2206 C2207 1.372 . S
C2207 C2206 1.372 . S
C2207 C2208 1.400 . S
C2207 C2212 1.490 . S
C2208 H2198 0.930 . S
C2208 C2207 1.400 . S
C2208 C2211 1.386 . S
H2209 C2225 0.930 . S
H2210 C2226 0.931 . S
C2211 H2199 0.929 . S
C2211 C2205 1.390 . S
C2211 C2208 1.386 . S
C2212 C2207 1.490 . S
C2212 C2214 1.395 . S
C2212 C2215 1.403 . S
H2213 C2219 0.930 . S
C2214 H2200 0.930 . S
C2214 C2212 1.395 . S
C2214 C2217 1.403 . S
C2215 C2212 1.403 . S
C2215 C2216 1.524 . S
C2215 C2219 1.400 . S
C2216 H2201 0.960 . S
C2216 H2202 0.960 . S
C2216 H2203 0.960 . S
C2216 C2215 1.524 . S
C2217 C2214 1.403 . S
C2217 C2218 1.392 . S
C2217 C2221 1.495 . S
C2218 C2217 1.392 . S
C2218 C2219 1.385 . S
C2218 C2220 1.478 . S
C2219 H2213 0.930 . S
C2219 C2215 1.400 . S
C2219 C2218 1.385 . S
C2220 C2218 1.478 . S
C2220 C2222 1.381 . S
C2220 C2226 1.383 . S
C2221 C2217 1.495 . S
C2221 H2227 0.959 . S
C2221 H2228 0.961 . S
C2221 H2229 0.960 . S
C2222 C2220 1.381 . S
C2222 C2223 1.394 . S
C2222 H2230 0.930 . S
C2223 C2222 1.394 . S
C2223 C2224 1.383 . S
C2223 H2231 0.929 1_554 S
C2224 C2223 1.383 . S
C2224 C2225 1.377 . S
C2225 H2209 0.930 . S
C2225 C2224 1.377 . S
C2225 C2226 1.379 . S
C2226 H2210 0.931 . S
C2226 C2220 1.383 . S
C2226 C2225 1.379 . S
H2227 C2221 0.959 . S
H2228 C2221 0.961 . S
H2229 C2221 0.960 . S
H2230 C2222 0.930 . S
H2231 C2223 0.929 1_556 S
H2232 C2240 0.929 . S
H2233 C2242 0.930 . S
H2234 C2244 0.930 . S
H2235 C2247 0.929 . S
H2236 C2250 0.930 . S
H2237 C2252 0.960 . S
H2238 C2252 0.960 . S
H2239 C2252 0.960 . S
C2240 H2232 0.929 . S
C2240 C2241 1.377 . S
C2240 C2242 1.384 . S
C2241 C2240 1.377 . S
C2241 C2247 1.390 . S
C2242 H2233 0.930 . S
C2242 C2240 1.384 . S
C2242 C2243 1.372 . S
C2243 C2242 1.372 . S
C2243 C2244 1.400 . S
C2243 C2248 1.490 . S
C2244 H2234 0.930 . S
C2244 C2243 1.400 . S
C2244 C2247 1.386 . S
H2245 C2261 0.930 . S
H2246 C2262 0.931 . S
C2247 H2235 0.929 . S
C2247 C2241 1.390 . S
C2247 C2244 1.386 . S
C2248 C2243 1.490 . S
C2248 C2250 1.395 . S
C2248 C2251 1.403 . S
H2249 C2255 0.930 . S
C2250 H2236 0.930 . S
C2250 C2248 1.395 . S
C2250 C2253 1.403 . S
C2251 C2248 1.403 . S
C2251 C2252 1.524 . S
C2251 C2255 1.400 . S
C2252 H2237 0.960 . S
C2252 H2238 0.960 . S
C2252 H2239 0.960 . S
C2252 C2251 1.524 . S
C2253 C2250 1.403 . S
C2253 C2254 1.392 . S
C2253 C2257 1.495 . S
C2254 C2253 1.392 . S
C2254 C2255 1.385 . S
C2254 C2256 1.478 . S
C2255 H2249 0.930 . S
C2255 C2251 1.400 . S
C2255 C2254 1.385 . S
C2256 C2254 1.478 . S
C2256 C2258 1.381 . S
C2256 C2262 1.383 . S
C2257 C2253 1.495 . S
C2257 H2263 0.959 . S
C2257 H2264 0.961 . S
C2257 H2265 0.960 . S
C2258 C2256 1.381 . S
C2258 C2259 1.394 . S
C2258 H2266 0.930 . S
C2259 C2258 1.394 . S
C2259 C2260 1.383 . S
C2259 H2267 0.929 . S
C2260 C2259 1.383 . S
C2260 C2261 1.377 . S
C2261 H2245 0.930 . S
C2261 C2260 1.377 . S
C2261 C2262 1.379 . S
C2262 H2246 0.931 . S
C2262 C2256 1.383 . S
C2262 C2261 1.379 . S
H2263 C2257 0.959 . S
H2264 C2257 0.961 . S
H2265 C2257 0.960 . S
H2266 C2258 0.930 . S
H2267 C2259 0.929 . S
H2268 C2276 0.929 . S
H2269 C2278 0.930 . S
H2270 C2280 0.932 . S
H2271 C2283 0.929 . S
H2272 C2286 0.930 . S
H2273 C2288 0.960 . S
H2274 C2288 0.960 . S
H2275 C2288 0.960 . S
C2276 H2268 0.929 . S
C2276 C2277 1.377 . S
C2276 C2278 1.384 . S
C2277 C2276 1.377 . S
C2277 C2283 1.390 . S
C2278 H2269 0.930 . S
C2278 C2276 1.384 . S
C2278 C2279 1.372 1_655 S
C2279 C2278 1.372 1_455 S
C2279 C2280 1.402 . S
C2279 C2284 1.490 . S
C2280 H2270 0.932 . S
C2280 C2279 1.402 . S
C2280 C2283 1.381 1_455 S
H2281 C2297 0.930 . S
H2282 C2298 0.931 . S
C2283 H2271 0.929 . S
C2283 C2277 1.390 . S
C2283 C2280 1.381 1_655 S
C2284 C2279 1.490 . S
C2284 C2286 1.395 . S
C2284 C2287 1.403 . S
H2285 C2291 0.930 . S
C2286 H2272 0.930 . S
C2286 C2284 1.395 . S
C2286 C2289 1.403 . S
C2287 C2284 1.403 . S
C2287 C2288 1.524 . S
C2287 C2291 1.400 . S
C2288 H2273 0.960 . S
C2288 H2274 0.960 . S
C2288 H2275 0.960 . S
C2288 C2287 1.524 . S
C2289 C2286 1.403 . S
C2289 C2290 1.392 . S
C2289 C2293 1.495 . S
C2290 C2289 1.392 . S
C2290 C2291 1.385 . S
C2290 C2292 1.478 . S
C2291 H2285 0.930 . S
C2291 C2287 1.400 . S
C2291 C2290 1.385 . S
C2292 C2290 1.478 . S
C2292 C2294 1.381 . S
C2292 C2298 1.383 . S
C2293 C2289 1.495 . S
C2293 H2299 0.959 . S
C2293 H2300 0.961 . S
C2293 H2301 0.960 . S
C2294 C2292 1.381 . S
C2294 C2295 1.394 . S
C2294 H2302 0.930 . S
C2295 C2294 1.394 . S
C2295 C2296 1.383 . S
C2295 H2303 0.929 . S
C2296 C2295 1.383 . S
C2296 C2297 1.377 . S
C2297 H2281 0.930 . S
C2297 C2296 1.377 . S
C2297 C2298 1.379 . S
C2298 H2282 0.931 . S
C2298 C2292 1.383 . S
C2298 C2297 1.379 . S
H2299 C2293 0.959 . S
H2300 C2293 0.961 . S
H2301 C2293 0.960 . S
H2302 C2294 0.930 . S
H2303 C2295 0.929 . S
H2304 C2312 0.929 . S
H2305 C2314 0.930 . S
H2306 C2316 0.930 . S
H2307 C2319 0.929 . S
H2308 C2322 0.930 . S
H2309 C2324 0.960 . S
H2310 C2324 0.960 . S
H2311 C2324 0.960 . S
C2312 H2304 0.929 . S
C2312 C2313 1.377 . S
C2312 C2314 1.384 . S
C2313 C2312 1.377 . S
C2313 C2319 1.390 . S
C2314 H2305 0.930 . S
C2314 C2312 1.384 . S
C2314 C2315 1.372 . S
C2315 C2314 1.372 . S
C2315 C2316 1.400 . S
C2315 C2320 1.490 . S
C2316 H2306 0.930 . S
C2316 C2315 1.400 . S
C2316 C2319 1.386 . S
H2317 C2333 0.930 . S
H2318 C2334 0.931 . S
C2319 H2307 0.929 . S
C2319 C2313 1.390 . S
C2319 C2316 1.386 . S
C2320 C2315 1.490 . S
C2320 C2322 1.395 . S
C2320 C2323 1.403 . S
H2321 C2327 0.930 . S
C2322 H2308 0.930 . S
C2322 C2320 1.395 . S
C2322 C2325 1.403 . S
C2323 C2320 1.403 . S
C2323 C2324 1.524 . S
C2323 C2327 1.400 . S
C2324 H2309 0.960 . S
C2324 H2310 0.960 . S
C2324 H2311 0.960 . S
C2324 C2323 1.524 . S
C2325 C2322 1.403 . S
C2325 C2326 1.392 . S
C2325 C2329 1.495 . S
C2326 C2325 1.392 . S
C2326 C2327 1.385 . S
C2326 C2328 1.478 . S
C2327 H2321 0.930 . S
C2327 C2323 1.400 . S
C2327 C2326 1.385 . S
C2328 C2326 1.478 . S
C2328 C2330 1.381 . S
C2328 C2334 1.383 . S
C2329 C2325 1.495 . S
C2329 H2335 0.959 . S
C2329 H2336 0.961 . S
C2329 H2337 0.960 . S
C2330 C2328 1.381 . S
C2330 C2331 1.394 . S
C2330 H2338 0.930 . S
C2331 C2330 1.394 . S
C2331 C2332 1.383 . S
C2331 H2339 0.929 . S
C2332 C2331 1.383 . S
C2332 C2333 1.377 . S
C2333 H2317 0.930 . S
C2333 C2332 1.377 . S
C2333 C2334 1.379 . S
C2334 H2318 0.931 . S
C2334 C2328 1.383 . S
C2334 C2333 1.379 . S
H2335 C2329 0.959 . S
H2336 C2329 0.961 . S
H2337 C2329 0.960 . S
H2338 C2330 0.930 . S
H2339 C2331 0.929 . S
H2340 C2348 0.929 . S
H2341 C2350 0.930 1_565 S
H2342 C2352 0.930 . S
H2343 C2355 0.929 . S
H2344 C2358 0.930 . S
H2345 C2360 0.960 . S
H2346 C2360 0.958 1_545 S
H2347 C2360 0.960 1_545 S
C2348 H2340 0.929 . S
C2348 C2349 1.377 . S
C2348 C2350 1.384 . S
C2349 C2348 1.377 . S
C2349 C2355 1.390 . S
C2350 H2341 0.930 1_545 S
C2350 C2348 1.384 . S
C2350 C2351 1.372 . S
C2351 C2350 1.372 . S
C2351 C2352 1.400 . S
C2351 C2356 1.490 1_545 S
C2352 H2342 0.930 . S
C2352 C2351 1.400 . S
C2352 C2355 1.386 . S
H2353 C2369 0.930 . S
H2354 C2370 0.931 . S
C2355 H2343 0.929 . S
C2355 C2349 1.390 . S
C2355 C2352 1.386 . S
C2356 C2351 1.490 1_565 S
C2356 C2358 1.395 . S
C2356 C2359 1.403 . S
H2357 C2363 0.930 . S
C2358 H2344 0.930 . S
C2358 C2356 1.395 . S
C2358 C2361 1.403 . S
C2359 C2356 1.403 . S
C2359 C2360 1.524 . S
C2359 C2363 1.400 . S
C2360 H2345 0.960 . S
C2360 H2346 0.958 1_565 S
C2360 H2347 0.960 1_565 S
C2360 C2359 1.524 . S
C2361 C2358 1.403 . S
C2361 C2362 1.392 . S
C2361 C2365 1.495 . S
C2362 C2361 1.392 . S
C2362 C2363 1.385 . S
C2362 C2364 1.478 . S
C2363 H2357 0.930 . S
C2363 C2359 1.400 . S
C2363 C2362 1.385 . S
C2364 C2362 1.478 . S
C2364 C2366 1.381 . S
C2364 C2370 1.383 . S
C2365 C2361 1.495 . S
C2365 H2371 0.959 . S
C2365 H2372 0.961 . S
C2365 H2373 0.960 . S
C2366 C2364 1.381 . S
C2366 C2367 1.394 . S
C2366 H2374 0.930 . S
C2367 C2366 1.394 . S
C2367 C2368 1.383 . S
C2367 H2375 0.929 . S
C2368 C2367 1.383 . S
C2368 C2369 1.377 . S
C2369 H2353 0.930 . S
C2369 C2368 1.377 . S
C2369 C2370 1.379 . S
C2370 H2354 0.931 . S
C2370 C2364 1.383 . S
C2370 C2369 1.379 . S
H2371 C2365 0.959 . S
H2372 C2365 0.961 . S
H2373 C2365 0.960 . S
H2374 C2366 0.930 . S
H2375 C2367 0.929 . S
H2376 C2384 0.929 . S
H2377 C2386 0.930 . S
H2378 C2388 0.930 . S
H2379 C2391 0.929 . S
H2380 C2394 0.930 . S
H2381 C2396 0.960 . S
H2382 C2396 0.960 . S
H2383 C2396 0.960 . S
C2384 H2376 0.929 . S
C2384 C2385 1.377 . S
C2384 C2386 1.384 . S
C2385 C2384 1.377 . S
C2385 C2391 1.390 . S
C2386 H2377 0.930 . S
C2386 C2384 1.384 . S
C2386 C2387 1.372 . S
C2387 C2386 1.372 . S
C2387 C2388 1.400 . S
C2387 C2392 1.490 . S
C2388 H2378 0.930 . S
C2388 C2387 1.400 . S
C2388 C2391 1.386 . S
H2389 C2405 0.930 . S
H2390 C2406 0.931 . S
C2391 H2379 0.929 . S
C2391 C2385 1.390 . S
C2391 C2388 1.386 . S
C2392 C2387 1.490 . S
C2392 C2394 1.395 . S
C2392 C2395 1.403 . S
H2393 C2399 0.930 . S
C2394 H2380 0.930 . S
C2394 C2392 1.395 . S
C2394 C2397 1.403 . S
C2395 C2392 1.403 . S
C2395 C2396 1.524 . S
C2395 C2399 1.400 . S
C2396 H2381 0.960 . S
C2396 H2382 0.960 . S
C2396 H2383 0.960 . S
C2396 C2395 1.524 . S
C2397 C2394 1.403 . S
C2397 C2398 1.392 . S
C2397 C2401 1.495 . S
C2398 C2397 1.392 . S
C2398 C2399 1.385 . S
C2398 C2400 1.478 . S
C2399 H2393 0.930 . S
C2399 C2395 1.400 . S
C2399 C2398 1.385 . S
C2400 C2398 1.478 . S
C2400 C2402 1.381 . S
C2400 C2406 1.383 . S
C2401 C2397 1.495 . S
C2401 H2407 0.959 . S
C2401 H2408 0.961 . S
C2401 H2409 0.960 . S
C2402 C2400 1.381 . S
C2402 C2403 1.394 . S
C2402 H2410 0.930 . S
C2403 C2402 1.394 . S
C2403 C2404 1.383 . S
C2403 H2411 0.929 . S
C2404 C2403 1.383 . S
C2404 C2405 1.377 . S
C2405 H2389 0.930 . S
C2405 C2404 1.377 . S
C2405 C2406 1.379 . S
C2406 H2390 0.931 . S
C2406 C2400 1.383 . S
C2406 C2405 1.379 . S
H2407 C2401 0.959 . S
H2408 C2401 0.961 . S
H2409 C2401 0.960 . S
H2410 C2402 0.930 . S
H2411 C2403 0.929 . S
H2412 C2420 0.929 . S
H2413 C2422 0.930 . S
H2414 C2424 0.930 . S
H2415 C2427 0.929 . S
H2416 C2430 0.930 . S
H2417 C2432 0.960 . S
H2418 C2432 0.960 . S
H2419 C2432 0.960 . S
C2420 H2412 0.929 . S
C2420 C2421 1.377 . S
C2420 C2422 1.384 . S
C2421 C2420 1.377 . S
C2421 C2427 1.390 . S
C2422 H2413 0.930 . S
C2422 C2420 1.384 . S
C2422 C2423 1.372 . S
C2423 C2422 1.372 . S
C2423 C2424 1.400 . S
C2423 C2428 1.490 . S
C2424 H2414 0.930 . S
C2424 C2423 1.400 . S
C2424 C2427 1.386 . S
H2425 C2441 0.930 . S
H2426 C2442 0.931 . S
C2427 H2415 0.929 . S
C2427 C2421 1.390 . S
C2427 C2424 1.386 . S
C2428 C2423 1.490 . S
C2428 C2430 1.395 . S
C2428 C2431 1.403 . S
H2429 C2435 0.930 . S
C2430 H2416 0.930 . S
C2430 C2428 1.395 . S
C2430 C2433 1.403 . S
C2431 C2428 1.403 . S
C2431 C2432 1.524 . S
C2431 C2435 1.400 . S
C2432 H2417 0.960 . S
C2432 H2418 0.960 . S
C2432 H2419 0.960 . S
C2432 C2431 1.524 . S
C2433 C2430 1.403 . S
C2433 C2434 1.392 . S
C2433 C2437 1.495 . S
C2434 C2433 1.392 . S
C2434 C2435 1.385 . S
C2434 C2436 1.478 . S
C2435 H2429 0.930 . S
C2435 C2431 1.400 . S
C2435 C2434 1.385 . S
C2436 C2434 1.478 . S
C2436 C2438 1.381 . S
C2436 C2442 1.383 . S
C2437 C2433 1.495 . S
C2437 H2443 0.959 . S
C2437 H2444 0.961 . S
C2437 H2445 0.960 . S
C2438 C2436 1.381 . S
C2438 C2439 1.394 . S
C2438 H2446 0.930 . S
C2439 C2438 1.394 . S
C2439 C2440 1.383 . S
C2439 H2447 0.929 . S
C2440 C2439 1.383 . S
C2440 C2441 1.377 . S
C2441 H2425 0.930 . S
C2441 C2440 1.377 . S
C2441 C2442 1.379 . S
C2442 H2426 0.931 . S
C2442 C2436 1.383 . S
C2442 C2441 1.379 . S
H2443 C2437 0.959 . S
H2444 C2437 0.961 . S
H2445 C2437 0.960 . S
H2446 C2438 0.930 . S
H2447 C2439 0.929 . S
H2448 C2456 0.929 . S
H2449 C2458 0.930 . S
H2450 C2460 0.930 . S
H2451 C2463 0.929 . S
H2452 C2466 0.930 . S
H2453 C2468 0.960 . S
H2454 C2468 0.960 . S
H2455 C2468 0.960 . S
C2456 H2448 0.929 . S
C2456 C2457 1.377 . S
C2456 C2458 1.384 . S
C2457 C2456 1.377 . S
C2457 C2463 1.390 . S
C2458 H2449 0.930 . S
C2458 C2456 1.384 . S
C2458 C2459 1.372 . S
C2459 C2458 1.372 . S
C2459 C2460 1.400 . S
C2459 C2464 1.490 . S
C2460 H2450 0.930 . S
C2460 C2459 1.400 . S
C2460 C2463 1.386 . S
H2461 C2477 0.930 . S
H2462 C2478 0.931 . S
C2463 H2451 0.929 . S
C2463 C2457 1.390 . S
C2463 C2460 1.386 . S
C2464 C2459 1.490 . S
C2464 C2466 1.395 . S
C2464 C2467 1.403 . S
H2465 C2471 0.930 . S
C2466 H2452 0.930 . S
C2466 C2464 1.395 . S
C2466 C2469 1.403 . S
C2467 C2464 1.403 . S
C2467 C2468 1.524 . S
C2467 C2471 1.400 . S
C2468 H2453 0.960 . S
C2468 H2454 0.960 . S
C2468 H2455 0.960 . S
C2468 C2467 1.524 . S
C2469 C2466 1.403 . S
C2469 C2470 1.392 . S
C2469 C2473 1.495 . S
C2470 C2469 1.392 . S
C2470 C2471 1.385 . S
C2470 C2472 1.478 . S
C2471 H2465 0.930 . S
C2471 C2467 1.400 . S
C2471 C2470 1.385 . S
C2472 C2470 1.478 . S
C2472 C2474 1.381 . S
C2472 C2478 1.383 . S
C2473 C2469 1.495 . S
C2473 H2479 0.959 . S
C2473 H2480 0.961 . S
C2473 H2481 0.960 . S
C2474 C2472 1.381 . S
C2474 C2475 1.394 . S
C2474 H2482 0.930 . S
C2475 C2474 1.394 . S
C2475 C2476 1.383 . S
C2475 H2483 0.929 . S
C2476 C2475 1.383 . S
C2476 C2477 1.377 . S
C2477 H2461 0.930 . S
C2477 C2476 1.377 . S
C2477 C2478 1.379 . S
C2478 H2462 0.931 . S
C2478 C2472 1.383 . S
C2478 C2477 1.379 . S
H2479 C2473 0.959 . S
H2480 C2473 0.961 . S
H2481 C2473 0.960 . S
H2482 C2474 0.930 . S
H2483 C2475 0.929 . S
H2484 C2492 0.929 . S
H2485 C2494 0.930 . S
H2486 C2496 0.930 . S
H2487 C2499 0.929 . S
H2488 C2502 0.930 . S
H2489 C2504 0.960 . S
H2490 C2504 0.960 . S
H2491 C2504 0.960 . S
C2492 H2484 0.929 . S
C2492 C2493 1.377 . S
C2492 C2494 1.384 . S
C2493 C2492 1.377 . S
C2493 C2499 1.390 . S
C2494 H2485 0.930 . S
C2494 C2492 1.384 . S
C2494 C2495 1.372 . S
C2495 C2494 1.372 . S
C2495 C2496 1.400 . S
C2495 C2500 1.490 . S
C2496 H2486 0.930 . S
C2496 C2495 1.400 . S
C2496 C2499 1.386 . S
H2497 C2513 0.930 . S
H2498 C2514 0.931 . S
C2499 H2487 0.929 . S
C2499 C2493 1.390 . S
C2499 C2496 1.386 . S
C2500 C2495 1.490 . S
C2500 C2502 1.395 . S
C2500 C2503 1.403 . S
H2501 C2507 0.930 . S
C2502 H2488 0.930 . S
C2502 C2500 1.395 . S
C2502 C2505 1.403 . S
C2503 C2500 1.403 . S
C2503 C2504 1.524 . S
C2503 C2507 1.400 . S
C2504 H2489 0.960 . S
C2504 H2490 0.960 . S
C2504 H2491 0.960 . S
C2504 C2503 1.524 . S
C2505 C2502 1.403 . S
C2505 C2506 1.392 . S
C2505 C2509 1.495 . S
C2506 C2505 1.392 . S
C2506 C2507 1.385 . S
C2506 C2508 1.478 . S
C2507 H2501 0.930 . S
C2507 C2503 1.400 . S
C2507 C2506 1.385 . S
C2508 C2506 1.478 . S
C2508 C2510 1.381 . S
C2508 C2514 1.383 . S
C2509 C2505 1.495 . S
C2509 H2515 0.959 . S
C2509 H2516 0.961 . S
C2509 H2517 0.960 . S
C2510 C2508 1.381 . S
C2510 C2511 1.394 . S
C2510 H2518 0.930 . S
C2511 C2510 1.394 . S
C2511 C2512 1.383 . S
C2511 H2519 0.929 . S
C2512 C2511 1.383 . S
C2512 C2513 1.377 . S
C2513 H2497 0.930 . S
C2513 C2512 1.377 . S
C2513 C2514 1.379 . S
C2514 H2498 0.931 . S
C2514 C2508 1.383 . S
C2514 C2513 1.379 . S
H2515 C2509 0.959 . S
H2516 C2509 0.961 . S
H2517 C2509 0.960 . S
H2518 C2510 0.930 . S
H2519 C2511 0.929 . S
H2520 C2528 0.929 . S
H2521 C2530 0.930 . S
H2522 C2532 0.930 . S
H2523 C2535 0.929 . S
H2524 C2538 0.930 . S
H2525 C2540 0.960 . S
H2526 C2540 0.960 . S
H2527 C2540 0.960 . S
C2528 H2520 0.929 . S
C2528 C2529 1.377 . S
C2528 C2530 1.384 . S
C2529 C2528 1.377 . S
C2529 C2535 1.390 . S
C2530 H2521 0.930 . S
C2530 C2528 1.384 . S
C2530 C2531 1.372 . S
C2531 C2530 1.372 . S
C2531 C2532 1.400 . S
C2531 C2536 1.490 . S
C2532 H2522 0.930 . S
C2532 C2531 1.400 . S
C2532 C2535 1.386 . S
H2533 C2549 0.930 . S
H2534 C2550 0.931 . S
C2535 H2523 0.929 . S
C2535 C2529 1.390 . S
C2535 C2532 1.386 . S
C2536 C2531 1.490 . S
C2536 C2538 1.395 . S
C2536 C2539 1.403 . S
H2537 C2543 0.930 . S
C2538 H2524 0.930 . S
C2538 C2536 1.395 . S
C2538 C2541 1.403 . S
C2539 C2536 1.403 . S
C2539 C2540 1.524 . S
C2539 C2543 1.400 . S
C2540 H2525 0.960 . S
C2540 H2526 0.960 . S
C2540 H2527 0.960 . S
C2540 C2539 1.524 . S
C2541 C2538 1.403 . S
C2541 C2542 1.392 . S
C2541 C2545 1.495 . S
C2542 C2541 1.392 . S
C2542 C2543 1.385 . S
C2542 C2544 1.478 . S
C2543 H2537 0.930 . S
C2543 C2539 1.400 . S
C2543 C2542 1.385 . S
C2544 C2542 1.478 . S
C2544 C2546 1.381 . S
C2544 C2550 1.383 . S
C2545 C2541 1.495 . S
C2545 H2551 0.959 . S
C2545 H2552 0.961 . S
C2545 H2553 0.960 . S
C2546 C2544 1.381 . S
C2546 C2547 1.394 . S
C2546 H2554 0.930 . S
C2547 C2546 1.394 . S
C2547 C2548 1.383 . S
C2547 H2555 0.929 . S
C2548 C2547 1.383 . S
C2548 C2549 1.377 . S
C2549 H2533 0.930 . S
C2549 C2548 1.377 . S
C2549 C2550 1.379 . S
C2550 H2534 0.931 . S
C2550 C2544 1.383 . S
C2550 C2549 1.379 . S
H2551 C2545 0.959 . S
H2552 C2545 0.961 . S
H2553 C2545 0.960 . S
H2554 C2546 0.930 . S
H2555 C2547 0.929 . S
H2556 C2564 0.929 . S
H2557 C2566 0.930 . S
H2558 C2568 0.930 . S
H2559 C2571 0.929 . S
H2560 C2574 0.930 . S
H2561 C2576 0.960 . S
H2562 C2576 0.960 . S
H2563 C2576 0.960 . S
C2564 H2556 0.929 . S
C2564 C2565 1.377 . S
C2564 C2566 1.384 . S
C2565 C2564 1.377 . S
C2565 C2571 1.390 . S
C2566 H2557 0.930 . S
C2566 C2564 1.384 . S
C2566 C2567 1.372 . S
C2567 C2566 1.372 . S
C2567 C2568 1.400 . S
C2567 C2572 1.490 . S
C2568 H2558 0.930 . S
C2568 C2567 1.400 . S
C2568 C2571 1.386 . S
H2569 C2585 0.930 . S
H2570 C2586 0.931 . S
C2571 H2559 0.929 . S
C2571 C2565 1.390 . S
C2571 C2568 1.386 . S
C2572 C2567 1.490 . S
C2572 C2574 1.395 . S
C2572 C2575 1.403 . S
H2573 C2579 0.930 . S
C2574 H2560 0.930 . S
C2574 C2572 1.395 . S
C2574 C2577 1.403 . S
C2575 C2572 1.403 . S
C2575 C2576 1.524 . S
C2575 C2579 1.400 . S
C2576 H2561 0.960 . S
C2576 H2562 0.960 . S
C2576 H2563 0.960 . S
C2576 C2575 1.524 . S
C2577 C2574 1.403 . S
C2577 C2578 1.392 . S
C2577 C2581 1.495 . S
C2578 C2577 1.392 . S
C2578 C2579 1.385 . S
C2578 C2580 1.478 . S
C2579 H2573 0.930 . S
C2579 C2575 1.400 . S
C2579 C2578 1.385 . S
C2580 C2578 1.478 . S
C2580 C2582 1.381 . S
C2580 C2586 1.383 . S
C2581 C2577 1.495 . S
C2581 H2587 0.959 . S
C2581 H2588 0.961 . S
C2581 H2589 0.960 . S
C2582 C2580 1.381 . S
C2582 C2583 1.394 . S
C2582 H2590 0.930 . S
C2583 C2582 1.394 . S
C2583 C2584 1.383 . S
C2583 H2591 0.929 . S
C2584 C2583 1.383 . S
C2584 C2585 1.377 . S
C2585 H2569 0.930 . S
C2585 C2584 1.377 . S
C2585 C2586 1.379 . S
C2586 H2570 0.931 . S
C2586 C2580 1.383 . S
C2586 C2585 1.379 . S
H2587 C2581 0.959 . S
H2588 C2581 0.961 . S
H2589 C2581 0.960 . S
H2590 C2582 0.930 . S
H2591 C2583 0.929 . S
H2592 C2600 0.929 . S
H2593 C2602 0.930 . S
H2594 C2604 0.930 1_565 S
H2595 C2607 0.929 . S
H2596 C2610 0.930 . S
H2597 C2612 0.960 . S
H2598 C2612 0.960 . S
H2599 C2612 0.960 . S
C2600 H2592 0.929 . S
C2600 C2601 1.377 . S
C2600 C2602 1.384 . S
C2601 C2600 1.377 . S
C2601 C2607 1.390 . S
C2602 H2593 0.930 . S
C2602 C2600 1.384 . S
C2602 C2603 1.410 . S
C2603 C2602 1.410 . S
C2603 C2604 1.415 . S
C2603 C2608 1.441 1_545 S
C2604 H2594 0.930 1_545 S
C2604 C2603 1.415 . S
C2604 C2607 1.386 . S
H2605 C2621 0.930 . S
H2606 C2622 0.931 . S
C2607 H2595 0.929 . S
C2607 C2601 1.390 . S
C2607 C2604 1.386 . S
C2608 C2603 1.441 1_565 S
C2608 C2610 1.395 . S
C2608 C2611 1.403 . S
H2609 C2615 0.930 . S
C2610 H2596 0.930 . S
C2610 C2608 1.395 . S
C2610 C2613 1.403 . S
C2611 C2608 1.403 . S
C2611 C2612 1.524 . S
C2611 C2615 1.400 . S
C2612 H2597 0.960 . S
C2612 H2598 0.960 . S
C2612 H2599 0.960 . S
C2612 C2611 1.524 . S
C2613 C2610 1.403 . S
C2613 C2614 1.392 . S
C2613 C2617 1.495 . S
C2614 C2613 1.392 . S
C2614 C2615 1.385 . S
C2614 C2616 1.478 . S
C2615 H2609 0.930 . S
C2615 C2611 1.400 . S
C2615 C2614 1.385 . S
C2616 C2614 1.478 . S
C2616 C2618 1.381 . S
C2616 C2622 1.383 . S
C2617 C2613 1.495 . S
C2617 H2623 0.959 . S
C2617 H2624 0.961 . S
C2617 H2625 0.960 . S
C2618 C2616 1.381 . S
C2618 C2619 1.394 . S
C2618 H2626 0.930 . S
C2619 C2618 1.394 . S
C2619 C2620 1.383 . S
C2619 H2627 0.929 . S
C2620 C2619 1.383 . S
C2620 C2621 1.377 . S
C2621 H2605 0.930 . S
C2621 C2620 1.377 . S
C2621 C2622 1.379 . S
C2622 H2606 0.931 . S
C2622 C2616 1.383 . S
C2622 C2621 1.379 . S
H2623 C2617 0.959 . S
H2624 C2617 0.961 . S
H2625 C2617 0.960 . S
H2626 C2618 0.930 . S
H2627 C2619 0.929 . S
H2628 C2636 0.929 . S
H2629 C2638 0.930 . S
H2630 C2640 0.930 . S
H2631 C2643 0.929 . S
H2632 C2646 0.930 . S
H2633 C2648 0.960 . S
H2634 C2648 0.960 . S
H2635 C2648 0.960 . S
C2636 H2628 0.929 . S
C2636 C2637 1.377 . S
C2636 C2638 1.384 1_655 S
C2637 C2636 1.377 . S
C2637 C2643 1.390 . S
C2638 H2629 0.930 . S
C2638 C2636 1.384 1_455 S
C2638 C2639 1.372 . S
C2639 C2638 1.372 . S
C2639 C2640 1.400 1_455 S
C2639 C2644 1.490 . S
C2640 H2630 0.930 . S
C2640 C2639 1.400 1_655 S
C2640 C2643 1.386 . S
H2641 C2657 0.930 . S
H2642 C2658 0.931 . S
C2643 H2631 0.929 . S
C2643 C2637 1.390 . S
C2643 C2640 1.386 . S
C2644 C2639 1.490 . S
C2644 C2646 1.395 . S
C2644 C2647 1.403 . S
H2645 C2651 0.930 . S
C2646 H2632 0.930 . S
C2646 C2644 1.395 . S
C2646 C2649 1.403 . S
C2647 C2644 1.403 . S
C2647 C2648 1.524 . S
C2647 C2651 1.400 . S
C2648 H2633 0.960 . S
C2648 H2634 0.960 . S
C2648 H2635 0.960 . S
C2648 C2647 1.524 . S
C2649 C2646 1.403 . S
C2649 C2650 1.392 . S
C2649 C2653 1.495 . S
C2650 C2649 1.392 . S
C2650 C2651 1.385 . S
C2650 C2652 1.478 . S
C2651 H2645 0.930 . S
C2651 C2647 1.400 . S
C2651 C2650 1.385 . S
C2652 C2650 1.478 . S
C2652 C2654 1.381 . S
C2652 C2658 1.383 . S
C2653 C2649 1.495 . S
C2653 H2659 0.959 . S
C2653 H2660 0.961 . S
C2653 H2661 0.960 . S
C2654 C2652 1.381 . S
C2654 C2655 1.394 . S
C2654 H2662 0.930 . S
C2655 C2654 1.394 . S
C2655 C2656 1.383 . S
C2655 H2663 0.929 . S
C2656 C2655 1.383 . S
C2656 C2657 1.377 . S
C2657 H2641 0.930 . S
C2657 C2656 1.377 . S
C2657 C2658 1.379 . S
C2658 H2642 0.931 . S
C2658 C2652 1.383 . S
C2658 C2657 1.379 . S
H2659 C2653 0.959 . S
H2660 C2653 0.961 . S
H2661 C2653 0.960 . S
H2662 C2654 0.930 . S
H2663 C2655 0.929 . S
H2664 C2672 0.929 . S
H2665 C2674 0.930 . S
H2666 C2676 0.930 . S
H2667 C2679 0.929 . S
H2668 C2682 0.930 . S
H2669 C2684 0.960 . S
H2670 C2684 0.960 . S
H2671 C2684 0.960 . S
C2672 H2664 0.929 . S
C2672 C2673 1.377 . S
C2672 C2674 1.384 . S
C2673 C2672 1.377 . S
C2673 C2679 1.390 . S
C2674 H2665 0.930 . S
C2674 C2672 1.384 . S
C2674 C2675 1.372 . S
C2675 C2674 1.372 . S
C2675 C2676 1.400 . S
C2675 C2680 1.490 . S
C2676 H2666 0.930 . S
C2676 C2675 1.400 . S
C2676 C2679 1.386 . S
H2677 C2693 0.930 . S
H2678 C2694 0.931 . S
C2679 H2667 0.929 . S
C2679 C2673 1.390 . S
C2679 C2676 1.386 . S
C2680 C2675 1.490 . S
C2680 C2682 1.395 . S
C2680 C2683 1.403 . S
H2681 C2687 0.930 . S
C2682 H2668 0.930 . S
C2682 C2680 1.395 . S
C2682 C2685 1.403 . S
C2683 C2680 1.403 . S
C2683 C2684 1.524 . S
C2683 C2687 1.400 . S
C2684 H2669 0.960 . S
C2684 H2670 0.960 . S
C2684 H2671 0.960 . S
C2684 C2683 1.524 . S
C2685 C2682 1.403 . S
C2685 C2686 1.392 . S
C2685 C2689 1.495 . S
C2686 C2685 1.392 . S
C2686 C2687 1.385 . S
C2686 C2688 1.478 . S
C2687 H2681 0.930 . S
C2687 C2683 1.400 . S
C2687 C2686 1.385 . S
C2688 C2686 1.478 . S
C2688 C2690 1.381 . S
C2688 C2694 1.383 . S
C2689 C2685 1.495 . S
C2689 H2695 0.959 . S
C2689 H2696 0.961 . S
C2689 H2697 0.960 . S
C2690 C2688 1.381 . S
C2690 C2691 1.394 . S
C2690 H2698 0.930 . S
C2691 C2690 1.394 . S
C2691 C2692 1.383 . S
C2691 H2699 0.929 . S
C2692 C2691 1.383 . S
C2692 C2693 1.377 . S
C2693 H2677 0.930 . S
C2693 C2692 1.377 . S
C2693 C2694 1.379 . S
C2694 H2678 0.931 . S
C2694 C2688 1.383 . S
C2694 C2693 1.379 . S
H2695 C2689 0.959 . S
H2696 C2689 0.961 . S
H2697 C2689 0.960 . S
H2698 C2690 0.930 . S
H2699 C2691 0.929 . S
H2700 C2708 0.929 . S
H2701 C2710 0.930 . S
H2702 C2712 0.930 . S
H2703 C2715 0.929 . S
H2704 C2718 0.930 . S
H2705 C2720 0.960 . S
H2706 C2720 0.960 . S
H2707 C2720 0.960 . S
C2708 H2700 0.929 . S
C2708 C2709 1.377 . S
C2708 C2710 1.384 . S
C2709 C2708 1.377 . S
C2709 C2715 1.390 . S
C2710 H2701 0.930 . S
C2710 C2708 1.384 . S
C2710 C2711 1.372 . S
C2711 C2710 1.372 . S
C2711 C2712 1.400 . S
C2711 C2716 1.490 . S
C2712 H2702 0.930 . S
C2712 C2711 1.400 . S
C2712 C2715 1.386 . S
H2713 C2729 0.930 . S
H2714 C2730 0.931 . S
C2715 H2703 0.929 . S
C2715 C2709 1.390 . S
C2715 C2712 1.386 . S
C2716 C2711 1.490 . S
C2716 C2718 1.395 . S
C2716 C2719 1.403 . S
H2717 C2723 0.930 . S
C2718 H2704 0.930 . S
C2718 C2716 1.395 . S
C2718 C2721 1.403 . S
C2719 C2716 1.403 . S
C2719 C2720 1.524 . S
C2719 C2723 1.400 . S
C2720 H2705 0.960 . S
C2720 H2706 0.960 . S
C2720 H2707 0.960 . S
C2720 C2719 1.524 . S
C2721 C2718 1.403 . S
C2721 C2722 1.392 . S
C2721 C2725 1.495 . S
C2722 C2721 1.392 . S
C2722 C2723 1.385 . S
C2722 C2724 1.478 . S
C2723 H2717 0.930 . S
C2723 C2719 1.400 . S
C2723 C2722 1.385 . S
C2724 C2722 1.478 . S
C2724 C2726 1.381 . S
C2724 C2730 1.383 . S
C2725 C2721 1.495 . S
C2725 H2731 0.959 . S
C2725 H2732 0.961 . S
C2725 H2733 0.960 . S
C2726 C2724 1.381 . S
C2726 C2727 1.394 . S
C2726 H2734 0.930 . S
C2727 C2726 1.394 . S
C2727 C2728 1.383 . S
C2727 H2735 0.929 . S
C2728 C2727 1.383 . S
C2728 C2729 1.377 . S
C2729 H2713 0.930 . S
C2729 C2728 1.377 . S
C2729 C2730 1.379 . S
C2730 H2714 0.931 . S
C2730 C2724 1.383 . S
C2730 C2729 1.379 . S
H2731 C2725 0.959 . S
H2732 C2725 0.961 . S
H2733 C2725 0.960 . S
H2734 C2726 0.930 . S
H2735 C2727 0.929 . S
H2736 C2744 0.929 . S
H2737 C2746 0.930 . S
H2738 C2748 0.930 . S
H2739 C2751 0.929 . S
H2740 C2754 0.930 . S
H2741 C2756 0.960 . S
H2742 C2756 0.960 . S
H2743 C2756 0.960 . S
C2744 H2736 0.929 . S
C2744 C2745 1.377 . S
C2744 C2746 1.384 . S
C2745 C2744 1.377 . S
C2745 C2751 1.390 . S
C2746 H2737 0.930 . S
C2746 C2744 1.384 . S
C2746 C2747 1.372 . S
C2747 C2746 1.372 . S
C2747 C2748 1.400 . S
C2747 C2752 1.490 . S
C2748 H2738 0.930 . S
C2748 C2747 1.400 . S
C2748 C2751 1.386 . S
H2749 C2765 0.930 . S
H2750 C2766 0.931 . S
C2751 H2739 0.929 . S
C2751 C2745 1.390 . S
C2751 C2748 1.386 . S
C2752 C2747 1.490 . S
C2752 C2754 1.395 . S
C2752 C2755 1.403 . S
H2753 C2759 0.930 . S
C2754 H2740 0.930 . S
C2754 C2752 1.395 . S
C2754 C2757 1.403 . S
C2755 C2752 1.403 . S
C2755 C2756 1.524 . S
C2755 C2759 1.400 . S
C2756 H2741 0.960 . S
C2756 H2742 0.960 . S
C2756 H2743 0.960 . S
C2756 C2755 1.524 . S
C2757 C2754 1.403 . S
C2757 C2758 1.392 . S
C2757 C2761 1.495 . S
C2758 C2757 1.392 . S
C2758 C2759 1.385 . S
C2758 C2760 1.478 . S
C2759 H2753 0.930 . S
C2759 C2755 1.400 . S
C2759 C2758 1.385 . S
C2760 C2758 1.478 . S
C2760 C2762 1.381 . S
C2760 C2766 1.383 . S
C2761 C2757 1.495 . S
C2761 H2767 0.959 . S
C2761 H2768 0.961 . S
C2761 H2769 0.960 . S
C2762 C2760 1.381 . S
C2762 C2763 1.394 . S
C2762 H2770 0.930 . S
C2763 C2762 1.394 . S
C2763 C2764 1.383 . S
C2763 H2771 0.929 . S
C2764 C2763 1.383 . S
C2764 C2765 1.377 . S
C2765 H2749 0.930 . S
C2765 C2764 1.377 . S
C2765 C2766 1.379 . S
C2766 H2750 0.931 . S
C2766 C2760 1.383 . S
C2766 C2765 1.379 . S
H2767 C2761 0.959 . S
H2768 C2761 0.961 . S
H2769 C2761 0.960 . S
H2770 C2762 0.930 . S
H2771 C2763 0.929 . S
H2772 C2780 0.929 . S
H2773 C2782 0.930 . S
H2774 C2784 0.930 . S
H2775 C2787 0.929 . S
H2776 C2790 0.930 . S
H2777 C2792 0.960 . S
H2778 C2792 0.960 . S
H2779 C2792 0.960 . S
C2780 H2772 0.929 . S
C2780 C2781 1.377 . S
C2780 C2782 1.384 . S
C2781 C2780 1.377 . S
C2781 C2787 1.390 . S
C2782 H2773 0.930 . S
C2782 C2780 1.384 . S
C2782 C2783 1.372 . S
C2783 C2782 1.372 . S
C2783 C2784 1.400 . S
C2783 C2788 1.490 . S
C2784 H2774 0.930 . S
C2784 C2783 1.400 . S
C2784 C2787 1.386 . S
H2785 C2801 0.930 . S
H2786 C2802 0.931 . S
C2787 H2775 0.929 . S
C2787 C2781 1.390 . S
C2787 C2784 1.386 . S
C2788 C2783 1.490 . S
C2788 C2790 1.395 . S
C2788 C2791 1.403 . S
H2789 C2795 0.930 . S
C2790 H2776 0.930 . S
C2790 C2788 1.395 . S
C2790 C2793 1.403 . S
C2791 C2788 1.403 . S
C2791 C2792 1.524 . S
C2791 C2795 1.400 . S
C2792 H2777 0.960 . S
C2792 H2778 0.960 . S
C2792 H2779 0.960 . S
C2792 C2791 1.524 . S
C2793 C2790 1.403 . S
C2793 C2794 1.392 . S
C2793 C2797 1.495 . S
C2794 C2793 1.392 . S
C2794 C2795 1.385 . S
C2794 C2796 1.478 . S
C2795 H2789 0.930 . S
C2795 C2791 1.400 . S
C2795 C2794 1.385 . S
C2796 C2794 1.478 . S
C2796 C2798 1.381 . S
C2796 C2802 1.383 . S
C2797 C2793 1.495 . S
C2797 H2803 0.959 . S
C2797 H2804 0.961 . S
C2797 H2805 0.960 . S
C2798 C2796 1.381 . S
C2798 C2799 1.394 . S
C2798 H2806 0.930 . S
C2799 C2798 1.394 . S
C2799 C2800 1.383 . S
C2799 H2807 0.929 . S
C2800 C2799 1.383 . S
C2800 C2801 1.377 . S
C2801 H2785 0.930 . S
C2801 C2800 1.377 . S
C2801 C2802 1.379 . S
C2802 H2786 0.931 . S
C2802 C2796 1.383 . S
C2802 C2801 1.379 . S
H2803 C2797 0.959 . S
H2804 C2797 0.961 . S
H2805 C2797 0.960 . S
H2806 C2798 0.930 . S
H2807 C2799 0.929 . S
H2808 C2816 0.929 . S
H2809 C2818 0.893 1_545 S
H2810 C2820 0.930 . S
H2811 C2823 0.929 . S
H2812 C2826 0.930 . S
H2813 C2828 0.960 . S
H2814 C2828 0.960 . S
H2815 C2828 0.960 . S
C2816 H2808 0.929 . S
C2816 C2817 1.377 . S
C2816 C2818 1.411 . S
C2817 C2816 1.377 . S
C2817 C2823 1.390 . S
C2818 H2809 0.893 1_565 S
C2818 C2816 1.411 . S
C2818 C2819 1.382 1_565 S
C2819 C2818 1.382 1_545 S
C2819 C2820 1.400 1_545 S
C2819 C2824 1.490 . S
C2820 H2810 0.930 . S
C2820 C2819 1.400 1_565 S
C2820 C2823 1.386 . S
H2821 C2837 0.930 . S
H2822 C2838 0.931 . S
C2823 H2811 0.929 . S
C2823 C2817 1.390 . S
C2823 C2820 1.386 . S
C2824 C2819 1.490 . S
C2824 C2826 1.395 . S
C2824 C2827 1.403 . S
H2825 C2831 0.930 . S
C2826 H2812 0.930 . S
C2826 C2824 1.395 . S
C2826 C2829 1.403 . S
C2827 C2824 1.403 . S
C2827 C2828 1.524 . S
C2827 C2831 1.400 . S
C2828 H2813 0.960 . S
C2828 H2814 0.960 . S
C2828 H2815 0.960 . S
C2828 C2827 1.524 . S
C2829 C2826 1.403 . S
C2829 C2830 1.392 . S
C2829 C2833 1.495 . S
C2830 C2829 1.392 . S
C2830 C2831 1.385 . S
C2830 C2832 1.478 . S
C2831 H2825 0.930 . S
C2831 C2827 1.400 . S
C2831 C2830 1.385 . S
C2832 C2830 1.478 . S
C2832 C2834 1.381 . S
C2832 C2838 1.383 . S
C2833 C2829 1.495 . S
C2833 H2839 0.959 . S
C2833 H2840 0.961 . S
C2833 H2841 0.960 . S
C2834 C2832 1.381 . S
C2834 C2835 1.394 . S
C2834 H2842 0.930 . S
C2835 C2834 1.394 . S
C2835 C2836 1.383 . S
C2835 H2843 0.929 . S
C2836 C2835 1.383 . S
C2836 C2837 1.377 . S
C2837 H2821 0.930 . S
C2837 C2836 1.377 . S
C2837 C2838 1.379 . S
C2838 H2822 0.931 . S
C2838 C2832 1.383 . S
C2838 C2837 1.379 . S
H2839 C2833 0.959 . S
H2840 C2833 0.961 . S
H2841 C2833 0.960 . S
H2842 C2834 0.930 . S
H2843 C2835 0.929 . S
H2844 C2852 0.929 . S
H2845 C2854 0.930 . S
H2846 C2856 0.930 . S
H2847 C2859 0.929 . S
H2848 C2862 0.930 . S
H2849 C2864 0.960 . S
H2850 C2864 0.960 . S
H2851 C2864 0.960 . S
C2852 H2844 0.929 . S
C2852 C2853 1.377 . S
C2852 C2854 1.384 1_455 S
C2853 C2852 1.377 . S
C2853 C2859 1.390 . S
C2854 H2845 0.930 . S
C2854 C2852 1.384 1_655 S
C2854 C2855 1.372 . S
C2855 C2854 1.372 . S
C2855 C2856 1.400 1_655 S
C2855 C2860 1.490 . S
C2856 H2846 0.930 . S
C2856 C2855 1.400 1_455 S
C2856 C2859 1.386 . S
H2857 C2873 0.930 . S
H2858 C2874 0.931 . S
C2859 H2847 0.929 . S
C2859 C2853 1.390 . S
C2859 C2856 1.386 . S
C2860 C2855 1.490 . S
C2860 C2862 1.395 . S
C2860 C2863 1.403 . S
H2861 C2867 0.930 . S
C2862 H2848 0.930 . S
C2862 C2860 1.395 . S
C2862 C2865 1.403 . S
C2863 C2860 1.403 . S
C2863 C2864 1.524 . S
C2863 C2867 1.400 . S
C2864 H2849 0.960 . S
C2864 H2850 0.960 . S
C2864 H2851 0.960 . S
C2864 C2863 1.524 . S
C2865 C2862 1.403 . S
C2865 C2866 1.392 . S
C2865 C2869 1.495 . S
C2866 C2865 1.392 . S
C2866 C2867 1.385 . S
C2866 C2868 1.478 . S
C2867 H2861 0.930 . S
C2867 C2863 1.400 . S
C2867 C2866 1.385 . S
C2868 C2866 1.478 . S
C2868 C2870 1.381 . S
C2868 C2874 1.383 . S
C2869 C2865 1.495 . S
C2869 H2875 0.959 . S
C2869 H2876 0.961 . S
C2869 H2877 0.960 . S
C2870 C2868 1.381 . S
C2870 C2871 1.394 . S
C2870 H2878 0.930 . S
C2871 C2870 1.394 . S
C2871 C2872 1.383 . S
C2871 H2879 0.929 . S
C2872 C2871 1.383 . S
C2872 C2873 1.377 . S
C2873 H2857 0.930 . S
C2873 C2872 1.377 . S
C2873 C2874 1.379 . S
C2874 H2858 0.931 . S
C2874 C2868 1.383 . S
C2874 C2873 1.379 . S
H2875 C2869 0.959 . S
H2876 C2869 0.961 . S
H2877 C2869 0.960 . S
H2878 C2870 0.930 . S
H2879 C2871 0.929 . S
H2880 C2888 0.929 . S
H2881 C2890 0.930 . S
H2882 C2892 0.930 . S
H2883 C2895 0.929 . S
H2884 C2898 0.930 . S
H2885 C2900 0.960 . S
H2886 C2900 0.960 . S
H2887 C2900 0.960 . S
C2888 H2880 0.929 . S
C2888 C2889 1.377 . S
C2888 C2890 1.384 . S
C2889 C2888 1.377 . S
C2889 C2895 1.390 . S
C2890 H2881 0.930 . S
C2890 C2888 1.384 . S
C2890 C2891 1.372 . S
C2891 C2890 1.372 . S
C2891 C2892 1.400 . S
C2891 C2896 1.490 . S
C2892 H2882 0.930 . S
C2892 C2891 1.400 . S
C2892 C2895 1.386 . S
H2893 C2909 0.930 . S
H2894 C2910 0.931 . S
C2895 H2883 0.929 . S
C2895 C2889 1.390 . S
C2895 C2892 1.386 . S
C2896 C2891 1.490 . S
C2896 C2898 1.395 . S
C2896 C2899 1.403 . S
H2897 C2903 0.930 . S
C2898 H2884 0.930 . S
C2898 C2896 1.395 . S
C2898 C2901 1.403 . S
C2899 C2896 1.403 . S
C2899 C2900 1.524 . S
C2899 C2903 1.400 . S
C2900 H2885 0.960 . S
C2900 H2886 0.960 . S
C2900 H2887 0.960 . S
C2900 C2899 1.524 . S
C2901 C2898 1.403 . S
C2901 C2902 1.392 . S
C2901 C2905 1.495 . S
C2902 C2901 1.392 . S
C2902 C2903 1.385 . S
C2902 C2904 1.478 . S
C2903 H2897 0.930 . S
C2903 C2899 1.400 . S
C2903 C2902 1.385 . S
C2904 C2902 1.478 . S
C2904 C2906 1.381 . S
C2904 C2910 1.383 . S
C2905 C2901 1.495 . S
C2905 H2911 0.959 . S
C2905 H2912 0.961 . S
C2905 H2913 0.960 . S
C2906 C2904 1.381 . S
C2906 C2907 1.394 . S
C2906 H2914 0.930 . S
C2907 C2906 1.394 . S
C2907 C2908 1.383 . S
C2907 H2915 0.929 . S
C2908 C2907 1.383 . S
C2908 C2909 1.377 . S
C2909 H2893 0.930 . S
C2909 C2908 1.377 . S
C2909 C2910 1.379 . S
C2910 H2894 0.931 . S
C2910 C2904 1.383 . S
C2910 C2909 1.379 . S
H2911 C2905 0.959 . S
H2912 C2905 0.961 . S
H2913 C2905 0.960 . S
H2914 C2906 0.930 . S
H2915 C2907 0.929 . S
H2916 C2924 0.929 . S
H2917 C2926 0.930 1_655 S
H2918 C2928 0.930 . S
H2919 C2931 0.929 . S
H2920 C2934 0.930 . S
H2921 C2936 0.960 . S
H2922 C2936 0.960 . S
H2923 C2936 0.960 . S
C2924 H2916 0.929 . S
C2924 C2925 1.377 . S
C2924 C2926 1.384 . S
C2925 C2924 1.377 . S
C2925 C2931 1.390 . S
C2926 H2917 0.930 1_455 S
C2926 C2924 1.384 . S
C2926 C2927 1.372 1_455 S
C2927 C2926 1.372 1_655 S
C2927 C2928 1.400 1_655 S
C2927 C2932 1.490 . S
C2928 H2918 0.930 . S
C2928 C2927 1.400 1_455 S
C2928 C2931 1.386 . S
H2929 C2945 0.930 . S
H2930 C2946 0.931 . S
C2931 H2919 0.929 . S
C2931 C2925 1.390 . S
C2931 C2928 1.386 . S
C2932 C2927 1.490 . S
C2932 C2934 1.395 . S
C2932 C2935 1.403 . S
H2933 C2939 0.930 . S
C2934 H2920 0.930 . S
C2934 C2932 1.395 . S
C2934 C2937 1.403 . S
C2935 C2932 1.403 . S
C2935 C2936 1.524 . S
C2935 C2939 1.400 . S
C2936 H2921 0.960 . S
C2936 H2922 0.960 . S
C2936 H2923 0.960 . S
C2936 C2935 1.524 . S
C2937 C2934 1.403 . S
C2937 C2938 1.392 . S
C2937 C2941 1.495 . S
C2938 C2937 1.392 . S
C2938 C2939 1.385 . S
C2938 C2940 1.478 . S
C2939 H2933 0.930 . S
C2939 C2935 1.400 . S
C2939 C2938 1.385 . S
C2940 C2938 1.478 . S
C2940 C2942 1.381 . S
C2940 C2946 1.383 . S
C2941 C2937 1.495 . S
C2941 H2947 0.959 . S
C2941 H2948 0.961 . S
C2941 H2949 0.960 . S
C2942 C2940 1.381 . S
C2942 C2943 1.394 . S
C2942 H2950 0.930 . S
C2943 C2942 1.394 . S
C2943 C2944 1.383 . S
C2943 H2951 0.929 . S
C2944 C2943 1.383 . S
C2944 C2945 1.377 . S
C2945 H2929 0.930 . S
C2945 C2944 1.377 . S
C2945 C2946 1.379 . S
C2946 H2930 0.931 . S
C2946 C2940 1.383 . S
C2946 C2945 1.379 . S
H2947 C2941 0.959 . S
H2948 C2941 0.961 . S
H2949 C2941 0.960 . S
H2950 C2942 0.930 . S
H2951 C2943 0.929 . S
H2952 C2960 0.929 . S
H2953 C2962 0.930 . S
H2954 C2964 0.930 . S
H2955 C2967 0.929 . S
H2956 C2970 0.930 . S
H2957 C2972 0.960 . S
H2958 C2972 0.960 . S
H2959 C2972 0.960 . S
C2960 H2952 0.929 . S
C2960 C2961 1.377 . S
C2960 C2962 1.384 . S
C2961 C2960 1.377 . S
C2961 C2967 1.390 . S
C2962 H2953 0.930 . S
C2962 C2960 1.384 . S
C2962 C2963 1.372 . S
C2963 C2962 1.372 . S
C2963 C2964 1.400 . S
C2963 C2968 1.490 . S
C2964 H2954 0.930 . S
C2964 C2963 1.400 . S
C2964 C2967 1.386 . S
H2965 C2981 0.930 . S
H2966 C2982 0.931 . S
C2967 H2955 0.929 . S
C2967 C2961 1.390 . S
C2967 C2964 1.386 . S
C2968 C2963 1.490 . S
C2968 C2970 1.395 . S
C2968 C2971 1.403 . S
H2969 C2975 0.930 . S
C2970 H2956 0.930 . S
C2970 C2968 1.395 . S
C2970 C2973 1.403 . S
C2971 C2968 1.403 . S
C2971 C2972 1.524 . S
C2971 C2975 1.400 . S
C2972 H2957 0.960 . S
C2972 H2958 0.960 . S
C2972 H2959 0.960 . S
C2972 C2971 1.524 . S
C2973 C2970 1.403 . S
C2973 C2974 1.392 . S
C2973 C2977 1.495 . S
C2974 C2973 1.392 . S
C2974 C2975 1.385 . S
C2974 C2976 1.478 . S
C2975 H2969 0.930 . S
C2975 C2971 1.400 . S
C2975 C2974 1.385 . S
C2976 C2974 1.478 . S
C2976 C2978 1.381 . S
C2976 C2982 1.383 . S
C2977 C2973 1.495 . S
C2977 H2983 0.959 . S
C2977 H2984 0.961 . S
C2977 H2985 0.960 . S
C2978 C2976 1.381 . S
C2978 C2979 1.394 . S
C2978 H2986 0.930 . S
C2979 C2978 1.394 . S
C2979 C2980 1.383 . S
C2979 H2987 0.929 . S
C2980 C2979 1.383 . S
C2980 C2981 1.377 . S
C2981 H2965 0.930 . S
C2981 C2980 1.377 . S
C2981 C2982 1.379 . S
C2982 H2966 0.931 . S
C2982 C2976 1.383 . S
C2982 C2981 1.379 . S
H2983 C2977 0.959 . S
H2984 C2977 0.961 . S
H2985 C2977 0.960 . S
H2986 C2978 0.930 . S
H2987 C2979 0.929 . S
H2988 C2996 0.929 . S
H2989 C2998 0.930 . S
H2990 C3000 0.930 1_545 S
H2991 C3003 0.929 . S
H2992 C3006 0.930 . S
H2993 C3008 0.960 . S
H2994 C3008 0.960 . S
H2995 C3008 0.960 . S
C2996 H2988 0.929 . S
C2996 C2997 1.377 . S
C2996 C2998 1.384 . S
C2997 C2996 1.377 . S
C2997 C3003 1.390 . S
C2998 H2989 0.930 . S
C2998 C2996 1.384 . S
C2998 C2999 1.382 . S
C2999 C2998 1.382 . S
C2999 C3000 1.420 . S
C2999 C3004 1.461 1_565 S
C3000 H2990 0.930 1_565 S
C3000 C2999 1.420 . S
C3000 C3003 1.386 . S
H3001 C3017 0.930 . S
H3002 C3018 0.931 . S
C3003 H2991 0.929 . S
C3003 C2997 1.390 . S
C3003 C3000 1.386 . S
C3004 C2999 1.461 1_545 S
C3004 C3006 1.395 . S
C3004 C3007 1.403 . S
H3005 C3011 0.930 . S
C3006 H2992 0.930 . S
C3006 C3004 1.395 . S
C3006 C3009 1.403 . S
C3007 C3004 1.403 . S
C3007 C3008 1.524 . S
C3007 C3011 1.400 . S
C3008 H2993 0.960 . S
C3008 H2994 0.960 . S
C3008 H2995 0.960 . S
C3008 C3007 1.524 . S
C3009 C3006 1.403 . S
C3009 C3010 1.392 . S
C3009 C3013 1.495 . S
C3010 C3009 1.392 . S
C3010 C3011 1.385 . S
C3010 C3012 1.478 . S
C3011 H3005 0.930 . S
C3011 C3007 1.400 . S
C3011 C3010 1.385 . S
C3012 C3010 1.478 . S
C3012 C3014 1.381 . S
C3012 C3018 1.383 . S
C3013 C3009 1.495 . S
C3013 H3019 0.959 . S
C3013 H3020 0.961 . S
C3013 H3021 0.960 . S
C3014 C3012 1.381 . S
C3014 C3015 1.394 . S
C3014 H3022 0.930 . S
C3015 C3014 1.394 . S
C3015 C3016 1.383 . S
C3015 H3023 0.929 . S
C3016 C3015 1.383 . S
C3016 C3017 1.377 . S
C3017 H3001 0.930 . S
C3017 C3016 1.377 . S
C3017 C3018 1.379 . S
C3018 H3002 0.931 . S
C3018 C3012 1.383 . S
C3018 C3017 1.379 . S
H3019 C3013 0.959 . S
H3020 C3013 0.961 . S
H3021 C3013 0.960 . S
H3022 C3014 0.930 . S
H3023 C3015 0.929 . S
H3024 C3032 0.929 . S
H3025 C3034 0.930 . S
H3026 C3036 0.930 . S
H3027 C3039 0.929 . S
H3028 C3042 0.930 . S
H3029 C3044 0.960 . S
H3030 C3044 0.960 . S
H3031 C3044 0.960 . S
C3032 H3024 0.929 . S
C3032 C3033 1.377 . S
C3032 C3034 1.384 . S
C3033 C3032 1.377 . S
C3033 C3039 1.390 . S
C3034 H3025 0.930 . S
C3034 C3032 1.384 . S
C3034 C3035 1.372 . S
C3035 C3034 1.372 . S
C3035 C3036 1.400 . S
C3035 C3040 1.490 . S
C3036 H3026 0.930 . S
C3036 C3035 1.400 . S
C3036 C3039 1.386 . S
H3037 C3053 0.930 . S
H3038 C3054 0.931 . S
C3039 H3027 0.929 . S
C3039 C3033 1.390 . S
C3039 C3036 1.386 . S
C3040 C3035 1.490 . S
C3040 C3042 1.395 . S
C3040 C3043 1.403 . S
H3041 C3047 0.930 . S
C3042 H3028 0.930 . S
C3042 C3040 1.395 . S
C3042 C3045 1.403 . S
C3043 C3040 1.403 . S
C3043 C3044 1.524 . S
C3043 C3047 1.400 . S
C3044 H3029 0.960 . S
C3044 H3030 0.960 . S
C3044 H3031 0.960 . S
C3044 C3043 1.524 . S
C3045 C3042 1.403 . S
C3045 C3046 1.392 . S
C3045 C3049 1.495 . S
C3046 C3045 1.392 . S
C3046 C3047 1.385 . S
C3046 C3048 1.478 . S
C3047 H3041 0.930 . S
C3047 C3043 1.400 . S
C3047 C3046 1.385 . S
C3048 C3046 1.478 . S
C3048 C3050 1.381 . S
C3048 C3054 1.383 . S
C3049 C3045 1.495 . S
C3049 H3055 0.959 . S
C3049 H3056 0.961 . S
C3049 H3057 0.960 . S
C3050 C3048 1.381 . S
C3050 C3051 1.394 . S
C3050 H3058 0.930 . S
C3051 C3050 1.394 . S
C3051 C3052 1.383 . S
C3051 H3059 0.929 . S
C3052 C3051 1.383 . S
C3052 C3053 1.377 . S
C3053 H3037 0.930 . S
C3053 C3052 1.377 . S
C3053 C3054 1.379 . S
C3054 H3038 0.931 . S
C3054 C3048 1.383 . S
C3054 C3053 1.379 . S
H3055 C3049 0.959 . S
H3056 C3049 0.961 . S
H3057 C3049 0.960 . S
H3058 C3050 0.930 . S
H3059 C3051 0.929 . S
H3060 C3068 0.929 . S
H3061 C3070 0.930 . S
H3062 C3072 0.930 . S
H3063 C3075 0.929 . S
H3064 C3078 0.930 . S
H3065 C3080 0.960 . S
H3066 C3080 0.960 . S
H3067 C3080 0.960 . S
C3068 H3060 0.929 . S
C3068 C3069 1.377 . S
C3068 C3070 1.384 . S
C3069 C3068 1.377 . S
C3069 C3075 1.390 . S
C3070 H3061 0.930 . S
C3070 C3068 1.384 . S
C3070 C3071 1.372 . S
C3071 C3070 1.372 . S
C3071 C3072 1.400 . S
C3071 C3076 1.490 . S
C3072 H3062 0.930 . S
C3072 C3071 1.400 . S
C3072 C3075 1.386 . S
H3073 C3089 0.930 . S
H3074 C3090 0.931 . S
C3075 H3063 0.929 . S
C3075 C3069 1.390 . S
C3075 C3072 1.386 . S
C3076 C3071 1.490 . S
C3076 C3078 1.395 . S
C3076 C3079 1.403 . S
H3077 C3083 0.930 . S
C3078 H3064 0.930 . S
C3078 C3076 1.395 . S
C3078 C3081 1.403 . S
C3079 C3076 1.403 . S
C3079 C3080 1.524 . S
C3079 C3083 1.400 . S
C3080 H3065 0.960 . S
C3080 H3066 0.960 . S
C3080 H3067 0.960 . S
C3080 C3079 1.524 . S
C3081 C3078 1.403 . S
C3081 C3082 1.392 . S
C3081 C3085 1.495 . S
C3082 C3081 1.392 . S
C3082 C3083 1.385 . S
C3082 C3084 1.478 . S
C3083 H3077 0.930 . S
C3083 C3079 1.400 . S
C3083 C3082 1.385 . S
C3084 C3082 1.478 . S
C3084 C3086 1.381 . S
C3084 C3090 1.383 . S
C3085 C3081 1.495 . S
C3085 H3091 0.959 . S
C3085 H3092 0.961 . S
C3085 H3093 0.960 . S
C3086 C3084 1.381 . S
C3086 C3087 1.394 . S
C3086 H3094 0.930 . S
C3087 C3086 1.394 . S
C3087 C3088 1.383 . S
C3087 H3095 0.929 . S
C3088 C3087 1.383 . S
C3088 C3089 1.377 . S
C3089 H3073 0.930 . S
C3089 C3088 1.377 . S
C3089 C3090 1.379 . S
C3090 H3074 0.931 . S
C3090 C3084 1.383 . S
C3090 C3089 1.379 . S
H3091 C3085 0.959 . S
H3092 C3085 0.961 . S
H3093 C3085 0.960 . S
H3094 C3086 0.930 . S
H3095 C3087 0.929 . S
H3096 C3104 0.929 . S
H3097 C3106 0.930 . S
H3098 C3108 0.930 . S
H3099 C3111 0.929 . S
H3100 C3114 0.930 . S
H3101 C3116 0.960 . S
H3102 C3116 0.960 . S
H3103 C3116 0.960 . S
C3104 H3096 0.929 . S
C3104 C3105 1.377 . S
C3104 C3106 1.384 . S
C3105 C3104 1.377 . S
C3105 C3111 1.390 . S
C3106 H3097 0.930 . S
C3106 C3104 1.384 . S
C3106 C3107 1.372 . S
C3107 C3106 1.372 . S
C3107 C3108 1.400 . S
C3107 C3112 1.490 . S
C3108 H3098 0.930 . S
C3108 C3107 1.400 . S
C3108 C3111 1.386 . S
H3109 C3125 0.930 . S
H3110 C3126 0.931 . S
C3111 H3099 0.929 . S
C3111 C3105 1.390 . S
C3111 C3108 1.386 . S
C3112 C3107 1.490 . S
C3112 C3114 1.395 . S
C3112 C3115 1.403 . S
H3113 C3119 0.930 . S
C3114 H3100 0.930 . S
C3114 C3112 1.395 . S
C3114 C3117 1.403 . S
C3115 C3112 1.403 . S
C3115 C3116 1.524 . S
C3115 C3119 1.400 . S
C3116 H3101 0.960 . S
C3116 H3102 0.960 . S
C3116 H3103 0.960 . S
C3116 C3115 1.524 . S
C3117 C3114 1.403 . S
C3117 C3118 1.392 . S
C3117 C3121 1.495 . S
C3118 C3117 1.392 . S
C3118 C3119 1.385 . S
C3118 C3120 1.478 . S
C3119 H3113 0.930 . S
C3119 C3115 1.400 . S
C3119 C3118 1.385 . S
C3120 C3118 1.478 . S
C3120 C3122 1.381 . S
C3120 C3126 1.383 . S
C3121 C3117 1.495 . S
C3121 H3127 0.959 . S
C3121 H3128 0.961 . S
C3121 H3129 0.960 . S
C3122 C3120 1.381 . S
C3122 C3123 1.394 . S
C3122 H3130 0.930 . S
C3123 C3122 1.394 . S
C3123 C3124 1.383 . S
C3123 H3131 0.929 . S
C3124 C3123 1.383 . S
C3124 C3125 1.377 . S
C3125 H3109 0.930 . S
C3125 C3124 1.377 . S
C3125 C3126 1.379 . S
C3126 H3110 0.931 . S
C3126 C3120 1.383 . S
C3126 C3125 1.379 . S
H3127 C3121 0.959 . S
H3128 C3121 0.961 . S
H3129 C3121 0.960 . S
H3130 C3122 0.930 . S
H3131 C3123 0.929 . S
H3132 C3140 0.929 . S
H3133 C3142 0.930 . S
H3134 C3144 0.930 . S
H3135 C3147 0.929 . S
H3136 C3150 0.930 . S
H3137 C3152 0.960 . S
H3138 C3152 0.960 . S
H3139 C3152 0.960 . S
C3140 H3132 0.929 . S
C3140 C3141 1.377 . S
C3140 C3142 1.384 . S
C3141 C3140 1.377 . S
C3141 C3147 1.390 . S
C3142 H3133 0.930 . S
C3142 C3140 1.384 . S
C3142 C3143 1.372 . S
C3143 C3142 1.372 . S
C3143 C3144 1.400 . S
C3143 C3148 1.490 . S
C3144 H3134 0.930 . S
C3144 C3143 1.400 . S
C3144 C3147 1.386 . S
H3145 C3161 0.930 . S
H3146 C3162 0.931 . S
C3147 H3135 0.929 . S
C3147 C3141 1.390 . S
C3147 C3144 1.386 . S
C3148 C3143 1.490 . S
C3148 C3150 1.395 . S
C3148 C3151 1.403 . S
H3149 C3155 0.930 . S
C3150 H3136 0.930 . S
C3150 C3148 1.395 . S
C3150 C3153 1.403 . S
C3151 C3148 1.403 . S
C3151 C3152 1.524 . S
C3151 C3155 1.400 . S
C3152 H3137 0.960 . S
C3152 H3138 0.960 . S
C3152 H3139 0.960 . S
C3152 C3151 1.524 . S
C3153 C3150 1.403 . S
C3153 C3154 1.392 . S
C3153 C3157 1.495 . S
C3154 C3153 1.392 . S
C3154 C3155 1.385 . S
C3154 C3156 1.478 . S
C3155 H3149 0.930 . S
C3155 C3151 1.400 . S
C3155 C3154 1.385 . S
C3156 C3154 1.478 . S
C3156 C3158 1.381 . S
C3156 C3162 1.383 . S
C3157 C3153 1.495 . S
C3157 H3163 0.959 . S
C3157 H3164 0.961 . S
C3157 H3165 0.960 . S
C3158 C3156 1.381 . S
C3158 C3159 1.394 . S
C3158 H3166 0.930 . S
C3159 C3158 1.394 . S
C3159 C3160 1.383 . S
C3159 H3167 0.929 . S
C3160 C3159 1.383 . S
C3160 C3161 1.377 . S
C3161 H3145 0.930 . S
C3161 C3160 1.377 . S
C3161 C3162 1.379 . S
C3162 H3146 0.931 . S
C3162 C3156 1.383 . S
C3162 C3161 1.379 . S
H3163 C3157 0.959 . S
H3164 C3157 0.961 . S
H3165 C3157 0.960 . S
H3166 C3158 0.930 . S
H3167 C3159 0.929 . S
H3168 C3176 0.929 . S
H3169 C3178 0.930 . S
H3170 C3180 0.930 . S
H3171 C3183 0.929 . S
H3172 C3186 0.930 . S
H3173 C3188 0.960 . S
H3174 C3188 0.960 . S
H3175 C3188 0.960 . S
C3176 H3168 0.929 . S
C3176 C3177 1.377 . S
C3176 C3178 1.384 . S
C3177 C3176 1.377 . S
C3177 C3183 1.390 . S
C3178 H3169 0.930 . S
C3178 C3176 1.384 . S
C3178 C3179 1.372 . S
C3179 C3178 1.372 . S
C3179 C3180 1.400 . S
C3179 C3184 1.490 . S
C3180 H3170 0.930 . S
C3180 C3179 1.400 . S
C3180 C3183 1.386 . S
H3181 C3197 0.930 . S
H3182 C3198 0.931 . S
C3183 H3171 0.929 . S
C3183 C3177 1.390 . S
C3183 C3180 1.386 . S
C3184 C3179 1.490 . S
C3184 C3186 1.395 . S
C3184 C3187 1.403 . S
H3185 C3191 0.930 . S
C3186 H3172 0.930 . S
C3186 C3184 1.395 . S
C3186 C3189 1.403 . S
C3187 C3184 1.403 . S
C3187 C3188 1.524 . S
C3187 C3191 1.400 . S
C3188 H3173 0.960 . S
C3188 H3174 0.960 . S
C3188 H3175 0.960 . S
C3188 C3187 1.524 . S
C3189 C3186 1.403 . S
C3189 C3190 1.392 . S
C3189 C3193 1.495 1_455 S
C3190 C3189 1.392 . S
C3190 C3191 1.385 . S
C3190 C3192 1.478 . S
C3191 H3185 0.930 . S
C3191 C3187 1.400 . S
C3191 C3190 1.385 . S
C3192 C3190 1.478 . S
C3192 C3194 1.381 . S
C3192 C3198 1.383 . S
C3193 C3189 1.495 1_655 S
C3193 H3199 0.959 . S
C3193 H3200 0.961 . S
C3193 H3201 0.960 . S
C3194 C3192 1.381 . S
C3194 C3195 1.394 . S
C3194 H3202 0.930 . S
C3195 C3194 1.394 . S
C3195 C3196 1.383 . S
C3195 H3203 0.929 . S
C3196 C3195 1.383 . S
C3196 C3197 1.377 . S
C3197 H3181 0.930 . S
C3197 C3196 1.377 . S
C3197 C3198 1.379 . S
C3198 H3182 0.931 . S
C3198 C3192 1.383 . S
C3198 C3197 1.379 . S
H3199 C3193 0.959 . S
H3200 C3193 0.961 . S
H3201 C3193 0.960 . S
H3202 C3194 0.930 . S
H3203 C3195 0.929 . S
H3204 C3212 0.929 . S
H3205 C3214 0.930 . S
H3206 C3216 0.930 . S
H3207 C3219 0.929 . S
H3208 C3222 0.930 . S
H3209 C3224 0.960 . S
H3210 C3224 0.960 . S
H3211 C3224 0.960 . S
C3212 H3204 0.929 . S
C3212 C3213 1.377 . S
C3212 C3214 1.384 . S
C3213 C3212 1.377 . S
C3213 C3219 1.390 . S
C3214 H3205 0.930 . S
C3214 C3212 1.384 . S
C3214 C3215 1.372 . S
C3215 C3214 1.372 . S
C3215 C3216 1.400 . S
C3215 C3220 1.490 . S
C3216 H3206 0.930 . S
C3216 C3215 1.400 . S
C3216 C3219 1.386 . S
H3217 C3233 0.930 . S
H3218 C3234 0.931 . S
C3219 H3207 0.929 . S
C3219 C3213 1.390 . S
C3219 C3216 1.386 . S
C3220 C3215 1.490 . S
C3220 C3222 1.395 . S
C3220 C3223 1.403 . S
H3221 C3227 0.930 . S
C3222 H3208 0.930 . S
C3222 C3220 1.395 . S
C3222 C3225 1.403 . S
C3223 C3220 1.403 . S
C3223 C3224 1.524 . S
C3223 C3227 1.400 . S
C3224 H3209 0.960 . S
C3224 H3210 0.960 . S
C3224 H3211 0.960 . S
C3224 C3223 1.524 . S
C3225 C3222 1.403 . S
C3225 C3226 1.392 . S
C3225 C3229 1.495 . S
C3226 C3225 1.392 . S
C3226 C3227 1.385 . S
C3226 C3228 1.478 . S
C3227 H3221 0.930 . S
C3227 C3223 1.400 . S
C3227 C3226 1.385 . S
C3228 C3226 1.478 . S
C3228 C3230 1.381 . S
C3228 C3234 1.383 . S
C3229 C3225 1.495 . S
C3229 H3235 0.959 . S
C3229 H3236 0.961 . S
C3229 H3237 0.960 . S
C3230 C3228 1.381 . S
C3230 C3231 1.394 . S
C3230 H3238 0.930 . S
C3231 C3230 1.394 . S
C3231 C3232 1.383 . S
C3231 H3239 0.929 . S
C3232 C3231 1.383 . S
C3232 C3233 1.377 . S
C3233 H3217 0.930 . S
C3233 C3232 1.377 . S
C3233 C3234 1.379 . S
C3234 H3218 0.931 . S
C3234 C3228 1.383 . S
C3234 C3233 1.379 . S
H3235 C3229 0.959 . S
H3236 C3229 0.961 . S
H3237 C3229 0.960 . S
H3238 C3230 0.930 . S
H3239 C3231 0.929 . S
H3240 C3248 0.929 . S
H3241 C3250 0.930 . S
H3242 C3252 0.930 . S
H3243 C3255 0.929 . S
H3244 C3258 0.930 . S
H3245 C3260 0.960 . S
H3246 C3260 0.960 . S
H3247 C3260 0.960 . S
C3248 H3240 0.929 . S
C3248 C3249 1.377 . S
C3248 C3250 1.384 . S
C3249 C3248 1.377 . S
C3249 C3255 1.390 . S
C3250 H3241 0.930 . S
C3250 C3248 1.384 . S
C3250 C3251 1.372 . S
C3251 C3250 1.372 . S
C3251 C3252 1.400 . S
C3251 C3256 1.490 . S
C3252 H3242 0.930 . S
C3252 C3251 1.400 . S
C3252 C3255 1.386 . S
H3253 C3269 0.930 1_455 S
H3254 C3270 0.931 . S
C3255 H3243 0.929 . S
C3255 C3249 1.390 . S
C3255 C3252 1.386 . S
C3256 C3251 1.490 . S
C3256 C3258 1.395 . S
C3256 C3259 1.403 . S
H3257 C3263 0.930 . S
C3258 H3244 0.930 . S
C3258 C3256 1.395 . S
C3258 C3261 1.403 . S
C3259 C3256 1.403 . S
C3259 C3260 1.524 . S
C3259 C3263 1.400 . S
C3260 H3245 0.960 . S
C3260 H3246 0.960 . S
C3260 H3247 0.960 . S
C3260 C3259 1.524 . S
C3261 C3258 1.403 . S
C3261 C3262 1.392 . S
C3261 C3265 1.495 . S
C3262 C3261 1.392 . S
C3262 C3263 1.385 . S
C3262 C3264 1.478 . S
C3263 H3257 0.930 . S
C3263 C3259 1.400 . S
C3263 C3262 1.385 . S
C3264 C3262 1.478 . S
C3264 C3266 1.381 . S
C3264 C3270 1.383 . S
C3265 C3261 1.495 . S
C3265 H3271 0.959 . S
C3265 H3272 0.961 . S
C3265 H3273 0.960 . S
C3266 C3264 1.381 . S
C3266 C3267 1.394 . S
C3266 H3274 0.930 . S
C3267 C3266 1.394 . S
C3267 C3268 1.383 . S
C3267 H3275 0.929 . S
C3268 C3267 1.383 . S
C3268 C3269 1.377 . S
C3269 H3253 0.930 1_655 S
C3269 C3268 1.377 . S
C3269 C3270 1.379 . S
C3270 H3254 0.931 . S
C3270 C3264 1.383 . S
C3270 C3269 1.379 . S
H3271 C3265 0.959 . S
H3272 C3265 0.961 . S
H3273 C3265 0.960 . S
H3274 C3266 0.930 . S
H3275 C3267 0.929 . S
H3276 C3284 0.929 . S
H3277 C3286 0.930 . S
H3278 C3288 0.930 . S
H3279 C3291 0.929 . S
H3280 C3294 0.930 . S
H3281 C3296 0.960 . S
H3282 C3296 0.960 . S
H3283 C3296 0.960 . S
C3284 H3276 0.929 . S
C3284 C3285 1.377 . S
C3284 C3286 1.384 . S
C3285 C3284 1.377 . S
C3285 C3291 1.390 . S
C3286 H3277 0.930 . S
C3286 C3284 1.384 . S
C3286 C3287 1.372 . S
C3287 C3286 1.372 . S
C3287 C3288 1.400 . S
C3287 C3292 1.490 . S
C3288 H3278 0.930 . S
C3288 C3287 1.400 . S
C3288 C3291 1.386 . S
H3289 C3305 0.930 . S
H3290 C3306 0.931 . S
C3291 H3279 0.929 . S
C3291 C3285 1.390 . S
C3291 C3288 1.386 . S
C3292 C3287 1.490 . S
C3292 C3294 1.395 . S
C3292 C3295 1.403 . S
H3293 C3299 0.930 . S
C3294 H3280 0.930 . S
C3294 C3292 1.395 . S
C3294 C3297 1.403 . S
C3295 C3292 1.403 . S
C3295 C3296 1.524 . S
C3295 C3299 1.400 . S
C3296 H3281 0.960 . S
C3296 H3282 0.960 . S
C3296 H3283 0.960 . S
C3296 C3295 1.524 . S
C3297 C3294 1.403 . S
C3297 C3298 1.392 . S
C3297 C3301 1.495 . S
C3298 C3297 1.392 . S
C3298 C3299 1.385 . S
C3298 C3300 1.478 . S
C3299 H3293 0.930 . S
C3299 C3295 1.400 . S
C3299 C3298 1.385 . S
C3300 C3298 1.478 . S
C3300 C3302 1.381 . S
C3300 C3306 1.383 . S
C3301 C3297 1.495 . S
C3301 H3307 0.959 . S
C3301 H3308 0.961 . S
C3301 H3309 0.960 . S
C3302 C3300 1.381 . S
C3302 C3303 1.394 . S
C3302 H3310 0.930 . S
C3303 C3302 1.394 . S
C3303 C3304 1.383 . S
C3303 H3311 0.929 . S
C3304 C3303 1.383 . S
C3304 C3305 1.377 . S
C3305 H3289 0.930 . S
C3305 C3304 1.377 . S
C3305 C3306 1.379 . S
C3306 H3290 0.931 . S
C3306 C3300 1.383 . S
C3306 C3305 1.379 . S
H3307 C3301 0.959 . S
H3308 C3301 0.961 . S
H3309 C3301 0.960 . S
H3310 C3302 0.930 . S
H3311 C3303 0.929 . S
H3312 C3320 0.929 . S
H3313 C3322 0.930 . S
H3314 C3324 0.930 . S
H3315 C3327 0.929 . S
H3316 C3330 0.930 . S
H3317 C3332 0.960 . S
H3318 C3332 0.960 . S
H3319 C3332 0.960 . S
C3320 H3312 0.929 . S
C3320 C3321 1.377 . S
C3320 C3322 1.384 . S
C3321 C3320 1.377 . S
C3321 C3327 1.390 . S
C3322 H3313 0.930 . S
C3322 C3320 1.384 . S
C3322 C3323 1.372 . S
C3323 C3322 1.372 . S
C3323 C3324 1.400 . S
C3323 C3328 1.490 . S
C3324 H3314 0.930 . S
C3324 C3323 1.400 . S
C3324 C3327 1.386 . S
H3325 C3341 0.930 . S
H3326 C3342 0.931 . S
C3327 H3315 0.929 . S
C3327 C3321 1.390 . S
C3327 C3324 1.386 . S
C3328 C3323 1.490 . S
C3328 C3330 1.395 . S
C3328 C3331 1.403 . S
H3329 C3335 0.930 . S
C3330 H3316 0.930 . S
C3330 C3328 1.395 . S
C3330 C3333 1.403 . S
C3331 C3328 1.403 . S
C3331 C3332 1.524 . S
C3331 C3335 1.400 . S
C3332 H3317 0.960 . S
C3332 H3318 0.960 . S
C3332 H3319 0.960 . S
C3332 C3331 1.524 . S
C3333 C3330 1.403 . S
C3333 C3334 1.392 . S
C3333 C3337 1.495 . S
C3334 C3333 1.392 . S
C3334 C3335 1.385 . S
C3334 C3336 1.478 . S
C3335 H3329 0.930 . S
C3335 C3331 1.400 . S
C3335 C3334 1.385 . S
C3336 C3334 1.478 . S
C3336 C3338 1.381 . S
C3336 C3342 1.383 . S
C3337 C3333 1.495 . S
C3337 H3343 0.956 1_545 S
C3337 H3344 0.961 1_545 S
C3337 H3345 0.960 . S
C3338 C3336 1.381 . S
C3338 C3339 1.394 . S
C3338 H3346 0.930 . S
C3339 C3338 1.394 . S
C3339 C3340 1.383 . S
C3339 H3347 0.929 . S
C3340 C3339 1.383 . S
C3340 C3341 1.377 . S
C3341 H3325 0.930 . S
C3341 C3340 1.377 . S
C3341 C3342 1.379 . S
C3342 H3326 0.931 . S
C3342 C3336 1.383 . S
C3342 C3341 1.379 . S
H3343 C3337 0.956 1_565 S
H3344 C3337 0.961 1_565 S
H3345 C3337 0.960 . S
H3346 C3338 0.930 . S
H3347 C3339 0.929 . S
H3348 C3356 0.929 . S
H3349 C3358 0.930 . S
H3350 C3360 0.930 . S
H3351 C3363 0.929 . S
H3352 C3366 0.930 . S
H3353 C3368 0.960 . S
H3354 C3368 0.960 . S
H3355 C3368 0.960 . S
C3356 H3348 0.929 . S
C3356 C3357 1.377 . S
C3356 C3358 1.384 . S
C3357 C3356 1.377 . S
C3357 C3363 1.390 . S
C3358 H3349 0.930 . S
C3358 C3356 1.384 . S
C3358 C3359 1.372 . S
C3359 C3358 1.372 . S
C3359 C3360 1.400 . S
C3359 C3364 1.490 . S
C3360 H3350 0.930 . S
C3360 C3359 1.400 . S
C3360 C3363 1.386 . S
H3361 C3377 0.930 . S
H3362 C3378 0.931 . S
C3363 H3351 0.929 . S
C3363 C3357 1.390 . S
C3363 C3360 1.386 . S
C3364 C3359 1.490 . S
C3364 C3366 1.395 . S
C3364 C3367 1.403 . S
H3365 C3371 0.930 . S
C3366 H3352 0.930 . S
C3366 C3364 1.395 . S
C3366 C3369 1.403 . S
C3367 C3364 1.403 . S
C3367 C3368 1.524 . S
C3367 C3371 1.400 . S
C3368 H3353 0.960 . S
C3368 H3354 0.960 . S
C3368 H3355 0.960 . S
C3368 C3367 1.524 . S
C3369 C3366 1.403 . S
C3369 C3370 1.392 . S
C3369 C3373 1.495 . S
C3370 C3369 1.392 . S
C3370 C3371 1.385 . S
C3370 C3372 1.478 . S
C3371 H3365 0.930 . S
C3371 C3367 1.400 . S
C3371 C3370 1.385 . S
C3372 C3370 1.478 . S
C3372 C3374 1.381 . S
C3372 C3378 1.383 . S
C3373 C3369 1.495 . S
C3373 H3379 0.959 . S
C3373 H3380 0.961 . S
C3373 H3381 0.960 . S
C3374 C3372 1.381 . S
C3374 C3375 1.394 . S
C3374 H3382 0.930 . S
C3375 C3374 1.394 . S
C3375 C3376 1.383 . S
C3375 H3383 0.929 . S
C3376 C3375 1.383 . S
C3376 C3377 1.377 . S
C3377 H3361 0.930 . S
C3377 C3376 1.377 . S
C3377 C3378 1.379 . S
C3378 H3362 0.931 . S
C3378 C3372 1.383 . S
C3378 C3377 1.379 . S
H3379 C3373 0.959 . S
H3380 C3373 0.961 . S
H3381 C3373 0.960 . S
H3382 C3374 0.930 . S
H3383 C3375 0.929 . S
H3384 C3392 0.929 . S
H3385 C3394 0.930 . S
H3386 C3396 0.930 . S
H3387 C3399 0.929 . S
H3388 C3402 0.930 . S
H3389 C3404 0.960 . S
H3390 C3404 0.960 . S
H3391 C3404 0.960 . S
C3392 H3384 0.929 . S
C3392 C3393 1.377 . S
C3392 C3394 1.384 . S
C3393 C3392 1.377 . S
C3393 C3399 1.390 . S
C3394 H3385 0.930 . S
C3394 C3392 1.384 . S
C3394 C3395 1.372 . S
C3395 C3394 1.372 . S
C3395 C3396 1.400 . S
C3395 C3400 1.490 . S
C3396 H3386 0.930 . S
C3396 C3395 1.400 . S
C3396 C3399 1.386 . S
H3397 C3413 0.930 . S
H3398 C3414 0.931 . S
C3399 H3387 0.929 . S
C3399 C3393 1.390 . S
C3399 C3396 1.386 . S
C3400 C3395 1.490 . S
C3400 C3402 1.395 . S
C3400 C3403 1.403 . S
H3401 C3407 0.930 . S
C3402 H3388 0.930 . S
C3402 C3400 1.395 . S
C3402 C3405 1.403 . S
C3403 C3400 1.403 . S
C3403 C3404 1.524 . S
C3403 C3407 1.400 . S
C3404 H3389 0.960 . S
C3404 H3390 0.960 . S
C3404 H3391 0.960 . S
C3404 C3403 1.524 . S
C3405 C3402 1.403 . S
C3405 C3406 1.392 . S
C3405 C3409 1.495 . S
C3406 C3405 1.392 . S
C3406 C3407 1.385 . S
C3406 C3408 1.478 . S
C3407 H3401 0.930 . S
C3407 C3403 1.400 . S
C3407 C3406 1.385 . S
C3408 C3406 1.478 . S
C3408 C3410 1.381 . S
C3408 C3414 1.383 . S
C3409 C3405 1.495 . S
C3409 H3415 0.959 . S
C3409 H3416 0.961 . S
C3409 H3417 0.960 . S
C3410 C3408 1.381 . S
C3410 C3411 1.394 . S
C3410 H3418 0.930 . S
C3411 C3410 1.394 . S
C3411 C3412 1.383 . S
C3411 H3419 0.929 . S
C3412 C3411 1.383 . S
C3412 C3413 1.377 . S
C3413 H3397 0.930 . S
C3413 C3412 1.377 . S
C3413 C3414 1.379 . S
C3414 H3398 0.931 . S
C3414 C3408 1.383 . S
C3414 C3413 1.379 . S
H3415 C3409 0.959 . S
H3416 C3409 0.961 . S
H3417 C3409 0.960 . S
H3418 C3410 0.930 . S
H3419 C3411 0.929 . S
H3420 C3428 0.929 . S
H3421 C3430 0.930 . S
H3422 C3432 0.930 . S
H3423 C3435 0.929 . S
H3424 C3438 0.930 . S
H3425 C3440 0.960 . S
H3426 C3440 0.960 . S
H3427 C3440 0.960 . S
C3428 H3420 0.929 . S
C3428 C3429 1.377 . S
C3428 C3430 1.384 . S
C3429 C3428 1.377 . S
C3429 C3435 1.390 . S
C3430 H3421 0.930 . S
C3430 C3428 1.384 . S
C3430 C3431 1.372 . S
C3431 C3430 1.372 . S
C3431 C3432 1.400 . S
C3431 C3436 1.490 . S
C3432 H3422 0.930 . S
C3432 C3431 1.400 . S
C3432 C3435 1.386 . S
H3433 C3449 0.930 . S
H3434 C3450 0.931 . S
C3435 H3423 0.929 . S
C3435 C3429 1.390 . S
C3435 C3432 1.386 . S
C3436 C3431 1.490 . S
C3436 C3438 1.395 . S
C3436 C3439 1.403 . S
H3437 C3443 0.930 . S
C3438 H3424 0.930 . S
C3438 C3436 1.395 . S
C3438 C3441 1.403 . S
C3439 C3436 1.403 . S
C3439 C3440 1.524 . S
C3439 C3443 1.400 . S
C3440 H3425 0.960 . S
C3440 H3426 0.960 . S
C3440 H3427 0.960 . S
C3440 C3439 1.524 . S
C3441 C3438 1.403 . S
C3441 C3442 1.392 . S
C3441 C3445 1.495 . S
C3442 C3441 1.392 . S
C3442 C3443 1.385 . S
C3442 C3444 1.478 . S
C3443 H3437 0.930 . S
C3443 C3439 1.400 . S
C3443 C3442 1.385 . S
C3444 C3442 1.478 . S
C3444 C3446 1.381 . S
C3444 C3450 1.383 . S
C3445 C3441 1.495 . S
C3445 H3451 0.959 . S
C3445 H3452 0.961 . S
C3445 H3453 0.960 . S
C3446 C3444 1.381 . S
C3446 C3447 1.394 . S
C3446 H3454 0.930 . S
C3447 C3446 1.394 . S
C3447 C3448 1.383 . S
C3447 H3455 0.929 . S
C3448 C3447 1.383 . S
C3448 C3449 1.377 . S
C3449 H3433 0.930 . S
C3449 C3448 1.377 . S
C3449 C3450 1.379 . S
C3450 H3434 0.931 . S
C3450 C3444 1.383 . S
C3450 C3449 1.379 . S
H3451 C3445 0.959 . S
H3452 C3445 0.961 . S
H3453 C3445 0.960 . S
H3454 C3446 0.930 . S
H3455 C3447 0.929 . S
H3456 C3464 0.929 . S
H3457 C3466 0.930 . S
H3458 C3468 0.930 . S
H3459 C3471 0.929 . S
H3460 C3474 0.930 . S
H3461 C3476 0.960 . S
H3462 C3476 0.960 . S
H3463 C3476 0.960 . S
C3464 H3456 0.929 . S
C3464 C3465 1.377 . S
C3464 C3466 1.384 . S
C3465 C3464 1.377 . S
C3465 C3471 1.390 . S
C3466 H3457 0.930 . S
C3466 C3464 1.384 . S
C3466 C3467 1.372 . S
C3467 C3466 1.372 . S
C3467 C3468 1.400 . S
C3467 C3472 1.490 . S
C3468 H3458 0.930 . S
C3468 C3467 1.400 . S
C3468 C3471 1.386 . S
H3469 C3485 0.930 . S
H3470 C3486 0.931 . S
C3471 H3459 0.929 . S
C3471 C3465 1.390 . S
C3471 C3468 1.386 . S
C3472 C3467 1.490 . S
C3472 C3474 1.395 . S
C3472 C3475 1.403 . S
H3473 C3479 0.930 . S
C3474 H3460 0.930 . S
C3474 C3472 1.395 . S
C3474 C3477 1.403 . S
C3475 C3472 1.403 . S
C3475 C3476 1.524 . S
C3475 C3479 1.400 . S
C3476 H3461 0.960 . S
C3476 H3462 0.960 . S
C3476 H3463 0.960 . S
C3476 C3475 1.524 . S
C3477 C3474 1.403 . S
C3477 C3478 1.392 . S
C3477 C3481 1.495 . S
C3478 C3477 1.392 . S
C3478 C3479 1.385 . S
C3478 C3480 1.478 . S
C3479 H3473 0.930 . S
C3479 C3475 1.400 . S
C3479 C3478 1.385 . S
C3480 C3478 1.478 . S
C3480 C3482 1.381 . S
C3480 C3486 1.383 . S
C3481 C3477 1.495 . S
C3481 H3487 0.959 . S
C3481 H3488 0.961 . S
C3481 H3489 0.960 . S
C3482 C3480 1.381 . S
C3482 C3483 1.394 . S
C3482 H3490 0.930 . S
C3483 C3482 1.394 . S
C3483 C3484 1.383 . S
C3483 H3491 0.929 . S
C3484 C3483 1.383 . S
C3484 C3485 1.377 . S
C3485 H3469 0.930 . S
C3485 C3484 1.377 . S
C3485 C3486 1.379 . S
C3486 H3470 0.931 . S
C3486 C3480 1.383 . S
C3486 C3485 1.379 . S
H3487 C3481 0.959 . S
H3488 C3481 0.961 . S
H3489 C3481 0.960 . S
H3490 C3482 0.930 . S
H3491 C3483 0.929 . S
H3492 C3500 0.929 . S
H3493 C3502 0.930 . S
H3494 C3504 0.930 . S
H3495 C3507 0.929 . S
H3496 C3510 0.930 . S
H3497 C3512 0.960 . S
H3498 C3512 0.960 . S
H3499 C3512 0.960 . S
C3500 H3492 0.929 . S
C3500 C3501 1.377 . S
C3500 C3502 1.384 . S
C3501 C3500 1.377 . S
C3501 C3507 1.390 . S
C3502 H3493 0.930 . S
C3502 C3500 1.384 . S
C3502 C3503 1.372 . S
C3503 C3502 1.372 . S
C3503 C3504 1.400 . S
C3503 C3508 1.490 . S
C3504 H3494 0.930 . S
C3504 C3503 1.400 . S
C3504 C3507 1.386 . S
H3505 C3521 0.930 . S
H3506 C3522 0.931 . S
C3507 H3495 0.929 . S
C3507 C3501 1.390 . S
C3507 C3504 1.386 . S
C3508 C3503 1.490 . S
C3508 C3510 1.395 . S
C3508 C3511 1.403 . S
H3509 C3515 0.930 . S
C3510 H3496 0.930 . S
C3510 C3508 1.395 . S
C3510 C3513 1.403 . S
C3511 C3508 1.403 . S
C3511 C3512 1.524 . S
C3511 C3515 1.400 . S
C3512 H3497 0.960 . S
C3512 H3498 0.960 . S
C3512 H3499 0.960 . S
C3512 C3511 1.524 . S
C3513 C3510 1.403 . S
C3513 C3514 1.392 . S
C3513 C3517 1.495 . S
C3514 C3513 1.392 . S
C3514 C3515 1.385 . S
C3514 C3516 1.478 . S
C3515 H3509 0.930 . S
C3515 C3511 1.400 . S
C3515 C3514 1.385 . S
C3516 C3514 1.478 . S
C3516 C3518 1.381 . S
C3516 C3522 1.383 . S
C3517 C3513 1.495 . S
C3517 H3523 0.959 . S
C3517 H3524 0.961 . S
C3517 H3525 0.960 . S
C3518 C3516 1.381 . S
C3518 C3519 1.394 . S
C3518 H3526 0.930 . S
C3519 C3518 1.394 . S
C3519 C3520 1.383 . S
C3519 H3527 0.929 . S
C3520 C3519 1.383 . S
C3520 C3521 1.377 . S
C3521 H3505 0.930 . S
C3521 C3520 1.377 . S
C3521 C3522 1.379 . S
C3522 H3506 0.931 . S
C3522 C3516 1.383 . S
C3522 C3521 1.379 . S
H3523 C3517 0.959 . S
H3524 C3517 0.961 . S
H3525 C3517 0.960 . S
H3526 C3518 0.930 . S
H3527 C3519 0.929 . S
H3528 C3536 0.929 . S
H3529 C3538 0.930 . S
H3530 C3540 0.930 . S
H3531 C3543 0.929 . S
H3532 C3546 0.930 . S
H3533 C3548 0.960 . S
H3534 C3548 0.960 . S
H3535 C3548 0.960 . S
C3536 H3528 0.929 . S
C3536 C3537 1.377 . S
C3536 C3538 1.384 . S
C3537 C3536 1.377 . S
C3537 C3543 1.390 . S
C3538 H3529 0.930 . S
C3538 C3536 1.384 . S
C3538 C3539 1.372 . S
C3539 C3538 1.372 . S
C3539 C3540 1.400 . S
C3539 C3544 1.490 . S
C3540 H3530 0.930 . S
C3540 C3539 1.400 . S
C3540 C3543 1.386 . S
H3541 C3557 0.930 . S
H3542 C3558 0.931 . S
C3543 H3531 0.929 . S
C3543 C3537 1.390 . S
C3543 C3540 1.386 . S
C3544 C3539 1.490 . S
C3544 C3546 1.395 . S
C3544 C3547 1.403 . S
H3545 C3551 0.930 . S
C3546 H3532 0.930 . S
C3546 C3544 1.395 . S
C3546 C3549 1.403 . S
C3547 C3544 1.403 . S
C3547 C3548 1.524 . S
C3547 C3551 1.400 . S
C3548 H3533 0.960 . S
C3548 H3534 0.960 . S
C3548 H3535 0.960 . S
C3548 C3547 1.524 . S
C3549 C3546 1.403 . S
C3549 C3550 1.392 . S
C3549 C3553 1.495 . S
C3550 C3549 1.392 . S
C3550 C3551 1.385 . S
C3550 C3552 1.478 . S
C3551 H3545 0.930 . S
C3551 C3547 1.400 . S
C3551 C3550 1.385 . S
C3552 C3550 1.478 . S
C3552 C3554 1.381 . S
C3552 C3558 1.383 . S
C3553 C3549 1.495 . S
C3553 H3559 0.959 . S
C3553 H3560 0.961 . S
C3553 H3561 0.960 . S
C3554 C3552 1.381 . S
C3554 C3555 1.394 . S
C3554 H3562 0.930 . S
C3555 C3554 1.394 . S
C3555 C3556 1.383 . S
C3555 H3563 0.929 . S
C3556 C3555 1.383 . S
C3556 C3557 1.377 . S
C3557 H3541 0.930 . S
C3557 C3556 1.377 . S
C3557 C3558 1.379 . S
C3558 H3542 0.931 . S
C3558 C3552 1.383 . S
C3558 C3557 1.379 . S
H3559 C3553 0.959 . S
H3560 C3553 0.961 . S
H3561 C3553 0.960 . S
H3562 C3554 0.930 . S
H3563 C3555 0.929 . S
H3564 C3572 0.929 . S
H3565 C3574 0.930 . S
H3566 C3576 0.930 . S
H3567 C3579 0.929 . S
H3568 C3582 0.930 . S
H3569 C3584 0.960 . S
H3570 C3584 0.960 . S
H3571 C3584 0.960 . S
C3572 H3564 0.929 . S
C3572 C3573 1.377 . S
C3572 C3574 1.384 . S
C3573 C3572 1.377 . S
C3573 C3579 1.390 . S
C3574 H3565 0.930 . S
C3574 C3572 1.384 . S
C3574 C3575 1.372 . S
C3575 C3574 1.372 . S
C3575 C3576 1.400 . S
C3575 C3580 1.490 . S
C3576 H3566 0.930 . S
C3576 C3575 1.400 . S
C3576 C3579 1.386 . S
H3577 C3593 0.930 . S
H3578 C3594 0.931 . S
C3579 H3567 0.929 . S
C3579 C3573 1.390 . S
C3579 C3576 1.386 . S
C3580 C3575 1.490 . S
C3580 C3582 1.395 . S
C3580 C3583 1.403 . S
H3581 C3587 0.930 . S
C3582 H3568 0.930 . S
C3582 C3580 1.395 . S
C3582 C3585 1.403 . S
C3583 C3580 1.403 . S
C3583 C3584 1.524 . S
C3583 C3587 1.400 . S
C3584 H3569 0.960 . S
C3584 H3570 0.960 . S
C3584 H3571 0.960 . S
C3584 C3583 1.524 . S
C3585 C3582 1.403 . S
C3585 C3586 1.392 . S
C3585 C3589 1.495 . S
C3586 C3585 1.392 . S
C3586 C3587 1.385 . S
C3586 C3588 1.478 . S
C3587 H3581 0.930 . S
C3587 C3583 1.400 . S
C3587 C3586 1.385 . S
C3588 C3586 1.478 . S
C3588 C3590 1.381 . S
C3588 C3594 1.383 . S
C3589 C3585 1.495 . S
C3589 H3595 0.959 . S
C3589 H3596 0.961 . S
C3589 H3597 0.960 . S
C3590 C3588 1.381 . S
C3590 C3591 1.394 . S
C3590 H3598 0.930 . S
C3591 C3590 1.394 . S
C3591 C3592 1.383 . S
C3591 H3599 0.929 . S
C3592 C3591 1.383 . S
C3592 C3593 1.377 . S
C3593 H3577 0.930 . S
C3593 C3592 1.377 . S
C3593 C3594 1.379 . S
C3594 H3578 0.931 . S
C3594 C3588 1.383 . S
C3594 C3593 1.379 . S
H3595 C3589 0.959 . S
H3596 C3589 0.961 . S
H3597 C3589 0.960 . S
H3598 C3590 0.930 . S
H3599 C3591 0.929 . S
H3600 C3608 0.929 . S
H3601 C3610 0.930 . S
H3602 C3612 0.930 . S
H3603 C3615 0.929 . S
H3604 C3618 0.930 . S
H3605 C3620 0.960 . S
H3606 C3620 0.960 . S
H3607 C3620 0.960 . S
C3608 H3600 0.929 . S
C3608 C3609 1.377 . S
C3608 C3610 1.384 . S
C3609 C3608 1.377 . S
C3609 C3615 1.390 . S
C3610 H3601 0.930 . S
C3610 C3608 1.384 . S
C3610 C3611 1.372 . S
C3611 C3610 1.372 . S
C3611 C3612 1.400 . S
C3611 C3616 1.490 . S
C3612 H3602 0.930 . S
C3612 C3611 1.400 . S
C3612 C3615 1.386 . S
H3613 C3629 0.930 . S
H3614 C3630 0.931 . S
C3615 H3603 0.929 . S
C3615 C3609 1.390 . S
C3615 C3612 1.386 . S
C3616 C3611 1.490 . S
C3616 C3618 1.395 . S
C3616 C3619 1.403 . S
H3617 C3623 0.930 . S
C3618 H3604 0.930 . S
C3618 C3616 1.395 . S
C3618 C3621 1.403 . S
C3619 C3616 1.403 . S
C3619 C3620 1.524 . S
C3619 C3623 1.400 . S
C3620 H3605 0.960 . S
C3620 H3606 0.960 . S
C3620 H3607 0.960 . S
C3620 C3619 1.524 . S
C3621 C3618 1.403 . S
C3621 C3622 1.392 . S
C3621 C3625 1.495 . S
C3622 C3621 1.392 . S
C3622 C3623 1.385 . S
C3622 C3624 1.478 . S
C3623 H3617 0.930 . S
C3623 C3619 1.400 . S
C3623 C3622 1.385 . S
C3624 C3622 1.478 . S
C3624 C3626 1.381 . S
C3624 C3630 1.383 . S
C3625 C3621 1.495 . S
C3625 H3631 0.959 . S
C3625 H3632 0.961 . S
C3625 H3633 0.960 . S
C3626 C3624 1.381 . S
C3626 C3627 1.394 . S
C3626 H3634 0.930 . S
C3627 C3626 1.394 . S
C3627 C3628 1.383 . S
C3627 H3635 0.929 . S
C3628 C3627 1.383 . S
C3628 C3629 1.377 . S
C3629 H3613 0.930 . S
C3629 C3628 1.377 . S
C3629 C3630 1.379 . S
C3630 H3614 0.931 . S
C3630 C3624 1.383 . S
C3630 C3629 1.379 . S
H3631 C3625 0.959 . S
H3632 C3625 0.961 . S
H3633 C3625 0.960 . S
H3634 C3626 0.930 . S
H3635 C3627 0.929 . S
H3636 C3644 0.929 . S
H3637 C3646 0.930 . S
H3638 C3648 0.930 . S
H3639 C3651 0.929 . S
H3640 C3654 0.930 . S
H3641 C3656 0.960 . S
H3642 C3656 0.960 . S
H3643 C3656 0.960 . S
C3644 H3636 0.929 . S
C3644 C3645 1.377 . S
C3644 C3646 1.384 . S
C3645 C3644 1.377 . S
C3645 C3651 1.390 . S
C3646 H3637 0.930 . S
C3646 C3644 1.384 . S
C3646 C3647 1.372 . S
C3647 C3646 1.372 . S
C3647 C3648 1.400 . S
C3647 C3652 1.490 . S
C3648 H3638 0.930 . S
C3648 C3647 1.400 . S
C3648 C3651 1.386 . S
H3649 C3665 0.930 . S
H3650 C3666 0.931 . S
C3651 H3639 0.929 . S
C3651 C3645 1.390 . S
C3651 C3648 1.386 . S
C3652 C3647 1.490 . S
C3652 C3654 1.395 . S
C3652 C3655 1.403 . S
H3653 C3659 0.930 . S
C3654 H3640 0.930 . S
C3654 C3652 1.395 . S
C3654 C3657 1.403 . S
C3655 C3652 1.403 . S
C3655 C3656 1.524 . S
C3655 C3659 1.400 . S
C3656 H3641 0.960 . S
C3656 H3642 0.960 . S
C3656 H3643 0.960 . S
C3656 C3655 1.524 . S
C3657 C3654 1.403 . S
C3657 C3658 1.392 . S
C3657 C3661 1.495 . S
C3658 C3657 1.392 . S
C3658 C3659 1.385 . S
C3658 C3660 1.478 . S
C3659 H3653 0.930 . S
C3659 C3655 1.400 . S
C3659 C3658 1.385 . S
C3660 C3658 1.478 . S
C3660 C3662 1.381 . S
C3660 C3666 1.383 . S
C3661 C3657 1.495 . S
C3661 H3667 0.959 . S
C3661 H3668 0.961 . S
C3661 H3669 0.960 . S
C3662 C3660 1.381 . S
C3662 C3663 1.394 . S
C3662 H3670 0.930 . S
C3663 C3662 1.394 . S
C3663 C3664 1.383 . S
C3663 H3671 0.929 . S
C3664 C3663 1.383 . S
C3664 C3665 1.377 . S
C3665 H3649 0.930 . S
C3665 C3664 1.377 . S
C3665 C3666 1.379 . S
C3666 H3650 0.931 . S
C3666 C3660 1.383 . S
C3666 C3665 1.379 . S
H3667 C3661 0.959 . S
H3668 C3661 0.961 . S
H3669 C3661 0.960 . S
H3670 C3662 0.930 . S
H3671 C3663 0.929 . S
H3672 C3680 0.929 . S
H3673 C3682 0.930 . S
H3674 C3684 0.930 . S
H3675 C3687 0.929 . S
H3676 C3690 0.930 . S
H3677 C3692 0.960 . S
H3678 C3692 0.960 . S
H3679 C3692 0.960 . S
C3680 H3672 0.929 . S
C3680 C3681 1.377 . S
C3680 C3682 1.384 . S
C3681 C3680 1.377 . S
C3681 C3687 1.390 . S
C3682 H3673 0.930 . S
C3682 C3680 1.384 . S
C3682 C3683 1.372 . S
C3683 C3682 1.372 . S
C3683 C3684 1.400 . S
C3683 C3688 1.490 . S
C3684 H3674 0.930 . S
C3684 C3683 1.400 . S
C3684 C3687 1.386 . S
H3685 C3701 0.930 . S
H3686 C3702 0.931 . S
C3687 H3675 0.929 . S
C3687 C3681 1.390 . S
C3687 C3684 1.386 . S
C3688 C3683 1.490 . S
C3688 C3690 1.395 . S
C3688 C3691 1.403 . S
H3689 C3695 0.930 . S
C3690 H3676 0.930 . S
C3690 C3688 1.395 . S
C3690 C3693 1.403 . S
C3691 C3688 1.403 . S
C3691 C3692 1.524 . S
C3691 C3695 1.400 . S
C3692 H3677 0.960 . S
C3692 H3678 0.960 . S
C3692 H3679 0.960 . S
C3692 C3691 1.524 . S
C3693 C3690 1.403 . S
C3693 C3694 1.392 . S
C3693 C3697 1.495 . S
C3694 C3693 1.392 . S
C3694 C3695 1.385 . S
C3694 C3696 1.478 . S
C3695 H3689 0.930 . S
C3695 C3691 1.400 . S
C3695 C3694 1.385 . S
C3696 C3694 1.478 . S
C3696 C3698 1.381 . S
C3696 C3702 1.383 . S
C3697 C3693 1.495 . S
C3697 H3703 0.959 . S
C3697 H3704 0.961 . S
C3697 H3705 0.960 . S
C3698 C3696 1.381 . S
C3698 C3699 1.394 . S
C3698 H3706 0.930 . S
C3699 C3698 1.394 . S
C3699 C3700 1.383 . S
C3699 H3707 0.929 . S
C3700 C3699 1.383 . S
C3700 C3701 1.377 . S
C3701 H3685 0.930 . S
C3701 C3700 1.377 . S
C3701 C3702 1.379 . S
C3702 H3686 0.931 . S
C3702 C3696 1.383 . S
C3702 C3701 1.379 . S
H3703 C3697 0.959 . S
H3704 C3697 0.961 . S
H3705 C3697 0.960 . S
H3706 C3698 0.930 . S
H3707 C3699 0.929 . S
H3708 C3716 0.929 . S
H3709 C3718 0.930 . S
H3710 C3720 0.930 . S
H3711 C3723 0.929 . S
H3712 C3726 0.930 . S
H3713 C3728 0.960 . S
H3714 C3728 0.960 . S
H3715 C3728 0.960 . S
C3716 H3708 0.929 . S
C3716 C3717 1.377 . S
C3716 C3718 1.384 . S
C3717 C3716 1.377 . S
C3717 C3723 1.390 . S
C3718 H3709 0.930 . S
C3718 C3716 1.384 . S
C3718 C3719 1.372 . S
C3719 C3718 1.372 . S
C3719 C3720 1.400 . S
C3719 C3724 1.490 . S
C3720 H3710 0.930 . S
C3720 C3719 1.400 . S
C3720 C3723 1.386 . S
H3721 C3737 0.930 . S
H3722 C3738 0.931 . S
C3723 H3711 0.929 . S
C3723 C3717 1.390 . S
C3723 C3720 1.386 . S
C3724 C3719 1.490 . S
C3724 C3726 1.395 . S
C3724 C3727 1.403 . S
H3725 C3731 0.930 . S
C3726 H3712 0.930 . S
C3726 C3724 1.395 . S
C3726 C3729 1.403 . S
C3727 C3724 1.403 . S
C3727 C3728 1.524 . S
C3727 C3731 1.400 . S
C3728 H3713 0.960 . S
C3728 H3714 0.960 . S
C3728 H3715 0.960 . S
C3728 C3727 1.524 . S
C3729 C3726 1.403 . S
C3729 C3730 1.392 . S
C3729 C3733 1.495 . S
C3730 C3729 1.392 . S
C3730 C3731 1.385 . S
C3730 C3732 1.478 . S
C3731 H3725 0.930 . S
C3731 C3727 1.400 . S
C3731 C3730 1.385 . S
C3732 C3730 1.478 . S
C3732 C3734 1.381 . S
C3732 C3738 1.383 . S
C3733 C3729 1.495 . S
C3733 H3739 0.959 . S
C3733 H3740 0.961 . S
C3733 H3741 0.960 . S
C3734 C3732 1.381 . S
C3734 C3735 1.394 . S
C3734 H3742 0.930 . S
C3735 C3734 1.394 . S
C3735 C3736 1.383 . S
C3735 H3743 0.929 . S
C3736 C3735 1.383 . S
C3736 C3737 1.377 . S
C3737 H3721 0.930 . S
C3737 C3736 1.377 . S
C3737 C3738 1.379 . S
C3738 H3722 0.931 . S
C3738 C3732 1.383 . S
C3738 C3737 1.379 . S
H3739 C3733 0.959 . S
H3740 C3733 0.961 . S
H3741 C3733 0.960 . S
H3742 C3734 0.930 . S
H3743 C3735 0.929 . S
H3744 C3752 0.929 . S
H3745 C3754 0.930 . S
H3746 C3756 0.930 . S
H3747 C3759 0.929 . S
H3748 C3762 0.930 . S
H3749 C3764 0.960 . S
H3750 C3764 0.960 . S
H3751 C3764 0.960 . S
C3752 H3744 0.929 . S
C3752 C3753 1.377 . S
C3752 C3754 1.384 . S
C3753 C3752 1.377 . S
C3753 C3759 1.390 . S
C3754 H3745 0.930 . S
C3754 C3752 1.384 . S
C3754 C3755 1.372 . S
C3755 C3754 1.372 . S
C3755 C3756 1.400 . S
C3755 C3760 1.490 . S
C3756 H3746 0.930 . S
C3756 C3755 1.400 . S
C3756 C3759 1.386 . S
H3757 C3773 0.930 . S
H3758 C3774 0.931 . S
C3759 H3747 0.929 . S
C3759 C3753 1.390 . S
C3759 C3756 1.386 . S
C3760 C3755 1.490 . S
C3760 C3762 1.395 . S
C3760 C3763 1.403 . S
H3761 C3767 0.930 . S
C3762 H3748 0.930 . S
C3762 C3760 1.395 . S
C3762 C3765 1.403 . S
C3763 C3760 1.403 . S
C3763 C3764 1.524 . S
C3763 C3767 1.400 . S
C3764 H3749 0.960 . S
C3764 H3750 0.960 . S
C3764 H3751 0.960 . S
C3764 C3763 1.524 . S
C3765 C3762 1.403 . S
C3765 C3766 1.392 . S
C3765 C3769 1.495 . S
C3766 C3765 1.392 . S
C3766 C3767 1.385 . S
C3766 C3768 1.478 . S
C3767 H3761 0.930 . S
C3767 C3763 1.400 . S
C3767 C3766 1.385 . S
C3768 C3766 1.478 . S
C3768 C3770 1.381 . S
C3768 C3774 1.383 . S
C3769 C3765 1.495 . S
C3769 H3775 0.959 . S
C3769 H3776 0.961 . S
C3769 H3777 0.960 . S
C3770 C3768 1.381 . S
C3770 C3771 1.394 . S
C3770 H3778 0.930 . S
C3771 C3770 1.394 . S
C3771 C3772 1.383 . S
C3771 H3779 0.929 . S
C3772 C3771 1.383 . S
C3772 C3773 1.377 . S
C3773 H3757 0.930 . S
C3773 C3772 1.377 . S
C3773 C3774 1.379 . S
C3774 H3758 0.931 . S
C3774 C3768 1.383 . S
C3774 C3773 1.379 . S
H3775 C3769 0.959 . S
H3776 C3769 0.961 . S
H3777 C3769 0.960 . S
H3778 C3770 0.930 . S
H3779 C3771 0.929 . S
C1845 C781 1.397 . S
C1864 C1147 1.298 . S
C1881 C871 1.421 . S
C1900 C1231 1.348 . S
C1917 C751 1.424 . S
C1936 C1311 1.425 . S
C1953 C691 1.377 . S
C1972 C1227 1.381 . S
C2008 C1315 1.258 . S
C1989 C571 1.343 . S
C2025 C601 1.364 . S
C2044 C1143 1.314 . S
C2080 C1136 1.302 . S
C2061 C661 1.370 . S
C2116 C1220 1.393 . S
C2097 C541 1.413 . S
C2133 C631 1.442 . S
C2152 C1322 1.431 . S
C2169 C811 1.396 . S
C2188 C1238 1.340 . S
C2205 C841 1.342 . S
C2224 C1304 1.324 . S
C2260 C1154 1.309 . S
C2241 C721 1.330 . S
C2296 C1399 1.341 . S
C2277 C61 1.397 . S
C2313 C151 1.419 . S
C2332 C1483 1.400 . S
C2349 C31 1.424 . S
C2368 C1563 1.431 . S
C2385 C1051 1.372 . S
C2404 C1479 1.340 . S
C2421 C931 1.339 . S
C2440 C1567 1.288 . S
C2457 C961 1.356 . S
C2476 C1395 1.356 . S
C2493 C1021 1.375 . S
C2512 C1388 1.365 . S
C2529 C901 1.404 . S
C2548 C1472 1.371 . S
C2584 C1574 1.431 . S
C2565 C991 1.442 . S
C2601 C91 1.392 . S
C2620 C1490 1.382 . S
C2656 C1556 1.257 . S
C2637 C121 1.335 . S
C2673 C1 1.333 . S
C2692 C1406 1.314 . S
C2728 C1651 1.310 . S
C2709 C421 1.398 . S
C2745 C511 1.421 . S
C2764 C1735 1.345 . S
C2800 C1815 1.389 . S
C2781 C391 1.415 . S
C2836 C1731 1.377 . S
C2817 C331 1.376 . S
C2872 C1819 1.312 . S
C2853 C211 1.347 . S
C2889 C241 1.363 . S
C2908 C1647 1.310 . S
C2925 C301 1.369 . S
C2944 C1640 1.320 . S
C2961 C181 1.412 . S
C2980 C1724 1.397 . S
C3016 C1826 1.394 . S
C2997 C271 1.447 . S
C3033 C451 1.391 . S
C3052 C1742 1.377 . S
C3069 C481 1.342 . S
C3088 C1808 1.327 . S
C3105 C361 1.332 . S
C3124 C1658 1.324 . S
C3141 C920 1.401 . S
C3160 C1150 1.333 . S
C3196 C1234 1.309 . S
C3177 C980 1.482 . S
C3213 C1040 1.424 . S
C3232 C1306 1.275 . S
C3249 C380 1.470 . S
C3268 C1222 1.388 . S
C3285 C440 1.430 . S
C3304 C1318 1.352 . S
C3340 C1138 1.264 . S
C3321 C500 1.393 . S
C3357 C200 1.394 . S
C3376 C1402 1.258 . S
C3393 C260 1.476 . S
C3412 C1486 1.390 . S
C3429 C320 1.431 . S
C3448 C1558 1.344 . S
C3465 C740 1.471 . S
C3484 C1474 1.370 . S
C3520 C1570 1.360 . S
C3501 C800 1.430 . S
C3537 C860 1.400 . S
C3556 C1390 1.337 . S
C3573 C560 1.394 . S
C3592 C1654 1.273 . S
C3609 C620 1.481 . S
C3628 C1738 1.351 . S
C3664 C1810 1.275 . S
C3645 C680 1.424 . S
C3681 C20 1.463 . S
C3700 C1726 1.318 . S
C3717 C80 1.437 . S
C3736 C1822 1.291 . S
C3753 C140 1.401 . S
C3772 C1642 1.329 . S
