# Generated by pormake.
# Topology zzz, (3,6)-cn, num edge types: 1
# Building blocks:
#     Node 0, Type 0, BuildingBlock: KAKCAD_clean_linker_0, # of connection points: 3
#     Node 1, Type 0, BuildingBlock: KAKCAD_clean_linker_0, # of connection points: 3
#     Node 2, Type 0, BuildingBlock: KAKCAD_clean_linker_0, # of connection points: 3
#     Node 3, Type 0, BuildingBlock: KAKCAD_clean_linker_0, # of connection points: 3
#     Node 4, Type 0, BuildingBlock: KAKCAD_clean_linker_0, # of connection points: 3
#     Node 5, Type 0, BuildingBlock: KAKCAD_clean_linker_0, # of connection points: 3
#     Node 6, Type 0, BuildingBlock: KAKCAD_clean_linker_0, # of connection points: 3
#     Node 7, Type 0, BuildingBlock: KAKCAD_clean_linker_0, # of connection points: 3
#     Node 8, Type 1, BuildingBlock: KUMJIN_clean_sbu_1, # of connection points: 6
#     Node 9, Type 1, BuildingBlock: KUMJIN_clean_sbu_1, # of connection points: 6
#     Node 10, Type 1, BuildingBlock: KUMJIN_clean_sbu_1, # of connection points: 6
#     Node 11, Type 1, BuildingBlock: KUMJIN_clean_sbu_1, # of connection points: 6
#     Edge 12, Type (0, 1), BuildingBlock: OJICUG_clean_linker_0, # of connection points: 2
#     Edge 13, Type (0, 1), BuildingBlock: OJICUG_clean_linker_0, # of connection points: 2
#     Edge 14, Type (0, 1), BuildingBlock: OJICUG_clean_linker_0, # of connection points: 2
#     Edge 15, Type (0, 1), BuildingBlock: OJICUG_clean_linker_0, # of connection points: 2
#     Edge 16, Type (0, 1), BuildingBlock: OJICUG_clean_linker_0, # of connection points: 2
#     Edge 17, Type (0, 1), BuildingBlock: OJICUG_clean_linker_0, # of connection points: 2
#     Edge 18, Type (0, 1), BuildingBlock: OJICUG_clean_linker_0, # of connection points: 2
#     Edge 19, Type (0, 1), BuildingBlock: OJICUG_clean_linker_0, # of connection points: 2
#     Edge 20, Type (0, 1), BuildingBlock: OJICUG_clean_linker_0, # of connection points: 2
#     Edge 21, Type (0, 1), BuildingBlock: OJICUG_clean_linker_0, # of connection points: 2
#     Edge 22, Type (0, 1), BuildingBlock: OJICUG_clean_linker_0, # of connection points: 2
#     Edge 23, Type (0, 1), BuildingBlock: OJICUG_clean_linker_0, # of connection points: 2
#     Edge 24, Type (0, 1), BuildingBlock: OJICUG_clean_linker_0, # of connection points: 2
#     Edge 25, Type (0, 1), BuildingBlock: OJICUG_clean_linker_0, # of connection points: 2
#     Edge 26, Type (0, 1), BuildingBlock: OJICUG_clean_linker_0, # of connection points: 2
#     Edge 27, Type (0, 1), BuildingBlock: OJICUG_clean_linker_0, # of connection points: 2
#     Edge 28, Type (0, 1), BuildingBlock: OJICUG_clean_linker_0, # of connection points: 2
#     Edge 29, Type (0, 1), BuildingBlock: OJICUG_clean_linker_0, # of connection points: 2
#     Edge 30, Type (0, 1), BuildingBlock: OJICUG_clean_linker_0, # of connection points: 2
#     Edge 31, Type (0, 1), BuildingBlock: OJICUG_clean_linker_0, # of connection points: 2
#     Edge 32, Type (0, 1), BuildingBlock: OJICUG_clean_linker_0, # of connection points: 2
#     Edge 33, Type (0, 1), BuildingBlock: OJICUG_clean_linker_0, # of connection points: 2
#     Edge 34, Type (0, 1), BuildingBlock: OJICUG_clean_linker_0, # of connection points: 2
#     Edge 35, Type (0, 1), BuildingBlock: OJICUG_clean_linker_0, # of connection points: 2
# Relax obj value: 0.351
# Max RMSD: 0.204
# Mean RMSD: 0.183
data_MOF--net-zzz--node1-KUMJIN_clean_sbu_1--node2-KAKCAD_clean_linker_0--edge1-OJICUG_clean_linker_0
_symmetry_space_group_name_H-M    P1
_symmetry_Int_Tables_number       1
_symmetry_cell_setting            triclinic
loop_
_symmetry_equiv_pos_as_xyz
'x, y, z'
_cell_length_a     44.125636
_cell_length_b     44.136141
_cell_length_c     16.394904
_cell_angle_alpha  89.863312
_cell_angle_beta   90.021585
_cell_angle_gamma 90.377842
loop_
_atom_site_label
_atom_site_type_symbol
_atom_site_fract_x
_atom_site_fract_y
_atom_site_fract_z
_atom_type_partial_charge
C0 C 0.80026 0.602 0.95771 0.0
C1 C 0.83003 0.59097 0.95881 0.0
C2 C 0.78284 0.60173 0.02914 0.0
C3 C 0.79457 0.58927 0.10197 0.0
C4 C 0.82575 0.58277 0.10476 0.0
C5 C 0.84327 0.58402 0.0345 0.0
C6 C 0.77409 0.57718 0.16753 0.0
C7 C 0.74483 0.56684 0.14776 0.0
C8 C 0.72776 0.54873 0.20141 0.0
C9 C 0.74127 0.53932 0.27621 0.0
C10 C 0.77048 0.55055 0.2985 0.0
C11 C 0.78548 0.57062 0.24556 0.0
C12 C 0.78856 0.54006 0.37075 0.0
C13 C 0.79371 0.55981 0.43667 0.0
C14 C 0.80825 0.51535 0.36173 0.0
C15 C 0.83325 0.51141 0.41421 0.0
C16 C 0.83952 0.53209 0.47784 0.0
C17 C 0.69671 0.53968 0.17208 0.0
C18 C 0.67578 0.56263 0.15331 0.0
C19 C 0.69092 0.51049 0.14135 0.0
C20 C 0.66586 0.50491 0.0896 0.0
C21 C 0.64599 0.52846 0.06608 0.0
C22 C 0.65097 0.55719 0.10142 0.0
C23 C 0.81853 0.55574 0.48979 0.0
H24 H 0.78965 0.6083 0.9006 0.0
H25 H 0.75948 0.60887 0.02509 0.0
H26 H 0.83637 0.57328 0.15835 0.0
H27 H 0.86619 0.5755 0.03847 0.0
H28 H 0.73549 0.57125 0.08788 0.0
H29 H 0.8074 0.57946 0.26386 0.0
H30 H 0.72929 0.5238 0.31624 0.0
H31 H 0.7796 0.57961 0.44408 0.0
H32 H 0.80574 0.50038 0.30987 0.0
H33 H 0.8487 0.49312 0.40117 0.0
H34 H 0.6799 0.58557 0.17418 0.0
H35 H 0.70688 0.49243 0.15282 0.0
H36 H 0.82177 0.5719 0.5386 0.0
H37 H 0.63689 0.57625 0.08516 0.0
H38 H 0.66277 0.48224 0.0659 0.0
C39 C 0.92984 0.79354 0.95812 0.0
C40 C 0.94149 0.82304 0.95105 0.0
C41 C 0.92946 0.77911 0.03412 0.0
C42 C 0.94233 0.79346 0.10292 0.0
C43 C 0.94958 0.8245 0.09708 0.0
C44 C 0.94871 0.83921 0.0221 0.0
C45 C 0.95431 0.77531 0.17281 0.0
C46 C 0.96489 0.74591 0.15925 0.0
C47 C 0.98185 0.73018 0.21759 0.0
C48 C 0.98994 0.74538 0.29151 0.0
C49 C 0.97861 0.77511 0.30747 0.0
C50 C 0.95999 0.78883 0.24861 0.0
C51 C 0.98622 0.79438 0.38085 0.0
C52 C 0.96247 0.80814 0.42437 0.0
C53 C 0.01568 0.80592 0.39326 0.0
C54 C 0.02082 0.83151 0.44354 0.0
C55 C 0.99659 0.84691 0.48204 0.0
C56 C 0.99047 0.69844 0.1935 0.0
C57 C 0.96703 0.67751 0.17664 0.0
C58 C 0.01925 0.69234 0.16086 0.0
C59 C 0.02389 0.66722 0.10893 0.0
C60 C 0.99968 0.64768 0.08589 0.0
C61 C 0.97143 0.65283 0.12375 0.0
C62 C 0.96743 0.83389 0.47311 0.0
H63 H 0.92368 0.78079 0.90415 0.0
H64 H 0.92185 0.75578 0.03692 0.0
H65 H 0.95938 0.83687 0.14754 0.0
H66 H 0.95777 0.86207 1.01853 0.0
H67 H 0.96134 0.73523 0.10058 0.0
H68 H 0.95118 0.81121 0.26064 0.0
H69 H 1.00417 0.73418 0.33598 0.0
H70 H 0.93938 0.80031 0.41554 0.0
H71 H 0.03453 0.79641 0.35989 0.0
H72 H 0.04386 0.83966 0.44975 0.0
H73 H 0.94432 0.68184 0.19867 0.0
H74 H 0.03771 0.70824 0.17056 0.0
H75 H 0.94773 0.84444 0.49957 0.0
H76 H 0.95182 0.63914 0.10873 0.0
H77 H 0.04639 0.66403 0.0845 0.0
C78 C 0.74881 0.92815 1.01843 0.0
C79 C 0.7179 0.92791 0.03861 0.0
C80 C 0.77029 0.92824 0.08085 0.0
C81 C 0.76068 0.9268 0.163 0.0
C82 C 0.7314 0.91497 0.17742 0.0
C83 C 0.70963 0.91649 0.11563 0.0
C84 C 0.77518 0.94749 0.22477 0.0
C85 C 0.80436 0.95935 0.2113 0.0
C86 C 0.81332 0.98738 0.24388 0.0
C87 C 0.79374 1.00239 0.29944 0.0
C88 C 0.76591 0.98851 0.32291 0.0
C89 C 0.7571 0.96147 0.28455 0.0
C90 C 0.74365 1.00157 0.38249 0.0
C91 C 0.73544 0.98422 0.45129 0.0
C92 C 0.72492 0.02605 0.36091 0.0
C93 C 0.69787 0.03187 0.40439 0.0
C94 C 0.68864 0.01306 0.46981 0.0
C95 C 0.84114 1.00131 0.20693 0.0
C96 C 0.86967 0.9882 0.22103 0.0
C97 C 0.83804 0.02065 0.13928 0.0
C98 C 0.86219 0.02535 0.08457 0.0
C99 C 0.89041 1.01092 0.09581 0.0
C100 C 0.89399 0.99316 0.16691 0.0
C101 C 0.7085 0.98986 0.49416 0.0
H102 H 0.75604 0.93444 0.95749 0.0
H103 H 0.79314 0.93453 0.06405 0.0
H104 H 0.72383 0.90969 0.23863 0.0
H105 H 0.68605 0.91376 0.13249 0.0
H106 H 0.81942 0.94831 0.16879 0.0
H107 H 0.73459 0.95294 0.29769 0.0
H108 H 0.80009 0.02428 0.32403 0.0
H109 H 0.74896 0.96486 0.46876 0.0
H110 H 0.73003 0.03933 0.30695 0.0
H111 H 0.68325 0.04989 0.3834 0.0
H112 H 0.87261 0.97252 0.27133 0.0
H113 H 0.81611 0.03018 0.12485 0.0
H114 H 0.70266 0.97517 0.54485 0.0
H115 H 0.91532 0.98213 0.17961 0.0
H116 H 0.85793 0.03883 0.03062 0.0
C117 C 0.50951 0.69895 0.39088 0.0
C118 C 0.5264 0.69284 0.46234 0.0
C119 C 0.51334 0.72636 0.34722 0.0
C120 C 0.53395 0.74874 0.37376 0.0
C121 C 0.54976 0.74329 0.44693 0.0
C122 C 0.54593 0.71599 0.49067 0.0
C123 C 0.54611 0.77189 0.31452 0.0
C124 C 0.53128 0.79923 0.29169 0.0
C125 C 0.54468 0.81877 0.23218 0.0
C126 C 0.57208 0.81027 0.19572 0.0
C127 C 0.58438 0.78148 0.20882 0.0
C128 C 0.57246 0.76367 0.27268 0.0
C129 C 0.60148 0.76622 0.14176 0.0
C130 C 0.59231 0.77196 0.06068 0.0
C131 C 0.61597 0.73847 0.15753 0.0
C132 C 0.6109 0.71406 0.10502 0.0
C133 C 0.59299 0.71821 0.03508 0.0
C134 C 0.52916 0.8452 0.19303 0.0
C135 C 0.5148 0.84057 0.11731 0.0
C136 C 0.53712 0.87511 0.21454 0.0
C137 C 0.53213 0.89945 0.1601 0.0
C138 C 0.51992 0.89431 0.08181 0.0
C139 C 0.51043 0.86467 0.06241 0.0
C140 C 0.58796 0.7478 1.00735 0.0
H141 H 0.49449 0.68187 0.36575 0.0
H142 H 0.50172 0.72912 0.28948 0.0
H143 H 0.56654 0.75952 0.4679 0.0
H144 H 0.55903 0.71278 0.54581 0.0
H145 H 0.50962 0.80488 0.31845 0.0
H146 H 0.58162 0.74141 0.28499 0.0
H147 H 0.58172 0.82476 0.14882 0.0
H148 H 0.58285 0.79349 0.04257 0.0
H149 H 0.62587 0.73394 0.21674 0.0
H150 H 0.61643 0.69143 0.12576 0.0
H151 H 0.50932 0.81778 0.09753 0.0
H152 H 0.5492 0.87936 0.27092 0.0
H153 H 0.57535 0.75188 0.95171 0.0
H154 H 0.50087 0.85986 1.00292 0.0
H155 H 0.53987 0.92192 0.17694 0.0
C156 C 0.24001 0.45606 0.41452 0.0
C157 C 0.20975 0.44665 0.4055 0.0
C158 C 0.2597 0.45521 0.34845 0.0
C159 C 0.24969 0.44454 0.27204 0.0
C160 C 0.22142 0.42972 0.26792 0.0
C161 C 0.20159 0.43065 0.33447 0.0
C162 C 0.26541 0.45543 0.19689 0.0
C163 C 0.29653 0.4616 0.19955 0.0
C164 C 0.30982 0.48303 0.14744 0.0
C165 C 0.29212 0.49545 0.08288 0.0
C166 C 0.26136 0.48609 0.07252 0.0
C167 C 0.24841 0.46663 0.131 0.0
C168 C 0.24053 0.49764 1.007 0.0
C169 C 0.21921 0.52022 0.02535 0.0
C170 C 0.2362 0.48085 0.93501 0.0
C171 C 0.21082 0.48578 0.88436 0.0
C172 C 0.18864 0.5075 0.90438 0.0
C173 C 0.33991 0.49503 0.17548 0.0
C174 C 0.34017 0.51854 0.23316 0.0
C175 C 0.36589 0.47677 0.16995 0.0
C176 C 0.39064 0.48089 0.22345 0.0
C177 C 0.38996 0.50297 0.28581 0.0
C178 C 0.36457 0.52236 0.28753 0.0
C179 C 0.19384 0.5252 0.97478 0.0
H180 H 0.24751 0.46816 0.46831 0.0
H181 H 0.28129 0.46666 0.35548 0.0
H182 H 0.21344 0.42007 0.2111 0.0
H183 H 0.17875 0.42198 0.32681 0.0
H184 H 0.30996 0.4524 0.2491 0.0
H185 H 0.22426 0.4621 0.12785 0.0
H186 H 0.30184 0.51244 0.04276 0.0
H187 H 0.2212 0.53284 0.0817 0.0
H188 H 0.25162 0.46268 0.92017 0.0
H189 H 0.2082 0.4719 0.83044 0.0
H190 H 0.32011 0.53223 0.24156 0.0
H191 H 0.36615 0.45786 0.12796 0.0
H192 H 0.1774 0.54186 0.99372 0.0
H193 H 0.36231 0.53936 0.33447 0.0
H194 H 0.40977 0.46585 0.21763 0.0
C195 C 0.06356 0.24279 0.43678 0.0
C196 C 0.07278 0.21252 0.43051 0.0
C197 C 0.06583 0.26206 0.37004 0.0
C198 C 0.07795 0.25175 0.29574 0.0
C199 C 0.09196 0.22322 0.29423 0.0
C200 C 0.08945 0.20373 0.36136 0.0
C201 C 0.0705 0.26833 0.21915 0.0
C202 C 0.06654 0.29968 0.22151 0.0
C203 C 0.0499 0.31499 0.16174 0.0
C204 C 0.03981 0.29843 0.09173 0.0
C205 C 0.04697 0.26697 0.08376 0.0
C206 C 0.06161 0.25243 0.14894 0.0
C207 C 0.03948 0.24731 1.01121 0.0
C208 C 0.01188 0.23109 1.00728 0.0
C209 C 0.06312 0.2378 0.95973 0.0
C210 C 0.05985 0.21226 0.90885 0.0
C211 C 0.03282 0.19495 0.90775 0.0
C212 C 0.04171 0.34709 0.18344 0.0
C213 C 0.01256 0.35358 0.21313 0.0
C214 C 0.06516 0.36774 0.20275 0.0
C215 C 0.06037 0.39225 0.25602 0.0
C216 C 0.03173 0.39747 0.29167 0.0
C217 C 1.00759 0.37844 0.26561 0.0
C218 C 1.0085 0.20552 0.95587 0.0
H219 H 0.05076 0.25065 0.48883 0.0
H220 H 0.0547 0.28376 0.37479 0.0
H221 H 0.10259 0.21498 0.23914 0.0
H222 H 0.09775 0.18079 0.3558 0.0
H223 H 0.07434 0.31212 0.27458 0.0
H224 H 0.0646 0.2281 0.14615 0.0
H225 H 0.027 0.30977 0.04447 0.0
H226 H 0.99352 0.23695 0.04803 0.0
H227 H 0.08497 0.24908 0.96263 0.0
H228 H 0.07904 0.20547 0.87226 0.0
H229 H 0.99403 0.33797 0.20139 0.0
H230 H 0.08809 0.36317 0.18288 0.0
H231 H 0.98737 0.19294 0.95783 0.0
H232 H 0.98486 0.38181 0.28836 0.0
H233 H 0.07989 0.40569 0.2734 0.0
C234 C 0.31915 0.09215 0.36397 0.0
C235 C 0.34236 0.10809 0.3236 0.0
C236 C 0.29036 0.09036 0.32887 0.0
C237 C 0.28484 0.10473 0.25379 0.0
C238 C 0.30582 0.12643 0.22542 0.0
C239 C 0.33474 0.12784 0.25975 0.0
C240 C 0.26477 0.08916 0.19447 0.0
C241 C 0.23614 0.07839 0.21705 0.0
C242 C 0.22056 0.0571 0.16887 0.0
C243 C 0.23441 0.0463 0.09582 0.0
C244 C 0.26318 0.05801 0.07108 0.0
C245 C 0.27753 0.07944 0.12093 0.0
C246 C 0.28113 0.04802 0.99794 0.0
C247 C 0.29581 0.01975 0.99718 0.0
C248 C 0.29144 0.07035 0.94265 0.0
C249 C 0.31709 0.06565 0.89364 0.0
C250 C 0.33308 0.03822 0.89683 0.0
C251 C 0.19134 0.04534 0.20333 0.0
C252 C 0.19228 0.02349 0.26571 0.0
C253 C 0.16446 0.06196 0.19345 0.0
C254 C 0.13968 0.05771 0.24676 0.0
C255 C 0.14121 0.03702 0.31255 0.0
C256 C 0.16771 0.01938 0.3193 0.0
C257 C 0.32131 0.01481 0.94664 0.0
H258 H 0.32444 0.07699 0.41402 0.0
H259 H 0.27444 0.07387 0.35321 0.0
H260 H 0.30171 0.13846 0.16884 0.0
H261 H 0.35226 0.14066 0.22848 0.0
H262 H 0.22654 0.0855 0.27479 0.0
H263 H 0.30027 0.08685 0.10501 0.0
H264 H 0.22317 0.02913 0.05949 0.0
H265 H 0.28918 1.00235 0.04043 0.0
H266 H 0.28119 0.09259 0.94264 0.0
H267 H 0.32534 0.08412 0.85592 0.0
H268 H 0.213 1.01112 0.27698 0.0
H269 H 0.16329 0.0796 0.14752 0.0
H270 H 0.33314 0.99344 0.95102 0.0
H271 H 0.17047 1.00356 0.36922 0.0
H272 H 0.1197 0.07142 0.2378 0.0
C273 C 0.47751 0.32193 0.88325 0.0
C274 C 0.50321 0.34097 0.89124 0.0
C275 C 0.47294 0.29683 0.93523 0.0
C276 C 0.49406 0.28943 0.99642 0.0
C277 C 0.5207 0.30711 1.00107 0.0
C278 C 0.52526 0.33238 0.94928 0.0
C279 C 0.48397 0.27112 0.06918 0.0
C280 C 0.49585 0.24235 0.09226 0.0
C281 C 0.48734 0.22904 0.16829 0.0
C282 C 0.4689 0.24563 0.22139 0.0
C283 C 0.45799 0.27449 0.20102 0.0
C284 C 0.46383 0.28567 0.12222 0.0
C285 C 0.44676 0.29512 0.26694 0.0
C286 C 0.43595 0.28353 0.34198 0.0
C287 C 0.45313 0.3264 0.26222 0.0
C288 C 0.45382 0.34406 0.33221 0.0
C289 C 0.44895 0.33087 0.40923 0.0
C290 C 0.49888 0.19945 0.20138 0.0
C291 C 0.48421 0.1719 0.18206 0.0
C292 C 0.51741 0.20007 0.27139 0.0
C293 C 0.5193 0.17492 0.32385 0.0
C294 C 0.50304 0.14804 0.30776 0.0
C295 C 0.48653 0.14638 0.23415 0.0
C296 C 0.4377 0.30107 0.41294 0.0
H297 H 0.46019 0.32703 0.83861 0.0
H298 H 0.4518 0.2843 0.93112 0.0
H299 H 0.53696 0.30286 0.04921 0.0
H300 H 0.54525 0.34629 0.95862 0.0
H301 H 0.5117 0.23088 0.05274 0.0
H302 H 0.45456 0.30726 0.1036 0.0
H303 H 0.46488 0.23637 0.28162 0.0
H304 H 0.42876 0.26015 0.34785 0.0
H305 H 0.46124 0.33701 0.20688 0.0
H306 H 0.46233 0.36703 0.32629 0.0
H307 H 0.46904 0.1708 0.13019 0.0
H308 H 0.52843 0.22103 0.28941 0.0
H309 H 0.43288 0.29054 0.47129 0.0
H310 H 0.47364 0.12611 0.21981 0.0
H311 H 0.53243 0.17703 0.37944 0.0
Eu312 Eu 0.98171 0.03127 0.63611 0.0
C313 C 0.10894 0.04395 0.82023 0.0
N314 N 0.09949 0.02569 0.75853 0.0
C315 C 0.14687 0.03348 0.68936 0.0
C316 C 0.1375 0.0585 0.81764 0.0
C317 C 0.11852 0.01929 0.69525 0.0
C318 C 0.15625 0.0535 0.75029 0.0
C319 C 0.10002 0.06473 0.95492 0.0
C320 C 0.09056 0.04701 0.88797 0.0
C321 C 0.12803 0.07998 0.95163 0.0
C322 C 0.14672 0.0769 0.88309 0.0
Eu323 Eu 0.05038 1.00393 0.77185 0.0
N324 N 0.0635 0.03229 0.88885 0.0
C325 C 0.08117 0.0663 0.02343 0.0
C326 C 0.0456 0.03261 0.95677 0.0
C327 C 0.05396 0.04993 0.02461 0.0
H328 H 0.11226 1.00277 0.64982 0.0
H329 H 0.03946 0.05057 0.07782 0.0
H330 H 0.92587 1.00016 0.74629 0.0
H331 H 0.01443 1.01008 0.31799 0.0
H332 H 0.0247 0.01978 0.95814 0.0
H333 H 0.08763 0.07965 0.07611 0.0
H334 H 0.01343 0.03849 0.44641 0.0
H335 H 0.16163 0.02864 0.63838 0.0
H336 H 0.13562 0.09386 1.00219 0.0
H337 H 0.1685 0.08838 0.88195 0.0
H338 H 0.88814 0.95871 0.73391 0.0
H339 H 0.17835 0.06424 0.74594 0.0
H340 H 0.98164 0.96495 0.30035 0.0
N341 N 0.94533 0.99205 0.63 0.0
C342 C 0.94355 0.97657 0.55847 0.0
C343 C 0.90375 0.96334 0.68445 0.0
C344 C 0.92243 0.95273 0.54879 0.0
C345 C 0.92521 0.98662 0.69157 0.0
C346 C 0.90253 0.94612 0.6131 0.0
N347 N 0.98318 1.00777 0.50597 0.0
C348 C 1.00031 0.0179 0.44196 0.0
C349 C 0.96246 0.96791 0.42157 0.0
C350 C 0.96345 0.98417 0.4956 0.0
C351 C 0.98171 0.97687 0.35806 0.0
C352 C 1.00036 1.00224 0.36792 0.0
H353 H 0.886 0.92796 0.608 0.0
H354 H 0.90611 0.91754 0.46765 0.0
H355 H 0.94109 0.93082 0.35633 0.0
O356 O 0.95586 0.05631 0.54493 0.0
O357 O 0.98839 0.98109 0.67177 0.0
O358 O 0.03883 0.97661 0.65848 0.0
O359 O 0.94299 0.05886 0.67153 0.0
O360 O 0.02814 0.04568 0.5847 0.0
O361 O 0.0585 1.00764 0.63442 0.0
O362 O 0.04107 0.96552 0.85103 0.0
O363 O 0.03518 0.05259 0.7971 0.0
O364 O 0.01304 0.06998 0.67824 0.0
O365 O 0.08595 0.97112 0.80072 0.0
O366 O 1.00239 0.99677 0.82424 0.0
O367 O 0.97416 0.03582 0.77195 0.0
C368 C 0.01174 0.96528 0.64696 0.0
C369 C 0.94406 0.10397 0.59836 0.0
C370 C 0.97821 0.14717 0.58369 0.0
C371 C 0.95563 0.16614 0.61533 0.0
C372 C 0.92159 0.12301 0.62943 0.0
C373 C 0.92741 0.15405 0.63773 0.0
C374 C 0.97219 0.11622 0.57574 0.0
C375 C 0.05305 0.02932 0.58106 0.0
C376 C 0.94037 0.07098 0.59956 0.0
C377 C 0.92196 0.93614 0.47586 0.0
C378 C 0.94196 0.94365 0.41256 0.0
C379 C 0.02545 0.07488 0.75047 0.0
C380 C 0.06335 0.92207 0.79586 0.0
C381 C 0.02965 0.87927 0.7665 0.0
C382 C 0.04976 0.86944 0.70591 0.0
C383 C 0.08319 0.91204 0.73465 0.0
C384 C 0.03725 0.90492 0.81281 0.0
C385 C 0.07651 0.88568 0.69064 0.0
C386 C 0.97981 0.01615 0.82997 0.0
C387 C 0.06661 0.95232 0.8338 0.0
H388 H 0.95954 0.19028 0.62116 0.0
H389 H 0.89994 0.11379 0.64884 0.0
H390 H 0.91007 0.16876 0.6619 0.0
H391 H 0.98989 0.10144 0.55358 0.0
H392 H 0.0446 0.84957 0.66969 0.0
H393 H 0.10338 0.92491 0.71927 0.0
H394 H 0.0223 0.91213 0.8614 0.0
H395 H 0.09174 0.87823 0.64313 0.0
Eu396 Eu 0.52391 0.05479 0.76328 0.0
C397 C 0.51912 0.91582 0.65307 0.0
N398 N 0.52671 0.93992 0.60531 0.0
C399 C 0.56453 0.91016 0.53763 0.0
C400 C 0.53457 0.88801 0.64584 0.0
C401 C 0.5487 0.93723 0.54693 0.0
C402 C 0.55762 0.88551 0.58772 0.0
C403 C 0.48751 0.89405 0.7596 0.0
C404 C 0.49571 0.9188 0.70914 0.0
C405 C 0.50309 0.86655 0.75309 0.0
C406 C 0.52653 0.86353 0.69635 0.0
Eu407 Eu 0.49916 0.98522 0.62782 0.0
N408 N 0.48148 0.94597 0.71593 0.0
C409 C 0.46413 0.89776 0.81614 0.0
C410 C 0.45828 0.94936 0.77013 0.0
C411 C 0.4494 0.92551 0.82118 0.0
H412 H 0.55353 0.95578 0.50571 0.0
H413 H 0.43131 0.92865 0.86484 0.0
H414 H 0.48761 0.06285 0.93991 0.0
H415 H 0.56765 0.14203 0.55541 0.0
H416 H 0.44695 0.9705 0.77626 0.0
H417 H 0.45735 0.8794 0.85631 0.0
H418 H 0.56099 0.09046 0.60949 0.0
H419 H 0.58193 0.90828 0.49141 0.0
H420 H 0.4972 0.84746 0.79176 0.0
H421 H 0.53826 0.84211 0.69184 0.0
H422 H 0.46302 0.10344 0.01999 0.0
H423 H 0.56994 0.86453 0.58033 0.0
H424 H 0.54169 0.185 0.6213 0.0
N425 N 0.5007 0.09236 0.84351 0.0
C426 C 0.50183 0.12121 0.815 0.0
C427 C 0.47372 0.10872 0.96223 0.0
C428 C 0.48841 0.1451 0.85878 0.0
C429 C 0.48752 0.08583 0.91681 0.0
C430 C 0.47393 0.13845 0.93275 0.0
N431 N 0.53164 0.10364 0.70574 0.0
C432 C 0.54997 0.10889 0.63998 0.0
C433 C 0.52097 0.15703 0.71493 0.0
C434 C 0.5179 0.12706 0.74414 0.0
C435 C 0.53882 0.16233 0.64574 0.0
C436 C 0.55362 0.13817 0.60863 0.0
H437 H 0.4634 0.15618 0.96827 0.0
H438 H 0.48028 0.19349 0.86109 0.0
H439 H 0.50876 0.20393 0.73497 0.0
O440 O 0.56505 0.03286 0.80589 0.0
O441 O 0.50003 0.06692 0.64395 0.0
O442 O 0.51081 0.02816 0.555 0.0
O443 O 0.55004 0.07591 0.86124 0.0
O444 O 0.56121 0.04119 0.67291 0.0
O445 O 0.54709 0.99995 0.59307 0.0
O446 O 0.45526 0.98456 0.56617 0.0
O447 O 0.52474 0.97674 0.74728 0.0
O448 O 0.50646 0.01309 0.83187 0.0
O449 O 0.49225 0.95905 0.51648 0.0
O450 O 0.4594 1.01228 0.68338 0.0
O451 O 0.47654 0.0387 0.79652 0.0
C452 C 0.50338 0.05656 0.56918 0.0
C453 C 0.59601 0.05346 0.91548 0.0
C454 C 0.63964 0.02696 0.97012 0.0
C455 C 0.64649 0.05229 1.01884 0.0
C456 C 0.60293 0.07855 0.96481 0.0
C457 C 0.6281 0.07789 1.01631 0.0
C458 C 0.61429 0.02764 0.91892 0.0
C459 C 0.56719 0.02022 0.61795 0.0
C460 C 0.56985 0.05404 0.86039 0.0
C461 C 0.49056 0.17485 0.82854 0.0
C462 C 0.50679 0.18079 0.75674 0.0
C463 C 0.51714 0.98569 0.82091 0.0
C464 C 0.4621 0.98549 0.42254 0.0
C465 C 0.44265 0.02784 0.342 0.0
C466 C 0.46068 0.01847 0.27596 0.0
C467 C 0.47921 0.97608 0.355 0.0
C468 C 0.44341 1.01096 0.41484 0.0
C469 C 0.4785 0.99255 0.2823 0.0
C470 C 0.45436 0.0281 0.75061 0.0
C471 C 0.46572 0.97036 0.50246 0.0
H472 H 0.66588 0.05214 0.05939 0.0
H473 H 0.58903 0.09868 0.96334 0.0
H474 H 0.6334 0.09726 0.05422 0.0
H475 H 0.60912 1.00818 0.881 0.0
H476 H 0.46101 0.03107 0.21924 0.0
H477 H 0.49366 0.95638 0.35893 0.0
H478 H 0.42927 0.0175 0.46571 0.0
H479 H 0.49205 0.98538 0.23091 0.0
Eu480 Eu 0.55102 0.50626 0.60334 0.0
C481 C 0.4231 0.49388 0.79565 0.0
N482 N 0.43247 0.5142 0.73841 0.0
C483 C 0.38264 0.51515 0.68025 0.0
C484 C 0.39288 0.48328 0.7971 0.0
C485 C 0.41274 0.52524 0.68171 0.0
C486 C 0.37267 0.49401 0.738 0.0
C487 C 0.43449 0.46339 0.91517 0.0
C488 C 0.44369 0.48394 0.85381 0.0
C489 C 0.40445 0.45269 0.91655 0.0
C490 C 0.38373 0.46255 0.85757 0.0
Eu491 Eu 0.48386 0.52912 0.74444 0.0
N492 N 0.47278 0.49421 0.85006 0.0
C493 C 0.45576 0.45424 0.97347 0.0
C494 C 0.49332 0.48621 0.90842 0.0
C495 C 0.48525 0.46586 0.97031 0.0
H496 H 0.42005 0.5422 0.63823 0.0
H497 H 0.50175 0.45923 1.01571 0.0
H498 H 0.61507 0.51886 0.71078 0.0
H499 H 0.51373 0.55763 0.3159 0.0
H500 H 0.51601 0.49526 0.90724 0.0
H501 H 0.44959 0.43847 0.0215 0.0
H502 H 0.51251 0.52087 0.42843 0.0
H503 H 0.36708 0.52385 0.63496 0.0
H504 H 0.397 0.43685 0.96313 0.0
H505 H 0.3606 0.45416 0.85961 0.0
H506 H 0.65921 0.55314 0.70783 0.0
H507 H 0.34929 0.48636 0.73696 0.0
H508 H 0.55539 0.59524 0.3073 0.0
N509 N 0.59445 0.53795 0.60562 0.0
C510 C 0.59742 0.55784 0.54253 0.0
C511 C 0.64186 0.55492 0.66141 0.0
C512 C 0.62256 0.57772 0.53795 0.0
C513 C 0.61651 0.53578 0.66363 0.0
C514 C 0.64481 0.57613 0.59862 0.0
N515 N 0.55081 0.53944 0.48923 0.0
C516 C 0.5297 0.53815 0.42853 0.0
C517 C 0.57723 0.57951 0.4177 0.0
C518 C 0.57495 0.55871 0.483 0.0
C519 C 0.5545 0.57956 0.35822 0.0
C520 C 0.53084 0.55852 0.36317 0.0
H521 H 0.66448 0.59096 0.59713 0.0
H522 H 0.64379 0.61405 0.46907 0.0
H523 H 0.6041 0.61567 0.36396 0.0
O524 O 0.55725 0.47821 0.49574 0.0
O525 O 0.54442 0.55678 0.63678 0.0
O526 O 0.49318 0.56077 0.63758 0.0
O527 O 0.59195 0.47901 0.58837 0.0
O528 O 0.50288 0.49267 0.55926 0.0
O529 O 0.47371 0.53118 0.60899 0.0
O530 O 0.49875 0.565 0.82294 0.0
O531 O 0.48875 0.47773 0.73142 0.0
O532 O 0.53854 0.46932 0.69619 0.0
O533 O 0.44985 0.55988 0.79888 0.0
O534 O 0.53159 0.53339 0.8008 0.0
O535 O 0.56378 0.50027 0.73634 0.0
C536 C 0.51985 0.57278 0.62219 0.0
C537 C 0.57907 0.43195 0.5319 0.0
C538 C 0.54685 0.38703 0.54891 0.0
C539 C 0.5725 0.3689 0.53355 0.0
C540 C 0.60413 0.41362 0.51674 0.0
C541 C 0.60091 0.38214 0.51921 0.0
C542 C 0.55112 0.41858 0.55231 0.0
C543 C 0.47823 0.5095 0.55569 0.0
C544 C 0.5813 0.46504 0.5248 0.0
C545 C 0.6247 0.59856 0.47335 0.0
C546 C 0.60208 0.59949 0.4135 0.0
C547 C 0.51249 0.4599 0.72669 0.0
C548 C 0.46688 0.60195 0.88595 0.0
C549 C 0.48935 0.64534 0.95449 0.0
C550 C 0.46106 0.6521 0.98903 0.0
C551 C 0.43855 0.60901 0.91936 0.0
C552 C 0.49196 0.62046 0.90282 0.0
C553 C 0.43571 0.63412 0.97075 0.0
C554 C 0.55681 0.51744 0.79888 0.0
C555 C 0.47139 0.57506 0.83531 0.0
H556 H 0.57068 0.34454 0.52842 0.0
H557 H 0.62596 0.4236 0.50217 0.0
H558 H 0.62025 0.36793 0.50666 0.0
H559 H 0.53236 0.43317 0.56716 0.0
H560 H 0.4586 0.67127 0.02958 0.0
H561 H 0.41887 0.59498 0.90682 0.0
H562 H 0.51397 0.61509 0.87737 0.0
H563 H 0.4139 0.63945 0.9971 0.0
Eu564 Eu 0.02464 0.55634 0.6207 0.0
C565 C 0.05215 0.43655 0.81565 0.0
N566 N 0.03152 0.44111 0.75534 0.0
C567 C 0.0434 0.39282 0.69715 0.0
C568 C 0.06975 0.40997 0.81789 0.0
C569 C 0.02655 0.41952 0.69738 0.0
C570 C 0.06522 0.38808 0.75741 0.0
C571 C 0.07747 0.45474 0.93769 0.0
C572 C 0.05597 0.45872 0.87482 0.0
C573 C 0.09512 0.42839 0.93978 0.0
C574 C 0.09126 0.40607 0.88009 0.0
Eu575 Eu 1.00404 0.4869 0.76011 0.0
N576 N 0.03899 0.48433 0.87029 0.0
C577 C 0.08062 0.47736 0.99669 0.0
C578 C 0.0409 0.50561 0.93033 0.0
C579 C 0.06202 0.50275 0.99342 0.0
H580 H 1.00908 0.42249 0.65232 0.0
H581 H 0.06364 0.51997 0.04016 0.0
H582 H 0.02142 0.62098 0.72809 0.0
H583 H 0.96289 0.52387 0.34376 0.0
H584 H 0.02579 0.52446 0.9316 0.0
H585 H 0.09693 0.47519 0.04576 0.0
H586 H 1.00095 0.51862 0.45168 0.0
H587 H 0.03939 0.37582 0.65084 0.0
H588 H 0.11179 0.42504 0.98745 0.0
H589 H 0.105 0.38584 0.88263 0.0
H590 H 0.99193 0.66819 0.73042 0.0
H591 H 0.07825 0.36735 0.7571 0.0
H592 H 0.93081 0.56952 0.33802 0.0
N593 N 0.99811 0.60266 0.62613 0.0
C594 C 0.97733 0.60757 0.56641 0.0
C595 C 0.98739 0.65122 0.68436 0.0
C596 C 0.96023 0.63447 0.56454 0.0
C597 C 1.00377 0.62422 0.68371 0.0
C598 C 0.96539 0.65631 0.62479 0.0
N599 N 0.98929 0.55948 0.51174 0.0
C600 C 0.98649 0.538 0.45247 0.0
C601 C 0.9512 0.58979 0.44512 0.0
C602 C 0.97288 0.58545 0.50737 0.0
C603 C 0.94728 0.5671 0.38659 0.0
C604 C 0.96521 0.54122 0.38992 0.0
H605 H 0.95275 0.67727 0.6254 0.0
H606 H 0.92519 0.65923 0.50063 0.0
H607 H 0.91726 0.6201 0.39619 0.0
O608 O 0.05278 0.56028 0.51231 0.0
O609 O 0.97418 0.55041 0.65229 0.0
O610 O 0.96941 0.49901 0.66199 0.0
O611 O 0.05535 0.59508 0.60426 0.0
O612 O 0.03589 0.50881 0.56976 0.0
O613 O 0.99989 0.47688 0.6245 0.0
O614 O 0.97465 0.48299 0.86619 0.0
O615 O 0.05439 0.49254 0.7275 0.0
O616 O 0.05964 0.5439 0.71805 0.0
O617 O 0.97446 0.4473 0.77648 0.0
O618 O 0.99309 0.53463 0.8113 0.0
O619 O 0.02922 0.56625 0.75589 0.0
C620 C 0.95772 0.52559 0.64506 0.0
C621 C 0.10137 0.57638 0.55362 0.0
C622 C 0.14286 0.54002 0.55463 0.0
C623 C 0.16203 0.56234 0.58803 0.0
C624 C 0.12087 0.59852 0.58598 0.0
C625 C 0.151 0.59139 0.6037 0.0
C626 C 0.11251 0.54712 0.53946 0.0
C627 C 0.01969 0.48349 0.567 0.0
C628 C 0.06881 0.58247 0.54265 0.0
C629 C 0.93857 0.63875 0.50288 0.0
C630 C 0.93406 0.61647 0.44337 0.0
C631 C 0.07108 0.51718 0.735 0.0
C632 C 0.92756 0.4626 0.82853 0.0
C633 C 0.88418 0.49617 0.80917 0.0
C634 C 0.86486 0.47079 0.82006 0.0
C635 C 0.90805 0.43786 0.83921 0.0
C636 C 0.9156 0.49115 0.80933 0.0
C637 C 0.87679 0.4419 0.83341 0.0
C638 C 1.00954 0.55985 0.81371 0.0
C639 C 0.96044 0.45922 0.83807 0.0
H640 H 0.18572 0.55769 0.59946 0.0
H641 H 0.11266 0.62109 0.59888 0.0
H642 H 0.16593 0.60853 0.62889 0.0
H643 H 0.09756 0.52954 0.51649 0.0
H644 H 0.84051 0.47309 0.82245 0.0
H645 H 0.91696 0.41558 0.85269 0.0
H646 H 0.93113 0.50967 0.79787 0.0
H647 H 0.86166 0.42278 0.84248 0.0
C648 C 0.09932 0.06043 0.40025 0.0
C649 C 0.11645 0.03489 0.37659 0.0
H650 H 0.06594 0.07891 0.48222 0.0
C651 C 0.11077 1.00746 0.41829 0.0
H652 H 0.10292 0.08213 0.37084 0.0
C653 C 0.09002 1.00588 0.48304 0.0
C654 C 0.0737 0.03153 0.50836 0.0
H655 H 0.1225 0.98697 0.40136 0.0
H656 H 0.08683 0.98432 0.51365 0.0
C657 C 0.07814 0.05871 0.4648 0.0
C658 C 0.50765 0.0929 0.35504 0.0
C659 C 0.50117 0.12351 0.37189 0.0
H660 H 0.51389 0.04784 0.40326 0.0
C661 C 0.49321 0.13105 0.45239 0.0
H662 H 0.51356 0.08614 0.29365 0.0
C663 C 0.49255 0.10909 0.51448 0.0
C664 C 0.50084 0.07882 0.49938 0.0
H665 H 0.48748 0.15419 0.46762 0.0
H666 H 0.48625 0.11621 0.57526 0.0
C667 C 0.5078 0.07091 0.41807 0.0
C668 C 0.43092 0.47889 0.37635 0.0
C669 C 0.4143 0.5047 0.35155 0.0
H670 H 0.46403 0.46001 0.45858 0.0
C671 C 0.42025 0.53202 0.39344 0.0
H672 H 0.4271 0.45718 0.34752 0.0
C673 C 0.4408 0.53324 0.45885 0.0
C674 C 0.45688 0.50742 0.48428 0.0
H675 H 0.40907 0.55278 0.37598 0.0
H676 H 0.44429 0.55475 0.48926 0.0
C677 C 0.45207 0.48033 0.44101 0.0
C678 C 1.00506 0.41722 0.41971 0.0
C679 C 0.02774 0.42082 0.35952 0.0
H680 H 0.98419 0.43389 0.5286 0.0
C681 C 0.04734 0.44619 0.36795 0.0
H682 H 0.9896 0.39812 0.41803 0.0
C683 C 0.04486 0.46639 0.43444 0.0
C684 C 0.02247 0.4623 0.49485 0.0
H685 H 0.06477 0.45072 0.32312 0.0
H686 H 0.06063 0.48524 0.43848 0.0
C687 C 1.00228 0.43766 0.48511 0.0
C688 C 0.91808 0.03877 0.98124 0.0
C689 C 0.91501 0.01292 0.03137 0.0
H690 H 0.94045 0.06002 0.87995 0.0
C691 C 0.93482 0.98847 1.01637 0.0
H692 H 0.90404 0.05844 0.99099 0.0
C693 C 0.95635 0.98965 0.95285 0.0
C694 C 0.95857 0.01516 0.90151 0.0
H695 H 0.93316 0.96786 0.05203 0.0
H696 H 0.97066 0.97019 0.94254 0.0
C697 C 0.93927 0.03978 0.91732 0.0
C698 C 0.53344 0.91323 0.94116 0.0
C699 C 0.5199 0.91869 1.01735 0.0
H700 H 0.54454 0.93012 0.82235 0.0
C701 C 0.50677 0.94731 0.03039 0.0
H702 H 0.54426 0.89173 0.92923 0.0
C703 C 0.50618 0.96933 0.96762 0.0
C704 C 0.51921 0.9635 0.89067 0.0
H705 H 0.49628 0.95238 0.08845 0.0
H706 H 0.49509 0.99072 0.97902 0.0
C707 C 0.53353 0.93537 0.87954 0.0
C708 C 0.6257 0.50309 0.93689 0.0
C709 C 0.62174 0.52395 1.00111 0.0
H710 H 0.60868 0.48419 0.82535 0.0
C711 C 0.5951 0.54161 0.99953 0.0
H712 H 0.64577 0.48919 0.93403 0.0
C713 C 0.57398 0.53927 0.93516 0.0
C714 C 0.5785 0.51901 0.87005 0.0
H715 H 0.59042 0.55749 0.04801 0.0
H716 H 0.55422 0.55368 0.93614 0.0
C717 C 0.60442 0.5005 0.87316 0.0
C718 C 0.98308 0.59862 1.01208 0.0
C719 C 1.00312 0.62376 1.01906 0.0
H720 H 0.96887 0.55942 0.94328 0.0
C721 C 0.02571 0.62654 0.95838 0.0
H722 H 0.96573 0.59457 0.05739 0.0
C723 C 0.02799 0.60561 0.89401 0.0
C724 C 1.00729 0.58132 0.88544 0.0
H725 H 0.04153 0.64534 0.95876 0.0
H726 H 0.04612 0.60876 0.85029 0.0
C727 C 0.98499 0.57799 0.94635 0.0
C728 C 0.04808 0.19665 0.56204 0.0
C729 C 0.05696 0.18962 0.48177 0.0
H730 H 0.0155 0.18903 0.65717 0.0
C731 C 0.04336 0.16464 0.44289 0.0
H732 H 0.05862 0.21529 0.5945 0.0
C733 C 0.01882 0.14983 0.47851 0.0
C734 C 1.00744 0.15948 0.55403 0.0
H735 H 0.04931 0.1585 0.38106 0.0
H736 H 1.00727 0.13243 0.44362 0.0
C737 C 0.02322 0.18192 0.59755 0.0
C738 C 0.38219 0.07876 0.2554 0.0
C739 C 0.37285 0.0947 0.32493 0.0
H740 H 0.41066 0.04459 0.20676 0.0
C741 C 0.3893 0.09174 0.39757 0.0
H742 H 0.36933 0.08006 0.19914 0.0
C743 C 0.41382 0.07183 0.40149 0.0
C744 C 0.42141 0.05371 0.33374 0.0
H745 H 0.38226 0.10362 0.45203 0.0
H746 H 0.42583 0.06957 0.45876 0.0
C747 C 0.40598 0.05831 0.25986 0.0
C748 C 0.48504 0.32831 0.52553 0.0
C749 C 0.46386 0.34523 0.48067 0.0
H750 H 0.52762 0.32857 0.58738 0.0
C751 C 0.46521 0.37692 0.48541 0.0
H752 H 0.48426 0.30378 0.52544 0.0
C753 C 0.49103 0.3911 0.51645 0.0
C754 C 0.51545 0.3738 0.54663 0.0
H755 H 0.44856 0.39063 0.454 0.0
H756 H 0.49282 0.41525 0.50699 0.0
C757 C 0.51051 0.34258 0.55918 0.0
C758 C 0.19248 0.47065 0.53663 0.0
C759 C 0.18631 0.46193 0.45561 0.0
H760 H 0.18358 0.50261 0.63209 0.0
C761 C 0.16154 0.47513 0.41533 0.0
H762 H 0.21091 0.46042 0.57025 0.0
C763 C 0.14616 0.49919 0.45037 0.0
C764 C 0.15492 0.51051 0.52693 0.0
H765 H 0.15602 0.46938 0.35288 0.0
H766 H 0.12918 0.51056 0.41394 0.0
C767 C 0.17707 0.49497 0.57178 0.0
C768 C 0.95209 0.86446 0.85233 0.0
C769 C 0.95486 0.83386 0.87382 0.0
H770 H 0.97398 0.90308 0.80027 0.0
C771 C 0.97831 0.81671 0.83916 0.0
H772 H 0.93412 0.87807 0.87799 0.0
C773 C 1.00147 0.83107 0.79544 0.0
C774 C 1.00122 0.86265 0.78561 0.0
H775 H 0.98102 0.79304 0.8551 0.0
H776 H 0.02109 0.81799 0.77788 0.0
C777 C 0.97516 0.87878 0.80858 0.0
C778 C 0.66592 0.94618 0.9986 0.0
C779 C 0.69757 0.9502 0.9986 0.0
H780 H 0.62253 0.96766 0.98984 0.0
C781 C 0.70954 0.97897 0.97815 0.0
H782 H 0.65597 0.9244 1.01383 0.0
C783 C 0.69055 1.00353 0.96566 0.0
C784 C 0.65915 0.99998 0.97235 0.0
H785 H 0.7337 0.9834 0.9786 0.0
H786 H 0.70051 0.02565 0.95419 0.0
C787 C 0.64683 0.97091 0.98523 0.0
C788 C 0.55161 0.68304 0.07502 0.0
C789 C 0.57024 0.69498 1.01286 0.0
H790 H 0.51094 0.65872 0.10491 0.0
C791 C 0.56233 0.68995 0.93109 0.0
H792 H 0.55658 0.68735 0.1387 0.0
C793 C 0.53594 0.67379 0.912 0.0
C794 C 0.51683 0.66296 0.9744 0.0
H795 H 0.57593 0.69948 0.88225 0.0
H796 H 0.53002 0.67042 0.84851 0.0
C797 C 0.52508 0.66734 0.05594 0.0
C798 C 0.82715 0.55836 0.83564 0.0
C799 C 0.84428 0.57828 0.8844 0.0
H800 H 0.8268 0.51716 0.76786 0.0
C801 C 0.87596 0.57692 0.87973 0.0
H802 H 0.80263 0.55934 0.83509 0.0
C803 C 0.88976 0.55157 0.84589 0.0
C804 C 0.87201 0.52783 0.81265 0.0
H805 H 0.88987 0.59281 0.91373 0.0
H806 H 0.91384 0.54947 0.85581 0.0
C807 C 0.84104 0.53349 0.79897 0.0
C808 C 1.00435 0.15508 0.82211 0.0
C809 C 0.03105 0.165 0.86197 0.0
H810 H 0.98169 0.11941 0.75531 0.0
C811 C 0.05615 0.1453 0.86021 0.0
H812 H 0.98451 0.16937 0.82117 0.0
C813 C 0.05447 0.11676 0.82206 0.0
C814 C 0.02778 0.1067 0.78344 0.0
H815 H 0.07708 0.15153 0.89053 0.0
H816 H 0.07426 0.10249 0.82285 0.0
C817 C 1.00282 0.12649 0.78313 0.0
C818 C 0.37017 1.01238 0.79995 0.0
C819 C 0.36351 0.03567 0.85567 0.0
H820 H 0.40311 0.99249 0.71962 0.0
C821 C 0.38643 0.05708 0.87255 0.0
H822 H 0.353 0.99568 0.78479 0.0
C823 C 0.41533 0.0548 0.83714 0.0
C824 C 0.42239 0.03135 0.78232 0.0
H825 H 0.38218 0.0754 0.9148 0.0
H826 H 0.43219 0.07167 0.8527 0.0
C827 C 0.39899 1.01061 0.7625 0.0
C828 C 0.53406 0.38263 0.81902 0.0
C829 C 0.50578 0.37058 0.84395 0.0
H830 H 0.55846 0.4195 0.76243 0.0
C831 C 0.47978 0.38786 0.82585 0.0
H832 H 0.55468 0.37016 0.83033 0.0
C833 C 0.48197 0.4161 0.78607 0.0
C834 C 0.51023 0.4285 0.76327 0.0
H835 H 0.45754 0.38002 0.84445 0.0
H836 H 0.46131 0.42841 0.77407 0.0
C837 C 0.53623 0.41101 0.77925 0.0
C838 C 0.14532 0.48484 0.82024 0.0
C839 C 0.15953 0.51044 0.85545 0.0
H840 H 0.10725 0.46684 0.75401 0.0
C841 C 0.14488 0.53859 0.84597 0.0
H842 H 0.15534 0.46263 0.82629 0.0
C843 C 0.11683 0.54088 0.80511 0.0
C844 C 0.10224 0.5151 0.7725 0.0
H845 H 0.15502 0.55903 0.87044 0.0
H846 H 0.10625 0.5629 0.80074 0.0
C847 C 0.11732 0.48717 0.7793 0.0
C848 C 0.02605 0.89632 0.51023 0.0
C849 C 1.00111 0.87696 0.52704 0.0
H850 H 0.04905 0.9385 0.53456 0.0
C851 C 0.97986 0.88748 0.58512 0.0
H852 H 0.04284 0.89017 0.46535 0.0
C853 C 0.98303 0.91605 0.62266 0.0
C854 C 1.00796 0.93499 0.6059 0.0
H855 H 0.96065 0.87368 0.60291 0.0
H856 H 0.96603 0.92316 0.66598 0.0
C857 C 0.02957 0.92453 0.54961 0.0
C858 C 0.64045 0.98942 0.52575 0.0
C859 C 0.65764 0.01569 0.50851 0.0
H860 H 0.59965 0.97033 0.57463 0.0
C861 C 0.64472 0.0439 0.52843 0.0
H862 H 0.64926 0.96724 0.51122 0.0
C863 C 0.61572 0.04561 0.56491 0.0
C864 C 0.5984 0.01923 0.58053 0.0
H865 H 0.65723 0.06466 0.51692 0.0
H866 H 0.60683 0.06766 0.57991 0.0
C867 C 0.61149 0.99119 0.56093 0.0
C868 C 0.55036 0.64926 0.54266 0.0
C869 C 0.52465 0.66222 0.50495 0.0
H870 H 0.56909 0.61178 0.60963 0.0
C871 C 0.49743 0.64527 0.50751 0.0
H872 H 0.57197 0.66099 0.54144 0.0
C873 C 0.49599 0.61666 0.54583 0.0
C874 C 0.52171 0.60371 0.58289 0.0
H875 H 0.47696 0.65422 0.48053 0.0
H876 H 0.47457 0.60454 0.54574 0.0
C877 C 0.54887 0.62064 0.58114 0.0
C878 C 0.88336 0.55651 0.55682 0.0
C879 C 0.86867 0.53018 0.52716 0.0
H880 H 0.92181 0.57579 0.61872 0.0
C881 C 0.88302 0.50219 0.54205 0.0
H882 H 0.87368 0.57866 0.54665 0.0
C883 C 0.91131 0.50072 0.58177 0.0
C884 C 0.92638 0.52714 0.60857 0.0
H885 H 0.87253 0.48119 0.52261 0.0
H886 H 0.92165 0.47873 0.59007 0.0
C887 C 0.91148 0.55496 0.5974 0.0
loop_
_geom_bond_atom_site_label_1
_geom_bond_atom_site_label_2
_geom_bond_distance
_geom_bond_site_symmetry_2
_ccdc_geom_bond_type
C0 C1 1.386 . S
C0 C2 1.397 . S
C0 H24 0.931 . S
C1 C0 1.386 . S
C1 C5 1.397 . S
C2 C0 1.397 . S
C2 C3 1.384 . S
C2 H25 0.930 . S
C3 C2 1.384 . S
C3 C4 1.377 . S
C3 C6 1.481 . S
C4 C3 1.377 . S
C4 C5 1.389 . S
C4 H26 0.929 . S
C5 C1 1.397 . S
C5 C4 1.389 . S
C5 H27 0.931 . S
C6 C3 1.481 . S
C6 C7 1.387 . S
C6 C11 1.390 . S
C7 C6 1.387 . S
C7 C8 1.401 . S
C7 H28 0.930 . S
C8 C7 1.401 . S
C8 C9 1.376 . S
C8 C17 1.511 . S
C9 C8 1.376 . S
C9 C10 1.392 . S
C9 H30 0.931 . S
C10 C9 1.392 . S
C10 C11 1.361 . S
C10 C12 1.500 . S
C11 C6 1.390 . S
C11 C10 1.361 . S
C11 H29 0.931 . S
C12 C10 1.500 . S
C12 C13 1.371 . S
C12 C14 1.365 . S
C13 C12 1.371 . S
C13 C23 1.386 . S
C13 H31 0.931 . S
C14 C12 1.365 . S
C14 C15 1.409 . S
C14 H32 0.929 . S
C15 C14 1.409 . S
C15 C16 1.380 . S
C15 H33 0.930 . S
C16 C15 1.380 . S
C16 C23 1.357 . S
C17 C8 1.511 . S
C17 C18 1.341 . S
C17 C19 1.371 . S
C18 C17 1.341 . S
C18 C22 1.394 . S
C18 H34 0.930 . S
C19 C17 1.371 . S
C19 C20 1.392 . S
C19 H35 0.931 . S
C20 C19 1.392 . S
C20 C21 1.331 . S
C20 H38 0.932 . S
C21 C20 1.331 . S
C21 C22 1.336 . S
C22 C18 1.394 . S
C22 C21 1.336 . S
C22 H37 0.929 . S
C23 C13 1.386 . S
C23 C16 1.357 . S
C23 H36 0.928 . S
H24 C0 0.931 . S
H25 C2 0.930 . S
H26 C4 0.929 . S
H27 C5 0.931 . S
H28 C7 0.930 . S
H29 C11 0.931 . S
H30 C9 0.931 . S
H31 C13 0.931 . S
H32 C14 0.929 . S
H33 C15 0.930 . S
H34 C18 0.930 . S
H35 C19 0.931 . S
H36 C23 0.928 . S
H37 C22 0.929 . S
H38 C20 0.932 . S
C39 C40 1.386 . S
C39 C41 1.397 . S
C39 H63 0.931 . S
C40 C39 1.386 . S
C40 C44 1.397 . S
C41 C39 1.397 . S
C41 C42 1.384 . S
C41 H64 0.930 . S
C42 C41 1.384 . S
C42 C43 1.377 . S
C42 C45 1.481 . S
C43 C42 1.377 . S
C43 C44 1.389 . S
C43 H65 0.929 1_655 S
C44 C40 1.397 . S
C44 C43 1.389 . S
C44 H66 0.931 1_655 S
C45 C42 1.481 . S
C45 C46 1.387 . S
C45 C50 1.390 . S
C46 C45 1.387 . S
C46 C47 1.401 . S
C46 H67 0.930 . S
C47 C46 1.401 . S
C47 C48 1.376 . S
C47 C56 1.511 . S
C48 C47 1.376 . S
C48 C49 1.392 . S
C48 H69 0.931 . S
C49 C48 1.392 . S
C49 C50 1.361 . S
C49 C51 1.500 . S
C50 C45 1.390 . S
C50 C49 1.361 . S
C50 H68 0.931 . S
C51 C49 1.500 . S
C51 C52 1.371 . S
C51 C53 1.365 . S
C52 C51 1.371 . S
C52 C62 1.386 . S
C52 H70 0.931 . S
C53 C51 1.365 . S
C53 C54 1.409 . S
C53 H71 0.929 . S
C54 C53 1.409 . S
C54 C55 1.380 . S
C54 H72 0.930 . S
C55 C54 1.380 . S
C55 C62 1.357 . S
C56 C47 1.511 . S
C56 C57 1.341 . S
C56 C58 1.371 . S
C57 C56 1.341 . S
C57 C61 1.394 . S
C57 H73 0.930 . S
C58 C56 1.371 . S
C58 C59 1.392 . S
C58 H74 0.931 . S
C59 C58 1.392 . S
C59 C60 1.331 . S
C59 H77 0.932 . S
C60 C59 1.331 . S
C60 C61 1.336 . S
C61 C57 1.394 . S
C61 C60 1.336 . S
C61 H76 0.929 . S
C62 C52 1.386 . S
C62 C55 1.357 . S
C62 H75 0.928 . S
H63 C39 0.931 . S
H64 C41 0.930 . S
H65 C43 0.929 1_455 S
H66 C44 0.931 1_455 S
H67 C46 0.930 . S
H68 C50 0.931 . S
H69 C48 0.931 . S
H70 C52 0.931 . S
H71 C53 0.929 . S
H72 C54 0.930 . S
H73 C57 0.930 . S
H74 C58 0.931 . S
H75 C62 0.928 . S
H76 C61 0.929 . S
H77 C59 0.932 . S
C78 C79 1.386 . S
C78 C80 1.397 . S
C78 H102 0.931 . S
C79 C78 1.386 . S
C79 C83 1.397 . S
C80 C78 1.397 . S
C80 C81 1.384 . S
C80 H103 0.930 . S
C81 C80 1.384 . S
C81 C82 1.377 . S
C81 C84 1.481 . S
C82 C81 1.377 . S
C82 C83 1.389 . S
C82 H104 0.929 1_565 S
C83 C79 1.397 . S
C83 C82 1.389 . S
C83 H105 0.931 1_565 S
C84 C81 1.481 . S
C84 C85 1.387 . S
C84 C89 1.390 . S
C85 C84 1.387 . S
C85 C86 1.401 . S
C85 H106 0.930 . S
C86 C85 1.401 . S
C86 C87 1.376 . S
C86 C95 1.511 . S
C87 C86 1.376 . S
C87 C88 1.392 . S
C87 H108 0.931 . S
C88 C87 1.392 . S
C88 C89 1.361 . S
C88 C90 1.500 . S
C89 C84 1.390 . S
C89 C88 1.361 . S
C89 H107 0.931 . S
C90 C88 1.500 . S
C90 C91 1.371 . S
C90 C92 1.365 . S
C91 C90 1.371 . S
C91 C101 1.386 . S
C91 H109 0.931 . S
C92 C90 1.365 . S
C92 C93 1.409 . S
C92 H110 0.929 . S
C93 C92 1.409 . S
C93 C94 1.380 . S
C93 H111 0.930 . S
C94 C93 1.380 . S
C94 C101 1.357 . S
C95 C86 1.511 . S
C95 C96 1.341 . S
C95 C97 1.371 . S
C96 C95 1.341 . S
C96 C100 1.394 . S
C96 H112 0.930 . S
C97 C95 1.371 . S
C97 C98 1.392 . S
C97 H113 0.931 . S
C98 C97 1.392 . S
C98 C99 1.331 . S
C98 H116 0.932 . S
C99 C98 1.331 . S
C99 C100 1.336 . S
C100 C96 1.394 . S
C100 C99 1.336 . S
C100 H115 0.929 . S
C101 C91 1.386 . S
C101 C94 1.357 . S
C101 H114 0.928 . S
H102 C78 0.931 . S
H103 C80 0.930 . S
H104 C82 0.929 1_545 S
H105 C83 0.931 1_545 S
H106 C85 0.930 . S
H107 C89 0.931 . S
H108 C87 0.931 . S
H109 C91 0.931 . S
H110 C92 0.929 . S
H111 C93 0.930 . S
H112 C96 0.930 . S
H113 C97 0.931 . S
H114 C101 0.928 . S
H115 C100 0.929 . S
H116 C98 0.932 . S
C117 C118 1.386 . S
C117 C119 1.397 . S
C117 H141 0.931 . S
C118 C117 1.386 . S
C118 C122 1.397 . S
C119 C117 1.397 . S
C119 C120 1.384 . S
C119 H142 0.930 . S
C120 C119 1.384 . S
C120 C121 1.377 . S
C120 C123 1.481 . S
C121 C120 1.377 . S
C121 C122 1.389 . S
C121 H143 0.929 . S
C122 C118 1.397 . S
C122 C121 1.389 . S
C122 H144 0.931 . S
C123 C120 1.481 . S
C123 C124 1.387 . S
C123 C128 1.390 . S
C124 C123 1.387 . S
C124 C125 1.401 . S
C124 H145 0.930 . S
C125 C124 1.401 . S
C125 C126 1.376 . S
C125 C134 1.511 . S
C126 C125 1.376 . S
C126 C127 1.392 . S
C126 H147 0.931 . S
C127 C126 1.392 . S
C127 C128 1.361 . S
C127 C129 1.500 . S
C128 C123 1.390 . S
C128 C127 1.361 . S
C128 H146 0.931 . S
C129 C127 1.500 . S
C129 C130 1.371 . S
C129 C131 1.365 . S
C130 C129 1.371 . S
C130 C140 1.386 . S
C130 H148 0.931 . S
C131 C129 1.365 . S
C131 C132 1.409 . S
C131 H149 0.929 . S
C132 C131 1.409 . S
C132 C133 1.380 . S
C132 H150 0.930 . S
C133 C132 1.380 . S
C133 C140 1.357 . S
C134 C125 1.511 . S
C134 C135 1.341 . S
C134 C136 1.371 . S
C135 C134 1.341 . S
C135 C139 1.394 . S
C135 H151 0.930 . S
C136 C134 1.371 . S
C136 C137 1.392 . S
C136 H152 0.931 . S
C137 C136 1.392 . S
C137 C138 1.331 . S
C137 H155 0.932 . S
C138 C137 1.331 . S
C138 C139 1.336 . S
C139 C135 1.394 . S
C139 C138 1.336 . S
C139 H154 0.929 . S
C140 C130 1.386 . S
C140 C133 1.357 . S
C140 H153 0.928 . S
H141 C117 0.931 . S
H142 C119 0.930 . S
H143 C121 0.929 . S
H144 C122 0.931 . S
H145 C124 0.930 . S
H146 C128 0.931 . S
H147 C126 0.931 . S
H148 C130 0.931 . S
H149 C131 0.929 . S
H150 C132 0.930 . S
H151 C135 0.930 . S
H152 C136 0.931 . S
H153 C140 0.928 . S
H154 C139 0.929 . S
H155 C137 0.932 . S
C156 C157 1.386 . S
C156 C158 1.397 . S
C156 H180 0.931 . S
C157 C156 1.386 . S
C157 C161 1.397 . S
C158 C156 1.397 . S
C158 C159 1.384 . S
C158 H181 0.930 . S
C159 C158 1.384 . S
C159 C160 1.377 . S
C159 C162 1.481 . S
C160 C159 1.377 . S
C160 C161 1.389 . S
C160 H182 0.929 . S
C161 C157 1.397 . S
C161 C160 1.389 . S
C161 H183 0.931 . S
C162 C159 1.481 . S
C162 C163 1.387 . S
C162 C167 1.390 . S
C163 C162 1.387 . S
C163 C164 1.401 . S
C163 H184 0.930 . S
C164 C163 1.401 . S
C164 C165 1.376 1_554 S
C164 C173 1.511 . S
C165 C164 1.376 1_556 S
C165 C166 1.392 . S
C165 H186 0.931 . S
C166 C165 1.392 . S
C166 C167 1.361 1_556 S
C166 C168 1.500 . S
C167 C162 1.390 . S
C167 C166 1.361 1_554 S
C167 H185 0.931 . S
C168 C166 1.500 . S
C168 C169 1.371 . S
C168 C170 1.365 . S
C169 C168 1.371 . S
C169 C179 1.386 . S
C169 H187 0.931 . S
C170 C168 1.365 . S
C170 C171 1.409 . S
C170 H188 0.929 . S
C171 C170 1.409 . S
C171 C172 1.380 . S
C171 H189 0.930 . S
C172 C171 1.380 . S
C172 C179 1.357 . S
C173 C164 1.511 . S
C173 C174 1.341 . S
C173 C175 1.371 . S
C174 C173 1.341 . S
C174 C178 1.394 . S
C174 H190 0.930 . S
C175 C173 1.371 . S
C175 C176 1.392 . S
C175 H191 0.931 1_554 S
C176 C175 1.392 . S
C176 C177 1.331 . S
C176 H194 0.932 . S
C177 C176 1.331 . S
C177 C178 1.336 . S
C178 C174 1.394 . S
C178 C177 1.336 . S
C178 H193 0.929 . S
C179 C169 1.386 . S
C179 C172 1.357 . S
C179 H192 0.928 . S
H180 C156 0.931 . S
H181 C158 0.930 . S
H182 C160 0.929 . S
H183 C161 0.931 . S
H184 C163 0.930 . S
H185 C167 0.931 . S
H186 C165 0.931 . S
H187 C169 0.931 . S
H188 C170 0.929 . S
H189 C171 0.930 . S
H190 C174 0.930 . S
H191 C175 0.931 1_556 S
H192 C179 0.928 . S
H193 C178 0.929 . S
H194 C176 0.932 . S
C195 C196 1.386 . S
C195 C197 1.397 . S
C195 H219 0.931 . S
C196 C195 1.386 . S
C196 C200 1.397 . S
C197 C195 1.397 . S
C197 C198 1.384 . S
C197 H220 0.930 . S
C198 C197 1.384 . S
C198 C199 1.377 . S
C198 C201 1.481 . S
C199 C198 1.377 . S
C199 C200 1.389 . S
C199 H221 0.929 . S
C200 C196 1.397 . S
C200 C199 1.389 . S
C200 H222 0.931 . S
C201 C198 1.481 . S
C201 C202 1.387 . S
C201 C206 1.390 . S
C202 C201 1.387 . S
C202 C203 1.401 . S
C202 H223 0.930 . S
C203 C202 1.401 . S
C203 C204 1.376 1_554 S
C203 C212 1.511 . S
C204 C203 1.376 1_556 S
C204 C205 1.392 . S
C204 H225 0.931 . S
C205 C204 1.392 . S
C205 C206 1.361 1_556 S
C205 C207 1.500 . S
C206 C201 1.390 . S
C206 C205 1.361 1_554 S
C206 H224 0.931 . S
C207 C205 1.500 . S
C207 C208 1.371 . S
C207 C209 1.365 . S
C208 C207 1.371 . S
C208 C218 1.386 . S
C208 H226 0.931 . S
C209 C207 1.365 . S
C209 C210 1.409 . S
C209 H227 0.929 . S
C210 C209 1.409 . S
C210 C211 1.380 . S
C210 H228 0.930 . S
C211 C210 1.380 . S
C211 C218 1.357 . S
C212 C203 1.511 . S
C212 C213 1.341 . S
C212 C214 1.371 . S
C213 C212 1.341 . S
C213 C217 1.394 . S
C213 H229 0.930 . S
C214 C212 1.371 . S
C214 C215 1.392 . S
C214 H230 0.931 1_554 S
C215 C214 1.392 . S
C215 C216 1.331 . S
C215 H233 0.932 . S
C216 C215 1.331 . S
C216 C217 1.336 . S
C217 C213 1.394 . S
C217 C216 1.336 . S
C217 H232 0.929 . S
C218 C208 1.386 . S
C218 C211 1.357 . S
C218 H231 0.928 . S
H219 C195 0.931 . S
H220 C197 0.930 . S
H221 C199 0.929 . S
H222 C200 0.931 . S
H223 C202 0.930 . S
H224 C206 0.931 . S
H225 C204 0.931 . S
H226 C208 0.931 . S
H227 C209 0.929 . S
H228 C210 0.930 . S
H229 C213 0.930 . S
H230 C214 0.931 1_556 S
H231 C218 0.928 . S
H232 C217 0.929 . S
H233 C215 0.932 . S
C234 C235 1.386 . S
C234 C236 1.397 . S
C234 H258 0.931 . S
C235 C234 1.386 . S
C235 C239 1.397 . S
C236 C234 1.397 . S
C236 C237 1.384 . S
C236 H259 0.930 . S
C237 C236 1.384 . S
C237 C238 1.377 . S
C237 C240 1.481 . S
C238 C237 1.377 . S
C238 C239 1.389 . S
C238 H260 0.929 . S
C239 C235 1.397 . S
C239 C238 1.389 . S
C239 H261 0.931 . S
C240 C237 1.481 . S
C240 C241 1.387 . S
C240 C245 1.390 . S
C241 C240 1.387 . S
C241 C242 1.401 . S
C241 H262 0.930 . S
C242 C241 1.401 . S
C242 C243 1.376 1_554 S
C242 C251 1.511 . S
C243 C242 1.376 1_556 S
C243 C244 1.392 . S
C243 H264 0.931 . S
C244 C243 1.392 . S
C244 C245 1.361 1_556 S
C244 C246 1.500 . S
C245 C240 1.390 . S
C245 C244 1.361 1_554 S
C245 H263 0.931 . S
C246 C244 1.500 . S
C246 C247 1.371 . S
C246 C248 1.365 . S
C247 C246 1.371 . S
C247 C257 1.386 . S
C247 H265 0.931 . S
C248 C246 1.365 . S
C248 C249 1.409 . S
C248 H266 0.929 . S
C249 C248 1.409 . S
C249 C250 1.380 . S
C249 H267 0.930 . S
C250 C249 1.380 . S
C250 C257 1.357 . S
C251 C242 1.511 . S
C251 C252 1.341 . S
C251 C253 1.371 . S
C252 C251 1.341 . S
C252 C256 1.394 . S
C252 H268 0.930 . S
C253 C251 1.371 . S
C253 C254 1.392 . S
C253 H269 0.931 1_554 S
C254 C253 1.392 . S
C254 C255 1.331 . S
C254 H272 0.932 . S
C255 C254 1.331 . S
C255 C256 1.336 . S
C256 C252 1.394 . S
C256 C255 1.336 . S
C256 H271 0.929 . S
C257 C247 1.386 . S
C257 C250 1.357 . S
C257 H270 0.928 . S
H258 C234 0.931 . S
H259 C236 0.930 . S
H260 C238 0.929 . S
H261 C239 0.931 . S
H262 C241 0.930 . S
H263 C245 0.931 . S
H264 C243 0.931 . S
H265 C247 0.931 . S
H266 C248 0.929 . S
H267 C249 0.930 . S
H268 C252 0.930 . S
H269 C253 0.931 1_556 S
H270 C257 0.928 . S
H271 C256 0.929 . S
H272 C254 0.932 . S
C273 C274 1.386 . S
C273 C275 1.397 . S
C273 H297 0.931 . S
C274 C273 1.386 . S
C274 C278 1.397 . S
C275 C273 1.397 . S
C275 C276 1.384 . S
C275 H298 0.930 . S
C276 C275 1.384 . S
C276 C277 1.377 . S
C276 C279 1.481 . S
C277 C276 1.377 . S
C277 C278 1.389 . S
C277 H299 0.929 . S
C278 C274 1.397 . S
C278 C277 1.389 . S
C278 H300 0.931 . S
C279 C276 1.481 . S
C279 C280 1.387 . S
C279 C284 1.390 1_556 S
C280 C279 1.387 . S
C280 C281 1.401 1_556 S
C280 H301 0.930 . S
C281 C280 1.401 1_554 S
C281 C282 1.376 . S
C281 C290 1.511 . S
C282 C281 1.376 . S
C282 C283 1.392 . S
C282 H303 0.931 . S
C283 C282 1.392 . S
C283 C284 1.361 . S
C283 C285 1.500 . S
C284 C279 1.390 1_554 S
C284 C283 1.361 . S
C284 H302 0.931 . S
C285 C283 1.500 . S
C285 C286 1.371 . S
C285 C287 1.365 . S
C286 C285 1.371 . S
C286 C296 1.386 . S
C286 H304 0.931 . S
C287 C285 1.365 . S
C287 C288 1.409 . S
C287 H305 0.929 . S
C288 C287 1.409 . S
C288 C289 1.380 . S
C288 H306 0.930 . S
C289 C288 1.380 . S
C289 C296 1.357 . S
C290 C281 1.511 . S
C290 C291 1.341 . S
C290 C292 1.371 . S
C291 C290 1.341 . S
C291 C295 1.394 . S
C291 H307 0.930 1_554 S
C292 C290 1.371 . S
C292 C293 1.392 . S
C292 H308 0.931 . S
C293 C292 1.392 . S
C293 C294 1.331 . S
C293 H311 0.932 . S
C294 C293 1.331 . S
C294 C295 1.336 . S
C295 C291 1.394 . S
C295 C294 1.336 . S
C295 H310 0.929 . S
C296 C286 1.386 . S
C296 C289 1.357 . S
C296 H309 0.928 . S
H297 C273 0.931 . S
H298 C275 0.930 . S
H299 C277 0.929 . S
H300 C278 0.931 . S
H301 C280 0.930 . S
H302 C284 0.931 . S
H303 C282 0.931 . S
H304 C286 0.931 . S
H305 C287 0.929 . S
H306 C288 0.930 . S
H307 C291 0.930 1_556 S
H308 C292 0.931 . S
H309 C296 0.928 . S
H310 C295 0.929 . S
H311 C293 0.932 . S
Eu312 N341 2.600 . S
Eu312 N347 2.562 . S
Eu312 O356 2.462 . S
Eu312 O357 2.373 1_545 S
Eu312 O359 2.432 . S
Eu312 O360 2.291 1_655 S
Eu312 O364 2.335 1_655 S
Eu312 O367 2.372 . S
Eu312 C376 2.787 . S
C313 N314 1.383 . S
C313 C316 1.405 . S
C313 C320 1.448 . S
N314 C313 1.383 . S
N314 C317 1.315 1_545 S
N314 Eu323 2.591 1_545 S
C315 C317 1.397 1_545 S
C315 C318 1.367 . S
C315 H335 0.931 . S
C316 C313 1.405 . S
C316 C318 1.403 . S
C316 C322 1.439 . S
C317 N314 1.315 1_565 S
C317 C315 1.397 1_565 S
C317 H328 0.930 . S
C318 C315 1.367 . S
C318 C316 1.403 . S
C318 H339 0.929 . S
C319 C320 1.430 . S
C319 C321 1.387 1_556 S
C319 C325 1.404 1_556 S
C320 C313 1.448 . S
C320 C319 1.430 . S
C320 N324 1.351 . S
C321 C319 1.387 1_554 S
C321 C322 1.374 1_554 S
C321 H336 0.931 . S
C322 C316 1.439 . S
C322 C321 1.374 1_556 S
C322 H337 0.931 . S
Eu323 N314 2.591 1_565 S
Eu323 N324 2.562 1_565 S
Eu323 O358 2.335 . S
Eu323 O361 2.372 . S
Eu323 O362 2.462 . S
Eu323 O363 2.373 1_565 S
Eu323 O365 2.432 . S
Eu323 O366 2.288 1_465 S
Eu323 C387 2.787 . S
N324 C320 1.351 . S
N324 Eu323 2.562 1_545 S
N324 C326 1.325 . S
C325 C319 1.404 1_554 S
C325 C327 1.366 . S
C325 H333 0.930 . S
C326 N324 1.325 . S
C326 C327 1.416 1_556 S
C326 H332 0.929 . S
C327 C325 1.366 . S
C327 C326 1.416 1_554 S
C327 H329 0.930 . S
H328 C317 0.930 . S
H329 C327 0.930 . S
H330 C345 0.930 . S
H331 C352 0.930 1_455 S
H332 C326 0.929 . S
H333 C325 0.930 . S
H334 C348 0.929 1_455 S
H335 C315 0.931 . S
H336 C321 0.931 . S
H337 C322 0.931 . S
H338 C343 0.931 . S
H339 C318 0.929 . S
H340 C351 0.930 . S
N341 Eu312 2.600 . S
N341 C342 1.357 1_545 S
N341 C345 1.319 . S
C342 N341 1.357 1_565 S
C342 C344 1.412 . S
C342 C350 1.449 . S
C343 H338 0.931 . S
C343 C345 1.397 . S
C343 C346 1.367 1_545 S
C344 C342 1.412 . S
C344 C346 1.403 . S
C344 C377 1.439 . S
C345 H330 0.930 . S
C345 N341 1.319 . S
C345 C343 1.397 . S
C346 C343 1.367 1_565 S
C346 C344 1.403 . S
C346 H353 0.929 . S
N347 Eu312 2.562 . S
N347 C348 1.325 . S
N347 C350 1.351 1_545 S
C348 H334 0.929 1_655 S
C348 N347 1.325 . S
C348 C352 1.416 1_545 S
C349 C350 1.430 . S
C349 C351 1.404 . S
C349 C378 1.387 . S
C350 C342 1.449 . S
C350 N347 1.351 1_565 S
C350 C349 1.430 . S
C351 H340 0.930 . S
C351 C349 1.404 . S
C351 C352 1.366 . S
C352 H331 0.930 1_655 S
C352 C348 1.416 1_565 S
C352 C351 1.366 . S
H353 C346 0.929 . S
H354 C377 0.931 . S
H355 C378 0.931 . S
O356 Eu312 2.462 . S
O356 C376 1.252 . S
O357 Eu312 2.373 1_565 S
O357 C368 1.249 . S
O358 Eu323 2.335 . S
O358 C368 1.264 1_455 S
O359 Eu312 2.432 . S
O359 C376 1.268 . S
O360 Eu312 2.291 1_455 S
O360 C375 1.255 . S
O361 Eu323 2.372 . S
O361 C375 1.257 1_565 S
O362 Eu323 2.462 . S
O362 C387 1.252 . S
O363 Eu323 2.373 1_545 S
O363 C379 1.249 . S
O364 Eu312 2.335 1_455 S
O364 C379 1.264 . S
O365 Eu323 2.432 . S
O365 C387 1.268 . S
O366 Eu323 2.288 1_645 S
O366 C386 1.258 . S
O367 Eu312 2.372 . S
O367 C386 1.257 . S
C368 O357 1.249 . S
C368 O358 1.264 1_655 S
C369 C372 1.382 . S
C369 C374 1.390 . S
C369 C376 1.506 . S
C370 C371 1.398 . S
C370 C374 1.392 . S
C371 C370 1.398 . S
C371 C373 1.372 . S
C371 H388 0.931 . S
C372 C369 1.382 . S
C372 C373 1.390 . S
C372 H389 0.931 . S
C373 C371 1.372 . S
C373 C372 1.390 . S
C373 H390 0.929 . S
C374 C369 1.390 . S
C374 C370 1.392 . S
C374 H391 0.930 1_655 S
C375 O360 1.255 . S
C375 O361 1.257 1_545 S
C376 Eu312 2.787 . S
C376 O356 1.252 . S
C376 O359 1.268 . S
C376 C369 1.506 . S
C377 C344 1.439 . S
C377 H354 0.931 . S
C377 C378 1.374 . S
C378 C349 1.387 . S
C378 H355 0.931 . S
C378 C377 1.374 . S
C379 O363 1.249 . S
C379 O364 1.264 . S
C380 C383 1.382 . S
C380 C384 1.390 . S
C380 C387 1.506 . S
C381 C382 1.398 . S
C381 C384 1.392 . S
C382 C381 1.398 . S
C382 C385 1.372 . S
C382 H392 0.931 . S
C383 C380 1.382 . S
C383 C385 1.390 . S
C383 H393 0.931 . S
C384 C380 1.390 . S
C384 C381 1.392 . S
C384 H394 0.930 . S
C385 C382 1.372 . S
C385 C383 1.390 . S
C385 H395 0.929 . S
C386 O366 1.258 . S
C386 O367 1.257 . S
C387 Eu323 2.787 . S
C387 O362 1.252 . S
C387 O365 1.268 . S
C387 C380 1.506 . S
H388 C371 0.931 . S
H389 C372 0.931 . S
H390 C373 0.929 . S
H391 C374 0.930 1_455 S
H392 C382 0.931 . S
H393 C383 0.931 . S
H394 C384 0.930 . S
H395 C385 0.929 . S
Eu396 N425 2.600 . S
Eu396 N431 2.562 . S
Eu396 O440 2.462 . S
Eu396 O441 2.373 . S
Eu396 O443 2.432 . S
Eu396 O444 2.291 . S
Eu396 O448 2.335 1_545 S
Eu396 O451 2.372 . S
Eu396 C460 2.787 . S
C397 N398 1.365 . S
C397 C400 1.405 . S
C397 C404 1.448 . S
N398 C397 1.365 . S
N398 C401 1.319 . S
N398 Eu407 2.600 . S
C399 C401 1.397 . S
C399 C402 1.367 . S
C399 H419 0.931 . S
C400 C397 1.405 . S
C400 C402 1.403 . S
C400 C406 1.439 . S
C401 N398 1.319 . S
C401 C399 1.397 . S
C401 H412 0.930 . S
C402 C399 1.367 . S
C402 C400 1.403 . S
C402 H423 0.929 . S
C403 C404 1.430 . S
C403 C405 1.387 . S
C403 C409 1.404 . S
C404 C397 1.448 . S
C404 C403 1.430 . S
C404 N408 1.351 . S
C405 C403 1.387 . S
C405 C406 1.374 . S
C405 H420 0.931 . S
C406 C400 1.439 . S
C406 C405 1.374 . S
C406 H421 0.931 . S
Eu407 N398 2.600 . S
Eu407 N408 2.562 . S
Eu407 O442 2.335 1_565 S
Eu407 O445 2.372 . S
Eu407 O446 2.462 . S
Eu407 O447 2.373 . S
Eu407 O449 2.432 . S
Eu407 O450 2.274 1_565 S
Eu407 C471 2.787 . S
N408 C404 1.351 . S
N408 Eu407 2.562 . S
N408 C410 1.325 . S
C409 C403 1.404 . S
C409 C411 1.366 . S
C409 H417 0.930 . S
C410 N408 1.325 . S
C410 C411 1.416 . S
C410 H416 0.929 . S
C411 C409 1.366 . S
C411 C410 1.416 . S
C411 H413 0.930 . S
H412 C401 0.930 . S
H413 C411 0.930 . S
H414 C429 0.930 . S
H415 C436 0.930 . S
H416 C410 0.929 . S
H417 C409 0.930 . S
H418 C432 0.929 . S
H419 C399 0.931 . S
H420 C405 0.931 . S
H421 C406 0.931 . S
H422 C427 0.931 . S
H423 C402 0.929 . S
H424 C435 0.930 . S
N425 Eu396 2.600 . S
N425 C426 1.365 . S
N425 C429 1.319 . S
C426 N425 1.365 . S
C426 C428 1.405 . S
C426 C434 1.448 . S
C427 H422 0.931 . S
C427 C429 1.397 . S
C427 C430 1.367 . S
C428 C426 1.405 . S
C428 C430 1.403 . S
C428 C461 1.439 . S
C429 H414 0.930 . S
C429 N425 1.319 . S
C429 C427 1.397 . S
C430 C427 1.367 . S
C430 C428 1.403 . S
C430 H437 0.929 . S
N431 Eu396 2.562 . S
N431 C432 1.325 . S
N431 C434 1.351 . S
C432 H418 0.929 . S
C432 N431 1.325 . S
C432 C436 1.416 . S
C433 C434 1.430 . S
C433 C435 1.404 . S
C433 C462 1.387 . S
C434 C426 1.448 . S
C434 N431 1.351 . S
C434 C433 1.430 . S
C435 H424 0.930 . S
C435 C433 1.404 . S
C435 C436 1.366 . S
C436 H415 0.930 . S
C436 C432 1.416 . S
C436 C435 1.366 . S
H437 C430 0.929 . S
H438 C461 0.931 . S
H439 C462 0.931 . S
O440 Eu396 2.462 . S
O440 C460 1.252 . S
O441 Eu396 2.373 . S
O441 C452 1.249 . S
O442 Eu407 2.335 1_545 S
O442 C452 1.264 . S
O443 Eu396 2.432 . S
O443 C460 1.268 . S
O444 Eu396 2.291 . S
O444 C459 1.255 1_545 S
O445 Eu407 2.372 . S
O445 C459 1.257 . S
O446 Eu407 2.462 . S
O446 C471 1.252 . S
O447 Eu407 2.373 . S
O447 C463 1.249 . S
O448 Eu396 2.335 1_565 S
O448 C463 1.264 . S
O449 Eu407 2.432 . S
O449 C471 1.268 . S
O450 Eu407 2.274 1_545 S
O450 C470 1.280 . S
O451 Eu396 2.372 . S
O451 C470 1.257 . S
C452 O441 1.249 . S
C452 O442 1.264 . S
C453 C456 1.382 1_556 S
C453 C458 1.390 . S
C453 C460 1.506 . S
C454 C455 1.398 1_556 S
C454 C458 1.392 . S
C455 C454 1.398 1_554 S
C455 C457 1.372 . S
C455 H472 0.931 . S
C456 C453 1.382 1_554 S
C456 C457 1.390 . S
C456 H473 0.931 . S
C457 C455 1.372 . S
C457 C456 1.390 . S
C457 H474 0.929 . S
C458 C453 1.390 . S
C458 C454 1.392 . S
C458 H475 0.930 . S
C459 O444 1.255 1_565 S
C459 O445 1.257 . S
C460 Eu396 2.787 . S
C460 O440 1.252 . S
C460 O443 1.268 . S
C460 C453 1.506 . S
C461 C428 1.439 . S
C461 H438 0.931 . S
C461 C462 1.374 . S
C462 C433 1.387 . S
C462 H439 0.931 . S
C462 C461 1.374 . S
C463 O447 1.249 . S
C463 O448 1.264 . S
C464 C467 1.382 . S
C464 C468 1.390 . S
C464 C471 1.506 . S
C465 C466 1.398 . S
C465 C468 1.392 . S
C466 C465 1.398 . S
C466 C469 1.372 . S
C466 H476 0.931 . S
C467 C464 1.382 . S
C467 C469 1.390 . S
C467 H477 0.931 . S
C468 C464 1.390 . S
C468 C465 1.392 . S
C468 H478 0.935 . S
C469 C466 1.372 . S
C469 C467 1.390 . S
C469 H479 0.929 . S
C470 O450 1.280 . S
C470 O451 1.257 . S
C471 Eu407 2.787 . S
C471 O446 1.252 . S
C471 O449 1.268 . S
C471 C464 1.506 . S
H472 C455 0.931 . S
H473 C456 0.931 . S
H474 C457 0.929 . S
H475 C458 0.930 . S
H476 C466 0.931 . S
H477 C467 0.931 . S
H478 C468 0.935 . S
H479 C469 0.929 . S
Eu480 N509 2.600 . S
Eu480 N515 2.562 . S
Eu480 O524 2.462 . S
Eu480 O525 2.373 . S
Eu480 O527 2.432 . S
Eu480 O528 2.291 . S
Eu480 O532 2.335 . S
Eu480 O535 2.372 . S
Eu480 C544 2.787 . S
C481 N482 1.365 . S
C481 C484 1.405 . S
C481 C488 1.448 . S
N482 C481 1.365 . S
N482 C485 1.319 . S
N482 Eu491 2.600 . S
C483 C485 1.397 . S
C483 C486 1.367 . S
C483 H503 0.931 . S
C484 C481 1.405 . S
C484 C486 1.403 . S
C484 C490 1.439 . S
C485 N482 1.319 . S
C485 C483 1.397 . S
C485 H496 0.930 . S
C486 C483 1.367 . S
C486 C484 1.403 . S
C486 H507 0.929 . S
C487 C488 1.430 . S
C487 C489 1.387 1_556 S
C487 C493 1.404 1_556 S
C488 C481 1.448 . S
C488 C487 1.430 . S
C488 N492 1.351 . S
C489 C487 1.387 1_554 S
C489 C490 1.374 1_554 S
C489 H504 0.931 . S
C490 C484 1.439 . S
C490 C489 1.374 1_556 S
C490 H505 0.931 . S
Eu491 N482 2.600 . S
Eu491 N492 2.562 . S
Eu491 O526 2.335 . S
Eu491 O529 2.372 . S
Eu491 O530 2.462 . S
Eu491 O531 2.373 . S
Eu491 O533 2.432 . S
Eu491 O534 2.291 . S
Eu491 C555 2.787 . S
N492 C488 1.351 . S
N492 Eu491 2.562 . S
N492 C494 1.325 . S
C493 C487 1.404 1_554 S
C493 C495 1.366 . S
C493 H501 0.930 . S
C494 N492 1.325 . S
C494 C495 1.416 1_556 S
C494 H500 0.929 . S
C495 C493 1.366 . S
C495 C494 1.416 1_554 S
C495 H497 0.930 . S
H496 C485 0.930 . S
H497 C495 0.930 . S
H498 C513 0.930 . S
H499 C520 0.930 . S
H500 C494 0.929 . S
H501 C493 0.930 . S
H502 C516 0.929 . S
H503 C483 0.931 . S
H504 C489 0.931 . S
H505 C490 0.931 . S
H506 C511 0.931 . S
H507 C486 0.929 . S
H508 C519 0.930 . S
N509 Eu480 2.600 . S
N509 C510 1.365 . S
N509 C513 1.319 . S
C510 N509 1.365 . S
C510 C512 1.405 . S
C510 C518 1.448 . S
C511 H506 0.931 . S
C511 C513 1.397 . S
C511 C514 1.367 . S
C512 C510 1.405 . S
C512 C514 1.403 . S
C512 C545 1.439 . S
C513 H498 0.930 . S
C513 N509 1.319 . S
C513 C511 1.397 . S
C514 C511 1.367 . S
C514 C512 1.403 . S
C514 H521 0.929 . S
N515 Eu480 2.562 . S
N515 C516 1.325 . S
N515 C518 1.351 . S
C516 H502 0.929 . S
C516 N515 1.325 . S
C516 C520 1.416 . S
C517 C518 1.430 . S
C517 C519 1.404 . S
C517 C546 1.387 . S
C518 C510 1.448 . S
C518 N515 1.351 . S
C518 C517 1.430 . S
C519 H508 0.930 . S
C519 C517 1.404 . S
C519 C520 1.366 . S
C520 H499 0.930 . S
C520 C516 1.416 . S
C520 C519 1.366 . S
H521 C514 0.929 . S
H522 C545 0.931 . S
H523 C546 0.931 . S
O524 Eu480 2.462 . S
O524 C544 1.252 . S
O525 Eu480 2.373 . S
O525 C536 1.249 . S
O526 Eu491 2.335 . S
O526 C536 1.264 . S
O527 Eu480 2.432 . S
O527 C544 1.268 . S
O528 Eu480 2.291 . S
O528 C543 1.255 . S
O529 Eu491 2.372 . S
O529 C543 1.257 . S
O530 Eu491 2.462 . S
O530 C555 1.252 . S
O531 Eu491 2.373 . S
O531 C547 1.249 . S
O532 Eu480 2.335 . S
O532 C547 1.264 . S
O533 Eu491 2.432 . S
O533 C555 1.268 . S
O534 Eu491 2.291 . S
O534 C554 1.255 . S
O535 Eu480 2.372 . S
O535 C554 1.257 . S
C536 O525 1.249 . S
C536 O526 1.264 . S
C537 C540 1.382 . S
C537 C542 1.390 . S
C537 C544 1.506 . S
C538 C539 1.398 . S
C538 C542 1.392 . S
C539 C538 1.398 . S
C539 C541 1.372 . S
C539 H556 0.931 . S
C540 C537 1.382 . S
C540 C541 1.390 . S
C540 H557 0.931 . S
C541 C539 1.372 . S
C541 C540 1.390 . S
C541 H558 0.929 . S
C542 C537 1.390 . S
C542 C538 1.392 . S
C542 H559 0.930 . S
C543 O528 1.255 . S
C543 O529 1.257 . S
C544 Eu480 2.787 . S
C544 O524 1.252 . S
C544 O527 1.268 . S
C544 C537 1.506 . S
C545 C512 1.439 . S
C545 H522 0.931 . S
C545 C546 1.374 . S
C546 C517 1.387 . S
C546 H523 0.931 . S
C546 C545 1.374 . S
C547 O531 1.249 . S
C547 O532 1.264 . S
C548 C551 1.382 . S
C548 C552 1.390 . S
C548 C555 1.506 . S
C549 C550 1.398 . S
C549 C552 1.392 . S
C550 C549 1.398 . S
C550 C553 1.372 . S
C550 H560 0.931 . S
C551 C548 1.382 . S
C551 C553 1.390 . S
C551 H561 0.931 . S
C552 C548 1.390 . S
C552 C549 1.392 . S
C552 H562 0.930 . S
C553 C550 1.372 . S
C553 C551 1.390 . S
C553 H563 0.929 . S
C554 O534 1.255 . S
C554 O535 1.257 . S
C555 Eu491 2.787 . S
C555 O530 1.252 . S
C555 O533 1.268 . S
C555 C548 1.506 . S
H556 C539 0.931 . S
H557 C540 0.931 . S
H558 C541 0.929 . S
H559 C542 0.930 . S
H560 C550 0.931 . S
H561 C551 0.931 . S
H562 C552 0.930 . S
H563 C553 0.929 . S
Eu564 N593 2.600 . S
Eu564 N599 2.562 . S
Eu564 O608 2.462 . S
Eu564 O609 2.373 1_455 S
Eu564 O611 2.432 . S
Eu564 O612 2.291 . S
Eu564 O616 2.335 . S
Eu564 O619 2.372 . S
Eu564 C628 2.787 . S
C565 N566 1.365 1_455 S
C565 C568 1.405 . S
C565 C572 1.448 . S
N566 C565 1.365 1_655 S
N566 C569 1.319 . S
N566 Eu575 2.600 . S
C567 C569 1.397 1_455 S
C567 C570 1.367 . S
C567 H587 0.931 . S
C568 C565 1.405 . S
C568 C570 1.403 . S
C568 C574 1.439 . S
C569 N566 1.319 . S
C569 C567 1.397 1_655 S
C569 H580 0.930 . S
C570 C567 1.367 . S
C570 C568 1.403 . S
C570 H591 0.929 . S
C571 C572 1.430 . S
C571 C573 1.387 1_556 S
C571 C577 1.404 1_556 S
C572 C565 1.448 . S
C572 C571 1.430 . S
C572 N576 1.351 . S
C573 C571 1.387 1_554 S
C573 C574 1.374 1_554 S
C573 H588 0.931 . S
C574 C568 1.439 . S
C574 C573 1.374 1_556 S
C574 H589 0.931 . S
Eu575 N566 2.600 . S
Eu575 N576 2.562 1_655 S
Eu575 O610 2.335 . S
Eu575 O613 2.372 . S
Eu575 O614 2.462 . S
Eu575 O615 2.373 1_655 S
Eu575 O617 2.432 . S
Eu575 O618 2.291 . S
Eu575 C639 2.787 . S
N576 C572 1.351 . S
N576 Eu575 2.562 1_455 S
N576 C578 1.325 . S
C577 C571 1.404 1_554 S
C577 C579 1.366 . S
C577 H585 0.930 . S
C578 N576 1.325 . S
C578 C579 1.416 1_556 S
C578 H584 0.928 . S
C579 C577 1.366 . S
C579 C578 1.416 1_554 S
C579 H581 0.930 . S
H580 C569 0.930 . S
H581 C579 0.930 . S
H582 C597 0.930 . S
H583 C604 0.930 . S
H584 C578 0.928 . S
H585 C577 0.930 . S
H586 C600 0.929 . S
H587 C567 0.931 . S
H588 C573 0.931 . S
H589 C574 0.931 . S
H590 C595 0.931 . S
H591 C570 0.929 . S
H592 C603 0.930 . S
N593 Eu564 2.600 . S
N593 C594 1.348 1_455 S
N593 C597 1.319 . S
C594 N593 1.348 1_655 S
C594 C596 1.419 . S
C594 C602 1.452 . S
C595 H590 0.931 . S
C595 C597 1.397 . S
C595 C598 1.367 1_455 S
C596 C594 1.419 . S
C596 C598 1.403 . S
C596 C629 1.439 . S
C597 H582 0.930 . S
C597 N593 1.319 . S
C597 C595 1.397 . S
C598 C595 1.367 1_655 S
C598 C596 1.403 . S
C598 H605 0.929 . S
N599 Eu564 2.562 . S
N599 C600 1.325 . S
N599 C602 1.351 1_455 S
C600 H586 0.929 . S
C600 N599 1.325 . S
C600 C604 1.416 1_455 S
C601 C602 1.430 . S
C601 C603 1.404 . S
C601 C630 1.387 . S
C602 C594 1.452 . S
C602 N599 1.351 1_655 S
C602 C601 1.430 . S
C603 H592 0.930 . S
C603 C601 1.404 . S
C603 C604 1.366 . S
C604 H583 0.930 . S
C604 C600 1.416 1_655 S
C604 C603 1.366 . S
H605 C598 0.929 . S
H606 C629 0.931 . S
H607 C630 0.931 . S
O608 Eu564 2.462 . S
O608 C628 1.252 . S
O609 Eu564 2.373 1_655 S
O609 C620 1.249 . S
O610 Eu575 2.335 . S
O610 C620 1.264 . S
O611 Eu564 2.432 . S
O611 C628 1.268 . S
O612 Eu564 2.291 . S
O612 C627 1.255 . S
O613 Eu575 2.372 . S
O613 C627 1.257 1_655 S
O614 Eu575 2.462 . S
O614 C639 1.252 . S
O615 Eu575 2.373 1_455 S
O615 C631 1.249 . S
O616 Eu564 2.335 . S
O616 C631 1.264 . S
O617 Eu575 2.432 . S
O617 C639 1.268 . S
O618 Eu575 2.291 . S
O618 C638 1.255 1_655 S
O619 Eu564 2.372 . S
O619 C638 1.257 . S
C620 O609 1.249 . S
C620 O610 1.264 . S
C621 C624 1.382 . S
C621 C626 1.390 . S
C621 C628 1.506 . S
C622 C623 1.398 . S
C622 C626 1.392 . S
C623 C622 1.398 . S
C623 C625 1.372 . S
C623 H640 0.931 . S
C624 C621 1.382 . S
C624 C625 1.390 . S
C624 H641 0.931 . S
C625 C623 1.372 . S
C625 C624 1.390 . S
C625 H642 0.929 . S
C626 C621 1.390 . S
C626 C622 1.392 . S
C626 H643 0.930 . S
C627 O612 1.255 . S
C627 O613 1.257 1_455 S
C628 Eu564 2.787 . S
C628 O608 1.252 . S
C628 O611 1.268 . S
C628 C621 1.506 . S
C629 C596 1.439 . S
C629 H606 0.931 . S
C629 C630 1.374 . S
C630 C601 1.387 . S
C630 H607 0.931 . S
C630 C629 1.374 . S
C631 O615 1.249 . S
C631 O616 1.264 . S
C632 C635 1.382 . S
C632 C636 1.390 . S
C632 C639 1.506 . S
C633 C634 1.398 . S
C633 C636 1.392 . S
C634 C633 1.398 . S
C634 C637 1.372 . S
C634 H644 0.931 . S
C635 C632 1.382 . S
C635 C637 1.390 . S
C635 H645 0.931 . S
C636 C632 1.390 . S
C636 C633 1.392 . S
C636 H646 0.930 . S
C637 C634 1.372 . S
C637 C635 1.390 . S
C637 H647 0.929 . S
C638 O618 1.255 1_455 S
C638 O619 1.257 . S
C639 Eu575 2.787 . S
C639 O614 1.252 . S
C639 O617 1.268 . S
C639 C632 1.506 . S
H640 C623 0.931 . S
H641 C624 0.931 . S
H642 C625 0.929 . S
H643 C626 0.930 . S
H644 C634 0.931 . S
H645 C635 0.931 . S
H646 C636 0.930 . S
H647 C637 0.929 . S
C648 C649 1.387 . S
C648 H652 0.950 . S
C648 C657 1.390 . S
C649 C648 1.387 . S
C649 C651 1.387 . S
H650 C657 0.950 . S
C651 C649 1.387 . S
C651 C653 1.390 . S
C651 H655 0.950 1_545 S
H652 C648 0.950 . S
C653 C651 1.390 . S
C653 C654 1.387 . S
C653 H656 0.950 1_545 S
C654 C653 1.387 . S
C654 C657 1.387 . S
H655 C651 0.950 1_565 S
H656 C653 0.950 1_565 S
C657 C648 1.390 . S
C657 H650 0.950 . S
C657 C654 1.387 . S
C658 C659 1.387 . S
C658 H662 0.950 . S
C658 C667 1.390 . S
C659 C658 1.387 . S
C659 C661 1.387 . S
H660 C667 0.950 . S
C661 C659 1.387 . S
C661 C663 1.390 . S
C661 H665 0.950 . S
H662 C658 0.950 . S
C663 C661 1.390 . S
C663 C664 1.387 . S
C663 H666 0.950 . S
C664 C663 1.387 . S
C664 C667 1.387 . S
H665 C661 0.950 . S
H666 C663 0.950 . S
C667 C658 1.390 . S
C667 H660 0.950 . S
C667 C664 1.387 . S
C668 C669 1.387 . S
C668 H672 0.950 . S
C668 C677 1.390 . S
C669 C668 1.387 . S
C669 C671 1.387 . S
H670 C677 0.950 . S
C671 C669 1.387 . S
C671 C673 1.390 . S
C671 H675 0.950 . S
H672 C668 0.950 . S
C673 C671 1.390 . S
C673 C674 1.387 . S
C673 H676 0.950 . S
C674 C673 1.387 . S
C674 C677 1.387 . S
H675 C671 0.950 . S
H676 C673 0.950 . S
C677 C668 1.390 . S
C677 H670 0.950 . S
C677 C674 1.387 . S
C678 C679 1.387 . S
C678 H682 0.950 . S
C678 C687 1.390 . S
C679 C678 1.387 . S
C679 C681 1.387 . S
H680 C687 0.950 . S
C681 C679 1.387 . S
C681 C683 1.390 . S
C681 H685 0.950 . S
H682 C678 0.950 . S
C683 C681 1.390 . S
C683 C684 1.387 . S
C683 H686 0.950 . S
C684 C683 1.387 . S
C684 C687 1.387 . S
H685 C681 0.950 . S
H686 C683 0.950 . S
C687 C678 1.390 . S
C687 H680 0.950 . S
C687 C684 1.387 . S
C688 C689 1.387 1_545 S
C688 H692 0.950 . S
C688 C697 1.390 1_554 S
C689 C688 1.387 1_565 S
C689 C691 1.387 . S
H690 C697 0.950 . S
C691 C689 1.387 . S
C691 C693 1.390 1_554 S
C691 H695 0.950 . S
H692 C688 0.950 . S
C693 C691 1.390 1_556 S
C693 C694 1.387 . S
C693 H696 0.950 . S
C694 C693 1.387 . S
C694 C697 1.387 1_565 S
H695 C691 0.950 . S
H696 C693 0.950 . S
C697 C688 1.390 1_556 S
C697 H690 0.950 . S
C697 C694 1.387 1_545 S
C698 C699 1.387 . S
C698 H702 0.950 . S
C698 C707 1.390 1_554 S
C699 C698 1.387 . S
C699 C701 1.387 . S
H700 C707 0.950 . S
C701 C699 1.387 . S
C701 C703 1.390 1_554 S
C701 H705 0.950 . S
H702 C698 0.950 . S
C703 C701 1.390 1_556 S
C703 C704 1.387 . S
C703 H706 0.950 . S
C704 C703 1.387 . S
C704 C707 1.387 . S
H705 C701 0.950 . S
H706 C703 0.950 . S
C707 C698 1.390 1_556 S
C707 H700 0.950 . S
C707 C704 1.387 . S
C708 C709 1.387 . S
C708 H712 0.950 . S
C708 C717 1.390 1_554 S
C709 C708 1.387 . S
C709 C711 1.387 . S
H710 C717 0.950 . S
C711 C709 1.387 . S
C711 C713 1.390 1_554 S
C711 H715 0.950 . S
H712 C708 0.950 . S
C713 C711 1.390 1_556 S
C713 C714 1.387 . S
C713 H716 0.950 . S
C714 C713 1.387 . S
C714 C717 1.387 . S
H715 C711 0.950 . S
H716 C713 0.950 . S
C717 C708 1.390 1_556 S
C717 H710 0.950 . S
C717 C714 1.387 . S
C718 C719 1.387 . S
C718 H722 0.950 . S
C718 C727 1.390 1_554 S
C719 C718 1.387 . S
C719 C721 1.387 . S
H720 C727 0.950 . S
C721 C719 1.387 . S
C721 C723 1.390 1_554 S
C721 H725 0.950 . S
H722 C718 0.950 . S
C723 C721 1.390 1_556 S
C723 C724 1.387 . S
C723 H726 0.950 . S
C724 C723 1.387 . S
C724 C727 1.387 . S
H725 C721 0.950 . S
H726 C723 0.950 . S
C727 C718 1.390 1_556 S
C727 H720 0.950 . S
C727 C724 1.387 . S
C728 C729 1.387 . S
C728 H732 0.950 . S
C728 C737 1.390 1_455 S
C729 C728 1.387 . S
C729 C731 1.387 . S
H730 C737 0.950 . S
C731 C729 1.387 . S
C731 C733 1.390 . S
C731 H735 0.950 . S
H732 C728 0.950 . S
C733 C731 1.390 . S
C733 C734 1.387 1_455 S
C733 H736 0.950 . S
C734 C733 1.387 1_655 S
C734 C737 1.387 . S
H735 C731 0.950 . S
H736 C733 0.950 . S
C737 C728 1.390 1_655 S
C737 H730 0.950 . S
C737 C734 1.387 . S
C738 C739 1.387 . S
C738 H742 0.950 . S
C738 C747 1.390 1_545 S
C739 C738 1.387 . S
C739 C741 1.387 . S
H740 C747 0.950 . S
C741 C739 1.387 . S
C741 C743 1.390 . S
C741 H745 0.950 . S
H742 C738 0.950 . S
C743 C741 1.390 . S
C743 C744 1.387 1_545 S
C743 H746 0.950 . S
C744 C743 1.387 1_565 S
C744 C747 1.387 . S
H745 C741 0.950 . S
H746 C743 0.950 . S
C747 C738 1.390 1_565 S
C747 H740 0.950 . S
C747 C744 1.387 . S
C748 C749 1.387 . S
C748 H752 0.950 . S
C748 C757 1.390 . S
C749 C748 1.387 . S
C749 C751 1.387 . S
H750 C757 0.950 . S
C751 C749 1.387 . S
C751 C753 1.390 . S
C751 H755 0.950 . S
H752 C748 0.950 . S
C753 C751 1.390 . S
C753 C754 1.387 . S
C753 H756 0.950 . S
C754 C753 1.387 . S
C754 C757 1.387 . S
H755 C751 0.950 . S
H756 C753 0.950 . S
C757 C748 1.390 . S
C757 H750 0.950 . S
C757 C754 1.387 . S
C758 C759 1.387 . S
C758 H762 0.950 . S
C758 C767 1.390 . S
C759 C758 1.387 . S
C759 C761 1.387 . S
H760 C767 0.950 . S
C761 C759 1.387 . S
C761 C763 1.390 . S
C761 H765 0.950 . S
H762 C758 0.950 . S
C763 C761 1.390 . S
C763 C764 1.387 . S
C763 H766 0.950 . S
C764 C763 1.387 . S
C764 C767 1.387 . S
H765 C761 0.950 . S
H766 C763 0.950 . S
C767 C758 1.390 . S
C767 H760 0.950 . S
C767 C764 1.387 . S
C768 C769 1.387 1_556 S
C768 H772 0.950 . S
C768 C777 1.390 . S
C769 C768 1.387 1_554 S
C769 C771 1.387 1_655 S
H770 C777 0.950 . S
C771 C769 1.387 1_455 S
C771 C773 1.390 . S
C771 H775 0.950 . S
H772 C768 0.950 . S
C773 C771 1.390 . S
C773 C774 1.387 1_554 S
C773 H776 0.950 . S
C774 C773 1.387 1_556 S
C774 C777 1.387 1_455 S
H775 C771 0.950 . S
H776 C773 0.950 . S
C777 C768 1.390 . S
C777 H770 0.950 . S
C777 C774 1.387 1_655 S
C778 C779 1.387 1_556 S
C778 H782 0.950 . S
C778 C787 1.390 . S
C779 C778 1.387 1_554 S
C779 C781 1.387 1_565 S
H780 C787 0.950 . S
C781 C779 1.387 1_545 S
C781 C783 1.390 . S
C781 H785 0.950 . S
H782 C778 0.950 . S
C783 C781 1.390 . S
C783 C784 1.387 1_554 S
C783 H786 0.950 . S
C784 C783 1.387 1_556 S
C784 C787 1.387 1_545 S
H785 C781 0.950 . S
H786 C783 0.950 . S
C787 C778 1.390 . S
C787 H780 0.950 . S
C787 C784 1.387 1_565 S
C788 C789 1.387 . S
C788 H792 0.950 . S
C788 C797 1.390 . S
C789 C788 1.387 . S
C789 C791 1.387 1_554 S
H790 C797 0.950 . S
C791 C789 1.387 1_556 S
C791 C793 1.390 . S
C791 H795 0.950 . S
H792 C788 0.950 . S
C793 C791 1.390 . S
C793 C794 1.387 . S
C793 H796 0.950 . S
C794 C793 1.387 . S
C794 C797 1.387 1_556 S
H795 C791 0.950 . S
H796 C793 0.950 . S
C797 C788 1.390 . S
C797 H790 0.950 . S
C797 C794 1.387 1_554 S
C798 C799 1.387 1_556 S
C798 H802 0.950 . S
C798 C807 1.390 . S
C799 C798 1.387 1_554 S
C799 C801 1.387 . S
H800 C807 0.950 . S
C801 C799 1.387 . S
C801 C803 1.390 . S
C801 H805 0.950 . S
H802 C798 0.950 . S
C803 C801 1.390 . S
C803 C804 1.387 1_554 S
C803 H806 0.950 . S
C804 C803 1.387 1_556 S
C804 C807 1.387 . S
H805 C801 0.950 . S
H806 C803 0.950 . S
C807 C798 1.390 . S
C807 H800 0.950 . S
C807 C804 1.387 . S
C808 C809 1.387 . S
C808 H812 0.950 . S
C808 C817 1.390 . S
C809 C808 1.387 . S
C809 C811 1.387 . S
H810 C817 0.950 . S
C811 C809 1.387 . S
C811 C813 1.390 . S
C811 H815 0.950 . S
H812 C808 0.950 . S
C813 C811 1.390 . S
C813 C814 1.387 . S
C813 H816 0.950 . S
C814 C813 1.387 . S
C814 C817 1.387 . S
H815 C811 0.950 . S
H816 C813 0.950 . S
C817 C808 1.390 . S
C817 H810 0.950 . S
C817 C814 1.387 . S
C818 C819 1.387 . S
C818 H822 0.950 . S
C818 C827 1.390 . S
C819 C818 1.387 . S
C819 C821 1.387 . S
H820 C827 0.950 1_565 S
C821 C819 1.387 . S
C821 C823 1.390 . S
C821 H825 0.950 . S
H822 C818 0.950 . S
C823 C821 1.390 . S
C823 C824 1.387 . S
C823 H826 0.950 . S
C824 C823 1.387 . S
C824 C827 1.387 . S
H825 C821 0.950 . S
H826 C823 0.950 . S
C827 C818 1.390 . S
C827 H820 0.950 1_545 S
C827 C824 1.387 . S
C828 C829 1.387 . S
C828 H832 0.950 . S
C828 C837 1.390 . S
C829 C828 1.387 . S
C829 C831 1.387 . S
H830 C837 0.950 . S
C831 C829 1.387 . S
C831 C833 1.390 . S
C831 H835 0.950 . S
H832 C828 0.950 . S
C833 C831 1.390 . S
C833 C834 1.387 . S
C833 H836 0.950 . S
C834 C833 1.387 . S
C834 C837 1.387 . S
H835 C831 0.950 . S
H836 C833 0.950 . S
C837 C828 1.390 . S
C837 H830 0.950 . S
C837 C834 1.387 . S
C838 C839 1.387 . S
C838 H842 0.950 . S
C838 C847 1.390 . S
C839 C838 1.387 . S
C839 C841 1.387 . S
H840 C847 0.950 . S
C841 C839 1.387 . S
C841 C843 1.390 . S
C841 H845 0.950 . S
H842 C838 0.950 . S
C843 C841 1.390 . S
C843 C844 1.387 . S
C843 H846 0.950 . S
C844 C843 1.387 . S
C844 C847 1.387 . S
H845 C841 0.950 . S
H846 C843 0.950 . S
C847 C838 1.390 . S
C847 H840 0.950 . S
C847 C844 1.387 . S
C848 C849 1.387 . S
C848 H852 0.950 . S
C848 C857 1.390 . S
C849 C848 1.387 . S
C849 C851 1.387 . S
H850 C857 0.950 . S
C851 C849 1.387 . S
C851 C853 1.390 . S
C851 H855 0.950 . S
H852 C848 0.950 . S
C853 C851 1.390 . S
C853 C854 1.387 . S
C853 H856 0.950 . S
C854 C853 1.387 . S
C854 C857 1.387 . S
H855 C851 0.950 . S
H856 C853 0.950 . S
C857 C848 1.390 . S
C857 H850 0.950 . S
C857 C854 1.387 . S
C858 C859 1.387 . S
C858 H862 0.950 . S
C858 C867 1.390 . S
C859 C858 1.387 . S
C859 C861 1.387 1_565 S
H860 C867 0.950 . S
C861 C859 1.387 1_545 S
C861 C863 1.390 . S
C861 H865 0.950 . S
H862 C858 0.950 . S
C863 C861 1.390 . S
C863 C864 1.387 1_545 S
C863 H866 0.950 . S
C864 C863 1.387 1_565 S
C864 C867 1.387 . S
H865 C861 0.950 . S
H866 C863 0.950 . S
C867 C858 1.390 . S
C867 H860 0.950 . S
C867 C864 1.387 . S
C868 C869 1.387 . S
C868 H872 0.950 . S
C868 C877 1.390 . S
C869 C868 1.387 . S
C869 C871 1.387 . S
H870 C877 0.950 . S
C871 C869 1.387 . S
C871 C873 1.390 . S
C871 H875 0.950 . S
H872 C868 0.950 . S
C873 C871 1.390 . S
C873 C874 1.387 . S
C873 H876 0.950 . S
C874 C873 1.387 . S
C874 C877 1.387 . S
H875 C871 0.950 . S
H876 C873 0.950 . S
C877 C868 1.390 . S
C877 H870 0.950 . S
C877 C874 1.387 . S
C878 C879 1.387 . S
C878 H882 0.950 . S
C878 C887 1.390 . S
C879 C878 1.387 . S
C879 C881 1.387 . S
H880 C887 0.950 . S
C881 C879 1.387 . S
C881 C883 1.390 . S
C881 H885 0.950 . S
H882 C878 0.950 . S
C883 C881 1.390 . S
C883 C884 1.387 . S
C883 H886 0.950 . S
C884 C883 1.387 . S
C884 C887 1.387 . S
H885 C881 0.950 . S
H886 C883 0.950 . S
C887 C878 1.390 . S
C887 H880 0.950 . S
C887 C884 1.387 . S
C649 C255 2.593 . S
C654 C375 2.848 . S
C664 C452 2.858 . S
C659 C294 2.581 . S
C674 C543 2.854 . S
C669 C177 2.598 . S
C684 C627 2.838 . S
C679 C216 2.586 . S
C694 C386 2.848 1_565 S
C689 C99 2.602 . S
C699 C138 2.574 . S
C704 C463 2.858 . S
C709 C21 2.606 . S
C714 C554 2.853 . S
C719 C60 2.593 . S
C724 C638 2.837 1_655 S
C734 C370 0.774 . S
C729 C196 0.771 . S
C744 C465 0.761 . S
C739 C235 0.760 . S
C754 C538 0.786 . S
C749 C289 0.778 . S
C759 C157 0.765 . S
C764 C622 0.765 . S
C769 C40 0.768 . S
C774 C381 0.776 . S
C784 C454 0.761 . S
C779 C79 0.763 . S
C794 C549 0.783 . S
C789 C133 0.778 . S
C799 C1 0.758 . S
C804 C633 0.767 . S
C809 C211 2.904 . S
C814 C379 3.311 . S
C819 C250 2.907 . S
C824 C470 3.415 . S
C834 C547 3.330 . S
C829 C274 2.928 . S
C844 C631 3.328 . S
C839 C172 2.921 . S
C849 C55 2.903 . S
C854 C368 3.311 . S
C864 C459 3.415 . S
C859 C94 2.906 . S
C874 C536 3.331 . S
C869 C118 2.926 . S
C879 C16 2.917 . S
C884 C620 3.326 . S
