# Generated by pormake.
# Topology zzz, (3,6)-cn, num edge types: 1
# Building blocks:
#     Node 0, Type 0, BuildingBlock: PAMTOO_clean_linker_0, # of connection points: 3
#     Node 1, Type 0, BuildingBlock: PAMTOO_clean_linker_0, # of connection points: 3
#     Node 2, Type 0, BuildingBlock: PAMTOO_clean_linker_0, # of connection points: 3
#     Node 3, Type 0, BuildingBlock: PAMTOO_clean_linker_0, # of connection points: 3
#     Node 4, Type 0, BuildingBlock: PAMTOO_clean_linker_0, # of connection points: 3
#     Node 5, Type 0, BuildingBlock: PAMTOO_clean_linker_0, # of connection points: 3
#     Node 6, Type 0, BuildingBlock: PAMTOO_clean_linker_0, # of connection points: 3
#     Node 7, Type 0, BuildingBlock: PAMTOO_clean_linker_0, # of connection points: 3
#     Node 8, Type 1, BuildingBlock: CUWYAW_clean_sbu_0, # of connection points: 6
#     Node 9, Type 1, BuildingBlock: CUWYAW_clean_sbu_0, # of connection points: 6
#     Node 10, Type 1, BuildingBlock: CUWYAW_clean_sbu_0, # of connection points: 6
#     Node 11, Type 1, BuildingBlock: CUWYAW_clean_sbu_0, # of connection points: 6
#     Edge 12, Type (0, 1), BuildingBlock: ZUJKAS_clean_linker_0, # of connection points: 2
#     Edge 13, Type (0, 1), BuildingBlock: ZUJKAS_clean_linker_0, # of connection points: 2
#     Edge 14, Type (0, 1), BuildingBlock: ZUJKAS_clean_linker_0, # of connection points: 2
#     Edge 15, Type (0, 1), BuildingBlock: ZUJKAS_clean_linker_0, # of connection points: 2
#     Edge 16, Type (0, 1), BuildingBlock: ZUJKAS_clean_linker_0, # of connection points: 2
#     Edge 17, Type (0, 1), BuildingBlock: ZUJKAS_clean_linker_0, # of connection points: 2
#     Edge 18, Type (0, 1), BuildingBlock: ZUJKAS_clean_linker_0, # of connection points: 2
#     Edge 19, Type (0, 1), BuildingBlock: ZUJKAS_clean_linker_0, # of connection points: 2
#     Edge 20, Type (0, 1), BuildingBlock: ZUJKAS_clean_linker_0, # of connection points: 2
#     Edge 21, Type (0, 1), BuildingBlock: ZUJKAS_clean_linker_0, # of connection points: 2
#     Edge 22, Type (0, 1), BuildingBlock: ZUJKAS_clean_linker_0, # of connection points: 2
#     Edge 23, Type (0, 1), BuildingBlock: ZUJKAS_clean_linker_0, # of connection points: 2
#     Edge 24, Type (0, 1), BuildingBlock: ZUJKAS_clean_linker_0, # of connection points: 2
#     Edge 25, Type (0, 1), BuildingBlock: ZUJKAS_clean_linker_0, # of connection points: 2
#     Edge 26, Type (0, 1), BuildingBlock: ZUJKAS_clean_linker_0, # of connection points: 2
#     Edge 27, Type (0, 1), BuildingBlock: ZUJKAS_clean_linker_0, # of connection points: 2
#     Edge 28, Type (0, 1), BuildingBlock: ZUJKAS_clean_linker_0, # of connection points: 2
#     Edge 29, Type (0, 1), BuildingBlock: ZUJKAS_clean_linker_0, # of connection points: 2
#     Edge 30, Type (0, 1), BuildingBlock: ZUJKAS_clean_linker_0, # of connection points: 2
#     Edge 31, Type (0, 1), BuildingBlock: ZUJKAS_clean_linker_0, # of connection points: 2
#     Edge 32, Type (0, 1), BuildingBlock: ZUJKAS_clean_linker_0, # of connection points: 2
#     Edge 33, Type (0, 1), BuildingBlock: ZUJKAS_clean_linker_0, # of connection points: 2
#     Edge 34, Type (0, 1), BuildingBlock: ZUJKAS_clean_linker_0, # of connection points: 2
#     Edge 35, Type (0, 1), BuildingBlock: ZUJKAS_clean_linker_0, # of connection points: 2
# Relax obj value: 0.211
# Max RMSD: 0.148
# Mean RMSD: 0.132
data_MOF--net-zzz--node1-CUWYAW_clean_sbu_0--node2-PAMTOO_clean_linker_0--edge1-ZUJKAS_clean_linker_0
_symmetry_space_group_name_H-M    P1
_symmetry_Int_Tables_number       1
_symmetry_cell_setting            triclinic
loop_
_symmetry_equiv_pos_as_xyz
'x, y, z'
_cell_length_a     66.386024
_cell_length_b     66.450557
_cell_length_c     18.154635
_cell_angle_alpha  89.68843
_cell_angle_beta   90.00342
_cell_angle_gamma 90.154278
loop_
_atom_site_label
_atom_site_type_symbol
_atom_site_fract_x
_atom_site_fract_y
_atom_site_fract_z
_atom_type_partial_charge
H0 H 0.8046 0.53752 0.23337 0.0
H1 H 0.7417 0.5381 0.17878 0.0
H2 H 0.76041 0.5233 0.39975 0.0
H3 H 0.70887 0.50738 0.34575 0.0
C4 C 0.7176 0.51122 0.29543 0.0
O5 O 0.72908 0.52821 0.30973 0.0
H6 H 0.7275 0.4981 0.28366 0.0
C7 C 0.78904 0.53544 0.25014 0.0
C8 C 0.78462 0.53043 0.32358 0.0
C9 C 0.77371 0.53804 0.19791 0.0
C10 C 0.75361 0.53578 0.21876 0.0
C11 C 0.74876 0.53005 0.29089 0.0
C12 C 0.76426 0.52723 0.34351 0.0
H13 H 0.0259 0.80202 0.20912 0.0
H14 H 1.0153 0.74079 0.14594 0.0
H15 H 1.00684 0.75837 0.37157 0.0
H16 H 1.01478 0.70647 0.34492 0.0
C17 C 1.01761 0.71248 0.28863 0.0
O18 O 1.00442 0.72828 0.27618 0.0
H19 H 0.03355 0.71776 0.28697 0.0
C20 C 0.02174 0.78675 0.22419 0.0
C21 C 1.01677 0.78221 0.29771 0.0
C22 C 0.02128 0.77195 0.16939 0.0
C23 C 1.01578 0.75226 0.18805 0.0
C24 C 1.01055 0.74732 0.26059 0.0
C25 C 1.01097 0.76228 0.31557 0.0
H26 H 0.74096 1.01306 0.2442 0.0
H27 H 0.8028 1.00459 0.18209 0.0
H28 H 0.78572 1.00147 0.41073 0.0
H29 H 0.83753 1.01345 0.37711 0.0
C30 C 0.83064 1.0145 0.32144 0.0
O31 O 0.81627 0.99943 0.315 0.0
H32 H 0.82363 0.0297 0.31805 0.0
C33 C 0.75647 1.01013 0.25958 0.0
C34 C 0.76131 1.00734 0.33411 0.0
C35 C 0.77129 1.00916 0.20458 0.0
C36 C 0.79131 1.00557 0.22429 0.0
C37 C 0.79667 1.00304 0.29825 0.0
C38 C 0.78162 1.00369 0.35353 0.0
H39 H 0.53129 0.73283 0.25234 0.0
H40 H 0.53929 0.79523 0.19629 0.0
H41 H 0.52884 0.77787 0.42191 0.0
H42 H 0.51627 0.82933 0.37601 0.0
C43 C 0.51858 0.82173 0.32232 0.0
O44 O 0.5347 0.80863 0.3292 0.0
H45 H 0.50433 0.81342 0.31077 0.0
C46 C 0.53157 0.74849 0.26896 0.0
C47 C 0.52943 0.75327 0.34376 0.0
C48 C 0.53514 0.76346 0.21565 0.0
C49 C 0.53641 0.78359 0.23701 0.0
C50 C 0.53367 0.7889 0.31074 0.0
C51 C 0.53048 0.77373 0.36461 0.0
H52 H 0.23725 0.53452 0.16556 0.0
H53 H 0.2985 0.53263 0.244 0.0
H54 H 0.27952 0.49376 0.06815 0.0
H55 H 0.32063 0.4757 0.16341 0.0
C56 C 0.31553 0.4881 0.19962 0.0
O57 O 0.30994 0.50427 0.15565 0.0
H58 H 0.30237 0.48214 0.23114 0.0
C59 C 0.2525 0.52878 0.16186 0.0
C60 C 0.2566 0.51379 0.11023 0.0
C61 C 0.26742 0.53588 0.21021 0.0
C62 C 0.28679 0.52754 0.20687 0.0
C63 C 0.29118 0.51231 0.15632 0.0
C64 C 0.27612 0.50554 0.10719 0.0
H65 H 0.99239 0.23111 0.1502 0.0
H66 H 0.99501 0.29184 0.23174 0.0
H67 H 0.0367 0.27229 0.06533 0.0
H68 H 0.05482 0.31103 0.1614 0.0
C69 C 0.0415 0.30737 0.19605 0.0
O70 O 0.0255 0.30269 0.15021 0.0
H71 H 0.04584 0.29416 0.23069 0.0
C72 C 0.99878 0.24615 0.14861 0.0
C73 C 1.01504 0.24994 0.10151 0.0
C74 C 0.99123 0.2611 0.19546 0.0
C75 C 1.0004 0.28016 0.19532 0.0
C76 C 1.01676 0.28424 0.14863 0.0
C77 C 0.02399 0.26916 0.10103 0.0
H78 H 0.30322 0.02839 0.19278 0.0
H79 H 0.24017 0.02085 0.23872 0.0
H80 H 0.26047 0.02601 0.01441 0.0
H81 H 0.20789 0.03783 0.04602 0.0
C82 C 0.21481 0.037 0.10167 0.0
O83 O 0.22862 0.02139 0.10245 0.0
H84 H 0.2224 0.05179 0.11038 0.0
C85 C 0.2878 0.02757 0.17331 0.0
C86 C 0.28401 0.02787 0.09712 0.0
C87 C 0.27216 0.02511 0.22474 0.0
C88 C 0.25236 0.02293 0.1997 0.0
C89 C 0.24803 0.02361 0.12439 0.0
C90 C 0.26386 0.02587 0.07276 0.0
H91 H 0.48435 0.29287 0.16283 0.0
H92 H 0.48944 0.23017 0.21954 0.0
H93 H 0.50984 0.25144 0.00784 0.0
H94 H 0.53427 0.2225 0.13853 0.0
C95 C 0.52367 0.21079 0.11776 0.0
O96 O 0.50564 0.21947 0.09586 0.0
H97 H 0.53085 0.20393 0.06876 0.0
C98 C 0.48813 0.27758 0.14761 0.0
C99 C 0.49663 0.27418 0.07808 0.0
C100 C 0.48545 0.26195 0.19917 0.0
C101 C 0.49141 0.24243 0.1806 0.0
C102 C 0.50031 0.23862 0.11223 0.0
C103 C 0.50309 0.25451 0.0609 0.0
C104 C 0.99935 0.04289 0.516 0.0
Eu105 Eu 1.00945 0.024 0.63528 0.0
C106 C 0.98824 0.06194 0.50644 0.0
C107 C 0.97095 0.06279 0.46198 0.0
C108 C 0.95956 0.0805 0.45789 0.0
C109 C 0.96519 0.0975 0.499 0.0
C110 C 0.98258 0.09658 0.5429 0.0
C111 C 0.99398 0.07906 0.54636 0.0
C112 C 0.9839 0.01929 0.7529 0.0
C113 C 0.02369 0.05505 0.76648 0.0
C114 C 0.04973 0.9865 0.8698 0.0
Eu115 Eu 0.03436 1.00874 0.76715 0.0
C116 C 0.05552 0.96525 0.86262 0.0
C117 C 0.06433 0.95839 0.79682 0.0
C118 C 0.06599 0.93782 0.78305 0.0
C119 C 0.05863 0.9238 0.83438 0.0
C120 C 0.05067 0.93066 0.90155 0.0
C121 C 0.04914 0.95124 0.91555 0.0
C122 C 0.05609 0.02188 0.64901 0.0
C123 C 1.01701 0.97623 0.64569 0.0
O124 O 1.01732 0.04436 0.54582 0.0
O125 O 0.98884 0.02778 0.5426 0.0
O126 O 0.9783 0.02507 0.6879 0.0
O127 O 1.00257 1.01594 0.75121 0.0
O128 O 1.01934 0.05256 0.69567 0.0
O129 O 0.0275 0.03956 0.81026 0.0
O130 O 0.03037 0.98983 0.86464 0.0
O131 O 0.06043 0.99943 0.83171 0.0
O132 O 0.06071 0.02559 0.71704 0.0
O133 O 0.04023 1.01131 0.64654 0.0
O134 O 0.02542 0.97956 0.71056 0.0
O135 O 1.01069 0.99115 0.60304 0.0
H136 H 0.96615 0.04972 0.43111 0.0
H137 H 0.94628 0.08085 0.42324 0.0
H138 H 0.98764 0.10958 0.57364 0.0
H139 H 1.00729 0.07894 0.58065 0.0
H140 H 0.069 0.96889 0.75423 0.0
H141 H 0.07204 0.9329 0.73075 0.0
H142 H 0.04513 0.92008 0.94245 0.0
H143 H 0.04207 0.9562 0.96608 0.0
C144 C 0.49336 0.98869 0.54526 0.0
Eu145 Eu 0.51555 1.00199 0.65155 0.0
C146 C 0.47133 0.99096 0.53917 0.0
C147 C 0.45889 0.97386 0.53841 0.0
C148 C 0.43807 0.97576 0.54769 0.0
C149 C 0.42935 0.99481 0.55784 0.0
C150 C 0.44177 1.01194 0.55611 0.0
C151 C 0.4625 1.01006 0.54688 0.0
C152 C 0.52797 0.97949 0.76834 0.0
C153 C 0.48221 0.0197 0.77013 0.0
C154 C 0.55119 0.03982 0.8806 0.0
Eu155 Eu 0.52905 0.02651 0.77403 0.0
C156 C 0.57332 0.03851 0.88539 0.0
C157 C 0.58492 0.05606 0.89229 0.0
C158 C 0.60581 0.05542 0.88222 0.0
C159 C 0.61543 0.0372 0.86465 0.0
C160 C 0.6038 0.01955 0.8604 0.0
C161 C 0.58303 0.02018 0.87078 0.0
C162 C 0.51636 0.04895 0.65776 0.0
C163 C 0.56234 1.00911 0.65409 0.0
O164 O 0.50401 1.00524 0.53975 0.0
O165 O 0.49935 0.97721 0.59963 0.0
O166 O 0.53206 0.97532 0.70013 0.0
O167 O 0.51737 0.99527 0.77178 0.0
O168 O 0.48602 1.01287 0.70324 0.0
O169 O 0.49706 0.02481 0.81451 0.0
O170 O 0.54134 0.02275 0.88454 0.0
O171 O 0.54447 0.05148 0.82791 0.0
O172 O 0.51227 0.05304 0.72604 0.0
O173 O 0.52715 0.0333 0.65394 0.0
O174 O 0.55858 1.01625 0.7206 0.0
O175 O 0.54748 1.00352 0.6106 0.0
H176 H 0.46537 0.95898 0.53346 0.0
H177 H 0.42882 0.96231 0.54741 0.0
H178 H 0.43557 0.02681 0.56463 0.0
H179 H 0.47165 0.02356 0.54924 0.0
H180 H 0.57775 0.07038 0.9028 0.0
H181 H 0.61437 0.06922 0.88765 0.0
H182 H 0.6106 1.0053 0.84595 0.0
H183 H 0.57452 1.00639 0.86373 0.0
C184 C 0.53213 0.4891 0.53241 0.0
Eu185 Eu 0.52875 0.50882 0.65432 0.0
C186 C 0.52334 0.46937 0.5155 0.0
C187 C 0.5343 0.4553 0.4749 0.0
C188 C 0.52736 0.4355 0.46916 0.0
C189 C 0.50945 0.4295 0.50464 0.0
C190 C 0.49816 0.44381 0.54315 0.0
C191 C 0.50502 0.46358 0.54839 0.0
C192 C 0.55779 0.51823 0.75384 0.0
C193 C 0.51434 0.47536 0.77994 0.0
C194 C 0.51072 0.54247 0.92129 0.0
Eu195 Eu 0.51275 0.52256 0.79974 0.0
C196 C 0.52159 0.5613 0.93585 0.0
C197 C 0.51225 0.57699 0.97382 0.0
C198 C 0.52116 0.59608 0.97512 0.0
C199 C 0.53938 0.59972 0.93762 0.0
C200 C 0.54907 0.58379 0.90211 0.0
C201 C 0.5403 0.56474 0.90147 0.0
C202 C 0.48352 0.51284 0.7016 0.0
C203 C 0.52695 0.55598 0.6736 0.0
O204 O 0.51919 0.50371 0.54128 0.0
O205 O 0.54603 0.48885 0.58345 0.0
O206 O 0.55947 0.52188 0.68362 0.0
O207 O 0.54156 0.50898 0.76677 0.0
O208 O 0.5176 0.47969 0.70955 0.0
O209 O 0.51331 0.48971 0.82973 0.0
O210 O 0.52208 0.52655 0.91371 0.0
O211 O 0.49688 0.5438 0.87017 0.0
O212 O 0.48191 0.50974 0.77222 0.0
O213 O 0.4997 0.52212 0.68748 0.0
O214 O 0.52398 0.55164 0.74412 0.0
O215 O 0.5278 0.54162 0.62387 0.0
H216 H 0.54858 0.45943 0.45005 0.0
H217 H 0.53642 0.42469 0.43959 0.0
H218 H 0.48422 0.43963 0.57033 0.0
H219 H 0.49633 0.47416 0.58056 0.0
H220 H 0.4977 0.57471 0.99962 0.0
H221 H 0.51333 0.60822 1.00249 0.0
H222 H 0.56319 0.58617 0.87341 0.0
H223 H 0.54773 0.55292 0.87103 0.0
C224 C 0.04769 0.53485 0.53593 0.0
Eu225 Eu 0.02754 0.5237 0.65166 0.0
C226 C 0.06643 0.5465 0.53192 0.0
C227 C 0.07356 0.55635 0.59501 0.0
C228 C 0.09218 0.56612 0.59399 0.0
C229 C 0.10405 0.56611 0.52993 0.0
C230 C 0.09656 0.55663 0.46621 0.0
C231 C 0.07787 0.54688 0.46729 0.0
C232 C 1.0175 0.5509 0.75719 0.0
C233 C 0.0603 0.50885 0.77821 0.0
C234 C 0.99112 0.50047 0.90501 0.0
Eu235 Eu 1.01276 0.50507 0.78779 0.0
C236 C 0.97306 0.51236 0.92139 0.0
C237 C 0.95615 0.50339 0.95406 0.0
C238 C 0.93792 0.51386 0.95696 0.0
C239 C 0.93636 0.53332 0.92633 0.0
C240 C 0.9535 0.54247 0.89595 0.0
C241 C 0.97167 0.53211 0.89369 0.0
C242 C 0.02327 0.47739 0.68568 0.0
C243 C 0.9809 0.51856 0.66097 0.0
O244 O 0.04944 0.51698 0.56585 0.0
O245 O 0.03212 0.54469 0.56078 0.0
O246 O 1.01381 0.55338 0.68778 0.0
O247 O 0.02683 0.53467 0.76718 0.0
O248 O 0.05699 0.51538 0.71019 0.0
O249 O 0.04521 0.50455 0.8229 0.0
O250 O 1.00805 0.5106 0.90468 0.0
O251 O 0.98939 0.48866 0.84798 0.0
O252 O 0.02585 0.47505 0.75617 0.0
O253 O 1.01407 0.49365 0.67224 0.0
O254 O 0.98479 0.51841 0.73232 0.0
O255 O 0.99588 0.51713 0.61371 0.0
H256 H 0.0649 0.5561 0.64561 0.0
H257 H 0.09745 0.57337 0.64372 0.0
H258 H 0.10548 0.55602 0.41636 0.0
H259 H 0.07263 0.53919 0.41839 0.0
H260 H 0.95684 0.48806 0.97455 0.0
H261 H 0.92483 0.50644 0.9803 0.0
H262 H 0.95275 0.55751 0.87268 0.0
H263 H 0.98443 0.53928 0.86725 0.0
H264 H 0.17966 1.0152 0.08995 0.0
H265 H 0.15198 1.01236 0.17943 0.0
H266 H 0.18587 0.04823 0.33335 0.0
H267 H 0.21334 0.05135 0.24347 0.0
H268 H 0.14956 0.99729 0.32088 0.0
H269 H 0.13318 0.07901 0.32223 0.0
H270 H 0.14931 0.06761 0.25429 0.0
H271 H 0.15885 0.07324 0.34465 0.0
C272 C 0.18117 0.02242 0.14301 0.0
C273 C 0.19849 0.03379 0.15926 0.0
C274 C 0.16536 0.0208 0.19414 0.0
C275 C 0.16653 0.03051 0.26268 0.0
C276 C 0.18428 0.04109 0.2802 0.0
H277 H 0.0919 0.04191 0.65147 0.0
H278 H 0.11765 0.04364 0.55527 0.0
C279 C 0.20005 0.04274 0.22905 0.0
C280 C 0.14923 0.02964 0.31558 0.0
H281 H 0.11668 0.05914 0.4134 0.0
C282 C 0.14228 1.01081 0.34068 0.0
C283 C 0.13958 0.04726 0.34141 0.0
C284 C 0.14545 0.06792 0.31378 0.0
C285 C 0.12649 1.00915 0.39241 0.0
C286 C 0.11707 0.02679 0.41907 0.0
C287 C 0.12385 0.0456 0.39322 0.0
C288 C 0.10079 0.02615 0.47612 0.0
C289 C 0.12048 0.98853 0.4199 0.0
C290 C 0.08239 1.01615 0.46347 0.0
C291 C 0.06754 1.01518 0.51865 0.0
C292 C 0.07078 0.02423 0.58755 0.0
C293 C 0.08893 0.03471 0.59917 0.0
C294 C 0.1037 0.03571 0.54412 0.0
H295 H 0.13214 0.97707 0.40752 0.0
H296 H 0.11781 0.98866 0.48028 0.0
H297 H 0.10628 0.98388 0.39253 0.0
H298 H 0.07954 1.00901 0.41101 0.0
H299 H 0.05369 1.00705 0.50786 0.0
H300 H 0.55149 0.19668 0.21511 0.0
H301 H 0.54873 0.16878 0.30311 0.0
H302 H 0.48681 0.15972 0.23917 0.0
H303 H 0.48975 0.18725 0.14929 0.0
H304 H 0.52616 0.16301 0.42163 0.0
H305 H 0.50783 0.10341 0.22011 0.0
H306 H 0.51613 0.12817 0.19228 0.0
H307 H 0.4903 0.12391 0.21836 0.0
C308 C 0.53724 0.18882 0.22021 0.0
C309 C 0.52077 0.19447 0.17604 0.0
C310 C 0.53567 0.17281 0.27047 0.0
C311 C 0.51764 0.16183 0.27753 0.0
C312 C 0.50105 0.16758 0.23396 0.0
H313 H 0.49434 0.08353 0.65875 0.0
H314 H 0.49365 0.11032 0.5658 0.0
C315 C 0.50266 0.18354 0.18313 0.0
C316 C 0.51633 0.14463 0.33116 0.0
H317 H 0.50552 0.09433 0.34663 0.0
C318 C 0.52164 0.14801 0.40504 0.0
C319 C 0.51078 0.12487 0.30979 0.0
C320 C 0.50613 0.11977 0.23071 0.0
C321 C 0.52143 0.1324 0.45784 0.0
C322 C 0.51519 0.1128 0.43709 0.0
C323 C 0.51007 0.10934 0.36306 0.0
C324 C 0.5143 0.09568 0.49111 0.0
C325 C 0.5285 0.137 0.53498 0.0
C326 C 0.52527 0.0779 0.47886 0.0
C327 C 0.52541 0.06235 0.53165 0.0
C328 C 0.51462 0.06426 0.59793 0.0
C329 C 0.50301 0.08168 0.6087 0.0
C330 C 0.50274 0.09711 0.55575 0.0
H331 H 0.53821 0.15064 0.53627 0.0
H332 H 0.51523 0.13987 0.5705 0.0
H333 H 0.53707 0.12421 0.55883 0.0
H334 H 0.53418 0.07628 0.4293 0.0
H335 H 0.53446 0.0491 0.52154 0.0
H336 H 0.31661 0.485 0.35076 0.0
H337 H 0.34536 0.4903 0.43329 0.0
H338 H 0.38201 0.508 0.24783 0.0
H339 H 0.35319 0.50269 0.16498 0.0
H340 H 0.38302 0.47004 0.42455 0.0
H341 H 0.3928 0.55286 0.40003 0.0
H342 H 0.36982 0.54022 0.37345 0.0
H343 H 0.39151 0.53946 0.31441 0.0
C344 C 0.33071 0.49034 0.32773 0.0
C345 C 0.3326 0.49364 0.25142 0.0
C346 C 0.34716 0.49329 0.37493 0.0
C347 C 0.36585 0.49973 0.34707 0.0
C348 C 0.36769 0.50337 0.27096 0.0
H349 H 0.4828 0.52269 0.5548 0.0
H350 H 0.45485 0.51866 0.46777 0.0
C351 C 0.35123 0.50033 0.22362 0.0
C352 C 0.38361 0.50158 0.39721 0.0
H353 H 0.41771 0.53514 0.46702 0.0
C354 C 0.39057 0.48429 0.434 0.0
C355 C 0.3936 0.52012 0.40915 0.0
C356 C 0.38652 0.53929 0.37275 0.0
C357 C 0.40731 0.48496 0.48163 0.0
C358 C 0.41712 0.50358 0.49468 0.0
C359 C 0.41024 0.52086 0.45736 0.0
C360 C 0.43435 0.50551 0.54742 0.0
C361 C 0.41459 0.46558 0.51605 0.0
C362 C 0.43225 0.4996 0.62156 0.0
C363 C 0.44831 0.5017 0.67118 0.0
C364 C 0.46677 0.51001 0.64816 0.0
C365 C 0.46885 0.51607 0.57417 0.0
C366 C 0.45282 0.51386 0.52441 0.0
H367 H 0.40975 0.45229 0.48357 0.0
H368 H 0.43126 0.46539 0.5209 0.0
H369 H 0.40805 0.46402 0.57205 0.0
H370 H 0.41807 0.49361 0.64147 0.0
H371 H 0.44616 0.49702 0.72789 0.0
H372 H 0.03733 0.30856 0.34674 0.0
H373 H 0.03307 0.33817 0.42527 0.0
H374 H 0.03097 0.37625 0.23241 0.0
H375 H 0.03532 0.34658 0.15359 0.0
H376 H 0.06039 0.37233 0.42567 0.0
H377 H 0.98179 0.39454 0.35833 0.0
H378 H 0.99132 0.36955 0.3412 0.0
H379 H 0.99824 0.39003 0.28146 0.0
C380 C 0.0357 0.32322 0.32109 0.0
C381 C 0.03667 0.3253 0.24404 0.0
C382 C 0.0333 0.34013 0.36599 0.0
C383 C 0.03158 0.35944 0.33482 0.0
C384 C 0.03199 0.36149 0.25773 0.0
H385 H 1.01808 0.4786 0.53579 0.0
H386 H 0.02095 0.45057 0.44872 0.0
C387 C 0.0345 0.34457 0.21277 0.0
C388 C 0.03058 0.37746 0.38323 0.0
H389 H 1.00017 0.41624 0.43615 0.0
C390 C 0.04721 0.38193 0.42807 0.0
C391 C 1.01349 0.39011 0.3857 0.0
C392 C 0.99509 0.38584 0.33959 0.0
C393 C 0.0473 0.39871 0.47498 0.0
C394 C 0.02999 0.41112 0.47908 0.0
C395 C 1.01343 0.40678 0.4334 0.0
C396 C 0.02858 0.42831 0.53166 0.0
C397 C 0.06617 0.40318 0.51836 0.0
C398 C 0.0317 0.42523 0.60747 0.0
C399 C 0.03034 0.44125 0.65697 0.0
C400 C 0.02539 0.46069 0.63218 0.0
C401 C 0.02198 0.46379 0.55652 0.0
C402 C 0.02356 0.44776 0.50677 0.0
H403 H 0.07971 0.39678 0.49133 0.0
H404 H 0.06847 0.41962 0.52508 0.0
H405 H 0.0649 0.39618 0.57381 0.0
H406 H 0.03497 0.41033 0.62869 0.0
H407 H 0.03285 0.4383 0.71498 0.0
H408 H 0.867 0.99467 0.32954 0.0
H409 H 0.89444 0.99438 0.23871 0.0
H410 H 0.85789 0.02927 0.08911 0.0
H411 H 0.83079 0.03013 0.1808 0.0
H412 H 0.89848 0.9808 0.09969 0.0
H413 H 0.90778 0.06356 0.09658 0.0
H414 H 0.89241 0.05075 0.16413 0.0
H415 H 0.8826 0.05606 0.07361 0.0
C416 C 0.86486 1.00223 0.27715 0.0
C417 C 0.84685 1.01266 0.26269 0.0
C418 C 0.88054 1.00206 0.22519 0.0
C419 C 0.87856 1.01226 0.15747 0.0
C420 C 0.86015 0.02181 0.14163 0.0
H421 H 0.94449 0.02934 0.75581 0.0
H422 H 0.92067 0.02686 0.85773 0.0
C423 C 0.84453 0.02211 0.19375 0.0
C424 C 0.89572 1.01306 0.10373 0.0
H425 H 0.92445 0.04558 1.00087 0.0
C426 C 0.90429 0.99498 0.07874 0.0
C427 C 0.90358 0.03154 0.07663 0.0
C428 C 0.89627 0.05157 0.10468 0.0
C429 C 0.91978 0.9949 0.02542 0.0
C430 C 0.92706 1.01336 0.99649 0.0
C431 C 0.91886 0.03141 0.02277 0.0
C432 C 0.94204 1.01433 0.93506 0.0
C433 C 0.92777 0.97505 0.99832 0.0
C434 C 0.96221 1.00822 0.94432 0.0
C435 C 0.97605 1.00976 0.88564 0.0
C436 C 0.96991 1.01733 0.81671 0.0
C437 C 0.94975 0.02338 0.80801 0.0
C438 C 0.93606 0.02199 0.86637 0.0
H439 H 0.91862 0.96211 0.0183 0.0
H440 H 0.92807 0.97486 0.93716 0.0
H441 H 0.94346 0.97306 0.01809 0.0
H442 H 0.96728 1.00249 0.99708 0.0
H443 H 0.99148 1.00507 0.89419 0.0
H444 H 0.50608 0.82148 0.17776 0.0
H445 H 0.50984 0.84812 0.08437 0.0
H446 H 0.54313 0.8841 0.23969 0.0
H447 H 0.53956 0.85735 0.33273 0.0
H448 H 0.4957 0.88695 0.09092 0.0
H449 H 0.5787 0.88782 0.0576 0.0
H450 H 0.56551 0.86745 0.10298 0.0
H451 H 0.57053 0.89047 0.15131 0.0
C452 C 0.51439 0.83499 0.19156 0.0
C453 C 0.5224 0.83741 0.26268 0.0
C454 C 0.51649 0.85024 0.13826 0.0
C455 C 0.52688 0.86816 0.15451 0.0
C456 C 0.53533 0.87035 0.22509 0.0
H457 H 0.51308 0.98177 0.90922 0.0
H458 H 0.51327 0.9554 1.00448 0.0
C459 C 0.53322 0.8551 0.27841 0.0
C460 C 0.52798 0.88486 0.0989 0.0
H461 H 0.56071 0.91477 1.00161 0.0
C462 C 0.50994 0.89299 0.07137 0.0
C463 C 0.54652 0.89271 0.07258 0.0
C464 C 0.56643 0.88406 0.09701 0.0
C465 C 0.5099 0.90879 0.01924 0.0
C466 C 0.52843 0.91701 0.9944 0.0
C467 C 0.54649 0.90871 0.02117 0.0
C468 C 0.52936 0.93365 0.93854 0.0
C469 C 0.48998 0.91622 0.98995 0.0
C470 C 0.53899 0.93063 0.87059 0.0
C471 C 0.539 0.94572 0.81628 0.0
C472 C 0.52946 0.96429 0.82868 0.0
C473 C 0.52045 0.96761 0.8977 0.0
C474 C 0.52043 0.95247 0.95205 0.0
H475 H 0.47766 0.90519 1.00013 0.0
H476 H 0.48596 0.93044 0.01802 0.0
H477 H 0.49086 0.91929 0.92985 0.0
H478 H 0.5461 0.91634 0.85879 0.0
H479 H 0.54616 0.94269 0.7639 0.0
H480 H 0.70205 0.48304 0.20251 0.0
H481 H 0.6761 0.48696 0.1079 0.0
H482 H 0.67306 0.5505 0.15334 0.0
H483 H 0.69862 0.54647 0.24993 0.0
H484 H 0.63627 0.53528 0.14205 0.0
H485 H 0.67997 0.5088 0.9026 0.0
H486 H 0.67965 0.49044 0.97525 0.0
H487 H 0.69165 0.51444 0.98983 0.0
C488 C 0.69611 0.49792 0.19139 0.0
C489 C 0.70287 0.51452 0.2323 0.0
C490 C 0.6813 0.50017 0.13695 0.0
C491 C 0.67289 0.51914 0.12166 0.0
C492 C 0.67944 0.53575 0.16316 0.0
H493 H 0.59443 0.5367 0.73512 0.0
H494 H 0.62218 0.53896 0.82419 0.0
C495 C 0.69418 0.53346 0.21812 0.0
C496 C 0.65656 0.52135 0.06519 0.0
H497 H 0.6441 0.50995 0.88725 0.0
C498 C 0.63809 0.5299 0.08616 0.0
C499 C 0.65888 0.51472 0.99157 0.0
C500 C 0.67868 0.50679 0.96322 0.0
C501 C 0.62178 0.53134 0.03672 0.0
C502 C 0.62371 0.52355 0.96452 0.0
C503 C 0.64241 0.51567 0.94274 0.0
C504 C 0.60648 0.52301 0.91132 0.0
C505 C 0.60269 0.54141 0.06231 0.0
C506 C 0.58835 0.51325 0.93004 0.0
C507 C 0.57247 0.51206 0.87937 0.0
C508 C 0.57439 0.52037 0.80829 0.0
C509 C 0.59248 0.53016 0.78943 0.0
C510 C 0.60837 0.53143 0.84034 0.0
H511 H 0.60574 0.55215 0.10772 0.0
H512 H 0.5952 0.54966 0.01658 0.0
H513 H 0.59212 0.5298 0.08358 0.0
H514 H 0.5866 0.50615 0.98348 0.0
H515 H 0.5588 0.50426 0.89548 0.0
H516 H 0.03515 0.67569 0.29276 0.0
H517 H 0.03314 0.64823 0.20321 0.0
H518 H 0.9928 0.68361 0.06941 0.0
H519 H 0.99451 0.71096 0.15887 0.0
H520 H 0.99747 0.62701 0.1485 0.0
H521 H 0.03964 0.66741 0.92787 0.0
H522 H 0.04051 0.67509 0.0231 0.0
H523 H 1.01879 0.68068 0.96786 0.0
C524 C 0.02576 0.67755 0.24441 0.0
C525 C 1.01509 0.69557 0.23318 0.0
C526 C 0.02463 0.66186 0.1933 0.0
C527 C 1.013 0.66392 0.12916 0.0
C528 C 1.0021 0.68178 0.118 0.0
H529 H 0.9993 0.58748 0.74157 0.0
H530 H 0.99683 0.61442 0.83282 0.0
C531 C 1.00311 0.69745 0.16942 0.0
C532 C 1.01243 0.64741 0.07394 0.0
H533 H 0.0267 0.63536 0.89873 0.0
C534 C 1.00385 0.62882 0.09386 0.0
C535 C 0.02068 0.64979 1.00255 0.0
C536 C 0.03058 0.66924 0.97883 0.0
C537 C 1.00312 0.61263 0.04413 0.0
C538 C 1.0117 0.61488 0.97307 0.0
C539 C 0.02013 0.63356 0.95306 0.0
C540 C 1.0124 0.59804 0.91893 0.0
C541 C 0.99277 0.5934 0.06777 0.0
C542 C 0.022 0.5798 0.93655 0.0
C543 C 0.02335 0.56435 0.88451 0.0
C544 C 1.01533 0.56689 0.8134 0.0
C545 C 1.00565 0.58509 0.79586 0.0
C546 C 1.00424 0.60051 0.84799 0.0
H547 H 0.98186 0.59609 0.11305 0.0
H548 H 0.98466 0.58633 0.02105 0.0
H549 H 1.00423 0.58262 0.08836 0.0
H550 H 0.02884 0.57763 0.99014 0.0
H551 H 0.03097 0.55053 0.89957 0.0
H552 H 0.95737 0.23896 0.16943 0.0
H553 H 0.93872 0.21999 0.26084 0.0
H554 H 0.96874 0.25268 0.43427 0.0
H555 H 0.98881 0.27059 0.3421 0.0
H556 H 0.97735 0.21675 0.44892 0.0
H557 H 0.89606 0.21485 0.40652 0.0
H558 H 0.90683 0.21154 0.31723 0.0
H559 H 0.91131 0.23468 0.36681 0.0
C560 C 0.95962 0.24252 0.22703 0.0
C561 C 0.9751 0.25568 0.24865 0.0
C562 C 0.94856 0.23191 0.27967 0.0
C563 C 0.95231 0.2347 0.3551 0.0
C564 C 0.96565 0.2501 0.37649 0.0
H565 H 0.95399 0.12276 0.61011 0.0
H566 H 0.9439 0.15804 0.59683 0.0
C567 C 0.9771 0.26042 0.32364 0.0
C568 C 0.94692 0.21824 0.40746 0.0
H569 H 0.91216 0.18067 0.42874 0.0
C570 C 0.96278 0.20936 0.44715 0.0
C571 C 0.92792 0.20847 0.40625 0.0
C572 C 0.90958 0.21812 0.37241 0.0
C573 C 0.96101 0.18998 0.4769 0.0
C574 C 0.94281 0.17922 0.46718 0.0
C575 C 0.92621 0.18885 0.4349 0.0
C576 C 0.94237 0.15717 0.47795 0.0
C577 C 0.97932 0.1804 0.51189 0.0
C578 C 0.94361 0.14479 0.41572 0.0
C579 C 0.94942 0.1247 0.42303 0.0
C580 C 0.95413 0.11677 0.49275 0.0
C581 C 0.95082 0.12865 0.55557 0.0
C582 C 0.94493 0.14872 0.5482 0.0
H583 H 0.99279 0.19034 0.50965 0.0
H584 H 0.9761 0.17689 0.57055 0.0
H585 H 0.98299 0.16606 0.48383 0.0
H586 H 0.94177 0.15111 0.36098 0.0
H587 H 0.95186 0.11595 0.3737 0.0
H588 H 0.25829 0.99741 0.32493 0.0
H589 H 0.27221 0.99069 0.44748 0.0
H590 H 0.31153 0.04217 0.42364 0.0
H591 H 0.29719 0.0493 0.30339 0.0
H592 H 0.30909 0.97945 0.45383 0.0
H593 H 0.30457 0.04343 0.64031 0.0
H594 H 0.28722 0.04062 0.5642 0.0
H595 H 0.311 0.05353 0.55186 0.0
C596 C 0.26928 1.00777 0.34741 0.0
C597 C 0.27698 0.02365 0.30424 0.0
C598 C 0.2772 1.00393 0.41749 0.0
C599 C 0.29285 1.01596 0.44537 0.0
C600 C 0.29915 0.0329 0.40472 0.0
H601 H 0.40476 0.02319 0.49784 0.0
H602 H 0.36835 0.02556 0.50784 0.0
C603 C 0.29122 0.03677 0.33508 0.0
C604 C 0.30606 1.00845 0.50529 0.0
H605 H 0.3394 0.02787 0.6287 0.0
C606 C 0.31516 0.98962 0.49478 0.0
C607 C 0.31375 0.0214 0.56011 0.0
C608 C 0.30338 0.04076 0.58011 0.0
C609 C 0.33368 0.98503 0.52771 0.0
C610 C 0.34306 0.9996 0.5727 0.0
C611 C 0.33236 1.01692 0.59275 0.0
C612 C 0.3652 0.99982 0.58058 0.0
C613 C 0.34425 0.96584 0.50628 0.0
C614 C 0.37555 0.9848 0.61963 0.0
C615 C 0.39652 0.98336 0.61374 0.0
C616 C 0.40735 0.99697 0.56897 0.0
C617 C 0.39693 1.01256 0.53316 0.0
C618 C 0.3761 1.01398 0.53904 0.0
H619 H 0.3349 0.95628 0.46959 0.0
H620 H 0.35859 0.96943 0.47751 0.0
H621 H 0.34793 0.95698 0.55645 0.0
H622 H 0.36738 0.97386 0.65252 0.0
H623 H 0.40423 0.97147 0.64338 0.0
H624 H 0.45508 0.28734 0.23815 0.0
H625 H 0.45466 0.30667 0.35088 0.0
H626 H 0.49802 0.26617 0.44788 0.0
H627 H 0.5001 0.24794 0.33158 0.0
H628 H 0.45291 0.30986 0.49405 0.0
H629 H 0.53409 0.31254 0.41185 0.0
H630 H 0.51612 0.29872 0.35817 0.0
H631 H 0.52438 0.28915 0.44625 0.0
C632 C 0.46423 0.28226 0.28401 0.0
C633 C 0.47856 0.26699 0.27455 0.0
C634 C 0.46379 0.29319 0.34911 0.0
C635 C 0.47732 0.28863 0.40625 0.0
C636 C 0.4883 0.27061 0.40281 0.0
H637 H 0.49664 0.40659 0.62102 0.0
H638 H 0.48882 0.37039 0.62116 0.0
C639 C 0.48928 0.26003 0.33646 0.0
C640 C 0.48328 0.30522 0.45622 0.0
H641 H 0.52104 0.33994 0.47122 0.0
C642 C 0.46796 0.31621 0.49113 0.0
C643 C 0.50304 0.31348 0.45284 0.0
C644 C 0.52036 0.30298 0.41515 0.0
C645 C 0.47117 0.33617 0.51365 0.0
C646 C 0.49035 0.34494 0.50295 0.0
C647 C 0.50628 0.33309 0.47776 0.0
C648 C 0.49359 0.36692 0.5043 0.0
C649 C 0.45367 0.3483 0.54205 0.0
C650 C 0.4989 0.37679 0.43847 0.0
C651 C 0.50366 0.39721 0.43835 0.0
C652 C 0.50305 0.40818 0.50403 0.0
C653 C 0.49713 0.39843 0.56963 0.0
C654 C 0.49258 0.37786 0.56986 0.0
H655 H 0.43932 0.33966 0.54117 0.0
H656 H 0.45673 0.35294 0.5996 0.0
H657 H 0.45179 0.36217 0.50842 0.0
H658 H 0.49967 0.36857 0.38717 0.0
H659 H 0.50793 0.40439 0.38695 0.0
H660 H 0.27911 0.53648 0.35562 0.0
H661 H 0.26186 0.55408 0.4551 0.0
H662 H 0.22467 0.58475 0.29542 0.0
H663 H 0.24302 0.56873 0.19607 0.0
H664 H 0.22649 0.60608 0.41971 0.0
H665 H 0.20972 0.52562 0.4875 0.0
H666 H 0.23528 0.53378 0.49859 0.0
H667 H 0.22436 0.53247 0.40793 0.0
C668 C 0.26792 0.54768 0.34154 0.0
C669 C 0.26178 0.55056 0.26804 0.0
C670 C 0.2579 0.55758 0.39862 0.0
C671 C 0.24127 0.56989 0.38281 0.0
C672 C 0.23717 0.57497 0.30923 0.0
H673 H 0.12326 0.58795 0.42251 0.0
H674 H 0.1593 0.59462 0.41361 0.0
C675 C 0.24749 0.56555 0.25232 0.0
C676 C 0.22559 0.57404 0.43887 0.0
H677 H 0.18773 0.54957 0.5296 0.0
C678 C 0.2183 0.59379 0.4456 0.0
C679 C 0.2149 0.558 0.4731 0.0
C680 C 0.22131 0.53627 0.46634 0.0
C681 C 0.1997 0.59767 0.47947 0.0
C682 C 0.18823 0.58139 0.50727 0.0
C683 C 0.19656 0.56203 0.50797 0.0
C684 C 0.16636 0.58292 0.52219 0.0
C685 C 0.19202 0.61898 0.48154 0.0
C686 C 0.15822 0.57446 0.58665 0.0
C687 C 0.13765 0.57018 0.59112 0.0
C688 C 0.12487 0.57429 0.53107 0.0
C689 C 0.13278 0.58431 0.46915 0.0
C690 C 0.15336 0.58851 0.46462 0.0
H691 H 0.20469 0.62984 0.48659 0.0
H692 H 0.18404 0.62237 0.42921 0.0
H693 H 0.1814 0.62125 0.528 0.0
H694 H 0.16801 0.5698 0.63133 0.0
H695 H 0.13208 0.56232 0.63944 0.0
H696 H 0.04832 0.75366 0.07759 0.0
H697 H 0.06053 0.76658 0.95827 0.0
H698 H 1.01801 0.81544 0.97092 0.0
H699 H 1.00577 0.80258 0.08872 0.0
H700 H 0.02523 0.79936 0.82113 0.0
H701 H 0.09522 0.81856 0.97655 0.0
H702 H 0.0865 0.79293 0.97097 0.0
H703 H 0.07305 0.81069 0.02645 0.0
C704 C 0.04129 0.76685 0.05362 0.0
C705 C 0.0264 0.77741 0.09261 0.0
C706 C 0.04826 0.77418 0.9857 0.0
C707 C 0.04027 0.79203 0.95622 0.0
C708 C 0.02432 0.80158 0.99257 0.0
H709 H 0.02688 0.89847 0.84806 0.0
H710 H 0.02691 0.86208 0.83754 0.0
C711 C 1.01748 0.79438 0.0602 0.0
C712 C 0.05023 0.80313 0.89556 0.0
H713 H 0.08479 0.84089 0.88467 0.0
C714 C 0.03878 0.80791 0.83289 0.0
C715 C 0.06825 0.81388 0.90948 0.0
C716 C 0.08158 0.80884 0.97432 0.0
C717 C 0.04315 0.82516 0.79091 0.0
C718 C 0.05888 0.83804 0.81399 0.0
C719 C 0.07239 0.83126 0.86809 0.0
C720 C 0.05795 0.86003 0.80083 0.0
C721 C 0.0297 0.83049 0.72682 0.0
C722 C 0.07534 0.8712 0.78357 0.0
C723 C 0.07541 0.89216 0.79101 0.0
C724 C 0.05817 0.90212 0.81686 0.0
C725 C 0.04048 0.89108 0.82948 0.0
C726 C 0.04038 0.87027 0.82178 0.0
H727 H 0.02584 0.81677 0.69506 0.0
H728 H 1.01538 0.83687 0.74776 0.0
H729 H 0.03693 0.84163 0.68931 0.0
H730 H 0.08913 0.86361 0.76825 0.0
H731 H 0.08921 0.90043 0.78056 0.0
H732 H 0.78832 0.03471 0.10324 0.0
H733 H 0.77433 0.04393 0.9822 0.0
H734 H 0.7272 0.99976 0.01182 0.0
H735 H 0.7412 0.9904 0.13113 0.0
H736 H 0.74103 1.00459 0.86059 0.0
H737 H 0.72201 0.07721 0.99727 0.0
H738 H 0.74782 0.06931 0.98908 0.0
H739 H 0.73123 0.05644 0.05177 0.0
C740 C 0.77532 0.02662 0.08259 0.0
C741 C 0.76552 1.01215 0.12674 0.0
C742 C 0.76735 0.03192 0.01374 0.0
C743 C 0.7496 0.0227 0.98865 0.0
C744 C 0.74093 1.00704 0.03011 0.0
H745 H 0.6415 1.00757 0.90644 0.0
H746 H 0.67784 1.00732 0.89527 0.0
C747 C 0.74879 1.00183 0.09857 0.0
C748 C 0.73766 0.03111 0.92719 0.0
H749 H 0.69924 0.06465 0.91108 0.0
C750 C 0.7324 1.01821 0.86928 0.0
C751 C 0.72673 0.04915 0.93726 0.0
C752 C 0.73213 0.06392 0.99702 0.0
C753 C 0.71464 0.02129 0.82911 0.0
C754 C 0.70186 0.03735 0.84867 0.0
C755 C 0.70891 0.05209 0.89731 0.0
C756 C 0.67982 0.03595 0.83809 0.0
C757 C 0.70867 1.00631 0.77109 0.0
C758 C 0.66873 0.05218 0.80978 0.0
C759 C 0.64771 0.05234 0.81596 0.0
C760 C 0.63752 0.03644 0.85177 0.0
C761 C 0.64872 0.01993 0.87752 0.0
C762 C 0.66958 0.01969 0.87064 0.0
H763 H 0.72217 1.00004 0.74339 0.0
H764 H 0.70043 0.99361 0.79734 0.0
H765 H 0.69875 1.01337 0.72912 0.0
H766 H 0.67638 0.06502 0.78549 0.0
H767 H 0.63951 0.06511 0.79416 0.0
H768 H 0.56702 0.77334 0.12731 0.0
H769 H 0.57679 0.75614 0.01358 0.0
H770 H 0.52114 0.72235 0.02021 0.0
H771 H 0.51134 0.73971 0.1317 0.0
H772 H 0.58457 0.71837 0.02455 0.0
H773 H 0.52906 0.72318 0.80411 0.0
H774 H 0.53102 0.74257 0.87333 0.0
H775 H 0.51477 0.72099 0.88725 0.0
C776 C 0.55654 0.76289 0.10224 0.0
C777 C 0.5386 0.75752 0.13846 0.0
C778 C 0.56211 0.75312 0.03728 0.0
C779 C 0.54969 0.73801 0.00772 0.0
C780 C 0.53083 0.73426 0.04029 0.0
H781 H 0.54469 0.62638 0.04885 0.0
H782 H 0.55524 0.66147 0.03877 0.0
C783 C 0.52533 0.74394 0.10493 0.0
C784 C 0.55799 0.7226 0.95751 0.0
H785 H 0.53848 0.6872 0.84293 0.0
C786 C 0.57503 0.71201 0.98209 0.0
C787 C 0.54625 0.71444 0.89989 0.0
C788 C 0.52941 0.72613 0.86428 0.0
C789 C 0.57813 0.69201 0.96128 0.0
C790 C 0.56373 0.68255 0.91583 0.0
C791 C 0.5491 0.69428 0.88017 0.0
C792 C 0.5603 0.66062 0.92085 0.0
C793 C 0.59546 0.68052 0.99459 0.0
C794 C 0.55946 0.64858 0.8578 0.0
C795 C 0.55342 0.62845 0.86365 0.0
C796 C 0.54769 0.62032 0.93233 0.0
C797 C 0.54893 0.63232 0.99535 0.0
C798 C 0.5552 0.65227 0.98966 0.0
H799 H 0.60877 0.6905 1.00168 0.0
H800 H 0.59105 0.67488 0.04996 0.0
H801 H 0.59977 0.66749 0.95997 0.0
H802 H 0.56301 0.65486 0.80413 0.0
H803 H 0.55247 0.61948 0.81416 0.0
H804 H 0.76656 0.57325 0.12489 0.0
H805 H 0.78469 0.58515 0.0149 0.0
H806 H 0.81244 0.5267 0.99475 0.0
H807 H 0.79429 0.51501 0.10282 0.0
H808 H 0.82315 0.58853 0.02833 0.0
H809 H 0.81326 0.54233 0.78401 0.0
H810 H 0.79379 0.54394 0.85348 0.0
H811 H 0.81327 0.52503 0.85976 0.0
C812 C 0.7758 0.56278 0.09436 0.0
C813 C 0.77928 0.54332 0.12184 0.0
C814 C 0.78611 0.56955 0.03161 0.0
C815 C 0.79985 0.55683 0.99584 0.0
C816 C 0.80156 0.53672 0.01954 0.0
H817 H 0.90944 0.53765 0.03769 0.0
H818 H 0.87593 0.55249 0.03103 0.0
C819 C 0.79139 0.53005 0.08205 0.0
C820 C 0.81625 0.56524 0.94953 0.0
H821 H 0.84994 0.54597 0.82776 0.0
C822 C 0.82864 0.57992 0.98194 0.0
C823 C 0.82337 0.55481 0.88708 0.0
C824 C 0.81 0.54084 0.84382 0.0
C825 C 0.84905 0.58132 0.96336 0.0
C826 C 0.85706 0.56763 0.91202 0.0
C827 C 0.8439 0.55593 0.8694 0.0
C828 C 0.87836 0.5614 0.91633 0.0
C829 C 0.86231 0.59583 1.00476 0.0
C830 C 0.89073 0.56126 0.85381 0.0
C831 C 0.90989 0.55259 0.85745 0.0
C832 C 0.91675 0.54374 0.92349 0.0
C833 C 0.90446 0.54426 0.98617 0.0
C834 C 0.88545 0.553 0.98258 0.0
H835 H 0.85398 0.60987 0.0174 0.0
H836 H 0.86688 0.5889 0.05795 0.0
H837 H 0.87609 0.59968 0.97292 0.0
H838 H 0.88538 0.56745 0.80212 0.0
H839 H 0.91904 0.55218 0.80808 0.0
H840 H 1.00781 0.24251 0.95606 0.0
H841 H 1.01212 0.21009 0.89302 0.0
H842 H 0.04192 0.1861 0.08525 0.0
H843 H 0.03739 0.21833 0.14825 0.0
H844 H 0.04567 0.18377 0.86095 0.0
H845 H 0.99197 0.14974 0.06051 0.0
H846 H 0.99524 0.1766 0.05094 0.0
H847 H 1.01326 0.16198 0.10198 0.0
C848 C 1.01591 0.23051 0.98362 0.0
C849 C 0.02254 0.23296 0.05651 0.0
C850 C 1.01822 0.21195 0.94791 0.0
C851 C 0.02701 0.19552 0.98489 0.0
C852 C 0.03481 0.19843 0.05598 0.0
H853 H 0.03661 0.06681 0.9035 0.0
H854 H 0.03816 0.1009 0.95342 0.0
C855 C 0.03247 0.21691 0.09161 0.0
C856 C 0.0267 0.17501 0.95172 0.0
H857 H 1.00789 0.12752 0.97772 0.0
C858 C 0.03737 0.17148 0.88629 0.0
C859 C 1.01581 0.15895 0.98463 0.0
C860 C 1.00326 0.16196 0.05301 0.0
C861 C 0.03785 0.15223 0.85398 0.0
C862 C 0.02702 0.13613 0.88715 0.0
C863 C 1.01627 0.13976 0.95235 0.0
C864 C 0.02653 0.11543 0.85536 0.0
C865 C 0.05039 0.14921 0.78565 0.0
C866 C 1.01923 0.11207 0.78383 0.0
C867 C 1.01836 0.09254 0.75501 0.0
C868 C 0.02461 0.07584 0.79717 0.0
C869 C 0.03169 0.07924 0.86917 0.0
C870 C 0.03261 0.09877 0.89788 0.0
H871 H 0.06205 0.16112 0.77945 0.0
H872 H 0.05794 0.13432 0.78657 0.0
H873 H 0.04046 0.14987 0.73652 0.0
H874 H 1.01389 0.12452 0.75049 0.0
H875 H 1.01256 0.09058 0.69994 0.0
H876 H 0.29288 1.00468 0.97549 0.0
H877 H 0.32508 1.0035 0.90803 0.0
H878 H 0.34738 0.05305 0.03689 0.0
H879 H 0.31546 0.05436 0.10371 0.0
H880 H 0.34973 0.034 0.82664 0.0
H881 H 0.38684 1.00571 0.08052 0.0
H882 H 0.35984 1.00547 0.06862 0.0
H883 H 0.37259 0.0284 0.09262 0.0
C884 C 0.30447 1.01564 0.98807 0.0
C885 C 0.30162 0.02948 0.04563 0.0
C886 C 0.32293 1.01488 0.94977 0.0
C887 C 0.33887 0.02791 0.96838 0.0
C888 C 0.33552 0.04257 0.02237 0.0
H889 H 0.46709 0.04109 0.88684 0.0
H890 H 0.43209 0.04307 0.92872 0.0
C891 C 0.31719 0.04333 0.06045 0.0
C892 C 0.35943 0.02558 0.93551 0.0
H893 H 0.40826 1.01519 0.9821 0.0
C894 C 0.36253 0.02976 0.86038 0.0
C895 C 0.37617 0.01999 0.97935 0.0
C896 C 0.37376 1.01445 0.05962 0.0
C897 C 0.382 0.02926 0.82876 0.0
C898 C 0.39885 0.02403 0.87315 0.0
C899 C 0.39555 0.01941 0.94788 0.0
C900 C 0.42009 0.02348 0.84435 0.0
C901 C 0.38434 0.0351 0.74876 0.0
C902 C 0.42531 1.01173 0.78304 0.0
C903 C 0.44536 1.01075 0.75855 0.0
C904 C 0.46083 0.02125 0.79531 0.0
C905 C 0.45563 0.03283 0.85705 0.0
C906 C 0.43555 0.03397 0.88106 0.0
H907 H 0.37135 0.04412 0.72879 0.0
H908 H 0.39838 0.04387 0.73956 0.0
H909 H 0.38507 0.02127 0.71497 0.0
H910 H 0.41399 1.00289 0.75494 0.0
H911 H 0.44882 1.00133 0.71181 0.0
H912 H 0.53007 0.28693 0.9994 0.0
H913 H 0.53443 0.31942 0.93537 0.0
H914 H 0.47252 0.33427 0.98151 0.0
H915 H 0.46797 0.30181 0.04247 0.0
H916 H 0.48209 0.34751 0.84901 0.0
H917 H 0.54179 0.37155 0.04392 0.0
H918 H 0.54782 0.34927 0.99308 0.0
H919 H 0.52726 0.34888 0.05764 0.0
C920 C 0.51729 0.29694 0.99418 0.0
C921 C 0.49873 0.29182 0.02675 0.0
C922 C 0.51987 0.31569 0.9586 0.0
C923 C 0.50397 0.32972 0.95528 0.0
C924 C 0.48513 0.32397 0.98369 0.0
H925 H 0.50593 0.46023 0.91799 0.0
H926 H 0.50375 0.42493 0.95671 0.0
C927 C 0.48255 0.30533 0.01874 0.0
C928 C 0.50677 0.35063 0.92507 0.0
H929 H 0.53319 0.3945 0.94946 0.0
C930 C 0.4934 0.3577 0.87065 0.0
C931 C 0.5212 0.36424 0.95421 0.0
C932 C 0.53522 0.35823 0.01591 0.0
C933 C 0.49398 0.37777 0.84507 0.0
C934 C 0.50866 0.39121 0.87312 0.0
C935 C 0.52208 0.38419 0.92727 0.0
C936 C 0.50986 0.41277 0.84875 0.0
C937 C 0.47827 0.38475 0.79071 0.0
C938 C 0.51419 0.41786 0.77517 0.0
C939 C 0.5153 0.43809 0.75262 0.0
C940 C 0.51234 0.4538 0.80333 0.0
C941 C 0.50819 0.44864 0.87717 0.0
C942 C 0.507 0.4284 0.89955 0.0
H943 H 0.46603 0.3735 0.78341 0.0
H944 H 0.47155 0.39918 0.80893 0.0
H945 H 0.48544 0.38744 0.7365 0.0
H946 H 0.517 0.40616 0.73526 0.0
H947 H 0.51878 0.44138 0.69553 0.0
H948 H 0.2492 0.52343 0.96609 0.0
H949 H 0.2168 0.51993 0.90122 0.0
H950 H 0.19282 0.48658 0.08588 0.0
H951 H 0.225 0.49032 0.15078 0.0
H952 H 0.19046 0.48701 0.86052 0.0
H953 H 0.15611 0.53629 0.07158 0.0
H954 H 0.18301 0.53347 0.06201 0.0
H955 H 0.16843 0.51443 0.10853 0.0
C956 C 0.23721 0.51474 0.9915 0.0
C957 C 0.23967 0.50688 0.06296 0.0
C958 C 0.21865 0.51289 0.95474 0.0
C959 C 0.20219 0.50332 0.98918 0.0
C960 C 0.20513 0.49432 0.05857 0.0
H961 H 0.07335 0.49327 0.91015 0.0
H962 H 0.10785 0.49126 0.95668 0.0
C963 C 0.22361 0.49621 0.09526 0.0
C964 C 0.18163 0.50402 0.95558 0.0
H965 H 0.13388 0.52143 0.98572 0.0
C966 C 0.1781 0.49459 0.88769 0.0
C967 C 0.16545 0.514 0.99075 0.0
C968 C 0.1684 0.5253 0.06189 0.0
C969 C 0.15876 0.49436 0.85526 0.0
C970 C 0.14253 0.50419 0.89089 0.0
C971 C 0.14618 0.51379 0.95839 0.0
C972 C 0.1216 0.50463 0.86 0.0
C973 C 0.15578 0.48308 0.7842 0.0
C974 C 0.11762 0.51291 0.79004 0.0
C975 C 0.09782 0.51401 0.763 0.0
C976 C 0.08145 0.50703 0.8056 0.0
C977 C 0.0855 0.49878 0.87563 0.0
C978 C 0.10528 0.49762 0.90243 0.0
H979 H 0.16792 0.47188 0.77513 0.0
H980 H 0.14104 0.47516 0.78358 0.0
H981 H 0.1561 0.49391 0.73749 0.0
H982 H 0.12978 0.51893 0.75678 0.0
H983 H 0.09534 0.52065 0.70916 0.0
H984 H 0.98864 0.79161 0.40412 0.0
H985 H 0.98759 0.82203 0.48055 0.0
H986 H 0.04466 0.84112 0.39041 0.0
H987 H 0.04611 0.81062 0.31652 0.0
H988 H 0.04242 0.84984 0.53513 0.0
H989 H 0.97311 0.87633 0.39366 0.0
H990 H 0.97069 0.8525 0.43998 0.0
H991 H 0.98724 0.85492 0.36203 0.0
C992 C 1.00115 0.80209 0.40188 0.0
C993 C 1.01731 0.79878 0.35327 0.0
C994 C 1.00042 0.81963 0.44488 0.0
C995 C 1.01579 0.83424 0.43992 0.0
C996 C 0.03249 0.83028 0.3949 0.0
H997 H 1.01069 0.96279 0.50469 0.0
H998 H 1.01025 0.92801 0.46124 0.0
C999 C 0.03325 0.81282 0.35228 0.0
C1000 C 1.01432 0.8541 0.47818 0.0
H1001 H 0.98663 0.89742 0.48476 0.0
C1002 C 0.03015 0.86021 0.52446 0.0
C1003 C 0.99846 0.8678 0.46369 0.0
C1004 C 0.98148 0.86271 0.41168 0.0
C1005 C 0.0308 0.87963 0.5553 0.0
C1006 C 1.01488 0.89334 0.54103 0.0
C1007 C 0.99884 0.88703 0.49598 0.0
C1008 C 1.01497 0.91457 0.56883 0.0
C1009 C 0.04901 0.88546 0.60029 0.0
C1010 C 1.01746 0.91885 0.64409 0.0
C1011 C 1.01804 0.9388 0.66889 0.0
C1012 C 1.01565 0.95503 0.61936 0.0
C1013 C 1.01253 0.95073 0.54445 0.0
C1014 C 1.01228 0.93077 0.51953 0.0
H1015 H 0.06209 0.87556 0.58888 0.0
H1016 H 0.05354 0.90129 0.58939 0.0
H1017 H 0.04531 0.8839 0.65957 0.0
H1018 H 1.01888 0.90677 0.68396 0.0
H1019 H 0.02026 0.94149 0.72713 0.0
H1020 H 0.74659 0.97709 0.42295 0.0
H1021 H 0.71392 0.97665 0.48735 0.0
H1022 H 0.70502 0.03901 0.42971 0.0
H1023 H 0.73727 0.03929 0.36421 0.0
H1024 H 0.69485 0.99786 0.59995 0.0
H1025 H 0.65674 1.01238 0.33368 0.0
H1026 H 0.6831 1.00605 0.33963 0.0
H1027 H 0.67488 0.0314 0.35651 0.0
C1028 C 0.73789 0.99083 0.42597 0.0
C1029 C 0.74453 1.00824 0.38876 0.0
C1030 C 0.71914 0.99055 0.46231 0.0
C1031 C 0.70665 1.00766 0.46193 0.0
C1032 C 0.71403 0.02545 0.42937 0.0
H1033 H 0.59542 0.02849 0.7099 0.0
H1034 H 0.63028 0.0271 0.66709 0.0
C1035 C 0.73261 0.02568 0.39268 0.0
C1036 C 0.6855 1.00671 0.49106 0.0
H1037 H 0.63637 1.01431 0.4408 0.0
C1038 C 0.68207 1.00143 0.56514 0.0
C1039 C 0.66864 1.01089 0.44549 0.0
C1040 C 0.67095 1.01529 0.36426 0.0
C1041 C 0.66242 1.00077 0.59513 0.0
C1042 C 0.64564 1.00583 0.55021 0.0
C1043 C 0.6491 1.01063 0.47577 0.0
C1044 C 0.62439 1.00615 0.57862 0.0
C1045 C 0.65983 0.99428 0.67433 0.0
C1046 C 0.60907 0.9953 0.54252 0.0
C1047 C 0.589 0.99616 0.56692 0.0
C1048 C 0.58369 1.00788 0.62821 0.0
C1049 C 0.599 0.01884 0.66392 0.0
C1050 C 0.61904 1.01805 0.63938 0.0
H1051 H 0.67265 0.98487 0.69323 0.0
H1052 H 0.65926 1.00783 0.70972 0.0
H1053 H 0.64567 0.98561 0.68234 0.0
H1054 H 0.61265 0.98611 0.49523 0.0
H1055 H 0.57765 0.98758 0.53781 0.0
H1056 H 0.50226 0.72245 0.33859 0.0
H1057 H 0.50223 0.69131 0.41081 0.0
H1058 H 0.5516 0.71372 0.54125 0.0
H1059 H 0.55176 0.74506 0.46814 0.0
H1060 H 0.55869 0.67534 0.48614 0.0
H1061 H 0.48371 0.67717 0.61868 0.0
H1062 H 0.48247 0.68143 0.52109 0.0
H1063 H 0.49532 0.69929 0.57872 0.0
C1064 C 0.51281 0.72097 0.38382 0.0
C1065 C 0.52694 0.73634 0.39783 0.0
C1066 C 0.51274 0.70313 0.42534 0.0
C1067 C 0.52679 0.70009 0.48218 0.0
C1068 C 0.54052 0.71568 0.49802 0.0
H1069 H 0.52255 0.5901 0.75767 0.0
H1070 H 0.52372 0.62531 0.71687 0.0
C1071 C 0.54049 0.73369 0.45668 0.0
C1072 C 0.52803 0.68005 0.52042 0.0
H1073 H 0.49981 0.64491 0.61328 0.0
C1074 C 0.54587 0.66881 0.51468 0.0
C1075 C 0.51144 0.67145 0.55852 0.0
C1076 C 0.49222 0.68303 0.57036 0.0
C1077 C 0.54728 0.64905 0.54307 0.0
C1078 C 0.53032 0.64004 0.5775 0.0
C1079 C 0.51277 0.6516 0.58611 0.0
C1080 C 0.5303 0.61853 0.603 0.0
C1081 C 0.56699 0.63799 0.5359 0.0
C1082 C 0.53346 0.60281 0.55277 0.0
C1083 C 0.53272 0.58262 0.57584 0.0
C1084 C 0.52877 0.57754 0.6499 0.0
C1085 C 0.52573 0.59333 0.70028 0.0
C1086 C 0.52635 0.61354 0.67699 0.0
H1087 H 0.57982 0.64856 0.52828 0.0
H1088 H 0.56993 0.62847 0.58518 0.0
H1089 H 0.56633 0.62807 0.48697 0.0
H1090 H 0.53612 0.60614 0.49513 0.0
H1091 H 0.53501 0.57097 0.53523 0.0
H1092 H 0.81375 0.55853 0.34665 0.0
H1093 H 0.84486 0.5551 0.41731 0.0
H1094 H 0.82577 0.49642 0.49249 0.0
H1095 H 0.79447 0.49973 0.42035 0.0
H1096 H 0.85375 0.54878 0.56461 0.0
H1097 H 0.88018 0.48476 0.39444 0.0
H1098 H 0.85889 0.50005 0.36837 0.0
H1099 H 0.85627 0.48125 0.43921 0.0
C1100 C 0.81604 0.54496 0.3789 0.0
C1101 C 0.80168 0.52933 0.37733 0.0
C1102 C 0.83387 0.54302 0.41942 0.0
C1103 C 0.83796 0.52535 0.45929 0.0
C1104 C 0.82319 0.51007 0.46108 0.0
H1105 H 0.94619 0.51844 0.74363 0.0
H1106 H 0.91134 0.51923 0.7002 0.0
C1107 C 0.80519 0.51205 0.42056 0.0
C1108 C 0.85808 0.52291 0.49573 0.0
H1109 H 0.90192 0.49598 0.48796 0.0
C1110 C 0.86423 0.53712 0.54831 0.0
C1111 C 0.87193 0.50789 0.47386 0.0
C1112 C 0.86665 0.49268 0.41548 0.0
C1113 C 0.88378 0.5369 0.57877 0.0
C1114 C 0.89765 0.52186 0.55692 0.0
C1115 C 0.89139 0.50749 0.50505 0.0
C1116 C 0.91897 0.52127 0.5844 0.0
C1117 C 0.88957 0.55323 0.63221 0.0
C1118 C 0.93513 0.5216 0.5342 0.0
C1119 C 0.95515 0.52089 0.55892 0.0
C1120 C 0.9596 0.51982 0.63464 0.0
C1121 C 0.94342 0.51944 0.68493 0.0
C1122 C 0.92339 0.52002 0.6601 0.0
H1123 H 0.87926 0.56634 0.62865 0.0
H1124 H 0.8887 0.54711 0.68906 0.0
H1125 H 0.90522 0.55854 0.62229 0.0
H1126 H 0.93224 0.5225 0.47555 0.0
H1127 H 0.96715 0.52115 0.51852 0.0
loop_
_geom_bond_atom_site_label_1
_geom_bond_atom_site_label_2
_geom_bond_distance
_geom_bond_site_symmetry_2
_ccdc_geom_bond_type
H0 C7 0.929 . S
H1 C10 0.930 . S
H2 C12 0.929 . S
H3 C4 0.969 . S
C4 H3 0.969 . S
C4 O5 1.550 . S
C4 H6 0.973 . S
O5 C4 1.550 . S
O5 C11 1.412 . S
H6 C4 0.973 . S
C7 H0 0.929 . S
C7 C8 1.400 . S
C7 C9 1.364 . S
C8 C7 1.400 . S
C8 C12 1.377 . S
C9 C7 1.364 . S
C9 C10 1.374 . S
C10 H1 0.930 . S
C10 C9 1.374 . S
C10 C11 1.383 . S
C11 O5 1.412 . S
C11 C10 1.383 . S
C11 C12 1.394 . S
C12 H2 0.929 . S
C12 C8 1.377 . S
C12 C11 1.394 . S
H13 C20 0.928 . S
H14 C23 0.930 . S
H15 C25 0.928 1_655 S
H16 C17 0.969 . S
C17 H16 0.969 . S
C17 O18 1.550 1_455 S
C17 H19 0.973 1_455 S
O18 C17 1.550 1_655 S
O18 C24 1.406 1_655 S
H19 C17 0.973 1_655 S
C20 H13 0.928 . S
C20 C21 1.400 1_655 S
C20 C22 1.364 1_655 S
C21 C20 1.400 1_455 S
C21 C25 1.377 . S
C22 C20 1.364 1_455 S
C22 C23 1.374 1_455 S
C23 H14 0.930 . S
C23 C22 1.374 1_655 S
C23 C24 1.382 1_655 S
C24 O18 1.406 1_455 S
C24 C23 1.382 1_455 S
C24 C25 1.394 . S
C25 H15 0.928 1_455 S
C25 C21 1.377 . S
C25 C24 1.394 . S
H26 C33 0.928 . S
H27 C36 0.930 . S
H28 C38 0.928 1_565 S
H29 C30 0.969 . S
C30 H29 0.969 . S
C30 O31 1.550 1_545 S
C30 H32 0.973 1_545 S
O31 C30 1.550 1_565 S
O31 C37 1.406 1_565 S
H32 C30 0.973 1_565 S
C33 H26 0.928 . S
C33 C34 1.400 1_565 S
C33 C35 1.364 1_565 S
C34 C33 1.400 1_545 S
C34 C38 1.377 . S
C35 C33 1.364 1_545 S
C35 C36 1.374 1_545 S
C36 H27 0.930 . S
C36 C35 1.374 1_565 S
C36 C37 1.382 1_565 S
C37 O31 1.406 1_545 S
C37 C36 1.382 1_545 S
C37 C38 1.394 . S
C38 H28 0.928 1_545 S
C38 C34 1.377 . S
C38 C37 1.394 . S
H39 C46 0.929 . S
H40 C49 0.930 . S
H41 C51 0.929 . S
H42 C43 0.969 . S
C43 H42 0.969 . S
C43 O44 1.550 . S
C43 H45 0.973 . S
O44 C43 1.550 . S
O44 C50 1.412 . S
H45 C43 0.973 . S
C46 H39 0.929 . S
C46 C47 1.400 . S
C46 C48 1.364 . S
C47 C46 1.400 . S
C47 C51 1.377 . S
C48 C46 1.364 . S
C48 C49 1.374 . S
C49 H40 0.930 . S
C49 C48 1.374 . S
C49 C50 1.383 . S
C50 O44 1.412 . S
C50 C49 1.383 . S
C50 C51 1.394 . S
C51 H41 0.929 . S
C51 C47 1.377 . S
C51 C50 1.394 . S
H52 C59 0.929 . S
H53 C62 0.930 . S
H54 C64 0.929 . S
H55 C56 0.969 . S
C56 H55 0.969 . S
C56 O57 1.550 . S
C56 H58 0.973 . S
O57 C56 1.550 . S
O57 C63 1.412 . S
H58 C56 0.973 . S
C59 H52 0.929 . S
C59 C60 1.400 1_554 S
C59 C61 1.364 . S
C60 C59 1.400 1_556 S
C60 C64 1.377 . S
C61 C59 1.364 . S
C61 C62 1.374 . S
C62 H53 0.930 . S
C62 C61 1.374 . S
C62 C63 1.383 . S
C63 O57 1.412 . S
C63 C62 1.383 . S
C63 C64 1.394 1_554 S
C64 H54 0.929 . S
C64 C60 1.377 . S
C64 C63 1.394 1_556 S
H65 C72 0.929 1_655 S
H66 C75 0.930 . S
H67 C77 0.928 1_655 S
H68 C69 0.969 . S
C69 H68 0.969 . S
C69 O70 1.550 1_455 S
C69 H71 0.973 1_455 S
O70 C69 1.550 1_655 S
O70 C76 1.402 1_655 S
H71 C69 0.973 1_655 S
C72 H65 0.929 1_455 S
C72 C73 1.400 1_554 S
C72 C74 1.364 . S
C73 C72 1.400 1_556 S
C73 C77 1.377 . S
C74 C72 1.364 . S
C74 C75 1.374 1_455 S
C75 H66 0.930 . S
C75 C74 1.374 1_655 S
C75 C76 1.382 1_655 S
C76 O70 1.402 1_455 S
C76 C75 1.382 1_455 S
C76 C77 1.394 1_554 S
C77 H67 0.928 1_455 S
C77 C73 1.377 . S
C77 C76 1.394 1_556 S
H78 C85 0.929 1_565 S
H79 C88 0.930 . S
H80 C90 0.928 1_565 S
H81 C82 0.969 . S
C82 H81 0.969 . S
C82 O83 1.550 1_545 S
C82 H84 0.973 1_545 S
O83 C82 1.550 1_565 S
O83 C89 1.402 1_565 S
H84 C82 0.973 1_565 S
C85 H78 0.929 1_545 S
C85 C86 1.400 1_554 S
C85 C87 1.364 . S
C86 C85 1.400 1_556 S
C86 C90 1.377 . S
C87 C85 1.364 . S
C87 C88 1.374 1_545 S
C88 H79 0.930 . S
C88 C87 1.374 1_565 S
C88 C89 1.382 1_565 S
C89 O83 1.402 1_545 S
C89 C88 1.382 1_545 S
C89 C90 1.394 1_554 S
C90 H80 0.928 1_545 S
C90 C86 1.377 . S
C90 C89 1.394 1_556 S
H91 C98 0.929 . S
H92 C101 0.930 . S
H93 C103 0.929 . S
H94 C95 0.969 . S
C95 H94 0.969 . S
C95 O96 1.550 . S
C95 H97 0.973 . S
O96 C95 1.550 . S
O96 C102 1.412 . S
H97 C95 0.973 . S
C98 H91 0.929 . S
C98 C99 1.400 1_554 S
C98 C100 1.364 . S
C99 C98 1.400 1_556 S
C99 C103 1.377 . S
C100 C98 1.364 . S
C100 C101 1.374 . S
C101 H92 0.930 . S
C101 C100 1.374 . S
C101 C102 1.383 . S
C102 O96 1.412 . S
C102 C101 1.383 . S
C102 C103 1.394 1_554 S
C103 H93 0.929 . S
C103 C99 1.377 . S
C103 C102 1.394 1_556 S
C104 Eu105 2.835 . S
C104 C106 1.500 . S
C104 O124 1.258 . S
C104 O125 1.260 . S
Eu105 C104 2.835 . S
Eu105 O124 2.473 . S
Eu105 O125 2.480 . S
Eu105 O126 2.430 . S
Eu105 O127 2.670 1_545 S
Eu105 O128 2.394 . S
Eu105 O133 2.355 1_655 S
Eu105 O135 2.374 1_545 S
C106 C104 1.500 . S
C106 C107 1.377 . S
C106 C111 1.419 . S
C107 C106 1.377 . S
C107 C108 1.395 . S
C107 H136 0.931 . S
C108 C107 1.395 . S
C108 C109 1.383 . S
C108 H137 0.931 . S
C109 C108 1.383 . S
C109 C110 1.394 . S
C110 C109 1.394 . S
C110 C111 1.382 . S
C110 H138 0.931 1_655 S
C111 C106 1.419 . S
C111 C110 1.382 . S
C111 H139 0.886 1_655 S
C112 O126 1.282 . S
C112 O127 1.254 1_545 S
C113 O128 1.251 1_455 S
C113 O129 1.251 . S
C114 Eu115 2.835 . S
C114 C116 1.500 . S
C114 O130 1.270 . S
C114 O131 1.260 . S
Eu115 C114 2.835 . S
Eu115 O127 2.355 1_455 S
Eu115 O129 2.374 1_565 S
Eu115 O130 2.478 . S
Eu115 O131 2.480 . S
Eu115 O132 2.430 . S
Eu115 O133 2.670 1_565 S
Eu115 O134 2.394 . S
C116 C114 1.500 . S
C116 C117 1.377 . S
C116 C121 1.377 . S
C117 C116 1.377 . S
C117 C118 1.395 . S
C117 H140 0.931 . S
C118 C117 1.395 . S
C118 C119 1.383 . S
C118 H141 0.931 . S
C119 C118 1.383 . S
C119 C120 1.394 . S
C120 C119 1.394 . S
C120 C121 1.378 . S
C120 H142 0.931 1_455 S
C121 C116 1.377 . S
C121 C120 1.378 . S
C121 H143 0.931 1_455 S
C122 O132 1.275 . S
C122 O133 1.259 1_565 S
C123 O134 1.251 1_655 S
C123 O135 1.251 . S
O124 C104 1.258 . S
O124 Eu105 2.473 . S
O125 C104 1.260 . S
O125 Eu105 2.480 . S
O126 Eu105 2.430 . S
O126 C112 1.282 . S
O127 Eu105 2.670 1_565 S
O127 C112 1.254 1_565 S
O127 Eu115 2.355 1_655 S
O128 Eu105 2.394 . S
O128 C113 1.251 1_655 S
O129 C113 1.251 . S
O129 Eu115 2.374 1_545 S
O130 C114 1.270 . S
O130 Eu115 2.478 . S
O131 C114 1.260 . S
O131 Eu115 2.480 . S
O132 Eu115 2.430 . S
O132 C122 1.275 . S
O133 Eu105 2.355 1_455 S
O133 Eu115 2.670 1_545 S
O133 C122 1.259 1_545 S
O134 Eu115 2.394 . S
O134 C123 1.251 1_455 S
O135 Eu105 2.374 1_565 S
O135 C123 1.251 . S
H136 C107 0.931 . S
H137 C108 0.931 . S
H138 C110 0.931 1_455 S
H139 C111 0.886 1_455 S
H140 C117 0.931 . S
H141 C118 0.931 . S
H142 C120 0.931 1_655 S
H143 C121 0.931 1_655 S
C144 Eu145 2.835 . S
C144 C146 1.500 . S
C144 O164 1.254 . S
C144 O165 1.260 . S
Eu145 C144 2.835 . S
Eu145 O164 2.471 . S
Eu145 O165 2.480 . S
Eu145 O166 2.430 . S
Eu145 O167 2.670 . S
Eu145 O168 2.394 . S
Eu145 O173 2.355 1_565 S
Eu145 O175 2.374 . S
C146 C144 1.500 . S
C146 C147 1.377 . S
C146 C151 1.412 . S
C147 C146 1.377 . S
C147 C148 1.395 . S
C147 H176 0.931 . S
C148 C147 1.395 . S
C148 C149 1.383 . S
C148 H177 0.931 . S
C149 C148 1.383 . S
C149 C150 1.394 . S
C150 C149 1.394 . S
C150 C151 1.381 . S
C150 H178 0.931 1_565 S
C151 C146 1.412 . S
C151 C150 1.381 . S
C151 H179 0.893 1_565 S
C152 O166 1.259 . S
C152 O167 1.270 . S
C153 O168 1.251 1_545 S
C153 O169 1.251 . S
C154 Eu155 2.835 . S
C154 C156 1.500 . S
C154 O170 1.266 . S
C154 O171 1.260 . S
Eu155 C154 2.835 . S
Eu155 O167 2.355 1_545 S
Eu155 O169 2.374 . S
Eu155 O170 2.477 . S
Eu155 O171 2.480 . S
Eu155 O172 2.430 . S
Eu155 O173 2.670 . S
Eu155 O174 2.394 . S
C156 C154 1.500 . S
C156 C157 1.377 . S
C156 C161 1.424 . S
C157 C156 1.377 . S
C157 C158 1.395 . S
C157 H180 0.931 . S
C158 C157 1.395 . S
C158 C159 1.383 . S
C158 H181 0.931 . S
C159 C158 1.383 . S
C159 C160 1.394 . S
C160 C159 1.394 . S
C160 C161 1.382 . S
C160 H182 0.931 1_545 S
C161 C156 1.424 . S
C161 C160 1.382 . S
C161 H183 0.881 1_545 S
C162 O172 1.259 . S
C162 O173 1.270 . S
C163 O174 1.251 1_565 S
C163 O175 1.251 . S
O164 C144 1.254 . S
O164 Eu145 2.471 . S
O165 C144 1.260 . S
O165 Eu145 2.480 . S
O166 Eu145 2.430 . S
O166 C152 1.259 . S
O167 Eu145 2.670 . S
O167 C152 1.270 . S
O167 Eu155 2.355 1_565 S
O168 Eu145 2.394 . S
O168 C153 1.251 1_565 S
O169 C153 1.251 . S
O169 Eu155 2.374 . S
O170 C154 1.266 . S
O170 Eu155 2.477 . S
O171 C154 1.260 . S
O171 Eu155 2.480 . S
O172 Eu155 2.430 . S
O172 C162 1.259 . S
O173 Eu145 2.355 1_545 S
O173 Eu155 2.670 . S
O173 C162 1.270 . S
O174 Eu155 2.394 . S
O174 C163 1.251 1_545 S
O175 Eu145 2.374 . S
O175 C163 1.251 . S
H176 C147 0.931 . S
H177 C148 0.931 . S
H178 C150 0.931 1_545 S
H179 C151 0.893 1_545 S
H180 C157 0.931 . S
H181 C158 0.931 . S
H182 C160 0.931 1_565 S
H183 C161 0.881 1_565 S
C184 Eu185 2.835 . S
C184 C186 1.500 . S
C184 O204 1.257 . S
C184 O205 1.260 . S
Eu185 C184 2.835 . S
Eu185 O204 2.473 . S
Eu185 O205 2.480 . S
Eu185 O206 2.430 . S
Eu185 O207 2.670 . S
Eu185 O208 2.394 . S
Eu185 O213 2.355 . S
Eu185 O215 2.374 . S
C186 C184 1.500 . S
C186 C187 1.377 . S
C186 C191 1.377 . S
C187 C186 1.377 . S
C187 C188 1.395 . S
C187 H216 0.931 . S
C188 C187 1.395 . S
C188 C189 1.383 . S
C188 H217 0.931 . S
C189 C188 1.383 . S
C189 C190 1.394 . S
C190 C189 1.394 . S
C190 C191 1.378 . S
C190 H218 0.931 . S
C191 C186 1.377 . S
C191 C190 1.378 . S
C191 H219 0.931 . S
C192 O206 1.259 . S
C192 O207 1.270 . S
C193 O208 1.251 . S
C193 O209 1.251 . S
C194 Eu195 2.835 . S
C194 C196 1.500 . S
C194 O210 1.257 . S
C194 O211 1.260 . S
Eu195 C194 2.835 . S
Eu195 O207 2.355 . S
Eu195 O209 2.374 . S
Eu195 O210 2.473 . S
Eu195 O211 2.480 . S
Eu195 O212 2.430 . S
Eu195 O213 2.670 . S
Eu195 O214 2.394 . S
C196 C194 1.500 . S
C196 C197 1.377 . S
C196 C201 1.377 . S
C197 C196 1.377 . S
C197 C198 1.395 . S
C197 H220 0.931 . S
C198 C197 1.395 . S
C198 C199 1.383 . S
C198 H221 0.931 . S
C199 C198 1.383 . S
C199 C200 1.394 . S
C200 C199 1.394 . S
C200 C201 1.378 . S
C200 H222 0.931 . S
C201 C196 1.377 . S
C201 C200 1.378 . S
C201 H223 0.931 . S
C202 O212 1.259 . S
C202 O213 1.270 . S
C203 O214 1.251 . S
C203 O215 1.251 . S
O204 C184 1.257 . S
O204 Eu185 2.473 . S
O205 C184 1.260 . S
O205 Eu185 2.480 . S
O206 Eu185 2.430 . S
O206 C192 1.259 . S
O207 Eu185 2.670 . S
O207 C192 1.270 . S
O207 Eu195 2.355 . S
O208 Eu185 2.394 . S
O208 C193 1.251 . S
O209 C193 1.251 . S
O209 Eu195 2.374 . S
O210 C194 1.257 . S
O210 Eu195 2.473 . S
O211 C194 1.260 . S
O211 Eu195 2.480 . S
O212 Eu195 2.430 . S
O212 C202 1.259 . S
O213 Eu185 2.355 . S
O213 Eu195 2.670 . S
O213 C202 1.270 . S
O214 Eu195 2.394 . S
O214 C203 1.251 . S
O215 Eu185 2.374 . S
O215 C203 1.251 . S
H216 C187 0.931 . S
H217 C188 0.931 . S
H218 C190 0.931 . S
H219 C191 0.931 . S
H220 C197 0.931 . S
H221 C198 0.931 . S
H222 C200 0.931 . S
H223 C201 0.931 . S
C224 Eu225 2.835 . S
C224 C226 1.500 . S
C224 O244 1.257 . S
C224 O245 1.260 . S
Eu225 C224 2.835 . S
Eu225 O244 2.473 . S
Eu225 O245 2.480 . S
Eu225 O246 2.430 . S
Eu225 O247 2.670 1_455 S
Eu225 O248 2.394 . S
Eu225 O253 2.355 . S
Eu225 O255 2.374 1_455 S
C226 C224 1.500 . S
C226 C227 1.377 . S
C226 C231 1.377 . S
C227 C226 1.377 . S
C227 C228 1.395 . S
C227 H256 0.931 . S
C228 C227 1.395 . S
C228 C229 1.383 . S
C228 H257 0.931 . S
C229 C228 1.383 . S
C229 C230 1.394 . S
C230 C229 1.394 . S
C230 C231 1.378 . S
C230 H258 0.931 . S
C231 C226 1.377 . S
C231 C230 1.378 . S
C231 H259 0.931 . S
C232 O246 1.277 . S
C232 O247 1.257 1_455 S
C233 O248 1.251 . S
C233 O249 1.251 . S
C234 Eu235 2.835 . S
C234 C236 1.500 . S
C234 O250 1.257 . S
C234 O251 1.260 . S
Eu235 C234 2.835 . S
Eu235 O247 2.355 . S
Eu235 O249 2.374 1_655 S
Eu235 O250 2.473 . S
Eu235 O251 2.480 . S
Eu235 O252 2.430 . S
Eu235 O253 2.670 1_655 S
Eu235 O254 2.394 . S
C236 C234 1.500 . S
C236 C237 1.377 . S
C236 C241 1.377 . S
C237 C236 1.377 . S
C237 C238 1.395 . S
C237 H260 0.931 . S
C238 C237 1.395 . S
C238 C239 1.383 . S
C238 H261 0.931 . S
C239 C238 1.383 . S
C239 C240 1.394 . S
C240 C239 1.394 . S
C240 C241 1.378 . S
C240 H262 0.931 . S
C241 C236 1.377 . S
C241 C240 1.378 . S
C241 H263 0.931 . S
C242 O252 1.270 . S
C242 O253 1.262 1_655 S
C243 O254 1.251 . S
C243 O255 1.251 . S
O244 C224 1.257 . S
O244 Eu225 2.473 . S
O245 C224 1.260 . S
O245 Eu225 2.480 . S
O246 Eu225 2.430 . S
O246 C232 1.277 . S
O247 Eu225 2.670 1_655 S
O247 C232 1.257 1_655 S
O247 Eu235 2.355 . S
O248 Eu225 2.394 . S
O248 C233 1.251 . S
O249 C233 1.251 . S
O249 Eu235 2.374 1_455 S
O250 C234 1.257 . S
O250 Eu235 2.473 . S
O251 C234 1.260 . S
O251 Eu235 2.480 . S
O252 Eu235 2.430 . S
O252 C242 1.270 . S
O253 Eu225 2.355 . S
O253 Eu235 2.670 1_455 S
O253 C242 1.262 1_455 S
O254 Eu235 2.394 . S
O254 C243 1.251 . S
O255 Eu225 2.374 1_655 S
O255 C243 1.251 . S
H256 C227 0.931 . S
H257 C228 0.931 . S
H258 C230 0.931 . S
H259 C231 0.931 . S
H260 C237 0.931 . S
H261 C238 0.931 . S
H262 C240 0.931 . S
H263 C241 0.931 . S
H264 C272 0.929 . S
H265 C274 0.930 . S
H266 C276 0.935 . S
H267 C279 0.929 . S
H268 C282 0.930 . S
H269 C284 0.960 . S
H270 C284 0.960 . S
H271 C284 0.960 . S
C272 H264 0.929 . S
C272 C273 1.380 . S
C272 C274 1.384 . S
C273 C272 1.380 . S
C273 C279 1.388 1_545 S
C274 H265 0.930 . S
C274 C272 1.384 . S
C274 C275 1.375 . S
C275 C274 1.375 . S
C275 C276 1.396 1_545 S
C275 C280 1.490 . S
C276 H266 0.935 . S
C276 C275 1.396 1_565 S
C276 C279 1.388 . S
H277 C293 0.930 . S
H278 C294 0.931 . S
C279 H267 0.929 . S
C279 C273 1.388 1_565 S
C279 C276 1.388 . S
C280 C275 1.490 . S
C280 C282 1.398 1_545 S
C280 C283 1.400 . S
H281 C287 0.930 . S
C282 H268 0.930 . S
C282 C280 1.398 1_565 S
C282 C285 1.403 . S
C283 C280 1.400 . S
C283 C284 1.524 . S
C283 C287 1.400 . S
C284 H269 0.960 . S
C284 H270 0.960 . S
C284 H271 0.960 . S
C284 C283 1.524 . S
C285 C282 1.403 . S
C285 C286 1.392 . S
C285 C289 1.495 . S
C286 C285 1.392 . S
C286 C287 1.385 1_565 S
C286 C288 1.478 . S
C287 H281 0.930 . S
C287 C283 1.400 . S
C287 C286 1.385 1_545 S
C288 C286 1.478 . S
C288 C290 1.381 1_565 S
C288 C294 1.383 . S
C289 C285 1.495 . S
C289 H295 0.959 . S
C289 H296 0.961 . S
C289 H297 0.960 . S
C290 C288 1.381 1_545 S
C290 C291 1.394 . S
C290 H298 0.930 . S
C291 C290 1.394 . S
C291 C292 1.378 1_545 S
C291 H299 0.929 . S
C292 C291 1.378 1_565 S
C292 C293 1.385 . S
C293 H277 0.930 . S
C293 C292 1.385 . S
C293 C294 1.379 . S
C294 H278 0.931 . S
C294 C288 1.383 . S
C294 C293 1.379 . S
H295 C289 0.959 . S
H296 C289 0.961 . S
H297 C289 0.960 . S
H298 C290 0.930 . S
H299 C291 0.929 . S
H300 C308 0.929 . S
H301 C310 0.930 . S
H302 C312 0.930 . S
H303 C315 0.929 . S
H304 C318 0.930 . S
H305 C320 0.960 . S
H306 C320 0.960 . S
H307 C320 0.960 . S
C308 H300 0.929 . S
C308 C309 1.377 . S
C308 C310 1.384 . S
C309 C308 1.377 . S
C309 C315 1.390 . S
C310 H301 0.930 . S
C310 C308 1.384 . S
C310 C311 1.372 . S
C311 C310 1.372 . S
C311 C312 1.400 . S
C311 C316 1.490 . S
C312 H302 0.930 . S
C312 C311 1.400 . S
C312 C315 1.386 . S
H313 C329 0.930 . S
H314 C330 0.931 . S
C315 H303 0.929 . S
C315 C309 1.390 . S
C315 C312 1.386 . S
C316 C311 1.490 . S
C316 C318 1.395 . S
C316 C319 1.403 . S
H317 C323 0.930 . S
C318 H304 0.930 . S
C318 C316 1.395 . S
C318 C321 1.403 . S
C319 C316 1.403 . S
C319 C320 1.524 . S
C319 C323 1.400 . S
C320 H305 0.960 . S
C320 H306 0.960 . S
C320 H307 0.960 . S
C320 C319 1.524 . S
C321 C318 1.403 . S
C321 C322 1.392 . S
C321 C325 1.495 . S
C322 C321 1.392 . S
C322 C323 1.385 . S
C322 C324 1.478 . S
C323 H317 0.930 . S
C323 C319 1.400 . S
C323 C322 1.385 . S
C324 C322 1.478 . S
C324 C326 1.381 . S
C324 C330 1.383 . S
C325 C321 1.495 . S
C325 H331 0.959 . S
C325 H332 0.961 . S
C325 H333 0.960 . S
C326 C324 1.381 . S
C326 C327 1.394 . S
C326 H334 0.930 . S
C327 C326 1.394 . S
C327 C328 1.383 . S
C327 H335 0.929 . S
C328 C327 1.383 . S
C328 C329 1.377 . S
C329 H313 0.930 . S
C329 C328 1.377 . S
C329 C330 1.379 . S
C330 H314 0.931 . S
C330 C324 1.383 . S
C330 C329 1.379 . S
H331 C325 0.959 . S
H332 C325 0.961 . S
H333 C325 0.960 . S
H334 C326 0.930 . S
H335 C327 0.929 . S
H336 C344 0.929 . S
H337 C346 0.930 . S
H338 C348 0.930 . S
H339 C351 0.929 . S
H340 C354 0.930 . S
H341 C356 0.960 . S
H342 C356 0.960 . S
H343 C356 0.960 . S
C344 H336 0.929 . S
C344 C345 1.377 . S
C344 C346 1.384 . S
C345 C344 1.377 . S
C345 C351 1.390 . S
C346 H337 0.930 . S
C346 C344 1.384 . S
C346 C347 1.372 . S
C347 C346 1.372 . S
C347 C348 1.400 . S
C347 C352 1.490 . S
C348 H338 0.930 . S
C348 C347 1.400 . S
C348 C351 1.386 . S
H349 C365 0.930 . S
H350 C366 0.931 . S
C351 H339 0.929 . S
C351 C345 1.390 . S
C351 C348 1.386 . S
C352 C347 1.490 . S
C352 C354 1.395 . S
C352 C355 1.403 . S
H353 C359 0.930 . S
C354 H340 0.930 . S
C354 C352 1.395 . S
C354 C357 1.403 . S
C355 C352 1.403 . S
C355 C356 1.524 . S
C355 C359 1.400 . S
C356 H341 0.960 . S
C356 H342 0.960 . S
C356 H343 0.960 . S
C356 C355 1.524 . S
C357 C354 1.403 . S
C357 C358 1.392 . S
C357 C361 1.495 . S
C358 C357 1.392 . S
C358 C359 1.385 . S
C358 C360 1.478 . S
C359 H353 0.930 . S
C359 C355 1.400 . S
C359 C358 1.385 . S
C360 C358 1.478 . S
C360 C362 1.381 . S
C360 C366 1.383 . S
C361 C357 1.495 . S
C361 H367 0.959 . S
C361 H368 0.961 . S
C361 H369 0.960 . S
C362 C360 1.381 . S
C362 C363 1.394 . S
C362 H370 0.930 . S
C363 C362 1.394 . S
C363 C364 1.383 . S
C363 H371 0.929 . S
C364 C363 1.383 . S
C364 C365 1.377 . S
C365 H349 0.930 . S
C365 C364 1.377 . S
C365 C366 1.379 . S
C366 H350 0.931 . S
C366 C360 1.383 . S
C366 C365 1.379 . S
H367 C361 0.959 . S
H368 C361 0.961 . S
H369 C361 0.960 . S
H370 C362 0.930 . S
H371 C363 0.929 . S
H372 C380 0.929 . S
H373 C382 0.930 . S
H374 C384 0.930 . S
H375 C387 0.929 . S
H376 C390 0.930 . S
H377 C392 0.960 . S
H378 C392 0.960 1_655 S
H379 C392 0.960 . S
C380 H372 0.929 . S
C380 C381 1.378 . S
C380 C382 1.384 . S
C381 C380 1.378 . S
C381 C387 1.390 1_655 S
C382 H373 0.930 . S
C382 C380 1.384 . S
C382 C383 1.410 . S
C383 C382 1.410 . S
C383 C384 1.362 1_655 S
C383 C388 1.490 . S
C384 H374 0.930 . S
C384 C383 1.362 1_455 S
C384 C387 1.386 . S
H385 C401 0.930 . S
H386 C402 0.931 . S
C387 H375 0.929 . S
C387 C381 1.390 1_455 S
C387 C384 1.386 . S
C388 C383 1.490 . S
C388 C390 1.403 . S
C388 C391 1.396 1_655 S
H389 C395 0.930 . S
C390 H376 0.930 . S
C390 C388 1.403 . S
C390 C393 1.403 . S
C391 C388 1.396 1_455 S
C391 C392 1.524 . S
C391 C395 1.400 . S
C392 H377 0.960 . S
C392 H378 0.960 1_455 S
C392 H379 0.960 . S
C392 C391 1.524 . S
C393 C390 1.403 . S
C393 C394 1.400 . S
C393 C397 1.495 . S
C394 C393 1.400 . S
C394 C395 1.379 1_655 S
C394 C396 1.477 . S
C395 H389 0.930 . S
C395 C391 1.400 . S
C395 C394 1.379 1_455 S
C396 C394 1.477 . S
C396 C398 1.386 . S
C396 C402 1.378 1_655 S
C397 C393 1.495 . S
C397 H403 0.959 . S
C397 H404 0.961 1_655 S
C397 H405 0.960 . S
C398 C396 1.386 . S
C398 C399 1.394 . S
C398 H406 0.930 . S
C399 C398 1.394 . S
C399 C400 1.354 1_655 S
C399 H407 0.929 . S
C400 C399 1.354 1_455 S
C400 C401 1.406 . S
C401 H385 0.930 . S
C401 C400 1.406 . S
C401 C402 1.379 . S
C402 H386 0.931 . S
C402 C396 1.378 1_455 S
C402 C401 1.379 . S
H403 C397 0.959 . S
H404 C397 0.961 1_455 S
H405 C397 0.960 . S
H406 C398 0.930 . S
H407 C399 0.929 . S
H408 C416 0.929 . S
H409 C418 0.930 . S
H410 C420 0.930 . S
H411 C423 0.929 . S
H412 C426 0.930 . S
H413 C428 0.960 . S
H414 C428 0.960 . S
H415 C428 0.960 . S
C416 H408 0.929 . S
C416 C417 1.375 1_565 S
C416 C418 1.384 . S
C417 C416 1.375 1_545 S
C417 C423 1.392 . S
C418 H409 0.930 . S
C418 C416 1.384 . S
C418 C419 1.380 . S
C419 C418 1.380 . S
C419 C420 1.392 1_565 S
C419 C424 1.491 . S
C420 H410 0.930 . S
C420 C419 1.392 1_545 S
C420 C423 1.386 . S
H421 C437 0.930 . S
H422 C438 0.931 . S
C423 H411 0.929 . S
C423 C417 1.392 . S
C423 C420 1.386 . S
C424 C419 1.491 . S
C424 C426 1.395 . S
C424 C427 1.403 1_565 S
H425 C431 0.930 1_556 S
C426 H412 0.930 . S
C426 C424 1.395 . S
C426 C429 1.403 . S
C427 C424 1.403 1_545 S
C427 C428 1.524 . S
C427 C431 1.400 . S
C428 H413 0.960 . S
C428 H414 0.960 . S
C428 H415 0.960 . S
C428 C427 1.524 . S
C429 C426 1.403 . S
C429 C430 1.392 1_554 S
C429 C433 1.495 . S
C430 C429 1.392 1_556 S
C430 C431 1.385 1_566 S
C430 C432 1.478 . S
C431 H425 0.930 1_554 S
C431 C427 1.400 . S
C431 C430 1.385 1_544 S
C432 C430 1.478 . S
C432 C434 1.381 . S
C432 C438 1.383 1_565 S
C433 C429 1.495 . S
C433 H439 0.959 . S
C433 H440 0.961 1_554 S
C433 H441 0.960 . S
C434 C432 1.381 . S
C434 C435 1.394 . S
C434 H442 0.940 . S
C435 C434 1.394 . S
C435 C436 1.383 . S
C435 H443 0.929 . S
C436 C435 1.383 . S
C436 C437 1.377 1_565 S
C437 H421 0.930 . S
C437 C436 1.377 1_545 S
C437 C438 1.379 . S
C438 H422 0.931 . S
C438 C432 1.383 1_545 S
C438 C437 1.379 . S
H439 C433 0.959 . S
H440 C433 0.961 1_556 S
H441 C433 0.960 . S
H442 C434 0.940 . S
H443 C435 0.929 . S
H444 C452 0.929 . S
H445 C454 0.930 . S
H446 C456 0.930 . S
H447 C459 0.929 . S
H448 C462 0.930 . S
H449 C464 0.960 1_556 S
H450 C464 0.960 . S
H451 C464 0.960 . S
C452 H444 0.929 . S
C452 C453 1.377 . S
C452 C454 1.384 . S
C453 C452 1.377 . S
C453 C459 1.390 . S
C454 H445 0.930 . S
C454 C452 1.384 . S
C454 C455 1.372 . S
C455 C454 1.372 . S
C455 C456 1.400 . S
C455 C460 1.490 . S
C456 H446 0.930 . S
C456 C455 1.400 . S
C456 C459 1.386 . S
H457 C473 0.930 . S
H458 C474 0.931 . S
C459 H447 0.929 . S
C459 C453 1.390 . S
C459 C456 1.386 . S
C460 C455 1.490 . S
C460 C462 1.395 . S
C460 C463 1.403 . S
H461 C467 0.930 . S
C462 H448 0.930 . S
C462 C460 1.395 . S
C462 C465 1.403 . S
C463 C460 1.403 . S
C463 C464 1.524 . S
C463 C467 1.400 1_554 S
C464 H449 0.960 1_554 S
C464 H450 0.960 . S
C464 H451 0.960 . S
C464 C463 1.524 . S
C465 C462 1.403 . S
C465 C466 1.392 . S
C465 C469 1.495 . S
C466 C465 1.392 . S
C466 C467 1.385 1_554 S
C466 C468 1.478 1_554 S
C467 H461 0.930 . S
C467 C463 1.400 1_556 S
C467 C466 1.385 1_556 S
C468 C466 1.478 1_556 S
C468 C470 1.381 . S
C468 C474 1.383 . S
C469 C465 1.495 . S
C469 H475 0.959 . S
C469 H476 0.961 . S
C469 H477 0.960 . S
C470 C468 1.381 . S
C470 C471 1.394 . S
C470 H478 0.930 . S
C471 C470 1.394 . S
C471 C472 1.383 . S
C471 H479 0.929 . S
C472 C471 1.383 . S
C472 C473 1.377 . S
C473 H457 0.930 . S
C473 C472 1.377 . S
C473 C474 1.379 . S
C474 H458 0.931 . S
C474 C468 1.383 . S
C474 C473 1.379 . S
H475 C469 0.959 . S
H476 C469 0.961 . S
H477 C469 0.960 . S
H478 C470 0.930 . S
H479 C471 0.929 . S
H480 C488 0.929 . S
H481 C490 0.930 . S
H482 C492 0.930 . S
H483 C495 0.929 . S
H484 C498 0.930 . S
H485 C500 0.960 . S
H486 C500 0.960 1_554 S
H487 C500 0.960 1_554 S
C488 H480 0.929 . S
C488 C489 1.377 . S
C488 C490 1.384 . S
C489 C488 1.377 . S
C489 C495 1.390 . S
C490 H481 0.930 . S
C490 C488 1.384 . S
C490 C491 1.372 . S
C491 C490 1.372 . S
C491 C492 1.400 . S
C491 C496 1.490 . S
C492 H482 0.930 . S
C492 C491 1.400 . S
C492 C495 1.386 . S
H493 C509 0.930 . S
H494 C510 0.931 . S
C495 H483 0.929 . S
C495 C489 1.390 . S
C495 C492 1.386 . S
C496 C491 1.490 . S
C496 C498 1.395 . S
C496 C499 1.403 . S
H497 C503 0.930 . S
C498 H484 0.930 . S
C498 C496 1.395 . S
C498 C501 1.403 . S
C499 C496 1.403 . S
C499 C500 1.524 1_554 S
C499 C503 1.400 1_554 S
C500 H485 0.960 . S
C500 H486 0.960 1_556 S
C500 H487 0.960 1_556 S
C500 C499 1.524 1_556 S
C501 C498 1.403 . S
C501 C502 1.392 . S
C501 C505 1.495 . S
C502 C501 1.392 . S
C502 C503 1.385 1_554 S
C502 C504 1.478 1_554 S
C503 H497 0.930 . S
C503 C499 1.400 1_556 S
C503 C502 1.385 1_556 S
C504 C502 1.478 1_556 S
C504 C506 1.381 . S
C504 C510 1.383 . S
C505 C501 1.495 . S
C505 H511 0.959 . S
C505 H512 0.961 . S
C505 H513 0.960 . S
C506 C504 1.381 . S
C506 C507 1.394 . S
C506 H514 0.930 . S
C507 C506 1.394 . S
C507 C508 1.383 . S
C507 H515 0.929 . S
C508 C507 1.383 . S
C508 C509 1.377 . S
C509 H493 0.930 . S
C509 C508 1.377 . S
C509 C510 1.379 . S
C510 H494 0.931 . S
C510 C504 1.383 . S
C510 C509 1.379 . S
H511 C505 0.959 . S
H512 C505 0.961 . S
H513 C505 0.960 . S
H514 C506 0.930 . S
H515 C507 0.929 . S
H516 C524 0.929 . S
H517 C526 0.930 . S
H518 C528 0.930 . S
H519 C531 0.929 . S
H520 C534 0.930 . S
H521 C536 0.960 . S
H522 C536 0.960 1_554 S
H523 C536 0.960 1_654 S
C524 H516 0.929 . S
C524 C525 1.379 . S
C524 C526 1.384 . S
C525 C524 1.379 . S
C525 C531 1.388 1_455 S
C526 H517 0.930 . S
C526 C524 1.384 . S
C526 C527 1.402 . S
C527 C526 1.402 . S
C527 C528 1.370 1_455 S
C527 C532 1.490 . S
C528 H518 0.930 . S
C528 C527 1.370 1_655 S
C528 C531 1.386 . S
H529 C545 0.930 . S
H530 C546 0.931 . S
C531 H519 0.929 . S
C531 C525 1.388 1_655 S
C531 C528 1.386 . S
C532 C527 1.490 . S
C532 C534 1.393 1_455 S
C532 C535 1.405 . S
H533 C539 0.930 . S
C534 H520 0.930 . S
C534 C532 1.393 1_655 S
C534 C537 1.403 . S
C535 C532 1.405 . S
C535 C536 1.524 1_554 S
C535 C539 1.400 1_554 S
C536 H521 0.960 . S
C536 H522 0.960 1_556 S
C536 H523 0.960 1_456 S
C536 C535 1.524 1_556 S
C537 C534 1.403 . S
C537 C538 1.391 . S
C537 C541 1.500 . S
C538 C537 1.391 . S
C538 C539 1.385 1_654 S
C538 C540 1.477 1_554 S
C539 H533 0.930 . S
C539 C535 1.400 1_556 S
C539 C538 1.385 1_456 S
C540 C538 1.477 1_556 S
C540 C542 1.346 1_655 S
C540 C546 1.418 . S
C541 C537 1.500 . S
C541 H547 0.959 . S
C541 H548 0.961 . S
C541 H549 0.960 1_655 S
C542 C540 1.346 1_455 S
C542 C543 1.394 . S
C542 H550 0.930 . S
C543 C542 1.394 . S
C543 C544 1.338 1_455 S
C543 H551 0.929 . S
C544 C543 1.338 1_655 S
C544 C545 1.422 . S
C545 H529 0.930 . S
C545 C544 1.422 . S
C545 C546 1.379 . S
C546 H530 0.931 . S
C546 C540 1.418 . S
C546 C545 1.379 . S
H547 C541 0.959 . S
H548 C541 0.961 . S
H549 C541 0.960 1_455 S
H550 C542 0.930 . S
H551 C543 0.929 . S
H552 C560 0.932 . S
H553 C562 0.930 . S
H554 C564 0.930 . S
H555 C567 0.929 1_455 S
H556 C570 0.930 . S
H557 C572 0.960 . S
H558 C572 0.960 . S
H559 C572 0.960 . S
C560 H552 0.932 . S
C560 C561 1.373 1_655 S
C560 C562 1.384 . S
C561 C560 1.373 1_455 S
C561 C567 1.388 1_455 S
C562 H553 0.930 . S
C562 C560 1.384 . S
C562 C563 1.372 . S
C563 C562 1.372 . S
C563 C564 1.400 . S
C563 C568 1.490 . S
C564 H554 0.930 . S
C564 C563 1.400 . S
C564 C567 1.387 . S
H565 C581 0.930 . S
H566 C582 0.931 . S
C567 H555 0.929 1_655 S
C567 C561 1.388 1_655 S
C567 C564 1.387 . S
C568 C563 1.490 . S
C568 C570 1.395 1_655 S
C568 C571 1.403 . S
H569 C575 0.930 . S
C570 H556 0.930 . S
C570 C568 1.395 1_455 S
C570 C573 1.403 . S
C571 C568 1.403 . S
C571 C572 1.524 . S
C571 C575 1.400 . S
C572 H557 0.960 . S
C572 H558 0.960 . S
C572 H559 0.960 . S
C572 C571 1.524 . S
C573 C570 1.403 . S
C573 C574 1.392 1_455 S
C573 C577 1.495 . S
C574 C573 1.392 1_655 S
C574 C575 1.385 . S
C574 C576 1.478 . S
C575 H569 0.930 . S
C575 C571 1.400 . S
C575 C574 1.385 . S
C576 C574 1.478 . S
C576 C578 1.381 . S
C576 C582 1.383 . S
C577 C573 1.495 . S
C577 H583 0.959 . S
C577 H584 0.961 . S
C577 H585 0.960 . S
C578 C576 1.381 . S
C578 C579 1.394 . S
C578 H586 0.930 . S
C579 C578 1.394 . S
C579 C580 1.383 . S
C579 H587 0.929 . S
C580 C579 1.383 . S
C580 C581 1.377 . S
C581 H565 0.930 . S
C581 C580 1.377 . S
C581 C582 1.379 . S
C582 H566 0.931 . S
C582 C576 1.383 . S
C582 C581 1.379 . S
H583 C577 0.959 . S
H584 C577 0.961 . S
H585 C577 0.960 . S
H586 C578 0.930 . S
H587 C579 0.929 . S
H588 C596 0.929 . S
H589 C598 0.930 . S
H590 C600 0.930 . S
H591 C603 0.929 . S
H592 C606 0.930 . S
H593 C608 0.960 . S
H594 C608 0.960 . S
H595 C608 0.960 . S
C596 H588 0.929 . S
C596 C597 1.377 1_565 S
C596 C598 1.384 . S
C597 C596 1.377 1_545 S
C597 C603 1.390 . S
C598 H589 0.930 . S
C598 C596 1.384 . S
C598 C599 1.372 . S
C599 C598 1.372 . S
C599 C600 1.400 1_565 S
C599 C604 1.490 . S
C600 H590 0.930 . S
C600 C599 1.400 1_545 S
C600 C603 1.386 . S
H601 C617 0.930 . S
H602 C618 0.952 . S
C603 H591 0.929 . S
C603 C597 1.390 . S
C603 C600 1.386 . S
C604 C599 1.490 . S
C604 C606 1.395 . S
C604 C607 1.403 1_565 S
H605 C611 0.959 . S
C606 H592 0.930 . S
C606 C604 1.395 . S
C606 C609 1.403 . S
C607 C604 1.403 1_545 S
C607 C608 1.524 . S
C607 C611 1.410 . S
C608 H593 0.960 . S
C608 H594 0.960 . S
C608 H595 0.960 . S
C608 C607 1.524 . S
C609 C606 1.403 . S
C609 C610 1.392 . S
C609 C613 1.495 . S
C610 C609 1.392 . S
C610 C611 1.349 1_565 S
C610 C612 1.478 . S
C611 H605 0.959 . S
C611 C607 1.410 . S
C611 C610 1.349 1_545 S
C612 C610 1.478 . S
C612 C614 1.381 . S
C612 C618 1.383 . S
C613 C609 1.495 . S
C613 H619 0.959 . S
C613 H620 0.961 . S
C613 H621 0.960 . S
C614 C612 1.381 . S
C614 C615 1.394 . S
C614 H622 0.930 . S
C615 C614 1.394 . S
C615 C616 1.383 . S
C615 H623 0.929 . S
C616 C615 1.383 . S
C616 C617 1.377 . S
C617 H601 0.930 . S
C617 C616 1.377 . S
C617 C618 1.379 . S
C618 H602 0.952 . S
C618 C612 1.383 . S
C618 C617 1.379 . S
H619 C613 0.959 . S
H620 C613 0.961 . S
H621 C613 0.960 . S
H622 C614 0.930 . S
H623 C615 0.929 . S
H624 C632 0.929 . S
H625 C634 0.930 . S
H626 C636 0.930 . S
H627 C639 0.929 . S
H628 C642 0.930 . S
H629 C644 0.960 . S
H630 C644 0.960 . S
H631 C644 0.960 . S
C632 H624 0.929 . S
C632 C633 1.377 . S
C632 C634 1.384 . S
C633 C632 1.377 . S
C633 C639 1.390 . S
C634 H625 0.930 . S
C634 C632 1.384 . S
C634 C635 1.372 . S
C635 C634 1.372 . S
C635 C636 1.400 . S
C635 C640 1.490 . S
C636 H626 0.930 . S
C636 C635 1.400 . S
C636 C639 1.386 . S
H637 C653 0.930 . S
H638 C654 0.931 . S
C639 H627 0.929 . S
C639 C633 1.390 . S
C639 C636 1.386 . S
C640 C635 1.490 . S
C640 C642 1.395 . S
C640 C643 1.403 . S
H641 C647 0.930 . S
C642 H628 0.930 . S
C642 C640 1.395 . S
C642 C645 1.403 . S
C643 C640 1.403 . S
C643 C644 1.524 . S
C643 C647 1.400 . S
C644 H629 0.960 . S
C644 H630 0.960 . S
C644 H631 0.960 . S
C644 C643 1.524 . S
C645 C642 1.403 . S
C645 C646 1.392 . S
C645 C649 1.495 . S
C646 C645 1.392 . S
C646 C647 1.385 . S
C646 C648 1.478 . S
C647 H641 0.930 . S
C647 C643 1.400 . S
C647 C646 1.385 . S
C648 C646 1.478 . S
C648 C650 1.381 . S
C648 C654 1.383 . S
C649 C645 1.495 . S
C649 H655 0.959 . S
C649 H656 0.961 . S
C649 H657 0.960 . S
C650 C648 1.381 . S
C650 C651 1.394 . S
C650 H658 0.930 . S
C651 C650 1.394 . S
C651 C652 1.383 . S
C651 H659 0.929 . S
C652 C651 1.383 . S
C652 C653 1.377 . S
C653 H637 0.930 . S
C653 C652 1.377 . S
C653 C654 1.379 . S
C654 H638 0.931 . S
C654 C648 1.383 . S
C654 C653 1.379 . S
H655 C649 0.959 . S
H656 C649 0.961 . S
H657 C649 0.960 . S
H658 C650 0.930 . S
H659 C651 0.929 . S
H660 C668 0.929 . S
H661 C670 0.930 . S
H662 C672 0.930 . S
H663 C675 0.929 . S
H664 C678 0.930 . S
H665 C680 0.960 . S
H666 C680 0.960 . S
H667 C680 0.960 . S
C668 H660 0.929 . S
C668 C669 1.377 . S
C668 C670 1.384 . S
C669 C668 1.377 . S
C669 C675 1.390 . S
C670 H661 0.930 . S
C670 C668 1.384 . S
C670 C671 1.372 . S
C671 C670 1.372 . S
C671 C672 1.400 . S
C671 C676 1.490 . S
C672 H662 0.930 . S
C672 C671 1.400 . S
C672 C675 1.386 . S
H673 C689 0.930 . S
H674 C690 0.931 . S
C675 H663 0.929 . S
C675 C669 1.390 . S
C675 C672 1.386 . S
C676 C671 1.490 . S
C676 C678 1.395 . S
C676 C679 1.403 . S
H677 C683 0.930 . S
C678 H664 0.930 . S
C678 C676 1.395 . S
C678 C681 1.403 . S
C679 C676 1.403 . S
C679 C680 1.524 . S
C679 C683 1.400 . S
C680 H665 0.960 . S
C680 H666 0.960 . S
C680 H667 0.960 . S
C680 C679 1.524 . S
C681 C678 1.403 . S
C681 C682 1.392 . S
C681 C685 1.495 . S
C682 C681 1.392 . S
C682 C683 1.385 . S
C682 C684 1.478 . S
C683 H677 0.930 . S
C683 C679 1.400 . S
C683 C682 1.385 . S
C684 C682 1.478 . S
C684 C686 1.381 . S
C684 C690 1.383 . S
C685 C681 1.495 . S
C685 H691 0.959 . S
C685 H692 0.961 . S
C685 H693 0.960 . S
C686 C684 1.381 . S
C686 C687 1.394 . S
C686 H694 0.930 . S
C687 C686 1.394 . S
C687 C688 1.383 . S
C687 H695 0.929 . S
C688 C687 1.383 . S
C688 C689 1.377 . S
C689 H673 0.930 . S
C689 C688 1.377 . S
C689 C690 1.379 . S
C690 H674 0.931 . S
C690 C684 1.383 . S
C690 C689 1.379 . S
H691 C685 0.959 . S
H692 C685 0.961 . S
H693 C685 0.960 . S
H694 C686 0.930 . S
H695 C687 0.929 . S
H696 C704 0.929 . S
H697 C706 0.930 . S
H698 C708 0.930 . S
H699 C711 0.929 . S
H700 C714 0.930 . S
H701 C716 0.960 . S
H702 C716 0.960 1_455 S
H703 C716 0.960 . S
C704 H696 0.929 . S
C704 C705 1.326 1_455 S
C704 C706 1.384 . S
C705 C704 1.326 1_655 S
C705 C711 1.433 . S
C706 H697 0.930 . S
C706 C704 1.384 . S
C706 C707 1.372 . S
C707 C706 1.372 . S
C707 C708 1.400 1_455 S
C707 C712 1.490 . S
C708 H698 0.930 . S
C708 C707 1.400 1_655 S
C708 C711 1.386 . S
H709 C725 0.930 1_655 S
H710 C726 0.931 1_655 S
C711 H699 0.929 . S
C711 C705 1.433 . S
C711 C708 1.386 . S
C712 C707 1.490 . S
C712 C714 1.395 . S
C712 C715 1.403 . S
H713 C719 0.953 . S
C714 H700 0.930 . S
C714 C712 1.395 . S
C714 C717 1.403 . S
C715 C712 1.403 . S
C715 C716 1.524 1_455 S
C715 C719 1.400 . S
C716 H701 0.960 . S
C716 H702 0.960 1_655 S
C716 H703 0.960 . S
C716 C715 1.524 1_655 S
C717 C714 1.403 . S
C717 C718 1.392 . S
C717 C721 1.495 1_554 S
C718 C717 1.392 . S
C718 C719 1.385 . S
C718 C720 1.478 . S
C719 H713 0.953 . S
C719 C715 1.400 . S
C719 C718 1.385 . S
C720 C718 1.478 . S
C720 C722 1.381 . S
C720 C726 1.383 . S
C721 C717 1.495 1_556 S
C721 H727 0.959 . S
C721 H728 0.961 . S
C721 H729 0.960 . S
C722 C720 1.381 . S
C722 C723 1.394 1_554 S
C722 H730 0.930 . S
C723 C722 1.394 1_556 S
C723 C724 1.383 . S
C723 H731 0.929 . S
C724 C723 1.383 . S
C724 C725 1.377 . S
C725 H709 0.930 1_455 S
C725 C724 1.377 . S
C725 C726 1.379 1_556 S
C726 H710 0.931 1_455 S
C726 C720 1.383 . S
C726 C725 1.379 1_554 S
H727 C721 0.959 . S
H728 C721 0.961 . S
H729 C721 0.960 . S
H730 C722 0.930 . S
H731 C723 0.929 . S
H732 C740 0.929 . S
H733 C742 0.930 . S
H734 C744 0.927 1_565 S
H735 C747 0.929 . S
H736 C750 0.930 . S
H737 C752 0.960 . S
H738 C752 0.960 . S
H739 C752 0.960 . S
C740 H732 0.929 . S
C740 C741 1.369 1_545 S
C740 C742 1.384 . S
C741 C740 1.369 1_565 S
C741 C747 1.393 . S
C742 H733 0.930 . S
C742 C740 1.384 . S
C742 C743 1.372 . S
C743 C742 1.372 . S
C743 C744 1.407 . S
C743 C748 1.490 . S
C744 H734 0.927 1_545 S
C744 C743 1.407 . S
C744 C747 1.381 1_545 S
H745 C761 0.930 . S
H746 C762 0.931 . S
C747 H735 0.929 . S
C747 C741 1.393 . S
C747 C744 1.381 1_565 S
C748 C743 1.490 . S
C748 C750 1.395 1_545 S
C748 C751 1.403 . S
H749 C755 0.930 . S
C750 H736 0.930 . S
C750 C748 1.395 1_565 S
C750 C753 1.403 . S
C751 C748 1.403 . S
C751 C752 1.524 . S
C751 C755 1.400 . S
C752 H737 0.960 . S
C752 H738 0.960 . S
C752 H739 0.960 . S
C752 C751 1.524 . S
C753 C750 1.403 . S
C753 C754 1.392 1_565 S
C753 C757 1.503 . S
C754 C753 1.392 1_545 S
C754 C755 1.385 . S
C754 C756 1.478 . S
C755 H749 0.930 . S
C755 C751 1.400 . S
C755 C754 1.385 . S
C756 C754 1.478 . S
C756 C758 1.381 1_554 S
C756 C762 1.383 . S
C757 C753 1.503 . S
C757 H763 0.958 1_554 S
C757 H764 0.963 . S
C757 H765 0.951 1_554 S
C758 C756 1.381 1_556 S
C758 C759 1.394 . S
C758 H766 0.930 . S
C759 C758 1.394 . S
C759 C760 1.383 . S
C759 H767 0.929 . S
C760 C759 1.383 . S
C760 C761 1.377 1_556 S
C761 H745 0.930 . S
C761 C760 1.377 1_554 S
C761 C762 1.379 . S
C762 H746 0.931 . S
C762 C756 1.383 . S
C762 C761 1.379 . S
H763 C757 0.958 1_556 S
H764 C757 0.963 . S
H765 C757 0.951 1_556 S
H766 C758 0.930 . S
H767 C759 0.929 . S
H768 C776 0.929 . S
H769 C778 0.930 . S
H770 C780 0.930 . S
H771 C783 0.929 . S
H772 C786 0.930 . S
H773 C788 0.960 . S
H774 C788 0.960 . S
H775 C788 0.960 . S
C776 H768 0.929 . S
C776 C777 1.377 . S
C776 C778 1.384 . S
C777 C776 1.377 . S
C777 C783 1.390 . S
C778 H769 0.930 . S
C778 C776 1.384 . S
C778 C779 1.372 . S
C779 C778 1.372 . S
C779 C780 1.400 . S
C779 C784 1.490 . S
C780 H770 0.930 . S
C780 C779 1.400 . S
C780 C783 1.386 . S
H781 C797 0.930 . S
H782 C798 0.931 . S
C783 H771 0.929 . S
C783 C777 1.390 . S
C783 C780 1.386 . S
C784 C779 1.490 . S
C784 C786 1.395 . S
C784 C787 1.403 . S
H785 C791 0.930 . S
C786 H772 0.930 . S
C786 C784 1.395 . S
C786 C789 1.403 . S
C787 C784 1.403 . S
C787 C788 1.524 . S
C787 C791 1.400 . S
C788 H773 0.960 . S
C788 H774 0.960 . S
C788 H775 0.960 . S
C788 C787 1.524 . S
C789 C786 1.403 . S
C789 C790 1.392 . S
C789 C793 1.495 . S
C790 C789 1.392 . S
C790 C791 1.385 . S
C790 C792 1.478 . S
C791 H785 0.930 . S
C791 C787 1.400 . S
C791 C790 1.385 . S
C792 C790 1.478 . S
C792 C794 1.381 1_554 S
C792 C798 1.383 . S
C793 C789 1.495 . S
C793 H799 0.959 . S
C793 H800 0.961 . S
C793 H801 0.960 . S
C794 C792 1.381 1_556 S
C794 C795 1.394 . S
C794 H802 0.930 . S
C795 C794 1.394 . S
C795 C796 1.383 . S
C795 H803 0.929 . S
C796 C795 1.383 . S
C796 C797 1.377 1_556 S
C797 H781 0.930 . S
C797 C796 1.377 1_554 S
C797 C798 1.379 . S
C798 H782 0.931 . S
C798 C792 1.383 . S
C798 C797 1.379 . S
H799 C793 0.959 . S
H800 C793 0.961 . S
H801 C793 0.960 . S
H802 C794 0.930 . S
H803 C795 0.929 . S
H804 C812 0.929 . S
H805 C814 0.930 . S
H806 C816 0.930 . S
H807 C819 0.929 . S
H808 C822 0.930 . S
H809 C824 0.960 . S
H810 C824 0.960 . S
H811 C824 0.960 . S
C812 H804 0.929 . S
C812 C813 1.377 . S
C812 C814 1.384 . S
C813 C812 1.377 . S
C813 C819 1.390 . S
C814 H805 0.930 . S
C814 C812 1.384 . S
C814 C815 1.372 . S
C815 C814 1.372 . S
C815 C816 1.400 . S
C815 C820 1.490 . S
C816 H806 0.930 . S
C816 C815 1.400 . S
C816 C819 1.386 . S
H817 C833 0.930 . S
H818 C834 0.931 . S
C819 H807 0.929 . S
C819 C813 1.390 . S
C819 C816 1.386 . S
C820 C815 1.490 . S
C820 C822 1.395 . S
C820 C823 1.403 . S
H821 C827 0.930 . S
C822 H808 0.930 . S
C822 C820 1.395 . S
C822 C825 1.403 . S
C823 C820 1.403 . S
C823 C824 1.524 . S
C823 C827 1.400 . S
C824 H809 0.960 . S
C824 H810 0.960 . S
C824 H811 0.960 . S
C824 C823 1.524 . S
C825 C822 1.403 . S
C825 C826 1.392 . S
C825 C829 1.495 . S
C826 C825 1.392 . S
C826 C827 1.385 . S
C826 C828 1.478 . S
C827 H821 0.930 . S
C827 C823 1.400 . S
C827 C826 1.385 . S
C828 C826 1.478 . S
C828 C830 1.381 . S
C828 C834 1.383 . S
C829 C825 1.495 . S
C829 H835 0.959 . S
C829 H836 0.961 . S
C829 H837 0.960 . S
C830 C828 1.381 . S
C830 C831 1.394 1_554 S
C830 H838 0.930 . S
C831 C830 1.394 1_556 S
C831 C832 1.383 . S
C831 H839 0.929 . S
C832 C831 1.383 . S
C832 C833 1.377 1_556 S
C833 H817 0.930 . S
C833 C832 1.377 1_554 S
C833 C834 1.379 . S
C834 H818 0.931 . S
C834 C828 1.383 . S
C834 C833 1.379 . S
H835 C829 0.959 . S
H836 C829 0.961 . S
H837 C829 0.960 . S
H838 C830 0.930 . S
H839 C831 0.929 . S
H840 C848 0.929 . S
H841 C850 0.930 . S
H842 C852 0.930 . S
H843 C855 0.929 . S
H844 C858 0.930 . S
H845 C860 0.960 1_554 S
H846 C860 0.960 1_554 S
H847 C860 0.960 . S
C848 H840 0.929 . S
C848 C849 1.346 1_655 S
C848 C850 1.384 . S
C849 C848 1.346 1_455 S
C849 C855 1.422 . S
C850 H841 0.930 . S
C850 C848 1.384 . S
C850 C851 1.372 1_655 S
C851 C850 1.372 1_455 S
C851 C852 1.400 . S
C851 C856 1.490 . S
C852 H842 0.930 . S
C852 C851 1.400 . S
C852 C855 1.386 . S
H853 C869 0.930 . S
H854 C870 0.931 . S
C855 H843 0.929 . S
C855 C849 1.422 . S
C855 C852 1.386 . S
C856 C851 1.490 . S
C856 C858 1.395 1_455 S
C856 C859 1.403 . S
H857 C863 0.930 . S
C858 H844 0.930 . S
C858 C856 1.395 1_655 S
C858 C861 1.403 . S
C859 C856 1.403 . S
C859 C860 1.524 . S
C859 C863 1.400 . S
C860 H845 0.960 1_556 S
C860 H846 0.960 1_556 S
C860 H847 0.960 . S
C860 C859 1.524 . S
C861 C858 1.403 . S
C861 C862 1.392 1_655 S
C861 C865 1.495 . S
C862 C861 1.392 1_455 S
C862 C863 1.385 . S
C862 C864 1.478 . S
C863 H857 0.930 . S
C863 C859 1.400 . S
C863 C862 1.385 . S
C864 C862 1.478 . S
C864 C866 1.381 1_455 S
C864 C870 1.383 . S
C865 C861 1.495 . S
C865 H871 0.959 . S
C865 H872 0.961 . S
C865 H873 0.960 . S
C866 C864 1.381 1_655 S
C866 C867 1.394 . S
C866 H874 0.930 . S
C867 C866 1.394 . S
C867 C868 1.383 1_655 S
C867 H875 0.929 . S
C868 C867 1.383 1_455 S
C868 C869 1.377 . S
C869 H853 0.930 . S
C869 C868 1.377 . S
C869 C870 1.379 . S
C870 H854 0.931 . S
C870 C864 1.383 . S
C870 C869 1.379 . S
H871 C865 0.959 . S
H872 C865 0.961 . S
H873 C865 0.960 . S
H874 C866 0.930 . S
H875 C867 0.929 . S
H876 C884 0.929 . S
H877 C886 0.930 . S
H878 C888 0.930 . S
H879 C891 0.929 . S
H880 C894 0.930 . S
H881 C896 0.960 1_554 S
H882 C896 0.960 1_554 S
H883 C896 0.960 1_544 S
C884 H876 0.929 . S
C884 C885 1.358 1_565 S
C884 C886 1.384 . S
C885 C884 1.358 1_545 S
C885 C891 1.410 . S
C886 H877 0.930 . S
C886 C884 1.384 . S
C886 C887 1.372 1_565 S
C887 C886 1.372 1_545 S
C887 C888 1.400 . S
C887 C892 1.490 . S
C888 H878 0.930 . S
C888 C887 1.400 . S
C888 C891 1.386 . S
H889 C905 0.930 . S
H890 C906 0.931 . S
C891 H879 0.929 . S
C891 C885 1.410 . S
C891 C888 1.386 . S
C892 C887 1.490 . S
C892 C894 1.395 . S
C892 C895 1.403 1_545 S
H893 C899 0.931 . S
C894 H880 0.930 . S
C894 C892 1.395 . S
C894 C897 1.403 . S
C895 C892 1.403 1_565 S
C895 C896 1.523 . S
C895 C899 1.400 1_565 S
C896 H881 0.960 1_556 S
C896 H882 0.960 1_556 S
C896 H883 0.960 1_566 S
C896 C895 1.523 . S
C897 C894 1.403 . S
C897 C898 1.392 . S
C897 C901 1.495 . S
C898 C897 1.392 . S
C898 C899 1.385 . S
C898 C900 1.478 . S
C899 H893 0.931 . S
C899 C895 1.400 1_545 S
C899 C898 1.385 . S
C900 C898 1.478 . S
C900 C902 1.381 1_545 S
C900 C906 1.383 . S
C901 C897 1.495 . S
C901 H907 0.959 . S
C901 H908 0.961 . S
C901 H909 0.955 . S
C902 C900 1.381 1_565 S
C902 C903 1.394 . S
C902 H910 0.930 . S
C903 C902 1.394 . S
C903 C904 1.383 1_565 S
C903 H911 0.929 . S
C904 C903 1.383 1_545 S
C904 C905 1.377 . S
C905 H889 0.930 . S
C905 C904 1.377 . S
C905 C906 1.379 . S
C906 H890 0.931 . S
C906 C900 1.383 . S
C906 C905 1.379 . S
H907 C901 0.959 . S
H908 C901 0.961 . S
H909 C901 0.955 . S
H910 C902 0.930 . S
H911 C903 0.929 . S
H912 C920 0.929 . S
H913 C922 0.930 . S
H914 C924 0.930 . S
H915 C927 0.929 . S
H916 C930 0.930 . S
H917 C932 0.960 1_554 S
H918 C932 0.960 1_554 S
H919 C932 0.960 . S
C920 H912 0.929 . S
C920 C921 1.377 . S
C920 C922 1.384 . S
C921 C920 1.377 . S
C921 C927 1.390 . S
C922 H913 0.930 . S
C922 C920 1.384 . S
C922 C923 1.372 . S
C923 C922 1.372 . S
C923 C924 1.400 . S
C923 C928 1.490 . S
C924 H914 0.930 . S
C924 C923 1.400 . S
C924 C927 1.386 . S
H925 C941 0.930 . S
H926 C942 0.931 . S
C927 H915 0.929 . S
C927 C921 1.390 . S
C927 C924 1.386 . S
C928 C923 1.490 . S
C928 C930 1.395 . S
C928 C931 1.403 . S
H929 C935 0.930 . S
C930 H916 0.930 . S
C930 C928 1.395 . S
C930 C933 1.403 . S
C931 C928 1.403 . S
C931 C932 1.524 . S
C931 C935 1.400 . S
C932 H917 0.960 1_556 S
C932 H918 0.960 1_556 S
C932 H919 0.960 . S
C932 C931 1.524 . S
C933 C930 1.403 . S
C933 C934 1.392 . S
C933 C937 1.495 . S
C934 C933 1.392 . S
C934 C935 1.385 . S
C934 C936 1.478 . S
C935 H929 0.930 . S
C935 C931 1.400 . S
C935 C934 1.385 . S
C936 C934 1.478 . S
C936 C938 1.381 . S
C936 C942 1.383 . S
C937 C933 1.495 . S
C937 H943 0.959 . S
C937 H944 0.961 . S
C937 H945 0.960 . S
C938 C936 1.381 . S
C938 C939 1.394 . S
C938 H946 0.930 . S
C939 C938 1.394 . S
C939 C940 1.383 . S
C939 H947 0.929 . S
C940 C939 1.383 . S
C940 C941 1.377 . S
C941 H925 0.930 . S
C941 C940 1.377 . S
C941 C942 1.379 . S
C942 H926 0.931 . S
C942 C936 1.383 . S
C942 C941 1.379 . S
H943 C937 0.959 . S
H944 C937 0.961 . S
H945 C937 0.960 . S
H946 C938 0.930 . S
H947 C939 0.929 . S
H948 C956 0.929 . S
H949 C958 0.930 . S
H950 C960 0.930 . S
H951 C963 0.929 1_554 S
H952 C966 0.930 . S
H953 C968 0.960 1_554 S
H954 C968 0.960 . S
H955 C968 0.960 1_554 S
C956 H948 0.929 . S
C956 C957 1.377 . S
C956 C958 1.384 . S
C957 C956 1.377 . S
C957 C963 1.390 . S
C958 H949 0.930 . S
C958 C956 1.384 . S
C958 C959 1.372 . S
C959 C958 1.372 . S
C959 C960 1.400 . S
C959 C964 1.490 . S
C960 H950 0.930 . S
C960 C959 1.400 . S
C960 C963 1.386 . S
H961 C977 0.930 . S
H962 C978 0.931 . S
C963 H951 0.929 1_556 S
C963 C957 1.390 . S
C963 C960 1.386 . S
C964 C959 1.490 . S
C964 C966 1.395 . S
C964 C967 1.403 . S
H965 C971 0.930 . S
C966 H952 0.930 . S
C966 C964 1.395 . S
C966 C969 1.403 . S
C967 C964 1.403 . S
C967 C968 1.524 . S
C967 C971 1.400 . S
C968 H953 0.960 1_556 S
C968 H954 0.960 . S
C968 H955 0.960 1_556 S
C968 C967 1.524 . S
C969 C966 1.403 . S
C969 C970 1.392 . S
C969 C973 1.495 . S
C970 C969 1.392 . S
C970 C971 1.385 . S
C970 C972 1.478 . S
C971 H965 0.930 . S
C971 C967 1.400 . S
C971 C970 1.385 . S
C972 C970 1.478 . S
C972 C974 1.381 . S
C972 C978 1.383 . S
C973 C969 1.495 . S
C973 H979 0.959 . S
C973 H980 0.961 . S
C973 H981 0.960 . S
C974 C972 1.381 . S
C974 C975 1.394 . S
C974 H982 0.930 . S
C975 C974 1.394 . S
C975 C976 1.383 . S
C975 H983 0.929 . S
C976 C975 1.383 . S
C976 C977 1.377 . S
C977 H961 0.930 . S
C977 C976 1.377 . S
C977 C978 1.379 . S
C978 H962 0.931 . S
C978 C972 1.383 . S
C978 C977 1.379 . S
H979 C973 0.959 . S
H980 C973 0.961 . S
H981 C973 0.960 . S
H982 C974 0.930 . S
H983 C975 0.929 . S
H984 C992 0.929 . S
H985 C994 0.930 . S
H986 C996 0.930 . S
H987 C999 0.929 . S
H988 C1002 0.930 . S
H989 C1004 0.960 . S
H990 C1004 0.960 . S
H991 C1004 0.960 . S
C992 H984 0.929 . S
C992 C993 1.377 . S
C992 C994 1.384 . S
C993 C992 1.377 . S
C993 C999 1.390 1_655 S
C994 H985 0.930 . S
C994 C992 1.384 . S
C994 C995 1.372 . S
C995 C994 1.372 . S
C995 C996 1.400 1_655 S
C995 C1000 1.490 . S
C996 H986 0.930 . S
C996 C995 1.400 1_455 S
C996 C999 1.386 . S
H997 C1013 0.930 . S
H998 C1014 0.931 . S
C999 H987 0.929 . S
C999 C993 1.390 1_455 S
C999 C996 1.386 . S
C1000 C995 1.490 . S
C1000 C1002 1.395 1_655 S
C1000 C1003 1.403 . S
H1001 C1007 0.930 . S
C1002 H988 0.930 . S
C1002 C1000 1.395 1_455 S
C1002 C1005 1.403 . S
C1003 C1000 1.403 . S
C1003 C1004 1.524 . S
C1003 C1007 1.400 . S
C1004 H989 0.960 . S
C1004 H990 0.960 . S
C1004 H991 0.960 . S
C1004 C1003 1.524 . S
C1005 C1002 1.403 . S
C1005 C1006 1.392 1_455 S
C1005 C1009 1.495 . S
C1006 C1005 1.392 1_655 S
C1006 C1007 1.385 . S
C1006 C1008 1.478 . S
C1007 H1001 0.930 . S
C1007 C1003 1.400 . S
C1007 C1006 1.385 . S
C1008 C1006 1.478 . S
C1008 C1010 1.381 . S
C1008 C1014 1.383 1_655 S
C1009 C1005 1.495 . S
C1009 H1015 0.959 . S
C1009 H1016 0.961 . S
C1009 H1017 0.960 . S
C1010 C1008 1.381 . S
C1010 C1011 1.394 . S
C1010 H1018 0.930 . S
C1011 C1010 1.394 . S
C1011 C1012 1.383 . S
C1011 H1019 0.929 . S
C1012 C1011 1.383 . S
C1012 C1013 1.377 1_655 S
C1013 H997 0.930 . S
C1013 C1012 1.377 1_455 S
C1013 C1014 1.379 . S
C1014 H998 0.931 . S
C1014 C1008 1.383 1_455 S
C1014 C1013 1.379 . S
H1015 C1009 0.959 . S
H1016 C1009 0.961 . S
H1017 C1009 0.960 . S
H1018 C1010 0.930 . S
H1019 C1011 0.929 . S
H1020 C1028 0.929 . S
H1021 C1030 0.930 . S
H1022 C1032 0.930 . S
H1023 C1035 0.929 . S
H1024 C1038 0.930 . S
H1025 C1040 0.960 . S
H1026 C1040 0.960 . S
H1027 C1040 0.960 1_545 S
C1028 H1020 0.929 . S
C1028 C1029 1.423 . S
C1028 C1030 1.384 . S
C1029 C1028 1.423 . S
C1029 C1035 1.348 1_565 S
C1030 H1021 0.930 . S
C1030 C1028 1.384 . S
C1030 C1031 1.372 . S
C1031 C1030 1.372 . S
C1031 C1032 1.400 1_565 S
C1031 C1036 1.490 . S
C1032 H1022 0.930 . S
C1032 C1031 1.400 1_545 S
C1032 C1035 1.386 . S
H1033 C1049 0.930 . S
H1034 C1050 0.931 . S
C1035 H1023 0.929 . S
C1035 C1029 1.348 1_545 S
C1035 C1032 1.386 . S
C1036 C1031 1.490 . S
C1036 C1038 1.395 . S
C1036 C1039 1.403 . S
H1037 C1043 0.930 . S
C1038 H1024 0.930 . S
C1038 C1036 1.395 . S
C1038 C1041 1.403 . S
C1039 C1036 1.403 . S
C1039 C1040 1.524 . S
C1039 C1043 1.400 . S
C1040 H1025 0.960 . S
C1040 H1026 0.960 . S
C1040 H1027 0.960 1_565 S
C1040 C1039 1.524 . S
C1041 C1038 1.403 . S
C1041 C1042 1.392 . S
C1041 C1045 1.495 . S
C1042 C1041 1.392 . S
C1042 C1043 1.385 . S
C1042 C1044 1.478 . S
C1043 H1037 0.930 . S
C1043 C1039 1.400 . S
C1043 C1042 1.385 . S
C1044 C1042 1.478 . S
C1044 C1046 1.381 . S
C1044 C1050 1.383 1_565 S
C1045 C1041 1.495 . S
C1045 H1051 0.959 . S
C1045 H1052 0.961 1_565 S
C1045 H1053 0.960 . S
C1046 C1044 1.381 . S
C1046 C1047 1.394 . S
C1046 H1054 0.930 . S
C1047 C1046 1.394 . S
C1047 C1048 1.383 . S
C1047 H1055 0.929 . S
C1048 C1047 1.383 . S
C1048 C1049 1.377 1_565 S
C1049 H1033 0.930 . S
C1049 C1048 1.377 1_545 S
C1049 C1050 1.379 . S
C1050 H1034 0.931 . S
C1050 C1044 1.383 1_545 S
C1050 C1049 1.379 . S
H1051 C1045 0.959 . S
H1052 C1045 0.961 1_545 S
H1053 C1045 0.960 . S
H1054 C1046 0.930 . S
H1055 C1047 0.929 . S
H1056 C1064 0.929 . S
H1057 C1066 0.930 . S
H1058 C1068 0.930 . S
H1059 C1071 0.929 . S
H1060 C1074 0.930 . S
H1061 C1076 0.960 . S
H1062 C1076 0.960 . S
H1063 C1076 0.960 . S
C1064 H1056 0.929 . S
C1064 C1065 1.377 . S
C1064 C1066 1.384 . S
C1065 C1064 1.377 . S
C1065 C1071 1.390 . S
C1066 H1057 0.930 . S
C1066 C1064 1.384 . S
C1066 C1067 1.372 . S
C1067 C1066 1.372 . S
C1067 C1068 1.400 . S
C1067 C1072 1.490 . S
C1068 H1058 0.930 . S
C1068 C1067 1.400 . S
C1068 C1071 1.386 . S
H1069 C1085 0.930 . S
H1070 C1086 0.931 . S
C1071 H1059 0.929 . S
C1071 C1065 1.390 . S
C1071 C1068 1.386 . S
C1072 C1067 1.490 . S
C1072 C1074 1.395 . S
C1072 C1075 1.403 . S
H1073 C1079 0.930 . S
C1074 H1060 0.930 . S
C1074 C1072 1.395 . S
C1074 C1077 1.403 . S
C1075 C1072 1.403 . S
C1075 C1076 1.524 . S
C1075 C1079 1.400 . S
C1076 H1061 0.960 . S
C1076 H1062 0.960 . S
C1076 H1063 0.960 . S
C1076 C1075 1.524 . S
C1077 C1074 1.403 . S
C1077 C1078 1.392 . S
C1077 C1081 1.495 . S
C1078 C1077 1.392 . S
C1078 C1079 1.385 . S
C1078 C1080 1.478 . S
C1079 H1073 0.930 . S
C1079 C1075 1.400 . S
C1079 C1078 1.385 . S
C1080 C1078 1.478 . S
C1080 C1082 1.381 . S
C1080 C1086 1.383 . S
C1081 C1077 1.495 . S
C1081 H1087 0.959 . S
C1081 H1088 0.961 . S
C1081 H1089 0.960 . S
C1082 C1080 1.381 . S
C1082 C1083 1.394 . S
C1082 H1090 0.930 . S
C1083 C1082 1.394 . S
C1083 C1084 1.383 . S
C1083 H1091 0.929 . S
C1084 C1083 1.383 . S
C1084 C1085 1.377 . S
C1085 H1069 0.930 . S
C1085 C1084 1.377 . S
C1085 C1086 1.379 . S
C1086 H1070 0.931 . S
C1086 C1080 1.383 . S
C1086 C1085 1.379 . S
H1087 C1081 0.959 . S
H1088 C1081 0.961 . S
H1089 C1081 0.960 . S
H1090 C1082 0.930 . S
H1091 C1083 0.929 . S
H1092 C1100 0.929 . S
H1093 C1102 0.930 . S
H1094 C1104 0.930 . S
H1095 C1107 0.929 . S
H1096 C1110 0.930 . S
H1097 C1112 0.960 . S
H1098 C1112 0.960 . S
H1099 C1112 0.960 . S
C1100 H1092 0.929 . S
C1100 C1101 1.377 . S
C1100 C1102 1.384 . S
C1101 C1100 1.377 . S
C1101 C1107 1.390 . S
C1102 H1093 0.930 . S
C1102 C1100 1.384 . S
C1102 C1103 1.372 . S
C1103 C1102 1.372 . S
C1103 C1104 1.400 . S
C1103 C1108 1.490 . S
C1104 H1094 0.930 . S
C1104 C1103 1.400 . S
C1104 C1107 1.386 . S
H1105 C1121 0.930 . S
H1106 C1122 0.931 . S
C1107 H1095 0.929 . S
C1107 C1101 1.390 . S
C1107 C1104 1.386 . S
C1108 C1103 1.490 . S
C1108 C1110 1.395 . S
C1108 C1111 1.403 . S
H1109 C1115 0.930 . S
C1110 H1096 0.930 . S
C1110 C1108 1.395 . S
C1110 C1113 1.403 . S
C1111 C1108 1.403 . S
C1111 C1112 1.524 . S
C1111 C1115 1.400 . S
C1112 H1097 0.960 . S
C1112 H1098 0.960 . S
C1112 H1099 0.960 . S
C1112 C1111 1.524 . S
C1113 C1110 1.403 . S
C1113 C1114 1.392 . S
C1113 C1117 1.495 . S
C1114 C1113 1.392 . S
C1114 C1115 1.385 . S
C1114 C1116 1.478 . S
C1115 H1109 0.930 . S
C1115 C1111 1.400 . S
C1115 C1114 1.385 . S
C1116 C1114 1.478 . S
C1116 C1118 1.381 . S
C1116 C1122 1.383 . S
C1117 C1113 1.495 . S
C1117 H1123 0.959 . S
C1117 H1124 0.961 . S
C1117 H1125 0.960 . S
C1118 C1116 1.381 . S
C1118 C1119 1.394 . S
C1118 H1126 0.930 . S
C1119 C1118 1.394 . S
C1119 C1120 1.383 . S
C1119 H1127 0.929 . S
C1120 C1119 1.383 . S
C1120 C1121 1.377 . S
C1121 H1105 0.930 . S
C1121 C1120 1.377 . S
C1121 C1122 1.379 . S
C1122 H1106 0.931 . S
C1122 C1116 1.383 . S
C1122 C1121 1.379 . S
H1123 C1117 0.959 . S
H1124 C1117 0.961 . S
H1125 C1117 0.960 . S
H1126 C1118 0.930 . S
H1127 C1119 0.929 . S
C273 C82 1.635 . S
C292 C122 1.839 . S
C328 C162 1.835 . S
C309 C95 1.636 . S
C364 C202 1.838 . S
C345 C56 1.641 . S
C400 C242 1.833 1_455 S
C381 C69 1.640 1_655 S
C436 C112 1.843 1_565 S
C417 C30 1.644 . S
C453 C43 1.627 . S
C472 C152 1.854 . S
C489 C4 1.632 . S
C508 C192 1.857 . S
C525 C17 1.630 . S
C544 C232 1.853 1_655 S
C580 C109 0.271 . S
C561 C74 0.353 . S
C616 C149 0.376 . S
C597 C87 0.391 . S
C652 C189 0.269 . S
C633 C100 0.359 . S
C669 C61 0.371 . S
C688 C229 0.311 . S
C705 C22 0.351 1_655 S
C724 C119 0.330 . S
C760 C159 0.265 . S
C741 C35 0.375 1_565 S
C796 C199 0.284 . S
C777 C48 0.395 . S
C813 C9 0.392 . S
C832 C239 0.317 . S
C849 C73 1.890 . S
C868 C113 2.051 . S
C885 C86 1.885 . S
C904 C153 2.059 . S
C940 C193 2.044 . S
C921 C99 1.876 . S
C976 C233 2.065 . S
C957 C60 1.884 . S
C993 C21 1.897 1_655 S
C1012 C123 2.064 . S
C1048 C163 2.055 . S
C1029 C34 1.883 1_565 S
C1084 C203 2.059 . S
C1065 C47 1.878 . S
C1101 C8 1.885 . S
C1120 C243 2.073 . S
