# Generated by pormake.
# Topology rtl, (3,6)-cn, num edge types: 1
# Building blocks:
#     Node 0, Type 0, BuildingBlock: MIDCAF_clean_linker_0, # of connection points: 3
#     Node 1, Type 0, BuildingBlock: MIDCAF_clean_linker_0, # of connection points: 3
#     Node 2, Type 0, BuildingBlock: MIDCAF_clean_linker_0, # of connection points: 3
#     Node 3, Type 0, BuildingBlock: MIDCAF_clean_linker_0, # of connection points: 3
#     Node 4, Type 1, BuildingBlock: FUNLAD_clean_sbu_0, # of connection points: 6
#     Node 5, Type 1, BuildingBlock: FUNLAD_clean_sbu_0, # of connection points: 6
#     Edge 6, Type (0, 1), BuildingBlock: XUDNAN_clean_linker_2, # of connection points: 2
#     Edge 7, Type (0, 1), BuildingBlock: XUDNAN_clean_linker_2, # of connection points: 2
#     Edge 8, Type (0, 1), BuildingBlock: XUDNAN_clean_linker_2, # of connection points: 2
#     Edge 9, Type (0, 1), BuildingBlock: XUDNAN_clean_linker_2, # of connection points: 2
#     Edge 10, Type (0, 1), BuildingBlock: XUDNAN_clean_linker_2, # of connection points: 2
#     Edge 11, Type (0, 1), BuildingBlock: XUDNAN_clean_linker_2, # of connection points: 2
#     Edge 12, Type (0, 1), BuildingBlock: XUDNAN_clean_linker_2, # of connection points: 2
#     Edge 13, Type (0, 1), BuildingBlock: XUDNAN_clean_linker_2, # of connection points: 2
#     Edge 14, Type (0, 1), BuildingBlock: XUDNAN_clean_linker_2, # of connection points: 2
#     Edge 15, Type (0, 1), BuildingBlock: XUDNAN_clean_linker_2, # of connection points: 2
#     Edge 16, Type (0, 1), BuildingBlock: XUDNAN_clean_linker_2, # of connection points: 2
#     Edge 17, Type (0, 1), BuildingBlock: XUDNAN_clean_linker_2, # of connection points: 2
# Relax obj value: 0.028
# Max RMSD: 0.094
# Mean RMSD: 0.080
data_MOF--net-rtl--node1-FUNLAD_clean_sbu_0--node2-MIDCAF_clean_linker_0--edge1-XUDNAN_clean_linker_2
_symmetry_space_group_name_H-M    P1
_symmetry_Int_Tables_number       1
_symmetry_cell_setting            triclinic
loop_
_symmetry_equiv_pos_as_xyz
'x, y, z'
_cell_length_a     48.791142
_cell_length_b     39.640427
_cell_length_c     28.248883
_cell_angle_alpha  89.735926
_cell_angle_beta   90.957114
_cell_angle_gamma 90.312144
loop_
_atom_site_label
_atom_site_type_symbol
_atom_site_fract_x
_atom_site_fract_y
_atom_site_fract_z
_atom_type_partial_charge
C0 C 0.06595 0.81924 0.11778 0.0
C1 C 0.0781 0.81889 0.16319 0.0
C2 C 0.10413 0.80434 0.16942 0.0
C3 C 0.11784 0.79072 0.13087 0.0
H4 H 0.17536 0.71857 0.09298 0.0
H5 H 0.21557 0.68374 0.1055 0.0
H6 H 0.23633 0.69558 0.95827 0.0
H7 H 0.19548 0.72991 0.94523 0.0
H8 H 0.15588 0.78523 0.87932 0.0
H9 H 0.13872 0.8049 0.80169 0.0
H10 H 0.0572 0.81201 0.85764 0.0
H11 H 0.07411 0.79299 0.93464 0.0
H12 H 0.06986 0.80712 0.04463 0.0
H13 H 0.04603 0.83059 0.1118 0.0
H14 H 0.11389 0.8035 0.20413 0.0
H15 H 0.13799 0.78 0.13677 0.0
N16 N 0.14363 0.75987 0.04929 0.0
N17 N 0.14915 0.75835 0.96682 0.0
N18 N 0.1124 0.78777 -0.00068 0.0
C19 C 0.15777 0.74912 0.01112 0.0
C20 C 0.12634 0.77759 0.9608 0.0
C21 C 0.12095 0.77926 0.04366 0.0
C22 C 0.18221 0.72736 0.01812 0.0
C23 C 0.18841 0.71382 0.06312 0.0
C24 C 0.21158 0.69387 0.0704 0.0
C25 C 0.22936 0.68706 0.03302 0.0
C26 C 0.22295 0.70004 0.98776 0.0
C27 C 0.1996 0.71993 0.98037 0.0
C28 C 0.11635 0.78761 0.91307 0.0
C29 C 0.13428 0.79079 0.87481 0.0
C30 C 0.12455 0.80219 0.83059 0.0
C31 C 0.09666 0.80978 0.82379 0.0
C32 C 0.07875 0.80601 0.86182 0.0
C33 C 0.08849 0.79529 0.90599 0.0
C34 C 0.10592 0.79177 0.0852 0.0
C35 C 0.07973 0.80598 0.07922 0.0
C36 C 0.57348 0.6923 0.37294 0.0
C37 C 0.5894 0.6936 0.33209 0.0
C38 C 0.6159 0.70756 0.33469 0.0
C39 C 0.62615 0.72044 0.3776 0.0
H40 H 0.67855 0.79583 0.43648 0.0
H41 H 0.71571 0.83708 0.4421 0.0
H42 H 0.70845 0.83798 0.59428 0.0
H43 H 0.67111 0.79744 0.58889 0.0
H44 H 0.61639 0.7605 0.63487 0.0
H45 H 0.59692 0.73655 0.70717 0.0
H46 H 0.57695 0.6448 0.63224 0.0
H47 H 0.59582 0.6687 0.55991 0.0
H48 H 0.571 0.70302 0.44664 0.0
H49 H 0.55309 0.68135 0.37188 0.0
H50 H 0.6285 0.70879 0.30351 0.0
H51 H 0.64661 0.73116 0.37882 0.0
N52 N 0.64086 0.75529 0.46679 0.0
N53 N 0.63876 0.75485 0.54979 0.0
N54 N 0.61017 0.7191 0.50525 0.0
C55 C 0.64986 0.76726 0.50942 0.0
C56 C 0.61903 0.73065 0.54792 0.0
C57 C 0.62085 0.73134 0.46457 0.0
C58 C 0.67184 0.79315 0.51223 0.0
C59 C 0.68474 0.80496 0.47114 0.0
C60 C 0.70612 0.8285 0.47433 0.0
C61 C 0.71501 0.84078 0.51863 0.0
C62 C 0.70183 0.82938 0.55957 0.0
C63 C 0.68052 0.80588 0.55643 0.0
C64 C 0.60757 0.71647 0.59177 0.0
C65 C 0.60786 0.73522 0.6339 0.0
C66 C 0.59666 0.72166 0.6751 0.0
C67 C 0.5856 0.6889 0.675 0.0
C68 C 0.58556 0.67006 0.63311 0.0
C69 C 0.5962 0.68382 0.59175 0.0
C70 C 0.61024 0.7188 0.41862 0.0
C71 C 0.58384 0.70454 0.41578 0.0
C72 C 0.9373 0.1672 0.88038 0.0
C73 C 0.93797 0.18509 0.83746 0.0
C74 C 0.92675 0.21763 0.83504 0.0
C75 C 0.91487 0.23194 0.87495 0.0
H76 H 0.84991 0.29519 0.91659 0.0
H77 H 0.81107 0.33332 0.91 0.0
H78 H 0.8029 0.33158 0.06197 0.0
H79 H 0.84149 0.29306 0.06877 0.0
H80 H 0.88785 0.25641 0.13189 0.0
H81 H 0.90219 0.23444 0.20904 0.0
H82 H 0.94922 0.15711 0.14066 0.0
H83 H 0.93562 0.17952 0.06377 0.0
H84 H 0.92595 0.16733 0.95312 0.0
H85 H 0.94597 0.14215 0.88315 0.0
H86 H 0.92699 0.23183 0.8022 0.0
H87 H 0.90634 0.25706 0.87219 0.0
N88 N 0.88297 0.25316 0.95752 0.0
N89 N 0.88082 0.25554 0.04042 0.0
N90 N 0.91156 0.21886 0.00446 0.0
C91 C 0.87171 0.26627 0.99714 0.0
C92 C 0.90085 0.23193 0.04436 0.0
C93 C 0.90286 0.22938 0.96101 0.0
C94 C 0.84889 0.29087 0.99322 0.0
C95 C 0.83995 0.30297 0.94871 0.0
C96 C 0.81774 0.32501 0.9449 0.0
C97 C 0.80384 0.33544 0.98545 0.0
C98 C 0.81294 0.32369 0.02999 0.0
C99 C 0.83522 0.30175 0.03386 0.0
C100 C 0.91039 0.21964 0.09148 0.0
C101 C 0.90139 0.23486 0.13327 0.0
C102 C 0.90956 0.22219 0.17755 0.0
C103 C 0.92679 0.19391 0.18112 0.0
C104 C 0.93629 0.17922 0.13934 0.0
C105 C 0.92825 0.19196 0.09511 0.0
C106 C 0.9146 0.21422 0.91817 0.0
C107 C 0.92597 0.18172 0.92043 0.0
C108 C 0.4267 0.33496 0.63698 0.0
C109 C 0.42585 0.31543 0.67846 0.0
C110 C 0.41454 0.28281 0.67667 0.0
C111 C 0.40413 0.26996 0.63391 0.0
H112 H 0.34639 0.20266 0.5762 0.0
H113 H 0.30936 0.16137 0.57461 0.0
H114 H 0.29915 0.17623 0.42384 0.0
H115 H 0.33619 0.21793 0.42522 0.0
H116 H 0.37692 0.27368 0.37193 0.0
H117 H 0.39866 0.29585 0.30041 0.0
H118 H 0.46908 0.32687 0.38424 0.0
H119 H 0.4476 0.3052 0.45522 0.0
H120 H 0.41806 0.33749 0.56264 0.0
H121 H 0.43552 0.36011 0.63749 0.0
H122 H 0.41367 0.26736 0.70835 0.0
H123 H 0.39557 0.24469 0.63335 0.0
N124 N 0.37575 0.25156 0.54461 0.0
N125 N 0.37733 0.25163 0.4615 0.0
N126 N 0.40648 0.28719 0.50556 0.0
C127 C 0.36636 0.23956 0.50227 0.0
C128 C 0.3976 0.27529 0.46303 0.0
C129 C 0.39566 0.27557 0.54641 0.0
C130 C 0.34428 0.21374 0.50084 0.0
C131 C 0.33635 0.19718 0.54261 0.0
C132 C 0.31523 0.17329 0.5417 0.0
C133 C 0.30142 0.16552 0.49909 0.0
C134 C 0.30934 0.18192 0.45725 0.0
C135 C 0.33065 0.20566 0.45805 0.0
C136 C 0.4105 0.28776 0.41925 0.0
C137 C 0.39708 0.28512 0.37496 0.0
C138 C 0.40942 0.29789 0.33414 0.0
C139 C 0.43557 0.31285 0.33692 0.0
C140 C 0.44904 0.3151 0.38105 0.0
C141 C 0.4366 0.30289 0.42175 0.0
C142 C 0.40551 0.28929 0.59216 0.0
C143 C 0.41686 0.32192 0.59417 0.0
C144 C 0.01583 0.95682 0.42816 0.0
N145 N 0.07002 0.02589 0.49225 0.0
C146 C 0.09005 0.00246 0.48765 0.0
C147 C 0.11753 0.0123 0.48661 0.0
C148 C 0.12453 0.0466 0.49055 0.0
C149 C 0.10336 0.07033 0.49408 0.0
C150 C 0.07611 0.05936 0.49485 0.0
Zn151 Zn 0.03043 0.00985 0.49868 0.0
C152 C 0.99069 0.05012 0.44218 0.0
N153 N 0.94846 0.97495 0.51456 0.0
C154 C 0.94227 0.9415 0.51221 0.0
C155 C 0.92864 0.9984 0.52116 0.0
C156 C 0.90131 0.98855 0.52538 0.0
C157 C 0.89427 0.9542 0.52304 0.0
C158 C 0.91519 0.93051 0.51649 0.0
Zn159 Zn 0.98798 0.9908 0.50757 0.0
O160 O 0.03557 0.97533 0.44259 0.0
C161 C 0.02666 0.95016 0.56461 0.0
O162 O 0.9928 0.95872 0.44835 0.0
H163 H 0.934 0.02487 0.5229 0.0
H164 H 0.08476 0.97597 0.4856 0.0
H165 H 0.95836 0.92329 0.50701 0.0
O166 O 0.04359 0.97186 0.54887 0.0
O167 O 0.00159 0.95207 0.55228 0.0
H168 H 0.05986 0.07755 0.49859 0.0
O169 O 0.98368 0.02301 0.5666 0.0
O170 O 0.02455 0.04443 0.5547 0.0
O171 O 0.97464 0.02976 0.46282 0.0
O172 O 0.01645 0.04741 0.44882 0.0
C173 C 0.00241 0.04405 0.57774 0.0
H174 H 0.13314 0.99319 0.48311 0.0
H175 H 0.1078 0.09699 0.49776 0.0
H176 H 0.88584 0.00772 0.52973 0.0
H177 H 0.91077 0.90373 0.51518 0.0
C178 C 0.49567 0.4542 0.93995 0.0
N179 N 0.57281 0.47529 0.00265 0.0
C180 C 0.57771 0.44152 0.00257 0.0
C181 C 0.60442 0.42947 0.99814 0.0
C182 C 0.62633 0.45238 0.99367 0.0
C183 C 0.62067 0.48708 0.9946 0.0
C184 C 0.59368 0.49802 -0.00088 0.0
Zn185 Zn 0.53336 0.49261 0.00615 0.0
C186 C 0.52251 0.54742 0.93673 0.0
N187 N 0.45083 0.52859 0.01129 0.0
C188 C 0.42796 0.50878 0.01338 0.0
C189 C 0.44912 0.56277 0.01449 0.0
C190 C 0.42407 0.57821 0.02214 0.0
C191 C 0.40034 0.55846 0.02581 0.0
C192 C 0.40221 0.52338 0.02032 0.0
Zn193 Zn 0.48976 0.50945 0.00732 0.0
O194 O 0.52018 0.45605 0.95586 0.0
C195 C 0.50066 0.45454 0.07684 0.0
O196 O 0.47777 0.47471 0.95459 0.0
H197 H 0.46739 0.57821 0.0124 0.0
H198 H 0.56083 0.42386 0.00529 0.0
H199 H 0.42977 0.48166 0.01083 0.0
O200 O 0.52475 0.45819 0.06102 0.0
O201 O 0.48137 0.47291 0.06044 0.0
H202 H 0.58938 0.52475 -0.00063 0.0
O203 O 0.50246 0.54383 0.05961 0.0
O204 O 0.54572 0.52954 0.05704 0.0
O205 O 0.49889 0.54551 0.95469 0.0
O206 O 0.54119 0.52735 0.95078 0.0
C207 C 0.52705 0.54812 0.0736 0.0
H208 H 0.60776 0.40251 0.99708 0.0
H209 H 0.63693 0.50566 0.99197 0.0
H210 H 0.42328 0.60538 0.02594 0.0
H211 H 0.3842 0.50745 0.02315 0.0
H212 H 0.25126 0.17187 0.45491 0.0
H213 H 0.29949 0.10405 0.54342 0.0
H214 H 0.26011 0.06474 0.54736 0.0
H215 H 0.18915 0.16116 0.51477 0.0
H216 H 0.1676 0.16283 0.46237 0.0
H217 H 0.20015 0.18442 0.46342 0.0
H218 H 0.2148 0.15188 0.38868 0.0
H219 H 0.1822 0.1303 0.38723 0.0
H220 H 0.21353 0.10642 0.38874 0.0
H221 H 0.21491 0.03452 0.54534 0.0
H222 H 0.16684 0.0155 0.53809 0.0
H223 H 0.14817 0.10258 0.44967 0.0
C224 C 0.25369 0.14843 0.47433 0.0
C225 C 0.27842 0.14092 0.49878 0.0
C226 C 0.28064 0.11036 0.52471 0.0
C227 C 0.25846 0.08782 0.52693 0.0
C228 C 0.23425 0.0962 0.50296 0.0
C229 C 0.23173 0.12571 0.47705 0.0
C230 C 0.20304 0.12949 0.45646 0.0
C231 C 0.18918 0.16136 0.47541 0.0
C232 C 0.20343 0.12951 0.40205 0.0
C233 C 0.18971 0.09775 0.47547 0.0
C234 C 0.20812 0.07878 0.50188 0.0
C235 C 0.20038 0.04893 0.52426 0.0
C236 C 0.17304 0.03825 0.51971 0.0
C237 C 0.15372 0.05741 0.49306 0.0
C238 C 0.16236 0.08744 0.47047 0.0
H239 H 0.25298 0.639 0.97617 0.0
H240 H 0.26412 0.69171 0.10965 0.0
H241 H 0.30681 0.66046 0.12494 0.0
H242 H 0.28087 0.55797 0.01554 0.0
H243 H 0.29773 0.5501 0.96041 0.0
H244 H 0.26683 0.57481 0.96099 0.0
H245 H 0.29192 0.62398 0.91888 0.0
H246 H 0.3228 0.59937 0.91794 0.0
H247 H 0.32323 0.64062 0.94454 0.0
H248 H 0.34954 0.62698 0.12386 0.0
H249 H 0.39053 0.59345 0.10553 0.0
H250 H 0.35252 0.56174 0.97317 0.0
C251 C 0.26437 0.64392 0.00865 0.0
C252 C 0.25495 0.66762 0.04195 0.0
C253 C 0.2705 0.67321 0.08406 0.0
C254 C 0.29488 0.65567 0.09301 0.0
C255 C 0.30352 0.63253 0.05959 0.0
C256 C 0.28883 0.62658 0.01822 0.0
C257 C 0.30345 0.6014 0.9873 0.0
C258 C 0.28619 0.56916 0.98069 0.0
C259 C 0.31079 0.61731 0.93934 0.0
C260 C 0.32888 0.59468 0.01742 0.0
C261 C 0.32834 0.6128 0.05911 0.0
C262 C 0.35008 0.61234 0.09165 0.0
C263 C 0.37321 0.59329 0.08101 0.0
C264 C 0.37438 0.57487 0.03833 0.0
C265 C 0.35178 0.57512 0.00647 0.0
H266 H 0.76337 0.83817 0.47093 0.0
H267 H 0.72021 0.89623 0.57586 0.0
H268 H 0.76098 0.93274 0.58683 0.0
H269 H 0.82783 0.83905 0.52808 0.0
H270 H 0.84727 0.84326 0.47467 0.0
H271 H 0.8142 0.82293 0.47289 0.0
H272 H 0.79756 0.86483 0.40794 0.0
H273 H 0.8307 0.88511 0.40917 0.0
H274 H 0.80023 0.90956 0.41841 0.0
H275 H 0.80727 0.96073 0.58958 0.0
H276 H 0.85541 0.97919 0.58248 0.0
H277 H 0.86756 0.90405 0.47351 0.0
C278 C 0.76227 0.85899 0.49549 0.0
C279 C 0.73861 0.86437 0.52255 0.0
C280 C 0.73823 0.89145 0.55511 0.0
C281 C 0.76121 0.91241 0.5614 0.0
C282 C 0.78434 0.90606 0.53469 0.0
C283 C 0.78497 0.88017 0.50214 0.0
C284 C 0.81265 0.87801 0.47899 0.0
C285 C 0.82628 0.84378 0.4893 0.0
C286 C 0.81013 0.88479 0.42546 0.0
C287 C 0.82761 0.90643 0.50413 0.0
C288 C 0.81091 0.92237 0.53598 0.0
C289 C 0.82045 0.94873 0.56432 0.0
C290 C 0.8478 0.95912 0.55988 0.0
C291 C 0.86528 0.94318 0.5273 0.0
C292 C 0.85486 0.91656 0.49906 0.0
H293 H 0.75514 0.33078 0.03261 0.0
H294 H 0.79792 0.39124 0.92848 0.0
H295 H 0.75743 0.42807 0.91993 0.0
H296 H 0.68909 0.33438 0.97695 0.0
H297 H 0.67072 0.3371 0.03162 0.0
H298 H 0.70327 0.31594 0.03038 0.0
H299 H 0.72197 0.35498 0.09694 0.0
H300 H 0.68943 0.37618 0.09852 0.0
H301 H 0.72041 0.4001 0.08916 0.0
H302 H 0.71207 0.45785 0.92201 0.0
H303 H 0.66498 0.47816 0.93392 0.0
H304 H 0.65208 0.39884 0.03783 0.0
C305 C 0.75613 0.352 0.00842 0.0
C306 C 0.77973 0.35813 0.98121 0.0
C307 C 0.77998 0.38584 0.94933 0.0
C308 C 0.75714 0.407 0.94442 0.0
C309 C 0.73419 0.40013 0.97162 0.0
C310 C 0.73351 0.37332 0.00301 0.0
C311 C 0.70614 0.37111 0.02745 0.0
C312 C 0.69144 0.33765 0.01589 0.0
C313 C 0.70971 0.37588 0.0812 0.0
C314 C 0.69149 0.40079 0.00475 0.0
C315 C 0.70806 0.41726 0.97277 0.0
C316 C 0.69897 0.44527 0.94717 0.0
C317 C 0.67222 0.45673 0.9544 0.0
C318 C 0.6548 0.44022 0.98696 0.0
C319 C 0.66474 0.41187 0.0124 0.0
H320 H 0.10003 0.86183 0.22959 0.0
H321 H 0.02414 0.81222 0.18695 0.0
H322 H 0.99997 0.84124 0.25123 0.0
H323 H 0.08855 0.85961 0.35674 0.0
H324 H 0.10376 0.90061 0.36628 0.0
H325 H 0.11519 0.87464 0.31839 0.0
H326 H 0.10469 0.92311 0.259 0.0
H327 H 0.09308 0.94913 0.30665 0.0
H328 H 0.07079 0.94096 0.25643 0.0
H329 H 0.98394 0.87681 0.31896 0.0
H330 H 0.97714 0.91651 0.38486 0.0
H331 H 0.06355 0.94321 0.38227 0.0
C332 C 0.07843 0.85664 0.23429 0.0
C333 C 0.06395 0.83469 0.20345 0.0
C334 C 0.03556 0.82911 0.21007 0.0
C335 C 0.02171 0.84535 0.24655 0.0
C336 C 0.03653 0.86715 0.276 0.0
C337 C 0.06427 0.87279 0.27031 0.0
C338 C 0.07524 0.89829 0.30567 0.0
C339 C 0.09696 0.88232 0.33873 0.0
C340 C 0.08661 0.92973 0.28042 0.0
C341 C 0.04931 0.90627 0.33196 0.0
C342 C 0.02723 0.88794 0.3145 0.0
C343 C 0.00109 0.89125 0.333 0.0
C344 C 0.99743 0.91389 0.37038 0.0
C345 C 0.01978 0.93304 0.38867 0.0
C346 C 0.04602 0.92903 0.36905 0.0
H347 H 0.59901 0.6291 0.71691 0.0
H348 H 0.54576 0.71563 0.72982 0.0
H349 H 0.5239 0.68905 0.79934 0.0
H350 H 0.55061 0.56608 0.74736 0.0
H351 H 0.57463 0.54064 0.78076 0.0
H352 H 0.58648 0.56689 0.73303 0.0
H353 H 0.62114 0.59623 0.79015 0.0
H354 H 0.60951 0.56992 0.83803 0.0
H355 H 0.60901 0.61518 0.84373 0.0
H356 H 0.50579 0.65102 0.86326 0.0
H357 H 0.4955 0.60674 0.92233 0.0
H358 H 0.56257 0.5466 0.87021 0.0
C359 C 0.58284 0.64244 0.73466 0.0
C360 C 0.57388 0.67424 0.71827 0.0
C361 C 0.55288 0.69127 0.74228 0.0
C362 C 0.54034 0.67634 0.78152 0.0
C363 C 0.54941 0.64468 0.79648 0.0
C364 C 0.57046 0.62817 0.77424 0.0
C365 C 0.57652 0.59452 0.79751 0.0
C366 C 0.57177 0.56532 0.76258 0.0
C367 C 0.60578 0.59395 0.81861 0.0
C368 C 0.55529 0.5944 0.83588 0.0
C369 C 0.53972 0.62344 0.83448 0.0
C370 C 0.51804 0.62837 0.86509 0.0
C371 C 0.51227 0.60304 0.89829 0.0
C372 C 0.52836 0.57343 0.90088 0.0
C373 C 0.55015 0.56918 0.86931 0.0
H374 H 0.97579 0.16613 0.21178 0.0
H375 H 0.89249 0.18544 0.2559 0.0
H376 H 0.90185 0.15558 0.33094 0.0
H377 H 0.97896 0.08322 0.25466 0.0
H378 H 0.01434 0.08519 0.27396 0.0
H379 H 0.00246 0.11173 0.22609 0.0
H380 H 0.01998 0.16462 0.27112 0.0
H381 H 0.03199 0.13819 0.31918 0.0
H382 H 0.00864 0.17218 0.33053 0.0
H383 H 0.91794 0.11865 0.39629 0.0
H384 H 0.94035 0.07774 0.44984 0.0
H385 H 0.01366 0.08173 0.36499 0.0
C386 C 0.9596 0.16439 0.23743 0.0
C387 C 0.93343 0.17843 0.22796 0.0
C388 C 0.91286 0.1756 0.26259 0.0
C389 C 0.91793 0.15851 0.30529 0.0
C390 C 0.94372 0.1445 0.31306 0.0
C391 C 0.96432 0.14738 0.28034 0.0
C392 C 0.98965 0.12811 0.29636 0.0
C393 C 0.99676 0.10042 0.26064 0.0
C394 C 0.01401 0.15222 0.3048 0.0
C395 C 0.97974 0.11313 0.34253 0.0
C396 C 0.95323 0.12318 0.35149 0.0
C397 C 0.93882 0.111 0.39009 0.0
C398 C 0.9517 0.08765 0.42016 0.0
C399 C 0.97878 0.07675 0.41165 0.0
C400 C 0.99314 0.0901 0.37273 0.0
H401 H 0.41376 0.37527 0.72039 0.0
H402 H 0.46461 0.28645 0.73591 0.0
H403 H 0.48738 0.31166 0.80646 0.0
H404 H 0.46388 0.43566 0.75195 0.0
H405 H 0.44103 0.46228 0.78432 0.0
H406 H 0.42786 0.43655 0.73669 0.0
H407 H 0.39293 0.4089 0.79332 0.0
H408 H 0.40587 0.43474 0.8411 0.0
H409 H 0.40503 0.38949 0.84754 0.0
H410 H 0.50743 0.34899 0.87014 0.0
H411 H 0.52023 0.39329 0.92788 0.0
H412 H 0.45422 0.4562 0.87364 0.0
C413 C 0.42949 0.36106 0.73906 0.0
C414 C 0.43755 0.32902 0.72301 0.0
C415 C 0.4581 0.31095 0.74812 0.0
C416 C 0.47117 0.32511 0.78797 0.0
C417 C 0.46307 0.35706 0.80248 0.0
C418 C 0.44239 0.37457 0.77927 0.0
C419 C 0.43764 0.40854 0.80187 0.0
C420 C 0.44293 0.43745 0.7666 0.0
C421 C 0.40864 0.41052 0.82217 0.0
C422 C 0.45925 0.40773 0.84085 0.0
C423 C 0.47383 0.37792 0.84042 0.0
C424 C 0.49589 0.3722 0.87132 0.0
C425 C 0.50309 0.39754 0.90375 0.0
C426 C 0.48804 0.42794 0.90535 0.0
C427 C 0.46579 0.43296 0.87361 0.0
H428 H 0.61227 0.64642 0.27443 0.0
H429 H 0.54047 0.70906 0.29052 0.0
H430 H 0.51837 0.68122 0.22174 0.0
H431 H 0.6093 0.6416 0.1424 0.0
H432 H 0.61998 0.59814 0.14235 0.0
H433 H 0.63168 0.62597 0.18886 0.0
H434 H 0.61255 0.58448 0.25144 0.0
H435 H 0.60055 0.55674 0.20522 0.0
H436 H 0.57692 0.57225 0.24829 0.0
H437 H 0.50222 0.64334 0.15809 0.0
H438 H 0.49303 0.59838 0.10032 0.0
H439 H 0.57516 0.55927 0.12419 0.0
C440 C 0.59224 0.65485 0.26245 0.0
C441 C 0.57805 0.67996 0.28731 0.0
C442 C 0.55158 0.68986 0.2717 0.0
C443 C 0.53894 0.67428 0.23269 0.0
C444 C 0.5531 0.64892 0.20971 0.0
C445 C 0.57923 0.63935 0.22363 0.0
C446 C 0.58894 0.60961 0.19487 0.0
C447 C 0.61396 0.61943 0.16536 0.0
C448 C 0.59509 0.57897 0.22687 0.0
C449 C 0.56389 0.60346 0.16358 0.0
C450 C 0.54361 0.62667 0.17259 0.0
C451 C 0.51804 0.62528 0.1502 0.0
C452 C 0.51299 0.59947 0.11763 0.0
C453 C 0.5334 0.5753 0.1077 0.0
C454 C 0.55926 0.57755 0.13076 0.0
H455 H 0.9266 0.12352 0.79873 0.0
H456 H 0.97807 0.21215 0.78246 0.0
H457 H 0.00121 0.18512 0.71514 0.0
H458 H 0.97687 0.0616 0.77134 0.0
H459 H 0.95331 0.03488 0.73881 0.0
H460 H 0.941 0.06113 0.7857 0.0
H461 H 0.90581 0.08849 0.72769 0.0
H462 H 0.91787 0.06215 0.68071 0.0
H463 H 0.91759 0.10735 0.67346 0.0
H464 H 0.01997 0.14713 0.65202 0.0
H465 H 0.02983 0.10356 0.59241 0.0
H466 H 0.96429 0.0411 0.64771 0.0
C467 C 0.94275 0.13717 0.78088 0.0
C468 C 0.95074 0.16978 0.79566 0.0
C469 C 0.97167 0.18717 0.77133 0.0
C470 C 0.98497 0.17197 0.73334 0.0
C471 C 0.9768 0.13958 0.7199 0.0
C472 C 0.9559 0.12259 0.74251 0.0
C473 C 0.95045 0.08848 0.72031 0.0
C474 C 0.95573 0.05984 0.75619 0.0
C475 C 0.9212 0.08652 0.69929 0.0
C476 C 0.97168 0.08878 0.68189 0.0
C477 C 0.98688 0.11831 0.68253 0.0
C478 C 0.00808 0.124 0.65098 0.0
C479 C 0.01362 0.09906 0.61743 0.0
C480 C 0.99777 0.06903 0.61538 0.0
C481 C 0.97665 0.06388 0.64826 0.0
H482 H 0.41349 0.35633 0.27119 0.0
H483 H 0.48781 0.30204 0.30817 0.0
H484 H 0.51183 0.33027 0.24253 0.0
H485 H 0.42307 0.35686 0.14142 0.0
H486 H 0.40961 0.39891 0.13481 0.0
H487 H 0.39752 0.37183 0.18153 0.0
H488 H 0.41067 0.41756 0.24323 0.0
H489 H 0.42303 0.44462 0.19683 0.0
H490 H 0.44536 0.43345 0.24584 0.0
H491 H 0.52863 0.3672 0.17753 0.0
H492 H 0.53717 0.4099 0.11578 0.0
H493 H 0.452 0.4409 0.12106 0.0
C494 C 0.43461 0.34981 0.26461 0.0
C495 C 0.44883 0.32694 0.29443 0.0
C496 C 0.47665 0.31958 0.28565 0.0
C497 C 0.49039 0.33538 0.24844 0.0
C498 C 0.47601 0.35844 0.22037 0.0
C499 C 0.44871 0.36556 0.22776 0.0
C500 C 0.43856 0.3929 0.19427 0.0
C501 C 0.41585 0.3793 0.16103 0.0
C502 C 0.42884 0.42396 0.22169 0.0
C503 C 0.46456 0.40046 0.16757 0.0
C504 C 0.48583 0.3801 0.18297 0.0
C505 C 0.51209 0.3831 0.16483 0.0
C506 C 0.51674 0.40753 0.12988 0.0
C507 C 0.49526 0.42877 0.11356 0.0
C508 C 0.46882 0.42499 0.13265 0.0
H509 H 0.11562 0.86293 0.77073 0.0
H510 H 0.05257 0.78549 0.77443 0.0
H511 H 0.03032 0.81048 0.70354 0.0
H512 H 0.07233 0.9293 0.74179 0.0
H513 H 0.09544 0.95105 0.70282 0.0
H514 H 0.10887 0.92462 0.74957 0.0
H515 H 0.13591 0.88998 0.68861 0.0
H516 H 0.12274 0.91653 0.6416 0.0
H517 H 0.118 0.87146 0.63873 0.0
H518 H 0.01199 0.84692 0.63941 0.0
H519 H 0.99913 0.89193 0.58317 0.0
H520 H 0.074 0.94642 0.61921 0.0
C521 C 0.09762 0.85073 0.75561 0.0
C522 C 0.08584 0.82219 0.77768 0.0
C523 C 0.06185 0.80736 0.75788 0.0
C524 C 0.04915 0.8213 0.71761 0.0
C525 C 0.06076 0.85002 0.69745 0.0
C526 C 0.08456 0.86449 0.71541 0.0
C527 C 0.09142 0.89686 0.68911 0.0
C528 C 0.09204 0.92724 0.72284 0.0
C529 C 0.11864 0.89349 0.66295 0.0
C530 C 0.06733 0.89876 0.65459 0.0
C531 C 0.05006 0.87128 0.65988 0.0
C532 C 0.02554 0.86829 0.63437 0.0
C533 C 0.01835 0.89412 0.6027 0.0
C534 C 0.03561 0.92262 0.59668 0.0
C535 C 0.0606 0.92471 0.6226 0.0
loop_
_geom_bond_atom_site_label_1
_geom_bond_atom_site_label_2
_geom_bond_distance
_geom_bond_site_symmetry_2
_ccdc_geom_bond_type
C0 C1 1.384 . S
C0 H13 0.947 . S
C0 C35 1.382 . S
C1 C0 1.384 . S
C1 C2 1.378 . S
C2 C1 1.378 . S
C2 C3 1.378 . S
C2 H14 0.952 . S
C3 C2 1.378 . S
C3 H15 0.950 . S
C3 C34 1.383 . S
H4 C23 0.947 . S
H5 C24 0.946 . S
H6 C26 0.953 . S
H7 C27 0.945 . S
H8 C29 0.952 . S
H9 C30 0.949 . S
H10 C32 0.950 . S
H11 C33 0.948 . S
H12 C35 0.951 . S
H13 C0 0.947 . S
H14 C2 0.952 . S
H15 C3 0.950 . S
N16 C19 1.382 . S
N16 C21 1.363 . S
N17 C19 1.371 1_556 S
N17 C20 1.372 . S
N18 C20 1.361 1_554 S
N18 C21 1.377 . S
C19 N16 1.382 . S
C19 N17 1.371 1_554 S
C19 C22 1.480 . S
C20 N17 1.372 . S
C20 N18 1.361 1_556 S
C20 C28 1.457 . S
C21 N16 1.363 . S
C21 N18 1.377 . S
C21 C34 1.479 . S
C22 C19 1.480 . S
C22 C23 1.383 . S
C22 C27 1.385 1_554 S
C23 H4 0.947 . S
C23 C22 1.383 . S
C23 C24 1.388 . S
C24 H5 0.946 . S
C24 C23 1.388 . S
C24 C25 1.384 . S
C25 C24 1.384 . S
C25 C26 1.377 1_554 S
C26 H6 0.953 . S
C26 C25 1.377 1_556 S
C26 C27 1.369 . S
C27 H7 0.945 . S
C27 C22 1.385 1_556 S
C27 C26 1.369 . S
C28 C20 1.457 . S
C28 C29 1.372 . S
C28 C33 1.364 . S
C29 H8 0.952 . S
C29 C28 1.372 . S
C29 C30 1.389 . S
C30 H9 0.949 . S
C30 C29 1.389 . S
C30 C31 1.387 . S
C31 C30 1.387 . S
C31 C32 1.372 . S
C32 H10 0.950 . S
C32 C31 1.372 . S
C32 C33 1.379 . S
C33 H11 0.948 . S
C33 C28 1.364 . S
C33 C32 1.379 . S
C34 C3 1.383 . S
C34 C21 1.479 . S
C34 C35 1.398 . S
C35 C0 1.382 . S
C35 H12 0.951 . S
C35 C34 1.398 . S
C36 C37 1.384 . S
C36 H49 0.947 . S
C36 C71 1.382 . S
C37 C36 1.384 . S
C37 C38 1.378 . S
C38 C37 1.378 . S
C38 C39 1.378 . S
C38 H50 0.952 . S
C39 C38 1.378 . S
C39 H51 0.950 . S
C39 C70 1.383 . S
H40 C59 0.947 . S
H41 C60 0.946 . S
H42 C62 0.953 . S
H43 C63 0.945 . S
H44 C65 0.952 . S
H45 C66 0.949 . S
H46 C68 0.950 . S
H47 C69 0.948 . S
H48 C71 0.951 . S
H49 C36 0.947 . S
H50 C38 0.952 . S
H51 C39 0.950 . S
N52 C55 1.382 . S
N52 C57 1.363 . S
N53 C55 1.371 . S
N53 C56 1.372 . S
N54 C56 1.361 . S
N54 C57 1.377 . S
C55 N52 1.382 . S
C55 N53 1.371 . S
C55 C58 1.480 . S
C56 N53 1.372 . S
C56 N54 1.361 . S
C56 C64 1.457 . S
C57 N52 1.363 . S
C57 N54 1.377 . S
C57 C70 1.479 . S
C58 C55 1.480 . S
C58 C59 1.383 . S
C58 C63 1.385 . S
C59 H40 0.947 . S
C59 C58 1.383 . S
C59 C60 1.388 . S
C60 H41 0.946 . S
C60 C59 1.388 . S
C60 C61 1.384 . S
C61 C60 1.384 . S
C61 C62 1.377 . S
C62 H42 0.953 . S
C62 C61 1.377 . S
C62 C63 1.369 . S
C63 H43 0.945 . S
C63 C58 1.385 . S
C63 C62 1.369 . S
C64 C56 1.457 . S
C64 C65 1.372 . S
C64 C69 1.364 . S
C65 H44 0.952 . S
C65 C64 1.372 . S
C65 C66 1.389 . S
C66 H45 0.949 . S
C66 C65 1.389 . S
C66 C67 1.387 . S
C67 C66 1.387 . S
C67 C68 1.372 . S
C68 H46 0.950 . S
C68 C67 1.372 . S
C68 C69 1.379 . S
C69 H47 0.948 . S
C69 C64 1.364 . S
C69 C68 1.379 . S
C70 C39 1.383 . S
C70 C57 1.479 . S
C70 C71 1.398 . S
C71 C36 1.382 . S
C71 H48 0.951 . S
C71 C70 1.398 . S
C72 C73 1.384 . S
C72 H85 0.947 . S
C72 C107 1.382 . S
C73 C72 1.384 . S
C73 C74 1.378 . S
C74 C73 1.378 . S
C74 C75 1.378 . S
C74 H86 0.952 . S
C75 C74 1.378 . S
C75 H87 0.950 . S
C75 C106 1.383 . S
H76 C95 0.947 . S
H77 C96 0.946 . S
H78 C98 0.953 . S
H79 C99 0.945 . S
H80 C101 0.952 . S
H81 C102 0.949 . S
H82 C104 0.950 . S
H83 C105 0.948 . S
H84 C107 0.951 . S
H85 C72 0.947 . S
H86 C74 0.952 . S
H87 C75 0.950 . S
N88 C91 1.382 1_556 S
N88 C93 1.363 . S
N89 C91 1.371 . S
N89 C92 1.372 . S
N90 C92 1.361 . S
N90 C93 1.377 1_554 S
C91 N88 1.382 1_554 S
C91 N89 1.371 . S
C91 C94 1.480 . S
C92 N89 1.372 . S
C92 N90 1.361 . S
C92 C100 1.457 . S
C93 N88 1.363 . S
C93 N90 1.377 1_556 S
C93 C106 1.479 . S
C94 C91 1.480 . S
C94 C95 1.383 1_554 S
C94 C99 1.385 . S
C95 H76 0.947 . S
C95 C94 1.383 1_556 S
C95 C96 1.388 . S
C96 H77 0.946 . S
C96 C95 1.388 . S
C96 C97 1.384 1_556 S
C97 C96 1.384 1_554 S
C97 C98 1.377 . S
C98 H78 0.953 . S
C98 C97 1.377 . S
C98 C99 1.369 . S
C99 H79 0.945 . S
C99 C94 1.385 . S
C99 C98 1.369 . S
C100 C92 1.457 . S
C100 C101 1.372 . S
C100 C105 1.364 . S
C101 H80 0.952 . S
C101 C100 1.372 . S
C101 C102 1.389 . S
C102 H81 0.949 . S
C102 C101 1.389 . S
C102 C103 1.387 . S
C103 C102 1.387 . S
C103 C104 1.372 . S
C104 H82 0.950 . S
C104 C103 1.372 . S
C104 C105 1.379 . S
C105 H83 0.948 . S
C105 C100 1.364 . S
C105 C104 1.379 . S
C106 C75 1.383 . S
C106 C93 1.479 . S
C106 C107 1.398 . S
C107 C72 1.382 . S
C107 H84 0.951 . S
C107 C106 1.398 . S
C108 C109 1.384 . S
C108 H121 0.947 . S
C108 C143 1.382 . S
C109 C108 1.384 . S
C109 C110 1.378 . S
C110 C109 1.378 . S
C110 C111 1.378 . S
C110 H122 0.952 . S
C111 C110 1.378 . S
C111 H123 0.950 . S
C111 C142 1.383 . S
H112 C131 0.947 . S
H113 C132 0.946 . S
H114 C134 0.953 . S
H115 C135 0.945 . S
H116 C137 0.952 . S
H117 C138 0.949 . S
H118 C140 0.950 . S
H119 C141 0.948 . S
H120 C143 0.951 . S
H121 C108 0.947 . S
H122 C110 0.952 . S
H123 C111 0.950 . S
N124 C127 1.382 . S
N124 C129 1.363 . S
N125 C127 1.371 . S
N125 C128 1.372 . S
N126 C128 1.361 . S
N126 C129 1.377 . S
C127 N124 1.382 . S
C127 N125 1.371 . S
C127 C130 1.480 . S
C128 N125 1.372 . S
C128 N126 1.361 . S
C128 C136 1.457 . S
C129 N124 1.363 . S
C129 N126 1.377 . S
C129 C142 1.479 . S
C130 C127 1.480 . S
C130 C131 1.383 . S
C130 C135 1.385 . S
C131 H112 0.947 . S
C131 C130 1.383 . S
C131 C132 1.388 . S
C132 H113 0.946 . S
C132 C131 1.388 . S
C132 C133 1.384 . S
C133 C132 1.384 . S
C133 C134 1.377 . S
C134 H114 0.953 . S
C134 C133 1.377 . S
C134 C135 1.369 . S
C135 H115 0.945 . S
C135 C130 1.385 . S
C135 C134 1.369 . S
C136 C128 1.457 . S
C136 C137 1.372 . S
C136 C141 1.364 . S
C137 H116 0.952 . S
C137 C136 1.372 . S
C137 C138 1.389 . S
C138 H117 0.949 . S
C138 C137 1.389 . S
C138 C139 1.387 . S
C139 C138 1.387 . S
C139 C140 1.372 . S
C140 H118 0.950 . S
C140 C139 1.372 . S
C140 C141 1.379 . S
C141 H119 0.948 . S
C141 C136 1.364 . S
C141 C140 1.379 . S
C142 C111 1.383 . S
C142 C129 1.479 . S
C142 C143 1.398 . S
C143 C108 1.382 . S
C143 H120 0.951 . S
C143 C142 1.398 . S
C144 O160 1.251 . S
C144 O162 1.254 . S
N145 C146 1.333 . S
N145 C150 1.307 . S
N145 Zn151 2.020 . S
C146 N145 1.333 . S
C146 C147 1.379 . S
C146 H164 0.952 . S
C147 C146 1.379 . S
C147 C148 1.390 . S
C147 H174 0.949 . S
C148 C147 1.390 . S
C148 C149 1.357 . S
C149 C148 1.357 . S
C149 C150 1.370 . S
C149 H175 0.950 . S
C150 N145 1.307 . S
C150 C149 1.370 . S
C150 H168 0.948 . S
Zn151 N145 2.020 . S
Zn151 O160 2.039 1_545 S
Zn151 O166 2.034 1_545 S
Zn151 O170 2.025 . S
Zn151 O172 2.024 . S
C152 O171 1.246 . S
C152 O172 1.249 1_655 S
N153 C154 1.307 . S
N153 C155 1.333 . S
N153 Zn159 2.020 . S
C154 N153 1.307 . S
C154 C158 1.370 . S
C154 H165 0.948 . S
C155 N153 1.333 . S
C155 C156 1.379 . S
C155 H163 0.961 . S
C156 C155 1.379 . S
C156 C157 1.390 . S
C156 H176 0.949 . S
C157 C156 1.390 . S
C157 C158 1.357 . S
C158 C154 1.370 . S
C158 C157 1.357 . S
C158 H177 0.950 . S
Zn159 N153 2.020 . S
Zn159 O162 2.025 1_655 S
Zn159 O167 2.024 1_655 S
Zn159 O169 2.039 1_565 S
Zn159 O171 2.034 1_565 S
O160 C144 1.251 . S
O160 Zn151 2.039 1_565 S
C161 O166 1.246 . S
C161 O167 1.249 . S
O162 C144 1.254 . S
O162 Zn159 2.025 1_455 S
H163 C155 0.961 . S
H164 C146 0.952 . S
H165 C154 0.948 . S
O166 Zn151 2.034 1_565 S
O166 C161 1.246 . S
O167 Zn159 2.024 1_455 S
O167 C161 1.249 . S
H168 C150 0.948 . S
O169 Zn159 2.039 1_545 S
O169 C173 1.251 . S
O170 Zn151 2.025 . S
O170 C173 1.254 1_455 S
O171 C152 1.246 . S
O171 Zn159 2.034 1_545 S
O172 Zn151 2.024 . S
O172 C152 1.249 1_455 S
C173 O169 1.251 . S
C173 O170 1.254 1_655 S
H174 C147 0.949 . S
H175 C149 0.950 . S
H176 C156 0.949 . S
H177 C158 0.950 . S
C178 O194 1.251 . S
C178 O196 1.254 . S
N179 C180 1.333 1_554 S
N179 C184 1.307 . S
N179 Zn185 2.020 . S
C180 N179 1.333 1_556 S
C180 C181 1.379 . S
C180 H198 0.952 . S
C181 C180 1.379 . S
C181 C182 1.390 1_556 S
C181 H208 0.949 . S
C182 C181 1.390 1_554 S
C182 C183 1.357 . S
C183 C182 1.357 . S
C183 C184 1.370 . S
C183 H209 0.950 . S
C184 N179 1.307 . S
C184 C183 1.370 . S
C184 H202 0.948 . S
Zn185 N179 2.020 . S
Zn185 O194 2.039 1_554 S
Zn185 O200 2.034 . S
Zn185 O204 2.025 . S
Zn185 O206 2.024 1_554 S
C186 O205 1.246 . S
C186 O206 1.249 . S
N187 C188 1.307 1_554 S
N187 C189 1.333 . S
N187 Zn193 2.020 . S
C188 N187 1.307 1_556 S
C188 C192 1.370 . S
C188 H199 0.948 . S
C189 N187 1.333 . S
C189 C190 1.379 . S
C189 H197 0.952 . S
C190 C189 1.379 . S
C190 C191 1.390 . S
C190 H210 0.949 . S
C191 C190 1.390 . S
C191 C192 1.357 1_554 S
C192 C188 1.370 . S
C192 C191 1.357 1_556 S
C192 H211 0.950 . S
Zn193 N187 2.020 . S
Zn193 O196 2.025 1_554 S
Zn193 O201 2.024 . S
Zn193 O203 2.039 . S
Zn193 O205 2.034 1_554 S
O194 C178 1.251 . S
O194 Zn185 2.039 1_556 S
C195 O200 1.246 . S
C195 O201 1.249 . S
O196 C178 1.254 . S
O196 Zn193 2.025 1_556 S
H197 C189 0.952 . S
H198 C180 0.952 . S
H199 C188 0.948 . S
O200 Zn185 2.034 . S
O200 C195 1.246 . S
O201 Zn193 2.024 . S
O201 C195 1.249 . S
H202 C184 0.948 . S
O203 Zn193 2.039 . S
O203 C207 1.251 . S
O204 Zn185 2.025 . S
O204 C207 1.254 . S
O205 C186 1.246 . S
O205 Zn193 2.034 1_556 S
O206 Zn185 2.024 1_556 S
O206 C186 1.249 . S
C207 O203 1.251 . S
C207 O204 1.254 . S
H208 C181 0.949 . S
H209 C183 0.950 . S
H210 C190 0.949 . S
H211 C192 0.950 . S
H212 C224 0.930 . S
H213 C226 0.930 . S
H214 C227 0.930 . S
H215 C231 0.959 . S
H216 C231 0.959 . S
H217 C231 0.961 . S
H218 C232 0.960 . S
H219 C232 0.961 . S
H220 C232 0.959 . S
H221 C235 0.929 . S
H222 C236 0.931 . S
H223 C238 0.930 . S
C224 H212 0.930 . S
C224 C225 1.399 . S
C224 C229 1.399 . S
C225 C224 1.399 . S
C225 C226 1.376 . S
C226 H213 0.930 . S
C226 C225 1.376 . S
C226 C227 1.388 . S
C227 H214 0.930 . S
C227 C226 1.388 . S
C227 C228 1.390 . S
C228 C227 1.390 . S
C228 C229 1.394 . S
C228 C234 1.465 . S
C229 C224 1.399 . S
C229 C228 1.394 . S
C229 C230 1.516 . S
C230 C229 1.516 . S
C230 C231 1.502 . S
C230 C232 1.561 . S
C230 C233 1.526 . S
C231 H215 0.959 . S
C231 H216 0.959 . S
C231 H217 0.961 . S
C231 C230 1.502 . S
C232 H218 0.960 . S
C232 H219 0.961 . S
C232 H220 0.959 . S
C232 C230 1.561 . S
C233 C230 1.526 . S
C233 C234 1.396 . S
C233 C238 1.390 . S
C234 C228 1.465 . S
C234 C233 1.396 . S
C234 C235 1.399 . S
C235 H221 0.929 . S
C235 C234 1.399 . S
C235 C236 1.385 . S
C236 H222 0.931 . S
C236 C235 1.385 . S
C236 C237 1.389 . S
C237 C236 1.389 . S
C237 C238 1.387 . S
C238 H223 0.930 . S
C238 C233 1.390 . S
C238 C237 1.387 . S
H239 C251 0.930 . S
H240 C253 0.930 . S
H241 C254 0.930 . S
H242 C258 0.959 . S
H243 C258 0.959 . S
H244 C258 0.961 . S
H245 C259 0.960 . S
H246 C259 0.961 . S
H247 C259 0.959 . S
H248 C262 0.929 . S
H249 C263 0.931 . S
H250 C265 0.930 . S
C251 H239 0.930 . S
C251 C252 1.399 1_556 S
C251 C256 1.399 . S
C252 C251 1.399 1_554 S
C252 C253 1.376 . S
C253 H240 0.930 . S
C253 C252 1.376 . S
C253 C254 1.388 . S
C254 H241 0.930 . S
C254 C253 1.388 . S
C254 C255 1.390 . S
C255 C254 1.390 . S
C255 C256 1.394 1_554 S
C255 C261 1.465 . S
C256 C251 1.399 . S
C256 C255 1.394 1_556 S
C256 C257 1.516 . S
C257 C256 1.516 . S
C257 C258 1.502 . S
C257 C259 1.561 . S
C257 C260 1.526 . S
C258 H242 0.959 . S
C258 H243 0.959 . S
C258 H244 0.961 . S
C258 C257 1.502 . S
C259 H245 0.960 . S
C259 H246 0.961 . S
C259 H247 0.959 . S
C259 C257 1.561 . S
C260 C257 1.526 . S
C260 C261 1.396 1_556 S
C260 C265 1.390 . S
C261 C255 1.465 . S
C261 C260 1.396 1_554 S
C261 C262 1.399 . S
C262 H248 0.929 . S
C262 C261 1.399 . S
C262 C263 1.385 . S
C263 H249 0.931 . S
C263 C262 1.385 . S
C263 C264 1.389 . S
C264 C263 1.389 . S
C264 C265 1.387 1_554 S
C265 H250 0.930 . S
C265 C260 1.390 . S
C265 C264 1.387 1_556 S
H266 C278 0.930 . S
H267 C280 0.930 . S
H268 C281 0.930 . S
H269 C285 0.959 . S
H270 C285 0.959 . S
H271 C285 0.961 . S
H272 C286 0.960 . S
H273 C286 0.961 . S
H274 C286 0.959 . S
H275 C289 0.929 . S
H276 C290 0.931 . S
H277 C292 0.930 . S
C278 H266 0.930 . S
C278 C279 1.399 . S
C278 C283 1.399 . S
C279 C278 1.399 . S
C279 C280 1.376 . S
C280 H267 0.930 . S
C280 C279 1.376 . S
C280 C281 1.388 . S
C281 H268 0.930 . S
C281 C280 1.388 . S
C281 C282 1.390 . S
C282 C281 1.390 . S
C282 C283 1.394 . S
C282 C288 1.465 . S
C283 C278 1.399 . S
C283 C282 1.394 . S
C283 C284 1.516 . S
C284 C283 1.516 . S
C284 C285 1.502 . S
C284 C286 1.561 . S
C284 C287 1.526 . S
C285 H269 0.959 . S
C285 H270 0.959 . S
C285 H271 0.961 . S
C285 C284 1.502 . S
C286 H272 0.960 . S
C286 H273 0.961 . S
C286 H274 0.959 . S
C286 C284 1.561 . S
C287 C284 1.526 . S
C287 C288 1.396 . S
C287 C292 1.390 . S
C288 C282 1.465 . S
C288 C287 1.396 . S
C288 C289 1.399 . S
C289 H275 0.929 . S
C289 C288 1.399 . S
C289 C290 1.385 . S
C290 H276 0.931 . S
C290 C289 1.385 . S
C290 C291 1.389 . S
C291 C290 1.389 . S
C291 C292 1.387 . S
C292 H277 0.930 . S
C292 C287 1.390 . S
C292 C291 1.387 . S
H293 C305 0.930 . S
H294 C307 0.930 . S
H295 C308 0.930 . S
H296 C312 0.959 . S
H297 C312 0.959 . S
H298 C312 0.961 . S
H299 C313 0.960 . S
H300 C313 0.961 . S
H301 C313 0.959 . S
H302 C316 0.929 . S
H303 C317 0.931 . S
H304 C319 0.930 . S
C305 H293 0.930 . S
C305 C306 1.399 1_554 S
C305 C310 1.399 . S
C306 C305 1.399 1_556 S
C306 C307 1.376 . S
C307 H294 0.930 . S
C307 C306 1.376 . S
C307 C308 1.388 . S
C308 H295 0.930 . S
C308 C307 1.388 . S
C308 C309 1.390 . S
C309 C308 1.390 . S
C309 C310 1.394 1_556 S
C309 C315 1.465 . S
C310 C305 1.399 . S
C310 C309 1.394 1_554 S
C310 C311 1.516 . S
C311 C310 1.516 . S
C311 C312 1.502 . S
C311 C313 1.561 . S
C311 C314 1.526 . S
C312 H296 0.959 . S
C312 H297 0.959 . S
C312 H298 0.961 . S
C312 C311 1.502 . S
C313 H299 0.960 . S
C313 H300 0.961 . S
C313 H301 0.959 . S
C313 C311 1.561 . S
C314 C311 1.526 . S
C314 C315 1.396 1_554 S
C314 C319 1.390 . S
C315 C309 1.465 . S
C315 C314 1.396 1_556 S
C315 C316 1.399 . S
C316 H302 0.929 . S
C316 C315 1.399 . S
C316 C317 1.385 . S
C317 H303 0.931 . S
C317 C316 1.385 . S
C317 C318 1.396 . S
C318 C317 1.396 . S
C318 C319 1.381 1_556 S
C319 H304 0.930 . S
C319 C314 1.390 . S
C319 C318 1.381 1_554 S
H320 C332 0.930 . S
H321 C334 0.930 . S
H322 C335 0.930 . S
H323 C339 0.959 . S
H324 C339 0.959 . S
H325 C339 0.961 . S
H326 C340 0.960 . S
H327 C340 0.961 . S
H328 C340 0.959 . S
H329 C343 0.929 . S
H330 C344 0.930 . S
H331 C346 0.930 . S
C332 H320 0.930 . S
C332 C333 1.399 . S
C332 C337 1.399 . S
C333 C332 1.399 . S
C333 C334 1.376 . S
C334 H321 0.930 . S
C334 C333 1.376 . S
C334 C335 1.388 . S
C335 H322 0.930 . S
C335 C334 1.388 . S
C335 C336 1.390 . S
C336 C335 1.390 . S
C336 C337 1.394 . S
C336 C342 1.465 . S
C337 C332 1.399 . S
C337 C336 1.394 . S
C337 C338 1.516 . S
C338 C337 1.516 . S
C338 C339 1.502 . S
C338 C340 1.561 . S
C338 C341 1.526 . S
C339 H323 0.959 . S
C339 H324 0.959 . S
C339 H325 0.961 . S
C339 C338 1.502 . S
C340 H326 0.960 . S
C340 H327 0.961 . S
C340 H328 0.959 . S
C340 C338 1.561 . S
C341 C338 1.526 . S
C341 C342 1.396 . S
C341 C346 1.390 . S
C342 C336 1.465 . S
C342 C341 1.396 . S
C342 C343 1.399 . S
C343 H329 0.929 . S
C343 C342 1.399 . S
C343 C344 1.385 . S
C344 H330 0.930 . S
C344 C343 1.385 . S
C344 C345 1.389 . S
C345 C344 1.389 . S
C345 C346 1.387 . S
C346 H331 0.930 . S
C346 C341 1.390 . S
C346 C345 1.387 . S
H347 C359 0.930 . S
H348 C361 0.930 . S
H349 C362 0.930 . S
H350 C366 0.959 . S
H351 C366 0.959 . S
H352 C366 0.961 . S
H353 C367 0.960 . S
H354 C367 0.961 . S
H355 C367 0.959 . S
H356 C370 0.929 . S
H357 C371 0.931 . S
H358 C373 0.930 . S
C359 H347 0.930 . S
C359 C360 1.399 . S
C359 C364 1.399 . S
C360 C359 1.399 . S
C360 C361 1.376 . S
C361 H348 0.930 . S
C361 C360 1.376 . S
C361 C362 1.388 . S
C362 H349 0.930 . S
C362 C361 1.388 . S
C362 C363 1.390 . S
C363 C362 1.390 . S
C363 C364 1.394 . S
C363 C369 1.465 . S
C364 C359 1.399 . S
C364 C363 1.394 . S
C364 C365 1.516 . S
C365 C364 1.516 . S
C365 C366 1.502 . S
C365 C367 1.561 . S
C365 C368 1.526 . S
C366 H350 0.959 . S
C366 H351 0.959 . S
C366 H352 0.961 . S
C366 C365 1.502 . S
C367 H353 0.960 . S
C367 H354 0.961 . S
C367 H355 0.959 . S
C367 C365 1.561 . S
C368 C365 1.526 . S
C368 C369 1.396 . S
C368 C373 1.390 . S
C369 C363 1.465 . S
C369 C368 1.396 . S
C369 C370 1.399 . S
C370 H356 0.929 . S
C370 C369 1.399 . S
C370 C371 1.385 . S
C371 H357 0.931 . S
C371 C370 1.385 . S
C371 C372 1.389 . S
C372 C371 1.389 . S
C372 C373 1.387 . S
C373 H358 0.930 . S
C373 C368 1.390 . S
C373 C372 1.387 . S
H374 C386 0.930 . S
H375 C388 0.930 . S
H376 C389 0.930 . S
H377 C393 0.944 1_655 S
H378 C393 0.959 . S
H379 C393 0.961 . S
H380 C394 0.960 . S
H381 C394 0.961 . S
H382 C394 0.959 . S
H383 C397 0.929 . S
H384 C398 0.931 . S
H385 C400 0.930 1_455 S
C386 H374 0.930 . S
C386 C387 1.399 . S
C386 C391 1.399 . S
C387 C386 1.399 . S
C387 C388 1.376 . S
C388 H375 0.930 . S
C388 C387 1.376 . S
C388 C389 1.388 . S
C389 H376 0.930 . S
C389 C388 1.388 . S
C389 C390 1.390 . S
C390 C389 1.390 . S
C390 C391 1.394 . S
C390 C396 1.465 . S
C391 C386 1.399 . S
C391 C390 1.394 . S
C391 C392 1.518 . S
C392 C391 1.518 . S
C392 C393 1.501 1_655 S
C392 C394 1.559 1_655 S
C392 C395 1.527 . S
C393 H377 0.944 1_455 S
C393 H378 0.959 . S
C393 H379 0.961 . S
C393 C392 1.501 1_455 S
C394 H380 0.960 . S
C394 H381 0.961 . S
C394 H382 0.959 . S
C394 C392 1.559 1_455 S
C395 C392 1.527 . S
C395 C396 1.396 . S
C395 C400 1.390 . S
C396 C390 1.465 . S
C396 C395 1.396 . S
C396 C397 1.399 . S
C397 H383 0.929 . S
C397 C396 1.399 . S
C397 C398 1.385 . S
C398 H384 0.931 . S
C398 C397 1.385 . S
C398 C399 1.389 . S
C399 C398 1.389 . S
C399 C400 1.387 . S
C400 H385 0.930 1_655 S
C400 C395 1.390 . S
C400 C399 1.387 . S
H401 C413 0.930 . S
H402 C415 0.930 . S
H403 C416 0.930 . S
H404 C420 0.959 . S
H405 C420 0.959 . S
H406 C420 0.961 . S
H407 C421 0.960 . S
H408 C421 0.961 . S
H409 C421 0.959 . S
H410 C424 0.929 . S
H411 C425 0.931 . S
H412 C427 0.930 . S
C413 H401 0.930 . S
C413 C414 1.399 . S
C413 C418 1.399 . S
C414 C413 1.399 . S
C414 C415 1.376 . S
C415 H402 0.930 . S
C415 C414 1.376 . S
C415 C416 1.388 . S
C416 H403 0.930 . S
C416 C415 1.388 . S
C416 C417 1.390 . S
C417 C416 1.390 . S
C417 C418 1.394 . S
C417 C423 1.465 . S
C418 C413 1.399 . S
C418 C417 1.394 . S
C418 C419 1.516 . S
C419 C418 1.516 . S
C419 C420 1.502 . S
C419 C421 1.561 . S
C419 C422 1.526 . S
C420 H404 0.959 . S
C420 H405 0.959 . S
C420 H406 0.961 . S
C420 C419 1.502 . S
C421 H407 0.960 . S
C421 H408 0.961 . S
C421 H409 0.959 . S
C421 C419 1.561 . S
C422 C419 1.526 . S
C422 C423 1.396 . S
C422 C427 1.390 . S
C423 C417 1.465 . S
C423 C422 1.396 . S
C423 C424 1.399 . S
C424 H410 0.929 . S
C424 C423 1.399 . S
C424 C425 1.385 . S
C425 H411 0.931 . S
C425 C424 1.385 . S
C425 C426 1.389 . S
C426 C425 1.389 . S
C426 C427 1.387 . S
C427 H412 0.930 . S
C427 C422 1.390 . S
C427 C426 1.387 . S
H428 C440 0.930 . S
H429 C442 0.930 . S
H430 C443 0.930 . S
H431 C447 0.959 . S
H432 C447 0.959 . S
H433 C447 0.961 . S
H434 C448 0.960 . S
H435 C448 0.961 . S
H436 C448 0.959 . S
H437 C451 0.929 . S
H438 C452 0.931 . S
H439 C454 0.930 . S
C440 H428 0.930 . S
C440 C441 1.399 . S
C440 C445 1.399 . S
C441 C440 1.399 . S
C441 C442 1.376 . S
C442 H429 0.930 . S
C442 C441 1.376 . S
C442 C443 1.388 . S
C443 H430 0.930 . S
C443 C442 1.388 . S
C443 C444 1.390 . S
C444 C443 1.390 . S
C444 C445 1.394 . S
C444 C450 1.465 . S
C445 C440 1.399 . S
C445 C444 1.394 . S
C445 C446 1.516 . S
C446 C445 1.516 . S
C446 C447 1.502 . S
C446 C448 1.561 . S
C446 C449 1.526 . S
C447 H431 0.959 . S
C447 H432 0.959 . S
C447 H433 0.961 . S
C447 C446 1.502 . S
C448 H434 0.960 . S
C448 H435 0.961 . S
C448 H436 0.959 . S
C448 C446 1.561 . S
C449 C446 1.526 . S
C449 C450 1.396 . S
C449 C454 1.390 . S
C450 C444 1.465 . S
C450 C449 1.396 . S
C450 C451 1.399 . S
C451 H437 0.929 . S
C451 C450 1.399 . S
C451 C452 1.385 . S
C452 H438 0.931 . S
C452 C451 1.385 . S
C452 C453 1.389 . S
C453 C452 1.389 . S
C453 C454 1.387 . S
C454 H439 0.930 . S
C454 C449 1.390 . S
C454 C453 1.387 . S
H455 C467 0.930 . S
H456 C469 0.930 . S
H457 C470 0.930 . S
H458 C474 0.959 1_455 S
H459 C474 0.959 . S
H460 C474 0.961 . S
H461 C475 0.960 . S
H462 C475 0.961 . S
H463 C475 0.959 . S
H464 C478 0.929 . S
H465 C479 0.931 . S
H466 C481 0.930 . S
C467 H455 0.930 . S
C467 C468 1.399 . S
C467 C472 1.399 . S
C468 C467 1.399 . S
C468 C469 1.376 . S
C469 H456 0.930 . S
C469 C468 1.376 . S
C469 C470 1.388 . S
C470 H457 0.930 . S
C470 C469 1.388 . S
C470 C471 1.390 . S
C471 C470 1.390 . S
C471 C472 1.394 . S
C471 C477 1.465 . S
C472 C467 1.399 . S
C472 C471 1.394 . S
C472 C473 1.516 . S
C473 C472 1.516 . S
C473 C474 1.502 . S
C473 C475 1.561 . S
C473 C476 1.526 . S
C474 H458 0.959 1_655 S
C474 H459 0.959 . S
C474 H460 0.961 . S
C474 C473 1.502 . S
C475 H461 0.960 . S
C475 H462 0.961 . S
C475 H463 0.959 . S
C475 C473 1.561 . S
C476 C473 1.526 . S
C476 C477 1.396 . S
C476 C481 1.390 . S
C477 C471 1.465 . S
C477 C476 1.396 . S
C477 C478 1.399 . S
C478 H464 0.929 . S
C478 C477 1.399 . S
C478 C479 1.385 . S
C479 H465 0.931 . S
C479 C478 1.385 . S
C479 C480 1.389 . S
C480 C479 1.389 . S
C480 C481 1.387 . S
C481 H466 0.930 . S
C481 C476 1.390 . S
C481 C480 1.387 . S
H482 C494 0.930 . S
H483 C496 0.930 . S
H484 C497 0.930 . S
H485 C501 0.959 . S
H486 C501 0.959 . S
H487 C501 0.961 . S
H488 C502 0.960 . S
H489 C502 0.961 . S
H490 C502 0.959 . S
H491 C505 0.929 . S
H492 C506 0.931 . S
H493 C508 0.930 . S
C494 H482 0.930 . S
C494 C495 1.399 . S
C494 C499 1.399 . S
C495 C494 1.399 . S
C495 C496 1.376 . S
C496 H483 0.930 . S
C496 C495 1.376 . S
C496 C497 1.388 . S
C497 H484 0.930 . S
C497 C496 1.388 . S
C497 C498 1.390 . S
C498 C497 1.390 . S
C498 C499 1.394 . S
C498 C504 1.465 . S
C499 C494 1.399 . S
C499 C498 1.394 . S
C499 C500 1.516 . S
C500 C499 1.516 . S
C500 C501 1.502 . S
C500 C502 1.561 . S
C500 C503 1.526 . S
C501 H485 0.959 . S
C501 H486 0.959 . S
C501 H487 0.961 . S
C501 C500 1.502 . S
C502 H488 0.960 . S
C502 H489 0.961 . S
C502 H490 0.959 . S
C502 C500 1.561 . S
C503 C500 1.526 . S
C503 C504 1.396 . S
C503 C508 1.390 . S
C504 C498 1.465 . S
C504 C503 1.396 . S
C504 C505 1.399 . S
C505 H491 0.929 . S
C505 C504 1.399 . S
C505 C506 1.385 . S
C506 H492 0.931 . S
C506 C505 1.385 . S
C506 C507 1.389 . S
C507 C506 1.389 . S
C507 C508 1.387 . S
C508 H493 0.930 . S
C508 C503 1.390 . S
C508 C507 1.387 . S
H509 C521 0.930 . S
H510 C523 0.930 . S
H511 C524 0.930 . S
H512 C528 0.959 . S
H513 C528 0.959 . S
H514 C528 0.961 . S
H515 C529 0.960 . S
H516 C529 0.961 . S
H517 C529 0.959 . S
H518 C532 0.913 1_655 S
H519 C533 0.931 1_655 S
H520 C535 0.930 . S
C521 H509 0.930 . S
C521 C522 1.399 . S
C521 C526 1.399 . S
C522 C521 1.399 . S
C522 C523 1.376 . S
C523 H510 0.930 . S
C523 C522 1.376 . S
C523 C524 1.388 . S
C524 H511 0.930 . S
C524 C523 1.388 . S
C524 C525 1.390 . S
C525 C524 1.390 . S
C525 C526 1.394 . S
C525 C531 1.465 . S
C526 C521 1.399 . S
C526 C525 1.394 . S
C526 C527 1.516 . S
C527 C526 1.516 . S
C527 C528 1.502 . S
C527 C529 1.561 . S
C527 C530 1.526 . S
C528 H512 0.959 . S
C528 H513 0.959 . S
C528 H514 0.961 . S
C528 C527 1.502 . S
C529 H515 0.960 . S
C529 H516 0.961 . S
C529 H517 0.959 . S
C529 C527 1.561 . S
C530 C527 1.526 . S
C530 C531 1.396 . S
C530 C535 1.390 . S
C531 C525 1.465 . S
C531 C530 1.396 . S
C531 C532 1.399 . S
C532 H518 0.913 1_455 S
C532 C531 1.399 . S
C532 C533 1.385 . S
C533 H519 0.931 1_455 S
C533 C532 1.385 . S
C533 C534 1.389 . S
C534 C533 1.389 . S
C534 C535 1.387 . S
C535 H520 0.930 . S
C535 C530 1.390 . S
C535 C534 1.387 . S
C237 C148 1.635 . S
C225 C133 1.648 . S
C252 C25 1.512 . S
C264 C191 1.576 . S
C279 C61 1.609 . S
C291 C157 1.645 . S
C306 C97 1.578 1_556 S
C318 C182 1.567 1_556 S
C345 C144 1.628 . S
C333 C1 1.574 . S
C372 C186 1.712 . S
C360 C67 1.669 . S
C387 C103 1.619 . S
C399 C152 1.620 . S
C414 C109 1.712 . S
C426 C178 1.710 . S
C453 C207 1.711 . S
C441 C37 1.672 . S
C480 C173 1.625 . S
C468 C73 1.626 . S
C507 C195 1.714 . S
C495 C139 1.715 . S
C522 C31 1.580 . S
C534 C161 1.617 . S
