# Generated by pormake.
# Topology rtl, (3,6)-cn, num edge types: 1
# Building blocks:
#     Node 0, Type 0, BuildingBlock: PAMTOO_clean_linker_0, # of connection points: 3
#     Node 1, Type 0, BuildingBlock: PAMTOO_clean_linker_0, # of connection points: 3
#     Node 2, Type 0, BuildingBlock: PAMTOO_clean_linker_0, # of connection points: 3
#     Node 3, Type 0, BuildingBlock: PAMTOO_clean_linker_0, # of connection points: 3
#     Node 4, Type 1, BuildingBlock: KUMBUR_clean_sbu_1, # of connection points: 6
#     Node 5, Type 1, BuildingBlock: KUMBUR_clean_sbu_1, # of connection points: 6
#     Edge 6, Type (0, 1), BuildingBlock: CIFDUS_clean_linker_0, # of connection points: 2
#     Edge 7, Type (0, 1), BuildingBlock: CIFDUS_clean_linker_0, # of connection points: 2
#     Edge 8, Type (0, 1), BuildingBlock: CIFDUS_clean_linker_0, # of connection points: 2
#     Edge 9, Type (0, 1), BuildingBlock: CIFDUS_clean_linker_0, # of connection points: 2
#     Edge 10, Type (0, 1), BuildingBlock: CIFDUS_clean_linker_0, # of connection points: 2
#     Edge 11, Type (0, 1), BuildingBlock: CIFDUS_clean_linker_0, # of connection points: 2
#     Edge 12, Type (0, 1), BuildingBlock: CIFDUS_clean_linker_0, # of connection points: 2
#     Edge 13, Type (0, 1), BuildingBlock: CIFDUS_clean_linker_0, # of connection points: 2
#     Edge 14, Type (0, 1), BuildingBlock: CIFDUS_clean_linker_0, # of connection points: 2
#     Edge 15, Type (0, 1), BuildingBlock: CIFDUS_clean_linker_0, # of connection points: 2
#     Edge 16, Type (0, 1), BuildingBlock: CIFDUS_clean_linker_0, # of connection points: 2
#     Edge 17, Type (0, 1), BuildingBlock: CIFDUS_clean_linker_0, # of connection points: 2
# Relax obj value: 0.052
# Max RMSD: 0.226
# Mean RMSD: 0.168
data_MOF--net-rtl--node1-KUMBUR_clean_sbu_1--node2-PAMTOO_clean_linker_0--edge1-CIFDUS_clean_linker_0
_symmetry_space_group_name_H-M    P1
_symmetry_Int_Tables_number       1
_symmetry_cell_setting            triclinic
loop_
_symmetry_equiv_pos_as_xyz
'x, y, z'
_cell_length_a     30.627219
_cell_length_b     31.072869
_cell_length_c     23.866712
_cell_angle_alpha  78.194833
_cell_angle_beta   99.081427
_cell_angle_gamma 92.156422
loop_
_atom_site_label
_atom_site_type_symbol
_atom_site_fract_x
_atom_site_fract_y
_atom_site_fract_z
_atom_type_partial_charge
H0 H 0.13842 0.87527 0.01721 0.0
H1 H 0.24195 0.78161 0.09474 0.0
H2 H 0.21741 0.82572 0.91035 0.0
H3 H 0.2366 0.73657 0.93994 0.0
C4 C 0.25661 0.7333 0.98377 0.0
O5 O 0.26579 0.7745 0.99614 0.0
H6 H 0.23667 0.71396 0.01552 0.0
C7 C 0.16517 0.85484 0.01304 0.0
C8 C 0.17485 0.85374 0.95768 0.0
C9 C 0.18926 0.82919 0.06297 0.0
C10 C 0.22317 0.80189 0.05689 0.0
C11 C 0.2334 0.80101 1.0019 0.0
C12 C 0.20967 0.8273 0.95265 0.0
H13 H 0.65518 0.62504 0.68373 0.0
H14 H 0.74955 0.71478 0.60572 0.0
H15 H 0.70903 0.73155 0.76422 0.0
H16 H 0.73202 0.8192 0.68392 0.0
C17 C 0.7519 0.80366 0.65836 0.0
O18 O 0.76158 0.76092 0.68674 0.0
H19 H 0.7318 0.80406 0.61507 0.0
C20 C 0.67657 0.65365 0.68385 0.0
C21 C 0.67865 0.67685 0.72889 0.0
C22 C 0.7015 0.66747 0.63869 0.0
C23 C 0.72932 0.70436 0.63951 0.0
C24 C 0.73221 0.72738 0.68468 0.0
C25 C 0.70651 0.71389 0.7291 0.0
H26 H 0.90552 0.16193 0.09427 0.0
H27 H 0.80311 0.25517 0.01112 0.0
H28 H 0.82436 0.21491 0.19598 0.0
H29 H 0.73025 0.22666 0.14997 0.0
C30 C 0.73319 0.2476 0.10693 0.0
O31 O 0.77599 0.26318 0.10693 0.0
H32 H 0.72462 0.22678 0.07386 0.0
C33 C 0.8789 0.183 0.0972 0.0
C34 C 0.86808 0.18509 0.15177 0.0
C35 C 0.85595 0.2084 0.04625 0.0
C36 C 0.82134 0.23556 0.05 0.0
C37 C 0.80962 0.2372 0.10387 0.0
C38 C 0.83314 0.21238 0.15454 0.0
H39 H 0.40031 0.38795 0.45174 0.0
H40 H 0.31429 0.29623 0.54388 0.0
H41 H 0.32199 0.29545 0.36626 0.0
H42 H 0.23341 0.28392 0.39049 0.0
C43 C 0.23916 0.26964 0.43775 0.0
O44 O 0.28354 0.26028 0.45554 0.0
H45 H 0.22895 0.29469 0.46043 0.0
C46 C 0.37672 0.36103 0.45308 0.0
C47 C 0.36373 0.3437 0.40289 0.0
C48 C 0.35958 0.34424 0.50466 0.0
C49 C 0.32814 0.30992 0.50496 0.0
C50 C 0.31455 0.29258 0.45507 0.0
C51 C 0.33285 0.309 0.40455 0.0
Tb52 Tb 0.04904 0.97644 0.51892 0.0
C53 C 0.90821 0.11375 0.51946 0.0
N54 N 0.953 0.10952 0.52819 0.0
C55 C 0.95886 0.17704 0.45974 0.0
C56 C 0.88693 0.14907 0.47891 0.0
C57 C 0.97849 0.14137 0.50037 0.0
C58 C 0.91289 0.18076 0.44861 0.0
C59 C 0.83711 0.08354 0.54079 0.0
C60 C 0.88365 0.08148 0.55002 0.0
C61 C 0.81571 0.11868 0.50042 0.0
C62 C 0.84056 0.15138 0.46959 0.0
Tb63 Tb 0.9807 0.04996 0.59668 0.0
N64 N 0.90544 0.04768 0.58807 0.0
C65 C 0.81353 0.05009 0.57221 0.0
C66 C 0.88267 0.01554 0.61983 0.0
C67 C 0.83645 0.01602 0.61208 0.0
H68 H 1.01386 0.1401 0.50962 0.0
H69 H 0.81858 0.99034 0.63723 0.0
H70 H 0.99261 0.88252 0.56134 0.0
H71 H 0.22388 0.01073 0.55265 0.0
H72 H 0.90023 0.99021 0.65238 0.0
H73 H 0.77773 0.05043 0.56633 0.0
H74 H 0.14591 0.02485 0.50817 0.0
H75 H 0.97927 0.20185 0.43733 0.0
H76 H 0.77996 0.12083 0.49265 0.0
H77 H 0.8236 0.17821 0.43847 0.0
H78 H 1.00471 0.81578 0.6364 0.0
H79 H 0.89782 0.20836 0.41696 0.0
H80 H 0.24358 0.94333 0.62687 0.0
N81 N 0.05608 0.91039 0.58438 0.0
C82 C 0.09798 0.90037 0.61213 0.0
C83 C 0.03098 0.83988 0.63123 0.0
C84 C 0.10726 0.86106 0.65344 0.0
C85 C 0.02368 0.87895 0.58996 0.0
C86 C 0.0727 0.83135 0.66416 0.0
N87 N 0.12191 0.96625 0.55696 0.0
C88 C 0.15421 0.99545 0.54061 0.0
C89 C 0.17611 0.91931 0.62351 0.0
C90 C 0.13216 0.92864 0.5968 0.0
C91 C 0.20938 0.94927 0.60731 0.0
C92 C 0.19838 0.98743 0.56556 0.0
H93 H 0.07841 0.80077 0.69553 0.0
H94 H 0.15852 0.82208 0.71331 0.0
H95 H 0.21875 0.87334 0.6875 0.0
O96 O 0.08561 0.97606 0.45112 0.0
O97 O 0.07801 0.99275 0.60268 0.0
O98 O 0.01826 0.99344 0.64916 0.0
O99 O 0.03156 0.93158 0.46361 0.0
O100 O 0.06397 0.04713 0.49926 0.0
O101 O 0.04653 0.07366 0.57772 0.0
O102 O 0.9562 0.05651 0.67214 0.0
O103 O 0.95292 0.04262 0.50839 0.0
O104 O 1.0114 0.03158 0.46213 0.0
O105 O 1.00879 0.09813 0.6422 0.0
O106 O 0.97152 0.97868 0.61451 0.0
O107 O 0.97936 0.95934 0.52841 0.0
C108 C 0.06043 0.98674 0.65038 0.0
C109 C 0.091 0.90736 0.42552 0.0
C110 C 0.1277 0.87402 0.36069 0.0
C111 C 0.14455 0.84124 0.40855 0.0
C112 C 0.10727 0.87358 0.47185 0.0
C113 C 0.13409 0.84095 0.46344 0.0
C114 C 0.10097 0.90728 0.36993 0.0
C115 C 0.0692 0.07538 0.53445 0.0
C116 C 0.06406 0.94306 0.43456 0.0
C117 C 0.15088 0.85192 0.68107 0.0
C118 C 0.18524 0.88094 0.66607 0.0
C119 C 0.97113 0.04522 0.46145 0.0
C120 C 0.9573 0.1288 0.6875 0.0
C121 C 0.92132 0.16402 0.75098 0.0
C122 C 0.90806 0.19846 0.7035 0.0
C123 C 0.94467 0.16414 0.64144 0.0
C124 C 0.94598 0.12911 0.74224 0.0
C125 C 0.92 0.19858 0.64942 0.0
C126 C 0.9588 0.95601 0.57387 0.0
C127 C 0.98068 0.0906 0.67883 0.0
H128 H 0.16621 0.81589 0.4039 0.0
H129 H 0.09925 0.87225 0.51448 0.0
H130 H 0.14695 0.81533 0.49971 0.0
H131 H 0.08738 0.93284 0.33398 0.0
H132 H 0.88804 0.22523 0.70777 0.0
H133 H 0.95363 0.1652 0.59925 0.0
H134 H 0.95674 0.1022 0.77794 0.0
H135 H 0.90984 0.22539 0.6134 0.0
Tb136 Tb 0.48052 0.48737 1.00999 0.0
C137 C 0.64057 0.59634 0.07391 0.0
N138 N 0.63141 0.55455 0.09956 0.0
C139 C 0.70414 0.5319 0.0933 0.0
C140 C 0.68144 0.60724 0.05451 0.0
C141 C 0.66288 0.52261 0.11126 0.0
C142 C 0.7133 0.57428 0.06417 0.0
C143 C 0.61694 0.67198 0.04147 0.0
C144 C 0.60862 0.62804 0.06729 0.0
C145 C 0.65699 0.68289 0.02005 0.0
C146 C 0.6892 0.65058 0.02662 0.0
Tb147 Tb 0.56298 0.54246 0.12594 0.0
N148 N 0.57036 0.61618 0.08873 0.0
C149 C 0.58537 0.70382 0.03956 0.0
C150 C 0.54132 0.64786 0.09135 0.0
C151 C 0.54781 0.69181 0.06561 0.0
H152 H 0.6558 0.48984 0.1335 0.0
H153 H 0.52415 0.71653 0.06673 0.0
H154 H 0.3994 0.55878 0.94857 0.0
H155 H 0.46823 0.31464 0.10181 0.0
H156 H 0.51342 0.63987 0.11416 0.0
H157 H 0.59049 0.73796 0.02013 0.0
H158 H 0.50443 0.38222 0.05516 0.0
H159 H 0.72877 0.50636 0.10171 0.0
H160 H 0.66378 0.71639 0.99955 0.0
H161 H 0.72023 0.65959 0.0108 0.0
H162 H 0.3218 0.56901 0.95901 0.0
H163 H 0.74517 0.58133 0.04998 0.0
H164 H 0.39209 0.31805 0.12345 0.0
N165 N 0.40693 0.49854 0.0103 0.0
C166 C 0.3852 0.46457 0.03981 0.0
C167 C 0.33946 0.53978 0.98297 0.0
C168 C 0.34024 0.46775 0.04479 0.0
C169 C 0.38384 0.53444 0.97835 0.0
C170 C 0.31781 0.50668 0.01748 0.0
N171 N 0.44987 0.42329 0.05262 0.0
C172 C 0.4713 0.38389 0.06474 0.0
C173 C 0.38515 0.38771 0.08704 0.0
C174 C 0.40713 0.42517 0.06055 0.0
C175 C 0.40781 0.34767 0.10301 0.0
C176 C 0.45083 0.34562 0.09092 0.0
H177 H 0.28325 0.51054 0.02027 0.0
H178 H 0.28432 0.43326 0.07925 0.0
H179 H 0.32377 0.36306 0.11641 0.0
O180 O 0.50744 0.45761 0.95158 0.0
O181 O 0.48516 0.46069 0.10417 0.0
O182 O 0.49751 0.52105 0.14594 0.0
O183 O 0.44015 0.47868 0.93285 0.0
O184 O 0.54624 0.4572 0.04009 0.0
O185 O 0.57174 0.47174 0.13197 0.0
O186 O 0.58387 0.57751 0.19255 0.0
O187 O 0.58057 0.5338 0.04343 0.0
O188 O 0.51718 0.54734 0.97865 0.0
O189 O 0.58707 0.50706 0.20918 0.0
O190 O 0.49515 0.56763 0.10066 0.0
O191 O 0.47209 0.55848 1.00654 0.0
C192 C 0.47967 0.48213 0.14462 0.0
C193 C 0.47717 0.4799 0.85324 0.0
C194 C 0.47031 0.47085 0.75287 0.0
C195 C 0.49101 0.51198 0.73872 0.0
C196 C 0.49722 0.52106 0.83801 0.0
C197 C 0.50412 0.53695 0.78102 0.0
C198 C 0.46326 0.45508 0.81043 0.0
C199 C 0.5713 0.44818 0.09157 0.0
C200 C 0.47161 0.46197 0.91373 0.0
C201 C 0.31872 0.43132 0.07433 0.0
C202 C 0.34113 0.3913 0.09533 0.0
C203 C 0.56013 0.55181 0.99204 0.0
C204 C 0.63879 0.54376 0.26853 0.0
C205 C 0.68108 0.5685 0.35188 0.0
C206 C 0.71655 0.5421 0.34896 0.0
C207 C 0.67463 0.5176 0.2662 0.0
C208 C 0.64245 0.56955 0.31105 0.0
C209 C 0.7134 0.51713 0.30599 0.0
C210 C 0.46937 0.57804 0.05009 0.0
C211 C 0.59607 0.5422 0.23057 0.0
H212 H 0.49667 0.525 0.69474 0.0
H213 H 0.50772 0.54074 0.87018 0.0
H214 H 0.51984 0.56866 0.76964 0.0
H215 H 0.44792 0.42316 0.82216 0.0
H216 H 0.74666 0.54084 0.37992 0.0
H217 H 0.67245 0.49685 0.2346 0.0
H218 H 0.61459 0.58917 0.31375 0.0
H219 H 0.74083 0.49678 0.3041 0.0
H220 H 0.19801 0.23977 0.53175 0.0
H221 H 0.21884 0.20747 0.37096 0.0
H222 H 0.1692 0.14375 0.38678 0.0
H223 H 0.11679 0.09952 0.44432 0.0
H224 H 0.09648 0.13304 0.60529 0.0
H225 H 0.14845 0.19388 0.59113 0.0
C226 C 0.19176 0.21859 0.5004 0.0
C227 C 0.2114 0.22854 0.44988 0.0
C228 C 0.16292 0.1824 0.50956 0.0
C229 C 0.20363 0.20059 0.40988 0.0
C230 C 0.1752 0.16428 0.41887 0.0
C231 C 0.12392 0.11991 0.47652 0.0
C232 C 0.10235 0.11152 0.52568 0.0
C233 C 0.15411 0.1552 0.4682 0.0
C234 C 0.11215 0.13858 0.56678 0.0
C235 C 0.14204 0.17351 0.55886 0.0
H236 H 0.30707 0.68653 0.07881 0.0
H237 H 0.30102 0.72737 0.89418 0.0
H238 H 0.3677 0.68484 0.89789 0.0
H239 H 0.42624 0.6333 0.95392 0.0
H240 H 0.43007 0.59214 0.13858 0.0
H241 H 0.36655 0.63774 0.1348 0.0
C242 C 0.32054 0.68611 0.03952 0.0
C243 C 0.29895 0.70927 0.98626 0.0
C244 C 0.35855 0.66145 0.04201 0.0
C245 C 0.31692 0.70922 0.93561 0.0
C246 C 0.35498 0.68494 0.93773 0.0
C247 C 0.41298 0.63428 0.99317 0.0
C248 C 0.43244 0.60861 0.04624 0.0
C249 C 0.3758 0.66041 0.99066 0.0
C250 C 0.41562 0.61116 0.09701 0.0
C251 C 0.37912 0.6372 0.09496 0.0
H252 H 0.78577 0.83826 0.55864 0.0
H253 H 0.81262 0.82687 0.74381 0.0
H254 H 0.88011 0.87102 0.73457 0.0
H255 H 0.93028 0.91449 0.67352 0.0
H256 H 0.90222 0.92809 0.48796 0.0
H257 H 0.8369 0.88086 0.49754 0.0
C258 C 0.80651 0.84541 0.5969 0.0
C259 C 0.79421 0.8296 0.65188 0.0
C260 C 0.84503 0.87112 0.59111 0.0
C261 C 0.82145 0.83887 0.70113 0.0
C262 C 0.85995 0.86408 0.69581 0.0
C263 C 0.90971 0.90728 0.63516 0.0
C264 C 0.92068 0.92536 0.58003 0.0
C265 C 0.87185 0.8807 0.64099 0.0
C266 C 0.89439 0.91478 0.53086 0.0
C267 C 0.85693 0.88792 0.53631 0.0
H268 H 0.70912 0.29326 0.18314 0.0
H269 H 0.68798 0.28754 1.00205 0.0
H270 H 0.63559 0.34852 0.98122 0.0
H271 H 0.59537 0.40286 0.01484 0.0
H272 H 0.61764 0.40942 0.19617 0.0
H273 H 0.66974 0.3487 0.21659 0.0
C274 C 0.69284 0.30542 0.13923 0.0
C275 C 0.70158 0.28559 0.0943 0.0
C276 C 0.6629 0.34049 0.12768 0.0
C277 C 0.68111 0.30199 0.03735 0.0
C278 C 0.65123 0.33679 0.0255 0.0
C279 C 0.6114 0.39091 0.05891 0.0
C280 C 0.60232 0.41067 0.10388 0.0
C281 C 0.64166 0.35613 0.07038 0.0
C282 C 0.62388 0.39493 0.16061 0.0
C283 C 0.65376 0.36016 0.17241 0.0
H284 H 0.17682 0.90125 0.10699 0.0
H285 H 0.17651 0.75951 0.14917 0.0
H286 H 0.15618 0.7609 0.24385 0.0
H287 H 0.13737 0.80223 0.31372 0.0
H288 H 0.14226 0.94421 0.27432 0.0
H289 H 0.16044 0.94278 0.17884 0.0
C290 C 0.17216 0.8707 0.13694 0.0
C291 C 0.17813 0.83032 0.12109 0.0
C292 C 0.16083 0.87177 0.19152 0.0
C293 C 0.17252 0.79099 0.16054 0.0
C294 C 0.16065 0.79178 0.21453 0.0
C295 C 0.14302 0.83299 0.28481 0.0
C296 C 0.13833 0.87328 0.30179 0.0
C297 C 0.15473 0.83198 0.23047 0.0
C298 C 0.14479 0.91264 0.26256 0.0
C299 C 0.15564 0.91189 0.20796 0.0
H300 H 0.69866 0.61002 0.82035 0.0
H301 H 0.59953 0.70768 0.74161 0.0
H302 H 0.55294 0.6772 0.81537 0.0
H303 H 0.54008 0.62134 0.9018 0.0
H304 H 0.64072 0.52486 0.98064 0.0
H305 H 0.68713 0.55622 0.90811 0.0
C306 C 0.66703 0.62477 0.81995 0.0
C307 C 0.65245 0.66106 0.77622 0.0
C308 C 0.64067 0.60712 0.86242 0.0
C309 C 0.61139 0.67992 0.77544 0.0
C310 C 0.58475 0.66237 0.81735 0.0
C311 C 0.57208 0.60718 0.9027 0.0
C312 C 0.58694 0.57081 0.9464 0.0
C313 C 0.59888 0.6257 0.86086 0.0
C314 C 0.62866 0.55301 0.94762 0.0
C315 C 0.6552 0.57086 0.90607 0.0
H316 H 0.83638 0.13926 0.2473 0.0
H317 H 0.95764 0.17335 0.1775 0.0
H318 H 1.0 0.13147 0.26579 0.0
H319 H 1.00293 0.08667 0.36403 0.0
H320 H 0.88165 0.05343 0.43406 0.0
H321 H 0.8392 0.09405 0.34508 0.0
C322 C 0.8721 0.13781 0.25155 0.0
C323 C 0.89371 0.15939 0.20569 0.0
C324 C 0.89634 0.11391 0.30263 0.0
C325 C 0.94002 0.15657 0.2117 0.0
C326 C 0.96435 0.13282 0.26235 0.0
C327 C 0.96717 0.08789 0.35951 0.0
C328 C 0.94554 0.0672 0.40571 0.0
C329 C 0.94288 0.11138 0.30813 0.0
C330 C 0.8992 0.06943 0.39937 0.0
C331 C 0.87484 0.09259 0.34843 0.0
H332 H 0.44235 0.37252 0.54317 0.0
H333 H 0.30984 0.35913 0.58528 0.0
H334 H 0.33308 0.39399 0.66815 0.0
H335 H 0.39017 0.4326 0.72552 0.0
H336 H 0.52082 0.45027 0.67825 0.0
H337 H 0.49891 0.41038 0.59993 0.0
C338 C 0.41828 0.37755 0.56997 0.0
C339 C 0.37422 0.36334 0.55733 0.0
C340 C 0.43152 0.39879 0.61657 0.0
C341 C 0.34406 0.36918 0.59397 0.0
C342 C 0.35724 0.38951 0.64122 0.0
C343 C 0.41386 0.42728 0.69833 0.0
C344 C 0.45702 0.44444 0.70752 0.0
C345 C 0.40076 0.40495 0.65256 0.0
C346 C 0.48732 0.43771 0.67168 0.0
C347 C 0.47484 0.41482 0.627 0.0
H348 H 0.6844 0.69985 0.52292 0.0
H349 H 0.7134 0.57975 0.64896 0.0
H350 H 0.71085 0.53863 0.57127 0.0
H351 H 0.70027 0.5369 0.46731 0.0
H352 H 0.66695 0.65605 0.34117 0.0
H353 H 0.67124 0.69765 0.41879 0.0
C354 C 0.69027 0.66469 0.53314 0.0
C355 C 0.69926 0.64278 0.59137 0.0
C356 C 0.68797 0.64122 0.48827 0.0
C357 C 0.70624 0.59717 0.60436 0.0
C358 C 0.70492 0.57373 0.56001 0.0
C359 C 0.6942 0.57202 0.45701 0.0
C360 C 0.68371 0.59359 0.39883 0.0
C361 C 0.69585 0.59541 0.50183 0.0
C362 C 0.67511 0.6389 0.38577 0.0
C363 C 0.67762 0.66262 0.43007 0.0
H364 H 0.86541 0.13644 1.00096 0.0
H365 H 0.87516 0.27789 0.96412 0.0
H366 H 0.89759 0.27657 0.87054 0.0
H367 H 0.91521 0.23528 0.80012 0.0
H368 H 0.89974 0.09397 0.83324 0.0
H369 H 0.88006 0.09513 0.92796 0.0
C370 C 0.87258 0.16689 0.97235 0.0
C371 C 0.86876 0.2072 0.98925 0.0
C372 C 0.8848 0.1659 0.91827 0.0
C373 C 0.87762 0.24651 0.95174 0.0
C374 C 0.8906 0.24575 0.89841 0.0
C375 C 0.90689 0.20468 0.82744 0.0
C376 C 0.90918 0.1646 0.80907 0.0
C377 C 0.89423 0.20563 0.88121 0.0
C378 C 0.89922 0.12532 0.84623 0.0
C379 C 0.8875 0.12594 0.90038 0.0
H380 H 0.37434 0.42989 0.35555 0.0
H381 H 0.39524 0.29947 0.32922 0.0
H382 H 0.43147 0.33058 0.24528 0.0
H383 H 0.46222 0.39505 0.18403 0.0
H384 H 0.44052 0.52493 0.21166 0.0
H385 H 0.40088 0.49381 0.29141 0.0
C386 C 0.38692 0.40822 0.33156 0.0
C387 C 0.38254 0.36241 0.3491 0.0
C388 C 0.40804 0.42625 0.28392 0.0
C389 C 0.39808 0.33486 0.31661 0.0
C390 C 0.41906 0.35262 0.26884 0.0
C391 C 0.44787 0.41651 0.20657 0.0
C392 C 0.45393 0.4623 0.19124 0.0
C393 C 0.42484 0.39829 0.25262 0.0
C394 C 0.43639 0.4896 0.22233 0.0
C395 C 0.4136 0.47184 0.268 0.0
H396 H 0.20284 0.90582 0.86364 0.0
H397 H 0.08497 0.85669 0.93365 0.0
H398 H 0.03901 0.8947 0.84555 0.0
H399 H 0.03238 0.93971 0.74726 0.0
H400 H 0.15002 0.99113 0.67838 0.0
H401 H 0.19605 0.95402 0.76695 0.0
C402 C 0.16709 0.90349 0.85949 0.0
C403 C 0.14731 0.87851 0.90501 0.0
C404 C 0.14087 0.92558 0.80881 0.0
C405 C 0.10095 0.87611 0.89942 0.0
C406 C 0.07467 0.89764 0.84896 0.0
C407 C 0.06807 0.9432 0.75191 0.0
C408 C 0.08784 0.96744 0.70595 0.0
C409 C 0.09426 0.92228 0.80328 0.0
C410 C 0.13409 0.97178 0.71269 0.0
C411 C 0.16042 0.95077 0.76343 0.0
loop_
_geom_bond_atom_site_label_1
_geom_bond_atom_site_label_2
_geom_bond_distance
_geom_bond_site_symmetry_2
_ccdc_geom_bond_type
H0 C7 0.929 . S
H1 C10 0.930 . S
H2 C12 0.929 . S
H3 C4 0.969 . S
C4 H3 0.969 . S
C4 O5 1.550 . S
C4 H6 0.973 . S
O5 C4 1.550 . S
O5 C11 1.412 . S
H6 C4 0.973 . S
C7 H0 0.929 . S
C7 C8 1.400 1_554 S
C7 C9 1.364 . S
C8 C7 1.400 1_556 S
C8 C12 1.377 . S
C9 C7 1.364 . S
C9 C10 1.374 . S
C10 H1 0.930 . S
C10 C9 1.374 . S
C10 C11 1.383 . S
C11 O5 1.412 . S
C11 C10 1.383 . S
C11 C12 1.394 1_554 S
C12 H2 0.929 . S
C12 C8 1.377 . S
C12 C11 1.394 1_556 S
H13 C20 0.929 . S
H14 C23 0.930 . S
H15 C25 0.929 . S
H16 C17 0.969 . S
C17 H16 0.969 . S
C17 O18 1.550 . S
C17 H19 0.973 . S
O18 C17 1.550 . S
O18 C24 1.412 . S
H19 C17 0.973 . S
C20 H13 0.929 . S
C20 C21 1.400 . S
C20 C22 1.364 . S
C21 C20 1.400 . S
C21 C25 1.377 . S
C22 C20 1.364 . S
C22 C23 1.374 . S
C23 H14 0.930 . S
C23 C22 1.374 . S
C23 C24 1.383 . S
C24 O18 1.412 . S
C24 C23 1.383 . S
C24 C25 1.394 . S
C25 H15 0.929 . S
C25 C21 1.377 . S
C25 C24 1.394 . S
H26 C33 0.929 . S
H27 C36 0.930 1_556 S
H28 C38 0.929 . S
H29 C30 0.969 . S
C30 H29 0.969 . S
C30 O31 1.550 . S
C30 H32 0.979 . S
O31 C30 1.550 . S
O31 C37 1.412 . S
H32 C30 0.979 . S
C33 H26 0.929 . S
C33 C34 1.400 . S
C33 C35 1.364 . S
C34 C33 1.400 . S
C34 C38 1.377 . S
C35 C33 1.364 . S
C35 C36 1.374 . S
C36 H27 0.930 1_554 S
C36 C35 1.374 . S
C36 C37 1.383 . S
C37 O31 1.412 . S
C37 C36 1.383 . S
C37 C38 1.394 . S
C38 H28 0.929 . S
C38 C34 1.377 . S
C38 C37 1.394 . S
H39 C46 0.929 . S
H40 C49 0.930 . S
H41 C51 0.929 . S
H42 C43 0.969 . S
C43 H42 0.969 . S
C43 O44 1.550 . S
C43 H45 0.973 . S
O44 C43 1.550 . S
O44 C50 1.412 . S
H45 C43 0.973 . S
C46 H39 0.929 . S
C46 C47 1.400 . S
C46 C48 1.364 . S
C47 C46 1.400 . S
C47 C51 1.377 . S
C48 C46 1.364 . S
C48 C49 1.374 . S
C49 H40 0.930 . S
C49 C48 1.374 . S
C49 C50 1.383 . S
C50 O44 1.412 . S
C50 C49 1.383 . S
C50 C51 1.394 . S
C51 H41 0.929 . S
C51 C47 1.377 . S
C51 C50 1.394 . S
Tb52 N81 2.617 . S
Tb52 N87 2.572 . S
Tb52 O96 2.465 . S
Tb52 O97 2.387 . S
Tb52 O99 2.428 . S
Tb52 O100 2.308 1_565 S
Tb52 O104 2.349 1_465 S
Tb52 O107 2.393 1_455 S
Tb52 C116 2.802 . S
C53 N54 1.379 . S
C53 C56 1.416 . S
C53 C60 1.424 . S
N54 C53 1.379 . S
N54 C57 1.334 1_655 S
N54 Tb63 2.617 . S
C55 C57 1.390 . S
C55 C58 1.339 1_455 S
C55 H75 0.930 . S
C56 C53 1.416 . S
C56 C58 1.416 . S
C56 C62 1.448 . S
C57 N54 1.334 1_455 S
C57 C55 1.390 . S
C57 H68 0.930 . S
C58 C55 1.339 1_655 S
C58 C56 1.416 . S
C58 H79 0.930 . S
C59 C60 1.413 . S
C59 C61 1.427 . S
C59 C65 1.416 . S
C60 C53 1.424 . S
C60 C59 1.413 . S
C60 N64 1.361 . S
C61 C59 1.427 . S
C61 C62 1.328 . S
C61 H76 0.929 . S
C62 C56 1.448 . S
C62 C61 1.328 . S
C62 H77 0.930 . S
Tb63 N54 2.617 . S
Tb63 N64 2.572 . S
Tb63 O98 2.349 1_655 S
Tb63 O101 2.393 1_655 S
Tb63 O102 2.465 . S
Tb63 O103 2.387 . S
Tb63 O105 2.428 . S
Tb63 O106 2.308 1_545 S
Tb63 C127 2.802 . S
N64 C60 1.361 . S
N64 Tb63 2.572 . S
N64 C66 1.340 . S
C65 C59 1.416 . S
C65 C67 1.332 . S
C65 H73 0.931 . S
C66 N64 1.340 . S
C66 C67 1.407 . S
C66 H72 0.930 . S
C67 C65 1.332 . S
C67 C66 1.407 . S
C67 H69 0.929 . S
H68 C57 0.930 . S
H69 C67 0.929 . S
H70 C85 0.930 1_655 S
H71 C92 0.929 . S
H72 C66 0.930 . S
H73 C65 0.931 . S
H74 C88 0.930 . S
H75 C55 0.930 . S
H76 C61 0.929 . S
H77 C62 0.930 . S
H78 C83 0.930 1_655 S
H79 C58 0.930 . S
H80 C91 0.931 . S
N81 Tb52 2.617 . S
N81 C82 1.379 . S
N81 C85 1.334 . S
C82 N81 1.379 . S
C82 C84 1.416 . S
C82 C90 1.424 . S
C83 H78 0.930 1_455 S
C83 C85 1.390 . S
C83 C86 1.339 . S
C84 C82 1.416 . S
C84 C86 1.416 . S
C84 C117 1.448 . S
C85 H70 0.930 1_455 S
C85 N81 1.334 . S
C85 C83 1.390 . S
C86 C83 1.339 . S
C86 C84 1.416 . S
C86 H93 0.930 . S
N87 Tb52 2.572 . S
N87 C88 1.340 . S
N87 C90 1.361 . S
C88 H74 0.930 . S
C88 N87 1.340 . S
C88 C92 1.407 . S
C89 C90 1.413 . S
C89 C91 1.416 . S
C89 C118 1.427 . S
C90 C82 1.424 . S
C90 N87 1.361 . S
C90 C89 1.413 . S
C91 H80 0.931 . S
C91 C89 1.416 . S
C91 C92 1.332 . S
C92 H71 0.929 . S
C92 C88 1.407 . S
C92 C91 1.332 . S
H93 C86 0.930 . S
H94 C117 0.930 . S
H95 C118 0.929 . S
O96 Tb52 2.465 . S
O96 C116 1.264 . S
O97 Tb52 2.387 . S
O97 C108 1.264 . S
O98 Tb63 2.349 1_455 S
O98 C108 1.243 1_545 S
O99 Tb52 2.428 . S
O99 C116 1.256 . S
O100 Tb52 2.308 1_545 S
O100 C115 1.266 . S
O101 Tb63 2.393 1_455 S
O101 C115 1.248 . S
O102 Tb63 2.465 . S
O102 C127 1.264 . S
O103 Tb63 2.387 . S
O103 C119 1.264 . S
O104 Tb52 2.349 1_645 S
O104 C119 1.243 . S
O105 Tb63 2.428 . S
O105 C127 1.256 . S
O106 Tb63 2.308 1_565 S
O106 C126 1.266 . S
O107 Tb52 2.393 1_655 S
O107 C126 1.248 . S
C108 O97 1.264 . S
C108 O98 1.243 1_565 S
C109 C112 1.399 . S
C109 C114 1.383 . S
C109 C116 1.496 . S
C110 C111 1.399 . S
C110 C114 1.389 . S
C111 C110 1.399 . S
C111 C113 1.380 . S
C111 H128 0.929 . S
C112 C109 1.399 . S
C112 C113 1.392 . S
C112 H129 0.929 . S
C113 C111 1.380 . S
C113 C112 1.392 . S
C113 H130 0.929 . S
C114 C109 1.383 . S
C114 C110 1.389 . S
C114 H131 0.931 . S
C115 O100 1.266 . S
C115 O101 1.248 . S
C116 Tb52 2.802 . S
C116 O96 1.264 . S
C116 O99 1.256 . S
C116 C109 1.496 . S
C117 C84 1.448 . S
C117 H94 0.930 . S
C117 C118 1.328 . S
C118 C89 1.427 . S
C118 H95 0.929 . S
C118 C117 1.328 . S
C119 O103 1.264 . S
C119 O104 1.243 . S
C120 C123 1.399 . S
C120 C124 1.383 . S
C120 C127 1.496 . S
C121 C122 1.399 . S
C121 C124 1.389 . S
C122 C121 1.399 . S
C122 C125 1.380 . S
C122 H132 0.929 . S
C123 C120 1.399 . S
C123 C125 1.392 . S
C123 H133 0.929 . S
C124 C120 1.383 . S
C124 C121 1.389 . S
C124 H134 0.931 . S
C125 C122 1.380 . S
C125 C123 1.392 . S
C125 H135 0.929 . S
C126 O106 1.266 . S
C126 O107 1.248 . S
C127 Tb63 2.802 . S
C127 O102 1.264 . S
C127 O105 1.256 . S
C127 C120 1.496 . S
H128 C111 0.929 . S
H129 C112 0.929 . S
H130 C113 0.929 . S
H131 C114 0.931 . S
H132 C122 0.929 . S
H133 C123 0.929 . S
H134 C124 0.931 . S
H135 C125 0.929 . S
Tb136 N165 2.617 . S
Tb136 N171 2.572 1_556 S
Tb136 O180 2.465 . S
Tb136 O181 2.387 1_556 S
Tb136 O183 2.428 . S
Tb136 O184 2.308 1_556 S
Tb136 O188 2.349 . S
Tb136 O191 2.393 1_556 S
Tb136 C200 2.802 . S
C137 N138 1.379 . S
C137 C140 1.416 . S
C137 C144 1.424 . S
N138 C137 1.379 . S
N138 C141 1.334 . S
N138 Tb147 2.617 . S
C139 C141 1.390 . S
C139 C142 1.339 . S
C139 H159 0.930 . S
C140 C137 1.416 . S
C140 C142 1.416 . S
C140 C146 1.448 . S
C141 N138 1.334 . S
C141 C139 1.390 . S
C141 H152 0.930 . S
C142 C139 1.339 . S
C142 C140 1.416 . S
C142 H163 0.930 . S
C143 C144 1.413 . S
C143 C145 1.427 . S
C143 C149 1.416 . S
C144 C137 1.424 . S
C144 C143 1.413 . S
C144 N148 1.361 . S
C145 C143 1.427 . S
C145 C146 1.328 . S
C145 H160 0.929 . S
C146 C140 1.448 . S
C146 C145 1.328 . S
C146 H161 0.930 . S
Tb147 N138 2.617 . S
Tb147 N148 2.572 . S
Tb147 O182 2.349 . S
Tb147 O185 2.393 . S
Tb147 O186 2.465 . S
Tb147 O187 2.387 . S
Tb147 O189 2.428 . S
Tb147 O190 2.308 . S
Tb147 C211 2.802 . S
N148 C144 1.361 . S
N148 Tb147 2.572 . S
N148 C150 1.340 . S
C149 C143 1.416 . S
C149 C151 1.332 . S
C149 H157 0.931 . S
C150 N148 1.340 . S
C150 C151 1.407 . S
C150 H156 0.930 . S
C151 C149 1.332 . S
C151 C150 1.407 . S
C151 H153 0.929 . S
H152 C141 0.930 . S
H153 C151 0.929 . S
H154 C169 0.930 . S
H155 C176 0.929 . S
H156 C150 0.930 . S
H157 C149 0.931 . S
H158 C172 0.930 . S
H159 C139 0.930 . S
H160 C145 0.929 . S
H161 C146 0.930 . S
H162 C167 0.930 . S
H163 C142 0.930 . S
H164 C175 0.931 . S
N165 Tb136 2.617 . S
N165 C166 1.379 1_556 S
N165 C169 1.334 . S
C166 N165 1.379 1_554 S
C166 C168 1.416 . S
C166 C174 1.424 . S
C167 H162 0.930 . S
C167 C169 1.390 . S
C167 C170 1.339 1_556 S
C168 C166 1.416 . S
C168 C170 1.416 . S
C168 C201 1.448 . S
C169 H154 0.930 . S
C169 N165 1.334 . S
C169 C167 1.390 . S
C170 C167 1.339 1_554 S
C170 C168 1.416 . S
C170 H177 0.930 . S
N171 Tb136 2.572 1_554 S
N171 C172 1.340 . S
N171 C174 1.361 . S
C172 H158 0.930 . S
C172 N171 1.340 . S
C172 C176 1.407 . S
C173 C174 1.413 . S
C173 C175 1.416 . S
C173 C202 1.427 . S
C174 C166 1.424 . S
C174 N171 1.361 . S
C174 C173 1.413 . S
C175 H164 0.931 . S
C175 C173 1.416 . S
C175 C176 1.332 . S
C176 H155 0.929 . S
C176 C172 1.407 . S
C176 C175 1.332 . S
H177 C170 0.930 . S
H178 C201 0.930 . S
H179 C202 0.929 . S
O180 Tb136 2.465 . S
O180 C200 1.264 . S
O181 Tb136 2.387 1_554 S
O181 C192 1.264 . S
O182 Tb147 2.349 . S
O182 C192 1.243 . S
O183 Tb136 2.428 . S
O183 C200 1.256 . S
O184 Tb136 2.308 1_554 S
O184 C199 1.266 . S
O185 Tb147 2.393 . S
O185 C199 1.248 . S
O186 Tb147 2.465 . S
O186 C211 1.264 . S
O187 Tb147 2.387 . S
O187 C203 1.264 1_554 S
O188 Tb136 2.349 . S
O188 C203 1.243 . S
O189 Tb147 2.428 . S
O189 C211 1.256 . S
O190 Tb147 2.308 . S
O190 C210 1.266 . S
O191 Tb136 2.393 1_554 S
O191 C210 1.248 . S
C192 O181 1.264 . S
C192 O182 1.243 . S
C193 C196 1.399 . S
C193 C198 1.383 . S
C193 C200 1.496 . S
C194 C195 1.399 . S
C194 C198 1.389 . S
C195 C194 1.399 . S
C195 C197 1.380 . S
C195 H212 0.929 . S
C196 C193 1.399 . S
C196 C197 1.392 . S
C196 H213 0.929 . S
C197 C195 1.380 . S
C197 C196 1.392 . S
C197 H214 0.929 . S
C198 C193 1.383 . S
C198 C194 1.389 . S
C198 H215 0.931 . S
C199 O184 1.266 . S
C199 O185 1.248 . S
C200 Tb136 2.802 . S
C200 O180 1.264 . S
C200 O183 1.256 . S
C200 C193 1.496 . S
C201 C168 1.448 . S
C201 H178 0.930 . S
C201 C202 1.328 . S
C202 C173 1.427 . S
C202 H179 0.929 . S
C202 C201 1.328 . S
C203 O187 1.264 1_556 S
C203 O188 1.243 . S
C204 C207 1.399 . S
C204 C208 1.383 . S
C204 C211 1.496 . S
C205 C206 1.399 . S
C205 C208 1.389 . S
C206 C205 1.399 . S
C206 C209 1.380 . S
C206 H216 0.929 . S
C207 C204 1.399 . S
C207 C209 1.392 . S
C207 H217 0.929 . S
C208 C204 1.383 . S
C208 C205 1.389 . S
C208 H218 0.931 . S
C209 C206 1.380 . S
C209 C207 1.392 . S
C209 H219 0.929 . S
C210 O190 1.266 . S
C210 O191 1.248 . S
C211 Tb147 2.802 . S
C211 O186 1.264 . S
C211 O189 1.256 . S
C211 C204 1.496 . S
H212 C195 0.929 . S
H213 C196 0.929 . S
H214 C197 0.929 . S
H215 C198 0.931 . S
H216 C206 0.929 . S
H217 C207 0.929 . S
H218 C208 0.931 . S
H219 C209 0.929 . S
H220 C226 0.930 . S
H221 C229 0.930 . S
H222 C230 0.930 . S
H223 C231 0.930 . S
H224 C234 0.930 . S
H225 C235 0.930 . S
C226 H220 0.930 . S
C226 C227 1.355 . S
C226 C228 1.415 . S
C227 C226 1.355 . S
C227 C229 1.419 . S
C228 C226 1.415 . S
C228 C233 1.425 . S
C228 C235 1.409 . S
C229 H221 0.930 . S
C229 C227 1.419 . S
C229 C230 1.362 . S
C230 H222 0.930 . S
C230 C229 1.362 . S
C230 C233 1.409 . S
C231 H223 0.930 . S
C231 C232 1.355 . S
C231 C233 1.415 . S
C232 C231 1.355 . S
C232 C234 1.419 . S
C233 C228 1.425 . S
C233 C230 1.409 . S
C233 C231 1.415 . S
C234 H224 0.930 . S
C234 C232 1.419 . S
C234 C235 1.362 . S
C235 H225 0.930 . S
C235 C228 1.409 . S
C235 C234 1.362 . S
H236 C242 0.930 . S
H237 C245 0.930 . S
H238 C246 0.930 . S
H239 C247 0.930 1_556 S
H240 C250 0.930 . S
H241 C251 0.930 . S
C242 H236 0.930 . S
C242 C243 1.355 . S
C242 C244 1.415 . S
C243 C242 1.355 . S
C243 C245 1.419 1_554 S
C244 C242 1.415 . S
C244 C249 1.425 . S
C244 C251 1.409 . S
C245 H237 0.930 . S
C245 C243 1.419 1_556 S
C245 C246 1.362 . S
C246 H238 0.930 . S
C246 C245 1.362 . S
C246 C249 1.409 1_556 S
C247 H239 0.930 1_554 S
C247 C248 1.355 . S
C247 C249 1.415 . S
C248 C247 1.355 . S
C248 C250 1.419 . S
C249 C244 1.425 . S
C249 C246 1.409 1_554 S
C249 C247 1.415 . S
C250 H240 0.930 . S
C250 C248 1.419 . S
C250 C251 1.362 . S
C251 H241 0.930 . S
C251 C244 1.409 . S
C251 C250 1.362 . S
H252 C258 0.930 . S
H253 C261 0.930 . S
H254 C262 0.930 . S
H255 C263 0.930 . S
H256 C266 0.930 . S
H257 C267 0.930 . S
C258 H252 0.930 . S
C258 C259 1.355 . S
C258 C260 1.415 . S
C259 C258 1.355 . S
C259 C261 1.419 . S
C260 C258 1.415 . S
C260 C265 1.425 . S
C260 C267 1.409 . S
C261 H253 0.930 . S
C261 C259 1.419 . S
C261 C262 1.362 . S
C262 H254 0.930 . S
C262 C261 1.362 . S
C262 C265 1.409 . S
C263 H255 0.930 . S
C263 C264 1.355 . S
C263 C265 1.415 . S
C264 C263 1.355 . S
C264 C266 1.419 . S
C265 C260 1.425 . S
C265 C262 1.409 . S
C265 C263 1.415 . S
C266 H256 0.930 . S
C266 C264 1.419 . S
C266 C267 1.362 . S
C267 H257 0.930 . S
C267 C260 1.409 . S
C267 C266 1.362 . S
H268 C274 0.930 . S
H269 C277 0.930 1_556 S
H270 C278 0.930 1_556 S
H271 C279 0.930 . S
H272 C282 0.930 . S
H273 C283 0.930 . S
C274 H268 0.930 . S
C274 C275 1.355 . S
C274 C276 1.415 . S
C275 C274 1.355 . S
C275 C277 1.419 . S
C276 C274 1.415 . S
C276 C281 1.425 . S
C276 C283 1.409 . S
C277 H269 0.930 1_554 S
C277 C275 1.419 . S
C277 C278 1.362 . S
C278 H270 0.930 1_554 S
C278 C277 1.362 . S
C278 C281 1.409 . S
C279 H271 0.930 . S
C279 C280 1.355 . S
C279 C281 1.415 . S
C280 C279 1.355 . S
C280 C282 1.419 . S
C281 C276 1.425 . S
C281 C278 1.409 . S
C281 C279 1.415 . S
C282 H272 0.930 . S
C282 C280 1.419 . S
C282 C283 1.362 . S
C283 H273 0.930 . S
C283 C276 1.409 . S
C283 C282 1.362 . S
H284 C290 0.930 . S
H285 C293 0.930 . S
H286 C294 0.930 . S
H287 C295 0.930 . S
H288 C298 0.930 . S
H289 C299 0.930 . S
C290 H284 0.930 . S
C290 C291 1.355 . S
C290 C292 1.415 . S
C291 C290 1.355 . S
C291 C293 1.419 . S
C292 C290 1.415 . S
C292 C297 1.425 . S
C292 C299 1.409 . S
C293 H285 0.930 . S
C293 C291 1.419 . S
C293 C294 1.362 . S
C294 H286 0.930 . S
C294 C293 1.362 . S
C294 C297 1.409 . S
C295 H287 0.930 . S
C295 C296 1.355 . S
C295 C297 1.415 . S
C296 C295 1.355 . S
C296 C298 1.419 . S
C297 C292 1.425 . S
C297 C294 1.409 . S
C297 C295 1.415 . S
C298 H288 0.930 . S
C298 C296 1.419 . S
C298 C299 1.362 . S
C299 H289 0.930 . S
C299 C292 1.409 . S
C299 C298 1.362 . S
H300 C306 0.930 . S
H301 C309 0.930 . S
H302 C310 0.930 . S
H303 C311 0.930 . S
H304 C314 0.930 . S
H305 C315 0.930 . S
C306 H300 0.930 . S
C306 C307 1.355 . S
C306 C308 1.415 . S
C307 C306 1.355 . S
C307 C309 1.419 . S
C308 C306 1.415 . S
C308 C313 1.425 . S
C308 C315 1.409 . S
C309 H301 0.930 . S
C309 C307 1.419 . S
C309 C310 1.362 . S
C310 H302 0.930 . S
C310 C309 1.362 . S
C310 C313 1.409 . S
C311 H303 0.930 . S
C311 C312 1.355 . S
C311 C313 1.415 . S
C312 C311 1.355 . S
C312 C314 1.419 . S
C313 C308 1.425 . S
C313 C310 1.409 . S
C313 C311 1.415 . S
C314 H304 0.930 . S
C314 C312 1.419 . S
C314 C315 1.362 . S
C315 H305 0.930 . S
C315 C308 1.409 . S
C315 C314 1.362 . S
H316 C322 0.930 . S
H317 C325 0.930 . S
H318 C326 0.930 . S
H319 C327 0.930 . S
H320 C330 0.930 . S
H321 C331 0.930 . S
C322 H316 0.930 . S
C322 C323 1.355 . S
C322 C324 1.415 . S
C323 C322 1.355 . S
C323 C325 1.419 . S
C324 C322 1.415 . S
C324 C329 1.425 . S
C324 C331 1.409 . S
C325 H317 0.930 . S
C325 C323 1.419 . S
C325 C326 1.362 . S
C326 H318 0.930 . S
C326 C325 1.362 . S
C326 C329 1.409 . S
C327 H319 0.930 . S
C327 C328 1.355 . S
C327 C329 1.415 . S
C328 C327 1.355 . S
C328 C330 1.419 . S
C329 C324 1.425 . S
C329 C326 1.409 . S
C329 C327 1.415 . S
C330 H320 0.930 . S
C330 C328 1.419 . S
C330 C331 1.362 . S
C331 H321 0.930 . S
C331 C324 1.409 . S
C331 C330 1.362 . S
H332 C338 0.930 . S
H333 C341 0.930 . S
H334 C342 0.930 . S
H335 C343 0.930 . S
H336 C346 0.930 . S
H337 C347 0.930 . S
C338 H332 0.930 . S
C338 C339 1.355 . S
C338 C340 1.415 . S
C339 C338 1.355 . S
C339 C341 1.419 . S
C340 C338 1.415 . S
C340 C345 1.425 . S
C340 C347 1.409 . S
C341 H333 0.930 . S
C341 C339 1.419 . S
C341 C342 1.362 . S
C342 H334 0.930 . S
C342 C341 1.362 . S
C342 C345 1.409 . S
C343 H335 0.930 . S
C343 C344 1.355 . S
C343 C345 1.415 . S
C344 C343 1.355 . S
C344 C346 1.419 . S
C345 C340 1.425 . S
C345 C342 1.409 . S
C345 C343 1.415 . S
C346 H336 0.930 . S
C346 C344 1.419 . S
C346 C347 1.362 . S
C347 H337 0.930 . S
C347 C340 1.409 . S
C347 C346 1.362 . S
H348 C354 0.930 . S
H349 C357 0.930 . S
H350 C358 0.930 . S
H351 C359 0.930 . S
H352 C362 0.930 . S
H353 C363 0.930 . S
C354 H348 0.930 . S
C354 C355 1.355 . S
C354 C356 1.415 . S
C355 C354 1.355 . S
C355 C357 1.419 . S
C356 C354 1.415 . S
C356 C361 1.425 . S
C356 C363 1.409 . S
C357 H349 0.930 . S
C357 C355 1.419 . S
C357 C358 1.362 . S
C358 H350 0.930 . S
C358 C357 1.362 . S
C358 C361 1.409 . S
C359 H351 0.930 . S
C359 C360 1.355 . S
C359 C361 1.415 . S
C360 C359 1.355 . S
C360 C362 1.419 . S
C361 C356 1.425 . S
C361 C358 1.409 . S
C361 C359 1.415 . S
C362 H352 0.930 . S
C362 C360 1.419 . S
C362 C363 1.362 . S
C363 H353 0.930 . S
C363 C356 1.409 . S
C363 C362 1.362 . S
H364 C370 0.930 . S
H365 C373 0.930 . S
H366 C374 0.930 . S
H367 C375 0.930 . S
H368 C378 0.930 . S
H369 C379 0.930 . S
C370 H364 0.930 . S
C370 C371 1.355 . S
C370 C372 1.415 . S
C371 C370 1.355 . S
C371 C373 1.419 1_556 S
C372 C370 1.415 . S
C372 C377 1.425 . S
C372 C379 1.409 . S
C373 H365 0.930 . S
C373 C371 1.419 1_554 S
C373 C374 1.362 1_554 S
C374 H366 0.930 . S
C374 C373 1.362 1_556 S
C374 C377 1.409 . S
C375 H367 0.930 . S
C375 C376 1.355 . S
C375 C377 1.415 . S
C376 C375 1.355 . S
C376 C378 1.419 . S
C377 C372 1.425 . S
C377 C374 1.409 . S
C377 C375 1.415 . S
C378 H368 0.930 . S
C378 C376 1.419 . S
C378 C379 1.362 . S
C379 H369 0.930 . S
C379 C372 1.409 . S
C379 C378 1.362 . S
H380 C386 0.930 . S
H381 C389 0.930 . S
H382 C390 0.930 . S
H383 C391 0.930 . S
H384 C394 0.930 . S
H385 C395 0.930 . S
C386 H380 0.930 . S
C386 C387 1.355 . S
C386 C388 1.415 . S
C387 C386 1.355 . S
C387 C389 1.419 . S
C388 C386 1.415 . S
C388 C393 1.425 . S
C388 C395 1.409 . S
C389 H381 0.930 . S
C389 C387 1.419 . S
C389 C390 1.362 . S
C390 H382 0.930 . S
C390 C389 1.362 . S
C390 C393 1.409 . S
C391 H383 0.930 . S
C391 C392 1.355 . S
C391 C393 1.415 . S
C392 C391 1.355 . S
C392 C394 1.419 . S
C393 C388 1.425 . S
C393 C390 1.409 . S
C393 C391 1.415 . S
C394 H384 0.930 . S
C394 C392 1.419 . S
C394 C395 1.362 . S
C395 H385 0.930 . S
C395 C388 1.409 . S
C395 C394 1.362 . S
H396 C402 0.930 . S
H397 C405 0.930 . S
H398 C406 0.930 . S
H399 C407 0.930 . S
H400 C410 0.930 . S
H401 C411 0.930 . S
C402 H396 0.930 . S
C402 C403 1.355 . S
C402 C404 1.415 . S
C403 C402 1.355 . S
C403 C405 1.419 . S
C404 C402 1.415 . S
C404 C409 1.425 . S
C404 C411 1.409 . S
C405 H397 0.930 . S
C405 C403 1.419 . S
C405 C406 1.362 . S
C406 H398 0.930 . S
C406 C405 1.362 . S
C406 C409 1.409 . S
C407 H399 0.930 . S
C407 C408 1.355 . S
C407 C409 1.415 . S
C408 C407 1.355 . S
C408 C410 1.419 . S
C409 C404 1.425 . S
C409 C406 1.409 . S
C409 C407 1.415 . S
C410 H400 0.930 . S
C410 C408 1.419 . S
C410 C411 1.362 . S
C411 H401 0.930 . S
C411 C404 1.409 . S
C411 C410 1.362 . S
C232 C115 1.613 . S
C227 C43 1.584 . S
C243 C4 1.613 . S
C248 C210 1.641 . S
C259 C17 1.593 . S
C264 C126 1.638 . S
C275 C30 1.618 . S
C280 C199 1.610 . S
C296 C110 1.428 . S
C291 C9 1.544 . S
C312 C203 1.649 . S
C307 C21 1.644 . S
C323 C34 1.604 . S
C328 C119 1.621 . S
C339 C48 1.581 . S
C344 C194 1.407 . S
C360 C205 1.393 . S
C355 C22 1.559 . S
C376 C121 1.408 . S
C371 C35 1.542 1_556 S
C392 C192 1.648 . S
C387 C47 1.652 . S
C403 C8 1.602 . S
C408 C108 1.620 . S
