# Generated by pormake.
# Topology ssb, (4,4)-cn, num edge types: 1
# Building blocks:
#     Node 0, Type 0, BuildingBlock: KUFVIS_clean_linker_0, # of connection points: 4
#     Node 1, Type 0, BuildingBlock: KUFVIS_clean_linker_0, # of connection points: 4
#     Node 2, Type 0, BuildingBlock: KUFVIS_clean_linker_0, # of connection points: 4
#     Node 3, Type 0, BuildingBlock: KUFVIS_clean_linker_0, # of connection points: 4
#     Node 4, Type 0, BuildingBlock: KUFVIS_clean_linker_0, # of connection points: 4
#     Node 5, Type 0, BuildingBlock: KUFVIS_clean_linker_0, # of connection points: 4
#     Node 6, Type 0, BuildingBlock: KUFVIS_clean_linker_0, # of connection points: 4
#     Node 7, Type 0, BuildingBlock: KUFVIS_clean_linker_0, # of connection points: 4
#     Node 8, Type 1, BuildingBlock: KOZSID_clean_sbu_0, # of connection points: 4
#     Node 9, Type 1, BuildingBlock: KOZSID_clean_sbu_0, # of connection points: 4
#     Node 10, Type 1, BuildingBlock: KOZSID_clean_sbu_0, # of connection points: 4
#     Node 11, Type 1, BuildingBlock: KOZSID_clean_sbu_0, # of connection points: 4
#     Node 12, Type 1, BuildingBlock: KOZSID_clean_sbu_0, # of connection points: 4
#     Node 13, Type 1, BuildingBlock: KOZSID_clean_sbu_0, # of connection points: 4
#     Node 14, Type 1, BuildingBlock: KOZSID_clean_sbu_0, # of connection points: 4
#     Node 15, Type 1, BuildingBlock: KOZSID_clean_sbu_0, # of connection points: 4
#     Edge 16, Type (0, 1), BuildingBlock: TEMPAE_clean_linker_10, # of connection points: 2
#     Edge 17, Type (0, 1), BuildingBlock: TEMPAE_clean_linker_10, # of connection points: 2
#     Edge 18, Type (0, 1), BuildingBlock: TEMPAE_clean_linker_10, # of connection points: 2
#     Edge 19, Type (0, 1), BuildingBlock: TEMPAE_clean_linker_10, # of connection points: 2
#     Edge 20, Type (0, 1), BuildingBlock: TEMPAE_clean_linker_10, # of connection points: 2
#     Edge 21, Type (0, 1), BuildingBlock: TEMPAE_clean_linker_10, # of connection points: 2
#     Edge 22, Type (0, 1), BuildingBlock: TEMPAE_clean_linker_10, # of connection points: 2
#     Edge 23, Type (0, 1), BuildingBlock: TEMPAE_clean_linker_10, # of connection points: 2
#     Edge 24, Type (0, 1), BuildingBlock: TEMPAE_clean_linker_10, # of connection points: 2
#     Edge 25, Type (0, 1), BuildingBlock: TEMPAE_clean_linker_10, # of connection points: 2
#     Edge 26, Type (0, 1), BuildingBlock: TEMPAE_clean_linker_10, # of connection points: 2
#     Edge 27, Type (0, 1), BuildingBlock: TEMPAE_clean_linker_10, # of connection points: 2
#     Edge 28, Type (0, 1), BuildingBlock: TEMPAE_clean_linker_10, # of connection points: 2
#     Edge 29, Type (0, 1), BuildingBlock: TEMPAE_clean_linker_10, # of connection points: 2
#     Edge 30, Type (0, 1), BuildingBlock: TEMPAE_clean_linker_10, # of connection points: 2
#     Edge 31, Type (0, 1), BuildingBlock: TEMPAE_clean_linker_10, # of connection points: 2
#     Edge 32, Type (0, 1), BuildingBlock: TEMPAE_clean_linker_10, # of connection points: 2
#     Edge 33, Type (0, 1), BuildingBlock: TEMPAE_clean_linker_10, # of connection points: 2
#     Edge 34, Type (0, 1), BuildingBlock: TEMPAE_clean_linker_10, # of connection points: 2
#     Edge 35, Type (0, 1), BuildingBlock: TEMPAE_clean_linker_10, # of connection points: 2
#     Edge 36, Type (0, 1), BuildingBlock: TEMPAE_clean_linker_10, # of connection points: 2
#     Edge 37, Type (0, 1), BuildingBlock: TEMPAE_clean_linker_10, # of connection points: 2
#     Edge 38, Type (0, 1), BuildingBlock: TEMPAE_clean_linker_10, # of connection points: 2
#     Edge 39, Type (0, 1), BuildingBlock: TEMPAE_clean_linker_10, # of connection points: 2
#     Edge 40, Type (0, 1), BuildingBlock: TEMPAE_clean_linker_10, # of connection points: 2
#     Edge 41, Type (0, 1), BuildingBlock: TEMPAE_clean_linker_10, # of connection points: 2
#     Edge 42, Type (0, 1), BuildingBlock: TEMPAE_clean_linker_10, # of connection points: 2
#     Edge 43, Type (0, 1), BuildingBlock: TEMPAE_clean_linker_10, # of connection points: 2
#     Edge 44, Type (0, 1), BuildingBlock: TEMPAE_clean_linker_10, # of connection points: 2
#     Edge 45, Type (0, 1), BuildingBlock: TEMPAE_clean_linker_10, # of connection points: 2
#     Edge 46, Type (0, 1), BuildingBlock: TEMPAE_clean_linker_10, # of connection points: 2
#     Edge 47, Type (0, 1), BuildingBlock: TEMPAE_clean_linker_10, # of connection points: 2
# Relax obj value: 0.003
# Max RMSD: 0.066
# Mean RMSD: 0.032
data_MOF--net-ssb--node1-KOZSID_clean_sbu_0--node2-KUFVIS_clean_linker_0--edge1-TEMPAE_clean_linker_10
_symmetry_space_group_name_H-M    P1
_symmetry_Int_Tables_number       1
_symmetry_cell_setting            triclinic
loop_
_symmetry_equiv_pos_as_xyz
'x, y, z'
_cell_length_a     55.039671
_cell_length_b     54.952906
_cell_length_c     40.415448
_cell_angle_alpha  92.590503
_cell_angle_beta   95.066686
_cell_angle_gamma 89.991826
loop_
_atom_site_label
_atom_site_type_symbol
_atom_site_fract_x
_atom_site_fract_y
_atom_site_fract_z
_atom_type_partial_charge
H0 H 0.21518 0.20658 0.36489 0.0
H1 H 0.27438 0.2082 0.30331 0.0
H2 H 0.22407 0.26918 0.30866 0.0
H3 H 0.23638 0.28219 0.26438 0.0
H4 H 0.30066 0.29069 0.21411 0.0
H5 H 0.29662 0.23102 0.27735 0.0
C6 C 0.22511 0.21577 0.34703 0.0
C7 C 0.21718 0.23862 0.33689 0.0
C8 C 0.24599 0.20493 0.33567 0.0
C9 C 0.25884 0.21736 0.31251 0.0
C10 C 0.25114 0.2408 0.30114 0.0
C11 C 0.2304 0.25123 0.31482 0.0
C12 C 0.2645 0.25454 0.27578 0.0
C13 C 0.2544 0.27573 0.26014 0.0
C14 C 0.26767 0.28918 0.23857 0.0
C15 C 0.29064 0.28088 0.2313 0.0
C16 C 0.3006 0.2597 0.24461 0.0
C17 C 0.2878 0.2468 0.26689 0.0
H18 H 0.70806 0.30881 0.21188 0.0
H19 H 0.7723 0.29945 0.27703 0.0
H20 H 0.72374 0.23837 0.24911 0.0
H21 H 0.73926 0.22343 0.29425 0.0
H22 H 0.80894 0.20908 0.34417 0.0
H23 H 0.79993 0.27277 0.28742 0.0
C24 C 0.71937 0.29714 0.22776 0.0
C25 C 0.71267 0.27276 0.2303 0.0
C26 C 0.74117 0.30637 0.24386 0.0
C27 C 0.75621 0.29133 0.26374 0.0
C28 C 0.75048 0.26649 0.26633 0.0
C29 C 0.72864 0.25737 0.24873 0.0
C30 C 0.76712 0.25037 0.28734 0.0
C31 C 0.75818 0.22867 0.29932 0.0
C32 C 0.77348 0.21335 0.31845 0.0
C33 C 0.79766 0.22029 0.3276 0.0
C34 C 0.80699 0.24212 0.31734 0.0
C35 C 0.79192 0.25668 0.29643 0.0
H36 H 0.79711 0.8064 0.34763 0.0
H37 H 0.78414 0.73821 0.29332 0.0
H38 H 0.73422 0.79874 0.27906 0.0
H39 H 0.7123 0.77528 0.24688 0.0
H40 H 0.70201 0.70657 0.19468 0.0
H41 H 0.77195 0.72413 0.24417 0.0
C42 C 0.78608 0.79501 0.32964 0.0
C43 C 0.76429 0.80457 0.31534 0.0
C44 C 0.79342 0.77107 0.32212 0.0
C45 C 0.77904 0.75694 0.29769 0.0
C46 C 0.75787 0.76645 0.28015 0.0
C47 C 0.75045 0.79043 0.29033 0.0
C48 C 0.74334 0.75084 0.25278 0.0
C49 C 0.71968 0.75795 0.23968 0.0
C50 C 0.70528 0.74285 0.21654 0.0
C51 C 0.71412 0.71963 0.20851 0.0
C52 C 0.73858 0.71332 0.21589 0.0
C53 C 0.75307 0.72892 0.23857 0.0
H54 H 0.20055 0.80091 0.31695 0.0
H55 H 0.26582 0.78958 0.26868 0.0
H56 H 0.20872 0.73463 0.25933 0.0
H57 H 0.23839 0.71035 0.2482 0.0
H58 H 0.29473 0.70469 0.18208 0.0
H59 H 0.27516 0.77514 0.22043 0.0
C60 C 0.21097 0.78973 0.30052 0.0
C61 C 0.20229 0.7666 0.28947 0.0
C62 C 0.23365 0.79801 0.29258 0.0
C63 C 0.24788 0.78311 0.27306 0.0
C64 C 0.23927 0.76019 0.25987 0.0
C65 C 0.21622 0.75203 0.26866 0.0
C66 C 0.25469 0.74492 0.23789 0.0
C67 C 0.25155 0.71943 0.23465 0.0
C68 C 0.26557 0.70506 0.2141 0.0
C69 C 0.28375 0.71597 0.19762 0.0
C70 C 0.2876 0.74119 0.2002 0.0
C71 C 0.27279 0.7556 0.21997 0.0
H72 H 0.30367 0.71407 0.83546 0.0
H73 H 0.23485 0.73088 0.78554 0.0
H74 H 0.29786 0.7764 0.77549 0.0
H75 H 0.2751 0.80125 0.7492 0.0
H76 H 0.21197 0.80633 0.68051 0.0
H77 H 0.22073 0.74323 0.73812 0.0
C78 C 0.2928 0.72627 0.81998 0.0
C79 C 0.30349 0.74708 0.80836 0.0
C80 C 0.26803 0.72084 0.81299 0.0
C81 C 0.25402 0.73514 0.79014 0.0
C82 C 0.26464 0.75509 0.77469 0.0
C83 C 0.28938 0.76093 0.78511 0.0
C84 C 0.25012 0.76989 0.74834 0.0
C85 C 0.25841 0.79293 0.73808 0.0
C86 C 0.24473 0.80616 0.71355 0.0
C87 C 0.22243 0.79653 0.69963 0.0
C88 C 0.21361 0.77421 0.70895 0.0
C89 C 0.22768 0.76079 0.73249 0.0
H90 H 0.30226 0.31502 0.85741 0.0
H91 H 0.28758 0.24431 0.81218 0.0
H92 H 0.24099 0.30531 0.78558 0.0
H93 H 0.21404 0.27929 0.76776 0.0
H94 H 0.20308 0.20809 0.72136 0.0
H95 H 0.27361 0.22828 0.76549 0.0
C96 C 0.29154 0.30331 0.83937 0.0
C97 C 0.27059 0.31255 0.82222 0.0
C98 C 0.2982 0.2789 0.83489 0.0
C99 C 0.28284 0.26335 0.8138 0.0
C100 C 0.26181 0.27227 0.79527 0.0
C101 C 0.25631 0.29726 0.79956 0.0
C102 C 0.24558 0.25547 0.77234 0.0
C103 C 0.22125 0.26173 0.76109 0.0
C104 C 0.20608 0.24541 0.74058 0.0
C105 C 0.21495 0.22189 0.73407 0.0
C106 C 0.23932 0.21593 0.74249 0.0
C107 C 0.25456 0.23284 0.76097 0.0
H108 H 0.70736 0.29961 0.8512 0.0
H109 H 0.77007 0.29111 0.79646 0.0
H110 H 0.71109 0.23773 0.78446 0.0
H111 H 0.73448 0.2137 0.75968 0.0
H112 H 0.78922 0.21116 0.69136 0.0
H113 H 0.78016 0.27705 0.74927 0.0
C114 C 0.71709 0.28948 0.83288 0.0
C115 C 0.70733 0.26747 0.81908 0.0
C116 C 0.73942 0.29834 0.82443 0.0
C117 C 0.75248 0.28431 0.80168 0.0
C118 C 0.74264 0.26209 0.78591 0.0
C119 C 0.71984 0.25407 0.7955 0.0
C120 C 0.75561 0.24762 0.75937 0.0
C121 C 0.74868 0.22318 0.74867 0.0
C122 C 0.76058 0.21017 0.72382 0.0
C123 C 0.7798 0.22134 0.70994 0.0
C124 C 0.78695 0.24533 0.71912 0.0
C125 C 0.77481 0.25833 0.74359 0.0
H126 H 0.7096 0.7023 0.83187 0.0
H127 H 0.76702 0.70773 0.76823 0.0
H128 H 0.72159 0.77033 0.78884 0.0
H129 H 0.73105 0.78234 0.74209 0.0
H130 H 0.79375 0.79405 0.6899 0.0
H131 H 0.79172 0.73181 0.74894 0.0
C132 C 0.71948 0.71301 0.81552 0.0
C133 C 0.71269 0.73715 0.81052 0.0
C134 C 0.73966 0.70295 0.80126 0.0
C135 C 0.75242 0.71669 0.78008 0.0
C136 C 0.74621 0.74116 0.77424 0.0
C137 C 0.72655 0.75141 0.79092 0.0
C138 C 0.7598 0.75557 0.75054 0.0
C139 C 0.74918 0.77674 0.73694 0.0
C140 C 0.76134 0.79064 0.7153 0.0
C141 C 0.78405 0.78293 0.70592 0.0
C142 C 0.79439 0.76101 0.71635 0.0
C143 C 0.78278 0.74796 0.73985 0.0
C144 C 0.03874 0.29911 0.59 0.0
C145 C 0.04574 0.32185 0.60405 0.0
C146 C 0.03375 0.33872 0.58508 0.0
C147 C 0.01997 0.32543 0.56081 0.0
N148 N 0.02208 0.30105 0.56338 0.0
Co149 Co 0.00486 0.27519 0.53337 0.0
N150 N 0.98726 0.30012 0.50541 0.0
C151 C 0.98882 0.32461 0.51015 0.0
C152 C 0.97375 0.33708 0.48809 0.0
C153 C 0.96154 0.31953 0.46825 0.0
C154 C 0.97002 0.29727 0.47931 0.0
N155 N 0.98816 0.2493 0.5028 0.0
C156 C 0.97141 0.25127 0.47637 0.0
C157 C 0.96485 0.22863 0.46161 0.0
C158 C 0.97752 0.21172 0.47975 0.0
C159 C 0.99115 0.22494 0.50427 0.0
N160 N 0.02191 0.2502 0.56183 0.0
C161 C 0.01949 0.2257 0.55773 0.0
C162 C 0.03445 0.21307 0.57963 0.0
C163 C 0.04726 0.23045 0.59893 0.0
C164 C 0.03912 0.25293 0.58801 0.0
N165 N 0.97714 0.27519 0.56199 0.0
C166 C 0.9372 0.27489 0.60176 0.0
C167 C 0.94578 0.25336 0.58709 0.0
C168 C 0.96563 0.25389 0.56783 0.0
C169 C 0.94912 0.29661 0.59604 0.0
C170 C 0.96873 0.29637 0.57613 0.0
N171 N 0.03261 0.27514 0.50477 0.0
C172 C 0.06435 0.25327 0.4782 0.0
C173 C 0.07316 0.27473 0.46635 0.0
C174 C 0.06103 0.29644 0.47354 0.0
C175 C 0.04105 0.29626 0.49284 0.0
C176 C 0.04423 0.25385 0.49694 0.0
H177 H 0.03286 0.31343 0.49802 0.0
H178 H 0.03853 0.23678 0.5049 0.0
H179 H 0.97121 0.23678 0.55771 0.0
H180 H 0.97674 0.31357 0.57251 0.0
C181 C 0.00431 0.33531 0.53591 0.0
C182 C 0.04892 0.2763 0.6024 0.0
C183 C 0.96046 0.27395 0.4651 0.0
C184 C 0.00538 0.215 0.53054 0.0
H185 H 0.05834 0.32587 0.6257 0.0
H186 H 0.0349 0.35834 0.58861 0.0
H187 H 0.97158 0.35661 0.48695 0.0
H188 H 0.94768 0.32278 0.44827 0.0
H189 H 0.95187 0.22473 0.44032 0.0
H190 H 0.97642 0.1921 0.47605 0.0
H191 H 0.03663 0.19352 0.58045 0.0
H192 H 0.06152 0.22666 0.61809 0.0
H193 H 0.93703 0.23602 0.58993 0.0
H194 H 0.94354 0.31382 0.60703 0.0
H195 H 0.07285 0.23593 0.47278 0.0
H196 H 0.06724 0.31355 0.46492 0.0
C197 C 0.71373 0.04501 0.564 0.0
C198 C 0.69124 0.05512 0.56944 0.0
C199 C 0.6741 0.04172 0.55006 0.0
C200 C 0.687 0.02432 0.53373 0.0
N201 N 0.71137 0.02561 0.54171 0.0
Co202 Co 0.73673 0.00449 0.52184 0.0
N203 N 0.71151 0.98488 0.49298 0.0
C204 C 0.68705 0.9873 0.49283 0.0
C205 C 0.67414 0.97071 0.47186 0.0
C206 C 0.69134 0.95671 0.45787 0.0
C207 C 0.71392 0.96568 0.47092 0.0
N208 N 0.76222 0.98409 0.501 0.0
C209 C 0.76003 0.96566 0.47722 0.0
C210 C 0.78272 0.95749 0.46902 0.0
C211 C 0.79977 0.97079 0.48862 0.0
C212 C 0.78668 0.98648 0.5074 0.0
N213 N 0.76198 0.02346 0.55152 0.0
C214 C 0.78631 0.01944 0.55413 0.0
C215 C 0.79915 0.03484 0.57692 0.0
C216 C 0.78205 0.04965 0.58965 0.0
C217 C 0.75964 0.04255 0.57366 0.0
N218 N 0.73474 0.98083 0.55714 0.0
C219 C 0.73195 0.94609 0.60589 0.0
C220 C 0.75407 0.95128 0.59312 0.0
C221 C 0.75508 0.96868 0.56931 0.0
C222 C 0.71129 0.95895 0.59418 0.0
C223 C 0.71306 0.97598 0.56986 0.0
N224 N 0.73862 0.02822 0.48678 0.0
C225 C 0.76201 0.05722 0.45959 0.0
C226 C 0.74087 0.06586 0.44245 0.0
C227 C 0.71872 0.05449 0.44641 0.0
C228 C 0.71802 0.03577 0.46855 0.0
C229 C 0.76049 0.03848 0.48134 0.0
H230 H 0.70056 0.02808 0.47104 0.0
H231 H 0.77722 0.03296 0.49397 0.0
H232 H 0.77253 0.97168 0.56086 0.0
H233 H 0.69656 0.9848 0.56166 0.0
C234 C 0.67681 0.006 0.51163 0.0
C235 C 0.73678 0.05478 0.58023 0.0
C236 C 0.73704 0.95503 0.46195 0.0
C237 C 0.79674 1.00257 0.53273 0.0
H238 H 0.68761 0.07066 0.58566 0.0
H239 H 0.65454 0.04434 0.54809 0.0
H240 H 0.65453 0.96904 0.46722 0.0
H241 H 0.68764 0.94153 0.44013 0.0
H242 H 0.78659 0.94324 0.4509 0.0
H243 H 0.8194 0.969 0.48942 0.0
H244 H 0.81869 0.03558 0.58298 0.0
H245 H 0.7857 0.06425 0.60832 0.0
H246 H 0.77057 0.94151 0.60071 0.0
H247 H 0.69376 0.95585 0.60351 0.0
H248 H 0.77967 0.06512 0.45658 0.0
H249 H 0.7019 0.06056 0.43343 0.0
C250 C 0.04287 0.76139 0.56356 0.0
C251 C 0.05049 0.78385 0.57795 0.0
C252 C 0.03583 0.80093 0.56311 0.0
C253 C 0.02005 0.788 0.54079 0.0
N254 N 0.02356 0.76364 0.54062 0.0
Co255 Co 0.00444 0.73817 0.51215 0.0
N256 N 0.98442 0.76351 0.48793 0.0
C257 C 0.98676 0.78798 0.49272 0.0
C258 C 0.96959 0.80086 0.47434 0.0
C259 C 0.95536 0.78369 0.4567 0.0
C260 C 0.96489 0.76108 0.46494 0.0
N261 N 0.98488 0.71268 0.48429 0.0
C262 C 0.96586 0.71492 0.46081 0.0
C263 C 0.95799 0.69234 0.44707 0.0
C264 C 0.97189 0.67526 0.46319 0.0
C265 C 0.98759 0.68826 0.4855 0.0
N266 N 0.02494 0.71289 0.53577 0.0
C267 C 0.02322 0.68846 0.5304 0.0
C268 C 0.04046 0.67573 0.54902 0.0
C269 C 0.05428 0.69305 0.56713 0.0
C270 C 0.04454 0.71544 0.55858 0.0
N271 N 0.98017 0.73715 0.54613 0.0
C272 C 0.94424 0.73598 0.59252 0.0
C273 C 0.95616 0.71473 0.58233 0.0
C274 C 0.97375 0.71569 0.55923 0.0
C275 C 0.95096 0.75777 0.57906 0.0
C276 C 0.96887 0.75798 0.55661 0.0
N277 N 0.02868 0.73922 0.47823 0.0
C278 C 0.0539 0.71878 0.43924 0.0
C279 C 0.06466 0.74082 0.4323 0.0
C280 C 0.05673 0.76205 0.44836 0.0
C281 C 0.03883 0.76088 0.47079 0.0
C282 C 0.03622 0.71838 0.46219 0.0
H283 H 0.03359 0.77778 0.48197 0.0
H284 H 0.02911 0.70094 0.4668 0.0
H285 H 0.98181 0.6988 0.55221 0.0
H286 H 0.973 0.77529 0.54781 0.0
C287 C 0.00319 0.79827 0.51774 0.0
C288 C 0.05511 0.73862 0.5718 0.0
C289 C 0.95427 0.73786 0.45118 0.0
C290 C 0.00556 0.67809 0.50713 0.0
H291 H 0.06543 0.78753 0.59679 0.0
H292 H 0.03697 0.8205 0.56741 0.0
H293 H 0.96699 0.8204 0.47491 0.0
H294 H 0.9393 0.78766 0.44053 0.0
H295 H 0.94361 0.68853 0.42751 0.0
H296 H 0.97074 0.65567 0.45905 0.0
H297 H 0.04296 0.65619 0.54895 0.0
H298 H 0.07001 0.68959 0.58426 0.0
H299 H 0.95208 0.69733 0.59212 0.0
H300 H 0.94214 0.77479 0.58516 0.0
H301 H 0.05949 0.70179 0.42761 0.0
H302 H 0.0642 0.77964 0.44347 0.0
C303 C 0.29431 0.96522 0.57117 0.0
C304 C 0.31681 0.95505 0.58056 0.0
C305 C 0.33391 0.96839 0.56675 0.0
C306 C 0.32099 0.98582 0.54955 0.0
N307 N 0.29664 0.98454 0.55161 0.0
Co308 Co 0.27133 0.00605 0.52883 0.0
N309 N 0.29657 0.02586 0.50868 0.0
C310 C 0.32102 0.02301 0.51342 0.0
C311 C 0.33396 0.03951 0.49748 0.0
C312 C 0.31679 0.05386 0.48161 0.0
C313 C 0.2942 0.04518 0.48857 0.0
N314 N 0.24591 0.02715 0.5054 0.0
C315 C 0.24812 0.04594 0.48493 0.0
C316 C 0.22545 0.05463 0.4731 0.0
C317 C 0.20839 0.04123 0.48682 0.0
C318 C 0.22146 0.02499 0.50596 0.0
N319 N 0.24604 0.98666 0.54956 0.0
C320 C 0.22167 0.99049 0.5465 0.0
C321 C 0.2088 0.97498 0.56406 0.0
C322 C 0.2259 0.96027 0.57929 0.0
C323 C 0.24837 0.96752 0.56992 0.0
N324 N 0.27358 0.02898 0.56824 0.0
C325 C 0.27646 0.06198 0.62375 0.0
C326 C 0.25402 0.05569 0.6067 0.0
C327 C 0.25301 0.03931 0.57934 0.0
C328 C 0.29748 0.05127 0.61279 0.0
C329 C 0.29563 0.0349 0.58521 0.0
N330 N 0.26917 0.98298 0.4896 0.0
C331 C 0.24536 0.95516 0.45188 0.0
C332 C 0.26637 0.94657 0.43844 0.0
C333 C 0.28869 0.95732 0.44968 0.0
C334 C 0.28967 0.97539 0.47519 0.0
C335 C 0.24714 0.97336 0.47705 0.0
H336 H 0.30727 0.98252 0.48328 0.0
H337 H 0.23047 0.97897 0.48636 0.0
H338 H 0.23536 0.03558 0.56736 0.0
H339 H 0.3123 0.02745 0.57799 0.0
C340 C 0.3312 0.00408 0.53203 0.0
C341 C 0.27129 0.95557 0.58113 0.0
C342 C 0.27112 0.05618 0.47575 0.0
C343 C 0.21133 0.00809 0.5257 0.0
H344 H 0.3205 0.93953 0.59576 0.0
H345 H 0.35346 0.96571 0.56902 0.0
H346 H 0.35356 0.04088 0.49729 0.0
H347 H 0.32051 0.06902 0.46663 0.0
H348 H 0.22157 0.06917 0.45626 0.0
H349 H 0.18877 0.04317 0.48336 0.0
H350 H 0.18925 0.97429 0.56539 0.0
H351 H 0.22219 0.94578 0.59542 0.0
H352 H 0.23724 0.06394 0.61375 0.0
H353 H 0.31528 0.05557 0.62529 0.0
H354 H 0.2276 0.9476 0.44331 0.0
H355 H 0.3054 0.95119 0.43975 0.0
C356 C 0.5392 0.8004 0.06572 0.0
C357 C 0.54567 0.82233 0.08264 0.0
C358 C 0.53057 0.83972 0.06903 0.0
C359 C 0.51563 0.82748 0.04487 0.0
N360 N 0.52036 0.80347 0.04231 0.0
Co361 Co 0.50185 0.77912 0.01199 0.0
N362 N 0.48699 0.80493 0.98366 0.0
C363 C 0.48742 0.82904 0.99143 0.0
C364 C 0.47713 0.84269 0.96634 0.0
C365 C 0.46925 0.82616 0.94139 0.0
C366 C 0.47474 0.80319 0.95296 0.0
N367 N 0.48296 0.75469 0.9821 0.0
C368 C 0.46922 0.75728 0.95283 0.0
C369 C 0.45701 0.73563 0.94269 0.0
C370 C 0.46332 0.71914 0.96615 0.0
C371 C 0.47874 0.73146 0.98947 0.0
N372 N 0.51702 0.7534 0.04023 0.0
C373 C 0.50966 0.73004 0.04012 0.0
C374 C 0.52488 0.71593 0.05985 0.0
C375 C 0.54285 0.73139 0.07358 0.0
C376 C 0.53726 0.75436 0.06203 0.0
N377 N 0.47439 0.78144 0.04013 0.0
C378 C 0.43471 0.78091 0.07958 0.0
C379 C 0.45878 0.77927 0.09392 0.0
C380 C 0.47829 0.77978 0.07388 0.0
C381 C 0.43105 0.78353 0.04519 0.0
C382 C 0.45099 0.78368 0.02601 0.0
N383 N 0.52929 0.77663 0.98393 0.0
C384 C 0.55738 0.75189 0.95456 0.0
C385 C 0.5695 0.77267 0.94544 0.0
C386 C 0.56081 0.79552 0.95577 0.0
C387 C 0.54086 0.79709 0.9751 0.0
C388 C 0.53734 0.75425 0.97351 0.0
H389 H 0.53494 0.81492 0.9831 0.0
H390 H 0.52846 0.73787 0.97989 0.0
H391 H 0.49654 0.7784 0.08572 0.0
H392 H 0.44729 0.7851 0.99961 0.0
C393 C 0.50003 0.83832 0.02078 0.0
C394 C 0.55037 0.77692 0.07392 0.0
C395 C 0.46484 0.78047 0.93624 0.0
C396 C 0.49124 0.72119 0.01688 0.0
H397 H 0.55976 0.82548 0.10279 0.0
H398 H 0.53103 0.85909 0.07523 0.0
H399 H 0.47587 0.86234 0.96598 0.0
H400 H 0.45974 0.83051 0.91782 0.0
H401 H 0.44413 0.73202 0.9213 0.0
H402 H 0.45734 0.70037 0.96617 0.0
H403 H 0.52379 0.69646 0.06257 0.0
H404 H 0.55832 0.72607 0.08999 0.0
H405 H 0.46253 0.77753 0.12047 0.0
H406 H 0.41281 0.78465 0.03289 0.0
H407 H 0.5632 0.73384 0.94682 0.0
H408 H 0.56966 0.8121 0.94953 0.0
C409 C 0.21928 0.5369 0.0756 0.0
C410 C 0.19695 0.54472 0.08552 0.0
C411 C 0.17945 0.53345 0.06418 0.0
C412 C 0.19207 0.51956 0.04252 0.0
N413 N 0.21656 0.52102 0.0489 0.0
Co414 Co 0.2418 0.5048 0.02264 0.0
N415 N 0.21603 0.48854 0.99096 0.0
C416 C 0.19161 0.48986 0.99229 0.0
C417 C 0.17855 0.47597 0.9679 0.0
C418 C 0.19567 0.46488 0.95006 0.0
C419 C 0.21824 0.47281 0.9646 0.0
N420 N 0.26703 0.48932 0.99579 0.0
C421 C 0.26434 0.47433 0.96821 0.0
C422 C 0.28664 0.46842 0.95643 0.0
C423 C 0.30411 0.47982 0.97766 0.0
C424 C 0.29152 0.4921 1.00092 0.0
N425 N 0.26756 0.52035 0.05494 0.0
C426 C 0.29199 0.5176 0.05508 0.0
C427 C 0.30501 0.53014 0.08086 0.0
C428 C 0.28788 0.54171 0.09819 0.0
C429 C 0.26534 0.53558 0.08175 0.0
N430 N 0.242 0.47567 0.0512 0.0
C431 C 0.24277 0.43481 0.09266 0.0
C432 C 0.26402 0.44339 0.08029 0.0
C433 C 0.26326 0.46356 0.05999 0.0
C434 C 0.22106 0.44717 0.08356 0.0
C435 C 0.22105 0.46718 0.06292 0.0
N436 N 0.24171 0.53389 0.99405 0.0
C437 C 0.26357 0.56578 0.96889 0.0
C438 C 0.24219 0.57414 0.95154 0.0
C439 C 0.22045 0.56201 0.95661 0.0
C440 C 0.2206 0.54229 0.97777 0.0
C441 C 0.26294 0.54594 0.9896 0.0
H442 H 0.20338 0.534 0.98043 0.0
H443 H 0.27997 0.54068 1.00178 0.0
H444 H 0.28022 0.46906 0.05181 0.0
H445 H 0.20381 0.47549 0.05673 0.0
C446 C 0.18147 0.50468 0.01632 0.0
C447 C 0.24251 0.5457 0.09162 0.0
C448 C 0.24124 0.46434 0.95316 0.0
C449 C 0.30219 0.50485 0.02912 0.0
H450 H 0.19368 0.5574 0.1059 0.0
H451 H 0.15988 0.53526 0.06432 0.0
H452 H 0.15894 0.47406 0.96369 0.0
H453 H 0.19196 0.45225 0.9289 0.0
H454 H 0.28994 0.4567 0.93504 0.0
H455 H 0.32368 0.47883 0.97669 0.0
H456 H 0.32463 0.53129 0.08592 0.0
H457 H 0.29153 0.55373 0.12004 0.0
H458 H 0.28144 0.43485 0.08669 0.0
H459 H 0.20396 0.44123 0.09192 0.0
H460 H 0.28091 0.57464 0.9669 0.0
H461 H 0.20329 0.56738 0.94388 0.0
C462 C 0.46704 0.26291 0.98305 0.0
C463 C 0.45993 0.28559 0.9719 0.0
C464 C 0.47429 0.30241 0.99015 0.0
C465 C 0.48947 0.28912 0.01107 0.0
N466 N 0.48587 0.26477 0.00704 0.0
Co467 Co 0.5046 0.23879 0.03145 0.0
N468 N 0.52378 0.26364 0.06082 0.0
C469 C 0.52062 0.28807 0.06155 0.0
C470 C 0.53605 0.30043 0.08495 0.0
C471 C 0.5501 0.28289 0.09985 0.0
C472 C 0.54256 0.26076 0.08434 0.0
N473 N 0.52418 0.21285 0.05493 0.0
C474 C 0.54388 0.21483 0.07764 0.0
C475 C 0.55337 0.19216 0.08533 0.0
C476 C 0.53925 0.17527 0.0668 0.0
C477 C 0.52214 0.18852 0.04872 0.0
N478 N 0.48455 0.21396 1.003 0.0
C479 C 0.48616 0.18947 0.00445 0.0
C480 C 0.46879 0.17706 0.98391 0.0
C481 C 0.45496 0.19466 0.96878 0.0
C482 C 0.46487 0.2169 0.98081 0.0
N483 N 0.52937 0.23936 0.99835 0.0
C484 C 0.56642 0.24006 0.95415 0.0
C485 C 0.55379 0.21858 0.95875 0.0
C486 C 0.53556 0.21861 0.9809 0.0
C487 C 0.55977 0.26125 0.97148 0.0
C488 C 0.54133 0.26054 0.99305 0.0
N489 N 0.47983 0.23824 0.06454 0.0
C490 C 0.45509 0.21617 0.10005 0.0
C491 C 0.44285 0.23746 0.10883 0.0
C492 C 0.44983 0.25919 0.09564 0.0
C493 C 0.46825 0.2592 0.07396 0.0
C494 C 0.4733 0.21694 0.07793 0.0
H495 H 0.47263 0.27641 0.06494 0.0
H496 H 0.48161 0.20001 0.07173 0.0
H497 H 0.52694 0.20155 0.98377 0.0
H498 H 0.53723 0.27738 0.00536 0.0
C499 C 0.50514 0.29898 0.03732 0.0
C500 C 0.45444 0.24032 0.97144 0.0
C501 C 0.55473 0.23774 0.09152 0.0
C502 C 0.50406 0.17871 0.02558 0.0
H503 H 0.44537 0.2896 0.95317 0.0
H504 H 0.47316 0.32204 0.9892 0.0
H505 H 0.53756 0.31994 0.08971 0.0
H506 H 0.56474 0.28609 0.11926 0.0
H507 H 0.56912 0.18819 0.10214 0.0
H508 H 0.54146 0.15569 0.06614 0.0
H509 H 0.46621 0.15753 0.98078 0.0
H510 H 0.43911 0.19142 0.95133 0.0
H511 H 0.55834 0.20167 0.94595 0.0
H512 H 0.56871 0.27845 0.96831 0.0
H513 H 0.45026 0.19887 0.10955 0.0
H514 H 0.44118 0.27625 0.10214 0.0
C515 C 0.74603 0.5469 0.06578 0.0
C516 C 0.72351 0.55726 0.0707 0.0
C517 C 0.70624 0.54291 0.05322 0.0
C518 C 0.71899 0.52483 0.03816 0.0
N519 N 0.74349 0.52677 0.04474 0.0
Co520 Co 0.76863 0.50501 0.02542 0.0
N521 N 0.74298 0.48447 0.9986 0.0
C522 C 0.71858 0.48793 0.99715 0.0
C523 C 0.70543 0.47141 0.9764 0.0
C524 C 0.72239 0.45636 0.96381 0.0
C525 C 0.74505 0.46447 0.97785 0.0
N526 N 0.7937 0.48304 0.00639 0.0
C527 C 0.79111 0.463 0.9852 0.0
C528 C 0.81355 0.45288 0.97947 0.0
C529 C 0.83088 0.46699 0.99734 0.0
C530 C 0.81816 0.48481 0.01311 0.0
N531 N 0.79424 0.52573 0.05196 0.0
C532 C 0.81866 0.52255 0.05269 0.0
C533 C 0.83184 0.53868 0.07399 0.0
C534 C 0.81491 0.55321 0.08758 0.0
C535 C 0.79218 0.54534 0.07345 0.0
N536 N 0.76734 0.48339 0.06315 0.0
C537 C 0.76524 0.4506 0.11413 0.0
C538 C 0.78756 0.45981 0.10651 0.0
C539 C 0.78821 0.476 0.08095 0.0
C540 C 0.74397 0.45864 0.09676 0.0
C541 C 0.74542 0.47506 0.07178 0.0
N542 N 0.76991 0.52671 0.9877 0.0
C543 C 0.79282 0.55018 0.95172 0.0
C544 C 0.77138 0.56065 0.93809 0.0
C545 C 0.74924 0.55318 0.94842 0.0
C546 C 0.7489 0.53615 0.97276 0.0
C547 C 0.79168 0.53336 0.97653 0.0
H548 H 0.7314 0.53129 0.9794 0.0
H549 H 0.80863 0.52638 0.98671 0.0
H550 H 0.80579 0.48194 0.07572 0.0
H551 H 0.72855 0.48048 0.05953 0.0
C552 C 0.70853 0.50665 0.01607 0.0
C553 C 0.76924 0.55705 0.08146 0.0
C554 C 0.76791 0.45254 0.97044 0.0
C555 C 0.82861 0.50341 0.03441 0.0
H556 H 0.71977 0.57372 0.08501 0.0
H557 H 0.6867 0.54567 0.05111 0.0
H558 H 0.68582 0.47039 0.9711 0.0
H559 H 0.71846 0.44113 0.94623 0.0
H560 H 0.81706 0.43681 0.96417 0.0
H561 H 0.85045 0.46447 0.99884 0.0
H562 H 0.85144 0.53949 0.07946 0.0
H563 H 0.81897 0.5678 0.10611 0.0
H564 H 0.80449 0.45389 0.1194 0.0
H565 H 0.72626 0.45209 0.10226 0.0
H566 H 0.81036 0.55557 0.94416 0.0
H567 H 0.73219 0.56073 0.93801 0.0
C568 C 0.17326 0.23523 0.34684 0.0
C569 C 0.19487 0.24895 0.35023 0.0
C570 C 0.15304 0.24239 0.36372 0.0
C571 C 0.15452 0.26368 0.38493 0.0
C572 C 0.17589 0.2783 0.3871 0.0
C573 C 0.19582 0.2708 0.36955 0.0
C574 C 0.13057 0.22638 0.36028 0.0
C575 C 0.17828 0.30105 0.40949 0.0
C576 C 0.09473 0.2859 0.4167 0.0
C577 C 0.09488 0.27411 0.4468 0.0
C578 C 0.11437 0.28341 0.39669 0.0
C579 C 0.13473 0.26899 0.40723 0.0
C580 C 0.13537 0.25795 0.4383 0.0
C581 C 0.11545 0.26056 0.45757 0.0
C582 C 0.11289 0.29534 0.36368 0.0
C583 C 0.15678 0.24265 0.45074 0.0
H584 H 0.1725 0.21835 0.33178 0.0
H585 H 0.2126 0.28132 0.37239 0.0
H586 H 0.1287 0.21753 0.38406 0.0
H587 H 0.11397 0.23748 0.35486 0.0
H588 H 0.13133 0.21194 0.34026 0.0
H589 H 0.19467 0.31193 0.40536 0.0
H590 H 0.16187 0.31263 0.40549 0.0
H591 H 0.17967 0.29594 0.43584 0.0
H592 H 0.07884 0.2963 0.40817 0.0
H593 H 0.11583 0.25172 0.48106 0.0
H594 H 0.11125 0.28111 0.34322 0.0
H595 H 0.1298 0.30582 0.36116 0.0
H596 H 0.09701 0.30776 0.36048 0.0
H597 H 0.15797 0.22614 0.43411 0.0
H598 H 0.15528 0.23681 0.47644 0.0
H599 H 0.17405 0.25298 0.45028 0.0
C600 C 0.74282 0.19021 0.34683 0.0
C601 C 0.7642 0.1904 0.33041 0.0
C602 C 0.73576 0.16926 0.36215 0.0
C603 C 0.75048 0.14816 0.36089 0.0
C604 C 0.7712 0.14783 0.3425 0.0
C605 C 0.77783 0.169 0.32751 0.0
C606 C 0.71351 0.17023 0.38149 0.0
C607 C 0.78726 0.12562 0.34041 0.0
C608 C 0.75583 0.10765 0.43416 0.0
C609 C 0.74202 0.08729 0.4218 0.0
C610 C 0.75812 0.12783 0.41482 0.0
C611 C 0.74626 0.12765 0.38228 0.0
C612 C 0.73169 0.10746 0.36992 0.0
C613 C 0.7297 0.08744 0.38993 0.0
C614 C 0.7737 0.14912 0.42896 0.0
C615 C 0.71882 0.10672 0.33534 0.0
H616 H 0.73232 0.2068 0.34916 0.0
H617 H 0.79416 0.16909 0.31435 0.0
H618 H 0.7021 0.15369 0.37574 0.0
H619 H 0.71932 0.17075 0.40851 0.0
H620 H 0.70219 0.18656 0.37609 0.0
H621 H 0.80099 0.12741 0.3221 0.0
H622 H 0.79704 0.12284 0.36516 0.0
H623 H 0.77608 0.10909 0.33341 0.0
H624 H 0.76494 0.10776 0.45908 0.0
H625 H 0.71904 0.07167 0.38035 0.0
H626 H 0.76301 0.16622 0.42773 0.0
H627 H 0.78942 0.15131 0.41394 0.0
H628 H 0.78082 0.14678 0.45521 0.0
H629 H 0.70781 0.12344 0.33152 0.0
H630 H 0.70667 0.09058 0.33047 0.0
H631 H 0.73249 0.10622 0.31673 0.0
C632 C 0.82368 0.77012 0.37284 0.0
C633 C 0.81613 0.76123 0.34034 0.0
C634 C 0.84642 0.76409 0.38871 0.0
C635 C 0.86138 0.74687 0.3732 0.0
C636 C 0.85307 0.7361 0.34166 0.0
C637 C 0.83097 0.74393 0.32522 0.0
C638 C 0.85456 0.77683 0.42177 0.0
C639 C 0.86742 0.71662 0.32455 0.0
C640 C 0.92951 0.75022 0.39922 0.0
C641 C 0.93111 0.73758 0.42868 0.0
C642 C 0.90703 0.753 0.38043 0.0
C643 C 0.88596 0.74119 0.38984 0.0
C644 C 0.88812 0.72621 0.41761 0.0
C645 C 0.91042 0.72531 0.43734 0.0
C646 C 0.90571 0.76954 0.3515 0.0
C647 C 0.86689 0.71156 0.42732 0.0
H648 H 0.81207 0.78236 0.386 0.0
H649 H 0.82571 0.7367 0.30025 0.0
H650 H 0.85282 0.76422 0.44206 0.0
H651 H 0.87396 0.78257 0.42268 0.0
H652 H 0.84337 0.79319 0.42681 0.0
H653 H 0.8549 0.70269 0.31163 0.0
H654 H 0.87745 0.72494 0.30524 0.0
H655 H 0.88067 0.70736 0.34201 0.0
H656 H 0.94567 0.7591 0.39192 0.0
H657 H 0.91159 0.71515 0.45982 0.0
H658 H 0.89058 0.78276 0.35332 0.0
H659 H 0.90201 0.75855 0.32793 0.0
H660 H 0.92295 0.77983 0.35025 0.0
H661 H 0.85755 0.72205 0.44653 0.0
H662 H 0.87333 0.6943 0.43834 0.0
H663 H 0.85344 0.7071 0.40578 0.0
C664 C 0.22812 0.84245 0.30383 0.0
C665 C 0.24289 0.82179 0.30678 0.0
C666 C 0.23471 0.86421 0.32168 0.0
C667 C 0.25643 0.86511 0.34323 0.0
C668 C 0.27226 0.8448 0.34448 0.0
C669 C 0.26531 0.82331 0.32607 0.0
C670 C 0.21751 0.8856 0.31936 0.0
C671 C 0.29552 0.84507 0.36728 0.0
C672 C 0.27607 0.92629 0.38446 0.0
C673 C 0.26494 0.92557 0.41428 0.0
C674 C 0.27385 0.90655 0.36107 0.0
C675 C 0.26046 0.88569 0.36807 0.0
C676 C 0.24982 0.88469 0.39861 0.0
C677 C 0.25211 0.9047 0.42127 0.0
C678 C 0.28525 0.90823 0.32863 0.0
C679 C 0.23564 0.86262 0.40719 0.0
H680 H 0.21091 0.84125 0.28855 0.0
H681 H 0.27667 0.80725 0.32839 0.0
H682 H 0.20821 0.8877 0.34258 0.0
H683 H 0.2277 0.90271 0.3167 0.0
H684 H 0.20337 0.88321 0.29808 0.0
H685 H 0.30752 0.82946 0.36152 0.0
H686 H 0.30578 0.86226 0.36552 0.0
H687 H 0.29097 0.84404 0.39339 0.0
H688 H 0.28596 0.94251 0.37913 0.0
H689 H 0.24389 0.90403 0.44463 0.0
H690 H 0.27073 0.90808 0.30775 0.0
H691 H 0.29702 0.8922 0.32443 0.0
H692 H 0.29635 0.92505 0.32792 0.0
H693 H 0.21937 0.85989 0.38915 0.0
H694 H 0.22946 0.8644 0.43262 0.0
H695 H 0.24703 0.84604 0.40542 0.0
C696 C 0.16966 0.78138 0.69085 0.0
C697 C 0.1895 0.76531 0.69336 0.0
C698 C 0.14762 0.77474 0.67257 0.0
C699 C 0.14521 0.75137 0.65637 0.0
C700 C 0.16475 0.73461 0.66009 0.0
C701 C 0.1867 0.74177 0.67859 0.0
C702 C 0.12726 0.79316 0.66949 0.0
C703 C 0.16286 0.70949 0.64336 0.0
C704 C 0.08016 0.73253 0.62577 0.0
C705 C 0.07881 0.73938 0.5927 0.0
C706 C 0.10199 0.73531 0.6465 0.0
C707 C 0.12283 0.74534 0.63384 0.0
C708 C 0.12162 0.75159 0.60007 0.0
C709 C 0.0996 0.74853 0.57993 0.0
C710 C 0.10249 0.7284 0.68226 0.0
C711 C 0.14331 0.76241 0.58554 0.0
H712 H 0.17162 0.79948 0.70262 0.0
H713 H 0.20199 0.72933 0.6803 0.0
H714 H 0.12389 0.79821 0.64321 0.0
H715 H 0.11011 0.78518 0.67675 0.0
H716 H 0.13151 0.81 0.68517 0.0
H717 H 0.17862 0.69784 0.65125 0.0
H718 H 0.14581 0.70036 0.64895 0.0
H719 H 0.16204 0.711 0.61599 0.0
H720 H 0.06395 0.72558 0.63557 0.0
H721 H 0.0984 0.75387 0.55433 0.0
H722 H 0.10448 0.74505 0.69886 0.0
H723 H 0.11843 0.71662 0.68874 0.0
H724 H 0.08562 0.71868 0.68737 0.0
H725 H 0.14775 0.7805 0.59791 0.0
H726 H 0.1399 0.7647 0.55835 0.0
H727 H 0.15955 0.75067 0.59011 0.0
C728 C 0.24234 0.18435 0.69693 0.0
C729 C 0.24905 0.19249 0.72982 0.0
C730 C 0.25033 0.16193 0.68446 0.0
C731 C 0.26579 0.14736 0.70523 0.0
C732 C 0.27337 0.15576 0.73814 0.0
C733 C 0.26479 0.17826 0.75016 0.0
C734 C 0.24183 0.15366 0.64913 0.0
C735 C 0.29009 0.14081 0.76077 0.0
C736 C 0.25976 0.08217 0.67345 0.0
C737 C 0.27771 0.0811 0.65089 0.0
C738 C 0.25712 0.10299 0.69406 0.0
C739 C 0.27298 0.12304 0.69219 0.0
C740 C 0.29284 0.12095 0.67228 0.0
C741 C 0.29491 0.09999 0.65164 0.0
C742 C 0.23577 0.10444 0.7151 0.0
C743 C 0.31045 0.14176 0.67019 0.0
H744 H 0.2307 0.19558 0.68085 0.0
H745 H 0.27 0.1845 0.77563 0.0
H746 H 0.25776 0.15028 0.63459 0.0
H747 H 0.23157 0.13627 0.64903 0.0
H748 H 0.22987 0.16726 0.63631 0.0
H749 H 0.29653 0.15114 0.78417 0.0
H750 H 0.28033 0.12426 0.76724 0.0
H751 H 0.30617 0.13465 0.74797 0.0
H752 H 0.24684 0.06729 0.67357 0.0
H753 H 0.30889 0.09926 0.63435 0.0
H754 H 0.22143 0.11614 0.7031 0.0
H755 H 0.24133 0.11283 0.74009 0.0
H756 H 0.22771 0.08622 0.71806 0.0
H757 H 0.3017 0.1557 0.65409 0.0
H758 H 0.32742 0.1356 0.65944 0.0
H759 H 0.31533 0.15063 0.6951 0.0
C760 C 0.80896 0.25165 0.66844 0.0
C761 C 0.80741 0.25617 0.70268 0.0
C762 C 0.83001 0.25755 0.65327 0.0
C763 C 0.84993 0.26889 0.67254 0.0
C764 C 0.8478 0.27526 0.70657 0.0
C765 C 0.82662 0.26868 0.72132 0.0
C766 C 0.83142 0.25029 0.61699 0.0
C767 C 0.86836 0.28794 0.72778 0.0
C768 C 0.91192 0.25461 0.64179 0.0
C769 C 0.91582 0.27454 0.62229 0.0
C770 C 0.89095 0.25295 0.65903 0.0
C771 C 0.87356 0.27195 0.65754 0.0
C772 C 0.87792 0.29272 0.63939 0.0
C773 C 0.89881 0.29366 0.62172 0.0
C774 C 0.88697 0.23034 0.67781 0.0
C775 C 0.8601 0.3136 0.63769 0.0
H776 H 0.79396 0.24255 0.65364 0.0
H777 H 0.82561 0.27227 0.74775 0.0
H778 H 0.83664 0.26616 0.60313 0.0
H779 H 0.84574 0.23625 0.6146 0.0
H780 H 0.81387 0.24281 0.60505 0.0
H781 H 0.86257 0.29485 0.75211 0.0
H782 H 0.88364 0.27503 0.73249 0.0
H783 H 0.87542 0.30342 0.71469 0.0
H784 H 0.92516 0.24003 0.64335 0.0
H785 H 0.90135 0.30909 0.60663 0.0
H786 H 0.87032 0.22066 0.66662 0.0
H787 H 0.88401 0.23537 0.70403 0.0
H788 H 0.90261 0.21758 0.67753 0.0
H789 H 0.84314 0.30778 0.62255 0.0
H790 H 0.86764 0.32972 0.62642 0.0
H791 H 0.85502 0.31908 0.66292 0.0
C792 C 0.75286 0.81835 0.66844 0.0
C793 C 0.7504 0.81319 0.70164 0.0
C794 C 0.74606 0.84095 0.65617 0.0
C795 C 0.73573 0.85859 0.67729 0.0
C796 C 0.7313 0.85283 0.71 0.0
C797 C 0.73899 0.83023 0.72199 0.0
C798 C 0.75125 0.84638 0.62112 0.0
C799 C 0.71951 0.87086 0.73283 0.0
C800 C 0.75023 0.92191 0.65284 0.0
C801 C 0.73046 0.92631 0.62955 0.0
C802 C 0.7514 0.90058 0.67055 0.0
C803 C 0.73194 0.88362 0.66564 0.0
C804 C 0.71075 0.88921 0.64506 0.0
C805 C 0.71038 0.91035 0.62683 0.0
C806 C 0.77442 0.89525 0.69218 0.0
C807 C 0.68922 0.87201 0.6403 0.0
H808 H 0.76091 0.80493 0.65225 0.0
H809 H 0.73694 0.82635 0.74766 0.0
H810 H 0.7343 0.85204 0.60665 0.0
H811 H 0.76444 0.8617 0.62176 0.0
H812 H 0.75893 0.83044 0.60778 0.0
H813 H 0.71253 0.86188 0.7542 0.0
H814 H 0.73312 0.88483 0.74277 0.0
H815 H 0.70423 0.88042 0.71919 0.0
H816 H 0.76543 0.93459 0.65605 0.0
H817 H 0.69493 0.91352 0.60903 0.0
H818 H 0.78426 0.87995 0.68047 0.0
H819 H 0.76998 0.88955 0.71691 0.0
H820 H 0.78688 0.91124 0.69575 0.0
H821 H 0.69333 0.85666 0.62292 0.0
H822 H 0.6725 0.88122 0.62977 0.0
H823 H 0.68551 0.86423 0.66422 0.0
C824 C 0.8366 0.74181 0.71942 0.0
C825 C 0.81667 0.75196 0.70081 0.0
C826 C 0.85834 0.73589 0.70469 0.0
C827 C 0.86033 0.74062 0.67077 0.0
C828 C 0.83989 0.74987 0.65168 0.0
C829 C 0.81835 0.75497 0.6667 0.0
C830 C 0.87942 0.72531 0.72568 0.0
C831 C 0.84105 0.75544 0.61556 0.0
C832 C 0.92077 0.75597 0.63742 0.0
C833 C 0.92451 0.73564 0.61604 0.0
C834 C 0.90062 0.75733 0.65653 0.0
C835 C 0.88399 0.73757 0.6553 0.0
C836 C 0.88859 0.71626 0.63578 0.0
C837 C 0.90852 0.71567 0.6161 0.0
C838 C 0.89637 0.78056 0.67657 0.0
C839 C 0.87178 0.69448 0.63442 0.0
H840 H 0.83554 0.73926 0.74568 0.0
H841 H 0.80284 0.76202 0.65172 0.0
H842 H 0.88728 0.70956 0.7122 0.0
H843 H 0.89404 0.7392 0.73083 0.0
H844 H 0.87388 0.71929 0.7498 0.0
H845 H 0.82345 0.76236 0.60408 0.0
H846 H 0.85538 0.76934 0.61338 0.0
H847 H 0.84607 0.73886 0.60108 0.0
H848 H 0.93332 0.77123 0.63874 0.0
H849 H 0.91091 0.69983 0.59979 0.0
H850 H 0.89372 0.77652 0.70264 0.0
H851 H 0.87947 0.78943 0.66605 0.0
H852 H 0.91173 0.79368 0.67664 0.0
H853 H 0.86703 0.69043 0.65972 0.0
H854 H 0.88006 0.678 0.62315 0.0
H855 H 0.85456 0.69849 0.61931 0.0
C856 C 0.23657 0.84962 0.6986 0.0
C857 C 0.25295 0.82999 0.70111 0.0
C858 C 0.24149 0.87041 0.68103 0.0
C859 C 0.2634 0.87192 0.66522 0.0
C860 C 0.28062 0.85273 0.66907 0.0
C861 C 0.27523 0.83207 0.68696 0.0
C862 C 0.22259 0.89029 0.6781 0.0
C863 C 0.30425 0.85345 0.65289 0.0
C864 C 0.26036 0.91162 0.5891 0.0
C865 C 0.27095 0.9336 0.60226 0.0
C866 C 0.25846 0.89132 0.60899 0.0
C867 C 0.26736 0.89284 0.64311 0.0
C868 C 0.2786 0.91489 0.6563 0.0
C869 C 0.28022 0.93493 0.63579 0.0
C870 C 0.24632 0.86839 0.59361 0.0
C871 C 0.28837 0.91753 0.69234 0.0
H872 H 0.21932 0.84827 0.70945 0.0
H873 H 0.2879 0.81697 0.68834 0.0
H874 H 0.23105 0.90824 0.68559 0.0
H875 H 0.21502 0.89117 0.6518 0.0
H876 H 0.2073 0.88727 0.69366 0.0
H877 H 0.31675 0.8385 0.66079 0.0
H878 H 0.30037 0.8518 0.62547 0.0
H879 H 0.31367 0.87115 0.65898 0.0
H880 H 0.25318 0.91046 0.56322 0.0
H881 H 0.28835 0.95188 0.64615 0.0
H882 H 0.22943 0.86483 0.60572 0.0
H883 H 0.25853 0.85255 0.59776 0.0
H884 H 0.24148 0.8696 0.56646 0.0
H885 H 0.27311 0.91641 0.7084 0.0
H886 H 0.29809 0.93512 0.6983 0.0
H887 H 0.30105 0.90241 0.69867 0.0
C888 C 0.16761 0.2716 0.73716 0.0
C889 C 0.18175 0.25278 0.72393 0.0
C890 C 0.14543 0.27886 0.72027 0.0
C891 C 0.1364 0.26615 0.69043 0.0
C892 C 0.15017 0.24686 0.67739 0.0
C893 C 0.17289 0.24116 0.69343 0.0
C894 C 0.13189 0.30039 0.73404 0.0
C895 C 0.14104 0.23221 0.64617 0.0
C896 C 0.06952 0.26519 0.65782 0.0
C897 C 0.07042 0.27687 0.62783 0.0
C898 C 0.09069 0.26237 0.67941 0.0
C899 C 0.11291 0.27297 0.6719 0.0
C900 C 0.11321 0.28705 0.64341 0.0
C901 C 0.09216 0.28822 0.62123 0.0
C902 C 0.08967 0.24625 0.70852 0.0
C903 C 0.1361 0.29981 0.63535 0.0
H904 H 0.17372 0.28083 0.76062 0.0
H905 H 0.18376 0.22756 0.68141 0.0
H906 H 0.12795 0.31375 0.71448 0.0
H907 H 0.11413 0.29438 0.74185 0.0
H908 H 0.14237 0.30971 0.75574 0.0
H909 H 0.15233 0.21579 0.64189 0.0
H910 H 0.1219 0.22627 0.64763 0.0
H911 H 0.14134 0.24361 0.62428 0.0
H912 H 0.05254 0.2569 0.66331 0.0
H913 H 0.09286 0.29756 0.59826 0.0
H914 H 0.09871 0.25513 0.73151 0.0
H915 H 0.09967 0.22912 0.70352 0.0
H916 H 0.07064 0.24151 0.71298 0.0
H917 H 0.14581 0.30836 0.65819 0.0
H918 H 0.13204 0.31406 0.61704 0.0
H919 H 0.14861 0.28639 0.62463 0.0
C920 C 0.77083 0.16654 0.71014 0.0
C921 C 0.75324 0.18506 0.71056 0.0
C922 C 0.76647 0.1446 0.69109 0.0
C923 C 0.744 0.14096 0.67145 0.0
C924 C 0.72568 0.15909 0.67313 0.0
C925 C 0.73048 0.18085 0.69269 0.0
C926 C 0.78651 0.12586 0.6906 0.0
C927 C 0.70149 0.15614 0.6527 0.0
C928 C 0.74653 0.0992 0.59322 0.0
C929 C 0.73721 0.07719 0.60309 0.0
C930 C 0.74824 0.12013 0.61487 0.0
C931 C 0.74058 0.11913 0.64744 0.0
C932 C 0.73082 0.09694 0.6573 0.0
C933 C 0.72924 0.0763 0.63504 0.0
C934 C 0.7587 0.14325 0.60303 0.0
C935 C 0.72256 0.09485 0.69167 0.0
H936 H 0.78853 0.16973 0.72365 0.0
H937 H 0.71697 0.19521 0.69237 0.0
H938 H 0.77931 0.10758 0.69518 0.0
H939 H 0.79356 0.12478 0.66569 0.0
H940 H 0.80196 0.1303 0.7095 0.0
H941 H 0.68828 0.17049 0.65924 0.0
H942 H 0.7043 0.1571 0.62593 0.0
H943 H 0.69341 0.13804 0.65618 0.0
H944 H 0.75274 0.09992 0.56856 0.0
H945 H 0.72213 0.05926 0.64279 0.0
H946 H 0.7758 0.14819 0.6185 0.0
H947 H 0.74573 0.1585 0.60589 0.0
H948 H 0.76276 0.14144 0.57659 0.0
H949 H 0.73835 0.09768 0.71051 0.0
H950 H 0.71428 0.07679 0.69503 0.0
H951 H 0.70904 0.10923 0.69663 0.0
C952 C 0.8355 0.27381 0.34553 0.0
C953 C 0.83182 0.25024 0.33113 0.0
C954 C 0.85739 0.28017 0.36459 0.0
C955 C 0.87599 0.26252 0.36938 0.0
C956 C 0.87301 0.23926 0.35298 0.0
C957 C 0.85101 0.23344 0.334 0.0
C958 C 0.85994 0.30524 0.38138 0.0
C959 C 0.89241 0.21993 0.35721 0.0
C960 C 0.93983 0.27935 0.40797 0.0
C961 C 0.93844 0.27295 0.4409 0.0
C962 C 0.91945 0.27674 0.38448 0.0
C963 C 0.89733 0.26732 0.39424 0.0
C964 C 0.89585 0.26128 0.42775 0.0
C965 C 0.91644 0.26419 0.45066 0.0
C966 C 0.92174 0.28348 0.34911 0.0
C967 C 0.8727 0.2511 0.43923 0.0
H968 H 0.82071 0.28685 0.34362 0.0
H969 H 0.84841 0.2153 0.32251 0.0
H970 H 0.85873 0.30389 0.4085 0.0
H971 H 0.87801 0.31323 0.37799 0.0
H972 H 0.84548 0.31781 0.37165 0.0
H973 H 0.88834 0.20368 0.34026 0.0
H974 H 0.91046 0.22735 0.35251 0.0
H975 H 0.89382 0.21404 0.38321 0.0
H976 H 0.957 0.28597 0.40053 0.0
H977 H 0.91554 0.25919 0.47618 0.0
H978 H 0.90691 0.29611 0.34091 0.0
H979 H 0.91979 0.2669 0.33236 0.0
H980 H 0.93957 0.2922 0.3461 0.0
H981 H 0.85728 0.26366 0.43348 0.0
H982 H 0.8743 0.24814 0.46635 0.0
H983 H 0.86811 0.23345 0.42568 0.0
C984 C 0.77285 0.8484 0.33399 0.0
C985 C 0.75614 0.82894 0.3288 0.0
C986 C 0.76782 0.86948 0.35335 0.0
C987 C 0.7454 0.87151 0.36803 0.0
C988 C 0.7278 0.85262 0.36116 0.0
C989 C 0.73336 0.83161 0.3417 0.0
C990 C 0.78717 0.88903 0.35962 0.0
C991 C 0.70356 0.85398 0.37587 0.0
C992 C 0.74686 0.9109 0.449 0.0
C993 C 0.73742 0.93315 0.43808 0.0
C994 C 0.74897 0.89065 0.42668 0.0
C995 C 0.74133 0.89248 0.39239 0.0
C996 C 0.73116 0.91478 0.38141 0.0
C997 C 0.72943 0.93482 0.40429 0.0
C998 C 0.76003 0.86745 0.43973 0.0
C999 C 0.72262 0.91767 0.34531 0.0
H1000 H 0.79045 0.84663 0.32402 0.0
H1001 H 0.72041 0.81667 0.33821 0.0
H1002 H 0.77935 0.90712 0.35391 0.0
H1003 H 0.79404 0.88983 0.3863 0.0
H1004 H 0.80285 0.88566 0.34452 0.0
H1005 H 0.69081 0.83942 0.36521 0.0
H1006 H 0.70644 0.85212 0.40315 0.0
H1007 H 0.69492 0.87195 0.37162 0.0
H1008 H 0.75303 0.9095 0.47507 0.0
H1009 H 0.72221 0.95199 0.39569 0.0
H1010 H 0.77716 0.86344 0.42801 0.0
H1011 H 0.7474 0.85192 0.43304 0.0
H1012 H 0.7642 0.86859 0.46715 0.0
H1013 H 0.73842 0.91629 0.33008 0.0
H1014 H 0.7135 0.93543 0.34109 0.0
H1015 H 0.70974 0.90279 0.33629 0.0
C1016 C 0.15847 0.77213 0.30024 0.0
C1017 C 0.17952 0.75768 0.30238 0.0
C1018 C 0.13865 0.76717 0.31861 0.0
C1019 C 0.13998 0.74747 0.34013 0.0
C1020 C 0.16062 0.73196 0.34088 0.0
C1021 C 0.18009 0.73718 0.32185 0.0
C1022 C 0.11692 0.78398 0.31652 0.0
C1023 C 0.16292 0.71084 0.36354 0.0
C1024 C 0.1051 0.75615 0.41724 0.0
C1025 C 0.08421 0.74174 0.40892 0.0
C1026 C 0.12352 0.75769 0.39541 0.0
C1027 C 0.121 0.74471 0.36415 0.0
C1028 C 0.10006 0.72995 0.35569 0.0
C1029 C 0.08201 0.72852 0.37822 0.0
C1030 C 0.14563 0.77343 0.40572 0.0
C1031 C 0.09649 0.71606 0.32254 0.0
H1032 H 0.158 0.78804 0.28526 0.0
H1033 H 0.19646 0.72617 0.32394 0.0
H1034 H 0.0997 0.77331 0.31301 0.0
H1035 H 0.11667 0.79501 0.34016 0.0
H1036 H 0.11734 0.79657 0.29583 0.0
H1037 H 0.17859 0.69891 0.35846 0.0
H1038 H 0.16553 0.7179 0.38978 0.0
H1039 H 0.14599 0.69971 0.36084 0.0
H1040 H 0.10715 0.76613 0.44108 0.0
H1041 H 0.06585 0.71749 0.37147 0.0
H1042 H 0.14658 0.78839 0.38835 0.0
H1043 H 0.1625 0.76251 0.40442 0.0
H1044 H 0.14532 0.78156 0.43136 0.0
H1045 H 0.0953 0.72903 0.30219 0.0
H1046 H 0.07968 0.70469 0.32016 0.0
H1047 H 0.11238 0.70412 0.319 0.0
C1048 C 0.23628 0.16203 0.3499 0.0
C1049 C 0.25365 0.18076 0.34938 0.0
C1050 C 0.24092 0.14125 0.3687 0.0
C1051 C 0.26359 0.1388 0.38783 0.0
C1052 C 0.28173 0.15701 0.38603 0.0
C1053 C 0.27658 0.1777 0.36687 0.0
C1054 C 0.22098 0.12245 0.36937 0.0
C1055 C 0.3062 0.15528 0.40572 0.0
C1056 C 0.26224 0.10049 0.46494 0.0
C1057 C 0.27083 0.07779 0.45382 0.0
C1058 C 0.26043 0.12053 0.44413 0.0
C1059 C 0.26747 0.11804 0.41115 0.0
C1060 C 0.27674 0.09524 0.40011 0.0
C1061 C 0.27825 0.07546 0.42145 0.0
C1062 C 0.25039 0.14427 0.45724 0.0
C1063 C 0.28454 0.09155 0.36539 0.0
H1064 H 0.2185 0.16415 0.33652 0.0
H1065 H 0.29003 0.19213 0.36709 0.0
H1066 H 0.22805 0.10399 0.36355 0.0
H1067 H 0.21467 0.12237 0.39469 0.0
H1068 H 0.20506 0.12604 0.35141 0.0
H1069 H 0.3192 0.16936 0.39914 0.0
H1070 H 0.30382 0.1576 0.43265 0.0
H1071 H 0.31428 0.13702 0.4015 0.0
H1072 H 0.25652 0.10245 0.48992 0.0
H1073 H 0.28486 0.05797 0.41264 0.0
H1074 H 0.23309 0.14858 0.44247 0.0
H1075 H 0.26337 0.15934 0.45452 0.0
H1076 H 0.2468 0.14369 0.48381 0.0
H1077 H 0.26849 0.09325 0.347 0.0
H1078 H 0.29294 0.07341 0.36126 0.0
H1079 H 0.29781 0.10586 0.3605 0.0
C1080 C 0.69349 0.76597 0.85082 0.0
C1081 C 0.69109 0.74689 0.82652 0.0
C1082 C 0.67394 0.77244 0.86979 0.0
C1083 C 0.65138 0.75975 0.86398 0.0
C1084 C 0.64862 0.74131 0.83825 0.0
C1085 C 0.66852 0.73497 0.82012 0.0
C1086 C 0.67781 0.79201 0.89715 0.0
C1087 C 0.62489 0.72754 0.8307 0.0
C1088 C 0.60937 0.75325 0.93335 0.0
C1089 C 0.59108 0.77037 0.92545 0.0
C1090 C 0.62941 0.75022 0.91421 0.0
C1091 C 0.6312 0.76442 0.88609 0.0
C1092 C 0.61298 0.78201 0.87826 0.0
C1093 C 0.59327 0.78488 0.89813 0.0
C1094 C 0.64851 0.73148 0.92383 0.0
C1095 C 0.61394 0.79731 0.84832 0.0
H1096 H 0.711 0.775 0.85608 0.0
H1097 H 0.66665 0.7202 0.80136 0.0
H1098 H 0.66299 0.80568 0.89494 0.0
H1099 H 0.67719 0.78377 0.92162 0.0
H1100 H 0.69561 0.80149 0.8968 0.0
H1101 H 0.625 0.71529 0.80809 0.0
H1102 H 0.62146 0.71638 0.85202 0.0
H1103 H 0.60947 0.74045 0.82716 0.0
H1104 H 0.60804 0.74221 0.95468 0.0
H1105 H 0.57915 0.79804 0.89168 0.0
H1106 H 0.66689 0.74001 0.92657 0.0
H1107 H 0.64859 0.71692 0.9039 0.0
H1108 H 0.64528 0.72295 0.94747 0.0
H1109 H 0.63175 0.80688 0.84928 0.0
H1110 H 0.59912 0.81103 0.84653 0.0
H1111 H 0.61234 0.78537 0.82534 0.0
C1112 C 0.26317 0.70056 0.86652 0.0
C1113 C 0.25771 0.70075 0.83184 0.0
C1114 C 0.25833 0.68013 0.88475 0.0
C1115 C 0.24746 0.65902 0.86825 0.0
C1116 C 0.24058 0.65954 0.8335 0.0
C1117 C 0.2458 0.68033 0.81571 0.0
C1118 C 0.26604 0.68076 0.92158 0.0
C1119 C 0.22867 0.63769 0.8148 0.0
C1120 C 0.26299 0.59903 0.91045 0.0
C1121 C 0.24274 0.59522 0.92863 0.0
C1122 C 0.26438 0.61917 0.89013 0.0
C1123 C 0.24495 0.63613 0.88723 0.0
C1124 C 0.22412 0.63206 0.90462 0.0
C1125 C 0.2233 0.61187 0.92507 0.0
C1126 C 0.28704 0.6226 0.87234 0.0
C1127 C 0.20287 0.64944 0.90232 0.0
H1128 H 0.27226 0.71626 0.87932 0.0
H1129 H 0.24165 0.68013 0.78898 0.0
H1130 H 0.25052 0.67569 0.93563 0.0
H1131 H 0.2807 0.66722 0.92672 0.0
H1132 H 0.27291 0.69899 0.93113 0.0
H1133 H 0.2219 0.64178 0.78894 0.0
H1134 H 0.24203 0.62261 0.81385 0.0
H1135 H 0.21318 0.63114 0.82786 0.0
H1136 H 0.27795 0.58622 0.91204 0.0
H1137 H 0.20759 0.60955 0.93899 0.0
H1138 H 0.29633 0.63981 0.88165 0.0
H1139 H 0.28207 0.62416 0.84531 0.0
H1140 H 0.30012 0.60735 0.87589 0.0
H1141 H 0.20859 0.66733 0.91429 0.0
H1142 H 0.18709 0.64263 0.9146 0.0
H1143 H 0.1969 0.65252 0.8759 0.0
C1144 C 0.32214 0.24742 0.8678 0.0
C1145 C 0.32117 0.27001 0.85281 0.0
C1146 C 0.34346 0.23986 0.88633 0.0
C1147 C 0.36419 0.25536 0.89028 0.0
C1148 C 0.36348 0.27789 0.8746 0.0
C1149 C 0.34214 0.2848 0.85587 0.0
C1150 C 0.34364 0.21556 0.90231 0.0
C1151 C 0.38511 0.29504 0.87826 0.0
C1152 C 0.41057 0.25239 0.96539 0.0
C1153 C 0.4305 0.24158 0.95132 0.0
C1154 C 0.38855 0.25618 0.94605 0.0
C1155 C 0.38637 0.24873 0.91188 0.0
C1156 C 0.4062 0.23687 0.89792 0.0
C1157 C 0.42815 0.23366 0.91777 0.0
C1158 C 0.36802 0.26917 0.96185 0.0
C1159 C 0.40453 0.22839 0.86175 0.0
H1160 H 0.30604 0.23593 0.86585 0.0
H1161 H 0.34179 0.30203 0.8438 0.0
H1162 H 0.35965 0.20475 0.89561 0.0
H1163 H 0.34531 0.21843 0.92977 0.0
H1164 H 0.3268 0.20482 0.89474 0.0
H1165 H 0.3817 0.31177 0.86414 0.0
H1166 H 0.38955 0.30049 0.90489 0.0
H1167 H 0.40138 0.28575 0.86943 0.0
H1168 H 0.41253 0.25856 0.99136 0.0
H1169 H 0.4437 0.22546 0.90693 0.0
H1170 H 0.3509 0.25844 0.9572 0.0
H1171 H 0.36473 0.28701 0.95047 0.0
H1172 H 0.37206 0.2724 0.98912 0.0
H1173 H 0.38765 0.21754 0.85522 0.0
H1174 H 0.42048 0.21719 0.85565 0.0
H1175 H 0.40355 0.24441 0.84593 0.0
C1176 C 0.73196 0.34226 0.84009 0.0
C1177 C 0.74813 0.32244 0.8402 0.0
C1178 C 0.73725 0.36366 0.8599 0.0
C1179 C 0.7594 0.36564 0.88056 0.0
C1180 C 0.77646 0.34623 0.87945 0.0
C1181 C 0.77063 0.32489 0.85932 0.0
C1182 C 0.71848 0.38371 0.85989 0.0
C1183 C 0.80038 0.34754 0.90074 0.0
C1184 C 0.77624 0.4299 0.91663 0.0
C1185 C 0.7674 0.42976 0.94815 0.0
C1186 C 0.77464 0.40898 0.89487 0.0
C1187 C 0.76374 0.38733 0.90465 0.0
C1188 C 0.75526 0.38704 0.93681 0.0
C1189 C 0.75724 0.40815 0.9581 0.0
C1190 C 0.78402 0.41027 0.86103 0.0
C1191 C 0.7434 0.36457 0.94844 0.0
H1192 H 0.71456 0.3406 0.82532 0.0
H1193 H 0.78314 0.30965 0.85987 0.0
H1194 H 0.71138 0.38565 0.88473 0.0
H1195 H 0.72692 0.40137 0.85501 0.0
H1196 H 0.70286 0.38008 0.84095 0.0
H1197 H 0.81272 0.33232 0.89458 0.0
H1198 H 0.80977 0.36506 0.89772 0.0
H1199 H 0.79691 0.34682 0.92731 0.0
H1200 H 0.78406 0.44657 0.9088 0.0
H1201 H 0.75043 0.40795 0.98245 0.0
H1202 H 0.76855 0.4086 0.84152 0.0
H1203 H 0.79654 0.39486 0.85664 0.0
H1204 H 0.79381 0.42762 0.85817 0.0
H1205 H 0.72633 0.36041 0.93246 0.0
H1206 H 0.73892 0.3668 0.97467 0.0
H1207 H 0.75562 0.34865 0.9461 0.0
C1208 C 0.68768 0.24138 0.19453 0.0
C1209 C 0.68915 0.26375 0.21281 0.0
C1210 C 0.666 0.23411 0.17552 0.0
C1211 C 0.64544 0.24967 0.17453 0.0
C1212 C 0.64659 0.27184 0.19385 0.0
C1213 C 0.6683 0.27847 0.2129 0.0
C1214 C 0.66536 0.21018 0.15561 0.0
C1215 C 0.62515 0.28903 0.1935 0.0
C1216 C 0.59885 0.24912 0.09936 0.0
C1217 C 0.57875 0.2381 0.11161 0.0
C1218 C 0.62099 0.25214 0.11917 0.0
C1219 C 0.62312 0.24372 0.15193 0.0
C1220 C 0.60311 0.23163 0.16388 0.0
C1221 C 0.58105 0.22917 0.14363 0.0
C1222 C 0.64172 0.26537 0.10556 0.0
C1223 C 0.60471 0.22215 0.19846 0.0
H1224 H 0.70369 0.22994 0.19412 0.0
H1225 H 0.66909 0.29554 0.2275 0.0
H1226 H 0.64906 0.19943 0.16036 0.0
H1227 H 0.66392 0.21364 0.12868 0.0
H1228 H 0.68193 0.19911 0.16155 0.0
H1229 H 0.62876 0.30521 0.21071 0.0
H1230 H 0.62075 0.29538 0.16799 0.0
H1231 H 0.60878 0.27945 0.20059 0.0
H1232 H 0.59693 0.25606 0.07457 0.0
H1233 H 0.56537 0.22082 0.15309 0.0
H1234 H 0.65864 0.2544 0.10822 0.0
H1235 H 0.64537 0.28283 0.12003 0.0
H1236 H 0.63768 0.26936 0.07894 0.0
H1237 H 0.62148 0.21116 0.20306 0.0
H1238 H 0.58865 0.2108 0.20258 0.0
H1239 H 0.60585 0.23768 0.21705 0.0
C1240 C 0.7663 0.67578 0.21209 0.0
C1241 C 0.74811 0.691 0.19774 0.0
C1242 C 0.77328 0.65401 0.1952 0.0
C1243 C 0.76114 0.64665 0.16378 0.0
C1244 C 0.74324 0.6622 0.14901 0.0
C1245 C 0.73773 0.68432 0.16541 0.0
C1246 C 0.79339 0.63877 0.21134 0.0
C1247 C 0.72916 0.65519 0.11611 0.0
C1248 C 0.78222 0.60052 0.09859 0.0
C1249 C 0.76939 0.57935 0.10489 0.0
C1250 C 0.78148 0.62182 0.11937 0.0
C1251 C 0.76639 0.62267 0.14612 0.0
C1252 C 0.75377 0.60119 0.15296 0.0
C1253 C 0.75601 0.57972 0.13294 0.0
C1254 C 0.79641 0.64365 0.11208 0.0
C1255 C 0.73677 0.60123 0.18027 0.0
H1256 H 0.7748 0.68055 0.23673 0.0
H1257 H 0.72466 0.69626 0.15279 0.0
H1258 H 0.7853 0.62339 0.22348 0.0
H1259 H 0.80515 0.631 0.19259 0.0
H1260 H 0.80495 0.64955 0.23063 0.0
H1261 H 0.71429 0.66822 0.10945 0.0
H1262 H 0.7416 0.65448 0.09598 0.0
H1263 H 0.72103 0.63677 0.11702 0.0
H1264 H 0.79267 0.60051 0.07707 0.0
H1265 H 0.74635 0.56338 0.13836 0.0
H1266 H 0.80515 0.65233 0.13548 0.0
H1267 H 0.7844 0.65739 0.09979 0.0
H1268 H 0.81081 0.63865 0.09541 0.0
H1269 H 0.74675 0.60684 0.20442 0.0
H1270 H 0.72835 0.58308 0.18258 0.0
H1271 H 0.72201 0.61468 0.17523 0.0
C1272 C 0.31076 0.74324 0.14952 0.0
C1273 C 0.30726 0.75191 0.18199 0.0
C1274 C 0.33118 0.75017 0.1336 0.0
C1275 C 0.34853 0.76654 0.15023 0.0
C1276 C 0.34443 0.77648 0.18226 0.0
C1277 C 0.32389 0.769 0.1978 0.0
C1278 C 0.33469 0.73912 0.09945 0.0
C1279 C 0.36226 0.79426 0.20067 0.0
C1280 C 0.41295 0.76055 0.12305 0.0
C1281 C 0.41347 0.77878 0.09989 0.0
C1282 C 0.39224 0.7569 0.14033 0.0
C1283 C 0.37153 0.77199 0.13466 0.0
C1284 C 0.37229 0.79102 0.11226 0.0
C1285 C 0.39314 0.79408 0.095 0.0
C1286 C 0.39217 0.73621 0.16366 0.0
C1287 C 0.35081 0.80776 0.10582 0.0
H1288 H 0.29776 0.73044 0.13677 0.0
H1289 H 0.32142 0.77576 0.2229 0.0
H1290 H 0.33718 0.75367 0.08188 0.0
H1291 H 0.35145 0.72785 0.10061 0.0
H1292 H 0.31902 0.72749 0.0893 0.0
H1293 H 0.35524 0.80225 0.22369 0.0
H1294 H 0.37968 0.78484 0.20755 0.0
H1295 H 0.36637 0.80923 0.18448 0.0
H1296 H 0.42843 0.74848 0.12674 0.0
H1297 H 0.39349 0.80839 0.07746 0.0
H1298 H 0.37815 0.72256 0.15398 0.0
H1299 H 0.38731 0.74302 0.18847 0.0
H1300 H 0.41013 0.72695 0.16673 0.0
H1301 H 0.33517 0.79729 0.09311 0.0
H1302 H 0.35506 0.82299 0.09009 0.0
H1303 H 0.34491 0.81545 0.12966 0.0
C1304 C 0.2391 0.31139 0.19765 0.0
C1305 C 0.25852 0.31201 0.22265 0.0
C1306 C 0.2342 0.33145 0.17725 0.0
C1307 C 0.24899 0.35277 0.18191 0.0
C1308 C 0.26779 0.35384 0.20832 0.0
C1309 C 0.27238 0.33353 0.22806 0.0
C1310 C 0.21401 0.32929 0.14951 0.0
C1311 C 0.28395 0.37604 0.21473 0.0
C1312 C 0.25844 0.39315 0.10889 0.0
C1313 C 0.2434 0.41331 0.1148 0.0
C1314 C 0.2599 0.37324 0.12992 0.0
C1315 C 0.24611 0.37322 0.158 0.0
C1316 C 0.23061 0.39332 0.16387 0.0
C1317 C 0.22938 0.41296 0.14228 0.0
C1318 C 0.27654 0.35228 0.12226 0.0
C1319 C 0.21572 0.39436 0.1935 0.0
H1320 H 0.22861 0.29472 0.19282 0.0
H1321 H 0.28761 0.33408 0.24704 0.0
H1322 H 0.20206 0.34554 0.15004 0.0
H1323 H 0.22199 0.32851 0.12522 0.0
H1324 H 0.20266 0.31272 0.15103 0.0
H1325 H 0.29627 0.37497 0.23792 0.0
H1326 H 0.29528 0.37796 0.19361 0.0
H1327 H 0.27272 0.39273 0.21657 0.0
H1328 H 0.26908 0.39283 0.08756 0.0
H1329 H 0.21786 0.42839 0.1475 0.0
H1330 H 0.26613 0.3349 0.12025 0.0
H1331 H 0.2911 0.35081 0.14286 0.0
H1332 H 0.28523 0.35443 0.09878 0.0
H1333 H 0.20436 0.3777 0.19352 0.0
H1334 H 0.20362 0.41054 0.19382 0.0
H1335 H 0.22807 0.39498 0.21677 0.0
C1336 C 0.32492 0.22984 0.21287 0.0
C1337 C 0.32416 0.25105 0.2333 0.0
C1338 C 0.34526 0.22471 0.19492 0.0
C1339 C 0.36531 0.2411 0.19779 0.0
C1340 C 0.36531 0.26154 0.22045 0.0
C1341 C 0.34465 0.26638 0.23769 0.0
C1342 C 0.34441 0.2028 0.17095 0.0
C1343 C 0.38639 0.27931 0.22472 0.0
C1344 C 0.42495 0.2246 0.16066 0.0
C1345 C 0.42265 0.23719 0.13108 0.0
C1346 C 0.40632 0.22532 0.18246 0.0
C1347 C 0.38479 0.23872 0.17431 0.0
C1348 C 0.38215 0.2509 0.14404 0.0
C1349 C 0.4011 0.25006 0.12293 0.0
C1350 C 0.40994 0.21229 0.21459 0.0
C1351 C 0.35941 0.26517 0.13411 0.0
H1352 H 0.30894 0.21818 0.20912 0.0
H1353 H 0.34397 0.28287 0.25336 0.0
H1354 H 0.34178 0.20893 0.1451 0.0
H1355 H 0.36188 0.19269 0.17341 0.0
H1356 H 0.32929 0.19016 0.1749 0.0
H1357 H 0.38504 0.29231 0.24634 0.0
H1358 H 0.40397 0.26947 0.22807 0.0
H1359 H 0.3867 0.28988 0.20201 0.0
H1360 H 0.44161 0.21474 0.1672 0.0
H1361 H 0.39903 0.2595 0.09987 0.0
H1362 H 0.39437 0.19985 0.21688 0.0
H1363 H 0.4105 0.22576 0.23593 0.0
H1364 H 0.42708 0.20157 0.21645 0.0
H1365 H 0.34304 0.25339 0.13414 0.0
H1366 H 0.35973 0.27266 0.10907 0.0
H1367 H 0.35744 0.28053 0.15245 0.0
C1368 C 0.77134 0.3339 0.22254 0.0
C1369 C 0.74923 0.33103 0.23662 0.0
C1370 C 0.77663 0.35558 0.20764 0.0
C1371 C 0.75949 0.37479 0.20733 0.0
C1372 C 0.73835 0.37284 0.22462 0.0
C1373 C 0.73332 0.3508 0.2388 0.0
C1374 C 0.79927 0.35684 0.18923 0.0
C1375 C 0.71993 0.39315 0.22551 0.0
C1376 C 0.77566 0.43457 0.17064 0.0
C1377 C 0.76406 0.4315 0.13844 0.0
C1378 C 0.7742 0.41637 0.19372 0.0
C1379 C 0.76127 0.39459 0.18392 0.0
C1380 C 0.74983 0.39138 0.15122 0.0
C1381 C 0.75122 0.40998 0.12898 0.0
C1382 C 0.78623 0.4205 0.22855 0.0
C1383 C 0.73618 0.36824 0.13959 0.0
H1384 H 0.78357 0.31851 0.22074 0.0
H1385 H 0.71632 0.34856 0.25001 0.0
H1386 H 0.79408 0.35451 0.16211 0.0
H1387 H 0.80836 0.37483 0.19383 0.0
H1388 H 0.81255 0.34238 0.19648 0.0
H1389 H 0.70718 0.39071 0.24494 0.0
H1390 H 0.72917 0.41108 0.23016 0.0
H1391 H 0.70908 0.39351 0.20105 0.0
H1392 H 0.78549 0.45133 0.17787 0.0
H1393 H 0.74254 0.40756 0.10389 0.0
H1394 H 0.7997 0.40593 0.23423 0.0
H1395 H 0.77234 0.41957 0.24676 0.0
H1396 H 0.79565 0.43842 0.23216 0.0
H1397 H 0.74841 0.3523 0.14274 0.0
H1398 H 0.72889 0.36847 0.11308 0.0
H1399 H 0.72071 0.3656 0.1549 0.0
C1400 C 0.66693 0.76928 0.21198 0.0
C1401 C 0.6818 0.75122 0.19848 0.0
C1402 C 0.6454 0.77717 0.19406 0.0
C1403 C 0.63768 0.76576 0.16268 0.0
C1404 C 0.65227 0.74728 0.14926 0.0
C1405 C 0.67444 0.74115 0.16645 0.0
C1406 C 0.63109 0.79756 0.20928 0.0
C1407 C 0.64436 0.73352 0.11682 0.0
C1408 C 0.57106 0.76454 0.12874 0.0
C1409 C 0.57213 0.77633 0.09884 0.0
C1410 C 0.59209 0.76158 0.1505 0.0
C1411 C 0.61433 0.77238 0.14353 0.0
C1412 C 0.61472 0.78685 0.11542 0.0
C1413 C 0.59383 0.78804 0.09287 0.0
C1414 C 0.59072 0.74594 0.18003 0.0
C1415 C 0.63736 0.80061 0.10871 0.0
H1416 H 0.67189 0.77737 0.23656 0.0
H1417 H 0.68598 0.72824 0.1543 0.0
H1418 H 0.61892 0.80691 0.19056 0.0
H1419 H 0.61983 0.79005 0.2279 0.0
H1420 H 0.64363 0.81127 0.22266 0.0
H1421 H 0.65585 0.71724 0.11253 0.0
H1422 H 0.6251 0.72746 0.1165 0.0
H1423 H 0.64559 0.74555 0.09575 0.0
H1424 H 0.55392 0.75671 0.13444 0.0
H1425 H 0.59449 0.79798 0.07039 0.0
H1426 H 0.59444 0.75725 0.20333 0.0
H1427 H 0.60479 0.73146 0.17986 0.0
H1428 H 0.57254 0.73719 0.18034 0.0
H1429 H 0.63316 0.81515 0.09087 0.0
H1430 H 0.65057 0.78793 0.09801 0.0
H1431 H 0.64634 0.80899 0.13218 0.0
C1432 C 0.23615 0.67147 0.19651 0.0
C1433 C 0.26005 0.67887 0.2071 0.0
C1434 C 0.23138 0.64801 0.18234 0.0
C1435 C 0.25099 0.63172 0.17881 0.0
C1436 C 0.2748 0.63838 0.19227 0.0
C1437 C 0.27905 0.66194 0.20628 0.0
C1438 C 0.20572 0.6415 0.16848 0.0
C1439 C 0.29616 0.62142 0.1893 0.0
C1440 C 0.23977 0.56606 0.1477 0.0
C1441 C 0.24325 0.56771 0.11402 0.0
C1442 C 0.24178 0.58686 0.16926 0.0
C1443 C 0.24745 0.60957 0.15654 0.0
C1444 C 0.25059 0.6112 0.12228 0.0
C1445 C 0.24847 0.59017 0.10142 0.0
C1446 C 0.23832 0.58451 0.2056 0.0
C1447 C 0.25663 0.63509 0.10773 0.0
H1448 H 0.22144 0.68456 0.19702 0.0
H1449 H 0.29749 0.66757 0.21496 0.0
H1450 H 0.2044 0.64215 0.14097 0.0
H1451 H 0.20097 0.62271 0.17461 0.0
H1452 H 0.19209 0.6543 0.17808 0.0
H1453 H 0.3126 0.62785 0.20522 0.0
H1454 H 0.2915 0.60279 0.19622 0.0
H1455 H 0.30074 0.62017 0.16308 0.0
H1456 H 0.23583 0.54846 0.15714 0.0
H1457 H 0.25117 0.59113 0.07524 0.0
H1458 H 0.22438 0.59762 0.21346 0.0
H1459 H 0.25562 0.58904 0.22083 0.0
H1460 H 0.23262 0.56583 0.21111 0.0
H1461 H 0.24254 0.64885 0.11283 0.0
H1462 H 0.25783 0.63327 0.08043 0.0
H1463 H 0.27433 0.64214 0.11963 0.0
C1464 C 0.34413 0.76904 0.8047 0.0
C1465 C 0.32896 0.75453 0.82217 0.0
C1466 C 0.36743 0.77669 0.81872 0.0
C1467 C 0.37662 0.76832 0.85006 0.0
C1468 C 0.36196 0.75283 0.86709 0.0
C1469 C 0.33815 0.74725 0.85386 0.0
C1470 C 0.38183 0.79369 0.79952 0.0
C1471 C 0.37127 0.74205 0.8996 0.0
C1472 C 0.444 0.76711 0.88026 0.0
C1473 C 0.44407 0.78162 0.90973 0.0
C1474 C 0.42242 0.76351 0.85915 0.0
C1475 C 0.40094 0.77613 0.8665 0.0
C1476 C 0.40199 0.79335 0.89373 0.0
C1477 C 0.42313 0.79508 0.91579 0.0
C1478 C 0.42216 0.74488 0.83057 0.0
C1479 C 0.3803 0.80894 0.90078 0.0
H1480 H 0.338 0.77468 0.78006 0.0
H1481 H 0.3268 0.73721 0.86903 0.0
H1482 H 0.39667 0.80334 0.81524 0.0
H1483 H 0.38993 0.78308 0.77925 0.0
H1484 H 0.36958 0.80747 0.78762 0.0
H1485 H 0.35984 0.72651 0.90574 0.0
H1486 H 0.39032 0.73559 0.89866 0.0
H1487 H 0.37112 0.7561 0.92013 0.0
H1488 H 0.46027 0.75695 0.8753 0.0
H1489 H 0.42288 0.80633 0.93849 0.0
H1490 H 0.41708 0.75373 0.80685 0.0
H1491 H 0.40824 0.73065 0.83333 0.0
H1492 H 0.44014 0.73592 0.82897 0.0
H1493 H 0.37037 0.81463 0.87728 0.0
H1494 H 0.38592 0.82548 0.91641 0.0
H1495 H 0.36747 0.79844 0.91432 0.0
C1496 C 0.23877 0.34198 0.83864 0.0
C1497 C 0.26271 0.33769 0.83061 0.0
C1498 C 0.23241 0.36426 0.85381 0.0
C1499 C 0.25049 0.38249 0.86113 0.0
C1500 C 0.27407 0.37903 0.85034 0.0
C1501 C 0.27988 0.35664 0.83511 0.0
C1502 C 0.20699 0.3674 0.8646 0.0
C1503 C 0.2938 0.39811 0.85747 0.0
C1504 C 0.23555 0.44568 0.89542 0.0
C1505 C 0.24158 0.44311 0.92944 0.0
C1506 C 0.23761 0.42586 0.8727 0.0
C1507 C 0.2461 0.40325 0.88454 0.0
C1508 C 0.25168 0.4006 0.9191 0.0
C1509 C 0.24931 0.42063 0.94115 0.0
C1510 C 0.23136 0.42925 0.83609 0.0
C1511 C 0.26083 0.37681 0.93273 0.0
H1512 H 0.22544 0.32735 0.83527 0.0
H1513 H 0.29829 0.35347 0.82835 0.0
H1514 H 0.20746 0.36536 0.89184 0.0
H1515 H 0.19995 0.38588 0.85936 0.0
H1516 H 0.19409 0.35366 0.85202 0.0
H1517 H 0.30997 0.39403 0.84358 0.0
H1518 H 0.28679 0.41636 0.85097 0.0
H1519 H 0.29976 0.39898 0.88447 0.0
H1520 H 0.22966 0.46327 0.88667 0.0
H1521 H 0.25396 0.41893 0.96759 0.0
H1522 H 0.21862 0.41474 0.82533 0.0
H1523 H 0.24814 0.42768 0.82284 0.0
H1524 H 0.22295 0.44727 0.83129 0.0
H1525 H 0.2477 0.36193 0.92469 0.0
H1526 H 0.26359 0.37764 0.96033 0.0
H1527 H 0.27844 0.37196 0.92275 0.0
C1528 C 0.68365 0.23683 0.84734 0.0
C1529 C 0.68419 0.25865 0.83077 0.0
C1530 C 0.66364 0.23098 0.86498 0.0
C1531 C 0.64367 0.24725 0.86574 0.0
C1532 C 0.64346 0.26843 0.84699 0.0
C1533 C 0.66378 0.27395 0.82995 0.0
C1534 C 0.66468 0.20827 0.88469 0.0
C1535 C 0.62246 0.28613 0.84665 0.0
C1536 C 0.58413 0.22905 0.90004 0.0
C1537 C 0.58662 0.24054 0.93191 0.0
C1538 C 0.60271 0.2306 0.87836 0.0
C1539 C 0.62438 0.24375 0.88893 0.0
C1540 C 0.62722 0.25475 0.92143 0.0
C1541 C 0.60833 0.25309 0.94241 0.0
C1542 C 0.59887 0.21879 0.84386 0.0
C1543 C 0.6501 0.26872 0.93391 0.0
H1544 H 0.69953 0.22512 0.84827 0.0
H1545 H 0.66419 0.29083 0.81711 0.0
H1546 H 0.66746 0.21346 0.91162 0.0
H1547 H 0.64721 0.19806 0.88049 0.0
H1548 H 0.67977 0.19603 0.87819 0.0
H1549 H 0.62373 0.30008 0.82782 0.0
H1550 H 0.60483 0.27631 0.84144 0.0
H1551 H 0.62232 0.29558 0.87148 0.0
H1552 H 0.56735 0.21944 0.89169 0.0
H1553 H 0.61055 0.26166 0.96718 0.0
H1554 H 0.61442 0.20669 0.83898 0.0
H1555 H 0.59815 0.23302 0.82518 0.0
H1556 H 0.58173 0.20795 0.84014 0.0
H1557 H 0.66638 0.25712 0.93134 0.0
H1558 H 0.64998 0.27514 0.96036 0.0
H1559 H 0.65204 0.28479 0.91867 0.0
C1560 C 0.77243 0.67645 0.82594 0.0
C1561 C 0.74858 0.67878 0.81124 0.0
C1562 C 0.77963 0.65543 0.84256 0.0
C1563 C 0.76256 0.63634 0.84408 0.0
C1564 C 0.73923 0.63769 0.82644 0.0
C1565 C 0.73242 0.65906 0.81046 0.0
C1566 C 0.8046 0.65476 0.8612 0.0
C1567 C 0.72069 0.6175 0.82691 0.0
C1568 C 0.78041 0.57663 0.8835 0.0
C1569 C 0.77173 0.58047 0.91484 0.0
C1570 C 0.77812 0.59487 0.86014 0.0
C1571 C 0.76724 0.61737 0.86879 0.0
C1572 C 0.75948 0.62156 0.90105 0.0
C1573 C 0.76167 0.60297 0.92357 0.0
C1574 C 0.78637 0.58974 0.8259 0.0
C1575 C 0.74815 0.64544 0.9115 0.0
H1576 H 0.78489 0.69179 0.82664 0.0
H1577 H 0.71404 0.66085 0.79875 0.0
H1578 H 0.80288 0.65835 0.88813 0.0
H1579 H 0.81301 0.63654 0.85816 0.0
H1580 H 0.81702 0.66869 0.85277 0.0
H1581 H 0.7052 0.61949 0.80766 0.0
H1582 H 0.72927 0.59947 0.82288 0.0
H1583 H 0.71334 0.61778 0.85163 0.0
H1584 H 0.78807 0.55908 0.87688 0.0
H1585 H 0.75515 0.60583 0.948 0.0
H1586 H 0.79798 0.60483 0.81887 0.0
H1587 H 0.77021 0.58852 0.80742 0.0
H1588 H 0.7967 0.57242 0.82424 0.0
H1589 H 0.76031 0.66085 0.90717 0.0
H1590 H 0.74454 0.64623 0.93815 0.0
H1591 H 0.73063 0.64806 0.8963 0.0
loop_
_geom_bond_atom_site_label_1
_geom_bond_atom_site_label_2
_geom_bond_distance
_geom_bond_site_symmetry_2
_ccdc_geom_bond_type
H0 C6 0.930 . S
H1 C9 0.931 . S
H2 C11 0.931 . S
H3 C13 0.930 . S
H4 C15 0.930 . S
H5 C17 0.931 . S
C6 H0 0.930 . S
C6 C7 1.380 . S
C6 C8 1.394 . S
C7 C6 1.380 . S
C7 C11 1.382 . S
C8 C6 1.394 . S
C8 C9 1.400 . S
C9 H1 0.931 . S
C9 C8 1.400 . S
C9 C10 1.375 . S
C10 C9 1.375 . S
C10 C11 1.415 . S
C10 C12 1.501 . S
C11 H2 0.931 . S
C11 C7 1.382 . S
C11 C10 1.415 . S
C12 C10 1.501 . S
C12 C13 1.384 . S
C12 C17 1.408 . S
C13 H3 0.930 . S
C13 C12 1.384 . S
C13 C14 1.389 . S
C14 C13 1.389 . S
C14 C15 1.405 . S
C15 H4 0.930 . S
C15 C14 1.405 . S
C15 C16 1.364 . S
C16 C15 1.364 . S
C16 C17 1.400 . S
C17 H5 0.931 . S
C17 C12 1.408 . S
C17 C16 1.400 . S
H18 C24 0.930 . S
H19 C27 0.931 . S
H20 C29 0.931 . S
H21 C31 0.930 . S
H22 C33 0.930 . S
H23 C35 0.931 . S
C24 H18 0.930 . S
C24 C25 1.380 . S
C24 C26 1.394 . S
C25 C24 1.380 . S
C25 C29 1.382 . S
C26 C24 1.394 . S
C26 C27 1.400 . S
C27 H19 0.931 . S
C27 C26 1.400 . S
C27 C28 1.375 . S
C28 C27 1.375 . S
C28 C29 1.415 . S
C28 C30 1.501 . S
C29 H20 0.931 . S
C29 C25 1.382 . S
C29 C28 1.415 . S
C30 C28 1.501 . S
C30 C31 1.384 . S
C30 C35 1.408 . S
C31 H21 0.930 . S
C31 C30 1.384 . S
C31 C32 1.389 . S
C32 C31 1.389 . S
C32 C33 1.405 . S
C33 H22 0.930 . S
C33 C32 1.405 . S
C33 C34 1.364 . S
C34 C33 1.364 . S
C34 C35 1.400 . S
C35 H23 0.931 . S
C35 C30 1.408 . S
C35 C34 1.400 . S
H36 C42 0.930 . S
H37 C45 0.931 . S
H38 C47 0.931 . S
H39 C49 0.930 . S
H40 C51 0.930 . S
H41 C53 0.931 . S
C42 H36 0.930 . S
C42 C43 1.380 . S
C42 C44 1.394 . S
C43 C42 1.380 . S
C43 C47 1.382 . S
C44 C42 1.394 . S
C44 C45 1.400 . S
C45 H37 0.931 . S
C45 C44 1.400 . S
C45 C46 1.375 . S
C46 C45 1.375 . S
C46 C47 1.415 . S
C46 C48 1.501 . S
C47 H38 0.931 . S
C47 C43 1.382 . S
C47 C46 1.415 . S
C48 C46 1.501 . S
C48 C49 1.384 . S
C48 C53 1.408 . S
C49 H39 0.930 . S
C49 C48 1.384 . S
C49 C50 1.389 . S
C50 C49 1.389 . S
C50 C51 1.405 . S
C51 H40 0.930 . S
C51 C50 1.405 . S
C51 C52 1.364 . S
C52 C51 1.364 . S
C52 C53 1.400 . S
C53 H41 0.931 . S
C53 C48 1.408 . S
C53 C52 1.400 . S
H54 C60 0.930 . S
H55 C63 0.931 . S
H56 C65 0.931 . S
H57 C67 0.930 . S
H58 C69 0.930 . S
H59 C71 0.931 . S
C60 H54 0.930 . S
C60 C61 1.380 . S
C60 C62 1.394 . S
C61 C60 1.380 . S
C61 C65 1.382 . S
C62 C60 1.394 . S
C62 C63 1.400 . S
C63 H55 0.931 . S
C63 C62 1.400 . S
C63 C64 1.375 . S
C64 C63 1.375 . S
C64 C65 1.415 . S
C64 C66 1.501 . S
C65 H56 0.931 . S
C65 C61 1.382 . S
C65 C64 1.415 . S
C66 C64 1.501 . S
C66 C67 1.384 . S
C66 C71 1.408 . S
C67 H57 0.930 . S
C67 C66 1.384 . S
C67 C68 1.389 . S
C68 C67 1.389 . S
C68 C69 1.405 . S
C69 H58 0.930 . S
C69 C68 1.405 . S
C69 C70 1.364 . S
C70 C69 1.364 . S
C70 C71 1.400 . S
C71 H59 0.931 . S
C71 C66 1.408 . S
C71 C70 1.400 . S
H72 C78 0.930 . S
H73 C81 0.931 . S
H74 C83 0.931 . S
H75 C85 0.930 . S
H76 C87 0.930 . S
H77 C89 0.931 . S
C78 H72 0.930 . S
C78 C79 1.380 . S
C78 C80 1.394 . S
C79 C78 1.380 . S
C79 C83 1.382 . S
C80 C78 1.394 . S
C80 C81 1.400 . S
C81 H73 0.931 . S
C81 C80 1.400 . S
C81 C82 1.375 . S
C82 C81 1.375 . S
C82 C83 1.415 . S
C82 C84 1.501 . S
C83 H74 0.931 . S
C83 C79 1.382 . S
C83 C82 1.415 . S
C84 C82 1.501 . S
C84 C85 1.384 . S
C84 C89 1.408 . S
C85 H75 0.930 . S
C85 C84 1.384 . S
C85 C86 1.389 . S
C86 C85 1.389 . S
C86 C87 1.405 . S
C87 H76 0.930 . S
C87 C86 1.405 . S
C87 C88 1.364 . S
C88 C87 1.364 . S
C88 C89 1.400 . S
C89 H77 0.931 . S
C89 C84 1.408 . S
C89 C88 1.400 . S
H90 C96 0.930 . S
H91 C99 0.931 . S
H92 C101 0.931 . S
H93 C103 0.930 . S
H94 C105 0.930 . S
H95 C107 0.931 . S
C96 H90 0.930 . S
C96 C97 1.380 . S
C96 C98 1.394 . S
C97 C96 1.380 . S
C97 C101 1.382 . S
C98 C96 1.394 . S
C98 C99 1.400 . S
C99 H91 0.931 . S
C99 C98 1.400 . S
C99 C100 1.375 . S
C100 C99 1.375 . S
C100 C101 1.415 . S
C100 C102 1.501 . S
C101 H92 0.931 . S
C101 C97 1.382 . S
C101 C100 1.415 . S
C102 C100 1.501 . S
C102 C103 1.384 . S
C102 C107 1.408 . S
C103 H93 0.930 . S
C103 C102 1.384 . S
C103 C104 1.389 . S
C104 C103 1.389 . S
C104 C105 1.405 . S
C105 H94 0.930 . S
C105 C104 1.405 . S
C105 C106 1.364 . S
C106 C105 1.364 . S
C106 C107 1.400 . S
C107 H95 0.931 . S
C107 C102 1.408 . S
C107 C106 1.400 . S
H108 C114 0.930 . S
H109 C117 0.931 . S
H110 C119 0.931 . S
H111 C121 0.930 . S
H112 C123 0.930 . S
H113 C125 0.931 . S
C114 H108 0.930 . S
C114 C115 1.380 . S
C114 C116 1.394 . S
C115 C114 1.380 . S
C115 C119 1.382 . S
C116 C114 1.394 . S
C116 C117 1.400 . S
C117 H109 0.931 . S
C117 C116 1.400 . S
C117 C118 1.375 . S
C118 C117 1.375 . S
C118 C119 1.415 . S
C118 C120 1.501 . S
C119 H110 0.931 . S
C119 C115 1.382 . S
C119 C118 1.415 . S
C120 C118 1.501 . S
C120 C121 1.384 . S
C120 C125 1.408 . S
C121 H111 0.930 . S
C121 C120 1.384 . S
C121 C122 1.389 . S
C122 C121 1.389 . S
C122 C123 1.405 . S
C123 H112 0.930 . S
C123 C122 1.405 . S
C123 C124 1.364 . S
C124 C123 1.364 . S
C124 C125 1.400 . S
C125 H113 0.931 . S
C125 C120 1.408 . S
C125 C124 1.400 . S
H126 C132 0.930 . S
H127 C135 0.931 . S
H128 C137 0.931 . S
H129 C139 0.930 . S
H130 C141 0.930 . S
H131 C143 0.931 . S
C132 H126 0.930 . S
C132 C133 1.380 . S
C132 C134 1.394 . S
C133 C132 1.380 . S
C133 C137 1.382 . S
C134 C132 1.394 . S
C134 C135 1.400 . S
C135 H127 0.931 . S
C135 C134 1.400 . S
C135 C136 1.375 . S
C136 C135 1.375 . S
C136 C137 1.415 . S
C136 C138 1.501 . S
C137 H128 0.931 . S
C137 C133 1.382 . S
C137 C136 1.415 . S
C138 C136 1.501 . S
C138 C139 1.384 . S
C138 C143 1.408 . S
C139 H129 0.930 . S
C139 C138 1.384 . S
C139 C140 1.389 . S
C140 C139 1.389 . S
C140 C141 1.405 . S
C141 H130 0.930 . S
C141 C140 1.405 . S
C141 C142 1.364 . S
C142 C141 1.364 . S
C142 C143 1.400 . S
C143 H131 0.931 . S
C143 C138 1.408 . S
C143 C142 1.400 . S
C144 C145 1.443 . S
C144 N148 1.376 . S
C144 C182 1.389 . S
C145 C144 1.443 . S
C145 C146 1.340 . S
C145 H185 0.951 . S
C146 C145 1.340 . S
C146 C147 1.439 . S
C146 H186 0.950 . S
C147 C146 1.439 . S
C147 N148 1.374 . S
C147 C181 1.395 . S
N148 C144 1.376 . S
N148 C147 1.374 . S
N148 Co149 2.008 . S
Co149 N148 2.008 . S
Co149 N150 1.995 1_455 S
Co149 N155 2.008 1_455 S
Co149 N160 1.995 . S
Co149 N165 2.282 1_455 S
Co149 N171 2.282 . S
N150 Co149 1.995 1_655 S
N150 C151 1.376 . S
N150 C154 1.383 . S
C151 N150 1.376 . S
C151 C152 1.446 . S
C151 C181 1.391 1_655 S
C152 C151 1.446 . S
C152 C153 1.339 . S
C152 H187 0.949 . S
C153 C152 1.339 . S
C153 C154 1.439 . S
C153 H188 0.950 . S
C154 N150 1.383 . S
C154 C153 1.439 . S
C154 C183 1.392 . S
N155 Co149 2.008 1_655 S
N155 C156 1.376 . S
N155 C159 1.374 . S
C156 N155 1.376 . S
C156 C157 1.443 . S
C156 C183 1.389 . S
C157 C156 1.443 . S
C157 C158 1.340 . S
C157 H189 0.951 . S
C158 C157 1.340 . S
C158 C159 1.439 . S
C158 H190 0.950 . S
C159 N155 1.374 . S
C159 C158 1.439 . S
C159 C184 1.410 . S
N160 Co149 1.995 . S
N160 C161 1.376 . S
N160 C164 1.383 . S
C161 N160 1.376 . S
C161 C162 1.446 . S
C161 C184 1.375 1_455 S
C162 C161 1.446 . S
C162 C163 1.339 . S
C162 H191 0.949 . S
C163 C162 1.339 . S
C163 C164 1.439 . S
C163 H192 0.950 . S
C164 N160 1.383 . S
C164 C163 1.439 . S
C164 C182 1.392 . S
N165 Co149 2.282 1_655 S
N165 C168 1.332 . S
N165 C170 1.332 . S
C166 C167 1.386 . S
C166 C169 1.388 . S
C167 C166 1.386 . S
C167 C168 1.382 . S
C167 H193 0.950 . S
C168 N165 1.332 . S
C168 C167 1.382 . S
C168 H179 0.952 . S
C169 C166 1.388 . S
C169 C170 1.382 . S
C169 H194 0.950 . S
C170 N165 1.332 . S
C170 C169 1.382 . S
C170 H180 0.948 . S
N171 Co149 2.282 . S
N171 C175 1.332 . S
N171 C176 1.332 . S
C172 C173 1.388 . S
C172 C176 1.382 . S
C172 H195 0.950 . S
C173 C172 1.388 . S
C173 C174 1.386 . S
C174 C173 1.386 . S
C174 C175 1.382 . S
C174 H196 0.950 . S
C175 N171 1.332 . S
C175 C174 1.382 . S
C175 H177 0.952 . S
C176 N171 1.332 . S
C176 C172 1.382 . S
C176 H178 0.948 . S
H177 C175 0.952 . S
H178 C176 0.948 . S
H179 C168 0.952 . S
H180 C170 0.948 . S
C181 C147 1.395 . S
C181 C151 1.391 1_455 S
C182 C144 1.389 . S
C182 C164 1.392 . S
C183 C154 1.392 . S
C183 C156 1.389 . S
C184 C159 1.410 . S
C184 C161 1.375 1_655 S
H185 C145 0.951 . S
H186 C146 0.950 . S
H187 C152 0.949 . S
H188 C153 0.950 . S
H189 C157 0.951 . S
H190 C158 0.950 . S
H191 C162 0.949 . S
H192 C163 0.950 . S
H193 C167 0.950 . S
H194 C169 0.950 . S
H195 C172 0.950 . S
H196 C174 0.950 . S
C197 C198 1.443 . S
C197 N201 1.376 . S
C197 C235 1.389 . S
C198 C197 1.443 . S
C198 C199 1.340 . S
C198 H238 0.951 . S
C199 C198 1.340 . S
C199 C200 1.439 . S
C199 H239 0.950 . S
C200 C199 1.439 . S
C200 N201 1.374 . S
C200 C234 1.395 . S
N201 C197 1.376 . S
N201 C200 1.374 . S
N201 Co202 2.008 . S
Co202 N201 2.008 . S
Co202 N203 1.995 1_545 S
Co202 N208 2.008 1_545 S
Co202 N213 1.995 . S
Co202 N218 2.282 1_545 S
Co202 N224 2.282 . S
N203 Co202 1.995 1_565 S
N203 C204 1.376 . S
N203 C207 1.383 . S
C204 N203 1.376 . S
C204 C205 1.446 . S
C204 C234 1.391 1_565 S
C205 C204 1.446 . S
C205 C206 1.339 . S
C205 H240 0.949 . S
C206 C205 1.339 . S
C206 C207 1.439 . S
C206 H241 0.950 . S
C207 N203 1.383 . S
C207 C206 1.439 . S
C207 C236 1.392 . S
N208 Co202 2.008 1_565 S
N208 C209 1.376 . S
N208 C212 1.374 . S
C209 N208 1.376 . S
C209 C210 1.443 . S
C209 C236 1.389 . S
C210 C209 1.443 . S
C210 C211 1.340 . S
C210 H242 0.951 . S
C211 C210 1.340 . S
C211 C212 1.439 . S
C211 H243 0.950 . S
C212 N208 1.374 . S
C212 C211 1.439 . S
C212 C237 1.382 1_565 S
N213 Co202 1.995 . S
N213 C214 1.376 . S
N213 C217 1.383 . S
C214 N213 1.376 . S
C214 C215 1.446 . S
C214 C237 1.406 . S
C215 C214 1.446 . S
C215 C216 1.339 . S
C215 H244 0.949 . S
C216 C215 1.339 . S
C216 C217 1.439 . S
C216 H245 0.950 . S
C217 N213 1.383 . S
C217 C216 1.439 . S
C217 C235 1.392 . S
N218 Co202 2.282 1_565 S
N218 C221 1.332 . S
N218 C223 1.332 . S
C219 C220 1.386 . S
C219 C222 1.388 . S
C220 C219 1.386 . S
C220 C221 1.382 . S
C220 H246 0.950 . S
C221 N218 1.332 . S
C221 C220 1.382 . S
C221 H232 0.952 . S
C222 C219 1.388 . S
C222 C223 1.382 . S
C222 H247 0.950 . S
C223 N218 1.332 . S
C223 C222 1.382 . S
C223 H233 0.948 . S
N224 Co202 2.282 . S
N224 C228 1.332 . S
N224 C229 1.332 . S
C225 C226 1.388 . S
C225 C229 1.382 . S
C225 H248 0.950 . S
C226 C225 1.388 . S
C226 C227 1.386 . S
C227 C226 1.386 . S
C227 C228 1.382 . S
C227 H249 0.950 . S
C228 N224 1.332 . S
C228 C227 1.382 . S
C228 H230 0.952 . S
C229 N224 1.332 . S
C229 C225 1.382 . S
C229 H231 0.948 . S
H230 C228 0.952 . S
H231 C229 0.948 . S
H232 C221 0.952 . S
H233 C223 0.948 . S
C234 C200 1.395 . S
C234 C204 1.391 1_545 S
C235 C197 1.389 . S
C235 C217 1.392 . S
C236 C207 1.392 . S
C236 C209 1.389 . S
C237 C212 1.382 1_545 S
C237 C214 1.406 . S
H238 C198 0.951 . S
H239 C199 0.950 . S
H240 C205 0.949 . S
H241 C206 0.950 . S
H242 C210 0.951 . S
H243 C211 0.950 . S
H244 C215 0.949 . S
H245 C216 0.950 . S
H246 C220 0.950 . S
H247 C222 0.950 . S
H248 C225 0.950 . S
H249 C227 0.950 . S
C250 C251 1.443 . S
C250 N254 1.376 . S
C250 C288 1.389 . S
C251 C250 1.443 . S
C251 C252 1.340 . S
C251 H291 0.951 . S
C252 C251 1.340 . S
C252 C253 1.439 . S
C252 H292 0.950 . S
C253 C252 1.439 . S
C253 N254 1.374 . S
C253 C287 1.395 . S
N254 C250 1.376 . S
N254 C253 1.374 . S
N254 Co255 2.008 . S
Co255 N254 2.008 . S
Co255 N256 1.995 1_455 S
Co255 N261 2.008 1_455 S
Co255 N266 1.995 . S
Co255 N271 2.282 1_455 S
Co255 N277 2.282 . S
N256 Co255 1.995 1_655 S
N256 C257 1.376 . S
N256 C260 1.383 . S
C257 N256 1.376 . S
C257 C258 1.446 . S
C257 C287 1.391 1_655 S
C258 C257 1.446 . S
C258 C259 1.339 . S
C258 H293 0.949 . S
C259 C258 1.339 . S
C259 C260 1.439 . S
C259 H294 0.950 . S
C260 N256 1.383 . S
C260 C259 1.439 . S
C260 C289 1.392 . S
N261 Co255 2.008 1_655 S
N261 C262 1.376 . S
N261 C265 1.374 . S
C262 N261 1.376 . S
C262 C263 1.443 . S
C262 C289 1.389 . S
C263 C262 1.443 . S
C263 C264 1.340 . S
C263 H295 0.951 . S
C264 C263 1.340 . S
C264 C265 1.439 . S
C264 H296 0.950 . S
C265 N261 1.374 . S
C265 C264 1.439 . S
C265 C290 1.395 . S
N266 Co255 1.995 . S
N266 C267 1.376 . S
N266 C270 1.383 . S
C267 N266 1.376 . S
C267 C268 1.446 . S
C267 C290 1.391 1_455 S
C268 C267 1.446 . S
C268 C269 1.339 . S
C268 H297 0.949 . S
C269 C268 1.339 . S
C269 C270 1.439 . S
C269 H298 0.950 . S
C270 N266 1.383 . S
C270 C269 1.439 . S
C270 C288 1.392 . S
N271 Co255 2.282 1_655 S
N271 C274 1.332 . S
N271 C276 1.332 . S
C272 C273 1.386 . S
C272 C275 1.388 . S
C273 C272 1.386 . S
C273 C274 1.382 . S
C273 H299 0.950 . S
C274 N271 1.332 . S
C274 C273 1.382 . S
C274 H285 0.952 . S
C275 C272 1.388 . S
C275 C276 1.382 . S
C275 H300 0.950 . S
C276 N271 1.332 . S
C276 C275 1.382 . S
C276 H286 0.948 . S
N277 Co255 2.282 . S
N277 C281 1.332 . S
N277 C282 1.332 . S
C278 C279 1.388 . S
C278 C282 1.382 . S
C278 H301 0.950 . S
C279 C278 1.388 . S
C279 C280 1.386 . S
C280 C279 1.386 . S
C280 C281 1.382 . S
C280 H302 0.950 . S
C281 N277 1.332 . S
C281 C280 1.382 . S
C281 H283 0.952 . S
C282 N277 1.332 . S
C282 C278 1.382 . S
C282 H284 0.948 . S
H283 C281 0.952 . S
H284 C282 0.948 . S
H285 C274 0.952 . S
H286 C276 0.948 . S
C287 C253 1.395 . S
C287 C257 1.391 1_455 S
C288 C250 1.389 . S
C288 C270 1.392 . S
C289 C260 1.392 . S
C289 C262 1.389 . S
C290 C265 1.395 . S
C290 C267 1.391 1_655 S
H291 C251 0.951 . S
H292 C252 0.950 . S
H293 C258 0.949 . S
H294 C259 0.950 . S
H295 C263 0.951 . S
H296 C264 0.950 . S
H297 C268 0.949 . S
H298 C269 0.950 . S
H299 C273 0.950 . S
H300 C275 0.950 . S
H301 C278 0.950 . S
H302 C280 0.950 . S
C303 C304 1.443 . S
C303 N307 1.376 . S
C303 C341 1.389 . S
C304 C303 1.443 . S
C304 C305 1.340 . S
C304 H344 0.951 . S
C305 C304 1.340 . S
C305 C306 1.439 . S
C305 H345 0.950 . S
C306 C305 1.439 . S
C306 N307 1.374 . S
C306 C340 1.410 . S
N307 C303 1.376 . S
N307 C306 1.374 . S
N307 Co308 2.008 1_565 S
Co308 N307 2.008 1_545 S
Co308 N309 1.995 . S
Co308 N314 2.008 . S
Co308 N319 1.995 1_545 S
Co308 N324 2.282 . S
Co308 N330 2.282 1_545 S
N309 Co308 1.995 . S
N309 C310 1.376 . S
N309 C313 1.383 . S
C310 N309 1.376 . S
C310 C311 1.446 . S
C310 C340 1.375 1_545 S
C311 C310 1.446 . S
C311 C312 1.339 . S
C311 H346 0.949 . S
C312 C311 1.339 . S
C312 C313 1.439 . S
C312 H347 0.950 . S
C313 N309 1.383 . S
C313 C312 1.439 . S
C313 C342 1.392 . S
N314 Co308 2.008 . S
N314 C315 1.376 . S
N314 C318 1.374 . S
C315 N314 1.376 . S
C315 C316 1.443 . S
C315 C342 1.389 . S
C316 C315 1.443 . S
C316 C317 1.340 . S
C316 H348 0.951 . S
C317 C316 1.340 . S
C317 C318 1.439 . S
C317 H349 0.950 . S
C318 N314 1.374 . S
C318 C317 1.439 . S
C318 C343 1.395 . S
N319 Co308 1.995 1_565 S
N319 C320 1.376 . S
N319 C323 1.383 . S
C320 N319 1.376 . S
C320 C321 1.446 . S
C320 C343 1.391 1_565 S
C321 C320 1.446 . S
C321 C322 1.339 . S
C321 H350 0.949 . S
C322 C321 1.339 . S
C322 C323 1.439 . S
C322 H351 0.950 . S
C323 N319 1.383 . S
C323 C322 1.439 . S
C323 C341 1.392 . S
N324 Co308 2.282 . S
N324 C327 1.332 . S
N324 C329 1.332 . S
C325 C326 1.386 . S
C325 C328 1.388 . S
C326 C325 1.386 . S
C326 C327 1.382 . S
C326 H352 0.950 . S
C327 N324 1.332 . S
C327 C326 1.382 . S
C327 H338 0.952 . S
C328 C325 1.388 . S
C328 C329 1.382 . S
C328 H353 0.950 . S
C329 N324 1.332 . S
C329 C328 1.382 . S
C329 H339 0.948 . S
N330 Co308 2.282 1_565 S
N330 C334 1.332 . S
N330 C335 1.332 . S
C331 C332 1.388 . S
C331 C335 1.382 . S
C331 H354 0.950 . S
C332 C331 1.388 . S
C332 C333 1.386 . S
C333 C332 1.386 . S
C333 C334 1.382 . S
C333 H355 0.950 . S
C334 N330 1.332 . S
C334 C333 1.382 . S
C334 H336 0.952 . S
C335 N330 1.332 . S
C335 C331 1.382 . S
C335 H337 0.948 . S
H336 C334 0.952 . S
H337 C335 0.948 . S
H338 C327 0.952 . S
H339 C329 0.948 . S
C340 C306 1.410 . S
C340 C310 1.375 1_565 S
C341 C303 1.389 . S
C341 C323 1.392 . S
C342 C313 1.392 . S
C342 C315 1.389 . S
C343 C318 1.395 . S
C343 C320 1.391 1_545 S
H344 C304 0.951 . S
H345 C305 0.950 . S
H346 C311 0.949 . S
H347 C312 0.950 . S
H348 C316 0.951 . S
H349 C317 0.950 . S
H350 C321 0.949 . S
H351 C322 0.950 . S
H352 C326 0.950 . S
H353 C328 0.950 . S
H354 C331 0.950 . S
H355 C333 0.950 . S
C356 C357 1.443 . S
C356 N360 1.376 . S
C356 C394 1.389 . S
C357 C356 1.443 . S
C357 C358 1.340 . S
C357 H397 0.951 . S
C358 C357 1.340 . S
C358 C359 1.439 . S
C358 H398 0.950 . S
C359 C358 1.439 . S
C359 N360 1.374 . S
C359 C393 1.394 1_554 S
N360 C356 1.376 . S
N360 C359 1.374 . S
N360 Co361 2.021 . S
Co361 N360 2.021 . S
Co361 N362 1.979 1_554 S
Co361 N367 1.995 1_554 S
Co361 N372 2.010 . S
Co361 N377 2.305 . S
Co361 N383 2.260 1_554 S
N362 Co361 1.979 1_556 S
N362 C363 1.376 . S
N362 C366 1.383 . S
C363 N362 1.376 . S
C363 C364 1.446 . S
C363 C393 1.392 . S
C364 C363 1.446 . S
C364 C365 1.339 . S
C364 H399 0.949 . S
C365 C364 1.339 . S
C365 C366 1.439 . S
C365 H400 0.950 . S
C366 N362 1.383 . S
C366 C365 1.439 . S
C366 C395 1.392 . S
N367 Co361 1.995 1_556 S
N367 C368 1.376 . S
N367 C371 1.374 . S
C368 N367 1.376 . S
C368 C369 1.443 . S
C368 C395 1.389 . S
C369 C368 1.443 . S
C369 C370 1.340 . S
C369 H401 0.951 . S
C370 C369 1.340 . S
C370 C371 1.439 . S
C370 H402 0.950 . S
C371 N367 1.374 . S
C371 C370 1.439 . S
C371 C396 1.395 1_556 S
N372 Co361 2.010 . S
N372 C373 1.376 . S
N372 C376 1.383 . S
C373 N372 1.376 . S
C373 C374 1.446 . S
C373 C396 1.391 . S
C374 C373 1.446 . S
C374 C375 1.339 . S
C374 H403 0.949 . S
C375 C374 1.339 . S
C375 C376 1.439 . S
C375 H404 0.950 . S
C376 N372 1.383 . S
C376 C375 1.439 . S
C376 C394 1.392 . S
N377 Co361 2.305 . S
N377 C380 1.332 . S
N377 C382 1.332 . S
C378 C379 1.386 . S
C378 C381 1.388 . S
C379 C378 1.386 . S
C379 C380 1.382 . S
C379 H405 0.950 . S
C380 N377 1.332 . S
C380 C379 1.382 . S
C380 H391 0.952 . S
C381 C378 1.388 . S
C381 C382 1.382 . S
C381 H406 0.950 . S
C382 N377 1.332 . S
C382 C381 1.382 . S
C382 H392 0.948 . S
N383 Co361 2.260 1_556 S
N383 C387 1.332 . S
N383 C388 1.332 . S
C384 C385 1.388 . S
C384 C388 1.382 . S
C384 H407 0.950 . S
C385 C384 1.388 . S
C385 C386 1.386 . S
C386 C385 1.386 . S
C386 C387 1.382 . S
C386 H408 0.950 . S
C387 N383 1.332 . S
C387 C386 1.382 . S
C387 H389 0.952 . S
C388 N383 1.332 . S
C388 C384 1.382 . S
C388 H390 0.948 . S
H389 C387 0.952 . S
H390 C388 0.948 . S
H391 C380 0.952 . S
H392 C382 0.948 . S
C393 C359 1.394 1_556 S
C393 C363 1.392 . S
C394 C356 1.389 . S
C394 C376 1.392 . S
C395 C366 1.392 . S
C395 C368 1.389 . S
C396 C371 1.395 1_554 S
C396 C373 1.391 . S
H397 C357 0.951 . S
H398 C358 0.950 . S
H399 C364 0.949 . S
H400 C365 0.950 . S
H401 C369 0.951 . S
H402 C370 0.950 . S
H403 C374 0.949 . S
H404 C375 0.950 . S
H405 C379 0.950 . S
H406 C381 0.950 . S
H407 C384 0.950 . S
H408 C386 0.950 . S
C409 C410 1.443 . S
C409 N413 1.376 . S
C409 C447 1.389 . S
C410 C409 1.443 . S
C410 C411 1.340 . S
C410 H450 0.951 . S
C411 C410 1.340 . S
C411 C412 1.439 . S
C411 H451 0.950 . S
C412 C411 1.439 . S
C412 N413 1.374 . S
C412 C446 1.395 . S
N413 C409 1.376 . S
N413 C412 1.374 . S
N413 Co414 2.008 . S
Co414 N413 2.008 . S
Co414 N415 1.995 1_554 S
Co414 N420 2.008 . S
Co414 N425 1.995 . S
Co414 N430 2.282 . S
Co414 N436 2.282 1_554 S
N415 Co414 1.995 1_556 S
N415 C416 1.376 . S
N415 C419 1.383 . S
C416 N415 1.376 . S
C416 C417 1.446 . S
C416 C446 1.391 1_556 S
C417 C416 1.446 . S
C417 C418 1.339 . S
C417 H452 0.949 . S
C418 C417 1.339 . S
C418 C419 1.439 . S
C418 H453 0.950 . S
C419 N415 1.383 . S
C419 C418 1.439 . S
C419 C448 1.392 . S
N420 Co414 2.008 . S
N420 C421 1.376 1_554 S
N420 C424 1.374 . S
C421 N420 1.376 1_556 S
C421 C422 1.443 . S
C421 C448 1.389 . S
C422 C421 1.443 . S
C422 C423 1.340 1_556 S
C422 H454 0.951 . S
C423 C422 1.340 1_554 S
C423 C424 1.439 . S
C423 H455 0.950 . S
C424 N420 1.374 . S
C424 C423 1.439 . S
C424 C449 1.395 . S
N425 Co414 1.995 . S
N425 C426 1.376 . S
N425 C429 1.383 . S
C426 N425 1.376 . S
C426 C427 1.446 . S
C426 C449 1.391 . S
C427 C426 1.446 . S
C427 C428 1.339 . S
C427 H456 0.949 . S
C428 C427 1.339 . S
C428 C429 1.439 . S
C428 H457 0.950 . S
C429 N425 1.383 . S
C429 C428 1.439 . S
C429 C447 1.392 . S
N430 Co414 2.282 . S
N430 C433 1.332 . S
N430 C435 1.332 . S
C431 C432 1.386 . S
C431 C434 1.388 . S
C432 C431 1.386 . S
C432 C433 1.382 . S
C432 H458 0.950 . S
C433 N430 1.332 . S
C433 C432 1.382 . S
C433 H444 0.952 . S
C434 C431 1.388 . S
C434 C435 1.382 . S
C434 H459 0.950 . S
C435 N430 1.332 . S
C435 C434 1.382 . S
C435 H445 0.948 . S
N436 Co414 2.282 1_556 S
N436 C440 1.332 . S
N436 C441 1.332 . S
C437 C438 1.388 . S
C437 C441 1.382 . S
C437 H460 0.950 . S
C438 C437 1.388 . S
C438 C439 1.386 . S
C439 C438 1.386 . S
C439 C440 1.382 . S
C439 H461 0.950 . S
C440 N436 1.332 . S
C440 C439 1.382 . S
C440 H442 0.952 . S
C441 N436 1.332 . S
C441 C437 1.382 . S
C441 H443 0.948 . S
H442 C440 0.952 . S
H443 C441 0.948 . S
H444 C433 0.952 . S
H445 C435 0.948 . S
C446 C412 1.395 . S
C446 C416 1.391 1_554 S
C447 C409 1.389 . S
C447 C429 1.392 . S
C448 C419 1.392 . S
C448 C421 1.389 . S
C449 C424 1.395 . S
C449 C426 1.391 . S
H450 C410 0.951 . S
H451 C411 0.950 . S
H452 C417 0.949 . S
H453 C418 0.950 . S
H454 C422 0.951 . S
H455 C423 0.950 . S
H456 C427 0.949 . S
H457 C428 0.950 . S
H458 C432 0.950 . S
H459 C434 0.950 . S
H460 C437 0.950 . S
H461 C439 0.950 . S
C462 C463 1.443 . S
C462 N466 1.376 1_556 S
C462 C500 1.389 . S
C463 C462 1.443 . S
C463 C464 1.340 1_556 S
C463 H503 0.951 . S
C464 C463 1.340 1_554 S
C464 C465 1.439 . S
C464 H504 0.950 . S
C465 C464 1.439 . S
C465 N466 1.374 . S
C465 C499 1.395 . S
N466 C462 1.376 1_554 S
N466 C465 1.374 . S
N466 Co467 2.008 . S
Co467 N466 2.008 . S
Co467 N468 1.995 . S
Co467 N473 2.008 . S
Co467 N478 1.995 . S
Co467 N483 2.282 1_554 S
Co467 N489 2.282 . S
N468 Co467 1.995 . S
N468 C469 1.376 . S
N468 C472 1.383 . S
C469 N468 1.376 . S
C469 C470 1.446 . S
C469 C499 1.391 . S
C470 C469 1.446 . S
C470 C471 1.339 . S
C470 H505 0.949 . S
C471 C470 1.339 . S
C471 C472 1.439 . S
C471 H506 0.950 . S
C472 N468 1.383 . S
C472 C471 1.439 . S
C472 C501 1.392 . S
N473 Co467 2.008 . S
N473 C474 1.376 . S
N473 C477 1.374 . S
C474 N473 1.376 . S
C474 C475 1.443 . S
C474 C501 1.389 . S
C475 C474 1.443 . S
C475 C476 1.340 . S
C475 H507 0.951 . S
C476 C475 1.340 . S
C476 C477 1.439 . S
C476 H508 0.950 . S
C477 N473 1.374 . S
C477 C476 1.439 . S
C477 C502 1.395 . S
N478 Co467 1.995 . S
N478 C479 1.376 . S
N478 C482 1.383 1_554 S
C479 N478 1.376 . S
C479 C480 1.446 1_554 S
C479 C502 1.391 . S
C480 C479 1.446 1_556 S
C480 C481 1.339 . S
C480 H509 0.949 . S
C481 C480 1.339 . S
C481 C482 1.439 . S
C481 H510 0.950 . S
C482 N478 1.383 1_556 S
C482 C481 1.439 . S
C482 C500 1.392 . S
N483 Co467 2.282 1_556 S
N483 C486 1.332 . S
N483 C488 1.332 . S
C484 C485 1.386 . S
C484 C487 1.388 . S
C485 C484 1.386 . S
C485 C486 1.382 . S
C485 H511 0.950 . S
C486 N483 1.332 . S
C486 C485 1.382 . S
C486 H497 0.952 . S
C487 C484 1.388 . S
C487 C488 1.382 . S
C487 H512 0.950 . S
C488 N483 1.332 . S
C488 C487 1.382 . S
C488 H498 0.948 1_556 S
N489 Co467 2.282 . S
N489 C493 1.332 . S
N489 C494 1.332 . S
C490 C491 1.388 . S
C490 C494 1.382 . S
C490 H513 0.950 . S
C491 C490 1.388 . S
C491 C492 1.386 . S
C492 C491 1.386 . S
C492 C493 1.382 . S
C492 H514 0.950 . S
C493 N489 1.332 . S
C493 C492 1.382 . S
C493 H495 0.952 . S
C494 N489 1.332 . S
C494 C490 1.382 . S
C494 H496 0.948 . S
H495 C493 0.952 . S
H496 C494 0.948 . S
H497 C486 0.952 . S
H498 C488 0.948 1_554 S
C499 C465 1.395 . S
C499 C469 1.391 . S
C500 C462 1.389 . S
C500 C482 1.392 . S
C501 C472 1.392 . S
C501 C474 1.389 . S
C502 C477 1.395 . S
C502 C479 1.391 . S
H503 C463 0.951 . S
H504 C464 0.950 . S
H505 C470 0.949 . S
H506 C471 0.950 . S
H507 C475 0.951 . S
H508 C476 0.950 . S
H509 C480 0.949 . S
H510 C481 0.950 . S
H511 C485 0.950 . S
H512 C487 0.950 . S
H513 C490 0.950 . S
H514 C492 0.950 . S
C515 C516 1.443 . S
C515 N519 1.376 . S
C515 C553 1.389 . S
C516 C515 1.443 . S
C516 C517 1.340 . S
C516 H556 0.951 . S
C517 C516 1.340 . S
C517 C518 1.439 . S
C517 H557 0.950 . S
C518 C517 1.439 . S
C518 N519 1.374 . S
C518 C552 1.395 1_554 S
N519 C515 1.376 . S
N519 C518 1.374 . S
N519 Co520 2.008 . S
Co520 N519 2.008 . S
Co520 N521 1.995 1_554 S
Co520 N526 2.008 1_554 S
Co520 N531 1.995 . S
Co520 N536 2.282 . S
Co520 N542 2.282 1_554 S
N521 Co520 1.995 1_556 S
N521 C522 1.376 . S
N521 C525 1.383 . S
C522 N521 1.376 . S
C522 C523 1.446 . S
C522 C552 1.391 . S
C523 C522 1.446 . S
C523 C524 1.339 . S
C523 H558 0.949 . S
C524 C523 1.339 . S
C524 C525 1.439 . S
C524 H559 0.950 . S
C525 N521 1.383 . S
C525 C524 1.439 . S
C525 C554 1.392 . S
N526 Co520 2.008 1_556 S
N526 C527 1.376 . S
N526 C530 1.374 1_556 S
C527 N526 1.376 . S
C527 C528 1.443 . S
C527 C554 1.389 . S
C528 C527 1.443 . S
C528 C529 1.340 . S
C528 H560 0.951 . S
C529 C528 1.340 . S
C529 C530 1.439 1_556 S
C529 H561 0.950 . S
C530 N526 1.374 1_554 S
C530 C529 1.439 1_554 S
C530 C555 1.395 . S
N531 Co520 1.995 . S
N531 C532 1.376 . S
N531 C535 1.383 . S
C532 N531 1.376 . S
C532 C533 1.446 . S
C532 C555 1.391 . S
C533 C532 1.446 . S
C533 C534 1.339 . S
C533 H562 0.949 . S
C534 C533 1.339 . S
C534 C535 1.439 . S
C534 H563 0.950 . S
C535 N531 1.383 . S
C535 C534 1.439 . S
C535 C553 1.392 . S
N536 Co520 2.282 . S
N536 C539 1.332 . S
N536 C541 1.332 . S
C537 C538 1.386 . S
C537 C540 1.388 . S
C538 C537 1.386 . S
C538 C539 1.382 . S
C538 H564 0.950 . S
C539 N536 1.332 . S
C539 C538 1.382 . S
C539 H550 0.952 . S
C540 C537 1.388 . S
C540 C541 1.382 . S
C540 H565 0.950 . S
C541 N536 1.332 . S
C541 C540 1.382 . S
C541 H551 0.948 . S
N542 Co520 2.282 1_556 S
N542 C546 1.332 . S
N542 C547 1.332 . S
C543 C544 1.388 . S
C543 C547 1.382 . S
C543 H566 0.950 . S
C544 C543 1.388 . S
C544 C545 1.386 . S
C545 C544 1.386 . S
C545 C546 1.382 . S
C545 H567 0.950 . S
C546 N542 1.332 . S
C546 C545 1.382 . S
C546 H548 0.952 . S
C547 N542 1.332 . S
C547 C543 1.382 . S
C547 H549 0.948 . S
H548 C546 0.952 . S
H549 C547 0.948 . S
H550 C539 0.952 . S
H551 C541 0.948 . S
C552 C518 1.395 1_556 S
C552 C522 1.391 . S
C553 C515 1.389 . S
C553 C535 1.392 . S
C554 C525 1.392 . S
C554 C527 1.389 . S
C555 C530 1.395 . S
C555 C532 1.391 . S
H556 C516 0.951 . S
H557 C517 0.950 . S
H558 C523 0.949 . S
H559 C524 0.950 . S
H560 C528 0.951 . S
H561 C529 0.950 . S
H562 C533 0.949 . S
H563 C534 0.950 . S
H564 C538 0.950 . S
H565 C540 0.950 . S
H566 C543 0.950 . S
H567 C545 0.950 . S
C568 C569 1.391 . S
C568 C570 1.394 . S
C568 H584 0.931 . S
C569 C568 1.391 . S
C569 C573 1.376 . S
C570 C568 1.394 . S
C570 C571 1.369 . S
C570 C574 1.531 . S
C571 C570 1.369 . S
C571 C572 1.410 . S
C571 C579 1.503 . S
C572 C571 1.410 . S
C572 C573 1.392 . S
C572 C575 1.511 . S
C573 C569 1.376 . S
C573 C572 1.392 . S
C573 H585 0.929 . S
C574 C570 1.531 . S
C574 H586 0.960 . S
C574 H587 0.962 . S
C574 H588 0.960 . S
C575 C572 1.511 . S
C575 H589 0.961 . S
C575 H590 0.961 . S
C575 H591 0.961 . S
C576 C577 1.370 . S
C576 C578 1.363 . S
C576 H592 0.931 . S
C577 C576 1.370 . S
C577 C581 1.408 . S
C578 C576 1.363 . S
C578 C579 1.370 . S
C578 C582 1.524 . S
C579 C571 1.503 . S
C579 C578 1.370 . S
C579 C580 1.403 . S
C580 C579 1.403 . S
C580 C581 1.404 . S
C580 C583 1.539 . S
C581 C577 1.408 . S
C581 C580 1.404 . S
C581 H593 0.930 . S
C582 C578 1.524 . S
C582 H594 0.956 . S
C582 H595 0.961 . S
C582 H596 0.961 . S
C583 C580 1.539 . S
C583 H597 0.958 . S
C583 H598 0.961 . S
C583 H599 0.960 . S
H584 C568 0.931 . S
H585 C573 0.929 . S
H586 C574 0.960 . S
H587 C574 0.962 . S
H588 C574 0.960 . S
H589 C575 0.961 . S
H590 C575 0.961 . S
H591 C575 0.961 . S
H592 C576 0.931 . S
H593 C581 0.930 . S
H594 C582 0.956 . S
H595 C582 0.961 . S
H596 C582 0.961 . S
H597 C583 0.958 . S
H598 C583 0.961 . S
H599 C583 0.960 . S
C600 C601 1.391 . S
C600 C602 1.394 . S
C600 H616 0.931 . S
C601 C600 1.391 . S
C601 C605 1.376 . S
C602 C600 1.394 . S
C602 C603 1.369 . S
C602 C606 1.531 . S
C603 C602 1.369 . S
C603 C604 1.410 . S
C603 C611 1.503 . S
C604 C603 1.410 . S
C604 C605 1.392 . S
C604 C607 1.511 . S
C605 C601 1.376 . S
C605 C604 1.392 . S
C605 H617 0.929 . S
C606 C602 1.531 . S
C606 H618 0.960 . S
C606 H619 0.962 . S
C606 H620 0.960 . S
C607 C604 1.511 . S
C607 H621 0.961 . S
C607 H622 0.961 . S
C607 H623 0.961 . S
C608 C609 1.370 . S
C608 C610 1.363 . S
C608 H624 0.931 . S
C609 C608 1.370 . S
C609 C613 1.408 . S
C610 C608 1.363 . S
C610 C611 1.370 . S
C610 C614 1.524 . S
C611 C603 1.503 . S
C611 C610 1.370 . S
C611 C612 1.403 . S
C612 C611 1.403 . S
C612 C613 1.404 . S
C612 C615 1.539 . S
C613 C609 1.408 . S
C613 C612 1.404 . S
C613 H625 0.930 . S
C614 C610 1.524 . S
C614 H626 0.956 . S
C614 H627 0.961 . S
C614 H628 0.961 . S
C615 C612 1.539 . S
C615 H629 0.958 . S
C615 H630 0.961 . S
C615 H631 0.960 . S
H616 C600 0.931 . S
H617 C605 0.929 . S
H618 C606 0.960 . S
H619 C606 0.962 . S
H620 C606 0.960 . S
H621 C607 0.961 . S
H622 C607 0.961 . S
H623 C607 0.961 . S
H624 C608 0.931 . S
H625 C613 0.930 . S
H626 C614 0.956 . S
H627 C614 0.961 . S
H628 C614 0.961 . S
H629 C615 0.958 . S
H630 C615 0.961 . S
H631 C615 0.960 . S
C632 C633 1.391 . S
C632 C634 1.394 . S
C632 H648 0.931 . S
C633 C632 1.391 . S
C633 C637 1.376 . S
C634 C632 1.394 . S
C634 C635 1.369 . S
C634 C638 1.531 . S
C635 C634 1.369 . S
C635 C636 1.410 . S
C635 C643 1.503 . S
C636 C635 1.410 . S
C636 C637 1.392 . S
C636 C639 1.511 . S
C637 C633 1.376 . S
C637 C636 1.392 . S
C637 H649 0.929 . S
C638 C634 1.531 . S
C638 H650 0.960 . S
C638 H651 0.962 . S
C638 H652 0.960 . S
C639 C636 1.511 . S
C639 H653 0.961 . S
C639 H654 0.961 . S
C639 H655 0.961 . S
C640 C641 1.370 . S
C640 C642 1.363 . S
C640 H656 0.931 . S
C641 C640 1.370 . S
C641 C645 1.408 . S
C642 C640 1.363 . S
C642 C643 1.370 . S
C642 C646 1.524 . S
C643 C635 1.503 . S
C643 C642 1.370 . S
C643 C644 1.403 . S
C644 C643 1.403 . S
C644 C645 1.404 . S
C644 C647 1.539 . S
C645 C641 1.408 . S
C645 C644 1.404 . S
C645 H657 0.930 . S
C646 C642 1.524 . S
C646 H658 0.956 . S
C646 H659 0.961 . S
C646 H660 0.961 . S
C647 C644 1.539 . S
C647 H661 0.958 . S
C647 H662 0.961 . S
C647 H663 0.960 . S
H648 C632 0.931 . S
H649 C637 0.929 . S
H650 C638 0.960 . S
H651 C638 0.962 . S
H652 C638 0.960 . S
H653 C639 0.961 . S
H654 C639 0.961 . S
H655 C639 0.961 . S
H656 C640 0.931 . S
H657 C645 0.930 . S
H658 C646 0.956 . S
H659 C646 0.961 . S
H660 C646 0.961 . S
H661 C647 0.958 . S
H662 C647 0.961 . S
H663 C647 0.960 . S
C664 C665 1.391 . S
C664 C666 1.394 . S
C664 H680 0.931 . S
C665 C664 1.391 . S
C665 C669 1.376 . S
C666 C664 1.394 . S
C666 C667 1.369 . S
C666 C670 1.531 . S
C667 C666 1.369 . S
C667 C668 1.410 . S
C667 C675 1.503 . S
C668 C667 1.410 . S
C668 C669 1.392 . S
C668 C671 1.511 . S
C669 C665 1.376 . S
C669 C668 1.392 . S
C669 H681 0.929 . S
C670 C666 1.531 . S
C670 H682 0.960 . S
C670 H683 0.962 . S
C670 H684 0.960 . S
C671 C668 1.511 . S
C671 H685 0.961 . S
C671 H686 0.961 . S
C671 H687 0.961 . S
C672 C673 1.370 . S
C672 C674 1.363 . S
C672 H688 0.931 . S
C673 C672 1.370 . S
C673 C677 1.408 . S
C674 C672 1.363 . S
C674 C675 1.370 . S
C674 C678 1.524 . S
C675 C667 1.503 . S
C675 C674 1.370 . S
C675 C676 1.403 . S
C676 C675 1.403 . S
C676 C677 1.404 . S
C676 C679 1.539 . S
C677 C673 1.408 . S
C677 C676 1.404 . S
C677 H689 0.930 . S
C678 C674 1.524 . S
C678 H690 0.956 . S
C678 H691 0.961 . S
C678 H692 0.961 . S
C679 C676 1.539 . S
C679 H693 0.958 . S
C679 H694 0.961 . S
C679 H695 0.960 . S
H680 C664 0.931 . S
H681 C669 0.929 . S
H682 C670 0.960 . S
H683 C670 0.962 . S
H684 C670 0.960 . S
H685 C671 0.961 . S
H686 C671 0.961 . S
H687 C671 0.961 . S
H688 C672 0.931 . S
H689 C677 0.930 . S
H690 C678 0.956 . S
H691 C678 0.961 . S
H692 C678 0.961 . S
H693 C679 0.958 . S
H694 C679 0.961 . S
H695 C679 0.960 . S
C696 C697 1.391 . S
C696 C698 1.394 . S
C696 H712 0.931 . S
C697 C696 1.391 . S
C697 C701 1.376 . S
C698 C696 1.394 . S
C698 C699 1.369 . S
C698 C702 1.531 . S
C699 C698 1.369 . S
C699 C700 1.410 . S
C699 C707 1.503 . S
C700 C699 1.410 . S
C700 C701 1.392 . S
C700 C703 1.511 . S
C701 C697 1.376 . S
C701 C700 1.392 . S
C701 H713 0.929 . S
C702 C698 1.531 . S
C702 H714 0.960 . S
C702 H715 0.962 . S
C702 H716 0.960 . S
C703 C700 1.511 . S
C703 H717 0.961 . S
C703 H718 0.961 . S
C703 H719 0.961 . S
C704 C705 1.370 . S
C704 C706 1.363 . S
C704 H720 0.931 . S
C705 C704 1.370 . S
C705 C709 1.408 . S
C706 C704 1.363 . S
C706 C707 1.370 . S
C706 C710 1.524 . S
C707 C699 1.503 . S
C707 C706 1.370 . S
C707 C708 1.403 . S
C708 C707 1.403 . S
C708 C709 1.404 . S
C708 C711 1.539 . S
C709 C705 1.408 . S
C709 C708 1.404 . S
C709 H721 0.930 . S
C710 C706 1.524 . S
C710 H722 0.956 . S
C710 H723 0.961 . S
C710 H724 0.961 . S
C711 C708 1.539 . S
C711 H725 0.958 . S
C711 H726 0.961 . S
C711 H727 0.960 . S
H712 C696 0.931 . S
H713 C701 0.929 . S
H714 C702 0.960 . S
H715 C702 0.962 . S
H716 C702 0.960 . S
H717 C703 0.961 . S
H718 C703 0.961 . S
H719 C703 0.961 . S
H720 C704 0.931 . S
H721 C709 0.930 . S
H722 C710 0.956 . S
H723 C710 0.961 . S
H724 C710 0.961 . S
H725 C711 0.958 . S
H726 C711 0.961 . S
H727 C711 0.960 . S
C728 C729 1.391 . S
C728 C730 1.394 . S
C728 H744 0.931 . S
C729 C728 1.391 . S
C729 C733 1.376 . S
C730 C728 1.394 . S
C730 C731 1.369 . S
C730 C734 1.531 . S
C731 C730 1.369 . S
C731 C732 1.410 . S
C731 C739 1.503 . S
C732 C731 1.410 . S
C732 C733 1.392 . S
C732 C735 1.511 . S
C733 C729 1.376 . S
C733 C732 1.392 . S
C733 H745 0.929 . S
C734 C730 1.531 . S
C734 H746 0.960 . S
C734 H747 0.962 . S
C734 H748 0.960 . S
C735 C732 1.511 . S
C735 H749 0.961 . S
C735 H750 0.961 . S
C735 H751 0.961 . S
C736 C737 1.370 . S
C736 C738 1.363 . S
C736 H752 0.931 . S
C737 C736 1.370 . S
C737 C741 1.408 . S
C738 C736 1.363 . S
C738 C739 1.370 . S
C738 C742 1.524 . S
C739 C731 1.503 . S
C739 C738 1.370 . S
C739 C740 1.403 . S
C740 C739 1.403 . S
C740 C741 1.404 . S
C740 C743 1.539 . S
C741 C737 1.408 . S
C741 C740 1.404 . S
C741 H753 0.930 . S
C742 C738 1.524 . S
C742 H754 0.956 . S
C742 H755 0.961 . S
C742 H756 0.961 . S
C743 C740 1.539 . S
C743 H757 0.958 . S
C743 H758 0.961 . S
C743 H759 0.960 . S
H744 C728 0.931 . S
H745 C733 0.929 . S
H746 C734 0.960 . S
H747 C734 0.962 . S
H748 C734 0.960 . S
H749 C735 0.961 . S
H750 C735 0.961 . S
H751 C735 0.961 . S
H752 C736 0.931 . S
H753 C741 0.930 . S
H754 C742 0.956 . S
H755 C742 0.961 . S
H756 C742 0.961 . S
H757 C743 0.958 . S
H758 C743 0.961 . S
H759 C743 0.960 . S
C760 C761 1.391 . S
C760 C762 1.394 . S
C760 H776 0.931 . S
C761 C760 1.391 . S
C761 C765 1.376 . S
C762 C760 1.394 . S
C762 C763 1.369 . S
C762 C766 1.531 . S
C763 C762 1.369 . S
C763 C764 1.410 . S
C763 C771 1.503 . S
C764 C763 1.410 . S
C764 C765 1.392 . S
C764 C767 1.511 . S
C765 C761 1.376 . S
C765 C764 1.392 . S
C765 H777 0.929 . S
C766 C762 1.531 . S
C766 H778 0.960 . S
C766 H779 0.962 . S
C766 H780 0.960 . S
C767 C764 1.511 . S
C767 H781 0.961 . S
C767 H782 0.961 . S
C767 H783 0.961 . S
C768 C769 1.370 . S
C768 C770 1.363 . S
C768 H784 0.931 . S
C769 C768 1.370 . S
C769 C773 1.408 . S
C770 C768 1.363 . S
C770 C771 1.370 . S
C770 C774 1.524 . S
C771 C763 1.503 . S
C771 C770 1.370 . S
C771 C772 1.403 . S
C772 C771 1.403 . S
C772 C773 1.404 . S
C772 C775 1.539 . S
C773 C769 1.408 . S
C773 C772 1.404 . S
C773 H785 0.930 . S
C774 C770 1.524 . S
C774 H786 0.956 . S
C774 H787 0.961 . S
C774 H788 0.961 . S
C775 C772 1.539 . S
C775 H789 0.958 . S
C775 H790 0.961 . S
C775 H791 0.960 . S
H776 C760 0.931 . S
H777 C765 0.929 . S
H778 C766 0.960 . S
H779 C766 0.962 . S
H780 C766 0.960 . S
H781 C767 0.961 . S
H782 C767 0.961 . S
H783 C767 0.961 . S
H784 C768 0.931 . S
H785 C773 0.930 . S
H786 C774 0.956 . S
H787 C774 0.961 . S
H788 C774 0.961 . S
H789 C775 0.958 . S
H790 C775 0.961 . S
H791 C775 0.960 . S
C792 C793 1.391 . S
C792 C794 1.394 . S
C792 H808 0.931 . S
C793 C792 1.391 . S
C793 C797 1.376 . S
C794 C792 1.394 . S
C794 C795 1.369 . S
C794 C798 1.531 . S
C795 C794 1.369 . S
C795 C796 1.410 . S
C795 C803 1.503 . S
C796 C795 1.410 . S
C796 C797 1.392 . S
C796 C799 1.511 . S
C797 C793 1.376 . S
C797 C796 1.392 . S
C797 H809 0.929 . S
C798 C794 1.531 . S
C798 H810 0.960 . S
C798 H811 0.962 . S
C798 H812 0.960 . S
C799 C796 1.511 . S
C799 H813 0.961 . S
C799 H814 0.961 . S
C799 H815 0.961 . S
C800 C801 1.370 . S
C800 C802 1.363 . S
C800 H816 0.931 . S
C801 C800 1.370 . S
C801 C805 1.408 . S
C802 C800 1.363 . S
C802 C803 1.370 . S
C802 C806 1.524 . S
C803 C795 1.503 . S
C803 C802 1.370 . S
C803 C804 1.403 . S
C804 C803 1.403 . S
C804 C805 1.404 . S
C804 C807 1.539 . S
C805 C801 1.408 . S
C805 C804 1.404 . S
C805 H817 0.930 . S
C806 C802 1.524 . S
C806 H818 0.956 . S
C806 H819 0.961 . S
C806 H820 0.961 . S
C807 C804 1.539 . S
C807 H821 0.958 . S
C807 H822 0.961 . S
C807 H823 0.960 . S
H808 C792 0.931 . S
H809 C797 0.929 . S
H810 C798 0.960 . S
H811 C798 0.962 . S
H812 C798 0.960 . S
H813 C799 0.961 . S
H814 C799 0.961 . S
H815 C799 0.961 . S
H816 C800 0.931 . S
H817 C805 0.930 . S
H818 C806 0.956 . S
H819 C806 0.961 . S
H820 C806 0.961 . S
H821 C807 0.958 . S
H822 C807 0.961 . S
H823 C807 0.960 . S
C824 C825 1.391 . S
C824 C826 1.394 . S
C824 H840 0.931 . S
C825 C824 1.391 . S
C825 C829 1.376 . S
C826 C824 1.394 . S
C826 C827 1.369 . S
C826 C830 1.531 . S
C827 C826 1.369 . S
C827 C828 1.410 . S
C827 C835 1.503 . S
C828 C827 1.410 . S
C828 C829 1.392 . S
C828 C831 1.511 . S
C829 C825 1.376 . S
C829 C828 1.392 . S
C829 H841 0.929 . S
C830 C826 1.531 . S
C830 H842 0.960 . S
C830 H843 0.962 . S
C830 H844 0.960 . S
C831 C828 1.511 . S
C831 H845 0.961 . S
C831 H846 0.961 . S
C831 H847 0.961 . S
C832 C833 1.370 . S
C832 C834 1.363 . S
C832 H848 0.931 . S
C833 C832 1.370 . S
C833 C837 1.408 . S
C834 C832 1.363 . S
C834 C835 1.370 . S
C834 C838 1.524 . S
C835 C827 1.503 . S
C835 C834 1.370 . S
C835 C836 1.403 . S
C836 C835 1.403 . S
C836 C837 1.404 . S
C836 C839 1.539 . S
C837 C833 1.408 . S
C837 C836 1.404 . S
C837 H849 0.930 . S
C838 C834 1.524 . S
C838 H850 0.956 . S
C838 H851 0.961 . S
C838 H852 0.961 . S
C839 C836 1.539 . S
C839 H853 0.958 . S
C839 H854 0.961 . S
C839 H855 0.960 . S
H840 C824 0.931 . S
H841 C829 0.929 . S
H842 C830 0.960 . S
H843 C830 0.962 . S
H844 C830 0.960 . S
H845 C831 0.961 . S
H846 C831 0.961 . S
H847 C831 0.961 . S
H848 C832 0.931 . S
H849 C837 0.930 . S
H850 C838 0.956 . S
H851 C838 0.961 . S
H852 C838 0.961 . S
H853 C839 0.958 . S
H854 C839 0.961 . S
H855 C839 0.960 . S
C856 C857 1.391 . S
C856 C858 1.394 . S
C856 H872 0.931 . S
C857 C856 1.391 . S
C857 C861 1.376 . S
C858 C856 1.394 . S
C858 C859 1.369 . S
C858 C862 1.531 . S
C859 C858 1.369 . S
C859 C860 1.410 . S
C859 C867 1.503 . S
C860 C859 1.410 . S
C860 C861 1.392 . S
C860 C863 1.511 . S
C861 C857 1.376 . S
C861 C860 1.392 . S
C861 H873 0.929 . S
C862 C858 1.531 . S
C862 H874 0.960 . S
C862 H875 0.962 . S
C862 H876 0.960 . S
C863 C860 1.511 . S
C863 H877 0.961 . S
C863 H878 0.961 . S
C863 H879 0.961 . S
C864 C865 1.370 . S
C864 C866 1.363 . S
C864 H880 0.931 . S
C865 C864 1.370 . S
C865 C869 1.408 . S
C866 C864 1.363 . S
C866 C867 1.370 . S
C866 C870 1.524 . S
C867 C859 1.503 . S
C867 C866 1.370 . S
C867 C868 1.403 . S
C868 C867 1.403 . S
C868 C869 1.404 . S
C868 C871 1.539 . S
C869 C865 1.408 . S
C869 C868 1.404 . S
C869 H881 0.930 . S
C870 C866 1.524 . S
C870 H882 0.956 . S
C870 H883 0.961 . S
C870 H884 0.961 . S
C871 C868 1.539 . S
C871 H885 0.958 . S
C871 H886 0.961 . S
C871 H887 0.960 . S
H872 C856 0.931 . S
H873 C861 0.929 . S
H874 C862 0.960 . S
H875 C862 0.962 . S
H876 C862 0.960 . S
H877 C863 0.961 . S
H878 C863 0.961 . S
H879 C863 0.961 . S
H880 C864 0.931 . S
H881 C869 0.930 . S
H882 C870 0.956 . S
H883 C870 0.961 . S
H884 C870 0.961 . S
H885 C871 0.958 . S
H886 C871 0.961 . S
H887 C871 0.960 . S
C888 C889 1.391 . S
C888 C890 1.394 . S
C888 H904 0.931 . S
C889 C888 1.391 . S
C889 C893 1.376 . S
C890 C888 1.394 . S
C890 C891 1.369 . S
C890 C894 1.531 . S
C891 C890 1.369 . S
C891 C892 1.410 . S
C891 C899 1.503 . S
C892 C891 1.410 . S
C892 C893 1.392 . S
C892 C895 1.511 . S
C893 C889 1.376 . S
C893 C892 1.392 . S
C893 H905 0.929 . S
C894 C890 1.531 . S
C894 H906 0.960 . S
C894 H907 0.962 . S
C894 H908 0.960 . S
C895 C892 1.511 . S
C895 H909 0.961 . S
C895 H910 0.961 . S
C895 H911 0.961 . S
C896 C897 1.370 . S
C896 C898 1.363 . S
C896 H912 0.931 . S
C897 C896 1.370 . S
C897 C901 1.408 . S
C898 C896 1.363 . S
C898 C899 1.370 . S
C898 C902 1.524 . S
C899 C891 1.503 . S
C899 C898 1.370 . S
C899 C900 1.403 . S
C900 C899 1.403 . S
C900 C901 1.404 . S
C900 C903 1.539 . S
C901 C897 1.408 . S
C901 C900 1.404 . S
C901 H913 0.930 . S
C902 C898 1.524 . S
C902 H914 0.956 . S
C902 H915 0.961 . S
C902 H916 0.961 . S
C903 C900 1.539 . S
C903 H917 0.958 . S
C903 H918 0.961 . S
C903 H919 0.960 . S
H904 C888 0.931 . S
H905 C893 0.929 . S
H906 C894 0.960 . S
H907 C894 0.962 . S
H908 C894 0.960 . S
H909 C895 0.961 . S
H910 C895 0.961 . S
H911 C895 0.961 . S
H912 C896 0.931 . S
H913 C901 0.930 . S
H914 C902 0.956 . S
H915 C902 0.961 . S
H916 C902 0.961 . S
H917 C903 0.958 . S
H918 C903 0.961 . S
H919 C903 0.960 . S
C920 C921 1.391 . S
C920 C922 1.394 . S
C920 H936 0.931 . S
C921 C920 1.391 . S
C921 C925 1.376 . S
C922 C920 1.394 . S
C922 C923 1.369 . S
C922 C926 1.531 . S
C923 C922 1.369 . S
C923 C924 1.410 . S
C923 C931 1.503 . S
C924 C923 1.410 . S
C924 C925 1.392 . S
C924 C927 1.511 . S
C925 C921 1.376 . S
C925 C924 1.392 . S
C925 H937 0.929 . S
C926 C922 1.531 . S
C926 H938 0.960 . S
C926 H939 0.962 . S
C926 H940 0.960 . S
C927 C924 1.511 . S
C927 H941 0.961 . S
C927 H942 0.961 . S
C927 H943 0.961 . S
C928 C929 1.370 . S
C928 C930 1.363 . S
C928 H944 0.931 . S
C929 C928 1.370 . S
C929 C933 1.408 . S
C930 C928 1.363 . S
C930 C931 1.370 . S
C930 C934 1.524 . S
C931 C923 1.503 . S
C931 C930 1.370 . S
C931 C932 1.403 . S
C932 C931 1.403 . S
C932 C933 1.404 . S
C932 C935 1.539 . S
C933 C929 1.408 . S
C933 C932 1.404 . S
C933 H945 0.930 . S
C934 C930 1.524 . S
C934 H946 0.956 . S
C934 H947 0.961 . S
C934 H948 0.961 . S
C935 C932 1.539 . S
C935 H949 0.958 . S
C935 H950 0.961 . S
C935 H951 0.960 . S
H936 C920 0.931 . S
H937 C925 0.929 . S
H938 C926 0.960 . S
H939 C926 0.962 . S
H940 C926 0.960 . S
H941 C927 0.961 . S
H942 C927 0.961 . S
H943 C927 0.961 . S
H944 C928 0.931 . S
H945 C933 0.930 . S
H946 C934 0.956 . S
H947 C934 0.961 . S
H948 C934 0.961 . S
H949 C935 0.958 . S
H950 C935 0.961 . S
H951 C935 0.960 . S
C952 C953 1.391 . S
C952 C954 1.394 . S
C952 H968 0.931 . S
C953 C952 1.391 . S
C953 C957 1.376 . S
C954 C952 1.394 . S
C954 C955 1.369 . S
C954 C958 1.531 . S
C955 C954 1.369 . S
C955 C956 1.410 . S
C955 C963 1.503 . S
C956 C955 1.410 . S
C956 C957 1.392 . S
C956 C959 1.511 . S
C957 C953 1.376 . S
C957 C956 1.392 . S
C957 H969 0.929 . S
C958 C954 1.531 . S
C958 H970 0.960 . S
C958 H971 0.962 . S
C958 H972 0.960 . S
C959 C956 1.511 . S
C959 H973 0.961 . S
C959 H974 0.961 . S
C959 H975 0.961 . S
C960 C961 1.370 . S
C960 C962 1.363 . S
C960 H976 0.931 . S
C961 C960 1.370 . S
C961 C965 1.408 . S
C962 C960 1.363 . S
C962 C963 1.370 . S
C962 C966 1.524 . S
C963 C955 1.503 . S
C963 C962 1.370 . S
C963 C964 1.403 . S
C964 C963 1.403 . S
C964 C965 1.404 . S
C964 C967 1.539 . S
C965 C961 1.408 . S
C965 C964 1.404 . S
C965 H977 0.930 . S
C966 C962 1.524 . S
C966 H978 0.956 . S
C966 H979 0.961 . S
C966 H980 0.961 . S
C967 C964 1.539 . S
C967 H981 0.958 . S
C967 H982 0.961 . S
C967 H983 0.960 . S
H968 C952 0.931 . S
H969 C957 0.929 . S
H970 C958 0.960 . S
H971 C958 0.962 . S
H972 C958 0.960 . S
H973 C959 0.961 . S
H974 C959 0.961 . S
H975 C959 0.961 . S
H976 C960 0.931 . S
H977 C965 0.930 . S
H978 C966 0.956 . S
H979 C966 0.961 . S
H980 C966 0.961 . S
H981 C967 0.958 . S
H982 C967 0.961 . S
H983 C967 0.960 . S
C984 C985 1.391 . S
C984 C986 1.394 . S
C984 H1000 0.931 . S
C985 C984 1.391 . S
C985 C989 1.376 . S
C986 C984 1.394 . S
C986 C987 1.369 . S
C986 C990 1.531 . S
C987 C986 1.369 . S
C987 C988 1.410 . S
C987 C995 1.503 . S
C988 C987 1.410 . S
C988 C989 1.392 . S
C988 C991 1.511 . S
C989 C985 1.376 . S
C989 C988 1.392 . S
C989 H1001 0.929 . S
C990 C986 1.531 . S
C990 H1002 0.960 . S
C990 H1003 0.962 . S
C990 H1004 0.960 . S
C991 C988 1.511 . S
C991 H1005 0.961 . S
C991 H1006 0.961 . S
C991 H1007 0.961 . S
C992 C993 1.370 . S
C992 C994 1.363 . S
C992 H1008 0.931 . S
C993 C992 1.370 . S
C993 C997 1.408 . S
C994 C992 1.363 . S
C994 C995 1.370 . S
C994 C998 1.524 . S
C995 C987 1.503 . S
C995 C994 1.370 . S
C995 C996 1.403 . S
C996 C995 1.403 . S
C996 C997 1.404 . S
C996 C999 1.539 . S
C997 C993 1.408 . S
C997 C996 1.404 . S
C997 H1009 0.930 . S
C998 C994 1.524 . S
C998 H1010 0.956 . S
C998 H1011 0.961 . S
C998 H1012 0.961 . S
C999 C996 1.539 . S
C999 H1013 0.958 . S
C999 H1014 0.961 . S
C999 H1015 0.960 . S
H1000 C984 0.931 . S
H1001 C989 0.929 . S
H1002 C990 0.960 . S
H1003 C990 0.962 . S
H1004 C990 0.960 . S
H1005 C991 0.961 . S
H1006 C991 0.961 . S
H1007 C991 0.961 . S
H1008 C992 0.931 . S
H1009 C997 0.930 . S
H1010 C998 0.956 . S
H1011 C998 0.961 . S
H1012 C998 0.961 . S
H1013 C999 0.958 . S
H1014 C999 0.961 . S
H1015 C999 0.960 . S
C1016 C1017 1.391 . S
C1016 C1018 1.394 . S
C1016 H1032 0.931 . S
C1017 C1016 1.391 . S
C1017 C1021 1.376 . S
C1018 C1016 1.394 . S
C1018 C1019 1.369 . S
C1018 C1022 1.531 . S
C1019 C1018 1.369 . S
C1019 C1020 1.410 . S
C1019 C1027 1.503 . S
C1020 C1019 1.410 . S
C1020 C1021 1.392 . S
C1020 C1023 1.511 . S
C1021 C1017 1.376 . S
C1021 C1020 1.392 . S
C1021 H1033 0.929 . S
C1022 C1018 1.531 . S
C1022 H1034 0.960 . S
C1022 H1035 0.962 . S
C1022 H1036 0.960 . S
C1023 C1020 1.511 . S
C1023 H1037 0.961 . S
C1023 H1038 0.961 . S
C1023 H1039 0.961 . S
C1024 C1025 1.370 . S
C1024 C1026 1.363 . S
C1024 H1040 0.931 . S
C1025 C1024 1.370 . S
C1025 C1029 1.408 . S
C1026 C1024 1.363 . S
C1026 C1027 1.370 . S
C1026 C1030 1.524 . S
C1027 C1019 1.503 . S
C1027 C1026 1.370 . S
C1027 C1028 1.403 . S
C1028 C1027 1.403 . S
C1028 C1029 1.404 . S
C1028 C1031 1.539 . S
C1029 C1025 1.408 . S
C1029 C1028 1.404 . S
C1029 H1041 0.930 . S
C1030 C1026 1.524 . S
C1030 H1042 0.956 . S
C1030 H1043 0.961 . S
C1030 H1044 0.961 . S
C1031 C1028 1.539 . S
C1031 H1045 0.958 . S
C1031 H1046 0.961 . S
C1031 H1047 0.960 . S
H1032 C1016 0.931 . S
H1033 C1021 0.929 . S
H1034 C1022 0.960 . S
H1035 C1022 0.962 . S
H1036 C1022 0.960 . S
H1037 C1023 0.961 . S
H1038 C1023 0.961 . S
H1039 C1023 0.961 . S
H1040 C1024 0.931 . S
H1041 C1029 0.930 . S
H1042 C1030 0.956 . S
H1043 C1030 0.961 . S
H1044 C1030 0.961 . S
H1045 C1031 0.958 . S
H1046 C1031 0.961 . S
H1047 C1031 0.960 . S
C1048 C1049 1.391 . S
C1048 C1050 1.394 . S
C1048 H1064 0.931 . S
C1049 C1048 1.391 . S
C1049 C1053 1.376 . S
C1050 C1048 1.394 . S
C1050 C1051 1.369 . S
C1050 C1054 1.531 . S
C1051 C1050 1.369 . S
C1051 C1052 1.410 . S
C1051 C1059 1.503 . S
C1052 C1051 1.410 . S
C1052 C1053 1.392 . S
C1052 C1055 1.511 . S
C1053 C1049 1.376 . S
C1053 C1052 1.392 . S
C1053 H1065 0.929 . S
C1054 C1050 1.531 . S
C1054 H1066 0.960 . S
C1054 H1067 0.962 . S
C1054 H1068 0.960 . S
C1055 C1052 1.511 . S
C1055 H1069 0.961 . S
C1055 H1070 0.961 . S
C1055 H1071 0.961 . S
C1056 C1057 1.370 . S
C1056 C1058 1.363 . S
C1056 H1072 0.931 . S
C1057 C1056 1.370 . S
C1057 C1061 1.408 . S
C1058 C1056 1.363 . S
C1058 C1059 1.370 . S
C1058 C1062 1.524 . S
C1059 C1051 1.503 . S
C1059 C1058 1.370 . S
C1059 C1060 1.403 . S
C1060 C1059 1.403 . S
C1060 C1061 1.404 . S
C1060 C1063 1.539 . S
C1061 C1057 1.408 . S
C1061 C1060 1.404 . S
C1061 H1073 0.930 . S
C1062 C1058 1.524 . S
C1062 H1074 0.956 . S
C1062 H1075 0.961 . S
C1062 H1076 0.961 . S
C1063 C1060 1.539 . S
C1063 H1077 0.958 . S
C1063 H1078 0.961 . S
C1063 H1079 0.960 . S
H1064 C1048 0.931 . S
H1065 C1053 0.929 . S
H1066 C1054 0.960 . S
H1067 C1054 0.962 . S
H1068 C1054 0.960 . S
H1069 C1055 0.961 . S
H1070 C1055 0.961 . S
H1071 C1055 0.961 . S
H1072 C1056 0.931 . S
H1073 C1061 0.930 . S
H1074 C1062 0.956 . S
H1075 C1062 0.961 . S
H1076 C1062 0.961 . S
H1077 C1063 0.958 . S
H1078 C1063 0.961 . S
H1079 C1063 0.960 . S
C1080 C1081 1.391 . S
C1080 C1082 1.394 . S
C1080 H1096 0.931 . S
C1081 C1080 1.391 . S
C1081 C1085 1.376 . S
C1082 C1080 1.394 . S
C1082 C1083 1.369 . S
C1082 C1086 1.531 . S
C1083 C1082 1.369 . S
C1083 C1084 1.410 . S
C1083 C1091 1.503 . S
C1084 C1083 1.410 . S
C1084 C1085 1.392 . S
C1084 C1087 1.511 . S
C1085 C1081 1.376 . S
C1085 C1084 1.392 . S
C1085 H1097 0.929 . S
C1086 C1082 1.531 . S
C1086 H1098 0.960 . S
C1086 H1099 0.962 . S
C1086 H1100 0.960 . S
C1087 C1084 1.511 . S
C1087 H1101 0.961 . S
C1087 H1102 0.961 . S
C1087 H1103 0.961 . S
C1088 C1089 1.370 . S
C1088 C1090 1.363 . S
C1088 H1104 0.931 . S
C1089 C1088 1.370 . S
C1089 C1093 1.408 . S
C1090 C1088 1.363 . S
C1090 C1091 1.370 . S
C1090 C1094 1.524 . S
C1091 C1083 1.503 . S
C1091 C1090 1.370 . S
C1091 C1092 1.403 . S
C1092 C1091 1.403 . S
C1092 C1093 1.404 . S
C1092 C1095 1.539 . S
C1093 C1089 1.408 . S
C1093 C1092 1.404 . S
C1093 H1105 0.930 . S
C1094 C1090 1.524 . S
C1094 H1106 0.956 . S
C1094 H1107 0.961 . S
C1094 H1108 0.961 . S
C1095 C1092 1.539 . S
C1095 H1109 0.958 . S
C1095 H1110 0.961 . S
C1095 H1111 0.960 . S
H1096 C1080 0.931 . S
H1097 C1085 0.929 . S
H1098 C1086 0.960 . S
H1099 C1086 0.962 . S
H1100 C1086 0.960 . S
H1101 C1087 0.961 . S
H1102 C1087 0.961 . S
H1103 C1087 0.961 . S
H1104 C1088 0.931 . S
H1105 C1093 0.930 . S
H1106 C1094 0.956 . S
H1107 C1094 0.961 . S
H1108 C1094 0.961 . S
H1109 C1095 0.958 . S
H1110 C1095 0.961 . S
H1111 C1095 0.960 . S
C1112 C1113 1.391 . S
C1112 C1114 1.394 . S
C1112 H1128 0.931 . S
C1113 C1112 1.391 . S
C1113 C1117 1.376 . S
C1114 C1112 1.394 . S
C1114 C1115 1.369 . S
C1114 C1118 1.531 . S
C1115 C1114 1.369 . S
C1115 C1116 1.410 . S
C1115 C1123 1.503 . S
C1116 C1115 1.410 . S
C1116 C1117 1.392 . S
C1116 C1119 1.511 . S
C1117 C1113 1.376 . S
C1117 C1116 1.392 . S
C1117 H1129 0.929 . S
C1118 C1114 1.531 . S
C1118 H1130 0.960 . S
C1118 H1131 0.962 . S
C1118 H1132 0.960 . S
C1119 C1116 1.511 . S
C1119 H1133 0.961 . S
C1119 H1134 0.961 . S
C1119 H1135 0.961 . S
C1120 C1121 1.370 . S
C1120 C1122 1.363 . S
C1120 H1136 0.931 . S
C1121 C1120 1.370 . S
C1121 C1125 1.408 . S
C1122 C1120 1.363 . S
C1122 C1123 1.370 . S
C1122 C1126 1.524 . S
C1123 C1115 1.503 . S
C1123 C1122 1.370 . S
C1123 C1124 1.403 . S
C1124 C1123 1.403 . S
C1124 C1125 1.404 . S
C1124 C1127 1.539 . S
C1125 C1121 1.408 . S
C1125 C1124 1.404 . S
C1125 H1137 0.930 . S
C1126 C1122 1.524 . S
C1126 H1138 0.956 . S
C1126 H1139 0.961 . S
C1126 H1140 0.961 . S
C1127 C1124 1.539 . S
C1127 H1141 0.958 . S
C1127 H1142 0.961 . S
C1127 H1143 0.960 . S
H1128 C1112 0.931 . S
H1129 C1117 0.929 . S
H1130 C1118 0.960 . S
H1131 C1118 0.962 . S
H1132 C1118 0.960 . S
H1133 C1119 0.961 . S
H1134 C1119 0.961 . S
H1135 C1119 0.961 . S
H1136 C1120 0.931 . S
H1137 C1125 0.930 . S
H1138 C1126 0.956 . S
H1139 C1126 0.961 . S
H1140 C1126 0.961 . S
H1141 C1127 0.958 . S
H1142 C1127 0.961 . S
H1143 C1127 0.960 . S
C1144 C1145 1.391 . S
C1144 C1146 1.394 . S
C1144 H1160 0.931 . S
C1145 C1144 1.391 . S
C1145 C1149 1.376 . S
C1146 C1144 1.394 . S
C1146 C1147 1.369 . S
C1146 C1150 1.531 . S
C1147 C1146 1.369 . S
C1147 C1148 1.410 . S
C1147 C1155 1.503 . S
C1148 C1147 1.410 . S
C1148 C1149 1.392 . S
C1148 C1151 1.511 . S
C1149 C1145 1.376 . S
C1149 C1148 1.392 . S
C1149 H1161 0.929 . S
C1150 C1146 1.531 . S
C1150 H1162 0.960 . S
C1150 H1163 0.962 . S
C1150 H1164 0.960 . S
C1151 C1148 1.511 . S
C1151 H1165 0.961 . S
C1151 H1166 0.961 . S
C1151 H1167 0.961 . S
C1152 C1153 1.370 . S
C1152 C1154 1.363 . S
C1152 H1168 0.931 . S
C1153 C1152 1.370 . S
C1153 C1157 1.408 . S
C1154 C1152 1.363 . S
C1154 C1155 1.370 . S
C1154 C1158 1.524 . S
C1155 C1147 1.503 . S
C1155 C1154 1.370 . S
C1155 C1156 1.403 . S
C1156 C1155 1.403 . S
C1156 C1157 1.404 . S
C1156 C1159 1.539 . S
C1157 C1153 1.408 . S
C1157 C1156 1.404 . S
C1157 H1169 0.930 . S
C1158 C1154 1.524 . S
C1158 H1170 0.956 . S
C1158 H1171 0.961 . S
C1158 H1172 0.961 . S
C1159 C1156 1.539 . S
C1159 H1173 0.958 . S
C1159 H1174 0.961 . S
C1159 H1175 0.960 . S
H1160 C1144 0.931 . S
H1161 C1149 0.929 . S
H1162 C1150 0.960 . S
H1163 C1150 0.962 . S
H1164 C1150 0.960 . S
H1165 C1151 0.961 . S
H1166 C1151 0.961 . S
H1167 C1151 0.961 . S
H1168 C1152 0.931 . S
H1169 C1157 0.930 . S
H1170 C1158 0.956 . S
H1171 C1158 0.961 . S
H1172 C1158 0.961 . S
H1173 C1159 0.958 . S
H1174 C1159 0.961 . S
H1175 C1159 0.960 . S
C1176 C1177 1.391 . S
C1176 C1178 1.394 . S
C1176 H1192 0.931 . S
C1177 C1176 1.391 . S
C1177 C1181 1.376 . S
C1178 C1176 1.394 . S
C1178 C1179 1.369 . S
C1178 C1182 1.531 . S
C1179 C1178 1.369 . S
C1179 C1180 1.410 . S
C1179 C1187 1.503 . S
C1180 C1179 1.410 . S
C1180 C1181 1.392 . S
C1180 C1183 1.511 . S
C1181 C1177 1.376 . S
C1181 C1180 1.392 . S
C1181 H1193 0.929 . S
C1182 C1178 1.531 . S
C1182 H1194 0.960 . S
C1182 H1195 0.962 . S
C1182 H1196 0.960 . S
C1183 C1180 1.511 . S
C1183 H1197 0.961 . S
C1183 H1198 0.961 . S
C1183 H1199 0.961 . S
C1184 C1185 1.370 . S
C1184 C1186 1.363 . S
C1184 H1200 0.931 . S
C1185 C1184 1.370 . S
C1185 C1189 1.408 . S
C1186 C1184 1.363 . S
C1186 C1187 1.370 . S
C1186 C1190 1.524 . S
C1187 C1179 1.503 . S
C1187 C1186 1.370 . S
C1187 C1188 1.403 . S
C1188 C1187 1.403 . S
C1188 C1189 1.404 . S
C1188 C1191 1.539 . S
C1189 C1185 1.408 . S
C1189 C1188 1.404 . S
C1189 H1201 0.930 . S
C1190 C1186 1.524 . S
C1190 H1202 0.956 . S
C1190 H1203 0.961 . S
C1190 H1204 0.961 . S
C1191 C1188 1.539 . S
C1191 H1205 0.958 . S
C1191 H1206 0.961 . S
C1191 H1207 0.960 . S
H1192 C1176 0.931 . S
H1193 C1181 0.929 . S
H1194 C1182 0.960 . S
H1195 C1182 0.962 . S
H1196 C1182 0.960 . S
H1197 C1183 0.961 . S
H1198 C1183 0.961 . S
H1199 C1183 0.961 . S
H1200 C1184 0.931 . S
H1201 C1189 0.930 . S
H1202 C1190 0.956 . S
H1203 C1190 0.961 . S
H1204 C1190 0.961 . S
H1205 C1191 0.958 . S
H1206 C1191 0.961 . S
H1207 C1191 0.960 . S
C1208 C1209 1.391 . S
C1208 C1210 1.394 . S
C1208 H1224 0.931 . S
C1209 C1208 1.391 . S
C1209 C1213 1.376 . S
C1210 C1208 1.394 . S
C1210 C1211 1.369 . S
C1210 C1214 1.531 . S
C1211 C1210 1.369 . S
C1211 C1212 1.410 . S
C1211 C1219 1.503 . S
C1212 C1211 1.410 . S
C1212 C1213 1.392 . S
C1212 C1215 1.511 . S
C1213 C1209 1.376 . S
C1213 C1212 1.392 . S
C1213 H1225 0.929 . S
C1214 C1210 1.531 . S
C1214 H1226 0.960 . S
C1214 H1227 0.962 . S
C1214 H1228 0.960 . S
C1215 C1212 1.511 . S
C1215 H1229 0.961 . S
C1215 H1230 0.961 . S
C1215 H1231 0.961 . S
C1216 C1217 1.370 . S
C1216 C1218 1.363 . S
C1216 H1232 0.931 . S
C1217 C1216 1.370 . S
C1217 C1221 1.408 . S
C1218 C1216 1.363 . S
C1218 C1219 1.370 . S
C1218 C1222 1.524 . S
C1219 C1211 1.503 . S
C1219 C1218 1.370 . S
C1219 C1220 1.403 . S
C1220 C1219 1.403 . S
C1220 C1221 1.404 . S
C1220 C1223 1.539 . S
C1221 C1217 1.408 . S
C1221 C1220 1.404 . S
C1221 H1233 0.930 . S
C1222 C1218 1.524 . S
C1222 H1234 0.956 . S
C1222 H1235 0.961 . S
C1222 H1236 0.961 . S
C1223 C1220 1.539 . S
C1223 H1237 0.958 . S
C1223 H1238 0.961 . S
C1223 H1239 0.960 . S
H1224 C1208 0.931 . S
H1225 C1213 0.929 . S
H1226 C1214 0.960 . S
H1227 C1214 0.962 . S
H1228 C1214 0.960 . S
H1229 C1215 0.961 . S
H1230 C1215 0.961 . S
H1231 C1215 0.961 . S
H1232 C1216 0.931 . S
H1233 C1221 0.930 . S
H1234 C1222 0.956 . S
H1235 C1222 0.961 . S
H1236 C1222 0.961 . S
H1237 C1223 0.958 . S
H1238 C1223 0.961 . S
H1239 C1223 0.960 . S
C1240 C1241 1.391 . S
C1240 C1242 1.394 . S
C1240 H1256 0.931 . S
C1241 C1240 1.391 . S
C1241 C1245 1.376 . S
C1242 C1240 1.394 . S
C1242 C1243 1.369 . S
C1242 C1246 1.531 . S
C1243 C1242 1.369 . S
C1243 C1244 1.410 . S
C1243 C1251 1.503 . S
C1244 C1243 1.410 . S
C1244 C1245 1.392 . S
C1244 C1247 1.511 . S
C1245 C1241 1.376 . S
C1245 C1244 1.392 . S
C1245 H1257 0.929 . S
C1246 C1242 1.531 . S
C1246 H1258 0.960 . S
C1246 H1259 0.962 . S
C1246 H1260 0.960 . S
C1247 C1244 1.511 . S
C1247 H1261 0.961 . S
C1247 H1262 0.961 . S
C1247 H1263 0.961 . S
C1248 C1249 1.370 . S
C1248 C1250 1.363 . S
C1248 H1264 0.931 . S
C1249 C1248 1.370 . S
C1249 C1253 1.408 . S
C1250 C1248 1.363 . S
C1250 C1251 1.370 . S
C1250 C1254 1.524 . S
C1251 C1243 1.503 . S
C1251 C1250 1.370 . S
C1251 C1252 1.403 . S
C1252 C1251 1.403 . S
C1252 C1253 1.404 . S
C1252 C1255 1.539 . S
C1253 C1249 1.408 . S
C1253 C1252 1.404 . S
C1253 H1265 0.930 . S
C1254 C1250 1.524 . S
C1254 H1266 0.956 . S
C1254 H1267 0.961 . S
C1254 H1268 0.961 . S
C1255 C1252 1.539 . S
C1255 H1269 0.958 . S
C1255 H1270 0.961 . S
C1255 H1271 0.960 . S
H1256 C1240 0.931 . S
H1257 C1245 0.929 . S
H1258 C1246 0.960 . S
H1259 C1246 0.962 . S
H1260 C1246 0.960 . S
H1261 C1247 0.961 . S
H1262 C1247 0.961 . S
H1263 C1247 0.961 . S
H1264 C1248 0.931 . S
H1265 C1253 0.930 . S
H1266 C1254 0.956 . S
H1267 C1254 0.961 . S
H1268 C1254 0.961 . S
H1269 C1255 0.958 . S
H1270 C1255 0.961 . S
H1271 C1255 0.960 . S
C1272 C1273 1.391 . S
C1272 C1274 1.394 . S
C1272 H1288 0.931 . S
C1273 C1272 1.391 . S
C1273 C1277 1.376 . S
C1274 C1272 1.394 . S
C1274 C1275 1.369 . S
C1274 C1278 1.531 . S
C1275 C1274 1.369 . S
C1275 C1276 1.410 . S
C1275 C1283 1.503 . S
C1276 C1275 1.410 . S
C1276 C1277 1.392 . S
C1276 C1279 1.511 . S
C1277 C1273 1.376 . S
C1277 C1276 1.392 . S
C1277 H1289 0.929 . S
C1278 C1274 1.531 . S
C1278 H1290 0.960 . S
C1278 H1291 0.962 . S
C1278 H1292 0.960 . S
C1279 C1276 1.511 . S
C1279 H1293 0.961 . S
C1279 H1294 0.961 . S
C1279 H1295 0.961 . S
C1280 C1281 1.370 . S
C1280 C1282 1.363 . S
C1280 H1296 0.931 . S
C1281 C1280 1.370 . S
C1281 C1285 1.408 . S
C1282 C1280 1.363 . S
C1282 C1283 1.370 . S
C1282 C1286 1.524 . S
C1283 C1275 1.503 . S
C1283 C1282 1.370 . S
C1283 C1284 1.403 . S
C1284 C1283 1.403 . S
C1284 C1285 1.404 . S
C1284 C1287 1.539 . S
C1285 C1281 1.408 . S
C1285 C1284 1.404 . S
C1285 H1297 0.930 . S
C1286 C1282 1.524 . S
C1286 H1298 0.956 . S
C1286 H1299 0.961 . S
C1286 H1300 0.961 . S
C1287 C1284 1.539 . S
C1287 H1301 0.958 . S
C1287 H1302 0.961 . S
C1287 H1303 0.960 . S
H1288 C1272 0.931 . S
H1289 C1277 0.929 . S
H1290 C1278 0.960 . S
H1291 C1278 0.962 . S
H1292 C1278 0.960 . S
H1293 C1279 0.961 . S
H1294 C1279 0.961 . S
H1295 C1279 0.961 . S
H1296 C1280 0.931 . S
H1297 C1285 0.930 . S
H1298 C1286 0.956 . S
H1299 C1286 0.961 . S
H1300 C1286 0.961 . S
H1301 C1287 0.958 . S
H1302 C1287 0.961 . S
H1303 C1287 0.960 . S
C1304 C1305 1.391 . S
C1304 C1306 1.394 . S
C1304 H1320 0.931 . S
C1305 C1304 1.391 . S
C1305 C1309 1.376 . S
C1306 C1304 1.394 . S
C1306 C1307 1.369 . S
C1306 C1310 1.531 . S
C1307 C1306 1.369 . S
C1307 C1308 1.410 . S
C1307 C1315 1.503 . S
C1308 C1307 1.410 . S
C1308 C1309 1.392 . S
C1308 C1311 1.511 . S
C1309 C1305 1.376 . S
C1309 C1308 1.392 . S
C1309 H1321 0.929 . S
C1310 C1306 1.531 . S
C1310 H1322 0.960 . S
C1310 H1323 0.962 . S
C1310 H1324 0.960 . S
C1311 C1308 1.511 . S
C1311 H1325 0.961 . S
C1311 H1326 0.961 . S
C1311 H1327 0.961 . S
C1312 C1313 1.370 . S
C1312 C1314 1.363 . S
C1312 H1328 0.931 . S
C1313 C1312 1.370 . S
C1313 C1317 1.408 . S
C1314 C1312 1.363 . S
C1314 C1315 1.370 . S
C1314 C1318 1.524 . S
C1315 C1307 1.503 . S
C1315 C1314 1.370 . S
C1315 C1316 1.403 . S
C1316 C1315 1.403 . S
C1316 C1317 1.404 . S
C1316 C1319 1.539 . S
C1317 C1313 1.408 . S
C1317 C1316 1.404 . S
C1317 H1329 0.930 . S
C1318 C1314 1.524 . S
C1318 H1330 0.956 . S
C1318 H1331 0.961 . S
C1318 H1332 0.961 . S
C1319 C1316 1.539 . S
C1319 H1333 0.958 . S
C1319 H1334 0.961 . S
C1319 H1335 0.960 . S
H1320 C1304 0.931 . S
H1321 C1309 0.929 . S
H1322 C1310 0.960 . S
H1323 C1310 0.962 . S
H1324 C1310 0.960 . S
H1325 C1311 0.961 . S
H1326 C1311 0.961 . S
H1327 C1311 0.961 . S
H1328 C1312 0.931 . S
H1329 C1317 0.930 . S
H1330 C1318 0.956 . S
H1331 C1318 0.961 . S
H1332 C1318 0.961 . S
H1333 C1319 0.958 . S
H1334 C1319 0.961 . S
H1335 C1319 0.960 . S
C1336 C1337 1.391 . S
C1336 C1338 1.394 . S
C1336 H1352 0.931 . S
C1337 C1336 1.391 . S
C1337 C1341 1.376 . S
C1338 C1336 1.394 . S
C1338 C1339 1.369 . S
C1338 C1342 1.531 . S
C1339 C1338 1.369 . S
C1339 C1340 1.410 . S
C1339 C1347 1.503 . S
C1340 C1339 1.410 . S
C1340 C1341 1.392 . S
C1340 C1343 1.511 . S
C1341 C1337 1.376 . S
C1341 C1340 1.392 . S
C1341 H1353 0.929 . S
C1342 C1338 1.531 . S
C1342 H1354 0.960 . S
C1342 H1355 0.962 . S
C1342 H1356 0.960 . S
C1343 C1340 1.511 . S
C1343 H1357 0.961 . S
C1343 H1358 0.961 . S
C1343 H1359 0.961 . S
C1344 C1345 1.370 . S
C1344 C1346 1.363 . S
C1344 H1360 0.931 . S
C1345 C1344 1.370 . S
C1345 C1349 1.408 . S
C1346 C1344 1.363 . S
C1346 C1347 1.370 . S
C1346 C1350 1.524 . S
C1347 C1339 1.503 . S
C1347 C1346 1.370 . S
C1347 C1348 1.403 . S
C1348 C1347 1.403 . S
C1348 C1349 1.404 . S
C1348 C1351 1.539 . S
C1349 C1345 1.408 . S
C1349 C1348 1.404 . S
C1349 H1361 0.930 . S
C1350 C1346 1.524 . S
C1350 H1362 0.956 . S
C1350 H1363 0.961 . S
C1350 H1364 0.961 . S
C1351 C1348 1.539 . S
C1351 H1365 0.958 . S
C1351 H1366 0.961 . S
C1351 H1367 0.960 . S
H1352 C1336 0.931 . S
H1353 C1341 0.929 . S
H1354 C1342 0.960 . S
H1355 C1342 0.962 . S
H1356 C1342 0.960 . S
H1357 C1343 0.961 . S
H1358 C1343 0.961 . S
H1359 C1343 0.961 . S
H1360 C1344 0.931 . S
H1361 C1349 0.930 . S
H1362 C1350 0.956 . S
H1363 C1350 0.961 . S
H1364 C1350 0.961 . S
H1365 C1351 0.958 . S
H1366 C1351 0.961 . S
H1367 C1351 0.960 . S
C1368 C1369 1.391 . S
C1368 C1370 1.394 . S
C1368 H1384 0.931 . S
C1369 C1368 1.391 . S
C1369 C1373 1.376 . S
C1370 C1368 1.394 . S
C1370 C1371 1.369 . S
C1370 C1374 1.531 . S
C1371 C1370 1.369 . S
C1371 C1372 1.410 . S
C1371 C1379 1.503 . S
C1372 C1371 1.410 . S
C1372 C1373 1.392 . S
C1372 C1375 1.511 . S
C1373 C1369 1.376 . S
C1373 C1372 1.392 . S
C1373 H1385 0.929 . S
C1374 C1370 1.531 . S
C1374 H1386 0.960 . S
C1374 H1387 0.962 . S
C1374 H1388 0.960 . S
C1375 C1372 1.511 . S
C1375 H1389 0.961 . S
C1375 H1390 0.961 . S
C1375 H1391 0.961 . S
C1376 C1377 1.370 . S
C1376 C1378 1.363 . S
C1376 H1392 0.931 . S
C1377 C1376 1.370 . S
C1377 C1381 1.408 . S
C1378 C1376 1.363 . S
C1378 C1379 1.370 . S
C1378 C1382 1.524 . S
C1379 C1371 1.503 . S
C1379 C1378 1.370 . S
C1379 C1380 1.403 . S
C1380 C1379 1.403 . S
C1380 C1381 1.404 . S
C1380 C1383 1.539 . S
C1381 C1377 1.408 . S
C1381 C1380 1.404 . S
C1381 H1393 0.930 . S
C1382 C1378 1.524 . S
C1382 H1394 0.956 . S
C1382 H1395 0.961 . S
C1382 H1396 0.961 . S
C1383 C1380 1.539 . S
C1383 H1397 0.958 . S
C1383 H1398 0.961 . S
C1383 H1399 0.960 . S
H1384 C1368 0.931 . S
H1385 C1373 0.929 . S
H1386 C1374 0.960 . S
H1387 C1374 0.962 . S
H1388 C1374 0.960 . S
H1389 C1375 0.961 . S
H1390 C1375 0.961 . S
H1391 C1375 0.961 . S
H1392 C1376 0.931 . S
H1393 C1381 0.930 . S
H1394 C1382 0.956 . S
H1395 C1382 0.961 . S
H1396 C1382 0.961 . S
H1397 C1383 0.958 . S
H1398 C1383 0.961 . S
H1399 C1383 0.960 . S
C1400 C1401 1.391 . S
C1400 C1402 1.394 . S
C1400 H1416 0.931 . S
C1401 C1400 1.391 . S
C1401 C1405 1.376 . S
C1402 C1400 1.394 . S
C1402 C1403 1.369 . S
C1402 C1406 1.531 . S
C1403 C1402 1.369 . S
C1403 C1404 1.410 . S
C1403 C1411 1.503 . S
C1404 C1403 1.410 . S
C1404 C1405 1.392 . S
C1404 C1407 1.511 . S
C1405 C1401 1.376 . S
C1405 C1404 1.392 . S
C1405 H1417 0.929 . S
C1406 C1402 1.531 . S
C1406 H1418 0.960 . S
C1406 H1419 0.962 . S
C1406 H1420 0.960 . S
C1407 C1404 1.511 . S
C1407 H1421 0.961 . S
C1407 H1422 0.961 . S
C1407 H1423 0.961 . S
C1408 C1409 1.370 . S
C1408 C1410 1.363 . S
C1408 H1424 0.931 . S
C1409 C1408 1.370 . S
C1409 C1413 1.408 . S
C1410 C1408 1.363 . S
C1410 C1411 1.370 . S
C1410 C1414 1.524 . S
C1411 C1403 1.503 . S
C1411 C1410 1.370 . S
C1411 C1412 1.403 . S
C1412 C1411 1.403 . S
C1412 C1413 1.404 . S
C1412 C1415 1.539 . S
C1413 C1409 1.408 . S
C1413 C1412 1.404 . S
C1413 H1425 0.930 . S
C1414 C1410 1.524 . S
C1414 H1426 0.956 . S
C1414 H1427 0.961 . S
C1414 H1428 0.961 . S
C1415 C1412 1.539 . S
C1415 H1429 0.958 . S
C1415 H1430 0.961 . S
C1415 H1431 0.960 . S
H1416 C1400 0.931 . S
H1417 C1405 0.929 . S
H1418 C1406 0.960 . S
H1419 C1406 0.962 . S
H1420 C1406 0.960 . S
H1421 C1407 0.961 . S
H1422 C1407 0.961 . S
H1423 C1407 0.961 . S
H1424 C1408 0.931 . S
H1425 C1413 0.930 . S
H1426 C1414 0.956 . S
H1427 C1414 0.961 . S
H1428 C1414 0.961 . S
H1429 C1415 0.958 . S
H1430 C1415 0.961 . S
H1431 C1415 0.960 . S
C1432 C1433 1.391 . S
C1432 C1434 1.394 . S
C1432 H1448 0.931 . S
C1433 C1432 1.391 . S
C1433 C1437 1.376 . S
C1434 C1432 1.394 . S
C1434 C1435 1.369 . S
C1434 C1438 1.531 . S
C1435 C1434 1.369 . S
C1435 C1436 1.410 . S
C1435 C1443 1.503 . S
C1436 C1435 1.410 . S
C1436 C1437 1.392 . S
C1436 C1439 1.511 . S
C1437 C1433 1.376 . S
C1437 C1436 1.392 . S
C1437 H1449 0.929 . S
C1438 C1434 1.531 . S
C1438 H1450 0.960 . S
C1438 H1451 0.962 . S
C1438 H1452 0.960 . S
C1439 C1436 1.511 . S
C1439 H1453 0.961 . S
C1439 H1454 0.961 . S
C1439 H1455 0.961 . S
C1440 C1441 1.370 . S
C1440 C1442 1.363 . S
C1440 H1456 0.931 . S
C1441 C1440 1.370 . S
C1441 C1445 1.408 . S
C1442 C1440 1.363 . S
C1442 C1443 1.370 . S
C1442 C1446 1.524 . S
C1443 C1435 1.503 . S
C1443 C1442 1.370 . S
C1443 C1444 1.403 . S
C1444 C1443 1.403 . S
C1444 C1445 1.404 . S
C1444 C1447 1.539 . S
C1445 C1441 1.408 . S
C1445 C1444 1.404 . S
C1445 H1457 0.930 . S
C1446 C1442 1.524 . S
C1446 H1458 0.956 . S
C1446 H1459 0.961 . S
C1446 H1460 0.961 . S
C1447 C1444 1.539 . S
C1447 H1461 0.958 . S
C1447 H1462 0.961 . S
C1447 H1463 0.960 . S
H1448 C1432 0.931 . S
H1449 C1437 0.929 . S
H1450 C1438 0.960 . S
H1451 C1438 0.962 . S
H1452 C1438 0.960 . S
H1453 C1439 0.961 . S
H1454 C1439 0.961 . S
H1455 C1439 0.961 . S
H1456 C1440 0.931 . S
H1457 C1445 0.930 . S
H1458 C1446 0.956 . S
H1459 C1446 0.961 . S
H1460 C1446 0.961 . S
H1461 C1447 0.958 . S
H1462 C1447 0.961 . S
H1463 C1447 0.960 . S
C1464 C1465 1.391 . S
C1464 C1466 1.394 . S
C1464 H1480 0.931 . S
C1465 C1464 1.391 . S
C1465 C1469 1.376 . S
C1466 C1464 1.394 . S
C1466 C1467 1.369 . S
C1466 C1470 1.531 . S
C1467 C1466 1.369 . S
C1467 C1468 1.410 . S
C1467 C1475 1.503 . S
C1468 C1467 1.410 . S
C1468 C1469 1.392 . S
C1468 C1471 1.511 . S
C1469 C1465 1.376 . S
C1469 C1468 1.392 . S
C1469 H1481 0.929 . S
C1470 C1466 1.531 . S
C1470 H1482 0.960 . S
C1470 H1483 0.962 . S
C1470 H1484 0.960 . S
C1471 C1468 1.511 . S
C1471 H1485 0.961 . S
C1471 H1486 0.961 . S
C1471 H1487 0.961 . S
C1472 C1473 1.370 . S
C1472 C1474 1.363 . S
C1472 H1488 0.931 . S
C1473 C1472 1.370 . S
C1473 C1477 1.408 . S
C1474 C1472 1.363 . S
C1474 C1475 1.370 . S
C1474 C1478 1.524 . S
C1475 C1467 1.503 . S
C1475 C1474 1.370 . S
C1475 C1476 1.403 . S
C1476 C1475 1.403 . S
C1476 C1477 1.404 . S
C1476 C1479 1.539 . S
C1477 C1473 1.408 . S
C1477 C1476 1.404 . S
C1477 H1489 0.930 . S
C1478 C1474 1.524 . S
C1478 H1490 0.956 . S
C1478 H1491 0.961 . S
C1478 H1492 0.961 . S
C1479 C1476 1.539 . S
C1479 H1493 0.958 . S
C1479 H1494 0.961 . S
C1479 H1495 0.960 . S
H1480 C1464 0.931 . S
H1481 C1469 0.929 . S
H1482 C1470 0.960 . S
H1483 C1470 0.962 . S
H1484 C1470 0.960 . S
H1485 C1471 0.961 . S
H1486 C1471 0.961 . S
H1487 C1471 0.961 . S
H1488 C1472 0.931 . S
H1489 C1477 0.930 . S
H1490 C1478 0.956 . S
H1491 C1478 0.961 . S
H1492 C1478 0.961 . S
H1493 C1479 0.958 . S
H1494 C1479 0.961 . S
H1495 C1479 0.960 . S
C1496 C1497 1.391 . S
C1496 C1498 1.394 . S
C1496 H1512 0.931 . S
C1497 C1496 1.391 . S
C1497 C1501 1.376 . S
C1498 C1496 1.394 . S
C1498 C1499 1.369 . S
C1498 C1502 1.531 . S
C1499 C1498 1.369 . S
C1499 C1500 1.410 . S
C1499 C1507 1.503 . S
C1500 C1499 1.410 . S
C1500 C1501 1.392 . S
C1500 C1503 1.511 . S
C1501 C1497 1.376 . S
C1501 C1500 1.392 . S
C1501 H1513 0.929 . S
C1502 C1498 1.531 . S
C1502 H1514 0.960 . S
C1502 H1515 0.962 . S
C1502 H1516 0.960 . S
C1503 C1500 1.511 . S
C1503 H1517 0.961 . S
C1503 H1518 0.961 . S
C1503 H1519 0.961 . S
C1504 C1505 1.370 . S
C1504 C1506 1.363 . S
C1504 H1520 0.931 . S
C1505 C1504 1.370 . S
C1505 C1509 1.408 . S
C1506 C1504 1.363 . S
C1506 C1507 1.370 . S
C1506 C1510 1.524 . S
C1507 C1499 1.503 . S
C1507 C1506 1.370 . S
C1507 C1508 1.403 . S
C1508 C1507 1.403 . S
C1508 C1509 1.404 . S
C1508 C1511 1.539 . S
C1509 C1505 1.408 . S
C1509 C1508 1.404 . S
C1509 H1521 0.930 . S
C1510 C1506 1.524 . S
C1510 H1522 0.956 . S
C1510 H1523 0.961 . S
C1510 H1524 0.961 . S
C1511 C1508 1.539 . S
C1511 H1525 0.958 . S
C1511 H1526 0.961 . S
C1511 H1527 0.960 . S
H1512 C1496 0.931 . S
H1513 C1501 0.929 . S
H1514 C1502 0.960 . S
H1515 C1502 0.962 . S
H1516 C1502 0.960 . S
H1517 C1503 0.961 . S
H1518 C1503 0.961 . S
H1519 C1503 0.961 . S
H1520 C1504 0.931 . S
H1521 C1509 0.930 . S
H1522 C1510 0.956 . S
H1523 C1510 0.961 . S
H1524 C1510 0.961 . S
H1525 C1511 0.958 . S
H1526 C1511 0.961 . S
H1527 C1511 0.960 . S
C1528 C1529 1.391 . S
C1528 C1530 1.394 . S
C1528 H1544 0.931 . S
C1529 C1528 1.391 . S
C1529 C1533 1.376 . S
C1530 C1528 1.394 . S
C1530 C1531 1.369 . S
C1530 C1534 1.531 . S
C1531 C1530 1.369 . S
C1531 C1532 1.410 . S
C1531 C1539 1.503 . S
C1532 C1531 1.410 . S
C1532 C1533 1.392 . S
C1532 C1535 1.511 . S
C1533 C1529 1.376 . S
C1533 C1532 1.392 . S
C1533 H1545 0.929 . S
C1534 C1530 1.531 . S
C1534 H1546 0.960 . S
C1534 H1547 0.962 . S
C1534 H1548 0.960 . S
C1535 C1532 1.511 . S
C1535 H1549 0.961 . S
C1535 H1550 0.961 . S
C1535 H1551 0.961 . S
C1536 C1537 1.370 . S
C1536 C1538 1.363 . S
C1536 H1552 0.931 . S
C1537 C1536 1.370 . S
C1537 C1541 1.408 . S
C1538 C1536 1.363 . S
C1538 C1539 1.370 . S
C1538 C1542 1.524 . S
C1539 C1531 1.503 . S
C1539 C1538 1.370 . S
C1539 C1540 1.403 . S
C1540 C1539 1.403 . S
C1540 C1541 1.404 . S
C1540 C1543 1.539 . S
C1541 C1537 1.408 . S
C1541 C1540 1.404 . S
C1541 H1553 0.930 . S
C1542 C1538 1.524 . S
C1542 H1554 0.956 . S
C1542 H1555 0.961 . S
C1542 H1556 0.961 . S
C1543 C1540 1.539 . S
C1543 H1557 0.958 . S
C1543 H1558 0.961 . S
C1543 H1559 0.960 . S
H1544 C1528 0.931 . S
H1545 C1533 0.929 . S
H1546 C1534 0.960 . S
H1547 C1534 0.962 . S
H1548 C1534 0.960 . S
H1549 C1535 0.961 . S
H1550 C1535 0.961 . S
H1551 C1535 0.961 . S
H1552 C1536 0.931 . S
H1553 C1541 0.930 . S
H1554 C1542 0.956 . S
H1555 C1542 0.961 . S
H1556 C1542 0.961 . S
H1557 C1543 0.958 . S
H1558 C1543 0.961 . S
H1559 C1543 0.960 . S
C1560 C1561 1.391 . S
C1560 C1562 1.394 . S
C1560 H1576 0.931 . S
C1561 C1560 1.391 . S
C1561 C1565 1.376 . S
C1562 C1560 1.394 . S
C1562 C1563 1.369 . S
C1562 C1566 1.531 . S
C1563 C1562 1.369 . S
C1563 C1564 1.410 . S
C1563 C1571 1.503 . S
C1564 C1563 1.410 . S
C1564 C1565 1.392 . S
C1564 C1567 1.511 . S
C1565 C1561 1.376 . S
C1565 C1564 1.392 . S
C1565 H1577 0.929 . S
C1566 C1562 1.531 . S
C1566 H1578 0.960 . S
C1566 H1579 0.962 . S
C1566 H1580 0.960 . S
C1567 C1564 1.511 . S
C1567 H1581 0.961 . S
C1567 H1582 0.961 . S
C1567 H1583 0.961 . S
C1568 C1569 1.370 . S
C1568 C1570 1.363 . S
C1568 H1584 0.931 . S
C1569 C1568 1.370 . S
C1569 C1573 1.408 . S
C1570 C1568 1.363 . S
C1570 C1571 1.370 . S
C1570 C1574 1.524 . S
C1571 C1563 1.503 . S
C1571 C1570 1.370 . S
C1571 C1572 1.403 . S
C1572 C1571 1.403 . S
C1572 C1573 1.404 . S
C1572 C1575 1.539 . S
C1573 C1569 1.408 . S
C1573 C1572 1.404 . S
C1573 H1585 0.930 . S
C1574 C1570 1.524 . S
C1574 H1586 0.956 . S
C1574 H1587 0.961 . S
C1574 H1588 0.961 . S
C1575 C1572 1.539 . S
C1575 H1589 0.958 . S
C1575 H1590 0.961 . S
C1575 H1591 0.960 . S
H1576 C1560 0.931 . S
H1577 C1565 0.929 . S
H1578 C1566 0.960 . S
H1579 C1566 0.962 . S
H1580 C1566 0.960 . S
H1581 C1567 0.961 . S
H1582 C1567 0.961 . S
H1583 C1567 0.961 . S
H1584 C1568 0.931 . S
H1585 C1573 0.930 . S
H1586 C1574 0.956 . S
H1587 C1574 0.961 . S
H1588 C1574 0.961 . S
H1589 C1575 0.958 . S
H1590 C1575 0.961 . S
H1591 C1575 0.960 . S
C577 C173 1.492 . S
C569 C7 1.423 . S
C609 C226 1.300 . S
C601 C32 1.273 . S
C641 C289 1.538 . S
C633 C44 1.514 . S
C673 C332 1.276 . S
C665 C62 1.222 . S
C697 C88 1.452 . S
C705 C288 1.548 . S
C737 C325 1.319 . S
C729 C106 1.291 . S
C769 C166 1.491 . S
C761 C124 1.458 . S
C801 C219 1.252 . S
C793 C140 1.217 . S
C833 C272 1.531 . S
C825 C142 1.476 . S
C865 C341 1.809 . S
C857 C86 1.752 . S
C897 C182 1.583 . S
C889 C104 1.518 . S
C929 C235 1.753 . S
C921 C122 1.697 . S
C961 C183 1.578 . S
C953 C34 1.495 . S
C993 C236 1.805 . S
C985 C43 1.761 . S
C1025 C279 1.535 . S
C1017 C61 1.470 . S
C1057 C342 1.760 . S
C1049 C8 1.718 . S
C1089 C385 1.472 . S
C1081 C133 1.438 . S
C1113 C80 1.625 . S
C1121 C438 1.684 . S
C1145 C98 1.511 . S
C1153 C500 1.561 . S
C1177 C116 1.613 . S
C1185 C554 1.682 . S
C1209 C25 1.486 . S
C1217 C501 1.513 . S
C1241 C52 1.656 . S
C1249 C553 1.739 . S
C1273 C70 1.481 . S
C1281 C378 1.509 . S
C1313 C431 1.645 . S
C1305 C14 1.571 . S
C1345 C491 1.508 . S
C1337 C16 1.403 . S
C1369 C26 1.288 . S
C1377 C537 1.378 . S
C1401 C50 1.554 . S
C1409 C394 1.600 . S
C1433 C68 1.278 . S
C1441 C447 1.359 . S
C1473 C395 1.549 . S
C1465 C79 1.481 . S
C1505 C448 1.413 . S
C1497 C97 1.322 . S
C1529 C115 1.437 . S
C1537 C484 1.557 . S
C1569 C544 1.328 . S
C1561 C134 1.231 . S
