# Generated by pormake.
# Topology ssa, (4,4)-cn, num edge types: 1
# Building blocks:
#     Node 0, Type 0, BuildingBlock: NAWXER_clean_sbu_0, # of connection points: 4
#     Node 1, Type 0, BuildingBlock: NAWXER_clean_sbu_0, # of connection points: 4
#     Node 2, Type 0, BuildingBlock: NAWXER_clean_sbu_0, # of connection points: 4
#     Node 3, Type 0, BuildingBlock: NAWXER_clean_sbu_0, # of connection points: 4
#     Node 4, Type 0, BuildingBlock: NAWXER_clean_sbu_0, # of connection points: 4
#     Node 5, Type 0, BuildingBlock: NAWXER_clean_sbu_0, # of connection points: 4
#     Node 6, Type 1, BuildingBlock: MIFKUJ_clean_linker_1, # of connection points: 4
#     Node 7, Type 1, BuildingBlock: MIFKUJ_clean_linker_1, # of connection points: 4
#     Node 8, Type 1, BuildingBlock: MIFKUJ_clean_linker_1, # of connection points: 4
#     Node 9, Type 1, BuildingBlock: MIFKUJ_clean_linker_1, # of connection points: 4
#     Node 10, Type 1, BuildingBlock: MIFKUJ_clean_linker_1, # of connection points: 4
#     Node 11, Type 1, BuildingBlock: MIFKUJ_clean_linker_1, # of connection points: 4
#     Edge 12, Type (0, 1), BuildingBlock: MIFKUJ_clean_linker_0, # of connection points: 2
#     Edge 13, Type (0, 1), BuildingBlock: MIFKUJ_clean_linker_0, # of connection points: 2
#     Edge 14, Type (0, 1), BuildingBlock: MIFKUJ_clean_linker_0, # of connection points: 2
#     Edge 15, Type (0, 1), BuildingBlock: MIFKUJ_clean_linker_0, # of connection points: 2
#     Edge 16, Type (0, 1), BuildingBlock: MIFKUJ_clean_linker_0, # of connection points: 2
#     Edge 17, Type (0, 1), BuildingBlock: MIFKUJ_clean_linker_0, # of connection points: 2
#     Edge 18, Type (0, 1), BuildingBlock: MIFKUJ_clean_linker_0, # of connection points: 2
#     Edge 19, Type (0, 1), BuildingBlock: MIFKUJ_clean_linker_0, # of connection points: 2
#     Edge 20, Type (0, 1), BuildingBlock: MIFKUJ_clean_linker_0, # of connection points: 2
#     Edge 21, Type (0, 1), BuildingBlock: MIFKUJ_clean_linker_0, # of connection points: 2
#     Edge 22, Type (0, 1), BuildingBlock: MIFKUJ_clean_linker_0, # of connection points: 2
#     Edge 23, Type (0, 1), BuildingBlock: MIFKUJ_clean_linker_0, # of connection points: 2
#     Edge 24, Type (0, 1), BuildingBlock: MIFKUJ_clean_linker_0, # of connection points: 2
#     Edge 25, Type (0, 1), BuildingBlock: MIFKUJ_clean_linker_0, # of connection points: 2
#     Edge 26, Type (0, 1), BuildingBlock: MIFKUJ_clean_linker_0, # of connection points: 2
#     Edge 27, Type (0, 1), BuildingBlock: MIFKUJ_clean_linker_0, # of connection points: 2
#     Edge 28, Type (0, 1), BuildingBlock: MIFKUJ_clean_linker_0, # of connection points: 2
#     Edge 29, Type (0, 1), BuildingBlock: MIFKUJ_clean_linker_0, # of connection points: 2
#     Edge 30, Type (0, 1), BuildingBlock: MIFKUJ_clean_linker_0, # of connection points: 2
#     Edge 31, Type (0, 1), BuildingBlock: MIFKUJ_clean_linker_0, # of connection points: 2
#     Edge 32, Type (0, 1), BuildingBlock: MIFKUJ_clean_linker_0, # of connection points: 2
#     Edge 33, Type (0, 1), BuildingBlock: MIFKUJ_clean_linker_0, # of connection points: 2
#     Edge 34, Type (0, 1), BuildingBlock: MIFKUJ_clean_linker_0, # of connection points: 2
#     Edge 35, Type (0, 1), BuildingBlock: MIFKUJ_clean_linker_0, # of connection points: 2
# Relax obj value: 0.011
# Max RMSD: 0.026
# Mean RMSD: 0.026
data_MOF--net-ssa--node1-NAWXER_clean_sbu_0--node2-MIFKUJ_clean_linker_1--edge1-MIFKUJ_clean_linker_0
_symmetry_space_group_name_H-M    P1
_symmetry_Int_Tables_number       1
_symmetry_cell_setting            triclinic
loop_
_symmetry_equiv_pos_as_xyz
'x, y, z'
_cell_length_a     74.076503
_cell_length_b     74.092514
_cell_length_c     46.887757
_cell_angle_alpha  90.003437
_cell_angle_beta   90.011482
_cell_angle_gamma 120.00186
loop_
_atom_site_label
_atom_site_type_symbol
_atom_site_fract_x
_atom_site_fract_y
_atom_site_fract_z
_atom_type_partial_charge
C0 C 0.04017 0.53463 0.00962 0.0
C1 C 1e-05 0.46709 0.96367 0.0
O2 O 0.02342 0.52247 0.02328 0.0
Zn3 Zn 0.99802 0.49112 0.01987 0.0
O4 O 0.04476 0.52815 0.98722 0.0
Zn5 Zn 0.02052 0.50061 0.98687 0.0
O6 O 0.9952 0.50643 0.97925 0.0
O7 O 0.97447 0.49545 0.01683 0.0
O8 O 0.01728 0.48244 0.95568 0.0
O9 O 0.99153 0.46835 0.9869 0.0
O10 O 0.00099 0.47814 0.05395 0.0
O11 O 0.02594 0.4858 0.0225 0.0
C12 C 0.97877 0.50372 0.99219 0.0
C13 C 0.01749 0.47811 0.04667 0.0
C14 C 0.47504 0.00321 0.54108 0.0
C15 C 0.50636 0.96691 0.49387 0.0
O16 O 0.47506 0.98697 0.54985 0.0
Zn17 Zn 0.49109 0.98526 0.51857 0.0
O18 O 0.48455 0.0121 0.51791 0.0
Zn19 Zn 0.50262 0.00788 0.48532 0.0
O20 O 0.48614 0.00434 0.45158 0.0
O21 O 0.47046 0.97903 0.48314 0.0
O22 O 0.50979 0.98344 0.48056 0.0
O23 O 0.49621 0.96209 0.51713 0.0
O24 O 0.52098 0.01202 0.52654 0.0
O25 O 0.52971 0.03266 0.48898 0.0
C26 C 0.47029 0.98731 0.45919 0.0
C27 C 0.5339 0.02894 0.51382 0.0
C28 C 0.46853 0.4634 0.95476 0.0
C29 C 0.49981 0.53095 0.00178 0.0
O30 O 0.46867 0.47974 0.9462 0.0
Zn31 Zn 0.48372 0.49704 0.97816 0.0
O32 O 0.47724 0.46362 0.97855 0.0
Zn33 Zn 0.49424 0.48564 0.01206 0.0
O34 O 0.47704 0.47334 0.04532 0.0
O35 O 0.46208 0.48294 0.01264 0.0
O36 O 0.50272 0.51772 0.01567 0.0
O37 O 0.48934 0.52548 0.9788 0.0
O38 O 0.5139 0.49998 0.9722 0.0
O39 O 0.52107 0.48735 0.0105 0.0
C40 C 0.46146 0.47469 0.03693 0.0
C41 C 0.52624 0.49564 0.98594 0.0
C42 C 0.00765 0.54279 0.45518 0.0
C43 C 0.96544 0.47581 0.50214 0.0
O44 O 0.0157 0.54139 0.47873 0.0
Zn45 Zn 0.00836 0.51881 0.51201 0.0
O46 O 0.9903 0.52765 0.44702 0.0
Zn47 Zn 0.98607 0.5094 0.47878 0.0
O48 O 0.98089 0.52473 0.51409 0.0
O49 O 0.00589 0.53248 0.54551 0.0
O50 O 0.96122 0.48227 0.47938 0.0
O51 O 0.98226 0.48777 0.51582 0.0
O52 O 0.03137 0.51378 0.50993 0.0
O53 O 0.01053 0.50207 0.4725 0.0
C54 C 0.98946 0.53261 0.53815 0.0
C55 C 0.02676 0.50463 0.48588 0.0
C56 C 0.50922 0.97259 0.00675 0.0
C57 C 0.48474 0.01544 0.96133 0.0
O58 O 0.5151 0.9898 0.01994 0.0
Zn59 Zn 0.51161 0.01662 0.01607 0.0
O60 O 0.49851 0.96856 0.98405 0.0
Zn61 Zn 0.49744 0.99408 0.983 0.0
O62 O 0.52902 0.01788 0.97489 0.0
O63 O 0.53996 0.03913 0.01187 0.0
O64 O 0.4825 0.99823 0.95244 0.0
O65 O 0.49505 0.02359 0.98431 0.0
O66 O 0.49644 0.01459 0.05074 0.0
O67 O 0.47807 0.99003 0.01913 0.0
C68 C 0.54342 0.03413 0.9874 0.0
C69 C 0.47944 0.99858 0.04341 0.0
C70 C 0.5443 0.52977 0.54076 0.0
C71 C 0.47462 0.49474 0.49967 0.0
O72 O 0.52821 0.53002 0.54952 0.0
Zn73 Zn 0.50934 0.51247 0.52015 0.0
O74 O 0.54322 0.51964 0.51802 0.0
Zn75 Zn 0.52012 0.50078 0.48697 0.0
O76 O 0.531 0.51628 0.45199 0.0
O77 O 0.51959 0.53121 0.48219 0.0
O78 O 0.48759 0.49174 0.48518 0.0
O79 O 0.48071 0.50591 0.52205 0.0
O80 O 0.50701 0.48283 0.52846 0.0
O81 O 0.5187 0.47418 0.49054 0.0
C82 C 0.52736 0.5309 0.45788 0.0
C83 C 0.51103 0.46998 0.51551 0.0
H84 H 0.17833 0.41048 0.2237 0.0
H85 H 0.14948 0.41059 0.19809 0.0
H86 H 0.16568 0.46976 0.23653 0.0
H87 H 0.19477 0.46993 0.26131 0.0
H88 H 0.2196 0.43586 0.22274 0.0
H89 H 0.16592 0.41568 0.29532 0.0
H90 H 0.14058 0.41994 0.32386 0.0
H91 H 0.18999 0.47947 0.35389 0.0
H92 H 0.21513 0.47507 0.32559 0.0
H93 H 0.26739 0.47641 0.32149 0.0
H94 H 0.29774 0.48127 0.34839 0.0
H95 H 0.28664 0.42118 0.31956 0.0
H96 H 0.25597 0.41623 0.29294 0.0
H97 H 0.227 0.44689 0.32743 0.0
H98 H 0.27968 0.4703 0.25644 0.0
H99 H 0.30748 0.46997 0.22888 0.0
H100 H 0.2632 0.40979 0.19424 0.0
H101 H 0.23539 0.40994 0.22248 0.0
C102 C 0.18848 0.43999 0.24489 0.0
C103 C 0.17572 0.42352 0.22648 0.0
C104 C 0.15926 0.42358 0.21191 0.0
C105 C 0.15521 0.44005 0.21566 0.0
C106 C 0.16819 0.45666 0.23372 0.0
C107 C 0.18479 0.45674 0.24791 0.0
C108 C 0.20569 0.43979 0.2609 0.0
C109 C 0.22099 0.43784 0.24571 0.0
C110 C 0.20786 0.44294 0.29078 0.0
C111 C 0.19239 0.4451 0.30827 0.0
C112 C 0.17124 0.42965 0.30804 0.0
C113 C 0.15679 0.43212 0.3243 0.0
C114 C 0.1633 0.45001 0.3412 0.0
C115 C 0.18452 0.46535 0.3415 0.0
C116 C 0.19891 0.46289 0.32526 0.0
C117 C 0.25947 0.446 0.30517 0.0
C118 C 0.27147 0.46426 0.32099 0.0
C119 C 0.28891 0.4671 0.33614 0.0
C120 C 0.29462 0.45165 0.33595 0.0
C121 C 0.28253 0.43329 0.3202 0.0
C122 C 0.26511 0.4305 0.30488 0.0
C123 C 0.24097 0.44327 0.28928 0.0
C124 C 0.22541 0.44456 0.30451 0.0
C125 C 0.23881 0.43991 0.25945 0.0
C126 C 0.25552 0.43994 0.24199 0.0
C127 C 0.27597 0.45688 0.24326 0.0
C128 C 0.29185 0.45669 0.2275 0.0
C129 C 0.28752 0.43975 0.20968 0.0
C130 C 0.26695 0.42304 0.20781 0.0
C131 C 0.25108 0.42312 0.22389 0.0
H132 H 0.74713 0.22014 0.79982 0.0
H133 H 0.72047 0.19559 0.83231 0.0
H134 H 0.72538 0.14511 0.79414 0.0
H135 H 0.75204 0.16987 0.76134 0.0
H136 H 0.78676 0.23064 0.79386 0.0
H137 H 0.72523 0.19895 0.73563 0.0
H138 H 0.69541 0.17335 0.70794 0.0
H139 H 0.73608 0.15861 0.65978 0.0
H140 H 0.76586 0.18406 0.68782 0.0
H141 H 0.82363 0.2438 0.68118 0.0
H142 H 0.84474 0.27238 0.64803 0.0
H143 H 0.82446 0.31097 0.69026 0.0
H144 H 0.80358 0.2825 0.72341 0.0
H145 H 0.78003 0.225 0.68859 0.0
H146 H 0.8421 0.26078 0.74351 0.0
H147 H 0.87162 0.28985 0.76758 0.0
H148 H 0.82893 0.29868 0.82052 0.0
H149 H 0.79947 0.26982 0.79618 0.0
C150 C 0.75155 0.19685 0.77809 0.0
C151 C 0.74254 0.20379 0.79851 0.0
C152 C 0.72735 0.18974 0.81717 0.0
C153 C 0.72087 0.16839 0.81596 0.0
C154 C 0.72988 0.16142 0.79544 0.0
C155 C 0.74512 0.17554 0.77671 0.0
C156 C 0.76784 0.21216 0.75869 0.0
C157 C 0.78521 0.22946 0.77083 0.0
C158 C 0.76619 0.21026 0.72863 0.0
C159 C 0.74776 0.19325 0.71404 0.0
C160 C 0.72767 0.18984 0.71964 0.0
C161 C 0.71064 0.17525 0.70372 0.0
C162 C 0.71345 0.16405 0.68164 0.0
C163 C 0.7335 0.16718 0.67647 0.0
C164 C 0.75049 0.18164 0.69254 0.0
C165 C 0.81221 0.26114 0.70482 0.0
C166 C 0.8239 0.25849 0.68338 0.0
C167 C 0.83595 0.27479 0.66457 0.0
C168 C 0.83612 0.2938 0.66659 0.0
C169 C 0.82446 0.29641 0.68814 0.0
C170 C 0.81267 0.28024 0.70717 0.0
C171 C 0.79852 0.24363 0.72382 0.0
C172 C 0.78172 0.22594 0.71163 0.0
C173 C 0.80056 0.24525 0.75381 0.0
C174 C 0.81853 0.26318 0.76789 0.0
C175 C 0.83908 0.26916 0.76001 0.0
C176 C 0.85594 0.28575 0.7738 0.0
C177 C 0.85257 0.29649 0.79596 0.0
C178 C 0.832 0.29052 0.80376 0.0
C179 C 0.81516 0.27404 0.78984 0.0
H180 H 0.57968 0.81679 0.29825 0.0
H181 H 0.57599 0.83998 0.33221 0.0
H182 H 0.5114 0.81357 0.30797 0.0
H183 H 0.51522 0.7906 0.27391 0.0
H184 H 0.55493 0.77132 0.29673 0.0
H185 H 0.56887 0.83164 0.23965 0.0
H186 H 0.56219 0.85712 0.2161 0.0
H187 H 0.50952 0.80704 0.17234 0.0
H188 H 0.51533 0.78177 0.19751 0.0
H189 H 0.52065 0.73748 0.18539 0.0
H190 H 0.51808 0.71121 0.15208 0.0
H191 H 0.57312 0.71465 0.18943 0.0
H192 H 0.57665 0.74236 0.22105 0.0
H193 H 0.54579 0.77525 0.19259 0.0
H194 H 0.52186 0.71648 0.254 0.0
H195 H 0.5214 0.68638 0.27615 0.0
H196 H 0.58291 0.72664 0.31057 0.0
H197 H 0.58335 0.75678 0.28803 0.0
C198 C 0.54777 0.80214 0.28349 0.0
C199 C 0.56476 0.81605 0.30028 0.0
C200 C 0.56265 0.82929 0.31954 0.0
C201 C 0.5434 0.8285 0.32269 0.0
C202 C 0.52635 0.81436 0.3061 0.0
C203 C 0.52855 0.80136 0.28656 0.0
C204 C 0.54995 0.78813 0.26307 0.0
C205 C 0.55329 0.77238 0.27389 0.0
C206 C 0.54694 0.78903 0.23344 0.0
C207 C 0.54254 0.80474 0.22052 0.0
C208 C 0.55556 0.82615 0.22556 0.0
C209 C 0.55189 0.84073 0.21172 0.0
C210 C 0.53534 0.83421 0.19216 0.0
C211 C 0.52217 0.81273 0.18758 0.0
C212 C 0.52566 0.7982 0.20172 0.0
C213 C 0.54872 0.74182 0.20605 0.0
C214 C 0.53236 0.73281 0.18619 0.0
C215 C 0.53073 0.7175 0.16735 0.0
C216 C 0.54522 0.71049 0.16818 0.0
C217 C 0.56176 0.71971 0.1879 0.0
C218 C 0.56362 0.73538 0.20638 0.0
C219 C 0.54999 0.75794 0.22623 0.0
C220 C 0.54756 0.77424 0.21541 0.0
C221 C 0.55272 0.75692 0.25596 0.0
C222 C 0.55271 0.7388 0.26922 0.0
C223 C 0.5353 0.7188 0.26616 0.0
C224 C 0.53501 0.70166 0.27895 0.0
C225 C 0.55212 0.7042 0.29508 0.0
C226 C 0.5696 0.72423 0.29802 0.0
C227 C 0.56982 0.74144 0.28536 0.0
H228 H 0.75208 0.54808 0.71069 0.0
H229 H 0.72382 0.54733 0.68307 0.0
H230 H 0.72632 0.59629 0.73601 0.0
H231 H 0.75471 0.59694 0.76369 0.0
H232 H 0.79102 0.57651 0.71918 0.0
H233 H 0.73096 0.5385 0.77676 0.0
H234 H 0.69987 0.53025 0.80448 0.0
H235 H 0.73711 0.58177 0.861 0.0
H236 H 0.76823 0.59012 0.83293 0.0
H237 H 0.8266 0.59209 0.83348 0.0
H238 H 0.85077 0.58597 0.86191 0.0
H239 H 0.83994 0.53509 0.80614 0.0
H240 H 0.81568 0.54112 0.77804 0.0
H241 H 0.78572 0.56647 0.82405 0.0
H242 H 0.84764 0.59988 0.76463 0.0
H243 H 0.87648 0.60066 0.73799 0.0
H244 H 0.83216 0.54998 0.68518 0.0
H245 H 0.80353 0.5493 0.71175 0.0
C246 C 0.75548 0.57249 0.73935 0.0
C247 C 0.74669 0.55879 0.71621 0.0
C248 C 0.73055 0.55842 0.7004 0.0
C249 C 0.72284 0.57179 0.7073 0.0
C250 C 0.73175 0.58563 0.73037 0.0
C251 C 0.74799 0.58604 0.74616 0.0
C252 C 0.77228 0.57228 0.75641 0.0
C253 C 0.78983 0.57426 0.74212 0.0
C254 C 0.77086 0.56955 0.78637 0.0
C255 C 0.75187 0.56514 0.8025 0.0
C256 C 0.73239 0.54827 0.79479 0.0
C257 C 0.71464 0.54355 0.81068 0.0
C258 C 0.71606 0.55542 0.83485 0.0
C259 C 0.73558 0.57227 0.8426 0.0
C260 C 0.75333 0.57709 0.82655 0.0
C261 C 0.81957 0.56729 0.80338 0.0
C262 C 0.82949 0.57966 0.82736 0.0
C263 C 0.84323 0.57611 0.84362 0.0
C264 C 0.84731 0.56011 0.83617 0.0
C265 C 0.83738 0.54776 0.81212 0.0
C266 C 0.82353 0.55121 0.79602 0.0
C267 C 0.80436 0.57054 0.78681 0.0
C268 C 0.78712 0.56917 0.80121 0.0
C269 C 0.8058 0.57326 0.75685 0.0
C270 C 0.82343 0.57446 0.74026 0.0
C271 C 0.84417 0.58893 0.74732 0.0
C272 C 0.86062 0.58934 0.73214 0.0
C273 C 0.85659 0.5754 0.70945 0.0
C274 C 0.83579 0.56114 0.70223 0.0
C275 C 0.8194 0.5607 0.71744 0.0
H276 H 0.24193 0.83573 0.18553 0.0
H277 H 0.27449 0.86436 0.1664 0.0
H278 H 0.30952 0.84328 0.21627 0.0
H279 H 0.27699 0.8149 0.23538 0.0
H280 H 0.22521 0.79135 0.18536 0.0
H281 H 0.24886 0.84817 0.25294 0.0
H282 H 0.2782 0.87568 0.27949 0.0
H283 H 0.28455 0.82888 0.3262 0.0
H284 H 0.25537 0.80153 0.29953 0.0
H285 H 0.20491 0.74928 0.2933 0.0
H286 H 0.1763 0.71942 0.31726 0.0
H287 H 0.13206 0.72502 0.26333 0.0
H288 H 0.1608 0.75502 0.23946 0.0
H289 H 0.21493 0.78857 0.29025 0.0
H290 H 0.20195 0.73542 0.2203 0.0
H291 H 0.1809 0.70618 0.18821 0.0
H292 H 0.15798 0.74272 0.14644 0.0
H293 H 0.17936 0.77211 0.1784 0.0
C294 C 0.25709 0.82336 0.21204 0.0
C295 C 0.25664 0.83722 0.19209 0.0
C296 C 0.27525 0.85355 0.18121 0.0
C297 C 0.29461 0.85621 0.19002 0.0
C298 C 0.29492 0.84194 0.20949 0.0
C299 C 0.27634 0.82563 0.22029 0.0
C300 C 0.23757 0.80701 0.22534 0.0
C301 C 0.22267 0.79097 0.2082 0.0
C302 C 0.23457 0.80629 0.2552 0.0
C303 C 0.25009 0.82282 0.27408 0.0
C304 C 0.25646 0.84387 0.26913 0.0
C305 C 0.27325 0.85956 0.2842 0.0
C306 C 0.28377 0.85443 0.30475 0.0
C307 C 0.27664 0.83332 0.31068 0.0
C308 C 0.25995 0.81766 0.29549 0.0
C309 C 0.18504 0.75435 0.26448 0.0
C310 C 0.18905 0.74414 0.28669 0.0
C311 C 0.17267 0.72709 0.30041 0.0
C312 C 0.15191 0.71988 0.29223 0.0
C313 C 0.1479 0.73005 0.26987 0.0
C314 C 0.16431 0.74719 0.25622 0.0
C315 C 0.20262 0.77263 0.25033 0.0
C316 C 0.21712 0.78914 0.26732 0.0
C317 C 0.20545 0.77362 0.22041 0.0
C318 C 0.19207 0.75581 0.20173 0.0
C319 C 0.19232 0.73708 0.2043 0.0
C320 C 0.18042 0.72048 0.18592 0.0
C321 C 0.16792 0.7223 0.16489 0.0
C322 C 0.16745 0.74096 0.1626 0.0
C323 C 0.17965 0.75771 0.18071 0.0
H324 H 0.45687 0.25414 0.79624 0.0
H325 H 0.46031 0.28554 0.81868 0.0
H326 H 0.40646 0.27741 0.77198 0.0
H327 H 0.40303 0.24591 0.74965 0.0
H328 H 0.42644 0.21369 0.79613 0.0
H329 H 0.46298 0.26754 0.73096 0.0
H330 H 0.47161 0.29786 0.7014 0.0
H331 H 0.41655 0.26089 0.65046 0.0
H332 H 0.40775 0.23047 0.68057 0.0
H333 H 0.40015 0.16714 0.69057 0.0
H334 H 0.40191 0.13828 0.66764 0.0
H335 H 0.45843 0.15481 0.71419 0.0
H336 H 0.45682 0.18374 0.73653 0.0
H337 H 0.42923 0.21025 0.69056 0.0
H338 H 0.39702 0.1541 0.76307 0.0
H339 H 0.40011 0.12679 0.78859 0.0
H340 H 0.45939 0.17347 0.82289 0.0
H341 H 0.4562 0.20066 0.79764 0.0
C342 C 0.42973 0.24774 0.77125 0.0
C343 C 0.4457 0.25902 0.79104 0.0
C344 C 0.44776 0.27704 0.80362 0.0
C345 C 0.43372 0.28395 0.79692 0.0
C346 C 0.41744 0.27237 0.77761 0.0
C347 C 0.41551 0.25445 0.7648 0.0
C348 C 0.4285 0.22944 0.75657 0.0
C349 C 0.42691 0.21291 0.77305 0.0
C350 C 0.42948 0.22854 0.72648 0.0
C351 C 0.43447 0.24685 0.70837 0.0
C352 C 0.45254 0.26601 0.71376 0.0
C353 C 0.45749 0.28333 0.69681 0.0
C354 C 0.44464 0.28178 0.6738 0.0
C355 C 0.42674 0.2625 0.66804 0.0
C356 C 0.42169 0.24516 0.68522 0.0
C357 C 0.42814 0.17733 0.71561 0.0
C358 C 0.41294 0.16455 0.69571 0.0
C359 C 0.41396 0.1481 0.68267 0.0
C360 C 0.43018 0.14417 0.6894 0.0
C361 C 0.44552 0.1572 0.70904 0.0
C362 C 0.44462 0.17374 0.72179 0.0
C363 C 0.42682 0.19443 0.73009 0.0
C364 C 0.428 0.21075 0.71357 0.0
C365 C 0.42626 0.19553 0.76018 0.0
C366 C 0.42642 0.17935 0.77847 0.0
C367 C 0.41048 0.15844 0.7765 0.0
C368 C 0.41225 0.1429 0.79101 0.0
C369 C 0.43009 0.14809 0.80736 0.0
C370 C 0.44561 0.1691 0.81012 0.0
C371 C 0.44371 0.18462 0.79597 0.0
H372 H 0.04578 0.46636 0.03271 0.0
H373 H 0.0646 0.45561 0.06486 0.0
H374 H 0.03139 0.46129 0.13664 0.0
H375 H 0.01221 0.47189 0.10443 0.0
H376 H 0.07546 0.48264 0.14283 0.0
H377 H 0.02002 0.41466 0.1185 0.0
H378 H 0.99623 0.38658 0.08608 0.0
H379 H 0.04835 0.38606 0.04687 0.0
H380 H 0.07249 0.41437 0.07878 0.0
H381 H 0.12582 0.44792 0.23794 0.0
H382 H 0.09831 0.45036 0.21238 0.0
H383 H 0.11811 0.43561 0.13349 0.0
H384 H 0.14526 0.43259 0.15917 0.0
H385 H 0.07734 0.41683 0.13461 0.0
H386 H 0.13279 0.48665 0.15325 0.0
H387 H 0.15783 0.51597 0.18305 0.0
H388 H 0.1073 0.51448 0.22989 0.0
H389 H 0.08195 0.48494 0.20059 0.0
C390 C 0.0423 0.46512 0.0553 0.0
C391 C 0.02755 0.47002 0.06606 0.0
C392 C 0.05301 0.45888 0.07361 0.0
C393 C 0.04931 0.45757 0.10308 0.0
C394 C 0.03439 0.46216 0.11392 0.0
C395 C 0.02342 0.46813 0.09551 0.0
C396 C 0.06203 0.45263 0.12247 0.0
C397 C 0.07557 0.46807 0.14153 0.0
C398 C 0.06256 0.43388 0.12007 0.0
C399 C 0.04808 0.41676 0.10092 0.0
C400 C 0.02643 0.40868 0.10282 0.0
C401 C 0.01287 0.3927 0.08456 0.0
C402 C 0.02077 0.38457 0.06439 0.0
C403 C 0.04225 0.39238 0.06249 0.0
C404 C 0.05587 0.40838 0.08069 0.0
C405 C 0.12421 0.44513 0.21515 0.0
C406 C 0.13775 0.44024 0.20046 0.0
C407 C 0.10853 0.44655 0.20056 0.0
C408 C 0.10637 0.44356 0.17089 0.0
C409 C 0.11947 0.43801 0.15636 0.0
C410 C 0.13498 0.43629 0.17102 0.0
C411 C 0.09103 0.44696 0.1548 0.0
C412 C 0.07705 0.43128 0.13628 0.0
C413 C 0.09029 0.46565 0.15738 0.0
C414 C 0.10549 0.48344 0.17495 0.0
C415 C 0.12703 0.49248 0.17005 0.0
C416 C 0.14128 0.50915 0.18683 0.0
C417 C 0.13416 0.51704 0.20841 0.0
C418 C 0.11278 0.50832 0.21321 0.0
C419 C 0.09847 0.49162 0.19651 0.0
H420 H 0.14522 0.52996 0.22138 0.0
H421 H 0.01026 0.37219 0.05027 0.0
H422 H 0.54129 0.03127 0.57081 0.0
H423 H 0.57263 0.05627 0.5963 0.0
H424 H 0.60132 0.08612 0.51684 0.0
H425 H 0.56967 0.06118 0.49097 0.0
H426 H 0.62664 0.07636 0.55414 0.0
H427 H 0.58862 0.11308 0.5564 0.0
H428 H 0.55841 0.11798 0.56406 0.0
H429 H 0.55512 0.09966 0.65165 0.0
H430 H 0.58542 0.09478 0.64453 0.0
H431 H 0.71286 0.16156 0.62357 0.0
H432 H 0.68322 0.13958 0.59283 0.0
H433 H 0.64438 0.11285 0.66708 0.0
H434 H 0.67395 0.13506 0.69793 0.0
H435 H 0.62491 0.12291 0.62886 0.0
H436 H 0.66285 0.08594 0.62685 0.0
H437 H 0.69357 0.08181 0.61969 0.0
H438 H 0.69679 0.09964 0.53189 0.0
H439 H 0.66624 0.10415 0.53862 0.0
C440 C 0.55424 0.04313 0.55867 0.0
C441 C 0.55306 0.04422 0.52885 0.0
C442 C 0.57208 0.05747 0.57332 0.0
C443 C 0.58918 0.07307 0.55844 0.0
C444 C 0.5882 0.07418 0.52864 0.0
C445 C 0.57015 0.05999 0.51394 0.0
C446 C 0.60818 0.08775 0.57432 0.0
C447 C 0.62646 0.08686 0.57013 0.0
C448 C 0.60766 0.10097 0.59561 0.0
C449 C 0.58916 0.10341 0.59987 0.0
C450 C 0.58134 0.10994 0.57723 0.0
C451 C 0.56428 0.11281 0.58152 0.0
C452 C 0.55481 0.10908 0.60831 0.0
C453 C 0.56246 0.10254 0.63091 0.0
C454 C 0.57963 0.0998 0.62679 0.0
C455 C 0.69806 0.15079 0.63334 0.0
C456 C 0.69571 0.14995 0.66315 0.0
C457 C 0.68114 0.13824 0.61575 0.0
C458 C 0.66162 0.1244 0.62764 0.0
C459 C 0.65929 0.12344 0.65743 0.0
C460 C 0.67616 0.13612 0.67502 0.0
C461 C 0.64344 0.11138 0.60907 0.0
C462 C 0.62525 0.11255 0.61278 0.0
C463 C 0.64406 0.09835 0.58743 0.0
C464 C 0.6624 0.0956 0.58332 0.0
C465 C 0.67021 0.08915 0.60607 0.0
C466 C 0.68757 0.0867 0.60208 0.0
C467 C 0.69716 0.09052 0.57537 0.0
C468 C 0.68937 0.09672 0.55257 0.0
C469 C 0.67202 0.09921 0.55646 0.0
H470 H 0.7106 0.08861 0.57232 0.0
H471 H 0.54157 0.11127 0.61156 0.0
H472 H 0.53473 0.5531 0.0336 0.0
H473 H 0.54608 0.58624 0.05789 0.0
H474 H 0.49353 0.58875 0.02259 0.0
H475 H 0.48285 0.55613 0.9969 0.0
H476 H 0.52432 0.62607 0.0252 0.0
H477 H 0.49362 0.56978 0.09205 0.0
H478 H 0.4888 0.53851 0.11743 0.0
H479 H 0.55124 0.57303 0.15003 0.0
H480 H 0.55654 0.60445 0.12451 0.0
H481 H 0.50893 0.67647 0.14988 0.0
H482 H 0.50495 0.64893 0.11755 0.0
H483 H 0.57167 0.67706 0.11171 0.0
H484 H 0.57602 0.70559 0.14262 0.0
H485 H 0.53605 0.62615 0.12945 0.0
H486 H 0.56463 0.68328 0.05893 0.0
H487 H 0.56494 0.7133 0.03568 0.0
H488 H 0.50047 0.67483 0.01307 0.0
H489 H 0.49973 0.64466 0.03662 0.0
C490 C 0.52579 0.56091 0.03072 0.0
C491 C 0.50782 0.55202 0.01363 0.0
C492 C 0.53221 0.57977 0.04474 0.0
C493 C 0.52033 0.58972 0.04279 0.0
C494 C 0.50291 0.58134 0.02459 0.0
C495 C 0.49679 0.5627 0.00993 0.0
C496 C 0.52544 0.60819 0.0608 0.0
C497 C 0.52685 0.62599 0.04798 0.0
C498 C 0.52872 0.60823 0.09064 0.0
C499 C 0.52555 0.5894 0.10613 0.0
C500 C 0.50637 0.57066 0.10448 0.0
C501 C 0.50354 0.55292 0.1189 0.0
C502 C 0.51972 0.55377 0.13526 0.0
C503 C 0.53874 0.57238 0.1373 0.0
C504 C 0.54166 0.59017 0.12288 0.0
C505 C 0.52284 0.67719 0.1413 0.0
C506 C 0.54283 0.69347 0.1488 0.0
C507 C 0.52048 0.6613 0.12299 0.0
C508 C 0.53801 0.66117 0.11216 0.0
C509 C 0.55798 0.67707 0.1198 0.0
C510 C 0.56039 0.69323 0.13772 0.0
C511 C 0.53522 0.64385 0.09367 0.0
C512 C 0.53393 0.62621 0.10655 0.0
C513 C 0.53158 0.64377 0.06412 0.0
C514 C 0.53206 0.66182 0.04983 0.0
C515 C 0.55047 0.6813 0.04929 0.0
C516 C 0.55074 0.69832 0.03598 0.0
C517 C 0.53272 0.69599 0.02299 0.0
C518 C 0.51441 0.67662 0.02319 0.0
C519 C 0.51406 0.65956 0.03649 0.0
H520 H 0.53296 0.70919 0.01269 0.0
H521 H 0.5175 0.54002 0.14641 0.0
H522 H 0.95687 0.53865 0.52621 0.0
H523 H 0.93932 0.55077 0.55833 0.0
H524 H 0.98199 0.55783 0.62577 0.0
H525 H 0.9997 0.54553 0.59365 0.0
H526 H 0.94116 0.53679 0.64317 0.0
H527 H 0.98616 0.6005 0.59535 0.0
H528 H 0.0032 0.62336 0.55404 0.0
H529 H 0.9437 0.61132 0.52279 0.0
H530 H 0.92625 0.58813 0.5637 0.0
H531 H 0.89257 0.57879 0.73096 0.0
H532 H 0.91993 0.57649 0.7047 0.0
H533 H 0.8867 0.56899 0.62599 0.0
H534 H 0.85973 0.57196 0.65191 0.0
H535 H 0.92784 0.59427 0.6187 0.0
H536 H 0.88282 0.52703 0.66188 0.0
H537 H 0.86502 0.50312 0.70202 0.0
H538 H 0.92415 0.52121 0.74099 0.0
H539 H 0.94228 0.54544 0.70122 0.0
C540 C 0.96267 0.54291 0.54779 0.0
C541 C 0.9797 0.54113 0.55737 0.0
C542 C 0.95267 0.54995 0.5661 0.0
C543 C 0.9595 0.55541 0.59434 0.0
C544 C 0.97655 0.55377 0.604 0.0
C545 C 0.98667 0.54681 0.5856 0.0
C546 C 0.94804 0.56184 0.61392 0.0
C547 C 0.93863 0.54967 0.63821 0.0
C548 C 0.94445 0.57839 0.6071 0.0
C549 C 0.95489 0.59246 0.58253 0.0
C550 C 0.97669 0.6026 0.57957 0.0
C551 C 0.98643 0.61564 0.55624 0.0
C552 C 0.97454 0.61876 0.53578 0.0
C553 C 0.95289 0.60888 0.53865 0.0
C554 C 0.94307 0.59581 0.56194 0.0
C555 C 0.89129 0.57701 0.708 0.0
C556 C 0.8739 0.57538 0.69352 0.0
C557 C 0.90684 0.57553 0.69306 0.0
C558 C 0.90521 0.57229 0.66344 0.0
C559 C 0.88825 0.57142 0.64885 0.0
C560 C 0.87274 0.57292 0.66373 0.0
C561 C 0.9206 0.56894 0.64758 0.0
C562 C 0.9307 0.58166 0.62397 0.0
C563 C 0.92476 0.55283 0.65494 0.0
C564 C 0.91388 0.53822 0.67878 0.0
C565 C 0.89201 0.52602 0.67913 0.0
C566 C 0.88187 0.5124 0.70179 0.0
C567 C 0.89345 0.5107 0.72409 0.0
C568 C 0.9152 0.52258 0.72373 0.0
C569 C 0.92541 0.53625 0.70114 0.0
H570 H 0.88557 0.50014 0.74162 0.0
H571 H 0.98211 0.62886 0.51773 0.0
H572 H 0.47914 -2e-05 0.10192 0.0
H573 H 0.44898 0.97988 0.13336 0.0
H574 H 0.40903 0.95528 0.05971 0.0
H575 H 0.43887 0.97498 0.02842 0.0
H576 H 0.39157 0.96706 0.10374 0.0
H577 H 0.42734 0.92791 0.08905 0.0
H578 H 0.45762 0.92258 0.09143 0.0
H579 H 0.45975 0.92974 0.18244 0.0
H580 H 0.42972 0.93555 0.18054 0.0
H581 H 0.30343 0.87088 0.13533 0.0
H582 H 0.33613 0.89934 0.11685 0.0
H583 H 0.36355 0.90942 0.20067 0.0
H584 H 0.33071 0.88104 0.21946 0.0
H585 H 0.38954 0.90921 0.15968 0.0
H586 H 0.35063 0.94356 0.17495 0.0
H587 H 0.32014 0.94849 0.17239 0.0
H588 H 0.32373 0.95026 0.08095 0.0
H589 H 0.35408 0.94502 0.08293 0.0
C590 C 0.46384 0.99054 0.09255 0.0
C591 C 0.46132 0.98893 0.06277 0.0
C592 C 0.4467 0.97902 0.11047 0.0
C593 C 0.42685 0.96601 0.09879 0.0
C594 C 0.42421 0.96523 0.06913 0.0
C595 C 0.44129 0.97644 0.05129 0.0
C596 C 0.40882 0.9522 0.11695 0.0
C597 C 0.39109 0.9544 0.116 0.0
C598 C 0.40846 0.93604 0.13348 0.0
C599 C 0.42649 0.93251 0.13461 0.0
C600 C 0.43441 0.92859 0.10954 0.0
C601 C 0.4515 0.92545 0.1108 0.0
C602 C 0.46067 0.92595 0.13705 0.0
C603 C 0.45269 0.92947 0.16211 0.0
C604 C 0.43564 0.9327 0.16095 0.0
C605 C 0.31631 0.87931 0.14993 0.0
C606 C 0.31444 0.87372 0.17887 0.0
C607 C 0.33501 0.89556 0.13933 0.0
C608 C 0.35221 0.90664 0.15746 0.0
C609 C 0.35047 0.90106 0.18633 0.0
C610 C 0.33173 0.8848 0.19698 0.0
C611 C 0.37206 0.92373 0.14586 0.0
C612 C 0.39012 0.92213 0.148 0.0
C613 C 0.37275 0.94048 0.13042 0.0
C614 C 0.35457 0.94377 0.1291 0.0
C615 C 0.34484 0.94486 0.15428 0.0
C616 C 0.32759 0.94772 0.15294 0.0
C617 C 0.31998 0.94965 0.12653 0.0
C618 C 0.32964 0.94876 0.1014 0.0
C619 C 0.34689 0.94587 0.10262 0.0
H620 H 0.30662 0.95187 0.12553 0.0
H621 H 0.47394 0.92358 0.13798 0.0
H622 H 0.50577 0.46158 0.57229 0.0
H623 H 0.49594 0.4286 0.59599 0.0
H624 H 0.49527 0.40075 0.51494 0.0
H625 H 0.50539 0.43395 0.49092 0.0
H626 H 0.45874 0.37719 0.54927 0.0
H627 H 0.53302 0.40808 0.55719 0.0
H628 H 0.56894 0.4356 0.56812 0.0
H629 H 0.55145 0.4376 0.65486 0.0
H630 H 0.51542 0.40989 0.64449 0.0
H631 H 0.44464 0.28383 0.61554 0.0
H632 H 0.4563 0.31495 0.58595 0.0
H633 H 0.46902 0.35246 0.66176 0.0
H634 H 0.45757 0.32148 0.69136 0.0
H635 H 0.50083 0.37019 0.6262 0.0
H636 H 0.42657 0.33992 0.61879 0.0
H637 H 0.39053 0.31229 0.60861 0.0
H638 H 0.4071 0.30984 0.52152 0.0
H639 H 0.44334 0.33728 0.53129 0.0
C640 C 0.50367 0.44849 0.55948 0.0
C641 C 0.50629 0.45031 0.52973 0.0
C642 C 0.49814 0.4297 0.57308 0.0
C643 C 0.49496 0.41231 0.5572 0.0
C644 C 0.4977 0.41406 0.52751 0.0
C645 C 0.50355 0.43301 0.51388 0.0
C646 C 0.48798 0.3922 0.5718 0.0
C647 C 0.46806 0.37545 0.56571 0.0
C648 C 0.49997 0.39023 0.59371 0.0
C649 C 0.52151 0.40704 0.60001 0.0
C650 C 0.53681 0.4145 0.57854 0.0
C651 C 0.5572 0.43009 0.58466 0.0
C652 C 0.56246 0.43844 0.61213 0.0
C653 C 0.54735 0.43113 0.63359 0.0
C654 C 0.52697 0.41541 0.62764 0.0
C655 C 0.44965 0.29868 0.62584 0.0
C656 C 0.45027 0.30026 0.65574 0.0
C657 C 0.45633 0.31645 0.60893 0.0
C658 C 0.46347 0.33603 0.62165 0.0
C659 C 0.4637 0.33754 0.6515 0.0
C660 C 0.45717 0.31984 0.66838 0.0
C661 C 0.47139 0.35513 0.60402 0.0
C662 C 0.49151 0.37175 0.60958 0.0
C663 C 0.45949 0.35699 0.58177 0.0
C664 C 0.43772 0.34048 0.57585 0.0
C665 C 0.42258 0.33336 0.59753 0.0
C666 C 0.4021 0.31776 0.59182 0.0
C667 C 0.39654 0.30927 0.56446 0.0
C668 C 0.41144 0.3164 0.54272 0.0
C669 C 0.43194 0.33199 0.54832 0.0
H670 H 0.38069 0.29719 0.56008 0.0
H671 H 0.57826 0.45055 0.6168 0.0
H672 H 0.49132 0.92543 0.50438 0.0
H673 H 0.49942 0.90182 0.47809 0.0
H674 H 0.54469 0.95351 0.42779 0.0
H675 H 0.53611 0.97695 0.45325 0.0
H676 H 0.52148 0.9234 0.39417 0.0
H677 H 0.5584 0.92826 0.48017 0.0
H678 H 0.56326 0.92674 0.53196 0.0
H679 H 0.51656 0.86188 0.53271 0.0
H680 H 0.51122 0.86308 0.48096 0.0
H681 H 0.56843 0.87055 0.32819 0.0
H682 H 0.56362 0.89395 0.3603 0.0
H683 H 0.50849 0.84144 0.39515 0.0
H684 H 0.51312 0.81798 0.36288 0.0
H685 H 0.53705 0.87144 0.43692 0.0
H686 H 0.50046 0.86789 0.34995 0.0
H687 H 0.49728 0.8702 0.2979 0.0
H688 H 0.54598 0.93429 0.29931 0.0
H689 H 0.54967 0.93226 0.35135 0.0
C690 C 0.50323 0.93179 0.48802 0.0
C691 C 0.51304 0.95303 0.48082 0.0
C692 C 0.5079 0.91829 0.47304 0.0
C693 C 0.52277 0.92588 0.451 0.0
C694 C 0.53309 0.94724 0.44456 0.0
C695 C 0.52821 0.96065 0.45921 0.0
C696 C 0.52669 0.91148 0.43342 0.0
C697 C 0.52522 0.9123 0.40361 0.0
C698 C 0.5311 0.89661 0.44561 0.0
C699 C 0.53427 0.89582 0.47673 0.0
C700 C 0.54905 0.91372 0.49142 0.0
C701 C 0.55191 0.9129 0.52076 0.0
C702 C 0.54018 0.89424 0.53563 0.0
C703 C 0.52561 0.87633 0.52117 0.0
C704 C 0.52267 0.87707 0.49183 0.0
C705 C 0.55541 0.86401 0.3429 0.0
C706 C 0.54109 0.8425 0.34303 0.0
C707 C 0.55266 0.87736 0.36113 0.0
C708 C 0.53567 0.86938 0.37998 0.0
C709 C 0.5217 0.84785 0.38076 0.0
C710 C 0.52427 0.83453 0.36223 0.0
C711 C 0.53201 0.88364 0.39797 0.0
C712 C 0.53342 0.88269 0.4277 0.0
C713 C 0.52778 0.89857 0.38576 0.0
C714 C 0.52549 0.89986 0.3545 0.0
C715 C 0.51062 0.88242 0.33913 0.0
C716 C 0.5087 0.88369 0.30963 0.0
C717 C 0.52146 0.90236 0.29529 0.0
C718 C 0.53613 0.91982 0.31044 0.0
C719 C 0.53813 0.91863 0.33994 0.0
H720 H 0.51995 0.90331 0.27246 0.0
H721 H 0.54243 0.89364 0.55835 0.0
H722 H 0.53648 0.50228 0.92977 0.0
H723 H 0.5695 0.51055 0.90753 0.0
H724 H 0.59424 0.50761 0.98957 0.0
H725 H 0.56095 0.49904 0.01213 0.0
H726 H 0.62065 0.544 0.95702 0.0
H727 H 0.58561 0.4698 0.94617 0.0
H728 H 0.55702 0.43474 0.93364 0.0
H729 H 0.55796 0.45454 0.84732 0.0
H730 H 0.58676 0.4897 0.85929 0.0
H731 H 0.71254 0.55298 0.89295 0.0
H732 H 0.6811 0.54213 0.92147 0.0
H733 H 0.64583 0.5343 0.84464 0.0
H734 H 0.67716 0.54499 0.81603 0.0
H735 H 0.62559 0.50162 0.87872 0.0
H736 H 0.66057 0.57619 0.88984 0.0
H737 H 0.68989 0.61091 0.90217 0.0
H738 H 0.68889 0.59081 0.98834 0.0
H739 H 0.65972 0.55586 0.97641 0.0
C740 C 0.5489 0.50332 0.94313 0.0
C741 C 0.54616 0.50009 0.97273 0.0
C742 C 0.56771 0.50793 0.93035 0.0
C743 C 0.58423 0.50956 0.9469 0.0
C744 C 0.58161 0.50635 0.97647 0.0
C745 C 0.56262 0.50142 0.98927 0.0
C746 C 0.60439 0.51544 0.93311 0.0
C747 C 0.62191 0.53458 0.94028 0.0
C748 C 0.6058 0.50334 0.91088 0.0
C749 C 0.58821 0.4824 0.90368 0.0
C750 C 0.57962 0.46671 0.92457 0.0
C751 C 0.56345 0.4468 0.91754 0.0
C752 C 0.55562 0.44242 0.88973 0.0
C753 C 0.56403 0.45794 0.86886 0.0
C754 C 0.58035 0.47784 0.87571 0.0
C755 C 0.69813 0.5492 0.88219 0.0
C756 C 0.69729 0.54983 0.85227 0.0
C757 C 0.68018 0.54298 0.8985 0.0
C758 C 0.66114 0.53754 0.8852 0.0
C759 C 0.66034 0.53836 0.85534 0.0
C760 C 0.67823 0.54444 0.83903 0.0
C761 C 0.64188 0.53041 0.90222 0.0
C762 C 0.62448 0.51102 0.89563 0.0
C763 C 0.64061 0.54234 0.92493 0.0
C764 C 0.65811 0.56335 0.93215 0.0
C765 C 0.66671 0.57912 0.91136 0.0
C766 C 0.68328 0.59885 0.91829 0.0
C767 C 0.69129 0.60304 0.946 0.0
C768 C 0.6827 0.58753 0.96687 0.0
C769 C 0.66613 0.56776 0.96004 0.0
H770 H 0.70412 0.61833 0.95133 0.0
H771 H 0.54304 0.42701 0.88436 0.0
H772 H 0.00088 0.54795 0.39902 0.0
H773 H 0.02217 0.57832 0.36876 0.0
H774 H 0.06179 0.6103 0.44056 0.0
H775 H 0.04074 0.58014 0.47083 0.0
H776 H 0.05227 0.63582 0.40825 0.0
H777 H 0.07695 0.58722 0.39451 0.0
H778 H 0.07325 0.55315 0.38233 0.0
H779 H 0.05248 0.55698 0.29822 0.0
H780 H 0.05571 0.59093 0.31007 0.0
H781 H 0.14757 0.71239 0.34955 0.0
H782 H 0.11972 0.68244 0.37437 0.0
H783 H 0.08888 0.65706 0.29413 0.0
H784 H 0.11708 0.68684 0.26899 0.0
H785 H 0.09047 0.62768 0.3269 0.0
H786 H 0.06948 0.67845 0.33952 0.0
H787 H 0.07365 0.71262 0.3522 0.0
H788 H 0.08782 0.70498 0.43862 0.0
H789 H 0.08403 0.67088 0.42638 0.0
C790 C 0.01399 0.56155 0.40841 0.0
C791 C 0.0192 0.56161 0.43727 0.0
C792 C 0.02617 0.57883 0.39109 0.0
C793 C 0.04364 0.59647 0.40241 0.0
C794 C 0.04838 0.59684 0.43143 0.0
C795 C 0.03637 0.57955 0.44865 0.0
C796 C 0.05759 0.61427 0.38394 0.0
C797 C 0.06071 0.63409 0.39053 0.0
C798 C 0.0682 0.61186 0.36046 0.0
C799 C 0.06631 0.59149 0.35329 0.0
C800 C 0.0714 0.58071 0.3735 0.0
C801 C 0.06943 0.56144 0.36665 0.0
C802 C 0.06259 0.55288 0.33955 0.0
C803 C 0.05774 0.5636 0.31922 0.0
C804 C 0.05963 0.58286 0.326 0.0
C805 C 0.13492 0.7004 0.33715 0.0
C806 C 0.13455 0.70197 0.30729 0.0
C807 C 0.1189 0.68339 0.3514 0.0
C808 C 0.1021 0.66763 0.33614 0.0
C809 C 0.10165 0.66911 0.30632 0.0
C810 C 0.11769 0.68618 0.29202 0.0
C811 C 0.08541 0.64935 0.35142 0.0
C812 C 0.0818 0.62941 0.34429 0.0
C813 C 0.07438 0.65166 0.37447 0.0
C814 C 0.07662 0.67216 0.38196 0.0
C815 C 0.07364 0.68412 0.36118 0.0
C816 C 0.07591 0.70347 0.3683 0.0
C817 C 0.08103 0.71098 0.39618 0.0
C818 C 0.08386 0.69914 0.41703 0.0
C819 C 0.08163 0.67979 0.41001 0.0
H820 H 0.08278 0.72597 0.40165 0.0
H821 H 0.06108 0.53797 0.33427 0.0
H822 H 0.47903 0.04682 0.98058 0.0
H823 H 0.46618 0.06638 0.95408 0.0
H824 H 0.45815 0.02905 0.87936 0.0
H825 H 0.47046 0.0089 0.90617 0.0
H826 H 0.48276 0.09055 0.91117 0.0
H827 H 0.42009 0.02812 0.83664 0.0
H828 H 0.39423 0.99055 0.83708 0.0
H829 H 0.39159 0.99156 0.92852 0.0
H830 H 0.41721 0.02918 0.92861 0.0
H831 H 0.46356 0.14274 0.80206 0.0
H832 H 0.46987 0.11728 0.82655 0.0
H833 H 0.40985 0.09138 0.86765 0.0
H834 H 0.40323 0.11652 0.84233 0.0
H835 H 0.41768 0.06111 0.85418 0.0
H836 H 0.45449 0.12691 0.902 0.0
H837 H 0.47838 0.16482 0.90584 0.0
H838 H 0.52916 0.15732 0.87658 0.0
H839 H 0.5055 0.11938 0.87216 0.0
C840 C 0.47438 0.04264 0.95857 0.0
C841 C 0.47585 0.02638 0.94541 0.0
C842 C 0.46704 0.05385 0.94343 0.0
C843 C 0.46115 0.04919 0.91474 0.0
C844 C 0.4623 0.03274 0.9016 0.0
C845 C 0.46942 0.0213 0.9169 0.0
C846 C 0.45501 0.06241 0.89836 0.0
C847 C 0.46851 0.08406 0.89874 0.0
C848 C 0.43628 0.05402 0.88244 0.0
C849 C 0.42074 0.03143 0.88262 0.0
C850 C 0.41394 0.02034 0.85683 0.0
C851 C 0.39933 0.99903 0.85699 0.0
C852 C 0.39133 0.98866 0.88281 0.0
C853 C 0.39787 0.99959 0.90853 0.0
C854 C 0.41246 0.0209 0.90849 0.0
C855 C 0.45169 0.13151 0.81622 0.0
C856 C 0.43306 0.13171 0.82072 0.0
C857 C 0.45528 0.117 0.83017 0.0
C858 C 0.44052 0.10272 0.8494 0.0
C859 C 0.42148 0.1023 0.85298 0.0
C860 C 0.41773 0.11666 0.83863 0.0
C861 C 0.44553 0.08914 0.86691 0.0
C862 C 0.4319 0.0675 0.86665 0.0
C863 C 0.46387 0.09754 0.88365 0.0
C864 C 0.47819 0.12033 0.88651 0.0
C865 C 0.47073 0.13337 0.89621 0.0
C866 C 0.48422 0.15486 0.89851 0.0
C867 C 0.50526 0.16348 0.8914 0.0
C868 C 0.51286 0.15062 0.88204 0.0
C869 C 0.49941 0.12912 0.87966 0.0
H870 H 0.51569 0.18012 0.89319 0.0
H871 H 0.38003 0.97216 0.88289 0.0
H872 H 0.45373 0.46254 0.46274 0.0
H873 H 0.42093 0.45263 0.43841 0.0
H874 H 0.4148 0.49899 0.48633 0.0
H875 H 0.4474 0.50859 0.51147 0.0
H876 H 0.37678 0.46419 0.47634 0.0
H877 H 0.43772 0.51145 0.42213 0.0
H878 H 0.4724 0.52165 0.40236 0.0
H879 H 0.44547 0.46654 0.3504 0.0
H880 H 0.41068 0.45583 0.37025 0.0
H881 H 0.33302 0.48662 0.33911 0.0
H882 H 0.36243 0.49241 0.36921 0.0
H883 H 0.32716 0.42929 0.4003 0.0
H884 H 0.29752 0.42351 0.37061 0.0
H885 H 0.3861 0.47389 0.37148 0.0
H886 H 0.33873 0.42993 0.4715 0.0
H887 H 0.30524 0.42065 0.49455 0.0
H888 H 0.30627 0.47372 0.45599 0.0
H889 H 0.33989 0.48348 0.43307 0.0
C890 C 0.4452 0.47036 0.46851 0.0
C891 C 0.45325 0.48655 0.48868 0.0
C892 C 0.42647 0.46468 0.45459 0.0
C893 C 0.41571 0.47541 0.46011 0.0
C894 C 0.42293 0.49058 0.48168 0.0
C895 C 0.44157 0.49608 0.49597 0.0
C896 C 0.39829 0.47233 0.44136 0.0
C897 C 0.37875 0.46622 0.45342 0.0
C898 C 0.40106 0.47548 0.41152 0.0
C899 C 0.42164 0.48275 0.39786 0.0
C900 C 0.4392 0.50152 0.40647 0.0
C901 C 0.45888 0.50733 0.39537 0.0
C902 C 0.46115 0.49462 0.37537 0.0
C903 C 0.44369 0.47629 0.36603 0.0
C904 C 0.42399 0.47035 0.37717 0.0
C905 C 0.33153 0.47399 0.3524 0.0
C906 C 0.31293 0.45466 0.35267 0.0
C907 C 0.34838 0.47728 0.36941 0.0
C908 C 0.34688 0.46136 0.38718 0.0
C909 C 0.32854 0.44185 0.38695 0.0
C910 C 0.3117 0.43852 0.36983 0.0
C911 C 0.36439 0.46534 0.40638 0.0
C912 C 0.38403 0.47174 0.39438 0.0
C913 C 0.36178 0.46284 0.43632 0.0
C914 C 0.34171 0.45729 0.45033 0.0
C915 C 0.33184 0.43965 0.46803 0.0
C916 C 0.31283 0.43431 0.48106 0.0
C917 C 0.3036 0.44655 0.47666 0.0
C918 C 0.3134 0.46421 0.4593 0.0
C919 C 0.33241 0.46964 0.44625 0.0
H920 H 0.28888 0.44237 0.48674 0.0
H921 H 0.47641 0.49904 0.36698 0.0
H922 H 0.00751 0.46254 0.90769 0.0
H923 H 0.98623 0.43279 0.87652 0.0
H924 H 0.94602 0.39982 0.94736 0.0
H925 H 0.9671 0.42941 0.97859 0.0
H926 H 0.95448 0.37431 0.91273 0.0
H927 H 0.93203 0.42505 0.90408 0.0
H928 H 0.93707 0.46003 0.89471 0.0
H929 H 0.95755 0.45833 0.80959 0.0
H930 H 0.95295 0.42345 0.81864 0.0
H931 H 0.85709 0.30294 0.8534 0.0
H932 H 0.88606 0.33147 0.87891 0.0
H933 H 0.91744 0.35708 0.79907 0.0
H934 H 0.88824 0.32865 0.77329 0.0
H935 H 0.91717 0.38672 0.83403 0.0
H936 H 0.93526 0.33354 0.84146 0.0
H937 H 0.92958 0.29842 0.85155 0.0
H938 H 0.91672 0.30435 0.93927 0.0
H939 H 0.92201 0.3394 0.92962 0.0
C940 C 0.99433 0.44882 0.91672 0.0
C941 C 0.98887 0.44837 0.94554 0.0
C942 C 0.98217 0.43189 0.89887 0.0
C943 C 0.96447 0.41423 0.90963 0.0
C944 C 0.95962 0.41333 0.93868 0.0
C945 C 0.97163 0.43029 0.95645 0.0
C946 C 0.95012 0.39724 0.89041 0.0
C947 C 0.94625 0.37696 0.89557 0.0
C948 C 0.93976 0.40086 0.86769 0.0
C949 C 0.94241 0.42177 0.86215 0.0
C950 C 0.93779 0.43222 0.88345 0.0
C951 C 0.94053 0.45201 0.87819 0.0
C952 C 0.94768 0.46142 0.8516 0.0
C953 C 0.95205 0.45103 0.8302 0.0
C954 C 0.94938 0.43126 0.83538 0.0
C955 C 0.87012 0.31469 0.84126 0.0
C956 C 0.87039 0.3136 0.81135 0.0
C957 C 0.88674 0.33086 0.85587 0.0
C958 C 0.90399 0.34625 0.84089 0.0
C959 C 0.90431 0.34528 0.81101 0.0
C960 C 0.88771 0.329 0.79636 0.0
C961 C 0.92127 0.36368 0.85656 0.0
C962 C 0.92566 0.38406 0.85081 0.0
C963 C 0.93204 0.36013 0.87881 0.0
C964 C 0.92889 0.33906 0.88475 0.0
C965 C 0.93106 0.3273 0.86286 0.0
C966 C 0.92794 0.30741 0.86851 0.0
C967 C 0.92275 0.29915 0.89602 0.0
C968 C 0.92072 0.31077 0.91796 0.0
C969 C 0.92381 0.33067 0.91242 0.0
H970 H 0.92034 0.28375 0.90035 0.0
H971 H 0.94979 0.47674 0.84756 0.0
H972 H 0.97811 0.5123 0.93593 0.0
H973 H 0.95584 0.52312 0.91215 0.0
H974 H 0.9262 0.52082 0.99236 0.0
H975 H 0.94811 0.50925 0.01627 0.0
H976 H 0.89801 0.50464 0.95189 0.0
H977 H 0.96279 0.5679 0.9618 0.0
H978 H 0.00085 0.59115 0.95835 0.0
H979 H 0.99751 0.58447 0.86723 0.0
H980 H 0.95946 0.56096 0.87015 0.0
H981 H 0.849 0.55861 0.89434 0.0
H982 H 0.87168 0.55062 0.92318 0.0
H983 H 0.90005 0.54388 0.84662 0.0
H984 H 0.87766 0.55219 0.81766 0.0
H985 H 0.92894 0.56661 0.88856 0.0
H986 H 0.86375 0.50154 0.88037 0.0
H987 H 0.82568 0.47895 0.88503 0.0
H988 H 0.83009 0.49052 0.97522 0.0
H989 H 0.86818 0.51342 0.97101 0.0
C990 C 0.9669 0.51414 0.94858 0.0
C991 C 0.96499 0.51009 0.97805 0.0
C992 C 0.95423 0.52043 0.93495 0.0
C993 C 0.93965 0.52324 0.95055 0.0
C994 C 0.93743 0.51887 0.97992 0.0
C995 C 0.94996 0.5123 0.99356 0.0
C996 C 0.92658 0.53044 0.93594 0.0
C997 C 0.90481 0.51841 0.93847 0.0
C998 C 0.9354 0.54826 0.9181 0.0
C999 C 0.95828 0.56254 0.91622 0.0
C1000 C 0.97019 0.57128 0.94104 0.0
C1001 C 0.99176 0.58452 0.93918 0.0
C1002 C 0.00159 0.58924 0.9126 0.0
C1003 C 0.98987 0.58078 0.88781 0.0
C1004 C 0.9683 0.56753 0.88955 0.0
C1005 C 0.86023 0.55566 0.88368 0.0
C1006 C 0.86152 0.55596 0.85374 0.0
C1007 C 0.87306 0.55095 0.90016 0.0
C1008 C 0.88739 0.54647 0.88701 0.0
C1009 C 0.88904 0.54723 0.85717 0.0
C1010 C 0.87615 0.55183 0.84067 0.0
C1011 C 0.90048 0.54066 0.90426 0.0
C1012 C 0.92222 0.55296 0.90222 0.0
C1013 C 0.89165 0.52324 0.92277 0.0
C1014 C 0.86878 0.50936 0.92533 0.0
C1015 C 0.85658 0.4994 0.90116 0.0
C1016 C 0.83501 0.48651 0.90372 0.0
C1017 C 0.82547 0.48335 0.93039 0.0
C1018 C 0.8375 0.49301 0.95456 0.0
C1019 C 0.85908 0.50593 0.95211 0.0
H1020 H 0.80876 0.47337 0.93234 0.0
H1021 H 0.01829 0.59949 0.91121 0.0
H1022 H 0.43233 0.95519 0.47402 0.0
H1023 H 0.402 0.93572 0.44373 0.0
H1024 H 0.43524 0.97525 0.37243 0.0
H1025 H 0.46591 0.99527 0.40302 0.0
H1026 H 0.39396 0.96591 0.37483 0.0
H1027 H 0.43098 0.92874 0.37597 0.0
H1028 H 0.44981 0.91262 0.39771 0.0
H1029 H 0.39479 0.87013 0.44414 0.0
H1030 H 0.3757 0.8862 0.42302 0.0
H1031 H 0.31634 0.88893 0.28049 0.0
H1032 H 0.34897 0.91448 0.30334 0.0
H1033 H 0.32689 0.88244 0.38366 0.0
H1034 H 0.29423 0.85697 0.36105 0.0
H1035 H 0.36551 0.88945 0.37044 0.0
H1036 H 0.32961 0.92904 0.37138 0.0
H1037 H 0.31127 0.94557 0.3493 0.0
H1038 H 0.36481 0.98345 0.29723 0.0
H1039 H 0.38338 0.96694 0.31876 0.0
C1040 C 0.43327 0.95987 0.45194 0.0
C1041 C 0.45164 0.97662 0.44081 0.0
C1042 C 0.41588 0.94869 0.43464 0.0
C1043 C 0.41653 0.95379 0.40573 0.0
C1044 C 0.43451 0.97101 0.39469 0.0
C1045 C 0.45199 0.98238 0.41214 0.0
C1046 C 0.39851 0.94046 0.38722 0.0
C1047 C 0.38792 0.94924 0.37338 0.0
C1048 C 0.3906 0.91871 0.38554 0.0
C1049 C 0.40194 0.90877 0.39802 0.0
C1050 C 0.42292 0.91604 0.39094 0.0
C1051 C 0.43365 0.9069 0.40315 0.0
C1052 C 0.42352 0.89038 0.42233 0.0
C1053 C 0.40262 0.88293 0.42929 0.0
C1054 C 0.39183 0.89203 0.41717 0.0
C1055 C 0.31828 0.88759 0.30315 0.0
C1056 C 0.30274 0.87093 0.31901 0.0
C1057 C 0.33695 0.90215 0.31613 0.0
C1058 C 0.34031 0.90035 0.34519 0.0
C1059 C 0.32463 0.88403 0.36117 0.0
C1060 C 0.30601 0.86948 0.34823 0.0
C1061 C 0.36053 0.91476 0.35884 0.0
C1062 C 0.37163 0.90615 0.37162 0.0
C1063 C 0.36892 0.93662 0.35929 0.0
C1064 C 0.35779 0.9466 0.34645 0.0
C1065 C 0.33741 0.94077 0.35506 0.0
C1066 C 0.32698 0.95016 0.34267 0.0
C1067 C 0.33684 0.96551 0.32181 0.0
C1068 C 0.35718 0.97154 0.31336 0.0
C1069 C 0.36766 0.96219 0.32566 0.0
H1070 H 0.32874 0.97276 0.31225 0.0
H1071 H 0.43185 0.88334 0.43177 0.0
H1072 H 0.45499 0.4236 0.97185 0.0
H1073 H 0.44609 0.39345 0.94164 0.0
H1074 H 0.45473 0.43065 0.86663 0.0
H1075 H 0.46297 0.46079 0.89689 0.0
H1076 H 0.424 0.39116 0.8582 0.0
H1077 H 0.49384 0.42544 0.89203 0.0
H1078 H 0.52085 0.44111 0.92922 0.0
H1079 H 0.49788 0.38111 0.9682 0.0
H1080 H 0.47011 0.3652 0.93194 0.0
H1081 H 0.46939 0.32157 0.8017 0.0
H1082 H 0.47375 0.35326 0.82432 0.0
H1083 H 0.40817 0.32144 0.84486 0.0
H1084 H 0.40369 0.28988 0.82164 0.0
H1085 H 0.46964 0.3611 0.87626 0.0
H1086 H 0.39014 0.35517 0.84826 0.0
H1087 H 0.36476 0.34275 0.80872 0.0
H1088 H 0.41284 0.35111 0.75003 0.0
H1089 H 0.43856 0.36386 0.78911 0.0
C1090 C 0.45461 0.42526 0.94894 0.0
C1091 C 0.45996 0.4446 0.93668 0.0
C1092 C 0.44953 0.40803 0.9317 0.0
C1093 C 0.45026 0.40996 0.90188 0.0
C1094 C 0.45419 0.42887 0.88959 0.0
C1095 C 0.45893 0.44607 0.90689 0.0
C1096 C 0.44895 0.39291 0.88382 0.0
C1097 C 0.43393 0.38453 0.86212 0.0
C1098 C 0.46247 0.38482 0.88828 0.0
C1099 C 0.47974 0.39415 0.90939 0.0
C1100 C 0.49445 0.41559 0.90863 0.0
C1101 C 0.50985 0.42453 0.92961 0.0
C1102 C 0.51109 0.41211 0.95106 0.0
C1103 C 0.49689 0.39072 0.95158 0.0
C1104 C 0.48125 0.38173 0.93087 0.0
C1105 C 0.45591 0.32139 0.811 0.0
C1106 C 0.4362 0.30328 0.80996 0.0
C1107 C 0.4584 0.33949 0.82387 0.0
C1108 C 0.44127 0.33983 0.8361 0.0
C1109 C 0.42155 0.32174 0.83505 0.0
C1110 C 0.419 0.30369 0.82187 0.0
C1111 C 0.44422 0.3588 0.85107 0.0
C1112 C 0.45968 0.36766 0.8722 0.0
C1113 C 0.43157 0.36774 0.8454 0.0
C1114 C 0.41623 0.36028 0.8217 0.0
C1115 C 0.39532 0.35444 0.8269 0.0
C1116 C 0.38087 0.34733 0.80457 0.0
C1117 C 0.38717 0.34608 0.7769 0.0
C1118 C 0.40796 0.35201 0.77149 0.0
C1119 C 0.42247 0.35915 0.79373 0.0
H1120 H 0.37596 0.34055 0.75965 0.0
H1121 H 0.52306 0.41906 0.96725 0.0
H1122 H 0.06312 0.50863 0.50687 0.0
H1123 H 0.08559 0.49735 0.48422 0.0
H1124 H 0.04317 0.47287 0.413 0.0
H1125 H 0.02054 0.48385 0.43554 0.0
H1126 H 0.05645 0.44634 0.4293 0.0
H1127 H 0.08699 0.51914 0.40735 0.0
H1128 H 0.10149 0.55645 0.41821 0.0
H1129 H 0.14969 0.55615 0.46873 0.0
H1130 H 0.13531 0.51876 0.4585 0.0
H1131 H 0.12441 0.44189 0.32516 0.0
H1132 H 0.10032 0.44886 0.35225 0.0
H1133 H 0.14387 0.47218 0.42233 0.0
H1134 H 0.16791 0.46504 0.39555 0.0
H1135 H 0.13006 0.49869 0.40804 0.0
H1136 H 0.09991 0.42562 0.42747 0.0
H1137 H 0.08527 0.38851 0.4153 0.0
H1138 H 0.03615 0.38946 0.3679 0.0
H1139 H 0.05067 0.42667 0.37946 0.0
C1140 C 0.05852 0.50076 0.48644 0.0
C1141 C 0.0401 0.49724 0.47293 0.0
C1142 C 0.0714 0.49438 0.47352 0.0
C1143 C 0.06612 0.48446 0.44682 0.0
C1144 C 0.04751 0.4805 0.43362 0.0
C1145 C 0.03464 0.48687 0.44649 0.0
C1146 C 0.08023 0.47868 0.43225 0.0
C1147 C 0.0725 0.4578 0.42439 0.0
C1148 C 0.10124 0.4936 0.4263 0.0
C1149 C 0.10994 0.5161 0.43241 0.0
C1150 C 0.10058 0.52699 0.42097 0.0
C1151 C 0.10879 0.54816 0.42697 0.0
C1152 C 0.12646 0.55864 0.44421 0.0
C1153 C 0.13598 0.548 0.45542 0.0
C1154 C 0.12782 0.52682 0.44951 0.0
C1155 C 0.12869 0.44816 0.34653 0.0
C1156 C 0.14809 0.45298 0.35818 0.0
C1157 C 0.11494 0.45217 0.36195 0.0
C1158 C 0.1203 0.46095 0.38934 0.0
C1159 C 0.13949 0.46547 0.40119 0.0
C1160 C 0.15322 0.46145 0.38582 0.0
C1161 C 0.10632 0.46633 0.40512 0.0
C1162 C 0.11407 0.48718 0.41312 0.0
C1163 C 0.08531 0.4514 0.41102 0.0
C1164 C 0.0765 0.42899 0.40412 0.0
C1165 C 0.08609 0.41797 0.41426 0.0
C1166 C 0.07779 0.3969 0.40751 0.0
C1167 C 0.05982 0.38665 0.39078 0.0
C1168 C 0.05008 0.39743 0.38083 0.0
C1169 C 0.05833 0.4185 0.3875 0.0
H1170 H 0.05342 0.37034 0.38558 0.0
H1171 H 0.13279 0.57503 0.44883 0.0
H1172 H 0.5775 0.07004 0.00655 0.0
H1173 H 0.60988 0.09233 0.98063 0.0
H1174 H 0.587 0.05025 0.90891 0.0
H1175 H 0.55488 0.02777 0.93474 0.0
H1176 H 0.62719 0.06314 0.91807 0.0
H1177 H 0.5846 0.09514 0.90968 0.0
H1178 H 0.56372 0.11025 0.92758 0.0
H1179 H 0.61701 0.15724 0.97277 0.0
H1180 H 0.63814 0.14222 0.95542 0.0
H1181 H 0.68816 0.12938 0.80438 0.0
H1182 H 0.66041 0.10597 0.83682 0.0
H1183 H 0.68885 0.15057 0.90498 0.0
H1184 H 0.71677 0.17393 0.87281 0.0
H1185 H 0.64763 0.13698 0.90062 0.0
H1186 H 0.69095 0.1061 0.90514 0.0
H1187 H 0.7114 0.09092 0.8859 0.0
H1188 H 0.65638 0.04174 0.84654 0.0
H1189 H 0.63564 0.0568 0.86522 0.0
C1190 C 0.57943 0.06546 0.98535 0.0
C1191 C 0.56354 0.04719 0.97267 0.0
C1192 C 0.59791 0.07825 0.97052 0.0
C1193 C 0.60074 0.07308 0.94268 0.0
C1194 C 0.58516 0.05455 0.93035 0.0
C1195 C 0.56675 0.04176 0.94515 0.0
C1196 C 0.61958 0.08722 0.92589 0.0
C1197 C 0.63158 0.07925 0.91406 0.0
C1198 C 0.62554 0.10835 0.92112 0.0
C1199 C 0.61288 0.11742 0.93152 0.0
C1200 C 0.59182 0.10859 0.92362 0.0
C1201 C 0.57995 0.11716 0.93363 0.0
C1202 C 0.58902 0.13465 0.95137 0.0
C1203 C 0.60999 0.14366 0.95907 0.0
C1204 C 0.62193 0.13514 0.94914 0.0
C1205 C 0.68871 0.13405 0.82639 0.0
C1206 C 0.70465 0.15357 0.83596 0.0
C1207 C 0.67282 0.12067 0.8449 0.0
C1208 C 0.67262 0.12649 0.87336 0.0
C1209 C 0.68866 0.14581 0.88308 0.0
C1210 C 0.70456 0.15917 0.86463 0.0
C1211 C 0.65517 0.11287 0.89261 0.0
C1212 C 0.64339 0.12094 0.90485 0.0
C1213 C 0.64936 0.09182 0.89759 0.0
C1214 C 0.66178 0.08269 0.88638 0.0
C1215 C 0.68324 0.09214 0.89219 0.0
C1216 C 0.69488 0.08354 0.88142 0.0
C1217 C 0.6852 0.0654 0.86495 0.0
C1218 C 0.66386 0.0558 0.85928 0.0
C1219 C 0.65215 0.06435 0.86998 0.0
H1220 H 0.69424 0.05876 0.85664 0.0
H1221 H 0.5798 0.14127 0.95909 0.0
H1222 H 0.5062 0.55175 0.45249 0.0
H1223 H 0.51244 0.57921 0.4184 0.0
H1224 H 0.56323 0.57447 0.38155 0.0
H1225 H 0.55667 0.54637 0.41532 0.0
H1226 H 0.57143 0.61693 0.39973 0.0
H1227 H 0.52678 0.55943 0.33954 0.0
H1228 H 0.49586 0.52637 0.32527 0.0
H1229 H 0.45629 0.55156 0.34534 0.0
H1230 H 0.48699 0.58479 0.35971 0.0
H1231 H 0.58234 0.69321 0.29616 0.0
H1232 H 0.58053 0.6626 0.31912 0.0
H1233 H 0.51859 0.64392 0.3494 0.0
H1234 H 0.52022 0.67417 0.32616 0.0
H1235 H 0.51939 0.61163 0.32863 0.0
H1236 H 0.56267 0.66756 0.39308 0.0
H1237 H 0.59297 0.70128 0.40675 0.0
H1238 H 0.63436 0.67942 0.38111 0.0
H1239 H 0.60428 0.64564 0.36693 0.0
C1240 C 0.51866 0.55649 0.43707 0.0
C1241 C 0.53107 0.54708 0.43664 0.0
C1242 C 0.52211 0.57207 0.41753 0.0
C1243 C 0.53824 0.57877 0.3975 0.0
C1244 C 0.55066 0.56939 0.39686 0.0
C1245 C 0.5469 0.5534 0.41607 0.0
C1246 C 0.54255 0.59637 0.37847 0.0
C1247 C 0.56034 0.61575 0.38366 0.0
C1248 C 0.52776 0.59481 0.35815 0.0
C1249 C 0.50917 0.57455 0.35084 0.0
C1250 C 0.51147 0.55784 0.34119 0.0
C1251 C 0.49399 0.53913 0.33291 0.0
C1252 C 0.47414 0.5369 0.33428 0.0
C1253 C 0.47169 0.55334 0.34415 0.0
C1254 C 0.48912 0.57214 0.35229 0.0
C1255 C 0.56841 0.68259 0.30788 0.0
C1256 C 0.5514 0.68601 0.30934 0.0
C1257 C 0.56739 0.66514 0.32098 0.0
C1258 C 0.54947 0.65102 0.33614 0.0
C1259 C 0.53253 0.65451 0.33767 0.0
C1260 C 0.53347 0.67179 0.32438 0.0
C1261 C 0.54805 0.63244 0.35033 0.0
C1262 C 0.53073 0.61285 0.3443 0.0
C1263 C 0.56317 0.63389 0.37013 0.0
C1264 C 0.58125 0.65419 0.37861 0.0
C1265 C 0.57824 0.67002 0.39012 0.0
C1266 C 0.59537 0.68912 0.39801 0.0
C1267 C 0.61558 0.69252 0.39471 0.0
C1268 C 0.6187 0.67678 0.38359 0.0
C1269 C 0.60162 0.65766 0.37564 0.0
H1270 H 0.62883 0.70732 0.40084 0.0
H1271 H 0.46063 0.52242 0.3278 0.0
H1272 H 0.45914 0.02658 0.52075 0.0
H1273 H 0.44727 0.04665 0.54821 0.0
H1274 H 0.45714 0.02208 0.6264 0.0
H1275 H 0.4684 0.00127 0.59879 0.0
H1276 H 0.4235 0.02786 0.63051 0.0
H1277 H 0.49417 0.06673 0.60037 0.0
H1278 H 0.52247 0.07909 0.56505 0.0
H1279 H 0.49738 0.1124 0.52081 0.0
H1280 H 0.46821 0.09929 0.55501 0.0
H1281 H 0.43823 0.11566 0.71457 0.0
H1282 H 0.44253 0.08848 0.69112 0.0
H1283 H 0.42946 0.10655 0.60968 0.0
H1284 H 0.42533 0.13386 0.63295 0.0
H1285 H 0.46544 0.10361 0.60994 0.0
H1286 H 0.39365 0.06265 0.64011 0.0
H1287 H 0.3651 0.04886 0.6753 0.0
H1288 H 0.39457 0.02087 0.72224 0.0
H1289 H 0.42346 0.03474 0.68751 0.0
C1290 C 0.45844 0.02517 0.54377 0.0
C1291 C 0.46499 0.01266 0.55771 0.0
C1292 C 0.45165 0.03662 0.55943 0.0
C1293 C 0.45183 0.03625 0.58935 0.0
C1294 C 0.457 0.02267 0.60332 0.0
C1295 C 0.46347 0.01085 0.58756 0.0
C1296 C 0.44866 0.05156 0.60571 0.0
C1297 C 0.43281 0.04444 0.62628 0.0
C1298 C 0.46085 0.07322 0.60013 0.0
C1299 C 0.47884 0.08183 0.58014 0.0
C1300 C 0.49455 0.07655 0.58299 0.0
C1301 C 0.51074 0.08365 0.56312 0.0
C1302 C 0.51178 0.0966 0.54077 0.0
C1303 C 0.49655 0.10237 0.53815 0.0
C1304 C 0.48012 0.09501 0.55769 0.0
C1305 C 0.43622 0.11378 0.69167 0.0
C1306 C 0.43149 0.12688 0.67554 0.0
C1307 C 0.43854 0.09818 0.67836 0.0
C1308 C 0.43622 0.09548 0.64871 0.0
C1309 C 0.43126 0.10838 0.63261 0.0
C1310 C 0.42878 0.12387 0.64592 0.0
C1311 C 0.43993 0.07988 0.6342 0.0
C1312 C 0.4561 0.08703 0.61414 0.0
C1313 C 0.42824 0.05835 0.64058 0.0
C1314 C 0.41082 0.04991 0.66137 0.0
C1315 C 0.39413 0.0537 0.65806 0.0
C1316 C 0.37787 0.04584 0.6779 0.0
C1317 C 0.37805 0.03404 0.70104 0.0
C1318 C 0.39447 0.03003 0.70433 0.0
C1319 C 0.41078 0.03787 0.68456 0.0
H1320 H 0.36545 0.02797 0.71637 0.0
H1321 H 0.52439 0.10216 0.52548 0.0
H1322 H 0.45851 0.46917 0.09484 0.0
H1323 H 0.42811 0.46019 0.12484 0.0
H1324 H 0.39184 0.4543 0.04971 0.0
H1325 H 0.42233 0.46409 0.01988 0.0
H1326 H 0.38579 0.47608 0.0865 0.0
H1327 H 0.38522 0.41119 0.09098 0.0
H1328 H 0.39969 0.38805 0.09935 0.0
H1329 H 0.41115 0.40721 0.18705 0.0
H1330 H 0.397 0.43069 0.17911 0.0
H1331 H 0.28693 0.43058 0.15318 0.0
H1332 H 0.31581 0.43328 0.12445 0.0
H1333 H 0.35514 0.45202 0.19905 0.0
H1334 H 0.32629 0.44928 0.22793 0.0
H1335 H 0.35911 0.42289 0.16328 0.0
H1336 H 0.35994 0.48838 0.15701 0.0
H1337 H 0.34444 0.51052 0.14776 0.0
H1338 H 0.33126 0.48843 0.06137 0.0
H1339 H 0.34641 0.46591 0.07025 0.0
C1340 C 0.44397 0.46573 0.08477 0.0
C1341 C 0.44279 0.46741 0.05506 0.0
C1342 C 0.42657 0.4605 0.1019 0.0
C1343 C 0.40758 0.45638 0.08955 0.0
C1344 C 0.4063 0.45749 0.05979 0.0
C1345 C 0.42374 0.46306 0.04274 0.0
C1346 C 0.38935 0.45215 0.10754 0.0
C1347 C 0.3798 0.46418 0.10294 0.0
C1348 C 0.38175 0.43698 0.12952 0.0
C1349 C 0.39024 0.42285 0.13437 0.0
C1350 C 0.39098 0.41059 0.11199 0.0
C1351 C 0.39909 0.39739 0.11667 0.0
C1352 C 0.40639 0.3962 0.14369 0.0
C1353 C 0.40552 0.40817 0.16612 0.0
C1354 C 0.39744 0.42141 0.16155 0.0
C1355 C 0.30164 0.43497 0.16351 0.0
C1356 C 0.30444 0.43985 0.19272 0.0
C1357 C 0.31812 0.43659 0.14709 0.0
C1358 C 0.33761 0.44299 0.15965 0.0
C1359 C 0.34021 0.44707 0.18901 0.0
C1360 C 0.3238 0.44565 0.20539 0.0
C1361 C 0.35561 0.44663 0.14183 0.0
C1362 C 0.36513 0.43463 0.14663 0.0
C1363 C 0.36309 0.46165 0.1198 0.0
C1364 C 0.35411 0.4753 0.11439 0.0
C1365 C 0.35358 0.48811 0.13611 0.0
C1366 C 0.34489 0.50075 0.13093 0.0
C1367 C 0.33682 0.50084 0.10402 0.0
C1368 C 0.33748 0.48832 0.08222 0.0
C1369 C 0.34613 0.47563 0.08731 0.0
H1370 H 0.3301 0.51064 0.10004 0.0
H1371 H 0.41266 0.38597 0.14727 0.0
H1372 H 0.92328 0.45222 0.49399 0.0
H1373 H 0.89925 0.41894 0.51716 0.0
H1374 H 0.95118 0.41896 0.55876 0.0
H1375 H 0.97515 0.4523 0.5363 0.0
H1376 H 0.91922 0.37879 0.53414 0.0
H1377 H 0.92789 0.43538 0.596 0.0
H1378 H 0.92699 0.46757 0.60627 0.0
H1379 H 0.86197 0.43672 0.58463 0.0
H1380 H 0.86259 0.40443 0.57378 0.0
H1381 H 0.87685 0.31014 0.65117 0.0
H1382 H 0.89698 0.33912 0.61845 0.0
H1383 H 0.84233 0.34427 0.60233 0.0
H1384 H 0.82243 0.3158 0.63587 0.0
H1385 H 0.87333 0.38085 0.60962 0.0
H1386 H 0.86264 0.32332 0.55225 0.0
H1387 H 0.86255 0.29089 0.54013 0.0
H1388 H 0.92905 0.32218 0.55008 0.0
H1389 H 0.92952 0.35474 0.56266 0.0
C1390 C 0.92955 0.44496 0.50779 0.0
C1391 C 0.95103 0.45487 0.51354 0.0
C1392 C 0.91585 0.42603 0.521 0.0
C1393 C 0.92351 0.41661 0.53966 0.0
C1394 C 0.94502 0.426 0.54436 0.0
C1395 C 0.95865 0.44508 0.53165 0.0
C1396 C 0.90913 0.39774 0.55595 0.0
C1397 C 0.90921 0.37916 0.55075 0.0
C1398 C 0.89576 0.39824 0.57701 0.0
C1399 C 0.89535 0.41759 0.58373 0.0
C1400 C 0.91345 0.43553 0.59316 0.0
C1401 C 0.91299 0.45377 0.59914 0.0
C1402 C 0.89445 0.45421 0.59601 0.0
C1403 C 0.87633 0.43638 0.58698 0.0
C1404 C 0.87673 0.4181 0.58092 0.0
C1405 C 0.86915 0.31739 0.64044 0.0
C1406 C 0.84813 0.3108 0.646 0.0
C1407 C 0.88061 0.33387 0.62163 0.0
C1408 C 0.87111 0.34371 0.60751 0.0
C1409 C 0.85003 0.33696 0.61293 0.0
C1410 C 0.83867 0.32072 0.63208 0.0
C1411 C 0.88339 0.36164 0.58813 0.0
C1412 C 0.88302 0.38019 0.59277 0.0
C1413 C 0.89627 0.36097 0.56627 0.0
C1414 C 0.89609 0.34144 0.55863 0.0
C1415 C 0.87723 0.32325 0.55205 0.0
C1416 C 0.87712 0.30485 0.54507 0.0
C1417 C 0.89578 0.30447 0.5444 0.0
C1418 C 0.9146 0.3225 0.55064 0.0
C1419 C 0.91481 0.34094 0.55766 0.0
H1420 H 0.89565 0.2902 0.53899 0.0
H1421 H 0.89411 0.46835 0.60066 0.0
H1422 H 0.54331 0.97986 0.03719 0.0
H1423 H 0.54761 0.95475 0.06616 0.0
H1424 H 0.48794 0.90541 0.03712 0.0
H1425 H 0.48384 0.9304 0.00729 0.0
H1426 H 0.4966 0.91424 0.10173 0.0
H1427 H 0.52213 0.89958 0.01486 0.0
H1428 H 0.54464 0.90934 0.97231 0.0
H1429 H 0.59908 0.93699 0.0256 0.0
H1430 H 0.57688 0.92767 0.06848 0.0
H1431 H 0.49861 0.83148 0.17468 0.0
H1432 H 0.49421 0.8544 0.1418 0.0
H1433 H 0.56087 0.8955 0.1397 0.0
H1434 H 0.56552 0.87178 0.17069 0.0
H1435 H 0.54771 0.89022 0.08899 0.0
H1436 H 0.52537 0.90723 0.175 0.0
H1437 H 0.50543 0.90193 0.21933 0.0
H1438 H 0.44841 0.87519 0.17142 0.0
H1439 H 0.46797 0.87997 0.12684 0.0
C1440 C 0.53137 0.96356 0.03645 0.0
C1441 C 0.5133 0.95699 0.01998 0.0
C1442 C 0.53382 0.94929 0.053 0.0
C1443 C 0.51806 0.92834 0.05373 0.0
C1444 C 0.50026 0.92156 0.03666 0.0
C1445 C 0.49803 0.93577 0.01953 0.0
C1446 C 0.51961 0.91399 0.07406 0.0
C1447 C 0.50745 0.90858 0.09885 0.0
C1448 C 0.53447 0.90757 0.07061 0.0
C1449 C 0.54783 0.91311 0.04486 0.0
C1450 C 0.5389 0.90793 0.01749 0.0
C1451 C 0.5516 0.91333 0.99332 0.0
C1452 C 0.57327 0.92383 0.99624 0.0
C1453 C 0.58229 0.92889 0.02336 0.0
C1454 C 0.56965 0.92352 0.04761 0.0
C1455 C 0.51239 0.84532 0.16714 0.0
C1456 C 0.53245 0.8496 0.17523 0.0
C1457 C 0.50981 0.85863 0.14863 0.0
C1458 C 0.52719 0.87682 0.13837 0.0
C1459 C 0.5472 0.88154 0.14725 0.0
C1460 C 0.54982 0.86805 0.16534 0.0
C1461 C 0.52465 0.89026 0.11711 0.0
C1462 C 0.5367 0.89565 0.09207 0.0
C1463 C 0.51002 0.89711 0.12071 0.0
C1464 C 0.49813 0.89372 0.14759 0.0
C1465 C 0.50856 0.89998 0.17394 0.0
C1466 C 0.49732 0.89711 0.19912 0.0
C1467 C 0.47566 0.88815 0.19821 0.0
C1468 C 0.46518 0.88204 0.17211 0.0
C1469 C 0.47634 0.88481 0.14689 0.0
H1470 H 0.467 0.88601 0.21771 0.0
H1471 H 0.58308 0.928 0.9775 0.0
H1472 H 0.58304 0.53931 0.52287 0.0
H1473 H 0.61415 0.55067 0.55205 0.0
H1474 H 0.58081 0.55306 0.62603 0.0
H1475 H 0.54962 0.54217 0.5967 0.0
H1476 H 0.62195 0.58458 0.62637 0.0
H1477 H 0.58379 0.51031 0.61361 0.0
H1478 H 0.56566 0.47851 0.58427 0.0
H1479 H 0.62285 0.49504 0.54068 0.0
H1480 H 0.64123 0.52719 0.56932 0.0
H1481 H 0.68874 0.57315 0.72725 0.0
H1482 H 0.65909 0.56968 0.69967 0.0
H1483 H 0.68778 0.56491 0.62214 0.0
H1484 H 0.71747 0.56851 0.64949 0.0
H1485 H 0.64786 0.53441 0.62568 0.0
H1486 H 0.68593 0.60889 0.63807 0.0
H1487 H 0.70362 0.64166 0.66547 0.0
H1488 H 0.64667 0.62477 0.70996 0.0
H1489 H 0.6287 0.59175 0.68307 0.0
C1490 C 0.58239 0.54257 0.54526 0.0
C1491 C 0.56379 0.53956 0.55759 0.0
C1492 C 0.60018 0.54905 0.56191 0.0
C1493 C 0.59964 0.55225 0.59133 0.0
C1494 C 0.58152 0.55057 0.60339 0.0
C1495 C 0.56371 0.54431 0.58662 0.0
C1496 C 0.61734 0.55551 0.60967 0.0
C1497 C 0.62748 0.57351 0.62655 0.0
C1498 C 0.62463 0.54112 0.60966 0.0
C1499 C 0.61384 0.52126 0.59344 0.0
C1500 C 0.59249 0.50719 0.59771 0.0
C1501 C 0.58216 0.48913 0.58117 0.0
C1502 C 0.59309 0.48481 0.56055 0.0
C1503 C 0.6144 0.49844 0.55662 0.0
C1504 C 0.62478 0.51659 0.573 0.0
C1505 C 0.68888 0.5717 0.70428 0.0
C1506 C 0.70542 0.57101 0.69057 0.0
C1507 C 0.67191 0.56969 0.68855 0.0
C1508 C 0.67125 0.56709 0.65883 0.0
C1509 C 0.68791 0.56679 0.64507 0.0
C1510 C 0.70484 0.56878 0.66075 0.0
C1511 C 0.65281 0.56372 0.64207 0.0
C1512 C 0.64237 0.54552 0.6256 0.0
C1513 C 0.64525 0.5779 0.64261 0.0
C1514 C 0.65603 0.59775 0.65877 0.0
C1515 C 0.67722 0.61208 0.65387 0.0
C1516 C 0.68729 0.63072 0.66927 0.0
C1517 C 0.67629 0.63527 0.6895 0.0
C1518 C 0.65518 0.62121 0.69431 0.0
C1519 C 0.64504 0.60254 0.67898 0.0
H1520 H 0.68411 0.64971 0.7014 0.0
H1521 H 0.58505 0.47093 0.54758 0.0
H1522 H 0.02969 0.55731 0.04435 0.0
H1523 H 0.05291 0.59144 0.06542 0.0
H1524 H 0.10523 0.59379 0.02165 0.0
H1525 H 0.08196 0.55969 0.99993 0.0
H1526 H 0.10913 0.60077 0.08382 0.0
H1527 H 0.09126 0.62452 0.99844 0.0
H1528 H 0.06665 0.62482 0.96328 0.0
H1529 H 0.03878 0.64368 0.02843 0.0
H1530 H 0.06301 0.64316 0.0641 0.0
H1531 H 0.18173 0.70108 0.1328 0.0
H1532 H 0.16123 0.67118 0.10165 0.0
H1533 H 0.10573 0.67368 0.12236 0.0
H1534 H 0.12645 0.70417 0.15268 0.0
H1535 H 0.10454 0.66466 0.06881 0.0
H1536 H 0.11774 0.63834 0.15448 0.0
H1537 H 0.13879 0.63553 0.19312 0.0
H1538 H 0.1713 0.61888 0.13226 0.0
H1539 H 0.15064 0.62189 0.09318 0.0
C1540 C 0.04611 0.56517 0.03898 0.0
C1541 C 0.05406 0.55585 0.02058 0.0
C1542 C 0.05931 0.58468 0.05094 0.0
C1543 C 0.08071 0.59507 0.04498 0.0
C1544 C 0.08871 0.58596 0.02637 0.0
C1545 C 0.07543 0.56657 0.01395 0.0
C1546 C 0.09478 0.61489 0.05961 0.0
C1547 C 0.1085 0.61491 0.08017 0.0
C1548 C 0.09319 0.63295 0.05553 0.0
C1549 C 0.07885 0.63363 0.034 0.0
C1550 C 0.07978 0.62858 0.00533 0.0
C1551 C 0.06592 0.62881 0.98529 0.0
C1552 C 0.05113 0.63421 0.99363 0.0
C1553 C 0.05023 0.63948 0.02201 0.0
C1554 C 0.06405 0.63924 0.04214 0.0
C1555 C 0.16516 0.69524 0.13058 0.0
C1556 C 0.15559 0.70474 0.14525 0.0
C1557 C 0.15345 0.67815 0.11286 0.0
C1558 C 0.13184 0.66989 0.11009 0.0
C1559 C 0.12236 0.67974 0.12418 0.0
C1560 C 0.13416 0.6971 0.14152 0.0
C1561 C 0.11906 0.65066 0.09316 0.0
C1562 C 0.10545 0.65066 0.07228 0.0
C1563 C 0.12034 0.63239 0.09743 0.0
C1564 C 0.13281 0.63057 0.12087 0.0
C1565 C 0.1295 0.63425 0.14931 0.0
C1566 C 0.14134 0.63259 0.1713 0.0
C1567 C 0.15642 0.62709 0.16514 0.0
C1568 C 0.15965 0.62318 0.13699 0.0
C1569 C 0.14787 0.62485 0.11491 0.0
H1570 H 0.16556 0.62581 0.18219 0.0
H1571 H 0.04038 0.63434 0.9781 0.0
loop_
_geom_bond_atom_site_label_1
_geom_bond_atom_site_label_2
_geom_bond_distance
_geom_bond_site_symmetry_2
_ccdc_geom_bond_type
C0 O2 1.247 . S
C0 O4 1.258 . S
C1 O8 1.247 . S
C1 O9 1.258 . S
O2 C0 1.247 . S
O2 Zn3 2.028 1_455 S
Zn3 O2 2.028 1_655 S
Zn3 O7 2.035 1_554 S
Zn3 O9 2.035 1_554 S
Zn3 O10 2.028 1_655 S
O4 C0 1.258 . S
O4 Zn5 2.035 1_554 S
Zn5 O4 2.035 1_556 S
Zn5 O6 2.028 1_455 S
Zn5 O8 2.028 1_455 S
Zn5 O11 2.035 1_556 S
O6 Zn5 2.028 1_655 S
O6 C12 1.247 . S
O7 Zn3 2.035 1_556 S
O7 C12 1.258 . S
O8 C1 1.247 . S
O8 Zn5 2.028 1_655 S
O9 C1 1.258 . S
O9 Zn3 2.035 1_556 S
O10 Zn3 2.028 1_455 S
O10 C13 1.247 . S
O11 Zn5 2.035 1_554 S
O11 C13 1.258 . S
C12 O6 1.247 . S
C12 O7 1.258 . S
C13 O10 1.247 . S
C13 O11 1.258 . S
C14 O16 1.247 . S
C14 O18 1.258 . S
C15 O22 1.247 . S
C15 O23 1.258 . S
O16 C14 1.247 . S
O16 Zn17 2.028 1_545 S
Zn17 O16 2.028 1_565 S
Zn17 O21 2.035 . S
Zn17 O23 2.035 . S
Zn17 O24 2.028 1_565 S
O18 C14 1.258 . S
O18 Zn19 2.035 . S
Zn19 O18 2.035 . S
Zn19 O20 2.028 1_545 S
Zn19 O22 2.028 1_545 S
Zn19 O25 2.035 . S
O20 Zn19 2.028 1_565 S
O20 C26 1.247 . S
O21 Zn17 2.035 . S
O21 C26 1.258 . S
O22 C15 1.247 . S
O22 Zn19 2.028 1_565 S
O23 C15 1.258 . S
O23 Zn17 2.035 . S
O24 Zn17 2.028 1_545 S
O24 C27 1.247 . S
O25 Zn19 2.035 . S
O25 C27 1.258 . S
C26 O20 1.247 . S
C26 O21 1.258 . S
C27 O24 1.247 . S
C27 O25 1.258 . S
C28 O30 1.247 . S
C28 O32 1.258 . S
C29 O36 1.247 . S
C29 O37 1.258 . S
O30 C28 1.247 . S
O30 Zn31 2.028 . S
Zn31 O30 2.028 . S
Zn31 O35 2.035 1_556 S
Zn31 O37 2.035 1_556 S
Zn31 O38 2.028 . S
O32 C28 1.258 . S
O32 Zn33 2.035 1_556 S
Zn33 O32 2.035 1_554 S
Zn33 O34 2.028 . S
Zn33 O36 2.028 . S
Zn33 O39 2.035 1_554 S
O34 Zn33 2.028 . S
O34 C40 1.247 . S
O35 Zn31 2.035 1_554 S
O35 C40 1.258 . S
O36 C29 1.247 . S
O36 Zn33 2.028 . S
O37 C29 1.258 . S
O37 Zn31 2.035 1_554 S
O38 Zn31 2.028 . S
O38 C41 1.247 . S
O39 Zn33 2.035 1_556 S
O39 C41 1.258 . S
C40 O34 1.247 . S
C40 O35 1.258 . S
C41 O38 1.247 . S
C41 O39 1.258 . S
C42 O44 1.247 . S
C42 O46 1.258 . S
C43 O50 1.247 . S
C43 O51 1.258 . S
O44 C42 1.247 . S
O44 Zn45 2.028 . S
Zn45 O44 2.028 . S
Zn45 O49 2.035 1_455 S
Zn45 O51 2.035 1_455 S
Zn45 O52 2.028 . S
O46 C42 1.258 . S
O46 Zn47 2.035 1_455 S
Zn47 O46 2.035 1_655 S
Zn47 O48 2.028 . S
Zn47 O50 2.028 . S
Zn47 O53 2.035 1_655 S
O48 Zn47 2.028 . S
O48 C54 1.247 . S
O49 Zn45 2.035 1_655 S
O49 C54 1.258 . S
O50 C43 1.247 . S
O50 Zn47 2.028 . S
O51 C43 1.258 . S
O51 Zn45 2.035 1_655 S
O52 Zn45 2.028 . S
O52 C55 1.247 . S
O53 Zn47 2.035 1_455 S
O53 C55 1.258 . S
C54 O48 1.247 . S
C54 O49 1.258 . S
C55 O52 1.247 . S
C55 O53 1.258 . S
C56 O58 1.247 . S
C56 O60 1.258 . S
C57 O64 1.247 . S
C57 O65 1.258 . S
O58 C56 1.247 . S
O58 Zn59 2.028 1_565 S
Zn59 O58 2.028 1_545 S
Zn59 O63 2.035 1_554 S
Zn59 O65 2.035 1_554 S
Zn59 O66 2.028 1_545 S
O60 C56 1.258 . S
O60 Zn61 2.035 1_554 S
Zn61 O60 2.035 1_556 S
Zn61 O62 2.028 1_565 S
Zn61 O64 2.028 1_565 S
Zn61 O67 2.035 1_556 S
O62 Zn61 2.028 1_545 S
O62 C68 1.247 . S
O63 Zn59 2.035 1_556 S
O63 C68 1.258 . S
O64 C57 1.247 . S
O64 Zn61 2.028 1_545 S
O65 C57 1.258 . S
O65 Zn59 2.035 1_556 S
O66 Zn59 2.028 1_565 S
O66 C69 1.247 . S
O67 Zn61 2.035 1_554 S
O67 C69 1.258 . S
C68 O62 1.247 . S
C68 O63 1.258 . S
C69 O66 1.247 . S
C69 O67 1.258 . S
C70 O72 1.247 . S
C70 O74 1.258 . S
C71 O78 1.247 . S
C71 O79 1.258 . S
O72 C70 1.247 . S
O72 Zn73 2.028 . S
Zn73 O72 2.028 . S
Zn73 O77 2.035 . S
Zn73 O79 2.035 . S
Zn73 O80 2.028 . S
O74 C70 1.258 . S
O74 Zn75 2.035 . S
Zn75 O74 2.035 . S
Zn75 O76 2.028 . S
Zn75 O78 2.028 . S
Zn75 O81 2.035 . S
O76 Zn75 2.028 . S
O76 C82 1.247 . S
O77 Zn73 2.035 . S
O77 C82 1.258 . S
O78 C71 1.247 . S
O78 Zn75 2.028 . S
O79 C71 1.258 . S
O79 Zn73 2.035 . S
O80 Zn73 2.028 . S
O80 C83 1.247 . S
O81 Zn75 2.035 . S
O81 C83 1.258 . S
C82 O76 1.247 . S
C82 O77 1.258 . S
C83 O80 1.247 . S
C83 O81 1.258 . S
H84 C103 0.949 . S
H85 C104 0.950 . S
H86 C106 0.950 . S
H87 C107 0.950 . S
H88 C109 0.950 . S
H89 C112 0.950 . S
H90 C113 0.950 . S
H91 C115 0.951 . S
H92 C116 0.949 . S
H93 C118 0.949 . S
H94 C119 0.950 . S
H95 C121 0.950 . S
H96 C122 0.950 . S
H97 C124 0.950 . S
H98 C127 0.950 . S
H99 C128 0.950 . S
H100 C130 0.951 . S
H101 C131 0.949 . S
C102 C103 1.376 . S
C102 C107 1.386 . S
C102 C108 1.483 . S
C103 H84 0.949 . S
C103 C102 1.376 . S
C103 C104 1.397 . S
C104 H85 0.950 . S
C104 C103 1.397 . S
C104 C105 1.391 . S
C105 C104 1.391 . S
C105 C106 1.405 . S
C106 H86 0.950 . S
C106 C105 1.405 . S
C106 C107 1.367 . S
C107 H87 0.950 . S
C107 C102 1.386 . S
C107 C106 1.367 . S
C108 C102 1.483 . S
C108 C109 1.382 . S
C108 C110 1.403 . S
C109 H88 0.950 . S
C109 C108 1.382 . S
C109 C125 1.411 . S
C110 C108 1.403 . S
C110 C111 1.489 . S
C110 C124 1.411 . S
C111 C110 1.489 . S
C111 C112 1.383 . S
C111 C116 1.382 . S
C112 H89 0.950 . S
C112 C111 1.383 . S
C112 C113 1.395 . S
C113 H90 0.950 . S
C113 C112 1.395 . S
C113 C114 1.288 . S
C114 C113 1.288 . S
C114 C115 1.392 . S
C115 H91 0.951 . S
C115 C114 1.392 . S
C115 C116 1.392 . S
C116 H92 0.949 . S
C116 C111 1.382 . S
C116 C115 1.392 . S
C117 C118 1.376 . S
C117 C122 1.386 . S
C117 C123 1.483 . S
C118 H93 0.949 . S
C118 C117 1.376 . S
C118 C119 1.397 . S
C119 H94 0.950 . S
C119 C118 1.397 . S
C119 C120 1.391 . S
C120 C119 1.391 . S
C120 C121 1.405 . S
C121 H95 0.950 . S
C121 C120 1.405 . S
C121 C122 1.367 . S
C122 H96 0.950 . S
C122 C117 1.386 . S
C122 C121 1.367 . S
C123 C117 1.483 . S
C123 C124 1.382 . S
C123 C125 1.403 . S
C124 H97 0.950 . S
C124 C110 1.411 . S
C124 C123 1.382 . S
C125 C109 1.411 . S
C125 C123 1.403 . S
C125 C126 1.489 . S
C126 C125 1.489 . S
C126 C127 1.383 . S
C126 C131 1.382 . S
C127 H98 0.950 . S
C127 C126 1.383 . S
C127 C128 1.395 . S
C128 H99 0.950 . S
C128 C127 1.395 . S
C128 C129 1.288 . S
C129 C128 1.288 . S
C129 C130 1.392 . S
C130 H100 0.951 . S
C130 C129 1.392 . S
C130 C131 1.392 . S
C131 H101 0.949 . S
C131 C126 1.382 . S
C131 C130 1.392 . S
H132 C151 0.949 . S
H133 C152 0.950 . S
H134 C154 0.950 . S
H135 C155 0.950 . S
H136 C157 0.950 . S
H137 C160 0.950 . S
H138 C161 0.950 . S
H139 C163 0.951 . S
H140 C164 0.949 . S
H141 C166 0.949 . S
H142 C167 0.950 . S
H143 C169 0.950 . S
H144 C170 0.950 . S
H145 C172 0.950 . S
H146 C175 0.950 . S
H147 C176 0.950 . S
H148 C178 0.951 . S
H149 C179 0.949 . S
C150 C151 1.376 . S
C150 C155 1.386 . S
C150 C156 1.483 . S
C151 H132 0.949 . S
C151 C150 1.376 . S
C151 C152 1.397 . S
C152 H133 0.950 . S
C152 C151 1.397 . S
C152 C153 1.391 . S
C153 C152 1.391 . S
C153 C154 1.405 . S
C154 H134 0.950 . S
C154 C153 1.405 . S
C154 C155 1.367 . S
C155 H135 0.950 . S
C155 C150 1.386 . S
C155 C154 1.367 . S
C156 C150 1.483 . S
C156 C157 1.382 . S
C156 C158 1.403 . S
C157 H136 0.950 . S
C157 C156 1.382 . S
C157 C173 1.411 . S
C158 C156 1.403 . S
C158 C159 1.489 . S
C158 C172 1.411 . S
C159 C158 1.489 . S
C159 C160 1.383 . S
C159 C164 1.382 . S
C160 H137 0.950 . S
C160 C159 1.383 . S
C160 C161 1.395 . S
C161 H138 0.950 . S
C161 C160 1.395 . S
C161 C162 1.288 . S
C162 C161 1.288 . S
C162 C163 1.392 . S
C163 H139 0.951 . S
C163 C162 1.392 . S
C163 C164 1.392 . S
C164 H140 0.949 . S
C164 C159 1.382 . S
C164 C163 1.392 . S
C165 C166 1.376 . S
C165 C170 1.386 . S
C165 C171 1.483 . S
C166 H141 0.949 . S
C166 C165 1.376 . S
C166 C167 1.397 . S
C167 H142 0.950 . S
C167 C166 1.397 . S
C167 C168 1.391 . S
C168 C167 1.391 . S
C168 C169 1.405 . S
C169 H143 0.950 . S
C169 C168 1.405 . S
C169 C170 1.367 . S
C170 H144 0.950 . S
C170 C165 1.386 . S
C170 C169 1.367 . S
C171 C165 1.483 . S
C171 C172 1.382 . S
C171 C173 1.403 . S
C172 H145 0.950 . S
C172 C158 1.411 . S
C172 C171 1.382 . S
C173 C157 1.411 . S
C173 C171 1.403 . S
C173 C174 1.489 . S
C174 C173 1.489 . S
C174 C175 1.383 . S
C174 C179 1.382 . S
C175 H146 0.950 . S
C175 C174 1.383 . S
C175 C176 1.395 . S
C176 H147 0.950 . S
C176 C175 1.395 . S
C176 C177 1.288 . S
C177 C176 1.288 . S
C177 C178 1.392 . S
C178 H148 0.951 . S
C178 C177 1.392 . S
C178 C179 1.392 . S
C179 H149 0.949 . S
C179 C174 1.382 . S
C179 C178 1.392 . S
H180 C199 0.949 . S
H181 C200 0.950 . S
H182 C202 0.950 . S
H183 C203 0.950 . S
H184 C205 0.950 . S
H185 C208 0.950 . S
H186 C209 0.950 . S
H187 C211 0.951 . S
H188 C212 0.949 . S
H189 C214 0.949 . S
H190 C215 0.950 . S
H191 C217 0.950 . S
H192 C218 0.950 . S
H193 C220 0.950 . S
H194 C223 0.950 . S
H195 C224 0.950 . S
H196 C226 0.951 . S
H197 C227 0.949 . S
C198 C199 1.376 . S
C198 C203 1.386 . S
C198 C204 1.483 . S
C199 H180 0.949 . S
C199 C198 1.376 . S
C199 C200 1.397 . S
C200 H181 0.950 . S
C200 C199 1.397 . S
C200 C201 1.391 . S
C201 C200 1.391 . S
C201 C202 1.405 . S
C202 H182 0.950 . S
C202 C201 1.405 . S
C202 C203 1.367 . S
C203 H183 0.950 . S
C203 C198 1.386 . S
C203 C202 1.367 . S
C204 C198 1.483 . S
C204 C205 1.382 . S
C204 C206 1.403 . S
C205 H184 0.950 . S
C205 C204 1.382 . S
C205 C221 1.411 . S
C206 C204 1.403 . S
C206 C207 1.489 . S
C206 C220 1.411 . S
C207 C206 1.489 . S
C207 C208 1.383 . S
C207 C212 1.382 . S
C208 H185 0.950 . S
C208 C207 1.383 . S
C208 C209 1.395 . S
C209 H186 0.950 . S
C209 C208 1.395 . S
C209 C210 1.288 . S
C210 C209 1.288 . S
C210 C211 1.392 . S
C211 H187 0.951 . S
C211 C210 1.392 . S
C211 C212 1.392 . S
C212 H188 0.949 . S
C212 C207 1.382 . S
C212 C211 1.392 . S
C213 C214 1.376 . S
C213 C218 1.386 . S
C213 C219 1.483 . S
C214 H189 0.949 . S
C214 C213 1.376 . S
C214 C215 1.397 . S
C215 H190 0.950 . S
C215 C214 1.397 . S
C215 C216 1.391 . S
C216 C215 1.391 . S
C216 C217 1.405 . S
C217 H191 0.950 . S
C217 C216 1.405 . S
C217 C218 1.367 . S
C218 H192 0.950 . S
C218 C213 1.386 . S
C218 C217 1.367 . S
C219 C213 1.483 . S
C219 C220 1.382 . S
C219 C221 1.403 . S
C220 H193 0.950 . S
C220 C206 1.411 . S
C220 C219 1.382 . S
C221 C205 1.411 . S
C221 C219 1.403 . S
C221 C222 1.489 . S
C222 C221 1.489 . S
C222 C223 1.383 . S
C222 C227 1.382 . S
C223 H194 0.950 . S
C223 C222 1.383 . S
C223 C224 1.395 . S
C224 H195 0.950 . S
C224 C223 1.395 . S
C224 C225 1.288 . S
C225 C224 1.288 . S
C225 C226 1.392 . S
C226 H196 0.951 . S
C226 C225 1.392 . S
C226 C227 1.392 . S
C227 H197 0.949 . S
C227 C222 1.382 . S
C227 C226 1.392 . S
H228 C247 0.949 . S
H229 C248 0.950 . S
H230 C250 0.950 . S
H231 C251 0.950 . S
H232 C253 0.950 . S
H233 C256 0.950 . S
H234 C257 0.950 . S
H235 C259 0.951 . S
H236 C260 0.949 . S
H237 C262 0.949 . S
H238 C263 0.950 . S
H239 C265 0.950 . S
H240 C266 0.950 . S
H241 C268 0.950 . S
H242 C271 0.950 . S
H243 C272 0.950 . S
H244 C274 0.951 . S
H245 C275 0.949 . S
C246 C247 1.376 . S
C246 C251 1.386 . S
C246 C252 1.483 . S
C247 H228 0.949 . S
C247 C246 1.376 . S
C247 C248 1.397 . S
C248 H229 0.950 . S
C248 C247 1.397 . S
C248 C249 1.391 . S
C249 C248 1.391 . S
C249 C250 1.405 . S
C250 H230 0.950 . S
C250 C249 1.405 . S
C250 C251 1.367 . S
C251 H231 0.950 . S
C251 C246 1.386 . S
C251 C250 1.367 . S
C252 C246 1.483 . S
C252 C253 1.382 . S
C252 C254 1.403 . S
C253 H232 0.950 . S
C253 C252 1.382 . S
C253 C269 1.411 . S
C254 C252 1.403 . S
C254 C255 1.489 . S
C254 C268 1.411 . S
C255 C254 1.489 . S
C255 C256 1.383 . S
C255 C260 1.382 . S
C256 H233 0.950 . S
C256 C255 1.383 . S
C256 C257 1.395 . S
C257 H234 0.950 . S
C257 C256 1.395 . S
C257 C258 1.288 . S
C258 C257 1.288 . S
C258 C259 1.392 . S
C259 H235 0.951 . S
C259 C258 1.392 . S
C259 C260 1.392 . S
C260 H236 0.949 . S
C260 C255 1.382 . S
C260 C259 1.392 . S
C261 C262 1.376 . S
C261 C266 1.386 . S
C261 C267 1.483 . S
C262 H237 0.949 . S
C262 C261 1.376 . S
C262 C263 1.397 . S
C263 H238 0.950 . S
C263 C262 1.397 . S
C263 C264 1.391 . S
C264 C263 1.391 . S
C264 C265 1.405 . S
C265 H239 0.950 . S
C265 C264 1.405 . S
C265 C266 1.367 . S
C266 H240 0.950 . S
C266 C261 1.386 . S
C266 C265 1.367 . S
C267 C261 1.483 . S
C267 C268 1.382 . S
C267 C269 1.403 . S
C268 H241 0.950 . S
C268 C254 1.411 . S
C268 C267 1.382 . S
C269 C253 1.411 . S
C269 C267 1.403 . S
C269 C270 1.489 . S
C270 C269 1.489 . S
C270 C271 1.383 . S
C270 C275 1.382 . S
C271 H242 0.950 . S
C271 C270 1.383 . S
C271 C272 1.395 . S
C272 H243 0.950 . S
C272 C271 1.395 . S
C272 C273 1.288 . S
C273 C272 1.288 . S
C273 C274 1.392 . S
C274 H244 0.951 . S
C274 C273 1.392 . S
C274 C275 1.392 . S
C275 H245 0.949 . S
C275 C270 1.382 . S
C275 C274 1.392 . S
H276 C295 0.949 . S
H277 C296 0.950 . S
H278 C298 0.950 . S
H279 C299 0.950 . S
H280 C301 0.950 . S
H281 C304 0.950 . S
H282 C305 0.950 . S
H283 C307 0.951 . S
H284 C308 0.949 . S
H285 C310 0.949 . S
H286 C311 0.950 . S
H287 C313 0.950 . S
H288 C314 0.950 . S
H289 C316 0.950 . S
H290 C319 0.950 . S
H291 C320 0.950 . S
H292 C322 0.951 . S
H293 C323 0.949 . S
C294 C295 1.376 . S
C294 C299 1.386 . S
C294 C300 1.483 . S
C295 H276 0.949 . S
C295 C294 1.376 . S
C295 C296 1.397 . S
C296 H277 0.950 . S
C296 C295 1.397 . S
C296 C297 1.391 . S
C297 C296 1.391 . S
C297 C298 1.405 . S
C298 H278 0.950 . S
C298 C297 1.405 . S
C298 C299 1.367 . S
C299 H279 0.950 . S
C299 C294 1.386 . S
C299 C298 1.367 . S
C300 C294 1.483 . S
C300 C301 1.382 . S
C300 C302 1.403 . S
C301 H280 0.950 . S
C301 C300 1.382 . S
C301 C317 1.411 . S
C302 C300 1.403 . S
C302 C303 1.489 . S
C302 C316 1.411 . S
C303 C302 1.489 . S
C303 C304 1.383 . S
C303 C308 1.382 . S
C304 H281 0.950 . S
C304 C303 1.383 . S
C304 C305 1.395 . S
C305 H282 0.950 . S
C305 C304 1.395 . S
C305 C306 1.288 . S
C306 C305 1.288 . S
C306 C307 1.392 . S
C307 H283 0.951 . S
C307 C306 1.392 . S
C307 C308 1.392 . S
C308 H284 0.949 . S
C308 C303 1.382 . S
C308 C307 1.392 . S
C309 C310 1.376 . S
C309 C314 1.386 . S
C309 C315 1.483 . S
C310 H285 0.949 . S
C310 C309 1.376 . S
C310 C311 1.397 . S
C311 H286 0.950 . S
C311 C310 1.397 . S
C311 C312 1.391 . S
C312 C311 1.391 . S
C312 C313 1.405 . S
C313 H287 0.950 . S
C313 C312 1.405 . S
C313 C314 1.367 . S
C314 H288 0.950 . S
C314 C309 1.386 . S
C314 C313 1.367 . S
C315 C309 1.483 . S
C315 C316 1.382 . S
C315 C317 1.403 . S
C316 H289 0.950 . S
C316 C302 1.411 . S
C316 C315 1.382 . S
C317 C301 1.411 . S
C317 C315 1.403 . S
C317 C318 1.489 . S
C318 C317 1.489 . S
C318 C319 1.383 . S
C318 C323 1.382 . S
C319 H290 0.950 . S
C319 C318 1.383 . S
C319 C320 1.395 . S
C320 H291 0.950 . S
C320 C319 1.395 . S
C320 C321 1.288 . S
C321 C320 1.288 . S
C321 C322 1.392 . S
C322 H292 0.951 . S
C322 C321 1.392 . S
C322 C323 1.392 . S
C323 H293 0.949 . S
C323 C318 1.382 . S
C323 C322 1.392 . S
H324 C343 0.949 . S
H325 C344 0.950 . S
H326 C346 0.950 . S
H327 C347 0.950 . S
H328 C349 0.950 . S
H329 C352 0.950 . S
H330 C353 0.950 . S
H331 C355 0.951 . S
H332 C356 0.949 . S
H333 C358 0.949 . S
H334 C359 0.950 . S
H335 C361 0.950 . S
H336 C362 0.950 . S
H337 C364 0.950 . S
H338 C367 0.950 . S
H339 C368 0.950 . S
H340 C370 0.951 . S
H341 C371 0.949 . S
C342 C343 1.376 . S
C342 C347 1.386 . S
C342 C348 1.483 . S
C343 H324 0.949 . S
C343 C342 1.376 . S
C343 C344 1.397 . S
C344 H325 0.950 . S
C344 C343 1.397 . S
C344 C345 1.391 . S
C345 C344 1.391 . S
C345 C346 1.405 . S
C346 H326 0.950 . S
C346 C345 1.405 . S
C346 C347 1.367 . S
C347 H327 0.950 . S
C347 C342 1.386 . S
C347 C346 1.367 . S
C348 C342 1.483 . S
C348 C349 1.382 . S
C348 C350 1.403 . S
C349 H328 0.950 . S
C349 C348 1.382 . S
C349 C365 1.411 . S
C350 C348 1.403 . S
C350 C351 1.489 . S
C350 C364 1.411 . S
C351 C350 1.489 . S
C351 C352 1.383 . S
C351 C356 1.382 . S
C352 H329 0.950 . S
C352 C351 1.383 . S
C352 C353 1.395 . S
C353 H330 0.950 . S
C353 C352 1.395 . S
C353 C354 1.288 . S
C354 C353 1.288 . S
C354 C355 1.392 . S
C355 H331 0.951 . S
C355 C354 1.392 . S
C355 C356 1.392 . S
C356 H332 0.949 . S
C356 C351 1.382 . S
C356 C355 1.392 . S
C357 C358 1.376 . S
C357 C362 1.386 . S
C357 C363 1.483 . S
C358 H333 0.949 . S
C358 C357 1.376 . S
C358 C359 1.397 . S
C359 H334 0.950 . S
C359 C358 1.397 . S
C359 C360 1.391 . S
C360 C359 1.391 . S
C360 C361 1.405 . S
C361 H335 0.950 . S
C361 C360 1.405 . S
C361 C362 1.367 . S
C362 H336 0.950 . S
C362 C357 1.386 . S
C362 C361 1.367 . S
C363 C357 1.483 . S
C363 C364 1.382 . S
C363 C365 1.403 . S
C364 H337 0.950 . S
C364 C350 1.411 . S
C364 C363 1.382 . S
C365 C349 1.411 . S
C365 C363 1.403 . S
C365 C366 1.489 . S
C366 C365 1.489 . S
C366 C367 1.383 . S
C366 C371 1.382 . S
C367 H338 0.950 . S
C367 C366 1.383 . S
C367 C368 1.395 . S
C368 H339 0.950 . S
C368 C367 1.395 . S
C368 C369 1.288 . S
C369 C368 1.288 . S
C369 C370 1.392 . S
C370 H340 0.951 . S
C370 C369 1.392 . S
C370 C371 1.392 . S
C371 H341 0.949 . S
C371 C366 1.382 . S
C371 C370 1.392 . S
H372 C390 0.951 . S
H373 C392 0.951 . S
H374 C394 0.950 . S
H375 C395 0.950 . S
H376 C397 0.950 . S
H377 C400 0.950 . S
H378 C401 0.950 1_655 S
H379 C403 0.950 . S
H380 C404 0.950 . S
H381 C405 0.951 . S
H382 C407 0.951 . S
H383 C409 0.950 . S
H384 C410 0.950 . S
H385 C412 0.950 . S
H386 C415 0.950 . S
H387 C416 0.950 . S
H388 C418 0.950 . S
H389 C419 0.950 . S
C390 H372 0.951 . S
C390 C391 1.366 . S
C390 C392 1.388 . S
C391 C390 1.366 . S
C391 C395 1.385 . S
C392 H373 0.951 . S
C392 C390 1.388 . S
C392 C393 1.366 . S
C393 C392 1.366 . S
C393 C394 1.414 . S
C393 C396 1.499 . S
C394 H374 0.950 . S
C394 C393 1.414 . S
C394 C395 1.374 . S
C395 H375 0.950 . S
C395 C391 1.385 . S
C395 C394 1.374 . S
C396 C393 1.499 . S
C396 C397 1.373 . S
C396 C398 1.389 . S
C397 H376 0.950 . S
C397 C396 1.373 . S
C397 C413 1.377 . S
C398 C396 1.389 . S
C398 C399 1.524 . S
C398 C412 1.377 . S
C399 C398 1.524 . S
C399 C400 1.397 . S
C399 C404 1.363 . S
C400 H377 0.950 . S
C400 C399 1.397 . S
C400 C401 1.334 . S
C401 H378 0.950 1_455 S
C401 C400 1.334 . S
C401 C402 1.287 1_455 S
C402 C401 1.287 1_655 S
C402 C403 1.524 1_655 S
C402 H421 0.913 . S
C403 H379 0.950 . S
C403 C402 1.524 1_455 S
C403 C404 1.415 . S
C404 H380 0.950 . S
C404 C399 1.363 . S
C404 C403 1.415 . S
C405 H381 0.951 . S
C405 C406 1.366 . S
C405 C407 1.388 . S
C406 C405 1.366 . S
C406 C410 1.385 . S
C407 H382 0.951 . S
C407 C405 1.388 . S
C407 C408 1.366 . S
C408 C407 1.366 . S
C408 C409 1.414 . S
C408 C411 1.499 . S
C409 H383 0.950 . S
C409 C408 1.414 . S
C409 C410 1.374 . S
C410 H384 0.950 . S
C410 C406 1.385 . S
C410 C409 1.374 . S
C411 C408 1.499 . S
C411 C412 1.373 . S
C411 C413 1.389 . S
C412 H385 0.950 . S
C412 C398 1.377 . S
C412 C411 1.373 . S
C413 C397 1.377 . S
C413 C411 1.389 . S
C413 C414 1.524 . S
C414 C413 1.524 . S
C414 C415 1.397 . S
C414 C419 1.363 . S
C415 H386 0.950 . S
C415 C414 1.397 . S
C415 C416 1.334 . S
C416 H387 0.950 . S
C416 C415 1.334 . S
C416 C417 1.287 . S
C417 C416 1.287 . S
C417 C418 1.524 . S
C417 H420 0.999 . S
C418 H388 0.950 . S
C418 C417 1.524 . S
C418 C419 1.415 . S
C419 H389 0.950 . S
C419 C414 1.363 . S
C419 C418 1.415 . S
H420 C417 0.999 . S
H421 C402 0.913 . S
H422 C440 0.951 . S
H423 C442 0.951 . S
H424 C444 0.950 . S
H425 C445 0.950 . S
H426 C447 0.950 . S
H427 C450 0.950 . S
H428 C451 0.950 . S
H429 C453 0.950 . S
H430 C454 0.950 . S
H431 C455 0.951 . S
H432 C457 0.951 . S
H433 C459 0.950 . S
H434 C460 0.950 . S
H435 C462 0.950 . S
H436 C465 0.950 . S
H437 C466 0.950 . S
H438 C468 0.950 . S
H439 C469 0.950 . S
C440 H422 0.951 . S
C440 C441 1.366 . S
C440 C442 1.388 . S
C441 C440 1.366 . S
C441 C445 1.385 . S
C442 H423 0.951 . S
C442 C440 1.388 . S
C442 C443 1.366 . S
C443 C442 1.366 . S
C443 C444 1.414 . S
C443 C446 1.499 . S
C444 H424 0.950 . S
C444 C443 1.414 . S
C444 C445 1.374 . S
C445 H425 0.950 . S
C445 C441 1.385 . S
C445 C444 1.374 . S
C446 C443 1.499 . S
C446 C447 1.373 . S
C446 C448 1.389 . S
C447 H426 0.950 . S
C447 C446 1.373 . S
C447 C463 1.377 . S
C448 C446 1.389 . S
C448 C449 1.524 . S
C448 C462 1.377 . S
C449 C448 1.524 . S
C449 C450 1.397 . S
C449 C454 1.363 . S
C450 H427 0.950 . S
C450 C449 1.397 . S
C450 C451 1.334 . S
C451 H428 0.950 . S
C451 C450 1.334 . S
C451 C452 1.287 . S
C452 C451 1.287 . S
C452 C453 1.524 . S
C452 H471 0.913 . S
C453 H429 0.950 . S
C453 C452 1.524 . S
C453 C454 1.415 . S
C454 H430 0.950 . S
C454 C449 1.363 . S
C454 C453 1.415 . S
C455 H431 0.951 . S
C455 C456 1.366 . S
C455 C457 1.388 . S
C456 C455 1.366 . S
C456 C460 1.385 . S
C457 H432 0.951 . S
C457 C455 1.388 . S
C457 C458 1.366 . S
C458 C457 1.366 . S
C458 C459 1.414 . S
C458 C461 1.499 . S
C459 H433 0.950 . S
C459 C458 1.414 . S
C459 C460 1.374 . S
C460 H434 0.950 . S
C460 C456 1.385 . S
C460 C459 1.374 . S
C461 C458 1.499 . S
C461 C462 1.373 . S
C461 C463 1.389 . S
C462 H435 0.950 . S
C462 C448 1.377 . S
C462 C461 1.373 . S
C463 C447 1.377 . S
C463 C461 1.389 . S
C463 C464 1.524 . S
C464 C463 1.524 . S
C464 C465 1.397 . S
C464 C469 1.363 . S
C465 H436 0.950 . S
C465 C464 1.397 . S
C465 C466 1.334 . S
C466 H437 0.950 . S
C466 C465 1.334 . S
C466 C467 1.287 . S
C467 C466 1.287 . S
C467 C468 1.524 . S
C467 H470 0.999 . S
C468 H438 0.950 . S
C468 C467 1.524 . S
C468 C469 1.415 . S
C469 H439 0.950 . S
C469 C464 1.363 . S
C469 C468 1.415 . S
H470 C467 0.999 . S
H471 C452 0.913 . S
H472 C490 0.951 . S
H473 C492 0.951 . S
H474 C494 0.950 . S
H475 C495 0.950 . S
H476 C497 0.950 . S
H477 C500 0.950 . S
H478 C501 0.950 . S
H479 C503 0.950 . S
H480 C504 0.950 . S
H481 C505 0.951 . S
H482 C507 0.951 . S
H483 C509 0.950 . S
H484 C510 0.950 . S
H485 C512 0.950 . S
H486 C515 0.950 . S
H487 C516 0.950 . S
H488 C518 0.950 . S
H489 C519 0.950 . S
C490 H472 0.951 . S
C490 C491 1.366 . S
C490 C492 1.388 . S
C491 C490 1.366 . S
C491 C495 1.385 . S
C492 H473 0.951 . S
C492 C490 1.388 . S
C492 C493 1.366 . S
C493 C492 1.366 . S
C493 C494 1.414 . S
C493 C496 1.499 . S
C494 H474 0.950 . S
C494 C493 1.414 . S
C494 C495 1.374 . S
C495 H475 0.950 . S
C495 C491 1.385 . S
C495 C494 1.374 . S
C496 C493 1.499 . S
C496 C497 1.373 . S
C496 C498 1.389 . S
C497 H476 0.950 . S
C497 C496 1.373 . S
C497 C513 1.377 . S
C498 C496 1.389 . S
C498 C499 1.524 . S
C498 C512 1.377 . S
C499 C498 1.524 . S
C499 C500 1.397 . S
C499 C504 1.363 . S
C500 H477 0.950 . S
C500 C499 1.397 . S
C500 C501 1.334 . S
C501 H478 0.950 . S
C501 C500 1.334 . S
C501 C502 1.287 . S
C502 C501 1.287 . S
C502 C503 1.524 . S
C502 H521 0.913 . S
C503 H479 0.950 . S
C503 C502 1.524 . S
C503 C504 1.415 . S
C504 H480 0.950 . S
C504 C499 1.363 . S
C504 C503 1.415 . S
C505 H481 0.951 . S
C505 C506 1.366 . S
C505 C507 1.388 . S
C506 C505 1.366 . S
C506 C510 1.385 . S
C507 H482 0.951 . S
C507 C505 1.388 . S
C507 C508 1.366 . S
C508 C507 1.366 . S
C508 C509 1.414 . S
C508 C511 1.499 . S
C509 H483 0.950 . S
C509 C508 1.414 . S
C509 C510 1.374 . S
C510 H484 0.950 . S
C510 C506 1.385 . S
C510 C509 1.374 . S
C511 C508 1.499 . S
C511 C512 1.373 . S
C511 C513 1.389 . S
C512 H485 0.950 . S
C512 C498 1.377 . S
C512 C511 1.373 . S
C513 C497 1.377 . S
C513 C511 1.389 . S
C513 C514 1.524 . S
C514 C513 1.524 . S
C514 C515 1.397 . S
C514 C519 1.363 . S
C515 H486 0.950 . S
C515 C514 1.397 . S
C515 C516 1.334 . S
C516 H487 0.950 . S
C516 C515 1.334 . S
C516 C517 1.287 . S
C517 C516 1.287 . S
C517 C518 1.524 . S
C517 H520 0.999 . S
C518 H488 0.950 . S
C518 C517 1.524 . S
C518 C519 1.415 . S
C519 H489 0.950 . S
C519 C514 1.363 . S
C519 C518 1.415 . S
H520 C517 0.999 . S
H521 C502 0.913 . S
H522 C540 0.951 . S
H523 C542 0.951 . S
H524 C544 0.950 . S
H525 C545 0.950 . S
H526 C547 0.950 . S
H527 C550 0.950 . S
H528 C551 0.950 . S
H529 C553 0.950 . S
H530 C554 0.950 . S
H531 C555 0.951 . S
H532 C557 0.951 . S
H533 C559 0.950 . S
H534 C560 0.950 . S
H535 C562 0.950 . S
H536 C565 0.950 . S
H537 C566 0.950 . S
H538 C568 0.950 . S
H539 C569 0.950 . S
C540 H522 0.951 . S
C540 C541 1.366 . S
C540 C542 1.388 . S
C541 C540 1.366 . S
C541 C545 1.385 . S
C542 H523 0.951 . S
C542 C540 1.388 . S
C542 C543 1.366 . S
C543 C542 1.366 . S
C543 C544 1.414 . S
C543 C546 1.499 . S
C544 H524 0.950 . S
C544 C543 1.414 . S
C544 C545 1.374 . S
C545 H525 0.950 . S
C545 C541 1.385 . S
C545 C544 1.374 . S
C546 C543 1.499 . S
C546 C547 1.373 . S
C546 C548 1.389 . S
C547 H526 0.950 . S
C547 C546 1.373 . S
C547 C563 1.377 . S
C548 C546 1.389 . S
C548 C549 1.524 . S
C548 C562 1.377 . S
C549 C548 1.524 . S
C549 C550 1.397 . S
C549 C554 1.363 . S
C550 H527 0.950 . S
C550 C549 1.397 . S
C550 C551 1.334 . S
C551 H528 0.950 . S
C551 C550 1.334 . S
C551 C552 1.287 . S
C552 C551 1.287 . S
C552 C553 1.524 . S
C552 H571 0.913 . S
C553 H529 0.950 . S
C553 C552 1.524 . S
C553 C554 1.415 . S
C554 H530 0.950 . S
C554 C549 1.363 . S
C554 C553 1.415 . S
C555 H531 0.951 . S
C555 C556 1.366 . S
C555 C557 1.388 . S
C556 C555 1.366 . S
C556 C560 1.385 . S
C557 H532 0.951 . S
C557 C555 1.388 . S
C557 C558 1.366 . S
C558 C557 1.366 . S
C558 C559 1.414 . S
C558 C561 1.499 . S
C559 H533 0.950 . S
C559 C558 1.414 . S
C559 C560 1.374 . S
C560 H534 0.950 . S
C560 C556 1.385 . S
C560 C559 1.374 . S
C561 C558 1.499 . S
C561 C562 1.373 . S
C561 C563 1.389 . S
C562 H535 0.950 . S
C562 C548 1.377 . S
C562 C561 1.373 . S
C563 C547 1.377 . S
C563 C561 1.389 . S
C563 C564 1.524 . S
C564 C563 1.524 . S
C564 C565 1.397 . S
C564 C569 1.363 . S
C565 H536 0.950 . S
C565 C564 1.397 . S
C565 C566 1.334 . S
C566 H537 0.950 . S
C566 C565 1.334 . S
C566 C567 1.287 . S
C567 C566 1.287 . S
C567 C568 1.524 . S
C567 H570 0.999 . S
C568 H538 0.950 . S
C568 C567 1.524 . S
C568 C569 1.415 . S
C569 H539 0.950 . S
C569 C564 1.363 . S
C569 C568 1.415 . S
H570 C567 0.999 . S
H571 C552 0.913 . S
H572 C590 0.951 . S
H573 C592 0.951 . S
H574 C594 0.950 . S
H575 C595 0.950 . S
H576 C597 0.950 . S
H577 C600 0.950 . S
H578 C601 0.950 . S
H579 C603 0.950 . S
H580 C604 0.950 . S
H581 C605 0.951 . S
H582 C607 0.951 . S
H583 C609 0.950 . S
H584 C610 0.950 . S
H585 C612 0.950 . S
H586 C615 0.950 . S
H587 C616 0.950 . S
H588 C618 0.950 . S
H589 C619 0.950 . S
C590 H572 0.951 . S
C590 C591 1.366 . S
C590 C592 1.388 . S
C591 C590 1.366 . S
C591 C595 1.385 . S
C592 H573 0.951 . S
C592 C590 1.388 . S
C592 C593 1.366 . S
C593 C592 1.366 . S
C593 C594 1.414 . S
C593 C596 1.499 . S
C594 H574 0.950 . S
C594 C593 1.414 . S
C594 C595 1.374 . S
C595 H575 0.950 . S
C595 C591 1.385 . S
C595 C594 1.374 . S
C596 C593 1.499 . S
C596 C597 1.373 . S
C596 C598 1.389 . S
C597 H576 0.950 . S
C597 C596 1.373 . S
C597 C613 1.377 . S
C598 C596 1.389 . S
C598 C599 1.524 . S
C598 C612 1.377 . S
C599 C598 1.524 . S
C599 C600 1.397 . S
C599 C604 1.363 . S
C600 H577 0.950 . S
C600 C599 1.397 . S
C600 C601 1.334 . S
C601 H578 0.950 . S
C601 C600 1.334 . S
C601 C602 1.287 . S
C602 C601 1.287 . S
C602 C603 1.524 . S
C602 H621 0.913 . S
C603 H579 0.950 . S
C603 C602 1.524 . S
C603 C604 1.415 . S
C604 H580 0.950 . S
C604 C599 1.363 . S
C604 C603 1.415 . S
C605 H581 0.951 . S
C605 C606 1.366 . S
C605 C607 1.388 . S
C606 C605 1.366 . S
C606 C610 1.385 . S
C607 H582 0.951 . S
C607 C605 1.388 . S
C607 C608 1.366 . S
C608 C607 1.366 . S
C608 C609 1.414 . S
C608 C611 1.499 . S
C609 H583 0.950 . S
C609 C608 1.414 . S
C609 C610 1.374 . S
C610 H584 0.950 . S
C610 C606 1.385 . S
C610 C609 1.374 . S
C611 C608 1.499 . S
C611 C612 1.373 . S
C611 C613 1.389 . S
C612 H585 0.950 . S
C612 C598 1.377 . S
C612 C611 1.373 . S
C613 C597 1.377 . S
C613 C611 1.389 . S
C613 C614 1.524 . S
C614 C613 1.524 . S
C614 C615 1.397 . S
C614 C619 1.363 . S
C615 H586 0.950 . S
C615 C614 1.397 . S
C615 C616 1.334 . S
C616 H587 0.950 . S
C616 C615 1.334 . S
C616 C617 1.287 . S
C617 C616 1.287 . S
C617 C618 1.524 . S
C617 H620 0.999 . S
C618 H588 0.950 . S
C618 C617 1.524 . S
C618 C619 1.415 . S
C619 H589 0.950 . S
C619 C614 1.363 . S
C619 C618 1.415 . S
H620 C617 0.999 . S
H621 C602 0.913 . S
H622 C640 0.951 . S
H623 C642 0.951 . S
H624 C644 0.950 . S
H625 C645 0.950 . S
H626 C647 0.950 . S
H627 C650 0.950 . S
H628 C651 0.950 . S
H629 C653 0.950 . S
H630 C654 0.950 . S
H631 C655 0.951 . S
H632 C657 0.951 . S
H633 C659 0.950 . S
H634 C660 0.950 . S
H635 C662 0.950 . S
H636 C665 0.950 . S
H637 C666 0.950 . S
H638 C668 0.950 . S
H639 C669 0.950 . S
C640 H622 0.951 . S
C640 C641 1.366 . S
C640 C642 1.388 . S
C641 C640 1.366 . S
C641 C645 1.385 . S
C642 H623 0.951 . S
C642 C640 1.388 . S
C642 C643 1.366 . S
C643 C642 1.366 . S
C643 C644 1.414 . S
C643 C646 1.499 . S
C644 H624 0.950 . S
C644 C643 1.414 . S
C644 C645 1.374 . S
C645 H625 0.950 . S
C645 C641 1.385 . S
C645 C644 1.374 . S
C646 C643 1.499 . S
C646 C647 1.373 . S
C646 C648 1.389 . S
C647 H626 0.950 . S
C647 C646 1.373 . S
C647 C663 1.377 . S
C648 C646 1.389 . S
C648 C649 1.524 . S
C648 C662 1.377 . S
C649 C648 1.524 . S
C649 C650 1.397 . S
C649 C654 1.363 . S
C650 H627 0.950 . S
C650 C649 1.397 . S
C650 C651 1.334 . S
C651 H628 0.950 . S
C651 C650 1.334 . S
C651 C652 1.287 . S
C652 C651 1.287 . S
C652 C653 1.524 . S
C652 H671 0.913 . S
C653 H629 0.950 . S
C653 C652 1.524 . S
C653 C654 1.415 . S
C654 H630 0.950 . S
C654 C649 1.363 . S
C654 C653 1.415 . S
C655 H631 0.951 . S
C655 C656 1.366 . S
C655 C657 1.388 . S
C656 C655 1.366 . S
C656 C660 1.385 . S
C657 H632 0.951 . S
C657 C655 1.388 . S
C657 C658 1.366 . S
C658 C657 1.366 . S
C658 C659 1.414 . S
C658 C661 1.499 . S
C659 H633 0.950 . S
C659 C658 1.414 . S
C659 C660 1.374 . S
C660 H634 0.950 . S
C660 C656 1.385 . S
C660 C659 1.374 . S
C661 C658 1.499 . S
C661 C662 1.373 . S
C661 C663 1.389 . S
C662 H635 0.950 . S
C662 C648 1.377 . S
C662 C661 1.373 . S
C663 C647 1.377 . S
C663 C661 1.389 . S
C663 C664 1.524 . S
C664 C663 1.524 . S
C664 C665 1.397 . S
C664 C669 1.363 . S
C665 H636 0.950 . S
C665 C664 1.397 . S
C665 C666 1.334 . S
C666 H637 0.950 . S
C666 C665 1.334 . S
C666 C667 1.287 . S
C667 C666 1.287 . S
C667 C668 1.524 . S
C667 H670 0.999 . S
C668 H638 0.950 . S
C668 C667 1.524 . S
C668 C669 1.415 . S
C669 H639 0.950 . S
C669 C664 1.363 . S
C669 C668 1.415 . S
H670 C667 0.999 . S
H671 C652 0.913 . S
H672 C690 0.951 . S
H673 C692 0.951 . S
H674 C694 0.950 . S
H675 C695 0.950 . S
H676 C697 0.950 . S
H677 C700 0.950 . S
H678 C701 0.950 . S
H679 C703 0.950 . S
H680 C704 0.950 . S
H681 C705 0.951 . S
H682 C707 0.951 . S
H683 C709 0.950 . S
H684 C710 0.950 . S
H685 C712 0.950 . S
H686 C715 0.950 . S
H687 C716 0.950 . S
H688 C718 0.950 . S
H689 C719 0.950 . S
C690 H672 0.951 . S
C690 C691 1.366 . S
C690 C692 1.388 . S
C691 C690 1.366 . S
C691 C695 1.385 . S
C692 H673 0.951 . S
C692 C690 1.388 . S
C692 C693 1.366 . S
C693 C692 1.366 . S
C693 C694 1.414 . S
C693 C696 1.499 . S
C694 H674 0.950 . S
C694 C693 1.414 . S
C694 C695 1.374 . S
C695 H675 0.950 . S
C695 C691 1.385 . S
C695 C694 1.374 . S
C696 C693 1.499 . S
C696 C697 1.373 . S
C696 C698 1.389 . S
C697 H676 0.950 . S
C697 C696 1.373 . S
C697 C713 1.377 . S
C698 C696 1.389 . S
C698 C699 1.524 . S
C698 C712 1.377 . S
C699 C698 1.524 . S
C699 C700 1.397 . S
C699 C704 1.363 . S
C700 H677 0.950 . S
C700 C699 1.397 . S
C700 C701 1.334 . S
C701 H678 0.950 . S
C701 C700 1.334 . S
C701 C702 1.287 . S
C702 C701 1.287 . S
C702 C703 1.524 . S
C702 H721 0.913 . S
C703 H679 0.950 . S
C703 C702 1.524 . S
C703 C704 1.415 . S
C704 H680 0.950 . S
C704 C699 1.363 . S
C704 C703 1.415 . S
C705 H681 0.951 . S
C705 C706 1.366 . S
C705 C707 1.388 . S
C706 C705 1.366 . S
C706 C710 1.385 . S
C707 H682 0.951 . S
C707 C705 1.388 . S
C707 C708 1.366 . S
C708 C707 1.366 . S
C708 C709 1.414 . S
C708 C711 1.499 . S
C709 H683 0.950 . S
C709 C708 1.414 . S
C709 C710 1.374 . S
C710 H684 0.950 . S
C710 C706 1.385 . S
C710 C709 1.374 . S
C711 C708 1.499 . S
C711 C712 1.373 . S
C711 C713 1.389 . S
C712 H685 0.950 . S
C712 C698 1.377 . S
C712 C711 1.373 . S
C713 C697 1.377 . S
C713 C711 1.389 . S
C713 C714 1.524 . S
C714 C713 1.524 . S
C714 C715 1.397 . S
C714 C719 1.363 . S
C715 H686 0.950 . S
C715 C714 1.397 . S
C715 C716 1.334 . S
C716 H687 0.950 . S
C716 C715 1.334 . S
C716 C717 1.287 . S
C717 C716 1.287 . S
C717 C718 1.524 . S
C717 H720 0.999 . S
C718 H688 0.950 . S
C718 C717 1.524 . S
C718 C719 1.415 . S
C719 H689 0.950 . S
C719 C714 1.363 . S
C719 C718 1.415 . S
H720 C717 0.999 . S
H721 C702 0.913 . S
H722 C740 0.951 . S
H723 C742 0.951 . S
H724 C744 0.950 . S
H725 C745 0.950 . S
H726 C747 0.950 . S
H727 C750 0.950 . S
H728 C751 0.950 . S
H729 C753 0.950 . S
H730 C754 0.950 . S
H731 C755 0.951 . S
H732 C757 0.951 . S
H733 C759 0.950 . S
H734 C760 0.950 . S
H735 C762 0.950 . S
H736 C765 0.950 . S
H737 C766 0.950 . S
H738 C768 0.950 . S
H739 C769 0.950 . S
C740 H722 0.951 . S
C740 C741 1.366 . S
C740 C742 1.388 . S
C741 C740 1.366 . S
C741 C745 1.385 . S
C742 H723 0.951 . S
C742 C740 1.388 . S
C742 C743 1.366 . S
C743 C742 1.366 . S
C743 C744 1.414 . S
C743 C746 1.499 . S
C744 H724 0.950 . S
C744 C743 1.414 . S
C744 C745 1.374 . S
C745 H725 0.950 . S
C745 C741 1.385 . S
C745 C744 1.374 . S
C746 C743 1.499 . S
C746 C747 1.373 . S
C746 C748 1.389 . S
C747 H726 0.950 . S
C747 C746 1.373 . S
C747 C763 1.377 . S
C748 C746 1.389 . S
C748 C749 1.524 . S
C748 C762 1.377 . S
C749 C748 1.524 . S
C749 C750 1.397 . S
C749 C754 1.363 . S
C750 H727 0.950 . S
C750 C749 1.397 . S
C750 C751 1.334 . S
C751 H728 0.950 . S
C751 C750 1.334 . S
C751 C752 1.287 . S
C752 C751 1.287 . S
C752 C753 1.524 . S
C752 H771 0.913 . S
C753 H729 0.950 . S
C753 C752 1.524 . S
C753 C754 1.415 . S
C754 H730 0.950 . S
C754 C749 1.363 . S
C754 C753 1.415 . S
C755 H731 0.951 . S
C755 C756 1.366 . S
C755 C757 1.388 . S
C756 C755 1.366 . S
C756 C760 1.385 . S
C757 H732 0.951 . S
C757 C755 1.388 . S
C757 C758 1.366 . S
C758 C757 1.366 . S
C758 C759 1.414 . S
C758 C761 1.499 . S
C759 H733 0.950 . S
C759 C758 1.414 . S
C759 C760 1.374 . S
C760 H734 0.950 . S
C760 C756 1.385 . S
C760 C759 1.374 . S
C761 C758 1.499 . S
C761 C762 1.373 . S
C761 C763 1.389 . S
C762 H735 0.950 . S
C762 C748 1.377 . S
C762 C761 1.373 . S
C763 C747 1.377 . S
C763 C761 1.389 . S
C763 C764 1.524 . S
C764 C763 1.524 . S
C764 C765 1.397 . S
C764 C769 1.363 . S
C765 H736 0.950 . S
C765 C764 1.397 . S
C765 C766 1.334 . S
C766 H737 0.950 . S
C766 C765 1.334 . S
C766 C767 1.287 . S
C767 C766 1.287 . S
C767 C768 1.524 . S
C767 H770 0.999 . S
C768 H738 0.950 . S
C768 C767 1.524 . S
C768 C769 1.415 . S
C769 H739 0.950 . S
C769 C764 1.363 . S
C769 C768 1.415 . S
H770 C767 0.999 . S
H771 C752 0.913 . S
H772 C790 0.951 . S
H773 C792 0.951 . S
H774 C794 0.950 . S
H775 C795 0.950 . S
H776 C797 0.950 . S
H777 C800 0.950 . S
H778 C801 0.950 . S
H779 C803 0.950 . S
H780 C804 0.950 . S
H781 C805 0.951 . S
H782 C807 0.951 . S
H783 C809 0.950 . S
H784 C810 0.950 . S
H785 C812 0.950 . S
H786 C815 0.950 . S
H787 C816 0.950 . S
H788 C818 0.950 . S
H789 C819 0.950 . S
C790 H772 0.951 . S
C790 C791 1.366 . S
C790 C792 1.388 . S
C791 C790 1.366 . S
C791 C795 1.385 . S
C792 H773 0.951 . S
C792 C790 1.388 . S
C792 C793 1.366 . S
C793 C792 1.366 . S
C793 C794 1.414 . S
C793 C796 1.499 . S
C794 H774 0.950 . S
C794 C793 1.414 . S
C794 C795 1.374 . S
C795 H775 0.950 . S
C795 C791 1.385 . S
C795 C794 1.374 . S
C796 C793 1.499 . S
C796 C797 1.373 . S
C796 C798 1.389 . S
C797 H776 0.950 . S
C797 C796 1.373 . S
C797 C813 1.377 . S
C798 C796 1.389 . S
C798 C799 1.524 . S
C798 C812 1.377 . S
C799 C798 1.524 . S
C799 C800 1.397 . S
C799 C804 1.363 . S
C800 H777 0.950 . S
C800 C799 1.397 . S
C800 C801 1.334 . S
C801 H778 0.950 . S
C801 C800 1.334 . S
C801 C802 1.287 . S
C802 C801 1.287 . S
C802 C803 1.524 . S
C802 H821 0.913 . S
C803 H779 0.950 . S
C803 C802 1.524 . S
C803 C804 1.415 . S
C804 H780 0.950 . S
C804 C799 1.363 . S
C804 C803 1.415 . S
C805 H781 0.951 . S
C805 C806 1.366 . S
C805 C807 1.388 . S
C806 C805 1.366 . S
C806 C810 1.385 . S
C807 H782 0.951 . S
C807 C805 1.388 . S
C807 C808 1.366 . S
C808 C807 1.366 . S
C808 C809 1.414 . S
C808 C811 1.499 . S
C809 H783 0.950 . S
C809 C808 1.414 . S
C809 C810 1.374 . S
C810 H784 0.950 . S
C810 C806 1.385 . S
C810 C809 1.374 . S
C811 C808 1.499 . S
C811 C812 1.373 . S
C811 C813 1.389 . S
C812 H785 0.950 . S
C812 C798 1.377 . S
C812 C811 1.373 . S
C813 C797 1.377 . S
C813 C811 1.389 . S
C813 C814 1.524 . S
C814 C813 1.524 . S
C814 C815 1.397 . S
C814 C819 1.363 . S
C815 H786 0.950 . S
C815 C814 1.397 . S
C815 C816 1.334 . S
C816 H787 0.950 . S
C816 C815 1.334 . S
C816 C817 1.287 . S
C817 C816 1.287 . S
C817 C818 1.524 . S
C817 H820 0.999 . S
C818 H788 0.950 . S
C818 C817 1.524 . S
C818 C819 1.415 . S
C819 H789 0.950 . S
C819 C814 1.363 . S
C819 C818 1.415 . S
H820 C817 0.999 . S
H821 C802 0.913 . S
H822 C840 0.951 . S
H823 C842 0.951 . S
H824 C844 0.950 . S
H825 C845 0.950 . S
H826 C847 0.950 . S
H827 C850 0.950 . S
H828 C851 0.950 1_565 S
H829 C853 0.950 . S
H830 C854 0.950 . S
H831 C855 0.951 . S
H832 C857 0.951 . S
H833 C859 0.950 . S
H834 C860 0.950 . S
H835 C862 0.950 . S
H836 C865 0.950 . S
H837 C866 0.950 . S
H838 C868 0.950 . S
H839 C869 0.950 . S
C840 H822 0.951 . S
C840 C841 1.366 . S
C840 C842 1.388 . S
C841 C840 1.366 . S
C841 C845 1.385 . S
C842 H823 0.951 . S
C842 C840 1.388 . S
C842 C843 1.366 . S
C843 C842 1.366 . S
C843 C844 1.414 . S
C843 C846 1.499 . S
C844 H824 0.950 . S
C844 C843 1.414 . S
C844 C845 1.374 . S
C845 H825 0.950 . S
C845 C841 1.385 . S
C845 C844 1.374 . S
C846 C843 1.499 . S
C846 C847 1.373 . S
C846 C848 1.389 . S
C847 H826 0.950 . S
C847 C846 1.373 . S
C847 C863 1.377 . S
C848 C846 1.389 . S
C848 C849 1.524 . S
C848 C862 1.377 . S
C849 C848 1.524 . S
C849 C850 1.397 . S
C849 C854 1.363 . S
C850 H827 0.950 . S
C850 C849 1.397 . S
C850 C851 1.334 . S
C851 H828 0.950 1_545 S
C851 C850 1.334 . S
C851 C852 1.287 1_545 S
C852 C851 1.287 1_565 S
C852 C853 1.524 1_565 S
C852 H871 0.913 . S
C853 H829 0.950 . S
C853 C852 1.524 1_545 S
C853 C854 1.415 . S
C854 H830 0.950 . S
C854 C849 1.363 . S
C854 C853 1.415 . S
C855 H831 0.951 . S
C855 C856 1.366 . S
C855 C857 1.388 . S
C856 C855 1.366 . S
C856 C860 1.385 . S
C857 H832 0.951 . S
C857 C855 1.388 . S
C857 C858 1.366 . S
C858 C857 1.366 . S
C858 C859 1.414 . S
C858 C861 1.499 . S
C859 H833 0.950 . S
C859 C858 1.414 . S
C859 C860 1.374 . S
C860 H834 0.950 . S
C860 C856 1.385 . S
C860 C859 1.374 . S
C861 C858 1.499 . S
C861 C862 1.373 . S
C861 C863 1.389 . S
C862 H835 0.950 . S
C862 C848 1.377 . S
C862 C861 1.373 . S
C863 C847 1.377 . S
C863 C861 1.389 . S
C863 C864 1.524 . S
C864 C863 1.524 . S
C864 C865 1.397 . S
C864 C869 1.363 . S
C865 H836 0.950 . S
C865 C864 1.397 . S
C865 C866 1.334 . S
C866 H837 0.950 . S
C866 C865 1.334 . S
C866 C867 1.287 . S
C867 C866 1.287 . S
C867 C868 1.524 . S
C867 H870 0.999 . S
C868 H838 0.950 . S
C868 C867 1.524 . S
C868 C869 1.415 . S
C869 H839 0.950 . S
C869 C864 1.363 . S
C869 C868 1.415 . S
H870 C867 0.999 . S
H871 C852 0.913 . S
H872 C890 0.951 . S
H873 C892 0.951 . S
H874 C894 0.950 . S
H875 C895 0.950 . S
H876 C897 0.950 . S
H877 C900 0.950 . S
H878 C901 0.950 . S
H879 C903 0.950 . S
H880 C904 0.950 . S
H881 C905 0.951 . S
H882 C907 0.951 . S
H883 C909 0.950 . S
H884 C910 0.950 . S
H885 C912 0.950 . S
H886 C915 0.950 . S
H887 C916 0.950 . S
H888 C918 0.950 . S
H889 C919 0.950 . S
C890 H872 0.951 . S
C890 C891 1.366 . S
C890 C892 1.388 . S
C891 C890 1.366 . S
C891 C895 1.385 . S
C892 H873 0.951 . S
C892 C890 1.388 . S
C892 C893 1.366 . S
C893 C892 1.366 . S
C893 C894 1.414 . S
C893 C896 1.499 . S
C894 H874 0.950 . S
C894 C893 1.414 . S
C894 C895 1.374 . S
C895 H875 0.950 . S
C895 C891 1.385 . S
C895 C894 1.374 . S
C896 C893 1.499 . S
C896 C897 1.373 . S
C896 C898 1.389 . S
C897 H876 0.950 . S
C897 C896 1.373 . S
C897 C913 1.377 . S
C898 C896 1.389 . S
C898 C899 1.524 . S
C898 C912 1.377 . S
C899 C898 1.524 . S
C899 C900 1.397 . S
C899 C904 1.363 . S
C900 H877 0.950 . S
C900 C899 1.397 . S
C900 C901 1.334 . S
C901 H878 0.950 . S
C901 C900 1.334 . S
C901 C902 1.287 . S
C902 C901 1.287 . S
C902 C903 1.524 . S
C902 H921 0.913 . S
C903 H879 0.950 . S
C903 C902 1.524 . S
C903 C904 1.415 . S
C904 H880 0.950 . S
C904 C899 1.363 . S
C904 C903 1.415 . S
C905 H881 0.951 . S
C905 C906 1.366 . S
C905 C907 1.388 . S
C906 C905 1.366 . S
C906 C910 1.385 . S
C907 H882 0.951 . S
C907 C905 1.388 . S
C907 C908 1.366 . S
C908 C907 1.366 . S
C908 C909 1.414 . S
C908 C911 1.499 . S
C909 H883 0.950 . S
C909 C908 1.414 . S
C909 C910 1.374 . S
C910 H884 0.950 . S
C910 C906 1.385 . S
C910 C909 1.374 . S
C911 C908 1.499 . S
C911 C912 1.373 . S
C911 C913 1.389 . S
C912 H885 0.950 . S
C912 C898 1.377 . S
C912 C911 1.373 . S
C913 C897 1.377 . S
C913 C911 1.389 . S
C913 C914 1.524 . S
C914 C913 1.524 . S
C914 C915 1.397 . S
C914 C919 1.363 . S
C915 H886 0.950 . S
C915 C914 1.397 . S
C915 C916 1.334 . S
C916 H887 0.950 . S
C916 C915 1.334 . S
C916 C917 1.287 . S
C917 C916 1.287 . S
C917 C918 1.524 . S
C917 H920 0.999 . S
C918 H888 0.950 . S
C918 C917 1.524 . S
C918 C919 1.415 . S
C919 H889 0.950 . S
C919 C914 1.363 . S
C919 C918 1.415 . S
H920 C917 0.999 . S
H921 C902 0.913 . S
H922 C940 0.951 . S
H923 C942 0.951 . S
H924 C944 0.950 . S
H925 C945 0.950 . S
H926 C947 0.950 . S
H927 C950 0.950 . S
H928 C951 0.950 . S
H929 C953 0.950 . S
H930 C954 0.950 . S
H931 C955 0.951 . S
H932 C957 0.951 . S
H933 C959 0.950 . S
H934 C960 0.950 . S
H935 C962 0.950 . S
H936 C965 0.950 . S
H937 C966 0.950 . S
H938 C968 0.950 . S
H939 C969 0.950 . S
C940 H922 0.951 . S
C940 C941 1.366 . S
C940 C942 1.388 . S
C941 C940 1.366 . S
C941 C945 1.385 . S
C942 H923 0.951 . S
C942 C940 1.388 . S
C942 C943 1.366 . S
C943 C942 1.366 . S
C943 C944 1.414 . S
C943 C946 1.499 . S
C944 H924 0.950 . S
C944 C943 1.414 . S
C944 C945 1.374 . S
C945 H925 0.950 . S
C945 C941 1.385 . S
C945 C944 1.374 . S
C946 C943 1.499 . S
C946 C947 1.373 . S
C946 C948 1.389 . S
C947 H926 0.950 . S
C947 C946 1.373 . S
C947 C963 1.377 . S
C948 C946 1.389 . S
C948 C949 1.524 . S
C948 C962 1.377 . S
C949 C948 1.524 . S
C949 C950 1.397 . S
C949 C954 1.363 . S
C950 H927 0.950 . S
C950 C949 1.397 . S
C950 C951 1.334 . S
C951 H928 0.950 . S
C951 C950 1.334 . S
C951 C952 1.287 . S
C952 C951 1.287 . S
C952 C953 1.524 . S
C952 H971 0.913 . S
C953 H929 0.950 . S
C953 C952 1.524 . S
C953 C954 1.415 . S
C954 H930 0.950 . S
C954 C949 1.363 . S
C954 C953 1.415 . S
C955 H931 0.951 . S
C955 C956 1.366 . S
C955 C957 1.388 . S
C956 C955 1.366 . S
C956 C960 1.385 . S
C957 H932 0.951 . S
C957 C955 1.388 . S
C957 C958 1.366 . S
C958 C957 1.366 . S
C958 C959 1.414 . S
C958 C961 1.499 . S
C959 H933 0.950 . S
C959 C958 1.414 . S
C959 C960 1.374 . S
C960 H934 0.950 . S
C960 C956 1.385 . S
C960 C959 1.374 . S
C961 C958 1.499 . S
C961 C962 1.373 . S
C961 C963 1.389 . S
C962 H935 0.950 . S
C962 C948 1.377 . S
C962 C961 1.373 . S
C963 C947 1.377 . S
C963 C961 1.389 . S
C963 C964 1.524 . S
C964 C963 1.524 . S
C964 C965 1.397 . S
C964 C969 1.363 . S
C965 H936 0.950 . S
C965 C964 1.397 . S
C965 C966 1.334 . S
C966 H937 0.950 . S
C966 C965 1.334 . S
C966 C967 1.287 . S
C967 C966 1.287 . S
C967 C968 1.524 . S
C967 H970 0.999 . S
C968 H938 0.950 . S
C968 C967 1.524 . S
C968 C969 1.415 . S
C969 H939 0.950 . S
C969 C964 1.363 . S
C969 C968 1.415 . S
H970 C967 0.999 . S
H971 C952 0.913 . S
H972 C990 0.951 . S
H973 C992 0.951 . S
H974 C994 0.950 . S
H975 C995 0.950 . S
H976 C997 0.950 . S
H977 C1000 0.950 . S
H978 C1001 0.950 . S
H979 C1003 0.950 . S
H980 C1004 0.950 . S
H981 C1005 0.951 . S
H982 C1007 0.951 . S
H983 C1009 0.950 . S
H984 C1010 0.950 . S
H985 C1012 0.950 . S
H986 C1015 0.950 . S
H987 C1016 0.950 . S
H988 C1018 0.950 . S
H989 C1019 0.950 . S
C990 H972 0.951 . S
C990 C991 1.366 . S
C990 C992 1.388 . S
C991 C990 1.366 . S
C991 C995 1.385 . S
C992 H973 0.951 . S
C992 C990 1.388 . S
C992 C993 1.366 . S
C993 C992 1.366 . S
C993 C994 1.414 . S
C993 C996 1.499 . S
C994 H974 0.950 . S
C994 C993 1.414 . S
C994 C995 1.374 . S
C995 H975 0.950 . S
C995 C991 1.385 . S
C995 C994 1.374 . S
C996 C993 1.499 . S
C996 C997 1.373 . S
C996 C998 1.389 . S
C997 H976 0.950 . S
C997 C996 1.373 . S
C997 C1013 1.377 . S
C998 C996 1.389 . S
C998 C999 1.524 . S
C998 C1012 1.377 . S
C999 C998 1.524 . S
C999 C1000 1.397 . S
C999 C1004 1.363 . S
C1000 H977 0.950 . S
C1000 C999 1.397 . S
C1000 C1001 1.334 . S
C1001 H978 0.950 . S
C1001 C1000 1.334 . S
C1001 C1002 1.287 . S
C1002 C1001 1.287 . S
C1002 C1003 1.524 . S
C1002 H1021 0.913 . S
C1003 H979 0.950 . S
C1003 C1002 1.524 . S
C1003 C1004 1.415 . S
C1004 H980 0.950 . S
C1004 C999 1.363 . S
C1004 C1003 1.415 . S
C1005 H981 0.951 . S
C1005 C1006 1.366 . S
C1005 C1007 1.388 . S
C1006 C1005 1.366 . S
C1006 C1010 1.385 . S
C1007 H982 0.951 . S
C1007 C1005 1.388 . S
C1007 C1008 1.366 . S
C1008 C1007 1.366 . S
C1008 C1009 1.414 . S
C1008 C1011 1.499 . S
C1009 H983 0.950 . S
C1009 C1008 1.414 . S
C1009 C1010 1.374 . S
C1010 H984 0.950 . S
C1010 C1006 1.385 . S
C1010 C1009 1.374 . S
C1011 C1008 1.499 . S
C1011 C1012 1.373 . S
C1011 C1013 1.389 . S
C1012 H985 0.950 . S
C1012 C998 1.377 . S
C1012 C1011 1.373 . S
C1013 C997 1.377 . S
C1013 C1011 1.389 . S
C1013 C1014 1.524 . S
C1014 C1013 1.524 . S
C1014 C1015 1.397 . S
C1014 C1019 1.363 . S
C1015 H986 0.950 . S
C1015 C1014 1.397 . S
C1015 C1016 1.334 . S
C1016 H987 0.950 . S
C1016 C1015 1.334 . S
C1016 C1017 1.287 . S
C1017 C1016 1.287 . S
C1017 C1018 1.524 . S
C1017 H1020 0.999 . S
C1018 H988 0.950 . S
C1018 C1017 1.524 . S
C1018 C1019 1.415 . S
C1019 H989 0.950 . S
C1019 C1014 1.363 . S
C1019 C1018 1.415 . S
H1020 C1017 0.999 . S
H1021 C1002 0.913 . S
H1022 C1040 0.951 . S
H1023 C1042 0.951 . S
H1024 C1044 0.950 . S
H1025 C1045 0.950 . S
H1026 C1047 0.950 . S
H1027 C1050 0.950 . S
H1028 C1051 0.950 . S
H1029 C1053 0.950 . S
H1030 C1054 0.950 . S
H1031 C1055 0.951 . S
H1032 C1057 0.951 . S
H1033 C1059 0.950 . S
H1034 C1060 0.950 . S
H1035 C1062 0.950 . S
H1036 C1065 0.950 . S
H1037 C1066 0.950 . S
H1038 C1068 0.950 . S
H1039 C1069 0.950 . S
C1040 H1022 0.951 . S
C1040 C1041 1.366 . S
C1040 C1042 1.388 . S
C1041 C1040 1.366 . S
C1041 C1045 1.385 . S
C1042 H1023 0.951 . S
C1042 C1040 1.388 . S
C1042 C1043 1.366 . S
C1043 C1042 1.366 . S
C1043 C1044 1.414 . S
C1043 C1046 1.499 . S
C1044 H1024 0.950 . S
C1044 C1043 1.414 . S
C1044 C1045 1.374 . S
C1045 H1025 0.950 . S
C1045 C1041 1.385 . S
C1045 C1044 1.374 . S
C1046 C1043 1.499 . S
C1046 C1047 1.373 . S
C1046 C1048 1.389 . S
C1047 H1026 0.950 . S
C1047 C1046 1.373 . S
C1047 C1063 1.377 . S
C1048 C1046 1.389 . S
C1048 C1049 1.524 . S
C1048 C1062 1.377 . S
C1049 C1048 1.524 . S
C1049 C1050 1.397 . S
C1049 C1054 1.363 . S
C1050 H1027 0.950 . S
C1050 C1049 1.397 . S
C1050 C1051 1.334 . S
C1051 H1028 0.950 . S
C1051 C1050 1.334 . S
C1051 C1052 1.287 . S
C1052 C1051 1.287 . S
C1052 C1053 1.524 . S
C1052 H1071 0.913 . S
C1053 H1029 0.950 . S
C1053 C1052 1.524 . S
C1053 C1054 1.415 . S
C1054 H1030 0.950 . S
C1054 C1049 1.363 . S
C1054 C1053 1.415 . S
C1055 H1031 0.951 . S
C1055 C1056 1.366 . S
C1055 C1057 1.388 . S
C1056 C1055 1.366 . S
C1056 C1060 1.385 . S
C1057 H1032 0.951 . S
C1057 C1055 1.388 . S
C1057 C1058 1.366 . S
C1058 C1057 1.366 . S
C1058 C1059 1.414 . S
C1058 C1061 1.499 . S
C1059 H1033 0.950 . S
C1059 C1058 1.414 . S
C1059 C1060 1.374 . S
C1060 H1034 0.950 . S
C1060 C1056 1.385 . S
C1060 C1059 1.374 . S
C1061 C1058 1.499 . S
C1061 C1062 1.373 . S
C1061 C1063 1.389 . S
C1062 H1035 0.950 . S
C1062 C1048 1.377 . S
C1062 C1061 1.373 . S
C1063 C1047 1.377 . S
C1063 C1061 1.389 . S
C1063 C1064 1.524 . S
C1064 C1063 1.524 . S
C1064 C1065 1.397 . S
C1064 C1069 1.363 . S
C1065 H1036 0.950 . S
C1065 C1064 1.397 . S
C1065 C1066 1.334 . S
C1066 H1037 0.950 . S
C1066 C1065 1.334 . S
C1066 C1067 1.287 . S
C1067 C1066 1.287 . S
C1067 C1068 1.524 . S
C1067 H1070 0.999 . S
C1068 H1038 0.950 . S
C1068 C1067 1.524 . S
C1068 C1069 1.415 . S
C1069 H1039 0.950 . S
C1069 C1064 1.363 . S
C1069 C1068 1.415 . S
H1070 C1067 0.999 . S
H1071 C1052 0.913 . S
H1072 C1090 0.951 . S
H1073 C1092 0.951 . S
H1074 C1094 0.950 . S
H1075 C1095 0.950 . S
H1076 C1097 0.950 . S
H1077 C1100 0.950 . S
H1078 C1101 0.950 . S
H1079 C1103 0.971 . S
H1080 C1104 0.950 . S
H1081 C1105 0.951 . S
H1082 C1107 0.951 . S
H1083 C1109 0.950 . S
H1084 C1110 0.950 . S
H1085 C1112 0.950 . S
H1086 C1115 0.950 . S
H1087 C1116 0.950 . S
H1088 C1118 0.950 . S
H1089 C1119 0.950 . S
C1090 H1072 0.951 . S
C1090 C1091 1.366 . S
C1090 C1092 1.388 . S
C1091 C1090 1.366 . S
C1091 C1095 1.385 . S
C1092 H1073 0.951 . S
C1092 C1090 1.388 . S
C1092 C1093 1.366 . S
C1093 C1092 1.366 . S
C1093 C1094 1.414 . S
C1093 C1096 1.499 . S
C1094 H1074 0.950 . S
C1094 C1093 1.414 . S
C1094 C1095 1.374 . S
C1095 H1075 0.950 . S
C1095 C1091 1.385 . S
C1095 C1094 1.374 . S
C1096 C1093 1.499 . S
C1096 C1097 1.373 . S
C1096 C1098 1.389 . S
C1097 H1076 0.950 . S
C1097 C1096 1.373 . S
C1097 C1113 1.377 . S
C1098 C1096 1.389 . S
C1098 C1099 1.524 . S
C1098 C1112 1.377 . S
C1099 C1098 1.524 . S
C1099 C1100 1.397 . S
C1099 C1104 1.363 . S
C1100 H1077 0.950 . S
C1100 C1099 1.397 . S
C1100 C1101 1.334 . S
C1101 H1078 0.950 . S
C1101 C1100 1.334 . S
C1101 C1102 1.287 1_556 S
C1102 C1101 1.287 1_554 S
C1102 C1103 1.526 . S
C1102 H1121 0.913 . S
C1103 H1079 0.971 . S
C1103 C1102 1.526 . S
C1103 C1104 1.389 1_554 S
C1104 H1080 0.950 . S
C1104 C1099 1.363 . S
C1104 C1103 1.389 1_556 S
C1105 H1081 0.951 . S
C1105 C1106 1.366 . S
C1105 C1107 1.388 . S
C1106 C1105 1.366 . S
C1106 C1110 1.385 . S
C1107 H1082 0.951 . S
C1107 C1105 1.388 . S
C1107 C1108 1.366 . S
C1108 C1107 1.366 . S
C1108 C1109 1.414 . S
C1108 C1111 1.499 . S
C1109 H1083 0.950 . S
C1109 C1108 1.414 . S
C1109 C1110 1.374 . S
C1110 H1084 0.950 . S
C1110 C1106 1.385 . S
C1110 C1109 1.374 . S
C1111 C1108 1.499 . S
C1111 C1112 1.373 . S
C1111 C1113 1.389 . S
C1112 H1085 0.950 . S
C1112 C1098 1.377 . S
C1112 C1111 1.373 . S
C1113 C1097 1.377 . S
C1113 C1111 1.389 . S
C1113 C1114 1.524 . S
C1114 C1113 1.524 . S
C1114 C1115 1.397 . S
C1114 C1119 1.363 . S
C1115 H1086 0.950 . S
C1115 C1114 1.397 . S
C1115 C1116 1.334 . S
C1116 H1087 0.950 . S
C1116 C1115 1.334 . S
C1116 C1117 1.287 . S
C1117 C1116 1.287 . S
C1117 C1118 1.524 . S
C1117 H1120 0.999 . S
C1118 H1088 0.950 . S
C1118 C1117 1.524 . S
C1118 C1119 1.415 . S
C1119 H1089 0.950 . S
C1119 C1114 1.363 . S
C1119 C1118 1.415 . S
H1120 C1117 0.999 . S
H1121 C1102 0.913 . S
H1122 C1140 0.951 . S
H1123 C1142 0.951 . S
H1124 C1144 0.950 . S
H1125 C1145 0.950 . S
H1126 C1147 0.950 . S
H1127 C1150 0.950 . S
H1128 C1151 0.950 . S
H1129 C1153 0.950 . S
H1130 C1154 0.950 . S
H1131 C1155 0.951 . S
H1132 C1157 0.951 . S
H1133 C1159 0.950 . S
H1134 C1160 0.950 . S
H1135 C1162 0.950 . S
H1136 C1165 0.950 . S
H1137 C1166 0.950 . S
H1138 C1168 0.950 . S
H1139 C1169 0.950 . S
C1140 H1122 0.951 . S
C1140 C1141 1.366 . S
C1140 C1142 1.388 . S
C1141 C1140 1.366 . S
C1141 C1145 1.385 . S
C1142 H1123 0.951 . S
C1142 C1140 1.388 . S
C1142 C1143 1.366 . S
C1143 C1142 1.366 . S
C1143 C1144 1.414 . S
C1143 C1146 1.499 . S
C1144 H1124 0.950 . S
C1144 C1143 1.414 . S
C1144 C1145 1.374 . S
C1145 H1125 0.950 . S
C1145 C1141 1.385 . S
C1145 C1144 1.374 . S
C1146 C1143 1.499 . S
C1146 C1147 1.373 . S
C1146 C1148 1.389 . S
C1147 H1126 0.950 . S
C1147 C1146 1.373 . S
C1147 C1163 1.377 . S
C1148 C1146 1.389 . S
C1148 C1149 1.524 . S
C1148 C1162 1.377 . S
C1149 C1148 1.524 . S
C1149 C1150 1.397 . S
C1149 C1154 1.363 . S
C1150 H1127 0.950 . S
C1150 C1149 1.397 . S
C1150 C1151 1.334 . S
C1151 H1128 0.950 . S
C1151 C1150 1.334 . S
C1151 C1152 1.287 . S
C1152 C1151 1.287 . S
C1152 C1153 1.524 . S
C1152 H1171 0.913 . S
C1153 H1129 0.950 . S
C1153 C1152 1.524 . S
C1153 C1154 1.415 . S
C1154 H1130 0.950 . S
C1154 C1149 1.363 . S
C1154 C1153 1.415 . S
C1155 H1131 0.951 . S
C1155 C1156 1.366 . S
C1155 C1157 1.388 . S
C1156 C1155 1.366 . S
C1156 C1160 1.385 . S
C1157 H1132 0.951 . S
C1157 C1155 1.388 . S
C1157 C1158 1.366 . S
C1158 C1157 1.366 . S
C1158 C1159 1.414 . S
C1158 C1161 1.499 . S
C1159 H1133 0.950 . S
C1159 C1158 1.414 . S
C1159 C1160 1.374 . S
C1160 H1134 0.950 . S
C1160 C1156 1.385 . S
C1160 C1159 1.374 . S
C1161 C1158 1.499 . S
C1161 C1162 1.373 . S
C1161 C1163 1.389 . S
C1162 H1135 0.950 . S
C1162 C1148 1.377 . S
C1162 C1161 1.373 . S
C1163 C1147 1.377 . S
C1163 C1161 1.389 . S
C1163 C1164 1.524 . S
C1164 C1163 1.524 . S
C1164 C1165 1.397 . S
C1164 C1169 1.363 . S
C1165 H1136 0.950 . S
C1165 C1164 1.397 . S
C1165 C1166 1.334 . S
C1166 H1137 0.950 . S
C1166 C1165 1.334 . S
C1166 C1167 1.287 . S
C1167 C1166 1.287 . S
C1167 C1168 1.524 . S
C1167 H1170 0.999 . S
C1168 H1138 0.950 . S
C1168 C1167 1.524 . S
C1168 C1169 1.415 . S
C1169 H1139 0.950 . S
C1169 C1164 1.363 . S
C1169 C1168 1.415 . S
H1170 C1167 0.999 . S
H1171 C1152 0.913 . S
H1172 C1190 0.951 . S
H1173 C1192 0.951 . S
H1174 C1194 0.950 . S
H1175 C1195 0.950 . S
H1176 C1197 0.950 . S
H1177 C1200 0.950 . S
H1178 C1201 0.950 . S
H1179 C1203 0.950 . S
H1180 C1204 0.950 . S
H1181 C1205 0.951 . S
H1182 C1207 0.951 . S
H1183 C1209 0.950 . S
H1184 C1210 0.950 . S
H1185 C1212 0.950 . S
H1186 C1215 0.950 . S
H1187 C1216 0.950 . S
H1188 C1218 0.950 . S
H1189 C1219 0.950 . S
C1190 H1172 0.951 . S
C1190 C1191 1.366 . S
C1190 C1192 1.388 . S
C1191 C1190 1.366 . S
C1191 C1195 1.385 . S
C1192 H1173 0.951 . S
C1192 C1190 1.388 . S
C1192 C1193 1.366 . S
C1193 C1192 1.366 . S
C1193 C1194 1.414 . S
C1193 C1196 1.499 . S
C1194 H1174 0.950 . S
C1194 C1193 1.414 . S
C1194 C1195 1.374 . S
C1195 H1175 0.950 . S
C1195 C1191 1.385 . S
C1195 C1194 1.374 . S
C1196 C1193 1.499 . S
C1196 C1197 1.373 . S
C1196 C1198 1.389 . S
C1197 H1176 0.950 . S
C1197 C1196 1.373 . S
C1197 C1213 1.377 . S
C1198 C1196 1.389 . S
C1198 C1199 1.524 . S
C1198 C1212 1.377 . S
C1199 C1198 1.524 . S
C1199 C1200 1.397 . S
C1199 C1204 1.363 . S
C1200 H1177 0.950 . S
C1200 C1199 1.397 . S
C1200 C1201 1.334 . S
C1201 H1178 0.950 . S
C1201 C1200 1.334 . S
C1201 C1202 1.287 . S
C1202 C1201 1.287 . S
C1202 C1203 1.524 . S
C1202 H1221 0.913 . S
C1203 H1179 0.950 . S
C1203 C1202 1.524 . S
C1203 C1204 1.415 . S
C1204 H1180 0.950 . S
C1204 C1199 1.363 . S
C1204 C1203 1.415 . S
C1205 H1181 0.951 . S
C1205 C1206 1.366 . S
C1205 C1207 1.388 . S
C1206 C1205 1.366 . S
C1206 C1210 1.385 . S
C1207 H1182 0.951 . S
C1207 C1205 1.388 . S
C1207 C1208 1.366 . S
C1208 C1207 1.366 . S
C1208 C1209 1.414 . S
C1208 C1211 1.499 . S
C1209 H1183 0.950 . S
C1209 C1208 1.414 . S
C1209 C1210 1.374 . S
C1210 H1184 0.950 . S
C1210 C1206 1.385 . S
C1210 C1209 1.374 . S
C1211 C1208 1.499 . S
C1211 C1212 1.373 . S
C1211 C1213 1.389 . S
C1212 H1185 0.950 . S
C1212 C1198 1.377 . S
C1212 C1211 1.373 . S
C1213 C1197 1.377 . S
C1213 C1211 1.389 . S
C1213 C1214 1.524 . S
C1214 C1213 1.524 . S
C1214 C1215 1.397 . S
C1214 C1219 1.363 . S
C1215 H1186 0.950 . S
C1215 C1214 1.397 . S
C1215 C1216 1.334 . S
C1216 H1187 0.950 . S
C1216 C1215 1.334 . S
C1216 C1217 1.287 . S
C1217 C1216 1.287 . S
C1217 C1218 1.524 . S
C1217 H1220 0.999 . S
C1218 H1188 0.950 . S
C1218 C1217 1.524 . S
C1218 C1219 1.415 . S
C1219 H1189 0.950 . S
C1219 C1214 1.363 . S
C1219 C1218 1.415 . S
H1220 C1217 0.999 . S
H1221 C1202 0.913 . S
H1222 C1240 0.951 . S
H1223 C1242 0.951 . S
H1224 C1244 0.950 . S
H1225 C1245 0.950 . S
H1226 C1247 0.950 . S
H1227 C1250 0.950 . S
H1228 C1251 0.950 . S
H1229 C1253 0.950 . S
H1230 C1254 0.950 . S
H1231 C1255 0.951 . S
H1232 C1257 0.951 . S
H1233 C1259 0.950 . S
H1234 C1260 0.950 . S
H1235 C1262 0.950 . S
H1236 C1265 0.950 . S
H1237 C1266 0.950 . S
H1238 C1268 0.950 . S
H1239 C1269 0.950 . S
C1240 H1222 0.951 . S
C1240 C1241 1.366 . S
C1240 C1242 1.388 . S
C1241 C1240 1.366 . S
C1241 C1245 1.385 . S
C1242 H1223 0.951 . S
C1242 C1240 1.388 . S
C1242 C1243 1.366 . S
C1243 C1242 1.366 . S
C1243 C1244 1.414 . S
C1243 C1246 1.499 . S
C1244 H1224 0.950 . S
C1244 C1243 1.414 . S
C1244 C1245 1.374 . S
C1245 H1225 0.950 . S
C1245 C1241 1.385 . S
C1245 C1244 1.374 . S
C1246 C1243 1.499 . S
C1246 C1247 1.373 . S
C1246 C1248 1.389 . S
C1247 H1226 0.950 . S
C1247 C1246 1.373 . S
C1247 C1263 1.377 . S
C1248 C1246 1.389 . S
C1248 C1249 1.524 . S
C1248 C1262 1.377 . S
C1249 C1248 1.524 . S
C1249 C1250 1.397 . S
C1249 C1254 1.363 . S
C1250 H1227 0.950 . S
C1250 C1249 1.397 . S
C1250 C1251 1.334 . S
C1251 H1228 0.950 . S
C1251 C1250 1.334 . S
C1251 C1252 1.287 . S
C1252 C1251 1.287 . S
C1252 C1253 1.524 . S
C1252 H1271 0.913 . S
C1253 H1229 0.950 . S
C1253 C1252 1.524 . S
C1253 C1254 1.415 . S
C1254 H1230 0.950 . S
C1254 C1249 1.363 . S
C1254 C1253 1.415 . S
C1255 H1231 0.951 . S
C1255 C1256 1.366 . S
C1255 C1257 1.388 . S
C1256 C1255 1.366 . S
C1256 C1260 1.385 . S
C1257 H1232 0.951 . S
C1257 C1255 1.388 . S
C1257 C1258 1.366 . S
C1258 C1257 1.366 . S
C1258 C1259 1.414 . S
C1258 C1261 1.499 . S
C1259 H1233 0.950 . S
C1259 C1258 1.414 . S
C1259 C1260 1.374 . S
C1260 H1234 0.950 . S
C1260 C1256 1.385 . S
C1260 C1259 1.374 . S
C1261 C1258 1.499 . S
C1261 C1262 1.373 . S
C1261 C1263 1.389 . S
C1262 H1235 0.950 . S
C1262 C1248 1.377 . S
C1262 C1261 1.373 . S
C1263 C1247 1.377 . S
C1263 C1261 1.389 . S
C1263 C1264 1.524 . S
C1264 C1263 1.524 . S
C1264 C1265 1.397 . S
C1264 C1269 1.363 . S
C1265 H1236 0.950 . S
C1265 C1264 1.397 . S
C1265 C1266 1.334 . S
C1266 H1237 0.950 . S
C1266 C1265 1.334 . S
C1266 C1267 1.287 . S
C1267 C1266 1.287 . S
C1267 C1268 1.524 . S
C1267 H1270 0.999 . S
C1268 H1238 0.950 . S
C1268 C1267 1.524 . S
C1268 C1269 1.415 . S
C1269 H1239 0.950 . S
C1269 C1264 1.363 . S
C1269 C1268 1.415 . S
H1270 C1267 0.999 . S
H1271 C1252 0.913 . S
H1272 C1290 0.951 . S
H1273 C1292 0.951 . S
H1274 C1294 0.950 . S
H1275 C1295 0.950 . S
H1276 C1297 0.950 . S
H1277 C1300 0.950 . S
H1278 C1301 0.950 . S
H1279 C1303 0.950 . S
H1280 C1304 0.950 . S
H1281 C1305 0.951 . S
H1282 C1307 0.951 . S
H1283 C1309 0.950 . S
H1284 C1310 0.950 . S
H1285 C1312 0.950 . S
H1286 C1315 0.950 . S
H1287 C1316 0.950 . S
H1288 C1318 0.950 . S
H1289 C1319 0.950 . S
C1290 H1272 0.951 . S
C1290 C1291 1.366 . S
C1290 C1292 1.388 . S
C1291 C1290 1.366 . S
C1291 C1295 1.385 . S
C1292 H1273 0.951 . S
C1292 C1290 1.388 . S
C1292 C1293 1.366 . S
C1293 C1292 1.366 . S
C1293 C1294 1.414 . S
C1293 C1296 1.499 . S
C1294 H1274 0.950 . S
C1294 C1293 1.414 . S
C1294 C1295 1.374 . S
C1295 H1275 0.950 . S
C1295 C1291 1.385 . S
C1295 C1294 1.374 . S
C1296 C1293 1.499 . S
C1296 C1297 1.373 . S
C1296 C1298 1.389 . S
C1297 H1276 0.950 . S
C1297 C1296 1.373 . S
C1297 C1313 1.377 . S
C1298 C1296 1.389 . S
C1298 C1299 1.524 . S
C1298 C1312 1.377 . S
C1299 C1298 1.524 . S
C1299 C1300 1.397 . S
C1299 C1304 1.363 . S
C1300 H1277 0.950 . S
C1300 C1299 1.397 . S
C1300 C1301 1.334 . S
C1301 H1278 0.950 . S
C1301 C1300 1.334 . S
C1301 C1302 1.287 . S
C1302 C1301 1.287 . S
C1302 C1303 1.524 . S
C1302 H1321 0.913 . S
C1303 H1279 0.950 . S
C1303 C1302 1.524 . S
C1303 C1304 1.415 . S
C1304 H1280 0.950 . S
C1304 C1299 1.363 . S
C1304 C1303 1.415 . S
C1305 H1281 0.951 . S
C1305 C1306 1.366 . S
C1305 C1307 1.388 . S
C1306 C1305 1.366 . S
C1306 C1310 1.385 . S
C1307 H1282 0.951 . S
C1307 C1305 1.388 . S
C1307 C1308 1.366 . S
C1308 C1307 1.366 . S
C1308 C1309 1.414 . S
C1308 C1311 1.499 . S
C1309 H1283 0.950 . S
C1309 C1308 1.414 . S
C1309 C1310 1.374 . S
C1310 H1284 0.950 . S
C1310 C1306 1.385 . S
C1310 C1309 1.374 . S
C1311 C1308 1.499 . S
C1311 C1312 1.373 . S
C1311 C1313 1.389 . S
C1312 H1285 0.950 . S
C1312 C1298 1.377 . S
C1312 C1311 1.373 . S
C1313 C1297 1.377 . S
C1313 C1311 1.389 . S
C1313 C1314 1.524 . S
C1314 C1313 1.524 . S
C1314 C1315 1.397 . S
C1314 C1319 1.363 . S
C1315 H1286 0.950 . S
C1315 C1314 1.397 . S
C1315 C1316 1.334 . S
C1316 H1287 0.950 . S
C1316 C1315 1.334 . S
C1316 C1317 1.287 . S
C1317 C1316 1.287 . S
C1317 C1318 1.524 . S
C1317 H1320 0.999 . S
C1318 H1288 0.950 . S
C1318 C1317 1.524 . S
C1318 C1319 1.415 . S
C1319 H1289 0.950 . S
C1319 C1314 1.363 . S
C1319 C1318 1.415 . S
H1320 C1317 0.999 . S
H1321 C1302 0.913 . S
H1322 C1340 0.951 . S
H1323 C1342 0.951 . S
H1324 C1344 0.950 . S
H1325 C1345 0.950 . S
H1326 C1347 0.950 . S
H1327 C1350 0.950 . S
H1328 C1351 0.950 . S
H1329 C1353 0.950 . S
H1330 C1354 0.950 . S
H1331 C1355 0.951 . S
H1332 C1357 0.951 . S
H1333 C1359 0.950 . S
H1334 C1360 0.950 . S
H1335 C1362 0.950 . S
H1336 C1365 0.950 . S
H1337 C1366 0.950 . S
H1338 C1368 0.950 . S
H1339 C1369 0.950 . S
C1340 H1322 0.951 . S
C1340 C1341 1.366 . S
C1340 C1342 1.388 . S
C1341 C1340 1.366 . S
C1341 C1345 1.385 . S
C1342 H1323 0.951 . S
C1342 C1340 1.388 . S
C1342 C1343 1.366 . S
C1343 C1342 1.366 . S
C1343 C1344 1.414 . S
C1343 C1346 1.499 . S
C1344 H1324 0.950 . S
C1344 C1343 1.414 . S
C1344 C1345 1.374 . S
C1345 H1325 0.950 . S
C1345 C1341 1.385 . S
C1345 C1344 1.374 . S
C1346 C1343 1.499 . S
C1346 C1347 1.373 . S
C1346 C1348 1.389 . S
C1347 H1326 0.950 . S
C1347 C1346 1.373 . S
C1347 C1363 1.377 . S
C1348 C1346 1.389 . S
C1348 C1349 1.524 . S
C1348 C1362 1.377 . S
C1349 C1348 1.524 . S
C1349 C1350 1.397 . S
C1349 C1354 1.363 . S
C1350 H1327 0.950 . S
C1350 C1349 1.397 . S
C1350 C1351 1.334 . S
C1351 H1328 0.950 . S
C1351 C1350 1.334 . S
C1351 C1352 1.287 . S
C1352 C1351 1.287 . S
C1352 C1353 1.524 . S
C1352 H1371 0.913 . S
C1353 H1329 0.950 . S
C1353 C1352 1.524 . S
C1353 C1354 1.415 . S
C1354 H1330 0.950 . S
C1354 C1349 1.363 . S
C1354 C1353 1.415 . S
C1355 H1331 0.951 . S
C1355 C1356 1.366 . S
C1355 C1357 1.388 . S
C1356 C1355 1.366 . S
C1356 C1360 1.385 . S
C1357 H1332 0.951 . S
C1357 C1355 1.388 . S
C1357 C1358 1.366 . S
C1358 C1357 1.366 . S
C1358 C1359 1.414 . S
C1358 C1361 1.499 . S
C1359 H1333 0.950 . S
C1359 C1358 1.414 . S
C1359 C1360 1.374 . S
C1360 H1334 0.950 . S
C1360 C1356 1.385 . S
C1360 C1359 1.374 . S
C1361 C1358 1.499 . S
C1361 C1362 1.373 . S
C1361 C1363 1.389 . S
C1362 H1335 0.950 . S
C1362 C1348 1.377 . S
C1362 C1361 1.373 . S
C1363 C1347 1.377 . S
C1363 C1361 1.389 . S
C1363 C1364 1.524 . S
C1364 C1363 1.524 . S
C1364 C1365 1.397 . S
C1364 C1369 1.363 . S
C1365 H1336 0.950 . S
C1365 C1364 1.397 . S
C1365 C1366 1.334 . S
C1366 H1337 0.950 . S
C1366 C1365 1.334 . S
C1366 C1367 1.287 . S
C1367 C1366 1.287 . S
C1367 C1368 1.524 . S
C1367 H1370 0.999 . S
C1368 H1338 0.950 . S
C1368 C1367 1.524 . S
C1368 C1369 1.415 . S
C1369 H1339 0.950 . S
C1369 C1364 1.363 . S
C1369 C1368 1.415 . S
H1370 C1367 0.999 . S
H1371 C1352 0.913 . S
H1372 C1390 0.951 . S
H1373 C1392 0.951 . S
H1374 C1394 0.950 . S
H1375 C1395 0.950 . S
H1376 C1397 0.950 . S
H1377 C1400 0.950 . S
H1378 C1401 0.950 . S
H1379 C1403 0.950 . S
H1380 C1404 0.950 . S
H1381 C1405 0.951 . S
H1382 C1407 0.951 . S
H1383 C1409 0.950 . S
H1384 C1410 0.950 . S
H1385 C1412 0.950 . S
H1386 C1415 0.950 . S
H1387 C1416 0.950 . S
H1388 C1418 0.950 . S
H1389 C1419 0.950 . S
C1390 H1372 0.951 . S
C1390 C1391 1.366 . S
C1390 C1392 1.388 . S
C1391 C1390 1.366 . S
C1391 C1395 1.385 . S
C1392 H1373 0.951 . S
C1392 C1390 1.388 . S
C1392 C1393 1.366 . S
C1393 C1392 1.366 . S
C1393 C1394 1.414 . S
C1393 C1396 1.499 . S
C1394 H1374 0.950 . S
C1394 C1393 1.414 . S
C1394 C1395 1.374 . S
C1395 H1375 0.950 . S
C1395 C1391 1.385 . S
C1395 C1394 1.374 . S
C1396 C1393 1.499 . S
C1396 C1397 1.373 . S
C1396 C1398 1.389 . S
C1397 H1376 0.950 . S
C1397 C1396 1.373 . S
C1397 C1413 1.377 . S
C1398 C1396 1.389 . S
C1398 C1399 1.524 . S
C1398 C1412 1.377 . S
C1399 C1398 1.524 . S
C1399 C1400 1.397 . S
C1399 C1404 1.363 . S
C1400 H1377 0.950 . S
C1400 C1399 1.397 . S
C1400 C1401 1.334 . S
C1401 H1378 0.950 . S
C1401 C1400 1.334 . S
C1401 C1402 1.287 . S
C1402 C1401 1.287 . S
C1402 C1403 1.524 . S
C1402 H1421 0.913 . S
C1403 H1379 0.950 . S
C1403 C1402 1.524 . S
C1403 C1404 1.415 . S
C1404 H1380 0.950 . S
C1404 C1399 1.363 . S
C1404 C1403 1.415 . S
C1405 H1381 0.951 . S
C1405 C1406 1.366 . S
C1405 C1407 1.388 . S
C1406 C1405 1.366 . S
C1406 C1410 1.385 . S
C1407 H1382 0.951 . S
C1407 C1405 1.388 . S
C1407 C1408 1.366 . S
C1408 C1407 1.366 . S
C1408 C1409 1.414 . S
C1408 C1411 1.499 . S
C1409 H1383 0.950 . S
C1409 C1408 1.414 . S
C1409 C1410 1.374 . S
C1410 H1384 0.950 . S
C1410 C1406 1.385 . S
C1410 C1409 1.374 . S
C1411 C1408 1.499 . S
C1411 C1412 1.373 . S
C1411 C1413 1.389 . S
C1412 H1385 0.950 . S
C1412 C1398 1.377 . S
C1412 C1411 1.373 . S
C1413 C1397 1.377 . S
C1413 C1411 1.389 . S
C1413 C1414 1.524 . S
C1414 C1413 1.524 . S
C1414 C1415 1.397 . S
C1414 C1419 1.363 . S
C1415 H1386 0.950 . S
C1415 C1414 1.397 . S
C1415 C1416 1.334 . S
C1416 H1387 0.950 . S
C1416 C1415 1.334 . S
C1416 C1417 1.287 . S
C1417 C1416 1.287 . S
C1417 C1418 1.524 . S
C1417 H1420 0.999 . S
C1418 H1388 0.950 . S
C1418 C1417 1.524 . S
C1418 C1419 1.415 . S
C1419 H1389 0.950 . S
C1419 C1414 1.363 . S
C1419 C1418 1.415 . S
H1420 C1417 0.999 . S
H1421 C1402 0.913 . S
H1422 C1440 0.951 . S
H1423 C1442 0.951 . S
H1424 C1444 0.950 . S
H1425 C1445 0.950 . S
H1426 C1447 0.950 . S
H1427 C1450 0.950 . S
H1428 C1451 0.950 1_556 S
H1429 C1453 0.950 . S
H1430 C1454 0.950 . S
H1431 C1455 0.951 . S
H1432 C1457 0.951 . S
H1433 C1459 0.950 . S
H1434 C1460 0.950 . S
H1435 C1462 0.950 . S
H1436 C1465 0.950 . S
H1437 C1466 0.950 . S
H1438 C1468 0.950 . S
H1439 C1469 0.950 . S
C1440 H1422 0.951 . S
C1440 C1441 1.366 . S
C1440 C1442 1.388 . S
C1441 C1440 1.366 . S
C1441 C1445 1.385 . S
C1442 H1423 0.951 . S
C1442 C1440 1.388 . S
C1442 C1443 1.366 . S
C1443 C1442 1.366 . S
C1443 C1444 1.414 . S
C1443 C1446 1.499 . S
C1444 H1424 0.950 . S
C1444 C1443 1.414 . S
C1444 C1445 1.374 . S
C1445 H1425 0.950 . S
C1445 C1441 1.385 . S
C1445 C1444 1.374 . S
C1446 C1443 1.499 . S
C1446 C1447 1.373 . S
C1446 C1448 1.389 . S
C1447 H1426 0.950 . S
C1447 C1446 1.373 . S
C1447 C1463 1.377 . S
C1448 C1446 1.389 . S
C1448 C1449 1.524 . S
C1448 C1462 1.377 . S
C1449 C1448 1.524 . S
C1449 C1450 1.397 . S
C1449 C1454 1.363 . S
C1450 H1427 0.950 . S
C1450 C1449 1.397 . S
C1450 C1451 1.334 . S
C1451 H1428 0.950 1_554 S
C1451 C1450 1.334 . S
C1451 C1452 1.287 . S
C1452 C1451 1.287 . S
C1452 C1453 1.524 . S
C1452 H1471 0.913 . S
C1453 H1429 0.950 . S
C1453 C1452 1.524 . S
C1453 C1454 1.415 . S
C1454 H1430 0.950 . S
C1454 C1449 1.363 . S
C1454 C1453 1.415 . S
C1455 H1431 0.951 . S
C1455 C1456 1.366 . S
C1455 C1457 1.388 . S
C1456 C1455 1.366 . S
C1456 C1460 1.385 . S
C1457 H1432 0.951 . S
C1457 C1455 1.388 . S
C1457 C1458 1.366 . S
C1458 C1457 1.366 . S
C1458 C1459 1.414 . S
C1458 C1461 1.499 . S
C1459 H1433 0.950 . S
C1459 C1458 1.414 . S
C1459 C1460 1.374 . S
C1460 H1434 0.950 . S
C1460 C1456 1.385 . S
C1460 C1459 1.374 . S
C1461 C1458 1.499 . S
C1461 C1462 1.373 . S
C1461 C1463 1.389 . S
C1462 H1435 0.950 . S
C1462 C1448 1.377 . S
C1462 C1461 1.373 . S
C1463 C1447 1.377 . S
C1463 C1461 1.389 . S
C1463 C1464 1.524 . S
C1464 C1463 1.524 . S
C1464 C1465 1.397 . S
C1464 C1469 1.363 . S
C1465 H1436 0.950 . S
C1465 C1464 1.397 . S
C1465 C1466 1.334 . S
C1466 H1437 0.950 . S
C1466 C1465 1.334 . S
C1466 C1467 1.287 . S
C1467 C1466 1.287 . S
C1467 C1468 1.524 . S
C1467 H1470 0.999 . S
C1468 H1438 0.950 . S
C1468 C1467 1.524 . S
C1468 C1469 1.415 . S
C1469 H1439 0.950 . S
C1469 C1464 1.363 . S
C1469 C1468 1.415 . S
H1470 C1467 0.999 . S
H1471 C1452 0.913 . S
H1472 C1490 0.951 . S
H1473 C1492 0.951 . S
H1474 C1494 0.950 . S
H1475 C1495 0.950 . S
H1476 C1497 0.950 . S
H1477 C1500 0.950 . S
H1478 C1501 0.950 . S
H1479 C1503 0.950 . S
H1480 C1504 0.950 . S
H1481 C1505 0.951 . S
H1482 C1507 0.951 . S
H1483 C1509 0.950 . S
H1484 C1510 0.950 . S
H1485 C1512 0.950 . S
H1486 C1515 0.950 . S
H1487 C1516 0.950 . S
H1488 C1518 0.950 . S
H1489 C1519 0.950 . S
C1490 H1472 0.951 . S
C1490 C1491 1.366 . S
C1490 C1492 1.388 . S
C1491 C1490 1.366 . S
C1491 C1495 1.385 . S
C1492 H1473 0.951 . S
C1492 C1490 1.388 . S
C1492 C1493 1.366 . S
C1493 C1492 1.366 . S
C1493 C1494 1.414 . S
C1493 C1496 1.499 . S
C1494 H1474 0.950 . S
C1494 C1493 1.414 . S
C1494 C1495 1.374 . S
C1495 H1475 0.950 . S
C1495 C1491 1.385 . S
C1495 C1494 1.374 . S
C1496 C1493 1.499 . S
C1496 C1497 1.373 . S
C1496 C1498 1.389 . S
C1497 H1476 0.950 . S
C1497 C1496 1.373 . S
C1497 C1513 1.377 . S
C1498 C1496 1.389 . S
C1498 C1499 1.524 . S
C1498 C1512 1.377 . S
C1499 C1498 1.524 . S
C1499 C1500 1.397 . S
C1499 C1504 1.363 . S
C1500 H1477 0.950 . S
C1500 C1499 1.397 . S
C1500 C1501 1.334 . S
C1501 H1478 0.950 . S
C1501 C1500 1.334 . S
C1501 C1502 1.287 . S
C1502 C1501 1.287 . S
C1502 C1503 1.524 . S
C1502 H1521 0.913 . S
C1503 H1479 0.950 . S
C1503 C1502 1.524 . S
C1503 C1504 1.415 . S
C1504 H1480 0.950 . S
C1504 C1499 1.363 . S
C1504 C1503 1.415 . S
C1505 H1481 0.951 . S
C1505 C1506 1.366 . S
C1505 C1507 1.388 . S
C1506 C1505 1.366 . S
C1506 C1510 1.385 . S
C1507 H1482 0.951 . S
C1507 C1505 1.388 . S
C1507 C1508 1.366 . S
C1508 C1507 1.366 . S
C1508 C1509 1.414 . S
C1508 C1511 1.499 . S
C1509 H1483 0.950 . S
C1509 C1508 1.414 . S
C1509 C1510 1.374 . S
C1510 H1484 0.950 . S
C1510 C1506 1.385 . S
C1510 C1509 1.374 . S
C1511 C1508 1.499 . S
C1511 C1512 1.373 . S
C1511 C1513 1.389 . S
C1512 H1485 0.950 . S
C1512 C1498 1.377 . S
C1512 C1511 1.373 . S
C1513 C1497 1.377 . S
C1513 C1511 1.389 . S
C1513 C1514 1.524 . S
C1514 C1513 1.524 . S
C1514 C1515 1.397 . S
C1514 C1519 1.363 . S
C1515 H1486 0.950 . S
C1515 C1514 1.397 . S
C1515 C1516 1.334 . S
C1516 H1487 0.950 . S
C1516 C1515 1.334 . S
C1516 C1517 1.287 . S
C1517 C1516 1.287 . S
C1517 C1518 1.524 . S
C1517 H1520 0.999 . S
C1518 H1488 0.950 . S
C1518 C1517 1.524 . S
C1518 C1519 1.415 . S
C1519 H1489 0.950 . S
C1519 C1514 1.363 . S
C1519 C1518 1.415 . S
H1520 C1517 0.999 . S
H1521 C1502 0.913 . S
H1522 C1540 0.951 . S
H1523 C1542 0.951 . S
H1524 C1544 0.950 . S
H1525 C1545 0.950 . S
H1526 C1547 0.950 . S
H1527 C1550 0.950 . S
H1528 C1551 0.950 1_556 S
H1529 C1553 0.950 . S
H1530 C1554 0.950 . S
H1531 C1555 0.951 . S
H1532 C1557 0.951 . S
H1533 C1559 0.950 . S
H1534 C1560 0.950 . S
H1535 C1562 0.950 . S
H1536 C1565 0.950 . S
H1537 C1566 0.950 . S
H1538 C1568 0.950 . S
H1539 C1569 0.950 . S
C1540 H1522 0.951 . S
C1540 C1541 1.366 . S
C1540 C1542 1.388 . S
C1541 C1540 1.366 . S
C1541 C1545 1.385 . S
C1542 H1523 0.951 . S
C1542 C1540 1.388 . S
C1542 C1543 1.366 . S
C1543 C1542 1.366 . S
C1543 C1544 1.414 . S
C1543 C1546 1.499 . S
C1544 H1524 0.950 . S
C1544 C1543 1.414 . S
C1544 C1545 1.374 . S
C1545 H1525 0.950 . S
C1545 C1541 1.385 . S
C1545 C1544 1.374 . S
C1546 C1543 1.499 . S
C1546 C1547 1.373 . S
C1546 C1548 1.389 . S
C1547 H1526 0.950 . S
C1547 C1546 1.373 . S
C1547 C1563 1.377 . S
C1548 C1546 1.389 . S
C1548 C1549 1.524 . S
C1548 C1562 1.377 . S
C1549 C1548 1.524 . S
C1549 C1550 1.397 . S
C1549 C1554 1.363 . S
C1550 H1527 0.950 . S
C1550 C1549 1.397 . S
C1550 C1551 1.334 . S
C1551 H1528 0.950 1_554 S
C1551 C1550 1.334 . S
C1551 C1552 1.287 . S
C1552 C1551 1.287 . S
C1552 C1553 1.524 . S
C1552 H1571 0.913 1_554 S
C1553 H1529 0.950 . S
C1553 C1552 1.524 . S
C1553 C1554 1.415 . S
C1554 H1530 0.950 . S
C1554 C1549 1.363 . S
C1554 C1553 1.415 . S
C1555 H1531 0.951 . S
C1555 C1556 1.366 . S
C1555 C1557 1.388 . S
C1556 C1555 1.366 . S
C1556 C1560 1.385 . S
C1557 H1532 0.951 . S
C1557 C1555 1.388 . S
C1557 C1558 1.366 . S
C1558 C1557 1.366 . S
C1558 C1559 1.414 . S
C1558 C1561 1.499 . S
C1559 H1533 0.950 . S
C1559 C1558 1.414 . S
C1559 C1560 1.374 . S
C1560 H1534 0.950 . S
C1560 C1556 1.385 . S
C1560 C1559 1.374 . S
C1561 C1558 1.499 . S
C1561 C1562 1.373 . S
C1561 C1563 1.389 . S
C1562 H1535 0.950 . S
C1562 C1548 1.377 . S
C1562 C1561 1.373 . S
C1563 C1547 1.377 . S
C1563 C1561 1.389 . S
C1563 C1564 1.524 . S
C1564 C1563 1.524 . S
C1564 C1565 1.397 . S
C1564 C1569 1.363 . S
C1565 H1536 0.950 . S
C1565 C1564 1.397 . S
C1565 C1566 1.334 . S
C1566 H1537 0.950 . S
C1566 C1565 1.334 . S
C1566 C1567 1.287 . S
C1567 C1566 1.287 . S
C1567 C1568 1.524 . S
C1567 H1570 0.999 . S
C1568 H1538 0.950 . S
C1568 C1567 1.524 . S
C1568 C1569 1.415 . S
C1569 H1539 0.950 . S
C1569 C1564 1.363 . S
C1569 C1568 1.415 . S
H1570 C1567 0.999 . S
H1571 C1552 0.913 1_556 S
C391 C13 1.738 . S
C406 C105 1.719 . S
C441 C27 1.732 . S
C456 C162 1.728 . S
C506 C216 1.699 . S
C491 C29 1.737 . S
C556 C273 1.675 . S
C541 C54 1.733 . S
C606 C297 1.718 . S
C591 C69 1.737 . S
C656 C354 1.728 . S
C641 C83 1.732 . S
C691 C15 1.737 . S
C706 C201 1.718 . S
C741 C41 1.732 . S
C756 C258 1.729 . S
C806 C312 1.699 . S
C791 C42 1.737 . S
C856 C369 1.674 . S
C841 C57 1.732 . S
C891 C71 1.738 . S
C906 C120 1.699 . S
C956 C177 1.674 . S
C941 C1 1.732 . S
C1006 C264 1.718 . S
C991 C12 1.737 . S
C1041 C26 1.732 . S
C1056 C306 1.674 . S
C1106 C345 1.699 . S
C1091 C28 1.737 . S
C1141 C55 1.732 . S
C1156 C114 1.673 . S
C1191 C68 1.738 . S
C1206 C153 1.699 . S
C1241 C82 1.732 . S
C1256 C225 1.729 . S
C1291 C14 1.737 . S
C1306 C360 1.718 . S
C1356 C129 1.728 . S
C1341 C40 1.732 . S
C1391 C43 1.738 . S
C1406 C168 1.718 . S
C1441 C56 1.732 . S
C1456 C210 1.674 . S
C1491 C70 1.737 . S
C1506 C249 1.698 . S
C1541 C0 1.732 . S
C1556 C321 1.729 . S
