# Generated by pormake.
# Topology pth, (4,4)-cn, num edge types: 1
# Building blocks:
#     Node 0, Type 0, BuildingBlock: TATPOV_clean_sbu_0, # of connection points: 4
#     Node 1, Type 0, BuildingBlock: TATPOV_clean_sbu_0, # of connection points: 4
#     Node 2, Type 0, BuildingBlock: TATPOV_clean_sbu_0, # of connection points: 4
#     Node 3, Type 1, BuildingBlock: AZAVOO_clean_linker_0, # of connection points: 4
#     Node 4, Type 1, BuildingBlock: AZAVOO_clean_linker_0, # of connection points: 4
#     Node 5, Type 1, BuildingBlock: AZAVOO_clean_linker_0, # of connection points: 4
#     Edge 6, Type (0, 1), BuildingBlock: EZIPEK_clean_linker_0, # of connection points: 2
#     Edge 7, Type (0, 1), BuildingBlock: EZIPEK_clean_linker_0, # of connection points: 2
#     Edge 8, Type (0, 1), BuildingBlock: EZIPEK_clean_linker_0, # of connection points: 2
#     Edge 9, Type (0, 1), BuildingBlock: EZIPEK_clean_linker_0, # of connection points: 2
#     Edge 10, Type (0, 1), BuildingBlock: EZIPEK_clean_linker_0, # of connection points: 2
#     Edge 11, Type (0, 1), BuildingBlock: EZIPEK_clean_linker_0, # of connection points: 2
#     Edge 12, Type (0, 1), BuildingBlock: EZIPEK_clean_linker_0, # of connection points: 2
#     Edge 13, Type (0, 1), BuildingBlock: EZIPEK_clean_linker_0, # of connection points: 2
#     Edge 14, Type (0, 1), BuildingBlock: EZIPEK_clean_linker_0, # of connection points: 2
#     Edge 15, Type (0, 1), BuildingBlock: EZIPEK_clean_linker_0, # of connection points: 2
#     Edge 16, Type (0, 1), BuildingBlock: EZIPEK_clean_linker_0, # of connection points: 2
#     Edge 17, Type (0, 1), BuildingBlock: EZIPEK_clean_linker_0, # of connection points: 2
# Relax obj value: 0.166
# Max RMSD: 0.229
# Mean RMSD: 0.205
data_MOF--net-pth--node1-TATPOV_clean_sbu_0--node2-AZAVOO_clean_linker_0--edge1-EZIPEK_clean_linker_0
_symmetry_space_group_name_H-M    P1
_symmetry_Int_Tables_number       1
_symmetry_cell_setting            triclinic
loop_
_symmetry_equiv_pos_as_xyz
'x, y, z'
_cell_length_a     20.570198
_cell_length_b     20.450868
_cell_length_c     53.646169
_cell_angle_alpha  94.15296
_cell_angle_beta   91.454191
_cell_angle_gamma 121.43301
loop_
_atom_site_label
_atom_site_type_symbol
_atom_site_fract_x
_atom_site_fract_y
_atom_site_fract_z
_atom_type_partial_charge
Zn0 Zn 0.20866 0.98481 0.0284 0.0
Zn1 Zn 0.18153 0.07102 0.06229 0.0
O2 O 0.15253 0.97273 0.07822 0.0
O3 O 0.16741 0.89745 0.05057 0.0
O4 O 0.15891 0.12886 0.08894 0.0
O5 O 0.31981 0.07133 0.03198 0.0
O6 O 0.29398 0.14272 0.05715 0.0
C7 C 0.1481 0.90937 0.07183 0.0
C8 C 0.10176 0.0252 0.00973 0.0
O9 O 0.11229 0.05719 0.0319 0.0
O10 O 0.13629 0.99078 0.00362 0.0
C11 C 0.17756 0.13084 0.11189 0.0
O12 O 0.21482 0.09761 0.11814 0.0
C13 C 0.3421 0.13455 0.04505 0.0
Zn14 Zn 0.15339 0.03239 0.35821 0.0
Zn15 Zn 0.05679 0.02096 0.39397 0.0
O16 O 0.16129 0.06422 0.41218 0.0
O17 O 0.24164 0.07244 0.38441 0.0
O18 O 0.99588 0.01978 0.42263 0.0
O19 O 0.129 0.10411 0.34183 0.0
O20 O 0.04576 0.08803 0.3696 0.0
C21 C 0.22762 0.08021 0.40689 0.0
C22 C 0.02442 0.87666 0.36299 0.0
O23 O 0.00596 0.90791 0.38048 0.0
O24 O 0.08216 0.91668 0.35087 0.0
C25 C -0.00032 0.99015 0.44223 0.0
O26 O 0.03915 0.95642 0.44284 0.0
C27 C 0.07902 0.1169 0.35003 0.0
Zn28 Zn 0.18652 0.97565 0.76398 0.0
Zn29 Zn 0.09671 0.99383 0.73126 0.0
O30 O 0.16155 0.96747 0.70875 0.0
O31 O 0.23772 0.95611 0.73541 0.0
O32 O 0.02025 0.99636 0.70772 0.0
O33 O 0.09555 0.89266 0.77974 0.0
O34 O 0.02536 0.91705 0.75494 0.0
C35 C 0.21713 0.95782 0.71315 0.0
C36 C 0.2112 0.12974 0.7669 0.0
O37 O 0.16093 0.10363 0.74854 0.0
O38 O 0.22927 0.08665 0.77691 0.0
C39 C 0.03725 0.03802 0.68966 0.0
O40 O 0.1091 0.08228 0.68493 0.0
C41 C 0.03127 0.88203 0.7727 0.0
H42 H 0.07647 0.40524 0.06203 0.0
H43 H 0.99279 0.91794 0.26426 0.0
H44 H 0.92145 0.28939 0.19031 0.0
H45 H 0.96465 0.21008 0.16881 0.0
H46 H 0.19381 0.36784 0.20149 0.0
H47 H 0.15093 0.44826 0.2224 0.0
H48 H 0.92915 0.38095 0.1557 0.0
H49 H 0.96978 0.37323 0.11364 0.0
H50 H 0.19913 0.55906 0.13833 0.0
H51 H 0.15793 0.56509 0.18039 0.0
H52 H 0.91149 0.51458 0.16052 0.0
H53 H 0.94111 0.60114 0.1273 0.0
H54 H 0.14909 0.77331 0.1702 0.0
H55 H 0.12087 0.68612 0.20286 0.0
H56 H 0.85629 0.55493 0.21687 0.0
H57 H 0.83832 0.66373 0.22512 0.0
H58 H 0.06882 0.80179 0.25954 0.0
H59 H 0.0865 0.69338 0.25064 0.0
H60 H 0.84713 0.44734 0.26771 0.0
H61 H 0.82665 0.51049 0.30495 0.0
H62 H 0.07005 0.67001 0.3168 0.0
H63 H 0.09043 0.60315 0.28117 0.0
H64 H 0.88421 0.30465 0.25105 0.0
H65 H 0.89672 0.2233 0.28015 0.0
H66 H 0.13238 0.40179 0.29909 0.0
H67 H 0.11935 0.48331 0.27038 0.0
O68 O 0.06167 0.40897 0.07881 0.0
O69 O 0.17827 0.50559 0.09235 0.0
O70 O 0.88244 0.80286 0.241 0.0
O71 O -0.00159 0.87416 0.26062 0.0
C72 C 0.01252 0.43244 0.21454 0.0
C73 C 0.0156 0.48014 0.19628 0.0
C74 C 0.00181 0.53966 0.20262 0.0
C75 C 0.98441 0.55139 0.22713 0.0
C76 C 0.98194 0.50402 0.24553 0.0
C77 C 0.99657 0.44494 0.23927 0.0
C78 C 0.03317 0.37442 0.20782 0.0
C79 C 0.98038 0.30536 0.1935 0.0
C80 C 0.00498 0.26038 0.18124 0.0
C81 C 0.08243 0.28376 0.18344 0.0
C82 C 0.13386 0.34913 0.19963 0.0
C83 C 0.10941 0.39462 0.21161 0.0
C84 C 0.0408 0.47304 0.17106 0.0
C85 C 0.98829 0.41927 0.15202 0.0
C86 C 0.01158 0.41534 0.128 0.0
C87 C 0.0877 0.46563 0.1226 0.0
C88 C 0.14011 0.51952 0.14183 0.0
C89 C 0.11685 0.52294 0.16587 0.0
C90 C 0.01373 0.59459 0.18413 0.0
C91 C 0.96284 0.57139 0.16284 0.0
C92 C 0.97966 0.62044 0.14399 0.0
C93 C 0.0471 0.69333 0.14646 0.0
C94 C 0.09667 0.71732 0.16812 0.0
C95 C 0.08033 0.66802 0.18676 0.0
C96 C 0.97212 0.61586 0.23359 0.0
C97 C 0.90256 0.60859 0.22634 0.0
C98 C 0.89264 0.67091 0.23096 0.0
C99 C 0.95223 0.74154 0.24298 0.0
C100 C 0.02174 0.74829 0.2503 0.0
C101 C 0.03174 0.68619 0.24546 0.0
C102 C 0.9702 0.52187 0.2716 0.0
C103 C 0.89604 0.49336 0.27917 0.0
C104 C 0.8844 0.52968 0.30022 0.0
C105 C 0.94663 0.59707 0.3128 0.0
C106 C 0.0211 0.61923 0.30695 0.0
C107 C 0.03283 0.58102 0.28669 0.0
C108 C 0.00085 0.39966 0.25877 0.0
C109 C 0.93797 0.3266 0.26188 0.0
C110 C 0.94513 0.28042 0.27836 0.0
C111 C 0.01555 0.30668 0.29161 0.0
C112 C 0.07767 0.3808 0.28904 0.0
C113 C 0.07026 0.42713 0.27276 0.0
C114 C 0.11222 0.46155 0.09705 0.0
C115 C 0.94203 0.80788 0.24804 0.0
H116 H 0.77912 0.12399 0.40596 0.0
H117 H 0.23381 0.15492 0.59039 0.0
H118 H 0.68044 0.94938 0.55342 0.0
H119 H 0.76476 0.91778 0.53128 0.0
H120 H 0.91065 0.15616 0.5183 0.0
H121 H 0.82931 0.18882 0.54204 0.0
H122 H 0.63903 0.00294 0.49861 0.0
H123 H 0.68793 0.03113 0.45709 0.0
H124 H 0.78135 0.2737 0.47783 0.0
H125 H 0.731 0.24449 0.51913 0.0
H126 H 0.50846 0.00629 0.50065 0.0
H127 H 0.42992 0.01615 0.46796 0.0
H128 H 0.4831 0.23522 0.50449 0.0
H129 H 0.56558 0.22714 0.53676 0.0
H130 H 0.40715 0.97288 0.54891 0.0
H131 H 0.28993 0.97482 0.55325 0.0
H132 H 0.422 0.20242 0.5932 0.0
H133 H 0.5385 0.19891 0.58914 0.0
H134 H 0.46641 0.92417 0.58749 0.0
H135 H 0.37421 0.88689 0.61971 0.0
H136 H 0.52106 0.10717 0.66228 0.0
H137 H 0.61228 0.14531 0.62955 0.0
H138 H 0.62623 0.93852 0.59994 0.0
H139 H 0.71472 0.92577 0.62822 0.0
H140 H 0.87496 0.17062 0.63175 0.0
H141 H 0.7874 0.18323 0.60347 0.0
O142 O 0.75962 0.11416 0.42238 0.0
O143 O 0.80428 0.23802 0.4336 0.0
O144 O 0.21436 0.03672 0.56701 0.0
O145 O 0.27919 0.15249 0.5885 0.0
C146 C 0.68619 0.08514 0.5556 0.0
C147 C 0.65122 0.10449 0.53687 0.0
C148 C 0.58482 0.10561 0.54155 0.0
C149 C 0.55245 0.08638 0.56474 0.0
C150 C 0.587 0.06676 0.58351 0.0
C151 C 0.65583 0.06945 0.57932 0.0
C152 C 0.74802 0.07127 0.54897 0.0
C153 C 0.73262 0.99552 0.54695 0.0
C154 C 0.78031 0.97733 0.53417 0.0
C155 C 0.84236 0.03432 0.52259 0.0
C156 C 0.86226 0.11131 0.52684 0.0
C157 C 0.81589 0.12988 0.54031 0.0
C158 C 0.68243 0.12178 0.51191 0.0
C159 C 0.67055 0.06212 0.49417 0.0
C160 C 0.69848 0.0784 0.4705 0.0
C161 C 0.73926 0.15472 0.46424 0.0
C162 C 0.75054 0.21433 0.48208 0.0
C163 C 0.72199 0.19787 0.50567 0.0
C164 C 0.54296 0.11621 0.52092 0.0
C165 C 0.50511 0.0575 0.50124 0.0
C166 C 0.4603 0.06303 0.48269 0.0
C167 C 0.45132 0.12656 0.48385 0.0
C168 C 0.49027 0.18627 0.50325 0.0
C169 C 0.53662 0.18141 0.52163 0.0
C170 C 0.48092 0.08539 0.56896 0.0
C171 C 0.41035 0.02261 0.55887 0.0
C172 C 0.34365 0.0241 0.56126 0.0
C173 C 0.3466 0.08882 0.57359 0.0
C174 C 0.41769 0.15172 0.5836 0.0
C175 C 0.48421 0.1497 0.58147 0.0
C176 C 0.54606 0.03735 0.60627 0.0
C177 C 0.48011 0.96325 0.60424 0.0
C178 C 0.42745 0.94206 0.62253 0.0
C179 C 0.44077 0.99433 0.6433 0.0
C180 C 0.51007 0.06597 0.64641 0.0
C181 C 0.56226 0.08759 0.62789 0.0
C182 C 0.70036 0.06186 0.59981 0.0
C183 C 0.67955 0.98952 0.60734 0.0
C184 C 0.73003 0.98222 0.62324 0.0
C185 C 0.80125 0.04732 0.63185 0.0
C186 C 0.82024 0.11994 0.62525 0.0
C187 C 0.77024 0.12711 0.60929 0.0
C188 C 0.76973 0.17178 0.43919 0.0
C189 C 0.27594 0.09082 0.5761 0.0
H190 H 0.76101 0.80076 0.06935 0.0
H191 H 0.24339 0.07126 0.90652 0.0
H192 H 0.66946 0.78099 0.92162 0.0
H193 H 0.77964 0.9067 0.93855 0.0
H194 H 0.92387 0.81162 0.93435 0.0
H195 H 0.81535 0.68844 0.91563 0.0
H196 H 0.58447 0.6642 0.97263 0.0
H197 H 0.64097 0.72463 0.01497 0.0
H198 H 0.83403 0.70082 0.00082 0.0
H199 H 0.77621 0.63918 0.95882 0.0
H200 H 0.44696 0.46676 0.95949 0.0
H201 H 0.41249 0.37848 0.99226 0.0
H202 H 0.63764 0.41166 0.99427 0.0
H203 H 0.66996 0.49469 0.96019 0.0
H204 H 0.39061 0.44814 0.90222 0.0
H205 H 0.27915 0.31683 0.89934 0.0
H206 H 0.42753 0.23065 0.91369 0.0
H207 H 0.53847 0.36221 0.91648 0.0
H208 H 0.48167 0.57091 0.86146 0.0
H209 H 0.39002 0.49094 0.82561 0.0
H210 H 0.4638 0.3289 0.82809 0.0
H211 H 0.55591 0.40913 0.86349 0.0
H212 H 0.65536 0.73426 0.86952 0.0
H213 H 0.74551 0.79833 0.83745 0.0
H214 H 0.79282 0.61589 0.8318 0.0
H215 H 0.70347 0.55231 0.86381 0.0
O216 O 0.73963 0.77674 0.05255 0.0
O217 O 0.8379 0.76377 0.0442 0.0
O218 O 0.21281 0.17097 0.90003 0.0
O219 O 0.28645 0.12376 0.90766 0.0
C220 C 0.66699 0.64659 0.91547 0.0
C221 C 0.64022 0.6085 0.93729 0.0
C222 C 0.57904 0.53127 0.93522 0.0
C223 C 0.53981 0.49459 0.91162 0.0
C224 C 0.56627 0.53326 0.88984 0.0
C225 C 0.63236 0.60763 0.89165 0.0
C226 C 0.73462 0.72566 0.91802 0.0
C227 C 0.72565 0.78859 0.92326 0.0
C228 C 0.7882 0.85992 0.93296 0.0
C229 C 0.85877 0.86706 0.93865 0.0
C230 C 0.86935 0.80659 0.9306 0.0
C231 C 0.80765 0.73645 0.91995 0.0
C232 C 0.67687 0.64862 0.9625 0.0
C233 C 0.63917 0.67256 0.97868 0.0
C234 C 0.67145 0.70678 0.00288 0.0
C235 C 0.74204 0.71755 0.01129 0.0
C236 C 0.77969 0.69355 0.99494 0.0
C237 C 0.74716 0.65905 0.97083 0.0
C238 C 0.5608 0.48681 0.95737 0.0
C239 C 0.48888 0.45519 0.96706 0.0
C240 C 0.46947 0.40537 0.98577 0.0
C241 C 0.5224 0.38815 0.99537 0.0
C242 C 0.59609 0.42408 0.98693 0.0
C243 C 0.61456 0.47173 0.96767 0.0
C244 C 0.47249 0.41461 0.90958 0.0
C245 C 0.39887 0.40077 0.90467 0.0
C246 C 0.33535 0.32575 0.90307 0.0
C247 C 0.34444 0.26318 0.90623 0.0
C248 C 0.41847 0.27742 0.91111 0.0
C249 C 0.48193 0.35248 0.91274 0.0
C250 C 0.52447 0.49504 0.86519 0.0
C251 C 0.47965 0.5194 0.85372 0.0
C252 C 0.42748 0.47397 0.83341 0.0
C253 C 0.41983 0.40386 0.82459 0.0
C254 C 0.4689 0.38275 0.83482 0.0
C255 C 0.52122 0.42828 0.85494 0.0
C256 C 0.6732 0.63887 0.869 0.0
C257 C 0.68375 0.70726 0.8609 0.0
C258 C 0.73486 0.74356 0.84266 0.0
C259 C 0.7757 0.71169 0.83245 0.0
C260 C 0.76149 0.64096 0.83945 0.0
C261 C 0.71051 0.60476 0.85761 0.0
C262 C 0.77627 0.75394 0.03698 0.0
C263 C 0.27711 0.18336 0.90444 0.0
C264 C 0.11058 0.13006 0.15055 0.0
C265 C 0.15753 0.17094 0.13139 0.0
C266 C 0.15283 0.28443 0.14591 0.0
C267 C 0.11104 0.24579 0.16626 0.0
N268 N 0.06188 0.13749 0.19072 0.0
N269 N 0.23789 0.2919 0.11439 0.0
C270 C 0.09357 0.17024 0.16945 0.0
C271 C 0.18298 0.24964 0.13012 0.0
N272 N 0.07896 0.05222 0.14997 0.0
N273 N 0.16098 0.35289 0.14098 0.0
H274 H 0.26277 0.26888 0.1029 0.0
H275 H 0.26427 0.35143 0.11458 0.0
H276 H 0.1391 0.38021 0.15189 0.0
H277 H 0.18337 0.37912 0.12479 0.0
H278 H 0.03783 0.01819 0.16186 0.0
H279 H 0.08858 0.02022 0.13618 0.0
H280 H 0.05497 0.08573 0.19532 0.0
H281 H 0.04859 0.16546 0.20488 0.0
C282 C -0.00078 0.03288 0.48732 0.0
C283 C 0.95843 0.99255 0.46405 0.0
C284 C 0.8403 0.9744 0.47977 0.0
C285 C 0.88036 0.01285 0.50335 0.0
N286 N 0.99254 0.06245 0.5315 0.0
N287 N 0.83802 0.90718 0.4404 0.0
C288 C 0.95826 0.03685 0.50775 0.0
C289 C 0.87823 0.95775 0.461 0.0
N290 N 0.07724 0.07074 0.48954 0.0
N291 N 0.76724 0.95714 0.47476 0.0
H292 H 0.86398 0.89276 0.42639 0.0
H293 H 0.77857 0.87368 0.43843 0.0
H294 H 0.73637 0.96738 0.48786 0.0
H295 H 0.7391 0.9381 0.45692 0.0
H296 H 0.11047 0.10802 0.50514 0.0
H297 H 0.10952 0.06973 0.47501 0.0
H298 H 0.04701 0.07375 0.53641 0.0
H299 H 0.96361 0.06553 0.54682 0.0
C300 C 0.96922 0.86514 0.81311 0.0
C301 C 0.96505 0.8381 0.78763 0.0
C302 C 0.83243 0.73397 0.79064 0.0
C303 C 0.83983 0.7563 0.81672 0.0
N304 N 0.91956 0.83434 0.85381 0.0
N305 N 0.8968 0.74215 0.75262 0.0
C306 C 0.90945 0.81944 0.82827 0.0
C307 C 0.8976 0.7713 0.77645 0.0
N308 N 0.02859 0.93621 0.82259 0.0
N309 N 0.76275 0.67835 0.7794 0.0
H310 H 0.94362 0.76803 0.74176 0.0
H311 H 0.85225 0.68925 0.74432 0.0
H312 H 0.71408 0.64973 0.78931 0.0
H313 H 0.75167 0.66488 0.76007 0.0
H314 H 0.03007 0.96224 0.8402 0.0
H315 H 0.07286 0.97281 0.81202 0.0
H316 H 0.97209 0.87414 0.86333 0.0
H317 H 0.87734 0.80235 0.86574 0.0
C318 C 0.16228 0.8163 0.09611 0.0
C319 C 0.1191 0.84929 0.08943 0.0
C320 C 0.02872 0.78089 0.12064 0.0
C321 C 0.06862 0.74355 0.12584 0.0
N322 N 0.16172 0.71106 0.11426 0.0
N323 N 0.00089 0.84769 0.09076 0.0
C324 C 0.13174 0.75658 0.11218 0.0
C325 C 0.04917 0.82711 0.10036 0.0
N326 N 0.23425 0.84479 0.08838 0.0
N327 N 0.97323 0.77454 0.13557 0.0
H328 H 0.01224 0.87883 0.07521 0.0
H329 H 0.94602 0.82687 0.0965 0.0
H330 H 0.95661 0.74122 0.15067 0.0
H331 H 0.94838 0.80752 0.13429 0.0
H332 H 0.27093 0.82799 0.09494 0.0
H333 H 0.2605 0.89072 0.07743 0.0
H334 H 0.20279 0.71306 0.10282 0.0
H335 H 0.14018 0.66602 0.12567 0.0
C336 C 0.3601 0.16336 0.42814 0.0
C337 C 0.28509 0.09764 0.4275 0.0
C338 C 0.31645 0.06728 0.46754 0.0
C339 C 0.39409 0.12473 0.4661 0.0
N340 N 0.49258 0.22355 0.44382 0.0
N341 N 0.19847 0.97618 0.44363 0.0
C342 C 0.41687 0.17227 0.44614 0.0
C343 C 0.26462 0.04682 0.44651 0.0
N344 N 0.37655 0.21794 0.41205 0.0
N345 N 0.29233 0.03194 0.489 0.0
H346 H 0.16175 0.95528 0.42741 0.0
H347 H 0.1848 0.93462 0.45604 0.0
H348 H 0.329 0.04639 0.50498 0.0
H349 H 0.23483 0.99452 0.49172 0.0
H350 H 0.4283 0.27047 0.41327 0.0
H351 H 0.33588 0.21381 0.39896 0.0
H352 H 0.513 0.25354 0.42813 0.0
H353 H 0.53558 0.23209 0.4568 0.0
C354 C 0.31924 0.26561 0.76697 0.0
C355 C 0.25072 0.21118 0.77706 0.0
C356 C 0.28399 0.29569 0.81583 0.0
C357 C 0.3556 0.34734 0.80663 0.0
N358 N 0.43373 0.39387 0.77191 0.0
N359 N 0.15672 0.18211 0.80693 0.0
C360 C 0.37034 0.33654 0.78151 0.0
C361 C 0.22924 0.22935 0.8001 0.0
N362 N 0.337 0.24724 0.74419 0.0
N363 N 0.27053 0.30747 0.84007 0.0
H364 H 0.11604 0.13312 0.7955 0.0
H365 H 0.13482 0.19474 0.82257 0.0
H366 H 0.30814 0.3568 0.85187 0.0
H367 H 0.22386 0.26708 0.84894 0.0
H368 H 0.38974 0.28011 0.73687 0.0
H369 H 0.29892 0.19695 0.7328 0.0
H370 H 0.44559 0.39251 0.75321 0.0
H371 H 0.47163 0.44615 0.78242 0.0
C372 C 0.96381 0.01632 0.64861 0.0
C373 C 0.976 0.03892 0.67479 0.0
C374 C 0.86589 0.05518 0.67316 0.0
C375 C 0.85848 0.0399 0.64673 0.0
N376 N 0.90554 0.01558 0.60861 0.0
N377 N 0.94737 0.09257 0.71142 0.0
C378 C 0.90888 0.02309 0.63423 0.0
C379 C 0.92912 0.06143 0.68697 0.0
N380 N 0.00251 0.98549 0.63765 0.0
N381 N 0.81187 0.0628 0.68507 0.0
H382 H 0.99435 0.10008 0.72205 0.0
H383 H 0.92036 0.11762 0.72052 0.0
H384 H 0.76547 0.05978 0.67546 0.0
H385 H 0.80937 0.06563 0.70445 0.0
H386 H 0.99026 0.96033 0.61923 0.0
H387 H 0.04266 0.97891 0.64758 0.0
H388 H 0.94644 0.01251 0.59842 0.0
H389 H 0.8647 0.01788 0.5974 0.0
C390 C 0.05637 0.0198 0.96547 0.0
C391 C 0.04343 0.0198 0.99131 0.0
C392 C 0.9062 0.93988 0.98161 0.0
C393 C 0.91889 0.93217 0.95587 0.0
N394 N 0.00133 0.98327 0.92233 0.0
N395 N 0.95734 0.0172 0.0215 0.0
C396 C 0.99273 0.97912 0.94744 0.0
C397 C 0.96874 0.99287 -0.00142 0.0
N398 N 0.12965 0.05686 0.9585 0.0
N399 N 0.83648 0.89271 0.99041 0.0
H400 H 0.00191 0.06085 0.03348 0.0
H401 H 0.90347 0.00269 0.02691 0.0
H402 H 0.78892 0.85027 0.97921 0.0
H403 H 0.8275 0.89129 0.00944 0.0
H404 H 0.14435 0.05262 0.9403 0.0
H405 H 0.17623 0.09172 0.97145 0.0
H406 H 0.05281 0.01968 0.91479 0.0
H407 H 0.9548 0.95417 0.90901 0.0
C408 C 0.9964 0.74373 0.36717 0.0
C409 C 0.97799 0.79298 0.35585 0.0
C410 C 0.91071 0.69717 0.31998 0.0
C411 C 0.93659 0.65119 0.32993 0.0
N412 N 0.9795 0.61658 0.36588 0.0
N413 N 0.89712 0.8083 0.32701 0.0
C414 C 0.97062 0.66966 0.35473 0.0
C415 C 0.92723 0.76614 0.33419 0.0
N416 N 0.04203 0.76974 0.38898 0.0
N417 N 0.87599 0.67858 0.29631 0.0
H418 H 0.90964 0.85941 0.33726 0.0
H419 H 0.85474 0.78961 0.31255 0.0
H420 H 0.86327 0.62952 0.28491 0.0
H421 H 0.8621 0.71348 0.2873 0.0
H422 H 0.06497 0.7404 0.39685 0.0
H423 H 0.05891 0.82271 0.39886 0.0
H424 H -0.00065 0.62384 0.38452 0.0
H425 H 0.96024 0.56193 0.35684 0.0
C426 C 0.28932 0.90594 0.69073 0.0
C427 C 0.26601 0.96032 0.69287 0.0
C428 C 0.34489 0.02491 0.65877 0.0
C429 C 0.37792 0.97912 0.65965 0.0
N430 N 0.38703 0.88013 0.67828 0.0
N431 N 0.28624 0.08275 0.68224 0.0
C432 C 0.35135 0.92029 0.67604 0.0
C433 C 0.2971 0.02255 0.67765 0.0
N434 N 0.25104 0.83984 0.70227 0.0
N435 N 0.35819 0.06997 0.63964 0.0
H436 H 0.2561 0.08732 0.69686 0.0
H437 H 0.31467 0.13279 0.6732 0.0
H438 H 0.39179 0.07197 0.62517 0.0
H439 H 0.32931 0.09849 0.63676 0.0
H440 H 0.26089 0.79486 0.69955 0.0
H441 H 0.20399 0.82666 0.71253 0.0
H442 H 0.37537 0.84224 0.69185 0.0
H443 H 0.4328 0.88941 0.6679 0.0
C444 C 0.43742 0.27781 0.05163 0.0
C445 C 0.41806 0.20362 0.0412 0.0
C446 C 0.49001 0.25655 0.0051 0.0
C447 C 0.49833 0.32852 0.01306 0.0
N448 N 0.49993 0.41482 0.04644 0.0
N449 N 0.46722 0.13579 0.01806 0.0
C450 C 0.47906 0.34174 0.0374 0.0
C451 C 0.45875 0.19763 0.02131 0.0
N452 N 0.41631 0.28604 0.07501 0.0
N453 N 0.50576 0.24191 0.98148 0.0
H454 H 0.44844 0.0948 0.03097 0.0
H455 H 0.50089 0.13101 0.00473 0.0
H456 H 0.52559 0.28192 0.96831 0.0
H457 H 0.49263 0.18736 0.97422 0.0
H458 H 0.42362 0.33692 0.08357 0.0
H459 H 0.39408 0.24099 0.08644 0.0
H460 H 0.48781 0.42952 0.06391 0.0
H461 H 0.53264 0.46232 0.03654 0.0
C462 C 0.06139 0.22945 0.34753 0.0
C463 C 0.05673 0.16249 0.33577 0.0
C464 C 0.02728 0.19147 0.29499 0.0
C465 C 0.02617 0.255 0.30697 0.0
N466 N 0.02651 0.32539 0.34507 0.0
N467 N 0.0154 0.06901 0.29954 0.0
C468 C 0.03832 0.27116 0.33342 0.0
C469 C 0.03375 0.14026 0.30984 0.0
N470 N 0.09146 0.25558 0.37174 0.0
N471 N 0.02541 0.18168 0.26943 0.0
H472 H 0.01664 0.02851 0.30998 0.0
H473 H 0.99108 0.04704 0.28131 0.0
H474 H 0.02188 0.2185 0.25775 0.0
H475 H 0.03453 0.14122 0.25992 0.0
H476 H 0.10382 0.30853 0.38034 0.0
H477 H 0.11058 0.22779 0.38259 0.0
H478 H 0.02686 0.33415 0.36445 0.0
H479 H 0.00936 0.35681 0.33528 0.0
loop_
_geom_bond_atom_site_label_1
_geom_bond_atom_site_label_2
_geom_bond_distance
_geom_bond_site_symmetry_2
_ccdc_geom_bond_type
Zn0 O3 2.031 . S
Zn0 O5 2.049 1_565 S
Zn0 O10 2.067 . S
Zn1 O2 1.962 . S
Zn1 O4 1.986 . S
Zn1 O6 1.996 . S
Zn1 O9 1.943 . S
O2 Zn1 1.962 . S
O2 C7 1.254 1_545 S
O3 Zn0 2.031 . S
O3 C7 1.269 . S
O4 Zn1 1.986 . S
O4 C11 1.262 . S
O5 Zn0 2.049 1_545 S
O5 C13 1.260 . S
O6 Zn1 1.996 . S
O6 C13 1.257 . S
C7 O2 1.254 1_565 S
C7 O3 1.269 . S
C8 O9 1.249 1_565 S
C8 O10 1.270 . S
O9 Zn1 1.943 . S
O9 C8 1.249 1_545 S
O10 Zn0 2.067 . S
O10 C8 1.270 . S
C11 O4 1.262 . S
C11 O12 1.232 . S
O12 C11 1.232 . S
C13 O5 1.260 . S
C13 O6 1.257 . S
Zn14 O17 2.031 . S
Zn14 O19 2.049 . S
Zn14 O24 2.067 1_545 S
Zn15 O16 1.962 . S
Zn15 O18 1.986 1_455 S
Zn15 O20 1.996 . S
Zn15 O23 1.943 1_545 S
O16 Zn15 1.962 . S
O16 C21 1.254 . S
O17 Zn14 2.031 . S
O17 C21 1.269 . S
O18 Zn15 1.986 1_655 S
O18 C25 1.262 1_545 S
O19 Zn14 2.049 . S
O19 C27 1.260 . S
O20 Zn15 1.996 . S
O20 C27 1.257 . S
C21 O16 1.254 . S
C21 O17 1.269 . S
C22 O23 1.249 . S
C22 O24 1.270 . S
O23 Zn15 1.943 1_565 S
O23 C22 1.249 . S
O24 Zn14 2.067 1_565 S
O24 C22 1.270 . S
C25 O18 1.262 1_565 S
C25 O26 1.232 . S
O26 C25 1.232 . S
C27 O19 1.260 . S
C27 O20 1.257 . S
Zn28 O31 2.031 1_565 S
Zn28 O33 2.049 . S
Zn28 O38 2.067 1_565 S
Zn29 O30 1.962 . S
Zn29 O32 1.986 . S
Zn29 O34 1.996 1_545 S
Zn29 O37 1.943 . S
O30 Zn29 1.962 . S
O30 C35 1.254 . S
O31 Zn28 2.031 1_545 S
O31 C35 1.269 . S
O32 Zn29 1.986 . S
O32 C39 1.262 . S
O33 Zn28 2.049 . S
O33 C41 1.260 . S
O34 Zn29 1.996 1_565 S
O34 C41 1.257 . S
C35 O30 1.254 . S
C35 O31 1.269 . S
C36 O37 1.249 . S
C36 O38 1.270 . S
O37 Zn29 1.943 . S
O37 C36 1.249 . S
O38 Zn28 2.067 1_545 S
O38 C36 1.270 . S
C39 O32 1.262 . S
C39 O40 1.232 . S
O40 C39 1.232 . S
C41 O33 1.260 . S
C41 O34 1.257 . S
H42 O68 0.856 . S
H43 O71 0.854 1_545 S
H44 C79 0.930 1_655 S
H45 C80 0.930 1_655 S
H46 C82 0.930 . S
H47 C83 0.930 . S
H48 C85 0.931 . S
H49 C86 0.930 . S
H50 C88 0.930 . S
H51 C89 0.929 . S
H52 C91 0.930 . S
H53 C92 0.931 . S
H54 C94 0.930 . S
H55 C95 0.929 . S
H56 C97 0.931 1_655 S
H57 C98 0.930 1_655 S
H58 C100 0.930 . S
H59 C101 0.932 . S
H60 C103 0.930 . S
H61 C104 0.929 . S
H62 C106 0.931 . S
H63 C107 0.930 . S
H64 C109 0.929 1_655 S
H65 C110 0.931 1_655 S
H66 C112 0.930 . S
H67 C113 0.929 . S
O68 H42 0.856 . S
O68 C114 1.300 . S
O69 C114 1.209 . S
O70 C115 1.199 . S
O71 H43 0.854 1_565 S
O71 C115 1.297 . S
C72 C73 1.404 . S
C72 C77 1.397 . S
C72 C78 1.492 . S
C73 C72 1.404 . S
C73 C74 1.396 . S
C73 C84 1.492 . S
C74 C73 1.396 . S
C74 C75 1.397 . S
C74 C90 1.509 . S
C75 C74 1.397 . S
C75 C76 1.412 . S
C75 C96 1.485 . S
C76 C75 1.412 . S
C76 C77 1.388 . S
C76 C102 1.490 . S
C77 C72 1.397 . S
C77 C76 1.388 . S
C77 C108 1.519 . S
C78 C72 1.492 . S
C78 C79 1.363 . S
C78 C83 1.390 . S
C79 H44 0.930 1_455 S
C79 C78 1.363 . S
C79 C80 1.372 . S
C80 H45 0.930 1_455 S
C80 C79 1.372 . S
C80 C81 1.383 . S
C81 C80 1.383 . S
C81 C82 1.395 . S
C82 H46 0.930 . S
C82 C81 1.395 . S
C82 C83 1.362 . S
C83 H47 0.930 . S
C83 C78 1.390 . S
C83 C82 1.362 . S
C84 C73 1.492 . S
C84 C85 1.377 . S
C84 C89 1.397 . S
C85 H48 0.931 . S
C85 C84 1.377 . S
C85 C86 1.376 . S
C86 H49 0.930 . S
C86 C85 1.376 . S
C86 C87 1.376 . S
C87 C86 1.376 . S
C87 C88 1.378 . S
C87 C114 1.486 . S
C88 H50 0.930 . S
C88 C87 1.378 . S
C88 C89 1.376 . S
C89 H51 0.929 . S
C89 C84 1.397 . S
C89 C88 1.376 . S
C90 C74 1.509 . S
C90 C91 1.391 . S
C90 C95 1.386 . S
C91 H52 0.930 . S
C91 C90 1.391 . S
C91 C92 1.375 . S
C92 H53 0.931 . S
C92 C91 1.375 . S
C92 C93 1.375 . S
C93 C92 1.375 . S
C93 C94 1.361 . S
C94 H54 0.930 . S
C94 C93 1.361 . S
C94 C95 1.399 . S
C95 H55 0.929 . S
C95 C90 1.386 . S
C95 C94 1.399 . S
C96 C75 1.485 . S
C96 C97 1.394 . S
C96 C101 1.360 . S
C97 H56 0.931 1_455 S
C97 C96 1.394 . S
C97 C98 1.372 . S
C98 H57 0.930 1_455 S
C98 C97 1.372 . S
C98 C99 1.397 . S
C99 C98 1.397 . S
C99 C100 1.390 . S
C99 C115 1.476 . S
C100 H58 0.930 . S
C100 C99 1.390 . S
C100 C101 1.366 . S
C101 H59 0.932 . S
C101 C96 1.360 . S
C101 C100 1.366 . S
C102 C76 1.490 . S
C102 C103 1.380 1_455 S
C102 C107 1.386 . S
C103 H60 0.930 . S
C103 C102 1.380 1_655 S
C103 C104 1.381 . S
C104 H61 0.929 . S
C104 C103 1.381 . S
C104 C105 1.371 1_655 S
C105 C104 1.371 1_455 S
C105 C106 1.380 . S
C106 H62 0.931 . S
C106 C105 1.380 . S
C106 C107 1.387 . S
C107 H63 0.930 . S
C107 C102 1.386 . S
C107 C106 1.387 . S
C108 C77 1.519 . S
C108 C109 1.377 . S
C108 C113 1.361 . S
C109 H64 0.929 1_455 S
C109 C108 1.377 . S
C109 C110 1.386 . S
C110 H65 0.931 1_455 S
C110 C109 1.386 . S
C110 C111 1.363 . S
C111 C110 1.363 . S
C111 C112 1.385 . S
C112 H66 0.930 . S
C112 C111 1.385 . S
C112 C113 1.396 . S
C113 H67 0.929 . S
C113 C108 1.361 . S
C113 C112 1.396 . S
C114 O68 1.300 . S
C114 O69 1.209 . S
C114 C87 1.486 . S
C115 O70 1.199 . S
C115 O71 1.297 . S
C115 C99 1.476 . S
H116 O142 0.856 . S
H117 O145 0.854 . S
H118 C153 0.930 . S
H119 C154 0.930 . S
H120 C156 0.930 . S
H121 C157 0.930 . S
H122 C159 0.931 . S
H123 C160 0.934 . S
H124 C162 0.930 . S
H125 C163 0.929 . S
H126 C165 0.930 1_565 S
H127 C166 0.931 1_565 S
H128 C168 0.930 . S
H129 C169 0.929 . S
H130 C171 0.925 1_565 S
H131 C172 0.930 1_565 S
H132 C174 0.930 . S
H133 C175 0.932 . S
H134 C177 0.930 . S
H135 C178 0.929 . S
H136 C180 0.931 . S
H137 C181 0.930 . S
H138 C183 0.929 . S
H139 C184 0.931 1_565 S
H140 C186 0.930 . S
H141 C187 0.929 . S
O142 H116 0.856 . S
O142 C188 1.300 . S
O143 C188 1.209 . S
O144 C189 1.199 . S
O145 H117 0.854 . S
O145 C189 1.297 . S
C146 C147 1.404 . S
C146 C151 1.397 . S
C146 C152 1.492 . S
C147 C146 1.404 . S
C147 C148 1.396 . S
C147 C158 1.492 . S
C148 C147 1.396 . S
C148 C149 1.397 . S
C148 C164 1.509 . S
C149 C148 1.397 . S
C149 C150 1.412 . S
C149 C170 1.485 . S
C150 C149 1.412 . S
C150 C151 1.388 . S
C150 C176 1.490 . S
C151 C146 1.397 . S
C151 C150 1.388 . S
C151 C182 1.519 . S
C152 C146 1.492 . S
C152 C153 1.363 1_545 S
C152 C157 1.390 . S
C153 H118 0.930 . S
C153 C152 1.363 1_565 S
C153 C154 1.372 . S
C154 H119 0.930 . S
C154 C153 1.372 . S
C154 C155 1.383 1_565 S
C155 C154 1.383 1_545 S
C155 C156 1.395 . S
C156 H120 0.930 . S
C156 C155 1.395 . S
C156 C157 1.362 . S
C157 H121 0.930 . S
C157 C152 1.390 . S
C157 C156 1.362 . S
C158 C147 1.492 . S
C158 C159 1.377 1_545 S
C158 C163 1.397 . S
C159 H122 0.931 . S
C159 C158 1.377 1_565 S
C159 C160 1.375 . S
C160 H123 0.934 . S
C160 C159 1.375 . S
C160 C161 1.373 1_565 S
C161 C160 1.373 1_545 S
C161 C162 1.378 . S
C161 C188 1.486 . S
C162 H124 0.930 . S
C162 C161 1.378 . S
C162 C163 1.376 . S
C163 H125 0.929 . S
C163 C158 1.397 . S
C163 C162 1.376 . S
C164 C148 1.509 . S
C164 C165 1.391 . S
C164 C169 1.386 . S
C165 H126 0.930 1_545 S
C165 C164 1.391 . S
C165 C166 1.375 . S
C166 H127 0.931 1_545 S
C166 C165 1.375 . S
C166 C167 1.375 . S
C167 C166 1.375 . S
C167 C168 1.361 . S
C168 H128 0.930 . S
C168 C167 1.361 . S
C168 C169 1.399 . S
C169 H129 0.929 . S
C169 C164 1.386 . S
C169 C168 1.399 . S
C170 C149 1.485 . S
C170 C171 1.397 . S
C170 C175 1.360 . S
C171 H130 0.925 1_545 S
C171 C170 1.397 . S
C171 C172 1.375 . S
C172 H131 0.930 1_545 S
C172 C171 1.375 . S
C172 C173 1.397 . S
C173 C172 1.397 . S
C173 C174 1.390 . S
C173 C189 1.476 . S
C174 H132 0.930 . S
C174 C173 1.390 . S
C174 C175 1.366 . S
C175 H133 0.932 . S
C175 C170 1.360 . S
C175 C174 1.366 . S
C176 C150 1.490 . S
C176 C177 1.380 1_545 S
C176 C181 1.386 . S
C177 H134 0.930 . S
C177 C176 1.380 1_565 S
C177 C178 1.381 . S
C178 H135 0.929 . S
C178 C177 1.381 . S
C178 C179 1.371 1_565 S
C179 C178 1.371 1_545 S
C179 C180 1.380 . S
C180 H136 0.931 . S
C180 C179 1.380 . S
C180 C181 1.387 . S
C181 H137 0.930 . S
C181 C176 1.386 . S
C181 C180 1.387 . S
C182 C151 1.519 . S
C182 C183 1.377 1_545 S
C182 C187 1.361 . S
C183 H138 0.929 . S
C183 C182 1.377 1_565 S
C183 C184 1.386 1_565 S
C184 H139 0.931 1_545 S
C184 C183 1.386 1_545 S
C184 C185 1.363 . S
C185 C184 1.363 . S
C185 C186 1.385 . S
C186 H140 0.930 . S
C186 C185 1.385 . S
C186 C187 1.396 . S
C187 H141 0.929 . S
C187 C182 1.361 . S
C187 C186 1.396 . S
C188 O142 1.300 . S
C188 O143 1.209 . S
C188 C161 1.486 . S
C189 O144 1.199 . S
C189 O145 1.297 . S
C189 C173 1.476 . S
H190 O216 0.856 . S
H191 O219 0.854 . S
H192 C227 0.930 . S
H193 C228 0.930 . S
H194 C230 0.930 . S
H195 C231 0.930 . S
H196 C233 0.931 . S
H197 C234 0.930 . S
H198 C236 0.930 . S
H199 C237 0.929 . S
H200 C239 0.930 . S
H201 C240 0.931 . S
H202 C242 0.930 . S
H203 C243 0.929 . S
H204 C245 0.931 . S
H205 C246 0.930 . S
H206 C248 0.930 . S
H207 C249 0.932 . S
H208 C251 0.930 . S
H209 C252 0.929 . S
H210 C254 0.931 . S
H211 C255 0.930 . S
H212 C257 0.929 . S
H213 C258 0.931 . S
H214 C260 0.930 . S
H215 C261 0.929 . S
O216 H190 0.856 . S
O216 C262 1.300 . S
O217 C262 1.209 . S
O218 C263 1.199 . S
O219 H191 0.854 . S
O219 C263 1.297 . S
C220 C221 1.404 . S
C220 C225 1.397 . S
C220 C226 1.492 . S
C221 C220 1.404 . S
C221 C222 1.396 . S
C221 C232 1.492 . S
C222 C221 1.396 . S
C222 C223 1.397 . S
C222 C238 1.509 . S
C223 C222 1.397 . S
C223 C224 1.412 . S
C223 C244 1.485 . S
C224 C223 1.412 . S
C224 C225 1.388 . S
C224 C250 1.490 . S
C225 C220 1.397 . S
C225 C224 1.388 . S
C225 C256 1.519 . S
C226 C220 1.492 . S
C226 C227 1.363 . S
C226 C231 1.390 . S
C227 H192 0.930 . S
C227 C226 1.363 . S
C227 C228 1.372 . S
C228 H193 0.930 . S
C228 C227 1.372 . S
C228 C229 1.383 . S
C229 C228 1.383 . S
C229 C230 1.395 . S
C230 H194 0.930 . S
C230 C229 1.395 . S
C230 C231 1.362 . S
C231 H195 0.930 . S
C231 C226 1.390 . S
C231 C230 1.362 . S
C232 C221 1.492 . S
C232 C233 1.377 . S
C232 C237 1.397 . S
C233 H196 0.931 . S
C233 C232 1.377 . S
C233 C234 1.376 1_556 S
C234 H197 0.930 . S
C234 C233 1.376 1_554 S
C234 C235 1.376 . S
C235 C234 1.376 . S
C235 C236 1.378 . S
C235 C262 1.486 . S
C236 H198 0.930 . S
C236 C235 1.378 . S
C236 C237 1.376 1_554 S
C237 H199 0.929 . S
C237 C232 1.397 . S
C237 C236 1.376 1_556 S
C238 C222 1.509 . S
C238 C239 1.391 . S
C238 C243 1.386 . S
C239 H200 0.930 . S
C239 C238 1.391 . S
C239 C240 1.375 . S
C240 H201 0.931 . S
C240 C239 1.375 . S
C240 C241 1.375 . S
C241 C240 1.375 . S
C241 C242 1.361 . S
C242 H202 0.930 . S
C242 C241 1.361 . S
C242 C243 1.399 . S
C243 H203 0.929 . S
C243 C238 1.386 . S
C243 C242 1.399 . S
C244 C223 1.485 . S
C244 C245 1.394 . S
C244 C249 1.360 . S
C245 H204 0.931 . S
C245 C244 1.394 . S
C245 C246 1.372 . S
C246 H205 0.930 . S
C246 C245 1.372 . S
C246 C247 1.397 . S
C247 C246 1.397 . S
C247 C248 1.390 . S
C247 C263 1.476 . S
C248 H206 0.930 . S
C248 C247 1.390 . S
C248 C249 1.366 . S
C249 H207 0.932 . S
C249 C244 1.360 . S
C249 C248 1.366 . S
C250 C224 1.490 . S
C250 C251 1.380 . S
C250 C255 1.386 . S
C251 H208 0.930 . S
C251 C250 1.380 . S
C251 C252 1.381 . S
C252 H209 0.929 . S
C252 C251 1.381 . S
C252 C253 1.371 . S
C253 C252 1.371 . S
C253 C254 1.380 . S
C254 H210 0.931 . S
C254 C253 1.380 . S
C254 C255 1.387 . S
C255 H211 0.930 . S
C255 C250 1.386 . S
C255 C254 1.387 . S
C256 C225 1.519 . S
C256 C257 1.377 . S
C256 C261 1.361 . S
C257 H212 0.929 . S
C257 C256 1.377 . S
C257 C258 1.386 . S
C258 H213 0.931 . S
C258 C257 1.386 . S
C258 C259 1.363 . S
C259 C258 1.363 . S
C259 C260 1.385 . S
C260 H214 0.930 . S
C260 C259 1.385 . S
C260 C261 1.396 . S
C261 H215 0.929 . S
C261 C256 1.361 . S
C261 C260 1.396 . S
C262 O216 1.300 . S
C262 O217 1.209 . S
C262 C235 1.486 . S
C263 O218 1.199 . S
C263 O219 1.297 . S
C263 C247 1.476 . S
C264 C265 1.363 . S
C264 C270 1.379 . S
C264 N272 1.356 1_455 S
C265 C264 1.363 . S
C265 C271 1.363 . S
C266 C267 1.363 . S
C266 C271 1.379 . S
C266 N273 1.356 . S
C267 C266 1.363 . S
C267 C270 1.363 . S
N268 C270 1.356 1_655 S
N268 H280 0.984 . S
N268 H281 0.985 . S
N269 C271 1.356 . S
N269 H274 0.984 . S
N269 H275 0.985 . S
C270 C264 1.379 . S
C270 C267 1.363 . S
C270 N268 1.356 1_455 S
C271 C265 1.363 . S
C271 C266 1.379 . S
C271 N269 1.356 . S
N272 C264 1.356 1_655 S
N272 H278 0.984 . S
N272 H279 0.984 . S
N273 C266 1.356 . S
N273 H276 0.984 . S
N273 H277 0.985 . S
H274 N269 0.984 . S
H275 N269 0.985 . S
H276 N273 0.984 . S
H277 N273 0.985 . S
H278 N272 0.984 . S
H279 N272 0.984 . S
H280 N268 0.984 . S
H281 N268 0.985 . S
C282 C283 1.363 1_545 S
C282 C288 1.379 . S
C282 N290 1.356 . S
C283 C282 1.363 1_565 S
C283 C289 1.363 . S
C284 C285 1.363 1_565 S
C284 C289 1.379 . S
C284 N291 1.356 . S
C285 C284 1.363 1_545 S
C285 C288 1.363 . S
N286 C288 1.356 . S
N286 H298 0.984 1_655 S
N286 H299 0.985 . S
N287 C289 1.356 . S
N287 H292 0.984 . S
N287 H293 0.985 . S
C288 C282 1.379 . S
C288 C285 1.363 . S
C288 N286 1.356 . S
C289 C283 1.363 . S
C289 C284 1.379 . S
C289 N287 1.356 . S
N290 C282 1.356 . S
N290 H296 0.984 1_655 S
N290 H297 0.984 . S
N291 C284 1.356 . S
N291 H294 0.984 . S
N291 H295 0.985 . S
H292 N287 0.984 . S
H293 N287 0.985 . S
H294 N291 0.984 . S
H295 N291 0.985 . S
H296 N290 0.984 1_455 S
H297 N290 0.984 . S
H298 N286 0.984 1_455 S
H299 N286 0.985 . S
C300 C301 1.363 1_455 S
C300 C306 1.379 1_455 S
C300 N308 1.356 . S
C301 C300 1.363 1_655 S
C301 C307 1.363 . S
C302 C303 1.363 . S
C302 C307 1.379 . S
C302 N309 1.356 . S
C303 C302 1.363 . S
C303 C306 1.363 . S
N304 C306 1.356 . S
N304 H316 0.984 1_655 S
N304 H317 0.985 . S
N305 C307 1.356 . S
N305 H310 0.984 . S
N305 H311 0.985 . S
C306 C300 1.379 1_655 S
C306 C303 1.363 . S
C306 N304 1.356 . S
C307 C301 1.363 . S
C307 C302 1.379 . S
C307 N305 1.356 . S
N308 C300 1.356 . S
N308 H314 0.984 . S
N308 H315 0.984 . S
N309 C302 1.356 . S
N309 H312 0.984 . S
N309 H313 0.985 . S
H310 N305 0.984 . S
H311 N305 0.985 . S
H312 N309 0.984 . S
H313 N309 0.985 . S
H314 N308 0.984 . S
H315 N308 0.984 . S
H316 N304 0.984 1_455 S
H317 N304 0.985 . S
C318 C319 1.363 . S
C318 C324 1.379 . S
C318 N326 1.356 . S
C319 C318 1.363 . S
C319 C325 1.363 . S
C320 C321 1.363 . S
C320 C325 1.379 . S
C320 N327 1.356 . S
C321 C320 1.363 . S
C321 C324 1.363 . S
N322 C324 1.356 . S
N322 H334 0.984 . S
N322 H335 0.985 . S
N323 C325 1.356 . S
N323 H328 0.984 . S
N323 H329 0.985 1_455 S
C324 C318 1.379 . S
C324 C321 1.363 . S
C324 N322 1.356 . S
C325 C319 1.363 . S
C325 C320 1.379 . S
C325 N323 1.356 . S
N326 C318 1.356 . S
N326 H332 0.979 . S
N326 H333 0.984 1_565 S
N327 C320 1.356 . S
N327 H330 0.984 . S
N327 H331 0.985 1_455 S
H328 N323 0.984 . S
H329 N323 0.985 1_655 S
H330 N327 0.984 . S
H331 N327 0.985 1_655 S
H332 N326 0.979 . S
H333 N326 0.984 1_545 S
H334 N322 0.984 . S
H335 N322 0.985 . S
C336 C337 1.363 . S
C336 C342 1.379 . S
C336 N344 1.356 . S
C337 C336 1.363 . S
C337 C343 1.363 . S
C338 C339 1.363 . S
C338 C343 1.379 . S
C338 N345 1.356 . S
C339 C338 1.363 . S
C339 C342 1.363 . S
N340 C342 1.356 . S
N340 H352 0.984 . S
N340 H353 0.985 . S
N341 C343 1.356 . S
N341 H346 0.984 . S
N341 H347 0.985 . S
C342 C336 1.379 . S
C342 C339 1.363 . S
C342 N340 1.356 . S
C343 C337 1.363 . S
C343 C338 1.379 . S
C343 N341 1.356 . S
N344 C336 1.356 . S
N344 H350 0.984 . S
N344 H351 0.984 . S
N345 C338 1.356 . S
N345 H348 0.984 . S
N345 H349 0.985 . S
H346 N341 0.984 . S
H347 N341 0.985 . S
H348 N345 0.984 . S
H349 N345 0.985 . S
H350 N344 0.984 . S
H351 N344 0.984 . S
H352 N340 0.984 . S
H353 N340 0.985 . S
C354 C355 1.363 . S
C354 C360 1.379 . S
C354 N362 1.356 . S
C355 C354 1.363 . S
C355 C361 1.363 . S
C356 C357 1.363 . S
C356 C361 1.379 . S
C356 N363 1.356 . S
C357 C356 1.363 . S
C357 C360 1.363 . S
N358 C360 1.356 . S
N358 H370 0.984 . S
N358 H371 0.985 . S
N359 C361 1.356 . S
N359 H364 0.984 . S
N359 H365 0.985 . S
C360 C354 1.379 . S
C360 C357 1.363 . S
C360 N358 1.356 . S
C361 C355 1.363 . S
C361 C356 1.379 . S
C361 N359 1.356 . S
N362 C354 1.356 . S
N362 H368 0.984 . S
N362 H369 0.984 . S
N363 C356 1.356 . S
N363 H366 0.984 . S
N363 H367 0.985 . S
H364 N359 0.984 . S
H365 N359 0.985 . S
H366 N363 0.984 . S
H367 N363 0.985 . S
H368 N362 0.984 . S
H369 N362 0.984 . S
H370 N358 0.984 . S
H371 N358 0.985 . S
C372 C373 1.363 . S
C372 C378 1.379 . S
C372 N380 1.356 1_545 S
C373 C372 1.363 . S
C373 C379 1.363 . S
C374 C375 1.363 . S
C374 C379 1.379 . S
C374 N381 1.356 . S
C375 C374 1.363 . S
C375 C378 1.363 . S
N376 C378 1.356 1_565 S
N376 H388 0.984 . S
N376 H389 0.985 . S
N377 C379 1.356 . S
N377 H382 0.984 1_655 S
N377 H383 0.985 . S
C378 C372 1.379 . S
C378 C375 1.363 . S
C378 N376 1.356 1_545 S
C379 C373 1.363 . S
C379 C374 1.379 . S
C379 N377 1.356 . S
N380 C372 1.356 1_565 S
N380 H386 0.984 . S
N380 H387 0.984 . S
N381 C374 1.356 . S
N381 H384 0.984 . S
N381 H385 0.985 . S
H382 N377 0.984 1_455 S
H383 N377 0.985 . S
H384 N381 0.984 . S
H385 N381 0.985 . S
H386 N380 0.984 . S
H387 N380 0.984 . S
H388 N376 0.984 . S
H389 N376 0.985 . S
C390 C391 1.380 1_455 S
C390 C396 1.355 1_554 S
C390 N398 1.371 . S
C391 C390 1.380 1_655 S
C391 C397 1.363 . S
C392 C393 1.363 . S
C392 C397 1.379 1_556 S
C392 N399 1.356 . S
C393 C392 1.363 . S
C393 C396 1.363 1_655 S
N394 C396 1.356 . S
N394 H406 0.984 . S
N394 H407 0.985 . S
N395 C397 1.356 . S
N395 H400 0.984 . S
N395 H401 0.985 . S
C396 C390 1.355 1_556 S
C396 C393 1.363 1_455 S
C396 N394 1.356 . S
C397 C391 1.363 . S
C397 C392 1.379 1_554 S
C397 N395 1.356 . S
N398 C390 1.371 . S
N398 H404 0.984 . S
N398 H405 0.984 . S
N399 C392 1.356 . S
N399 H402 0.984 . S
N399 H403 0.985 . S
H400 N395 0.984 . S
H401 N395 0.985 . S
H402 N399 0.984 . S
H403 N399 0.985 . S
H404 N398 0.984 . S
H405 N398 0.984 . S
H406 N394 0.984 . S
H407 N394 0.985 . S
C408 C409 1.363 . S
C408 C414 1.379 . S
C408 N416 1.356 . S
C409 C408 1.363 . S
C409 C415 1.363 1_455 S
C410 C411 1.363 1_655 S
C410 C415 1.379 . S
C410 N417 1.356 . S
C411 C410 1.363 1_455 S
C411 C414 1.363 . S
N412 C414 1.356 . S
N412 H424 0.984 . S
N412 H425 0.985 . S
N413 C415 1.356 . S
N413 H418 0.984 . S
N413 H419 0.985 . S
C414 C408 1.379 . S
C414 C411 1.363 . S
C414 N412 1.356 . S
C415 C409 1.363 1_655 S
C415 C410 1.379 . S
C415 N413 1.356 . S
N416 C408 1.356 . S
N416 H422 0.984 . S
N416 H423 0.984 . S
N417 C410 1.356 . S
N417 H420 0.984 . S
N417 H421 0.985 . S
H418 N413 0.984 . S
H419 N413 0.985 . S
H420 N417 0.984 . S
H421 N417 0.985 . S
H422 N416 0.984 . S
H423 N416 0.984 . S
H424 N412 0.984 . S
H425 N412 0.985 . S
C426 C427 1.363 1_565 S
C426 C432 1.379 . S
C426 N434 1.356 . S
C427 C426 1.363 1_545 S
C427 C433 1.363 . S
C428 C429 1.363 . S
C428 C433 1.379 . S
C428 N435 1.356 . S
C429 C428 1.363 . S
C429 C432 1.363 1_545 S
N430 C432 1.356 . S
N430 H442 0.984 . S
N430 H443 0.985 . S
N431 C433 1.356 . S
N431 H436 0.984 . S
N431 H437 0.985 . S
C432 C426 1.379 . S
C432 C429 1.363 1_565 S
C432 N430 1.356 . S
C433 C427 1.363 . S
C433 C428 1.379 . S
C433 N431 1.356 . S
N434 C426 1.356 . S
N434 H440 0.984 . S
N434 H441 0.984 . S
N435 C428 1.356 . S
N435 H438 0.984 . S
N435 H439 0.985 . S
H436 N431 0.984 . S
H437 N431 0.985 . S
H438 N435 0.984 . S
H439 N435 0.985 . S
H440 N434 0.984 . S
H441 N434 0.984 . S
H442 N430 0.984 . S
H443 N430 0.985 . S
C444 C445 1.363 . S
C444 C450 1.379 . S
C444 N452 1.356 . S
C445 C444 1.363 . S
C445 C451 1.363 . S
C446 C447 1.363 . S
C446 C451 1.379 . S
C446 N453 1.356 1_554 S
C447 C446 1.363 . S
C447 C450 1.363 . S
N448 C450 1.356 1_556 S
N448 H460 0.983 1_556 S
N448 H461 0.985 . S
N449 C451 1.356 . S
N449 H454 0.984 . S
N449 H455 0.985 . S
C450 C444 1.379 . S
C450 C447 1.363 . S
C450 N448 1.356 1_554 S
C451 C445 1.363 . S
C451 C446 1.379 . S
C451 N449 1.356 . S
N452 C444 1.356 . S
N452 H458 0.984 . S
N452 H459 0.984 . S
N453 C446 1.356 1_556 S
N453 H456 0.984 . S
N453 H457 0.983 1_556 S
H454 N449 0.984 . S
H455 N449 0.985 . S
H456 N453 0.984 . S
H457 N453 0.983 1_554 S
H458 N452 0.984 . S
H459 N452 0.984 . S
H460 N448 0.983 1_554 S
H461 N448 0.985 . S
C462 C463 1.363 . S
C462 C468 1.379 . S
C462 N470 1.356 . S
C463 C462 1.363 . S
C463 C469 1.363 . S
C464 C465 1.363 . S
C464 C469 1.379 . S
C464 N471 1.356 . S
C465 C464 1.363 . S
C465 C468 1.363 . S
N466 C468 1.356 . S
N466 H478 0.984 1_455 S
N466 H479 0.985 . S
N467 C469 1.356 . S
N467 H472 0.984 . S
N467 H473 0.985 . S
C468 C462 1.379 . S
C468 C465 1.363 . S
C468 N466 1.356 . S
C469 C463 1.363 . S
C469 C464 1.379 . S
C469 N467 1.356 . S
N470 C462 1.356 . S
N470 H476 0.984 1_455 S
N470 H477 0.984 . S
N471 C464 1.356 . S
N471 H474 0.984 . S
N471 H475 0.985 . S
H472 N467 0.984 . S
H473 N467 0.985 . S
H474 N471 0.984 . S
H475 N471 0.985 . S
H476 N470 0.984 1_655 S
H477 N470 0.984 . S
H478 N466 0.984 1_655 S
H479 N466 0.985 . S
C267 C81 1.354 . S
C265 C11 1.411 . S
C283 C25 1.439 . S
C285 C155 1.403 . S
C301 C41 1.928 1_655 S
C303 C259 2.013 . S
C319 C7 0.864 . S
C321 C93 0.862 . S
C339 C167 0.909 . S
C337 C21 0.913 . S
C355 C36 1.693 . S
C357 C253 1.527 . S
C375 C185 1.988 . S
C373 C39 1.970 1_655 S
C391 C8 1.410 1_655 S
C393 C229 1.438 . S
C411 C105 1.595 . S
C409 C22 1.770 . S
C429 C179 1.500 . S
C427 C35 1.645 . S
C447 C241 0.953 1_554 S
C445 C13 0.910 . S
C463 C27 1.975 . S
C465 C111 2.059 . S
