# Generated by pormake.
# Topology nom, (4,4)-cn, num edge types: 1
# Building blocks:
#     Node 0, Type 0, BuildingBlock: MIFKUJ_clean_linker_1, # of connection points: 4
#     Node 1, Type 0, BuildingBlock: MIFKUJ_clean_linker_1, # of connection points: 4
#     Node 2, Type 0, BuildingBlock: MIFKUJ_clean_linker_1, # of connection points: 4
#     Node 3, Type 0, BuildingBlock: MIFKUJ_clean_linker_1, # of connection points: 4
#     Node 4, Type 0, BuildingBlock: MIFKUJ_clean_linker_1, # of connection points: 4
#     Node 5, Type 0, BuildingBlock: MIFKUJ_clean_linker_1, # of connection points: 4
#     Node 6, Type 1, BuildingBlock: UXUYUI_clean_sbu_0, # of connection points: 4
#     Node 7, Type 1, BuildingBlock: UXUYUI_clean_sbu_0, # of connection points: 4
#     Node 8, Type 1, BuildingBlock: UXUYUI_clean_sbu_0, # of connection points: 4
#     Node 9, Type 1, BuildingBlock: UXUYUI_clean_sbu_0, # of connection points: 4
#     Node 10, Type 1, BuildingBlock: UXUYUI_clean_sbu_0, # of connection points: 4
#     Node 11, Type 1, BuildingBlock: UXUYUI_clean_sbu_0, # of connection points: 4
#     Edge 12, Type (0, 1), BuildingBlock: XUDNAN_clean_linker_2, # of connection points: 2
#     Edge 13, Type (0, 1), BuildingBlock: XUDNAN_clean_linker_2, # of connection points: 2
#     Edge 14, Type (0, 1), BuildingBlock: XUDNAN_clean_linker_2, # of connection points: 2
#     Edge 15, Type (0, 1), BuildingBlock: XUDNAN_clean_linker_2, # of connection points: 2
#     Edge 16, Type (0, 1), BuildingBlock: XUDNAN_clean_linker_2, # of connection points: 2
#     Edge 17, Type (0, 1), BuildingBlock: XUDNAN_clean_linker_2, # of connection points: 2
#     Edge 18, Type (0, 1), BuildingBlock: XUDNAN_clean_linker_2, # of connection points: 2
#     Edge 19, Type (0, 1), BuildingBlock: XUDNAN_clean_linker_2, # of connection points: 2
#     Edge 20, Type (0, 1), BuildingBlock: XUDNAN_clean_linker_2, # of connection points: 2
#     Edge 21, Type (0, 1), BuildingBlock: XUDNAN_clean_linker_2, # of connection points: 2
#     Edge 22, Type (0, 1), BuildingBlock: XUDNAN_clean_linker_2, # of connection points: 2
#     Edge 23, Type (0, 1), BuildingBlock: XUDNAN_clean_linker_2, # of connection points: 2
#     Edge 24, Type (0, 1), BuildingBlock: XUDNAN_clean_linker_2, # of connection points: 2
#     Edge 25, Type (0, 1), BuildingBlock: XUDNAN_clean_linker_2, # of connection points: 2
#     Edge 26, Type (0, 1), BuildingBlock: XUDNAN_clean_linker_2, # of connection points: 2
#     Edge 27, Type (0, 1), BuildingBlock: XUDNAN_clean_linker_2, # of connection points: 2
#     Edge 28, Type (0, 1), BuildingBlock: XUDNAN_clean_linker_2, # of connection points: 2
#     Edge 29, Type (0, 1), BuildingBlock: XUDNAN_clean_linker_2, # of connection points: 2
#     Edge 30, Type (0, 1), BuildingBlock: XUDNAN_clean_linker_2, # of connection points: 2
#     Edge 31, Type (0, 1), BuildingBlock: XUDNAN_clean_linker_2, # of connection points: 2
#     Edge 32, Type (0, 1), BuildingBlock: XUDNAN_clean_linker_2, # of connection points: 2
#     Edge 33, Type (0, 1), BuildingBlock: XUDNAN_clean_linker_2, # of connection points: 2
#     Edge 34, Type (0, 1), BuildingBlock: XUDNAN_clean_linker_2, # of connection points: 2
#     Edge 35, Type (0, 1), BuildingBlock: XUDNAN_clean_linker_2, # of connection points: 2
# Relax obj value: 0.035
# Max RMSD: 0.144
# Mean RMSD: 0.118
data_MOF--net-nom--node1-UXUYUI_clean_sbu_0--node2-MIFKUJ_clean_linker_1--edge1-XUDNAN_clean_linker_2
_symmetry_space_group_name_H-M    P1
_symmetry_Int_Tables_number       1
_symmetry_cell_setting            triclinic
loop_
_symmetry_equiv_pos_as_xyz
'x, y, z'
_cell_length_a     63.304892
_cell_length_b     63.306167
_cell_length_c     67.367675
_cell_angle_alpha  89.979203
_cell_angle_beta   90.00054
_cell_angle_gamma 120.0218
loop_
_atom_site_label
_atom_site_type_symbol
_atom_site_fract_x
_atom_site_fract_y
_atom_site_fract_z
_atom_type_partial_charge
H0 H 0.98979 0.48941 0.29093 0.0
H1 H 0.96205 0.47911 0.26273 0.0
H2 H 0.93998 0.5295 0.28428 0.0
H3 H 0.96887 0.54085 0.31155 0.0
H4 H 0.02891 0.53263 0.2994 0.0
H5 H 0.9505 0.48026 0.33348 0.0
H6 H 0.90896 0.47062 0.34215 0.0
H7 H 0.93809 0.5411 0.37027 0.0
H8 H 0.97922 0.5509 0.36106 0.0
H9 H 0.04224 0.5752 0.37756 0.0
H10 H 0.07286 0.59211 0.40375 0.0
H11 H 0.10363 0.54861 0.38312 0.0
H12 H 0.0722 0.53094 0.35739 0.0
H13 H 0.00673 0.53222 0.37005 0.0
H14 H 0.07444 0.59047 0.33256 0.0
H15 H 0.1158 0.6133 0.31939 0.0
H16 H 0.10959 0.546 0.29791 0.0
H17 H 0.06771 0.52353 0.31035 0.0
C18 C 0.98121 0.51564 0.30358 0.0
C19 C 0.97893 0.4982 0.28956 0.0
C20 C 0.96286 0.49216 0.27352 0.0
C21 C 0.94868 0.50344 0.27114 0.0
C22 C 0.95081 0.52068 0.28539 0.0
C23 C 0.96709 0.52692 0.30125 0.0
C24 C 0.99934 0.52304 0.31994 0.0
C25 C 0.02392 0.53193 0.3149 0.0
C26 C 0.99312 0.52346 0.3401 0.0
C27 C 0.96796 0.51641 0.34643 0.0
C28 C 0.94788 0.4936 0.34151 0.0
C29 C 0.92419 0.48805 0.3466 0.0
C30 C 0.92023 0.50521 0.35672 0.0
C31 C 0.94047 0.52767 0.36215 0.0
C32 C 0.96403 0.53319 0.35707 0.0
C33 C 0.05498 0.55192 0.36536 0.0
C34 C 0.05545 0.56915 0.37874 0.0
C35 C 0.07316 0.579 0.39361 0.0
C36 C 0.09086 0.57188 0.39546 0.0
C37 C 0.09018 0.55438 0.38221 0.0
C38 C 0.07238 0.54447 0.36734 0.0
C39 C 0.03617 0.54176 0.34946 0.0
C40 C 0.01157 0.53231 0.35459 0.0
C41 C 0.04242 0.542 0.32928 0.0
C42 C 0.06811 0.55533 0.32249 0.0
C43 C 0.08212 0.58066 0.32513 0.0
C44 C 0.10585 0.59367 0.31767 0.0
C45 C 0.11619 0.58158 0.30752 0.0
C46 C 0.10216 0.55605 0.30528 0.0
C47 C 0.07827 0.5431 0.31251 0.0
H48 H 0.44099 0.97322 0.51806 0.0
H49 H 0.41455 0.93283 0.53205 0.0
H50 H 0.46864 0.91243 0.51838 0.0
H51 H 0.49513 0.95316 0.50414 0.0
H52 H 0.4878 0.00353 0.53479 0.0
H53 H 0.45265 0.96526 0.46894 0.0
H54 H 0.44637 0.93534 0.44305 0.0
H55 H 0.52422 0.96429 0.43988 0.0
H56 H 0.53036 0.994 0.4657 0.0
H57 H 0.55563 0.07038 0.47275 0.0
H58 H 0.57367 0.11404 0.46493 0.0
H59 H 0.51668 0.11617 0.49843 0.0
H60 H 0.49826 0.07277 0.50555 0.0
H61 H 0.51576 0.03043 0.46585 0.0
H62 H 0.55476 0.06993 0.52469 0.0
H63 H 0.56883 0.09544 0.55446 0.0
H64 H 0.49433 0.06322 0.57484 0.0
H65 H 0.48036 0.0378 0.54511 0.0
C66 C 0.47002 0.9662 0.51012 0.0
C67 C 0.44702 0.95994 0.51779 0.0
C68 C 0.432 0.93691 0.5259 0.0
C69 C 0.4397 0.9196 0.52664 0.0
C70 C 0.46222 0.92539 0.51799 0.0
C71 C 0.47734 0.94861 0.50984 0.0
C72 C 0.48698 0.99197 0.50468 0.0
C73 C 0.49369 0.00952 0.51968 0.0
C74 C 0.49616 0.9995 0.48527 0.0
C75 C 0.49197 0.98171 0.46931 0.0
C76 C 0.46833 0.96511 0.46265 0.0
C77 C 0.46478 0.94816 0.4478 0.0
C78 C 0.4848 0.94741 0.43953 0.0
C79 C 0.50843 0.96424 0.44614 0.0
C80 C 0.51197 0.9813 0.46079 0.0
C81 C 0.52592 0.06836 0.49019 0.0
C82 C 0.5469 0.08021 0.47824 0.0
C83 C 0.55719 0.10508 0.47377 0.0
C84 C 0.54672 0.11844 0.48135 0.0
C85 C 0.52534 0.10638 0.49273 0.0
C86 C 0.51491 0.08159 0.49689 0.0
C87 C 0.51516 0.04225 0.49581 0.0
C88 C 0.50991 0.02462 0.48099 0.0
C89 C 0.50817 0.03449 0.51566 0.0
C90 C 0.51649 0.05183 0.53266 0.0
C91 C 0.5414 0.06868 0.53538 0.0
C92 C 0.54944 0.08328 0.55241 0.0
C93 C 0.53272 0.08116 0.56711 0.0
C94 C 0.50771 0.06495 0.56397 0.0
C95 C 0.4997 0.05043 0.54696 0.0
H96 H 0.54009 0.55425 0.70655 0.0
H97 H 0.53338 0.57776 0.73174 0.0
H98 H 0.45735 0.54333 0.71491 0.0
H99 H 0.46396 0.51864 0.69045 0.0
H100 H 0.52199 0.50665 0.70296 0.0
H101 H 0.51638 0.56937 0.66328 0.0
H102 H 0.49281 0.58897 0.65424 0.0
H103 H 0.43447 0.51984 0.63294 0.0
H104 H 0.45825 0.50046 0.64186 0.0
H105 H 0.49844 0.46798 0.6208 0.0
H106 H 0.51614 0.45366 0.59541 0.0
H107 H 0.58573 0.49137 0.6253 0.0
H108 H 0.5683 0.50614 0.65023 0.0
H109 H 0.5057 0.50998 0.63135 0.0
H110 H 0.50972 0.44717 0.66637 0.0
H111 H 0.52486 0.42198 0.68117 0.0
H112 H 0.57954 0.48484 0.71315 0.0
H113 H 0.56413 0.50979 0.69851 0.0
C114 C 0.50263 0.53485 0.6964 0.0
C115 C 0.52192 0.55162 0.70835 0.0
C116 C 0.51809 0.56531 0.72262 0.0
C117 C 0.49487 0.56276 0.72523 0.0
C118 C 0.47544 0.54571 0.71341 0.0
C119 C 0.47925 0.53176 0.69923 0.0
C120 C 0.50743 0.52077 0.68116 0.0
C121 C 0.51868 0.50758 0.68726 0.0
C122 C 0.50187 0.52084 0.6608 0.0
C123 C 0.4889 0.53339 0.65351 0.0
C124 C 0.49859 0.55851 0.65652 0.0
C125 C 0.48506 0.56965 0.65141 0.0
C126 C 0.46164 0.55591 0.64305 0.0
C127 C 0.4525 0.53099 0.6392 0.0
C128 C 0.46604 0.51986 0.64434 0.0
C129 C 0.53187 0.48774 0.63771 0.0
C130 C 0.51752 0.47322 0.62185 0.0
C131 C 0.52764 0.46509 0.60734 0.0
C132 C 0.55225 0.47123 0.6085 0.0
C133 C 0.56661 0.48598 0.62423 0.0
C134 C 0.5566 0.49433 0.63855 0.0
C135 C 0.52145 0.49682 0.65307 0.0
C136 C 0.50899 0.50892 0.64702 0.0
C137 C 0.5254 0.49528 0.67359 0.0
C138 C 0.53576 0.48038 0.68134 0.0
C139 C 0.52517 0.45558 0.67638 0.0
C140 C 0.53388 0.4412 0.68483 0.0
C141 C 0.5533 0.45133 0.69848 0.0
C142 C 0.56425 0.47633 0.70301 0.0
C143 C 0.55552 0.49066 0.69459 0.0
H144 H 0.04511 0.54096 0.7849 0.0
H145 H 0.07259 0.5513 0.7565 0.0
H146 H 0.10407 0.51108 0.78293 0.0
H147 H 0.07563 0.49968 0.81058 0.0
H148 H 0.00985 0.4966 0.79684 0.0
H149 H 0.08845 0.55991 0.82678 0.0
H150 H 0.13012 0.57713 0.84001 0.0
H151 H 0.1069 0.51212 0.87511 0.0
H152 H 0.06583 0.49479 0.86162 0.0
H153 H 0.00532 0.46764 0.87847 0.0
H154 H 0.97637 0.45099 0.90582 0.0
H155 H 0.93583 0.48302 0.88109 0.0
H156 H 0.96561 0.50059 0.85407 0.0
H157 H 0.03599 0.51096 0.86727 0.0
H158 H 0.97055 0.44304 0.83762 0.0
H159 H 0.92728 0.4155 0.83141 0.0
H160 H 0.92379 0.47213 0.7983 0.0
H161 H 0.96748 0.49982 0.80461 0.0
C162 C 0.05848 0.51982 0.80006 0.0
C163 C 0.05796 0.5344 0.78456 0.0
C164 C 0.07386 0.54048 0.76839 0.0
C165 C 0.09063 0.53207 0.76736 0.0
C166 C 0.09122 0.51764 0.78303 0.0
C167 C 0.07517 0.51138 0.79907 0.0
C168 C 0.04076 0.51249 0.81672 0.0
C169 C 0.01565 0.50023 0.81222 0.0
C170 C 0.04815 0.5158 0.83689 0.0
C171 C 0.07394 0.52609 0.84328 0.0
C172 C 0.09246 0.54922 0.83705 0.0
C173 C 0.1162 0.55905 0.84462 0.0
C174 C 0.12155 0.54603 0.85874 0.0
C175 C 0.10316 0.52268 0.86447 0.0
C176 C 0.07969 0.51279 0.85677 0.0
C177 C 0.98763 0.48528 0.86411 0.0
C178 C 0.99035 0.47131 0.879 0.0
C179 C 0.97359 0.46155 0.89454 0.0
C180 C 0.95361 0.46545 0.89556 0.0
C181 C 0.95108 0.47978 0.88081 0.0
C182 C 0.96796 0.48964 0.86525 0.0
C183 C 0.00537 0.495 0.84739 0.0
C184 C 0.03032 0.50778 0.85184 0.0
C185 C 0.99793 0.49061 0.8273 0.0
C186 C 0.9721 0.47363 0.82192 0.0
C187 C 0.9605 0.44957 0.82902 0.0
C188 C 0.93574 0.43386 0.8255 0.0
C189 C 0.92202 0.44178 0.81465 0.0
C190 C 0.9339 0.46554 0.80672 0.0
C191 C 0.9588 0.48136 0.81032 0.0
H192 H 0.58367 0.07162 0.03078 0.0
H193 H 0.60782 0.11519 0.03791 0.0
H194 H 0.55263 0.12619 0.00971 0.0
H195 H 0.52931 0.08273 1.0018 0.0
H196 H 0.53237 0.03615 0.04043 0.0
H197 H 0.58653 0.07512 0.98375 0.0
H198 H 0.60356 0.10331 0.95575 0.0
H199 H 0.53144 0.07309 0.93044 0.0
H200 H 0.51445 0.04534 0.95879 0.0
H201 H 0.48304 0.96917 0.97365 0.0
H202 H 0.46804 0.92602 0.96619 0.0
H203 H 0.51953 0.92582 0.00819 0.0
H204 H 0.5343 0.96866 0.01557 0.0
H205 H 0.52648 0.00981 0.97026 0.0
H206 H 0.47213 0.96749 0.02155 0.0
H207 H 0.45298 0.93544 0.04656 0.0
H208 H 0.5186 0.97069 0.08189 0.0
H209 H 0.53814 0.00248 0.05643 0.0
C210 C 0.55482 0.07406 0.01569 0.0
C211 C 0.57677 0.08347 0.02627 0.0
C212 C 0.59049 0.10841 0.03042 0.0
C213 C 0.58231 0.1244 0.02434 0.0
C214 C 0.55984 0.11463 0.01426 0.0
C215 C 0.54633 0.08974 0.00986 0.0
C216 C 0.54142 0.04796 0.01008 0.0
C217 C 0.53119 0.03031 0.02514 0.0
C218 C 0.53889 0.04049 0.99002 0.0
C219 C 0.54919 0.05828 0.97345 0.0
C220 C 0.57434 0.07483 0.97234 0.0
C221 C 0.58407 0.09078 0.95622 0.0
C222 C 0.56885 0.09041 0.94084 0.0
C223 C 0.54361 0.07404 0.94214 0.0
C224 C 0.5339 0.05805 0.95825 0.0
C225 C 0.50949 0.97202 0.99542 0.0
C226 C 0.49114 0.95981 0.98115 0.0
C227 C 0.48263 0.93519 0.97688 0.0
C228 C 0.4924 0.92242 0.98678 0.0
C229 C 0.51123 0.93495 1.00064 0.0
C230 C 0.51973 0.95947 0.00484 0.0
C231 C 0.5181 0.99787 1.00065 0.0
C232 C 0.52731 0.01551 0.98556 0.0
C233 C 0.51903 0.0053 0.02065 0.0
C234 C 0.5068 0.98716 0.03685 0.0
C235 C 0.48251 0.96832 0.0346 0.0
C236 C 0.47154 0.95004 0.04892 0.0
C237 C 0.48441 0.95049 0.06604 0.0
C238 C 0.50828 0.96997 0.06883 0.0
C239 C 0.51943 0.98813 0.05431 0.0
H240 H 0.51537 0.49422 0.20641 0.0
H241 H 0.53046 0.48172 0.23492 0.0
H242 H 0.60414 0.52508 0.21281 0.0
H243 H 0.58912 0.53856 0.18513 0.0
H244 H 0.52296 0.53752 0.19682 0.0
H245 H 0.53825 0.47892 0.16314 0.0
H246 H 0.56139 0.45969 0.15176 0.0
H247 H 0.61467 0.52772 0.12485 0.0
H248 H 0.5917 0.54692 0.13654 0.0
H249 H 0.55653 0.58272 0.12077 0.0
H250 H 0.54426 0.60024 0.09383 0.0
H251 H 0.46855 0.55264 0.10917 0.0
H252 H 0.48095 0.53495 0.13598 0.0
H253 H 0.54631 0.53593 0.12677 0.0
H254 H 0.53634 0.59595 0.16296 0.0
H255 H 0.51475 0.61752 0.17239 0.0
H256 H 0.45412 0.5498 0.19345 0.0
H257 H 0.47587 0.52832 0.18404 0.0
C258 C 0.55104 0.51715 0.19346 0.0
C259 C 0.53478 0.501 0.20772 0.0
C260 C 0.54342 0.49369 0.22393 0.0
C261 C 0.56855 0.50242 0.22624 0.0
C262 C 0.58472 0.51826 0.21172 0.0
C263 C 0.5761 0.52572 0.19566 0.0
C264 C 0.54204 0.5261 0.17689 0.0
C265 C 0.52769 0.53668 0.18147 0.0
C266 C 0.54887 0.52588 0.15688 0.0
C267 C 0.56329 0.51437 0.15075 0.0
C268 C 0.55505 0.48974 0.15498 0.0
C269 C 0.56819 0.47874 0.14834 0.0
C270 C 0.58983 0.49219 0.13738 0.0
C271 C 0.59822 0.51695 0.13344 0.0
C272 C 0.58501 0.52788 0.13997 0.0
C273 C 0.51968 0.55769 0.13047 0.0
C274 C 0.53729 0.57603 0.1183 0.0
C275 C 0.53026 0.58611 0.103 0.0
C276 C 0.50544 0.57787 0.09944 0.0
C277 C 0.48779 0.55924 0.11148 0.0
C278 C 0.49486 0.54928 0.12689 0.0
C279 C 0.52732 0.54719 0.14677 0.0
C280 C 0.54142 0.53644 0.14213 0.0
C281 C 0.52059 0.54753 0.16672 0.0
C282 C 0.50759 0.56053 0.17268 0.0
C283 C 0.5184 0.58577 0.16961 0.0
C284 C 0.50614 0.59808 0.17511 0.0
C285 C 0.48277 0.58531 0.18362 0.0
C286 C 0.47204 0.56004 0.18677 0.0
C287 C 0.48445 0.54779 0.1815 0.0
Li288 Li 0.63285 0.40169 0.43134 0.0
Li289 Li 0.62657 0.36447 0.4147 0.0
Li290 Li 0.66564 0.40468 0.40942 0.0
Li291 Li 0.62788 0.39741 0.39394 0.0
C292 C 0.66116 0.3866 0.45288 0.0
N293 N 0.67833 0.38938 0.49109 0.0
C294 C 0.65002 0.36634 0.46547 0.0
C295 C 0.68137 0.40809 0.45962 0.0
C296 C 0.65886 0.36816 0.48476 0.0
C297 C 0.6897 0.40919 0.47901 0.0
C298 C 0.57996 0.36138 0.41419 0.0
C299 C 0.5449 0.3324 0.39543 0.0
N300 N 0.53082 0.32733 0.41196 0.0
C301 C 0.56509 0.35614 0.43092 0.0
C302 C 0.56975 0.34964 0.39624 0.0
C303 C 0.54032 0.33876 0.42952 0.0
C304 C 0.62629 0.43382 0.45774 0.0
N305 N 0.62426 0.41153 0.45538 0.0
C306 C 0.60907 0.40013 0.48843 0.0
C307 C 0.61529 0.39459 0.4701 0.0
C308 C 0.61159 0.4232 0.49155 0.0
C309 C 0.61999 0.44008 0.47584 0.0
H310 H 0.63286 0.44676 0.44562 0.0
H311 H 0.61279 0.37665 0.46754 0.0
C312 C 0.62311 0.31762 0.41252 0.0
N313 N 0.61335 0.33066 0.42033 0.0
C314 C 0.61616 0.29433 0.4199 0.0
C315 C 0.58882 0.29824 0.44267 0.0
C316 C 0.59624 0.32129 0.4349 0.0
C317 C 0.59933 0.28473 0.4356 0.0
H318 H 0.63715 0.32576 0.40129 0.0
H319 H 0.58952 0.33235 0.44143 0.0
C320 C 0.66914 0.44994 0.4117 0.0
N321 N 0.70632 0.49791 0.41463 0.0
C322 C 0.67626 0.46519 0.39506 0.0
C323 C 0.68061 0.45928 0.42991 0.0
C324 C 0.69519 0.48932 0.39681 0.0
C325 C 0.69943 0.48352 0.43107 0.0
C326 C 0.64083 0.36852 0.37137 0.0
C327 C 0.65797 0.37953 0.35618 0.0
C328 C 0.6193 0.3466 0.36769 0.0
C329 C 0.65296 0.36877 0.33738 0.0
C330 C 0.61495 0.33639 0.34871 0.0
N331 N 0.63171 0.34762 0.33406 0.0
C332 C 0.71563 0.41666 0.41496 0.0
C333 C 0.70711 0.43467 0.38756 0.0
C334 C 0.74042 0.42866 0.40995 0.0
N335 N 0.69967 0.42019 0.40392 0.0
C336 C 0.73161 0.44705 0.38207 0.0
C337 C 0.74869 0.4443 0.39341 0.0
H338 H 0.70916 0.40449 0.42758 0.0
H339 H 0.6939 0.43645 0.37865 0.0
C340 C 0.59537 0.40553 0.36888 0.0
N341 N 0.61756 0.40721 0.37082 0.0
C342 C 0.59073 0.41663 0.35275 0.0
C343 C 0.6317 0.43061 0.34099 0.0
C344 C 0.63543 0.41911 0.35713 0.0
C345 C 0.60932 0.42992 0.33888 0.0
H346 H 0.58166 0.39657 0.38025 0.0
H347 H 0.65311 0.42082 0.35934 0.0
O348 O 0.65263 0.38516 0.43395 0.0
O349 O 0.60426 0.37837 0.41533 0.0
O350 O 0.65079 0.42615 0.41022 0.0
O351 O 0.64548 0.37877 0.38988 0.0
H352 H 0.63459 0.34944 0.46048 0.0
H353 H 0.69077 0.42367 0.44994 0.0
H354 H 0.65025 0.35268 0.4947 0.0
H355 H 0.70527 0.42575 0.48441 0.0
H356 H 0.53677 0.32314 0.38164 0.0
H357 H 0.57263 0.36527 0.44487 0.0
H358 H 0.5808 0.35402 0.38301 0.0
H359 H 0.52863 0.33439 0.44239 0.0
H360 H 0.60209 0.3864 0.5 0.0
H361 H 0.62209 0.45803 0.47766 0.0
H362 H 0.62486 0.28459 0.41416 0.0
H363 H 0.57565 0.29145 0.45466 0.0
H364 H 0.6674 0.45847 0.38091 0.0
H365 H 0.67486 0.44804 0.44306 0.0
H366 H 0.70101 0.50124 0.384 0.0
H367 H 0.7085 0.49092 0.44508 0.0
H368 H 0.67495 0.39625 0.35885 0.0
H369 H 0.60617 0.33742 0.37941 0.0
H370 H 0.66598 0.37721 0.32545 0.0
H371 H 0.59831 0.31948 0.34565 0.0
H372 H 0.75299 0.42599 0.41906 0.0
H373 H 0.73706 0.45842 0.36892 0.0
H374 H 0.57333 0.41595 0.35173 0.0
H375 H 0.64647 0.44061 0.33059 0.0
Li376 Li 0.25299 0.63047 0.59733 0.0
Li377 Li 0.28649 0.6275 0.58222 0.0
Li378 Li 0.28678 0.667 0.57938 0.0
Li379 Li 0.25829 0.63142 0.5611 0.0
C380 C 0.29331 0.66416 0.62011 0.0
N381 N 0.30354 0.69369 0.65305 0.0
C382 C 0.31232 0.66802 0.63285 0.0
C383 C 0.27946 0.67527 0.62412 0.0
C384 C 0.31722 0.68302 0.64943 0.0
C385 C 0.28493 0.69015 0.64084 0.0
C386 C 0.24979 0.5824 0.57787 0.0
C387 C 0.25012 0.55108 0.55772 0.0
N388 N 0.24909 0.53854 0.57443 0.0
C389 C 0.24841 0.56904 0.59483 0.0
C390 C 0.25038 0.57322 0.55915 0.0
C391 C 0.24821 0.54699 0.5928 0.0
C392 C 0.21157 0.62082 0.6221 0.0
N393 N 0.23213 0.61925 0.62004 0.0
C394 C 0.2239 0.59714 0.6505 0.0
C395 C 0.2388 0.60831 0.63409 0.0
C396 C 0.20201 0.59746 0.65264 0.0
C397 C 0.19616 0.61003 0.63846 0.0
H398 H 0.20686 0.62998 0.6109 0.0
H399 H 0.25552 0.60784 0.63231 0.0
C400 C 0.32436 0.61512 0.57597 0.0
N401 N 0.3074 0.61485 0.58853 0.0
C402 C 0.34152 0.60909 0.58297 0.0
C403 C 0.32309 0.60228 0.61548 0.0
C404 C 0.30631 0.6083 0.60787 0.0
C405 C 0.34136 0.60317 0.60311 0.0
H406 H 0.32534 0.62105 0.5608 0.0
H407 H 0.29292 0.60867 0.6176 0.0
C408 C 0.23458 0.6557 0.56665 0.0
N409 N 0.20133 0.65915 0.54227 0.0
C410 C 0.24211 0.67601 0.55434 0.0
C411 C 0.21013 0.63719 0.56662 0.0
C412 C 0.22501 0.67741 0.54212 0.0
C413 C 0.19361 0.63926 0.55416 0.0
C414 C 0.30138 0.65013 0.53982 0.0
C415 C 0.31142 0.672 0.52914 0.0
C416 C 0.29856 0.6291 0.53062 0.0
C417 C 0.3181 0.67232 0.50933 0.0
C418 C 0.30546 0.63016 0.51079 0.0
N419 N 0.31499 0.65157 0.50063 0.0
C420 C 0.33086 0.7106 0.57341 0.0
C421 C 0.29816 0.71629 0.58348 0.0
C422 C 0.34616 0.73574 0.57118 0.0
N423 N 0.30726 0.70143 0.5791 0.0
C424 C 0.31287 0.74156 0.58157 0.0
C425 C 0.33712 0.75156 0.57506 0.0
H426 H 0.33761 0.6983 0.57015 0.0
H427 H 0.27932 0.70848 0.58801 0.0
C428 C 0.2188 0.60169 0.53467 0.0
N429 N 0.24031 0.62302 0.5365 0.0
C430 C 0.20367 0.5977 0.51825 0.0
C431 C 0.23355 0.63722 0.50558 0.0
C432 C 0.24788 0.64053 0.52225 0.0
C433 C 0.21075 0.61591 0.50365 0.0
H434 H 0.21277 0.58833 0.54648 0.0
H435 H 0.26434 0.65778 0.52438 0.0
O436 O 0.28835 0.64953 0.60383 0.0
O437 O 0.25033 0.60421 0.57958 0.0
O438 O 0.25117 0.65367 0.57833 0.0
O439 O 0.29477 0.6495 0.55926 0.0
H440 H 0.32319 0.65951 0.62994 0.0
H441 H 0.26462 0.67244 0.61445 0.0
H442 H 0.33189 0.68618 0.65943 0.0
H443 H 0.27438 0.69888 0.64412 0.0
H444 H 0.25069 0.54383 0.54331 0.0
H445 H 0.24764 0.57567 0.60943 0.0
H446 H 0.25094 0.58301 0.54584 0.0
H447 H 0.24735 0.53658 0.60582 0.0
H448 H 0.22932 0.58807 0.66129 0.0
H449 H 0.17945 0.61071 0.63961 0.0
H450 H 0.35548 0.61024 0.573 0.0
H451 H 0.32214 0.59756 0.63104 0.0
H452 H 0.26102 0.69032 0.55394 0.0
H453 H 0.20409 0.62113 0.57577 0.0
H454 H 0.23062 0.69294 0.53242 0.0
H455 H 0.17468 0.62496 0.55384 0.0
H456 H 0.31366 0.68845 0.53595 0.0
H457 H 0.29127 0.61217 0.53873 0.0
H458 H 0.3257 0.68906 0.50085 0.0
H459 H 0.3033 0.61398 0.50349 0.0
H460 H 0.36483 0.7427 0.56641 0.0
H461 H 0.3051 0.75308 0.58458 0.0
H462 H 0.18611 0.58112 0.51755 0.0
H463 H 0.23994 0.65168 0.49465 0.0
Li464 Li 0.67198 0.27932 0.75371 0.0
Li465 Li 0.63378 0.2476 0.76792 0.0
Li466 Li 0.63946 0.2495 0.73204 0.0
Li467 Li 0.63371 0.28049 0.74881 0.0
C468 C 0.67508 0.238 0.74526 0.0
N469 N 0.70926 0.22729 0.73024 0.0
C470 C 0.68118 0.2228 0.75583 0.0
C471 C 0.68629 0.24767 0.72703 0.0
C472 C 0.69854 0.21763 0.748 0.0
C473 C 0.70353 0.24206 0.71968 0.0
C474 C 0.6625 0.28839 0.79223 0.0
C475 C 0.67686 0.31351 0.82157 0.0
N476 N 0.68586 0.29943 0.82857 0.0
C477 C 0.67185 0.27414 0.79975 0.0
C478 C 0.66497 0.30821 0.80323 0.0
C479 C 0.68361 0.28002 0.81813 0.0
C480 C 0.71742 0.32362 0.75467 0.0
N481 N 0.70606 0.29939 0.759 0.0
C482 C 0.74114 0.30466 0.77658 0.0
C483 C 0.71762 0.28969 0.76935 0.0
C484 C 0.75297 0.32989 0.7731 0.0
C485 C 0.74116 0.33931 0.76149 0.0
H486 H 0.70766 0.33092 0.74668 0.0
H487 H 0.70816 0.27051 0.77294 0.0
C488 C 0.62106 0.20407 0.78686 0.0
N489 N 0.62086 0.22523 0.78958 0.0
C490 C 0.61599 0.18798 0.80264 0.0
C491 C 0.6091 0.21499 0.82355 0.0
C492 C 0.61448 0.23071 0.80732 0.0
C493 C 0.61055 0.19366 0.82142 0.0
H494 H 0.62613 0.20017 0.77258 0.0
H495 H 0.61468 0.24778 0.80914 0.0
C496 C 0.66493 0.29604 0.71086 0.0
N497 N 0.67704 0.31805 0.67396 0.0
C498 C 0.6478 0.29895 0.69992 0.0
C499 C 0.68835 0.30467 0.70317 0.0
C500 C 0.65423 0.31002 0.68126 0.0
C501 C 0.69408 0.31564 0.68445 0.0
C502 C 0.5884 0.23897 0.7555 0.0
C503 C 0.56667 0.22015 0.74766 0.0
C504 C 0.58771 0.25184 0.77212 0.0
C505 C 0.54453 0.2145 0.75658 0.0
C506 C 0.5652 0.24564 0.78061 0.0
N507 N 0.54426 0.22725 0.77274 0.0
C508 C 0.62741 0.20591 0.71292 0.0
C509 C 0.62412 0.23392 0.69166 0.0
C510 C 0.61739 0.18779 0.69842 0.0
N511 N 0.63041 0.2284 0.70942 0.0
C512 C 0.61393 0.21627 0.6767 0.0
C513 C 0.60991 0.19264 0.68019 0.0
H514 H 0.63189 0.20169 0.72732 0.0
H515 H 0.62588 0.25158 0.68936 0.0
C516 C 0.63474 0.32478 0.75426 0.0
N517 N 0.62136 0.30225 0.74611 0.0
C518 C 0.62727 0.34201 0.75226 0.0
C519 C 0.59245 0.3126 0.73333 0.0
C520 C 0.60052 0.29585 0.73583 0.0
C521 C 0.60591 0.33605 0.74161 0.0
H522 H 0.6514 0.32943 0.76213 0.0
H523 H 0.59033 0.27785 0.72936 0.0
O524 O 0.65828 0.24337 0.75286 0.0
O525 O 0.65101 0.2831 0.77421 0.0
O526 O 0.65918 0.28571 0.72934 0.0
O527 O 0.61017 0.24463 0.74686 0.0
H528 H 0.67273 0.21523 0.77001 0.0
H529 H 0.6816 0.25923 0.71858 0.0
H530 H 0.7035 0.20597 0.75605 0.0
H531 H 0.71233 0.24942 0.70558 0.0
H532 H 0.67892 0.32881 0.83023 0.0
H533 H 0.67006 0.25869 0.79148 0.0
H534 H 0.65778 0.31939 0.79765 0.0
H535 H 0.69096 0.26916 0.8241 0.0
H536 H 0.74972 0.29669 0.78535 0.0
H537 H 0.74965 0.3587 0.75862 0.0
H538 H 0.61693 0.17154 0.8003 0.0
H539 H 0.60511 0.22007 0.83782 0.0
H540 H 0.62963 0.29243 0.70565 0.0
H541 H 0.702 0.303 0.71159 0.0
H542 H 0.64108 0.31221 0.67257 0.0
H543 H 0.7121 0.32232 0.67828 0.0
H544 H 0.56693 0.21003 0.7348 0.0
H545 H 0.60431 0.2665 0.77838 0.0
H546 H 0.52755 0.19998 0.75067 0.0
H547 H 0.56439 0.25545 0.79346 0.0
H548 H 0.61489 0.16993 0.7017 0.0
H549 H 0.60809 0.22071 0.66298 0.0
H550 H 0.63837 0.35998 0.75864 0.0
H551 H 0.5758 0.30722 0.72513 0.0
Li552 Li 0.40745 0.6392 0.92846 0.0
Li553 Li 0.41289 0.67921 0.91267 0.0
Li554 Li 0.37621 0.63895 0.90704 0.0
Li555 Li 0.41244 0.64718 0.89237 0.0
C556 C 0.36865 0.65323 0.94226 0.0
N557 N 0.32648 0.64582 0.96062 0.0
C558 C 0.35834 0.66747 0.93702 0.0
C559 C 0.35767 0.63536 0.95693 0.0
C560 C 0.33695 0.66339 0.94643 0.0
C561 C 0.33633 0.63187 0.96603 0.0
C562 C 0.45755 0.67122 0.90639 0.0
C563 C 0.49495 0.69798 0.88916 0.0
N564 N 0.50108 0.68023 0.88965 0.0
C565 C 0.46427 0.6533 0.90686 0.0
C566 C 0.473 0.69378 0.89758 0.0
C567 C 0.48634 0.65819 0.89825 0.0
C568 C 0.42227 0.61088 0.95199 0.0
N569 N 0.41687 0.62915 0.95174 0.0
C570 C 0.43039 0.63981 0.98522 0.0
C571 C 0.42041 0.6433 0.96795 0.0
C572 C 0.43695 0.62165 0.98582 0.0
C573 C 0.43226 0.60668 0.96907 0.0
H574 H 0.41961 0.60017 0.93875 0.0
H575 H 0.4162 0.65786 0.96721 0.0
C576 C 0.41523 0.72562 0.91365 0.0
N577 N 0.42558 0.71234 0.91962 0.0
C578 C 0.4229 0.74862 0.92194 0.0
C579 C 0.45201 0.74385 0.9419 0.0
C580 C 0.4439 0.72112 0.93319 0.0
C581 C 0.44107 0.75766 0.93667 0.0
H582 H 0.40036 0.71793 0.90309 0.0
H583 H 0.45153 0.70996 0.93782 0.0
C584 C 0.36976 0.59416 0.90545 0.0
N585 N 0.32841 0.54865 0.90336 0.0
C586 C 0.3571 0.58589 0.88754 0.0
C587 C 0.3616 0.5792 0.92224 0.0
C588 C 0.33616 0.56286 0.88681 0.0
C589 C 0.3406 0.55626 0.92089 0.0
C590 C 0.39865 0.67185 0.86843 0.0
C591 C 0.38631 0.65425 0.85379 0.0
C592 C 0.4148 0.69599 0.86294 0.0
C593 C 0.39069 0.66104 0.83382 0.0
C594 C 0.41863 0.70205 0.8428 0.0
N595 N 0.40663 0.68459 0.82879 0.0
C596 C 0.33389 0.63468 0.88946 0.0
C597 C 0.32527 0.60644 0.91556 0.0
C598 C 0.30906 0.62622 0.88674 0.0
N599 N 0.34153 0.62475 0.90367 0.0
C600 C 0.30026 0.59736 0.91331 0.0
C601 C 0.29183 0.60737 0.89882 0.0
H602 H 0.3471 0.64957 0.88047 0.0
H603 H 0.33167 0.5991 0.92702 0.0
C604 C 0.4221 0.6182 0.86628 0.0
N605 N 0.42717 0.64147 0.8695 0.0
C606 C 0.43214 0.61265 0.85002 0.0
C607 C 0.45245 0.65512 0.84056 0.0
C608 C 0.44233 0.6599 0.85718 0.0
C609 C 0.44745 0.6312 0.83675 0.0
H610 H 0.41041 0.60391 0.87648 0.0
H611 H 0.44662 0.67836 0.86022 0.0
O612 O 0.38923 0.65656 0.93288 0.0
O613 O 0.43577 0.66658 0.9143 0.0
O614 O 0.39031 0.61662 0.90646 0.0
O615 O 0.39456 0.66561 0.88805 0.0
H616 H 0.36659 0.68129 0.92561 0.0
H617 H 0.3654 0.62412 0.96106 0.0
H618 H 0.32865 0.67413 0.94243 0.0
H619 H 0.32753 0.61801 0.97733 0.0
H620 H 0.50705 0.7153 0.88218 0.0
H621 H 0.45241 0.63571 0.91358 0.0
H622 H 0.46796 0.70779 0.89705 0.0
H623 H 0.49172 0.64444 0.89836 0.0
H624 H 0.43342 0.65155 0.99787 0.0
H625 H 0.43726 0.59263 0.96888 0.0
H626 H 0.41389 0.75863 0.91764 0.0
H627 H 0.46625 0.75029 0.95303 0.0
H628 H 0.36334 0.59719 0.87438 0.0
H629 H 0.37121 0.58534 0.93621 0.0
H630 H 0.32608 0.55628 0.87308 0.0
H631 H 0.33397 0.54454 0.93379 0.0
H632 H 0.37361 0.63555 0.85782 0.0
H633 H 0.42446 0.70982 0.87409 0.0
H634 H 0.3814 0.64759 0.82233 0.0
H635 H 0.4312 0.72062 0.83832 0.0
H636 H 0.30349 0.63482 0.87563 0.0
H637 H 0.28767 0.58265 0.92286 0.0
H638 H 0.42818 0.59405 0.84811 0.0
H639 H 0.46388 0.67007 0.83073 0.0
Li640 Li 0.75994 0.41377 0.08097 0.0
Li641 Li 0.7894 0.40759 0.09941 0.0
Li642 Li 0.7882 0.40657 0.06308 0.0
Li643 Li 0.75579 0.37249 0.0804 0.0
C644 C 0.79849 0.45702 0.07814 0.0
N645 N 0.80156 0.50179 0.073 0.0
C646 C 0.80272 0.47232 0.09442 0.0
C647 C 0.79621 0.46468 0.05921 0.0
C648 C 0.8041 0.49483 0.09153 0.0
C649 C 0.79772 0.48732 0.05692 0.0
C650 C 0.74719 0.37846 0.12084 0.0
C651 C 0.74799 0.34853 0.14248 0.0
N652 N 0.73498 0.35301 0.15623 0.0
C653 C 0.73387 0.38281 0.13518 0.0
C654 C 0.75438 0.36123 0.1245 0.0
C655 C 0.72786 0.36974 0.15298 0.0
C656 C 0.72342 0.4244 0.06892 0.0
N657 N 0.74021 0.42849 0.08318 0.0
C658 C 0.72328 0.44651 0.10439 0.0
C659 C 0.74066 0.43957 0.10059 0.0
C660 C 0.70507 0.44161 0.09026 0.0
C661 C 0.70567 0.43097 0.07211 0.0
H662 H 0.72298 0.4149 0.05548 0.0
H663 H 0.75374 0.44187 0.11193 0.0
C664 C 0.8264 0.41299 0.12745 0.0
N665 N 0.80797 0.4175 0.12337 0.0
C666 C 0.84106 0.42334 0.14425 0.0
C667 C 0.81668 0.44164 0.15271 0.0
C668 C 0.80245 0.43084 0.13591 0.0
C669 C 0.83666 0.43845 0.1568 0.0
H670 H 0.83017 0.40195 0.11745 0.0
H671 H 0.78735 0.43366 0.13251 0.0
C672 C 0.74828 0.38778 0.03859 0.0
N673 N 0.73926 0.38042 0.99829 0.0
C674 C 0.74017 0.36471 0.03032 0.0
C675 C 0.75143 0.40699 0.02636 0.0
C676 C 0.73582 0.36139 0.00992 0.0
C677 C 0.74689 0.40294 0.00603 0.0
C678 C 0.81047 0.38251 0.07363 0.0
C679 C 0.80723 0.36205 0.06313 0.0
C680 C 0.83374 0.40305 0.07506 0.0
C681 C 0.82737 0.36254 0.05416 0.0
C682 C 0.85341 0.40283 0.06587 0.0
N683 N 0.84985 0.38275 0.05569 0.0
C684 C 0.82797 0.4358 0.03642 0.0
C685 C 0.80241 0.39456 0.02708 0.0
C686 C 0.84339 0.43957 0.02025 0.0
N687 N 0.80796 0.4135 0.03955 0.0
C688 C 0.81714 0.39753 0.01075 0.0
C689 C 0.83822 0.42014 0.00731 0.0
H690 H 0.83245 0.45043 0.04684 0.0
H691 H 0.78707 0.37677 0.03025 0.0
C692 C 0.70896 0.33528 0.07477 0.0
N693 N 0.73155 0.33902 0.079 0.0
C694 C 0.69038 0.31226 0.06907 0.0
C695 C 0.71809 0.29681 0.07373 0.0
C696 C 0.7363 0.32031 0.07919 0.0
C697 C 0.69507 0.29285 0.06787 0.0
H698 H 0.70584 0.3506 0.07464 0.0
H699 H 0.75446 0.32383 0.08263 0.0
O700 O 0.79657 0.43467 0.0807 0.0
O701 O 0.75352 0.3914 0.10349 0.0
O702 O 0.7525 0.39136 0.05859 0.0
O703 O 0.79089 0.38271 0.082 0.0
H704 H 0.80483 0.46688 0.10914 0.0
H705 H 0.79343 0.45331 0.04642 0.0
H706 H 0.8072 0.50677 0.10402 0.0
H707 H 0.79587 0.49341 0.04235 0.0
H708 H 0.75343 0.33514 0.14553 0.0
H709 H 0.72831 0.39621 0.13258 0.0
H710 H 0.76487 0.35777 0.11365 0.0
H711 H 0.71756 0.37291 0.16422 0.0
H712 H 0.72327 0.45432 0.11869 0.0
H713 H 0.69207 0.42702 0.06076 0.0
H714 H 0.85627 0.4204 0.14691 0.0
H715 H 0.81236 0.45276 0.16222 0.0
H716 H 0.73771 0.3496 0.03945 0.0
H717 H 0.75715 0.42482 0.03249 0.0
H718 H 0.72976 0.34369 0.00333 0.0
H719 H 0.74935 0.41769 0.99641 0.0
H720 H 0.78931 0.34613 0.06162 0.0
H721 H 0.83649 0.41919 0.08285 0.0
H722 H 0.82511 0.3469 0.04588 0.0
H723 H 0.87149 0.41867 0.06672 0.0
H724 H 0.85964 0.45722 0.01837 0.0
H725 H 0.81223 0.38206 1.00112 0.0
H726 H 0.67279 0.30986 0.06489 0.0
H727 H 0.72239 0.28228 0.07293 0.0
Li728 Li 0.40777 0.78579 0.27027 0.0
Li729 Li 0.36812 0.75473 0.25763 0.0
Li730 Li 0.40373 0.75421 0.2472 0.0
Li731 Li 0.39667 0.78704 0.23539 0.0
C732 C 0.40032 0.73729 0.28324 0.0
N733 N 0.42003 0.71082 0.29932 0.0
C734 C 0.38503 0.71356 0.29012 0.0
C735 C 0.42563 0.74762 0.28465 0.0
C736 C 0.39536 0.70046 0.29818 0.0
C737 C 0.43524 0.73392 0.29279 0.0
C738 C 0.37028 0.79645 0.27472 0.0
C739 C 0.35442 0.821 0.28826 0.0
N740 N 0.34968 0.80855 0.30567 0.0
C741 C 0.36528 0.78392 0.29277 0.0
C742 C 0.36486 0.81517 0.27244 0.0
C743 C 0.35485 0.7903 0.30823 0.0
C744 C 0.43245 0.8303 0.29116 0.0
N745 N 0.42367 0.80588 0.29276 0.0
C746 C 0.43377 0.81003 0.32728 0.0
C747 C 0.42404 0.79558 0.31038 0.0
C748 C 0.44276 0.83526 0.32614 0.0
C749 C 0.44204 0.84541 0.30778 0.0
H750 H 0.43149 0.83792 0.27704 0.0
H751 H 0.4162 0.77606 0.31149 0.0
C752 C 0.32836 0.70851 0.26286 0.0
N753 N 0.33455 0.73237 0.26383 0.0
C754 C 0.30423 0.69013 0.26556 0.0
C755 C 0.29317 0.72111 0.27089 0.0
C756 C 0.31754 0.73898 0.26772 0.0
C757 C 0.28629 0.69635 0.26956 0.0
H758 H 0.34216 0.70379 0.25943 0.0
H759 H 0.32267 0.75802 0.2679 0.0
C760 C 0.44448 0.79595 0.23143 0.0
N761 N 0.47808 0.80847 0.20112 0.0
C762 C 0.43702 0.78515 0.21271 0.0
C763 C 0.46899 0.81314 0.2347 0.0
C764 C 0.4543 0.79172 0.19759 0.0
C765 C 0.48571 0.8192 0.21919 0.0
C766 C 0.35512 0.73799 0.2213 0.0
C767 C 0.34809 0.71488 0.21365 0.0
C768 C 0.33886 0.74686 0.22052 0.0
C769 C 0.32476 0.70087 0.2056 0.0
C770 C 0.31569 0.73229 0.21236 0.0
N771 N 0.30917 0.70977 0.20515 0.0
C772 C 0.39597 0.70775 0.24036 0.0
C773 C 0.43718 0.73763 0.2345 0.0
C774 C 0.40036 0.68924 0.23434 0.0
N775 N 0.4141 0.73143 0.23998 0.0
C776 C 0.44234 0.71969 0.22803 0.0
C777 C 0.42367 0.69508 0.22756 0.0
H778 H 0.37792 0.70326 0.24522 0.0
H779 H 0.45157 0.75647 0.23484 0.0
C780 C 0.42238 0.83095 0.21345 0.0
N781 N 0.40235 0.80824 0.21321 0.0
C782 C 0.42972 0.84524 0.19622 0.0
C783 C 0.39482 0.81314 0.17923 0.0
C784 C 0.38843 0.79935 0.19663 0.0
C785 C 0.41617 0.83614 0.17862 0.0
H786 H 0.43339 0.83745 0.22674 0.0
H787 H 0.37291 0.78114 0.19655 0.0
O788 O 0.39063 0.7502 0.27477 0.0
O789 O 0.38093 0.79093 0.25945 0.0
O790 O 0.42788 0.79029 0.2464 0.0
O791 O 0.37762 0.7517 0.22983 0.0
H792 H 0.36542 0.70533 0.28922 0.0
H793 H 0.43771 0.76593 0.27928 0.0
H794 H 0.38375 0.68205 0.30352 0.0
H795 H 0.45478 0.74163 0.29387 0.0
H796 H 0.35012 0.83544 0.2867 0.0
H797 H 0.36936 0.7694 0.29485 0.0
H798 H 0.36875 0.82513 0.2586 0.0
H799 H 0.35088 0.78075 0.32226 0.0
H800 H 0.4336 0.80144 0.34123 0.0
H801 H 0.44885 0.8648 0.30629 0.0
H802 H 0.29963 0.67123 0.26448 0.0
H803 H 0.27973 0.72656 0.27372 0.0
H804 H 0.41815 0.77184 0.20985 0.0
H805 H 0.47501 0.82176 0.24907 0.0
H806 H 0.44879 0.78352 0.18305 0.0
H807 H 0.50475 0.83248 0.22152 0.0
H808 H 0.3605 0.70781 0.2139 0.0
H809 H 0.34398 0.76468 0.22646 0.0
H810 H 0.31905 0.68291 0.1997 0.0
H811 H 0.30286 0.73884 0.21184 0.0
H812 H 0.38554 0.67054 0.23491 0.0
H813 H 0.4606 0.72518 0.22296 0.0
H814 H 0.44646 0.86269 0.19651 0.0
H815 H 0.38342 0.8055 0.16624 0.0
H816 H 0.15632 0.62273 0.32251 0.0
H817 H 0.13269 0.57272 0.27246 0.0
H818 H 0.17365 0.59626 0.25773 0.0
H819 H 0.1921 0.67697 0.29353 0.0
H820 H 0.21541 0.69157 0.3122 0.0
H821 H 0.18454 0.67009 0.31942 0.0
H822 H 0.19972 0.64459 0.3384 0.0
H823 H 0.23064 0.66601 0.33127 0.0
H824 H 0.21771 0.63409 0.32551 0.0
H825 H 0.21717 0.62512 0.24835 0.0
H826 H 0.26002 0.65813 0.2446 0.0
H827 H 0.25455 0.69083 0.29951 0.0
C828 C 0.1596 0.61675 0.30837 0.0
C829 C 0.14114 0.59564 0.29879 0.0
C830 C 0.14653 0.58843 0.28041 0.0
C831 C 0.16973 0.60182 0.2718 0.0
C832 C 0.18735 0.62255 0.2816 0.0
C833 C 0.18254 0.63007 0.29942 0.0
C834 C 0.20454 0.65337 0.30666 0.0
C835 C 0.1988 0.67423 0.30803 0.0
C836 C 0.21369 0.64926 0.32664 0.0
C837 C 0.22247 0.65776 0.29011 0.0
C838 C 0.21222 0.63966 0.27587 0.0
C839 C 0.22537 0.63943 0.25937 0.0
C840 C 0.24966 0.65818 0.25739 0.0
C841 C 0.26047 0.67698 0.27174 0.0
C842 C 0.24661 0.6768 0.28823 0.0
H843 H 0.55992 0.14346 0.44592 0.0
H844 H 0.55866 0.15316 0.50955 0.0
H845 H 0.57447 0.19721 0.50464 0.0
H846 H 0.6153 0.20273 0.43541 0.0
H847 H 0.60322 0.20706 0.41251 0.0
H848 H 0.59405 0.17667 0.42103 0.0
H849 H 0.54872 0.16542 0.41931 0.0
H850 H 0.55774 0.19577 0.41089 0.0
H851 H 0.53892 0.18367 0.43269 0.0
H852 H 0.58764 0.23909 0.49308 0.0
H853 H 0.59759 0.27704 0.47547 0.0
H854 H 0.58972 0.24087 0.41896 0.0
C855 C 0.56349 0.15504 0.45878 0.0
C856 C 0.55821 0.14506 0.47813 0.0
C857 C 0.56258 0.16054 0.49463 0.0
C858 C 0.57162 0.18554 0.49199 0.0
C859 C 0.57618 0.19478 0.47274 0.0
C860 C 0.57235 0.18011 0.45638 0.0
C861 C 0.57735 0.19456 0.43727 0.0
C862 C 0.59876 0.1953 0.42589 0.0
C863 C 0.55431 0.18424 0.42428 0.0
C864 C 0.58416 0.2195 0.44546 0.0
C865 C 0.58352 0.21916 0.46597 0.0
C866 C 0.58829 0.23963 0.47702 0.0
C867 C 0.59372 0.26104 0.46687 0.0
C868 C 0.5942 0.26186 0.44584 0.0
C869 C 0.58964 0.24083 0.43503 0.0
H870 H 0.43154 0.54907 0.61112 0.0
H871 H 0.45638 0.58774 0.66713 0.0
H872 H 0.42946 0.60503 0.66226 0.0
H873 H 0.4258 0.59618 0.58474 0.0
H874 H 0.39862 0.57465 0.57165 0.0
H875 H 0.42078 0.5662 0.57897 0.0
H876 H 0.38715 0.52865 0.59773 0.0
H877 H 0.36491 0.53699 0.5905 0.0
H878 H 0.36923 0.53297 0.61638 0.0
H879 H 0.39862 0.61653 0.65234 0.0
H880 H 0.36638 0.62247 0.63748 0.0
H881 H 0.3609 0.57614 0.58796 0.0
C882 C 0.43137 0.56122 0.62233 0.0
C883 C 0.44625 0.56718 0.63945 0.0
C884 C 0.44554 0.58326 0.65372 0.0
C885 C 0.43018 0.59306 0.65116 0.0
C886 C 0.41565 0.58667 0.63422 0.0
C887 C 0.41615 0.57122 0.62 0.0
C888 C 0.39827 0.56692 0.60337 0.0
C889 C 0.41167 0.57657 0.58351 0.0
C890 C 0.37874 0.53977 0.60192 0.0
C891 C 0.38744 0.58214 0.61062 0.0
C892 C 0.39777 0.59337 0.62844 0.0
C893 C 0.39042 0.60789 0.63836 0.0
C894 C 0.37198 0.61101 0.62987 0.0
C895 C 0.36103 0.59966 0.61163 0.0
C896 C 0.36905 0.58519 0.60184 0.0
H897 H 0.89401 0.43288 0.78091 0.0
H898 H 0.88967 0.41352 0.8432 0.0
H899 H 0.8458 0.38415 0.83942 0.0
H900 H 0.83366 0.42802 0.77814 0.0
H901 H 0.82764 0.41528 0.75348 0.0
H902 H 0.85857 0.43584 0.76121 0.0
H903 H 0.87044 0.40336 0.75217 0.0
H904 H 0.83956 0.38268 0.7445 0.0
H905 H 0.85376 0.37336 0.76306 0.0
H906 H 0.8034 0.35536 0.82878 0.0
H907 H 0.76414 0.3293 0.81195 0.0
H908 H 0.79493 0.36733 0.75654 0.0
C909 C 0.88371 0.42272 0.7938 0.0
C910 C 0.89531 0.42535 0.81233 0.0
C911 C 0.88127 0.41152 0.8288 0.0
C912 C 0.8563 0.39491 0.82683 0.0
C913 C 0.84554 0.39241 0.80833 0.0
C914 C 0.85867 0.40599 0.7921 0.0
C915 C 0.84264 0.39908 0.77375 0.0
C916 C 0.8405 0.42085 0.7662 0.0
C917 C 0.85217 0.38902 0.75741 0.0
C918 C 0.8186 0.37926 0.78218 0.0
C919 C 0.82075 0.3758 0.80217 0.0
C920 C 0.80142 0.35797 0.81315 0.0
C921 C 0.77926 0.34316 0.80345 0.0
C922 C 0.77657 0.34625 0.78295 0.0
C923 C 0.79646 0.36473 0.77225 0.0
H924 H 0.48048 0.8983 0.95085 0.0
H925 H 0.48284 0.88691 0.01419 0.0
H926 H 0.46918 0.84355 0.00814 0.0
H927 H 0.42604 0.8394 0.94068 0.0
H928 H 0.43724 0.83581 0.91706 0.0
H929 H 0.4465 0.8659 0.92634 0.0
H930 H 0.49186 0.87766 0.92293 0.0
H931 H 0.48275 0.8476 0.91371 0.0
H932 H 0.50245 0.85928 0.93507 0.0
H933 H 0.45701 0.80214 0.99539 0.0
H934 H 0.44588 0.76453 0.97667 0.0
H935 H 0.45047 0.80203 0.9215 0.0
C936 C 0.47778 0.8866 0.96346 0.0
C937 C 0.48291 0.89606 0.983 0.0
C938 C 0.47944 0.88019 0.99907 0.0
C939 C 0.47152 0.85549 0.9958 0.0
C940 C 0.46699 0.84685 0.97638 0.0
C941 C 0.46983 0.86182 0.96047 0.0
C942 C 0.46415 0.8479 0.94104 0.0
C943 C 0.44217 0.84721 0.93067 0.0
C944 C 0.48664 0.85876 0.92739 0.0
C945 C 0.45792 0.82286 0.94854 0.0
C946 C 0.45968 0.82272 0.96898 0.0
C947 C 0.45548 0.80197 0.97938 0.0
C948 C 0.44934 0.78076 0.96861 0.0
C949 C 0.44744 0.7804 0.94764 0.0
C950 C 0.45162 0.80173 0.93752 0.0
H951 H 0.63934 0.50991 0.13731 0.0
H952 H 0.57042 0.44768 0.11926 0.0
H953 H 0.59247 0.42828 0.10497 0.0
H954 H 0.67366 0.5116 0.09427 0.0
H955 H 0.7012 0.51987 0.10794 0.0
H956 H 0.68003 0.52878 0.11699 0.0
H957 H 0.67711 0.5075 0.15058 0.0
H958 H 0.69834 0.49859 0.14165 0.0
H959 H 0.66886 0.47581 0.15081 0.0
H960 H 0.6219 0.41608 0.09203 0.0
H961 H 0.65666 0.41079 0.08279 0.0
H962 H 0.70664 0.48103 0.10908 0.0
C963 C 0.6289 0.49223 0.1303 0.0
C964 C 0.60315 0.48027 0.12942 0.0
C965 C 0.59013 0.45703 0.12032 0.0
C966 C 0.60249 0.44595 0.11204 0.0
C967 C 0.62788 0.45831 0.11305 0.0
C968 C 0.64095 0.48085 0.12205 0.0
C969 C 0.66813 0.4901 0.1213 0.0
C970 C 0.68154 0.514 0.10942 0.0
C971 C 0.67872 0.49317 0.14234 0.0
C972 C 0.66829 0.46925 0.1104 0.0
C973 C 0.64488 0.45117 0.10571 0.0
C974 C 0.64033 0.43013 0.09559 0.0
C975 C 0.66022 0.4274 0.09026 0.0
C976 C 0.6844 0.44557 0.09508 0.0
C977 C 0.68838 0.46678 0.10526 0.0
H978 H 0.42792 0.87304 0.51534 0.0
H979 H 0.41792 0.91369 0.56271 0.0
H980 H 0.39182 0.87534 0.58068 0.0
H981 H 0.36731 0.82253 0.51588 0.0
H982 H 0.37605 0.79992 0.51115 0.0
H983 H 0.39489 0.83066 0.50231 0.0
H984 H 0.43206 0.83349 0.52089 0.0
H985 H 0.41332 0.80273 0.52979 0.0
H986 H 0.42988 0.82725 0.54715 0.0
H987 H 0.36566 0.83277 0.59301 0.0
H988 H 0.34118 0.78839 0.59897 0.0
H989 H 0.36796 0.77507 0.54378 0.0
C990 C 0.42046 0.87385 0.5296 0.0
C991 C 0.42481 0.89634 0.53755 0.0
C992 C 0.41451 0.89664 0.55617 0.0
C993 C 0.3998 0.87498 0.56657 0.0
C994 C 0.39558 0.85311 0.55822 0.0
C995 C 0.40562 0.85232 0.5402 0.0
C996 C 0.39755 0.82625 0.53432 0.0
C997 C 0.38309 0.81944 0.51476 0.0
C998 C 0.41952 0.8222 0.53297 0.0
C999 C 0.38128 0.81257 0.55177 0.0
C1000 C 0.38048 0.82844 0.5654 0.0
C1001 C 0.36619 0.82014 0.58248 0.0
C1002 C 0.35225 0.79491 0.58569 0.0
C1003 C 0.35267 0.77826 0.57188 0.0
C1004 C 0.36754 0.78733 0.55477 0.0
H1005 H 0.55895 0.41437 0.6824 0.0
H1006 H 0.56605 0.45291 0.73753 0.0
H1007 H 0.57987 0.42746 0.75448 0.0
H1008 H 0.53586 0.35468 0.70449 0.0
H1009 H 0.55217 0.34578 0.68767 0.0
H1010 H 0.54294 0.36715 0.67973 0.0
H1011 H 0.5877 0.39841 0.67058 0.0
H1012 H 0.59706 0.37715 0.67846 0.0
H1013 H 0.61124 0.40731 0.68907 0.0
H1014 H 0.5932 0.39816 0.76547 0.0
H1015 H 0.60514 0.3668 0.76976 0.0
H1016 H 0.5888 0.34672 0.70772 0.0
C1017 C 0.56322 0.41733 0.69807 0.0
C1018 C 0.56155 0.4358 0.70858 0.0
C1019 C 0.56759 0.43922 0.72904 0.0
C1020 C 0.57529 0.42472 0.73886 0.0
C1021 C 0.57678 0.40677 0.72806 0.0
C1022 C 0.5709 0.40298 0.70813 0.0
C1023 C 0.57422 0.38251 0.69998 0.0
C1024 C 0.54985 0.36127 0.69253 0.0
C1025 C 0.59372 0.39191 0.68355 0.0
C1026 C 0.58293 0.37544 0.71844 0.0
C1027 C 0.58428 0.38969 0.73446 0.0
C1028 C 0.59221 0.38688 0.75304 0.0
C1029 C 0.59906 0.36911 0.75531 0.0
C1030 C 0.59791 0.35432 0.73909 0.0
C1031 C 0.58959 0.35752 0.72046 0.0
H1032 H 0.1666 0.56646 0.84082 0.0
H1033 H 0.13097 0.54938 0.8983 0.0
H1034 H 0.1708 0.56451 0.91479 0.0
H1035 H 0.20913 0.54731 0.85248 0.0
H1036 H 0.23398 0.57104 0.83853 0.0
H1037 H 0.20296 0.56063 0.83118 0.0
H1038 H 0.21082 0.60486 0.83334 0.0
H1039 H 0.24193 0.61543 0.84062 0.0
H1040 H 0.22255 0.62185 0.85605 0.0
H1041 H 0.21393 0.57992 0.92503 0.0
H1042 H 0.25792 0.59474 0.92845 0.0
H1043 H 0.26573 0.60049 0.8643 0.0
C1044 C 0.16733 0.56633 0.85687 0.0
C1045 C 0.1458 0.55684 0.86833 0.0
C1046 C 0.1473 0.55651 0.8893 0.0
C1047 C 0.16982 0.56512 0.89878 0.0
C1048 C 0.19067 0.57395 0.88709 0.0
C1049 C 0.1897 0.57466 0.86661 0.0
C1050 C 0.21477 0.58401 0.85757 0.0
C1051 C 0.21523 0.56459 0.84415 0.0
C1052 C 0.223 0.60796 0.84623 0.0
C1053 C 0.22987 0.58824 0.87617 0.0
C1054 C 0.21561 0.58244 0.89302 0.0
C1055 C 0.22531 0.58451 0.91194 0.0
C1056 C 0.2503 0.59274 0.91372 0.0
C1057 C 0.26534 0.59867 0.89666 0.0
C1058 C 0.25485 0.59639 0.87766 0.0
H1059 H 0.61174 0.14804 0.05665 0.0
H1060 H 0.58785 0.16168 1.00001 0.0
H1061 H 0.61297 0.20587 0.00569 0.0
H1062 H 0.61491 0.19862 0.08346 0.0
H1063 H 0.64227 0.2053 0.09675 0.0
H1064 H 0.62144 0.17456 0.0888 0.0
H1065 H 0.65654 0.1733 0.07007 0.0
H1066 H 0.67748 0.20402 0.07797 0.0
H1067 H 0.67403 0.19652 0.05192 0.0
H1068 H 0.64063 0.24846 0.01723 0.0
H1069 H 0.67057 0.28695 0.03332 0.0
H1070 H 0.67871 0.2461 0.08153 0.0
C1071 C 0.61185 0.16024 0.04533 0.0
C1072 C 0.59747 0.15117 0.02795 0.0
C1073 C 0.59811 0.16798 0.01369 0.0
C1074 C 0.61251 0.19319 0.01669 0.0
C1075 C 0.62643 0.20141 0.03393 0.0
C1076 C 0.62639 0.18549 0.04796 0.0
C1077 C 0.64365 0.19916 0.06491 0.0
C1078 C 0.62973 0.19411 0.08465 0.0
C1079 C 0.66414 0.19287 0.06629 0.0
C1080 C 0.65341 0.22527 0.05818 0.0
C1081 C 0.64304 0.22609 0.04034 0.0
C1082 C 0.64887 0.24807 0.0312 0.0
C1083 C 0.66578 0.26981 0.0405 0.0
C1084 C 0.67682 0.26947 0.0587 0.0
C1085 C 0.67059 0.24686 0.06759 0.0
H1086 H 0.50003 0.62816 0.20431 0.0
H1087 H 0.43555 0.57167 0.17474 0.0
H1088 H 0.41344 0.59354 0.18284 0.0
H1089 H 0.46799 0.63804 0.24442 0.0
H1090 H 0.48868 0.6705 0.24535 0.0
H1091 H 0.49942 0.65043 0.23716 0.0
H1092 H 0.51464 0.6748 0.20431 0.0
H1093 H 0.50389 0.6949 0.21238 0.0
H1094 H 0.4936 0.67897 0.18907 0.0
H1095 H 0.39898 0.62225 0.19298 0.0
H1096 H 0.39218 0.65469 0.2059 0.0
H1097 H 0.46542 0.69155 0.23064 0.0
C1098 C 0.48128 0.62047 0.19951 0.0
C1099 C 0.46946 0.59826 0.18888 0.0
C1100 C 0.44484 0.58857 0.18303 0.0
C1101 C 0.4322 0.60091 0.18748 0.0
C1102 C 0.44439 0.62279 0.19794 0.0
C1103 C 0.46831 0.63241 0.20402 0.0
C1104 C 0.47702 0.65604 0.21533 0.0
C1105 C 0.48366 0.65359 0.23684 0.0
C1106 C 0.49856 0.67744 0.20463 0.0
C1107 C 0.45432 0.65831 0.2145 0.0
C1108 C 0.43578 0.63899 0.20433 0.0
C1109 C 0.41326 0.63731 0.20121 0.0
C1110 C 0.40953 0.6558 0.20878 0.0
C1111 C 0.42811 0.67567 0.21958 0.0
C1112 C 0.45083 0.67681 0.22239 0.0
H1113 H 0.88107 0.4626 0.3707 0.0
H1114 H 0.90263 0.53653 0.35263 0.0
H1115 H 0.86154 0.52916 0.3608 0.0
H1116 H 0.81968 0.43453 0.3511 0.0
H1117 H 0.8065 0.41311 0.37128 0.0
H1118 H 0.83773 0.42422 0.36414 0.0
H1119 H 0.85163 0.43881 0.40019 0.0
H1120 H 0.82045 0.42789 0.40741 0.0
H1121 H 0.84328 0.45928 0.41174 0.0
H1122 H 0.81847 0.5141 0.37085 0.0
H1123 H 0.77547 0.49185 0.3816 0.0
H1124 H 0.78116 0.42729 0.39262 0.0
C1125 C 0.87707 0.47716 0.36832 0.0
C1126 C 0.89515 0.50022 0.36117 0.0
C1127 C 0.88924 0.51886 0.35842 0.0
C1128 C 0.86591 0.51482 0.36292 0.0
C1129 C 0.84863 0.49202 0.37013 0.0
C1130 C 0.85383 0.47344 0.37276 0.0
C1131 C 0.8318 0.45061 0.38067 0.0
C1132 C 0.82343 0.42937 0.36591 0.0
C1133 C 0.83712 0.44375 0.40122 0.0
C1134 C 0.81345 0.45929 0.38203 0.0
C1135 C 0.82359 0.48324 0.37588 0.0
C1136 C 0.81028 0.4953 0.37564 0.0
C1137 C 0.78584 0.48247 0.38168 0.0
C1138 C 0.77491 0.45781 0.38786 0.0
C1139 C 0.78905 0.44619 0.38816 0.0
H1140 H 0.10955 0.5493 0.41892 0.0
H1141 H 0.11582 0.61969 0.40716 0.0
H1142 H 0.14672 0.63817 0.43356 0.0
H1143 H 0.11631 0.55558 0.4717 0.0
H1144 H 0.13426 0.54079 0.47364 0.0
H1145 H 0.11257 0.53285 0.45374 0.0
H1146 H 0.14674 0.54302 0.42797 0.0
H1147 H 0.16851 0.55088 0.4478 0.0
H1148 H 0.17393 0.57265 0.42841 0.0
H1149 H 0.17605 0.64895 0.46154 0.0
H1150 H 0.20317 0.6518 0.48883 0.0
H1151 H 0.1797 0.57494 0.48174 0.0
C1152 C 0.1176 0.56865 0.42175 0.0
C1153 C 0.11007 0.58299 0.41102 0.0
C1154 C 0.12091 0.60821 0.41539 0.0
C1155 C 0.1386 0.61893 0.43029 0.0
C1156 C 0.14541 0.60425 0.44066 0.0
C1157 C 0.13538 0.5797 0.43656 0.0
C1158 C 0.14602 0.56812 0.44999 0.0
C1159 C 0.1261 0.54815 0.46304 0.0
C1160 C 0.15961 0.55808 0.43781 0.0
C1161 C 0.16355 0.59002 0.46228 0.0
C1162 C 0.16282 0.61063 0.45664 0.0
C1163 C 0.17701 0.63301 0.46595 0.0
C1164 C 0.19252 0.63446 0.48135 0.0
C1165 C 0.19395 0.6137 0.48728 0.0
C1166 C 0.17907 0.59115 0.47762 0.0
H1167 H 0.56837 0.12918 0.57319 0.0
H1168 H 0.51681 0.06317 0.60431 0.0
H1169 H 0.53109 0.08456 0.63628 0.0
H1170 H 0.61729 0.14879 0.60876 0.0
H1171 H 0.62705 0.18074 0.60634 0.0
H1172 H 0.61269 0.16041 0.5857 0.0
H1173 H 0.5802 0.1738 0.58386 0.0
H1174 H 0.59447 0.19419 0.60448 0.0
H1175 H 0.56259 0.17136 0.60566 0.0
H1176 H 0.55085 0.11253 0.66478 0.0
H1177 H 0.57439 0.1459 0.68834 0.0
H1178 H 0.6139 0.19412 0.63924 0.0
C1179 C 0.56015 0.11923 0.58675 0.0
C1180 C 0.54132 0.09452 0.58623 0.0
C1181 C 0.53093 0.0822 0.60429 0.0
C1182 C 0.53904 0.09414 0.62255 0.0
C1183 C 0.55756 0.11844 0.62255 0.0
C1184 C 0.56799 0.13093 0.60517 0.0
C1185 C 0.58754 0.15706 0.60945 0.0
C1186 C 0.61263 0.16203 0.60213 0.0
C1187 C 0.58079 0.17517 0.60032 0.0
C1188 C 0.58647 0.15723 0.63194 0.0
C1189 C 0.56908 0.13471 0.63913 0.0
C1190 C 0.56461 0.13023 0.65935 0.0
C1191 C 0.57824 0.14928 0.67263 0.0
C1192 C 0.5962 0.17261 0.6657 0.0
C1193 C 0.60027 0.17655 0.64502 0.0
H1194 H 0.45508 0.54915 0.74973 0.0
H1195 H 0.52625 0.61062 0.73503 0.0
H1196 H 0.52166 0.63475 0.76158 0.0
H1197 H 0.42641 0.58588 0.76033 0.0
H1198 H 0.40809 0.56619 0.78023 0.0
H1199 H 0.41679 0.55384 0.75977 0.0
H1200 H 0.43588 0.53671 0.78448 0.0
H1201 H 0.42744 0.5492 0.80498 0.0
H1202 H 0.45882 0.55712 0.80172 0.0
H1203 H 0.5106 0.65138 0.79103 0.0
H1204 H 0.4927 0.66029 0.82002 0.0
H1205 H 0.4272 0.58937 0.81379 0.0
C1206 C 0.46955 0.56781 0.75182 0.0
C1207 C 0.49117 0.57781 0.74035 0.0
C1208 C 0.50975 0.60227 0.74385 0.0
C1209 C 0.50725 0.61623 0.75882 0.0
C1210 C 0.48593 0.60566 0.77005 0.0
C1211 C 0.46727 0.58213 0.76658 0.0
C1212 C 0.44627 0.57513 0.78085 0.0
C1213 C 0.42301 0.56997 0.76962 0.0
C1214 C 0.44186 0.55325 0.79377 0.0
C1215 C 0.45624 0.59828 0.79305 0.0
C1216 C 0.47916 0.61562 0.7866 0.0
C1217 C 0.49247 0.6381 0.79602 0.0
C1218 C 0.48202 0.64305 0.81244 0.0
C1219 C 0.45834 0.62571 0.81922 0.0
C1220 C 0.44538 0.60304 0.80923 0.0
H1221 H 0.93105 0.48585 0.91697 0.0
H1222 H 0.93488 0.41954 0.91097 0.0
H1223 H 0.90625 0.40123 0.93891 0.0
H1224 H 0.9279 0.48584 0.96992 0.0
H1225 H 0.9064 0.49661 0.97089 0.0
H1226 H 0.92708 0.50469 0.95021 0.0
H1227 H 0.89059 0.48669 0.92578 0.0
H1228 H 0.8698 0.4787 0.94637 0.0
H1229 H 0.86633 0.45561 0.9289 0.0
H1230 H 0.87838 0.39043 0.9679 0.0
H1231 H 0.85142 0.38701 0.99552 0.0
H1232 H 0.86378 0.45948 0.98216 0.0
C1233 C 0.92566 0.46738 0.92139 0.0
C1234 C 0.93544 0.45423 0.91185 0.0
C1235 C 0.92805 0.43018 0.91825 0.0
C1236 C 0.91168 0.41955 0.93404 0.0
C1237 C 0.90267 0.4331 0.94326 0.0
C1238 C 0.90922 0.45642 0.93713 0.0
C1239 C 0.8968 0.46695 0.94968 0.0
C1240 C 0.91568 0.48988 0.96084 0.0
C1241 C 0.87987 0.47229 0.93692 0.0
C1242 C 0.88235 0.44592 0.96385 0.0
C1243 C 0.88608 0.42663 0.95986 0.0
C1244 C 0.87508 0.40529 0.97104 0.0
C1245 C 0.85965 0.40348 0.98664 0.0
C1246 C 0.85514 0.42282 0.99089 0.0
C1247 C 0.86686 0.44439 0.97936 0.0
H1248 H 0.4814 0.95285 0.10668 0.0
H1249 H 0.46215 0.90199 0.0577 0.0
H1250 H 0.44295 0.86745 0.08118 0.0
H1251 H 0.49505 0.91859 0.14239 0.0
H1252 H 0.48189 0.92603 0.16307 0.0
H1253 H 0.49465 0.94687 0.1425 0.0
H1254 H 0.45362 0.94605 0.13778 0.0
H1255 H 0.44074 0.92521 0.15833 0.0
H1256 H 0.42597 0.91721 0.13443 0.0
H1257 H 0.42664 0.83863 0.10973 0.0
H1258 H 0.41265 0.81688 0.14148 0.0
H1259 H 0.4402 0.88613 0.1722 0.0
C1260 C 0.47326 0.93442 0.10098 0.0
C1261 C 0.47321 0.93002 0.0804 0.0
C1262 C 0.46217 0.9057 0.0734 0.0
C1263 C 0.45134 0.886 0.08662 0.0
C1264 C 0.45154 0.89092 0.10679 0.0
C1265 C 0.46208 0.91448 0.11398 0.0
C1266 C 0.45918 0.91458 0.13633 0.0
C1267 C 0.48418 0.92727 0.14668 0.0
C1268 C 0.44397 0.92646 0.14205 0.0
C1269 C 0.44544 0.8874 0.14055 0.0
C1270 C 0.44138 0.87415 0.12329 0.0
C1271 C 0.42945 0.84879 0.12333 0.0
C1272 C 0.42134 0.83658 0.1415 0.0
C1273 C 0.42488 0.84966 0.15947 0.0
C1274 C 0.43721 0.87549 0.15885 0.0
H1275 H 0.54848 0.45803 0.24574 0.0
H1276 H 0.61005 0.53204 0.24731 0.0
H1277 H 0.62659 0.52138 0.27623 0.0
H1278 H 0.54156 0.45046 0.29934 0.0
H1279 H 0.53338 0.4188 0.29867 0.0
H1280 H 0.52622 0.43207 0.27792 0.0
H1281 H 0.54959 0.41851 0.25439 0.0
H1282 H 0.55685 0.40523 0.27506 0.0
H1283 H 0.58094 0.42769 0.25969 0.0
H1284 H 0.63719 0.50284 0.30423 0.0
H1285 H 0.64069 0.4776 0.33048 0.0
H1286 H 0.57157 0.4159 0.31215 0.0
C1287 C 0.56531 0.47208 0.25227 0.0
C1288 C 0.57807 0.49584 0.24402 0.0
C1289 C 0.60018 0.51357 0.25298 0.0
C1290 C 0.60964 0.50776 0.26955 0.0
C1291 C 0.59672 0.4842 0.27717 0.0
C1292 C 0.57497 0.46665 0.26895 0.0
C1293 C 0.56481 0.44268 0.28012 0.0
C1294 C 0.54002 0.43559 0.28958 0.0
C1295 C 0.56295 0.42233 0.2665 0.0
C1296 C 0.58437 0.44951 0.2958 0.0
C1297 C 0.60261 0.47356 0.29374 0.0
C1298 C 0.623 0.48402 0.30605 0.0
C1299 C 0.62488 0.46951 0.32084 0.0
C1300 C 0.60645 0.44482 0.32328 0.0
C1301 C 0.58582 0.43478 0.31069 0.0
H1302 H 0.45593 0.93461 0.40617 0.0
H1303 H 0.50568 0.91872 0.43842 0.0
H1304 H 0.50059 0.88857 0.41283 0.0
H1305 H 0.41467 0.87302 0.38969 0.0
H1306 H 0.40964 0.88233 0.36569 0.0
H1307 H 0.41694 0.9024 0.38671 0.0
H1308 H 0.45357 0.93649 0.36741 0.0
H1309 H 0.44645 0.9165 0.34638 0.0
H1310 H 0.47643 0.93049 0.35733 0.0
H1311 H 0.48971 0.85981 0.38405 0.0
H1312 H 0.47448 0.83501 0.35353 0.0
H1313 H 0.43248 0.87013 0.33951 0.0
C1314 C 0.46558 0.92463 0.4079 0.0
C1315 C 0.48121 0.92898 0.42427 0.0
C1316 C 0.4938 0.91581 0.42589 0.0
C1317 C 0.49095 0.8986 0.41149 0.0
C1318 C 0.47555 0.89486 0.39546 0.0
C1319 C 0.46312 0.90753 0.39353 0.0
C1320 C 0.44802 0.90031 0.37469 0.0
C1321 C 0.4207 0.88883 0.37949 0.0
C1322 C 0.45664 0.92226 0.36062 0.0
C1323 C 0.45385 0.88157 0.36637 0.0
C1324 C 0.46967 0.87862 0.37864 0.0
C1325 C 0.47736 0.862 0.3743 0.0
C1326 C 0.46857 0.84795 0.35698 0.0
C1327 C 0.4524 0.85072 0.34414 0.0
C1328 C 0.44508 0.86787 0.34891 0.0
H1329 H 0.54839 0.47164 0.56786 0.0
H1330 H 0.58058 0.4507 0.61531 0.0
H1331 H 0.59956 0.4366 0.59053 0.0
H1332 H 0.53514 0.42139 0.53498 0.0
H1333 H 0.54273 0.43966 0.51277 0.0
H1334 H 0.53142 0.44781 0.53425 0.0
H1335 H 0.5697 0.49098 0.53395 0.0
H1336 H 0.58119 0.48292 0.51253 0.0
H1337 H 0.59959 0.49408 0.53463 0.0
H1338 H 0.61461 0.42439 0.56081 0.0
H1339 H 0.6254 0.41538 0.52789 0.0
H1340 H 0.58419 0.44491 0.49953 0.0
C1341 C 0.55927 0.46389 0.573 0.0
C1342 C 0.56303 0.46224 0.59349 0.0
C1343 C 0.57765 0.45231 0.59967 0.0
C1344 C 0.58842 0.44419 0.58573 0.0
C1345 C 0.58452 0.44624 0.56564 0.0
C1346 C 0.57036 0.45588 0.55925 0.0
C1347 C 0.5694 0.45634 0.53678 0.0
C1348 C 0.54311 0.44034 0.52926 0.0
C1349 C 0.58065 0.48265 0.52902 0.0
C1350 C 0.58515 0.44535 0.53155 0.0
C1351 C 0.5936 0.43959 0.54844 0.0
C1352 C 0.60813 0.42884 0.54747 0.0
C1353 C 0.61409 0.42372 0.52873 0.0
C1354 C 0.60564 0.42945 0.5112 0.0
C1355 C 0.59112 0.44058 0.51269 0.0
H1356 H 0.11394 0.57478 0.74549 0.0
H1357 H 0.10401 0.50181 0.74907 0.0
H1358 H 0.13126 0.51082 0.72036 0.0
H1359 H 0.11384 0.57743 0.6917 0.0
H1360 H 0.13655 0.60936 0.69065 0.0
H1361 H 0.1165 0.59744 0.71178 0.0
H1362 H 0.15391 0.61428 0.73522 0.0
H1363 H 0.17407 0.62623 0.71417 0.0
H1364 H 0.17681 0.60574 0.73118 0.0
H1365 H 0.15993 0.52762 0.69172 0.0
H1366 H 0.1876 0.55099 0.66425 0.0
H1367 H 0.17792 0.61258 0.678 0.0
C1368 C 0.11728 0.56058 0.74015 0.0
C1369 C 0.10692 0.53762 0.74977 0.0
C1370 C 0.11207 0.51972 0.74234 0.0
C1371 C 0.1274 0.52458 0.7259 0.0
C1372 C 0.13733 0.54737 0.71687 0.0
C1373 C 0.13242 0.56505 0.72363 0.0
C1374 C 0.14541 0.58801 0.71109 0.0
C1375 C 0.12697 0.59337 0.70069 0.0
C1376 C 0.16363 0.60985 0.72367 0.0
C1377 C 0.15846 0.58045 0.6963 0.0
C1378 C 0.15357 0.55695 0.69998 0.0
C1379 C 0.16387 0.54602 0.68865 0.0
C1380 C 0.17965 0.55948 0.67315 0.0
C1381 C 0.18495 0.5836 0.66903 0.0
C1382 C 0.17403 0.59411 0.68071 0.0
H1383 H 0.55156 0.11672 0.92083 0.0
H1384 H 0.60984 0.09944 0.92041 0.0
H1385 H 0.62703 0.12456 0.89035 0.0
H1386 H 0.54308 0.11466 0.8681 0.0
H1387 H 0.53731 0.13979 0.86747 0.0
H1388 H 0.52985 0.12102 0.88935 0.0
H1389 H 0.55658 0.15938 0.91066 0.0
H1390 H 0.56411 0.17828 0.88884 0.0
H1391 H 0.58808 0.17927 0.90397 0.0
H1392 H 0.63714 0.15011 0.85985 0.0
H1393 H 0.64039 0.17581 0.83119 0.0
H1394 H 0.57576 0.17696 0.85107 0.0
C1395 C 0.56792 0.11822 0.9144 0.0
C1396 C 0.57942 0.10619 0.92305 0.0
C1397 C 0.60092 0.10877 0.91425 0.0
C1398 C 0.61075 0.12288 0.8971 0.0
C1399 C 0.59894 0.13439 0.88893 0.0
C1400 C 0.57807 0.13235 0.89729 0.0
C1401 C 0.56894 0.14655 0.88542 0.0
C1402 C 0.54327 0.12948 0.87709 0.0
C1403 C 0.56947 0.16709 0.89797 0.0
C1404 C 0.58785 0.15673 0.86899 0.0
C1405 C 0.60492 0.1494 0.87132 0.0
C1406 C 0.62391 0.156 0.85787 0.0
C1407 C 0.6255 0.17047 0.84158 0.0
C1408 C 0.60826 0.17827 0.83884 0.0
C1409 C 0.58928 0.1714 0.85285 0.0
H1410 H 0.46901 0.5545 0.07173 0.0
H1411 H 0.52534 0.62632 0.0909 0.0
H1412 H 0.51383 0.64508 0.06398 0.0
H1413 H 0.47671 0.56685 0.01938 0.0
H1414 H 0.44463 0.54901 0.01376 0.0
H1415 H 0.45694 0.5411 0.03474 0.0
H1416 H 0.42579 0.54391 0.05792 0.0
H1417 H 0.41332 0.55176 0.037 0.0
H1418 H 0.42417 0.57154 0.05835 0.0
H1419 H 0.49635 0.6561 0.03529 0.0
H1420 H 0.4744 0.65882 0.00606 0.0
H1421 H 0.42929 0.57989 0.0051 0.0
C1422 C 0.47877 0.57418 0.07034 0.0
C1423 C 0.49811 0.58897 0.08339 0.0
C1424 C 0.51066 0.61464 0.08094 0.0
C1425 C 0.50418 0.62546 0.06577 0.0
C1426 C 0.48515 0.61038 0.05311 0.0
C1427 C 0.47263 0.5853 0.05517 0.0
C1428 C 0.45313 0.5733 0.03933 0.0
C1429 C 0.45817 0.55658 0.02602 0.0
C1430 C 0.42759 0.55931 0.04872 0.0
C1431 C 0.45665 0.59558 0.02807 0.0
C1432 C 0.47516 0.61675 0.03635 0.0
C1433 C 0.48177 0.63966 0.0287 0.0
C1434 C 0.46909 0.64101 0.01216 0.0
C1435 C 0.45002 0.61959 0.00338 0.0
C1436 C 0.44386 0.59657 0.01143 0.0
H1437 H 0.92075 0.45919 0.25207 0.0
H1438 H 0.93997 0.53537 0.24999 0.0
H1439 H 0.91294 0.52664 0.2212 0.0
H1440 H 0.91994 0.4513 0.19887 0.0
H1441 H 0.89465 0.42045 0.19939 0.0
H1442 H 0.91492 0.43238 0.22037 0.0
H1443 H 0.87813 0.42168 0.2434 0.0
H1444 H 0.85775 0.40975 0.2225 0.0
H1445 H 0.85803 0.43333 0.23769 0.0
H1446 H 0.88385 0.50996 0.19283 0.0
H1447 H 0.8555 0.48652 0.16578 0.0
H1448 H 0.85627 0.42144 0.18494 0.0
C1449 C 0.91947 0.47411 0.2455 0.0
C1450 C 0.93239 0.49796 0.25357 0.0
C1451 C 0.92989 0.51683 0.24451 0.0
C1452 C 0.9147 0.51211 0.22801 0.0
C1453 C 0.90223 0.48845 0.22053 0.0
C1454 C 0.90453 0.46978 0.22886 0.0
C1455 C 0.88938 0.44607 0.21764 0.0
C1456 C 0.9057 0.43703 0.20852 0.0
C1457 C 0.86965 0.42656 0.23112 0.0
C1458 C 0.87821 0.45439 0.20172 0.0
C1459 C 0.8858 0.47889 0.20377 0.0
C1460 C 0.87777 0.49076 0.19106 0.0
C1461 C 0.86156 0.47726 0.17582 0.0
C1462 C 0.85359 0.45215 0.1733 0.0
C1463 C 0.86216 0.44064 0.18642 0.0
loop_
_geom_bond_atom_site_label_1
_geom_bond_atom_site_label_2
_geom_bond_distance
_geom_bond_site_symmetry_2
_ccdc_geom_bond_type
H0 C19 0.949 . S
H1 C20 0.950 . S
H2 C22 0.950 . S
H3 C23 0.950 . S
H4 C25 0.950 . S
H5 C28 0.950 . S
H6 C29 0.950 . S
H7 C31 0.951 . S
H8 C32 0.949 . S
H9 C34 0.949 . S
H10 C35 0.950 . S
H11 C37 0.950 . S
H12 C38 0.950 . S
H13 C40 0.950 . S
H14 C43 0.950 . S
H15 C44 0.950 . S
H16 C46 0.951 . S
H17 C47 0.949 . S
C18 C19 1.376 . S
C18 C23 1.386 . S
C18 C24 1.484 1_655 S
C19 H0 0.949 . S
C19 C18 1.376 . S
C19 C20 1.397 . S
C20 H1 0.950 . S
C20 C19 1.397 . S
C20 C21 1.391 . S
C21 C20 1.391 . S
C21 C22 1.405 . S
C22 H2 0.950 . S
C22 C21 1.405 . S
C22 C23 1.367 . S
C23 H3 0.950 . S
C23 C18 1.386 . S
C23 C22 1.367 . S
C24 C18 1.484 1_455 S
C24 C25 1.379 . S
C24 C26 1.404 1_455 S
C25 H4 0.950 . S
C25 C24 1.379 . S
C25 C41 1.411 . S
C26 C24 1.404 1_655 S
C26 C27 1.489 . S
C26 C40 1.411 1_655 S
C27 C26 1.489 . S
C27 C28 1.383 . S
C27 C32 1.382 . S
C28 H5 0.950 . S
C28 C27 1.383 . S
C28 C29 1.395 . S
C29 H6 0.950 . S
C29 C28 1.395 . S
C29 C30 1.288 . S
C30 C29 1.288 . S
C30 C31 1.392 . S
C31 H7 0.951 . S
C31 C30 1.392 . S
C31 C32 1.392 . S
C32 H8 0.949 . S
C32 C27 1.382 . S
C32 C31 1.392 . S
C33 C34 1.376 . S
C33 C38 1.386 . S
C33 C39 1.483 . S
C34 H9 0.949 . S
C34 C33 1.376 . S
C34 C35 1.397 . S
C35 H10 0.950 . S
C35 C34 1.397 . S
C35 C36 1.391 . S
C36 C35 1.391 . S
C36 C37 1.405 . S
C37 H11 0.950 . S
C37 C36 1.405 . S
C37 C38 1.367 . S
C38 H12 0.950 . S
C38 C33 1.386 . S
C38 C37 1.367 . S
C39 C33 1.483 . S
C39 C40 1.382 . S
C39 C41 1.403 . S
C40 H13 0.950 . S
C40 C26 1.411 1_455 S
C40 C39 1.382 . S
C41 C25 1.411 . S
C41 C39 1.403 . S
C41 C42 1.489 . S
C42 C41 1.489 . S
C42 C43 1.383 . S
C42 C47 1.382 . S
C43 H14 0.950 . S
C43 C42 1.383 . S
C43 C44 1.395 . S
C44 H15 0.950 . S
C44 C43 1.395 . S
C44 C45 1.288 . S
C45 C44 1.288 . S
C45 C46 1.392 . S
C46 H16 0.951 . S
C46 C45 1.392 . S
C46 C47 1.392 . S
C47 H17 0.949 . S
C47 C42 1.382 . S
C47 C46 1.392 . S
H48 C67 0.949 . S
H49 C68 0.950 . S
H50 C70 0.950 . S
H51 C71 0.950 . S
H52 C73 0.950 . S
H53 C76 0.950 . S
H54 C77 0.950 . S
H55 C79 0.951 . S
H56 C80 0.961 . S
H57 C82 0.949 . S
H58 C83 0.950 . S
H59 C85 0.950 . S
H60 C86 0.950 . S
H61 C88 0.950 . S
H62 C91 0.950 . S
H63 C92 0.950 . S
H64 C94 0.951 . S
H65 C95 0.949 . S
C66 C67 1.376 . S
C66 C71 1.386 . S
C66 C72 1.483 . S
C67 H48 0.949 . S
C67 C66 1.376 . S
C67 C68 1.397 . S
C68 H49 0.950 . S
C68 C67 1.397 . S
C68 C69 1.391 . S
C69 C68 1.391 . S
C69 C70 1.405 . S
C70 H50 0.950 . S
C70 C69 1.405 . S
C70 C71 1.367 . S
C71 H51 0.950 . S
C71 C66 1.386 . S
C71 C70 1.367 . S
C72 C66 1.483 . S
C72 C73 1.382 1_565 S
C72 C74 1.403 1_565 S
C73 H52 0.950 . S
C73 C72 1.382 1_545 S
C73 C89 1.411 . S
C74 C72 1.403 1_545 S
C74 C75 1.489 1_545 S
C74 C88 1.411 . S
C75 C74 1.489 1_565 S
C75 C76 1.383 . S
C75 C80 1.382 . S
C76 H53 0.950 . S
C76 C75 1.383 . S
C76 C77 1.395 . S
C77 H54 0.950 . S
C77 C76 1.395 . S
C77 C78 1.288 . S
C78 C77 1.288 . S
C78 C79 1.392 . S
C79 H55 0.951 . S
C79 C78 1.392 . S
C79 C80 1.392 . S
C80 H56 0.961 . S
C80 C75 1.382 . S
C80 C79 1.392 . S
C81 C82 1.376 . S
C81 C86 1.386 . S
C81 C87 1.483 . S
C82 H57 0.949 . S
C82 C81 1.376 . S
C82 C83 1.397 . S
C83 H58 0.950 . S
C83 C82 1.397 . S
C83 C84 1.391 . S
C84 C83 1.391 . S
C84 C85 1.405 . S
C85 H59 0.950 . S
C85 C84 1.405 . S
C85 C86 1.367 . S
C86 H60 0.950 . S
C86 C81 1.386 . S
C86 C85 1.367 . S
C87 C81 1.483 . S
C87 C88 1.382 . S
C87 C89 1.403 . S
C88 H61 0.950 . S
C88 C74 1.411 . S
C88 C87 1.382 . S
C89 C73 1.411 . S
C89 C87 1.403 . S
C89 C90 1.489 . S
C90 C89 1.489 . S
C90 C91 1.383 . S
C90 C95 1.382 . S
C91 H62 0.950 . S
C91 C90 1.383 . S
C91 C92 1.395 . S
C92 H63 0.950 . S
C92 C91 1.395 . S
C92 C93 1.288 . S
C93 C92 1.288 . S
C93 C94 1.392 . S
C94 H64 0.951 . S
C94 C93 1.392 . S
C94 C95 1.392 . S
C95 H65 0.949 . S
C95 C90 1.382 . S
C95 C94 1.392 . S
H96 C115 0.949 . S
H97 C116 0.950 . S
H98 C118 0.950 . S
H99 C119 0.950 . S
H100 C121 0.950 . S
H101 C124 0.950 . S
H102 C125 0.950 . S
H103 C127 0.951 . S
H104 C128 0.949 . S
H105 C130 0.949 . S
H106 C131 0.950 . S
H107 C133 0.950 . S
H108 C134 0.950 . S
H109 C136 0.950 . S
H110 C139 0.950 . S
H111 C140 0.950 . S
H112 C142 0.951 . S
H113 C143 0.949 . S
C114 C115 1.376 . S
C114 C119 1.386 . S
C114 C120 1.483 . S
C115 H96 0.949 . S
C115 C114 1.376 . S
C115 C116 1.397 . S
C116 H97 0.950 . S
C116 C115 1.397 . S
C116 C117 1.391 . S
C117 C116 1.391 . S
C117 C118 1.405 . S
C118 H98 0.950 . S
C118 C117 1.405 . S
C118 C119 1.367 . S
C119 H99 0.950 . S
C119 C114 1.386 . S
C119 C118 1.367 . S
C120 C114 1.483 . S
C120 C121 1.382 . S
C120 C122 1.403 . S
C121 H100 0.950 . S
C121 C120 1.382 . S
C121 C137 1.411 . S
C122 C120 1.403 . S
C122 C123 1.489 . S
C122 C136 1.411 . S
C123 C122 1.489 . S
C123 C124 1.383 . S
C123 C128 1.382 . S
C124 H101 0.950 . S
C124 C123 1.383 . S
C124 C125 1.395 . S
C125 H102 0.950 . S
C125 C124 1.395 . S
C125 C126 1.288 . S
C126 C125 1.288 . S
C126 C127 1.392 . S
C127 H103 0.951 . S
C127 C126 1.392 . S
C127 C128 1.392 . S
C128 H104 0.949 . S
C128 C123 1.382 . S
C128 C127 1.392 . S
C129 C130 1.376 . S
C129 C134 1.386 . S
C129 C135 1.483 . S
C130 H105 0.949 . S
C130 C129 1.376 . S
C130 C131 1.397 . S
C131 H106 0.950 . S
C131 C130 1.397 . S
C131 C132 1.391 . S
C132 C131 1.391 . S
C132 C133 1.405 . S
C133 H107 0.950 . S
C133 C132 1.405 . S
C133 C134 1.367 . S
C134 H108 0.950 . S
C134 C129 1.386 . S
C134 C133 1.367 . S
C135 C129 1.483 . S
C135 C136 1.382 . S
C135 C137 1.403 . S
C136 H109 0.950 . S
C136 C122 1.411 . S
C136 C135 1.382 . S
C137 C121 1.411 . S
C137 C135 1.403 . S
C137 C138 1.489 . S
C138 C137 1.489 . S
C138 C139 1.383 . S
C138 C143 1.382 . S
C139 H110 0.950 . S
C139 C138 1.383 . S
C139 C140 1.395 . S
C140 H111 0.950 . S
C140 C139 1.395 . S
C140 C141 1.288 . S
C141 C140 1.288 . S
C141 C142 1.392 . S
C142 H112 0.951 . S
C142 C141 1.392 . S
C142 C143 1.392 . S
C143 H113 0.949 . S
C143 C138 1.382 . S
C143 C142 1.392 . S
H144 C163 0.949 . S
H145 C164 0.950 . S
H146 C166 0.950 . S
H147 C167 0.950 . S
H148 C169 0.950 . S
H149 C172 0.950 . S
H150 C173 0.950 . S
H151 C175 0.951 . S
H152 C176 0.949 . S
H153 C178 0.949 . S
H154 C179 0.950 . S
H155 C181 0.950 . S
H156 C182 0.950 . S
H157 C184 0.950 . S
H158 C187 0.950 . S
H159 C188 0.950 . S
H160 C190 0.951 . S
H161 C191 0.949 . S
C162 C163 1.376 . S
C162 C167 1.386 . S
C162 C168 1.483 . S
C163 H144 0.949 . S
C163 C162 1.376 . S
C163 C164 1.397 . S
C164 H145 0.950 . S
C164 C163 1.397 . S
C164 C165 1.391 . S
C165 C164 1.391 . S
C165 C166 1.405 . S
C166 H146 0.950 . S
C166 C165 1.405 . S
C166 C167 1.367 . S
C167 H147 0.950 . S
C167 C162 1.386 . S
C167 C166 1.367 . S
C168 C162 1.483 . S
C168 C169 1.382 . S
C168 C170 1.403 . S
C169 H148 0.950 . S
C169 C168 1.382 . S
C169 C185 1.411 1_455 S
C170 C168 1.403 . S
C170 C171 1.489 . S
C170 C184 1.411 . S
C171 C170 1.489 . S
C171 C172 1.383 . S
C171 C176 1.382 . S
C172 H149 0.950 . S
C172 C171 1.383 . S
C172 C173 1.395 . S
C173 H150 0.950 . S
C173 C172 1.395 . S
C173 C174 1.288 . S
C174 C173 1.288 . S
C174 C175 1.392 . S
C175 H151 0.951 . S
C175 C174 1.392 . S
C175 C176 1.392 . S
C176 H152 0.949 . S
C176 C171 1.382 . S
C176 C175 1.392 . S
C177 C178 1.376 . S
C177 C182 1.386 . S
C177 C183 1.480 1_655 S
C178 H153 0.949 . S
C178 C177 1.376 . S
C178 C179 1.397 . S
C179 H154 0.950 . S
C179 C178 1.397 . S
C179 C180 1.391 . S
C180 C179 1.391 . S
C180 C181 1.405 . S
C181 H155 0.950 . S
C181 C180 1.405 . S
C181 C182 1.367 . S
C182 H156 0.950 . S
C182 C177 1.386 . S
C182 C181 1.367 . S
C183 C177 1.480 1_455 S
C183 C184 1.387 . S
C183 C185 1.401 1_455 S
C184 H157 0.950 . S
C184 C170 1.411 . S
C184 C183 1.387 . S
C185 C169 1.411 1_655 S
C185 C183 1.401 1_655 S
C185 C186 1.489 . S
C186 C185 1.489 . S
C186 C187 1.383 . S
C186 C191 1.382 . S
C187 H158 0.950 . S
C187 C186 1.383 . S
C187 C188 1.395 . S
C188 H159 0.950 . S
C188 C187 1.395 . S
C188 C189 1.288 . S
C189 C188 1.288 . S
C189 C190 1.392 . S
C190 H160 0.951 . S
C190 C189 1.392 . S
C190 C191 1.392 . S
C191 H161 0.949 . S
C191 C186 1.382 . S
C191 C190 1.392 . S
H192 C211 0.949 . S
H193 C212 0.950 . S
H194 C214 0.950 . S
H195 C215 0.932 1_556 S
H196 C217 0.950 . S
H197 C220 0.950 . S
H198 C221 0.950 . S
H199 C223 0.951 . S
H200 C224 0.949 . S
H201 C226 0.949 . S
H202 C227 0.950 . S
H203 C229 0.950 . S
H204 C230 0.950 . S
H205 C232 0.950 . S
H206 C235 0.950 . S
H207 C236 0.950 . S
H208 C238 0.951 . S
H209 C239 0.961 . S
C210 C211 1.376 . S
C210 C215 1.394 . S
C210 C216 1.478 1_554 S
C211 H192 0.949 . S
C211 C210 1.376 . S
C211 C212 1.397 . S
C212 H193 0.950 . S
C212 C211 1.397 . S
C212 C213 1.391 . S
C213 C212 1.391 . S
C213 C214 1.405 . S
C214 H194 0.950 . S
C214 C213 1.405 . S
C214 C215 1.379 . S
C215 H195 0.932 1_554 S
C215 C210 1.394 . S
C215 C214 1.379 . S
C216 C210 1.478 1_556 S
C216 C217 1.367 1_556 S
C216 C218 1.422 . S
C217 H196 0.950 . S
C217 C216 1.367 1_554 S
C217 C233 1.411 . S
C218 C216 1.422 . S
C218 C219 1.489 . S
C218 C232 1.411 . S
C219 C218 1.489 . S
C219 C220 1.383 . S
C219 C224 1.382 . S
C220 H197 0.950 . S
C220 C219 1.383 . S
C220 C221 1.395 . S
C221 H198 0.950 . S
C221 C220 1.395 . S
C221 C222 1.288 . S
C222 C221 1.288 . S
C222 C223 1.392 . S
C223 H199 0.951 . S
C223 C222 1.392 . S
C223 C224 1.392 . S
C224 H200 0.949 . S
C224 C219 1.382 . S
C224 C223 1.392 . S
C225 C226 1.376 . S
C225 C230 1.386 . S
C225 C231 1.483 . S
C226 H201 0.949 . S
C226 C225 1.376 . S
C226 C227 1.397 . S
C227 H202 0.950 . S
C227 C226 1.397 . S
C227 C228 1.391 . S
C228 C227 1.391 . S
C228 C229 1.405 . S
C229 H203 0.950 . S
C229 C228 1.405 . S
C229 C230 1.367 . S
C230 H204 0.950 . S
C230 C225 1.386 . S
C230 C229 1.367 . S
C231 C225 1.483 . S
C231 C232 1.382 1_565 S
C231 C233 1.403 1_566 S
C232 H205 0.950 . S
C232 C218 1.411 . S
C232 C231 1.382 1_545 S
C233 C217 1.411 . S
C233 C231 1.403 1_544 S
C233 C234 1.489 1_545 S
C234 C233 1.489 1_565 S
C234 C235 1.383 . S
C234 C239 1.382 . S
C235 H206 0.950 . S
C235 C234 1.383 . S
C235 C236 1.395 . S
C236 H207 0.950 . S
C236 C235 1.395 . S
C236 C237 1.288 . S
C237 C236 1.288 . S
C237 C238 1.392 . S
C238 H208 0.951 . S
C238 C237 1.392 . S
C238 C239 1.392 . S
C239 H209 0.961 . S
C239 C234 1.382 . S
C239 C238 1.392 . S
H240 C259 0.949 . S
H241 C260 0.950 . S
H242 C262 0.950 . S
H243 C263 0.950 . S
H244 C265 0.950 . S
H245 C268 0.950 . S
H246 C269 0.950 . S
H247 C271 0.951 . S
H248 C272 0.949 . S
H249 C274 0.949 . S
H250 C275 0.950 . S
H251 C277 0.950 . S
H252 C278 0.950 . S
H253 C280 0.950 . S
H254 C283 0.950 . S
H255 C284 0.950 . S
H256 C286 0.951 . S
H257 C287 0.949 . S
C258 C259 1.376 . S
C258 C263 1.386 . S
C258 C264 1.483 . S
C259 H240 0.949 . S
C259 C258 1.376 . S
C259 C260 1.397 . S
C260 H241 0.950 . S
C260 C259 1.397 . S
C260 C261 1.391 . S
C261 C260 1.391 . S
C261 C262 1.405 . S
C262 H242 0.950 . S
C262 C261 1.405 . S
C262 C263 1.367 . S
C263 H243 0.950 . S
C263 C258 1.386 . S
C263 C262 1.367 . S
C264 C258 1.483 . S
C264 C265 1.382 . S
C264 C266 1.403 . S
C265 H244 0.950 . S
C265 C264 1.382 . S
C265 C281 1.411 . S
C266 C264 1.403 . S
C266 C267 1.489 . S
C266 C280 1.411 . S
C267 C266 1.489 . S
C267 C268 1.383 . S
C267 C272 1.382 . S
C268 H245 0.950 . S
C268 C267 1.383 . S
C268 C269 1.395 . S
C269 H246 0.950 . S
C269 C268 1.395 . S
C269 C270 1.288 . S
C270 C269 1.288 . S
C270 C271 1.392 . S
C271 H247 0.951 . S
C271 C270 1.392 . S
C271 C272 1.392 . S
C272 H248 0.949 . S
C272 C267 1.382 . S
C272 C271 1.392 . S
C273 C274 1.376 . S
C273 C278 1.386 . S
C273 C279 1.483 . S
C274 H249 0.949 . S
C274 C273 1.376 . S
C274 C275 1.397 . S
C275 H250 0.950 . S
C275 C274 1.397 . S
C275 C276 1.391 . S
C276 C275 1.391 . S
C276 C277 1.405 . S
C277 H251 0.950 . S
C277 C276 1.405 . S
C277 C278 1.367 . S
C278 H252 0.950 . S
C278 C273 1.386 . S
C278 C277 1.367 . S
C279 C273 1.483 . S
C279 C280 1.382 . S
C279 C281 1.403 . S
C280 H253 0.950 . S
C280 C266 1.411 . S
C280 C279 1.382 . S
C281 C265 1.411 . S
C281 C279 1.403 . S
C281 C282 1.489 . S
C282 C281 1.489 . S
C282 C283 1.383 . S
C282 C287 1.382 . S
C283 H254 0.950 . S
C283 C282 1.383 . S
C283 C284 1.395 . S
C284 H255 0.950 . S
C284 C283 1.395 . S
C284 C285 1.288 . S
C285 C284 1.288 . S
C285 C286 1.392 . S
C286 H256 0.951 . S
C286 C285 1.392 . S
C286 C287 1.392 . S
C287 H257 0.949 . S
C287 C282 1.382 . S
C287 C286 1.392 . S
Li288 N305 1.990 . S
Li288 O348 1.956 . S
Li288 O349 1.970 . S
Li288 O350 1.961 . S
Li289 N313 1.990 . S
Li289 O348 1.970 . S
Li289 O349 1.956 . S
Li289 O351 1.961 . S
Li290 N335 1.990 . S
Li290 O348 1.961 . S
Li290 O350 1.956 . S
Li290 O351 1.970 . S
Li291 N341 1.990 . S
Li291 O349 1.961 . S
Li291 O350 1.970 . S
Li291 O351 1.956 . S
C292 C294 1.348 . S
C292 C295 1.356 . S
C292 O348 1.325 . S
N293 C296 1.314 . S
N293 C297 1.279 . S
C294 C292 1.348 . S
C294 C296 1.353 . S
C294 H352 0.929 . S
C295 C292 1.356 . S
C295 C297 1.358 . S
C295 H353 0.930 . S
C296 N293 1.314 . S
C296 C294 1.353 . S
C296 H354 0.930 . S
C297 N293 1.279 . S
C297 C295 1.358 . S
C297 H355 0.930 . S
C298 C301 1.348 . S
C298 C302 1.356 . S
C298 O349 1.325 . S
C299 N300 1.279 . S
C299 C302 1.358 . S
C299 H356 0.930 . S
N300 C299 1.279 . S
N300 C303 1.314 . S
C301 C298 1.348 . S
C301 C303 1.353 . S
C301 H357 0.929 . S
C302 C298 1.356 . S
C302 C299 1.358 . S
C302 H358 0.930 . S
C303 N300 1.314 . S
C303 C301 1.353 . S
C303 H359 0.930 . S
C304 N305 1.314 . S
C304 C309 1.353 . S
C304 H310 0.930 . S
N305 Li288 1.990 . S
N305 C304 1.314 . S
N305 C307 1.279 . S
C306 C307 1.358 . S
C306 C308 1.356 . S
C306 H360 0.930 . S
C307 N305 1.279 . S
C307 C306 1.358 . S
C307 H311 0.930 . S
C308 C306 1.356 . S
C308 C309 1.348 . S
C309 C304 1.353 . S
C309 C308 1.348 . S
C309 H361 0.929 . S
H310 C304 0.930 . S
H311 C307 0.930 . S
C312 N313 1.314 . S
C312 C314 1.353 . S
C312 H318 0.930 . S
N313 Li289 1.990 . S
N313 C312 1.314 . S
N313 C316 1.279 . S
C314 C312 1.353 . S
C314 C317 1.348 . S
C314 H362 0.929 . S
C315 C316 1.358 . S
C315 C317 1.356 . S
C315 H363 0.930 . S
C316 N313 1.279 . S
C316 C315 1.358 . S
C316 H319 0.930 . S
C317 C314 1.348 . S
C317 C315 1.356 . S
H318 C312 0.930 . S
H319 C316 0.930 . S
C320 C322 1.348 . S
C320 C323 1.356 . S
C320 O350 1.325 . S
N321 C324 1.314 . S
N321 C325 1.279 . S
C322 C320 1.348 . S
C322 C324 1.353 . S
C322 H364 0.929 . S
C323 C320 1.356 . S
C323 C325 1.358 . S
C323 H365 0.930 . S
C324 N321 1.314 . S
C324 C322 1.353 . S
C324 H366 0.930 . S
C325 N321 1.279 . S
C325 C323 1.358 . S
C325 H367 0.930 . S
C326 C327 1.348 . S
C326 C328 1.356 . S
C326 O351 1.325 . S
C327 C326 1.348 . S
C327 C329 1.353 . S
C327 H368 0.929 . S
C328 C326 1.356 . S
C328 C330 1.358 . S
C328 H369 0.930 . S
C329 C327 1.353 . S
C329 N331 1.314 . S
C329 H370 0.930 . S
C330 C328 1.358 . S
C330 N331 1.279 . S
C330 H371 0.930 . S
N331 C329 1.314 . S
N331 C330 1.279 . S
C332 C334 1.353 . S
C332 N335 1.314 . S
C332 H338 0.930 . S
C333 N335 1.279 . S
C333 C336 1.358 . S
C333 H339 0.930 . S
C334 C332 1.353 . S
C334 C337 1.348 . S
C334 H372 0.929 . S
N335 Li290 1.990 . S
N335 C332 1.314 . S
N335 C333 1.279 . S
C336 C333 1.358 . S
C336 C337 1.356 . S
C336 H373 0.930 . S
C337 C334 1.348 . S
C337 C336 1.356 . S
H338 C332 0.930 . S
H339 C333 0.930 . S
C340 N341 1.314 . S
C340 C342 1.353 . S
C340 H346 0.930 . S
N341 Li291 1.990 . S
N341 C340 1.314 . S
N341 C344 1.279 . S
C342 C340 1.353 . S
C342 C345 1.348 . S
C342 H374 0.929 . S
C343 C344 1.358 . S
C343 C345 1.356 . S
C343 H375 0.930 . S
C344 N341 1.279 . S
C344 C343 1.358 . S
C344 H347 0.930 . S
C345 C342 1.348 . S
C345 C343 1.356 . S
H346 C340 0.930 . S
H347 C344 0.930 . S
O348 Li288 1.956 . S
O348 Li289 1.970 . S
O348 Li290 1.961 . S
O348 C292 1.325 . S
O349 Li288 1.970 . S
O349 Li289 1.956 . S
O349 Li291 1.961 . S
O349 C298 1.325 . S
O350 Li288 1.961 . S
O350 Li290 1.956 . S
O350 Li291 1.970 . S
O350 C320 1.325 . S
O351 Li289 1.961 . S
O351 Li290 1.970 . S
O351 Li291 1.956 . S
O351 C326 1.325 . S
H352 C294 0.929 . S
H353 C295 0.930 . S
H354 C296 0.930 . S
H355 C297 0.930 . S
H356 C299 0.930 . S
H357 C301 0.929 . S
H358 C302 0.930 . S
H359 C303 0.930 . S
H360 C306 0.930 . S
H361 C309 0.929 . S
H362 C314 0.929 . S
H363 C315 0.930 . S
H364 C322 0.929 . S
H365 C323 0.930 . S
H366 C324 0.930 . S
H367 C325 0.930 . S
H368 C327 0.929 . S
H369 C328 0.930 . S
H370 C329 0.930 . S
H371 C330 0.930 . S
H372 C334 0.929 . S
H373 C336 0.930 . S
H374 C342 0.929 . S
H375 C343 0.930 . S
Li376 N393 1.990 . S
Li376 O436 1.956 . S
Li376 O437 1.970 . S
Li376 O438 1.961 . S
Li377 N401 1.990 . S
Li377 O436 1.970 . S
Li377 O437 1.956 . S
Li377 O439 1.961 . S
Li378 N423 1.990 . S
Li378 O436 1.961 . S
Li378 O438 1.956 . S
Li378 O439 1.970 . S
Li379 N429 1.990 . S
Li379 O437 1.961 . S
Li379 O438 1.970 . S
Li379 O439 1.956 . S
C380 C382 1.348 . S
C380 C383 1.356 . S
C380 O436 1.325 . S
N381 C384 1.314 . S
N381 C385 1.279 . S
C382 C380 1.348 . S
C382 C384 1.353 . S
C382 H440 0.929 . S
C383 C380 1.356 . S
C383 C385 1.358 . S
C383 H441 0.930 . S
C384 N381 1.314 . S
C384 C382 1.353 . S
C384 H442 0.930 . S
C385 N381 1.279 . S
C385 C383 1.358 . S
C385 H443 0.930 . S
C386 C389 1.348 . S
C386 C390 1.356 . S
C386 O437 1.325 . S
C387 N388 1.279 . S
C387 C390 1.358 . S
C387 H444 0.930 . S
N388 C387 1.279 . S
N388 C391 1.314 . S
C389 C386 1.348 . S
C389 C391 1.353 . S
C389 H445 0.929 . S
C390 C386 1.356 . S
C390 C387 1.358 . S
C390 H446 0.930 . S
C391 N388 1.314 . S
C391 C389 1.353 . S
C391 H447 0.930 . S
C392 N393 1.314 . S
C392 C397 1.353 . S
C392 H398 0.930 . S
N393 Li376 1.990 . S
N393 C392 1.314 . S
N393 C395 1.279 . S
C394 C395 1.358 . S
C394 C396 1.356 . S
C394 H448 0.930 . S
C395 N393 1.279 . S
C395 C394 1.358 . S
C395 H399 0.930 . S
C396 C394 1.356 . S
C396 C397 1.348 . S
C397 C392 1.353 . S
C397 C396 1.348 . S
C397 H449 0.929 . S
H398 C392 0.930 . S
H399 C395 0.930 . S
C400 N401 1.314 . S
C400 C402 1.353 . S
C400 H406 0.930 . S
N401 Li377 1.990 . S
N401 C400 1.314 . S
N401 C404 1.279 . S
C402 C400 1.353 . S
C402 C405 1.348 . S
C402 H450 0.929 . S
C403 C404 1.358 . S
C403 C405 1.356 . S
C403 H451 0.930 . S
C404 N401 1.279 . S
C404 C403 1.358 . S
C404 H407 0.930 . S
C405 C402 1.348 . S
C405 C403 1.356 . S
H406 C400 0.930 . S
H407 C404 0.930 . S
C408 C410 1.348 . S
C408 C411 1.356 . S
C408 O438 1.325 . S
N409 C412 1.314 . S
N409 C413 1.279 . S
C410 C408 1.348 . S
C410 C412 1.353 . S
C410 H452 0.929 . S
C411 C408 1.356 . S
C411 C413 1.358 . S
C411 H453 0.930 . S
C412 N409 1.314 . S
C412 C410 1.353 . S
C412 H454 0.930 . S
C413 N409 1.279 . S
C413 C411 1.358 . S
C413 H455 0.930 . S
C414 C415 1.348 . S
C414 C416 1.356 . S
C414 O439 1.325 . S
C415 C414 1.348 . S
C415 C417 1.353 . S
C415 H456 0.929 . S
C416 C414 1.356 . S
C416 C418 1.358 . S
C416 H457 0.930 . S
C417 C415 1.353 . S
C417 N419 1.314 . S
C417 H458 0.930 . S
C418 C416 1.358 . S
C418 N419 1.279 . S
C418 H459 0.930 . S
N419 C417 1.314 . S
N419 C418 1.279 . S
C420 C422 1.353 . S
C420 N423 1.314 . S
C420 H426 0.930 . S
C421 N423 1.279 . S
C421 C424 1.358 . S
C421 H427 0.930 . S
C422 C420 1.353 . S
C422 C425 1.348 . S
C422 H460 0.929 . S
N423 Li378 1.990 . S
N423 C420 1.314 . S
N423 C421 1.279 . S
C424 C421 1.358 . S
C424 C425 1.356 . S
C424 H461 0.930 . S
C425 C422 1.348 . S
C425 C424 1.356 . S
H426 C420 0.930 . S
H427 C421 0.930 . S
C428 N429 1.314 . S
C428 C430 1.353 . S
C428 H434 0.930 . S
N429 Li379 1.990 . S
N429 C428 1.314 . S
N429 C432 1.279 . S
C430 C428 1.353 . S
C430 C433 1.348 . S
C430 H462 0.929 . S
C431 C432 1.358 . S
C431 C433 1.356 . S
C431 H463 0.930 . S
C432 N429 1.279 . S
C432 C431 1.358 . S
C432 H435 0.930 . S
C433 C430 1.348 . S
C433 C431 1.356 . S
H434 C428 0.930 . S
H435 C432 0.930 . S
O436 Li376 1.956 . S
O436 Li377 1.970 . S
O436 Li378 1.961 . S
O436 C380 1.325 . S
O437 Li376 1.970 . S
O437 Li377 1.956 . S
O437 Li379 1.961 . S
O437 C386 1.325 . S
O438 Li376 1.961 . S
O438 Li378 1.956 . S
O438 Li379 1.970 . S
O438 C408 1.325 . S
O439 Li377 1.961 . S
O439 Li378 1.970 . S
O439 Li379 1.956 . S
O439 C414 1.325 . S
H440 C382 0.929 . S
H441 C383 0.930 . S
H442 C384 0.930 . S
H443 C385 0.930 . S
H444 C387 0.930 . S
H445 C389 0.929 . S
H446 C390 0.930 . S
H447 C391 0.930 . S
H448 C394 0.930 . S
H449 C397 0.929 . S
H450 C402 0.929 . S
H451 C403 0.930 . S
H452 C410 0.929 . S
H453 C411 0.930 . S
H454 C412 0.930 . S
H455 C413 0.930 . S
H456 C415 0.929 . S
H457 C416 0.930 . S
H458 C417 0.930 . S
H459 C418 0.930 . S
H460 C422 0.929 . S
H461 C424 0.930 . S
H462 C430 0.929 . S
H463 C431 0.930 . S
Li464 N481 1.990 . S
Li464 O524 1.956 . S
Li464 O525 1.970 . S
Li464 O526 1.961 . S
Li465 N489 1.990 . S
Li465 O524 1.970 . S
Li465 O525 1.956 . S
Li465 O527 1.961 . S
Li466 N511 1.990 . S
Li466 O524 1.961 . S
Li466 O526 1.956 . S
Li466 O527 1.970 . S
Li467 N517 1.990 . S
Li467 O525 1.961 . S
Li467 O526 1.970 . S
Li467 O527 1.956 . S
C468 C470 1.348 . S
C468 C471 1.356 . S
C468 O524 1.325 . S
N469 C472 1.314 . S
N469 C473 1.279 . S
C470 C468 1.348 . S
C470 C472 1.353 . S
C470 H528 0.929 . S
C471 C468 1.356 . S
C471 C473 1.358 . S
C471 H529 0.930 . S
C472 N469 1.314 . S
C472 C470 1.353 . S
C472 H530 0.930 . S
C473 N469 1.279 . S
C473 C471 1.358 . S
C473 H531 0.930 . S
C474 C477 1.348 . S
C474 C478 1.356 . S
C474 O525 1.325 . S
C475 N476 1.279 . S
C475 C478 1.358 . S
C475 H532 0.930 . S
N476 C475 1.279 . S
N476 C479 1.314 . S
C477 C474 1.348 . S
C477 C479 1.353 . S
C477 H533 0.929 . S
C478 C474 1.356 . S
C478 C475 1.358 . S
C478 H534 0.930 . S
C479 N476 1.314 . S
C479 C477 1.353 . S
C479 H535 0.930 . S
C480 N481 1.314 . S
C480 C485 1.353 . S
C480 H486 0.930 . S
N481 Li464 1.990 . S
N481 C480 1.314 . S
N481 C483 1.279 . S
C482 C483 1.358 . S
C482 C484 1.356 . S
C482 H536 0.930 . S
C483 N481 1.279 . S
C483 C482 1.358 . S
C483 H487 0.930 . S
C484 C482 1.356 . S
C484 C485 1.348 . S
C485 C480 1.353 . S
C485 C484 1.348 . S
C485 H537 0.929 . S
H486 C480 0.930 . S
H487 C483 0.930 . S
C488 N489 1.314 . S
C488 C490 1.353 . S
C488 H494 0.930 . S
N489 Li465 1.990 . S
N489 C488 1.314 . S
N489 C492 1.279 . S
C490 C488 1.353 . S
C490 C493 1.348 . S
C490 H538 0.929 . S
C491 C492 1.358 . S
C491 C493 1.356 . S
C491 H539 0.930 . S
C492 N489 1.279 . S
C492 C491 1.358 . S
C492 H495 0.930 . S
C493 C490 1.348 . S
C493 C491 1.356 . S
H494 C488 0.930 . S
H495 C492 0.930 . S
C496 C498 1.348 . S
C496 C499 1.356 . S
C496 O526 1.325 . S
N497 C500 1.314 . S
N497 C501 1.279 . S
C498 C496 1.348 . S
C498 C500 1.353 . S
C498 H540 0.929 . S
C499 C496 1.356 . S
C499 C501 1.358 . S
C499 H541 0.930 . S
C500 N497 1.314 . S
C500 C498 1.353 . S
C500 H542 0.930 . S
C501 N497 1.279 . S
C501 C499 1.358 . S
C501 H543 0.930 . S
C502 C503 1.348 . S
C502 C504 1.356 . S
C502 O527 1.325 . S
C503 C502 1.348 . S
C503 C505 1.353 . S
C503 H544 0.929 . S
C504 C502 1.356 . S
C504 C506 1.358 . S
C504 H545 0.930 . S
C505 C503 1.353 . S
C505 N507 1.314 . S
C505 H546 0.930 . S
C506 C504 1.358 . S
C506 N507 1.279 . S
C506 H547 0.930 . S
N507 C505 1.314 . S
N507 C506 1.279 . S
C508 C510 1.353 . S
C508 N511 1.314 . S
C508 H514 0.930 . S
C509 N511 1.279 . S
C509 C512 1.358 . S
C509 H515 0.930 . S
C510 C508 1.353 . S
C510 C513 1.348 . S
C510 H548 0.929 . S
N511 Li466 1.990 . S
N511 C508 1.314 . S
N511 C509 1.279 . S
C512 C509 1.358 . S
C512 C513 1.356 . S
C512 H549 0.930 . S
C513 C510 1.348 . S
C513 C512 1.356 . S
H514 C508 0.930 . S
H515 C509 0.930 . S
C516 N517 1.314 . S
C516 C518 1.353 . S
C516 H522 0.930 . S
N517 Li467 1.990 . S
N517 C516 1.314 . S
N517 C520 1.279 . S
C518 C516 1.353 . S
C518 C521 1.348 . S
C518 H550 0.929 . S
C519 C520 1.358 . S
C519 C521 1.356 . S
C519 H551 0.930 . S
C520 N517 1.279 . S
C520 C519 1.358 . S
C520 H523 0.930 . S
C521 C518 1.348 . S
C521 C519 1.356 . S
H522 C516 0.930 . S
H523 C520 0.930 . S
O524 Li464 1.956 . S
O524 Li465 1.970 . S
O524 Li466 1.961 . S
O524 C468 1.325 . S
O525 Li464 1.970 . S
O525 Li465 1.956 . S
O525 Li467 1.961 . S
O525 C474 1.325 . S
O526 Li464 1.961 . S
O526 Li466 1.956 . S
O526 Li467 1.970 . S
O526 C496 1.325 . S
O527 Li465 1.961 . S
O527 Li466 1.970 . S
O527 Li467 1.956 . S
O527 C502 1.325 . S
H528 C470 0.929 . S
H529 C471 0.930 . S
H530 C472 0.930 . S
H531 C473 0.930 . S
H532 C475 0.930 . S
H533 C477 0.929 . S
H534 C478 0.930 . S
H535 C479 0.930 . S
H536 C482 0.930 . S
H537 C485 0.929 . S
H538 C490 0.929 . S
H539 C491 0.930 . S
H540 C498 0.929 . S
H541 C499 0.930 . S
H542 C500 0.930 . S
H543 C501 0.930 . S
H544 C503 0.929 . S
H545 C504 0.930 . S
H546 C505 0.930 . S
H547 C506 0.930 . S
H548 C510 0.929 . S
H549 C512 0.930 . S
H550 C518 0.929 . S
H551 C519 0.930 . S
Li552 N569 1.990 . S
Li552 O612 1.956 . S
Li552 O613 1.970 . S
Li552 O614 1.961 . S
Li553 N577 1.990 . S
Li553 O612 1.970 . S
Li553 O613 1.956 . S
Li553 O615 1.961 . S
Li554 N599 1.990 . S
Li554 O612 1.961 . S
Li554 O614 1.956 . S
Li554 O615 1.970 . S
Li555 N605 1.990 . S
Li555 O613 1.961 . S
Li555 O614 1.970 . S
Li555 O615 1.956 . S
C556 C558 1.348 . S
C556 C559 1.356 . S
C556 O612 1.325 . S
N557 C560 1.314 . S
N557 C561 1.279 . S
C558 C556 1.348 . S
C558 C560 1.353 . S
C558 H616 0.929 . S
C559 C556 1.356 . S
C559 C561 1.358 . S
C559 H617 0.930 . S
C560 N557 1.314 . S
C560 C558 1.353 . S
C560 H618 0.930 . S
C561 N557 1.279 . S
C561 C559 1.358 . S
C561 H619 0.930 . S
C562 C565 1.348 . S
C562 C566 1.356 . S
C562 O613 1.325 . S
C563 N564 1.279 . S
C563 C566 1.358 . S
C563 H620 0.930 . S
N564 C563 1.279 . S
N564 C567 1.314 . S
C565 C562 1.348 . S
C565 C567 1.353 . S
C565 H621 0.929 . S
C566 C562 1.356 . S
C566 C563 1.358 . S
C566 H622 0.930 . S
C567 N564 1.314 . S
C567 C565 1.353 . S
C567 H623 0.930 . S
C568 N569 1.314 . S
C568 C573 1.353 . S
C568 H574 0.930 . S
N569 Li552 1.990 . S
N569 C568 1.314 . S
N569 C571 1.279 . S
C570 C571 1.358 . S
C570 C572 1.356 . S
C570 H624 0.930 1_556 S
C571 N569 1.279 . S
C571 C570 1.358 . S
C571 H575 0.930 . S
C572 C570 1.356 . S
C572 C573 1.348 . S
C573 C568 1.353 . S
C573 C572 1.348 . S
C573 H625 0.929 . S
H574 C568 0.930 . S
H575 C571 0.930 . S
C576 N577 1.314 . S
C576 C578 1.353 . S
C576 H582 0.930 . S
N577 Li553 1.990 . S
N577 C576 1.314 . S
N577 C580 1.279 . S
C578 C576 1.353 . S
C578 C581 1.348 . S
C578 H626 0.929 . S
C579 C580 1.358 . S
C579 C581 1.356 . S
C579 H627 0.930 . S
C580 N577 1.279 . S
C580 C579 1.358 . S
C580 H583 0.930 . S
C581 C578 1.348 . S
C581 C579 1.356 . S
H582 C576 0.930 . S
H583 C580 0.930 . S
C584 C586 1.348 . S
C584 C587 1.356 . S
C584 O614 1.325 . S
N585 C588 1.314 . S
N585 C589 1.279 . S
C586 C584 1.348 . S
C586 C588 1.353 . S
C586 H628 0.929 . S
C587 C584 1.356 . S
C587 C589 1.358 . S
C587 H629 0.930 . S
C588 N585 1.314 . S
C588 C586 1.353 . S
C588 H630 0.930 . S
C589 N585 1.279 . S
C589 C587 1.358 . S
C589 H631 0.930 . S
C590 C591 1.348 . S
C590 C592 1.356 . S
C590 O615 1.325 . S
C591 C590 1.348 . S
C591 C593 1.353 . S
C591 H632 0.929 . S
C592 C590 1.356 . S
C592 C594 1.358 . S
C592 H633 0.930 . S
C593 C591 1.353 . S
C593 N595 1.314 . S
C593 H634 0.930 . S
C594 C592 1.358 . S
C594 N595 1.279 . S
C594 H635 0.930 . S
N595 C593 1.314 . S
N595 C594 1.279 . S
C596 C598 1.353 . S
C596 N599 1.314 . S
C596 H602 0.930 . S
C597 N599 1.279 . S
C597 C600 1.358 . S
C597 H603 0.930 . S
C598 C596 1.353 . S
C598 C601 1.348 . S
C598 H636 0.929 . S
N599 Li554 1.990 . S
N599 C596 1.314 . S
N599 C597 1.279 . S
C600 C597 1.358 . S
C600 C601 1.356 . S
C600 H637 0.930 . S
C601 C598 1.348 . S
C601 C600 1.356 . S
H602 C596 0.930 . S
H603 C597 0.930 . S
C604 N605 1.314 . S
C604 C606 1.353 . S
C604 H610 0.930 . S
N605 Li555 1.990 . S
N605 C604 1.314 . S
N605 C608 1.279 . S
C606 C604 1.353 . S
C606 C609 1.348 . S
C606 H638 0.929 . S
C607 C608 1.358 . S
C607 C609 1.356 . S
C607 H639 0.930 . S
C608 N605 1.279 . S
C608 C607 1.358 . S
C608 H611 0.930 . S
C609 C606 1.348 . S
C609 C607 1.356 . S
H610 C604 0.930 . S
H611 C608 0.930 . S
O612 Li552 1.956 . S
O612 Li553 1.970 . S
O612 Li554 1.961 . S
O612 C556 1.325 . S
O613 Li552 1.970 . S
O613 Li553 1.956 . S
O613 Li555 1.961 . S
O613 C562 1.325 . S
O614 Li552 1.961 . S
O614 Li554 1.956 . S
O614 Li555 1.970 . S
O614 C584 1.325 . S
O615 Li553 1.961 . S
O615 Li554 1.970 . S
O615 Li555 1.956 . S
O615 C590 1.325 . S
H616 C558 0.929 . S
H617 C559 0.930 . S
H618 C560 0.930 . S
H619 C561 0.930 . S
H620 C563 0.930 . S
H621 C565 0.929 . S
H622 C566 0.930 . S
H623 C567 0.930 . S
H624 C570 0.930 1_554 S
H625 C573 0.929 . S
H626 C578 0.929 . S
H627 C579 0.930 . S
H628 C586 0.929 . S
H629 C587 0.930 . S
H630 C588 0.930 . S
H631 C589 0.930 . S
H632 C591 0.929 . S
H633 C592 0.930 . S
H634 C593 0.930 . S
H635 C594 0.930 . S
H636 C598 0.929 . S
H637 C600 0.930 . S
H638 C606 0.929 . S
H639 C607 0.930 . S
Li640 N657 1.990 . S
Li640 O700 1.956 . S
Li640 O701 1.970 . S
Li640 O702 1.961 . S
Li641 N665 1.990 . S
Li641 O700 1.970 . S
Li641 O701 1.956 . S
Li641 O703 1.961 . S
Li642 N687 1.990 . S
Li642 O700 1.961 . S
Li642 O702 1.956 . S
Li642 O703 1.970 . S
Li643 N693 1.990 . S
Li643 O701 1.961 . S
Li643 O702 1.970 . S
Li643 O703 1.956 . S
C644 C646 1.348 . S
C644 C647 1.356 . S
C644 O700 1.325 . S
N645 C648 1.314 . S
N645 C649 1.279 . S
C646 C644 1.348 . S
C646 C648 1.353 . S
C646 H704 0.929 . S
C647 C644 1.356 . S
C647 C649 1.358 . S
C647 H705 0.930 . S
C648 N645 1.314 . S
C648 C646 1.353 . S
C648 H706 0.930 . S
C649 N645 1.279 . S
C649 C647 1.358 . S
C649 H707 0.930 . S
C650 C653 1.348 . S
C650 C654 1.356 . S
C650 O701 1.325 . S
C651 N652 1.279 . S
C651 C654 1.358 . S
C651 H708 0.930 . S
N652 C651 1.279 . S
N652 C655 1.314 . S
C653 C650 1.348 . S
C653 C655 1.353 . S
C653 H709 0.929 . S
C654 C650 1.356 . S
C654 C651 1.358 . S
C654 H710 0.930 . S
C655 N652 1.314 . S
C655 C653 1.353 . S
C655 H711 0.930 . S
C656 N657 1.314 . S
C656 C661 1.353 . S
C656 H662 0.930 . S
N657 Li640 1.990 . S
N657 C656 1.314 . S
N657 C659 1.279 . S
C658 C659 1.358 . S
C658 C660 1.356 . S
C658 H712 0.930 . S
C659 N657 1.279 . S
C659 C658 1.358 . S
C659 H663 0.930 . S
C660 C658 1.356 . S
C660 C661 1.348 . S
C661 C656 1.353 . S
C661 C660 1.348 . S
C661 H713 0.929 . S
H662 C656 0.930 . S
H663 C659 0.930 . S
C664 N665 1.314 . S
C664 C666 1.353 . S
C664 H670 0.930 . S
N665 Li641 1.990 . S
N665 C664 1.314 . S
N665 C668 1.279 . S
C666 C664 1.353 . S
C666 C669 1.348 . S
C666 H714 0.929 . S
C667 C668 1.358 . S
C667 C669 1.356 . S
C667 H715 0.930 . S
C668 N665 1.279 . S
C668 C667 1.358 . S
C668 H671 0.930 . S
C669 C666 1.348 . S
C669 C667 1.356 . S
H670 C664 0.930 . S
H671 C668 0.930 . S
C672 C674 1.348 . S
C672 C675 1.356 . S
C672 O702 1.325 . S
N673 C676 1.314 . S
N673 C677 1.279 . S
C674 C672 1.348 . S
C674 C676 1.353 . S
C674 H716 0.929 . S
C675 C672 1.356 . S
C675 C677 1.358 . S
C675 H717 0.930 . S
C676 N673 1.314 . S
C676 C674 1.353 . S
C676 H718 0.930 . S
C677 N673 1.279 . S
C677 C675 1.358 . S
C677 H719 0.930 . S
C678 C679 1.348 . S
C678 C680 1.356 . S
C678 O703 1.325 . S
C679 C678 1.348 . S
C679 C681 1.353 . S
C679 H720 0.929 . S
C680 C678 1.356 . S
C680 C682 1.358 . S
C680 H721 0.930 . S
C681 C679 1.353 . S
C681 N683 1.314 . S
C681 H722 0.930 . S
C682 C680 1.358 . S
C682 N683 1.279 . S
C682 H723 0.930 . S
N683 C681 1.314 . S
N683 C682 1.279 . S
C684 C686 1.353 . S
C684 N687 1.314 . S
C684 H690 0.930 . S
C685 N687 1.279 . S
C685 C688 1.358 . S
C685 H691 0.930 . S
C686 C684 1.353 . S
C686 C689 1.348 . S
C686 H724 0.929 . S
N687 Li642 1.990 . S
N687 C684 1.314 . S
N687 C685 1.279 . S
C688 C685 1.358 . S
C688 C689 1.356 . S
C688 H725 0.930 1_554 S
C689 C686 1.348 . S
C689 C688 1.356 . S
H690 C684 0.930 . S
H691 C685 0.930 . S
C692 N693 1.314 . S
C692 C694 1.353 . S
C692 H698 0.930 . S
N693 Li643 1.990 . S
N693 C692 1.314 . S
N693 C696 1.279 . S
C694 C692 1.353 . S
C694 C697 1.348 . S
C694 H726 0.929 . S
C695 C696 1.358 . S
C695 C697 1.356 . S
C695 H727 0.930 . S
C696 N693 1.279 . S
C696 C695 1.358 . S
C696 H699 0.930 . S
C697 C694 1.348 . S
C697 C695 1.356 . S
H698 C692 0.930 . S
H699 C696 0.930 . S
O700 Li640 1.956 . S
O700 Li641 1.970 . S
O700 Li642 1.961 . S
O700 C644 1.325 . S
O701 Li640 1.970 . S
O701 Li641 1.956 . S
O701 Li643 1.961 . S
O701 C650 1.325 . S
O702 Li640 1.961 . S
O702 Li642 1.956 . S
O702 Li643 1.970 . S
O702 C672 1.325 . S
O703 Li641 1.961 . S
O703 Li642 1.970 . S
O703 Li643 1.956 . S
O703 C678 1.325 . S
H704 C646 0.929 . S
H705 C647 0.930 . S
H706 C648 0.930 . S
H707 C649 0.930 . S
H708 C651 0.930 . S
H709 C653 0.929 . S
H710 C654 0.930 . S
H711 C655 0.930 . S
H712 C658 0.930 . S
H713 C661 0.929 . S
H714 C666 0.929 . S
H715 C667 0.930 . S
H716 C674 0.929 . S
H717 C675 0.930 . S
H718 C676 0.930 . S
H719 C677 0.930 . S
H720 C679 0.929 . S
H721 C680 0.930 . S
H722 C681 0.930 . S
H723 C682 0.930 . S
H724 C686 0.929 . S
H725 C688 0.930 1_556 S
H726 C694 0.929 . S
H727 C695 0.930 . S
Li728 N745 1.990 . S
Li728 O788 1.956 . S
Li728 O789 1.970 . S
Li728 O790 1.961 . S
Li729 N753 1.990 . S
Li729 O788 1.970 . S
Li729 O789 1.956 . S
Li729 O791 1.961 . S
Li730 N775 1.990 . S
Li730 O788 1.961 . S
Li730 O790 1.956 . S
Li730 O791 1.970 . S
Li731 N781 1.990 . S
Li731 O789 1.961 . S
Li731 O790 1.970 . S
Li731 O791 1.956 . S
C732 C734 1.348 . S
C732 C735 1.356 . S
C732 O788 1.325 . S
N733 C736 1.314 . S
N733 C737 1.279 . S
C734 C732 1.348 . S
C734 C736 1.353 . S
C734 H792 0.929 . S
C735 C732 1.356 . S
C735 C737 1.358 . S
C735 H793 0.930 . S
C736 N733 1.314 . S
C736 C734 1.353 . S
C736 H794 0.930 . S
C737 N733 1.279 . S
C737 C735 1.358 . S
C737 H795 0.930 . S
C738 C741 1.348 . S
C738 C742 1.356 . S
C738 O789 1.325 . S
C739 N740 1.279 . S
C739 C742 1.358 . S
C739 H796 0.930 . S
N740 C739 1.279 . S
N740 C743 1.314 . S
C741 C738 1.348 . S
C741 C743 1.353 . S
C741 H797 0.929 . S
C742 C738 1.356 . S
C742 C739 1.358 . S
C742 H798 0.930 . S
C743 N740 1.314 . S
C743 C741 1.353 . S
C743 H799 0.930 . S
C744 N745 1.314 . S
C744 C749 1.353 . S
C744 H750 0.930 . S
N745 Li728 1.990 . S
N745 C744 1.314 . S
N745 C747 1.279 . S
C746 C747 1.358 . S
C746 C748 1.356 . S
C746 H800 0.930 . S
C747 N745 1.279 . S
C747 C746 1.358 . S
C747 H751 0.930 . S
C748 C746 1.356 . S
C748 C749 1.348 . S
C749 C744 1.353 . S
C749 C748 1.348 . S
C749 H801 0.929 . S
H750 C744 0.930 . S
H751 C747 0.930 . S
C752 N753 1.314 . S
C752 C754 1.353 . S
C752 H758 0.930 . S
N753 Li729 1.990 . S
N753 C752 1.314 . S
N753 C756 1.279 . S
C754 C752 1.353 . S
C754 C757 1.348 . S
C754 H802 0.929 . S
C755 C756 1.358 . S
C755 C757 1.356 . S
C755 H803 0.930 . S
C756 N753 1.279 . S
C756 C755 1.358 . S
C756 H759 0.930 . S
C757 C754 1.348 . S
C757 C755 1.356 . S
H758 C752 0.930 . S
H759 C756 0.930 . S
C760 C762 1.348 . S
C760 C763 1.356 . S
C760 O790 1.325 . S
N761 C764 1.314 . S
N761 C765 1.279 . S
C762 C760 1.348 . S
C762 C764 1.353 . S
C762 H804 0.929 . S
C763 C760 1.356 . S
C763 C765 1.358 . S
C763 H805 0.930 . S
C764 N761 1.314 . S
C764 C762 1.353 . S
C764 H806 0.930 . S
C765 N761 1.279 . S
C765 C763 1.358 . S
C765 H807 0.930 . S
C766 C767 1.348 . S
C766 C768 1.356 . S
C766 O791 1.325 . S
C767 C766 1.348 . S
C767 C769 1.353 . S
C767 H808 0.929 . S
C768 C766 1.356 . S
C768 C770 1.358 . S
C768 H809 0.930 . S
C769 C767 1.353 . S
C769 N771 1.314 . S
C769 H810 0.930 . S
C770 C768 1.358 . S
C770 N771 1.279 . S
C770 H811 0.930 . S
N771 C769 1.314 . S
N771 C770 1.279 . S
C772 C774 1.353 . S
C772 N775 1.314 . S
C772 H778 0.930 . S
C773 N775 1.279 . S
C773 C776 1.358 . S
C773 H779 0.930 . S
C774 C772 1.353 . S
C774 C777 1.348 . S
C774 H812 0.929 . S
N775 Li730 1.990 . S
N775 C772 1.314 . S
N775 C773 1.279 . S
C776 C773 1.358 . S
C776 C777 1.356 . S
C776 H813 0.930 . S
C777 C774 1.348 . S
C777 C776 1.356 . S
H778 C772 0.930 . S
H779 C773 0.930 . S
C780 N781 1.314 . S
C780 C782 1.353 . S
C780 H786 0.930 . S
N781 Li731 1.990 . S
N781 C780 1.314 . S
N781 C784 1.279 . S
C782 C780 1.353 . S
C782 C785 1.348 . S
C782 H814 0.929 . S
C783 C784 1.358 . S
C783 C785 1.356 . S
C783 H815 0.930 . S
C784 N781 1.279 . S
C784 C783 1.358 . S
C784 H787 0.930 . S
C785 C782 1.348 . S
C785 C783 1.356 . S
H786 C780 0.930 . S
H787 C784 0.930 . S
O788 Li728 1.956 . S
O788 Li729 1.970 . S
O788 Li730 1.961 . S
O788 C732 1.325 . S
O789 Li728 1.970 . S
O789 Li729 1.956 . S
O789 Li731 1.961 . S
O789 C738 1.325 . S
O790 Li728 1.961 . S
O790 Li730 1.956 . S
O790 Li731 1.970 . S
O790 C760 1.325 . S
O791 Li729 1.961 . S
O791 Li730 1.970 . S
O791 Li731 1.956 . S
O791 C766 1.325 . S
H792 C734 0.929 . S
H793 C735 0.930 . S
H794 C736 0.930 . S
H795 C737 0.930 . S
H796 C739 0.930 . S
H797 C741 0.929 . S
H798 C742 0.930 . S
H799 C743 0.930 . S
H800 C746 0.930 . S
H801 C749 0.929 . S
H802 C754 0.929 . S
H803 C755 0.930 . S
H804 C762 0.929 . S
H805 C763 0.930 . S
H806 C764 0.930 . S
H807 C765 0.930 . S
H808 C767 0.929 . S
H809 C768 0.930 . S
H810 C769 0.930 . S
H811 C770 0.930 . S
H812 C774 0.929 . S
H813 C776 0.930 . S
H814 C782 0.929 . S
H815 C783 0.930 . S
H816 C828 0.930 . S
H817 C830 0.930 . S
H818 C831 0.930 . S
H819 C835 0.959 . S
H820 C835 0.959 . S
H821 C835 0.961 . S
H822 C836 0.960 . S
H823 C836 0.961 . S
H824 C836 0.959 . S
H825 C839 0.929 . S
H826 C840 0.931 . S
H827 C842 0.930 . S
C828 H816 0.930 . S
C828 C829 1.399 . S
C828 C833 1.399 . S
C829 C828 1.399 . S
C829 C830 1.376 . S
C830 H817 0.930 . S
C830 C829 1.376 . S
C830 C831 1.388 . S
C831 H818 0.930 . S
C831 C830 1.388 . S
C831 C832 1.390 . S
C832 C831 1.390 . S
C832 C833 1.394 . S
C832 C838 1.465 . S
C833 C828 1.399 . S
C833 C832 1.394 . S
C833 C834 1.516 . S
C834 C833 1.516 . S
C834 C835 1.502 . S
C834 C836 1.561 . S
C834 C837 1.526 . S
C835 H819 0.959 . S
C835 H820 0.959 . S
C835 H821 0.961 . S
C835 C834 1.502 . S
C836 H822 0.960 . S
C836 H823 0.961 . S
C836 H824 0.959 . S
C836 C834 1.561 . S
C837 C834 1.526 . S
C837 C838 1.396 . S
C837 C842 1.390 . S
C838 C832 1.465 . S
C838 C837 1.396 . S
C838 C839 1.399 . S
C839 H825 0.929 . S
C839 C838 1.399 . S
C839 C840 1.385 . S
C840 H826 0.931 . S
C840 C839 1.385 . S
C840 C841 1.389 . S
C841 C840 1.389 . S
C841 C842 1.387 . S
C842 H827 0.930 . S
C842 C837 1.390 . S
C842 C841 1.387 . S
H843 C855 0.930 . S
H844 C857 0.930 . S
H845 C858 0.930 . S
H846 C862 0.959 . S
H847 C862 0.959 . S
H848 C862 0.961 . S
H849 C863 0.960 . S
H850 C863 0.961 . S
H851 C863 0.959 . S
H852 C866 0.929 . S
H853 C867 0.931 . S
H854 C869 0.930 . S
C855 H843 0.930 . S
C855 C856 1.399 . S
C855 C860 1.399 . S
C856 C855 1.399 . S
C856 C857 1.376 . S
C857 H844 0.930 . S
C857 C856 1.376 . S
C857 C858 1.388 . S
C858 H845 0.930 . S
C858 C857 1.388 . S
C858 C859 1.390 . S
C859 C858 1.390 . S
C859 C860 1.394 . S
C859 C865 1.465 . S
C860 C855 1.399 . S
C860 C859 1.394 . S
C860 C861 1.516 . S
C861 C860 1.516 . S
C861 C862 1.502 . S
C861 C863 1.561 . S
C861 C864 1.526 . S
C862 H846 0.959 . S
C862 H847 0.959 . S
C862 H848 0.961 . S
C862 C861 1.502 . S
C863 H849 0.960 . S
C863 H850 0.961 . S
C863 H851 0.959 . S
C863 C861 1.561 . S
C864 C861 1.526 . S
C864 C865 1.396 . S
C864 C869 1.390 . S
C865 C859 1.465 . S
C865 C864 1.396 . S
C865 C866 1.399 . S
C866 H852 0.929 . S
C866 C865 1.399 . S
C866 C867 1.385 . S
C867 H853 0.931 . S
C867 C866 1.385 . S
C867 C868 1.389 . S
C868 C867 1.389 . S
C868 C869 1.387 . S
C869 H854 0.930 . S
C869 C864 1.390 . S
C869 C868 1.387 . S
H870 C882 0.930 . S
H871 C884 0.930 . S
H872 C885 0.930 . S
H873 C889 0.959 . S
H874 C889 0.959 . S
H875 C889 0.961 . S
H876 C890 0.960 . S
H877 C890 0.961 . S
H878 C890 0.959 . S
H879 C893 0.929 . S
H880 C894 0.931 . S
H881 C896 0.930 . S
C882 H870 0.930 . S
C882 C883 1.399 . S
C882 C887 1.399 . S
C883 C882 1.399 . S
C883 C884 1.376 . S
C884 H871 0.930 . S
C884 C883 1.376 . S
C884 C885 1.388 . S
C885 H872 0.930 . S
C885 C884 1.388 . S
C885 C886 1.390 . S
C886 C885 1.390 . S
C886 C887 1.394 . S
C886 C892 1.465 . S
C887 C882 1.399 . S
C887 C886 1.394 . S
C887 C888 1.516 . S
C888 C887 1.516 . S
C888 C889 1.502 . S
C888 C890 1.561 . S
C888 C891 1.526 . S
C889 H873 0.959 . S
C889 H874 0.959 . S
C889 H875 0.961 . S
C889 C888 1.502 . S
C890 H876 0.960 . S
C890 H877 0.961 . S
C890 H878 0.959 . S
C890 C888 1.561 . S
C891 C888 1.526 . S
C891 C892 1.396 . S
C891 C896 1.390 . S
C892 C886 1.465 . S
C892 C891 1.396 . S
C892 C893 1.399 . S
C893 H879 0.929 . S
C893 C892 1.399 . S
C893 C894 1.385 . S
C894 H880 0.931 . S
C894 C893 1.385 . S
C894 C895 1.389 . S
C895 C894 1.389 . S
C895 C896 1.387 . S
C896 H881 0.930 . S
C896 C891 1.390 . S
C896 C895 1.387 . S
H897 C909 0.930 . S
H898 C911 0.930 . S
H899 C912 0.930 . S
H900 C916 0.959 . S
H901 C916 0.959 . S
H902 C916 0.961 . S
H903 C917 0.960 . S
H904 C917 0.961 . S
H905 C917 0.959 . S
H906 C920 0.929 . S
H907 C921 0.931 . S
H908 C923 0.930 . S
C909 H897 0.930 . S
C909 C910 1.399 . S
C909 C914 1.399 . S
C910 C909 1.399 . S
C910 C911 1.376 . S
C911 H898 0.930 . S
C911 C910 1.376 . S
C911 C912 1.388 . S
C912 H899 0.930 . S
C912 C911 1.388 . S
C912 C913 1.390 . S
C913 C912 1.390 . S
C913 C914 1.394 . S
C913 C919 1.465 . S
C914 C909 1.399 . S
C914 C913 1.394 . S
C914 C915 1.516 . S
C915 C914 1.516 . S
C915 C916 1.502 . S
C915 C917 1.561 . S
C915 C918 1.526 . S
C916 H900 0.959 . S
C916 H901 0.959 . S
C916 H902 0.961 . S
C916 C915 1.502 . S
C917 H903 0.960 . S
C917 H904 0.961 . S
C917 H905 0.959 . S
C917 C915 1.561 . S
C918 C915 1.526 . S
C918 C919 1.396 . S
C918 C923 1.390 . S
C919 C913 1.465 . S
C919 C918 1.396 . S
C919 C920 1.399 . S
C920 H906 0.929 . S
C920 C919 1.399 . S
C920 C921 1.385 . S
C921 H907 0.931 . S
C921 C920 1.385 . S
C921 C922 1.389 . S
C922 C921 1.389 . S
C922 C923 1.387 . S
C923 H908 0.930 . S
C923 C918 1.390 . S
C923 C922 1.387 . S
H924 C936 0.930 . S
H925 C938 0.930 . S
H926 C939 0.930 . S
H927 C943 0.959 . S
H928 C943 0.959 . S
H929 C943 0.961 . S
H930 C944 0.960 . S
H931 C944 0.961 . S
H932 C944 0.959 . S
H933 C947 0.929 . S
H934 C948 0.931 . S
H935 C950 0.930 . S
C936 H924 0.930 . S
C936 C937 1.399 . S
C936 C941 1.399 . S
C937 C936 1.399 . S
C937 C938 1.376 . S
C938 H925 0.930 . S
C938 C937 1.376 . S
C938 C939 1.388 . S
C939 H926 0.930 . S
C939 C938 1.388 . S
C939 C940 1.390 . S
C940 C939 1.390 . S
C940 C941 1.394 . S
C940 C946 1.465 . S
C941 C936 1.399 . S
C941 C940 1.394 . S
C941 C942 1.516 . S
C942 C941 1.516 . S
C942 C943 1.502 . S
C942 C944 1.561 . S
C942 C945 1.526 . S
C943 H927 0.959 . S
C943 H928 0.959 . S
C943 H929 0.961 . S
C943 C942 1.502 . S
C944 H930 0.960 . S
C944 H931 0.961 . S
C944 H932 0.959 . S
C944 C942 1.561 . S
C945 C942 1.526 . S
C945 C946 1.396 . S
C945 C950 1.390 . S
C946 C940 1.465 . S
C946 C945 1.396 . S
C946 C947 1.399 . S
C947 H933 0.929 . S
C947 C946 1.399 . S
C947 C948 1.385 . S
C948 H934 0.931 . S
C948 C947 1.385 . S
C948 C949 1.389 . S
C949 C948 1.389 . S
C949 C950 1.387 . S
C950 H935 0.930 . S
C950 C945 1.390 . S
C950 C949 1.387 . S
H951 C963 0.930 . S
H952 C965 0.930 . S
H953 C966 0.930 . S
H954 C970 0.959 . S
H955 C970 0.959 . S
H956 C970 0.961 . S
H957 C971 0.960 . S
H958 C971 0.961 . S
H959 C971 0.959 . S
H960 C974 0.929 . S
H961 C975 0.931 . S
H962 C977 0.930 . S
C963 H951 0.930 . S
C963 C964 1.399 . S
C963 C968 1.399 . S
C964 C963 1.399 . S
C964 C965 1.376 . S
C965 H952 0.930 . S
C965 C964 1.376 . S
C965 C966 1.388 . S
C966 H953 0.930 . S
C966 C965 1.388 . S
C966 C967 1.390 . S
C967 C966 1.390 . S
C967 C968 1.394 . S
C967 C973 1.465 . S
C968 C963 1.399 . S
C968 C967 1.394 . S
C968 C969 1.516 . S
C969 C968 1.516 . S
C969 C970 1.502 . S
C969 C971 1.561 . S
C969 C972 1.526 . S
C970 H954 0.959 . S
C970 H955 0.959 . S
C970 H956 0.961 . S
C970 C969 1.502 . S
C971 H957 0.960 . S
C971 H958 0.961 . S
C971 H959 0.959 . S
C971 C969 1.561 . S
C972 C969 1.526 . S
C972 C973 1.396 . S
C972 C977 1.390 . S
C973 C967 1.465 . S
C973 C972 1.396 . S
C973 C974 1.399 . S
C974 H960 0.929 . S
C974 C973 1.399 . S
C974 C975 1.385 . S
C975 H961 0.931 . S
C975 C974 1.385 . S
C975 C976 1.389 . S
C976 C975 1.389 . S
C976 C977 1.387 . S
C977 H962 0.930 . S
C977 C972 1.390 . S
C977 C976 1.387 . S
H978 C990 0.930 . S
H979 C992 0.930 . S
H980 C993 0.930 . S
H981 C997 0.959 . S
H982 C997 0.959 . S
H983 C997 0.961 . S
H984 C998 0.960 . S
H985 C998 0.961 . S
H986 C998 0.959 . S
H987 C1001 0.929 . S
H988 C1002 0.931 . S
H989 C1004 0.930 . S
C990 H978 0.930 . S
C990 C991 1.399 . S
C990 C995 1.399 . S
C991 C990 1.399 . S
C991 C992 1.376 . S
C992 H979 0.930 . S
C992 C991 1.376 . S
C992 C993 1.388 . S
C993 H980 0.930 . S
C993 C992 1.388 . S
C993 C994 1.390 . S
C994 C993 1.390 . S
C994 C995 1.394 . S
C994 C1000 1.465 . S
C995 C990 1.399 . S
C995 C994 1.394 . S
C995 C996 1.516 . S
C996 C995 1.516 . S
C996 C997 1.502 . S
C996 C998 1.561 . S
C996 C999 1.526 . S
C997 H981 0.959 . S
C997 H982 0.959 . S
C997 H983 0.961 . S
C997 C996 1.502 . S
C998 H984 0.960 . S
C998 H985 0.961 . S
C998 H986 0.959 . S
C998 C996 1.561 . S
C999 C996 1.526 . S
C999 C1000 1.396 . S
C999 C1004 1.390 . S
C1000 C994 1.465 . S
C1000 C999 1.396 . S
C1000 C1001 1.399 . S
C1001 H987 0.929 . S
C1001 C1000 1.399 . S
C1001 C1002 1.385 . S
C1002 H988 0.931 . S
C1002 C1001 1.385 . S
C1002 C1003 1.389 . S
C1003 C1002 1.389 . S
C1003 C1004 1.387 . S
C1004 H989 0.930 . S
C1004 C999 1.390 . S
C1004 C1003 1.387 . S
H1005 C1017 0.930 . S
H1006 C1019 0.930 . S
H1007 C1020 0.930 . S
H1008 C1024 0.959 . S
H1009 C1024 0.959 . S
H1010 C1024 0.961 . S
H1011 C1025 0.960 . S
H1012 C1025 0.961 . S
H1013 C1025 0.959 . S
H1014 C1028 0.929 . S
H1015 C1029 0.931 . S
H1016 C1031 0.930 . S
C1017 H1005 0.930 . S
C1017 C1018 1.399 . S
C1017 C1022 1.399 . S
C1018 C1017 1.399 . S
C1018 C1019 1.376 . S
C1019 H1006 0.930 . S
C1019 C1018 1.376 . S
C1019 C1020 1.388 . S
C1020 H1007 0.930 . S
C1020 C1019 1.388 . S
C1020 C1021 1.390 . S
C1021 C1020 1.390 . S
C1021 C1022 1.394 . S
C1021 C1027 1.465 . S
C1022 C1017 1.399 . S
C1022 C1021 1.394 . S
C1022 C1023 1.516 . S
C1023 C1022 1.516 . S
C1023 C1024 1.502 . S
C1023 C1025 1.561 . S
C1023 C1026 1.526 . S
C1024 H1008 0.959 . S
C1024 H1009 0.959 . S
C1024 H1010 0.961 . S
C1024 C1023 1.502 . S
C1025 H1011 0.960 . S
C1025 H1012 0.961 . S
C1025 H1013 0.959 . S
C1025 C1023 1.561 . S
C1026 C1023 1.526 . S
C1026 C1027 1.396 . S
C1026 C1031 1.390 . S
C1027 C1021 1.465 . S
C1027 C1026 1.396 . S
C1027 C1028 1.399 . S
C1028 H1014 0.929 . S
C1028 C1027 1.399 . S
C1028 C1029 1.385 . S
C1029 H1015 0.931 . S
C1029 C1028 1.385 . S
C1029 C1030 1.389 . S
C1030 C1029 1.389 . S
C1030 C1031 1.387 . S
C1031 H1016 0.930 . S
C1031 C1026 1.390 . S
C1031 C1030 1.387 . S
H1032 C1044 0.930 . S
H1033 C1046 0.930 . S
H1034 C1047 0.930 . S
H1035 C1051 0.959 . S
H1036 C1051 0.959 . S
H1037 C1051 0.961 . S
H1038 C1052 0.960 . S
H1039 C1052 0.961 . S
H1040 C1052 0.959 . S
H1041 C1055 0.929 . S
H1042 C1056 0.931 . S
H1043 C1058 0.930 . S
C1044 H1032 0.930 . S
C1044 C1045 1.399 . S
C1044 C1049 1.399 . S
C1045 C1044 1.399 . S
C1045 C1046 1.376 . S
C1046 H1033 0.930 . S
C1046 C1045 1.376 . S
C1046 C1047 1.388 . S
C1047 H1034 0.930 . S
C1047 C1046 1.388 . S
C1047 C1048 1.390 . S
C1048 C1047 1.390 . S
C1048 C1049 1.394 . S
C1048 C1054 1.465 . S
C1049 C1044 1.399 . S
C1049 C1048 1.394 . S
C1049 C1050 1.516 . S
C1050 C1049 1.516 . S
C1050 C1051 1.502 . S
C1050 C1052 1.561 . S
C1050 C1053 1.526 . S
C1051 H1035 0.959 . S
C1051 H1036 0.959 . S
C1051 H1037 0.961 . S
C1051 C1050 1.502 . S
C1052 H1038 0.960 . S
C1052 H1039 0.961 . S
C1052 H1040 0.959 . S
C1052 C1050 1.561 . S
C1053 C1050 1.526 . S
C1053 C1054 1.396 . S
C1053 C1058 1.390 . S
C1054 C1048 1.465 . S
C1054 C1053 1.396 . S
C1054 C1055 1.399 . S
C1055 H1041 0.929 . S
C1055 C1054 1.399 . S
C1055 C1056 1.385 . S
C1056 H1042 0.931 . S
C1056 C1055 1.385 . S
C1056 C1057 1.389 . S
C1057 C1056 1.389 . S
C1057 C1058 1.387 . S
C1058 H1043 0.930 . S
C1058 C1053 1.390 . S
C1058 C1057 1.387 . S
H1059 C1071 0.930 . S
H1060 C1073 0.930 . S
H1061 C1074 0.930 . S
H1062 C1078 0.959 . S
H1063 C1078 0.959 . S
H1064 C1078 0.961 . S
H1065 C1079 0.960 . S
H1066 C1079 0.961 . S
H1067 C1079 0.959 . S
H1068 C1082 0.929 . S
H1069 C1083 0.931 . S
H1070 C1085 0.930 . S
C1071 H1059 0.930 . S
C1071 C1072 1.399 . S
C1071 C1076 1.399 . S
C1072 C1071 1.399 . S
C1072 C1073 1.376 . S
C1073 H1060 0.930 . S
C1073 C1072 1.376 . S
C1073 C1074 1.388 . S
C1074 H1061 0.930 . S
C1074 C1073 1.388 . S
C1074 C1075 1.390 . S
C1075 C1074 1.390 . S
C1075 C1076 1.394 . S
C1075 C1081 1.465 . S
C1076 C1071 1.399 . S
C1076 C1075 1.394 . S
C1076 C1077 1.516 . S
C1077 C1076 1.516 . S
C1077 C1078 1.502 . S
C1077 C1079 1.561 . S
C1077 C1080 1.526 . S
C1078 H1062 0.959 . S
C1078 H1063 0.959 . S
C1078 H1064 0.961 . S
C1078 C1077 1.502 . S
C1079 H1065 0.960 . S
C1079 H1066 0.961 . S
C1079 H1067 0.959 . S
C1079 C1077 1.561 . S
C1080 C1077 1.526 . S
C1080 C1081 1.396 . S
C1080 C1085 1.390 . S
C1081 C1075 1.465 . S
C1081 C1080 1.396 . S
C1081 C1082 1.399 . S
C1082 H1068 0.929 . S
C1082 C1081 1.399 . S
C1082 C1083 1.385 . S
C1083 H1069 0.931 . S
C1083 C1082 1.385 . S
C1083 C1084 1.389 . S
C1084 C1083 1.389 . S
C1084 C1085 1.387 . S
C1085 H1070 0.930 . S
C1085 C1080 1.390 . S
C1085 C1084 1.387 . S
H1086 C1098 0.930 . S
H1087 C1100 0.930 . S
H1088 C1101 0.930 . S
H1089 C1105 0.959 . S
H1090 C1105 0.959 . S
H1091 C1105 0.961 . S
H1092 C1106 0.960 . S
H1093 C1106 0.961 . S
H1094 C1106 0.959 . S
H1095 C1109 0.929 . S
H1096 C1110 0.931 . S
H1097 C1112 0.930 . S
C1098 H1086 0.930 . S
C1098 C1099 1.399 . S
C1098 C1103 1.399 . S
C1099 C1098 1.399 . S
C1099 C1100 1.376 . S
C1100 H1087 0.930 . S
C1100 C1099 1.376 . S
C1100 C1101 1.388 . S
C1101 H1088 0.930 . S
C1101 C1100 1.388 . S
C1101 C1102 1.390 . S
C1102 C1101 1.390 . S
C1102 C1103 1.394 . S
C1102 C1108 1.465 . S
C1103 C1098 1.399 . S
C1103 C1102 1.394 . S
C1103 C1104 1.516 . S
C1104 C1103 1.516 . S
C1104 C1105 1.502 . S
C1104 C1106 1.561 . S
C1104 C1107 1.526 . S
C1105 H1089 0.959 . S
C1105 H1090 0.959 . S
C1105 H1091 0.961 . S
C1105 C1104 1.502 . S
C1106 H1092 0.960 . S
C1106 H1093 0.961 . S
C1106 H1094 0.959 . S
C1106 C1104 1.561 . S
C1107 C1104 1.526 . S
C1107 C1108 1.396 . S
C1107 C1112 1.390 . S
C1108 C1102 1.465 . S
C1108 C1107 1.396 . S
C1108 C1109 1.399 . S
C1109 H1095 0.929 . S
C1109 C1108 1.399 . S
C1109 C1110 1.385 . S
C1110 H1096 0.931 . S
C1110 C1109 1.385 . S
C1110 C1111 1.389 . S
C1111 C1110 1.389 . S
C1111 C1112 1.387 . S
C1112 H1097 0.930 . S
C1112 C1107 1.390 . S
C1112 C1111 1.387 . S
H1113 C1125 0.930 . S
H1114 C1127 0.930 . S
H1115 C1128 0.930 . S
H1116 C1132 0.959 . S
H1117 C1132 0.959 . S
H1118 C1132 0.961 . S
H1119 C1133 0.960 . S
H1120 C1133 0.961 . S
H1121 C1133 0.959 . S
H1122 C1136 0.929 . S
H1123 C1137 0.931 . S
H1124 C1139 0.930 . S
C1125 H1113 0.930 . S
C1125 C1126 1.399 . S
C1125 C1130 1.399 . S
C1126 C1125 1.399 . S
C1126 C1127 1.376 . S
C1127 H1114 0.930 . S
C1127 C1126 1.376 . S
C1127 C1128 1.388 . S
C1128 H1115 0.930 . S
C1128 C1127 1.388 . S
C1128 C1129 1.390 . S
C1129 C1128 1.390 . S
C1129 C1130 1.394 . S
C1129 C1135 1.465 . S
C1130 C1125 1.399 . S
C1130 C1129 1.394 . S
C1130 C1131 1.516 . S
C1131 C1130 1.516 . S
C1131 C1132 1.502 . S
C1131 C1133 1.561 . S
C1131 C1134 1.526 . S
C1132 H1116 0.959 . S
C1132 H1117 0.959 . S
C1132 H1118 0.961 . S
C1132 C1131 1.502 . S
C1133 H1119 0.960 . S
C1133 H1120 0.961 . S
C1133 H1121 0.959 . S
C1133 C1131 1.561 . S
C1134 C1131 1.526 . S
C1134 C1135 1.396 . S
C1134 C1139 1.390 . S
C1135 C1129 1.465 . S
C1135 C1134 1.396 . S
C1135 C1136 1.399 . S
C1136 H1122 0.929 . S
C1136 C1135 1.399 . S
C1136 C1137 1.385 . S
C1137 H1123 0.931 . S
C1137 C1136 1.385 . S
C1137 C1138 1.389 . S
C1138 C1137 1.389 . S
C1138 C1139 1.387 . S
C1139 H1124 0.930 . S
C1139 C1134 1.390 . S
C1139 C1138 1.387 . S
H1140 C1152 0.930 . S
H1141 C1154 0.930 . S
H1142 C1155 0.930 . S
H1143 C1159 0.959 . S
H1144 C1159 0.959 . S
H1145 C1159 0.961 . S
H1146 C1160 0.960 . S
H1147 C1160 0.961 . S
H1148 C1160 0.959 . S
H1149 C1163 0.929 . S
H1150 C1164 0.931 . S
H1151 C1166 0.930 . S
C1152 H1140 0.930 . S
C1152 C1153 1.399 . S
C1152 C1157 1.399 . S
C1153 C1152 1.399 . S
C1153 C1154 1.376 . S
C1154 H1141 0.930 . S
C1154 C1153 1.376 . S
C1154 C1155 1.388 . S
C1155 H1142 0.930 . S
C1155 C1154 1.388 . S
C1155 C1156 1.390 . S
C1156 C1155 1.390 . S
C1156 C1157 1.394 . S
C1156 C1162 1.465 . S
C1157 C1152 1.399 . S
C1157 C1156 1.394 . S
C1157 C1158 1.516 . S
C1158 C1157 1.516 . S
C1158 C1159 1.502 . S
C1158 C1160 1.561 . S
C1158 C1161 1.526 . S
C1159 H1143 0.959 . S
C1159 H1144 0.959 . S
C1159 H1145 0.961 . S
C1159 C1158 1.502 . S
C1160 H1146 0.960 . S
C1160 H1147 0.961 . S
C1160 H1148 0.959 . S
C1160 C1158 1.561 . S
C1161 C1158 1.526 . S
C1161 C1162 1.396 . S
C1161 C1166 1.390 . S
C1162 C1156 1.465 . S
C1162 C1161 1.396 . S
C1162 C1163 1.399 . S
C1163 H1149 0.929 . S
C1163 C1162 1.399 . S
C1163 C1164 1.385 . S
C1164 H1150 0.931 . S
C1164 C1163 1.385 . S
C1164 C1165 1.389 . S
C1165 C1164 1.389 . S
C1165 C1166 1.387 . S
C1166 H1151 0.930 . S
C1166 C1161 1.390 . S
C1166 C1165 1.387 . S
H1167 C1179 0.930 . S
H1168 C1181 0.930 . S
H1169 C1182 0.930 . S
H1170 C1186 0.959 . S
H1171 C1186 0.959 . S
H1172 C1186 0.961 . S
H1173 C1187 0.960 . S
H1174 C1187 0.961 . S
H1175 C1187 0.959 . S
H1176 C1190 0.929 . S
H1177 C1191 0.931 . S
H1178 C1193 0.930 . S
C1179 H1167 0.930 . S
C1179 C1180 1.399 . S
C1179 C1184 1.399 . S
C1180 C1179 1.399 . S
C1180 C1181 1.376 . S
C1181 H1168 0.930 . S
C1181 C1180 1.376 . S
C1181 C1182 1.388 . S
C1182 H1169 0.930 . S
C1182 C1181 1.388 . S
C1182 C1183 1.390 . S
C1183 C1182 1.390 . S
C1183 C1184 1.394 . S
C1183 C1189 1.465 . S
C1184 C1179 1.399 . S
C1184 C1183 1.394 . S
C1184 C1185 1.516 . S
C1185 C1184 1.516 . S
C1185 C1186 1.502 . S
C1185 C1187 1.561 . S
C1185 C1188 1.526 . S
C1186 H1170 0.959 . S
C1186 H1171 0.959 . S
C1186 H1172 0.961 . S
C1186 C1185 1.502 . S
C1187 H1173 0.960 . S
C1187 H1174 0.961 . S
C1187 H1175 0.959 . S
C1187 C1185 1.561 . S
C1188 C1185 1.526 . S
C1188 C1189 1.396 . S
C1188 C1193 1.390 . S
C1189 C1183 1.465 . S
C1189 C1188 1.396 . S
C1189 C1190 1.399 . S
C1190 H1176 0.929 . S
C1190 C1189 1.399 . S
C1190 C1191 1.385 . S
C1191 H1177 0.931 . S
C1191 C1190 1.385 . S
C1191 C1192 1.389 . S
C1192 C1191 1.389 . S
C1192 C1193 1.387 . S
C1193 H1178 0.930 . S
C1193 C1188 1.390 . S
C1193 C1192 1.387 . S
H1194 C1206 0.930 . S
H1195 C1208 0.930 . S
H1196 C1209 0.930 . S
H1197 C1213 0.959 . S
H1198 C1213 0.959 . S
H1199 C1213 0.961 . S
H1200 C1214 0.960 . S
H1201 C1214 0.961 . S
H1202 C1214 0.959 . S
H1203 C1217 0.929 . S
H1204 C1218 0.931 . S
H1205 C1220 0.930 . S
C1206 H1194 0.930 . S
C1206 C1207 1.399 . S
C1206 C1211 1.399 . S
C1207 C1206 1.399 . S
C1207 C1208 1.376 . S
C1208 H1195 0.930 . S
C1208 C1207 1.376 . S
C1208 C1209 1.388 . S
C1209 H1196 0.930 . S
C1209 C1208 1.388 . S
C1209 C1210 1.390 . S
C1210 C1209 1.390 . S
C1210 C1211 1.394 . S
C1210 C1216 1.465 . S
C1211 C1206 1.399 . S
C1211 C1210 1.394 . S
C1211 C1212 1.516 . S
C1212 C1211 1.516 . S
C1212 C1213 1.502 . S
C1212 C1214 1.561 . S
C1212 C1215 1.526 . S
C1213 H1197 0.959 . S
C1213 H1198 0.959 . S
C1213 H1199 0.961 . S
C1213 C1212 1.502 . S
C1214 H1200 0.960 . S
C1214 H1201 0.961 . S
C1214 H1202 0.959 . S
C1214 C1212 1.561 . S
C1215 C1212 1.526 . S
C1215 C1216 1.396 . S
C1215 C1220 1.390 . S
C1216 C1210 1.465 . S
C1216 C1215 1.396 . S
C1216 C1217 1.399 . S
C1217 H1203 0.929 . S
C1217 C1216 1.399 . S
C1217 C1218 1.385 . S
C1218 H1204 0.931 . S
C1218 C1217 1.385 . S
C1218 C1219 1.389 . S
C1219 C1218 1.389 . S
C1219 C1220 1.387 . S
C1220 H1205 0.930 . S
C1220 C1215 1.390 . S
C1220 C1219 1.387 . S
H1221 C1233 0.930 . S
H1222 C1235 0.930 . S
H1223 C1236 0.930 . S
H1224 C1240 0.959 . S
H1225 C1240 0.959 . S
H1226 C1240 0.961 . S
H1227 C1241 0.960 . S
H1228 C1241 0.961 . S
H1229 C1241 0.959 . S
H1230 C1244 0.929 . S
H1231 C1245 0.931 . S
H1232 C1247 0.930 . S
C1233 H1221 0.930 . S
C1233 C1234 1.399 . S
C1233 C1238 1.399 . S
C1234 C1233 1.399 . S
C1234 C1235 1.376 . S
C1235 H1222 0.930 . S
C1235 C1234 1.376 . S
C1235 C1236 1.388 . S
C1236 H1223 0.930 . S
C1236 C1235 1.388 . S
C1236 C1237 1.390 . S
C1237 C1236 1.390 . S
C1237 C1238 1.394 . S
C1237 C1243 1.465 . S
C1238 C1233 1.399 . S
C1238 C1237 1.394 . S
C1238 C1239 1.516 . S
C1239 C1238 1.516 . S
C1239 C1240 1.502 . S
C1239 C1241 1.561 . S
C1239 C1242 1.526 . S
C1240 H1224 0.959 . S
C1240 H1225 0.959 . S
C1240 H1226 0.961 . S
C1240 C1239 1.502 . S
C1241 H1227 0.960 . S
C1241 H1228 0.961 . S
C1241 H1229 0.959 . S
C1241 C1239 1.561 . S
C1242 C1239 1.526 . S
C1242 C1243 1.396 . S
C1242 C1247 1.390 . S
C1243 C1237 1.465 . S
C1243 C1242 1.396 . S
C1243 C1244 1.399 . S
C1244 H1230 0.929 . S
C1244 C1243 1.399 . S
C1244 C1245 1.385 . S
C1245 H1231 0.931 . S
C1245 C1244 1.385 . S
C1245 C1246 1.389 . S
C1246 C1245 1.389 . S
C1246 C1247 1.387 . S
C1247 H1232 0.930 . S
C1247 C1242 1.390 . S
C1247 C1246 1.387 . S
H1248 C1260 0.930 . S
H1249 C1262 0.930 . S
H1250 C1263 0.930 . S
H1251 C1267 0.959 . S
H1252 C1267 0.959 . S
H1253 C1267 0.961 . S
H1254 C1268 0.960 . S
H1255 C1268 0.961 . S
H1256 C1268 0.959 . S
H1257 C1271 0.929 . S
H1258 C1272 0.931 . S
H1259 C1274 0.930 . S
C1260 H1248 0.930 . S
C1260 C1261 1.399 . S
C1260 C1265 1.399 . S
C1261 C1260 1.399 . S
C1261 C1262 1.376 . S
C1262 H1249 0.930 . S
C1262 C1261 1.376 . S
C1262 C1263 1.388 . S
C1263 H1250 0.930 . S
C1263 C1262 1.388 . S
C1263 C1264 1.390 . S
C1264 C1263 1.390 . S
C1264 C1265 1.394 . S
C1264 C1270 1.465 . S
C1265 C1260 1.399 . S
C1265 C1264 1.394 . S
C1265 C1266 1.516 . S
C1266 C1265 1.516 . S
C1266 C1267 1.502 . S
C1266 C1268 1.561 . S
C1266 C1269 1.526 . S
C1267 H1251 0.959 . S
C1267 H1252 0.959 . S
C1267 H1253 0.961 . S
C1267 C1266 1.502 . S
C1268 H1254 0.960 . S
C1268 H1255 0.961 . S
C1268 H1256 0.959 . S
C1268 C1266 1.561 . S
C1269 C1266 1.526 . S
C1269 C1270 1.396 . S
C1269 C1274 1.390 . S
C1270 C1264 1.465 . S
C1270 C1269 1.396 . S
C1270 C1271 1.399 . S
C1271 H1257 0.929 . S
C1271 C1270 1.399 . S
C1271 C1272 1.385 . S
C1272 H1258 0.931 . S
C1272 C1271 1.385 . S
C1272 C1273 1.389 . S
C1273 C1272 1.389 . S
C1273 C1274 1.387 . S
C1274 H1259 0.930 . S
C1274 C1269 1.390 . S
C1274 C1273 1.387 . S
H1275 C1287 0.930 . S
H1276 C1289 0.930 . S
H1277 C1290 0.930 . S
H1278 C1294 0.959 . S
H1279 C1294 0.959 . S
H1280 C1294 0.961 . S
H1281 C1295 0.960 . S
H1282 C1295 0.961 . S
H1283 C1295 0.959 . S
H1284 C1298 0.929 . S
H1285 C1299 0.931 . S
H1286 C1301 0.930 . S
C1287 H1275 0.930 . S
C1287 C1288 1.399 . S
C1287 C1292 1.399 . S
C1288 C1287 1.399 . S
C1288 C1289 1.376 . S
C1289 H1276 0.930 . S
C1289 C1288 1.376 . S
C1289 C1290 1.388 . S
C1290 H1277 0.930 . S
C1290 C1289 1.388 . S
C1290 C1291 1.390 . S
C1291 C1290 1.390 . S
C1291 C1292 1.394 . S
C1291 C1297 1.465 . S
C1292 C1287 1.399 . S
C1292 C1291 1.394 . S
C1292 C1293 1.516 . S
C1293 C1292 1.516 . S
C1293 C1294 1.502 . S
C1293 C1295 1.561 . S
C1293 C1296 1.526 . S
C1294 H1278 0.959 . S
C1294 H1279 0.959 . S
C1294 H1280 0.961 . S
C1294 C1293 1.502 . S
C1295 H1281 0.960 . S
C1295 H1282 0.961 . S
C1295 H1283 0.959 . S
C1295 C1293 1.561 . S
C1296 C1293 1.526 . S
C1296 C1297 1.396 . S
C1296 C1301 1.390 . S
C1297 C1291 1.465 . S
C1297 C1296 1.396 . S
C1297 C1298 1.399 . S
C1298 H1284 0.929 . S
C1298 C1297 1.399 . S
C1298 C1299 1.385 . S
C1299 H1285 0.931 . S
C1299 C1298 1.385 . S
C1299 C1300 1.389 . S
C1300 C1299 1.389 . S
C1300 C1301 1.387 . S
C1301 H1286 0.930 . S
C1301 C1296 1.390 . S
C1301 C1300 1.387 . S
H1302 C1314 0.930 . S
H1303 C1316 0.930 . S
H1304 C1317 0.930 . S
H1305 C1321 0.959 . S
H1306 C1321 0.959 . S
H1307 C1321 0.961 . S
H1308 C1322 0.960 . S
H1309 C1322 0.961 . S
H1310 C1322 0.959 . S
H1311 C1325 0.929 . S
H1312 C1326 0.931 . S
H1313 C1328 0.930 . S
C1314 H1302 0.930 . S
C1314 C1315 1.399 . S
C1314 C1319 1.399 . S
C1315 C1314 1.399 . S
C1315 C1316 1.376 . S
C1316 H1303 0.930 . S
C1316 C1315 1.376 . S
C1316 C1317 1.388 . S
C1317 H1304 0.930 . S
C1317 C1316 1.388 . S
C1317 C1318 1.390 . S
C1318 C1317 1.390 . S
C1318 C1319 1.394 . S
C1318 C1324 1.465 . S
C1319 C1314 1.399 . S
C1319 C1318 1.394 . S
C1319 C1320 1.516 . S
C1320 C1319 1.516 . S
C1320 C1321 1.502 . S
C1320 C1322 1.561 . S
C1320 C1323 1.526 . S
C1321 H1305 0.959 . S
C1321 H1306 0.959 . S
C1321 H1307 0.961 . S
C1321 C1320 1.502 . S
C1322 H1308 0.960 . S
C1322 H1309 0.961 . S
C1322 H1310 0.959 . S
C1322 C1320 1.561 . S
C1323 C1320 1.526 . S
C1323 C1324 1.396 . S
C1323 C1328 1.390 . S
C1324 C1318 1.465 . S
C1324 C1323 1.396 . S
C1324 C1325 1.399 . S
C1325 H1311 0.929 . S
C1325 C1324 1.399 . S
C1325 C1326 1.385 . S
C1326 H1312 0.931 . S
C1326 C1325 1.385 . S
C1326 C1327 1.389 . S
C1327 C1326 1.389 . S
C1327 C1328 1.387 . S
C1328 H1313 0.930 . S
C1328 C1323 1.390 . S
C1328 C1327 1.387 . S
H1329 C1341 0.930 . S
H1330 C1343 0.930 . S
H1331 C1344 0.930 . S
H1332 C1348 0.959 . S
H1333 C1348 0.959 . S
H1334 C1348 0.961 . S
H1335 C1349 0.960 . S
H1336 C1349 0.961 . S
H1337 C1349 0.959 . S
H1338 C1352 0.929 . S
H1339 C1353 0.931 . S
H1340 C1355 0.930 . S
C1341 H1329 0.930 . S
C1341 C1342 1.399 . S
C1341 C1346 1.399 . S
C1342 C1341 1.399 . S
C1342 C1343 1.376 . S
C1343 H1330 0.930 . S
C1343 C1342 1.376 . S
C1343 C1344 1.388 . S
C1344 H1331 0.930 . S
C1344 C1343 1.388 . S
C1344 C1345 1.390 . S
C1345 C1344 1.390 . S
C1345 C1346 1.394 . S
C1345 C1351 1.465 . S
C1346 C1341 1.399 . S
C1346 C1345 1.394 . S
C1346 C1347 1.516 . S
C1347 C1346 1.516 . S
C1347 C1348 1.502 . S
C1347 C1349 1.561 . S
C1347 C1350 1.526 . S
C1348 H1332 0.959 . S
C1348 H1333 0.959 . S
C1348 H1334 0.961 . S
C1348 C1347 1.502 . S
C1349 H1335 0.960 . S
C1349 H1336 0.961 . S
C1349 H1337 0.959 . S
C1349 C1347 1.561 . S
C1350 C1347 1.526 . S
C1350 C1351 1.396 . S
C1350 C1355 1.390 . S
C1351 C1345 1.465 . S
C1351 C1350 1.396 . S
C1351 C1352 1.399 . S
C1352 H1338 0.929 . S
C1352 C1351 1.399 . S
C1352 C1353 1.385 . S
C1353 H1339 0.931 . S
C1353 C1352 1.385 . S
C1353 C1354 1.389 . S
C1354 C1353 1.389 . S
C1354 C1355 1.387 . S
C1355 H1340 0.930 . S
C1355 C1350 1.390 . S
C1355 C1354 1.387 . S
H1356 C1368 0.930 . S
H1357 C1370 0.930 . S
H1358 C1371 0.930 . S
H1359 C1375 0.959 . S
H1360 C1375 0.959 . S
H1361 C1375 0.961 . S
H1362 C1376 0.960 . S
H1363 C1376 0.961 . S
H1364 C1376 0.959 . S
H1365 C1379 0.929 . S
H1366 C1380 0.931 . S
H1367 C1382 0.930 . S
C1368 H1356 0.930 . S
C1368 C1369 1.399 . S
C1368 C1373 1.399 . S
C1369 C1368 1.399 . S
C1369 C1370 1.376 . S
C1370 H1357 0.930 . S
C1370 C1369 1.376 . S
C1370 C1371 1.388 . S
C1371 H1358 0.930 . S
C1371 C1370 1.388 . S
C1371 C1372 1.390 . S
C1372 C1371 1.390 . S
C1372 C1373 1.394 . S
C1372 C1378 1.465 . S
C1373 C1368 1.399 . S
C1373 C1372 1.394 . S
C1373 C1374 1.516 . S
C1374 C1373 1.516 . S
C1374 C1375 1.502 . S
C1374 C1376 1.561 . S
C1374 C1377 1.526 . S
C1375 H1359 0.959 . S
C1375 H1360 0.959 . S
C1375 H1361 0.961 . S
C1375 C1374 1.502 . S
C1376 H1362 0.960 . S
C1376 H1363 0.961 . S
C1376 H1364 0.959 . S
C1376 C1374 1.561 . S
C1377 C1374 1.526 . S
C1377 C1378 1.396 . S
C1377 C1382 1.390 . S
C1378 C1372 1.465 . S
C1378 C1377 1.396 . S
C1378 C1379 1.399 . S
C1379 H1365 0.929 . S
C1379 C1378 1.399 . S
C1379 C1380 1.385 . S
C1380 H1366 0.931 . S
C1380 C1379 1.385 . S
C1380 C1381 1.389 . S
C1381 C1380 1.389 . S
C1381 C1382 1.387 . S
C1382 H1367 0.930 . S
C1382 C1377 1.390 . S
C1382 C1381 1.387 . S
H1383 C1395 0.930 . S
H1384 C1397 0.930 . S
H1385 C1398 0.930 . S
H1386 C1402 0.959 . S
H1387 C1402 0.959 . S
H1388 C1402 0.961 . S
H1389 C1403 0.960 . S
H1390 C1403 0.961 . S
H1391 C1403 0.959 . S
H1392 C1406 0.929 . S
H1393 C1407 0.931 . S
H1394 C1409 0.930 . S
C1395 H1383 0.930 . S
C1395 C1396 1.399 . S
C1395 C1400 1.399 . S
C1396 C1395 1.399 . S
C1396 C1397 1.376 . S
C1397 H1384 0.930 . S
C1397 C1396 1.376 . S
C1397 C1398 1.388 . S
C1398 H1385 0.930 . S
C1398 C1397 1.388 . S
C1398 C1399 1.390 . S
C1399 C1398 1.390 . S
C1399 C1400 1.394 . S
C1399 C1405 1.465 . S
C1400 C1395 1.399 . S
C1400 C1399 1.394 . S
C1400 C1401 1.516 . S
C1401 C1400 1.516 . S
C1401 C1402 1.502 . S
C1401 C1403 1.561 . S
C1401 C1404 1.526 . S
C1402 H1386 0.959 . S
C1402 H1387 0.959 . S
C1402 H1388 0.961 . S
C1402 C1401 1.502 . S
C1403 H1389 0.960 . S
C1403 H1390 0.961 . S
C1403 H1391 0.959 . S
C1403 C1401 1.561 . S
C1404 C1401 1.526 . S
C1404 C1405 1.396 . S
C1404 C1409 1.390 . S
C1405 C1399 1.465 . S
C1405 C1404 1.396 . S
C1405 C1406 1.399 . S
C1406 H1392 0.929 . S
C1406 C1405 1.399 . S
C1406 C1407 1.385 . S
C1407 H1393 0.931 . S
C1407 C1406 1.385 . S
C1407 C1408 1.389 . S
C1408 C1407 1.389 . S
C1408 C1409 1.387 . S
C1409 H1394 0.930 . S
C1409 C1404 1.390 . S
C1409 C1408 1.387 . S
H1410 C1422 0.930 . S
H1411 C1424 0.930 . S
H1412 C1425 0.930 . S
H1413 C1429 0.959 . S
H1414 C1429 0.959 . S
H1415 C1429 0.961 . S
H1416 C1430 0.960 . S
H1417 C1430 0.961 . S
H1418 C1430 0.959 . S
H1419 C1433 0.929 . S
H1420 C1434 0.931 . S
H1421 C1436 0.930 . S
C1422 H1410 0.930 . S
C1422 C1423 1.399 . S
C1422 C1427 1.399 . S
C1423 C1422 1.399 . S
C1423 C1424 1.376 . S
C1424 H1411 0.930 . S
C1424 C1423 1.376 . S
C1424 C1425 1.388 . S
C1425 H1412 0.930 . S
C1425 C1424 1.388 . S
C1425 C1426 1.390 . S
C1426 C1425 1.390 . S
C1426 C1427 1.394 . S
C1426 C1432 1.465 . S
C1427 C1422 1.399 . S
C1427 C1426 1.394 . S
C1427 C1428 1.516 . S
C1428 C1427 1.516 . S
C1428 C1429 1.502 . S
C1428 C1430 1.561 . S
C1428 C1431 1.526 . S
C1429 H1413 0.959 . S
C1429 H1414 0.959 . S
C1429 H1415 0.961 . S
C1429 C1428 1.502 . S
C1430 H1416 0.960 . S
C1430 H1417 0.961 . S
C1430 H1418 0.959 . S
C1430 C1428 1.561 . S
C1431 C1428 1.526 . S
C1431 C1432 1.396 . S
C1431 C1436 1.390 . S
C1432 C1426 1.465 . S
C1432 C1431 1.396 . S
C1432 C1433 1.399 . S
C1433 H1419 0.929 . S
C1433 C1432 1.399 . S
C1433 C1434 1.385 . S
C1434 H1420 0.931 . S
C1434 C1433 1.385 . S
C1434 C1435 1.389 . S
C1435 C1434 1.389 . S
C1435 C1436 1.387 . S
C1436 H1421 0.930 . S
C1436 C1431 1.390 . S
C1436 C1435 1.387 . S
H1437 C1449 0.930 . S
H1438 C1451 0.930 . S
H1439 C1452 0.930 . S
H1440 C1456 0.959 . S
H1441 C1456 0.959 . S
H1442 C1456 0.961 . S
H1443 C1457 0.960 . S
H1444 C1457 0.961 . S
H1445 C1457 0.959 . S
H1446 C1460 0.929 . S
H1447 C1461 0.931 . S
H1448 C1463 0.930 . S
C1449 H1437 0.930 . S
C1449 C1450 1.399 . S
C1449 C1454 1.399 . S
C1450 C1449 1.399 . S
C1450 C1451 1.376 . S
C1451 H1438 0.930 . S
C1451 C1450 1.376 . S
C1451 C1452 1.388 . S
C1452 H1439 0.930 . S
C1452 C1451 1.388 . S
C1452 C1453 1.390 . S
C1453 C1452 1.390 . S
C1453 C1454 1.394 . S
C1453 C1459 1.465 . S
C1454 C1449 1.399 . S
C1454 C1453 1.394 . S
C1454 C1455 1.516 . S
C1455 C1454 1.516 . S
C1455 C1456 1.502 . S
C1455 C1457 1.561 . S
C1455 C1458 1.526 . S
C1456 H1440 0.959 . S
C1456 H1441 0.959 . S
C1456 H1442 0.961 . S
C1456 C1455 1.502 . S
C1457 H1443 0.960 . S
C1457 H1444 0.961 . S
C1457 H1445 0.959 . S
C1457 C1455 1.561 . S
C1458 C1455 1.526 . S
C1458 C1459 1.396 . S
C1458 C1463 1.390 . S
C1459 C1453 1.465 . S
C1459 C1458 1.396 . S
C1459 C1460 1.399 . S
C1460 H1446 0.929 . S
C1460 C1459 1.399 . S
C1460 C1461 1.385 . S
C1461 H1447 0.931 . S
C1461 C1460 1.385 . S
C1461 C1462 1.389 . S
C1462 C1461 1.389 . S
C1462 C1463 1.387 . S
C1463 H1448 0.930 . S
C1463 C1458 1.390 . S
C1463 C1462 1.387 . S
C841 C757 1.633 . S
C829 C45 1.669 . S
C856 C84 1.619 . S
C868 C317 1.651 . S
C883 C126 1.564 . S
C895 C405 1.650 . S
C910 C189 1.657 . S
C922 C484 1.629 . S
C949 C581 1.641 . S
C937 C228 1.627 . S
C964 C270 1.620 . S
C976 C660 1.624 . S
C991 C69 1.622 . S
C1003 C425 1.663 . S
C1018 C141 1.651 . S
C1030 C521 1.655 . S
C1045 C174 1.567 . S
C1057 C601 1.669 . S
C1084 C697 1.625 . S
C1072 C213 1.633 . S
C1111 C777 1.625 . S
C1099 C285 1.661 . S
C1138 C337 1.669 . S
C1126 C30 1.563 . S
C1153 C36 1.474 . S
C1165 C433 1.471 . S
C1180 C93 1.475 . S
C1192 C513 1.461 . S
C1219 C609 1.493 . S
C1207 C117 1.468 . S
C1234 C180 1.472 . S
C1246 C689 1.478 1_556 S
C1273 C785 1.474 . S
C1261 C237 1.476 . S
C1300 C345 1.465 . S
C1288 C261 1.482 . S
C1327 C748 1.490 . S
C1315 C78 1.456 . S
C1342 C132 1.482 . S
C1354 C308 1.494 . S
C1381 C396 1.466 . S
C1369 C165 1.480 . S
C1396 C222 1.489 . S
C1408 C493 1.461 . S
C1423 C276 1.475 . S
C1435 C572 1.469 1_554 S
C1450 C21 1.483 . S
C1462 C669 1.464 . S
