# Generated by pormake.
# Topology anh, (6,3)-cn, num edge types: 1
# Building blocks:
#     Node 0, Type 0, BuildingBlock: PAMTOO_clean_sbu_0, # of connection points: 6
#     Node 1, Type 0, BuildingBlock: PAMTOO_clean_sbu_0, # of connection points: 6
#     Node 2, Type 0, BuildingBlock: PAMTOO_clean_sbu_0, # of connection points: 6
#     Node 3, Type 1, BuildingBlock: MIDCAF_clean_linker_0, # of connection points: 3
#     Node 4, Type 1, BuildingBlock: MIDCAF_clean_linker_0, # of connection points: 3
#     Node 5, Type 1, BuildingBlock: MIDCAF_clean_linker_0, # of connection points: 3
#     Node 6, Type 1, BuildingBlock: MIDCAF_clean_linker_0, # of connection points: 3
#     Node 7, Type 1, BuildingBlock: MIDCAF_clean_linker_0, # of connection points: 3
#     Node 8, Type 1, BuildingBlock: MIDCAF_clean_linker_0, # of connection points: 3
#     Edge 9, Type (0, 1), BuildingBlock: TEMPAE_clean_linker_10, # of connection points: 2
#     Edge 10, Type (0, 1), BuildingBlock: TEMPAE_clean_linker_10, # of connection points: 2
#     Edge 11, Type (0, 1), BuildingBlock: TEMPAE_clean_linker_10, # of connection points: 2
#     Edge 12, Type (0, 1), BuildingBlock: TEMPAE_clean_linker_10, # of connection points: 2
#     Edge 13, Type (0, 1), BuildingBlock: TEMPAE_clean_linker_10, # of connection points: 2
#     Edge 14, Type (0, 1), BuildingBlock: TEMPAE_clean_linker_10, # of connection points: 2
#     Edge 15, Type (0, 1), BuildingBlock: TEMPAE_clean_linker_10, # of connection points: 2
#     Edge 16, Type (0, 1), BuildingBlock: TEMPAE_clean_linker_10, # of connection points: 2
#     Edge 17, Type (0, 1), BuildingBlock: TEMPAE_clean_linker_10, # of connection points: 2
#     Edge 18, Type (0, 1), BuildingBlock: TEMPAE_clean_linker_10, # of connection points: 2
#     Edge 19, Type (0, 1), BuildingBlock: TEMPAE_clean_linker_10, # of connection points: 2
#     Edge 20, Type (0, 1), BuildingBlock: TEMPAE_clean_linker_10, # of connection points: 2
#     Edge 21, Type (0, 1), BuildingBlock: TEMPAE_clean_linker_10, # of connection points: 2
#     Edge 22, Type (0, 1), BuildingBlock: TEMPAE_clean_linker_10, # of connection points: 2
#     Edge 23, Type (0, 1), BuildingBlock: TEMPAE_clean_linker_10, # of connection points: 2
#     Edge 24, Type (0, 1), BuildingBlock: TEMPAE_clean_linker_10, # of connection points: 2
#     Edge 25, Type (0, 1), BuildingBlock: TEMPAE_clean_linker_10, # of connection points: 2
#     Edge 26, Type (0, 1), BuildingBlock: TEMPAE_clean_linker_10, # of connection points: 2
# Relax obj value: 0.180
# Max RMSD: 0.195
# Mean RMSD: 0.156
data_MOF--net-anh--node1-PAMTOO_clean_sbu_0--node2-MIDCAF_clean_linker_0--edge1-TEMPAE_clean_linker_10
_symmetry_space_group_name_H-M    P1
_symmetry_Int_Tables_number       1
_symmetry_cell_setting            triclinic
loop_
_symmetry_equiv_pos_as_xyz
'x, y, z'
_cell_length_a     36.894065
_cell_length_b     35.74626
_cell_length_c     67.153265
_cell_angle_alpha  90.351659
_cell_angle_beta   94.924518
_cell_angle_gamma 105.68589
loop_
_atom_site_label
_atom_site_type_symbol
_atom_site_fract_x
_atom_site_fract_y
_atom_site_fract_z
_atom_type_partial_charge
Dy0 Dy 0.06221 0.59866 0.14677 0.0
Dy1 Dy 1.03567 0.50305 0.14044 0.0
C2 C 1.04384 0.55931 0.10453 0.0
O3 O 1.00004 0.58509 0.15074 0.0
O4 O 0.981 0.52014 0.14098 0.0
O5 O 0.08682 0.65253 0.13265 0.0
O6 O 0.07068 0.65327 0.16292 0.0
O7 O 1.03283 0.51352 0.1729 0.0
O8 O 0.07127 0.57623 0.17708 0.0
O9 O 0.09884 0.51595 0.14678 0.0
O10 O 0.11584 0.58188 0.14197 0.0
O11 O 1.03663 0.44474 0.14802 0.0
O12 O 1.00148 0.45423 0.12202 0.0
C13 C 0.97324 0.55248 0.14648 0.0
O14 O 1.03272 0.58204 0.11649 0.0
O15 O 0.05522 0.53017 0.11189 0.0
C16 C 0.12559 0.70055 0.15482 0.0
C17 C 0.19853 0.75117 0.16418 0.0
C18 C 0.17233 0.76168 0.15036 0.0
C19 C 0.13621 0.73661 0.14576 0.0
C20 C 0.15154 0.68978 0.16857 0.0
C21 C 0.18757 0.71494 0.1733 0.0
C22 C 0.08841 0.6735 0.14881 0.0
C23 C 0.05286 0.54315 0.18428 0.0
C24 C 0.12488 0.54885 0.14472 0.0
C25 C 0.97695 0.3994 0.14094 0.0
C26 C 0.91309 0.34402 0.1531 0.0
C27 C 0.93214 0.37626 0.16562 0.0
C28 C 0.96362 0.40382 0.15955 0.0
C29 C 0.95803 0.36733 0.12839 0.0
C30 C 0.92627 0.3399 0.13439 0.0
C31 C 1.0096 0.42879 0.13423 0.0
H32 H 0.17994 0.789 0.1428 0.0
H33 H 0.11672 0.74513 0.13489 0.0
H34 H 0.14403 0.66181 0.17555 0.0
H35 H 0.20675 0.70607 0.1842 0.0
H36 H 0.92231 0.38047 0.17999 0.0
H37 H 0.97743 0.42869 0.16935 0.0
H38 H 0.96773 0.36359 0.11393 0.0
H39 H 0.91227 0.31525 0.12449 0.0
Dy40 Dy 0.55969 0.0248 0.51915 0.0
Dy41 Dy 0.65299 0.05136 0.52399 0.0
C42 C 0.60569 0.03694 0.56139 0.0
O43 O 0.57475 0.0885 0.51378 0.0
O44 O 0.63606 0.10635 0.52811 0.0
O45 O 0.50776 2e-05 0.53257 0.0
O46 O 0.50608 0.01998 0.50217 0.0
O47 O 0.63417 0.06182 0.4926 0.0
O48 O 0.57912 0.01312 0.48977 0.0
O49 O 0.63792 0.987 0.51807 0.0
O50 O 0.57591 0.96993 0.52548 0.0
O51 O 0.70643 0.05178 0.51312 0.0
O52 O 0.70503 0.08171 0.54113 0.0
C53 C 0.60536 0.11525 0.52072 0.0
O54 O 0.57899 0.04704 0.55039 0.0
O55 O 0.63388 0.02896 0.55328 0.0
C56 C 0.45813 0.96422 0.51003 0.0
C57 C 0.40495 0.89225 0.50014 0.0
C58 C 0.40418 0.91229 0.51809 0.0
C59 C 0.43045 0.94804 0.52294 0.0
C60 C 0.45895 0.94426 0.49205 0.0
C61 C 0.43242 0.90867 0.4871 0.0
C62 C 0.48671 0.00091 0.51607 0.0
C63 C 0.60676 0.0374 0.48156 0.0
C64 C 0.60692 0.96066 0.52189 0.0
C65 C 0.75265 0.11125 0.52077 0.0
C66 C 0.80267 0.18071 0.50956 0.0
C67 C 0.76914 0.16357 0.49749 0.0
C68 C 0.74421 0.12926 0.50311 0.0
C69 C 0.78612 0.12818 0.53281 0.0
C70 C 0.81093 0.16274 0.52729 0.0
C71 C 0.72583 0.07608 0.52726 0.0
H72 H 0.38307 0.90043 0.52831 0.0
H73 H 0.42942 0.96292 0.5369 0.0
H74 H 0.48028 0.95588 0.48191 0.0
H75 H 0.43381 0.89362 0.47326 0.0
H76 H 0.76189 0.17709 0.48388 0.0
H77 H 0.71818 0.11702 0.49375 0.0
H78 H 0.7929 0.11483 0.54657 0.0
H79 H 0.83671 0.17526 0.53678 0.0
Dy80 Dy 0.56285 0.46379 0.84321 0.0
Dy81 Dy 0.47103 0.44492 0.84016 0.0
C82 C 0.51667 0.45651 0.80185 0.0
O83 O 0.54967 0.52042 0.83677 0.0
O84 O 0.4921 0.50788 0.84929 0.0
O85 O 0.61581 0.5005 0.83547 0.0
O86 O 0.61517 0.45132 0.85427 0.0
O87 O 0.48966 0.43398 0.87162 0.0
O88 O 0.54815 0.47736 0.87336 0.0
O89 O 0.48065 0.38685 0.83427 0.0
O90 O 0.54212 0.40003 0.84812 0.0
O91 O 0.41826 0.43721 0.85338 0.0
O92 O 0.41849 0.43414 0.82122 0.0
C93 C 0.52212 0.53253 0.84328 0.0
O94 O 0.54211 0.44312 0.81197 0.0
O95 O 0.49186 0.46835 0.81121 0.0
C96 C 0.66417 0.46935 0.83226 0.0
C97 C 0.72937 0.46292 0.81503 0.0
C98 C 0.70955 0.48916 0.8076 0.0
C99 C 0.67739 0.49238 0.81613 0.0
C100 C 0.68176 0.44057 0.83846 0.0
C101 C 0.71391 0.43715 0.82979 0.0
C102 C 0.63549 0.47876 0.84398 0.0
C103 C 0.51918 0.45668 0.88212 0.0
C104 C 0.51024 0.37525 0.84104 0.0
C105 C 0.38272 0.47211 0.83417 0.0
C106 C 0.35831 0.53946 0.82711 0.0
C107 C 0.38599 0.53909 0.84274 0.0
C108 C 0.39809 0.50591 0.84621 0.0
C109 C 0.35455 0.47201 0.81871 0.0
C110 C 0.34223 0.50543 0.81527 0.0
C111 C 0.39984 0.43939 0.83614 0.0
H112 H 0.72069 0.50986 0.79644 0.0
H113 H 0.66449 0.51481 0.81092 0.0
H114 H 0.67206 0.42221 0.85078 0.0
H115 H 0.72818 0.41621 0.83565 0.0
H116 H 0.39816 0.56447 0.85245 0.0
H117 H 0.42008 0.50709 0.85815 0.0
H118 H 0.34277 0.44647 0.80905 0.0
H119 H 0.32071 0.50491 0.80316 0.0
C120 C 0.47469 0.92242 0.2268 0.0
C121 C 0.45594 0.93075 0.20896 0.0
C122 C 0.47236 0.96515 0.19919 0.0
C123 C 0.50584 0.99131 0.20756 0.0
H124 H 0.62153 0.0667 0.19658 0.0
H125 H 0.66898 0.11378 0.17946 0.0
H126 H 0.70252 0.18417 0.23385 0.0
H127 H 0.65543 0.13745 0.25096 0.0
H128 H 0.62942 0.10039 0.29255 0.0
H129 H 0.63543 0.1006 0.3291 0.0
H130 H 0.56697 0.98158 0.32755 0.0
H131 H 0.56075 0.98118 0.29112 0.0
H132 H 0.52077 0.9417 0.2493 0.0
H133 H 0.46354 0.89575 0.23446 0.0
H134 H 0.45861 0.97264 0.18548 0.0
H135 H 0.51709 0.01816 0.20006 0.0
N136 N 0.57922 0.04095 0.22611 0.0
N137 N 0.61275 0.06844 0.25643 0.0
N138 N 0.5613 0.01329 0.25659 0.0
C139 C 0.60801 0.06859 0.23612 0.0
C140 C 0.58958 0.04081 0.26676 0.0
C141 C 0.55573 0.0132 0.23635 0.0
C142 C 0.63475 0.09818 0.22517 0.0
C143 C 0.63876 0.0924 0.20483 0.0
C144 C 0.66606 0.11921 0.19505 0.0
C145 C 0.68944 0.15261 0.20533 0.0
C146 C 0.68469 0.15888 0.22549 0.0
C147 C 0.65783 0.13192 0.23532 0.0
C148 C 0.59453 0.0408 0.28889 0.0
C149 C 0.61581 0.0742 0.29999 0.0
C150 C 0.61911 0.07442 0.3209 0.0
C151 C 0.60166 0.04111 0.33111 0.0
C152 C 0.58095 0.00756 0.32004 0.0
C153 C 0.57723 0.00746 0.29917 0.0
C154 C 0.52327 0.98377 0.22596 0.0
C155 C 0.50771 0.9487 0.23526 0.0
C156 C 0.54949 0.39108 0.54512 0.0
C157 C 0.58245 0.38898 0.53668 0.0
C158 C 0.60998 0.42386 0.5335 0.0
C159 C 0.60589 0.45975 0.54019 0.0
H160 H 0.60037 0.59051 0.52945 0.0
H161 H 0.61158 0.65767 0.51831 0.0
H162 H 0.58801 0.69339 0.57625 0.0
H163 H 0.57786 0.62779 0.58742 0.0
H164 H 0.55564 0.57359 0.62101 0.0
H165 H 0.54319 0.56288 0.65588 0.0
H166 H 0.5406 0.44208 0.64821 0.0
H167 H 0.55206 0.45235 0.61333 0.0
H168 H 0.52083 0.42684 0.55942 0.0
H169 H 0.5273 0.36494 0.54731 0.0
H170 H 0.63568 0.42319 0.52701 0.0
H171 H 0.62859 0.4859 0.53888 0.0
N172 N 0.58222 0.53232 0.55483 0.0
N173 N 0.57169 0.55654 0.58585 0.0
N174 N 0.56451 0.49019 0.58124 0.0
C175 C 0.58082 0.56302 0.56673 0.0
C176 C 0.56367 0.52037 0.59325 0.0
C177 C 0.5737 0.49569 0.56214 0.0
C178 C 0.58836 0.60345 0.55939 0.0
C179 C 0.59784 0.6128 0.53981 0.0
C180 C 0.6041 0.65125 0.5334 0.0
C181 C 0.60113 0.68111 0.54645 0.0
C182 C 0.59149 0.67151 0.56591 0.0
C183 C 0.58535 0.63348 0.57228 0.0
C184 C 0.55494 0.51387 0.61431 0.0
C185 C 0.55223 0.54468 0.62671 0.0
C186 C 0.54529 0.53861 0.64674 0.0
C187 C 0.54097 0.50165 0.65484 0.0
C188 C 0.54324 0.47079 0.64239 0.0
C189 C 0.55006 0.47679 0.62237 0.0
C190 C 0.5743 0.46108 0.55017 0.0
C191 C 0.5456 0.42659 0.55189 0.0
C192 C 0.96431 0.64975 0.85398 0.0
C193 C 0.96989 0.63833 0.83466 0.0
C194 C 1.00578 0.65169 0.82771 0.0
C195 C 1.03593 0.67473 0.84018 0.0
H196 H 0.14399 0.72962 0.84124 0.0
H197 H 0.20213 0.72647 0.82868 0.0
H198 H 0.25977 0.75331 0.88804 0.0
H199 H 0.20018 0.75371 0.90099 0.0
H200 H 0.14994 0.70461 0.93575 0.0
H201 H 0.14364 0.67739 0.96892 0.0
H202 H 1.02259 0.65843 0.96003 0.0
H203 H 1.02867 0.68478 0.92684 0.0
H204 H 0.9895 0.67925 0.88159 0.0
H205 H 0.937 0.63951 0.85983 0.0
H206 H 1.01073 0.64344 0.81284 0.0
H207 H 0.06363 0.68332 0.83465 0.0
N208 N 0.09793 0.71812 0.86758 0.0
N209 N 0.12686 0.72351 0.90034 0.0
N210 N 0.06133 0.69696 0.89416 0.0
C211 C 0.1296 0.72933 0.88045 0.0
C212 C 0.09265 0.70767 0.90733 0.0
C213 C 0.06373 0.70211 0.87428 0.0
C214 C 0.16699 0.74014 0.87231 0.0
C215 C 0.16911 0.73568 0.85166 0.0
C216 C 0.20292 0.73437 0.84433 0.0
C217 C 0.23566 0.73823 0.85743 0.0
C218 C 0.23475 0.74856 0.87763 0.0
C219 C 0.2006 0.74903 0.88507 0.0
C220 C 0.08979 0.69659 0.92851 0.0
C221 C 0.12202 0.69514 0.94096 0.0
C222 C 0.11842 0.67951 0.95999 0.0
C223 C 0.08255 0.66515 0.96699 0.0
C224 C 1.05055 0.6683 0.95489 0.0
C225 C 0.05411 0.68374 0.9359 0.0
C226 C 1.03079 0.68423 0.85994 0.0
C227 C 0.99444 0.67236 0.8665 0.0
C228 C 0.21185 0.62955 0.43808 0.0
C229 C 0.21108 0.64127 0.45799 0.0
C230 C 0.18083 0.62179 0.46873 0.0
C231 C 0.15134 0.5919 0.45952 0.0
H232 H 0.06696 0.48565 0.46874 0.0
H233 H 1.02208 0.43671 0.48617 0.0
H234 H 0.94383 0.41484 0.43308 0.0
H235 H 0.98839 0.46367 0.41561 0.0
H236 H 1.02017 0.52488 0.3742 0.0
H237 H 1.01426 0.52635 0.33785 0.0
H238 H 0.13029 0.52156 0.33743 0.0
H239 H 0.13667 0.52377 0.3738 0.0
H240 H 0.18338 0.59237 0.41329 0.0
H241 H 0.23462 0.64428 0.42937 0.0
H242 H 0.17972 0.63006 0.48416 0.0
H243 H 0.12799 0.57807 0.46805 0.0
N244 N 0.09119 0.52972 0.43922 0.0
N245 N 0.0559 0.50376 0.40913 0.0
N246 N 0.11434 0.5503 0.40853 0.0
C247 C 0.05994 0.50504 0.42945 0.0
C248 C 0.08313 0.52613 0.39864 0.0
C249 C 0.11841 0.55262 0.42882 0.0
C250 C 1.03141 0.47837 0.44071 0.0
C251 C 1.03999 0.47081 0.46085 0.0
C252 C 1.01441 0.44267 0.47082 0.0
C253 C 0.9796 0.42193 0.46094 0.0
C254 C 0.97036 0.43062 0.4411 0.0
C255 C 0.99604 0.45841 0.43107 0.0
C256 C 0.0789 0.52446 0.37666 0.0
C257 C 1.04429 0.52419 0.36621 0.0
C258 C 1.04092 0.52468 0.34533 0.0
C259 C 0.0718 0.52415 0.33443 0.0
C260 C 0.10612 0.52315 0.34512 0.0
C261 C 0.10978 0.52401 0.36599 0.0
C262 C 0.15136 0.58124 0.43932 0.0
C263 C 0.18229 0.59996 0.42883 0.0
C264 C 0.48747 0.0763 0.8016 0.0
C265 C 0.50562 0.09353 0.81994 0.0
C266 C 0.52553 0.07269 0.83236 0.0
C267 C 0.52961 0.0367 0.82576 0.0
H268 H 0.52009 0.90047 0.83371 0.0
H269 H 0.51512 0.83482 0.84611 0.0
H270 H 0.52912 0.79589 0.78701 0.0
H271 H 0.53359 0.86008 0.77468 0.0
H272 H 0.52977 0.91519 0.73637 0.0
H273 H 0.54388 0.92818 0.70193 0.0
H274 H 0.60314 0.04727 0.71936 0.0
H275 H 0.58644 0.03465 0.75342 0.0
H276 H 0.47907 0.02945 0.78029 0.0
H277 H 0.47118 0.09109 0.7919 0.0
H278 H 0.53981 0.08523 0.84659 0.0
H279 H 0.54714 0.02239 0.83492 0.0
N280 N 0.5226 0.95439 0.80552 0.0
N281 N 0.54204 0.93204 0.77625 0.0
N282 N 0.53675 0.99547 0.77834 0.0
C283 C 0.53096 0.9253 0.79502 0.0
C284 C 0.54537 0.96706 0.76794 0.0
C285 C 0.52523 0.98953 0.79698 0.0
C286 C 0.52724 0.88584 0.80318 0.0
C287 C 0.5219 0.8778 0.82339 0.0
C288 C 0.51924 0.84027 0.83051 0.0
C289 C 0.52139 0.81 0.8175 0.0
C290 C 0.52664 0.81821 0.79738 0.0
C291 C 0.52953 0.8554 0.79035 0.0
C292 C 0.5568 0.97399 0.74748 0.0
C293 C 0.54596 0.94406 0.73278 0.0
C294 C 0.55432 0.95154 0.71303 0.0
C295 C 0.57459 0.98893 0.70766 0.0
C296 C 0.58661 0.01842 0.72269 0.0
C297 C 0.57735 0.01116 0.74228 0.0
C298 C 0.51387 0.02131 0.80668 0.0
C299 C 0.49172 0.04082 0.79503 0.0
C300 C 0.66701 0.50663 0.13265 0.0
C301 C 0.69135 0.5389 0.14336 0.0
C302 C 0.67508 0.56671 0.15128 0.0
C303 C 0.63597 0.56361 0.14721 0.0
H304 H 0.49374 0.58587 0.15079 0.0
H305 H 0.43018 0.59037 0.15741 0.0
H306 H 0.38024 0.48359 0.12319 0.0
H307 H 0.4428 0.47934 0.11668 0.0
H308 H 0.47445 0.51888 0.06797 0.0
H309 H 0.46801 0.50437 0.03208 0.0
H310 H 0.58402 0.49944 0.03543 0.0
H311 H 0.59054 0.5134 0.07121 0.0
H312 H 0.61115 0.47896 0.11958 0.0
H313 H 0.67817 0.48431 0.12659 0.0
H314 H 0.69295 0.59199 0.1596 0.0
H315 H 0.62492 0.58691 0.15214 0.0
N316 N 0.544 0.53615 0.1352 0.0
N317 N 0.50692 0.52731 0.10415 0.0
N318 N 0.57021 0.52753 0.10523 0.0
C319 C 0.50973 0.533 0.12432 0.0
C320 C 0.5369 0.52483 0.09449 0.0
C321 C 0.57453 0.53319 0.12538 0.0
C322 C 0.47359 0.53211 0.13328 0.0
C323 C 0.4692 0.56279 0.14528 0.0
C324 C 0.43264 0.5655 0.1489 0.0
C325 C 0.39967 0.53778 0.14047 0.0
C326 C 0.40456 0.50606 0.12955 0.0
C327 C 0.44068 0.50336 0.12602 0.0
C328 C 0.533 0.51724 0.07256 0.0
C329 C 0.49863 0.51475 0.06108 0.0
C330 C 0.49493 0.50658 0.04049 0.0
C331 C 0.52544 0.50055 0.03098 0.0
C332 C 0.55983 0.50334 0.0424 0.0
C333 C 0.56359 0.51163 0.06293 0.0
C334 C 0.61227 0.53232 0.1354 0.0
C335 C 0.62832 0.50336 0.12882 0.0
C336 C 0.17709 0.51471 0.14935 0.0
C337 C 0.16587 0.54871 0.14519 0.0
C338 C 0.21532 0.51404 0.14955 0.0
C339 C 0.24362 0.54808 0.14537 0.0
C340 C 0.23258 0.58261 0.14138 0.0
C341 C 0.19417 0.58254 0.1414 0.0
C342 C 0.22537 0.47657 0.15406 0.0
C343 C 0.26132 0.61963 0.1367 0.0
C344 C 0.34869 0.55361 0.15985 0.0
C345 C 0.36028 0.54223 0.14189 0.0
C346 C 0.31114 0.55581 0.16123 0.0
C347 C 0.28424 0.54698 0.1442 0.0
C348 C 0.29611 0.53641 0.12595 0.0
C349 C 0.33356 0.53406 0.12505 0.0
C350 C 0.30002 0.56692 0.18106 0.0
C351 C 0.26909 0.52729 0.10727 0.0
H352 H 0.15589 0.48835 0.15242 0.0
H353 H 0.18629 0.60912 0.1382 0.0
H354 H 0.23673 0.46654 0.14086 0.0
H355 H 0.24786 0.48139 0.16663 0.0
H356 H 0.20067 0.45314 0.158 0.0
H357 H 0.24873 0.64445 0.13475 0.0
H358 H 0.28462 0.62736 0.14887 0.0
H359 H 0.274 0.61521 0.12278 0.0
H360 H 0.36875 0.55987 0.17301 0.0
H361 H 0.34205 0.52596 0.11096 0.0
H362 H 0.2771 0.5428 0.18609 0.0
H363 H 0.28878 0.59267 0.17944 0.0
H364 H 0.32413 0.57365 0.19282 0.0
H365 H 0.2449 0.502 0.1097 0.0
H366 H 0.28278 0.52058 0.0941 0.0
H367 H 0.25744 0.5523 0.10381 0.0
C368 C 0.84336 0.24834 0.51748 0.0
C369 C 0.8289 0.21729 0.50362 0.0
C370 C 0.86782 0.28331 0.51191 0.0
C371 C 0.87831 0.287 0.49208 0.0
C372 C 0.86392 0.25562 0.47806 0.0
C373 C 0.83923 0.2212 0.48399 0.0
C374 C 0.88227 0.31633 0.52717 0.0
C375 C 0.87479 0.25831 0.45683 0.0
C376 C 0.91499 0.38554 0.46945 0.0
C377 C 0.95396 0.38946 0.47072 0.0
C378 C 0.8901 0.35298 0.47705 0.0
C379 C 0.90457 0.32351 0.48589 0.0
C380 C 0.94401 0.32788 0.48773 0.0
C381 C 0.96827 0.36093 0.48019 0.0
C382 C 0.84824 0.34956 0.47508 0.0
C383 C 0.96046 0.29691 0.4969 0.0
H384 H 0.83504 0.24548 0.53262 0.0
H385 H 0.82836 0.19705 0.47331 0.0
H386 H 0.9136 0.32424 0.52924 0.0
H387 H 0.8741 0.34243 0.52176 0.0
H388 H 0.87111 0.30889 0.54192 0.0
H389 H 0.86133 0.23116 0.44784 0.0
H390 H 0.86641 0.28272 0.4494 0.0
H391 H 0.90593 0.26448 0.45683 0.0
H392 H 0.90394 0.40778 0.46229 0.0
H393 H 0.99836 0.36368 0.48097 0.0
H394 H 0.83663 0.34353 0.48979 0.0
H395 H 0.8333 0.32478 0.46477 0.0
H396 H 0.84187 0.37633 0.46925 0.0
H397 H 0.95071 0.29009 0.51196 0.0
H398 H 0.99187 0.30578 0.49825 0.0
H399 H 0.95039 0.26976 0.48755 0.0
C400 C 0.49768 0.58916 0.85212 0.0
C401 C 0.52391 0.57461 0.84277 0.0
C402 C 0.49746 0.62832 0.85052 0.0
C403 C 0.52383 0.65357 0.83913 0.0
C404 C 0.55123 0.63941 0.83029 0.0
C405 C 0.55101 0.60022 0.83226 0.0
C406 C 0.46849 0.64253 0.86064 0.0
C407 C 0.58004 0.66534 0.81814 0.0
C408 C 0.49767 0.7376 0.81267 0.0
C409 C 0.51883 0.76991 0.82452 0.0
C410 C 0.49837 0.69968 0.81758 0.0
C411 C 0.52064 0.69362 0.83487 0.0
C412 C 0.54089 0.72593 0.84737 0.0
C413 C 0.53971 0.76371 0.84206 0.0
C414 C 0.47648 0.66627 0.8037 0.0
C415 C 0.56524 0.72084 0.86583 0.0
H416 H 0.47698 0.56983 0.86054 0.0
H417 H 0.5715 0.5894 0.82503 0.0
H418 H 0.48291 0.66628 0.87164 0.0
H419 H 0.45139 0.6548 0.84947 0.0
H420 H 0.44927 0.61912 0.86853 0.0
H421 H 0.60142 0.65094 0.81371 0.0
H422 H 0.56554 0.67363 0.80439 0.0
H423 H 0.59485 0.69255 0.82675 0.0
H424 H 0.48102 0.74205 0.79924 0.0
H425 H 0.5564 0.7885 0.8512 0.0
H426 H 0.46087 0.64162 0.81229 0.0
H427 H 0.49647 0.65567 0.79524 0.0
H428 H 0.45601 0.6749 0.79281 0.0
H429 H 0.5493 0.69755 0.87509 0.0
H430 H 0.57572 0.74806 0.87513 0.0
H431 H 0.58996 0.71182 0.86135 0.0
C432 C 0.92098 0.58648 0.14639 0.0
C433 C 0.93244 0.55201 0.14748 0.0
C434 C 0.88248 0.58607 0.14642 0.0
C435 C 0.85432 0.55043 0.14805 0.0
C436 C 0.86589 0.51568 0.14969 0.0
C437 C 0.90444 0.51683 0.14916 0.0
C438 C 0.87181 0.6238 0.14418 0.0
C439 C 0.83741 0.47703 0.15184 0.0
C440 C 0.75594 0.55189 0.16317 0.0
C441 C 0.73352 0.54403 0.14482 0.0
C442 C 0.79506 0.55405 0.16449 0.0
C443 C 0.81274 0.54917 0.14701 0.0
C444 C 0.79033 0.54234 0.12841 0.0
C445 C 0.75128 0.5395 0.12759 0.0
C446 C 0.81732 0.56063 0.18472 0.0
C447 C 0.80758 0.53779 0.10926 0.0
H448 H 0.94207 0.61386 0.14498 0.0
H449 H 0.91269 0.48996 0.15019 0.0
H450 H 0.85276 0.62233 0.13031 0.0
H451 H 0.85607 0.62861 0.15687 0.0
H452 H 0.89688 0.64917 0.14351 0.0
H453 H 0.851 0.45304 0.15433 0.0
H454 H 0.8205 0.47865 0.16456 0.0
H455 H 0.81746 0.46982 0.13816 0.0
H456 H 0.74263 0.55521 0.1766 0.0
H457 H 0.73449 0.53387 0.11328 0.0
H458 H 0.84161 0.5869 0.18467 0.0
H459 H 0.82906 0.53563 0.18808 0.0
H460 H 0.79981 0.56423 0.19686 0.0
H461 H 0.83182 0.56342 0.10742 0.0
H462 H 0.78691 0.53454 0.09589 0.0
H463 H 0.81866 0.51187 0.1099 0.0
C464 C 0.3701 0.8252 0.50926 0.0
C465 C 0.37716 0.85427 0.49506 0.0
C466 C 0.34382 0.7891 0.50462 0.0
C467 C 0.32392 0.78218 0.48539 0.0
C468 C 0.33089 0.81149 0.47101 0.0
C469 C 0.3576 0.84714 0.476 0.0
C470 C 0.33742 0.75836 0.52024 0.0
C471 C 0.30993 0.80532 0.45041 0.0
C472 C 0.27876 0.67992 0.4643 0.0
C473 C 0.24056 0.67545 0.46695 0.0
C474 C 0.30646 0.714 0.4709 0.0
C475 C 0.29558 0.74439 0.48022 0.0
C476 C 0.25723 0.73951 0.48355 0.0
C477 C 0.23017 0.70501 0.47692 0.0
C478 C 0.34716 0.71799 0.46731 0.0
C479 C 0.24453 0.77136 0.49335 0.0
H480 H 0.38553 0.83056 0.52395 0.0
H481 H 0.36277 0.86975 0.46507 0.0
H482 H 0.30739 0.75029 0.52354 0.0
H483 H 0.3434 0.73168 0.51448 0.0
H484 H 0.35552 0.76821 0.5344 0.0
H485 H 0.31853 0.83115 0.44102 0.0
H486 H 0.31512 0.78001 0.44267 0.0
H487 H 0.27905 0.79869 0.45164 0.0
H488 H 0.2869 0.65691 0.45678 0.0
H489 H 0.2006 0.70184 0.47879 0.0
H490 H 0.36563 0.72652 0.48144 0.0
H491 H 0.35656 0.74132 0.45656 0.0
H492 H 0.35132 0.69062 0.46123 0.0
H493 H 0.26138 0.78077 0.50787 0.0
H494 H 0.2141 0.76204 0.49596 0.0
H495 H 0.24938 0.79704 0.48372 0.0
C496 C 0.54086 0.32075 0.84545 0.0
C497 C 0.50826 0.33309 0.8404 0.0
C498 C 0.54021 0.28135 0.84388 0.0
C499 C 0.50609 0.25337 0.83719 0.0
C500 C 0.47279 0.26539 0.8327 0.0
C501 C 0.47429 0.30507 0.83428 0.0
C502 C 0.57644 0.26991 0.84868 0.0
C503 C 0.43579 0.23646 0.82561 0.0
C504 C 0.51346 0.16243 0.81014 0.0
C505 C 0.50623 0.13442 0.82491 0.0
C506 C 0.5135 0.20103 0.814 0.0
C507 C 0.50608 0.21221 0.83315 0.0
C508 C 0.49913 0.18425 0.84826 0.0
C509 C 0.4995 0.14568 0.844 0.0
C510 C 0.52157 0.22991 0.79751 0.0
C511 C 0.49102 0.19503 0.86885 0.0
H512 H 0.56731 0.34201 0.85023 0.0
H513 H 0.44887 0.31415 0.83046 0.0
H514 H 0.57206 0.24602 0.85944 0.0
H515 H 0.5851 0.25892 0.83487 0.0
H516 H 0.59991 0.29464 0.85509 0.0
H517 H 0.41184 0.24986 0.82437 0.0
H518 H 0.43799 0.22401 0.81073 0.0
H519 H 0.42937 0.21202 0.83601 0.0
H520 H 0.51948 0.15418 0.79547 0.0
H521 H 0.49382 0.12418 0.85546 0.0
H522 H 0.54663 0.25433 0.80235 0.0
H523 H 0.49731 0.24239 0.79429 0.0
H524 H 0.52693 0.21657 0.78346 0.0
H525 H 0.51495 0.21878 0.87567 0.0
H526 H 0.48626 0.17001 0.87895 0.0
H527 H 0.46559 0.2061 0.86775 0.0
C528 C 0.57693 0.89167 0.53045 0.0
C529 C 0.60706 0.91911 0.52286 0.0
C530 C 0.57732 0.8527 0.5325 0.0
C531 C 0.60842 0.84054 0.52662 0.0
C532 C 0.63838 0.86774 0.51835 0.0
C533 C 0.63747 0.90673 0.51668 0.0
C534 C 0.54492 0.82479 0.54156 0.0
C535 C 0.67178 0.85584 0.51165 0.0
C536 C 0.62571 0.75297 0.55354 0.0
C537 C 0.6071 0.72214 0.5401 0.0
C538 C 0.62736 0.79165 0.54905 0.0
C539 C 0.61054 0.80004 0.53048 0.0
C540 C 0.59358 0.76935 0.51634 0.0
C541 C 0.59192 0.73074 0.52134 0.0
C542 C 0.64569 0.82337 0.5646 0.0
C543 C 0.57579 0.77713 0.49626 0.0
H544 H 0.55326 0.90078 0.53528 0.0
H545 H 0.66076 0.92755 0.51064 0.0
H546 H 0.53267 0.79903 0.53143 0.0
H547 H 0.55544 0.81425 0.55584 0.0
H548 H 0.52211 0.83838 0.54458 0.0
H549 H 0.6912 0.87958 0.50403 0.0
H550 H 0.68789 0.8474 0.52476 0.0
H551 H 0.66195 0.83008 0.50129 0.0
H552 H 0.63832 0.74676 0.56788 0.0
H553 H 0.57736 0.7072 0.51087 0.0
H554 H 0.62412 0.83686 0.56962 0.0
H555 H 0.66747 0.84659 0.55809 0.0
H556 H 0.65916 0.81229 0.57788 0.0
H557 H 0.55012 0.7867 0.49835 0.0
H558 H 0.56762 0.75095 0.48613 0.0
H559 H 0.59556 0.80096 0.48893 0.0
C560 C 0.79689 0.47163 0.82693 0.0
C561 C 0.76946 0.46938 0.81082 0.0
C562 C 0.83447 0.49269 0.82556 0.0
C563 C 0.84465 0.51185 0.80766 0.0
C564 C 0.8188 0.50382 0.79037 0.0
C565 C 0.78125 0.48257 0.79214 0.0
C566 C 0.86164 0.4992 0.8442 0.0
C567 C 0.82938 0.52166 0.77068 0.0
C568 C 0.90208 0.61363 0.82206 0.0
C569 C 0.93886 0.6097 0.82282 0.0
C570 C 0.87108 0.58277 0.81529 0.0
C571 C 0.87715 0.54717 0.80897 0.0
C572 C 0.91442 0.54456 0.80758 0.0
C573 C 0.945 0.57591 0.81467 0.0
C574 C 0.83177 0.58721 0.81671 0.0
C575 C 0.92229 0.50782 0.80023 0.0
H576 H 0.78842 0.46115 0.84139 0.0
H577 H 0.76046 0.47959 0.77938 0.0
H578 H 0.88978 0.49693 0.84067 0.0
H579 H 0.86527 0.52892 0.85051 0.0
H580 H 0.85129 0.47797 0.85584 0.0
H581 H 0.81109 0.50445 0.75795 0.0
H582 H 0.82564 0.55144 0.77043 0.0
H583 H 0.85939 0.52391 0.76857 0.0
H584 H 0.89744 0.64013 0.82792 0.0
H585 H 0.97349 0.57281 0.81511 0.0
H586 H 0.81797 0.5682 0.82846 0.0
H587 H 0.81417 0.5781 0.80237 0.0
H588 H 0.83206 0.61761 0.82045 0.0
H589 H 0.92559 0.48948 0.81316 0.0
H590 H 0.94906 0.51461 0.79288 0.0
H591 H 0.899 0.4907 0.78956 0.0
C592 C 0.26866 0.76313 0.17211 0.0
C593 C 0.23704 0.77788 0.16911 0.0
C594 C 0.30487 0.78782 0.17753 0.0
C595 C 0.30975 0.82833 0.1798 0.0
C596 C 0.27821 0.84355 0.17626 0.0
C597 C 0.24224 0.81816 0.17109 0.0
C598 C 0.33777 0.77043 0.18129 0.0
C599 C 0.28228 0.88661 0.17841 0.0
C600 C 0.39217 0.88716 0.21463 0.0
C601 C 0.4186 0.90442 0.20123 0.0
C602 C 0.3569 0.86213 0.20783 0.0
C603 C 0.34739 0.85451 0.18707 0.0
C604 C 0.37366 0.87206 0.1734 0.0
C605 C 0.40902 0.89668 0.18064 0.0
C606 C 0.32975 0.84391 0.22291 0.0
C607 C 0.36436 0.86485 0.15113 0.0
H608 H 0.26512 0.73218 0.17023 0.0
H609 H 0.21802 0.82986 0.16905 0.0
H610 H 0.36069 0.78443 0.1719 0.0
H611 H 0.34955 0.77598 0.19714 0.0
H612 H 0.32954 0.73857 0.1781 0.0
H613 H 0.25554 0.89408 0.17373 0.0
H614 H 0.29107 0.89643 0.19422 0.0
H615 H 0.30466 0.9031 0.1693 0.0
H616 H 0.39883 0.89358 0.23052 0.0
H617 H 0.42931 0.90956 0.17018 0.0
H618 H 0.322 0.81176 0.22112 0.0
H619 H 0.30331 0.85299 0.2203 0.0
H620 H 0.34181 0.85213 0.23856 0.0
H621 H 0.35844 0.83337 0.14743 0.0
H622 H 0.38768 0.88104 0.14247 0.0
H623 H 0.33844 0.87365 0.14625 0.0
C624 C 0.57223 0.16713 0.51331 0.0
C625 C 0.60483 0.15676 0.52073 0.0
C626 C 0.5705 0.20589 0.51428 0.0
C627 C 0.60209 0.23516 0.5229 0.0
C628 C 0.63554 0.22516 0.52978 0.0
C629 C 0.63652 0.18615 0.52861 0.0
C630 C 0.5343 0.21526 0.50674 0.0
C631 C 0.66986 0.25546 0.53906 0.0
C632 C 0.60331 0.3414 0.51542 0.0
C633 C 0.58898 0.35022 0.53302 0.0
C634 C 0.60819 0.3042 0.51194 0.0
C635 C 0.59877 0.27534 0.52646 0.0
C636 C 0.58513 0.28448 0.54441 0.0
C637 C 0.58048 0.32167 0.54746 0.0
C638 C 0.62281 0.29555 0.49261 0.0
C639 C 0.57502 0.2548 0.56038 0.0
H640 H 0.54764 0.14483 0.50705 0.0
H641 H 0.66197 0.17863 0.53427 0.0
H642 H 0.5213 0.22469 0.51949 0.0
H643 H 0.54028 0.23967 0.49631 0.0
H644 H 0.51346 0.18993 0.49894 0.0
H645 H 0.69475 0.24374 0.54195 0.0
H646 H 0.67743 0.28063 0.52919 0.0
H647 H 0.66339 0.26644 0.55345 0.0
H648 H 0.60992 0.36329 0.50421 0.0
H649 H 0.57025 0.32851 0.56132 0.0
H650 H 0.60107 0.27217 0.48396 0.0
H651 H 0.64819 0.28481 0.49576 0.0
H652 H 0.63024 0.32149 0.4832 0.0
H653 H 0.55208 0.22941 0.55423 0.0
H654 H 0.56553 0.2668 0.57368 0.0
H655 H 0.59978 0.24404 0.56528 0.0
C656 C 0.37146 0.61174 0.8257 0.0
C657 C 0.34525 0.57493 0.82423 0.0
C658 C 0.35962 0.6456 0.8276 0.0
C659 C 0.32068 0.64232 0.82808 0.0
C660 C 0.29392 0.60562 0.8244 0.0
C661 C 0.30657 0.57226 0.82256 0.0
C662 C 0.38906 0.68418 0.83098 0.0
C663 C 0.25201 0.60106 0.82434 0.0
C664 C 0.28331 0.70069 0.86394 0.0
C665 C 0.26692 0.72334 0.85089 0.0
C666 C 0.3041 0.67683 0.85684 0.0
C667 C 0.30807 0.67497 0.83613 0.0
C668 C 0.29529 0.70073 0.8232 0.0
C669 C 0.27518 0.72501 0.8308 0.0
C670 C 0.31867 0.65084 0.87129 0.0
C671 C 0.29997 0.70033 0.80111 0.0
H672 H 0.40138 0.61387 0.82645 0.0
H673 H 0.2862 0.54391 0.82132 0.0
H674 H 0.37828 0.70867 0.82546 0.0
H675 H 0.39741 0.68927 0.84726 0.0
H676 H 0.41475 0.68435 0.82349 0.0
H677 H 0.23494 0.57192 0.81847 0.0
H678 H 0.24506 0.60498 0.83985 0.0
H679 H 0.24364 0.62356 0.81516 0.0
H680 H 0.27733 0.69881 0.87947 0.0
H681 H 0.26383 0.74341 0.82069 0.0
H682 H 0.34843 0.65212 0.86907 0.0
H683 H 0.30158 0.62027 0.86847 0.0
H684 H 0.31719 0.65903 0.88712 0.0
H685 H 0.32833 0.69745 0.79835 0.0
H686 H 0.29591 0.72707 0.794 0.0
H687 H 0.27866 0.6749 0.79373 0.0
C688 C 0.88045 0.30034 0.17892 0.0
C689 C 0.87954 0.31489 0.1596 0.0
C690 C 0.84885 0.27327 0.18544 0.0
C691 C 0.81534 0.26073 0.1724 0.0
C692 C 0.81428 0.27522 0.15284 0.0
C693 C 0.84648 0.30198 0.14663 0.0
C694 C 0.85129 0.25818 0.20633 0.0
C695 C 0.77895 0.2629 0.13858 0.0
C696 C 0.74479 0.16646 0.18471 0.0
C697 C 0.7198 0.18022 0.19544 0.0
C698 C 0.77561 0.19233 0.17676 0.0
C699 C 0.78131 0.23292 0.17944 0.0
C700 C 0.75539 0.24694 0.18968 0.0
C701 C 0.72509 0.22042 0.19766 0.0
C702 C 0.80279 0.17623 0.16611 0.0
C703 C 0.76017 0.28998 0.19261 0.0
H704 H 0.9061 0.30991 0.18891 0.0
H705 H 0.84555 0.31345 0.13175 0.0
H706 H 0.83008 0.26601 0.21507 0.0
H707 H 0.84465 0.22599 0.20572 0.0
H708 H 0.87973 0.27004 0.21442 0.0
H709 H 0.78289 0.27647 0.1238 0.0
H710 H 0.77032 0.23084 0.13629 0.0
H711 H 0.75538 0.27104 0.14507 0.0
H712 H 0.74102 0.13541 0.18314 0.0
H713 H 0.70559 0.23115 0.20577 0.0
H714 H 0.83111 0.18479 0.17457 0.0
H715 H 0.80601 0.18861 0.15105 0.0
H716 H 0.7934 0.14402 0.16444 0.0
H717 H 0.78675 0.30326 0.2021 0.0
H718 H 0.73629 0.29612 0.1998 0.0
H719 H 0.76246 0.3044 0.17801 0.0
C720 C 0.06913 0.55371 0.07147 0.0
C721 C 1.04721 0.56963 0.08333 0.0
C722 C 0.07557 0.56661 0.05201 0.0
C723 C 0.05945 0.59586 0.04426 0.0
C724 C 1.03627 0.61103 0.05595 0.0
C725 C 1.03053 0.59782 0.07534 0.0
C726 C 0.10049 0.54982 0.03998 0.0
C727 C 1.01821 0.64193 0.04816 0.0
C728 C 0.10296 0.66176 0.00345 0.0
C729 C 0.07815 0.64612 0.98661 0.0
C730 C 0.09798 0.64484 0.0222 0.0
C731 C 0.0674 0.61156 0.02415 0.0
C732 C 1.04291 0.59499 0.00711 0.0
C733 C 1.04864 0.6124 0.98856 0.0
C734 C 0.12475 0.6633 0.04003 0.0
C735 C 1.01004 0.5595 0.00858 0.0
H736 H 0.08225 0.53205 0.07759 0.0
H737 H 1.01336 0.61011 0.08436 0.0
H738 H 0.08551 0.53857 0.02522 0.0
H739 H 0.12621 0.57297 0.03713 0.0
H740 H 0.10929 0.5259 0.04773 0.0
H741 H 0.99981 0.64961 0.05886 0.0
H742 H 1.04048 0.66861 0.04519 0.0
H743 H 1.00099 0.63185 0.0338 0.0
H744 H 0.12568 0.6879 0.00211 0.0
H745 H 1.02983 0.59963 0.97553 0.0
H746 H 0.13639 0.64123 0.04782 0.0
H747 H 0.10921 0.67503 0.05086 0.0
H748 H 0.14862 0.68736 0.03576 0.0
H749 H 1.01997 0.53569 0.0157 0.0
H750 H 0.995 0.54881 0.99373 0.0
H751 H 0.98959 0.56647 0.01819 0.0
C752 C 0.63951 0.05711 0.45064 0.0
C753 C 0.60679 0.03775 0.45953 0.0
C754 C 0.63991 0.05794 0.42977 0.0
C755 C 0.60666 0.03942 0.4175 0.0
C756 C 0.57351 0.01994 0.42637 0.0
C757 C 0.57405 0.01911 0.44728 0.0
C758 C 0.67594 0.07857 0.42086 0.0
C759 C 0.53737 0.00024 0.41377 0.0
C760 C 0.59654 0.07168 0.36399 0.0
C761 C 0.60431 0.04142 0.35327 0.0
C762 C 0.59727 0.07144 0.38492 0.0
C763 C 0.60648 0.04045 0.39535 0.0
C764 C 0.61502 0.01018 0.38461 0.0
C765 C 0.61358 0.0109 0.36367 0.0
C766 C 0.58753 0.10398 0.39584 0.0
C767 C 0.62551 0.97696 0.39522 0.0
H768 H 0.66499 0.07142 0.46001 0.0
H769 H 0.5486 0.00428 0.45404 0.0
H770 H 0.68459 0.05806 0.41104 0.0
H771 H 0.67115 0.10244 0.41142 0.0
H772 H 0.69954 0.09098 0.43248 0.0
H773 H 0.51394 0.9867 0.42299 0.0
H774 H 0.52847 0.02168 0.40399 0.0
H775 H 0.54212 0.97739 0.40387 0.0
H776 H 0.58898 0.09508 0.35594 0.0
H777 H 0.61993 0.98766 0.35539 0.0
H778 H 0.61128 0.11864 0.40691 0.0
H779 H 0.56253 0.09197 0.40424 0.0
H780 H 0.58123 0.12605 0.38552 0.0
H781 H 0.65022 0.98838 0.40632 0.0
H782 H 0.63249 0.95635 0.38472 0.0
H783 H 0.60177 0.96074 0.40356 0.0
C784 C 0.49375 0.48 0.7694 0.0
C785 C 0.51803 0.46146 0.78004 0.0
C786 C 0.49595 0.48657 0.74891 0.0
C787 C 0.52295 0.47413 0.7388 0.0
C788 C 0.54713 0.45485 0.74937 0.0
C789 C 0.54442 0.4488 0.76987 0.0
C790 C 0.4698 0.50736 0.73814 0.0
C791 C 0.57617 0.44101 0.73907 0.0
C792 C 0.50958 0.46141 0.68224 0.0
C793 C 0.53509 0.49536 0.67632 0.0
C794 C 0.50506 0.45427 0.70253 0.0
C795 C 0.52642 0.48185 0.71723 0.0
C796 C 0.55171 0.51649 0.71136 0.0
C797 C 0.55581 0.52278 0.69098 0.0
C798 C 0.47779 0.41702 0.70823 0.0
C799 C 0.57491 0.54662 0.72663 0.0
H800 H 0.4733 0.48994 0.77714 0.0
H801 H 0.56325 0.43439 0.77796 0.0
H802 H 0.4866 0.53478 0.73207 0.0
H803 H 0.45326 0.48916 0.72527 0.0
H804 H 0.44982 0.51441 0.74807 0.0
H805 H 0.59223 0.42571 0.74932 0.0
H806 H 0.56215 0.42102 0.72629 0.0
H807 H 0.59648 0.46612 0.73294 0.0
H808 H 0.49306 0.44036 0.67099 0.0
H809 H 0.57594 0.54883 0.68655 0.0
H810 H 0.45644 0.42366 0.71732 0.0
H811 H 0.49322 0.39979 0.71759 0.0
H812 H 0.46286 0.39886 0.69496 0.0
H813 H 0.55611 0.55608 0.73643 0.0
H814 H 0.59229 0.57261 0.71958 0.0
H815 H 0.594 0.5338 0.73634 0.0
C816 C 0.63525 0.03831 0.59634 0.0
C817 C 0.6027 0.03229 0.58303 0.0
C818 C 0.63255 0.03288 0.61691 0.0
C819 C 0.59643 0.01992 0.62414 0.0
C820 C 0.56349 0.01355 0.61069 0.0
C821 C 0.56704 0.02039 0.59032 0.0
C822 C 0.66827 0.04111 0.63089 0.0
C823 C 0.5245 0.99875 0.61774 0.0
C824 C 0.58812 0.96887 0.67364 0.0
C825 C 0.58206 0.99743 0.68642 0.0
C826 C 0.59294 0.97582 0.65336 0.0
C827 C 0.59293 0.01265 0.64576 0.0
C828 C 0.58817 0.04206 0.65864 0.0
C829 C 0.58218 0.03392 0.67869 0.0
C830 C 0.59721 0.94345 0.63998 0.0
C831 C 0.5888 0.08199 0.65117 0.0
H832 H 0.66284 0.04771 0.5907 0.0
H833 H 0.54183 0.01528 0.57998 0.0
H834 H 0.66748 0.06255 0.64276 0.0
H835 H 0.67039 0.01415 0.63841 0.0
H836 H 0.69406 0.05261 0.62299 0.0
H837 H 0.5018 0.99452 0.60527 0.0
H838 H 0.52195 0.97062 0.62516 0.0
H839 H 0.51986 0.01948 0.62895 0.0
H840 H 0.58896 0.94087 0.67943 0.0
H841 H 0.5768 0.05608 0.68817 0.0
H842 H 0.62434 0.95264 0.63306 0.0
H843 H 0.5742 0.93686 0.62763 0.0
H844 H 0.59637 0.91639 0.64819 0.0
H845 H 0.61466 0.09411 0.64344 0.0
H846 H 0.58795 0.10259 0.66346 0.0
H847 H 0.56416 0.07996 0.64012 0.0
C848 C 0.54947 0.48691 0.9152 0.0
C849 C 0.51922 0.46057 0.90409 0.0
C850 C 0.54938 0.49233 0.93588 0.0
C851 C 0.51835 0.47079 0.94574 0.0
C852 C 0.48789 0.44384 0.9347 0.0
C853 C 0.48865 0.43909 0.91398 0.0
C854 C 0.58238 0.52139 0.94716 0.0
C855 C 0.4544 0.42028 0.94476 0.0
C856 C 0.53634 0.46238 0.00179 0.0
C857 C 0.52168 0.49152 0.00918 0.0
C858 C 0.53462 0.45468 0.98118 0.0
C859 C 0.51791 0.47671 0.96764 0.0
C860 C 0.50235 0.50562 0.975 0.0
C861 C 0.50437 0.51264 -0.00429 0.0
C862 C 0.55133 0.42347 0.97388 0.0
C863 C 0.48448 0.52984 0.961 0.0
H864 H 0.5732 0.50373 0.90772 0.0
H865 H 0.46514 0.41869 0.90553 0.0
H866 H 0.57237 0.54417 0.95449 0.0
H867 H 0.59552 0.50675 0.95913 0.0
H868 H 0.6044 0.53569 0.93727 0.0
H869 H 0.43328 0.40009 0.9341 0.0
H870 H 0.46401 0.40309 0.95679 0.0
H871 H 0.44033 0.43998 0.95188 0.0
H872 H 0.54923 0.44559 0.01217 0.0
H873 H 0.49332 0.53542 0.00134 0.0
H874 H 0.57527 0.43666 0.96496 0.0
H875 H 0.52992 0.40211 0.96393 0.0
H876 H 0.56172 0.40775 0.98638 0.0
H877 H 0.50602 0.54734 0.95173 0.0
H878 H 0.47211 0.54986 0.96913 0.0
H879 H 0.46192 0.51072 0.95064 0.0
C880 C 0.05982 0.50527 0.21463 0.0
C881 C 0.0546 0.53925 0.20608 0.0
C882 C 0.06276 0.50174 0.23546 0.0
C883 C 0.05883 0.53234 0.24787 0.0
C884 C 0.05245 0.56627 0.23919 0.0
C885 C 1.05119 0.56964 0.21836 0.0
C886 C 0.07097 0.46576 0.2442 0.0
C887 C 1.04677 0.5989 0.25187 0.0
C888 C 1.03393 0.50853 0.30088 0.0
C889 C 0.06853 0.52542 0.31213 0.0
C890 C 1.03023 0.51097 0.27999 0.0
C891 C 0.06223 0.52931 0.26996 0.0
C892 C 0.09744 0.54544 0.28106 0.0
C893 C 0.09998 0.54405 0.30198 0.0
C894 C 0.99194 0.49438 0.26867 0.0
C895 C 0.13247 0.56436 0.27085 0.0
H896 H 0.0627 0.48193 0.20502 0.0
H897 H 1.04677 0.59574 0.21163 0.0
H898 H 0.09756 0.47406 0.25425 0.0
H899 H 1.04806 0.45078 0.25337 0.0
H900 H 0.07384 0.44494 0.23248 0.0
H901 H 1.03972 0.62216 0.24269 0.0
H902 H 1.02365 0.5874 0.26159 0.0
H903 H 0.07278 0.612 0.26181 0.0
H904 H 1.00956 0.49328 0.30833 0.0
H905 H 0.12668 0.55812 0.31034 0.0
H906 H 0.99309 0.47093 0.25806 0.0
H907 H 0.9838 0.51731 0.25971 0.0
H908 H 0.96956 0.48237 0.27877 0.0
H909 H 0.13681 0.54426 0.25919 0.0
H910 H 0.15826 0.57275 0.28152 0.0
H911 H 0.12899 0.5908 0.26327 0.0
loop_
_geom_bond_atom_site_label_1
_geom_bond_atom_site_label_2
_geom_bond_distance
_geom_bond_site_symmetry_2
_ccdc_geom_bond_type
Dy0 O3 2.307 1_455 S
Dy0 O5 2.395 . S
Dy0 O6 2.379 . S
Dy0 O8 2.339 . S
Dy0 O10 2.298 . S
Dy0 O14 2.275 . S
Dy0 C22 2.738 . S
Dy1 O4 2.298 . S
Dy1 O7 2.275 1_655 S
Dy1 O9 2.307 1_655 S
Dy1 O11 2.395 . S
Dy1 O12 2.379 . S
Dy1 O15 2.339 . S
Dy1 C31 2.738 . S
C2 O14 1.254 . S
C2 O15 1.257 1_455 S
O3 Dy0 2.307 1_655 S
O3 C13 1.266 . S
O4 Dy1 2.298 . S
O4 C13 1.236 . S
O5 Dy0 2.395 . S
O5 C22 1.255 . S
O6 Dy0 2.379 . S
O6 C22 1.249 . S
O7 Dy1 2.275 1_455 S
O7 C23 1.254 . S
O8 Dy0 2.339 . S
O8 C23 1.257 . S
O9 Dy1 2.307 1_455 S
O9 C24 1.266 . S
O10 Dy0 2.298 . S
O10 C24 1.236 . S
O11 Dy1 2.395 . S
O11 C31 1.255 . S
O12 Dy1 2.379 . S
O12 C31 1.249 . S
C13 O3 1.266 . S
C13 O4 1.236 . S
O14 Dy0 2.275 . S
O14 C2 1.254 . S
O15 Dy1 2.339 . S
O15 C2 1.257 1_655 S
C16 C19 1.344 . S
C16 C20 1.328 . S
C16 C22 1.516 . S
C17 C18 1.304 . S
C17 C21 1.323 . S
C18 C17 1.304 . S
C18 C19 1.371 . S
C18 H32 0.930 . S
C19 C16 1.344 . S
C19 C18 1.371 . S
C19 H33 0.931 . S
C20 C16 1.328 . S
C20 C21 1.433 . S
C20 H34 0.931 . S
C21 C17 1.323 . S
C21 C20 1.433 . S
C21 H35 0.933 . S
C22 Dy0 2.738 . S
C22 O5 1.255 . S
C22 O6 1.249 . S
C22 C16 1.516 . S
C23 O7 1.254 . S
C23 O8 1.257 . S
C24 O9 1.266 . S
C24 O10 1.236 . S
C25 C28 1.344 . S
C25 C29 1.328 . S
C25 C31 1.516 . S
C26 C27 1.304 . S
C26 C30 1.323 . S
C27 C26 1.304 . S
C27 C28 1.371 . S
C27 H36 0.930 . S
C28 C25 1.344 . S
C28 C27 1.371 . S
C28 H37 0.931 . S
C29 C25 1.328 . S
C29 C30 1.433 . S
C29 H38 0.931 . S
C30 C26 1.323 . S
C30 C29 1.433 . S
C30 H39 0.933 . S
C31 Dy1 2.738 . S
C31 O11 1.255 . S
C31 O12 1.249 . S
C31 C25 1.516 . S
H32 C18 0.930 . S
H33 C19 0.931 . S
H34 C20 0.931 . S
H35 C21 0.933 . S
H36 C27 0.930 . S
H37 C28 0.931 . S
H38 C29 0.931 . S
H39 C30 0.933 . S
Dy40 O43 2.307 . S
Dy40 O45 2.395 1_545 S
Dy40 O46 2.379 1_545 S
Dy40 O48 2.339 . S
Dy40 O50 2.298 1_545 S
Dy40 O54 2.275 . S
Dy40 C62 2.738 1_545 S
Dy41 O44 2.298 . S
Dy41 O47 2.275 . S
Dy41 O49 2.307 1_545 S
Dy41 O51 2.395 . S
Dy41 O52 2.379 . S
Dy41 O55 2.339 . S
Dy41 C71 2.738 . S
C42 O54 1.254 . S
C42 O55 1.257 . S
O43 Dy40 2.307 . S
O43 C53 1.266 . S
O44 Dy41 2.298 . S
O44 C53 1.236 . S
O45 Dy40 2.395 1_565 S
O45 C62 1.255 . S
O46 Dy40 2.379 1_565 S
O46 C62 1.249 . S
O47 Dy41 2.275 . S
O47 C63 1.254 . S
O48 Dy40 2.339 . S
O48 C63 1.257 . S
O49 Dy41 2.307 1_565 S
O49 C64 1.266 . S
O50 Dy40 2.298 1_565 S
O50 C64 1.236 . S
O51 Dy41 2.395 . S
O51 C71 1.255 . S
O52 Dy41 2.379 . S
O52 C71 1.249 . S
C53 O43 1.266 . S
C53 O44 1.236 . S
O54 Dy40 2.275 . S
O54 C42 1.254 . S
O55 Dy41 2.339 . S
O55 C42 1.257 . S
C56 C59 1.344 . S
C56 C60 1.328 . S
C56 C62 1.516 . S
C57 C58 1.304 . S
C57 C61 1.323 . S
C58 C57 1.304 . S
C58 C59 1.371 . S
C58 H72 0.930 . S
C59 C56 1.344 . S
C59 C58 1.371 . S
C59 H73 0.931 . S
C60 C56 1.328 . S
C60 C61 1.433 . S
C60 H74 0.931 . S
C61 C57 1.323 . S
C61 C60 1.433 . S
C61 H75 0.933 . S
C62 Dy40 2.738 1_565 S
C62 O45 1.255 . S
C62 O46 1.249 . S
C62 C56 1.516 . S
C63 O47 1.254 . S
C63 O48 1.257 . S
C64 O49 1.266 . S
C64 O50 1.236 . S
C65 C68 1.344 . S
C65 C69 1.328 . S
C65 C71 1.516 . S
C66 C67 1.304 . S
C66 C70 1.323 . S
C67 C66 1.304 . S
C67 C68 1.371 . S
C67 H76 0.930 . S
C68 C65 1.344 . S
C68 C67 1.371 . S
C68 H77 0.931 . S
C69 C65 1.328 . S
C69 C70 1.433 . S
C69 H78 0.931 . S
C70 C66 1.323 . S
C70 C69 1.433 . S
C70 H79 0.933 . S
C71 Dy41 2.738 . S
C71 O51 1.255 . S
C71 O52 1.249 . S
C71 C65 1.516 . S
H72 C58 0.930 . S
H73 C59 0.931 . S
H74 C60 0.931 . S
H75 C61 0.933 . S
H76 C67 0.930 . S
H77 C68 0.931 . S
H78 C69 0.931 . S
H79 C70 0.933 . S
Dy80 O83 2.307 . S
Dy80 O85 2.395 . S
Dy80 O86 2.379 . S
Dy80 O88 2.339 . S
Dy80 O90 2.298 . S
Dy80 O94 2.275 . S
Dy80 C102 2.738 . S
Dy81 O84 2.298 . S
Dy81 O87 2.275 . S
Dy81 O89 2.307 . S
Dy81 O91 2.395 . S
Dy81 O92 2.379 . S
Dy81 O95 2.339 . S
Dy81 C111 2.738 . S
C82 O94 1.254 . S
C82 O95 1.257 . S
O83 Dy80 2.307 . S
O83 C93 1.266 . S
O84 Dy81 2.298 . S
O84 C93 1.236 . S
O85 Dy80 2.395 . S
O85 C102 1.255 . S
O86 Dy80 2.379 . S
O86 C102 1.249 . S
O87 Dy81 2.275 . S
O87 C103 1.254 . S
O88 Dy80 2.339 . S
O88 C103 1.257 . S
O89 Dy81 2.307 . S
O89 C104 1.266 . S
O90 Dy80 2.298 . S
O90 C104 1.236 . S
O91 Dy81 2.395 . S
O91 C111 1.255 . S
O92 Dy81 2.379 . S
O92 C111 1.249 . S
C93 O83 1.266 . S
C93 O84 1.236 . S
O94 Dy80 2.275 . S
O94 C82 1.254 . S
O95 Dy81 2.339 . S
O95 C82 1.257 . S
C96 C99 1.344 . S
C96 C100 1.328 . S
C96 C102 1.516 . S
C97 C98 1.304 . S
C97 C101 1.323 . S
C98 C97 1.304 . S
C98 C99 1.371 . S
C98 H112 0.930 . S
C99 C96 1.344 . S
C99 C98 1.371 . S
C99 H113 0.931 . S
C100 C96 1.328 . S
C100 C101 1.433 . S
C100 H114 0.931 . S
C101 C97 1.323 . S
C101 C100 1.433 . S
C101 H115 0.933 . S
C102 Dy80 2.738 . S
C102 O85 1.255 . S
C102 O86 1.249 . S
C102 C96 1.516 . S
C103 O87 1.254 . S
C103 O88 1.257 . S
C104 O89 1.266 . S
C104 O90 1.236 . S
C105 C108 1.344 . S
C105 C109 1.328 . S
C105 C111 1.516 . S
C106 C107 1.304 . S
C106 C110 1.323 . S
C107 C106 1.304 . S
C107 C108 1.371 . S
C107 H116 0.930 . S
C108 C105 1.344 . S
C108 C107 1.371 . S
C108 H117 0.931 . S
C109 C105 1.328 . S
C109 C110 1.433 . S
C109 H118 0.931 . S
C110 C106 1.323 . S
C110 C109 1.433 . S
C110 H119 0.933 . S
C111 Dy81 2.738 . S
C111 O91 1.255 . S
C111 O92 1.249 . S
C111 C105 1.516 . S
H112 C98 0.930 . S
H113 C99 0.931 . S
H114 C100 0.931 . S
H115 C101 0.933 . S
H116 C107 0.930 . S
H117 C108 0.931 . S
H118 C109 0.931 . S
H119 C110 0.933 . S
C120 C121 1.384 . S
C120 H133 0.947 . S
C120 C155 1.382 . S
C121 C120 1.384 . S
C121 C122 1.378 . S
C122 C121 1.378 . S
C122 C123 1.378 . S
C122 H134 0.952 . S
C123 C122 1.378 . S
C123 H135 0.950 1_565 S
C123 C154 1.383 . S
H124 C143 0.947 . S
H125 C144 0.946 . S
H126 C146 0.953 . S
H127 C147 0.945 . S
H128 C149 0.952 . S
H129 C150 0.949 . S
H130 C152 0.950 . S
H131 C153 0.949 1_565 S
H132 C155 0.951 . S
H133 C120 0.947 . S
H134 C122 0.952 . S
H135 C123 0.950 1_545 S
N136 C139 1.382 . S
N136 C141 1.363 . S
N137 C139 1.371 . S
N137 C140 1.372 . S
N138 C140 1.361 . S
N138 C141 1.377 . S
C139 N136 1.382 . S
C139 N137 1.371 . S
C139 C142 1.480 . S
C140 N137 1.372 . S
C140 N138 1.361 . S
C140 C148 1.457 . S
C141 N136 1.363 . S
C141 N138 1.377 . S
C141 C154 1.479 1_545 S
C142 C139 1.480 . S
C142 C143 1.383 . S
C142 C147 1.385 . S
C143 H124 0.947 . S
C143 C142 1.383 . S
C143 C144 1.388 . S
C144 H125 0.946 . S
C144 C143 1.388 . S
C144 C145 1.384 . S
C145 C144 1.384 . S
C145 C146 1.377 . S
C146 H126 0.953 . S
C146 C145 1.377 . S
C146 C147 1.369 . S
C147 H127 0.945 . S
C147 C142 1.385 . S
C147 C146 1.369 . S
C148 C140 1.457 . S
C148 C149 1.372 . S
C148 C153 1.364 . S
C149 H128 0.952 . S
C149 C148 1.372 . S
C149 C150 1.389 . S
C150 H129 0.949 . S
C150 C149 1.389 . S
C150 C151 1.387 . S
C151 C150 1.387 . S
C151 C152 1.372 . S
C152 H130 0.950 . S
C152 C151 1.372 . S
C152 C153 1.379 . S
C153 H131 0.949 1_545 S
C153 C148 1.364 . S
C153 C152 1.379 . S
C154 C123 1.383 . S
C154 C141 1.479 1_565 S
C154 C155 1.398 . S
C155 C120 1.382 . S
C155 H132 0.951 . S
C155 C154 1.398 . S
C156 C157 1.384 . S
C156 H169 0.947 . S
C156 C191 1.382 . S
C157 C156 1.384 . S
C157 C158 1.378 . S
C158 C157 1.378 . S
C158 C159 1.378 . S
C158 H170 0.952 . S
C159 C158 1.378 . S
C159 H171 0.950 . S
C159 C190 1.383 . S
H160 C179 0.947 . S
H161 C180 0.946 . S
H162 C182 0.953 . S
H163 C183 0.945 . S
H164 C185 0.952 . S
H165 C186 0.949 . S
H166 C188 0.950 . S
H167 C189 0.948 . S
H168 C191 0.951 . S
H169 C156 0.947 . S
H170 C158 0.952 . S
H171 C159 0.950 . S
N172 C175 1.382 . S
N172 C177 1.363 . S
N173 C175 1.371 . S
N173 C176 1.372 . S
N174 C176 1.361 . S
N174 C177 1.377 . S
C175 N172 1.382 . S
C175 N173 1.371 . S
C175 C178 1.480 . S
C176 N173 1.372 . S
C176 N174 1.361 . S
C176 C184 1.457 . S
C177 N172 1.363 . S
C177 N174 1.377 . S
C177 C190 1.479 . S
C178 C175 1.480 . S
C178 C179 1.383 . S
C178 C183 1.385 . S
C179 H160 0.947 . S
C179 C178 1.383 . S
C179 C180 1.388 . S
C180 H161 0.946 . S
C180 C179 1.388 . S
C180 C181 1.384 . S
C181 C180 1.384 . S
C181 C182 1.377 . S
C182 H162 0.953 . S
C182 C181 1.377 . S
C182 C183 1.369 . S
C183 H163 0.945 . S
C183 C178 1.385 . S
C183 C182 1.369 . S
C184 C176 1.457 . S
C184 C185 1.372 . S
C184 C189 1.364 . S
C185 H164 0.952 . S
C185 C184 1.372 . S
C185 C186 1.389 . S
C186 H165 0.949 . S
C186 C185 1.389 . S
C186 C187 1.387 . S
C187 C186 1.387 . S
C187 C188 1.372 . S
C188 H166 0.950 . S
C188 C187 1.372 . S
C188 C189 1.379 . S
C189 H167 0.948 . S
C189 C184 1.364 . S
C189 C188 1.379 . S
C190 C159 1.383 . S
C190 C177 1.479 . S
C190 C191 1.398 . S
C191 C156 1.382 . S
C191 H168 0.951 . S
C191 C190 1.398 . S
C192 C193 1.384 . S
C192 H205 0.947 . S
C192 C227 1.382 . S
C193 C192 1.384 . S
C193 C194 1.378 . S
C194 C193 1.378 . S
C194 C195 1.378 . S
C194 H206 0.952 . S
C195 C194 1.378 . S
C195 H207 0.950 . S
C195 C226 1.383 . S
H196 C215 0.947 . S
H197 C216 0.946 . S
H198 C218 0.953 . S
H199 C219 0.945 . S
H200 C221 0.952 . S
H201 C222 0.949 . S
H202 C224 0.950 . S
H203 C225 0.948 . S
H204 C227 0.951 . S
H205 C192 0.947 . S
H206 C194 0.952 . S
H207 C195 0.950 . S
N208 C211 1.382 . S
N208 C213 1.363 1_455 S
N209 C211 1.371 . S
N209 C212 1.372 . S
N210 C212 1.361 1_655 S
N210 C213 1.377 . S
C211 N208 1.382 . S
C211 N209 1.371 . S
C211 C214 1.480 . S
C212 N209 1.372 . S
C212 N210 1.361 1_455 S
C212 C220 1.457 . S
C213 N208 1.363 1_655 S
C213 N210 1.377 . S
C213 C226 1.479 . S
C214 C211 1.480 . S
C214 C215 1.383 . S
C214 C219 1.385 . S
C215 H196 0.947 . S
C215 C214 1.383 . S
C215 C216 1.388 . S
C216 H197 0.946 . S
C216 C215 1.388 . S
C216 C217 1.384 . S
C217 C216 1.384 . S
C217 C218 1.377 . S
C218 H198 0.953 . S
C218 C217 1.377 . S
C218 C219 1.369 . S
C219 H199 0.945 . S
C219 C214 1.385 . S
C219 C218 1.369 . S
C220 C212 1.457 . S
C220 C221 1.372 . S
C220 C225 1.364 1_455 S
C221 H200 0.952 . S
C221 C220 1.372 . S
C221 C222 1.389 . S
C222 H201 0.949 . S
C222 C221 1.389 . S
C222 C223 1.387 . S
C223 C222 1.387 . S
C223 C224 1.372 1_455 S
C224 H202 0.950 . S
C224 C223 1.372 1_655 S
C224 C225 1.379 . S
C225 H203 0.948 . S
C225 C220 1.364 1_655 S
C225 C224 1.379 . S
C226 C195 1.383 . S
C226 C213 1.479 . S
C226 C227 1.398 . S
C227 C192 1.382 . S
C227 H204 0.951 . S
C227 C226 1.398 . S
C228 C229 1.384 . S
C228 H241 0.947 . S
C228 C263 1.382 . S
C229 C228 1.384 . S
C229 C230 1.378 . S
C230 C229 1.378 . S
C230 C231 1.378 . S
C230 H242 0.952 . S
C231 C230 1.378 . S
C231 H243 0.950 . S
C231 C262 1.383 . S
H232 C251 0.947 . S
H233 C252 0.946 . S
H234 C254 0.953 . S
H235 C255 0.945 . S
H236 C257 0.952 . S
H237 C258 0.949 . S
H238 C260 0.950 . S
H239 C261 0.948 . S
H240 C263 0.951 . S
H241 C228 0.947 . S
H242 C230 0.952 . S
H243 C231 0.950 . S
N244 C247 1.382 1_455 S
N244 C249 1.363 . S
N245 C247 1.371 . S
N245 C248 1.372 1_655 S
N246 C248 1.361 . S
N246 C249 1.377 . S
C247 N244 1.382 1_655 S
C247 N245 1.371 . S
C247 C250 1.480 . S
C248 N245 1.372 1_455 S
C248 N246 1.361 . S
C248 C256 1.457 . S
C249 N244 1.363 . S
C249 N246 1.377 . S
C249 C262 1.479 . S
C250 C247 1.480 . S
C250 C251 1.383 . S
C250 C255 1.385 . S
C251 H232 0.947 . S
C251 C250 1.383 . S
C251 C252 1.388 . S
C252 H233 0.946 . S
C252 C251 1.388 . S
C252 C253 1.384 . S
C253 C252 1.384 . S
C253 C254 1.377 . S
C254 H234 0.953 . S
C254 C253 1.377 . S
C254 C255 1.369 . S
C255 H235 0.945 . S
C255 C250 1.385 . S
C255 C254 1.369 . S
C256 C248 1.457 . S
C256 C257 1.372 1_455 S
C256 C261 1.364 . S
C257 H236 0.952 . S
C257 C256 1.372 1_655 S
C257 C258 1.389 . S
C258 H237 0.949 . S
C258 C257 1.389 . S
C258 C259 1.397 . S
C259 C258 1.397 . S
C259 C260 1.360 1_655 S
C260 H238 0.950 . S
C260 C259 1.360 1_455 S
C260 C261 1.379 . S
C261 H239 0.948 . S
C261 C256 1.364 . S
C261 C260 1.379 . S
C262 C231 1.383 . S
C262 C249 1.479 . S
C262 C263 1.398 . S
C263 C228 1.382 . S
C263 H240 0.951 . S
C263 C262 1.398 . S
C264 C265 1.384 . S
C264 H277 0.947 . S
C264 C299 1.382 . S
C265 C264 1.384 . S
C265 C266 1.378 . S
C266 C265 1.378 . S
C266 C267 1.378 . S
C266 H278 0.952 . S
C267 C266 1.378 . S
C267 H279 0.950 . S
C267 C298 1.383 . S
H268 C287 0.947 . S
H269 C288 0.946 . S
H270 C290 0.953 . S
H271 C291 0.945 . S
H272 C293 0.952 . S
H273 C294 0.949 . S
H274 C296 0.950 . S
H275 C297 0.948 . S
H276 C299 0.951 . S
H277 C264 0.947 . S
H278 C266 0.952 . S
H279 C267 0.950 . S
N280 C283 1.382 1_545 S
N280 C285 1.363 . S
N281 C283 1.371 . S
N281 C284 1.372 1_565 S
N282 C284 1.361 . S
N282 C285 1.377 . S
C283 N280 1.382 1_565 S
C283 N281 1.371 . S
C283 C286 1.480 . S
C284 N281 1.372 1_545 S
C284 N282 1.361 . S
C284 C292 1.457 . S
C285 N280 1.363 . S
C285 N282 1.377 . S
C285 C298 1.479 . S
C286 C283 1.480 . S
C286 C287 1.383 . S
C286 C291 1.385 . S
C287 H268 0.947 . S
C287 C286 1.383 . S
C287 C288 1.388 . S
C288 H269 0.946 . S
C288 C287 1.388 . S
C288 C289 1.384 . S
C289 C288 1.384 . S
C289 C290 1.377 . S
C290 H270 0.953 . S
C290 C289 1.377 . S
C290 C291 1.369 . S
C291 H271 0.945 . S
C291 C286 1.385 . S
C291 C290 1.369 . S
C292 C284 1.457 . S
C292 C293 1.372 1_545 S
C292 C297 1.364 . S
C293 H272 0.952 . S
C293 C292 1.372 1_565 S
C293 C294 1.389 . S
C294 H273 0.949 . S
C294 C293 1.389 . S
C294 C295 1.387 1_565 S
C295 C294 1.387 1_545 S
C295 C296 1.372 . S
C296 H274 0.950 . S
C296 C295 1.372 . S
C296 C297 1.379 . S
C297 H275 0.948 . S
C297 C292 1.364 . S
C297 C296 1.379 . S
C298 C267 1.383 . S
C298 C285 1.479 . S
C298 C299 1.398 . S
C299 C264 1.382 . S
C299 H276 0.951 . S
C299 C298 1.398 . S
C300 C301 1.384 . S
C300 H313 0.947 . S
C300 C335 1.382 . S
C301 C300 1.384 . S
C301 C302 1.378 . S
C302 C301 1.378 . S
C302 C303 1.378 . S
C302 H314 0.952 . S
C303 C302 1.378 . S
C303 H315 0.950 . S
C303 C334 1.383 . S
H304 C323 0.947 . S
H305 C324 0.946 . S
H306 C326 0.953 . S
H307 C327 0.945 . S
H308 C329 0.952 . S
H309 C330 0.949 . S
H310 C332 0.950 . S
H311 C333 0.948 . S
H312 C335 0.951 . S
H313 C300 0.947 . S
H314 C302 0.952 . S
H315 C303 0.950 . S
N316 C319 1.382 . S
N316 C321 1.363 . S
N317 C319 1.371 . S
N317 C320 1.372 . S
N318 C320 1.361 . S
N318 C321 1.377 . S
C319 N316 1.382 . S
C319 N317 1.371 . S
C319 C322 1.480 . S
C320 N317 1.372 . S
C320 N318 1.361 . S
C320 C328 1.457 . S
C321 N316 1.363 . S
C321 N318 1.377 . S
C321 C334 1.479 . S
C322 C319 1.480 . S
C322 C323 1.383 . S
C322 C327 1.385 . S
C323 H304 0.947 . S
C323 C322 1.383 . S
C323 C324 1.388 . S
C324 H305 0.946 . S
C324 C323 1.388 . S
C324 C325 1.384 . S
C325 C324 1.384 . S
C325 C326 1.377 . S
C326 H306 0.953 . S
C326 C325 1.377 . S
C326 C327 1.369 . S
C327 H307 0.945 . S
C327 C322 1.385 . S
C327 C326 1.369 . S
C328 C320 1.457 . S
C328 C329 1.372 . S
C328 C333 1.364 . S
C329 H308 0.952 . S
C329 C328 1.372 . S
C329 C330 1.389 . S
C330 H309 0.949 . S
C330 C329 1.389 . S
C330 C331 1.387 . S
C331 C330 1.387 . S
C331 C332 1.372 . S
C332 H310 0.950 . S
C332 C331 1.372 . S
C332 C333 1.379 . S
C333 H311 0.948 . S
C333 C328 1.364 . S
C333 C332 1.379 . S
C334 C303 1.383 . S
C334 C321 1.479 . S
C334 C335 1.398 . S
C335 C300 1.382 . S
C335 H312 0.951 . S
C335 C334 1.398 . S
C336 C337 1.391 . S
C336 C338 1.394 . S
C336 H352 0.931 . S
C337 C336 1.391 . S
C337 C341 1.376 . S
C338 C336 1.394 . S
C338 C339 1.369 . S
C338 C342 1.531 . S
C339 C338 1.369 . S
C339 C340 1.410 . S
C339 C347 1.503 . S
C340 C339 1.410 . S
C340 C341 1.392 . S
C340 C343 1.511 . S
C341 C337 1.376 . S
C341 C340 1.392 . S
C341 H353 0.929 . S
C342 C338 1.531 . S
C342 H354 0.960 . S
C342 H355 0.962 . S
C342 H356 0.960 . S
C343 C340 1.511 . S
C343 H357 0.961 . S
C343 H358 0.961 . S
C343 H359 0.961 . S
C344 C345 1.370 . S
C344 C346 1.363 . S
C344 H360 0.931 . S
C345 C344 1.370 . S
C345 C349 1.408 . S
C346 C344 1.363 . S
C346 C347 1.370 . S
C346 C350 1.524 . S
C347 C339 1.503 . S
C347 C346 1.370 . S
C347 C348 1.403 . S
C348 C347 1.403 . S
C348 C349 1.404 . S
C348 C351 1.539 . S
C349 C345 1.408 . S
C349 C348 1.404 . S
C349 H361 0.930 . S
C350 C346 1.524 . S
C350 H362 0.956 . S
C350 H363 0.961 . S
C350 H364 0.961 . S
C351 C348 1.539 . S
C351 H365 0.958 . S
C351 H366 0.961 . S
C351 H367 0.960 . S
H352 C336 0.931 . S
H353 C341 0.929 . S
H354 C342 0.960 . S
H355 C342 0.962 . S
H356 C342 0.960 . S
H357 C343 0.961 . S
H358 C343 0.961 . S
H359 C343 0.961 . S
H360 C344 0.931 . S
H361 C349 0.930 . S
H362 C350 0.956 . S
H363 C350 0.961 . S
H364 C350 0.961 . S
H365 C351 0.958 . S
H366 C351 0.961 . S
H367 C351 0.960 . S
C368 C369 1.391 . S
C368 C370 1.394 . S
C368 H384 0.931 . S
C369 C368 1.391 . S
C369 C373 1.376 . S
C370 C368 1.394 . S
C370 C371 1.369 . S
C370 C374 1.531 . S
C371 C370 1.369 . S
C371 C372 1.410 . S
C371 C379 1.503 . S
C372 C371 1.410 . S
C372 C373 1.392 . S
C372 C375 1.511 . S
C373 C369 1.376 . S
C373 C372 1.392 . S
C373 H385 0.929 . S
C374 C370 1.531 . S
C374 H386 0.960 . S
C374 H387 0.962 . S
C374 H388 0.960 . S
C375 C372 1.511 . S
C375 H389 0.961 . S
C375 H390 0.961 . S
C375 H391 0.961 . S
C376 C377 1.370 . S
C376 C378 1.363 . S
C376 H392 0.931 . S
C377 C376 1.370 . S
C377 C381 1.408 . S
C378 C376 1.363 . S
C378 C379 1.370 . S
C378 C382 1.524 . S
C379 C371 1.503 . S
C379 C378 1.370 . S
C379 C380 1.403 . S
C380 C379 1.403 . S
C380 C381 1.404 . S
C380 C383 1.539 . S
C381 C377 1.408 . S
C381 C380 1.404 . S
C381 H393 0.930 . S
C382 C378 1.524 . S
C382 H394 0.956 . S
C382 H395 0.961 . S
C382 H396 0.961 . S
C383 C380 1.539 . S
C383 H397 0.958 . S
C383 H398 0.961 . S
C383 H399 0.960 . S
H384 C368 0.931 . S
H385 C373 0.929 . S
H386 C374 0.960 . S
H387 C374 0.962 . S
H388 C374 0.960 . S
H389 C375 0.961 . S
H390 C375 0.961 . S
H391 C375 0.961 . S
H392 C376 0.931 . S
H393 C381 0.930 . S
H394 C382 0.956 . S
H395 C382 0.961 . S
H396 C382 0.961 . S
H397 C383 0.958 . S
H398 C383 0.961 . S
H399 C383 0.960 . S
C400 C401 1.391 . S
C400 C402 1.394 . S
C400 H416 0.931 . S
C401 C400 1.391 . S
C401 C405 1.376 . S
C402 C400 1.394 . S
C402 C403 1.369 . S
C402 C406 1.531 . S
C403 C402 1.369 . S
C403 C404 1.410 . S
C403 C411 1.503 . S
C404 C403 1.410 . S
C404 C405 1.392 . S
C404 C407 1.511 . S
C405 C401 1.376 . S
C405 C404 1.392 . S
C405 H417 0.929 . S
C406 C402 1.531 . S
C406 H418 0.960 . S
C406 H419 0.962 . S
C406 H420 0.960 . S
C407 C404 1.511 . S
C407 H421 0.961 . S
C407 H422 0.961 . S
C407 H423 0.961 . S
C408 C409 1.370 . S
C408 C410 1.363 . S
C408 H424 0.931 . S
C409 C408 1.370 . S
C409 C413 1.408 . S
C410 C408 1.363 . S
C410 C411 1.370 . S
C410 C414 1.524 . S
C411 C403 1.503 . S
C411 C410 1.370 . S
C411 C412 1.403 . S
C412 C411 1.403 . S
C412 C413 1.404 . S
C412 C415 1.539 . S
C413 C409 1.408 . S
C413 C412 1.404 . S
C413 H425 0.930 . S
C414 C410 1.524 . S
C414 H426 0.956 . S
C414 H427 0.961 . S
C414 H428 0.961 . S
C415 C412 1.539 . S
C415 H429 0.958 . S
C415 H430 0.961 . S
C415 H431 0.960 . S
H416 C400 0.931 . S
H417 C405 0.929 . S
H418 C406 0.960 . S
H419 C406 0.962 . S
H420 C406 0.960 . S
H421 C407 0.961 . S
H422 C407 0.961 . S
H423 C407 0.961 . S
H424 C408 0.931 . S
H425 C413 0.930 . S
H426 C414 0.956 . S
H427 C414 0.961 . S
H428 C414 0.961 . S
H429 C415 0.958 . S
H430 C415 0.961 . S
H431 C415 0.960 . S
C432 C433 1.391 . S
C432 C434 1.394 . S
C432 H448 0.931 . S
C433 C432 1.391 . S
C433 C437 1.376 . S
C434 C432 1.394 . S
C434 C435 1.369 . S
C434 C438 1.531 . S
C435 C434 1.369 . S
C435 C436 1.410 . S
C435 C443 1.503 . S
C436 C435 1.410 . S
C436 C437 1.392 . S
C436 C439 1.511 . S
C437 C433 1.376 . S
C437 C436 1.392 . S
C437 H449 0.929 . S
C438 C434 1.531 . S
C438 H450 0.960 . S
C438 H451 0.962 . S
C438 H452 0.960 . S
C439 C436 1.511 . S
C439 H453 0.961 . S
C439 H454 0.961 . S
C439 H455 0.961 . S
C440 C441 1.370 . S
C440 C442 1.363 . S
C440 H456 0.931 . S
C441 C440 1.370 . S
C441 C445 1.408 . S
C442 C440 1.363 . S
C442 C443 1.370 . S
C442 C446 1.524 . S
C443 C435 1.503 . S
C443 C442 1.370 . S
C443 C444 1.403 . S
C444 C443 1.403 . S
C444 C445 1.404 . S
C444 C447 1.539 . S
C445 C441 1.408 . S
C445 C444 1.404 . S
C445 H457 0.930 . S
C446 C442 1.524 . S
C446 H458 0.956 . S
C446 H459 0.961 . S
C446 H460 0.961 . S
C447 C444 1.539 . S
C447 H461 0.958 . S
C447 H462 0.961 . S
C447 H463 0.960 . S
H448 C432 0.931 . S
H449 C437 0.929 . S
H450 C438 0.960 . S
H451 C438 0.962 . S
H452 C438 0.960 . S
H453 C439 0.961 . S
H454 C439 0.961 . S
H455 C439 0.961 . S
H456 C440 0.931 . S
H457 C445 0.930 . S
H458 C446 0.956 . S
H459 C446 0.961 . S
H460 C446 0.961 . S
H461 C447 0.958 . S
H462 C447 0.961 . S
H463 C447 0.960 . S
C464 C465 1.391 . S
C464 C466 1.394 . S
C464 H480 0.931 . S
C465 C464 1.391 . S
C465 C469 1.376 . S
C466 C464 1.394 . S
C466 C467 1.369 . S
C466 C470 1.531 . S
C467 C466 1.369 . S
C467 C468 1.410 . S
C467 C475 1.503 . S
C468 C467 1.410 . S
C468 C469 1.392 . S
C468 C471 1.511 . S
C469 C465 1.376 . S
C469 C468 1.392 . S
C469 H481 0.929 . S
C470 C466 1.531 . S
C470 H482 0.960 . S
C470 H483 0.962 . S
C470 H484 0.960 . S
C471 C468 1.511 . S
C471 H485 0.961 . S
C471 H486 0.961 . S
C471 H487 0.961 . S
C472 C473 1.370 . S
C472 C474 1.363 . S
C472 H488 0.931 . S
C473 C472 1.370 . S
C473 C477 1.408 . S
C474 C472 1.363 . S
C474 C475 1.370 . S
C474 C478 1.524 . S
C475 C467 1.503 . S
C475 C474 1.370 . S
C475 C476 1.403 . S
C476 C475 1.403 . S
C476 C477 1.404 . S
C476 C479 1.539 . S
C477 C473 1.408 . S
C477 C476 1.404 . S
C477 H489 0.930 . S
C478 C474 1.524 . S
C478 H490 0.956 . S
C478 H491 0.961 . S
C478 H492 0.961 . S
C479 C476 1.539 . S
C479 H493 0.958 . S
C479 H494 0.961 . S
C479 H495 0.960 . S
H480 C464 0.931 . S
H481 C469 0.929 . S
H482 C470 0.960 . S
H483 C470 0.962 . S
H484 C470 0.960 . S
H485 C471 0.961 . S
H486 C471 0.961 . S
H487 C471 0.961 . S
H488 C472 0.931 . S
H489 C477 0.930 . S
H490 C478 0.956 . S
H491 C478 0.961 . S
H492 C478 0.961 . S
H493 C479 0.958 . S
H494 C479 0.961 . S
H495 C479 0.960 . S
C496 C497 1.391 . S
C496 C498 1.394 . S
C496 H512 0.931 . S
C497 C496 1.391 . S
C497 C501 1.376 . S
C498 C496 1.394 . S
C498 C499 1.369 . S
C498 C502 1.531 . S
C499 C498 1.369 . S
C499 C500 1.410 . S
C499 C507 1.503 . S
C500 C499 1.410 . S
C500 C501 1.392 . S
C500 C503 1.511 . S
C501 C497 1.376 . S
C501 C500 1.392 . S
C501 H513 0.929 . S
C502 C498 1.531 . S
C502 H514 0.960 . S
C502 H515 0.962 . S
C502 H516 0.960 . S
C503 C500 1.511 . S
C503 H517 0.961 . S
C503 H518 0.961 . S
C503 H519 0.961 . S
C504 C505 1.370 . S
C504 C506 1.363 . S
C504 H520 0.931 . S
C505 C504 1.370 . S
C505 C509 1.408 . S
C506 C504 1.363 . S
C506 C507 1.370 . S
C506 C510 1.524 . S
C507 C499 1.503 . S
C507 C506 1.370 . S
C507 C508 1.403 . S
C508 C507 1.403 . S
C508 C509 1.404 . S
C508 C511 1.539 . S
C509 C505 1.408 . S
C509 C508 1.404 . S
C509 H521 0.930 . S
C510 C506 1.524 . S
C510 H522 0.956 . S
C510 H523 0.961 . S
C510 H524 0.961 . S
C511 C508 1.539 . S
C511 H525 0.958 . S
C511 H526 0.961 . S
C511 H527 0.960 . S
H512 C496 0.931 . S
H513 C501 0.929 . S
H514 C502 0.960 . S
H515 C502 0.962 . S
H516 C502 0.960 . S
H517 C503 0.961 . S
H518 C503 0.961 . S
H519 C503 0.961 . S
H520 C504 0.931 . S
H521 C509 0.930 . S
H522 C510 0.956 . S
H523 C510 0.961 . S
H524 C510 0.961 . S
H525 C511 0.958 . S
H526 C511 0.961 . S
H527 C511 0.960 . S
C528 C529 1.391 . S
C528 C530 1.394 . S
C528 H544 0.931 . S
C529 C528 1.391 . S
C529 C533 1.376 . S
C530 C528 1.394 . S
C530 C531 1.369 . S
C530 C534 1.531 . S
C531 C530 1.369 . S
C531 C532 1.410 . S
C531 C539 1.503 . S
C532 C531 1.410 . S
C532 C533 1.392 . S
C532 C535 1.511 . S
C533 C529 1.376 . S
C533 C532 1.392 . S
C533 H545 0.929 . S
C534 C530 1.531 . S
C534 H546 0.960 . S
C534 H547 0.962 . S
C534 H548 0.960 . S
C535 C532 1.511 . S
C535 H549 0.961 . S
C535 H550 0.961 . S
C535 H551 0.961 . S
C536 C537 1.370 . S
C536 C538 1.363 . S
C536 H552 0.931 . S
C537 C536 1.370 . S
C537 C541 1.408 . S
C538 C536 1.363 . S
C538 C539 1.370 . S
C538 C542 1.524 . S
C539 C531 1.503 . S
C539 C538 1.370 . S
C539 C540 1.403 . S
C540 C539 1.403 . S
C540 C541 1.404 . S
C540 C543 1.539 . S
C541 C537 1.408 . S
C541 C540 1.404 . S
C541 H553 0.930 . S
C542 C538 1.524 . S
C542 H554 0.956 . S
C542 H555 0.961 . S
C542 H556 0.961 . S
C543 C540 1.539 . S
C543 H557 0.958 . S
C543 H558 0.961 . S
C543 H559 0.960 . S
H544 C528 0.931 . S
H545 C533 0.929 . S
H546 C534 0.960 . S
H547 C534 0.962 . S
H548 C534 0.960 . S
H549 C535 0.961 . S
H550 C535 0.961 . S
H551 C535 0.961 . S
H552 C536 0.931 . S
H553 C541 0.930 . S
H554 C542 0.956 . S
H555 C542 0.961 . S
H556 C542 0.961 . S
H557 C543 0.958 . S
H558 C543 0.961 . S
H559 C543 0.960 . S
C560 C561 1.391 . S
C560 C562 1.394 . S
C560 H576 0.931 . S
C561 C560 1.391 . S
C561 C565 1.376 . S
C562 C560 1.394 . S
C562 C563 1.369 . S
C562 C566 1.531 . S
C563 C562 1.369 . S
C563 C564 1.410 . S
C563 C571 1.503 . S
C564 C563 1.410 . S
C564 C565 1.392 . S
C564 C567 1.511 . S
C565 C561 1.376 . S
C565 C564 1.392 . S
C565 H577 0.929 . S
C566 C562 1.531 . S
C566 H578 0.960 . S
C566 H579 0.962 . S
C566 H580 0.960 . S
C567 C564 1.511 . S
C567 H581 0.961 . S
C567 H582 0.961 . S
C567 H583 0.961 . S
C568 C569 1.370 . S
C568 C570 1.363 . S
C568 H584 0.931 . S
C569 C568 1.370 . S
C569 C573 1.408 . S
C570 C568 1.363 . S
C570 C571 1.370 . S
C570 C574 1.524 . S
C571 C563 1.503 . S
C571 C570 1.370 . S
C571 C572 1.403 . S
C572 C571 1.403 . S
C572 C573 1.404 . S
C572 C575 1.539 . S
C573 C569 1.408 . S
C573 C572 1.404 . S
C573 H585 0.930 . S
C574 C570 1.524 . S
C574 H586 0.956 . S
C574 H587 0.961 . S
C574 H588 0.961 . S
C575 C572 1.539 . S
C575 H589 0.958 . S
C575 H590 0.961 . S
C575 H591 0.960 . S
H576 C560 0.931 . S
H577 C565 0.929 . S
H578 C566 0.960 . S
H579 C566 0.962 . S
H580 C566 0.960 . S
H581 C567 0.961 . S
H582 C567 0.961 . S
H583 C567 0.961 . S
H584 C568 0.931 . S
H585 C573 0.930 . S
H586 C574 0.956 . S
H587 C574 0.961 . S
H588 C574 0.961 . S
H589 C575 0.958 . S
H590 C575 0.961 . S
H591 C575 0.960 . S
C592 C593 1.391 . S
C592 C594 1.394 . S
C592 H608 0.931 . S
C593 C592 1.391 . S
C593 C597 1.376 . S
C594 C592 1.394 . S
C594 C595 1.369 . S
C594 C598 1.531 . S
C595 C594 1.369 . S
C595 C596 1.410 . S
C595 C603 1.503 . S
C596 C595 1.410 . S
C596 C597 1.392 . S
C596 C599 1.511 . S
C597 C593 1.376 . S
C597 C596 1.392 . S
C597 H609 0.929 . S
C598 C594 1.531 . S
C598 H610 0.960 . S
C598 H611 0.962 . S
C598 H612 0.960 . S
C599 C596 1.511 . S
C599 H613 0.961 . S
C599 H614 0.961 . S
C599 H615 0.961 . S
C600 C601 1.370 . S
C600 C602 1.363 . S
C600 H616 0.931 . S
C601 C600 1.370 . S
C601 C605 1.408 . S
C602 C600 1.363 . S
C602 C603 1.370 . S
C602 C606 1.524 . S
C603 C595 1.503 . S
C603 C602 1.370 . S
C603 C604 1.403 . S
C604 C603 1.403 . S
C604 C605 1.404 . S
C604 C607 1.539 . S
C605 C601 1.408 . S
C605 C604 1.404 . S
C605 H617 0.930 . S
C606 C602 1.524 . S
C606 H618 0.956 . S
C606 H619 0.961 . S
C606 H620 0.961 . S
C607 C604 1.539 . S
C607 H621 0.958 . S
C607 H622 0.961 . S
C607 H623 0.960 . S
H608 C592 0.931 . S
H609 C597 0.929 . S
H610 C598 0.960 . S
H611 C598 0.962 . S
H612 C598 0.960 . S
H613 C599 0.961 . S
H614 C599 0.961 . S
H615 C599 0.961 . S
H616 C600 0.931 . S
H617 C605 0.930 . S
H618 C606 0.956 . S
H619 C606 0.961 . S
H620 C606 0.961 . S
H621 C607 0.958 . S
H622 C607 0.961 . S
H623 C607 0.960 . S
C624 C625 1.391 . S
C624 C626 1.394 . S
C624 H640 0.931 . S
C625 C624 1.391 . S
C625 C629 1.376 . S
C626 C624 1.394 . S
C626 C627 1.369 . S
C626 C630 1.531 . S
C627 C626 1.369 . S
C627 C628 1.410 . S
C627 C635 1.503 . S
C628 C627 1.410 . S
C628 C629 1.392 . S
C628 C631 1.511 . S
C629 C625 1.376 . S
C629 C628 1.392 . S
C629 H641 0.929 . S
C630 C626 1.531 . S
C630 H642 0.960 . S
C630 H643 0.962 . S
C630 H644 0.960 . S
C631 C628 1.511 . S
C631 H645 0.961 . S
C631 H646 0.961 . S
C631 H647 0.961 . S
C632 C633 1.370 . S
C632 C634 1.363 . S
C632 H648 0.931 . S
C633 C632 1.370 . S
C633 C637 1.408 . S
C634 C632 1.363 . S
C634 C635 1.370 . S
C634 C638 1.524 . S
C635 C627 1.503 . S
C635 C634 1.370 . S
C635 C636 1.403 . S
C636 C635 1.403 . S
C636 C637 1.404 . S
C636 C639 1.539 . S
C637 C633 1.408 . S
C637 C636 1.404 . S
C637 H649 0.930 . S
C638 C634 1.524 . S
C638 H650 0.956 . S
C638 H651 0.961 . S
C638 H652 0.961 . S
C639 C636 1.539 . S
C639 H653 0.958 . S
C639 H654 0.961 . S
C639 H655 0.960 . S
H640 C624 0.931 . S
H641 C629 0.929 . S
H642 C630 0.960 . S
H643 C630 0.962 . S
H644 C630 0.960 . S
H645 C631 0.961 . S
H646 C631 0.961 . S
H647 C631 0.961 . S
H648 C632 0.931 . S
H649 C637 0.930 . S
H650 C638 0.956 . S
H651 C638 0.961 . S
H652 C638 0.961 . S
H653 C639 0.958 . S
H654 C639 0.961 . S
H655 C639 0.960 . S
C656 C657 1.391 . S
C656 C658 1.394 . S
C656 H672 0.931 . S
C657 C656 1.391 . S
C657 C661 1.376 . S
C658 C656 1.394 . S
C658 C659 1.369 . S
C658 C662 1.531 . S
C659 C658 1.369 . S
C659 C660 1.410 . S
C659 C667 1.503 . S
C660 C659 1.410 . S
C660 C661 1.392 . S
C660 C663 1.511 . S
C661 C657 1.376 . S
C661 C660 1.392 . S
C661 H673 0.929 . S
C662 C658 1.531 . S
C662 H674 0.960 . S
C662 H675 0.962 . S
C662 H676 0.960 . S
C663 C660 1.511 . S
C663 H677 0.961 . S
C663 H678 0.961 . S
C663 H679 0.961 . S
C664 C665 1.370 . S
C664 C666 1.363 . S
C664 H680 0.931 . S
C665 C664 1.370 . S
C665 C669 1.408 . S
C666 C664 1.363 . S
C666 C667 1.370 . S
C666 C670 1.524 . S
C667 C659 1.503 . S
C667 C666 1.370 . S
C667 C668 1.403 . S
C668 C667 1.403 . S
C668 C669 1.404 . S
C668 C671 1.539 . S
C669 C665 1.408 . S
C669 C668 1.404 . S
C669 H681 0.930 . S
C670 C666 1.524 . S
C670 H682 0.956 . S
C670 H683 0.961 . S
C670 H684 0.961 . S
C671 C668 1.539 . S
C671 H685 0.958 . S
C671 H686 0.961 . S
C671 H687 0.960 . S
H672 C656 0.931 . S
H673 C661 0.929 . S
H674 C662 0.960 . S
H675 C662 0.962 . S
H676 C662 0.960 . S
H677 C663 0.961 . S
H678 C663 0.961 . S
H679 C663 0.961 . S
H680 C664 0.931 . S
H681 C669 0.930 . S
H682 C670 0.956 . S
H683 C670 0.961 . S
H684 C670 0.961 . S
H685 C671 0.958 . S
H686 C671 0.961 . S
H687 C671 0.960 . S
C688 C689 1.391 . S
C688 C690 1.394 . S
C688 H704 0.931 . S
C689 C688 1.391 . S
C689 C693 1.376 . S
C690 C688 1.394 . S
C690 C691 1.369 . S
C690 C694 1.531 . S
C691 C690 1.369 . S
C691 C692 1.410 . S
C691 C699 1.503 . S
C692 C691 1.410 . S
C692 C693 1.392 . S
C692 C695 1.511 . S
C693 C689 1.376 . S
C693 C692 1.392 . S
C693 H705 0.929 . S
C694 C690 1.531 . S
C694 H706 0.960 . S
C694 H707 0.962 . S
C694 H708 0.960 . S
C695 C692 1.511 . S
C695 H709 0.961 . S
C695 H710 0.961 . S
C695 H711 0.961 . S
C696 C697 1.370 . S
C696 C698 1.363 . S
C696 H712 0.931 . S
C697 C696 1.370 . S
C697 C701 1.408 . S
C698 C696 1.363 . S
C698 C699 1.370 . S
C698 C702 1.524 . S
C699 C691 1.503 . S
C699 C698 1.370 . S
C699 C700 1.403 . S
C700 C699 1.403 . S
C700 C701 1.404 . S
C700 C703 1.539 . S
C701 C697 1.408 . S
C701 C700 1.404 . S
C701 H713 0.930 . S
C702 C698 1.524 . S
C702 H714 0.956 . S
C702 H715 0.961 . S
C702 H716 0.961 . S
C703 C700 1.539 . S
C703 H717 0.958 . S
C703 H718 0.961 . S
C703 H719 0.960 . S
H704 C688 0.931 . S
H705 C693 0.929 . S
H706 C694 0.960 . S
H707 C694 0.962 . S
H708 C694 0.960 . S
H709 C695 0.961 . S
H710 C695 0.961 . S
H711 C695 0.961 . S
H712 C696 0.931 . S
H713 C701 0.930 . S
H714 C702 0.956 . S
H715 C702 0.961 . S
H716 C702 0.961 . S
H717 C703 0.958 . S
H718 C703 0.961 . S
H719 C703 0.960 . S
C720 C721 1.391 . S
C720 C722 1.394 . S
C720 H736 0.931 . S
C721 C720 1.391 . S
C721 C725 1.376 1_455 S
C722 C720 1.394 . S
C722 C723 1.369 . S
C722 C726 1.531 . S
C723 C722 1.369 . S
C723 C724 1.410 1_455 S
C723 C731 1.503 . S
C724 C723 1.410 1_655 S
C724 C725 1.392 . S
C724 C727 1.511 . S
C725 C721 1.376 1_655 S
C725 C724 1.392 . S
C725 H737 0.929 . S
C726 C722 1.531 . S
C726 H738 0.960 . S
C726 H739 0.962 . S
C726 H740 0.960 . S
C727 C724 1.511 . S
C727 H741 0.961 . S
C727 H742 0.961 . S
C727 H743 0.961 . S
C728 C729 1.370 . S
C728 C730 1.363 . S
C728 H744 0.931 . S
C729 C728 1.370 . S
C729 C733 1.408 . S
C730 C728 1.363 . S
C730 C731 1.370 . S
C730 C734 1.524 . S
C731 C723 1.503 . S
C731 C730 1.370 . S
C731 C732 1.403 1_455 S
C732 C731 1.403 1_655 S
C732 C733 1.404 1_655 S
C732 C735 1.539 . S
C733 C729 1.408 . S
C733 C732 1.404 1_455 S
C733 H745 0.930 1_455 S
C734 C730 1.524 . S
C734 H746 0.956 . S
C734 H747 0.961 . S
C734 H748 0.961 . S
C735 C732 1.539 . S
C735 H749 0.958 . S
C735 H750 0.961 . S
C735 H751 0.960 . S
H736 C720 0.931 . S
H737 C725 0.929 . S
H738 C726 0.960 . S
H739 C726 0.962 . S
H740 C726 0.960 . S
H741 C727 0.961 . S
H742 C727 0.961 . S
H743 C727 0.961 . S
H744 C728 0.931 . S
H745 C733 0.930 1_655 S
H746 C734 0.956 . S
H747 C734 0.961 . S
H748 C734 0.961 . S
H749 C735 0.958 . S
H750 C735 0.961 . S
H751 C735 0.960 . S
C752 C753 1.391 . S
C752 C754 1.394 . S
C752 H768 0.931 . S
C753 C752 1.391 . S
C753 C757 1.376 . S
C754 C752 1.394 . S
C754 C755 1.369 . S
C754 C758 1.531 . S
C755 C754 1.369 . S
C755 C756 1.410 . S
C755 C763 1.503 . S
C756 C755 1.410 . S
C756 C757 1.392 . S
C756 C759 1.513 . S
C757 C753 1.376 . S
C757 C756 1.392 . S
C757 H769 0.929 . S
C758 C754 1.531 . S
C758 H770 0.960 . S
C758 H771 0.962 . S
C758 H772 0.960 . S
C759 C756 1.513 . S
C759 H773 0.967 . S
C759 H774 0.972 . S
C759 H775 0.942 1_545 S
C760 C761 1.370 . S
C760 C762 1.363 . S
C760 H776 0.931 . S
C761 C760 1.370 . S
C761 C765 1.408 . S
C762 C760 1.363 . S
C762 C763 1.370 . S
C762 C766 1.524 . S
C763 C755 1.503 . S
C763 C762 1.370 . S
C763 C764 1.403 . S
C764 C763 1.403 . S
C764 C765 1.404 . S
C764 C767 1.539 1_545 S
C765 C761 1.408 . S
C765 C764 1.404 . S
C765 H777 0.930 1_545 S
C766 C762 1.524 . S
C766 H778 0.956 . S
C766 H779 0.961 . S
C766 H780 0.961 . S
C767 C764 1.539 1_565 S
C767 H781 0.958 . S
C767 H782 0.961 . S
C767 H783 0.960 . S
H768 C752 0.931 . S
H769 C757 0.929 . S
H770 C758 0.960 . S
H771 C758 0.962 . S
H772 C758 0.960 . S
H773 C759 0.967 . S
H774 C759 0.972 . S
H775 C759 0.942 1_565 S
H776 C760 0.931 . S
H777 C765 0.930 1_565 S
H778 C766 0.956 . S
H779 C766 0.961 . S
H780 C766 0.961 . S
H781 C767 0.958 . S
H782 C767 0.961 . S
H783 C767 0.960 . S
C784 C785 1.391 . S
C784 C786 1.394 . S
C784 H800 0.931 . S
C785 C784 1.391 . S
C785 C789 1.376 . S
C786 C784 1.394 . S
C786 C787 1.369 . S
C786 C790 1.531 . S
C787 C786 1.369 . S
C787 C788 1.410 . S
C787 C795 1.503 . S
C788 C787 1.410 . S
C788 C789 1.392 . S
C788 C791 1.511 . S
C789 C785 1.376 . S
C789 C788 1.392 . S
C789 H801 0.929 . S
C790 C786 1.531 . S
C790 H802 0.960 . S
C790 H803 0.962 . S
C790 H804 0.960 . S
C791 C788 1.511 . S
C791 H805 0.961 . S
C791 H806 0.961 . S
C791 H807 0.961 . S
C792 C793 1.370 . S
C792 C794 1.363 . S
C792 H808 0.931 . S
C793 C792 1.370 . S
C793 C797 1.408 . S
C794 C792 1.363 . S
C794 C795 1.370 . S
C794 C798 1.524 . S
C795 C787 1.503 . S
C795 C794 1.370 . S
C795 C796 1.403 . S
C796 C795 1.403 . S
C796 C797 1.404 . S
C796 C799 1.539 . S
C797 C793 1.408 . S
C797 C796 1.404 . S
C797 H809 0.930 . S
C798 C794 1.524 . S
C798 H810 0.956 . S
C798 H811 0.961 . S
C798 H812 0.961 . S
C799 C796 1.539 . S
C799 H813 0.958 . S
C799 H814 0.961 . S
C799 H815 0.960 . S
H800 C784 0.931 . S
H801 C789 0.929 . S
H802 C790 0.960 . S
H803 C790 0.962 . S
H804 C790 0.960 . S
H805 C791 0.961 . S
H806 C791 0.961 . S
H807 C791 0.961 . S
H808 C792 0.931 . S
H809 C797 0.930 . S
H810 C798 0.956 . S
H811 C798 0.961 . S
H812 C798 0.961 . S
H813 C799 0.958 . S
H814 C799 0.961 . S
H815 C799 0.960 . S
C816 C817 1.391 . S
C816 C818 1.394 . S
C816 H832 0.931 . S
C817 C816 1.391 . S
C817 C821 1.376 . S
C818 C816 1.394 . S
C818 C819 1.369 . S
C818 C822 1.531 . S
C819 C818 1.369 . S
C819 C820 1.410 . S
C819 C827 1.503 . S
C820 C819 1.410 . S
C820 C821 1.392 . S
C820 C823 1.511 1_545 S
C821 C817 1.376 . S
C821 C820 1.392 . S
C821 H833 0.929 1_545 S
C822 C818 1.531 . S
C822 H834 0.960 . S
C822 H835 0.962 . S
C822 H836 0.960 . S
C823 C820 1.511 1_565 S
C823 H837 0.961 . S
C823 H838 0.961 . S
C823 H839 0.961 1_565 S
C824 C825 1.370 1_565 S
C824 C826 1.363 . S
C824 H840 0.931 . S
C825 C824 1.370 1_545 S
C825 C829 1.408 . S
C826 C824 1.363 . S
C826 C827 1.370 1_565 S
C826 C830 1.524 . S
C827 C819 1.503 . S
C827 C826 1.370 1_545 S
C827 C828 1.403 . S
C828 C827 1.403 . S
C828 C829 1.404 . S
C828 C831 1.539 . S
C829 C825 1.408 . S
C829 C828 1.404 . S
C829 H841 0.930 . S
C830 C826 1.524 . S
C830 H842 0.956 . S
C830 H843 0.961 . S
C830 H844 0.961 . S
C831 C828 1.539 . S
C831 H845 0.958 . S
C831 H846 0.961 . S
C831 H847 0.960 . S
H832 C816 0.931 . S
H833 C821 0.929 1_565 S
H834 C822 0.960 . S
H835 C822 0.962 . S
H836 C822 0.960 . S
H837 C823 0.961 . S
H838 C823 0.961 . S
H839 C823 0.961 1_545 S
H840 C824 0.931 . S
H841 C829 0.930 . S
H842 C830 0.956 . S
H843 C830 0.961 . S
H844 C830 0.961 . S
H845 C831 0.958 . S
H846 C831 0.961 . S
H847 C831 0.960 . S
C848 C849 1.391 . S
C848 C850 1.394 . S
C848 H864 0.931 . S
C849 C848 1.391 . S
C849 C853 1.376 . S
C850 C848 1.394 . S
C850 C851 1.369 . S
C850 C854 1.531 . S
C851 C850 1.369 . S
C851 C852 1.410 . S
C851 C859 1.503 . S
C852 C851 1.410 . S
C852 C853 1.392 . S
C852 C855 1.511 . S
C853 C849 1.376 . S
C853 C852 1.392 . S
C853 H865 0.929 . S
C854 C850 1.531 . S
C854 H866 0.960 . S
C854 H867 0.962 . S
C854 H868 0.960 . S
C855 C852 1.511 . S
C855 H869 0.961 . S
C855 H870 0.961 . S
C855 H871 0.961 . S
C856 C857 1.370 . S
C856 C858 1.363 . S
C856 H872 0.931 . S
C857 C856 1.370 . S
C857 C861 1.408 . S
C858 C856 1.363 . S
C858 C859 1.370 . S
C858 C862 1.524 . S
C859 C851 1.503 . S
C859 C858 1.370 . S
C859 C860 1.403 . S
C860 C859 1.403 . S
C860 C861 1.404 . S
C860 C863 1.539 . S
C861 C857 1.408 . S
C861 C860 1.404 . S
C861 H873 0.930 . S
C862 C858 1.524 . S
C862 H874 0.956 . S
C862 H875 0.961 . S
C862 H876 0.961 . S
C863 C860 1.539 . S
C863 H877 0.958 . S
C863 H878 0.961 . S
C863 H879 0.960 . S
H864 C848 0.931 . S
H865 C853 0.929 . S
H866 C854 0.960 . S
H867 C854 0.962 . S
H868 C854 0.960 . S
H869 C855 0.961 . S
H870 C855 0.961 . S
H871 C855 0.961 . S
H872 C856 0.931 . S
H873 C861 0.930 . S
H874 C862 0.956 . S
H875 C862 0.961 . S
H876 C862 0.961 . S
H877 C863 0.958 . S
H878 C863 0.961 . S
H879 C863 0.960 . S
C880 C881 1.391 . S
C880 C882 1.394 . S
C880 H896 0.931 . S
C881 C880 1.391 . S
C881 C885 1.376 1_455 S
C882 C880 1.394 . S
C882 C883 1.369 . S
C882 C886 1.531 . S
C883 C882 1.369 . S
C883 C884 1.410 1_455 S
C883 C891 1.503 . S
C884 C883 1.410 1_655 S
C884 C885 1.392 . S
C884 C887 1.511 . S
C885 C881 1.376 1_655 S
C885 C884 1.392 . S
C885 H897 0.929 . S
C886 C882 1.531 . S
C886 H898 0.960 . S
C886 H899 0.962 . S
C886 H900 0.960 . S
C887 C884 1.511 . S
C887 H901 0.961 . S
C887 H902 0.961 . S
C887 H903 0.961 . S
C888 C889 1.370 . S
C888 C890 1.363 . S
C888 H904 0.931 . S
C889 C888 1.370 . S
C889 C893 1.408 1_655 S
C890 C888 1.363 . S
C890 C891 1.370 1_655 S
C890 C894 1.524 . S
C891 C883 1.503 . S
C891 C890 1.370 1_455 S
C891 C892 1.403 . S
C892 C891 1.403 . S
C892 C893 1.404 . S
C892 C895 1.539 . S
C893 C889 1.408 1_455 S
C893 C892 1.404 . S
C893 H905 0.930 . S
C894 C890 1.524 . S
C894 H906 0.956 . S
C894 H907 0.961 . S
C894 H908 0.961 . S
C895 C892 1.539 . S
C895 H909 0.958 . S
C895 H910 0.961 . S
C895 H911 0.960 . S
H896 C880 0.931 . S
H897 C885 0.929 . S
H898 C886 0.960 . S
H899 C886 0.962 . S
H900 C886 0.960 . S
H901 C887 0.961 . S
H902 C887 0.961 . S
H903 C887 0.961 . S
H904 C888 0.931 . S
H905 C893 0.930 . S
H906 C894 0.956 . S
H907 C894 0.961 . S
H908 C894 0.961 . S
H909 C895 0.958 . S
H910 C895 0.961 . S
H911 C895 0.960 . S
C337 C24 2.936 . S
C345 C325 2.860 . S
C369 C66 1.161 . S
C377 C253 1.144 . S
C401 C93 1.839 . S
C409 C289 1.776 . S
C433 C13 3.072 . S
C441 C301 3.036 . S
C473 C229 1.292 . S
C465 C57 1.302 . S
C505 C265 1.941 . S
C497 C104 1.960 . S
C529 C64 1.945 . S
C537 C181 1.889 . S
C561 C97 0.570 . S
C569 C193 0.502 . S
C593 C17 1.291 . S
C601 C121 1.308 . S
C633 C157 1.806 . S
C625 C53 1.834 . S
C665 C217 0.297 . S
C657 C106 0.429 . S
C689 C26 1.120 . S
C697 C145 1.164 . S
C729 C223 1.059 1_554 S
C721 C2 1.037 . S
C753 C63 1.454 . S
C761 C151 1.490 . S
C785 C82 1.357 . S
C793 C187 1.386 . S
C825 C295 1.399 . S
C817 C42 1.370 . S
C857 C331 1.787 1_556 S
C849 C103 1.735 . S
C881 C23 1.447 . S
C889 C259 1.494 . S
