# Generated by pormake.
# Topology zzz, (3,6)-cn, num edge types: 1
# Building blocks:
#     Node 0, Type 0, BuildingBlock: PAMTOO_clean_linker_0, # of connection points: 3
#     Node 1, Type 0, BuildingBlock: PAMTOO_clean_linker_0, # of connection points: 3
#     Node 2, Type 0, BuildingBlock: PAMTOO_clean_linker_0, # of connection points: 3
#     Node 3, Type 0, BuildingBlock: PAMTOO_clean_linker_0, # of connection points: 3
#     Node 4, Type 0, BuildingBlock: PAMTOO_clean_linker_0, # of connection points: 3
#     Node 5, Type 0, BuildingBlock: PAMTOO_clean_linker_0, # of connection points: 3
#     Node 6, Type 0, BuildingBlock: PAMTOO_clean_linker_0, # of connection points: 3
#     Node 7, Type 0, BuildingBlock: PAMTOO_clean_linker_0, # of connection points: 3
#     Node 8, Type 1, BuildingBlock: KUMBUR_clean_sbu_1, # of connection points: 6
#     Node 9, Type 1, BuildingBlock: KUMBUR_clean_sbu_1, # of connection points: 6
#     Node 10, Type 1, BuildingBlock: KUMBUR_clean_sbu_1, # of connection points: 6
#     Node 11, Type 1, BuildingBlock: KUMBUR_clean_sbu_1, # of connection points: 6
#     Edge 12, Type (0, 1), BuildingBlock: EZIPEK_clean_linker_0, # of connection points: 2
#     Edge 13, Type (0, 1), BuildingBlock: EZIPEK_clean_linker_0, # of connection points: 2
#     Edge 14, Type (0, 1), BuildingBlock: EZIPEK_clean_linker_0, # of connection points: 2
#     Edge 15, Type (0, 1), BuildingBlock: EZIPEK_clean_linker_0, # of connection points: 2
#     Edge 16, Type (0, 1), BuildingBlock: EZIPEK_clean_linker_0, # of connection points: 2
#     Edge 17, Type (0, 1), BuildingBlock: EZIPEK_clean_linker_0, # of connection points: 2
#     Edge 18, Type (0, 1), BuildingBlock: EZIPEK_clean_linker_0, # of connection points: 2
#     Edge 19, Type (0, 1), BuildingBlock: EZIPEK_clean_linker_0, # of connection points: 2
#     Edge 20, Type (0, 1), BuildingBlock: EZIPEK_clean_linker_0, # of connection points: 2
#     Edge 21, Type (0, 1), BuildingBlock: EZIPEK_clean_linker_0, # of connection points: 2
#     Edge 22, Type (0, 1), BuildingBlock: EZIPEK_clean_linker_0, # of connection points: 2
#     Edge 23, Type (0, 1), BuildingBlock: EZIPEK_clean_linker_0, # of connection points: 2
#     Edge 24, Type (0, 1), BuildingBlock: EZIPEK_clean_linker_0, # of connection points: 2
#     Edge 25, Type (0, 1), BuildingBlock: EZIPEK_clean_linker_0, # of connection points: 2
#     Edge 26, Type (0, 1), BuildingBlock: EZIPEK_clean_linker_0, # of connection points: 2
#     Edge 27, Type (0, 1), BuildingBlock: EZIPEK_clean_linker_0, # of connection points: 2
#     Edge 28, Type (0, 1), BuildingBlock: EZIPEK_clean_linker_0, # of connection points: 2
#     Edge 29, Type (0, 1), BuildingBlock: EZIPEK_clean_linker_0, # of connection points: 2
#     Edge 30, Type (0, 1), BuildingBlock: EZIPEK_clean_linker_0, # of connection points: 2
#     Edge 31, Type (0, 1), BuildingBlock: EZIPEK_clean_linker_0, # of connection points: 2
#     Edge 32, Type (0, 1), BuildingBlock: EZIPEK_clean_linker_0, # of connection points: 2
#     Edge 33, Type (0, 1), BuildingBlock: EZIPEK_clean_linker_0, # of connection points: 2
#     Edge 34, Type (0, 1), BuildingBlock: EZIPEK_clean_linker_0, # of connection points: 2
#     Edge 35, Type (0, 1), BuildingBlock: EZIPEK_clean_linker_0, # of connection points: 2
# Relax obj value: 0.241
# Max RMSD: 0.126
# Mean RMSD: 0.083
data_MOF--net-zzz--node1-KUMBUR_clean_sbu_1--node2-PAMTOO_clean_linker_0--edge1-EZIPEK_clean_linker_0
_symmetry_space_group_name_H-M    P1
_symmetry_Int_Tables_number       1
_symmetry_cell_setting            triclinic
loop_
_symmetry_equiv_pos_as_xyz
'x, y, z'
_cell_length_a     36.35969
_cell_length_b     36.537092
_cell_length_c     11.689871
_cell_angle_alpha  89.845119
_cell_angle_beta   90.442578
_cell_angle_gamma 90.067869
loop_
_atom_site_label
_atom_site_type_symbol
_atom_site_fract_x
_atom_site_fract_y
_atom_site_fract_z
_atom_type_partial_charge
H0 H 0.88103 0.4955 0.31359 0.0
H1 H 0.77717 0.50814 0.14429 0.0
H2 H 0.79287 0.5539 0.4814 0.0
H3 H 0.69721 0.52893 0.36766 0.0
C4 C 0.71298 0.52424 0.28803 0.0
O5 O 0.7448 0.5465 0.29369 0.0
H6 H 0.72214 0.49522 0.2903 0.0
C7 C 0.85329 0.5064 0.31566 0.0
C8 C 0.84144 0.52576 0.41254 0.0
C9 C 0.82987 0.49928 0.22263 0.0
C10 C 0.79449 0.51347 0.2184 0.0
C11 C 0.78027 0.53325 0.30898 0.0
C12 C 0.80367 0.5391 0.40902 0.0
H13 H 0.94606 0.85878 0.38155 0.0
H14 H 0.9538 0.75444 0.22079 0.0
H15 H 0.04033 0.79053 0.44778 0.0
H16 H 0.05468 0.74099 0.17504 0.0
C17 C 0.0276 0.72749 0.18724 0.0
O18 O 1.01612 0.73474 0.30055 0.0
H19 H 1.00949 0.74212 0.12518 0.0
C20 C 0.96069 0.83337 0.36878 0.0
C21 C 0.99363 0.82836 0.43012 0.0
C22 C 0.94943 0.80912 0.28066 0.0
C23 C 0.96494 0.77429 0.27911 0.0
C24 C 0.99879 0.76718 0.33133 0.0
C25 C 1.01387 0.79495 0.40716 0.0
H26 H 0.67787 0.98083 0.36128 0.0
H27 H 0.77609 0.97933 0.16289 0.0
H28 H 0.76929 0.04841 0.46172 0.0
H29 H 0.82195 0.07237 0.2051 0.0
C30 C 0.8273 0.04282 0.19167 0.0
O31 O 0.81538 0.02346 0.2897 0.0
H32 H 0.80921 0.03582 0.11773 0.0
C33 C 0.70608 0.9894 0.34904 0.0
C34 C 0.72022 1.01537 0.42452 0.0
C35 C 0.72535 0.97786 0.25179 0.0
C36 C 0.76195 0.98861 0.23789 0.0
C37 C 0.77892 1.01402 0.31113 0.0
C38 C 0.75735 0.02824 0.40488 0.0
H39 H 0.62167 0.72509 0.36863 0.0
H40 H 0.60775 0.82758 0.19459 0.0
H41 H 0.52334 0.78801 0.42058 0.0
H42 H 0.49841 0.84783 0.1774 0.0
C43 C 0.52844 0.85234 0.16792 0.0
O44 O 0.54526 0.84476 0.27508 0.0
H45 H 0.53543 0.83088 0.10487 0.0
C46 C 0.60547 0.74932 0.35118 0.0
C47 C 0.5719 0.75257 0.40841 0.0
C48 C 0.61559 0.7733 0.26097 0.0
C49 C 0.59746 0.80692 0.25213 0.0
C50 C 0.56347 0.81255 0.30332 0.0
C51 C 0.54995 0.78463 0.38124 0.0
H52 H 0.22445 0.52899 0.20544 0.0
H53 H 0.33252 0.50646 0.33256 0.0
H54 H 0.31444 0.51966 0.96949 0.0
H55 H 0.37301 0.56545 0.194 0.0
C56 C 0.39027 0.54083 0.17848 0.0
O57 O 0.36661 0.51168 0.14847 0.0
H58 H 0.40684 0.54711 0.10155 0.0
C59 C 0.2527 0.52251 0.18718 0.0
C60 C 0.26411 0.5215 0.07275 0.0
C61 C 0.27743 0.51807 0.27896 0.0
C62 C 0.31403 0.51015 0.2601 0.0
C63 C 0.32866 0.51315 0.15211 0.0
C64 C 0.30359 0.51813 0.05522 0.0
H65 H 0.99404 0.21162 0.19169 0.0
H66 H 1.00673 0.31807 0.33835 0.0
H67 H 0.06695 0.29055 0.03406 0.0
H68 H 0.09129 0.33217 0.33289 0.0
C69 C 0.07944 0.35574 0.28549 0.0
O70 O 0.05418 0.34342 0.20176 0.0
H71 H 0.1037 0.3666 0.23915 0.0
C72 C 1.00739 0.23819 0.1891 0.0
C73 C 0.03104 0.24673 0.0984 0.0
C74 C 0.99868 0.2639 0.27304 0.0
C75 C 1.01451 0.29845 0.27342 0.0
C76 C 0.04059 0.3082 0.19325 0.0
C77 C 0.0486 0.28248 0.10207 0.0
H78 H 0.32247 0.99162 0.03531 0.0
H79 H 0.22106 0.99424 0.22027 0.0
H80 H 0.26647 0.09399 0.08316 0.0
H81 H 0.21497 0.0942 0.34702 0.0
C82 C 0.20182 0.06799 0.32217 0.0
O83 O 0.20818 0.06312 0.20388 0.0
H84 H 0.2174 0.04686 0.37116 0.0
C85 C 0.29905 1.00663 0.06711 0.0
C86 C 0.2984 0.04445 0.04722 0.0
C87 C 0.27238 0.98854 0.13385 0.0
C88 C 0.2418 1.00824 0.17158 0.0
C89 C 0.23902 0.04615 0.15803 0.0
C90 C 0.26789 0.06467 0.09524 0.0
H91 H 0.57239 0.36751 0.14545 0.0
H92 H 0.56159 0.26318 0.30459 0.0
H93 H 0.49274 0.28971 1.01283 0.0
H94 H 0.46128 0.23839 0.29185 0.0
C95 C 0.49015 0.22896 0.29514 0.0
O96 O 0.5065 0.23844 0.1888 0.0
H97 H 0.5022 0.24611 0.36433 0.0
C98 C 0.55858 0.34116 0.1475 0.0
C99 C 0.53269 0.33245 0.06211 0.0
C100 C 0.56894 0.316 0.23184 0.0
C101 C 0.55259 0.28173 0.23777 0.0
C102 C 0.52307 0.27223 0.16726 0.0
C103 C 0.51353 0.29753 0.07484 0.0
Tb104 Tb 0.97667 0.05388 0.65787 0.0
C105 C 0.12734 0.06391 0.92807 0.0
N106 N 0.11459 0.03743 0.85678 0.0
C107 C 0.17527 0.03054 0.77893 0.0
C108 C 0.16426 0.07573 0.92485 0.0
C109 C 0.13845 1.01965 0.78588 0.0
C110 C 0.18814 0.05906 0.84765 0.0
C111 C 0.11595 0.10419 0.08818 0.0
C112 C 0.10359 0.07813 1.00778 0.0
C113 C 0.1523 0.11704 0.08293 0.0
C114 C 0.17628 0.10316 1.0004 0.0
Tb115 Tb 0.05301 0.02333 0.86964 0.0
N116 N 0.06824 0.06616 1.00671 0.0
C117 C 0.09139 0.11654 0.17112 0.0
C118 C 0.04474 0.07675 0.09154 0.0
C119 C 0.0557 0.10246 0.17347 0.0
H120 H 0.12925 0.99662 0.73548 0.0
H121 H 0.03658 0.11148 0.238 0.0
H122 H 0.90977 1.01353 0.80339 0.0
H123 H 0.02975 0.02662 0.23435 0.0
H124 H 1.01701 0.06633 0.09189 0.0
H125 H 0.09978 0.13662 0.23419 0.0
H126 H 0.02648 0.06193 0.41011 0.0
H127 H 0.19377 1.01667 0.72138 0.0
H128 H 0.16224 0.1374 0.14292 0.0
H129 H 0.20435 0.11305 0.99795 0.0
H130 H 0.85981 0.96978 0.7661 0.0
H131 H 0.21675 0.06725 0.84285 0.0
H132 H 0.97749 0.98832 0.17409 0.0
N133 N 0.93347 1.00882 0.63948 0.0
C134 C 0.92835 0.99668 0.53096 0.0
C135 C 0.87924 0.9765 0.69954 0.0
C136 C 0.89865 0.97337 0.50316 0.0
C137 C 0.90845 1.0003 0.7222 0.0
C138 C 0.87432 0.96287 0.58932 0.0
N139 N 0.98064 0.03148 0.47571 0.0
C140 C 1.0059 0.04135 0.39497 0.0
C141 C 0.94971 0.99369 0.33619 0.0
C142 C 0.95316 1.00761 0.44769 0.0
C143 C 0.97759 1.00081 0.25796 0.0
C144 C 1.00653 0.02353 0.2897 0.0
H145 H 0.85121 0.945 0.57103 0.0
H146 H 0.87068 0.94466 0.36626 0.0
H147 H 0.91634 0.96187 0.22166 0.0
O148 O 0.9523 0.08988 0.53632 0.0
O149 O 0.98382 0.99321 0.68927 0.0
O150 O 0.04452 0.98318 0.72592 0.0
O151 O 0.92416 0.07366 0.68877 0.0
O152 O 0.03444 0.06816 0.60278 0.0
O153 O 0.06979 0.02387 0.68844 0.0
O154 O 0.03505 0.99017 1.00358 0.0
O155 O 0.04071 0.08344 0.87398 0.0
O156 O 1.00401 0.10405 0.72506 0.0
O157 O 0.09035 0.98531 0.94283 0.0
O158 O 0.99449 1.01493 0.92345 0.0
O159 O 0.9635 0.06193 0.84004 0.0
C160 C 1.01327 0.97226 0.67771 0.0
C161 C 0.90667 0.13003 0.61567 0.0
C162 C 0.90514 0.19511 0.57707 0.0
C163 C 0.87604 0.19957 0.65345 0.0
C164 C 0.87694 0.13442 0.69113 0.0
C165 C 0.86185 0.16905 0.71007 0.0
C166 C 0.92027 0.16049 0.5581 0.0
C167 C 0.06589 0.04937 0.60939 0.0
C168 C 0.92259 0.09353 0.59736 0.0
C169 C 0.89375 0.96188 0.3901 0.0
C170 C 0.9193 0.9721 0.30735 0.0
C171 C 0.02401 0.11037 0.8182 0.0
C172 C 0.06152 0.93132 1.01213 0.0
C173 C 1.02186 0.87808 0.03914 0.0
C174 C 0.05324 0.85634 0.05772 0.0
C175 C 0.09253 0.90921 0.03037 0.0
C176 C 0.02644 0.91513 1.0114 0.0
C177 C 0.08836 0.87176 0.05113 0.0
C178 C 0.96651 0.03807 0.92339 0.0
C179 C 0.06541 0.9715 1.00894 0.0
H180 H 0.86454 0.22642 0.66897 0.0
H181 H 0.86549 0.11109 0.7359 0.0
H182 H 0.83924 0.1722 0.76891 0.0
H183 H 0.94295 0.15757 0.49903 0.0
H184 H 0.05055 0.82773 0.08076 0.0
H185 H 0.11985 0.92109 0.03196 0.0
H186 H 1.00221 0.93191 0.9999 0.0
H187 H 0.11236 0.85491 0.06667 0.0
Tb188 Tb 0.53452 0.08001 0.86287 0.0
C189 C 0.52402 0.92914 0.70917 0.0
N190 N 0.53642 0.96024 0.65702 0.0
C191 C 0.58844 0.92669 0.58554 0.0
C192 C 0.54441 0.89623 0.70574 0.0
C193 C 0.56705 0.95839 0.58961 0.0
C194 C 0.57737 0.8956 0.64516 0.0
C195 C 0.47656 0.89809 0.81849 0.0
C196 C 0.49016 0.92972 0.7635 0.0
C197 C 0.49743 0.86582 0.81824 0.0
C198 C 0.53111 0.86482 0.76125 0.0
Tb199 Tb 0.49621 1.00905 0.66206 0.0
N200 N 0.47064 0.96148 0.76328 0.0
C201 C 0.44206 0.89964 0.87055 0.0
C202 C 0.43599 0.96244 0.80917 0.0
C203 C 0.42152 0.93182 0.86424 0.0
H204 H 0.57486 0.9806 0.53476 0.0
H205 H 0.39428 0.93309 0.90013 0.0
H206 H 0.45888 0.13032 0.80409 0.0
H207 H 0.67898 0.11719 0.88 0.0
H208 H 0.41955 0.98691 0.80337 0.0
H209 H 0.43069 0.87591 0.91346 0.0
H210 H 0.62641 0.07568 0.89794 0.0
H211 H 0.61299 0.92601 0.53375 0.0
H212 H 0.48754 0.84133 0.86053 0.0
H213 H 0.54658 0.8395 0.76001 0.0
H214 H 0.44443 0.19421 0.76038 0.0
H215 H 0.59381 0.87093 0.64078 0.0
H216 H 0.6692 0.1821 0.8282 0.0
N217 N 0.51679 0.13868 0.81594 0.0
C218 C 0.54458 0.16362 0.80839 0.0
C219 C 0.47272 0.18602 0.77423 0.0
C220 C 0.53742 0.20061 0.78113 0.0
C221 C 0.48106 0.14964 0.80094 0.0
C222 C 0.50098 0.21162 0.76412 0.0
N223 N 0.58627 0.11604 0.85347 0.0
C224 C 0.6213 0.10369 0.87388 0.0
C225 C 0.61 0.17664 0.81611 0.0
C226 C 0.58043 0.15178 0.82569 0.0
C227 C 0.64578 0.16388 0.83509 0.0
C228 C 0.65141 0.12728 0.86434 0.0
H229 H 0.49438 0.23975 0.7429 0.0
H230 H 0.5618 0.2539 0.75043 0.0
H231 H 0.62534 0.2329 0.78082 0.0
O232 O 0.508 0.07192 0.01993 0.0
O233 O 0.52595 0.10211 0.68441 0.0
O234 O 0.48649 0.06404 0.58391 0.0
O235 O 0.55688 0.10518 1.00895 0.0
O236 O 0.5786 0.04504 0.79658 0.0
O237 O 0.5533 0.03265 0.62301 0.0
O238 O 0.44917 0.98614 0.58915 0.0
O239 O 0.49753 0.9991 0.84884 0.0
O240 O 0.55208 1.02182 0.89518 0.0
O241 O 0.49845 0.98976 0.4919 0.0
O242 O 0.45017 0.04357 0.72388 0.0
O243 O 0.47399 0.06953 0.8863 0.0
C244 C 0.50382 0.09576 0.59568 0.0
C245 C 0.55384 0.06254 0.15618 0.0
C246 C 0.60256 1.01834 0.19438 0.0
C247 C 0.59013 1.01525 0.30721 0.0
C248 C 0.54066 0.05787 0.26633 0.0
C249 C 0.55861 0.03399 0.34092 0.0
C250 C 0.58392 0.04179 0.11953 0.0
C251 C 0.58328 0.03802 0.68788 0.0
C252 C 0.53518 0.08693 0.07593 0.0
C253 C 0.56678 0.2254 0.77135 0.0
C254 C 0.60297 0.21343 0.78856 0.0
C255 C 0.52776 0.99546 0.90825 0.0
C256 C 0.44106 0.98845 0.3952 0.0
C257 C 0.38584 0.97418 0.28838 0.0
C258 C 0.39185 1.00512 0.21945 0.0
C259 C 0.44627 1.02006 0.32962 0.0
C260 C 0.41113 0.96535 0.37378 0.0
C261 C 0.42205 0.02794 0.24012 0.0
C262 C 0.44496 0.06023 0.82308 0.0
C263 C 0.4643 0.97958 0.49234 0.0
H264 H 0.6045 0.99795 0.36803 0.0
H265 H 0.51699 0.07316 0.29477 0.0
H266 H 0.54822 0.0306 0.42524 0.0
H267 H 0.59387 0.04473 0.03355 0.0
H268 H 0.3728 1.01193 0.15158 0.0
H269 H 0.4686 0.03857 0.34847 0.0
H270 H 0.40655 0.94142 0.42705 0.0
H271 H 0.42663 0.05187 0.18785 0.0
Tb272 Tb 0.59009 0.52564 0.63257 0.0
C273 C 0.43901 0.51677 0.88141 0.0
N274 N 0.45287 0.54532 0.82124 0.0
C275 C 0.3933 0.55578 0.7364 0.0
C276 C 0.40222 0.50531 0.86727 0.0
C277 C 0.42997 0.56612 0.7541 0.0
C278 C 0.37955 0.52475 0.79141 0.0
C279 C 0.44757 0.47256 0.03376 0.0
C280 C 0.46125 0.50052 0.96256 0.0
C281 C 0.41162 0.45952 0.01595 0.0
C282 C 0.38908 0.47563 0.9319 0.0
Tb283 Tb 0.51493 0.55635 0.84276 0.0
N284 N 0.49633 0.51274 0.97297 0.0
C285 C 0.47046 0.4587 0.12039 0.0
C286 C 0.51777 0.50122 0.06293 0.0
C287 C 0.50546 0.47367 0.13663 0.0
H288 H 0.44002 0.59077 0.71402 0.0
H289 H 0.5232 0.46359 0.20446 0.0
H290 H 0.65722 0.5627 0.78707 0.0
H291 H 0.5428 0.55326 0.19987 0.0
H292 H 0.54542 0.51139 0.07099 0.0
H293 H 0.46122 0.43687 0.17611 0.0
H294 H 0.54443 0.51741 0.37615 0.0
H295 H 0.37564 0.57188 0.68088 0.0
H296 H 0.40068 0.43765 0.06845 0.0
H297 H 0.36109 0.46597 0.92104 0.0
H298 H 0.7079 0.60625 0.75861 0.0
H299 H 0.35111 0.51685 0.77796 0.0
H300 H 0.59423 0.59389 0.15145 0.0
N301 N 0.6342 0.57002 0.62155 0.0
C302 C 0.64012 0.58324 0.51462 0.0
C303 C 0.68865 0.60067 0.68972 0.0
C304 C 0.67013 0.60661 0.49209 0.0
C305 C 0.65906 0.57695 0.70723 0.0
C306 C 0.69413 0.61575 0.5816 0.0
N307 N 0.58851 0.54876 0.4503 0.0
C308 C 0.56459 0.53867 0.3649 0.0
C309 C 0.62034 0.58794 0.31742 0.0
C310 C 0.61598 0.57312 0.42757 0.0
C311 C 0.59348 0.58083 0.23462 0.0
C312 C 0.56493 0.55695 0.26004 0.0
H313 H 0.7175 0.63358 0.56738 0.0
H314 H 0.69921 0.63648 0.36083 0.0
H315 H 0.65509 0.6203 0.2085 0.0
O316 O 0.61472 0.49046 0.5109 0.0
O317 O 0.58431 0.58625 0.66631 0.0
O318 O 0.52404 0.59743 0.70281 0.0
O319 O 0.64147 0.50358 0.66985 0.0
O320 O 0.5321 0.51535 0.56756 0.0
O321 O 0.49746 0.55831 0.6605 0.0
O322 O 0.53613 0.58913 0.97349 0.0
O323 O 0.52725 0.49609 0.84663 0.0
O324 O 0.55917 0.47608 0.68882 0.0
O325 O 0.47928 0.59356 0.92517 0.0
O326 O 0.57352 0.56231 0.90187 0.0
O327 O 0.60306 0.51534 0.81536 0.0
C328 C 0.55528 0.60786 0.65526 0.0
C329 C 0.66089 0.44944 0.58639 0.0
C330 C 0.66495 0.38559 0.53364 0.0
C331 C 0.69602 0.38111 0.60368 0.0
C332 C 0.69238 0.44501 0.65607 0.0
C333 C 0.7097 0.41096 0.66494 0.0
C334 C 0.64745 0.41959 0.52522 0.0
C335 C 0.50169 0.53575 0.57355 0.0
C336 C 0.64393 0.48576 0.57493 0.0
C337 C 0.67581 0.61928 0.38062 0.0
C338 C 0.65093 0.6099 0.29387 0.0
C339 C 0.54096 0.4692 0.78434 0.0
C340 C 0.5095 0.64775 0.98935 0.0
C341 C 0.54856 0.70151 0.01842 0.0
C342 C 0.51686 0.72292 0.03335 0.0
C343 C 0.47823 0.66962 1.00443 0.0
C344 C 0.5445 0.66428 0.99173 0.0
C345 C 0.48195 0.70713 0.02437 0.0
C346 C 0.60042 0.53802 0.90184 0.0
C347 C 0.50586 0.60748 0.98579 0.0
H348 H 0.70945 0.35474 0.61071 0.0
H349 H 0.7037 0.46795 0.70323 0.0
H350 H 0.7338 0.40779 0.71896 0.0
H351 H 0.62343 0.42262 0.47037 0.0
H352 H 0.51913 0.75162 0.05548 0.0
H353 H 0.451 0.65753 1.00395 0.0
H354 H 0.56899 0.64774 0.98249 0.0
H355 H 0.45773 0.72376 0.03725 0.0
Tb356 Tb 0.05947 0.57389 0.64515 0.0
C357 C 0.10354 0.50617 0.07244 0.0
N358 N 0.09294 0.484 0.98532 0.0
C359 C 0.14308 0.44324 0.03218 0.0
C360 C 0.1357 0.49928 0.13734 0.0
C361 C 0.11142 0.45167 0.96857 0.0
C362 C 0.15579 0.46758 0.11522 0.0
C363 C 0.08865 0.55634 0.19759 0.0
C364 C 0.07964 0.53314 0.10545 0.0
C365 C 0.12294 0.55294 0.2518 0.0
C366 C 0.14565 0.52335 0.22573 0.0
Tb367 Tb 0.04068 0.50245 0.88462 0.0
N368 N 0.04577 0.53354 0.0566 0.0
C369 C 0.06174 0.57988 0.23888 0.0
C370 C 1.01766 0.55057 0.11329 0.0
C371 C 0.02587 0.57624 0.19833 0.0
H372 H 0.10252 0.43255 0.90456 0.0
H373 H 1.00497 0.59449 0.22842 0.0
H374 H 0.05957 0.6574 0.76899 0.0
H375 H 0.96262 0.5141 0.3385 0.0
H376 H 0.98964 0.54824 0.08222 0.0
H377 H 0.06771 0.59926 0.30644 0.0
H378 H 1.01368 0.51329 0.474 0.0
H379 H 0.15788 0.41812 0.01612 0.0
H380 H 0.13055 0.57105 0.32045 0.0
H381 H 0.16969 0.51835 0.27832 0.0
H382 H 0.02562 0.71479 0.75036 0.0
H383 H 0.18048 0.46117 0.16374 0.0
H384 H 0.92891 0.57152 0.30085 0.0
N385 N 0.02885 0.62924 0.64017 0.0
C386 C 1.00224 0.63254 0.55772 0.0
C387 C 1.01851 0.69177 0.69637 0.0
C388 C 0.98254 0.66556 0.54297 0.0
C389 C 0.03723 0.6586 0.70855 0.0
C390 C 0.99113 0.69533 0.61315 0.0
N391 N 1.01254 0.57038 0.50951 0.0
C392 C 1.00169 0.53916 0.45379 0.0
C393 C 0.96369 0.60379 0.41324 0.0
C394 C 0.9939 0.60234 0.49 0.0
C395 C 0.95239 0.57164 0.35854 0.0
C396 C 0.9715 0.53925 0.37897 0.0
H397 H 0.97673 0.72114 0.60392 0.0
H398 H 0.9394 0.69301 0.4469 0.0
H399 H 0.92224 0.63863 0.33558 0.0
O400 O 0.10271 0.5684 0.52752 0.0
O401 O 0.99955 0.56257 0.67736 0.0
O402 O 0.99089 0.50809 0.77311 0.0
O403 O 0.0794 0.62075 0.56005 0.0
O404 O 0.0719 0.51659 0.58862 0.0
O405 O 0.04108 0.47735 0.70968 0.0
O406 O 1.00028 0.4809 0.99434 0.0
O407 O 0.09803 0.50532 0.81904 0.0
O408 O 0.1046 0.56573 0.77893 0.0
O409 O 0.03625 0.44551 0.90486 0.0
O410 O 1.02227 0.56204 0.89949 0.0
O411 O 0.06777 0.59413 0.81842 0.0
C412 C 0.97848 0.53417 0.70402 0.0
C413 C 0.14336 0.6166 0.56927 0.0
C414 C 0.2046 0.59363 0.60614 0.0
C415 C 0.20454 0.60978 0.71481 0.0
C416 C 0.14483 0.63582 0.67353 0.0
C417 C 0.17559 0.6327 0.74538 0.0
C418 C 0.17504 0.59964 0.5308 0.0
C419 C 0.059 0.4834 0.61254 0.0
C420 C 0.10784 0.60371 0.52307 0.0
C421 C 0.95452 0.66778 0.46003 0.0
C422 C 0.9449 0.63688 0.39611 0.0
C423 C 0.11943 0.53449 0.81647 0.0
C424 C 0.97528 0.42551 0.92463 0.0
C425 C 0.9094 0.41528 0.92726 0.0
C426 C 0.91228 0.38975 0.83872 0.0
C427 C 0.97833 0.39954 0.83622 0.0
C428 C 0.94086 0.4323 0.9712 0.0
C429 C 0.94692 0.38165 0.79412 0.0
C430 C 0.04259 0.59258 0.89686 0.0
C431 C 1.0069 0.44731 0.96547 0.0
H432 H 0.22619 0.60415 0.77636 0.0
H433 H 0.1212 0.6507 0.70379 0.0
H434 H 0.17573 0.64581 0.8283 0.0
H435 H 0.17453 0.58584 0.44896 0.0
H436 H 0.88795 0.37665 0.80378 0.0
H437 H 1.00471 0.39344 0.79854 0.0
H438 H 0.93813 0.45216 0.03956 0.0
H439 H 0.94939 0.36202 0.72546 0.0
C440 C 0.14461 0.096 0.42686 0.0
C441 C 0.1606 0.06611 0.36689 0.0
C442 C 0.11602 0.02555 0.46539 0.0
C443 C 0.09786 0.05551 0.52202 0.0
N444 N 0.09371 0.12144 0.53652 0.0
N445 N 0.14805 1.00618 0.29446 0.0
C446 C 0.11147 0.09146 0.49489 0.0
C447 C 0.142 0.03218 0.3753 0.0
N448 N 0.16285 0.12849 0.42147 0.0
N449 N 0.11043 0.99022 0.4988 0.0
H450 H 0.16313 1.012 0.22133 0.0
H451 H 0.13328 0.98171 0.2908 0.0
H452 H 0.09351 0.98238 0.56522 0.0
H453 H 0.12596 0.96855 0.46723 0.0
H454 H 0.15608 0.15174 0.46824 0.0
H455 H 0.15608 0.15174 0.46824 0.0
H456 H 0.09827 0.1479 0.50661 0.0
H457 H 0.07276 0.11995 0.59639 0.0
C458 C 0.46144 0.16985 0.38652 0.0
C459 C 0.49329 0.18794 0.34143 0.0
C460 C 0.53007 0.13889 0.43852 0.0
C461 C 0.49935 0.12616 0.50267 0.0
N462 N 0.43468 0.13275 0.53849 0.0
N463 N 0.55917 0.18581 0.32285 0.0
C464 C 0.4647 0.14243 0.47597 0.0
C465 C 0.52789 0.17125 0.36732 0.0
N466 N 0.42781 0.17731 0.33946 0.0
N467 N 0.56092 0.11802 0.43751 0.0
H468 H 0.55874 0.20433 0.25536 0.0
H469 H 0.58541 0.17918 0.35285 0.0
H470 H 0.56184 0.09304 0.4802 0.0
H471 H 0.5829 0.12261 0.38265 0.0
H472 H 0.404 0.16309 0.36122 0.0
H473 H 0.42467 0.19374 0.267 0.0
H474 H 0.40959 0.1464 0.53268 0.0
H475 H 0.43588 0.1132 0.60345 0.0
C476 C 0.42787 0.50375 0.33899 0.0
C477 C 0.41816 0.53707 0.28345 0.0
C478 C 0.45679 0.56917 0.42889 0.0
C479 C 0.47177 0.53574 0.47527 0.0
N480 N 0.46993 0.4697 0.46523 0.0
N481 N 0.43512 0.60063 0.25959 0.0
C482 C 0.45694 0.50253 0.42664 0.0
C483 C 0.43627 0.56923 0.32356 0.0
N484 N 0.40798 0.47372 0.30906 0.0
N485 N 0.46034 0.6017 0.4849 0.0
H486 H 0.42154 0.6029 0.1811 0.0
H487 H 0.45128 0.62344 0.27895 0.0
H488 H 0.47572 0.60588 0.55819 0.0
H489 H 0.44546 0.62493 0.46096 0.0
H490 H 0.4103 0.44819 0.34839 0.0
H491 H 0.4103 0.44819 0.34839 0.0
H492 H 0.46471 0.44497 0.42419 0.0
H493 H 0.48749 0.46732 0.53565 0.0
C494 C 0.06455 0.38263 0.48972 0.0
C495 C 0.06607 0.38717 0.36857 0.0
C496 C 0.06388 0.45464 0.40183 0.0
C497 C 0.06364 0.4507 0.52525 0.0
N498 N 0.07203 0.407 0.67915 0.0
N499 N 0.06009 0.4273 0.21156 0.0
C500 C 0.06581 0.41355 0.56598 0.0
C501 C 0.06312 0.42328 0.32685 0.0
N502 N 0.06182 0.3487 0.53718 0.0
N503 N 0.06719 0.48759 0.34942 0.0
H504 H 0.05617 0.4525 0.17107 0.0
H505 H 0.05617 0.4525 0.17107 0.0
H506 H 0.07161 0.51237 0.39076 0.0
H507 H 0.07161 0.51237 0.39076 0.0
H508 H 0.05838 0.32472 0.49024 0.0
H509 H 0.05838 0.32472 0.49024 0.0
H510 H 0.07316 0.38072 0.71425 0.0
H511 H 0.08035 0.42762 0.73427 0.0
C512 C 0.87833 1.00529 0.08538 0.0
C513 C 0.86833 0.03652 0.1512 0.0
C514 C 0.92542 0.06695 0.08057 0.0
C515 C 0.93513 0.03591 1.0127 0.0
N516 N 0.92501 0.97138 0.98261 0.0
N517 N 0.89131 0.09068 0.24331 0.0
C518 C 0.91293 1.00383 0.02564 0.0
C519 C 0.89472 0.06535 0.15847 0.0
N520 N 0.85489 0.97626 0.08093 0.0
N521 N 0.94531 0.09847 0.07057 0.0
H522 H 0.87092 0.08875 0.30541 0.0
H523 H 0.91115 0.11052 0.26086 0.0
H524 H 0.96875 0.10042 0.02038 0.0
H525 H 0.93724 0.12322 0.10651 0.0
H526 H 0.85674 0.95533 0.02092 0.0
H527 H 0.83377 0.97326 0.13929 0.0
H528 H 0.9128 0.94621 1.00015 0.0
H529 H 0.94912 0.96921 0.93663 0.0
C530 C 0.50979 0.92086 0.14488 0.0
C531 C 0.53454 0.89221 0.11629 0.0
C532 C 0.56097 0.93515 0.96998 0.0
C533 C 0.53278 0.96165 0.98819 0.0
N534 N 0.47715 0.97608 0.08836 0.0
N535 N 0.58344 0.87285 0.99166 0.0
C536 C 0.50647 0.95337 0.07458 0.0
C537 C 0.56038 0.89987 0.02713 0.0
N538 N 0.48973 0.91756 0.24235 0.0
N539 N 0.58786 0.94299 0.89353 0.0
H540 H 0.58515 0.84754 0.03136 0.0
H541 H 0.59939 0.8745 0.9183 0.0
H542 H 0.58525 0.9645 0.83603 0.0
H543 H 0.61253 0.92867 0.8883 0.0
H544 H 0.47357 0.93853 0.27343 0.0
H545 H 0.49241 0.89554 0.29874 0.0
H546 H 0.45365 0.96785 0.13167 0.0
H547 H 0.47507 1.00166 0.04918 0.0
C548 C 0.65658 0.50161 0.16603 0.0
C549 C 0.68504 0.52844 0.18329 0.0
C550 C 0.65486 0.56446 0.02569 0.0
C551 C 0.62914 0.53562 1.00095 0.0
N552 N 0.60871 0.47465 0.04961 0.0
N553 N 0.71406 0.58205 0.11357 0.0
C554 C 0.63155 0.50359 0.07062 0.0
C555 C 0.6849 0.55883 0.10708 0.0
N556 N 0.65177 0.47329 0.24053 0.0
N557 N 0.64959 0.59796 0.97626 0.0
H558 H 0.71845 0.60386 0.05761 0.0
H559 H 0.71845 0.60386 0.05761 0.0
H560 H 0.62794 0.60326 0.91976 0.0
H561 H 0.66441 0.62127 0.99886 0.0
H562 H 0.66688 0.46929 0.31566 0.0
H563 H 0.66688 0.46929 0.31566 0.0
H564 H 0.60951 0.45049 0.09748 0.0
H565 H 0.58943 0.47451 0.98348 0.0
C566 C 0.06392 0.67143 0.11843 0.0
C567 C 0.0293 0.68634 0.14517 0.0
C568 C 1.0017 0.63683 0.02225 0.0
C569 C 0.03727 0.62598 0.9803 0.0
N570 N 0.10097 0.64785 0.96835 0.0
N571 N 0.96405 0.67951 0.1323 0.0
C572 C 0.06802 0.64722 0.02305 0.0
C573 C 0.99788 0.66763 0.10017 0.0
N574 N 0.09367 0.68077 0.18389 0.0
N575 N 0.97116 0.61806 0.98749 0.0
H576 H 0.96101 0.69655 0.20263 0.0
H577 H 0.93951 0.67223 0.09202 0.0
H578 H 0.97142 0.59888 0.92234 0.0
H579 H 0.94552 0.62054 0.02553 0.0
H580 H 0.11927 0.66829 0.17463 0.0
H581 H 0.09122 0.69736 0.25607 0.0
H582 H 0.12217 0.66567 0.99168 0.0
H583 H 0.10634 0.63491 0.89201 0.0
C584 C 0.98354 0.24788 0.47451 0.0
C585 C 0.97157 0.25491 0.36095 0.0
C586 C 0.90935 0.23514 0.40633 0.0
C587 C 0.92201 0.22613 0.51743 0.0
N588 N 0.96564 0.23485 0.66949 0.0
N589 N 0.92186 0.26647 0.22779 0.0
C590 C 0.95726 0.23688 0.55579 0.0
C591 C 0.93389 0.25243 0.32989 0.0
N592 N 1.02012 0.24912 0.50243 0.0
N593 N 0.87481 0.22498 0.37231 0.0
H594 H 0.9394 0.27956 0.17045 0.0
H595 H 0.8942 0.2681 0.20458 0.0
H596 H 0.85588 0.21355 0.4288 0.0
H597 H 0.86549 0.22654 0.28799 0.0
H598 H 0.03065 0.2405 0.58106 0.0
H599 H 0.0405 0.25621 0.44412 0.0
H600 H 0.99002 0.24475 0.70519 0.0
H601 H 0.94612 0.2264 0.72877 0.0
C602 C 0.2854 0.95497 0.30768 0.0
C603 C 0.28126 0.95232 0.18823 0.0
C604 C 0.34459 0.9326 0.1773 0.0
C605 C 0.35117 0.95356 0.27712 0.0
N606 N 0.32664 0.9777 0.4542 0.0
N607 N 0.30126 0.91566 0.03025 0.0
C608 C 0.32125 0.96161 0.35032 0.0
C609 C 0.30829 0.93117 0.13333 0.0
N610 N 0.25549 0.95319 0.37653 0.0
N611 N 0.37283 0.91622 0.12173 0.0
H612 H 0.27512 0.91647 0.99254 0.0
H613 H 0.27512 0.91647 0.99254 0.0
H614 H 0.39984 0.91757 0.1526 0.0
H615 H 0.36835 0.90001 0.04954 0.0
H616 H 0.25748 0.9539 0.46553 0.0
H617 H 0.22946 0.94736 0.34277 0.0
H618 H 0.30495 0.98713 0.50394 0.0
H619 H 0.35272 0.98273 0.48824 0.0
C620 C 0.58852 0.32911 0.43346 0.0
C621 C 0.59764 0.3257 0.31607 0.0
C622 C 0.65874 0.35084 0.35266 0.0
C623 C 0.64894 0.3552 0.46853 0.0
N624 N 0.61154 0.33707 0.62672 0.0
N625 N 0.64459 0.32177 0.17168 0.0
C626 C 0.61627 0.33983 0.51143 0.0
C627 C 0.63396 0.33267 0.27811 0.0
N628 N 0.55302 0.32497 0.46917 0.0
N629 N 0.6906 0.36592 0.31311 0.0
H630 H 0.62713 0.30743 0.11651 0.0
H631 H 0.67155 0.32373 0.14283 0.0
H632 H 0.70991 0.37811 0.3675 0.0
H633 H 0.69702 0.36773 0.22659 0.0
H634 H 0.54458 0.33084 0.55207 0.0
H635 H 0.53121 0.31889 0.41406 0.0
H636 H 0.58935 0.32361 0.66398 0.0
H637 H 0.63223 0.34491 0.68392 0.0
C638 C 0.23775 0.51179 0.45045 0.0
C639 C 0.26678 0.5296 0.39444 0.0
C640 C 0.26694 0.57834 0.53686 0.0
C641 C 0.23191 0.56602 0.57143 0.0
N642 N 0.18466 0.5195 0.56973 0.0
N643 N 0.311 0.57764 0.38148 0.0
C644 C 0.21834 0.53132 0.53454 0.0
C645 C 0.28283 0.56179 0.43993 0.0
N646 N 0.22824 0.47695 0.4202 0.0
N647 N 0.28388 0.60662 0.59232 0.0
H648 H 0.32274 0.60294 0.40095 0.0
H649 H 0.32274 0.60294 0.40095 0.0
H650 H 0.27217 0.62019 0.66099 0.0
H651 H 0.3111 0.61414 0.57833 0.0
H652 H 0.2089 0.46138 0.46412 0.0
H653 H 0.24231 0.46257 0.35709 0.0
H654 H 0.17063 0.49758 0.53292 0.0
H655 H 0.16979 0.53341 0.63172 0.0
C656 C 0.92781 0.86117 0.16959 0.0
C657 C 0.93089 0.82329 0.17278 0.0
C658 C 0.9736 0.82848 1.01404 0.0
C659 C 0.98446 0.86292 0.06115 0.0
N660 N 0.97123 0.90874 0.20651 0.0
N661 N 0.92974 0.77755 0.02681 0.0
C662 C 0.96027 0.88013 0.14032 0.0
C663 C 0.94443 0.80905 0.06886 0.0
N664 N 0.89845 0.87765 0.21791 0.0
N665 N 0.99157 0.81445 0.92214 0.0
H666 H 0.90841 0.76435 0.07004 0.0
H667 H 0.9373 0.76594 0.94926 0.0
H668 H 1.01136 0.82954 0.87812 0.0
H669 H 0.98675 0.78834 0.88991 0.0
H670 H 0.89527 0.90586 0.21525 0.0
H671 H 0.87664 0.86222 0.25031 0.0
H672 H 0.95709 0.91484 0.28103 0.0
H673 H 0.99676 0.92142 0.20103 0.0
C674 C 0.67357 0.94243 0.17549 0.0
C675 C 0.70372 0.96512 0.15058 0.0
C676 C 0.66505 1.01528 0.09964 0.0
C677 C 0.63512 0.9973 0.15518 0.0
N678 N 0.60778 0.93947 0.21203 0.0
N679 N 0.72224 1.00512 0.9993 0.0
C680 C 0.63798 0.95889 0.1792 0.0
C681 C 0.69656 0.99435 0.07627 0.0
N682 N 0.68035 0.90742 0.20951 0.0
N683 N 0.6662 0.05232 0.08468 0.0
H684 H 0.74622 0.98992 0.98748 0.0
H685 H 0.71759 0.0266 0.94198 0.0
H686 H 0.64665 0.07014 0.1175 0.0
H687 H 0.6892 0.06559 0.05145 0.0
H688 H 0.66018 0.88881 0.23385 0.0
H689 H 0.70724 0.89732 0.21051 0.0
H690 H 0.6083 0.91193 0.23462 0.0
H691 H 0.58156 0.95095 0.21226 0.0
C692 C 0.62478 0.77193 0.05148 0.0
C693 C 0.6369 0.75917 0.15932 0.0
C694 C 0.60947 0.70126 0.12716 0.0
C695 C 0.58562 0.71739 0.04327 0.0
N696 N 0.5786 0.76529 0.90072 0.0
N697 N 0.67029 0.70602 0.21427 0.0
C698 C 0.59626 0.75178 0.99493 0.0
C699 C 0.64108 0.72133 0.15985 0.0
N700 N 0.6408 0.80217 1.00578 0.0
N701 N 0.59866 0.67265 0.19354 0.0
H702 H 0.69132 0.72228 0.24842 0.0
H703 H 0.67404 0.67787 0.21603 0.0
H704 H 0.57362 0.65916 0.18463 0.0
H705 H 0.61225 0.66717 0.27032 0.0
H706 H 0.63524 0.81155 0.92323 0.0
H707 H 0.66125 0.81625 0.05113 0.0
H708 H 0.5833 0.79147 0.86855 0.0
H709 H 0.55908 0.74992 0.85579 0.0
C710 C 0.84908 0.48754 0.01999 0.0
C711 C 0.84167 0.47425 0.13137 0.0
C712 C 0.86316 0.41321 0.08 0.0
C713 C 0.87402 0.42762 0.97328 0.0
N714 N 0.86623 0.47241 0.82551 0.0
N715 N 0.83094 0.42477 0.25913 0.0
C716 C 0.86237 0.4627 0.93743 0.0
C717 C 0.84506 0.43667 0.158 0.0
N718 N 0.84596 0.52404 0.99591 0.0
N719 N 0.87293 0.37825 0.1084 0.0
H720 H 0.8303 0.39753 0.2857 0.0
H721 H 0.8303 0.39753 0.2857 0.0
H722 H 0.885 0.36074 0.04906 0.0
H723 H 0.87015 0.36694 0.18962 0.0
H724 H 0.85452 0.53583 0.91944 0.0
H725 H 0.83706 0.54316 0.05565 0.0
H726 H 0.85628 0.49675 0.79066 0.0
H727 H 0.87658 0.45398 0.76596 0.0
C728 C 0.99823 0.20629 0.94991 0.0
C729 C 0.03222 0.21781 1.00093 0.0
C730 C 0.06168 0.16478 0.90251 0.0
C731 C 0.02685 0.14967 0.86915 0.0
N732 N 0.96081 0.15746 0.86794 0.0
N733 N 0.09644 0.20517 0.0298 0.0
C734 C 0.99486 0.17114 0.89365 0.0
C735 C 0.06402 0.19642 0.97709 0.0
N736 N 0.96874 0.22939 0.95658 0.0
N737 N 0.09287 0.14975 0.8588 0.0
H738 H 0.09929 0.22796 0.0826 0.0
H739 H 0.11973 0.18867 0.02679 0.0
H740 H 0.09219 0.12771 0.80229 0.0
H741 H 0.11889 0.16123 0.86959 0.0
H742 H 0.94282 0.22405 0.92253 0.0
H743 H 0.97106 0.25584 0.98937 0.0
H744 H 0.9363 0.16913 0.89485 0.0
H745 H 0.95659 0.1326 0.82713 0.0
C746 C 0.36159 0.07788 0.03543 0.0
C747 C 0.33181 0.05971 0.97918 0.0
C748 C 0.37268 0.05387 0.8078 0.0
C749 C 0.40462 0.0659 0.87053 0.0
N750 N 0.42205 0.10629 0.0266 0.0
N751 N 0.30994 0.03018 0.80828 0.0
C752 C 0.39695 0.08277 0.97956 0.0
C753 C 0.3378 0.04798 0.8642 0.0
N754 N 0.35677 0.08891 0.14594 0.0
N755 N 0.37419 0.05165 0.69128 0.0
H756 H 0.28337 0.02841 0.84102 0.0
H757 H 0.31366 1.01557 0.73286 0.0
H758 H 0.39603 0.06195 0.64421 0.0
H759 H 0.35157 0.04562 0.63952 0.0
H760 H 0.3779 0.09795 0.19935 0.0
H761 H 0.33158 0.08697 0.18744 0.0
H762 H 0.41719 0.12197 0.09903 0.0
H763 H 0.44584 0.11457 0.98587 0.0
C764 C 0.56466 0.37132 0.90841 0.0
C765 C 0.53091 0.3607 0.96161 0.0
C766 C 0.50227 0.41439 0.86174 0.0
C767 C 0.53732 0.42929 0.83124 0.0
N768 N 0.60298 0.41954 0.82782 0.0
N769 N 0.46677 0.37382 0.98594 0.0
C770 C 0.56874 0.40674 0.85391 0.0
C771 C 0.4994 0.38254 0.93607 0.0
N772 N 0.59316 0.34699 0.91073 0.0
N773 N 0.47148 0.42968 0.81473 0.0
H774 H 0.46372 0.3511 0.03914 0.0
H775 H 0.44336 0.39002 0.97905 0.0
H776 H 0.47276 0.4519 0.75857 0.0
H777 H 0.44539 0.41818 0.82225 0.0
H778 H 0.61861 0.35162 0.8736 0.0
H779 H 0.59006 0.32039 0.94208 0.0
H780 H 0.62727 0.40697 0.85413 0.0
H781 H 0.60747 0.44442 0.78701 0.0
C782 C 0.21801 0.49741 0.91603 0.0
C783 C 0.23285 0.52704 0.98148 0.0
C784 C 0.17345 0.55975 0.94483 0.0
C785 C 0.15952 0.53217 0.8695 0.0
N786 N 0.17319 0.4748 0.77621 0.0
N787 N 0.22615 0.59035 0.03145 0.0
C788 C 0.18337 0.50113 0.85282 0.0
C789 C 0.21108 0.55946 0.98543 0.0
N790 N 0.23607 0.4647 0.91874 0.0
N791 N 0.14954 0.58407 0.99069 0.0
H792 H 0.25326 0.59119 0.06145 0.0
H793 H 0.21305 0.61571 0.02814 0.0
H794 H 0.12136 0.58151 0.97797 0.0
H795 H 0.1569 0.60246 0.05495 0.0
H796 H 0.22491 0.44044 0.88735 0.0
H797 H 0.2615 0.46146 0.95944 0.0
H798 H 0.1905 0.45373 0.75069 0.0
H799 H 0.14874 0.47587 0.72935 0.0
C800 C 0.02633 0.89072 0.45785 0.0
C801 C 1.00558 0.86141 0.50613 0.0
C802 C 0.99141 0.9036 0.67015 0.0
C803 C 1.01045 0.93368 0.61847 0.0
N804 N 0.03832 0.95613 0.4467 0.0
N805 N 0.9655 0.84174 0.65627 0.0
C806 C 0.0261 0.92699 0.50834 0.0
C807 C 0.98753 0.86852 0.61221 0.0
N808 N 0.04634 0.88398 0.36179 0.0
N809 N 0.97691 0.90856 0.77602 0.0
H810 H 0.96408 0.81554 0.62108 0.0
H811 H 0.94761 0.84554 0.72418 0.0
H812 H 0.97832 0.93365 0.81718 0.0
H813 H 0.96534 0.88791 0.82539 0.0
H814 H 0.06508 0.90248 0.32737 0.0
H815 H 0.04655 0.85847 0.32201 0.0
H816 H 0.04596 0.95477 0.36118 0.0
H817 H 0.03775 0.98254 0.47934 0.0
C818 C 0.68262 1.00395 0.60705 0.0
C819 C 0.69261 0.02809 0.51599 0.0
C820 C 0.63693 0.06463 0.56454 0.0
C821 C 0.62315 0.03672 0.63802 0.0
N822 N 0.64704 0.99495 0.77956 0.0
N823 N 0.67638 0.08162 0.40619 0.0
C824 C 0.64998 1.01041 0.67397 0.0
C825 C 0.66913 0.05872 0.49553 0.0
N826 N 0.70393 0.97393 0.6282 0.0
N827 N 0.62274 0.09888 0.57354 0.0
H828 H 0.69986 0.07905 0.35607 0.0
H829 H 0.6579 0.10167 0.37876 0.0
H830 H 0.60149 0.10476 0.62995 0.0
H831 H 0.63457 0.1217 0.53459 0.0
H832 H 0.69581 0.95261 0.68176 0.0
H833 H 0.72893 0.96961 0.58708 0.0
H834 H 0.66676 0.97753 0.8149 0.0
H835 H 0.62847 1.00472 0.83926 0.0
C836 C 0.57957 0.71194 0.5908 0.0
C837 C 0.56118 0.71891 0.48388 0.0
C838 C 0.54288 0.65275 0.48414 0.0
C839 C 0.55825 0.6463 0.59555 0.0
N840 N 0.59205 0.67134 0.75406 0.0
N841 N 0.52127 0.69534 0.33706 0.0
C842 C 0.57677 0.67654 0.6483 0.0
C843 C 0.54147 0.68909 0.43412 0.0
N844 N 0.60092 0.73918 0.63589 0.0
N845 N 0.53214 0.62339 0.42084 0.0
H846 H 0.52017 0.72088 0.29717 0.0
H847 H 0.50317 0.67626 0.30185 0.0
H848 H 0.53271 0.597 0.45396 0.0
H849 H 0.52533 0.62477 0.33425 0.0
H850 H 0.61896 0.73568 0.70451 0.0
H851 H 0.60156 0.76549 0.60095 0.0
H852 H 0.60319 0.69212 0.80404 0.0
H853 H 0.59237 0.64584 0.7942 0.0
C854 C 0.88478 0.56252 0.55318 0.0
C855 C 0.87026 0.52861 0.51232 0.0
C856 C 0.92511 0.49786 0.60195 0.0
C857 C 0.93916 0.53152 0.64787 0.0
N858 N 0.92484 0.5947 0.68776 0.0
N859 N 0.8721 0.46317 0.53338 0.0
C860 C 0.91652 0.56337 0.62993 0.0
C861 C 0.88902 0.49619 0.5492 0.0
N862 N 0.86959 0.59438 0.51435 0.0
N863 N 0.94705 0.46756 0.59963 0.0
H864 H 0.84548 0.46101 0.49997 0.0
H865 H 0.88257 0.43858 0.56501 0.0
H866 H 0.97411 0.46727 0.62863 0.0
H867 H 0.93987 0.4437 0.55629 0.0
H868 H 0.88084 0.62008 0.53049 0.0
H869 H 0.84703 0.59503 0.45896 0.0
H870 H 0.90793 0.61768 0.68804 0.0
H871 H 0.94685 0.59649 0.74475 0.0
loop_
_geom_bond_atom_site_label_1
_geom_bond_atom_site_label_2
_geom_bond_distance
_geom_bond_site_symmetry_2
_ccdc_geom_bond_type
H0 C7 0.929 . S
H1 C10 0.930 . S
H2 C12 0.929 . S
H3 C4 0.969 . S
C4 H3 0.969 . S
C4 O5 1.550 . S
C4 H6 0.973 . S
O5 C4 1.550 . S
O5 C11 1.412 . S
H6 C4 0.973 . S
C7 H0 0.929 . S
C7 C8 1.400 . S
C7 C9 1.364 . S
C8 C7 1.400 . S
C8 C12 1.377 . S
C9 C7 1.364 . S
C9 C10 1.374 . S
C10 H1 0.930 . S
C10 C9 1.374 . S
C10 C11 1.383 . S
C11 O5 1.412 . S
C11 C10 1.383 . S
C11 C12 1.394 . S
C12 H2 0.929 . S
C12 C8 1.377 . S
C12 C11 1.394 . S
H13 C20 0.929 . S
H14 C23 0.930 . S
H15 C25 0.929 . S
H16 C17 0.969 1_455 S
C17 H16 0.969 1_655 S
C17 O18 1.550 . S
C17 H19 0.973 . S
O18 C17 1.550 . S
O18 C24 1.412 . S
H19 C17 0.973 . S
C20 H13 0.929 . S
C20 C21 1.400 . S
C20 C22 1.364 . S
C21 C20 1.400 . S
C21 C25 1.377 . S
C22 C20 1.364 . S
C22 C23 1.374 . S
C23 H14 0.930 . S
C23 C22 1.374 . S
C23 C24 1.383 . S
C24 O18 1.412 . S
C24 C23 1.383 . S
C24 C25 1.394 . S
C25 H15 0.929 . S
C25 C21 1.377 . S
C25 C24 1.394 . S
H26 C33 0.929 . S
H27 C36 0.930 . S
H28 C38 0.929 . S
H29 C30 0.969 1_545 S
C30 H29 0.969 1_565 S
C30 O31 1.550 . S
C30 H32 0.973 . S
O31 C30 1.550 . S
O31 C37 1.412 . S
H32 C30 0.973 . S
C33 H26 0.929 . S
C33 C34 1.400 . S
C33 C35 1.364 . S
C34 C33 1.400 . S
C34 C38 1.377 . S
C35 C33 1.364 . S
C35 C36 1.374 . S
C36 H27 0.930 . S
C36 C35 1.374 . S
C36 C37 1.383 . S
C37 O31 1.412 . S
C37 C36 1.383 . S
C37 C38 1.394 . S
C38 H28 0.929 . S
C38 C34 1.377 . S
C38 C37 1.394 . S
H39 C46 0.929 . S
H40 C49 0.930 . S
H41 C51 0.929 . S
H42 C43 0.969 . S
C43 H42 0.969 . S
C43 O44 1.550 . S
C43 H45 0.973 . S
O44 C43 1.550 . S
O44 C50 1.412 . S
H45 C43 0.973 . S
C46 H39 0.929 . S
C46 C47 1.400 . S
C46 C48 1.364 . S
C47 C46 1.400 . S
C47 C51 1.377 . S
C48 C46 1.364 . S
C48 C49 1.374 . S
C49 H40 0.930 . S
C49 C48 1.374 . S
C49 C50 1.383 . S
C50 O44 1.412 . S
C50 C49 1.383 . S
C50 C51 1.394 . S
C51 H41 0.929 . S
C51 C47 1.377 . S
C51 C50 1.394 . S
H52 C59 0.929 . S
H53 C62 0.930 . S
H54 C64 0.929 . S
H55 C56 0.969 . S
C56 H55 0.969 . S
C56 O57 1.550 . S
C56 H58 0.973 . S
O57 C56 1.550 . S
O57 C63 1.412 . S
H58 C56 0.973 . S
C59 H52 0.929 . S
C59 C60 1.400 1_554 S
C59 C61 1.364 . S
C60 C59 1.400 1_556 S
C60 C64 1.377 . S
C61 C59 1.364 . S
C61 C62 1.374 . S
C62 H53 0.930 . S
C62 C61 1.374 . S
C62 C63 1.383 . S
C63 O57 1.412 . S
C63 C62 1.383 . S
C63 C64 1.394 1_554 S
C64 H54 0.929 . S
C64 C60 1.377 . S
C64 C63 1.394 1_556 S
H65 C72 0.929 . S
H66 C75 0.930 . S
H67 C77 0.929 . S
H68 C69 0.969 . S
C69 H68 0.969 . S
C69 O70 1.550 . S
C69 H71 0.973 . S
O70 C69 1.550 . S
O70 C76 1.412 . S
H71 C69 0.973 . S
C72 H65 0.929 . S
C72 C73 1.400 1_554 S
C72 C74 1.364 . S
C73 C72 1.400 1_556 S
C73 C77 1.377 . S
C74 C72 1.364 . S
C74 C75 1.374 . S
C75 H66 0.930 . S
C75 C74 1.374 . S
C75 C76 1.383 . S
C76 O70 1.412 . S
C76 C75 1.383 . S
C76 C77 1.394 1_554 S
C77 H67 0.929 . S
C77 C73 1.377 . S
C77 C76 1.394 1_556 S
H78 C85 0.929 . S
H79 C88 0.930 . S
H80 C90 0.929 . S
H81 C82 0.969 . S
C82 H81 0.969 . S
C82 O83 1.550 . S
C82 H84 0.973 . S
O83 C82 1.550 . S
O83 C89 1.412 . S
H84 C82 0.973 . S
C85 H78 0.929 . S
C85 C86 1.400 1_554 S
C85 C87 1.364 . S
C86 C85 1.400 1_556 S
C86 C90 1.377 . S
C87 C85 1.364 . S
C87 C88 1.374 . S
C88 H79 0.930 . S
C88 C87 1.374 . S
C88 C89 1.383 . S
C89 O83 1.412 . S
C89 C88 1.383 . S
C89 C90 1.394 1_554 S
C90 H80 0.929 . S
C90 C86 1.377 . S
C90 C89 1.394 1_556 S
H91 C98 0.929 . S
H92 C101 0.930 . S
H93 C103 0.929 . S
H94 C95 0.969 . S
C95 H94 0.969 . S
C95 O96 1.550 . S
C95 H97 0.973 . S
O96 C95 1.550 . S
O96 C102 1.412 . S
H97 C95 0.973 . S
C98 H91 0.929 . S
C98 C99 1.400 1_554 S
C98 C100 1.364 . S
C99 C98 1.400 1_556 S
C99 C103 1.377 . S
C100 C98 1.364 . S
C100 C101 1.374 . S
C101 H92 0.930 . S
C101 C100 1.374 . S
C101 C102 1.383 . S
C102 O96 1.412 . S
C102 C101 1.383 . S
C102 C103 1.394 1_554 S
C103 H93 0.929 . S
C103 C99 1.377 . S
C103 C102 1.394 1_556 S
Tb104 N133 2.617 . S
Tb104 N139 2.572 . S
Tb104 O148 2.465 . S
Tb104 O149 2.387 1_545 S
Tb104 O151 2.428 . S
Tb104 O152 2.308 1_655 S
Tb104 O156 2.349 1_655 S
Tb104 O159 2.393 . S
Tb104 C168 2.802 . S
C105 N106 1.379 1_554 S
C105 C108 1.416 . S
C105 C112 1.424 . S
N106 C105 1.379 1_556 S
N106 C109 1.334 . S
N106 Tb115 2.617 1_545 S
C107 C109 1.390 . S
C107 C110 1.339 . S
C107 H127 0.930 . S
C108 C105 1.416 . S
C108 C110 1.416 1_554 S
C108 C114 1.448 . S
C109 N106 1.334 . S
C109 C107 1.390 . S
C109 H120 0.930 1_545 S
C110 C107 1.339 . S
C110 C108 1.416 1_556 S
C110 H131 0.930 . S
C111 C112 1.413 . S
C111 C113 1.427 . S
C111 C117 1.416 . S
C112 C105 1.424 . S
C112 C111 1.413 . S
C112 N116 1.361 . S
C113 C111 1.427 . S
C113 C114 1.328 . S
C113 H128 0.929 . S
C114 C108 1.448 . S
C114 C113 1.328 . S
C114 H129 0.930 . S
Tb115 N106 2.617 1_565 S
Tb115 N116 2.572 1_566 S
Tb115 O150 2.349 . S
Tb115 O153 2.393 . S
Tb115 O154 2.465 . S
Tb115 O155 2.387 1_565 S
Tb115 O157 2.428 . S
Tb115 O158 2.308 1_465 S
Tb115 C179 2.802 . S
N116 C112 1.361 . S
N116 Tb115 2.572 1_544 S
N116 C118 1.340 . S
C117 C111 1.416 . S
C117 C119 1.332 . S
C117 H125 0.931 . S
C118 N116 1.340 . S
C118 C119 1.407 . S
C118 H124 0.930 . S
C119 C117 1.332 . S
C119 C118 1.407 . S
C119 H121 0.929 . S
H120 C109 0.930 1_565 S
H121 C119 0.929 . S
H122 C137 0.930 . S
H123 C144 0.929 1_455 S
H124 C118 0.930 . S
H125 C117 0.931 . S
H126 C140 0.930 1_455 S
H127 C107 0.930 . S
H128 C113 0.929 . S
H129 C114 0.930 . S
H130 C135 0.930 . S
H131 C110 0.930 . S
H132 C143 0.931 . S
N133 Tb104 2.617 . S
N133 C134 1.379 1_545 S
N133 C137 1.334 . S
C134 N133 1.379 1_565 S
C134 C136 1.416 . S
C134 C142 1.424 . S
C135 H130 0.930 . S
C135 C137 1.390 . S
C135 C138 1.339 1_545 S
C136 C134 1.416 . S
C136 C138 1.416 . S
C136 C169 1.448 . S
C137 H122 0.930 . S
C137 N133 1.334 . S
C137 C135 1.390 . S
C138 C135 1.339 1_565 S
C138 C136 1.416 . S
C138 H145 0.930 . S
N139 Tb104 2.572 . S
N139 C140 1.340 . S
N139 C142 1.361 1_545 S
C140 H126 0.930 1_655 S
C140 N139 1.340 . S
C140 C144 1.407 1_545 S
C141 C142 1.413 . S
C141 C143 1.416 . S
C141 C170 1.427 . S
C142 C134 1.424 . S
C142 N139 1.361 1_565 S
C142 C141 1.413 . S
C143 H132 0.931 . S
C143 C141 1.416 . S
C143 C144 1.332 . S
C144 H123 0.929 1_655 S
C144 C140 1.407 1_565 S
C144 C143 1.332 . S
H145 C138 0.930 . S
H146 C169 0.930 . S
H147 C170 0.929 . S
O148 Tb104 2.465 . S
O148 C168 1.264 . S
O149 Tb104 2.387 1_565 S
O149 C160 1.264 . S
O150 Tb115 2.349 . S
O150 C160 1.243 1_455 S
O151 Tb104 2.428 . S
O151 C168 1.256 . S
O152 Tb104 2.308 1_455 S
O152 C167 1.266 . S
O153 Tb115 2.393 . S
O153 C167 1.248 1_565 S
O154 Tb115 2.465 . S
O154 C179 1.264 . S
O155 Tb115 2.387 1_545 S
O155 C171 1.264 . S
O156 Tb104 2.349 1_455 S
O156 C171 1.243 . S
O157 Tb115 2.428 . S
O157 C179 1.256 . S
O158 Tb115 2.308 1_645 S
O158 C178 1.266 . S
O159 Tb104 2.393 . S
O159 C178 1.248 . S
C160 O149 1.264 . S
C160 O150 1.243 1_655 S
C161 C164 1.399 . S
C161 C166 1.383 . S
C161 C168 1.496 . S
C162 C163 1.399 . S
C162 C166 1.389 . S
C163 C162 1.399 . S
C163 C165 1.380 . S
C163 H180 0.929 . S
C164 C161 1.399 . S
C164 C165 1.392 . S
C164 H181 0.929 . S
C165 C163 1.380 . S
C165 C164 1.392 . S
C165 H182 0.929 . S
C166 C161 1.383 . S
C166 C162 1.389 . S
C166 H183 0.931 1_655 S
C167 O152 1.266 . S
C167 O153 1.248 1_545 S
C168 Tb104 2.802 . S
C168 O148 1.264 . S
C168 O151 1.256 . S
C168 C161 1.496 . S
C169 C136 1.448 . S
C169 H146 0.930 . S
C169 C170 1.328 . S
C170 C141 1.427 . S
C170 H147 0.929 . S
C170 C169 1.328 . S
C171 O155 1.264 . S
C171 O156 1.243 . S
C172 C175 1.399 . S
C172 C176 1.383 . S
C172 C179 1.496 1_554 S
C173 C174 1.399 . S
C173 C176 1.389 . S
C174 C173 1.399 . S
C174 C177 1.380 . S
C174 H184 0.929 . S
C175 C172 1.399 . S
C175 C177 1.392 . S
C175 H185 0.929 1_554 S
C176 C172 1.383 . S
C176 C173 1.389 . S
C176 H186 0.931 . S
C177 C174 1.380 . S
C177 C175 1.392 . S
C177 H187 0.929 . S
C178 O158 1.266 . S
C178 O159 1.248 . S
C179 Tb115 2.802 . S
C179 O154 1.264 . S
C179 O157 1.256 . S
C179 C172 1.496 1_556 S
H180 C163 0.929 . S
H181 C164 0.929 . S
H182 C165 0.929 . S
H183 C166 0.931 1_455 S
H184 C174 0.929 . S
H185 C175 0.929 1_556 S
H186 C176 0.931 . S
H187 C177 0.929 . S
Tb188 N217 2.617 . S
Tb188 N223 2.572 . S
Tb188 O232 2.465 . S
Tb188 O233 2.387 . S
Tb188 O235 2.428 1_556 S
Tb188 O236 2.308 . S
Tb188 O240 2.349 1_545 S
Tb188 O243 2.393 . S
Tb188 C252 2.802 1_556 S
C189 N190 1.379 . S
C189 C192 1.416 . S
C189 C196 1.424 . S
N190 C189 1.379 . S
N190 C193 1.334 . S
N190 Tb199 2.617 . S
C191 C193 1.390 . S
C191 C194 1.339 . S
C191 H211 0.930 . S
C192 C189 1.416 . S
C192 C194 1.416 . S
C192 C198 1.448 . S
C193 N190 1.334 . S
C193 C191 1.390 . S
C193 H204 0.930 . S
C194 C191 1.339 . S
C194 C192 1.416 . S
C194 H215 0.930 . S
C195 C196 1.413 . S
C195 C197 1.427 . S
C195 C201 1.416 . S
C196 C189 1.424 . S
C196 C195 1.413 . S
C196 N200 1.361 . S
C197 C195 1.427 . S
C197 C198 1.328 . S
C197 H212 0.929 . S
C198 C192 1.448 . S
C198 C197 1.328 . S
C198 H213 0.930 . S
Tb199 N190 2.617 . S
Tb199 N200 2.572 . S
Tb199 O234 2.349 1_565 S
Tb199 O237 2.393 . S
Tb199 O238 2.465 . S
Tb199 O239 2.387 . S
Tb199 O241 2.428 . S
Tb199 O242 2.308 1_565 S
Tb199 C263 2.802 . S
N200 C196 1.361 . S
N200 Tb199 2.572 . S
N200 C202 1.340 . S
C201 C195 1.416 . S
C201 C203 1.332 . S
C201 H209 0.931 . S
C202 N200 1.340 . S
C202 C203 1.407 . S
C202 H208 0.930 . S
C203 C201 1.332 . S
C203 C202 1.407 . S
C203 H205 0.929 . S
H204 C193 0.930 . S
H205 C203 0.929 . S
H206 C221 0.930 1_554 S
H207 C228 0.929 . S
H208 C202 0.930 . S
H209 C201 0.931 . S
H210 C224 0.930 . S
H211 C191 0.930 . S
H212 C197 0.929 . S
H213 C198 0.930 . S
H214 C219 0.930 . S
H215 C194 0.930 . S
H216 C227 0.931 . S
N217 Tb188 2.617 . S
N217 C218 1.379 . S
N217 C221 1.335 . S
C218 N217 1.379 . S
C218 C220 1.416 . S
C218 C226 1.424 . S
C219 H214 0.930 . S
C219 C221 1.389 1_554 S
C219 C222 1.339 1_554 S
C220 C218 1.416 . S
C220 C222 1.416 . S
C220 C253 1.448 . S
C221 H206 0.930 1_556 S
C221 N217 1.335 . S
C221 C219 1.389 1_556 S
C222 C219 1.339 1_556 S
C222 C220 1.416 . S
C222 H229 0.930 1_556 S
N223 Tb188 2.572 . S
N223 C224 1.340 . S
N223 C226 1.361 . S
C224 H210 0.930 . S
C224 N223 1.340 . S
C224 C228 1.407 . S
C225 C226 1.413 . S
C225 C227 1.416 . S
C225 C254 1.427 . S
C226 C218 1.424 . S
C226 N223 1.361 . S
C226 C225 1.413 . S
C227 H216 0.931 . S
C227 C225 1.416 . S
C227 C228 1.332 . S
C228 H207 0.929 . S
C228 C224 1.407 . S
C228 C227 1.332 . S
H229 C222 0.930 1_554 S
H230 C253 0.930 . S
H231 C254 0.929 . S
O232 Tb188 2.465 . S
O232 C252 1.264 1_556 S
O233 Tb188 2.387 . S
O233 C244 1.264 . S
O234 Tb199 2.349 1_545 S
O234 C244 1.243 . S
O235 Tb188 2.428 1_554 S
O235 C252 1.256 . S
O236 Tb188 2.308 . S
O236 C251 1.265 . S
O237 Tb199 2.393 . S
O237 C251 1.249 1_565 S
O238 Tb199 2.465 . S
O238 C263 1.264 . S
O239 Tb199 2.387 . S
O239 C255 1.264 . S
O240 Tb188 2.349 1_565 S
O240 C255 1.243 . S
O241 Tb199 2.428 . S
O241 C263 1.256 . S
O242 Tb199 2.308 1_545 S
O242 C262 1.266 . S
O243 Tb188 2.393 . S
O243 C262 1.248 . S
C244 O233 1.264 . S
C244 O234 1.243 . S
C245 C248 1.399 . S
C245 C250 1.383 . S
C245 C252 1.496 . S
C246 C247 1.399 . S
C246 C250 1.389 . S
C247 C246 1.399 . S
C247 C249 1.380 . S
C247 H264 0.929 . S
C248 C245 1.399 . S
C248 C249 1.392 . S
C248 H265 0.929 . S
C249 C247 1.380 . S
C249 C248 1.392 . S
C249 H266 0.929 . S
C250 C245 1.383 . S
C250 C246 1.389 . S
C250 H267 0.931 . S
C251 O236 1.265 . S
C251 O237 1.249 1_545 S
C252 Tb188 2.802 1_554 S
C252 O232 1.264 1_554 S
C252 O235 1.256 . S
C252 C245 1.496 . S
C253 C220 1.448 . S
C253 H230 0.930 . S
C253 C254 1.328 . S
C254 C225 1.427 . S
C254 H231 0.929 . S
C254 C253 1.328 . S
C255 O239 1.264 . S
C255 O240 1.243 . S
C256 C259 1.399 . S
C256 C260 1.383 . S
C256 C263 1.496 . S
C257 C258 1.399 . S
C257 C260 1.389 . S
C258 C257 1.399 . S
C258 C261 1.380 . S
C258 H268 0.929 . S
C259 C256 1.399 . S
C259 C261 1.392 . S
C259 H269 0.929 . S
C260 C256 1.383 . S
C260 C257 1.389 . S
C260 H270 0.931 1_565 S
C261 C258 1.380 . S
C261 C259 1.392 . S
C261 H271 0.929 . S
C262 O242 1.266 . S
C262 O243 1.248 . S
C263 Tb199 2.802 . S
C263 O238 1.264 . S
C263 O241 1.256 . S
C263 C256 1.496 . S
H264 C247 0.929 . S
H265 C248 0.929 . S
H266 C249 0.929 . S
H267 C250 0.931 . S
H268 C258 0.929 . S
H269 C259 0.929 . S
H270 C260 0.931 1_545 S
H271 C261 0.929 . S
Tb272 N301 2.617 . S
Tb272 N307 2.572 . S
Tb272 O316 2.465 . S
Tb272 O317 2.387 . S
Tb272 O319 2.428 . S
Tb272 O320 2.308 . S
Tb272 O324 2.349 . S
Tb272 O327 2.393 . S
Tb272 C336 2.802 . S
C273 N274 1.379 1_554 S
C273 C276 1.416 . S
C273 C280 1.424 . S
N274 C273 1.379 1_556 S
N274 C277 1.334 . S
N274 Tb283 2.617 . S
C275 C277 1.390 . S
C275 C278 1.339 . S
C275 H295 0.930 . S
C276 C273 1.416 . S
C276 C278 1.416 1_554 S
C276 C282 1.448 . S
C277 N274 1.334 . S
C277 C275 1.390 . S
C277 H288 0.930 . S
C278 C275 1.339 . S
C278 C276 1.416 1_556 S
C278 H299 0.930 . S
C279 C280 1.413 . S
C279 C281 1.427 . S
C279 C285 1.416 . S
C280 C273 1.424 . S
C280 C279 1.413 . S
C280 N284 1.361 . S
C281 C279 1.427 . S
C281 C282 1.328 . S
C281 H296 0.929 . S
C282 C276 1.448 . S
C282 C281 1.328 . S
C282 H297 0.930 . S
Tb283 N274 2.617 . S
Tb283 N284 2.572 1_556 S
Tb283 O318 2.349 . S
Tb283 O321 2.393 . S
Tb283 O322 2.465 . S
Tb283 O323 2.387 . S
Tb283 O325 2.428 . S
Tb283 O326 2.308 . S
Tb283 C347 2.802 . S
N284 C280 1.361 . S
N284 Tb283 2.572 1_554 S
N284 C286 1.340 . S
C285 C279 1.416 . S
C285 C287 1.332 . S
C285 H293 0.931 . S
C286 N284 1.340 . S
C286 C287 1.407 . S
C286 H292 0.930 . S
C287 C285 1.332 . S
C287 C286 1.407 . S
C287 H289 0.929 . S
H288 C277 0.930 . S
H289 C287 0.929 . S
H290 C305 0.930 . S
H291 C312 0.929 . S
H292 C286 0.930 . S
H293 C285 0.931 . S
H294 C308 0.930 . S
H295 C275 0.930 . S
H296 C281 0.929 . S
H297 C282 0.930 . S
H298 C303 0.930 . S
H299 C278 0.930 . S
H300 C311 0.931 . S
N301 Tb272 2.617 . S
N301 C302 1.379 . S
N301 C305 1.334 . S
C302 N301 1.379 . S
C302 C304 1.416 . S
C302 C310 1.424 . S
C303 H298 0.930 . S
C303 C305 1.390 . S
C303 C306 1.339 . S
C304 C302 1.416 . S
C304 C306 1.416 . S
C304 C337 1.448 . S
C305 H290 0.930 . S
C305 N301 1.334 . S
C305 C303 1.390 . S
C306 C303 1.339 . S
C306 C304 1.416 . S
C306 H313 0.930 . S
N307 Tb272 2.572 . S
N307 C308 1.340 . S
N307 C310 1.361 . S
C308 H294 0.930 . S
C308 N307 1.340 . S
C308 C312 1.407 . S
C309 C310 1.413 . S
C309 C311 1.416 . S
C309 C338 1.427 . S
C310 C302 1.424 . S
C310 N307 1.361 . S
C310 C309 1.413 . S
C311 H300 0.931 . S
C311 C309 1.416 . S
C311 C312 1.332 . S
C312 H291 0.929 . S
C312 C308 1.407 . S
C312 C311 1.332 . S
H313 C306 0.930 . S
H314 C337 0.930 . S
H315 C338 0.929 . S
O316 Tb272 2.465 . S
O316 C336 1.264 . S
O317 Tb272 2.387 . S
O317 C328 1.264 . S
O318 Tb283 2.349 . S
O318 C328 1.243 . S
O319 Tb272 2.428 . S
O319 C336 1.256 . S
O320 Tb272 2.308 . S
O320 C335 1.266 . S
O321 Tb283 2.393 . S
O321 C335 1.248 . S
O322 Tb283 2.465 . S
O322 C347 1.264 . S
O323 Tb283 2.387 . S
O323 C339 1.264 . S
O324 Tb272 2.349 . S
O324 C339 1.243 . S
O325 Tb283 2.428 . S
O325 C347 1.256 . S
O326 Tb283 2.308 . S
O326 C346 1.266 . S
O327 Tb272 2.393 . S
O327 C346 1.248 . S
C328 O317 1.264 . S
C328 O318 1.243 . S
C329 C332 1.399 . S
C329 C334 1.383 . S
C329 C336 1.496 . S
C330 C331 1.399 . S
C330 C334 1.389 . S
C331 C330 1.399 . S
C331 C333 1.380 . S
C331 H348 0.929 . S
C332 C329 1.399 . S
C332 C333 1.392 . S
C332 H349 0.929 . S
C333 C331 1.380 . S
C333 C332 1.392 . S
C333 H350 0.929 . S
C334 C329 1.383 . S
C334 C330 1.389 . S
C334 H351 0.931 . S
C335 O320 1.266 . S
C335 O321 1.248 . S
C336 Tb272 2.802 . S
C336 O316 1.264 . S
C336 O319 1.256 . S
C336 C329 1.496 . S
C337 C304 1.448 . S
C337 H314 0.930 . S
C337 C338 1.328 . S
C338 C309 1.427 . S
C338 H315 0.929 . S
C338 C337 1.328 . S
C339 O323 1.264 . S
C339 O324 1.243 . S
C340 C343 1.399 . S
C340 C344 1.383 . S
C340 C347 1.496 1_554 S
C341 C342 1.399 . S
C341 C344 1.389 . S
C342 C341 1.399 . S
C342 C345 1.380 . S
C342 H352 0.929 . S
C343 C340 1.399 . S
C343 C345 1.392 . S
C343 H353 0.929 1_554 S
C344 C340 1.383 . S
C344 C341 1.389 . S
C344 H354 0.931 . S
C345 C342 1.380 . S
C345 C343 1.392 . S
C345 H355 0.929 . S
C346 O326 1.266 . S
C346 O327 1.248 . S
C347 Tb283 2.802 . S
C347 O322 1.264 . S
C347 O325 1.256 . S
C347 C340 1.496 1_556 S
H348 C331 0.929 . S
H349 C332 0.929 . S
H350 C333 0.929 . S
H351 C334 0.931 . S
H352 C342 0.929 . S
H353 C343 0.929 1_556 S
H354 C344 0.931 . S
H355 C345 0.929 . S
Tb356 N385 2.617 . S
Tb356 N391 2.572 . S
Tb356 O400 2.465 . S
Tb356 O401 2.387 1_455 S
Tb356 O403 2.428 . S
Tb356 O404 2.308 . S
Tb356 O408 2.349 . S
Tb356 O411 2.393 . S
Tb356 C420 2.802 . S
C357 N358 1.379 1_554 S
C357 C360 1.416 . S
C357 C364 1.424 . S
N358 C357 1.379 1_556 S
N358 C361 1.336 . S
N358 Tb367 2.617 1_455 S
C359 C361 1.395 . S
C359 C362 1.339 . S
C359 H379 0.930 . S
C360 C357 1.416 . S
C360 C362 1.416 1_554 S
C360 C366 1.448 . S
C361 N358 1.336 . S
C361 C359 1.395 . S
C361 H372 0.923 1_455 S
C362 C359 1.339 . S
C362 C360 1.416 1_556 S
C362 H383 0.930 . S
C363 C364 1.413 . S
C363 C365 1.427 . S
C363 C369 1.416 . S
C364 C357 1.424 . S
C364 C363 1.413 . S
C364 N368 1.361 . S
C365 C363 1.427 . S
C365 C366 1.328 . S
C365 H380 0.929 . S
C366 C360 1.448 . S
C366 C365 1.328 . S
C366 H381 0.930 . S
Tb367 N358 2.617 1_655 S
Tb367 N368 2.572 1_656 S
Tb367 O402 2.349 . S
Tb367 O405 2.393 . S
Tb367 O406 2.465 . S
Tb367 O407 2.387 1_655 S
Tb367 O409 2.428 . S
Tb367 O410 2.308 1_655 S
Tb367 C431 2.802 . S
N368 C364 1.361 . S
N368 Tb367 2.572 1_454 S
N368 C370 1.340 . S
C369 C363 1.416 . S
C369 C371 1.332 . S
C369 H377 0.931 . S
C370 N368 1.340 . S
C370 C371 1.407 . S
C370 H376 0.930 . S
C371 C369 1.332 . S
C371 C370 1.407 . S
C371 H373 0.929 . S
H372 C361 0.923 1_655 S
H373 C371 0.929 . S
H374 C389 0.930 . S
H375 C396 0.929 . S
H376 C370 0.930 . S
H377 C369 0.931 . S
H378 C392 0.930 . S
H379 C359 0.930 . S
H380 C365 0.929 . S
H381 C366 0.930 . S
H382 C387 0.930 . S
H383 C362 0.930 . S
H384 C395 0.931 . S
N385 Tb356 2.617 . S
N385 C386 1.379 1_455 S
N385 C389 1.334 . S
C386 N385 1.379 1_655 S
C386 C388 1.416 . S
C386 C394 1.424 . S
C387 H382 0.930 . S
C387 C389 1.390 . S
C387 C390 1.339 1_455 S
C388 C386 1.416 . S
C388 C390 1.416 . S
C388 C421 1.448 . S
C389 H374 0.930 . S
C389 N385 1.334 . S
C389 C387 1.390 . S
C390 C387 1.339 1_655 S
C390 C388 1.416 . S
C390 H397 0.930 . S
N391 Tb356 2.572 . S
N391 C392 1.340 . S
N391 C394 1.361 1_455 S
C392 H378 0.930 . S
C392 N391 1.340 . S
C392 C396 1.407 1_455 S
C393 C394 1.413 . S
C393 C395 1.416 . S
C393 C422 1.427 . S
C394 C386 1.424 . S
C394 N391 1.361 1_655 S
C394 C393 1.413 . S
C395 H384 0.931 . S
C395 C393 1.416 . S
C395 C396 1.332 . S
C396 H375 0.929 . S
C396 C392 1.407 1_655 S
C396 C395 1.332 . S
H397 C390 0.930 . S
H398 C421 0.930 . S
H399 C422 0.929 . S
O400 Tb356 2.465 . S
O400 C420 1.264 . S
O401 Tb356 2.387 1_655 S
O401 C412 1.264 . S
O402 Tb367 2.349 . S
O402 C412 1.243 . S
O403 Tb356 2.428 . S
O403 C420 1.256 . S
O404 Tb356 2.308 . S
O404 C419 1.266 . S
O405 Tb367 2.393 . S
O405 C419 1.248 1_655 S
O406 Tb367 2.465 . S
O406 C431 1.264 . S
O407 Tb367 2.387 1_455 S
O407 C423 1.264 . S
O408 Tb356 2.349 . S
O408 C423 1.243 . S
O409 Tb367 2.428 . S
O409 C431 1.256 . S
O410 Tb367 2.308 1_455 S
O410 C430 1.266 . S
O411 Tb356 2.393 . S
O411 C430 1.248 . S
C412 O401 1.264 . S
C412 O402 1.243 . S
C413 C416 1.399 . S
C413 C418 1.383 . S
C413 C420 1.496 . S
C414 C415 1.399 . S
C414 C418 1.389 . S
C415 C414 1.399 . S
C415 C417 1.380 . S
C415 H432 0.929 . S
C416 C413 1.399 . S
C416 C417 1.392 . S
C416 H433 0.929 . S
C417 C415 1.380 . S
C417 C416 1.392 . S
C417 H434 0.929 . S
C418 C413 1.383 . S
C418 C414 1.389 . S
C418 H435 0.931 . S
C419 O404 1.266 . S
C419 O405 1.248 1_455 S
C420 Tb356 2.802 . S
C420 O400 1.264 . S
C420 O403 1.256 . S
C420 C413 1.496 . S
C421 C388 1.448 . S
C421 H398 0.930 . S
C421 C422 1.328 . S
C422 C393 1.427 . S
C422 H399 0.929 . S
C422 C421 1.328 . S
C423 O407 1.264 . S
C423 O408 1.243 . S
C424 C427 1.399 . S
C424 C428 1.383 . S
C424 C431 1.496 1_554 S
C425 C426 1.399 . S
C425 C428 1.389 . S
C426 C425 1.399 . S
C426 C429 1.380 . S
C426 H436 0.929 . S
C427 C424 1.399 . S
C427 C429 1.392 . S
C427 H437 0.929 1_554 S
C428 C424 1.383 . S
C428 C425 1.389 . S
C428 H438 0.931 . S
C429 C426 1.380 . S
C429 C427 1.392 . S
C429 H439 0.929 . S
C430 O410 1.266 . S
C430 O411 1.248 . S
C431 Tb367 2.802 . S
C431 O406 1.264 . S
C431 O409 1.256 . S
C431 C424 1.496 1_556 S
H432 C415 0.929 . S
H433 C416 0.929 . S
H434 C417 0.929 . S
H435 C418 0.931 . S
H436 C426 0.929 . S
H437 C427 0.929 1_556 S
H438 C428 0.931 . S
H439 C429 0.929 . S
C440 C441 1.363 . S
C440 C446 1.379 . S
C440 N448 1.356 . S
C441 C440 1.363 . S
C441 C447 1.363 . S
C442 C443 1.363 . S
C442 C447 1.379 . S
C442 N449 1.356 1_545 S
C443 C442 1.363 . S
C443 C446 1.363 . S
N444 C446 1.356 . S
N444 H456 0.984 . S
N444 H457 0.985 . S
N445 C447 1.356 1_565 S
N445 H450 0.984 . S
N445 H451 0.985 . S
C446 C440 1.379 . S
C446 C443 1.363 . S
C446 N444 1.356 . S
C447 C441 1.363 . S
C447 C442 1.379 . S
C447 N445 1.356 1_545 S
N448 C440 1.356 . S
N448 H454 0.984 . S
N448 H455 0.984 . S
N449 C442 1.356 1_565 S
N449 H452 0.984 . S
N449 H453 0.985 . S
H450 N445 0.984 . S
H451 N445 0.985 . S
H452 N449 0.984 . S
H453 N449 0.985 . S
H454 N448 0.984 . S
H455 N448 0.984 . S
H456 N444 0.984 . S
H457 N444 0.985 . S
C458 C459 1.363 . S
C458 C464 1.379 . S
C458 N466 1.356 . S
C459 C458 1.363 . S
C459 C465 1.363 . S
C460 C461 1.363 . S
C460 C465 1.379 . S
C460 N467 1.356 . S
C461 C460 1.363 . S
C461 C464 1.363 . S
N462 C464 1.356 . S
N462 H474 0.984 . S
N462 H475 0.985 . S
N463 C465 1.356 . S
N463 H468 0.984 . S
N463 H469 0.985 . S
C464 C458 1.379 . S
C464 C461 1.363 . S
C464 N462 1.356 . S
C465 C459 1.363 . S
C465 C460 1.379 . S
C465 N463 1.356 . S
N466 C458 1.356 . S
N466 H472 0.984 . S
N466 H473 0.984 . S
N467 C460 1.356 . S
N467 H470 0.984 . S
N467 H471 0.985 . S
H468 N463 0.984 . S
H469 N463 0.985 . S
H470 N467 0.984 . S
H471 N467 0.985 . S
H472 N466 0.984 . S
H473 N466 0.984 . S
H474 N462 0.984 . S
H475 N462 0.985 . S
C476 C477 1.363 . S
C476 C482 1.379 . S
C476 N484 1.356 . S
C477 C476 1.363 . S
C477 C483 1.363 . S
C478 C479 1.363 . S
C478 C483 1.379 . S
C478 N485 1.356 . S
C479 C478 1.363 . S
C479 C482 1.363 . S
N480 C482 1.356 . S
N480 H492 0.984 . S
N480 H493 0.985 . S
N481 C483 1.356 . S
N481 H486 0.984 . S
N481 H487 0.985 . S
C482 C476 1.379 . S
C482 C479 1.363 . S
C482 N480 1.356 . S
C483 C477 1.363 . S
C483 C478 1.379 . S
C483 N481 1.356 . S
N484 C476 1.356 . S
N484 H490 0.984 . S
N484 H491 0.984 . S
N485 C478 1.356 . S
N485 H488 0.984 . S
N485 H489 0.985 . S
H486 N481 0.984 . S
H487 N481 0.985 . S
H488 N485 0.984 . S
H489 N485 0.985 . S
H490 N484 0.984 . S
H491 N484 0.984 . S
H492 N480 0.984 . S
H493 N480 0.985 . S
C494 C495 1.363 . S
C494 C500 1.379 . S
C494 N502 1.356 . S
C495 C494 1.363 . S
C495 C501 1.363 . S
C496 C497 1.363 . S
C496 C501 1.379 . S
C496 N503 1.356 . S
C497 C496 1.363 . S
C497 C500 1.363 . S
N498 C500 1.356 . S
N498 H510 0.984 . S
N498 H511 0.985 . S
N499 C501 1.356 . S
N499 H504 0.984 . S
N499 H505 0.985 . S
C500 C494 1.379 . S
C500 C497 1.363 . S
C500 N498 1.356 . S
C501 C495 1.363 . S
C501 C496 1.379 . S
C501 N499 1.356 . S
N502 C494 1.356 . S
N502 H508 0.984 . S
N502 H509 0.984 . S
N503 C496 1.356 . S
N503 H506 0.984 . S
N503 H507 0.985 . S
H504 N499 0.984 . S
H505 N499 0.985 . S
H506 N503 0.984 . S
H507 N503 0.985 . S
H508 N502 0.984 . S
H509 N502 0.984 . S
H510 N498 0.984 . S
H511 N498 0.985 . S
C512 C513 1.363 . S
C512 C518 1.379 . S
C512 N520 1.356 . S
C513 C512 1.363 . S
C513 C519 1.363 1_565 S
C514 C515 1.346 1_545 S
C514 C519 1.379 . S
C514 N521 1.356 . S
C515 C514 1.346 1_565 S
C515 C518 1.382 . S
N516 C518 1.356 1_556 S
N516 H528 0.984 . S
N516 H529 0.985 . S
N517 C519 1.356 . S
N517 H522 0.984 . S
N517 H523 0.985 . S
C518 C512 1.379 . S
C518 C515 1.382 . S
C518 N516 1.356 1_554 S
C519 C513 1.363 1_545 S
C519 C514 1.379 . S
C519 N517 1.356 . S
N520 C512 1.356 . S
N520 H526 0.984 . S
N520 H527 0.984 . S
N521 C514 1.356 . S
N521 H524 0.984 1_554 S
N521 H525 0.985 . S
H522 N517 0.984 . S
H523 N517 0.985 . S
H524 N521 0.984 1_556 S
H525 N521 0.985 . S
H526 N520 0.984 . S
H527 N520 0.984 . S
H528 N516 0.984 . S
H529 N516 0.985 . S
C530 C531 1.363 . S
C530 C536 1.379 . S
C530 N538 1.356 . S
C531 C530 1.363 . S
C531 C537 1.363 . S
C532 C533 1.363 . S
C532 C537 1.379 . S
C532 N539 1.356 1_554 S
C533 C532 1.363 . S
C533 C536 1.363 . S
N534 C536 1.356 . S
N534 H546 0.984 . S
N534 H547 0.985 1_554 S
N535 C537 1.356 . S
N535 H540 0.984 . S
N535 H541 0.985 . S
C536 C530 1.379 . S
C536 C533 1.363 . S
C536 N534 1.356 . S
C537 C531 1.363 . S
C537 C532 1.379 . S
C537 N535 1.356 . S
N538 C530 1.356 . S
N538 H544 0.984 . S
N538 H545 0.984 . S
N539 C532 1.356 1_556 S
N539 H542 0.984 . S
N539 H543 0.985 . S
H540 N535 0.984 . S
H541 N535 0.985 . S
H542 N539 0.984 . S
H543 N539 0.985 . S
H544 N538 0.984 . S
H545 N538 0.984 . S
H546 N534 0.984 . S
H547 N534 0.985 1_556 S
C548 C549 1.363 . S
C548 C554 1.379 . S
C548 N556 1.356 . S
C549 C548 1.363 . S
C549 C555 1.363 . S
C550 C551 1.363 . S
C550 C555 1.379 . S
C550 N557 1.356 . S
C551 C550 1.363 . S
C551 C554 1.363 . S
N552 C554 1.356 1_556 S
N552 H564 0.984 . S
N552 H565 0.985 . S
N553 C555 1.356 . S
N553 H558 0.984 . S
N553 H559 0.985 . S
C554 C548 1.379 . S
C554 C551 1.363 . S
C554 N552 1.356 1_554 S
C555 C549 1.363 . S
C555 C550 1.379 . S
C555 N553 1.356 . S
N556 C548 1.356 . S
N556 H562 0.984 . S
N556 H563 0.984 . S
N557 C550 1.356 . S
N557 H560 0.984 1_554 S
N557 H561 0.985 . S
H558 N553 0.984 . S
H559 N553 0.985 . S
H560 N557 0.984 1_556 S
H561 N557 0.985 . S
H562 N556 0.984 . S
H563 N556 0.984 . S
H564 N552 0.984 . S
H565 N552 0.985 . S
C566 C567 1.363 1_455 S
C566 C572 1.379 . S
C566 N574 1.356 . S
C567 C566 1.363 1_655 S
C567 C573 1.363 . S
C568 C569 1.363 . S
C568 C573 1.379 . S
C568 N575 1.356 1_554 S
C569 C568 1.363 . S
C569 C572 1.363 1_655 S
N570 C572 1.356 . S
N570 H582 0.984 . S
N570 H583 0.985 1_554 S
N571 C573 1.356 . S
N571 H576 0.984 . S
N571 H577 0.985 . S
C572 C566 1.379 . S
C572 C569 1.363 1_455 S
C572 N570 1.356 . S
C573 C567 1.363 . S
C573 C568 1.379 . S
C573 N571 1.356 . S
N574 C566 1.356 . S
N574 H580 0.984 . S
N574 H581 0.984 . S
N575 C568 1.356 1_556 S
N575 H578 0.984 . S
N575 H579 0.985 . S
H576 N571 0.984 . S
H577 N571 0.985 . S
H578 N575 0.984 . S
H579 N575 0.985 . S
H580 N574 0.984 . S
H581 N574 0.984 . S
H582 N570 0.984 . S
H583 N570 0.985 1_556 S
C584 C585 1.363 . S
C584 C590 1.379 . S
C584 N592 1.356 . S
C585 C584 1.363 . S
C585 C591 1.363 . S
C586 C587 1.363 . S
C586 C591 1.379 1_655 S
C586 N593 1.356 . S
C587 C586 1.363 . S
C587 C590 1.363 1_655 S
N588 C590 1.356 . S
N588 H600 0.984 . S
N588 H601 0.985 1_455 S
N589 C591 1.356 . S
N589 H594 0.984 1_554 S
N589 H595 0.985 1_554 S
C590 C584 1.379 . S
C590 C587 1.363 1_455 S
C590 N588 1.356 . S
C591 C585 1.363 . S
C591 C586 1.379 1_455 S
C591 N589 1.356 . S
N592 C584 1.356 . S
N592 H598 0.984 . S
N592 H599 0.984 . S
N593 C586 1.356 . S
N593 H596 0.984 . S
N593 H597 0.985 . S
H594 N589 0.984 1_556 S
H595 N589 0.985 1_556 S
H596 N593 0.984 . S
H597 N593 0.985 . S
H598 N592 0.984 . S
H599 N592 0.984 . S
H600 N588 0.984 . S
H601 N588 0.985 1_655 S
C602 C603 1.363 . S
C602 C608 1.379 . S
C602 N610 1.356 . S
C603 C602 1.363 . S
C603 C609 1.363 . S
C604 C605 1.348 1_565 S
C604 C609 1.379 1_565 S
C604 N611 1.356 . S
C605 C604 1.348 1_545 S
C605 C608 1.396 . S
N606 C608 1.356 . S
N606 H618 0.984 . S
N606 H619 0.985 . S
N607 C609 1.356 1_565 S
N607 H612 0.984 1_565 S
N607 H613 0.985 . S
C608 C602 1.379 . S
C608 C605 1.396 . S
C608 N606 1.356 . S
C609 C603 1.363 . S
C609 C604 1.379 1_545 S
C609 N607 1.356 1_545 S
N610 C602 1.356 . S
N610 H616 0.984 . S
N610 H617 0.984 . S
N611 C604 1.356 . S
N611 H614 0.984 . S
N611 H615 0.985 . S
H612 N607 0.984 1_545 S
H613 N607 0.985 . S
H614 N611 0.984 . S
H615 N611 0.985 . S
H616 N610 0.984 . S
H617 N610 0.984 . S
H618 N606 0.984 . S
H619 N606 0.985 . S
C620 C621 1.363 . S
C620 C626 1.379 . S
C620 N628 1.356 . S
C621 C620 1.363 . S
C621 C627 1.363 . S
C622 C623 1.363 . S
C622 C627 1.379 . S
C622 N629 1.356 . S
C623 C622 1.363 . S
C623 C626 1.363 . S
N624 C626 1.356 . S
N624 H636 0.984 . S
N624 H637 0.985 . S
N625 C627 1.356 . S
N625 H630 0.984 1_554 S
N625 H631 0.985 1_554 S
C626 C620 1.379 . S
C626 C623 1.363 . S
C626 N624 1.356 . S
C627 C621 1.363 . S
C627 C622 1.379 . S
C627 N625 1.356 . S
N628 C620 1.356 . S
N628 H634 0.984 . S
N628 H635 0.984 . S
N629 C622 1.356 . S
N629 H632 0.984 . S
N629 H633 0.985 . S
H630 N625 0.984 1_556 S
H631 N625 0.985 1_556 S
H632 N629 0.984 . S
H633 N629 0.985 . S
H634 N628 0.984 . S
H635 N628 0.984 . S
H636 N624 0.984 . S
H637 N624 0.985 . S
C638 C639 1.363 . S
C638 C644 1.379 . S
C638 N646 1.356 . S
C639 C638 1.363 . S
C639 C645 1.363 . S
C640 C641 1.363 . S
C640 C645 1.379 . S
C640 N647 1.356 . S
C641 C640 1.363 . S
C641 C644 1.363 . S
N642 C644 1.356 . S
N642 H654 0.984 . S
N642 H655 0.985 . S
N643 C645 1.356 . S
N643 H648 0.984 . S
N643 H649 0.985 . S
C644 C638 1.379 . S
C644 C641 1.363 . S
C644 N642 1.356 . S
C645 C639 1.363 . S
C645 C640 1.379 . S
C645 N643 1.356 . S
N646 C638 1.356 . S
N646 H652 0.984 . S
N646 H653 0.984 . S
N647 C640 1.356 . S
N647 H650 0.984 . S
N647 H651 0.985 . S
H648 N643 0.984 . S
H649 N643 0.985 . S
H650 N647 0.984 . S
H651 N647 0.985 . S
H652 N646 0.984 . S
H653 N646 0.984 . S
H654 N642 0.984 . S
H655 N642 0.985 . S
C656 C657 1.363 . S
C656 C662 1.379 1_655 S
C656 N664 1.356 . S
C657 C656 1.363 . S
C657 C663 1.363 . S
C658 C659 1.363 . S
C658 C663 1.379 1_455 S
C658 N665 1.356 . S
C659 C658 1.363 . S
C659 C662 1.363 . S
N660 C662 1.356 . S
N660 H672 0.984 . S
N660 H673 0.985 . S
N661 C663 1.356 . S
N661 H666 0.984 . S
N661 H667 0.985 . S
C662 C656 1.379 1_455 S
C662 C659 1.363 . S
C662 N660 1.356 . S
C663 C657 1.363 . S
C663 C658 1.379 1_655 S
C663 N661 1.356 . S
N664 C656 1.356 . S
N664 H670 0.984 . S
N664 H671 0.984 . S
N665 C658 1.356 . S
N665 H668 0.984 . S
N665 H669 0.985 1_554 S
H666 N661 0.984 . S
H667 N661 0.985 . S
H668 N665 0.984 . S
H669 N665 0.985 1_556 S
H670 N664 0.984 . S
H671 N664 0.984 . S
H672 N660 0.984 . S
H673 N660 0.985 . S
C674 C675 1.363 . S
C674 C680 1.379 . S
C674 N682 1.356 . S
C675 C674 1.363 . S
C675 C681 1.363 1_565 S
C676 C677 1.363 . S
C676 C681 1.379 . S
C676 N683 1.356 . S
C677 C676 1.363 . S
C677 C680 1.363 1_545 S
N678 C680 1.356 . S
N678 H690 0.984 . S
N678 H691 0.980 1_565 S
N679 C681 1.356 . S
N679 H684 0.984 . S
N679 H685 0.985 . S
C680 C674 1.379 . S
C680 C677 1.363 1_565 S
C680 N678 1.356 . S
C681 C675 1.363 1_545 S
C681 C676 1.379 . S
C681 N679 1.356 . S
N682 C674 1.356 . S
N682 H688 0.984 . S
N682 H689 0.984 . S
N683 C676 1.356 . S
N683 H686 0.984 . S
N683 H687 0.985 . S
H684 N679 0.984 . S
H685 N679 0.985 . S
H686 N683 0.984 . S
H687 N683 0.985 . S
H688 N682 0.984 . S
H689 N682 0.984 . S
H690 N678 0.984 . S
H691 N678 0.980 1_545 S
C692 C693 1.363 . S
C692 C698 1.379 . S
C692 N700 1.356 . S
C693 C692 1.363 . S
C693 C699 1.363 . S
C694 C695 1.363 . S
C694 C699 1.379 . S
C694 N701 1.356 . S
C695 C694 1.363 . S
C695 C698 1.363 . S
N696 C698 1.356 . S
N696 H708 0.984 . S
N696 H709 0.985 . S
N697 C699 1.356 . S
N697 H702 0.984 . S
N697 H703 0.985 . S
C698 C692 1.379 . S
C698 C695 1.363 . S
C698 N696 1.356 . S
C699 C693 1.363 . S
C699 C694 1.379 . S
C699 N697 1.356 . S
N700 C692 1.356 . S
N700 H706 0.984 . S
N700 H707 0.984 . S
N701 C694 1.356 . S
N701 H704 0.984 . S
N701 H705 0.985 . S
H702 N697 0.984 . S
H703 N697 0.985 . S
H704 N701 0.984 . S
H705 N701 0.985 . S
H706 N700 0.984 . S
H707 N700 0.984 . S
H708 N696 0.984 . S
H709 N696 0.985 . S
C710 C711 1.363 . S
C710 C716 1.379 . S
C710 N718 1.356 . S
C711 C710 1.363 . S
C711 C717 1.363 . S
C712 C713 1.363 . S
C712 C717 1.379 . S
C712 N719 1.356 . S
C713 C712 1.363 . S
C713 C716 1.363 . S
N714 C716 1.356 . S
N714 H726 0.984 1_554 S
N714 H727 0.985 . S
N715 C717 1.356 . S
N715 H720 0.984 . S
N715 H721 0.985 . S
C716 C710 1.379 . S
C716 C713 1.363 . S
C716 N714 1.356 . S
C717 C711 1.363 . S
C717 C712 1.379 . S
C717 N715 1.356 . S
N718 C710 1.356 . S
N718 H724 0.984 . S
N718 H725 0.984 . S
N719 C712 1.356 . S
N719 H722 0.984 . S
N719 H723 0.985 . S
H720 N715 0.984 . S
H721 N715 0.985 . S
H722 N719 0.984 . S
H723 N719 0.985 . S
H724 N718 0.984 . S
H725 N718 0.984 . S
H726 N714 0.984 1_556 S
H727 N714 0.985 . S
C728 C729 1.363 . S
C728 C734 1.379 . S
C728 N736 1.359 . S
C729 C728 1.363 . S
C729 C735 1.363 . S
C730 C731 1.363 . S
C730 C735 1.379 . S
C730 N737 1.356 . S
C731 C730 1.363 . S
C731 C734 1.363 . S
N732 C734 1.356 1_655 S
N732 H744 0.984 . S
N732 H745 0.984 1_655 S
N733 C735 1.356 1_554 S
N733 H738 0.984 1_554 S
N733 H739 0.985 . S
C734 C728 1.379 . S
C734 C731 1.363 . S
C734 N732 1.356 1_455 S
C735 C729 1.363 . S
C735 C730 1.379 . S
C735 N733 1.356 1_556 S
N736 C728 1.359 . S
N736 H742 0.980 1_455 S
N736 H743 0.986 . S
N737 C730 1.356 . S
N737 H740 0.984 . S
N737 H741 0.985 1_556 S
H738 N733 0.984 1_556 S
H739 N733 0.985 . S
H740 N737 0.984 . S
H741 N737 0.985 1_554 S
H742 N736 0.980 1_655 S
H743 N736 0.986 . S
H744 N732 0.984 . S
H745 N732 0.984 1_455 S
C746 C747 1.363 . S
C746 C752 1.379 . S
C746 N754 1.356 1_556 S
C747 C746 1.363 . S
C747 C753 1.363 . S
C748 C749 1.363 . S
C748 C753 1.379 . S
C748 N755 1.356 . S
C749 C748 1.363 . S
C749 C752 1.363 . S
N750 C752 1.356 . S
N750 H762 0.984 1_556 S
N750 H763 0.985 . S
N751 C753 1.356 . S
N751 H756 0.984 . S
N751 H757 0.985 1_545 S
C752 C746 1.379 . S
C752 C749 1.363 . S
C752 N750 1.356 . S
C753 C747 1.363 . S
C753 C748 1.379 . S
C753 N751 1.356 . S
N754 C746 1.356 1_554 S
N754 H760 0.984 . S
N754 H761 0.984 1_554 S
N755 C748 1.356 . S
N755 H758 0.984 . S
N755 H759 0.985 1_545 S
H756 N751 0.984 . S
H757 N751 0.985 1_565 S
H758 N755 0.984 . S
H759 N755 0.985 1_565 S
H760 N754 0.984 . S
H761 N754 0.984 1_556 S
H762 N750 0.984 1_554 S
H763 N750 0.985 . S
C764 C765 1.363 . S
C764 C770 1.379 . S
C764 N772 1.356 . S
C765 C764 1.363 . S
C765 C771 1.363 . S
C766 C767 1.363 . S
C766 C771 1.379 . S
C766 N773 1.356 . S
C767 C766 1.363 . S
C767 C770 1.363 . S
N768 C770 1.356 . S
N768 H780 0.984 . S
N768 H781 0.985 . S
N769 C771 1.356 . S
N769 H774 0.984 . S
N769 H775 0.985 1_556 S
C770 C764 1.379 . S
C770 C767 1.363 . S
C770 N768 1.356 . S
C771 C765 1.363 . S
C771 C766 1.379 . S
C771 N769 1.356 . S
N772 C764 1.356 . S
N772 H778 0.984 . S
N772 H779 0.984 . S
N773 C766 1.356 . S
N773 H776 0.984 . S
N773 H777 0.985 1_556 S
H774 N769 0.984 . S
H775 N769 0.985 1_554 S
H776 N773 0.984 . S
H777 N773 0.985 1_554 S
H778 N772 0.984 . S
H779 N772 0.984 . S
H780 N768 0.984 . S
H781 N768 0.985 . S
C782 C783 1.363 . S
C782 C788 1.379 . S
C782 N790 1.356 . S
C783 C782 1.363 . S
C783 C789 1.363 . S
C784 C785 1.363 . S
C784 C789 1.379 . S
C784 N791 1.356 . S
C785 C784 1.363 . S
C785 C788 1.363 . S
N786 C788 1.356 . S
N786 H798 0.984 . S
N786 H799 0.985 . S
N787 C789 1.356 . S
N787 H792 0.984 . S
N787 H793 0.985 1_556 S
C788 C782 1.379 . S
C788 C785 1.363 . S
C788 N786 1.356 . S
C789 C783 1.363 . S
C789 C784 1.379 . S
C789 N787 1.356 . S
N790 C782 1.356 . S
N790 H796 0.984 . S
N790 H797 0.984 . S
N791 C784 1.356 . S
N791 H794 0.984 . S
N791 H795 0.985 1_556 S
H792 N787 0.984 . S
H793 N787 0.985 1_554 S
H794 N791 0.984 . S
H795 N791 0.985 1_554 S
H796 N790 0.984 . S
H797 N790 0.984 . S
H798 N786 0.984 . S
H799 N786 0.985 . S
C800 C801 1.363 1_455 S
C800 C806 1.379 . S
C800 N808 1.356 . S
C801 C800 1.363 1_655 S
C801 C807 1.363 . S
C802 C803 1.363 . S
C802 C807 1.379 . S
C802 N809 1.356 . S
C803 C802 1.363 . S
C803 C806 1.363 1_655 S
N804 C806 1.356 . S
N804 H816 0.984 . S
N804 H817 0.985 . S
N805 C807 1.356 . S
N805 H810 0.984 . S
N805 H811 0.985 . S
C806 C800 1.379 . S
C806 C803 1.363 1_455 S
C806 N804 1.356 . S
C807 C801 1.363 . S
C807 C802 1.379 . S
C807 N805 1.356 . S
N808 C800 1.356 . S
N808 H814 0.984 . S
N808 H815 0.984 . S
N809 C802 1.356 . S
N809 H812 0.984 . S
N809 H813 0.985 . S
H810 N805 0.984 . S
H811 N805 0.985 . S
H812 N809 0.984 . S
H813 N809 0.985 . S
H814 N808 0.984 . S
H815 N808 0.984 . S
H816 N804 0.984 . S
H817 N804 0.985 . S
C818 C819 1.363 . S
C818 C824 1.379 . S
C818 N826 1.356 . S
C819 C818 1.363 . S
C819 C825 1.363 1_565 S
C820 C821 1.363 1_545 S
C820 C825 1.379 . S
C820 N827 1.356 . S
C821 C820 1.363 1_565 S
C821 C824 1.363 . S
N822 C824 1.356 . S
N822 H834 0.984 . S
N822 H835 0.985 . S
N823 C825 1.356 . S
N823 H828 0.984 . S
N823 H829 0.985 . S
C824 C818 1.379 . S
C824 C821 1.363 . S
C824 N822 1.356 . S
C825 C819 1.363 1_545 S
C825 C820 1.379 . S
C825 N823 1.356 . S
N826 C818 1.356 . S
N826 H832 0.984 . S
N826 H833 0.984 . S
N827 C820 1.356 . S
N827 H830 0.984 . S
N827 H831 0.985 . S
H828 N823 0.984 . S
H829 N823 0.985 . S
H830 N827 0.984 . S
H831 N827 0.985 . S
H832 N826 0.984 . S
H833 N826 0.984 . S
H834 N822 0.984 . S
H835 N822 0.985 . S
C836 C837 1.363 . S
C836 C842 1.379 . S
C836 N844 1.356 . S
C837 C836 1.363 . S
C837 C843 1.363 . S
C838 C839 1.363 . S
C838 C843 1.379 . S
C838 N845 1.356 . S
C839 C838 1.363 . S
C839 C842 1.363 . S
N840 C842 1.356 . S
N840 H852 0.984 . S
N840 H853 0.985 . S
N841 C843 1.356 . S
N841 H846 0.984 . S
N841 H847 0.985 . S
C842 C836 1.379 . S
C842 C839 1.363 . S
C842 N840 1.356 . S
C843 C837 1.363 . S
C843 C838 1.379 . S
C843 N841 1.356 . S
N844 C836 1.356 . S
N844 H850 0.984 . S
N844 H851 0.984 . S
N845 C838 1.356 . S
N845 H848 0.984 . S
N845 H849 0.985 . S
H846 N841 0.984 . S
H847 N841 0.985 . S
H848 N845 0.984 . S
H849 N845 0.985 . S
H850 N844 0.984 . S
H851 N844 0.984 . S
H852 N840 0.984 . S
H853 N840 0.985 . S
C854 C855 1.363 . S
C854 C860 1.379 . S
C854 N862 1.356 . S
C855 C854 1.363 . S
C855 C861 1.363 . S
C856 C857 1.363 . S
C856 C861 1.379 . S
C856 N863 1.356 . S
C857 C856 1.363 . S
C857 C860 1.363 . S
N858 C860 1.356 . S
N858 H870 0.984 . S
N858 H871 0.985 . S
N859 C861 1.356 . S
N859 H864 0.984 . S
N859 H865 0.985 . S
C860 C854 1.379 . S
C860 C857 1.363 . S
C860 N858 1.356 . S
C861 C855 1.363 . S
C861 C856 1.379 . S
C861 N859 1.356 . S
N862 C854 1.356 . S
N862 H868 0.984 . S
N862 H869 0.984 . S
N863 C856 1.356 . S
N863 H866 0.984 . S
N863 H867 0.985 . S
H864 N859 0.984 . S
H865 N859 0.985 . S
H866 N863 0.984 . S
H867 N863 0.985 . S
H868 N862 0.984 . S
H869 N862 0.984 . S
H870 N858 0.984 . S
H871 N858 0.985 . S
C441 C82 1.805 . S
C443 C167 2.174 . S
C461 C244 2.176 . S
C459 C95 1.804 . S
C479 C335 2.174 . S
C477 C56 1.801 . S
C497 C419 2.161 . S
C495 C69 1.794 . S
C515 C178 2.170 1_564 S
C513 C30 1.770 . S
C531 C43 1.769 . S
C533 C255 2.176 1_554 S
C549 C4 1.767 . S
C551 C346 2.174 1_554 S
C567 C17 1.761 . S
C569 C430 2.162 1_654 S
C587 C162 0.770 . S
C585 C74 0.768 . S
C605 C257 0.747 1_545 S
C603 C87 0.756 . S
C623 C330 0.776 . S
C621 C100 0.774 . S
C639 C61 0.756 . S
C641 C414 0.757 . S
C657 C22 0.767 . S
C659 C173 0.769 . S
C677 C246 0.756 . S
C675 C35 0.755 . S
C695 C341 0.776 . S
C693 C48 0.773 . S
C711 C9 0.756 . S
C713 C425 0.757 . S
C729 C73 2.029 . S
C731 C171 2.284 . S
C747 C86 2.034 . S
C749 C262 2.331 . S
C767 C339 2.299 . S
C765 C99 2.041 . S
C785 C423 2.303 . S
C783 C60 2.046 . S
C801 C21 2.027 . S
C803 C160 2.284 . S
C821 C251 2.331 1_565 S
C819 C34 2.032 . S
C839 C328 2.299 . S
C837 C47 2.039 . S
C855 C8 2.045 . S
C857 C412 2.303 . S
