# Generated by pormake.
# Topology eea, (3,6)-cn, num edge types: 1
# Building blocks:
#     Node 0, Type 0, BuildingBlock: VETTIZ_charged_linker_0, # of connection points: 3
#     Node 1, Type 0, BuildingBlock: VETTIZ_charged_linker_0, # of connection points: 3
#     Node 2, Type 0, BuildingBlock: VETTIZ_charged_linker_0, # of connection points: 3
#     Node 3, Type 0, BuildingBlock: VETTIZ_charged_linker_0, # of connection points: 3
#     Node 4, Type 0, BuildingBlock: VETTIZ_charged_linker_0, # of connection points: 3
#     Node 5, Type 0, BuildingBlock: VETTIZ_charged_linker_0, # of connection points: 3
#     Node 6, Type 0, BuildingBlock: VETTIZ_charged_linker_0, # of connection points: 3
#     Node 7, Type 0, BuildingBlock: VETTIZ_charged_linker_0, # of connection points: 3
#     Node 8, Type 0, BuildingBlock: VETTIZ_charged_linker_0, # of connection points: 3
#     Node 9, Type 0, BuildingBlock: VETTIZ_charged_linker_0, # of connection points: 3
#     Node 10, Type 0, BuildingBlock: VETTIZ_charged_linker_0, # of connection points: 3
#     Node 11, Type 0, BuildingBlock: VETTIZ_charged_linker_0, # of connection points: 3
#     Node 12, Type 0, BuildingBlock: VETTIZ_charged_linker_0, # of connection points: 3
#     Node 13, Type 0, BuildingBlock: VETTIZ_charged_linker_0, # of connection points: 3
#     Node 14, Type 0, BuildingBlock: VETTIZ_charged_linker_0, # of connection points: 3
#     Node 15, Type 0, BuildingBlock: VETTIZ_charged_linker_0, # of connection points: 3
#     Node 16, Type 0, BuildingBlock: VETTIZ_charged_linker_0, # of connection points: 3
#     Node 17, Type 0, BuildingBlock: VETTIZ_charged_linker_0, # of connection points: 3
#     Node 18, Type 1, BuildingBlock: CUWYAW_clean_sbu_0, # of connection points: 6
#     Node 19, Type 1, BuildingBlock: CUWYAW_clean_sbu_0, # of connection points: 6
#     Node 20, Type 1, BuildingBlock: CUWYAW_clean_sbu_0, # of connection points: 6
#     Node 21, Type 1, BuildingBlock: CUWYAW_clean_sbu_0, # of connection points: 6
#     Node 22, Type 1, BuildingBlock: CUWYAW_clean_sbu_0, # of connection points: 6
#     Node 23, Type 1, BuildingBlock: CUWYAW_clean_sbu_0, # of connection points: 6
#     Node 24, Type 1, BuildingBlock: CUWYAW_clean_sbu_0, # of connection points: 6
#     Node 25, Type 1, BuildingBlock: CUWYAW_clean_sbu_0, # of connection points: 6
#     Node 26, Type 1, BuildingBlock: CUWYAW_clean_sbu_0, # of connection points: 6
#     Edge 27, Type (0, 1), BuildingBlock: MIFKUJ_clean_linker_0, # of connection points: 2
#     Edge 28, Type (0, 1), BuildingBlock: MIFKUJ_clean_linker_0, # of connection points: 2
#     Edge 29, Type (0, 1), BuildingBlock: MIFKUJ_clean_linker_0, # of connection points: 2
#     Edge 30, Type (0, 1), BuildingBlock: MIFKUJ_clean_linker_0, # of connection points: 2
#     Edge 31, Type (0, 1), BuildingBlock: MIFKUJ_clean_linker_0, # of connection points: 2
#     Edge 32, Type (0, 1), BuildingBlock: MIFKUJ_clean_linker_0, # of connection points: 2
#     Edge 33, Type (0, 1), BuildingBlock: MIFKUJ_clean_linker_0, # of connection points: 2
#     Edge 34, Type (0, 1), BuildingBlock: MIFKUJ_clean_linker_0, # of connection points: 2
#     Edge 35, Type (0, 1), BuildingBlock: MIFKUJ_clean_linker_0, # of connection points: 2
#     Edge 36, Type (0, 1), BuildingBlock: MIFKUJ_clean_linker_0, # of connection points: 2
#     Edge 37, Type (0, 1), BuildingBlock: MIFKUJ_clean_linker_0, # of connection points: 2
#     Edge 38, Type (0, 1), BuildingBlock: MIFKUJ_clean_linker_0, # of connection points: 2
#     Edge 39, Type (0, 1), BuildingBlock: MIFKUJ_clean_linker_0, # of connection points: 2
#     Edge 40, Type (0, 1), BuildingBlock: MIFKUJ_clean_linker_0, # of connection points: 2
#     Edge 41, Type (0, 1), BuildingBlock: MIFKUJ_clean_linker_0, # of connection points: 2
#     Edge 42, Type (0, 1), BuildingBlock: MIFKUJ_clean_linker_0, # of connection points: 2
#     Edge 43, Type (0, 1), BuildingBlock: MIFKUJ_clean_linker_0, # of connection points: 2
#     Edge 44, Type (0, 1), BuildingBlock: MIFKUJ_clean_linker_0, # of connection points: 2
#     Edge 45, Type (0, 1), BuildingBlock: MIFKUJ_clean_linker_0, # of connection points: 2
#     Edge 46, Type (0, 1), BuildingBlock: MIFKUJ_clean_linker_0, # of connection points: 2
#     Edge 47, Type (0, 1), BuildingBlock: MIFKUJ_clean_linker_0, # of connection points: 2
#     Edge 48, Type (0, 1), BuildingBlock: MIFKUJ_clean_linker_0, # of connection points: 2
#     Edge 49, Type (0, 1), BuildingBlock: MIFKUJ_clean_linker_0, # of connection points: 2
#     Edge 50, Type (0, 1), BuildingBlock: MIFKUJ_clean_linker_0, # of connection points: 2
#     Edge 51, Type (0, 1), BuildingBlock: MIFKUJ_clean_linker_0, # of connection points: 2
#     Edge 52, Type (0, 1), BuildingBlock: MIFKUJ_clean_linker_0, # of connection points: 2
#     Edge 53, Type (0, 1), BuildingBlock: MIFKUJ_clean_linker_0, # of connection points: 2
#     Edge 54, Type (0, 1), BuildingBlock: MIFKUJ_clean_linker_0, # of connection points: 2
#     Edge 55, Type (0, 1), BuildingBlock: MIFKUJ_clean_linker_0, # of connection points: 2
#     Edge 56, Type (0, 1), BuildingBlock: MIFKUJ_clean_linker_0, # of connection points: 2
#     Edge 57, Type (0, 1), BuildingBlock: MIFKUJ_clean_linker_0, # of connection points: 2
#     Edge 58, Type (0, 1), BuildingBlock: MIFKUJ_clean_linker_0, # of connection points: 2
#     Edge 59, Type (0, 1), BuildingBlock: MIFKUJ_clean_linker_0, # of connection points: 2
#     Edge 60, Type (0, 1), BuildingBlock: MIFKUJ_clean_linker_0, # of connection points: 2
#     Edge 61, Type (0, 1), BuildingBlock: MIFKUJ_clean_linker_0, # of connection points: 2
#     Edge 62, Type (0, 1), BuildingBlock: MIFKUJ_clean_linker_0, # of connection points: 2
#     Edge 63, Type (0, 1), BuildingBlock: MIFKUJ_clean_linker_0, # of connection points: 2
#     Edge 64, Type (0, 1), BuildingBlock: MIFKUJ_clean_linker_0, # of connection points: 2
#     Edge 65, Type (0, 1), BuildingBlock: MIFKUJ_clean_linker_0, # of connection points: 2
#     Edge 66, Type (0, 1), BuildingBlock: MIFKUJ_clean_linker_0, # of connection points: 2
#     Edge 67, Type (0, 1), BuildingBlock: MIFKUJ_clean_linker_0, # of connection points: 2
#     Edge 68, Type (0, 1), BuildingBlock: MIFKUJ_clean_linker_0, # of connection points: 2
#     Edge 69, Type (0, 1), BuildingBlock: MIFKUJ_clean_linker_0, # of connection points: 2
#     Edge 70, Type (0, 1), BuildingBlock: MIFKUJ_clean_linker_0, # of connection points: 2
#     Edge 71, Type (0, 1), BuildingBlock: MIFKUJ_clean_linker_0, # of connection points: 2
#     Edge 72, Type (0, 1), BuildingBlock: MIFKUJ_clean_linker_0, # of connection points: 2
#     Edge 73, Type (0, 1), BuildingBlock: MIFKUJ_clean_linker_0, # of connection points: 2
#     Edge 74, Type (0, 1), BuildingBlock: MIFKUJ_clean_linker_0, # of connection points: 2
#     Edge 75, Type (0, 1), BuildingBlock: MIFKUJ_clean_linker_0, # of connection points: 2
#     Edge 76, Type (0, 1), BuildingBlock: MIFKUJ_clean_linker_0, # of connection points: 2
#     Edge 77, Type (0, 1), BuildingBlock: MIFKUJ_clean_linker_0, # of connection points: 2
#     Edge 78, Type (0, 1), BuildingBlock: MIFKUJ_clean_linker_0, # of connection points: 2
#     Edge 79, Type (0, 1), BuildingBlock: MIFKUJ_clean_linker_0, # of connection points: 2
#     Edge 80, Type (0, 1), BuildingBlock: MIFKUJ_clean_linker_0, # of connection points: 2
# Relax obj value: 0.035
# Max RMSD: 0.136
# Mean RMSD: 0.066
data_MOF--net-eea--node1-CUWYAW_clean_sbu_0--node2-VETTIZ_charged_linker_0--edge1-MIFKUJ_clean_linker_0
_symmetry_space_group_name_H-M    P1
_symmetry_Int_Tables_number       1
_symmetry_cell_setting            triclinic
loop_
_symmetry_equiv_pos_as_xyz
'x, y, z'
_cell_length_a     77.50837
_cell_length_b     77.32541
_cell_length_c     108.70163
_cell_angle_alpha  93.426687
_cell_angle_beta   93.419851
_cell_angle_gamma 119.82861
loop_
_atom_site_label
_atom_site_type_symbol
_atom_site_fract_x
_atom_site_fract_y
_atom_site_fract_z
_atom_type_partial_charge
C0 C 0.24895 0.18284 0.38916 0.0
C1 C 0.25163 0.20101 0.39473 0.0
C2 C 0.26106 0.20789 0.40692 0.0
C3 C 0.26353 0.17798 0.40809 0.0
C4 C 0.25501 0.17164 0.39597 0.0
C5 C 0.25265 0.15171 0.39154 0.0
H6 H 0.25762 0.06978 0.40453 0.0
C7 C 0.26692 0.16226 0.41279 0.0
C8 C 0.26074 0.14691 0.4031 0.0
H9 H 0.23788 0.08158 0.36961 0.0
H10 H 0.24593 0.11437 0.37854 0.0
H11 H 0.29731 0.11503 0.4112 0.0
H12 H 0.23692 0.08619 0.42093 0.0
H13 H 0.25202 0.10182 0.43412 0.0
H14 H 0.25545 0.08156 0.42816 0.0
H15 H 0.28796 0.09564 0.42143 0.0
H16 H 0.2983 0.12164 0.4271 0.0
C17 C 0.26583 0.15478 0.38078 0.0
C18 C 0.23006 0.13669 0.38804 0.0
C19 C 0.29015 0.1678 0.4583 0.0
C20 C 0.29232 0.15447 0.46559 0.0
C21 C 0.28965 0.13637 0.45984 0.0
C22 C 0.28441 0.13137 0.44705 0.0
C23 C 0.28157 0.14449 0.43993 0.0
C24 C 0.28462 0.16245 0.44554 0.0
C25 C 0.28012 0.17412 0.43659 0.0
C26 C 0.27379 0.16017 0.4247 0.0
C27 C 0.27469 0.14286 0.42672 0.0
C28 C 0.29965 0.19415 0.43573 0.0
C29 C 0.2627 0.17651 0.44104 0.0
C30 C 0.25534 0.07956 0.39876 0.0
C31 C 0.24704 0.07307 0.38636 0.0
C32 C 0.24402 0.08615 0.37922 0.0
C33 C 0.24876 0.10521 0.38442 0.0
C34 C 0.25646 0.11124 0.39694 0.0
C35 C 0.25988 0.0986 0.40384 0.0
C36 C 0.2678 0.10739 0.41704 0.0
C37 C 0.26866 0.12742 0.4169 0.0
C38 C 0.26189 0.12953 0.40513 0.0
C39 C 0.2889 0.11 0.41945 0.0
C40 C 0.25244 0.09357 0.42559 0.0
H41 H 0.27382 0.20237 0.42293 0.0
H42 H 0.24207 0.17733 0.37973 0.0
H43 H 0.22095 0.13923 0.39467 0.0
H44 H 0.22603 0.12092 0.38847 0.0
H45 H 0.22509 0.13841 0.37862 0.0
H46 H 0.27951 0.16989 0.38208 0.0
H47 H 0.25759 0.15346 0.37174 0.0
H48 H 0.27151 0.1442 0.38026 0.0
H49 H 0.2919 0.18172 0.46251 0.0
H50 H 0.29145 0.12599 0.46529 0.0
H51 H 0.28241 0.11729 0.44325 0.0
H52 H 0.31289 0.19211 0.43661 0.0
H53 H 0.3019 0.20569 0.44324 0.0
H54 H 0.30008 0.20007 0.42668 0.0
H55 H 0.2517 0.16277 0.445 0.0
H56 H 0.25391 0.17853 0.4335 0.0
H57 H 0.26829 0.18928 0.44835 0.0
H58 H 0.26323 0.22181 0.41143 0.0
C59 C 0.26705 0.1965 0.41362 0.0
C60 C 0.94138 0.1745 0.40166 0.0
C61 C 0.95604 0.1933 0.40754 0.0
C62 C 0.95314 0.19997 0.41917 0.0
C63 C 0.92164 0.16895 0.41907 0.0
C64 C 0.92428 0.16271 0.40751 0.0
C65 C 0.90692 0.14265 0.40233 0.0
H66 H 0.81878 0.06074 0.41018 0.0
C67 C 0.90244 0.15303 0.42265 0.0
C68 C 0.89364 0.13767 0.41281 0.0
H69 H 0.85117 0.0731 0.3778 0.0
H70 H 0.8764 0.1054 0.38794 0.0
H71 H 0.85768 0.07881 0.43052 0.0
H72 H 0.8233 0.10339 0.41485 0.0
H73 H 0.83033 0.11349 0.43041 0.0
H74 H 0.81463 0.08672 0.42672 0.0
H75 H 0.83259 0.07104 0.43385 0.0
H76 H 0.85383 0.09214 0.44267 0.0
C77 C 0.91478 0.12788 0.4004 0.0
C78 C 0.89703 0.14546 0.39037 0.0
C79 C 0.88205 0.15888 0.46567 0.0
C80 C 0.86528 0.14625 0.47164 0.0
C81 C 0.85001 0.12825 0.46509 0.0
C82 C 0.85153 0.12274 0.45287 0.0
C83 C 0.86849 0.13534 0.44708 0.0
C84 C 0.88329 0.15319 0.4534 0.0
C85 C 0.89999 0.16488 0.44562 0.0
C86 C 0.89291 0.15091 0.43368 0.0
C87 C 0.87453 0.13359 0.43464 0.0
C88 C 0.9195 0.16725 0.4521 0.0
C89 C 0.90076 0.18496 0.44372 0.0
C90 C 0.8314 0.07038 0.40533 0.0
C91 C 0.83309 0.06436 0.39322 0.0
C92 C 0.84951 0.07748 0.38711 0.0
C93 C 0.86418 0.09618 0.39304 0.0
C94 C 0.86239 0.10192 0.4052 0.0
C95 C 0.84608 0.08919 0.41108 0.0
C96 C 0.84633 0.09803 0.42384 0.0
C97 C 0.86556 0.11811 0.42468 0.0
C98 C 0.87499 0.12022 0.41379 0.0
C99 C 0.84754 0.08434 0.43329 0.0
C100 C 0.82766 0.10046 0.4241 0.0
H101 H 0.93479 0.19367 0.43388 0.0
H102 H 0.94309 0.1692 0.39261 0.0
H103 H 0.89905 0.16078 0.39073 0.0
H104 H 0.88064 0.13532 0.38907 0.0
H105 H 0.90362 0.14327 0.38204 0.0
H106 H 0.92556 0.12998 0.40838 0.0
H107 H 0.92264 0.13036 0.3919 0.0
H108 H 0.90291 0.11202 0.39981 0.0
H109 H 0.8939 0.17293 0.47041 0.0
H110 H 0.83705 0.11817 0.46953 0.0
H111 H 0.83949 0.10877 0.44846 0.0
H112 H 0.91665 0.15298 0.45569 0.0
H113 H 0.92556 0.17904 0.46008 0.0
H114 H 0.93125 0.17086 0.44584 0.0
H115 H 0.88569 0.18337 0.44384 0.0
H116 H 0.90546 0.19015 0.4346 0.0
H117 H 0.91086 0.19689 0.45115 0.0
H118 H 0.96428 0.21443 0.42384 0.0
C119 C 0.93606 0.18787 0.42498 0.0
C120 C 0.94297 0.77371 0.40498 0.0
C121 C 0.95943 0.77301 0.41064 0.0
C122 C 0.95882 0.76798 0.42296 0.0
C123 C 0.92598 0.76436 0.4236 0.0
C124 C 0.92666 0.76961 0.41164 0.0
C125 C 0.90862 0.77091 0.40719 0.0
H126 H 0.8211 0.76468 0.41917 0.0
C127 C 0.90695 0.76114 0.42792 0.0
C128 C 0.8968 0.76515 0.41836 0.0
H129 H 0.85099 0.78168 0.3859 0.0
H130 H 0.87723 0.77642 0.39458 0.0
H131 H 0.82639 0.72752 0.42158 0.0
H132 H 0.86009 0.78815 0.43854 0.0
H133 H 0.8574 0.77241 0.4502 0.0
H134 H 0.83544 0.77041 0.44208 0.0
H135 H 0.8188 0.73575 0.4349 0.0
H136 H 0.83554 0.72589 0.43634 0.0
C137 C 0.8975 0.75531 0.39577 0.0
C138 C 0.91574 0.79287 0.40467 0.0
C139 C 0.88783 0.73692 0.47031 0.0
C140 C 0.87052 0.73162 0.4763 0.0
C141 C 0.85498 0.73359 0.47043 0.0
C142 C 0.85652 0.7406 0.45877 0.0
C143 C 0.87375 0.74566 0.45281 0.0
C144 C 0.88903 0.74371 0.45853 0.0
C145 C 0.90594 0.74937 0.45055 0.0
C146 C 0.89816 0.75485 0.43912 0.0
C147 C 0.87939 0.7528 0.4406 0.0
C148 C 0.90797 0.73065 0.44762 0.0
C149 C 0.92498 0.76766 0.45741 0.0
C150 C 0.83315 0.76708 0.41366 0.0
C151 C 0.83394 0.7737 0.40183 0.0
C152 C 0.85013 0.77688 0.39511 0.0
C153 C 0.86534 0.77375 0.40015 0.0
C154 C 0.86442 0.7674 0.41207 0.0
C155 C 0.8484 0.76401 0.41855 0.0
C156 C 0.84966 0.75705 0.431 0.0
C157 C 0.86937 0.75732 0.43109 0.0
C158 C 0.87798 0.7634 0.42001 0.0
C159 C 0.83166 0.73551 0.43108 0.0
C160 C 0.85057 0.77265 0.44105 0.0
H161 H 0.94273 0.7599 0.43874 0.0
H162 H 0.94267 0.77733 0.39554 0.0
H163 H 0.929 0.80359 0.41117 0.0
H164 H 0.90446 0.79731 0.40619 0.0
H165 H 0.92004 0.79547 0.3951 0.0
H166 H 0.89746 0.74114 0.39712 0.0
H167 H 0.90484 0.76099 0.38727 0.0
H168 H 0.88159 0.75094 0.39414 0.0
H169 H 0.89996 0.73546 0.4746 0.0
H170 H 0.84165 0.72988 0.47495 0.0
H171 H 0.84418 0.74181 0.45486 0.0
H172 H 0.89296 0.71697 0.44554 0.0
H173 H 0.91585 0.72827 0.45564 0.0
H174 H 0.91582 0.73141 0.43937 0.0
H175 H 0.92112 0.77751 0.46306 0.0
H176 H 0.93524 0.77748 0.45102 0.0
H177 H 0.93318 0.76284 0.46377 0.0
H178 H 0.97136 0.76777 0.42775 0.0
C179 C 0.94221 0.76358 0.42942 0.0
C180 C 0.15067 0.21746 0.59224 0.0
C181 C 0.16754 0.21932 0.58689 0.0
C182 C 0.17061 0.22532 0.57483 0.0
C183 C 0.14038 0.2274 0.57368 0.0
C184 C 0.13734 0.22155 0.58549 0.0
C185 C 0.11863 0.22021 0.58977 0.0
H186 H 0.03521 0.22638 0.57737 0.0
C187 C 0.12373 0.23032 0.56917 0.0
C188 C 0.11091 0.22613 0.57854 0.0
H189 H 0.05501 0.21156 0.61109 0.0
H190 H 0.08466 0.2162 0.60229 0.0
H191 H 0.07827 0.26334 0.57365 0.0
H192 H 0.04788 0.20154 0.55816 0.0
H193 H 0.05852 0.21678 0.54621 0.0
H194 H 0.03974 0.21874 0.55417 0.0
H195 H 0.05781 0.25356 0.56169 0.0
H196 H 0.08322 0.26298 0.55811 0.0
C197 C 0.1247 0.23566 0.60127 0.0
C198 C 0.1043 0.1982 0.5921 0.0
C199 C 0.12186 0.25174 0.52615 0.0
C200 C 0.10853 0.2557 0.51924 0.0
C201 C 0.09154 0.25368 0.52456 0.0
C202 C 0.08785 0.24765 0.53652 0.0
C203 C 0.10134 0.24369 0.54328 0.0
C204 C 0.11802 0.24582 0.53805 0.0
C205 C 0.13089 0.24123 0.54655 0.0
C206 C 0.11924 0.23603 0.55779 0.0
C207 C 0.10191 0.23743 0.55584 0.0
C208 C 0.15162 0.26051 0.54944 0.0
C209 C 0.13144 0.22298 0.54028 0.0
C210 C 0.0459 0.22402 0.58279 0.0
C211 C 0.04275 0.21854 0.59492 0.0
C212 C 0.05718 0.21594 0.60177 0.0
C213 C 0.07434 0.21853 0.59661 0.0
C214 C 0.07722 0.22385 0.58446 0.0
C215 C 0.06324 0.22671 0.5778 0.0
C216 C 0.06918 0.23298 0.56516 0.0
C217 C 0.08882 0.23303 0.56527 0.0
C218 C 0.09338 0.22756 0.57658 0.0
C219 C 0.07218 0.25425 0.56449 0.0
C220 C 0.05301 0.21682 0.55533 0.0
H221 H 0.16037 0.23381 0.5591 0.0
H222 H 0.14797 0.21313 0.60153 0.0
H223 H 0.10492 0.18764 0.58497 0.0
H224 H 0.08846 0.1942 0.59144 0.0
H225 H 0.10844 0.19503 0.60131 0.0
H226 H 0.1395 0.24918 0.60064 0.0
H227 H 0.12579 0.22918 0.60993 0.0
H228 H 0.11433 0.24148 0.60212 0.0
H229 H 0.13526 0.25351 0.52245 0.0
H230 H 0.08098 0.25655 0.51941 0.0
H231 H 0.07463 0.24629 0.54004 0.0
H232 H 0.1501 0.2741 0.5501 0.0
H233 H 0.16146 0.26204 0.54206 0.0
H234 H 0.15937 0.2612 0.55848 0.0
H235 H 0.117 0.21244 0.53468 0.0
H236 H 0.13344 0.21381 0.54702 0.0
H237 H 0.14342 0.22779 0.53397 0.0
H238 H 0.1833 0.22661 0.57041 0.0
C239 C 0.15717 0.22937 0.56823 0.0
C240 C 0.76149 0.82371 0.61127 0.0
C241 C 0.75947 0.80611 0.60522 0.0
C242 C 0.75036 0.79986 0.59293 0.0
C243 C 0.74632 0.82899 0.59276 0.0
C244 C 0.75482 0.83483 0.6049 0.0
C245 C 0.75612 0.85403 0.60995 0.0
H246 H 0.74638 0.93428 0.5997 0.0
C247 C 0.7417 0.84426 0.5887 0.0
C248 C 0.7473 0.85891 0.59876 0.0
H249 H 0.76742 0.92168 0.63386 0.0
H250 H 0.76061 0.88972 0.62411 0.0
H251 H 0.76778 0.91857 0.5817 0.0
H252 H 0.70842 0.8902 0.59316 0.0
H253 H 0.70598 0.88157 0.5775 0.0
H254 H 0.71598 0.90798 0.58189 0.0
H255 H 0.7494 0.92494 0.57655 0.0
H256 H 0.7511 0.90486 0.56852 0.0
C257 C 0.77849 0.86979 0.61348 0.0
C258 C 0.74298 0.84956 0.62085 0.0
C259 C 0.71478 0.83903 0.54401 0.0
C260 C 0.7102 0.85155 0.53737 0.0
C261 C 0.71216 0.869 0.5437 0.0
C262 C 0.71884 0.87406 0.55635 0.0
C263 C 0.72377 0.86163 0.56278 0.0
C264 C 0.72152 0.84435 0.55665 0.0
C265 C 0.72761 0.83304 0.56498 0.0
C266 C 0.73393 0.84643 0.57711 0.0
C267 C 0.73172 0.86318 0.57573 0.0
C268 C 0.74541 0.83224 0.55976 0.0
C269 C 0.70902 0.81225 0.56587 0.0
C270 C 0.74957 0.92464 0.60505 0.0
C271 C 0.75761 0.93054 0.61752 0.0
C272 C 0.76116 0.91741 0.62425 0.0
C273 C 0.75732 0.89893 0.61855 0.0
C274 C 0.74983 0.89349 0.60597 0.0
C275 C 0.74573 0.9061 0.59951 0.0
C276 C 0.73738 0.89766 0.58632 0.0
C277 C 0.73744 0.87804 0.58587 0.0
C278 C 0.74495 0.87578 0.59736 0.0
C279 C 0.75199 0.91222 0.57774 0.0
C280 C 0.71587 0.89425 0.5845 0.0
H281 H 0.73714 0.80574 0.57731 0.0
H282 H 0.76808 0.82871 0.62078 0.0
H283 H 0.73001 0.83399 0.61947 0.0
H284 H 0.73622 0.85918 0.62168 0.0
H285 H 0.75166 0.85119 0.62978 0.0
H286 H 0.78779 0.86866 0.60641 0.0
H287 H 0.78401 0.86746 0.62254 0.0
H288 H 0.7816 0.88537 0.61386 0.0
H289 H 0.71322 0.82539 0.53948 0.0
H290 H 0.70901 0.87907 0.5388 0.0
H291 H 0.7202 0.88763 0.56057 0.0
H292 H 0.75549 0.84648 0.55589 0.0
H293 H 0.7401 0.81987 0.5522 0.0
H294 H 0.7551 0.83059 0.56688 0.0
H295 H 0.69517 0.81326 0.56559 0.0
H296 H 0.70959 0.80611 0.57471 0.0
H297 H 0.70705 0.80129 0.55805 0.0
H298 H 0.74871 0.78641 0.58805 0.0
C299 C 0.74376 0.81118 0.58668 0.0
C300 C 0.05599 0.82508 0.59876 0.0
C301 C 0.04115 0.80677 0.59237 0.0
C302 C 0.04446 0.8007 0.58068 0.0
C303 C 0.07675 0.83115 0.58185 0.0
C304 C 0.07356 0.83693 0.59337 0.0
C305 C 0.09073 0.85676 0.599 0.0
H306 H 0.18048 0.93829 0.59391 0.0
C307 C 0.09649 0.84702 0.57889 0.0
C308 C 0.10476 0.86202 0.58894 0.0
H309 H 0.14436 0.92591 0.6246 0.0
H310 H 0.11983 0.89392 0.61388 0.0
H311 H 0.17501 0.89436 0.58967 0.0
H312 H 0.14467 0.92196 0.57258 0.0
H313 H 0.14812 0.90791 0.5607 0.0
H314 H 0.16964 0.92828 0.56983 0.0
H315 H 0.18597 0.91212 0.57859 0.0
H316 H 0.17005 0.88565 0.57387 0.0
C317 C 0.09971 0.85335 0.61111 0.0
C318 C 0.08291 0.87162 0.60075 0.0
C319 C 0.12143 0.84137 0.53738 0.0
C320 C 0.13904 0.85395 0.53208 0.0
C321 C 0.15375 0.87189 0.539 0.0
C322 C 0.15097 0.8773 0.55091 0.0
C323 C 0.13325 0.8647 0.55604 0.0
C324 C 0.11889 0.847 0.54934 0.0
C325 C 0.10109 0.83545 0.55638 0.0
C326 C 0.10712 0.84924 0.56834 0.0
C327 C 0.12594 0.86636 0.56803 0.0
C328 C 0.09955 0.81514 0.5586 0.0
C329 C 0.08246 0.83359 0.54896 0.0
C330 C 0.16741 0.9286 0.5984 0.0
C331 C 0.16434 0.93473 0.61011 0.0
C332 C 0.14696 0.92171 0.61551 0.0
C333 C 0.13275 0.90307 0.60928 0.0
C334 C 0.13587 0.89732 0.59749 0.0
C335 C 0.15306 0.90993 0.5923 0.0
C336 C 0.15388 0.90133 0.57971 0.0
C337 C 0.13428 0.88153 0.57818 0.0
C338 C 0.12378 0.87931 0.5886 0.0
C339 C 0.17221 0.89828 0.58036 0.0
C340 C 0.15424 0.91556 0.57014 0.0
H341 H 0.06374 0.80741 0.56643 0.0
H342 H 0.05408 0.83001 0.60785 0.0
H343 H 0.07164 0.86901 0.59296 0.0
H344 H 0.0947 0.88743 0.60074 0.0
H345 H 0.07566 0.86984 0.60946 0.0
H346 H 0.09863 0.83842 0.6103 0.0
H347 H 0.09166 0.85395 0.6191 0.0
H348 H 0.11584 0.86418 0.61331 0.0
H349 H 0.10992 0.8274 0.53236 0.0
H350 H 0.16732 0.88201 0.53508 0.0
H351 H 0.16268 0.8912 0.55562 0.0
H352 H 0.11466 0.81682 0.56012 0.0
H353 H 0.09128 0.80382 0.5505 0.0
H354 H 0.09237 0.8091 0.56702 0.0
H355 H 0.0863 0.8477 0.54476 0.0
H356 H 0.07041 0.83118 0.55476 0.0
H357 H 0.07642 0.82125 0.54131 0.0
H358 H 0.03322 0.78671 0.57554 0.0
C359 C 0.06216 0.81279 0.57538 0.0
C360 C 0.90926 0.50753 0.72417 0.0
C361 C 0.91231 0.52564 0.73008 0.0
C362 C 0.92227 0.53222 0.74216 0.0
C363 C 0.925 0.50233 0.74244 0.0
C364 C 0.91573 0.49621 0.73047 0.0
C365 C 0.91328 0.47645 0.72555 0.0
H366 H 0.92171 0.39542 0.73556 0.0
C367 C 0.92921 0.48676 0.74646 0.0
C368 C 0.92254 0.47166 0.73656 0.0
H369 H 0.89655 0.4064 0.7024 0.0
H370 H 0.90516 0.4391 0.71185 0.0
H371 H 0.96081 0.4399 0.74087 0.0
H372 H 0.90272 0.41202 0.75412 0.0
H373 H 0.92003 0.42652 0.76687 0.0
H374 H 0.92159 0.40621 0.75905 0.0
H375 H 0.95393 0.4221 0.7521 0.0
H376 H 0.96445 0.44854 0.75664 0.0
C377 C 0.92542 0.47985 0.71423 0.0
C378 C 0.89058 0.46125 0.72272 0.0
C379 C 0.95613 0.49128 0.79106 0.0
C380 C 0.96002 0.47823 0.7976 0.0
C381 C 0.95867 0.46123 0.79106 0.0
C382 C 0.95264 0.45677 0.77834 0.0
C383 C 0.94775 0.46934 0.77205 0.0
C384 C 0.94999 0.48653 0.77833 0.0
C385 C 0.94412 0.4981 0.77007 0.0
C386 C 0.93749 0.4847 0.75791 0.0
C387 C 0.93953 0.46783 0.75918 0.0
C388 C 0.96292 0.51872 0.76915 0.0
C389 C 0.92658 0.49929 0.77537 0.0
C390 C 0.91835 0.40501 0.73027 0.0
C391 C 0.9084 0.39833 0.71824 0.0
C392 C 0.904 0.41114 0.71175 0.0
C393 C 0.90906 0.43014 0.71724 0.0
C394 C 0.91846 0.43636 0.72942 0.0
C395 C 0.92314 0.42395 0.73568 0.0
C396 C 0.93262 0.43281 0.74866 0.0
C397 C 0.93286 0.45259 0.74916 0.0
C398 C 0.9245 0.45455 0.7379 0.0
C399 C 0.95403 0.43593 0.74975 0.0
C400 C 0.91872 0.41872 0.75773 0.0
H401 H 0.9359 0.52633 0.7576 0.0
H402 H 0.90196 0.50224 0.71481 0.0
H403 H 0.88191 0.46404 0.72957 0.0
H404 H 0.88677 0.44558 0.72342 0.0
H405 H 0.88487 0.46242 0.71337 0.0
H406 H 0.93937 0.49475 0.71555 0.0
H407 H 0.91663 0.47935 0.70562 0.0
H408 H 0.93056 0.46895 0.71278 0.0
H409 H 0.95698 0.50443 0.79583 0.0
H410 H 0.96199 0.45117 0.79585 0.0
H411 H 0.95157 0.44342 0.77396 0.0
H412 H 0.97671 0.51762 0.7698 0.0
H413 H 0.96474 0.52995 0.77675 0.0
H414 H 0.9627 0.52458 0.76015 0.0
H415 H 0.91588 0.48478 0.77872 0.0
H416 H 0.91758 0.50216 0.76844 0.0
H417 H 0.93209 0.51108 0.78332 0.0
H418 H 0.92473 0.54609 0.74693 0.0
C419 C 0.92865 0.52067 0.74836 0.0
C420 C 0.60775 0.50535 0.73338 0.0
C421 C 0.62289 0.52327 0.74001 0.0
C422 C 0.62028 0.52844 0.75213 0.0
C423 C 0.58797 0.49802 0.75087 0.0
C424 C 0.59054 0.49301 0.73897 0.0
C425 C 0.57329 0.47325 0.73328 0.0
H426 H 0.48448 0.39062 0.73888 0.0
C427 C 0.56858 0.48178 0.75399 0.0
C428 C 0.55992 0.46721 0.74372 0.0
H429 H 0.51894 0.40453 0.70736 0.0
H430 H 0.54387 0.4362 0.7183 0.0
H431 H 0.52081 0.40556 0.75921 0.0
H432 H 0.49056 0.43511 0.74476 0.0
H433 H 0.49545 0.44171 0.76085 0.0
H434 H 0.4796 0.41574 0.75489 0.0
H435 H 0.49654 0.39986 0.76324 0.0
H436 H 0.51914 0.41972 0.77182 0.0
C437 C 0.58126 0.45872 0.73055 0.0
C438 C 0.56345 0.4771 0.72174 0.0
C439 C 0.5457 0.48564 0.79646 0.0
C440 C 0.52872 0.47254 0.80211 0.0
C441 C 0.51401 0.4545 0.79527 0.0
C442 C 0.51617 0.44956 0.78308 0.0
C443 C 0.53328 0.46271 0.77761 0.0
C444 C 0.54767 0.48042 0.78426 0.0
C445 C 0.56498 0.49241 0.77697 0.0
C446 C 0.55856 0.47896 0.76486 0.0
C447 C 0.53998 0.4616 0.7653 0.0
C448 C 0.5841 0.49443 0.78386 0.0
C449 C 0.56599 0.51262 0.77523 0.0
C450 C 0.49727 0.40059 0.73427 0.0
C451 C 0.49974 0.39501 0.72224 0.0
C452 C 0.51679 0.40834 0.71668 0.0
C453 C 0.53123 0.42678 0.72303 0.0
C454 C 0.52867 0.432 0.73512 0.0
C455 C 0.51185 0.41904 0.7405 0.0
C456 C 0.51169 0.427 0.75344 0.0
C457 C 0.53123 0.44684 0.75494 0.0
C458 C 0.54112 0.44968 0.74419 0.0
C459 C 0.51191 0.41231 0.76247 0.0
C460 C 0.49334 0.42997 0.75362 0.0
H461 H 0.6018 0.52074 0.76682 0.0
H462 H 0.60941 0.50079 0.72412 0.0
H463 H 0.56376 0.49161 0.72331 0.0
H464 H 0.54746 0.46577 0.71955 0.0
H465 H 0.57144 0.47773 0.71348 0.0
H466 H 0.59335 0.46141 0.73778 0.0
H467 H 0.58753 0.46075 0.72147 0.0
H468 H 0.5698 0.44282 0.7307 0.0
H469 H 0.55722 0.49969 0.80138 0.0
H470 H 0.50094 0.44394 0.79944 0.0
H471 H 0.50449 0.43557 0.77844 0.0
H472 H 0.58058 0.48071 0.78844 0.0
H473 H 0.59103 0.50733 0.79115 0.0
H474 H 0.59537 0.49597 0.77759 0.0
H475 H 0.55071 0.5105 0.77368 0.0
H476 H 0.57337 0.51941 0.76702 0.0
H477 H 0.57381 0.52353 0.78357 0.0
H478 H 0.63164 0.54226 0.75738 0.0
C479 C 0.6029 0.51596 0.75758 0.0
C480 C 0.60935 0.10705 0.73929 0.0
C481 C 0.62441 0.10394 0.74469 0.0
C482 C 0.62229 0.09656 0.7564 0.0
C483 C 0.59073 0.09586 0.75717 0.0
C484 C 0.59277 0.10299 0.74567 0.0
C485 C 0.5757 0.10594 0.74135 0.0
H486 H 0.48965 0.10368 0.75272 0.0
C487 C 0.57201 0.09363 0.76142 0.0
C488 C 0.56317 0.09958 0.75219 0.0
H489 H 0.52082 0.12033 0.71992 0.0
H490 H 0.54586 0.11346 0.72874 0.0
H491 H 0.49396 0.06515 0.75542 0.0
H492 H 0.52842 0.1259 0.77235 0.0
H493 H 0.52667 0.1104 0.78394 0.0
H494 H 0.50419 0.10854 0.77665 0.0
H495 H 0.4852 0.07497 0.76735 0.0
H496 H 0.50039 0.06391 0.77096 0.0
C497 C 0.56463 0.09171 0.72936 0.0
C498 C 0.58426 0.12847 0.73981 0.0
C499 C 0.55121 0.06869 0.80335 0.0
C500 C 0.53514 0.06609 0.80994 0.0
C501 C 0.5209 0.07039 0.80453 0.0
C502 C 0.52263 0.07723 0.79279 0.0
C503 C 0.53884 0.07993 0.78635 0.0
C504 C 0.55282 0.07571 0.79164 0.0
C505 C 0.56933 0.08004 0.78354 0.0
C506 C 0.56277 0.08726 0.77246 0.0
C507 C 0.54489 0.08712 0.77418 0.0
C508 C 0.56899 0.06016 0.78001 0.0
C509 C 0.58927 0.09681 0.79059 0.0
C510 C 0.50198 0.10601 0.74749 0.0
C511 C 0.50332 0.11264 0.73564 0.0
C512 C 0.51938 0.11511 0.72904 0.0
C513 C 0.53396 0.11119 0.7342 0.0
C514 C 0.53245 0.10466 0.74609 0.0
C515 C 0.51657 0.10204 0.75248 0.0
C516 C 0.51709 0.09454 0.76486 0.0
C517 C 0.536 0.09324 0.7649 0.0
C518 C 0.54501 0.09929 0.75392 0.0
C519 C 0.49817 0.07362 0.76478 0.0
C520 C 0.51905 0.1105 0.77505 0.0
H521 H 0.60482 0.08688 0.7715 0.0
H522 H 0.61061 0.11293 0.73038 0.0
H523 H 0.59642 0.13798 0.7473 0.0
H524 H 0.57312 0.1333 0.74055 0.0
H525 H 0.59062 0.13219 0.7308 0.0
H526 H 0.56489 0.07747 0.72961 0.0
H527 H 0.57173 0.0987 0.72104 0.0
H528 H 0.54859 0.08701 0.72812 0.0
H529 H 0.56252 0.06574 0.80734 0.0
H530 H 0.5083 0.06831 0.80938 0.0
H531 H 0.51129 0.08022 0.78921 0.0
H532 H 0.55334 0.04748 0.7781 0.0
H533 H 0.57647 0.05657 0.78766 0.0
H534 H 0.57601 0.06029 0.77146 0.0
H535 H 0.5868 0.10744 0.79655 0.0
H536 H 0.60013 0.10627 0.78435 0.0
H537 H 0.59627 0.09047 0.79668 0.0
H538 H 0.63354 0.09381 0.7607 0.0
C539 C 0.60554 0.09247 0.76264 0.0
C540 C 0.82211 0.55821 0.92974 0.0
C541 C 0.83902 0.56013 0.92442 0.0
C542 C 0.84272 0.56716 0.91265 0.0
C543 C 0.81275 0.56969 0.91156 0.0
C544 C 0.80921 0.56301 0.92315 0.0
C545 C 0.7903 0.56134 0.9273 0.0
H546 H 0.70771 0.56892 0.91498 0.0
C547 C 0.79628 0.57292 0.90709 0.0
C548 C 0.78307 0.56807 0.91626 0.0
H549 H 0.72546 0.55048 0.94791 0.0
H550 H 0.75554 0.55592 0.93942 0.0
H551 H 0.75167 0.60609 0.91203 0.0
H552 H 0.72008 0.54481 0.89554 0.0
H553 H 0.73187 0.56023 0.88391 0.0
H554 H 0.71305 0.56278 0.89146 0.0
H555 H 0.7308 0.59688 0.9004 0.0
H556 H 0.75593 0.60616 0.89633 0.0
C557 C 0.79596 0.57605 0.93913 0.0
C558 C 0.77576 0.53908 0.92903 0.0
C559 C 0.7954 0.59582 0.86443 0.0
C560 C 0.78195 0.59951 0.85741 0.0
C561 C 0.76491 0.59745 0.86269 0.0
C562 C 0.76121 0.59149 0.87467 0.0
C563 C 0.77467 0.58754 0.88146 0.0
C564 C 0.79148 0.58985 0.87631 0.0
C565 C 0.80415 0.58496 0.88476 0.0
C566 C 0.79219 0.57927 0.89585 0.0
C567 C 0.77493 0.58077 0.89389 0.0
C568 C 0.82483 0.60421 0.88799 0.0
C569 C 0.80489 0.56696 0.87827 0.0
C570 C 0.71803 0.56594 0.92032 0.0
C571 C 0.71416 0.55926 0.93215 0.0
C572 C 0.72816 0.55586 0.93886 0.0
C573 C 0.74559 0.5589 0.93387 0.0
C574 C 0.74915 0.5654 0.922 0.0
C575 C 0.73555 0.56893 0.91546 0.0
C576 C 0.74193 0.5759 0.90302 0.0
C577 C 0.76149 0.57582 0.90315 0.0
C578 C 0.7656 0.5696 0.91429 0.0
C579 C 0.74516 0.59732 0.9028 0.0
C580 C 0.72593 0.56028 0.89288 0.0
H581 H 0.83341 0.5772 0.8973 0.0
H582 H 0.81873 0.55268 0.93872 0.0
H583 H 0.77705 0.52894 0.92191 0.0
H584 H 0.75989 0.53497 0.92783 0.0
H585 H 0.7791 0.5354 0.93828 0.0
H586 H 0.8106 0.58989 0.93871 0.0
H587 H 0.79724 0.56914 0.94756 0.0
H588 H 0.78529 0.58141 0.9403 0.0
H589 H 0.80883 0.59761 0.86077 0.0
H590 H 0.75424 0.60008 0.85747 0.0
H591 H 0.74791 0.59003 0.87813 0.0
H592 H 0.82327 0.61777 0.88882 0.0
H593 H 0.83489 0.60607 0.88069 0.0
H594 H 0.83232 0.60455 0.89704 0.0
H595 H 0.79058 0.55659 0.8725 0.0
H596 H 0.80674 0.55752 0.88485 0.0
H597 H 0.81705 0.57207 0.87208 0.0
H598 H 0.85579 0.56906 0.90842 0.0
C599 C 0.82973 0.57197 0.90622 0.0
C600 C 0.41691 0.15376 0.94345 0.0
C601 C 0.41621 0.1373 0.93672 0.0
C602 C 0.41009 0.13349 0.92391 0.0
C603 C 0.40666 0.163 0.92458 0.0
C604 C 0.41223 0.16645 0.93721 0.0
C605 C 0.41381 0.18552 0.94278 0.0
H606 H 0.41249 0.27085 0.93449 0.0
C607 C 0.40418 0.17973 0.9208 0.0
C608 C 0.40834 0.19298 0.93142 0.0
H609 H 0.42645 0.25233 0.96863 0.0
H610 H 0.41919 0.22087 0.95782 0.0
H611 H 0.43561 0.2571 0.9182 0.0
H612 H 0.37337 0.22693 0.9242 0.0
H613 H 0.37465 0.22257 0.90832 0.0
H614 H 0.38439 0.24791 0.91523 0.0
H615 H 0.41851 0.2639 0.91129 0.0
H616 H 0.42215 0.24462 0.90387 0.0
C617 C 0.43575 0.19978 0.94835 0.0
C618 C 0.39817 0.18004 0.95225 0.0
C619 C 0.38779 0.18278 0.8753 0.0
C620 C 0.38613 0.19723 0.8689 0.0
C621 C 0.38793 0.21427 0.87567 0.0
C622 C 0.39166 0.21706 0.8886 0.0
C623 C 0.39381 0.20275 0.89486 0.0
C624 C 0.3917 0.18588 0.88823 0.0
C625 C 0.39504 0.17259 0.89641 0.0
C626 C 0.39942 0.18424 0.90905 0.0
C627 C 0.3987 0.20189 0.90807 0.0
C628 C 0.41337 0.1714 0.89247 0.0
C629 C 0.37539 0.15213 0.89546 0.0
C630 C 0.41363 0.25986 0.93968 0.0
C631 C 0.42006 0.26406 0.95242 0.0
C632 C 0.42171 0.24951 0.95878 0.0
C633 C 0.41747 0.23125 0.95249 0.0
C634 C 0.41171 0.22756 0.93966 0.0
C635 C 0.40963 0.24165 0.93351 0.0
C636 C 0.40385 0.23542 0.91985 0.0
C637 C 0.40293 0.21532 0.91879 0.0
C638 C 0.40759 0.21081 0.93041 0.0
C639 C 0.42073 0.25104 0.91284 0.0
C640 C 0.38305 0.23318 0.91661 0.0
H641 H 0.40084 0.14259 0.90804 0.0
H642 H 0.42186 0.15721 0.95328 0.0
H643 H 0.38413 0.16587 0.94886 0.0
H644 H 0.39355 0.19134 0.95375 0.0
H645 H 0.40387 0.17784 0.9613 0.0
H646 H 0.44636 0.19783 0.94277 0.0
H647 H 0.43825 0.19679 0.95797 0.0
H648 H 0.44041 0.21578 0.9483 0.0
H649 H 0.38669 0.16964 0.87033 0.0
H650 H 0.38645 0.22547 0.87093 0.0
H651 H 0.39299 0.2304 0.89321 0.0
H652 H 0.42435 0.18554 0.88886 0.0
H653 H 0.4088 0.15899 0.88504 0.0
H654 H 0.42197 0.16962 0.90026 0.0
H655 H 0.36218 0.15423 0.89501 0.0
H656 H 0.37409 0.14387 0.90362 0.0
H657 H 0.37388 0.14251 0.88698 0.0
H658 H 0.40933 0.12079 0.91858 0.0
C659 C 0.40518 0.14616 0.91782 0.0
C660 C 0.72395 0.15965 0.93461 0.0
C661 C 0.7078 0.14319 0.9274 0.0
C662 C 0.70969 0.13963 0.91478 0.0
C663 C 0.74302 0.16883 0.91682 0.0
C664 C 0.74115 0.1723 0.92915 0.0
C665 C 0.75893 0.19113 0.93542 0.0
H666 H 0.84742 0.27481 0.93144 0.0
C667 C 0.76263 0.18515 0.914 0.0
C668 C 0.77192 0.19833 0.92485 0.0
H669 H 0.81383 0.25702 0.96325 0.0
H670 H 0.78904 0.22608 0.95153 0.0
H671 H 0.84205 0.23137 0.9236 0.0
H672 H 0.81052 0.26095 0.91144 0.0
H673 H 0.81365 0.24907 0.89817 0.0
H674 H 0.83537 0.26826 0.90778 0.0
H675 H 0.852 0.25057 0.91329 0.0
H676 H 0.83566 0.22453 0.9076 0.0
C677 C 0.76879 0.18531 0.94597 0.0
C678 C 0.75175 0.20578 0.93975 0.0
C679 C 0.78515 0.18536 0.8709 0.0
C680 C 0.80262 0.19858 0.86569 0.0
C681 C 0.81765 0.21572 0.87312 0.0
C682 C 0.81544 0.2196 0.88548 0.0
C683 C 0.79795 0.20628 0.89056 0.0
C684 C 0.78317 0.18947 0.88332 0.0
C685 C 0.76561 0.17706 0.89035 0.0
C686 C 0.77246 0.18909 0.90301 0.0
C687 C 0.79137 0.20623 0.90303 0.0
C688 C 0.76351 0.15613 0.89082 0.0
C689 C 0.74695 0.17669 0.88402 0.0
C690 C 0.83487 0.26414 0.93594 0.0
C691 C 0.83253 0.26847 0.94828 0.0
C692 C 0.81583 0.25422 0.95371 0.0
C693 C 0.80146 0.23622 0.94689 0.0
C694 C 0.8037 0.23239 0.93446 0.0
C695 C 0.82034 0.2461 0.92924 0.0
C696 C 0.82026 0.23947 0.91593 0.0
C697 C 0.80058 0.21975 0.91394 0.0
C698 C 0.79096 0.21572 0.92481 0.0
C699 C 0.83846 0.23642 0.91493 0.0
C700 C 0.82007 0.25523 0.90783 0.0
H701 H 0.72767 0.14883 0.89985 0.0
H702 H 0.7233 0.16278 0.94436 0.0
H703 H 0.73893 0.20375 0.9334 0.0
H704 H 0.76324 0.22168 0.93963 0.0
H705 H 0.74678 0.20329 0.94918 0.0
H706 H 0.76833 0.17101 0.94312 0.0
H707 H 0.76088 0.18321 0.95443 0.0
H708 H 0.7848 0.19638 0.94838 0.0
H709 H 0.77335 0.172 0.86549 0.0
H710 H 0.83109 0.22636 0.8693 0.0
H711 H 0.8274 0.23294 0.89058 0.0
H712 H 0.77845 0.15752 0.89263 0.0
H713 H 0.75631 0.14668 0.88188 0.0
H714 H 0.75494 0.14803 0.89836 0.0
H715 H 0.75116 0.19093 0.87991 0.0
H716 H 0.73616 0.17544 0.8906 0.0
H717 H 0.73923 0.16426 0.87645 0.0
H718 H 0.69748 0.12728 0.9089 0.0
C719 C 0.72721 0.15229 0.90949 0.0
C720 C 0.57571 0.84354 0.05778 0.0
C721 C 0.57859 0.8616 0.06367 0.0
C722 C 0.58798 0.86796 0.07589 0.0
C723 C 0.59051 0.83799 0.07634 0.0
C724 C 0.58178 0.83205 0.06425 0.0
C725 C 0.57947 0.81231 0.0594 0.0
H726 H 0.58548 0.73022 0.07043 0.0
C727 C 0.59436 0.8223 0.08054 0.0
C728 C 0.58807 0.80728 0.07063 0.0
H729 H 0.56442 0.74276 0.03625 0.0
H730 H 0.57285 0.77544 0.04565 0.0
H731 H 0.62439 0.77272 0.07612 0.0
H732 H 0.56604 0.74888 0.0888 0.0
H733 H 0.58396 0.76156 0.10166 0.0
H734 H 0.58313 0.74044 0.09314 0.0
H735 H 0.61699 0.75666 0.08835 0.0
H736 H 0.6282 0.78351 0.09142 0.0
C737 C 0.59224 0.8158 0.04838 0.0
C738 C 0.55685 0.79722 0.05613 0.0
C739 C 0.62103 0.82756 0.12528 0.0
C740 C 0.62568 0.81509 0.1319 0.0
C741 C 0.6237 0.79761 0.12564 0.0
C742 C 0.61676 0.79236 0.11304 0.0
C743 C 0.61171 0.8047 0.1066 0.0
C744 C 0.61421 0.82215 0.11266 0.0
C745 C 0.60859 0.83367 0.10423 0.0
C746 C 0.60203 0.8201 0.09216 0.0
C747 C 0.60368 0.80306 0.09366 0.0
C748 C 0.62751 0.8542 0.10328 0.0
C749 C 0.59104 0.83506 0.10936 0.0
C750 C 0.5826 0.74 0.06501 0.0
C751 C 0.57411 0.73388 0.05263 0.0
C752 C 0.57101 0.74719 0.04579 0.0
C753 C 0.5758 0.7661 0.05129 0.0
C754 C 0.58378 0.77181 0.06378 0.0
C755 C 0.58737 0.75897 0.07035 0.0
C756 C 0.59638 0.76774 0.08342 0.0
C757 C 0.59724 0.78781 0.08367 0.0
C758 C 0.58966 0.79001 0.07218 0.0
C759 C 0.61754 0.77022 0.08503 0.0
C760 C 0.58179 0.75398 0.0923 0.0
H761 H 0.60079 0.86179 0.09157 0.0
H762 H 0.56883 0.83841 0.04832 0.0
H763 H 0.54798 0.79926 0.06317 0.0
H764 H 0.55302 0.78144 0.05608 0.0
H765 H 0.55144 0.79939 0.04698 0.0
H766 H 0.60575 0.83102 0.04961 0.0
H767 H 0.58358 0.81446 0.0395 0.0
H768 H 0.59816 0.80545 0.04753 0.0
H769 H 0.62267 0.84122 0.12983 0.0
H770 H 0.62705 0.78769 0.13058 0.0
H771 H 0.61533 0.77874 0.10884 0.0
H772 H 0.64127 0.85304 0.10419 0.0
H773 H 0.62923 0.86561 0.11071 0.0
H774 H 0.62756 0.85987 0.09418 0.0
H775 H 0.58031 0.8207 0.11285 0.0
H776 H 0.58205 0.83771 0.10228 0.0
H777 H 0.59654 0.84706 0.11717 0.0
H778 H 0.59025 0.88176 0.08065 0.0
C779 C 0.59396 0.85627 0.08224 0.0
C780 C 0.27346 0.83713 0.06667 0.0
C781 C 0.28855 0.85519 0.07318 0.0
C782 C 0.28664 0.85974 0.08562 0.0
C783 C 0.25534 0.82832 0.08489 0.0
C784 C 0.25712 0.824 0.07267 0.0
C785 C 0.24015 0.80398 0.06711 0.0
H786 H 0.15582 0.71761 0.07417 0.0
C787 C 0.23688 0.81119 0.08844 0.0
C788 C 0.22795 0.7969 0.07803 0.0
H789 H 0.1863 0.73527 0.04115 0.0
H790 H 0.21078 0.76709 0.05209 0.0
H791 H 0.19429 0.73403 0.09293 0.0
H792 H 0.1591 0.76035 0.08173 0.0
H793 H 0.16561 0.76676 0.09777 0.0
H794 H 0.15067 0.74071 0.09177 0.0
H795 H 0.17025 0.72644 0.09817 0.0
H796 H 0.19289 0.74696 0.1063 0.0
C797 C 0.24893 0.79052 0.06331 0.0
C798 C 0.22867 0.80752 0.0563 0.0
C799 C 0.21756 0.81128 0.13243 0.0
C800 C 0.20177 0.79698 0.13844 0.0
C801 C 0.18736 0.77881 0.13162 0.0
C802 C 0.18868 0.77482 0.1191 0.0
C803 C 0.20464 0.78911 0.11325 0.0
C804 C 0.21874 0.807 0.11989 0.0
C805 C 0.23486 0.82017 0.11213 0.0
C806 C 0.22798 0.80728 0.09977 0.0
C807 C 0.21027 0.78911 0.10051 0.0
C808 C 0.25506 0.82328 0.11797 0.0
C809 C 0.23423 0.83978 0.1113 0.0
C810 C 0.16763 0.72841 0.06925 0.0
C811 C 0.16915 0.72381 0.05678 0.0
C812 C 0.18495 0.73826 0.0508 0.0
C813 C 0.19911 0.7568 0.05716 0.0
C814 C 0.19754 0.76103 0.06966 0.0
C815 C 0.18189 0.74701 0.07546 0.0
C816 C 0.18257 0.75411 0.08876 0.0
C817 C 0.20126 0.77467 0.09 0.0
C818 C 0.20999 0.77861 0.07881 0.0
C819 C 0.18498 0.73966 0.09705 0.0
C820 C 0.16349 0.75547 0.09021 0.0
H821 H 0.26957 0.85075 0.10096 0.0
H822 H 0.27455 0.83302 0.05717 0.0
H823 H 0.22867 0.8218 0.05833 0.0
H824 H 0.21269 0.79587 0.05476 0.0
H825 H 0.23564 0.80843 0.04755 0.0
H826 H 0.26166 0.79342 0.07009 0.0
H827 H 0.25458 0.79346 0.05407 0.0
H828 H 0.23815 0.77437 0.06323 0.0
H829 H 0.22896 0.82532 0.13745 0.0
H830 H 0.17491 0.76768 0.13598 0.0
H831 H 0.17723 0.7607 0.11447 0.0
H832 H 0.25298 0.80951 0.12194 0.0
H833 H 0.26183 0.83571 0.12557 0.0
H834 H 0.26596 0.82622 0.11116 0.0
H835 H 0.21852 0.83661 0.11042 0.0
H836 H 0.24064 0.84734 0.10306 0.0
H837 H 0.24215 0.85041 0.11973 0.0
H838 H 0.29792 0.87366 0.0908 0.0
C839 C 0.27012 0.84645 0.09149 0.0
C840 C 0.27911 0.44285 0.07404 0.0
C841 C 0.29404 0.43966 0.07956 0.0
C842 C 0.29147 0.43187 0.09115 0.0
C843 C 0.25967 0.43079 0.09149 0.0
C844 C 0.26218 0.43836 0.08013 0.0
C845 C 0.2451 0.4411 0.07552 0.0
H846 H 0.15473 0.43119 0.0834 0.0
C847 C 0.24038 0.42768 0.09526 0.0
C848 C 0.23175 0.43364 0.08591 0.0
H849 H 0.19163 0.45717 0.0539 0.0
H850 H 0.21677 0.45074 0.06318 0.0
H851 H 0.16307 0.39404 0.08584 0.0
H852 H 0.18976 0.45351 0.10455 0.0
H853 H 0.18947 0.4381 0.1158 0.0
H854 H 0.16615 0.43354 0.10801 0.0
H855 H 0.15066 0.40136 0.09664 0.0
H856 H 0.16704 0.39228 0.10169 0.0
C857 C 0.23508 0.42753 0.06318 0.0
C858 C 0.25331 0.46374 0.07449 0.0
C859 C 0.21799 0.40205 0.13682 0.0
C860 C 0.20089 0.39793 0.14276 0.0
C861 C 0.18554 0.39971 0.13639 0.0
C862 C 0.1874 0.40602 0.1245 0.0
C863 C 0.2048 0.41065 0.11884 0.0
C864 C 0.21962 0.40837 0.1249 0.0
C865 C 0.23694 0.41379 0.11732 0.0
C866 C 0.23026 0.4202 0.10589 0.0
C867 C 0.21144 0.41834 0.10686 0.0
C868 C 0.2383 0.3947 0.11426 0.0
C869 C 0.25596 0.43144 0.12466 0.0
C870 C 0.16816 0.43526 0.07891 0.0
C871 C 0.17123 0.44451 0.06788 0.0
C872 C 0.18904 0.45004 0.06241 0.0
C873 C 0.20357 0.44627 0.06781 0.0
C874 C 0.20038 0.43712 0.0789 0.0
C875 C 0.18297 0.43193 0.08431 0.0
C876 C 0.18268 0.4235 0.09645 0.0
C877 C 0.20265 0.42421 0.09736 0.0
C878 C 0.21285 0.432 0.087 0.0
C879 C 0.16489 0.40169 0.09522 0.0
C880 C 0.18183 0.4377 0.1068 0.0
H881 H 0.27338 0.42164 0.10595 0.0
H882 H 0.28042 0.44855 0.06507 0.0
H883 H 0.2666 0.47318 0.0813 0.0
H884 H 0.24246 0.46852 0.07668 0.0
H885 H 0.25793 0.46775 0.06511 0.0
H886 H 0.23386 0.41266 0.06378 0.0
H887 H 0.24396 0.43437 0.05538 0.0
H888 H 0.21964 0.42427 0.06082 0.0
H889 H 0.23009 0.40089 0.14145 0.0
H890 H 0.17201 0.3962 0.14061 0.0
H891 H 0.17525 0.40719 0.12022 0.0
H892 H 0.22318 0.38107 0.11298 0.0
H893 H 0.24719 0.39269 0.12185 0.0
H894 H 0.2447 0.39471 0.10546 0.0
H895 H 0.25243 0.44229 0.1294 0.0
H896 H 0.26766 0.4403 0.1187 0.0
H897 H 0.26235 0.42602 0.13186 0.0
H898 H 0.30281 0.42946 0.09568 0.0
C899 C 0.2744 0.42743 0.09713 0.0
C900 C 0.49119 0.89297 0.2617 0.0
C901 C 0.50705 0.89334 0.25576 0.0
C902 C 0.5088 0.89788 0.24335 0.0
C903 C 0.47972 0.90189 0.24315 0.0
C904 C 0.47767 0.89706 0.25521 0.0
C905 C 0.45945 0.89632 0.25992 0.0
H906 H 0.37625 0.90327 0.24881 0.0
C907 C 0.46326 0.90534 0.23905 0.0
C908 C 0.4512 0.90193 0.24878 0.0
H909 H 0.39618 0.88729 0.28203 0.0
H910 H 0.42568 0.89214 0.27294 0.0
H911 H 0.41929 0.94051 0.24546 0.0
H912 H 0.38824 0.87922 0.22909 0.0
H913 H 0.39847 0.895 0.21731 0.0
H914 H 0.38024 0.89683 0.22593 0.0
H915 H 0.39957 0.93173 0.2331 0.0
H916 H 0.42522 0.94087 0.23012 0.0
C917 C 0.46641 0.9123 0.2712 0.0
C918 C 0.44509 0.87456 0.26277 0.0
C919 C 0.46048 0.9276 0.19638 0.0
C920 C 0.44765 0.93282 0.19007 0.0
C921 C 0.43148 0.93185 0.19591 0.0
C922 C 0.42805 0.92556 0.20782 0.0
C923 C 0.44102 0.92034 0.214 0.0
C924 C 0.45698 0.92155 0.20828 0.0
C925 C 0.46957 0.916 0.2163 0.0
C926 C 0.45859 0.91131 0.22783 0.0
C927 C 0.44181 0.91372 0.22641 0.0
C928 C 0.49084 0.9346 0.21888 0.0
C929 C 0.46875 0.89721 0.20971 0.0
C930 C 0.38704 0.901 0.25419 0.0
C931 C 0.38369 0.89466 0.26613 0.0
C932 C 0.39813 0.89176 0.27273 0.0
C933 C 0.41533 0.89466 0.26745 0.0
C934 C 0.41821 0.90054 0.25541 0.0
C935 C 0.40431 0.90385 0.24905 0.0
C936 C 0.41001 0.91036 0.23643 0.0
C937 C 0.42928 0.9098 0.23613 0.0
C938 C 0.43401 0.90403 0.24727 0.0
C939 C 0.41361 0.93192 0.23613 0.0
C940 C 0.39339 0.89468 0.2266 0.0
H941 H 0.49759 0.90558 0.22767 0.0
H942 H 0.48931 0.88967 0.27123 0.0
H943 H 0.44614 0.86351 0.25628 0.0
H944 H 0.4292 0.87037 0.26151 0.0
H945 H 0.44876 0.87219 0.27233 0.0
H946 H 0.48033 0.92619 0.26962 0.0
H947 H 0.46961 0.90674 0.27974 0.0
H948 H 0.45548 0.91714 0.2729 0.0
H949 H 0.47326 0.92855 0.19223 0.0
H950 H 0.42137 0.93575 0.1912 0.0
H951 H 0.41542 0.92499 0.21175 0.0
H952 H 0.49008 0.94856 0.22039 0.0
H953 H 0.4997 0.93613 0.21094 0.0
H954 H 0.49924 0.93438 0.22737 0.0
H955 H 0.45431 0.8877 0.20386 0.0
H956 H 0.46951 0.88718 0.21628 0.0
H957 H 0.48092 0.90148 0.20359 0.0
H958 H 0.52043 0.89778 0.23836 0.0
C959 C 0.49535 0.90224 0.23707 0.0
C960 C 0.08909 0.49295 0.27618 0.0
C961 C 0.08485 0.47409 0.27076 0.0
C962 C 0.07413 0.46691 0.2589 0.0
C963 C 0.07263 0.49737 0.25793 0.0
C964 C 0.08282 0.50425 0.26964 0.0
C965 C 0.0864 0.52471 0.27399 0.0
H966 H 0.07595 0.60432 0.26276 0.0
C967 C 0.06865 0.51291 0.25358 0.0
C968 C 0.07653 0.5289 0.26299 0.0
H969 H 0.10738 0.59759 0.29474 0.0
H970 H 0.09785 0.56427 0.28622 0.0
H971 H 0.09392 0.58779 0.2437 0.0
H972 H 0.03766 0.55905 0.25922 0.0
H973 H 0.03287 0.55079 0.2433 0.0
H974 H 0.04343 0.5771 0.24821 0.0
H975 H 0.07359 0.59137 0.23858 0.0
H976 H 0.07622 0.57108 0.23173 0.0
C977 C 0.10929 0.53941 0.27595 0.0
C978 C 0.07549 0.52297 0.28574 0.0
C979 C 0.03727 0.50449 0.20965 0.0
C980 C 0.03276 0.51692 0.20285 0.0
C981 C 0.03507 0.53466 0.20897 0.0
C982 C 0.04249 0.54034 0.22148 0.0
C983 C 0.04782 0.52826 0.22799 0.0
C984 C 0.04476 0.51044 0.22215 0.0
C985 C 0.05122 0.49949 0.23057 0.0
C986 C 0.05931 0.51404 0.24226 0.0
C987 C 0.05735 0.53088 0.24066 0.0
C988 C 0.06785 0.49723 0.22473 0.0
C989 C 0.03249 0.4794 0.23256 0.0
C990 C 0.08092 0.59579 0.26794 0.0
C991 C 0.09244 0.60378 0.2795 0.0
C992 C 0.09823 0.59183 0.28593 0.0
C993 C 0.09283 0.57248 0.28091 0.0
C994 C 0.0817 0.56495 0.26924 0.0
C995 C 0.07595 0.57658 0.26297 0.0
C996 C 0.06512 0.56661 0.2504 0.0
C997 C 0.06513 0.54698 0.25021 0.0
C998 C 0.07476 0.54604 0.26129 0.0
C999 C 0.07765 0.57983 0.24052 0.0
C1000 C 0.04366 0.56327 0.25014 0.0
H1001 H 0.05996 0.47216 0.24347 0.0
H1002 H 0.09749 0.49903 0.28521 0.0
H1003 H 0.06069 0.50893 0.28474 0.0
H1004 H 0.07218 0.53517 0.28749 0.0
H1005 H 0.08433 0.52264 0.29406 0.0
H1006 H 0.11721 0.53495 0.26938 0.0
H1007 H 0.11552 0.53974 0.28549 0.0
H1008 H 0.11347 0.55483 0.27408 0.0
H1009 H 0.03537 0.49061 0.20528 0.0
H1010 H 0.03188 0.5446 0.20394 0.0
H1011 H 0.04427 0.55421 0.22552 0.0
H1012 H 0.07823 0.51116 0.22068 0.0
H1013 H 0.06137 0.4847 0.21719 0.0
H1014 H 0.0774 0.49481 0.23151 0.0
H1015 H 0.01882 0.48073 0.23206 0.0
H1016 H 0.03342 0.47463 0.24185 0.0
H1017 H 0.02988 0.46727 0.22539 0.0
H1018 H 0.0704 0.45231 0.2546 0.0
C1019 C 0.06797 0.47842 0.25248 0.0
C1020 C 0.39106 0.49367 0.26707 0.0
C1021 C 0.37466 0.47733 0.2599 0.0
C1022 C 0.37654 0.4733 0.24736 0.0
C1023 C 0.41051 0.50139 0.24943 0.0
C1024 C 0.40862 0.50552 0.26165 0.0
C1025 C 0.42691 0.52402 0.26784 0.0
H1026 H 0.51837 0.60368 0.26342 0.0
C1027 C 0.4307 0.51658 0.24668 0.0
C1028 C 0.44034 0.52994 0.25743 0.0
H1029 H 0.48315 0.59077 0.29456 0.0
H1030 H 0.45781 0.55938 0.28349 0.0
H1031 H 0.51156 0.55985 0.25786 0.0
H1032 H 0.48207 0.58927 0.24218 0.0
H1033 H 0.48726 0.57702 0.23 0.0
H1034 H 0.50755 0.59623 0.24041 0.0
H1035 H 0.52162 0.57596 0.24585 0.0
H1036 H 0.50383 0.54951 0.24235 0.0
C1037 C 0.43566 0.51796 0.27885 0.0
C1038 C 0.42088 0.53985 0.27151 0.0
C1039 C 0.45313 0.51353 0.20395 0.0
C1040 C 0.47144 0.52485 0.19905 0.0
C1041 C 0.48774 0.54048 0.20668 0.0
C1042 C 0.48574 0.5451 0.21897 0.0
C1043 C 0.46727 0.5339 0.22372 0.0
C1044 C 0.45147 0.51813 0.21633 0.0
C1045 C 0.43337 0.50718 0.22322 0.0
C1046 C 0.44084 0.5192 0.23588 0.0
C1047 C 0.46059 0.53501 0.23603 0.0
C1048 C 0.429 0.4854 0.22374 0.0
C1049 C 0.41602 0.5089 0.21673 0.0
C1050 C 0.50534 0.59397 0.26793 0.0
C1051 C 0.50269 0.59983 0.27984 0.0
C1052 C 0.4854 0.58678 0.28531 0.0
C1053 C 0.4707 0.56854 0.27887 0.0
C1054 C 0.47321 0.56328 0.26679 0.0
C1055 C 0.49046 0.57576 0.26159 0.0
C1056 C 0.49053 0.56779 0.24864 0.0
C1057 C 0.47015 0.54885 0.24676 0.0
C1058 C 0.4601 0.54628 0.25742 0.0
C1059 C 0.50781 0.56312 0.24856 0.0
C1060 C 0.49204 0.58334 0.23977 0.0
H1061 H 0.39477 0.4813 0.23254 0.0
H1062 H 0.39038 0.49722 0.27675 0.0
H1063 H 0.4081 0.5379 0.26515 0.0
H1064 H 0.4329 0.55536 0.27078 0.0
H1065 H 0.41631 0.53866 0.28105 0.0
H1066 H 0.43501 0.50349 0.27626 0.0
H1067 H 0.42708 0.51607 0.28698 0.0
H1068 H 0.45159 0.52883 0.2817 0.0
H1069 H 0.44046 0.50125 0.1983 0.0
H1070 H 0.50195 0.5494 0.20304 0.0
H1071 H 0.49861 0.55734 0.22427 0.0
H1072 H 0.44316 0.485 0.22491 0.0
H1073 H 0.42029 0.47586 0.21507 0.0
H1074 H 0.42098 0.47838 0.23172 0.0
H1075 H 0.42171 0.5238 0.21318 0.0
H1076 H 0.40498 0.50785 0.22305 0.0
H1077 H 0.40822 0.49727 0.20872 0.0
H1078 H 0.36413 0.46114 0.24149 0.0
C1079 C 0.39435 0.48515 0.24212 0.0
C1080 C 0.52761 0.02032 0.03633 0.0
Eu1081 Eu 0.51105 0.01199 0.0136 0.0
C1082 C 0.5213 0.0145 0.04865 0.0
C1083 C 0.50395 0.01361 0.05257 0.0
C1084 C 0.49828 0.008 0.06431 0.0
C1085 C 0.50971 0.00294 0.07224 0.0
C1086 C 0.52693 0.00364 0.06823 0.0
C1087 C 0.53271 0.00945 0.05655 0.0
C1088 C 0.49695 0.0323 0.00117 0.0
C1089 C 0.46311 0.97859 0.01232 0.0
C1090 C 0.47153 0.98273 0.96548 0.0
Eu1091 Eu 0.48668 0.99077 0.98855 0.0
C1092 C 0.47983 0.98883 0.95361 0.0
C1093 C 0.47073 0.97576 0.94273 0.0
C1094 C 0.47845 0.98147 0.9314 0.0
C1095 C 0.49537 0.00039 0.9308 0.0
C1096 C 0.50475 0.01321 0.94176 0.0
C1097 C 0.49702 0.00753 0.95306 0.0
C1098 C 0.50094 0.97064 0.00098 0.0
C1099 C 0.53467 0.02427 0.98999 0.0
O1100 O 0.52695 0.00633 0.0286 0.0
O1101 O 0.52127 0.03119 0.03102 0.0
O1102 O 0.51418 0.04095 0.00778 0.0
O1103 O 0.48761 0.01371 0.00201 0.0
O1104 O 0.48088 0.98811 0.01887 0.0
O1105 O 0.46101 0.97935 1.00023 0.0
O1106 O 0.47197 0.99678 0.97307 0.0
O1107 O 0.47673 0.97132 0.97115 0.0
O1108 O 0.48358 0.96189 0.99451 0.0
O1109 O 0.5102 0.9892 1.00005 0.0
O1110 O 0.51701 0.01423 0.98338 0.0
O1111 O 0.53679 0.02411 0.0021 0.0
H1112 H 0.49473 0.01717 0.04656 0.0
H1113 H 0.48479 0.0073 0.06711 0.0
H1114 H 0.53605 0.9999 0.07419 0.0
H1115 H 0.54609 0.00997 0.05367 0.0
H1116 H 0.45754 0.96122 0.94298 0.0
H1117 H 0.47088 0.97134 0.92306 0.0
H1118 H 0.51792 0.02776 0.94158 0.0
H1119 H 0.50434 0.01788 0.96132 0.0
C1120 C 0.00045 0.52647 0.03333 0.0
Eu1121 Eu 0.99664 0.50686 0.01206 0.0
C1122 C 0.00318 0.52405 0.04642 0.0
C1123 C 0.00616 0.5085 0.04993 0.0
C1124 C 0.00802 0.5059 0.06245 0.0
C1125 C 0.0069 0.51882 0.07165 0.0
C1126 C 0.00417 0.53455 0.06803 0.0
C1127 C 0.00228 0.53709 0.05551 0.0
C1128 C 0.97018 0.46753 0.00517 0.0
C1129 C 0.02612 0.48799 0.01215 0.0
C1130 C 0.99926 0.47079 0.96631 0.0
Eu1131 Eu 0.00303 0.48994 0.98771 0.0
C1132 C 0.99568 0.47358 0.9534 0.0
C1133 C 0.99427 0.49029 0.95048 0.0
C1134 C 0.99122 0.49304 0.93812 0.0
C1135 C 0.98949 0.47908 0.92851 0.0
C1136 C 0.99082 0.46231 0.93153 0.0
C1137 C 0.99391 0.4596 0.94389 0.0
C1138 C 0.02959 0.52914 0.99476 0.0
C1139 C 0.97363 0.509 0.98755 0.0
O1140 O 0.01548 0.5302 0.02692 0.0
O1141 O 0.98318 0.51323 0.0274 0.0
O1142 O 0.96554 0.47942 0.0111 0.0
O1143 O 0.98858 0.4764 0.00412 0.0
O1144 O 0.02217 0.50123 0.0176 0.0
O1145 O 0.01733 0.47854 0.00109 0.0
O1146 O 0.98439 0.46617 0.97304 0.0
O1147 O 0.01652 0.48437 0.9721 0.0
O1148 O 0.0343 0.51716 0.98899 0.0
O1149 O 0.01114 0.52034 0.99566 0.0
O1150 O 0.97804 0.4962 0.98197 0.0
O1151 O 0.98192 0.51795 0.99877 0.0
H1152 H 0.00681 0.49825 0.04297 0.0
H1153 H 0.0099 0.49353 0.06491 0.0
H1154 H 0.00362 0.54497 0.07488 0.0
H1155 H 1.00008 0.54923 0.05293 0.0
H1156 H 0.99557 0.5012 0.95776 0.0
H1157 H 0.99003 0.50598 0.93609 0.0
H1158 H 0.98979 0.45144 0.92433 0.0
H1159 H 0.99504 0.44666 0.94602 0.0
C1160 C 0.46952 0.48099 0.965 0.0
Eu1161 Eu 0.4862 0.49491 0.98758 0.0
C1162 C 0.47605 0.4823 0.95246 0.0
C1163 C 0.46627 0.4868 0.94301 0.0
C1164 C 0.47226 0.48832 0.93107 0.0
C1165 C 0.48811 0.48526 0.92831 0.0
C1166 C 0.49796 0.48084 0.93785 0.0
C1167 C 0.49202 0.47941 0.94982 0.0
C1168 C 0.50023 0.53262 0.99808 0.0
C1169 C 0.53446 0.51164 0.9887 0.0
C1170 C 0.52756 0.52095 0.03508 0.0
Eu1171 Eu 0.5113 0.50581 0.01256 0.0
C1172 C 0.52109 0.51875 0.0477 0.0
C1173 C 0.51584 0.50119 0.05343 0.0
C1174 C 0.51017 0.49962 0.06547 0.0
C1175 C 0.50956 0.51552 0.07201 0.0
C1176 C 0.51459 0.53296 0.06622 0.0
C1177 C 0.5204 0.5346 0.05423 0.0
C1178 C 0.49727 0.46794 0.00233 0.0
C1179 C 0.46285 0.48831 0.01136 0.0
O1180 O 0.47429 0.47098 0.97245 0.0
O1181 O 0.47166 0.49751 0.97056 0.0
O1182 O 0.48268 0.52195 0.99197 0.0
O1183 O 0.50977 0.5234 0.99783 0.0
O1184 O 0.51663 0.50096 0.9823 0.0
O1185 O 0.53648 0.51798 0.00053 0.0
O1186 O 0.52057 0.52935 0.02772 0.0
O1187 O 0.5281 0.50584 0.02936 0.0
O1188 O 0.51452 0.47845 0.00884 0.0
O1189 O 0.48782 0.47727 0.00231 0.0
O1190 O 0.48052 0.49817 0.01797 0.0
O1191 O 0.46073 0.48291 0.99938 0.0
H1192 H 0.45401 0.48922 0.94489 0.0
H1193 H 0.46456 0.4921 0.92403 0.0
H1194 H 0.51006 0.47816 0.93603 0.0
H1195 H 0.49987 0.47598 0.95696 0.0
H1196 H 0.51615 0.48867 0.04866 0.0
H1197 H 0.50615 0.48591 0.06965 0.0
H1198 H 0.51446 0.54554 0.07108 0.0
H1199 H 0.52448 0.54834 0.05007 0.0
C1200 C 0.19633 0.35488 0.36905 0.0
Eu1201 Eu 0.17872 0.34743 0.34667 0.0
C1202 C 0.18983 0.34805 0.38115 0.0
C1203 C 0.17094 0.3439 0.38434 0.0
C1204 C 0.16477 0.33696 0.39575 0.0
C1205 C 0.17728 0.33386 0.40411 0.0
C1206 C 0.19609 0.33784 0.40084 0.0
C1207 C 0.20233 0.34494 0.38946 0.0
C1208 C 0.16421 0.36791 0.33505 0.0
C1209 C 0.13092 0.3143 0.34642 0.0
C1210 C 0.13501 0.31814 0.29947 0.0
Eu1211 Eu 0.15264 0.32621 0.32191 0.0
C1212 C 0.14187 0.32411 0.2873 0.0
C1213 C 0.16143 0.32951 0.2849 0.0
C1214 C 0.16806 0.33582 0.27344 0.0
C1215 C 0.15522 0.33683 0.26418 0.0
C1216 C 0.13563 0.3314 0.26664 0.0
C1217 C 0.12904 0.32512 0.27812 0.0
C1218 C 0.16783 0.30612 0.33351 0.0
C1219 C 0.20047 0.35974 0.32219 0.0
O1220 O 0.19551 0.34133 0.36086 0.0
O1221 O 0.1899 0.36607 0.3643 0.0
O1222 O 0.1814 0.37661 0.34169 0.0
O1223 O 0.15483 0.34929 0.33575 0.0
O1224 O 0.14902 0.32366 0.35255 0.0
O1225 O 0.12807 0.31509 0.33441 0.0
O1226 O 0.13653 0.33243 0.30733 0.0
O1227 O 0.14066 0.30663 0.30462 0.0
O1228 O 0.15014 0.29731 0.32743 0.0
O1229 O 0.17684 0.32468 0.33261 0.0
O1230 O 0.18254 0.34927 0.31588 0.0
O1231 O 0.20337 0.35997 0.33431 0.0
H1232 H 0.1609 0.34588 0.37799 0.0
H1233 H 0.15006 0.33369 0.39795 0.0
H1234 H 0.20605 0.33565 0.40713 0.0
H1235 H 0.21688 0.34792 0.3871 0.0
H1236 H 0.17158 0.32891 0.29191 0.0
H1237 H 0.18332 0.34019 0.27191 0.0
H1238 H 0.12532 0.33183 0.25965 0.0
H1239 H 0.11392 0.3211 0.27984 0.0
C1240 C 0.65803 0.85218 0.36848 0.0
Eu1241 Eu 0.66018 0.83846 0.34652 0.0
C1242 C 0.66194 0.84976 0.38151 0.0
C1243 C 0.64664 0.8443 0.38928 0.0
C1244 C 0.64982 0.8419 0.40167 0.0
C1245 C 0.6685 0.84511 0.4066 0.0
C1246 C 0.68382 0.85048 0.39876 0.0
C1247 C 0.68056 0.85271 0.38631 0.0
C1248 C 0.63612 0.80084 0.33548 0.0
C1249 C 0.69148 0.82158 0.34754 0.0
C1250 C 0.67555 0.81452 0.30083 0.0
Eu1251 Eu 0.67358 0.82879 0.32266 0.0
C1252 C 0.67231 0.81736 0.28788 0.0
C1253 C 0.66817 0.83237 0.28478 0.0
C1254 C 0.66536 0.83496 0.27234 0.0
C1255 C 0.66671 0.8226 0.26286 0.0
C1256 C 0.67063 0.80744 0.2661 0.0
C1257 C 0.67342 0.80487 0.2785 0.0
C1258 C 0.69769 0.86629 0.33389 0.0
C1259 C 0.64207 0.84539 0.3215 0.0
O1260 O 0.67348 0.8615 0.3622 0.0
O1261 O 0.64298 0.8366 0.36202 0.0
O1262 O 0.62957 0.81119 0.34129 0.0
O1263 O 0.65493 0.81021 0.33643 0.0
O1264 O 0.68452 0.8319 0.3535 0.0
O1265 O 0.68659 0.81579 0.33557 0.0
O1266 O 0.65958 0.80625 0.30676 0.0
O1267 O 0.69089 0.82962 0.30745 0.0
O1268 O 0.70428 0.85588 0.32816 0.0
O1269 O 0.67888 0.85704 0.33276 0.0
O1270 O 0.65008 0.83618 0.3155 0.0
O1271 O 0.64571 0.85022 0.3336 0.0
H1272 H 0.63213 0.84185 0.38574 0.0
H1273 H 0.63757 0.83739 0.40736 0.0
H1274 H 0.69846 0.85329 0.40227 0.0
H1275 H 0.69262 0.85685 0.3805 0.0
H1276 H 0.66726 0.84212 0.29196 0.0
H1277 H 0.66247 0.84683 0.27016 0.0
H1278 H 0.67135 0.7974 0.25903 0.0
H1279 H 0.67647 0.79313 0.28078 0.0
C1280 C 0.14059 0.82204 0.2994 0.0
Eu1281 Eu 0.15696 0.83372 0.3222 0.0
C1282 C 0.14742 0.82084 0.2872 0.0
C1283 C 0.13941 0.82555 0.27689 0.0
C1284 C 0.14601 0.82503 0.26526 0.0
C1285 C 0.16074 0.81974 0.26373 0.0
C1286 C 0.16878 0.81505 0.27409 0.0
C1287 C 0.16221 0.81563 0.28574 0.0
C1288 C 0.17157 0.87057 0.3342 0.0
C1289 C 0.20468 0.84865 0.32302 0.0
C1290 C 0.199 0.85442 0.36952 0.0
Eu1291 Eu 0.18178 0.84157 0.34697 0.0
C1292 C 0.19309 0.85073 0.38209 0.0
C1293 C 0.17471 0.83426 0.38415 0.0
C1294 C 0.16923 0.83111 0.3962 0.0
C1295 C 0.18205 0.8444 0.40636 0.0
C1296 C 0.20041 0.86093 0.40418 0.0
C1297 C 0.20587 0.86403 0.39215 0.0
C1298 C 0.16699 0.80456 0.33512 0.0
C1299 C 0.13356 0.82588 0.34621 0.0
O1300 O 0.14079 0.80983 0.30718 0.0
O1301 O 0.14709 0.84012 0.30472 0.0
O1302 O 0.15409 0.86069 0.32789 0.0
O1303 O 0.18087 0.86111 0.33335 0.0
O1304 O 0.18677 0.83833 0.31671 0.0
O1305 O 0.20688 0.85464 0.33493 0.0
O1306 O 0.19142 0.86338 0.36318 0.0
O1307 O 0.19884 0.83961 0.36292 0.0
O1308 O 0.18427 0.81418 0.34166 0.0
O1309 O 0.15792 0.81424 0.33586 0.0
O1310 O 0.15116 0.83358 0.35283 0.0
O1311 O 0.13144 0.82277 0.33399 0.0
H1312 H 0.12804 0.82966 0.27784 0.0
H1313 H 0.13939 0.8285 0.25743 0.0
H1314 H 0.18033 0.81119 0.27321 0.0
H1315 H 0.16876 0.81211 0.29359 0.0
H1316 H 0.16464 0.82387 0.37645 0.0
H1317 H 0.15505 0.81818 0.39755 0.0
H1318 H 0.21045 0.87169 0.41175 0.0
H1319 H 0.22003 0.87691 0.39069 0.0
C1320 C 0.86448 0.67868 0.70265 0.0
Eu1321 Eu 0.8473 0.67391 0.68041 0.0
C1322 C 0.85725 0.67364 0.71484 0.0
C1323 C 0.8384 0.67065 0.71722 0.0
C1324 C 0.83126 0.66494 0.72867 0.0
C1325 C 0.84279 0.66197 0.73787 0.0
C1326 C 0.86168 0.66503 0.73543 0.0
C1327 C 0.86884 0.67082 0.724 0.0
C1328 C 0.83239 0.69583 0.67106 0.0
C1329 C 0.79915 0.64114 0.67945 0.0
C1330 C 0.80448 0.64972 0.63297 0.0
Eu1331 Eu 0.82147 0.65604 0.65545 0.0
C1332 C 0.81088 0.65681 0.62085 0.0
C1333 C 0.80673 0.64275 0.61071 0.0
C1334 C 0.81286 0.64903 0.59917 0.0
C1335 C 0.82316 0.66955 0.59749 0.0
C1336 C 0.82727 0.68362 0.60766 0.0
C1337 C 0.82128 0.67734 0.61925 0.0
C1338 C 0.8366 0.63444 0.66519 0.0
C1339 C 0.86896 0.68953 0.65641 0.0
O1340 O 0.85977 0.66335 0.69462 0.0
O1341 O 0.86216 0.69258 0.6978 0.0
O1342 O 0.84991 0.70375 0.67724 0.0
O1343 O 0.82323 0.67702 0.67076 0.0
O1344 O 0.81716 0.64997 0.68568 0.0
O1345 O 0.79654 0.64318 0.66761 0.0
O1346 O 0.80489 0.66267 0.64148 0.0
O1347 O 0.81098 0.63841 0.63741 0.0
O1348 O 0.81876 0.62636 0.65943 0.0
O1349 O 0.84568 0.65316 0.66509 0.0
O1350 O 0.85081 0.68174 0.65053 0.0
O1351 O 0.87181 0.68601 0.66788 0.0
H1352 H 0.82911 0.67251 0.71019 0.0
H1353 H 0.81655 0.66244 0.73022 0.0
H1354 H 0.87098 0.66304 0.74238 0.0
H1355 H 0.88336 0.67294 0.72227 0.0
H1356 H 0.79882 0.62686 0.61174 0.0
H1357 H 0.80972 0.6378 0.59159 0.0
H1358 H 0.83485 0.69949 0.60662 0.0
H1359 H 0.82476 0.68855 0.62692 0.0
C1360 C 0.32747 0.18705 0.70009 0.0
Eu1361 Eu 0.32671 0.17157 0.67801 0.0
C1362 C 0.33385 0.18579 0.71286 0.0
C1363 C 0.32102 0.18288 0.72207 0.0
C1364 C 0.32672 0.18168 0.73426 0.0
C1365 C 0.34546 0.18359 0.73746 0.0
C1366 C 0.35827 0.18636 0.72823 0.0
C1367 C 0.35243 0.18728 0.71599 0.0
C1368 C 0.30116 0.13328 0.66849 0.0
C1369 C 0.35743 0.15399 0.67807 0.0
C1370 C 0.33538 0.14392 0.63144 0.0
Eu1371 Eu 0.33664 0.15893 0.65375 0.0
C1372 C 0.33166 0.14871 0.61906 0.0
C1373 C 0.33454 0.16778 0.6173 0.0
C1374 C 0.33099 0.17225 0.60548 0.0
C1375 C 0.32425 0.15762 0.59529 0.0
C1376 C 0.32106 0.13844 0.59714 0.0
C1377 C 0.32479 0.13404 0.60895 0.0
C1378 C 0.362 0.19741 0.6631 0.0
C1379 C 0.30548 0.17599 0.65367 0.0
O1380 O 0.34155 0.19599 0.69281 0.0
O1381 O 0.31189 0.17083 0.69456 0.0
O1382 O 0.29551 0.14459 0.67414 0.0
O1383 O 0.31989 0.14221 0.66869 0.0
O1384 O 0.35201 0.16579 0.68389 0.0
O1385 O 0.35044 0.14633 0.66647 0.0
O1386 O 0.32007 0.1366 0.63796 0.0
O1387 O 0.35196 0.15746 0.63795 0.0
O1388 O 0.3677 0.18631 0.65727 0.0
O1389 O 0.3433 0.18824 0.66298 0.0
O1390 O 0.31135 0.1646 0.64785 0.0
O1391 O 0.31209 0.1835 0.66532 0.0
H1392 H 0.3066 0.18163 0.71982 0.0
H1393 H 0.31668 0.17969 0.74126 0.0
H1394 H 0.37276 0.18781 0.7305 0.0
H1395 H 0.36253 0.18939 0.70902 0.0
H1396 H 0.33957 0.17921 0.62507 0.0
H1397 H 0.33335 0.18707 0.60432 0.0
H1398 H 0.31601 0.12695 0.58942 0.0
H1399 H 0.32236 0.11922 0.61017 0.0
C1400 C 0.80277 0.14294 0.63366 0.0
Eu1401 Eu 0.81986 0.15815 0.65603 0.0
C1402 C 0.80987 0.1458 0.62132 0.0
C1403 C 0.82933 0.16097 0.6198 0.0
C1404 C 0.83605 0.1636 0.60803 0.0
C1405 C 0.82336 0.15115 0.59758 0.0
C1406 C 0.80389 0.13592 0.59919 0.0
C1407 C 0.79723 0.13327 0.61097 0.0
C1408 C 0.83507 0.19663 0.66535 0.0
C1409 C 0.86794 0.17387 0.65647 0.0
C1410 C 0.86341 0.18537 0.7029 0.0
Eu1411 Eu 0.84591 0.17016 0.68061 0.0
C1412 C 0.85713 0.18563 0.71542 0.0
C1413 C 0.86629 0.18116 0.72524 0.0
C1414 C 0.86053 0.18115 0.73717 0.0
C1415 C 0.84553 0.18575 0.73955 0.0
C1416 C 0.83627 0.19012 0.72964 0.0
C1417 C 0.84198 0.19001 0.71769 0.0
C1418 C 0.83071 0.13173 0.67105 0.0
C1419 C 0.79793 0.15444 0.68017 0.0
O1420 O 0.80966 0.13435 0.6409 0.0
O1421 O 0.80287 0.15834 0.63941 0.0
O1422 O 0.81739 0.18597 0.6594 0.0
O1423 O 0.84421 0.18701 0.66544 0.0
O1424 O 0.84983 0.16333 0.65043 0.0
O1425 O 0.87068 0.18079 0.66825 0.0
O1426 O 0.85941 0.19531 0.69498 0.0
O1427 O 0.86019 0.16806 0.69793 0.0
O1428 O 0.8486 0.14249 0.67673 0.0
O1429 O 0.82154 0.14131 0.6712 0.0
O1430 O 0.81607 0.16553 0.68612 0.0
O1431 O 0.79525 0.14696 0.66851 0.0
H1432 H 0.83929 0.17083 0.62771 0.0
H1433 H 0.85105 0.17558 0.6071 0.0
H1434 H 0.79386 0.12589 0.59136 0.0
H1435 H 0.7822 0.12143 0.61201 0.0
H1436 H 0.8779 0.17758 0.72367 0.0
H1437 H 0.86772 0.17733 0.74451 0.0
H1438 H 0.82482 0.19393 0.73114 0.0
H1439 H 0.83458 0.19343 0.71024 0.0
H1440 H 0.32767 0.87515 0.08303 0.0
H1441 H 0.35716 0.89666 0.0728 0.0
H1442 H 0.31951 0.8875 0.03935 0.0
H1443 H 0.28989 0.86594 0.04954 0.0
H1444 H 0.35166 0.88341 0.03469 0.0
H1445 H 0.34207 0.93468 0.05634 0.0
H1446 H 0.33526 0.94894 0.07511 0.0
H1447 H 0.3867 0.95316 0.09537 0.0
H1448 H 0.39403 0.93929 0.07661 0.0
H1449 H 0.42385 0.95892 0.00261 0.0
H1450 H 0.39437 0.93889 0.01324 0.0
H1451 H 0.43204 0.95109 0.04721 0.0
H1452 H 0.4616 0.97153 0.03674 0.0
H1453 H 0.39992 0.95351 0.05186 0.0
H1454 H 0.41191 0.90606 0.02929 0.0
H1455 H 0.41783 0.89015 0.01094 0.0
H1456 H 0.36083 0.8758 0.99287 0.0
H1457 H 0.35469 0.8919 0.01105 0.0
C1458 C 0.32563 0.87793 0.07355 0.0
C1459 C 0.30642 0.86889 0.06711 0.0
C1460 C 0.34251 0.89021 0.06771 0.0
C1461 C 0.34052 0.89386 0.05535 0.0
C1462 C 0.32138 0.88486 0.04889 0.0
C1463 C 0.30448 0.87253 0.05472 0.0
C1464 C 0.35846 0.90683 0.04912 0.0
C1465 C 0.36207 0.89883 0.03831 0.0
C1466 C 0.3723 0.92674 0.05405 0.0
C1467 C 0.36865 0.93611 0.0651 0.0
C1468 C 0.35203 0.93885 0.06478 0.0
C1469 C 0.3481 0.94689 0.07539 0.0
C1470 C 0.36065 0.95211 0.0864 0.0
C1471 C 0.37719 0.94939 0.08679 0.0
C1472 C 0.38132 0.94158 0.07615 0.0
C1473 C 0.4259 0.95739 0.01235 0.0
C1474 C 0.44514 0.96673 0.01879 0.0
C1475 C 0.40901 0.94586 0.01841 0.0
C1476 C 0.41099 0.94322 0.03099 0.0
C1477 C 0.43013 0.95287 0.0375 0.0
C1478 C 0.44704 0.96449 0.03147 0.0
C1479 C 0.39312 0.93017 0.03728 0.0
C1480 C 0.38953 0.93813 0.04815 0.0
C1481 C 0.37932 0.91014 0.03241 0.0
C1482 C 0.38293 0.90036 0.02148 0.0
C1483 C 0.4007 0.89965 0.02136 0.0
C1484 C 0.40409 0.89058 0.011 0.0
C1485 C 0.38974 0.88201 0.00073 0.0
C1486 C 0.37195 0.88246 0.00082 0.0
C1487 C 0.36849 0.89154 0.01116 0.0
H1488 H 0.39239 0.875 0.99272 0.0
H1489 H 0.35751 0.95818 0.09464 0.0
H1490 H 0.17678 0.48043 0.06175 0.0
H1491 H 0.1514 0.48762 0.05283 0.0
H1492 H 0.10644 0.42532 0.05216 0.0
H1493 H 0.13163 0.41816 0.06143 0.0
H1494 H 0.11452 0.45204 0.028 0.0
H1495 H 0.09704 0.44319 0.07088 0.0
H1496 H 0.10602 0.45081 0.09349 0.0
H1497 H 0.1285 0.51333 0.09014 0.0
H1498 H 0.11995 0.50607 0.06747 0.0
H1499 H 0.02699 0.45324 0.00923 0.0
H1500 H 0.05108 0.44568 0.01932 0.0
H1501 H 0.08186 0.50472 0.03939 0.0
H1502 H 0.05703 0.51191 0.02978 0.0
H1503 H 0.08211 0.48033 0.05397 0.0
H1504 H 0.09885 0.49147 0.01258 0.0
H1505 H 0.09319 0.4872 0.98976 0.0
H1506 H 0.07654 0.42526 0.9895 0.0
H1507 H 0.08184 0.42908 0.01234 0.0
C1508 C 0.16147 0.46831 0.05968 0.0
C1509 C 0.15608 0.44876 0.06225 0.0
C1510 C 0.14704 0.47243 0.05464 0.0
C1511 C 0.12713 0.45699 0.05192 0.0
C1512 C 0.12176 0.4374 0.05427 0.0
C1513 C 0.13609 0.43335 0.05956 0.0
C1514 C 0.11195 0.46134 0.0465 0.0
C1515 C 0.10716 0.45795 0.03364 0.0
C1516 C 0.10309 0.46979 0.05388 0.0
C1517 C 0.10811 0.47412 0.06749 0.0
C1518 C 0.10412 0.45858 0.07496 0.0
C1519 C 0.10907 0.46283 0.08778 0.0
C1520 C 0.11789 0.48256 0.09324 0.0
C1521 C 0.12171 0.49806 0.0859 0.0
C1522 C 0.11681 0.49389 0.07306 0.0
C1523 C 0.03886 0.46458 0.01583 0.0
C1524 C 0.04026 0.48322 0.01865 0.0
C1525 C 0.05271 0.4603 0.02154 0.0
C1526 C 0.06866 0.47481 0.02989 0.0
C1527 C 0.06978 0.49329 0.03295 0.0
C1528 C 0.05561 0.49741 0.02744 0.0
C1529 C 0.0842 0.47072 0.03533 0.0
C1530 C 0.08927 0.47432 0.04823 0.0
C1531 C 0.09367 0.46287 0.02792 0.0
C1532 C 0.09057 0.46052 0.01418 0.0
C1533 C 0.09385 0.4769 0.00766 0.0
C1534 C 0.09073 0.47457 0.99472 0.0
C1535 C 0.08446 0.45596 0.98819 0.0
C1536 C 0.08137 0.43966 0.99458 0.0
C1537 C 0.08445 0.4419 0.00752 0.0
H1538 H 0.08205 0.45418 0.97817 0.0
H1539 H 0.12171 0.48582 0.10317 0.0
H1540 H 0.55327 0.69862 0.0627 0.0
H1541 H 0.5423 0.66483 0.05324 0.0
H1542 H 0.57019 0.68927 0.02042 0.0
H1543 H 0.58086 0.72312 0.02978 0.0
H1544 H 0.53511 0.65824 0.01395 0.0
H1545 H 0.5911 0.67151 0.04182 0.0
H1546 H 0.61212 0.68162 0.06177 0.0
H1547 H 0.56488 0.63297 0.0778 0.0
H1548 H 0.54346 0.62273 0.05799 0.0
H1549 H 0.53874 0.55878 0.00731 0.0
H1550 H 0.55275 0.59348 0.01622 0.0
H1551 H 0.49424 0.58739 0.01119 0.0
H1552 H 0.48032 0.55288 0.00187 0.0
H1553 H 0.54734 0.61018 0.03576 0.0
H1554 H 0.49775 0.63111 0.00525 0.0
H1555 H 0.48016 0.62217 0.98417 0.0
H1556 H 0.52116 0.60472 0.97133 0.0
H1557 H 0.53915 0.6138 0.99228 0.0
C1558 C 0.55722 0.69678 0.05351 0.0
C1559 C 0.56798 0.71348 0.04699 0.0
C1560 C 0.55097 0.67748 0.04812 0.0
C1561 C 0.55565 0.67451 0.03618 0.0
C1562 C 0.56639 0.69119 0.02964 0.0
C1563 C 0.57247 0.7105 0.03499 0.0
C1564 C 0.5489 0.65398 0.03041 0.0
C1565 C 0.53783 0.64776 0.01872 0.0
C1566 C 0.55276 0.64039 0.03651 0.0
C1567 C 0.56561 0.64647 0.04844 0.0
C1568 C 0.58514 0.66306 0.04962 0.0
C1569 C 0.59713 0.6688 0.06091 0.0
C1570 C 0.58982 0.65798 0.07106 0.0
C1571 C 0.57052 0.64136 0.06994 0.0
C1572 C 0.55844 0.63557 0.05868 0.0
C1573 C 0.5289 0.56489 0.00808 0.0
C1574 C 0.5085 0.55328 0.00381 0.0
C1575 C 0.5369 0.58468 0.01321 0.0
C1576 C 0.52462 0.59316 0.01421 0.0
C1577 C 0.5041 0.58134 0.01025 0.0
C1578 C 0.49614 0.56162 0.00498 0.0
C1579 C 0.5333 0.61436 0.01939 0.0
C1580 C 0.54468 0.62069 0.03099 0.0
C1581 C 0.53023 0.62823 0.01305 0.0
C1582 C 0.51967 0.62296 0.00037 0.0
C1583 C 0.50305 0.62544 0.99791 0.0
C1584 C 0.49301 0.62034 0.98599 0.0
C1585 C 0.4995 0.61283 0.97642 0.0
C1586 C 0.5161 0.61047 0.97875 0.0
C1587 C 0.52621 0.61558 0.99066 0.0
H1588 H 0.49169 0.60886 0.9672 0.0
H1589 H 0.59914 0.66244 0.07979 0.0
H1590 H 0.82427 0.29236 0.96342 0.0
H1591 H 0.84779 0.32539 0.97414 0.0
H1592 H 0.89681 0.32249 0.95935 0.0
H1593 H 0.8734 0.28909 0.94888 0.0
H1594 H 0.90598 0.33785 0.98362 0.0
H1595 H 0.87842 0.34895 0.9462 0.0
H1596 H 0.85144 0.34484 0.93097 0.0
H1597 H 0.82994 0.36923 0.95866 0.0
H1598 H 0.85664 0.37321 0.97412 0.0
H1599 H 0.97865 0.44137 0.99291 0.0
H1600 H 0.95515 0.40695 0.98417 0.0
H1601 H 0.90645 0.41177 0.99793 0.0
H1602 H 0.92992 0.44648 0.00642 0.0
H1603 H 0.89685 0.39512 0.97458 0.0
H1604 H 0.92519 0.38486 0.01196 0.0
H1605 H 0.95245 0.38916 0.02703 0.0
H1606 H 0.9728 0.36346 0.99938 0.0
H1607 H 0.9458 0.35925 0.98409 0.0
C1608 C 0.84009 0.29859 0.9626 0.0
C1609 C 0.84696 0.28812 0.95527 0.0
C1610 C 0.85349 0.31755 0.96864 0.0
C1611 C 0.87401 0.3265 0.9674 0.0
C1612 C 0.88101 0.31588 0.96038 0.0
C1613 C 0.86761 0.29688 0.95433 0.0
C1614 C 0.88809 0.34715 0.97316 0.0
C1615 C 0.90414 0.35043 0.98156 0.0
C1616 C 0.88541 0.36346 0.97063 0.0
C1617 C 0.86941 0.36118 0.96134 0.0
C1618 C 0.86784 0.35329 0.94906 0.0
C1619 C 0.85262 0.35101 0.94039 0.0
C1620 C 0.83895 0.35672 0.94385 0.0
C1621 C 0.84052 0.36478 0.956 0.0
C1622 C 0.8557 0.36706 0.96472 0.0
C1623 C 0.96293 0.43507 0.9941 0.0
C1624 C 0.95606 0.44654 0.00033 0.0
C1625 C 0.94954 0.41536 0.98916 0.0
C1626 C 0.92906 0.40669 0.99053 0.0
C1627 C 0.92219 0.41815 0.99679 0.0
C1628 C 0.93559 0.43792 0.00167 0.0
C1629 C 0.91476 0.38587 0.98511 0.0
C1630 C 0.89867 0.38255 0.97673 0.0
C1631 C 0.91743 0.36955 0.98764 0.0
C1632 C 0.93357 0.3719 0.99685 0.0
C1633 C 0.93555 0.38025 0.00907 0.0
C1634 C 0.95095 0.38265 0.01765 0.0
C1635 C 0.96438 0.37663 0.01415 0.0
C1636 C 0.9624 0.36814 0.00207 0.0
C1637 C 0.94704 0.36572 0.99345 0.0
H1638 H 0.97629 0.37852 0.02081 0.0
H1639 H 0.82717 0.35495 0.93712 0.0
H1640 H 0.67618 0.54102 0.92035 0.0
H1641 H 0.64535 0.5336 0.92937 0.0
H1642 H 0.67907 0.56139 0.96493 0.0
H1643 H 0.70994 0.56889 0.95598 0.0
H1644 H 0.64693 0.52592 0.9671 0.0
H1645 H 0.66022 0.58455 0.94718 0.0
H1646 H 0.66715 0.60528 0.92974 0.0
H1647 H 0.61141 0.56079 0.9097 0.0
H1648 H 0.60427 0.53965 0.92696 0.0
H1649 H 0.57341 0.53263 0.99883 0.0
H1650 H 0.60331 0.54092 0.98854 0.0
H1651 H 0.56679 0.51104 0.95404 0.0
H1652 H 0.53672 0.50286 0.96423 0.0
H1653 H 0.59955 0.54664 0.95076 0.0
H1654 H 0.58604 0.48824 0.97069 0.0
H1655 H 0.57891 0.46745 0.9881 0.0
H1656 H 0.63502 0.51136 0.00803 0.0
H1657 H 0.64235 0.53257 0.99079 0.0
C1658 C 0.67706 0.5458 0.93005 0.0
C1659 C 0.69552 0.55552 0.93746 0.0
C1660 C 0.65942 0.54153 0.9352 0.0
C1661 C 0.65991 0.54705 0.94781 0.0
C1662 C 0.67833 0.55692 0.95519 0.0
C1663 C 0.69595 0.56115 0.95007 0.0
C1664 C 0.64119 0.54201 0.95345 0.0
C1665 C 0.63671 0.53069 0.96363 0.0
C1666 C 0.62756 0.54772 0.94869 0.0
C1667 C 0.63181 0.56042 0.93831 0.0
C1668 C 0.64952 0.57911 0.93901 0.0
C1669 C 0.65347 0.59095 0.92916 0.0
C1670 C 0.63976 0.58433 0.9186 0.0
C1671 C 0.62204 0.56588 0.91788 0.0
C1672 C 0.61802 0.55397 0.92769 0.0
C1673 C 0.57168 0.52782 0.98904 0.0
C1674 C 0.55262 0.51696 0.98238 0.0
C1675 C 0.58881 0.53253 0.98318 0.0
C1676 C 0.58726 0.52637 0.97056 0.0
C1677 C 0.56831 0.51588 0.9638 0.0
C1678 C 0.55114 0.51115 0.96966 0.0
C1679 C 0.60545 0.53076 0.96448 0.0
C1680 C 0.60979 0.54188 0.95421 0.0
C1681 C 0.61897 0.52485 0.96914 0.0
C1682 C 0.61466 0.51208 0.97949 0.0
C1683 C 0.59679 0.49354 0.97882 0.0
C1684 C 0.59272 0.48167 0.98865 0.0
C1685 C 0.60648 0.48811 0.99918 0.0
C1686 C 0.62436 0.50641 0.99988 0.0
C1687 C 0.62849 0.51835 0.99007 0.0
H1688 H 0.60331 0.47889 0.00678 0.0
H1689 H 0.64285 0.59353 0.91099 0.0
H1690 H 0.40561 0.12037 0.95839 0.0
H1691 H 0.41885 0.10172 0.96906 0.0
H1692 H 0.45652 0.10893 0.93981 0.0
H1693 H 0.44282 0.12692 0.92897 0.0
H1694 H 0.44269 0.07351 0.94616 0.0
H1695 H 0.47424 0.13889 0.96831 0.0
H1696 H 0.47578 0.1682 0.97977 0.0
H1697 H 0.44391 0.13181 0.00797 0.0
H1698 H 0.44193 0.1022 0.99658 0.0
H1699 H 0.51581 0.07202 0.99799 0.0
H1700 H 0.50226 0.08976 0.98658 0.0
H1701 H 0.44638 0.03436 0.97742 0.0
H1702 H 0.45979 0.01661 0.98889 0.0
H1703 H 0.4708 0.09479 0.99021 0.0
H1704 H 0.42795 0.03341 0.94905 0.0
H1705 H 0.43203 0.00861 0.93607 0.0
H1706 H 0.49583 0.04453 0.94401 0.0
H1707 H 0.49209 0.06924 0.95714 0.0
C1708 C 0.41663 0.11783 0.95424 0.0
C1709 C 0.42322 0.12504 0.94287 0.0
C1710 C 0.42424 0.10727 0.96035 0.0
C1711 C 0.43893 0.1042 0.95534 0.0
C1712 C 0.44518 0.11107 0.94385 0.0
C1713 C 0.43735 0.12132 0.93766 0.0
C1714 C 0.44808 0.09415 0.96212 0.0
C1715 C 0.44874 0.07814 0.95581 0.0
C1716 C 0.45651 0.10049 0.97462 0.0
C1717 C 0.45777 0.11829 0.98153 0.0
C1718 C 0.46744 0.13711 0.97691 0.0
C1719 C 0.46841 0.15378 0.9834 0.0
C1720 C 0.4599 0.15186 0.99458 0.0
C1721 C 0.45046 0.13327 0.9993 0.0
C1722 C 0.44943 0.11654 0.99284 0.0
C1723 C 0.50064 0.06365 0.99353 0.0
C1724 C 0.48887 0.04294 0.99424 0.0
C1725 C 0.49293 0.07379 0.98704 0.0
C1726 C 0.47338 0.06334 0.98109 0.0
C1727 C 0.46159 0.04265 0.98181 0.0
C1728 C 0.46926 0.03254 0.98836 0.0
C1729 C 0.46515 0.07409 0.97426 0.0
C1730 C 0.46462 0.09015 0.98058 0.0
C1731 C 0.45751 0.06832 0.96165 0.0
C1732 C 0.45972 0.05304 0.95415 0.0
C1733 C 0.44282 0.0359 0.94807 0.0
C1734 C 0.44508 0.02183 0.94071 0.0
C1735 C 0.46416 0.02489 0.93926 0.0
C1736 C 0.48103 0.04198 0.94522 0.0
C1737 C 0.47885 0.05598 0.95268 0.0
H1738 H 0.46586 0.01409 0.93346 0.0
H1739 H 0.46066 0.16478 0.99959 0.0
H1740 H 0.69029 0.15418 0.94512 0.0
H1741 H 0.66078 0.13252 0.95521 0.0
H1742 H 0.65221 0.08111 0.93207 0.0
H1743 H 0.68252 0.10241 0.92238 0.0
H1744 H 0.61634 0.09351 0.93729 0.0
H1745 H 0.66454 0.074 0.95366 0.0
H1746 H 0.69797 0.08285 0.96319 0.0
H1747 H 0.69223 0.117 0.99366 0.0
H1748 H 0.65887 0.10859 0.98419 0.0
H1749 H 0.53926 0.01756 0.96587 0.0
H1750 H 0.56858 0.03661 0.95497 0.0
H1751 H 0.59945 0.07646 0.9883 0.0
H1752 H 0.57039 0.05672 0.99945 0.0
H1753 H 0.62449 0.0698 0.97751 0.0
H1754 H 0.57962 0.09232 0.96302 0.0
H1755 H 0.5471 0.08767 0.95461 0.0
H1756 H 0.54698 0.05243 0.92251 0.0
H1757 H 0.57925 0.0566 0.93087 0.0
C1758 C 0.6824 0.13824 0.94226 0.0
C1759 C 0.68906 0.13008 0.93301 0.0
C1760 C 0.6654 0.12594 0.94796 0.0
C1761 C 0.65448 0.1053 0.94439 0.0
C1762 C 0.66054 0.09707 0.93491 0.0
C1763 C 0.6778 0.10931 0.92934 0.0
C1764 C 0.63704 0.09238 0.95087 0.0
C1765 C 0.61801 0.088 0.94597 0.0
C1766 C 0.63944 0.08598 0.96242 0.0
C1767 C 0.65937 0.09088 0.96815 0.0
C1768 C 0.67051 0.08357 0.96232 0.0
C1769 C 0.68942 0.08846 0.96773 0.0
C1770 C 0.69725 0.10054 0.97901 0.0
C1771 C 0.68616 0.10769 0.98492 0.0
C1772 C 0.66726 0.10285 0.97954 0.0
C1773 C 0.55229 0.03039 0.97088 0.0
C1774 C 0.55252 0.03576 0.98348 0.0
C1775 C 0.56902 0.04136 0.96461 0.0
C1776 C 0.5861 0.05829 0.97072 0.0
C1777 C 0.58645 0.06349 0.98338 0.0
C1778 C 0.56984 0.05224 0.98973 0.0
C1779 C 0.60352 0.07054 0.96388 0.0
C1780 C 0.62265 0.07504 0.96876 0.0
C1781 C 0.60128 0.07749 0.95246 0.0
C1782 C 0.58188 0.07494 0.94746 0.0
C1783 C 0.5726 0.08358 0.95416 0.0
C1784 C 0.55421 0.081 0.94942 0.0
C1785 C 0.545 0.06986 0.93798 0.0
C1786 C 0.5541 0.06113 0.93133 0.0
C1787 C 0.57247 0.06365 0.93603 0.0
H1788 H 0.5308 0.06792 0.93431 0.0
H1789 H 0.71189 0.10431 0.98318 0.0
H1790 H 0.85551 0.53895 0.91472 0.0
H1791 H 0.87832 0.53023 0.92545 0.0
H1792 H 0.87592 0.55973 0.95972 0.0
H1793 H 0.85338 0.56889 0.94897 0.0
H1794 H 0.91423 0.56954 0.95578 0.0
H1795 H 0.8503 0.50962 0.95483 0.0
H1796 H 0.81817 0.48158 0.945 0.0
H1797 H 0.84936 0.46103 0.92245 0.0
H1798 H 0.88169 0.48913 0.93203 0.0
H1799 H 0.95814 0.53141 0.99679 0.0
H1800 H 0.93531 0.53983 0.9859 0.0
H1801 H 0.93507 0.5069 0.95235 0.0
H1802 H 0.95765 0.49802 0.96327 0.0
H1803 H 0.89818 0.49889 0.95571 0.0
H1804 H 0.962 0.5584 0.95643 0.0
H1805 H 0.99435 0.58649 0.96596 0.0
H1806 H 0.96385 0.60799 0.98844 0.0
H1807 H 0.9313 0.57986 0.97917 0.0
C1808 C 0.85994 0.54371 0.92452 0.0
C1809 C 0.85266 0.55462 0.931 0.0
C1810 C 0.87284 0.53856 0.93066 0.0
C1811 C 0.87867 0.54418 0.9434 0.0
C1812 C 0.87155 0.55521 0.94989 0.0
C1813 C 0.85857 0.56029 0.94376 0.0
C1814 C 0.89234 0.5387 0.94992 0.0
C1815 C 0.91062 0.55408 0.95592 0.0
C1816 C 0.88784 0.51856 0.9498 0.0
C1817 C 0.86841 0.5016 0.94406 0.0
C1818 C 0.8503 0.49922 0.9477 0.0
C1819 C 0.83205 0.48329 0.94219 0.0
C1820 C 0.83172 0.46956 0.93308 0.0
C1821 C 0.84964 0.47169 0.92949 0.0
C1822 C 0.86793 0.48761 0.93497 0.0
C1823 C 0.95329 0.52597 0.98708 0.0
C1824 C 0.9598 0.51411 0.98089 0.0
C1825 C 0.94028 0.53087 0.98086 0.0
C1826 C 0.9337 0.52424 0.96826 0.0
C1827 C 0.93999 0.51221 0.96207 0.0
C1828 C 0.95293 0.50719 0.96832 0.0
C1829 C 0.9201 0.52974 0.96161 0.0
C1830 C 0.90183 0.51436 0.95557 0.0
C1831 C 0.92466 0.5499 0.96164 0.0
C1832 C 0.94422 0.56691 0.96719 0.0
C1833 C 0.96219 0.56904 0.96347 0.0
C1834 C 0.98057 0.58498 0.96882 0.0
C1835 C 0.98116 0.59899 0.97782 0.0
C1836 C 0.96337 0.59711 0.98148 0.0
C1837 C 0.94496 0.58118 0.97617 0.0
H1838 H 0.9954 0.61132 0.98195 0.0
H1839 H 0.81757 0.45724 0.92882 0.0
H1840 H 0.40056 0.28528 0.95084 0.0
H1841 H 0.41222 0.31943 0.96004 0.0
H1842 H 0.46519 0.32214 0.97738 0.0
H1843 H 0.45347 0.28795 0.96834 0.0
H1844 H 0.45156 0.33927 0.99283 0.0
H1845 H 0.46575 0.34322 0.95035 0.0
H1846 H 0.45777 0.33488 0.92773 0.0
H1847 H 0.4166 0.35678 0.92813 0.0
H1848 H 0.42412 0.36499 0.9508 0.0
H1849 H 0.51477 0.44497 0.00336 0.0
H1850 H 0.50011 0.40967 0.99543 0.0
H1851 H 0.4458 0.40815 0.98203 0.0
H1852 H 0.46032 0.4434 0.99004 0.0
H1853 H 0.45897 0.39039 0.9648 0.0
H1854 H 0.44632 0.38763 0.00755 0.0
H1855 H 0.45537 0.39639 0.03009 0.0
H1856 H 0.49509 0.37278 0.02899 0.0
H1857 H 0.4865 0.36414 0.0064 0.0
C1858 C 0.41464 0.29316 0.95666 0.0
C1859 C 0.42616 0.28401 0.95883 0.0
C1860 C 0.4213 0.31265 0.9619 0.0
C1861 C 0.43975 0.32346 0.96922 0.0
C1862 C 0.45092 0.31409 0.97175 0.0
C1863 C 0.44419 0.29454 0.96661 0.0
C1864 C 0.44774 0.34474 0.97393 0.0
C1865 C 0.45337 0.35048 0.98668 0.0
C1866 C 0.44978 0.35931 0.96593 0.0
C1867 C 0.44534 0.35452 0.95229 0.0
C1868 C 0.45488 0.34612 0.94563 0.0
C1869 C 0.45046 0.34144 0.93279 0.0
C1870 C 0.43664 0.34525 0.9265 0.0
C1871 C 0.42727 0.35381 0.93302 0.0
C1872 C 0.43161 0.35849 0.94586 0.0
C1873 C 0.49971 0.43709 0.99872 0.0
C1874 C 0.48865 0.44686 0.9973 0.0
C1875 C 0.49135 0.41695 0.99423 0.0
C1876 C 0.47182 0.4063 0.98824 0.0
C1877 C 0.46089 0.41614 0.98663 0.0
C1878 C 0.46919 0.43624 0.9912 0.0
C1879 C 0.46283 0.38487 0.98366 0.0
C1880 C 0.45705 0.37913 0.97093 0.0
C1881 C 0.4608 0.37035 0.99166 0.0
C1882 C 0.46591 0.37541 0.00526 0.0
C1883 C 0.45711 0.38445 0.0121 0.0
C1884 C 0.46213 0.38937 0.02489 0.0
C1885 C 0.47583 0.38519 0.03097 0.0
C1886 C 0.4845 0.37603 0.02427 0.0
C1887 C 0.47954 0.37111 0.01147 0.0
H1888 H 0.4797 0.38901 0.04087 0.0
H1889 H 0.43324 0.34161 0.91656 0.0
H1890 H 0.17667 0.70025 0.04078 0.0
H1891 H 0.15269 0.66755 0.02983 0.0
H1892 H 0.10471 0.66944 0.04685 0.0
H1893 H 0.1286 0.70231 0.05775 0.0
H1894 H 0.10218 0.63304 0.04758 0.0
H1895 H 0.11084 0.6784 0.01713 0.0
H1896 H 0.12986 0.70567 0.00427 0.0
H1897 H 0.15404 0.67174 0.98753 0.0
H1898 H 0.13537 0.64436 0.00042 0.0
H1899 H 0.0214 0.55476 0.00793 0.0
H1900 H 0.04536 0.58811 0.0182 0.0
H1901 H 0.09384 0.58348 0.00396 0.0
H1902 H 0.06993 0.54986 0.99386 0.0
H1903 H 0.09593 0.62109 0.00173 0.0
H1904 H 0.0876 0.57592 0.03205 0.0
H1905 H 0.0686 0.54836 0.04472 0.0
H1906 H 0.04382 0.58163 0.06156 0.0
H1907 H 0.06241 0.60929 0.0488 0.0
C1908 C 0.16099 0.69384 0.04209 0.0
C1909 C 0.15454 0.70395 0.05009 0.0
C1910 C 0.14731 0.67511 0.03585 0.0
C1911 C 0.1269 0.66615 0.03744 0.0
C1912 C 0.12041 0.67608 0.04552 0.0
C1913 C 0.13409 0.69484 0.05175 0.0
C1914 C 0.11235 0.6464 0.03069 0.0
C1915 C 0.1006 0.6305 0.03755 0.0
C1916 C 0.11065 0.64299 0.01762 0.0
C1917 C 0.12186 0.65941 0.00983 0.0
C1918 C 0.12034 0.67682 0.01078 0.0
C1919 C 0.13104 0.69229 0.00347 0.0
C1920 C 0.14319 0.69046 0.99511 0.0
C1921 C 0.14464 0.67314 0.99402 0.0
C1922 C 0.13399 0.65764 0.00132 0.0
C1923 C 0.03716 0.56085 0.00699 0.0
C1924 C 0.04389 0.54971 1.00023 0.0
C1925 C 0.0508 0.57988 0.01285 0.0
C1926 C 0.07133 0.58812 0.0119 0.0
C1927 C 0.07803 0.57731 0.00479 0.0
C1928 C 0.0644 0.55815 0.99906 0.0
C1929 C 0.08581 0.60784 0.01861 0.0
C1930 C 0.09751 0.62369 0.01176 0.0
C1931 C 0.08748 0.61119 0.03167 0.0
C1932 C 0.07628 0.59462 0.03939 0.0
C1933 C 0.07795 0.5773 0.03837 0.0
C1934 C 0.06729 0.56167 0.04558 0.0
C1935 C 0.05504 0.56327 0.05395 0.0
C1936 C 0.05335 0.58045 0.05508 0.0
C1937 C 0.06395 0.59611 0.04786 0.0
H1938 H 0.04693 0.55122 0.05958 0.0
H1939 H 0.15146 0.70245 0.98946 0.0
H1940 H 0.31571 0.47202 0.06689 0.0
H1941 H 0.34422 0.47889 0.05543 0.0
H1942 H 0.34225 0.42536 0.0665 0.0
H1943 H 0.31343 0.41815 0.07787 0.0
H1944 H 0.38093 0.45764 0.06809 0.0
H1945 H 0.32331 0.42424 0.03826 0.0
H1946 H 0.29188 0.41831 0.02714 0.0
H1947 H 0.32283 0.47653 0.01414 0.0
H1948 H 0.35442 0.48293 0.02535 0.0
H1949 H 0.44579 0.45698 0.025 0.0
H1950 H 0.41638 0.44697 0.03638 0.0
H1951 H 0.41109 0.49632 0.02396 0.0
H1952 H 0.44 0.5057 0.01214 0.0
H1953 H 0.37545 0.46423 0.02308 0.0
H1954 H 0.43289 0.49817 0.05381 0.0
H1955 H 0.4646 0.50314 0.06385 0.0
H1956 H 0.43412 0.4433 0.07454 0.0
H1957 H 0.40223 0.43794 0.06448 0.0
C1958 C 0.32123 0.46161 0.06684 0.0
C1959 C 0.31213 0.44441 0.0732 0.0
C1960 C 0.33759 0.46562 0.06032 0.0
C1961 C 0.34518 0.4525 0.05999 0.0
C1962 C 0.3366 0.43566 0.06664 0.0
C1963 C 0.32017 0.43161 0.07316 0.0
C1964 C 0.36172 0.45616 0.0524 0.0
C1965 C 0.37967 0.45885 0.05822 0.0
C1966 C 0.36015 0.45798 0.03955 0.0
C1967 C 0.3412 0.45414 0.03274 0.0
C1968 C 0.32339 0.43584 0.03311 0.0
C1969 C 0.30555 0.43239 0.02678 0.0
C1970 C 0.30535 0.44705 0.01996 0.0
C1971 C 0.32301 0.46519 0.01944 0.0
C1972 C 0.34089 0.46874 0.02577 0.0
C1973 C 0.43818 0.46552 0.02469 0.0
C1974 C 0.44496 0.48206 0.01782 0.0
C1975 C 0.4215 0.45992 0.03122 0.0
C1976 C 0.41174 0.47113 0.03123 0.0
C1977 C 0.41839 0.48748 0.02412 0.0
C1978 C 0.43488 0.49287 0.01742 0.0
C1979 C 0.3948 0.46606 0.03878 0.0
C1980 C 0.37674 0.46306 0.03295 0.0
C1981 C 0.3963 0.46398 0.05161 0.0
C1982 C 0.4152 0.46764 0.05836 0.0
C1983 C 0.43294 0.48612 0.05837 0.0
C1984 C 0.45095 0.48902 0.06409 0.0
C1985 C 0.45136 0.47363 0.06997 0.0
C1986 C 0.43376 0.45529 0.07011 0.0
C1987 C 0.4157 0.45232 0.06442 0.0
H1988 H 0.46532 0.47585 0.07436 0.0
H1989 H 0.29152 0.44435 0.01506 0.0
H1990 H 0.59786 0.90224 0.06282 0.0
H1991 H 0.58539 0.9216 0.0523 0.0
H1992 H 0.53028 0.86703 0.0396 0.0
H1993 H 0.54272 0.84763 0.05 0.0
H1994 H 0.54327 0.89008 0.0214 0.0
H1995 H 0.53338 0.89938 0.06393 0.0
H1996 H 0.54318 0.90871 0.08639 0.0
H1997 H 0.58499 0.96907 0.07977 0.0
H1998 H 0.57565 0.96002 0.05724 0.0
H1999 H 0.4824 0.93098 0.00419 0.0
H2000 H 0.49661 0.91326 0.01494 0.0
H2001 H 0.5526 0.9687 0.02353 0.0
H2002 H 0.53854 0.98646 0.01266 0.0
H2003 H 0.54028 0.9463 0.04368 0.0
H2004 H 0.5492 0.93666 0.00099 0.0
H2005 H 0.53848 0.92702 0.97863 0.0
H2006 H 0.49738 0.86674 0.98579 0.0
H2007 H 0.50765 0.87609 0.00822 0.0
C2008 C 0.58305 0.89441 0.05784 0.0
C2009 C 0.57126 0.87343 0.05722 0.0
C2010 C 0.57594 0.90547 0.05184 0.0
C2011 C 0.55682 0.89577 0.04528 0.0
C2012 C 0.5451 0.87482 0.04459 0.0
C2013 C 0.55224 0.86375 0.05051 0.0
C2014 C 0.54901 0.90736 0.039 0.0
C2015 C 0.5424 0.90221 0.02631 0.0
C2016 C 0.54831 0.92349 0.04535 0.0
C2017 C 0.55398 0.92896 0.05889 0.0
C2018 C 0.5448 0.9146 0.06726 0.0
C2019 C 0.55024 0.91984 0.08 0.0
C2020 C 0.56474 0.93945 0.0845 0.0
C2021 C 0.57379 0.95387 0.07627 0.0
C2022 C 0.56842 0.9487 0.06351 0.0
C2023 C 0.49774 0.93937 0.00837 0.0
C2024 C 0.50938 0.96007 0.00764 0.0
C2025 C 0.50583 0.92924 0.01449 0.0
C2026 C 0.52568 0.93967 0.01995 0.0
C2027 C 0.53724 0.96041 0.01939 0.0
C2028 C 0.52919 0.97052 0.0132 0.0
C2029 C 0.53441 0.92886 0.02615 0.0
C2030 C 0.54122 0.93418 0.03879 0.0
C2031 C 0.5352 0.91281 0.01979 0.0
C2032 C 0.52906 0.90713 0.0063 0.0
C2033 C 0.53776 0.92139 0.99781 0.0
C2034 C 0.53178 0.91597 0.98512 0.0
C2035 C 0.51722 0.89629 0.98079 0.0
C2036 C 0.50864 0.88198 0.98915 0.0
C2037 C 0.51454 0.88733 0.00185 0.0
H2038 H 0.51262 0.89213 0.97096 0.0
H2039 H 0.56893 0.94349 0.09437 0.0
H2040 H 0.98162 0.1824 0.3985 0.0
H2041 H 0.01227 0.20328 0.389 0.0
H2042 H 0.00165 0.253 0.39311 0.0
H2043 H 0.97153 0.23238 0.40315 0.0
H2044 H 0.01961 0.22023 0.3691 0.0
H2045 H 0.0427 0.29617 0.39623 0.0
H2046 H 0.03991 0.30921 0.41686 0.0
H2047 H 0.03765 0.25856 0.43257 0.0
H2048 H 0.04056 0.24531 0.41206 0.0
H2049 H 0.09132 0.29665 0.33789 0.0
H2050 H 0.06247 0.27675 0.349 0.0
H2051 H 0.10176 0.28517 0.38146 0.0
H2052 H 0.13076 0.30553 0.3705 0.0
H2053 H 0.07107 0.28811 0.38815 0.0
H2054 H 0.07922 0.2412 0.36222 0.0
H2055 H 0.08341 0.22631 0.34274 0.0
H2056 H 0.02649 0.21557 0.32678 0.0
H2057 H 0.02208 0.23067 0.34611 0.0
C2058 C 0.98593 0.19782 0.3974 0.0
C2059 C 0.97436 0.20587 0.40161 0.0
C2060 C 0.0034 0.20973 0.39196 0.0
C2061 C 0.00951 0.22985 0.39049 0.0
C2062 C 0.99763 0.23773 0.39444 0.0
C2063 C 0.98037 0.22593 0.40012 0.0
C2064 C 0.02813 0.24244 0.38468 0.0
C2065 C 0.03084 0.23506 0.37328 0.0
C2066 C 0.04304 0.26165 0.39021 0.0
C2067 C 0.04172 0.26972 0.40261 0.0
C2068 C 0.04167 0.28787 0.4041 0.0
C2069 C 0.04001 0.29526 0.41577 0.0
C2070 C 0.03851 0.28467 0.42601 0.0
C2071 C 0.03871 0.26669 0.42462 0.0
C2072 C 0.04035 0.25923 0.41298 0.0
C2073 C 0.09387 0.29432 0.3474 0.0
C2074 C 0.11339 0.30258 0.35326 0.0
C2075 C 0.07733 0.28288 0.35374 0.0
C2076 C 0.07993 0.27917 0.36601 0.0
C2077 C 0.09938 0.28778 0.37199 0.0
C2078 C 0.11595 0.29937 0.36568 0.0
C2079 C 0.06234 0.26599 0.37247 0.0
C2080 C 0.05983 0.27326 0.38398 0.0
C2081 C 0.04786 0.24642 0.36721 0.0
C2082 C 0.0504 0.23723 0.35558 0.0
C2083 C 0.06766 0.23579 0.35453 0.0
C2084 C 0.07007 0.22729 0.34352 0.0
C2085 C 0.05525 0.22004 0.33352 0.0
C2086 C 0.03796 0.22121 0.33452 0.0
C2087 C 0.03549 0.22972 0.34551 0.0
H2088 H 0.05714 0.21346 0.325 0.0
H2089 H 0.03729 0.29045 0.43503 0.0
H2090 H 0.83844 0.80446 0.38852 0.0
H2091 H 0.81255 0.81144 0.38075 0.0
H2092 H 0.76799 0.75951 0.39629 0.0
H2093 H 0.79362 0.75185 0.40355 0.0
H2094 H 0.75385 0.76116 0.37446 0.0
H2095 H 0.786 0.80741 0.41042 0.0
H2096 H 0.81421 0.83376 0.42453 0.0
H2097 H 0.82916 0.87446 0.39655 0.0
H2098 H 0.80121 0.84826 0.3822 0.0
H2099 H 0.70185 0.82642 0.37267 0.0
H2100 H 0.72397 0.81688 0.3836 0.0
H2101 H 0.73377 0.79533 0.34867 0.0
H2102 H 0.7115 0.8043 0.33777 0.0
H2103 H 0.76229 0.82884 0.3831 0.0
H2104 H 0.73943 0.75575 0.35135 0.0
H2105 H 0.70929 0.72838 0.3391 0.0
H2106 H 0.67202 0.73922 0.36231 0.0
H2107 H 0.70192 0.76645 0.37481 0.0
C2108 C 0.82309 0.79434 0.39014 0.0
C2109 C 0.81814 0.77763 0.39671 0.0
C2110 C 0.80834 0.79852 0.38583 0.0
C2111 C 0.78837 0.78622 0.38814 0.0
C2112 C 0.78331 0.7693 0.39447 0.0
C2113 C 0.79802 0.76504 0.39871 0.0
C2114 C 0.77272 0.79085 0.38379 0.0
C2115 C 0.75568 0.77595 0.37638 0.0
C2116 C 0.77479 0.80996 0.38659 0.0
C2117 C 0.7916 0.82581 0.3952 0.0
C2118 C 0.79539 0.82193 0.40724 0.0
C2119 C 0.81132 0.83685 0.41529 0.0
C2120 C 0.8235 0.85576 0.41143 0.0
C2121 C 0.81973 0.8598 0.39952 0.0
C2122 C 0.80383 0.84493 0.39143 0.0
C2123 C 0.70865 0.81955 0.36733 0.0
C2124 C 0.70477 0.81597 0.35435 0.0
C2125 C 0.72131 0.81416 0.37359 0.0
C2126 C 0.73027 0.8051 0.36697 0.0
C2127 C 0.72666 0.80186 0.35401 0.0
C2128 C 0.71395 0.80709 0.34778 0.0
C2129 C 0.74377 0.79934 0.37346 0.0
C2130 C 0.7604 0.81402 0.38127 0.0
C2131 C 0.74104 0.77985 0.37131 0.0
C2132 C 0.72295 0.76326 0.36396 0.0
C2133 C 0.72481 0.75222 0.35388 0.0
C2134 C 0.70776 0.73675 0.34688 0.0
C2135 C 0.68875 0.7321 0.3499 0.0
C2136 C 0.68675 0.74288 0.35995 0.0
C2137 C 0.70375 0.75835 0.36699 0.0
H2138 H 0.67557 0.72013 0.34446 0.0
H2139 H 0.83582 0.86729 0.41767 0.0
H2140 H 0.26735 0.05263 0.38852 0.0
H2141 H 0.2559 0.01795 0.3804 0.0
H2142 H 0.2009 0.01227 0.36424 0.0
H2143 H 0.2121 0.04674 0.37245 0.0
H2144 H 0.19479 0.98049 0.37724 0.0
H2145 H 0.23642 0.01815 0.34628 0.0
H2146 H 0.26765 0.04364 0.33882 0.0
H2147 H 0.29825 0.01419 0.35268 0.0
H2148 H 0.26725 0.98868 0.36039 0.0
H2149 H 0.15384 0.89325 0.33558 0.0
H2150 H 0.16819 0.92745 0.34541 0.0
H2151 H 0.22284 0.92813 0.35683 0.0
H2152 H 0.20869 0.89401 0.34667 0.0
H2153 H 0.23094 0.96214 0.34776 0.0
H2154 H 0.18955 0.92348 0.37773 0.0
H2155 H 0.15878 0.89792 0.38553 0.0
H2156 H 0.12835 0.92897 0.37434 0.0
H2157 H 0.15891 0.9546 0.36631 0.0
C2158 C 0.25282 0.04396 0.38323 0.0
C2159 C 0.24064 0.0524 0.38107 0.0
C2160 C 0.24636 0.02422 0.37855 0.0
C2161 C 0.2276 0.01261 0.37167 0.0
C2162 C 0.21543 0.02101 0.36952 0.0
C2163 C 0.22192 0.04074 0.37411 0.0
C2164 C 0.22039 0.99156 0.36687 0.0
C2165 C 0.20257 0.97647 0.3707 0.0
C2166 C 0.23095 0.98632 0.35868 0.0
C2167 C 0.24958 0.00165 0.35404 0.0
C2168 C 0.24986 0.01722 0.34784 0.0
C2169 C 0.2675 0.03165 0.34354 0.0
C2170 C 0.28494 0.03057 0.34531 0.0
C2171 C 0.28474 0.01503 0.35134 0.0
C2172 C 0.26714 0.00058 0.35567 0.0
C2173 C 0.16889 0.90068 0.34022 0.0
C2174 C 0.18014 0.891 0.34042 0.0
C2175 C 0.17704 0.92017 0.34589 0.0
C2176 C 0.19649 0.93025 0.35202 0.0
C2177 C 0.20778 0.92061 0.35219 0.0
C2178 C 0.19967 0.90112 0.34644 0.0
C2179 C 0.2051 0.95103 0.35797 0.0
C2180 C 0.22321 0.96609 0.35438 0.0
C2181 C 0.19489 0.95625 0.36647 0.0
C2182 C 0.17649 0.94088 0.37133 0.0
C2183 C 0.17626 0.92478 0.37685 0.0
C2184 C 0.15884 0.91028 0.38133 0.0
C2185 C 0.14158 0.91179 0.38041 0.0
C2186 C 0.14172 0.92782 0.37504 0.0
C2187 C 0.15909 0.94235 0.37053 0.0
H2188 H 0.1281 0.90057 0.38388 0.0
H2189 H 0.29858 0.04175 0.34197 0.0
H2190 H 0.54365 0.61919 0.28119 0.0
H2191 H 0.56746 0.65324 0.29054 0.0
H2192 H 0.51869 0.65987 0.3023 0.0
H2193 H 0.49482 0.62612 0.29269 0.0
H2194 H 0.54456 0.69189 0.29136 0.0
H2195 H 0.54865 0.65241 0.32284 0.0
H2196 H 0.55389 0.62616 0.33108 0.0
H2197 H 0.61365 0.65506 0.32044 0.0
H2198 H 0.60867 0.68135 0.31198 0.0
H2199 H 0.5956 0.77861 0.33371 0.0
H2200 H 0.57421 0.74427 0.32411 0.0
H2201 H 0.62632 0.74213 0.3143 0.0
H2202 H 0.64785 0.77643 0.32419 0.0
H2203 H 0.60029 0.7081 0.32334 0.0
H2204 H 0.5969 0.74835 0.29264 0.0
H2205 H 0.59203 0.77496 0.28469 0.0
H2206 H 0.53128 0.74478 0.29361 0.0
H2207 H 0.53589 0.71813 0.30182 0.0
C2208 C 0.53801 0.62791 0.28577 0.0
C2209 C 0.51734 0.61993 0.28622 0.0
C2210 C 0.55164 0.6473 0.29118 0.0
C2211 C 0.54485 0.65904 0.29718 0.0
C2212 C 0.52425 0.65105 0.29773 0.0
C2213 C 0.51064 0.63169 0.29234 0.0
C2214 C 0.5591 0.67987 0.3026 0.0
C2215 C 0.55661 0.69541 0.29846 0.0
C2216 C 0.57519 0.68452 0.31157 0.0
C2217 C 0.57821 0.66872 0.31666 0.0
C2218 C 0.56285 0.65307 0.32216 0.0
C2219 C 0.56578 0.6382 0.32689 0.0
C2220 C 0.58407 0.6389 0.32625 0.0
C2221 C 0.59948 0.65451 0.32091 0.0
C2222 C 0.59661 0.66941 0.31615 0.0
C2223 C 0.60248 0.77081 0.32951 0.0
C2224 C 0.62334 0.78017 0.32962 0.0
C2225 C 0.59026 0.75123 0.32398 0.0
C2226 C 0.59865 0.74073 0.31833 0.0
C2227 C 0.61953 0.74998 0.31857 0.0
C2228 C 0.63179 0.76957 0.32416 0.0
C2229 C 0.58556 0.72008 0.31223 0.0
C2230 C 0.5883 0.70459 0.3162 0.0
C2231 C 0.56972 0.71547 0.30306 0.0
C2232 C 0.5668 0.73132 0.29794 0.0
C2233 C 0.58254 0.74744 0.29298 0.0
C2234 C 0.57982 0.76254 0.28842 0.0
C2235 C 0.56136 0.76159 0.28867 0.0
C2236 C 0.54557 0.7455 0.29344 0.0
C2237 C 0.54823 0.73039 0.29804 0.0
H2238 H 0.55926 0.77329 0.28515 0.0
H2239 H 0.58631 0.62738 0.32991 0.0
H2240 H 0.3609 0.86421 0.2799 0.0
H2241 H 0.33016 0.85746 0.28866 0.0
H2242 H 0.33286 0.90863 0.27303 0.0
H2243 H 0.36417 0.91605 0.2647 0.0
H2244 H 0.32262 0.90761 0.29562 0.0
H2245 H 0.30042 0.86063 0.25976 0.0
H2246 H 0.29907 0.83394 0.24542 0.0
H2247 H 0.28065 0.79399 0.27389 0.0
H2248 H 0.28217 0.82053 0.28846 0.0
H2249 H 0.20661 0.84314 0.29812 0.0
H2250 H 0.23638 0.85213 0.28747 0.0
H2251 H 0.27302 0.87431 0.32254 0.0
H2252 H 0.24344 0.86584 0.33322 0.0
H2253 H 0.26224 0.83993 0.28817 0.0
H2254 H 0.31853 0.91305 0.31924 0.0
H2255 H 0.31842 0.94075 0.33166 0.0
H2256 H 0.26611 0.93051 0.30916 0.0
H2257 H 0.26608 0.90294 0.2965 0.0
C2258 C 0.35513 0.87421 0.27845 0.0
C2259 C 0.36504 0.89068 0.27157 0.0
C2260 C 0.33739 0.87017 0.28334 0.0
C2261 C 0.32901 0.88235 0.28135 0.0
C2262 C 0.33898 0.89896 0.27464 0.0
C2263 C 0.3568 0.90308 0.26979 0.0
C2264 C 0.30994 0.87781 0.28636 0.0
C2265 C 0.30942 0.89282 0.29398 0.0
C2266 C 0.29253 0.85866 0.28397 0.0
C2267 C 0.29159 0.84264 0.27524 0.0
C2268 C 0.29623 0.8462 0.263 0.0
C2269 C 0.29541 0.83109 0.25482 0.0
C2270 C 0.28983 0.8123 0.25875 0.0
C2271 C 0.285 0.80856 0.27086 0.0
C2272 C 0.28583 0.82363 0.27908 0.0
C2273 C 0.221 0.84999 0.30357 0.0
C2274 C 0.22264 0.85388 0.31653 0.0
C2275 C 0.23802 0.85508 0.29746 0.0
C2276 C 0.257 0.86415 0.30417 0.0
C2277 C 0.25861 0.86774 0.31712 0.0
C2278 C 0.24164 0.86279 0.32323 0.0
C2279 C 0.27508 0.86958 0.29768 0.0
C2280 C 0.27543 0.85474 0.28978 0.0
C2281 C 0.29215 0.88905 0.29954 0.0
C2282 C 0.29221 0.9058 0.307 0.0
C2283 C 0.30707 0.91677 0.31691 0.0
C2284 C 0.30701 0.93244 0.324 0.0
C2285 C 0.29223 0.93735 0.32123 0.0
C2286 C 0.27751 0.92664 0.31133 0.0
C2287 C 0.27751 0.91098 0.3042 0.0
H2288 H 0.29221 0.94947 0.32673 0.0
H2289 H 0.28919 0.80062 0.25241 0.0
H2290 H 0.10128 0.45281 0.26105 0.0
H2291 H 0.11378 0.43392 0.27201 0.0
H2292 H 0.09733 0.44971 0.30633 0.0
H2293 H 0.08463 0.46852 0.29541 0.0
H2294 H 0.13473 0.45547 0.30901 0.0
H2295 H 0.0699 0.40281 0.29149 0.0
H2296 H 0.0427 0.38281 0.27484 0.0
H2297 H 0.08101 0.3671 0.25613 0.0
H2298 H 0.10855 0.38725 0.27259 0.0
H2299 H 0.14736 0.38811 0.34497 0.0
H2300 H 0.13328 0.40583 0.33394 0.0
H2301 H 0.14904 0.38959 0.29943 0.0
H2302 H 0.16301 0.37184 0.3105 0.0
H2303 H 0.11171 0.38384 0.29685 0.0
H2304 H 0.17658 0.43667 0.31394 0.0
H2305 H 0.20408 0.45673 0.33042 0.0
H2306 H 0.16608 0.47223 0.34966 0.0
H2307 H 0.13825 0.45203 0.33337 0.0
C2308 C 0.10005 0.45203 0.2709 0.0
C2309 C 0.09192 0.46213 0.27736 0.0
C2310 C 0.10724 0.44126 0.27715 0.0
C2311 C 0.10633 0.44028 0.28996 0.0
C2312 C 0.0982 0.45031 0.29644 0.0
C2313 C 0.09101 0.4611 0.29019 0.0
C2314 C 0.11437 0.42924 0.29667 0.0
C2315 C 0.12949 0.43972 0.30647 0.0
C2316 C 0.10789 0.40885 0.29313 0.0
C2317 C 0.09135 0.39671 0.28322 0.0
C2318 C 0.07258 0.39523 0.28378 0.0
C2319 C 0.05709 0.38384 0.27438 0.0
C2320 C 0.06014 0.37374 0.26442 0.0
C2321 C 0.07868 0.37497 0.26385 0.0
C2322 C 0.09423 0.38636 0.27321 0.0
C2323 C 0.14776 0.38841 0.33503 0.0
C2324 C 0.15599 0.3786 0.32849 0.0
C2325 C 0.13981 0.39853 0.32876 0.0
C2326 C 0.14024 0.39914 0.31587 0.0
C2327 C 0.14849 0.38924 0.30936 0.0
C2328 C 0.15641 0.3791 0.31564 0.0
C2329 C 0.13203 0.41006 0.3092 0.0
C2330 C 0.11691 0.39957 0.29939 0.0
C2331 C 0.13855 0.43046 0.31271 0.0
C2332 C 0.15527 0.44267 0.3225 0.0
C2333 C 0.17404 0.44423 0.32173 0.0
C2334 C 0.18969 0.45564 0.33103 0.0
C2335 C 0.18681 0.4657 0.3411 0.0
C2336 C 0.16828 0.46441 0.34187 0.0
C2337 C 0.15256 0.45299 0.3326 0.0
H2338 H 0.19895 0.47454 0.34828 0.0
H2339 H 0.04813 0.36492 0.25716 0.0
H2340 H 0.35751 0.48913 0.2775 0.0
H2341 H 0.32754 0.46807 0.28741 0.0
H2342 H 0.31798 0.41607 0.26446 0.0
H2343 H 0.34864 0.43672 0.25495 0.0
H2344 H 0.28245 0.42335 0.26731 0.0
H2345 H 0.33464 0.41687 0.28989 0.0
H2346 H 0.36786 0.43047 0.30147 0.0
H2347 H 0.35309 0.46247 0.32854 0.0
H2348 H 0.31988 0.44929 0.317 0.0
H2349 H 0.20656 0.34996 0.29901 0.0
H2350 H 0.23555 0.36905 0.28778 0.0
H2351 H 0.26218 0.41532 0.31857 0.0
H2352 H 0.23365 0.39559 0.33007 0.0
H2353 H 0.28943 0.41046 0.31099 0.0
H2354 H 0.23843 0.41856 0.28982 0.0
H2355 H 0.20571 0.4082 0.27848 0.0
H2356 H 0.21791 0.37728 0.24921 0.0
H2357 H 0.25057 0.38713 0.26049 0.0
C2358 C 0.34928 0.47319 0.27464 0.0
C2359 C 0.35573 0.46467 0.26547 0.0
C2360 C 0.33202 0.46123 0.28023 0.0
C2361 C 0.32065 0.44059 0.27664 0.0
C2362 C 0.32657 0.43204 0.26728 0.0
C2363 C 0.34406 0.44392 0.26182 0.0
C2364 C 0.30296 0.42789 0.28304 0.0
C2365 C 0.28385 0.42022 0.2768 0.0
C2366 C 0.30497 0.42448 0.29552 0.0
C2367 C 0.32487 0.43226 0.30251 0.0
C2368 C 0.33855 0.42696 0.29825 0.0
C2369 C 0.35736 0.43456 0.30481 0.0
C2370 C 0.36261 0.44737 0.31572 0.0
C2371 C 0.34902 0.45256 0.32009 0.0
C2372 C 0.3302 0.44502 0.31354 0.0
C2373 C 0.21857 0.36425 0.30333 0.0
C2374 C 0.21786 0.37139 0.31536 0.0
C2375 C 0.23511 0.37523 0.29688 0.0
C2376 C 0.25096 0.39389 0.30219 0.0
C2377 C 0.2502 0.40099 0.31425 0.0
C2378 C 0.23389 0.38974 0.32082 0.0
C2379 C 0.26855 0.40583 0.29534 0.0
C2380 C 0.28778 0.41343 0.30149 0.0
C2381 C 0.26659 0.40952 0.28284 0.0
C2382 C 0.24688 0.40344 0.27606 0.0
C2383 C 0.23407 0.40939 0.28102 0.0
C2384 C 0.21553 0.40362 0.2746 0.0
C2385 C 0.20973 0.39206 0.26315 0.0
C2386 C 0.22241 0.38619 0.2581 0.0
C2387 C 0.24094 0.39188 0.2645 0.0
H2388 H 0.19546 0.38777 0.25817 0.0
H2389 H 0.37718 0.45324 0.32079 0.0
H2390 H 0.50001 0.86673 0.27318 0.0
H2391 H 0.52403 0.85979 0.28407 0.0
H2392 H 0.57069 0.90157 0.26379 0.0
H2393 H 0.54721 0.90967 0.25338 0.0
H2394 H 0.56535 0.85971 0.26513 0.0
H2395 H 0.57464 0.91862 0.28983 0.0
H2396 H 0.56276 0.9381 0.30173 0.0
H2397 H 0.53817 0.8924 0.32652 0.0
H2398 H 0.54965 0.87249 0.31464 0.0
H2399 H 0.6465 0.8595 0.29886 0.0
H2400 H 0.62474 0.8688 0.28736 0.0
H2401 H 0.58536 0.85086 0.31641 0.0
H2402 H 0.60803 0.84318 0.32832 0.0
H2403 H 0.58747 0.88176 0.30987 0.0
H2404 H 0.57631 0.82195 0.28599 0.0
H2405 H 0.5857 0.80026 0.27408 0.0
H2406 H 0.61047 0.84372 0.24795 0.0
H2407 H 0.60144 0.86581 0.25978 0.0
C2408 C 0.51543 0.87476 0.27115 0.0
C2409 C 0.52157 0.88883 0.26236 0.0
C2410 C 0.52907 0.87058 0.27731 0.0
C2411 C 0.54904 0.88013 0.27467 0.0
C2412 C 0.55526 0.89395 0.26585 0.0
C2413 C 0.54173 0.89844 0.25986 0.0
C2414 C 0.56351 0.87588 0.28131 0.0
C2415 C 0.57044 0.86467 0.27488 0.0
C2416 C 0.5696 0.88196 0.29407 0.0
C2417 C 0.56281 0.89397 0.30126 0.0
C2418 C 0.56653 0.91263 0.29774 0.0
C2419 C 0.5599 0.92377 0.3045 0.0
C2420 C 0.54966 0.91646 0.31485 0.0
C2421 C 0.54608 0.89802 0.31849 0.0
C2422 C 0.55265 0.88682 0.31175 0.0
C2423 C 0.63319 0.85761 0.30275 0.0
C2424 C 0.62887 0.85066 0.31444 0.0
C2425 C 0.62064 0.86274 0.29613 0.0
C2426 C 0.60307 0.86014 0.30084 0.0
C2427 C 0.59879 0.85308 0.31254 0.0
C2428 C 0.6117 0.84864 0.31934 0.0
C2429 C 0.58931 0.86515 0.2938 0.0
C2430 C 0.58248 0.87663 0.30013 0.0
C2431 C 0.58299 0.85891 0.28098 0.0
C2432 C 0.58835 0.84561 0.27383 0.0
C2433 C 0.58386 0.82694 0.27775 0.0
C2434 C 0.58909 0.81456 0.27101 0.0
C2435 C 0.59866 0.8206 0.26028 0.0
C2436 C 0.60304 0.83905 0.25626 0.0
C2437 C 0.59785 0.8515 0.26297 0.0
H2438 H 0.60263 0.81095 0.25507 0.0
H2439 H 0.54455 0.92511 0.32008 0.0
H2440 H 0.09684 0.61838 0.30388 0.0
H2441 H 0.10855 0.65278 0.31222 0.0
H2442 H 0.11307 0.67069 0.27516 0.0
H2443 H 0.10297 0.63672 0.26681 0.0
H2444 H 0.14345 0.69756 0.2887 0.0
H2445 H 0.07375 0.66442 0.29287 0.0
H2446 H 0.0415 0.63845 0.29896 0.0
H2447 H 0.06512 0.65456 0.33726 0.0
H2448 H 0.09761 0.68046 0.33139 0.0
H2449 H 0.12938 0.78094 0.32342 0.0
H2450 H 0.11532 0.74734 0.31253 0.0
H2451 H 0.17091 0.74867 0.32185 0.0
H2452 H 0.18519 0.78245 0.33241 0.0
H2453 H 0.10805 0.71305 0.32023 0.0
H2454 H 0.17962 0.72361 0.29894 0.0
H2455 H 0.20922 0.75055 0.29082 0.0
H2456 H 0.1769 0.781 0.28279 0.0
H2457 H 0.14704 0.75414 0.29067 0.0
C2458 C 0.10057 0.62965 0.29749 0.0
C2459 C 0.09886 0.62463 0.28464 0.0
C2460 C 0.10698 0.64931 0.30227 0.0
C2461 C 0.11136 0.66432 0.29432 0.0
C2462 C 0.1097 0.65939 0.2815 0.0
C2463 C 0.10363 0.63982 0.27672 0.0
C2464 C 0.11812 0.68525 0.29937 0.0
C2465 C 0.13566 0.70091 0.29556 0.0
C2466 C 0.1077 0.68979 0.30809 0.0
C2467 C 0.08816 0.67427 0.31167 0.0
C2468 C 0.07211 0.66233 0.30259 0.0
C2469 C 0.05378 0.64764 0.306 0.0
C2470 C 0.05128 0.64483 0.31849 0.0
C2471 C 0.06709 0.65675 0.32759 0.0
C2472 C 0.08545 0.67145 0.32422 0.0
C2473 C 0.13864 0.77411 0.32302 0.0
C2474 C 0.15841 0.78431 0.32864 0.0
C2475 C 0.13055 0.75489 0.31688 0.0
C2476 C 0.14213 0.74558 0.31626 0.0
C2477 C 0.16182 0.7557 0.32202 0.0
C2478 C 0.16993 0.77494 0.3281 0.0
C2479 C 0.13358 0.72517 0.30977 0.0
C2480 C 0.11575 0.70965 0.31331 0.0
C2481 C 0.14331 0.72085 0.30048 0.0
C2482 C 0.16114 0.73693 0.29551 0.0
C2483 C 0.1788 0.73601 0.29538 0.0
C2484 C 0.19563 0.75128 0.29083 0.0
C2485 C 0.19496 0.76751 0.28633 0.0
C2486 C 0.17743 0.76847 0.28632 0.0
C2487 C 0.16056 0.75323 0.29084 0.0
H2488 H 0.20802 0.77933 0.28282 0.0
H2489 H 0.03708 0.63345 0.32112 0.0
H2490 H 0.81431 0.05541 0.36973 0.0
H2491 H 0.78932 0.02238 0.35949 0.0
H2492 H 0.79324 0.99528 0.39235 0.0
H2493 H 0.81777 0.02832 0.4027 0.0
H2494 H 0.79087 0.99087 0.35293 0.0
H2495 H 0.74981 0.95357 0.39531 0.0
H2496 H 0.74074 0.96331 0.41485 0.0
H2497 H 0.74294 0.01409 0.39937 0.0
H2498 H 0.75174 0.00451 0.37969 0.0
H2499 H 0.73808 0.88622 0.33911 0.0
H2500 H 0.75953 0.92032 0.34909 0.0
H2501 H 0.70773 0.92678 0.35232 0.0
H2502 H 0.68614 0.89237 0.34268 0.0
H2503 H 0.73167 0.94275 0.37261 0.0
H2504 H 0.73974 0.94828 0.3297 0.0
H2505 H 0.74643 0.93999 0.30892 0.0
H2506 H 0.80578 0.95557 0.3232 0.0
H2507 H 0.79936 0.9637 0.34412 0.0
C2508 C 0.80978 0.04238 0.37475 0.0
C2509 C 0.81789 0.04441 0.38701 0.0
C2510 C 0.79551 0.02352 0.36891 0.0
C2511 C 0.78918 0.00632 0.37519 0.0
C2512 C 0.79749 0.00834 0.3874 0.0
C2513 C 0.81155 0.02721 0.3933 0.0
C2514 C 0.77434 0.98623 0.36885 0.0
C2515 C 0.7779 0.98039 0.35723 0.0
C2516 C 0.75714 0.97265 0.3743 0.0
C2517 C 0.75162 0.97841 0.38606 0.0
C2518 C 0.74827 0.96677 0.39606 0.0
C2519 C 0.74319 0.97227 0.40717 0.0
C2520 C 0.74133 0.98934 0.40837 0.0
C2521 C 0.74447 0.00091 0.39845 0.0
C2522 C 0.74952 0.99546 0.38732 0.0
C2523 C 0.73129 0.89493 0.34196 0.0
C2524 C 0.7105 0.88677 0.34005 0.0
C2525 C 0.74355 0.91444 0.34761 0.0
C2526 C 0.7353 0.92628 0.35125 0.0
C2527 C 0.71446 0.91797 0.34955 0.0
C2528 C 0.70215 0.89836 0.34401 0.0
C2529 C 0.74845 0.9473 0.35683 0.0
C2530 C 0.74459 0.95329 0.3683 0.0
C2531 C 0.76503 0.96124 0.35107 0.0
C2532 C 0.769 0.95644 0.3385 0.0
C2533 C 0.75417 0.94981 0.32843 0.0
C2534 C 0.75792 0.94515 0.31662 0.0
C2535 C 0.7765 0.94721 0.31475 0.0
C2536 C 0.79139 0.95397 0.32467 0.0
C2537 C 0.78771 0.95862 0.3365 0.0
H2538 H 0.77938 0.9436 0.3056 0.0
H2539 H 0.73741 0.99359 0.41697 0.0
H2540 H 0.97543 0.80013 0.39343 0.0
H2541 H 0.00428 0.80758 0.38219 0.0
H2542 H 0.01372 0.76558 0.40162 0.0
H2543 H 0.98408 0.75689 0.41236 0.0
H2544 H 0.04885 0.80947 0.40072 0.0
H2545 H 0.99778 0.74875 0.37611 0.0
H2546 H 0.96491 0.7279 0.36401 0.0
H2547 H 0.97976 0.77304 0.33896 0.0
H2548 H 0.01263 0.79431 0.35103 0.0
H2549 H 0.12675 0.81169 0.36881 0.0
H2550 H 0.09699 0.80173 0.37965 0.0
H2551 H 0.0708 0.81819 0.34964 0.0
H2552 H 0.1 0.8268 0.33841 0.0
H2553 H 0.04336 0.78683 0.35626 0.0
H2554 H 0.09446 0.84737 0.37938 0.0
H2555 H 0.12666 0.87039 0.39164 0.0
H2556 H 0.11161 0.82997 0.41974 0.0
H2557 H 0.07971 0.80629 0.40746 0.0
C2558 C 0.98329 0.79209 0.39518 0.0
C2559 C 0.97722 0.7778 0.40384 0.0
C2560 C 0.99991 0.79655 0.3888 0.0
C2561 C 0.01104 0.78711 0.3911 0.0
C2562 C 0.0053 0.77305 0.39978 0.0
C2563 C 0.98842 0.76825 0.40598 0.0
C2564 C 0.02887 0.79218 0.38455 0.0
C2565 C 0.0478 0.80435 0.39104 0.0
C2566 C 0.02726 0.78602 0.37184 0.0
C2567 C 0.00756 0.77322 0.36456 0.0
C2568 C 0.99395 0.75433 0.3681 0.0
C2569 C 0.97534 0.74241 0.36123 0.0
C2570 C 0.97022 0.74917 0.35075 0.0
C2571 C 0.98373 0.76784 0.34709 0.0
C2572 C 0.00236 0.77982 0.35394 0.0
C2573 C 0.1146 0.81315 0.36454 0.0
C2574 C 0.11566 0.82006 0.3528 0.0
C2575 C 0.09763 0.80759 0.37079 0.0
C2576 C 0.08171 0.8096 0.36564 0.0
C2577 C 0.0828 0.81647 0.35385 0.0
C2578 C 0.09952 0.82144 0.34744 0.0
C2579 C 0.0638 0.80428 0.37239 0.0
C2580 C 0.04471 0.79206 0.36594 0.0
C2581 C 0.06531 0.81078 0.38512 0.0
C2582 C 0.08475 0.82491 0.39241 0.0
C2583 C 0.09813 0.84325 0.38809 0.0
C2584 C 0.11635 0.85643 0.39505 0.0
C2585 C 0.12124 0.85164 0.40644 0.0
C2586 C 0.1079 0.83363 0.41089 0.0
C2587 C 0.08977 0.82028 0.40391 0.0
H2588 H 0.13533 0.86191 0.41183 0.0
H2589 H 0.95581 0.73992 0.34544 0.0
H2590 H 0.27007 0.24148 0.39323 0.0
H2591 H 0.25649 0.25991 0.38268 0.0
H2592 H 0.20188 0.20436 0.37085 0.0
H2593 H 0.21543 0.1859 0.38126 0.0
H2594 H 0.21305 0.22697 0.35244 0.0
H2595 H 0.20516 0.23678 0.39526 0.0
H2596 H 0.21588 0.24662 0.41761 0.0
H2597 H 0.25609 0.30708 0.41032 0.0
H2598 H 0.24581 0.29752 0.3879 0.0
H2599 H 0.1499 0.26649 0.33686 0.0
H2600 H 0.16504 0.24911 0.34708 0.0
H2601 H 0.22106 0.30481 0.35442 0.0
H2602 H 0.20611 0.32218 0.34404 0.0
H2603 H 0.20987 0.28291 0.37495 0.0
H2604 H 0.21662 0.27247 0.33187 0.0
H2605 H 0.20466 0.26212 0.30969 0.0
H2606 H 0.16501 0.20199 0.31781 0.0
H2607 H 0.17654 0.21206 0.34008 0.0
C2608 C 0.25515 0.23324 0.3884 0.0
C2609 C 0.24381 0.21226 0.38807 0.0
C2610 C 0.2474 0.24377 0.3824 0.0
C2611 C 0.22807 0.23353 0.3761 0.0
C2612 C 0.21684 0.21257 0.37562 0.0
C2613 C 0.22463 0.20204 0.38155 0.0
C2614 C 0.21946 0.24459 0.36999 0.0
C2615 C 0.21215 0.23904 0.35741 0.0
C2616 C 0.21863 0.26061 0.37641 0.0
C2617 C 0.22488 0.26638 0.38989 0.0
C2618 C 0.21642 0.25213 0.39841 0.0
C2619 C 0.22239 0.25767 0.41109 0.0
C2620 C 0.2367 0.27745 0.41538 0.0
C2621 C 0.24504 0.29175 0.40699 0.0
C2622 C 0.23914 0.28629 0.39429 0.0
C2623 C 0.16544 0.275 0.34065 0.0
C2624 C 0.17682 0.29567 0.33974 0.0
C2625 C 0.17406 0.26507 0.34646 0.0
C2626 C 0.19418 0.27569 0.35145 0.0
C2627 C 0.2055 0.29639 0.35065 0.0
C2628 C 0.19694 0.30628 0.34476 0.0
C2629 C 0.20342 0.26519 0.35747 0.0
C2630 C 0.21084 0.27086 0.37001 0.0
C2631 C 0.20421 0.24918 0.35105 0.0
C2632 C 0.19731 0.24307 0.33766 0.0
C2633 C 0.20523 0.25708 0.32894 0.0
C2634 C 0.19855 0.25126 0.31635 0.0
C2635 C 0.18405 0.23142 0.31235 0.0
C2636 C 0.17623 0.21736 0.32093 0.0
C2637 C 0.18284 0.22311 0.33353 0.0
H2638 H 0.17889 0.22694 0.30259 0.0
H2639 H 0.2413 0.28171 0.4252 0.0
H2640 H 0.66151 0.54184 0.75073 0.0
H2641 H 0.69207 0.56233 0.74107 0.0
H2642 H 0.65672 0.55459 0.70681 0.0
H2643 H 0.62614 0.53401 0.7164 0.0
H2644 H 0.68684 0.54838 0.70272 0.0
H2645 H 0.67962 0.59912 0.72613 0.0
H2646 H 0.67578 0.61568 0.74501 0.0
H2647 H 0.73123 0.62435 0.76221 0.0
H2648 H 0.73529 0.60763 0.74346 0.0
H2649 H 0.75972 0.62241 0.67033 0.0
H2650 H 0.73059 0.60274 0.68129 0.0
H2651 H 0.76921 0.61271 0.71442 0.0
H2652 H 0.79848 0.63271 0.7036 0.0
H2653 H 0.73845 0.6174 0.71977 0.0
H2654 H 0.74656 0.56786 0.69672 0.0
H2655 H 0.7509 0.55097 0.67819 0.0
H2656 H 0.69439 0.53935 0.66085 0.0
H2657 H 0.68984 0.55643 0.67922 0.0
C2658 C 0.66026 0.54472 0.74118 0.0
C2659 C 0.64143 0.53633 0.73432 0.0
C2660 C 0.67773 0.55641 0.73567 0.0
C2661 C 0.67668 0.56014 0.72324 0.0
C2662 C 0.65789 0.55187 0.7164 0.0
C2663 C 0.64044 0.54009 0.72188 0.0
C2664 C 0.69513 0.57219 0.71721 0.0
C2665 C 0.698 0.56358 0.70636 0.0
C2666 C 0.71002 0.59176 0.7222 0.0
C2667 C 0.70766 0.60195 0.73344 0.0
C2668 C 0.69093 0.60444 0.73397 0.0
C2669 C 0.68872 0.61388 0.74464 0.0
C2670 C 0.70322 0.62102 0.75481 0.0
C2671 C 0.72 0.6188 0.75432 0.0
C2672 C 0.72227 0.60936 0.74367 0.0
C2673 C 0.76206 0.62042 0.67994 0.0
C2674 C 0.78146 0.62909 0.68606 0.0
C2675 C 0.74537 0.6091 0.68619 0.0
C2676 C 0.74773 0.60604 0.69863 0.0
C2677 C 0.76705 0.61485 0.70481 0.0
C2678 C 0.78377 0.62623 0.69859 0.0
C2679 C 0.72998 0.59369 0.70518 0.0
C2680 C 0.7273 0.60221 0.71614 0.0
C2681 C 0.7153 0.57396 0.70035 0.0
C2682 C 0.71795 0.5636 0.6893 0.0
C2683 C 0.73513 0.56184 0.68892 0.0
C2684 C 0.73761 0.55221 0.67845 0.0
C2685 C 0.72295 0.54413 0.66834 0.0
C2686 C 0.70575 0.54563 0.66869 0.0
C2687 C 0.70319 0.55527 0.67913 0.0
H2688 H 0.72491 0.53668 0.66024 0.0
H2689 H 0.70148 0.62832 0.76307 0.0
H2690 H 0.48759 0.13352 0.74684 0.0
H2691 H 0.46243 0.14065 0.73776 0.0
H2692 H 0.45912 0.10829 0.70312 0.0
H2693 H 0.48451 0.10142 0.7121 0.0
H2694 H 0.46066 0.14204 0.699 0.0
H2695 H 0.42252 0.08866 0.72389 0.0
H2696 H 0.41424 0.07191 0.74305 0.0
H2697 H 0.4086 0.12009 0.76022 0.0
H2698 H 0.41712 0.13727 0.74122 0.0
H2699 H 0.37188 0.13042 0.66911 0.0
H2700 H 0.39626 0.12368 0.67965 0.0
H2701 H 0.39968 0.16006 0.7124 0.0
H2702 H 0.37506 0.16672 0.70197 0.0
H2703 H 0.39843 0.12568 0.7181 0.0
H2704 H 0.43594 0.17878 0.69343 0.0
H2705 H 0.44386 0.19572 0.67433 0.0
H2706 H 0.45067 0.14842 0.65696 0.0
H2707 H 0.4425 0.13104 0.6759 0.0
C2708 C 0.48137 0.12781 0.73731 0.0
C2709 C 0.48799 0.11689 0.73017 0.0
C2710 C 0.46697 0.13186 0.73214 0.0
C2711 C 0.45866 0.12478 0.71979 0.0
C2712 C 0.46531 0.11392 0.71265 0.0
C2713 C 0.47985 0.11004 0.71778 0.0
C2714 C 0.44341 0.12907 0.71418 0.0
C2715 C 0.44694 0.13819 0.7031 0.0
C2716 C 0.42577 0.12467 0.71973 0.0
C2717 C 0.42068 0.11436 0.73117 0.0
C2718 C 0.41969 0.09577 0.73179 0.0
C2719 C 0.41492 0.08618 0.74262 0.0
C2720 C 0.41095 0.09496 0.75286 0.0
C2721 C 0.4117 0.11332 0.75229 0.0
C2722 C 0.4165 0.12299 0.74149 0.0
C2723 C 0.37772 0.13695 0.67857 0.0
C2724 C 0.37159 0.14923 0.68466 0.0
C2725 C 0.39173 0.13313 0.68457 0.0
C2726 C 0.4 0.14161 0.69674 0.0
C2727 C 0.39353 0.15343 0.70298 0.0
C2728 C 0.3795 0.15726 0.69698 0.0
C2729 C 0.4156 0.13832 0.70286 0.0
C2730 C 0.41218 0.12949 0.71403 0.0
C2731 C 0.43337 0.14303 0.69743 0.0
C2732 C 0.43843 0.15352 0.68605 0.0
C2733 C 0.43898 0.17191 0.68551 0.0
C2734 C 0.44354 0.18161 0.67471 0.0
C2735 C 0.44772 0.17313 0.66443 0.0
C2736 C 0.44741 0.15496 0.66493 0.0
C2737 C 0.44283 0.14519 0.67569 0.0
H2738 H 0.45124 0.18066 0.65608 0.0
H2739 H 0.40725 0.0875 0.76123 0.0
H2740 H 0.92983 0.37894 0.71812 0.0
H2741 H 0.91837 0.34446 0.70958 0.0
H2742 H 0.86077 0.33687 0.69748 0.0
H2743 H 0.87204 0.3712 0.7061 0.0
H2744 H 0.85816 0.30509 0.70962 0.0
H2745 H 0.89284 0.34415 0.67691 0.0
H2746 H 0.92168 0.37082 0.66807 0.0
H2747 H 0.95699 0.34423 0.67818 0.0
H2748 H 0.92842 0.31753 0.68724 0.0
H2749 H 0.816 0.21798 0.66745 0.0
H2750 H 0.8298 0.25227 0.67709 0.0
H2751 H 0.88675 0.25613 0.6858 0.0
H2752 H 0.87307 0.2219 0.67598 0.0
H2753 H 0.89119 0.28958 0.67644 0.0
H2754 H 0.85706 0.24987 0.70828 0.0
H2755 H 0.82882 0.22299 0.71741 0.0
H2756 H 0.79342 0.25036 0.70969 0.0
H2757 H 0.82138 0.27733 0.70037 0.0
C2758 C 0.91472 0.36989 0.71365 0.0
C2759 C 0.90185 0.37776 0.71271 0.0
C2760 C 0.90823 0.35026 0.70874 0.0
C2761 C 0.88876 0.33819 0.70286 0.0
C2762 C 0.87586 0.34598 0.70198 0.0
C2763 C 0.88237 0.36563 0.7068 0.0
C2764 C 0.88174 0.31738 0.69765 0.0
C2765 C 0.86523 0.30168 0.70227 0.0
C2766 C 0.89141 0.31297 0.68836 0.0
C2767 C 0.90856 0.32897 0.68287 0.0
C2768 C 0.90681 0.34408 0.67734 0.0
C2769 C 0.92309 0.35919 0.67227 0.0
C2770 C 0.94117 0.35925 0.67259 0.0
C2771 C 0.94299 0.34418 0.67796 0.0
C2772 C 0.92675 0.32905 0.68305 0.0
C2773 C 0.83146 0.22617 0.67141 0.0
C2774 C 0.84346 0.21732 0.67104 0.0
C2775 C 0.8393 0.24569 0.67696 0.0
C2776 C 0.85922 0.25663 0.68229 0.0
C2777 C 0.87132 0.2479 0.68178 0.0
C2778 C 0.86348 0.22836 0.67622 0.0
C2779 C 0.86741 0.27727 0.68828 0.0
C2780 C 0.88417 0.29294 0.68384 0.0
C2781 C 0.85808 0.28164 0.69782 0.0
C2782 C 0.84127 0.26554 0.70352 0.0
C2783 C 0.84321 0.2501 0.70845 0.0
C2784 C 0.82726 0.23485 0.71367 0.0
C2785 C 0.80932 0.23493 0.71409 0.0
C2786 C 0.80732 0.25031 0.70934 0.0
C2787 C 0.82323 0.2656 0.7041 0.0
H2788 H 0.79699 0.22309 0.71813 0.0
H2789 H 0.95376 0.37095 0.66866 0.0
H2790 H 0.15641 0.96112 0.62287 0.0
H2791 H 0.18032 0.99451 0.63295 0.0
H2792 H 0.22912 0.98761 0.62158 0.0
H2793 H 0.20527 0.95384 0.61182 0.0
H2794 H 0.23693 0.0044 0.64522 0.0
H2795 H 0.21426 0.01539 0.60609 0.0
H2796 H 0.18934 0.01197 0.58948 0.0
H2797 H 0.16702 0.03934 0.61459 0.0
H2798 H 0.19162 0.04266 0.63141 0.0
H2799 H 0.31109 0.10781 0.65673 0.0
H2800 H 0.28833 0.07386 0.64681 0.0
H2801 H 0.23784 0.07846 0.65735 0.0
H2802 H 0.26054 0.11255 0.66707 0.0
H2803 H 0.23163 0.06285 0.63371 0.0
H2804 H 0.25421 0.05131 0.67295 0.0
H2805 H 0.27937 0.05481 0.68942 0.0
H2806 H 0.30225 0.02866 0.66386 0.0
H2807 H 0.27739 0.02525 0.64719 0.0
C2808 C 0.17223 0.96657 0.62265 0.0
C2809 C 0.17893 0.95483 0.61652 0.0
C2810 C 0.18588 0.98575 0.62831 0.0
C2811 C 0.20649 0.99365 0.62786 0.0
C2812 C 0.21327 0.98183 0.62198 0.0
C2813 C 0.19962 0.96262 0.61632 0.0
C2814 C 0.22093 0.01432 0.63345 0.0
C2815 C 0.23595 0.01722 0.64259 0.0
C2816 C 0.21942 0.031 0.63016 0.0
C2817 C 0.20466 0.0291 0.62004 0.0
C2818 C 0.20393 0.02054 0.6081 0.0
C2819 C 0.18988 0.01864 0.59864 0.0
C2820 C 0.17657 0.02539 0.60098 0.0
C2821 C 0.17732 0.03409 0.61279 0.0
C2822 C 0.19133 0.03601 0.62229 0.0
C2823 C 0.29513 0.10155 0.65693 0.0
C2824 C 0.28753 0.11274 0.66268 0.0
C2825 C 0.28216 0.08213 0.65131 0.0
C2826 C 0.2614 0.07354 0.65146 0.0
C2827 C 0.25381 0.08479 0.65714 0.0
C2828 C 0.26677 0.10421 0.66273 0.0
C2829 C 0.24752 0.05292 0.64557 0.0
C2830 C 0.23262 0.05003 0.63634 0.0
C2831 C 0.24919 0.03628 0.64876 0.0
C2832 C 0.26406 0.03821 0.6588 0.0
C2833 C 0.2647 0.04644 0.67082 0.0
C2834 C 0.27889 0.04839 0.6802 0.0
C2835 C 0.29244 0.04201 0.67768 0.0
C2836 C 0.29177 0.03362 0.66579 0.0
C2837 C 0.27762 0.03166 0.65638 0.0
H2838 H 0.30342 0.04354 0.68495 0.0
H2839 H 0.16571 0.0239 0.59365 0.0
H2840 H 0.04016 0.23257 0.61797 0.0
H2841 H 0.00991 0.22546 0.62759 0.0
H2842 H 0.97371 0.18973 0.5941 0.0
H2843 H 0.00405 0.19719 0.58434 0.0
H2844 H 0.95842 0.21078 0.60364 0.0
H2845 H 0.98064 0.16795 0.61932 0.0
H2846 H 0.00468 0.15949 0.62906 0.0
H2847 H 0.01171 0.19623 0.66232 0.0
H2848 H 0.98792 0.20514 0.65271 0.0
H2849 H 0.86823 0.1602 0.63269 0.0
H2850 H 0.89728 0.1679 0.62156 0.0
H2851 H 0.93642 0.20596 0.65358 0.0
H2852 H 0.90749 0.19802 0.66488 0.0
H2853 H 0.94936 0.18252 0.64411 0.0
H2854 H 0.92542 0.22432 0.62774 0.0
H2855 H 0.90009 0.23068 0.61759 0.0
H2856 H 0.89513 0.19382 0.58491 0.0
H2857 H 0.91997 0.18672 0.59499 0.0
C2858 C 0.02575 0.22322 0.61266 0.0
C2859 C 0.02444 0.21527 0.60045 0.0
C2860 C 0.00846 0.21915 0.61816 0.0
C2861 C 0.98949 0.20671 0.61166 0.0
C2862 C 0.98817 0.1993 0.59932 0.0
C2863 C 0.0055 0.20358 0.59375 0.0
C2864 C 0.9711 0.201 0.6179 0.0
C2865 C 0.95631 0.20437 0.61241 0.0
C2866 C 0.9684 0.19279 0.62941 0.0
C2867 C 0.98263 0.18736 0.63525 0.0
C2868 C 0.98742 0.17434 0.62868 0.0
C2869 C 0.00098 0.16945 0.63418 0.0
C2870 C 0.00975 0.17736 0.64629 0.0
C2871 C 0.00492 0.19013 0.65293 0.0
C2872 C 0.99139 0.1951 0.64747 0.0
C2873 C 0.88302 0.17023 0.63738 0.0
C2874 C 0.88552 0.17852 0.64969 0.0
C2875 C 0.89962 0.17469 0.63097 0.0
C2876 C 0.91904 0.18771 0.63668 0.0
C2877 C 0.92158 0.19589 0.64898 0.0
C2878 C 0.905 0.19135 0.65543 0.0
C2879 C 0.93681 0.1926 0.62996 0.0
C2880 C 0.95146 0.18896 0.63534 0.0
C2881 C 0.93921 0.20034 0.6183 0.0
C2882 C 0.92442 0.20481 0.61218 0.0
C2883 C 0.91878 0.2174 0.61843 0.0
C2884 C 0.90448 0.22111 0.6127 0.0
C2885 C 0.89589 0.21254 0.60064 0.0
C2886 C 0.90167 0.20032 0.59428 0.0
C2887 C 0.91585 0.19643 0.6 0.0
H2888 H 0.88482 0.21542 0.59621 0.0
H2889 H 0.02025 0.17355 0.65053 0.0
H2890 H 0.74121 0.76543 0.6055 0.0
H2891 H 0.75381 0.74648 0.61638 0.0
H2892 H 0.80738 0.80162 0.63044 0.0
H2893 H 0.79507 0.82064 0.61939 0.0
H2894 H 0.81541 0.77234 0.6221 0.0
H2895 H 0.77126 0.77914 0.64875 0.0
H2896 H 0.73945 0.77627 0.65392 0.0
H2897 H 0.70942 0.7125 0.64482 0.0
H2898 H 0.74102 0.71502 0.63942 0.0
H2899 H 0.85158 0.73602 0.66939 0.0
H2900 H 0.83901 0.75474 0.65823 0.0
H2901 H 0.7833 0.69989 0.6471 0.0
H2902 H 0.79543 0.68135 0.65882 0.0
H2903 H 0.77631 0.72878 0.65349 0.0
H2904 H 0.82144 0.7219 0.62788 0.0
H2905 H 0.85384 0.7252 0.62368 0.0
H2906 H 0.8823 0.78916 0.63066 0.0
H2907 H 0.85028 0.78629 0.63534 0.0
C2908 C 0.75575 0.77349 0.61082 0.0
C2909 C 0.76711 0.79452 0.61165 0.0
C2910 C 0.76287 0.76267 0.61708 0.0
C2911 C 0.78144 0.77269 0.62429 0.0
C2912 C 0.79299 0.79363 0.62494 0.0
C2913 C 0.78586 0.80447 0.61872 0.0
C2914 C 0.78868 0.76137 0.63139 0.0
C2915 C 0.80699 0.76295 0.62905 0.0
C2916 C 0.77745 0.74885 0.64027 0.0
C2917 C 0.75846 0.7473 0.64356 0.0
C2918 C 0.75784 0.76452 0.64775 0.0
C2919 C 0.73985 0.76296 0.65074 0.0
C2920 C 0.72241 0.74422 0.64967 0.0
C2921 C 0.72293 0.72701 0.64563 0.0
C2922 C 0.74088 0.72849 0.64261 0.0
C2923 C 0.83661 0.72802 0.66462 0.0
C2924 C 0.82457 0.70722 0.66476 0.0
C2925 C 0.8295 0.73868 0.65818 0.0
C2926 C 0.81038 0.72864 0.65158 0.0
C2927 C 0.79815 0.70792 0.65203 0.0
C2928 C 0.80515 0.69732 0.65863 0.0
C2929 C 0.80309 0.73968 0.64422 0.0
C2930 C 0.78473 0.73806 0.64649 0.0
C2931 C 0.8143 0.75212 0.63526 0.0
C2932 C 0.83345 0.75386 0.63207 0.0
C2933 C 0.83462 0.73667 0.6286 0.0
C2934 C 0.85291 0.73845 0.62614 0.0
C2935 C 0.87007 0.75735 0.62688 0.0
C2936 C 0.86899 0.77452 0.63009 0.0
C2937 C 0.85078 0.77283 0.63268 0.0
H2938 H 0.88421 0.75867 0.62497 0.0
H2939 H 0.7085 0.74304 0.65199 0.0
H2940 H 0.01829 0.81887 0.60423 0.0
H2941 H 0.98859 0.79844 0.61459 0.0
H2942 H 0.9919 0.74571 0.6036 0.0
H2943 H 0.02166 0.7661 0.59317 0.0
H2944 H 0.95392 0.7377 0.60106 0.0
H2945 H 0.00897 0.7689 0.6327 0.0
H2946 H 0.03886 0.79707 0.64464 0.0
H2947 H 0.00414 0.82359 0.65556 0.0
H2948 H 0.97408 0.79571 0.64353 0.0
H2949 H 0.90795 0.70063 0.66283 0.0
H2950 H 0.9366 0.71983 0.65138 0.0
H2951 H 0.89838 0.72627 0.62374 0.0
H2952 H 0.86951 0.70646 0.63494 0.0
H2953 H 0.95446 0.75629 0.64562 0.0
H2954 H 0.91674 0.72841 0.59515 0.0
H2955 H 0.88821 0.69866 0.58347 0.0
H2956 H 0.88991 0.66181 0.61096 0.0
H2957 H 0.91894 0.69127 0.62266 0.0
C2958 C 0.01272 0.80293 0.60404 0.0
C2959 C 0.02242 0.79412 0.59798 0.0
C2960 C 0.99573 0.79127 0.60994 0.0
C2961 C 0.98821 0.7706 0.61002 0.0
C2962 C 0.99747 0.76164 0.60365 0.0
C2963 C 0.01444 0.77329 0.59769 0.0
C2964 C 0.97103 0.75848 0.61705 0.0
C2965 C 0.95399 0.74174 0.6108 0.0
C2966 C 0.9713 0.76358 0.62981 0.0
C2967 C 0.98932 0.78031 0.63712 0.0
C2968 C 0.00774 0.78081 0.63758 0.0
C2969 C 0.02471 0.79672 0.64437 0.0
C2970 C 0.02341 0.81214 0.65083 0.0
C2971 C 0.00512 0.81165 0.65054 0.0
C2972 C 0.98811 0.79579 0.64374 0.0
C2973 C 0.90563 0.70615 0.65433 0.0
C2974 C 0.88645 0.70192 0.64976 0.0
C2975 C 0.92204 0.71716 0.64779 0.0
C2976 C 0.91963 0.72428 0.63661 0.0
C2977 C 0.90056 0.72057 0.6322 0.0
C2978 C 0.88408 0.70932 0.63865 0.0
C2979 C 0.93714 0.73558 0.62961 0.0
C2980 C 0.95429 0.75222 0.63587 0.0
C2981 C 0.93709 0.7301 0.61693 0.0
C2982 C 0.91986 0.71214 0.60988 0.0
C2983 C 0.91109 0.71396 0.5987 0.0
C2984 C 0.89481 0.69714 0.59208 0.0
C2985 C 0.88708 0.67838 0.59652 0.0
C2986 C 0.89581 0.67637 0.60756 0.0
C2987 C 0.91221 0.69313 0.61419 0.0
H2988 H 0.8744 0.6654 0.59137 0.0
H2989 H 0.03656 0.82444 0.65608 0.0
H2990 H 0.15917 0.18875 0.60132 0.0
H2991 H 0.18286 0.18168 0.61258 0.0
H2992 H 0.23198 0.23273 0.59917 0.0
H2993 H 0.20842 0.24003 0.58798 0.0
H2994 H 0.2372 0.20069 0.59749 0.0
H2995 H 0.22083 0.23563 0.62843 0.0
H2996 H 0.19834 0.24201 0.64059 0.0
H2997 H 0.17527 0.18437 0.65422 0.0
H2998 H 0.19743 0.17752 0.642 0.0
H2999 H 0.29863 0.20687 0.65923 0.0
H3000 H 0.27578 0.2147 0.64764 0.0
H3001 H 0.25709 0.16276 0.62153 0.0
H3002 H 0.28056 0.15545 0.63274 0.0
H3003 H 0.23754 0.19657 0.64289 0.0
H3004 H 0.24331 0.16789 0.59435 0.0
H3005 H 0.26784 0.16383 0.58287 0.0
H3006 H 0.316 0.21481 0.60502 0.0
H3007 H 0.29178 0.21893 0.61679 0.0
C3008 C 0.17502 0.19859 0.60086 0.0
C3009 C 0.18189 0.21499 0.59378 0.0
C3010 C 0.18853 0.19448 0.60726 0.0
C3011 C 0.20919 0.20675 0.60677 0.0
C3012 C 0.2161 0.22301 0.59963 0.0
C3013 C 0.2026 0.22713 0.59322 0.0
C3014 C 0.22364 0.2028 0.61383 0.0
C3015 C 0.23728 0.19979 0.60742 0.0
C3016 C 0.22393 0.20188 0.6268 0.0
C3017 C 0.21065 0.20599 0.63421 0.0
C3018 C 0.21085 0.22425 0.63395 0.0
C3019 C 0.19818 0.22796 0.64086 0.0
C3020 C 0.18535 0.21359 0.64815 0.0
C3021 C 0.1852 0.19548 0.64856 0.0
C3022 C 0.19782 0.19168 0.64165 0.0
C3023 C 0.28971 0.19719 0.65099 0.0
C3024 C 0.29149 0.18064 0.64683 0.0
C3025 C 0.27662 0.20164 0.64438 0.0
C3026 C 0.26492 0.18952 0.63358 0.0
C3027 C 0.26635 0.17269 0.62962 0.0
C3028 C 0.2797 0.16845 0.63608 0.0
C3029 C 0.25109 0.19439 0.62656 0.0
C3030 C 0.2375 0.19748 0.63296 0.0
C3031 C 0.25111 0.19579 0.61362 0.0
C3032 C 0.26575 0.1937 0.60644 0.0
C3033 C 0.25913 0.17827 0.59673 0.0
C3034 C 0.27297 0.17589 0.59023 0.0
C3035 C 0.29344 0.18914 0.59317 0.0
C3036 C 0.30014 0.2046 0.60274 0.0
C3037 C 0.28637 0.2069 0.60938 0.0
H3038 H 0.3041 0.18748 0.588 0.0
H3039 H 0.17555 0.21649 0.6535 0.0
H3040 H 0.74964 0.94014 0.6403 0.0
H3041 H 0.75906 0.97355 0.64991 0.0
H3042 H 0.78767 0.99954 0.6176 0.0
H3043 H 0.77792 0.96624 0.60789 0.0
H3044 H 0.79346 0.00505 0.65691 0.0
H3045 H 0.78543 0.04078 0.61279 0.0
H3046 H 0.76422 0.03046 0.59289 0.0
H3047 H 0.71719 0.98119 0.60863 0.0
H3048 H 0.73799 0.99138 0.62867 0.0
H3049 H 0.84956 0.11029 0.66787 0.0
H3050 H 0.83467 0.0753 0.65927 0.0
H3051 H 0.77682 0.07074 0.65423 0.0
H3052 H 0.7918 0.10591 0.66245 0.0
H3053 H 0.78152 0.05309 0.63487 0.0
H3054 H 0.78939 0.05009 0.67826 0.0
H3055 H 0.807 0.05921 0.69933 0.0
H3056 H 0.84752 0.04061 0.68717 0.0
H3057 H 0.83031 0.03164 0.66598 0.0
C3058 C 0.75789 0.95302 0.63526 0.0
C3059 C 0.76294 0.95062 0.62333 0.0
C3060 C 0.76326 0.97207 0.64074 0.0
C3061 C 0.77384 0.98904 0.63441 0.0
C3062 C 0.77908 0.98665 0.62255 0.0
C3063 C 0.77354 0.96762 0.61701 0.0
C3064 C 0.77998 0.00934 0.64033 0.0
C3065 C 0.79078 0.01552 0.65211 0.0
C3066 C 0.77608 0.02288 0.6342 0.0
C3067 C 0.76336 0.01676 0.62221 0.0
C3068 C 0.77053 0.0278 0.61202 0.0
C3069 C 0.75858 0.02196 0.60071 0.0
C3070 C 0.73939 0.00515 0.59948 0.0
C3071 C 0.73208 0.99417 0.60958 0.0
C3072 C 0.74396 0.99996 0.62091 0.0
C3073 C 0.83367 0.10178 0.66492 0.0
C3074 C 0.82179 0.1107 0.66586 0.0
C3075 C 0.82515 0.08178 0.66008 0.0
C3076 C 0.80455 0.07028 0.65629 0.0
C3077 C 0.79272 0.07929 0.65711 0.0
C3078 C 0.80128 0.09935 0.66183 0.0
C3079 C 0.79541 0.04893 0.65131 0.0
C3080 C 0.78408 0.04257 0.6397 0.0
C3081 C 0.79829 0.03504 0.65777 0.0
C3082 C 0.80865 0.04034 0.67051 0.0
C3083 C 0.80214 0.04808 0.68006 0.0
C3084 C 0.81204 0.0532 0.69202 0.0
C3085 C 0.8284 0.05053 0.69458 0.0
C3086 C 0.83486 0.04269 0.68517 0.0
C3087 C 0.82502 0.03756 0.67319 0.0
H3088 H 0.83604 0.0545 0.70385 0.0
H3089 H 0.73017 0.00064 0.59072 0.0
H3090 H 0.50695 0.36889 0.70856 0.0
H3091 H 0.48254 0.33596 0.69808 0.0
H3092 H 0.43451 0.34317 0.71063 0.0
H3093 H 0.45889 0.3762 0.72114 0.0
H3094 H 0.42866 0.3067 0.71408 0.0
H3095 H 0.44475 0.34761 0.68053 0.0
H3096 H 0.46681 0.37227 0.6671 0.0
H3097 H 0.48975 0.33383 0.65642 0.0
H3098 H 0.46803 0.30905 0.66993 0.0
H3099 H 0.35191 0.22292 0.67467 0.0
H3100 H 0.3746 0.25686 0.68468 0.0
H3101 H 0.42524 0.25219 0.67459 0.0
H3102 H 0.40262 0.21823 0.66462 0.0
H3103 H 0.42849 0.28784 0.66961 0.0
H3104 H 0.41444 0.2484 0.70431 0.0
H3105 H 0.39335 0.22424 0.7183 0.0
H3106 H 0.36635 0.25988 0.72654 0.0
H3107 H 0.38742 0.28435 0.71263 0.0
C3108 C 0.49119 0.36359 0.70895 0.0
C3109 C 0.48486 0.3752 0.71563 0.0
C3110 C 0.47725 0.34475 0.70298 0.0
C3111 C 0.45669 0.33719 0.70345 0.0
C3112 C 0.4503 0.34871 0.71015 0.0
C3113 C 0.46425 0.36755 0.71616 0.0
C3114 C 0.44191 0.31708 0.6972 0.0
C3115 C 0.4284 0.30269 0.7043 0.0
C3116 C 0.44184 0.31171 0.68451 0.0
C3117 C 0.45488 0.32655 0.67633 0.0
C3118 C 0.45461 0.34448 0.67539 0.0
C3119 C 0.46704 0.35847 0.66775 0.0
C3120 C 0.47971 0.35464 0.66093 0.0
C3121 C 0.47994 0.33678 0.66172 0.0
C3122 C 0.46756 0.32275 0.66936 0.0
C3123 C 0.36789 0.22913 0.67464 0.0
C3124 C 0.37555 0.21796 0.66894 0.0
C3125 C 0.38082 0.24847 0.68038 0.0
C3126 C 0.4016 0.25696 0.68047 0.0
C3127 C 0.40925 0.2459 0.67463 0.0
C3128 C 0.39633 0.22652 0.66895 0.0
C3129 C 0.41541 0.27747 0.68652 0.0
C3130 C 0.4287 0.29193 0.67937 0.0
C3131 C 0.41527 0.28292 0.69915 0.0
C3132 C 0.40235 0.26808 0.70735 0.0
C3133 C 0.40388 0.25099 0.70903 0.0
C3134 C 0.39197 0.23727 0.71697 0.0
C3135 C 0.37842 0.24046 0.72326 0.0
C3136 C 0.37682 0.25741 0.72165 0.0
C3137 C 0.38879 0.27125 0.71377 0.0
H3138 H 0.36923 0.22986 0.72943 0.0
H3139 H 0.48932 0.36549 0.65502 0.0
H3140 H 0.66346 0.12304 0.75467 0.0
H3141 H 0.69309 0.13138 0.74394 0.0
H3142 H 0.65575 0.10433 0.70938 0.0
H3143 H 0.626 0.09554 0.7201 0.0
H3144 H 0.6844 0.0937 0.71245 0.0
H3145 H 0.68132 0.15442 0.71576 0.0
H3146 H 0.67946 0.18222 0.7267 0.0
H3147 H 0.73487 0.20044 0.74856 0.0
H3148 H 0.7369 0.17255 0.73787 0.0
H3149 H 0.75848 0.13355 0.67097 0.0
H3150 H 0.72941 0.12508 0.68222 0.0
H3151 H 0.76818 0.15558 0.71592 0.0
H3152 H 0.79738 0.16447 0.70469 0.0
H3153 H 0.7391 0.16432 0.71371 0.0
H3154 H 0.74274 0.10426 0.71057 0.0
H3155 H 0.745 0.07651 0.6999 0.0
H3156 H 0.68909 0.05688 0.67824 0.0
H3157 H 0.68664 0.08471 0.68866 0.0
C3158 C 0.66154 0.11868 0.74481 0.0
C3159 C 0.64238 0.10866 0.73823 0.0
C3160 C 0.67849 0.12361 0.73867 0.0
C3161 C 0.67663 0.11867 0.72584 0.0
C3162 C 0.65752 0.10835 0.71928 0.0
C3163 C 0.64056 0.10347 0.7254 0.0
C3164 C 0.69463 0.12433 0.71922 0.0
C3165 C 0.69625 0.10916 0.71259 0.0
C3166 C 0.71033 0.14446 0.71969 0.0
C3167 C 0.70915 0.16126 0.72611 0.0
C3168 C 0.69302 0.16425 0.72297 0.0
C3169 C 0.69195 0.18004 0.72912 0.0
C3170 C 0.70701 0.19306 0.73834 0.0
C3171 C 0.7232 0.19033 0.74143 0.0
C3172 C 0.72432 0.17454 0.73533 0.0
C3173 C 0.76086 0.13849 0.68077 0.0
C3174 C 0.78028 0.14961 0.68693 0.0
C3175 C 0.7442 0.13355 0.68721 0.0
C3176 C 0.74659 0.13942 0.69996 0.0
C3177 C 0.76596 0.15083 0.70609 0.0
C3178 C 0.78265 0.15586 0.69965 0.0
C3179 C 0.72886 0.13369 0.70688 0.0
C3180 C 0.72728 0.14884 0.71358 0.0
C3181 C 0.71325 0.11353 0.70654 0.0
C3182 C 0.7146 0.09669 0.70032 0.0
C3183 C 0.731 0.09412 0.70347 0.0
C3184 C 0.7323 0.07836 0.69747 0.0
C3185 C 0.71722 0.06497 0.68838 0.0
C3186 C 0.70077 0.06728 0.68528 0.0
C3187 C 0.69941 0.08303 0.69123 0.0
H3188 H 0.71826 0.05279 0.68374 0.0
H3189 H 0.70616 0.20528 0.74309 0.0
H3190 H 0.93145 0.5662 0.72887 0.0
H3191 H 0.9189 0.5852 0.71799 0.0
H3192 H 0.86346 0.53047 0.70619 0.0
H3193 H 0.87596 0.51144 0.71697 0.0
H3194 H 0.87641 0.55209 0.68744 0.0
H3195 H 0.867 0.56449 0.72953 0.0
H3196 H 0.87662 0.57519 0.7519 0.0
H3197 H 0.91886 0.6347 0.74405 0.0
H3198 H 0.9097 0.62428 0.72162 0.0
H3199 H 0.81742 0.59468 0.6683 0.0
H3200 H 0.83102 0.57659 0.67927 0.0
H3201 H 0.88788 0.63125 0.68722 0.0
H3202 H 0.87444 0.64936 0.67615 0.0
H3203 H 0.8748 0.61034 0.70782 0.0
H3204 H 0.88338 0.59736 0.66549 0.0
H3205 H 0.87251 0.58632 0.64325 0.0
H3206 H 0.83036 0.52725 0.65184 0.0
H3207 H 0.84078 0.53802 0.67416 0.0
C3208 C 0.91653 0.55828 0.72405 0.0
C3209 C 0.9047 0.53734 0.72374 0.0
C3210 C 0.90937 0.56913 0.71784 0.0
C3211 C 0.89017 0.55926 0.71136 0.0
C3212 C 0.87834 0.53838 0.71109 0.0
C3213 C 0.88552 0.52752 0.71723 0.0
C3214 C 0.88252 0.57058 0.70459 0.0
C3215 C 0.87583 0.56467 0.69195 0.0
C3216 C 0.88217 0.58727 0.7104 0.0
C3217 C 0.88783 0.59353 0.72389 0.0
C3218 C 0.87848 0.57981 0.73257 0.0
C3219 C 0.88382 0.58583 0.74526 0.0
C3220 C 0.89838 0.60559 0.74939 0.0
C3221 C 0.90761 0.61938 0.74084 0.0
C3222 C 0.90235 0.61343 0.72813 0.0
C3223 C 0.83285 0.60278 0.67233 0.0
C3224 C 0.84487 0.6234 0.67145 0.0
C3225 C 0.84059 0.59246 0.67858 0.0
C3226 C 0.86046 0.6026 0.68401 0.0
C3227 C 0.87249 0.6232 0.68311 0.0
C3228 C 0.8648 0.63349 0.67679 0.0
C3229 C 0.86865 0.59176 0.69073 0.0
C3230 C 0.87544 0.59778 0.70335 0.0
C3231 C 0.86897 0.57508 0.68493 0.0
C3232 C 0.86273 0.56855 0.67151 0.0
C3233 C 0.87167 0.58206 0.66265 0.0
C3234 C 0.86561 0.57584 0.65002 0.0
C3235 C 0.85071 0.55611 0.64614 0.0
C3236 C 0.84188 0.54253 0.65487 0.0
C3237 C 0.84787 0.54868 0.6675 0.0
H3238 H 0.84604 0.55132 0.63636 0.0
H3239 H 0.90247 0.61024 0.75922 0.0
H3240 H 0.4565 0.91568 0.17067 0.0
H3241 H 0.46603 0.92844 0.15067 0.0
H3242 H 0.45736 0.97807 0.16117 0.0
H3243 H 0.44757 0.96519 0.18121 0.0
H3244 H 0.44406 0.9641 0.13705 0.0
H3245 H 0.50376 0.98439 0.16358 0.0
H3246 H 0.52649 0.97976 0.17807 0.0
H3247 H 0.53009 0.94024 0.15019 0.0
H3248 H 0.50711 0.94438 0.13559 0.0
H3249 H 0.49868 0.02137 0.08971 0.0
H3250 H 0.48811 0.01079 0.11005 0.0
H3251 H 0.49596 0.95976 0.10284 0.0
H3252 H 0.50703 0.97059 0.08265 0.0
H3253 H 0.51023 0.9766 0.12592 0.0
H3254 H 0.44962 0.95677 0.09937 0.0
H3255 H 0.4293 0.96444 0.08483 0.0
H3256 H 0.42847 0.00512 0.11313 0.0
H3257 H 0.44933 0.99816 0.12774 0.0
C3258 C 0.45655 0.92927 0.16869 0.0
C3259 C 0.45152 0.93958 0.17754 0.0
C3260 C 0.46199 0.93654 0.15727 0.0
C3261 C 0.46279 0.95442 0.15453 0.0
C3262 C 0.45691 0.96428 0.16312 0.0
C3263 C 0.4513 0.95691 0.17454 0.0
C3264 C 0.47062 0.96318 0.14293 0.0
C3265 C 0.45862 0.96705 0.13467 0.0
C3266 C 0.48957 0.96694 0.1398 0.0
C3267 C 0.50357 0.96456 0.14853 0.0
C3268 C 0.50928 0.9746 0.16057 0.0
C3269 C 0.52223 0.97207 0.1688 0.0
C3270 C 0.52969 0.95968 0.16506 0.0
C3271 C 0.52427 0.94982 0.15308 0.0
C3272 C 0.5113 0.95226 0.14481 0.0
C3273 C 0.4981 0.00788 0.09248 0.0
C3274 C 0.50356 0.99672 0.0846 0.0
C3275 C 0.49206 0.00184 0.10409 0.0
C3276 C 0.49094 0.9843 0.10789 0.0
C3277 C 0.49671 0.97333 0.1001 0.0
C3278 C 0.50301 0.97952 0.08858 0.0
C3279 C 0.48353 0.97713 0.11991 0.0
C3280 C 0.49566 0.97363 0.12828 0.0
C3281 C 0.46477 0.97387 0.12316 0.0
C3282 C 0.45121 0.97709 0.11461 0.0
C3283 C 0.44515 0.96739 0.10248 0.0
C3284 C 0.43358 0.97165 0.09422 0.0
C3285 C 0.42768 0.98533 0.09803 0.0
C3286 C 0.43314 0.99461 0.11017 0.0
C3287 C 0.44485 0.99052 0.11845 0.0
H3288 H 0.41879 0.98867 0.0916 0.0
H3289 H 0.53971 0.95774 0.17145 0.0
H3290 H 0.04891 0.50313 0.18592 0.0
H3291 H 0.04244 0.49919 0.16338 0.0
H3292 H 0.99824 0.51718 0.16643 0.0
H3293 H 0.0042 0.52059 0.18904 0.0
H3294 H 0.98671 0.48661 0.1478 0.0
H3295 H 0.04474 0.551 0.16156 0.0
H3296 H 0.07807 0.57367 0.1727 0.0
H3297 H 0.10311 0.5451 0.15092 0.0
H3298 H 0.06984 0.52206 0.13976 0.0
H3299 H 0.98491 0.52196 0.08949 0.0
H3300 H 0.98789 0.51796 0.11148 0.0
H3301 H 0.03451 0.50409 0.10586 0.0
H3302 H 0.03217 0.50888 0.08391 0.0
H3303 H 0.04478 0.53028 0.1256 0.0
H3304 H 0.98714 0.46741 0.11065 0.0
H3305 H 0.95381 0.44476 0.09952 0.0
H3306 H 0.92796 0.47007 0.12329 0.0
H3307 H 0.96119 0.49308 0.13446 0.0
C3308 C 0.03747 0.50579 0.18182 0.0
C3309 C 0.02716 0.51232 0.18927 0.0
C3310 C 0.03392 0.50369 0.16893 0.0
C3311 C 0.0201 0.5082 0.16325 0.0
C3312 C 0.00904 0.51372 0.17064 0.0
C3313 C 0.01258 0.51582 0.18355 0.0
C3314 C 0.01813 0.50846 0.14964 0.0
C3315 C 0.99934 0.49625 0.14293 0.0
C3316 C 0.03474 0.52073 0.14329 0.0
C3317 C 0.05477 0.53467 0.14992 0.0
C3318 C 0.05732 0.54946 0.15921 0.0
C3319 C 0.07621 0.56238 0.16552 0.0
C3320 C 0.09269 0.56079 0.16254 0.0
C3321 C 0.09032 0.5463 0.15323 0.0
C3322 C 0.07146 0.53331 0.14691 0.0
C3323 C 0.9959 0.5182 0.09294 0.0
C3324 C 0.00834 0.5158 0.08495 0.0
C3325 C 0.9974 0.51565 0.10549 0.0
C3326 C 0.01123 0.51045 0.11028 0.0
C3327 C 0.02365 0.50799 0.10233 0.0
C3328 C 0.0222 0.5106 0.08978 0.0
C3329 C 0.01331 0.50846 0.12369 0.0
C3330 C 0.03215 0.52043 0.1304 0.0
C3331 C 0.99673 0.49595 0.13001 0.0
C3332 C 0.9767 0.48209 0.12333 0.0
C3333 C 0.97438 0.46825 0.11345 0.0
C3334 C 0.95549 0.45533 0.10714 0.0
C3335 C 0.93878 0.45601 0.11068 0.0
C3336 C 0.94092 0.46957 0.12055 0.0
C3337 C 0.95977 0.48254 0.12689 0.0
H3338 H 0.92418 0.44599 0.10578 0.0
H3339 H 0.10729 0.57081 0.16744 0.0
H3340 H 0.4996 0.51778 0.19001 0.0
H3341 H 0.50455 0.51334 0.16828 0.0
H3342 H 0.45367 0.51944 0.15689 0.0
H3343 H 0.44817 0.52292 0.17865 0.0
H3344 H 0.45358 0.49264 0.1417 0.0
H3345 H 0.50367 0.55906 0.15805 0.0
H3346 H 0.53144 0.58508 0.17258 0.0
H3347 H 0.56802 0.55974 0.1637 0.0
H3348 H 0.54035 0.53339 0.14924 0.0
H3349 H 0.48436 0.52617 0.08228 0.0
H3350 H 0.47619 0.52461 0.10375 0.0
H3351 H 0.51489 0.50091 0.11248 0.0
H3352 H 0.52284 0.50205 0.09095 0.0
H3353 H 0.52109 0.53594 0.12865 0.0
H3354 H 0.46915 0.46903 0.11224 0.0
H3355 H 0.44087 0.44432 0.09749 0.0
H3356 H 0.4079 0.47399 0.10567 0.0
H3357 H 0.43598 0.4988 0.12058 0.0
C3358 C 0.48941 0.51801 0.18283 0.0
C3359 C 0.47359 0.52081 0.18594 0.0
C3360 C 0.4923 0.51558 0.17043 0.0
C3361 C 0.47978 0.51655 0.16092 0.0
C3362 C 0.46357 0.51871 0.16404 0.0
C3363 C 0.46043 0.52071 0.17645 0.0
C3364 C 0.4839 0.51583 0.14778 0.0
C3365 C 0.46831 0.50229 0.13887 0.0
C3366 C 0.50316 0.52826 0.14401 0.0
C3367 C 0.51987 0.54414 0.15266 0.0
C3368 C 0.51759 0.55896 0.15926 0.0
C3369 C 0.53331 0.57377 0.16748 0.0
C3370 C 0.55146 0.57403 0.16909 0.0
C3371 C 0.55394 0.5595 0.16246 0.0
C3372 C 0.53825 0.54463 0.15424 0.0
C3373 C 0.49101 0.52048 0.08875 0.0
C3374 C 0.50415 0.51412 0.08492 0.0
C3375 C 0.48628 0.51954 0.10098 0.0
C3376 C 0.49489 0.51257 0.10964 0.0
C3377 C 0.50804 0.50625 0.10589 0.0
C3378 C 0.51249 0.50683 0.09359 0.0
C3379 C 0.49084 0.51275 0.12274 0.0
C3380 C 0.50644 0.52627 0.13159 0.0
C3381 C 0.47155 0.50064 0.1264 0.0
C3382 C 0.45469 0.48583 0.11744 0.0
C3383 C 0.45591 0.47034 0.11084 0.0
C3384 C 0.43989 0.45628 0.10248 0.0
C3385 C 0.42262 0.45763 0.1006 0.0
C3386 C 0.42129 0.47297 0.10713 0.0
C3387 C 0.43721 0.48698 0.11558 0.0
H3388 H 0.41025 0.44675 0.0941 0.0
H3389 H 0.56362 0.58551 0.17545 0.0
H3390 H 0.94394 0.45033 0.81389 0.0
H3391 H 0.94989 0.45528 0.83643 0.0
H3392 H 0.99071 0.51832 0.83495 0.0
H3393 H 0.98506 0.51338 0.81221 0.0
H3394 H 0.00527 0.50107 0.85129 0.0
H3395 H 0.94636 0.50499 0.84369 0.0
H3396 H 0.91253 0.49471 0.8342 0.0
H3397 H 0.8887 0.43949 0.85093 0.0
H3398 H 0.92244 0.44929 0.86037 0.0
H3399 H 0.0082 0.51378 0.91736 0.0
H3400 H 0.00374 0.51812 0.89548 0.0
H3401 H 0.95976 0.45526 0.88814 0.0
H3402 H 0.96376 0.45093 0.91 0.0
H3403 H 0.94801 0.47847 0.8766 0.0
H3404 H 0.00755 0.47284 0.88168 0.0
H3405 H 0.04145 0.48273 0.89087 0.0
H3406 H 0.06403 0.54135 0.87875 0.0
H3407 H 0.03018 0.53187 0.86963 0.0
C3408 C 0.95435 0.46522 0.81833 0.0
C3409 C 0.96411 0.48146 0.81129 0.0
C3410 C 0.95757 0.46806 0.83122 0.0
C3411 C 0.97054 0.4872 0.83735 0.0
C3412 C 0.98056 0.50345 0.83037 0.0
C3413 C 0.97725 0.50063 0.81742 0.0
C3414 C 0.97364 0.4899 0.85105 0.0
C3415 C 0.99285 0.49656 0.85687 0.0
C3416 C 0.95736 0.48377 0.85827 0.0
C3417 C 0.93698 0.47784 0.85267 0.0
C3418 C 0.93393 0.49059 0.84527 0.0
C3419 C 0.91476 0.48486 0.83992 0.0
C3420 C 0.89848 0.46645 0.84195 0.0
C3421 C 0.90133 0.45375 0.84936 0.0
C3422 C 0.92047 0.45939 0.85473 0.0
C3423 C 0.99741 0.50095 0.9111 0.0
C3424 C 0.9864 0.48198 0.91537 0.0
C3425 C 0.99499 0.50343 0.8986 0.0
C3426 C 0.98156 0.48697 0.89018 0.0
C3427 C 0.97023 0.46814 0.89449 0.0
C3428 C 0.97266 0.46565 0.90695 0.0
C3429 C 0.97952 0.48907 0.8768 0.0
C3430 C 0.9605 0.48332 0.87105 0.0
C3431 C 0.99597 0.49605 0.86966 0.0
C3432 C 0.01631 0.50173 0.87511 0.0
C3433 C 0.01971 0.48789 0.88107 0.0
C3434 C 0.03892 0.49341 0.88625 0.0
C3435 C 0.05487 0.51268 0.88543 0.0
C3436 C 0.05166 0.52645 0.8794 0.0
C3437 C 0.03247 0.52101 0.87422 0.0
H3438 H 0.06973 0.51692 0.88944 0.0
H3439 H 0.88365 0.46204 0.83779 0.0
H3440 H 0.5577 0.48958 0.82185 0.0
H3441 H 0.55347 0.49568 0.84348 0.0
H3442 H 0.49035 0.47154 0.83367 0.0
H3443 H 0.4946 0.4663 0.81195 0.0
H3444 H 0.50455 0.50334 0.85013 0.0
H3445 H 0.50901 0.44327 0.84612 0.0
H3446 H 0.52469 0.4232 0.84071 0.0
H3447 H 0.57589 0.46209 0.86649 0.0
H3448 H 0.56061 0.48256 0.87193 0.0
H3449 H 0.46377 0.47158 0.90648 0.0
H3450 H 0.47351 0.47346 0.88546 0.0
H3451 H 0.53558 0.50271 0.89997 0.0
H3452 H 0.52602 0.50135 0.92111 0.0
H3453 H 0.52518 0.47168 0.88177 0.0
H3454 H 0.51849 0.52978 0.88718 0.0
H3455 H 0.50182 0.54885 0.89266 0.0
H3456 H 0.45374 0.51268 0.86431 0.0
H3457 H 0.46997 0.49318 0.85878 0.0
C3458 C 0.54297 0.4859 0.82425 0.0
C3459 C 0.52645 0.47728 0.81517 0.0
C3460 C 0.54055 0.48921 0.83664 0.0
C3461 C 0.52153 0.48375 0.84023 0.0
C3462 C 0.50515 0.47577 0.83113 0.0
C3463 C 0.50757 0.47259 0.81873 0.0
C3464 C 0.51847 0.48569 0.85348 0.0
C3465 C 0.50892 0.49629 0.85703 0.0
C3466 C 0.52462 0.4769 0.86255 0.0
C3467 C 0.53378 0.46457 0.85932 0.0
C3468 C 0.52368 0.44762 0.85056 0.0
C3469 C 0.53248 0.43616 0.8475 0.0
C3470 C 0.5513 0.4414 0.85322 0.0
C3471 C 0.56133 0.45808 0.86205 0.0
C3472 C 0.55261 0.4696 0.86513 0.0
C3473 C 0.47952 0.47871 0.90523 0.0
C3474 C 0.49411 0.48641 0.91551 0.0
C3475 C 0.48505 0.47971 0.8932 0.0
C3476 C 0.50527 0.48841 0.89116 0.0
C3477 C 0.51989 0.49596 0.90136 0.0
C3478 C 0.51438 0.49506 0.91342 0.0
C3479 C 0.51098 0.48906 0.87836 0.0
C3480 C 0.52102 0.47893 0.8749 0.0
C3481 C 0.50516 0.49817 0.86936 0.0
C3482 C 0.49538 0.50992 0.87263 0.0
C3483 C 0.50428 0.52579 0.88217 0.0
C3484 C 0.49493 0.53669 0.88528 0.0
C3485 C 0.47671 0.53195 0.87885 0.0
C3486 C 0.46784 0.51632 0.86929 0.0
C3487 C 0.47712 0.50535 0.86615 0.0
H3488 H 0.46949 0.54041 0.88127 0.0
H3489 H 0.55809 0.43251 0.85084 0.0
H3490 H 0.53869 0.03485 0.81767 0.0
H3491 H 0.53448 0.02305 0.83835 0.0
H3492 H 0.52314 0.07002 0.85108 0.0
H3493 H 0.52738 0.08189 0.83051 0.0
H3494 H 0.55008 0.06596 0.8674 0.0
H3495 H 0.48508 0.02421 0.84417 0.0
H3496 H 0.46207 0.00046 0.8267 0.0
H3497 H 0.4794 0.95765 0.83597 0.0
H3498 H 0.50274 0.98128 0.8534 0.0
H3499 H 0.50305 0.03536 0.92189 0.0
H3500 H 0.51365 0.04635 0.90169 0.0
H3501 H 0.51412 0.99163 0.89203 0.0
H3502 H 0.50331 0.98054 0.91231 0.0
H3503 H 0.49523 0.99831 0.87389 0.0
H3504 H 0.56262 0.039 0.89407 0.0
H3505 H 0.59017 0.06305 0.90954 0.0
H3506 H 0.57077 0.10589 0.9058 0.0
H3507 H 0.54356 0.08232 0.88995 0.0
C3508 C 0.53543 0.04271 0.82492 0.0
C3509 C 0.53325 0.05922 0.82249 0.0
C3510 C 0.53292 0.0359 0.83668 0.0
C3511 C 0.52835 0.04559 0.8462 0.0
C3512 C 0.52661 0.06232 0.84385 0.0
C3513 C 0.52891 0.069 0.83209 0.0
C3514 C 0.52523 0.03831 0.85862 0.0
C3515 C 0.53797 0.05124 0.86885 0.0
C3516 C 0.50992 0.01883 0.86043 0.0
C3517 C 0.49581 0.00459 0.85 0.0
C3518 C 0.48411 0.0098 0.84242 0.0
C3519 C 0.47099 0.99635 0.83253 0.0
C3520 C 0.46932 0.97758 0.8302 0.0
C3521 C 0.48073 0.9722 0.83777 0.0
C3522 C 0.4939 0.98561 0.84766 0.0
C3523 C 0.50574 0.02585 0.91554 0.0
C3524 C 0.50255 0.0072 0.91869 0.0
C3525 C 0.5119 0.03216 0.904 0.0
C3526 C 0.51508 0.02 0.8954 0.0
C3527 C 0.51192 0.00135 0.89855 0.0
C3528 C 0.50569 0.99499 0.9101 0.0
C3529 C 0.51996 0.02608 0.88277 0.0
C3530 C 0.50749 0.01296 0.87248 0.0
C3531 C 0.53573 0.04525 0.88084 0.0
C3532 C 0.55098 0.05886 0.89098 0.0
C3533 C 0.56416 0.0535 0.89664 0.0
C3534 C 0.57984 0.06712 0.90536 0.0
C3535 C 0.58218 0.08597 0.90868 0.0
C3536 C 0.56894 0.09129 0.90322 0.0
C3537 C 0.55349 0.07788 0.89429 0.0
H3538 H 0.59423 0.09642 0.91552 0.0
H3539 H 0.45915 0.96718 0.82254 0.0
H3540 H 0.12149 0.24061 0.50095 0.0
H3541 H 0.13179 0.25357 0.4811 0.0
H3542 H 0.11531 0.29843 0.4891 0.0
H3543 H 0.10505 0.28559 0.50908 0.0
H3544 H 0.10485 0.28218 0.46441 0.0
H3545 H 0.16275 0.31108 0.49428 0.0
H3546 H 0.18602 0.31038 0.51046 0.0
H3547 H 0.19948 0.27535 0.48484 0.0
H3548 H 0.17603 0.27558 0.46855 0.0
H3549 H 0.15999 0.3469 0.42061 0.0
H3550 H 0.14789 0.33369 0.44015 0.0
H3551 H 0.16702 0.29038 0.43424 0.0
H3552 H 0.17954 0.30384 0.41479 0.0
H3553 H 0.17584 0.30622 0.45796 0.0
H3554 H 0.11747 0.27668 0.42817 0.0
H3555 H 0.09681 0.28012 0.4114 0.0
H3556 H 0.08521 0.31719 0.43657 0.0
H3557 H 0.10598 0.31414 0.45347 0.0
C3558 C 0.12001 0.25321 0.49848 0.0
C3559 C 0.11271 0.26226 0.50666 0.0
C3560 C 0.12583 0.26055 0.48712 0.0
C3561 C 0.1246 0.27715 0.48372 0.0
C3562 C 0.1164 0.28562 0.49157 0.0
C3563 C 0.11053 0.27825 0.50296 0.0
C3564 C 0.13298 0.28633 0.47234 0.0
C3565 C 0.1204 0.28761 0.46305 0.0
C3566 C 0.15322 0.29317 0.47049 0.0
C3567 C 0.16749 0.29319 0.48023 0.0
C3568 C 0.17056 0.30311 0.49212 0.0
C3569 C 0.1838 0.30281 0.50131 0.0
C3570 C 0.19418 0.29278 0.49869 0.0
C3571 C 0.1914 0.28309 0.48686 0.0
C3572 C 0.17815 0.28331 0.47764 0.0
C3573 C 0.16159 0.33454 0.42348 0.0
C3574 C 0.17056 0.32629 0.41615 0.0
C3575 C 0.15467 0.32701 0.43464 0.0
C3576 C 0.15623 0.31081 0.43855 0.0
C3577 C 0.16563 0.30286 0.43139 0.0
C3578 C 0.17277 0.31055 0.42029 0.0
C3579 C 0.14771 0.30191 0.44998 0.0
C3580 C 0.16026 0.3007 0.4593 0.0
C3581 C 0.12747 0.2951 0.45183 0.0
C3582 C 0.11343 0.29534 0.44205 0.0
C3583 C 0.11044 0.28549 0.43014 0.0
C3584 C 0.09878 0.28742 0.42061 0.0
C3585 C 0.08993 0.29906 0.42291 0.0
C3586 C 0.09223 0.30831 0.43481 0.0
C3587 C 0.10388 0.30643 0.44438 0.0
H3588 H 0.08134 0.30094 0.41545 0.0
H3589 H 0.20442 0.29257 0.50581 0.0
H3590 H 0.68148 0.85561 0.52412 0.0
H3591 H 0.67352 0.85068 0.50168 0.0
H3592 H 0.71675 0.83161 0.49751 0.0
H3593 H 0.72543 0.83736 0.51994 0.0
H3594 H 0.72137 0.85796 0.48191 0.0
H3595 H 0.66614 0.79802 0.49251 0.0
H3596 H 0.63726 0.77708 0.50374 0.0
H3597 H 0.60686 0.80681 0.49003 0.0
H3598 H 0.63568 0.82814 0.47885 0.0
H3599 H 0.69007 0.8293 0.41703 0.0
H3600 H 0.69638 0.82702 0.43904 0.0
H3601 H 0.66083 0.85371 0.44826 0.0
H3602 H 0.65494 0.85664 0.42638 0.0
H3603 H 0.65232 0.82005 0.46081 0.0
H3604 H 0.70949 0.8819 0.45187 0.0
H3605 H 0.73843 0.90228 0.44053 0.0
H3606 H 0.76507 0.86746 0.45105 0.0
H3607 H 0.73613 0.84668 0.46233 0.0
C3608 C 0.68932 0.85039 0.51843 0.0
C3609 C 0.70414 0.84694 0.52383 0.0
C3610 C 0.68458 0.84734 0.50561 0.0
C3611 C 0.69438 0.84057 0.49791 0.0
C3612 C 0.70894 0.83677 0.50328 0.0
C3613 C 0.71375 0.8399 0.51611 0.0
C3614 C 0.69025 0.8386 0.48425 0.0
C3615 C 0.7063 0.84932 0.47728 0.0
C3616 C 0.67056 0.8276 0.47822 0.0
C3617 C 0.65316 0.81479 0.48492 0.0
C3618 C 0.65337 0.80021 0.49196 0.0
C3619 C 0.63699 0.78825 0.49831 0.0
C3620 C 0.62025 0.79064 0.49762 0.0
C3621 C 0.61984 0.80498 0.49056 0.0
C3622 C 0.63619 0.81699 0.48421 0.0
C3623 C 0.68374 0.83486 0.42374 0.0
C3624 C 0.67202 0.84319 0.41992 0.0
C3625 C 0.68725 0.83341 0.4363 0.0
C3626 C 0.67908 0.84023 0.44524 0.0
C3627 C 0.66714 0.84824 0.44147 0.0
C3628 C 0.66374 0.84983 0.42895 0.0
C3629 C 0.68339 0.83959 0.45859 0.0
C3630 C 0.66738 0.82843 0.46547 0.0
C3631 C 0.70311 0.85005 0.46454 0.0
C3632 C 0.72055 0.86259 0.45782 0.0
C3633 C 0.72144 0.87848 0.45168 0.0
C3634 C 0.73786 0.89012 0.44528 0.0
C3635 C 0.75355 0.88613 0.44504 0.0
C3636 C 0.75289 0.87051 0.45123 0.0
C3637 C 0.73649 0.85881 0.45763 0.0
H3638 H 0.76625 0.89516 0.44008 0.0
H3639 H 0.60759 0.78136 0.50253 0.0
H3640 H 0.11177 0.83898 0.5115 0.0
H3641 H 0.11773 0.83355 0.49013 0.0
H3642 H 0.17903 0.85229 0.50236 0.0
H3643 H 0.17316 0.85763 0.52373 0.0
H3644 H 0.17654 0.87188 0.48341 0.0
H3645 H 0.14518 0.80336 0.49263 0.0
H3646 H 0.1186 0.77227 0.49962 0.0
H3647 H 0.07671 0.76925 0.47067 0.0
H3648 H 0.10298 0.8005 0.46361 0.0
H3649 H 0.20583 0.84976 0.42756 0.0
H3650 H 0.19704 0.84792 0.44883 0.0
H3651 H 0.13641 0.8302 0.43558 0.0
H3652 H 0.14512 0.83208 0.41422 0.0
H3653 H 0.1378 0.80947 0.45485 0.0
H3654 H 0.16809 0.87787 0.44598 0.0
H3655 H 0.19408 0.90913 0.4388 0.0
H3656 H 0.23714 0.91271 0.46711 0.0
H3657 H 0.21147 0.88127 0.47434 0.0
C3658 C 0.12641 0.84156 0.50967 0.0
C3659 C 0.14204 0.84886 0.51929 0.0
C3660 C 0.1298 0.83847 0.49745 0.0
C3661 C 0.14882 0.84248 0.49466 0.0
C3662 C 0.16427 0.8492 0.5043 0.0
C3663 C 0.1609 0.85231 0.5165 0.0
C3664 C 0.15305 0.84095 0.48163 0.0
C3665 C 0.16827 0.85812 0.47723 0.0
C3666 C 0.14181 0.8232 0.47346 0.0
C3667 C 0.12601 0.80439 0.47767 0.0
C3668 C 0.13026 0.79616 0.48782 0.0
C3669 C 0.11526 0.77849 0.49178 0.0
C3670 C 0.09597 0.76882 0.48562 0.0
C3671 C 0.09165 0.77677 0.47545 0.0
C3672 C 0.1066 0.79446 0.47146 0.0
C3673 C 0.19062 0.8455 0.42915 0.0
C3674 C 0.17625 0.84144 0.4192 0.0
C3675 C 0.1856 0.84437 0.44131 0.0
C3676 C 0.16615 0.83926 0.44378 0.0
C3677 C 0.15151 0.83424 0.43386 0.0
C3678 C 0.15652 0.83533 0.42167 0.0
C3679 C 0.16146 0.84031 0.45673 0.0
C3680 C 0.1461 0.82315 0.46107 0.0
C3681 C 0.17246 0.85811 0.46488 0.0
C3682 C 0.1879 0.87711 0.46062 0.0
C3683 C 0.18314 0.88524 0.45061 0.0
C3684 C 0.19781 0.903 0.44654 0.0
C3685 C 0.21726 0.91288 0.45247 0.0
C3686 C 0.22207 0.90503 0.46251 0.0
C3687 C 0.20747 0.88725 0.4666 0.0
H3688 H 0.2286 0.92663 0.44931 0.0
H3689 H 0.08437 0.75514 0.4887 0.0
H3690 H 0.65662 0.81426 0.14465 0.0
H3691 H 0.66484 0.8189 0.16711 0.0
H3692 H 0.61669 0.83071 0.17207 0.0
H3693 H 0.60862 0.8264 0.14956 0.0
H3694 H 0.6485 0.85469 0.18842 0.0
H3695 H 0.61014 0.7845 0.17509 0.0
H3696 H 0.60153 0.75318 0.16247 0.0
H3697 H 0.6574 0.75876 0.17612 0.0
H3698 H 0.66648 0.7903 0.18869 0.0
H3699 H 0.63919 0.83046 0.25148 0.0
H3700 H 0.6334 0.83246 0.22936 0.0
H3701 H 0.6824 0.82295 0.22228 0.0
H3702 H 0.68829 0.821 0.24432 0.0
H3703 H 0.64897 0.79793 0.20714 0.0
H3704 H 0.68677 0.86875 0.22076 0.0
H3705 H 0.69398 0.89941 0.23362 0.0
H3706 H 0.63718 0.89158 0.21987 0.0
H3707 H 0.62952 0.86071 0.20703 0.0
C3708 C 0.64788 0.81797 0.15053 0.0
C3709 C 0.63186 0.81977 0.14539 0.0
C3710 C 0.65258 0.82062 0.16335 0.0
C3711 C 0.64112 0.82477 0.17126 0.0
C3712 C 0.62569 0.82747 0.16613 0.0
C3713 C 0.6211 0.82501 0.15329 0.0
C3714 C 0.64457 0.82516 0.18486 0.0
C3715 C 0.64839 0.84221 0.19254 0.0
C3716 C 0.64454 0.80891 0.19022 0.0
C3717 C 0.63907 0.78986 0.18274 0.0
C3718 C 0.62065 0.77912 0.17534 0.0
C3719 C 0.61568 0.76132 0.1682 0.0
C3720 C 0.62893 0.75401 0.16847 0.0
C3721 C 0.64717 0.76446 0.17591 0.0
C3722 C 0.65222 0.78229 0.18305 0.0
C3723 C 0.64888 0.82906 0.24523 0.0
C3724 C 0.66403 0.82532 0.24963 0.0
C3725 C 0.64557 0.83022 0.2326 0.0
C3726 C 0.6575 0.82786 0.22419 0.0
C3727 C 0.67295 0.82468 0.22861 0.0
C3728 C 0.67623 0.82348 0.2412 0.0
C3729 C 0.65329 0.8276 0.21069 0.0
C3730 C 0.64915 0.81047 0.20303 0.0
C3731 C 0.65284 0.84367 0.20541 0.0
C3732 C 0.6575 0.86232 0.21302 0.0
C3733 C 0.67576 0.87349 0.22054 0.0
C3734 C 0.67994 0.89092 0.22782 0.0
C3735 C 0.66602 0.89741 0.22759 0.0
C3736 C 0.64793 0.88652 0.22005 0.0
C3737 C 0.64368 0.86907 0.21276 0.0
H3738 H 0.66928 0.9109 0.23323 0.0
H3739 H 0.62506 0.74022 0.16294 0.0
H3740 H 0.2062 0.83112 0.15076 0.0
H3741 H 0.20147 0.83633 0.17246 0.0
H3742 H 0.18922 0.77657 0.17786 0.0
H3743 H 0.19366 0.77123 0.15618 0.0
H3744 H 0.16226 0.78275 0.18725 0.0
H3745 H 0.23387 0.81924 0.18972 0.0
H3746 H 0.26691 0.84432 0.18411 0.0
H3747 H 0.25477 0.89146 0.19421 0.0
H3748 H 0.22152 0.86662 0.19973 0.0
H3749 H 0.1662 0.79038 0.25269 0.0
H3750 H 0.17542 0.78797 0.23176 0.0
H3751 H 0.17933 0.84439 0.22575 0.0
H3752 H 0.17027 0.84698 0.24672 0.0
H3753 H 0.21083 0.84056 0.21688 0.0
H3754 H 0.13899 0.80354 0.21416 0.0
H3755 H 0.10622 0.77822 0.21999 0.0
H3756 H 0.11946 0.73167 0.21047 0.0
H3757 H 0.15246 0.75677 0.20476 0.0
C3758 C 0.20275 0.81921 0.15663 0.0
C3759 C 0.20021 0.80074 0.15176 0.0
C3760 C 0.20007 0.8222 0.16904 0.0
C3761 C 0.19511 0.80688 0.17684 0.0
C3762 C 0.19295 0.78858 0.17202 0.0
C3763 C 0.19546 0.78553 0.15962 0.0
C3764 C 0.1913 0.80951 0.18987 0.0
C3765 C 0.17305 0.79525 0.19376 0.0
C3766 C 0.20512 0.82607 0.19831 0.0
C3767 C 0.22512 0.84104 0.19502 0.0
C3768 C 0.23817 0.83494 0.19065 0.0
C3769 C 0.25695 0.84911 0.1875 0.0
C3770 C 0.26291 0.86946 0.18877 0.0
C3771 C 0.25012 0.87569 0.19322 0.0
C3772 C 0.23131 0.86157 0.19637 0.0
C3773 C 0.16927 0.80238 0.24697 0.0
C3774 C 0.16739 0.81881 0.25131 0.0
C3775 C 0.17442 0.80094 0.235 0.0
C3776 C 0.17788 0.81592 0.22719 0.0
C3777 C 0.17668 0.83266 0.23163 0.0
C3778 C 0.17136 0.83403 0.24357 0.0
C3779 C 0.18195 0.81371 0.21421 0.0
C3780 C 0.20016 0.82806 0.21034 0.0
C3781 C 0.16815 0.79718 0.20578 0.0
C3782 C 0.14828 0.78205 0.20916 0.0
C3783 C 0.13499 0.78792 0.21341 0.0
C3784 C 0.11636 0.77361 0.21668 0.0
C3785 C 0.11079 0.75336 0.21564 0.0
C3786 C 0.12381 0.74737 0.21129 0.0
C3787 C 0.14248 0.76163 0.20803 0.0
H3788 H 0.09635 0.7423 0.21817 0.0
H3789 H 0.27746 0.88041 0.18633 0.0
H3790 H 0.18656 0.41065 0.16147 0.0
H3791 H 0.18234 0.40053 0.18239 0.0
H3792 H 0.20754 0.36285 0.17444 0.0
H3793 H 0.21113 0.37237 0.15323 0.0
H3794 H 0.17483 0.34351 0.18603 0.0
H3795 H 0.23436 0.40692 0.19314 0.0
H3796 H 0.25656 0.44301 0.19176 0.0
H3797 H 0.21675 0.45614 0.21075 0.0
H3798 H 0.19414 0.42009 0.21208 0.0
H3799 H 0.17756 0.32663 0.25007 0.0
H3800 H 0.18876 0.33753 0.22988 0.0
H3801 H 0.15987 0.37292 0.23057 0.0
H3802 H 0.14881 0.36229 0.25079 0.0
H3803 H 0.19843 0.39319 0.22312 0.0
H3804 H 0.13755 0.32891 0.2139 0.0
H3805 H 0.11595 0.29271 0.21529 0.0
H3806 H 0.15991 0.28141 0.20042 0.0
H3807 H 0.18191 0.31761 0.19909 0.0
C3808 C 0.19109 0.4001 0.16412 0.0
C3809 C 0.19909 0.39224 0.15565 0.0
C3810 C 0.1889 0.39452 0.17615 0.0
C3811 C 0.19487 0.38114 0.18005 0.0
C3812 C 0.20293 0.37328 0.17164 0.0
C3813 C 0.2051 0.37884 0.15956 0.0
C3814 C 0.19191 0.37487 0.19276 0.0
C3815 C 0.18034 0.35437 0.19416 0.0
C3816 C 0.19889 0.38903 0.20337 0.0
C3817 C 0.21247 0.41076 0.20262 0.0
C3818 C 0.23025 0.41748 0.19694 0.0
C3819 C 0.24292 0.43794 0.19618 0.0
C3820 C 0.23805 0.45186 0.20114 0.0
C3821 C 0.2205 0.44534 0.2069 0.0
C3822 C 0.20776 0.42489 0.20767 0.0
C3823 C 0.17372 0.33685 0.24596 0.0
C3824 C 0.16221 0.34353 0.25199 0.0
C3825 C 0.18004 0.34296 0.23441 0.0
C3826 C 0.17503 0.35592 0.22872 0.0
C3827 C 0.16386 0.36288 0.23481 0.0
C3828 C 0.15738 0.35664 0.24629 0.0
C3829 C 0.18103 0.36195 0.21629 0.0
C3830 C 0.19317 0.38238 0.21497 0.0
C3831 C 0.17471 0.34773 0.20578 0.0
C3832 C 0.16147 0.32598 0.20653 0.0
C3833 C 0.14269 0.31872 0.21103 0.0
C3834 C 0.13036 0.2982 0.21178 0.0
C3835 C 0.13658 0.28477 0.20798 0.0
C3836 C 0.15513 0.29184 0.20338 0.0
C3837 C 0.16753 0.31235 0.20262 0.0
H3838 H 0.12701 0.26889 0.20857 0.0
H3839 H 0.24788 0.4677 0.20055 0.0
H3840 H 0.77702 0.62794 0.84624 0.0
H3841 H 0.78535 0.63861 0.82557 0.0
H3842 H 0.80402 0.59506 0.81918 0.0
H3843 H 0.79549 0.58414 0.83965 0.0
H3844 H 0.83191 0.63201 0.81394 0.0
H3845 H 0.76079 0.58794 0.80511 0.0
H3846 H 0.7252 0.57551 0.80748 0.0
H3847 H 0.73189 0.6317 0.79844 0.0
H3848 H 0.76763 0.6446 0.79623 0.0
H3849 H 0.84402 0.63304 0.75045 0.0
H3850 H 0.83217 0.62293 0.77056 0.0
H3851 H 0.81233 0.66611 0.7727 0.0
H3852 H 0.82402 0.67617 0.75247 0.0
H3853 H 0.78525 0.63161 0.78049 0.0
H3854 H 0.85577 0.67578 0.78907 0.0
H3855 H 0.89138 0.68867 0.78647 0.0
H3856 H 0.88599 0.63327 0.79612 0.0
H3857 H 0.85027 0.61994 0.79862 0.0
C3858 C 0.7826 0.62043 0.84035 0.0
C3859 C 0.78575 0.6053 0.84463 0.0
C3860 C 0.78738 0.62656 0.82855 0.0
C3861 C 0.79531 0.61762 0.82085 0.0
C3862 C 0.79805 0.60225 0.82501 0.0
C3863 C 0.79325 0.5961 0.83674 0.0
C3864 C 0.80165 0.62477 0.80865 0.0
C3865 C 0.82165 0.63171 0.80658 0.0
C3866 C 0.78841 0.62501 0.79921 0.0
C3867 C 0.76697 0.61733 0.80067 0.0
C3868 C 0.75474 0.59773 0.80377 0.0
C3869 C 0.73452 0.59059 0.80506 0.0
C3870 C 0.72631 0.60283 0.80316 0.0
C3871 C 0.73829 0.62225 0.79995 0.0
C3872 C 0.75853 0.62948 0.79868 0.0
C3873 C 0.83724 0.64046 0.75524 0.0
C3874 C 0.83512 0.65553 0.74994 0.0
C3875 C 0.83045 0.63466 0.76672 0.0
C3876 C 0.82167 0.64401 0.77324 0.0
C3877 C 0.8191 0.65873 0.76785 0.0
C3878 C 0.82577 0.66445 0.7563 0.0
C3879 C 0.81542 0.63851 0.78573 0.0
C3880 C 0.79551 0.63199 0.78788 0.0
C3881 C 0.82876 0.63877 0.79531 0.0
C3882 C 0.8503 0.64681 0.79393 0.0
C3883 C 0.86215 0.6663 0.79056 0.0
C3884 C 0.88235 0.67369 0.78911 0.0
C3885 C 0.89093 0.66178 0.7911 0.0
C3886 C 0.87932 0.64247 0.79457 0.0
C3887 C 0.8591 0.635 0.79602 0.0
H3888 H 0.90658 0.66752 0.78997 0.0
H3889 H 0.71064 0.59726 0.80414 0.0
H3890 H 0.40624 0.22536 0.85332 0.0
H3891 H 0.40101 0.22191 0.83072 0.0
H3892 H 0.35398 0.16052 0.83092 0.0
H3893 H 0.35948 0.16381 0.85359 0.0
H3894 H 0.3762 0.16346 0.81265 0.0
H3895 H 0.34339 0.19815 0.82701 0.0
H3896 H 0.34021 0.22434 0.839 0.0
H3897 H 0.38619 0.26961 0.8202 0.0
H3898 H 0.38984 0.24369 0.80822 0.0
H3899 H 0.32526 0.15552 0.75307 0.0
H3900 H 0.33461 0.15674 0.77521 0.0
H3901 H 0.38889 0.21284 0.77341 0.0
H3902 H 0.37975 0.21152 0.75121 0.0
H3903 H 0.36359 0.21237 0.79219 0.0
H3904 H 0.39461 0.17592 0.77704 0.0
H3905 H 0.39577 0.14863 0.76488 0.0
H3906 H 0.3503 0.10524 0.78489 0.0
H3907 H 0.34865 0.13226 0.79707 0.0
C3908 C 0.39474 0.21115 0.84854 0.0
C3909 C 0.38311 0.19491 0.85519 0.0
C3910 C 0.39177 0.20919 0.83563 0.0
C3911 C 0.37687 0.19106 0.82914 0.0
C3912 C 0.36555 0.17465 0.83574 0.0
C3913 C 0.36867 0.17655 0.84867 0.0
C3914 C 0.37285 0.18943 0.81548 0.0
C3915 C 0.37322 0.17402 0.80818 0.0
C3916 C 0.36922 0.20337 0.80964 0.0
C3917 C 0.36702 0.21899 0.81681 0.0
C3918 C 0.35293 0.2137 0.8255 0.0
C3919 C 0.35103 0.2285 0.83228 0.0
C3920 C 0.36303 0.24863 0.83039 0.0
C3921 C 0.37692 0.25401 0.82168 0.0
C3922 C 0.3789 0.23927 0.81488 0.0
C3923 C 0.33928 0.16796 0.7574 0.0
C3924 C 0.35181 0.18343 0.75051 0.0
C3925 C 0.34463 0.16861 0.76998 0.0
C3926 C 0.36244 0.18485 0.77587 0.0
C3927 C 0.37513 0.20016 0.76897 0.0
C3928 C 0.36995 0.19935 0.75633 0.0
C3929 C 0.36708 0.18654 0.78941 0.0
C3930 C 0.3667 0.20191 0.79668 0.0
C3931 C 0.37039 0.1724 0.79519 0.0
C3932 C 0.37136 0.15612 0.78788 0.0
C3933 C 0.38471 0.16055 0.77877 0.0
C3934 C 0.38549 0.14513 0.77189 0.0
C3935 C 0.37308 0.12521 0.77409 0.0
C3936 C 0.35989 0.12068 0.78319 0.0
C3937 C 0.35904 0.13604 0.79009 0.0
H3938 H 0.3737 0.1133 0.76875 0.0
H3939 H 0.36153 0.26006 0.83565 0.0
H3940 H 0.8365 0.20353 0.85623 0.0
H3941 H 0.84171 0.20007 0.8345 0.0
H3942 H 0.78002 0.18139 0.82362 0.0
H3943 H 0.77472 0.1851 0.84541 0.0
H3944 H 0.79335 0.15882 0.81048 0.0
H3945 H 0.81421 0.22806 0.82102 0.0
H3946 H 0.83272 0.2608 0.83361 0.0
H3947 H 0.88839 0.26452 0.82672 0.0
H3948 H 0.87019 0.23163 0.81423 0.0
H3949 H 0.80803 0.17303 0.74683 0.0
H3950 H 0.79897 0.1743 0.76789 0.0
H3951 H 0.86077 0.19994 0.78232 0.0
H3952 H 0.87008 0.19973 0.76131 0.0
H3953 H 0.84526 0.21907 0.79338 0.0
H3954 H 0.82499 0.14956 0.78374 0.0
H3955 H 0.80696 0.11648 0.77149 0.0
H3956 H 0.75088 0.11292 0.77685 0.0
H3957 H 0.76861 0.14611 0.789 0.0
C3958 C 0.82404 0.19875 0.84923 0.0
C3959 C 0.80526 0.19485 0.85255 0.0
C3960 C 0.82702 0.19671 0.83682 0.0
C3961 C 0.81132 0.19076 0.82745 0.0
C3962 C 0.79234 0.18604 0.83072 0.0
C3963 C 0.78933 0.18812 0.84317 0.0
C3964 C 0.81506 0.19024 0.81426 0.0
C3965 C 0.80448 0.17204 0.80666 0.0
C3966 C 0.82983 0.20743 0.80937 0.0
C3967 C 0.84082 0.2273 0.81677 0.0
C3968 C 0.83039 0.23579 0.82226 0.0
C3969 C 0.84083 0.25438 0.82937 0.0
C3970 C 0.86171 0.26471 0.83099 0.0
C3971 C 0.87221 0.25649 0.82547 0.0
C3972 C 0.86184 0.23788 0.81836 0.0
C3973 C 0.81973 0.17914 0.75447 0.0
C3974 C 0.8398 0.18621 0.75235 0.0
C3975 C 0.81449 0.17963 0.76653 0.0
C3976 C 0.82915 0.18696 0.77672 0.0
C3977 C 0.84917 0.19414 0.77462 0.0
C3978 C 0.85445 0.19381 0.76259 0.0
C3979 C 0.82382 0.18754 0.78958 0.0
C3980 C 0.83407 0.20582 0.79714 0.0
C3981 C 0.80882 0.17039 0.79442 0.0
C3982 C 0.79814 0.15041 0.78716 0.0
C3983 C 0.80882 0.14179 0.78222 0.0
C3984 C 0.79866 0.123 0.77532 0.0
C3985 C 0.77779 0.11263 0.77336 0.0
C3986 C 0.76704 0.12099 0.77835 0.0
C3987 C 0.77714 0.13977 0.78526 0.0
H3988 H 0.76994 0.09809 0.76801 0.0
H3989 H 0.86977 0.2791 0.83649 0.0
H3990 H 0.32123 0.18898 0.47908 0.0
H3991 H 0.32781 0.19566 0.50177 0.0
H3992 H 0.27859 0.13662 0.50532 0.0
H3993 H 0.27209 0.12983 0.48275 0.0
H3994 H 0.2801 0.16856 0.52145 0.0
H3995 H 0.32274 0.14265 0.50806 0.0
H3996 H 0.34909 0.14335 0.49609 0.0
H3997 H 0.39095 0.20235 0.51353 0.0
H3998 H 0.36473 0.2021 0.52548 0.0
H3999 H 0.29193 0.13553 0.57829 0.0
H4000 H 0.28752 0.14199 0.55693 0.0
H4001 H 0.34444 0.19698 0.56253 0.0
H4002 H 0.34903 0.19041 0.58392 0.0
H4003 H 0.34196 0.17456 0.54211 0.0
H4004 H 0.30257 0.2003 0.55727 0.0
H4005 H 0.27726 0.2025 0.56889 0.0
H4006 H 0.23106 0.14775 0.54871 0.0
H4007 H 0.25609 0.14529 0.53687 0.0
C4008 C 0.3118 0.17751 0.48474 0.0
C4009 C 0.29628 0.15884 0.47922 0.0
C4010 C 0.31556 0.18132 0.49765 0.0
C4011 C 0.30367 0.16661 0.50517 0.0
C4012 C 0.28788 0.14816 0.49966 0.0
C4013 C 0.28431 0.14424 0.48679 0.0
C4014 C 0.30803 0.16991 0.5188 0.0
C4015 C 0.29358 0.16981 0.52601 0.0
C4016 C 0.32599 0.17237 0.52468 0.0
C4017 C 0.34173 0.17246 0.51753 0.0
C4018 C 0.33751 0.15585 0.50925 0.0
C4019 C 0.35243 0.15614 0.50249 0.0
C4020 C 0.37166 0.17291 0.50402 0.0
C4021 C 0.37603 0.18939 0.51234 0.0
C4022 C 0.36115 0.18918 0.5191 0.0
C4023 C 0.30344 0.14904 0.57497 0.0
C4024 C 0.32089 0.16238 0.58269 0.0
C4025 C 0.30081 0.15285 0.56283 0.0
C4026 C 0.31559 0.17006 0.55817 0.0
C4027 C 0.33283 0.18367 0.56596 0.0
C4028 C 0.33541 0.17992 0.57816 0.0
C4029 C 0.31375 0.17262 0.54484 0.0
C4030 C 0.32865 0.17376 0.53764 0.0
C4031 C 0.29636 0.17147 0.53899 0.0
C4032 C 0.28123 0.17256 0.54623 0.0
C4033 C 0.28703 0.18866 0.55535 0.0
C4034 C 0.27272 0.19003 0.56193 0.0
C4035 C 0.25257 0.17526 0.55956 0.0
C4036 C 0.24668 0.15917 0.55054 0.0
C4037 C 0.26091 0.15785 0.54384 0.0
H4038 H 0.24154 0.17628 0.56472 0.0
H4039 H 0.3832 0.17311 0.49878 0.0
H4040 H 0.89435 0.15999 0.49113 0.0
H4041 H 0.89091 0.16548 0.51307 0.0
H4042 H 0.82946 0.14917 0.50371 0.0
H4043 H 0.83286 0.14389 0.48177 0.0
H4044 H 0.84964 0.18191 0.5218 0.0
H4045 H 0.83953 0.11504 0.51318 0.0
H4046 H 0.84935 0.0907 0.5058 0.0
H4047 H 0.9012 0.11891 0.53246 0.0
H4048 H 0.89182 0.14361 0.53988 0.0
H4049 H 0.80255 0.14976 0.57599 0.0
H4050 H 0.81342 0.15321 0.55522 0.0
H4051 H 0.87087 0.16301 0.56994 0.0
H4052 H 0.85985 0.15897 0.59077 0.0
H4053 H 0.85709 0.13718 0.54985 0.0
H4054 H 0.86572 0.2017 0.56025 0.0
H4055 H 0.8566 0.22648 0.5678 0.0
H4056 H 0.80916 0.2042 0.53824 0.0
H4057 H 0.81779 0.17906 0.53061 0.0
C4058 C 0.88022 0.15792 0.49374 0.0
C4059 C 0.86382 0.15136 0.48476 0.0
C4060 C 0.87825 0.16095 0.50627 0.0
C4061 C 0.85987 0.15753 0.51001 0.0
C4062 C 0.84376 0.15185 0.50101 0.0
C4063 C 0.84567 0.14869 0.48851 0.0
C4064 C 0.85698 0.15864 0.52332 0.0
C4065 C 0.85115 0.17208 0.52794 0.0
C4066 C 0.85954 0.14621 0.53139 0.0
C4067 C 0.8651 0.1313 0.52699 0.0
C4068 C 0.85311 0.11614 0.5174 0.0
C4069 C 0.85858 0.10227 0.51322 0.0
C4070 C 0.87592 0.10329 0.51863 0.0
C4071 C 0.88779 0.11816 0.52826 0.0
C4072 C 0.8824 0.13209 0.53246 0.0
C4073 C 0.81748 0.15257 0.57481 0.0
C4074 C 0.83032 0.15404 0.58503 0.0
C4075 C 0.82377 0.15479 0.56295 0.0
C4076 C 0.84308 0.15868 0.56105 0.0
C4077 C 0.85596 0.16018 0.57122 0.0
C4078 C 0.84969 0.15799 0.58311 0.0
C4079 C 0.8494 0.16025 0.54834 0.0
C4080 C 0.85585 0.14728 0.54381 0.0
C4081 C 0.84755 0.17323 0.54039 0.0
C4082 C 0.84232 0.18838 0.54491 0.0
C4083 C 0.85325 0.20197 0.55541 0.0
C4084 C 0.84818 0.21611 0.5597 0.0
C4085 C 0.83229 0.21689 0.55352 0.0
C4086 C 0.82146 0.20357 0.54302 0.0
C4087 C 0.82645 0.18938 0.5387 0.0
H4088 H 0.82839 0.22785 0.55685 0.0
H4089 H 0.88013 0.09254 0.51538 0.0
H4090 H 0.8386 0.69873 0.4834 0.0
H4091 H 0.83303 0.68846 0.50429 0.0
H4092 H 0.89166 0.73738 0.51808 0.0
H4093 H 0.89743 0.74757 0.49704 0.0
H4094 H 0.88256 0.70372 0.52939 0.0
H4095 H 0.85134 0.74231 0.52099 0.0
H4096 H 0.82989 0.7518 0.50898 0.0
H4097 H 0.77855 0.69433 0.51207 0.0
H4098 H 0.79977 0.68437 0.52394 0.0
H4099 H 0.85815 0.70187 0.59229 0.0
H4100 H 0.86827 0.71266 0.57191 0.0
H4101 H 0.8127 0.66308 0.55444 0.0
H4102 H 0.80224 0.65243 0.57473 0.0
H4103 H 0.82211 0.69926 0.54563 0.0
H4104 H 0.85397 0.66064 0.55371 0.0
H4105 H 0.87588 0.65115 0.56519 0.0
H4106 H 0.92648 0.70951 0.56299 0.0
H4107 H 0.9048 0.71944 0.55163 0.0
C4108 C 0.85037 0.7072 0.49087 0.0
C4109 C 0.86834 0.7241 0.48866 0.0
C4110 C 0.84717 0.70133 0.50279 0.0
C4111 C 0.86174 0.71244 0.51278 0.0
C4112 C 0.88017 0.72868 0.51051 0.0
C4113 C 0.88346 0.73447 0.49851 0.0
C4114 C 0.85718 0.70761 0.52562 0.0
C4115 C 0.86953 0.70305 0.53303 0.0
C4116 C 0.84004 0.70652 0.5303 0.0
C4117 C 0.82718 0.71254 0.52327 0.0
C4118 C 0.8355 0.73164 0.51904 0.0
C4119 C 0.82338 0.73711 0.51227 0.0
C4120 C 0.80288 0.72366 0.50974 0.0
C4121 C 0.79444 0.70473 0.51402 0.0
C4122 C 0.8065 0.69917 0.52079 0.0
C4123 C 0.84803 0.69331 0.58411 0.0
C4124 C 0.82943 0.67619 0.58515 0.0
C4125 C 0.85393 0.6994 0.57248 0.0
C4126 C 0.84135 0.6885 0.56168 0.0
C4127 C 0.82269 0.67159 0.56267 0.0
C4128 C 0.81681 0.66545 0.57428 0.0
C4129 C 0.84728 0.69502 0.54933 0.0
C4130 C 0.83521 0.70002 0.54202 0.0
C4131 C 0.86474 0.69664 0.54483 0.0
C4132 C 0.87772 0.69085 0.55192 0.0
C4133 C 0.86973 0.67152 0.55578 0.0
C4134 C 0.88213 0.66603 0.56222 0.0
C4135 C 0.90257 0.67969 0.56478 0.0
C4136 C 0.91065 0.69891 0.56096 0.0
C4137 C 0.89832 0.70448 0.55452 0.0
H4138 H 0.91214 0.67542 0.56979 0.0
H4139 H 0.79352 0.72792 0.50449 0.0
loop_
_geom_bond_atom_site_label_1
_geom_bond_atom_site_label_2
_geom_bond_distance
_geom_bond_site_symmetry_2
_ccdc_geom_bond_type
C0 C1 1.391 . S
C0 C4 1.391 . S
C0 H42 0.948 . S
C1 C0 1.391 . S
C1 C2 1.391 . S
C2 C1 1.391 . S
C2 H58 0.947 . S
C2 C59 1.392 . S
C3 C4 1.391 . S
C3 C7 1.397 . S
C3 C59 1.419 . S
C4 C0 1.391 . S
C4 C3 1.391 . S
C4 C5 1.399 . S
C5 C4 1.399 . S
C5 C8 1.396 . S
C5 C17 1.453 . S
C5 C18 1.684 . S
H6 C30 0.948 . S
C7 C3 1.397 . S
C7 C8 1.394 . S
C7 C26 1.723 . S
C8 C5 1.396 . S
C8 C7 1.394 . S
C8 C38 1.723 . S
H9 C32 0.947 . S
H10 C33 0.948 . S
H11 C39 0.982 . S
H12 C40 0.979 . S
H13 C40 0.980 . S
H14 C40 0.983 . S
H15 C39 0.979 . S
H16 C39 0.977 . S
C17 C5 1.453 . S
C17 H46 0.982 . S
C17 H47 0.979 . S
C17 H48 0.977 . S
C18 C5 1.684 . S
C18 H43 0.979 . S
C18 H44 0.980 . S
C18 H45 0.983 . S
C19 C20 1.391 . S
C19 C24 1.391 . S
C19 H49 0.948 . S
C20 C19 1.391 . S
C20 C21 1.391 . S
C21 C20 1.391 . S
C21 C22 1.392 . S
C21 H50 0.947 . S
C22 C21 1.392 . S
C22 C23 1.419 . S
C22 H51 0.948 . S
C23 C22 1.419 . S
C23 C24 1.391 . S
C23 C27 1.397 . S
C24 C19 1.391 . S
C24 C23 1.391 . S
C24 C25 1.399 . S
C25 C24 1.399 . S
C25 C26 1.396 . S
C25 C28 1.453 . S
C25 C29 1.684 . S
C26 C7 1.723 . S
C26 C25 1.396 . S
C26 C27 1.394 . S
C27 C23 1.397 . S
C27 C26 1.394 . S
C27 C37 1.723 . S
C28 C25 1.453 . S
C28 H52 0.982 . S
C28 H53 0.979 . S
C28 H54 0.977 . S
C29 C25 1.684 . S
C29 H55 0.979 . S
C29 H56 0.980 . S
C29 H57 0.983 . S
C30 H6 0.948 . S
C30 C31 1.391 . S
C30 C35 1.391 . S
C31 C30 1.391 . S
C31 C32 1.391 . S
C32 H9 0.947 . S
C32 C31 1.391 . S
C32 C33 1.392 . S
C33 H10 0.948 . S
C33 C32 1.392 . S
C33 C34 1.419 . S
C34 C33 1.419 . S
C34 C35 1.391 . S
C34 C38 1.397 . S
C35 C30 1.391 . S
C35 C34 1.391 . S
C35 C36 1.399 . S
C36 C35 1.399 . S
C36 C37 1.396 . S
C36 C39 1.453 . S
C36 C40 1.684 . S
C37 C27 1.723 . S
C37 C36 1.396 . S
C37 C38 1.394 . S
C38 C8 1.723 . S
C38 C34 1.397 . S
C38 C37 1.394 . S
C39 H11 0.982 . S
C39 H15 0.979 . S
C39 H16 0.977 . S
C39 C36 1.453 . S
C40 H12 0.979 . S
C40 H13 0.980 . S
C40 H14 0.983 . S
C40 C36 1.684 . S
H41 C59 0.948 . S
H42 C0 0.948 . S
H43 C18 0.979 . S
H44 C18 0.980 . S
H45 C18 0.983 . S
H46 C17 0.982 . S
H47 C17 0.979 . S
H48 C17 0.977 . S
H49 C19 0.948 . S
H50 C21 0.947 . S
H51 C22 0.948 . S
H52 C28 0.982 . S
H53 C28 0.979 . S
H54 C28 0.977 . S
H55 C29 0.979 . S
H56 C29 0.980 . S
H57 C29 0.983 . S
H58 C2 0.947 . S
C59 C2 1.392 . S
C59 C3 1.419 . S
C59 H41 0.948 . S
C60 C61 1.391 . S
C60 C64 1.391 . S
C60 H102 0.948 . S
C61 C60 1.391 . S
C61 C62 1.391 . S
C62 C61 1.391 . S
C62 H118 0.947 . S
C62 C119 1.392 . S
C63 C64 1.391 . S
C63 C67 1.397 . S
C63 C119 1.419 . S
C64 C60 1.391 . S
C64 C63 1.391 . S
C64 C65 1.399 . S
C65 C64 1.399 . S
C65 C68 1.396 . S
C65 C77 1.453 . S
C65 C78 1.684 . S
H66 C90 0.948 . S
C67 C63 1.397 . S
C67 C68 1.394 . S
C67 C86 1.723 . S
C68 C65 1.396 . S
C68 C67 1.394 . S
C68 C98 1.723 . S
H69 C92 0.947 . S
H70 C93 0.948 . S
H71 C99 0.982 . S
H72 C100 0.979 . S
H73 C100 0.980 . S
H74 C100 0.983 . S
H75 C99 0.979 . S
H76 C99 0.977 . S
C77 C65 1.453 . S
C77 H106 0.982 . S
C77 H107 0.979 . S
C77 H108 0.977 . S
C78 C65 1.684 . S
C78 H103 0.979 . S
C78 H104 0.980 . S
C78 H105 0.983 . S
C79 C80 1.391 . S
C79 C84 1.391 . S
C79 H109 0.948 . S
C80 C79 1.391 . S
C80 C81 1.391 . S
C81 C80 1.391 . S
C81 C82 1.392 . S
C81 H110 0.947 . S
C82 C81 1.392 . S
C82 C83 1.419 . S
C82 H111 0.948 . S
C83 C82 1.419 . S
C83 C84 1.391 . S
C83 C87 1.397 . S
C84 C79 1.391 . S
C84 C83 1.391 . S
C84 C85 1.399 . S
C85 C84 1.399 . S
C85 C86 1.396 . S
C85 C88 1.453 . S
C85 C89 1.684 . S
C86 C67 1.723 . S
C86 C85 1.396 . S
C86 C87 1.394 . S
C87 C83 1.397 . S
C87 C86 1.394 . S
C87 C97 1.723 . S
C88 C85 1.453 . S
C88 H112 0.982 . S
C88 H113 0.979 . S
C88 H114 0.977 . S
C89 C85 1.684 . S
C89 H115 0.979 . S
C89 H116 0.980 . S
C89 H117 0.983 . S
C90 H66 0.948 . S
C90 C91 1.391 . S
C90 C95 1.391 . S
C91 C90 1.391 . S
C91 C92 1.391 . S
C92 H69 0.947 . S
C92 C91 1.391 . S
C92 C93 1.392 . S
C93 H70 0.948 . S
C93 C92 1.392 . S
C93 C94 1.419 . S
C94 C93 1.419 . S
C94 C95 1.391 . S
C94 C98 1.397 . S
C95 C90 1.391 . S
C95 C94 1.391 . S
C95 C96 1.399 . S
C96 C95 1.399 . S
C96 C97 1.396 . S
C96 C99 1.453 . S
C96 C100 1.684 . S
C97 C87 1.723 . S
C97 C96 1.396 . S
C97 C98 1.394 . S
C98 C68 1.723 . S
C98 C94 1.397 . S
C98 C97 1.394 . S
C99 H71 0.982 . S
C99 H75 0.979 . S
C99 H76 0.977 . S
C99 C96 1.453 . S
C100 H72 0.979 . S
C100 H73 0.980 . S
C100 H74 0.983 . S
C100 C96 1.684 . S
H101 C119 0.948 . S
H102 C60 0.948 . S
H103 C78 0.979 . S
H104 C78 0.980 . S
H105 C78 0.983 . S
H106 C77 0.982 . S
H107 C77 0.979 . S
H108 C77 0.977 . S
H109 C79 0.948 . S
H110 C81 0.947 . S
H111 C82 0.948 . S
H112 C88 0.982 . S
H113 C88 0.979 . S
H114 C88 0.977 . S
H115 C89 0.979 . S
H116 C89 0.980 . S
H117 C89 0.983 . S
H118 C62 0.947 . S
C119 C62 1.392 . S
C119 C63 1.419 . S
C119 H101 0.948 . S
C120 C121 1.391 . S
C120 C124 1.391 . S
C120 H162 0.948 . S
C121 C120 1.391 . S
C121 C122 1.391 . S
C122 C121 1.391 . S
C122 H178 0.947 . S
C122 C179 1.392 . S
C123 C124 1.391 . S
C123 C127 1.397 . S
C123 C179 1.419 . S
C124 C120 1.391 . S
C124 C123 1.391 . S
C124 C125 1.399 . S
C125 C124 1.399 . S
C125 C128 1.396 . S
C125 C137 1.453 . S
C125 C138 1.684 . S
H126 C150 0.948 . S
C127 C123 1.397 . S
C127 C128 1.394 . S
C127 C146 1.723 . S
C128 C125 1.396 . S
C128 C127 1.394 . S
C128 C158 1.723 . S
H129 C152 0.947 . S
H130 C153 0.948 . S
H131 C159 0.982 . S
H132 C160 0.979 . S
H133 C160 0.980 . S
H134 C160 0.983 . S
H135 C159 0.979 . S
H136 C159 0.977 . S
C137 C125 1.453 . S
C137 H166 0.982 . S
C137 H167 0.979 . S
C137 H168 0.977 . S
C138 C125 1.684 . S
C138 H163 0.979 . S
C138 H164 0.980 . S
C138 H165 0.983 . S
C139 C140 1.391 . S
C139 C144 1.391 . S
C139 H169 0.948 . S
C140 C139 1.391 . S
C140 C141 1.391 . S
C141 C140 1.391 . S
C141 C142 1.392 . S
C141 H170 0.947 . S
C142 C141 1.392 . S
C142 C143 1.419 . S
C142 H171 0.948 . S
C143 C142 1.419 . S
C143 C144 1.391 . S
C143 C147 1.397 . S
C144 C139 1.391 . S
C144 C143 1.391 . S
C144 C145 1.399 . S
C145 C144 1.399 . S
C145 C146 1.396 . S
C145 C148 1.453 . S
C145 C149 1.684 . S
C146 C127 1.723 . S
C146 C145 1.396 . S
C146 C147 1.394 . S
C147 C143 1.397 . S
C147 C146 1.394 . S
C147 C157 1.723 . S
C148 C145 1.453 . S
C148 H172 0.982 . S
C148 H173 0.979 . S
C148 H174 0.977 . S
C149 C145 1.684 . S
C149 H175 0.979 . S
C149 H176 0.980 . S
C149 H177 0.983 . S
C150 H126 0.948 . S
C150 C151 1.391 . S
C150 C155 1.391 . S
C151 C150 1.391 . S
C151 C152 1.391 . S
C152 H129 0.947 . S
C152 C151 1.391 . S
C152 C153 1.392 . S
C153 H130 0.948 . S
C153 C152 1.392 . S
C153 C154 1.419 . S
C154 C153 1.419 . S
C154 C155 1.391 . S
C154 C158 1.397 . S
C155 C150 1.391 . S
C155 C154 1.391 . S
C155 C156 1.399 . S
C156 C155 1.399 . S
C156 C157 1.396 . S
C156 C159 1.453 . S
C156 C160 1.684 . S
C157 C147 1.723 . S
C157 C156 1.396 . S
C157 C158 1.394 . S
C158 C128 1.723 . S
C158 C154 1.397 . S
C158 C157 1.394 . S
C159 H131 0.982 . S
C159 H135 0.979 . S
C159 H136 0.977 . S
C159 C156 1.453 . S
C160 H132 0.979 . S
C160 H133 0.980 . S
C160 H134 0.983 . S
C160 C156 1.684 . S
H161 C179 0.948 . S
H162 C120 0.948 . S
H163 C138 0.979 . S
H164 C138 0.980 . S
H165 C138 0.983 . S
H166 C137 0.982 . S
H167 C137 0.979 . S
H168 C137 0.977 . S
H169 C139 0.948 . S
H170 C141 0.947 . S
H171 C142 0.948 . S
H172 C148 0.982 . S
H173 C148 0.979 . S
H174 C148 0.977 . S
H175 C149 0.979 . S
H176 C149 0.980 . S
H177 C149 0.983 . S
H178 C122 0.947 . S
C179 C122 1.392 . S
C179 C123 1.419 . S
C179 H161 0.948 . S
C180 C181 1.391 . S
C180 C184 1.391 . S
C180 H222 0.948 . S
C181 C180 1.391 . S
C181 C182 1.391 . S
C182 C181 1.391 . S
C182 H238 0.947 . S
C182 C239 1.392 . S
C183 C184 1.391 . S
C183 C187 1.397 . S
C183 C239 1.419 . S
C184 C180 1.391 . S
C184 C183 1.391 . S
C184 C185 1.399 . S
C185 C184 1.399 . S
C185 C188 1.396 . S
C185 C197 1.453 . S
C185 C198 1.684 . S
H186 C210 0.948 . S
C187 C183 1.397 . S
C187 C188 1.394 . S
C187 C206 1.723 . S
C188 C185 1.396 . S
C188 C187 1.394 . S
C188 C218 1.723 . S
H189 C212 0.947 . S
H190 C213 0.948 . S
H191 C219 0.982 . S
H192 C220 0.979 . S
H193 C220 0.980 . S
H194 C220 0.983 . S
H195 C219 0.979 . S
H196 C219 0.977 . S
C197 C185 1.453 . S
C197 H226 0.982 . S
C197 H227 0.979 . S
C197 H228 0.977 . S
C198 C185 1.684 . S
C198 H223 0.979 . S
C198 H224 0.980 . S
C198 H225 0.983 . S
C199 C200 1.391 . S
C199 C204 1.391 . S
C199 H229 0.948 . S
C200 C199 1.391 . S
C200 C201 1.391 . S
C201 C200 1.391 . S
C201 C202 1.392 . S
C201 H230 0.947 . S
C202 C201 1.392 . S
C202 C203 1.419 . S
C202 H231 0.948 . S
C203 C202 1.419 . S
C203 C204 1.391 . S
C203 C207 1.397 . S
C204 C199 1.391 . S
C204 C203 1.391 . S
C204 C205 1.399 . S
C205 C204 1.399 . S
C205 C206 1.396 . S
C205 C208 1.453 . S
C205 C209 1.684 . S
C206 C187 1.723 . S
C206 C205 1.396 . S
C206 C207 1.394 . S
C207 C203 1.397 . S
C207 C206 1.394 . S
C207 C217 1.723 . S
C208 C205 1.453 . S
C208 H232 0.982 . S
C208 H233 0.979 . S
C208 H234 0.977 . S
C209 C205 1.684 . S
C209 H235 0.979 . S
C209 H236 0.980 . S
C209 H237 0.983 . S
C210 H186 0.948 . S
C210 C211 1.391 . S
C210 C215 1.391 . S
C211 C210 1.391 . S
C211 C212 1.391 . S
C212 H189 0.947 . S
C212 C211 1.391 . S
C212 C213 1.392 . S
C213 H190 0.948 . S
C213 C212 1.392 . S
C213 C214 1.419 . S
C214 C213 1.419 . S
C214 C215 1.391 . S
C214 C218 1.397 . S
C215 C210 1.391 . S
C215 C214 1.391 . S
C215 C216 1.399 . S
C216 C215 1.399 . S
C216 C217 1.396 . S
C216 C219 1.453 . S
C216 C220 1.684 . S
C217 C207 1.723 . S
C217 C216 1.396 . S
C217 C218 1.394 . S
C218 C188 1.723 . S
C218 C214 1.397 . S
C218 C217 1.394 . S
C219 H191 0.982 . S
C219 H195 0.979 . S
C219 H196 0.977 . S
C219 C216 1.453 . S
C220 H192 0.979 . S
C220 H193 0.980 . S
C220 H194 0.983 . S
C220 C216 1.684 . S
H221 C239 0.948 . S
H222 C180 0.948 . S
H223 C198 0.979 . S
H224 C198 0.980 . S
H225 C198 0.983 . S
H226 C197 0.982 . S
H227 C197 0.979 . S
H228 C197 0.977 . S
H229 C199 0.948 . S
H230 C201 0.947 . S
H231 C202 0.948 . S
H232 C208 0.982 . S
H233 C208 0.979 . S
H234 C208 0.977 . S
H235 C209 0.979 . S
H236 C209 0.980 . S
H237 C209 0.983 . S
H238 C182 0.947 . S
C239 C182 1.392 . S
C239 C183 1.419 . S
C239 H221 0.948 . S
C240 C241 1.391 . S
C240 C244 1.391 . S
C240 H282 0.948 . S
C241 C240 1.391 . S
C241 C242 1.391 . S
C242 C241 1.391 . S
C242 H298 0.947 . S
C242 C299 1.392 . S
C243 C244 1.391 . S
C243 C247 1.397 . S
C243 C299 1.419 . S
C244 C240 1.391 . S
C244 C243 1.391 . S
C244 C245 1.399 . S
C245 C244 1.399 . S
C245 C248 1.396 . S
C245 C257 1.453 . S
C245 C258 1.684 . S
H246 C270 0.948 . S
C247 C243 1.397 . S
C247 C248 1.394 . S
C247 C266 1.723 . S
C248 C245 1.396 . S
C248 C247 1.394 . S
C248 C278 1.723 . S
H249 C272 0.947 . S
H250 C273 0.948 . S
H251 C279 0.982 . S
H252 C280 0.979 . S
H253 C280 0.980 . S
H254 C280 0.983 . S
H255 C279 0.979 . S
H256 C279 0.977 . S
C257 C245 1.453 . S
C257 H286 0.982 . S
C257 H287 0.979 . S
C257 H288 0.977 . S
C258 C245 1.684 . S
C258 H283 0.979 . S
C258 H284 0.980 . S
C258 H285 0.983 . S
C259 C260 1.391 . S
C259 C264 1.391 . S
C259 H289 0.948 . S
C260 C259 1.391 . S
C260 C261 1.391 . S
C261 C260 1.391 . S
C261 C262 1.392 . S
C261 H290 0.947 . S
C262 C261 1.392 . S
C262 C263 1.419 . S
C262 H291 0.948 . S
C263 C262 1.419 . S
C263 C264 1.391 . S
C263 C267 1.397 . S
C264 C259 1.391 . S
C264 C263 1.391 . S
C264 C265 1.399 . S
C265 C264 1.399 . S
C265 C266 1.396 . S
C265 C268 1.453 . S
C265 C269 1.684 . S
C266 C247 1.723 . S
C266 C265 1.396 . S
C266 C267 1.394 . S
C267 C263 1.397 . S
C267 C266 1.394 . S
C267 C277 1.723 . S
C268 C265 1.453 . S
C268 H292 0.982 . S
C268 H293 0.979 . S
C268 H294 0.977 . S
C269 C265 1.684 . S
C269 H295 0.979 . S
C269 H296 0.980 . S
C269 H297 0.983 . S
C270 H246 0.948 . S
C270 C271 1.391 . S
C270 C275 1.391 . S
C271 C270 1.391 . S
C271 C272 1.391 . S
C272 H249 0.947 . S
C272 C271 1.391 . S
C272 C273 1.392 . S
C273 H250 0.948 . S
C273 C272 1.392 . S
C273 C274 1.419 . S
C274 C273 1.419 . S
C274 C275 1.391 . S
C274 C278 1.397 . S
C275 C270 1.391 . S
C275 C274 1.391 . S
C275 C276 1.399 . S
C276 C275 1.399 . S
C276 C277 1.396 . S
C276 C279 1.453 . S
C276 C280 1.684 . S
C277 C267 1.723 . S
C277 C276 1.396 . S
C277 C278 1.394 . S
C278 C248 1.723 . S
C278 C274 1.397 . S
C278 C277 1.394 . S
C279 H251 0.982 . S
C279 H255 0.979 . S
C279 H256 0.977 . S
C279 C276 1.453 . S
C280 H252 0.979 . S
C280 H253 0.980 . S
C280 H254 0.983 . S
C280 C276 1.684 . S
H281 C299 0.948 . S
H282 C240 0.948 . S
H283 C258 0.979 . S
H284 C258 0.980 . S
H285 C258 0.983 . S
H286 C257 0.982 . S
H287 C257 0.979 . S
H288 C257 0.977 . S
H289 C259 0.948 . S
H290 C261 0.947 . S
H291 C262 0.948 . S
H292 C268 0.982 . S
H293 C268 0.979 . S
H294 C268 0.977 . S
H295 C269 0.979 . S
H296 C269 0.980 . S
H297 C269 0.983 . S
H298 C242 0.947 . S
C299 C242 1.392 . S
C299 C243 1.419 . S
C299 H281 0.948 . S
C300 C301 1.391 . S
C300 C304 1.391 . S
C300 H342 0.948 . S
C301 C300 1.391 . S
C301 C302 1.391 . S
C302 C301 1.391 . S
C302 H358 0.947 . S
C302 C359 1.392 . S
C303 C304 1.391 . S
C303 C307 1.397 . S
C303 C359 1.419 . S
C304 C300 1.391 . S
C304 C303 1.391 . S
C304 C305 1.399 . S
C305 C304 1.399 . S
C305 C308 1.396 . S
C305 C317 1.453 . S
C305 C318 1.684 . S
H306 C330 0.948 . S
C307 C303 1.397 . S
C307 C308 1.394 . S
C307 C326 1.723 . S
C308 C305 1.396 . S
C308 C307 1.394 . S
C308 C338 1.723 . S
H309 C332 0.947 . S
H310 C333 0.948 . S
H311 C339 0.982 . S
H312 C340 0.979 . S
H313 C340 0.980 . S
H314 C340 0.983 . S
H315 C339 0.979 . S
H316 C339 0.977 . S
C317 C305 1.453 . S
C317 H346 0.982 . S
C317 H347 0.979 . S
C317 H348 0.977 . S
C318 C305 1.684 . S
C318 H343 0.979 . S
C318 H344 0.980 . S
C318 H345 0.983 . S
C319 C320 1.391 . S
C319 C324 1.391 . S
C319 H349 0.948 . S
C320 C319 1.391 . S
C320 C321 1.391 . S
C321 C320 1.391 . S
C321 C322 1.392 . S
C321 H350 0.947 . S
C322 C321 1.392 . S
C322 C323 1.419 . S
C322 H351 0.948 . S
C323 C322 1.419 . S
C323 C324 1.391 . S
C323 C327 1.397 . S
C324 C319 1.391 . S
C324 C323 1.391 . S
C324 C325 1.399 . S
C325 C324 1.399 . S
C325 C326 1.396 . S
C325 C328 1.453 . S
C325 C329 1.684 . S
C326 C307 1.723 . S
C326 C325 1.396 . S
C326 C327 1.394 . S
C327 C323 1.397 . S
C327 C326 1.394 . S
C327 C337 1.723 . S
C328 C325 1.453 . S
C328 H352 0.982 . S
C328 H353 0.979 . S
C328 H354 0.977 . S
C329 C325 1.684 . S
C329 H355 0.979 . S
C329 H356 0.980 . S
C329 H357 0.983 . S
C330 H306 0.948 . S
C330 C331 1.391 . S
C330 C335 1.391 . S
C331 C330 1.391 . S
C331 C332 1.391 . S
C332 H309 0.947 . S
C332 C331 1.391 . S
C332 C333 1.392 . S
C333 H310 0.948 . S
C333 C332 1.392 . S
C333 C334 1.419 . S
C334 C333 1.419 . S
C334 C335 1.391 . S
C334 C338 1.397 . S
C335 C330 1.391 . S
C335 C334 1.391 . S
C335 C336 1.399 . S
C336 C335 1.399 . S
C336 C337 1.396 . S
C336 C339 1.453 . S
C336 C340 1.684 . S
C337 C327 1.723 . S
C337 C336 1.396 . S
C337 C338 1.394 . S
C338 C308 1.723 . S
C338 C334 1.397 . S
C338 C337 1.394 . S
C339 H311 0.982 . S
C339 H315 0.979 . S
C339 H316 0.977 . S
C339 C336 1.453 . S
C340 H312 0.979 . S
C340 H313 0.980 . S
C340 H314 0.983 . S
C340 C336 1.684 . S
H341 C359 0.948 . S
H342 C300 0.948 . S
H343 C318 0.979 . S
H344 C318 0.980 . S
H345 C318 0.983 . S
H346 C317 0.982 . S
H347 C317 0.979 . S
H348 C317 0.977 . S
H349 C319 0.948 . S
H350 C321 0.947 . S
H351 C322 0.948 . S
H352 C328 0.982 . S
H353 C328 0.979 . S
H354 C328 0.977 . S
H355 C329 0.979 . S
H356 C329 0.980 . S
H357 C329 0.983 . S
H358 C302 0.947 . S
C359 C302 1.392 . S
C359 C303 1.419 . S
C359 H341 0.948 . S
C360 C361 1.391 . S
C360 C364 1.391 . S
C360 H402 0.948 . S
C361 C360 1.391 . S
C361 C362 1.391 . S
C362 C361 1.391 . S
C362 H418 0.947 . S
C362 C419 1.392 . S
C363 C364 1.391 . S
C363 C367 1.397 . S
C363 C419 1.419 . S
C364 C360 1.391 . S
C364 C363 1.391 . S
C364 C365 1.399 . S
C365 C364 1.399 . S
C365 C368 1.396 . S
C365 C377 1.453 . S
C365 C378 1.684 . S
H366 C390 0.948 . S
C367 C363 1.397 . S
C367 C368 1.394 . S
C367 C386 1.723 . S
C368 C365 1.396 . S
C368 C367 1.394 . S
C368 C398 1.723 . S
H369 C392 0.947 . S
H370 C393 0.948 . S
H371 C399 0.982 . S
H372 C400 0.979 . S
H373 C400 0.980 . S
H374 C400 0.983 . S
H375 C399 0.979 . S
H376 C399 0.977 . S
C377 C365 1.453 . S
C377 H406 0.982 . S
C377 H407 0.979 . S
C377 H408 0.977 . S
C378 C365 1.684 . S
C378 H403 0.979 . S
C378 H404 0.980 . S
C378 H405 0.983 . S
C379 C380 1.391 . S
C379 C384 1.391 . S
C379 H409 0.948 . S
C380 C379 1.391 . S
C380 C381 1.391 . S
C381 C380 1.391 . S
C381 C382 1.392 . S
C381 H410 0.947 . S
C382 C381 1.392 . S
C382 C383 1.419 . S
C382 H411 0.948 . S
C383 C382 1.419 . S
C383 C384 1.391 . S
C383 C387 1.397 . S
C384 C379 1.391 . S
C384 C383 1.391 . S
C384 C385 1.399 . S
C385 C384 1.399 . S
C385 C386 1.396 . S
C385 C388 1.453 . S
C385 C389 1.684 . S
C386 C367 1.723 . S
C386 C385 1.396 . S
C386 C387 1.394 . S
C387 C383 1.397 . S
C387 C386 1.394 . S
C387 C397 1.723 . S
C388 C385 1.453 . S
C388 H412 0.982 . S
C388 H413 0.979 . S
C388 H414 0.977 . S
C389 C385 1.684 . S
C389 H415 0.979 . S
C389 H416 0.980 . S
C389 H417 0.983 . S
C390 H366 0.948 . S
C390 C391 1.391 . S
C390 C395 1.391 . S
C391 C390 1.391 . S
C391 C392 1.391 . S
C392 H369 0.947 . S
C392 C391 1.391 . S
C392 C393 1.392 . S
C393 H370 0.948 . S
C393 C392 1.392 . S
C393 C394 1.419 . S
C394 C393 1.419 . S
C394 C395 1.391 . S
C394 C398 1.397 . S
C395 C390 1.391 . S
C395 C394 1.391 . S
C395 C396 1.399 . S
C396 C395 1.399 . S
C396 C397 1.396 . S
C396 C399 1.453 . S
C396 C400 1.684 . S
C397 C387 1.723 . S
C397 C396 1.396 . S
C397 C398 1.394 . S
C398 C368 1.723 . S
C398 C394 1.397 . S
C398 C397 1.394 . S
C399 H371 0.982 . S
C399 H375 0.979 . S
C399 H376 0.977 . S
C399 C396 1.453 . S
C400 H372 0.979 . S
C400 H373 0.980 . S
C400 H374 0.983 . S
C400 C396 1.684 . S
H401 C419 0.948 . S
H402 C360 0.948 . S
H403 C378 0.979 . S
H404 C378 0.980 . S
H405 C378 0.983 . S
H406 C377 0.982 . S
H407 C377 0.979 . S
H408 C377 0.977 . S
H409 C379 0.948 . S
H410 C381 0.947 . S
H411 C382 0.948 . S
H412 C388 0.982 . S
H413 C388 0.979 . S
H414 C388 0.977 . S
H415 C389 0.979 . S
H416 C389 0.980 . S
H417 C389 0.983 . S
H418 C362 0.947 . S
C419 C362 1.392 . S
C419 C363 1.419 . S
C419 H401 0.948 . S
C420 C421 1.391 . S
C420 C424 1.391 . S
C420 H462 0.948 . S
C421 C420 1.391 . S
C421 C422 1.391 . S
C422 C421 1.391 . S
C422 H478 0.947 . S
C422 C479 1.392 . S
C423 C424 1.391 . S
C423 C427 1.397 . S
C423 C479 1.419 . S
C424 C420 1.391 . S
C424 C423 1.391 . S
C424 C425 1.399 . S
C425 C424 1.399 . S
C425 C428 1.396 . S
C425 C437 1.453 . S
C425 C438 1.684 . S
H426 C450 0.948 . S
C427 C423 1.397 . S
C427 C428 1.394 . S
C427 C446 1.723 . S
C428 C425 1.396 . S
C428 C427 1.394 . S
C428 C458 1.723 . S
H429 C452 0.947 . S
H430 C453 0.948 . S
H431 C459 0.982 . S
H432 C460 0.979 . S
H433 C460 0.980 . S
H434 C460 0.983 . S
H435 C459 0.979 . S
H436 C459 0.977 . S
C437 C425 1.453 . S
C437 H466 0.982 . S
C437 H467 0.979 . S
C437 H468 0.977 . S
C438 C425 1.684 . S
C438 H463 0.979 . S
C438 H464 0.980 . S
C438 H465 0.983 . S
C439 C440 1.391 . S
C439 C444 1.391 . S
C439 H469 0.948 . S
C440 C439 1.391 . S
C440 C441 1.391 . S
C441 C440 1.391 . S
C441 C442 1.392 . S
C441 H470 0.947 . S
C442 C441 1.392 . S
C442 C443 1.419 . S
C442 H471 0.948 . S
C443 C442 1.419 . S
C443 C444 1.391 . S
C443 C447 1.397 . S
C444 C439 1.391 . S
C444 C443 1.391 . S
C444 C445 1.399 . S
C445 C444 1.399 . S
C445 C446 1.396 . S
C445 C448 1.453 . S
C445 C449 1.684 . S
C446 C427 1.723 . S
C446 C445 1.396 . S
C446 C447 1.394 . S
C447 C443 1.397 . S
C447 C446 1.394 . S
C447 C457 1.723 . S
C448 C445 1.453 . S
C448 H472 0.982 . S
C448 H473 0.979 . S
C448 H474 0.977 . S
C449 C445 1.684 . S
C449 H475 0.979 . S
C449 H476 0.980 . S
C449 H477 0.983 . S
C450 H426 0.948 . S
C450 C451 1.391 . S
C450 C455 1.391 . S
C451 C450 1.391 . S
C451 C452 1.391 . S
C452 H429 0.947 . S
C452 C451 1.391 . S
C452 C453 1.392 . S
C453 H430 0.948 . S
C453 C452 1.392 . S
C453 C454 1.419 . S
C454 C453 1.419 . S
C454 C455 1.391 . S
C454 C458 1.397 . S
C455 C450 1.391 . S
C455 C454 1.391 . S
C455 C456 1.399 . S
C456 C455 1.399 . S
C456 C457 1.396 . S
C456 C459 1.453 . S
C456 C460 1.684 . S
C457 C447 1.723 . S
C457 C456 1.396 . S
C457 C458 1.394 . S
C458 C428 1.723 . S
C458 C454 1.397 . S
C458 C457 1.394 . S
C459 H431 0.982 . S
C459 H435 0.979 . S
C459 H436 0.977 . S
C459 C456 1.453 . S
C460 H432 0.979 . S
C460 H433 0.980 . S
C460 H434 0.983 . S
C460 C456 1.684 . S
H461 C479 0.948 . S
H462 C420 0.948 . S
H463 C438 0.979 . S
H464 C438 0.980 . S
H465 C438 0.983 . S
H466 C437 0.982 . S
H467 C437 0.979 . S
H468 C437 0.977 . S
H469 C439 0.948 . S
H470 C441 0.947 . S
H471 C442 0.948 . S
H472 C448 0.982 . S
H473 C448 0.979 . S
H474 C448 0.977 . S
H475 C449 0.979 . S
H476 C449 0.980 . S
H477 C449 0.983 . S
H478 C422 0.947 . S
C479 C422 1.392 . S
C479 C423 1.419 . S
C479 H461 0.948 . S
C480 C481 1.391 . S
C480 C484 1.391 . S
C480 H522 0.948 . S
C481 C480 1.391 . S
C481 C482 1.391 . S
C482 C481 1.391 . S
C482 H538 0.947 . S
C482 C539 1.392 . S
C483 C484 1.391 . S
C483 C487 1.397 . S
C483 C539 1.419 . S
C484 C480 1.391 . S
C484 C483 1.391 . S
C484 C485 1.399 . S
C485 C484 1.399 . S
C485 C488 1.396 . S
C485 C497 1.453 . S
C485 C498 1.684 . S
H486 C510 0.948 . S
C487 C483 1.397 . S
C487 C488 1.394 . S
C487 C506 1.723 . S
C488 C485 1.396 . S
C488 C487 1.394 . S
C488 C518 1.723 . S
H489 C512 0.947 . S
H490 C513 0.948 . S
H491 C519 0.982 . S
H492 C520 0.979 . S
H493 C520 0.980 . S
H494 C520 0.983 . S
H495 C519 0.979 . S
H496 C519 0.977 . S
C497 C485 1.453 . S
C497 H526 0.982 . S
C497 H527 0.979 . S
C497 H528 0.977 . S
C498 C485 1.684 . S
C498 H523 0.979 . S
C498 H524 0.980 . S
C498 H525 0.983 . S
C499 C500 1.391 . S
C499 C504 1.391 . S
C499 H529 0.948 . S
C500 C499 1.391 . S
C500 C501 1.391 . S
C501 C500 1.391 . S
C501 C502 1.392 . S
C501 H530 0.947 . S
C502 C501 1.392 . S
C502 C503 1.419 . S
C502 H531 0.948 . S
C503 C502 1.419 . S
C503 C504 1.391 . S
C503 C507 1.397 . S
C504 C499 1.391 . S
C504 C503 1.391 . S
C504 C505 1.399 . S
C505 C504 1.399 . S
C505 C506 1.396 . S
C505 C508 1.453 . S
C505 C509 1.684 . S
C506 C487 1.723 . S
C506 C505 1.396 . S
C506 C507 1.394 . S
C507 C503 1.397 . S
C507 C506 1.394 . S
C507 C517 1.723 . S
C508 C505 1.453 . S
C508 H532 0.982 . S
C508 H533 0.979 . S
C508 H534 0.977 . S
C509 C505 1.684 . S
C509 H535 0.979 . S
C509 H536 0.980 . S
C509 H537 0.983 . S
C510 H486 0.948 . S
C510 C511 1.391 . S
C510 C515 1.391 . S
C511 C510 1.391 . S
C511 C512 1.391 . S
C512 H489 0.947 . S
C512 C511 1.391 . S
C512 C513 1.392 . S
C513 H490 0.948 . S
C513 C512 1.392 . S
C513 C514 1.419 . S
C514 C513 1.419 . S
C514 C515 1.391 . S
C514 C518 1.397 . S
C515 C510 1.391 . S
C515 C514 1.391 . S
C515 C516 1.399 . S
C516 C515 1.399 . S
C516 C517 1.396 . S
C516 C519 1.453 . S
C516 C520 1.684 . S
C517 C507 1.723 . S
C517 C516 1.396 . S
C517 C518 1.394 . S
C518 C488 1.723 . S
C518 C514 1.397 . S
C518 C517 1.394 . S
C519 H491 0.982 . S
C519 H495 0.979 . S
C519 H496 0.977 . S
C519 C516 1.453 . S
C520 H492 0.979 . S
C520 H493 0.980 . S
C520 H494 0.983 . S
C520 C516 1.684 . S
H521 C539 0.948 . S
H522 C480 0.948 . S
H523 C498 0.979 . S
H524 C498 0.980 . S
H525 C498 0.983 . S
H526 C497 0.982 . S
H527 C497 0.979 . S
H528 C497 0.977 . S
H529 C499 0.948 . S
H530 C501 0.947 . S
H531 C502 0.948 . S
H532 C508 0.982 . S
H533 C508 0.979 . S
H534 C508 0.977 . S
H535 C509 0.979 . S
H536 C509 0.980 . S
H537 C509 0.983 . S
H538 C482 0.947 . S
C539 C482 1.392 . S
C539 C483 1.419 . S
C539 H521 0.948 . S
C540 C541 1.391 . S
C540 C544 1.391 . S
C540 H582 0.948 . S
C541 C540 1.391 . S
C541 C542 1.391 . S
C542 C541 1.391 . S
C542 H598 0.947 . S
C542 C599 1.392 . S
C543 C544 1.391 . S
C543 C547 1.397 . S
C543 C599 1.419 . S
C544 C540 1.391 . S
C544 C543 1.391 . S
C544 C545 1.399 . S
C545 C544 1.399 . S
C545 C548 1.396 . S
C545 C557 1.453 . S
C545 C558 1.684 . S
H546 C570 0.948 . S
C547 C543 1.397 . S
C547 C548 1.394 . S
C547 C566 1.723 . S
C548 C545 1.396 . S
C548 C547 1.394 . S
C548 C578 1.723 . S
H549 C572 0.947 . S
H550 C573 0.948 . S
H551 C579 0.982 . S
H552 C580 0.979 . S
H553 C580 0.980 . S
H554 C580 0.983 . S
H555 C579 0.979 . S
H556 C579 0.977 . S
C557 C545 1.453 . S
C557 H586 0.982 . S
C557 H587 0.979 . S
C557 H588 0.977 . S
C558 C545 1.684 . S
C558 H583 0.979 . S
C558 H584 0.980 . S
C558 H585 0.983 . S
C559 C560 1.391 . S
C559 C564 1.391 . S
C559 H589 0.948 . S
C560 C559 1.391 . S
C560 C561 1.391 . S
C561 C560 1.391 . S
C561 C562 1.392 . S
C561 H590 0.947 . S
C562 C561 1.392 . S
C562 C563 1.419 . S
C562 H591 0.948 . S
C563 C562 1.419 . S
C563 C564 1.391 . S
C563 C567 1.397 . S
C564 C559 1.391 . S
C564 C563 1.391 . S
C564 C565 1.399 . S
C565 C564 1.399 . S
C565 C566 1.396 . S
C565 C568 1.453 . S
C565 C569 1.684 . S
C566 C547 1.723 . S
C566 C565 1.396 . S
C566 C567 1.394 . S
C567 C563 1.397 . S
C567 C566 1.394 . S
C567 C577 1.723 . S
C568 C565 1.453 . S
C568 H592 0.982 . S
C568 H593 0.979 . S
C568 H594 0.977 . S
C569 C565 1.684 . S
C569 H595 0.979 . S
C569 H596 0.980 . S
C569 H597 0.983 . S
C570 H546 0.948 . S
C570 C571 1.391 . S
C570 C575 1.391 . S
C571 C570 1.391 . S
C571 C572 1.391 . S
C572 H549 0.947 . S
C572 C571 1.391 . S
C572 C573 1.392 . S
C573 H550 0.948 . S
C573 C572 1.392 . S
C573 C574 1.419 . S
C574 C573 1.419 . S
C574 C575 1.391 . S
C574 C578 1.397 . S
C575 C570 1.391 . S
C575 C574 1.391 . S
C575 C576 1.399 . S
C576 C575 1.399 . S
C576 C577 1.396 . S
C576 C579 1.453 . S
C576 C580 1.684 . S
C577 C567 1.723 . S
C577 C576 1.396 . S
C577 C578 1.394 . S
C578 C548 1.723 . S
C578 C574 1.397 . S
C578 C577 1.394 . S
C579 H551 0.982 . S
C579 H555 0.979 . S
C579 H556 0.977 . S
C579 C576 1.453 . S
C580 H552 0.979 . S
C580 H553 0.980 . S
C580 H554 0.983 . S
C580 C576 1.684 . S
H581 C599 0.948 . S
H582 C540 0.948 . S
H583 C558 0.979 . S
H584 C558 0.980 . S
H585 C558 0.983 . S
H586 C557 0.982 . S
H587 C557 0.979 . S
H588 C557 0.977 . S
H589 C559 0.948 . S
H590 C561 0.947 . S
H591 C562 0.948 . S
H592 C568 0.982 . S
H593 C568 0.979 . S
H594 C568 0.977 . S
H595 C569 0.979 . S
H596 C569 0.980 . S
H597 C569 0.983 . S
H598 C542 0.947 . S
C599 C542 1.392 . S
C599 C543 1.419 . S
C599 H581 0.948 . S
C600 C601 1.391 . S
C600 C604 1.391 . S
C600 H642 0.948 . S
C601 C600 1.391 . S
C601 C602 1.391 . S
C602 C601 1.391 . S
C602 H658 0.947 . S
C602 C659 1.392 . S
C603 C604 1.391 . S
C603 C607 1.397 . S
C603 C659 1.419 . S
C604 C600 1.391 . S
C604 C603 1.391 . S
C604 C605 1.399 . S
C605 C604 1.399 . S
C605 C608 1.396 . S
C605 C617 1.453 . S
C605 C618 1.684 . S
H606 C630 0.948 . S
C607 C603 1.397 . S
C607 C608 1.394 . S
C607 C626 1.723 . S
C608 C605 1.396 . S
C608 C607 1.394 . S
C608 C638 1.723 . S
H609 C632 0.947 . S
H610 C633 0.948 . S
H611 C639 0.982 . S
H612 C640 0.979 . S
H613 C640 0.980 . S
H614 C640 0.983 . S
H615 C639 0.979 . S
H616 C639 0.977 . S
C617 C605 1.453 . S
C617 H646 0.982 . S
C617 H647 0.979 . S
C617 H648 0.977 . S
C618 C605 1.684 . S
C618 H643 0.979 . S
C618 H644 0.980 . S
C618 H645 0.983 . S
C619 C620 1.391 . S
C619 C624 1.391 . S
C619 H649 0.948 . S
C620 C619 1.391 . S
C620 C621 1.391 . S
C621 C620 1.391 . S
C621 C622 1.392 . S
C621 H650 0.947 . S
C622 C621 1.392 . S
C622 C623 1.419 . S
C622 H651 0.948 . S
C623 C622 1.419 . S
C623 C624 1.391 . S
C623 C627 1.397 . S
C624 C619 1.391 . S
C624 C623 1.391 . S
C624 C625 1.399 . S
C625 C624 1.399 . S
C625 C626 1.396 . S
C625 C628 1.453 . S
C625 C629 1.684 . S
C626 C607 1.723 . S
C626 C625 1.396 . S
C626 C627 1.394 . S
C627 C623 1.397 . S
C627 C626 1.394 . S
C627 C637 1.723 . S
C628 C625 1.453 . S
C628 H652 0.982 . S
C628 H653 0.979 . S
C628 H654 0.977 . S
C629 C625 1.684 . S
C629 H655 0.979 . S
C629 H656 0.980 . S
C629 H657 0.983 . S
C630 H606 0.948 . S
C630 C631 1.391 . S
C630 C635 1.391 . S
C631 C630 1.391 . S
C631 C632 1.391 . S
C632 H609 0.947 . S
C632 C631 1.391 . S
C632 C633 1.392 . S
C633 H610 0.948 . S
C633 C632 1.392 . S
C633 C634 1.419 . S
C634 C633 1.419 . S
C634 C635 1.391 . S
C634 C638 1.397 . S
C635 C630 1.391 . S
C635 C634 1.391 . S
C635 C636 1.399 . S
C636 C635 1.399 . S
C636 C637 1.396 . S
C636 C639 1.453 . S
C636 C640 1.684 . S
C637 C627 1.723 . S
C637 C636 1.396 . S
C637 C638 1.394 . S
C638 C608 1.723 . S
C638 C634 1.397 . S
C638 C637 1.394 . S
C639 H611 0.982 . S
C639 H615 0.979 . S
C639 H616 0.977 . S
C639 C636 1.453 . S
C640 H612 0.979 . S
C640 H613 0.980 . S
C640 H614 0.983 . S
C640 C636 1.684 . S
H641 C659 0.948 . S
H642 C600 0.948 . S
H643 C618 0.979 . S
H644 C618 0.980 . S
H645 C618 0.983 . S
H646 C617 0.982 . S
H647 C617 0.979 . S
H648 C617 0.977 . S
H649 C619 0.948 . S
H650 C621 0.947 . S
H651 C622 0.948 . S
H652 C628 0.982 . S
H653 C628 0.979 . S
H654 C628 0.977 . S
H655 C629 0.979 . S
H656 C629 0.980 . S
H657 C629 0.983 . S
H658 C602 0.947 . S
C659 C602 1.392 . S
C659 C603 1.419 . S
C659 H641 0.948 . S
C660 C661 1.391 . S
C660 C664 1.391 . S
C660 H702 0.948 . S
C661 C660 1.391 . S
C661 C662 1.391 . S
C662 C661 1.391 . S
C662 H718 0.947 . S
C662 C719 1.392 . S
C663 C664 1.391 . S
C663 C667 1.397 . S
C663 C719 1.419 . S
C664 C660 1.391 . S
C664 C663 1.391 . S
C664 C665 1.399 . S
C665 C664 1.399 . S
C665 C668 1.396 . S
C665 C677 1.453 . S
C665 C678 1.684 . S
H666 C690 0.948 . S
C667 C663 1.397 . S
C667 C668 1.394 . S
C667 C686 1.723 . S
C668 C665 1.396 . S
C668 C667 1.394 . S
C668 C698 1.723 . S
H669 C692 0.947 . S
H670 C693 0.948 . S
H671 C699 0.982 . S
H672 C700 0.979 . S
H673 C700 0.980 . S
H674 C700 0.983 . S
H675 C699 0.979 . S
H676 C699 0.977 . S
C677 C665 1.453 . S
C677 H706 0.982 . S
C677 H707 0.979 . S
C677 H708 0.977 . S
C678 C665 1.684 . S
C678 H703 0.979 . S
C678 H704 0.980 . S
C678 H705 0.983 . S
C679 C680 1.391 . S
C679 C684 1.391 . S
C679 H709 0.948 . S
C680 C679 1.391 . S
C680 C681 1.391 . S
C681 C680 1.391 . S
C681 C682 1.392 . S
C681 H710 0.947 . S
C682 C681 1.392 . S
C682 C683 1.419 . S
C682 H711 0.948 . S
C683 C682 1.419 . S
C683 C684 1.391 . S
C683 C687 1.397 . S
C684 C679 1.391 . S
C684 C683 1.391 . S
C684 C685 1.399 . S
C685 C684 1.399 . S
C685 C686 1.396 . S
C685 C688 1.453 . S
C685 C689 1.684 . S
C686 C667 1.723 . S
C686 C685 1.396 . S
C686 C687 1.394 . S
C687 C683 1.397 . S
C687 C686 1.394 . S
C687 C697 1.723 . S
C688 C685 1.453 . S
C688 H712 0.982 . S
C688 H713 0.979 . S
C688 H714 0.977 . S
C689 C685 1.684 . S
C689 H715 0.979 . S
C689 H716 0.980 . S
C689 H717 0.983 . S
C690 H666 0.948 . S
C690 C691 1.391 . S
C690 C695 1.391 . S
C691 C690 1.391 . S
C691 C692 1.391 . S
C692 H669 0.947 . S
C692 C691 1.391 . S
C692 C693 1.392 . S
C693 H670 0.948 . S
C693 C692 1.392 . S
C693 C694 1.419 . S
C694 C693 1.419 . S
C694 C695 1.391 . S
C694 C698 1.397 . S
C695 C690 1.391 . S
C695 C694 1.391 . S
C695 C696 1.399 . S
C696 C695 1.399 . S
C696 C697 1.396 . S
C696 C699 1.453 . S
C696 C700 1.684 . S
C697 C687 1.723 . S
C697 C696 1.396 . S
C697 C698 1.394 . S
C698 C668 1.723 . S
C698 C694 1.397 . S
C698 C697 1.394 . S
C699 H671 0.982 . S
C699 H675 0.979 . S
C699 H676 0.977 . S
C699 C696 1.453 . S
C700 H672 0.979 . S
C700 H673 0.980 . S
C700 H674 0.983 . S
C700 C696 1.684 . S
H701 C719 0.948 . S
H702 C660 0.948 . S
H703 C678 0.979 . S
H704 C678 0.980 . S
H705 C678 0.983 . S
H706 C677 0.982 . S
H707 C677 0.979 . S
H708 C677 0.977 . S
H709 C679 0.948 . S
H710 C681 0.947 . S
H711 C682 0.948 . S
H712 C688 0.982 . S
H713 C688 0.979 . S
H714 C688 0.977 . S
H715 C689 0.979 . S
H716 C689 0.980 . S
H717 C689 0.983 . S
H718 C662 0.947 . S
C719 C662 1.392 . S
C719 C663 1.419 . S
C719 H701 0.948 . S
C720 C721 1.391 . S
C720 C724 1.391 . S
C720 H762 0.948 . S
C721 C720 1.391 . S
C721 C722 1.391 . S
C722 C721 1.391 . S
C722 H778 0.947 . S
C722 C779 1.392 . S
C723 C724 1.391 . S
C723 C727 1.397 . S
C723 C779 1.419 . S
C724 C720 1.391 . S
C724 C723 1.391 . S
C724 C725 1.399 . S
C725 C724 1.399 . S
C725 C728 1.396 . S
C725 C737 1.453 . S
C725 C738 1.684 . S
H726 C750 0.948 . S
C727 C723 1.397 . S
C727 C728 1.394 . S
C727 C746 1.723 . S
C728 C725 1.396 . S
C728 C727 1.394 . S
C728 C758 1.723 . S
H729 C752 0.947 . S
H730 C753 0.948 . S
H731 C759 0.982 . S
H732 C760 0.979 . S
H733 C760 0.980 . S
H734 C760 0.983 . S
H735 C759 0.979 . S
H736 C759 0.977 . S
C737 C725 1.453 . S
C737 H766 0.982 . S
C737 H767 0.979 . S
C737 H768 0.977 . S
C738 C725 1.684 . S
C738 H763 0.979 . S
C738 H764 0.980 . S
C738 H765 0.983 . S
C739 C740 1.391 . S
C739 C744 1.391 . S
C739 H769 0.948 . S
C740 C739 1.391 . S
C740 C741 1.391 . S
C741 C740 1.391 . S
C741 C742 1.392 . S
C741 H770 0.947 . S
C742 C741 1.392 . S
C742 C743 1.419 . S
C742 H771 0.948 . S
C743 C742 1.419 . S
C743 C744 1.391 . S
C743 C747 1.397 . S
C744 C739 1.391 . S
C744 C743 1.391 . S
C744 C745 1.399 . S
C745 C744 1.399 . S
C745 C746 1.396 . S
C745 C748 1.453 . S
C745 C749 1.684 . S
C746 C727 1.723 . S
C746 C745 1.396 . S
C746 C747 1.394 . S
C747 C743 1.397 . S
C747 C746 1.394 . S
C747 C757 1.723 . S
C748 C745 1.453 . S
C748 H772 0.982 . S
C748 H773 0.979 . S
C748 H774 0.977 . S
C749 C745 1.684 . S
C749 H775 0.979 . S
C749 H776 0.980 . S
C749 H777 0.983 . S
C750 H726 0.948 . S
C750 C751 1.391 . S
C750 C755 1.391 . S
C751 C750 1.391 . S
C751 C752 1.391 . S
C752 H729 0.947 . S
C752 C751 1.391 . S
C752 C753 1.392 . S
C753 H730 0.948 . S
C753 C752 1.392 . S
C753 C754 1.419 . S
C754 C753 1.419 . S
C754 C755 1.391 . S
C754 C758 1.397 . S
C755 C750 1.391 . S
C755 C754 1.391 . S
C755 C756 1.399 . S
C756 C755 1.399 . S
C756 C757 1.396 . S
C756 C759 1.453 . S
C756 C760 1.684 . S
C757 C747 1.723 . S
C757 C756 1.396 . S
C757 C758 1.394 . S
C758 C728 1.723 . S
C758 C754 1.397 . S
C758 C757 1.394 . S
C759 H731 0.982 . S
C759 H735 0.979 . S
C759 H736 0.977 . S
C759 C756 1.453 . S
C760 H732 0.979 . S
C760 H733 0.980 . S
C760 H734 0.983 . S
C760 C756 1.684 . S
H761 C779 0.948 . S
H762 C720 0.948 . S
H763 C738 0.979 . S
H764 C738 0.980 . S
H765 C738 0.983 . S
H766 C737 0.982 . S
H767 C737 0.979 . S
H768 C737 0.977 . S
H769 C739 0.948 . S
H770 C741 0.947 . S
H771 C742 0.948 . S
H772 C748 0.982 . S
H773 C748 0.979 . S
H774 C748 0.977 . S
H775 C749 0.979 . S
H776 C749 0.980 . S
H777 C749 0.983 . S
H778 C722 0.947 . S
C779 C722 1.392 . S
C779 C723 1.419 . S
C779 H761 0.948 . S
C780 C781 1.391 . S
C780 C784 1.391 . S
C780 H822 0.948 . S
C781 C780 1.391 . S
C781 C782 1.391 . S
C782 C781 1.391 . S
C782 H838 0.947 . S
C782 C839 1.392 . S
C783 C784 1.391 . S
C783 C787 1.397 . S
C783 C839 1.419 . S
C784 C780 1.391 . S
C784 C783 1.391 . S
C784 C785 1.399 . S
C785 C784 1.399 . S
C785 C788 1.396 . S
C785 C797 1.453 . S
C785 C798 1.684 . S
H786 C810 0.948 . S
C787 C783 1.397 . S
C787 C788 1.394 . S
C787 C806 1.723 . S
C788 C785 1.396 . S
C788 C787 1.394 . S
C788 C818 1.723 . S
H789 C812 0.947 . S
H790 C813 0.948 . S
H791 C819 0.982 . S
H792 C820 0.979 . S
H793 C820 0.980 . S
H794 C820 0.983 . S
H795 C819 0.979 . S
H796 C819 0.977 . S
C797 C785 1.453 . S
C797 H826 0.982 . S
C797 H827 0.979 . S
C797 H828 0.977 . S
C798 C785 1.684 . S
C798 H823 0.979 . S
C798 H824 0.980 . S
C798 H825 0.983 . S
C799 C800 1.391 . S
C799 C804 1.391 . S
C799 H829 0.948 . S
C800 C799 1.391 . S
C800 C801 1.391 . S
C801 C800 1.391 . S
C801 C802 1.392 . S
C801 H830 0.947 . S
C802 C801 1.392 . S
C802 C803 1.419 . S
C802 H831 0.948 . S
C803 C802 1.419 . S
C803 C804 1.391 . S
C803 C807 1.397 . S
C804 C799 1.391 . S
C804 C803 1.391 . S
C804 C805 1.399 . S
C805 C804 1.399 . S
C805 C806 1.396 . S
C805 C808 1.453 . S
C805 C809 1.684 . S
C806 C787 1.723 . S
C806 C805 1.396 . S
C806 C807 1.394 . S
C807 C803 1.397 . S
C807 C806 1.394 . S
C807 C817 1.723 . S
C808 C805 1.453 . S
C808 H832 0.982 . S
C808 H833 0.979 . S
C808 H834 0.977 . S
C809 C805 1.684 . S
C809 H835 0.979 . S
C809 H836 0.980 . S
C809 H837 0.983 . S
C810 H786 0.948 . S
C810 C811 1.391 . S
C810 C815 1.391 . S
C811 C810 1.391 . S
C811 C812 1.391 . S
C812 H789 0.947 . S
C812 C811 1.391 . S
C812 C813 1.392 . S
C813 H790 0.948 . S
C813 C812 1.392 . S
C813 C814 1.419 . S
C814 C813 1.419 . S
C814 C815 1.391 . S
C814 C818 1.397 . S
C815 C810 1.391 . S
C815 C814 1.391 . S
C815 C816 1.399 . S
C816 C815 1.399 . S
C816 C817 1.396 . S
C816 C819 1.453 . S
C816 C820 1.684 . S
C817 C807 1.723 . S
C817 C816 1.396 . S
C817 C818 1.394 . S
C818 C788 1.723 . S
C818 C814 1.397 . S
C818 C817 1.394 . S
C819 H791 0.982 . S
C819 H795 0.979 . S
C819 H796 0.977 . S
C819 C816 1.453 . S
C820 H792 0.979 . S
C820 H793 0.980 . S
C820 H794 0.983 . S
C820 C816 1.684 . S
H821 C839 0.948 . S
H822 C780 0.948 . S
H823 C798 0.979 . S
H824 C798 0.980 . S
H825 C798 0.983 . S
H826 C797 0.982 . S
H827 C797 0.979 . S
H828 C797 0.977 . S
H829 C799 0.948 . S
H830 C801 0.947 . S
H831 C802 0.948 . S
H832 C808 0.982 . S
H833 C808 0.979 . S
H834 C808 0.977 . S
H835 C809 0.979 . S
H836 C809 0.980 . S
H837 C809 0.983 . S
H838 C782 0.947 . S
C839 C782 1.392 . S
C839 C783 1.419 . S
C839 H821 0.948 . S
C840 C841 1.391 . S
C840 C844 1.391 . S
C840 H882 0.948 . S
C841 C840 1.391 . S
C841 C842 1.391 . S
C842 C841 1.391 . S
C842 H898 0.947 . S
C842 C899 1.392 . S
C843 C844 1.391 . S
C843 C847 1.397 . S
C843 C899 1.419 . S
C844 C840 1.391 . S
C844 C843 1.391 . S
C844 C845 1.399 . S
C845 C844 1.399 . S
C845 C848 1.396 . S
C845 C857 1.453 . S
C845 C858 1.684 . S
H846 C870 0.948 . S
C847 C843 1.397 . S
C847 C848 1.394 . S
C847 C866 1.723 . S
C848 C845 1.396 . S
C848 C847 1.394 . S
C848 C878 1.723 . S
H849 C872 0.947 . S
H850 C873 0.948 . S
H851 C879 0.982 . S
H852 C880 0.979 . S
H853 C880 0.980 . S
H854 C880 0.983 . S
H855 C879 0.979 . S
H856 C879 0.977 . S
C857 C845 1.453 . S
C857 H886 0.982 . S
C857 H887 0.979 . S
C857 H888 0.977 . S
C858 C845 1.684 . S
C858 H883 0.979 . S
C858 H884 0.980 . S
C858 H885 0.983 . S
C859 C860 1.391 . S
C859 C864 1.391 . S
C859 H889 0.948 . S
C860 C859 1.391 . S
C860 C861 1.391 . S
C861 C860 1.391 . S
C861 C862 1.392 . S
C861 H890 0.947 . S
C862 C861 1.392 . S
C862 C863 1.419 . S
C862 H891 0.948 . S
C863 C862 1.419 . S
C863 C864 1.391 . S
C863 C867 1.397 . S
C864 C859 1.391 . S
C864 C863 1.391 . S
C864 C865 1.399 . S
C865 C864 1.399 . S
C865 C866 1.396 . S
C865 C868 1.453 . S
C865 C869 1.684 . S
C866 C847 1.723 . S
C866 C865 1.396 . S
C866 C867 1.394 . S
C867 C863 1.397 . S
C867 C866 1.394 . S
C867 C877 1.723 . S
C868 C865 1.453 . S
C868 H892 0.982 . S
C868 H893 0.979 . S
C868 H894 0.977 . S
C869 C865 1.684 . S
C869 H895 0.979 . S
C869 H896 0.980 . S
C869 H897 0.983 . S
C870 H846 0.948 . S
C870 C871 1.391 . S
C870 C875 1.391 . S
C871 C870 1.391 . S
C871 C872 1.391 . S
C872 H849 0.947 . S
C872 C871 1.391 . S
C872 C873 1.392 . S
C873 H850 0.948 . S
C873 C872 1.392 . S
C873 C874 1.419 . S
C874 C873 1.419 . S
C874 C875 1.391 . S
C874 C878 1.397 . S
C875 C870 1.391 . S
C875 C874 1.391 . S
C875 C876 1.399 . S
C876 C875 1.399 . S
C876 C877 1.396 . S
C876 C879 1.453 . S
C876 C880 1.684 . S
C877 C867 1.723 . S
C877 C876 1.396 . S
C877 C878 1.394 . S
C878 C848 1.723 . S
C878 C874 1.397 . S
C878 C877 1.394 . S
C879 H851 0.982 . S
C879 H855 0.979 . S
C879 H856 0.977 . S
C879 C876 1.453 . S
C880 H852 0.979 . S
C880 H853 0.980 . S
C880 H854 0.983 . S
C880 C876 1.684 . S
H881 C899 0.948 . S
H882 C840 0.948 . S
H883 C858 0.979 . S
H884 C858 0.980 . S
H885 C858 0.983 . S
H886 C857 0.982 . S
H887 C857 0.979 . S
H888 C857 0.977 . S
H889 C859 0.948 . S
H890 C861 0.947 . S
H891 C862 0.948 . S
H892 C868 0.982 . S
H893 C868 0.979 . S
H894 C868 0.977 . S
H895 C869 0.979 . S
H896 C869 0.980 . S
H897 C869 0.983 . S
H898 C842 0.947 . S
C899 C842 1.392 . S
C899 C843 1.419 . S
C899 H881 0.948 . S
C900 C901 1.391 . S
C900 C904 1.391 . S
C900 H942 0.948 . S
C901 C900 1.391 . S
C901 C902 1.391 . S
C902 C901 1.391 . S
C902 H958 0.947 . S
C902 C959 1.392 . S
C903 C904 1.391 . S
C903 C907 1.397 . S
C903 C959 1.419 . S
C904 C900 1.391 . S
C904 C903 1.391 . S
C904 C905 1.399 . S
C905 C904 1.399 . S
C905 C908 1.396 . S
C905 C917 1.453 . S
C905 C918 1.684 . S
H906 C930 0.948 . S
C907 C903 1.397 . S
C907 C908 1.394 . S
C907 C926 1.723 . S
C908 C905 1.396 . S
C908 C907 1.394 . S
C908 C938 1.723 . S
H909 C932 0.947 . S
H910 C933 0.948 . S
H911 C939 0.982 . S
H912 C940 0.979 . S
H913 C940 0.980 . S
H914 C940 0.983 . S
H915 C939 0.979 . S
H916 C939 0.977 . S
C917 C905 1.453 . S
C917 H946 0.982 . S
C917 H947 0.979 . S
C917 H948 0.977 . S
C918 C905 1.684 . S
C918 H943 0.979 . S
C918 H944 0.980 . S
C918 H945 0.983 . S
C919 C920 1.391 . S
C919 C924 1.391 . S
C919 H949 0.948 . S
C920 C919 1.391 . S
C920 C921 1.391 . S
C921 C920 1.391 . S
C921 C922 1.392 . S
C921 H950 0.947 . S
C922 C921 1.392 . S
C922 C923 1.419 . S
C922 H951 0.948 . S
C923 C922 1.419 . S
C923 C924 1.391 . S
C923 C927 1.397 . S
C924 C919 1.391 . S
C924 C923 1.391 . S
C924 C925 1.399 . S
C925 C924 1.399 . S
C925 C926 1.396 . S
C925 C928 1.453 . S
C925 C929 1.684 . S
C926 C907 1.723 . S
C926 C925 1.396 . S
C926 C927 1.394 . S
C927 C923 1.397 . S
C927 C926 1.394 . S
C927 C937 1.723 . S
C928 C925 1.453 . S
C928 H952 0.982 . S
C928 H953 0.979 . S
C928 H954 0.977 . S
C929 C925 1.684 . S
C929 H955 0.979 . S
C929 H956 0.980 . S
C929 H957 0.983 . S
C930 H906 0.948 . S
C930 C931 1.391 . S
C930 C935 1.391 . S
C931 C930 1.391 . S
C931 C932 1.391 . S
C932 H909 0.947 . S
C932 C931 1.391 . S
C932 C933 1.392 . S
C933 H910 0.948 . S
C933 C932 1.392 . S
C933 C934 1.419 . S
C934 C933 1.419 . S
C934 C935 1.391 . S
C934 C938 1.397 . S
C935 C930 1.391 . S
C935 C934 1.391 . S
C935 C936 1.399 . S
C936 C935 1.399 . S
C936 C937 1.396 . S
C936 C939 1.453 . S
C936 C940 1.684 . S
C937 C927 1.723 . S
C937 C936 1.396 . S
C937 C938 1.394 . S
C938 C908 1.723 . S
C938 C934 1.397 . S
C938 C937 1.394 . S
C939 H911 0.982 . S
C939 H915 0.979 . S
C939 H916 0.977 . S
C939 C936 1.453 . S
C940 H912 0.979 . S
C940 H913 0.980 . S
C940 H914 0.983 . S
C940 C936 1.684 . S
H941 C959 0.948 . S
H942 C900 0.948 . S
H943 C918 0.979 . S
H944 C918 0.980 . S
H945 C918 0.983 . S
H946 C917 0.982 . S
H947 C917 0.979 . S
H948 C917 0.977 . S
H949 C919 0.948 . S
H950 C921 0.947 . S
H951 C922 0.948 . S
H952 C928 0.982 . S
H953 C928 0.979 . S
H954 C928 0.977 . S
H955 C929 0.979 . S
H956 C929 0.980 . S
H957 C929 0.983 . S
H958 C902 0.947 . S
C959 C902 1.392 . S
C959 C903 1.419 . S
C959 H941 0.948 . S
C960 C961 1.391 . S
C960 C964 1.391 . S
C960 H1002 0.948 . S
C961 C960 1.391 . S
C961 C962 1.391 . S
C962 C961 1.391 . S
C962 H1018 0.947 . S
C962 C1019 1.392 . S
C963 C964 1.391 . S
C963 C967 1.397 . S
C963 C1019 1.419 . S
C964 C960 1.391 . S
C964 C963 1.391 . S
C964 C965 1.399 . S
C965 C964 1.399 . S
C965 C968 1.396 . S
C965 C977 1.453 . S
C965 C978 1.684 . S
H966 C990 0.948 . S
C967 C963 1.397 . S
C967 C968 1.394 . S
C967 C986 1.723 . S
C968 C965 1.396 . S
C968 C967 1.394 . S
C968 C998 1.723 . S
H969 C992 0.947 . S
H970 C993 0.948 . S
H971 C999 0.982 . S
H972 C1000 0.979 . S
H973 C1000 0.980 . S
H974 C1000 0.983 . S
H975 C999 0.979 . S
H976 C999 0.977 . S
C977 C965 1.453 . S
C977 H1006 0.982 . S
C977 H1007 0.979 . S
C977 H1008 0.977 . S
C978 C965 1.684 . S
C978 H1003 0.979 . S
C978 H1004 0.980 . S
C978 H1005 0.983 . S
C979 C980 1.391 . S
C979 C984 1.391 . S
C979 H1009 0.948 . S
C980 C979 1.391 . S
C980 C981 1.391 . S
C981 C980 1.391 . S
C981 C982 1.392 . S
C981 H1010 0.947 . S
C982 C981 1.392 . S
C982 C983 1.419 . S
C982 H1011 0.948 . S
C983 C982 1.419 . S
C983 C984 1.391 . S
C983 C987 1.397 . S
C984 C979 1.391 . S
C984 C983 1.391 . S
C984 C985 1.399 . S
C985 C984 1.399 . S
C985 C986 1.396 . S
C985 C988 1.453 . S
C985 C989 1.684 . S
C986 C967 1.723 . S
C986 C985 1.396 . S
C986 C987 1.394 . S
C987 C983 1.397 . S
C987 C986 1.394 . S
C987 C997 1.723 . S
C988 C985 1.453 . S
C988 H1012 0.982 . S
C988 H1013 0.979 . S
C988 H1014 0.977 . S
C989 C985 1.684 . S
C989 H1015 0.979 1_455 S
C989 H1016 0.980 . S
C989 H1017 0.983 . S
C990 H966 0.948 . S
C990 C991 1.391 . S
C990 C995 1.391 . S
C991 C990 1.391 . S
C991 C992 1.391 . S
C992 H969 0.947 . S
C992 C991 1.391 . S
C992 C993 1.392 . S
C993 H970 0.948 . S
C993 C992 1.392 . S
C993 C994 1.419 . S
C994 C993 1.419 . S
C994 C995 1.391 . S
C994 C998 1.397 . S
C995 C990 1.391 . S
C995 C994 1.391 . S
C995 C996 1.399 . S
C996 C995 1.399 . S
C996 C997 1.396 . S
C996 C999 1.453 . S
C996 C1000 1.684 . S
C997 C987 1.723 . S
C997 C996 1.396 . S
C997 C998 1.394 . S
C998 C968 1.723 . S
C998 C994 1.397 . S
C998 C997 1.394 . S
C999 H971 0.982 . S
C999 H975 0.979 . S
C999 H976 0.977 . S
C999 C996 1.453 . S
C1000 H972 0.979 . S
C1000 H973 0.980 . S
C1000 H974 0.983 . S
C1000 C996 1.684 . S
H1001 C1019 0.948 . S
H1002 C960 0.948 . S
H1003 C978 0.979 . S
H1004 C978 0.980 . S
H1005 C978 0.983 . S
H1006 C977 0.982 . S
H1007 C977 0.979 . S
H1008 C977 0.977 . S
H1009 C979 0.948 . S
H1010 C981 0.947 . S
H1011 C982 0.948 . S
H1012 C988 0.982 . S
H1013 C988 0.979 . S
H1014 C988 0.977 . S
H1015 C989 0.979 1_655 S
H1016 C989 0.980 . S
H1017 C989 0.983 . S
H1018 C962 0.947 . S
C1019 C962 1.392 . S
C1019 C963 1.419 . S
C1019 H1001 0.948 . S
C1020 C1021 1.391 . S
C1020 C1024 1.391 . S
C1020 H1062 0.948 . S
C1021 C1020 1.391 . S
C1021 C1022 1.391 . S
C1022 C1021 1.391 . S
C1022 H1078 0.947 . S
C1022 C1079 1.392 . S
C1023 C1024 1.391 . S
C1023 C1027 1.397 . S
C1023 C1079 1.419 . S
C1024 C1020 1.391 . S
C1024 C1023 1.391 . S
C1024 C1025 1.399 . S
C1025 C1024 1.399 . S
C1025 C1028 1.396 . S
C1025 C1037 1.453 . S
C1025 C1038 1.684 . S
H1026 C1050 0.948 . S
C1027 C1023 1.397 . S
C1027 C1028 1.394 . S
C1027 C1046 1.723 . S
C1028 C1025 1.396 . S
C1028 C1027 1.394 . S
C1028 C1058 1.723 . S
H1029 C1052 0.947 . S
H1030 C1053 0.948 . S
H1031 C1059 0.982 . S
H1032 C1060 0.979 . S
H1033 C1060 0.980 . S
H1034 C1060 0.983 . S
H1035 C1059 0.979 . S
H1036 C1059 0.977 . S
C1037 C1025 1.453 . S
C1037 H1066 0.982 . S
C1037 H1067 0.979 . S
C1037 H1068 0.977 . S
C1038 C1025 1.684 . S
C1038 H1063 0.979 . S
C1038 H1064 0.980 . S
C1038 H1065 0.983 . S
C1039 C1040 1.391 . S
C1039 C1044 1.391 . S
C1039 H1069 0.948 . S
C1040 C1039 1.391 . S
C1040 C1041 1.391 . S
C1041 C1040 1.391 . S
C1041 C1042 1.392 . S
C1041 H1070 0.947 . S
C1042 C1041 1.392 . S
C1042 C1043 1.419 . S
C1042 H1071 0.948 . S
C1043 C1042 1.419 . S
C1043 C1044 1.391 . S
C1043 C1047 1.397 . S
C1044 C1039 1.391 . S
C1044 C1043 1.391 . S
C1044 C1045 1.399 . S
C1045 C1044 1.399 . S
C1045 C1046 1.396 . S
C1045 C1048 1.453 . S
C1045 C1049 1.684 . S
C1046 C1027 1.723 . S
C1046 C1045 1.396 . S
C1046 C1047 1.394 . S
C1047 C1043 1.397 . S
C1047 C1046 1.394 . S
C1047 C1057 1.723 . S
C1048 C1045 1.453 . S
C1048 H1072 0.982 . S
C1048 H1073 0.979 . S
C1048 H1074 0.977 . S
C1049 C1045 1.684 . S
C1049 H1075 0.979 . S
C1049 H1076 0.980 . S
C1049 H1077 0.983 . S
C1050 H1026 0.948 . S
C1050 C1051 1.391 . S
C1050 C1055 1.391 . S
C1051 C1050 1.391 . S
C1051 C1052 1.391 . S
C1052 H1029 0.947 . S
C1052 C1051 1.391 . S
C1052 C1053 1.392 . S
C1053 H1030 0.948 . S
C1053 C1052 1.392 . S
C1053 C1054 1.419 . S
C1054 C1053 1.419 . S
C1054 C1055 1.391 . S
C1054 C1058 1.397 . S
C1055 C1050 1.391 . S
C1055 C1054 1.391 . S
C1055 C1056 1.399 . S
C1056 C1055 1.399 . S
C1056 C1057 1.396 . S
C1056 C1059 1.453 . S
C1056 C1060 1.684 . S
C1057 C1047 1.723 . S
C1057 C1056 1.396 . S
C1057 C1058 1.394 . S
C1058 C1028 1.723 . S
C1058 C1054 1.397 . S
C1058 C1057 1.394 . S
C1059 H1031 0.982 . S
C1059 H1035 0.979 . S
C1059 H1036 0.977 . S
C1059 C1056 1.453 . S
C1060 H1032 0.979 . S
C1060 H1033 0.980 . S
C1060 H1034 0.983 . S
C1060 C1056 1.684 . S
H1061 C1079 0.948 . S
H1062 C1020 0.948 . S
H1063 C1038 0.979 . S
H1064 C1038 0.980 . S
H1065 C1038 0.983 . S
H1066 C1037 0.982 . S
H1067 C1037 0.979 . S
H1068 C1037 0.977 . S
H1069 C1039 0.948 . S
H1070 C1041 0.947 . S
H1071 C1042 0.948 . S
H1072 C1048 0.982 . S
H1073 C1048 0.979 . S
H1074 C1048 0.977 . S
H1075 C1049 0.979 . S
H1076 C1049 0.980 . S
H1077 C1049 0.983 . S
H1078 C1022 0.947 . S
C1079 C1022 1.392 . S
C1079 C1023 1.419 . S
C1079 H1061 0.948 . S
C1080 Eu1081 2.835 . S
C1080 C1082 1.500 . S
C1080 O1100 1.257 1_545 S
C1080 O1101 1.260 . S
Eu1081 C1080 2.835 . S
Eu1081 O1100 2.473 1_545 S
Eu1081 O1101 2.480 . S
Eu1081 O1102 2.430 . S
Eu1081 O1103 2.670 1_554 S
Eu1081 O1104 2.394 1_545 S
Eu1081 O1109 2.355 1_545 S
Eu1081 O1111 2.374 . S
C1082 C1080 1.500 . S
C1082 C1083 1.377 . S
C1082 C1087 1.377 1_545 S
C1083 C1082 1.377 . S
C1083 C1084 1.395 . S
C1083 H1112 0.931 . S
C1084 C1083 1.395 . S
C1084 C1085 1.383 1_545 S
C1084 H1113 0.931 . S
C1085 C1084 1.383 1_565 S
C1085 C1086 1.394 . S
C1086 C1085 1.394 . S
C1086 C1087 1.378 . S
C1086 H1114 0.931 . S
C1087 C1082 1.377 1_565 S
C1087 C1086 1.378 . S
C1087 H1115 0.931 . S
C1088 O1102 1.259 1_556 S
C1088 O1103 1.270 . S
C1089 O1104 1.251 . S
C1089 O1105 1.251 1_554 S
C1090 Eu1091 2.835 . S
C1090 C1092 1.500 . S
C1090 O1106 1.257 1_565 S
C1090 O1107 1.260 . S
Eu1091 C1090 2.835 . S
Eu1091 O1103 2.355 1_565 S
Eu1091 O1105 2.374 . S
Eu1091 O1106 2.473 1_565 S
Eu1091 O1107 2.480 . S
Eu1091 O1108 2.430 . S
Eu1091 O1109 2.670 1_556 S
Eu1091 O1110 2.394 1_565 S
C1092 C1090 1.500 . S
C1092 C1093 1.377 . S
C1092 C1097 1.377 1_565 S
C1093 C1092 1.377 . S
C1093 C1094 1.395 . S
C1093 H1116 0.931 . S
C1094 C1093 1.395 . S
C1094 C1095 1.383 1_565 S
C1094 H1117 0.931 . S
C1095 C1094 1.383 1_545 S
C1095 C1096 1.394 . S
C1096 C1095 1.394 . S
C1096 C1097 1.378 . S
C1096 H1118 0.931 . S
C1097 C1092 1.377 1_545 S
C1097 C1096 1.378 . S
C1097 H1119 0.931 . S
C1098 O1108 1.259 1_554 S
C1098 O1109 1.270 . S
C1099 O1110 1.251 . S
C1099 O1111 1.251 1_556 S
O1100 C1080 1.257 1_565 S
O1100 Eu1081 2.473 1_565 S
O1101 C1080 1.260 . S
O1101 Eu1081 2.480 . S
O1102 Eu1081 2.430 . S
O1102 C1088 1.259 1_554 S
O1103 Eu1081 2.670 1_556 S
O1103 C1088 1.270 . S
O1103 Eu1091 2.355 1_545 S
O1104 Eu1081 2.394 1_565 S
O1104 C1089 1.251 . S
O1105 C1089 1.251 1_556 S
O1105 Eu1091 2.374 . S
O1106 C1090 1.257 1_545 S
O1106 Eu1091 2.473 1_545 S
O1107 C1090 1.260 . S
O1107 Eu1091 2.480 . S
O1108 Eu1091 2.430 . S
O1108 C1098 1.259 1_556 S
O1109 Eu1081 2.355 1_565 S
O1109 Eu1091 2.670 1_554 S
O1109 C1098 1.270 . S
O1110 Eu1091 2.394 1_545 S
O1110 C1099 1.251 . S
O1111 Eu1081 2.374 . S
O1111 C1099 1.251 1_554 S
H1112 C1083 0.931 . S
H1113 C1084 0.931 . S
H1114 C1086 0.931 . S
H1115 C1087 0.931 . S
H1116 C1093 0.931 . S
H1117 C1094 0.931 . S
H1118 C1096 0.931 . S
H1119 C1097 0.931 . S
C1120 Eu1121 2.835 . S
C1120 C1122 1.500 1_655 S
C1120 O1140 1.257 1_655 S
C1120 O1141 1.260 . S
Eu1121 C1120 2.835 . S
Eu1121 O1140 2.473 1_655 S
Eu1121 O1141 2.480 . S
Eu1121 O1142 2.430 . S
Eu1121 O1143 2.670 1_554 S
Eu1121 O1144 2.394 1_655 S
Eu1121 O1149 2.355 1_655 S
Eu1121 O1151 2.400 . S
C1122 C1120 1.500 1_455 S
C1122 C1123 1.377 1_455 S
C1122 C1127 1.377 . S
C1123 C1122 1.377 1_655 S
C1123 C1124 1.395 . S
C1123 H1152 0.931 . S
C1124 C1123 1.395 . S
C1124 C1125 1.383 1_655 S
C1124 H1153 0.931 . S
C1125 C1124 1.383 1_455 S
C1125 C1126 1.394 . S
C1126 C1125 1.394 . S
C1126 C1127 1.378 . S
C1126 H1154 0.931 . S
C1127 C1122 1.377 . S
C1127 C1126 1.378 . S
C1127 H1155 0.931 . S
C1128 O1142 1.259 1_556 S
C1128 O1143 1.270 . S
C1129 O1144 1.251 . S
C1129 O1145 1.283 . S
C1130 Eu1131 2.835 . S
C1130 C1132 1.500 1_455 S
C1130 O1146 1.257 1_455 S
C1130 O1147 1.260 . S
Eu1131 C1130 2.835 . S
Eu1131 O1143 2.355 1_455 S
Eu1131 O1145 2.351 1_556 S
Eu1131 O1146 2.473 1_455 S
Eu1131 O1147 2.480 . S
Eu1131 O1148 2.430 . S
Eu1131 O1149 2.670 1_556 S
Eu1131 O1150 2.394 1_455 S
C1132 C1130 1.500 1_655 S
C1132 C1133 1.377 1_655 S
C1132 C1137 1.377 . S
C1133 C1132 1.377 1_455 S
C1133 C1134 1.395 . S
C1133 H1156 0.931 . S
C1134 C1133 1.395 . S
C1134 C1135 1.383 1_455 S
C1134 H1157 0.931 . S
C1135 C1134 1.383 1_655 S
C1135 C1136 1.394 . S
C1136 C1135 1.394 . S
C1136 C1137 1.378 . S
C1136 H1158 0.931 . S
C1137 C1132 1.377 . S
C1137 C1136 1.378 . S
C1137 H1159 0.931 . S
C1138 O1148 1.259 1_554 S
C1138 O1149 1.270 . S
C1139 O1150 1.251 . S
C1139 O1151 1.215 1_556 S
O1140 C1120 1.257 1_455 S
O1140 Eu1121 2.473 1_455 S
O1141 C1120 1.260 . S
O1141 Eu1121 2.480 . S
O1142 Eu1121 2.430 . S
O1142 C1128 1.259 1_554 S
O1143 Eu1121 2.670 1_556 S
O1143 C1128 1.270 . S
O1143 Eu1131 2.355 1_655 S
O1144 Eu1121 2.394 1_455 S
O1144 C1129 1.251 . S
O1145 C1129 1.283 . S
O1145 Eu1131 2.351 1_554 S
O1146 C1130 1.257 1_655 S
O1146 Eu1131 2.473 1_655 S
O1147 C1130 1.260 . S
O1147 Eu1131 2.480 . S
O1148 Eu1131 2.430 . S
O1148 C1138 1.259 1_556 S
O1149 Eu1121 2.355 1_455 S
O1149 Eu1131 2.670 1_554 S
O1149 C1138 1.270 . S
O1150 Eu1131 2.394 1_655 S
O1150 C1139 1.251 . S
O1151 Eu1121 2.400 . S
O1151 C1139 1.215 1_554 S
H1152 C1123 0.931 . S
H1153 C1124 0.931 . S
H1154 C1126 0.931 . S
H1155 C1127 0.931 . S
H1156 C1133 0.931 . S
H1157 C1134 0.931 . S
H1158 C1136 0.931 . S
H1159 C1137 0.931 . S
C1160 Eu1161 2.835 . S
C1160 C1162 1.500 . S
C1160 O1180 1.257 . S
C1160 O1181 1.260 . S
Eu1161 C1160 2.835 . S
Eu1161 O1180 2.473 . S
Eu1161 O1181 2.480 . S
Eu1161 O1182 2.430 . S
Eu1161 O1183 2.670 1_556 S
Eu1161 O1184 2.394 . S
Eu1161 O1189 2.355 . S
Eu1161 O1191 2.374 . S
C1162 C1160 1.500 . S
C1162 C1163 1.377 . S
C1162 C1167 1.377 . S
C1163 C1162 1.377 . S
C1163 C1164 1.395 . S
C1163 H1192 0.931 . S
C1164 C1163 1.395 . S
C1164 C1165 1.383 . S
C1164 H1193 0.931 . S
C1165 C1164 1.383 . S
C1165 C1166 1.394 . S
C1166 C1165 1.394 . S
C1166 C1167 1.378 . S
C1166 H1194 0.931 . S
C1167 C1162 1.377 . S
C1167 C1166 1.378 . S
C1167 H1195 0.931 . S
C1168 O1182 1.259 1_554 S
C1168 O1183 1.270 . S
C1169 O1184 1.251 . S
C1169 O1185 1.251 1_556 S
C1170 Eu1171 2.835 . S
C1170 C1172 1.500 . S
C1170 O1186 1.257 . S
C1170 O1187 1.260 . S
Eu1171 C1170 2.835 . S
Eu1171 O1183 2.355 . S
Eu1171 O1185 2.374 . S
Eu1171 O1186 2.473 . S
Eu1171 O1187 2.480 . S
Eu1171 O1188 2.430 . S
Eu1171 O1189 2.670 1_554 S
Eu1171 O1190 2.394 . S
C1172 C1170 1.500 . S
C1172 C1173 1.377 . S
C1172 C1177 1.377 . S
C1173 C1172 1.377 . S
C1173 C1174 1.395 . S
C1173 H1196 0.931 . S
C1174 C1173 1.395 . S
C1174 C1175 1.383 . S
C1174 H1197 0.931 . S
C1175 C1174 1.383 . S
C1175 C1176 1.394 . S
C1176 C1175 1.394 . S
C1176 C1177 1.378 . S
C1176 H1198 0.931 . S
C1177 C1172 1.377 . S
C1177 C1176 1.378 . S
C1177 H1199 0.931 . S
C1178 O1188 1.259 1_556 S
C1178 O1189 1.270 . S
C1179 O1190 1.251 . S
C1179 O1191 1.251 1_554 S
O1180 C1160 1.257 . S
O1180 Eu1161 2.473 . S
O1181 C1160 1.260 . S
O1181 Eu1161 2.480 . S
O1182 Eu1161 2.430 . S
O1182 C1168 1.259 1_556 S
O1183 Eu1161 2.670 1_554 S
O1183 C1168 1.270 . S
O1183 Eu1171 2.355 . S
O1184 Eu1161 2.394 . S
O1184 C1169 1.251 . S
O1185 C1169 1.251 1_554 S
O1185 Eu1171 2.374 . S
O1186 C1170 1.257 . S
O1186 Eu1171 2.473 . S
O1187 C1170 1.260 . S
O1187 Eu1171 2.480 . S
O1188 Eu1171 2.430 . S
O1188 C1178 1.259 1_554 S
O1189 Eu1161 2.355 . S
O1189 Eu1171 2.670 1_556 S
O1189 C1178 1.270 . S
O1190 Eu1171 2.394 . S
O1190 C1179 1.251 . S
O1191 Eu1161 2.374 . S
O1191 C1179 1.251 1_556 S
H1192 C1163 0.931 . S
H1193 C1164 0.931 . S
H1194 C1166 0.931 . S
H1195 C1167 0.931 . S
H1196 C1173 0.931 . S
H1197 C1174 0.931 . S
H1198 C1176 0.931 . S
H1199 C1177 0.931 . S
C1200 Eu1201 2.835 . S
C1200 C1202 1.500 . S
C1200 O1220 1.257 . S
C1200 O1221 1.260 . S
Eu1201 C1200 2.835 . S
Eu1201 O1220 2.473 . S
Eu1201 O1221 2.480 . S
Eu1201 O1222 2.430 . S
Eu1201 O1223 2.670 . S
Eu1201 O1224 2.394 . S
Eu1201 O1229 2.355 . S
Eu1201 O1231 2.374 . S
C1202 C1200 1.500 . S
C1202 C1203 1.377 . S
C1202 C1207 1.377 . S
C1203 C1202 1.377 . S
C1203 C1204 1.395 . S
C1203 H1232 0.931 . S
C1204 C1203 1.395 . S
C1204 C1205 1.383 . S
C1204 H1233 0.931 . S
C1205 C1204 1.383 . S
C1205 C1206 1.394 . S
C1206 C1205 1.394 . S
C1206 C1207 1.378 . S
C1206 H1234 0.931 . S
C1207 C1202 1.377 . S
C1207 C1206 1.378 . S
C1207 H1235 0.931 . S
C1208 O1222 1.259 . S
C1208 O1223 1.270 . S
C1209 O1224 1.251 . S
C1209 O1225 1.251 . S
C1210 Eu1211 2.835 . S
C1210 C1212 1.500 . S
C1210 O1226 1.257 . S
C1210 O1227 1.260 . S
Eu1211 C1210 2.835 . S
Eu1211 O1223 2.355 . S
Eu1211 O1225 2.374 . S
Eu1211 O1226 2.473 . S
Eu1211 O1227 2.480 . S
Eu1211 O1228 2.430 . S
Eu1211 O1229 2.670 . S
Eu1211 O1230 2.394 . S
C1212 C1210 1.500 . S
C1212 C1213 1.377 . S
C1212 C1217 1.377 . S
C1213 C1212 1.377 . S
C1213 C1214 1.395 . S
C1213 H1236 0.931 . S
C1214 C1213 1.395 . S
C1214 C1215 1.383 . S
C1214 H1237 0.931 . S
C1215 C1214 1.383 . S
C1215 C1216 1.394 . S
C1216 C1215 1.394 . S
C1216 C1217 1.378 . S
C1216 H1238 0.931 . S
C1217 C1212 1.377 . S
C1217 C1216 1.378 . S
C1217 H1239 0.931 . S
C1218 O1228 1.259 . S
C1218 O1229 1.270 . S
C1219 O1230 1.251 . S
C1219 O1231 1.251 . S
O1220 C1200 1.257 . S
O1220 Eu1201 2.473 . S
O1221 C1200 1.260 . S
O1221 Eu1201 2.480 . S
O1222 Eu1201 2.430 . S
O1222 C1208 1.259 . S
O1223 Eu1201 2.670 . S
O1223 C1208 1.270 . S
O1223 Eu1211 2.355 . S
O1224 Eu1201 2.394 . S
O1224 C1209 1.251 . S
O1225 C1209 1.251 . S
O1225 Eu1211 2.374 . S
O1226 C1210 1.257 . S
O1226 Eu1211 2.473 . S
O1227 C1210 1.260 . S
O1227 Eu1211 2.480 . S
O1228 Eu1211 2.430 . S
O1228 C1218 1.259 . S
O1229 Eu1201 2.355 . S
O1229 Eu1211 2.670 . S
O1229 C1218 1.270 . S
O1230 Eu1211 2.394 . S
O1230 C1219 1.251 . S
O1231 Eu1201 2.374 . S
O1231 C1219 1.251 . S
H1232 C1203 0.931 . S
H1233 C1204 0.931 . S
H1234 C1206 0.931 . S
H1235 C1207 0.931 . S
H1236 C1213 0.931 . S
H1237 C1214 0.931 . S
H1238 C1216 0.931 . S
H1239 C1217 0.931 . S
C1240 Eu1241 2.835 . S
C1240 C1242 1.500 . S
C1240 O1260 1.257 . S
C1240 O1261 1.260 . S
Eu1241 C1240 2.835 . S
Eu1241 O1260 2.473 . S
Eu1241 O1261 2.480 . S
Eu1241 O1262 2.430 . S
Eu1241 O1263 2.670 . S
Eu1241 O1264 2.394 . S
Eu1241 O1269 2.355 . S
Eu1241 O1271 2.374 . S
C1242 C1240 1.500 . S
C1242 C1243 1.377 . S
C1242 C1247 1.377 . S
C1243 C1242 1.377 . S
C1243 C1244 1.395 . S
C1243 H1272 0.931 . S
C1244 C1243 1.395 . S
C1244 C1245 1.383 . S
C1244 H1273 0.931 . S
C1245 C1244 1.383 . S
C1245 C1246 1.394 . S
C1246 C1245 1.394 . S
C1246 C1247 1.378 . S
C1246 H1274 0.931 . S
C1247 C1242 1.377 . S
C1247 C1246 1.378 . S
C1247 H1275 0.931 . S
C1248 O1262 1.259 . S
C1248 O1263 1.270 . S
C1249 O1264 1.251 . S
C1249 O1265 1.251 . S
C1250 Eu1251 2.835 . S
C1250 C1252 1.500 . S
C1250 O1266 1.257 . S
C1250 O1267 1.260 . S
Eu1251 C1250 2.835 . S
Eu1251 O1263 2.355 . S
Eu1251 O1265 2.374 . S
Eu1251 O1266 2.473 . S
Eu1251 O1267 2.480 . S
Eu1251 O1268 2.430 . S
Eu1251 O1269 2.670 . S
Eu1251 O1270 2.394 . S
C1252 C1250 1.500 . S
C1252 C1253 1.377 . S
C1252 C1257 1.377 . S
C1253 C1252 1.377 . S
C1253 C1254 1.395 . S
C1253 H1276 0.931 . S
C1254 C1253 1.395 . S
C1254 C1255 1.383 . S
C1254 H1277 0.931 . S
C1255 C1254 1.383 . S
C1255 C1256 1.394 . S
C1256 C1255 1.394 . S
C1256 C1257 1.378 . S
C1256 H1278 0.931 . S
C1257 C1252 1.377 . S
C1257 C1256 1.378 . S
C1257 H1279 0.931 . S
C1258 O1268 1.259 . S
C1258 O1269 1.270 . S
C1259 O1270 1.251 . S
C1259 O1271 1.251 . S
O1260 C1240 1.257 . S
O1260 Eu1241 2.473 . S
O1261 C1240 1.260 . S
O1261 Eu1241 2.480 . S
O1262 Eu1241 2.430 . S
O1262 C1248 1.259 . S
O1263 Eu1241 2.670 . S
O1263 C1248 1.270 . S
O1263 Eu1251 2.355 . S
O1264 Eu1241 2.394 . S
O1264 C1249 1.251 . S
O1265 C1249 1.251 . S
O1265 Eu1251 2.374 . S
O1266 C1250 1.257 . S
O1266 Eu1251 2.473 . S
O1267 C1250 1.260 . S
O1267 Eu1251 2.480 . S
O1268 Eu1251 2.430 . S
O1268 C1258 1.259 . S
O1269 Eu1241 2.355 . S
O1269 Eu1251 2.670 . S
O1269 C1258 1.270 . S
O1270 Eu1251 2.394 . S
O1270 C1259 1.251 . S
O1271 Eu1241 2.374 . S
O1271 C1259 1.251 . S
H1272 C1243 0.931 . S
H1273 C1244 0.931 . S
H1274 C1246 0.931 . S
H1275 C1247 0.931 . S
H1276 C1253 0.931 . S
H1277 C1254 0.931 . S
H1278 C1256 0.931 . S
H1279 C1257 0.931 . S
C1280 Eu1281 2.835 . S
C1280 C1282 1.500 . S
C1280 O1300 1.257 . S
C1280 O1301 1.260 . S
Eu1281 C1280 2.835 . S
Eu1281 O1300 2.473 . S
Eu1281 O1301 2.480 . S
Eu1281 O1302 2.430 . S
Eu1281 O1303 2.670 . S
Eu1281 O1304 2.394 . S
Eu1281 O1309 2.355 . S
Eu1281 O1311 2.374 . S
C1282 C1280 1.500 . S
C1282 C1283 1.377 . S
C1282 C1287 1.377 . S
C1283 C1282 1.377 . S
C1283 C1284 1.395 . S
C1283 H1312 0.931 . S
C1284 C1283 1.395 . S
C1284 C1285 1.383 . S
C1284 H1313 0.931 . S
C1285 C1284 1.383 . S
C1285 C1286 1.394 . S
C1286 C1285 1.394 . S
C1286 C1287 1.378 . S
C1286 H1314 0.931 . S
C1287 C1282 1.377 . S
C1287 C1286 1.378 . S
C1287 H1315 0.931 . S
C1288 O1302 1.259 . S
C1288 O1303 1.270 . S
C1289 O1304 1.251 . S
C1289 O1305 1.251 . S
C1290 Eu1291 2.835 . S
C1290 C1292 1.500 . S
C1290 O1306 1.257 . S
C1290 O1307 1.260 . S
Eu1291 C1290 2.835 . S
Eu1291 O1303 2.355 . S
Eu1291 O1305 2.374 . S
Eu1291 O1306 2.473 . S
Eu1291 O1307 2.480 . S
Eu1291 O1308 2.430 . S
Eu1291 O1309 2.670 . S
Eu1291 O1310 2.394 . S
C1292 C1290 1.500 . S
C1292 C1293 1.377 . S
C1292 C1297 1.377 . S
C1293 C1292 1.377 . S
C1293 C1294 1.395 . S
C1293 H1316 0.931 . S
C1294 C1293 1.395 . S
C1294 C1295 1.383 . S
C1294 H1317 0.931 . S
C1295 C1294 1.383 . S
C1295 C1296 1.394 . S
C1296 C1295 1.394 . S
C1296 C1297 1.378 . S
C1296 H1318 0.931 . S
C1297 C1292 1.377 . S
C1297 C1296 1.378 . S
C1297 H1319 0.931 . S
C1298 O1308 1.259 . S
C1298 O1309 1.270 . S
C1299 O1310 1.251 . S
C1299 O1311 1.251 . S
O1300 C1280 1.257 . S
O1300 Eu1281 2.473 . S
O1301 C1280 1.260 . S
O1301 Eu1281 2.480 . S
O1302 Eu1281 2.430 . S
O1302 C1288 1.259 . S
O1303 Eu1281 2.670 . S
O1303 C1288 1.270 . S
O1303 Eu1291 2.355 . S
O1304 Eu1281 2.394 . S
O1304 C1289 1.251 . S
O1305 C1289 1.251 . S
O1305 Eu1291 2.374 . S
O1306 C1290 1.257 . S
O1306 Eu1291 2.473 . S
O1307 C1290 1.260 . S
O1307 Eu1291 2.480 . S
O1308 Eu1291 2.430 . S
O1308 C1298 1.259 . S
O1309 Eu1281 2.355 . S
O1309 Eu1291 2.670 . S
O1309 C1298 1.270 . S
O1310 Eu1291 2.394 . S
O1310 C1299 1.251 . S
O1311 Eu1281 2.374 . S
O1311 C1299 1.251 . S
H1312 C1283 0.931 . S
H1313 C1284 0.931 . S
H1314 C1286 0.931 . S
H1315 C1287 0.931 . S
H1316 C1293 0.931 . S
H1317 C1294 0.931 . S
H1318 C1296 0.931 . S
H1319 C1297 0.931 . S
C1320 Eu1321 2.835 . S
C1320 C1322 1.500 . S
C1320 O1340 1.257 . S
C1320 O1341 1.260 . S
Eu1321 C1320 2.835 . S
Eu1321 O1340 2.473 . S
Eu1321 O1341 2.480 . S
Eu1321 O1342 2.430 . S
Eu1321 O1343 2.670 . S
Eu1321 O1344 2.394 . S
Eu1321 O1349 2.355 . S
Eu1321 O1351 2.374 . S
C1322 C1320 1.500 . S
C1322 C1323 1.377 . S
C1322 C1327 1.377 . S
C1323 C1322 1.377 . S
C1323 C1324 1.395 . S
C1323 H1352 0.931 . S
C1324 C1323 1.395 . S
C1324 C1325 1.383 . S
C1324 H1353 0.931 . S
C1325 C1324 1.383 . S
C1325 C1326 1.394 . S
C1326 C1325 1.394 . S
C1326 C1327 1.378 . S
C1326 H1354 0.931 . S
C1327 C1322 1.377 . S
C1327 C1326 1.378 . S
C1327 H1355 0.931 . S
C1328 O1342 1.259 . S
C1328 O1343 1.270 . S
C1329 O1344 1.251 . S
C1329 O1345 1.251 . S
C1330 Eu1331 2.835 . S
C1330 C1332 1.500 . S
C1330 O1346 1.257 . S
C1330 O1347 1.260 . S
Eu1331 C1330 2.835 . S
Eu1331 O1343 2.355 . S
Eu1331 O1345 2.374 . S
Eu1331 O1346 2.473 . S
Eu1331 O1347 2.480 . S
Eu1331 O1348 2.430 . S
Eu1331 O1349 2.670 . S
Eu1331 O1350 2.394 . S
C1332 C1330 1.500 . S
C1332 C1333 1.377 . S
C1332 C1337 1.377 . S
C1333 C1332 1.377 . S
C1333 C1334 1.395 . S
C1333 H1356 0.931 . S
C1334 C1333 1.395 . S
C1334 C1335 1.383 . S
C1334 H1357 0.931 . S
C1335 C1334 1.383 . S
C1335 C1336 1.394 . S
C1336 C1335 1.394 . S
C1336 C1337 1.378 . S
C1336 H1358 0.931 . S
C1337 C1332 1.377 . S
C1337 C1336 1.378 . S
C1337 H1359 0.931 . S
C1338 O1348 1.259 . S
C1338 O1349 1.270 . S
C1339 O1350 1.251 . S
C1339 O1351 1.251 . S
O1340 C1320 1.257 . S
O1340 Eu1321 2.473 . S
O1341 C1320 1.260 . S
O1341 Eu1321 2.480 . S
O1342 Eu1321 2.430 . S
O1342 C1328 1.259 . S
O1343 Eu1321 2.670 . S
O1343 C1328 1.270 . S
O1343 Eu1331 2.355 . S
O1344 Eu1321 2.394 . S
O1344 C1329 1.251 . S
O1345 C1329 1.251 . S
O1345 Eu1331 2.374 . S
O1346 C1330 1.257 . S
O1346 Eu1331 2.473 . S
O1347 C1330 1.260 . S
O1347 Eu1331 2.480 . S
O1348 Eu1331 2.430 . S
O1348 C1338 1.259 . S
O1349 Eu1321 2.355 . S
O1349 Eu1331 2.670 . S
O1349 C1338 1.270 . S
O1350 Eu1331 2.394 . S
O1350 C1339 1.251 . S
O1351 Eu1321 2.374 . S
O1351 C1339 1.251 . S
H1352 C1323 0.931 . S
H1353 C1324 0.931 . S
H1354 C1326 0.931 . S
H1355 C1327 0.931 . S
H1356 C1333 0.931 . S
H1357 C1334 0.931 . S
H1358 C1336 0.931 . S
H1359 C1337 0.931 . S
C1360 Eu1361 2.835 . S
C1360 C1362 1.500 . S
C1360 O1380 1.257 . S
C1360 O1381 1.260 . S
Eu1361 C1360 2.835 . S
Eu1361 O1380 2.473 . S
Eu1361 O1381 2.480 . S
Eu1361 O1382 2.430 . S
Eu1361 O1383 2.670 . S
Eu1361 O1384 2.394 . S
Eu1361 O1389 2.355 . S
Eu1361 O1391 2.374 . S
C1362 C1360 1.500 . S
C1362 C1363 1.377 . S
C1362 C1367 1.377 . S
C1363 C1362 1.377 . S
C1363 C1364 1.395 . S
C1363 H1392 0.931 . S
C1364 C1363 1.395 . S
C1364 C1365 1.383 . S
C1364 H1393 0.931 . S
C1365 C1364 1.383 . S
C1365 C1366 1.394 . S
C1366 C1365 1.394 . S
C1366 C1367 1.378 . S
C1366 H1394 0.931 . S
C1367 C1362 1.377 . S
C1367 C1366 1.378 . S
C1367 H1395 0.931 . S
C1368 O1382 1.259 . S
C1368 O1383 1.270 . S
C1369 O1384 1.251 . S
C1369 O1385 1.251 . S
C1370 Eu1371 2.835 . S
C1370 C1372 1.500 . S
C1370 O1386 1.257 . S
C1370 O1387 1.260 . S
Eu1371 C1370 2.835 . S
Eu1371 O1383 2.355 . S
Eu1371 O1385 2.374 . S
Eu1371 O1386 2.473 . S
Eu1371 O1387 2.480 . S
Eu1371 O1388 2.430 . S
Eu1371 O1389 2.670 . S
Eu1371 O1390 2.394 . S
C1372 C1370 1.500 . S
C1372 C1373 1.377 . S
C1372 C1377 1.377 . S
C1373 C1372 1.377 . S
C1373 C1374 1.395 . S
C1373 H1396 0.931 . S
C1374 C1373 1.395 . S
C1374 C1375 1.383 . S
C1374 H1397 0.931 . S
C1375 C1374 1.383 . S
C1375 C1376 1.394 . S
C1376 C1375 1.394 . S
C1376 C1377 1.378 . S
C1376 H1398 0.931 . S
C1377 C1372 1.377 . S
C1377 C1376 1.378 . S
C1377 H1399 0.931 . S
C1378 O1388 1.259 . S
C1378 O1389 1.270 . S
C1379 O1390 1.251 . S
C1379 O1391 1.251 . S
O1380 C1360 1.257 . S
O1380 Eu1361 2.473 . S
O1381 C1360 1.260 . S
O1381 Eu1361 2.480 . S
O1382 Eu1361 2.430 . S
O1382 C1368 1.259 . S
O1383 Eu1361 2.670 . S
O1383 C1368 1.270 . S
O1383 Eu1371 2.355 . S
O1384 Eu1361 2.394 . S
O1384 C1369 1.251 . S
O1385 C1369 1.251 . S
O1385 Eu1371 2.374 . S
O1386 C1370 1.257 . S
O1386 Eu1371 2.473 . S
O1387 C1370 1.260 . S
O1387 Eu1371 2.480 . S
O1388 Eu1371 2.430 . S
O1388 C1378 1.259 . S
O1389 Eu1361 2.355 . S
O1389 Eu1371 2.670 . S
O1389 C1378 1.270 . S
O1390 Eu1371 2.394 . S
O1390 C1379 1.251 . S
O1391 Eu1361 2.374 . S
O1391 C1379 1.251 . S
H1392 C1363 0.931 . S
H1393 C1364 0.931 . S
H1394 C1366 0.931 . S
H1395 C1367 0.931 . S
H1396 C1373 0.931 . S
H1397 C1374 0.931 . S
H1398 C1376 0.931 . S
H1399 C1377 0.931 . S
C1400 Eu1401 2.835 . S
C1400 C1402 1.500 . S
C1400 O1420 1.257 . S
C1400 O1421 1.260 . S
Eu1401 C1400 2.835 . S
Eu1401 O1420 2.473 . S
Eu1401 O1421 2.480 . S
Eu1401 O1422 2.430 . S
Eu1401 O1423 2.670 . S
Eu1401 O1424 2.394 . S
Eu1401 O1429 2.355 . S
Eu1401 O1431 2.374 . S
C1402 C1400 1.500 . S
C1402 C1403 1.377 . S
C1402 C1407 1.377 . S
C1403 C1402 1.377 . S
C1403 C1404 1.395 . S
C1403 H1432 0.931 . S
C1404 C1403 1.395 . S
C1404 C1405 1.383 . S
C1404 H1433 0.931 . S
C1405 C1404 1.383 . S
C1405 C1406 1.394 . S
C1406 C1405 1.394 . S
C1406 C1407 1.378 . S
C1406 H1434 0.931 . S
C1407 C1402 1.377 . S
C1407 C1406 1.378 . S
C1407 H1435 0.931 . S
C1408 O1422 1.259 . S
C1408 O1423 1.270 . S
C1409 O1424 1.251 . S
C1409 O1425 1.251 . S
C1410 Eu1411 2.835 . S
C1410 C1412 1.500 . S
C1410 O1426 1.257 . S
C1410 O1427 1.260 . S
Eu1411 C1410 2.835 . S
Eu1411 O1423 2.355 . S
Eu1411 O1425 2.374 . S
Eu1411 O1426 2.473 . S
Eu1411 O1427 2.480 . S
Eu1411 O1428 2.430 . S
Eu1411 O1429 2.670 . S
Eu1411 O1430 2.394 . S
C1412 C1410 1.500 . S
C1412 C1413 1.377 . S
C1412 C1417 1.377 . S
C1413 C1412 1.377 . S
C1413 C1414 1.395 . S
C1413 H1436 0.931 . S
C1414 C1413 1.395 . S
C1414 C1415 1.383 . S
C1414 H1437 0.931 . S
C1415 C1414 1.383 . S
C1415 C1416 1.394 . S
C1416 C1415 1.394 . S
C1416 C1417 1.378 . S
C1416 H1438 0.931 . S
C1417 C1412 1.377 . S
C1417 C1416 1.378 . S
C1417 H1439 0.931 . S
C1418 O1428 1.259 . S
C1418 O1429 1.270 . S
C1419 O1430 1.251 . S
C1419 O1431 1.251 . S
O1420 C1400 1.257 . S
O1420 Eu1401 2.473 . S
O1421 C1400 1.260 . S
O1421 Eu1401 2.480 . S
O1422 Eu1401 2.430 . S
O1422 C1408 1.259 . S
O1423 Eu1401 2.670 . S
O1423 C1408 1.270 . S
O1423 Eu1411 2.355 . S
O1424 Eu1401 2.394 . S
O1424 C1409 1.251 . S
O1425 C1409 1.251 . S
O1425 Eu1411 2.374 . S
O1426 C1410 1.257 . S
O1426 Eu1411 2.473 . S
O1427 C1410 1.260 . S
O1427 Eu1411 2.480 . S
O1428 Eu1411 2.430 . S
O1428 C1418 1.259 . S
O1429 Eu1401 2.355 . S
O1429 Eu1411 2.670 . S
O1429 C1418 1.270 . S
O1430 Eu1411 2.394 . S
O1430 C1419 1.251 . S
O1431 Eu1401 2.374 . S
O1431 C1419 1.251 . S
H1432 C1403 0.931 . S
H1433 C1404 0.931 . S
H1434 C1406 0.931 . S
H1435 C1407 0.931 . S
H1436 C1413 0.931 . S
H1437 C1414 0.931 . S
H1438 C1416 0.931 . S
H1439 C1417 0.931 . S
H1440 C1458 0.951 . S
H1441 C1460 0.951 . S
H1442 C1462 0.950 . S
H1443 C1463 0.950 . S
H1444 C1465 0.950 . S
H1445 C1468 0.950 . S
H1446 C1469 0.950 . S
H1447 C1471 0.950 . S
H1448 C1472 0.950 . S
H1449 C1473 0.951 . S
H1450 C1475 0.951 . S
H1451 C1477 0.950 . S
H1452 C1478 0.950 . S
H1453 C1480 0.950 . S
H1454 C1483 0.950 . S
H1455 C1484 0.950 . S
H1456 C1486 0.950 . S
H1457 C1487 0.950 . S
C1458 H1440 0.951 . S
C1458 C1459 1.366 . S
C1458 C1460 1.388 . S
C1459 C1458 1.366 . S
C1459 C1463 1.385 . S
C1460 H1441 0.951 . S
C1460 C1458 1.388 . S
C1460 C1461 1.366 . S
C1461 C1460 1.366 . S
C1461 C1462 1.414 . S
C1461 C1464 1.499 . S
C1462 H1442 0.950 . S
C1462 C1461 1.414 . S
C1462 C1463 1.374 . S
C1463 H1443 0.950 . S
C1463 C1459 1.385 . S
C1463 C1462 1.374 . S
C1464 C1461 1.499 . S
C1464 C1465 1.373 . S
C1464 C1466 1.389 . S
C1465 H1444 0.950 . S
C1465 C1464 1.373 . S
C1465 C1481 1.377 . S
C1466 C1464 1.389 . S
C1466 C1467 1.524 . S
C1466 C1480 1.377 . S
C1467 C1466 1.524 . S
C1467 C1468 1.397 . S
C1467 C1472 1.363 . S
C1468 H1445 0.950 . S
C1468 C1467 1.397 . S
C1468 C1469 1.334 . S
C1469 H1446 0.950 . S
C1469 C1468 1.334 . S
C1469 C1470 1.287 . S
C1470 C1469 1.287 . S
C1470 C1471 1.524 . S
C1470 H1489 0.913 . S
C1471 H1447 0.950 . S
C1471 C1470 1.524 . S
C1471 C1472 1.415 . S
C1472 H1448 0.950 . S
C1472 C1467 1.363 . S
C1472 C1471 1.415 . S
C1473 H1449 0.951 . S
C1473 C1474 1.366 . S
C1473 C1475 1.388 . S
C1474 C1473 1.366 . S
C1474 C1478 1.385 . S
C1475 H1450 0.951 . S
C1475 C1473 1.388 . S
C1475 C1476 1.366 . S
C1476 C1475 1.366 . S
C1476 C1477 1.414 . S
C1476 C1479 1.499 . S
C1477 H1451 0.950 . S
C1477 C1476 1.414 . S
C1477 C1478 1.374 . S
C1478 H1452 0.950 . S
C1478 C1474 1.385 . S
C1478 C1477 1.374 . S
C1479 C1476 1.499 . S
C1479 C1480 1.373 . S
C1479 C1481 1.389 . S
C1480 H1453 0.950 . S
C1480 C1466 1.377 . S
C1480 C1479 1.373 . S
C1481 C1465 1.377 . S
C1481 C1479 1.389 . S
C1481 C1482 1.524 . S
C1482 C1481 1.524 . S
C1482 C1483 1.397 . S
C1482 C1487 1.363 1_554 S
C1483 H1454 0.950 . S
C1483 C1482 1.397 . S
C1483 C1484 1.334 1_554 S
C1484 H1455 0.950 . S
C1484 C1483 1.334 1_556 S
C1484 C1485 1.287 . S
C1485 C1484 1.287 . S
C1485 C1486 1.524 . S
C1485 H1488 0.999 . S
C1486 H1456 0.950 . S
C1486 C1485 1.524 . S
C1486 C1487 1.415 . S
C1487 H1457 0.950 . S
C1487 C1482 1.363 1_556 S
C1487 C1486 1.415 . S
H1488 C1485 0.999 . S
H1489 C1470 0.913 . S
H1490 C1508 0.951 . S
H1491 C1510 0.951 . S
H1492 C1512 0.950 . S
H1493 C1513 0.950 . S
H1494 C1515 0.950 . S
H1495 C1518 0.950 . S
H1496 C1519 0.950 . S
H1497 C1521 0.950 . S
H1498 C1522 0.950 . S
H1499 C1523 0.951 . S
H1500 C1525 0.951 . S
H1501 C1527 0.950 . S
H1502 C1528 0.950 . S
H1503 C1530 0.950 . S
H1504 C1533 0.950 . S
H1505 C1534 0.950 . S
H1506 C1536 0.950 . S
H1507 C1537 0.950 . S
C1508 H1490 0.951 . S
C1508 C1509 1.366 . S
C1508 C1510 1.388 . S
C1509 C1508 1.366 . S
C1509 C1513 1.385 . S
C1510 H1491 0.951 . S
C1510 C1508 1.388 . S
C1510 C1511 1.366 . S
C1511 C1510 1.366 . S
C1511 C1512 1.414 . S
C1511 C1514 1.499 . S
C1512 H1492 0.950 . S
C1512 C1511 1.414 . S
C1512 C1513 1.374 . S
C1513 H1493 0.950 . S
C1513 C1509 1.385 . S
C1513 C1512 1.374 . S
C1514 C1511 1.499 . S
C1514 C1515 1.373 . S
C1514 C1516 1.389 . S
C1515 H1494 0.950 . S
C1515 C1514 1.373 . S
C1515 C1531 1.377 . S
C1516 C1514 1.389 . S
C1516 C1517 1.524 . S
C1516 C1530 1.377 . S
C1517 C1516 1.524 . S
C1517 C1518 1.397 . S
C1517 C1522 1.363 . S
C1518 H1495 0.950 . S
C1518 C1517 1.397 . S
C1518 C1519 1.334 . S
C1519 H1496 0.950 . S
C1519 C1518 1.334 . S
C1519 C1520 1.287 . S
C1520 C1519 1.287 . S
C1520 C1521 1.524 . S
C1520 H1539 0.913 . S
C1521 H1497 0.950 . S
C1521 C1520 1.524 . S
C1521 C1522 1.415 . S
C1522 H1498 0.950 . S
C1522 C1517 1.363 . S
C1522 C1521 1.415 . S
C1523 H1499 0.951 . S
C1523 C1524 1.366 . S
C1523 C1525 1.388 . S
C1524 C1523 1.366 . S
C1524 C1528 1.385 . S
C1525 H1500 0.951 . S
C1525 C1523 1.388 . S
C1525 C1526 1.366 . S
C1526 C1525 1.366 . S
C1526 C1527 1.414 . S
C1526 C1529 1.499 . S
C1527 H1501 0.950 . S
C1527 C1526 1.414 . S
C1527 C1528 1.374 . S
C1528 H1502 0.950 . S
C1528 C1524 1.385 . S
C1528 C1527 1.374 . S
C1529 C1526 1.499 . S
C1529 C1530 1.373 . S
C1529 C1531 1.389 . S
C1530 H1503 0.950 . S
C1530 C1516 1.377 . S
C1530 C1529 1.373 . S
C1531 C1515 1.377 . S
C1531 C1529 1.389 . S
C1531 C1532 1.524 . S
C1532 C1531 1.524 . S
C1532 C1533 1.397 . S
C1532 C1537 1.363 . S
C1533 H1504 0.950 . S
C1533 C1532 1.397 . S
C1533 C1534 1.334 1_554 S
C1534 H1505 0.950 . S
C1534 C1533 1.334 1_556 S
C1534 C1535 1.287 . S
C1535 C1534 1.287 . S
C1535 C1536 1.524 . S
C1535 H1538 0.999 . S
C1536 H1506 0.950 . S
C1536 C1535 1.524 . S
C1536 C1537 1.415 1_556 S
C1537 H1507 0.950 . S
C1537 C1532 1.363 . S
C1537 C1536 1.415 1_554 S
H1538 C1535 0.999 . S
H1539 C1520 0.913 . S
H1540 C1558 0.951 . S
H1541 C1560 0.951 . S
H1542 C1562 0.950 . S
H1543 C1563 0.950 . S
H1544 C1565 0.950 . S
H1545 C1568 0.950 . S
H1546 C1569 0.950 . S
H1547 C1571 0.950 . S
H1548 C1572 0.950 . S
H1549 C1573 0.951 1_556 S
H1550 C1575 0.951 1_556 S
H1551 C1577 0.950 . S
H1552 C1578 0.950 . S
H1553 C1580 0.950 . S
H1554 C1583 0.950 1_554 S
H1555 C1584 0.950 . S
H1556 C1586 0.950 . S
H1557 C1587 0.950 . S
C1558 H1540 0.951 . S
C1558 C1559 1.366 . S
C1558 C1560 1.388 . S
C1559 C1558 1.366 . S
C1559 C1563 1.385 . S
C1560 H1541 0.951 . S
C1560 C1558 1.388 . S
C1560 C1561 1.366 . S
C1561 C1560 1.366 . S
C1561 C1562 1.414 . S
C1561 C1564 1.499 . S
C1562 H1542 0.950 . S
C1562 C1561 1.414 . S
C1562 C1563 1.374 . S
C1563 H1543 0.950 . S
C1563 C1559 1.385 . S
C1563 C1562 1.374 . S
C1564 C1561 1.499 . S
C1564 C1565 1.373 . S
C1564 C1566 1.389 . S
C1565 H1544 0.950 . S
C1565 C1564 1.373 . S
C1565 C1581 1.377 . S
C1566 C1564 1.389 . S
C1566 C1567 1.524 . S
C1566 C1580 1.377 . S
C1567 C1566 1.524 . S
C1567 C1568 1.397 . S
C1567 C1572 1.363 . S
C1568 H1545 0.950 . S
C1568 C1567 1.397 . S
C1568 C1569 1.334 . S
C1569 H1546 0.950 . S
C1569 C1568 1.334 . S
C1569 C1570 1.287 . S
C1570 C1569 1.287 . S
C1570 C1571 1.524 . S
C1570 H1589 0.913 . S
C1571 H1547 0.950 . S
C1571 C1570 1.524 . S
C1571 C1572 1.415 . S
C1572 H1548 0.950 . S
C1572 C1567 1.363 . S
C1572 C1571 1.415 . S
C1573 H1549 0.951 1_554 S
C1573 C1574 1.366 . S
C1573 C1575 1.388 . S
C1574 C1573 1.366 . S
C1574 C1578 1.385 . S
C1575 H1550 0.951 1_554 S
C1575 C1573 1.388 . S
C1575 C1576 1.366 . S
C1576 C1575 1.366 . S
C1576 C1577 1.414 . S
C1576 C1579 1.499 . S
C1577 H1551 0.950 . S
C1577 C1576 1.414 . S
C1577 C1578 1.374 . S
C1578 H1552 0.950 . S
C1578 C1574 1.385 . S
C1578 C1577 1.374 . S
C1579 C1576 1.499 . S
C1579 C1580 1.373 . S
C1579 C1581 1.389 . S
C1580 H1553 0.950 . S
C1580 C1566 1.377 . S
C1580 C1579 1.373 . S
C1581 C1565 1.377 . S
C1581 C1579 1.389 . S
C1581 C1582 1.524 1_554 S
C1582 C1581 1.524 1_556 S
C1582 C1583 1.397 . S
C1582 C1587 1.363 . S
C1583 H1554 0.950 1_556 S
C1583 C1582 1.397 . S
C1583 C1584 1.334 . S
C1584 H1555 0.950 . S
C1584 C1583 1.334 . S
C1584 C1585 1.287 . S
C1585 C1584 1.287 . S
C1585 C1586 1.524 . S
C1585 H1588 0.999 . S
C1586 H1556 0.950 . S
C1586 C1585 1.524 . S
C1586 C1587 1.415 . S
C1587 H1557 0.950 . S
C1587 C1582 1.363 . S
C1587 C1586 1.415 . S
H1588 C1585 0.999 . S
H1589 C1570 0.913 . S
H1590 C1608 0.951 . S
H1591 C1610 0.951 . S
H1592 C1612 0.950 . S
H1593 C1613 0.950 . S
H1594 C1615 0.950 . S
H1595 C1618 0.950 . S
H1596 C1619 0.950 . S
H1597 C1621 0.950 . S
H1598 C1622 0.950 . S
H1599 C1623 0.951 . S
H1600 C1625 0.951 . S
H1601 C1627 0.950 . S
H1602 C1628 0.950 1_554 S
H1603 C1630 0.950 . S
H1604 C1633 0.950 . S
H1605 C1634 0.948 1_554 S
H1606 C1636 0.950 . S
H1607 C1637 0.950 . S
C1608 H1590 0.951 . S
C1608 C1609 1.366 . S
C1608 C1610 1.388 . S
C1609 C1608 1.366 . S
C1609 C1613 1.385 . S
C1610 H1591 0.951 . S
C1610 C1608 1.388 . S
C1610 C1611 1.366 . S
C1611 C1610 1.366 . S
C1611 C1612 1.414 . S
C1611 C1614 1.499 . S
C1612 H1592 0.950 . S
C1612 C1611 1.414 . S
C1612 C1613 1.374 . S
C1613 H1593 0.950 . S
C1613 C1609 1.385 . S
C1613 C1612 1.374 . S
C1614 C1611 1.499 . S
C1614 C1615 1.373 . S
C1614 C1616 1.389 . S
C1615 H1594 0.950 . S
C1615 C1614 1.373 . S
C1615 C1631 1.377 . S
C1616 C1614 1.389 . S
C1616 C1617 1.524 . S
C1616 C1630 1.377 . S
C1617 C1616 1.524 . S
C1617 C1618 1.397 . S
C1617 C1622 1.363 . S
C1618 H1595 0.950 . S
C1618 C1617 1.397 . S
C1618 C1619 1.334 . S
C1619 H1596 0.950 . S
C1619 C1618 1.334 . S
C1619 C1620 1.287 . S
C1620 C1619 1.287 . S
C1620 C1621 1.524 . S
C1620 H1639 0.913 . S
C1621 H1597 0.950 . S
C1621 C1620 1.524 . S
C1621 C1622 1.415 . S
C1622 H1598 0.950 . S
C1622 C1617 1.363 . S
C1622 C1621 1.415 . S
C1623 H1599 0.951 . S
C1623 C1624 1.366 . S
C1623 C1625 1.388 . S
C1624 C1623 1.366 . S
C1624 C1628 1.385 . S
C1625 H1600 0.951 . S
C1625 C1623 1.388 . S
C1625 C1626 1.366 . S
C1626 C1625 1.366 . S
C1626 C1627 1.414 . S
C1626 C1629 1.499 . S
C1627 H1601 0.950 . S
C1627 C1626 1.414 . S
C1627 C1628 1.374 . S
C1628 H1602 0.950 1_556 S
C1628 C1624 1.385 . S
C1628 C1627 1.374 . S
C1629 C1626 1.499 . S
C1629 C1630 1.373 . S
C1629 C1631 1.389 . S
C1630 H1603 0.950 . S
C1630 C1616 1.377 . S
C1630 C1629 1.373 . S
C1631 C1615 1.377 . S
C1631 C1629 1.389 . S
C1631 C1632 1.524 . S
C1632 C1631 1.524 . S
C1632 C1633 1.397 . S
C1632 C1637 1.363 . S
C1633 H1604 0.950 . S
C1633 C1632 1.397 . S
C1633 C1634 1.334 . S
C1634 H1605 0.948 1_556 S
C1634 C1633 1.334 . S
C1634 C1635 1.287 . S
C1635 C1634 1.287 . S
C1635 C1636 1.524 . S
C1635 H1638 0.999 1_655 S
C1636 H1606 0.950 . S
C1636 C1635 1.524 . S
C1636 C1637 1.415 . S
C1637 H1607 0.950 . S
C1637 C1632 1.363 . S
C1637 C1636 1.415 . S
H1638 C1635 0.999 1_455 S
H1639 C1620 0.913 . S
H1640 C1658 0.951 . S
H1641 C1660 0.951 . S
H1642 C1662 0.950 . S
H1643 C1663 0.950 . S
H1644 C1665 0.950 . S
H1645 C1668 0.950 . S
H1646 C1669 0.950 . S
H1647 C1671 0.950 . S
H1648 C1672 0.950 . S
H1649 C1673 0.951 . S
H1650 C1675 0.951 . S
H1651 C1677 0.950 . S
H1652 C1678 0.950 . S
H1653 C1680 0.950 . S
H1654 C1683 0.950 . S
H1655 C1684 0.955 . S
H1656 C1686 0.950 . S
H1657 C1687 0.950 . S
C1658 H1640 0.951 . S
C1658 C1659 1.366 . S
C1658 C1660 1.388 . S
C1659 C1658 1.366 . S
C1659 C1663 1.385 . S
C1660 H1641 0.951 . S
C1660 C1658 1.388 . S
C1660 C1661 1.366 . S
C1661 C1660 1.366 . S
C1661 C1662 1.414 . S
C1661 C1664 1.499 . S
C1662 H1642 0.950 . S
C1662 C1661 1.414 . S
C1662 C1663 1.374 . S
C1663 H1643 0.950 . S
C1663 C1659 1.385 . S
C1663 C1662 1.374 . S
C1664 C1661 1.499 . S
C1664 C1665 1.373 . S
C1664 C1666 1.389 . S
C1665 H1644 0.950 . S
C1665 C1664 1.373 . S
C1665 C1681 1.377 . S
C1666 C1664 1.389 . S
C1666 C1667 1.524 . S
C1666 C1680 1.377 . S
C1667 C1666 1.524 . S
C1667 C1668 1.397 . S
C1667 C1672 1.363 . S
C1668 H1645 0.950 . S
C1668 C1667 1.397 . S
C1668 C1669 1.334 . S
C1669 H1646 0.950 . S
C1669 C1668 1.334 . S
C1669 C1670 1.287 . S
C1670 C1669 1.287 . S
C1670 C1671 1.524 . S
C1670 H1689 0.913 . S
C1671 H1647 0.950 . S
C1671 C1670 1.524 . S
C1671 C1672 1.415 . S
C1672 H1648 0.950 . S
C1672 C1667 1.363 . S
C1672 C1671 1.415 . S
C1673 H1649 0.951 . S
C1673 C1674 1.366 . S
C1673 C1675 1.388 . S
C1674 C1673 1.366 . S
C1674 C1678 1.385 . S
C1675 H1650 0.951 . S
C1675 C1673 1.388 . S
C1675 C1676 1.366 . S
C1676 C1675 1.366 . S
C1676 C1677 1.414 . S
C1676 C1679 1.499 . S
C1677 H1651 0.950 . S
C1677 C1676 1.414 . S
C1677 C1678 1.374 . S
C1678 H1652 0.950 . S
C1678 C1674 1.385 . S
C1678 C1677 1.374 . S
C1679 C1676 1.499 . S
C1679 C1680 1.373 . S
C1679 C1681 1.389 . S
C1680 H1653 0.950 . S
C1680 C1666 1.377 . S
C1680 C1679 1.373 . S
C1681 C1665 1.377 . S
C1681 C1679 1.389 . S
C1681 C1682 1.524 . S
C1682 C1681 1.524 . S
C1682 C1683 1.397 . S
C1682 C1687 1.363 . S
C1683 H1654 0.950 . S
C1683 C1682 1.397 . S
C1683 C1684 1.316 1_556 S
C1684 H1655 0.955 . S
C1684 C1683 1.316 1_554 S
C1684 C1685 1.300 . S
C1685 C1684 1.300 . S
C1685 C1686 1.524 . S
C1685 H1688 0.999 . S
C1686 H1656 0.950 . S
C1686 C1685 1.524 . S
C1686 C1687 1.415 1_554 S
C1687 H1657 0.950 . S
C1687 C1682 1.363 . S
C1687 C1686 1.415 1_556 S
H1688 C1685 0.999 . S
H1689 C1670 0.913 . S
H1690 C1708 0.951 . S
H1691 C1710 0.951 . S
H1692 C1712 0.950 . S
H1693 C1713 0.950 . S
H1694 C1715 0.950 . S
H1695 C1718 0.950 . S
H1696 C1719 0.950 . S
H1697 C1721 0.950 . S
H1698 C1722 0.950 . S
H1699 C1723 0.951 . S
H1700 C1725 0.951 . S
H1701 C1727 0.950 1_554 S
H1702 C1728 0.950 . S
H1703 C1730 0.950 . S
H1704 C1733 0.950 . S
H1705 C1734 0.950 . S
H1706 C1736 0.950 . S
H1707 C1737 0.950 . S
C1708 H1690 0.951 . S
C1708 C1709 1.366 . S
C1708 C1710 1.388 . S
C1709 C1708 1.366 . S
C1709 C1713 1.385 . S
C1710 H1691 0.951 . S
C1710 C1708 1.388 . S
C1710 C1711 1.366 . S
C1711 C1710 1.366 . S
C1711 C1712 1.414 . S
C1711 C1714 1.499 . S
C1712 H1692 0.950 . S
C1712 C1711 1.414 . S
C1712 C1713 1.374 . S
C1713 H1693 0.950 . S
C1713 C1709 1.385 . S
C1713 C1712 1.374 . S
C1714 C1711 1.499 . S
C1714 C1715 1.373 . S
C1714 C1716 1.389 . S
C1715 H1694 0.950 . S
C1715 C1714 1.373 . S
C1715 C1731 1.377 . S
C1716 C1714 1.389 . S
C1716 C1717 1.524 . S
C1716 C1730 1.377 . S
C1717 C1716 1.524 . S
C1717 C1718 1.397 . S
C1717 C1722 1.363 1_556 S
C1718 H1695 0.950 . S
C1718 C1717 1.397 . S
C1718 C1719 1.334 . S
C1719 H1696 0.950 . S
C1719 C1718 1.334 . S
C1719 C1720 1.287 1_556 S
C1720 C1719 1.287 1_554 S
C1720 C1721 1.524 . S
C1720 H1739 0.913 . S
C1721 H1697 0.950 . S
C1721 C1720 1.524 . S
C1721 C1722 1.415 . S
C1722 H1698 0.950 . S
C1722 C1717 1.363 1_554 S
C1722 C1721 1.415 . S
C1723 H1699 0.951 . S
C1723 C1724 1.366 . S
C1723 C1725 1.388 . S
C1724 C1723 1.366 . S
C1724 C1728 1.385 1_556 S
C1725 H1700 0.951 . S
C1725 C1723 1.388 . S
C1725 C1726 1.366 . S
C1726 C1725 1.366 . S
C1726 C1727 1.414 . S
C1726 C1729 1.499 . S
C1727 H1701 0.950 1_556 S
C1727 C1726 1.414 . S
C1727 C1728 1.374 1_556 S
C1728 H1702 0.950 . S
C1728 C1724 1.385 1_554 S
C1728 C1727 1.374 1_554 S
C1729 C1726 1.499 . S
C1729 C1730 1.373 . S
C1729 C1731 1.389 . S
C1730 H1703 0.950 . S
C1730 C1716 1.377 . S
C1730 C1729 1.373 . S
C1731 C1715 1.377 . S
C1731 C1729 1.389 . S
C1731 C1732 1.524 . S
C1732 C1731 1.524 . S
C1732 C1733 1.397 . S
C1732 C1737 1.363 . S
C1733 H1704 0.950 . S
C1733 C1732 1.397 . S
C1733 C1734 1.334 1_545 S
C1734 H1705 0.950 . S
C1734 C1733 1.334 1_565 S
C1734 C1735 1.287 . S
C1735 C1734 1.287 . S
C1735 C1736 1.524 1_565 S
C1735 H1738 0.999 . S
C1736 H1706 0.950 . S
C1736 C1735 1.524 1_545 S
C1736 C1737 1.415 . S
C1737 H1707 0.950 . S
C1737 C1732 1.363 . S
C1737 C1736 1.415 . S
H1738 C1735 0.999 . S
H1739 C1720 0.913 . S
H1740 C1758 0.951 . S
H1741 C1760 0.951 . S
H1742 C1762 0.950 . S
H1743 C1763 0.950 . S
H1744 C1765 0.950 . S
H1745 C1768 0.950 . S
H1746 C1769 0.950 . S
H1747 C1771 0.950 . S
H1748 C1772 0.949 1_554 S
H1749 C1773 0.951 . S
H1750 C1775 0.951 . S
H1751 C1777 0.950 . S
H1752 C1778 0.950 . S
H1753 C1780 0.950 . S
H1754 C1783 0.950 . S
H1755 C1784 0.950 . S
H1756 C1786 0.950 . S
H1757 C1787 0.950 . S
C1758 H1740 0.951 . S
C1758 C1759 1.366 . S
C1758 C1760 1.388 . S
C1759 C1758 1.366 . S
C1759 C1763 1.385 . S
C1760 H1741 0.951 . S
C1760 C1758 1.388 . S
C1760 C1761 1.366 . S
C1761 C1760 1.366 . S
C1761 C1762 1.414 . S
C1761 C1764 1.499 . S
C1762 H1742 0.950 . S
C1762 C1761 1.414 . S
C1762 C1763 1.374 . S
C1763 H1743 0.950 . S
C1763 C1759 1.385 . S
C1763 C1762 1.374 . S
C1764 C1761 1.499 . S
C1764 C1765 1.373 . S
C1764 C1766 1.389 . S
C1765 H1744 0.950 . S
C1765 C1764 1.373 . S
C1765 C1781 1.377 . S
C1766 C1764 1.389 . S
C1766 C1767 1.524 . S
C1766 C1780 1.377 . S
C1767 C1766 1.524 . S
C1767 C1768 1.397 . S
C1767 C1772 1.367 . S
C1768 H1745 0.950 . S
C1768 C1767 1.397 . S
C1768 C1769 1.334 . S
C1769 H1746 0.950 . S
C1769 C1768 1.334 . S
C1769 C1770 1.287 1_556 S
C1770 C1769 1.287 1_554 S
C1770 C1771 1.524 . S
C1770 H1789 0.913 . S
C1771 H1747 0.950 . S
C1771 C1770 1.524 . S
C1771 C1772 1.411 1_554 S
C1772 H1748 0.949 1_556 S
C1772 C1767 1.367 . S
C1772 C1771 1.411 1_556 S
C1773 H1749 0.951 . S
C1773 C1774 1.366 . S
C1773 C1775 1.388 . S
C1774 C1773 1.366 . S
C1774 C1778 1.385 . S
C1775 H1750 0.951 . S
C1775 C1773 1.388 . S
C1775 C1776 1.366 . S
C1776 C1775 1.366 . S
C1776 C1777 1.414 . S
C1776 C1779 1.499 . S
C1777 H1751 0.950 . S
C1777 C1776 1.414 . S
C1777 C1778 1.374 . S
C1778 H1752 0.950 . S
C1778 C1774 1.385 . S
C1778 C1777 1.374 . S
C1779 C1776 1.499 . S
C1779 C1780 1.373 . S
C1779 C1781 1.389 . S
C1780 H1753 0.950 . S
C1780 C1766 1.377 . S
C1780 C1779 1.373 . S
C1781 C1765 1.377 . S
C1781 C1779 1.389 . S
C1781 C1782 1.524 . S
C1782 C1781 1.524 . S
C1782 C1783 1.397 . S
C1782 C1787 1.363 . S
C1783 H1754 0.950 . S
C1783 C1782 1.397 . S
C1783 C1784 1.334 . S
C1784 H1755 0.950 . S
C1784 C1783 1.334 . S
C1784 C1785 1.287 . S
C1785 C1784 1.287 . S
C1785 C1786 1.524 . S
C1785 H1788 0.999 . S
C1786 H1756 0.950 . S
C1786 C1785 1.524 . S
C1786 C1787 1.415 . S
C1787 H1757 0.950 . S
C1787 C1782 1.363 . S
C1787 C1786 1.415 . S
H1788 C1785 0.999 . S
H1789 C1770 0.913 . S
H1790 C1808 0.951 . S
H1791 C1810 0.951 . S
H1792 C1812 0.950 . S
H1793 C1813 0.950 . S
H1794 C1815 0.950 . S
H1795 C1818 0.950 . S
H1796 C1819 0.950 . S
H1797 C1821 0.950 . S
H1798 C1822 0.950 . S
H1799 C1823 1.037 . S
H1800 C1825 0.951 . S
H1801 C1827 0.950 . S
H1802 C1828 0.950 . S
H1803 C1830 0.950 . S
H1804 C1833 0.950 . S
H1805 C1834 0.950 . S
H1806 C1836 0.950 . S
H1807 C1837 0.950 . S
C1808 H1790 0.951 . S
C1808 C1809 1.366 . S
C1808 C1810 1.388 . S
C1809 C1808 1.366 . S
C1809 C1813 1.385 . S
C1810 H1791 0.951 . S
C1810 C1808 1.388 . S
C1810 C1811 1.366 . S
C1811 C1810 1.366 . S
C1811 C1812 1.414 . S
C1811 C1814 1.499 . S
C1812 H1792 0.950 . S
C1812 C1811 1.414 . S
C1812 C1813 1.374 . S
C1813 H1793 0.950 . S
C1813 C1809 1.385 . S
C1813 C1812 1.374 . S
C1814 C1811 1.499 . S
C1814 C1815 1.373 . S
C1814 C1816 1.389 . S
C1815 H1794 0.950 . S
C1815 C1814 1.373 . S
C1815 C1831 1.377 . S
C1816 C1814 1.389 . S
C1816 C1817 1.524 . S
C1816 C1830 1.377 . S
C1817 C1816 1.524 . S
C1817 C1818 1.397 . S
C1817 C1822 1.363 . S
C1818 H1795 0.950 . S
C1818 C1817 1.397 . S
C1818 C1819 1.334 . S
C1819 H1796 0.950 . S
C1819 C1818 1.334 . S
C1819 C1820 1.287 . S
C1820 C1819 1.287 . S
C1820 C1821 1.524 . S
C1820 H1839 0.913 . S
C1821 H1797 0.950 . S
C1821 C1820 1.524 . S
C1821 C1822 1.415 . S
C1822 H1798 0.950 . S
C1822 C1817 1.363 . S
C1822 C1821 1.415 . S
C1823 H1799 1.037 . S
C1823 C1824 1.366 . S
C1823 C1825 1.388 . S
C1824 C1823 1.366 . S
C1824 C1828 1.385 . S
C1825 H1800 0.951 . S
C1825 C1823 1.388 . S
C1825 C1826 1.366 . S
C1826 C1825 1.366 . S
C1826 C1827 1.414 . S
C1826 C1829 1.499 . S
C1827 H1801 0.950 . S
C1827 C1826 1.414 . S
C1827 C1828 1.374 . S
C1828 H1802 0.950 . S
C1828 C1824 1.385 . S
C1828 C1827 1.374 . S
C1829 C1826 1.499 . S
C1829 C1830 1.373 . S
C1829 C1831 1.389 . S
C1830 H1803 0.950 . S
C1830 C1816 1.377 . S
C1830 C1829 1.373 . S
C1831 C1815 1.377 . S
C1831 C1829 1.389 . S
C1831 C1832 1.524 . S
C1832 C1831 1.524 . S
C1832 C1833 1.397 . S
C1832 C1837 1.363 . S
C1833 H1804 0.950 . S
C1833 C1832 1.397 . S
C1833 C1834 1.334 . S
C1834 H1805 0.950 . S
C1834 C1833 1.334 . S
C1834 C1835 1.287 . S
C1835 C1834 1.287 . S
C1835 C1836 1.524 1_556 S
C1835 H1838 0.999 1_556 S
C1836 H1806 0.950 . S
C1836 C1835 1.524 1_554 S
C1836 C1837 1.415 1_554 S
C1837 H1807 0.950 . S
C1837 C1832 1.363 . S
C1837 C1836 1.415 1_556 S
H1838 C1835 0.999 1_554 S
H1839 C1820 0.913 . S
H1840 C1858 0.951 . S
H1841 C1860 0.951 . S
H1842 C1862 0.950 . S
H1843 C1863 0.950 . S
H1844 C1865 0.950 . S
H1845 C1868 0.950 . S
H1846 C1869 0.950 . S
H1847 C1871 0.950 . S
H1848 C1872 0.950 . S
H1849 C1873 0.914 1_554 S
H1850 C1875 0.951 . S
H1851 C1877 0.950 . S
H1852 C1878 0.950 . S
H1853 C1880 0.950 . S
H1854 C1883 0.950 . S
H1855 C1884 0.950 . S
H1856 C1886 0.950 . S
H1857 C1887 0.950 . S
C1858 H1840 0.951 . S
C1858 C1859 1.366 . S
C1858 C1860 1.388 . S
C1859 C1858 1.366 . S
C1859 C1863 1.385 . S
C1860 H1841 0.951 . S
C1860 C1858 1.388 . S
C1860 C1861 1.366 . S
C1861 C1860 1.366 . S
C1861 C1862 1.414 . S
C1861 C1864 1.499 . S
C1862 H1842 0.950 . S
C1862 C1861 1.414 . S
C1862 C1863 1.374 . S
C1863 H1843 0.950 . S
C1863 C1859 1.385 . S
C1863 C1862 1.374 . S
C1864 C1861 1.499 . S
C1864 C1865 1.373 . S
C1864 C1866 1.389 . S
C1865 H1844 0.950 . S
C1865 C1864 1.373 . S
C1865 C1881 1.377 . S
C1866 C1864 1.389 . S
C1866 C1867 1.524 . S
C1866 C1880 1.377 . S
C1867 C1866 1.524 . S
C1867 C1868 1.397 . S
C1867 C1872 1.363 . S
C1868 H1845 0.950 . S
C1868 C1867 1.397 . S
C1868 C1869 1.334 . S
C1869 H1846 0.950 . S
C1869 C1868 1.334 . S
C1869 C1870 1.287 . S
C1870 C1869 1.287 . S
C1870 C1871 1.524 . S
C1870 H1889 0.913 . S
C1871 H1847 0.950 . S
C1871 C1870 1.524 . S
C1871 C1872 1.415 . S
C1872 H1848 0.950 . S
C1872 C1867 1.363 . S
C1872 C1871 1.415 . S
C1873 H1849 0.914 1_556 S
C1873 C1874 1.366 . S
C1873 C1875 1.388 . S
C1874 C1873 1.366 . S
C1874 C1878 1.385 . S
C1875 H1850 0.951 . S
C1875 C1873 1.388 . S
C1875 C1876 1.366 . S
C1876 C1875 1.366 . S
C1876 C1877 1.414 . S
C1876 C1879 1.499 . S
C1877 H1851 0.950 . S
C1877 C1876 1.414 . S
C1877 C1878 1.374 . S
C1878 H1852 0.950 . S
C1878 C1874 1.385 . S
C1878 C1877 1.374 . S
C1879 C1876 1.499 . S
C1879 C1880 1.373 . S
C1879 C1881 1.389 . S
C1880 H1853 0.950 . S
C1880 C1866 1.377 . S
C1880 C1879 1.373 . S
C1881 C1865 1.377 . S
C1881 C1879 1.389 . S
C1881 C1882 1.524 1_556 S
C1882 C1881 1.524 1_554 S
C1882 C1883 1.397 . S
C1882 C1887 1.363 . S
C1883 H1854 0.950 . S
C1883 C1882 1.397 . S
C1883 C1884 1.334 . S
C1884 H1855 0.950 . S
C1884 C1883 1.334 . S
C1884 C1885 1.287 . S
C1885 C1884 1.287 . S
C1885 C1886 1.524 . S
C1885 H1888 0.999 . S
C1886 H1856 0.950 . S
C1886 C1885 1.524 . S
C1886 C1887 1.415 . S
C1887 H1857 0.950 . S
C1887 C1882 1.363 . S
C1887 C1886 1.415 . S
H1888 C1885 0.999 . S
H1889 C1870 0.913 . S
H1890 C1908 0.951 . S
H1891 C1910 0.951 . S
H1892 C1912 0.950 . S
H1893 C1913 0.950 . S
H1894 C1915 0.950 . S
H1895 C1918 0.950 . S
H1896 C1919 0.950 . S
H1897 C1921 0.950 . S
H1898 C1922 0.966 . S
H1899 C1923 0.951 . S
H1900 C1925 0.951 . S
H1901 C1927 0.950 . S
H1902 C1928 0.950 . S
H1903 C1930 0.950 . S
H1904 C1933 0.950 . S
H1905 C1934 0.950 . S
H1906 C1936 0.950 . S
H1907 C1937 0.950 . S
C1908 H1890 0.951 . S
C1908 C1909 1.366 . S
C1908 C1910 1.388 . S
C1909 C1908 1.366 . S
C1909 C1913 1.385 . S
C1910 H1891 0.951 . S
C1910 C1908 1.388 . S
C1910 C1911 1.366 . S
C1911 C1910 1.366 . S
C1911 C1912 1.414 . S
C1911 C1914 1.499 . S
C1912 H1892 0.950 . S
C1912 C1911 1.414 . S
C1912 C1913 1.374 . S
C1913 H1893 0.950 . S
C1913 C1909 1.385 . S
C1913 C1912 1.374 . S
C1914 C1911 1.499 . S
C1914 C1915 1.373 . S
C1914 C1916 1.389 . S
C1915 H1894 0.950 . S
C1915 C1914 1.373 . S
C1915 C1931 1.377 . S
C1916 C1914 1.389 . S
C1916 C1917 1.524 . S
C1916 C1930 1.377 . S
C1917 C1916 1.524 . S
C1917 C1918 1.397 . S
C1917 C1922 1.363 1_554 S
C1918 H1895 0.950 . S
C1918 C1917 1.397 . S
C1918 C1919 1.334 1_554 S
C1919 H1896 0.950 . S
C1919 C1918 1.334 1_556 S
C1919 C1920 1.287 . S
C1920 C1919 1.287 . S
C1920 C1921 1.524 . S
C1920 H1939 0.913 . S
C1921 H1897 0.950 . S
C1921 C1920 1.524 . S
C1921 C1922 1.415 . S
C1922 H1898 0.966 . S
C1922 C1917 1.363 1_556 S
C1922 C1921 1.415 . S
C1923 H1899 0.951 . S
C1923 C1924 1.366 . S
C1923 C1925 1.388 . S
C1924 C1923 1.366 . S
C1924 C1928 1.385 . S
C1925 H1900 0.951 . S
C1925 C1923 1.388 . S
C1925 C1926 1.366 . S
C1926 C1925 1.366 . S
C1926 C1927 1.414 . S
C1926 C1929 1.499 . S
C1927 H1901 0.950 . S
C1927 C1926 1.414 . S
C1927 C1928 1.374 . S
C1928 H1902 0.950 . S
C1928 C1924 1.385 . S
C1928 C1927 1.374 . S
C1929 C1926 1.499 . S
C1929 C1930 1.373 . S
C1929 C1931 1.389 . S
C1930 H1903 0.950 . S
C1930 C1916 1.377 . S
C1930 C1929 1.373 . S
C1931 C1915 1.377 . S
C1931 C1929 1.389 . S
C1931 C1932 1.524 . S
C1932 C1931 1.524 . S
C1932 C1933 1.397 . S
C1932 C1937 1.363 . S
C1933 H1904 0.950 . S
C1933 C1932 1.397 . S
C1933 C1934 1.334 . S
C1934 H1905 0.950 . S
C1934 C1933 1.334 . S
C1934 C1935 1.287 . S
C1935 C1934 1.287 . S
C1935 C1936 1.524 . S
C1935 H1938 0.999 . S
C1936 H1906 0.950 . S
C1936 C1935 1.524 . S
C1936 C1937 1.415 . S
C1937 H1907 0.950 . S
C1937 C1932 1.363 . S
C1937 C1936 1.415 . S
H1938 C1935 0.999 . S
H1939 C1920 0.913 . S
H1940 C1958 0.951 . S
H1941 C1960 0.951 . S
H1942 C1962 0.950 . S
H1943 C1963 0.950 . S
H1944 C1965 0.950 . S
H1945 C1968 0.950 . S
H1946 C1969 0.950 . S
H1947 C1971 0.950 . S
H1948 C1972 0.950 . S
H1949 C1973 0.951 . S
H1950 C1975 0.951 . S
H1951 C1977 0.950 . S
H1952 C1978 0.950 . S
H1953 C1980 0.950 . S
H1954 C1983 0.950 . S
H1955 C1984 0.950 . S
H1956 C1986 0.950 . S
H1957 C1987 0.950 . S
C1958 H1940 0.951 . S
C1958 C1959 1.366 . S
C1958 C1960 1.388 . S
C1959 C1958 1.366 . S
C1959 C1963 1.385 . S
C1960 H1941 0.951 . S
C1960 C1958 1.388 . S
C1960 C1961 1.366 . S
C1961 C1960 1.366 . S
C1961 C1962 1.414 . S
C1961 C1964 1.499 . S
C1962 H1942 0.950 . S
C1962 C1961 1.414 . S
C1962 C1963 1.374 . S
C1963 H1943 0.950 . S
C1963 C1959 1.385 . S
C1963 C1962 1.374 . S
C1964 C1961 1.499 . S
C1964 C1965 1.373 . S
C1964 C1966 1.389 . S
C1965 H1944 0.950 . S
C1965 C1964 1.373 . S
C1965 C1981 1.377 . S
C1966 C1964 1.389 . S
C1966 C1967 1.524 . S
C1966 C1980 1.377 . S
C1967 C1966 1.524 . S
C1967 C1968 1.397 . S
C1967 C1972 1.363 . S
C1968 H1945 0.950 . S
C1968 C1967 1.397 . S
C1968 C1969 1.334 . S
C1969 H1946 0.950 . S
C1969 C1968 1.334 . S
C1969 C1970 1.287 . S
C1970 C1969 1.287 . S
C1970 C1971 1.524 . S
C1970 H1989 0.913 . S
C1971 H1947 0.950 . S
C1971 C1970 1.524 . S
C1971 C1972 1.415 . S
C1972 H1948 0.950 . S
C1972 C1967 1.363 . S
C1972 C1971 1.415 . S
C1973 H1949 0.951 . S
C1973 C1974 1.366 . S
C1973 C1975 1.388 . S
C1974 C1973 1.366 . S
C1974 C1978 1.385 . S
C1975 H1950 0.951 . S
C1975 C1973 1.388 . S
C1975 C1976 1.366 . S
C1976 C1975 1.366 . S
C1976 C1977 1.414 . S
C1976 C1979 1.499 . S
C1977 H1951 0.950 . S
C1977 C1976 1.414 . S
C1977 C1978 1.374 . S
C1978 H1952 0.950 . S
C1978 C1974 1.385 . S
C1978 C1977 1.374 . S
C1979 C1976 1.499 . S
C1979 C1980 1.373 . S
C1979 C1981 1.389 . S
C1980 H1953 0.950 . S
C1980 C1966 1.377 . S
C1980 C1979 1.373 . S
C1981 C1965 1.377 . S
C1981 C1979 1.389 . S
C1981 C1982 1.524 . S
C1982 C1981 1.524 . S
C1982 C1983 1.397 . S
C1982 C1987 1.363 . S
C1983 H1954 0.950 . S
C1983 C1982 1.397 . S
C1983 C1984 1.334 . S
C1984 H1955 0.950 . S
C1984 C1983 1.334 . S
C1984 C1985 1.287 . S
C1985 C1984 1.287 . S
C1985 C1986 1.524 . S
C1985 H1988 0.999 . S
C1986 H1956 0.950 . S
C1986 C1985 1.524 . S
C1986 C1987 1.415 . S
C1987 H1957 0.950 . S
C1987 C1982 1.363 . S
C1987 C1986 1.415 . S
H1988 C1985 0.999 . S
H1989 C1970 0.913 . S
H1990 C2008 0.951 . S
H1991 C2010 0.951 . S
H1992 C2012 0.950 . S
H1993 C2013 0.950 . S
H1994 C2015 0.950 . S
H1995 C2018 0.950 . S
H1996 C2019 0.950 . S
H1997 C2021 0.950 . S
H1998 C2022 0.950 . S
H1999 C2023 0.951 . S
H2000 C2025 0.951 . S
H2001 C2027 0.950 . S
H2002 C2028 0.950 . S
H2003 C2030 0.950 . S
H2004 C2033 0.950 . S
H2005 C2034 0.950 . S
H2006 C2036 0.950 . S
H2007 C2037 0.885 1_554 S
C2008 H1990 0.951 . S
C2008 C2009 1.366 . S
C2008 C2010 1.388 . S
C2009 C2008 1.366 . S
C2009 C2013 1.385 . S
C2010 H1991 0.951 . S
C2010 C2008 1.388 . S
C2010 C2011 1.366 . S
C2011 C2010 1.366 . S
C2011 C2012 1.414 . S
C2011 C2014 1.499 . S
C2012 H1992 0.950 . S
C2012 C2011 1.414 . S
C2012 C2013 1.374 . S
C2013 H1993 0.950 . S
C2013 C2009 1.385 . S
C2013 C2012 1.374 . S
C2014 C2011 1.499 . S
C2014 C2015 1.373 . S
C2014 C2016 1.389 . S
C2015 H1994 0.950 . S
C2015 C2014 1.373 . S
C2015 C2031 1.377 . S
C2016 C2014 1.389 . S
C2016 C2017 1.524 . S
C2016 C2030 1.377 . S
C2017 C2016 1.524 . S
C2017 C2018 1.397 . S
C2017 C2022 1.363 . S
C2018 H1995 0.950 . S
C2018 C2017 1.397 . S
C2018 C2019 1.334 . S
C2019 H1996 0.950 . S
C2019 C2018 1.334 . S
C2019 C2020 1.287 . S
C2020 C2019 1.287 . S
C2020 C2021 1.524 . S
C2020 H2039 0.913 . S
C2021 H1997 0.950 . S
C2021 C2020 1.524 . S
C2021 C2022 1.415 . S
C2022 H1998 0.950 . S
C2022 C2017 1.363 . S
C2022 C2021 1.415 . S
C2023 H1999 0.951 . S
C2023 C2024 1.366 . S
C2023 C2025 1.388 . S
C2024 C2023 1.366 . S
C2024 C2028 1.385 . S
C2025 H2000 0.951 . S
C2025 C2023 1.388 . S
C2025 C2026 1.366 . S
C2026 C2025 1.366 . S
C2026 C2027 1.414 . S
C2026 C2029 1.499 . S
C2027 H2001 0.950 . S
C2027 C2026 1.414 . S
C2027 C2028 1.374 . S
C2028 H2002 0.950 . S
C2028 C2024 1.385 . S
C2028 C2027 1.374 . S
C2029 C2026 1.499 . S
C2029 C2030 1.373 . S
C2029 C2031 1.389 . S
C2030 H2003 0.950 . S
C2030 C2016 1.377 . S
C2030 C2029 1.373 . S
C2031 C2015 1.377 . S
C2031 C2029 1.389 . S
C2031 C2032 1.524 1_554 S
C2032 C2031 1.524 1_556 S
C2032 C2033 1.397 . S
C2032 C2037 1.363 . S
C2033 H2004 0.950 . S
C2033 C2032 1.397 . S
C2033 C2034 1.334 . S
C2034 H2005 0.950 . S
C2034 C2033 1.334 . S
C2034 C2035 1.287 . S
C2035 C2034 1.287 . S
C2035 C2036 1.524 . S
C2035 H2038 0.999 . S
C2036 H2006 0.950 . S
C2036 C2035 1.524 . S
C2036 C2037 1.415 . S
C2037 H2007 0.885 1_556 S
C2037 C2032 1.363 . S
C2037 C2036 1.415 . S
H2038 C2035 0.999 . S
H2039 C2020 0.913 . S
H2040 C2058 0.951 . S
H2041 C2060 0.951 . S
H2042 C2062 0.950 . S
H2043 C2063 0.950 . S
H2044 C2065 0.950 . S
H2045 C2068 0.950 . S
H2046 C2069 0.950 . S
H2047 C2071 0.950 . S
H2048 C2072 0.950 . S
H2049 C2073 0.951 . S
H2050 C2075 0.951 . S
H2051 C2077 0.950 . S
H2052 C2078 0.950 . S
H2053 C2080 0.950 . S
H2054 C2083 0.950 . S
H2055 C2084 0.950 . S
H2056 C2086 0.950 . S
H2057 C2087 0.950 . S
C2058 H2040 0.951 . S
C2058 C2059 1.366 . S
C2058 C2060 1.388 . S
C2059 C2058 1.366 . S
C2059 C2063 1.385 . S
C2060 H2041 0.951 . S
C2060 C2058 1.388 . S
C2060 C2061 1.366 . S
C2061 C2060 1.366 . S
C2061 C2062 1.414 . S
C2061 C2064 1.499 1_655 S
C2062 H2042 0.950 . S
C2062 C2061 1.414 . S
C2062 C2063 1.374 . S
C2063 H2043 0.950 . S
C2063 C2059 1.385 . S
C2063 C2062 1.374 . S
C2064 C2061 1.499 1_455 S
C2064 C2065 1.373 . S
C2064 C2066 1.389 . S
C2065 H2044 0.950 . S
C2065 C2064 1.373 . S
C2065 C2081 1.377 . S
C2066 C2064 1.389 . S
C2066 C2067 1.524 . S
C2066 C2080 1.377 . S
C2067 C2066 1.524 . S
C2067 C2068 1.397 . S
C2067 C2072 1.363 . S
C2068 H2045 0.950 . S
C2068 C2067 1.397 . S
C2068 C2069 1.334 . S
C2069 H2046 0.950 . S
C2069 C2068 1.334 . S
C2069 C2070 1.287 . S
C2070 C2069 1.287 . S
C2070 C2071 1.524 . S
C2070 H2089 0.913 . S
C2071 H2047 0.950 . S
C2071 C2070 1.524 . S
C2071 C2072 1.415 . S
C2072 H2048 0.950 . S
C2072 C2067 1.363 . S
C2072 C2071 1.415 . S
C2073 H2049 0.951 . S
C2073 C2074 1.366 . S
C2073 C2075 1.388 . S
C2074 C2073 1.366 . S
C2074 C2078 1.385 . S
C2075 H2050 0.951 . S
C2075 C2073 1.388 . S
C2075 C2076 1.366 . S
C2076 C2075 1.366 . S
C2076 C2077 1.414 . S
C2076 C2079 1.499 . S
C2077 H2051 0.950 . S
C2077 C2076 1.414 . S
C2077 C2078 1.374 . S
C2078 H2052 0.950 . S
C2078 C2074 1.385 . S
C2078 C2077 1.374 . S
C2079 C2076 1.499 . S
C2079 C2080 1.373 . S
C2079 C2081 1.389 . S
C2080 H2053 0.950 . S
C2080 C2066 1.377 . S
C2080 C2079 1.373 . S
C2081 C2065 1.377 . S
C2081 C2079 1.389 . S
C2081 C2082 1.524 . S
C2082 C2081 1.524 . S
C2082 C2083 1.397 . S
C2082 C2087 1.363 . S
C2083 H2054 0.950 . S
C2083 C2082 1.397 . S
C2083 C2084 1.334 . S
C2084 H2055 0.950 . S
C2084 C2083 1.334 . S
C2084 C2085 1.287 . S
C2085 C2084 1.287 . S
C2085 C2086 1.524 . S
C2085 H2088 0.999 . S
C2086 H2056 0.950 . S
C2086 C2085 1.524 . S
C2086 C2087 1.415 . S
C2087 H2057 0.950 . S
C2087 C2082 1.363 . S
C2087 C2086 1.415 . S
H2088 C2085 0.999 . S
H2089 C2070 0.913 . S
H2090 C2108 0.951 . S
H2091 C2110 0.951 . S
H2092 C2112 0.950 . S
H2093 C2113 0.950 . S
H2094 C2115 0.950 . S
H2095 C2118 0.950 . S
H2096 C2119 0.950 . S
H2097 C2121 0.950 . S
H2098 C2122 0.950 . S
H2099 C2123 0.951 . S
H2100 C2125 0.951 . S
H2101 C2127 0.950 . S
H2102 C2128 0.950 . S
H2103 C2130 0.950 . S
H2104 C2133 0.950 . S
H2105 C2134 0.950 . S
H2106 C2136 0.950 . S
H2107 C2137 0.950 . S
C2108 H2090 0.951 . S
C2108 C2109 1.366 . S
C2108 C2110 1.388 . S
C2109 C2108 1.366 . S
C2109 C2113 1.385 . S
C2110 H2091 0.951 . S
C2110 C2108 1.388 . S
C2110 C2111 1.366 . S
C2111 C2110 1.366 . S
C2111 C2112 1.414 . S
C2111 C2114 1.499 . S
C2112 H2092 0.950 . S
C2112 C2111 1.414 . S
C2112 C2113 1.374 . S
C2113 H2093 0.950 . S
C2113 C2109 1.385 . S
C2113 C2112 1.374 . S
C2114 C2111 1.499 . S
C2114 C2115 1.373 . S
C2114 C2116 1.389 . S
C2115 H2094 0.950 . S
C2115 C2114 1.373 . S
C2115 C2131 1.377 . S
C2116 C2114 1.389 . S
C2116 C2117 1.524 . S
C2116 C2130 1.377 . S
C2117 C2116 1.524 . S
C2117 C2118 1.397 . S
C2117 C2122 1.363 . S
C2118 H2095 0.950 . S
C2118 C2117 1.397 . S
C2118 C2119 1.334 . S
C2119 H2096 0.950 . S
C2119 C2118 1.334 . S
C2119 C2120 1.287 . S
C2120 C2119 1.287 . S
C2120 C2121 1.524 . S
C2120 H2139 0.913 . S
C2121 H2097 0.950 . S
C2121 C2120 1.524 . S
C2121 C2122 1.415 . S
C2122 H2098 0.950 . S
C2122 C2117 1.363 . S
C2122 C2121 1.415 . S
C2123 H2099 0.951 . S
C2123 C2124 1.366 . S
C2123 C2125 1.388 . S
C2124 C2123 1.366 . S
C2124 C2128 1.385 . S
C2125 H2100 0.951 . S
C2125 C2123 1.388 . S
C2125 C2126 1.366 . S
C2126 C2125 1.366 . S
C2126 C2127 1.414 . S
C2126 C2129 1.499 . S
C2127 H2101 0.950 . S
C2127 C2126 1.414 . S
C2127 C2128 1.374 . S
C2128 H2102 0.950 . S
C2128 C2124 1.385 . S
C2128 C2127 1.374 . S
C2129 C2126 1.499 . S
C2129 C2130 1.373 . S
C2129 C2131 1.389 . S
C2130 H2103 0.950 . S
C2130 C2116 1.377 . S
C2130 C2129 1.373 . S
C2131 C2115 1.377 . S
C2131 C2129 1.389 . S
C2131 C2132 1.524 . S
C2132 C2131 1.524 . S
C2132 C2133 1.397 . S
C2132 C2137 1.363 . S
C2133 H2104 0.950 . S
C2133 C2132 1.397 . S
C2133 C2134 1.334 . S
C2134 H2105 0.950 . S
C2134 C2133 1.334 . S
C2134 C2135 1.287 . S
C2135 C2134 1.287 . S
C2135 C2136 1.524 . S
C2135 H2138 0.999 . S
C2136 H2106 0.950 . S
C2136 C2135 1.524 . S
C2136 C2137 1.415 . S
C2137 H2107 0.950 . S
C2137 C2132 1.363 . S
C2137 C2136 1.415 . S
H2138 C2135 0.999 . S
H2139 C2120 0.913 . S
H2140 C2158 0.951 . S
H2141 C2160 0.951 . S
H2142 C2162 0.950 . S
H2143 C2163 0.950 . S
H2144 C2165 0.950 . S
H2145 C2168 0.950 . S
H2146 C2169 0.950 . S
H2147 C2171 0.957 . S
H2148 C2172 0.950 . S
H2149 C2173 0.951 . S
H2150 C2175 0.951 . S
H2151 C2177 0.950 . S
H2152 C2178 0.950 . S
H2153 C2180 0.950 . S
H2154 C2183 0.950 . S
H2155 C2184 0.950 . S
H2156 C2186 0.950 . S
H2157 C2187 0.950 . S
C2158 H2140 0.951 . S
C2158 C2159 1.366 . S
C2158 C2160 1.388 . S
C2159 C2158 1.366 . S
C2159 C2163 1.385 . S
C2160 H2141 0.951 . S
C2160 C2158 1.388 . S
C2160 C2161 1.366 . S
C2161 C2160 1.366 . S
C2161 C2162 1.414 . S
C2161 C2164 1.514 . S
C2162 H2142 0.950 . S
C2162 C2161 1.414 . S
C2162 C2163 1.374 . S
C2163 H2143 0.950 . S
C2163 C2159 1.385 . S
C2163 C2162 1.374 . S
C2164 C2161 1.514 . S
C2164 C2165 1.373 1_545 S
C2164 C2166 1.374 1_545 S
C2165 H2144 0.950 . S
C2165 C2164 1.373 1_565 S
C2165 C2181 1.377 . S
C2166 C2164 1.374 1_565 S
C2166 C2167 1.524 1_565 S
C2166 C2180 1.377 . S
C2167 C2166 1.524 1_545 S
C2167 C2168 1.395 . S
C2167 C2172 1.365 1_545 S
C2168 H2145 0.950 . S
C2168 C2167 1.395 . S
C2168 C2169 1.334 . S
C2169 H2146 0.950 . S
C2169 C2168 1.334 . S
C2169 C2170 1.287 . S
C2170 C2169 1.287 . S
C2170 C2171 1.524 . S
C2170 H2189 0.913 . S
C2171 H2147 0.957 . S
C2171 C2170 1.524 . S
C2171 C2172 1.415 1_545 S
C2172 H2148 0.950 . S
C2172 C2167 1.365 1_565 S
C2172 C2171 1.415 1_565 S
C2173 H2149 0.951 . S
C2173 C2174 1.366 . S
C2173 C2175 1.388 . S
C2174 C2173 1.366 . S
C2174 C2178 1.385 . S
C2175 H2150 0.951 . S
C2175 C2173 1.388 . S
C2175 C2176 1.366 . S
C2176 C2175 1.366 . S
C2176 C2177 1.414 . S
C2176 C2179 1.499 . S
C2177 H2151 0.950 . S
C2177 C2176 1.414 . S
C2177 C2178 1.374 . S
C2178 H2152 0.950 . S
C2178 C2174 1.385 . S
C2178 C2177 1.374 . S
C2179 C2176 1.499 . S
C2179 C2180 1.373 . S
C2179 C2181 1.389 . S
C2180 H2153 0.950 . S
C2180 C2166 1.377 . S
C2180 C2179 1.373 . S
C2181 C2165 1.377 . S
C2181 C2179 1.389 . S
C2181 C2182 1.524 . S
C2182 C2181 1.524 . S
C2182 C2183 1.397 . S
C2182 C2187 1.363 . S
C2183 H2154 0.950 . S
C2183 C2182 1.397 . S
C2183 C2184 1.334 . S
C2184 H2155 0.950 . S
C2184 C2183 1.334 . S
C2184 C2185 1.287 . S
C2185 C2184 1.287 . S
C2185 C2186 1.524 . S
C2185 H2188 0.999 . S
C2186 H2156 0.950 . S
C2186 C2185 1.524 . S
C2186 C2187 1.415 . S
C2187 H2157 0.950 . S
C2187 C2182 1.363 . S
C2187 C2186 1.415 . S
H2188 C2185 0.999 . S
H2189 C2170 0.913 . S
H2190 C2208 0.951 . S
H2191 C2210 0.951 . S
H2192 C2212 0.950 . S
H2193 C2213 0.950 . S
H2194 C2215 0.950 . S
H2195 C2218 0.950 . S
H2196 C2219 0.950 . S
H2197 C2221 0.950 . S
H2198 C2222 0.950 . S
H2199 C2223 0.951 . S
H2200 C2225 0.951 . S
H2201 C2227 0.950 . S
H2202 C2228 0.950 . S
H2203 C2230 0.950 . S
H2204 C2233 0.950 . S
H2205 C2234 0.950 . S
H2206 C2236 0.950 . S
H2207 C2237 0.950 . S
C2208 H2190 0.951 . S
C2208 C2209 1.366 . S
C2208 C2210 1.388 . S
C2209 C2208 1.366 . S
C2209 C2213 1.385 . S
C2210 H2191 0.951 . S
C2210 C2208 1.388 . S
C2210 C2211 1.366 . S
C2211 C2210 1.366 . S
C2211 C2212 1.414 . S
C2211 C2214 1.499 . S
C2212 H2192 0.950 . S
C2212 C2211 1.414 . S
C2212 C2213 1.374 . S
C2213 H2193 0.950 . S
C2213 C2209 1.385 . S
C2213 C2212 1.374 . S
C2214 C2211 1.499 . S
C2214 C2215 1.373 . S
C2214 C2216 1.389 . S
C2215 H2194 0.950 . S
C2215 C2214 1.373 . S
C2215 C2231 1.377 . S
C2216 C2214 1.389 . S
C2216 C2217 1.524 . S
C2216 C2230 1.377 . S
C2217 C2216 1.524 . S
C2217 C2218 1.397 . S
C2217 C2222 1.363 . S
C2218 H2195 0.950 . S
C2218 C2217 1.397 . S
C2218 C2219 1.334 . S
C2219 H2196 0.950 . S
C2219 C2218 1.334 . S
C2219 C2220 1.287 . S
C2220 C2219 1.287 . S
C2220 C2221 1.524 . S
C2220 H2239 0.913 . S
C2221 H2197 0.950 . S
C2221 C2220 1.524 . S
C2221 C2222 1.415 . S
C2222 H2198 0.950 . S
C2222 C2217 1.363 . S
C2222 C2221 1.415 . S
C2223 H2199 0.951 . S
C2223 C2224 1.366 . S
C2223 C2225 1.388 . S
C2224 C2223 1.366 . S
C2224 C2228 1.385 . S
C2225 H2200 0.951 . S
C2225 C2223 1.388 . S
C2225 C2226 1.366 . S
C2226 C2225 1.366 . S
C2226 C2227 1.414 . S
C2226 C2229 1.499 . S
C2227 H2201 0.950 . S
C2227 C2226 1.414 . S
C2227 C2228 1.374 . S
C2228 H2202 0.950 . S
C2228 C2224 1.385 . S
C2228 C2227 1.374 . S
C2229 C2226 1.499 . S
C2229 C2230 1.373 . S
C2229 C2231 1.389 . S
C2230 H2203 0.950 . S
C2230 C2216 1.377 . S
C2230 C2229 1.373 . S
C2231 C2215 1.377 . S
C2231 C2229 1.389 . S
C2231 C2232 1.524 . S
C2232 C2231 1.524 . S
C2232 C2233 1.397 . S
C2232 C2237 1.363 . S
C2233 H2204 0.950 . S
C2233 C2232 1.397 . S
C2233 C2234 1.334 . S
C2234 H2205 0.950 . S
C2234 C2233 1.334 . S
C2234 C2235 1.287 . S
C2235 C2234 1.287 . S
C2235 C2236 1.524 . S
C2235 H2238 0.999 . S
C2236 H2206 0.950 . S
C2236 C2235 1.524 . S
C2236 C2237 1.415 . S
C2237 H2207 0.950 . S
C2237 C2232 1.363 . S
C2237 C2236 1.415 . S
H2238 C2235 0.999 . S
H2239 C2220 0.913 . S
H2240 C2258 0.951 . S
H2241 C2260 0.951 . S
H2242 C2262 0.950 . S
H2243 C2263 0.950 . S
H2244 C2265 0.950 . S
H2245 C2268 0.950 . S
H2246 C2269 0.950 . S
H2247 C2271 0.950 . S
H2248 C2272 0.950 . S
H2249 C2273 0.951 . S
H2250 C2275 0.951 . S
H2251 C2277 0.950 . S
H2252 C2278 0.950 . S
H2253 C2280 0.950 . S
H2254 C2283 0.950 . S
H2255 C2284 0.950 . S
H2256 C2286 0.950 . S
H2257 C2287 0.950 . S
C2258 H2240 0.951 . S
C2258 C2259 1.366 . S
C2258 C2260 1.388 . S
C2259 C2258 1.366 . S
C2259 C2263 1.385 . S
C2260 H2241 0.951 . S
C2260 C2258 1.388 . S
C2260 C2261 1.366 . S
C2261 C2260 1.366 . S
C2261 C2262 1.414 . S
C2261 C2264 1.499 . S
C2262 H2242 0.950 . S
C2262 C2261 1.414 . S
C2262 C2263 1.374 . S
C2263 H2243 0.950 . S
C2263 C2259 1.385 . S
C2263 C2262 1.374 . S
C2264 C2261 1.499 . S
C2264 C2265 1.373 . S
C2264 C2266 1.389 . S
C2265 H2244 0.950 . S
C2265 C2264 1.373 . S
C2265 C2281 1.377 . S
C2266 C2264 1.389 . S
C2266 C2267 1.524 . S
C2266 C2280 1.377 . S
C2267 C2266 1.524 . S
C2267 C2268 1.397 . S
C2267 C2272 1.363 . S
C2268 H2245 0.950 . S
C2268 C2267 1.397 . S
C2268 C2269 1.334 . S
C2269 H2246 0.950 . S
C2269 C2268 1.334 . S
C2269 C2270 1.287 . S
C2270 C2269 1.287 . S
C2270 C2271 1.524 . S
C2270 H2289 0.913 . S
C2271 H2247 0.950 . S
C2271 C2270 1.524 . S
C2271 C2272 1.415 . S
C2272 H2248 0.950 . S
C2272 C2267 1.363 . S
C2272 C2271 1.415 . S
C2273 H2249 0.951 . S
C2273 C2274 1.366 . S
C2273 C2275 1.388 . S
C2274 C2273 1.366 . S
C2274 C2278 1.385 . S
C2275 H2250 0.951 . S
C2275 C2273 1.388 . S
C2275 C2276 1.366 . S
C2276 C2275 1.366 . S
C2276 C2277 1.414 . S
C2276 C2279 1.499 . S
C2277 H2251 0.950 . S
C2277 C2276 1.414 . S
C2277 C2278 1.374 . S
C2278 H2252 0.950 . S
C2278 C2274 1.385 . S
C2278 C2277 1.374 . S
C2279 C2276 1.499 . S
C2279 C2280 1.373 . S
C2279 C2281 1.389 . S
C2280 H2253 0.950 . S
C2280 C2266 1.377 . S
C2280 C2279 1.373 . S
C2281 C2265 1.377 . S
C2281 C2279 1.389 . S
C2281 C2282 1.524 . S
C2282 C2281 1.524 . S
C2282 C2283 1.397 . S
C2282 C2287 1.363 . S
C2283 H2254 0.950 . S
C2283 C2282 1.397 . S
C2283 C2284 1.334 . S
C2284 H2255 0.950 . S
C2284 C2283 1.334 . S
C2284 C2285 1.287 . S
C2285 C2284 1.287 . S
C2285 C2286 1.524 . S
C2285 H2288 0.999 . S
C2286 H2256 0.950 . S
C2286 C2285 1.524 . S
C2286 C2287 1.415 . S
C2287 H2257 0.950 . S
C2287 C2282 1.363 . S
C2287 C2286 1.415 . S
H2288 C2285 0.999 . S
H2289 C2270 0.913 . S
H2290 C2308 0.951 . S
H2291 C2310 0.951 . S
H2292 C2312 0.950 . S
H2293 C2313 0.950 . S
H2294 C2315 0.950 . S
H2295 C2318 0.950 . S
H2296 C2319 0.950 . S
H2297 C2321 0.950 . S
H2298 C2322 0.950 . S
H2299 C2323 0.951 . S
H2300 C2325 0.951 . S
H2301 C2327 0.950 . S
H2302 C2328 0.950 . S
H2303 C2330 0.950 . S
H2304 C2333 0.950 . S
H2305 C2334 0.950 . S
H2306 C2336 0.950 . S
H2307 C2337 0.950 . S
C2308 H2290 0.951 . S
C2308 C2309 1.366 . S
C2308 C2310 1.388 . S
C2309 C2308 1.366 . S
C2309 C2313 1.385 . S
C2310 H2291 0.951 . S
C2310 C2308 1.388 . S
C2310 C2311 1.366 . S
C2311 C2310 1.366 . S
C2311 C2312 1.414 . S
C2311 C2314 1.499 . S
C2312 H2292 0.950 . S
C2312 C2311 1.414 . S
C2312 C2313 1.374 . S
C2313 H2293 0.950 . S
C2313 C2309 1.385 . S
C2313 C2312 1.374 . S
C2314 C2311 1.499 . S
C2314 C2315 1.373 . S
C2314 C2316 1.389 . S
C2315 H2294 0.950 . S
C2315 C2314 1.373 . S
C2315 C2331 1.377 . S
C2316 C2314 1.389 . S
C2316 C2317 1.524 . S
C2316 C2330 1.377 . S
C2317 C2316 1.524 . S
C2317 C2318 1.397 . S
C2317 C2322 1.363 . S
C2318 H2295 0.950 . S
C2318 C2317 1.397 . S
C2318 C2319 1.334 . S
C2319 H2296 0.950 . S
C2319 C2318 1.334 . S
C2319 C2320 1.287 . S
C2320 C2319 1.287 . S
C2320 C2321 1.524 . S
C2320 H2339 0.913 . S
C2321 H2297 0.950 . S
C2321 C2320 1.524 . S
C2321 C2322 1.415 . S
C2322 H2298 0.950 . S
C2322 C2317 1.363 . S
C2322 C2321 1.415 . S
C2323 H2299 0.951 . S
C2323 C2324 1.366 . S
C2323 C2325 1.388 . S
C2324 C2323 1.366 . S
C2324 C2328 1.385 . S
C2325 H2300 0.951 . S
C2325 C2323 1.388 . S
C2325 C2326 1.366 . S
C2326 C2325 1.366 . S
C2326 C2327 1.414 . S
C2326 C2329 1.499 . S
C2327 H2301 0.950 . S
C2327 C2326 1.414 . S
C2327 C2328 1.374 . S
C2328 H2302 0.950 . S
C2328 C2324 1.385 . S
C2328 C2327 1.374 . S
C2329 C2326 1.499 . S
C2329 C2330 1.373 . S
C2329 C2331 1.389 . S
C2330 H2303 0.950 . S
C2330 C2316 1.377 . S
C2330 C2329 1.373 . S
C2331 C2315 1.377 . S
C2331 C2329 1.389 . S
C2331 C2332 1.524 . S
C2332 C2331 1.524 . S
C2332 C2333 1.397 . S
C2332 C2337 1.363 . S
C2333 H2304 0.950 . S
C2333 C2332 1.397 . S
C2333 C2334 1.334 . S
C2334 H2305 0.950 . S
C2334 C2333 1.334 . S
C2334 C2335 1.287 . S
C2335 C2334 1.287 . S
C2335 C2336 1.524 . S
C2335 H2338 0.999 . S
C2336 H2306 0.950 . S
C2336 C2335 1.524 . S
C2336 C2337 1.415 . S
C2337 H2307 0.950 . S
C2337 C2332 1.363 . S
C2337 C2336 1.415 . S
H2338 C2335 0.999 . S
H2339 C2320 0.913 . S
H2340 C2358 0.951 . S
H2341 C2360 0.951 . S
H2342 C2362 0.950 . S
H2343 C2363 0.950 . S
H2344 C2365 0.950 . S
H2345 C2368 0.950 . S
H2346 C2369 0.950 . S
H2347 C2371 0.950 . S
H2348 C2372 0.950 . S
H2349 C2373 0.951 . S
H2350 C2375 0.951 . S
H2351 C2377 0.950 . S
H2352 C2378 0.950 . S
H2353 C2380 0.950 . S
H2354 C2383 0.950 . S
H2355 C2384 0.950 . S
H2356 C2386 0.950 . S
H2357 C2387 0.950 . S
C2358 H2340 0.951 . S
C2358 C2359 1.366 . S
C2358 C2360 1.388 . S
C2359 C2358 1.366 . S
C2359 C2363 1.385 . S
C2360 H2341 0.951 . S
C2360 C2358 1.388 . S
C2360 C2361 1.366 . S
C2361 C2360 1.366 . S
C2361 C2362 1.414 . S
C2361 C2364 1.499 . S
C2362 H2342 0.950 . S
C2362 C2361 1.414 . S
C2362 C2363 1.374 . S
C2363 H2343 0.950 . S
C2363 C2359 1.385 . S
C2363 C2362 1.374 . S
C2364 C2361 1.499 . S
C2364 C2365 1.373 . S
C2364 C2366 1.389 . S
C2365 H2344 0.950 . S
C2365 C2364 1.373 . S
C2365 C2381 1.377 . S
C2366 C2364 1.389 . S
C2366 C2367 1.524 . S
C2366 C2380 1.377 . S
C2367 C2366 1.524 . S
C2367 C2368 1.397 . S
C2367 C2372 1.363 . S
C2368 H2345 0.950 . S
C2368 C2367 1.397 . S
C2368 C2369 1.334 . S
C2369 H2346 0.950 . S
C2369 C2368 1.334 . S
C2369 C2370 1.287 . S
C2370 C2369 1.287 . S
C2370 C2371 1.524 . S
C2370 H2389 0.913 . S
C2371 H2347 0.950 . S
C2371 C2370 1.524 . S
C2371 C2372 1.415 . S
C2372 H2348 0.950 . S
C2372 C2367 1.363 . S
C2372 C2371 1.415 . S
C2373 H2349 0.951 . S
C2373 C2374 1.366 . S
C2373 C2375 1.388 . S
C2374 C2373 1.366 . S
C2374 C2378 1.385 . S
C2375 H2350 0.951 . S
C2375 C2373 1.388 . S
C2375 C2376 1.366 . S
C2376 C2375 1.366 . S
C2376 C2377 1.414 . S
C2376 C2379 1.499 . S
C2377 H2351 0.950 . S
C2377 C2376 1.414 . S
C2377 C2378 1.374 . S
C2378 H2352 0.950 . S
C2378 C2374 1.385 . S
C2378 C2377 1.374 . S
C2379 C2376 1.499 . S
C2379 C2380 1.373 . S
C2379 C2381 1.389 . S
C2380 H2353 0.950 . S
C2380 C2366 1.377 . S
C2380 C2379 1.373 . S
C2381 C2365 1.377 . S
C2381 C2379 1.389 . S
C2381 C2382 1.524 . S
C2382 C2381 1.524 . S
C2382 C2383 1.397 . S
C2382 C2387 1.363 . S
C2383 H2354 0.950 . S
C2383 C2382 1.397 . S
C2383 C2384 1.334 . S
C2384 H2355 0.950 . S
C2384 C2383 1.334 . S
C2384 C2385 1.287 . S
C2385 C2384 1.287 . S
C2385 C2386 1.524 . S
C2385 H2388 0.999 . S
C2386 H2356 0.950 . S
C2386 C2385 1.524 . S
C2386 C2387 1.415 . S
C2387 H2357 0.950 . S
C2387 C2382 1.363 . S
C2387 C2386 1.415 . S
H2388 C2385 0.999 . S
H2389 C2370 0.913 . S
H2390 C2408 0.951 . S
H2391 C2410 0.951 . S
H2392 C2412 0.950 . S
H2393 C2413 0.950 . S
H2394 C2415 0.950 . S
H2395 C2418 0.950 . S
H2396 C2419 0.950 . S
H2397 C2421 0.950 . S
H2398 C2422 0.950 . S
H2399 C2423 0.951 . S
H2400 C2425 0.951 . S
H2401 C2427 0.950 . S
H2402 C2428 0.950 . S
H2403 C2430 0.950 . S
H2404 C2433 0.950 . S
H2405 C2434 0.950 . S
H2406 C2436 0.950 . S
H2407 C2437 0.950 . S
C2408 H2390 0.951 . S
C2408 C2409 1.366 . S
C2408 C2410 1.388 . S
C2409 C2408 1.366 . S
C2409 C2413 1.385 . S
C2410 H2391 0.951 . S
C2410 C2408 1.388 . S
C2410 C2411 1.366 . S
C2411 C2410 1.366 . S
C2411 C2412 1.414 . S
C2411 C2414 1.499 . S
C2412 H2392 0.950 . S
C2412 C2411 1.414 . S
C2412 C2413 1.374 . S
C2413 H2393 0.950 . S
C2413 C2409 1.385 . S
C2413 C2412 1.374 . S
C2414 C2411 1.499 . S
C2414 C2415 1.373 . S
C2414 C2416 1.389 . S
C2415 H2394 0.950 . S
C2415 C2414 1.373 . S
C2415 C2431 1.377 . S
C2416 C2414 1.389 . S
C2416 C2417 1.524 . S
C2416 C2430 1.377 . S
C2417 C2416 1.524 . S
C2417 C2418 1.397 . S
C2417 C2422 1.363 . S
C2418 H2395 0.950 . S
C2418 C2417 1.397 . S
C2418 C2419 1.334 . S
C2419 H2396 0.950 . S
C2419 C2418 1.334 . S
C2419 C2420 1.287 . S
C2420 C2419 1.287 . S
C2420 C2421 1.524 . S
C2420 H2439 0.913 . S
C2421 H2397 0.950 . S
C2421 C2420 1.524 . S
C2421 C2422 1.415 . S
C2422 H2398 0.950 . S
C2422 C2417 1.363 . S
C2422 C2421 1.415 . S
C2423 H2399 0.951 . S
C2423 C2424 1.366 . S
C2423 C2425 1.388 . S
C2424 C2423 1.366 . S
C2424 C2428 1.385 . S
C2425 H2400 0.951 . S
C2425 C2423 1.388 . S
C2425 C2426 1.366 . S
C2426 C2425 1.366 . S
C2426 C2427 1.414 . S
C2426 C2429 1.499 . S
C2427 H2401 0.950 . S
C2427 C2426 1.414 . S
C2427 C2428 1.374 . S
C2428 H2402 0.950 . S
C2428 C2424 1.385 . S
C2428 C2427 1.374 . S
C2429 C2426 1.499 . S
C2429 C2430 1.373 . S
C2429 C2431 1.389 . S
C2430 H2403 0.950 . S
C2430 C2416 1.377 . S
C2430 C2429 1.373 . S
C2431 C2415 1.377 . S
C2431 C2429 1.389 . S
C2431 C2432 1.524 . S
C2432 C2431 1.524 . S
C2432 C2433 1.397 . S
C2432 C2437 1.363 . S
C2433 H2404 0.950 . S
C2433 C2432 1.397 . S
C2433 C2434 1.334 . S
C2434 H2405 0.950 . S
C2434 C2433 1.334 . S
C2434 C2435 1.287 . S
C2435 C2434 1.287 . S
C2435 C2436 1.524 . S
C2435 H2438 0.999 . S
C2436 H2406 0.950 . S
C2436 C2435 1.524 . S
C2436 C2437 1.415 . S
C2437 H2407 0.950 . S
C2437 C2432 1.363 . S
C2437 C2436 1.415 . S
H2438 C2435 0.999 . S
H2439 C2420 0.913 . S
H2440 C2458 0.951 . S
H2441 C2460 0.951 . S
H2442 C2462 0.950 . S
H2443 C2463 0.950 . S
H2444 C2465 0.950 . S
H2445 C2468 0.950 . S
H2446 C2469 0.950 . S
H2447 C2471 0.950 . S
H2448 C2472 0.950 . S
H2449 C2473 0.951 . S
H2450 C2475 0.951 . S
H2451 C2477 0.950 . S
H2452 C2478 0.950 . S
H2453 C2480 0.950 . S
H2454 C2483 0.950 . S
H2455 C2484 0.950 . S
H2456 C2486 0.950 . S
H2457 C2487 0.950 . S
C2458 H2440 0.951 . S
C2458 C2459 1.366 . S
C2458 C2460 1.388 . S
C2459 C2458 1.366 . S
C2459 C2463 1.385 . S
C2460 H2441 0.951 . S
C2460 C2458 1.388 . S
C2460 C2461 1.366 . S
C2461 C2460 1.366 . S
C2461 C2462 1.414 . S
C2461 C2464 1.499 . S
C2462 H2442 0.950 . S
C2462 C2461 1.414 . S
C2462 C2463 1.374 . S
C2463 H2443 0.950 . S
C2463 C2459 1.385 . S
C2463 C2462 1.374 . S
C2464 C2461 1.499 . S
C2464 C2465 1.373 . S
C2464 C2466 1.389 . S
C2465 H2444 0.950 . S
C2465 C2464 1.373 . S
C2465 C2481 1.377 . S
C2466 C2464 1.389 . S
C2466 C2467 1.524 . S
C2466 C2480 1.377 . S
C2467 C2466 1.524 . S
C2467 C2468 1.397 . S
C2467 C2472 1.363 . S
C2468 H2445 0.950 . S
C2468 C2467 1.397 . S
C2468 C2469 1.334 . S
C2469 H2446 0.950 . S
C2469 C2468 1.334 . S
C2469 C2470 1.287 . S
C2470 C2469 1.287 . S
C2470 C2471 1.524 . S
C2470 H2489 0.913 . S
C2471 H2447 0.950 . S
C2471 C2470 1.524 . S
C2471 C2472 1.415 . S
C2472 H2448 0.950 . S
C2472 C2467 1.363 . S
C2472 C2471 1.415 . S
C2473 H2449 0.951 . S
C2473 C2474 1.366 . S
C2473 C2475 1.388 . S
C2474 C2473 1.366 . S
C2474 C2478 1.385 . S
C2475 H2450 0.951 . S
C2475 C2473 1.388 . S
C2475 C2476 1.366 . S
C2476 C2475 1.366 . S
C2476 C2477 1.414 . S
C2476 C2479 1.499 . S
C2477 H2451 0.950 . S
C2477 C2476 1.414 . S
C2477 C2478 1.374 . S
C2478 H2452 0.950 . S
C2478 C2474 1.385 . S
C2478 C2477 1.374 . S
C2479 C2476 1.499 . S
C2479 C2480 1.373 . S
C2479 C2481 1.389 . S
C2480 H2453 0.950 . S
C2480 C2466 1.377 . S
C2480 C2479 1.373 . S
C2481 C2465 1.377 . S
C2481 C2479 1.389 . S
C2481 C2482 1.524 . S
C2482 C2481 1.524 . S
C2482 C2483 1.397 . S
C2482 C2487 1.363 . S
C2483 H2454 0.950 . S
C2483 C2482 1.397 . S
C2483 C2484 1.334 . S
C2484 H2455 0.950 . S
C2484 C2483 1.334 . S
C2484 C2485 1.287 . S
C2485 C2484 1.287 . S
C2485 C2486 1.524 . S
C2485 H2488 0.999 . S
C2486 H2456 0.950 . S
C2486 C2485 1.524 . S
C2486 C2487 1.415 . S
C2487 H2457 0.950 . S
C2487 C2482 1.363 . S
C2487 C2486 1.415 . S
H2488 C2485 0.999 . S
H2489 C2470 0.913 . S
H2490 C2508 0.951 . S
H2491 C2510 0.951 . S
H2492 C2512 0.950 . S
H2493 C2513 0.950 . S
H2494 C2515 0.950 . S
H2495 C2518 0.950 . S
H2496 C2519 0.950 . S
H2497 C2521 0.934 . S
H2498 C2522 0.950 . S
H2499 C2523 0.951 . S
H2500 C2525 0.951 . S
H2501 C2527 0.950 . S
H2502 C2528 0.950 . S
H2503 C2530 0.950 . S
H2504 C2533 0.950 . S
H2505 C2534 0.950 . S
H2506 C2536 0.950 . S
H2507 C2537 0.950 . S
C2508 H2490 0.951 . S
C2508 C2509 1.366 . S
C2508 C2510 1.388 . S
C2509 C2508 1.366 . S
C2509 C2513 1.385 . S
C2510 H2491 0.951 . S
C2510 C2508 1.388 . S
C2510 C2511 1.366 . S
C2511 C2510 1.366 . S
C2511 C2512 1.414 . S
C2511 C2514 1.499 1_545 S
C2512 H2492 0.950 . S
C2512 C2511 1.414 . S
C2512 C2513 1.374 . S
C2513 H2493 0.950 . S
C2513 C2509 1.385 . S
C2513 C2512 1.374 . S
C2514 C2511 1.499 1_565 S
C2514 C2515 1.373 . S
C2514 C2516 1.389 . S
C2515 H2494 0.950 . S
C2515 C2514 1.373 . S
C2515 C2531 1.377 . S
C2516 C2514 1.389 . S
C2516 C2517 1.524 . S
C2516 C2530 1.377 . S
C2517 C2516 1.524 . S
C2517 C2518 1.397 1_565 S
C2517 C2522 1.363 . S
C2518 H2495 0.950 . S
C2518 C2517 1.397 1_545 S
C2518 C2519 1.334 . S
C2519 H2496 0.950 . S
C2519 C2518 1.334 . S
C2519 C2520 1.287 . S
C2520 C2519 1.287 . S
C2520 C2521 1.517 1_545 S
C2520 H2539 0.913 . S
C2521 H2497 0.934 . S
C2521 C2520 1.517 1_565 S
C2521 C2522 1.441 . S
C2522 H2498 0.950 . S
C2522 C2517 1.363 . S
C2522 C2521 1.441 . S
C2523 H2499 0.951 . S
C2523 C2524 1.366 . S
C2523 C2525 1.388 . S
C2524 C2523 1.366 . S
C2524 C2528 1.385 . S
C2525 H2500 0.951 . S
C2525 C2523 1.388 . S
C2525 C2526 1.366 . S
C2526 C2525 1.366 . S
C2526 C2527 1.414 . S
C2526 C2529 1.499 . S
C2527 H2501 0.950 . S
C2527 C2526 1.414 . S
C2527 C2528 1.374 . S
C2528 H2502 0.950 . S
C2528 C2524 1.385 . S
C2528 C2527 1.374 . S
C2529 C2526 1.499 . S
C2529 C2530 1.373 . S
C2529 C2531 1.389 . S
C2530 H2503 0.950 . S
C2530 C2516 1.377 . S
C2530 C2529 1.373 . S
C2531 C2515 1.377 . S
C2531 C2529 1.389 . S
C2531 C2532 1.524 . S
C2532 C2531 1.524 . S
C2532 C2533 1.397 . S
C2532 C2537 1.363 . S
C2533 H2504 0.950 . S
C2533 C2532 1.397 . S
C2533 C2534 1.334 . S
C2534 H2505 0.950 . S
C2534 C2533 1.334 . S
C2534 C2535 1.287 . S
C2535 C2534 1.287 . S
C2535 C2536 1.524 . S
C2535 H2538 0.999 . S
C2536 H2506 0.950 . S
C2536 C2535 1.524 . S
C2536 C2537 1.415 . S
C2537 H2507 0.950 . S
C2537 C2532 1.363 . S
C2537 C2536 1.415 . S
H2538 C2535 0.999 . S
H2539 C2520 0.913 . S
H2540 C2558 0.951 . S
H2541 C2560 0.951 . S
H2542 C2562 0.950 1_455 S
H2543 C2563 0.950 . S
H2544 C2565 0.950 . S
H2545 C2568 0.950 . S
H2546 C2569 0.950 . S
H2547 C2571 0.950 . S
H2548 C2572 0.950 . S
H2549 C2573 0.951 . S
H2550 C2575 0.951 . S
H2551 C2577 0.950 . S
H2552 C2578 0.950 . S
H2553 C2580 0.950 . S
H2554 C2583 0.950 . S
H2555 C2584 0.950 . S
H2556 C2586 0.950 . S
H2557 C2587 0.950 . S
C2558 H2540 0.951 . S
C2558 C2559 1.366 . S
C2558 C2560 1.388 . S
C2559 C2558 1.366 . S
C2559 C2563 1.385 . S
C2560 H2541 0.951 . S
C2560 C2558 1.388 . S
C2560 C2561 1.366 1_655 S
C2561 C2560 1.366 1_455 S
C2561 C2562 1.414 1_455 S
C2561 C2564 1.499 . S
C2562 H2542 0.950 1_655 S
C2562 C2561 1.414 1_655 S
C2562 C2563 1.374 . S
C2563 H2543 0.950 . S
C2563 C2559 1.385 . S
C2563 C2562 1.374 . S
C2564 C2561 1.499 . S
C2564 C2565 1.373 . S
C2564 C2566 1.389 . S
C2565 H2544 0.950 . S
C2565 C2564 1.373 . S
C2565 C2581 1.377 . S
C2566 C2564 1.389 . S
C2566 C2567 1.524 . S
C2566 C2580 1.377 . S
C2567 C2566 1.524 . S
C2567 C2568 1.397 1_455 S
C2567 C2572 1.363 . S
C2568 H2545 0.950 . S
C2568 C2567 1.397 1_655 S
C2568 C2569 1.334 . S
C2569 H2546 0.950 . S
C2569 C2568 1.334 . S
C2569 C2570 1.287 . S
C2570 C2569 1.287 . S
C2570 C2571 1.524 . S
C2570 H2589 0.913 . S
C2571 H2547 0.950 . S
C2571 C2570 1.524 . S
C2571 C2572 1.415 1_655 S
C2572 H2548 0.950 . S
C2572 C2567 1.363 . S
C2572 C2571 1.415 1_455 S
C2573 H2549 0.951 . S
C2573 C2574 1.366 . S
C2573 C2575 1.388 . S
C2574 C2573 1.366 . S
C2574 C2578 1.385 . S
C2575 H2550 0.951 . S
C2575 C2573 1.388 . S
C2575 C2576 1.366 . S
C2576 C2575 1.366 . S
C2576 C2577 1.414 . S
C2576 C2579 1.499 . S
C2577 H2551 0.950 . S
C2577 C2576 1.414 . S
C2577 C2578 1.374 . S
C2578 H2552 0.950 . S
C2578 C2574 1.385 . S
C2578 C2577 1.374 . S
C2579 C2576 1.499 . S
C2579 C2580 1.373 . S
C2579 C2581 1.389 . S
C2580 H2553 0.950 . S
C2580 C2566 1.377 . S
C2580 C2579 1.373 . S
C2581 C2565 1.377 . S
C2581 C2579 1.389 . S
C2581 C2582 1.524 . S
C2582 C2581 1.524 . S
C2582 C2583 1.397 . S
C2582 C2587 1.363 . S
C2583 H2554 0.950 . S
C2583 C2582 1.397 . S
C2583 C2584 1.334 . S
C2584 H2555 0.950 . S
C2584 C2583 1.334 . S
C2584 C2585 1.287 . S
C2585 C2584 1.287 . S
C2585 C2586 1.524 . S
C2585 H2588 0.999 . S
C2586 H2556 0.950 . S
C2586 C2585 1.524 . S
C2586 C2587 1.415 . S
C2587 H2557 0.950 . S
C2587 C2582 1.363 . S
C2587 C2586 1.415 . S
H2588 C2585 0.999 . S
H2589 C2570 0.913 . S
H2590 C2608 0.951 . S
H2591 C2610 0.951 . S
H2592 C2612 0.950 . S
H2593 C2613 0.950 . S
H2594 C2615 0.950 . S
H2595 C2618 0.950 . S
H2596 C2619 0.950 . S
H2597 C2621 0.950 . S
H2598 C2622 0.950 . S
H2599 C2623 0.951 . S
H2600 C2625 0.951 . S
H2601 C2627 0.950 . S
H2602 C2628 0.950 . S
H2603 C2630 0.950 . S
H2604 C2633 0.950 . S
H2605 C2634 0.950 . S
H2606 C2636 0.950 . S
H2607 C2637 0.950 . S
C2608 H2590 0.951 . S
C2608 C2609 1.366 . S
C2608 C2610 1.388 . S
C2609 C2608 1.366 . S
C2609 C2613 1.385 . S
C2610 H2591 0.951 . S
C2610 C2608 1.388 . S
C2610 C2611 1.366 . S
C2611 C2610 1.366 . S
C2611 C2612 1.414 . S
C2611 C2614 1.499 . S
C2612 H2592 0.950 . S
C2612 C2611 1.414 . S
C2612 C2613 1.374 . S
C2613 H2593 0.950 . S
C2613 C2609 1.385 . S
C2613 C2612 1.374 . S
C2614 C2611 1.499 . S
C2614 C2615 1.373 . S
C2614 C2616 1.389 . S
C2615 H2594 0.950 . S
C2615 C2614 1.373 . S
C2615 C2631 1.377 . S
C2616 C2614 1.389 . S
C2616 C2617 1.524 . S
C2616 C2630 1.377 . S
C2617 C2616 1.524 . S
C2617 C2618 1.397 . S
C2617 C2622 1.363 . S
C2618 H2595 0.950 . S
C2618 C2617 1.397 . S
C2618 C2619 1.334 . S
C2619 H2596 0.950 . S
C2619 C2618 1.334 . S
C2619 C2620 1.287 . S
C2620 C2619 1.287 . S
C2620 C2621 1.524 . S
C2620 H2639 0.913 . S
C2621 H2597 0.950 . S
C2621 C2620 1.524 . S
C2621 C2622 1.415 . S
C2622 H2598 0.950 . S
C2622 C2617 1.363 . S
C2622 C2621 1.415 . S
C2623 H2599 0.951 . S
C2623 C2624 1.366 . S
C2623 C2625 1.388 . S
C2624 C2623 1.366 . S
C2624 C2628 1.385 . S
C2625 H2600 0.951 . S
C2625 C2623 1.388 . S
C2625 C2626 1.366 . S
C2626 C2625 1.366 . S
C2626 C2627 1.414 . S
C2626 C2629 1.499 . S
C2627 H2601 0.950 . S
C2627 C2626 1.414 . S
C2627 C2628 1.374 . S
C2628 H2602 0.950 . S
C2628 C2624 1.385 . S
C2628 C2627 1.374 . S
C2629 C2626 1.499 . S
C2629 C2630 1.373 . S
C2629 C2631 1.389 . S
C2630 H2603 0.950 . S
C2630 C2616 1.377 . S
C2630 C2629 1.373 . S
C2631 C2615 1.377 . S
C2631 C2629 1.389 . S
C2631 C2632 1.524 . S
C2632 C2631 1.524 . S
C2632 C2633 1.397 . S
C2632 C2637 1.363 . S
C2633 H2604 0.950 . S
C2633 C2632 1.397 . S
C2633 C2634 1.334 . S
C2634 H2605 0.950 . S
C2634 C2633 1.334 . S
C2634 C2635 1.287 . S
C2635 C2634 1.287 . S
C2635 C2636 1.524 . S
C2635 H2638 0.999 . S
C2636 H2606 0.950 . S
C2636 C2635 1.524 . S
C2636 C2637 1.415 . S
C2637 H2607 0.950 . S
C2637 C2632 1.363 . S
C2637 C2636 1.415 . S
H2638 C2635 0.999 . S
H2639 C2620 0.913 . S
H2640 C2658 0.951 . S
H2641 C2660 0.951 . S
H2642 C2662 0.950 . S
H2643 C2663 0.950 . S
H2644 C2665 0.950 . S
H2645 C2668 0.950 . S
H2646 C2669 0.950 . S
H2647 C2671 0.950 . S
H2648 C2672 0.950 . S
H2649 C2673 0.951 . S
H2650 C2675 0.951 . S
H2651 C2677 0.950 . S
H2652 C2678 0.950 . S
H2653 C2680 0.950 . S
H2654 C2683 0.950 . S
H2655 C2684 0.950 . S
H2656 C2686 0.950 . S
H2657 C2687 0.950 . S
C2658 H2640 0.951 . S
C2658 C2659 1.366 . S
C2658 C2660 1.388 . S
C2659 C2658 1.366 . S
C2659 C2663 1.385 . S
C2660 H2641 0.951 . S
C2660 C2658 1.388 . S
C2660 C2661 1.366 . S
C2661 C2660 1.366 . S
C2661 C2662 1.414 . S
C2661 C2664 1.499 . S
C2662 H2642 0.950 . S
C2662 C2661 1.414 . S
C2662 C2663 1.374 . S
C2663 H2643 0.950 . S
C2663 C2659 1.385 . S
C2663 C2662 1.374 . S
C2664 C2661 1.499 . S
C2664 C2665 1.373 . S
C2664 C2666 1.389 . S
C2665 H2644 0.950 . S
C2665 C2664 1.373 . S
C2665 C2681 1.377 . S
C2666 C2664 1.389 . S
C2666 C2667 1.524 . S
C2666 C2680 1.377 . S
C2667 C2666 1.524 . S
C2667 C2668 1.397 . S
C2667 C2672 1.363 . S
C2668 H2645 0.950 . S
C2668 C2667 1.397 . S
C2668 C2669 1.334 . S
C2669 H2646 0.950 . S
C2669 C2668 1.334 . S
C2669 C2670 1.287 . S
C2670 C2669 1.287 . S
C2670 C2671 1.524 . S
C2670 H2689 0.913 . S
C2671 H2647 0.950 . S
C2671 C2670 1.524 . S
C2671 C2672 1.415 . S
C2672 H2648 0.950 . S
C2672 C2667 1.363 . S
C2672 C2671 1.415 . S
C2673 H2649 0.951 . S
C2673 C2674 1.366 . S
C2673 C2675 1.388 . S
C2674 C2673 1.366 . S
C2674 C2678 1.385 . S
C2675 H2650 0.951 . S
C2675 C2673 1.388 . S
C2675 C2676 1.366 . S
C2676 C2675 1.366 . S
C2676 C2677 1.414 . S
C2676 C2679 1.499 . S
C2677 H2651 0.950 . S
C2677 C2676 1.414 . S
C2677 C2678 1.374 . S
C2678 H2652 0.950 . S
C2678 C2674 1.385 . S
C2678 C2677 1.374 . S
C2679 C2676 1.499 . S
C2679 C2680 1.373 . S
C2679 C2681 1.389 . S
C2680 H2653 0.950 . S
C2680 C2666 1.377 . S
C2680 C2679 1.373 . S
C2681 C2665 1.377 . S
C2681 C2679 1.389 . S
C2681 C2682 1.524 . S
C2682 C2681 1.524 . S
C2682 C2683 1.397 . S
C2682 C2687 1.363 . S
C2683 H2654 0.950 . S
C2683 C2682 1.397 . S
C2683 C2684 1.334 . S
C2684 H2655 0.950 . S
C2684 C2683 1.334 . S
C2684 C2685 1.287 . S
C2685 C2684 1.287 . S
C2685 C2686 1.524 . S
C2685 H2688 0.999 . S
C2686 H2656 0.950 . S
C2686 C2685 1.524 . S
C2686 C2687 1.415 . S
C2687 H2657 0.950 . S
C2687 C2682 1.363 . S
C2687 C2686 1.415 . S
H2688 C2685 0.999 . S
H2689 C2670 0.913 . S
H2690 C2708 0.951 . S
H2691 C2710 0.951 . S
H2692 C2712 0.950 . S
H2693 C2713 0.950 . S
H2694 C2715 0.950 . S
H2695 C2718 0.950 . S
H2696 C2719 0.950 . S
H2697 C2721 0.950 . S
H2698 C2722 0.950 . S
H2699 C2723 0.951 . S
H2700 C2725 0.951 . S
H2701 C2727 0.950 . S
H2702 C2728 0.950 . S
H2703 C2730 0.950 . S
H2704 C2733 0.950 . S
H2705 C2734 0.950 . S
H2706 C2736 0.950 . S
H2707 C2737 0.950 . S
C2708 H2690 0.951 . S
C2708 C2709 1.366 . S
C2708 C2710 1.388 . S
C2709 C2708 1.366 . S
C2709 C2713 1.385 . S
C2710 H2691 0.951 . S
C2710 C2708 1.388 . S
C2710 C2711 1.366 . S
C2711 C2710 1.366 . S
C2711 C2712 1.414 . S
C2711 C2714 1.499 . S
C2712 H2692 0.950 . S
C2712 C2711 1.414 . S
C2712 C2713 1.374 . S
C2713 H2693 0.950 . S
C2713 C2709 1.385 . S
C2713 C2712 1.374 . S
C2714 C2711 1.499 . S
C2714 C2715 1.373 . S
C2714 C2716 1.389 . S
C2715 H2694 0.950 . S
C2715 C2714 1.373 . S
C2715 C2731 1.377 . S
C2716 C2714 1.389 . S
C2716 C2717 1.524 . S
C2716 C2730 1.377 . S
C2717 C2716 1.524 . S
C2717 C2718 1.397 . S
C2717 C2722 1.363 . S
C2718 H2695 0.950 . S
C2718 C2717 1.397 . S
C2718 C2719 1.334 . S
C2719 H2696 0.950 . S
C2719 C2718 1.334 . S
C2719 C2720 1.287 . S
C2720 C2719 1.287 . S
C2720 C2721 1.524 . S
C2720 H2739 0.913 . S
C2721 H2697 0.950 . S
C2721 C2720 1.524 . S
C2721 C2722 1.415 . S
C2722 H2698 0.950 . S
C2722 C2717 1.363 . S
C2722 C2721 1.415 . S
C2723 H2699 0.951 . S
C2723 C2724 1.366 . S
C2723 C2725 1.388 . S
C2724 C2723 1.366 . S
C2724 C2728 1.385 . S
C2725 H2700 0.951 . S
C2725 C2723 1.388 . S
C2725 C2726 1.366 . S
C2726 C2725 1.366 . S
C2726 C2727 1.414 . S
C2726 C2729 1.499 . S
C2727 H2701 0.950 . S
C2727 C2726 1.414 . S
C2727 C2728 1.374 . S
C2728 H2702 0.950 . S
C2728 C2724 1.385 . S
C2728 C2727 1.374 . S
C2729 C2726 1.499 . S
C2729 C2730 1.373 . S
C2729 C2731 1.389 . S
C2730 H2703 0.950 . S
C2730 C2716 1.377 . S
C2730 C2729 1.373 . S
C2731 C2715 1.377 . S
C2731 C2729 1.389 . S
C2731 C2732 1.524 . S
C2732 C2731 1.524 . S
C2732 C2733 1.397 . S
C2732 C2737 1.363 . S
C2733 H2704 0.950 . S
C2733 C2732 1.397 . S
C2733 C2734 1.334 . S
C2734 H2705 0.950 . S
C2734 C2733 1.334 . S
C2734 C2735 1.287 . S
C2735 C2734 1.287 . S
C2735 C2736 1.524 . S
C2735 H2738 0.999 . S
C2736 H2706 0.950 . S
C2736 C2735 1.524 . S
C2736 C2737 1.415 . S
C2737 H2707 0.950 . S
C2737 C2732 1.363 . S
C2737 C2736 1.415 . S
H2738 C2735 0.999 . S
H2739 C2720 0.913 . S
H2740 C2758 0.951 . S
H2741 C2760 0.951 . S
H2742 C2762 0.950 . S
H2743 C2763 0.950 . S
H2744 C2765 0.950 . S
H2745 C2768 0.950 . S
H2746 C2769 0.950 . S
H2747 C2771 0.950 . S
H2748 C2772 0.950 . S
H2749 C2773 0.951 . S
H2750 C2775 0.951 . S
H2751 C2777 0.950 . S
H2752 C2778 0.950 . S
H2753 C2780 0.950 . S
H2754 C2783 0.950 . S
H2755 C2784 0.950 . S
H2756 C2786 0.950 . S
H2757 C2787 0.950 . S
C2758 H2740 0.951 . S
C2758 C2759 1.366 . S
C2758 C2760 1.388 . S
C2759 C2758 1.366 . S
C2759 C2763 1.385 . S
C2760 H2741 0.951 . S
C2760 C2758 1.388 . S
C2760 C2761 1.366 . S
C2761 C2760 1.366 . S
C2761 C2762 1.414 . S
C2761 C2764 1.499 . S
C2762 H2742 0.950 . S
C2762 C2761 1.414 . S
C2762 C2763 1.374 . S
C2763 H2743 0.950 . S
C2763 C2759 1.385 . S
C2763 C2762 1.374 . S
C2764 C2761 1.499 . S
C2764 C2765 1.373 . S
C2764 C2766 1.389 . S
C2765 H2744 0.950 . S
C2765 C2764 1.373 . S
C2765 C2781 1.377 . S
C2766 C2764 1.389 . S
C2766 C2767 1.524 . S
C2766 C2780 1.377 . S
C2767 C2766 1.524 . S
C2767 C2768 1.397 . S
C2767 C2772 1.363 . S
C2768 H2745 0.950 . S
C2768 C2767 1.397 . S
C2768 C2769 1.334 . S
C2769 H2746 0.950 . S
C2769 C2768 1.334 . S
C2769 C2770 1.287 . S
C2770 C2769 1.287 . S
C2770 C2771 1.524 . S
C2770 H2789 0.913 . S
C2771 H2747 0.950 . S
C2771 C2770 1.524 . S
C2771 C2772 1.415 . S
C2772 H2748 0.950 . S
C2772 C2767 1.363 . S
C2772 C2771 1.415 . S
C2773 H2749 0.951 . S
C2773 C2774 1.366 . S
C2773 C2775 1.388 . S
C2774 C2773 1.366 . S
C2774 C2778 1.385 . S
C2775 H2750 0.951 . S
C2775 C2773 1.388 . S
C2775 C2776 1.366 . S
C2776 C2775 1.366 . S
C2776 C2777 1.414 . S
C2776 C2779 1.499 . S
C2777 H2751 0.950 . S
C2777 C2776 1.414 . S
C2777 C2778 1.374 . S
C2778 H2752 0.950 . S
C2778 C2774 1.385 . S
C2778 C2777 1.374 . S
C2779 C2776 1.499 . S
C2779 C2780 1.373 . S
C2779 C2781 1.389 . S
C2780 H2753 0.950 . S
C2780 C2766 1.377 . S
C2780 C2779 1.373 . S
C2781 C2765 1.377 . S
C2781 C2779 1.389 . S
C2781 C2782 1.524 . S
C2782 C2781 1.524 . S
C2782 C2783 1.397 . S
C2782 C2787 1.363 . S
C2783 H2754 0.950 . S
C2783 C2782 1.397 . S
C2783 C2784 1.334 . S
C2784 H2755 0.950 . S
C2784 C2783 1.334 . S
C2784 C2785 1.287 . S
C2785 C2784 1.287 . S
C2785 C2786 1.524 . S
C2785 H2788 0.999 . S
C2786 H2756 0.950 . S
C2786 C2785 1.524 . S
C2786 C2787 1.415 . S
C2787 H2757 0.950 . S
C2787 C2782 1.363 . S
C2787 C2786 1.415 . S
H2788 C2785 0.999 . S
H2789 C2770 0.913 . S
H2790 C2808 0.951 . S
H2791 C2810 0.951 . S
H2792 C2812 0.950 . S
H2793 C2813 0.950 . S
H2794 C2815 0.950 . S
H2795 C2818 0.950 . S
H2796 C2819 0.950 . S
H2797 C2821 0.950 . S
H2798 C2822 0.950 . S
H2799 C2823 0.951 . S
H2800 C2825 0.951 . S
H2801 C2827 0.950 . S
H2802 C2828 0.950 . S
H2803 C2830 0.950 . S
H2804 C2833 0.950 . S
H2805 C2834 0.950 . S
H2806 C2836 0.950 . S
H2807 C2837 0.950 . S
C2808 H2790 0.951 . S
C2808 C2809 1.366 . S
C2808 C2810 1.388 . S
C2809 C2808 1.366 . S
C2809 C2813 1.385 . S
C2810 H2791 0.951 . S
C2810 C2808 1.388 . S
C2810 C2811 1.366 . S
C2811 C2810 1.366 . S
C2811 C2812 1.414 . S
C2811 C2814 1.499 1_565 S
C2812 H2792 0.950 . S
C2812 C2811 1.414 . S
C2812 C2813 1.374 . S
C2813 H2793 0.950 . S
C2813 C2809 1.385 . S
C2813 C2812 1.374 . S
C2814 C2811 1.499 1_545 S
C2814 C2815 1.373 . S
C2814 C2816 1.389 . S
C2815 H2794 0.950 . S
C2815 C2814 1.373 . S
C2815 C2831 1.377 . S
C2816 C2814 1.389 . S
C2816 C2817 1.524 . S
C2816 C2830 1.377 . S
C2817 C2816 1.524 . S
C2817 C2818 1.396 1_545 S
C2817 C2822 1.363 . S
C2818 H2795 0.950 . S
C2818 C2817 1.396 1_565 S
C2818 C2819 1.334 . S
C2819 H2796 0.950 . S
C2819 C2818 1.334 . S
C2819 C2820 1.287 . S
C2820 C2819 1.287 . S
C2820 C2821 1.524 1_565 S
C2820 H2839 0.913 . S
C2821 H2797 0.950 . S
C2821 C2820 1.524 1_545 S
C2821 C2822 1.415 . S
C2822 H2798 0.950 . S
C2822 C2817 1.363 . S
C2822 C2821 1.415 . S
C2823 H2799 0.951 . S
C2823 C2824 1.366 . S
C2823 C2825 1.388 . S
C2824 C2823 1.366 . S
C2824 C2828 1.385 . S
C2825 H2800 0.951 . S
C2825 C2823 1.388 . S
C2825 C2826 1.366 . S
C2826 C2825 1.366 . S
C2826 C2827 1.414 . S
C2826 C2829 1.499 . S
C2827 H2801 0.950 . S
C2827 C2826 1.414 . S
C2827 C2828 1.374 . S
C2828 H2802 0.950 . S
C2828 C2824 1.385 . S
C2828 C2827 1.374 . S
C2829 C2826 1.499 . S
C2829 C2830 1.373 . S
C2829 C2831 1.389 . S
C2830 H2803 0.950 . S
C2830 C2816 1.377 . S
C2830 C2829 1.373 . S
C2831 C2815 1.377 . S
C2831 C2829 1.389 . S
C2831 C2832 1.524 . S
C2832 C2831 1.524 . S
C2832 C2833 1.397 . S
C2832 C2837 1.363 . S
C2833 H2804 0.950 . S
C2833 C2832 1.397 . S
C2833 C2834 1.334 . S
C2834 H2805 0.950 . S
C2834 C2833 1.334 . S
C2834 C2835 1.287 . S
C2835 C2834 1.287 . S
C2835 C2836 1.524 . S
C2835 H2838 0.999 . S
C2836 H2806 0.950 . S
C2836 C2835 1.524 . S
C2836 C2837 1.415 . S
C2837 H2807 0.950 . S
C2837 C2832 1.363 . S
C2837 C2836 1.415 . S
H2838 C2835 0.999 . S
H2839 C2820 0.913 . S
H2840 C2858 0.951 . S
H2841 C2860 0.951 . S
H2842 C2862 0.983 . S
H2843 C2863 0.950 . S
H2844 C2865 0.950 . S
H2845 C2868 0.950 . S
H2846 C2869 0.950 . S
H2847 C2871 0.950 . S
H2848 C2872 0.950 . S
H2849 C2873 0.951 . S
H2850 C2875 0.951 . S
H2851 C2877 0.950 . S
H2852 C2878 0.950 . S
H2853 C2880 0.950 . S
H2854 C2883 0.950 . S
H2855 C2884 0.950 . S
H2856 C2886 0.950 . S
H2857 C2887 0.950 . S
C2858 H2840 0.951 . S
C2858 C2859 1.366 . S
C2858 C2860 1.388 . S
C2859 C2858 1.366 . S
C2859 C2863 1.385 . S
C2860 H2841 0.951 . S
C2860 C2858 1.388 . S
C2860 C2861 1.366 1_455 S
C2861 C2860 1.366 1_655 S
C2861 C2862 1.412 . S
C2861 C2864 1.499 . S
C2862 H2842 0.983 . S
C2862 C2861 1.412 . S
C2862 C2863 1.344 1_655 S
C2863 H2843 0.950 . S
C2863 C2859 1.385 . S
C2863 C2862 1.344 1_455 S
C2864 C2861 1.499 . S
C2864 C2865 1.373 . S
C2864 C2866 1.389 . S
C2865 H2844 0.950 . S
C2865 C2864 1.373 . S
C2865 C2881 1.377 . S
C2866 C2864 1.389 . S
C2866 C2867 1.524 . S
C2866 C2880 1.377 . S
C2867 C2866 1.524 . S
C2867 C2868 1.397 . S
C2867 C2872 1.363 . S
C2868 H2845 0.950 . S
C2868 C2867 1.397 . S
C2868 C2869 1.334 . S
C2869 H2846 0.950 . S
C2869 C2868 1.334 . S
C2869 C2870 1.287 . S
C2870 C2869 1.287 . S
C2870 C2871 1.524 . S
C2870 H2889 0.913 . S
C2871 H2847 0.950 . S
C2871 C2870 1.524 . S
C2871 C2872 1.415 . S
C2872 H2848 0.950 . S
C2872 C2867 1.363 . S
C2872 C2871 1.415 . S
C2873 H2849 0.951 . S
C2873 C2874 1.366 . S
C2873 C2875 1.388 . S
C2874 C2873 1.366 . S
C2874 C2878 1.385 . S
C2875 H2850 0.951 . S
C2875 C2873 1.388 . S
C2875 C2876 1.366 . S
C2876 C2875 1.366 . S
C2876 C2877 1.414 . S
C2876 C2879 1.499 . S
C2877 H2851 0.950 . S
C2877 C2876 1.414 . S
C2877 C2878 1.374 . S
C2878 H2852 0.950 . S
C2878 C2874 1.385 . S
C2878 C2877 1.374 . S
C2879 C2876 1.499 . S
C2879 C2880 1.373 . S
C2879 C2881 1.389 . S
C2880 H2853 0.950 . S
C2880 C2866 1.377 . S
C2880 C2879 1.373 . S
C2881 C2865 1.377 . S
C2881 C2879 1.389 . S
C2881 C2882 1.524 . S
C2882 C2881 1.524 . S
C2882 C2883 1.397 . S
C2882 C2887 1.363 . S
C2883 H2854 0.950 . S
C2883 C2882 1.397 . S
C2883 C2884 1.334 . S
C2884 H2855 0.950 . S
C2884 C2883 1.334 . S
C2884 C2885 1.287 . S
C2885 C2884 1.287 . S
C2885 C2886 1.524 . S
C2885 H2888 0.999 . S
C2886 H2856 0.950 . S
C2886 C2885 1.524 . S
C2886 C2887 1.415 . S
C2887 H2857 0.950 . S
C2887 C2882 1.363 . S
C2887 C2886 1.415 . S
H2888 C2885 0.999 . S
H2889 C2870 0.913 . S
H2890 C2908 0.951 . S
H2891 C2910 0.951 . S
H2892 C2912 0.950 . S
H2893 C2913 0.950 . S
H2894 C2915 0.950 . S
H2895 C2918 0.950 . S
H2896 C2919 0.950 . S
H2897 C2921 0.950 . S
H2898 C2922 0.950 . S
H2899 C2923 0.951 . S
H2900 C2925 0.951 . S
H2901 C2927 0.950 . S
H2902 C2928 0.950 . S
H2903 C2930 0.950 . S
H2904 C2933 0.950 . S
H2905 C2934 0.950 . S
H2906 C2936 0.950 . S
H2907 C2937 0.950 . S
C2908 H2890 0.951 . S
C2908 C2909 1.366 . S
C2908 C2910 1.388 . S
C2909 C2908 1.366 . S
C2909 C2913 1.385 . S
C2910 H2891 0.951 . S
C2910 C2908 1.388 . S
C2910 C2911 1.366 . S
C2911 C2910 1.366 . S
C2911 C2912 1.414 . S
C2911 C2914 1.499 . S
C2912 H2892 0.950 . S
C2912 C2911 1.414 . S
C2912 C2913 1.374 . S
C2913 H2893 0.950 . S
C2913 C2909 1.385 . S
C2913 C2912 1.374 . S
C2914 C2911 1.499 . S
C2914 C2915 1.373 . S
C2914 C2916 1.389 . S
C2915 H2894 0.950 . S
C2915 C2914 1.373 . S
C2915 C2931 1.377 . S
C2916 C2914 1.389 . S
C2916 C2917 1.524 . S
C2916 C2930 1.377 . S
C2917 C2916 1.524 . S
C2917 C2918 1.397 . S
C2917 C2922 1.363 . S
C2918 H2895 0.950 . S
C2918 C2917 1.397 . S
C2918 C2919 1.334 . S
C2919 H2896 0.950 . S
C2919 C2918 1.334 . S
C2919 C2920 1.287 . S
C2920 C2919 1.287 . S
C2920 C2921 1.524 . S
C2920 H2939 0.913 . S
C2921 H2897 0.950 . S
C2921 C2920 1.524 . S
C2921 C2922 1.415 . S
C2922 H2898 0.950 . S
C2922 C2917 1.363 . S
C2922 C2921 1.415 . S
C2923 H2899 0.951 . S
C2923 C2924 1.366 . S
C2923 C2925 1.388 . S
C2924 C2923 1.366 . S
C2924 C2928 1.385 . S
C2925 H2900 0.951 . S
C2925 C2923 1.388 . S
C2925 C2926 1.366 . S
C2926 C2925 1.366 . S
C2926 C2927 1.414 . S
C2926 C2929 1.499 . S
C2927 H2901 0.950 . S
C2927 C2926 1.414 . S
C2927 C2928 1.374 . S
C2928 H2902 0.950 . S
C2928 C2924 1.385 . S
C2928 C2927 1.374 . S
C2929 C2926 1.499 . S
C2929 C2930 1.373 . S
C2929 C2931 1.389 . S
C2930 H2903 0.950 . S
C2930 C2916 1.377 . S
C2930 C2929 1.373 . S
C2931 C2915 1.377 . S
C2931 C2929 1.389 . S
C2931 C2932 1.524 . S
C2932 C2931 1.524 . S
C2932 C2933 1.397 . S
C2932 C2937 1.363 . S
C2933 H2904 0.950 . S
C2933 C2932 1.397 . S
C2933 C2934 1.334 . S
C2934 H2905 0.950 . S
C2934 C2933 1.334 . S
C2934 C2935 1.287 . S
C2935 C2934 1.287 . S
C2935 C2936 1.524 . S
C2935 H2938 0.999 . S
C2936 H2906 0.950 . S
C2936 C2935 1.524 . S
C2936 C2937 1.415 . S
C2937 H2907 0.950 . S
C2937 C2932 1.363 . S
C2937 C2936 1.415 . S
H2938 C2935 0.999 . S
H2939 C2920 0.913 . S
H2940 C2958 0.951 . S
H2941 C2960 0.951 . S
H2942 C2962 0.950 . S
H2943 C2963 0.950 . S
H2944 C2965 0.950 . S
H2945 C2968 0.950 . S
H2946 C2969 0.950 . S
H2947 C2971 0.950 . S
H2948 C2972 0.950 . S
H2949 C2973 0.951 . S
H2950 C2975 0.951 . S
H2951 C2977 0.950 . S
H2952 C2978 0.950 . S
H2953 C2980 0.950 . S
H2954 C2983 0.950 . S
H2955 C2984 0.950 . S
H2956 C2986 0.950 . S
H2957 C2987 0.950 . S
C2958 H2940 0.951 . S
C2958 C2959 1.366 . S
C2958 C2960 1.388 . S
C2959 C2958 1.366 . S
C2959 C2963 1.385 . S
C2960 H2941 0.951 . S
C2960 C2958 1.388 . S
C2960 C2961 1.366 . S
C2961 C2960 1.366 . S
C2961 C2962 1.414 . S
C2961 C2964 1.499 1_455 S
C2962 H2942 0.950 . S
C2962 C2961 1.414 . S
C2962 C2963 1.374 . S
C2963 H2943 0.950 . S
C2963 C2959 1.385 . S
C2963 C2962 1.374 . S
C2964 C2961 1.499 1_655 S
C2964 C2965 1.373 . S
C2964 C2966 1.389 . S
C2965 H2944 0.950 . S
C2965 C2964 1.373 . S
C2965 C2981 1.377 . S
C2966 C2964 1.389 . S
C2966 C2967 1.524 . S
C2966 C2980 1.377 . S
C2967 C2966 1.524 . S
C2967 C2968 1.397 1_655 S
C2967 C2972 1.363 . S
C2968 H2945 0.950 . S
C2968 C2967 1.397 1_455 S
C2968 C2969 1.334 . S
C2969 H2946 0.950 . S
C2969 C2968 1.334 . S
C2969 C2970 1.287 . S
C2970 C2969 1.287 . S
C2970 C2971 1.524 . S
C2970 H2989 0.913 . S
C2971 H2947 0.950 . S
C2971 C2970 1.524 . S
C2971 C2972 1.415 1_455 S
C2972 H2948 0.950 . S
C2972 C2967 1.363 . S
C2972 C2971 1.415 1_655 S
C2973 H2949 0.951 . S
C2973 C2974 1.366 . S
C2973 C2975 1.388 . S
C2974 C2973 1.366 . S
C2974 C2978 1.385 . S
C2975 H2950 0.951 . S
C2975 C2973 1.388 . S
C2975 C2976 1.366 . S
C2976 C2975 1.366 . S
C2976 C2977 1.414 . S
C2976 C2979 1.499 . S
C2977 H2951 0.950 . S
C2977 C2976 1.414 . S
C2977 C2978 1.374 . S
C2978 H2952 0.950 . S
C2978 C2974 1.385 . S
C2978 C2977 1.374 . S
C2979 C2976 1.499 . S
C2979 C2980 1.373 . S
C2979 C2981 1.389 . S
C2980 H2953 0.950 . S
C2980 C2966 1.377 . S
C2980 C2979 1.373 . S
C2981 C2965 1.377 . S
C2981 C2979 1.389 . S
C2981 C2982 1.524 . S
C2982 C2981 1.524 . S
C2982 C2983 1.397 . S
C2982 C2987 1.363 . S
C2983 H2954 0.950 . S
C2983 C2982 1.397 . S
C2983 C2984 1.334 . S
C2984 H2955 0.950 . S
C2984 C2983 1.334 . S
C2984 C2985 1.287 . S
C2985 C2984 1.287 . S
C2985 C2986 1.524 . S
C2985 H2988 0.999 . S
C2986 H2956 0.950 . S
C2986 C2985 1.524 . S
C2986 C2987 1.415 . S
C2987 H2957 0.950 . S
C2987 C2982 1.363 . S
C2987 C2986 1.415 . S
H2988 C2985 0.999 . S
H2989 C2970 0.913 . S
H2990 C3008 0.951 . S
H2991 C3010 0.951 . S
H2992 C3012 0.950 . S
H2993 C3013 0.950 . S
H2994 C3015 0.950 . S
H2995 C3018 0.950 . S
H2996 C3019 0.950 . S
H2997 C3021 0.950 . S
H2998 C3022 0.950 . S
H2999 C3023 0.951 . S
H3000 C3025 0.951 . S
H3001 C3027 0.950 . S
H3002 C3028 0.950 . S
H3003 C3030 0.950 . S
H3004 C3033 0.950 . S
H3005 C3034 0.950 . S
H3006 C3036 0.950 . S
H3007 C3037 0.950 . S
C3008 H2990 0.951 . S
C3008 C3009 1.366 . S
C3008 C3010 1.388 . S
C3009 C3008 1.366 . S
C3009 C3013 1.385 . S
C3010 H2991 0.951 . S
C3010 C3008 1.388 . S
C3010 C3011 1.366 . S
C3011 C3010 1.366 . S
C3011 C3012 1.414 . S
C3011 C3014 1.499 . S
C3012 H2992 0.950 . S
C3012 C3011 1.414 . S
C3012 C3013 1.374 . S
C3013 H2993 0.950 . S
C3013 C3009 1.385 . S
C3013 C3012 1.374 . S
C3014 C3011 1.499 . S
C3014 C3015 1.373 . S
C3014 C3016 1.389 . S
C3015 H2994 0.950 . S
C3015 C3014 1.373 . S
C3015 C3031 1.377 . S
C3016 C3014 1.389 . S
C3016 C3017 1.524 . S
C3016 C3030 1.377 . S
C3017 C3016 1.524 . S
C3017 C3018 1.397 . S
C3017 C3022 1.363 . S
C3018 H2995 0.950 . S
C3018 C3017 1.397 . S
C3018 C3019 1.334 . S
C3019 H2996 0.950 . S
C3019 C3018 1.334 . S
C3019 C3020 1.287 . S
C3020 C3019 1.287 . S
C3020 C3021 1.524 . S
C3020 H3039 0.913 . S
C3021 H2997 0.950 . S
C3021 C3020 1.524 . S
C3021 C3022 1.415 . S
C3022 H2998 0.950 . S
C3022 C3017 1.363 . S
C3022 C3021 1.415 . S
C3023 H2999 0.951 . S
C3023 C3024 1.366 . S
C3023 C3025 1.388 . S
C3024 C3023 1.366 . S
C3024 C3028 1.385 . S
C3025 H3000 0.951 . S
C3025 C3023 1.388 . S
C3025 C3026 1.366 . S
C3026 C3025 1.366 . S
C3026 C3027 1.414 . S
C3026 C3029 1.499 . S
C3027 H3001 0.950 . S
C3027 C3026 1.414 . S
C3027 C3028 1.374 . S
C3028 H3002 0.950 . S
C3028 C3024 1.385 . S
C3028 C3027 1.374 . S
C3029 C3026 1.499 . S
C3029 C3030 1.373 . S
C3029 C3031 1.389 . S
C3030 H3003 0.950 . S
C3030 C3016 1.377 . S
C3030 C3029 1.373 . S
C3031 C3015 1.377 . S
C3031 C3029 1.389 . S
C3031 C3032 1.524 . S
C3032 C3031 1.524 . S
C3032 C3033 1.397 . S
C3032 C3037 1.363 . S
C3033 H3004 0.950 . S
C3033 C3032 1.397 . S
C3033 C3034 1.334 . S
C3034 H3005 0.950 . S
C3034 C3033 1.334 . S
C3034 C3035 1.287 . S
C3035 C3034 1.287 . S
C3035 C3036 1.524 . S
C3035 H3038 0.999 . S
C3036 H3006 0.950 . S
C3036 C3035 1.524 . S
C3036 C3037 1.415 . S
C3037 H3007 0.950 . S
C3037 C3032 1.363 . S
C3037 C3036 1.415 . S
H3038 C3035 0.999 . S
H3039 C3020 0.913 . S
H3040 C3058 0.951 . S
H3041 C3060 0.951 . S
H3042 C3062 0.950 . S
H3043 C3063 0.950 . S
H3044 C3065 0.950 . S
H3045 C3068 0.950 . S
H3046 C3069 0.950 . S
H3047 C3071 0.950 . S
H3048 C3072 0.950 . S
H3049 C3073 0.951 . S
H3050 C3075 0.951 . S
H3051 C3077 0.950 . S
H3052 C3078 0.950 . S
H3053 C3080 0.950 . S
H3054 C3083 0.950 . S
H3055 C3084 0.950 . S
H3056 C3086 0.950 . S
H3057 C3087 0.950 . S
C3058 H3040 0.951 . S
C3058 C3059 1.366 . S
C3058 C3060 1.388 . S
C3059 C3058 1.366 . S
C3059 C3063 1.385 . S
C3060 H3041 0.951 . S
C3060 C3058 1.388 . S
C3060 C3061 1.366 . S
C3061 C3060 1.366 . S
C3061 C3062 1.414 . S
C3061 C3064 1.504 1_565 S
C3062 H3042 0.950 . S
C3062 C3061 1.414 . S
C3062 C3063 1.374 . S
C3063 H3043 0.950 . S
C3063 C3059 1.385 . S
C3063 C3062 1.374 . S
C3064 C3061 1.504 1_545 S
C3064 C3065 1.373 . S
C3064 C3066 1.384 . S
C3065 H3044 0.950 . S
C3065 C3064 1.373 . S
C3065 C3081 1.377 . S
C3066 C3064 1.384 . S
C3066 C3067 1.524 . S
C3066 C3080 1.377 . S
C3067 C3066 1.524 . S
C3067 C3068 1.397 1_545 S
C3067 C3072 1.363 . S
C3068 H3045 0.950 . S
C3068 C3067 1.397 1_565 S
C3068 C3069 1.334 . S
C3069 H3046 0.950 . S
C3069 C3068 1.334 . S
C3069 C3070 1.287 . S
C3070 C3069 1.287 . S
C3070 C3071 1.524 . S
C3070 H3089 0.913 . S
C3071 H3047 0.950 . S
C3071 C3070 1.524 . S
C3071 C3072 1.415 1_565 S
C3072 H3048 0.950 . S
C3072 C3067 1.363 . S
C3072 C3071 1.415 1_545 S
C3073 H3049 0.951 . S
C3073 C3074 1.366 . S
C3073 C3075 1.388 . S
C3074 C3073 1.366 . S
C3074 C3078 1.385 . S
C3075 H3050 0.951 . S
C3075 C3073 1.388 . S
C3075 C3076 1.366 . S
C3076 C3075 1.366 . S
C3076 C3077 1.414 . S
C3076 C3079 1.499 . S
C3077 H3051 0.950 . S
C3077 C3076 1.414 . S
C3077 C3078 1.374 . S
C3078 H3052 0.950 . S
C3078 C3074 1.385 . S
C3078 C3077 1.374 . S
C3079 C3076 1.499 . S
C3079 C3080 1.373 . S
C3079 C3081 1.389 . S
C3080 H3053 0.950 . S
C3080 C3066 1.377 . S
C3080 C3079 1.373 . S
C3081 C3065 1.377 . S
C3081 C3079 1.389 . S
C3081 C3082 1.524 . S
C3082 C3081 1.524 . S
C3082 C3083 1.397 . S
C3082 C3087 1.363 . S
C3083 H3054 0.950 . S
C3083 C3082 1.397 . S
C3083 C3084 1.334 . S
C3084 H3055 0.950 . S
C3084 C3083 1.334 . S
C3084 C3085 1.287 . S
C3085 C3084 1.287 . S
C3085 C3086 1.524 . S
C3085 H3088 0.999 . S
C3086 H3056 0.950 . S
C3086 C3085 1.524 . S
C3086 C3087 1.415 . S
C3087 H3057 0.950 . S
C3087 C3082 1.363 . S
C3087 C3086 1.415 . S
H3088 C3085 0.999 . S
H3089 C3070 0.913 . S
H3090 C3108 0.951 . S
H3091 C3110 0.951 . S
H3092 C3112 0.950 . S
H3093 C3113 0.950 . S
H3094 C3115 0.950 . S
H3095 C3118 0.950 . S
H3096 C3119 0.950 . S
H3097 C3121 0.950 . S
H3098 C3122 0.950 . S
H3099 C3123 0.951 . S
H3100 C3125 0.951 . S
H3101 C3127 0.950 . S
H3102 C3128 0.950 . S
H3103 C3130 0.950 . S
H3104 C3133 0.950 . S
H3105 C3134 0.950 . S
H3106 C3136 0.950 . S
H3107 C3137 0.950 . S
C3108 H3090 0.951 . S
C3108 C3109 1.366 . S
C3108 C3110 1.388 . S
C3109 C3108 1.366 . S
C3109 C3113 1.385 . S
C3110 H3091 0.951 . S
C3110 C3108 1.388 . S
C3110 C3111 1.366 . S
C3111 C3110 1.366 . S
C3111 C3112 1.414 . S
C3111 C3114 1.499 . S
C3112 H3092 0.950 . S
C3112 C3111 1.414 . S
C3112 C3113 1.374 . S
C3113 H3093 0.950 . S
C3113 C3109 1.385 . S
C3113 C3112 1.374 . S
C3114 C3111 1.499 . S
C3114 C3115 1.373 . S
C3114 C3116 1.389 . S
C3115 H3094 0.950 . S
C3115 C3114 1.373 . S
C3115 C3131 1.377 . S
C3116 C3114 1.389 . S
C3116 C3117 1.524 . S
C3116 C3130 1.377 . S
C3117 C3116 1.524 . S
C3117 C3118 1.397 . S
C3117 C3122 1.363 . S
C3118 H3095 0.950 . S
C3118 C3117 1.397 . S
C3118 C3119 1.334 . S
C3119 H3096 0.950 . S
C3119 C3118 1.334 . S
C3119 C3120 1.287 . S
C3120 C3119 1.287 . S
C3120 C3121 1.524 . S
C3120 H3139 0.913 . S
C3121 H3097 0.950 . S
C3121 C3120 1.524 . S
C3121 C3122 1.415 . S
C3122 H3098 0.950 . S
C3122 C3117 1.363 . S
C3122 C3121 1.415 . S
C3123 H3099 0.951 . S
C3123 C3124 1.366 . S
C3123 C3125 1.388 . S
C3124 C3123 1.366 . S
C3124 C3128 1.385 . S
C3125 H3100 0.951 . S
C3125 C3123 1.388 . S
C3125 C3126 1.366 . S
C3126 C3125 1.366 . S
C3126 C3127 1.414 . S
C3126 C3129 1.499 . S
C3127 H3101 0.950 . S
C3127 C3126 1.414 . S
C3127 C3128 1.374 . S
C3128 H3102 0.950 . S
C3128 C3124 1.385 . S
C3128 C3127 1.374 . S
C3129 C3126 1.499 . S
C3129 C3130 1.373 . S
C3129 C3131 1.389 . S
C3130 H3103 0.950 . S
C3130 C3116 1.377 . S
C3130 C3129 1.373 . S
C3131 C3115 1.377 . S
C3131 C3129 1.389 . S
C3131 C3132 1.524 . S
C3132 C3131 1.524 . S
C3132 C3133 1.397 . S
C3132 C3137 1.363 . S
C3133 H3104 0.950 . S
C3133 C3132 1.397 . S
C3133 C3134 1.334 . S
C3134 H3105 0.950 . S
C3134 C3133 1.334 . S
C3134 C3135 1.287 . S
C3135 C3134 1.287 . S
C3135 C3136 1.524 . S
C3135 H3138 0.999 . S
C3136 H3106 0.950 . S
C3136 C3135 1.524 . S
C3136 C3137 1.415 . S
C3137 H3107 0.950 . S
C3137 C3132 1.363 . S
C3137 C3136 1.415 . S
H3138 C3135 0.999 . S
H3139 C3120 0.913 . S
H3140 C3158 0.951 . S
H3141 C3160 0.951 . S
H3142 C3162 0.950 . S
H3143 C3163 0.950 . S
H3144 C3165 0.950 . S
H3145 C3168 0.950 . S
H3146 C3169 0.950 . S
H3147 C3171 0.950 . S
H3148 C3172 0.950 . S
H3149 C3173 0.951 . S
H3150 C3175 0.951 . S
H3151 C3177 0.950 . S
H3152 C3178 0.950 . S
H3153 C3180 0.950 . S
H3154 C3183 0.950 . S
H3155 C3184 0.950 . S
H3156 C3186 0.950 . S
H3157 C3187 0.950 . S
C3158 H3140 0.951 . S
C3158 C3159 1.366 . S
C3158 C3160 1.388 . S
C3159 C3158 1.366 . S
C3159 C3163 1.385 . S
C3160 H3141 0.951 . S
C3160 C3158 1.388 . S
C3160 C3161 1.366 . S
C3161 C3160 1.366 . S
C3161 C3162 1.414 . S
C3161 C3164 1.499 . S
C3162 H3142 0.950 . S
C3162 C3161 1.414 . S
C3162 C3163 1.374 . S
C3163 H3143 0.950 . S
C3163 C3159 1.385 . S
C3163 C3162 1.374 . S
C3164 C3161 1.499 . S
C3164 C3165 1.373 . S
C3164 C3166 1.389 . S
C3165 H3144 0.950 . S
C3165 C3164 1.373 . S
C3165 C3181 1.377 . S
C3166 C3164 1.389 . S
C3166 C3167 1.524 . S
C3166 C3180 1.377 . S
C3167 C3166 1.524 . S
C3167 C3168 1.397 . S
C3167 C3172 1.363 . S
C3168 H3145 0.950 . S
C3168 C3167 1.397 . S
C3168 C3169 1.334 . S
C3169 H3146 0.950 . S
C3169 C3168 1.334 . S
C3169 C3170 1.287 . S
C3170 C3169 1.287 . S
C3170 C3171 1.524 . S
C3170 H3189 0.913 . S
C3171 H3147 0.950 . S
C3171 C3170 1.524 . S
C3171 C3172 1.415 . S
C3172 H3148 0.950 . S
C3172 C3167 1.363 . S
C3172 C3171 1.415 . S
C3173 H3149 0.951 . S
C3173 C3174 1.366 . S
C3173 C3175 1.388 . S
C3174 C3173 1.366 . S
C3174 C3178 1.385 . S
C3175 H3150 0.951 . S
C3175 C3173 1.388 . S
C3175 C3176 1.366 . S
C3176 C3175 1.366 . S
C3176 C3177 1.414 . S
C3176 C3179 1.499 . S
C3177 H3151 0.950 . S
C3177 C3176 1.414 . S
C3177 C3178 1.374 . S
C3178 H3152 0.950 . S
C3178 C3174 1.385 . S
C3178 C3177 1.374 . S
C3179 C3176 1.499 . S
C3179 C3180 1.373 . S
C3179 C3181 1.389 . S
C3180 H3153 0.950 . S
C3180 C3166 1.377 . S
C3180 C3179 1.373 . S
C3181 C3165 1.377 . S
C3181 C3179 1.389 . S
C3181 C3182 1.524 . S
C3182 C3181 1.524 . S
C3182 C3183 1.397 . S
C3182 C3187 1.363 . S
C3183 H3154 0.950 . S
C3183 C3182 1.397 . S
C3183 C3184 1.334 . S
C3184 H3155 0.950 . S
C3184 C3183 1.334 . S
C3184 C3185 1.287 . S
C3185 C3184 1.287 . S
C3185 C3186 1.524 . S
C3185 H3188 0.999 . S
C3186 H3156 0.950 . S
C3186 C3185 1.524 . S
C3186 C3187 1.415 . S
C3187 H3157 0.950 . S
C3187 C3182 1.363 . S
C3187 C3186 1.415 . S
H3188 C3185 0.999 . S
H3189 C3170 0.913 . S
H3190 C3208 0.951 . S
H3191 C3210 0.951 . S
H3192 C3212 0.950 . S
H3193 C3213 0.950 . S
H3194 C3215 0.950 . S
H3195 C3218 0.950 . S
H3196 C3219 0.950 . S
H3197 C3221 0.950 . S
H3198 C3222 0.950 . S
H3199 C3223 0.951 . S
H3200 C3225 0.951 . S
H3201 C3227 0.950 . S
H3202 C3228 0.950 . S
H3203 C3230 0.950 . S
H3204 C3233 0.950 . S
H3205 C3234 0.950 . S
H3206 C3236 0.950 . S
H3207 C3237 0.950 . S
C3208 H3190 0.951 . S
C3208 C3209 1.366 . S
C3208 C3210 1.388 . S
C3209 C3208 1.366 . S
C3209 C3213 1.385 . S
C3210 H3191 0.951 . S
C3210 C3208 1.388 . S
C3210 C3211 1.366 . S
C3211 C3210 1.366 . S
C3211 C3212 1.414 . S
C3211 C3214 1.499 . S
C3212 H3192 0.950 . S
C3212 C3211 1.414 . S
C3212 C3213 1.374 . S
C3213 H3193 0.950 . S
C3213 C3209 1.385 . S
C3213 C3212 1.374 . S
C3214 C3211 1.499 . S
C3214 C3215 1.373 . S
C3214 C3216 1.389 . S
C3215 H3194 0.950 . S
C3215 C3214 1.373 . S
C3215 C3231 1.377 . S
C3216 C3214 1.389 . S
C3216 C3217 1.524 . S
C3216 C3230 1.377 . S
C3217 C3216 1.524 . S
C3217 C3218 1.397 . S
C3217 C3222 1.363 . S
C3218 H3195 0.950 . S
C3218 C3217 1.397 . S
C3218 C3219 1.334 . S
C3219 H3196 0.950 . S
C3219 C3218 1.334 . S
C3219 C3220 1.287 . S
C3220 C3219 1.287 . S
C3220 C3221 1.524 . S
C3220 H3239 0.913 . S
C3221 H3197 0.950 . S
C3221 C3220 1.524 . S
C3221 C3222 1.415 . S
C3222 H3198 0.950 . S
C3222 C3217 1.363 . S
C3222 C3221 1.415 . S
C3223 H3199 0.951 . S
C3223 C3224 1.366 . S
C3223 C3225 1.388 . S
C3224 C3223 1.366 . S
C3224 C3228 1.385 . S
C3225 H3200 0.951 . S
C3225 C3223 1.388 . S
C3225 C3226 1.366 . S
C3226 C3225 1.366 . S
C3226 C3227 1.414 . S
C3226 C3229 1.499 . S
C3227 H3201 0.950 . S
C3227 C3226 1.414 . S
C3227 C3228 1.374 . S
C3228 H3202 0.950 . S
C3228 C3224 1.385 . S
C3228 C3227 1.374 . S
C3229 C3226 1.499 . S
C3229 C3230 1.373 . S
C3229 C3231 1.389 . S
C3230 H3203 0.950 . S
C3230 C3216 1.377 . S
C3230 C3229 1.373 . S
C3231 C3215 1.377 . S
C3231 C3229 1.389 . S
C3231 C3232 1.524 . S
C3232 C3231 1.524 . S
C3232 C3233 1.397 . S
C3232 C3237 1.363 . S
C3233 H3204 0.950 . S
C3233 C3232 1.397 . S
C3233 C3234 1.334 . S
C3234 H3205 0.950 . S
C3234 C3233 1.334 . S
C3234 C3235 1.287 . S
C3235 C3234 1.287 . S
C3235 C3236 1.524 . S
C3235 H3238 0.999 . S
C3236 H3206 0.950 . S
C3236 C3235 1.524 . S
C3236 C3237 1.415 . S
C3237 H3207 0.950 . S
C3237 C3232 1.363 . S
C3237 C3236 1.415 . S
H3238 C3235 0.999 . S
H3239 C3220 0.913 . S
H3240 C3258 0.951 . S
H3241 C3260 0.951 . S
H3242 C3262 0.950 . S
H3243 C3263 0.950 . S
H3244 C3265 0.950 . S
H3245 C3268 0.950 . S
H3246 C3269 0.950 . S
H3247 C3271 0.950 . S
H3248 C3272 0.950 . S
H3249 C3273 0.951 . S
H3250 C3275 0.951 . S
H3251 C3277 0.950 . S
H3252 C3278 0.950 . S
H3253 C3280 0.950 . S
H3254 C3283 0.950 . S
H3255 C3284 0.950 . S
H3256 C3286 0.950 . S
H3257 C3287 0.959 . S
C3258 H3240 0.951 . S
C3258 C3259 1.366 . S
C3258 C3260 1.388 . S
C3259 C3258 1.366 . S
C3259 C3263 1.385 . S
C3260 H3241 0.951 . S
C3260 C3258 1.388 . S
C3260 C3261 1.366 . S
C3261 C3260 1.366 . S
C3261 C3262 1.414 . S
C3261 C3264 1.499 . S
C3262 H3242 0.950 . S
C3262 C3261 1.414 . S
C3262 C3263 1.374 . S
C3263 H3243 0.950 . S
C3263 C3259 1.385 . S
C3263 C3262 1.374 . S
C3264 C3261 1.499 . S
C3264 C3265 1.373 . S
C3264 C3266 1.389 . S
C3265 H3244 0.950 . S
C3265 C3264 1.373 . S
C3265 C3281 1.377 . S
C3266 C3264 1.389 . S
C3266 C3267 1.524 . S
C3266 C3280 1.377 . S
C3267 C3266 1.524 . S
C3267 C3268 1.397 . S
C3267 C3272 1.363 . S
C3268 H3245 0.950 . S
C3268 C3267 1.397 . S
C3268 C3269 1.334 . S
C3269 H3246 0.950 . S
C3269 C3268 1.334 . S
C3269 C3270 1.287 . S
C3270 C3269 1.287 . S
C3270 C3271 1.524 . S
C3270 H3289 0.913 . S
C3271 H3247 0.950 . S
C3271 C3270 1.524 . S
C3271 C3272 1.415 . S
C3272 H3248 0.950 . S
C3272 C3267 1.363 . S
C3272 C3271 1.415 . S
C3273 H3249 0.951 . S
C3273 C3274 1.366 1_545 S
C3273 C3275 1.388 . S
C3274 C3273 1.366 1_565 S
C3274 C3278 1.385 . S
C3275 H3250 0.951 . S
C3275 C3273 1.388 . S
C3275 C3276 1.366 1_545 S
C3276 C3275 1.366 1_565 S
C3276 C3277 1.414 . S
C3276 C3279 1.499 . S
C3277 H3251 0.950 . S
C3277 C3276 1.414 . S
C3277 C3278 1.374 . S
C3278 H3252 0.950 . S
C3278 C3274 1.385 . S
C3278 C3277 1.374 . S
C3279 C3276 1.499 . S
C3279 C3280 1.373 . S
C3279 C3281 1.389 . S
C3280 H3253 0.950 . S
C3280 C3266 1.377 . S
C3280 C3279 1.373 . S
C3281 C3265 1.377 . S
C3281 C3279 1.389 . S
C3281 C3282 1.524 . S
C3282 C3281 1.524 . S
C3282 C3283 1.397 . S
C3282 C3287 1.334 1_565 S
C3283 H3254 0.950 . S
C3283 C3282 1.397 . S
C3283 C3284 1.334 . S
C3284 H3255 0.950 . S
C3284 C3283 1.334 . S
C3284 C3285 1.287 . S
C3285 C3284 1.287 . S
C3285 C3286 1.524 1_565 S
C3285 H3288 0.999 . S
C3286 H3256 0.950 . S
C3286 C3285 1.524 1_545 S
C3286 C3287 1.436 . S
C3287 H3257 0.959 . S
C3287 C3282 1.334 1_545 S
C3287 C3286 1.436 . S
H3288 C3285 0.999 . S
H3289 C3270 0.913 . S
H3290 C3308 0.951 . S
H3291 C3310 0.951 . S
H3292 C3312 0.950 . S
H3293 C3313 0.950 . S
H3294 C3315 0.950 . S
H3295 C3318 0.950 . S
H3296 C3319 0.950 . S
H3297 C3321 0.950 . S
H3298 C3322 0.950 . S
H3299 C3323 0.951 . S
H3300 C3325 0.951 . S
H3301 C3327 0.950 . S
H3302 C3328 0.950 . S
H3303 C3330 0.950 . S
H3304 C3333 0.950 . S
H3305 C3334 0.950 . S
H3306 C3336 0.950 . S
H3307 C3337 0.950 . S
C3308 H3290 0.951 . S
C3308 C3309 1.366 . S
C3308 C3310 1.388 . S
C3309 C3308 1.366 . S
C3309 C3313 1.385 . S
C3310 H3291 0.951 . S
C3310 C3308 1.388 . S
C3310 C3311 1.366 . S
C3311 C3310 1.366 . S
C3311 C3312 1.414 . S
C3311 C3314 1.499 . S
C3312 H3292 0.950 . S
C3312 C3311 1.414 . S
C3312 C3313 1.374 . S
C3313 H3293 0.950 . S
C3313 C3309 1.385 . S
C3313 C3312 1.374 . S
C3314 C3311 1.499 . S
C3314 C3315 1.373 1_455 S
C3314 C3316 1.389 . S
C3315 H3294 0.950 . S
C3315 C3314 1.373 1_655 S
C3315 C3331 1.377 . S
C3316 C3314 1.389 . S
C3316 C3317 1.524 . S
C3316 C3330 1.377 . S
C3317 C3316 1.524 . S
C3317 C3318 1.397 . S
C3317 C3322 1.363 . S
C3318 H3295 0.950 . S
C3318 C3317 1.397 . S
C3318 C3319 1.334 . S
C3319 H3296 0.950 . S
C3319 C3318 1.334 . S
C3319 C3320 1.287 . S
C3320 C3319 1.287 . S
C3320 C3321 1.524 . S
C3320 H3339 0.913 . S
C3321 H3297 0.950 . S
C3321 C3320 1.524 . S
C3321 C3322 1.415 . S
C3322 H3298 0.950 . S
C3322 C3317 1.363 . S
C3322 C3321 1.415 . S
C3323 H3299 0.951 . S
C3323 C3324 1.366 . S
C3323 C3325 1.388 . S
C3324 C3323 1.366 . S
C3324 C3328 1.385 . S
C3325 H3300 0.951 . S
C3325 C3323 1.388 . S
C3325 C3326 1.366 . S
C3326 C3325 1.366 . S
C3326 C3327 1.414 . S
C3326 C3329 1.499 . S
C3327 H3301 0.950 . S
C3327 C3326 1.414 . S
C3327 C3328 1.374 . S
C3328 H3302 0.950 . S
C3328 C3324 1.385 . S
C3328 C3327 1.374 . S
C3329 C3326 1.499 . S
C3329 C3330 1.373 . S
C3329 C3331 1.389 1_455 S
C3330 H3303 0.950 . S
C3330 C3316 1.377 . S
C3330 C3329 1.373 . S
C3331 C3315 1.377 . S
C3331 C3329 1.389 1_655 S
C3331 C3332 1.524 . S
C3332 C3331 1.524 . S
C3332 C3333 1.397 . S
C3332 C3337 1.363 . S
C3333 H3304 0.950 . S
C3333 C3332 1.397 . S
C3333 C3334 1.334 . S
C3334 H3305 0.950 . S
C3334 C3333 1.334 . S
C3334 C3335 1.287 . S
C3335 C3334 1.287 . S
C3335 C3336 1.524 . S
C3335 H3338 0.999 . S
C3336 H3306 0.950 . S
C3336 C3335 1.524 . S
C3336 C3337 1.415 . S
C3337 H3307 0.950 . S
C3337 C3332 1.363 . S
C3337 C3336 1.415 . S
H3338 C3335 0.999 . S
H3339 C3320 0.913 . S
H3340 C3358 0.951 . S
H3341 C3360 0.951 . S
H3342 C3362 0.950 . S
H3343 C3363 0.950 . S
H3344 C3365 0.950 . S
H3345 C3368 0.950 . S
H3346 C3369 0.950 . S
H3347 C3371 0.950 . S
H3348 C3372 0.950 . S
H3349 C3373 0.951 . S
H3350 C3375 0.951 . S
H3351 C3377 0.950 . S
H3352 C3378 0.950 . S
H3353 C3380 0.950 . S
H3354 C3383 0.950 . S
H3355 C3384 0.950 . S
H3356 C3386 0.950 . S
H3357 C3387 0.950 . S
C3358 H3340 0.951 . S
C3358 C3359 1.366 . S
C3358 C3360 1.388 . S
C3359 C3358 1.366 . S
C3359 C3363 1.385 . S
C3360 H3341 0.951 . S
C3360 C3358 1.388 . S
C3360 C3361 1.366 . S
C3361 C3360 1.366 . S
C3361 C3362 1.414 . S
C3361 C3364 1.499 . S
C3362 H3342 0.950 . S
C3362 C3361 1.414 . S
C3362 C3363 1.374 . S
C3363 H3343 0.950 . S
C3363 C3359 1.385 . S
C3363 C3362 1.374 . S
C3364 C3361 1.499 . S
C3364 C3365 1.373 . S
C3364 C3366 1.389 . S
C3365 H3344 0.950 . S
C3365 C3364 1.373 . S
C3365 C3381 1.377 . S
C3366 C3364 1.389 . S
C3366 C3367 1.524 . S
C3366 C3380 1.377 . S
C3367 C3366 1.524 . S
C3367 C3368 1.397 . S
C3367 C3372 1.363 . S
C3368 H3345 0.950 . S
C3368 C3367 1.397 . S
C3368 C3369 1.334 . S
C3369 H3346 0.950 . S
C3369 C3368 1.334 . S
C3369 C3370 1.287 . S
C3370 C3369 1.287 . S
C3370 C3371 1.524 . S
C3370 H3389 0.913 . S
C3371 H3347 0.950 . S
C3371 C3370 1.524 . S
C3371 C3372 1.415 . S
C3372 H3348 0.950 . S
C3372 C3367 1.363 . S
C3372 C3371 1.415 . S
C3373 H3349 0.951 . S
C3373 C3374 1.366 . S
C3373 C3375 1.388 . S
C3374 C3373 1.366 . S
C3374 C3378 1.385 . S
C3375 H3350 0.951 . S
C3375 C3373 1.388 . S
C3375 C3376 1.366 . S
C3376 C3375 1.366 . S
C3376 C3377 1.414 . S
C3376 C3379 1.499 . S
C3377 H3351 0.950 . S
C3377 C3376 1.414 . S
C3377 C3378 1.374 . S
C3378 H3352 0.950 . S
C3378 C3374 1.385 . S
C3378 C3377 1.374 . S
C3379 C3376 1.499 . S
C3379 C3380 1.373 . S
C3379 C3381 1.389 . S
C3380 H3353 0.950 . S
C3380 C3366 1.377 . S
C3380 C3379 1.373 . S
C3381 C3365 1.377 . S
C3381 C3379 1.389 . S
C3381 C3382 1.524 . S
C3382 C3381 1.524 . S
C3382 C3383 1.397 . S
C3382 C3387 1.363 . S
C3383 H3354 0.950 . S
C3383 C3382 1.397 . S
C3383 C3384 1.334 . S
C3384 H3355 0.950 . S
C3384 C3383 1.334 . S
C3384 C3385 1.287 . S
C3385 C3384 1.287 . S
C3385 C3386 1.524 . S
C3385 H3388 0.999 . S
C3386 H3356 0.950 . S
C3386 C3385 1.524 . S
C3386 C3387 1.415 . S
C3387 H3357 0.950 . S
C3387 C3382 1.363 . S
C3387 C3386 1.415 . S
H3388 C3385 0.999 . S
H3389 C3370 0.913 . S
H3390 C3408 0.951 . S
H3391 C3410 0.951 . S
H3392 C3412 0.950 . S
H3393 C3413 0.950 . S
H3394 C3415 0.950 . S
H3395 C3418 0.950 . S
H3396 C3419 0.950 . S
H3397 C3421 0.950 . S
H3398 C3422 0.950 . S
H3399 C3423 0.951 . S
H3400 C3425 0.951 . S
H3401 C3427 0.950 . S
H3402 C3428 0.950 . S
H3403 C3430 0.950 . S
H3404 C3433 0.950 . S
H3405 C3434 0.950 . S
H3406 C3436 0.950 . S
H3407 C3437 0.950 . S
C3408 H3390 0.951 . S
C3408 C3409 1.366 . S
C3408 C3410 1.388 . S
C3409 C3408 1.366 . S
C3409 C3413 1.385 1_655 S
C3410 H3391 0.951 . S
C3410 C3408 1.388 . S
C3410 C3411 1.366 . S
C3411 C3410 1.366 . S
C3411 C3412 1.414 1_655 S
C3411 C3414 1.499 . S
C3412 H3392 0.950 . S
C3412 C3411 1.414 1_455 S
C3412 C3413 1.374 . S
C3413 H3393 0.950 . S
C3413 C3409 1.385 1_455 S
C3413 C3412 1.374 . S
C3414 C3411 1.499 . S
C3414 C3415 1.373 1_655 S
C3414 C3416 1.389 . S
C3415 H3394 0.950 . S
C3415 C3414 1.373 1_455 S
C3415 C3431 1.377 . S
C3416 C3414 1.389 . S
C3416 C3417 1.524 . S
C3416 C3430 1.377 . S
C3417 C3416 1.524 . S
C3417 C3418 1.397 . S
C3417 C3422 1.363 . S
C3418 H3395 0.950 . S
C3418 C3417 1.397 . S
C3418 C3419 1.334 . S
C3419 H3396 0.950 . S
C3419 C3418 1.334 . S
C3419 C3420 1.287 . S
C3420 C3419 1.287 . S
C3420 C3421 1.524 . S
C3420 H3439 0.913 . S
C3421 H3397 0.950 . S
C3421 C3420 1.524 . S
C3421 C3422 1.415 . S
C3422 H3398 0.950 . S
C3422 C3417 1.363 . S
C3422 C3421 1.415 . S
C3423 H3399 0.951 . S
C3423 C3424 1.366 1_455 S
C3423 C3425 1.388 . S
C3424 C3423 1.366 1_655 S
C3424 C3428 1.385 . S
C3425 H3400 0.951 . S
C3425 C3423 1.388 . S
C3425 C3426 1.366 1_455 S
C3426 C3425 1.366 1_655 S
C3426 C3427 1.414 . S
C3426 C3429 1.499 . S
C3427 H3401 0.950 . S
C3427 C3426 1.414 . S
C3427 C3428 1.374 . S
C3428 H3402 0.950 . S
C3428 C3424 1.385 . S
C3428 C3427 1.374 . S
C3429 C3426 1.499 . S
C3429 C3430 1.373 . S
C3429 C3431 1.389 1_655 S
C3430 H3403 0.950 . S
C3430 C3416 1.377 . S
C3430 C3429 1.373 . S
C3431 C3415 1.377 . S
C3431 C3429 1.389 1_455 S
C3431 C3432 1.524 . S
C3432 C3431 1.524 . S
C3432 C3433 1.397 . S
C3432 C3437 1.363 . S
C3433 H3404 0.950 . S
C3433 C3432 1.397 . S
C3433 C3434 1.334 . S
C3434 H3405 0.950 . S
C3434 C3433 1.334 . S
C3434 C3435 1.287 . S
C3435 C3434 1.287 . S
C3435 C3436 1.524 . S
C3435 H3438 0.999 . S
C3436 H3406 0.950 . S
C3436 C3435 1.524 . S
C3436 C3437 1.415 . S
C3437 H3407 0.950 . S
C3437 C3432 1.363 . S
C3437 C3436 1.415 . S
H3438 C3435 0.999 . S
H3439 C3420 0.913 . S
H3440 C3458 0.951 . S
H3441 C3460 0.951 . S
H3442 C3462 0.950 . S
H3443 C3463 0.950 . S
H3444 C3465 0.950 . S
H3445 C3468 0.950 . S
H3446 C3469 0.950 . S
H3447 C3471 0.950 . S
H3448 C3472 0.950 . S
H3449 C3473 0.951 . S
H3450 C3475 0.951 . S
H3451 C3477 0.950 . S
H3452 C3478 0.950 . S
H3453 C3480 0.950 . S
H3454 C3483 0.950 . S
H3455 C3484 0.950 . S
H3456 C3486 0.950 . S
H3457 C3487 0.950 . S
C3458 H3440 0.951 . S
C3458 C3459 1.366 . S
C3458 C3460 1.388 . S
C3459 C3458 1.366 . S
C3459 C3463 1.385 . S
C3460 H3441 0.951 . S
C3460 C3458 1.388 . S
C3460 C3461 1.366 . S
C3461 C3460 1.366 . S
C3461 C3462 1.414 . S
C3461 C3464 1.499 . S
C3462 H3442 0.950 . S
C3462 C3461 1.414 . S
C3462 C3463 1.374 . S
C3463 H3443 0.950 . S
C3463 C3459 1.385 . S
C3463 C3462 1.374 . S
C3464 C3461 1.499 . S
C3464 C3465 1.373 . S
C3464 C3466 1.389 . S
C3465 H3444 0.950 . S
C3465 C3464 1.373 . S
C3465 C3481 1.377 . S
C3466 C3464 1.389 . S
C3466 C3467 1.524 . S
C3466 C3480 1.377 . S
C3467 C3466 1.524 . S
C3467 C3468 1.397 . S
C3467 C3472 1.363 . S
C3468 H3445 0.950 . S
C3468 C3467 1.397 . S
C3468 C3469 1.334 . S
C3469 H3446 0.950 . S
C3469 C3468 1.334 . S
C3469 C3470 1.287 . S
C3470 C3469 1.287 . S
C3470 C3471 1.524 . S
C3470 H3489 0.913 . S
C3471 H3447 0.950 . S
C3471 C3470 1.524 . S
C3471 C3472 1.415 . S
C3472 H3448 0.950 . S
C3472 C3467 1.363 . S
C3472 C3471 1.415 . S
C3473 H3449 0.951 . S
C3473 C3474 1.366 . S
C3473 C3475 1.388 . S
C3474 C3473 1.366 . S
C3474 C3478 1.385 . S
C3475 H3450 0.951 . S
C3475 C3473 1.388 . S
C3475 C3476 1.366 . S
C3476 C3475 1.366 . S
C3476 C3477 1.414 . S
C3476 C3479 1.499 . S
C3477 H3451 0.950 . S
C3477 C3476 1.414 . S
C3477 C3478 1.374 . S
C3478 H3452 0.950 . S
C3478 C3474 1.385 . S
C3478 C3477 1.374 . S
C3479 C3476 1.499 . S
C3479 C3480 1.373 . S
C3479 C3481 1.389 . S
C3480 H3453 0.950 . S
C3480 C3466 1.377 . S
C3480 C3479 1.373 . S
C3481 C3465 1.377 . S
C3481 C3479 1.389 . S
C3481 C3482 1.524 . S
C3482 C3481 1.524 . S
C3482 C3483 1.397 . S
C3482 C3487 1.363 . S
C3483 H3454 0.950 . S
C3483 C3482 1.397 . S
C3483 C3484 1.334 . S
C3484 H3455 0.950 . S
C3484 C3483 1.334 . S
C3484 C3485 1.287 . S
C3485 C3484 1.287 . S
C3485 C3486 1.524 . S
C3485 H3488 0.999 . S
C3486 H3456 0.950 . S
C3486 C3485 1.524 . S
C3486 C3487 1.415 . S
C3487 H3457 0.950 . S
C3487 C3482 1.363 . S
C3487 C3486 1.415 . S
H3488 C3485 0.999 . S
H3489 C3470 0.913 . S
H3490 C3508 0.951 . S
H3491 C3510 0.951 . S
H3492 C3512 0.950 . S
H3493 C3513 0.950 . S
H3494 C3515 0.950 . S
H3495 C3518 0.950 . S
H3496 C3519 0.950 . S
H3497 C3521 0.950 . S
H3498 C3522 0.950 . S
H3499 C3523 0.951 . S
H3500 C3525 0.951 . S
H3501 C3527 0.950 . S
H3502 C3528 0.950 . S
H3503 C3530 0.950 1_565 S
H3504 C3533 0.950 . S
H3505 C3534 0.950 . S
H3506 C3536 0.950 . S
H3507 C3537 0.950 . S
C3508 H3490 0.951 . S
C3508 C3509 1.366 . S
C3508 C3510 1.388 . S
C3509 C3508 1.366 . S
C3509 C3513 1.385 . S
C3510 H3491 0.951 . S
C3510 C3508 1.388 . S
C3510 C3511 1.366 . S
C3511 C3510 1.366 . S
C3511 C3512 1.414 . S
C3511 C3514 1.499 . S
C3512 H3492 0.950 . S
C3512 C3511 1.414 . S
C3512 C3513 1.374 . S
C3513 H3493 0.950 . S
C3513 C3509 1.385 . S
C3513 C3512 1.374 . S
C3514 C3511 1.499 . S
C3514 C3515 1.373 . S
C3514 C3516 1.389 . S
C3515 H3494 0.950 . S
C3515 C3514 1.373 . S
C3515 C3531 1.377 . S
C3516 C3514 1.389 . S
C3516 C3517 1.524 1_545 S
C3516 C3530 1.377 . S
C3517 C3516 1.524 1_565 S
C3517 C3518 1.397 . S
C3517 C3522 1.363 . S
C3518 H3495 0.950 . S
C3518 C3517 1.397 . S
C3518 C3519 1.334 . S
C3519 H3496 0.950 . S
C3519 C3518 1.334 . S
C3519 C3520 1.287 . S
C3520 C3519 1.287 . S
C3520 C3521 1.524 . S
C3520 H3539 0.913 . S
C3521 H3497 0.950 . S
C3521 C3520 1.524 . S
C3521 C3522 1.415 . S
C3522 H3498 0.950 . S
C3522 C3517 1.363 . S
C3522 C3521 1.415 . S
C3523 H3499 0.951 . S
C3523 C3524 1.366 . S
C3523 C3525 1.388 . S
C3524 C3523 1.366 . S
C3524 C3528 1.385 . S
C3525 H3500 0.951 . S
C3525 C3523 1.388 . S
C3525 C3526 1.366 . S
C3526 C3525 1.366 . S
C3526 C3527 1.414 . S
C3526 C3529 1.499 . S
C3527 H3501 0.950 . S
C3527 C3526 1.414 . S
C3527 C3528 1.374 . S
C3528 H3502 0.950 . S
C3528 C3524 1.385 . S
C3528 C3527 1.374 . S
C3529 C3526 1.499 . S
C3529 C3530 1.373 . S
C3529 C3531 1.389 . S
C3530 H3503 0.950 1_545 S
C3530 C3516 1.377 . S
C3530 C3529 1.373 . S
C3531 C3515 1.377 . S
C3531 C3529 1.389 . S
C3531 C3532 1.524 . S
C3532 C3531 1.524 . S
C3532 C3533 1.397 . S
C3532 C3537 1.363 . S
C3533 H3504 0.950 . S
C3533 C3532 1.397 . S
C3533 C3534 1.334 . S
C3534 H3505 0.950 . S
C3534 C3533 1.334 . S
C3534 C3535 1.287 . S
C3535 C3534 1.287 . S
C3535 C3536 1.524 . S
C3535 H3538 0.999 . S
C3536 H3506 0.950 . S
C3536 C3535 1.524 . S
C3536 C3537 1.415 . S
C3537 H3507 0.950 . S
C3537 C3532 1.363 . S
C3537 C3536 1.415 . S
H3538 C3535 0.999 . S
H3539 C3520 0.913 . S
H3540 C3558 0.951 . S
H3541 C3560 0.951 . S
H3542 C3562 0.950 . S
H3543 C3563 0.950 . S
H3544 C3565 0.950 . S
H3545 C3568 0.950 . S
H3546 C3569 0.950 . S
H3547 C3571 0.950 . S
H3548 C3572 0.950 . S
H3549 C3573 0.951 . S
H3550 C3575 0.951 . S
H3551 C3577 0.950 . S
H3552 C3578 0.950 . S
H3553 C3580 0.950 . S
H3554 C3583 0.950 . S
H3555 C3584 0.950 . S
H3556 C3586 0.950 . S
H3557 C3587 0.950 . S
C3558 H3540 0.951 . S
C3558 C3559 1.366 . S
C3558 C3560 1.388 . S
C3559 C3558 1.366 . S
C3559 C3563 1.385 . S
C3560 H3541 0.951 . S
C3560 C3558 1.388 . S
C3560 C3561 1.366 . S
C3561 C3560 1.366 . S
C3561 C3562 1.414 . S
C3561 C3564 1.499 . S
C3562 H3542 0.950 . S
C3562 C3561 1.414 . S
C3562 C3563 1.374 . S
C3563 H3543 0.950 . S
C3563 C3559 1.385 . S
C3563 C3562 1.374 . S
C3564 C3561 1.499 . S
C3564 C3565 1.373 . S
C3564 C3566 1.389 . S
C3565 H3544 0.950 . S
C3565 C3564 1.373 . S
C3565 C3581 1.377 . S
C3566 C3564 1.389 . S
C3566 C3567 1.524 . S
C3566 C3580 1.377 . S
C3567 C3566 1.524 . S
C3567 C3568 1.397 . S
C3567 C3572 1.363 . S
C3568 H3545 0.950 . S
C3568 C3567 1.397 . S
C3568 C3569 1.334 . S
C3569 H3546 0.950 . S
C3569 C3568 1.334 . S
C3569 C3570 1.287 . S
C3570 C3569 1.287 . S
C3570 C3571 1.524 . S
C3570 H3589 0.913 . S
C3571 H3547 0.950 . S
C3571 C3570 1.524 . S
C3571 C3572 1.415 . S
C3572 H3548 0.950 . S
C3572 C3567 1.363 . S
C3572 C3571 1.415 . S
C3573 H3549 0.951 . S
C3573 C3574 1.366 . S
C3573 C3575 1.388 . S
C3574 C3573 1.366 . S
C3574 C3578 1.385 . S
C3575 H3550 0.951 . S
C3575 C3573 1.388 . S
C3575 C3576 1.366 . S
C3576 C3575 1.366 . S
C3576 C3577 1.414 . S
C3576 C3579 1.499 . S
C3577 H3551 0.950 . S
C3577 C3576 1.414 . S
C3577 C3578 1.374 . S
C3578 H3552 0.950 . S
C3578 C3574 1.385 . S
C3578 C3577 1.374 . S
C3579 C3576 1.499 . S
C3579 C3580 1.373 . S
C3579 C3581 1.389 . S
C3580 H3553 0.950 . S
C3580 C3566 1.377 . S
C3580 C3579 1.373 . S
C3581 C3565 1.377 . S
C3581 C3579 1.389 . S
C3581 C3582 1.524 . S
C3582 C3581 1.524 . S
C3582 C3583 1.397 . S
C3582 C3587 1.363 . S
C3583 H3554 0.950 . S
C3583 C3582 1.397 . S
C3583 C3584 1.334 . S
C3584 H3555 0.950 . S
C3584 C3583 1.334 . S
C3584 C3585 1.287 . S
C3585 C3584 1.287 . S
C3585 C3586 1.524 . S
C3585 H3588 0.999 . S
C3586 H3556 0.950 . S
C3586 C3585 1.524 . S
C3586 C3587 1.415 . S
C3587 H3557 0.950 . S
C3587 C3582 1.363 . S
C3587 C3586 1.415 . S
H3588 C3585 0.999 . S
H3589 C3570 0.913 . S
H3590 C3608 0.951 . S
H3591 C3610 0.951 . S
H3592 C3612 0.950 . S
H3593 C3613 0.950 . S
H3594 C3615 0.950 . S
H3595 C3618 0.950 . S
H3596 C3619 0.950 . S
H3597 C3621 0.950 . S
H3598 C3622 0.950 . S
H3599 C3623 0.951 . S
H3600 C3625 0.951 . S
H3601 C3627 0.950 . S
H3602 C3628 0.950 . S
H3603 C3630 0.950 . S
H3604 C3633 0.950 . S
H3605 C3634 0.950 . S
H3606 C3636 0.950 . S
H3607 C3637 0.950 . S
C3608 H3590 0.951 . S
C3608 C3609 1.366 . S
C3608 C3610 1.388 . S
C3609 C3608 1.366 . S
C3609 C3613 1.385 . S
C3610 H3591 0.951 . S
C3610 C3608 1.388 . S
C3610 C3611 1.366 . S
C3611 C3610 1.366 . S
C3611 C3612 1.414 . S
C3611 C3614 1.499 . S
C3612 H3592 0.950 . S
C3612 C3611 1.414 . S
C3612 C3613 1.374 . S
C3613 H3593 0.950 . S
C3613 C3609 1.385 . S
C3613 C3612 1.374 . S
C3614 C3611 1.499 . S
C3614 C3615 1.373 . S
C3614 C3616 1.389 . S
C3615 H3594 0.950 . S
C3615 C3614 1.373 . S
C3615 C3631 1.377 . S
C3616 C3614 1.389 . S
C3616 C3617 1.524 . S
C3616 C3630 1.377 . S
C3617 C3616 1.524 . S
C3617 C3618 1.397 . S
C3617 C3622 1.363 . S
C3618 H3595 0.950 . S
C3618 C3617 1.397 . S
C3618 C3619 1.334 . S
C3619 H3596 0.950 . S
C3619 C3618 1.334 . S
C3619 C3620 1.287 . S
C3620 C3619 1.287 . S
C3620 C3621 1.524 . S
C3620 H3639 0.913 . S
C3621 H3597 0.950 . S
C3621 C3620 1.524 . S
C3621 C3622 1.415 . S
C3622 H3598 0.950 . S
C3622 C3617 1.363 . S
C3622 C3621 1.415 . S
C3623 H3599 0.951 . S
C3623 C3624 1.366 . S
C3623 C3625 1.388 . S
C3624 C3623 1.366 . S
C3624 C3628 1.385 . S
C3625 H3600 0.951 . S
C3625 C3623 1.388 . S
C3625 C3626 1.366 . S
C3626 C3625 1.366 . S
C3626 C3627 1.414 . S
C3626 C3629 1.499 . S
C3627 H3601 0.950 . S
C3627 C3626 1.414 . S
C3627 C3628 1.374 . S
C3628 H3602 0.950 . S
C3628 C3624 1.385 . S
C3628 C3627 1.374 . S
C3629 C3626 1.499 . S
C3629 C3630 1.373 . S
C3629 C3631 1.389 . S
C3630 H3603 0.950 . S
C3630 C3616 1.377 . S
C3630 C3629 1.373 . S
C3631 C3615 1.377 . S
C3631 C3629 1.389 . S
C3631 C3632 1.524 . S
C3632 C3631 1.524 . S
C3632 C3633 1.397 . S
C3632 C3637 1.363 . S
C3633 H3604 0.950 . S
C3633 C3632 1.397 . S
C3633 C3634 1.334 . S
C3634 H3605 0.950 . S
C3634 C3633 1.334 . S
C3634 C3635 1.287 . S
C3635 C3634 1.287 . S
C3635 C3636 1.524 . S
C3635 H3638 0.999 . S
C3636 H3606 0.950 . S
C3636 C3635 1.524 . S
C3636 C3637 1.415 . S
C3637 H3607 0.950 . S
C3637 C3632 1.363 . S
C3637 C3636 1.415 . S
H3638 C3635 0.999 . S
H3639 C3620 0.913 . S
H3640 C3658 0.951 . S
H3641 C3660 0.951 . S
H3642 C3662 0.950 . S
H3643 C3663 0.950 . S
H3644 C3665 0.950 . S
H3645 C3668 0.950 . S
H3646 C3669 0.950 . S
H3647 C3671 0.950 . S
H3648 C3672 0.950 . S
H3649 C3673 0.951 . S
H3650 C3675 0.951 . S
H3651 C3677 0.950 . S
H3652 C3678 0.950 . S
H3653 C3680 0.950 . S
H3654 C3683 0.950 . S
H3655 C3684 0.950 . S
H3656 C3686 0.950 . S
H3657 C3687 0.950 . S
C3658 H3640 0.951 . S
C3658 C3659 1.366 . S
C3658 C3660 1.388 . S
C3659 C3658 1.366 . S
C3659 C3663 1.385 . S
C3660 H3641 0.951 . S
C3660 C3658 1.388 . S
C3660 C3661 1.366 . S
C3661 C3660 1.366 . S
C3661 C3662 1.414 . S
C3661 C3664 1.499 . S
C3662 H3642 0.950 . S
C3662 C3661 1.414 . S
C3662 C3663 1.374 . S
C3663 H3643 0.950 . S
C3663 C3659 1.385 . S
C3663 C3662 1.374 . S
C3664 C3661 1.499 . S
C3664 C3665 1.373 . S
C3664 C3666 1.389 . S
C3665 H3644 0.950 . S
C3665 C3664 1.373 . S
C3665 C3681 1.377 . S
C3666 C3664 1.389 . S
C3666 C3667 1.524 . S
C3666 C3680 1.377 . S
C3667 C3666 1.524 . S
C3667 C3668 1.397 . S
C3667 C3672 1.363 . S
C3668 H3645 0.950 . S
C3668 C3667 1.397 . S
C3668 C3669 1.334 . S
C3669 H3646 0.950 . S
C3669 C3668 1.334 . S
C3669 C3670 1.287 . S
C3670 C3669 1.287 . S
C3670 C3671 1.524 . S
C3670 H3689 0.913 . S
C3671 H3647 0.950 . S
C3671 C3670 1.524 . S
C3671 C3672 1.415 . S
C3672 H3648 0.950 . S
C3672 C3667 1.363 . S
C3672 C3671 1.415 . S
C3673 H3649 0.951 . S
C3673 C3674 1.366 . S
C3673 C3675 1.388 . S
C3674 C3673 1.366 . S
C3674 C3678 1.385 . S
C3675 H3650 0.951 . S
C3675 C3673 1.388 . S
C3675 C3676 1.366 . S
C3676 C3675 1.366 . S
C3676 C3677 1.414 . S
C3676 C3679 1.499 . S
C3677 H3651 0.950 . S
C3677 C3676 1.414 . S
C3677 C3678 1.374 . S
C3678 H3652 0.950 . S
C3678 C3674 1.385 . S
C3678 C3677 1.374 . S
C3679 C3676 1.499 . S
C3679 C3680 1.373 . S
C3679 C3681 1.389 . S
C3680 H3653 0.950 . S
C3680 C3666 1.377 . S
C3680 C3679 1.373 . S
C3681 C3665 1.377 . S
C3681 C3679 1.389 . S
C3681 C3682 1.524 . S
C3682 C3681 1.524 . S
C3682 C3683 1.397 . S
C3682 C3687 1.363 . S
C3683 H3654 0.950 . S
C3683 C3682 1.397 . S
C3683 C3684 1.334 . S
C3684 H3655 0.950 . S
C3684 C3683 1.334 . S
C3684 C3685 1.287 . S
C3685 C3684 1.287 . S
C3685 C3686 1.524 . S
C3685 H3688 0.999 . S
C3686 H3656 0.950 . S
C3686 C3685 1.524 . S
C3686 C3687 1.415 . S
C3687 H3657 0.950 . S
C3687 C3682 1.363 . S
C3687 C3686 1.415 . S
H3688 C3685 0.999 . S
H3689 C3670 0.913 . S
H3690 C3708 0.951 . S
H3691 C3710 0.951 . S
H3692 C3712 0.950 . S
H3693 C3713 0.950 . S
H3694 C3715 0.950 . S
H3695 C3718 0.950 . S
H3696 C3719 0.950 . S
H3697 C3721 0.950 . S
H3698 C3722 0.950 . S
H3699 C3723 0.951 . S
H3700 C3725 0.951 . S
H3701 C3727 0.950 . S
H3702 C3728 0.950 . S
H3703 C3730 0.950 . S
H3704 C3733 0.950 . S
H3705 C3734 0.950 . S
H3706 C3736 0.950 . S
H3707 C3737 0.950 . S
C3708 H3690 0.951 . S
C3708 C3709 1.366 . S
C3708 C3710 1.388 . S
C3709 C3708 1.366 . S
C3709 C3713 1.385 . S
C3710 H3691 0.951 . S
C3710 C3708 1.388 . S
C3710 C3711 1.366 . S
C3711 C3710 1.366 . S
C3711 C3712 1.414 . S
C3711 C3714 1.499 . S
C3712 H3692 0.950 . S
C3712 C3711 1.414 . S
C3712 C3713 1.374 . S
C3713 H3693 0.950 . S
C3713 C3709 1.385 . S
C3713 C3712 1.374 . S
C3714 C3711 1.499 . S
C3714 C3715 1.373 . S
C3714 C3716 1.389 . S
C3715 H3694 0.950 . S
C3715 C3714 1.373 . S
C3715 C3731 1.377 . S
C3716 C3714 1.389 . S
C3716 C3717 1.524 . S
C3716 C3730 1.377 . S
C3717 C3716 1.524 . S
C3717 C3718 1.397 . S
C3717 C3722 1.363 . S
C3718 H3695 0.950 . S
C3718 C3717 1.397 . S
C3718 C3719 1.334 . S
C3719 H3696 0.950 . S
C3719 C3718 1.334 . S
C3719 C3720 1.287 . S
C3720 C3719 1.287 . S
C3720 C3721 1.524 . S
C3720 H3739 0.913 . S
C3721 H3697 0.950 . S
C3721 C3720 1.524 . S
C3721 C3722 1.415 . S
C3722 H3698 0.950 . S
C3722 C3717 1.363 . S
C3722 C3721 1.415 . S
C3723 H3699 0.951 . S
C3723 C3724 1.366 . S
C3723 C3725 1.388 . S
C3724 C3723 1.366 . S
C3724 C3728 1.385 . S
C3725 H3700 0.951 . S
C3725 C3723 1.388 . S
C3725 C3726 1.366 . S
C3726 C3725 1.366 . S
C3726 C3727 1.414 . S
C3726 C3729 1.499 . S
C3727 H3701 0.950 . S
C3727 C3726 1.414 . S
C3727 C3728 1.374 . S
C3728 H3702 0.950 . S
C3728 C3724 1.385 . S
C3728 C3727 1.374 . S
C3729 C3726 1.499 . S
C3729 C3730 1.373 . S
C3729 C3731 1.389 . S
C3730 H3703 0.950 . S
C3730 C3716 1.377 . S
C3730 C3729 1.373 . S
C3731 C3715 1.377 . S
C3731 C3729 1.389 . S
C3731 C3732 1.524 . S
C3732 C3731 1.524 . S
C3732 C3733 1.397 . S
C3732 C3737 1.363 . S
C3733 H3704 0.950 . S
C3733 C3732 1.397 . S
C3733 C3734 1.334 . S
C3734 H3705 0.950 . S
C3734 C3733 1.334 . S
C3734 C3735 1.287 . S
C3735 C3734 1.287 . S
C3735 C3736 1.524 . S
C3735 H3738 0.999 . S
C3736 H3706 0.950 . S
C3736 C3735 1.524 . S
C3736 C3737 1.415 . S
C3737 H3707 0.950 . S
C3737 C3732 1.363 . S
C3737 C3736 1.415 . S
H3738 C3735 0.999 . S
H3739 C3720 0.913 . S
H3740 C3758 0.951 . S
H3741 C3760 0.951 . S
H3742 C3762 0.950 . S
H3743 C3763 0.950 . S
H3744 C3765 0.950 . S
H3745 C3768 0.950 . S
H3746 C3769 0.950 . S
H3747 C3771 0.950 . S
H3748 C3772 0.950 . S
H3749 C3773 0.951 . S
H3750 C3775 0.951 . S
H3751 C3777 0.950 . S
H3752 C3778 0.950 . S
H3753 C3780 0.950 . S
H3754 C3783 0.950 . S
H3755 C3784 0.950 . S
H3756 C3786 0.950 . S
H3757 C3787 0.950 . S
C3758 H3740 0.951 . S
C3758 C3759 1.366 . S
C3758 C3760 1.388 . S
C3759 C3758 1.366 . S
C3759 C3763 1.385 . S
C3760 H3741 0.951 . S
C3760 C3758 1.388 . S
C3760 C3761 1.366 . S
C3761 C3760 1.366 . S
C3761 C3762 1.414 . S
C3761 C3764 1.499 . S
C3762 H3742 0.950 . S
C3762 C3761 1.414 . S
C3762 C3763 1.374 . S
C3763 H3743 0.950 . S
C3763 C3759 1.385 . S
C3763 C3762 1.374 . S
C3764 C3761 1.499 . S
C3764 C3765 1.373 . S
C3764 C3766 1.389 . S
C3765 H3744 0.950 . S
C3765 C3764 1.373 . S
C3765 C3781 1.377 . S
C3766 C3764 1.389 . S
C3766 C3767 1.524 . S
C3766 C3780 1.377 . S
C3767 C3766 1.524 . S
C3767 C3768 1.397 . S
C3767 C3772 1.363 . S
C3768 H3745 0.950 . S
C3768 C3767 1.397 . S
C3768 C3769 1.334 . S
C3769 H3746 0.950 . S
C3769 C3768 1.334 . S
C3769 C3770 1.287 . S
C3770 C3769 1.287 . S
C3770 C3771 1.524 . S
C3770 H3789 0.913 . S
C3771 H3747 0.950 . S
C3771 C3770 1.524 . S
C3771 C3772 1.415 . S
C3772 H3748 0.950 . S
C3772 C3767 1.363 . S
C3772 C3771 1.415 . S
C3773 H3749 0.951 . S
C3773 C3774 1.366 . S
C3773 C3775 1.388 . S
C3774 C3773 1.366 . S
C3774 C3778 1.385 . S
C3775 H3750 0.951 . S
C3775 C3773 1.388 . S
C3775 C3776 1.366 . S
C3776 C3775 1.366 . S
C3776 C3777 1.414 . S
C3776 C3779 1.499 . S
C3777 H3751 0.950 . S
C3777 C3776 1.414 . S
C3777 C3778 1.374 . S
C3778 H3752 0.950 . S
C3778 C3774 1.385 . S
C3778 C3777 1.374 . S
C3779 C3776 1.499 . S
C3779 C3780 1.373 . S
C3779 C3781 1.389 . S
C3780 H3753 0.950 . S
C3780 C3766 1.377 . S
C3780 C3779 1.373 . S
C3781 C3765 1.377 . S
C3781 C3779 1.389 . S
C3781 C3782 1.524 . S
C3782 C3781 1.524 . S
C3782 C3783 1.397 . S
C3782 C3787 1.363 . S
C3783 H3754 0.950 . S
C3783 C3782 1.397 . S
C3783 C3784 1.334 . S
C3784 H3755 0.950 . S
C3784 C3783 1.334 . S
C3784 C3785 1.287 . S
C3785 C3784 1.287 . S
C3785 C3786 1.524 . S
C3785 H3788 0.999 . S
C3786 H3756 0.950 . S
C3786 C3785 1.524 . S
C3786 C3787 1.415 . S
C3787 H3757 0.950 . S
C3787 C3782 1.363 . S
C3787 C3786 1.415 . S
H3788 C3785 0.999 . S
H3789 C3770 0.913 . S
H3790 C3808 0.951 . S
H3791 C3810 0.951 . S
H3792 C3812 0.950 . S
H3793 C3813 0.950 . S
H3794 C3815 0.950 . S
H3795 C3818 0.950 . S
H3796 C3819 0.950 . S
H3797 C3821 0.950 . S
H3798 C3822 0.950 . S
H3799 C3823 0.951 . S
H3800 C3825 0.951 . S
H3801 C3827 0.950 . S
H3802 C3828 0.950 . S
H3803 C3830 0.950 . S
H3804 C3833 0.950 . S
H3805 C3834 0.950 . S
H3806 C3836 0.950 . S
H3807 C3837 0.950 . S
C3808 H3790 0.951 . S
C3808 C3809 1.366 . S
C3808 C3810 1.388 . S
C3809 C3808 1.366 . S
C3809 C3813 1.385 . S
C3810 H3791 0.951 . S
C3810 C3808 1.388 . S
C3810 C3811 1.366 . S
C3811 C3810 1.366 . S
C3811 C3812 1.414 . S
C3811 C3814 1.499 . S
C3812 H3792 0.950 . S
C3812 C3811 1.414 . S
C3812 C3813 1.374 . S
C3813 H3793 0.950 . S
C3813 C3809 1.385 . S
C3813 C3812 1.374 . S
C3814 C3811 1.499 . S
C3814 C3815 1.373 . S
C3814 C3816 1.389 . S
C3815 H3794 0.950 . S
C3815 C3814 1.373 . S
C3815 C3831 1.377 . S
C3816 C3814 1.389 . S
C3816 C3817 1.524 . S
C3816 C3830 1.377 . S
C3817 C3816 1.524 . S
C3817 C3818 1.397 . S
C3817 C3822 1.363 . S
C3818 H3795 0.950 . S
C3818 C3817 1.397 . S
C3818 C3819 1.334 . S
C3819 H3796 0.950 . S
C3819 C3818 1.334 . S
C3819 C3820 1.287 . S
C3820 C3819 1.287 . S
C3820 C3821 1.524 . S
C3820 H3839 0.913 . S
C3821 H3797 0.950 . S
C3821 C3820 1.524 . S
C3821 C3822 1.415 . S
C3822 H3798 0.950 . S
C3822 C3817 1.363 . S
C3822 C3821 1.415 . S
C3823 H3799 0.951 . S
C3823 C3824 1.366 . S
C3823 C3825 1.388 . S
C3824 C3823 1.366 . S
C3824 C3828 1.385 . S
C3825 H3800 0.951 . S
C3825 C3823 1.388 . S
C3825 C3826 1.366 . S
C3826 C3825 1.366 . S
C3826 C3827 1.414 . S
C3826 C3829 1.499 . S
C3827 H3801 0.950 . S
C3827 C3826 1.414 . S
C3827 C3828 1.374 . S
C3828 H3802 0.950 . S
C3828 C3824 1.385 . S
C3828 C3827 1.374 . S
C3829 C3826 1.499 . S
C3829 C3830 1.373 . S
C3829 C3831 1.389 . S
C3830 H3803 0.950 . S
C3830 C3816 1.377 . S
C3830 C3829 1.373 . S
C3831 C3815 1.377 . S
C3831 C3829 1.389 . S
C3831 C3832 1.524 . S
C3832 C3831 1.524 . S
C3832 C3833 1.397 . S
C3832 C3837 1.363 . S
C3833 H3804 0.950 . S
C3833 C3832 1.397 . S
C3833 C3834 1.334 . S
C3834 H3805 0.950 . S
C3834 C3833 1.334 . S
C3834 C3835 1.287 . S
C3835 C3834 1.287 . S
C3835 C3836 1.524 . S
C3835 H3838 0.999 . S
C3836 H3806 0.950 . S
C3836 C3835 1.524 . S
C3836 C3837 1.415 . S
C3837 H3807 0.950 . S
C3837 C3832 1.363 . S
C3837 C3836 1.415 . S
H3838 C3835 0.999 . S
H3839 C3820 0.913 . S
H3840 C3858 0.951 . S
H3841 C3860 0.951 . S
H3842 C3862 0.950 . S
H3843 C3863 0.950 . S
H3844 C3865 0.950 . S
H3845 C3868 0.950 . S
H3846 C3869 0.950 . S
H3847 C3871 0.950 . S
H3848 C3872 0.950 . S
H3849 C3873 0.951 . S
H3850 C3875 0.951 . S
H3851 C3877 0.950 . S
H3852 C3878 0.950 . S
H3853 C3880 0.950 . S
H3854 C3883 0.950 . S
H3855 C3884 0.950 . S
H3856 C3886 0.950 . S
H3857 C3887 0.950 . S
C3858 H3840 0.951 . S
C3858 C3859 1.366 . S
C3858 C3860 1.388 . S
C3859 C3858 1.366 . S
C3859 C3863 1.385 . S
C3860 H3841 0.951 . S
C3860 C3858 1.388 . S
C3860 C3861 1.366 . S
C3861 C3860 1.366 . S
C3861 C3862 1.414 . S
C3861 C3864 1.499 . S
C3862 H3842 0.950 . S
C3862 C3861 1.414 . S
C3862 C3863 1.374 . S
C3863 H3843 0.950 . S
C3863 C3859 1.385 . S
C3863 C3862 1.374 . S
C3864 C3861 1.499 . S
C3864 C3865 1.373 . S
C3864 C3866 1.389 . S
C3865 H3844 0.950 . S
C3865 C3864 1.373 . S
C3865 C3881 1.377 . S
C3866 C3864 1.389 . S
C3866 C3867 1.524 . S
C3866 C3880 1.377 . S
C3867 C3866 1.524 . S
C3867 C3868 1.397 . S
C3867 C3872 1.363 . S
C3868 H3845 0.950 . S
C3868 C3867 1.397 . S
C3868 C3869 1.334 . S
C3869 H3846 0.950 . S
C3869 C3868 1.334 . S
C3869 C3870 1.287 . S
C3870 C3869 1.287 . S
C3870 C3871 1.524 . S
C3870 H3889 0.913 . S
C3871 H3847 0.950 . S
C3871 C3870 1.524 . S
C3871 C3872 1.415 . S
C3872 H3848 0.950 . S
C3872 C3867 1.363 . S
C3872 C3871 1.415 . S
C3873 H3849 0.951 . S
C3873 C3874 1.366 . S
C3873 C3875 1.388 . S
C3874 C3873 1.366 . S
C3874 C3878 1.385 . S
C3875 H3850 0.951 . S
C3875 C3873 1.388 . S
C3875 C3876 1.366 . S
C3876 C3875 1.366 . S
C3876 C3877 1.414 . S
C3876 C3879 1.499 . S
C3877 H3851 0.950 . S
C3877 C3876 1.414 . S
C3877 C3878 1.374 . S
C3878 H3852 0.950 . S
C3878 C3874 1.385 . S
C3878 C3877 1.374 . S
C3879 C3876 1.499 . S
C3879 C3880 1.373 . S
C3879 C3881 1.389 . S
C3880 H3853 0.950 . S
C3880 C3866 1.377 . S
C3880 C3879 1.373 . S
C3881 C3865 1.377 . S
C3881 C3879 1.389 . S
C3881 C3882 1.524 . S
C3882 C3881 1.524 . S
C3882 C3883 1.397 . S
C3882 C3887 1.363 . S
C3883 H3854 0.950 . S
C3883 C3882 1.397 . S
C3883 C3884 1.334 . S
C3884 H3855 0.950 . S
C3884 C3883 1.334 . S
C3884 C3885 1.287 . S
C3885 C3884 1.287 . S
C3885 C3886 1.524 . S
C3885 H3888 0.999 . S
C3886 H3856 0.950 . S
C3886 C3885 1.524 . S
C3886 C3887 1.415 . S
C3887 H3857 0.950 . S
C3887 C3882 1.363 . S
C3887 C3886 1.415 . S
H3888 C3885 0.999 . S
H3889 C3870 0.913 . S
H3890 C3908 0.951 . S
H3891 C3910 0.951 . S
H3892 C3912 0.950 . S
H3893 C3913 0.950 . S
H3894 C3915 0.950 . S
H3895 C3918 0.950 . S
H3896 C3919 0.950 . S
H3897 C3921 0.950 . S
H3898 C3922 0.950 . S
H3899 C3923 0.951 . S
H3900 C3925 0.951 . S
H3901 C3927 0.950 . S
H3902 C3928 0.950 . S
H3903 C3930 0.950 . S
H3904 C3933 0.950 . S
H3905 C3934 0.950 . S
H3906 C3936 0.950 . S
H3907 C3937 0.950 . S
C3908 H3890 0.951 . S
C3908 C3909 1.366 . S
C3908 C3910 1.388 . S
C3909 C3908 1.366 . S
C3909 C3913 1.385 . S
C3910 H3891 0.951 . S
C3910 C3908 1.388 . S
C3910 C3911 1.366 . S
C3911 C3910 1.366 . S
C3911 C3912 1.414 . S
C3911 C3914 1.499 . S
C3912 H3892 0.950 . S
C3912 C3911 1.414 . S
C3912 C3913 1.374 . S
C3913 H3893 0.950 . S
C3913 C3909 1.385 . S
C3913 C3912 1.374 . S
C3914 C3911 1.499 . S
C3914 C3915 1.373 . S
C3914 C3916 1.389 . S
C3915 H3894 0.950 . S
C3915 C3914 1.373 . S
C3915 C3931 1.377 . S
C3916 C3914 1.389 . S
C3916 C3917 1.524 . S
C3916 C3930 1.377 . S
C3917 C3916 1.524 . S
C3917 C3918 1.397 . S
C3917 C3922 1.363 . S
C3918 H3895 0.950 . S
C3918 C3917 1.397 . S
C3918 C3919 1.334 . S
C3919 H3896 0.950 . S
C3919 C3918 1.334 . S
C3919 C3920 1.287 . S
C3920 C3919 1.287 . S
C3920 C3921 1.524 . S
C3920 H3939 0.913 . S
C3921 H3897 0.950 . S
C3921 C3920 1.524 . S
C3921 C3922 1.415 . S
C3922 H3898 0.950 . S
C3922 C3917 1.363 . S
C3922 C3921 1.415 . S
C3923 H3899 0.951 . S
C3923 C3924 1.366 . S
C3923 C3925 1.388 . S
C3924 C3923 1.366 . S
C3924 C3928 1.385 . S
C3925 H3900 0.951 . S
C3925 C3923 1.388 . S
C3925 C3926 1.366 . S
C3926 C3925 1.366 . S
C3926 C3927 1.414 . S
C3926 C3929 1.499 . S
C3927 H3901 0.950 . S
C3927 C3926 1.414 . S
C3927 C3928 1.374 . S
C3928 H3902 0.950 . S
C3928 C3924 1.385 . S
C3928 C3927 1.374 . S
C3929 C3926 1.499 . S
C3929 C3930 1.373 . S
C3929 C3931 1.389 . S
C3930 H3903 0.950 . S
C3930 C3916 1.377 . S
C3930 C3929 1.373 . S
C3931 C3915 1.377 . S
C3931 C3929 1.389 . S
C3931 C3932 1.524 . S
C3932 C3931 1.524 . S
C3932 C3933 1.397 . S
C3932 C3937 1.363 . S
C3933 H3904 0.950 . S
C3933 C3932 1.397 . S
C3933 C3934 1.334 . S
C3934 H3905 0.950 . S
C3934 C3933 1.334 . S
C3934 C3935 1.287 . S
C3935 C3934 1.287 . S
C3935 C3936 1.524 . S
C3935 H3938 0.999 . S
C3936 H3906 0.950 . S
C3936 C3935 1.524 . S
C3936 C3937 1.415 . S
C3937 H3907 0.950 . S
C3937 C3932 1.363 . S
C3937 C3936 1.415 . S
H3938 C3935 0.999 . S
H3939 C3920 0.913 . S
H3940 C3958 0.951 . S
H3941 C3960 0.951 . S
H3942 C3962 0.950 . S
H3943 C3963 0.950 . S
H3944 C3965 0.950 . S
H3945 C3968 0.950 . S
H3946 C3969 0.950 . S
H3947 C3971 0.950 . S
H3948 C3972 0.950 . S
H3949 C3973 0.951 . S
H3950 C3975 0.951 . S
H3951 C3977 0.950 . S
H3952 C3978 0.950 . S
H3953 C3980 0.950 . S
H3954 C3983 0.950 . S
H3955 C3984 0.950 . S
H3956 C3986 0.950 . S
H3957 C3987 0.950 . S
C3958 H3940 0.951 . S
C3958 C3959 1.366 . S
C3958 C3960 1.388 . S
C3959 C3958 1.366 . S
C3959 C3963 1.385 . S
C3960 H3941 0.951 . S
C3960 C3958 1.388 . S
C3960 C3961 1.366 . S
C3961 C3960 1.366 . S
C3961 C3962 1.414 . S
C3961 C3964 1.499 . S
C3962 H3942 0.950 . S
C3962 C3961 1.414 . S
C3962 C3963 1.374 . S
C3963 H3943 0.950 . S
C3963 C3959 1.385 . S
C3963 C3962 1.374 . S
C3964 C3961 1.499 . S
C3964 C3965 1.373 . S
C3964 C3966 1.389 . S
C3965 H3944 0.950 . S
C3965 C3964 1.373 . S
C3965 C3981 1.377 . S
C3966 C3964 1.389 . S
C3966 C3967 1.524 . S
C3966 C3980 1.377 . S
C3967 C3966 1.524 . S
C3967 C3968 1.397 . S
C3967 C3972 1.363 . S
C3968 H3945 0.950 . S
C3968 C3967 1.397 . S
C3968 C3969 1.334 . S
C3969 H3946 0.950 . S
C3969 C3968 1.334 . S
C3969 C3970 1.287 . S
C3970 C3969 1.287 . S
C3970 C3971 1.524 . S
C3970 H3989 0.913 . S
C3971 H3947 0.950 . S
C3971 C3970 1.524 . S
C3971 C3972 1.415 . S
C3972 H3948 0.950 . S
C3972 C3967 1.363 . S
C3972 C3971 1.415 . S
C3973 H3949 0.951 . S
C3973 C3974 1.366 . S
C3973 C3975 1.388 . S
C3974 C3973 1.366 . S
C3974 C3978 1.385 . S
C3975 H3950 0.951 . S
C3975 C3973 1.388 . S
C3975 C3976 1.366 . S
C3976 C3975 1.366 . S
C3976 C3977 1.414 . S
C3976 C3979 1.499 . S
C3977 H3951 0.950 . S
C3977 C3976 1.414 . S
C3977 C3978 1.374 . S
C3978 H3952 0.950 . S
C3978 C3974 1.385 . S
C3978 C3977 1.374 . S
C3979 C3976 1.499 . S
C3979 C3980 1.373 . S
C3979 C3981 1.389 . S
C3980 H3953 0.950 . S
C3980 C3966 1.377 . S
C3980 C3979 1.373 . S
C3981 C3965 1.377 . S
C3981 C3979 1.389 . S
C3981 C3982 1.524 . S
C3982 C3981 1.524 . S
C3982 C3983 1.397 . S
C3982 C3987 1.363 . S
C3983 H3954 0.950 . S
C3983 C3982 1.397 . S
C3983 C3984 1.334 . S
C3984 H3955 0.950 . S
C3984 C3983 1.334 . S
C3984 C3985 1.287 . S
C3985 C3984 1.287 . S
C3985 C3986 1.524 . S
C3985 H3988 0.999 . S
C3986 H3956 0.950 . S
C3986 C3985 1.524 . S
C3986 C3987 1.415 . S
C3987 H3957 0.950 . S
C3987 C3982 1.363 . S
C3987 C3986 1.415 . S
H3988 C3985 0.999 . S
H3989 C3970 0.913 . S
H3990 C4008 0.951 . S
H3991 C4010 0.951 . S
H3992 C4012 0.950 . S
H3993 C4013 0.950 . S
H3994 C4015 0.950 . S
H3995 C4018 0.950 . S
H3996 C4019 0.950 . S
H3997 C4021 0.950 . S
H3998 C4022 0.950 . S
H3999 C4023 0.951 . S
H4000 C4025 0.951 . S
H4001 C4027 0.950 . S
H4002 C4028 0.950 . S
H4003 C4030 0.950 . S
H4004 C4033 0.950 . S
H4005 C4034 0.950 . S
H4006 C4036 0.950 . S
H4007 C4037 0.950 . S
C4008 H3990 0.951 . S
C4008 C4009 1.366 . S
C4008 C4010 1.388 . S
C4009 C4008 1.366 . S
C4009 C4013 1.385 . S
C4010 H3991 0.951 . S
C4010 C4008 1.388 . S
C4010 C4011 1.366 . S
C4011 C4010 1.366 . S
C4011 C4012 1.414 . S
C4011 C4014 1.499 . S
C4012 H3992 0.950 . S
C4012 C4011 1.414 . S
C4012 C4013 1.374 . S
C4013 H3993 0.950 . S
C4013 C4009 1.385 . S
C4013 C4012 1.374 . S
C4014 C4011 1.499 . S
C4014 C4015 1.373 . S
C4014 C4016 1.389 . S
C4015 H3994 0.950 . S
C4015 C4014 1.373 . S
C4015 C4031 1.377 . S
C4016 C4014 1.389 . S
C4016 C4017 1.524 . S
C4016 C4030 1.377 . S
C4017 C4016 1.524 . S
C4017 C4018 1.397 . S
C4017 C4022 1.363 . S
C4018 H3995 0.950 . S
C4018 C4017 1.397 . S
C4018 C4019 1.334 . S
C4019 H3996 0.950 . S
C4019 C4018 1.334 . S
C4019 C4020 1.287 . S
C4020 C4019 1.287 . S
C4020 C4021 1.524 . S
C4020 H4039 0.913 . S
C4021 H3997 0.950 . S
C4021 C4020 1.524 . S
C4021 C4022 1.415 . S
C4022 H3998 0.950 . S
C4022 C4017 1.363 . S
C4022 C4021 1.415 . S
C4023 H3999 0.951 . S
C4023 C4024 1.366 . S
C4023 C4025 1.388 . S
C4024 C4023 1.366 . S
C4024 C4028 1.385 . S
C4025 H4000 0.951 . S
C4025 C4023 1.388 . S
C4025 C4026 1.366 . S
C4026 C4025 1.366 . S
C4026 C4027 1.414 . S
C4026 C4029 1.499 . S
C4027 H4001 0.950 . S
C4027 C4026 1.414 . S
C4027 C4028 1.374 . S
C4028 H4002 0.950 . S
C4028 C4024 1.385 . S
C4028 C4027 1.374 . S
C4029 C4026 1.499 . S
C4029 C4030 1.373 . S
C4029 C4031 1.389 . S
C4030 H4003 0.950 . S
C4030 C4016 1.377 . S
C4030 C4029 1.373 . S
C4031 C4015 1.377 . S
C4031 C4029 1.389 . S
C4031 C4032 1.524 . S
C4032 C4031 1.524 . S
C4032 C4033 1.397 . S
C4032 C4037 1.363 . S
C4033 H4004 0.950 . S
C4033 C4032 1.397 . S
C4033 C4034 1.334 . S
C4034 H4005 0.950 . S
C4034 C4033 1.334 . S
C4034 C4035 1.287 . S
C4035 C4034 1.287 . S
C4035 C4036 1.524 . S
C4035 H4038 0.999 . S
C4036 H4006 0.950 . S
C4036 C4035 1.524 . S
C4036 C4037 1.415 . S
C4037 H4007 0.950 . S
C4037 C4032 1.363 . S
C4037 C4036 1.415 . S
H4038 C4035 0.999 . S
H4039 C4020 0.913 . S
H4040 C4058 0.951 . S
H4041 C4060 0.951 . S
H4042 C4062 0.950 . S
H4043 C4063 0.950 . S
H4044 C4065 0.950 . S
H4045 C4068 0.950 . S
H4046 C4069 0.950 . S
H4047 C4071 0.950 . S
H4048 C4072 0.950 . S
H4049 C4073 0.951 . S
H4050 C4075 0.951 . S
H4051 C4077 0.950 . S
H4052 C4078 0.950 . S
H4053 C4080 0.950 . S
H4054 C4083 0.950 . S
H4055 C4084 0.950 . S
H4056 C4086 0.950 . S
H4057 C4087 0.950 . S
C4058 H4040 0.951 . S
C4058 C4059 1.366 . S
C4058 C4060 1.388 . S
C4059 C4058 1.366 . S
C4059 C4063 1.385 . S
C4060 H4041 0.951 . S
C4060 C4058 1.388 . S
C4060 C4061 1.366 . S
C4061 C4060 1.366 . S
C4061 C4062 1.414 . S
C4061 C4064 1.499 . S
C4062 H4042 0.950 . S
C4062 C4061 1.414 . S
C4062 C4063 1.374 . S
C4063 H4043 0.950 . S
C4063 C4059 1.385 . S
C4063 C4062 1.374 . S
C4064 C4061 1.499 . S
C4064 C4065 1.373 . S
C4064 C4066 1.389 . S
C4065 H4044 0.950 . S
C4065 C4064 1.373 . S
C4065 C4081 1.377 . S
C4066 C4064 1.389 . S
C4066 C4067 1.524 . S
C4066 C4080 1.377 . S
C4067 C4066 1.524 . S
C4067 C4068 1.397 . S
C4067 C4072 1.363 . S
C4068 H4045 0.950 . S
C4068 C4067 1.397 . S
C4068 C4069 1.334 . S
C4069 H4046 0.950 . S
C4069 C4068 1.334 . S
C4069 C4070 1.287 . S
C4070 C4069 1.287 . S
C4070 C4071 1.524 . S
C4070 H4089 0.913 . S
C4071 H4047 0.950 . S
C4071 C4070 1.524 . S
C4071 C4072 1.415 . S
C4072 H4048 0.950 . S
C4072 C4067 1.363 . S
C4072 C4071 1.415 . S
C4073 H4049 0.951 . S
C4073 C4074 1.366 . S
C4073 C4075 1.388 . S
C4074 C4073 1.366 . S
C4074 C4078 1.385 . S
C4075 H4050 0.951 . S
C4075 C4073 1.388 . S
C4075 C4076 1.366 . S
C4076 C4075 1.366 . S
C4076 C4077 1.414 . S
C4076 C4079 1.499 . S
C4077 H4051 0.950 . S
C4077 C4076 1.414 . S
C4077 C4078 1.374 . S
C4078 H4052 0.950 . S
C4078 C4074 1.385 . S
C4078 C4077 1.374 . S
C4079 C4076 1.499 . S
C4079 C4080 1.373 . S
C4079 C4081 1.389 . S
C4080 H4053 0.950 . S
C4080 C4066 1.377 . S
C4080 C4079 1.373 . S
C4081 C4065 1.377 . S
C4081 C4079 1.389 . S
C4081 C4082 1.524 . S
C4082 C4081 1.524 . S
C4082 C4083 1.397 . S
C4082 C4087 1.363 . S
C4083 H4054 0.950 . S
C4083 C4082 1.397 . S
C4083 C4084 1.334 . S
C4084 H4055 0.950 . S
C4084 C4083 1.334 . S
C4084 C4085 1.287 . S
C4085 C4084 1.287 . S
C4085 C4086 1.524 . S
C4085 H4088 0.999 . S
C4086 H4056 0.950 . S
C4086 C4085 1.524 . S
C4086 C4087 1.415 . S
C4087 H4057 0.950 . S
C4087 C4082 1.363 . S
C4087 C4086 1.415 . S
H4088 C4085 0.999 . S
H4089 C4070 0.913 . S
H4090 C4108 0.951 . S
H4091 C4110 0.951 . S
H4092 C4112 0.950 . S
H4093 C4113 0.950 . S
H4094 C4115 0.950 . S
H4095 C4118 0.950 . S
H4096 C4119 0.950 . S
H4097 C4121 0.950 . S
H4098 C4122 0.950 . S
H4099 C4123 0.951 . S
H4100 C4125 0.951 . S
H4101 C4127 0.950 . S
H4102 C4128 0.950 . S
H4103 C4130 0.950 . S
H4104 C4133 0.950 . S
H4105 C4134 0.950 . S
H4106 C4136 0.950 . S
H4107 C4137 0.950 . S
C4108 H4090 0.951 . S
C4108 C4109 1.366 . S
C4108 C4110 1.388 . S
C4109 C4108 1.366 . S
C4109 C4113 1.385 . S
C4110 H4091 0.951 . S
C4110 C4108 1.388 . S
C4110 C4111 1.366 . S
C4111 C4110 1.366 . S
C4111 C4112 1.414 . S
C4111 C4114 1.499 . S
C4112 H4092 0.950 . S
C4112 C4111 1.414 . S
C4112 C4113 1.374 . S
C4113 H4093 0.950 . S
C4113 C4109 1.385 . S
C4113 C4112 1.374 . S
C4114 C4111 1.499 . S
C4114 C4115 1.373 . S
C4114 C4116 1.389 . S
C4115 H4094 0.950 . S
C4115 C4114 1.373 . S
C4115 C4131 1.377 . S
C4116 C4114 1.389 . S
C4116 C4117 1.524 . S
C4116 C4130 1.377 . S
C4117 C4116 1.524 . S
C4117 C4118 1.397 . S
C4117 C4122 1.363 . S
C4118 H4095 0.950 . S
C4118 C4117 1.397 . S
C4118 C4119 1.334 . S
C4119 H4096 0.950 . S
C4119 C4118 1.334 . S
C4119 C4120 1.287 . S
C4120 C4119 1.287 . S
C4120 C4121 1.524 . S
C4120 H4139 0.913 . S
C4121 H4097 0.950 . S
C4121 C4120 1.524 . S
C4121 C4122 1.415 . S
C4122 H4098 0.950 . S
C4122 C4117 1.363 . S
C4122 C4121 1.415 . S
C4123 H4099 0.951 . S
C4123 C4124 1.366 . S
C4123 C4125 1.388 . S
C4124 C4123 1.366 . S
C4124 C4128 1.385 . S
C4125 H4100 0.951 . S
C4125 C4123 1.388 . S
C4125 C4126 1.366 . S
C4126 C4125 1.366 . S
C4126 C4127 1.414 . S
C4126 C4129 1.499 . S
C4127 H4101 0.950 . S
C4127 C4126 1.414 . S
C4127 C4128 1.374 . S
C4128 H4102 0.950 . S
C4128 C4124 1.385 . S
C4128 C4127 1.374 . S
C4129 C4126 1.499 . S
C4129 C4130 1.373 . S
C4129 C4131 1.389 . S
C4130 H4103 0.950 . S
C4130 C4116 1.377 . S
C4130 C4129 1.373 . S
C4131 C4115 1.377 . S
C4131 C4129 1.389 . S
C4131 C4132 1.524 . S
C4132 C4131 1.524 . S
C4132 C4133 1.397 . S
C4132 C4137 1.363 . S
C4133 H4104 0.950 . S
C4133 C4132 1.397 . S
C4133 C4134 1.334 . S
C4134 H4105 0.950 . S
C4134 C4133 1.334 . S
C4134 C4135 1.287 . S
C4135 C4134 1.287 . S
C4135 C4136 1.524 . S
C4135 H4138 0.999 . S
C4136 H4106 0.950 . S
C4136 C4135 1.524 . S
C4136 C4137 1.415 . S
C4137 H4107 0.950 . S
C4137 C4132 1.363 . S
C4137 C4136 1.415 . S
H4138 C4135 0.999 . S
H4139 C4120 0.913 . S
C1459 C781 1.643 . S
C1474 C1089 1.622 . S
C1509 C871 1.769 . S
C1524 C1129 1.781 . S
C1559 C751 1.677 . S
C1574 C1168 1.711 . S
C1609 C691 1.503 . S
C1624 C1128 1.521 . S
C1674 C1169 1.414 . S
C1659 C571 1.381 . S
C1709 C601 1.338 . S
C1724 C1088 1.345 . S
C1774 C1099 1.621 . S
C1759 C661 1.586 . S
C1824 C1139 1.786 . S
C1809 C541 1.758 . S
C1859 C631 1.743 . S
C1874 C1178 1.711 . S
C1909 C811 1.552 . S
C1924 C1138 1.522 . S
C1959 C841 1.400 . S
C1974 C1179 1.414 . S
C2024 C1098 1.350 . S
C2009 C721 1.287 . S
C2074 C1209 1.621 . S
C2059 C61 1.643 . S
C2109 C151 1.769 . S
C2124 C1249 1.786 . S
C2159 C31 1.677 . S
C2174 C1288 1.711 . S
C2209 C1051 1.503 . S
C2224 C1248 1.522 . S
C2259 C931 1.381 . S
C2274 C1289 1.414 . S
C2309 C961 1.338 . S
C2324 C1208 1.350 . S
C2359 C1021 1.588 . S
C2374 C1219 1.622 . S
C2409 C901 1.752 . S
C2424 C1259 1.785 . S
C2474 C1298 1.711 . S
C2459 C991 1.743 . S
C2509 C91 1.552 . S
C2524 C1258 1.523 . S
C2574 C1299 1.414 . S
C2559 C121 1.399 . S
C2609 C1 1.283 . S
C2624 C1218 1.350 . S
C2674 C1329 1.622 . S
C2659 C421 1.644 . S
C2709 C511 1.769 . S
C2724 C1369 1.786 . S
C2774 C1408 1.710 . S
C2759 C391 1.677 . S
C2824 C1368 1.522 . S
C2809 C331 1.504 . S
C2874 C1409 1.414 . S
C2859 C211 1.381 . S
C2909 C241 1.338 . S
C2924 C1328 1.350 . S
C2959 C301 1.587 . S
C2974 C1339 1.621 . S
C3009 C181 1.752 . S
C3024 C1379 1.785 . S
C3074 C1418 1.711 . S
C3059 C271 1.743 . S
C3109 C451 1.553 . S
C3124 C1378 1.522 . S
C3159 C481 1.400 . S
C3174 C1419 1.415 . S
C3209 C361 1.283 . S
C3224 C1338 1.350 . S
C3259 C920 1.242 . S
C3274 C1085 1.263 . S
C3324 C1125 1.904 . S
C3309 C980 1.884 . S
C3359 C1040 1.520 . S
C3374 C1175 1.583 . S
C3409 C380 1.831 . S
C3424 C1135 1.904 . S
C3459 C440 1.552 . S
C3474 C1165 1.582 . S
C3524 C1095 1.262 . S
C3509 C500 1.236 . S
C3559 C200 1.242 . S
C3574 C1205 1.262 . S
C3609 C260 1.883 . S
C3624 C1245 1.904 . S
C3659 C320 1.519 . S
C3674 C1295 1.582 . S
C3709 C740 1.831 . S
C3724 C1255 1.904 . S
C3774 C1285 1.582 . S
C3759 C800 1.551 . S
C3809 C860 1.238 . S
C3824 C1215 1.262 . S
C3859 C560 1.243 . S
C3874 C1325 1.262 . S
C3909 C620 1.883 . S
C3924 C1365 1.904 . S
C3974 C1415 1.582 . S
C3959 C680 1.520 . S
C4009 C20 1.831 . S
C4024 C1375 1.904 . S
C4059 C80 1.552 . S
C4074 C1405 1.582 . S
C4109 C140 1.239 . S
C4124 C1335 1.262 . S
