# Generated by pormake.
# Topology zzz, (3,6)-cn, num edge types: 1
# Building blocks:
#     Node 0, Type 0, BuildingBlock: PAMTOO_clean_linker_0, # of connection points: 3
#     Node 1, Type 0, BuildingBlock: PAMTOO_clean_linker_0, # of connection points: 3
#     Node 2, Type 0, BuildingBlock: PAMTOO_clean_linker_0, # of connection points: 3
#     Node 3, Type 0, BuildingBlock: PAMTOO_clean_linker_0, # of connection points: 3
#     Node 4, Type 0, BuildingBlock: PAMTOO_clean_linker_0, # of connection points: 3
#     Node 5, Type 0, BuildingBlock: PAMTOO_clean_linker_0, # of connection points: 3
#     Node 6, Type 0, BuildingBlock: PAMTOO_clean_linker_0, # of connection points: 3
#     Node 7, Type 0, BuildingBlock: PAMTOO_clean_linker_0, # of connection points: 3
#     Node 8, Type 1, BuildingBlock: KUMBOL_clean_sbu_1, # of connection points: 6
#     Node 9, Type 1, BuildingBlock: KUMBOL_clean_sbu_1, # of connection points: 6
#     Node 10, Type 1, BuildingBlock: KUMBOL_clean_sbu_1, # of connection points: 6
#     Node 11, Type 1, BuildingBlock: KUMBOL_clean_sbu_1, # of connection points: 6
#     Edge 12, Type (0, 1), BuildingBlock: TEMPAE_clean_linker_10, # of connection points: 2
#     Edge 13, Type (0, 1), BuildingBlock: TEMPAE_clean_linker_10, # of connection points: 2
#     Edge 14, Type (0, 1), BuildingBlock: TEMPAE_clean_linker_10, # of connection points: 2
#     Edge 15, Type (0, 1), BuildingBlock: TEMPAE_clean_linker_10, # of connection points: 2
#     Edge 16, Type (0, 1), BuildingBlock: TEMPAE_clean_linker_10, # of connection points: 2
#     Edge 17, Type (0, 1), BuildingBlock: TEMPAE_clean_linker_10, # of connection points: 2
#     Edge 18, Type (0, 1), BuildingBlock: TEMPAE_clean_linker_10, # of connection points: 2
#     Edge 19, Type (0, 1), BuildingBlock: TEMPAE_clean_linker_10, # of connection points: 2
#     Edge 20, Type (0, 1), BuildingBlock: TEMPAE_clean_linker_10, # of connection points: 2
#     Edge 21, Type (0, 1), BuildingBlock: TEMPAE_clean_linker_10, # of connection points: 2
#     Edge 22, Type (0, 1), BuildingBlock: TEMPAE_clean_linker_10, # of connection points: 2
#     Edge 23, Type (0, 1), BuildingBlock: TEMPAE_clean_linker_10, # of connection points: 2
#     Edge 24, Type (0, 1), BuildingBlock: TEMPAE_clean_linker_10, # of connection points: 2
#     Edge 25, Type (0, 1), BuildingBlock: TEMPAE_clean_linker_10, # of connection points: 2
#     Edge 26, Type (0, 1), BuildingBlock: TEMPAE_clean_linker_10, # of connection points: 2
#     Edge 27, Type (0, 1), BuildingBlock: TEMPAE_clean_linker_10, # of connection points: 2
#     Edge 28, Type (0, 1), BuildingBlock: TEMPAE_clean_linker_10, # of connection points: 2
#     Edge 29, Type (0, 1), BuildingBlock: TEMPAE_clean_linker_10, # of connection points: 2
#     Edge 30, Type (0, 1), BuildingBlock: TEMPAE_clean_linker_10, # of connection points: 2
#     Edge 31, Type (0, 1), BuildingBlock: TEMPAE_clean_linker_10, # of connection points: 2
#     Edge 32, Type (0, 1), BuildingBlock: TEMPAE_clean_linker_10, # of connection points: 2
#     Edge 33, Type (0, 1), BuildingBlock: TEMPAE_clean_linker_10, # of connection points: 2
#     Edge 34, Type (0, 1), BuildingBlock: TEMPAE_clean_linker_10, # of connection points: 2
#     Edge 35, Type (0, 1), BuildingBlock: TEMPAE_clean_linker_10, # of connection points: 2
# Relax obj value: 0.176
# Max RMSD: 0.105
# Mean RMSD: 0.079
data_MOF--net-zzz--node1-KUMBOL_clean_sbu_1--node2-PAMTOO_clean_linker_0--edge1-TEMPAE_clean_linker_10
_symmetry_space_group_name_H-M    P1
_symmetry_Int_Tables_number       1
_symmetry_cell_setting            triclinic
loop_
_symmetry_equiv_pos_as_xyz
'x, y, z'
_cell_length_a     50.422051
_cell_length_b     50.675825
_cell_length_c     15.969101
_cell_angle_alpha  90.109292
_cell_angle_beta   90.045954
_cell_angle_gamma 90.188988
loop_
_atom_site_label
_atom_site_type_symbol
_atom_site_fract_x
_atom_site_fract_y
_atom_site_fract_z
_atom_type_partial_charge
H0 H 0.83298 0.52393 0.22494 0.0
H1 H 0.75343 0.52849 0.12942 0.0
H2 H 0.76938 0.54917 0.38648 0.0
H3 H 0.73073 0.5788 0.20371 0.0
C4 C 0.71714 0.56463 0.2355 0.0
O5 O 0.73132 0.54315 0.26661 0.0
H6 H 0.70862 0.57558 0.28941 0.0
C7 C 0.81226 0.52881 0.23453 0.0
C8 C 0.80393 0.53705 0.3141 0.0
C9 C 0.79432 0.52591 0.16787 0.0
C10 C 0.76741 0.53111 0.18039 0.0
C11 C 0.75812 0.53989 0.2578 0.0
C12 C 0.7765 0.54308 0.32552 0.0
H13 H 0.99233 0.82736 0.21128 0.0
H14 H 0.98327 0.7466 0.13029 0.0
H15 H 0.02193 0.76437 0.36382 0.0
H16 H 0.04192 0.70417 0.26807 0.0
C17 C 0.03048 0.71352 0.21672 0.0
O18 O 1.00843 0.7259 0.25214 0.0
H19 H 0.04388 0.72856 0.18832 0.0
C20 C 0.99447 0.80641 0.22213 0.0
C21 C 1.00705 0.7986 0.29635 0.0
C22 C 0.98595 0.78815 0.16082 0.0
C23 C 0.98985 0.76117 0.17546 0.0
C24 C 1.00349 0.75238 0.24612 0.0
C25 C 1.01169 0.77109 0.30826 0.0
H26 H 0.71059 0.0387 0.23903 0.0
H27 H 0.78313 0.03734 0.09823 0.0
H28 H 0.77753 0.99511 0.33236 0.0
H29 H 0.80325 0.98515 0.09739 0.0
C30 C 0.81786 0.98793 0.14901 0.0
O31 O 0.80969 1.00821 0.20222 0.0
H32 H 0.81805 0.96932 0.18575 0.0
C33 C 0.73088 0.03191 0.23209 0.0
C34 C 0.74187 0.0162 0.2949 0.0
C35 C 0.74532 0.03923 0.16086 0.0
C36 C 0.7718 0.0314 0.1527 0.0
C37 C 0.78364 1.01515 0.21307 0.0
C38 C 0.76851 1.00733 0.28475 0.0
H39 H 0.56207 0.71088 0.2093 0.0
H40 H 0.56509 0.79028 0.11437 0.0
H41 H 0.52451 0.77381 0.34473 0.0
H42 H 0.49814 0.82326 0.22494 0.0
C43 C 0.51496 0.82023 0.18104 0.0
O44 O 0.53647 0.81102 0.22783 0.0
H45 H 0.50842 0.805 0.13498 0.0
C46 C 0.5575 0.73158 0.21528 0.0
C47 C 0.54322 0.73967 0.28658 0.0
C48 C 0.56457 0.74909 0.15025 0.0
C49 C 0.55911 0.77602 0.16103 0.0
C50 C 0.544 0.78505 0.22842 0.0
C51 C 0.53623 0.7669 0.29239 0.0
H52 H 0.21736 0.46784 0.16169 0.0
H53 H 0.28801 0.4871 0.29921 0.0
H54 H 0.27495 0.52168 0.05821 0.0
H55 H 0.34191 0.50475 0.10875 0.0
C56 C 0.33428 0.50011 0.17233 0.0
O57 O 0.31059 0.51388 0.18369 0.0
H58 H 0.3306 0.47843 0.17335 0.0
C59 C 0.23603 0.47839 0.16613 0.0
C60 C 0.24267 0.49669 0.10352 0.0
C61 C 0.25085 0.47646 0.24025 0.0
C62 C 0.27619 0.48797 0.24276 0.0
C63 C 0.28595 0.50264 0.17536 0.0
C64 C 0.26869 0.50797 0.10626 0.0
H65 H 0.03371 0.21056 0.1704 0.0
H66 H 0.03154 0.28872 0.27445 0.0
H67 H 0.04842 0.27793 0.01204 0.0
H68 H 0.07385 0.33715 0.10894 0.0
C69 C 0.06367 0.32908 0.16505 0.0
O70 O 0.04227 0.31369 0.13811 0.0
H71 H 0.07866 0.31664 0.19755 0.0
C72 C 0.03632 0.23167 0.16239 0.0
C73 C 0.04172 0.24169 0.08249 0.0
C74 C 0.03262 0.24845 0.23116 0.0
C75 C 0.03486 0.27577 0.22138 0.0
C76 C 0.04128 0.28673 0.14383 0.0
C77 C 0.04452 0.26961 0.07321 0.0
H78 H 0.32129 0.08006 0.08036 0.0
H79 H 0.25321 0.07077 0.23884 0.0
H80 H 0.26671 0.01618 0.03597 0.0
H81 H 0.2015 0.03062 0.07881 0.0
C82 C 0.20759 0.04028 0.13838 0.0
O83 O 0.23276 0.03097 0.15935 0.0
H84 H 0.2083 0.0619 0.12644 0.0
C85 C 0.30278 0.07012 0.09435 0.0
C86 C 0.29633 0.04733 0.04899 0.0
C87 C 0.28804 0.0782 0.16432 0.0
C88 C 0.26446 0.06494 0.18407 0.0
C89 C 0.25578 0.04339 0.13606 0.0
C90 C 0.2723 0.03389 0.06974 0.0
H91 H 0.51204 0.33177 0.20485 0.0
H92 H 0.50152 0.25111 0.28205 0.0
H93 H 0.50897 0.26986 0.02045 0.0
H94 H 0.54363 0.224 0.16603 0.0
C95 C 0.52504 0.21302 0.15096 0.0
O96 O 0.5043 0.23063 0.13634 0.0
H97 H 0.52916 0.20228 0.09171 0.0
C98 C 0.50921 0.31113 0.18931 0.0
C99 C 0.50915 0.30385 0.10446 0.0
C100 C 0.5067 0.29246 0.25395 0.0
C101 C 0.50416 0.26575 0.23339 0.0
C102 C 0.50595 0.25721 0.15061 0.0
C103 C 0.50842 0.27631 0.08508 0.0
C104 C 0.09833 0.05303 0.80541 0.0
C105 C 0.09073 0.07305 0.94128 0.0
C106 C 0.08395 0.05455 0.87874 0.0
C107 C 0.11121 0.09127 0.9262 0.0
C108 C 0.12032 0.06985 0.79294 0.0
C109 C 0.12597 0.08971 0.85198 0.0
N110 N 0.09273 0.03306 0.75124 0.0
C111 C 0.11106 0.02618 0.69213 0.0
C112 C 0.13696 0.06506 0.72456 0.0
C113 C 0.13277 0.04261 0.67547 0.0
Gd114 Gd 0.99706 0.03492 0.62942 0.0
Gd115 Gd 0.05326 1.00895 0.77873 0.0
N116 N 0.06444 0.03658 0.89132 0.0
C117 C 0.07737 0.07198 0.01809 0.0
C118 C 0.0522 0.03452 0.96724 0.0
C119 C 0.05835 0.0523 0.03164 0.0
H120 H 0.03729 0.01947 0.97724 0.0
H121 H 0.04828 0.05097 0.09133 0.0
H122 H 0.02128 0.09141 0.55044 0.0
H123 H 0.10921 1.00787 0.65808 0.0
H124 H 0.02224 0.11508 0.41586 0.0
H125 H 0.08204 0.08578 0.0679 0.0
H126 H 0.11649 0.10592 0.97289 0.0
H127 H 0.95178 0.98773 0.60784 0.0
H128 H 0.15407 0.0775 0.71264 0.0
H129 H 0.14656 0.0376 0.62607 0.0
H130 H 0.9688 0.06147 0.23302 0.0
H131 H 0.14251 0.1031 0.84279 0.0
H132 H 0.9248 0.98657 0.35344 0.0
H133 H 0.92357 0.9682 0.49695 0.0
N134 N 0.96961 1.01585 0.52693 0.0
C135 C 0.96987 0.02676 0.44964 0.0
C136 C 0.9526 0.99565 0.54518 0.0
C137 C 0.9374 0.99497 0.40168 0.0
C138 C 0.93659 0.9846 0.48262 0.0
C139 C 0.95382 0.01664 0.38472 0.0
H140 H 0.94157 0.02166 0.25601 0.0
N141 N 0.99843 0.05919 0.5036 0.0
C142 C 0.98484 0.04922 0.43747 0.0
C143 C 0.99852 0.08601 0.3515 0.0
C144 C 0.98446 0.06229 0.35956 0.0
C145 C 1.01128 0.08289 0.49702 0.0
C146 C 1.01179 0.09647 0.42085 0.0
O147 O 0.031 0.0469 0.80776 0.0
O148 O 0.02741 0.06467 0.67902 0.0
O149 O 0.95969 0.05595 0.62423 0.0
O150 O 0.97976 0.05152 0.74276 0.0
O151 O 1.01191 1.01046 0.83517 0.0
O152 O 0.98777 1.00109 0.71883 0.0
O153 O 1.00496 0.99109 0.60107 0.0
O154 O 0.04111 0.9775 0.68131 0.0
O155 O 0.04689 0.9741 0.85408 0.0
O156 O 0.08674 0.98856 0.83414 0.0
O157 O 0.03904 0.04327 0.58239 0.0
O158 O 0.0622 1.00855 0.63855 0.0
C159 C 0.0317 0.06787 0.75955 0.0
C160 C 0.98943 1.00287 0.80091 0.0
C161 C 0.95538 0.09015 0.72367 0.0
C162 C 0.96008 0.13664 0.6885 0.0
C163 C 0.93732 0.12361 0.81602 0.0
C164 C 0.94172 0.09704 0.79689 0.0
C165 C 0.94628 0.14338 0.76186 0.0
C166 C 0.9649 0.10997 0.67083 0.0
C167 C 0.96013 0.06234 0.70338 0.0
C168 C 0.96934 0.05177 0.29343 0.0
C169 C 0.95394 0.02905 0.30621 0.0
H170 H 0.9987 0.0967 0.2928 0.0
C171 C 0.02261 0.97299 0.62352 0.0
C172 C 0.05912 0.0267 0.58031 0.0
C173 C 0.08001 0.94238 0.8287 0.0
C174 C 0.06839 0.89642 0.80385 0.0
C175 C 0.11208 0.91246 0.76619 0.0
C176 C 0.10534 0.93766 0.79485 0.0
C177 C 0.0938 0.89176 0.77168 0.0
C178 C 0.06166 0.92161 0.8323 0.0
C179 C 0.07212 0.96882 0.85833 0.0
H180 H 0.92674 0.12888 0.87253 0.0
H181 H 0.9345 0.0819 0.83905 0.0
H182 H 0.94221 0.16382 0.77678 0.0
H183 H 0.9761 0.10459 0.61565 0.0
H184 H 0.13164 0.9089 0.7408 0.0
H185 H 0.11992 0.95334 0.79064 0.0
H186 H 0.09948 0.87213 0.75172 0.0
H187 H 0.04225 0.92476 0.8598 0.0
C188 C 0.52744 0.94001 0.51924 0.0
C189 C 0.50133 0.90681 0.59108 0.0
C190 C 0.50786 0.93347 0.57619 0.0
C191 C 0.51557 0.88682 0.55003 0.0
C192 C 0.54114 0.92007 0.47547 0.0
C193 C 0.53545 0.89344 0.49236 0.0
N194 N 0.53204 0.9659 0.50323 0.0
C195 C 0.549 0.97324 0.44077 0.0
C196 C 0.55961 0.92751 0.41444 0.0
C197 C 0.56333 0.95422 0.39639 0.0
Gd198 Gd 0.53464 0.04534 0.75557 0.0
Gd199 Gd 0.50827 0.99654 0.58423 0.0
N200 N 0.49449 0.95326 0.61472 0.0
C201 C 0.48036 0.90107 0.6456 0.0
C202 C 0.47325 0.94783 0.66499 0.0
C203 C 0.46611 0.92169 0.68209 0.0
H204 H 0.46214 0.96363 0.69346 0.0
H205 H 0.44963 0.91747 0.7234 0.0
H206 H 0.59977 0.04962 0.7016 0.0
H207 H 0.55136 0.99378 0.42454 0.0
H208 H 0.62949 0.08092 0.63187 0.0
H209 H 0.47478 0.88085 0.65891 0.0
H210 H 0.51102 0.86622 0.56122 0.0
H211 H 0.47853 0.07828 0.79498 0.0
H212 H 0.57055 0.9128 0.37943 0.0
H213 H 0.57704 0.96018 0.34778 0.0
H214 H 0.57705 0.15873 0.60133 0.0
H215 H 0.54588 0.87784 0.4598 0.0
H216 H 0.48886 0.15787 0.71164 0.0
H217 H 0.46115 0.12348 0.77835 0.0
N218 N 0.51526 0.08682 0.73536 0.0
C219 C 0.53118 0.10559 0.70071 0.0
C220 C 0.4906 0.09306 0.76468 0.0
C221 C 0.49654 0.13804 0.71842 0.0
C222 C 0.48079 0.11867 0.75586 0.0
C223 C 0.52208 0.13169 0.69069 0.0
H224 H 0.53196 0.17072 0.6451 0.0
N225 N 0.5653 0.0735 0.68837 0.0
C226 C 0.55662 0.09861 0.67501 0.0
C227 C 0.59967 0.111 0.62077 0.0
C228 C 0.57354 0.1179 0.63996 0.0
C229 C 0.59157 0.06773 0.67813 0.0
C230 C 0.60886 0.08594 0.6415 0.0
O231 O 0.51984 0.9747 0.70376 0.0
O232 O 0.53012 1.00416 0.81101 0.0
O233 O 0.56696 0.05212 0.84249 0.0
O234 O 0.52739 0.06371 0.87685 0.0
O235 O 0.47657 1.01031 0.67761 0.0
O236 O 0.4943 0.03057 0.79581 0.0
O237 O 0.51002 0.059 0.64183 0.0
O238 O 0.52744 0.03443 0.53887 0.0
O239 O 0.47284 0.01689 0.54341 0.0
O240 O 0.48993 0.9858 0.46628 0.0
O241 O 0.56561 0.01689 0.69934 0.0
O242 O 0.54977 1.01271 0.56626 0.0
C243 C 0.52596 0.97996 0.78262 0.0
C244 C 0.47412 0.02056 0.7536 0.0
C245 C 0.56256 0.09337 0.90925 0.0
C246 C 0.60034 0.12335 0.92145 0.0
C247 C 0.55561 0.14027 0.93405 0.0
C248 C 0.54535 0.11484 0.92161 0.0
C249 C 0.58304 0.14454 0.93474 0.0
C250 C 0.58998 0.09793 0.90923 0.0
C251 C 0.55254 0.06638 0.89249 0.0
C252 C 0.5643 0.14374 0.62834 0.0
C253 C 0.53867 0.15061 0.65368 0.0
H254 H 0.61325 0.12526 0.59386 0.0
C255 C 0.5182 0.05721 0.56386 0.0
C256 C 0.56969 1.01199 0.61907 0.0
C257 C 0.47459 0.0243 0.39856 0.0
C258 C 0.45443 0.06065 0.32317 0.0
C259 C 0.49606 0.04234 0.27488 0.0
C260 C 0.49581 0.02446 0.34134 0.0
C261 C 0.47517 0.06004 0.26473 0.0
C262 C 0.45428 0.04282 0.39 0.0
C263 C 0.47378 1.00585 0.46948 0.0
H264 H 0.54225 0.15666 0.9439 0.0
H265 H 0.52405 0.11207 0.92138 0.0
H266 H 0.59074 0.16419 0.94627 0.0
H267 H 0.60347 0.08147 0.90143 0.0
H268 H 0.51223 0.04214 0.23034 0.0
H269 H 0.5121 1.01076 0.3475 0.0
H270 H 0.47493 0.07286 0.21066 0.0
H271 H 0.43781 0.04275 0.43373 0.0
C272 C 0.46912 0.49084 0.89671 0.0
C273 C 0.4922 0.4865 0.02941 0.0
C274 C 0.4897 0.49844 0.94995 0.0
C275 C 0.47442 0.46651 0.05325 0.0
C276 C 0.45124 0.47077 0.92059 0.0
C277 C 0.45404 0.45865 0.99899 0.0
N278 N 0.46682 0.50284 0.82084 0.0
C279 C 0.44647 0.49662 0.76773 0.0
C280 C 0.4309 0.46362 0.86516 0.0
C281 C 0.42843 0.4767 0.78864 0.0
Gd282 Gd 0.55151 0.51311 0.6337 0.0
Gd283 Gd 0.49773 0.53629 0.79251 0.0
N284 N 0.50652 0.51812 0.92571 0.0
C285 C 0.51198 0.49557 0.08386 0.0
C286 C 0.52421 0.5285 0.98184 0.0
C287 C 0.52777 0.51694 0.06043 0.0
H288 H 0.53499 0.54634 0.96831 0.0
H289 H 0.54221 0.525 0.10379 0.0
H290 H 0.51625 0.4998 0.45603 0.0
H291 H 0.44428 0.50698 0.70915 0.0
H292 H 0.51184 0.51764 0.31427 0.0
H293 H 0.51451 0.48693 0.14536 0.0
H294 H 0.47606 0.4572 0.11406 0.0
H295 H 0.60644 0.54067 0.71407 0.0
H296 H 0.41684 0.44824 0.88124 0.0
H297 H 0.41254 0.47155 0.74596 0.0
H298 H 0.58145 0.58175 0.29468 0.0
H299 H 0.44039 0.44331 0.0186 0.0
H300 H 0.63991 0.59184 0.529 0.0
H301 H 0.64113 0.57231 0.67079 0.0
N302 N 0.58533 0.54301 0.59905 0.0
C303 C 0.58458 0.55302 0.52005 0.0
C304 C 0.60548 0.54942 0.65262 0.0
C305 C 0.62456 0.57806 0.54777 0.0
C306 C 0.62527 0.56715 0.62799 0.0
C307 C 0.60415 0.57099 0.49254 0.0
H308 H 0.61736 0.59548 0.38948 0.0
N309 N 0.54575 0.52757 0.49438 0.0
C310 C 0.56399 0.54548 0.46693 0.0
C311 C 0.54333 0.54597 0.33013 0.0
C312 C 0.56298 0.55543 0.38439 0.0
C313 C 0.5282 0.51657 0.43898 0.0
C314 C 0.52619 0.5261 0.35712 0.0
O315 O 0.50162 0.49203 0.76238 0.0
O316 O 0.54596 0.48796 0.7508 0.0
O317 O 0.55373 0.47501 0.57175 0.0
O318 O 0.58975 0.49573 0.60588 0.0
O319 O 0.54074 0.54946 0.82135 0.0
O320 O 0.56567 0.51559 0.76782 0.0
O321 O 0.54854 0.55813 0.64823 0.0
O322 O 0.50558 0.56603 0.68822 0.0
O323 O 0.49001 0.56737 0.88253 0.0
O324 O 0.45821 0.55289 0.80449 0.0
O325 O 0.50772 0.50405 0.59997 0.0
O326 O 0.48403 0.53797 0.65835 0.0
C327 C 0.52317 0.47809 0.7746 0.0
C328 C 0.56254 0.53493 0.82178 0.0
C329 C 0.58741 0.4503 0.63556 0.0
C330 C 0.58296 0.4034 0.66274 0.0
C331 C 0.60434 0.43152 0.76528 0.0
C332 C 0.60017 0.45337 0.71359 0.0
C333 C 0.59562 0.40652 0.74021 0.0
C334 C 0.5792 0.4252 0.61041 0.0
C335 C 0.57918 0.47322 0.58544 0.0
C336 C 0.58209 0.57378 0.35758 0.0
C337 C 0.60263 0.5815 0.41141 0.0
H338 H 0.54196 0.55306 0.26628 0.0
C339 C 0.52764 0.57367 0.65127 0.0
C340 C 0.48683 0.51986 0.60026 0.0
C341 C 0.46124 0.59878 0.82193 0.0
C342 C 0.47707 0.64322 0.79229 0.0
C343 C 0.43235 0.63048 0.75353 0.0
C344 C 0.43664 0.60523 0.78613 0.0
C345 C 0.45238 0.64957 0.7575 0.0
C346 C 0.48147 0.61787 0.82351 0.0
C347 C 0.46638 0.57185 0.85285 0.0
H348 H 0.61396 0.43404 0.8254 0.0
H349 H 0.60631 0.47267 0.7357 0.0
H350 H 0.59885 0.38974 0.78071 0.0
H351 H 0.56884 0.42274 0.55127 0.0
H352 H 0.41332 0.63536 0.72634 0.0
H353 H 0.42082 0.59074 0.78302 0.0
H354 H 0.44854 0.66933 0.73485 0.0
H355 H 0.50053 0.61342 0.85156 0.0
C356 C 0.05532 0.4683 0.88072 0.0
C357 C 0.04724 0.48635 0.01886 0.0
C358 C 0.04126 0.48511 0.93258 0.0
C359 C 0.06852 0.47162 0.05079 0.0
C360 C 0.07527 0.45188 0.91375 0.0
C361 C 0.08237 0.45424 0.99848 0.0
N362 N 0.04848 0.46697 0.79858 0.0
C363 C 0.05865 0.44766 0.74809 0.0
C364 C 0.08691 0.43306 0.86114 0.0
C365 C 0.07822 0.43063 0.77833 0.0
Gd366 Gd 0.04444 0.54965 0.59792 0.0
Gd367 Gd 1.0152 0.49606 0.75305 0.0
N368 N 0.02051 0.4987 0.89992 0.0
C369 C 0.031 0.50151 0.07103 0.0
C370 C 1.00336 0.51173 0.9518 0.0
C371 C 1.00864 0.51379 0.03762 0.0
H372 H 0.98566 0.52084 0.92704 0.0
H373 H 0.9954 0.52477 0.07796 0.0
H374 H 0.04003 0.51446 0.42072 0.0
H375 H 0.05205 0.44588 0.68393 0.0
H376 H 0.0177 0.51701 0.28369 0.0
H377 H 0.03494 0.50297 0.13758 0.0
H378 H 0.07376 0.47277 0.1165 0.0
H379 H 0.0404 0.61115 0.68089 0.0
H380 H 0.10219 0.41997 0.88427 0.0
H381 H 0.08671 0.41579 0.73765 0.0
H382 H 0.97387 0.60091 0.28902 0.0
H383 H 0.09804 0.44222 0.02466 0.0
H384 H 0.98902 0.65693 0.52616 0.0
H385 H 1.01667 0.65252 0.65329 0.0
N386 N 0.02415 0.59096 0.57523 0.0
C387 C 1.01028 0.59352 0.50263 0.0
C388 C 0.0274 0.6122 0.62725 0.0
C389 C 0.99883 0.63838 0.53908 0.0
C390 C 1.01438 0.63597 0.61095 0.0
C391 C 0.99712 0.61725 0.48282 0.0
H392 H 0.97317 0.63751 0.39036 0.0
N393 N 0.02431 0.55074 0.46514 0.0
C394 C 1.01067 0.57295 0.44538 0.0
C395 C 1.00013 0.55488 0.30903 0.0
C396 C 0.99792 0.57549 0.36709 0.0
C397 C 0.02769 0.53121 0.40714 0.0
C398 C 1.01532 0.53277 0.32888 0.0
O399 O 0.06036 0.50073 0.73728 0.0
O400 O 0.06533 0.54493 0.72307 0.0
O401 O 0.08181 0.5402 0.53894 0.0
O402 O 0.07099 0.58103 0.55754 0.0
O403 O 1.00806 0.53782 0.80351 0.0
O404 O 0.03439 0.56685 0.72657 0.0
O405 O 1.00268 0.53417 0.56921 0.0
O406 O 0.9855 0.52554 0.69926 0.0
O407 O 0.98101 0.47776 0.81389 0.0
O408 O 1.00007 0.4585 0.70993 0.0
O409 O 0.05422 0.50624 0.57012 0.0
O410 O 1.01617 0.48659 0.61457 0.0
C411 C 0.07445 0.5223 0.75014 0.0
C412 C 0.01901 0.56128 0.79136 0.0
C413 C 0.11528 0.56881 0.58802 0.0
C414 C 0.1574 0.55112 0.63703 0.0
C415 C 0.14357 0.59487 0.68015 0.0
C416 C 0.12019 0.5921 0.63371 0.0
C417 C 0.16225 0.57456 0.68139 0.0
C418 C 0.13404 0.5485 0.59022 0.0
C419 C 0.09013 0.56456 0.54226 0.0
C420 C 0.98393 0.59866 0.34857 0.0
C421 C 0.9835 0.61949 0.40635 0.0
H422 H 0.9907 0.5561 0.24815 0.0
C423 C 0.98209 0.53136 0.61946 0.0
C424 C 0.03724 0.48644 0.56672 0.0
C425 C 0.95372 0.45326 0.71917 0.0
C426 C 0.90543 0.45244 0.72684 0.0
C427 C 0.92747 0.43878 0.59929 0.0
C428 C 0.9521 0.4434 0.63678 0.0
C429 C 0.90415 0.44339 0.64391 0.0
C430 C 0.93025 0.4575 0.76377 0.0
C431 C 0.97967 0.45867 0.7593 0.0
H432 H 0.14726 0.61284 0.71502 0.0
H433 H 0.10598 0.60807 0.63409 0.0
H434 H 0.18046 0.57719 0.71646 0.0
H435 H 0.13071 0.53067 0.55393 0.0
H436 H 0.92647 0.43145 0.53564 0.0
H437 H 0.96981 0.43913 0.6013 0.0
H438 H 0.8852 0.43954 0.61424 0.0
H439 H 0.93127 0.46506 0.82729 0.0
C440 C 0.16032 0.02884 0.18222 0.0
C441 C 0.1864 0.03548 0.20618 0.0
C442 C 0.13931 0.02752 0.24078 0.0
C443 C 0.14403 0.03319 0.32661 0.0
C444 C 0.17032 0.04 0.35135 0.0
C445 C 0.19101 0.04125 0.29114 0.0
C446 C 0.11185 0.0204 0.21023 0.0
C447 C 0.17653 0.04627 0.44164 0.0
C448 C 0.08474 0.05197 0.46835 0.0
C449 C 0.0796 0.02833 0.51145 0.0
C450 C 0.10547 0.05388 0.4085 0.0
C451 C 0.12161 0.0316 0.3902 0.0
C452 C 0.11602 1.00757 0.43221 0.0
C453 C 0.09523 1.00623 0.49148 0.0
C454 C 0.11036 0.07993 0.36562 0.0
C455 C 0.13218 0.98314 0.41498 0.0
H456 H 0.1562 0.02511 0.11663 0.0
H457 H 0.21077 0.04717 0.31035 0.0
H458 H 0.10443 1.00276 0.24407 0.0
H459 H 0.09794 0.03679 0.22368 0.0
H460 H 0.11136 0.01625 0.14189 0.0
H461 H 0.19763 0.05193 0.45096 0.0
H462 H 0.16377 0.06263 0.46393 0.0
H463 H 0.1721 0.02885 0.48126 0.0
H464 H 0.07296 0.06924 0.48286 0.0
H465 H 0.09137 0.98771 0.52318 0.0
H466 H 0.10907 0.07743 0.2967 0.0
H467 H 0.13069 0.08704 0.38012 0.0
H468 H 0.09593 0.09527 0.38521 0.0
H469 H 0.13104 0.978 0.3475 0.0
H470 H 0.12533 0.96591 0.45214 0.0
H471 H 0.15334 0.98697 0.42989 0.0
C472 C 0.49988 0.17273 0.20807 0.0
C473 C 0.51911 0.19252 0.21978 0.0
C474 C 0.49727 0.15125 0.26442 0.0
C475 C 0.51461 0.14887 0.33451 0.0
C476 C 0.53341 0.16941 0.34804 0.0
C477 C 0.53536 0.1908 0.29125 0.0
C478 C 0.47644 0.13078 0.24528 0.0
C479 C 0.55186 0.16866 0.42233 0.0
C480 C 0.49911 0.10153 0.51856 0.0
C481 C 0.51618 0.08014 0.50346 0.0
C482 C 0.49807 0.12365 0.46422 0.0
C483 C 0.51422 0.12463 0.39134 0.0
C484 C 0.53056 0.10249 0.37383 0.0
C485 C 0.53144 0.08078 0.42975 0.0
C486 C 0.47956 0.14604 0.48477 0.0
C487 C 0.54726 0.10175 0.29561 0.0
H488 H 0.48735 0.17355 0.15294 0.0
H489 H 0.55034 0.20586 0.30141 0.0
H490 H 0.48322 0.11874 0.19134 0.0
H491 H 0.47238 0.11761 0.29895 0.0
H492 H 0.45762 0.14043 0.22639 0.0
H493 H 0.56642 0.18516 0.42198 0.0
H494 H 0.54 0.16994 0.48058 0.0
H495 H 0.56282 0.14971 0.42379 0.0
H496 H 0.48644 0.10101 0.57322 0.0
H497 H 0.54442 0.06433 0.41598 0.0
H498 H 0.46595 0.14955 0.43128 0.0
H499 H 0.49117 0.16441 0.49492 0.0
H500 H 0.46754 0.14205 0.54165 0.0
H501 H 0.53437 0.10408 0.23974 0.0
H502 H 0.55848 0.08301 0.28942 0.0
H503 H 0.56155 0.11846 0.29604 0.0
C504 C 0.35244 0.49848 0.32278 0.0
C505 C 0.35561 0.50633 0.23895 0.0
C506 C 0.37345 0.50057 0.38172 0.0
C507 C 0.39864 0.5106 0.35696 0.0
C508 C 0.4018 0.51889 0.2726 0.0
C509 C 0.38045 0.51666 0.21519 0.0
C510 C 0.36883 0.49146 0.4704 0.0
C511 C 0.42802 0.52967 0.24226 0.0
C512 C 0.44649 0.53778 0.52507 0.0
C513 C 0.46477 0.5171 0.53631 0.0
C514 C 0.42518 0.53591 0.46761 0.0
C515 C 0.42151 0.5127 0.41909 0.0
C516 C 0.43988 0.4917 0.42993 0.0
C517 C 0.46111 0.4941 0.4881 0.0
C518 C 0.40652 0.55897 0.45883 0.0
C519 C 0.43706 0.46653 0.38013 0.0
H520 H 0.33369 0.48994 0.34186 0.0
H521 H 0.38346 0.52239 0.15054 0.0
H522 H 0.38246 0.47498 0.48533 0.0
H523 H 0.37329 0.50772 0.51491 0.0
H524 H 0.3481 0.48471 0.48075 0.0
H525 H 0.42724 0.53592 0.17566 0.0
H526 H 0.43409 0.54684 0.28112 0.0
H527 H 0.44363 0.51444 0.24904 0.0
H528 H 0.44886 0.55575 0.5613 0.0
H529 H 0.47467 0.47778 0.4965 0.0
H530 H 0.38595 0.55263 0.47329 0.0
H531 H 0.40664 0.56615 0.39323 0.0
H532 H 0.4119 0.57564 0.50089 0.0
H533 H 0.41736 0.45748 0.39217 0.0
H534 H 0.45268 0.45193 0.39573 0.0
H535 H 0.43812 0.47093 0.31218 0.0
C536 C 0.05013 0.37722 0.19105 0.0
C537 C 0.05565 0.352 0.22331 0.0
C538 C 0.04666 0.39942 0.24418 0.0
C539 C 0.04868 0.39667 0.33257 0.0
C540 C 0.05334 0.37104 0.36545 0.0
C541 C 0.05667 0.34919 0.31087 0.0
C542 C 0.04138 0.42601 0.20543 0.0
C543 C 0.05549 0.36677 0.45868 0.0
C544 C 0.06533 0.45752 0.47042 0.0
C545 C 0.04049 0.46429 0.50401 0.0
C546 C 0.06828 0.43586 0.41459 0.0
C547 C 0.04586 0.42043 0.39052 0.0
C548 C 0.02069 0.42763 0.42299 0.0
C549 C 0.01837 0.44928 0.47858 0.0
C550 C 0.09554 0.42927 0.38207 0.0
C551 C 0.99605 0.41234 0.39935 0.0
H552 H 0.04937 0.37975 0.12371 0.0
H553 H 0.061 0.32992 0.33675 0.0
H554 H 0.02235 0.43401 0.2291 0.0
H555 H 0.05719 0.44013 0.22397 0.0
H556 H 0.04046 0.42506 0.13598 0.0
H557 H 0.05854 0.34569 0.47488 0.0
H558 H 0.07234 0.37847 0.48403 0.0
H559 H 0.03725 0.37382 0.49029 0.0
H560 H 0.08262 0.46888 0.48901 0.0
H561 H 0.99897 0.45467 0.50165 0.0
H562 H 0.09556 0.42973 0.31261 0.0
H563 H 0.10098 0.40896 0.40126 0.0
H564 H 0.11094 0.44317 0.40551 0.0
H565 H 0.99329 0.41272 0.33044 0.0
H566 H 0.97794 0.42037 0.42952 0.0
H567 H 0.99825 0.39137 0.41791 0.0
C568 C 0.86307 0.97145 0.10058 0.0
C569 C 0.84519 0.99259 0.10832 0.0
C570 C 0.8866 0.97346 0.0527 0.0
C571 C 0.89282 0.99724 0.01007 0.0
C572 C 0.87507 0.01887 0.01859 0.0
C573 C 0.85148 0.01623 0.06662 0.0
C574 C 0.90448 0.94972 0.04585 0.0
C575 C 0.88071 0.04471 0.97528 0.0
C576 C 0.96538 1.00766 0.93981 0.0
C577 C 0.96473 1.00085 0.85431 0.0
C578 C 0.9423 1.00699 0.99029 0.0
C579 C 0.91755 0.99913 0.95565 0.0
C580 C 0.91675 0.9922 0.86935 0.0
C581 C 0.94013 0.99322 0.82008 0.0
C582 C 0.94448 1.01462 0.08127 0.0
C583 C 0.89112 0.98351 0.82888 0.0
H584 H 0.85826 0.95285 0.13043 0.0
H585 H 0.83763 0.03249 0.07003 0.0
H586 H 0.90571 0.94324 0.97955 0.0
H587 H 0.92487 0.95496 0.06622 0.0
H588 H 0.89736 0.93287 0.08424 0.0
H589 H 0.86585 0.06006 0.99105 0.0
H590 H 0.90071 0.05205 0.99299 0.0
H591 H 0.88072 0.04171 0.90644 0.0
H592 H 0.98402 1.01381 0.96763 0.0
H593 H 0.93908 0.98796 0.75444 0.0
H594 H 0.93935 0.99741 0.12098 0.0
H595 H 0.93015 0.03052 0.09605 0.0
H596 H 0.96473 0.02149 0.0983 0.0
H597 H 0.88347 0.96558 0.8606 0.0
H598 H 0.89353 0.97912 0.76114 0.0
H599 H 0.87591 0.99912 0.83616 0.0
C600 C 0.54488 0.85322 0.09946 0.0
C601 C 0.51995 0.84596 0.13178 0.0
C602 C 0.54789 0.87543 0.04575 0.0
C603 C 0.52542 0.89059 0.0214 0.0
C604 C 0.50029 0.88321 0.05391 0.0
C605 C 0.49793 0.86125 0.108 0.0
C606 C 0.57512 0.88237 0.01355 0.0
C607 C 0.47558 0.8981 0.0296 0.0
C608 C 0.53057 0.9612 0.9306 0.0
C609 C 0.52747 0.95707 0.8438 0.0
C610 C 0.53084 0.93991 0.98836 0.0
C611 C 0.52771 0.91347 0.95986 0.0
C612 C 0.52513 0.90916 0.87227 0.0
C613 C 0.52525 0.93075 0.81601 0.0
C614 C 0.53403 0.9458 0.08047 0.0
C615 C 0.52138 0.88167 0.83763 0.0
H616 H 0.562 0.84137 0.11515 0.0
H617 H 0.47846 0.85554 0.13039 0.0
H618 H 0.57569 0.87985 0.94455 0.0
H619 H 0.57966 0.90339 0.02711 0.0
H620 H 0.59082 0.86989 0.04182 0.0
H621 H 0.45758 0.89036 0.06137 0.0
H622 H 0.47783 0.9193 0.04548 0.0
H623 H 0.47255 0.89675 0.96089 0.0
H624 H 0.53248 0.98121 0.95394 0.0
H625 H 0.52341 0.92688 0.74971 0.0
H626 H 0.55041 0.93386 0.10701 0.0
H627 H 0.51565 0.94022 0.11432 0.0
H628 H 0.53821 0.967 0.0926 0.0
H629 H 0.53621 0.86798 0.86454 0.0
H630 H 0.52304 0.8811 0.76828 0.0
H631 H 0.50145 0.87423 0.85542 0.0
C632 C 0.69727 0.56008 0.08834 0.0
C633 C 0.69451 0.55675 0.17533 0.0
C634 C 0.67559 0.55662 0.03277 0.0
C635 C 0.6502 0.54935 0.06392 0.0
C636 C 0.64749 0.54518 0.1516 0.0
C637 C 0.66952 0.54893 0.20583 0.0
C638 C 0.67976 0.5614 0.94046 0.0
C639 C 0.62114 0.5371 0.18845 0.0
C640 C 0.5883 0.5633 0.92705 0.0
C641 C 0.58409 0.53897 0.88656 0.0
C642 C 0.60942 0.56692 0.98502 0.0
C643 C 0.62679 0.54568 1.00456 0.0
C644 C 0.62216 0.52097 0.96511 0.0
C645 C 0.60122 0.51802 0.9068 0.0
C646 C 0.61344 0.59372 0.02433 0.0
C647 C 0.6395 0.4975 0.98405 0.0
H648 H 0.71635 0.56623 0.06381 0.0
H649 H 0.66701 0.54646 0.27276 0.0
H650 H 0.67458 0.54339 0.90431 0.0
H651 H 0.66644 0.57738 0.9188 0.0
H652 H 0.70056 0.567 0.92573 0.0
H653 H 0.60594 0.5522 0.1741 0.0
H654 H 0.61436 0.5183 0.15965 0.0
H655 H 0.62214 0.53449 0.25745 0.0
H656 H 0.5754 0.57969 0.91217 0.0
H657 H 0.59818 0.49899 0.87714 0.0
H658 H 0.63325 0.60158 1.00696 0.0
H659 H 0.61296 0.59209 0.09357 0.0
H660 H 0.5981 0.60809 1.00436 0.0
H661 H 0.66024 0.50177 0.96513 0.0
H662 H 0.63275 0.47935 0.95107 0.0
H663 H 0.63964 0.49362 0.05241 0.0
C664 C 0.0438 0.68562 0.0915 0.0
C665 C 0.02421 0.692 0.15089 0.0
C666 C 0.04104 0.6641 0.03561 0.0
C667 C 0.01798 0.64798 0.03782 0.0
C668 C 0.99798 0.65427 0.09756 0.0
C669 C 1.00144 0.67587 0.15378 0.0
C670 C 0.06326 0.65828 0.97507 0.0
C671 C 0.973 0.63793 0.10284 0.0
C672 C 1.0054 0.60723 0.83689 0.0
C673 C 1.0158 0.58237 0.85725 0.0
C674 C 1.00496 0.62826 0.89561 0.0
C675 C 1.01525 0.62468 0.97774 0.0
C676 C 0.025 0.59925 0.99939 0.0
C677 C 0.02523 0.5786 0.93919 0.0
C678 C 0.99408 0.65461 0.86877 0.0
C679 C 0.03631 0.59408 0.08528 0.0
H680 H 0.06183 0.69731 0.08994 0.0
H681 H 0.98645 0.67993 0.20059 0.0
H682 H 0.07096 0.63809 0.98615 0.0
H683 H 0.05574 0.65889 0.9098 0.0
H684 H 0.07996 0.67252 0.981 0.0
H685 H 0.95878 0.64589 0.1495 0.0
H686 H 0.96316 0.63713 0.04071 0.0
H687 H 0.978 0.61737 0.12043 0.0
H688 H 0.99767 0.61032 0.77445 0.0
H689 H 0.03388 0.55975 0.95534 0.0
H690 H 1.01031 0.66944 0.86749 0.0
H691 H 0.97911 0.66161 0.91454 0.0
H692 H 0.98482 0.65376 0.80566 0.0
H693 H 0.05491 0.60556 0.09341 0.0
H694 H 0.04072 0.57284 0.09527 0.0
H695 H 0.02229 0.6007 0.13446 0.0
C696 C 0.9999 0.24484 0.34675 0.0
C697 C 0.02415 0.23723 0.31178 0.0
C698 C 0.98946 0.23144 0.41596 0.0
C699 C 1.0039 0.21029 0.45117 0.0
C700 C 0.02928 0.2038 0.41954 0.0
C701 C 0.03901 0.21722 0.34937 0.0
C702 C 0.9622 0.23867 0.44741 0.0
C703 C 0.04552 0.18181 0.45715 0.0
C704 C 0.98233 0.1798 0.65696 0.0
C705 C 0.96931 0.15698 0.62883 0.0
C706 C 0.9934 0.19774 0.59994 0.0
C707 C 0.99108 0.19271 0.51307 0.0
C708 C 0.97706 0.17021 0.48437 0.0
C709 C 0.96631 0.15267 0.54262 0.0
C710 C 1.00841 0.22143 0.63265 0.0
C711 C 0.97395 0.16427 0.39206 0.0
H712 H 0.98842 0.26026 0.31698 0.0
H713 H 0.0579 0.21161 0.3223 0.0
H714 H 0.94796 0.22277 0.43055 0.0
H715 H 0.96217 0.24046 0.51663 0.0
H716 H 0.95502 0.25749 0.42009 0.0
H717 H 0.06545 0.18023 0.42803 0.0
H718 H 0.048 0.18513 0.52537 0.0
H719 H 0.03502 0.16271 0.44905 0.0
H720 H 0.98473 0.18316 0.72338 0.0
H721 H 0.95577 0.13531 0.5206 0.0
H722 H 1.00185 0.23967 0.60053 0.0
H723 H 0.02986 0.21899 0.61931 0.0
H724 H 1.00585 0.22407 0.70126 0.0
H725 H 0.96497 0.18139 0.35954 0.0
H726 H 0.96141 0.14658 0.38037 0.0
H727 H 0.99371 0.16083 0.3636 0.0
C728 C 0.30828 0.0838 0.30339 0.0
C729 C 0.30167 0.09528 0.22642 0.0
C730 C 0.33319 0.08866 0.33941 0.0
C731 C 0.35111 0.10569 0.29752 0.0
C732 C 0.34148 0.1224 0.23371 0.0
C733 C 0.31659 0.11695 0.1982 0.0
C734 C 0.34211 0.07141 0.41093 0.0
C735 C 0.35922 0.14258 0.19289 0.0
C736 C 0.42272 0.09605 0.36517 0.0
C737 C 0.43065 0.07656 0.30819 0.0
C738 C 0.39743 0.10752 0.35922 0.0
C739 C 0.37962 0.09833 0.29697 0.0
C740 C 0.38826 0.07928 0.23749 0.0
C741 C 0.41388 0.06913 0.24295 0.0
C742 C 0.38992 0.12917 0.41959 0.0
C743 C 0.37015 0.06839 0.17028 0.0
H744 H 0.29636 0.06764 0.32733 0.0
H745 H 0.31095 0.12668 0.14048 0.0
H746 H 0.35342 0.05443 0.38553 0.0
H747 H 0.35531 0.08242 0.45426 0.0
H748 H 0.32495 0.06357 0.44686 0.0
H749 H 0.34739 0.15861 0.1639 0.0
H750 H 0.37325 0.15125 0.23907 0.0
H751 H 0.37098 0.13293 0.14279 0.0
H752 H 0.43608 0.10182 0.41527 0.0
H753 H 0.42022 0.05391 0.19954 0.0
H754 H 0.36902 0.12734 0.44041 0.0
H755 H 0.39195 0.14845 0.38736 0.0
H756 H 0.40304 0.12943 0.47554 0.0
H757 H 0.35096 0.06202 0.19735 0.0
H758 H 0.37874 0.05107 0.13772 0.0
H759 H 0.36632 0.08394 0.1231 0.0
C760 C 0.50074 0.32614 0.36686 0.0
C761 C 0.50925 0.30094 0.34273 0.0
C762 C 0.51026 0.33784 0.44027 0.0
C763 C 0.52727 0.32321 0.49324 0.0
C764 C 0.53172 0.29619 0.47717 0.0
C765 C 0.52333 0.28549 0.40065 0.0
C766 C 0.50465 0.36674 0.45548 0.0
C767 C 0.54758 0.2793 0.53649 0.0
C768 C 0.58357 0.3664 0.56322 0.0
C769 C 0.57266 0.37783 0.6348 0.0
C770 C 0.56981 0.34677 0.5196 0.0
C771 C 0.54504 0.33777 0.5508 0.0
C772 C 0.53554 0.34713 0.6286 0.0
C773 C 0.54896 0.36798 0.66802 0.0
C774 C 0.58047 0.33783 0.43577 0.0
C775 C 0.51031 0.33671 0.66717 0.0
H776 H 0.48843 0.33761 0.32493 0.0
H777 H 0.52963 0.26573 0.38429 0.0
H778 H 0.49569 0.36955 0.51813 0.0
H779 H 0.52346 0.37818 0.45399 0.0
H780 H 0.49097 0.37515 0.408 0.0
H781 H 0.54159 0.25823 0.53133 0.0
H782 H 0.56893 0.28067 0.52051 0.0
H783 H 0.54504 0.28588 0.60235 0.0
H784 H 0.60175 0.3745 0.53747 0.0
H785 H 0.53995 0.37769 0.72123 0.0
H786 H 0.56635 0.34323 0.38531 0.0
H787 H 0.58269 0.31609 0.43472 0.0
H788 H 0.60005 0.34682 0.42112 0.0
H789 H 0.49341 0.34931 0.64837 0.0
H790 H 0.51156 0.33728 0.73658 0.0
H791 H 0.50607 0.31615 0.64703 0.0
C792 C 0.21057 0.47661 0.33036 0.0
C793 C 0.2372 0.46925 0.32 0.0
C794 C 0.19969 0.48015 0.40969 0.0
C795 C 0.21583 0.47599 0.48113 0.0
C796 C 0.24083 0.46375 0.47154 0.0
C797 C 0.25142 0.46068 0.39065 0.0
C798 C 0.17221 0.49202 0.41554 0.0
C799 C 0.25748 0.45598 0.54585 0.0
C800 C 0.20268 0.53704 0.59823 0.0
C801 C 0.17768 0.53039 0.62944 0.0
C802 C 0.2187 0.51771 0.56164 0.0
C803 C 0.20934 0.49128 0.55767 0.0
C804 C 0.187 0.48388 0.60558 0.0
C805 C 0.17069 0.50372 0.63828 0.0
C806 C 0.24342 0.5264 0.51583 0.0
C807 C 0.17834 0.4555 0.61305 0.0
H808 H 0.19885 0.48284 0.27732 0.0
H809 H 0.2715 0.45346 0.38359 0.0
H810 H 0.15938 0.47976 0.45617 0.0
H811 H 0.17334 0.51211 0.44312 0.0
H812 H 0.16233 0.4936 0.35352 0.0
H813 H 0.27498 0.46924 0.5505 0.0
H814 H 0.24623 0.45669 0.60554 0.0
H815 H 0.26516 0.43567 0.53661 0.0
H816 H 0.20833 0.55765 0.59336 0.0
H817 H 0.1517 0.49847 0.66517 0.0
H818 H 0.24031 0.5246 0.4472 0.0
H819 H 0.26033 0.51362 0.53317 0.0
H820 H 0.24885 0.54718 0.53022 0.0
H821 H 0.1942 0.44162 0.59364 0.0
H822 H 0.16046 0.452 0.57401 0.0
H823 H 0.1727 0.45123 0.67883 0.0
C824 C 0.9686 0.82394 0.06784 0.0
C825 C 0.97776 0.79794 0.07643 0.0
C826 C 0.976 0.83888 0.99803 0.0
C827 C 0.98995 0.82631 0.93228 0.0
C828 C 0.99105 0.79851 0.92989 0.0
C829 C 0.98588 0.78449 1.00365 0.0
C830 C 0.97382 0.86854 1.0041 0.0
C831 C 1.00263 0.78417 0.85573 0.0
C832 C 0.02477 0.87381 0.7853 0.0
C833 C 0.05006 0.87466 0.82173 0.0
C834 C 1.00514 0.8568 0.81692 0.0
C835 C 1.01092 0.84135 0.88825 0.0
C836 C 0.03685 0.84172 0.92326 0.0
C837 C 0.05622 0.85797 0.88808 0.0
C838 C 0.9783 0.85564 0.7751 0.0
C839 C 0.04391 0.82632 1.00127 0.0
H840 H 0.95964 0.83387 0.12084 0.0
H841 H 0.99155 0.76394 1.00596 0.0
H842 H 0.99217 0.87645 0.03351 0.0
H843 H 0.9717 0.87793 0.942 0.0
H844 H 0.95675 0.87443 0.04386 0.0
H845 H 0.99471 0.76373 0.85154 0.0
H846 H 0.99825 0.79477 0.79654 0.0
H847 H 0.02449 0.78296 0.86282 0.0
H848 H 0.02017 0.88704 0.73407 0.0
H849 H 0.07573 0.85919 0.91665 0.0
H850 H 0.96194 0.85607 0.82134 0.0
H851 H 0.97646 0.83663 0.74102 0.0
H852 H 0.97548 0.87209 0.73015 0.0
H853 H 0.02972 0.83078 0.05243 0.0
H854 H 0.06423 0.83087 0.02421 0.0
H855 H 0.04285 0.80485 0.98818 0.0
C856 C 0.70652 0.04708 0.06933 0.0
C857 C 0.73179 0.05497 0.09578 0.0
C858 C 0.69028 0.06411 0.02391 0.0
C859 C 0.69985 0.08956 1.00246 0.0
C860 C 0.72645 0.09655 0.02101 0.0
C861 C 0.74213 0.07918 0.06848 0.0
C862 C 0.66212 0.05551 1.00505 0.0
C863 C 0.73792 0.12288 0.99593 0.0
C864 C 0.64602 0.1163 0.86803 0.0
C865 C 0.62928 0.12615 0.93068 0.0
C866 C 0.67186 0.10821 0.88754 0.0
C867 C 0.68045 0.1093 0.97183 0.0
C868 C 0.66512 0.12319 0.03174 0.0
C869 C 0.63959 0.13164 0.01009 0.0
C870 C 0.68837 0.09516 0.82067 0.0
C871 C 0.67379 0.12539 0.12196 0.0
H872 H 0.69883 0.02804 0.08885 0.0
H873 H 0.76182 0.08521 0.08826 0.0
H874 H 0.64792 0.06871 0.03755 0.0
H875 H 0.65812 0.05687 0.93694 0.0
H876 H 0.65808 0.03492 0.02525 0.0
H877 H 0.75955 0.12123 0.98389 0.0
H878 H 0.72812 0.13092 0.93924 0.0
H879 H 0.73523 0.13716 0.04794 0.0
H880 H 0.63804 0.11245 0.80607 0.0
H881 H 0.6266 0.13943 0.05822 0.0
H882 H 0.68488 0.07353 0.82197 0.0
H883 H 0.70983 0.09873 0.8315 0.0
H884 H 0.68292 0.10243 0.75737 0.0
H885 H 0.67164 0.10587 0.15272 0.0
H886 H 0.66172 0.13996 0.15724 0.0
H887 H 0.69494 0.13126 0.126 0.0
C888 C 0.58069 0.71202 0.05791 0.0
C889 C 0.57222 0.73833 0.06583 0.0
C890 C 0.57298 0.69692 0.98831 0.0
C891 C 0.55937 0.70947 0.92188 0.0
C892 C 0.55914 0.73729 0.91861 0.0
C893 C 0.56456 0.75154 0.992 0.0
C894 C 0.57679 0.66737 0.99133 0.0
C895 C 0.54854 0.75161 0.84304 0.0
C896 C 0.52258 0.66217 0.77734 0.0
C897 C 0.49692 0.6637 0.81047 0.0
C898 C 0.54304 0.67826 0.80873 0.0
C899 C 0.53783 0.695 0.87784 0.0
C900 C 0.51164 0.69666 0.91053 0.0
C901 C 0.49143 0.68153 0.87458 0.0
C902 C 0.57034 0.67621 0.77089 0.0
C903 C 0.50502 0.71301 0.98716 0.0
H904 H 0.59014 0.70224 0.11018 0.0
H905 H 0.55967 0.77228 0.99255 0.0
H906 H 0.57987 0.66026 0.05639 0.0
H907 H 0.55971 0.65647 0.96417 0.0
H908 H 0.59473 0.66221 0.95474 0.0
H909 H 0.55769 0.7715 0.83759 0.0
H910 H 0.55238 0.74026 0.78473 0.0
H911 H 0.5268 0.75422 0.84945 0.0
H912 H 0.52682 0.64785 0.72882 0.0
H913 H 0.47163 0.68205 0.90114 0.0
H914 H 0.58285 0.66335 0.81054 0.0
H915 H 0.57997 0.69591 0.76737 0.0
H916 H 0.56967 0.66732 0.70728 0.0
H917 H 0.51917 0.70884 0.03869 0.0
H918 H 0.48465 0.7091 0.01064 0.0
H919 H 0.50644 0.7343 0.97197 0.0
C920 C 0.79083 0.49528 0.04534 0.0
C921 C 0.80382 0.51622 0.08594 0.0
C922 C 0.80182 0.4836 0.97374 0.0
C923 C 0.82636 0.49306 0.94303 0.0
C924 C 0.83845 0.51548 0.9801 0.0
C925 C 0.827 0.52679 0.05124 0.0
C926 C 0.78816 0.46003 0.93485 0.0
C927 C 0.86451 0.52637 0.94841 0.0
C928 C 0.87974 0.44909 0.85878 0.0
C929 C 0.88117 0.45759 0.7756 0.0
C930 C 0.86021 0.45877 0.9125 0.0
C931 C 0.84175 0.4774 0.88189 0.0
C932 C 0.84137 0.48386 0.79573 0.0
C933 C 0.86114 0.4737 0.74317 0.0
C934 C 0.86103 0.45099 1.00376 0.0
C935 C 0.82169 0.50327 0.76049 0.0
H936 H 0.77283 0.48712 0.07205 0.0
H937 H 0.83669 0.54338 0.08164 0.0
H938 H 0.78924 0.46084 0.86551 0.0
H939 H 0.79829 0.44173 0.95521 0.0
H940 H 0.76701 0.45872 0.95395 0.0
H941 H 0.86991 0.54533 0.97911 0.0
H942 H 0.88055 0.51193 0.96065 0.0
H943 H 0.8636 0.52954 0.87977 0.0
H944 H 0.89489 0.43602 0.88307 0.0
H945 H 0.86202 0.47988 0.67837 0.0
H946 H 0.84091 0.44571 0.02633 0.0
H947 H 0.86813 0.46797 0.04175 0.0
H948 H 0.87446 0.43403 0.01508 0.0
H949 H 0.80186 0.50069 0.7895 0.0
H950 H 0.81976 0.50121 0.69146 0.0
H951 H 0.82855 0.52364 0.77436 0.0
C952 C 0.01785 0.21277 0.97853 0.0
C953 C 0.04202 0.22187 0.01185 0.0
C954 C 1.01606 0.18901 0.93195 0.0
C955 C 0.03908 0.17349 0.91716 0.0
C956 C 0.06374 0.18311 0.94828 0.0
C957 C 0.06487 0.20689 0.99546 0.0
C958 C 0.98887 0.17998 0.90475 0.0
C959 C 0.08875 0.16726 0.93685 0.0
C960 C 0.02883 0.09866 0.88458 0.0
C961 C 0.03301 0.09514 0.79819 0.0
C962 C 0.03104 0.12369 0.92351 0.0
C963 C 0.03711 0.14645 0.87534 0.0
C964 C 0.04056 0.14319 0.78745 0.0
C965 C 0.03862 0.11775 0.75027 0.0
C966 C 0.02678 0.12575 0.01679 0.0
C967 C 0.04676 0.16649 0.73226 0.0
H968 H 0.99985 0.22343 0.99354 0.0
H969 H 0.08346 0.213 0.02366 0.0
H970 H 0.98941 0.16357 0.85895 0.0
H971 H 0.97762 0.17327 0.96057 0.0
H972 H 0.97774 0.19673 0.87713 0.0
H973 H 0.10663 0.17806 0.95905 0.0
H974 H 0.08705 0.14852 0.9723 0.0
H975 H 0.09146 0.16205 0.86991 0.0
H976 H 0.02364 0.08172 0.92236 0.0
H977 H 0.04179 0.11559 0.6835 0.0
H978 H 1.00947 0.13859 0.02973 0.0
H979 H 0.04436 0.135 0.04684 0.0
H980 H 0.02322 0.10621 0.04625 0.0
H981 H 0.03561 0.18422 0.75242 0.0
H982 H 0.04206 0.16228 0.66558 0.0
H983 H 0.06822 0.17116 0.73697 0.0
C984 C 0.3272 0.05516 0.92701 0.0
C985 C 0.31722 0.03771 0.98802 0.0
C986 C 0.35166 0.05074 0.88588 0.0
C987 C 0.36708 0.02814 0.90518 0.0
C988 C 0.35648 1.00971 0.96358 0.0
C989 C 0.3319 1.01473 1.00428 0.0
C990 C 0.36183 0.07126 0.82546 0.0
C991 C 0.37181 0.9853 0.98669 0.0
C992 C 0.42434 1.01059 0.75349 0.0
C993 C 0.44683 0.02133 0.79369 0.0
C994 C 0.39863 1.01205 0.78956 0.0
C995 C 0.39476 0.02484 0.86792 0.0
C996 C 0.41743 0.03557 0.90891 0.0
C997 C 0.4429 0.03352 0.87202 0.0
C998 C 0.37547 1.00008 0.74312 0.0
C999 C 0.41494 0.04921 0.99251 0.0
H1000 H 0.3165 0.0733 0.91506 0.0
H1001 H 0.32503 1.00145 0.05283 0.0
H1002 H 0.37987 0.08077 0.85182 0.0
H1003 H 0.36755 0.0619 0.76533 0.0
H1004 H 0.3469 0.08682 0.81258 0.0
H1005 H 0.35965 0.97122 0.02371 0.0
H1006 H 0.37911 0.97515 0.92959 0.0
H1007 H 0.3894 0.991 0.02445 0.0
H1008 H 0.42672 1.00109 0.69313 0.0
H1009 H 0.45981 0.04189 0.90467 0.0
H1010 H 0.36122 1.01578 0.72565 0.0
H1011 H 0.36477 0.98598 0.78424 0.0
H1012 H 0.38171 0.98957 0.68533 0.0
H1013 H 0.39826 0.06344 0.99198 0.0
H1014 H 0.43336 0.05991 0.01041 0.0
H1015 H 0.41075 0.03421 0.04123 0.0
C1016 C 0.52992 0.32869 0.98098 0.0
C1017 C 0.50975 0.32617 0.041 0.0
C1018 C 0.53347 0.35236 0.93423 0.0
C1019 C 0.5161 0.37437 0.94582 0.0
C1020 C 0.49562 0.37159 1.00634 0.0
C1021 C 0.49254 0.34778 0.05149 0.0
C1022 C 0.55672 0.35334 0.87537 0.0
C1023 C 0.47776 0.39444 0.02767 0.0
C1024 C 0.54047 0.44396 0.87752 0.0
C1025 C 0.52188 0.45131 0.81622 0.0
C1026 C 0.53883 0.41935 0.91987 0.0
C1027 C 0.51907 0.4004 0.89749 0.0
C1028 C 0.50081 0.40758 0.83309 0.0
C1029 C 0.50202 0.43293 0.79545 0.0
C1030 C 0.55811 0.41403 0.99006 0.0
C1031 C 0.47957 0.38887 0.80255 0.0
H1032 H 0.54386 0.31263 0.97334 0.0
H1033 H 0.47706 0.34644 0.09842 0.0
H1034 H 0.56006 0.37308 0.8483 0.0
H1035 H 0.57502 0.34735 0.90901 0.0
H1036 H 0.55363 0.3388 0.82422 0.0
H1037 H 0.46585 0.39078 0.08501 0.0
H1038 H 0.48981 0.41254 0.03744 0.0
H1039 H 0.46391 0.39813 0.97516 0.0
H1040 H 0.55585 0.45796 0.89471 0.0
H1041 H 0.48756 0.43815 0.74804 0.0
H1042 H 0.57362 0.40021 0.96792 0.0
H1043 H 0.54789 0.40476 0.04413 0.0
H1044 H 0.5681 0.43237 0.01188 0.0
H1045 H 0.47873 0.38918 0.73305 0.0
H1046 H 0.45998 0.39574 0.8253 0.0
H1047 H 0.48265 0.36824 0.82324 0.0
C1048 C 0.19424 0.50703 0.07551 0.0
C1049 C 0.22046 0.50514 0.04463 0.0
C1050 C 0.17216 0.51108 0.02275 0.0
C1051 C 0.17581 0.51472 0.93564 0.0
C1052 C 0.20238 0.51477 0.90456 0.0
C1053 C 0.22421 0.50973 0.9588 0.0
C1054 C 0.14468 0.5106 0.06052 0.0
C1055 C 0.20789 0.5194 0.81347 0.0
C1056 C 0.11467 0.49665 0.80126 0.0
C1057 C 0.10146 0.52086 0.79193 0.0
C1058 C 0.13918 0.49456 0.84426 0.0
C1059 C 0.1516 0.51734 0.87867 0.0
C1060 C 0.13899 0.54211 0.86605 0.0
C1061 C 0.11428 0.54356 0.82338 0.0
C1062 C 0.15137 0.46765 0.85507 0.0
C1063 C 0.15129 0.56713 0.89973 0.0
H1064 H 0.19073 0.50476 0.14199 0.0
H1065 H 0.2441 0.50866 0.93341 0.0
H1066 H 0.13424 0.52933 0.04681 0.0
H1067 H 0.13287 0.49438 0.03202 0.0
H1068 H 0.14506 0.50771 0.12945 0.0
H1069 H 0.22901 0.5245 0.80187 0.0
H1070 H 0.2032 0.50113 0.77817 0.0
H1071 H 0.1953 0.53559 0.78976 0.0
H1072 H 0.10586 0.47913 0.77448 0.0
H1073 H 0.10474 0.56255 0.81606 0.0
H1074 H 0.14942 0.46148 0.92143 0.0
H1075 H 0.17282 0.46822 0.83984 0.0
H1076 H 0.14164 0.45254 0.81491 0.0
H1077 H 0.15031 0.56711 0.96911 0.0
H1078 H 0.14105 0.58504 0.87634 0.0
H1079 H 0.17254 0.56824 0.88202 0.0
C1080 C 0.02976 0.84235 0.32577 0.0
C1081 C 1.01534 0.82047 0.35625 0.0
C1082 C 0.03236 0.86611 0.37203 0.0
C1083 C 0.0203 0.86865 0.45192 0.0
C1084 C 1.00696 0.84615 0.48496 0.0
C1085 C 1.00462 0.8225 0.43717 0.0
C1086 C 0.04731 0.88893 0.33377 0.0
C1087 C 0.99447 0.8473 0.57026 0.0
C1088 C 0.04173 0.927 0.59527 0.0
C1089 C 0.02194 0.94608 0.58065 0.0
C1090 C 0.04152 0.90201 0.5545 0.0
C1091 C 0.02069 0.89513 0.49833 0.0
C1092 C 1.00057 0.9142 0.48394 0.0
C1093 C 1.00154 0.93918 0.5243 0.0
C1094 C 0.06373 0.88297 0.57233 0.0
C1095 C 0.97791 0.90831 0.42495 0.0
H1096 H 0.03811 0.84126 0.26332 0.0
H1097 H 0.99316 0.80608 0.46144 0.0
H1098 H 0.03355 0.9056 0.32265 0.0
H1099 H 0.06287 0.89602 0.37763 0.0
H1100 H 0.05681 0.88354 0.27339 0.0
H1101 H 0.98417 0.82862 0.58682 0.0
H1102 H 1.01008 0.8513 0.61759 0.0
H1103 H 0.98002 0.86374 0.57311 0.0
H1104 H 0.05774 0.93164 0.63819 0.0
H1105 H 0.98612 0.95336 0.51137 0.0
H1106 H 0.08158 0.89334 0.59669 0.0
H1107 H 0.06948 0.87177 0.51547 0.0
H1108 H 0.05704 0.86854 0.62005 0.0
H1109 H 0.9857 0.90457 0.36108 0.0
H1110 H 0.96341 0.92474 0.42175 0.0
H1111 H 0.96738 0.89016 0.44529 0.0
C1112 C 0.70847 0.98745 0.37021 0.0
C1113 C 0.72405 1.0105 0.36858 0.0
C1114 C 0.68522 0.98566 0.42012 0.0
C1115 C 0.67684 1.00756 0.46926 0.0
C1116 C 0.69343 0.03026 0.47157 0.0
C1117 C 0.71658 0.03144 0.42149 0.0
C1118 C 0.66858 0.96092 0.41546 0.0
C1119 C 0.68563 0.05427 0.5218 0.0
C1120 C 0.60191 0.01823 0.4996 0.0
C1121 C 0.5974 1.01044 0.583 0.0
C1122 C 0.62733 0.01723 0.4626 0.0
C1123 C 0.64943 1.00809 0.50926 0.0
C1124 C 0.64512 1.00022 0.59374 0.0
C1125 C 0.61933 1.00161 0.62958 0.0
C1126 C 0.63052 0.02629 0.37312 0.0
C1127 C 0.66782 0.9903 0.64634 0.0
H1128 H 0.7134 0.97147 0.32784 0.0
H1129 H 0.72788 0.04966 0.41898 0.0
H1130 H 0.66249 0.95459 0.4791 0.0
H1131 H 0.65023 0.96497 0.37933 0.0
H1132 H 0.6793 0.94445 0.38457 0.0
H1133 H 0.70194 0.06901 0.52562 0.0
H1134 H 0.66819 0.06377 0.49217 0.0
H1135 H 0.67976 0.04858 0.58623 0.0
H1136 H 0.58548 0.0257 0.46298 0.0
H1137 H 0.61631 0.99559 0.69395 0.0
H1138 H 0.63868 1.01005 0.33434 0.0
H1139 H 0.64484 0.04294 0.37029 0.0
H1140 H 0.61147 0.03279 0.345 0.0
H1141 H 0.67733 0.97321 0.61498 0.0
H1142 H 0.66131 0.9842 0.7099 0.0
H1143 H 0.68314 1.00593 0.65272 0.0
C1144 C 0.52792 0.69305 0.32148 0.0
C1145 C 0.53544 0.71843 0.34985 0.0
C1146 C 0.52586 0.67115 0.37586 0.0
C1147 C 0.53015 0.67428 0.46311 0.0
C1148 C 0.53564 0.70024 0.49347 0.0
C1149 C 0.53856 0.72177 0.43682 0.0
C1150 C 0.52013 0.64426 0.33891 0.0
C1151 C 0.53961 0.70536 0.58554 0.0
C1152 C 0.50528 0.61531 0.59591 0.0
C1153 C 0.52856 0.60057 0.60944 0.0
C1154 C 0.50567 0.63981 0.55276 0.0
C1155 C 0.52983 0.65008 0.52017 0.0
C1156 C 0.55346 0.63571 0.53618 0.0
C1157 C 0.55257 0.6116 0.58115 0.0
C1158 C 0.4801 0.65478 0.54207 0.0
C1159 C 0.57978 0.64542 0.50349 0.0
H1160 H 0.52448 0.68998 0.25518 0.0
H1161 H 0.54431 0.741 0.46059 0.0
H1162 H 0.53679 0.63068 0.35289 0.0
H1163 H 0.50203 0.63574 0.36775 0.0
H1164 H 0.51727 0.64494 0.26996 0.0
H1165 H 0.53513 0.72619 0.60191 0.0
H1166 H 0.52696 0.69223 0.62415 0.0
H1167 H 0.56065 0.70163 0.60169 0.0
H1168 H 0.48653 0.6076 0.61845 0.0
H1169 H 0.57085 0.60132 0.59393 0.0
H1170 H 0.47613 0.65831 0.4747 0.0
H1171 H 0.4819 0.67436 0.57286 0.0
H1172 H 0.46288 0.64414 0.56942 0.0
H1173 H 0.57956 0.64501 0.43399 0.0
H1174 H 0.59661 0.63321 0.52584 0.0
H1175 H 0.5832 0.66615 0.52321 0.0
C1176 C 0.83702 0.56116 0.40761 0.0
C1177 C 0.82483 0.53747 0.38216 0.0
C1178 C 0.86129 0.56125 0.4532 0.0
C1179 C 0.87409 0.53711 0.47373 0.0
C1180 C 0.86107 0.51318 0.45169 0.0
C1181 C 0.83696 0.51366 0.40614 0.0
C1182 C 0.87391 0.58729 0.47605 0.0
C1183 C 0.87337 0.48687 0.47221 0.0
C1184 C 0.9503 0.53444 0.4962 0.0
C1185 C 0.95433 0.53338 0.58337 0.0
C1186 C 0.92463 0.53611 0.46052 0.0
C1187 C 0.90177 0.53665 0.51252 0.0
C1188 C 0.90565 0.53559 0.60079 0.0
C1189 C 0.93165 0.53397 0.63483 0.0
C1190 C 0.92201 0.53706 0.36642 0.0
C1191 C 0.88243 0.53672 0.66013 0.0
H1192 H 0.82837 0.57968 0.38784 0.0
H1193 H 0.82819 0.49521 0.38536 0.0
H1194 H 0.87865 0.58771 0.54391 0.0
H1195 H 0.89286 0.58965 0.44153 0.0
H1196 H 0.86088 0.60428 0.46113 0.0
H1197 H 0.85912 0.4703 0.46394 0.0
H1198 H 0.89062 0.48345 0.43051 0.0
H1199 H 0.88079 0.48673 0.53759 0.0
H1200 H 0.9673 0.53355 0.45508 0.0
H1201 H 0.93416 0.53326 0.70219 0.0
H1202 H 0.911 0.55502 0.34759 0.0
H1203 H 0.91044 0.51976 0.34411 0.0
H1204 H 0.94156 0.53712 0.33442 0.0
H1205 H 0.87674 0.55764 0.66962 0.0
H1206 H 0.88748 0.52824 0.72223 0.0
H1207 H 0.8649 0.52615 0.63458 0.0
loop_
_geom_bond_atom_site_label_1
_geom_bond_atom_site_label_2
_geom_bond_distance
_geom_bond_site_symmetry_2
_ccdc_geom_bond_type
H0 C7 0.929 . S
H1 C10 0.930 . S
H2 C12 0.929 . S
H3 C4 0.969 . S
C4 H3 0.969 . S
C4 O5 1.550 . S
C4 H6 0.973 . S
O5 C4 1.550 . S
O5 C11 1.412 . S
H6 C4 0.973 . S
C7 H0 0.929 . S
C7 C8 1.400 . S
C7 C9 1.364 . S
C8 C7 1.400 . S
C8 C12 1.377 . S
C9 C7 1.364 . S
C9 C10 1.374 . S
C10 H1 0.930 . S
C10 C9 1.374 . S
C10 C11 1.383 . S
C11 O5 1.412 . S
C11 C10 1.383 . S
C11 C12 1.394 . S
C12 H2 0.929 . S
C12 C8 1.377 . S
C12 C11 1.394 . S
H13 C20 0.929 . S
H14 C23 0.930 . S
H15 C25 0.929 . S
H16 C17 0.969 1_455 S
C17 H16 0.969 1_655 S
C17 O18 1.550 . S
C17 H19 0.973 . S
O18 C17 1.550 . S
O18 C24 1.412 . S
H19 C17 0.973 . S
C20 H13 0.929 . S
C20 C21 1.400 . S
C20 C22 1.364 . S
C21 C20 1.400 . S
C21 C25 1.377 . S
C22 C20 1.364 . S
C22 C23 1.374 . S
C23 H14 0.930 . S
C23 C22 1.374 . S
C23 C24 1.383 . S
C24 O18 1.412 . S
C24 C23 1.383 . S
C24 C25 1.394 . S
C25 H15 0.929 . S
C25 C21 1.377 . S
C25 C24 1.394 . S
H26 C33 0.929 . S
H27 C36 0.930 . S
H28 C38 0.929 . S
H29 C30 0.969 1_545 S
C30 H29 0.969 1_565 S
C30 O31 1.550 . S
C30 H32 0.973 . S
O31 C30 1.550 . S
O31 C37 1.412 . S
H32 C30 0.973 . S
C33 H26 0.929 . S
C33 C34 1.400 . S
C33 C35 1.364 . S
C34 C33 1.400 . S
C34 C38 1.377 . S
C35 C33 1.364 . S
C35 C36 1.374 . S
C36 H27 0.930 . S
C36 C35 1.374 . S
C36 C37 1.383 . S
C37 O31 1.412 . S
C37 C36 1.383 . S
C37 C38 1.394 . S
C38 H28 0.929 . S
C38 C34 1.377 . S
C38 C37 1.394 . S
H39 C46 0.929 . S
H40 C49 0.930 . S
H41 C51 0.929 . S
H42 C43 0.969 . S
C43 H42 0.969 . S
C43 O44 1.550 . S
C43 H45 0.973 . S
O44 C43 1.550 . S
O44 C50 1.412 . S
H45 C43 0.973 . S
C46 H39 0.929 . S
C46 C47 1.400 . S
C46 C48 1.364 . S
C47 C46 1.400 . S
C47 C51 1.377 . S
C48 C46 1.364 . S
C48 C49 1.374 . S
C49 H40 0.930 . S
C49 C48 1.374 . S
C49 C50 1.383 . S
C50 O44 1.412 . S
C50 C49 1.383 . S
C50 C51 1.394 . S
C51 H41 0.929 . S
C51 C47 1.377 . S
C51 C50 1.394 . S
H52 C59 0.929 . S
H53 C62 0.930 . S
H54 C64 0.929 . S
H55 C56 0.969 . S
C56 H55 0.969 . S
C56 O57 1.550 . S
C56 H58 0.973 . S
O57 C56 1.550 . S
O57 C63 1.412 . S
H58 C56 0.973 . S
C59 H52 0.929 . S
C59 C60 1.400 1_554 S
C59 C61 1.364 . S
C60 C59 1.400 1_556 S
C60 C64 1.377 . S
C61 C59 1.364 . S
C61 C62 1.374 . S
C62 H53 0.930 . S
C62 C61 1.374 . S
C62 C63 1.383 . S
C63 O57 1.412 . S
C63 C62 1.383 . S
C63 C64 1.394 1_554 S
C64 H54 0.929 . S
C64 C60 1.377 . S
C64 C63 1.394 1_556 S
H65 C72 0.929 . S
H66 C75 0.930 . S
H67 C77 0.929 . S
H68 C69 0.969 . S
C69 H68 0.969 . S
C69 O70 1.550 . S
C69 H71 0.973 . S
O70 C69 1.550 . S
O70 C76 1.412 . S
H71 C69 0.973 . S
C72 H65 0.929 . S
C72 C73 1.400 1_554 S
C72 C74 1.364 . S
C73 C72 1.400 1_556 S
C73 C77 1.377 . S
C74 C72 1.364 . S
C74 C75 1.374 . S
C75 H66 0.930 . S
C75 C74 1.374 . S
C75 C76 1.383 . S
C76 O70 1.412 . S
C76 C75 1.383 . S
C76 C77 1.394 1_554 S
C77 H67 0.929 . S
C77 C73 1.377 . S
C77 C76 1.394 1_556 S
H78 C85 0.929 . S
H79 C88 0.930 . S
H80 C90 0.929 . S
H81 C82 0.969 . S
C82 H81 0.969 . S
C82 O83 1.550 . S
C82 H84 0.973 . S
O83 C82 1.550 . S
O83 C89 1.412 . S
H84 C82 0.973 . S
C85 H78 0.929 . S
C85 C86 1.400 1_554 S
C85 C87 1.364 . S
C86 C85 1.400 1_556 S
C86 C90 1.377 . S
C87 C85 1.364 . S
C87 C88 1.374 . S
C88 H79 0.930 . S
C88 C87 1.374 . S
C88 C89 1.383 . S
C89 O83 1.412 . S
C89 C88 1.383 . S
C89 C90 1.394 1_554 S
C90 H80 0.929 . S
C90 C86 1.377 . S
C90 C89 1.394 1_556 S
H91 C98 0.929 . S
H92 C101 0.930 . S
H93 C103 0.929 . S
H94 C95 0.969 . S
C95 H94 0.969 . S
C95 O96 1.550 . S
C95 H97 0.973 . S
O96 C95 1.550 . S
O96 C102 1.412 . S
H97 C95 0.973 . S
C98 H91 0.929 . S
C98 C99 1.400 1_554 S
C98 C100 1.364 . S
C99 C98 1.400 1_556 S
C99 C103 1.377 . S
C100 C98 1.364 . S
C100 C101 1.374 . S
C101 H92 0.930 . S
C101 C100 1.374 . S
C101 C102 1.383 . S
C102 O96 1.412 . S
C102 C101 1.383 . S
C102 C103 1.394 1_554 S
C103 H93 0.929 . S
C103 C99 1.377 . S
C103 C102 1.394 1_556 S
C104 C106 1.422 . S
C104 C108 1.415 . S
C104 N110 1.369 . S
C105 C106 1.421 1_554 S
C105 C107 1.417 . S
C105 C117 1.422 . S
C106 C104 1.422 . S
C106 C105 1.421 1_556 S
C106 N116 1.359 . S
C107 C105 1.417 . S
C107 C109 1.335 . S
C107 H126 0.930 . S
C108 C104 1.415 . S
C108 C109 1.428 1_556 S
C108 C112 1.413 . S
C109 C107 1.335 . S
C109 C108 1.428 1_554 S
C109 H131 0.933 . S
N110 C104 1.369 . S
N110 C111 1.338 . S
N110 Gd115 2.622 1_545 S
C111 N110 1.338 . S
C111 C113 1.378 . S
C111 H123 0.929 1_545 S
C112 C108 1.413 . S
C112 C113 1.348 . S
C112 H128 0.931 . S
C113 C111 1.378 . S
C113 C112 1.348 . S
C113 H129 0.930 . S
Gd114 N134 2.622 . S
Gd114 N141 2.570 . S
Gd114 O148 2.353 1_655 S
Gd114 O149 2.468 1_655 S
Gd114 O150 2.427 . S
Gd114 O152 2.388 . S
Gd114 O153 2.386 1_545 S
Gd114 O157 2.307 1_655 S
Gd114 C167 2.805 . S
Gd115 N110 2.622 1_565 S
Gd115 N116 2.570 1_565 S
Gd115 O147 2.386 1_565 S
Gd115 O151 2.307 1_465 S
Gd115 O154 2.353 . S
Gd115 O155 2.468 . S
Gd115 O156 2.427 . S
Gd115 O158 2.388 . S
Gd115 C179 2.805 . S
N116 C106 1.359 . S
N116 Gd115 2.570 1_545 S
N116 C118 1.343 . S
C117 C105 1.422 . S
C117 C119 1.321 . S
C117 H125 0.931 . S
C118 N116 1.343 . S
C118 C119 1.390 1_556 S
C118 H120 0.931 1_455 S
C119 C117 1.321 . S
C119 C118 1.390 1_554 S
C119 H121 0.918 1_455 S
H120 C118 0.931 1_655 S
H121 C119 0.918 1_655 S
H122 C145 0.931 . S
H123 C111 0.929 1_565 S
H124 C146 0.930 . S
H125 C117 0.931 . S
H126 C107 0.930 . S
H127 C136 0.929 . S
H128 C112 0.931 . S
H129 C113 0.930 . S
H130 C168 0.930 . S
H131 C109 0.933 . S
H132 C137 0.931 . S
H133 C138 0.930 . S
N134 Gd114 2.622 . S
N134 C135 1.369 . S
N134 C136 1.338 . S
C135 N134 1.369 . S
C135 C139 1.415 1_545 S
C135 C142 1.427 . S
C136 H127 0.929 . S
C136 N134 1.338 . S
C136 C138 1.378 . S
C137 H132 0.931 . S
C137 C138 1.348 1_565 S
C137 C139 1.413 . S
C138 H133 0.930 . S
C138 C136 1.378 . S
C138 C137 1.348 1_545 S
C139 C135 1.415 1_565 S
C139 C137 1.413 . S
C139 C169 1.437 . S
H140 C169 0.929 . S
N141 Gd114 2.570 . S
N141 C142 1.376 . S
N141 C145 1.343 1_655 S
C142 C135 1.427 . S
C142 N141 1.376 . S
C142 C144 1.400 1_545 S
C143 C144 1.422 . S
C143 C146 1.321 1_655 S
C143 H170 0.931 . S
C144 C142 1.400 1_565 S
C144 C143 1.422 . S
C144 C168 1.417 . S
C145 H122 0.931 . S
C145 N141 1.343 1_455 S
C145 C146 1.390 1_545 S
C146 H124 0.930 . S
C146 C143 1.321 1_455 S
C146 C145 1.390 1_565 S
O147 Gd115 2.386 1_545 S
O147 C159 1.265 . S
O148 Gd114 2.353 1_455 S
O148 C159 1.242 . S
O149 Gd114 2.468 1_455 S
O149 C167 1.263 1_455 S
O150 Gd114 2.427 . S
O150 C167 1.252 . S
O151 Gd115 2.307 1_645 S
O151 C160 1.261 . S
O152 Gd114 2.388 . S
O152 C160 1.252 . S
O153 Gd114 2.386 1_565 S
O153 C171 1.265 . S
O154 Gd115 2.353 . S
O154 C171 1.242 1_455 S
O155 Gd115 2.468 . S
O155 C179 1.263 . S
O156 Gd115 2.427 . S
O156 C179 1.252 . S
O157 Gd114 2.307 1_455 S
O157 C172 1.261 . S
O158 Gd115 2.388 . S
O158 C172 1.252 1_565 S
C159 O147 1.265 . S
C159 O148 1.242 . S
C160 O151 1.261 . S
C160 O152 1.252 . S
C161 C164 1.394 . S
C161 C166 1.370 . S
C161 C167 1.500 . S
C162 C165 1.383 . S
C162 C166 1.395 . S
C163 C164 1.396 . S
C163 C165 1.365 . S
C163 H180 0.929 . S
C164 C161 1.394 . S
C164 C163 1.396 . S
C164 H181 0.930 . S
C165 C162 1.383 . S
C165 C163 1.365 . S
C165 H182 0.931 . S
C166 C161 1.370 . S
C166 C162 1.395 . S
C166 H183 0.930 1_655 S
C167 Gd114 2.805 . S
C167 O149 1.263 1_655 S
C167 O150 1.252 . S
C167 C161 1.500 . S
C168 H130 0.930 . S
C168 C144 1.417 . S
C168 C169 1.329 . S
C169 C139 1.437 . S
C169 H140 0.929 . S
C169 C168 1.329 . S
H170 C143 0.931 . S
C171 O153 1.265 . S
C171 O154 1.242 1_655 S
C172 O157 1.261 . S
C172 O158 1.252 1_545 S
C173 C176 1.394 . S
C173 C178 1.370 . S
C173 C179 1.500 . S
C174 C177 1.383 . S
C174 C178 1.395 . S
C175 C176 1.396 . S
C175 C177 1.365 . S
C175 H184 0.929 . S
C176 C173 1.394 . S
C176 C175 1.396 . S
C176 H185 0.930 . S
C177 C174 1.383 . S
C177 C175 1.365 . S
C177 H186 0.924 1_556 S
C178 C173 1.370 . S
C178 C174 1.395 . S
C178 H187 0.930 . S
C179 Gd115 2.805 . S
C179 O155 1.263 . S
C179 O156 1.252 . S
C179 C173 1.500 . S
H180 C163 0.929 . S
H181 C164 0.930 . S
H182 C165 0.931 . S
H183 C166 0.930 1_455 S
H184 C175 0.929 . S
H185 C176 0.930 . S
H186 C177 0.924 1_554 S
H187 C178 0.930 . S
C188 C190 1.422 . S
C188 C192 1.415 . S
C188 N194 1.369 . S
C189 C190 1.421 . S
C189 C191 1.417 . S
C189 C201 1.422 . S
C190 C188 1.422 . S
C190 C189 1.421 . S
C190 N200 1.359 . S
C191 C189 1.417 . S
C191 C193 1.329 . S
C191 H210 0.930 . S
C192 C188 1.415 . S
C192 C193 1.437 . S
C192 C196 1.413 . S
C193 C191 1.329 . S
C193 C192 1.437 . S
C193 H215 0.929 . S
N194 C188 1.369 . S
N194 C195 1.338 . S
N194 Gd199 2.622 . S
C195 N194 1.338 . S
C195 C197 1.378 . S
C195 H207 0.929 . S
C196 C192 1.413 . S
C196 C197 1.348 . S
C196 H212 0.931 . S
C197 C195 1.378 . S
C197 C196 1.348 . S
C197 H213 0.930 . S
Gd198 N218 2.622 . S
Gd198 N225 2.570 . S
Gd198 O232 2.353 1_545 S
Gd198 O233 2.468 . S
Gd198 O234 2.427 . S
Gd198 O236 2.388 . S
Gd198 O237 2.386 . S
Gd198 O241 2.307 . S
Gd198 C251 2.805 . S
Gd199 N194 2.622 . S
Gd199 N200 2.570 . S
Gd199 O231 2.386 . S
Gd199 O235 2.307 1_565 S
Gd199 O238 2.353 1_565 S
Gd199 O239 2.468 . S
Gd199 O240 2.427 . S
Gd199 O242 2.388 . S
Gd199 C263 2.805 . S
N200 C190 1.359 . S
N200 Gd199 2.570 . S
N200 C202 1.343 . S
C201 C189 1.422 . S
C201 C203 1.321 . S
C201 H209 0.931 . S
C202 N200 1.343 . S
C202 C203 1.390 . S
C202 H204 0.931 . S
C203 C201 1.321 . S
C203 C202 1.390 . S
C203 H205 0.930 . S
H204 C202 0.931 . S
H205 C203 0.930 . S
H206 C229 0.931 . S
H207 C195 0.929 . S
H208 C230 0.930 . S
H209 C201 0.931 . S
H210 C191 0.930 . S
H211 C220 0.929 . S
H212 C196 0.931 . S
H213 C197 0.930 . S
H214 C252 0.930 . S
H215 C193 0.929 . S
H216 C221 0.931 . S
H217 C222 0.930 . S
N218 Gd198 2.622 . S
N218 C219 1.369 . S
N218 C220 1.338 . S
C219 N218 1.369 . S
C219 C223 1.415 . S
C219 C226 1.422 . S
C220 H211 0.929 . S
C220 N218 1.338 . S
C220 C222 1.378 . S
C221 H216 0.931 . S
C221 C222 1.348 . S
C221 C223 1.413 . S
C222 H217 0.930 . S
C222 C220 1.378 . S
C222 C221 1.348 . S
C223 C219 1.415 . S
C223 C221 1.413 . S
C223 C253 1.437 . S
H224 C253 0.929 . S
N225 Gd198 2.570 . S
N225 C226 1.359 . S
N225 C229 1.343 . S
C226 C219 1.422 . S
C226 N225 1.359 . S
C226 C228 1.421 . S
C227 C228 1.422 . S
C227 C230 1.321 . S
C227 H254 0.931 . S
C228 C226 1.421 . S
C228 C227 1.422 . S
C228 C252 1.417 . S
C229 H206 0.931 . S
C229 N225 1.343 . S
C229 C230 1.390 . S
C230 H208 0.930 . S
C230 C227 1.321 . S
C230 C229 1.390 . S
O231 Gd199 2.386 . S
O231 C243 1.265 . S
O232 Gd198 2.353 1_565 S
O232 C243 1.242 . S
O233 Gd198 2.468 . S
O233 C251 1.263 . S
O234 Gd198 2.427 . S
O234 C251 1.252 . S
O235 Gd199 2.307 1_545 S
O235 C244 1.261 . S
O236 Gd198 2.388 . S
O236 C244 1.252 . S
O237 Gd198 2.386 . S
O237 C255 1.265 . S
O238 Gd199 2.353 1_545 S
O238 C255 1.242 . S
O239 Gd199 2.468 . S
O239 C263 1.263 . S
O240 Gd199 2.427 . S
O240 C263 1.252 . S
O241 Gd198 2.307 . S
O241 C256 1.261 . S
O242 Gd199 2.388 . S
O242 C256 1.252 1_565 S
C243 O231 1.265 . S
C243 O232 1.242 . S
C244 O235 1.261 . S
C244 O236 1.252 . S
C245 C248 1.394 1_556 S
C245 C250 1.370 . S
C245 C251 1.500 . S
C246 C249 1.383 . S
C246 C250 1.395 1_554 S
C247 C248 1.396 . S
C247 C249 1.365 . S
C247 H264 0.929 . S
C248 C245 1.394 1_554 S
C248 C247 1.396 . S
C248 H265 0.930 . S
C249 C246 1.383 . S
C249 C247 1.365 . S
C249 H266 0.931 . S
C250 C245 1.370 . S
C250 C246 1.395 1_556 S
C250 H267 0.930 . S
C251 Gd198 2.805 . S
C251 O233 1.263 . S
C251 O234 1.252 . S
C251 C245 1.500 . S
C252 H214 0.930 . S
C252 C228 1.417 . S
C252 C253 1.329 . S
C253 C223 1.437 . S
C253 H224 0.929 . S
C253 C252 1.329 . S
H254 C227 0.931 . S
C255 O237 1.265 . S
C255 O238 1.242 . S
C256 O241 1.261 . S
C256 O242 1.252 1_545 S
C257 C260 1.394 . S
C257 C262 1.370 1_565 S
C257 C263 1.500 . S
C258 C261 1.383 1_545 S
C258 C262 1.395 . S
C259 C260 1.396 . S
C259 C261 1.365 . S
C259 H268 0.929 . S
C260 C257 1.394 . S
C260 C259 1.396 . S
C260 H269 0.930 . S
C261 C258 1.383 1_565 S
C261 C259 1.365 . S
C261 H270 0.931 . S
C262 C257 1.370 1_545 S
C262 C258 1.395 . S
C262 H271 0.930 . S
C263 Gd199 2.805 . S
C263 O239 1.263 . S
C263 O240 1.252 . S
C263 C257 1.500 . S
H264 C247 0.929 . S
H265 C248 0.930 . S
H266 C249 0.931 . S
H267 C250 0.930 . S
H268 C259 0.929 . S
H269 C260 0.930 . S
H270 C261 0.931 . S
H271 C262 0.930 . S
C272 C274 1.422 . S
C272 C276 1.415 . S
C272 N278 1.369 . S
C273 C274 1.421 1_554 S
C273 C275 1.417 . S
C273 C285 1.422 . S
C274 C272 1.422 . S
C274 C273 1.421 1_556 S
C274 N284 1.359 . S
C275 C273 1.417 . S
C275 C277 1.333 . S
C275 H294 0.930 . S
C276 C272 1.415 . S
C276 C277 1.432 1_556 S
C276 C280 1.413 . S
C277 C275 1.333 . S
C277 C276 1.432 1_554 S
C277 H299 0.931 . S
N278 C272 1.369 . S
N278 C279 1.338 . S
N278 Gd283 2.622 . S
C279 N278 1.338 . S
C279 C281 1.378 . S
C279 H291 0.929 . S
C280 C276 1.413 . S
C280 C281 1.348 . S
C280 H296 0.931 . S
C281 C279 1.378 . S
C281 C280 1.348 . S
C281 H297 0.930 . S
Gd282 N302 2.622 . S
Gd282 N309 2.570 . S
Gd282 O316 2.353 . S
Gd282 O317 2.468 . S
Gd282 O318 2.427 . S
Gd282 O320 2.388 . S
Gd282 O321 2.386 . S
Gd282 O325 2.307 . S
Gd282 C335 2.805 . S
Gd283 N278 2.622 . S
Gd283 N284 2.570 . S
Gd283 O315 2.386 . S
Gd283 O319 2.307 . S
Gd283 O322 2.353 . S
Gd283 O323 2.468 . S
Gd283 O324 2.427 . S
Gd283 O326 2.388 . S
Gd283 C347 2.805 . S
N284 C274 1.359 . S
N284 Gd283 2.570 . S
N284 C286 1.343 . S
C285 C273 1.422 . S
C285 C287 1.321 . S
C285 H293 0.931 . S
C286 N284 1.343 . S
C286 C287 1.390 1_556 S
C286 H288 0.931 . S
C287 C285 1.321 . S
C287 C286 1.390 1_554 S
C287 H289 0.930 . S
H288 C286 0.931 . S
H289 C287 0.930 . S
H290 C313 0.931 . S
H291 C279 0.929 . S
H292 C314 0.930 . S
H293 C285 0.931 . S
H294 C275 0.930 . S
H295 C304 0.929 . S
H296 C280 0.931 . S
H297 C281 0.930 . S
H298 C336 0.930 . S
H299 C277 0.931 . S
H300 C305 0.931 . S
H301 C306 0.930 . S
N302 Gd282 2.622 . S
N302 C303 1.369 . S
N302 C304 1.338 . S
C303 N302 1.369 . S
C303 C307 1.415 . S
C303 C310 1.422 . S
C304 H295 0.929 . S
C304 N302 1.338 . S
C304 C306 1.378 . S
C305 H300 0.931 . S
C305 C306 1.348 . S
C305 C307 1.413 . S
C306 H301 0.930 . S
C306 C304 1.378 . S
C306 C305 1.348 . S
C307 C303 1.415 . S
C307 C305 1.413 . S
C307 C337 1.437 . S
H308 C337 0.929 . S
N309 Gd282 2.570 . S
N309 C310 1.359 . S
N309 C313 1.343 . S
C310 C303 1.422 . S
C310 N309 1.359 . S
C310 C312 1.421 . S
C311 C312 1.422 . S
C311 C314 1.321 . S
C311 H338 0.931 . S
C312 C310 1.421 . S
C312 C311 1.422 . S
C312 C336 1.417 . S
C313 H290 0.931 . S
C313 N309 1.343 . S
C313 C314 1.390 . S
C314 H292 0.930 . S
C314 C311 1.321 . S
C314 C313 1.390 . S
O315 Gd283 2.386 . S
O315 C327 1.265 . S
O316 Gd282 2.353 . S
O316 C327 1.242 . S
O317 Gd282 2.468 . S
O317 C335 1.263 . S
O318 Gd282 2.427 . S
O318 C335 1.252 . S
O319 Gd283 2.307 . S
O319 C328 1.261 . S
O320 Gd282 2.388 . S
O320 C328 1.252 . S
O321 Gd282 2.386 . S
O321 C339 1.265 . S
O322 Gd283 2.353 . S
O322 C339 1.242 . S
O323 Gd283 2.468 . S
O323 C347 1.263 . S
O324 Gd283 2.427 . S
O324 C347 1.252 . S
O325 Gd282 2.307 . S
O325 C340 1.261 . S
O326 Gd283 2.388 . S
O326 C340 1.252 . S
C327 O315 1.265 . S
C327 O316 1.242 . S
C328 O319 1.261 . S
C328 O320 1.252 . S
C329 C332 1.394 . S
C329 C334 1.370 . S
C329 C335 1.500 . S
C330 C333 1.383 . S
C330 C334 1.395 . S
C331 C332 1.396 . S
C331 C333 1.365 . S
C331 H348 0.929 . S
C332 C329 1.394 . S
C332 C331 1.396 . S
C332 H349 0.930 . S
C333 C330 1.383 . S
C333 C331 1.365 . S
C333 H350 0.931 . S
C334 C329 1.370 . S
C334 C330 1.395 . S
C334 H351 0.930 . S
C335 Gd282 2.805 . S
C335 O317 1.263 . S
C335 O318 1.252 . S
C335 C329 1.500 . S
C336 H298 0.930 . S
C336 C312 1.417 . S
C336 C337 1.329 . S
C337 C307 1.437 . S
C337 H308 0.929 . S
C337 C336 1.329 . S
H338 C311 0.931 . S
C339 O321 1.265 . S
C339 O322 1.242 . S
C340 O325 1.261 . S
C340 O326 1.252 . S
C341 C344 1.394 . S
C341 C346 1.370 . S
C341 C347 1.500 . S
C342 C345 1.383 . S
C342 C346 1.395 . S
C343 C344 1.396 . S
C343 C345 1.365 . S
C343 H352 0.929 . S
C344 C341 1.394 . S
C344 C343 1.396 . S
C344 H353 0.930 . S
C345 C342 1.383 . S
C345 C343 1.365 . S
C345 H354 0.931 1_556 S
C346 C341 1.370 . S
C346 C342 1.395 . S
C346 H355 0.930 . S
C347 Gd283 2.805 . S
C347 O323 1.263 . S
C347 O324 1.252 . S
C347 C341 1.500 . S
H348 C331 0.929 . S
H349 C332 0.930 . S
H350 C333 0.931 . S
H351 C334 0.930 . S
H352 C343 0.929 . S
H353 C344 0.930 . S
H354 C345 0.931 1_554 S
H355 C346 0.930 . S
C356 C358 1.422 . S
C356 C360 1.415 . S
C356 N362 1.369 . S
C357 C358 1.421 1_554 S
C357 C359 1.417 . S
C357 C369 1.422 . S
C358 C356 1.422 . S
C358 C357 1.421 1_556 S
C358 N368 1.359 . S
C359 C357 1.417 . S
C359 C361 1.330 . S
C359 H378 0.930 . S
C360 C356 1.415 . S
C360 C361 1.436 1_556 S
C360 C364 1.413 . S
C361 C359 1.330 . S
C361 C360 1.436 1_554 S
C361 H383 0.930 . S
N362 C356 1.369 . S
N362 C363 1.335 1_455 S
N362 Gd367 2.622 1_455 S
C363 N362 1.335 1_655 S
C363 C365 1.368 1_655 S
C363 H375 0.944 . S
C364 C360 1.413 . S
C364 C365 1.348 . S
C364 H380 0.931 . S
C365 C363 1.368 1_455 S
C365 C364 1.348 . S
C365 H381 0.930 . S
Gd366 N386 2.622 . S
Gd366 N393 2.570 . S
Gd366 O400 2.353 . S
Gd366 O401 2.468 . S
Gd366 O402 2.427 . S
Gd366 O404 2.388 . S
Gd366 O405 2.386 1_455 S
Gd366 O409 2.307 . S
Gd366 C419 2.805 . S
Gd367 N362 2.622 1_655 S
Gd367 N368 2.570 1_655 S
Gd367 O399 2.386 1_655 S
Gd367 O403 2.307 1_655 S
Gd367 O406 2.353 . S
Gd367 O407 2.468 . S
Gd367 O408 2.427 . S
Gd367 O410 2.388 . S
Gd367 C431 2.805 . S
N368 C358 1.359 . S
N368 Gd367 2.570 1_455 S
N368 C370 1.343 . S
C369 C357 1.422 . S
C369 C371 1.321 . S
C369 H377 0.931 . S
C370 N368 1.343 . S
C370 C371 1.390 1_556 S
C370 H372 0.931 . S
C371 C369 1.321 . S
C371 C370 1.390 1_554 S
C371 H373 0.930 . S
H372 C370 0.931 . S
H373 C371 0.930 . S
H374 C397 0.931 . S
H375 C363 0.944 . S
H376 C398 0.930 . S
H377 C369 0.931 . S
H378 C359 0.930 . S
H379 C388 0.929 . S
H380 C364 0.931 . S
H381 C365 0.930 . S
H382 C420 0.930 . S
H383 C361 0.930 . S
H384 C389 0.931 . S
H385 C390 0.930 . S
N386 Gd366 2.622 . S
N386 C387 1.369 . S
N386 C388 1.338 . S
C387 N386 1.369 . S
C387 C391 1.415 1_455 S
C387 C394 1.424 . S
C388 H379 0.929 . S
C388 N386 1.338 . S
C388 C390 1.378 . S
C389 H384 0.931 . S
C389 C390 1.348 1_655 S
C389 C391 1.413 . S
C390 H385 0.930 . S
C390 C388 1.378 . S
C390 C389 1.348 1_455 S
C391 C387 1.415 1_655 S
C391 C389 1.413 . S
C391 C421 1.437 . S
H392 C421 0.929 . S
N393 Gd366 2.570 . S
N393 C394 1.365 . S
N393 C397 1.343 . S
C394 C387 1.424 . S
C394 N393 1.365 . S
C394 C396 1.413 1_455 S
C395 C396 1.422 . S
C395 C398 1.321 . S
C395 H422 0.931 . S
C396 C394 1.413 1_655 S
C396 C395 1.422 . S
C396 C420 1.417 . S
C397 H374 0.931 . S
C397 N393 1.343 . S
C397 C398 1.390 1_455 S
C398 H376 0.930 . S
C398 C395 1.321 . S
C398 C397 1.390 1_655 S
O399 Gd367 2.386 1_455 S
O399 C411 1.265 . S
O400 Gd366 2.353 . S
O400 C411 1.242 . S
O401 Gd366 2.468 . S
O401 C419 1.263 . S
O402 Gd366 2.427 . S
O402 C419 1.252 . S
O403 Gd367 2.307 1_455 S
O403 C412 1.261 . S
O404 Gd366 2.388 . S
O404 C412 1.252 . S
O405 Gd366 2.386 1_655 S
O405 C423 1.265 . S
O406 Gd367 2.353 . S
O406 C423 1.242 . S
O407 Gd367 2.468 . S
O407 C431 1.263 . S
O408 Gd367 2.427 . S
O408 C431 1.252 . S
O409 Gd366 2.307 . S
O409 C424 1.261 . S
O410 Gd367 2.388 . S
O410 C424 1.252 1_655 S
C411 O399 1.265 . S
C411 O400 1.242 . S
C412 O403 1.261 . S
C412 O404 1.252 . S
C413 C416 1.394 . S
C413 C418 1.370 . S
C413 C419 1.500 . S
C414 C417 1.383 . S
C414 C418 1.395 . S
C415 C416 1.396 . S
C415 C417 1.365 . S
C415 H432 0.929 . S
C416 C413 1.394 . S
C416 C415 1.396 . S
C416 H433 0.930 . S
C417 C414 1.383 . S
C417 C415 1.365 . S
C417 H434 0.931 . S
C418 C413 1.370 . S
C418 C414 1.395 . S
C418 H435 0.930 . S
C419 Gd366 2.805 . S
C419 O401 1.263 . S
C419 O402 1.252 . S
C419 C413 1.500 . S
C420 H382 0.930 . S
C420 C396 1.417 . S
C420 C421 1.329 . S
C421 C391 1.437 . S
C421 H392 0.929 . S
C421 C420 1.329 . S
H422 C395 0.931 . S
C423 O405 1.265 . S
C423 O406 1.242 . S
C424 O409 1.261 . S
C424 O410 1.252 1_455 S
C425 C428 1.394 . S
C425 C430 1.370 . S
C425 C431 1.500 . S
C426 C429 1.383 . S
C426 C430 1.395 . S
C427 C428 1.396 . S
C427 C429 1.365 . S
C427 H436 0.929 . S
C428 C425 1.394 . S
C428 C427 1.396 . S
C428 H437 0.930 . S
C429 C426 1.383 . S
C429 C427 1.365 . S
C429 H438 0.931 1_556 S
C430 C425 1.370 . S
C430 C426 1.395 . S
C430 H439 0.930 . S
C431 Gd367 2.805 . S
C431 O407 1.263 . S
C431 O408 1.252 . S
C431 C425 1.500 . S
H432 C415 0.929 . S
H433 C416 0.930 . S
H434 C417 0.931 . S
H435 C418 0.930 . S
H436 C427 0.929 . S
H437 C428 0.930 . S
H438 C429 0.931 1_554 S
H439 C430 0.930 . S
C440 C441 1.391 . S
C440 C442 1.394 . S
C440 H456 0.931 . S
C441 C440 1.391 . S
C441 C445 1.376 . S
C442 C440 1.394 . S
C442 C443 1.369 . S
C442 C446 1.531 . S
C443 C442 1.369 . S
C443 C444 1.410 . S
C443 C451 1.503 . S
C444 C443 1.410 . S
C444 C445 1.392 . S
C444 C447 1.511 . S
C445 C441 1.376 . S
C445 C444 1.392 . S
C445 H457 0.929 . S
C446 C442 1.531 . S
C446 H458 0.960 1_545 S
C446 H459 0.962 . S
C446 H460 0.960 1_545 S
C447 C444 1.511 . S
C447 H461 0.961 . S
C447 H462 0.961 . S
C447 H463 0.961 . S
C448 C449 1.370 . S
C448 C450 1.363 . S
C448 H464 0.931 . S
C449 C448 1.370 . S
C449 C453 1.408 1_545 S
C450 C448 1.363 . S
C450 C451 1.370 . S
C450 C454 1.524 . S
C451 C443 1.503 . S
C451 C450 1.370 . S
C451 C452 1.419 . S
C452 C451 1.419 . S
C452 C453 1.403 1_545 S
C452 C455 1.524 1_545 S
C453 C449 1.408 1_565 S
C453 C452 1.403 1_565 S
C453 H465 0.930 . S
C454 C450 1.524 . S
C454 H466 0.956 . S
C454 H467 0.961 . S
C454 H468 0.961 . S
C455 C452 1.524 1_565 S
C455 H469 0.958 . S
C455 H470 0.961 . S
C455 H471 0.960 . S
H456 C440 0.931 . S
H457 C445 0.929 . S
H458 C446 0.960 1_565 S
H459 C446 0.962 . S
H460 C446 0.960 1_565 S
H461 C447 0.961 . S
H462 C447 0.961 . S
H463 C447 0.961 . S
H464 C448 0.931 . S
H465 C453 0.930 . S
H466 C454 0.956 . S
H467 C454 0.961 . S
H468 C454 0.961 . S
H469 C455 0.958 . S
H470 C455 0.961 . S
H471 C455 0.960 . S
C472 C473 1.391 . S
C472 C474 1.394 . S
C472 H488 0.931 . S
C473 C472 1.391 . S
C473 C477 1.376 . S
C474 C472 1.394 . S
C474 C475 1.369 . S
C474 C478 1.531 . S
C475 C474 1.369 . S
C475 C476 1.410 . S
C475 C483 1.503 . S
C476 C475 1.410 . S
C476 C477 1.392 . S
C476 C479 1.511 . S
C477 C473 1.376 . S
C477 C476 1.392 . S
C477 H489 0.929 . S
C478 C474 1.531 . S
C478 H490 0.960 . S
C478 H491 0.962 . S
C478 H492 0.960 . S
C479 C476 1.511 . S
C479 H493 0.961 . S
C479 H494 0.961 . S
C479 H495 0.961 . S
C480 C481 1.370 . S
C480 C482 1.363 . S
C480 H496 0.931 . S
C481 C480 1.370 . S
C481 C485 1.408 . S
C482 C480 1.363 . S
C482 C483 1.370 . S
C482 C486 1.524 . S
C483 C475 1.503 . S
C483 C482 1.370 . S
C483 C484 1.403 . S
C484 C483 1.403 . S
C484 C485 1.404 . S
C484 C487 1.539 . S
C485 C481 1.408 . S
C485 C484 1.404 . S
C485 H497 0.930 . S
C486 C482 1.524 . S
C486 H498 0.956 . S
C486 H499 0.961 . S
C486 H500 0.961 . S
C487 C484 1.539 . S
C487 H501 0.958 . S
C487 H502 0.961 . S
C487 H503 0.960 . S
H488 C472 0.931 . S
H489 C477 0.929 . S
H490 C478 0.960 . S
H491 C478 0.962 . S
H492 C478 0.960 . S
H493 C479 0.961 . S
H494 C479 0.961 . S
H495 C479 0.961 . S
H496 C480 0.931 . S
H497 C485 0.930 . S
H498 C486 0.956 . S
H499 C486 0.961 . S
H500 C486 0.961 . S
H501 C487 0.958 . S
H502 C487 0.961 . S
H503 C487 0.960 . S
C504 C505 1.391 . S
C504 C506 1.394 . S
C504 H520 0.931 . S
C505 C504 1.391 . S
C505 C509 1.376 . S
C506 C504 1.394 . S
C506 C507 1.369 . S
C506 C510 1.531 . S
C507 C506 1.369 . S
C507 C508 1.410 . S
C507 C515 1.503 . S
C508 C507 1.410 . S
C508 C509 1.392 . S
C508 C511 1.511 . S
C509 C505 1.376 . S
C509 C508 1.392 . S
C509 H521 0.929 . S
C510 C506 1.531 . S
C510 H522 0.960 . S
C510 H523 0.962 . S
C510 H524 0.960 . S
C511 C508 1.511 . S
C511 H525 0.961 . S
C511 H526 0.961 . S
C511 H527 0.961 . S
C512 C513 1.370 . S
C512 C514 1.363 . S
C512 H528 0.931 . S
C513 C512 1.370 . S
C513 C517 1.408 . S
C514 C512 1.363 . S
C514 C515 1.370 . S
C514 C518 1.524 . S
C515 C507 1.503 . S
C515 C514 1.370 . S
C515 C516 1.403 . S
C516 C515 1.403 . S
C516 C517 1.404 . S
C516 C519 1.539 . S
C517 C513 1.408 . S
C517 C516 1.404 . S
C517 H529 0.930 . S
C518 C514 1.524 . S
C518 H530 0.956 . S
C518 H531 0.961 . S
C518 H532 0.961 . S
C519 C516 1.539 . S
C519 H533 0.958 . S
C519 H534 0.961 . S
C519 H535 0.960 . S
H520 C504 0.931 . S
H521 C509 0.929 . S
H522 C510 0.960 . S
H523 C510 0.962 . S
H524 C510 0.960 . S
H525 C511 0.961 . S
H526 C511 0.961 . S
H527 C511 0.961 . S
H528 C512 0.931 . S
H529 C517 0.930 . S
H530 C518 0.956 . S
H531 C518 0.961 . S
H532 C518 0.961 . S
H533 C519 0.958 . S
H534 C519 0.961 . S
H535 C519 0.960 . S
C536 C537 1.391 . S
C536 C538 1.394 . S
C536 H552 0.931 . S
C537 C536 1.391 . S
C537 C541 1.376 . S
C538 C536 1.394 . S
C538 C539 1.369 . S
C538 C542 1.531 . S
C539 C538 1.369 . S
C539 C540 1.410 . S
C539 C547 1.503 . S
C540 C539 1.410 . S
C540 C541 1.392 . S
C540 C543 1.511 1_455 S
C541 C537 1.376 . S
C541 C540 1.392 . S
C541 H553 0.929 . S
C542 C538 1.531 . S
C542 H554 0.960 . S
C542 H555 0.962 . S
C542 H556 0.960 . S
C543 C540 1.511 1_655 S
C543 H557 0.961 . S
C543 H558 0.961 . S
C543 H559 0.961 . S
C544 C545 1.370 . S
C544 C546 1.363 . S
C544 H560 0.931 . S
C545 C544 1.370 . S
C545 C549 1.408 . S
C546 C544 1.363 . S
C546 C547 1.370 . S
C546 C550 1.524 . S
C547 C539 1.503 . S
C547 C546 1.370 . S
C547 C548 1.403 . S
C548 C547 1.403 . S
C548 C549 1.404 . S
C548 C551 1.539 1_455 S
C549 C545 1.408 . S
C549 C548 1.404 . S
C549 H561 0.930 1_455 S
C550 C546 1.524 . S
C550 H562 0.956 . S
C550 H563 0.961 . S
C550 H564 0.961 . S
C551 C548 1.539 1_655 S
C551 H565 0.958 . S
C551 H566 0.961 . S
C551 H567 0.960 . S
H552 C536 0.931 . S
H553 C541 0.929 . S
H554 C542 0.960 . S
H555 C542 0.962 . S
H556 C542 0.960 . S
H557 C543 0.961 . S
H558 C543 0.961 . S
H559 C543 0.961 . S
H560 C544 0.931 . S
H561 C549 0.930 1_655 S
H562 C550 0.956 . S
H563 C550 0.961 . S
H564 C550 0.961 . S
H565 C551 0.958 . S
H566 C551 0.961 . S
H567 C551 0.960 . S
C568 C569 1.391 . S
C568 C570 1.394 . S
C568 H584 0.931 . S
C569 C568 1.391 . S
C569 C573 1.376 . S
C570 C568 1.394 . S
C570 C571 1.369 . S
C570 C574 1.531 1_554 S
C571 C570 1.369 . S
C571 C572 1.410 . S
C571 C579 1.503 1_554 S
C572 C571 1.410 . S
C572 C573 1.392 . S
C572 C575 1.511 1_565 S
C573 C569 1.376 . S
C573 C572 1.392 . S
C573 H585 0.929 . S
C574 C570 1.531 1_556 S
C574 H586 0.960 . S
C574 H587 0.962 . S
C574 H588 0.960 . S
C575 C572 1.511 1_545 S
C575 H589 0.961 . S
C575 H590 0.961 . S
C575 H591 0.961 . S
C576 C577 1.340 1_565 S
C576 C578 1.363 . S
C576 H592 0.931 . S
C577 C576 1.340 1_545 S
C577 C581 1.437 . S
C578 C576 1.363 . S
C578 C579 1.370 . S
C578 C582 1.518 1_556 S
C579 C571 1.503 1_556 S
C579 C578 1.370 . S
C579 C580 1.403 1_565 S
C580 C579 1.403 1_545 S
C580 C581 1.404 . S
C580 C583 1.539 . S
C581 C577 1.437 . S
C581 C580 1.404 . S
C581 H593 0.930 . S
C582 C578 1.518 1_554 S
C582 H594 0.954 1_554 S
C582 H595 0.974 . S
C582 H596 0.956 1_554 S
C583 C580 1.539 . S
C583 H597 0.958 . S
C583 H598 0.961 . S
C583 H599 0.960 1_556 S
H584 C568 0.931 . S
H585 C573 0.929 . S
H586 C574 0.960 . S
H587 C574 0.962 . S
H588 C574 0.960 . S
H589 C575 0.961 . S
H590 C575 0.961 . S
H591 C575 0.961 . S
H592 C576 0.931 . S
H593 C581 0.930 . S
H594 C582 0.954 1_556 S
H595 C582 0.974 . S
H596 C582 0.956 1_556 S
H597 C583 0.958 . S
H598 C583 0.961 . S
H599 C583 0.960 1_554 S
C600 C601 1.391 . S
C600 C602 1.394 . S
C600 H616 0.931 . S
C601 C600 1.391 . S
C601 C605 1.376 . S
C602 C600 1.394 . S
C602 C603 1.369 . S
C602 C606 1.531 1_554 S
C603 C602 1.369 . S
C603 C604 1.410 . S
C603 C611 1.503 1_554 S
C604 C603 1.410 . S
C604 C605 1.392 . S
C604 C607 1.511 . S
C605 C601 1.376 . S
C605 C604 1.392 . S
C605 H617 0.929 . S
C606 C602 1.531 1_556 S
C606 H618 0.960 . S
C606 H619 0.962 . S
C606 H620 0.960 . S
C607 C604 1.511 . S
C607 H621 0.961 . S
C607 H622 0.961 . S
C607 H623 0.961 . S
C608 C609 1.370 . S
C608 C610 1.363 . S
C608 H624 0.931 . S
C609 C608 1.370 . S
C609 C613 1.408 . S
C610 C608 1.363 . S
C610 C611 1.370 . S
C610 C614 1.524 1_556 S
C611 C603 1.503 1_556 S
C611 C610 1.370 . S
C611 C612 1.403 . S
C612 C611 1.403 . S
C612 C613 1.404 . S
C612 C615 1.539 . S
C613 C609 1.408 . S
C613 C612 1.404 . S
C613 H625 0.930 . S
C614 C610 1.524 1_554 S
C614 H626 0.956 . S
C614 H627 0.961 . S
C614 H628 0.961 . S
C615 C612 1.539 . S
C615 H629 0.958 . S
C615 H630 0.961 . S
C615 H631 0.960 . S
H616 C600 0.931 . S
H617 C605 0.929 . S
H618 C606 0.960 . S
H619 C606 0.962 . S
H620 C606 0.960 . S
H621 C607 0.961 . S
H622 C607 0.961 . S
H623 C607 0.961 . S
H624 C608 0.931 . S
H625 C613 0.930 . S
H626 C614 0.956 . S
H627 C614 0.961 . S
H628 C614 0.961 . S
H629 C615 0.958 . S
H630 C615 0.961 . S
H631 C615 0.960 . S
C632 C633 1.391 . S
C632 C634 1.394 . S
C632 H648 0.931 . S
C633 C632 1.391 . S
C633 C637 1.376 . S
C634 C632 1.394 . S
C634 C635 1.369 . S
C634 C638 1.531 1_554 S
C635 C634 1.369 . S
C635 C636 1.410 . S
C635 C643 1.503 1_554 S
C636 C635 1.410 . S
C636 C637 1.392 . S
C636 C639 1.511 . S
C637 C633 1.376 . S
C637 C636 1.392 . S
C637 H649 0.929 . S
C638 C634 1.531 1_556 S
C638 H650 0.960 . S
C638 H651 0.962 . S
C638 H652 0.960 . S
C639 C636 1.511 . S
C639 H653 0.961 . S
C639 H654 0.961 . S
C639 H655 0.961 . S
C640 C641 1.370 . S
C640 C642 1.363 . S
C640 H656 0.931 . S
C641 C640 1.370 . S
C641 C645 1.408 . S
C642 C640 1.363 . S
C642 C643 1.370 . S
C642 C646 1.524 . S
C643 C635 1.503 1_556 S
C643 C642 1.370 . S
C643 C644 1.403 . S
C644 C643 1.403 . S
C644 C645 1.404 . S
C644 C647 1.539 1_556 S
C645 C641 1.408 . S
C645 C644 1.404 . S
C645 H657 0.930 . S
C646 C642 1.524 . S
C646 H658 0.956 . S
C646 H659 0.961 1_556 S
C646 H660 0.961 . S
C647 C644 1.539 1_554 S
C647 H661 0.958 1_554 S
C647 H662 0.961 . S
C647 H663 0.960 . S
H648 C632 0.931 . S
H649 C637 0.929 . S
H650 C638 0.960 . S
H651 C638 0.962 . S
H652 C638 0.960 . S
H653 C639 0.961 . S
H654 C639 0.961 . S
H655 C639 0.961 . S
H656 C640 0.931 . S
H657 C645 0.930 . S
H658 C646 0.956 . S
H659 C646 0.961 1_554 S
H660 C646 0.961 . S
H661 C647 0.958 1_556 S
H662 C647 0.961 . S
H663 C647 0.960 . S
C664 C665 1.391 1_455 S
C664 C666 1.394 . S
C664 H680 0.931 . S
C665 C664 1.391 1_655 S
C665 C669 1.376 . S
C666 C664 1.394 . S
C666 C667 1.369 1_455 S
C666 C670 1.531 . S
C667 C666 1.369 1_655 S
C667 C668 1.410 . S
C667 C675 1.503 1_554 S
C668 C667 1.410 . S
C668 C669 1.392 . S
C668 C671 1.511 . S
C669 C665 1.376 . S
C669 C668 1.392 . S
C669 H681 0.929 . S
C670 C666 1.531 . S
C670 H682 0.960 . S
C670 H683 0.962 . S
C670 H684 0.960 . S
C671 C668 1.511 . S
C671 H685 0.961 . S
C671 H686 0.961 . S
C671 H687 0.961 . S
C672 C673 1.370 . S
C672 C674 1.363 . S
C672 H688 0.931 . S
C673 C672 1.370 . S
C673 C677 1.408 . S
C674 C672 1.363 . S
C674 C675 1.370 . S
C674 C678 1.524 . S
C675 C667 1.503 1_556 S
C675 C674 1.370 . S
C675 C676 1.403 1_556 S
C676 C675 1.403 1_554 S
C676 C677 1.404 1_554 S
C676 C679 1.539 . S
C677 C673 1.408 . S
C677 C676 1.404 1_556 S
C677 H689 0.926 1_655 S
C678 C674 1.524 . S
C678 H690 0.956 1_655 S
C678 H691 0.961 . S
C678 H692 0.961 . S
C679 C676 1.539 . S
C679 H693 0.958 1_655 S
C679 H694 0.961 . S
C679 H695 0.960 . S
H680 C664 0.931 . S
H681 C669 0.929 . S
H682 C670 0.960 . S
H683 C670 0.962 . S
H684 C670 0.960 . S
H685 C671 0.961 . S
H686 C671 0.961 . S
H687 C671 0.961 . S
H688 C672 0.931 . S
H689 C677 0.926 1_455 S
H690 C678 0.956 1_455 S
H691 C678 0.961 . S
H692 C678 0.961 . S
H693 C679 0.958 1_455 S
H694 C679 0.961 . S
H695 C679 0.960 . S
C696 C697 1.391 . S
C696 C698 1.394 . S
C696 H712 0.924 1_455 S
C697 C696 1.391 . S
C697 C701 1.376 . S
C698 C696 1.394 . S
C698 C699 1.369 . S
C698 C702 1.531 1_455 S
C699 C698 1.369 . S
C699 C700 1.410 . S
C699 C707 1.503 . S
C700 C699 1.410 . S
C700 C701 1.392 . S
C700 C703 1.511 . S
C701 C697 1.376 . S
C701 C700 1.392 . S
C701 H713 0.929 . S
C702 C698 1.531 1_655 S
C702 H714 0.960 . S
C702 H715 0.962 . S
C702 H716 0.960 . S
C703 C700 1.511 . S
C703 H717 0.961 . S
C703 H718 0.961 . S
C703 H719 0.961 . S
C704 C705 1.370 . S
C704 C706 1.363 . S
C704 H720 0.931 . S
C705 C704 1.370 . S
C705 C709 1.408 . S
C706 C704 1.363 . S
C706 C707 1.370 . S
C706 C710 1.524 . S
C707 C699 1.503 . S
C707 C706 1.370 . S
C707 C708 1.403 . S
C708 C707 1.403 . S
C708 C709 1.404 . S
C708 C711 1.539 . S
C709 C705 1.408 . S
C709 C708 1.404 . S
C709 H721 0.930 . S
C710 C706 1.524 . S
C710 H722 0.956 . S
C710 H723 0.961 . S
C710 H724 0.961 . S
C711 C708 1.539 . S
C711 H725 0.958 1_455 S
C711 H726 0.961 . S
C711 H727 0.960 . S
H712 C696 0.924 1_655 S
H713 C701 0.929 . S
H714 C702 0.960 . S
H715 C702 0.962 . S
H716 C702 0.960 . S
H717 C703 0.961 . S
H718 C703 0.961 . S
H719 C703 0.961 . S
H720 C704 0.931 . S
H721 C709 0.930 . S
H722 C710 0.956 . S
H723 C710 0.961 . S
H724 C710 0.961 . S
H725 C711 0.958 1_655 S
H726 C711 0.961 . S
H727 C711 0.960 . S
C728 C729 1.391 . S
C728 C730 1.394 . S
C728 H744 0.931 . S
C729 C728 1.391 . S
C729 C733 1.376 . S
C730 C728 1.394 . S
C730 C731 1.369 . S
C730 C734 1.531 1_545 S
C731 C730 1.369 . S
C731 C732 1.410 . S
C731 C739 1.503 . S
C732 C731 1.410 . S
C732 C733 1.392 . S
C732 C735 1.511 . S
C733 C729 1.376 . S
C733 C732 1.392 . S
C733 H745 0.929 . S
C734 C730 1.531 1_565 S
C734 H746 0.960 . S
C734 H747 0.962 . S
C734 H748 0.960 . S
C735 C732 1.511 . S
C735 H749 0.961 . S
C735 H750 0.961 . S
C735 H751 0.961 . S
C736 C737 1.370 . S
C736 C738 1.363 . S
C736 H752 0.931 . S
C737 C736 1.370 . S
C737 C741 1.408 1_545 S
C738 C736 1.363 . S
C738 C739 1.370 . S
C738 C742 1.524 . S
C739 C731 1.503 . S
C739 C738 1.370 . S
C739 C740 1.403 . S
C740 C739 1.403 . S
C740 C741 1.404 1_545 S
C740 C743 1.539 1_545 S
C741 C737 1.408 1_565 S
C741 C740 1.404 1_565 S
C741 H753 0.930 . S
C742 C738 1.524 . S
C742 H754 0.956 . S
C742 H755 0.961 . S
C742 H756 0.961 . S
C743 C740 1.539 1_565 S
C743 H757 0.958 . S
C743 H758 0.961 . S
C743 H759 0.960 1_565 S
H744 C728 0.931 . S
H745 C733 0.929 . S
H746 C734 0.960 . S
H747 C734 0.962 . S
H748 C734 0.960 . S
H749 C735 0.961 . S
H750 C735 0.961 . S
H751 C735 0.961 . S
H752 C736 0.931 . S
H753 C741 0.930 . S
H754 C742 0.956 . S
H755 C742 0.961 . S
H756 C742 0.961 . S
H757 C743 0.958 . S
H758 C743 0.961 . S
H759 C743 0.960 1_545 S
C760 C761 1.391 . S
C760 C762 1.394 . S
C760 H776 0.931 . S
C761 C760 1.391 . S
C761 C765 1.376 . S
C762 C760 1.394 . S
C762 C763 1.369 . S
C762 C766 1.531 . S
C763 C762 1.369 . S
C763 C764 1.410 . S
C763 C771 1.503 . S
C764 C763 1.410 . S
C764 C765 1.392 . S
C764 C767 1.511 . S
C765 C761 1.376 . S
C765 C764 1.392 . S
C765 H777 0.929 . S
C766 C762 1.531 . S
C766 H778 0.960 . S
C766 H779 0.962 . S
C766 H780 0.960 . S
C767 C764 1.511 . S
C767 H781 0.961 . S
C767 H782 0.961 . S
C767 H783 0.961 . S
C768 C769 1.370 . S
C768 C770 1.363 . S
C768 H784 0.931 . S
C769 C768 1.370 . S
C769 C773 1.408 . S
C770 C768 1.363 . S
C770 C771 1.370 . S
C770 C774 1.524 . S
C771 C763 1.503 . S
C771 C770 1.370 . S
C771 C772 1.403 . S
C772 C771 1.403 . S
C772 C773 1.404 . S
C772 C775 1.539 . S
C773 C769 1.408 . S
C773 C772 1.404 . S
C773 H785 0.930 . S
C774 C770 1.524 . S
C774 H786 0.956 . S
C774 H787 0.961 . S
C774 H788 0.961 . S
C775 C772 1.539 . S
C775 H789 0.958 . S
C775 H790 0.961 . S
C775 H791 0.960 . S
H776 C760 0.931 . S
H777 C765 0.929 . S
H778 C766 0.960 . S
H779 C766 0.962 . S
H780 C766 0.960 . S
H781 C767 0.961 . S
H782 C767 0.961 . S
H783 C767 0.961 . S
H784 C768 0.931 . S
H785 C773 0.930 . S
H786 C774 0.956 . S
H787 C774 0.961 . S
H788 C774 0.961 . S
H789 C775 0.958 . S
H790 C775 0.961 . S
H791 C775 0.960 . S
C792 C793 1.391 . S
C792 C794 1.394 . S
C792 H808 0.931 . S
C793 C792 1.391 . S
C793 C797 1.376 . S
C794 C792 1.394 . S
C794 C795 1.369 . S
C794 C798 1.531 . S
C795 C794 1.369 . S
C795 C796 1.410 . S
C795 C803 1.503 . S
C796 C795 1.410 . S
C796 C797 1.392 . S
C796 C799 1.511 . S
C797 C793 1.376 . S
C797 C796 1.392 . S
C797 H809 0.929 . S
C798 C794 1.531 . S
C798 H810 0.960 . S
C798 H811 0.962 . S
C798 H812 0.960 . S
C799 C796 1.511 . S
C799 H813 0.961 . S
C799 H814 0.961 . S
C799 H815 0.961 . S
C800 C801 1.370 . S
C800 C802 1.363 . S
C800 H816 0.931 . S
C801 C800 1.370 . S
C801 C805 1.408 . S
C802 C800 1.363 . S
C802 C803 1.370 . S
C802 C806 1.524 . S
C803 C795 1.503 . S
C803 C802 1.370 . S
C803 C804 1.403 . S
C804 C803 1.403 . S
C804 C805 1.404 . S
C804 C807 1.539 . S
C805 C801 1.408 . S
C805 C804 1.404 . S
C805 H817 0.930 . S
C806 C802 1.524 . S
C806 H818 0.956 . S
C806 H819 0.961 . S
C806 H820 0.961 . S
C807 C804 1.539 . S
C807 H821 0.958 . S
C807 H822 0.961 . S
C807 H823 0.960 . S
H808 C792 0.931 . S
H809 C797 0.929 . S
H810 C798 0.960 . S
H811 C798 0.962 . S
H812 C798 0.960 . S
H813 C799 0.961 . S
H814 C799 0.961 . S
H815 C799 0.961 . S
H816 C800 0.931 . S
H817 C805 0.930 . S
H818 C806 0.956 . S
H819 C806 0.961 . S
H820 C806 0.961 . S
H821 C807 0.958 . S
H822 C807 0.961 . S
H823 C807 0.960 . S
C824 C825 1.391 . S
C824 C826 1.394 . S
C824 H840 0.931 . S
C825 C824 1.391 . S
C825 C829 1.390 . S
C826 C824 1.394 . S
C826 C827 1.369 . S
C826 C830 1.531 . S
C827 C826 1.369 . S
C827 C828 1.410 1_655 S
C827 C835 1.503 1_655 S
C828 C827 1.410 1_455 S
C828 C829 1.387 1_455 S
C828 C831 1.511 . S
C829 C825 1.390 . S
C829 C828 1.387 1_655 S
C829 H841 0.921 1_655 S
C830 C826 1.531 . S
C830 H842 0.960 . S
C830 H843 0.962 . S
C830 H844 0.960 . S
C831 C828 1.511 . S
C831 H845 0.961 . S
C831 H846 0.961 . S
C831 H847 0.961 . S
C832 C833 1.370 1_655 S
C832 C834 1.363 1_556 S
C832 H848 0.931 . S
C833 C832 1.370 1_455 S
C833 C837 1.408 1_556 S
C834 C832 1.363 1_554 S
C834 C835 1.370 1_655 S
C834 C838 1.524 . S
C835 C827 1.503 1_455 S
C835 C834 1.370 1_455 S
C835 C836 1.403 . S
C836 C835 1.403 . S
C836 C837 1.404 . S
C836 C839 1.539 . S
C837 C833 1.408 1_554 S
C837 C836 1.404 . S
C837 H849 0.930 . S
C838 C834 1.524 . S
C838 H850 0.956 . S
C838 H851 0.960 1_554 S
C838 H852 0.961 1_554 S
C839 C836 1.539 . S
C839 H853 0.958 . S
C839 H854 0.961 . S
C839 H855 0.960 . S
H840 C824 0.931 . S
H841 C829 0.921 1_455 S
H842 C830 0.960 . S
H843 C830 0.962 . S
H844 C830 0.960 . S
H845 C831 0.961 . S
H846 C831 0.961 . S
H847 C831 0.961 . S
H848 C832 0.931 . S
H849 C837 0.930 . S
H850 C838 0.956 . S
H851 C838 0.960 1_556 S
H852 C838 0.961 1_556 S
H853 C839 0.958 . S
H854 C839 0.961 . S
H855 C839 0.960 . S
C856 C857 1.391 . S
C856 C858 1.394 . S
C856 H872 0.931 . S
C857 C856 1.391 . S
C857 C861 1.376 1_565 S
C858 C856 1.394 . S
C858 C859 1.369 . S
C858 C862 1.531 . S
C859 C858 1.369 . S
C859 C860 1.410 1_565 S
C859 C867 1.510 . S
C860 C859 1.410 1_545 S
C860 C861 1.392 . S
C860 C863 1.511 . S
C861 C857 1.376 1_545 S
C861 C860 1.392 . S
C861 H873 0.929 . S
C862 C858 1.531 . S
C862 H874 0.960 . S
C862 H875 0.962 . S
C862 H876 0.960 . S
C863 C860 1.511 . S
C863 H877 0.961 . S
C863 H878 0.961 . S
C863 H879 0.961 . S
C864 C865 1.370 1_556 S
C864 C866 1.373 1_556 S
C864 H880 0.931 . S
C865 C864 1.370 1_554 S
C865 C869 1.408 . S
C866 C864 1.373 1_554 S
C866 C867 1.368 1_545 S
C866 C870 1.517 1_544 S
C867 C859 1.510 . S
C867 C866 1.368 1_565 S
C867 C868 1.398 1_565 S
C868 C867 1.398 1_545 S
C868 C869 1.404 . S
C868 C871 1.539 . S
C869 C865 1.408 . S
C869 C868 1.404 . S
C869 H881 0.930 . S
C870 C866 1.517 1_566 S
C870 H882 0.956 . S
C870 H883 0.961 1_566 S
C870 H884 0.970 . S
C871 C868 1.539 . S
C871 H885 0.958 1_545 S
C871 H886 0.961 . S
C871 H887 0.960 . S
H872 C856 0.931 . S
H873 C861 0.929 . S
H874 C862 0.960 . S
H875 C862 0.962 . S
H876 C862 0.960 . S
H877 C863 0.961 . S
H878 C863 0.961 . S
H879 C863 0.961 . S
H880 C864 0.931 . S
H881 C869 0.930 . S
H882 C870 0.956 . S
H883 C870 0.961 1_544 S
H884 C870 0.970 . S
H885 C871 0.958 1_565 S
H886 C871 0.961 . S
H887 C871 0.960 . S
C888 C889 1.391 . S
C888 C890 1.394 . S
C888 H904 0.931 . S
C889 C888 1.391 . S
C889 C893 1.376 . S
C890 C888 1.394 . S
C890 C891 1.369 . S
C890 C894 1.531 . S
C891 C890 1.369 . S
C891 C892 1.410 . S
C891 C899 1.503 . S
C892 C891 1.410 . S
C892 C893 1.392 . S
C892 C895 1.511 . S
C893 C889 1.376 . S
C893 C892 1.392 . S
C893 H905 0.929 . S
C894 C890 1.531 . S
C894 H906 0.960 . S
C894 H907 0.962 . S
C894 H908 0.960 . S
C895 C892 1.511 . S
C895 H909 0.961 . S
C895 H910 0.961 . S
C895 H911 0.961 . S
C896 C897 1.370 1_556 S
C896 C898 1.363 1_556 S
C896 H912 0.931 . S
C897 C896 1.370 1_554 S
C897 C901 1.408 . S
C898 C896 1.363 1_554 S
C898 C899 1.370 . S
C898 C902 1.524 1_554 S
C899 C891 1.503 . S
C899 C898 1.370 . S
C899 C900 1.403 . S
C900 C899 1.403 . S
C900 C901 1.404 . S
C900 C903 1.539 . S
C901 C897 1.408 . S
C901 C900 1.404 . S
C901 H913 0.930 . S
C902 C898 1.524 1_556 S
C902 H914 0.956 . S
C902 H915 0.961 1_556 S
C902 H916 0.961 . S
C903 C900 1.539 . S
C903 H917 0.958 . S
C903 H918 0.961 . S
C903 H919 0.960 . S
H904 C888 0.931 . S
H905 C893 0.929 . S
H906 C894 0.960 . S
H907 C894 0.962 . S
H908 C894 0.960 . S
H909 C895 0.961 . S
H910 C895 0.961 . S
H911 C895 0.961 . S
H912 C896 0.931 . S
H913 C901 0.930 . S
H914 C902 0.956 . S
H915 C902 0.961 1_554 S
H916 C902 0.961 . S
H917 C903 0.958 . S
H918 C903 0.961 . S
H919 C903 0.960 . S
C920 C921 1.391 . S
C920 C922 1.394 . S
C920 H936 0.931 . S
C921 C920 1.391 . S
C921 C925 1.376 . S
C922 C920 1.394 . S
C922 C923 1.369 . S
C922 C926 1.531 . S
C923 C922 1.369 . S
C923 C924 1.410 . S
C923 C931 1.503 . S
C924 C923 1.410 . S
C924 C925 1.392 . S
C924 C927 1.511 . S
C925 C921 1.376 . S
C925 C924 1.392 . S
C925 H937 0.929 . S
C926 C922 1.531 . S
C926 H938 0.960 . S
C926 H939 0.962 . S
C926 H940 0.960 . S
C927 C924 1.511 . S
C927 H941 0.961 . S
C927 H942 0.961 . S
C927 H943 0.961 . S
C928 C929 1.370 1_554 S
C928 C930 1.363 . S
C928 H944 0.931 . S
C929 C928 1.370 1_556 S
C929 C933 1.408 . S
C930 C928 1.363 . S
C930 C931 1.370 . S
C930 C934 1.524 . S
C931 C923 1.503 . S
C931 C930 1.370 . S
C931 C932 1.403 1_554 S
C932 C931 1.403 1_556 S
C932 C933 1.404 . S
C932 C935 1.539 . S
C933 C929 1.408 . S
C933 C932 1.404 . S
C933 H945 0.930 . S
C934 C930 1.524 . S
C934 H946 0.956 . S
C934 H947 0.961 . S
C934 H948 0.961 . S
C935 C932 1.539 . S
C935 H949 0.958 . S
C935 H950 0.961 . S
C935 H951 0.960 . S
H936 C920 0.931 . S
H937 C925 0.929 . S
H938 C926 0.960 . S
H939 C926 0.962 . S
H940 C926 0.960 . S
H941 C927 0.961 . S
H942 C927 0.961 . S
H943 C927 0.961 . S
H944 C928 0.931 . S
H945 C933 0.930 . S
H946 C934 0.956 . S
H947 C934 0.961 . S
H948 C934 0.961 . S
H949 C935 0.958 . S
H950 C935 0.961 . S
H951 C935 0.960 . S
C952 C953 1.391 . S
C952 C954 1.394 . S
C952 H968 0.931 . S
C953 C952 1.391 . S
C953 C957 1.376 . S
C954 C952 1.394 . S
C954 C955 1.369 . S
C954 C958 1.531 1_455 S
C955 C954 1.369 . S
C955 C956 1.410 . S
C955 C963 1.503 . S
C956 C955 1.410 . S
C956 C957 1.392 . S
C956 C959 1.511 . S
C957 C953 1.376 . S
C957 C956 1.392 . S
C957 H969 0.929 . S
C958 C954 1.531 1_655 S
C958 H970 0.960 . S
C958 H971 0.962 . S
C958 H972 0.960 . S
C959 C956 1.511 . S
C959 H973 0.961 . S
C959 H974 0.961 . S
C959 H975 0.961 . S
C960 C961 1.370 . S
C960 C962 1.363 . S
C960 H976 0.931 . S
C961 C960 1.370 . S
C961 C965 1.408 . S
C962 C960 1.363 . S
C962 C963 1.370 . S
C962 C966 1.524 . S
C963 C955 1.503 . S
C963 C962 1.370 . S
C963 C964 1.403 . S
C964 C963 1.403 . S
C964 C965 1.404 . S
C964 C967 1.539 . S
C965 C961 1.408 . S
C965 C964 1.404 . S
C965 H977 0.930 . S
C966 C962 1.524 . S
C966 H978 0.956 1_455 S
C966 H979 0.961 . S
C966 H980 0.961 . S
C967 C964 1.539 . S
C967 H981 0.958 . S
C967 H982 0.961 . S
C967 H983 0.960 . S
H968 C952 0.931 . S
H969 C957 0.929 . S
H970 C958 0.960 . S
H971 C958 0.962 . S
H972 C958 0.960 . S
H973 C959 0.961 . S
H974 C959 0.961 . S
H975 C959 0.961 . S
H976 C960 0.931 . S
H977 C965 0.930 . S
H978 C966 0.956 1_655 S
H979 C966 0.961 . S
H980 C966 0.961 . S
H981 C967 0.958 . S
H982 C967 0.961 . S
H983 C967 0.960 . S
C984 C985 1.391 . S
C984 C986 1.394 . S
C984 H1000 0.931 . S
C985 C984 1.391 . S
C985 C989 1.376 . S
C986 C984 1.394 . S
C986 C987 1.369 . S
C986 C990 1.531 . S
C987 C986 1.369 . S
C987 C988 1.410 . S
C987 C995 1.503 . S
C988 C987 1.410 . S
C988 C989 1.392 . S
C988 C991 1.511 . S
C989 C985 1.376 . S
C989 C988 1.392 . S
C989 H1001 0.929 . S
C990 C986 1.531 . S
C990 H1002 0.960 . S
C990 H1003 0.962 . S
C990 H1004 0.960 . S
C991 C988 1.511 . S
C991 H1005 0.961 1_546 S
C991 H1006 0.961 . S
C991 H1007 0.961 1_556 S
C992 C993 1.370 . S
C992 C994 1.363 . S
C992 H1008 0.931 1_545 S
C993 C992 1.370 . S
C993 C997 1.408 . S
C994 C992 1.363 . S
C994 C995 1.370 . S
C994 C998 1.524 1_545 S
C995 C987 1.503 . S
C995 C994 1.370 . S
C995 C996 1.403 . S
C996 C995 1.403 . S
C996 C997 1.404 . S
C996 C999 1.539 . S
C997 C993 1.408 . S
C997 C996 1.404 . S
C997 H1009 0.930 . S
C998 C994 1.524 1_565 S
C998 H1010 0.956 1_565 S
C998 H1011 0.961 . S
C998 H1012 0.961 . S
C999 C996 1.539 . S
C999 H1013 0.958 . S
C999 H1014 0.961 . S
C999 H1015 0.960 . S
H1000 C984 0.931 . S
H1001 C989 0.929 . S
H1002 C990 0.960 . S
H1003 C990 0.962 . S
H1004 C990 0.960 . S
H1005 C991 0.961 1_564 S
H1006 C991 0.961 . S
H1007 C991 0.961 1_554 S
H1008 C992 0.931 1_565 S
H1009 C997 0.930 . S
H1010 C998 0.956 1_545 S
H1011 C998 0.961 . S
H1012 C998 0.961 . S
H1013 C999 0.958 . S
H1014 C999 0.961 . S
H1015 C999 0.960 . S
C1016 C1017 1.391 . S
C1016 C1018 1.394 . S
C1016 H1032 0.931 . S
C1017 C1016 1.391 . S
C1017 C1021 1.376 . S
C1018 C1016 1.394 . S
C1018 C1019 1.369 . S
C1018 C1022 1.531 . S
C1019 C1018 1.369 . S
C1019 C1020 1.410 . S
C1019 C1027 1.503 . S
C1020 C1019 1.410 . S
C1020 C1021 1.392 . S
C1020 C1023 1.511 . S
C1021 C1017 1.376 . S
C1021 C1020 1.392 . S
C1021 H1033 0.929 . S
C1022 C1018 1.531 . S
C1022 H1034 0.960 . S
C1022 H1035 0.962 . S
C1022 H1036 0.960 . S
C1023 C1020 1.511 . S
C1023 H1037 0.961 1_556 S
C1023 H1038 0.961 . S
C1023 H1039 0.961 . S
C1024 C1025 1.370 . S
C1024 C1026 1.363 . S
C1024 H1040 0.931 . S
C1025 C1024 1.370 . S
C1025 C1029 1.408 . S
C1026 C1024 1.363 . S
C1026 C1027 1.370 . S
C1026 C1030 1.524 . S
C1027 C1019 1.503 . S
C1027 C1026 1.370 . S
C1027 C1028 1.403 . S
C1028 C1027 1.403 . S
C1028 C1029 1.404 . S
C1028 C1031 1.539 . S
C1029 C1025 1.408 . S
C1029 C1028 1.404 . S
C1029 H1041 0.930 . S
C1030 C1026 1.524 . S
C1030 H1042 0.956 . S
C1030 H1043 0.961 . S
C1030 H1044 0.961 . S
C1031 C1028 1.539 . S
C1031 H1045 0.958 . S
C1031 H1046 0.961 . S
C1031 H1047 0.960 . S
H1032 C1016 0.931 . S
H1033 C1021 0.929 . S
H1034 C1022 0.960 . S
H1035 C1022 0.962 . S
H1036 C1022 0.960 . S
H1037 C1023 0.961 1_554 S
H1038 C1023 0.961 . S
H1039 C1023 0.961 . S
H1040 C1024 0.931 . S
H1041 C1029 0.930 . S
H1042 C1030 0.956 . S
H1043 C1030 0.961 . S
H1044 C1030 0.961 . S
H1045 C1031 0.958 . S
H1046 C1031 0.961 . S
H1047 C1031 0.960 . S
C1048 C1049 1.391 . S
C1048 C1050 1.394 . S
C1048 H1064 0.931 1_556 S
C1049 C1048 1.391 . S
C1049 C1053 1.376 . S
C1050 C1048 1.394 . S
C1050 C1051 1.369 . S
C1050 C1054 1.531 . S
C1051 C1050 1.369 . S
C1051 C1052 1.410 . S
C1051 C1059 1.503 . S
C1052 C1051 1.410 . S
C1052 C1053 1.392 . S
C1052 C1055 1.511 . S
C1053 C1049 1.376 . S
C1053 C1052 1.392 . S
C1053 H1065 0.929 . S
C1054 C1050 1.531 . S
C1054 H1066 0.960 . S
C1054 H1067 0.962 1_556 S
C1054 H1068 0.960 1_556 S
C1055 C1052 1.511 . S
C1055 H1069 0.961 . S
C1055 H1070 0.961 . S
C1055 H1071 0.961 . S
C1056 C1057 1.370 . S
C1056 C1058 1.363 . S
C1056 H1072 0.931 . S
C1057 C1056 1.370 . S
C1057 C1061 1.408 . S
C1058 C1056 1.363 . S
C1058 C1059 1.370 . S
C1058 C1062 1.524 . S
C1059 C1051 1.503 . S
C1059 C1058 1.370 . S
C1059 C1060 1.403 . S
C1060 C1059 1.403 . S
C1060 C1061 1.404 . S
C1060 C1063 1.539 . S
C1061 C1057 1.408 . S
C1061 C1060 1.404 . S
C1061 H1073 0.930 . S
C1062 C1058 1.524 . S
C1062 H1074 0.956 . S
C1062 H1075 0.961 . S
C1062 H1076 0.961 . S
C1063 C1060 1.539 . S
C1063 H1077 0.958 . S
C1063 H1078 0.961 . S
C1063 H1079 0.960 . S
H1064 C1048 0.931 1_554 S
H1065 C1053 0.929 . S
H1066 C1054 0.960 . S
H1067 C1054 0.962 1_554 S
H1068 C1054 0.960 1_554 S
H1069 C1055 0.961 . S
H1070 C1055 0.961 . S
H1071 C1055 0.961 . S
H1072 C1056 0.931 . S
H1073 C1061 0.930 . S
H1074 C1062 0.956 . S
H1075 C1062 0.961 . S
H1076 C1062 0.961 . S
H1077 C1063 0.958 . S
H1078 C1063 0.961 . S
H1079 C1063 0.960 . S
C1080 C1081 1.391 1_455 S
C1080 C1082 1.394 . S
C1080 H1096 0.931 . S
C1081 C1080 1.391 1_655 S
C1081 C1085 1.376 . S
C1082 C1080 1.394 . S
C1082 C1083 1.369 1_455 S
C1082 C1086 1.531 . S
C1083 C1082 1.369 1_655 S
C1083 C1084 1.410 . S
C1083 C1091 1.503 . S
C1084 C1083 1.410 . S
C1084 C1085 1.392 . S
C1084 C1087 1.511 . S
C1085 C1081 1.376 . S
C1085 C1084 1.392 . S
C1085 H1097 0.929 . S
C1086 C1082 1.531 . S
C1086 H1098 0.960 . S
C1086 H1099 0.962 . S
C1086 H1100 0.960 . S
C1087 C1084 1.511 . S
C1087 H1101 0.961 . S
C1087 H1102 0.961 . S
C1087 H1103 0.961 . S
C1088 C1089 1.370 . S
C1088 C1090 1.363 . S
C1088 H1104 0.931 . S
C1089 C1088 1.370 . S
C1089 C1093 1.408 1_655 S
C1090 C1088 1.363 . S
C1090 C1091 1.370 . S
C1090 C1094 1.524 . S
C1091 C1083 1.503 . S
C1091 C1090 1.370 . S
C1091 C1092 1.404 . S
C1092 C1091 1.404 . S
C1092 C1093 1.404 1_655 S
C1092 C1095 1.539 1_655 S
C1093 C1089 1.408 1_455 S
C1093 C1092 1.404 1_455 S
C1093 H1105 0.930 . S
C1094 C1090 1.524 . S
C1094 H1106 0.956 . S
C1094 H1107 0.961 . S
C1094 H1108 0.961 . S
C1095 C1092 1.539 1_455 S
C1095 H1109 0.958 . S
C1095 H1110 0.961 . S
C1095 H1111 0.960 1_455 S
H1096 C1080 0.931 . S
H1097 C1085 0.929 . S
H1098 C1086 0.960 . S
H1099 C1086 0.962 . S
H1100 C1086 0.960 . S
H1101 C1087 0.961 . S
H1102 C1087 0.961 . S
H1103 C1087 0.961 . S
H1104 C1088 0.931 . S
H1105 C1093 0.930 . S
H1106 C1094 0.956 . S
H1107 C1094 0.961 . S
H1108 C1094 0.961 . S
H1109 C1095 0.958 . S
H1110 C1095 0.961 . S
H1111 C1095 0.960 1_655 S
C1112 C1113 1.391 . S
C1112 C1114 1.394 . S
C1112 H1128 0.931 . S
C1113 C1112 1.391 . S
C1113 C1117 1.376 . S
C1114 C1112 1.394 . S
C1114 C1115 1.369 . S
C1114 C1118 1.531 . S
C1115 C1114 1.369 . S
C1115 C1116 1.410 . S
C1115 C1123 1.503 . S
C1116 C1115 1.410 . S
C1116 C1117 1.392 . S
C1116 C1119 1.511 1_565 S
C1117 C1113 1.376 . S
C1117 C1116 1.392 . S
C1117 H1129 0.929 1_565 S
C1118 C1114 1.531 . S
C1118 H1130 0.960 . S
C1118 H1131 0.962 . S
C1118 H1132 0.960 . S
C1119 C1116 1.511 1_545 S
C1119 H1133 0.961 . S
C1119 H1134 0.961 . S
C1119 H1135 0.961 1_545 S
C1120 C1121 1.370 1_545 S
C1120 C1122 1.363 . S
C1120 H1136 0.931 . S
C1121 C1120 1.370 1_565 S
C1121 C1125 1.408 . S
C1122 C1120 1.363 . S
C1122 C1123 1.370 1_545 S
C1122 C1126 1.524 . S
C1123 C1115 1.503 . S
C1123 C1122 1.370 1_565 S
C1123 C1124 1.403 . S
C1124 C1123 1.403 . S
C1124 C1125 1.404 . S
C1124 C1127 1.539 . S
C1125 C1121 1.408 . S
C1125 C1124 1.404 . S
C1125 H1137 0.930 . S
C1126 C1122 1.524 . S
C1126 H1138 0.956 . S
C1126 H1139 0.961 . S
C1126 H1140 0.961 . S
C1127 C1124 1.539 . S
C1127 H1141 0.958 . S
C1127 H1142 0.961 . S
C1127 H1143 0.960 . S
H1128 C1112 0.931 . S
H1129 C1117 0.929 1_545 S
H1130 C1118 0.960 . S
H1131 C1118 0.962 . S
H1132 C1118 0.960 . S
H1133 C1119 0.961 . S
H1134 C1119 0.961 . S
H1135 C1119 0.961 1_565 S
H1136 C1120 0.931 . S
H1137 C1125 0.930 . S
H1138 C1126 0.956 . S
H1139 C1126 0.961 . S
H1140 C1126 0.961 . S
H1141 C1127 0.958 . S
H1142 C1127 0.961 . S
H1143 C1127 0.960 . S
C1144 C1145 1.391 . S
C1144 C1146 1.394 . S
C1144 H1160 0.931 . S
C1145 C1144 1.391 . S
C1145 C1149 1.376 . S
C1146 C1144 1.394 . S
C1146 C1147 1.369 . S
C1146 C1150 1.531 . S
C1147 C1146 1.369 . S
C1147 C1148 1.410 . S
C1147 C1155 1.503 . S
C1148 C1147 1.410 . S
C1148 C1149 1.392 . S
C1148 C1151 1.511 . S
C1149 C1145 1.376 . S
C1149 C1148 1.392 . S
C1149 H1161 0.929 . S
C1150 C1146 1.531 . S
C1150 H1162 0.960 . S
C1150 H1163 0.962 . S
C1150 H1164 0.960 . S
C1151 C1148 1.511 . S
C1151 H1165 0.961 . S
C1151 H1166 0.961 . S
C1151 H1167 0.961 . S
C1152 C1153 1.370 . S
C1152 C1154 1.363 . S
C1152 H1168 0.931 . S
C1153 C1152 1.370 . S
C1153 C1157 1.408 . S
C1154 C1152 1.363 . S
C1154 C1155 1.370 . S
C1154 C1158 1.524 . S
C1155 C1147 1.503 . S
C1155 C1154 1.370 . S
C1155 C1156 1.403 . S
C1156 C1155 1.403 . S
C1156 C1157 1.404 . S
C1156 C1159 1.539 . S
C1157 C1153 1.408 . S
C1157 C1156 1.404 . S
C1157 H1169 0.930 . S
C1158 C1154 1.524 . S
C1158 H1170 0.956 . S
C1158 H1171 0.961 . S
C1158 H1172 0.961 . S
C1159 C1156 1.539 . S
C1159 H1173 0.958 . S
C1159 H1174 0.961 . S
C1159 H1175 0.960 . S
H1160 C1144 0.931 . S
H1161 C1149 0.929 . S
H1162 C1150 0.960 . S
H1163 C1150 0.962 . S
H1164 C1150 0.960 . S
H1165 C1151 0.961 . S
H1166 C1151 0.961 . S
H1167 C1151 0.961 . S
H1168 C1152 0.931 . S
H1169 C1157 0.930 . S
H1170 C1158 0.956 . S
H1171 C1158 0.961 . S
H1172 C1158 0.961 . S
H1173 C1159 0.958 . S
H1174 C1159 0.961 . S
H1175 C1159 0.960 . S
C1176 C1177 1.391 . S
C1176 C1178 1.394 . S
C1176 H1192 0.931 . S
C1177 C1176 1.391 . S
C1177 C1181 1.376 . S
C1178 C1176 1.394 . S
C1178 C1179 1.369 . S
C1178 C1182 1.531 . S
C1179 C1178 1.369 . S
C1179 C1180 1.410 . S
C1179 C1187 1.503 . S
C1180 C1179 1.410 . S
C1180 C1181 1.392 . S
C1180 C1183 1.511 . S
C1181 C1177 1.376 . S
C1181 C1180 1.392 . S
C1181 H1193 0.929 . S
C1182 C1178 1.531 . S
C1182 H1194 0.960 . S
C1182 H1195 0.962 . S
C1182 H1196 0.960 . S
C1183 C1180 1.511 . S
C1183 H1197 0.961 . S
C1183 H1198 0.961 . S
C1183 H1199 0.961 . S
C1184 C1185 1.370 . S
C1184 C1186 1.363 . S
C1184 H1200 0.931 . S
C1185 C1184 1.370 . S
C1185 C1189 1.408 . S
C1186 C1184 1.363 . S
C1186 C1187 1.370 . S
C1186 C1190 1.524 . S
C1187 C1179 1.503 . S
C1187 C1186 1.370 . S
C1187 C1188 1.403 . S
C1188 C1187 1.403 . S
C1188 C1189 1.404 . S
C1188 C1191 1.539 . S
C1189 C1185 1.408 . S
C1189 C1188 1.404 . S
C1189 H1201 0.930 . S
C1190 C1186 1.524 . S
C1190 H1202 0.956 . S
C1190 H1203 0.961 . S
C1190 H1204 0.961 . S
C1191 C1188 1.539 . S
C1191 H1205 0.958 . S
C1191 H1206 0.961 . S
C1191 H1207 0.960 . S
H1192 C1176 0.931 . S
H1193 C1181 0.929 . S
H1194 C1182 0.960 . S
H1195 C1182 0.962 . S
H1196 C1182 0.960 . S
H1197 C1183 0.961 . S
H1198 C1183 0.961 . S
H1199 C1183 0.961 . S
H1200 C1184 0.931 . S
H1201 C1189 0.930 . S
H1202 C1190 0.956 . S
H1203 C1190 0.961 . S
H1204 C1190 0.961 . S
H1205 C1191 0.958 . S
H1206 C1191 0.961 . S
H1207 C1191 0.960 . S
C441 C82 1.749 . S
C449 C172 2.003 . S
C481 C255 2.019 . S
C473 C95 1.802 . S
C513 C340 2.005 . S
C505 C56 1.720 . S
C545 C424 1.981 . S
C537 C69 1.778 . S
C577 C160 2.009 . S
C569 C30 1.690 . S
C601 C43 1.679 . S
C609 C243 2.026 . S
C633 C4 1.695 . S
C641 C328 1.992 . S
C665 C17 1.744 . S
C673 C412 1.985 1_655 S
C705 C162 0.638 1_455 S
C697 C74 0.542 . S
C737 C258 0.570 . S
C729 C87 0.506 . S
C769 C330 0.601 . S
C761 C100 0.647 . S
C793 C61 0.635 . S
C801 C414 0.623 . S
C825 C22 0.535 . S
C833 C174 0.601 . S
C865 C246 0.568 . S
C857 C35 0.516 . S
C897 C342 0.626 1_554 S
C889 C48 0.545 . S
C921 C9 0.629 . S
C929 C426 0.595 . S
C953 C73 1.949 . S
C961 C159 2.099 . S
C985 C86 1.894 . S
C993 C244 2.113 . S
C1025 C327 2.121 . S
C1017 C99 1.950 . S
C1057 C411 2.126 . S
C1049 C60 1.941 . S
C1081 C21 1.877 . S
C1089 C171 2.108 . S
C1121 C256 2.116 1_565 S
C1113 C34 1.936 . S
C1153 C339 2.123 . S
C1145 C47 1.915 . S
C1177 C8 1.969 . S
C1185 C423 2.123 . S
