# Generated by pormake.
# Topology pto, (3,4)-cn, num edge types: 1
# Building blocks:
#     Node 0, Type 0, BuildingBlock: OLANEW_clean_sbu_2, # of connection points: 3
#     Node 1, Type 0, BuildingBlock: OLANEW_clean_sbu_2, # of connection points: 3
#     Node 2, Type 0, BuildingBlock: OLANEW_clean_sbu_2, # of connection points: 3
#     Node 3, Type 0, BuildingBlock: OLANEW_clean_sbu_2, # of connection points: 3
#     Node 4, Type 0, BuildingBlock: OLANEW_clean_sbu_2, # of connection points: 3
#     Node 5, Type 0, BuildingBlock: OLANEW_clean_sbu_2, # of connection points: 3
#     Node 6, Type 0, BuildingBlock: OLANEW_clean_sbu_2, # of connection points: 3
#     Node 7, Type 0, BuildingBlock: OLANEW_clean_sbu_2, # of connection points: 3
#     Node 8, Type 1, BuildingBlock: NAWXER_clean_linker_0, # of connection points: 4
#     Node 9, Type 1, BuildingBlock: NAWXER_clean_linker_0, # of connection points: 4
#     Node 10, Type 1, BuildingBlock: NAWXER_clean_linker_0, # of connection points: 4
#     Node 11, Type 1, BuildingBlock: NAWXER_clean_linker_0, # of connection points: 4
#     Node 12, Type 1, BuildingBlock: NAWXER_clean_linker_0, # of connection points: 4
#     Node 13, Type 1, BuildingBlock: NAWXER_clean_linker_0, # of connection points: 4
#     Edge 14, Type (0, 1), BuildingBlock: CIFDUS_clean_linker_0, # of connection points: 2
#     Edge 15, Type (0, 1), BuildingBlock: CIFDUS_clean_linker_0, # of connection points: 2
#     Edge 16, Type (0, 1), BuildingBlock: CIFDUS_clean_linker_0, # of connection points: 2
#     Edge 17, Type (0, 1), BuildingBlock: CIFDUS_clean_linker_0, # of connection points: 2
#     Edge 18, Type (0, 1), BuildingBlock: CIFDUS_clean_linker_0, # of connection points: 2
#     Edge 19, Type (0, 1), BuildingBlock: CIFDUS_clean_linker_0, # of connection points: 2
#     Edge 20, Type (0, 1), BuildingBlock: CIFDUS_clean_linker_0, # of connection points: 2
#     Edge 21, Type (0, 1), BuildingBlock: CIFDUS_clean_linker_0, # of connection points: 2
#     Edge 22, Type (0, 1), BuildingBlock: CIFDUS_clean_linker_0, # of connection points: 2
#     Edge 23, Type (0, 1), BuildingBlock: CIFDUS_clean_linker_0, # of connection points: 2
#     Edge 24, Type (0, 1), BuildingBlock: CIFDUS_clean_linker_0, # of connection points: 2
#     Edge 25, Type (0, 1), BuildingBlock: CIFDUS_clean_linker_0, # of connection points: 2
#     Edge 26, Type (0, 1), BuildingBlock: CIFDUS_clean_linker_0, # of connection points: 2
#     Edge 27, Type (0, 1), BuildingBlock: CIFDUS_clean_linker_0, # of connection points: 2
#     Edge 28, Type (0, 1), BuildingBlock: CIFDUS_clean_linker_0, # of connection points: 2
#     Edge 29, Type (0, 1), BuildingBlock: CIFDUS_clean_linker_0, # of connection points: 2
#     Edge 30, Type (0, 1), BuildingBlock: CIFDUS_clean_linker_0, # of connection points: 2
#     Edge 31, Type (0, 1), BuildingBlock: CIFDUS_clean_linker_0, # of connection points: 2
#     Edge 32, Type (0, 1), BuildingBlock: CIFDUS_clean_linker_0, # of connection points: 2
#     Edge 33, Type (0, 1), BuildingBlock: CIFDUS_clean_linker_0, # of connection points: 2
#     Edge 34, Type (0, 1), BuildingBlock: CIFDUS_clean_linker_0, # of connection points: 2
#     Edge 35, Type (0, 1), BuildingBlock: CIFDUS_clean_linker_0, # of connection points: 2
#     Edge 36, Type (0, 1), BuildingBlock: CIFDUS_clean_linker_0, # of connection points: 2
#     Edge 37, Type (0, 1), BuildingBlock: CIFDUS_clean_linker_0, # of connection points: 2
# Relax obj value: 0.009
# Max RMSD: 0.124
# Mean RMSD: 0.053
data_MOF--net-pto--node1-OLANEW_clean_sbu_2--node2-NAWXER_clean_linker_0--edge1-CIFDUS_clean_linker_0
_symmetry_space_group_name_H-M    P1
_symmetry_Int_Tables_number       1
_symmetry_cell_setting            triclinic
loop_
_symmetry_equiv_pos_as_xyz
'x, y, z'
_cell_length_a     37.916882
_cell_length_b     54.401597
_cell_length_c     45.909705
_cell_angle_alpha  92.687015
_cell_angle_beta   89.721442
_cell_angle_gamma 105.63504
loop_
_atom_site_label
_atom_site_type_symbol
_atom_site_fract_x
_atom_site_fract_y
_atom_site_fract_z
_atom_type_partial_charge
O0 O 0.40853 0.35835 0.30827 0.0
Cd1 Cd 0.39458 0.35877 0.36019 0.0
O2 O 0.37112 0.38213 0.30224 0.0
Cd3 Cd 0.33874 0.4022 0.27802 0.0
O4 O 0.29906 0.42251 0.26554 0.0
C5 C 0.26513 0.41217 0.26922 0.0
O6 O 0.25492 0.38919 0.27948 0.0
C7 C 0.39336 0.37043 0.29147 0.0
C8 C 0.39419 0.31282 0.38473 0.0
O9 O 0.36512 0.31613 0.37331 0.0
O10 O 0.42351 0.33127 0.38445 0.0
O11 O 0.30841 0.84762 0.77394 0.0
Cd12 Cd 0.27502 0.84072 0.72752 0.0
O13 O 0.35427 0.8352 0.75441 0.0
Cd14 Cd 0.32293 0.81973 0.71485 0.0
O15 O 0.27741 0.79086 0.69413 0.0
C16 C 0.25356 0.77921 0.71188 0.0
O17 O 0.25799 0.78588 0.73979 0.0
C18 C 0.34025 0.84433 0.77621 0.0
C19 C 0.29424 0.88406 0.69464 0.0
O20 O 0.26466 0.87885 0.7095 0.0
O21 O 0.31469 0.8688 0.69526 0.0
O22 O 0.80345 0.79678 0.32145 0.0
Cd23 Cd 0.78343 0.76232 0.28373 0.0
O24 O 0.75342 0.78219 0.34687 0.0
Cd25 Cd 0.72645 0.75701 0.31053 0.0
O26 O 0.70247 0.75832 0.26766 0.0
C27 C 0.71229 0.78024 0.25696 0.0
O28 O 0.73567 0.79881 0.27178 0.0
C29 C 0.78469 0.79804 0.34429 0.0
C30 C 0.81957 0.72389 0.28446 0.0
O31 O 0.82854 0.74168 0.26631 0.0
O32 O 0.79396 0.72446 0.30259 0.0
O33 O 0.75731 0.29642 0.67196 0.0
Cd34 Cd 0.71142 0.25785 0.68562 0.0
O35 O 0.78158 0.30139 0.71598 0.0
Cd36 Cd 0.7388 0.27222 0.73613 0.0
O37 O 0.70245 0.26841 0.77354 0.0
C38 C 0.67531 0.27788 0.77254 0.0
O39 O 0.66824 0.28733 0.7481 0.0
C40 C 0.78195 0.30853 0.68998 0.0
C41 C 0.72169 0.21439 0.65614 0.0
O42 O 0.69943 0.22612 0.64633 0.0
O43 O 0.73902 0.2232 0.67993 0.0
O44 O 0.70868 0.75106 0.60738 0.0
Cd45 Cd 0.69506 0.70501 0.61242 0.0
O46 O 0.71258 0.75705 0.65491 0.0
Cd47 Cd 0.71586 0.77889 0.69655 0.0
O48 O 0.70582 0.78999 0.74159 0.0
C49 C 0.67518 0.79426 0.7476 0.0
O50 O 0.6515 0.79288 0.72637 0.0
C51 C 0.71402 0.76621 0.62982 0.0
C52 C 0.75766 0.68783 0.61735 0.0
O53 O 0.74342 0.68893 0.59234 0.0
O54 O 0.7425 0.69514 0.63995 0.0
O55 O 0.87624 0.27666 0.30243 0.0
Cd56 Cd 0.86253 0.23013 0.29484 0.0
O57 O 0.82001 0.27456 0.28936 0.0
Cd58 Cd 0.77634 0.28961 0.27291 0.0
O59 O 0.73425 0.30113 0.24901 0.0
C60 C 0.74107 0.30708 0.22275 0.0
O61 O 0.77293 0.30649 0.21179 0.0
C62 C 0.85206 0.28797 0.29646 0.0
C63 C 0.84611 0.19977 0.34301 0.0
O64 O 0.87937 0.20923 0.3353 0.0
O65 O 0.82077 0.20555 0.32866 0.0
O66 O 0.24914 0.34656 0.78897 0.0
Cd67 Cd 0.20806 0.33416 0.74676 0.0
O68 O 0.29942 0.35216 0.76314 0.0
Cd69 Cd 0.27102 0.33716 0.72227 0.0
O70 O 0.26706 0.30781 0.6875 0.0
C71 C 0.29648 0.30118 0.68366 0.0
O72 O 0.32542 0.31299 0.69947 0.0
C73 C 0.2839 0.35286 0.78765 0.0
C74 C 0.18053 0.37398 0.72984 0.0
O75 O 0.16653 0.36022 0.75107 0.0
O76 O 0.20773 0.36899 0.71647 0.0
O77 O 0.44222 0.83819 0.32007 0.0
Cd78 Cd 0.41709 0.83416 0.36927 0.0
O79 O 0.38633 0.82142 0.30409 0.0
Cd80 Cd 0.34231 0.80241 0.27352 0.0
O81 O 0.29144 0.77516 0.25854 0.0
C82 C 0.26893 0.76584 0.27835 0.0
O83 O 0.27725 0.77365 0.3056 0.0
C84 C 0.42024 0.83018 0.29875 0.0
C85 C 0.3989 0.87774 0.39122 0.0
O86 O 0.43085 0.87471 0.39537 0.0
O87 O 0.37562 0.86022 0.37637 0.0
C88 C 0.95776 0.44483 0.24223 0.0
C89 C 0.93761 0.43576 0.26715 0.0
C90 C 0.97202 0.47101 0.23897 0.0
C91 C 0.96669 0.48866 0.26069 0.0
C92 C 0.93006 0.45352 0.28785 0.0
C93 C 0.94445 0.47981 0.28459 0.0
C94 C 0.98729 0.5159 0.2599 0.0
C95 C 0.06989 0.47237 0.28042 0.0
C96 C 0.09686 0.47384 0.2589 0.0
C97 C 0.04628 0.48815 0.27998 0.0
C98 C 0.04893 0.5055 0.25785 0.0
C99 C 0.09915 0.4911 0.23665 0.0
C100 C 0.07559 0.50687 0.23626 0.0
C101 C 0.02586 0.52353 0.25805 0.0
C102 C 0.06483 0.63598 0.28578 0.0
C103 C 0.09661 0.64325 0.26874 0.0
C104 C 0.04077 0.61155 0.28198 0.0
C105 C 0.04754 0.59406 0.26062 0.0
C106 C 0.1029 0.62581 0.24706 0.0
C107 C 0.07867 0.60152 0.24309 0.0
C108 C 0.02496 0.56715 0.2585 0.0
C109 C 0.95302 0.61608 0.23754 0.0
C110 C 0.92324 0.61481 0.25639 0.0
C111 C 0.97256 0.59771 0.23776 0.0
C112 C 0.96378 0.57808 0.25755 0.0
C113 C 0.91328 0.5943 0.27512 0.0
C114 C 0.93336 0.57616 0.2757 0.0
C115 C 0.98617 0.55959 0.25925 0.0
H116 H 0.96333 0.43164 0.22556 0.0
H117 H 0.98853 0.47746 0.22006 0.0
H118 H 0.91464 0.44712 0.30727 0.0
H119 H 0.93993 0.49314 0.30154 0.0
H120 H 0.06779 0.45962 0.29816 0.0
H121 H 0.02659 0.48723 0.29734 0.0
H122 H 0.11927 0.49249 0.21955 0.0
H123 H 0.07822 0.52023 0.21908 0.0
H124 H 0.05894 0.64898 0.30251 0.0
H125 H 0.01755 0.60611 0.29639 0.0
H126 H 0.12738 0.63047 0.23391 0.0
H127 H 0.08478 0.58827 0.22674 0.0
H128 H 0.9619 0.63157 0.22293 0.0
H129 H 0.99497 0.59914 0.22266 0.0
H130 H 0.88996 0.5922 0.28941 0.0
H131 H 0.92554 0.56091 0.29077 0.0
N132 N 0.96878 0.53419 0.2604 0.0
N133 N 0.04308 0.54878 0.2575 0.0
C134 C 0.94313 0.45437 0.65959 0.0
C135 C 0.91464 0.44849 0.6799 0.0
C136 C 0.96342 0.47975 0.65671 0.0
C137 C 0.95514 0.49949 0.67393 0.0
C138 C 0.90564 0.46835 0.6963 0.0
C139 C 0.92547 0.49366 0.6931 0.0
C140 C 0.97801 0.52614 0.67323 0.0
C141 C 0.04228 0.48114 0.71785 0.0
C142 C 0.07592 0.48083 0.705 0.0
C143 C 0.02327 0.49828 0.70931 0.0
C144 C 0.03654 0.5149 0.68684 0.0
C145 C 0.08984 0.49812 0.68313 0.0
C146 C 0.07033 0.51498 0.67418 0.0
C147 C 0.0163 0.53319 0.67789 0.0
C148 C 0.05396 0.64588 0.70123 0.0
C149 C 0.08839 0.65298 0.68775 0.0
C150 C 0.03038 0.62151 0.69588 0.0
C151 C 0.04032 0.60388 0.67638 0.0
C152 C 0.09798 0.63546 0.66783 0.0
C153 C 0.07423 0.61115 0.66231 0.0
C154 C 0.01779 0.57703 0.67326 0.0
C155 C 0.94297 0.62355 0.64272 0.0
C156 C 0.91212 0.62142 0.66058 0.0
C157 C 0.96549 0.60718 0.64574 0.0
C158 C 0.95733 0.5884 0.66658 0.0
C159 C 0.90428 0.60268 0.68146 0.0
C160 C 0.9265 0.58626 0.68428 0.0
C161 C 0.97932 0.56994 0.66945 0.0
H162 H 0.95043 0.4393 0.64671 0.0
H163 H 0.98597 0.48393 0.64152 0.0
H164 H 0.88351 0.46422 0.71188 0.0
H165 H 0.91855 0.50862 0.70646 0.0
H166 H 0.03031 0.46803 0.73449 0.0
H167 H 0.99818 0.49857 0.72051 0.0
H168 H 0.11601 0.49888 0.67315 0.0
H169 H 0.08159 0.52805 0.65729 0.0
H170 H 0.04556 0.65895 0.71652 0.0
H171 H 0.00503 0.6162 0.70789 0.0
H172 H 0.1245 0.64009 0.65743 0.0
H173 H 0.08277 0.59774 0.64756 0.0
H174 H 0.94963 0.63783 0.62644 0.0
H175 H 0.98882 0.6089 0.63153 0.0
H176 H 0.88038 0.60027 0.69519 0.0
H177 H 0.91955 0.57179 0.70036 0.0
N178 N 0.96103 0.54477 0.66957 0.0
N179 N 0.03475 0.55833 0.67729 0.0
C180 C 0.325 0.16852 0.47591 0.0
C181 C 0.35576 0.17819 0.45851 0.0
C182 C 0.32317 0.14772 0.49303 0.0
C183 C 0.35222 0.13627 0.49336 0.0
C184 C 0.38444 0.16629 0.45827 0.0
C185 C 0.38254 0.14537 0.4754 0.0
C186 C 0.35062 0.11468 0.51219 0.0
C187 C 0.36507 0.18384 0.57206 0.0
C188 C 0.33508 0.18371 0.59021 0.0
C189 C 0.36699 0.16168 0.5563 0.0
C190 C 0.33876 0.13899 0.55811 0.0
C191 C 0.30692 0.16094 0.59213 0.0
C192 C 0.3089 0.13873 0.57636 0.0
C193 C 0.34116 0.11532 0.54193 0.0
C194 C 0.3481 0.01145 0.58053 0.0
C195 C 0.31634 0.00581 0.5978 0.0
C196 C 0.35677 0.03305 0.56374 0.0
C197 C 0.3331 0.04894 0.56285 0.0
C198 C 0.29389 0.02264 0.59804 0.0
C199 C 0.30205 0.04378 0.58066 0.0
C200 C 0.34056 0.07149 0.54446 0.0
C201 C 0.34116 0.00371 0.4842 0.0
C202 C 0.37578 0.00597 0.47168 0.0
C203 C 0.33284 0.02498 0.49784 0.0
C204 C 0.35916 0.04877 0.49947 0.0
C205 C 0.40146 0.03008 0.4724 0.0
C206 C 0.39315 0.05127 0.48604 0.0
C207 C 0.35188 0.07127 0.51501 0.0
H208 H 0.30258 0.17736 0.47675 0.0
H209 H 0.29908 0.14064 0.50617 0.0
H210 H 0.40827 0.1731 0.44478 0.0
H211 H 0.40504 0.1366 0.47507 0.0
H212 H 0.38711 0.2011 0.57003 0.0
H213 H 0.3908 0.16222 0.54295 0.0
H214 H 0.28375 0.16015 0.60628 0.0
H215 H 0.28703 0.12135 0.57833 0.0
H216 H 0.36613 0.99904 0.57957 0.0
H217 H 0.38188 0.03716 0.55137 0.0
H218 H 0.26993 0.01962 0.61173 0.0
H219 H 0.28375 0.05604 0.58097 0.0
H220 H 0.32082 0.9854 0.48407 0.0
H221 H 0.30613 0.02277 0.50754 0.0
H222 H 0.42807 0.03257 0.46243 0.0
H223 H 0.41363 0.06955 0.48669 0.0
N224 N 0.35634 0.09286 0.50001 0.0
N225 N 0.33586 0.09362 0.55674 0.0
C226 C 0.49936 0.85872 0.92355 0.0
C227 C 0.46222 0.84675 0.91766 0.0
C228 C 0.51583 0.85393 0.94902 0.0
C229 C 0.49564 0.83669 0.96876 0.0
C230 C 0.44143 0.83096 0.93849 0.0
C231 C 0.45802 0.82601 0.96388 0.0
C232 C 0.51412 0.82846 0.99335 0.0
C233 C 0.54937 0.79795 0.9101 0.0
C234 C 0.58549 0.81078 0.90278 0.0
C235 C 0.53675 0.8 0.93847 0.0
C236 C 0.55985 0.81511 0.96006 0.0
C237 C 0.60907 0.82498 0.9248 0.0
C238 C 0.59637 0.82704 0.95325 0.0
C239 C 0.54538 0.81925 0.98934 0.0
C240 C 0.5643 0.78056 0.10767 0.0
C241 C 0.60234 0.79029 0.11176 0.0
C242 C 0.54671 0.78789 0.08423 0.0
C243 C 0.56669 0.80542 0.06468 0.0
C244 C 0.62246 0.80703 0.09143 0.0
C245 C 0.60481 0.81444 0.06807 0.0
C246 C 0.54822 0.81419 0.04044 0.0
C247 C 0.5083 0.84233 0.12401 0.0
C248 C 0.47131 0.83014 0.12947 0.0
C249 C 0.52297 0.84053 0.09627 0.0
C250 C 0.50101 0.82638 0.07346 0.0
C251 C 0.44911 0.81672 0.10626 0.0
C252 C 0.4638 0.815 0.07848 0.0
C253 C 0.51674 0.82322 0.04442 0.0
H254 H 0.51587 0.87135 0.90814 0.0
H255 H 0.54469 0.86298 0.95277 0.0
H256 H 0.41277 0.8214 0.93448 0.0
H257 H 0.4419 0.81282 0.97896 0.0
H258 H 0.53076 0.78636 0.89386 0.0
H259 H 0.50868 0.79014 0.94344 0.0
H260 H 0.63701 0.83514 0.91985 0.0
H261 H 0.61466 0.83867 0.96967 0.0
H262 H 0.54794 0.76772 0.12294 0.0
H263 H 0.5174 0.78001 0.08156 0.0
H264 H 0.65189 0.81447 0.09359 0.0
H265 H 0.62086 0.82765 0.05297 0.0
H266 H 0.52597 0.85333 0.14118 0.0
H267 H 0.55156 0.85002 0.09269 0.0
H268 H 0.4206 0.80694 0.10972 0.0
H269 H 0.44634 0.80413 0.06111 0.0
N270 N 0.5007 0.82985 0.02069 0.0
N271 N 0.5615 0.81269 0.01303 0.0
C272 C 0.79842 0.087 0.47621 0.0
C273 C 0.83091 0.09308 0.45994 0.0
C274 C 0.78953 0.06538 0.4929 0.0
C275 C 0.81341 0.0497 0.49443 0.0
C276 C 0.85448 0.07708 0.46115 0.0
C277 C 0.84579 0.05564 0.47817 0.0
C278 C 0.80378 0.02622 0.51131 0.0
C279 C 0.81124 0.09186 0.57632 0.0
C280 C 0.77688 0.09241 0.58752 0.0
C281 C 0.81556 0.07006 0.56097 0.0
C282 C 0.78559 0.04845 0.55668 0.0
C283 C 0.74713 0.07058 0.58362 0.0
C284 C 0.75155 0.04871 0.56857 0.0
C285 C 0.7894 0.02547 0.5399 0.0
C286 C 0.78335 0.91838 0.57158 0.0
C287 C 0.74614 0.90789 0.57766 0.0
C288 C 0.79518 0.94248 0.55998 0.0
C289 C 0.77005 0.95657 0.55466 0.0
C290 C 0.72122 0.9224 0.57324 0.0
C291 C 0.73321 0.94673 0.56214 0.0
C292 C 0.7817 0.98057 0.53919 0.0
C293 C 0.76255 0.91592 0.47301 0.0
C294 C 0.79523 0.91144 0.46236 0.0
C295 C 0.76294 0.93871 0.48837 0.0
C296 C 0.79598 0.95758 0.49351 0.0
C297 C 0.82829 0.93066 0.467 0.0
C298 C 0.8286 0.95362 0.48234 0.0
C299 C 0.796 0.98124 0.51075 0.0
H300 H 0.77968 0.0989 0.47604 0.0
H301 H 0.76365 0.06078 0.50424 0.0
H302 H 0.87933 0.08075 0.44843 0.0
H303 H 0.86435 0.0436 0.47854 0.0
H304 H 0.83459 0.10845 0.57898 0.0
H305 H 0.84221 0.0701 0.55234 0.0
H306 H 0.72047 0.07039 0.59236 0.0
H307 H 0.72817 0.03216 0.56568 0.0
H308 H 0.803 0.90746 0.57459 0.0
H309 H 0.82377 0.94984 0.55439 0.0
H310 H 0.6924 0.91468 0.57784 0.0
H311 H 0.71346 0.95736 0.55811 0.0
H312 H 0.73645 0.90194 0.46915 0.0
H313 H 0.73731 0.94163 0.49621 0.0
H314 H 0.85396 0.92783 0.45919 0.0
H315 H 0.85435 0.96804 0.486 0.0
N316 N 0.80671 0.00402 0.49786 0.0
N317 N 0.77865 0.00263 0.5527 0.0
C318 C 0.46267 0.37544 0.92103 0.0
C319 C 0.42568 0.36163 0.91784 0.0
C320 C 0.48322 0.37201 0.94489 0.0
C321 C 0.46726 0.35461 0.96599 0.0
C322 C 0.40934 0.3451 0.93974 0.0
C323 C 0.42992 0.34176 0.96371 0.0
C324 C 0.48972 0.34961 0.9901 0.0
C325 C 0.527 0.31416 0.90944 0.0
C326 C 0.56451 0.32243 0.90331 0.0
C327 C 0.51354 0.32152 0.93588 0.0
C328 C 0.53719 0.33802 0.95629 0.0
C329 C 0.58822 0.3387 0.92373 0.0
C330 C 0.57467 0.34646 0.94991 0.0
C331 C 0.52394 0.3444 0.98542 0.0
C332 C 0.57495 0.32389 0.10237 0.0
C333 C 0.6115 0.33887 0.10132 0.0
C334 C 0.5491 0.32677 0.08208 0.0
C335 C 0.55931 0.34483 0.06056 0.0
C336 C 0.62126 0.35738 0.08022 0.0
C337 C 0.59549 0.36018 0.05995 0.0
C338 C 0.53386 0.34626 0.03682 0.0
C339 C 0.48647 0.37057 0.11976 0.0
C340 C 0.45524 0.35157 0.12769 0.0
C341 C 0.50049 0.37018 0.09156 0.0
C342 C 0.48316 0.35097 0.07085 0.0
C343 C 0.43761 0.33266 0.10675 0.0
C344 C 0.45123 0.33255 0.07844 0.0
C345 C 0.49854 0.34949 0.04147 0.0
H346 H 0.47588 0.38875 0.90492 0.0
H347 H 0.51177 0.38269 0.94664 0.0
H348 H 0.381 0.33401 0.93786 0.0
H349 H 0.41702 0.32842 0.97989 0.0
H350 H 0.5083 0.30128 0.89421 0.0
H351 H 0.48484 0.31364 0.94063 0.0
H352 H 0.61728 0.34538 0.91942 0.0
H353 H 0.59361 0.35888 0.96537 0.0
H354 H 0.56667 0.30922 0.11808 0.0
H355 H 0.52157 0.31423 0.08251 0.0
H356 H 0.64901 0.36949 0.07908 0.0
H357 H 0.60398 0.37416 0.04346 0.0
H358 H 0.50059 0.38526 0.1356 0.0
H359 H 0.52501 0.38468 0.08599 0.0
H360 H 0.41337 0.31791 0.11236 0.0
H361 H 0.43746 0.31764 0.06268 0.0
N362 N 0.47786 0.35132 0.01795 0.0
N363 N 0.54497 0.34355 0.009 0.0
H364 H 0.19121 0.39576 0.27576 0.0
H365 H 0.27753 0.46078 0.25073 0.0
H366 H 0.23295 0.4852 0.24458 0.0
H367 H 0.17005 0.4888 0.24844 0.0
H368 H 0.08346 0.42375 0.27287 0.0
H369 H 0.12773 0.39877 0.27749 0.0
C370 C 0.20029 0.41523 0.26881 0.0
C371 C 0.23773 0.42642 0.26385 0.0
C372 C 0.17453 0.42924 0.26544 0.0
C373 C 0.24893 0.45167 0.25477 0.0
C374 C 0.22346 0.46569 0.25129 0.0
C375 C 0.16071 0.46903 0.25433 0.0
C376 C 0.12345 0.45821 0.26035 0.0
C377 C 0.18626 0.45475 0.25682 0.0
C378 C 0.11203 0.43269 0.26849 0.0
C379 C 0.1373 0.41834 0.27099 0.0
H380 H 0.20068 0.75028 0.74519 0.0
H381 H 0.23684 0.75927 0.65607 0.0
H382 H 0.18762 0.72176 0.64042 0.0
H383 H 0.1358 0.6854 0.65249 0.0
H384 H 0.102 0.67596 0.74219 0.0
H385 H 0.14838 0.71495 0.75699 0.0
C386 C 0.19776 0.74417 0.72229 0.0
C387 C 0.22257 0.7575 0.70187 0.0
C388 C 0.1697 0.72252 0.71352 0.0
C389 C 0.21821 0.74931 0.67228 0.0
C390 C 0.19008 0.72785 0.66332 0.0
C391 C 0.13863 0.69184 0.67528 0.0
C392 C 0.11529 0.67771 0.69613 0.0
C393 C 0.16595 0.71411 0.68382 0.0
C394 C 0.11906 0.6866 0.72553 0.0
C395 C 0.14585 0.70881 0.73411 0.0
H396 H 0.85032 0.70502 0.23822 0.0
H397 H 0.82883 0.6957 0.32993 0.0
H398 H 0.85903 0.66119 0.32946 0.0
H399 H 0.89259 0.63437 0.30314 0.0
H400 H 0.90853 0.64104 0.21026 0.0
H401 H 0.87994 0.67608 0.2112 0.0
C402 C 0.85239 0.69547 0.25811 0.0
C403 C 0.83775 0.70302 0.28413 0.0
C404 C 0.86891 0.67523 0.2575 0.0
C405 C 0.83999 0.69022 0.30964 0.0
C406 C 0.85726 0.67051 0.30938 0.0
C407 C 0.88931 0.64309 0.28295 0.0
C408 C 0.90331 0.63507 0.25674 0.0
C409 C 0.87182 0.66285 0.28342 0.0
C410 C 0.89905 0.64708 0.23096 0.0
C411 C 0.88239 0.66707 0.23138 0.0
H412 H 0.82925 0.34231 0.7261 0.0
H413 H 0.79534 0.32843 0.63582 0.0
H414 H 0.83598 0.36996 0.62411 0.0
H415 H 0.87781 0.41169 0.64049 0.0
H416 H 0.90788 0.42572 0.73141 0.0
H417 H 0.87214 0.38257 0.74194 0.0
C418 C 0.83096 0.34815 0.70375 0.0
C419 C 0.80916 0.33229 0.6819 0.0
C420 C 0.85354 0.3722 0.69736 0.0
C421 C 0.81175 0.3403 0.65309 0.0
C422 C 0.83491 0.36407 0.6464 0.0
C423 C 0.87674 0.40506 0.66248 0.0
C424 C 0.89515 0.42172 0.68522 0.0
C425 C 0.85541 0.38039 0.66847 0.0
C426 C 0.89356 0.41318 0.71369 0.0
C427 C 0.87322 0.38856 0.71969 0.0
H428 H 0.33725 0.27009 0.38667 0.0
H429 H 0.45014 0.30112 0.41336 0.0
H430 H 0.44869 0.26178 0.43745 0.0
H431 H 0.41457 0.21928 0.4527 0.0
H432 H 0.30183 0.18826 0.42573 0.0
H433 H 0.304 0.22696 0.4001 0.0
C434 C 0.36159 0.26824 0.39766 0.0
C435 C 0.39369 0.28858 0.39832 0.0
C436 C 0.36056 0.2456 0.41153 0.0
C437 C 0.42503 0.28579 0.41257 0.0
C438 C 0.42423 0.2633 0.42637 0.0
C439 C 0.39065 0.22084 0.44085 0.0
C440 C 0.35804 0.20097 0.44125 0.0
C441 C 0.39206 0.24316 0.42619 0.0
C442 C 0.32712 0.20343 0.42611 0.0
C443 C 0.32837 0.22551 0.41136 0.0
H444 H 0.41028 0.84351 0.78711 0.0
H445 H 0.31403 0.85577 0.82932 0.0
H446 H 0.344 0.85897 0.87685 0.0
H447 H 0.39611 0.85543 0.90669 0.0
H448 H 0.49188 0.84281 0.86418 0.0
H449 H 0.46367 0.84288 0.81655 0.0
C450 C 0.39593 0.8471 0.80667 0.0
C451 C 0.35983 0.84915 0.80463 0.0
C452 C 0.41321 0.84879 0.83392 0.0
C453 C 0.34181 0.85405 0.83021 0.0
C454 C 0.35886 0.85579 0.85744 0.0
C455 C 0.41079 0.85281 0.88696 0.0
C456 C 0.44596 0.84907 0.88895 0.0
C457 C 0.3943 0.85271 0.8596 0.0
C458 C 0.46492 0.846 0.86323 0.0
C459 C 0.44871 0.84586 0.83598 0.0
H460 H 0.75752 0.80232 0.39857 0.0
H461 H 0.83876 0.84246 0.33886 0.0
H462 H 0.85133 0.88076 0.37131 0.0
H463 H 0.83423 0.90416 0.41391 0.0
H464 H 0.75395 0.86345 0.47404 0.0
H465 H 0.74589 0.82419 0.44399 0.0
C466 C 0.77836 0.81933 0.39282 0.0
C467 C 0.79682 0.81959 0.36615 0.0
C468 C 0.78524 0.84134 0.41144 0.0
C469 C 0.82406 0.84171 0.35923 0.0
C470 C 0.83112 0.8637 0.3777 0.0
C471 C 0.81554 0.88661 0.4208 0.0
C472 C 0.79418 0.88698 0.44593 0.0
C473 C 0.81115 0.86395 0.40348 0.0
C474 C 0.77 0.86397 0.45439 0.0
C475 C 0.76551 0.84142 0.43731 0.0
H476 H 0.61428 0.29496 0.77746 0.0
H477 H 0.6922 0.26966 0.82837 0.0
H478 H 0.66431 0.28086 0.87328 0.0
H479 H 0.62005 0.30013 0.89819 0.0
H480 H 0.54125 0.32455 0.84765 0.0
H481 H 0.56717 0.3114 0.80245 0.0
C482 C 0.62495 0.29167 0.79837 0.0
C483 C 0.65549 0.28169 0.79951 0.0
C484 C 0.60883 0.29821 0.82416 0.0
C485 C 0.66877 0.27735 0.82681 0.0
C486 C 0.65295 0.28386 0.85254 0.0
C487 C 0.60865 0.30255 0.87723 0.0
C488 C 0.57916 0.31353 0.87608 0.0
C489 C 0.62343 0.29473 0.85147 0.0
C490 C 0.56403 0.31616 0.84894 0.0
C491 C 0.57887 0.3087 0.82316 0.0
H492 H 0.2486 0.90789 0.66992 0.0
H493 H 0.36286 0.91138 0.68011 0.0
H494 H 0.37998 0.94977 0.65177 0.0
H495 H 0.36237 0.98255 0.62483 0.0
H496 H 0.24757 0.97601 0.6102 0.0
H497 H 0.23094 0.939 0.64009 0.0
C498 C 0.27724 0.91712 0.66597 0.0
C499 C 0.30445 0.90701 0.67722 0.0
C500 C 0.28682 0.93874 0.64905 0.0
C501 C 0.34144 0.91886 0.67161 0.0
C502 C 0.35123 0.94081 0.65547 0.0
C503 C 0.33368 0.97289 0.62767 0.0
C504 C 0.30641 0.98253 0.61538 0.0
C505 C 0.32412 0.95091 0.64406 0.0
C506 C 0.26936 0.9697 0.61994 0.0
C507 C 0.2597 0.94827 0.63684 0.0
H508 H 0.66164 0.74704 0.22158 0.0
H509 H 0.72743 0.82537 0.23001 0.0
H510 H 0.69989 0.83509 0.18571 0.0
H511 H 0.65564 0.822 0.14563 0.0
H512 H 0.59021 0.74371 0.13624 0.0
H513 H 0.61877 0.73347 0.18003 0.0
C514 C 0.67008 0.7662 0.21364 0.0
C515 C 0.6965 0.78544 0.22921 0.0
C516 C 0.65402 0.77176 0.18808 0.0
C517 C 0.70712 0.81016 0.21856 0.0
C518 C 0.69136 0.81579 0.1932 0.0
C519 C 0.64799 0.80258 0.15285 0.0
C520 C 0.62079 0.78368 0.13763 0.0
C521 C 0.66462 0.7968 0.17792 0.0
C522 C 0.61074 0.75873 0.14772 0.0
C523 C 0.6272 0.75282 0.17269 0.0
H524 H 0.77559 0.19115 0.66509 0.0
H525 H 0.68014 0.18596 0.6118 0.0
H526 H 0.68867 0.14768 0.58609 0.0
H527 H 0.72321 0.11565 0.57871 0.0
H528 H 0.81959 0.12144 0.63092 0.0
H529 H 0.81092 0.15965 0.65697 0.0
C530 C 0.75661 0.18161 0.64789 0.0
C531 C 0.72718 0.19133 0.64047 0.0
C532 C 0.76191 0.15978 0.63296 0.0
C533 C 0.70304 0.17889 0.61793 0.0
C534 C 0.70786 0.15698 0.60323 0.0
C535 C 0.74216 0.12523 0.59592 0.0
C536 C 0.77187 0.11573 0.60302 0.0
C537 C 0.73716 0.14724 0.61059 0.0
C538 C 0.79663 0.12852 0.62499 0.0
C539 C 0.7916 0.15027 0.63994 0.0
H540 H 0.40672 0.33192 0.25796 0.0
H541 H 0.39983 0.40957 0.25493 0.0
H542 H 0.4179 0.41057 0.20365 0.0
H543 H 0.43801 0.38971 0.16011 0.0
H544 H 0.4429 0.31161 0.16302 0.0
H545 H 0.42336 0.31036 0.21391 0.0
C546 C 0.40899 0.34899 0.24597 0.0
C547 C 0.40172 0.37057 0.26005 0.0
C548 C 0.41923 0.34936 0.21656 0.0
C549 C 0.40457 0.39255 0.24435 0.0
C550 C 0.41525 0.39321 0.21513 0.0
C551 C 0.43469 0.37246 0.17198 0.0
C552 C 0.44198 0.35082 0.15805 0.0
C553 C 0.42296 0.37179 0.20109 0.0
C554 C 0.43725 0.32844 0.17339 0.0
C555 C 0.42621 0.32775 0.20245 0.0
H556 H 0.79322 0.68304 0.66714 0.0
H557 H 0.79417 0.66921 0.57381 0.0
H558 H 0.84414 0.64921 0.57876 0.0
H559 H 0.88465 0.63294 0.60992 0.0
H560 H 0.88287 0.6463 0.70321 0.0
H561 H 0.83621 0.66922 0.69793 0.0
C562 C 0.80451 0.67583 0.64784 0.0
C563 C 0.78976 0.67747 0.62018 0.0
C564 C 0.83301 0.66415 0.65084 0.0
C565 C 0.80488 0.66811 0.5954 0.0
C566 C 0.83345 0.65664 0.5982 0.0
C567 C 0.87451 0.64128 0.62902 0.0
C568 C 0.88701 0.6378 0.65692 0.0
C569 C 0.84736 0.6542 0.62585 0.0
C570 C 0.87332 0.64846 0.68152 0.0
C571 C 0.84669 0.66159 0.67852 0.0
H572 H 0.91767 0.31787 0.2808 0.0
H573 H 0.81018 0.32121 0.30843 0.0
H574 H 0.82692 0.36729 0.30172 0.0
H575 H 0.87203 0.40658 0.28677 0.0
H576 H 0.97955 0.40259 0.25956 0.0
H577 H 0.96291 0.35691 0.26732 0.0
C578 C 0.89799 0.32873 0.28558 0.0
C579 C 0.86253 0.31609 0.29459 0.0
C580 C 0.90779 0.35511 0.28159 0.0
C581 C 0.83731 0.33037 0.30065 0.0
C582 C 0.84698 0.35676 0.29704 0.0
C583 C 0.89182 0.3957 0.28271 0.0
C584 C 0.92684 0.40795 0.27229 0.0
C585 C 0.88206 0.36931 0.28723 0.0
C586 C 0.95217 0.39356 0.26701 0.0
C587 C 0.94278 0.36745 0.27165 0.0
H588 H 0.14314 0.40042 0.76332 0.0
H589 H 0.18402 0.39419 0.67625 0.0
H590 H 0.15577 0.42701 0.66081 0.0
H591 H 0.11704 0.45595 0.67169 0.0
H592 H 0.08083 0.46451 0.76008 0.0
H593 H 0.10925 0.43205 0.77518 0.0
C594 C 0.14591 0.4063 0.74098 0.0
C595 C 0.16527 0.39476 0.72087 0.0
C596 C 0.13018 0.42544 0.73243 0.0
C597 C 0.16919 0.40281 0.69212 0.0
C598 C 0.15297 0.42151 0.68327 0.0
C599 C 0.11585 0.45112 0.69438 0.0
C600 C 0.09608 0.46248 0.71451 0.0
C601 C 0.13314 0.43282 0.70321 0.0
C602 C 0.09477 0.45564 0.74379 0.0
C603 C 0.11132 0.43718 0.75258 0.0
H604 H 0.22 0.73915 0.31641 0.0
H605 H 0.24218 0.74608 0.2244 0.0
H606 H 0.18892 0.71 0.21319 0.0
H607 H 0.13808 0.6751 0.2297 0.0
H608 H 0.11866 0.66696 0.32199 0.0
H609 H 0.16819 0.7053 0.33276 0.0
C610 C 0.21309 0.73293 0.29386 0.0
C611 C 0.23522 0.74522 0.2713 0.0
C612 C 0.18279 0.71198 0.2876 0.0
C613 C 0.22574 0.73689 0.24222 0.0
C614 C 0.19529 0.71625 0.23578 0.0
C615 C 0.1447 0.68166 0.25219 0.0
C616 C 0.12458 0.66801 0.27495 0.0
C617 C 0.17397 0.70339 0.25833 0.0
C618 C 0.13317 0.67718 0.30394 0.0
C619 C 0.16181 0.69901 0.31018 0.0
H620 H 0.68391 0.7893 0.58982 0.0
H621 H 0.76083 0.80503 0.66159 0.0
H622 H 0.77656 0.85074 0.65271 0.0
H623 H 0.77097 0.8859 0.62241 0.0
H624 H 0.69255 0.86998 0.55165 0.0
H625 H 0.67464 0.82468 0.56227 0.0
C626 C 0.7039 0.80281 0.60364 0.0
C627 C 0.72118 0.79393 0.62632 0.0
C628 C 0.71257 0.82897 0.59849 0.0
C629 C 0.74681 0.81152 0.64425 0.0
C630 C 0.75601 0.8376 0.63903 0.0
C631 C 0.74975 0.87246 0.60956 0.0
C632 C 0.73311 0.88111 0.58627 0.0
C633 C 0.73943 0.84649 0.61594 0.0
C634 C 0.70547 0.8637 0.56982 0.0
C635 C 0.69541 0.83782 0.57577 0.0
H636 H 0.74696 0.3188 0.16585 0.0
H637 H 0.67238 0.30993 0.23836 0.0
H638 H 0.62587 0.31939 0.2074 0.0
H639 H 0.60611 0.32963 0.15942 0.0
H640 H 0.68077 0.33738 0.08701 0.0
H641 H 0.72757 0.32921 0.11838 0.0
C642 C 0.72059 0.319 0.17497 0.0
C643 C 0.71319 0.31361 0.20437 0.0
C644 C 0.69395 0.32433 0.15706 0.0
C645 C 0.67882 0.31398 0.21577 0.0
C646 C 0.65218 0.31937 0.19808 0.0
C647 C 0.63256 0.32941 0.1505 0.0
C648 C 0.63991 0.33426 0.12093 0.0
C649 C 0.65937 0.32443 0.16863 0.0
C650 C 0.67452 0.33416 0.10979 0.0
C651 C 0.70126 0.3293 0.12766 0.0
H652 H 0.35522 0.28319 0.67163 0.0
H653 H 0.24074 0.27031 0.65022 0.0
H654 H 0.24269 0.23301 0.61901 0.0
H655 H 0.2767 0.20342 0.5988 0.0
H656 H 0.39087 0.21635 0.62123 0.0
H657 H 0.38926 0.25442 0.65087 0.0
C658 C 0.33067 0.27233 0.66007 0.0
C659 C 0.29785 0.2795 0.66336 0.0
C660 C 0.33193 0.25088 0.64235 0.0
C661 C 0.26637 0.26521 0.6481 0.0
C662 C 0.26744 0.24384 0.6303 0.0
C663 C 0.30114 0.21453 0.61031 0.0
C664 C 0.33384 0.20706 0.6078 0.0
C665 C 0.3 0.23636 0.62748 0.0
C666 C 0.36546 0.22184 0.6225 0.0
C667 C 0.36453 0.24354 0.63959 0.0
H668 H 0.38617 0.83457 0.24776 0.0
H669 H 0.48731 0.82589 0.28266 0.0
H670 H 0.512 0.82515 0.23353 0.0
H671 H 0.50452 0.82612 0.18072 0.0
H672 H 0.40401 0.83575 0.14551 0.0
H673 H 0.37898 0.83615 0.19462 0.0
C674 C 0.41331 0.83204 0.24455 0.0
C675 C 0.4346 0.82981 0.26878 0.0
C676 C 0.42742 0.83172 0.2162 0.0
C677 C 0.47033 0.82757 0.26435 0.0
C678 C 0.48445 0.82709 0.23627 0.0
C679 C 0.47731 0.82864 0.18376 0.0
C680 C 0.45624 0.83092 0.15939 0.0
C681 C 0.46323 0.82912 0.21204 0.0
C682 C 0.42071 0.83364 0.1638 0.0
C683 C 0.40643 0.83402 0.19191 0.0
H684 H 0.89335 0.18603 0.37941 0.0
H685 H 0.77835 0.17158 0.35891 0.0
H686 H 0.76351 0.13789 0.39378 0.0
H687 H 0.7834 0.11067 0.42754 0.0
H688 H 0.89814 0.12599 0.44958 0.0
H689 H 0.9128 0.16088 0.41623 0.0
C690 C 0.865 0.17568 0.38276 0.0
C691 C 0.83705 0.18126 0.36641 0.0
C692 C 0.85661 0.15624 0.40282 0.0
C693 C 0.80045 0.16772 0.37115 0.0
C694 C 0.79192 0.14835 0.39103 0.0
C695 C 0.81158 0.12189 0.42557 0.0
C696 C 0.8396 0.11544 0.441 0.0
C697 C 0.81982 0.14219 0.40666 0.0
C698 C 0.87601 0.13008 0.43759 0.0
C699 C 0.88444 0.1502 0.41866 0.0
H700 H 0.3574 0.36031 0.79268 0.0
H701 H 0.26059 0.35769 0.84368 0.0
H702 H 0.29645 0.36179 0.88859 0.0
H703 H 0.35448 0.36322 0.91333 0.0
H704 H 0.45017 0.3636 0.86179 0.0
H705 H 0.41563 0.36368 0.81724 0.0
C706 C 0.34414 0.36095 0.81359 0.0
C707 C 0.30628 0.35853 0.81475 0.0
C708 C 0.36472 0.36281 0.83929 0.0
C709 C 0.28965 0.3594 0.8421 0.0
C710 C 0.31012 0.36167 0.86782 0.0
C711 C 0.36775 0.36329 0.89235 0.0
C712 C 0.40488 0.36336 0.89099 0.0
C713 C 0.34752 0.36284 0.86667 0.0
C714 C 0.42179 0.36389 0.86359 0.0
C715 C 0.40198 0.36374 0.83803 0.0
H716 H 0.44118 0.91644 0.4255 0.0
H717 H 0.33431 0.89031 0.38491 0.0
H718 H 0.31768 0.92763 0.40615 0.0
H719 H 0.33353 0.96773 0.43633 0.0
H720 H 0.44008 0.99319 0.47752 0.0
H721 H 0.45685 0.95621 0.45573 0.0
C722 C 0.41426 0.9189 0.42123 0.0
C723 C 0.38906 0.90059 0.40363 0.0
C724 C 0.40483 0.94033 0.43358 0.0
C725 C 0.35427 0.9041 0.39838 0.0
C726 C 0.34471 0.92543 0.41053 0.0
C727 C 0.3603 0.96506 0.44071 0.0
C728 C 0.38553 0.98326 0.45844 0.0
C729 C 0.36973 0.94364 0.42824 0.0
C730 C 0.42031 0.97969 0.4636 0.0
C731 C 0.42988 0.95846 0.45129 0.0
H732 H 0.61212 0.80366 0.76714 0.0
H733 H 0.71577 0.79513 0.79701 0.0
H734 H 0.69762 0.80016 0.8476 0.0
H735 H 0.6512 0.80512 0.88342 0.0
H736 H 0.54794 0.81408 0.85321 0.0
H737 H 0.56697 0.81047 0.80274 0.0
C738 C 0.63087 0.80303 0.78468 0.0
C739 C 0.66519 0.79891 0.77823 0.0
C740 C 0.6202 0.80579 0.81371 0.0
C741 C 0.68914 0.79824 0.8013 0.0
C742 C 0.67877 0.80106 0.83027 0.0
C743 C 0.63304 0.80657 0.8658 0.0
C744 C 0.59805 0.8096 0.87214 0.0
C745 C 0.64422 0.8046 0.83674 0.0
C746 C 0.57473 0.81123 0.84899 0.0
C747 C 0.58567 0.80934 0.82009 0.0
loop_
_geom_bond_atom_site_label_1
_geom_bond_atom_site_label_2
_geom_bond_distance
_geom_bond_site_symmetry_2
_ccdc_geom_bond_type
O0 Cd1 2.300 . S
O0 C7 1.275 . S
Cd1 O0 2.300 . S
Cd1 O9 2.381 . S
Cd1 O10 2.378 . S
O2 Cd3 2.385 . S
O2 C7 1.255 . S
Cd3 O2 2.385 . S
Cd3 O4 2.317 . S
O4 Cd3 2.317 . S
O4 C5 1.232 . S
C5 O4 1.232 . S
C5 O6 1.218 . S
O6 C5 1.218 . S
C7 O0 1.275 . S
C7 O2 1.255 . S
C8 O9 1.258 . S
C8 O10 1.256 . S
O9 Cd1 2.381 . S
O9 C8 1.258 . S
O10 Cd1 2.378 . S
O10 C8 1.256 . S
O11 Cd12 2.300 . S
O11 C18 1.275 . S
Cd12 O11 2.300 . S
Cd12 O20 2.381 . S
Cd12 O21 2.378 . S
O13 Cd14 2.385 . S
O13 C18 1.255 . S
Cd14 O13 2.385 . S
Cd14 O15 2.317 . S
O15 Cd14 2.317 . S
O15 C16 1.232 . S
C16 O15 1.232 . S
C16 O17 1.218 . S
O17 C16 1.218 . S
C18 O11 1.275 . S
C18 O13 1.255 . S
C19 O20 1.258 . S
C19 O21 1.256 . S
O20 Cd12 2.381 . S
O20 C19 1.258 . S
O21 Cd12 2.378 . S
O21 C19 1.256 . S
O22 Cd23 2.300 . S
O22 C29 1.275 . S
Cd23 O22 2.300 . S
Cd23 O31 2.381 . S
Cd23 O32 2.378 . S
O24 Cd25 2.385 . S
O24 C29 1.255 . S
Cd25 O24 2.385 . S
Cd25 O26 2.317 . S
O26 Cd25 2.317 . S
O26 C27 1.232 . S
C27 O26 1.232 . S
C27 O28 1.218 . S
O28 C27 1.218 . S
C29 O22 1.275 . S
C29 O24 1.255 . S
C30 O31 1.258 . S
C30 O32 1.256 . S
O31 Cd23 2.381 . S
O31 C30 1.258 . S
O32 Cd23 2.378 . S
O32 C30 1.256 . S
O33 Cd34 2.300 . S
O33 C40 1.275 . S
Cd34 O33 2.300 . S
Cd34 O42 2.381 . S
Cd34 O43 2.378 . S
O35 Cd36 2.385 . S
O35 C40 1.255 . S
Cd36 O35 2.385 . S
Cd36 O37 2.317 . S
O37 Cd36 2.317 . S
O37 C38 1.232 . S
C38 O37 1.232 . S
C38 O39 1.218 . S
O39 C38 1.218 . S
C40 O33 1.275 . S
C40 O35 1.255 . S
C41 O42 1.258 . S
C41 O43 1.256 . S
O42 Cd34 2.381 . S
O42 C41 1.258 . S
O43 Cd34 2.378 . S
O43 C41 1.256 . S
O44 Cd45 2.300 . S
O44 C51 1.275 . S
Cd45 O44 2.300 . S
Cd45 O53 2.381 . S
Cd45 O54 2.378 . S
O46 Cd47 2.385 . S
O46 C51 1.255 . S
Cd47 O46 2.385 . S
Cd47 O48 2.317 . S
O48 Cd47 2.317 . S
O48 C49 1.232 . S
C49 O48 1.232 . S
C49 O50 1.218 . S
O50 C49 1.218 . S
C51 O44 1.275 . S
C51 O46 1.255 . S
C52 O53 1.258 . S
C52 O54 1.256 . S
O53 Cd45 2.381 . S
O53 C52 1.258 . S
O54 Cd45 2.378 . S
O54 C52 1.256 . S
O55 Cd56 2.300 . S
O55 C62 1.275 . S
Cd56 O55 2.300 . S
Cd56 O64 2.381 . S
Cd56 O65 2.378 . S
O57 Cd58 2.385 . S
O57 C62 1.255 . S
Cd58 O57 2.385 . S
Cd58 O59 2.317 . S
O59 Cd58 2.317 . S
O59 C60 1.232 . S
C60 O59 1.232 . S
C60 O61 1.218 . S
O61 C60 1.218 . S
C62 O55 1.275 . S
C62 O57 1.255 . S
C63 O64 1.258 . S
C63 O65 1.256 . S
O64 Cd56 2.381 . S
O64 C63 1.258 . S
O65 Cd56 2.378 . S
O65 C63 1.256 . S
O66 Cd67 2.300 . S
O66 C73 1.275 . S
Cd67 O66 2.300 . S
Cd67 O75 2.381 . S
Cd67 O76 2.378 . S
O68 Cd69 2.385 . S
O68 C73 1.255 . S
Cd69 O68 2.385 . S
Cd69 O70 2.317 . S
O70 Cd69 2.317 . S
O70 C71 1.232 . S
C71 O70 1.232 . S
C71 O72 1.218 . S
O72 C71 1.218 . S
C73 O66 1.275 . S
C73 O68 1.255 . S
C74 O75 1.258 . S
C74 O76 1.256 . S
O75 Cd67 2.381 . S
O75 C74 1.258 . S
O76 Cd67 2.378 . S
O76 C74 1.256 . S
O77 Cd78 2.300 . S
O77 C84 1.275 . S
Cd78 O77 2.300 . S
Cd78 O86 2.381 . S
Cd78 O87 2.378 . S
O79 Cd80 2.385 . S
O79 C84 1.255 . S
Cd80 O79 2.385 . S
Cd80 O81 2.317 . S
O81 Cd80 2.317 . S
O81 C82 1.232 . S
C82 O81 1.232 . S
C82 O83 1.218 . S
O83 C82 1.218 . S
C84 O77 1.275 . S
C84 O79 1.255 . S
C85 O86 1.258 . S
C85 O87 1.256 . S
O86 Cd78 2.381 . S
O86 C85 1.258 . S
O87 Cd78 2.378 . S
O87 C85 1.256 . S
C88 C89 1.384 . S
C88 C90 1.384 1_655 S
C88 H116 0.931 . S
C89 C88 1.384 . S
C89 C92 1.382 . S
C90 C88 1.384 1_455 S
C90 C91 1.371 1_455 S
C90 H117 0.930 . S
C91 C90 1.371 1_655 S
C91 C93 1.404 . S
C91 C94 1.477 1_655 S
C92 C89 1.382 . S
C92 C93 1.387 . S
C92 H118 0.930 . S
C93 C91 1.404 . S
C93 C92 1.387 . S
C93 H119 0.931 . S
C94 C91 1.477 1_455 S
C94 C101 1.399 . S
C94 N132 1.343 . S
C95 C96 1.384 . S
C95 C97 1.384 . S
C95 H120 0.931 . S
C96 C95 1.384 . S
C96 C99 1.382 . S
C97 C95 1.384 . S
C97 C98 1.381 . S
C97 H121 0.930 . S
C98 C97 1.381 . S
C98 C100 1.381 . S
C98 C101 1.487 . S
C99 C96 1.382 . S
C99 C100 1.387 . S
C99 H122 0.930 . S
C100 C98 1.381 . S
C100 C99 1.387 . S
C100 H123 0.931 . S
C101 C94 1.399 . S
C101 C98 1.487 . S
C101 N133 1.343 . S
C102 C103 1.384 . S
C102 C104 1.384 . S
C102 H124 0.931 . S
C103 C102 1.384 . S
C103 C106 1.382 . S
C104 C102 1.384 . S
C104 C105 1.381 . S
C104 H125 0.930 . S
C105 C104 1.381 . S
C105 C107 1.381 . S
C105 C108 1.487 . S
C106 C103 1.382 . S
C106 C107 1.387 . S
C106 H126 0.930 . S
C107 C105 1.381 . S
C107 C106 1.387 . S
C107 H127 0.931 . S
C108 C105 1.487 . S
C108 C115 1.399 . S
C108 N133 1.343 . S
C109 C110 1.384 . S
C109 C111 1.384 1_655 S
C109 H128 0.931 . S
C110 C109 1.384 . S
C110 C113 1.382 . S
C111 C109 1.384 1_455 S
C111 C112 1.381 . S
C111 H129 0.930 . S
C112 C111 1.381 . S
C112 C114 1.381 1_455 S
C112 C115 1.487 . S
C113 C110 1.382 . S
C113 C114 1.387 . S
C113 H130 0.930 . S
C114 C112 1.381 1_655 S
C114 C113 1.387 . S
C114 H131 0.931 . S
C115 C108 1.399 . S
C115 C112 1.487 . S
C115 N132 1.343 . S
H116 C88 0.931 . S
H117 C90 0.930 . S
H118 C92 0.930 . S
H119 C93 0.931 . S
H120 C95 0.931 . S
H121 C97 0.930 . S
H122 C99 0.930 . S
H123 C100 0.931 . S
H124 C102 0.931 . S
H125 C104 0.930 . S
H126 C106 0.930 . S
H127 C107 0.931 . S
H128 C109 0.931 . S
H129 C111 0.930 . S
H130 C113 0.930 . S
H131 C114 0.931 . S
N132 C94 1.343 . S
N132 C115 1.343 . S
N133 C101 1.343 . S
N133 C108 1.343 . S
C134 C135 1.384 . S
C134 C136 1.384 . S
C134 H162 0.931 . S
C135 C134 1.384 . S
C135 C138 1.382 . S
C136 C134 1.384 . S
C136 C137 1.381 . S
C136 H163 0.930 . S
C137 C136 1.381 . S
C137 C139 1.381 . S
C137 C140 1.487 . S
C138 C135 1.382 . S
C138 C139 1.387 . S
C138 H164 0.930 . S
C139 C137 1.381 . S
C139 C138 1.387 . S
C139 H165 0.931 . S
C140 C137 1.487 . S
C140 C147 1.399 1_655 S
C140 N178 1.343 . S
C141 C142 1.384 . S
C141 C143 1.384 . S
C141 H166 0.931 . S
C142 C141 1.384 . S
C142 C145 1.382 . S
C143 C141 1.384 . S
C143 C144 1.381 . S
C143 H167 0.930 . S
C144 C143 1.381 . S
C144 C146 1.381 . S
C144 C147 1.487 . S
C145 C142 1.382 . S
C145 C146 1.387 . S
C145 H168 0.930 . S
C146 C144 1.381 . S
C146 C145 1.387 . S
C146 H169 0.931 . S
C147 C140 1.399 1_455 S
C147 C144 1.487 . S
C147 N179 1.343 . S
C148 C149 1.384 . S
C148 C150 1.384 . S
C148 H170 0.931 . S
C149 C148 1.384 . S
C149 C152 1.382 . S
C150 C148 1.384 . S
C150 C151 1.381 . S
C150 H171 0.930 . S
C151 C150 1.381 . S
C151 C153 1.381 . S
C151 C154 1.487 . S
C152 C149 1.382 . S
C152 C153 1.387 . S
C152 H172 0.930 . S
C153 C151 1.381 . S
C153 C152 1.387 . S
C153 H173 0.931 . S
C154 C151 1.487 . S
C154 C161 1.399 1_455 S
C154 N179 1.343 . S
C155 C156 1.384 . S
C155 C157 1.384 . S
C155 H174 0.931 . S
C156 C155 1.384 . S
C156 C159 1.382 . S
C157 C155 1.384 . S
C157 C158 1.381 . S
C157 H175 0.930 . S
C158 C157 1.381 . S
C158 C160 1.381 . S
C158 C161 1.487 . S
C159 C156 1.382 . S
C159 C160 1.387 . S
C159 H176 0.930 . S
C160 C158 1.381 . S
C160 C159 1.387 . S
C160 H177 0.931 . S
C161 C154 1.399 1_655 S
C161 C158 1.487 . S
C161 N178 1.343 . S
H162 C134 0.931 . S
H163 C136 0.930 . S
H164 C138 0.930 . S
H165 C139 0.931 . S
H166 C141 0.931 . S
H167 C143 0.930 . S
H168 C145 0.930 . S
H169 C146 0.931 . S
H170 C148 0.931 . S
H171 C150 0.930 . S
H172 C152 0.930 . S
H173 C153 0.931 . S
H174 C155 0.931 . S
H175 C157 0.930 . S
H176 C159 0.930 . S
H177 C160 0.931 . S
N178 C140 1.343 . S
N178 C161 1.343 . S
N179 C147 1.343 . S
N179 C154 1.343 . S
C180 C181 1.384 . S
C180 C182 1.384 . S
C180 H208 0.931 . S
C181 C180 1.384 . S
C181 C184 1.382 . S
C182 C180 1.384 . S
C182 C183 1.381 . S
C182 H209 0.930 . S
C183 C182 1.381 . S
C183 C185 1.381 . S
C183 C186 1.487 . S
C184 C181 1.382 . S
C184 C185 1.387 . S
C184 H210 0.930 . S
C185 C183 1.381 . S
C185 C184 1.387 . S
C185 H211 0.931 . S
C186 C183 1.487 . S
C186 C193 1.399 . S
C186 N224 1.343 . S
C187 C188 1.384 . S
C187 C189 1.384 . S
C187 H212 0.931 . S
C188 C187 1.384 . S
C188 C191 1.382 . S
C189 C187 1.384 . S
C189 C190 1.381 . S
C189 H213 0.930 . S
C190 C189 1.381 . S
C190 C192 1.381 . S
C190 C193 1.487 . S
C191 C188 1.382 . S
C191 C192 1.387 . S
C191 H214 0.930 . S
C192 C190 1.381 . S
C192 C191 1.387 . S
C192 H215 0.931 . S
C193 C186 1.399 . S
C193 C190 1.487 . S
C193 N225 1.343 . S
C194 C195 1.384 . S
C194 C196 1.384 . S
C194 H216 0.931 . S
C195 C194 1.384 . S
C195 C198 1.382 . S
C196 C194 1.384 . S
C196 C197 1.381 . S
C196 H217 0.930 . S
C197 C196 1.381 . S
C197 C199 1.381 . S
C197 C200 1.487 . S
C198 C195 1.382 . S
C198 C199 1.387 . S
C198 H218 0.930 . S
C199 C197 1.381 . S
C199 C198 1.387 . S
C199 H219 0.931 . S
C200 C197 1.487 . S
C200 C207 1.399 . S
C200 N225 1.343 . S
C201 C202 1.384 . S
C201 C203 1.384 . S
C201 H220 0.931 . S
C202 C201 1.384 . S
C202 C205 1.382 . S
C203 C201 1.384 . S
C203 C204 1.381 . S
C203 H221 0.930 . S
C204 C203 1.381 . S
C204 C206 1.381 . S
C204 C207 1.487 . S
C205 C202 1.382 . S
C205 C206 1.387 . S
C205 H222 0.930 . S
C206 C204 1.381 . S
C206 C205 1.387 . S
C206 H223 0.931 . S
C207 C200 1.399 . S
C207 C204 1.487 . S
C207 N224 1.343 . S
H208 C180 0.931 . S
H209 C182 0.930 . S
H210 C184 0.930 . S
H211 C185 0.931 . S
H212 C187 0.931 . S
H213 C189 0.930 . S
H214 C191 0.930 . S
H215 C192 0.931 . S
H216 C194 0.931 . S
H217 C196 0.930 . S
H218 C198 0.930 . S
H219 C199 0.931 . S
H220 C201 0.931 . S
H221 C203 0.930 . S
H222 C205 0.930 . S
H223 C206 0.931 . S
N224 C186 1.343 . S
N224 C207 1.343 . S
N225 C193 1.343 . S
N225 C200 1.343 . S
C226 C227 1.384 . S
C226 C228 1.384 . S
C226 H254 0.931 . S
C227 C226 1.384 . S
C227 C230 1.382 . S
C228 C226 1.384 . S
C228 C229 1.381 . S
C228 H255 0.930 . S
C229 C228 1.381 . S
C229 C231 1.381 . S
C229 C232 1.487 . S
C230 C227 1.382 . S
C230 C231 1.387 . S
C230 H256 0.930 . S
C231 C229 1.381 . S
C231 C230 1.387 . S
C231 H257 0.931 . S
C232 C229 1.487 . S
C232 C239 1.399 . S
C232 N270 1.343 1_556 S
C233 C234 1.384 . S
C233 C235 1.384 . S
C233 H258 0.931 . S
C234 C233 1.384 . S
C234 C237 1.382 . S
C235 C233 1.384 . S
C235 C236 1.381 . S
C235 H259 0.930 . S
C236 C235 1.381 . S
C236 C238 1.381 . S
C236 C239 1.487 . S
C237 C234 1.382 . S
C237 C238 1.387 . S
C237 H260 0.930 . S
C238 C236 1.381 . S
C238 C237 1.387 . S
C238 H261 0.931 . S
C239 C232 1.399 . S
C239 C236 1.487 . S
C239 N271 1.343 1_556 S
C240 C241 1.384 . S
C240 C242 1.384 . S
C240 H262 0.931 . S
C241 C240 1.384 . S
C241 C244 1.382 . S
C242 C240 1.384 . S
C242 C243 1.381 . S
C242 H263 0.930 . S
C243 C242 1.381 . S
C243 C245 1.381 . S
C243 C246 1.487 . S
C244 C241 1.382 . S
C244 C245 1.387 . S
C244 H264 0.930 . S
C245 C243 1.381 . S
C245 C244 1.387 . S
C245 H265 0.931 . S
C246 C243 1.487 . S
C246 C253 1.399 . S
C246 N271 1.343 . S
C247 C248 1.384 . S
C247 C249 1.384 . S
C247 H266 0.931 . S
C248 C247 1.384 . S
C248 C251 1.382 . S
C249 C247 1.384 . S
C249 C250 1.381 . S
C249 H267 0.930 . S
C250 C249 1.381 . S
C250 C252 1.381 . S
C250 C253 1.487 . S
C251 C248 1.382 . S
C251 C252 1.387 . S
C251 H268 0.930 . S
C252 C250 1.381 . S
C252 C251 1.387 . S
C252 H269 0.931 . S
C253 C246 1.399 . S
C253 C250 1.487 . S
C253 N270 1.343 . S
H254 C226 0.931 . S
H255 C228 0.930 . S
H256 C230 0.930 . S
H257 C231 0.931 . S
H258 C233 0.931 . S
H259 C235 0.930 . S
H260 C237 0.930 . S
H261 C238 0.931 . S
H262 C240 0.931 . S
H263 C242 0.930 . S
H264 C244 0.930 . S
H265 C245 0.931 . S
H266 C247 0.931 . S
H267 C249 0.930 . S
H268 C251 0.930 . S
H269 C252 0.931 . S
N270 C232 1.343 1_554 S
N270 C253 1.343 . S
N271 C239 1.343 1_554 S
N271 C246 1.343 . S
C272 C273 1.384 . S
C272 C274 1.384 . S
C272 H300 0.931 . S
C273 C272 1.384 . S
C273 C276 1.382 . S
C274 C272 1.384 . S
C274 C275 1.381 . S
C274 H301 0.930 . S
C275 C274 1.381 . S
C275 C277 1.381 . S
C275 C278 1.487 . S
C276 C273 1.382 . S
C276 C277 1.387 . S
C276 H302 0.930 . S
C277 C275 1.381 . S
C277 C276 1.387 . S
C277 H303 0.931 . S
C278 C275 1.487 . S
C278 C285 1.399 . S
C278 N316 1.343 . S
C279 C280 1.384 . S
C279 C281 1.384 . S
C279 H304 0.931 . S
C280 C279 1.384 . S
C280 C283 1.382 . S
C281 C279 1.384 . S
C281 C282 1.381 . S
C281 H305 0.930 . S
C282 C281 1.381 . S
C282 C284 1.381 . S
C282 C285 1.487 . S
C283 C280 1.382 . S
C283 C284 1.387 . S
C283 H306 0.930 . S
C284 C282 1.381 . S
C284 C283 1.387 . S
C284 H307 0.931 . S
C285 C278 1.399 . S
C285 C282 1.487 . S
C285 N317 1.343 . S
C286 C287 1.384 . S
C286 C288 1.384 . S
C286 H308 0.931 . S
C287 C286 1.384 . S
C287 C290 1.382 . S
C288 C286 1.384 . S
C288 C289 1.381 . S
C288 H309 0.930 . S
C289 C288 1.381 . S
C289 C291 1.381 . S
C289 C292 1.487 . S
C290 C287 1.382 . S
C290 C291 1.387 . S
C290 H310 0.930 . S
C291 C289 1.381 . S
C291 C290 1.387 . S
C291 H311 0.931 . S
C292 C289 1.487 . S
C292 C299 1.399 . S
C292 N317 1.343 1_565 S
C293 C294 1.384 . S
C293 C295 1.384 . S
C293 H312 0.931 . S
C294 C293 1.384 . S
C294 C297 1.382 . S
C295 C293 1.384 . S
C295 C296 1.381 . S
C295 H313 0.930 . S
C296 C295 1.381 . S
C296 C298 1.381 . S
C296 C299 1.487 . S
C297 C294 1.382 . S
C297 C298 1.387 . S
C297 H314 0.930 . S
C298 C296 1.381 . S
C298 C297 1.387 . S
C298 H315 0.931 . S
C299 C292 1.399 . S
C299 C296 1.487 . S
C299 N316 1.343 1_565 S
H300 C272 0.931 . S
H301 C274 0.930 . S
H302 C276 0.930 . S
H303 C277 0.931 . S
H304 C279 0.931 . S
H305 C281 0.930 . S
H306 C283 0.930 . S
H307 C284 0.931 . S
H308 C286 0.931 . S
H309 C288 0.930 . S
H310 C290 0.930 . S
H311 C291 0.931 . S
H312 C293 0.931 . S
H313 C295 0.930 . S
H314 C297 0.930 . S
H315 C298 0.931 . S
N316 C278 1.343 . S
N316 C299 1.343 1_545 S
N317 C285 1.343 . S
N317 C292 1.343 1_545 S
C318 C319 1.384 . S
C318 C320 1.384 . S
C318 H346 0.931 . S
C319 C318 1.384 . S
C319 C322 1.382 . S
C320 C318 1.384 . S
C320 C321 1.381 . S
C320 H347 0.930 . S
C321 C320 1.381 . S
C321 C323 1.381 . S
C321 C324 1.487 . S
C322 C319 1.382 . S
C322 C323 1.387 . S
C322 H348 0.930 . S
C323 C321 1.381 . S
C323 C322 1.387 . S
C323 H349 0.931 . S
C324 C321 1.487 . S
C324 C331 1.399 . S
C324 N362 1.343 1_556 S
C325 C326 1.384 . S
C325 C327 1.384 . S
C325 H350 0.931 . S
C326 C325 1.384 . S
C326 C329 1.382 . S
C327 C325 1.384 . S
C327 C328 1.381 . S
C327 H351 0.930 . S
C328 C327 1.381 . S
C328 C330 1.381 . S
C328 C331 1.487 . S
C329 C326 1.382 . S
C329 C330 1.387 . S
C329 H352 0.930 . S
C330 C328 1.381 . S
C330 C329 1.387 . S
C330 H353 0.931 . S
C331 C324 1.399 . S
C331 C328 1.487 . S
C331 N363 1.343 1_556 S
C332 C333 1.384 . S
C332 C334 1.384 . S
C332 H354 0.931 . S
C333 C332 1.384 . S
C333 C336 1.382 . S
C334 C332 1.384 . S
C334 C335 1.381 . S
C334 H355 0.930 . S
C335 C334 1.381 . S
C335 C337 1.381 . S
C335 C338 1.487 . S
C336 C333 1.382 . S
C336 C337 1.387 . S
C336 H356 0.930 . S
C337 C335 1.381 . S
C337 C336 1.387 . S
C337 H357 0.931 . S
C338 C335 1.487 . S
C338 C345 1.399 . S
C338 N363 1.343 . S
C339 C340 1.384 . S
C339 C341 1.384 . S
C339 H358 0.931 . S
C340 C339 1.384 . S
C340 C343 1.382 . S
C341 C339 1.384 . S
C341 C342 1.381 . S
C341 H359 0.930 . S
C342 C341 1.381 . S
C342 C344 1.381 . S
C342 C345 1.487 . S
C343 C340 1.382 . S
C343 C344 1.387 . S
C343 H360 0.930 . S
C344 C342 1.381 . S
C344 C343 1.387 . S
C344 H361 0.931 . S
C345 C338 1.399 . S
C345 C342 1.487 . S
C345 N362 1.343 . S
H346 C318 0.931 . S
H347 C320 0.930 . S
H348 C322 0.930 . S
H349 C323 0.931 . S
H350 C325 0.931 . S
H351 C327 0.930 . S
H352 C329 0.930 . S
H353 C330 0.931 . S
H354 C332 0.931 . S
H355 C334 0.930 . S
H356 C336 0.930 . S
H357 C337 0.931 . S
H358 C339 0.931 . S
H359 C341 0.930 . S
H360 C343 0.930 . S
H361 C344 0.931 . S
N362 C324 1.343 1_554 S
N362 C345 1.343 . S
N363 C331 1.343 1_554 S
N363 C338 1.343 . S
H364 C370 0.930 . S
H365 C373 0.930 . S
H366 C374 0.930 . S
H367 C375 0.930 . S
H368 C378 0.930 . S
H369 C379 0.930 . S
C370 H364 0.930 . S
C370 C371 1.355 . S
C370 C372 1.415 . S
C371 C370 1.355 . S
C371 C373 1.419 . S
C372 C370 1.415 . S
C372 C377 1.425 . S
C372 C379 1.409 . S
C373 H365 0.930 . S
C373 C371 1.419 . S
C373 C374 1.362 . S
C374 H366 0.930 . S
C374 C373 1.362 . S
C374 C377 1.409 . S
C375 H367 0.930 . S
C375 C376 1.355 . S
C375 C377 1.415 . S
C376 C375 1.355 . S
C376 C378 1.419 . S
C377 C372 1.425 . S
C377 C374 1.409 . S
C377 C375 1.415 . S
C378 H368 0.930 . S
C378 C376 1.419 . S
C378 C379 1.362 . S
C379 H369 0.930 . S
C379 C372 1.409 . S
C379 C378 1.362 . S
H380 C386 0.930 . S
H381 C389 0.930 . S
H382 C390 0.930 . S
H383 C391 0.930 . S
H384 C394 0.930 . S
H385 C395 0.930 . S
C386 H380 0.930 . S
C386 C387 1.355 . S
C386 C388 1.415 . S
C387 C386 1.355 . S
C387 C389 1.419 . S
C388 C386 1.415 . S
C388 C393 1.425 . S
C388 C395 1.409 . S
C389 H381 0.930 . S
C389 C387 1.419 . S
C389 C390 1.362 . S
C390 H382 0.930 . S
C390 C389 1.362 . S
C390 C393 1.409 . S
C391 H383 0.930 . S
C391 C392 1.355 . S
C391 C393 1.415 . S
C392 C391 1.355 . S
C392 C394 1.419 . S
C393 C388 1.425 . S
C393 C390 1.409 . S
C393 C391 1.415 . S
C394 H384 0.930 . S
C394 C392 1.419 . S
C394 C395 1.362 . S
C395 H385 0.930 . S
C395 C388 1.409 . S
C395 C394 1.362 . S
H396 C402 0.930 . S
H397 C405 0.930 . S
H398 C406 0.930 . S
H399 C407 0.930 . S
H400 C410 0.930 . S
H401 C411 0.930 . S
C402 H396 0.930 . S
C402 C403 1.355 . S
C402 C404 1.415 . S
C403 C402 1.355 . S
C403 C405 1.419 . S
C404 C402 1.415 . S
C404 C409 1.425 . S
C404 C411 1.409 . S
C405 H397 0.930 . S
C405 C403 1.419 . S
C405 C406 1.362 . S
C406 H398 0.930 . S
C406 C405 1.362 . S
C406 C409 1.409 . S
C407 H399 0.930 . S
C407 C408 1.355 . S
C407 C409 1.415 . S
C408 C407 1.355 . S
C408 C410 1.419 . S
C409 C404 1.425 . S
C409 C406 1.409 . S
C409 C407 1.415 . S
C410 H400 0.930 . S
C410 C408 1.419 . S
C410 C411 1.362 . S
C411 H401 0.930 . S
C411 C404 1.409 . S
C411 C410 1.362 . S
H412 C418 0.930 . S
H413 C421 0.930 . S
H414 C422 0.930 . S
H415 C423 0.930 . S
H416 C426 0.930 . S
H417 C427 0.930 . S
C418 H412 0.930 . S
C418 C419 1.355 . S
C418 C420 1.415 . S
C419 C418 1.355 . S
C419 C421 1.419 . S
C420 C418 1.415 . S
C420 C425 1.425 . S
C420 C427 1.409 . S
C421 H413 0.930 . S
C421 C419 1.419 . S
C421 C422 1.362 . S
C422 H414 0.930 . S
C422 C421 1.362 . S
C422 C425 1.409 . S
C423 H415 0.930 . S
C423 C424 1.355 . S
C423 C425 1.415 . S
C424 C423 1.355 . S
C424 C426 1.419 . S
C425 C420 1.425 . S
C425 C422 1.409 . S
C425 C423 1.415 . S
C426 H416 0.930 . S
C426 C424 1.419 . S
C426 C427 1.362 . S
C427 H417 0.930 . S
C427 C420 1.409 . S
C427 C426 1.362 . S
H428 C434 0.930 . S
H429 C437 0.930 . S
H430 C438 0.930 . S
H431 C439 0.930 . S
H432 C442 0.930 . S
H433 C443 0.930 . S
C434 H428 0.930 . S
C434 C435 1.355 . S
C434 C436 1.415 . S
C435 C434 1.355 . S
C435 C437 1.419 . S
C436 C434 1.415 . S
C436 C441 1.425 . S
C436 C443 1.409 . S
C437 H429 0.930 . S
C437 C435 1.419 . S
C437 C438 1.362 . S
C438 H430 0.930 . S
C438 C437 1.362 . S
C438 C441 1.409 . S
C439 H431 0.930 . S
C439 C440 1.355 . S
C439 C441 1.415 . S
C440 C439 1.355 . S
C440 C442 1.419 . S
C441 C436 1.425 . S
C441 C438 1.409 . S
C441 C439 1.415 . S
C442 H432 0.930 . S
C442 C440 1.419 . S
C442 C443 1.362 . S
C443 H433 0.930 . S
C443 C436 1.409 . S
C443 C442 1.362 . S
H444 C450 0.930 . S
H445 C453 0.930 . S
H446 C454 0.930 . S
H447 C455 0.930 . S
H448 C458 0.930 . S
H449 C459 0.930 . S
C450 H444 0.930 . S
C450 C451 1.355 . S
C450 C452 1.415 . S
C451 C450 1.355 . S
C451 C453 1.419 . S
C452 C450 1.415 . S
C452 C457 1.425 . S
C452 C459 1.409 . S
C453 H445 0.930 . S
C453 C451 1.419 . S
C453 C454 1.362 . S
C454 H446 0.930 . S
C454 C453 1.362 . S
C454 C457 1.409 . S
C455 H447 0.930 . S
C455 C456 1.355 . S
C455 C457 1.415 . S
C456 C455 1.355 . S
C456 C458 1.419 . S
C457 C452 1.425 . S
C457 C454 1.409 . S
C457 C455 1.415 . S
C458 H448 0.930 . S
C458 C456 1.419 . S
C458 C459 1.362 . S
C459 H449 0.930 . S
C459 C452 1.409 . S
C459 C458 1.362 . S
H460 C466 0.930 . S
H461 C469 0.930 . S
H462 C470 0.930 . S
H463 C471 0.930 . S
H464 C474 0.930 . S
H465 C475 0.930 . S
C466 H460 0.930 . S
C466 C467 1.355 . S
C466 C468 1.415 . S
C467 C466 1.355 . S
C467 C469 1.419 . S
C468 C466 1.415 . S
C468 C473 1.425 . S
C468 C475 1.409 . S
C469 H461 0.930 . S
C469 C467 1.419 . S
C469 C470 1.362 . S
C470 H462 0.930 . S
C470 C469 1.362 . S
C470 C473 1.409 . S
C471 H463 0.930 . S
C471 C472 1.355 . S
C471 C473 1.415 . S
C472 C471 1.355 . S
C472 C474 1.419 . S
C473 C468 1.425 . S
C473 C470 1.409 . S
C473 C471 1.415 . S
C474 H464 0.930 . S
C474 C472 1.419 . S
C474 C475 1.362 . S
C475 H465 0.930 . S
C475 C468 1.409 . S
C475 C474 1.362 . S
H476 C482 0.930 . S
H477 C485 0.930 . S
H478 C486 0.930 . S
H479 C487 0.930 . S
H480 C490 0.930 . S
H481 C491 0.930 . S
C482 H476 0.930 . S
C482 C483 1.355 . S
C482 C484 1.415 . S
C483 C482 1.355 . S
C483 C485 1.419 . S
C484 C482 1.415 . S
C484 C489 1.425 . S
C484 C491 1.409 . S
C485 H477 0.930 . S
C485 C483 1.419 . S
C485 C486 1.362 . S
C486 H478 0.930 . S
C486 C485 1.362 . S
C486 C489 1.409 . S
C487 H479 0.930 . S
C487 C488 1.355 . S
C487 C489 1.415 . S
C488 C487 1.355 . S
C488 C490 1.419 . S
C489 C484 1.425 . S
C489 C486 1.409 . S
C489 C487 1.415 . S
C490 H480 0.930 . S
C490 C488 1.419 . S
C490 C491 1.362 . S
C491 H481 0.930 . S
C491 C484 1.409 . S
C491 C490 1.362 . S
H492 C498 0.930 . S
H493 C501 0.930 . S
H494 C502 0.930 . S
H495 C503 0.927 1_545 S
H496 C506 0.930 1_545 S
H497 C507 0.930 . S
C498 H492 0.930 . S
C498 C499 1.355 . S
C498 C500 1.415 . S
C499 C498 1.355 . S
C499 C501 1.419 . S
C500 C498 1.415 . S
C500 C505 1.425 . S
C500 C507 1.409 . S
C501 H493 0.930 . S
C501 C499 1.419 . S
C501 C502 1.362 . S
C502 H494 0.930 . S
C502 C501 1.362 . S
C502 C505 1.409 . S
C503 H495 0.927 1_565 S
C503 C504 1.355 1_565 S
C503 C505 1.415 . S
C504 C503 1.355 1_545 S
C504 C506 1.419 1_545 S
C505 C500 1.425 . S
C505 C502 1.409 . S
C505 C503 1.415 . S
C506 H496 0.930 1_565 S
C506 C504 1.419 1_565 S
C506 C507 1.362 . S
C507 H497 0.930 . S
C507 C500 1.409 . S
C507 C506 1.362 . S
H508 C514 0.930 . S
H509 C517 0.930 . S
H510 C518 0.930 . S
H511 C519 0.930 . S
H512 C522 0.930 . S
H513 C523 0.930 . S
C514 H508 0.930 . S
C514 C515 1.355 . S
C514 C516 1.415 . S
C515 C514 1.355 . S
C515 C517 1.419 . S
C516 C514 1.415 . S
C516 C521 1.425 . S
C516 C523 1.409 . S
C517 H509 0.930 . S
C517 C515 1.419 . S
C517 C518 1.362 . S
C518 H510 0.930 . S
C518 C517 1.362 . S
C518 C521 1.409 . S
C519 H511 0.930 . S
C519 C520 1.355 . S
C519 C521 1.415 . S
C520 C519 1.355 . S
C520 C522 1.419 . S
C521 C516 1.425 . S
C521 C518 1.409 . S
C521 C519 1.415 . S
C522 H512 0.930 . S
C522 C520 1.419 . S
C522 C523 1.362 . S
C523 H513 0.930 . S
C523 C516 1.409 . S
C523 C522 1.362 . S
H524 C530 0.930 . S
H525 C533 0.930 . S
H526 C534 0.930 . S
H527 C535 0.930 . S
H528 C538 0.930 . S
H529 C539 0.930 . S
C530 H524 0.930 . S
C530 C531 1.355 . S
C530 C532 1.415 . S
C531 C530 1.355 . S
C531 C533 1.419 . S
C532 C530 1.415 . S
C532 C537 1.425 . S
C532 C539 1.409 . S
C533 H525 0.930 . S
C533 C531 1.419 . S
C533 C534 1.362 . S
C534 H526 0.930 . S
C534 C533 1.362 . S
C534 C537 1.409 . S
C535 H527 0.930 . S
C535 C536 1.355 . S
C535 C537 1.415 . S
C536 C535 1.355 . S
C536 C538 1.419 . S
C537 C532 1.425 . S
C537 C534 1.409 . S
C537 C535 1.415 . S
C538 H528 0.930 . S
C538 C536 1.419 . S
C538 C539 1.362 . S
C539 H529 0.930 . S
C539 C532 1.409 . S
C539 C538 1.362 . S
H540 C546 0.930 . S
H541 C549 0.930 . S
H542 C550 0.930 . S
H543 C551 0.930 . S
H544 C554 0.930 . S
H545 C555 0.930 . S
C546 H540 0.930 . S
C546 C547 1.355 . S
C546 C548 1.415 . S
C547 C546 1.355 . S
C547 C549 1.419 . S
C548 C546 1.415 . S
C548 C553 1.425 . S
C548 C555 1.409 . S
C549 H541 0.930 . S
C549 C547 1.419 . S
C549 C550 1.362 . S
C550 H542 0.930 . S
C550 C549 1.362 . S
C550 C553 1.409 . S
C551 H543 0.930 . S
C551 C552 1.355 . S
C551 C553 1.415 . S
C552 C551 1.355 . S
C552 C554 1.419 . S
C553 C548 1.425 . S
C553 C550 1.409 . S
C553 C551 1.415 . S
C554 H544 0.930 . S
C554 C552 1.419 . S
C554 C555 1.362 . S
C555 H545 0.930 . S
C555 C548 1.409 . S
C555 C554 1.362 . S
H556 C562 0.930 . S
H557 C565 0.930 . S
H558 C566 0.930 . S
H559 C567 0.930 . S
H560 C570 0.930 . S
H561 C571 0.930 . S
C562 H556 0.930 . S
C562 C563 1.355 . S
C562 C564 1.415 . S
C563 C562 1.355 . S
C563 C565 1.419 . S
C564 C562 1.415 . S
C564 C569 1.425 . S
C564 C571 1.409 . S
C565 H557 0.930 . S
C565 C563 1.419 . S
C565 C566 1.362 . S
C566 H558 0.930 . S
C566 C565 1.362 . S
C566 C569 1.409 . S
C567 H559 0.930 . S
C567 C568 1.355 . S
C567 C569 1.415 . S
C568 C567 1.355 . S
C568 C570 1.419 . S
C569 C564 1.425 . S
C569 C566 1.409 . S
C569 C567 1.415 . S
C570 H560 0.930 . S
C570 C568 1.419 . S
C570 C571 1.362 . S
C571 H561 0.930 . S
C571 C564 1.409 . S
C571 C570 1.362 . S
H572 C578 0.930 . S
H573 C581 0.930 . S
H574 C582 0.930 . S
H575 C583 0.930 . S
H576 C586 0.930 . S
H577 C587 0.930 . S
C578 H572 0.930 . S
C578 C579 1.355 . S
C578 C580 1.415 . S
C579 C578 1.355 . S
C579 C581 1.419 . S
C580 C578 1.415 . S
C580 C585 1.425 . S
C580 C587 1.409 . S
C581 H573 0.930 . S
C581 C579 1.419 . S
C581 C582 1.362 . S
C582 H574 0.930 . S
C582 C581 1.362 . S
C582 C585 1.409 . S
C583 H575 0.930 . S
C583 C584 1.355 . S
C583 C585 1.415 . S
C584 C583 1.355 . S
C584 C586 1.419 . S
C585 C580 1.425 . S
C585 C582 1.409 . S
C585 C583 1.415 . S
C586 H576 0.930 . S
C586 C584 1.419 . S
C586 C587 1.362 . S
C587 H577 0.930 . S
C587 C580 1.409 . S
C587 C586 1.362 . S
H588 C594 0.930 . S
H589 C597 0.930 . S
H590 C598 0.930 . S
H591 C599 0.930 . S
H592 C602 0.930 . S
H593 C603 0.930 . S
C594 H588 0.930 . S
C594 C595 1.355 . S
C594 C596 1.415 . S
C595 C594 1.355 . S
C595 C597 1.419 . S
C596 C594 1.415 . S
C596 C601 1.425 . S
C596 C603 1.409 . S
C597 H589 0.930 . S
C597 C595 1.419 . S
C597 C598 1.362 . S
C598 H590 0.930 . S
C598 C597 1.362 . S
C598 C601 1.409 . S
C599 H591 0.930 . S
C599 C600 1.355 . S
C599 C601 1.415 . S
C600 C599 1.355 . S
C600 C602 1.419 . S
C601 C596 1.425 . S
C601 C598 1.409 . S
C601 C599 1.415 . S
C602 H592 0.930 . S
C602 C600 1.419 . S
C602 C603 1.362 . S
C603 H593 0.930 . S
C603 C596 1.409 . S
C603 C602 1.362 . S
H604 C610 0.930 . S
H605 C613 0.930 . S
H606 C614 0.930 . S
H607 C615 0.930 . S
H608 C618 0.930 . S
H609 C619 0.930 . S
C610 H604 0.930 . S
C610 C611 1.355 . S
C610 C612 1.415 . S
C611 C610 1.355 . S
C611 C613 1.419 . S
C612 C610 1.415 . S
C612 C617 1.425 . S
C612 C619 1.409 . S
C613 H605 0.930 . S
C613 C611 1.419 . S
C613 C614 1.362 . S
C614 H606 0.930 . S
C614 C613 1.362 . S
C614 C617 1.409 . S
C615 H607 0.930 . S
C615 C616 1.355 . S
C615 C617 1.415 . S
C616 C615 1.355 . S
C616 C618 1.419 . S
C617 C612 1.425 . S
C617 C614 1.409 . S
C617 C615 1.415 . S
C618 H608 0.930 . S
C618 C616 1.419 . S
C618 C619 1.362 . S
C619 H609 0.930 . S
C619 C612 1.409 . S
C619 C618 1.362 . S
H620 C626 0.930 . S
H621 C629 0.930 . S
H622 C630 0.930 . S
H623 C631 0.930 . S
H624 C634 0.930 . S
H625 C635 0.930 . S
C626 H620 0.930 . S
C626 C627 1.355 . S
C626 C628 1.415 . S
C627 C626 1.355 . S
C627 C629 1.419 . S
C628 C626 1.415 . S
C628 C633 1.425 . S
C628 C635 1.409 . S
C629 H621 0.930 . S
C629 C627 1.419 . S
C629 C630 1.362 . S
C630 H622 0.930 . S
C630 C629 1.362 . S
C630 C633 1.409 . S
C631 H623 0.930 . S
C631 C632 1.355 . S
C631 C633 1.415 . S
C632 C631 1.355 . S
C632 C634 1.419 . S
C633 C628 1.425 . S
C633 C630 1.409 . S
C633 C631 1.415 . S
C634 H624 0.930 . S
C634 C632 1.419 . S
C634 C635 1.362 . S
C635 H625 0.930 . S
C635 C628 1.409 . S
C635 C634 1.362 . S
H636 C642 0.930 . S
H637 C645 0.930 . S
H638 C646 0.930 . S
H639 C647 0.930 . S
H640 C650 0.930 . S
H641 C651 0.930 . S
C642 H636 0.930 . S
C642 C643 1.355 . S
C642 C644 1.415 . S
C643 C642 1.355 . S
C643 C645 1.419 . S
C644 C642 1.415 . S
C644 C649 1.425 . S
C644 C651 1.409 . S
C645 H637 0.930 . S
C645 C643 1.419 . S
C645 C646 1.362 . S
C646 H638 0.930 . S
C646 C645 1.362 . S
C646 C649 1.409 . S
C647 H639 0.930 . S
C647 C648 1.355 . S
C647 C649 1.415 . S
C648 C647 1.355 . S
C648 C650 1.419 . S
C649 C644 1.425 . S
C649 C646 1.409 . S
C649 C647 1.415 . S
C650 H640 0.930 . S
C650 C648 1.419 . S
C650 C651 1.362 . S
C651 H641 0.930 . S
C651 C644 1.409 . S
C651 C650 1.362 . S
H652 C658 0.930 . S
H653 C661 0.930 . S
H654 C662 0.930 . S
H655 C663 0.930 . S
H656 C666 0.930 . S
H657 C667 0.930 . S
C658 H652 0.930 . S
C658 C659 1.355 . S
C658 C660 1.415 . S
C659 C658 1.355 . S
C659 C661 1.419 . S
C660 C658 1.415 . S
C660 C665 1.425 . S
C660 C667 1.409 . S
C661 H653 0.930 . S
C661 C659 1.419 . S
C661 C662 1.362 . S
C662 H654 0.930 . S
C662 C661 1.362 . S
C662 C665 1.409 . S
C663 H655 0.930 . S
C663 C664 1.355 . S
C663 C665 1.415 . S
C664 C663 1.355 . S
C664 C666 1.419 . S
C665 C660 1.425 . S
C665 C662 1.409 . S
C665 C663 1.415 . S
C666 H656 0.930 . S
C666 C664 1.419 . S
C666 C667 1.362 . S
C667 H657 0.930 . S
C667 C660 1.409 . S
C667 C666 1.362 . S
H668 C674 0.930 . S
H669 C677 0.930 . S
H670 C678 0.930 . S
H671 C679 0.930 . S
H672 C682 0.930 . S
H673 C683 0.930 . S
C674 H668 0.930 . S
C674 C675 1.355 . S
C674 C676 1.415 . S
C675 C674 1.355 . S
C675 C677 1.419 . S
C676 C674 1.415 . S
C676 C681 1.425 . S
C676 C683 1.409 . S
C677 H669 0.930 . S
C677 C675 1.419 . S
C677 C678 1.362 . S
C678 H670 0.930 . S
C678 C677 1.362 . S
C678 C681 1.409 . S
C679 H671 0.930 . S
C679 C680 1.355 . S
C679 C681 1.415 . S
C680 C679 1.355 . S
C680 C682 1.419 . S
C681 C676 1.425 . S
C681 C678 1.409 . S
C681 C679 1.415 . S
C682 H672 0.930 . S
C682 C680 1.419 . S
C682 C683 1.362 . S
C683 H673 0.930 . S
C683 C676 1.409 . S
C683 C682 1.362 . S
H684 C690 0.930 . S
H685 C693 0.930 . S
H686 C694 0.930 . S
H687 C695 0.930 . S
H688 C698 0.930 . S
H689 C699 0.930 . S
C690 H684 0.930 . S
C690 C691 1.355 . S
C690 C692 1.415 . S
C691 C690 1.355 . S
C691 C693 1.419 . S
C692 C690 1.415 . S
C692 C697 1.425 . S
C692 C699 1.409 . S
C693 H685 0.930 . S
C693 C691 1.419 . S
C693 C694 1.362 . S
C694 H686 0.930 . S
C694 C693 1.362 . S
C694 C697 1.409 . S
C695 H687 0.930 . S
C695 C696 1.355 . S
C695 C697 1.415 . S
C696 C695 1.355 . S
C696 C698 1.419 . S
C697 C692 1.425 . S
C697 C694 1.409 . S
C697 C695 1.415 . S
C698 H688 0.930 . S
C698 C696 1.419 . S
C698 C699 1.362 . S
C699 H689 0.930 . S
C699 C692 1.409 . S
C699 C698 1.362 . S
H700 C706 0.930 . S
H701 C709 0.930 . S
H702 C710 0.930 . S
H703 C711 0.930 . S
H704 C714 0.930 . S
H705 C715 0.930 . S
C706 H700 0.930 . S
C706 C707 1.355 . S
C706 C708 1.415 . S
C707 C706 1.355 . S
C707 C709 1.419 . S
C708 C706 1.415 . S
C708 C713 1.425 . S
C708 C715 1.409 . S
C709 H701 0.930 . S
C709 C707 1.419 . S
C709 C710 1.362 . S
C710 H702 0.930 . S
C710 C709 1.362 . S
C710 C713 1.409 . S
C711 H703 0.930 . S
C711 C712 1.355 . S
C711 C713 1.415 . S
C712 C711 1.355 . S
C712 C714 1.419 . S
C713 C708 1.425 . S
C713 C710 1.409 . S
C713 C711 1.415 . S
C714 H704 0.930 . S
C714 C712 1.419 . S
C714 C715 1.362 . S
C715 H705 0.930 . S
C715 C708 1.409 . S
C715 C714 1.362 . S
H716 C722 0.930 . S
H717 C725 0.930 . S
H718 C726 0.930 . S
H719 C727 0.963 . S
H720 C730 0.930 . S
H721 C731 0.930 . S
C722 H716 0.930 . S
C722 C723 1.355 . S
C722 C724 1.415 . S
C723 C722 1.355 . S
C723 C725 1.419 . S
C724 C722 1.415 . S
C724 C729 1.425 . S
C724 C731 1.409 . S
C725 H717 0.930 . S
C725 C723 1.419 . S
C725 C726 1.362 . S
C726 H718 0.930 . S
C726 C725 1.362 . S
C726 C729 1.409 . S
C727 H719 0.963 . S
C727 C728 1.348 1_565 S
C727 C729 1.415 . S
C728 C727 1.348 1_545 S
C728 C730 1.388 1_545 S
C729 C724 1.425 . S
C729 C726 1.409 . S
C729 C727 1.415 . S
C730 H720 0.930 . S
C730 C728 1.388 1_565 S
C730 C731 1.362 . S
C731 H721 0.930 . S
C731 C724 1.409 . S
C731 C730 1.362 . S
H732 C738 0.930 . S
H733 C741 0.930 . S
H734 C742 0.930 . S
H735 C743 0.930 . S
H736 C746 0.930 . S
H737 C747 0.930 . S
C738 H732 0.930 . S
C738 C739 1.355 . S
C738 C740 1.415 . S
C739 C738 1.355 . S
C739 C741 1.419 . S
C740 C738 1.415 . S
C740 C745 1.425 . S
C740 C747 1.409 . S
C741 H733 0.930 . S
C741 C739 1.419 . S
C741 C742 1.362 . S
C742 H734 0.930 . S
C742 C741 1.362 . S
C742 C745 1.409 . S
C743 H735 0.930 . S
C743 C744 1.355 . S
C743 C745 1.415 . S
C744 C743 1.355 . S
C744 C746 1.419 . S
C745 C740 1.425 . S
C745 C742 1.409 . S
C745 C743 1.415 . S
C746 H736 0.930 . S
C746 C744 1.419 . S
C746 C747 1.362 . S
C747 H737 0.930 . S
C747 C740 1.409 . S
C747 C746 1.362 . S
C376 C96 1.535 . S
C371 C5 1.324 . S
C392 C149 1.505 . S
C387 C16 1.215 . S
C408 C110 1.697 . S
C403 C30 1.694 . S
C424 C135 1.598 . S
C419 C40 1.570 . S
C440 C181 1.510 . S
C435 C8 1.503 . S
C456 C227 1.468 . S
C451 C18 1.434 . S
C467 C29 1.751 . S
C472 C294 1.752 . S
C488 C326 1.540 . S
C483 C38 1.232 . S
C504 C195 1.431 . S
C499 C19 1.422 . S
C515 C27 1.502 . S
C520 C241 1.628 . S
C536 C280 1.589 . S
C531 C41 1.576 . S
C552 C340 1.533 . S
C547 C7 1.472 . S
C563 C52 1.554 . S
C568 C156 1.581 . S
C584 C89 1.591 . S
C579 C62 1.533 . S
C595 C74 1.391 . S
C600 C142 1.395 . S
C611 C82 1.152 . S
C616 C103 1.417 . S
C632 C287 1.790 . S
C627 C51 1.661 . S
C648 C333 1.601 . S
C643 C60 1.281 . S
C664 C188 1.538 . S
C659 C71 1.282 . S
C675 C84 1.486 . S
C680 C248 1.525 . S
C696 C273 1.670 . S
C691 C63 1.683 . S
C712 C319 1.479 . S
C707 C73 1.448 . S
C728 C202 1.622 . S
C723 C85 1.578 . S
C739 C49 1.277 . S
C744 C234 1.652 . S
