# Generated by pormake.
# Topology anh, (6,3)-cn, num edge types: 1
# Building blocks:
#     Node 0, Type 0, BuildingBlock: MIFKUJ_clean_sbu_0, # of connection points: 6
#     Node 1, Type 0, BuildingBlock: MIFKUJ_clean_sbu_0, # of connection points: 6
#     Node 2, Type 0, BuildingBlock: MIFKUJ_clean_sbu_0, # of connection points: 6
#     Node 3, Type 1, BuildingBlock: BETDIP_clean_linker_0, # of connection points: 3
#     Node 4, Type 1, BuildingBlock: BETDIP_clean_linker_0, # of connection points: 3
#     Node 5, Type 1, BuildingBlock: BETDIP_clean_linker_0, # of connection points: 3
#     Node 6, Type 1, BuildingBlock: BETDIP_clean_linker_0, # of connection points: 3
#     Node 7, Type 1, BuildingBlock: BETDIP_clean_linker_0, # of connection points: 3
#     Node 8, Type 1, BuildingBlock: BETDIP_clean_linker_0, # of connection points: 3
#     Edge 9, Type (0, 1), BuildingBlock: MIFKUJ_clean_linker_0, # of connection points: 2
#     Edge 10, Type (0, 1), BuildingBlock: MIFKUJ_clean_linker_0, # of connection points: 2
#     Edge 11, Type (0, 1), BuildingBlock: MIFKUJ_clean_linker_0, # of connection points: 2
#     Edge 12, Type (0, 1), BuildingBlock: MIFKUJ_clean_linker_0, # of connection points: 2
#     Edge 13, Type (0, 1), BuildingBlock: MIFKUJ_clean_linker_0, # of connection points: 2
#     Edge 14, Type (0, 1), BuildingBlock: MIFKUJ_clean_linker_0, # of connection points: 2
#     Edge 15, Type (0, 1), BuildingBlock: MIFKUJ_clean_linker_0, # of connection points: 2
#     Edge 16, Type (0, 1), BuildingBlock: MIFKUJ_clean_linker_0, # of connection points: 2
#     Edge 17, Type (0, 1), BuildingBlock: MIFKUJ_clean_linker_0, # of connection points: 2
#     Edge 18, Type (0, 1), BuildingBlock: MIFKUJ_clean_linker_0, # of connection points: 2
#     Edge 19, Type (0, 1), BuildingBlock: MIFKUJ_clean_linker_0, # of connection points: 2
#     Edge 20, Type (0, 1), BuildingBlock: MIFKUJ_clean_linker_0, # of connection points: 2
#     Edge 21, Type (0, 1), BuildingBlock: MIFKUJ_clean_linker_0, # of connection points: 2
#     Edge 22, Type (0, 1), BuildingBlock: MIFKUJ_clean_linker_0, # of connection points: 2
#     Edge 23, Type (0, 1), BuildingBlock: MIFKUJ_clean_linker_0, # of connection points: 2
#     Edge 24, Type (0, 1), BuildingBlock: MIFKUJ_clean_linker_0, # of connection points: 2
#     Edge 25, Type (0, 1), BuildingBlock: MIFKUJ_clean_linker_0, # of connection points: 2
#     Edge 26, Type (0, 1), BuildingBlock: MIFKUJ_clean_linker_0, # of connection points: 2
# Relax obj value: 0.085
# Max RMSD: 0.182
# Mean RMSD: 0.116
data_MOF--net-anh--node1-MIFKUJ_clean_sbu_0--node2-BETDIP_clean_linker_0--edge1-MIFKUJ_clean_linker_0
_symmetry_space_group_name_H-M    P1
_symmetry_Int_Tables_number       1
_symmetry_cell_setting            triclinic
loop_
_symmetry_equiv_pos_as_xyz
'x, y, z'
_cell_length_a     40.484376
_cell_length_b     40.61578
_cell_length_c     62.154971
_cell_angle_alpha  97.602079
_cell_angle_beta   90.710339
_cell_angle_gamma 119.89325
loop_
_atom_site_label
_atom_site_type_symbol
_atom_site_fract_x
_atom_site_fract_y
_atom_site_fract_z
_atom_type_partial_charge
Zn0 Zn 0.07493 0.60992 0.16893 0.0
Zn1 Zn 0.97074 0.53269 0.15819 0.0
C2 C 0.13809 0.60141 0.17913 0.0
O3 O 0.14133 0.6272 0.19549 0.0
C4 C 0.9208 0.54866 0.13413 0.0
O5 O 0.91897 0.52039 0.12017 0.0
O6 O 0.1127 0.66685 0.17355 0.0
O7 O 0.04379 0.59962 0.14062 0.0
O8 O 0.00904 0.53656 0.13696 0.0
C9 C 0.13711 0.67748 0.15952 0.0
O10 O 0.13383 0.652 0.14296 0.0
O11 O 0.10917 0.5865 0.16512 0.0
C12 C 0.89691 0.47025 0.16165 0.0
O13 O 0.89319 0.49904 0.17101 0.0
O14 O 0.92886 0.47707 0.15482 0.0
O15 O 0.9892 0.54804 0.18974 0.0
O16 O 0.04941 0.59599 0.19664 0.0
O17 O 0.94425 0.56176 0.15109 0.0
C18 C 0.02427 0.5671 0.12862 0.0
C19 C 0.01782 0.57195 0.20303 0.0
Zn20 Zn 0.52086 0.07456 0.50407 0.0
Zn21 Zn 0.48258 0.96273 0.49778 0.0
C22 C 0.59887 0.12343 0.51223 0.0
O23 O 0.58551 0.13021 0.53041 0.0
C24 C 0.41158 0.90207 0.47727 0.0
O25 O 0.43503 0.89834 0.46407 0.0
O26 O 0.51164 0.11889 0.50574 0.0
O27 O 0.48588 0.0309 0.48154 0.0
O28 O 0.50433 0.98937 0.47217 0.0
C29 C 0.48866 0.12337 0.49406 0.0
O30 O 0.46405 0.09485 0.47926 0.0
O31 O 0.57558 0.09703 0.49722 0.0
C32 C 0.48262 0.89544 0.50716 0.0
O33 O 0.45056 0.88876 0.51543 0.0
O34 O 0.5021 0.92609 0.49914 0.0
O35 O 0.49686 0.99602 0.52747 0.0
O36 O 0.51689 0.05867 0.53347 0.0
O37 O 0.42525 0.9303 0.49279 0.0
C38 C 0.50193 0.01802 0.46839 0.0
C39 C 0.50799 0.02743 0.5404 0.0
Zn40 Zn 0.54216 0.48323 0.82706 0.0
Zn41 Zn 0.47166 0.53074 0.82585 0.0
C42 C 0.53353 0.41911 0.84249 0.0
O43 O 0.55762 0.44793 0.85734 0.0
C44 C 0.508 0.61277 0.82295 0.0
O45 O 0.53076 0.60686 0.81017 0.0
O46 O 0.59865 0.50468 0.8267 0.0
O47 O 0.52695 0.49605 0.79983 0.0
O48 O 0.49037 0.52193 0.79709 0.0
C49 C 0.61001 0.489 0.81186 0.0
O50 O 0.58456 0.46023 0.79748 0.0
O51 O 0.52018 0.42636 0.82626 0.0
C52 C 0.39802 0.49751 0.84111 0.0
O53 O 0.41909 0.51128 0.85985 0.0
O54 O 0.41441 0.49932 0.82365 0.0
O55 O 0.49411 0.52584 0.85324 0.0
O56 O 0.53322 0.5031 0.85629 0.0
O57 O 0.48191 0.58491 0.83091 0.0
C58 C 0.51057 0.50866 0.78858 0.0
C59 C 0.51431 0.5178 0.86481 0.0
H60 H 0.51566 0.03996 0.18974 0.0
H61 H 0.59459 0.10915 0.24604 0.0
H62 H 0.48234 0.01709 0.25398 0.0
H63 H 0.55041 0.0979 0.1764 0.0
C64 C 0.57961 0.10817 0.18275 0.0
C65 C 0.5222 0.04708 0.20726 0.0
C66 C 0.49461 0.02527 0.22079 0.0
C67 C 0.55819 0.07772 0.21642 0.0
C68 C 0.56664 0.08587 0.23906 0.0
C69 C 0.5394 0.06419 0.25268 0.0
C70 C 0.50342 0.03404 0.24347 0.0
N71 N 0.58684 0.10058 0.20341 0.0
H72 H 0.59333 0.54072 0.50321 0.0
H73 H 0.60305 0.6058 0.56586 0.0
H74 H 0.58666 0.49189 0.56132 0.0
H75 H 0.56205 0.57401 0.49491 0.0
C76 C 0.58049 0.60274 0.50391 0.0
C77 C 0.59398 0.54326 0.5208 0.0
C78 C 0.59091 0.5131 0.53092 0.0
C79 C 0.59854 0.57683 0.53351 0.0
C80 C 0.5998 0.5799 0.55625 0.0
C81 C 0.59516 0.54925 0.56651 0.0
C82 C 0.59131 0.51621 0.55369 0.0
N83 N 0.60072 0.6076 0.52398 0.0
H84 H 0.02 0.58251 0.83729 0.0
H85 H 0.06814 0.57848 0.89833 0.0
H86 H 0.96056 0.57474 0.89519 0.0
H87 H 0.12394 0.61794 0.88303 0.0
C88 C 0.11672 0.59919 0.86742 0.0
C89 C 0.01845 0.58119 0.85458 0.0
C90 C 0.98683 0.5791 0.86482 0.0
C91 C 0.04851 0.58228 0.86667 0.0
C92 C 0.04592 0.57934 0.88896 0.0
C93 C 0.01445 0.57696 0.8993 0.0
C94 C 0.98531 0.57743 0.88725 0.0
N95 N 0.08029 0.58456 0.85604 0.0
H96 H 0.02971 0.53635 0.49096 0.0
H97 H 0.95886 0.48118 0.43026 0.0
H98 H 0.0705 0.58066 0.43175 0.0
H99 H 0.91317 0.47958 0.45848 0.0
C100 C 0.92214 0.46321 0.46699 0.0
C101 C 0.02533 0.53482 0.47354 0.0
C102 C 0.05427 0.56149 0.46251 0.0
C103 C 0.99052 0.50622 0.46198 0.0
C104 C 0.98514 0.50407 0.43929 0.0
C105 C 0.01416 0.5304 0.42815 0.0
C106 C 0.04834 0.55923 0.44001 0.0
N107 N 0.96165 0.47874 0.47309 0.0
H108 H 0.5329 0.04576 0.8346 0.0
H109 H 0.55439 0.99766 0.77419 0.0
H110 H 0.52399 0.08512 0.77503 0.0
H111 H 0.51712 0.98626 0.84342 0.0
C112 C 0.53502 0.97735 0.83455 0.0
C113 C 0.53433 0.04414 0.81714 0.0
C114 C 0.52719 0.06842 0.80617 0.0
C115 C 0.54367 0.01822 0.80543 0.0
C116 C 0.54664 0.01735 0.78299 0.0
C117 C 0.53928 0.04114 0.77184 0.0
C118 C 0.52958 0.06654 0.78356 0.0
N119 N 0.55052 0.99253 0.81542 0.0
H120 H 0.49012 0.56338 0.1598 0.0
H121 H 0.54524 0.55319 0.10274 0.0
H122 H 0.43979 0.55378 0.0961 0.0
H123 H 0.53931 0.50183 0.12846 0.0
C124 C 0.56019 0.52859 0.13862 0.0
C125 C 0.49096 0.56096 0.14227 0.0
C126 C 0.46127 0.55899 0.12904 0.0
C127 C 0.52055 0.55747 0.13266 0.0
C128 C 0.52153 0.55432 0.10995 0.0
C129 C 0.49278 0.55333 0.09662 0.0
C130 C 0.46259 0.55532 0.1063 0.0
N131 N 0.54903 0.55617 0.14555 0.0
H132 H 0.21072 0.64391 0.19882 0.0
H133 H 0.26495 0.6345 0.19205 0.0
H134 H 0.19281 0.53287 0.1454 0.0
H135 H 0.13816 0.54238 0.15185 0.0
H136 H 0.24162 0.52394 0.17431 0.0
H137 H 0.24678 0.61047 0.12829 0.0
H138 H 0.24871 0.66798 0.11824 0.0
H139 H 0.3572 0.74012 0.1557 0.0
H140 H 0.35497 0.68322 0.16706 0.0
H141 H 0.38589 0.50802 0.11724 0.0
H142 H 0.33097 0.51335 0.12871 0.0
H143 H 0.40644 0.61758 0.17284 0.0
H144 H 0.46177 0.6123 0.16129 0.0
H145 H 0.3561 0.62518 0.14595 0.0
H146 H 0.34877 0.53771 0.19298 0.0
H147 H 0.34647 0.47938 0.20208 0.0
H148 H 0.24292 0.40857 0.15989 0.0
H149 H 0.24489 0.4665 0.15028 0.0
C150 C 0.20618 0.61932 0.18724 0.0
C151 C 0.17006 0.59383 0.17586 0.0
C152 C 0.23731 0.61412 0.18335 0.0
C153 C 0.23296 0.58316 0.16815 0.0
C154 C 0.19673 0.55696 0.1572 0.0
C155 C 0.1656 0.56247 0.16086 0.0
C156 C 0.26659 0.57887 0.16336 0.0
C157 C 0.2665 0.54588 0.16789 0.0
C158 C 0.29932 0.60793 0.15535 0.0
C159 C 0.30033 0.64243 0.1489 0.0
C160 C 0.27066 0.6386 0.13484 0.0
C161 C 0.27181 0.67114 0.12889 0.0
C162 C 0.30291 0.70771 0.13648 0.0
C163 C 0.33295 0.71179 0.15 0.0
C164 C 0.33165 0.6794 0.15631 0.0
C165 C 0.39071 0.53179 0.12962 0.0
C166 C 0.42806 0.55981 0.13837 0.0
C167 C 0.35931 0.53474 0.13621 0.0
C168 C 0.36455 0.56581 0.15167 0.0
C169 C 0.40176 0.59335 0.16089 0.0
C170 C 0.43327 0.59019 0.15443 0.0
C171 C 0.33132 0.5705 0.15714 0.0
C172 C 0.33137 0.60347 0.15259 0.0
C173 C 0.29848 0.54138 0.16498 0.0
C174 C 0.29717 0.50647 0.17076 0.0
C175 C 0.32568 0.50971 0.1855 0.0
C176 C 0.3244 0.47671 0.19078 0.0
C177 C 0.29462 0.44029 0.18153 0.0
C178 C 0.26599 0.4368 0.16702 0.0
C179 C 0.26715 0.46971 0.16167 0.0
H180 H 0.29367 0.41477 0.18564 0.0
H181 H 0.30387 0.73287 0.13177 0.0
H182 H 0.65127 0.18808 0.53909 0.0
H183 H 0.7119 0.239 0.5301 0.0
H184 H 0.6984 0.17118 0.46755 0.0
H185 H 0.6363 0.12037 0.47606 0.0
H186 H 0.77829 0.25192 0.52028 0.0
H187 H 0.7308 0.22937 0.42956 0.0
H188 H 0.6709 0.19697 0.40523 0.0
H189 H 0.61061 0.21393 0.45795 0.0
H190 H 0.67024 0.24708 0.48241 0.0
H191 H 0.93205 0.40467 0.477 0.0
H192 H 0.8821 0.34065 0.4827 0.0
H193 H 0.79657 0.3728 0.47375 0.0
H194 H 0.84625 0.43596 0.4669 0.0
H195 H 0.76971 0.30448 0.45413 0.0
H196 H 0.83341 0.36978 0.52585 0.0
H197 H 0.88836 0.40487 0.5538 0.0
H198 H 0.9089 0.31013 0.54475 0.0
H199 H 0.8543 0.27467 0.51656 0.0
C200 C 0.66132 0.18361 0.52351 0.0
C201 C 0.63862 0.15047 0.50812 0.0
C202 C 0.69622 0.21276 0.51844 0.0
C203 C 0.70939 0.20928 0.49797 0.0
C204 C 0.68836 0.17479 0.48326 0.0
C205 C 0.65299 0.14573 0.48818 0.0
C206 C 0.74291 0.24336 0.49154 0.0
C207 C 0.7766 0.26321 0.50569 0.0
C208 C 0.74049 0.2585 0.4727 0.0
C209 C 0.70489 0.24034 0.45783 0.0
C210 C 0.70481 0.22648 0.43588 0.0
C211 C 0.67092 0.20801 0.42207 0.0
C212 C 0.63695 0.20335 0.43003 0.0
C213 C 0.6369 0.21753 0.45177 0.0
C214 C 0.67075 0.23623 0.4656 0.0
C215 C 0.90258 0.39804 0.47638 0.0
C216 C 0.89288 0.42526 0.47175 0.0
C217 C 0.87404 0.36147 0.47965 0.0
C218 C 0.83549 0.35191 0.47893 0.0
C219 C 0.826 0.37929 0.47431 0.0
C220 C 0.85438 0.41547 0.47058 0.0
C221 C 0.80487 0.31373 0.48321 0.0
C222 C 0.77177 0.29296 0.46855 0.0
C223 C 0.80726 0.29851 0.50202 0.0
C224 C 0.8401 0.3198 0.51893 0.0
C225 C 0.84984 0.35657 0.52971 0.0
C226 C 0.88087 0.3765 0.54561 0.0
C227 C 0.90218 0.35979 0.55099 0.0
C228 C 0.89242 0.32307 0.54053 0.0
C229 C 0.86143 0.30304 0.5246 0.0
H230 H 0.9262 0.37526 0.56331 0.0
H231 H 0.61068 0.18872 0.41936 0.0
H232 H 0.46964 0.63539 0.85151 0.0
H233 H 0.47532 0.69862 0.85925 0.0
H234 H 0.56049 0.74033 0.8133 0.0
H235 H 0.55557 0.67734 0.80578 0.0
H236 H 0.58096 0.79164 0.84995 0.0
H237 H 0.46575 0.71299 0.8005 0.0
H238 H 0.40138 0.65706 0.78899 0.0
H239 H 0.35857 0.68841 0.84621 0.0
H240 H 0.42283 0.74429 0.85822 0.0
H241 H 0.5786 0.94841 0.81694 0.0
H242 H 0.57495 0.88823 0.82159 0.0
H243 H 0.49079 0.86866 0.86777 0.0
H244 H 0.49383 0.92915 0.8628 0.0
H245 H 0.46791 0.8062 0.83759 0.0
H246 H 0.5805 0.88914 0.88483 0.0
H247 H 0.6445 0.94529 0.89672 0.0
H248 H 0.69196 0.90628 0.84484 0.0
H249 H 0.62814 0.85017 0.83243 0.0
C250 C 0.48965 0.65802 0.84306 0.0
C251 C 0.51205 0.6513 0.82793 0.0
C252 C 0.49275 0.69411 0.84747 0.0
C253 C 0.51795 0.72403 0.83665 0.0
C254 C 0.54082 0.7176 0.82182 0.0
C255 C 0.53791 0.68157 0.81749 0.0
C256 C 0.52041 0.76202 0.84055 0.0
C257 C 0.55632 0.7949 0.84709 0.0
C258 C 0.48791 0.76605 0.83769 0.0
C259 C 0.44922 0.73256 0.83039 0.0
C260 C 0.44268 0.70779 0.81072 0.0
C261 C 0.4062 0.67613 0.80409 0.0
C262 C 0.37593 0.66911 0.8169 0.0
C263 C 0.38205 0.69384 0.83633 0.0
C264 C 0.41849 0.72552 0.84304 0.0
C265 C 0.55958 0.93161 0.82828 0.0
C266 C 0.53626 0.94332 0.83943 0.0
C267 C 0.55774 0.89727 0.83105 0.0
C268 C 0.53285 0.87407 0.84518 0.0
C269 C 0.51027 0.8862 0.85683 0.0
C270 C 0.51213 0.92073 0.85406 0.0
C271 C 0.52872 0.83597 0.84634 0.0
C272 C 0.49249 0.80301 0.84079 0.0
C273 C 0.56089 0.83182 0.8502 0.0
C274 C 0.59942 0.86552 0.85762 0.0
C275 C 0.60452 0.89266 0.87586 0.0
C276 C 0.64079 0.92447 0.88271 0.0
C277 C 0.67226 0.92938 0.87153 0.0
C278 C 0.66755 0.90244 0.85349 0.0
C279 C 0.63133 0.87059 0.84656 0.0
H280 H 0.70032 0.95403 0.87686 0.0
H281 H 0.34774 0.64454 0.81176 0.0
H282 H 0.85733 0.51416 0.10514 0.0
H283 H 0.80214 0.52285 0.10635 0.0
H284 H 0.8589 0.6139 0.16132 0.0
H285 H 0.91418 0.60455 0.16054 0.0
H286 H 0.79022 0.56739 0.16999 0.0
H287 H 0.83987 0.63138 0.1096 0.0
H288 H 0.86698 0.64232 0.07419 0.0
H289 H 0.76573 0.54166 0.0421 0.0
H290 H 0.73811 0.52987 0.07734 0.0
H291 H 0.62347 0.59127 0.1627 0.0
H292 H 0.69031 0.60582 0.16276 0.0
H293 H 0.65435 0.50198 0.11701 0.0
H294 H 0.588 0.48711 0.11717 0.0
H295 H 0.71796 0.56838 0.1053 0.0
H296 H 0.6738 0.50194 0.16781 0.0
H297 H 0.64746 0.49362 0.20354 0.0
H298 H 0.74108 0.60434 0.23187 0.0
H299 H 0.76771 0.61353 0.1962 0.0
C300 C 0.85857 0.53666 0.1172 0.0
C301 C 0.89031 0.55869 0.13272 0.0
C302 C 0.82687 0.5417 0.11785 0.0
C303 C 0.82628 0.56932 0.13381 0.0
C304 C 0.85856 0.59239 0.14884 0.0
C305 C 0.89026 0.58715 0.1483 0.0
C306 C 0.79078 0.57167 0.13574 0.0
C307 C 0.77496 0.56858 0.15591 0.0
C308 C 0.77044 0.57286 0.11742 0.0
C309 C 0.78698 0.57966 0.09616 0.0
C310 C 0.82346 0.61144 0.09501 0.0
C311 C 0.83888 0.61785 0.07496 0.0
C312 C 0.81806 0.59274 0.05591 0.0
C313 C 0.78178 0.56114 0.05687 0.0
C314 C 0.76619 0.55463 0.07687 0.0
C315 C 0.62993 0.57154 0.15278 0.0
C316 C 0.60062 0.53802 0.13994 0.0
C317 C 0.66803 0.57987 0.1528 0.0
C318 C 0.67727 0.55502 0.13981 0.0
C319 C 0.64792 0.52164 0.12705 0.0
C320 C 0.61002 0.51309 0.12726 0.0
C321 C 0.71731 0.56315 0.1393 0.0
C322 C 0.73382 0.56811 0.1194 0.0
C323 C 0.73847 0.56418 0.15789 0.0
C324 C 0.72245 0.55864 0.17929 0.0
C325 C 0.68856 0.52467 0.18161 0.0
C326 C 0.67363 0.51976 0.20186 0.0
C327 C 0.69251 0.54849 0.21995 0.0
C328 C 0.72643 0.58215 0.21784 0.0
C329 C 0.74146 0.58722 0.19761 0.0
H330 H 0.68091 0.54463 0.23562 0.0
H331 H 0.83008 0.59772 0.0404 0.0
H332 H 0.37873 0.83125 0.45227 0.0
H333 H 0.31584 0.7761 0.45422 0.0
H334 H 0.29079 0.84489 0.50281 0.0
H335 H 0.35464 0.90028 0.50146 0.0
H336 H 0.26927 0.77793 0.51483 0.0
H337 H 0.24756 0.81686 0.45006 0.0
H338 H 0.25965 0.83746 0.414 0.0
H339 H 0.25092 0.73023 0.38694 0.0
H340 H 0.23931 0.70917 0.42291 0.0
H341 H 0.06664 0.62283 0.49251 0.0
H342 H 0.12764 0.68407 0.50089 0.0
H343 H 0.18483 0.63252 0.46438 0.0
H344 H 0.1243 0.57167 0.45612 0.0
H345 H 0.18489 0.69578 0.44819 0.0
H346 H 0.20977 0.66012 0.51549 0.0
H347 H 0.19501 0.64121 0.55181 0.0
H348 H 0.19306 0.74487 0.57408 0.0
H349 H 0.20728 0.76415 0.53776 0.0
C350 C 0.35973 0.83494 0.46316 0.0
C351 C 0.37165 0.87024 0.47663 0.0
C352 C 0.32365 0.80331 0.46424 0.0
C353 C 0.29832 0.80641 0.47847 0.0
C354 C 0.30983 0.84183 0.4917 0.0
C355 C 0.34621 0.8735 0.49079 0.0
C356 C 0.26047 0.77211 0.4799 0.0
C357 C 0.25047 0.76033 0.50029 0.0
C358 C 0.23588 0.74906 0.46097 0.0
C359 C 0.24281 0.76155 0.43925 0.0
C360 C 0.24848 0.79777 0.43646 0.0
C361 C 0.25521 0.80952 0.41603 0.0
C362 C 0.25612 0.7852 0.3982 0.0
C363 C 0.25022 0.74905 0.40077 0.0
C364 C 0.24351 0.73717 0.42117 0.0
C365 C 0.09265 0.62425 0.48722 0.0
C366 C 0.09106 0.59279 0.47373 0.0
C367 C 0.12733 0.65919 0.49187 0.0
C368 C 0.16052 0.66276 0.48304 0.0
C369 C 0.15946 0.63028 0.47127 0.0
C370 C 0.12502 0.59553 0.46669 0.0
C371 C 0.19461 0.70103 0.48291 0.0
C372 C 0.20361 0.71364 0.46272 0.0
C373 C 0.21771 0.72499 0.50203 0.0
C374 C 0.20911 0.71334 0.52383 0.0
C375 C 0.20578 0.67869 0.52805 0.0
C376 C 0.19762 0.66795 0.54866 0.0
C377 C 0.19297 0.69175 0.56522 0.0
C378 C 0.19659 0.72641 0.56122 0.0
C379 C 0.20473 0.73727 0.54064 0.0
H380 H 0.18667 0.6834 0.58117 0.0
H381 H 0.26134 0.79435 0.38239 0.0
H382 H 0.56328 0.39709 0.87338 0.0
H383 H 0.55556 0.33371 0.87389 0.0
H384 H 0.47787 0.2885 0.81559 0.0
H385 H 0.48556 0.35216 0.81483 0.0
H386 H 0.45624 0.23816 0.84836 0.0
H387 H 0.56478 0.31437 0.80928 0.0
H388 H 0.62596 0.37223 0.80534 0.0
H389 H 0.67884 0.35616 0.8602 0.0
H390 H 0.61772 0.29856 0.86471 0.0
H391 H 0.47065 0.0825 0.79519 0.0
H392 H 0.46573 0.13864 0.80919 0.0
H393 H 0.55961 0.17574 0.85777 0.0
H394 H 0.5655 0.11995 0.84317 0.0
H395 H 0.57345 0.231 0.83569 0.0
H396 H 0.46768 0.14972 0.87201 0.0
H397 H 0.40666 0.09228 0.8766 0.0
H398 H 0.34873 0.11711 0.82852 0.0
H399 H 0.4095 0.17442 0.82339 0.0
C400 C 0.54415 0.37364 0.86078 0.0
C401 C 0.52534 0.37974 0.8439 0.0
C402 C 0.53976 0.33743 0.86115 0.0
C403 C 0.51642 0.30664 0.8447 0.0
C404 C 0.49599 0.31202 0.82844 0.0
C405 C 0.50056 0.34839 0.82797 0.0
C406 C 0.51602 0.26986 0.84342 0.0
C407 C 0.4817 0.23634 0.84546 0.0
C408 C 0.54967 0.26805 0.84037 0.0
C409 C 0.58655 0.30242 0.8375 0.0
C410 C 0.58936 0.32337 0.82062 0.0
C411 C 0.62403 0.35609 0.81827 0.0
C412 C 0.65624 0.36793 0.83255 0.0
C413 C 0.65385 0.347 0.84918 0.0
C414 C 0.61919 0.31432 0.85164 0.0
C415 C 0.48975 0.10224 0.80914 0.0
C416 C 0.51876 0.09718 0.81794 0.0
C417 C 0.48668 0.13416 0.81728 0.0
C418 C 0.51223 0.16143 0.8346 0.0
C419 C 0.53959 0.15505 0.8444 0.0
C420 C 0.54276 0.12306 0.83617 0.0
C421 C 0.51339 0.19866 0.84034 0.0
C422 C 0.54797 0.23254 0.83903 0.0
C423 C 0.47999 0.20072 0.84418 0.0
C424 C 0.44326 0.1663 0.84723 0.0
C425 C 0.442 0.1428 0.86229 0.0
C426 C 0.40743 0.11028 0.86501 0.0
C427 C 0.37385 0.10102 0.85284 0.0
C428 C 0.37476 0.12432 0.83794 0.0
C429 C 0.40926 0.15687 0.83515 0.0
H430 H 0.34712 0.07583 0.85497 0.0
H431 H 0.68306 0.39327 0.83069 0.0
H432 H 0.55463 0.90647 0.5049 0.0
H433 H 0.57334 0.85744 0.50175 0.0
H434 H 0.45494 0.76922 0.50116 0.0
H435 H 0.43655 0.81838 0.50557 0.0
H436 H 0.49382 0.7533 0.52485 0.0
H437 H 0.50713 0.78795 0.45366 0.0
H438 H 0.52956 0.83127 0.42617 0.0
H439 H 0.64607 0.86716 0.44616 0.0
H440 H 0.62436 0.82441 0.47398 0.0
H441 H 0.51905 0.59622 0.48161 0.0
H442 H 0.50475 0.64766 0.47879 0.0
H443 H 0.61506 0.7314 0.51221 0.0
H444 H 0.62903 0.68 0.5157 0.0
H445 H 0.58055 0.74815 0.47045 0.0
H446 H 0.56176 0.71389 0.5443 0.0
H447 H 0.53489 0.66584 0.56907 0.0
H448 H 0.42168 0.62384 0.5396 0.0
H449 H 0.44805 0.67127 0.51439 0.0
C450 C 0.5327 0.87659 0.50416 0.0
C451 C 0.49419 0.86616 0.50553 0.0
C452 C 0.54334 0.84854 0.50216 0.0
C453 C 0.51549 0.80944 0.50078 0.0
C454 C 0.477 0.79913 0.5022 0.0
C455 C 0.46649 0.82723 0.50474 0.0
C456 C 0.52642 0.77931 0.49849 0.0
C457 C 0.5124 0.75209 0.51273 0.0
C458 C 0.55095 0.77761 0.48282 0.0
C459 C 0.56412 0.80325 0.46605 0.0
C460 C 0.53755 0.80528 0.4523 0.0
C461 C 0.55013 0.8297 0.43664 0.0
C462 C 0.58922 0.85203 0.43446 0.0
C463 C 0.6158 0.84989 0.44789 0.0
C464 C 0.60337 0.82554 0.46359 0.0
C465 C 0.54049 0.62571 0.48794 0.0
C466 C 0.5749 0.63426 0.49904 0.0
C467 C 0.53233 0.65495 0.48632 0.0
C468 C 0.55888 0.6931 0.49534 0.0
C469 C 0.59436 0.70205 0.50512 0.0
C470 C 0.60218 0.67273 0.50718 0.0
C471 C 0.54793 0.72286 0.49677 0.0
C472 C 0.56192 0.74974 0.48243 0.0
C473 C 0.52275 0.72386 0.51199 0.0
C474 C 0.5069 0.69576 0.52731 0.0
C475 C 0.53119 0.69414 0.54296 0.0
C476 C 0.51605 0.66708 0.55711 0.0
C477 C 0.47661 0.64172 0.55587 0.0
C478 C 0.45223 0.64345 0.54052 0.0
C479 C 0.46725 0.67042 0.5263 0.0
H480 H 0.46494 0.62079 0.56684 0.0
H481 H 0.5989 0.87092 0.42233 0.0
H482 H 0.6701 0.55022 0.83742 0.0
H483 H 0.73745 0.56853 0.83826 0.0
H484 H 0.71025 0.47471 0.78637 0.0
H485 H 0.64263 0.45594 0.78553 0.0
H486 H 0.75331 0.47577 0.82005 0.0
H487 H 0.75951 0.56629 0.77651 0.0
H488 H 0.74836 0.61676 0.76623 0.0
H489 H 0.81509 0.69286 0.82448 0.0
H490 H 0.82621 0.64266 0.8353 0.0
H491 H 0.94944 0.5329 0.82618 0.0
H492 H 0.889 0.52116 0.80885 0.0
H493 H 0.88962 0.60681 0.85826 0.0
H494 H 0.95024 0.61915 0.87534 0.0
H495 H 0.86113 0.60775 0.81841 0.0
H496 H 0.84456 0.51431 0.86466 0.0
H497 H 0.85418 0.46382 0.87644 0.0
H498 H 0.8052 0.39322 0.81394 0.0
H499 H 0.79585 0.44362 0.80167 0.0
C500 C 0.67846 0.53369 0.82604 0.0
C501 C 0.65104 0.5016 0.81144 0.0
C502 C 0.71701 0.54436 0.82643 0.0
C503 C 0.72888 0.52324 0.81219 0.0
C504 C 0.70167 0.4915 0.79739 0.0
C505 C 0.66308 0.48086 0.79694 0.0
C506 C 0.76924 0.53266 0.81405 0.0
C507 C 0.77691 0.50436 0.81913 0.0
C508 C 0.79994 0.57017 0.81326 0.0
C509 C 0.79351 0.60058 0.80678 0.0
C510 C 0.7716 0.59369 0.78722 0.0
C511 C 0.76531 0.62227 0.78128 0.0
C512 C 0.78096 0.65798 0.79471 0.0
C513 C 0.80299 0.66519 0.81409 0.0
C514 C 0.80934 0.6367 0.82012 0.0
C515 C 0.93718 0.54994 0.83296 0.0
C516 C 0.95418 0.57659 0.85223 0.0
C517 C 0.9026 0.54307 0.82313 0.0
C518 C 0.88462 0.56272 0.83249 0.0
C519 C 0.90299 0.59127 0.85083 0.0
C520 C 0.93742 0.59808 0.86065 0.0
C521 C 0.84501 0.55105 0.82478 0.0
C522 C 0.83749 0.57892 0.81873 0.0
C523 C 0.81434 0.51318 0.82479 0.0
C524 C 0.82003 0.48294 0.83214 0.0
C525 C 0.83619 0.48817 0.85336 0.0
C526 C 0.84154 0.45955 0.86014 0.0
C527 C 0.83044 0.42539 0.84592 0.0
C528 C 0.81389 0.41974 0.82491 0.0
C529 C 0.80858 0.44833 0.81803 0.0
H530 H 0.83457 0.40324 0.8512 0.0
H531 H 0.77606 0.68007 0.79008 0.0
H532 H 0.20526 0.6992 0.14262 0.0
H533 H 0.26457 0.76099 0.15153 0.0
H534 H 0.2069 0.80475 0.19389 0.0
H535 H 0.14728 0.74245 0.18539 0.0
H536 H 0.25825 0.85728 0.16586 0.0
H537 H 0.25302 0.77713 0.21629 0.0
H538 H 0.24547 0.71891 0.22877 0.0
H539 H 0.34575 0.73376 0.19861 0.0
H540 H 0.35281 0.79102 0.18487 0.0
H541 H 0.42442 0.01178 0.23151 0.0
H542 H 0.3621 0.95484 0.21836 0.0
H543 H 0.41759 0.90767 0.1765 0.0
H544 H 0.48 0.96486 0.18942 0.0
H545 H 0.36648 0.85756 0.20447 0.0
H546 H 0.36928 0.93744 0.15312 0.0
H547 H 0.37605 0.99627 0.1418 0.0
H548 H 0.28102 0.98378 0.17712 0.0
H549 H 0.27403 0.92514 0.18894 0.0
C550 C 0.20498 0.7221 0.1536 0.0
C551 C 0.17166 0.71604 0.16336 0.0
C552 C 0.23892 0.7573 0.15871 0.0
C553 C 0.24002 0.7872 0.17342 0.0
C554 C 0.20646 0.78191 0.18247 0.0
C555 C 0.17257 0.74637 0.17769 0.0
C556 C 0.27684 0.82313 0.1802 0.0
C557 C 0.28182 0.8575 0.17452 0.0
C558 C 0.30755 0.82304 0.19127 0.0
C559 C 0.303 0.78807 0.19913 0.0
C560 C 0.27299 0.76755 0.21184 0.0
C561 C 0.2688 0.73469 0.21915 0.0
C562 C 0.29491 0.72244 0.21429 0.0
C563 C 0.32528 0.74305 0.20212 0.0
C564 C 0.3293 0.77562 0.19447 0.0
C565 C 0.42318 0.9894 0.21933 0.0
C566 C 0.45687 0.99256 0.21145 0.0
C567 C 0.38767 0.95705 0.2118 0.0
C568 C 0.38536 0.92719 0.19647 0.0
C569 C 0.41889 0.93052 0.18832 0.0
C570 C 0.45439 0.96317 0.1956 0.0
C571 C 0.34812 0.8916 0.18984 0.0
C572 C 0.34298 0.85727 0.19569 0.0
C573 C 0.31721 0.89182 0.17915 0.0
C574 C 0.3214 0.92712 0.17211 0.0
C575 C 0.35007 0.94744 0.15866 0.0
C576 C 0.35389 0.98071 0.15211 0.0
C577 C 0.32905 0.99382 0.15879 0.0
C578 C 0.30027 0.97362 0.17199 0.0
C579 C 0.29635 0.94035 0.1786 0.0
H580 H 0.33204 0.01957 0.15369 0.0
H581 H 0.29179 0.69716 0.22011 0.0
H582 H 0.44986 0.14716 0.46949 0.0
H583 H 0.46271 0.21315 0.47048 0.0
H584 H 0.55254 0.25318 0.52216 0.0
H585 H 0.53943 0.1879 0.52167 0.0
H586 H 0.51133 0.28571 0.53086 0.0
H587 H 0.5705 0.26142 0.46798 0.0
H588 H 0.57053 0.22676 0.43224 0.0
H589 H 0.49068 0.25267 0.40382 0.0
H590 H 0.48976 0.28709 0.43944 0.0
H591 H 0.63176 0.47778 0.5355 0.0
H592 H 0.61146 0.41065 0.52179 0.0
H593 H 0.51432 0.39864 0.48466 0.0
H594 H 0.53485 0.46627 0.49825 0.0
H595 H 0.54985 0.3507 0.46573 0.0
H596 H 0.49538 0.37922 0.52981 0.0
H597 H 0.50223 0.41833 0.5653 0.0
H598 H 0.57816 0.38552 0.59161 0.0
H599 H 0.5724 0.34687 0.55611 0.0
C600 C 0.47203 0.17001 0.48121 0.0
C601 C 0.49361 0.16224 0.49549 0.0
C602 C 0.47952 0.20771 0.48165 0.0
C603 C 0.50887 0.23814 0.49623 0.0
C604 C 0.52973 0.23018 0.51078 0.0
C605 C 0.52218 0.19273 0.51045 0.0
C606 C 0.5186 0.27856 0.49656 0.0
C607 C 0.51968 0.29977 0.51658 0.0
C608 C 0.52889 0.29687 0.47785 0.0
C609 C 0.52969 0.27642 0.45643 0.0
C610 C 0.55272 0.25948 0.45415 0.0
C611 C 0.55295 0.23993 0.43391 0.0
C612 C 0.53054 0.2374 0.4158 0.0
C613 C 0.50796 0.25457 0.41787 0.0
C614 C 0.50758 0.27412 0.43807 0.0
C615 C 0.60686 0.46118 0.5238 0.0
C616 C 0.58453 0.47681 0.51811 0.0
C617 C 0.59538 0.42297 0.51593 0.0
C618 C 0.56117 0.39974 0.50248 0.0
C619 C 0.54087 0.41628 0.49497 0.0
C620 C 0.55255 0.45477 0.50277 0.0
C621 C 0.54339 0.35752 0.50007 0.0
C622 C 0.54072 0.33618 0.47981 0.0
C623 C 0.53187 0.33894 0.51856 0.0
C624 C 0.53361 0.36033 0.54027 0.0
C625 C 0.51361 0.38043 0.54315 0.0
C626 C 0.51734 0.40255 0.56325 0.0
C627 C 0.54067 0.40446 0.58069 0.0
C628 C 0.56011 0.38403 0.57809 0.0
C629 C 0.5566 0.36198 0.55798 0.0
H630 H 0.54364 0.42174 0.59622 0.0
H631 H 0.53074 0.22222 0.40016 0.0
H632 H 0.35633 0.49694 0.8753 0.0
H633 H 0.29781 0.49992 0.87426 0.0
H634 H 0.29072 0.48339 0.80396 0.0
H635 H 0.34991 0.48108 0.80487 0.0
H636 H 0.29005 0.54656 0.81946 0.0
H637 H 0.22019 0.41708 0.83111 0.0
H638 H 0.2054 0.35997 0.84776 0.0
H639 H 0.19799 0.41644 0.90944 0.0
H640 H 0.21329 0.47413 0.89326 0.0
H641 H 0.11729 0.56181 0.82728 0.0
H642 H 0.15796 0.53387 0.81777 0.0
H643 H 0.21177 0.57254 0.88354 0.0
H644 H 0.17221 0.60142 0.89293 0.0
H645 H 0.17975 0.48848 0.86375 0.0
H646 H 0.26336 0.62114 0.85308 0.0
H647 H 0.28096 0.67929 0.83682 0.0
H648 H 0.26255 0.61504 0.7728 0.0
H649 H 0.24436 0.55634 0.78872 0.0
C650 C 0.34182 0.49286 0.85957 0.0
C651 C 0.35811 0.48939 0.84019 0.0
C652 C 0.30815 0.49434 0.859 0.0
C653 C 0.28987 0.49193 0.83902 0.0
C654 C 0.30444 0.48542 0.81955 0.0
C655 C 0.33821 0.48399 0.82012 0.0
C656 C 0.25924 0.50181 0.8388 0.0
C657 C 0.2653 0.53303 0.82862 0.0
C658 C 0.22737 0.48474 0.8511 0.0
C659 C 0.21808 0.45006 0.86096 0.0
C660 C 0.21568 0.41745 0.84827 0.0
C661 C 0.20715 0.38494 0.85762 0.0
C662 C 0.2008 0.38459 0.87965 0.0
C663 C 0.2029 0.41674 0.89237 0.0
C664 C 0.21143 0.44934 0.8831 0.0
C665 C 0.13801 0.56452 0.83961 0.0
C666 C 0.14176 0.58368 0.86084 0.0
C667 C 0.1611 0.54859 0.83418 0.0
C668 C 0.18757 0.55108 0.85002 0.0
C669 C 0.19134 0.57028 0.87116 0.0
C670 C 0.16893 0.58687 0.87646 0.0
C671 C 0.21131 0.53345 0.84484 0.0
C672 C 0.20392 0.50101 0.85407 0.0
C673 C 0.24191 0.54927 0.83165 0.0
C674 C 0.25179 0.58422 0.82206 0.0
C675 C 0.26246 0.61927 0.83552 0.0
C676 C 0.2727 0.65237 0.82638 0.0
C677 C 0.27265 0.65081 0.80379 0.0
C678 C 0.26241 0.61617 0.7903 0.0
C679 C 0.25213 0.58298 0.79937 0.0
H680 H 0.28071 0.6765 0.79674 0.0
H681 H 0.19421 0.3594 0.88686 0.0
H682 H 0.89776 0.40286 0.15805 0.0
H683 H 0.84263 0.33789 0.15595 0.0
H684 H 0.76669 0.38383 0.15569 0.0
H685 H 0.82173 0.44877 0.15895 0.0
H686 H 0.74521 0.33755 0.18243 0.0
H687 H 0.77724 0.3287 0.10919 0.0
H688 H 0.81848 0.33351 0.0795 0.0
H689 H 0.83978 0.24976 0.10207 0.0
H690 H 0.79908 0.24484 0.1321 0.0
H691 H 0.5754 0.15605 0.15772 0.0
H692 H 0.62916 0.21439 0.14763 0.0
H693 H 0.70869 0.18745 0.17614 0.0
H694 H 0.6552 0.12978 0.18682 0.0
H695 H 0.72556 0.22211 0.13245 0.0
H696 H 0.69776 0.23969 0.20854 0.0
H697 H 0.65293 0.23407 0.23626 0.0
H698 H 0.61993 0.3024 0.20456 0.0
H699 H 0.66415 0.30782 0.17642 0.0
C700 C 0.86924 0.39893 0.15739 0.0
C701 C 0.86394 0.43075 0.15883 0.0
C702 C 0.83771 0.36178 0.15602 0.0
C703 C 0.80034 0.35578 0.15542 0.0
C704 C 0.79516 0.38763 0.15623 0.0
C705 C 0.82663 0.42474 0.15809 0.0
C706 C 0.76675 0.31682 0.1555 0.0
C707 C 0.74078 0.31259 0.17118 0.0
C708 C 0.76092 0.28386 0.14108 0.0
C709 C 0.78537 0.28667 0.12302 0.0
C710 C 0.79095 0.31152 0.10793 0.0
C711 C 0.81419 0.31423 0.09102 0.0
C712 C 0.83181 0.29202 0.08893 0.0
C713 C 0.82615 0.26698 0.10372 0.0
C714 C 0.80296 0.26419 0.12068 0.0
C715 C 0.60435 0.16219 0.16136 0.0
C716 C 0.61134 0.13891 0.17327 0.0
C717 C 0.63491 0.19535 0.15556 0.0
C718 C 0.67271 0.20505 0.1612 0.0
C719 C 0.67965 0.18021 0.17158 0.0
C720 C 0.64915 0.14752 0.1778 0.0
C721 C 0.70472 0.24356 0.15922 0.0
C722 C 0.73022 0.24748 0.14338 0.0
C723 C 0.70992 0.27646 0.17318 0.0
C724 C 0.68386 0.27376 0.19027 0.0
C725 C 0.68068 0.2532 0.20738 0.0
C726 C 0.65543 0.25011 0.22318 0.0
C727 C 0.6335 0.26777 0.22214 0.0
C728 C 0.63688 0.28867 0.20533 0.0
C729 C 0.66202 0.29177 0.18945 0.0
H730 H 0.61398 0.26535 0.23438 0.0
H731 H 0.8498 0.29416 0.07582 0.0
H732 H 0.03039 0.62332 0.10663 0.0
H733 H 0.02399 0.62039 0.0671 0.0
H734 H 0.00216 0.50391 0.05742 0.0
H735 H 0.00754 0.50619 0.09701 0.0
H736 H 0.06365 0.56254 0.03289 0.0
H737 H 0.93082 0.50562 0.04726 0.0
H738 H 0.87843 0.50422 0.06765 0.0
H739 H 0.90244 0.61142 0.04877 0.0
H740 H 0.95524 0.61359 0.02841 0.0
H741 H 0.02053 0.52429 0.91921 0.0
H742 H 0.01741 0.51846 0.9579 0.0
H743 H 0.99979 0.61547 0.97053 0.0
H744 H 0.00141 0.6203 0.93161 0.0
H745 H 0.95665 0.56408 0.99405 0.0
H746 H 0.08892 0.62371 0.98069 0.0
H747 H 0.14505 0.6304 0.96227 0.0
H748 H 0.12705 0.52506 0.98108 0.0
H749 H 0.07043 0.51745 -0.00065 0.0
C750 C 0.02409 0.59704 0.09609 0.0
C751 C 0.01952 0.565 0.10485 0.0
C752 C 0.02038 0.59541 0.07357 0.0
C753 C 0.01264 0.56196 0.05951 0.0
C754 C 0.00814 0.52993 0.06814 0.0
C755 C 0.01108 0.53126 0.09068 0.0
C756 C 0.00999 0.56089 0.03574 0.0
C757 C 0.04 0.56217 0.02423 0.0
C758 C 0.97968 0.56172 0.02484 0.0
C759 C 0.94718 0.55992 0.03647 0.0
C760 C 0.92505 0.529 0.04756 0.0
C761 C 0.89525 0.52804 0.0591 0.0
C762 C 0.88716 0.55778 0.05959 0.0
C763 C 0.90871 0.5884 0.0484 0.0
C764 C 0.93854 0.58946 0.03681 0.0
C765 C 0.01596 0.54428 0.93029 0.0
C766 C 0.0116 0.57298 0.92258 0.0
C767 C 0.01424 0.54101 0.95237 0.0
C768 C 0.00915 0.56703 0.96721 0.0
C769 C 0.00383 0.59513 0.9594 0.0
C770 C 0.00487 0.59797 0.93723 0.0
C771 C 0.01041 0.56557 0.99091 0.0
C772 C 0.98024 0.56407 0.00252 0.0
C773 C 0.04097 0.56515 0.00201 0.0
C774 C 0.0752 0.56981 0.99119 0.0
C775 C 0.09677 0.60184 0.98077 0.0
C776 C 0.12869 0.60581 0.97037 0.0
C777 C 0.13955 0.57812 0.97045 0.0
C778 C 0.11857 0.54645 0.981 0.0
C779 C 0.08657 0.54231 0.99139 0.0
H780 H 0.16426 0.58124 0.96239 0.0
H781 H 0.86417 0.55702 0.06862 0.0
H782 H 0.52375 0.98883 0.43326 0.0
H783 H 0.54726 0.01683 0.40058 0.0
H784 H 0.54426 0.11854 0.42807 0.0
H785 H 0.52006 0.09013 0.46092 0.0
H786 H 0.51051 0.0939 0.3884 0.0
H787 H 0.62935 0.12313 0.41916 0.0
H788 H 0.67795 0.11524 0.43831 0.0
H789 H 0.6634 0.02712 0.38623 0.0
H790 H 0.61428 0.034 0.36685 0.0
H791 H 0.5646 0.1324 0.27981 0.0
H792 H 0.57471 0.14402 0.31988 0.0
H793 H 0.54515 0.02604 0.31894 0.0
H794 H 0.5344 0.01422 0.27913 0.0
H795 H 0.61161 0.08374 0.34888 0.0
H796 H 0.47871 0.04633 0.3257 0.0
H797 H 0.4314 0.05716 0.30734 0.0
H798 H 0.47779 0.16794 0.34731 0.0
H799 H 0.52578 0.15796 0.36567 0.0
C800 C 0.52858 0.01738 0.43253 0.0
C801 C 0.51952 0.03705 0.44956 0.0
C802 C 0.54232 0.03354 0.41387 0.0
C803 C 0.54796 0.07002 0.41193 0.0
C804 C 0.54011 0.09035 0.4292 0.0
C805 C 0.52606 0.074 0.4479 0.0
C806 C 0.55828 0.08449 0.3909 0.0
C807 C 0.53341 0.09286 0.38002 0.0
C808 C 0.58835 0.08353 0.37997 0.0
C809 C 0.61807 0.0792 0.39148 0.0
C810 C 0.6364 0.102 0.41178 0.0
C811 C 0.66406 0.09769 0.42269 0.0
C812 C 0.6738 0.07075 0.41348 0.0
C813 C 0.65589 0.04805 0.39332 0.0
C814 C 0.62818 0.05222 0.38233 0.0
C815 C 0.56077 0.1092 0.28824 0.0
C816 C 0.54851 0.07237 0.27655 0.0
C817 C 0.56654 0.11585 0.31102 0.0
C818 C 0.56073 0.08588 0.32227 0.0
C819 C 0.55 0.04956 0.3105 0.0
C820 C 0.5436 0.04275 0.28785 0.0
C821 C 0.56253 0.09073 0.34631 0.0
C822 C 0.58972 0.08613 0.35766 0.0
C823 C 0.5351 0.09586 0.35781 0.0
C824 C 0.50617 0.10166 0.3468 0.0
C825 C 0.47906 0.07315 0.33041 0.0
C826 C 0.45208 0.07911 0.32003 0.0
C827 C 0.45169 0.11329 0.32609 0.0
C828 C 0.47821 0.14154 0.34258 0.0
C829 C 0.50531 0.13576 0.35297 0.0
H830 H 0.43076 0.11784 0.31805 0.0
H831 H 0.69521 0.06744 0.42198 0.0
H832 H 0.48392 0.53739 0.75971 0.0
H833 H 0.49921 0.54468 0.72215 0.0
H834 H 0.56855 0.4923 0.72712 0.0
H835 H 0.55387 0.48531 0.76481 0.0
H836 H 0.60528 0.55666 0.70915 0.0
H837 H 0.48124 0.44289 0.69824 0.0
H838 H 0.41255 0.40332 0.70276 0.0
H839 H 0.39005 0.4819 0.67452 0.0
H840 H 0.45873 0.52225 0.67011 0.0
H841 H 0.62505 0.52377 0.5957 0.0
H842 H 0.61178 0.51833 0.63373 0.0
H843 H 0.54261 0.571 0.6291 0.0
H844 H 0.55472 0.5754 0.59087 0.0
H845 H 0.50607 0.5066 0.64695 0.0
H846 H 0.63026 0.62013 0.65759 0.0
H847 H 0.69899 0.65953 0.6531 0.0
H848 H 0.72125 0.58119 0.68179 0.0
H849 H 0.65254 0.54099 0.68617 0.0
C850 C 0.50218 0.52708 0.7528 0.0
C851 C 0.51762 0.51069 0.76532 0.0
C852 C 0.51081 0.53122 0.73128 0.0
C853 C 0.5348 0.51878 0.72179 0.0
C854 C 0.54999 0.50211 0.73415 0.0
C855 C 0.54142 0.49799 0.75567 0.0
C856 C 0.54484 0.52412 0.69915 0.0
C857 C 0.58362 0.54525 0.69549 0.0
C858 C 0.51653 0.51004 0.68144 0.0
C859 C 0.47519 0.48579 0.68404 0.0
C860 C 0.4617 0.4519 0.69316 0.0
C861 C 0.42275 0.4293 0.69567 0.0
C862 C 0.39697 0.44014 0.68898 0.0
C863 C 0.41006 0.47357 0.67972 0.0
C864 C 0.44899 0.49629 0.67719 0.0
C865 C 0.60717 0.53438 0.60281 0.0
C866 C 0.59098 0.55006 0.59026 0.0
C867 C 0.59984 0.53151 0.62459 0.0
C868 C 0.57638 0.54447 0.63428 0.0
C869 C 0.56085 0.56088 0.62194 0.0
C870 C 0.56815 0.56375 0.60016 0.0
C871 C 0.56651 0.53922 0.65694 0.0
C872 C 0.52774 0.51805 0.66061 0.0
C873 C 0.59484 0.55323 0.67464 0.0
C874 C 0.63618 0.57734 0.672 0.0
C875 C 0.64976 0.61111 0.66277 0.0
C876 C 0.68872 0.63363 0.66027 0.0
C877 C 0.71445 0.62282 0.6671 0.0
C878 C 0.70128 0.5895 0.67648 0.0
C879 C 0.66233 0.56686 0.67899 0.0
H880 H 0.74461 0.6403 0.66517 0.0
H881 H 0.36682 0.4226 0.69094 0.0
H882 H 0.53936 0.08985 0.57285 0.0
H883 H 0.54661 0.09028 0.61197 0.0
H884 H 0.49214 0.96652 0.60092 0.0
H885 H 0.48456 0.96565 0.56173 0.0
H886 H 0.46472 0.99431 0.63491 0.0
H887 H 0.58618 0.01825 0.61132 0.0
H888 H 0.64489 0.05159 0.59281 0.0
H889 H 0.67688 0.15764 0.63486 0.0
H890 H 0.61804 0.12504 0.65343 0.0
H891 H 0.51027 0.97648 0.74111 0.0
H892 H 0.50788 0.97272 0.70148 0.0
H893 H 0.56733 0.09662 0.70886 0.0
H894 H 0.57096 0.10063 0.7485 0.0
H895 H 0.59282 0.06674 0.67635 0.0
H896 H 0.47146 0.04514 0.69873 0.0
H897 H 0.41232 0.01368 0.71713 0.0
H898 H 0.37965 0.90548 0.67729 0.0
H899 H 0.43894 0.93622 0.65886 0.0
C900 C 0.52879 0.06267 0.57871 0.0
C901 C 0.51145 0.02771 0.56415 0.0
C902 C 0.53314 0.06302 0.60105 0.0
C903 C 0.52028 0.02846 0.60924 0.0
C904 C 0.50234 0.99348 0.59485 0.0
C905 C 0.49813 0.99308 0.57248 0.0
C906 C 0.52539 0.02887 0.63288 0.0
C907 C 0.49275 0.00961 0.64394 0.0
C908 C 0.56194 0.04966 0.64464 0.0
C909 C 0.59752 0.06926 0.63364 0.0
C910 C 0.60558 0.04875 0.61652 0.0
C911 C 0.63891 0.0675 0.60603 0.0
C912 C 0.66456 0.10673 0.61262 0.0
C913 C 0.65697 0.12726 0.62976 0.0
C914 C 0.62365 0.10865 0.64028 0.0
C915 C 0.52346 0.00292 0.73429 0.0
C916 C 0.54052 0.03885 0.7479 0.0
C917 C 0.52177 0.00073 0.71167 0.0
C918 C 0.53688 0.03439 0.70228 0.0
C919 C 0.55532 0.07031 0.7158 0.0
C920 C 0.55708 0.07253 0.73842 0.0
C921 C 0.53213 0.0322 0.6784 0.0
C922 C 0.56481 0.05121 0.6673 0.0
C923 C 0.49558 0.01141 0.6666 0.0
C924 C 0.45983 0.99289 0.67758 0.0
C925 C 0.45182 0.01457 0.69401 0.0
C926 C 0.41825 0.99689 0.70443 0.0
C927 C 0.39229 0.95759 0.69842 0.0
C928 C 0.39982 0.93591 0.68195 0.0
C929 C 0.43339 0.95345 0.67151 0.0
H930 H 0.36631 0.94394 0.7065 0.0
H931 H 0.69034 0.1212 0.60448 0.0
H932 H 0.48769 0.55919 0.8894 0.0
H933 H 0.48488 0.5667 0.9289 0.0
H934 H 0.53821 0.49853 0.93401 0.0
H935 H 0.54107 0.49071 0.89453 0.0
H936 H 0.47309 0.47541 0.95635 0.0
H937 H 0.58931 0.59254 0.94961 0.0
H938 H 0.62849 0.6531 0.93532 0.0
H939 H 0.55692 0.69605 0.9612 0.0
H940 H 0.51697 0.6355 0.97541 0.0
H941 H 0.51396 0.50878 0.07022 0.0
H942 H 0.5182 0.50463 0.03097 0.0
H943 H 0.47746 0.5843 0.02911 0.0
H944 H 0.47513 0.59026 0.06864 0.0
H945 H 0.53489 0.60191 0.00477 0.0
H946 H 0.41881 0.48669 0.01171 0.0
H947 H 0.37762 0.42615 0.02558 0.0
H948 H 0.44553 0.37933 -0.00122 0.0
H949 H 0.48747 0.43982 0.985 0.0
C950 C 0.49897 0.54591 0.89892 0.0
C951 C 0.51454 0.52429 0.88881 0.0
C952 C 0.49747 0.55037 0.92148 0.0
C953 C 0.51146 0.53327 0.93432 0.0
C954 C 0.52726 0.51192 0.92433 0.0
C955 C 0.52903 0.50766 0.9018 0.0
C956 C 0.50866 0.53672 0.95812 0.0
C957 C 0.487 0.503 0.96702 0.0
C958 C 0.52582 0.57283 0.97182 0.0
C959 C 0.54992 0.60933 0.96338 0.0
C960 C 0.58173 0.61477 0.9521 0.0
C961 C 0.60412 0.64912 0.94404 0.0
C962 C 0.59514 0.67837 0.9473 0.0
C963 C 0.56381 0.67336 0.95867 0.0
C964 C 0.54131 0.63904 0.96674 0.0
C965 C 0.50628 0.52576 0.06153 0.0
C966 C 0.49421 0.54988 0.0726 0.0
C967 C 0.50827 0.52298 0.03903 0.0
C968 C 0.49761 0.54372 0.02705 0.0
C969 C 0.48566 0.56791 0.03803 0.0
C970 C 0.48398 0.57098 0.06059 0.0
C971 C 0.49947 0.54052 0.00312 0.0
C972 C 0.52089 0.57428 0.99415 0.0
C973 C 0.48174 0.50442 0.9893 0.0
C974 C 0.45649 0.46793 0.9975 0.0
C975 C 0.42514 0.46359 0.00892 0.0
C976 C 0.40163 0.42927 0.01674 0.0
C977 C 0.40901 0.39895 0.01311 0.0
C978 C 0.43987 0.40286 0.0016 0.0
C979 C 0.4635 0.43714 0.99376 0.0
H980 H 0.39078 0.37239 0.01918 0.0
H981 H 0.6125 0.70494 0.94105 0.0
H982 H 0.07588 0.59798 0.2351 0.0
H983 H 0.06998 0.58797 0.27318 0.0
H984 H 0.94713 0.53118 0.26209 0.0
H985 H 0.95262 0.54049 0.2239 0.0
H986 H 0.98246 0.5871 0.30272 0.0
H987 H 0.9786 0.47546 0.26149 0.0
H988 H 0.00256 0.4427 0.23548 0.0
H989 H 0.10816 0.49423 0.27607 0.0
H990 H 0.08503 0.52779 0.30217 0.0
H991 H 0.9502 0.51461 0.4029 0.0
H992 H 0.94496 0.51692 0.36391 0.0
H993 H 0.06276 0.54612 0.36077 0.0
H994 H 0.06738 0.54137 0.39915 0.0
H995 H 0.02397 0.50008 0.32605 0.0
H996 H 0.03324 0.6151 0.36565 0.0
H997 H 0.01403 0.65236 0.39176 0.0
H998 H 0.90459 0.60044 0.35507 0.0
H999 H 0.923 0.56248 0.32888 0.0
C1000 C 0.04763 0.58383 0.24083 0.0
C1001 C 0.0147 0.56982 0.2265 0.0
C1002 C 0.04433 0.57803 0.26253 0.0
C1003 C 0.00812 0.55861 0.27027 0.0
C1004 C 0.97528 0.54617 0.25632 0.0
C1005 C 0.9785 0.55142 0.23454 0.0
C1006 C 0.00456 0.54962 0.29265 0.0
C1007 C 0.99096 0.56766 0.30783 0.0
C1008 C 0.01641 0.52484 0.29924 0.0
C1009 C 0.03021 0.50441 0.28367 0.0
C1010 C 0.00705 0.48006 0.26477 0.0
C1011 C 0.02046 0.4613 0.25004 0.0
C1012 C 0.0569 0.46645 0.2541 0.0
C1013 C 0.07996 0.4903 0.27294 0.0
C1014 C 0.0667 0.50917 0.28771 0.0
C1015 C 0.9747 0.52073 0.39378 0.0
C1016 C 0.0094 0.52841 0.40421 0.0
C1017 C 0.97182 0.52252 0.37156 0.0
C1018 C 0.00375 0.53259 0.35952 0.0
C1019 C 0.03781 0.53859 0.36972 0.0
C1020 C 0.04054 0.53628 0.39176 0.0
C1021 C 0.00248 0.53811 0.33647 0.0
C1022 C 0.01512 0.51932 0.32105 0.0
C1023 C 0.9904 0.56278 0.32978 0.0
C1024 C 0.97932 0.58564 0.34546 0.0
C1025 C 0.00497 0.61143 0.36324 0.0
C1026 C 0.99425 0.6327 0.37804 0.0
C1027 C 0.95807 0.62868 0.37511 0.0
C1028 C 0.93258 0.60346 0.35734 0.0
C1029 C 0.94314 0.58207 0.34251 0.0
H1030 H 0.94982 0.64518 0.38658 0.0
H1031 H 0.06723 0.45191 0.24267 0.0
loop_
_geom_bond_atom_site_label_1
_geom_bond_atom_site_label_2
_geom_bond_distance
_geom_bond_site_symmetry_2
_ccdc_geom_bond_type
Zn0 O6 1.969 . S
Zn0 O7 1.965 . S
Zn0 O11 2.024 . S
Zn0 O16 1.969 . S
Zn1 O8 1.969 . S
Zn1 O14 1.969 . S
Zn1 O15 1.965 1_655 S
Zn1 O17 2.024 . S
C2 O3 1.229 . S
C2 O11 1.058 . S
O3 C2 1.229 . S
C4 O5 1.229 . S
C4 O17 1.058 . S
O5 C4 1.229 . S
O6 Zn0 1.969 . S
O6 C9 1.267 . S
O7 Zn0 1.965 . S
O7 C18 1.260 . S
O8 Zn1 1.969 . S
O8 C18 1.258 1_655 S
C9 O6 1.267 . S
C9 O10 1.228 . S
O10 C9 1.228 . S
O11 Zn0 2.024 . S
O11 C2 1.058 . S
C12 O13 1.228 . S
C12 O14 1.267 . S
O13 C12 1.228 . S
O14 Zn1 1.969 . S
O14 C12 1.267 . S
O15 Zn1 1.965 1_455 S
O15 C19 1.260 . S
O16 Zn0 1.969 . S
O16 C19 1.258 . S
O17 Zn1 2.024 . S
O17 C4 1.058 . S
C18 O7 1.260 . S
C18 O8 1.258 1_455 S
C19 O15 1.260 . S
C19 O16 1.258 . S
Zn20 O26 1.969 . S
Zn20 O27 1.965 . S
Zn20 O31 2.024 . S
Zn20 O36 1.969 . S
Zn21 O28 1.969 . S
Zn21 O34 1.969 . S
Zn21 O35 1.965 1_565 S
Zn21 O37 2.024 . S
C22 O23 1.229 . S
C22 O31 1.058 . S
O23 C22 1.229 . S
C24 O25 1.229 . S
C24 O37 1.058 . S
O25 C24 1.229 . S
O26 Zn20 1.969 . S
O26 C29 1.267 . S
O27 Zn20 1.965 . S
O27 C38 1.260 . S
O28 Zn21 1.969 . S
O28 C38 1.258 1_565 S
C29 O26 1.267 . S
C29 O30 1.228 . S
O30 C29 1.228 . S
O31 Zn20 2.024 . S
O31 C22 1.058 . S
C32 O33 1.228 . S
C32 O34 1.267 . S
O33 C32 1.228 . S
O34 Zn21 1.969 . S
O34 C32 1.267 . S
O35 Zn21 1.965 1_545 S
O35 C39 1.260 . S
O36 Zn20 1.969 . S
O36 C39 1.258 . S
O37 Zn21 2.024 . S
O37 C24 1.058 . S
C38 O27 1.260 . S
C38 O28 1.258 1_545 S
C39 O35 1.260 . S
C39 O36 1.258 . S
Zn40 O46 1.969 . S
Zn40 O47 1.965 . S
Zn40 O51 2.024 . S
Zn40 O56 1.969 . S
Zn41 O48 1.969 . S
Zn41 O54 1.969 . S
Zn41 O55 1.965 . S
Zn41 O57 2.024 . S
C42 O43 1.229 . S
C42 O51 1.058 . S
O43 C42 1.229 . S
C44 O45 1.229 . S
C44 O57 1.058 . S
O45 C44 1.229 . S
O46 Zn40 1.969 . S
O46 C49 1.267 . S
O47 Zn40 1.965 . S
O47 C58 1.260 . S
O48 Zn41 1.969 . S
O48 C58 1.258 . S
C49 O46 1.267 . S
C49 O50 1.228 . S
O50 C49 1.228 . S
O51 Zn40 2.024 . S
O51 C42 1.058 . S
C52 O53 1.228 . S
C52 O54 1.267 . S
O53 C52 1.228 . S
O54 Zn41 1.969 . S
O54 C52 1.267 . S
O55 Zn41 1.965 . S
O55 C59 1.260 . S
O56 Zn40 1.969 . S
O56 C59 1.258 . S
O57 Zn41 2.024 . S
O57 C44 1.058 . S
C58 O47 1.260 . S
C58 O48 1.258 . S
C59 O55 1.260 . S
C59 O56 1.258 . S
H60 C65 0.930 . S
H61 C68 0.930 . S
H62 C70 0.930 . S
H63 C64 1.016 . S
C64 H63 1.016 . S
C64 N71 1.286 . S
C65 H60 0.930 . S
C65 C66 1.397 . S
C65 C67 1.361 . S
C66 C65 1.397 . S
C66 C70 1.390 . S
C67 C65 1.361 . S
C67 C68 1.393 . S
C67 N71 1.413 . S
C68 H61 0.930 . S
C68 C67 1.393 . S
C68 C69 1.399 . S
C69 C68 1.399 . S
C69 C70 1.381 . S
C70 H62 0.930 . S
C70 C66 1.390 . S
C70 C69 1.381 . S
N71 C64 1.286 . S
N71 C67 1.413 . S
H72 C77 0.930 . S
H73 C80 0.930 . S
H74 C82 0.930 . S
H75 C76 1.016 . S
C76 H75 1.016 . S
C76 N83 1.286 . S
C77 H72 0.930 . S
C77 C78 1.397 . S
C77 C79 1.361 . S
C78 C77 1.397 . S
C78 C82 1.390 . S
C79 C77 1.361 . S
C79 C80 1.393 . S
C79 N83 1.413 . S
C80 H73 0.930 . S
C80 C79 1.393 . S
C80 C81 1.399 . S
C81 C80 1.399 . S
C81 C82 1.381 . S
C82 H74 0.930 . S
C82 C78 1.390 . S
C82 C81 1.381 . S
N83 C76 1.286 . S
N83 C79 1.413 . S
H84 C89 0.930 . S
H85 C92 0.930 . S
H86 C94 0.930 . S
H87 C88 1.016 . S
C88 H87 1.016 . S
C88 N95 1.286 . S
C89 H84 0.930 . S
C89 C90 1.397 1_455 S
C89 C91 1.361 . S
C90 C89 1.397 1_655 S
C90 C94 1.390 . S
C91 C89 1.361 . S
C91 C92 1.393 . S
C91 N95 1.413 . S
C92 H85 0.930 . S
C92 C91 1.393 . S
C92 C93 1.399 . S
C93 C92 1.399 . S
C93 C94 1.381 1_455 S
C94 H86 0.930 . S
C94 C90 1.390 . S
C94 C93 1.381 1_655 S
N95 C88 1.286 . S
N95 C91 1.413 . S
H96 C101 0.930 . S
H97 C104 0.930 . S
H98 C106 0.930 . S
H99 C100 1.016 . S
C100 H99 1.016 . S
C100 N107 1.286 . S
C101 H96 0.930 . S
C101 C102 1.397 . S
C101 C103 1.361 . S
C102 C101 1.397 . S
C102 C106 1.390 . S
C103 C101 1.361 . S
C103 C104 1.393 1_455 S
C103 N107 1.413 1_455 S
C104 H97 0.930 . S
C104 C103 1.393 1_655 S
C104 C105 1.399 1_655 S
C105 C104 1.399 1_455 S
C105 C106 1.381 . S
C106 H98 0.930 . S
C106 C102 1.390 . S
C106 C105 1.381 . S
N107 C100 1.286 . S
N107 C103 1.413 1_655 S
H108 C113 0.930 . S
H109 C116 0.930 1_565 S
H110 C118 0.930 . S
H111 C112 1.016 . S
C112 H111 1.016 . S
C112 N119 1.286 . S
C113 H108 0.930 . S
C113 C114 1.397 . S
C113 C115 1.361 . S
C114 C113 1.397 . S
C114 C118 1.390 . S
C115 C113 1.361 . S
C115 C116 1.393 . S
C115 N119 1.413 1_545 S
C116 H109 0.930 1_545 S
C116 C115 1.393 . S
C116 C117 1.399 . S
C117 C116 1.399 . S
C117 C118 1.381 . S
C118 H110 0.930 . S
C118 C114 1.390 . S
C118 C117 1.381 . S
N119 C112 1.286 . S
N119 C115 1.413 1_565 S
H120 C125 0.930 . S
H121 C128 0.930 . S
H122 C130 0.930 . S
H123 C124 1.016 . S
C124 H123 1.016 . S
C124 N131 1.286 . S
C125 H120 0.930 . S
C125 C126 1.397 . S
C125 C127 1.361 . S
C126 C125 1.397 . S
C126 C130 1.390 . S
C127 C125 1.361 . S
C127 C128 1.393 . S
C127 N131 1.413 . S
C128 H121 0.930 . S
C128 C127 1.393 . S
C128 C129 1.399 . S
C129 C128 1.399 . S
C129 C130 1.381 . S
C130 H122 0.930 . S
C130 C126 1.390 . S
C130 C129 1.381 . S
N131 C124 1.286 . S
N131 C127 1.413 . S
H132 C150 0.951 . S
H133 C152 0.951 . S
H134 C154 0.950 . S
H135 C155 0.950 . S
H136 C157 0.950 . S
H137 C160 0.950 . S
H138 C161 0.950 . S
H139 C163 0.950 . S
H140 C164 0.950 . S
H141 C165 0.951 . S
H142 C167 0.951 . S
H143 C169 0.950 . S
H144 C170 0.950 . S
H145 C172 0.950 . S
H146 C175 0.950 . S
H147 C176 0.950 . S
H148 C178 0.950 . S
H149 C179 0.950 . S
C150 H132 0.951 . S
C150 C151 1.366 . S
C150 C152 1.388 . S
C151 C150 1.366 . S
C151 C155 1.385 . S
C152 H133 0.951 . S
C152 C150 1.388 . S
C152 C153 1.366 . S
C153 C152 1.366 . S
C153 C154 1.414 . S
C153 C156 1.499 . S
C154 H134 0.950 . S
C154 C153 1.414 . S
C154 C155 1.374 . S
C155 H135 0.950 . S
C155 C151 1.385 . S
C155 C154 1.374 . S
C156 C153 1.499 . S
C156 C157 1.373 . S
C156 C158 1.389 . S
C157 H136 0.950 . S
C157 C156 1.373 . S
C157 C173 1.377 . S
C158 C156 1.389 . S
C158 C159 1.524 . S
C158 C172 1.377 . S
C159 C158 1.524 . S
C159 C160 1.397 . S
C159 C164 1.363 . S
C160 H137 0.950 . S
C160 C159 1.397 . S
C160 C161 1.334 . S
C161 H138 0.950 . S
C161 C160 1.334 . S
C161 C162 1.287 . S
C162 C161 1.287 . S
C162 C163 1.524 . S
C162 H181 0.913 . S
C163 H139 0.950 . S
C163 C162 1.524 . S
C163 C164 1.415 . S
C164 H140 0.950 . S
C164 C159 1.363 . S
C164 C163 1.415 . S
C165 H141 0.951 . S
C165 C166 1.366 . S
C165 C167 1.388 . S
C166 C165 1.366 . S
C166 C170 1.385 . S
C167 H142 0.951 . S
C167 C165 1.388 . S
C167 C168 1.366 . S
C168 C167 1.366 . S
C168 C169 1.414 . S
C168 C171 1.499 . S
C169 H143 0.950 . S
C169 C168 1.414 . S
C169 C170 1.374 . S
C170 H144 0.950 . S
C170 C166 1.385 . S
C170 C169 1.374 . S
C171 C168 1.499 . S
C171 C172 1.373 . S
C171 C173 1.389 . S
C172 H145 0.950 . S
C172 C158 1.377 . S
C172 C171 1.373 . S
C173 C157 1.377 . S
C173 C171 1.389 . S
C173 C174 1.524 . S
C174 C173 1.524 . S
C174 C175 1.397 . S
C174 C179 1.363 . S
C175 H146 0.950 . S
C175 C174 1.397 . S
C175 C176 1.334 . S
C176 H147 0.950 . S
C176 C175 1.334 . S
C176 C177 1.287 . S
C177 C176 1.287 . S
C177 C178 1.524 . S
C177 H180 0.999 . S
C178 H148 0.950 . S
C178 C177 1.524 . S
C178 C179 1.415 . S
C179 H149 0.950 . S
C179 C174 1.363 . S
C179 C178 1.415 . S
H180 C177 0.999 . S
H181 C162 0.913 . S
H182 C200 0.951 . S
H183 C202 0.951 . S
H184 C204 0.950 . S
H185 C205 0.950 . S
H186 C207 0.950 . S
H187 C210 0.950 . S
H188 C211 0.950 . S
H189 C213 0.950 . S
H190 C214 0.950 . S
H191 C215 0.951 . S
H192 C217 0.951 . S
H193 C219 0.950 . S
H194 C220 0.950 . S
H195 C222 0.950 . S
H196 C225 0.950 . S
H197 C226 0.950 . S
H198 C228 0.950 . S
H199 C229 0.950 . S
C200 H182 0.951 . S
C200 C201 1.366 . S
C200 C202 1.388 . S
C201 C200 1.366 . S
C201 C205 1.385 . S
C202 H183 0.951 . S
C202 C200 1.388 . S
C202 C203 1.366 . S
C203 C202 1.366 . S
C203 C204 1.414 . S
C203 C206 1.499 . S
C204 H184 0.950 . S
C204 C203 1.414 . S
C204 C205 1.374 . S
C205 H185 0.950 . S
C205 C201 1.385 . S
C205 C204 1.374 . S
C206 C203 1.499 . S
C206 C207 1.373 . S
C206 C208 1.389 . S
C207 H186 0.950 . S
C207 C206 1.373 . S
C207 C223 1.377 . S
C208 C206 1.389 . S
C208 C209 1.524 . S
C208 C222 1.377 . S
C209 C208 1.524 . S
C209 C210 1.397 . S
C209 C214 1.363 . S
C210 H187 0.950 . S
C210 C209 1.397 . S
C210 C211 1.334 . S
C211 H188 0.950 . S
C211 C210 1.334 . S
C211 C212 1.287 . S
C212 C211 1.287 . S
C212 C213 1.524 . S
C212 H231 0.913 . S
C213 H189 0.950 . S
C213 C212 1.524 . S
C213 C214 1.415 . S
C214 H190 0.950 . S
C214 C209 1.363 . S
C214 C213 1.415 . S
C215 H191 0.951 . S
C215 C216 1.366 . S
C215 C217 1.388 . S
C216 C215 1.366 . S
C216 C220 1.385 . S
C217 H192 0.951 . S
C217 C215 1.388 . S
C217 C218 1.366 . S
C218 C217 1.366 . S
C218 C219 1.414 . S
C218 C221 1.499 . S
C219 H193 0.950 . S
C219 C218 1.414 . S
C219 C220 1.374 . S
C220 H194 0.950 . S
C220 C216 1.385 . S
C220 C219 1.374 . S
C221 C218 1.499 . S
C221 C222 1.373 . S
C221 C223 1.389 . S
C222 H195 0.950 . S
C222 C208 1.377 . S
C222 C221 1.373 . S
C223 C207 1.377 . S
C223 C221 1.389 . S
C223 C224 1.524 . S
C224 C223 1.524 . S
C224 C225 1.397 . S
C224 C229 1.363 . S
C225 H196 0.950 . S
C225 C224 1.397 . S
C225 C226 1.334 . S
C226 H197 0.950 . S
C226 C225 1.334 . S
C226 C227 1.287 . S
C227 C226 1.287 . S
C227 C228 1.524 . S
C227 H230 0.999 . S
C228 H198 0.950 . S
C228 C227 1.524 . S
C228 C229 1.415 . S
C229 H199 0.950 . S
C229 C224 1.363 . S
C229 C228 1.415 . S
H230 C227 0.999 . S
H231 C212 0.913 . S
H232 C250 0.951 . S
H233 C252 0.951 . S
H234 C254 0.950 . S
H235 C255 0.950 . S
H236 C257 0.950 . S
H237 C260 0.950 . S
H238 C261 0.950 . S
H239 C263 0.950 . S
H240 C264 0.950 . S
H241 C265 0.951 . S
H242 C267 0.951 . S
H243 C269 0.950 . S
H244 C270 0.950 . S
H245 C272 0.950 . S
H246 C275 0.950 . S
H247 C276 0.950 . S
H248 C278 0.950 . S
H249 C279 0.950 . S
C250 H232 0.951 . S
C250 C251 1.366 . S
C250 C252 1.388 . S
C251 C250 1.366 . S
C251 C255 1.385 . S
C252 H233 0.951 . S
C252 C250 1.388 . S
C252 C253 1.366 . S
C253 C252 1.366 . S
C253 C254 1.414 . S
C253 C256 1.499 . S
C254 H234 0.950 . S
C254 C253 1.414 . S
C254 C255 1.374 . S
C255 H235 0.950 . S
C255 C251 1.385 . S
C255 C254 1.374 . S
C256 C253 1.499 . S
C256 C257 1.373 . S
C256 C258 1.389 . S
C257 H236 0.950 . S
C257 C256 1.373 . S
C257 C273 1.377 . S
C258 C256 1.389 . S
C258 C259 1.524 . S
C258 C272 1.377 . S
C259 C258 1.524 . S
C259 C260 1.397 . S
C259 C264 1.363 . S
C260 H237 0.950 . S
C260 C259 1.397 . S
C260 C261 1.334 . S
C261 H238 0.950 . S
C261 C260 1.334 . S
C261 C262 1.287 . S
C262 C261 1.287 . S
C262 C263 1.524 . S
C262 H281 0.913 . S
C263 H239 0.950 . S
C263 C262 1.524 . S
C263 C264 1.415 . S
C264 H240 0.950 . S
C264 C259 1.363 . S
C264 C263 1.415 . S
C265 H241 0.951 . S
C265 C266 1.366 . S
C265 C267 1.388 . S
C266 C265 1.366 . S
C266 C270 1.385 . S
C267 H242 0.951 . S
C267 C265 1.388 . S
C267 C268 1.366 . S
C268 C267 1.366 . S
C268 C269 1.414 . S
C268 C271 1.499 . S
C269 H243 0.950 . S
C269 C268 1.414 . S
C269 C270 1.374 . S
C270 H244 0.950 . S
C270 C266 1.385 . S
C270 C269 1.374 . S
C271 C268 1.499 . S
C271 C272 1.373 . S
C271 C273 1.389 . S
C272 H245 0.950 . S
C272 C258 1.377 . S
C272 C271 1.373 . S
C273 C257 1.377 . S
C273 C271 1.389 . S
C273 C274 1.524 . S
C274 C273 1.524 . S
C274 C275 1.397 . S
C274 C279 1.363 . S
C275 H246 0.950 . S
C275 C274 1.397 . S
C275 C276 1.334 . S
C276 H247 0.950 . S
C276 C275 1.334 . S
C276 C277 1.287 . S
C277 C276 1.287 . S
C277 C278 1.524 . S
C277 H280 0.999 . S
C278 H248 0.950 . S
C278 C277 1.524 . S
C278 C279 1.415 . S
C279 H249 0.950 . S
C279 C274 1.363 . S
C279 C278 1.415 . S
H280 C277 0.999 . S
H281 C262 0.913 . S
H282 C300 0.951 . S
H283 C302 0.951 . S
H284 C304 0.950 . S
H285 C305 0.950 . S
H286 C307 0.950 . S
H287 C310 0.950 . S
H288 C311 0.950 . S
H289 C313 0.950 . S
H290 C314 0.950 . S
H291 C315 0.951 . S
H292 C317 0.951 . S
H293 C319 0.950 . S
H294 C320 0.950 . S
H295 C322 0.950 . S
H296 C325 0.950 . S
H297 C326 0.950 . S
H298 C328 0.950 . S
H299 C329 0.950 . S
C300 H282 0.951 . S
C300 C301 1.366 . S
C300 C302 1.388 . S
C301 C300 1.366 . S
C301 C305 1.385 . S
C302 H283 0.951 . S
C302 C300 1.388 . S
C302 C303 1.366 . S
C303 C302 1.366 . S
C303 C304 1.414 . S
C303 C306 1.499 . S
C304 H284 0.950 . S
C304 C303 1.414 . S
C304 C305 1.374 . S
C305 H285 0.950 . S
C305 C301 1.385 . S
C305 C304 1.374 . S
C306 C303 1.499 . S
C306 C307 1.373 . S
C306 C308 1.389 . S
C307 H286 0.950 . S
C307 C306 1.373 . S
C307 C323 1.377 . S
C308 C306 1.389 . S
C308 C309 1.524 . S
C308 C322 1.377 . S
C309 C308 1.524 . S
C309 C310 1.397 . S
C309 C314 1.363 . S
C310 H287 0.950 . S
C310 C309 1.397 . S
C310 C311 1.334 . S
C311 H288 0.950 . S
C311 C310 1.334 . S
C311 C312 1.287 . S
C312 C311 1.287 . S
C312 C313 1.524 . S
C312 H331 0.913 . S
C313 H289 0.950 . S
C313 C312 1.524 . S
C313 C314 1.415 . S
C314 H290 0.950 . S
C314 C309 1.363 . S
C314 C313 1.415 . S
C315 H291 0.951 . S
C315 C316 1.366 . S
C315 C317 1.388 . S
C316 C315 1.366 . S
C316 C320 1.385 . S
C317 H292 0.951 . S
C317 C315 1.388 . S
C317 C318 1.366 . S
C318 C317 1.366 . S
C318 C319 1.414 . S
C318 C321 1.499 . S
C319 H293 0.950 . S
C319 C318 1.414 . S
C319 C320 1.374 . S
C320 H294 0.950 . S
C320 C316 1.385 . S
C320 C319 1.374 . S
C321 C318 1.499 . S
C321 C322 1.373 . S
C321 C323 1.389 . S
C322 H295 0.950 . S
C322 C308 1.377 . S
C322 C321 1.373 . S
C323 C307 1.377 . S
C323 C321 1.389 . S
C323 C324 1.524 . S
C324 C323 1.524 . S
C324 C325 1.397 . S
C324 C329 1.363 . S
C325 H296 0.950 . S
C325 C324 1.397 . S
C325 C326 1.334 . S
C326 H297 0.950 . S
C326 C325 1.334 . S
C326 C327 1.287 . S
C327 C326 1.287 . S
C327 C328 1.524 . S
C327 H330 0.999 . S
C328 H298 0.950 . S
C328 C327 1.524 . S
C328 C329 1.415 . S
C329 H299 0.950 . S
C329 C324 1.363 . S
C329 C328 1.415 . S
H330 C327 0.999 . S
H331 C312 0.913 . S
H332 C350 0.951 . S
H333 C352 0.951 . S
H334 C354 0.950 . S
H335 C355 0.950 . S
H336 C357 0.950 . S
H337 C360 0.950 . S
H338 C361 0.950 . S
H339 C363 0.950 . S
H340 C364 0.950 . S
H341 C365 0.951 . S
H342 C367 0.951 . S
H343 C369 0.950 . S
H344 C370 0.950 . S
H345 C372 0.950 . S
H346 C375 0.950 . S
H347 C376 0.950 . S
H348 C378 0.950 . S
H349 C379 0.950 . S
C350 H332 0.951 . S
C350 C351 1.366 . S
C350 C352 1.388 . S
C351 C350 1.366 . S
C351 C355 1.385 . S
C352 H333 0.951 . S
C352 C350 1.388 . S
C352 C353 1.366 . S
C353 C352 1.366 . S
C353 C354 1.414 . S
C353 C356 1.499 . S
C354 H334 0.950 . S
C354 C353 1.414 . S
C354 C355 1.374 . S
C355 H335 0.950 . S
C355 C351 1.385 . S
C355 C354 1.374 . S
C356 C353 1.499 . S
C356 C357 1.373 . S
C356 C358 1.389 . S
C357 H336 0.950 . S
C357 C356 1.373 . S
C357 C373 1.377 . S
C358 C356 1.389 . S
C358 C359 1.524 . S
C358 C372 1.377 . S
C359 C358 1.524 . S
C359 C360 1.397 . S
C359 C364 1.363 . S
C360 H337 0.950 . S
C360 C359 1.397 . S
C360 C361 1.334 . S
C361 H338 0.950 . S
C361 C360 1.334 . S
C361 C362 1.287 . S
C362 C361 1.287 . S
C362 C363 1.524 . S
C362 H381 0.913 . S
C363 H339 0.950 . S
C363 C362 1.524 . S
C363 C364 1.415 . S
C364 H340 0.950 . S
C364 C359 1.363 . S
C364 C363 1.415 . S
C365 H341 0.951 . S
C365 C366 1.366 . S
C365 C367 1.388 . S
C366 C365 1.366 . S
C366 C370 1.385 . S
C367 H342 0.951 . S
C367 C365 1.388 . S
C367 C368 1.366 . S
C368 C367 1.366 . S
C368 C369 1.414 . S
C368 C371 1.499 . S
C369 H343 0.950 . S
C369 C368 1.414 . S
C369 C370 1.374 . S
C370 H344 0.950 . S
C370 C366 1.385 . S
C370 C369 1.374 . S
C371 C368 1.499 . S
C371 C372 1.373 . S
C371 C373 1.389 . S
C372 H345 0.950 . S
C372 C358 1.377 . S
C372 C371 1.373 . S
C373 C357 1.377 . S
C373 C371 1.389 . S
C373 C374 1.524 . S
C374 C373 1.524 . S
C374 C375 1.397 . S
C374 C379 1.363 . S
C375 H346 0.950 . S
C375 C374 1.397 . S
C375 C376 1.334 . S
C376 H347 0.950 . S
C376 C375 1.334 . S
C376 C377 1.287 . S
C377 C376 1.287 . S
C377 C378 1.524 . S
C377 H380 0.999 . S
C378 H348 0.950 . S
C378 C377 1.524 . S
C378 C379 1.415 . S
C379 H349 0.950 . S
C379 C374 1.363 . S
C379 C378 1.415 . S
H380 C377 0.999 . S
H381 C362 0.913 . S
H382 C400 0.951 . S
H383 C402 0.951 . S
H384 C404 0.950 . S
H385 C405 0.950 . S
H386 C407 0.950 . S
H387 C410 0.950 . S
H388 C411 0.950 . S
H389 C413 0.950 . S
H390 C414 0.950 . S
H391 C415 0.951 . S
H392 C417 0.951 . S
H393 C419 0.950 . S
H394 C420 0.950 . S
H395 C422 0.950 . S
H396 C425 0.950 . S
H397 C426 0.950 . S
H398 C428 0.950 . S
H399 C429 0.950 . S
C400 H382 0.951 . S
C400 C401 1.366 . S
C400 C402 1.388 . S
C401 C400 1.366 . S
C401 C405 1.385 . S
C402 H383 0.951 . S
C402 C400 1.388 . S
C402 C403 1.366 . S
C403 C402 1.366 . S
C403 C404 1.414 . S
C403 C406 1.499 . S
C404 H384 0.950 . S
C404 C403 1.414 . S
C404 C405 1.374 . S
C405 H385 0.950 . S
C405 C401 1.385 . S
C405 C404 1.374 . S
C406 C403 1.499 . S
C406 C407 1.373 . S
C406 C408 1.389 . S
C407 H386 0.950 . S
C407 C406 1.373 . S
C407 C423 1.377 . S
C408 C406 1.389 . S
C408 C409 1.524 . S
C408 C422 1.377 . S
C409 C408 1.524 . S
C409 C410 1.397 . S
C409 C414 1.363 . S
C410 H387 0.950 . S
C410 C409 1.397 . S
C410 C411 1.334 . S
C411 H388 0.950 . S
C411 C410 1.334 . S
C411 C412 1.287 . S
C412 C411 1.287 . S
C412 C413 1.524 . S
C412 H431 0.913 . S
C413 H389 0.950 . S
C413 C412 1.524 . S
C413 C414 1.415 . S
C414 H390 0.950 . S
C414 C409 1.363 . S
C414 C413 1.415 . S
C415 H391 0.951 . S
C415 C416 1.366 . S
C415 C417 1.388 . S
C416 C415 1.366 . S
C416 C420 1.385 . S
C417 H392 0.951 . S
C417 C415 1.388 . S
C417 C418 1.366 . S
C418 C417 1.366 . S
C418 C419 1.414 . S
C418 C421 1.499 . S
C419 H393 0.950 . S
C419 C418 1.414 . S
C419 C420 1.374 . S
C420 H394 0.950 . S
C420 C416 1.385 . S
C420 C419 1.374 . S
C421 C418 1.499 . S
C421 C422 1.373 . S
C421 C423 1.389 . S
C422 H395 0.950 . S
C422 C408 1.377 . S
C422 C421 1.373 . S
C423 C407 1.377 . S
C423 C421 1.389 . S
C423 C424 1.524 . S
C424 C423 1.524 . S
C424 C425 1.397 . S
C424 C429 1.363 . S
C425 H396 0.950 . S
C425 C424 1.397 . S
C425 C426 1.334 . S
C426 H397 0.950 . S
C426 C425 1.334 . S
C426 C427 1.287 . S
C427 C426 1.287 . S
C427 C428 1.524 . S
C427 H430 0.999 . S
C428 H398 0.950 . S
C428 C427 1.524 . S
C428 C429 1.415 . S
C429 H399 0.950 . S
C429 C424 1.363 . S
C429 C428 1.415 . S
H430 C427 0.999 . S
H431 C412 0.913 . S
H432 C450 0.951 . S
H433 C452 0.951 . S
H434 C454 0.950 . S
H435 C455 0.950 . S
H436 C457 0.950 . S
H437 C460 0.950 . S
H438 C461 0.950 . S
H439 C463 0.950 . S
H440 C464 0.950 . S
H441 C465 0.951 . S
H442 C467 0.951 . S
H443 C469 0.950 . S
H444 C470 0.950 . S
H445 C472 0.950 . S
H446 C475 0.950 . S
H447 C476 0.950 . S
H448 C478 0.950 . S
H449 C479 0.950 . S
C450 H432 0.951 . S
C450 C451 1.366 . S
C450 C452 1.388 . S
C451 C450 1.366 . S
C451 C455 1.385 . S
C452 H433 0.951 . S
C452 C450 1.388 . S
C452 C453 1.366 . S
C453 C452 1.366 . S
C453 C454 1.414 . S
C453 C456 1.499 . S
C454 H434 0.950 . S
C454 C453 1.414 . S
C454 C455 1.374 . S
C455 H435 0.950 . S
C455 C451 1.385 . S
C455 C454 1.374 . S
C456 C453 1.499 . S
C456 C457 1.373 . S
C456 C458 1.389 . S
C457 H436 0.950 . S
C457 C456 1.373 . S
C457 C473 1.377 . S
C458 C456 1.389 . S
C458 C459 1.524 . S
C458 C472 1.377 . S
C459 C458 1.524 . S
C459 C460 1.397 . S
C459 C464 1.363 . S
C460 H437 0.950 . S
C460 C459 1.397 . S
C460 C461 1.334 . S
C461 H438 0.950 . S
C461 C460 1.334 . S
C461 C462 1.287 . S
C462 C461 1.287 . S
C462 C463 1.524 . S
C462 H481 0.913 . S
C463 H439 0.950 . S
C463 C462 1.524 . S
C463 C464 1.415 . S
C464 H440 0.950 . S
C464 C459 1.363 . S
C464 C463 1.415 . S
C465 H441 0.951 . S
C465 C466 1.366 . S
C465 C467 1.388 . S
C466 C465 1.366 . S
C466 C470 1.385 . S
C467 H442 0.951 . S
C467 C465 1.388 . S
C467 C468 1.366 . S
C468 C467 1.366 . S
C468 C469 1.414 . S
C468 C471 1.499 . S
C469 H443 0.950 . S
C469 C468 1.414 . S
C469 C470 1.374 . S
C470 H444 0.950 . S
C470 C466 1.385 . S
C470 C469 1.374 . S
C471 C468 1.499 . S
C471 C472 1.373 . S
C471 C473 1.389 . S
C472 H445 0.950 . S
C472 C458 1.377 . S
C472 C471 1.373 . S
C473 C457 1.377 . S
C473 C471 1.389 . S
C473 C474 1.524 . S
C474 C473 1.524 . S
C474 C475 1.397 . S
C474 C479 1.363 . S
C475 H446 0.950 . S
C475 C474 1.397 . S
C475 C476 1.334 . S
C476 H447 0.950 . S
C476 C475 1.334 . S
C476 C477 1.287 . S
C477 C476 1.287 . S
C477 C478 1.524 . S
C477 H480 0.999 . S
C478 H448 0.950 . S
C478 C477 1.524 . S
C478 C479 1.415 . S
C479 H449 0.950 . S
C479 C474 1.363 . S
C479 C478 1.415 . S
H480 C477 0.999 . S
H481 C462 0.913 . S
H482 C500 0.951 . S
H483 C502 0.951 . S
H484 C504 0.950 . S
H485 C505 0.950 . S
H486 C507 0.950 . S
H487 C510 0.950 . S
H488 C511 0.950 . S
H489 C513 0.950 . S
H490 C514 0.950 . S
H491 C515 0.951 . S
H492 C517 0.951 . S
H493 C519 0.950 . S
H494 C520 0.950 . S
H495 C522 0.950 . S
H496 C525 0.950 . S
H497 C526 0.950 . S
H498 C528 0.950 . S
H499 C529 0.950 . S
C500 H482 0.951 . S
C500 C501 1.366 . S
C500 C502 1.388 . S
C501 C500 1.366 . S
C501 C505 1.385 . S
C502 H483 0.951 . S
C502 C500 1.388 . S
C502 C503 1.366 . S
C503 C502 1.366 . S
C503 C504 1.414 . S
C503 C506 1.499 . S
C504 H484 0.950 . S
C504 C503 1.414 . S
C504 C505 1.374 . S
C505 H485 0.950 . S
C505 C501 1.385 . S
C505 C504 1.374 . S
C506 C503 1.499 . S
C506 C507 1.373 . S
C506 C508 1.389 . S
C507 H486 0.950 . S
C507 C506 1.373 . S
C507 C523 1.377 . S
C508 C506 1.389 . S
C508 C509 1.524 . S
C508 C522 1.377 . S
C509 C508 1.524 . S
C509 C510 1.397 . S
C509 C514 1.363 . S
C510 H487 0.950 . S
C510 C509 1.397 . S
C510 C511 1.334 . S
C511 H488 0.950 . S
C511 C510 1.334 . S
C511 C512 1.287 . S
C512 C511 1.287 . S
C512 C513 1.524 . S
C512 H531 0.913 . S
C513 H489 0.950 . S
C513 C512 1.524 . S
C513 C514 1.415 . S
C514 H490 0.950 . S
C514 C509 1.363 . S
C514 C513 1.415 . S
C515 H491 0.951 . S
C515 C516 1.366 . S
C515 C517 1.388 . S
C516 C515 1.366 . S
C516 C520 1.385 . S
C517 H492 0.951 . S
C517 C515 1.388 . S
C517 C518 1.366 . S
C518 C517 1.366 . S
C518 C519 1.414 . S
C518 C521 1.499 . S
C519 H493 0.950 . S
C519 C518 1.414 . S
C519 C520 1.374 . S
C520 H494 0.950 . S
C520 C516 1.385 . S
C520 C519 1.374 . S
C521 C518 1.499 . S
C521 C522 1.373 . S
C521 C523 1.389 . S
C522 H495 0.950 . S
C522 C508 1.377 . S
C522 C521 1.373 . S
C523 C507 1.377 . S
C523 C521 1.389 . S
C523 C524 1.524 . S
C524 C523 1.524 . S
C524 C525 1.397 . S
C524 C529 1.363 . S
C525 H496 0.950 . S
C525 C524 1.397 . S
C525 C526 1.334 . S
C526 H497 0.950 . S
C526 C525 1.334 . S
C526 C527 1.287 . S
C527 C526 1.287 . S
C527 C528 1.524 . S
C527 H530 0.999 . S
C528 H498 0.950 . S
C528 C527 1.524 . S
C528 C529 1.415 . S
C529 H499 0.950 . S
C529 C524 1.363 . S
C529 C528 1.415 . S
H530 C527 0.999 . S
H531 C512 0.913 . S
H532 C550 0.951 . S
H533 C552 0.951 . S
H534 C554 0.950 . S
H535 C555 0.950 . S
H536 C557 0.950 . S
H537 C560 0.950 . S
H538 C561 0.950 . S
H539 C563 0.950 . S
H540 C564 0.950 . S
H541 C565 0.951 1_545 S
H542 C567 0.951 . S
H543 C569 0.950 . S
H544 C570 0.950 . S
H545 C572 0.950 . S
H546 C575 0.950 . S
H547 C576 0.950 . S
H548 C578 0.950 . S
H549 C579 0.950 . S
C550 H532 0.951 . S
C550 C551 1.366 . S
C550 C552 1.388 . S
C551 C550 1.366 . S
C551 C555 1.385 . S
C552 H533 0.951 . S
C552 C550 1.388 . S
C552 C553 1.366 . S
C553 C552 1.366 . S
C553 C554 1.414 . S
C553 C556 1.499 . S
C554 H534 0.950 . S
C554 C553 1.414 . S
C554 C555 1.374 . S
C555 H535 0.950 . S
C555 C551 1.385 . S
C555 C554 1.374 . S
C556 C553 1.499 . S
C556 C557 1.373 . S
C556 C558 1.389 . S
C557 H536 0.950 . S
C557 C556 1.373 . S
C557 C573 1.377 . S
C558 C556 1.389 . S
C558 C559 1.524 . S
C558 C572 1.377 . S
C559 C558 1.524 . S
C559 C560 1.397 . S
C559 C564 1.363 . S
C560 H537 0.950 . S
C560 C559 1.397 . S
C560 C561 1.334 . S
C561 H538 0.950 . S
C561 C560 1.334 . S
C561 C562 1.287 . S
C562 C561 1.287 . S
C562 C563 1.524 . S
C562 H581 0.913 . S
C563 H539 0.950 . S
C563 C562 1.524 . S
C563 C564 1.415 . S
C564 H540 0.950 . S
C564 C559 1.363 . S
C564 C563 1.415 . S
C565 H541 0.951 1_565 S
C565 C566 1.366 . S
C565 C567 1.388 . S
C566 C565 1.366 . S
C566 C570 1.385 . S
C567 H542 0.951 . S
C567 C565 1.388 . S
C567 C568 1.366 . S
C568 C567 1.366 . S
C568 C569 1.414 . S
C568 C571 1.499 . S
C569 H543 0.950 . S
C569 C568 1.414 . S
C569 C570 1.374 . S
C570 H544 0.950 . S
C570 C566 1.385 . S
C570 C569 1.374 . S
C571 C568 1.499 . S
C571 C572 1.373 . S
C571 C573 1.389 . S
C572 H545 0.950 . S
C572 C558 1.377 . S
C572 C571 1.373 . S
C573 C557 1.377 . S
C573 C571 1.389 . S
C573 C574 1.524 . S
C574 C573 1.524 . S
C574 C575 1.397 . S
C574 C579 1.363 . S
C575 H546 0.950 . S
C575 C574 1.397 . S
C575 C576 1.334 . S
C576 H547 0.950 . S
C576 C575 1.334 . S
C576 C577 1.287 . S
C577 C576 1.287 . S
C577 C578 1.524 . S
C577 H580 0.999 . S
C578 H548 0.950 . S
C578 C577 1.524 . S
C578 C579 1.415 . S
C579 H549 0.950 . S
C579 C574 1.363 . S
C579 C578 1.415 . S
H580 C577 0.999 . S
H581 C562 0.913 . S
H582 C600 0.951 . S
H583 C602 0.951 . S
H584 C604 0.950 . S
H585 C605 0.950 . S
H586 C607 0.950 . S
H587 C610 0.950 . S
H588 C611 0.950 . S
H589 C613 0.950 . S
H590 C614 0.950 . S
H591 C615 0.951 . S
H592 C617 0.951 . S
H593 C619 0.950 . S
H594 C620 0.950 . S
H595 C622 0.950 . S
H596 C625 0.950 . S
H597 C626 0.950 . S
H598 C628 0.950 . S
H599 C629 0.950 . S
C600 H582 0.951 . S
C600 C601 1.366 . S
C600 C602 1.388 . S
C601 C600 1.366 . S
C601 C605 1.385 . S
C602 H583 0.951 . S
C602 C600 1.388 . S
C602 C603 1.366 . S
C603 C602 1.366 . S
C603 C604 1.414 . S
C603 C606 1.499 . S
C604 H584 0.950 . S
C604 C603 1.414 . S
C604 C605 1.374 . S
C605 H585 0.950 . S
C605 C601 1.385 . S
C605 C604 1.374 . S
C606 C603 1.499 . S
C606 C607 1.373 . S
C606 C608 1.389 . S
C607 H586 0.950 . S
C607 C606 1.373 . S
C607 C623 1.377 . S
C608 C606 1.389 . S
C608 C609 1.524 . S
C608 C622 1.377 . S
C609 C608 1.524 . S
C609 C610 1.397 . S
C609 C614 1.363 . S
C610 H587 0.950 . S
C610 C609 1.397 . S
C610 C611 1.334 . S
C611 H588 0.950 . S
C611 C610 1.334 . S
C611 C612 1.287 . S
C612 C611 1.287 . S
C612 C613 1.524 . S
C612 H631 0.913 . S
C613 H589 0.950 . S
C613 C612 1.524 . S
C613 C614 1.415 . S
C614 H590 0.950 . S
C614 C609 1.363 . S
C614 C613 1.415 . S
C615 H591 0.951 . S
C615 C616 1.366 . S
C615 C617 1.388 . S
C616 C615 1.366 . S
C616 C620 1.385 . S
C617 H592 0.951 . S
C617 C615 1.388 . S
C617 C618 1.366 . S
C618 C617 1.366 . S
C618 C619 1.414 . S
C618 C621 1.499 . S
C619 H593 0.950 . S
C619 C618 1.414 . S
C619 C620 1.374 . S
C620 H594 0.950 . S
C620 C616 1.385 . S
C620 C619 1.374 . S
C621 C618 1.499 . S
C621 C622 1.373 . S
C621 C623 1.389 . S
C622 H595 0.950 . S
C622 C608 1.377 . S
C622 C621 1.373 . S
C623 C607 1.377 . S
C623 C621 1.389 . S
C623 C624 1.524 . S
C624 C623 1.524 . S
C624 C625 1.397 . S
C624 C629 1.363 . S
C625 H596 0.950 . S
C625 C624 1.397 . S
C625 C626 1.334 . S
C626 H597 0.950 . S
C626 C625 1.334 . S
C626 C627 1.287 . S
C627 C626 1.287 . S
C627 C628 1.524 . S
C627 H630 0.999 . S
C628 H598 0.950 . S
C628 C627 1.524 . S
C628 C629 1.415 . S
C629 H599 0.950 . S
C629 C624 1.363 . S
C629 C628 1.415 . S
H630 C627 0.999 . S
H631 C612 0.913 . S
H632 C650 0.951 . S
H633 C652 0.951 . S
H634 C654 0.950 . S
H635 C655 0.950 . S
H636 C657 0.950 . S
H637 C660 0.950 . S
H638 C661 0.950 . S
H639 C663 0.950 . S
H640 C664 0.950 . S
H641 C665 0.951 . S
H642 C667 0.951 . S
H643 C669 0.950 . S
H644 C670 0.950 . S
H645 C672 0.950 . S
H646 C675 0.950 . S
H647 C676 0.950 . S
H648 C678 0.950 . S
H649 C679 0.950 . S
C650 H632 0.951 . S
C650 C651 1.366 . S
C650 C652 1.388 . S
C651 C650 1.366 . S
C651 C655 1.385 . S
C652 H633 0.951 . S
C652 C650 1.388 . S
C652 C653 1.366 . S
C653 C652 1.366 . S
C653 C654 1.414 . S
C653 C656 1.499 . S
C654 H634 0.950 . S
C654 C653 1.414 . S
C654 C655 1.374 . S
C655 H635 0.950 . S
C655 C651 1.385 . S
C655 C654 1.374 . S
C656 C653 1.499 . S
C656 C657 1.373 . S
C656 C658 1.389 . S
C657 H636 0.950 . S
C657 C656 1.373 . S
C657 C673 1.377 . S
C658 C656 1.389 . S
C658 C659 1.524 . S
C658 C672 1.377 . S
C659 C658 1.524 . S
C659 C660 1.397 . S
C659 C664 1.363 . S
C660 H637 0.950 . S
C660 C659 1.397 . S
C660 C661 1.334 . S
C661 H638 0.950 . S
C661 C660 1.334 . S
C661 C662 1.287 . S
C662 C661 1.287 . S
C662 C663 1.524 . S
C662 H681 0.913 . S
C663 H639 0.950 . S
C663 C662 1.524 . S
C663 C664 1.415 . S
C664 H640 0.950 . S
C664 C659 1.363 . S
C664 C663 1.415 . S
C665 H641 0.951 . S
C665 C666 1.366 . S
C665 C667 1.388 . S
C666 C665 1.366 . S
C666 C670 1.385 . S
C667 H642 0.951 . S
C667 C665 1.388 . S
C667 C668 1.366 . S
C668 C667 1.366 . S
C668 C669 1.414 . S
C668 C671 1.499 . S
C669 H643 0.950 . S
C669 C668 1.414 . S
C669 C670 1.374 . S
C670 H644 0.950 . S
C670 C666 1.385 . S
C670 C669 1.374 . S
C671 C668 1.499 . S
C671 C672 1.373 . S
C671 C673 1.389 . S
C672 H645 0.950 . S
C672 C658 1.377 . S
C672 C671 1.373 . S
C673 C657 1.377 . S
C673 C671 1.389 . S
C673 C674 1.524 . S
C674 C673 1.524 . S
C674 C675 1.397 . S
C674 C679 1.363 . S
C675 H646 0.950 . S
C675 C674 1.397 . S
C675 C676 1.334 . S
C676 H647 0.950 . S
C676 C675 1.334 . S
C676 C677 1.287 . S
C677 C676 1.287 . S
C677 C678 1.524 . S
C677 H680 0.999 . S
C678 H648 0.950 . S
C678 C677 1.524 . S
C678 C679 1.415 . S
C679 H649 0.950 . S
C679 C674 1.363 . S
C679 C678 1.415 . S
H680 C677 0.999 . S
H681 C662 0.913 . S
H682 C700 0.951 . S
H683 C702 0.951 . S
H684 C704 0.950 . S
H685 C705 0.950 . S
H686 C707 0.950 . S
H687 C710 0.950 . S
H688 C711 0.950 . S
H689 C713 0.950 . S
H690 C714 0.950 . S
H691 C715 0.951 . S
H692 C717 0.951 . S
H693 C719 0.950 . S
H694 C720 0.950 . S
H695 C722 0.950 . S
H696 C725 0.950 . S
H697 C726 0.950 . S
H698 C728 0.950 . S
H699 C729 0.950 . S
C700 H682 0.951 . S
C700 C701 1.366 . S
C700 C702 1.388 . S
C701 C700 1.366 . S
C701 C705 1.385 . S
C702 H683 0.951 . S
C702 C700 1.388 . S
C702 C703 1.366 . S
C703 C702 1.366 . S
C703 C704 1.414 . S
C703 C706 1.499 . S
C704 H684 0.950 . S
C704 C703 1.414 . S
C704 C705 1.374 . S
C705 H685 0.950 . S
C705 C701 1.385 . S
C705 C704 1.374 . S
C706 C703 1.499 . S
C706 C707 1.373 . S
C706 C708 1.389 . S
C707 H686 0.950 . S
C707 C706 1.373 . S
C707 C723 1.377 . S
C708 C706 1.389 . S
C708 C709 1.524 . S
C708 C722 1.377 . S
C709 C708 1.524 . S
C709 C710 1.397 . S
C709 C714 1.363 . S
C710 H687 0.950 . S
C710 C709 1.397 . S
C710 C711 1.334 . S
C711 H688 0.950 . S
C711 C710 1.334 . S
C711 C712 1.287 . S
C712 C711 1.287 . S
C712 C713 1.524 . S
C712 H731 0.913 . S
C713 H689 0.950 . S
C713 C712 1.524 . S
C713 C714 1.415 . S
C714 H690 0.950 . S
C714 C709 1.363 . S
C714 C713 1.415 . S
C715 H691 0.951 . S
C715 C716 1.366 . S
C715 C717 1.388 . S
C716 C715 1.366 . S
C716 C720 1.385 . S
C717 H692 0.951 . S
C717 C715 1.388 . S
C717 C718 1.366 . S
C718 C717 1.366 . S
C718 C719 1.414 . S
C718 C721 1.499 . S
C719 H693 0.950 . S
C719 C718 1.414 . S
C719 C720 1.374 . S
C720 H694 0.950 . S
C720 C716 1.385 . S
C720 C719 1.374 . S
C721 C718 1.499 . S
C721 C722 1.373 . S
C721 C723 1.389 . S
C722 H695 0.950 . S
C722 C708 1.377 . S
C722 C721 1.373 . S
C723 C707 1.377 . S
C723 C721 1.389 . S
C723 C724 1.524 . S
C724 C723 1.524 . S
C724 C725 1.397 . S
C724 C729 1.363 . S
C725 H696 0.950 . S
C725 C724 1.397 . S
C725 C726 1.334 . S
C726 H697 0.950 . S
C726 C725 1.334 . S
C726 C727 1.287 . S
C727 C726 1.287 . S
C727 C728 1.524 . S
C727 H730 0.999 . S
C728 H698 0.950 . S
C728 C727 1.524 . S
C728 C729 1.415 . S
C729 H699 0.950 . S
C729 C724 1.363 . S
C729 C728 1.415 . S
H730 C727 0.999 . S
H731 C712 0.913 . S
H732 C750 0.951 1_655 S
H733 C752 0.951 1_655 S
H734 C754 0.950 . S
H735 C755 0.950 . S
H736 C757 0.950 . S
H737 C760 0.950 . S
H738 C761 0.950 . S
H739 C763 0.950 . S
H740 C764 0.950 . S
H741 C765 0.951 . S
H742 C767 0.951 . S
H743 C769 0.950 1_655 S
H744 C770 0.950 1_655 S
H745 C772 0.950 1_556 S
H746 C775 0.950 . S
H747 C776 0.950 . S
H748 C778 0.950 . S
H749 C779 0.950 . S
C750 H732 0.951 1_455 S
C750 C751 1.366 . S
C750 C752 1.388 . S
C751 C750 1.366 . S
C751 C755 1.385 . S
C752 H733 0.951 1_455 S
C752 C750 1.388 . S
C752 C753 1.366 . S
C753 C752 1.366 . S
C753 C754 1.414 . S
C753 C756 1.499 . S
C754 H734 0.950 . S
C754 C753 1.414 . S
C754 C755 1.374 . S
C755 H735 0.950 . S
C755 C751 1.385 . S
C755 C754 1.374 . S
C756 C753 1.499 . S
C756 C757 1.373 . S
C756 C758 1.389 1_455 S
C757 H736 0.950 . S
C757 C756 1.373 . S
C757 C773 1.377 . S
C758 C756 1.389 1_655 S
C758 C759 1.524 . S
C758 C772 1.377 . S
C759 C758 1.524 . S
C759 C760 1.397 . S
C759 C764 1.363 . S
C760 H737 0.950 . S
C760 C759 1.397 . S
C760 C761 1.334 . S
C761 H738 0.950 . S
C761 C760 1.334 . S
C761 C762 1.287 . S
C762 C761 1.287 . S
C762 C763 1.524 . S
C762 H781 0.913 . S
C763 H739 0.950 . S
C763 C762 1.524 . S
C763 C764 1.415 . S
C764 H740 0.950 . S
C764 C759 1.363 . S
C764 C763 1.415 . S
C765 H741 0.951 . S
C765 C766 1.366 . S
C765 C767 1.388 . S
C766 C765 1.366 . S
C766 C770 1.385 . S
C767 H742 0.951 . S
C767 C765 1.388 . S
C767 C768 1.366 . S
C768 C767 1.366 . S
C768 C769 1.414 . S
C768 C771 1.499 . S
C769 H743 0.950 1_455 S
C769 C768 1.414 . S
C769 C770 1.374 . S
C770 H744 0.950 1_455 S
C770 C766 1.385 . S
C770 C769 1.374 . S
C771 C768 1.499 . S
C771 C772 1.373 1_456 S
C771 C773 1.389 1_556 S
C772 H745 0.950 1_554 S
C772 C758 1.377 . S
C772 C771 1.373 1_654 S
C773 C757 1.377 . S
C773 C771 1.389 1_554 S
C773 C774 1.524 . S
C774 C773 1.524 . S
C774 C775 1.397 1_554 S
C774 C779 1.363 . S
C775 H746 0.950 . S
C775 C774 1.397 1_556 S
C775 C776 1.334 . S
C776 H747 0.950 . S
C776 C775 1.334 . S
C776 C777 1.287 . S
C777 C776 1.287 . S
C777 C778 1.524 1_556 S
C777 H780 0.999 . S
C778 H748 0.950 . S
C778 C777 1.524 1_554 S
C778 C779 1.415 . S
C779 H749 0.950 . S
C779 C774 1.363 . S
C779 C778 1.415 . S
H780 C777 0.999 . S
H781 C762 0.913 . S
H782 C800 0.951 1_565 S
H783 C802 0.951 1_565 S
H784 C804 0.950 . S
H785 C805 0.950 . S
H786 C807 0.950 . S
H787 C810 0.950 1_545 S
H788 C811 0.950 . S
H789 C813 0.950 . S
H790 C814 0.950 . S
H791 C815 0.951 . S
H792 C817 0.951 . S
H793 C819 0.950 1_565 S
H794 C820 0.960 . S
H795 C822 0.950 1_565 S
H796 C825 0.950 . S
H797 C826 0.950 . S
H798 C828 0.950 . S
H799 C829 0.950 . S
C800 H782 0.951 1_545 S
C800 C801 1.366 . S
C800 C802 1.388 . S
C801 C800 1.366 . S
C801 C805 1.385 . S
C802 H783 0.951 1_545 S
C802 C800 1.388 . S
C802 C803 1.366 . S
C803 C802 1.366 . S
C803 C804 1.414 . S
C803 C806 1.499 . S
C804 H784 0.950 . S
C804 C803 1.414 . S
C804 C805 1.374 . S
C805 H785 0.950 . S
C805 C801 1.385 . S
C805 C804 1.374 . S
C806 C803 1.499 . S
C806 C807 1.373 . S
C806 C808 1.389 . S
C807 H786 0.950 . S
C807 C806 1.373 . S
C807 C823 1.377 . S
C808 C806 1.389 . S
C808 C809 1.524 1_545 S
C808 C822 1.377 . S
C809 C808 1.524 1_565 S
C809 C810 1.397 . S
C809 C814 1.363 . S
C810 H787 0.950 1_565 S
C810 C809 1.397 . S
C810 C811 1.334 . S
C811 H788 0.950 . S
C811 C810 1.334 . S
C811 C812 1.287 . S
C812 C811 1.287 . S
C812 C813 1.524 . S
C812 H831 0.913 . S
C813 H789 0.950 . S
C813 C812 1.524 . S
C813 C814 1.415 . S
C814 H790 0.950 . S
C814 C809 1.363 . S
C814 C813 1.415 . S
C815 H791 0.951 . S
C815 C816 1.366 . S
C815 C817 1.388 . S
C816 C815 1.366 . S
C816 C820 1.385 . S
C817 H792 0.951 . S
C817 C815 1.388 . S
C817 C818 1.366 . S
C818 C817 1.366 . S
C818 C819 1.414 . S
C818 C821 1.499 . S
C819 H793 0.950 1_545 S
C819 C818 1.414 . S
C819 C820 1.374 . S
C820 H794 0.960 . S
C820 C816 1.385 . S
C820 C819 1.374 . S
C821 C818 1.499 . S
C821 C822 1.373 . S
C821 C823 1.389 . S
C822 H795 0.950 1_545 S
C822 C808 1.377 . S
C822 C821 1.373 . S
C823 C807 1.377 . S
C823 C821 1.389 . S
C823 C824 1.524 . S
C824 C823 1.524 . S
C824 C825 1.397 . S
C824 C829 1.363 . S
C825 H796 0.950 . S
C825 C824 1.397 . S
C825 C826 1.334 . S
C826 H797 0.950 . S
C826 C825 1.334 . S
C826 C827 1.287 . S
C827 C826 1.287 . S
C827 C828 1.524 . S
C827 H830 0.999 . S
C828 H798 0.950 . S
C828 C827 1.524 . S
C828 C829 1.415 . S
C829 H799 0.950 . S
C829 C824 1.363 . S
C829 C828 1.415 . S
H830 C827 0.999 . S
H831 C812 0.913 . S
H832 C850 0.951 . S
H833 C852 0.951 . S
H834 C854 0.950 . S
H835 C855 0.950 . S
H836 C857 0.950 . S
H837 C860 0.950 . S
H838 C861 0.950 . S
H839 C863 0.950 . S
H840 C864 0.950 . S
H841 C865 0.951 . S
H842 C867 0.951 . S
H843 C869 0.950 . S
H844 C870 0.950 . S
H845 C872 0.950 . S
H846 C875 0.950 . S
H847 C876 0.950 . S
H848 C878 0.950 . S
H849 C879 0.950 . S
C850 H832 0.951 . S
C850 C851 1.366 . S
C850 C852 1.388 . S
C851 C850 1.366 . S
C851 C855 1.385 . S
C852 H833 0.951 . S
C852 C850 1.388 . S
C852 C853 1.366 . S
C853 C852 1.366 . S
C853 C854 1.414 . S
C853 C856 1.499 . S
C854 H834 0.950 . S
C854 C853 1.414 . S
C854 C855 1.374 . S
C855 H835 0.950 . S
C855 C851 1.385 . S
C855 C854 1.374 . S
C856 C853 1.499 . S
C856 C857 1.373 . S
C856 C858 1.389 . S
C857 H836 0.950 . S
C857 C856 1.373 . S
C857 C873 1.377 . S
C858 C856 1.389 . S
C858 C859 1.524 . S
C858 C872 1.377 . S
C859 C858 1.524 . S
C859 C860 1.397 . S
C859 C864 1.363 . S
C860 H837 0.950 . S
C860 C859 1.397 . S
C860 C861 1.334 . S
C861 H838 0.950 . S
C861 C860 1.334 . S
C861 C862 1.287 . S
C862 C861 1.287 . S
C862 C863 1.524 . S
C862 H881 0.913 . S
C863 H839 0.950 . S
C863 C862 1.524 . S
C863 C864 1.415 . S
C864 H840 0.950 . S
C864 C859 1.363 . S
C864 C863 1.415 . S
C865 H841 0.951 . S
C865 C866 1.366 . S
C865 C867 1.388 . S
C866 C865 1.366 . S
C866 C870 1.385 . S
C867 H842 0.951 . S
C867 C865 1.388 . S
C867 C868 1.366 . S
C868 C867 1.366 . S
C868 C869 1.414 . S
C868 C871 1.499 . S
C869 H843 0.950 . S
C869 C868 1.414 . S
C869 C870 1.374 . S
C870 H844 0.950 . S
C870 C866 1.385 . S
C870 C869 1.374 . S
C871 C868 1.499 . S
C871 C872 1.373 . S
C871 C873 1.389 . S
C872 H845 0.950 . S
C872 C858 1.377 . S
C872 C871 1.373 . S
C873 C857 1.377 . S
C873 C871 1.389 . S
C873 C874 1.524 . S
C874 C873 1.524 . S
C874 C875 1.397 . S
C874 C879 1.363 . S
C875 H846 0.950 . S
C875 C874 1.397 . S
C875 C876 1.334 . S
C876 H847 0.950 . S
C876 C875 1.334 . S
C876 C877 1.287 . S
C877 C876 1.287 . S
C877 C878 1.524 . S
C877 H880 0.999 . S
C878 H848 0.950 . S
C878 C877 1.524 . S
C878 C879 1.415 . S
C879 H849 0.950 . S
C879 C874 1.363 . S
C879 C878 1.415 . S
H880 C877 0.999 . S
H881 C862 0.913 . S
H882 C900 0.951 . S
H883 C902 0.951 . S
H884 C904 0.950 1_565 S
H885 C905 0.950 1_565 S
H886 C907 0.950 . S
H887 C910 0.950 . S
H888 C911 0.950 . S
H889 C913 0.950 . S
H890 C914 0.950 . S
H891 C915 0.951 1_565 S
H892 C917 0.951 1_565 S
H893 C919 0.950 . S
H894 C920 0.950 . S
H895 C922 0.950 . S
H896 C925 0.950 . S
H897 C926 0.950 . S
H898 C928 0.950 . S
H899 C929 0.950 . S
C900 H882 0.951 . S
C900 C901 1.366 . S
C900 C902 1.388 . S
C901 C900 1.366 . S
C901 C905 1.385 . S
C902 H883 0.951 . S
C902 C900 1.388 . S
C902 C903 1.366 . S
C903 C902 1.366 . S
C903 C904 1.414 . S
C903 C906 1.499 . S
C904 H884 0.950 1_545 S
C904 C903 1.414 . S
C904 C905 1.374 . S
C905 H885 0.950 1_545 S
C905 C901 1.385 . S
C905 C904 1.374 . S
C906 C903 1.499 . S
C906 C907 1.373 . S
C906 C908 1.389 . S
C907 H886 0.950 . S
C907 C906 1.373 . S
C907 C923 1.377 . S
C908 C906 1.389 . S
C908 C909 1.524 . S
C908 C922 1.377 . S
C909 C908 1.524 . S
C909 C910 1.397 1_545 S
C909 C914 1.363 . S
C910 H887 0.950 . S
C910 C909 1.397 1_565 S
C910 C911 1.334 . S
C911 H888 0.950 . S
C911 C910 1.334 . S
C911 C912 1.287 1_565 S
C912 C911 1.287 1_545 S
C912 C913 1.524 . S
C912 H931 0.913 1_545 S
C913 H889 0.950 . S
C913 C912 1.524 . S
C913 C914 1.415 . S
C914 H890 0.950 . S
C914 C909 1.363 . S
C914 C913 1.415 . S
C915 H891 0.951 1_545 S
C915 C916 1.366 . S
C915 C917 1.388 . S
C916 C915 1.366 . S
C916 C920 1.385 . S
C917 H892 0.951 1_545 S
C917 C915 1.388 . S
C917 C918 1.366 . S
C918 C917 1.366 . S
C918 C919 1.414 . S
C918 C921 1.499 . S
C919 H893 0.950 . S
C919 C918 1.414 . S
C919 C920 1.374 . S
C920 H894 0.950 . S
C920 C916 1.385 . S
C920 C919 1.374 . S
C921 C918 1.499 . S
C921 C922 1.373 . S
C921 C923 1.389 . S
C922 H895 0.950 . S
C922 C908 1.377 . S
C922 C921 1.373 . S
C923 C907 1.377 . S
C923 C921 1.389 . S
C923 C924 1.524 . S
C924 C923 1.524 . S
C924 C925 1.397 . S
C924 C929 1.363 . S
C925 H896 0.950 . S
C925 C924 1.397 . S
C925 C926 1.334 . S
C926 H897 0.950 . S
C926 C925 1.334 . S
C926 C927 1.287 . S
C927 C926 1.287 . S
C927 C928 1.524 . S
C927 H930 0.999 . S
C928 H898 0.950 . S
C928 C927 1.524 . S
C928 C929 1.415 . S
C929 H899 0.950 . S
C929 C924 1.363 . S
C929 C928 1.415 . S
H930 C927 0.999 . S
H931 C912 0.913 1_565 S
H932 C950 0.951 . S
H933 C952 0.951 . S
H934 C954 0.950 . S
H935 C955 0.950 . S
H936 C957 0.950 . S
H937 C960 0.950 . S
H938 C961 0.950 . S
H939 C963 0.950 . S
H940 C964 0.950 . S
H941 C965 0.951 . S
H942 C967 0.951 . S
H943 C969 0.950 . S
H944 C970 0.950 . S
H945 C972 0.950 1_554 S
H946 C975 0.950 . S
H947 C976 0.950 . S
H948 C978 0.950 . S
H949 C979 0.950 . S
C950 H932 0.951 . S
C950 C951 1.366 . S
C950 C952 1.388 . S
C951 C950 1.366 . S
C951 C955 1.385 . S
C952 H933 0.951 . S
C952 C950 1.388 . S
C952 C953 1.366 . S
C953 C952 1.366 . S
C953 C954 1.414 . S
C953 C956 1.499 . S
C954 H934 0.950 . S
C954 C953 1.414 . S
C954 C955 1.374 . S
C955 H935 0.950 . S
C955 C951 1.385 . S
C955 C954 1.374 . S
C956 C953 1.499 . S
C956 C957 1.373 . S
C956 C958 1.389 . S
C957 H936 0.950 . S
C957 C956 1.373 . S
C957 C973 1.377 . S
C958 C956 1.389 . S
C958 C959 1.524 . S
C958 C972 1.377 . S
C959 C958 1.524 . S
C959 C960 1.397 . S
C959 C964 1.363 . S
C960 H937 0.950 . S
C960 C959 1.397 . S
C960 C961 1.334 . S
C961 H938 0.950 . S
C961 C960 1.334 . S
C961 C962 1.287 . S
C962 C961 1.287 . S
C962 C963 1.524 . S
C962 H981 0.913 . S
C963 H939 0.950 . S
C963 C962 1.524 . S
C963 C964 1.415 . S
C964 H940 0.950 . S
C964 C959 1.363 . S
C964 C963 1.415 . S
C965 H941 0.951 . S
C965 C966 1.366 . S
C965 C967 1.388 . S
C966 C965 1.366 . S
C966 C970 1.385 . S
C967 H942 0.951 . S
C967 C965 1.388 . S
C967 C968 1.366 . S
C968 C967 1.366 . S
C968 C969 1.414 . S
C968 C971 1.499 . S
C969 H943 0.950 . S
C969 C968 1.414 . S
C969 C970 1.374 . S
C970 H944 0.950 . S
C970 C966 1.385 . S
C970 C969 1.374 . S
C971 C968 1.499 . S
C971 C972 1.373 1_554 S
C971 C973 1.389 1_554 S
C972 H945 0.950 1_556 S
C972 C958 1.377 . S
C972 C971 1.373 1_556 S
C973 C957 1.377 . S
C973 C971 1.389 1_556 S
C973 C974 1.524 . S
C974 C973 1.524 . S
C974 C975 1.397 1_556 S
C974 C979 1.363 . S
C975 H946 0.950 . S
C975 C974 1.397 1_554 S
C975 C976 1.334 . S
C976 H947 0.950 . S
C976 C975 1.334 . S
C976 C977 1.287 . S
C977 C976 1.287 . S
C977 C978 1.524 1_554 S
C977 H980 0.999 . S
C978 H948 0.950 . S
C978 C977 1.524 1_556 S
C978 C979 1.415 . S
C979 H949 0.950 . S
C979 C974 1.363 . S
C979 C978 1.415 . S
H980 C977 0.999 . S
H981 C962 0.913 . S
H982 C1000 0.951 . S
H983 C1002 0.951 . S
H984 C1004 0.950 . S
H985 C1005 0.950 . S
H986 C1007 0.950 . S
H987 C1010 0.950 . S
H988 C1011 0.950 . S
H989 C1013 0.950 . S
H990 C1014 0.950 . S
H991 C1015 0.951 . S
H992 C1017 0.951 . S
H993 C1019 0.950 . S
H994 C1020 0.950 . S
H995 C1022 0.950 . S
H996 C1025 0.950 1_455 S
H997 C1026 0.950 . S
H998 C1028 0.950 . S
H999 C1029 0.950 . S
C1000 H982 0.951 . S
C1000 C1001 1.366 . S
C1000 C1002 1.388 . S
C1001 C1000 1.366 . S
C1001 C1005 1.385 1_455 S
C1002 H983 0.951 . S
C1002 C1000 1.388 . S
C1002 C1003 1.366 . S
C1003 C1002 1.366 . S
C1003 C1004 1.414 1_455 S
C1003 C1006 1.499 . S
C1004 H984 0.950 . S
C1004 C1003 1.414 1_655 S
C1004 C1005 1.374 . S
C1005 H985 0.950 . S
C1005 C1001 1.385 1_655 S
C1005 C1004 1.374 . S
C1006 C1003 1.499 . S
C1006 C1007 1.373 1_455 S
C1006 C1008 1.389 . S
C1007 H986 0.950 . S
C1007 C1006 1.373 1_655 S
C1007 C1023 1.377 . S
C1008 C1006 1.389 . S
C1008 C1009 1.524 . S
C1008 C1022 1.377 . S
C1009 C1008 1.524 . S
C1009 C1010 1.397 . S
C1009 C1014 1.363 . S
C1010 H987 0.950 . S
C1010 C1009 1.397 . S
C1010 C1011 1.334 . S
C1011 H988 0.950 . S
C1011 C1010 1.334 . S
C1011 C1012 1.287 . S
C1012 C1011 1.287 . S
C1012 C1013 1.524 . S
C1012 H1031 0.913 . S
C1013 H989 0.950 . S
C1013 C1012 1.524 . S
C1013 C1014 1.415 . S
C1014 H990 0.950 . S
C1014 C1009 1.363 . S
C1014 C1013 1.415 . S
C1015 H991 0.951 . S
C1015 C1016 1.366 1_655 S
C1015 C1017 1.388 . S
C1016 C1015 1.366 1_455 S
C1016 C1020 1.385 . S
C1017 H992 0.951 . S
C1017 C1015 1.388 . S
C1017 C1018 1.366 1_655 S
C1018 C1017 1.366 1_455 S
C1018 C1019 1.414 . S
C1018 C1021 1.499 . S
C1019 H993 0.950 . S
C1019 C1018 1.414 . S
C1019 C1020 1.374 . S
C1020 H994 0.950 . S
C1020 C1016 1.385 . S
C1020 C1019 1.374 . S
C1021 C1018 1.499 . S
C1021 C1022 1.373 . S
C1021 C1023 1.389 1_455 S
C1022 H995 0.950 . S
C1022 C1008 1.377 . S
C1022 C1021 1.373 . S
C1023 C1007 1.377 . S
C1023 C1021 1.389 1_655 S
C1023 C1024 1.524 . S
C1024 C1023 1.524 . S
C1024 C1025 1.397 . S
C1024 C1029 1.363 . S
C1025 H996 0.950 1_655 S
C1025 C1024 1.397 . S
C1025 C1026 1.334 . S
C1026 H997 0.950 . S
C1026 C1025 1.334 . S
C1026 C1027 1.287 . S
C1027 C1026 1.287 . S
C1027 C1028 1.524 . S
C1027 H1030 0.999 . S
C1028 H998 0.950 . S
C1028 C1027 1.524 . S
C1028 C1029 1.415 . S
C1029 H999 0.950 . S
C1029 C1024 1.363 . S
C1029 C1028 1.415 . S
H1030 C1027 0.999 . S
H1031 C1012 0.913 . S
C151 C2 1.619 . S
C166 C126 1.702 . S
C201 C22 1.398 . S
C216 C100 1.445 . S
C251 C44 1.433 . S
C266 C112 1.476 . S
C301 C4 1.225 . S
C316 C124 1.259 . S
C366 C102 1.478 . S
C351 C24 1.401 . S
C416 C114 1.438 . S
C401 C42 1.353 . S
C451 C32 1.392 . S
C466 C76 1.376 . S
C501 C49 1.511 . S
C516 C90 1.527 . S
C551 C9 1.081 . S
C566 C66 1.096 1_565 S
C616 C78 1.112 . S
C601 C29 1.080 . S
C666 C88 1.000 . S
C651 C52 0.991 . S
C701 C12 1.291 . S
C716 C64 1.302 . S
C766 C93 1.498 . S
C751 C18 1.484 . S
C801 C38 1.474 . S
C816 C69 1.474 . S
C851 C58 1.462 . S
C866 C81 1.497 . S
C916 C117 1.517 . S
C901 C39 1.506 . S
C966 C129 1.572 . S
C951 C59 1.553 . S
C1001 C19 1.504 . S
C1016 C105 1.521 . S
