# Generated by pormake.
# Topology rtl, (3,6)-cn, num edge types: 1
# Building blocks:
#     Node 0, Type 0, BuildingBlock: VETTIZ_charged_linker_0, # of connection points: 3
#     Node 1, Type 0, BuildingBlock: VETTIZ_charged_linker_0, # of connection points: 3
#     Node 2, Type 0, BuildingBlock: VETTIZ_charged_linker_0, # of connection points: 3
#     Node 3, Type 0, BuildingBlock: VETTIZ_charged_linker_0, # of connection points: 3
#     Node 4, Type 1, BuildingBlock: LEVNOQ01_clean_sbu_1, # of connection points: 6
#     Node 5, Type 1, BuildingBlock: LEVNOQ01_clean_sbu_1, # of connection points: 6
#     Edge 6, Type (0, 1), BuildingBlock: XUDNAN_clean_linker_2, # of connection points: 2
#     Edge 7, Type (0, 1), BuildingBlock: XUDNAN_clean_linker_2, # of connection points: 2
#     Edge 8, Type (0, 1), BuildingBlock: XUDNAN_clean_linker_2, # of connection points: 2
#     Edge 9, Type (0, 1), BuildingBlock: XUDNAN_clean_linker_2, # of connection points: 2
#     Edge 10, Type (0, 1), BuildingBlock: XUDNAN_clean_linker_2, # of connection points: 2
#     Edge 11, Type (0, 1), BuildingBlock: XUDNAN_clean_linker_2, # of connection points: 2
#     Edge 12, Type (0, 1), BuildingBlock: XUDNAN_clean_linker_2, # of connection points: 2
#     Edge 13, Type (0, 1), BuildingBlock: XUDNAN_clean_linker_2, # of connection points: 2
#     Edge 14, Type (0, 1), BuildingBlock: XUDNAN_clean_linker_2, # of connection points: 2
#     Edge 15, Type (0, 1), BuildingBlock: XUDNAN_clean_linker_2, # of connection points: 2
#     Edge 16, Type (0, 1), BuildingBlock: XUDNAN_clean_linker_2, # of connection points: 2
#     Edge 17, Type (0, 1), BuildingBlock: XUDNAN_clean_linker_2, # of connection points: 2
# Relax obj value: 0.027
# Max RMSD: 0.061
# Mean RMSD: 0.048
data_MOF--net-rtl--node1-LEVNOQ01_clean_sbu_1--node2-VETTIZ_charged_linker_0--edge1-XUDNAN_clean_linker_2
_symmetry_space_group_name_H-M    P1
_symmetry_Int_Tables_number       1
_symmetry_cell_setting            triclinic
loop_
_symmetry_equiv_pos_as_xyz
'x, y, z'
_cell_length_a     37.027808
_cell_length_b     42.136109
_cell_length_c     29.648551
_cell_angle_alpha  89.952065
_cell_angle_beta   97.671284
_cell_angle_gamma 90.131923
loop_
_atom_site_label
_atom_site_type_symbol
_atom_site_fract_x
_atom_site_fract_y
_atom_site_fract_z
_atom_type_partial_charge
C0 C 0.18725 0.88836 0.95254 0.0
C1 C 0.16327 0.91409 0.94322 0.0
C2 C 0.15579 0.93348 0.97971 0.0
C3 C 0.19693 0.90237 0.0328 0.0
C4 C 0.20373 0.88302 0.99725 0.0
C5 C 0.23012 0.85689 0.01269 0.0
H6 H 0.3405 0.7847 0.18269 0.0
C7 C 0.21993 0.89139 0.07452 0.0
C8 C 0.23969 0.86493 0.06278 0.0
H9 H 0.31048 0.75272 0.04457 0.0
H10 H 0.2748 0.80021 0.0269 0.0
H11 H 0.35525 0.85408 0.16284 0.0
H12 H 0.25657 0.81174 0.1969 0.0
H13 H 0.27089 0.844 0.2334 0.0
H14 H 0.30036 0.81081 0.23143 0.0
H15 H 0.34693 0.85095 0.22083 0.0
H16 H 0.3316 0.88487 0.18614 0.0
C17 C 0.26359 0.86013 0.98679 0.0
C18 C 0.20971 0.82468 0.00531 0.0
C19 C 0.2112 0.94188 0.22901 0.0
C20 C 0.23263 0.93877 0.27209 0.0
C21 C 0.2655 0.9214 0.27445 0.0
C22 C 0.27449 0.90462 0.23684 0.0
C23 C 0.25097 0.90557 0.1958 0.0
C24 C 0.22144 0.92573 0.19127 0.0
C25 C 0.20355 0.92772 0.14248 0.0
C26 C 0.22522 0.90303 0.11995 0.0
C27 C 0.25216 0.88948 0.15196 0.0
C28 C 0.20939 0.9617 0.12457 0.0
C29 C 0.16306 0.91807 0.14036 0.0
C30 C 0.32602 0.78814 0.14881 0.0
C31 C 0.32771 0.7652 0.11496 0.0
C32 C 0.30902 0.77019 0.07107 0.0
C33 C 0.28834 0.79768 0.06098 0.0
C34 C 0.28605 0.82023 0.09536 0.0
C35 C 0.30471 0.81531 0.13841 0.0
C36 C 0.29815 0.84143 0.17091 0.0
C37 C 0.2715 0.86223 0.14052 0.0
C38 C 0.26488 0.84982 0.09629 0.0
C39 C 0.33478 0.85871 0.18631 0.0
C40 C 0.28061 0.82641 0.21044 0.0
H41 H 0.16558 0.94321 0.05063 0.0
H42 H 0.19381 0.87305 0.92547 0.0
H43 H 0.1797 0.8276 0.00369 0.0
H44 H 0.21712 0.80794 0.03383 0.0
H45 H 0.21487 0.81326 0.97304 0.0
H46 H 0.27223 0.8854 0.98558 0.0
H47 H 0.25712 0.85159 0.95118 0.0
H48 H 0.28768 0.84716 0.00327 0.0
H49 H 0.1864 0.95563 0.22451 0.0
H50 H 0.28433 0.92018 0.30558 0.0
H51 H 0.29921 0.89114 0.24126 0.0
H52 H 0.23339 0.97352 0.14427 0.0
H53 H 0.18531 0.97696 0.12698 0.0
H54 H 0.21544 0.96172 0.089 0.0
H55 H 0.16048 0.8958 0.15988 0.0
H56 H 0.14999 0.91337 0.10533 0.0
H57 H 0.14726 0.93684 0.15523 0.0
H58 H 0.13688 0.95308 0.97379 0.0
C59 C 0.17244 0.92775 0.02434 0.0
C60 C 0.72927 0.60222 0.73016 0.0
C61 C 0.70586 0.57574 0.72846 0.0
C62 C 0.69147 0.5634 0.68553 0.0
C63 C 0.72187 0.6047 0.64759 0.0
C64 C 0.73671 0.61632 0.68959 0.0
C65 C 0.75941 0.64561 0.68565 0.0
H66 H 0.82714 0.7548 0.55147 0.0
C67 C 0.73372 0.62562 0.6122 0.0
C68 C 0.75587 0.64959 0.63437 0.0
H69 H 0.84224 0.75116 0.69845 0.0
H70 H 0.805 0.70362 0.69612 0.0
H71 H 0.83827 0.68191 0.5349 0.0
H72 H 0.74213 0.73817 0.53922 0.0
H73 H 0.7325 0.71177 0.49343 0.0
H74 H 0.76896 0.74015 0.49316 0.0
H75 H 0.82021 0.70716 0.48862 0.0
H76 H 0.80512 0.66658 0.49266 0.0
C77 C 0.79908 0.6382 0.70648 0.0
C78 C 0.74173 0.6735 0.70877 0.0
C79 C 0.68784 0.60635 0.4445 0.0
C80 C 0.69427 0.62203 0.40427 0.0
C81 C 0.71923 0.64753 0.40756 0.0
C82 C 0.73652 0.65788 0.44987 0.0
C83 C 0.72902 0.64261 0.48971 0.0
C84 C 0.70556 0.61694 0.48664 0.0
C85 C 0.70174 0.6032 0.53274 0.0
C86 C 0.72619 0.62532 0.56387 0.0
C87 C 0.74178 0.64847 0.53839 0.0
C88 C 0.71654 0.56879 0.53442 0.0
C89 C 0.66129 0.60596 0.54035 0.0
C90 C 0.82272 0.74363 0.58322 0.0
C91 C 0.83794 0.75654 0.62522 0.0
C92 C 0.83074 0.74169 0.66569 0.0
C93 C 0.80926 0.71403 0.6642 0.0
C94 C 0.79454 0.70127 0.62177 0.0
C95 C 0.80128 0.71625 0.58229 0.0
C96 C 0.783 0.70003 0.5402 0.0
C97 C 0.76423 0.67262 0.56076 0.0
C98 C 0.77111 0.67333 0.6085 0.0
C99 C 0.81296 0.68842 0.51222 0.0
C100 C 0.75531 0.72361 0.51473 0.0
H101 H 0.68709 0.56746 0.61372 0.0
H102 H 0.74111 0.6122 0.76245 0.0
H103 H 0.71152 0.67115 0.70426 0.0
H104 H 0.74687 0.69679 0.69374 0.0
H105 H 0.75127 0.67419 0.7459 0.0
H106 H 0.80688 0.61383 0.69714 0.0
H107 H 0.80227 0.63962 0.74421 0.0
H108 H 0.81926 0.65404 0.6938 0.0
H109 H 0.66881 0.58672 0.44343 0.0
H110 H 0.72555 0.65957 0.37728 0.0
H111 H 0.75491 0.67757 0.44986 0.0
H112 H 0.73963 0.56654 0.51416 0.0
H113 H 0.69507 0.55172 0.52029 0.0
H114 H 0.72787 0.56124 0.56911 0.0
H115 H 0.64967 0.62902 0.52717 0.0
H116 H 0.65747 0.60556 0.57661 0.0
H117 H 0.64464 0.58672 0.52232 0.0
H118 H 0.67293 0.54337 0.68298 0.0
C119 C 0.69941 0.57766 0.64521 0.0
C120 C 0.80224 0.1357 0.1472 0.0
C121 C 0.82474 0.10919 0.15873 0.0
C122 C 0.83086 0.08789 0.12369 0.0
C123 C 0.79393 0.12009 0.06752 0.0
C124 C 0.78693 0.14044 0.10183 0.0
C125 C 0.76133 0.1667 0.08444 0.0
H126 H 0.66493 0.24332 0.90682 0.0
C127 C 0.77431 0.13204 0.02404 0.0
C128 C 0.75482 0.15918 0.03391 0.0
H129 H 0.66994 0.26384 0.05023 0.0
H130 H 0.71002 0.21928 0.06864 0.0
H131 H 0.75155 0.22431 0.9092 0.0
H132 H 0.65347 0.17088 0.91636 0.0
H133 H 0.68106 0.14674 0.88704 0.0
H134 H 0.66566 0.18459 0.86312 0.0
H135 H 0.71615 0.21961 0.86203 0.0
H136 H 0.75235 0.19109 0.87354 0.0
C137 C 0.78157 0.19869 0.09406 0.0
C138 C 0.72603 0.16333 0.107 0.0
C139 C 0.79408 0.08096 0.87338 0.0
C140 C 0.78133 0.08867 0.82779 0.0
C141 C 0.75538 0.11306 0.81874 0.0
C142 C 0.74356 0.13044 0.85416 0.0
C143 C 0.75784 0.12355 0.89937 0.0
C144 C 0.78204 0.09872 0.90855 0.0
C145 C 0.79389 0.09479 0.95891 0.0
C146 C 0.7735 0.12186 0.97815 0.0
C147 C 0.75267 0.13869 0.94294 0.0
C148 C 0.8357 0.09954 0.96809 0.0
C149 C 0.78065 0.06193 0.97361 0.0
C150 C 0.67502 0.23823 0.94208 0.0
C151 C 0.66457 0.25703 0.97716 0.0
C152 C 0.67764 0.24951 0.02273 0.0
C153 C 0.7009 0.22365 0.03333 0.0
C154 C 0.71102 0.20486 0.99801 0.0
C155 C 0.69784 0.21207 0.95332 0.0
C156 C 0.71018 0.18853 0.92053 0.0
C157 C 0.73296 0.16611 0.95291 0.0
C158 C 0.73376 0.17608 0.99816 0.0
C159 C 0.73363 0.20661 0.88931 0.0
C160 C 0.67601 0.17185 0.89504 0.0
H161 H 0.82168 0.07626 0.05347 0.0
H162 H 0.7968 0.15273 0.17273 0.0
H163 H 0.72135 0.1383 0.11678 0.0
H164 H 0.70125 0.1697 0.08366 0.0
H165 H 0.72741 0.17797 0.13833 0.0
H166 H 0.81 0.197 0.086 0.0
H167 H 0.78289 0.20538 0.13048 0.0
H168 H 0.76908 0.21839 0.073 0.0
H169 H 0.81414 0.06244 0.8815 0.0
H170 H 0.74465 0.11911 0.78401 0.0
H171 H 0.72426 0.14901 0.84482 0.0
H172 H 0.84411 0.12018 0.94847 0.0
H173 H 0.8502 0.07827 0.95765 0.0
H174 H 0.84571 0.10476 0.004 0.0
H175 H 0.75493 0.05472 0.95225 0.0
H176 H 0.77389 0.06192 0.00882 0.0
H177 H 0.80125 0.04326 0.97027 0.0
H178 H 0.847 0.06669 0.13122 0.0
C179 C 0.81579 0.09327 0.07836 0.0
C180 C 0.27072 0.42728 0.34287 0.0
C181 C 0.29076 0.45573 0.34269 0.0
C182 C 0.30301 0.47055 0.38464 0.0
C183 C 0.27772 0.42779 0.4255 0.0
C184 C 0.26473 0.41374 0.38443 0.0
C185 C 0.2458 0.38269 0.39062 0.0
H186 H 0.19009 0.27235 0.53245 0.0
C187 C 0.269 0.4066 0.4624 0.0
C188 C 0.25034 0.3801 0.44216 0.0
H189 H 0.17455 0.27202 0.38511 0.0
H190 H 0.20693 0.32169 0.38468 0.0
H191 H 0.27262 0.2915 0.54232 0.0
H192 H 0.17656 0.34827 0.54641 0.0
H193 H 0.20943 0.35878 0.59266 0.0
H194 H 0.19212 0.31885 0.5884 0.0
H195 H 0.25047 0.29363 0.59245 0.0
H196 H 0.28494 0.32203 0.58162 0.0
C197 C 0.2665 0.35604 0.36882 0.0
C198 C 0.2053 0.38623 0.37009 0.0
C199 C 0.3079 0.43731 0.62748 0.0
C200 C 0.30546 0.42191 0.66902 0.0
C201 C 0.29 0.39135 0.6687 0.0
C202 C 0.27608 0.37671 0.62744 0.0
C203 C 0.27806 0.39268 0.58609 0.0
C204 C 0.29442 0.42222 0.58662 0.0
C205 C 0.29586 0.43502 0.53952 0.0
C206 C 0.27688 0.40865 0.51054 0.0
C207 C 0.26617 0.38407 0.53796 0.0
C208 C 0.33647 0.43846 0.53256 0.0
C209 C 0.27391 0.46636 0.5344 0.0
C210 C 0.19396 0.28263 0.49996 0.0
C211 C 0.17951 0.26797 0.45871 0.0
C212 C 0.18479 0.28284 0.41742 0.0
C213 C 0.20384 0.31167 0.41723 0.0
C214 C 0.21803 0.32589 0.45875 0.0
C215 C 0.21319 0.31122 0.49918 0.0
C216 C 0.23096 0.32926 0.54007 0.0
C217 C 0.24665 0.35754 0.51753 0.0
C218 C 0.23886 0.35552 0.46991 0.0
C219 C 0.26119 0.30813 0.56586 0.0
C220 C 0.20091 0.33929 0.56878 0.0
H221 H 0.30712 0.46903 0.45657 0.0
H222 H 0.26054 0.41538 0.31135 0.0
H223 H 0.19504 0.41034 0.3768 0.0
H224 H 0.18705 0.36979 0.38526 0.0
H225 H 0.20174 0.38272 0.33263 0.0
H226 H 0.29631 0.36093 0.37317 0.0
H227 H 0.25711 0.35404 0.33175 0.0
H228 H 0.26393 0.33266 0.38494 0.0
H229 H 0.32013 0.46067 0.62686 0.0
H230 H 0.28786 0.37919 0.70044 0.0
H231 H 0.26403 0.35365 0.62933 0.0
H232 H 0.35358 0.42015 0.5522 0.0
H233 H 0.34744 0.46208 0.5441 0.0
H234 H 0.34106 0.43468 0.4969 0.0
H235 H 0.24894 0.46447 0.55137 0.0
H236 H 0.26401 0.47235 0.49864 0.0
H237 H 0.29036 0.48651 0.55022 0.0
H238 H 0.31893 0.49219 0.38578 0.0
C239 C 0.29652 0.45682 0.4259 0.0
O240 O 0.96072 0.07033 0.6206 0.0
Mg241 Mg 0.01711 0.06891 0.62057 0.0
O242 O 0.95455 0.02409 0.58504 0.0
Mg243 Mg 0.0062 0.0157 0.54707 0.0
O244 O 0.03079 0.0664 0.55669 0.0
O245 O 0.0428 0.10865 0.60183 0.0
O246 O 0.05901 0.00777 0.511 0.0
O247 O 0.97135 0.03694 0.48089 0.0
Mg248 Mg 0.99588 0.96878 0.47251 0.0
O249 O 0.98292 0.96355 0.53762 0.0
O250 O 0.05051 0.96692 0.46419 0.0
O251 O 0.9638 -0.00069 0.42864 0.0
O252 O 0.97374 0.92635 0.48302 0.0
C253 C 0.0522 0.00702 0.65372 0.0
C254 C 0.94165 0.04626 0.60761 0.0
C255 C 0.04424 0.0948 0.56331 0.0
C256 C 0.07077 0.98844 0.4832 0.0
C257 C 0.95853 0.0274 0.44101 0.0
C258 C 0.97167 0.93527 0.52425 0.0
O259 O 0.04713 0.03579 0.6637 0.0
O260 O 0.03972 0.99594 0.61449 0.0
O261 O 0.55206 0.49192 0.14541 0.0
Mg262 Mg 0.51146 0.46784 0.10215 0.0
O263 O 0.53971 0.53239 0.09924 0.0
Mg264 Mg 0.49842 0.51755 0.03555 0.0
O265 O 0.5164 0.46334 0.03401 0.0
O266 O 0.52589 0.42423 0.08611 0.0
O267 O 0.45642 0.50568 0.97039 0.0
O268 O 0.54732 0.5241 0.99154 0.0
Mg269 Mg 0.49057 0.57615 0.97135 0.0
O270 O 0.48191 0.57075 0.0369 0.0
O271 O 0.45059 0.55014 0.92962 0.0
O272 O 0.54488 0.57215 0.96147 0.0
O273 O 0.47581 0.61715 0.99982 0.0
C274 C 0.43879 0.49032 0.10657 0.0
C275 C 0.55687 0.52066 0.13561 0.0
C276 C 0.52512 0.43397 0.04472 0.0
C277 C 0.44171 0.52153 0.93588 0.0
C278 C 0.56124 0.54607 0.96944 0.0
C279 C 0.47312 0.60063 0.0359 0.0
O280 O 0.45923 0.46729 0.11955 0.0
O281 O 0.44896 0.51104 0.07926 0.0
H282 H 0.19232 0.21835 0.5188 0.0
H283 H 0.11898 0.24891 0.40027 0.0
H284 H 0.08191 0.20061 0.40553 0.0
H285 H 0.18377 0.13147 0.5004 0.0
H286 H 0.18412 0.12406 0.56034 0.0
H287 H 0.20879 0.15747 0.54167 0.0
H288 H 0.17366 0.19548 0.58906 0.0
H289 H 0.14933 0.16224 0.60816 0.0
H290 H 0.12453 0.19516 0.58035 0.0
H291 H 0.04821 0.1521 0.43004 0.0
H292 H 0.01926 0.11202 0.47539 0.0
H293 H 0.11294 0.11605 0.57943 0.0
C294 C 0.16869 0.21488 0.49356 0.0
C295 C 0.15878 0.23757 0.45905 0.0
C296 C 0.1277 0.23171 0.42659 0.0
C297 C 0.10638 0.20428 0.42932 0.0
C298 C 0.11648 0.18284 0.46459 0.0
C299 C 0.14694 0.18799 0.49617 0.0
C300 C 0.14963 0.16386 0.53418 0.0
C301 C 0.1836 0.14298 0.53411 0.0
C302 C 0.14923 0.18016 0.58064 0.0
C303 C 0.11514 0.14506 0.52019 0.0
C304 C 0.09676 0.15566 0.4793 0.0
C305 C 0.06271 0.14326 0.46163 0.0
C306 C 0.04654 0.1204 0.48733 0.0
C307 C 0.06429 0.11086 0.53033 0.0
C308 C 0.09933 0.12262 0.5461 0.0
H309 H 0.40036 0.75838 0.11558 0.0
H310 H 0.30204 0.70661 0.13196 0.0
H311 H 0.33607 0.65598 0.1341 0.0
H312 H 0.42714 0.71086 0.03756 0.0
H313 H 0.47556 0.71314 0.05553 0.0
H314 H 0.44664 0.74481 0.06898 0.0
H315 H 0.47109 0.73851 0.15462 0.0
H316 H 0.50006 0.70645 0.14126 0.0
H317 H 0.46845 0.70042 0.18175 0.0
H318 H 0.37615 0.61173 0.11692 0.0
H319 H 0.4167 0.57881 0.07636 0.0
H320 H 0.48962 0.65846 0.07152 0.0
C321 C 0.38665 0.73637 0.12172 0.0
C322 C 0.34906 0.73603 0.12463 0.0
C323 C 0.33113 0.70703 0.13061 0.0
C324 C 0.3503 0.67829 0.1321 0.0
C325 C 0.38734 0.67912 0.12765 0.0
C326 C 0.4054 0.70752 0.12281 0.0
C327 C 0.44322 0.70191 0.11049 0.0
C328 C 0.44839 0.71864 0.06548 0.0
C329 C 0.47243 0.71244 0.14936 0.0
C330 C 0.4426 0.66615 0.10561 0.0
C331 C 0.41071 0.65325 0.11732 0.0
C332 C 0.40182 0.62131 0.10937 0.0
C333 C 0.42517 0.60256 0.08695 0.0
C334 C 0.45671 0.6159 0.07266 0.0
C335 C 0.46622 0.6476 0.08376 0.0
H336 H 0.8919 0.76756 0.5734 0.0
H337 H 0.83625 0.81047 0.67755 0.0
H338 H 0.87064 0.86049 0.67056 0.0
H339 H 0.98046 0.80851 0.60243 0.0
H340 H 0.9865 0.8121 0.54332 0.0
H341 H 0.96166 0.77886 0.56212 0.0
H342 H 0.90625 0.79293 0.50242 0.0
H343 H 0.9308 0.82614 0.48355 0.0
H344 H 0.88698 0.83219 0.50227 0.0
H345 H 0.9068 0.90818 0.64444 0.0
H346 H 0.93943 0.94732 0.60155 0.0
H347 H 0.96912 0.87156 0.51491 0.0
C348 C 0.88732 0.78731 0.59529 0.0
C349 C 0.86139 0.78522 0.62592 0.0
C350 C 0.8563 0.81152 0.65414 0.0
C351 C 0.87566 0.84001 0.65031 0.0
C352 C 0.90027 0.84157 0.61854 0.0
C353 C 0.90626 0.81566 0.59186 0.0
C354 C 0.93155 0.82368 0.55761 0.0
C355 C 0.96716 0.80466 0.56696 0.0
C356 C 0.91276 0.81844 0.5086 0.0
C357 C 0.93798 0.85846 0.56787 0.0
C358 C 0.92035 0.8685 0.60353 0.0
C359 C 0.92106 0.90038 0.61687 0.0
C360 C 0.93963 0.92245 0.59246 0.0
C361 C 0.95657 0.91249 0.55484 0.0
C362 C 0.95634 0.87998 0.54344 0.0
H363 H 0.60059 0.26645 0.00969 0.0
H364 H 0.67322 0.30889 0.92376 0.0
H365 H 0.6358 0.3579 0.91779 0.0
H366 H 0.51403 0.30659 0.95421 0.0
H367 H 0.49778 0.3104 0.00861 0.0
H368 H 0.52561 0.27695 0.99759 0.0
H369 H 0.5712 0.2908 0.06912 0.0
H370 H 0.54357 0.32399 0.08036 0.0
H371 H 0.59093 0.33001 0.07442 0.0
H372 H 0.59748 0.40549 0.93455 0.0
H373 H 0.56353 0.44572 0.9732 0.0
H374 H 0.51497 0.37078 0.04489 0.0
C375 C 0.60786 0.28576 0.98848 0.0
C376 C 0.63952 0.28412 0.96711 0.0
C377 C 0.6487 0.30977 0.93997 0.0
C378 C 0.62757 0.33759 0.93635 0.0
C379 C 0.59697 0.33893 0.9592 0.0
C380 C 0.58688 0.31335 0.98415 0.0
C381 C 0.55564 0.3216 0.00986 0.0
C382 C 0.52122 0.30277 0.99145 0.0
C383 C 0.56599 0.31632 0.06145 0.0
C384 C 0.55128 0.35641 0.99818 0.0
C385 C 0.57464 0.36601 0.96806 0.0
C386 C 0.57836 0.39805 0.95708 0.0
C387 C 0.5589 0.42079 0.97892 0.0
C388 C 0.53661 0.41124 0.01164 0.0
C389 C 0.53155 0.37864 0.01953 0.0
H390 H 0.18436 0.98847 0.28194 0.0
H391 H 0.24996 0.91665 0.36023 0.0
H392 H 0.22562 0.93345 0.42861 0.0
H393 H 0.18019 0.04787 0.37545 0.0
H394 H 0.13274 0.05585 0.35681 0.0
H395 H 0.16252 0.04507 0.31591 0.0
H396 H 0.11946 0.99854 0.28752 0.0
H397 H 0.08951 0.0095 0.32774 0.0
H398 H 0.10737 0.96972 0.32797 0.0
H399 H 0.18723 0.9502 0.48595 0.0
H400 H 0.13296 0.96128 0.52369 0.0
H401 H 0.08799 0.01854 0.40874 0.0
C402 C 0.19422 0.97638 0.31331 0.0
C403 C 0.22008 0.95149 0.31474 0.0
C404 C 0.23161 0.93668 0.35737 0.0
C405 C 0.21768 0.94595 0.39695 0.0
C406 C 0.19167 0.96986 0.3939 0.0
C407 C 0.17974 0.98468 0.35305 0.0
C408 C 0.14697 0.00548 0.35717 0.0
C409 C 0.15617 0.04066 0.35097 0.0
C410 C 0.11389 0.99517 0.32312 0.0
C411 C 0.14122 0.99859 0.40594 0.0
C412 C 0.16815 0.97888 0.42705 0.0
C413 C 0.16655 0.96635 0.47035 0.0
C414 C 0.13582 0.9729 0.49175 0.0
C415 C 0.10721 0.99158 0.46962 0.0
C416 C 0.11046 0.00539 0.42699 0.0
H417 H 0.6893 0.6091 0.80195 0.0
H418 H 0.69395 0.51315 0.75019 0.0
H419 H 0.66674 0.49307 0.81647 0.0
H420 H 0.70702 0.58813 0.92642 0.0
H421 H 0.67575 0.61825 0.94011 0.0
H422 H 0.7014 0.62403 0.89314 0.0
H423 H 0.64133 0.63341 0.83905 0.0
H424 H 0.61566 0.62777 0.88566 0.0
H425 H 0.60592 0.6037 0.83524 0.0
H426 H 0.63034 0.4848 0.88229 0.0
H427 H 0.58626 0.49001 0.93768 0.0
H428 H 0.60826 0.59092 0.9473 0.0
C429 C 0.68601 0.58371 0.80532 0.0
C430 C 0.69404 0.56273 0.7709 0.0
C431 C 0.68786 0.52977 0.77595 0.0
C432 C 0.67276 0.51809 0.81377 0.0
C433 C 0.66441 0.53959 0.84658 0.0
C434 C 0.67114 0.57173 0.84277 0.0
C435 C 0.65604 0.59048 0.87943 0.0
C436 C 0.6869 0.60614 0.91169 0.0
C437 C 0.62808 0.61526 0.85858 0.0
C438 C 0.63808 0.56415 0.90312 0.0
C439 C 0.6438 0.53482 0.8845 0.0
C440 C 0.62647 0.50754 0.89788 0.0
C441 C 0.60164 0.51061 0.92966 0.0
C442 C 0.59414 0.54077 0.94712 0.0
C443 C 0.61383 0.56748 0.93498 0.0
H444 H 0.89114 0.08168 0.18886 0.0
H445 H 0.79673 0.12348 0.23838 0.0
H446 H 0.8246 0.11339 0.31728 0.0
H447 H 0.89872 0.01786 0.26602 0.0
H448 H 0.9478 0.01673 0.2722 0.0
H449 H 0.92256 0.0313 0.22033 0.0
H450 H 0.95916 0.08399 0.22948 0.0
H451 H 0.98428 0.06963 0.28174 0.0
H452 H 0.96 0.10669 0.28112 0.0
H453 H 0.86225 0.09604 0.39195 0.0
H454 H 0.90245 0.0679 0.45304 0.0
H455 H 0.96816 0.03378 0.35288 0.0
C456 C 0.87604 0.08871 0.21603 0.0
C457 C 0.84167 0.10366 0.20682 0.0
C458 C 0.82344 0.11271 0.24405 0.0
C459 C 0.83902 0.10695 0.2892 0.0
C460 C 0.87277 0.09191 0.29682 0.0
C461 C 0.89082 0.08266 0.2611 0.0
C462 C 0.9251 0.06438 0.27778 0.0
C463 C 0.92342 0.03057 0.25792 0.0
C464 C 0.95914 0.08225 0.26688 0.0
C465 C 0.92314 0.06409 0.32839 0.0
C466 C 0.89331 0.08073 0.33907 0.0
C467 C 0.88576 0.08307 0.38392 0.0
C468 C 0.90875 0.06722 0.41841 0.0
C469 C 0.93823 0.04882 0.40743 0.0
C470 C 0.94576 0.04781 0.36206 0.0
H471 H 0.35675 0.40283 0.73969 0.0
H472 H 0.28189 0.47896 0.69482 0.0
H473 H 0.30394 0.50936 0.76422 0.0
H474 H 0.35309 0.41141 0.86432 0.0
H475 H 0.4011 0.40372 0.87896 0.0
H476 H 0.37627 0.38579 0.82892 0.0
H477 H 0.42202 0.40998 0.77948 0.0
H478 H 0.44695 0.42789 0.8293 0.0
H479 H 0.43008 0.45221 0.78103 0.0
H480 H 0.33709 0.53353 0.83284 0.0
H481 H 0.38177 0.55183 0.8964 0.0
H482 H 0.43697 0.461 0.89899 0.0
C483 C 0.34457 0.42559 0.74523 0.0
C484 C 0.31744 0.43859 0.71233 0.0
C485 C 0.30262 0.46872 0.71981 0.0
C486 C 0.31482 0.48601 0.75918 0.0
C487 C 0.34195 0.47287 0.79071 0.0
C488 C 0.35681 0.44342 0.78432 0.0
C489 C 0.38806 0.43634 0.82167 0.0
C490 C 0.37908 0.4076 0.85016 0.0
C491 C 0.42389 0.43132 0.80166 0.0
C492 C 0.38902 0.46679 0.8492 0.0
C493 C 0.36172 0.48722 0.83088 0.0
C494 C 0.35826 0.51763 0.84791 0.0
C495 C 0.38383 0.52782 0.88393 0.0
C496 C 0.41259 0.50775 0.90273 0.0
C497 C 0.41475 0.47653 0.88585 0.0
H498 H 0.67607 0.56162 0.37288 0.0
H499 H 0.66731 0.66089 0.33341 0.0
H500 H 0.63515 0.6455 0.25847 0.0
H501 H 0.68874 0.5299 0.26271 0.0
H502 H 0.66123 0.49518 0.26857 0.0
H503 H 0.68547 0.51379 0.31837 0.0
H504 H 0.62511 0.51963 0.35291 0.0
H505 H 0.60075 0.50085 0.30339 0.0
H506 H 0.58701 0.53951 0.32065 0.0
H507 H 0.60208 0.6195 0.18841 0.0
H508 H 0.56826 0.58489 0.13009 0.0
H509 H 0.59717 0.50284 0.21607 0.0
C510 C 0.66732 0.58018 0.34861 0.0
C511 C 0.67467 0.6125 0.3591 0.0
C512 C 0.66283 0.63593 0.32601 0.0
C513 C 0.64434 0.62745 0.28334 0.0
C514 C 0.63769 0.59542 0.27413 0.0
C515 C 0.64866 0.57216 0.30589 0.0
C516 C 0.63686 0.53955 0.28808 0.0
C517 C 0.67006 0.51836 0.2842 0.0
C518 C 0.61088 0.52398 0.31803 0.0
C519 C 0.61721 0.54817 0.24158 0.0
C520 C 0.61825 0.58048 0.23401 0.0
C521 C 0.60123 0.59413 0.19386 0.0
C522 C 0.58215 0.57425 0.16087 0.0
C523 C 0.58008 0.54111 0.16835 0.0
C524 C 0.59833 0.52803 0.20909 0.0
H525 H 0.8035 0.11822 0.75465 0.0
H526 H 0.79673 0.02537 0.81602 0.0
H527 H 0.82781 0.00188 0.75495 0.0
H528 H 0.79316 0.09198 0.63331 0.0
H529 H 0.82575 0.12109 0.61963 0.0
H530 H 0.79756 0.12927 0.66334 0.0
H531 H 0.85525 0.14036 0.72106 0.0
H532 H 0.88341 0.13256 0.67756 0.0
H533 H 0.89038 0.1106 0.73021 0.0
H534 H 0.86602 0.98996 0.69179 0.0
H535 H 0.9129 0.99204 0.6396 0.0
H536 H 0.89416 0.09286 0.62093 0.0
C537 C 0.80738 0.09276 0.75444 0.0
C538 C 0.79718 0.07354 0.78966 0.0
C539 C 0.8042 0.04052 0.78921 0.0
C540 C 0.82151 0.02695 0.75442 0.0
C541 C 0.8315 0.04674 0.72033 0.0
C542 C 0.82471 0.079 0.7203 0.0
C543 C 0.84205 0.09594 0.68368 0.0
C544 C 0.81288 0.11042 0.64786 0.0
C545 C 0.86939 0.12133 0.70438 0.0
C546 C 0.86103 0.06845 0.66416 0.0
C547 C 0.85392 0.04006 0.68477 0.0
C548 C 0.87118 0.01195 0.67484 0.0
C549 C 0.89754 0.01324 0.64482 0.0
C550 C 0.90674 0.04255 0.62592 0.0
C551 C 0.88712 0.07008 0.63434 0.0
H552 H 0.31272 0.42178 0.27274 0.0
H553 H 0.29551 0.51824 0.31607 0.0
H554 H 0.3225 0.53857 0.24981 0.0
H555 H 0.39644 0.43307 0.24304 0.0
H556 H 0.39119 0.40701 0.1944 0.0
H557 H 0.36453 0.4005 0.23985 0.0
H558 H 0.30524 0.40342 0.18261 0.0
H559 H 0.33185 0.40998 0.13675 0.0
H560 H 0.29672 0.43773 0.14642 0.0
H561 H 0.36092 0.54791 0.18655 0.0
H562 H 0.40775 0.54477 0.13458 0.0
H563 H 0.39641 0.44257 0.13034 0.0
C564 C 0.31317 0.44719 0.26741 0.0
C565 C 0.30177 0.46836 0.29959 0.0
C566 C 0.30425 0.50149 0.29208 0.0
C567 C 0.31923 0.51328 0.25426 0.0
C568 C 0.33113 0.49167 0.22385 0.0
C569 C 0.32787 0.45928 0.22988 0.0
C570 C 0.34635 0.44088 0.19569 0.0
C571 C 0.3764 0.41912 0.21969 0.0
C572 C 0.31836 0.42188 0.16345 0.0
C573 C 0.36216 0.46789 0.17094 0.0
C574 C 0.35258 0.49708 0.18691 0.0
C575 C 0.3676 0.52524 0.1727 0.0
C576 C 0.39389 0.52336 0.14265 0.0
C577 C 0.40491 0.49357 0.12741 0.0
C578 C 0.38783 0.46573 0.14064 0.0
H579 H 0.15279 0.97244 0.90253 0.0
H580 H 0.13666 0.87179 0.87591 0.0
H581 H 0.11015 0.88392 0.79676 0.0
H582 H 0.06939 0.99794 0.83947 0.0
H583 H 0.08868 0.03373 0.81931 0.0
H584 H 0.10793 0.01662 0.87276 0.0
H585 H 0.17122 0.0145 0.84449 0.0
H586 H 0.15205 0.03139 0.79078 0.0
H587 H 0.17598 0.99412 0.79217 0.0
H588 H 0.08312 0.9079 0.7202 0.0
H589 H 0.05643 0.94151 0.65551 0.0
H590 H 0.09035 0.02573 0.73436 0.0
C591 C 0.14349 0.95289 0.88026 0.0
C592 C 0.14685 0.92115 0.8956 0.0
C593 C 0.13481 0.89631 0.86489 0.0
C594 C 0.11961 0.90296 0.81986 0.0
C595 C 0.11671 0.93457 0.80594 0.0
C596 C 0.1283 0.95908 0.83538 0.0
C597 C 0.12132 0.99105 0.81278 0.0
C598 C 0.09528 0.01099 0.83755 0.0
C599 C 0.15729 0.0088 0.80989 0.0
C600 C 0.10348 0.9808 0.7662 0.0
C601 C 0.10124 0.94817 0.76254 0.0
C602 C 0.08491 0.93349 0.72269 0.0
C603 C 0.06994 0.95274 0.68606 0.0
C604 C 0.07124 0.98626 0.68976 0.0
C605 C 0.0888 0.0002 0.73025 0.0
loop_
_geom_bond_atom_site_label_1
_geom_bond_atom_site_label_2
_geom_bond_distance
_geom_bond_site_symmetry_2
_ccdc_geom_bond_type
C0 C1 1.391 . S
C0 C4 1.391 . S
C0 H42 0.948 . S
C1 C0 1.391 . S
C1 C2 1.391 . S
C2 C1 1.391 . S
C2 H58 0.947 . S
C2 C59 1.392 1_556 S
C3 C4 1.391 1_554 S
C3 C7 1.397 . S
C3 C59 1.419 . S
C4 C0 1.391 . S
C4 C3 1.391 1_556 S
C4 C5 1.399 . S
C5 C4 1.399 . S
C5 C8 1.396 1_556 S
C5 C17 1.453 . S
C5 C18 1.684 . S
H6 C30 0.948 . S
C7 C3 1.397 . S
C7 C8 1.394 . S
C7 C26 1.723 . S
C8 C5 1.396 1_554 S
C8 C7 1.394 . S
C8 C38 1.723 . S
H9 C32 0.947 . S
H10 C33 0.948 . S
H11 C39 0.982 . S
H12 C40 0.979 . S
H13 C40 0.980 . S
H14 C40 0.983 . S
H15 C39 0.979 . S
H16 C39 0.977 . S
C17 C5 1.453 . S
C17 H46 0.982 . S
C17 H47 0.979 . S
C17 H48 0.977 . S
C18 C5 1.684 . S
C18 H43 0.979 . S
C18 H44 0.980 . S
C18 H45 0.983 . S
C19 C20 1.391 . S
C19 C24 1.391 . S
C19 H49 0.948 . S
C20 C19 1.391 . S
C20 C21 1.391 . S
C21 C20 1.391 . S
C21 C22 1.392 . S
C21 H50 0.947 . S
C22 C21 1.392 . S
C22 C23 1.419 . S
C22 H51 0.948 . S
C23 C22 1.419 . S
C23 C24 1.391 . S
C23 C27 1.397 . S
C24 C19 1.391 . S
C24 C23 1.391 . S
C24 C25 1.399 . S
C25 C24 1.399 . S
C25 C26 1.396 . S
C25 C28 1.453 . S
C25 C29 1.684 . S
C26 C7 1.723 . S
C26 C25 1.396 . S
C26 C27 1.394 . S
C27 C23 1.397 . S
C27 C26 1.394 . S
C27 C37 1.723 . S
C28 C25 1.453 . S
C28 H52 0.982 . S
C28 H53 0.979 . S
C28 H54 0.977 . S
C29 C25 1.684 . S
C29 H55 0.979 . S
C29 H56 0.980 . S
C29 H57 0.983 . S
C30 H6 0.948 . S
C30 C31 1.391 . S
C30 C35 1.391 . S
C31 C30 1.391 . S
C31 C32 1.391 . S
C32 H9 0.947 . S
C32 C31 1.391 . S
C32 C33 1.392 . S
C33 H10 0.948 . S
C33 C32 1.392 . S
C33 C34 1.419 . S
C34 C33 1.419 . S
C34 C35 1.391 . S
C34 C38 1.397 . S
C35 C30 1.391 . S
C35 C34 1.391 . S
C35 C36 1.399 . S
C36 C35 1.399 . S
C36 C37 1.396 . S
C36 C39 1.453 . S
C36 C40 1.684 . S
C37 C27 1.723 . S
C37 C36 1.396 . S
C37 C38 1.394 . S
C38 C8 1.723 . S
C38 C34 1.397 . S
C38 C37 1.394 . S
C39 H11 0.982 . S
C39 H15 0.979 . S
C39 H16 0.977 . S
C39 C36 1.453 . S
C40 H12 0.979 . S
C40 H13 0.980 . S
C40 H14 0.983 . S
C40 C36 1.684 . S
H41 C59 0.948 . S
H42 C0 0.948 . S
H43 C18 0.979 . S
H44 C18 0.980 . S
H45 C18 0.983 . S
H46 C17 0.982 . S
H47 C17 0.979 . S
H48 C17 0.977 . S
H49 C19 0.948 . S
H50 C21 0.947 . S
H51 C22 0.948 . S
H52 C28 0.982 . S
H53 C28 0.979 . S
H54 C28 0.977 . S
H55 C29 0.979 . S
H56 C29 0.980 . S
H57 C29 0.983 . S
H58 C2 0.947 . S
C59 C2 1.392 1_554 S
C59 C3 1.419 . S
C59 H41 0.948 . S
C60 C61 1.391 . S
C60 C64 1.391 . S
C60 H102 0.948 . S
C61 C60 1.391 . S
C61 C62 1.391 . S
C62 C61 1.391 . S
C62 H118 0.947 . S
C62 C119 1.392 . S
C63 C64 1.391 . S
C63 C67 1.397 . S
C63 C119 1.419 . S
C64 C60 1.391 . S
C64 C63 1.391 . S
C64 C65 1.399 . S
C65 C64 1.399 . S
C65 C68 1.396 . S
C65 C77 1.453 . S
C65 C78 1.684 . S
H66 C90 0.948 . S
C67 C63 1.397 . S
C67 C68 1.394 . S
C67 C86 1.723 . S
C68 C65 1.396 . S
C68 C67 1.394 . S
C68 C98 1.723 . S
H69 C92 0.947 . S
H70 C93 0.948 . S
H71 C99 0.982 . S
H72 C100 0.979 . S
H73 C100 0.980 . S
H74 C100 0.983 . S
H75 C99 0.979 . S
H76 C99 0.977 . S
C77 C65 1.453 . S
C77 H106 0.982 . S
C77 H107 0.979 . S
C77 H108 0.977 . S
C78 C65 1.684 . S
C78 H103 0.979 . S
C78 H104 0.980 . S
C78 H105 0.983 . S
C79 C80 1.391 . S
C79 C84 1.391 . S
C79 H109 0.948 . S
C80 C79 1.391 . S
C80 C81 1.391 . S
C81 C80 1.391 . S
C81 C82 1.392 . S
C81 H110 0.947 . S
C82 C81 1.392 . S
C82 C83 1.419 . S
C82 H111 0.948 . S
C83 C82 1.419 . S
C83 C84 1.391 . S
C83 C87 1.397 . S
C84 C79 1.391 . S
C84 C83 1.391 . S
C84 C85 1.399 . S
C85 C84 1.399 . S
C85 C86 1.396 . S
C85 C88 1.453 . S
C85 C89 1.684 . S
C86 C67 1.723 . S
C86 C85 1.396 . S
C86 C87 1.394 . S
C87 C83 1.397 . S
C87 C86 1.394 . S
C87 C97 1.723 . S
C88 C85 1.453 . S
C88 H112 0.982 . S
C88 H113 0.979 . S
C88 H114 0.977 . S
C89 C85 1.684 . S
C89 H115 0.979 . S
C89 H116 0.980 . S
C89 H117 0.983 . S
C90 H66 0.948 . S
C90 C91 1.391 . S
C90 C95 1.391 . S
C91 C90 1.391 . S
C91 C92 1.391 . S
C92 H69 0.947 . S
C92 C91 1.391 . S
C92 C93 1.392 . S
C93 H70 0.948 . S
C93 C92 1.392 . S
C93 C94 1.419 . S
C94 C93 1.419 . S
C94 C95 1.391 . S
C94 C98 1.397 . S
C95 C90 1.391 . S
C95 C94 1.391 . S
C95 C96 1.399 . S
C96 C95 1.399 . S
C96 C97 1.396 . S
C96 C99 1.453 . S
C96 C100 1.684 . S
C97 C87 1.723 . S
C97 C96 1.396 . S
C97 C98 1.394 . S
C98 C68 1.723 . S
C98 C94 1.397 . S
C98 C97 1.394 . S
C99 H71 0.982 . S
C99 H75 0.979 . S
C99 H76 0.977 . S
C99 C96 1.453 . S
C100 H72 0.979 . S
C100 H73 0.980 . S
C100 H74 0.983 . S
C100 C96 1.684 . S
H101 C119 0.948 . S
H102 C60 0.948 . S
H103 C78 0.979 . S
H104 C78 0.980 . S
H105 C78 0.983 . S
H106 C77 0.982 . S
H107 C77 0.979 . S
H108 C77 0.977 . S
H109 C79 0.948 . S
H110 C81 0.947 . S
H111 C82 0.948 . S
H112 C88 0.982 . S
H113 C88 0.979 . S
H114 C88 0.977 . S
H115 C89 0.979 . S
H116 C89 0.980 . S
H117 C89 0.983 . S
H118 C62 0.947 . S
C119 C62 1.392 . S
C119 C63 1.419 . S
C119 H101 0.948 . S
C120 C121 1.391 . S
C120 C124 1.391 . S
C120 H162 0.948 . S
C121 C120 1.391 . S
C121 C122 1.391 . S
C122 C121 1.391 . S
C122 H178 0.947 . S
C122 C179 1.392 . S
C123 C124 1.391 . S
C123 C127 1.397 . S
C123 C179 1.419 . S
C124 C120 1.391 . S
C124 C123 1.391 . S
C124 C125 1.399 . S
C125 C124 1.399 . S
C125 C128 1.396 . S
C125 C137 1.453 . S
C125 C138 1.684 . S
H126 C150 0.948 . S
C127 C123 1.397 . S
C127 C128 1.394 . S
C127 C146 1.723 1_554 S
C128 C125 1.396 . S
C128 C127 1.394 . S
C128 C158 1.723 . S
H129 C152 0.947 . S
H130 C153 0.948 . S
H131 C159 0.982 . S
H132 C160 0.979 . S
H133 C160 0.980 . S
H134 C160 0.983 . S
H135 C159 0.979 . S
H136 C159 0.977 . S
C137 C125 1.453 . S
C137 H166 0.982 . S
C137 H167 0.979 . S
C137 H168 0.977 . S
C138 C125 1.684 . S
C138 H163 0.979 . S
C138 H164 0.980 . S
C138 H165 0.983 . S
C139 C140 1.391 . S
C139 C144 1.391 . S
C139 H169 0.948 . S
C140 C139 1.391 . S
C140 C141 1.391 . S
C141 C140 1.391 . S
C141 C142 1.392 . S
C141 H170 0.947 . S
C142 C141 1.392 . S
C142 C143 1.419 . S
C142 H171 0.948 . S
C143 C142 1.419 . S
C143 C144 1.391 . S
C143 C147 1.397 . S
C144 C139 1.391 . S
C144 C143 1.391 . S
C144 C145 1.399 . S
C145 C144 1.399 . S
C145 C146 1.396 . S
C145 C148 1.453 . S
C145 C149 1.684 . S
C146 C127 1.723 1_556 S
C146 C145 1.396 . S
C146 C147 1.394 . S
C147 C143 1.397 . S
C147 C146 1.394 . S
C147 C157 1.723 . S
C148 C145 1.453 . S
C148 H172 0.982 . S
C148 H173 0.979 . S
C148 H174 0.977 1_556 S
C149 C145 1.684 . S
C149 H175 0.979 . S
C149 H176 0.980 1_556 S
C149 H177 0.983 . S
C150 H126 0.948 . S
C150 C151 1.380 1_556 S
C150 C155 1.391 . S
C151 C150 1.380 1_554 S
C151 C152 1.403 . S
C152 H129 0.947 . S
C152 C151 1.403 . S
C152 C153 1.392 . S
C153 H130 0.948 . S
C153 C152 1.392 . S
C153 C154 1.419 . S
C154 C153 1.419 . S
C154 C155 1.391 1_554 S
C154 C158 1.397 . S
C155 C150 1.391 . S
C155 C154 1.391 1_556 S
C155 C156 1.399 . S
C156 C155 1.399 . S
C156 C157 1.396 . S
C156 C159 1.453 . S
C156 C160 1.684 . S
C157 C147 1.723 . S
C157 C156 1.396 . S
C157 C158 1.394 1_556 S
C158 C128 1.723 . S
C158 C154 1.397 . S
C158 C157 1.394 1_554 S
C159 H131 0.982 . S
C159 H135 0.979 . S
C159 H136 0.977 . S
C159 C156 1.453 . S
C160 H132 0.979 . S
C160 H133 0.980 . S
C160 H134 0.983 . S
C160 C156 1.684 . S
H161 C179 0.948 . S
H162 C120 0.948 . S
H163 C138 0.979 . S
H164 C138 0.980 . S
H165 C138 0.983 . S
H166 C137 0.982 . S
H167 C137 0.979 . S
H168 C137 0.977 . S
H169 C139 0.948 . S
H170 C141 0.947 . S
H171 C142 0.948 . S
H172 C148 0.982 . S
H173 C148 0.979 . S
H174 C148 0.977 1_554 S
H175 C149 0.979 . S
H176 C149 0.980 1_554 S
H177 C149 0.983 . S
H178 C122 0.947 . S
C179 C122 1.392 . S
C179 C123 1.419 . S
C179 H161 0.948 . S
C180 C181 1.391 . S
C180 C184 1.391 . S
C180 H222 0.948 . S
C181 C180 1.391 . S
C181 C182 1.391 . S
C182 C181 1.391 . S
C182 H238 0.947 . S
C182 C239 1.392 . S
C183 C184 1.391 . S
C183 C187 1.397 . S
C183 C239 1.419 . S
C184 C180 1.391 . S
C184 C183 1.391 . S
C184 C185 1.399 . S
C185 C184 1.399 . S
C185 C188 1.396 . S
C185 C197 1.453 . S
C185 C198 1.684 . S
H186 C210 0.948 . S
C187 C183 1.397 . S
C187 C188 1.394 . S
C187 C206 1.723 . S
C188 C185 1.396 . S
C188 C187 1.394 . S
C188 C218 1.723 . S
H189 C212 0.947 . S
H190 C213 0.948 . S
H191 C219 0.982 . S
H192 C220 0.979 . S
H193 C220 0.980 . S
H194 C220 0.983 . S
H195 C219 0.979 . S
H196 C219 0.977 . S
C197 C185 1.453 . S
C197 H226 0.982 . S
C197 H227 0.979 . S
C197 H228 0.977 . S
C198 C185 1.684 . S
C198 H223 0.979 . S
C198 H224 0.980 . S
C198 H225 0.983 . S
C199 C200 1.391 . S
C199 C204 1.391 . S
C199 H229 0.948 . S
C200 C199 1.391 . S
C200 C201 1.391 . S
C201 C200 1.391 . S
C201 C202 1.392 . S
C201 H230 0.947 . S
C202 C201 1.392 . S
C202 C203 1.419 . S
C202 H231 0.948 . S
C203 C202 1.419 . S
C203 C204 1.391 . S
C203 C207 1.397 . S
C204 C199 1.391 . S
C204 C203 1.391 . S
C204 C205 1.399 . S
C205 C204 1.399 . S
C205 C206 1.396 . S
C205 C208 1.453 . S
C205 C209 1.684 . S
C206 C187 1.723 . S
C206 C205 1.396 . S
C206 C207 1.394 . S
C207 C203 1.397 . S
C207 C206 1.394 . S
C207 C217 1.723 . S
C208 C205 1.453 . S
C208 H232 0.982 . S
C208 H233 0.979 . S
C208 H234 0.977 . S
C209 C205 1.684 . S
C209 H235 0.979 . S
C209 H236 0.980 . S
C209 H237 0.983 . S
C210 H186 0.948 . S
C210 C211 1.391 . S
C210 C215 1.391 . S
C211 C210 1.391 . S
C211 C212 1.391 . S
C212 H189 0.947 . S
C212 C211 1.391 . S
C212 C213 1.392 . S
C213 H190 0.948 . S
C213 C212 1.392 . S
C213 C214 1.419 . S
C214 C213 1.419 . S
C214 C215 1.391 . S
C214 C218 1.397 . S
C215 C210 1.391 . S
C215 C214 1.391 . S
C215 C216 1.399 . S
C216 C215 1.399 . S
C216 C217 1.396 . S
C216 C219 1.453 . S
C216 C220 1.684 . S
C217 C207 1.723 . S
C217 C216 1.396 . S
C217 C218 1.394 . S
C218 C188 1.723 . S
C218 C214 1.397 . S
C218 C217 1.394 . S
C219 H191 0.982 . S
C219 H195 0.979 . S
C219 H196 0.977 . S
C219 C216 1.453 . S
C220 H192 0.979 . S
C220 H193 0.980 . S
C220 H194 0.983 . S
C220 C216 1.684 . S
H221 C239 0.948 . S
H222 C180 0.948 . S
H223 C198 0.979 . S
H224 C198 0.980 . S
H225 C198 0.983 . S
H226 C197 0.982 . S
H227 C197 0.979 . S
H228 C197 0.977 . S
H229 C199 0.948 . S
H230 C201 0.947 . S
H231 C202 0.948 . S
H232 C208 0.982 . S
H233 C208 0.979 . S
H234 C208 0.977 . S
H235 C209 0.979 . S
H236 C209 0.980 . S
H237 C209 0.983 . S
H238 C182 0.947 . S
C239 C182 1.392 . S
C239 C183 1.419 . S
C239 H221 0.948 . S
O240 Mg241 1.990 1_655 S
O240 C254 1.253 . S
Mg241 O240 1.990 1_455 S
Mg241 O244 2.180 . S
Mg241 O245 2.117 . S
Mg241 O259 2.030 . S
O242 Mg243 2.072 1_655 S
O242 C254 1.260 . S
Mg243 O242 2.072 1_455 S
Mg243 O244 2.099 . S
Mg243 O246 2.079 1_545 S
Mg243 O247 2.072 1_455 S
Mg243 O249 2.099 1_445 S
Mg243 O260 2.079 1_545 S
O244 Mg241 2.180 . S
O244 Mg243 2.099 . S
O244 C255 1.279 . S
O245 Mg241 2.117 . S
O245 C255 1.250 . S
O246 Mg243 2.079 1_565 S
O246 C256 1.264 . S
O247 Mg243 2.072 1_655 S
O247 C257 1.260 . S
Mg248 O249 2.180 . S
Mg248 O250 2.030 1_655 S
Mg248 O251 1.956 1_565 S
Mg248 O252 2.117 . S
O249 Mg243 2.099 1_665 S
O249 Mg248 2.180 . S
O249 C258 1.279 . S
O250 Mg248 2.030 1_455 S
O250 C256 1.248 . S
O251 Mg248 1.956 1_545 S
O251 C257 1.287 . S
O252 Mg248 2.117 . S
O252 C258 1.250 . S
C253 O259 1.248 1_565 S
C253 O260 1.264 . S
C254 O240 1.253 . S
C254 O242 1.260 . S
C255 O244 1.279 . S
C255 O245 1.250 . S
C256 O246 1.264 . S
C256 O250 1.248 . S
C257 O247 1.260 . S
C257 O251 1.287 . S
C258 O249 1.279 . S
C258 O252 1.250 . S
O259 Mg241 2.030 . S
O259 C253 1.248 1_545 S
O260 Mg243 2.079 1_565 S
O260 C253 1.264 . S
O261 Mg262 1.990 . S
O261 C275 1.253 . S
Mg262 O261 1.990 . S
Mg262 O265 2.180 . S
Mg262 O266 2.117 . S
Mg262 O280 2.030 . S
O263 Mg264 2.072 . S
O263 C275 1.260 . S
Mg264 O263 2.072 . S
Mg264 O265 2.099 . S
Mg264 O267 2.079 1_554 S
Mg264 O268 2.072 1_554 S
Mg264 O270 2.099 . S
Mg264 O281 2.079 . S
O265 Mg262 2.180 . S
O265 Mg264 2.099 . S
O265 C276 1.279 . S
O266 Mg262 2.117 . S
O266 C276 1.250 . S
O267 Mg264 2.079 1_556 S
O267 C277 1.264 . S
O268 Mg264 2.072 1_556 S
O268 C278 1.260 . S
Mg269 O270 2.180 1_556 S
Mg269 O271 2.030 . S
Mg269 O272 1.990 . S
Mg269 O273 2.116 . S
O270 Mg264 2.099 . S
O270 Mg269 2.180 1_554 S
O270 C279 1.279 . S
O271 Mg269 2.030 . S
O271 C277 1.248 . S
O272 Mg269 1.990 . S
O272 C278 1.253 . S
O273 Mg269 2.116 . S
O273 C279 1.252 1_556 S
C274 O280 1.248 . S
C274 O281 1.264 . S
C275 O261 1.253 . S
C275 O263 1.260 . S
C276 O265 1.279 . S
C276 O266 1.250 . S
C277 O267 1.264 . S
C277 O271 1.248 . S
C278 O268 1.260 . S
C278 O272 1.253 . S
C279 O270 1.279 . S
C279 O273 1.252 1_554 S
O280 Mg262 2.030 . S
O280 C274 1.248 . S
O281 Mg264 2.079 . S
O281 C274 1.264 . S
H282 C294 0.930 . S
H283 C296 0.930 . S
H284 C297 0.930 . S
H285 C301 0.959 . S
H286 C301 0.959 . S
H287 C301 0.961 . S
H288 C302 0.960 . S
H289 C302 0.961 . S
H290 C302 0.959 . S
H291 C305 0.929 . S
H292 C306 0.931 . S
H293 C308 0.930 . S
C294 H282 0.930 . S
C294 C295 1.399 . S
C294 C299 1.399 . S
C295 C294 1.399 . S
C295 C296 1.376 . S
C296 H283 0.930 . S
C296 C295 1.376 . S
C296 C297 1.388 . S
C297 H284 0.930 . S
C297 C296 1.388 . S
C297 C298 1.390 . S
C298 C297 1.390 . S
C298 C299 1.394 . S
C298 C304 1.465 . S
C299 C294 1.399 . S
C299 C298 1.394 . S
C299 C300 1.516 . S
C300 C299 1.516 . S
C300 C301 1.502 . S
C300 C302 1.561 . S
C300 C303 1.526 . S
C301 H285 0.959 . S
C301 H286 0.959 . S
C301 H287 0.961 . S
C301 C300 1.502 . S
C302 H288 0.960 . S
C302 H289 0.961 . S
C302 H290 0.959 . S
C302 C300 1.561 . S
C303 C300 1.526 . S
C303 C304 1.396 . S
C303 C308 1.390 . S
C304 C298 1.465 . S
C304 C303 1.396 . S
C304 C305 1.399 . S
C305 H291 0.929 . S
C305 C304 1.399 . S
C305 C306 1.385 . S
C306 H292 0.931 . S
C306 C305 1.385 . S
C306 C307 1.389 . S
C307 C306 1.389 . S
C307 C308 1.387 . S
C308 H293 0.930 . S
C308 C303 1.390 . S
C308 C307 1.387 . S
H309 C321 0.930 . S
H310 C323 0.930 . S
H311 C324 0.930 1_556 S
H312 C328 0.959 . S
H313 C328 0.959 . S
H314 C328 0.961 . S
H315 C329 0.960 . S
H316 C329 0.961 . S
H317 C329 0.959 . S
H318 C332 0.929 1_556 S
H319 C333 0.931 1_556 S
H320 C335 0.930 . S
C321 H309 0.930 . S
C321 C322 1.399 . S
C321 C326 1.399 . S
C322 C321 1.399 . S
C322 C323 1.376 . S
C323 H310 0.930 . S
C323 C322 1.376 . S
C323 C324 1.388 . S
C324 H311 0.930 1_554 S
C324 C323 1.388 . S
C324 C325 1.390 . S
C325 C324 1.390 . S
C325 C326 1.394 . S
C325 C331 1.465 . S
C326 C321 1.399 . S
C326 C325 1.394 . S
C326 C327 1.516 . S
C327 C326 1.516 . S
C327 C328 1.502 . S
C327 C329 1.561 . S
C327 C330 1.526 . S
C328 H312 0.959 . S
C328 H313 0.959 . S
C328 H314 0.961 . S
C328 C327 1.502 . S
C329 H315 0.960 . S
C329 H316 0.961 . S
C329 H317 0.959 . S
C329 C327 1.561 . S
C330 C327 1.526 . S
C330 C331 1.396 . S
C330 C335 1.390 . S
C331 C325 1.465 . S
C331 C330 1.396 . S
C331 C332 1.399 . S
C332 H318 0.929 1_554 S
C332 C331 1.399 . S
C332 C333 1.385 . S
C333 H319 0.931 1_554 S
C333 C332 1.385 . S
C333 C334 1.389 . S
C334 C333 1.389 . S
C334 C335 1.387 . S
C335 H320 0.930 . S
C335 C330 1.390 . S
C335 C334 1.387 . S
H336 C348 0.930 . S
H337 C350 0.930 . S
H338 C351 0.930 . S
H339 C355 0.959 . S
H340 C355 0.959 . S
H341 C355 0.961 . S
H342 C356 0.960 . S
H343 C356 0.961 . S
H344 C356 0.959 . S
H345 C359 0.929 . S
H346 C360 0.931 . S
H347 C362 0.930 . S
C348 H336 0.930 . S
C348 C349 1.399 . S
C348 C353 1.399 . S
C349 C348 1.399 . S
C349 C350 1.376 . S
C350 H337 0.930 . S
C350 C349 1.376 . S
C350 C351 1.388 . S
C351 H338 0.930 . S
C351 C350 1.388 . S
C351 C352 1.390 . S
C352 C351 1.390 . S
C352 C353 1.394 . S
C352 C358 1.465 . S
C353 C348 1.399 . S
C353 C352 1.394 . S
C353 C354 1.516 . S
C354 C353 1.516 . S
C354 C355 1.502 . S
C354 C356 1.561 . S
C354 C357 1.526 . S
C355 H339 0.959 . S
C355 H340 0.959 . S
C355 H341 0.961 . S
C355 C354 1.502 . S
C356 H342 0.960 . S
C356 H343 0.961 . S
C356 H344 0.959 . S
C356 C354 1.561 . S
C357 C354 1.526 . S
C357 C358 1.396 . S
C357 C362 1.390 . S
C358 C352 1.465 . S
C358 C357 1.396 . S
C358 C359 1.399 . S
C359 H345 0.929 . S
C359 C358 1.399 . S
C359 C360 1.385 . S
C360 H346 0.931 . S
C360 C359 1.385 . S
C360 C361 1.389 . S
C361 C360 1.389 . S
C361 C362 1.387 . S
C362 H347 0.930 . S
C362 C357 1.390 . S
C362 C361 1.387 . S
H363 C375 0.930 . S
H364 C377 0.930 . S
H365 C378 0.930 . S
H366 C382 0.959 . S
H367 C382 0.959 . S
H368 C382 0.961 . S
H369 C383 0.960 . S
H370 C383 0.961 . S
H371 C383 0.959 . S
H372 C386 0.929 . S
H373 C387 0.931 . S
H374 C389 0.930 1_556 S
C375 H363 0.930 . S
C375 C376 1.399 1_556 S
C375 C380 1.399 . S
C376 C375 1.399 1_554 S
C376 C377 1.376 . S
C377 H364 0.930 . S
C377 C376 1.376 . S
C377 C378 1.388 . S
C378 H365 0.930 . S
C378 C377 1.388 . S
C378 C379 1.390 . S
C379 C378 1.390 . S
C379 C380 1.394 1_554 S
C379 C385 1.465 . S
C380 C375 1.399 . S
C380 C379 1.394 1_556 S
C380 C381 1.516 . S
C381 C380 1.516 . S
C381 C382 1.502 . S
C381 C383 1.561 1_556 S
C381 C384 1.526 1_556 S
C382 H366 0.959 . S
C382 H367 0.959 . S
C382 H368 0.961 . S
C382 C381 1.502 . S
C383 H369 0.960 . S
C383 H370 0.961 . S
C383 H371 0.959 . S
C383 C381 1.561 1_554 S
C384 C381 1.526 1_554 S
C384 C385 1.396 . S
C384 C389 1.390 . S
C385 C379 1.465 . S
C385 C384 1.396 . S
C385 C386 1.399 . S
C386 H372 0.929 . S
C386 C385 1.399 . S
C386 C387 1.385 . S
C387 H373 0.931 . S
C387 C386 1.385 . S
C387 C388 1.389 . S
C388 C387 1.389 . S
C388 C389 1.387 . S
C389 H374 0.930 1_554 S
C389 C384 1.390 . S
C389 C388 1.387 . S
H390 C402 0.930 . S
H391 C404 0.930 . S
H392 C405 0.930 . S
H393 C409 0.959 . S
H394 C409 0.959 . S
H395 C409 0.961 . S
H396 C410 0.960 . S
H397 C410 0.961 . S
H398 C410 0.959 1_565 S
H399 C413 0.929 . S
H400 C414 0.931 . S
H401 C416 0.930 1_545 S
C402 H390 0.930 . S
C402 C403 1.399 . S
C402 C407 1.399 . S
C403 C402 1.399 . S
C403 C404 1.376 . S
C404 H391 0.930 . S
C404 C403 1.376 . S
C404 C405 1.388 . S
C405 H392 0.930 . S
C405 C404 1.388 . S
C405 C406 1.390 . S
C406 C405 1.390 . S
C406 C407 1.394 . S
C406 C412 1.465 . S
C407 C402 1.399 . S
C407 C406 1.394 . S
C407 C408 1.498 1_565 S
C408 C407 1.498 1_545 S
C408 C409 1.520 . S
C408 C410 1.571 . S
C408 C411 1.515 1_545 S
C409 H393 0.959 . S
C409 H394 0.959 . S
C409 H395 0.961 . S
C409 C408 1.520 . S
C410 H396 0.960 . S
C410 H397 0.961 . S
C410 H398 0.959 1_545 S
C410 C408 1.571 . S
C411 C408 1.515 1_565 S
C411 C412 1.396 . S
C411 C416 1.390 . S
C412 C406 1.465 . S
C412 C411 1.396 . S
C412 C413 1.399 . S
C413 H399 0.929 . S
C413 C412 1.399 . S
C413 C414 1.385 . S
C414 H400 0.931 . S
C414 C413 1.385 . S
C414 C415 1.389 . S
C415 C414 1.389 . S
C415 C416 1.387 . S
C416 H401 0.930 1_565 S
C416 C411 1.390 . S
C416 C415 1.387 . S
H417 C429 0.930 . S
H418 C431 0.930 . S
H419 C432 0.930 . S
H420 C436 0.959 . S
H421 C436 0.959 . S
H422 C436 0.961 . S
H423 C437 0.960 . S
H424 C437 0.961 . S
H425 C437 0.959 . S
H426 C440 0.929 . S
H427 C441 0.931 . S
H428 C443 0.930 . S
C429 H417 0.930 . S
C429 C430 1.399 . S
C429 C434 1.399 . S
C430 C429 1.399 . S
C430 C431 1.376 . S
C431 H418 0.930 . S
C431 C430 1.376 . S
C431 C432 1.388 . S
C432 H419 0.930 . S
C432 C431 1.388 . S
C432 C433 1.390 . S
C433 C432 1.390 . S
C433 C434 1.394 . S
C433 C439 1.465 . S
C434 C429 1.399 . S
C434 C433 1.394 . S
C434 C435 1.516 . S
C435 C434 1.516 . S
C435 C436 1.502 . S
C435 C437 1.561 . S
C435 C438 1.526 . S
C436 H420 0.959 . S
C436 H421 0.959 . S
C436 H422 0.961 . S
C436 C435 1.502 . S
C437 H423 0.960 . S
C437 H424 0.961 . S
C437 H425 0.959 . S
C437 C435 1.561 . S
C438 C435 1.526 . S
C438 C439 1.396 . S
C438 C443 1.390 . S
C439 C433 1.465 . S
C439 C438 1.396 . S
C439 C440 1.399 . S
C440 H426 0.929 . S
C440 C439 1.399 . S
C440 C441 1.385 . S
C441 H427 0.931 . S
C441 C440 1.385 . S
C441 C442 1.389 . S
C442 C441 1.389 . S
C442 C443 1.387 . S
C443 H428 0.930 . S
C443 C438 1.390 . S
C443 C442 1.387 . S
H444 C456 0.930 . S
H445 C458 0.930 . S
H446 C459 0.930 . S
H447 C463 0.959 . S
H448 C463 0.959 . S
H449 C463 0.961 . S
H450 C464 0.960 . S
H451 C464 0.961 . S
H452 C464 0.959 . S
H453 C467 0.929 1_565 S
H454 C468 0.931 1_565 S
H455 C470 0.930 . S
C456 H444 0.930 . S
C456 C457 1.399 . S
C456 C461 1.399 . S
C457 C456 1.399 . S
C457 C458 1.376 . S
C458 H445 0.930 . S
C458 C457 1.376 . S
C458 C459 1.388 . S
C459 H446 0.930 . S
C459 C458 1.388 . S
C459 C460 1.390 . S
C460 C459 1.390 . S
C460 C461 1.394 . S
C460 C466 1.465 . S
C461 C456 1.399 . S
C461 C460 1.394 . S
C461 C462 1.516 . S
C462 C461 1.516 . S
C462 C463 1.502 . S
C462 C464 1.561 . S
C462 C465 1.526 . S
C463 H447 0.959 . S
C463 H448 0.959 . S
C463 H449 0.961 . S
C463 C462 1.502 . S
C464 H450 0.960 . S
C464 H451 0.961 . S
C464 H452 0.959 . S
C464 C462 1.561 . S
C465 C462 1.526 . S
C465 C466 1.396 . S
C465 C470 1.390 . S
C466 C460 1.465 . S
C466 C465 1.396 . S
C466 C467 1.399 . S
C467 H453 0.929 1_545 S
C467 C466 1.399 . S
C467 C468 1.385 . S
C468 H454 0.931 1_545 S
C468 C467 1.385 . S
C468 C469 1.389 . S
C469 C468 1.389 . S
C469 C470 1.387 . S
C470 H455 0.930 . S
C470 C465 1.390 . S
C470 C469 1.387 . S
H471 C483 0.930 . S
H472 C485 0.930 . S
H473 C486 0.930 . S
H474 C490 0.959 . S
H475 C490 0.959 . S
H476 C490 0.961 . S
H477 C491 0.960 . S
H478 C491 0.961 . S
H479 C491 0.959 . S
H480 C494 0.929 . S
H481 C495 0.931 . S
H482 C497 0.930 . S
C483 H471 0.930 . S
C483 C484 1.399 . S
C483 C488 1.399 . S
C484 C483 1.399 . S
C484 C485 1.376 . S
C485 H472 0.930 . S
C485 C484 1.376 . S
C485 C486 1.388 . S
C486 H473 0.930 . S
C486 C485 1.388 . S
C486 C487 1.390 . S
C487 C486 1.390 . S
C487 C488 1.394 . S
C487 C493 1.465 . S
C488 C483 1.399 . S
C488 C487 1.394 . S
C488 C489 1.516 . S
C489 C488 1.516 . S
C489 C490 1.502 . S
C489 C491 1.561 . S
C489 C492 1.526 . S
C490 H474 0.959 . S
C490 H475 0.959 . S
C490 H476 0.961 . S
C490 C489 1.502 . S
C491 H477 0.960 . S
C491 H478 0.961 . S
C491 H479 0.959 . S
C491 C489 1.561 . S
C492 C489 1.526 . S
C492 C493 1.396 . S
C492 C497 1.390 . S
C493 C487 1.465 . S
C493 C492 1.396 . S
C493 C494 1.399 . S
C494 H480 0.929 . S
C494 C493 1.399 . S
C494 C495 1.385 . S
C495 H481 0.931 . S
C495 C494 1.385 . S
C495 C496 1.389 . S
C496 C495 1.389 . S
C496 C497 1.387 . S
C497 H482 0.930 . S
C497 C492 1.390 . S
C497 C496 1.387 . S
H498 C510 0.930 . S
H499 C512 0.930 . S
H500 C513 0.930 . S
H501 C517 0.959 . S
H502 C517 0.959 . S
H503 C517 0.961 . S
H504 C518 0.960 . S
H505 C518 0.961 . S
H506 C518 0.959 . S
H507 C521 0.929 . S
H508 C522 0.931 . S
H509 C524 0.930 . S
C510 H498 0.930 . S
C510 C511 1.399 . S
C510 C515 1.399 . S
C511 C510 1.399 . S
C511 C512 1.376 . S
C512 H499 0.930 . S
C512 C511 1.376 . S
C512 C513 1.388 . S
C513 H500 0.930 . S
C513 C512 1.388 . S
C513 C514 1.390 . S
C514 C513 1.390 . S
C514 C515 1.394 . S
C514 C520 1.465 . S
C515 C510 1.399 . S
C515 C514 1.394 . S
C515 C516 1.516 . S
C516 C515 1.516 . S
C516 C517 1.502 . S
C516 C518 1.561 . S
C516 C519 1.526 . S
C517 H501 0.959 . S
C517 H502 0.959 . S
C517 H503 0.961 . S
C517 C516 1.502 . S
C518 H504 0.960 . S
C518 H505 0.961 . S
C518 H506 0.959 . S
C518 C516 1.561 . S
C519 C516 1.526 . S
C519 C520 1.396 . S
C519 C524 1.390 . S
C520 C514 1.465 . S
C520 C519 1.396 . S
C520 C521 1.399 . S
C521 H507 0.929 . S
C521 C520 1.399 . S
C521 C522 1.385 . S
C522 H508 0.931 . S
C522 C521 1.385 . S
C522 C523 1.389 . S
C523 C522 1.389 . S
C523 C524 1.387 . S
C524 H509 0.930 . S
C524 C519 1.390 . S
C524 C523 1.387 . S
H525 C537 0.930 . S
H526 C539 0.930 . S
H527 C540 0.930 . S
H528 C544 0.959 . S
H529 C544 0.959 . S
H530 C544 0.961 . S
H531 C545 0.960 . S
H532 C545 0.961 . S
H533 C545 0.959 . S
H534 C548 0.929 . S
H535 C549 0.931 1_565 S
H536 C551 0.930 . S
C537 H525 0.930 . S
C537 C538 1.399 . S
C537 C542 1.399 . S
C538 C537 1.399 . S
C538 C539 1.376 . S
C539 H526 0.930 . S
C539 C538 1.376 . S
C539 C540 1.388 . S
C540 H527 0.930 . S
C540 C539 1.388 . S
C540 C541 1.390 . S
C541 C540 1.390 . S
C541 C542 1.394 . S
C541 C547 1.465 . S
C542 C537 1.399 . S
C542 C541 1.394 . S
C542 C543 1.516 . S
C543 C542 1.516 . S
C543 C544 1.502 . S
C543 C545 1.561 . S
C543 C546 1.526 . S
C544 H528 0.959 . S
C544 H529 0.959 . S
C544 H530 0.961 . S
C544 C543 1.502 . S
C545 H531 0.960 . S
C545 H532 0.961 . S
C545 H533 0.959 . S
C545 C543 1.561 . S
C546 C543 1.526 . S
C546 C547 1.396 . S
C546 C551 1.390 . S
C547 C541 1.465 . S
C547 C546 1.396 . S
C547 C548 1.399 . S
C548 H534 0.929 . S
C548 C547 1.399 . S
C548 C549 1.385 . S
C549 H535 0.931 1_545 S
C549 C548 1.385 . S
C549 C550 1.389 . S
C550 C549 1.389 . S
C550 C551 1.387 . S
C551 H536 0.930 . S
C551 C546 1.390 . S
C551 C550 1.387 . S
H552 C564 0.930 . S
H553 C566 0.930 . S
H554 C567 0.930 . S
H555 C571 0.959 . S
H556 C571 0.959 . S
H557 C571 0.961 . S
H558 C572 0.960 . S
H559 C572 0.961 . S
H560 C572 0.959 . S
H561 C575 0.929 . S
H562 C576 0.931 . S
H563 C578 0.930 . S
C564 H552 0.930 . S
C564 C565 1.399 . S
C564 C569 1.399 . S
C565 C564 1.399 . S
C565 C566 1.376 . S
C566 H553 0.930 . S
C566 C565 1.376 . S
C566 C567 1.388 . S
C567 H554 0.930 . S
C567 C566 1.388 . S
C567 C568 1.390 . S
C568 C567 1.390 . S
C568 C569 1.394 . S
C568 C574 1.465 . S
C569 C564 1.399 . S
C569 C568 1.394 . S
C569 C570 1.516 . S
C570 C569 1.516 . S
C570 C571 1.502 . S
C570 C572 1.561 . S
C570 C573 1.526 . S
C571 H555 0.959 . S
C571 H556 0.959 . S
C571 H557 0.961 . S
C571 C570 1.502 . S
C572 H558 0.960 . S
C572 H559 0.961 . S
C572 H560 0.959 . S
C572 C570 1.561 . S
C573 C570 1.526 . S
C573 C574 1.396 . S
C573 C578 1.390 . S
C574 C568 1.465 . S
C574 C573 1.396 . S
C574 C575 1.399 . S
C575 H561 0.929 . S
C575 C574 1.399 . S
C575 C576 1.385 . S
C576 H562 0.931 . S
C576 C575 1.385 . S
C576 C577 1.389 . S
C577 C576 1.389 . S
C577 C578 1.387 . S
C578 H563 0.930 . S
C578 C573 1.390 . S
C578 C577 1.387 . S
H579 C591 0.930 . S
H580 C593 0.930 . S
H581 C594 0.930 . S
H582 C598 0.959 1_565 S
H583 C598 0.959 . S
H584 C598 0.961 . S
H585 C599 0.960 . S
H586 C599 0.961 . S
H587 C599 0.959 . S
H588 C602 0.929 . S
H589 C603 0.931 . S
H590 C605 0.930 1_545 S
C591 H579 0.930 . S
C591 C592 1.399 . S
C591 C596 1.399 . S
C592 C591 1.399 . S
C592 C593 1.376 . S
C593 H580 0.930 . S
C593 C592 1.376 . S
C593 C594 1.388 . S
C594 H581 0.930 . S
C594 C593 1.388 . S
C594 C595 1.390 . S
C595 C594 1.390 . S
C595 C596 1.394 . S
C595 C601 1.465 . S
C596 C591 1.399 . S
C596 C595 1.394 . S
C596 C597 1.493 1_565 S
C597 C596 1.493 1_545 S
C597 C598 1.508 . S
C597 C599 1.592 . S
C597 C600 1.511 1_545 S
C598 H582 0.959 1_545 S
C598 H583 0.959 . S
C598 H584 0.961 . S
C598 C597 1.508 . S
C599 H585 0.960 . S
C599 H586 0.961 . S
C599 H587 0.959 . S
C599 C597 1.592 . S
C600 C597 1.511 1_565 S
C600 C601 1.396 . S
C600 C605 1.390 . S
C601 C595 1.465 . S
C601 C600 1.396 . S
C601 C602 1.399 . S
C602 H588 0.929 . S
C602 C601 1.399 . S
C602 C603 1.385 . S
C603 H589 0.931 . S
C603 C602 1.385 . S
C603 C604 1.389 . S
C604 C603 1.389 . S
C604 C605 1.387 . S
C605 H590 0.930 1_565 S
C605 C600 1.390 . S
C605 C604 1.387 . S
C307 C255 1.410 . S
C295 C211 1.543 . S
C322 C31 1.409 . S
C334 C279 1.287 . S
C349 C91 1.593 . S
C361 C258 1.521 . S
C376 C151 1.615 . S
C388 C276 1.437 . S
C415 C256 1.601 . S
C403 C20 1.539 . S
C442 C278 1.597 . S
C430 C61 1.507 . S
C457 C121 1.581 . S
C469 C257 1.469 . S
C484 C200 1.616 . S
C496 C277 1.493 . S
C523 C275 1.558 . S
C511 C80 1.506 . S
C550 C254 1.593 . S
C538 C140 1.631 . S
C577 C274 1.638 . S
C565 C181 1.610 . S
C592 C1 1.564 . S
C604 C253 1.564 . S
