# Generated by pormake.
# Topology apo, (3,6)-cn, num edge types: 1
# Building blocks:
#     Node 0, Type 0, BuildingBlock: MIDCAF_clean_linker_0, # of connection points: 3
#     Node 1, Type 0, BuildingBlock: MIDCAF_clean_linker_0, # of connection points: 3
#     Node 2, Type 0, BuildingBlock: MIDCAF_clean_linker_0, # of connection points: 3
#     Node 3, Type 0, BuildingBlock: MIDCAF_clean_linker_0, # of connection points: 3
#     Node 4, Type 0, BuildingBlock: MIDCAF_clean_linker_0, # of connection points: 3
#     Node 5, Type 0, BuildingBlock: MIDCAF_clean_linker_0, # of connection points: 3
#     Node 6, Type 0, BuildingBlock: MIDCAF_clean_linker_0, # of connection points: 3
#     Node 7, Type 0, BuildingBlock: MIDCAF_clean_linker_0, # of connection points: 3
#     Node 8, Type 1, BuildingBlock: MIDCAF_clean_sbu_0, # of connection points: 6
#     Node 9, Type 1, BuildingBlock: MIDCAF_clean_sbu_0, # of connection points: 6
#     Node 10, Type 1, BuildingBlock: MIDCAF_clean_sbu_0, # of connection points: 6
#     Node 11, Type 1, BuildingBlock: MIDCAF_clean_sbu_0, # of connection points: 6
#     Edge 12, Type (0, 1), BuildingBlock: XUDNAN_clean_linker_2, # of connection points: 2
#     Edge 13, Type (0, 1), BuildingBlock: XUDNAN_clean_linker_2, # of connection points: 2
#     Edge 14, Type (0, 1), BuildingBlock: XUDNAN_clean_linker_2, # of connection points: 2
#     Edge 15, Type (0, 1), BuildingBlock: XUDNAN_clean_linker_2, # of connection points: 2
#     Edge 16, Type (0, 1), BuildingBlock: XUDNAN_clean_linker_2, # of connection points: 2
#     Edge 17, Type (0, 1), BuildingBlock: XUDNAN_clean_linker_2, # of connection points: 2
#     Edge 18, Type (0, 1), BuildingBlock: XUDNAN_clean_linker_2, # of connection points: 2
#     Edge 19, Type (0, 1), BuildingBlock: XUDNAN_clean_linker_2, # of connection points: 2
#     Edge 20, Type (0, 1), BuildingBlock: XUDNAN_clean_linker_2, # of connection points: 2
#     Edge 21, Type (0, 1), BuildingBlock: XUDNAN_clean_linker_2, # of connection points: 2
#     Edge 22, Type (0, 1), BuildingBlock: XUDNAN_clean_linker_2, # of connection points: 2
#     Edge 23, Type (0, 1), BuildingBlock: XUDNAN_clean_linker_2, # of connection points: 2
#     Edge 24, Type (0, 1), BuildingBlock: XUDNAN_clean_linker_2, # of connection points: 2
#     Edge 25, Type (0, 1), BuildingBlock: XUDNAN_clean_linker_2, # of connection points: 2
#     Edge 26, Type (0, 1), BuildingBlock: XUDNAN_clean_linker_2, # of connection points: 2
#     Edge 27, Type (0, 1), BuildingBlock: XUDNAN_clean_linker_2, # of connection points: 2
#     Edge 28, Type (0, 1), BuildingBlock: XUDNAN_clean_linker_2, # of connection points: 2
#     Edge 29, Type (0, 1), BuildingBlock: XUDNAN_clean_linker_2, # of connection points: 2
#     Edge 30, Type (0, 1), BuildingBlock: XUDNAN_clean_linker_2, # of connection points: 2
#     Edge 31, Type (0, 1), BuildingBlock: XUDNAN_clean_linker_2, # of connection points: 2
#     Edge 32, Type (0, 1), BuildingBlock: XUDNAN_clean_linker_2, # of connection points: 2
#     Edge 33, Type (0, 1), BuildingBlock: XUDNAN_clean_linker_2, # of connection points: 2
#     Edge 34, Type (0, 1), BuildingBlock: XUDNAN_clean_linker_2, # of connection points: 2
#     Edge 35, Type (0, 1), BuildingBlock: XUDNAN_clean_linker_2, # of connection points: 2
# Relax obj value: 0.088
# Max RMSD: 0.101
# Mean RMSD: 0.091
data_MOF--net-apo--node1-MIDCAF_clean_sbu_0--node2-MIDCAF_clean_linker_0--edge1-XUDNAN_clean_linker_2
_symmetry_space_group_name_H-M    P1
_symmetry_Int_Tables_number       1
_symmetry_cell_setting            triclinic
loop_
_symmetry_equiv_pos_as_xyz
'x, y, z'
_cell_length_a     42.379202
_cell_length_b     50.387083
_cell_length_c     45.261397
_cell_angle_alpha  90.062151
_cell_angle_beta   90.064643
_cell_angle_gamma 90.179528
loop_
_atom_site_label
_atom_site_type_symbol
_atom_site_fract_x
_atom_site_fract_y
_atom_site_fract_z
_atom_type_partial_charge
C0 C 0.35083 0.3494 0.49832 0.0
C1 C 0.34626 0.32514 0.51293 0.0
C2 C 0.33805 0.30256 0.49633 0.0
C3 C 0.33432 0.30431 0.46558 0.0
H4 H 0.27104 0.28083 0.39323 0.0
H5 H 0.23103 0.25711 0.36465 0.0
H6 H 0.26201 0.297 0.28537 0.0
H7 H 0.30154 0.32095 0.31372 0.0
H8 H 0.33865 0.37627 0.32261 0.0
H9 H 0.36903 0.40991 0.29696 0.0
H10 H 0.44343 0.4025 0.36199 0.0
H11 H 0.4118 0.36992 0.38867 0.0
H12 H 0.35205 0.36994 0.45699 0.0
H13 H 0.3575 0.36701 0.51062 0.0
H14 H 0.33456 0.28361 0.50716 0.0
H15 H 0.32805 0.28663 0.45324 0.0
N16 N 0.3162 0.3154 0.40293 0.0
N17 N 0.33186 0.33614 0.35893 0.0
N18 N 0.35585 0.34819 0.4036 0.0
C19 C 0.3133 0.31826 0.3731 0.0
C20 C 0.35327 0.351 0.37387 0.0
C21 C 0.33737 0.33046 0.4183 0.0
C22 C 0.28956 0.3029 0.35592 0.0
C23 C 0.26942 0.2845 0.36971 0.0
C24 C 0.24657 0.27079 0.35328 0.0
C25 C 0.24333 0.2752 0.32271 0.0
C26 C 0.26362 0.29339 0.30891 0.0
C27 C 0.28645 0.30702 0.32526 0.0
C28 C 0.37274 0.37062 0.35779 0.0
C29 C 0.36156 0.38177 0.33137 0.0
C30 C 0.37923 0.40093 0.31645 0.0
C31 C 0.4089 0.40906 0.3272 0.0
C32 C 0.42046 0.39723 0.35326 0.0
C33 C 0.40241 0.37845 0.36855 0.0
C34 C 0.33971 0.32848 0.4509 0.0
C35 C 0.34794 0.35099 0.46763 0.0
C36 C 0.11783 0.17252 0.99539 0.0
C37 C 0.133 0.19275 0.01145 0.0
C38 C 0.15301 0.21041 0.99631 0.0
C39 C 0.15824 0.20746 0.96586 0.0
H40 H 0.19502 0.2446 0.88218 0.0
H41 H 0.23418 0.26982 0.85356 0.0
H42 H 0.25427 0.20008 0.80162 0.0
H43 H 0.2148 0.17508 0.82943 0.0
H44 H 0.15373 0.13743 0.81964 0.0
H45 H 0.12966 0.09929 0.7955 0.0
H46 H 0.06572 0.0901 0.8691 0.0
H47 H 0.09038 0.12779 0.89373 0.0
H48 H 0.11079 0.15367 0.95373 0.0
H49 H 0.10172 0.15893 0.00621 0.0
H50 H 0.16502 0.2262 0.00809 0.0
H51 H 0.17412 0.22116 0.95493 0.0
N52 N 0.17111 0.19773 0.9031 0.0
N53 N 0.1623 0.17255 0.86015 0.0
N54 N 0.13416 0.1629 0.90323 0.0
C55 C 0.17764 0.1926 0.87419 0.0
C56 C 0.14034 0.15773 0.87438 0.0
C57 C 0.14942 0.18276 0.91785 0.0
C58 C 0.20184 0.20792 0.85799 0.0
C59 C 0.20782 0.23471 0.86466 0.0
C60 C 0.22997 0.24915 0.84821 0.0
C61 C 0.24695 0.23681 0.8254 0.0
C62 C 0.24135 0.20997 0.81908 0.0
C63 C 0.21876 0.19575 0.83498 0.0
C64 C 0.12424 0.13558 0.85883 0.0
C65 C 0.1344 0.12742 0.83066 0.0
C66 C 0.12042 0.10563 0.81665 0.0
C67 C 0.09584 0.09153 0.83039 0.0
C68 C 0.08499 0.10022 0.85811 0.0
C69 C 0.09908 0.12192 0.87221 0.0
C70 C 0.14333 0.18693 0.9499 0.0
C71 C 0.12287 0.16966 0.96511 0.0
C72 C 0.82841 0.19818 0.5058 0.0
C73 C 0.85702 0.19092 0.49242 0.0
C74 C 0.88056 0.17908 0.5098 0.0
C75 C 0.87568 0.17447 0.53983 0.0
H76 H 0.76736 0.21551 0.61023 0.0
H77 H 0.72624 0.23685 0.63943 0.0
H78 H 0.7673 0.2054 0.71936 0.0
H79 H 0.80855 0.18423 0.69039 0.0
H80 H 0.84835 0.13209 0.68375 0.0
H81 H 0.87591 0.09524 0.70643 0.0
H82 H 0.935 0.08805 0.62909 0.0
H83 H 0.9067 0.12453 0.60587 0.0
H84 H 0.80138 0.19969 0.54588 0.0
H85 H 0.80987 0.20733 0.49289 0.0
H86 H 0.90269 0.17292 0.50003 0.0
H87 H 0.89438 0.16517 0.5524 0.0
N88 N 0.81972 0.18927 0.60102 0.0
N89 N 0.83401 0.16558 0.64356 0.0
N90 N 0.8605 0.15784 0.59909 0.0
C91 C 0.81565 0.18411 0.63031 0.0
C92 C 0.85641 0.1523 0.62819 0.0
C93 C 0.8423 0.17627 0.58531 0.0
C94 C 0.79121 0.19802 0.64787 0.0
C95 C 0.76775 0.21323 0.63402 0.0
C96 C 0.74407 0.22531 0.65074 0.0
C97 C 0.74345 0.22262 0.68168 0.0
C98 C 0.76725 0.20792 0.69559 0.0
C99 C 0.79078 0.19567 0.67889 0.0
C100 C 0.87507 0.1312 0.64282 0.0
C101 C 0.86737 0.12285 0.67158 0.0
C102 C 0.88338 0.10178 0.68475 0.0
C103 C 0.90766 0.0886 0.6696 0.0
C104 C 0.91608 0.09749 0.64121 0.0
C105 C 0.89992 0.1185 0.62794 0.0
C106 C 0.84721 0.18181 0.55342 0.0
C107 C 0.82365 0.19391 0.53612 0.0
C108 C 0.61252 0.32392 0.01342 0.0
C109 C 0.63394 0.30949 0.99614 0.0
C110 C 0.65923 0.29663 0.0102 0.0
C111 C 0.66374 0.29928 0.04086 0.0
H112 H 0.72212 0.27911 0.1135 0.0
H113 H 0.76407 0.25771 0.14135 0.0
H114 H 0.7349 0.29922 0.22023 0.0
H115 H 0.6934 0.32112 0.19235 0.0
H116 H 0.65343 0.38299 0.17105 0.0
H117 H 0.62261 0.42138 0.18663 0.0
H118 H 0.54037 0.38827 0.14329 0.0
H119 H 0.57187 0.35101 0.12619 0.0
H120 H 0.59991 0.33814 0.05605 0.0
H121 H 0.59239 0.33358 1.00334 0.0
H122 H 0.67604 0.28529 0.99739 0.0
H123 H 0.68395 0.28983 0.05099 0.0
N124 N 0.6727 0.30842 0.10491 0.0
N125 N 0.65932 0.33267 0.14754 0.0
N126 N 0.62954 0.33737 0.1043 0.0
C127 C 0.67815 0.31462 0.13385 0.0
C128 C 0.63485 0.34392 0.13291 0.0
C129 C 0.64835 0.31982 0.08996 0.0
C130 C 0.7042 0.30184 0.15058 0.0
C131 C 0.72462 0.28376 0.13675 0.0
C132 C 0.74859 0.27133 0.15281 0.0
C133 C 0.75273 0.27658 0.18313 0.0
C134 C 0.73258 0.29488 0.19689 0.0
C135 C 0.70863 0.30735 0.18084 0.0
C136 C 0.6151 0.36436 0.14703 0.0
C137 C 0.62863 0.38383 0.16532 0.0
C138 C 0.61085 0.40576 0.17437 0.0
C139 C 0.57905 0.40831 0.16574 0.0
C140 C 0.56503 0.38751 0.14953 0.0
C141 C 0.58297 0.36603 0.13989 0.0
C142 C 0.64284 0.31465 0.05795 0.0
C143 C 0.61684 0.32644 0.0438 0.0
C144 C 0.63875 0.66442 0.50018 0.0
C145 C 0.65389 0.68537 0.48532 0.0
C146 C 0.67196 0.70352 0.50189 0.0
C147 C 0.67488 0.70066 0.53262 0.0
H148 H 0.72979 0.72236 0.60733 0.0
H149 H 0.76906 0.74537 0.6374 0.0
H150 H 0.72365 0.7171 0.71672 0.0
H151 H 0.68417 0.69414 0.6868 0.0
H152 H 0.63031 0.64861 0.68138 0.0
H153 H 0.60592 0.61059 0.70552 0.0
H154 H 0.60376 0.56885 0.62198 0.0
H155 H 0.6266 0.60733 0.59773 0.0
H156 H 0.62934 0.64522 0.54115 0.0
H157 H 0.62403 0.6504 0.48829 0.0
H158 H 0.68396 0.71985 0.4911 0.0
H159 H 0.68895 0.71498 0.54474 0.0
N160 N 0.68039 0.69287 0.59663 0.0
N161 N 0.66535 0.67 0.63957 0.0
N162 N 0.64548 0.65672 0.59359 0.0
C163 C 0.68219 0.68971 0.62649 0.0
C164 C 0.64702 0.6534 0.6233 0.0
C165 C 0.66184 0.67651 0.58004 0.0
C166 C 0.70397 0.70615 0.64458 0.0
C167 C 0.72787 0.72129 0.63116 0.0
C168 C 0.7505 0.73433 0.64838 0.0
C169 C 0.74961 0.73273 0.6794 0.0
C170 C 0.7249 0.7187 0.69289 0.0
C171 C 0.7024 0.70544 0.67567 0.0
C172 C 0.63046 0.63097 0.63765 0.0
C173 C 0.62433 0.63138 0.66815 0.0
C174 C 0.61051 0.60948 0.68203 0.0
C175 C 0.60298 0.58645 0.66583 0.0
C176 C 0.60863 0.58632 0.63518 0.0
C177 C 0.62196 0.60838 0.62124 0.0
C178 C 0.65958 0.67968 0.54742 0.0
C179 C 0.64158 0.6616 0.5307 0.0
C180 C 0.89311 0.82528 0.01598 0.0
C181 C 0.87413 0.80779 0.99944 0.0
C182 C 0.8535 0.79063 0.01452 0.0
C183 C 0.85132 0.7915 0.04543 0.0
H184 H 0.79612 0.76646 0.1159 0.0
H185 H 0.75384 0.74378 0.14225 0.0
H186 H 0.79033 0.77305 0.22523 0.0
H187 H 0.83288 0.7957 0.19904 0.0
H188 H 0.86372 0.8557 0.19215 0.0
H189 H 0.88685 0.89448 0.21553 0.0
H190 H 0.95705 0.89862 0.14639 0.0
H191 H 0.93278 0.86047 0.12218 0.0
H192 H 0.9059 0.84007 0.05852 0.0
H193 H 0.9098 0.83835 0.00514 0.0
H194 H 0.83857 0.77694 1.0024 0.0
H195 H 0.83479 0.77833 0.05632 0.0
N196 N 0.8457 0.79611 0.10947 0.0
N197 N 0.85873 0.81777 0.15376 0.0
N198 N 0.88355 0.8302 0.10968 0.0
C199 C 0.84179 0.79898 0.13915 0.0
C200 C 0.8797 0.8334 0.13925 0.0
C201 C 0.86667 0.8116 0.09456 0.0
C202 C 0.81777 0.78317 0.15527 0.0
C203 C 0.79542 0.76789 0.13977 0.0
C204 C 0.77107 0.755 0.15485 0.0
C205 C 0.76863 0.75692 0.18576 0.0
C206 C 0.7917 0.77119 0.20142 0.0
C207 C 0.81594 0.78428 0.18633 0.0
C208 C 0.89618 0.85514 0.1551 0.0
C209 C 0.88431 0.86469 0.18206 0.0
C210 C 0.89778 0.88691 0.19564 0.0
C211 C 0.92379 0.89993 0.18283 0.0
C212 C 0.93661 0.88953 0.15658 0.0
C213 C 0.9228 0.86754 0.14275 0.0
C214 C 0.86988 0.80946 0.06191 0.0
C215 C 0.89102 0.82612 0.04673 0.0
C216 C 0.12402 0.82495 0.49722 0.0
C217 C 0.14889 0.81686 0.51564 0.0
C218 C 0.17861 0.81195 0.50312 0.0
C219 C 0.1833 0.81499 0.47266 0.0
H220 H 0.23842 0.78812 0.40137 0.0
H221 H 0.28018 0.76529 0.3748 0.0
H222 H 0.24619 0.79794 0.29253 0.0
H223 H 0.20487 0.82135 0.31909 0.0
H224 H 0.1616 0.87371 0.32519 0.0
H225 H 0.13186 0.9086 0.30113 0.0
H226 H 0.0614 0.9044 0.37001 0.0
H227 H 0.092 0.87016 0.39481 0.0
H228 H 0.1092 0.83499 0.45348 0.0
H229 H 0.10095 0.82917 0.50634 0.0
H230 H 0.19815 0.80569 0.51687 0.0
H231 H 0.2065 0.81118 0.46361 0.0
N232 N 0.18762 0.81591 0.40783 0.0
N233 N 0.17317 0.83734 0.3639 0.0
N234 N 0.14439 0.84491 0.40723 0.0
C235 C 0.1924 0.82029 0.37851 0.0
C236 C 0.14915 0.84975 0.37805 0.0
C237 C 0.16357 0.82809 0.42231 0.0
C238 C 0.21815 0.80657 0.36244 0.0
C239 C 0.23981 0.79049 0.37763 0.0
C240 C 0.26368 0.77725 0.36234 0.0
C241 C 0.26641 0.77963 0.33147 0.0
C242 C 0.24496 0.79588 0.31631 0.0
C243 C 0.22114 0.80921 0.3316 0.0
C244 C 0.12938 0.86929 0.36212 0.0
C245 C 0.13962 0.88002 0.33511 0.0
C246 C 0.12236 0.89997 0.32114 0.0
C247 C 0.09418 0.90948 0.3336 0.0
C248 C 0.08329 0.89796 0.36003 0.0
C249 C 0.10079 0.87822 0.37422 0.0
C250 C 0.15851 0.82357 0.45431 0.0
C251 C 0.12882 0.82845 0.46696 0.0
C252 C 0.36404 0.66116 0.01063 0.0
C253 C 0.34913 0.68269 0.02454 0.0
C254 C 0.32978 0.69939 0.00754 0.0
C255 C 0.32549 0.69463 0.97729 0.0
H256 H 0.26826 0.71365 0.90557 0.0
H257 H 0.22709 0.73567 0.87729 0.0
H258 H 0.25586 0.6933 0.79886 0.0
H259 H 0.29743 0.67157 0.82688 0.0
H260 H 0.34544 0.62583 0.83171 0.0
H261 H 0.37651 0.59146 0.80772 0.0
H262 H 0.43488 0.5849 0.88558 0.0
H263 H 0.40397 0.61943 0.90974 0.0
H264 H 0.37209 0.63985 0.97056 0.0
H265 H 0.37955 0.64819 0.02296 0.0
H266 H 0.31794 0.7161 0.01765 0.0
H267 H 0.3105 0.70792 0.96483 0.0
N268 N 0.31468 0.68157 0.91528 0.0
N269 N 0.32975 0.65874 0.87241 0.0
N270 N 0.3556 0.65034 0.91717 0.0
C271 C 0.31093 0.67683 0.88587 0.0
C272 C 0.35218 0.64545 0.88781 0.0
C273 C 0.33696 0.66836 0.93111 0.0
C274 C 0.28619 0.69073 0.86862 0.0
C275 C 0.26592 0.70902 0.8823 0.0
C276 C 0.24216 0.72154 0.86611 0.0
C277 C 0.23807 0.71609 0.83585 0.0
C278 C 0.25855 0.69809 0.82206 0.0
C279 C 0.2823 0.68553 0.83824 0.0
C280 C 0.37204 0.62535 0.87279 0.0
C281 C 0.36502 0.61726 0.84374 0.0
C282 C 0.38274 0.59748 0.82996 0.0
C283 C 0.40808 0.58548 0.84478 0.0
C284 C 0.41567 0.59399 0.8735 0.0
C285 C 0.39778 0.61365 0.88741 0.0
C286 C 0.34076 0.67325 0.96331 0.0
C287 C 0.35998 0.65654 0.98044 0.0
Zn288 Zn 0.02239 0.13925 0.30617 0.0
Zn289 Zn 0.97225 0.13697 0.20096 0.0
Zn290 Zn 0.9971 0.14168 0.254 0.0
C291 C 0.03004 0.16289 0.19395 0.0
C292 C 0.97414 0.08636 0.221 0.0
O293 O 0.96405 0.16221 0.28491 0.0
O294 O 0.98984 0.1595 0.3273 0.0
C295 C 0.06479 0.16696 0.27036 0.0
O296 O 0.02991 0.16158 0.2224 0.0
O297 O 0.00787 0.1528 0.17906 0.0
O298 O 0.96546 0.09844 0.19803 0.0
O299 O 0.98689 0.09929 0.24262 0.0
O300 O 0.06174 0.15776 0.29611 0.0
O301 O 0.04279 0.16346 0.25102 0.0
O302 O 0.00765 0.09985 0.26713 0.0
O303 O 0.02612 0.10076 0.31284 0.0
C304 C 0.01904 0.08778 0.28993 0.0
O305 O 0.95175 0.1635 0.25606 0.0
O306 O 0.93492 0.15884 0.21002 0.0
C307 C 0.96608 0.16716 0.31283 0.0
C308 C 0.93105 0.16793 0.23578 0.0
Zn309 Zn 0.52386 0.35657 0.69749 0.0
Zn310 Zn 0.47452 0.36 0.79863 0.0
Zn311 Zn 0.50004 0.35754 0.75105 0.0
C312 C 0.47524 0.4107 0.78131 0.0
C313 C 0.43664 0.3272 0.76878 0.0
O314 O 0.54178 0.33128 0.75393 0.0
O315 O 0.55677 0.33035 0.70708 0.0
C316 C 0.52844 0.40874 0.71653 0.0
O317 O 0.49628 0.39972 0.76483 0.0
O318 O 0.45675 0.39644 0.79631 0.0
O319 O 0.44514 0.32963 0.79533 0.0
O320 O 0.45233 0.33898 0.7482 0.0
O321 O 0.53488 0.3949 0.69408 0.0
O322 O 0.51514 0.39814 0.73924 0.0
O323 O 0.46332 0.34223 0.71921 0.0
O324 O 0.48715 0.34309 0.67571 0.0
C325 C 0.46294 0.33831 0.69099 0.0
O326 O 0.53151 0.33622 0.78282 0.0
O327 O 0.51282 0.35533 0.82296 0.0
C328 C 0.56007 0.32259 0.7334 0.0
C329 C 0.5337 0.3414 0.81067 0.0
Zn330 Zn 0.02155 0.86096 0.80303 0.0
Zn331 Zn 0.97822 0.85631 0.70175 0.0
Zn332 Zn 0.00151 0.85657 0.75348 0.0
C333 C 0.97583 0.90854 0.71878 0.0
C334 C 0.93926 0.824 0.73486 0.0
O335 O 0.04541 0.83263 0.75401 0.0
O336 O 0.04766 0.82855 0.80245 0.0
C337 C 0.03173 0.9096 0.78256 0.0
O338 O 0.99151 0.89818 0.74033 0.0
O339 O 0.96563 0.89399 0.69815 0.0
O340 O 0.94529 0.82952 0.70829 0.0
O341 O 0.95633 0.83381 0.75579 0.0
O342 O 0.04323 0.89547 0.80282 0.0
O343 O 0.01292 0.89904 0.76339 0.0
O344 O 0.96624 0.83874 0.78479 0.0
O345 O 0.98178 0.8594 0.82525 0.0
C346 C 0.96176 0.84512 0.81209 0.0
O347 O 0.03749 0.83747 0.72414 0.0
O348 O 0.01563 0.84429 0.68037 0.0
C349 C 0.05729 0.82167 0.77721 0.0
C350 C 0.03846 0.83607 0.69567 0.0
Zn351 Zn 0.52386 0.64598 0.19437 0.0
Zn352 Zn 0.48749 0.6343 0.30443 0.0
Zn353 Zn 0.50616 0.64086 0.24946 0.0
C354 C 0.54634 0.65884 0.30716 0.0
C355 C 0.48868 0.58413 0.28074 0.0
O356 O 0.46873 0.66286 0.22463 0.0
O357 O 0.48669 0.66422 0.17874 0.0
C358 C 0.56971 0.67111 0.22834 0.0
O359 O 0.54326 0.65817 0.27881 0.0
O360 O 0.52531 0.64917 0.32367 0.0
O361 O 0.48246 0.59556 0.30482 0.0
O362 O 0.49812 0.59776 0.25827 0.0
O363 O 0.56173 0.66744 0.20178 0.0
O364 O 0.55256 0.66186 0.24949 0.0
O365 O 0.51175 0.6006 0.23031 0.0
O366 O 0.52822 0.60788 0.18461 0.0
C367 C 0.52094 0.5919 0.20494 0.0
O368 O 0.46166 0.66334 0.25489 0.0
O369 O 0.44901 0.65628 0.30166 0.0
C370 C 0.46546 0.66946 0.19727 0.0
C371 C 0.44312 0.66703 0.27709 0.0
H372 H 0.0648 0.95051 0.36237 0.0
H373 H 0.08669 0.92129 0.27447 0.0
H374 H 0.06554 0.96259 0.253 0.0
H375 H 0.99027 0.98504 0.3408 0.0
H376 H 0.99762 0.01151 0.36675 0.0
H377 H 0.01126 0.97841 0.37466 0.0
H378 H 0.0681 0.99663 0.38147 0.0
H379 H 0.05478 0.02963 0.37322 0.0
H380 H 0.08624 0.01514 0.35191 0.0
H381 H 0.04911 0.0097 0.24191 0.0
H382 H 0.03518 0.05735 0.2421 0.0
H383 H 0.01999 0.05389 0.33672 0.0
C384 C 0.06424 0.95227 0.33854 0.0
C385 C 0.0776 0.93257 0.32019 0.0
C386 C 0.07708 0.93621 0.28911 0.0
C387 C 0.06486 0.95952 0.27666 0.0
C388 C 0.05271 0.97882 0.29551 0.0
C389 C 0.0518 0.9752 0.32576 0.0
C390 C 0.03915 -0.00051 0.34137 0.0
C391 C 0.0077 0.99323 0.3568 0.0
C392 C 0.06353 0.01088 0.36326 0.0
C393 C 0.03432 0.01777 0.31531 0.0
C394 C 0.04204 0.00548 0.28898 0.0
C395 C 0.04214 0.01927 0.26228 0.0
C396 C 0.03409 0.04628 0.26257 0.0
C397 C 0.02548 0.05901 0.28926 0.0
C398 C 0.02568 0.04448 0.31587 0.0
H399 H 0.38283 0.54265 0.81628 0.0
H400 H 0.4721 0.57739 0.84315 0.0
H401 H 0.50018 0.53815 0.82351 0.0
H402 H 0.39987 0.47869 0.83774 0.0
H403 H 0.37956 0.46258 0.80762 0.0
H404 H 0.3672 0.49489 0.81975 0.0
H405 H 0.37438 0.51308 0.7666 0.0
H406 H 0.38678 0.48072 0.75428 0.0
H407 H 0.4118 0.50919 0.74821 0.0
H408 H 0.51772 0.49306 0.80596 0.0
H409 H 0.52269 0.44527 0.79421 0.0
H410 H 0.4222 0.44047 0.77822 0.0
C411 C 0.40836 0.54235 0.81726 0.0
C412 C 0.42535 0.56313 0.83096 0.0
C413 C 0.45867 0.56163 0.83273 0.0
C414 C 0.4748 0.53954 0.82144 0.0
C415 C 0.45725 0.51919 0.80842 0.0
C416 C 0.42474 0.52044 0.80629 0.0
C417 C 0.41106 0.49494 0.79399 0.0
C418 C 0.38809 0.48202 0.8161 0.0
C419 C 0.39507 0.49978 0.76398 0.0
C420 C 0.44081 0.47878 0.79049 0.0
C421 C 0.46732 0.49324 0.79835 0.0
C422 C 0.49724 0.48179 0.79896 0.0
C423 C 0.5 0.45478 0.79184 0.0
C424 C 0.47308 0.43968 0.78415 0.0
C425 C 0.44323 0.45189 0.78328 0.0
H426 H 0.55996 0.54985 0.64469 0.0
H427 H 0.61884 0.56761 0.72089 0.0
H428 H 0.60127 0.52613 0.74447 0.0
H429 H 0.49568 0.51602 0.68412 0.0
H430 H 0.49074 0.49152 0.65543 0.0
H431 H 0.50438 0.52441 0.64628 0.0
H432 H 0.55382 0.50438 0.62107 0.0
H433 H 0.54034 0.4715 0.63014 0.0
H434 H 0.57896 0.48239 0.64179 0.0
H435 H 0.58143 0.48075 0.75786 0.0
H436 H 0.56181 0.43439 0.75903 0.0
H437 H 0.5178 0.44543 0.67358 0.0
C438 C 0.56911 0.54518 0.6664 0.0
C439 C 0.59066 0.56228 0.68094 0.0
C440 C 0.60176 0.5553 0.70947 0.0
C441 C 0.59204 0.53165 0.72305 0.0
C442 C 0.57127 0.51509 0.70783 0.0
C443 C 0.55997 0.52153 0.68012 0.0
C444 C 0.53996 0.49933 0.66741 0.0
C445 C 0.50565 0.50837 0.66306 0.0
C446 C 0.55413 0.48878 0.6384 0.0
C447 C 0.54248 0.47911 0.69198 0.0
C448 C 0.5602 0.48875 0.71533 0.0
C449 C 0.56702 0.47319 0.73997 0.0
C450 C 0.55561 0.44704 0.7406 0.0
C451 C 0.53762 0.43686 0.71685 0.0
C452 C 0.53102 0.45306 0.69226 0.0
H453 H 0.94577 0.94356 0.15287 0.0
H454 H 0.92837 0.91434 0.24164 0.0
H455 H 0.94197 0.95849 0.26177 0.0
H456 H 0.01363 0.98661 0.17334 0.0
H457 H 0.00259 0.01132 0.14651 0.0
H458 H 0.99393 0.97681 0.1397 0.0
H459 H 0.9349 0.98855 0.13229 0.0
H460 H 0.94327 0.02296 0.13951 0.0
H461 H 0.91407 0.00574 0.16124 0.0
H462 H 0.95129 0.00757 0.2714 0.0
H463 H 0.96 0.05622 0.26974 0.0
H464 H 0.97552 0.05149 0.17525 0.0
C465 C 0.94571 0.94602 0.17662 0.0
C466 C 0.93581 0.92533 0.19557 0.0
C467 C 0.93533 0.92992 0.22652 0.0
C468 C 0.94326 0.95489 0.23822 0.0
C469 C 0.95212 0.97497 0.21876 0.0
C470 C 0.95393 0.97062 0.18866 0.0
C471 C 0.96302 0.99562 0.17228 0.0
C472 C 0.99521 0.99239 0.15707 0.0
C473 C 0.93728 0.00368 0.15003 0.0
C474 C 0.96501 0.01498 0.19773 0.0
C475 C 0.95875 0.00277 0.22443 0.0
C476 C 0.957 0.01719 0.25071 0.0
C477 C 0.96207 0.04474 0.2496 0.0
C478 C 0.9694 0.05738 0.22254 0.0
C479 C 0.97062 0.04224 0.19635 0.0
H480 H 0.92437 0.04269 0.64122 0.0
H481 H 0.92423 0.08005 0.72769 0.0
H482 H 0.94417 0.03853 0.74981 0.0
H483 H 0.898 0.98052 0.66333 0.0
H484 H 0.9226 0.96198 0.6383 0.0
H485 H 0.91072 0.99518 0.62901 0.0
H486 H 0.96928 0.00911 0.62279 0.0
H487 H 0.98136 0.97583 0.63178 0.0
H488 H 0.9967 0.00352 0.65261 0.0
H489 H 0.95943 0.99139 0.76294 0.0
H490 H 0.97124 0.94335 0.76534 0.0
H491 H 0.96425 0.93835 0.66989 0.0
C492 C 0.9293 0.04247 0.66469 0.0
C493 C 0.9227 0.06469 0.68268 0.0
C494 C 0.92874 0.0632 0.71347 0.0
C495 C 0.94026 0.03976 0.72622 0.0
C496 C 0.9459 0.01808 0.70786 0.0
C497 C 0.94095 0.01937 0.67771 0.0
C498 C 0.94764 0.99307 0.66293 0.0
C499 C 0.91797 0.98205 0.6475 0.0
C500 C 0.9754 0.99554 0.64125 0.0
C501 C 0.95646 0.97658 0.68955 0.0
C502 C 0.95544 0.99131 0.71529 0.0
C503 C 0.96092 0.97981 0.74284 0.0
C504 C 0.96774 0.95257 0.74399 0.0
C505 C 0.96947 0.93732 0.71776 0.0
C506 C 0.96359 0.94958 0.69029 0.0
H507 H 0.58249 0.44295 0.21351 0.0
H508 H 0.5373 0.43199 0.12804 0.0
H509 H 0.51206 0.47538 0.13291 0.0
H510 H 0.51806 0.48071 0.24794 0.0
H511 H 0.54335 0.50403 0.26692 0.0
H512 H 0.55643 0.47049 0.26042 0.0
H513 H 0.60599 0.48598 0.23281 0.0
H514 H 0.59528 0.51984 0.24036 0.0
H515 H 0.60236 0.50934 0.20285 0.0
H516 H 0.49789 0.52158 0.14254 0.0
H517 H 0.49462 0.56857 0.15745 0.0
H518 H 0.54852 0.55149 0.2366 0.0
C519 C 0.56694 0.44949 0.196 0.0
C520 C 0.5616 0.43361 0.17059 0.0
C521 C 0.54113 0.44314 0.14818 0.0
C522 C 0.52675 0.46796 0.15062 0.0
C523 C 0.53297 0.48321 0.17557 0.0
C524 C 0.55245 0.47443 0.19797 0.0
C525 C 0.55717 0.49588 0.22118 0.0
C526 C 0.54291 0.4873 0.2509 0.0
C527 C 0.59228 0.50319 0.22447 0.0
C528 C 0.53851 0.51842 0.20748 0.0
C529 C 0.52441 0.51041 0.18138 0.0
C530 C 0.50822 0.52801 0.16322 0.0
C531 C 0.50665 0.55463 0.17175 0.0
C532 C 0.52102 0.56337 0.19822 0.0
C533 C 0.53682 0.54503 0.21655 0.0
H534 H 0.44592 0.44747 0.35315 0.0
H535 H 0.4115 0.42096 0.26758 0.0
H536 H 0.4338 0.4612 0.24464 0.0
H537 H 0.4299 0.51253 0.34653 0.0
H538 H 0.46508 0.52485 0.36433 0.0
H539 H 0.4503 0.49243 0.37334 0.0
H540 H 0.50418 0.47153 0.35949 0.0
H541 H 0.51933 0.50407 0.35076 0.0
H542 H 0.52096 0.47793 0.32359 0.0
H543 H 0.45193 0.50792 0.23283 0.0
H544 H 0.4674 0.55532 0.23318 0.0
H545 H 0.49495 0.54853 0.32504 0.0
C546 C 0.444 0.44943 0.32941 0.0
C547 C 0.42654 0.43099 0.31237 0.0
C548 C 0.42406 0.43501 0.2814 0.0
C549 C 0.43699 0.45768 0.26803 0.0
C550 C 0.45307 0.47586 0.28575 0.0
C551 C 0.45725 0.47161 0.31566 0.0
C552 C 0.47383 0.4948 0.33021 0.0
C553 C 0.45355 0.50685 0.35504 0.0
C554 C 0.50652 0.48658 0.34169 0.0
C555 C 0.47667 0.5134 0.30419 0.0
C556 C 0.46487 0.50212 0.27862 0.0
C557 C 0.46212 0.51666 0.25251 0.0
C558 C 0.4713 0.54348 0.25276 0.0
C559 C 0.48341 0.55525 0.2788 0.0
C560 C 0.48649 0.53982 0.30461 0.0
H561 H 0.08024 0.04531 0.85839 0.0
H562 H 0.08311 0.08167 0.77155 0.0
H563 H 0.06528 0.03933 0.74922 0.0
H564 H 0.10915 0.98318 0.8378 0.0
H565 H 0.08402 0.96468 0.86248 0.0
H566 H 0.09519 0.9982 0.8715 0.0
H567 H 0.03624 0.01132 0.87593 0.0
H568 H 0.02488 0.97774 0.86717 0.0
H569 H 0.00985 0.00488 0.84546 0.0
H570 H 0.04987 0.99149 0.7364 0.0
H571 H 0.03741 0.9433 0.73489 0.0
H572 H 0.04308 0.94026 0.83046 0.0
C573 C 0.07646 0.04467 0.83474 0.0
C574 C 0.08297 0.06689 0.81677 0.0
C575 C 0.07852 0.06484 0.78578 0.0
C576 C 0.06823 0.04093 0.7729 0.0
C577 C 0.06237 0.01933 0.79134 0.0
C578 C 0.06615 0.02113 0.82162 0.0
C579 C 0.05935 0.995 0.83666 0.0
C580 C 0.08867 0.98466 0.85306 0.0
C581 C 0.03088 0.99739 0.85753 0.0
C582 C 0.05161 0.97803 0.81011 0.0
C583 C 0.0533 0.99228 0.7841 0.0
C584 C 0.04811 0.98025 0.7567 0.0
C585 C 0.04094 0.95297 0.75602 0.0
C586 C 0.03878 0.93828 0.78257 0.0
C587 C 0.04435 0.95106 0.8098 0.0
H588 H 0.13088 0.15284 0.05218 0.0
H589 H 0.12107 0.23806 0.04349 0.0
H590 H 0.10378 0.24083 0.09562 0.0
H591 H 0.06302 0.14249 0.08945 0.0
H592 H 0.07749 0.11635 0.11297 0.0
H593 H 0.09565 0.12214 0.07778 0.0
H594 H 0.14997 0.1278 0.10353 0.0
H595 H 0.13177 0.1222 0.13898 0.0
H596 H 0.15451 0.15194 0.13267 0.0
H597 H 0.07776 0.23303 0.14518 0.0
H598 H 0.0446 0.21521 0.18572 0.0
H599 H 0.07186 0.13542 0.16197 0.0
C600 C 0.1258 0.17218 0.06145 0.0
C601 C 0.12731 0.19523 0.04378 0.0
C602 C 0.12047 0.22017 0.05671 0.0
C603 C 0.11064 0.22191 0.08633 0.0
C604 C 0.10828 0.1986 0.10286 0.0
C605 C 0.11601 0.17422 0.09085 0.0
C606 C 0.10785 0.15174 0.11164 0.0
C607 C 0.08462 0.13206 0.0971 0.0
C608 C 0.13782 0.13759 0.12234 0.0
C609 C 0.09252 0.16707 0.13651 0.0
C610 C 0.09367 0.19415 0.13153 0.0
C611 C 0.07764 0.21196 0.1498 0.0
C612 C 0.05906 0.20176 0.17293 0.0
C613 C 0.05676 0.17408 0.17743 0.0
C614 C 0.07444 0.15671 0.15961 0.0
H615 H 0.38937 0.2943 0.54115 0.0
H616 H 0.31778 0.35374 0.55666 0.0
H617 H 0.33321 0.35592 0.6094 0.0
H618 H 0.38764 0.26212 0.61703 0.0
H619 H 0.42993 0.25845 0.61699 0.0
H620 H 0.40824 0.25669 0.58274 0.0
H621 H 0.44321 0.29416 0.56096 0.0
H622 H 0.46498 0.29587 0.59493 0.0
H623 H 0.44645 0.32528 0.58046 0.0
H624 H 0.36202 0.35707 0.65791 0.0
H625 H 0.40447 0.36038 0.69535 0.0
H626 H 0.45826 0.30124 0.64803 0.0
C627 C 0.37615 0.30691 0.55602 0.0
C628 C 0.35199 0.32344 0.54517 0.0
C629 C 0.33606 0.34065 0.5648 0.0
C630 C 0.34456 0.34189 0.59478 0.0
C631 C 0.36915 0.32585 0.60475 0.0
C632 C 0.38476 0.30869 0.58587 0.0
C633 C 0.41354 0.29685 0.60061 0.0
C634 C 0.40958 0.26674 0.60458 0.0
C635 C 0.44381 0.30346 0.58322 0.0
C636 C 0.41269 0.31104 0.63012 0.0
C637 C 0.38635 0.32703 0.63255 0.0
C638 C 0.38225 0.34407 0.65663 0.0
C639 C 0.40627 0.34563 0.67803 0.0
C640 C 0.43407 0.33049 0.67496 0.0
C641 C 0.43673 0.3124 0.65127 0.0
H642 H 0.62304 0.35162 0.96038 0.0
H643 H 0.63428 0.26626 0.95861 0.0
H644 H 0.61875 0.26575 0.90567 0.0
H645 H 0.55475 0.35353 0.92173 0.0
H646 H 0.56307 0.38397 0.90232 0.0
H647 H 0.5813 0.37778 0.93742 0.0
H648 H 0.63654 0.38454 0.91393 0.0
H649 H 0.61837 0.3907 0.87857 0.0
H650 H 0.64771 0.36508 0.88219 0.0
H651 H 0.59325 0.27449 0.85486 0.0
H652 H 0.55939 0.29119 0.814 0.0
H653 H 0.56525 0.37039 0.85068 0.0
C654 C 0.62298 0.33287 0.94865 0.0
C655 C 0.6298 0.30898 0.96351 0.0
C656 C 0.62943 0.28483 0.9475 0.0
C657 C 0.62063 0.28439 0.91744 0.0
C658 C 0.61283 0.30834 0.90369 0.0
C659 C 0.61431 0.33216 0.9189 0.0
C660 C 0.60145 0.35481 0.90075 0.0
C661 C 0.57349 0.36828 0.91649 0.0
C662 C 0.62759 0.37497 0.89343 0.0
C663 C 0.59093 0.33996 0.87345 0.0
C664 C 0.59824 0.31327 0.875 0.0
C665 C 0.58803 0.29545 0.85321 0.0
C666 C 0.56896 0.30505 0.83 0.0
C667 C 0.56007 0.33206 0.82922 0.0
C668 C 0.57216 0.3497 0.85062 0.0
H669 H 0.90898 0.21259 0.46669 0.0
H670 H 0.81849 0.17702 0.446 0.0
H671 H 0.83279 0.17621 0.39292 0.0
H672 H 0.91864 0.25142 0.39522 0.0
H673 H 0.96039 0.24469 0.39491 0.0
H674 H 0.93989 0.24834 0.42957 0.0
H675 H 0.96015 0.20219 0.44622 0.0
H676 H 0.98065 0.1985 0.41186 0.0
H677 H 0.95249 0.17364 0.42322 0.0
H678 H 0.86161 0.17092 0.34395 0.0
H679 H 0.90194 0.16057 0.30601 0.0
H680 H 0.97283 0.20023 0.35911 0.0
C681 C 0.8918 0.2054 0.45083 0.0
C682 C 0.86266 0.19492 0.46034 0.0
C683 C 0.84081 0.18547 0.43907 0.0
C684 C 0.84876 0.18496 0.40888 0.0
C685 C 0.87838 0.19445 0.40032 0.0
C686 C 0.89935 0.20486 0.42079 0.0
C687 C 0.93113 0.21056 0.40705 0.0
C688 C 0.9379 0.24054 0.40666 0.0
C689 C 0.95763 0.1953 0.42302 0.0
C690 C 0.92559 0.20009 0.37616 0.0
C691 C 0.89482 0.19152 0.37226 0.0
C692 C 0.8855 0.17822 0.34651 0.0
C693 C 0.90848 0.17253 0.32495 0.0
C694 C 0.94034 0.17985 0.32961 0.0
C695 C 0.94849 0.19481 0.35485 0.0
H696 H 0.87767 0.8508 0.96306 0.0
H697 H 0.87633 0.76481 0.96177 0.0
H698 H 0.88717 0.76543 0.90802 0.0
H699 H 0.84601 0.86169 0.88609 0.0
H700 H 0.87216 0.88954 0.88071 0.0
H701 H 0.85706 0.88227 0.91705 0.0
H702 H 0.91419 0.88018 0.93758 0.0
H703 H 0.92928 0.88769 0.90155 0.0
H704 H 0.94223 0.85818 0.92043 0.0
H705 H 0.90774 0.77562 0.85642 0.0
H706 H 0.93896 0.79411 0.81485 0.0
H707 H 0.92723 0.87304 0.85081 0.0
C708 C 0.87899 0.83208 0.95136 0.0
C709 C 0.8762 0.80777 0.96661 0.0
C710 C 0.878 0.7837 0.95048 0.0
C711 C 0.88412 0.78388 0.91992 0.0
C712 C 0.88788 0.80829 0.90573 0.0
C713 C 0.88513 0.83196 0.92105 0.0
C714 C 0.8943 0.85541 0.90211 0.0
C715 C 0.86567 0.87328 0.89614 0.0
C716 C 0.92162 0.87126 0.91625 0.0
C717 C 0.90458 0.84125 0.8743 0.0
C718 C 0.89986 0.81412 0.87629 0.0
C719 C 0.91083 0.79687 0.85437 0.0
C720 C 0.92836 0.80749 0.83072 0.0
C721 C 0.93509 0.83496 0.82965 0.0
C722 C 0.92179 0.85201 0.85093 0.0
H723 H 0.6534 0.64627 0.4434 0.0
H724 H 0.64278 0.73126 0.4541 0.0
H725 H 0.62581 0.73486 0.40201 0.0
H726 H 0.67512 0.64649 0.3617 0.0
H727 H 0.6521 0.61684 0.35561 0.0
H728 H 0.67177 0.62198 0.39052 0.0
H729 H 0.61853 0.61593 0.41798 0.0
H730 H 0.59896 0.61063 0.38336 0.0
H731 H 0.58547 0.63645 0.40784 0.0
H732 H 0.59922 0.72791 0.35277 0.0
H733 H 0.56343 0.71077 0.31374 0.0
H734 H 0.58996 0.63048 0.33588 0.0
C735 C 0.64832 0.66576 0.43456 0.0
C736 C 0.64943 0.68847 0.45285 0.0
C737 C 0.64259 0.7136 0.44044 0.0
C738 C 0.63292 0.71583 0.41081 0.0
C739 C 0.63062 0.69279 0.39374 0.0
C740 C 0.63844 0.66823 0.40521 0.0
C741 C 0.62937 0.64603 0.38431 0.0
C742 C 0.65885 0.63201 0.37233 0.0
C743 C 0.60673 0.62613 0.39926 0.0
C744 C 0.61309 0.66169 0.36025 0.0
C745 C 0.615 0.68873 0.36543 0.0
C746 C 0.59839 0.70687 0.34802 0.0
C747 C 0.57825 0.69704 0.32579 0.0
C748 C 0.57475 0.66942 0.32158 0.0
C749 C 0.59326 0.65171 0.33818 0.0
H750 H 0.35097 0.64707 0.07012 0.0
H751 H 0.36276 0.73063 0.05031 0.0
H752 H 0.38205 0.73848 0.10107 0.0
H753 H 0.3315 0.65551 0.15227 0.0
H754 H 0.35362 0.62611 0.16124 0.0
H755 H 0.33306 0.6283 0.12642 0.0
H756 H 0.38514 0.61848 0.09847 0.0
H757 H 0.40554 0.61599 0.13304 0.0
H758 H 0.41927 0.63903 0.10541 0.0
H759 H 0.41215 0.73525 0.14815 0.0
H760 H 0.45038 0.72089 0.18615 0.0
H761 H 0.41732 0.6401 0.17741 0.0
C762 C 0.35672 0.66716 0.0768 0.0
C763 C 0.3553 0.68824 0.05631 0.0
C764 C 0.36319 0.71423 0.06575 0.0
C765 C 0.37415 0.71888 0.0946 0.0
C766 C 0.3765 0.69743 0.11396 0.0
C767 C 0.36756 0.67209 0.10552 0.0
C768 C 0.37649 0.65183 0.12873 0.0
C769 C 0.3469 0.63973 0.14301 0.0
C770 C 0.39789 0.63009 0.11563 0.0
C771 C 0.39411 0.66935 0.15045 0.0
C772 C 0.39314 0.69574 0.14199 0.0
C773 C 0.41202 0.71489 0.15574 0.0
C774 C 0.43352 0.70666 0.17749 0.0
C775 C 0.43564 0.67964 0.18545 0.0
C776 C 0.41474 0.66107 0.17275 0.0
H777 H 0.10108 0.79079 0.54359 0.0
H778 H 0.18408 0.8389 0.56018 0.0
H779 H 0.17008 0.8413 0.61322 0.0
H780 H 0.05074 0.82545 0.58587 0.0
H781 H 0.02829 0.79759 0.59949 0.0
H782 H 0.04856 0.79508 0.56485 0.0
H783 H 0.07822 0.75347 0.58377 0.0
H784 H 0.05802 0.75599 0.61871 0.0
H785 H 0.10053 0.75533 0.61766 0.0
H786 H 0.14075 0.84659 0.66132 0.0
H787 H 0.09957 0.85337 0.69939 0.0
H788 H 0.03755 0.79963 0.65241 0.0
C789 C 0.11677 0.80115 0.55861 0.0
C790 C 0.14366 0.8146 0.54794 0.0
C791 C 0.16357 0.82818 0.56806 0.0
C792 C 0.15579 0.82962 0.59821 0.0
C793 C 0.12842 0.81686 0.60792 0.0
C794 C 0.10951 0.80249 0.58871 0.0
C795 C 0.07964 0.79307 0.60368 0.0
C796 C 0.0501 0.80344 0.58752 0.0
C797 C 0.07909 0.76265 0.6061 0.0
C798 C 0.08361 0.80582 0.63373 0.0
C799 C 0.11215 0.81906 0.63608 0.0
C800 C 0.11892 0.83543 0.66024 0.0
C801 C 0.09555 0.83903 0.68193 0.0
C802 C 0.06603 0.82611 0.67937 0.0
C803 C 0.06051 0.80875 0.65546 0.0
H804 H 0.22585 0.22298 0.32668 0.0
H805 H 0.20439 0.29584 0.27999 0.0
H806 H 0.16092 0.27307 0.25365 0.0
H807 H 0.20454 0.17631 0.2659 0.0
H808 H 0.18778 0.15276 0.29143 0.0
H809 H 0.22025 0.17361 0.3028 0.0
H810 H 0.1874 0.19076 0.3472 0.0
H811 H 0.15513 0.1698 0.33615 0.0
H812 H 0.14905 0.20497 0.34054 0.0
H813 H 0.11503 0.24383 0.23771 0.0
H814 H 0.07032 0.21196 0.23644 0.0
H815 H 0.12275 0.15858 0.29292 0.0
C816 C 0.21227 0.23407 0.31064 0.0
C817 C 0.21858 0.26115 0.30535 0.0
C818 C 0.20029 0.27495 0.28411 0.0
C819 C 0.17556 0.26218 0.26901 0.0
C820 C 0.16964 0.23551 0.2751 0.0
C821 C 0.18764 0.22163 0.29537 0.0
C822 C 0.17478 0.194 0.30026 0.0
C823 C 0.19824 0.17293 0.28944 0.0
C824 C 0.16606 0.18965 0.33296 0.0
C825 C 0.14584 0.19489 0.28074 0.0
C826 C 0.14349 0.21873 0.26583 0.0
C827 C 0.117 0.22486 0.24872 0.0
C828 C 0.09182 0.20658 0.24785 0.0
C829 C 0.09337 0.18275 0.26422 0.0
C830 C 0.1212 0.17654 0.27985 0.0
H831 H 0.30927 0.22507 0.82116 0.0
H832 H 0.23918 0.28207 0.79301 0.0
H833 H 0.2805 0.30737 0.76624 0.0
H834 H 0.36654 0.27167 0.83813 0.0
H835 H 0.39953 0.25163 0.82671 0.0
H836 H 0.36367 0.23597 0.83877 0.0
H837 H 0.3607 0.21014 0.78923 0.0
H838 H 0.39644 0.22613 0.77687 0.0
H839 H 0.36107 0.22816 0.75484 0.0
H840 H 0.33017 0.3285 0.74668 0.0
H841 H 0.38411 0.34706 0.7426 0.0
H842 H 0.42176 0.27728 0.78541 0.0
C843 C 0.30263 0.24256 0.80875 0.0
C844 C 0.27119 0.25157 0.80867 0.0
C845 C 0.26325 0.27491 0.79307 0.0
C846 C 0.28647 0.28919 0.77762 0.0
C847 C 0.31744 0.27987 0.77821 0.0
C848 C 0.32557 0.25723 0.7937 0.0
C849 C 0.36094 0.25335 0.79439 0.0
C850 C 0.37338 0.25317 0.82639 0.0
C851 C 0.37033 0.22793 0.77784 0.0
C852 C 0.37159 0.27785 0.77782 0.0
C853 C 0.34617 0.29248 0.76781 0.0
C854 C 0.35024 0.31694 0.75384 0.0
C855 C 0.38095 0.3272 0.75123 0.0
C856 C 0.40692 0.31315 0.76288 0.0
C857 C 0.40224 0.28792 0.77556 0.0
H858 H 0.68055 0.22195 0.66917 0.0
H859 H 0.74827 0.25091 0.73349 0.0
H860 H 0.7053 0.27371 0.7604 0.0
H861 H 0.63859 0.27934 0.66259 0.0
H862 H 0.60057 0.26363 0.65835 0.0
H863 H 0.63565 0.24618 0.64781 0.0
H864 H 0.62013 0.20743 0.68267 0.0
H865 H 0.58504 0.22504 0.69358 0.0
H866 H 0.61274 0.21405 0.72119 0.0
H867 H 0.65579 0.29861 0.77592 0.0
H868 H 0.60613 0.32467 0.77616 0.0
H869 H 0.57185 0.27877 0.70184 0.0
C870 C 0.68628 0.2328 0.68915 0.0
C871 C 0.71768 0.23473 0.69923 0.0
C872 C 0.72426 0.24898 0.72555 0.0
C873 C 0.7 0.26192 0.74101 0.0
C874 C 0.66927 0.26003 0.7301 0.0
C875 C 0.66243 0.24565 0.70481 0.0
C876 C 0.62835 0.24873 0.69576 0.0
C877 C 0.62566 0.26016 0.66429 0.0
C878 C 0.61052 0.22223 0.69848 0.0
C879 C 0.61744 0.26831 0.71885 0.0
C880 C 0.64098 0.27417 0.73903 0.0
C881 C 0.63697 0.29371 0.76066 0.0
C882 C 0.60867 0.3083 0.76084 0.0
C883 C 0.58525 0.30333 0.73928 0.0
C884 C 0.58931 0.28252 0.71886 0.0
H885 H 0.77048 0.22456 0.17884 0.0
H886 H 0.79208 0.29746 0.22584 0.0
H887 H 0.8358 0.27485 0.25176 0.0
H888 H 0.79218 0.17782 0.23857 0.0
H889 H 0.8089 0.15456 0.21271 0.0
H890 H 0.77641 0.17533 0.20166 0.0
H891 H 0.8092 0.19303 0.15744 0.0
H892 H 0.84151 0.17217 0.16818 0.0
H893 H 0.84754 0.20742 0.16423 0.0
H894 H 0.88142 0.24519 0.26818 0.0
H895 H 0.92554 0.21288 0.27012 0.0
H896 H 0.87362 0.1605 0.21158 0.0
C897 C 0.78419 0.23577 0.19477 0.0
C898 C 0.7778 0.2628 0.20027 0.0
C899 C 0.79622 0.27663 0.2215 0.0
C900 C 0.82112 0.26394 0.23637 0.0
C901 C 0.82711 0.23734 0.22998 0.0
C902 C 0.80903 0.22347 0.20966 0.0
C903 C 0.82188 0.19596 0.20439 0.0
C904 C 0.79844 0.17466 0.21497 0.0
C905 C 0.83056 0.19193 0.17164 0.0
C906 C 0.85084 0.19683 0.22387 0.0
C907 C 0.85324 0.22056 0.23908 0.0
C908 C 0.87949 0.22639 0.25673 0.0
C909 C 0.90436 0.20792 0.25787 0.0
C910 C 0.9028 0.18426 0.24109 0.0
C911 C 0.87525 0.17839 0.22482 0.0
H912 H 0.81265 0.72864 0.66957 0.0
H913 H 0.74472 0.7634 0.72959 0.0
H914 H 0.78836 0.78502 0.75728 0.0
H915 H 0.87681 0.7187 0.72466 0.0
H916 H 0.90676 0.72703 0.69795 0.0
H917 H 0.87064 0.71126 0.68611 0.0
H918 H 0.86049 0.74965 0.64914 0.0
H919 H 0.89663 0.76523 0.66059 0.0
H920 H 0.86009 0.78337 0.66251 0.0
H921 H 0.83954 0.80766 0.77395 0.0
H922 H 0.89158 0.83046 0.77549 0.0
H923 H 0.92473 0.77977 0.70486 0.0
C924 C 0.80697 0.74057 0.68874 0.0
C925 C 0.77539 0.7445 0.69738 0.0
C926 C 0.76886 0.76005 0.72274 0.0
C927 C 0.79348 0.7723 0.73862 0.0
C928 C 0.82446 0.76837 0.72914 0.0
C929 C 0.83114 0.75269 0.70483 0.0
C930 C 0.86579 0.75336 0.69725 0.0
C931 C 0.88088 0.72596 0.70177 0.0
C932 C 0.87103 0.76353 0.66552 0.0
C933 C 0.87745 0.77298 0.72004 0.0
C934 C 0.85359 0.78106 0.7388 0.0
C935 C 0.85852 0.80104 0.75981 0.0
C936 C 0.88817 0.81375 0.76074 0.0
C937 C 0.91205 0.80654 0.74052 0.0
C938 C 0.9069 0.78529 0.72085 0.0
H939 H 0.70706 0.76081 0.16975 0.0
H940 H 0.76808 0.72678 0.23651 0.0
H941 H 0.72162 0.7055 0.2601 0.0
H942 H 0.6381 0.77214 0.21796 0.0
H943 H 0.61083 0.76355 0.18887 0.0
H944 H 0.64828 0.77857 0.17997 0.0
H945 H 0.66126 0.73918 0.14511 0.0
H946 H 0.62387 0.72423 0.1537 0.0
H947 H 0.65976 0.70579 0.15934 0.0
H948 H 0.6684 0.68369 0.27255 0.0
H949 H 0.61522 0.66284 0.27101 0.0
H950 H 0.59056 0.71255 0.19653 0.0
C951 C 0.71064 0.74905 0.18949 0.0
C952 C 0.74108 0.74526 0.20123 0.0
C953 C 0.74483 0.72999 0.22727 0.0
C954 C 0.7186 0.71791 0.24081 0.0
C955 C 0.68884 0.7217 0.22828 0.0
C956 C 0.68486 0.7371 0.20326 0.0
C957 C 0.65114 0.7367 0.1926 0.0
C958 C 0.63622 0.76439 0.19501 0.0
C959 C 0.6489 0.72581 0.16083 0.0
C960 C 0.63688 0.71776 0.2147 0.0
C961 C 0.65865 0.70957 0.23553 0.0
C962 C 0.65104 0.69039 0.2567 0.0
C963 C 0.62075 0.6788 0.25587 0.0
C964 C 0.59884 0.68636 0.23388 0.0
C965 C 0.60684 0.70659 0.21374 0.0
H966 H 0.28683 0.72891 0.34131 0.0
H967 H 0.30296 0.7974 0.28523 0.0
H968 H 0.34632 0.77358 0.26021 0.0
H969 H 0.366 0.71466 0.35375 0.0
H970 H 0.36083 0.67913 0.35393 0.0
H971 H 0.32867 0.70032 0.36438 0.0
H972 H 0.29332 0.67829 0.3244 0.0
H973 H 0.32554 0.65709 0.31371 0.0
H974 H 0.30642 0.67764 0.28652 0.0
H975 H 0.39155 0.74353 0.24471 0.0
H976 H 0.4353 0.71108 0.24215 0.0
H977 H 0.38912 0.66309 0.3088 0.0
C978 C 0.29933 0.73891 0.32368 0.0
C979 C 0.29145 0.76503 0.31526 0.0
C980 C 0.30827 0.77725 0.29183 0.0
C981 C 0.33297 0.76389 0.2775 0.0
C982 C 0.3404 0.73827 0.28671 0.0
C983 C 0.32398 0.72594 0.30927 0.0
C984 C 0.33794 0.69921 0.31669 0.0
C985 C 0.34903 0.6983 0.3491 0.0
C986 C 0.3144 0.67673 0.30992 0.0
C987 C 0.36547 0.69876 0.29552 0.0
C988 C 0.36629 0.72118 0.27798 0.0
C989 C 0.3908 0.72569 0.25798 0.0
C990 C 0.4154 0.70707 0.25645 0.0
C991 C 0.41529 0.68446 0.27493 0.0
C992 C 0.38967 0.68012 0.29421 0.0
H993 H 0.17733 0.72449 0.85376 0.0
H994 H 0.24067 0.73719 0.77986 0.0
H995 H 0.19828 0.76084 0.75313 0.0
H996 H 0.1042 0.71654 0.81037 0.0
H997 H 0.08106 0.73407 0.83743 0.0
H998 H 0.11506 0.71528 0.84886 0.0
H999 H 0.13851 0.75717 0.87412 0.0
H1000 H 0.10457 0.77597 0.86295 0.0
H1001 H 0.14355 0.7871 0.85283 0.0
H1002 H 0.15026 0.78739 0.73689 0.0
H1003 H 0.10235 0.81528 0.73405 0.0
H1004 H 0.07142 0.78468 0.81849 0.0
C1005 C 0.18227 0.73207 0.83186 0.0
C1006 C 0.21231 0.72901 0.81891 0.0
C1007 C 0.2177 0.73903 0.79009 0.0
C1008 C 0.19377 0.7525 0.77474 0.0
C1009 C 0.16453 0.75552 0.78841 0.0
C1010 C 0.15875 0.74547 0.81631 0.0
C1011 C 0.1263 0.75298 0.8272 0.0
C1012 C 0.10543 0.72824 0.83119 0.0
C1013 C 0.12838 0.76928 0.85596 0.0
C1014 C 0.11511 0.76969 0.80158 0.0
C1015 C 0.13714 0.77063 0.77913 0.0
C1016 C 0.13262 0.78639 0.75412 0.0
C1017 C 0.10526 0.80206 0.7525 0.0
C1018 C 0.0831 0.80203 0.77579 0.0
C1019 C 0.08786 0.78505 0.80018 0.0
loop_
_geom_bond_atom_site_label_1
_geom_bond_atom_site_label_2
_geom_bond_distance
_geom_bond_site_symmetry_2
_ccdc_geom_bond_type
C0 C1 1.384 . S
C0 H13 0.947 . S
C0 C35 1.382 . S
C1 C0 1.384 . S
C1 C2 1.378 . S
C2 C1 1.378 . S
C2 C3 1.378 . S
C2 H14 0.952 . S
C3 C2 1.378 . S
C3 H15 0.950 . S
C3 C34 1.383 . S
H4 C23 0.947 . S
H5 C24 0.946 . S
H6 C26 0.953 . S
H7 C27 0.945 . S
H8 C29 0.952 . S
H9 C30 0.949 . S
H10 C32 0.950 . S
H11 C33 0.948 . S
H12 C35 0.951 . S
H13 C0 0.947 . S
H14 C2 0.952 . S
H15 C3 0.950 . S
N16 C19 1.382 . S
N16 C21 1.363 . S
N17 C19 1.371 . S
N17 C20 1.372 . S
N18 C20 1.361 . S
N18 C21 1.377 . S
C19 N16 1.382 . S
C19 N17 1.371 . S
C19 C22 1.480 . S
C20 N17 1.372 . S
C20 N18 1.361 . S
C20 C28 1.457 . S
C21 N16 1.363 . S
C21 N18 1.377 . S
C21 C34 1.479 . S
C22 C19 1.480 . S
C22 C23 1.383 . S
C22 C27 1.385 . S
C23 H4 0.947 . S
C23 C22 1.383 . S
C23 C24 1.388 . S
C24 H5 0.946 . S
C24 C23 1.388 . S
C24 C25 1.384 . S
C25 C24 1.384 . S
C25 C26 1.377 . S
C26 H6 0.953 . S
C26 C25 1.377 . S
C26 C27 1.369 . S
C27 H7 0.945 . S
C27 C22 1.385 . S
C27 C26 1.369 . S
C28 C20 1.457 . S
C28 C29 1.372 . S
C28 C33 1.364 . S
C29 H8 0.952 . S
C29 C28 1.372 . S
C29 C30 1.389 . S
C30 H9 0.949 . S
C30 C29 1.389 . S
C30 C31 1.387 . S
C31 C30 1.387 . S
C31 C32 1.372 . S
C32 H10 0.950 . S
C32 C31 1.372 . S
C32 C33 1.379 . S
C33 H11 0.948 . S
C33 C28 1.364 . S
C33 C32 1.379 . S
C34 C3 1.383 . S
C34 C21 1.479 . S
C34 C35 1.398 . S
C35 C0 1.382 . S
C35 H12 0.951 . S
C35 C34 1.398 . S
C36 C37 1.384 1_556 S
C36 H49 0.947 . S
C36 C71 1.382 . S
C37 C36 1.384 1_554 S
C37 C38 1.378 1_554 S
C38 C37 1.378 1_556 S
C38 C39 1.378 . S
C38 H50 0.952 1_556 S
C39 C38 1.378 . S
C39 H51 0.950 . S
C39 C70 1.383 . S
H40 C59 0.947 . S
H41 C60 0.946 . S
H42 C62 0.953 . S
H43 C63 0.945 . S
H44 C65 0.952 . S
H45 C66 0.949 . S
H46 C68 0.950 . S
H47 C69 0.948 . S
H48 C71 0.951 . S
H49 C36 0.947 . S
H50 C38 0.952 1_554 S
H51 C39 0.950 . S
N52 C55 1.382 . S
N52 C57 1.363 . S
N53 C55 1.371 . S
N53 C56 1.372 . S
N54 C56 1.361 . S
N54 C57 1.377 . S
C55 N52 1.382 . S
C55 N53 1.371 . S
C55 C58 1.480 . S
C56 N53 1.372 . S
C56 N54 1.361 . S
C56 C64 1.457 . S
C57 N52 1.363 . S
C57 N54 1.377 . S
C57 C70 1.479 . S
C58 C55 1.480 . S
C58 C59 1.383 . S
C58 C63 1.385 . S
C59 H40 0.947 . S
C59 C58 1.383 . S
C59 C60 1.388 . S
C60 H41 0.946 . S
C60 C59 1.388 . S
C60 C61 1.384 . S
C61 C60 1.384 . S
C61 C62 1.377 . S
C62 H42 0.953 . S
C62 C61 1.377 . S
C62 C63 1.369 . S
C63 H43 0.945 . S
C63 C58 1.385 . S
C63 C62 1.369 . S
C64 C56 1.457 . S
C64 C65 1.372 . S
C64 C69 1.364 . S
C65 H44 0.952 . S
C65 C64 1.372 . S
C65 C66 1.389 . S
C66 H45 0.949 . S
C66 C65 1.389 . S
C66 C67 1.387 . S
C67 C66 1.387 . S
C67 C68 1.372 . S
C68 H46 0.950 . S
C68 C67 1.372 . S
C68 C69 1.379 . S
C69 H47 0.948 . S
C69 C64 1.364 . S
C69 C68 1.379 . S
C70 C39 1.383 . S
C70 C57 1.479 . S
C70 C71 1.398 . S
C71 C36 1.382 . S
C71 H48 0.951 . S
C71 C70 1.398 . S
C72 C73 1.384 . S
C72 H85 0.947 . S
C72 C107 1.382 . S
C73 C72 1.384 . S
C73 C74 1.378 . S
C74 C73 1.378 . S
C74 C75 1.378 . S
C74 H86 0.952 . S
C75 C74 1.378 . S
C75 H87 0.950 . S
C75 C106 1.383 . S
H76 C95 0.947 . S
H77 C96 0.946 . S
H78 C98 0.953 . S
H79 C99 0.945 . S
H80 C101 0.952 . S
H81 C102 0.949 . S
H82 C104 0.950 . S
H83 C105 0.948 . S
H84 C107 0.951 . S
H85 C72 0.947 . S
H86 C74 0.952 . S
H87 C75 0.950 . S
N88 C91 1.382 . S
N88 C93 1.363 . S
N89 C91 1.371 . S
N89 C92 1.372 . S
N90 C92 1.361 . S
N90 C93 1.377 . S
C91 N88 1.382 . S
C91 N89 1.371 . S
C91 C94 1.480 . S
C92 N89 1.372 . S
C92 N90 1.361 . S
C92 C100 1.457 . S
C93 N88 1.363 . S
C93 N90 1.377 . S
C93 C106 1.479 . S
C94 C91 1.480 . S
C94 C95 1.383 . S
C94 C99 1.385 . S
C95 H76 0.947 . S
C95 C94 1.383 . S
C95 C96 1.388 . S
C96 H77 0.946 . S
C96 C95 1.388 . S
C96 C97 1.384 . S
C97 C96 1.384 . S
C97 C98 1.377 . S
C98 H78 0.953 . S
C98 C97 1.377 . S
C98 C99 1.369 . S
C99 H79 0.945 . S
C99 C94 1.385 . S
C99 C98 1.369 . S
C100 C92 1.457 . S
C100 C101 1.372 . S
C100 C105 1.364 . S
C101 H80 0.952 . S
C101 C100 1.372 . S
C101 C102 1.389 . S
C102 H81 0.949 . S
C102 C101 1.389 . S
C102 C103 1.387 . S
C103 C102 1.387 . S
C103 C104 1.372 . S
C104 H82 0.950 . S
C104 C103 1.372 . S
C104 C105 1.379 . S
C105 H83 0.948 . S
C105 C100 1.364 . S
C105 C104 1.379 . S
C106 C75 1.383 . S
C106 C93 1.479 . S
C106 C107 1.398 . S
C107 C72 1.382 . S
C107 H84 0.951 . S
C107 C106 1.398 . S
C108 C109 1.364 1_554 S
C108 H121 0.947 . S
C108 C143 1.382 . S
C109 C108 1.364 1_556 S
C109 C110 1.363 1_556 S
C110 C109 1.363 1_554 S
C110 C111 1.378 . S
C110 H122 0.973 . S
C111 C110 1.378 . S
C111 H123 0.950 . S
C111 C142 1.383 . S
H112 C131 0.947 . S
H113 C132 0.946 . S
H114 C134 0.953 . S
H115 C135 0.945 . S
H116 C137 0.952 . S
H117 C138 0.949 . S
H118 C140 0.950 . S
H119 C141 0.948 . S
H120 C143 0.951 . S
H121 C108 0.947 . S
H122 C110 0.973 . S
H123 C111 0.950 . S
N124 C127 1.382 . S
N124 C129 1.363 . S
N125 C127 1.371 . S
N125 C128 1.372 . S
N126 C128 1.361 . S
N126 C129 1.377 . S
C127 N124 1.382 . S
C127 N125 1.371 . S
C127 C130 1.480 . S
C128 N125 1.372 . S
C128 N126 1.361 . S
C128 C136 1.457 . S
C129 N124 1.363 . S
C129 N126 1.377 . S
C129 C142 1.479 . S
C130 C127 1.480 . S
C130 C131 1.383 . S
C130 C135 1.385 . S
C131 H112 0.947 . S
C131 C130 1.383 . S
C131 C132 1.388 . S
C132 H113 0.946 . S
C132 C131 1.388 . S
C132 C133 1.384 . S
C133 C132 1.384 . S
C133 C134 1.377 . S
C134 H114 0.953 . S
C134 C133 1.377 . S
C134 C135 1.369 . S
C135 H115 0.945 . S
C135 C130 1.385 . S
C135 C134 1.369 . S
C136 C128 1.457 . S
C136 C137 1.372 . S
C136 C141 1.364 . S
C137 H116 0.952 . S
C137 C136 1.372 . S
C137 C138 1.389 . S
C138 H117 0.949 . S
C138 C137 1.389 . S
C138 C139 1.387 . S
C139 C138 1.387 . S
C139 C140 1.372 . S
C140 H118 0.950 . S
C140 C139 1.372 . S
C140 C141 1.379 . S
C141 H119 0.948 . S
C141 C136 1.364 . S
C141 C140 1.379 . S
C142 C111 1.383 . S
C142 C129 1.479 . S
C142 C143 1.398 . S
C143 C108 1.382 . S
C143 H120 0.951 . S
C143 C142 1.398 . S
C144 C145 1.384 . S
C144 H157 0.947 . S
C144 C179 1.382 . S
C145 C144 1.384 . S
C145 C146 1.378 . S
C146 C145 1.378 . S
C146 C147 1.378 . S
C146 H158 0.952 . S
C147 C146 1.378 . S
C147 H159 0.950 . S
C147 C178 1.383 . S
H148 C167 0.947 . S
H149 C168 0.946 . S
H150 C170 0.953 . S
H151 C171 0.945 . S
H152 C173 0.952 . S
H153 C174 0.949 . S
H154 C176 0.950 . S
H155 C177 0.948 . S
H156 C179 0.951 . S
H157 C144 0.947 . S
H158 C146 0.952 . S
H159 C147 0.950 . S
N160 C163 1.382 . S
N160 C165 1.363 . S
N161 C163 1.371 . S
N161 C164 1.372 . S
N162 C164 1.361 . S
N162 C165 1.377 . S
C163 N160 1.382 . S
C163 N161 1.371 . S
C163 C166 1.480 . S
C164 N161 1.372 . S
C164 N162 1.361 . S
C164 C172 1.457 . S
C165 N160 1.363 . S
C165 N162 1.377 . S
C165 C178 1.479 . S
C166 C163 1.480 . S
C166 C167 1.383 . S
C166 C171 1.385 . S
C167 H148 0.947 . S
C167 C166 1.383 . S
C167 C168 1.388 . S
C168 H149 0.946 . S
C168 C167 1.388 . S
C168 C169 1.384 . S
C169 C168 1.384 . S
C169 C170 1.377 . S
C170 H150 0.953 . S
C170 C169 1.377 . S
C170 C171 1.369 . S
C171 H151 0.945 . S
C171 C166 1.385 . S
C171 C170 1.369 . S
C172 C164 1.457 . S
C172 C173 1.372 . S
C172 C177 1.364 . S
C173 H152 0.952 . S
C173 C172 1.372 . S
C173 C174 1.389 . S
C174 H153 0.949 . S
C174 C173 1.389 . S
C174 C175 1.387 . S
C175 C174 1.387 . S
C175 C176 1.372 . S
C176 H154 0.950 . S
C176 C175 1.372 . S
C176 C177 1.379 . S
C177 H155 0.948 . S
C177 C172 1.364 . S
C177 C176 1.379 . S
C178 C147 1.383 . S
C178 C165 1.479 . S
C178 C179 1.398 . S
C179 C144 1.382 . S
C179 H156 0.951 . S
C179 C178 1.398 . S
C180 C181 1.384 1_554 S
C180 H193 0.947 . S
C180 C215 1.382 . S
C181 C180 1.384 1_556 S
C181 C182 1.378 1_556 S
C182 C181 1.378 1_554 S
C182 C183 1.378 . S
C182 H194 0.952 1_554 S
C183 C182 1.378 . S
C183 H195 0.950 . S
C183 C214 1.383 . S
H184 C203 0.947 . S
H185 C204 0.946 . S
H186 C206 0.953 . S
H187 C207 0.945 . S
H188 C209 0.952 . S
H189 C210 0.949 . S
H190 C212 0.950 . S
H191 C213 0.948 . S
H192 C215 0.951 . S
H193 C180 0.947 . S
H194 C182 0.952 1_556 S
H195 C183 0.950 . S
N196 C199 1.382 . S
N196 C201 1.363 . S
N197 C199 1.371 . S
N197 C200 1.372 . S
N198 C200 1.361 . S
N198 C201 1.377 . S
C199 N196 1.382 . S
C199 N197 1.371 . S
C199 C202 1.480 . S
C200 N197 1.372 . S
C200 N198 1.361 . S
C200 C208 1.457 . S
C201 N196 1.363 . S
C201 N198 1.377 . S
C201 C214 1.479 . S
C202 C199 1.480 . S
C202 C203 1.383 . S
C202 C207 1.385 . S
C203 H184 0.947 . S
C203 C202 1.383 . S
C203 C204 1.388 . S
C204 H185 0.946 . S
C204 C203 1.388 . S
C204 C205 1.384 . S
C205 C204 1.384 . S
C205 C206 1.377 . S
C206 H186 0.953 . S
C206 C205 1.377 . S
C206 C207 1.369 . S
C207 H187 0.945 . S
C207 C202 1.385 . S
C207 C206 1.369 . S
C208 C200 1.457 . S
C208 C209 1.372 . S
C208 C213 1.364 . S
C209 H188 0.952 . S
C209 C208 1.372 . S
C209 C210 1.389 . S
C210 H189 0.949 . S
C210 C209 1.389 . S
C210 C211 1.387 . S
C211 C210 1.387 . S
C211 C212 1.372 . S
C212 H190 0.950 . S
C212 C211 1.372 . S
C212 C213 1.379 . S
C213 H191 0.948 . S
C213 C208 1.364 . S
C213 C212 1.379 . S
C214 C183 1.383 . S
C214 C201 1.479 . S
C214 C215 1.398 . S
C215 C180 1.382 . S
C215 H192 0.951 . S
C215 C214 1.398 . S
C216 C217 1.384 . S
C216 H229 0.947 . S
C216 C251 1.382 . S
C217 C216 1.384 . S
C217 C218 1.378 . S
C218 C217 1.378 . S
C218 C219 1.378 . S
C218 H230 0.952 . S
C219 C218 1.378 . S
C219 H231 0.950 . S
C219 C250 1.383 . S
H220 C239 0.947 . S
H221 C240 0.946 . S
H222 C242 0.953 . S
H223 C243 0.945 . S
H224 C245 0.952 . S
H225 C246 0.949 . S
H226 C248 0.950 . S
H227 C249 0.948 . S
H228 C251 0.951 . S
H229 C216 0.947 . S
H230 C218 0.952 . S
H231 C219 0.950 . S
N232 C235 1.382 . S
N232 C237 1.363 . S
N233 C235 1.371 . S
N233 C236 1.372 . S
N234 C236 1.361 . S
N234 C237 1.377 . S
C235 N232 1.382 . S
C235 N233 1.371 . S
C235 C238 1.480 . S
C236 N233 1.372 . S
C236 N234 1.361 . S
C236 C244 1.457 . S
C237 N232 1.363 . S
C237 N234 1.377 . S
C237 C250 1.479 . S
C238 C235 1.480 . S
C238 C239 1.383 . S
C238 C243 1.385 . S
C239 H220 0.947 . S
C239 C238 1.383 . S
C239 C240 1.388 . S
C240 H221 0.946 . S
C240 C239 1.388 . S
C240 C241 1.384 . S
C241 C240 1.384 . S
C241 C242 1.377 . S
C242 H222 0.953 . S
C242 C241 1.377 . S
C242 C243 1.369 . S
C243 H223 0.945 . S
C243 C238 1.385 . S
C243 C242 1.369 . S
C244 C236 1.457 . S
C244 C245 1.372 . S
C244 C249 1.364 . S
C245 H224 0.952 . S
C245 C244 1.372 . S
C245 C246 1.389 . S
C246 H225 0.949 . S
C246 C245 1.389 . S
C246 C247 1.387 . S
C247 C246 1.387 . S
C247 C248 1.372 . S
C248 H226 0.950 . S
C248 C247 1.372 . S
C248 C249 1.379 . S
C249 H227 0.948 . S
C249 C244 1.364 . S
C249 C248 1.379 . S
C250 C219 1.383 . S
C250 C237 1.479 . S
C250 C251 1.398 . S
C251 C216 1.382 . S
C251 H228 0.951 . S
C251 C250 1.398 . S
C252 C253 1.384 1_556 S
C252 H265 0.947 . S
C252 C287 1.382 . S
C253 C252 1.384 1_554 S
C253 C254 1.378 1_554 S
C254 C253 1.378 1_556 S
C254 C255 1.378 . S
C254 H266 0.952 1_556 S
C255 C254 1.378 . S
C255 H267 0.950 . S
C255 C286 1.383 . S
H256 C275 0.947 . S
H257 C276 0.946 . S
H258 C278 0.953 . S
H259 C279 0.945 . S
H260 C281 0.952 . S
H261 C282 0.949 . S
H262 C284 0.950 . S
H263 C285 0.948 . S
H264 C287 0.951 . S
H265 C252 0.947 . S
H266 C254 0.952 1_554 S
H267 C255 0.950 . S
N268 C271 1.382 . S
N268 C273 1.363 . S
N269 C271 1.371 . S
N269 C272 1.372 . S
N270 C272 1.361 . S
N270 C273 1.377 . S
C271 N268 1.382 . S
C271 N269 1.371 . S
C271 C274 1.480 . S
C272 N269 1.372 . S
C272 N270 1.361 . S
C272 C280 1.457 . S
C273 N268 1.363 . S
C273 N270 1.377 . S
C273 C286 1.479 . S
C274 C271 1.480 . S
C274 C275 1.383 . S
C274 C279 1.385 . S
C275 H256 0.947 . S
C275 C274 1.383 . S
C275 C276 1.388 . S
C276 H257 0.946 . S
C276 C275 1.388 . S
C276 C277 1.384 . S
C277 C276 1.384 . S
C277 C278 1.377 . S
C278 H258 0.953 . S
C278 C277 1.377 . S
C278 C279 1.369 . S
C279 H259 0.945 . S
C279 C274 1.385 . S
C279 C278 1.369 . S
C280 C272 1.457 . S
C280 C281 1.372 . S
C280 C285 1.364 . S
C281 H260 0.952 . S
C281 C280 1.372 . S
C281 C282 1.389 . S
C282 H261 0.949 . S
C282 C281 1.389 . S
C282 C283 1.387 . S
C283 C282 1.387 . S
C283 C284 1.372 . S
C284 H262 0.950 . S
C284 C283 1.372 . S
C284 C285 1.379 . S
C285 H263 0.948 . S
C285 C280 1.364 . S
C285 C284 1.379 . S
C286 C255 1.383 . S
C286 C273 1.479 . S
C286 C287 1.398 . S
C287 C252 1.382 . S
C287 H264 0.951 . S
C287 C286 1.398 . S
Zn288 O294 1.920 1_455 S
Zn288 O300 1.898 . S
Zn288 O303 1.905 . S
Zn289 O297 1.905 1_655 S
Zn289 O298 1.898 . S
Zn289 O306 1.920 . S
Zn290 O293 2.080 1_455 S
Zn290 O296 2.114 . S
Zn290 O299 2.120 1_455 S
Zn290 O301 2.120 . S
Zn290 O302 2.114 . S
Zn290 O305 2.080 1_455 S
C291 O296 1.166 . S
C291 O297 1.182 . S
C292 O298 1.167 . S
C292 O299 1.299 . S
O293 Zn290 2.080 1_655 S
O293 C307 1.305 . S
O294 Zn288 1.920 1_655 S
O294 C307 1.234 . S
C295 O300 1.167 . S
C295 O301 1.299 . S
O296 Zn290 2.114 . S
O296 C291 1.166 . S
O297 Zn289 1.905 1_455 S
O297 C291 1.182 . S
O298 Zn289 1.898 . S
O298 C292 1.167 . S
O299 Zn290 2.120 1_655 S
O299 C292 1.299 . S
O300 Zn288 1.898 . S
O300 C295 1.167 . S
O301 Zn290 2.120 . S
O301 C295 1.299 . S
O302 Zn290 2.114 . S
O302 C304 1.166 . S
O303 Zn288 1.905 . S
O303 C304 1.182 . S
C304 O302 1.166 . S
C304 O303 1.182 . S
O305 Zn290 2.080 1_655 S
O305 C308 1.305 . S
O306 Zn289 1.920 . S
O306 C308 1.234 . S
C307 O293 1.305 . S
C307 O294 1.234 . S
C308 O305 1.305 . S
C308 O306 1.234 . S
Zn309 O315 1.920 . S
Zn309 O321 1.898 . S
Zn309 O324 1.905 . S
Zn310 O318 1.905 . S
Zn310 O319 1.898 . S
Zn310 O327 1.920 . S
Zn311 O314 2.080 . S
Zn311 O317 2.114 . S
Zn311 O320 2.120 . S
Zn311 O322 2.120 . S
Zn311 O323 2.114 . S
Zn311 O326 2.080 . S
C312 O317 1.166 . S
C312 O318 1.182 . S
C313 O319 1.167 . S
C313 O320 1.299 . S
O314 Zn311 2.080 . S
O314 C328 1.305 . S
O315 Zn309 1.920 . S
O315 C328 1.234 . S
C316 O321 1.167 . S
C316 O322 1.299 . S
O317 Zn311 2.114 . S
O317 C312 1.166 . S
O318 Zn310 1.905 . S
O318 C312 1.182 . S
O319 Zn310 1.898 . S
O319 C313 1.167 . S
O320 Zn311 2.120 . S
O320 C313 1.299 . S
O321 Zn309 1.898 . S
O321 C316 1.167 . S
O322 Zn311 2.120 . S
O322 C316 1.299 . S
O323 Zn311 2.114 . S
O323 C325 1.166 . S
O324 Zn309 1.905 . S
O324 C325 1.182 . S
C325 O323 1.166 . S
C325 O324 1.182 . S
O326 Zn311 2.080 . S
O326 C329 1.305 . S
O327 Zn310 1.920 . S
O327 C329 1.234 . S
C328 O314 1.305 . S
C328 O315 1.234 . S
C329 O326 1.305 . S
C329 O327 1.234 . S
Zn330 O336 1.920 . S
Zn330 O342 1.898 . S
Zn330 O345 1.905 1_455 S
Zn331 O339 1.905 . S
Zn331 O340 1.898 . S
Zn331 O348 1.920 1_655 S
Zn332 O335 2.080 . S
Zn332 O338 2.114 1_455 S
Zn332 O341 2.120 1_455 S
Zn332 O343 2.120 . S
Zn332 O344 2.114 1_455 S
Zn332 O347 2.080 . S
C333 O338 1.166 . S
C333 O339 1.182 . S
C334 O340 1.167 . S
C334 O341 1.299 . S
O335 Zn332 2.080 . S
O335 C349 1.305 . S
O336 Zn330 1.920 . S
O336 C349 1.234 . S
C337 O342 1.167 . S
C337 O343 1.299 . S
O338 Zn332 2.114 1_655 S
O338 C333 1.166 . S
O339 Zn331 1.905 . S
O339 C333 1.182 . S
O340 Zn331 1.898 . S
O340 C334 1.167 . S
O341 Zn332 2.120 1_655 S
O341 C334 1.299 . S
O342 Zn330 1.898 . S
O342 C337 1.167 . S
O343 Zn332 2.120 . S
O343 C337 1.299 . S
O344 Zn332 2.114 1_655 S
O344 C346 1.166 . S
O345 Zn330 1.905 1_655 S
O345 C346 1.182 . S
C346 O344 1.166 . S
C346 O345 1.182 . S
O347 Zn332 2.080 . S
O347 C350 1.305 . S
O348 Zn331 1.920 1_455 S
O348 C350 1.234 . S
C349 O335 1.305 . S
C349 O336 1.234 . S
C350 O347 1.305 . S
C350 O348 1.234 . S
Zn351 O357 1.920 . S
Zn351 O363 1.898 . S
Zn351 O366 1.905 . S
Zn352 O360 1.905 . S
Zn352 O361 1.898 . S
Zn352 O369 1.920 . S
Zn353 O356 2.080 . S
Zn353 O359 2.114 . S
Zn353 O362 2.120 . S
Zn353 O364 2.120 . S
Zn353 O365 2.114 . S
Zn353 O368 2.080 . S
C354 O359 1.166 . S
C354 O360 1.182 . S
C355 O361 1.167 . S
C355 O362 1.299 . S
O356 Zn353 2.080 . S
O356 C370 1.305 . S
O357 Zn351 1.920 . S
O357 C370 1.234 . S
C358 O363 1.167 . S
C358 O364 1.299 . S
O359 Zn353 2.114 . S
O359 C354 1.166 . S
O360 Zn352 1.905 . S
O360 C354 1.182 . S
O361 Zn352 1.898 . S
O361 C355 1.167 . S
O362 Zn353 2.120 . S
O362 C355 1.299 . S
O363 Zn351 1.898 . S
O363 C358 1.167 . S
O364 Zn353 2.120 . S
O364 C358 1.299 . S
O365 Zn353 2.114 . S
O365 C367 1.166 . S
O366 Zn351 1.905 . S
O366 C367 1.182 . S
C367 O365 1.166 . S
C367 O366 1.182 . S
O368 Zn353 2.080 . S
O368 C371 1.305 . S
O369 Zn352 1.920 . S
O369 C371 1.234 . S
C370 O356 1.305 . S
C370 O357 1.234 . S
C371 O368 1.305 . S
C371 O369 1.234 . S
H372 C384 0.930 . S
H373 C386 0.930 . S
H374 C387 0.930 . S
H375 C391 0.959 . S
H376 C391 0.959 . S
H377 C391 0.961 . S
H378 C392 0.960 . S
H379 C392 0.961 . S
H380 C392 0.959 . S
H381 C395 0.929 . S
H382 C396 0.931 . S
H383 C398 0.930 . S
C384 H372 0.930 . S
C384 C385 1.399 . S
C384 C389 1.399 1_565 S
C385 C384 1.399 . S
C385 C386 1.376 . S
C386 H373 0.930 . S
C386 C385 1.376 . S
C386 C387 1.388 . S
C387 H374 0.930 . S
C387 C386 1.388 . S
C387 C388 1.390 1_565 S
C388 C387 1.390 1_545 S
C388 C389 1.394 . S
C388 C394 1.465 . S
C389 C384 1.399 1_545 S
C389 C388 1.394 . S
C389 C390 1.516 . S
C390 C389 1.516 . S
C390 C391 1.502 . S
C390 C392 1.561 . S
C390 C393 1.526 . S
C391 H375 0.959 . S
C391 H376 0.959 . S
C391 H377 0.961 . S
C391 C390 1.502 . S
C392 H378 0.960 . S
C392 H379 0.961 . S
C392 H380 0.959 . S
C392 C390 1.561 . S
C393 C390 1.526 . S
C393 C394 1.396 . S
C393 C398 1.390 . S
C394 C388 1.465 . S
C394 C393 1.396 . S
C394 C395 1.399 . S
C395 H381 0.929 . S
C395 C394 1.399 . S
C395 C396 1.385 . S
C396 H382 0.931 . S
C396 C395 1.385 . S
C396 C397 1.389 . S
C397 C396 1.389 . S
C397 C398 1.387 . S
C398 H383 0.930 . S
C398 C393 1.390 . S
C398 C397 1.387 . S
H399 C411 0.930 . S
H400 C413 0.930 . S
H401 C414 0.930 . S
H402 C418 0.959 . S
H403 C418 0.959 . S
H404 C418 0.961 . S
H405 C419 0.960 . S
H406 C419 0.961 . S
H407 C419 0.959 . S
H408 C422 0.929 . S
H409 C423 0.931 . S
H410 C425 0.930 . S
C411 H399 0.930 . S
C411 C412 1.399 . S
C411 C416 1.399 . S
C412 C411 1.399 . S
C412 C413 1.376 . S
C413 H400 0.930 . S
C413 C412 1.376 . S
C413 C414 1.388 . S
C414 H401 0.930 . S
C414 C413 1.388 . S
C414 C415 1.390 . S
C415 C414 1.390 . S
C415 C416 1.394 . S
C415 C421 1.465 . S
C416 C411 1.399 . S
C416 C415 1.394 . S
C416 C417 1.516 . S
C417 C416 1.516 . S
C417 C418 1.502 . S
C417 C419 1.561 . S
C417 C420 1.526 . S
C418 H402 0.959 . S
C418 H403 0.959 . S
C418 H404 0.961 . S
C418 C417 1.502 . S
C419 H405 0.960 . S
C419 H406 0.961 . S
C419 H407 0.959 . S
C419 C417 1.561 . S
C420 C417 1.526 . S
C420 C421 1.396 . S
C420 C425 1.390 . S
C421 C415 1.465 . S
C421 C420 1.396 . S
C421 C422 1.399 . S
C422 H408 0.929 . S
C422 C421 1.399 . S
C422 C423 1.385 . S
C423 H409 0.931 . S
C423 C422 1.385 . S
C423 C424 1.389 . S
C424 C423 1.389 . S
C424 C425 1.387 . S
C425 H410 0.930 . S
C425 C420 1.390 . S
C425 C424 1.387 . S
H426 C438 0.930 . S
H427 C440 0.930 . S
H428 C441 0.930 . S
H429 C445 0.959 . S
H430 C445 0.959 . S
H431 C445 0.961 . S
H432 C446 0.960 . S
H433 C446 0.961 . S
H434 C446 0.959 . S
H435 C449 0.929 . S
H436 C450 0.931 . S
H437 C452 0.930 . S
C438 H426 0.930 . S
C438 C439 1.399 . S
C438 C443 1.399 . S
C439 C438 1.399 . S
C439 C440 1.376 . S
C440 H427 0.930 . S
C440 C439 1.376 . S
C440 C441 1.388 . S
C441 H428 0.930 . S
C441 C440 1.388 . S
C441 C442 1.390 . S
C442 C441 1.390 . S
C442 C443 1.394 . S
C442 C448 1.465 . S
C443 C438 1.399 . S
C443 C442 1.394 . S
C443 C444 1.516 . S
C444 C443 1.516 . S
C444 C445 1.502 . S
C444 C446 1.561 . S
C444 C447 1.526 . S
C445 H429 0.959 . S
C445 H430 0.959 . S
C445 H431 0.961 . S
C445 C444 1.502 . S
C446 H432 0.960 . S
C446 H433 0.961 . S
C446 H434 0.959 . S
C446 C444 1.561 . S
C447 C444 1.526 . S
C447 C448 1.396 . S
C447 C452 1.390 . S
C448 C442 1.465 . S
C448 C447 1.396 . S
C448 C449 1.399 . S
C449 H435 0.929 . S
C449 C448 1.399 . S
C449 C450 1.385 . S
C450 H436 0.931 . S
C450 C449 1.385 . S
C450 C451 1.389 . S
C451 C450 1.389 . S
C451 C452 1.387 . S
C452 H437 0.930 . S
C452 C447 1.390 . S
C452 C451 1.387 . S
H453 C465 0.930 . S
H454 C467 0.930 . S
H455 C468 0.930 . S
H456 C472 0.959 . S
H457 C472 0.959 . S
H458 C472 0.961 . S
H459 C473 0.960 . S
H460 C473 0.961 . S
H461 C473 0.959 . S
H462 C476 0.929 . S
H463 C477 0.931 . S
H464 C479 0.930 . S
C465 H453 0.930 . S
C465 C466 1.399 . S
C465 C470 1.399 . S
C466 C465 1.399 . S
C466 C467 1.376 . S
C467 H454 0.930 . S
C467 C466 1.376 . S
C467 C468 1.388 . S
C468 H455 0.930 . S
C468 C467 1.388 . S
C468 C469 1.371 1_565 S
C469 C468 1.371 1_545 S
C469 C470 1.392 1_545 S
C469 C475 1.488 . S
C470 C465 1.399 . S
C470 C469 1.392 1_565 S
C470 C471 1.516 1_565 S
C471 C470 1.516 1_545 S
C471 C472 1.502 . S
C471 C473 1.561 . S
C471 C474 1.526 . S
C472 H456 0.959 . S
C472 H457 0.959 . S
C472 H458 0.961 . S
C472 C471 1.502 . S
C473 H459 0.960 . S
C473 H460 0.961 . S
C473 H461 0.959 . S
C473 C471 1.561 . S
C474 C471 1.526 . S
C474 C475 1.396 . S
C474 C479 1.390 . S
C475 C469 1.488 . S
C475 C474 1.396 . S
C475 C476 1.399 . S
C476 H462 0.929 . S
C476 C475 1.399 . S
C476 C477 1.385 . S
C477 H463 0.931 . S
C477 C476 1.385 . S
C477 C478 1.389 . S
C478 C477 1.389 . S
C478 C479 1.387 . S
C479 H464 0.930 . S
C479 C474 1.390 . S
C479 C478 1.387 . S
H480 C492 0.930 . S
H481 C494 0.930 . S
H482 C495 0.930 . S
H483 C499 0.959 . S
H484 C499 0.959 . S
H485 C499 0.961 . S
H486 C500 0.960 1_545 S
H487 C500 0.961 . S
H488 C500 0.959 1_545 S
H489 C503 0.929 . S
H490 C504 0.931 . S
H491 C506 0.930 . S
C492 H480 0.930 . S
C492 C493 1.399 . S
C492 C497 1.399 . S
C493 C492 1.399 . S
C493 C494 1.376 . S
C494 H481 0.930 . S
C494 C493 1.376 . S
C494 C495 1.388 . S
C495 H482 0.930 . S
C495 C494 1.388 . S
C495 C496 1.390 1_545 S
C496 C495 1.390 1_565 S
C496 C497 1.394 1_565 S
C496 C502 1.465 . S
C497 C492 1.399 . S
C497 C496 1.394 1_545 S
C497 C498 1.516 1_545 S
C498 C497 1.516 1_565 S
C498 C499 1.502 . S
C498 C500 1.561 . S
C498 C501 1.526 . S
C499 H483 0.959 . S
C499 H484 0.959 . S
C499 H485 0.961 . S
C499 C498 1.502 . S
C500 H486 0.960 1_565 S
C500 H487 0.961 . S
C500 H488 0.959 1_565 S
C500 C498 1.561 . S
C501 C498 1.526 . S
C501 C502 1.396 . S
C501 C506 1.390 . S
C502 C496 1.465 . S
C502 C501 1.396 . S
C502 C503 1.399 . S
C503 H489 0.929 . S
C503 C502 1.399 . S
C503 C504 1.385 . S
C504 H490 0.931 . S
C504 C503 1.385 . S
C504 C505 1.389 . S
C505 C504 1.389 . S
C505 C506 1.387 . S
C506 H491 0.930 . S
C506 C501 1.390 . S
C506 C505 1.387 . S
H507 C519 0.930 . S
H508 C521 0.930 . S
H509 C522 0.930 . S
H510 C526 0.959 . S
H511 C526 0.959 . S
H512 C526 0.961 . S
H513 C527 0.960 . S
H514 C527 0.961 . S
H515 C527 0.959 . S
H516 C530 0.929 . S
H517 C531 0.931 . S
H518 C533 0.930 . S
C519 H507 0.930 . S
C519 C520 1.399 . S
C519 C524 1.399 . S
C520 C519 1.399 . S
C520 C521 1.376 . S
C521 H508 0.930 . S
C521 C520 1.376 . S
C521 C522 1.388 . S
C522 H509 0.930 . S
C522 C521 1.388 . S
C522 C523 1.390 . S
C523 C522 1.390 . S
C523 C524 1.394 . S
C523 C529 1.465 . S
C524 C519 1.399 . S
C524 C523 1.394 . S
C524 C525 1.516 . S
C525 C524 1.516 . S
C525 C526 1.502 . S
C525 C527 1.561 . S
C525 C528 1.526 . S
C526 H510 0.959 . S
C526 H511 0.959 . S
C526 H512 0.961 . S
C526 C525 1.502 . S
C527 H513 0.960 . S
C527 H514 0.961 . S
C527 H515 0.959 . S
C527 C525 1.561 . S
C528 C525 1.526 . S
C528 C529 1.396 . S
C528 C533 1.390 . S
C529 C523 1.465 . S
C529 C528 1.396 . S
C529 C530 1.399 . S
C530 H516 0.929 . S
C530 C529 1.399 . S
C530 C531 1.385 . S
C531 H517 0.931 . S
C531 C530 1.385 . S
C531 C532 1.389 . S
C532 C531 1.389 . S
C532 C533 1.387 . S
C533 H518 0.930 . S
C533 C528 1.390 . S
C533 C532 1.387 . S
H534 C546 0.930 . S
H535 C548 0.930 . S
H536 C549 0.930 . S
H537 C553 0.959 . S
H538 C553 0.959 . S
H539 C553 0.961 . S
H540 C554 0.960 . S
H541 C554 0.961 . S
H542 C554 0.959 . S
H543 C557 0.929 . S
H544 C558 0.931 . S
H545 C560 0.930 . S
C546 H534 0.930 . S
C546 C547 1.399 . S
C546 C551 1.399 . S
C547 C546 1.399 . S
C547 C548 1.376 . S
C548 H535 0.930 . S
C548 C547 1.376 . S
C548 C549 1.388 . S
C549 H536 0.930 . S
C549 C548 1.388 . S
C549 C550 1.390 . S
C550 C549 1.390 . S
C550 C551 1.394 . S
C550 C556 1.465 . S
C551 C546 1.399 . S
C551 C550 1.394 . S
C551 C552 1.516 . S
C552 C551 1.516 . S
C552 C553 1.502 . S
C552 C554 1.561 . S
C552 C555 1.526 . S
C553 H537 0.959 . S
C553 H538 0.959 . S
C553 H539 0.961 . S
C553 C552 1.502 . S
C554 H540 0.960 . S
C554 H541 0.961 . S
C554 H542 0.959 . S
C554 C552 1.561 . S
C555 C552 1.526 . S
C555 C556 1.396 . S
C555 C560 1.390 . S
C556 C550 1.465 . S
C556 C555 1.396 . S
C556 C557 1.399 . S
C557 H543 0.929 . S
C557 C556 1.399 . S
C557 C558 1.385 . S
C558 H544 0.931 . S
C558 C557 1.385 . S
C558 C559 1.389 . S
C559 C558 1.389 . S
C559 C560 1.387 . S
C560 H545 0.930 . S
C560 C555 1.390 . S
C560 C559 1.387 . S
H561 C573 0.930 . S
H562 C575 0.930 . S
H563 C576 0.930 . S
H564 C580 0.959 . S
H565 C580 0.959 . S
H566 C580 0.961 . S
H567 C581 0.960 . S
H568 C581 0.961 . S
H569 C581 0.959 . S
H570 C584 0.929 . S
H571 C585 0.931 . S
H572 C587 0.930 . S
C573 H561 0.930 . S
C573 C574 1.399 . S
C573 C578 1.389 1_545 S
C574 C573 1.399 . S
C574 C575 1.376 . S
C575 H562 0.930 . S
C575 C574 1.376 . S
C575 C576 1.388 . S
C576 H563 0.930 . S
C576 C575 1.388 . S
C576 C577 1.390 . S
C577 C576 1.390 . S
C577 C578 1.392 1_545 S
C577 C583 1.465 1_545 S
C578 C573 1.389 1_565 S
C578 C577 1.392 1_565 S
C578 C579 1.528 . S
C579 C578 1.528 . S
C579 C580 1.502 . S
C579 C581 1.561 . S
C579 C582 1.526 . S
C580 H564 0.959 . S
C580 H565 0.959 . S
C580 H566 0.961 . S
C580 C579 1.502 . S
C581 H567 0.960 . S
C581 H568 0.961 . S
C581 H569 0.959 . S
C581 C579 1.561 . S
C582 C579 1.526 . S
C582 C583 1.396 . S
C582 C587 1.390 . S
C583 C577 1.465 1_565 S
C583 C582 1.396 . S
C583 C584 1.399 . S
C584 H570 0.929 . S
C584 C583 1.399 . S
C584 C585 1.385 . S
C585 H571 0.931 . S
C585 C584 1.385 . S
C585 C586 1.389 . S
C586 C585 1.389 . S
C586 C587 1.387 . S
C587 H572 0.930 . S
C587 C582 1.390 . S
C587 C586 1.387 . S
H588 C600 0.930 . S
H589 C602 0.930 . S
H590 C603 0.930 . S
H591 C607 0.959 . S
H592 C607 0.959 . S
H593 C607 0.961 . S
H594 C608 0.960 . S
H595 C608 0.961 . S
H596 C608 0.959 . S
H597 C611 0.929 . S
H598 C612 0.931 . S
H599 C614 0.930 . S
C600 H588 0.930 . S
C600 C601 1.399 . S
C600 C605 1.399 . S
C601 C600 1.399 . S
C601 C602 1.376 . S
C602 H589 0.930 . S
C602 C601 1.376 . S
C602 C603 1.388 . S
C603 H590 0.930 . S
C603 C602 1.388 . S
C603 C604 1.390 . S
C604 C603 1.390 . S
C604 C605 1.394 . S
C604 C610 1.465 . S
C605 C600 1.399 . S
C605 C604 1.394 . S
C605 C606 1.516 . S
C606 C605 1.516 . S
C606 C607 1.502 . S
C606 C608 1.561 . S
C606 C609 1.526 . S
C607 H591 0.959 . S
C607 H592 0.959 . S
C607 H593 0.961 . S
C607 C606 1.502 . S
C608 H594 0.960 . S
C608 H595 0.961 . S
C608 H596 0.959 . S
C608 C606 1.561 . S
C609 C606 1.526 . S
C609 C610 1.396 . S
C609 C614 1.390 . S
C610 C604 1.465 . S
C610 C609 1.396 . S
C610 C611 1.399 . S
C611 H597 0.929 . S
C611 C610 1.399 . S
C611 C612 1.385 . S
C612 H598 0.931 . S
C612 C611 1.385 . S
C612 C613 1.389 . S
C613 C612 1.389 . S
C613 C614 1.387 . S
C614 H599 0.930 . S
C614 C609 1.390 . S
C614 C613 1.387 . S
H615 C627 0.930 . S
H616 C629 0.930 . S
H617 C630 0.930 . S
H618 C634 0.959 . S
H619 C634 0.959 . S
H620 C634 0.961 . S
H621 C635 0.960 . S
H622 C635 0.961 . S
H623 C635 0.959 . S
H624 C638 0.929 . S
H625 C639 0.931 . S
H626 C641 0.930 . S
C627 H615 0.930 . S
C627 C628 1.399 . S
C627 C632 1.399 . S
C628 C627 1.399 . S
C628 C629 1.376 . S
C629 H616 0.930 . S
C629 C628 1.376 . S
C629 C630 1.388 . S
C630 H617 0.930 . S
C630 C629 1.388 . S
C630 C631 1.390 . S
C631 C630 1.390 . S
C631 C632 1.394 . S
C631 C637 1.465 . S
C632 C627 1.399 . S
C632 C631 1.394 . S
C632 C633 1.516 . S
C633 C632 1.516 . S
C633 C634 1.502 . S
C633 C635 1.561 . S
C633 C636 1.526 . S
C634 H618 0.959 . S
C634 H619 0.959 . S
C634 H620 0.961 . S
C634 C633 1.502 . S
C635 H621 0.960 . S
C635 H622 0.961 . S
C635 H623 0.959 . S
C635 C633 1.561 . S
C636 C633 1.526 . S
C636 C637 1.396 . S
C636 C641 1.390 . S
C637 C631 1.465 . S
C637 C636 1.396 . S
C637 C638 1.399 . S
C638 H624 0.929 . S
C638 C637 1.399 . S
C638 C639 1.385 . S
C639 H625 0.931 . S
C639 C638 1.385 . S
C639 C640 1.389 . S
C640 C639 1.389 . S
C640 C641 1.387 . S
C641 H626 0.930 . S
C641 C636 1.390 . S
C641 C640 1.387 . S
H642 C654 0.930 . S
H643 C656 0.930 . S
H644 C657 0.930 . S
H645 C661 0.959 . S
H646 C661 0.959 . S
H647 C661 0.961 . S
H648 C662 0.960 . S
H649 C662 0.961 . S
H650 C662 0.959 . S
H651 C665 0.929 . S
H652 C666 0.931 . S
H653 C668 0.930 . S
C654 H642 0.930 . S
C654 C655 1.399 . S
C654 C659 1.399 . S
C655 C654 1.399 . S
C655 C656 1.376 . S
C656 H643 0.930 . S
C656 C655 1.376 . S
C656 C657 1.388 . S
C657 H644 0.930 . S
C657 C656 1.388 . S
C657 C658 1.390 . S
C658 C657 1.390 . S
C658 C659 1.394 . S
C658 C664 1.465 . S
C659 C654 1.399 . S
C659 C658 1.394 . S
C659 C660 1.516 . S
C660 C659 1.516 . S
C660 C661 1.502 . S
C660 C662 1.561 . S
C660 C663 1.526 . S
C661 H645 0.959 . S
C661 H646 0.959 . S
C661 H647 0.961 . S
C661 C660 1.502 . S
C662 H648 0.960 . S
C662 H649 0.961 . S
C662 H650 0.959 . S
C662 C660 1.561 . S
C663 C660 1.526 . S
C663 C664 1.396 . S
C663 C668 1.390 . S
C664 C658 1.465 . S
C664 C663 1.396 . S
C664 C665 1.399 . S
C665 H651 0.929 . S
C665 C664 1.399 . S
C665 C666 1.385 . S
C666 H652 0.931 . S
C666 C665 1.385 . S
C666 C667 1.389 . S
C667 C666 1.389 . S
C667 C668 1.387 . S
C668 H653 0.930 . S
C668 C663 1.390 . S
C668 C667 1.387 . S
H669 C681 0.930 . S
H670 C683 0.930 . S
H671 C684 0.930 . S
H672 C688 0.959 . S
H673 C688 0.959 . S
H674 C688 0.961 . S
H675 C689 0.960 . S
H676 C689 0.961 . S
H677 C689 0.959 . S
H678 C692 0.929 . S
H679 C693 0.931 . S
H680 C695 0.930 . S
C681 H669 0.930 . S
C681 C682 1.399 . S
C681 C686 1.399 . S
C682 C681 1.399 . S
C682 C683 1.376 . S
C683 H670 0.930 . S
C683 C682 1.376 . S
C683 C684 1.388 . S
C684 H671 0.930 . S
C684 C683 1.388 . S
C684 C685 1.390 . S
C685 C684 1.390 . S
C685 C686 1.394 . S
C685 C691 1.465 . S
C686 C681 1.399 . S
C686 C685 1.394 . S
C686 C687 1.516 . S
C687 C686 1.516 . S
C687 C688 1.502 . S
C687 C689 1.561 . S
C687 C690 1.526 . S
C688 H672 0.959 . S
C688 H673 0.959 . S
C688 H674 0.961 . S
C688 C687 1.502 . S
C689 H675 0.960 . S
C689 H676 0.961 . S
C689 H677 0.959 . S
C689 C687 1.561 . S
C690 C687 1.526 . S
C690 C691 1.396 . S
C690 C695 1.390 . S
C691 C685 1.465 . S
C691 C690 1.396 . S
C691 C692 1.399 . S
C692 H678 0.929 . S
C692 C691 1.399 . S
C692 C693 1.385 . S
C693 H679 0.931 . S
C693 C692 1.385 . S
C693 C694 1.389 . S
C694 C693 1.389 . S
C694 C695 1.387 . S
C695 H680 0.930 . S
C695 C690 1.390 . S
C695 C694 1.387 . S
H696 C708 0.930 . S
H697 C710 0.930 . S
H698 C711 0.930 . S
H699 C715 0.959 . S
H700 C715 0.959 . S
H701 C715 0.961 . S
H702 C716 0.960 . S
H703 C716 0.961 . S
H704 C716 0.959 . S
H705 C719 0.929 . S
H706 C720 0.931 . S
H707 C722 0.930 . S
C708 H696 0.930 . S
C708 C709 1.399 . S
C708 C713 1.399 . S
C709 C708 1.399 . S
C709 C710 1.376 . S
C710 H697 0.930 . S
C710 C709 1.376 . S
C710 C711 1.388 . S
C711 H698 0.930 . S
C711 C710 1.388 . S
C711 C712 1.390 . S
C712 C711 1.390 . S
C712 C713 1.394 . S
C712 C718 1.465 . S
C713 C708 1.399 . S
C713 C712 1.394 . S
C713 C714 1.516 . S
C714 C713 1.516 . S
C714 C715 1.502 . S
C714 C716 1.561 . S
C714 C717 1.526 . S
C715 H699 0.959 . S
C715 H700 0.959 . S
C715 H701 0.961 . S
C715 C714 1.502 . S
C716 H702 0.960 . S
C716 H703 0.961 . S
C716 H704 0.959 . S
C716 C714 1.561 . S
C717 C714 1.526 . S
C717 C718 1.396 . S
C717 C722 1.390 . S
C718 C712 1.465 . S
C718 C717 1.396 . S
C718 C719 1.399 . S
C719 H705 0.929 . S
C719 C718 1.399 . S
C719 C720 1.385 . S
C720 H706 0.931 . S
C720 C719 1.385 . S
C720 C721 1.389 . S
C721 C720 1.389 . S
C721 C722 1.387 . S
C722 H707 0.930 . S
C722 C717 1.390 . S
C722 C721 1.387 . S
H723 C735 0.930 . S
H724 C737 0.930 . S
H725 C738 0.930 . S
H726 C742 0.959 . S
H727 C742 0.959 . S
H728 C742 0.961 . S
H729 C743 0.960 . S
H730 C743 0.961 . S
H731 C743 0.959 . S
H732 C746 0.929 . S
H733 C747 0.931 . S
H734 C749 0.930 . S
C735 H723 0.930 . S
C735 C736 1.399 . S
C735 C740 1.399 . S
C736 C735 1.399 . S
C736 C737 1.376 . S
C737 H724 0.930 . S
C737 C736 1.376 . S
C737 C738 1.388 . S
C738 H725 0.930 . S
C738 C737 1.388 . S
C738 C739 1.390 . S
C739 C738 1.390 . S
C739 C740 1.394 . S
C739 C745 1.465 . S
C740 C735 1.399 . S
C740 C739 1.394 . S
C740 C741 1.516 . S
C741 C740 1.516 . S
C741 C742 1.502 . S
C741 C743 1.561 . S
C741 C744 1.526 . S
C742 H726 0.959 . S
C742 H727 0.959 . S
C742 H728 0.961 . S
C742 C741 1.502 . S
C743 H729 0.960 . S
C743 H730 0.961 . S
C743 H731 0.959 . S
C743 C741 1.561 . S
C744 C741 1.526 . S
C744 C745 1.396 . S
C744 C749 1.390 . S
C745 C739 1.465 . S
C745 C744 1.396 . S
C745 C746 1.399 . S
C746 H732 0.929 . S
C746 C745 1.399 . S
C746 C747 1.385 . S
C747 H733 0.931 . S
C747 C746 1.385 . S
C747 C748 1.389 . S
C748 C747 1.389 . S
C748 C749 1.387 . S
C749 H734 0.930 . S
C749 C744 1.390 . S
C749 C748 1.387 . S
H750 C762 0.930 . S
H751 C764 0.930 . S
H752 C765 0.930 . S
H753 C769 0.959 . S
H754 C769 0.959 . S
H755 C769 0.961 . S
H756 C770 0.960 . S
H757 C770 0.961 . S
H758 C770 0.959 . S
H759 C773 0.929 . S
H760 C774 0.931 . S
H761 C776 0.930 . S
C762 H750 0.930 . S
C762 C763 1.399 . S
C762 C767 1.399 . S
C763 C762 1.399 . S
C763 C764 1.376 . S
C764 H751 0.930 . S
C764 C763 1.376 . S
C764 C765 1.388 . S
C765 H752 0.930 . S
C765 C764 1.388 . S
C765 C766 1.390 . S
C766 C765 1.390 . S
C766 C767 1.394 . S
C766 C772 1.465 . S
C767 C762 1.399 . S
C767 C766 1.394 . S
C767 C768 1.516 . S
C768 C767 1.516 . S
C768 C769 1.502 . S
C768 C770 1.561 . S
C768 C771 1.526 . S
C769 H753 0.959 . S
C769 H754 0.959 . S
C769 H755 0.961 . S
C769 C768 1.502 . S
C770 H756 0.960 . S
C770 H757 0.961 . S
C770 H758 0.959 . S
C770 C768 1.561 . S
C771 C768 1.526 . S
C771 C772 1.396 . S
C771 C776 1.390 . S
C772 C766 1.465 . S
C772 C771 1.396 . S
C772 C773 1.399 . S
C773 H759 0.929 . S
C773 C772 1.399 . S
C773 C774 1.385 . S
C774 H760 0.931 . S
C774 C773 1.385 . S
C774 C775 1.389 . S
C775 C774 1.389 . S
C775 C776 1.387 . S
C776 H761 0.930 . S
C776 C771 1.390 . S
C776 C775 1.387 . S
H777 C789 0.930 . S
H778 C791 0.930 . S
H779 C792 0.930 . S
H780 C796 0.959 . S
H781 C796 0.959 . S
H782 C796 0.961 . S
H783 C797 0.960 . S
H784 C797 0.961 . S
H785 C797 0.959 . S
H786 C800 0.929 . S
H787 C801 0.931 . S
H788 C803 0.930 . S
C789 H777 0.930 . S
C789 C790 1.399 . S
C789 C794 1.399 . S
C790 C789 1.399 . S
C790 C791 1.376 . S
C791 H778 0.930 . S
C791 C790 1.376 . S
C791 C792 1.388 . S
C792 H779 0.930 . S
C792 C791 1.388 . S
C792 C793 1.390 . S
C793 C792 1.390 . S
C793 C794 1.394 . S
C793 C799 1.465 . S
C794 C789 1.399 . S
C794 C793 1.394 . S
C794 C795 1.516 . S
C795 C794 1.516 . S
C795 C796 1.502 . S
C795 C797 1.561 . S
C795 C798 1.526 . S
C796 H780 0.959 . S
C796 H781 0.959 . S
C796 H782 0.961 . S
C796 C795 1.502 . S
C797 H783 0.960 . S
C797 H784 0.961 . S
C797 H785 0.959 . S
C797 C795 1.561 . S
C798 C795 1.526 . S
C798 C799 1.396 . S
C798 C803 1.390 . S
C799 C793 1.465 . S
C799 C798 1.396 . S
C799 C800 1.399 . S
C800 H786 0.929 . S
C800 C799 1.399 . S
C800 C801 1.385 . S
C801 H787 0.931 . S
C801 C800 1.385 . S
C801 C802 1.389 . S
C802 C801 1.389 . S
C802 C803 1.387 . S
C803 H788 0.930 . S
C803 C798 1.390 . S
C803 C802 1.387 . S
H804 C816 0.930 . S
H805 C818 0.930 . S
H806 C819 0.930 . S
H807 C823 0.959 . S
H808 C823 0.959 . S
H809 C823 0.961 . S
H810 C824 0.960 . S
H811 C824 0.961 . S
H812 C824 0.959 . S
H813 C827 0.929 . S
H814 C828 0.931 . S
H815 C830 0.930 . S
C816 H804 0.930 . S
C816 C817 1.399 . S
C816 C821 1.399 . S
C817 C816 1.399 . S
C817 C818 1.376 . S
C818 H805 0.930 . S
C818 C817 1.376 . S
C818 C819 1.388 . S
C819 H806 0.930 . S
C819 C818 1.388 . S
C819 C820 1.390 . S
C820 C819 1.390 . S
C820 C821 1.394 . S
C820 C826 1.465 . S
C821 C816 1.399 . S
C821 C820 1.394 . S
C821 C822 1.516 . S
C822 C821 1.516 . S
C822 C823 1.502 . S
C822 C824 1.561 . S
C822 C825 1.526 . S
C823 H807 0.959 . S
C823 H808 0.959 . S
C823 H809 0.961 . S
C823 C822 1.502 . S
C824 H810 0.960 . S
C824 H811 0.961 . S
C824 H812 0.959 . S
C824 C822 1.561 . S
C825 C822 1.526 . S
C825 C826 1.396 . S
C825 C830 1.390 . S
C826 C820 1.465 . S
C826 C825 1.396 . S
C826 C827 1.399 . S
C827 H813 0.929 . S
C827 C826 1.399 . S
C827 C828 1.385 . S
C828 H814 0.931 . S
C828 C827 1.385 . S
C828 C829 1.389 . S
C829 C828 1.389 . S
C829 C830 1.387 . S
C830 H815 0.930 . S
C830 C825 1.390 . S
C830 C829 1.387 . S
H831 C843 0.930 . S
H832 C845 0.930 . S
H833 C846 0.930 . S
H834 C850 0.959 . S
H835 C850 0.959 . S
H836 C850 0.961 . S
H837 C851 0.960 . S
H838 C851 0.961 . S
H839 C851 0.959 . S
H840 C854 0.929 . S
H841 C855 0.931 . S
H842 C857 0.930 . S
C843 H831 0.930 . S
C843 C844 1.399 . S
C843 C848 1.399 . S
C844 C843 1.399 . S
C844 C845 1.376 . S
C845 H832 0.930 . S
C845 C844 1.376 . S
C845 C846 1.388 . S
C846 H833 0.930 . S
C846 C845 1.388 . S
C846 C847 1.390 . S
C847 C846 1.390 . S
C847 C848 1.394 . S
C847 C853 1.465 . S
C848 C843 1.399 . S
C848 C847 1.394 . S
C848 C849 1.516 . S
C849 C848 1.516 . S
C849 C850 1.502 . S
C849 C851 1.561 . S
C849 C852 1.526 . S
C850 H834 0.959 . S
C850 H835 0.959 . S
C850 H836 0.961 . S
C850 C849 1.502 . S
C851 H837 0.960 . S
C851 H838 0.961 . S
C851 H839 0.959 . S
C851 C849 1.561 . S
C852 C849 1.526 . S
C852 C853 1.396 . S
C852 C857 1.390 . S
C853 C847 1.465 . S
C853 C852 1.396 . S
C853 C854 1.399 . S
C854 H840 0.929 . S
C854 C853 1.399 . S
C854 C855 1.385 . S
C855 H841 0.931 . S
C855 C854 1.385 . S
C855 C856 1.389 . S
C856 C855 1.389 . S
C856 C857 1.387 . S
C857 H842 0.930 . S
C857 C852 1.390 . S
C857 C856 1.387 . S
H858 C870 0.930 . S
H859 C872 0.930 . S
H860 C873 0.930 . S
H861 C877 0.959 . S
H862 C877 0.959 . S
H863 C877 0.961 . S
H864 C878 0.960 . S
H865 C878 0.961 . S
H866 C878 0.959 . S
H867 C881 0.929 . S
H868 C882 0.931 . S
H869 C884 0.930 . S
C870 H858 0.930 . S
C870 C871 1.399 . S
C870 C875 1.399 . S
C871 C870 1.399 . S
C871 C872 1.376 . S
C872 H859 0.930 . S
C872 C871 1.376 . S
C872 C873 1.388 . S
C873 H860 0.930 . S
C873 C872 1.388 . S
C873 C874 1.390 . S
C874 C873 1.390 . S
C874 C875 1.394 . S
C874 C880 1.465 . S
C875 C870 1.399 . S
C875 C874 1.394 . S
C875 C876 1.516 . S
C876 C875 1.516 . S
C876 C877 1.502 . S
C876 C878 1.561 . S
C876 C879 1.526 . S
C877 H861 0.959 . S
C877 H862 0.959 . S
C877 H863 0.961 . S
C877 C876 1.502 . S
C878 H864 0.960 . S
C878 H865 0.961 . S
C878 H866 0.959 . S
C878 C876 1.561 . S
C879 C876 1.526 . S
C879 C880 1.396 . S
C879 C884 1.390 . S
C880 C874 1.465 . S
C880 C879 1.396 . S
C880 C881 1.399 . S
C881 H867 0.929 . S
C881 C880 1.399 . S
C881 C882 1.385 . S
C882 H868 0.931 . S
C882 C881 1.385 . S
C882 C883 1.389 . S
C883 C882 1.389 . S
C883 C884 1.387 . S
C884 H869 0.930 . S
C884 C879 1.390 . S
C884 C883 1.387 . S
H885 C897 0.930 . S
H886 C899 0.930 . S
H887 C900 0.930 . S
H888 C904 0.959 . S
H889 C904 0.959 . S
H890 C904 0.961 . S
H891 C905 0.960 . S
H892 C905 0.961 . S
H893 C905 0.959 . S
H894 C908 0.929 . S
H895 C909 0.931 . S
H896 C911 0.930 . S
C897 H885 0.930 . S
C897 C898 1.399 . S
C897 C902 1.399 . S
C898 C897 1.399 . S
C898 C899 1.376 . S
C899 H886 0.930 . S
C899 C898 1.376 . S
C899 C900 1.388 . S
C900 H887 0.930 . S
C900 C899 1.388 . S
C900 C901 1.390 . S
C901 C900 1.390 . S
C901 C902 1.394 . S
C901 C907 1.465 . S
C902 C897 1.399 . S
C902 C901 1.394 . S
C902 C903 1.516 . S
C903 C902 1.516 . S
C903 C904 1.502 . S
C903 C905 1.561 . S
C903 C906 1.526 . S
C904 H888 0.959 . S
C904 H889 0.959 . S
C904 H890 0.961 . S
C904 C903 1.502 . S
C905 H891 0.960 . S
C905 H892 0.961 . S
C905 H893 0.959 . S
C905 C903 1.561 . S
C906 C903 1.526 . S
C906 C907 1.396 . S
C906 C911 1.390 . S
C907 C901 1.465 . S
C907 C906 1.396 . S
C907 C908 1.399 . S
C908 H894 0.929 . S
C908 C907 1.399 . S
C908 C909 1.385 . S
C909 H895 0.931 . S
C909 C908 1.385 . S
C909 C910 1.389 . S
C910 C909 1.389 . S
C910 C911 1.387 . S
C911 H896 0.930 . S
C911 C906 1.390 . S
C911 C910 1.387 . S
H912 C924 0.930 . S
H913 C926 0.930 . S
H914 C927 0.930 . S
H915 C931 0.959 . S
H916 C931 0.959 . S
H917 C931 0.961 . S
H918 C932 0.960 . S
H919 C932 0.961 . S
H920 C932 0.959 . S
H921 C935 0.929 . S
H922 C936 0.931 . S
H923 C938 0.930 . S
C924 H912 0.930 . S
C924 C925 1.399 . S
C924 C929 1.399 . S
C925 C924 1.399 . S
C925 C926 1.376 . S
C926 H913 0.930 . S
C926 C925 1.376 . S
C926 C927 1.388 . S
C927 H914 0.930 . S
C927 C926 1.388 . S
C927 C928 1.390 . S
C928 C927 1.390 . S
C928 C929 1.394 . S
C928 C934 1.465 . S
C929 C924 1.399 . S
C929 C928 1.394 . S
C929 C930 1.516 . S
C930 C929 1.516 . S
C930 C931 1.502 . S
C930 C932 1.561 . S
C930 C933 1.526 . S
C931 H915 0.959 . S
C931 H916 0.959 . S
C931 H917 0.961 . S
C931 C930 1.502 . S
C932 H918 0.960 . S
C932 H919 0.961 . S
C932 H920 0.959 . S
C932 C930 1.561 . S
C933 C930 1.526 . S
C933 C934 1.396 . S
C933 C938 1.390 . S
C934 C928 1.465 . S
C934 C933 1.396 . S
C934 C935 1.399 . S
C935 H921 0.929 . S
C935 C934 1.399 . S
C935 C936 1.385 . S
C936 H922 0.931 . S
C936 C935 1.385 . S
C936 C937 1.389 . S
C937 C936 1.389 . S
C937 C938 1.387 . S
C938 H923 0.930 . S
C938 C933 1.390 . S
C938 C937 1.387 . S
H939 C951 0.930 . S
H940 C953 0.930 . S
H941 C954 0.930 . S
H942 C958 0.959 . S
H943 C958 0.959 . S
H944 C958 0.961 . S
H945 C959 0.960 . S
H946 C959 0.961 . S
H947 C959 0.959 . S
H948 C962 0.929 . S
H949 C963 0.931 . S
H950 C965 0.930 . S
C951 H939 0.930 . S
C951 C952 1.399 . S
C951 C956 1.399 . S
C952 C951 1.399 . S
C952 C953 1.376 . S
C953 H940 0.930 . S
C953 C952 1.376 . S
C953 C954 1.388 . S
C954 H941 0.930 . S
C954 C953 1.388 . S
C954 C955 1.390 . S
C955 C954 1.390 . S
C955 C956 1.394 . S
C955 C961 1.465 . S
C956 C951 1.399 . S
C956 C955 1.394 . S
C956 C957 1.516 . S
C957 C956 1.516 . S
C957 C958 1.502 . S
C957 C959 1.561 . S
C957 C960 1.526 . S
C958 H942 0.959 . S
C958 H943 0.959 . S
C958 H944 0.961 . S
C958 C957 1.502 . S
C959 H945 0.960 . S
C959 H946 0.961 . S
C959 H947 0.959 . S
C959 C957 1.561 . S
C960 C957 1.526 . S
C960 C961 1.396 . S
C960 C965 1.390 . S
C961 C955 1.465 . S
C961 C960 1.396 . S
C961 C962 1.399 . S
C962 H948 0.929 . S
C962 C961 1.399 . S
C962 C963 1.385 . S
C963 H949 0.931 . S
C963 C962 1.385 . S
C963 C964 1.389 . S
C964 C963 1.389 . S
C964 C965 1.387 . S
C965 H950 0.930 . S
C965 C960 1.390 . S
C965 C964 1.387 . S
H966 C978 0.930 . S
H967 C980 0.930 . S
H968 C981 0.930 . S
H969 C985 0.959 . S
H970 C985 0.959 . S
H971 C985 0.961 . S
H972 C986 0.960 . S
H973 C986 0.961 . S
H974 C986 0.959 . S
H975 C989 0.929 . S
H976 C990 0.931 . S
H977 C992 0.930 . S
C978 H966 0.930 . S
C978 C979 1.399 . S
C978 C983 1.399 . S
C979 C978 1.399 . S
C979 C980 1.376 . S
C980 H967 0.930 . S
C980 C979 1.376 . S
C980 C981 1.388 . S
C981 H968 0.930 . S
C981 C980 1.388 . S
C981 C982 1.390 . S
C982 C981 1.390 . S
C982 C983 1.394 . S
C982 C988 1.465 . S
C983 C978 1.399 . S
C983 C982 1.394 . S
C983 C984 1.516 . S
C984 C983 1.516 . S
C984 C985 1.502 . S
C984 C986 1.561 . S
C984 C987 1.526 . S
C985 H969 0.959 . S
C985 H970 0.959 . S
C985 H971 0.961 . S
C985 C984 1.502 . S
C986 H972 0.960 . S
C986 H973 0.961 . S
C986 H974 0.959 . S
C986 C984 1.561 . S
C987 C984 1.526 . S
C987 C988 1.396 . S
C987 C992 1.390 . S
C988 C982 1.465 . S
C988 C987 1.396 . S
C988 C989 1.399 . S
C989 H975 0.929 . S
C989 C988 1.399 . S
C989 C990 1.385 . S
C990 H976 0.931 . S
C990 C989 1.385 . S
C990 C991 1.389 . S
C991 C990 1.389 . S
C991 C992 1.387 . S
C992 H977 0.930 . S
C992 C987 1.390 . S
C992 C991 1.387 . S
H993 C1005 0.930 . S
H994 C1007 0.930 . S
H995 C1008 0.930 . S
H996 C1012 0.959 . S
H997 C1012 0.959 . S
H998 C1012 0.961 . S
H999 C1013 0.960 . S
H1000 C1013 0.961 . S
H1001 C1013 0.959 . S
H1002 C1016 0.929 . S
H1003 C1017 0.931 . S
H1004 C1019 0.930 . S
C1005 H993 0.930 . S
C1005 C1006 1.399 . S
C1005 C1010 1.399 . S
C1006 C1005 1.399 . S
C1006 C1007 1.376 . S
C1007 H994 0.930 . S
C1007 C1006 1.376 . S
C1007 C1008 1.388 . S
C1008 H995 0.930 . S
C1008 C1007 1.388 . S
C1008 C1009 1.390 . S
C1009 C1008 1.390 . S
C1009 C1010 1.394 . S
C1009 C1015 1.465 . S
C1010 C1005 1.399 . S
C1010 C1009 1.394 . S
C1010 C1011 1.516 . S
C1011 C1010 1.516 . S
C1011 C1012 1.502 . S
C1011 C1013 1.561 . S
C1011 C1014 1.526 . S
C1012 H996 0.959 . S
C1012 H997 0.959 . S
C1012 H998 0.961 . S
C1012 C1011 1.502 . S
C1013 H999 0.960 . S
C1013 H1000 0.961 . S
C1013 H1001 0.959 . S
C1013 C1011 1.561 . S
C1014 C1011 1.526 . S
C1014 C1015 1.396 . S
C1014 C1019 1.390 . S
C1015 C1009 1.465 . S
C1015 C1014 1.396 . S
C1015 C1016 1.399 . S
C1016 H1002 0.929 . S
C1016 C1015 1.399 . S
C1016 C1017 1.385 . S
C1017 H1003 0.931 . S
C1017 C1016 1.385 . S
C1017 C1018 1.389 . S
C1018 C1017 1.389 . S
C1018 C1019 1.387 . S
C1019 H1004 0.930 . S
C1019 C1014 1.390 . S
C1019 C1018 1.387 . S
C385 C247 1.433 . S
C397 C304 1.412 . S
C424 C312 1.345 . S
C412 C283 1.374 . S
C451 C316 1.376 . S
C439 C175 1.408 . S
C466 C211 1.418 . S
C478 C292 1.391 . S
C505 C333 1.403 . S
C493 C103 1.436 . S
C532 C367 1.324 . S
C520 C139 1.407 . S
C547 C31 1.423 . S
C559 C355 1.393 . S
C574 C67 1.395 . S
C586 C337 1.395 . S
C613 C291 1.334 . S
C601 C37 1.460 . S
C640 C325 1.254 . S
C628 C1 1.436 . S
C667 C329 1.349 . S
C655 C109 1.498 . S
C694 C307 1.234 . S
C682 C73 1.441 . S
C721 C346 1.297 . S
C709 C181 1.459 . S
C736 C145 1.456 . S
C748 C354 1.274 . S
C775 C370 1.289 . S
C763 C253 1.461 . S
C790 C217 1.432 . S
C802 C350 1.335 . S
C829 C295 1.358 . S
C817 C25 1.490 . S
C856 C313 1.311 . S
C844 C61 1.490 . S
C871 C97 1.475 . S
C883 C328 1.302 . S
C910 C308 1.367 . S
C898 C133 1.476 . S
C937 C334 1.284 . S
C925 C169 1.501 . S
C952 C205 1.495 . S
C964 C358 1.361 . S
C979 C241 1.459 . S
C991 C371 1.246 . S
C1006 C277 1.488 . S
C1018 C349 1.323 . S
