# Generated by pormake.
# Topology zzz, (3,6)-cn, num edge types: 1
# Building blocks:
#     Node 0, Type 0, BuildingBlock: CUQRIR_clean_linker_1, # of connection points: 3
#     Node 1, Type 0, BuildingBlock: CUQRIR_clean_linker_1, # of connection points: 3
#     Node 2, Type 0, BuildingBlock: CUQRIR_clean_linker_1, # of connection points: 3
#     Node 3, Type 0, BuildingBlock: CUQRIR_clean_linker_1, # of connection points: 3
#     Node 4, Type 0, BuildingBlock: CUQRIR_clean_linker_1, # of connection points: 3
#     Node 5, Type 0, BuildingBlock: CUQRIR_clean_linker_1, # of connection points: 3
#     Node 6, Type 0, BuildingBlock: CUQRIR_clean_linker_1, # of connection points: 3
#     Node 7, Type 0, BuildingBlock: CUQRIR_clean_linker_1, # of connection points: 3
#     Node 8, Type 1, BuildingBlock: BETFEN_clean_sbu_0, # of connection points: 6
#     Node 9, Type 1, BuildingBlock: BETFEN_clean_sbu_0, # of connection points: 6
#     Node 10, Type 1, BuildingBlock: BETFEN_clean_sbu_0, # of connection points: 6
#     Node 11, Type 1, BuildingBlock: BETFEN_clean_sbu_0, # of connection points: 6
#     Edge 12, Type (0, 1), BuildingBlock: ZUJKAS_clean_linker_0, # of connection points: 2
#     Edge 13, Type (0, 1), BuildingBlock: ZUJKAS_clean_linker_0, # of connection points: 2
#     Edge 14, Type (0, 1), BuildingBlock: ZUJKAS_clean_linker_0, # of connection points: 2
#     Edge 15, Type (0, 1), BuildingBlock: ZUJKAS_clean_linker_0, # of connection points: 2
#     Edge 16, Type (0, 1), BuildingBlock: ZUJKAS_clean_linker_0, # of connection points: 2
#     Edge 17, Type (0, 1), BuildingBlock: ZUJKAS_clean_linker_0, # of connection points: 2
#     Edge 18, Type (0, 1), BuildingBlock: ZUJKAS_clean_linker_0, # of connection points: 2
#     Edge 19, Type (0, 1), BuildingBlock: ZUJKAS_clean_linker_0, # of connection points: 2
#     Edge 20, Type (0, 1), BuildingBlock: ZUJKAS_clean_linker_0, # of connection points: 2
#     Edge 21, Type (0, 1), BuildingBlock: ZUJKAS_clean_linker_0, # of connection points: 2
#     Edge 22, Type (0, 1), BuildingBlock: ZUJKAS_clean_linker_0, # of connection points: 2
#     Edge 23, Type (0, 1), BuildingBlock: ZUJKAS_clean_linker_0, # of connection points: 2
#     Edge 24, Type (0, 1), BuildingBlock: ZUJKAS_clean_linker_0, # of connection points: 2
#     Edge 25, Type (0, 1), BuildingBlock: ZUJKAS_clean_linker_0, # of connection points: 2
#     Edge 26, Type (0, 1), BuildingBlock: ZUJKAS_clean_linker_0, # of connection points: 2
#     Edge 27, Type (0, 1), BuildingBlock: ZUJKAS_clean_linker_0, # of connection points: 2
#     Edge 28, Type (0, 1), BuildingBlock: ZUJKAS_clean_linker_0, # of connection points: 2
#     Edge 29, Type (0, 1), BuildingBlock: ZUJKAS_clean_linker_0, # of connection points: 2
#     Edge 30, Type (0, 1), BuildingBlock: ZUJKAS_clean_linker_0, # of connection points: 2
#     Edge 31, Type (0, 1), BuildingBlock: ZUJKAS_clean_linker_0, # of connection points: 2
#     Edge 32, Type (0, 1), BuildingBlock: ZUJKAS_clean_linker_0, # of connection points: 2
#     Edge 33, Type (0, 1), BuildingBlock: ZUJKAS_clean_linker_0, # of connection points: 2
#     Edge 34, Type (0, 1), BuildingBlock: ZUJKAS_clean_linker_0, # of connection points: 2
#     Edge 35, Type (0, 1), BuildingBlock: ZUJKAS_clean_linker_0, # of connection points: 2
# Relax obj value: 0.250
# Max RMSD: 0.179
# Mean RMSD: 0.158
data_MOF--net-zzz--node1-BETFEN_clean_sbu_0--node2-CUQRIR_clean_linker_1--edge1-ZUJKAS_clean_linker_0
_symmetry_space_group_name_H-M    P1
_symmetry_Int_Tables_number       1
_symmetry_cell_setting            triclinic
loop_
_symmetry_equiv_pos_as_xyz
'x, y, z'
_cell_length_a     64.602732
_cell_length_b     64.610418
_cell_length_c     15.861279
_cell_angle_alpha  90.201154
_cell_angle_beta   89.897998
_cell_angle_gamma 90.070964
loop_
_atom_site_label
_atom_site_type_symbol
_atom_site_fract_x
_atom_site_fract_y
_atom_site_fract_z
_atom_type_partial_charge
C0 C 0.74332 0.51521 0.36088 0.0
N1 N 0.76415 0.51809 0.36185 0.0
N2 N 0.73565 0.51809 0.28169 0.0
C3 C 0.73071 0.50847 0.43535 0.0
C4 C 0.75268 0.52274 0.23517 0.0
N5 N 0.76976 0.52285 0.2838 0.0
C6 C 0.75273 0.52735 0.14236 0.0
H7 H 0.71817 0.49782 0.41506 0.0
H8 H 0.72345 0.5223 0.46456 0.0
H9 H 0.74055 0.50082 0.48326 0.0
H10 H 0.73801 0.53477 0.12314 0.0
H11 H 0.75452 0.51264 0.10678 0.0
H12 H 0.76591 0.53761 0.12581 0.0
C13 C 1.01492 0.73754 0.35514 0.0
N14 N 1.01018 0.75798 0.36159 0.0
N15 N 1.00868 0.72971 0.27913 0.0
C16 C 0.02565 0.72537 0.42234 0.0
C17 C 1.0003 0.74635 0.23975 0.0
N18 N 1.00101 0.76323 0.29007 0.0
C19 C 0.99244 0.74642 0.15052 0.0
H20 H 0.04259 0.72603 0.4111 0.0
H21 H 0.0207 0.70892 0.42041 0.0
H22 H 0.02243 0.73206 0.48554 0.0
H23 H 0.9761 0.74113 0.15022 0.0
H24 H 1.00164 0.73571 0.1105 0.0
H25 H 0.99298 0.76217 0.12302 0.0
C26 C 0.78519 1.01437 0.34215 0.0
N27 N 0.76777 0.02582 0.35392 0.0
N28 N 0.79923 0.02492 0.29459 0.0
C29 C 0.78851 0.99308 0.37681 0.0
C30 C 0.7895 0.04295 0.27692 0.0
N31 N 0.77059 0.04355 0.31336 0.0
C32 C 0.79777 0.05911 0.21751 0.0
H33 H 0.78014 0.9912 0.43747 0.0
H34 H 0.80525 0.99001 0.3858 0.0
H35 H 0.7823 0.98158 0.3313 0.0
H36 H 0.8052 0.05161 0.16216 0.0
H37 H 0.80976 0.06836 0.25059 0.0
H38 H 0.78548 0.06977 0.19559 0.0
C39 C 0.50514 0.78563 0.36566 0.0
N40 N 0.49522 0.76717 0.37403 0.0
N41 N 0.49511 0.79794 0.3094 0.0
C42 C 0.52425 0.7918 0.41305 0.0
C43 C 0.479 0.78614 0.28308 0.0
N44 N 0.47905 0.76763 0.32236 0.0
C45 C 0.46435 0.79201 0.21345 0.0
H46 H 0.52466 0.7842 0.47566 0.0
H47 H 0.52498 0.80885 0.42094 0.0
H48 H 0.53804 0.78675 0.37665 0.0
H49 H 0.47236 0.80152 0.16525 0.0
H50 H 0.45156 0.80136 0.24062 0.0
H51 H 0.45755 0.77815 0.18258 0.0
C52 C 0.28453 0.52339 0.07331 0.0
N53 N 0.26744 0.53423 0.05067 0.0
N54 N 0.29741 0.53529 0.12102 0.0
C55 C 0.28848 0.50125 0.04979 0.0
C56 C 0.28723 0.55357 0.12774 0.0
N57 N 0.26919 0.55299 0.08452 0.0
C58 C 0.2941 0.57131 0.18276 0.0
H59 H 0.30534 0.49805 0.04733 0.0
H60 H 0.28131 0.49754 0.98801 0.0
H61 H 0.28138 0.4911 0.0982 0.0
H62 H 0.3071 0.57947 0.15143 0.0
H63 H 0.2998 0.56541 0.2441 0.0
H64 H 0.28149 0.58263 0.19392 0.0
C65 C 0.01732 0.2836 0.04804 0.0
N66 N 0.02581 0.26435 0.04604 0.0
N67 N 0.02761 0.29608 0.10331 0.0
C68 C 0.99851 0.28988 -0.00066 0.0
C69 C 0.04246 0.28358 0.13538 0.0
N70 N 0.04132 0.26438 0.10113 0.0
C71 C 0.0573 0.28994 0.20387 0.0
H72 H 0.99812 0.30691 0.9905 0.0
H73 H 0.98451 0.28516 0.03508 0.0
H74 H 0.99819 0.28194 0.93719 0.0
H75 H 0.04859 0.29218 0.26358 0.0
H76 H 0.06473 0.30488 0.18789 0.0
H77 H 0.06962 0.27824 0.21344 0.0
C78 C 0.24299 1.00871 0.07878 0.0
N79 N 0.26009 0.99711 0.06302 0.0
N80 N 0.22805 0.99716 0.11676 0.0
C81 C 0.24149 0.03154 0.06333 0.0
C82 C 0.2368 0.97822 0.12406 0.0
N83 N 0.2562 0.97817 0.09166 0.0
C84 C 0.22677 0.96016 0.16773 0.0
H85 H 0.24985 0.03986 0.11429 0.0
H86 H 0.22511 0.0367 0.06307 0.0
H87 H 0.24897 0.03556 0.00254 0.0
H88 H 0.21021 0.95904 0.15009 0.0
H89 H 0.22756 0.96265 0.23692 0.0
H90 H 0.2346 0.94539 0.15159 0.0
C91 C 0.52164 0.24155 0.06875 0.0
N92 N 0.53258 0.25943 0.06247 0.0
N93 N 0.53267 0.22691 0.11071 0.0
C94 C 0.49975 0.23887 0.03944 0.0
C95 C 0.5506 0.2367 0.13027 0.0
N96 N 0.55051 0.25643 0.10163 0.0
C97 C 0.56751 0.22739 0.1832 0.0
H98 H 0.496 0.22225 0.03028 0.0
H99 H 0.49723 0.24744 0.97981 0.0
H100 H 0.48916 0.24539 0.08787 0.0
H101 H 0.5816 0.23721 0.18397 0.0
H102 H 0.57177 0.21192 0.15835 0.0
H103 H 0.56175 0.22531 0.2486 0.0
Pr104 Pr 0.02481 1.00684 0.79695 0.0
Pr105 Pr 1.00154 1.01326 0.61178 0.0
C106 C 0.03251 1.0058 0.9635 0.0
C107 C 0.02633 0.99596 0.04253 0.0
C108 C 0.03996 0.99644 0.11117 0.0
C109 C 0.03598 0.98436 0.18219 0.0
C110 C 0.01819 0.97189 0.18538 0.0
C111 C 1.00371 0.97286 0.11952 0.0
C112 C 1.00786 0.98467 0.04801 0.0
C113 C 0.05394 1.01391 0.66717 0.0
C114 C 1.0126 0.96492 0.68006 0.0
C115 C 0.99594 0.01752 0.44473 0.0
C116 C 1.00548 0.03004 0.37721 0.0
C117 C 0.99484 0.04733 0.34625 0.0
C118 C 1.00503 0.06176 0.29592 0.0
C119 C 0.02607 0.05919 0.27588 0.0
C120 C 0.03618 0.04096 0.30014 0.0
C121 C 0.02583 0.02631 0.34928 0.0
C122 C 0.97226 1.00635 0.74126 0.0
C123 C 1.0142 0.05516 0.72755 0.0
O124 O 0.01921 0.01854 0.92928 0.0
O125 O 0.04213 0.99398 0.90865 0.0
O126 O 0.0345 1.01338 0.66168 0.0
O127 O 0.05912 1.01084 0.74521 0.0
O128 O 1.00774 0.97741 0.61683 0.0
O129 O 0.01754 0.97203 0.75651 0.0
O130 O 1.00725 1.00277 0.47757 0.0
O131 O 0.9852 0.02783 0.50121 0.0
O132 O 0.99171 1.00688 0.7475 0.0
O133 O 0.96723 1.00898 0.66264 0.0
O134 O 0.01997 0.04287 0.78991 0.0
O135 O 1.00804 0.04801 0.65299 0.0
H136 H 0.05425 1.0052 0.10782 0.0
H137 H 0.04742 0.98367 0.23201 0.0
H138 H 0.9901 0.96304 0.1199 0.0
H139 H 0.99729 0.98399 0.99523 0.0
H140 H 0.979 0.05035 0.36517 0.0
H141 H 0.99685 0.07571 0.27822 0.0
H142 H 0.05232 0.03851 0.28426 0.0
H143 H 0.03412 1.0126 0.36854 0.0
Pr144 Pr 0.5175 0.02417 0.77969 0.0
Pr145 Pr 0.50994 0.99943 0.63377 0.0
C146 C 0.5297 0.04255 0.92426 0.0
C147 C 0.54799 0.05251 0.9617 0.0
C148 C 0.54574 0.07119 0.00631 0.0
C149 C 0.56278 0.08026 0.04636 0.0
C150 C 0.58219 0.07056 0.04305 0.0
C151 C 0.5845 0.05217 0.99651 0.0
C152 C 0.56758 0.04327 0.95575 0.0
C153 C 0.50852 0.04865 0.63824 0.0
C154 C 0.55804 1.01182 0.65992 0.0
C155 C 0.49773 0.98083 0.48961 0.0
C156 C 0.48008 0.96899 0.45666 0.0
C157 C 0.48335 0.95376 0.39492 0.0
C158 C 0.46654 0.94336 0.35886 0.0
C159 C 0.44618 0.94812 0.38386 0.0
C160 C 0.44311 0.96296 0.44795 0.0
C161 C 0.4599 0.97321 0.48428 0.0
C162 C 0.51851 0.97514 0.77625 0.0
C163 C 0.46928 1.01188 0.7539 0.0
O164 O 0.5307 0.02259 0.911 0.0
O165 O 0.5204 0.05252 0.8638 0.0
O166 O 0.52078 0.03342 0.63836 0.0
O167 O 0.49983 0.05099 0.71142 0.0
O168 O 0.54413 1.00803 0.60146 0.0
O169 O 0.55195 0.01572 0.738 0.0
O170 O 0.49444 1.00038 0.50649 0.0
O171 O 0.5092 0.97166 0.54584 0.0
O172 O 0.50628 0.99036 0.77476 0.0
O173 O 0.52737 0.97258 0.70356 0.0
O174 O 0.48315 0.01642 0.81161 0.0
O175 O 0.47536 1.00723 0.67643 0.0
H176 H 0.53073 0.07857 0.01134 0.0
H177 H 0.56068 0.09444 0.08199 0.0
H178 H 0.59942 0.04459 0.99218 0.0
H179 H 0.56978 0.029 0.92081 0.0
H180 H 0.49888 0.9502 0.37341 0.0
H181 H 0.46948 0.93184 0.31054 0.0
H182 H 0.42769 0.96734 0.46789 0.0
H183 H 0.45706 0.98483 0.5323 0.0
Pr184 Pr 0.50065 0.51813 0.80341 0.0
Pr185 Pr 0.52277 0.51103 0.65073 0.0
C186 C 0.48443 0.52958 0.9533 0.0
C187 C 0.46979 0.54477 0.98687 0.0
C188 C 0.46914 0.54852 0.07374 0.0
C189 C 0.45656 0.5642 0.10618 0.0
C190 C 0.44443 0.57638 0.05201 0.0
C191 C 0.44441 0.57184 0.96513 0.0
C192 C 0.45707 0.55619 0.93275 0.0
C193 C 0.47358 0.51065 0.66706 0.0
C194 C 0.51049 0.55881 0.68371 0.0
C195 C 0.53837 0.49983 0.49956 0.0
C196 C 0.55263 0.48464 0.4629 0.0
C197 C 0.56879 0.47615 0.51046 0.0
C198 C 0.58105 0.46037 0.4765 0.0
C199 C 0.57716 0.45269 0.39485 0.0
C200 C 0.56147 0.46195 0.34644 0.0
C201 C 0.54935 0.4778 0.38023 0.0
C202 C 0.54992 0.51905 0.78587 0.0
C203 C 0.51321 0.47022 0.77218 0.0
O204 O 0.50186 0.53695 0.92397 0.0
O205 O 0.47662 0.51496 0.90614 0.0
O206 O 0.48919 0.52236 0.66512 0.0
O207 O 0.47178 0.50206 0.74033 0.0
O208 O 0.51211 0.54492 0.62332 0.0
O209 O 0.50904 0.55261 0.76276 0.0
O210 O 0.52095 0.49254 0.52943 0.0
O211 O 0.54652 0.51424 0.54698 0.0
O212 O 0.53438 0.50719 0.7892 0.0
O213 O 0.55166 0.52723 0.71176 0.0
O214 O 0.51048 0.48414 0.8318 0.0
O215 O 0.51572 0.47635 0.69335 0.0
H216 H 0.47889 0.53979 0.11622 0.0
H217 H 0.45724 0.56747 0.17313 0.0
H218 H 0.43509 0.5808 0.9219 0.0
H219 H 0.45736 0.55337 0.86536 0.0
H220 H 0.57155 0.4813 0.57455 0.0
H221 H 0.59312 0.45372 0.51514 0.0
H222 H 0.55773 0.45622 0.28406 0.0
H223 H 0.53691 0.4842 0.34279 0.0
Pr224 Pr 1.01251 0.5023 0.77949 0.0
Pr225 Pr 0.02179 0.52362 0.59156 0.0
C226 C 1.00932 0.49761 0.94708 0.0
C227 C 0.99776 0.48778 0.01518 0.0
C228 C 1.00483 0.48999 0.09819 0.0
C229 C 0.99192 0.48485 0.16564 0.0
C230 C 0.97175 0.4776 0.15046 0.0
C231 C 0.96563 0.47343 0.06684 0.0
C232 C 0.97855 0.47855 -0.00042 0.0
C233 C 1.01334 0.47211 0.64986 0.0
C234 C 0.97254 0.51234 0.65347 0.0
C235 C 0.03004 0.53068 0.42819 0.0
C236 C 0.04407 0.54479 0.38372 0.0
C237 C 0.05429 0.56048 0.42854 0.0
C238 C 0.06949 0.5724 0.38921 0.0
C239 C 0.07484 0.56873 0.30448 0.0
C240 C 0.06381 0.55366 0.25857 0.0
C241 C 0.04855 0.54172 0.29812 0.0
C242 C 0.02028 0.55379 0.72159 0.0
C243 C 0.06168 0.51261 0.71837 0.0
O244 O 0.99955 0.51209 0.90508 0.0
O245 O 0.02101 0.48571 0.89993 0.0
O246 O 0.01623 0.49136 0.64366 0.0
O247 O 1.00957 0.46775 0.7286 0.0
O248 O 0.98584 0.51596 0.59084 0.0
O249 O 0.9786 0.50897 0.73239 0.0
O250 O 0.03916 0.51607 0.4717 0.0
O251 O 1.01455 0.53942 0.46833 0.0
O252 O 0.01822 0.53446 0.72715 0.0
O253 O 0.02309 0.55837 0.6426 0.0
O254 O 0.04833 0.50785 0.77858 0.0
O255 O 0.05585 0.51781 0.64102 0.0
H256 H 0.01976 0.49699 0.1109 0.0
H257 H 0.99711 0.48801 0.22932 0.0
H258 H 0.95012 0.46808 0.05269 0.0
H259 H 0.97296 0.47671 0.9356 0.0
H260 H 0.05102 0.56304 0.49479 0.0
H261 H 0.07757 0.58404 0.4259 0.0
H262 H 0.06773 0.55034 0.19349 0.0
H263 H 0.04081 0.5296 0.26279 0.0
H264 H 0.18937 0.98824 0.06496 0.0
H265 H 0.15696 0.99481 0.14224 0.0
H266 H 0.1916 0.02581 0.33793 0.0
H267 H 0.22378 0.01964 0.25896 0.0
H268 H 0.14594 0.98041 0.29074 0.0
H269 H 0.14484 0.0657 0.31371 0.0
H270 H 0.16216 0.05212 0.24344 0.0
H271 H 0.16862 0.05532 0.35321 0.0
C272 C 0.18984 0.99696 0.12335 0.0
C273 C 0.20891 1.00376 0.15557 0.0
C274 C 0.17139 1.00061 0.16784 0.0
C275 C 0.17162 1.01111 0.24576 0.0
C276 C 0.19075 0.01822 0.27707 0.0
H277 H 0.09412 0.02549 0.67997 0.0
H278 H 0.12068 0.02574 0.56989 0.0
C279 C 0.20918 1.01469 0.23217 0.0
C280 C 0.1522 1.01312 0.29723 0.0
H281 H 0.12313 0.04744 0.41211 0.0
C282 C 0.1408 0.99514 0.31607 0.0
C283 C 0.14528 0.03232 0.33044 0.0
C284 C 0.15575 0.05247 0.30842 0.0
C285 C 0.1234 0.99567 0.36982 0.0
C286 C 0.11701 1.01473 0.40563 0.0
C287 C 0.12802 0.03281 0.38499 0.0
C288 C 0.10011 0.01593 0.47 0.0
C289 C 0.11249 0.97568 0.39081 0.0
C290 C 0.07947 1.01072 0.45057 0.0
C291 C 0.06417 1.01067 0.51388 0.0
C292 C 0.06921 0.01583 0.59742 0.0
C293 C 0.08972 0.02148 0.61608 0.0
C294 C 0.10494 0.02167 0.55311 0.0
H295 H 0.12142 0.96191 0.36969 0.0
H296 H 0.10978 0.9745 0.45979 0.0
H297 H 0.0972 0.97534 0.35908 0.0
H298 H 0.07528 1.00639 0.38682 0.0
H299 H 0.04861 1.00584 0.49856 0.0
H300 H 0.54846 0.18913 0.07752 0.0
H301 H 0.54194 0.15721 0.15674 0.0
H302 H 0.49522 0.18876 0.30306 0.0
H303 H 0.50233 0.22084 0.22508 0.0
H304 H 0.52262 0.1693 0.4028 0.0
H305 H 0.49712 0.11396 0.15653 0.0
H306 H 0.52153 0.12587 0.1329 0.0
H307 H 0.49849 0.14148 0.13811 0.0
C308 C 0.53649 0.18903 0.12537 0.0
C309 C 0.52581 0.20735 0.145 0.0
C310 C 0.53266 0.17076 0.17041 0.0
C311 C 0.51789 0.17036 0.23564 0.0
C312 C 0.50661 0.18854 0.2529 0.0
H313 H 0.4843 0.08317 0.63333 0.0
H314 H 0.48597 0.11193 0.53366 0.0
C315 C 0.51051 0.20683 0.20792 0.0
C316 C 0.51558 0.15173 0.2909 0.0
H317 H 0.50605 0.09954 0.29008 0.0
C318 C 0.51879 0.1541 0.37804 0.0
C319 C 0.51089 0.13174 0.25894 0.0
C320 C 0.50662 0.12809 0.1666 0.0
C321 C 0.51771 0.13719 0.4336 0.0
C322 C 0.51283 0.11724 0.40189 0.0
C323 C 0.50973 0.11478 0.31468 0.0
C324 C 0.51077 0.09887 0.45864 0.0
C325 C 0.52242 0.1408 0.52568 0.0
C326 C 0.52348 0.08138 0.44789 0.0
C327 C 0.5224 0.06474 0.50461 0.0
C328 C 0.50853 0.06522 0.57316 0.0
C329 C 0.4953 0.08237 0.58178 0.0
C330 C 0.49633 0.09892 0.52503 0.0
H331 H 0.53153 0.15521 0.53549 0.0
H332 H 0.50767 0.14243 0.56102 0.0
H333 H 0.53116 0.12763 0.55275 0.0
H334 H 0.53465 0.08085 0.3969 0.0
H335 H 0.53277 0.05174 0.49601 0.0
H336 H 0.33442 0.55435 0.10812 0.0
H337 H 0.36534 0.54813 0.19398 0.0
H338 H 0.33414 0.49756 0.31763 0.0
H339 H 0.30301 0.50418 0.2326 0.0
H340 H 0.35216 0.52491 0.43006 0.0
H341 H 0.40945 0.50347 0.1845 0.0
H342 H 0.39669 0.52763 0.16491 0.0
H343 H 0.38196 0.50397 0.16422 0.0
C344 C 0.33433 0.54174 0.15288 0.0
C345 C 0.3164 0.52967 0.16347 0.0
C346 C 0.35204 0.53808 0.20156 0.0
C347 C 0.35228 0.52218 0.26183 0.0
C348 C 0.33446 0.50982 0.27125 0.0
H349 H 0.43839 0.48713 0.664 0.0
H350 H 0.40945 0.48915 0.56494 0.0
C351 C 0.31674 0.51347 0.22229 0.0
C352 C 0.37051 0.51943 0.3189 0.0
H353 H 0.42278 0.51066 0.32146 0.0
C354 C 0.36756 0.5216 0.40628 0.0
C355 C 0.39072 0.51537 0.28816 0.0
C356 C 0.39493 0.51229 0.19538 0.0
C357 C 0.38419 0.52024 0.46336 0.0
C358 C 0.40441 0.51601 0.43279 0.0
C359 C 0.40736 0.51383 0.34531 0.0
C360 C 0.42263 0.51393 0.49053 0.0
C361 C 0.37998 0.52408 0.55573 0.0
C362 C 0.44026 0.52648 0.47999 0.0
C363 C 0.45702 0.52512 0.53604 0.0
C364 C 0.45654 0.51117 0.60396 0.0
C365 C 0.43918 0.4982 0.61293 0.0
C366 C 0.42251 0.49946 0.55659 0.0
H367 H 0.36552 0.53308 0.5654 0.0
H368 H 0.37808 0.50901 0.58822 0.0
H369 H 0.39296 0.53259 0.58591 0.0
H370 H 0.44089 0.53767 0.42934 0.0
H371 H 0.47017 0.5353 0.52716 0.0
H372 H 0.05078 0.33044 0.08361 0.0
H373 H 0.04674 0.36344 0.15959 0.0
H374 H 0.98981 0.34126 0.26895 0.0
H375 H 0.99405 0.30812 0.19317 0.0
H376 H 0.99178 0.38741 0.21389 0.0
H377 H 0.05495 0.36103 0.42589 0.0
H378 H 0.05988 0.35978 0.31429 0.0
H379 H 0.04056 0.3433 0.36005 0.0
C380 C 0.03716 0.33287 0.12227 0.0
C381 C 0.02273 0.31677 0.13258 0.0
C382 C 0.03488 0.35168 0.16587 0.0
C383 C 0.01805 0.35485 0.2207 0.0
C384 C 1.00289 0.33926 0.22691 0.0
H385 H 1.00822 0.4307 0.6656 0.0
H386 H 1.00884 0.40406 0.55642 0.0
C387 C 1.00524 0.32037 0.1834 0.0
C388 C 0.0175 0.37336 0.27783 0.0
H389 H 0.04103 0.39398 0.45209 0.0
C390 C 1.00258 0.38892 0.26579 0.0
C391 C 0.03153 0.37536 0.34584 0.0
C392 C 0.04759 0.35897 0.36315 0.0
C393 C 1.00133 0.40631 0.32012 0.0
C394 C 1.01535 0.40822 0.38849 0.0
C395 C 0.03031 0.39267 0.39979 0.0
C396 C 1.01399 0.42521 0.45311 0.0
C397 C 0.98465 0.42221 0.30534 0.0
C398 C 0.01668 0.44625 0.43221 0.0
C399 C 0.01636 0.4617 0.49536 0.0
C400 C 1.01341 0.45639 0.58058 0.0
C401 C 1.01057 0.4354 0.60079 0.0
C402 C 1.01092 0.42007 0.53818 0.0
H403 H 0.97256 0.41646 0.26133 0.0
H404 H 0.97715 0.42673 0.36569 0.0
H405 H 0.99169 0.4363 0.27745 0.0
H406 H 0.01941 0.4507 0.3674 0.0
H407 H 0.01856 0.47772 0.47762 0.0
H408 H 0.80717 0.99235 0.19168 0.0
H409 H 0.83951 0.98593 0.11364 0.0
H410 H 0.86822 0.03735 0.24247 0.0
H411 H 0.83585 0.04376 0.31934 0.0
H412 H 0.87243 0.04072 0.07467 0.0
H413 H 0.89577 0.9616 0.16799 0.0
H414 H 0.86957 0.96301 0.13089 0.0
H415 H 0.87676 0.97638 0.22613 0.0
C416 C 0.82065 1.00178 0.20505 0.0
C417 C 0.81912 0.01845 0.26185 0.0
C418 C 0.83914 0.99815 0.16046 0.0
C419 C 0.85652 1.01104 0.17234 0.0
C420 C 0.85516 0.02713 0.23199 0.0
H421 H 0.97846 1.0086 0.91344 0.0
H422 H 0.95174 1.00862 0.02489 0.0
C423 C 0.83671 0.03076 0.27619 0.0
C424 C 0.87528 1.00921 0.11704 0.0
H425 H 0.91255 0.97566 0.0458 0.0
C426 C 0.88129 0.02653 0.06934 0.0
C427 C 0.88705 0.99076 0.10982 0.0
C428 C 0.88212 0.97193 0.16202 0.0
C429 C 0.89818 0.02572 0.01322 0.0
C430 C 0.90945 1.00711 0.00381 0.0
C431 C 0.90389 0.98992 0.05291 0.0
C432 C 0.92603 1.00509 0.9387 0.0
C433 C 0.90373 0.04471 0.96294 0.0
C434 C 0.92054 1.00279 0.85371 0.0
C435 C 0.93571 1.00261 0.79063 0.0
C436 C 0.95682 1.00475 0.81078 0.0
C437 C 0.96241 1.00659 0.89615 0.0
C438 C 0.94714 1.00669 0.95971 0.0
H439 H 0.89552 0.05874 0.98606 0.0
H440 H 0.92068 0.04756 0.96561 0.0
H441 H 0.89952 0.04217 0.89588 0.0
H442 H 0.90439 1.00157 0.83596 0.0
H443 H 0.93083 1.00119 0.72557 0.0
H444 H 0.53046 0.80834 0.22836 0.0
H445 H 0.53707 0.84062 0.15063 0.0
H446 H 0.4783 0.86466 0.2349 0.0
H447 H 0.47189 0.8325 0.31275 0.0
H448 H 0.51132 0.85452 0.01972 0.0
H449 H 0.51659 0.91458 0.26977 0.0
H450 H 0.51968 0.88732 0.29147 0.0
H451 H 0.4943 0.89806 0.27683 0.0
C452 C 0.51933 0.82083 0.23225 0.0
C453 C 0.50077 0.81807 0.27706 0.0
C454 C 0.523 0.83919 0.18741 0.0
C455 C 0.50829 0.85525 0.18738 0.0
C456 C 0.4901 0.85277 0.23505 0.0
H457 H 0.49131 0.97054 0.90823 0.0
H458 H 0.48937 0.94176 0.00862 0.0
C459 C 0.4864 0.83438 0.27934 0.0
C460 C 0.51094 0.8736 0.13108 0.0
H461 H 0.51367 0.92652 0.12871 0.0
C462 C 0.51205 0.87025 0.04366 0.0
C463 C 0.51148 0.8942 0.16197 0.0
C464 C 0.51062 0.89884 0.25517 0.0
C465 C 0.51331 0.88681 0.98635 0.0
C466 C 0.51424 0.90744 0.01708 0.0
C467 C 0.5131 0.9108 0.10471 0.0
C468 C 0.51617 0.92565 0.95917 0.0
C469 C 0.5128 0.88193 0.89322 0.0
C470 C 0.53221 0.92668 0.89921 0.0
C471 C 0.53316 0.94296 0.84106 0.0
C472 C 0.51836 0.95889 0.84256 0.0
C473 C 0.50292 0.95847 0.90521 0.0
C474 C 0.50181 0.942 0.96271 0.0
H475 H 0.50552 0.86663 0.88068 0.0
H476 H 0.50413 0.89389 0.85772 0.0
H477 H 0.52887 0.88133 0.8686 0.0
H478 H 0.54394 0.91474 0.89662 0.0
H479 H 0.5454 0.94296 0.79431 0.0
H480 H 0.72295 0.49328 0.15481 0.0
H481 H 0.68899 0.49319 0.08652 0.0
H482 H 0.66655 0.53673 0.272 0.0
H483 H 0.70103 0.53748 0.338 0.0
H484 H 0.6504 0.48355 0.13089 0.0
H485 H 0.65373 0.56746 0.0586 0.0
H486 H 0.67568 0.55352 0.09935 0.0
H487 H 0.65519 0.56164 0.16896 0.0
C488 C 0.71073 0.5028 0.18096 0.0
C489 C 0.7147 0.51564 0.2508 0.0
C490 C 0.69127 0.50268 0.14218 0.0
C491 C 0.6752 0.51535 0.17247 0.0
C492 C 0.67878 0.52725 0.24568 0.0
H493 H 0.55015 0.50247 0.94533 0.0
H494 H 0.57898 0.50182 0.04601 0.0
C495 C 0.69838 0.52747 0.28421 0.0
C496 C 0.65516 0.51648 0.12507 0.0
H497 H 0.62349 0.54969 0.01806 0.0
C498 C 0.64446 0.49804 0.10659 0.0
C499 C 0.64745 0.53532 0.09211 0.0
C500 C 0.65867 0.5556 0.10494 0.0
C501 C 0.62661 0.49784 0.05544 0.0
C502 C 0.61879 0.51673 0.02311 0.0
C503 C 0.6293 0.5352 0.0429 0.0
C504 C 0.60067 0.51764 0.96412 0.0
C505 C 0.61691 0.47725 0.03374 0.0
C506 C 0.60275 0.5275 0.88561 0.0
C507 C 0.58617 0.52826 0.82885 0.0
C508 C 0.56704 0.51907 0.84871 0.0
C509 C 0.56475 0.50952 0.9278 0.0
C510 C 0.58132 0.50898 0.98516 0.0
H511 H 0.62784 0.46423 0.04371 0.0
H512 H 0.60328 0.47465 0.07509 0.0
H513 H 0.61165 0.47686 0.96715 0.0
H514 H 0.61739 0.53439 0.86749 0.0
H515 H 0.58848 0.53577 0.76862 0.0
H516 H 0.04366 0.70645 0.2654 0.0
H517 H 0.04749 0.67345 0.18902 0.0
H518 H 0.9822 0.6738 0.13272 0.0
H519 H 0.9783 0.70602 0.21285 0.0
H520 H 0.99382 0.63551 0.16156 0.0
H521 H 0.05034 0.66981 0.93849 0.0
H522 H 0.0589 0.67015 0.04596 0.0
H523 H 0.03671 0.6852 0.01549 0.0
C524 C 0.0301 0.69919 0.2383 0.0
C525 C 1.01071 0.70895 0.24447 0.0
C526 C 0.03232 0.68047 0.19331 0.0
C527 C 1.01525 0.67125 0.15232 0.0
C528 C 0.99571 0.68052 0.16256 0.0
H529 H 1.01553 0.59522 0.70502 0.0
H530 H 1.01465 0.62181 0.81432 0.0
C531 C 0.99348 0.69904 0.20811 0.0
C532 C 0.01759 0.65251 0.09626 0.0
H533 H 0.04248 0.63453 0.91975 0.0
C534 C 1.00454 0.6353 0.10887 0.0
C535 C 0.03137 0.6521 0.02649 0.0
C536 C 0.04499 0.67035 0.00508 0.0
C537 C 1.00462 0.61808 0.05357 0.0
C538 C 0.01851 0.61764 0.98418 0.0
C539 C 0.03186 0.63465 0.97277 0.0
C540 C 0.01847 0.60067 0.9187 0.0
C541 C 0.98912 0.60097 0.06818 0.0
C542 C 0.02085 0.57958 0.93967 0.0
C543 C 0.02101 0.56414 0.87648 0.0
C544 C 0.01915 0.56947 0.79088 0.0
C545 C 0.01695 0.59051 0.77024 0.0
C546 C 0.01652 0.60581 0.833 0.0
H547 H 0.97618 0.6061 0.10946 0.0
H548 H 0.98255 0.59532 0.0077 0.0
H549 H 0.99694 0.58783 0.0997 0.0
H550 H 0.02297 0.57505 0.00469 0.0
H551 H 0.0231 0.54813 0.89443 0.0
H552 H 0.06351 0.23667 0.01073 0.0
H553 H 0.07055 0.20102 0.05333 0.0
H554 H 0.05116 0.21581 0.30705 0.0
H555 H 0.04155 0.25059 0.26121 0.0
H556 H 0.09068 0.17752 0.15812 0.0
H557 H 1.00737 0.17595 0.24771 0.0
H558 H 0.01906 0.19818 0.19935 0.0
H559 H 0.02248 0.19339 0.31042 0.0
C560 C 0.06077 0.2322 0.07543 0.0
C561 C 0.05124 0.24596 0.13184 0.0
C562 C 0.0651 0.21197 0.10024 0.0
C563 C 0.0605 0.20548 0.18264 0.0
C564 C 0.05394 0.22021 0.24222 0.0
H565 H 0.06147 0.07582 0.33894 0.0
H566 H 0.07445 0.11079 0.31245 0.0
C567 C 0.04877 0.24016 0.21644 0.0
C568 C 0.05952 0.18304 0.20158 0.0
H569 H 0.02553 0.14497 0.25726 0.0
C570 C 0.0765 0.1704 0.18051 0.0
C571 C 0.04089 0.17372 0.23013 0.0
C572 C 0.02138 0.18596 0.24745 0.0
C573 C 0.0751 0.14871 0.18451 0.0
C574 C 0.05639 0.13959 0.2114 0.0
C575 C 0.03982 0.15217 0.23627 0.0
C576 C 0.0529 0.11701 0.21151 0.0
C577 C 0.09322 0.13566 0.15697 0.0
C578 C 0.03707 0.10871 0.16108 0.0
C579 C 0.02954 0.08884 0.17642 0.0
C580 C 0.03779 0.07701 0.24232 0.0
C581 C 0.055 0.08456 0.28714 0.0
C582 C 0.06243 0.10454 0.27217 0.0
H583 H 0.10557 0.14504 0.12667 0.0
H584 H 0.0999 0.12778 0.21269 0.0
H585 H 0.08805 0.12349 0.11204 0.0
H586 H 0.02953 0.11817 0.11399 0.0
H587 H 0.01633 0.08331 0.14087 0.0
H588 H 0.27954 0.96066 0.96982 0.0
H589 H 0.3122 0.94208 0.99265 0.0
H590 H 0.3006 0.94227 0.26052 0.0
H591 H 0.26852 0.96141 0.23777 0.0
H592 H 0.34043 0.96477 0.09699 0.0
H593 H 0.32902 0.88522 0.21759 0.0
H594 H 0.31009 0.89827 0.15284 0.0
H595 H 0.31207 0.90425 0.26328 0.0
C596 C 0.28369 0.95598 0.03304 0.0
C597 C 0.27168 0.96239 0.10213 0.0
C598 C 0.30222 0.94533 0.04602 0.0
C599 C 0.30865 0.94057 0.12818 0.0
C600 C 0.29567 0.94532 0.19651 0.0
H601 H 0.40883 0.93626 0.45064 0.0
H602 H 0.37691 0.92954 0.37329 0.0
C603 C 0.27734 0.95623 0.18359 0.0
C604 C 0.3305 0.93535 0.14486 0.0
H605 H 0.36124 0.90196 0.25383 0.0
C606 C 0.34526 0.9507 0.12822 0.0
C607 C 0.33641 0.91724 0.18805 0.0
C608 C 0.3211 0.90019 0.20599 0.0
C609 C 0.36554 0.94911 0.15817 0.0
C610 C 0.37133 0.93136 0.20466 0.0
C611 C 0.35682 0.91546 0.21762 0.0
C612 C 0.39131 0.93066 0.25009 0.0
C613 C 0.38 0.96727 0.14612 0.0
C614 C 0.41016 0.93242 0.20665 0.0
C615 C 0.42837 0.93684 0.25061 0.0
C616 C 0.42805 0.93919 0.3389 0.0
C617 C 0.4095 0.9352 0.38254 0.0
C618 C 0.39128 0.93108 0.33847 0.0
H619 H 0.372 0.98099 0.1195 0.0
H620 H 0.38715 0.9718 0.20708 0.0
H621 H 0.3926 0.96285 0.10214 0.0
H622 H 0.41056 0.93166 0.13844 0.0
H623 H 0.44235 0.93975 0.21477 0.0
H624 H 0.55944 0.26677 0.26144 0.0
H625 H 0.57558 0.29892 0.30901 0.0
H626 H 0.58636 0.31652 0.05055 0.0
H627 H 0.57111 0.2836 0.00295 0.0
H628 H 0.6167 0.3324 0.16561 0.0
H629 H 0.53608 0.34723 0.26965 0.0
H630 H 0.54721 0.32519 0.32091 0.0
H631 H 0.54308 0.32471 0.20879 0.0
C632 C 0.5661 0.27708 0.21506 0.0
C633 C 0.56398 0.2729 0.12867 0.0
C634 C 0.57514 0.29549 0.24213 0.0
C635 C 0.58157 0.31029 0.18314 0.0
C636 C 0.58123 0.30536 0.09694 0.0
H637 H 0.59002 0.44294 0.23395 0.0
H638 H 0.59665 0.40807 0.1795 0.0
C639 C 0.57247 0.2867 0.06982 0.0
C640 C 0.58526 0.33181 0.21105 0.0
H641 H 0.5613 0.37187 0.31157 0.0
C642 C 0.60464 0.34111 0.19743 0.0
C643 C 0.5693 0.34321 0.25104 0.0
C644 C 0.5477 0.33466 0.26271 0.0
C645 C 0.60868 0.36136 0.22602 0.0
C646 C 0.59291 0.37232 0.26865 0.0
C647 C 0.57345 0.36319 0.2801 0.0
C648 C 0.59564 0.39348 0.30192 0.0
C649 C 0.62972 0.37084 0.21221 0.0
C650 C 0.59364 0.39682 0.38889 0.0
C651 C 0.58943 0.41657 0.42001 0.0
C652 C 0.58713 0.43333 0.36449 0.0
C653 C 0.59128 0.43027 0.27814 0.0
C654 C 0.59537 0.41042 0.24697 0.0
H655 H 0.64107 0.35939 0.18769 0.0
H656 H 0.62842 0.38366 0.16616 0.0
H657 H 0.63566 0.3775 0.27212 0.0
H658 H 0.5936 0.38386 0.43205 0.0
H659 H 0.58617 0.41824 0.48667 0.0
H660 H 0.24376 0.55368 0.21649 0.0
H661 H 0.21076 0.57216 0.22703 0.0
H662 H 0.22244 0.60093 0.98638 0.0
H663 H 0.25575 0.58233 0.97676 0.0
H664 H 0.19844 0.61662 0.21106 0.0
H665 H 0.16901 0.56548 0.95368 0.0
H666 H 0.19306 0.55938 0.0063 0.0
H667 H 0.19159 0.5813 0.93786 0.0
C668 C 0.23945 0.56444 0.16736 0.0
C669 C 0.25198 0.56673 0.09603 0.0
C670 C 0.22071 0.57497 0.17315 0.0
C671 C 0.21415 0.58782 0.10726 0.0
C672 C 0.22723 0.59102 0.03767 0.0
H673 H 0.07968 0.58566 0.1464 0.0
H674 H 0.11189 0.59881 0.08353 0.0
C675 C 0.24613 0.5805 0.03221 0.0
C676 C 0.19258 0.59539 0.10893 0.0
H677 H 0.14482 0.57827 0.05046 0.0
C678 C 0.18663 0.60883 0.17414 0.0
C679 C 0.17721 0.58574 0.05904 0.0
C680 C 0.18286 0.57214 0.98509 0.0
C681 C 0.16575 0.61101 0.19677 0.0
C682 C 0.15067 0.59868 0.15563 0.0
C683 C 0.15639 0.58736 0.0835 0.0
C684 C 0.13038 0.59403 0.19558 0.0
C685 C 0.16027 0.62565 0.26757 0.0
C686 C 0.13001 0.58694 0.27915 0.0
C687 C 0.11175 0.57961 0.31497 0.0
C688 C 0.09342 0.57879 0.26771 0.0
C689 C 0.0936 0.58613 0.18429 0.0
C690 C 0.11195 0.59372 0.14853 0.0
H691 H 0.16999 0.63982 0.26434 0.0
H692 H 0.14371 0.63023 0.26571 0.0
H693 H 0.16353 0.61811 0.32889 0.0
H694 H 0.1441 0.58607 0.31581 0.0
H695 H 0.11228 0.57357 0.37856 0.0
H696 H 0.96893 0.78508 0.34956 0.0
H697 H 0.96793 0.82302 0.35848 0.0
H698 H 0.02189 0.82638 0.19844 0.0
H699 H 0.02304 0.78846 0.19173 0.0
H700 H 0.02591 0.84516 0.36167 0.0
H701 H 0.9547 0.871 0.19508 0.0
H702 H 0.95206 0.85031 0.26994 0.0
H703 H 0.96649 0.84615 0.17466 0.0
C704 C 0.97989 0.79409 0.31318 0.0
C705 C 0.99591 0.78416 0.26917 0.0
C706 C 0.97943 0.81565 0.31875 0.0
C707 C 0.99487 0.82742 0.27925 0.0
C708 C 1.00984 0.8175 0.22927 0.0
H709 H 0.04677 0.94221 0.20242 0.0
H710 H 0.04072 0.90765 0.2545 0.0
C711 C 1.01033 0.79596 0.22417 0.0
C712 C 0.99698 0.84972 0.29719 0.0
H713 H 0.97565 0.89662 0.25532 0.0
C714 C 1.01481 0.85646 0.3395 0.0
C715 C 0.98224 0.86428 0.26995 0.0
C716 C 0.96281 0.85771 0.22445 0.0
C717 C 0.01883 0.87754 0.35193 0.0
C718 C 1.00489 0.89229 0.3187 0.0
C719 C 0.98637 0.88542 0.28115 0.0
C720 C 1.01059 0.9144 0.30861 0.0
C721 C 0.0383 0.88357 0.39839 0.0
C722 C 0.99586 0.9301 0.32222 0.0
C723 C 0.99902 0.94987 0.28894 0.0
C724 C 0.01719 0.95427 0.24381 0.0
C725 C 0.03281 0.93929 0.23846 0.0
C726 C 0.02939 0.91945 0.26907 0.0
H727 H 0.04167 0.87236 0.44936 0.0
H728 H 0.05163 0.88298 0.35421 0.0
H729 H 0.0373 0.89933 0.42603 0.0
H730 H 0.98124 0.92661 0.35268 0.0
H731 H 0.98674 0.96123 0.29326 0.0
H732 H 0.74269 0.0359 0.1947 0.0
H733 H 0.71235 0.05682 0.16001 0.0
H734 H 0.73049 0.10206 0.34685 0.0
H735 H 0.76118 0.08081 0.3809 0.0
H736 H 0.68937 0.08819 0.36219 0.0
H737 H 0.70478 0.11157 0.03454 0.0
H738 H 0.71084 0.08471 0.04813 0.0
H739 H 0.7252 0.10402 0.106 0.0
C740 C 0.74031 0.05054 0.2267 0.0
C741 C 0.75401 0.05701 0.28957 0.0
C742 C 0.72317 0.06254 0.20676 0.0
C743 C 0.71946 0.08124 0.24951 0.0
C744 C 0.73332 0.08786 0.31222 0.0
H745 H 0.59825 0.10982 0.0382 0.0
H746 H 0.63063 0.12179 0.10431 0.0
C747 C 0.75069 0.07584 0.33164 0.0
C748 C 0.69974 0.09211 0.23393 0.0
H749 H 0.66835 0.1032 0.06804 0.0
C750 C 0.68489 0.09233 0.29856 0.0
C751 C 0.69399 0.09806 0.15158 0.0
C752 C 0.70966 0.09981 0.08141 0.0
C753 C 0.66392 0.09549 0.28016 0.0
C754 C 0.65782 0.09803 0.19532 0.0
C755 C 0.67299 0.10081 0.13299 0.0
C756 C 0.63663 0.09279 0.16754 0.0
C757 C 0.64823 0.09444 0.35038 0.0
C758 C 0.62935 0.07261 0.18146 0.0
C759 C 0.61121 0.06576 0.14339 0.0
C760 C 0.59998 0.07893 0.09041 0.0
C761 C 0.60668 0.09945 0.0792 0.0
C762 C 0.62507 0.10628 0.11688 0.0
H763 H 0.65514 0.09925 0.41149 0.0
H764 H 0.63465 0.1044 0.33672 0.0
H765 H 0.64272 0.07827 0.35683 0.0
H766 H 0.6383 0.06173 0.21826 0.0
H767 H 0.60627 0.04992 0.1533 0.0
H768 H 0.43799 0.762 0.34516 0.0
H769 H 0.41874 0.72935 0.32221 0.0
H770 H 0.47454 0.70089 0.22714 0.0
H771 H 0.49346 0.73325 0.25012 0.0
H772 H 0.41384 0.70448 0.17073 0.0
H773 H 0.45563 0.66247 0.42087 0.0
H774 H 0.45463 0.69041 0.41643 0.0
H775 H 0.47312 0.67632 0.3536 0.0
C776 C 0.44585 0.74873 0.3183 0.0
C777 C 0.46706 0.74978 0.29958 0.0
C778 C 0.435 0.73019 0.30583 0.0
C779 C 0.44541 0.71266 0.27508 0.0
C780 C 0.46639 0.71413 0.25291 0.0
H781 H 0.44347 0.61433 0.97851 0.0
H782 H 0.43416 0.6469 0.04414 0.0
C783 C 0.47712 0.73254 0.26521 0.0
C784 C 0.43479 0.69261 0.26432 0.0
H785 H 0.4431 0.64157 0.30331 0.0
C786 C 0.4197 0.6907 0.20141 0.0
C787 C 0.44198 0.67476 0.30625 0.0
C788 C 0.45707 0.6761 0.37872 0.0
C789 C 0.41347 0.67113 0.17233 0.0
C790 C 0.42292 0.65326 0.20618 0.0
C791 C 0.43605 0.65524 0.27623 0.0
C792 C 0.42305 0.63325 0.16033 0.0
C793 C 0.39774 0.66985 0.10241 0.0
C794 C 0.41962 0.61455 0.20303 0.0
C795 C 0.42508 0.59572 0.1654 0.0
C796 C 0.43422 0.59534 0.08477 0.0
C797 C 0.43618 0.61397 0.04002 0.0
C798 C 0.43073 0.63271 0.07753 0.0
H799 H 0.38603 0.68232 0.10914 0.0
H800 H 0.40565 0.67211 0.04094 0.0
H801 H 0.38971 0.65464 0.10158 0.0
H802 H 0.41384 0.61462 0.26718 0.0
H803 H 0.42313 0.58157 0.20102 0.0
H804 H 0.79734 0.55302 0.31339 0.0
H805 H 0.83499 0.54803 0.31593 0.0
H806 H 0.82722 0.48774 0.20231 0.0
H807 H 0.78959 0.49282 0.20098 0.0
H808 H 0.84787 0.48783 0.36106 0.0
H809 H 0.88154 0.54556 0.13974 0.0
H810 H 0.86329 0.55518 0.216 0.0
H811 H 0.85472 0.53777 0.1348 0.0
C812 C 0.8039 0.53919 0.28542 0.0
C813 C 0.79089 0.52333 0.2564 0.0
C814 C 0.82529 0.53624 0.28762 0.0
C815 C 0.83379 0.51743 0.2601 0.0
C816 C 0.82087 0.50233 0.22416 0.0
H817 H 0.93997 0.45063 0.18308 0.0
H818 H 0.90693 0.46079 0.24454 0.0
C819 C 0.79952 0.50532 0.22193 0.0
C820 C 0.85573 0.51255 0.27587 0.0
H821 H 0.90468 0.52451 0.21383 0.0
C822 C 0.86035 0.49596 0.32964 0.0
C823 C 0.87192 0.52351 0.23634 0.0
C824 C 0.86773 0.54143 0.17803 0.0
C825 C 0.88079 0.48947 0.34221 0.0
C826 C 0.89687 0.49947 0.29783 0.0
C827 C 0.89232 0.51684 0.248 0.0
C828 C 0.91784 0.4905 0.29032 0.0
C829 C 0.88491 0.47177 0.4015 0.0
C830 C 0.93526 0.50324 0.29995 0.0
C831 C 0.9541 0.49754 0.26384 0.0
C832 C 0.95566 0.47911 0.21676 0.0
C833 C 0.93905 0.46507 0.21781 0.0
C834 C 0.92019 0.47081 0.25378 0.0
H835 H 0.87299 0.47106 0.45195 0.0
H836 H 0.88421 0.45698 0.3659 0.0
H837 H 0.90043 0.47314 0.43103 0.0
H838 H 0.93378 0.51852 0.32774 0.0
H839 H 0.96657 0.50876 0.26429 0.0
H840 H 0.99985 0.23436 0.10038 0.0
H841 H 0.99424 0.2003 0.03489 0.0
H842 H 0.03324 0.21817 0.82625 0.0
H843 H 0.03746 0.25267 0.88965 0.0
H844 H 1.00666 0.19359 0.76565 0.0
H845 H 0.03453 0.15571 0.05353 0.0
H846 H 1.01056 0.16858 0.07554 0.0
H847 H 0.03314 0.18336 0.04544 0.0
C848 C 1.00657 0.23116 0.03914 0.0
C849 C 0.0189 0.24619 -0.00037 0.0
C850 C 1.00376 0.2115 0.00226 0.0
C851 C 1.0139 0.20605 0.92643 0.0
C852 C 0.02528 0.22162 0.88477 0.0
H853 H 0.04253 0.07666 0.81991 0.0
H854 H 0.04246 0.11325 0.85819 0.0
C855 C 0.02762 0.24145 0.92067 0.0
C856 C 1.0135 0.18409 0.8926 0.0
H857 H 0.01985 0.13347 0.95078 0.0
C858 C 1.00968 0.18048 0.80627 0.0
C859 C 0.01788 0.16666 0.94394 0.0
C860 C 0.02447 0.1688 0.03449 0.0
C861 C 1.01006 0.16031 0.77075 0.0
C862 C 1.01344 0.14286 0.82336 0.0
C863 C 0.01711 0.14653 0.90953 0.0
C864 C 1.01419 0.12075 0.7915 0.0
C865 C 1.00763 0.15817 0.67657 0.0
C866 C 0.99862 0.11228 0.73931 0.0
C867 C 0.99908 0.09126 0.71479 0.0
C868 C 1.01471 0.07797 0.74423 0.0
C869 C 0.03024 0.08641 0.79608 0.0
C870 C 0.03012 0.10745 0.81842 0.0
H871 H 1.01216 0.17262 0.64354 0.0
H872 H 0.01714 0.14527 0.65125 0.0
H873 H 0.99113 0.15509 0.66164 0.0
H874 H 0.98569 0.12169 0.71945 0.0
H875 H 0.98668 0.08521 0.67596 0.0
H876 H 0.29613 1.00036 0.14778 0.0
H877 H 0.33083 1.00468 0.08656 0.0
H878 H 0.30368 1.01178 0.84021 0.0
H879 H 0.26896 1.00738 0.9021 0.0
H880 H 0.34821 0.97841 0.96336 0.0
H881 H 0.34592 0.0594 0.84752 0.0
H882 H 0.32763 0.04964 0.92395 0.0
H883 H 0.32482 0.04316 0.81436 0.0
C884 C 0.29762 1.00343 0.08098 0.0
C885 C 0.2799 1.00385 0.02975 0.0
C886 C 0.31743 1.00572 0.04581 0.0
C887 C 0.32 1.0087 0.95861 0.0
C888 C 0.3022 1.00988 0.90775 0.0
H889 H 0.43484 1.00673 0.6522 0.0
H890 H 0.39825 1.00576 0.69602 0.0
C891 C 0.28235 1.00748 0.94303 0.0
C892 C 0.3413 1.00922 0.92092 0.0
H893 H 0.3756 0.03964 0.812 0.0
C894 C 0.3542 0.99189 0.93106 0.0
C895 C 0.34911 0.0266 0.87675 0.0
C896 C 0.33627 0.04586 0.86532 0.0
C897 C 0.37462 0.99159 0.89979 0.0
C898 C 0.38252 1.00905 0.85679 0.0
C899 C 0.36954 0.02622 0.84473 0.0
C900 C 0.4046 1.01007 0.82876 0.0
C901 C 0.38772 0.97255 0.91239 0.0
C902 C 0.42034 1.01296 0.88848 0.0
C903 C 0.44116 1.01364 0.86373 0.0
C904 C 0.44689 1.01136 0.77839 0.0
C905 C 0.43107 1.00852 0.71837 0.0
C906 C 0.41012 1.00801 0.74331 0.0
H907 H 0.40061 0.97622 0.95612 0.0
H908 H 0.37868 0.95945 0.93895 0.0
H909 H 0.39467 0.96764 0.85146 0.0
H910 H 0.41649 1.01466 0.95466 0.0
H911 H 0.4528 0.01582 0.91202 0.0
H912 H 0.53232 0.271 0.89944 0.0
H913 H 0.52769 0.30635 0.84499 0.0
H914 H 0.51378 0.32783 0.09651 0.0
H915 H 0.51901 0.29257 0.15051 0.0
H916 H 0.49673 0.33471 0.84218 0.0
H917 H 0.56113 0.36531 0.03534 0.0
H918 H 0.55512 0.3381 0.03044 0.0
H919 H 0.54065 0.35504 0.09896 0.0
C920 C 0.52781 0.28326 0.94239 0.0
C921 C 0.52582 0.27911 0.02886 0.0
C922 C 0.52532 0.30349 0.91155 0.0
C923 C 0.52085 0.32003 0.9667 0.0
C924 C 0.51775 0.31557 0.05268 0.0
H925 H 0.50706 0.45326 0.92794 0.0
H926 H 0.50853 0.41699 0.96912 0.0
C927 C 0.5204 0.29539 0.08348 0.0
C928 C 0.51999 0.34189 0.93476 0.0
H929 H 0.54043 0.39033 0.96434 0.0
C930 C 0.50638 0.34683 0.86863 0.0
C931 C 0.53262 0.35787 0.96859 0.0
C932 C 0.54836 0.35379 0.03665 0.0
C933 C 0.5046 0.36723 0.83756 0.0
C934 C 0.51705 0.38321 0.87221 0.0
C935 C 0.53082 0.37821 0.93756 0.0
C936 C 0.51562 0.40536 0.84434 0.0
C937 C 0.48887 0.37157 0.76972 0.0
C938 C 0.51923 0.41125 0.76009 0.0
C939 C 0.51833 0.4322 0.73597 0.0
C940 C 0.51397 0.4478 0.79569 0.0
C941 C 0.51046 0.4418 0.87987 0.0
C942 C 0.51131 0.42096 0.90376 0.0
H943 H 0.477 0.35915 0.76563 0.0
H944 H 0.48094 0.38655 0.78123 0.0
H945 H 0.49686 0.37245 0.70786 0.0
H946 H 0.52307 0.39968 0.71309 0.0
H947 H 0.52126 0.43618 0.67076 0.0
H948 H 0.23948 0.50565 0.10166 0.0
H949 H 0.20567 0.49829 0.03625 0.0
H950 H 0.22001 0.54124 0.83682 0.0
H951 H 0.25389 0.54786 0.90086 0.0
H952 H 0.17479 0.52513 0.01409 0.0
H953 H 0.19627 0.49471 0.69993 0.0
H954 H 0.21472 0.49695 0.78479 0.0
H955 H 0.20838 0.51913 0.7215 0.0
C956 C 0.23559 0.51288 0.04231 0.0
C957 C 0.24932 0.52708 0.00547 0.0
C958 C 0.21622 0.50887 0.00527 0.0
C959 C 0.21025 0.51892 0.93043 0.0
C960 C 0.2243 0.53276 0.89286 0.0
H961 H 0.09471 0.53306 0.64395 0.0
H962 H 0.13074 0.5344 0.69414 0.0
C963 C 0.24363 0.53667 0.92971 0.0
C964 C 0.18877 0.51648 0.89592 0.0
H965 H 0.16126 0.50619 0.71598 0.0
C966 C 0.17189 0.52087 0.94897 0.0
C967 C 0.18478 0.51098 0.81081 0.0
C968 C 0.20199 0.50497 0.75121 0.0
C969 C 0.1514 0.52089 0.91884 0.0
C970 C 0.14736 0.51533 0.83378 0.0
C971 C 0.16421 0.51057 0.78092 0.0
C972 C 0.12575 0.5138 0.79972 0.0
C973 C 0.13438 0.52773 0.97806 0.0
C974 C 0.11101 0.50128 0.84011 0.0
C975 C 0.09049 0.50069 0.8122 0.0
C976 C 0.08409 0.51225 0.74176 0.0
C977 C 0.09905 0.52399 0.69841 0.0
C978 C 0.11966 0.52479 0.72724 0.0
H979 H 0.14048 0.53773 0.02949 0.0
H980 H 0.12214 0.53639 0.94414 0.0
H981 H 0.12726 0.51392 0.00773 0.0
H982 H 0.11532 0.49204 0.89409 0.0
H983 H 0.07955 0.49116 0.84647 0.0
H984 H 0.043 0.78361 0.36625 0.0
H985 H 0.04455 0.8167 0.44205 0.0
H986 H 0.98824 0.80107 0.5735 0.0
H987 H 0.98681 0.76799 0.49658 0.0
H988 H 0.98465 0.83791 0.5002 0.0
H989 H 0.05882 0.83801 0.67297 0.0
H990 H 0.06215 0.832 0.56331 0.0
H991 H 0.04768 0.81464 0.62974 0.0
C992 C 0.03163 0.78678 0.41482 0.0
C993 C 1.01512 0.77291 0.42722 0.0
C994 C 0.03236 0.80587 0.45774 0.0
C995 C 0.01657 0.81162 0.51449 0.0
C996 C 1.00072 0.79715 0.53067 0.0
H997 H 0.02111 0.93204 0.78747 0.0
H998 H 0.02098 0.89485 0.7538 0.0
C999 C 1.00007 0.77803 0.48787 0.0
C1000 C 1.01534 0.83336 0.54927 0.0
H1001 H 0.04302 0.87119 0.65138 0.0
C1002 C 0.99737 0.84504 0.53415 0.0
C1003 C 0.03174 0.84291 0.59435 0.0
C1004 C 0.0511 0.83118 0.61684 0.0
C1005 C 0.99562 0.86593 0.55969 0.0
C1006 C 1.01244 0.87585 0.6011 0.0
C1007 C 0.0301 0.86391 0.6193 0.0
C1008 C 1.01231 0.89864 0.62293 0.0
C1009 C 0.97554 0.877 0.54225 0.0
C1010 C 1.0078 0.9135 0.56111 0.0
C1011 C 1.00784 0.93472 0.58017 0.0
C1012 C 1.01253 0.94201 0.66196 0.0
C1013 C 0.01731 0.92717 0.72396 0.0
C1014 C 0.01728 0.90581 0.70459 0.0
H1015 H 0.96235 0.86597 0.53939 0.0
H1016 H 0.97212 0.88885 0.59116 0.0
H1017 H 0.97656 0.88472 0.48 0.0
H1018 H 1.00439 0.90875 0.49723 0.0
H1019 H 1.00425 0.94543 0.52993 0.0
H1020 H 0.75113 0.04737 0.48192 0.0
H1021 H 0.7166 0.04307 0.54381 0.0
H1022 H 0.70657 0.98936 0.38684 0.0
H1023 H 0.74135 0.99376 0.32533 0.0
H1024 H 0.68021 0.04568 0.46283 0.0
H1025 H 0.6856 0.96847 0.61248 0.0
H1026 H 0.70815 0.98265 0.57791 0.0
H1027 H 0.69273 0.9685 0.50301 0.0
C1028 C 0.74169 0.03438 0.46224 0.0
C1029 C 0.749 0.02074 0.39981 0.0
C1030 C 0.7219 0.03197 0.49724 0.0
C1031 C 0.70885 0.01576 0.47095 0.0
C1032 C 0.71638 1.00172 0.40993 0.0
H1033 H 0.57475 1.01159 0.50128 0.0
H1034 H 0.61122 1.01247 0.46031 0.0
C1035 C 0.73629 1.00416 0.37486 0.0
C1036 C 0.68701 1.01462 0.50333 0.0
H1037 H 0.65183 0.9832 0.6027 0.0
C1038 C 0.67412 0.03201 0.49377 0.0
C1039 C 0.6789 0.99693 0.54467 0.0
C1040 C 0.69209 0.97813 0.561 0.0
C1041 C 0.65348 0.03205 0.52274 0.0
C1042 C 0.64519 1.01415 0.56135 0.0
C1043 C 0.6581 0.99689 0.57254 0.0
C1044 C 0.62296 1.01304 0.58779 0.0
C1045 C 0.64066 0.05134 0.51222 0.0
C1046 C 0.61726 1.01301 0.67346 0.0
C1047 C 0.59624 1.01275 0.6974 0.0
C1048 C 0.58048 1.01219 0.63611 0.0
C1049 C 0.58635 1.01197 0.55046 0.0
C1050 C 0.60727 1.01248 0.52672 0.0
H1051 H 0.65052 0.06519 0.50191 0.0
H1052 H 0.63034 0.04939 0.45688 0.0
H1053 H 0.63078 0.05412 0.5685 0.0
H1054 H 0.62906 1.01348 0.72182 0.0
H1055 H 0.59236 1.01289 0.76386 0.0
H1056 H 0.46959 0.74752 0.4808 0.0
H1057 H 0.47449 0.71336 0.54246 0.0
H1058 H 0.53731 0.7124 0.44963 0.0
H1059 H 0.53166 0.74612 0.38188 0.0
H1060 H 0.52127 0.67747 0.41672 0.0
H1061 H 0.50032 0.69245 0.74779 0.0
H1062 H 0.47937 0.69997 0.68092 0.0
H1063 H 0.50395 0.71319 0.67353 0.0
C1064 C 0.48459 0.74017 0.47507 0.0
C1065 C 0.50027 0.74958 0.42693 0.0
C1066 C 0.48747 0.72063 0.51108 0.0
C1067 C 0.50644 0.71017 0.50274 0.0
C1068 C 0.52253 0.72003 0.45777 0.0
H1069 H 0.52353 0.59242 0.77676 0.0
H1070 H 0.52415 0.62889 0.73355 0.0
C1071 C 0.51945 0.73949 0.42006 0.0
C1072 C 0.50879 0.68839 0.53474 0.0
H1073 H 0.49813 0.65681 0.70243 0.0
C1074 C 0.51648 0.67309 0.47975 0.0
C1075 C 0.50292 0.68237 0.61744 0.0
C1076 C 0.49641 0.69794 0.68344 0.0
C1077 C 0.51795 0.65215 0.50387 0.0
C1078 C 0.51057 0.64587 0.5843 0.0
C1079 C 0.50346 0.66128 0.64022 0.0
C1080 C 0.51003 0.62355 0.61147 0.0
C1081 C 0.52792 0.63717 0.44294 0.0
C1082 C 0.50148 0.60817 0.55892 0.0
C1083 C 0.50166 0.58728 0.58269 0.0
C1084 C 0.50966 0.58119 0.66121 0.0
C1085 C 0.51729 0.59659 0.71582 0.0
C1086 C 0.51763 0.61749 0.69098 0.0
H1087 H 0.53923 0.64517 0.40137 0.0
H1088 H 0.53609 0.62452 0.47632 0.0
H1089 H 0.51583 0.63033 0.40176 0.0
H1090 H 0.4946 0.61227 0.49912 0.0
H1091 H 0.49531 0.57587 0.53969 0.0
H1092 H 0.78487 0.48279 0.3904 0.0
H1093 H 0.81869 0.48045 0.45929 0.0
H1094 H 0.81265 0.54368 0.54365 0.0
H1095 H 0.77885 0.54585 0.4735 0.0
H1096 H 0.84769 0.53876 0.45889 0.0
H1097 H 0.84297 0.47516 0.69026 0.0
H1098 H 0.8346 0.4673 0.58725 0.0
H1099 H 0.8202 0.48668 0.6443 0.0
C1100 C 0.79029 0.49575 0.42784 0.0
C1101 C 0.779 0.51433 0.42838 0.0
C1102 C 0.80979 0.49453 0.46658 0.0
C1103 C 0.81846 0.51188 0.50725 0.0
C1104 C 0.80643 0.53001 0.5131 0.0
H1105 H 0.93938 0.51212 0.76349 0.0
H1106 H 0.90237 0.51225 0.72962 0.0
C1107 C 0.78691 0.53117 0.47439 0.0
C1108 C 0.84078 0.51199 0.53424 0.0
H1109 H 0.87709 0.48583 0.64953 0.0
C1110 C 0.85401 0.52725 0.50114 0.0
C1111 C 0.84928 0.49708 0.58966 0.0
C1112 C 0.83598 0.48075 0.63058 0.0
C1113 C 0.87532 0.52779 0.52004 0.0
C1114 C 0.88398 0.51252 0.5735 0.0
C1115 C 0.87067 0.49751 0.60823 0.0
C1116 C 0.90669 0.51194 0.59429 0.0
C1117 C 0.88823 0.545 0.48302 0.0
C1118 C 0.92172 0.5113 0.5301 0.0
C1119 C 0.94294 0.51146 0.54919 0.0
C1120 C 0.94984 0.51189 0.63345 0.0
C1121 C 0.93478 0.51188 0.69788 0.0
C1122 C 0.91352 0.51192 0.67854 0.0
H1123 H 0.87857 0.55859 0.46617 0.0
H1124 H 0.90045 0.55016 0.52753 0.0
H1125 H 0.89577 0.53939 0.42436 0.0
H1126 H 0.917 0.51065 0.46486 0.0
H1127 H 0.95394 0.51112 0.49758 0.0
loop_
_geom_bond_atom_site_label_1
_geom_bond_atom_site_label_2
_geom_bond_distance
_geom_bond_site_symmetry_2
_ccdc_geom_bond_type
C0 N1 1.317 . S
C0 N2 1.348 . S
C0 C3 1.485 . S
N1 C0 1.317 . S
N1 N5 1.370 . S
N2 C0 1.348 . S
N2 C4 1.346 . S
C3 C0 1.485 . S
C3 H7 0.960 . S
C3 H8 0.961 . S
C3 H9 0.960 . S
C4 N2 1.346 . S
C4 N5 1.307 . S
C4 C6 1.486 . S
N5 N1 1.370 . S
N5 C4 1.307 . S
C6 C4 1.486 . S
C6 H10 0.960 . S
C6 H11 0.960 . S
C6 H12 0.959 . S
H7 C3 0.960 . S
H8 C3 0.961 . S
H9 C3 0.960 . S
H10 C6 0.960 . S
H11 C6 0.960 . S
H12 C6 0.959 . S
C13 N14 1.317 . S
C13 N15 1.350 . S
C13 C16 1.485 . S
N14 C13 1.317 . S
N14 N18 1.371 . S
N15 C13 1.350 . S
N15 C17 1.345 1_655 S
C16 C13 1.485 . S
C16 H20 0.960 1_655 S
C16 H21 0.961 . S
C16 H22 0.960 . S
C17 N15 1.345 1_455 S
C17 N18 1.307 1_455 S
C17 C19 1.486 . S
N18 N14 1.371 . S
N18 C17 1.307 1_655 S
C19 C17 1.486 . S
C19 H23 0.925 1_455 S
C19 H24 0.989 . S
C19 H25 0.967 . S
H20 C16 0.960 1_455 S
H21 C16 0.961 . S
H22 C16 0.960 . S
H23 C19 0.925 1_655 S
H24 C19 0.989 . S
H25 C19 0.967 . S
C26 N27 1.317 . S
C26 N28 1.350 . S
C26 C29 1.485 . S
N27 C26 1.317 . S
N27 N31 1.371 . S
N28 C26 1.350 . S
N28 C30 1.345 1_565 S
C29 C26 1.485 . S
C29 H33 0.960 1_565 S
C29 H34 0.961 . S
C29 H35 0.960 . S
C30 N28 1.345 1_545 S
C30 N31 1.307 1_545 S
C30 C32 1.486 . S
N31 N27 1.371 . S
N31 C30 1.307 1_565 S
C32 C30 1.486 . S
C32 H36 0.925 1_545 S
C32 H37 0.989 . S
C32 H38 0.967 . S
H33 C29 0.960 1_545 S
H34 C29 0.961 . S
H35 C29 0.960 . S
H36 C32 0.925 1_565 S
H37 C32 0.989 . S
H38 C32 0.967 . S
C39 N40 1.317 . S
C39 N41 1.348 . S
C39 C42 1.485 . S
N40 C39 1.317 . S
N40 N44 1.370 . S
N41 C39 1.348 . S
N41 C43 1.346 . S
C42 C39 1.485 . S
C42 H46 0.960 . S
C42 H47 0.961 . S
C42 H48 0.960 . S
C43 N41 1.346 . S
C43 N44 1.307 . S
C43 C45 1.486 . S
N44 N40 1.370 . S
N44 C43 1.307 . S
C45 C43 1.486 . S
C45 H49 0.960 . S
C45 H50 0.960 . S
C45 H51 0.959 . S
H46 C42 0.960 . S
H47 C42 0.961 . S
H48 C42 0.960 . S
H49 C45 0.960 . S
H50 C45 0.960 . S
H51 C45 0.959 . S
C52 N53 1.317 . S
C52 N54 1.348 1_556 S
C52 C55 1.485 . S
N53 C52 1.317 . S
N53 N57 1.370 1_556 S
N54 C52 1.348 1_554 S
N54 C56 1.346 . S
C55 C52 1.485 . S
C55 H59 0.960 . S
C55 H60 0.961 . S
C55 H61 0.960 . S
C56 N54 1.346 . S
C56 N57 1.307 . S
C56 C58 1.486 . S
N57 N53 1.370 1_554 S
N57 C56 1.307 . S
C58 C56 1.486 . S
C58 H62 0.960 . S
C58 H63 0.960 . S
C58 H64 0.959 . S
H59 C55 0.960 . S
H60 C55 0.961 . S
H61 C55 0.960 . S
H62 C58 0.960 . S
H63 C58 0.960 . S
H64 C58 0.959 . S
C65 N66 1.319 . S
C65 N67 1.350 1_556 S
C65 C68 1.485 . S
N66 C65 1.319 . S
N66 N70 1.369 1_556 S
N67 C65 1.350 1_554 S
N67 C69 1.345 1_655 S
C68 C65 1.485 . S
C68 H72 0.960 1_655 S
C68 H73 0.961 . S
C68 H74 0.960 . S
C69 N67 1.345 1_455 S
C69 N70 1.307 1_455 S
C69 C71 1.485 . S
N70 N66 1.369 1_554 S
N70 C69 1.307 1_655 S
C71 C69 1.485 . S
C71 H75 0.913 1_455 S
C71 H76 0.999 . S
C71 H77 0.970 . S
H72 C68 0.960 1_455 S
H73 C68 0.961 . S
H74 C68 0.960 . S
H75 C71 0.913 1_655 S
H76 C71 0.999 . S
H77 C71 0.970 . S
C78 N79 1.319 . S
C78 N80 1.350 1_556 S
C78 C81 1.485 . S
N79 C78 1.319 . S
N79 N83 1.369 1_556 S
N80 C78 1.350 1_554 S
N80 C82 1.345 1_565 S
C81 C78 1.485 . S
C81 H85 0.960 1_565 S
C81 H86 0.961 . S
C81 H87 0.960 . S
C82 N80 1.345 1_545 S
C82 N83 1.307 1_545 S
C82 C84 1.485 . S
N83 N79 1.369 1_554 S
N83 C82 1.307 1_565 S
C84 C82 1.485 . S
C84 H88 0.913 1_545 S
C84 H89 0.999 . S
C84 H90 0.970 . S
H85 C81 0.960 1_545 S
H86 C81 0.961 . S
H87 C81 0.960 . S
H88 C84 0.913 1_565 S
H89 C84 0.999 . S
H90 C84 0.970 . S
C91 N92 1.317 . S
C91 N93 1.348 1_556 S
C91 C94 1.485 . S
N92 C91 1.317 . S
N92 N96 1.370 1_556 S
N93 C91 1.348 1_554 S
N93 C95 1.346 . S
C94 C91 1.485 . S
C94 H98 0.960 . S
C94 H99 0.961 . S
C94 H100 0.960 . S
C95 N93 1.346 . S
C95 N96 1.307 . S
C95 C97 1.486 . S
N96 N92 1.370 1_554 S
N96 C95 1.307 . S
C97 C95 1.486 . S
C97 H101 0.960 . S
C97 H102 0.960 . S
C97 H103 0.959 . S
H98 C94 0.960 . S
H99 C94 0.961 . S
H100 C94 0.960 . S
H101 C97 0.960 . S
H102 C97 0.960 . S
H103 C97 0.959 . S
Pr104 C106 2.880 . S
Pr104 O124 2.576 . S
Pr104 O125 2.490 . S
Pr104 O126 2.695 1_565 S
Pr104 O127 2.512 . S
Pr104 O129 2.437 . S
Pr104 O132 2.436 1_455 S
Pr104 O134 2.438 1_565 S
Pr105 C115 2.880 . S
Pr105 O126 2.436 1_655 S
Pr105 O128 2.438 1_545 S
Pr105 O130 2.571 . S
Pr105 O131 2.490 . S
Pr105 O132 2.695 1_545 S
Pr105 O133 2.512 . S
Pr105 O135 2.437 . S
C106 Pr104 2.880 . S
C106 C107 1.491 . S
C106 O124 1.287 . S
C106 O125 1.225 . S
C107 C106 1.491 . S
C107 C108 1.392 . S
C107 C112 1.356 . S
C108 C107 1.392 . S
C108 C109 1.368 . S
C108 H136 0.929 . S
C109 C108 1.368 . S
C109 C110 1.386 1_556 S
C109 H137 0.929 1_556 S
C110 C109 1.386 1_554 S
C110 C111 1.373 . S
C111 C110 1.373 . S
C111 C112 1.408 1_554 S
C111 H138 0.931 1_455 S
C112 C107 1.356 . S
C112 C111 1.408 1_556 S
C112 H139 0.930 1_455 S
C113 O126 1.253 1_565 S
C113 O127 1.278 . S
C114 O128 1.267 . S
C114 O129 1.278 1_655 S
C115 Pr105 2.880 . S
C115 C116 1.491 . S
C115 O130 1.274 . S
C115 O131 1.225 . S
C116 C115 1.491 . S
C116 C117 1.392 . S
C116 C121 1.356 . S
C117 C116 1.392 . S
C117 C118 1.368 . S
C117 H140 0.929 . S
C118 C117 1.368 . S
C118 C119 1.386 . S
C118 H141 0.929 . S
C119 C118 1.386 . S
C119 C120 1.373 . S
C120 C119 1.373 . S
C120 C121 1.409 . S
C120 H142 0.931 1_655 S
C121 C116 1.356 . S
C121 C120 1.409 . S
C121 H143 0.930 1_655 S
C122 O132 1.270 1_545 S
C122 O133 1.248 . S
C123 O134 1.267 . S
C123 O135 1.278 1_455 S
O124 Pr104 2.576 . S
O124 C106 1.287 . S
O125 Pr104 2.490 . S
O125 C106 1.225 . S
O126 Pr104 2.695 1_545 S
O126 Pr105 2.436 1_455 S
O126 C113 1.253 1_545 S
O127 Pr104 2.512 . S
O127 C113 1.278 . S
O128 Pr105 2.438 1_565 S
O128 C114 1.267 . S
O129 Pr104 2.437 . S
O129 C114 1.278 1_455 S
O130 Pr105 2.571 . S
O130 C115 1.274 . S
O131 Pr105 2.490 . S
O131 C115 1.225 . S
O132 Pr104 2.436 1_655 S
O132 Pr105 2.695 1_565 S
O132 C122 1.270 1_565 S
O133 Pr105 2.512 . S
O133 C122 1.248 . S
O134 Pr104 2.438 1_545 S
O134 C123 1.267 . S
O135 Pr105 2.437 . S
O135 C123 1.278 1_655 S
H136 C108 0.929 . S
H137 C109 0.929 1_554 S
H138 C111 0.931 1_655 S
H139 C112 0.930 1_655 S
H140 C117 0.929 . S
H141 C118 0.929 . S
H142 C120 0.931 1_455 S
H143 C121 0.930 1_455 S
Pr144 C146 2.880 . S
Pr144 O164 2.575 . S
Pr144 O165 2.490 . S
Pr144 O166 2.695 . S
Pr144 O167 2.512 . S
Pr144 O169 2.437 . S
Pr144 O172 2.436 1_545 S
Pr144 O174 2.438 . S
Pr145 C155 2.880 . S
Pr145 O166 2.436 1_565 S
Pr145 O168 2.438 . S
Pr145 O170 2.570 . S
Pr145 O171 2.490 . S
Pr145 O172 2.695 . S
Pr145 O173 2.512 . S
Pr145 O175 2.437 . S
C146 Pr144 2.880 . S
C146 C147 1.491 . S
C146 O164 1.284 . S
C146 O165 1.225 . S
C147 C146 1.491 . S
C147 C148 1.392 . S
C147 C152 1.356 . S
C148 C147 1.392 . S
C148 C149 1.368 . S
C148 H176 0.929 . S
C149 C148 1.368 . S
C149 C150 1.386 1_556 S
C149 H177 0.929 1_556 S
C150 C149 1.386 1_554 S
C150 C151 1.373 . S
C151 C150 1.373 . S
C151 C152 1.407 1_554 S
C151 H178 0.932 1_545 S
C152 C147 1.356 . S
C152 C151 1.407 1_556 S
C152 H179 0.930 1_545 S
C153 O166 1.270 . S
C153 O167 1.248 . S
C154 O168 1.267 . S
C154 O169 1.278 1_565 S
C155 Pr145 2.880 . S
C155 C156 1.491 . S
C155 O170 1.272 . S
C155 O171 1.225 . S
C156 C155 1.491 . S
C156 C157 1.392 . S
C156 C161 1.356 . S
C157 C156 1.392 . S
C157 C158 1.368 . S
C157 H180 0.929 . S
C158 C157 1.368 . S
C158 C159 1.386 . S
C158 H181 0.929 . S
C159 C158 1.386 . S
C159 C160 1.373 . S
C160 C159 1.373 . S
C160 C161 1.409 . S
C160 H182 0.931 1_565 S
C161 C156 1.356 . S
C161 C160 1.409 . S
C161 H183 0.930 1_565 S
C162 O172 1.270 . S
C162 O173 1.248 . S
C163 O174 1.267 . S
C163 O175 1.278 1_545 S
O164 Pr144 2.575 . S
O164 C146 1.284 . S
O165 Pr144 2.490 . S
O165 C146 1.225 . S
O166 Pr144 2.695 . S
O166 Pr145 2.436 1_545 S
O166 C153 1.270 . S
O167 Pr144 2.512 . S
O167 C153 1.248 . S
O168 Pr145 2.438 . S
O168 C154 1.267 . S
O169 Pr144 2.437 . S
O169 C154 1.278 1_545 S
O170 Pr145 2.570 . S
O170 C155 1.272 . S
O171 Pr145 2.490 . S
O171 C155 1.225 . S
O172 Pr144 2.436 1_565 S
O172 Pr145 2.695 . S
O172 C162 1.270 . S
O173 Pr145 2.512 . S
O173 C162 1.248 . S
O174 Pr144 2.438 . S
O174 C163 1.267 . S
O175 Pr145 2.437 . S
O175 C163 1.278 1_565 S
H176 C148 0.929 . S
H177 C149 0.929 1_554 S
H178 C151 0.932 1_565 S
H179 C152 0.930 1_565 S
H180 C157 0.929 . S
H181 C158 0.929 . S
H182 C160 0.931 1_545 S
H183 C161 0.930 1_545 S
Pr184 C186 2.880 . S
Pr184 O204 2.562 . S
Pr184 O205 2.490 . S
Pr184 O206 2.695 . S
Pr184 O207 2.512 . S
Pr184 O209 2.437 . S
Pr184 O212 2.436 . S
Pr184 O214 2.438 . S
Pr185 C195 2.880 . S
Pr185 O206 2.436 . S
Pr185 O208 2.438 . S
Pr185 O210 2.562 . S
Pr185 O211 2.490 . S
Pr185 O212 2.695 . S
Pr185 O213 2.512 . S
Pr185 O215 2.437 . S
C186 Pr184 2.880 . S
C186 C187 1.491 . S
C186 O204 1.254 . S
C186 O205 1.225 . S
C187 C186 1.491 . S
C187 C188 1.392 . S
C187 C192 1.356 . S
C188 C187 1.392 . S
C188 C189 1.368 . S
C188 H216 0.929 . S
C189 C188 1.368 . S
C189 C190 1.386 1_556 S
C189 H217 0.929 1_556 S
C190 C189 1.386 1_554 S
C190 C191 1.374 . S
C191 C190 1.374 . S
C191 C192 1.405 1_554 S
C191 H218 0.933 . S
C192 C187 1.356 . S
C192 C191 1.405 1_556 S
C192 H219 0.930 . S
C193 O206 1.270 . S
C193 O207 1.248 . S
C194 O208 1.267 . S
C194 O209 1.278 . S
C195 Pr185 2.880 . S
C195 C196 1.491 . S
C195 O210 1.254 . S
C195 O211 1.225 . S
C196 C195 1.491 . S
C196 C197 1.392 . S
C196 C201 1.356 . S
C197 C196 1.392 . S
C197 C198 1.368 . S
C197 H220 0.929 . S
C198 C197 1.368 . S
C198 C199 1.386 . S
C198 H221 0.929 . S
C199 C198 1.386 . S
C199 C200 1.373 . S
C200 C199 1.373 . S
C200 C201 1.409 . S
C200 H222 0.931 . S
C201 C196 1.356 . S
C201 C200 1.409 . S
C201 H223 0.930 . S
C202 O212 1.270 . S
C202 O213 1.248 . S
C203 O214 1.267 . S
C203 O215 1.278 . S
O204 Pr184 2.562 . S
O204 C186 1.254 . S
O205 Pr184 2.490 . S
O205 C186 1.225 . S
O206 Pr184 2.695 . S
O206 Pr185 2.436 . S
O206 C193 1.270 . S
O207 Pr184 2.512 . S
O207 C193 1.248 . S
O208 Pr185 2.438 . S
O208 C194 1.267 . S
O209 Pr184 2.437 . S
O209 C194 1.278 . S
O210 Pr185 2.562 . S
O210 C195 1.254 . S
O211 Pr185 2.490 . S
O211 C195 1.225 . S
O212 Pr184 2.436 . S
O212 Pr185 2.695 . S
O212 C202 1.270 . S
O213 Pr185 2.512 . S
O213 C202 1.248 . S
O214 Pr184 2.438 . S
O214 C203 1.267 . S
O215 Pr185 2.437 . S
O215 C203 1.278 . S
H216 C188 0.929 . S
H217 C189 0.929 1_554 S
H218 C191 0.933 . S
H219 C192 0.930 . S
H220 C197 0.929 . S
H221 C198 0.929 . S
H222 C200 0.931 . S
H223 C201 0.930 . S
Pr224 C226 2.880 . S
Pr224 O244 2.562 . S
Pr224 O245 2.490 . S
Pr224 O246 2.695 1_655 S
Pr224 O247 2.512 . S
Pr224 O249 2.437 . S
Pr224 O252 2.436 . S
Pr224 O254 2.438 1_655 S
Pr225 C235 2.880 . S
Pr225 O246 2.436 . S
Pr225 O248 2.438 1_455 S
Pr225 O250 2.562 . S
Pr225 O251 2.490 . S
Pr225 O252 2.695 1_455 S
Pr225 O253 2.512 . S
Pr225 O255 2.437 . S
C226 Pr224 2.880 . S
C226 C227 1.491 . S
C226 O244 1.254 . S
C226 O245 1.225 . S
C227 C226 1.491 . S
C227 C228 1.392 . S
C227 C232 1.356 . S
C228 C227 1.392 . S
C228 C229 1.368 . S
C228 H256 0.929 . S
C229 C228 1.368 . S
C229 C230 1.386 1_556 S
C229 H257 0.929 1_556 S
C230 C229 1.386 1_554 S
C230 C231 1.374 . S
C231 C230 1.374 . S
C231 C232 1.407 1_554 S
C231 H258 0.932 . S
C232 C227 1.356 . S
C232 C231 1.407 1_556 S
C232 H259 0.930 . S
C233 O246 1.255 1_655 S
C233 O247 1.274 . S
C234 O248 1.267 . S
C234 O249 1.278 . S
C235 Pr225 2.880 . S
C235 C236 1.491 . S
C235 O250 1.254 . S
C235 O251 1.225 . S
C236 C235 1.491 . S
C236 C237 1.392 . S
C236 C241 1.356 . S
C237 C236 1.392 . S
C237 C238 1.368 . S
C237 H260 0.929 . S
C238 C237 1.368 . S
C238 C239 1.386 . S
C238 H261 0.929 . S
C239 C238 1.386 . S
C239 C240 1.373 . S
C240 C239 1.373 . S
C240 C241 1.409 . S
C240 H262 0.931 . S
C241 C236 1.356 . S
C241 C240 1.409 . S
C241 H263 0.930 . S
C242 O252 1.270 1_455 S
C242 O253 1.248 . S
C243 O254 1.267 . S
C243 O255 1.278 . S
O244 Pr224 2.562 . S
O244 C226 1.254 . S
O245 Pr224 2.490 . S
O245 C226 1.225 . S
O246 Pr224 2.695 1_455 S
O246 Pr225 2.436 . S
O246 C233 1.255 1_455 S
O247 Pr224 2.512 . S
O247 C233 1.274 . S
O248 Pr225 2.438 1_655 S
O248 C234 1.267 . S
O249 Pr224 2.437 . S
O249 C234 1.278 . S
O250 Pr225 2.562 . S
O250 C235 1.254 . S
O251 Pr225 2.490 . S
O251 C235 1.225 . S
O252 Pr224 2.436 . S
O252 Pr225 2.695 1_655 S
O252 C242 1.270 1_655 S
O253 Pr225 2.512 . S
O253 C242 1.248 . S
O254 Pr224 2.438 1_455 S
O254 C243 1.267 . S
O255 Pr225 2.437 . S
O255 C243 1.278 . S
H256 C228 0.929 . S
H257 C229 0.929 1_554 S
H258 C231 0.932 . S
H259 C232 0.930 . S
H260 C237 0.929 . S
H261 C238 0.929 . S
H262 C240 0.931 . S
H263 C241 0.930 . S
H264 C272 0.929 . S
H265 C274 0.930 . S
H266 C276 0.930 . S
H267 C279 0.929 . S
H268 C282 0.930 . S
H269 C284 0.960 . S
H270 C284 0.960 . S
H271 C284 0.960 . S
C272 H264 0.929 . S
C272 C273 1.371 1_565 S
C272 C274 1.384 . S
C273 C272 1.371 1_545 S
C273 C279 1.396 . S
C274 H265 0.930 . S
C274 C272 1.384 . S
C274 C275 1.369 . S
C275 C274 1.369 . S
C275 C276 1.403 1_565 S
C275 C280 1.489 . S
C276 H266 0.930 . S
C276 C275 1.403 1_545 S
C276 C279 1.386 . S
H277 C293 0.930 . S
H278 C294 0.931 . S
C279 H267 0.929 . S
C279 C273 1.396 . S
C279 C276 1.386 . S
C280 C275 1.489 . S
C280 C282 1.425 . S
C280 C283 1.374 1_565 S
H281 C287 0.930 . S
C282 H268 0.930 . S
C282 C280 1.425 . S
C282 C285 1.403 . S
C283 C280 1.374 1_545 S
C283 C284 1.524 . S
C283 C287 1.400 . S
C284 H269 0.960 . S
C284 H270 0.960 . S
C284 H271 0.960 . S
C284 C283 1.524 . S
C285 C282 1.403 . S
C285 C286 1.392 . S
C285 C289 1.495 . S
C286 C285 1.392 . S
C286 C287 1.385 1_565 S
C286 C288 1.478 . S
C287 H281 0.930 . S
C287 C283 1.400 . S
C287 C286 1.385 1_545 S
C288 C286 1.478 . S
C288 C290 1.381 . S
C288 C294 1.383 1_565 S
C289 C285 1.495 . S
C289 H295 0.959 . S
C289 H296 0.961 . S
C289 H297 0.960 . S
C290 C288 1.381 . S
C290 C291 1.394 . S
C290 H298 0.930 . S
C291 C290 1.394 . S
C291 C292 1.392 . S
C291 H299 0.929 . S
C292 C291 1.392 . S
C292 C293 1.370 1_565 S
C293 H277 0.930 . S
C293 C292 1.370 1_545 S
C293 C294 1.379 . S
C294 H278 0.931 . S
C294 C288 1.383 1_545 S
C294 C293 1.379 . S
H295 C289 0.959 . S
H296 C289 0.961 . S
H297 C289 0.960 . S
H298 C290 0.930 . S
H299 C291 0.929 . S
H300 C308 0.929 . S
H301 C310 0.930 . S
H302 C312 0.930 . S
H303 C315 0.929 . S
H304 C318 0.930 . S
H305 C320 0.960 . S
H306 C320 0.960 . S
H307 C320 0.960 . S
C308 H300 0.929 . S
C308 C309 1.377 . S
C308 C310 1.384 . S
C309 C308 1.377 . S
C309 C315 1.390 . S
C310 H301 0.930 . S
C310 C308 1.384 . S
C310 C311 1.372 . S
C311 C310 1.372 . S
C311 C312 1.400 . S
C311 C316 1.490 . S
C312 H302 0.930 . S
C312 C311 1.400 . S
C312 C315 1.386 . S
H313 C329 0.930 . S
H314 C330 0.931 . S
C315 H303 0.929 . S
C315 C309 1.390 . S
C315 C312 1.386 . S
C316 C311 1.490 . S
C316 C318 1.395 . S
C316 C319 1.403 . S
H317 C323 0.930 . S
C318 H304 0.930 . S
C318 C316 1.395 . S
C318 C321 1.403 . S
C319 C316 1.403 . S
C319 C320 1.524 . S
C319 C323 1.400 . S
C320 H305 0.960 . S
C320 H306 0.960 . S
C320 H307 0.960 . S
C320 C319 1.524 . S
C321 C318 1.403 . S
C321 C322 1.392 . S
C321 C325 1.495 . S
C322 C321 1.392 . S
C322 C323 1.385 . S
C322 C324 1.478 . S
C323 H317 0.930 . S
C323 C319 1.400 . S
C323 C322 1.385 . S
C324 C322 1.478 . S
C324 C326 1.381 . S
C324 C330 1.383 . S
C325 C321 1.495 . S
C325 H331 0.959 . S
C325 H332 0.961 . S
C325 H333 0.960 . S
C326 C324 1.381 . S
C326 C327 1.394 . S
C326 H334 0.930 . S
C327 C326 1.394 . S
C327 C328 1.383 . S
C327 H335 0.929 . S
C328 C327 1.383 . S
C328 C329 1.377 . S
C329 H313 0.930 . S
C329 C328 1.377 . S
C329 C330 1.379 . S
C330 H314 0.931 . S
C330 C324 1.383 . S
C330 C329 1.379 . S
H331 C325 0.959 . S
H332 C325 0.961 . S
H333 C325 0.960 . S
H334 C326 0.930 . S
H335 C327 0.929 . S
H336 C344 0.929 . S
H337 C346 0.930 . S
H338 C348 0.930 . S
H339 C351 0.929 . S
H340 C354 0.930 . S
H341 C356 0.960 . S
H342 C356 0.960 . S
H343 C356 0.960 . S
C344 H336 0.929 . S
C344 C345 1.377 . S
C344 C346 1.384 . S
C345 C344 1.377 . S
C345 C351 1.390 . S
C346 H337 0.930 . S
C346 C344 1.384 . S
C346 C347 1.372 . S
C347 C346 1.372 . S
C347 C348 1.400 . S
C347 C352 1.490 . S
C348 H338 0.930 . S
C348 C347 1.400 . S
C348 C351 1.386 . S
H349 C365 0.930 . S
H350 C366 0.931 . S
C351 H339 0.929 . S
C351 C345 1.390 . S
C351 C348 1.386 . S
C352 C347 1.490 . S
C352 C354 1.395 . S
C352 C355 1.403 . S
H353 C359 0.930 . S
C354 H340 0.930 . S
C354 C352 1.395 . S
C354 C357 1.403 . S
C355 C352 1.403 . S
C355 C356 1.524 . S
C355 C359 1.400 . S
C356 H341 0.960 . S
C356 H342 0.960 . S
C356 H343 0.960 . S
C356 C355 1.524 . S
C357 C354 1.403 . S
C357 C358 1.392 . S
C357 C361 1.495 . S
C358 C357 1.392 . S
C358 C359 1.385 . S
C358 C360 1.478 . S
C359 H353 0.930 . S
C359 C355 1.400 . S
C359 C358 1.385 . S
C360 C358 1.478 . S
C360 C362 1.381 . S
C360 C366 1.383 . S
C361 C357 1.495 . S
C361 H367 0.959 . S
C361 H368 0.961 . S
C361 H369 0.960 . S
C362 C360 1.381 . S
C362 C363 1.394 . S
C362 H370 0.930 . S
C363 C362 1.394 . S
C363 C364 1.383 . S
C363 H371 0.929 . S
C364 C363 1.383 . S
C364 C365 1.377 . S
C365 H349 0.930 . S
C365 C364 1.377 . S
C365 C366 1.379 . S
C366 H350 0.931 . S
C366 C360 1.383 . S
C366 C365 1.379 . S
H367 C361 0.959 . S
H368 C361 0.961 . S
H369 C361 0.960 . S
H370 C362 0.930 . S
H371 C363 0.929 . S
H372 C380 0.929 . S
H373 C382 0.930 . S
H374 C384 0.930 . S
H375 C387 0.929 . S
H376 C390 0.930 . S
H377 C392 0.960 . S
H378 C392 0.960 . S
H379 C392 0.960 . S
C380 H372 0.929 . S
C380 C381 1.386 . S
C380 C382 1.384 . S
C381 C380 1.386 . S
C381 C387 1.382 1_455 S
C382 H373 0.930 . S
C382 C380 1.384 . S
C382 C383 1.372 . S
C383 C382 1.372 . S
C383 C384 1.400 1_455 S
C383 C388 1.491 . S
C384 H374 0.930 . S
C384 C383 1.400 1_655 S
C384 C387 1.386 . S
H385 C401 0.930 . S
H386 C402 0.931 . S
C387 H375 0.929 . S
C387 C381 1.382 1_655 S
C387 C384 1.386 . S
C388 C383 1.491 . S
C388 C390 1.372 1_455 S
C388 C391 1.425 . S
H389 C395 0.930 . S
C390 H376 0.930 . S
C390 C388 1.372 1_655 S
C390 C393 1.403 . S
C391 C388 1.425 . S
C391 C392 1.524 . S
C391 C395 1.400 . S
C392 H377 0.960 . S
C392 H378 0.960 . S
C392 H379 0.960 . S
C392 C391 1.524 . S
C393 C390 1.403 . S
C393 C394 1.392 . S
C393 C397 1.495 . S
C394 C393 1.392 . S
C394 C395 1.385 1_655 S
C394 C396 1.478 . S
C395 H389 0.930 . S
C395 C391 1.400 . S
C395 C394 1.385 1_455 S
C396 C394 1.478 . S
C396 C398 1.381 1_655 S
C396 C402 1.383 . S
C397 C393 1.495 . S
C397 H403 0.959 . S
C397 H404 0.961 . S
C397 H405 0.960 . S
C398 C396 1.381 1_455 S
C398 C399 1.394 . S
C398 H406 0.930 . S
C399 C398 1.394 . S
C399 C400 1.384 . S
C399 H407 0.929 . S
C400 C399 1.384 . S
C400 C401 1.375 1_455 S
C401 H385 0.930 . S
C401 C400 1.375 1_655 S
C401 C402 1.379 . S
C402 H386 0.931 . S
C402 C396 1.383 . S
C402 C401 1.379 . S
H403 C397 0.959 . S
H404 C397 0.961 . S
H405 C397 0.960 . S
H406 C398 0.930 . S
H407 C399 0.929 . S
H408 C416 0.929 . S
H409 C418 0.930 . S
H410 C420 0.930 . S
H411 C423 0.929 . S
H412 C426 0.930 . S
H413 C428 0.960 . S
H414 C428 0.960 . S
H415 C428 0.960 . S
C416 H408 0.929 . S
C416 C417 1.384 . S
C416 C418 1.384 . S
C417 C416 1.384 . S
C417 C423 1.383 1_565 S
C418 H409 0.930 . S
C418 C416 1.384 . S
C418 C419 1.372 . S
C419 C418 1.372 . S
C419 C420 1.400 1_565 S
C419 C424 1.491 . S
C420 H410 0.930 . S
C420 C419 1.400 1_545 S
C420 C423 1.386 . S
H421 C437 0.930 . S
H422 C438 0.931 1_554 S
C423 H411 0.929 . S
C423 C417 1.383 1_545 S
C423 C420 1.386 . S
C424 C419 1.491 . S
C424 C426 1.377 1_565 S
C424 C427 1.421 . S
H425 C431 0.930 . S
C426 H412 0.930 . S
C426 C424 1.377 1_545 S
C426 C429 1.403 . S
C427 C424 1.421 . S
C427 C428 1.524 . S
C427 C431 1.400 . S
C428 H413 0.960 . S
C428 H414 0.960 . S
C428 H415 0.960 . S
C428 C427 1.524 . S
C429 C426 1.403 . S
C429 C430 1.408 . S
C429 C433 1.495 1_554 S
C430 C429 1.408 . S
C430 C431 1.369 1_545 S
C430 C432 1.479 1_554 S
C431 H425 0.930 . S
C431 C427 1.400 . S
C431 C430 1.369 1_565 S
C432 C430 1.479 1_556 S
C432 C434 1.381 1_545 S
C432 C438 1.383 . S
C433 C429 1.495 1_556 S
C433 H439 0.959 . S
C433 H440 0.961 . S
C433 H441 0.960 . S
C434 C432 1.381 1_565 S
C434 C435 1.394 . S
C434 H442 0.930 . S
C435 C434 1.394 . S
C435 C436 1.383 . S
C435 H443 0.929 . S
C436 C435 1.383 . S
C436 C437 1.377 1_565 S
C437 H421 0.930 . S
C437 C436 1.377 1_545 S
C437 C438 1.379 . S
C438 H422 0.931 1_556 S
C438 C432 1.383 . S
C438 C437 1.379 . S
H439 C433 0.959 . S
H440 C433 0.961 . S
H441 C433 0.960 . S
H442 C434 0.930 . S
H443 C435 0.929 . S
H444 C452 0.929 . S
H445 C454 0.930 . S
H446 C456 0.930 . S
H447 C459 0.929 . S
H448 C462 0.930 . S
H449 C464 0.960 . S
H450 C464 0.960 . S
H451 C464 0.960 . S
C452 H444 0.929 . S
C452 C453 1.377 . S
C452 C454 1.384 . S
C453 C452 1.377 . S
C453 C459 1.390 . S
C454 H445 0.930 . S
C454 C452 1.384 . S
C454 C455 1.372 . S
C455 C454 1.372 . S
C455 C456 1.400 . S
C455 C460 1.490 . S
C456 H446 0.930 . S
C456 C455 1.400 . S
C456 C459 1.386 . S
H457 C473 0.930 . S
H458 C474 0.931 . S
C459 H447 0.929 . S
C459 C453 1.390 . S
C459 C456 1.386 . S
C460 C455 1.490 . S
C460 C462 1.395 . S
C460 C463 1.403 . S
H461 C467 0.930 . S
C462 H448 0.930 . S
C462 C460 1.395 . S
C462 C465 1.403 . S
C463 C460 1.403 . S
C463 C464 1.524 . S
C463 C467 1.400 . S
C464 H449 0.960 . S
C464 H450 0.960 . S
C464 H451 0.960 . S
C464 C463 1.524 . S
C465 C462 1.403 . S
C465 C466 1.392 . S
C465 C469 1.495 1_554 S
C466 C465 1.392 . S
C466 C467 1.385 . S
C466 C468 1.478 1_554 S
C467 H461 0.930 . S
C467 C463 1.400 . S
C467 C466 1.385 . S
C468 C466 1.478 1_556 S
C468 C470 1.381 . S
C468 C474 1.383 . S
C469 C465 1.495 1_556 S
C469 H475 0.959 . S
C469 H476 0.961 . S
C469 H477 0.960 . S
C470 C468 1.381 . S
C470 C471 1.394 . S
C470 H478 0.930 . S
C471 C470 1.394 . S
C471 C472 1.383 . S
C471 H479 0.929 . S
C472 C471 1.383 . S
C472 C473 1.377 . S
C473 H457 0.930 . S
C473 C472 1.377 . S
C473 C474 1.379 . S
C474 H458 0.931 . S
C474 C468 1.383 . S
C474 C473 1.379 . S
H475 C469 0.959 . S
H476 C469 0.961 . S
H477 C469 0.960 . S
H478 C470 0.930 . S
H479 C471 0.929 . S
H480 C488 0.929 . S
H481 C490 0.930 . S
H482 C492 0.930 . S
H483 C495 0.929 . S
H484 C498 0.930 . S
H485 C500 0.960 . S
H486 C500 0.960 . S
H487 C500 0.960 . S
C488 H480 0.929 . S
C488 C489 1.377 . S
C488 C490 1.384 . S
C489 C488 1.377 . S
C489 C495 1.390 . S
C490 H481 0.930 . S
C490 C488 1.384 . S
C490 C491 1.372 . S
C491 C490 1.372 . S
C491 C492 1.400 . S
C491 C496 1.490 . S
C492 H482 0.930 . S
C492 C491 1.400 . S
C492 C495 1.386 . S
H493 C509 0.930 . S
H494 C510 0.931 1_554 S
C495 H483 0.929 . S
C495 C489 1.390 . S
C495 C492 1.386 . S
C496 C491 1.490 . S
C496 C498 1.395 . S
C496 C499 1.403 . S
H497 C503 0.930 . S
C498 H484 0.930 . S
C498 C496 1.395 . S
C498 C501 1.403 . S
C499 C496 1.403 . S
C499 C500 1.524 . S
C499 C503 1.400 . S
C500 H485 0.960 . S
C500 H486 0.960 . S
C500 H487 0.960 . S
C500 C499 1.524 . S
C501 C498 1.403 . S
C501 C502 1.392 . S
C501 C505 1.495 . S
C502 C501 1.392 . S
C502 C503 1.385 . S
C502 C504 1.478 1_554 S
C503 H497 0.930 . S
C503 C499 1.400 . S
C503 C502 1.385 . S
C504 C502 1.478 1_556 S
C504 C506 1.381 . S
C504 C510 1.383 . S
C505 C501 1.495 . S
C505 H511 0.959 . S
C505 H512 0.961 . S
C505 H513 0.960 1_554 S
C506 C504 1.381 . S
C506 C507 1.394 . S
C506 H514 0.930 . S
C507 C506 1.394 . S
C507 C508 1.383 . S
C507 H515 0.929 . S
C508 C507 1.383 . S
C508 C509 1.377 . S
C509 H493 0.930 . S
C509 C508 1.377 . S
C509 C510 1.379 . S
C510 H494 0.931 1_556 S
C510 C504 1.383 . S
C510 C509 1.379 . S
H511 C505 0.959 . S
H512 C505 0.961 . S
H513 C505 0.960 1_556 S
H514 C506 0.930 . S
H515 C507 0.929 . S
H516 C524 0.929 . S
H517 C526 0.930 . S
H518 C528 0.930 . S
H519 C531 0.929 . S
H520 C534 0.930 . S
H521 C536 0.961 1_556 S
H522 C536 0.944 1_455 S
H523 C536 0.976 . S
C524 H516 0.929 . S
C524 C525 1.377 . S
C524 C526 1.384 . S
C525 C524 1.377 . S
C525 C531 1.390 1_455 S
C526 H517 0.930 . S
C526 C524 1.384 . S
C526 C527 1.400 . S
C527 C526 1.400 . S
C527 C528 1.372 1_455 S
C527 C532 1.490 . S
C528 H518 0.930 . S
C528 C527 1.372 1_655 S
C528 C531 1.386 . S
H529 C545 0.930 . S
H530 C546 0.931 . S
C531 H519 0.929 . S
C531 C525 1.390 1_655 S
C531 C528 1.386 . S
C532 C527 1.490 . S
C532 C534 1.396 . S
C532 C535 1.401 1_455 S
H533 C539 0.935 1_556 S
C534 H520 0.930 . S
C534 C532 1.396 . S
C534 C537 1.403 . S
C535 C532 1.401 1_655 S
C535 C536 1.524 . S
C535 C539 1.400 . S
C536 H521 0.961 1_554 S
C536 H522 0.944 1_655 S
C536 H523 0.976 . S
C536 C535 1.524 . S
C537 C534 1.403 . S
C537 C538 1.393 1_455 S
C537 C541 1.495 . S
C538 C537 1.393 1_655 S
C538 C539 1.384 . S
C538 C540 1.477 1_554 S
C539 H533 0.935 1_554 S
C539 C535 1.400 . S
C539 C538 1.384 . S
C540 C538 1.477 1_556 S
C540 C542 1.351 1_655 S
C540 C546 1.414 . S
C541 C537 1.495 . S
C541 H547 0.959 . S
C541 H548 0.961 1_455 S
C541 H549 0.960 . S
C542 C540 1.351 1_455 S
C542 C543 1.394 . S
C542 H550 0.930 1_556 S
C543 C542 1.394 . S
C543 C544 1.383 1_455 S
C543 H551 0.929 . S
C544 C543 1.383 1_655 S
C544 C545 1.377 . S
C545 H529 0.930 . S
C545 C544 1.377 . S
C545 C546 1.379 . S
C546 H530 0.931 . S
C546 C540 1.414 . S
C546 C545 1.379 . S
H547 C541 0.959 . S
H548 C541 0.961 1_655 S
H549 C541 0.960 . S
H550 C542 0.930 1_554 S
H551 C543 0.929 . S
H552 C560 0.929 1_556 S
H553 C562 0.930 . S
H554 C564 0.930 . S
H555 C567 0.929 . S
H556 C570 0.930 . S
H557 C572 0.960 . S
H558 C572 0.960 . S
H559 C572 0.960 . S
C560 H552 0.929 1_554 S
C560 C561 1.377 . S
C560 C562 1.384 . S
C561 C560 1.377 . S
C561 C567 1.390 1_455 S
C562 H553 0.930 . S
C562 C560 1.384 . S
C562 C563 1.372 1_455 S
C563 C562 1.372 1_655 S
C563 C564 1.400 . S
C563 C568 1.490 . S
C564 H554 0.930 . S
C564 C563 1.400 . S
C564 C567 1.386 . S
H565 C581 0.930 . S
H566 C582 0.931 . S
C567 H555 0.929 . S
C567 C561 1.390 1_655 S
C567 C564 1.386 . S
C568 C563 1.490 . S
C568 C570 1.395 1_655 S
C568 C571 1.403 . S
H569 C575 0.930 . S
C570 H556 0.930 . S
C570 C568 1.395 1_455 S
C570 C573 1.403 . S
C571 C568 1.403 . S
C571 C572 1.524 . S
C571 C575 1.400 . S
C572 H557 0.960 . S
C572 H558 0.960 . S
C572 H559 0.960 . S
C572 C571 1.524 . S
C573 C570 1.403 . S
C573 C574 1.392 1_455 S
C573 C577 1.495 . S
C574 C573 1.392 1_655 S
C574 C575 1.385 . S
C574 C576 1.478 . S
C575 H569 0.930 . S
C575 C571 1.400 . S
C575 C574 1.385 . S
C576 C574 1.478 . S
C576 C578 1.381 . S
C576 C582 1.383 . S
C577 C573 1.495 . S
C577 H583 0.959 . S
C577 H584 0.961 . S
C577 H585 0.960 . S
C578 C576 1.381 . S
C578 C579 1.394 . S
C578 H586 0.930 . S
C579 C578 1.394 . S
C579 C580 1.383 . S
C579 H587 0.929 . S
C580 C579 1.383 . S
C580 C581 1.377 . S
C581 H565 0.930 . S
C581 C580 1.377 . S
C581 C582 1.379 . S
C582 H566 0.931 . S
C582 C576 1.383 . S
C582 C581 1.379 . S
H583 C577 0.959 . S
H584 C577 0.961 . S
H585 C577 0.960 . S
H586 C578 0.930 . S
H587 C579 0.929 . S
H588 C596 0.929 1_556 S
H589 C598 0.930 . S
H590 C600 0.930 . S
H591 C603 0.929 . S
H592 C606 0.930 1_545 S
H593 C608 0.960 . S
H594 C608 0.960 . S
H595 C608 0.960 . S
C596 H588 0.929 1_554 S
C596 C597 1.377 1_565 S
C596 C598 1.384 . S
C597 C596 1.377 1_545 S
C597 C603 1.390 . S
C598 H589 0.930 . S
C598 C596 1.384 . S
C598 C599 1.372 . S
C599 C598 1.372 . S
C599 C600 1.400 1_565 S
C599 C604 1.490 . S
C600 H590 0.930 . S
C600 C599 1.400 1_545 S
C600 C603 1.386 . S
H601 C617 0.930 . S
H602 C618 0.931 . S
C603 H591 0.929 . S
C603 C597 1.390 . S
C603 C600 1.386 . S
C604 C599 1.490 . S
C604 C606 1.395 . S
C604 C607 1.403 . S
H605 C611 0.930 . S
C606 H592 0.930 1_565 S
C606 C604 1.395 . S
C606 C609 1.403 . S
C607 C604 1.403 . S
C607 C608 1.524 . S
C607 C611 1.400 . S
C608 H593 0.960 . S
C608 H594 0.960 . S
C608 H595 0.960 . S
C608 C607 1.524 . S
C609 C606 1.403 . S
C609 C610 1.392 . S
C609 C613 1.495 1_565 S
C610 C609 1.392 . S
C610 C611 1.385 . S
C610 C612 1.478 . S
C611 H605 0.930 . S
C611 C607 1.400 . S
C611 C610 1.385 . S
C612 C610 1.478 . S
C612 C614 1.381 . S
C612 C618 1.383 . S
C613 C609 1.495 1_545 S
C613 H619 0.959 . S
C613 H620 0.961 . S
C613 H621 0.960 1_545 S
C614 C612 1.381 . S
C614 C615 1.394 . S
C614 H622 0.930 . S
C615 C614 1.394 . S
C615 C616 1.383 . S
C615 H623 0.929 . S
C616 C615 1.383 . S
C616 C617 1.377 . S
C617 H601 0.930 . S
C617 C616 1.377 . S
C617 C618 1.379 . S
C618 H602 0.931 . S
C618 C612 1.383 . S
C618 C617 1.379 . S
H619 C613 0.959 . S
H620 C613 0.961 . S
H621 C613 0.960 1_565 S
H622 C614 0.930 . S
H623 C615 0.929 . S
H624 C632 0.929 . S
H625 C634 0.930 . S
H626 C636 0.930 . S
H627 C639 0.929 1_556 S
H628 C642 0.930 . S
H629 C644 0.960 . S
H630 C644 0.960 . S
H631 C644 0.960 . S
C632 H624 0.929 . S
C632 C633 1.377 . S
C632 C634 1.384 . S
C633 C632 1.377 . S
C633 C639 1.390 . S
C634 H625 0.930 . S
C634 C632 1.384 . S
C634 C635 1.372 . S
C635 C634 1.372 . S
C635 C636 1.400 . S
C635 C640 1.490 . S
C636 H626 0.930 . S
C636 C635 1.400 . S
C636 C639 1.386 . S
H637 C653 0.930 . S
H638 C654 0.931 . S
C639 H627 0.929 1_554 S
C639 C633 1.390 . S
C639 C636 1.386 . S
C640 C635 1.490 . S
C640 C642 1.395 . S
C640 C643 1.403 . S
H641 C647 0.930 . S
C642 H628 0.930 . S
C642 C640 1.395 . S
C642 C645 1.403 . S
C643 C640 1.403 . S
C643 C644 1.524 . S
C643 C647 1.400 . S
C644 H629 0.960 . S
C644 H630 0.960 . S
C644 H631 0.960 . S
C644 C643 1.524 . S
C645 C642 1.403 . S
C645 C646 1.392 . S
C645 C649 1.495 . S
C646 C645 1.392 . S
C646 C647 1.385 . S
C646 C648 1.478 . S
C647 H641 0.930 . S
C647 C643 1.400 . S
C647 C646 1.385 . S
C648 C646 1.478 . S
C648 C650 1.381 . S
C648 C654 1.383 . S
C649 C645 1.495 . S
C649 H655 0.959 . S
C649 H656 0.961 . S
C649 H657 0.960 . S
C650 C648 1.381 . S
C650 C651 1.394 . S
C650 H658 0.930 . S
C651 C650 1.394 . S
C651 C652 1.383 . S
C651 H659 0.929 . S
C652 C651 1.383 . S
C652 C653 1.377 . S
C653 H637 0.930 . S
C653 C652 1.377 . S
C653 C654 1.379 . S
C654 H638 0.931 . S
C654 C648 1.383 . S
C654 C653 1.379 . S
H655 C649 0.959 . S
H656 C649 0.961 . S
H657 C649 0.960 . S
H658 C650 0.930 . S
H659 C651 0.929 . S
H660 C668 0.929 . S
H661 C670 0.930 . S
H662 C672 0.930 . S
H663 C675 0.929 . S
H664 C678 0.930 . S
H665 C680 0.960 . S
H666 C680 0.960 . S
H667 C680 0.960 . S
C668 H660 0.929 . S
C668 C669 1.377 . S
C668 C670 1.384 . S
C669 C668 1.377 . S
C669 C675 1.390 . S
C670 H661 0.930 . S
C670 C668 1.384 . S
C670 C671 1.372 . S
C671 C670 1.372 . S
C671 C672 1.400 . S
C671 C676 1.490 . S
C672 H662 0.930 . S
C672 C671 1.400 . S
C672 C675 1.386 . S
H673 C689 0.930 . S
H674 C690 0.931 . S
C675 H663 0.929 . S
C675 C669 1.390 . S
C675 C672 1.386 . S
C676 C671 1.490 . S
C676 C678 1.395 . S
C676 C679 1.403 . S
H677 C683 0.930 . S
C678 H664 0.930 . S
C678 C676 1.395 . S
C678 C681 1.403 . S
C679 C676 1.403 . S
C679 C680 1.524 . S
C679 C683 1.400 . S
C680 H665 0.960 . S
C680 H666 0.960 . S
C680 H667 0.960 . S
C680 C679 1.524 . S
C681 C678 1.403 . S
C681 C682 1.392 . S
C681 C685 1.495 . S
C682 C681 1.392 . S
C682 C683 1.385 . S
C682 C684 1.478 . S
C683 H677 0.930 . S
C683 C679 1.400 . S
C683 C682 1.385 . S
C684 C682 1.478 . S
C684 C686 1.381 . S
C684 C690 1.383 . S
C685 C681 1.495 . S
C685 H691 0.959 . S
C685 H692 0.961 . S
C685 H693 0.960 . S
C686 C684 1.381 . S
C686 C687 1.394 . S
C686 H694 0.930 . S
C687 C686 1.394 . S
C687 C688 1.383 . S
C687 H695 0.929 . S
C688 C687 1.383 . S
C688 C689 1.377 . S
C689 H673 0.930 . S
C689 C688 1.377 . S
C689 C690 1.379 . S
C690 H674 0.931 . S
C690 C684 1.383 . S
C690 C689 1.379 . S
H691 C685 0.959 . S
H692 C685 0.961 . S
H693 C685 0.960 . S
H694 C686 0.930 . S
H695 C687 0.929 . S
H696 C704 0.929 . S
H697 C706 0.930 . S
H698 C708 0.930 . S
H699 C711 0.929 . S
H700 C714 0.930 . S
H701 C716 0.960 . S
H702 C716 0.960 1_655 S
H703 C716 0.960 . S
C704 H696 0.929 . S
C704 C705 1.377 . S
C704 C706 1.384 . S
C705 C704 1.377 . S
C705 C711 1.390 1_655 S
C706 H697 0.930 . S
C706 C704 1.384 . S
C706 C707 1.372 1_655 S
C707 C706 1.372 1_455 S
C707 C708 1.400 . S
C707 C712 1.490 . S
C708 H698 0.930 . S
C708 C707 1.400 . S
C708 C711 1.386 . S
H709 C725 0.930 1_556 S
H710 C726 0.931 . S
C711 H699 0.929 . S
C711 C705 1.390 1_455 S
C711 C708 1.386 . S
C712 C707 1.490 . S
C712 C714 1.395 . S
C712 C715 1.403 . S
H713 C719 0.930 . S
C714 H700 0.930 . S
C714 C712 1.395 . S
C714 C717 1.403 . S
C715 C712 1.403 . S
C715 C716 1.524 . S
C715 C719 1.400 . S
C716 H701 0.960 . S
C716 H702 0.960 1_455 S
C716 H703 0.960 . S
C716 C715 1.524 . S
C717 C714 1.403 . S
C717 C718 1.392 . S
C717 C721 1.495 . S
C718 C717 1.392 . S
C718 C719 1.385 . S
C718 C720 1.478 . S
C719 H713 0.930 . S
C719 C715 1.400 . S
C719 C718 1.385 . S
C720 C718 1.478 . S
C720 C722 1.381 . S
C720 C726 1.383 . S
C721 C717 1.495 . S
C721 H727 0.959 . S
C721 H728 0.961 . S
C721 H729 0.960 . S
C722 C720 1.381 . S
C722 C723 1.394 . S
C722 H730 0.930 1_455 S
C723 C722 1.394 . S
C723 C724 1.383 . S
C723 H731 0.929 . S
C724 C723 1.383 . S
C724 C725 1.377 . S
C725 H709 0.930 1_554 S
C725 C724 1.377 . S
C725 C726 1.379 . S
C726 H710 0.931 . S
C726 C720 1.383 . S
C726 C725 1.379 . S
H727 C721 0.959 . S
H728 C721 0.961 . S
H729 C721 0.960 . S
H730 C722 0.930 1_655 S
H731 C723 0.929 . S
H732 C740 0.929 . S
H733 C742 0.930 . S
H734 C744 0.930 . S
H735 C747 0.929 . S
H736 C750 0.930 . S
H737 C752 0.960 . S
H738 C752 0.960 . S
H739 C752 0.960 1_545 S
C740 H732 0.929 . S
C740 C741 1.377 . S
C740 C742 1.384 . S
C741 C740 1.377 . S
C741 C747 1.390 1_565 S
C742 H733 0.930 . S
C742 C740 1.384 . S
C742 C743 1.372 1_565 S
C743 C742 1.372 1_545 S
C743 C744 1.400 . S
C743 C748 1.490 . S
C744 H734 0.930 . S
C744 C743 1.400 . S
C744 C747 1.386 . S
H745 C761 0.930 1_556 S
H746 C762 0.931 . S
C747 H735 0.929 . S
C747 C741 1.390 1_545 S
C747 C744 1.386 . S
C748 C743 1.490 . S
C748 C750 1.395 . S
C748 C751 1.403 . S
H749 C755 0.930 . S
C750 H736 0.930 . S
C750 C748 1.395 . S
C750 C753 1.403 . S
C751 C748 1.403 . S
C751 C752 1.524 1_545 S
C751 C755 1.400 . S
C752 H737 0.960 . S
C752 H738 0.960 . S
C752 H739 0.960 1_565 S
C752 C751 1.524 1_565 S
C753 C750 1.403 . S
C753 C754 1.392 . S
C753 C757 1.495 . S
C754 C753 1.392 . S
C754 C755 1.385 . S
C754 C756 1.478 . S
C755 H749 0.930 . S
C755 C751 1.400 . S
C755 C754 1.385 . S
C756 C754 1.478 . S
C756 C758 1.381 . S
C756 C762 1.383 . S
C757 C753 1.495 . S
C757 H763 0.959 . S
C757 H764 0.961 . S
C757 H765 0.960 . S
C758 C756 1.381 . S
C758 C759 1.394 . S
C758 H766 0.936 . S
C759 C758 1.394 . S
C759 C760 1.383 . S
C759 H767 0.929 . S
C760 C759 1.383 . S
C760 C761 1.377 . S
C761 H745 0.930 1_554 S
C761 C760 1.377 . S
C761 C762 1.379 . S
C762 H746 0.931 . S
C762 C756 1.383 . S
C762 C761 1.379 . S
H763 C757 0.959 . S
H764 C757 0.961 . S
H765 C757 0.960 . S
H766 C758 0.936 . S
H767 C759 0.929 . S
H768 C776 0.929 . S
H769 C778 0.930 . S
H770 C780 0.930 . S
H771 C783 0.929 . S
H772 C786 0.930 . S
H773 C788 0.960 . S
H774 C788 0.960 . S
H775 C788 0.960 . S
C776 H768 0.929 . S
C776 C777 1.377 . S
C776 C778 1.384 . S
C777 C776 1.377 . S
C777 C783 1.390 . S
C778 H769 0.930 . S
C778 C776 1.384 . S
C778 C779 1.372 . S
C779 C778 1.372 . S
C779 C780 1.400 . S
C779 C784 1.490 . S
C780 H770 0.930 . S
C780 C779 1.400 . S
C780 C783 1.386 . S
H781 C797 0.930 . S
H782 C798 0.931 . S
C783 H771 0.929 . S
C783 C777 1.390 . S
C783 C780 1.386 . S
C784 C779 1.490 . S
C784 C786 1.395 . S
C784 C787 1.403 . S
H785 C791 0.930 . S
C786 H772 0.930 . S
C786 C784 1.395 . S
C786 C789 1.403 . S
C787 C784 1.403 . S
C787 C788 1.524 . S
C787 C791 1.400 . S
C788 H773 0.960 . S
C788 H774 0.960 . S
C788 H775 0.960 . S
C788 C787 1.524 . S
C789 C786 1.403 . S
C789 C790 1.392 . S
C789 C793 1.495 . S
C790 C789 1.392 . S
C790 C791 1.385 . S
C790 C792 1.478 . S
C791 H785 0.930 . S
C791 C787 1.400 . S
C791 C790 1.385 . S
C792 C790 1.478 . S
C792 C794 1.381 . S
C792 C798 1.383 . S
C793 C789 1.495 . S
C793 H799 0.959 1_554 S
C793 H800 0.961 1_554 S
C793 H801 0.960 1_554 S
C794 C792 1.381 . S
C794 C795 1.394 . S
C794 H802 0.930 . S
C795 C794 1.394 . S
C795 C796 1.383 . S
C795 H803 0.929 . S
C796 C795 1.383 . S
C796 C797 1.377 . S
C797 H781 0.930 . S
C797 C796 1.377 . S
C797 C798 1.379 . S
C798 H782 0.931 . S
C798 C792 1.383 . S
C798 C797 1.379 . S
H799 C793 0.959 1_556 S
H800 C793 0.961 1_556 S
H801 C793 0.960 1_556 S
H802 C794 0.930 . S
H803 C795 0.929 . S
H804 C812 0.929 . S
H805 C814 0.930 . S
H806 C816 0.930 . S
H807 C819 0.929 . S
H808 C822 0.930 . S
H809 C824 0.960 . S
H810 C824 0.960 . S
H811 C824 0.960 . S
C812 H804 0.929 . S
C812 C813 1.377 . S
C812 C814 1.384 . S
C813 C812 1.377 . S
C813 C819 1.390 . S
C814 H805 0.930 . S
C814 C812 1.384 . S
C814 C815 1.372 . S
C815 C814 1.372 . S
C815 C816 1.400 . S
C815 C820 1.490 . S
C816 H806 0.930 . S
C816 C815 1.400 . S
C816 C819 1.386 . S
H817 C833 0.930 . S
H818 C834 0.931 . S
C819 H807 0.929 . S
C819 C813 1.390 . S
C819 C816 1.386 . S
C820 C815 1.490 . S
C820 C822 1.395 . S
C820 C823 1.403 . S
H821 C827 0.930 . S
C822 H808 0.930 . S
C822 C820 1.395 . S
C822 C825 1.403 . S
C823 C820 1.403 . S
C823 C824 1.524 . S
C823 C827 1.400 . S
C824 H809 0.960 . S
C824 H810 0.960 . S
C824 H811 0.960 . S
C824 C823 1.524 . S
C825 C822 1.403 . S
C825 C826 1.392 . S
C825 C829 1.495 . S
C826 C825 1.392 . S
C826 C827 1.385 . S
C826 C828 1.478 . S
C827 H821 0.930 . S
C827 C823 1.400 . S
C827 C826 1.385 . S
C828 C826 1.478 . S
C828 C830 1.381 . S
C828 C834 1.383 . S
C829 C825 1.495 . S
C829 H835 0.959 . S
C829 H836 0.961 . S
C829 H837 0.960 . S
C830 C828 1.381 . S
C830 C831 1.394 . S
C830 H838 0.930 . S
C831 C830 1.394 . S
C831 C832 1.383 . S
C831 H839 0.929 . S
C832 C831 1.383 . S
C832 C833 1.377 1_554 S
C833 H817 0.930 . S
C833 C832 1.377 1_556 S
C833 C834 1.379 1_556 S
C834 H818 0.931 . S
C834 C828 1.383 . S
C834 C833 1.379 1_554 S
H835 C829 0.959 . S
H836 C829 0.961 . S
H837 C829 0.960 . S
H838 C830 0.930 . S
H839 C831 0.929 . S
H840 C848 0.929 . S
H841 C850 0.930 . S
H842 C852 0.930 . S
H843 C855 0.929 1_554 S
H844 C858 0.930 . S
H845 C860 0.960 . S
H846 C860 0.960 . S
H847 C860 0.960 1_455 S
C848 H840 0.929 . S
C848 C849 1.354 1_655 S
C848 C850 1.384 . S
C849 C848 1.354 1_455 S
C849 C855 1.415 . S
C850 H841 0.930 . S
C850 C848 1.384 . S
C850 C851 1.372 1_655 S
C851 C850 1.372 1_455 S
C851 C852 1.400 . S
C851 C856 1.490 . S
C852 H842 0.930 . S
C852 C851 1.400 . S
C852 C855 1.386 . S
H853 C869 0.930 . S
H854 C870 0.931 . S
C855 H843 0.929 1_556 S
C855 C849 1.415 . S
C855 C852 1.386 . S
C856 C851 1.490 . S
C856 C858 1.395 . S
C856 C859 1.403 1_455 S
H857 C863 0.923 1_655 S
C858 H844 0.930 . S
C858 C856 1.395 . S
C858 C861 1.403 . S
C859 C856 1.403 1_655 S
C859 C860 1.524 1_556 S
C859 C863 1.396 1_655 S
C860 H845 0.960 . S
C860 H846 0.960 . S
C860 H847 0.960 1_655 S
C860 C859 1.524 1_554 S
C861 C858 1.403 . S
C861 C862 1.392 . S
C861 C865 1.495 . S
C862 C861 1.392 . S
C862 C863 1.398 . S
C862 C864 1.478 . S
C863 H857 0.923 1_455 S
C863 C859 1.396 1_455 S
C863 C862 1.398 . S
C864 C862 1.478 . S
C864 C866 1.381 1_455 S
C864 C870 1.383 . S
C865 C861 1.495 . S
C865 H871 0.959 . S
C865 H872 0.961 . S
C865 H873 0.960 . S
C866 C864 1.381 1_655 S
C866 C867 1.394 . S
C866 H874 0.930 . S
C867 C866 1.394 . S
C867 C868 1.383 1_655 S
C867 H875 0.929 . S
C868 C867 1.383 1_455 S
C868 C869 1.377 . S
C869 H853 0.930 . S
C869 C868 1.377 . S
C869 C870 1.379 . S
C870 H854 0.931 . S
C870 C864 1.383 . S
C870 C869 1.379 . S
H871 C865 0.959 . S
H872 C865 0.961 . S
H873 C865 0.960 . S
H874 C866 0.930 . S
H875 C867 0.929 . S
H876 C884 0.929 . S
H877 C886 0.930 . S
H878 C888 0.930 . S
H879 C891 0.929 . S
H880 C894 0.930 1_554 S
H881 C896 0.960 . S
H882 C896 0.960 . S
H883 C896 0.960 1_565 S
C884 H876 0.929 . S
C884 C885 1.377 . S
C884 C886 1.384 . S
C885 C884 1.377 . S
C885 C891 1.390 1_545 S
C886 H877 0.930 . S
C886 C884 1.384 . S
C886 C887 1.372 . S
C887 C886 1.372 . S
C887 C888 1.400 1_545 S
C887 C892 1.490 . S
C888 H878 0.930 . S
C888 C887 1.400 1_565 S
C888 C891 1.386 . S
H889 C905 0.930 . S
H890 C906 0.931 . S
C891 H879 0.929 . S
C891 C885 1.390 1_565 S
C891 C888 1.386 . S
C892 C887 1.490 . S
C892 C894 1.395 . S
C892 C895 1.403 . S
H893 C899 0.930 . S
C894 H880 0.930 1_556 S
C894 C892 1.395 . S
C894 C897 1.403 . S
C895 C892 1.403 . S
C895 C896 1.524 . S
C895 C899 1.400 . S
C896 H881 0.960 . S
C896 H882 0.960 . S
C896 H883 0.960 1_545 S
C896 C895 1.524 . S
C897 C894 1.403 . S
C897 C898 1.392 . S
C897 C901 1.495 1_556 S
C898 C897 1.392 . S
C898 C899 1.385 . S
C898 C900 1.478 . S
C899 H893 0.930 . S
C899 C895 1.400 . S
C899 C898 1.385 . S
C900 C898 1.478 . S
C900 C902 1.381 . S
C900 C906 1.383 1_545 S
C901 C897 1.495 1_554 S
C901 H907 0.959 . S
C901 H908 0.961 1_545 S
C901 H909 0.960 . S
C902 C900 1.381 . S
C902 C903 1.394 . S
C902 H910 0.930 . S
C903 C902 1.394 . S
C903 C904 1.383 . S
C903 H911 0.929 . S
C904 C903 1.383 . S
C904 C905 1.377 1_545 S
C905 H889 0.930 . S
C905 C904 1.377 1_565 S
C905 C906 1.379 . S
C906 H890 0.931 . S
C906 C900 1.383 1_565 S
C906 C905 1.379 . S
H907 C901 0.959 . S
H908 C901 0.961 1_565 S
H909 C901 0.960 . S
H910 C902 0.930 . S
H911 C903 0.929 . S
H912 C920 0.929 . S
H913 C922 0.930 . S
H914 C924 0.930 . S
H915 C927 0.929 . S
H916 C930 0.930 . S
H917 C932 0.960 . S
H918 C932 0.960 . S
H919 C932 0.960 . S
C920 H912 0.929 . S
C920 C921 1.377 . S
C920 C922 1.384 . S
C921 C920 1.377 . S
C921 C927 1.390 . S
C922 H913 0.930 . S
C922 C920 1.384 . S
C922 C923 1.372 . S
C923 C922 1.372 . S
C923 C924 1.400 . S
C923 C928 1.490 . S
C924 H914 0.930 . S
C924 C923 1.400 . S
C924 C927 1.386 . S
H925 C941 0.930 . S
H926 C942 0.931 . S
C927 H915 0.929 . S
C927 C921 1.390 . S
C927 C924 1.386 . S
C928 C923 1.490 . S
C928 C930 1.395 . S
C928 C931 1.403 . S
H929 C935 0.930 . S
C930 H916 0.930 . S
C930 C928 1.395 . S
C930 C933 1.403 . S
C931 C928 1.403 . S
C931 C932 1.524 1_556 S
C931 C935 1.400 . S
C932 H917 0.960 . S
C932 H918 0.960 . S
C932 H919 0.960 . S
C932 C931 1.524 1_554 S
C933 C930 1.403 . S
C933 C934 1.392 . S
C933 C937 1.495 . S
C934 C933 1.392 . S
C934 C935 1.385 . S
C934 C936 1.478 . S
C935 H929 0.930 . S
C935 C931 1.400 . S
C935 C934 1.385 . S
C936 C934 1.478 . S
C936 C938 1.381 . S
C936 C942 1.383 . S
C937 C933 1.495 . S
C937 H943 0.959 . S
C937 H944 0.961 . S
C937 H945 0.960 . S
C938 C936 1.381 . S
C938 C939 1.394 . S
C938 H946 0.930 . S
C939 C938 1.394 . S
C939 C940 1.383 . S
C939 H947 0.929 . S
C940 C939 1.383 . S
C940 C941 1.377 . S
C941 H925 0.930 . S
C941 C940 1.377 . S
C941 C942 1.379 . S
C942 H926 0.931 . S
C942 C936 1.383 . S
C942 C941 1.379 . S
H943 C937 0.959 . S
H944 C937 0.961 . S
H945 C937 0.960 . S
H946 C938 0.930 . S
H947 C939 0.929 . S
H948 C956 0.929 1_554 S
H949 C958 0.930 . S
H950 C960 0.930 . S
H951 C963 0.929 . S
H952 C966 0.930 1_554 S
H953 C968 0.960 . S
H954 C968 0.960 . S
H955 C968 0.960 . S
C956 H948 0.929 1_556 S
C956 C957 1.377 . S
C956 C958 1.384 . S
C957 C956 1.377 . S
C957 C963 1.390 . S
C958 H949 0.930 . S
C958 C956 1.384 . S
C958 C959 1.372 . S
C959 C958 1.372 . S
C959 C960 1.400 . S
C959 C964 1.490 . S
C960 H950 0.930 . S
C960 C959 1.400 . S
C960 C963 1.386 . S
H961 C977 0.930 . S
H962 C978 0.931 . S
C963 H951 0.929 . S
C963 C957 1.390 . S
C963 C960 1.386 . S
C964 C959 1.490 . S
C964 C966 1.395 . S
C964 C967 1.403 . S
H965 C971 0.930 . S
C966 H952 0.930 1_556 S
C966 C964 1.395 . S
C966 C969 1.403 . S
C967 C964 1.403 . S
C967 C968 1.524 . S
C967 C971 1.400 . S
C968 H953 0.960 . S
C968 H954 0.960 . S
C968 H955 0.960 . S
C968 C967 1.524 . S
C969 C966 1.403 . S
C969 C970 1.392 . S
C969 C973 1.495 1_556 S
C970 C969 1.392 . S
C970 C971 1.385 . S
C970 C972 1.478 . S
C971 H965 0.930 . S
C971 C967 1.400 . S
C971 C970 1.385 . S
C972 C970 1.478 . S
C972 C974 1.381 . S
C972 C978 1.383 . S
C973 C969 1.495 1_554 S
C973 H979 0.959 . S
C973 H980 0.961 . S
C973 H981 0.960 . S
C974 C972 1.381 . S
C974 C975 1.394 . S
C974 H982 0.930 . S
C975 C974 1.394 . S
C975 C976 1.383 . S
C975 H983 0.929 . S
C976 C975 1.383 . S
C976 C977 1.377 . S
C977 H961 0.930 . S
C977 C976 1.377 . S
C977 C978 1.379 . S
C978 H962 0.931 . S
C978 C972 1.383 . S
C978 C977 1.379 . S
H979 C973 0.959 . S
H980 C973 0.961 . S
H981 C973 0.960 . S
H982 C974 0.930 . S
H983 C975 0.929 . S
H984 C992 0.929 . S
H985 C994 0.930 . S
H986 C996 0.930 . S
H987 C999 0.929 . S
H988 C1002 0.930 . S
H989 C1004 0.960 . S
H990 C1004 0.960 . S
H991 C1004 0.960 . S
C992 H984 0.929 . S
C992 C993 1.365 1_455 S
C992 C994 1.384 . S
C993 C992 1.365 1_655 S
C993 C999 1.405 . S
C994 H985 0.930 . S
C994 C992 1.384 . S
C994 C995 1.372 1_455 S
C995 C994 1.372 1_655 S
C995 C996 1.400 . S
C995 C1000 1.490 . S
C996 H986 0.930 . S
C996 C995 1.400 . S
C996 C999 1.386 . S
H997 C1013 0.930 . S
H998 C1014 0.931 . S
C999 H987 0.929 . S
C999 C993 1.405 . S
C999 C996 1.386 . S
C1000 C995 1.490 . S
C1000 C1002 1.395 . S
C1000 C1003 1.403 1_655 S
H1001 C1007 0.930 . S
C1002 H988 0.930 . S
C1002 C1000 1.395 . S
C1002 C1005 1.403 . S
C1003 C1000 1.403 1_455 S
C1003 C1004 1.524 . S
C1003 C1007 1.400 . S
C1004 H989 0.960 . S
C1004 H990 0.960 . S
C1004 H991 0.960 . S
C1004 C1003 1.524 . S
C1005 C1002 1.403 . S
C1005 C1006 1.392 . S
C1005 C1009 1.495 . S
C1006 C1005 1.392 . S
C1006 C1007 1.385 1_655 S
C1006 C1008 1.478 . S
C1007 H1001 0.930 . S
C1007 C1003 1.400 . S
C1007 C1006 1.385 1_455 S
C1008 C1006 1.478 . S
C1008 C1010 1.381 . S
C1008 C1014 1.383 . S
C1009 C1005 1.495 . S
C1009 H1015 0.959 . S
C1009 H1016 0.961 . S
C1009 H1017 0.960 . S
C1010 C1008 1.381 . S
C1010 C1011 1.394 . S
C1010 H1018 0.930 1_655 S
C1011 C1010 1.394 . S
C1011 C1012 1.383 . S
C1011 H1019 0.929 1_655 S
C1012 C1011 1.383 . S
C1012 C1013 1.377 . S
C1013 H997 0.930 . S
C1013 C1012 1.377 . S
C1013 C1014 1.379 . S
C1014 H998 0.931 . S
C1014 C1008 1.383 . S
C1014 C1013 1.379 . S
H1015 C1009 0.959 . S
H1016 C1009 0.961 . S
H1017 C1009 0.960 . S
H1018 C1010 0.930 1_455 S
H1019 C1011 0.929 1_455 S
H1020 C1028 0.929 . S
H1021 C1030 0.930 . S
H1022 C1032 0.930 . S
H1023 C1035 0.929 . S
H1024 C1038 0.930 . S
H1025 C1040 0.960 . S
H1026 C1040 0.960 . S
H1027 C1040 0.960 . S
C1028 H1020 0.929 . S
C1028 C1029 1.348 1_545 S
C1028 C1030 1.384 . S
C1029 C1028 1.348 1_565 S
C1029 C1035 1.420 . S
C1030 H1021 0.930 . S
C1030 C1028 1.384 . S
C1030 C1031 1.372 1_545 S
C1031 C1030 1.372 1_565 S
C1031 C1032 1.400 . S
C1031 C1036 1.490 . S
C1032 H1022 0.930 . S
C1032 C1031 1.400 . S
C1032 C1035 1.386 . S
H1033 C1049 0.930 . S
H1034 C1050 0.931 . S
C1035 H1023 0.929 . S
C1035 C1029 1.420 . S
C1035 C1032 1.386 . S
C1036 C1031 1.490 . S
C1036 C1038 1.395 1_565 S
C1036 C1039 1.403 . S
H1037 C1043 0.930 . S
C1038 H1024 0.930 . S
C1038 C1036 1.395 1_545 S
C1038 C1041 1.403 . S
C1039 C1036 1.403 . S
C1039 C1040 1.524 . S
C1039 C1043 1.400 . S
C1040 H1025 0.960 . S
C1040 H1026 0.960 . S
C1040 H1027 0.960 . S
C1040 C1039 1.524 . S
C1041 C1038 1.403 . S
C1041 C1042 1.392 1_545 S
C1041 C1045 1.495 . S
C1042 C1041 1.392 1_565 S
C1042 C1043 1.385 . S
C1042 C1044 1.478 . S
C1043 H1037 0.930 . S
C1043 C1039 1.400 . S
C1043 C1042 1.385 . S
C1044 C1042 1.478 . S
C1044 C1046 1.381 1_565 S
C1044 C1050 1.383 . S
C1045 C1041 1.495 . S
C1045 H1051 0.959 . S
C1045 H1052 0.961 . S
C1045 H1053 0.960 . S
C1046 C1044 1.381 1_545 S
C1046 C1047 1.394 . S
C1046 H1054 0.930 . S
C1047 C1046 1.394 . S
C1047 C1048 1.383 1_545 S
C1047 H1055 0.929 . S
C1048 C1047 1.383 1_565 S
C1048 C1049 1.377 . S
C1049 H1033 0.930 . S
C1049 C1048 1.377 . S
C1049 C1050 1.379 . S
C1050 H1034 0.931 . S
C1050 C1044 1.383 . S
C1050 C1049 1.379 . S
H1051 C1045 0.959 . S
H1052 C1045 0.961 . S
H1053 C1045 0.960 . S
H1054 C1046 0.930 . S
H1055 C1047 0.929 . S
H1056 C1064 0.929 . S
H1057 C1066 0.930 . S
H1058 C1068 0.930 . S
H1059 C1071 0.929 . S
H1060 C1074 0.930 . S
H1061 C1076 0.960 . S
H1062 C1076 0.960 . S
H1063 C1076 0.960 . S
C1064 H1056 0.929 . S
C1064 C1065 1.377 . S
C1064 C1066 1.384 . S
C1065 C1064 1.377 . S
C1065 C1071 1.390 . S
C1066 H1057 0.930 . S
C1066 C1064 1.384 . S
C1066 C1067 1.372 . S
C1067 C1066 1.372 . S
C1067 C1068 1.400 . S
C1067 C1072 1.490 . S
C1068 H1058 0.930 . S
C1068 C1067 1.400 . S
C1068 C1071 1.386 . S
H1069 C1085 0.930 . S
H1070 C1086 0.931 . S
C1071 H1059 0.929 . S
C1071 C1065 1.390 . S
C1071 C1068 1.386 . S
C1072 C1067 1.490 . S
C1072 C1074 1.395 . S
C1072 C1075 1.403 . S
H1073 C1079 0.930 . S
C1074 H1060 0.930 . S
C1074 C1072 1.395 . S
C1074 C1077 1.403 . S
C1075 C1072 1.403 . S
C1075 C1076 1.524 . S
C1075 C1079 1.400 . S
C1076 H1061 0.960 . S
C1076 H1062 0.960 . S
C1076 H1063 0.960 . S
C1076 C1075 1.524 . S
C1077 C1074 1.403 . S
C1077 C1078 1.392 . S
C1077 C1081 1.495 . S
C1078 C1077 1.392 . S
C1078 C1079 1.385 . S
C1078 C1080 1.478 . S
C1079 H1073 0.930 . S
C1079 C1075 1.400 . S
C1079 C1078 1.385 . S
C1080 C1078 1.478 . S
C1080 C1082 1.381 . S
C1080 C1086 1.383 . S
C1081 C1077 1.495 . S
C1081 H1087 0.959 . S
C1081 H1088 0.961 . S
C1081 H1089 0.960 . S
C1082 C1080 1.381 . S
C1082 C1083 1.394 . S
C1082 H1090 0.930 . S
C1083 C1082 1.394 . S
C1083 C1084 1.383 . S
C1083 H1091 0.929 . S
C1084 C1083 1.383 . S
C1084 C1085 1.377 . S
C1085 H1069 0.930 . S
C1085 C1084 1.377 . S
C1085 C1086 1.379 . S
C1086 H1070 0.931 . S
C1086 C1080 1.383 . S
C1086 C1085 1.379 . S
H1087 C1081 0.959 . S
H1088 C1081 0.961 . S
H1089 C1081 0.960 . S
H1090 C1082 0.930 . S
H1091 C1083 0.929 . S
H1092 C1100 0.929 . S
H1093 C1102 0.930 . S
H1094 C1104 0.930 . S
H1095 C1107 0.929 . S
H1096 C1110 0.930 . S
H1097 C1112 0.960 . S
H1098 C1112 0.960 . S
H1099 C1112 0.960 . S
C1100 H1092 0.929 . S
C1100 C1101 1.377 . S
C1100 C1102 1.384 . S
C1101 C1100 1.377 . S
C1101 C1107 1.390 . S
C1102 H1093 0.930 . S
C1102 C1100 1.384 . S
C1102 C1103 1.372 . S
C1103 C1102 1.372 . S
C1103 C1104 1.400 . S
C1103 C1108 1.490 . S
C1104 H1094 0.930 . S
C1104 C1103 1.400 . S
C1104 C1107 1.386 . S
H1105 C1121 0.930 . S
H1106 C1122 0.931 . S
C1107 H1095 0.929 . S
C1107 C1101 1.390 . S
C1107 C1104 1.386 . S
C1108 C1103 1.490 . S
C1108 C1110 1.395 . S
C1108 C1111 1.403 . S
H1109 C1115 0.930 . S
C1110 H1096 0.930 . S
C1110 C1108 1.395 . S
C1110 C1113 1.403 . S
C1111 C1108 1.403 . S
C1111 C1112 1.524 . S
C1111 C1115 1.400 . S
C1112 H1097 0.960 . S
C1112 H1098 0.960 . S
C1112 H1099 0.960 . S
C1112 C1111 1.524 . S
C1113 C1110 1.403 . S
C1113 C1114 1.392 . S
C1113 C1117 1.495 . S
C1114 C1113 1.392 . S
C1114 C1115 1.385 . S
C1114 C1116 1.478 . S
C1115 H1109 0.930 . S
C1115 C1111 1.400 . S
C1115 C1114 1.385 . S
C1116 C1114 1.478 . S
C1116 C1118 1.381 . S
C1116 C1122 1.383 . S
C1117 C1113 1.495 . S
C1117 H1123 0.959 . S
C1117 H1124 0.961 . S
C1117 H1125 0.960 . S
C1118 C1116 1.381 . S
C1118 C1119 1.394 . S
C1118 H1126 0.930 . S
C1119 C1118 1.394 . S
C1119 C1120 1.383 . S
C1119 H1127 0.929 . S
C1120 C1119 1.383 . S
C1120 C1121 1.377 . S
C1121 H1105 0.930 . S
C1121 C1120 1.377 . S
C1121 C1122 1.379 . S
C1122 H1106 0.931 . S
C1122 C1116 1.383 . S
C1122 C1121 1.379 . S
H1123 C1117 0.959 . S
H1124 C1117 0.961 . S
H1125 C1117 0.960 . S
H1126 C1118 0.930 . S
H1127 C1119 0.929 . S
C273 N80 1.798 1_545 S
C292 C113 1.813 . S
C328 C153 1.819 . S
C309 N93 1.794 . S
C364 C193 1.822 . S
C345 N54 1.801 . S
C400 C233 1.829 1_455 S
C381 N67 1.796 1_455 S
C436 C122 1.815 1_565 S
C417 N28 1.799 . S
C453 N41 1.800 . S
C472 C162 1.833 . S
C489 N2 1.794 . S
C508 C202 1.825 . S
C525 N15 1.794 1_455 S
C544 C242 1.840 1_655 S
C580 C119 0.208 . S
C561 N70 0.225 1_455 S
C616 C159 0.255 . S
C597 N83 0.227 1_545 S
C652 C199 0.342 . S
C633 N96 0.251 . S
C669 N57 0.248 . S
C688 C239 0.263 . S
C705 N18 0.241 . S
C724 C110 0.322 . S
C760 C150 0.337 . S
C741 N31 0.238 . S
C796 C190 0.304 . S
C777 N44 0.224 . S
C813 N5 0.238 . S
C832 C230 0.365 . S
C849 N66 1.978 1_455 S
C868 C123 2.039 . S
C885 N79 1.975 1_545 S
C904 C163 2.028 . S
C940 C203 2.027 . S
C921 N92 1.969 . S
C976 C243 2.027 . S
C957 N53 1.975 . S
C993 N14 1.979 . S
C1012 C114 2.053 . S
C1048 C154 2.024 . S
C1029 N27 1.977 . S
C1084 C194 2.029 . S
C1065 N40 1.969 . S
C1101 N1 1.974 . S
C1120 C234 2.046 . S
