# Generated by pormake.
# Topology eea, (3,6)-cn, num edge types: 1
# Building blocks:
#     Node 0, Type 0, BuildingBlock: BETDIP_clean_linker_0, # of connection points: 3
#     Node 1, Type 0, BuildingBlock: BETDIP_clean_linker_0, # of connection points: 3
#     Node 2, Type 0, BuildingBlock: BETDIP_clean_linker_0, # of connection points: 3
#     Node 3, Type 0, BuildingBlock: BETDIP_clean_linker_0, # of connection points: 3
#     Node 4, Type 0, BuildingBlock: BETDIP_clean_linker_0, # of connection points: 3
#     Node 5, Type 0, BuildingBlock: BETDIP_clean_linker_0, # of connection points: 3
#     Node 6, Type 0, BuildingBlock: BETDIP_clean_linker_0, # of connection points: 3
#     Node 7, Type 0, BuildingBlock: BETDIP_clean_linker_0, # of connection points: 3
#     Node 8, Type 0, BuildingBlock: BETDIP_clean_linker_0, # of connection points: 3
#     Node 9, Type 0, BuildingBlock: BETDIP_clean_linker_0, # of connection points: 3
#     Node 10, Type 0, BuildingBlock: BETDIP_clean_linker_0, # of connection points: 3
#     Node 11, Type 0, BuildingBlock: BETDIP_clean_linker_0, # of connection points: 3
#     Node 12, Type 0, BuildingBlock: BETDIP_clean_linker_0, # of connection points: 3
#     Node 13, Type 0, BuildingBlock: BETDIP_clean_linker_0, # of connection points: 3
#     Node 14, Type 0, BuildingBlock: BETDIP_clean_linker_0, # of connection points: 3
#     Node 15, Type 0, BuildingBlock: BETDIP_clean_linker_0, # of connection points: 3
#     Node 16, Type 0, BuildingBlock: BETDIP_clean_linker_0, # of connection points: 3
#     Node 17, Type 0, BuildingBlock: BETDIP_clean_linker_0, # of connection points: 3
#     Node 18, Type 1, BuildingBlock: NUHQIS_clean_sbu_0, # of connection points: 6
#     Node 19, Type 1, BuildingBlock: NUHQIS_clean_sbu_0, # of connection points: 6
#     Node 20, Type 1, BuildingBlock: NUHQIS_clean_sbu_0, # of connection points: 6
#     Node 21, Type 1, BuildingBlock: NUHQIS_clean_sbu_0, # of connection points: 6
#     Node 22, Type 1, BuildingBlock: NUHQIS_clean_sbu_0, # of connection points: 6
#     Node 23, Type 1, BuildingBlock: NUHQIS_clean_sbu_0, # of connection points: 6
#     Node 24, Type 1, BuildingBlock: NUHQIS_clean_sbu_0, # of connection points: 6
#     Node 25, Type 1, BuildingBlock: NUHQIS_clean_sbu_0, # of connection points: 6
#     Node 26, Type 1, BuildingBlock: NUHQIS_clean_sbu_0, # of connection points: 6
#     Edge 27, Type (0, 1), BuildingBlock: XIVTED_clean_linker_0, # of connection points: 2
#     Edge 28, Type (0, 1), BuildingBlock: XIVTED_clean_linker_0, # of connection points: 2
#     Edge 29, Type (0, 1), BuildingBlock: XIVTED_clean_linker_0, # of connection points: 2
#     Edge 30, Type (0, 1), BuildingBlock: XIVTED_clean_linker_0, # of connection points: 2
#     Edge 31, Type (0, 1), BuildingBlock: XIVTED_clean_linker_0, # of connection points: 2
#     Edge 32, Type (0, 1), BuildingBlock: XIVTED_clean_linker_0, # of connection points: 2
#     Edge 33, Type (0, 1), BuildingBlock: XIVTED_clean_linker_0, # of connection points: 2
#     Edge 34, Type (0, 1), BuildingBlock: XIVTED_clean_linker_0, # of connection points: 2
#     Edge 35, Type (0, 1), BuildingBlock: XIVTED_clean_linker_0, # of connection points: 2
#     Edge 36, Type (0, 1), BuildingBlock: XIVTED_clean_linker_0, # of connection points: 2
#     Edge 37, Type (0, 1), BuildingBlock: XIVTED_clean_linker_0, # of connection points: 2
#     Edge 38, Type (0, 1), BuildingBlock: XIVTED_clean_linker_0, # of connection points: 2
#     Edge 39, Type (0, 1), BuildingBlock: XIVTED_clean_linker_0, # of connection points: 2
#     Edge 40, Type (0, 1), BuildingBlock: XIVTED_clean_linker_0, # of connection points: 2
#     Edge 41, Type (0, 1), BuildingBlock: XIVTED_clean_linker_0, # of connection points: 2
#     Edge 42, Type (0, 1), BuildingBlock: XIVTED_clean_linker_0, # of connection points: 2
#     Edge 43, Type (0, 1), BuildingBlock: XIVTED_clean_linker_0, # of connection points: 2
#     Edge 44, Type (0, 1), BuildingBlock: XIVTED_clean_linker_0, # of connection points: 2
#     Edge 45, Type (0, 1), BuildingBlock: XIVTED_clean_linker_0, # of connection points: 2
#     Edge 46, Type (0, 1), BuildingBlock: XIVTED_clean_linker_0, # of connection points: 2
#     Edge 47, Type (0, 1), BuildingBlock: XIVTED_clean_linker_0, # of connection points: 2
#     Edge 48, Type (0, 1), BuildingBlock: XIVTED_clean_linker_0, # of connection points: 2
#     Edge 49, Type (0, 1), BuildingBlock: XIVTED_clean_linker_0, # of connection points: 2
#     Edge 50, Type (0, 1), BuildingBlock: XIVTED_clean_linker_0, # of connection points: 2
#     Edge 51, Type (0, 1), BuildingBlock: XIVTED_clean_linker_0, # of connection points: 2
#     Edge 52, Type (0, 1), BuildingBlock: XIVTED_clean_linker_0, # of connection points: 2
#     Edge 53, Type (0, 1), BuildingBlock: XIVTED_clean_linker_0, # of connection points: 2
#     Edge 54, Type (0, 1), BuildingBlock: XIVTED_clean_linker_0, # of connection points: 2
#     Edge 55, Type (0, 1), BuildingBlock: XIVTED_clean_linker_0, # of connection points: 2
#     Edge 56, Type (0, 1), BuildingBlock: XIVTED_clean_linker_0, # of connection points: 2
#     Edge 57, Type (0, 1), BuildingBlock: XIVTED_clean_linker_0, # of connection points: 2
#     Edge 58, Type (0, 1), BuildingBlock: XIVTED_clean_linker_0, # of connection points: 2
#     Edge 59, Type (0, 1), BuildingBlock: XIVTED_clean_linker_0, # of connection points: 2
#     Edge 60, Type (0, 1), BuildingBlock: XIVTED_clean_linker_0, # of connection points: 2
#     Edge 61, Type (0, 1), BuildingBlock: XIVTED_clean_linker_0, # of connection points: 2
#     Edge 62, Type (0, 1), BuildingBlock: XIVTED_clean_linker_0, # of connection points: 2
#     Edge 63, Type (0, 1), BuildingBlock: XIVTED_clean_linker_0, # of connection points: 2
#     Edge 64, Type (0, 1), BuildingBlock: XIVTED_clean_linker_0, # of connection points: 2
#     Edge 65, Type (0, 1), BuildingBlock: XIVTED_clean_linker_0, # of connection points: 2
#     Edge 66, Type (0, 1), BuildingBlock: XIVTED_clean_linker_0, # of connection points: 2
#     Edge 67, Type (0, 1), BuildingBlock: XIVTED_clean_linker_0, # of connection points: 2
#     Edge 68, Type (0, 1), BuildingBlock: XIVTED_clean_linker_0, # of connection points: 2
#     Edge 69, Type (0, 1), BuildingBlock: XIVTED_clean_linker_0, # of connection points: 2
#     Edge 70, Type (0, 1), BuildingBlock: XIVTED_clean_linker_0, # of connection points: 2
#     Edge 71, Type (0, 1), BuildingBlock: XIVTED_clean_linker_0, # of connection points: 2
#     Edge 72, Type (0, 1), BuildingBlock: XIVTED_clean_linker_0, # of connection points: 2
#     Edge 73, Type (0, 1), BuildingBlock: XIVTED_clean_linker_0, # of connection points: 2
#     Edge 74, Type (0, 1), BuildingBlock: XIVTED_clean_linker_0, # of connection points: 2
#     Edge 75, Type (0, 1), BuildingBlock: XIVTED_clean_linker_0, # of connection points: 2
#     Edge 76, Type (0, 1), BuildingBlock: XIVTED_clean_linker_0, # of connection points: 2
#     Edge 77, Type (0, 1), BuildingBlock: XIVTED_clean_linker_0, # of connection points: 2
#     Edge 78, Type (0, 1), BuildingBlock: XIVTED_clean_linker_0, # of connection points: 2
#     Edge 79, Type (0, 1), BuildingBlock: XIVTED_clean_linker_0, # of connection points: 2
#     Edge 80, Type (0, 1), BuildingBlock: XIVTED_clean_linker_0, # of connection points: 2
# Relax obj value: 0.060
# Max RMSD: 0.209
# Mean RMSD: 0.147
data_MOF--net-eea--node1-NUHQIS_clean_sbu_0--node2-BETDIP_clean_linker_0--edge1-XIVTED_clean_linker_0
_symmetry_space_group_name_H-M    P1
_symmetry_Int_Tables_number       1
_symmetry_cell_setting            triclinic
loop_
_symmetry_equiv_pos_as_xyz
'x, y, z'
_cell_length_a     54.636143
_cell_length_b     55.188169
_cell_length_c     70.471227
_cell_angle_alpha  93.245816
_cell_angle_beta   93.374878
_cell_angle_gamma 119.73658
loop_
_atom_site_label
_atom_site_type_symbol
_atom_site_fract_x
_atom_site_fract_y
_atom_site_fract_z
_atom_type_partial_charge
H0 H 0.25118 0.11553 0.37473 0.0
H1 H 0.29226 0.1776 0.42299 0.0
H2 H 0.27877 0.09466 0.42661 0.0
H3 H 0.2991 0.20786 0.4019 0.0
C4 C 0.28064 0.19713 0.39149 0.0
C5 C 0.26169 0.12157 0.38913 0.0
C6 C 0.26388 0.10173 0.39964 0.0
C7 C 0.27215 0.14907 0.39726 0.0
C8 C 0.28476 0.15672 0.41627 0.0
C9 C 0.28738 0.13723 0.42691 0.0
C10 C 0.27704 0.10987 0.41842 0.0
N11 N 0.26783 0.16781 0.3864 0.0
H12 H 0.93066 0.12458 0.38647 0.0
H13 H 0.87688 0.10121 0.43193 0.0
H14 H 0.94306 0.1866 0.43204 0.0
H15 H 0.88046 0.06061 0.42524 0.0
C16 C 0.87399 0.05828 0.41005 0.0
C17 C 0.92461 0.13057 0.39951 0.0
C18 C 0.93995 0.15843 0.40809 0.0
C19 C 0.90225 0.10981 0.40819 0.0
C20 C 0.89466 0.117 0.42539 0.0
C21 C 0.90941 0.14458 0.4341 0.0
C22 C 0.93176 0.16529 0.42528 0.0
N23 N 0.88735 0.08182 0.39938 0.0
H24 H 0.88622 0.7884 0.3932 0.0
H25 H 0.91524 0.76281 0.44209 0.0
H26 H 0.83374 0.75664 0.43917 0.0
H27 H 0.95693 0.78624 0.43226 0.0
C28 C 0.95507 0.7882 0.4171 0.0
C29 C 0.88278 0.78031 0.40705 0.0
C30 C 0.8572 0.77293 0.41497 0.0
C31 C 0.9041 0.77719 0.41672 0.0
C32 C 0.89941 0.76589 0.4345 0.0
C33 C 0.87408 0.75851 0.44275 0.0
C34 C 0.85323 0.76221 0.43287 0.0
N35 N 0.92963 0.78523 0.40796 0.0
H36 H 0.08621 0.20184 0.61638 0.0
H37 H 0.1443 0.24236 0.57483 0.0
H38 H 0.06804 0.24652 0.57462 0.0
H39 H 0.15644 0.21029 0.57996 0.0
C40 C 0.15584 0.20862 0.59522 0.0
C41 C 0.09188 0.21435 0.60438 0.0
C42 C 0.07367 0.22327 0.59653 0.0
C43 C 0.11714 0.22068 0.5965 0.0
C44 C 0.12463 0.23678 0.58084 0.0
C45 C 0.10678 0.24574 0.57267 0.0
C46 C 0.0814 0.23893 0.58061 0.0
N47 N 0.13478 0.21101 0.6048 0.0
H48 H 0.75974 0.8619 0.64522 0.0
H49 H 0.7217 0.88149 0.5978 0.0
H50 H 0.73515 0.81145 0.59112 0.0
H51 H 0.70908 0.90146 0.62128 0.0
C52 C 0.72881 0.91188 0.63057 0.0
C53 C 0.75007 0.85692 0.63061 0.0
C54 C 0.74854 0.83443 0.61913 0.0
C55 C 0.73997 0.87369 0.62319 0.0
C56 C 0.72867 0.86816 0.60396 0.0
C57 C 0.72684 0.84572 0.59235 0.0
C58 C 0.73647 0.82876 0.60009 0.0
N59 N 0.74337 0.89722 0.63489 0.0
H60 H 0.12403 0.91031 0.62463 0.0
H61 H 0.09779 0.84597 0.57802 0.0
H62 H 0.17782 0.92185 0.57975 0.0
H63 H 0.05467 0.8346 0.58552 0.0
C64 C 0.05653 0.83867 0.60094 0.0
C65 C 0.12821 0.90265 0.61141 0.0
C66 C 0.15353 0.91927 0.60333 0.0
C67 C 0.10761 0.87655 0.6022 0.0
C68 C 0.11289 0.86655 0.58495 0.0
C69 C 0.13823 0.8828 0.57679 0.0
C70 C 0.15834 0.9091 0.58607 0.0
N71 N 0.08205 0.86084 0.61078 0.0
H72 H 0.91085 0.43988 0.70616 0.0
H73 H 0.93716 0.49368 0.75868 0.0
H74 H 0.93607 0.41532 0.75728 0.0
H75 H 0.95115 0.52728 0.73742 0.0
C76 C 0.93246 0.51755 0.72713 0.0
C77 C 0.91846 0.44407 0.72119 0.0
C78 C 0.92298 0.42455 0.73048 0.0
C79 C 0.9243 0.46938 0.73109 0.0
C80 C 0.93393 0.47483 0.75067 0.0
C81 C 0.93812 0.45535 0.76023 0.0
C82 C 0.93283 0.43042 0.74997 0.0
N83 N 0.91912 0.4884 0.72123 0.0
H84 H 0.58498 0.47488 0.7145 0.0
H85 H 0.53144 0.45283 0.76013 0.0
H86 H 0.61208 0.52874 0.7674 0.0
H87 H 0.497 0.43369 0.73426 0.0
C88 C 0.50589 0.42267 0.72663 0.0
C89 C 0.58114 0.47992 0.72871 0.0
C90 C 0.6018 0.50433 0.73997 0.0
C91 C 0.55549 0.46165 0.73569 0.0
C92 C 0.55083 0.4673 0.75438 0.0
C93 C 0.57117 0.49134 0.76591 0.0
C94 C 0.59646 0.51001 0.75855 0.0
N95 N 0.53524 0.43697 0.72408 0.0
H96 H 0.55861 0.12816 0.72875 0.0
H97 H 0.58368 0.09527 0.77528 0.0
H98 H 0.5076 0.09983 0.77576 0.0
H99 H 0.62703 0.12273 0.7663 0.0
C100 C 0.62439 0.12208 0.75086 0.0
C101 C 0.55466 0.11916 0.74228 0.0
C102 C 0.5307 0.11498 0.75123 0.0
C103 C 0.5743 0.11281 0.75098 0.0
C104 C 0.56924 0.10105 0.76859 0.0
C105 C 0.54538 0.09672 0.77772 0.0
C106 C 0.52635 0.1038 0.76895 0.0
N107 N 0.59877 0.11848 0.74161 0.0
H108 H 0.75333 0.54166 0.95243 0.0
H109 H 0.81137 0.57758 0.91014 0.0
H110 H 0.73751 0.58626 0.90946 0.0
H111 H 0.81783 0.5406 0.91536 0.0
C112 C 0.81935 0.54178 0.93086 0.0
C113 C 0.75936 0.55358 0.94015 0.0
C114 C 0.742 0.5632 0.93193 0.0
C115 C 0.7841 0.55826 0.93224 0.0
C116 C 0.79205 0.57344 0.91617 0.0
C117 C 0.77517 0.58331 0.90773 0.0
C118 C 0.7502 0.57809 0.91569 0.0
N119 N 0.80084 0.54786 0.94086 0.0
H120 H 0.42557 0.20372 0.98354 0.0
H121 H 0.39593 0.22914 0.93494 0.0
H122 H 0.40367 0.15562 0.92862 0.0
H123 H 0.38078 0.2473 0.95845 0.0
C124 C 0.40002 0.25731 0.96823 0.0
C125 C 0.41796 0.2002 0.96853 0.0
C126 C 0.41519 0.17704 0.95712 0.0
C127 C 0.41053 0.21876 0.96078 0.0
C128 C 0.40094 0.21452 0.94127 0.0
C129 C 0.39808 0.19159 0.92967 0.0
C130 C 0.40508 0.17287 0.93771 0.0
N131 N 0.41422 0.24231 0.97261 0.0
H132 H 0.79095 0.2316 0.9591 0.0
H133 H 0.76276 0.17108 0.90982 0.0
H134 H 0.84146 0.24815 0.91168 0.0
H135 H 0.72034 0.15889 0.91948 0.0
C136 C 0.7231 0.1614 0.93498 0.0
C137 C 0.79458 0.22524 0.94521 0.0
C138 C 0.81879 0.24342 0.93653 0.0
C139 C 0.77408 0.19927 0.93569 0.0
C140 C 0.77817 0.19109 0.91736 0.0
C141 C 0.80214 0.20909 0.90849 0.0
C142 C 0.8225 0.2348 0.91833 0.0
N143 N 0.74938 0.1823 0.9448 0.0
H144 H 0.59097 0.79001 0.03577 0.0
H145 H 0.61823 0.84223 0.0891 0.0
H146 H 0.61483 0.76286 0.08609 0.0
H147 H 0.62501 0.8759 0.07107 0.0
C148 C 0.60834 0.86588 0.05935 0.0
C149 C 0.59876 0.79373 0.05076 0.0
C150 C 0.60286 0.77363 0.05957 0.0
C151 C 0.60463 0.81875 0.06114 0.0
C152 C 0.61429 0.82343 0.08071 0.0
C153 C 0.61846 0.80354 0.08975 0.0
C154 C 0.61278 0.77879 0.07903 0.0
N155 N 0.59899 0.8379 0.05178 0.0
H156 H 0.25728 0.79547 0.05302 0.0
H157 H 0.2094 0.77348 0.10145 0.0
H158 H 0.28025 0.85663 0.10163 0.0
H159 H 0.20948 0.73184 0.09322 0.0
C160 C 0.20249 0.72972 0.07814 0.0
C161 C 0.25399 0.80139 0.06715 0.0
C162 C 0.27172 0.8288 0.07605 0.0
C163 C 0.2322 0.78117 0.0765 0.0
C164 C 0.2271 0.78871 0.09455 0.0
C165 C 0.24418 0.8159 0.10365 0.0
C166 C 0.26647 0.8359 0.09433 0.0
N167 N 0.21541 0.75338 0.06753 0.0
H168 H 0.2224 0.46137 0.0619 0.0
H169 H 0.24927 0.4278 0.10695 0.0
H170 H 0.16697 0.41989 0.10484 0.0
H171 H 0.29273 0.45984 0.0999 0.0
C172 C 0.2907 0.46013 0.08451 0.0
C173 C 0.21797 0.4503 0.0746 0.0
C174 C 0.19191 0.44126 0.08225 0.0
C175 C 0.23898 0.44602 0.0835 0.0
C176 C 0.23369 0.43209 0.10023 0.0
C177 C 0.2077 0.42263 0.10802 0.0
C178 C 0.18701 0.42723 0.09888 0.0
N179 N 0.26481 0.45542 0.07494 0.0
H180 H 0.42286 0.88139 0.28909 0.0
H181 H 0.47801 0.91195 0.24457 0.0
H182 H 0.40443 0.92116 0.24384 0.0
H183 H 0.48198 0.87341 0.2503 0.0
C184 C 0.4853 0.87622 0.26581 0.0
C185 C 0.42821 0.89188 0.27616 0.0
C186 C 0.41061 0.90098 0.2676 0.0
C187 C 0.45205 0.89498 0.26766 0.0
C188 C 0.45895 0.90833 0.25077 0.0
C189 C 0.44187 0.91776 0.24203 0.0
C190 C 0.41777 0.91405 0.25057 0.0
N191 N 0.46885 0.88466 0.27632 0.0
H192 H 0.10356 0.53648 0.3108 0.0
H193 H 0.07476 0.5584 0.26029 0.0
H194 H 0.06631 0.47673 0.26079 0.0
H195 H 0.13101 0.59819 0.27477 0.0
C196 C 0.12013 0.60118 0.28633 0.0
C197 C 0.09355 0.53055 0.29627 0.0
C198 C 0.08555 0.50406 0.287 0.0
C199 C 0.09003 0.55014 0.28652 0.0
C200 C 0.07715 0.54293 0.26774 0.0
C201 C 0.06798 0.51625 0.25847 0.0
C202 C 0.07247 0.497 0.26814 0.0
N203 N 0.10087 0.57766 0.29532 0.0
H204 H 0.46227 0.56115 0.29378 0.0
H205 H 0.43579 0.49779 0.24661 0.0
H206 H 0.51485 0.57468 0.24781 0.0
H207 H 0.39234 0.48942 0.25348 0.0
C208 C 0.39414 0.49168 0.26899 0.0
C209 C 0.46624 0.55409 0.28025 0.0
C210 C 0.49142 0.57114 0.27209 0.0
C211 C 0.44572 0.52804 0.27094 0.0
C212 C 0.45093 0.51835 0.25358 0.0
C213 C 0.47611 0.53492 0.24533 0.0
C214 C 0.49606 0.56131 0.25461 0.0
N215 N 0.42012 0.5121 0.27941 0.0
Tb216 Tb 0.48589 0.99289 0.98861 0.0
Eu217 Eu 0.50722 0.02603 0.03221 0.0
C218 C 0.51407 0.97388 0.02031 0.0
C219 C 0.44592 0.97112 0.02102 0.0
C220 C 0.47912 0.98278 0.93559 0.0
C221 C 0.5027 0.98842 0.90655 0.0
C222 C 0.49539 0.97643 0.92377 0.0
C223 C 0.46979 0.001 0.92967 0.0
C224 C 0.47688 0.01281 0.91233 0.0
C225 C 0.49367 0.00689 0.90061 0.0
C226 C 0.4735 0.97129 0.95435 0.0
O227 O 0.46716 0.0197 0.99159 0.0
O228 O 0.49945 0.05419 0.01423 0.0
O229 O 0.54582 0.04336 0.01572 0.0
O230 O 0.52197 0.03371 0.98594 0.0
C231 C 0.47888 0.04519 1.0004 0.0
O232 O 0.50085 0.04758 0.05671 0.0
O233 O 0.53634 0.04031 0.05823 0.0
O234 O 0.50584 0.98501 0.03356 0.0
O235 O 0.51306 0.97913 0.00243 0.0
O236 O 0.45551 0.96378 0.00639 0.0
O237 O 0.46012 0.99633 0.03022 0.0
C238 C 0.54555 0.04669 0.99738 0.0
O239 O 0.49579 0.97556 0.96505 0.0
O240 O 0.45616 0.97526 0.96428 0.0
C241 C 0.51256 0.03512 0.08577 0.0
C242 C 0.49612 0.01032 0.12019 0.0
C243 C 0.51312 0.03961 0.12032 0.0
C244 C 0.5213 0.05189 0.10324 0.0
C245 C 0.49542 0.00594 0.08554 0.0
C246 C 0.48731 0.99366 0.10257 0.0
C247 C 0.52101 0.04782 0.06776 0.0
H248 H 0.51601 0.98366 0.89814 0.0
H249 H 0.50297 0.96257 0.92805 0.0
H250 H 0.45726 0.00639 0.93847 0.0
H251 H 0.4691 0.02653 0.90813 0.0
H252 H 0.52049 0.05302 0.13365 0.0
H253 H 0.53451 0.07446 0.10366 0.0
H254 H 0.48828 0.99266 0.07215 0.0
H255 H 0.47388 0.97111 0.1019 0.0
Tb256 Tb 0.01751 0.4956 0.98959 0.0
Eu257 Eu 0.98661 0.48366 0.02976 0.0
C258 C 0.04183 0.54104 0.02507 0.0
C259 C 0.04065 0.47595 0.02413 0.0
C260 C 0.02933 0.49961 0.93831 0.0
C261 C 0.03822 0.5059 0.90515 0.0
C262 C 0.04829 0.51074 0.92446 0.0
C263 C 1.00018 0.48329 0.9327 0.0
C264 C 0.99007 0.47842 0.91339 0.0
C265 C 0.00898 0.48986 0.8994 0.0
C266 C 0.04003 0.50629 0.95857 0.0
O267 O 0.98835 0.45048 0.98702 0.0
O268 O 0.95709 0.44751 0.00856 0.0
O269 O 0.96976 0.506 0.01205 0.0
O270 O 0.97661 0.49217 0.98255 0.0
C271 C 0.96403 0.4366 0.9943 0.0
O272 O 0.96315 0.45544 0.0507 0.0
O273 O 0.97334 0.49885 0.05408 0.0
O274 O 0.0295 0.52168 0.03666 0.0
O275 O 0.03438 0.53585 0.00659 0.0
O276 O 0.04665 0.49137 0.00968 0.0
O277 O 0.01674 0.46696 0.03196 0.0
C278 C 0.9642 0.50206 0.99339 0.0
O279 O 0.03334 0.52267 0.96815 0.0
O280 O 0.03656 0.48526 0.96791 0.0
C281 C 0.97298 0.4773 0.0819 0.0
C282 C 0.99171 0.48178 0.12066 0.0
C283 C 0.96333 0.47367 0.11506 0.0
C284 C 0.95406 0.47145 0.0958 0.0
C285 C 1.00125 0.48521 0.08733 0.0
C286 C 0.01055 0.48742 0.10657 0.0
C287 C 0.96316 0.4752 0.06178 0.0
H288 H 0.05335 0.51465 0.89471 0.0
H289 H 0.07086 0.52342 0.9286 0.0
H290 H 0.98525 0.4747 0.94329 0.0
H291 H 0.96742 0.46624 0.90946 0.0
H292 H 0.94823 0.46884 0.12554 0.0
H293 H 0.93213 0.46521 0.09177 0.0
H294 H 0.01613 0.48983 0.0767 0.0
H295 H 0.03261 0.49405 0.11044 0.0
Tb296 Tb 0.52963 0.51991 0.02475 0.0
Eu297 Eu 0.50133 0.52178 0.98254 0.0
C298 C 0.49365 0.46542 0.99693 0.0
C299 C 0.56366 0.5283 0.98875 0.0
C300 C 0.53882 0.51403 0.07658 0.0
C301 C 0.54144 0.50055 0.10851 0.0
C302 C 0.55079 0.50449 0.09028 0.0
C303 C 0.51682 0.51881 0.08113 0.0
C304 C 0.50746 0.51491 0.0993 0.0
C305 C 0.51994 0.50612 0.11332 0.0
C306 C 0.5501 0.52007 0.05791 0.0
O307 O 0.55023 0.56292 0.01721 0.0
O308 O 0.51185 0.56065 0.00106 0.0
O309 O 0.46523 0.50572 0.00108 0.0
O310 O 0.49114 0.52051 0.03063 0.0
C311 C 0.53628 0.5752 0.01132 0.0
O312 O 0.50221 0.5465 0.95928 0.0
O313 O 0.47099 0.50223 0.95718 0.0
O314 O 0.50017 0.48065 0.98246 0.0
O315 O 0.49795 0.47686 0.01454 0.0
O316 O 0.55796 0.51763 0.00523 0.0
O317 O 0.54711 0.53549 0.97938 0.0
C318 C 0.46702 0.51045 0.01977 0.0
O319 O 0.54024 0.49889 0.04487 0.0
O320 O 0.55144 0.54206 0.05103 0.0
C321 C 0.4921 0.52105 0.92945 0.0
C322 C 0.51199 0.51681 0.89413 0.0
C323 C 0.49365 0.52771 0.89571 0.0
C324 C 0.48377 0.52979 0.91326 0.0
C325 C 0.51043 0.51023 0.92796 0.0
C326 C 0.52023 0.50807 0.91046 0.0
C327 C 0.48321 0.52468 0.94814 0.0
H328 H 0.55124 0.49341 0.11889 0.0
H329 H 0.56773 0.50058 0.08698 0.0
H330 H 0.50744 0.52636 0.07078 0.0
H331 H 0.49119 0.51982 0.10256 0.0
H332 H 0.48673 0.53438 0.88334 0.0
H333 H 0.46981 0.53841 0.91423 0.0
H334 H 0.51742 0.50377 0.94042 0.0
H335 H 0.53466 0.49999 0.90979 0.0
Tb336 Tb 0.15423 0.32071 0.31977 0.0
Eu337 Eu 0.17702 0.35366 0.36359 0.0
C338 C 0.18329 0.30135 0.35078 0.0
C339 C 0.11552 0.29844 0.35303 0.0
C340 C 0.14543 0.3114 0.26693 0.0
C341 C 0.14398 0.3051 0.23241 0.0
C342 C 0.13747 0.29375 0.24992 0.0
C343 C 0.15978 0.34057 0.26626 0.0
C344 C 0.1664 0.35195 0.24877 0.0
C345 C 0.15872 0.33436 0.23162 0.0
C346 C 0.14026 0.29936 0.28538 0.0
O347 O 0.13515 0.34694 0.32394 0.0
O348 O 0.16873 0.38169 0.34578 0.0
O349 O 0.21503 0.37048 0.34671 0.0
O350 O 0.19075 0.36142 0.31711 0.0
C351 C 0.14733 0.3725 0.33259 0.0
O352 O 0.17296 0.37753 0.38769 0.0
O353 O 0.20577 0.36634 0.38977 0.0
O354 O 0.17592 0.31275 0.36442 0.0
O355 O 0.18107 0.30606 0.33287 0.0
O356 O 0.124 0.29148 0.3376 0.0
O357 O 0.13029 0.32331 0.36266 0.0
C358 C 0.2145 0.37408 0.32844 0.0
O359 O 0.16276 0.30326 0.29559 0.0
O360 O 0.1239 0.30421 0.29576 0.0
C361 C 0.1831 0.36499 0.41772 0.0
C362 C 0.16649 0.34215 0.45288 0.0
C363 C 0.14734 0.34473 0.44006 0.0
C364 C 0.15551 0.35594 0.4227 0.0
C365 C 0.2024 0.36289 0.43062 0.0
C366 C 0.19419 0.35153 0.44796 0.0
C367 C 0.19174 0.37584 0.39902 0.0
H368 H 0.13803 0.29095 0.21952 0.0
H369 H 0.1266 0.27119 0.25019 0.0
H370 H 0.16611 0.35453 0.27927 0.0
H371 H 0.17742 0.37453 0.24869 0.0
H372 H 0.12601 0.33819 0.44347 0.0
H373 H 0.14006 0.35729 0.41314 0.0
H374 H 0.22378 0.36968 0.42717 0.0
H375 H 0.20942 0.34956 0.45731 0.0
Tb376 Tb 0.68294 0.8278 0.32152 0.0
Eu377 Eu 0.65295 0.81484 0.36168 0.0
C378 C 0.70788 0.87276 0.35739 0.0
C379 C 0.7072 0.80815 0.35502 0.0
C380 C 0.69486 0.83369 0.26967 0.0
C381 C 0.68788 0.85201 0.24053 0.0
C382 C 0.69673 0.85601 0.25999 0.0
C383 C 0.68429 0.80728 0.25941 0.0
C384 C 0.67561 0.80332 0.23986 0.0
C385 C 0.67726 0.82565 0.23025 0.0
C386 C 0.70474 0.8387 0.29025 0.0
O387 O 0.65491 0.78237 0.31976 0.0
O388 O 0.62246 0.78071 0.33957 0.0
O389 O 0.63643 0.83848 0.34514 0.0
O390 O 0.64231 0.82535 0.31513 0.0
C391 C 0.62976 0.76902 0.32604 0.0
O392 O 0.63163 0.78606 0.38294 0.0
O393 O 0.63798 0.82818 0.38586 0.0
O394 O 0.69554 0.85322 0.36887 0.0
O395 O 0.7004 0.86786 0.3389 0.0
O396 O 0.71318 0.82508 0.34147 0.0
O397 O 0.68269 0.79739 0.36224 0.0
C398 C 0.63046 0.83526 0.32652 0.0
O399 O 0.69908 0.85542 0.30043 0.0
O400 O 0.70091 0.81722 0.2992 0.0
C401 C 0.6401 0.80826 0.414 0.0
C402 C 0.65939 0.81561 0.45292 0.0
C403 C 0.63029 0.79948 0.44679 0.0
C404 C 0.62073 0.79588 0.42745 0.0
C405 C 0.66918 0.82401 0.41997 0.0
C406 C 0.67875 0.82773 0.4393 0.0
C407 C 0.62984 0.80494 0.39382 0.0
H408 H 0.68983 0.86972 0.23344 0.0
H409 H 0.70516 0.87669 0.26747 0.0
H410 H 0.68274 0.78967 0.26642 0.0
H411 H 0.66735 0.78273 0.2323 0.0
H412 H 0.61488 0.79012 0.45697 0.0
H413 H 0.59821 0.78366 0.42302 0.0
H414 H 0.68442 0.83356 0.40969 0.0
H415 H 0.70131 0.83994 0.44357 0.0
Tb416 Tb 0.19408 0.84704 0.35866 0.0
Eu417 Eu 0.16757 0.85221 0.31686 0.0
C418 C 0.16655 0.79666 0.32751 0.0
C419 C 0.23095 0.86331 0.32382 0.0
C420 C 0.20371 0.84408 0.41052 0.0
C421 C 0.20729 0.83822 0.44422 0.0
C422 C 0.21529 0.83679 0.4259 0.0
C423 C 0.18388 0.85264 0.41356 0.0
C424 C 0.17589 0.85413 0.43187 0.0
C425 C 0.18755 0.84698 0.44745 0.0
C426 C 0.21181 0.84207 0.39127 0.0
O427 O 0.18941 0.88374 0.36254 0.0
O428 O 0.19413 0.89565 0.33191 0.0
O429 O 0.13615 0.84957 0.33711 0.0
O430 O 0.14848 0.82846 0.36011 0.0
C431 C 0.19541 0.90236 0.35022 0.0
O432 O 0.16995 0.87759 0.29363 0.0
O433 O 0.13758 0.83389 0.2912 0.0
O434 O 0.15097 0.8065 0.3203 0.0
O435 O 0.18912 0.81247 0.33942 0.0
O436 O 0.23052 0.86823 0.34226 0.0
O437 O 0.20768 0.85179 0.31205 0.0
C438 C 0.1309 0.83589 0.35242 0.0
O439 O 0.19261 0.82104 0.37968 0.0
O440 O 0.22333 0.8653 0.38306 0.0
C441 C 0.15991 0.85227 0.26374 0.0
C442 C 0.18037 0.8471 0.22879 0.0
C443 C 0.16245 0.85857 0.22994 0.0
C444 C 0.15233 0.86117 0.24731 0.0
C445 C 0.17772 0.84081 0.26266 0.0
C446 C 0.18789 0.83829 0.24539 0.0
C447 C 0.15076 0.85628 0.28227 0.0
H448 H 0.21637 0.83218 0.45583 0.0
H449 H 0.23044 0.82989 0.42372 0.0
H450 H 0.17464 0.85824 0.40177 0.0
H451 H 0.16094 0.86132 0.43387 0.0
H452 H 0.15603 0.8653 0.21739 0.0
H453 H 0.13874 0.87024 0.24794 0.0
H454 H 0.184 0.83405 0.27525 0.0
H455 H 0.20202 0.82983 0.24514 0.0
Tb456 Tb 0.82375 0.65644 0.65488 0.0
Eu457 Eu 0.84591 0.68986 0.69843 0.0
C458 C 0.8539 0.63801 0.6849 0.0
C459 C 0.78556 0.63468 0.68874 0.0
C460 C 0.81663 0.64678 0.60199 0.0
C461 C 0.85155 0.67063 0.57966 0.0
C462 C 0.84457 0.65873 0.59696 0.0
C463 C 0.79585 0.64673 0.58926 0.0
C464 C 0.80287 0.6588 0.57203 0.0
C465 C 0.83083 0.671 0.56706 0.0
C466 C 0.809 0.63515 0.62061 0.0
O467 O 0.82614 0.69674 0.65342 0.0
O468 O 0.81764 0.70358 0.68402 0.0
O469 O 0.87731 0.71907 0.67952 0.0
O470 O 0.86903 0.68511 0.65548 0.0
C471 C 0.8175 0.70843 0.66605 0.0
O472 O 0.83849 0.71002 0.72317 0.0
O473 O 0.87587 0.70596 0.72417 0.0
O474 O 0.8659 0.66325 0.69395 0.0
O475 O 0.83236 0.62912 0.67177 0.0
O476 O 0.78642 0.63949 0.67065 0.0
O477 O 0.80826 0.64764 0.70098 0.0
C478 C 0.88448 0.71069 0.66403 0.0
O479 O 0.82874 0.63445 0.63151 0.0
O480 O 0.79465 0.64361 0.63041 0.0
C481 C 0.85288 0.70003 0.75225 0.0
C482 C 0.83686 0.67672 0.78716 0.0
C483 C 0.8547 0.70582 0.78683 0.0
C484 C 0.86256 0.71737 0.76949 0.0
C485 C 0.83546 0.67098 0.75252 0.0
C486 C 0.82748 0.65943 0.76979 0.0
C487 C 0.85984 0.71218 0.73393 0.0
H488 H 0.87333 0.6801 0.57635 0.0
H489 H 0.86116 0.65922 0.60645 0.0
H490 H 0.77415 0.63757 0.59273 0.0
H491 H 0.78633 0.65842 0.56253 0.0
H492 H 0.86209 0.71972 0.79993 0.0
H493 H 0.8759 0.73986 0.76952 0.0
H494 H 0.82785 0.65725 0.73933 0.0
H495 H 0.81408 0.63692 0.76955 0.0
Tb496 Tb 0.35703 0.16873 0.65728 0.0
Eu497 Eu 0.32639 0.15643 0.69736 0.0
C498 C 0.37734 0.21664 0.69033 0.0
C499 C 0.3818 0.15259 0.69269 0.0
C500 C 0.37082 0.17441 0.60584 0.0
C501 C 0.36796 0.19519 0.57683 0.0
C502 C 0.37592 0.198 0.5964 0.0
C503 C 0.35777 0.14795 0.59526 0.0
C504 C 0.34997 0.14517 0.57569 0.0
C505 C 0.35502 0.16876 0.56627 0.0
C506 C 0.38004 0.17781 0.62645 0.0
O507 O 0.31676 0.13043 0.65012 0.0
O508 O 0.3103 0.11503 0.67988 0.0
O509 O 0.29528 0.15805 0.67596 0.0
O510 O 0.32625 0.183 0.65436 0.0
C511 C 0.3045 0.11033 0.66126 0.0
O512 O 0.30976 0.12882 0.71988 0.0
O513 O 0.30737 0.16688 0.72056 0.0
O514 O 0.35276 0.20327 0.69726 0.0
O515 O 0.38525 0.20391 0.67793 0.0
O516 O 0.37448 0.14783 0.67417 0.0
O517 O 0.36962 0.16193 0.70416 0.0
C518 C 0.30155 0.17311 0.66134 0.0
O519 O 0.37794 0.19672 0.63705 0.0
O520 O 0.37217 0.15498 0.63487 0.0
C521 C 0.31343 0.15113 0.75043 0.0
C522 C 0.33084 0.16026 0.78999 0.0
C523 C 0.321 0.13386 0.77992 0.0
C524 C 0.31225 0.12932 0.76041 0.0
C525 C 0.32318 0.17754 0.76045 0.0
C526 C 0.3318 0.18205 0.78003 0.0
C527 C 0.30394 0.1457 0.72977 0.0
H528 H 0.37242 0.21378 0.56991 0.0
H529 H 0.38627 0.21869 0.60413 0.0
H530 H 0.35364 0.12933 0.60205 0.0
H531 H 0.33975 0.12449 0.56795 0.0
H532 H 0.32034 0.1167 0.78706 0.0
H533 H 0.30464 0.10868 0.7531 0.0
H534 H 0.32409 0.19473 0.75322 0.0
H535 H 0.33886 0.20252 0.78739 0.0
Tb536 Tb 0.85945 0.17373 0.68929 0.0
Eu537 Eu 0.83167 0.17675 0.64711 0.0
C538 C 0.82543 0.12011 0.6598 0.0
C539 C 0.89409 0.18345 0.65377 0.0
C540 C 0.8693 0.17518 0.74149 0.0
C541 C 0.86746 0.16707 0.77502 0.0
C542 C 0.87668 0.16486 0.75722 0.0
C543 C 0.85246 0.18756 0.74368 0.0
C544 C 0.84315 0.18969 0.76138 0.0
C545 C 0.85064 0.17959 0.7773 0.0
C546 C 0.87803 0.17193 0.72264 0.0
O547 O 0.87791 0.21769 0.68413 0.0
O548 O 0.84055 0.21486 0.66589 0.0
O549 O 0.79565 0.15957 0.66582 0.0
O550 O 0.82212 0.17643 0.69504 0.0
C551 C 0.86373 0.22937 0.67748 0.0
O552 O 0.83368 0.20203 0.62393 0.0
O553 O 0.80059 0.1584 0.62206 0.0
O554 O 0.83078 0.13569 0.64556 0.0
O555 O 0.8298 0.13082 0.6776 0.0
O556 O 0.88769 0.17139 0.66972 0.0
O557 O 0.87794 0.19152 0.64483 0.0
C558 C 0.79771 0.16527 0.68444 0.0
O559 O 0.85947 0.14995 0.71157 0.0
O560 O 0.88893 0.19418 0.71344 0.0
C561 C 0.82095 0.17667 0.59353 0.0
C562 C 0.8402 0.17118 0.55804 0.0
C563 C 0.84363 0.19708 0.56529 0.0
C564 C 0.83402 0.19975 0.58281 0.0
C565 C 0.81673 0.15058 0.58606 0.0
C566 C 0.82613 0.14786 0.56848 0.0
C567 C 0.81372 0.18066 0.61292 0.0
H568 H 0.87385 0.15936 0.78703 0.0
H569 H 0.88955 0.15509 0.75573 0.0
H570 H 0.84641 0.19551 0.73166 0.0
H571 H 0.82987 0.19903 0.76254 0.0
H572 H 0.85457 0.21554 0.55775 0.0
H573 H 0.83754 0.2201 0.58827 0.0
H574 H 0.80666 0.13233 0.59392 0.0
H575 H 0.82256 0.12745 0.56315 0.0
H576 H 0.30694 0.81932 0.05438 0.0
H577 H 0.41503 0.98087 0.04639 0.0
H578 H 0.29301 0.88574 0.07627 0.0
H579 H 0.41529 0.91415 0.01147 0.0
H580 H 0.37167 0.94633 0.05875 0.0
H581 H 0.34775 0.85364 0.03965 0.0
C582 C 0.31219 0.84104 0.05594 0.0
C583 C 0.29631 0.84953 0.06661 0.0
C584 C 0.38111 0.93926 0.0483 0.0
C585 C 0.34364 0.88913 0.05006 0.0
C586 C 0.40594 0.95896 0.04126 0.0
C587 C 0.41889 0.9504 0.02788 0.0
C588 C 0.36925 0.9107 0.04212 0.0
C589 C 0.40602 0.92171 0.02173 0.0
C590 C 0.33566 0.86067 0.04759 0.0
C591 C 0.30476 0.87818 0.06845 0.0
N592 N 0.38203 0.90286 0.02901 0.0
N593 N 0.3279 0.89694 0.06035 0.0
H594 H 0.17772 0.44054 0.04387 0.0
H595 H 0.04469 0.4598 0.05969 0.0
H596 H 0.15565 0.45439 0.09973 0.0
H597 H 0.08599 0.47833 0.00776 0.0
H598 H 0.08153 0.45133 0.07364 0.0
H599 H 0.14101 0.44886 0.02948 0.0
C600 C 0.16536 0.44548 0.05315 0.0
C601 C 0.16987 0.4466 0.07312 0.0
C602 C 0.0825 0.45723 0.05918 0.0
C603 C 0.1273 0.45549 0.05661 0.0
C604 C 0.06139 0.46191 0.05117 0.0
C605 C 0.06226 0.46981 0.03252 0.0
C606 C 0.10444 0.46006 0.0484 0.0
C607 C 0.08456 0.47241 0.02222 0.0
C608 C 0.14428 0.45006 0.04489 0.0
C609 C 0.15268 0.45263 0.0843 0.0
N610 N 0.10469 0.46743 0.03026 0.0
N611 N 0.13213 0.45668 0.07591 0.0
H612 H 0.55597 0.73951 0.03455 0.0
H613 H 0.58739 0.61257 0.03112 0.0
H614 H 0.63255 0.74571 0.06072 0.0
H615 H 0.51247 0.60719 0.00258 0.0
H616 H 0.60576 0.66236 0.04019 0.0
H617 H 0.54146 0.6923 0.02038 0.0
C618 C 0.56995 0.73112 0.03706 0.0
C619 C 0.59538 0.74646 0.04899 0.0
C620 C 0.58537 0.65034 0.03185 0.0
C621 C 0.57869 0.69228 0.03311 0.0
C622 C 0.57484 0.62187 0.02669 0.0
C623 C 0.54826 0.60563 0.01618 0.0
C624 C 0.56915 0.66266 0.02656 0.0
C625 C 0.53301 0.61887 0.01077 0.0
C626 C 0.56156 0.70408 0.02908 0.0
C627 C 0.61252 0.73441 0.05191 0.0
N628 N 0.5436 0.64656 0.01612 0.0
N629 N 0.60376 0.70797 0.04416 0.0
H630 H 0.83753 0.2599 0.97483 0.0
H631 H 0.95939 0.41285 0.9582 0.0
H632 H 0.84787 0.29214 0.91959 0.0
H633 H 0.9218 0.39498 0.01153 0.0
H634 H 0.92388 0.36545 0.94447 0.0
H635 H 0.87311 0.30687 0.98934 0.0
C636 C 0.8471 0.27675 0.96575 0.0
C637 C 0.8398 0.27183 0.94589 0.0
C638 C 0.92348 0.37196 0.95918 0.0
C639 C 0.88094 0.32529 0.96238 0.0
C640 C 0.94379 0.39889 0.96704 0.0
C641 C 0.94342 0.40783 0.98598 0.0
C642 C 0.90303 0.35372 0.97046 0.0
C643 C 0.92265 0.38895 0.9968 0.0
C644 C 0.8675 0.30348 0.97404 0.0
C645 C 0.85328 0.29456 0.93487 0.0
N646 N 0.90333 0.36268 0.98891 0.0
N647 N 0.87331 0.32018 0.94323 0.0
H648 H 0.69105 0.55073 0.91285 0.0
H649 H 0.60925 0.52742 0.00653 0.0
H650 H 0.73158 0.56245 0.96978 0.0
H651 H 0.5777 0.53913 0.95222 0.0
H652 H 0.65245 0.53548 0.99277 0.0
H653 H 0.64778 0.54215 0.92656 0.0
C654 C 0.69101 0.55172 0.92824 0.0
C655 C 0.71525 0.55752 0.94013 0.0
C656 C 0.63607 0.5363 0.98388 0.0
C657 C 0.6653 0.54704 0.95592 0.0
C658 C 0.61133 0.5316 0.9917 0.0
C659 C 0.58979 0.53267 0.98054 0.0
C660 C 0.63922 0.54181 0.96469 0.0
C661 C 0.59378 0.53826 0.96141 0.0
C662 C 0.66617 0.54664 0.93604 0.0
C663 C 0.71345 0.55775 0.95997 0.0
N664 N 0.61795 0.54252 0.95409 0.0
N665 N 0.68895 0.55256 0.96722 0.0
H666 H 0.46114 0.18983 0.98241 0.0
H667 H 0.43421 0.03322 0.9743 0.0
H668 H 0.38836 0.11977 0.95006 0.0
H669 H 0.49978 0.10035 0.01337 0.0
H670 H 0.41766 0.06492 0.96484 0.0
H671 H 0.47582 0.15757 0.99391 0.0
C672 C 0.44807 0.16764 0.97788 0.0
C673 C 0.42354 0.15755 0.96516 0.0
C674 C 0.43561 0.07269 0.97553 0.0
C675 C 0.44051 0.12055 0.97802 0.0
C676 C 0.44513 0.05461 0.98092 0.0
C677 C 0.46846 0.06411 0.99465 0.0
C678 C 0.44959 0.10058 0.98384 0.0
C679 C 0.48171 0.09207 0.00273 0.0
C680 C 0.45657 0.14925 0.98436 0.0
C681 C 0.40769 0.1286 0.95957 0.0
N682 N 0.47215 0.10934 0.99715 0.0
N683 N 0.41652 0.11117 0.96596 0.0
H684 H 0.71937 0.16024 0.97394 0.0
H685 H 0.55151 0.05704 0.9601 0.0
H686 H 0.66963 0.1258 0.91937 0.0
H687 H 0.60009 0.07841 0.01518 0.0
H688 H 0.59479 0.08534 0.94565 0.0
H689 H 0.67635 0.13321 0.98989 0.0
C690 C 0.69942 0.14701 0.96533 0.0
C691 C 0.69795 0.14524 0.94529 0.0
C692 C 0.59611 0.08394 0.96091 0.0
C693 C 0.64887 0.11449 0.9634 0.0
C694 C 0.57129 0.06779 0.96924 0.0
C695 C 0.57206 0.06523 0.98896 0.0
C696 C 0.62216 0.09785 0.97226 0.0
C697 C 0.59848 0.07976 0.99994 0.0
C698 C 0.67491 0.13158 0.97444 0.0
C699 C 0.67164 0.12775 0.93484 0.0
N700 N 0.62254 0.09546 0.99143 0.0
N701 N 0.64817 0.11315 0.94399 0.0
H702 H 0.83148 0.54304 0.96967 0.0
H703 H 0.94861 0.49817 0.95522 0.0
H704 H 0.8542 0.52681 0.91475 0.0
H705 H 0.93095 0.5195 0.0107 0.0
H706 H 0.91314 0.50753 0.94036 0.0
H707 H 0.86671 0.53338 0.98518 0.0
C708 C 0.84383 0.53737 0.96088 0.0
C709 C 0.83995 0.53566 0.94089 0.0
C710 C 0.917 0.5102 0.95579 0.0
C711 C 0.88024 0.52466 0.9585 0.0
C712 C 0.9373 0.50484 0.96431 0.0
C713 C 0.94285 0.50805 0.98428 0.0
C714 C 0.90197 0.51881 0.96725 0.0
C715 C 0.92744 0.51678 0.99526 0.0
C716 C 0.86396 0.53191 0.96974 0.0
C717 C 0.85655 0.52832 0.93021 0.0
N718 N 0.90769 0.52182 0.98661 0.0
N719 N 0.87593 0.52308 0.93912 0.0
H720 H 0.44338 0.28954 0.99647 0.0
H721 H 0.46517 0.43338 0.96363 0.0
H722 H 0.38654 0.29367 0.95333 0.0
H723 H 0.49068 0.42751 0.02155 0.0
H724 H 0.44164 0.38238 0.95758 0.0
H725 H 0.46604 0.34054 0.00425 0.0
C726 C 0.43563 0.30118 0.9887 0.0
C727 C 0.41314 0.28755 0.9742 0.0
C728 C 0.45235 0.39227 0.97162 0.0
C729 C 0.43911 0.3455 0.98278 0.0
C730 C 0.46593 0.42136 0.97506 0.0
C731 C 0.47987 0.43466 0.99313 0.0
C732 C 0.45315 0.37637 0.98623 0.0
C733 C 0.48004 0.41802 0.00744 0.0
C734 C 0.44849 0.33017 0.99318 0.0
C735 C 0.40382 0.30349 0.96461 0.0
N736 N 0.46703 0.38967 0.00365 0.0
N737 N 0.41704 0.33169 0.96892 0.0
H738 H 0.17825 0.71439 0.0408 0.0
H739 H 0.06448 0.55894 0.06225 0.0
H740 H 0.17387 0.68284 0.09586 0.0
H741 H 0.072 0.58726 0.00586 0.0
H742 H 0.10359 0.60491 0.07486 0.0
H743 H 0.13866 0.66852 0.02767 0.0
C744 C 0.169 0.69778 0.05009 0.0
C745 C 0.17928 0.70227 0.06943 0.0
C746 C 0.09669 0.60111 0.05973 0.0
C747 C 0.13404 0.64998 0.0546 0.0
C748 C 0.07427 0.57485 0.05251 0.0
C749 C 0.0649 0.56919 0.03295 0.0
C750 C 0.1099 0.62198 0.04734 0.0
C751 C 0.0785 0.59066 0.02104 0.0
C752 C 0.14641 0.67163 0.04261 0.0
C753 C 0.16654 0.68012 0.08086 0.0
N754 N 0.10033 0.61612 0.02842 0.0
N755 N 0.14457 0.65496 0.07329 0.0
H756 H 0.29547 0.46214 0.04571 0.0
H757 H 0.46178 0.51552 0.05802 0.0
H758 H 0.34366 0.47573 0.09987 0.0
H759 H 0.41278 0.49089 0.00297 0.0
H760 H 0.41906 0.50376 0.07335 0.0
H761 H 0.33831 0.47504 0.02962 0.0
C762 C 0.31507 0.46789 0.05422 0.0
C763 C 0.31607 0.46792 0.07418 0.0
C764 C 0.41758 0.50092 0.05791 0.0
C765 C 0.36511 0.48273 0.05587 0.0
C766 C 0.44209 0.50769 0.0491 0.0
C767 C 0.44105 0.50415 0.02911 0.0
C768 C 0.39163 0.49058 0.04674 0.0
C769 C 0.41469 0.49395 0.01841 0.0
C770 C 0.3395 0.47521 0.04502 0.0
C771 C 0.342 0.47546 0.08446 0.0
N772 N 0.39105 0.48752 0.02735 0.0
N773 N 0.36545 0.48259 0.07522 0.0
H774 H 0.5724 0.85357 0.02663 0.0
H775 H 0.53291 0.97034 0.05621 0.0
H776 H 0.61231 0.91279 0.07671 0.0
H777 H 0.52378 0.93825 0.99733 0.0
H778 H 0.55564 0.94361 0.06528 0.0
H779 H 0.54854 0.87928 0.01674 0.0
C780 C 0.57613 0.87198 0.03552 0.0
C781 C 0.59429 0.88116 0.05252 0.0
C782 C 0.54863 0.94242 0.05038 0.0
C783 C 0.56691 0.9102 0.04147 0.0
C784 C 0.5355 0.95752 0.04519 0.0
C785 C 0.52651 0.95659 0.02596 0.0
C786 C 0.55246 0.92591 0.03631 0.0
C787 C 0.53053 0.93967 0.01231 0.0
C788 C 0.5626 0.88662 0.02985 0.0
C789 C 0.59849 0.90513 0.06348 0.0
N790 N 0.54315 0.92488 0.01775 0.0
N791 N 0.58473 0.91871 0.05786 0.0
H792 H 0.98981 0.20055 0.42699 0.0
H793 H 0.07203 0.24923 0.33437 0.0
H794 H 0.94864 0.16509 0.37005 0.0
H795 H 0.09858 0.30026 0.38846 0.0
H796 H 0.02851 0.21529 0.34734 0.0
H797 H 0.03166 0.23474 0.41324 0.0
C798 C 0.98933 0.20009 0.41159 0.0
C799 C 0.96538 0.17988 0.39971 0.0
C800 C 0.04388 0.234 0.35629 0.0
C801 C 0.01389 0.21872 0.38385 0.0
C802 C 0.06874 0.25329 0.34894 0.0
C803 C 0.08896 0.27764 0.36033 0.0
C804 C 0.03949 0.23892 0.37524 0.0
C805 C 0.08355 0.28188 0.3791 0.0
C806 C 0.01341 0.21956 0.40375 0.0
C807 C 0.96662 0.17999 0.37982 0.0
N808 N 0.05945 0.26266 0.38598 0.0
N809 N 0.99051 0.19902 0.37251 0.0
H810 H 0.79934 0.73842 0.41278 0.0
H811 H 0.76315 0.83358 0.34844 0.0
H812 H 0.8634 0.81591 0.39391 0.0
H813 H 0.70172 0.76919 0.37962 0.0
H814 H 0.79947 0.82424 0.36203 0.0
H815 H 0.76281 0.74636 0.39785 0.0
C816 C 0.80581 0.75718 0.40558 0.0
C817 C 0.83467 0.77666 0.40483 0.0
C818 C 0.77804 0.81214 0.36588 0.0
C819 C 0.79266 0.78557 0.38732 0.0
C820 C 0.75722 0.81738 0.35808 0.0
C821 C 0.72925 0.80216 0.36289 0.0
C822 C 0.7709 0.79134 0.37849 0.0
C823 C 0.72297 0.78151 0.37553 0.0
C824 C 0.78486 0.76161 0.39697 0.0
C825 C 0.84153 0.80016 0.39477 0.0
N826 N 0.74359 0.77667 0.38285 0.0
N827 N 0.82072 0.80396 0.38646 0.0
H828 H 0.26639 0.08253 0.36336 0.0
H829 H 0.1947 0.92265 0.38636 0.0
H830 H 0.23378 0.05381 0.41698 0.0
H831 H 0.21518 0.94836 0.32995 0.0
H832 H 0.20965 0.97093 0.39781 0.0
H833 H 0.24803 0.03375 0.35066 0.0
C834 C 0.2552 0.06597 0.37241 0.0
C835 C 0.25187 0.07229 0.39133 0.0
C836 C 0.21079 0.96602 0.3829 0.0
C837 C 0.23111 0.01654 0.37698 0.0
C838 C 0.2023 0.93843 0.37636 0.0
C839 C 0.20375 0.93144 0.35717 0.0
C840 C 0.221 0.98688 0.37023 0.0
C841 C 0.2137 0.9528 0.34486 0.0
C842 C 0.24483 0.03816 0.36518 0.0
C843 C 0.23739 0.04999 0.40246 0.0
N844 N 0.22207 0.97961 0.35163 0.0
N845 N 0.22768 0.02318 0.39515 0.0
H846 H 0.54955 0.59765 0.27437 0.0
H847 H 0.57365 0.73825 0.33137 0.0
H848 H 0.48115 0.60998 0.29046 0.0
H849 H 0.63902 0.73334 0.30274 0.0
H850 H 0.54022 0.68982 0.31901 0.0
H851 H 0.58337 0.64581 0.28734 0.0
C852 C 0.5416 0.61045 0.28061 0.0
C853 C 0.51236 0.59969 0.28121 0.0
C854 C 0.56185 0.69934 0.31539 0.0
C855 C 0.5511 0.6548 0.29631 0.0
C856 C 0.58101 0.72701 0.32247 0.0
C857 C 0.60923 0.73992 0.31809 0.0
C858 C 0.57098 0.68429 0.30397 0.0
C859 C 0.61746 0.72427 0.30644 0.0
C860 C 0.56096 0.63793 0.28805 0.0
C861 C 0.50343 0.61715 0.28986 0.0
N862 N 0.59844 0.69722 0.29984 0.0
N863 N 0.52271 0.64382 0.29703 0.0
H864 H 0.35831 0.88336 0.2488 0.0
H865 H 0.28367 0.88395 0.34338 0.0
H866 H 0.4025 0.90678 0.30545 0.0
H867 H 0.24018 0.85777 0.28644 0.0
H868 H 0.32766 0.89361 0.32999 0.0
H869 H 0.31524 0.87519 0.26254 0.0
C870 C 0.35905 0.88702 0.26414 0.0
C871 C 0.38421 0.89595 0.27596 0.0
C872 C 0.30848 0.88578 0.32045 0.0
C873 C 0.33458 0.88622 0.29189 0.0
C874 C 0.28333 0.88029 0.32808 0.0
C875 C 0.25808 0.86997 0.31605 0.0
C876 C 0.30843 0.88098 0.30063 0.0
C877 C 0.25902 0.86563 0.29633 0.0
C878 C 0.33433 0.88216 0.272 0.0
C879 C 0.38358 0.89971 0.29579 0.0
N880 N 0.2837 0.87114 0.28928 0.0
N881 N 0.35921 0.89488 0.30312 0.0
H882 H 0.13405 0.51736 0.30947 0.0
H883 H 0.09948 0.35924 0.30943 0.0
H884 H 0.05407 0.44653 0.28558 0.0
H885 H 0.17049 0.42853 0.34375 0.0
H886 H 0.08269 0.39088 0.30024 0.0
H887 H 0.14761 0.48519 0.32234 0.0
C888 C 0.1191 0.49507 0.30717 0.0
C889 C 0.09286 0.48469 0.29635 0.0
C890 C 0.10185 0.39912 0.30987 0.0
C891 C 0.10866 0.44765 0.31067 0.0
C892 C 0.11153 0.38109 0.31507 0.0
C893 C 0.13652 0.39127 0.32732 0.0
C894 C 0.1174 0.42759 0.31682 0.0
C895 C 0.15115 0.41976 0.33425 0.0
C896 C 0.12699 0.47668 0.31442 0.0
C897 C 0.0747 0.4555 0.29354 0.0
N898 N 0.14146 0.43696 0.3288 0.0
N899 N 0.08303 0.438 0.30052 0.0
H900 H 0.38859 0.48958 0.30766 0.0
H901 H 0.22107 0.38447 0.29111 0.0
H902 H 0.34112 0.4566 0.25225 0.0
H903 H 0.26849 0.40633 0.34666 0.0
H904 H 0.26474 0.4137 0.27715 0.0
H905 H 0.34486 0.46186 0.32265 0.0
C906 C 0.36896 0.47654 0.29865 0.0
C907 C 0.36837 0.47533 0.27867 0.0
C908 C 0.26567 0.41218 0.2924 0.0
C909 C 0.31843 0.44374 0.29569 0.0
C910 C 0.24065 0.3955 0.30044 0.0
C911 C 0.24103 0.39285 0.32014 0.0
C912 C 0.29143 0.42648 0.30408 0.0
C913 C 0.26717 0.40772 0.33141 0.0
C914 C 0.34404 0.46071 0.30722 0.0
C915 C 0.34244 0.45808 0.2677 0.0
N916 N 0.29136 0.4239 0.32321 0.0
N917 N 0.31852 0.44302 0.27634 0.0
H918 H 0.51707 0.85835 0.24851 0.0
H919 H 0.59923 0.854 0.34522 0.0
H920 H 0.50131 0.88014 0.30441 0.0
H921 H 0.61288 0.83156 0.28873 0.0
H922 H 0.56364 0.86399 0.33091 0.0
H923 H 0.55237 0.84858 0.26333 0.0
C924 C 0.52105 0.86102 0.26395 0.0
C925 C 0.50625 0.87001 0.27524 0.0
C926 C 0.57445 0.85689 0.32167 0.0
C927 C 0.54677 0.85895 0.2924 0.0
C928 C 0.59482 0.85121 0.32982 0.0
C929 C 0.60913 0.84189 0.31818 0.0
C930 C 0.56833 0.85327 0.30172 0.0
C931 C 0.60244 0.83866 0.29831 0.0
C932 C 0.54122 0.85546 0.27241 0.0
C933 C 0.51223 0.87319 0.29517 0.0
N934 N 0.58257 0.84431 0.29076 0.0
N935 N 0.53207 0.86767 0.30313 0.0
H936 H 0.168 0.64941 0.28185 0.0
H937 H 0.11407 0.75176 0.3161 0.0
H938 H 0.08822 0.61776 0.30599 0.0
H939 H 0.20226 0.77569 0.32578 0.0
H940 H 0.10245 0.70336 0.30678 0.0
H941 H 0.17957 0.69738 0.29245 0.0
C942 C 0.15301 0.65265 0.28943 0.0
C943 C 0.1273 0.62981 0.29323 0.0
C944 C 0.1243 0.71928 0.311 0.0
C945 C 0.13998 0.6842 0.30488 0.0
C946 C 0.13095 0.74681 0.31619 0.0
C947 C 0.15914 0.7676 0.32172 0.0
C948 C 0.1461 0.71282 0.31089 0.0
C949 C 0.18024 0.76018 0.3217 0.0
C950 C 0.15962 0.67988 0.29548 0.0
C951 C 0.10842 0.63491 0.30299 0.0
N952 N 0.17333 0.73339 0.31617 0.0
N953 N 0.11501 0.66169 0.30834 0.0
H954 H 0.84979 0.04328 0.37271 0.0
H955 H 0.73074 0.89018 0.39459 0.0
H956 H 0.8438 0.01187 0.42793 0.0
H957 H 0.73909 0.91875 0.33826 0.0
H958 H 0.77125 0.93535 0.40714 0.0
H959 H 0.80874 0.99829 0.35977 0.0
C960 C 0.8399 0.02686 0.38208 0.0
C961 C 0.85014 0.03116 0.40141 0.0
C962 C 0.76421 0.93178 0.39203 0.0
C963 C 0.80319 0.97988 0.38679 0.0
C964 C 0.74099 0.90598 0.38485 0.0
C965 C 0.73148 0.90061 0.36532 0.0
C966 C 0.77808 0.95245 0.37962 0.0
C967 C 0.74568 0.92194 0.35342 0.0
C968 C 0.81645 0.00122 0.37471 0.0
C969 C 0.83653 0.00928 0.41293 0.0
N970 N 0.76829 0.9469 0.36076 0.0
N971 N 0.81373 0.9846 0.40547 0.0
H972 H 0.96322 0.80064 0.37963 0.0
H973 H 0.11717 0.8155 0.38705 0.0
H974 H 0.00409 0.79163 0.43081 0.0
H975 H 0.08455 0.83958 0.33882 0.0
H976 H 0.07428 0.8038 0.40224 0.0
H977 H 0.00579 0.81222 0.36345 0.0
C978 C 0.98111 0.80106 0.38745 0.0
C979 C 0.98016 0.79516 0.40661 0.0
C980 C 0.07642 0.81163 0.38833 0.0
C981 C 0.02879 0.80827 0.3882 0.0
C982 C 0.10094 0.81824 0.37958 0.0
C983 C 0.10455 0.82851 0.36156 0.0
C984 C 0.05506 0.81508 0.37903 0.0
C985 C 0.08275 0.83177 0.35272 0.0
C986 C 0.00542 0.80772 0.37822 0.0
C987 C 0.00396 0.79605 0.41604 0.0
N988 N 0.0589 0.82501 0.36151 0.0
N989 N 0.02721 0.8024 0.40676 0.0
H990 H 0.29074 0.24804 0.40594 0.0
H991 H 0.18942 0.26326 0.32776 0.0
H992 H 0.2404 0.18204 0.36095 0.0
H993 H 0.20782 0.30191 0.38572 0.0
H994 H 0.21371 0.23764 0.33691 0.0
H995 H 0.26677 0.27329 0.3956 0.0
C996 C 0.27477 0.23901 0.3938 0.0
C997 C 0.26736 0.21293 0.38436 0.0
C998 C 0.21226 0.25167 0.34758 0.0
C999 C 0.24009 0.24161 0.3724 0.0
C1000 C 0.19848 0.26629 0.34239 0.0
C1001 C 0.19653 0.28464 0.35602 0.0
C1002 C 0.22463 0.25598 0.36639 0.0
C1003 C 0.20863 0.28782 0.37477 0.0
C1004 C 0.26102 0.2533 0.38798 0.0
C1005 C 0.24655 0.20204 0.3687 0.0
N1006 N 0.22238 0.27382 0.37936 0.0
N1007 N 0.23364 0.21651 0.36314 0.0
H1008 H 0.6552 0.53098 0.75896 0.0
H1009 H 0.73288 0.60524 0.6686 0.0
H1010 H 0.61072 0.52129 0.70386 0.0
H1011 H 0.776 0.61841 0.72483 0.0
H1012 H 0.6881 0.57326 0.68085 0.0
H1013 H 0.69978 0.56228 0.7464 0.0
C1014 C 0.65476 0.53558 0.74425 0.0
C1015 C 0.6291 0.52352 0.73248 0.0
C1016 C 0.70738 0.58314 0.69049 0.0
C1017 C 0.68026 0.55912 0.71788 0.0
C1018 C 0.73299 0.60137 0.6835 0.0
C1019 C 0.7583 0.61461 0.69569 0.0
C1020 C 0.70707 0.57804 0.70981 0.0
C1021 C 0.75707 0.60877 0.71487 0.0
C1022 C 0.68028 0.55333 0.73704 0.0
C1023 C 0.62999 0.52985 0.71341 0.0
N1024 N 0.73192 0.59097 0.72132 0.0
N1025 N 0.65513 0.54722 0.70671 0.0
H1026 H 0.50488 0.14068 0.76867 0.0
H1027 H 0.41132 0.13202 0.67382 0.0
H1028 H 0.50959 0.10604 0.71345 0.0
H1029 H 0.40375 0.16146 0.73005 0.0
H1030 H 0.44852 0.12396 0.68762 0.0
H1031 H 0.4692 0.1502 0.75431 0.0
C1032 C 0.49835 0.13499 0.75351 0.0
C1033 C 0.51012 0.12229 0.7423 0.0
C1034 C 0.43871 0.13219 0.69693 0.0
C1035 C 0.46928 0.13342 0.72566 0.0
C1036 C 0.41744 0.13679 0.68906 0.0
C1037 C 0.40428 0.1474 0.70078 0.0
C1038 C 0.44698 0.13829 0.71666 0.0
C1039 C 0.41318 0.15321 0.72043 0.0
C1040 C 0.47803 0.14054 0.7453 0.0
C1041 C 0.50124 0.11599 0.72264 0.0
N1042 N 0.43393 0.14859 0.72772 0.0
N1043 N 0.48127 0.1215 0.71496 0.0
H1044 H 0.95463 0.39868 0.73247 0.0
H1045 H 0.83886 0.26009 0.66771 0.0
H1046 H 0.87712 0.38904 0.70509 0.0
H1047 H 0.91179 0.26685 0.70035 0.0
H1048 H 0.85502 0.30897 0.67847 0.0
H1049 H 0.94178 0.35219 0.71791 0.0
C1050 C 0.93492 0.38679 0.72335 0.0
C1051 C 0.91675 0.39761 0.72017 0.0
C1052 C 0.86754 0.29979 0.68321 0.0
C1053 C 0.90198 0.34442 0.70336 0.0
C1054 C 0.85834 0.27186 0.67707 0.0
C1055 C 0.87391 0.25927 0.68323 0.0
C1056 C 0.89251 0.31528 0.69558 0.0
C1057 C 0.89903 0.27562 0.69531 0.0
C1058 C 0.92764 0.36028 0.715 0.0
C1059 C 0.89179 0.38155 0.70788 0.0
N1060 N 0.90749 0.30275 0.70114 0.0
N1061 N 0.88503 0.35566 0.70004 0.0
H1062 H 0.17273 0.93538 0.64137 0.0
H1063 H 0.28559 0.0929 0.62346 0.0
H1064 H 0.18286 0.96751 0.5862 0.0
H1065 H 0.27342 0.06326 0.67947 0.0
H1066 H 0.24842 0.04663 0.60964 0.0
H1067 H 0.20946 0.98188 0.6558 0.0
C1068 C 0.18254 0.95225 0.63232 0.0
C1069 C 0.17487 0.9475 0.61253 0.0
C1070 C 0.25386 0.05021 0.62496 0.0
C1071 C 0.21703 0.0006 0.62888 0.0
C1072 C 0.27517 0.07666 0.63287 0.0
C1073 C 0.28266 0.08203 0.65268 0.0
C1074 C 0.2399 0.02887 0.6369 0.0
C1075 C 0.26836 0.06009 0.66413 0.0
C1076 C 0.20361 0.97873 0.64054 0.0
C1077 C 0.18846 0.97006 0.60146 0.0
N1078 N 0.24764 0.03448 0.65607 0.0
N1079 N 0.20888 0.99556 0.60977 0.0
H1080 H 0.02229 0.20997 0.57769 0.0
H1081 H 0.9393 0.18132 0.67108 0.0
H1082 H 0.06289 0.22023 0.63438 0.0
H1083 H 0.90892 0.19663 0.6177 0.0
H1084 H 0.98278 0.1902 0.65726 0.0
H1085 H 0.97877 0.2 0.59155 0.0
C1086 C 0.02222 0.21033 0.59306 0.0
C1087 C 0.0466 0.21623 0.60484 0.0
C1088 C 0.96658 0.19161 0.6486 0.0
C1089 C 0.99629 0.20411 0.62081 0.0
C1090 C 0.9417 0.18645 0.65645 0.0
C1091 C 0.9204 0.1883 0.64557 0.0
C1092 C 0.97009 0.19832 0.62964 0.0
C1093 C 0.92478 0.19512 0.62669 0.0
C1094 C 0.99722 0.20445 0.60096 0.0
C1095 C 0.04469 0.21553 0.62465 0.0
N1096 N 0.94904 0.19977 0.61932 0.0
N1097 N 0.02002 0.20959 0.63199 0.0
H1098 H 0.7801 0.81603 0.60109 0.0
H1099 H 0.79463 0.73413 0.68723 0.0
H1100 H 0.74416 0.81417 0.65429 0.0
H1101 H 0.81916 0.7274 0.63088 0.0
H1102 H 0.77898 0.76608 0.67646 0.0
H1103 H 0.7976 0.78622 0.61286 0.0
C1104 C 0.77575 0.80922 0.61523 0.0
C1105 C 0.76032 0.81733 0.62663 0.0
C1106 C 0.78781 0.7576 0.66649 0.0
C1107 C 0.78069 0.78342 0.64034 0.0
C1108 C 0.79679 0.73939 0.67262 0.0
C1109 C 0.80819 0.72801 0.65993 0.0
C1110 C 0.79039 0.76457 0.64757 0.0
C1111 C 0.81044 0.73557 0.64116 0.0
C1112 C 0.78588 0.79229 0.62199 0.0
C1113 C 0.75603 0.80848 0.64505 0.0
N1114 N 0.80164 0.75337 0.63557 0.0
N1115 N 0.76607 0.79189 0.65132 0.0
H1116 H 0.04925 0.84428 0.63912 0.0
H1117 H 0.8989 0.70346 0.62875 0.0
H1118 H 0.00737 0.79345 0.58589 0.0
H1119 H 0.92861 0.76255 0.67917 0.0
H1120 H 0.94063 0.73513 0.61395 0.0
H1121 H 0.00731 0.81381 0.65506 0.0
C1122 C 0.03124 0.82673 0.6308 0.0
C1123 C 0.0317 0.82124 0.61116 0.0
C1124 C 0.93812 0.74129 0.62825 0.0
C1125 C 0.98396 0.78643 0.62926 0.0
C1126 C 0.91427 0.72309 0.6368 0.0
C1127 C 0.91022 0.73026 0.65532 0.0
C1128 C 0.9584 0.76693 0.63825 0.0
C1129 C 0.93088 0.75618 0.66488 0.0
C1130 C 0.00732 0.80943 0.63989 0.0
C1131 C 0.00784 0.79835 0.60105 0.0
N1132 N 0.9542 0.77359 0.65626 0.0
N1133 N 0.98501 0.78174 0.61022 0.0
H1134 H 0.20034 0.20827 0.58069 0.0
H1135 H 0.25164 0.16405 0.67451 0.0
H1136 H 0.15956 0.19705 0.63264 0.0
H1137 H 0.30206 0.19492 0.62727 0.0
H1138 H 0.21599 0.17281 0.65884 0.0
H1139 H 0.23598 0.20005 0.59689 0.0
C1140 C 0.19892 0.20404 0.59553 0.0
C1141 C 0.17704 0.20337 0.60534 0.0
C1142 C 0.2349 0.17774 0.65195 0.0
C1143 C 0.2177 0.19383 0.62401 0.0
C1144 C 0.25526 0.17268 0.66086 0.0
C1145 C 0.27996 0.17876 0.65221 0.0
C1146 C 0.23908 0.18868 0.63415 0.0
C1147 C 0.28345 0.18998 0.63452 0.0
C1148 C 0.2193 0.19943 0.60479 0.0
C1149 C 0.17613 0.19781 0.62455 0.0
N1150 N 0.26321 0.19445 0.62606 0.0
N1151 N 0.19615 0.19315 0.63326 0.0
H1152 H 0.71479 0.94771 0.61524 0.0
H1153 H 0.82492 0.08273 0.68383 0.0
H1154 H 0.77339 0.94507 0.65768 0.0
H1155 H 0.7958 0.08775 0.62667 0.0
H1156 H 0.80113 0.03162 0.67726 0.0
H1157 H 0.7388 -0.00123 0.62232 0.0
C1158 C 0.73259 0.95792 0.62615 0.0
C1159 C 0.74225 0.94232 0.63584 0.0
C1160 C 0.80009 0.04398 0.66617 0.0
C1161 C 0.7696 0.0004 0.64406 0.0
C1162 C 0.81357 0.07308 0.66989 0.0
C1163 C 0.81234 0.08946 0.65575 0.0
C1164 C 0.78483 0.0312 0.64832 0.0
C1165 C 0.79741 0.07591 0.63794 0.0
C1166 C 0.74636 0.98698 0.63008 0.0
C1167 C 0.76542 0.95643 0.64982 0.0
N1168 N 0.78401 0.04751 0.63478 0.0
N1169 N 0.77829 0.98475 0.65359 0.0
H1170 H 0.51902 0.38693 0.70664 0.0
H1171 H 0.36728 0.25169 0.71353 0.0
H1172 H 0.45105 0.38988 0.73288 0.0
H1173 H 0.43115 0.25045 0.68084 0.0
H1174 H 0.39867 0.30191 0.72218 0.0
H1175 H 0.48791 0.33651 0.69811 0.0
C1176 C 0.49751 0.37697 0.71054 0.0
C1177 C 0.48748 0.3925 0.72046 0.0
C1178 C 0.40582 0.29063 0.71313 0.0
C1179 C 0.45192 0.33491 0.7109 0.0
C1180 C 0.38793 0.26192 0.70823 0.0
C1181 C 0.39654 0.2468 0.6964 0.0
C1182 C 0.43257 0.30435 0.70622 0.0
C1183 C 0.42356 0.26123 0.68995 0.0
C1184 C 0.47977 0.3482 0.70569 0.0
C1185 C 0.4595 0.37858 0.72519 0.0
N1186 N 0.44059 0.28919 0.69494 0.0
N1187 N 0.4427 0.35055 0.72042 0.0
H1188 H 0.6281 0.12246 0.71187 0.0
H1189 H 0.79314 0.17011 0.72275 0.0
H1190 H 0.67692 0.13547 0.76565 0.0
H1191 H 0.7435 0.14674 0.66799 0.0
H1192 H 0.751 0.1597 0.73843 0.0
H1193 H 0.67011 0.13315 0.69531 0.0
C1194 C 0.64764 0.12757 0.72019 0.0
C1195 C 0.64909 0.12813 0.74018 0.0
C1196 C 0.74924 0.15683 0.72298 0.0
C1197 C 0.69717 0.14044 0.72136 0.0
C1198 C 0.77341 0.16287 0.71396 0.0
C1199 C 0.772 0.15935 0.69395 0.0
C1200 C 0.72327 0.14723 0.71199 0.0
C1201 C 0.74564 0.14976 0.68344 0.0
C1202 C 0.6716 0.13364 0.71073 0.0
C1203 C 0.67492 0.13482 0.75023 0.0
N1204 N 0.72233 0.14407 0.69258 0.0
N1205 N 0.6979 0.14076 0.74073 0.0
H1206 H 0.954 0.57306 0.73609 0.0
H1207 H 0.83394 0.58284 0.67152 0.0
H1208 H 0.88591 0.50194 0.70131 0.0
H1209 H 0.89976 0.65102 0.70982 0.0
H1210 H 0.85338 0.55308 0.68077 0.0
H1211 H 0.93533 0.60238 0.72499 0.0
C1212 C 0.93515 0.56368 0.72604 0.0
C1213 C 0.92147 0.53512 0.71964 0.0
C1214 C 0.86353 0.57458 0.6871 0.0
C1215 C 0.89978 0.56842 0.70689 0.0
C1216 C 0.85246 0.59157 0.68182 0.0
C1217 C 0.86517 0.61947 0.68993 0.0
C1218 C 0.88749 0.58563 0.70051 0.0
C1219 C 0.88914 0.62966 0.7032 0.0
C1220 C 0.92444 0.58038 0.71972 0.0
C1221 C 0.8971 0.52392 0.70662 0.0
N1222 N 0.89945 0.61277 0.70805 0.0
N1223 N 0.88696 0.54061 0.70069 0.0
H1224 H 0.45976 0.90126 0.21093 0.0
H1225 H 0.47907 0.02814 0.15138 0.0
H1226 H 0.44037 0.96435 0.23153 0.0
H1227 H 0.49419 0.96222 0.13039 0.0
H1228 H 0.4654 0.00572 0.18098 0.0
H1229 H 0.4728 0.92376 0.18146 0.0
C1230 C 0.45836 0.91995 0.20929 0.0
C1231 C 0.44909 0.931 0.22381 0.0
C1232 C 0.47168 0.99615 0.16988 0.0
C1233 C 0.46383 0.95686 0.1899 0.0
C1234 C 0.47965 0.00904 0.15302 0.0
C1235 C 0.48778 0.99706 0.13833 0.0
C1236 C 0.47194 0.97115 0.17214 0.0
C1237 C 0.48773 0.97205 0.14118 0.0
C1238 C 0.46568 0.93272 0.19239 0.0
C1239 C 0.4472 0.95498 0.22068 0.0
N1240 N 0.48 0.96 0.15773 0.0
N1241 N 0.45461 0.96716 0.20411 0.0
H1242 H 0.02789 0.52706 0.24269 0.0
H1243 H 0.02775 0.46584 0.13691 0.0
H1244 H 0.07817 0.48929 0.22871 0.0
H1245 H 0.97861 0.50483 0.15108 0.0
H1246 H 0.04514 0.47258 0.17064 0.0
H1247 H 0.00811 0.51727 0.20933 0.0
C1248 C 0.03476 0.5167 0.23258 0.0
C1249 C 0.05478 0.50907 0.23847 0.0
C1250 C 0.03048 0.47958 0.16637 0.0
C1251 C 0.03214 0.49766 0.20027 0.0
C1252 C 0.02066 0.47587 0.14711 0.0
C1253 C 1.00175 0.48486 0.14115 0.0
C1254 C 0.02138 0.49243 0.17979 0.0
C1255 C 0.99292 0.4973 0.15504 0.0
C1256 C 0.02339 0.51101 0.21356 0.0
C1257 C 0.06259 0.4953 0.22483 0.0
N1258 N 1.00289 0.5008 0.17368 0.0
N1259 N 0.05135 0.49016 0.20635 0.0
H1260 H 0.52545 0.53901 0.23503 0.0
H1261 H 0.46678 0.48668 0.12508 0.0
H1262 H 0.43884 0.50931 0.21311 0.0
H1263 H 0.55456 0.52262 0.14684 0.0
H1264 H 0.45484 0.48941 0.15773 0.0
H1265 H 0.53511 0.52761 0.20338 0.0
C1266 C 0.50843 0.52998 0.22355 0.0
C1267 C 0.48138 0.52539 0.22667 0.0
C1268 C 0.47667 0.49646 0.15537 0.0
C1269 C 0.49226 0.51218 0.19036 0.0
C1270 C 0.48353 0.49501 0.13672 0.0
C1271 C 0.51178 0.50466 0.13316 0.0
C1272 C 0.4982 0.50767 0.17059 0.0
C1273 C 0.53249 0.51473 0.14886 0.0
C1274 C 0.51393 0.52338 0.20549 0.0
C1275 C 0.45998 0.51311 0.21136 0.0
N1276 N 0.52531 0.51617 0.16684 0.0
N1277 N 0.46594 0.50717 0.19383 0.0
H1278 H 0.9182 0.41843 0.78741 0.0
H1279 H 0.02698 0.52794 0.87278 0.0
H1280 H 0.97934 0.50431 0.78033 0.0
H1281 H 0.96649 0.44165 0.87935 0.0
H1282 H 0.00937 0.52003 0.83904 0.0
H1283 H 0.935 0.42693 0.82129 0.0
C1284 C 0.93526 0.43907 0.79298 0.0
C1285 C 0.94753 0.46065 0.78099 0.0
C1286 C 0.99992 0.50283 0.84786 0.0
C1287 C 0.96672 0.47062 0.81986 0.0
C1288 C 0.01009 0.50728 0.8671 0.0
C1289 C 0.99827 0.48539 0.87891 0.0
C1290 C 0.97777 0.47628 0.84032 0.0
C1291 C 0.97605 0.45921 0.87084 0.0
C1292 C 0.94475 0.44395 0.81236 0.0
C1293 C 0.96916 0.48713 0.78908 0.0
N1294 N 0.96658 0.45537 0.85205 0.0
N1295 N 0.97814 0.49134 0.808 0.0
H1296 H 0.5527 0.45428 0.79284 0.0
H1297 H 0.53106 0.55504 0.86752 0.0
H1298 H 0.57712 0.5397 0.78388 0.0
H1299 H 0.51678 0.47307 0.87841 0.0
H1300 H 0.5479 0.55017 0.83686 0.0
H1301 H 0.53988 0.46126 0.82443 0.0
C1302 C 0.55542 0.47456 0.79759 0.0
C1303 C 0.56576 0.49638 0.7857 0.0
C1304 C 0.54119 0.53332 0.846 0.0
C1305 C 0.55107 0.50457 0.82188 0.0
C1306 C 0.53138 0.53599 0.86343 0.0
C1307 C 0.52245 0.5144 0.87553 0.0
C1308 C 0.54187 0.50879 0.84057 0.0
C1309 C 0.52371 0.49036 0.86964 0.0
C1310 C 0.54818 0.47858 0.81565 0.0
C1311 C 0.56928 0.52237 0.79265 0.0
N1312 N 0.53311 0.48817 0.85257 0.0
N1313 N 0.56171 0.52569 0.81025 0.0
H1314 H 0.53126 0.11578 0.80951 0.0
H1315 H 0.49979 0.98407 0.86662 0.0
H1316 H 0.54692 0.05035 0.78838 0.0
H1317 H 0.507 0.06025 0.89296 0.0
H1318 H 0.5144 0.00662 0.83727 0.0
H1319 H 0.51955 0.09438 0.83956 0.0
C1320 C 0.53227 0.0969 0.81124 0.0
C1321 C 0.53998 0.08476 0.79642 0.0
C1322 C 0.51283 0.01839 0.8495 0.0
C1323 C 0.52648 0.06005 0.83076 0.0
C1324 C 0.50459 0.00558 0.86634 0.0
C1325 C 0.50209 0.0202 0.88243 0.0
C1326 C 0.51839 0.04599 0.84858 0.0
C1327 C 0.50809 0.04787 0.88092 0.0
C1328 C 0.52569 0.08476 0.82841 0.0
C1329 C 0.54124 0.06047 0.79948 0.0
N1330 N 0.51585 0.05979 0.86431 0.0
N1331 N 0.53433 0.04877 0.81626 0.0
H1332 H 0.07269 0.23821 0.54013 0.0
H1333 H 0.19736 0.35727 0.48811 0.0
H1334 H 0.15857 0.28941 0.56617 0.0
H1335 H 0.11501 0.2977 0.4594 0.0
H1336 H 0.1825 0.3351 0.51756 0.0
H1337 H 0.08657 0.26275 0.51136 0.0
C1338 C 0.0944 0.25481 0.53987 0.0
C1339 C 0.11452 0.26167 0.55556 0.0
C1340 C 0.16766 0.32693 0.50482 0.0
C1341 C 0.13064 0.2897 0.52259 0.0
C1342 C 0.17619 0.33948 0.48793 0.0
C1343 C 0.15749 0.32936 0.47113 0.0
C1344 C 0.14016 0.30408 0.50502 0.0
C1345 C 0.13009 0.30655 0.47199 0.0
C1346 C 0.10237 0.26867 0.52339 0.0
C1347 C 0.14244 0.28316 0.55432 0.0
N1348 N 0.1223 0.29469 0.48861 0.0
N1349 N 0.14967 0.29636 0.53814 0.0
H1350 H 0.68952 0.79571 0.57166 0.0
H1351 H 0.69956 0.86449 0.47333 0.0
H1352 H 0.73982 0.88441 0.5665 0.0
H1353 H 0.64212 0.7772 0.47934 0.0
H1354 H 0.71583 0.87177 0.50727 0.0
H1355 H 0.67297 0.78806 0.53765 0.0
C1356 C 0.69709 0.81355 0.56334 0.0
C1357 C 0.71601 0.84074 0.5719 0.0
C1358 C 0.69965 0.85102 0.50119 0.0
C1359 C 0.69716 0.83219 0.53306 0.0
C1360 C 0.69049 0.84681 0.48178 0.0
C1361 C 0.66949 0.82019 0.4735 0.0
C1362 C 0.68783 0.8284 0.51241 0.0
C1363 C 0.65816 0.79813 0.48519 0.0
C1364 C 0.68755 0.8092 0.54397 0.0
C1365 C 0.72495 0.86315 0.56053 0.0
N1366 N 0.66752 0.80271 0.50406 0.0
N1367 N 0.71551 0.85837 0.54169 0.0
H1368 H 0.10141 0.85736 0.54436 0.0
H1369 H 0.22194 0.86601 0.48118 0.0
H1370 H 0.18751 0.88608 0.56704 0.0
H1371 H 0.13504 0.83317 0.45839 0.0
H1372 H 0.20888 0.87097 0.51305 0.0
H1373 H 0.11231 0.84551 0.51317 0.0
C1374 C 0.1225 0.86083 0.54284 0.0
C1375 C 0.14366 0.87297 0.55829 0.0
C1376 C 0.1926 0.86255 0.5011 0.0
C1377 C 0.15638 0.85984 0.52259 0.0
C1378 C 0.20003 0.85956 0.48288 0.0
C1379 C 0.17959 0.84922 0.46702 0.0
C1380 C 0.16452 0.85526 0.50356 0.0
C1381 C 0.15161 0.84166 0.47013 0.0
C1382 C 0.12876 0.85423 0.525 0.0
C1383 C 0.17069 0.87725 0.55544 0.0
N1384 N 0.14493 0.84493 0.48802 0.0
N1385 N 0.17631 0.87086 0.53794 0.0
H1386 H 0.60136 0.82516 0.11879 0.0
H1387 H 0.68864 0.79793 0.20175 0.0
H1388 H 0.65633 0.79161 0.10812 0.0
H1389 H 0.64556 0.84451 0.21158 0.0
H1390 H 0.6746 0.79279 0.1675 0.0
H1391 H 0.61568 0.83069 0.15295 0.0
C1392 C 0.61666 0.81922 0.12359 0.0
C1393 C 0.62768 0.80793 0.11052 0.0
C1394 C 0.66823 0.80415 0.17715 0.0
C1395 C 0.64374 0.8137 0.1497 0.0
C1396 C 0.67606 0.8069 0.1967 0.0
C1397 C 0.66827 0.82169 0.20951 0.0
C1398 C 0.65233 0.8161 0.17037 0.0
C1399 C 0.65228 0.83321 0.20217 0.0
C1400 C 0.62467 0.8222 0.14313 0.0
C1401 C 0.647 0.80006 0.11767 0.0
N1402 N 0.64479 0.83013 0.18309 0.0
N1403 N 0.65435 0.80302 0.13676 0.0
H1404 H 0.2337 0.78491 0.13404 0.0
H1405 H 0.19906 0.88389 0.20112 0.0
H1406 H 0.24176 0.86232 0.11727 0.0
H1407 H 0.18622 0.80327 0.21452 0.0
H1408 H 0.21707 0.87816 0.17115 0.0
H1409 H 0.21962 0.79356 0.16469 0.0
C1410 C 0.23255 0.8038 0.13686 0.0
C1411 C 0.23857 0.82276 0.123 0.0
C1412 C 0.21037 0.86179 0.1807 0.0
C1413 C 0.22243 0.83288 0.15819 0.0
C1414 C 0.1999 0.86494 0.19775 0.0
C1415 C 0.19113 0.84405 0.21042 0.0
C1416 C 0.21207 0.83756 0.17629 0.0
C1417 C 0.19311 0.82014 0.20539 0.0
C1418 C 0.22454 0.80877 0.15439 0.0
C1419 C 0.23731 0.84719 0.12758 0.0
N1420 N 0.20332 0.81757 0.18876 0.0
N1421 N 0.22915 0.85146 0.14475 0.0
H1422 H 0.2432 0.43671 0.14104 0.0
H1423 H 0.12625 0.31632 0.19704 0.0
H1424 H 0.15913 0.37588 0.1157 0.0
H1425 H 0.20838 0.37993 0.22374 0.0
H1426 H 0.13901 0.33639 0.16669 0.0
H1427 H 0.23209 0.41453 0.17091 0.0
C1428 C 0.22251 0.41852 0.14169 0.0
C1429 C 0.20201 0.40826 0.12586 0.0
C1430 C 0.15428 0.34597 0.17918 0.0
C1431 C 0.18903 0.38293 0.16008 0.0
C1432 C 0.14704 0.33442 0.19652 0.0
C1433 C 0.16623 0.34645 0.21303 0.0
C1434 C 0.18096 0.36974 0.17823 0.0
C1435 C 0.19274 0.37016 0.21147 0.0
C1436 C 0.2161 0.40599 0.15879 0.0
C1437 C 0.17544 0.3848 0.12762 0.0
N1438 N 0.19931 0.381 0.19441 0.0
N1439 N 0.16972 0.373 0.14439 0.0
H1440 H 0.74139 0.5768 0.87526 0.0
H1441 H 0.8689 0.68971 0.82166 0.0
H1442 H 0.82795 0.62462 0.90065 0.0
H1443 H 0.78416 0.63562 0.79444 0.0
H1444 H 0.85362 0.6685 0.85143 0.0
H1445 H 0.75595 0.60065 0.84631 0.0
C1446 C 0.76341 0.59251 0.87481 0.0
C1447 C 0.78349 0.59863 0.89039 0.0
C1448 C 0.83835 0.66129 0.83895 0.0
C1449 C 0.80038 0.62586 0.8572 0.0
C1450 C 0.84703 0.6735 0.82197 0.0
C1451 C 0.82782 0.66438 0.80548 0.0
C1452 C 0.81019 0.63986 0.83953 0.0
C1453 C 0.79981 0.64305 0.8067 0.0
C1454 C 0.77176 0.60598 0.85823 0.0
C1455 C 0.81181 0.61894 0.8889 0.0
N1456 N 0.79186 0.63154 0.8234 0.0
N1457 N 0.81941 0.63179 0.87261 0.0
H1458 H 0.41536 0.23082 0.90391 0.0
H1459 H 0.30704 0.12428 0.81742 0.0
H1460 H 0.35849 0.14301 0.90862 0.0
H1461 H 0.37567 0.2069 0.81009 0.0
H1462 H 0.32334 0.13183 0.85134 0.0
H1463 H 0.39861 0.2236 0.86999 0.0
C1464 C 0.39924 0.21004 0.8978 0.0
C1465 C 0.38824 0.18747 0.90907 0.0
C1466 C 0.33484 0.1483 0.8423 0.0
C1467 C 0.36908 0.17903 0.8703 0.0
C1468 C 0.32563 0.14397 0.82289 0.0
C1469 C 0.34007 0.16493 0.81079 0.0
C1470 C 0.35858 0.17386 0.84977 0.0
C1471 C 0.36365 0.19026 0.81886 0.0
C1472 C 0.38981 0.2059 0.87844 0.0
C1473 C 0.36768 0.16092 0.90039 0.0
N1474 N 0.37217 0.194 0.83783 0.0
N1475 N 0.35869 0.15745 0.88153 0.0
H1476 H 0.79612 0.15972 0.89194 0.0
H1477 H 0.84862 0.2247 0.79345 0.0
H1478 H 0.81625 0.24297 0.87974 0.0
H1479 H 0.83186 0.14193 0.80444 0.0
H1480 H 0.83379 0.23008 0.82451 0.0
H1481 H 0.80583 0.15095 0.85939 0.0
C1482 C 0.80233 0.17601 0.88236 0.0
C1483 C 0.80574 0.20221 0.88858 0.0
C1484 C 0.83326 0.21067 0.82017 0.0
C1485 C 0.81694 0.19248 0.85155 0.0
C1486 C 0.84159 0.20752 0.80233 0.0
C1487 C 0.84146 0.1828 0.79627 0.0
C1488 C 0.82476 0.189 0.83218 0.0
C1489 C 0.83262 0.16149 0.80862 0.0
C1490 C 0.80801 0.17108 0.86386 0.0
C1491 C 0.81388 0.22265 0.87564 0.0
N1492 N 0.82465 0.16508 0.82602 0.0
N1493 N 0.8193 0.21739 0.85782 0.0
H1494 H 0.27909 0.16835 0.4549 0.0
H1495 H 0.36289 0.13778 0.53815 0.0
H1496 H 0.32381 0.12335 0.4451 0.0
H1497 H 0.32895 0.19295 0.54702 0.0
H1498 H 0.34838 0.13204 0.50399 0.0
H1499 H 0.29745 0.1781 0.48858 0.0
C1500 C 0.29304 0.1608 0.45977 0.0
C1501 C 0.29981 0.14489 0.44715 0.0
C1502 C 0.3442 0.1455 0.51338 0.0
C1503 C 0.32049 0.15556 0.48578 0.0
C1504 C 0.35231 0.14863 0.53289 0.0
C1505 C 0.34698 0.16575 0.54544 0.0
C1506 C 0.33046 0.15944 0.50633 0.0
C1507 C 0.33363 0.1797 0.53782 0.0
C1508 C 0.30338 0.16623 0.47904 0.0
C1509 C 0.31764 0.13529 0.45437 0.0
N1510 N 0.32567 0.1761 0.51876 0.0
N1511 N 0.32722 0.14064 0.4732 0.0
H1512 H 0.89993 0.18761 0.44496 0.0
H1513 H 0.86596 0.14053 0.55005 0.0
H1514 H 0.90159 0.11632 0.46565 0.0
H1515 H 0.84204 0.19639 0.52504 0.0
H1516 H 0.88457 0.13577 0.52038 0.0
H1517 H 0.88459 0.19585 0.47559 0.0
C1518 C 0.89729 0.17388 0.45601 0.0
C1519 C 0.9018 0.15114 0.45278 0.0
C1520 C 0.87523 0.14906 0.52137 0.0
C1521 C 0.88438 0.16037 0.48765 0.0
C1522 C 0.86438 0.15164 0.53828 0.0
C1523 C 0.85204 0.16862 0.54004 0.0
C1524 C 0.87399 0.1637 0.50603 0.0
C1525 C 0.85148 0.18318 0.52442 0.0
C1526 C 0.88839 0.17846 0.47339 0.0
C1527 C 0.89797 0.13387 0.46749 0.0
N1528 N 0.86225 0.18035 0.50805 0.0
N1529 N 0.88949 0.13883 0.48426 0.0
H1530 H 0.84957 0.77023 0.47218 0.0
H1531 H 0.86496 0.66717 0.54133 0.0
H1532 H 0.88741 0.72032 0.45661 0.0
H1533 H 0.81404 0.70547 0.55146 0.0
H1534 H 0.87688 0.68936 0.51151 0.0
H1535 H 0.83969 0.74946 0.50244 0.0
C1536 C 0.85572 0.75481 0.47506 0.0
C1537 C 0.86917 0.74689 0.46167 0.0
C1538 C 0.86308 0.69289 0.52026 0.0
C1539 C 0.85823 0.72325 0.49659 0.0
C1540 C 0.85639 0.68035 0.53734 0.0
C1541 C 0.83838 0.68437 0.54891 0.0
C1542 C 0.8519 0.70981 0.51476 0.0
C1543 C 0.82768 0.70146 0.54289 0.0
C1544 C 0.85017 0.74305 0.49242 0.0
C1545 C 0.87723 0.72729 0.4665 0.0
N1546 N 0.83464 0.71356 0.52628 0.0
N1547 N 0.87159 0.71612 0.48353 0.0
loop_
_geom_bond_atom_site_label_1
_geom_bond_atom_site_label_2
_geom_bond_distance
_geom_bond_site_symmetry_2
_ccdc_geom_bond_type
H0 C5 0.930 . S
H1 C8 0.930 . S
H2 C10 0.930 . S
H3 C4 1.016 . S
C4 H3 1.016 . S
C4 N11 1.286 . S
C5 H0 0.930 . S
C5 C6 1.397 . S
C5 C7 1.361 . S
C6 C5 1.397 . S
C6 C10 1.390 . S
C7 C5 1.361 . S
C7 C8 1.393 . S
C7 N11 1.413 . S
C8 H1 0.930 . S
C8 C7 1.393 . S
C8 C9 1.399 . S
C9 C8 1.399 . S
C9 C10 1.381 . S
C10 H2 0.930 . S
C10 C6 1.390 . S
C10 C9 1.381 . S
N11 C4 1.286 . S
N11 C7 1.413 . S
H12 C17 0.930 . S
H13 C20 0.930 . S
H14 C22 0.930 . S
H15 C16 1.016 . S
C16 H15 1.016 . S
C16 N23 1.286 . S
C17 H12 0.930 . S
C17 C18 1.397 . S
C17 C19 1.361 . S
C18 C17 1.397 . S
C18 C22 1.390 . S
C19 C17 1.361 . S
C19 C20 1.393 . S
C19 N23 1.413 . S
C20 H13 0.930 . S
C20 C19 1.393 . S
C20 C21 1.399 . S
C21 C20 1.399 . S
C21 C22 1.381 . S
C22 H14 0.930 . S
C22 C18 1.390 . S
C22 C21 1.381 . S
N23 C16 1.286 . S
N23 C19 1.413 . S
H24 C29 0.930 . S
H25 C32 0.930 . S
H26 C34 0.930 . S
H27 C28 1.016 . S
C28 H27 1.016 . S
C28 N35 1.286 . S
C29 H24 0.930 . S
C29 C30 1.397 . S
C29 C31 1.361 . S
C30 C29 1.397 . S
C30 C34 1.390 . S
C31 C29 1.361 . S
C31 C32 1.393 . S
C31 N35 1.413 . S
C32 H25 0.930 . S
C32 C31 1.393 . S
C32 C33 1.399 . S
C33 C32 1.399 . S
C33 C34 1.381 . S
C34 H26 0.930 . S
C34 C30 1.390 . S
C34 C33 1.381 . S
N35 C28 1.286 . S
N35 C31 1.413 . S
H36 C41 0.930 . S
H37 C44 0.930 . S
H38 C46 0.930 . S
H39 C40 1.016 . S
C40 H39 1.016 . S
C40 N47 1.286 . S
C41 H36 0.930 . S
C41 C42 1.397 . S
C41 C43 1.361 . S
C42 C41 1.397 . S
C42 C46 1.390 . S
C43 C41 1.361 . S
C43 C44 1.393 . S
C43 N47 1.413 . S
C44 H37 0.930 . S
C44 C43 1.393 . S
C44 C45 1.399 . S
C45 C44 1.399 . S
C45 C46 1.381 . S
C46 H38 0.930 . S
C46 C42 1.390 . S
C46 C45 1.381 . S
N47 C40 1.286 . S
N47 C43 1.413 . S
H48 C53 0.930 . S
H49 C56 0.930 . S
H50 C58 0.930 . S
H51 C52 1.016 . S
C52 H51 1.016 . S
C52 N59 1.286 . S
C53 H48 0.930 . S
C53 C54 1.397 . S
C53 C55 1.361 . S
C54 C53 1.397 . S
C54 C58 1.390 . S
C55 C53 1.361 . S
C55 C56 1.393 . S
C55 N59 1.413 . S
C56 H49 0.930 . S
C56 C55 1.393 . S
C56 C57 1.399 . S
C57 C56 1.399 . S
C57 C58 1.381 . S
C58 H50 0.930 . S
C58 C54 1.390 . S
C58 C57 1.381 . S
N59 C52 1.286 . S
N59 C55 1.413 . S
H60 C65 0.930 . S
H61 C68 0.930 . S
H62 C70 0.930 . S
H63 C64 1.016 . S
C64 H63 1.016 . S
C64 N71 1.286 . S
C65 H60 0.930 . S
C65 C66 1.397 . S
C65 C67 1.361 . S
C66 C65 1.397 . S
C66 C70 1.390 . S
C67 C65 1.361 . S
C67 C68 1.393 . S
C67 N71 1.413 . S
C68 H61 0.930 . S
C68 C67 1.393 . S
C68 C69 1.399 . S
C69 C68 1.399 . S
C69 C70 1.381 . S
C70 H62 0.930 . S
C70 C66 1.390 . S
C70 C69 1.381 . S
N71 C64 1.286 . S
N71 C67 1.413 . S
H72 C77 0.930 . S
H73 C80 0.930 . S
H74 C82 0.930 . S
H75 C76 1.016 . S
C76 H75 1.016 . S
C76 N83 1.286 . S
C77 H72 0.930 . S
C77 C78 1.397 . S
C77 C79 1.361 . S
C78 C77 1.397 . S
C78 C82 1.390 . S
C79 C77 1.361 . S
C79 C80 1.393 . S
C79 N83 1.413 . S
C80 H73 0.930 . S
C80 C79 1.393 . S
C80 C81 1.399 . S
C81 C80 1.399 . S
C81 C82 1.381 . S
C82 H74 0.930 . S
C82 C78 1.390 . S
C82 C81 1.381 . S
N83 C76 1.286 . S
N83 C79 1.413 . S
H84 C89 0.930 . S
H85 C92 0.930 . S
H86 C94 0.930 . S
H87 C88 1.016 . S
C88 H87 1.016 . S
C88 N95 1.286 . S
C89 H84 0.930 . S
C89 C90 1.397 . S
C89 C91 1.361 . S
C90 C89 1.397 . S
C90 C94 1.390 . S
C91 C89 1.361 . S
C91 C92 1.393 . S
C91 N95 1.413 . S
C92 H85 0.930 . S
C92 C91 1.393 . S
C92 C93 1.399 . S
C93 C92 1.399 . S
C93 C94 1.381 . S
C94 H86 0.930 . S
C94 C90 1.390 . S
C94 C93 1.381 . S
N95 C88 1.286 . S
N95 C91 1.413 . S
H96 C101 0.930 . S
H97 C104 0.930 . S
H98 C106 0.930 . S
H99 C100 1.016 . S
C100 H99 1.016 . S
C100 N107 1.286 . S
C101 H96 0.930 . S
C101 C102 1.397 . S
C101 C103 1.361 . S
C102 C101 1.397 . S
C102 C106 1.390 . S
C103 C101 1.361 . S
C103 C104 1.393 . S
C103 N107 1.413 . S
C104 H97 0.930 . S
C104 C103 1.393 . S
C104 C105 1.399 . S
C105 C104 1.399 . S
C105 C106 1.381 . S
C106 H98 0.930 . S
C106 C102 1.390 . S
C106 C105 1.381 . S
N107 C100 1.286 . S
N107 C103 1.413 . S
H108 C113 0.930 . S
H109 C116 0.930 . S
H110 C118 0.930 . S
H111 C112 1.016 . S
C112 H111 1.016 . S
C112 N119 1.286 . S
C113 H108 0.930 . S
C113 C114 1.397 . S
C113 C115 1.361 . S
C114 C113 1.397 . S
C114 C118 1.390 . S
C115 C113 1.361 . S
C115 C116 1.393 . S
C115 N119 1.413 . S
C116 H109 0.930 . S
C116 C115 1.393 . S
C116 C117 1.399 . S
C117 C116 1.399 . S
C117 C118 1.381 . S
C118 H110 0.930 . S
C118 C114 1.390 . S
C118 C117 1.381 . S
N119 C112 1.286 . S
N119 C115 1.413 . S
H120 C125 0.930 . S
H121 C128 0.930 . S
H122 C130 0.930 . S
H123 C124 1.016 . S
C124 H123 1.016 . S
C124 N131 1.286 . S
C125 H120 0.930 . S
C125 C126 1.397 . S
C125 C127 1.361 . S
C126 C125 1.397 . S
C126 C130 1.390 . S
C127 C125 1.361 . S
C127 C128 1.393 . S
C127 N131 1.413 . S
C128 H121 0.930 . S
C128 C127 1.393 . S
C128 C129 1.399 . S
C129 C128 1.399 . S
C129 C130 1.381 . S
C130 H122 0.930 . S
C130 C126 1.390 . S
C130 C129 1.381 . S
N131 C124 1.286 . S
N131 C127 1.413 . S
H132 C137 0.930 . S
H133 C140 0.930 . S
H134 C142 0.930 . S
H135 C136 1.016 . S
C136 H135 1.016 . S
C136 N143 1.286 . S
C137 H132 0.930 . S
C137 C138 1.397 . S
C137 C139 1.361 . S
C138 C137 1.397 . S
C138 C142 1.390 . S
C139 C137 1.361 . S
C139 C140 1.393 . S
C139 N143 1.413 . S
C140 H133 0.930 . S
C140 C139 1.393 . S
C140 C141 1.399 . S
C141 C140 1.399 . S
C141 C142 1.381 . S
C142 H134 0.930 . S
C142 C138 1.390 . S
C142 C141 1.381 . S
N143 C136 1.286 . S
N143 C139 1.413 . S
H144 C149 0.930 . S
H145 C152 0.930 . S
H146 C154 0.930 . S
H147 C148 1.016 . S
C148 H147 1.016 . S
C148 N155 1.286 . S
C149 H144 0.930 . S
C149 C150 1.397 . S
C149 C151 1.361 . S
C150 C149 1.397 . S
C150 C154 1.390 . S
C151 C149 1.361 . S
C151 C152 1.393 . S
C151 N155 1.413 . S
C152 H145 0.930 . S
C152 C151 1.393 . S
C152 C153 1.399 . S
C153 C152 1.399 . S
C153 C154 1.381 . S
C154 H146 0.930 . S
C154 C150 1.390 . S
C154 C153 1.381 . S
N155 C148 1.286 . S
N155 C151 1.413 . S
H156 C161 0.930 . S
H157 C164 0.930 . S
H158 C166 0.930 . S
H159 C160 1.016 . S
C160 H159 1.016 . S
C160 N167 1.286 . S
C161 H156 0.930 . S
C161 C162 1.397 . S
C161 C163 1.361 . S
C162 C161 1.397 . S
C162 C166 1.390 . S
C163 C161 1.361 . S
C163 C164 1.393 . S
C163 N167 1.413 . S
C164 H157 0.930 . S
C164 C163 1.393 . S
C164 C165 1.399 . S
C165 C164 1.399 . S
C165 C166 1.381 . S
C166 H158 0.930 . S
C166 C162 1.390 . S
C166 C165 1.381 . S
N167 C160 1.286 . S
N167 C163 1.413 . S
H168 C173 0.930 . S
H169 C176 0.930 . S
H170 C178 0.930 . S
H171 C172 1.016 . S
C172 H171 1.016 . S
C172 N179 1.286 . S
C173 H168 0.930 . S
C173 C174 1.397 . S
C173 C175 1.361 . S
C174 C173 1.397 . S
C174 C178 1.390 . S
C175 C173 1.361 . S
C175 C176 1.393 . S
C175 N179 1.413 . S
C176 H169 0.930 . S
C176 C175 1.393 . S
C176 C177 1.399 . S
C177 C176 1.399 . S
C177 C178 1.381 . S
C178 H170 0.930 . S
C178 C174 1.390 . S
C178 C177 1.381 . S
N179 C172 1.286 . S
N179 C175 1.413 . S
H180 C185 0.930 . S
H181 C188 0.930 . S
H182 C190 0.930 . S
H183 C184 1.016 . S
C184 H183 1.016 . S
C184 N191 1.286 . S
C185 H180 0.930 . S
C185 C186 1.397 . S
C185 C187 1.361 . S
C186 C185 1.397 . S
C186 C190 1.390 . S
C187 C185 1.361 . S
C187 C188 1.393 . S
C187 N191 1.413 . S
C188 H181 0.930 . S
C188 C187 1.393 . S
C188 C189 1.399 . S
C189 C188 1.399 . S
C189 C190 1.381 . S
C190 H182 0.930 . S
C190 C186 1.390 . S
C190 C189 1.381 . S
N191 C184 1.286 . S
N191 C187 1.413 . S
H192 C197 0.930 . S
H193 C200 0.930 . S
H194 C202 0.930 . S
H195 C196 1.016 . S
C196 H195 1.016 . S
C196 N203 1.286 . S
C197 H192 0.930 . S
C197 C198 1.397 . S
C197 C199 1.361 . S
C198 C197 1.397 . S
C198 C202 1.390 . S
C199 C197 1.361 . S
C199 C200 1.393 . S
C199 N203 1.413 . S
C200 H193 0.930 . S
C200 C199 1.393 . S
C200 C201 1.399 . S
C201 C200 1.399 . S
C201 C202 1.381 . S
C202 H194 0.930 . S
C202 C198 1.390 . S
C202 C201 1.381 . S
N203 C196 1.286 . S
N203 C199 1.413 . S
H204 C209 0.930 . S
H205 C212 0.930 . S
H206 C214 0.930 . S
H207 C208 1.016 . S
C208 H207 1.016 . S
C208 N215 1.286 . S
C209 H204 0.930 . S
C209 C210 1.397 . S
C209 C211 1.361 . S
C210 C209 1.397 . S
C210 C214 1.390 . S
C211 C209 1.361 . S
C211 C212 1.393 . S
C211 N215 1.413 . S
C212 H205 0.930 . S
C212 C211 1.393 . S
C212 C213 1.399 . S
C213 C212 1.399 . S
C213 C214 1.381 . S
C214 H206 0.930 . S
C214 C210 1.390 . S
C214 C213 1.381 . S
N215 C208 1.286 . S
N215 C211 1.413 . S
Tb216 C226 2.825 1_565 S
Tb216 O227 2.347 1_565 S
Tb216 O230 2.366 1_565 S
Tb216 O235 2.418 . S
Tb216 O236 2.384 . S
Tb216 O239 2.479 . S
Tb216 O240 2.471 1_565 S
Eu217 O228 2.418 . S
Eu217 O229 2.384 . S
Eu217 O232 2.479 . S
Eu217 O233 2.471 1_545 S
Eu217 O234 2.347 1_545 S
Eu217 O237 2.366 1_545 S
Eu217 C247 2.825 . S
C218 O234 1.259 . S
C218 O235 1.265 1_554 S
C219 O236 1.255 1_554 S
C219 O237 1.265 . S
C220 C222 1.380 1_545 S
C220 C223 1.374 . S
C220 C226 1.507 . S
C221 C222 1.384 1_545 S
C221 C225 1.387 . S
C221 H248 0.930 1_545 S
C222 C220 1.380 1_565 S
C222 C221 1.384 1_565 S
C222 H249 0.931 . S
C223 C220 1.374 . S
C223 C224 1.390 . S
C223 H250 0.930 . S
C224 C223 1.390 . S
C224 C225 1.391 . S
C224 H251 0.930 . S
C225 C221 1.387 . S
C225 C224 1.391 . S
C226 Tb216 2.825 1_545 S
C226 C220 1.507 . S
C226 O239 1.238 1_545 S
C226 O240 1.247 . S
O227 Tb216 2.347 1_545 S
O227 C231 1.259 1_556 S
O228 Eu217 2.418 . S
O228 C231 1.265 . S
O229 Eu217 2.384 . S
O229 C238 1.255 1_554 S
O230 Tb216 2.366 1_545 S
O230 C238 1.265 . S
C231 O227 1.259 1_554 S
C231 O228 1.265 . S
O232 Eu217 2.479 . S
O232 C247 1.238 . S
O233 Eu217 2.471 1_565 S
O233 C247 1.247 1_565 S
O234 Eu217 2.347 1_565 S
O234 C218 1.259 . S
O235 Tb216 2.418 . S
O235 C218 1.265 1_556 S
O236 Tb216 2.384 . S
O236 C219 1.255 1_556 S
O237 Eu217 2.366 1_565 S
O237 C219 1.265 . S
C238 O229 1.255 1_556 S
C238 O230 1.265 . S
O239 Tb216 2.479 . S
O239 C226 1.238 1_565 S
O240 Tb216 2.471 1_545 S
O240 C226 1.247 . S
C241 C244 1.380 1_565 S
C241 C245 1.374 . S
C241 C247 1.507 1_565 S
C242 C243 1.387 1_565 S
C242 C246 1.391 . S
C243 C242 1.387 1_545 S
C243 C244 1.384 . S
C243 H252 0.930 . S
C244 C241 1.380 1_545 S
C244 C243 1.384 . S
C244 H253 0.931 . S
C245 C241 1.374 . S
C245 C246 1.390 . S
C245 H254 0.930 . S
C246 C242 1.391 . S
C246 C245 1.390 . S
C246 H255 0.930 . S
C247 Eu217 2.825 . S
C247 O232 1.238 . S
C247 O233 1.247 1_545 S
C247 C241 1.507 1_545 S
H248 C221 0.930 1_565 S
H249 C222 0.931 . S
H250 C223 0.930 . S
H251 C224 0.930 . S
H252 C243 0.930 . S
H253 C244 0.931 . S
H254 C245 0.930 . S
H255 C246 0.930 . S
Tb256 C266 2.823 1_455 S
Tb256 O267 2.347 1_455 S
Tb256 O270 2.366 1_455 S
Tb256 O275 2.418 . S
Tb256 O276 2.384 1_556 S
Tb256 O279 2.479 . S
Tb256 O280 2.471 1_455 S
Eu257 O268 2.418 . S
Eu257 O269 2.384 . S
Eu257 O272 2.479 . S
Eu257 O273 2.471 1_655 S
Eu257 O274 2.347 1_655 S
Eu257 O277 2.366 1_655 S
Eu257 C287 2.825 1_655 S
C258 O274 1.259 . S
C258 O275 1.265 1_554 S
C259 O276 1.255 . S
C259 O277 1.265 . S
C260 C262 1.380 1_655 S
C260 C263 1.374 . S
C260 C266 1.509 . S
C261 C262 1.384 1_655 S
C261 C265 1.387 . S
C261 H288 0.930 1_655 S
C262 C260 1.380 1_455 S
C262 C261 1.384 1_455 S
C262 H289 0.931 . S
C263 C260 1.374 . S
C263 C264 1.390 . S
C263 H290 0.930 . S
C264 C263 1.390 . S
C264 C265 1.391 . S
C264 H291 0.930 . S
C265 C261 1.387 . S
C265 C264 1.391 . S
C266 Tb256 2.823 1_655 S
C266 C260 1.509 . S
C266 O279 1.234 1_655 S
C266 O280 1.248 . S
O267 Tb256 2.347 1_655 S
O267 C271 1.259 1_556 S
O268 Eu257 2.418 . S
O268 C271 1.265 . S
O269 Eu257 2.384 . S
O269 C278 1.255 1_554 S
O270 Tb256 2.366 1_655 S
O270 C278 1.265 . S
C271 O267 1.259 1_554 S
C271 O268 1.265 . S
O272 Eu257 2.479 . S
O272 C287 1.238 1_655 S
O273 Eu257 2.471 1_455 S
O273 C287 1.247 . S
O274 Eu257 2.347 1_455 S
O274 C258 1.259 . S
O275 Tb256 2.418 . S
O275 C258 1.265 1_556 S
O276 Tb256 2.384 1_554 S
O276 C259 1.255 . S
O277 Eu257 2.366 1_455 S
O277 C259 1.265 . S
C278 O269 1.255 1_556 S
C278 O270 1.265 . S
O279 Tb256 2.479 . S
O279 C266 1.234 1_455 S
O280 Tb256 2.471 1_655 S
O280 C266 1.248 . S
C281 C284 1.375 1_455 S
C281 C285 1.374 . S
C281 C287 1.507 . S
C282 C283 1.387 . S
C282 C286 1.391 . S
C283 C282 1.387 . S
C283 C284 1.379 1_455 S
C283 H292 0.930 1_455 S
C284 C281 1.375 1_655 S
C284 C283 1.379 1_655 S
C284 H293 0.941 . S
C285 C281 1.374 . S
C285 C286 1.390 . S
C285 H294 0.930 . S
C286 C282 1.391 . S
C286 C285 1.390 . S
C286 H295 0.930 . S
C287 Eu257 2.825 1_455 S
C287 O272 1.238 1_455 S
C287 O273 1.247 . S
C287 C281 1.507 . S
H288 C261 0.930 1_455 S
H289 C262 0.931 . S
H290 C263 0.930 . S
H291 C264 0.930 . S
H292 C283 0.930 1_655 S
H293 C284 0.941 . S
H294 C285 0.930 . S
H295 C286 0.930 . S
Tb296 C306 2.825 . S
Tb296 O307 2.347 . S
Tb296 O310 2.366 . S
Tb296 O315 2.418 . S
Tb296 O316 2.384 . S
Tb296 O319 2.479 . S
Tb296 O320 2.471 . S
Eu297 O308 2.418 . S
Eu297 O309 2.384 1_556 S
Eu297 O312 2.479 . S
Eu297 O313 2.471 . S
Eu297 O314 2.340 1_556 S
Eu297 O317 2.366 . S
Eu297 C327 2.825 . S
C298 O314 1.266 . S
C298 O315 1.265 . S
C299 O316 1.255 1_556 S
C299 O317 1.265 . S
C300 C302 1.380 . S
C300 C303 1.374 . S
C300 C306 1.507 . S
C301 C302 1.384 . S
C301 C305 1.387 . S
C301 H328 0.930 . S
C302 C300 1.380 . S
C302 C301 1.384 . S
C302 H329 0.931 . S
C303 C300 1.374 . S
C303 C304 1.390 . S
C303 H330 0.930 . S
C304 C303 1.390 . S
C304 C305 1.391 . S
C304 H331 0.930 . S
C305 C301 1.387 . S
C305 C304 1.391 . S
C306 Tb296 2.825 . S
C306 C300 1.507 . S
C306 O319 1.238 . S
C306 O320 1.247 . S
O307 Tb296 2.347 . S
O307 C311 1.259 . S
O308 Eu297 2.418 . S
O308 C311 1.265 1_556 S
O309 Eu297 2.384 1_554 S
O309 C318 1.255 . S
O310 Tb296 2.366 . S
O310 C318 1.265 . S
C311 O307 1.259 . S
C311 O308 1.265 1_554 S
O312 Eu297 2.479 . S
O312 C327 1.238 . S
O313 Eu297 2.471 . S
O313 C327 1.247 . S
O314 Eu297 2.340 1_554 S
O314 C298 1.266 . S
O315 Tb296 2.418 . S
O315 C298 1.265 . S
O316 Tb296 2.384 . S
O316 C299 1.255 1_554 S
O317 Eu297 2.366 . S
O317 C299 1.265 . S
C318 O309 1.255 . S
C318 O310 1.265 . S
O319 Tb296 2.479 . S
O319 C306 1.238 . S
O320 Tb296 2.471 . S
O320 C306 1.247 . S
C321 C324 1.380 . S
C321 C325 1.374 . S
C321 C327 1.507 . S
C322 C323 1.387 . S
C322 C326 1.391 . S
C323 C322 1.387 . S
C323 C324 1.384 . S
C323 H332 0.930 . S
C324 C321 1.380 . S
C324 C323 1.384 . S
C324 H333 0.931 . S
C325 C321 1.374 . S
C325 C326 1.390 . S
C325 H334 0.930 . S
C326 C322 1.391 . S
C326 C325 1.390 . S
C326 H335 0.930 . S
C327 Eu297 2.825 . S
C327 O312 1.238 . S
C327 O313 1.247 . S
C327 C321 1.507 . S
H328 C301 0.930 . S
H329 C302 0.931 . S
H330 C303 0.930 . S
H331 C304 0.930 . S
H332 C323 0.930 . S
H333 C324 0.931 . S
H334 C325 0.930 . S
H335 C326 0.930 . S
Tb336 C346 2.825 . S
Tb336 O347 2.347 . S
Tb336 O350 2.366 . S
Tb336 O355 2.418 . S
Tb336 O356 2.384 . S
Tb336 O359 2.479 . S
Tb336 O360 2.471 . S
Eu337 O348 2.418 . S
Eu337 O349 2.384 . S
Eu337 O352 2.479 . S
Eu337 O353 2.471 . S
Eu337 O354 2.347 . S
Eu337 O357 2.366 . S
Eu337 C367 2.825 . S
C338 O354 1.259 . S
C338 O355 1.265 . S
C339 O356 1.255 . S
C339 O357 1.265 . S
C340 C342 1.380 . S
C340 C343 1.374 . S
C340 C346 1.507 . S
C341 C342 1.384 . S
C341 C345 1.387 . S
C341 H368 0.930 . S
C342 C340 1.380 . S
C342 C341 1.384 . S
C342 H369 0.931 . S
C343 C340 1.374 . S
C343 C344 1.390 . S
C343 H370 0.930 . S
C344 C343 1.390 . S
C344 C345 1.391 . S
C344 H371 0.930 . S
C345 C341 1.387 . S
C345 C344 1.391 . S
C346 Tb336 2.825 . S
C346 C340 1.507 . S
C346 O359 1.238 . S
C346 O360 1.247 . S
O347 Tb336 2.347 . S
O347 C351 1.259 . S
O348 Eu337 2.418 . S
O348 C351 1.265 . S
O349 Eu337 2.384 . S
O349 C358 1.255 . S
O350 Tb336 2.366 . S
O350 C358 1.265 . S
C351 O347 1.259 . S
C351 O348 1.265 . S
O352 Eu337 2.479 . S
O352 C367 1.238 . S
O353 Eu337 2.471 . S
O353 C367 1.247 . S
O354 Eu337 2.347 . S
O354 C338 1.259 . S
O355 Tb336 2.418 . S
O355 C338 1.265 . S
O356 Tb336 2.384 . S
O356 C339 1.255 . S
O357 Eu337 2.366 . S
O357 C339 1.265 . S
C358 O349 1.255 . S
C358 O350 1.265 . S
O359 Tb336 2.479 . S
O359 C346 1.238 . S
O360 Tb336 2.471 . S
O360 C346 1.247 . S
C361 C364 1.380 . S
C361 C365 1.374 . S
C361 C367 1.507 . S
C362 C363 1.387 . S
C362 C366 1.391 . S
C363 C362 1.387 . S
C363 C364 1.384 . S
C363 H372 0.930 . S
C364 C361 1.380 . S
C364 C363 1.384 . S
C364 H373 0.931 . S
C365 C361 1.374 . S
C365 C366 1.390 . S
C365 H374 0.930 . S
C366 C362 1.391 . S
C366 C365 1.390 . S
C366 H375 0.930 . S
C367 Eu337 2.825 . S
C367 O352 1.238 . S
C367 O353 1.247 . S
C367 C361 1.507 . S
H368 C341 0.930 . S
H369 C342 0.931 . S
H370 C343 0.930 . S
H371 C344 0.930 . S
H372 C363 0.930 . S
H373 C364 0.931 . S
H374 C365 0.930 . S
H375 C366 0.930 . S
Tb376 C386 2.825 . S
Tb376 O387 2.347 . S
Tb376 O390 2.366 . S
Tb376 O395 2.418 . S
Tb376 O396 2.384 . S
Tb376 O399 2.479 . S
Tb376 O400 2.471 . S
Eu377 O388 2.418 . S
Eu377 O389 2.384 . S
Eu377 O392 2.479 . S
Eu377 O393 2.471 . S
Eu377 O394 2.347 . S
Eu377 O397 2.366 . S
Eu377 C407 2.825 . S
C378 O394 1.259 . S
C378 O395 1.265 . S
C379 O396 1.255 . S
C379 O397 1.265 . S
C380 C382 1.380 . S
C380 C383 1.374 . S
C380 C386 1.507 . S
C381 C382 1.384 . S
C381 C385 1.387 . S
C381 H408 0.930 . S
C382 C380 1.380 . S
C382 C381 1.384 . S
C382 H409 0.931 . S
C383 C380 1.374 . S
C383 C384 1.390 . S
C383 H410 0.930 . S
C384 C383 1.390 . S
C384 C385 1.391 . S
C384 H411 0.930 . S
C385 C381 1.387 . S
C385 C384 1.391 . S
C386 Tb376 2.825 . S
C386 C380 1.507 . S
C386 O399 1.238 . S
C386 O400 1.247 . S
O387 Tb376 2.347 . S
O387 C391 1.259 . S
O388 Eu377 2.418 . S
O388 C391 1.265 . S
O389 Eu377 2.384 . S
O389 C398 1.255 . S
O390 Tb376 2.366 . S
O390 C398 1.265 . S
C391 O387 1.259 . S
C391 O388 1.265 . S
O392 Eu377 2.479 . S
O392 C407 1.238 . S
O393 Eu377 2.471 . S
O393 C407 1.247 . S
O394 Eu377 2.347 . S
O394 C378 1.259 . S
O395 Tb376 2.418 . S
O395 C378 1.265 . S
O396 Tb376 2.384 . S
O396 C379 1.255 . S
O397 Eu377 2.366 . S
O397 C379 1.265 . S
C398 O389 1.255 . S
C398 O390 1.265 . S
O399 Tb376 2.479 . S
O399 C386 1.238 . S
O400 Tb376 2.471 . S
O400 C386 1.247 . S
C401 C404 1.380 . S
C401 C405 1.374 . S
C401 C407 1.507 . S
C402 C403 1.387 . S
C402 C406 1.391 . S
C403 C402 1.387 . S
C403 C404 1.384 . S
C403 H412 0.930 . S
C404 C401 1.380 . S
C404 C403 1.384 . S
C404 H413 0.931 . S
C405 C401 1.374 . S
C405 C406 1.390 . S
C405 H414 0.930 . S
C406 C402 1.391 . S
C406 C405 1.390 . S
C406 H415 0.930 . S
C407 Eu377 2.825 . S
C407 O392 1.238 . S
C407 O393 1.247 . S
C407 C401 1.507 . S
H408 C381 0.930 . S
H409 C382 0.931 . S
H410 C383 0.930 . S
H411 C384 0.930 . S
H412 C403 0.930 . S
H413 C404 0.931 . S
H414 C405 0.930 . S
H415 C406 0.930 . S
Tb416 C426 2.825 . S
Tb416 O427 2.347 . S
Tb416 O430 2.366 . S
Tb416 O435 2.418 . S
Tb416 O436 2.384 . S
Tb416 O439 2.479 . S
Tb416 O440 2.471 . S
Eu417 O428 2.418 . S
Eu417 O429 2.384 . S
Eu417 O432 2.479 . S
Eu417 O433 2.471 . S
Eu417 O434 2.347 . S
Eu417 O437 2.366 . S
Eu417 C447 2.825 . S
C418 O434 1.259 . S
C418 O435 1.265 . S
C419 O436 1.255 . S
C419 O437 1.265 . S
C420 C422 1.380 . S
C420 C423 1.374 . S
C420 C426 1.507 . S
C421 C422 1.384 . S
C421 C425 1.387 . S
C421 H448 0.930 . S
C422 C420 1.380 . S
C422 C421 1.384 . S
C422 H449 0.931 . S
C423 C420 1.374 . S
C423 C424 1.390 . S
C423 H450 0.930 . S
C424 C423 1.390 . S
C424 C425 1.391 . S
C424 H451 0.930 . S
C425 C421 1.387 . S
C425 C424 1.391 . S
C426 Tb416 2.825 . S
C426 C420 1.507 . S
C426 O439 1.238 . S
C426 O440 1.247 . S
O427 Tb416 2.347 . S
O427 C431 1.259 . S
O428 Eu417 2.418 . S
O428 C431 1.265 . S
O429 Eu417 2.384 . S
O429 C438 1.255 . S
O430 Tb416 2.366 . S
O430 C438 1.265 . S
C431 O427 1.259 . S
C431 O428 1.265 . S
O432 Eu417 2.479 . S
O432 C447 1.238 . S
O433 Eu417 2.471 . S
O433 C447 1.247 . S
O434 Eu417 2.347 . S
O434 C418 1.259 . S
O435 Tb416 2.418 . S
O435 C418 1.265 . S
O436 Tb416 2.384 . S
O436 C419 1.255 . S
O437 Eu417 2.366 . S
O437 C419 1.265 . S
C438 O429 1.255 . S
C438 O430 1.265 . S
O439 Tb416 2.479 . S
O439 C426 1.238 . S
O440 Tb416 2.471 . S
O440 C426 1.247 . S
C441 C444 1.380 . S
C441 C445 1.374 . S
C441 C447 1.507 . S
C442 C443 1.387 . S
C442 C446 1.391 . S
C443 C442 1.387 . S
C443 C444 1.384 . S
C443 H452 0.930 . S
C444 C441 1.380 . S
C444 C443 1.384 . S
C444 H453 0.931 . S
C445 C441 1.374 . S
C445 C446 1.390 . S
C445 H454 0.930 . S
C446 C442 1.391 . S
C446 C445 1.390 . S
C446 H455 0.930 . S
C447 Eu417 2.825 . S
C447 O432 1.238 . S
C447 O433 1.247 . S
C447 C441 1.507 . S
H448 C421 0.930 . S
H449 C422 0.931 . S
H450 C423 0.930 . S
H451 C424 0.930 . S
H452 C443 0.930 . S
H453 C444 0.931 . S
H454 C445 0.930 . S
H455 C446 0.930 . S
Tb456 C466 2.825 . S
Tb456 O467 2.347 . S
Tb456 O470 2.366 . S
Tb456 O475 2.418 . S
Tb456 O476 2.384 . S
Tb456 O479 2.479 . S
Tb456 O480 2.471 . S
Eu457 O468 2.418 . S
Eu457 O469 2.384 . S
Eu457 O472 2.479 . S
Eu457 O473 2.471 . S
Eu457 O474 2.347 . S
Eu457 O477 2.366 . S
Eu457 C487 2.825 . S
C458 O474 1.259 . S
C458 O475 1.265 . S
C459 O476 1.255 . S
C459 O477 1.265 . S
C460 C462 1.380 . S
C460 C463 1.374 . S
C460 C466 1.507 . S
C461 C462 1.384 . S
C461 C465 1.387 . S
C461 H488 0.930 . S
C462 C460 1.380 . S
C462 C461 1.384 . S
C462 H489 0.931 . S
C463 C460 1.374 . S
C463 C464 1.390 . S
C463 H490 0.930 . S
C464 C463 1.390 . S
C464 C465 1.391 . S
C464 H491 0.930 . S
C465 C461 1.387 . S
C465 C464 1.391 . S
C466 Tb456 2.825 . S
C466 C460 1.507 . S
C466 O479 1.238 . S
C466 O480 1.247 . S
O467 Tb456 2.347 . S
O467 C471 1.259 . S
O468 Eu457 2.418 . S
O468 C471 1.265 . S
O469 Eu457 2.384 . S
O469 C478 1.255 . S
O470 Tb456 2.366 . S
O470 C478 1.265 . S
C471 O467 1.259 . S
C471 O468 1.265 . S
O472 Eu457 2.479 . S
O472 C487 1.238 . S
O473 Eu457 2.471 . S
O473 C487 1.247 . S
O474 Eu457 2.347 . S
O474 C458 1.259 . S
O475 Tb456 2.418 . S
O475 C458 1.265 . S
O476 Tb456 2.384 . S
O476 C459 1.255 . S
O477 Eu457 2.366 . S
O477 C459 1.265 . S
C478 O469 1.255 . S
C478 O470 1.265 . S
O479 Tb456 2.479 . S
O479 C466 1.238 . S
O480 Tb456 2.471 . S
O480 C466 1.247 . S
C481 C484 1.380 . S
C481 C485 1.374 . S
C481 C487 1.507 . S
C482 C483 1.387 . S
C482 C486 1.391 . S
C483 C482 1.387 . S
C483 C484 1.384 . S
C483 H492 0.930 . S
C484 C481 1.380 . S
C484 C483 1.384 . S
C484 H493 0.931 . S
C485 C481 1.374 . S
C485 C486 1.390 . S
C485 H494 0.930 . S
C486 C482 1.391 . S
C486 C485 1.390 . S
C486 H495 0.930 . S
C487 Eu457 2.825 . S
C487 O472 1.238 . S
C487 O473 1.247 . S
C487 C481 1.507 . S
H488 C461 0.930 . S
H489 C462 0.931 . S
H490 C463 0.930 . S
H491 C464 0.930 . S
H492 C483 0.930 . S
H493 C484 0.931 . S
H494 C485 0.930 . S
H495 C486 0.930 . S
Tb496 C506 2.825 . S
Tb496 O507 2.347 . S
Tb496 O510 2.366 . S
Tb496 O515 2.418 . S
Tb496 O516 2.384 . S
Tb496 O519 2.479 . S
Tb496 O520 2.471 . S
Eu497 O508 2.418 . S
Eu497 O509 2.384 . S
Eu497 O512 2.479 . S
Eu497 O513 2.471 . S
Eu497 O514 2.347 . S
Eu497 O517 2.366 . S
Eu497 C527 2.825 . S
C498 O514 1.259 . S
C498 O515 1.265 . S
C499 O516 1.255 . S
C499 O517 1.265 . S
C500 C502 1.380 . S
C500 C503 1.374 . S
C500 C506 1.507 . S
C501 C502 1.384 . S
C501 C505 1.387 . S
C501 H528 0.930 . S
C502 C500 1.380 . S
C502 C501 1.384 . S
C502 H529 0.931 . S
C503 C500 1.374 . S
C503 C504 1.390 . S
C503 H530 0.930 . S
C504 C503 1.390 . S
C504 C505 1.391 . S
C504 H531 0.930 . S
C505 C501 1.387 . S
C505 C504 1.391 . S
C506 Tb496 2.825 . S
C506 C500 1.507 . S
C506 O519 1.238 . S
C506 O520 1.247 . S
O507 Tb496 2.347 . S
O507 C511 1.259 . S
O508 Eu497 2.418 . S
O508 C511 1.265 . S
O509 Eu497 2.384 . S
O509 C518 1.255 . S
O510 Tb496 2.366 . S
O510 C518 1.265 . S
C511 O507 1.259 . S
C511 O508 1.265 . S
O512 Eu497 2.479 . S
O512 C527 1.238 . S
O513 Eu497 2.471 . S
O513 C527 1.247 . S
O514 Eu497 2.347 . S
O514 C498 1.259 . S
O515 Tb496 2.418 . S
O515 C498 1.265 . S
O516 Tb496 2.384 . S
O516 C499 1.255 . S
O517 Eu497 2.366 . S
O517 C499 1.265 . S
C518 O509 1.255 . S
C518 O510 1.265 . S
O519 Tb496 2.479 . S
O519 C506 1.238 . S
O520 Tb496 2.471 . S
O520 C506 1.247 . S
C521 C524 1.380 . S
C521 C525 1.374 . S
C521 C527 1.507 . S
C522 C523 1.387 . S
C522 C526 1.391 . S
C523 C522 1.387 . S
C523 C524 1.384 . S
C523 H532 0.930 . S
C524 C521 1.380 . S
C524 C523 1.384 . S
C524 H533 0.931 . S
C525 C521 1.374 . S
C525 C526 1.390 . S
C525 H534 0.930 . S
C526 C522 1.391 . S
C526 C525 1.390 . S
C526 H535 0.930 . S
C527 Eu497 2.825 . S
C527 O512 1.238 . S
C527 O513 1.247 . S
C527 C521 1.507 . S
H528 C501 0.930 . S
H529 C502 0.931 . S
H530 C503 0.930 . S
H531 C504 0.930 . S
H532 C523 0.930 . S
H533 C524 0.931 . S
H534 C525 0.930 . S
H535 C526 0.930 . S
Tb536 C546 2.825 . S
Tb536 O547 2.347 . S
Tb536 O550 2.366 . S
Tb536 O555 2.418 . S
Tb536 O556 2.384 . S
Tb536 O559 2.479 . S
Tb536 O560 2.471 . S
Eu537 O548 2.418 . S
Eu537 O549 2.384 . S
Eu537 O552 2.479 . S
Eu537 O553 2.471 . S
Eu537 O554 2.347 . S
Eu537 O557 2.366 . S
Eu537 C567 2.825 . S
C538 O554 1.259 . S
C538 O555 1.265 . S
C539 O556 1.255 . S
C539 O557 1.265 . S
C540 C542 1.380 . S
C540 C543 1.374 . S
C540 C546 1.507 . S
C541 C542 1.384 . S
C541 C545 1.387 . S
C541 H568 0.930 . S
C542 C540 1.380 . S
C542 C541 1.384 . S
C542 H569 0.931 . S
C543 C540 1.374 . S
C543 C544 1.390 . S
C543 H570 0.930 . S
C544 C543 1.390 . S
C544 C545 1.391 . S
C544 H571 0.930 . S
C545 C541 1.387 . S
C545 C544 1.391 . S
C546 Tb536 2.825 . S
C546 C540 1.507 . S
C546 O559 1.238 . S
C546 O560 1.247 . S
O547 Tb536 2.347 . S
O547 C551 1.259 . S
O548 Eu537 2.418 . S
O548 C551 1.265 . S
O549 Eu537 2.384 . S
O549 C558 1.255 . S
O550 Tb536 2.366 . S
O550 C558 1.265 . S
C551 O547 1.259 . S
C551 O548 1.265 . S
O552 Eu537 2.479 . S
O552 C567 1.238 . S
O553 Eu537 2.471 . S
O553 C567 1.247 . S
O554 Eu537 2.347 . S
O554 C538 1.259 . S
O555 Tb536 2.418 . S
O555 C538 1.265 . S
O556 Tb536 2.384 . S
O556 C539 1.255 . S
O557 Eu537 2.366 . S
O557 C539 1.265 . S
C558 O549 1.255 . S
C558 O550 1.265 . S
O559 Tb536 2.479 . S
O559 C546 1.238 . S
O560 Tb536 2.471 . S
O560 C546 1.247 . S
C561 C564 1.380 . S
C561 C565 1.374 . S
C561 C567 1.507 . S
C562 C563 1.387 . S
C562 C566 1.391 . S
C563 C562 1.387 . S
C563 C564 1.384 . S
C563 H572 0.930 . S
C564 C561 1.380 . S
C564 C563 1.384 . S
C564 H573 0.931 . S
C565 C561 1.374 . S
C565 C566 1.390 . S
C565 H574 0.930 . S
C566 C562 1.391 . S
C566 C565 1.390 . S
C566 H575 0.930 . S
C567 Eu537 2.825 . S
C567 O552 1.238 . S
C567 O553 1.247 . S
C567 C561 1.507 . S
H568 C541 0.930 . S
H569 C542 0.931 . S
H570 C543 0.930 . S
H571 C544 0.930 . S
H572 C563 0.930 . S
H573 C564 0.931 . S
H574 C565 0.930 . S
H575 C566 0.930 . S
H576 C582 0.930 . S
H577 C586 0.930 . S
H578 C591 0.929 . S
H579 C589 0.929 . S
H580 C584 0.929 . S
H581 C590 0.929 . S
C582 H576 0.930 . S
C582 C583 1.367 . S
C582 C590 1.378 . S
C583 C582 1.367 . S
C583 C591 1.433 . S
C584 H580 0.929 . S
C584 C586 1.378 . S
C584 C588 1.350 . S
C585 C588 1.463 . S
C585 C590 1.350 . S
C585 N593 1.427 . S
C586 H577 0.930 . S
C586 C584 1.378 . S
C586 C587 1.367 . S
C587 C586 1.367 . S
C587 C589 1.433 . S
C588 C584 1.350 . S
C588 C585 1.463 . S
C588 N592 1.427 . S
C589 H579 0.929 . S
C589 C587 1.433 . S
C589 N592 1.384 . S
C590 H581 0.929 . S
C590 C582 1.378 . S
C590 C585 1.350 . S
C591 H578 0.929 . S
C591 C583 1.433 . S
C591 N593 1.384 . S
N592 C588 1.427 . S
N592 C589 1.384 . S
N593 C585 1.427 . S
N593 C591 1.384 . S
H594 C600 0.930 . S
H595 C604 0.930 . S
H596 C609 0.929 . S
H597 C607 0.929 . S
H598 C602 0.929 . S
H599 C608 0.929 . S
C600 H594 0.930 . S
C600 C601 1.367 . S
C600 C608 1.378 . S
C601 C600 1.367 . S
C601 C609 1.433 . S
C602 H598 0.929 . S
C602 C604 1.378 . S
C602 C606 1.350 . S
C603 C606 1.463 . S
C603 C608 1.350 . S
C603 N611 1.427 . S
C604 H595 0.930 . S
C604 C602 1.378 . S
C604 C605 1.367 . S
C605 C604 1.367 . S
C605 C607 1.433 . S
C606 C602 1.350 . S
C606 C603 1.463 . S
C606 N610 1.427 . S
C607 H597 0.929 . S
C607 C605 1.433 . S
C607 N610 1.384 . S
C608 H599 0.929 . S
C608 C600 1.378 . S
C608 C603 1.350 . S
C609 H596 0.929 . S
C609 C601 1.433 . S
C609 N611 1.384 . S
N610 C606 1.427 . S
N610 C607 1.384 . S
N611 C603 1.427 . S
N611 C609 1.384 . S
H612 C618 0.930 . S
H613 C622 0.930 . S
H614 C627 0.929 . S
H615 C625 0.929 . S
H616 C620 0.929 . S
H617 C626 0.929 . S
C618 H612 0.930 . S
C618 C619 1.367 . S
C618 C626 1.378 . S
C619 C618 1.367 . S
C619 C627 1.433 . S
C620 H616 0.929 . S
C620 C622 1.378 . S
C620 C624 1.350 . S
C621 C624 1.463 . S
C621 C626 1.350 . S
C621 N629 1.427 . S
C622 H613 0.930 . S
C622 C620 1.378 . S
C622 C623 1.367 . S
C623 C622 1.367 . S
C623 C625 1.433 . S
C624 C620 1.350 . S
C624 C621 1.463 . S
C624 N628 1.427 . S
C625 H615 0.929 . S
C625 C623 1.433 . S
C625 N628 1.384 . S
C626 H617 0.929 . S
C626 C618 1.378 . S
C626 C621 1.350 . S
C627 H614 0.929 . S
C627 C619 1.433 . S
C627 N629 1.384 . S
N628 C624 1.427 . S
N628 C625 1.384 . S
N629 C621 1.427 . S
N629 C627 1.384 . S
H630 C636 0.930 . S
H631 C640 0.930 . S
H632 C645 0.929 . S
H633 C643 0.929 . S
H634 C638 0.929 . S
H635 C644 0.929 1_554 S
C636 H630 0.930 . S
C636 C637 1.367 . S
C636 C644 1.378 . S
C637 C636 1.367 . S
C637 C645 1.433 . S
C638 H634 0.929 . S
C638 C640 1.378 . S
C638 C642 1.350 . S
C639 C642 1.463 . S
C639 C644 1.350 . S
C639 N647 1.427 . S
C640 H631 0.930 . S
C640 C638 1.378 . S
C640 C641 1.367 . S
C641 C640 1.367 . S
C641 C643 1.433 1_556 S
C642 C638 1.350 . S
C642 C639 1.463 . S
C642 N646 1.427 1_556 S
C643 H633 0.929 . S
C643 C641 1.433 1_554 S
C643 N646 1.384 . S
C644 H635 0.929 1_556 S
C644 C636 1.378 . S
C644 C639 1.350 . S
C645 H632 0.929 . S
C645 C637 1.433 . S
C645 N647 1.384 . S
N646 C642 1.427 1_554 S
N646 C643 1.384 . S
N647 C639 1.427 . S
N647 C645 1.384 . S
H648 C654 0.930 . S
H649 C658 0.930 1_554 S
H650 C663 0.929 . S
H651 C661 0.929 . S
H652 C656 0.929 . S
H653 C662 0.929 . S
C654 H648 0.930 . S
C654 C655 1.367 . S
C654 C662 1.378 . S
C655 C654 1.367 . S
C655 C663 1.433 . S
C656 H652 0.929 . S
C656 C658 1.378 . S
C656 C660 1.350 . S
C657 C660 1.463 . S
C657 C662 1.350 . S
C657 N665 1.427 . S
C658 H649 0.930 1_556 S
C658 C656 1.378 . S
C658 C659 1.367 . S
C659 C658 1.367 . S
C659 C661 1.433 . S
C660 C656 1.350 . S
C660 C657 1.463 . S
C660 N664 1.427 . S
C661 H651 0.929 . S
C661 C659 1.433 . S
C661 N664 1.384 . S
C662 H653 0.929 . S
C662 C654 1.378 . S
C662 C657 1.350 . S
C663 H650 0.929 . S
C663 C655 1.433 . S
C663 N665 1.384 . S
N664 C660 1.427 . S
N664 C661 1.384 . S
N665 C657 1.427 . S
N665 C663 1.384 . S
H666 C672 0.930 1_554 S
H667 C676 0.930 . S
H668 C681 0.929 . S
H669 C679 0.929 . S
H670 C674 0.929 . S
H671 C680 0.971 . S
C672 H666 0.930 1_556 S
C672 C673 1.367 . S
C672 C680 1.367 1_556 S
C673 C672 1.367 . S
C673 C681 1.433 . S
C674 H670 0.929 . S
C674 C676 1.378 . S
C674 C678 1.350 . S
C675 C678 1.463 . S
C675 C680 1.319 1_556 S
C675 N683 1.427 . S
C676 H667 0.930 . S
C676 C674 1.378 . S
C676 C677 1.367 . S
C677 C676 1.367 . S
C677 C679 1.433 1_556 S
C678 C674 1.350 . S
C678 C675 1.463 . S
C678 N682 1.427 1_556 S
C679 H669 0.929 . S
C679 C677 1.433 1_554 S
C679 N682 1.384 . S
C680 H671 0.971 . S
C680 C672 1.367 1_554 S
C680 C675 1.319 1_554 S
C681 H668 0.929 . S
C681 C673 1.433 . S
C681 N683 1.384 . S
N682 C678 1.427 1_554 S
N682 C679 1.384 . S
N683 C675 1.427 . S
N683 C681 1.384 . S
H684 C690 0.930 . S
H685 C694 0.930 . S
H686 C699 0.929 . S
H687 C697 0.929 . S
H688 C692 0.929 . S
H689 C698 0.929 1_554 S
C690 H684 0.930 . S
C690 C691 1.367 . S
C690 C698 1.378 . S
C691 C690 1.367 . S
C691 C699 1.433 . S
C692 H688 0.929 . S
C692 C694 1.378 . S
C692 C696 1.350 . S
C693 C696 1.463 . S
C693 C698 1.350 . S
C693 N701 1.427 . S
C694 H685 0.930 . S
C694 C692 1.378 . S
C694 C695 1.367 . S
C695 C694 1.367 . S
C695 C697 1.433 1_556 S
C696 C692 1.350 . S
C696 C693 1.463 . S
C696 N700 1.475 . S
C697 H687 0.929 . S
C697 C695 1.433 1_554 S
C697 N700 1.369 1_554 S
C698 H689 0.929 1_556 S
C698 C690 1.378 . S
C698 C693 1.350 . S
C699 H686 0.929 . S
C699 C691 1.433 . S
C699 N701 1.384 . S
N700 C696 1.475 . S
N700 C697 1.369 1_556 S
N701 C693 1.427 . S
N701 C699 1.384 . S
H702 C708 0.930 . S
H703 C712 0.930 . S
H704 C717 0.929 . S
H705 C715 0.929 1_554 S
H706 C710 0.929 . S
H707 C716 0.929 . S
C708 H702 0.930 . S
C708 C709 1.367 . S
C708 C716 1.378 . S
C709 C708 1.367 . S
C709 C717 1.433 . S
C710 H706 0.929 . S
C710 C712 1.378 . S
C710 C714 1.350 . S
C711 C714 1.463 . S
C711 C716 1.350 . S
C711 N719 1.427 . S
C712 H703 0.930 . S
C712 C710 1.378 . S
C712 C713 1.367 . S
C713 C712 1.367 . S
C713 C715 1.433 . S
C714 C710 1.350 . S
C714 C711 1.463 . S
C714 N718 1.427 . S
C715 H705 0.929 1_556 S
C715 C713 1.433 . S
C715 N718 1.384 . S
C716 H707 0.929 . S
C716 C708 1.378 . S
C716 C711 1.350 . S
C717 H704 0.929 . S
C717 C709 1.433 . S
C717 N719 1.384 . S
N718 C714 1.427 . S
N718 C715 1.384 . S
N719 C711 1.427 . S
N719 C717 1.384 . S
H720 C726 0.930 . S
H721 C730 0.930 . S
H722 C735 0.929 . S
H723 C733 0.929 . S
H724 C728 0.929 . S
H725 C734 0.929 . S
C726 H720 0.930 . S
C726 C727 1.367 1_554 S
C726 C734 1.378 . S
C727 C726 1.367 1_556 S
C727 C735 1.433 . S
C728 H724 0.929 . S
C728 C730 1.378 . S
C728 C732 1.350 . S
C729 C732 1.463 . S
C729 C734 1.350 1_556 S
C729 N737 1.427 . S
C730 H721 0.930 . S
C730 C728 1.378 . S
C730 C731 1.341 1_556 S
C731 C730 1.341 1_554 S
C731 C733 1.459 . S
C732 C728 1.350 . S
C732 C729 1.463 . S
C732 N736 1.427 1_556 S
C733 H723 0.929 . S
C733 C731 1.459 . S
C733 N736 1.384 . S
C734 H725 0.929 . S
C734 C726 1.378 . S
C734 C729 1.350 1_554 S
C735 H722 0.929 . S
C735 C727 1.433 . S
C735 N737 1.384 . S
N736 C732 1.427 1_554 S
N736 C733 1.384 . S
N737 C729 1.427 . S
N737 C735 1.384 . S
H738 C744 0.930 . S
H739 C748 0.930 . S
H740 C753 0.929 . S
H741 C751 0.929 . S
H742 C746 0.929 . S
H743 C752 0.929 . S
C744 H738 0.930 . S
C744 C745 1.367 . S
C744 C752 1.378 . S
C745 C744 1.367 . S
C745 C753 1.433 . S
C746 H742 0.929 . S
C746 C748 1.378 . S
C746 C750 1.350 . S
C747 C750 1.463 . S
C747 C752 1.350 . S
C747 N755 1.427 . S
C748 H739 0.930 . S
C748 C746 1.378 . S
C748 C749 1.367 . S
C749 C748 1.367 . S
C749 C751 1.433 . S
C750 C746 1.350 . S
C750 C747 1.463 . S
C750 N754 1.427 . S
C751 H741 0.929 . S
C751 C749 1.433 . S
C751 N754 1.384 . S
C752 H743 0.929 . S
C752 C744 1.378 . S
C752 C747 1.350 . S
C753 H740 0.929 . S
C753 C745 1.433 . S
C753 N755 1.384 . S
N754 C750 1.427 . S
N754 C751 1.384 . S
N755 C747 1.427 . S
N755 C753 1.384 . S
H756 C762 0.930 . S
H757 C766 0.930 . S
H758 C771 0.929 . S
H759 C769 0.929 . S
H760 C764 0.929 . S
H761 C770 0.929 . S
C762 H756 0.930 . S
C762 C763 1.367 . S
C762 C770 1.378 . S
C763 C762 1.367 . S
C763 C771 1.433 . S
C764 H760 0.929 . S
C764 C766 1.378 . S
C764 C768 1.350 . S
C765 C768 1.463 . S
C765 C770 1.350 . S
C765 N773 1.427 . S
C766 H757 0.930 . S
C766 C764 1.378 . S
C766 C767 1.367 . S
C767 C766 1.367 . S
C767 C769 1.433 . S
C768 C764 1.350 . S
C768 C765 1.463 . S
C768 N772 1.427 . S
C769 H759 0.929 . S
C769 C767 1.433 . S
C769 N772 1.384 . S
C770 H761 0.929 . S
C770 C762 1.378 . S
C770 C765 1.350 . S
C771 H758 0.929 . S
C771 C763 1.433 . S
C771 N773 1.384 . S
N772 C768 1.427 . S
N772 C769 1.384 . S
N773 C765 1.427 . S
N773 C771 1.384 . S
H774 C780 0.930 . S
H775 C784 0.930 . S
H776 C789 0.929 . S
H777 C787 0.929 1_556 S
H778 C782 0.929 . S
H779 C788 0.929 . S
C780 H774 0.930 . S
C780 C781 1.367 . S
C780 C788 1.378 . S
C781 C780 1.367 . S
C781 C789 1.433 . S
C782 H778 0.929 . S
C782 C784 1.378 . S
C782 C786 1.350 . S
C783 C786 1.463 . S
C783 C788 1.350 . S
C783 N791 1.427 . S
C784 H775 0.930 . S
C784 C782 1.378 . S
C784 C785 1.367 . S
C785 C784 1.367 . S
C785 C787 1.433 . S
C786 C782 1.350 . S
C786 C783 1.463 . S
C786 N790 1.427 . S
C787 H777 0.929 1_554 S
C787 C785 1.433 . S
C787 N790 1.384 . S
C788 H779 0.929 . S
C788 C780 1.378 . S
C788 C783 1.350 . S
C789 H776 0.929 . S
C789 C781 1.433 . S
C789 N791 1.384 . S
N790 C786 1.427 . S
N790 C787 1.384 . S
N791 C783 1.427 . S
N791 C789 1.384 . S
H792 C798 0.930 . S
H793 C802 0.930 . S
H794 C807 0.929 . S
H795 C805 0.929 . S
H796 C800 0.929 1_655 S
H797 C806 0.929 . S
C798 H792 0.930 . S
C798 C799 1.367 . S
C798 C806 1.378 . S
C799 C798 1.367 . S
C799 C807 1.433 . S
C800 H796 0.929 1_455 S
C800 C802 1.378 . S
C800 C804 1.350 . S
C801 C804 1.463 1_655 S
C801 C806 1.350 . S
C801 N809 1.427 . S
C802 H793 0.930 . S
C802 C800 1.378 . S
C802 C803 1.367 . S
C803 C802 1.367 . S
C803 C805 1.433 . S
C804 C800 1.350 . S
C804 C801 1.463 1_455 S
C804 N808 1.427 . S
C805 H795 0.929 . S
C805 C803 1.433 . S
C805 N808 1.384 . S
C806 H797 0.929 . S
C806 C798 1.378 . S
C806 C801 1.350 . S
C807 H794 0.929 . S
C807 C799 1.433 . S
C807 N809 1.384 . S
N808 C804 1.427 . S
N808 C805 1.384 . S
N809 C801 1.427 . S
N809 C807 1.384 . S
H810 C816 0.930 . S
H811 C820 0.930 . S
H812 C825 0.929 . S
H813 C823 0.929 . S
H814 C818 0.929 . S
H815 C824 0.929 . S
C816 H810 0.930 . S
C816 C817 1.367 . S
C816 C824 1.378 . S
C817 C816 1.367 . S
C817 C825 1.433 . S
C818 H814 0.929 . S
C818 C820 1.378 . S
C818 C822 1.350 . S
C819 C822 1.463 . S
C819 C824 1.350 . S
C819 N827 1.427 . S
C820 H811 0.930 . S
C820 C818 1.378 . S
C820 C821 1.367 . S
C821 C820 1.367 . S
C821 C823 1.433 . S
C822 C818 1.350 . S
C822 C819 1.463 . S
C822 N826 1.427 . S
C823 H813 0.929 . S
C823 C821 1.433 . S
C823 N826 1.384 . S
C824 H815 0.929 . S
C824 C816 1.378 . S
C824 C819 1.350 . S
C825 H812 0.929 . S
C825 C817 1.433 . S
C825 N827 1.384 . S
N826 C822 1.427 . S
N826 C823 1.384 . S
N827 C819 1.427 . S
N827 C825 1.384 . S
H828 C834 0.930 . S
H829 C838 0.930 . S
H830 C843 0.929 . S
H831 C841 0.929 . S
H832 C836 0.929 . S
H833 C842 0.929 . S
C834 H828 0.930 . S
C834 C835 1.367 . S
C834 C842 1.378 . S
C835 C834 1.367 . S
C835 C843 1.433 . S
C836 H832 0.929 . S
C836 C838 1.378 . S
C836 C840 1.350 1_565 S
C837 C840 1.463 . S
C837 C842 1.350 . S
C837 N845 1.427 . S
C838 H829 0.930 . S
C838 C836 1.378 . S
C838 C839 1.367 . S
C839 C838 1.367 . S
C839 C841 1.433 . S
C840 C836 1.350 1_545 S
C840 C837 1.463 . S
C840 N844 1.427 . S
C841 H831 0.929 . S
C841 C839 1.433 . S
C841 N844 1.384 1_565 S
C842 H833 0.929 . S
C842 C834 1.378 . S
C842 C837 1.350 . S
C843 H830 0.929 . S
C843 C835 1.433 . S
C843 N845 1.384 . S
N844 C840 1.427 . S
N844 C841 1.384 1_545 S
N845 C837 1.427 . S
N845 C843 1.384 . S
H846 C852 0.930 . S
H847 C856 0.930 . S
H848 C861 0.929 . S
H849 C859 0.929 . S
H850 C854 0.929 . S
H851 C860 0.929 . S
C852 H846 0.930 . S
C852 C853 1.367 . S
C852 C860 1.378 . S
C853 C852 1.367 . S
C853 C861 1.433 . S
C854 H850 0.929 . S
C854 C856 1.378 . S
C854 C858 1.350 . S
C855 C858 1.463 . S
C855 C860 1.350 . S
C855 N863 1.427 . S
C856 H847 0.930 . S
C856 C854 1.378 . S
C856 C857 1.367 . S
C857 C856 1.367 . S
C857 C859 1.433 . S
C858 C854 1.350 . S
C858 C855 1.463 . S
C858 N862 1.427 . S
C859 H849 0.929 . S
C859 C857 1.433 . S
C859 N862 1.384 . S
C860 H851 0.929 . S
C860 C852 1.378 . S
C860 C855 1.350 . S
C861 H848 0.929 . S
C861 C853 1.433 . S
C861 N863 1.384 . S
N862 C858 1.427 . S
N862 C859 1.384 . S
N863 C855 1.427 . S
N863 C861 1.384 . S
H864 C870 0.930 . S
H865 C874 0.930 . S
H866 C879 0.929 . S
H867 C877 0.929 . S
H868 C872 0.929 . S
H869 C878 0.929 . S
C870 H864 0.930 . S
C870 C871 1.367 . S
C870 C878 1.378 . S
C871 C870 1.367 . S
C871 C879 1.433 . S
C872 H868 0.929 . S
C872 C874 1.378 . S
C872 C876 1.350 . S
C873 C876 1.463 . S
C873 C878 1.350 . S
C873 N881 1.427 . S
C874 H865 0.930 . S
C874 C872 1.378 . S
C874 C875 1.367 . S
C875 C874 1.367 . S
C875 C877 1.433 . S
C876 C872 1.350 . S
C876 C873 1.463 . S
C876 N880 1.427 . S
C877 H867 0.929 . S
C877 C875 1.433 . S
C877 N880 1.384 . S
C878 H869 0.929 . S
C878 C870 1.378 . S
C878 C873 1.350 . S
C879 H866 0.929 . S
C879 C871 1.433 . S
C879 N881 1.384 . S
N880 C876 1.427 . S
N880 C877 1.384 . S
N881 C873 1.427 . S
N881 C879 1.384 . S
H882 C888 0.930 . S
H883 C892 0.930 . S
H884 C897 0.929 . S
H885 C895 0.929 . S
H886 C890 0.929 . S
H887 C896 0.929 . S
C888 H882 0.930 . S
C888 C889 1.367 . S
C888 C896 1.378 . S
C889 C888 1.367 . S
C889 C897 1.433 . S
C890 H886 0.929 . S
C890 C892 1.378 . S
C890 C894 1.350 . S
C891 C894 1.463 . S
C891 C896 1.350 . S
C891 N899 1.427 . S
C892 H883 0.930 . S
C892 C890 1.378 . S
C892 C893 1.367 . S
C893 C892 1.367 . S
C893 C895 1.433 . S
C894 C890 1.350 . S
C894 C891 1.463 . S
C894 N898 1.427 . S
C895 H885 0.929 . S
C895 C893 1.433 . S
C895 N898 1.384 . S
C896 H887 0.929 . S
C896 C888 1.378 . S
C896 C891 1.350 . S
C897 H884 0.929 . S
C897 C889 1.433 . S
C897 N899 1.384 . S
N898 C894 1.427 . S
N898 C895 1.384 . S
N899 C891 1.427 . S
N899 C897 1.384 . S
H900 C906 0.930 . S
H901 C910 0.930 . S
H902 C915 0.929 . S
H903 C913 0.929 . S
H904 C908 0.929 . S
H905 C914 0.929 . S
C906 H900 0.930 . S
C906 C907 1.367 . S
C906 C914 1.378 . S
C907 C906 1.367 . S
C907 C915 1.433 . S
C908 H904 0.929 . S
C908 C910 1.378 . S
C908 C912 1.350 . S
C909 C912 1.463 . S
C909 C914 1.350 . S
C909 N917 1.427 . S
C910 H901 0.930 . S
C910 C908 1.378 . S
C910 C911 1.367 . S
C911 C910 1.367 . S
C911 C913 1.433 . S
C912 C908 1.350 . S
C912 C909 1.463 . S
C912 N916 1.427 . S
C913 H903 0.929 . S
C913 C911 1.433 . S
C913 N916 1.384 . S
C914 H905 0.929 . S
C914 C906 1.378 . S
C914 C909 1.350 . S
C915 H902 0.929 . S
C915 C907 1.433 . S
C915 N917 1.384 . S
N916 C912 1.427 . S
N916 C913 1.384 . S
N917 C909 1.427 . S
N917 C915 1.384 . S
H918 C924 0.930 . S
H919 C928 0.930 . S
H920 C933 0.929 . S
H921 C931 0.929 . S
H922 C926 0.929 . S
H923 C932 0.929 . S
C924 H918 0.930 . S
C924 C925 1.367 . S
C924 C932 1.378 . S
C925 C924 1.367 . S
C925 C933 1.433 . S
C926 H922 0.929 . S
C926 C928 1.378 . S
C926 C930 1.350 . S
C927 C930 1.463 . S
C927 C932 1.350 . S
C927 N935 1.427 . S
C928 H919 0.930 . S
C928 C926 1.378 . S
C928 C929 1.367 . S
C929 C928 1.367 . S
C929 C931 1.433 . S
C930 C926 1.350 . S
C930 C927 1.463 . S
C930 N934 1.427 . S
C931 H921 0.929 . S
C931 C929 1.433 . S
C931 N934 1.384 . S
C932 H923 0.929 . S
C932 C924 1.378 . S
C932 C927 1.350 . S
C933 H920 0.929 . S
C933 C925 1.433 . S
C933 N935 1.384 . S
N934 C930 1.427 . S
N934 C931 1.384 . S
N935 C927 1.427 . S
N935 C933 1.384 . S
H936 C942 0.930 . S
H937 C946 0.930 . S
H938 C951 0.929 . S
H939 C949 0.929 . S
H940 C944 0.929 . S
H941 C950 0.929 . S
C942 H936 0.930 . S
C942 C943 1.367 . S
C942 C950 1.378 . S
C943 C942 1.367 . S
C943 C951 1.433 . S
C944 H940 0.929 . S
C944 C946 1.378 . S
C944 C948 1.350 . S
C945 C948 1.463 . S
C945 C950 1.350 . S
C945 N953 1.427 . S
C946 H937 0.930 . S
C946 C944 1.378 . S
C946 C947 1.367 . S
C947 C946 1.367 . S
C947 C949 1.433 . S
C948 C944 1.350 . S
C948 C945 1.463 . S
C948 N952 1.427 . S
C949 H939 0.929 . S
C949 C947 1.433 . S
C949 N952 1.384 . S
C950 H941 0.929 . S
C950 C942 1.378 . S
C950 C945 1.350 . S
C951 H938 0.929 . S
C951 C943 1.433 . S
C951 N953 1.384 . S
N952 C948 1.427 . S
N952 C949 1.384 . S
N953 C945 1.427 . S
N953 C951 1.384 . S
H954 C960 0.930 . S
H955 C964 0.930 . S
H956 C969 0.929 . S
H957 C967 0.929 . S
H958 C962 0.929 . S
H959 C968 0.929 . S
C960 H954 0.930 . S
C960 C961 1.367 . S
C960 C968 1.378 1_545 S
C961 C960 1.367 . S
C961 C969 1.433 . S
C962 H958 0.929 . S
C962 C964 1.378 . S
C962 C966 1.350 . S
C963 C966 1.463 . S
C963 C968 1.350 . S
C963 N971 1.427 . S
C964 H955 0.930 . S
C964 C962 1.378 . S
C964 C965 1.367 . S
C965 C964 1.367 . S
C965 C967 1.433 . S
C966 C962 1.350 . S
C966 C963 1.463 . S
C966 N970 1.427 . S
C967 H957 0.929 . S
C967 C965 1.433 . S
C967 N970 1.384 . S
C968 H959 0.929 . S
C968 C960 1.378 1_565 S
C968 C963 1.350 . S
C969 H956 0.929 . S
C969 C961 1.433 . S
C969 N971 1.384 1_545 S
N970 C966 1.427 . S
N970 C967 1.384 . S
N971 C963 1.427 . S
N971 C969 1.384 1_565 S
H972 C978 0.930 . S
H973 C982 0.930 . S
H974 C987 0.929 . S
H975 C985 0.929 . S
H976 C980 0.929 . S
H977 C986 0.929 . S
C978 H972 0.930 . S
C978 C979 1.367 . S
C978 C986 1.378 1_655 S
C979 C978 1.367 . S
C979 C987 1.433 1_655 S
C980 H976 0.929 . S
C980 C982 1.378 . S
C980 C984 1.350 . S
C981 C984 1.463 . S
C981 C986 1.350 . S
C981 N989 1.427 . S
C982 H973 0.930 . S
C982 C980 1.378 . S
C982 C983 1.367 . S
C983 C982 1.367 . S
C983 C985 1.433 . S
C984 C980 1.350 . S
C984 C981 1.463 . S
C984 N988 1.427 . S
C985 H975 0.929 . S
C985 C983 1.433 . S
C985 N988 1.384 . S
C986 H977 0.929 . S
C986 C978 1.378 1_455 S
C986 C981 1.350 . S
C987 H974 0.929 . S
C987 C979 1.433 1_455 S
C987 N989 1.384 . S
N988 C984 1.427 . S
N988 C985 1.384 . S
N989 C981 1.427 . S
N989 C987 1.384 . S
H990 C996 0.930 . S
H991 C1000 0.930 . S
H992 C1005 0.929 . S
H993 C1003 0.929 . S
H994 C998 0.929 . S
H995 C1004 0.929 . S
C996 H990 0.930 . S
C996 C997 1.367 . S
C996 C1004 1.378 . S
C997 C996 1.367 . S
C997 C1005 1.433 . S
C998 H994 0.929 . S
C998 C1000 1.378 . S
C998 C1002 1.350 . S
C999 C1002 1.463 . S
C999 C1004 1.350 . S
C999 N1007 1.427 . S
C1000 H991 0.930 . S
C1000 C998 1.378 . S
C1000 C1001 1.367 . S
C1001 C1000 1.367 . S
C1001 C1003 1.433 . S
C1002 C998 1.350 . S
C1002 C999 1.463 . S
C1002 N1006 1.427 . S
C1003 H993 0.929 . S
C1003 C1001 1.433 . S
C1003 N1006 1.384 . S
C1004 H995 0.929 . S
C1004 C996 1.378 . S
C1004 C999 1.350 . S
C1005 H992 0.929 . S
C1005 C997 1.433 . S
C1005 N1007 1.384 . S
N1006 C1002 1.427 . S
N1006 C1003 1.384 . S
N1007 C999 1.427 . S
N1007 C1005 1.384 . S
H1008 C1014 0.930 . S
H1009 C1018 0.930 . S
H1010 C1023 0.929 . S
H1011 C1021 0.929 . S
H1012 C1016 0.929 . S
H1013 C1022 0.929 . S
C1014 H1008 0.930 . S
C1014 C1015 1.367 . S
C1014 C1022 1.378 . S
C1015 C1014 1.367 . S
C1015 C1023 1.433 . S
C1016 H1012 0.929 . S
C1016 C1018 1.378 . S
C1016 C1020 1.350 . S
C1017 C1020 1.463 . S
C1017 C1022 1.350 . S
C1017 N1025 1.427 . S
C1018 H1009 0.930 . S
C1018 C1016 1.378 . S
C1018 C1019 1.367 . S
C1019 C1018 1.367 . S
C1019 C1021 1.433 . S
C1020 C1016 1.350 . S
C1020 C1017 1.463 . S
C1020 N1024 1.427 . S
C1021 H1011 0.929 . S
C1021 C1019 1.433 . S
C1021 N1024 1.384 . S
C1022 H1013 0.929 . S
C1022 C1014 1.378 . S
C1022 C1017 1.350 . S
C1023 H1010 0.929 . S
C1023 C1015 1.433 . S
C1023 N1025 1.384 . S
N1024 C1020 1.427 . S
N1024 C1021 1.384 . S
N1025 C1017 1.427 . S
N1025 C1023 1.384 . S
H1026 C1032 0.930 . S
H1027 C1036 0.930 . S
H1028 C1041 0.929 . S
H1029 C1039 0.929 . S
H1030 C1034 0.929 . S
H1031 C1040 0.929 . S
C1032 H1026 0.930 . S
C1032 C1033 1.367 . S
C1032 C1040 1.378 . S
C1033 C1032 1.367 . S
C1033 C1041 1.433 . S
C1034 H1030 0.929 . S
C1034 C1036 1.378 . S
C1034 C1038 1.350 . S
C1035 C1038 1.463 . S
C1035 C1040 1.350 . S
C1035 N1043 1.427 . S
C1036 H1027 0.930 . S
C1036 C1034 1.378 . S
C1036 C1037 1.367 . S
C1037 C1036 1.367 . S
C1037 C1039 1.433 . S
C1038 C1034 1.350 . S
C1038 C1035 1.463 . S
C1038 N1042 1.427 . S
C1039 H1029 0.929 . S
C1039 C1037 1.433 . S
C1039 N1042 1.384 . S
C1040 H1031 0.929 . S
C1040 C1032 1.378 . S
C1040 C1035 1.350 . S
C1041 H1028 0.929 . S
C1041 C1033 1.433 . S
C1041 N1043 1.384 . S
N1042 C1038 1.427 . S
N1042 C1039 1.384 . S
N1043 C1035 1.427 . S
N1043 C1041 1.384 . S
H1044 C1050 0.930 . S
H1045 C1054 0.930 . S
H1046 C1059 0.929 . S
H1047 C1057 0.929 . S
H1048 C1052 0.929 . S
H1049 C1058 0.929 . S
C1050 H1044 0.930 . S
C1050 C1051 1.367 . S
C1050 C1058 1.378 . S
C1051 C1050 1.367 . S
C1051 C1059 1.433 . S
C1052 H1048 0.929 . S
C1052 C1054 1.378 . S
C1052 C1056 1.350 . S
C1053 C1056 1.463 . S
C1053 C1058 1.350 . S
C1053 N1061 1.427 . S
C1054 H1045 0.930 . S
C1054 C1052 1.378 . S
C1054 C1055 1.367 . S
C1055 C1054 1.367 . S
C1055 C1057 1.433 . S
C1056 C1052 1.350 . S
C1056 C1053 1.463 . S
C1056 N1060 1.427 . S
C1057 H1047 0.929 . S
C1057 C1055 1.433 . S
C1057 N1060 1.384 . S
C1058 H1049 0.929 . S
C1058 C1050 1.378 . S
C1058 C1053 1.350 . S
C1059 H1046 0.929 . S
C1059 C1051 1.433 . S
C1059 N1061 1.384 . S
N1060 C1056 1.427 . S
N1060 C1057 1.384 . S
N1061 C1053 1.427 . S
N1061 C1059 1.384 . S
H1062 C1068 0.930 . S
H1063 C1072 0.930 . S
H1064 C1077 0.929 . S
H1065 C1075 0.929 . S
H1066 C1070 0.929 . S
H1067 C1076 0.929 . S
C1068 H1062 0.930 . S
C1068 C1069 1.367 . S
C1068 C1076 1.378 . S
C1069 C1068 1.367 . S
C1069 C1077 1.433 . S
C1070 H1066 0.929 . S
C1070 C1072 1.378 . S
C1070 C1074 1.350 . S
C1071 C1074 1.463 1_565 S
C1071 C1076 1.350 . S
C1071 N1079 1.427 . S
C1072 H1063 0.930 . S
C1072 C1070 1.378 . S
C1072 C1073 1.367 . S
C1073 C1072 1.367 . S
C1073 C1075 1.433 . S
C1074 C1070 1.350 . S
C1074 C1071 1.463 1_545 S
C1074 N1078 1.427 . S
C1075 H1065 0.929 . S
C1075 C1073 1.433 . S
C1075 N1078 1.384 . S
C1076 H1067 0.929 . S
C1076 C1068 1.378 . S
C1076 C1071 1.350 . S
C1077 H1064 0.929 . S
C1077 C1069 1.433 . S
C1077 N1079 1.384 . S
N1078 C1074 1.427 . S
N1078 C1075 1.384 . S
N1079 C1071 1.427 . S
N1079 C1077 1.384 . S
H1080 C1086 0.930 . S
H1081 C1090 0.930 . S
H1082 C1095 0.929 . S
H1083 C1093 0.929 . S
H1084 C1088 0.929 1_455 S
H1085 C1094 0.929 . S
C1086 H1080 0.930 . S
C1086 C1087 1.367 . S
C1086 C1094 1.378 . S
C1087 C1086 1.367 . S
C1087 C1095 1.433 . S
C1088 H1084 0.929 1_655 S
C1088 C1090 1.378 . S
C1088 C1092 1.350 . S
C1089 C1092 1.463 1_455 S
C1089 C1094 1.350 . S
C1089 N1097 1.427 . S
C1090 H1081 0.930 . S
C1090 C1088 1.378 . S
C1090 C1091 1.367 . S
C1091 C1090 1.367 . S
C1091 C1093 1.433 . S
C1092 C1088 1.350 . S
C1092 C1089 1.463 1_655 S
C1092 N1096 1.427 . S
C1093 H1083 0.929 . S
C1093 C1091 1.433 . S
C1093 N1096 1.384 . S
C1094 H1085 0.929 . S
C1094 C1086 1.378 . S
C1094 C1089 1.350 . S
C1095 H1082 0.929 . S
C1095 C1087 1.433 . S
C1095 N1097 1.384 . S
N1096 C1092 1.427 . S
N1096 C1093 1.384 . S
N1097 C1089 1.427 . S
N1097 C1095 1.384 . S
H1098 C1104 0.930 . S
H1099 C1108 0.930 . S
H1100 C1113 0.929 . S
H1101 C1111 0.929 . S
H1102 C1106 0.929 . S
H1103 C1112 0.929 . S
C1104 H1098 0.930 . S
C1104 C1105 1.367 . S
C1104 C1112 1.378 . S
C1105 C1104 1.367 . S
C1105 C1113 1.433 . S
C1106 H1102 0.929 . S
C1106 C1108 1.378 . S
C1106 C1110 1.350 . S
C1107 C1110 1.463 . S
C1107 C1112 1.350 . S
C1107 N1115 1.427 . S
C1108 H1099 0.930 . S
C1108 C1106 1.378 . S
C1108 C1109 1.367 . S
C1109 C1108 1.367 . S
C1109 C1111 1.433 . S
C1110 C1106 1.350 . S
C1110 C1107 1.463 . S
C1110 N1114 1.427 . S
C1111 H1101 0.929 . S
C1111 C1109 1.433 . S
C1111 N1114 1.384 . S
C1112 H1103 0.929 . S
C1112 C1104 1.378 . S
C1112 C1107 1.350 . S
C1113 H1100 0.929 . S
C1113 C1105 1.433 . S
C1113 N1115 1.384 . S
N1114 C1110 1.427 . S
N1114 C1111 1.384 . S
N1115 C1107 1.427 . S
N1115 C1113 1.384 . S
H1116 C1122 0.930 . S
H1117 C1126 0.930 . S
H1118 C1131 0.929 . S
H1119 C1129 0.929 . S
H1120 C1124 0.929 . S
H1121 C1130 0.929 . S
C1122 H1116 0.930 . S
C1122 C1123 1.367 . S
C1122 C1130 1.378 1_455 S
C1123 C1122 1.367 . S
C1123 C1131 1.433 . S
C1124 H1120 0.929 . S
C1124 C1126 1.378 . S
C1124 C1128 1.350 . S
C1125 C1128 1.463 . S
C1125 C1130 1.350 . S
C1125 N1133 1.427 . S
C1126 H1117 0.930 . S
C1126 C1124 1.378 . S
C1126 C1127 1.367 . S
C1127 C1126 1.367 . S
C1127 C1129 1.433 . S
C1128 C1124 1.350 . S
C1128 C1125 1.463 . S
C1128 N1132 1.427 . S
C1129 H1119 0.929 . S
C1129 C1127 1.433 . S
C1129 N1132 1.384 . S
C1130 H1121 0.929 . S
C1130 C1122 1.378 1_655 S
C1130 C1125 1.350 . S
C1131 H1118 0.929 . S
C1131 C1123 1.433 . S
C1131 N1133 1.384 1_455 S
N1132 C1128 1.427 . S
N1132 C1129 1.384 . S
N1133 C1125 1.427 . S
N1133 C1131 1.384 1_655 S
H1134 C1140 0.930 . S
H1135 C1144 0.930 . S
H1136 C1149 0.929 . S
H1137 C1147 0.929 . S
H1138 C1142 0.929 . S
H1139 C1148 0.929 . S
C1140 H1134 0.930 . S
C1140 C1141 1.367 . S
C1140 C1148 1.378 . S
C1141 C1140 1.367 . S
C1141 C1149 1.433 . S
C1142 H1138 0.929 . S
C1142 C1144 1.378 . S
C1142 C1146 1.350 . S
C1143 C1146 1.463 . S
C1143 C1148 1.350 . S
C1143 N1151 1.427 . S
C1144 H1135 0.930 . S
C1144 C1142 1.378 . S
C1144 C1145 1.367 . S
C1145 C1144 1.367 . S
C1145 C1147 1.433 . S
C1146 C1142 1.350 . S
C1146 C1143 1.463 . S
C1146 N1150 1.427 . S
C1147 H1137 0.929 . S
C1147 C1145 1.433 . S
C1147 N1150 1.384 . S
C1148 H1139 0.929 . S
C1148 C1140 1.378 . S
C1148 C1143 1.350 . S
C1149 H1136 0.929 . S
C1149 C1141 1.433 . S
C1149 N1151 1.384 . S
N1150 C1146 1.427 . S
N1150 C1147 1.384 . S
N1151 C1143 1.427 . S
N1151 C1149 1.384 . S
H1152 C1158 0.930 . S
H1153 C1162 0.930 . S
H1154 C1167 0.929 . S
H1155 C1165 0.929 . S
H1156 C1160 0.929 . S
H1157 C1166 0.929 . S
C1158 H1152 0.930 . S
C1158 C1159 1.367 . S
C1158 C1166 1.378 1_565 S
C1159 C1158 1.367 . S
C1159 C1167 1.433 . S
C1160 H1156 0.929 . S
C1160 C1162 1.378 . S
C1160 C1164 1.350 . S
C1161 C1164 1.463 . S
C1161 C1166 1.350 . S
C1161 N1169 1.427 . S
C1162 H1153 0.930 . S
C1162 C1160 1.378 . S
C1162 C1163 1.367 . S
C1163 C1162 1.367 . S
C1163 C1165 1.433 . S
C1164 C1160 1.350 . S
C1164 C1161 1.463 . S
C1164 N1168 1.427 . S
C1165 H1155 0.929 . S
C1165 C1163 1.433 . S
C1165 N1168 1.384 . S
C1166 H1157 0.929 . S
C1166 C1158 1.378 1_545 S
C1166 C1161 1.350 . S
C1167 H1154 0.929 . S
C1167 C1159 1.433 . S
C1167 N1169 1.384 1_565 S
N1168 C1164 1.427 . S
N1168 C1165 1.384 . S
N1169 C1161 1.427 . S
N1169 C1167 1.384 1_545 S
H1170 C1176 0.930 . S
H1171 C1180 0.930 . S
H1172 C1185 0.929 . S
H1173 C1183 0.929 . S
H1174 C1178 0.929 . S
H1175 C1184 0.929 . S
C1176 H1170 0.930 . S
C1176 C1177 1.367 . S
C1176 C1184 1.378 . S
C1177 C1176 1.367 . S
C1177 C1185 1.433 . S
C1178 H1174 0.929 . S
C1178 C1180 1.378 . S
C1178 C1182 1.350 . S
C1179 C1182 1.463 . S
C1179 C1184 1.350 . S
C1179 N1187 1.427 . S
C1180 H1171 0.930 . S
C1180 C1178 1.378 . S
C1180 C1181 1.367 . S
C1181 C1180 1.367 . S
C1181 C1183 1.433 . S
C1182 C1178 1.350 . S
C1182 C1179 1.463 . S
C1182 N1186 1.427 . S
C1183 H1173 0.929 . S
C1183 C1181 1.433 . S
C1183 N1186 1.384 . S
C1184 H1175 0.929 . S
C1184 C1176 1.378 . S
C1184 C1179 1.350 . S
C1185 H1172 0.929 . S
C1185 C1177 1.433 . S
C1185 N1187 1.384 . S
N1186 C1182 1.427 . S
N1186 C1183 1.384 . S
N1187 C1179 1.427 . S
N1187 C1185 1.384 . S
H1188 C1194 0.930 . S
H1189 C1198 0.930 . S
H1190 C1203 0.929 . S
H1191 C1201 0.929 . S
H1192 C1196 0.929 . S
H1193 C1202 0.929 . S
C1194 H1188 0.930 . S
C1194 C1195 1.367 . S
C1194 C1202 1.378 . S
C1195 C1194 1.367 . S
C1195 C1203 1.433 . S
C1196 H1192 0.929 . S
C1196 C1198 1.378 . S
C1196 C1200 1.350 . S
C1197 C1200 1.463 . S
C1197 C1202 1.350 . S
C1197 N1205 1.427 . S
C1198 H1189 0.930 . S
C1198 C1196 1.378 . S
C1198 C1199 1.367 . S
C1199 C1198 1.367 . S
C1199 C1201 1.433 . S
C1200 C1196 1.350 . S
C1200 C1197 1.463 . S
C1200 N1204 1.427 . S
C1201 H1191 0.929 . S
C1201 C1199 1.433 . S
C1201 N1204 1.384 . S
C1202 H1193 0.929 . S
C1202 C1194 1.378 . S
C1202 C1197 1.350 . S
C1203 H1190 0.929 . S
C1203 C1195 1.433 . S
C1203 N1205 1.384 . S
N1204 C1200 1.427 . S
N1204 C1201 1.384 . S
N1205 C1197 1.427 . S
N1205 C1203 1.384 . S
H1206 C1212 0.930 . S
H1207 C1216 0.930 . S
H1208 C1221 0.929 . S
H1209 C1219 0.929 . S
H1210 C1214 0.929 . S
H1211 C1220 0.929 . S
C1212 H1206 0.930 . S
C1212 C1213 1.367 . S
C1212 C1220 1.378 . S
C1213 C1212 1.367 . S
C1213 C1221 1.433 . S
C1214 H1210 0.929 . S
C1214 C1216 1.378 . S
C1214 C1218 1.350 . S
C1215 C1218 1.463 . S
C1215 C1220 1.350 . S
C1215 N1223 1.427 . S
C1216 H1207 0.930 . S
C1216 C1214 1.378 . S
C1216 C1217 1.367 . S
C1217 C1216 1.367 . S
C1217 C1219 1.433 . S
C1218 C1214 1.350 . S
C1218 C1215 1.463 . S
C1218 N1222 1.427 . S
C1219 H1209 0.929 . S
C1219 C1217 1.433 . S
C1219 N1222 1.384 . S
C1220 H1211 0.929 . S
C1220 C1212 1.378 . S
C1220 C1215 1.350 . S
C1221 H1208 0.929 . S
C1221 C1213 1.433 . S
C1221 N1223 1.384 . S
N1222 C1218 1.427 . S
N1222 C1219 1.384 . S
N1223 C1215 1.427 . S
N1223 C1221 1.384 . S
H1224 C1230 0.930 . S
H1225 C1234 0.930 . S
H1226 C1239 0.929 . S
H1227 C1237 0.929 . S
H1228 C1232 0.929 . S
H1229 C1238 0.929 . S
C1230 H1224 0.930 . S
C1230 C1231 1.367 . S
C1230 C1238 1.378 . S
C1231 C1230 1.367 . S
C1231 C1239 1.433 . S
C1232 H1228 0.929 . S
C1232 C1234 1.378 . S
C1232 C1236 1.350 . S
C1233 C1236 1.463 . S
C1233 C1238 1.350 . S
C1233 N1241 1.427 . S
C1234 H1225 0.930 . S
C1234 C1232 1.378 . S
C1234 C1235 1.367 . S
C1235 C1234 1.367 . S
C1235 C1237 1.433 . S
C1236 C1232 1.350 . S
C1236 C1233 1.463 . S
C1236 N1240 1.427 . S
C1237 H1227 0.929 . S
C1237 C1235 1.433 . S
C1237 N1240 1.384 . S
C1238 H1229 0.929 . S
C1238 C1230 1.378 . S
C1238 C1233 1.350 . S
C1239 H1226 0.929 . S
C1239 C1231 1.433 . S
C1239 N1241 1.384 . S
N1240 C1236 1.427 . S
N1240 C1237 1.384 . S
N1241 C1233 1.427 . S
N1241 C1239 1.384 . S
H1242 C1248 0.930 . S
H1243 C1252 0.930 . S
H1244 C1257 0.929 . S
H1245 C1255 0.929 . S
H1246 C1250 0.929 . S
H1247 C1256 0.929 . S
C1248 H1242 0.930 . S
C1248 C1249 1.367 . S
C1248 C1256 1.378 . S
C1249 C1248 1.367 . S
C1249 C1257 1.433 . S
C1250 H1246 0.929 . S
C1250 C1252 1.378 . S
C1250 C1254 1.350 . S
C1251 C1254 1.463 . S
C1251 C1256 1.350 . S
C1251 N1259 1.427 . S
C1252 H1243 0.930 . S
C1252 C1250 1.378 . S
C1252 C1253 1.367 . S
C1253 C1252 1.367 . S
C1253 C1255 1.433 . S
C1254 C1250 1.350 . S
C1254 C1251 1.463 . S
C1254 N1258 1.427 . S
C1255 H1245 0.929 . S
C1255 C1253 1.433 . S
C1255 N1258 1.384 . S
C1256 H1247 0.929 . S
C1256 C1248 1.378 . S
C1256 C1251 1.350 . S
C1257 H1244 0.929 . S
C1257 C1249 1.433 . S
C1257 N1259 1.384 . S
N1258 C1254 1.427 . S
N1258 C1255 1.384 . S
N1259 C1251 1.427 . S
N1259 C1257 1.384 . S
H1260 C1266 0.930 . S
H1261 C1270 0.930 . S
H1262 C1275 0.929 . S
H1263 C1273 0.929 . S
H1264 C1268 0.929 . S
H1265 C1274 0.929 . S
C1266 H1260 0.930 . S
C1266 C1267 1.367 . S
C1266 C1274 1.378 . S
C1267 C1266 1.367 . S
C1267 C1275 1.433 . S
C1268 H1264 0.929 . S
C1268 C1270 1.378 . S
C1268 C1272 1.350 . S
C1269 C1272 1.463 . S
C1269 C1274 1.350 . S
C1269 N1277 1.427 . S
C1270 H1261 0.930 . S
C1270 C1268 1.378 . S
C1270 C1271 1.367 . S
C1271 C1270 1.367 . S
C1271 C1273 1.433 . S
C1272 C1268 1.350 . S
C1272 C1269 1.463 . S
C1272 N1276 1.427 . S
C1273 H1263 0.929 . S
C1273 C1271 1.433 . S
C1273 N1276 1.384 . S
C1274 H1265 0.929 . S
C1274 C1266 1.378 . S
C1274 C1269 1.350 . S
C1275 H1262 0.929 . S
C1275 C1267 1.433 . S
C1275 N1277 1.384 . S
N1276 C1272 1.427 . S
N1276 C1273 1.384 . S
N1277 C1269 1.427 . S
N1277 C1275 1.384 . S
H1278 C1284 0.930 . S
H1279 C1288 0.930 . S
H1280 C1293 0.929 . S
H1281 C1291 0.929 . S
H1282 C1286 0.929 . S
H1283 C1292 0.929 . S
C1284 H1278 0.930 . S
C1284 C1285 1.367 . S
C1284 C1292 1.378 . S
C1285 C1284 1.367 . S
C1285 C1293 1.433 . S
C1286 H1282 0.929 . S
C1286 C1288 1.378 . S
C1286 C1290 1.350 . S
C1287 C1290 1.463 . S
C1287 C1292 1.350 . S
C1287 N1295 1.427 . S
C1288 H1279 0.930 . S
C1288 C1286 1.378 . S
C1288 C1289 1.367 . S
C1289 C1288 1.367 . S
C1289 C1291 1.433 . S
C1290 C1286 1.350 . S
C1290 C1287 1.463 . S
C1290 N1294 1.427 . S
C1291 H1281 0.929 . S
C1291 C1289 1.433 . S
C1291 N1294 1.384 . S
C1292 H1283 0.929 . S
C1292 C1284 1.378 . S
C1292 C1287 1.350 . S
C1293 H1280 0.929 . S
C1293 C1285 1.433 . S
C1293 N1295 1.384 . S
N1294 C1290 1.427 . S
N1294 C1291 1.384 . S
N1295 C1287 1.427 . S
N1295 C1293 1.384 . S
H1296 C1302 0.930 . S
H1297 C1306 0.930 . S
H1298 C1311 0.929 . S
H1299 C1309 0.929 . S
H1300 C1304 0.929 . S
H1301 C1310 0.929 . S
C1302 H1296 0.930 . S
C1302 C1303 1.367 . S
C1302 C1310 1.378 . S
C1303 C1302 1.367 . S
C1303 C1311 1.433 . S
C1304 H1300 0.929 . S
C1304 C1306 1.378 . S
C1304 C1308 1.350 . S
C1305 C1308 1.463 . S
C1305 C1310 1.350 . S
C1305 N1313 1.427 . S
C1306 H1297 0.930 . S
C1306 C1304 1.378 . S
C1306 C1307 1.367 . S
C1307 C1306 1.367 . S
C1307 C1309 1.433 . S
C1308 C1304 1.350 . S
C1308 C1305 1.463 . S
C1308 N1312 1.427 . S
C1309 H1299 0.929 . S
C1309 C1307 1.433 . S
C1309 N1312 1.384 . S
C1310 H1301 0.929 . S
C1310 C1302 1.378 . S
C1310 C1305 1.350 . S
C1311 H1298 0.929 . S
C1311 C1303 1.433 . S
C1311 N1313 1.384 . S
N1312 C1308 1.427 . S
N1312 C1309 1.384 . S
N1313 C1305 1.427 . S
N1313 C1311 1.384 . S
H1314 C1320 0.930 . S
H1315 C1324 0.930 . S
H1316 C1329 0.929 . S
H1317 C1327 0.929 . S
H1318 C1322 0.929 . S
H1319 C1328 0.929 . S
C1320 H1314 0.930 . S
C1320 C1321 1.367 . S
C1320 C1328 1.378 . S
C1321 C1320 1.367 . S
C1321 C1329 1.433 . S
C1322 H1318 0.929 . S
C1322 C1324 1.378 . S
C1322 C1326 1.350 . S
C1323 C1326 1.463 . S
C1323 C1328 1.350 . S
C1323 N1331 1.427 . S
C1324 H1315 0.930 . S
C1324 C1322 1.378 . S
C1324 C1325 1.367 . S
C1325 C1324 1.367 . S
C1325 C1327 1.433 . S
C1326 C1322 1.350 . S
C1326 C1323 1.463 . S
C1326 N1330 1.427 . S
C1327 H1317 0.929 . S
C1327 C1325 1.433 . S
C1327 N1330 1.384 . S
C1328 H1319 0.929 . S
C1328 C1320 1.378 . S
C1328 C1323 1.350 . S
C1329 H1316 0.929 . S
C1329 C1321 1.433 . S
C1329 N1331 1.384 . S
N1330 C1326 1.427 . S
N1330 C1327 1.384 . S
N1331 C1323 1.427 . S
N1331 C1329 1.384 . S
H1332 C1338 0.930 . S
H1333 C1342 0.930 . S
H1334 C1347 0.929 . S
H1335 C1345 0.929 . S
H1336 C1340 0.929 . S
H1337 C1346 0.929 . S
C1338 H1332 0.930 . S
C1338 C1339 1.367 . S
C1338 C1346 1.378 . S
C1339 C1338 1.367 . S
C1339 C1347 1.433 . S
C1340 H1336 0.929 . S
C1340 C1342 1.378 . S
C1340 C1344 1.350 . S
C1341 C1344 1.463 . S
C1341 C1346 1.350 . S
C1341 N1349 1.427 . S
C1342 H1333 0.930 . S
C1342 C1340 1.378 . S
C1342 C1343 1.367 . S
C1343 C1342 1.367 . S
C1343 C1345 1.433 . S
C1344 C1340 1.350 . S
C1344 C1341 1.463 . S
C1344 N1348 1.427 . S
C1345 H1335 0.929 . S
C1345 C1343 1.433 . S
C1345 N1348 1.384 . S
C1346 H1337 0.929 . S
C1346 C1338 1.378 . S
C1346 C1341 1.350 . S
C1347 H1334 0.929 . S
C1347 C1339 1.433 . S
C1347 N1349 1.384 . S
N1348 C1344 1.427 . S
N1348 C1345 1.384 . S
N1349 C1341 1.427 . S
N1349 C1347 1.384 . S
H1350 C1356 0.930 . S
H1351 C1360 0.930 . S
H1352 C1365 0.929 . S
H1353 C1363 0.929 . S
H1354 C1358 0.929 . S
H1355 C1364 0.929 . S
C1356 H1350 0.930 . S
C1356 C1357 1.367 . S
C1356 C1364 1.378 . S
C1357 C1356 1.367 . S
C1357 C1365 1.433 . S
C1358 H1354 0.929 . S
C1358 C1360 1.378 . S
C1358 C1362 1.350 . S
C1359 C1362 1.463 . S
C1359 C1364 1.350 . S
C1359 N1367 1.427 . S
C1360 H1351 0.930 . S
C1360 C1358 1.378 . S
C1360 C1361 1.367 . S
C1361 C1360 1.367 . S
C1361 C1363 1.433 . S
C1362 C1358 1.350 . S
C1362 C1359 1.463 . S
C1362 N1366 1.427 . S
C1363 H1353 0.929 . S
C1363 C1361 1.433 . S
C1363 N1366 1.384 . S
C1364 H1355 0.929 . S
C1364 C1356 1.378 . S
C1364 C1359 1.350 . S
C1365 H1352 0.929 . S
C1365 C1357 1.433 . S
C1365 N1367 1.384 . S
N1366 C1362 1.427 . S
N1366 C1363 1.384 . S
N1367 C1359 1.427 . S
N1367 C1365 1.384 . S
H1368 C1374 0.930 . S
H1369 C1378 0.930 . S
H1370 C1383 0.929 . S
H1371 C1381 0.929 . S
H1372 C1376 0.929 . S
H1373 C1382 0.929 . S
C1374 H1368 0.930 . S
C1374 C1375 1.367 . S
C1374 C1382 1.378 . S
C1375 C1374 1.367 . S
C1375 C1383 1.433 . S
C1376 H1372 0.929 . S
C1376 C1378 1.378 . S
C1376 C1380 1.350 . S
C1377 C1380 1.463 . S
C1377 C1382 1.350 . S
C1377 N1385 1.427 . S
C1378 H1369 0.930 . S
C1378 C1376 1.378 . S
C1378 C1379 1.367 . S
C1379 C1378 1.367 . S
C1379 C1381 1.433 . S
C1380 C1376 1.350 . S
C1380 C1377 1.463 . S
C1380 N1384 1.427 . S
C1381 H1371 0.929 . S
C1381 C1379 1.433 . S
C1381 N1384 1.384 . S
C1382 H1373 0.929 . S
C1382 C1374 1.378 . S
C1382 C1377 1.350 . S
C1383 H1370 0.929 . S
C1383 C1375 1.433 . S
C1383 N1385 1.384 . S
N1384 C1380 1.427 . S
N1384 C1381 1.384 . S
N1385 C1377 1.427 . S
N1385 C1383 1.384 . S
H1386 C1392 0.930 . S
H1387 C1396 0.930 . S
H1388 C1401 0.929 . S
H1389 C1399 0.929 . S
H1390 C1394 0.929 . S
H1391 C1400 0.929 . S
C1392 H1386 0.930 . S
C1392 C1393 1.367 . S
C1392 C1400 1.378 . S
C1393 C1392 1.367 . S
C1393 C1401 1.433 . S
C1394 H1390 0.929 . S
C1394 C1396 1.378 . S
C1394 C1398 1.350 . S
C1395 C1398 1.463 . S
C1395 C1400 1.350 . S
C1395 N1403 1.427 . S
C1396 H1387 0.930 . S
C1396 C1394 1.378 . S
C1396 C1397 1.367 . S
C1397 C1396 1.367 . S
C1397 C1399 1.433 . S
C1398 C1394 1.350 . S
C1398 C1395 1.463 . S
C1398 N1402 1.427 . S
C1399 H1389 0.929 . S
C1399 C1397 1.433 . S
C1399 N1402 1.384 . S
C1400 H1391 0.929 . S
C1400 C1392 1.378 . S
C1400 C1395 1.350 . S
C1401 H1388 0.929 . S
C1401 C1393 1.433 . S
C1401 N1403 1.384 . S
N1402 C1398 1.427 . S
N1402 C1399 1.384 . S
N1403 C1395 1.427 . S
N1403 C1401 1.384 . S
H1404 C1410 0.930 . S
H1405 C1414 0.930 . S
H1406 C1419 0.929 . S
H1407 C1417 0.929 . S
H1408 C1412 0.929 . S
H1409 C1418 0.929 . S
C1410 H1404 0.930 . S
C1410 C1411 1.367 . S
C1410 C1418 1.378 . S
C1411 C1410 1.367 . S
C1411 C1419 1.433 . S
C1412 H1408 0.929 . S
C1412 C1414 1.378 . S
C1412 C1416 1.350 . S
C1413 C1416 1.463 . S
C1413 C1418 1.350 . S
C1413 N1421 1.427 . S
C1414 H1405 0.930 . S
C1414 C1412 1.378 . S
C1414 C1415 1.367 . S
C1415 C1414 1.367 . S
C1415 C1417 1.433 . S
C1416 C1412 1.350 . S
C1416 C1413 1.463 . S
C1416 N1420 1.427 . S
C1417 H1407 0.929 . S
C1417 C1415 1.433 . S
C1417 N1420 1.384 . S
C1418 H1409 0.929 . S
C1418 C1410 1.378 . S
C1418 C1413 1.350 . S
C1419 H1406 0.929 . S
C1419 C1411 1.433 . S
C1419 N1421 1.384 . S
N1420 C1416 1.427 . S
N1420 C1417 1.384 . S
N1421 C1413 1.427 . S
N1421 C1419 1.384 . S
H1422 C1428 0.930 . S
H1423 C1432 0.930 . S
H1424 C1437 0.929 . S
H1425 C1435 0.929 . S
H1426 C1430 0.929 . S
H1427 C1436 0.929 . S
C1428 H1422 0.930 . S
C1428 C1429 1.367 . S
C1428 C1436 1.378 . S
C1429 C1428 1.367 . S
C1429 C1437 1.433 . S
C1430 H1426 0.929 . S
C1430 C1432 1.378 . S
C1430 C1434 1.350 . S
C1431 C1434 1.463 . S
C1431 C1436 1.350 . S
C1431 N1439 1.427 . S
C1432 H1423 0.930 . S
C1432 C1430 1.378 . S
C1432 C1433 1.367 . S
C1433 C1432 1.367 . S
C1433 C1435 1.433 . S
C1434 C1430 1.350 . S
C1434 C1431 1.463 . S
C1434 N1438 1.427 . S
C1435 H1425 0.929 . S
C1435 C1433 1.433 . S
C1435 N1438 1.384 . S
C1436 H1427 0.929 . S
C1436 C1428 1.378 . S
C1436 C1431 1.350 . S
C1437 H1424 0.929 . S
C1437 C1429 1.433 . S
C1437 N1439 1.384 . S
N1438 C1434 1.427 . S
N1438 C1435 1.384 . S
N1439 C1431 1.427 . S
N1439 C1437 1.384 . S
H1440 C1446 0.930 . S
H1441 C1450 0.930 . S
H1442 C1455 0.929 . S
H1443 C1453 0.929 . S
H1444 C1448 0.929 . S
H1445 C1454 0.929 . S
C1446 H1440 0.930 . S
C1446 C1447 1.367 . S
C1446 C1454 1.378 . S
C1447 C1446 1.367 . S
C1447 C1455 1.433 . S
C1448 H1444 0.929 . S
C1448 C1450 1.378 . S
C1448 C1452 1.350 . S
C1449 C1452 1.463 . S
C1449 C1454 1.350 . S
C1449 N1457 1.427 . S
C1450 H1441 0.930 . S
C1450 C1448 1.378 . S
C1450 C1451 1.367 . S
C1451 C1450 1.367 . S
C1451 C1453 1.433 . S
C1452 C1448 1.350 . S
C1452 C1449 1.463 . S
C1452 N1456 1.427 . S
C1453 H1443 0.929 . S
C1453 C1451 1.433 . S
C1453 N1456 1.384 . S
C1454 H1445 0.929 . S
C1454 C1446 1.378 . S
C1454 C1449 1.350 . S
C1455 H1442 0.929 . S
C1455 C1447 1.433 . S
C1455 N1457 1.384 . S
N1456 C1452 1.427 . S
N1456 C1453 1.384 . S
N1457 C1449 1.427 . S
N1457 C1455 1.384 . S
H1458 C1464 0.930 . S
H1459 C1468 0.930 . S
H1460 C1473 0.929 . S
H1461 C1471 0.929 . S
H1462 C1466 0.929 . S
H1463 C1472 0.929 . S
C1464 H1458 0.930 . S
C1464 C1465 1.367 . S
C1464 C1472 1.378 . S
C1465 C1464 1.367 . S
C1465 C1473 1.433 . S
C1466 H1462 0.929 . S
C1466 C1468 1.378 . S
C1466 C1470 1.350 . S
C1467 C1470 1.463 . S
C1467 C1472 1.350 . S
C1467 N1475 1.427 . S
C1468 H1459 0.930 . S
C1468 C1466 1.378 . S
C1468 C1469 1.367 . S
C1469 C1468 1.367 . S
C1469 C1471 1.433 . S
C1470 C1466 1.350 . S
C1470 C1467 1.463 . S
C1470 N1474 1.427 . S
C1471 H1461 0.929 . S
C1471 C1469 1.433 . S
C1471 N1474 1.384 . S
C1472 H1463 0.929 . S
C1472 C1464 1.378 . S
C1472 C1467 1.350 . S
C1473 H1460 0.929 . S
C1473 C1465 1.433 . S
C1473 N1475 1.384 . S
N1474 C1470 1.427 . S
N1474 C1471 1.384 . S
N1475 C1467 1.427 . S
N1475 C1473 1.384 . S
H1476 C1482 0.930 . S
H1477 C1486 0.930 . S
H1478 C1491 0.929 . S
H1479 C1489 0.929 . S
H1480 C1484 0.929 . S
H1481 C1490 0.929 . S
C1482 H1476 0.930 . S
C1482 C1483 1.367 . S
C1482 C1490 1.378 . S
C1483 C1482 1.367 . S
C1483 C1491 1.433 . S
C1484 H1480 0.929 . S
C1484 C1486 1.378 . S
C1484 C1488 1.350 . S
C1485 C1488 1.463 . S
C1485 C1490 1.350 . S
C1485 N1493 1.427 . S
C1486 H1477 0.930 . S
C1486 C1484 1.378 . S
C1486 C1487 1.367 . S
C1487 C1486 1.367 . S
C1487 C1489 1.433 . S
C1488 C1484 1.350 . S
C1488 C1485 1.463 . S
C1488 N1492 1.427 . S
C1489 H1479 0.929 . S
C1489 C1487 1.433 . S
C1489 N1492 1.384 . S
C1490 H1481 0.929 . S
C1490 C1482 1.378 . S
C1490 C1485 1.350 . S
C1491 H1478 0.929 . S
C1491 C1483 1.433 . S
C1491 N1493 1.384 . S
N1492 C1488 1.427 . S
N1492 C1489 1.384 . S
N1493 C1485 1.427 . S
N1493 C1491 1.384 . S
H1494 C1500 0.930 . S
H1495 C1504 0.930 . S
H1496 C1509 0.929 . S
H1497 C1507 0.929 . S
H1498 C1502 0.929 . S
H1499 C1508 0.929 . S
C1500 H1494 0.930 . S
C1500 C1501 1.367 . S
C1500 C1508 1.378 . S
C1501 C1500 1.367 . S
C1501 C1509 1.433 . S
C1502 H1498 0.929 . S
C1502 C1504 1.378 . S
C1502 C1506 1.350 . S
C1503 C1506 1.463 . S
C1503 C1508 1.350 . S
C1503 N1511 1.427 . S
C1504 H1495 0.930 . S
C1504 C1502 1.378 . S
C1504 C1505 1.367 . S
C1505 C1504 1.367 . S
C1505 C1507 1.433 . S
C1506 C1502 1.350 . S
C1506 C1503 1.463 . S
C1506 N1510 1.427 . S
C1507 H1497 0.929 . S
C1507 C1505 1.433 . S
C1507 N1510 1.384 . S
C1508 H1499 0.929 . S
C1508 C1500 1.378 . S
C1508 C1503 1.350 . S
C1509 H1496 0.929 . S
C1509 C1501 1.433 . S
C1509 N1511 1.384 . S
N1510 C1506 1.427 . S
N1510 C1507 1.384 . S
N1511 C1503 1.427 . S
N1511 C1509 1.384 . S
H1512 C1518 0.930 . S
H1513 C1522 0.930 . S
H1514 C1527 0.929 . S
H1515 C1525 0.929 . S
H1516 C1520 0.929 . S
H1517 C1526 0.929 . S
C1518 H1512 0.930 . S
C1518 C1519 1.367 . S
C1518 C1526 1.378 . S
C1519 C1518 1.367 . S
C1519 C1527 1.433 . S
C1520 H1516 0.929 . S
C1520 C1522 1.378 . S
C1520 C1524 1.350 . S
C1521 C1524 1.463 . S
C1521 C1526 1.350 . S
C1521 N1529 1.427 . S
C1522 H1513 0.930 . S
C1522 C1520 1.378 . S
C1522 C1523 1.367 . S
C1523 C1522 1.367 . S
C1523 C1525 1.433 . S
C1524 C1520 1.350 . S
C1524 C1521 1.463 . S
C1524 N1528 1.427 . S
C1525 H1515 0.929 . S
C1525 C1523 1.433 . S
C1525 N1528 1.384 . S
C1526 H1517 0.929 . S
C1526 C1518 1.378 . S
C1526 C1521 1.350 . S
C1527 H1514 0.929 . S
C1527 C1519 1.433 . S
C1527 N1529 1.384 . S
N1528 C1524 1.427 . S
N1528 C1525 1.384 . S
N1529 C1521 1.427 . S
N1529 C1527 1.384 . S
H1530 C1536 0.930 . S
H1531 C1540 0.930 . S
H1532 C1545 0.929 . S
H1533 C1543 0.929 . S
H1534 C1538 0.929 . S
H1535 C1544 0.929 . S
C1536 H1530 0.930 . S
C1536 C1537 1.367 . S
C1536 C1544 1.378 . S
C1537 C1536 1.367 . S
C1537 C1545 1.433 . S
C1538 H1534 0.929 . S
C1538 C1540 1.378 . S
C1538 C1542 1.350 . S
C1539 C1542 1.463 . S
C1539 C1544 1.350 . S
C1539 N1547 1.427 . S
C1540 H1531 0.930 . S
C1540 C1538 1.378 . S
C1540 C1541 1.367 . S
C1541 C1540 1.367 . S
C1541 C1543 1.433 . S
C1542 C1538 1.350 . S
C1542 C1539 1.463 . S
C1542 N1546 1.427 . S
C1543 H1533 0.929 . S
C1543 C1541 1.433 . S
C1543 N1546 1.384 . S
C1544 H1535 0.929 . S
C1544 C1536 1.378 . S
C1544 C1539 1.350 . S
C1545 H1532 0.929 . S
C1545 C1537 1.433 . S
C1545 N1547 1.384 . S
N1546 C1542 1.427 . S
N1546 C1543 1.384 . S
N1547 C1539 1.427 . S
N1547 C1545 1.384 . S
C583 C162 1.674 . S
C587 C219 1.681 . S
C601 C174 1.804 . S
C605 C259 1.800 . S
C619 C150 1.601 . S
C623 C311 1.590 . S
C637 C138 1.484 . S
C641 C271 1.462 1_556 S
C659 C299 1.508 . S
C655 C114 1.509 . S
C673 C126 1.362 . S
C677 C231 1.358 1_556 S
C695 C238 1.675 . S
C691 C136 1.653 . S
C713 C278 1.679 . S
C709 C112 1.663 . S
C727 C124 1.654 . S
C731 C298 1.694 . S
C745 C160 1.500 . S
C749 C258 1.515 . S
C763 C172 1.457 . S
C767 C318 1.463 . S
C785 C218 1.478 . S
C781 C148 1.448 . S
C803 C339 1.680 . S
C799 C18 1.673 . S
C817 C30 1.801 . S
C821 C379 1.797 . S
C835 C6 1.605 . S
C839 C431 1.587 . S
C853 C210 1.482 . S
C857 C391 1.456 . S
C871 C186 1.508 . S
C875 C419 1.508 . S
C889 C198 1.356 . S
C893 C351 1.353 . S
C907 C208 1.653 . S
C911 C358 1.675 . S
C925 C184 1.654 . S
C929 C398 1.673 . S
C947 C418 1.679 . S
C943 C196 1.641 . S
C961 C16 1.502 . S
C965 C378 1.519 . S
C983 C438 1.461 . S
C979 C28 1.455 . S
C997 C4 1.442 . S
C1001 C338 1.472 . S
C1019 C459 1.680 . S
C1015 C90 1.673 . S
C1033 C102 1.802 . S
C1037 C499 1.799 . S
C1055 C551 1.587 . S
C1051 C78 1.605 . S
C1073 C511 1.460 . S
C1069 C66 1.483 . S
C1091 C539 1.506 . S
C1087 C42 1.509 . S
C1105 C54 1.355 . S
C1109 C471 1.348 . S
C1123 C64 1.651 . S
C1127 C478 1.672 . S
C1141 C40 1.654 . S
C1145 C518 1.673 . S
C1163 C538 1.678 . S
C1159 C52 1.642 . S
C1177 C88 1.501 . S
C1181 C498 1.519 . S
C1195 C100 1.453 . S
C1199 C558 1.460 . S
C1213 C76 1.441 . S
C1217 C458 1.472 . S
C1231 C189 1.512 . S
C1235 C242 1.485 . S
C1253 C282 1.925 . S
C1249 C201 1.963 . S
C1267 C213 1.565 . S
C1271 C305 1.580 . S
C1285 C81 1.785 . S
C1289 C265 1.786 . S
C1303 C93 1.694 . S
C1307 C322 1.672 . S
C1325 C225 1.314 . S
C1321 C105 1.306 . S
C1339 C45 1.505 . S
C1343 C362 1.474 . S
C1357 C57 1.960 . S
C1361 C402 1.920 . S
C1375 C69 1.570 . S
C1379 C425 1.580 . S
C1393 C153 1.790 . S
C1397 C385 1.785 . S
C1415 C442 1.674 . S
C1411 C165 1.695 . S
C1429 C177 1.310 . S
C1433 C345 1.313 . S
C1447 C117 1.506 . S
C1451 C482 1.475 . S
C1465 C129 1.959 . S
C1469 C522 1.919 . S
C1487 C545 1.582 . S
C1483 C141 1.572 . S
C1501 C9 1.790 . S
C1505 C505 1.785 . S
C1519 C21 1.695 . S
C1523 C562 1.674 . S
C1537 C33 1.307 . S
C1541 C465 1.314 . S
