# Generated by pormake.
# Topology tsx, (6,3)-cn, num edge types: 1
# Building blocks:
#     Node 0, Type 0, BuildingBlock: CIFDUS_clean_sbu_1, # of connection points: 6
#     Node 1, Type 0, BuildingBlock: CIFDUS_clean_sbu_1, # of connection points: 6
#     Node 2, Type 1, BuildingBlock: INOVEN_clean_linker_0, # of connection points: 3
#     Node 3, Type 1, BuildingBlock: INOVEN_clean_linker_0, # of connection points: 3
#     Node 4, Type 1, BuildingBlock: INOVEN_clean_linker_0, # of connection points: 3
#     Node 5, Type 1, BuildingBlock: INOVEN_clean_linker_0, # of connection points: 3
#     Edge 6, Type (0, 1), BuildingBlock: UVAHIK_clean_linker_0, # of connection points: 2
#     Edge 7, Type (0, 1), BuildingBlock: UVAHIK_clean_linker_0, # of connection points: 2
#     Edge 8, Type (0, 1), BuildingBlock: UVAHIK_clean_linker_0, # of connection points: 2
#     Edge 9, Type (0, 1), BuildingBlock: UVAHIK_clean_linker_0, # of connection points: 2
#     Edge 10, Type (0, 1), BuildingBlock: UVAHIK_clean_linker_0, # of connection points: 2
#     Edge 11, Type (0, 1), BuildingBlock: UVAHIK_clean_linker_0, # of connection points: 2
#     Edge 12, Type (0, 1), BuildingBlock: UVAHIK_clean_linker_0, # of connection points: 2
#     Edge 13, Type (0, 1), BuildingBlock: UVAHIK_clean_linker_0, # of connection points: 2
#     Edge 14, Type (0, 1), BuildingBlock: UVAHIK_clean_linker_0, # of connection points: 2
#     Edge 15, Type (0, 1), BuildingBlock: UVAHIK_clean_linker_0, # of connection points: 2
#     Edge 16, Type (0, 1), BuildingBlock: UVAHIK_clean_linker_0, # of connection points: 2
#     Edge 17, Type (0, 1), BuildingBlock: UVAHIK_clean_linker_0, # of connection points: 2
# Relax obj value: 0.087
# Max RMSD: 0.139
# Mean RMSD: 0.104
data_MOF--net-tsx--node1-CIFDUS_clean_sbu_1--node2-INOVEN_clean_linker_0--edge1-UVAHIK_clean_linker_0
_symmetry_space_group_name_H-M    P1
_symmetry_Int_Tables_number       1
_symmetry_cell_setting            triclinic
loop_
_symmetry_equiv_pos_as_xyz
'x, y, z'
_cell_length_a     22.761756
_cell_length_b     29.953659
_cell_length_c     44.223836
_cell_angle_alpha  97.597272
_cell_angle_beta   103.85382
_cell_angle_gamma 91.842534
loop_
_atom_site_label
_atom_site_type_symbol
_atom_site_fract_x
_atom_site_fract_y
_atom_site_fract_z
_atom_type_partial_charge
O0 O 1.03897 0.07845 0.01404 0.0
Mn1 Mn 0.08555 0.01858 0.01373 0.0
O2 O 0.94463 0.06039 0.98356 0.0
Mn3 Mn 0.96573 0.0093 0.96143 0.0
O4 O 0.13238 0.95942 0.01436 0.0
O5 O 0.1625 0.05563 0.03579 0.0
Mn6 Mn 0.20119 0.0326 0.06895 0.0
O7 O 0.06557 0.00998 0.05666 0.0
O8 O 0.21727 0.97479 0.0536 0.0
O9 O 0.10494 0.02651 0.97081 0.0
O10 O 1.01499 0.0193 0.93472 0.0
O11 O 0.24919 0.08224 0.06618 0.0
O12 O 0.14866 0.03564 0.09511 0.0
C13 C 0.96932 0.9475 0.98141 0.0
C14 C 0.9835 0.08766 0.00357 0.0
C15 C 0.18285 0.94803 0.03093 0.0
C16 C 0.2066 0.08608 0.04157 0.0
C17 C 0.09317 0.02107 0.08585 0.0
C18 C 0.07263 0.02598 0.94259 0.0
O19 O 1.00937 0.98106 0.99069 0.0
O20 O 0.92513 0.95368 0.95812 0.0
O21 O 0.53618 0.58237 0.51474 0.0
Mn22 Mn 0.5808 0.52151 0.5138 0.0
O23 O 0.44082 0.56578 0.48577 0.0
Mn24 Mn 0.46119 0.51523 0.46297 0.0
O25 O 0.62655 0.46175 0.51418 0.0
O26 O 0.65864 0.55812 0.53542 0.0
Mn27 Mn 0.69685 0.53462 0.56849 0.0
O28 O 0.56109 0.51363 0.55693 0.0
O29 O 0.7119 0.47657 0.55313 0.0
O30 O 0.59974 0.52898 0.47071 0.0
O31 O 0.50904 0.52554 0.43568 0.0
O32 O 0.74588 0.58368 0.56591 0.0
O33 O 0.64495 0.5386 0.59496 0.0
C34 C 0.46085 0.45203 0.48065 0.0
C35 C 0.48085 0.59249 0.50537 0.0
C36 C 0.67698 0.44998 0.53057 0.0
C37 C 0.70338 0.58819 0.54142 0.0
C38 C 0.58914 0.52482 0.58604 0.0
C39 C 0.56683 0.53024 0.44286 0.0
O40 O 0.50355 0.48399 0.49096 0.0
O41 O 0.41713 0.46123 0.45809 0.0
H42 H 0.07007 0.96935 0.48213 0.0
H43 H 0.11792 0.91698 0.39596 0.0
H44 H 0.99347 0.02073 0.39582 0.0
N45 N 0.99773 0.03129 0.45734 0.0
N46 N 0.97586 0.06352 0.44415 0.0
C47 C 0.06608 0.96906 0.45722 0.0
C48 C 0.0981 0.93852 0.44103 0.0
C49 C 1.02895 -0.00058 0.44115 0.0
C50 C 1.02317 -0.00163 0.40866 0.0
C51 C 0.05461 0.96859 0.39228 0.0
C52 C 0.09198 0.93888 0.40855 0.0
H53 H 0.07116 0.00205 0.53554 0.0
H54 H 1.02592 0.95645 0.6161 0.0
H55 H 0.16952 0.05867 0.62956 0.0
N56 N 0.16123 0.06223 0.56803 0.0
N57 N 0.20443 0.08707 0.5857 0.0
C58 C 0.07915 0.00346 0.56079 0.0
C59 C 0.04288 0.97573 0.57347 0.0
C60 C 0.12517 0.03363 0.58086 0.0
C61 C 0.13445 0.03562 0.61371 0.0
C62 C 0.09918 0.00772 0.62646 0.0
C63 C 0.0536 0.97787 0.60626 0.0
H64 H 0.5736 0.4658 0.98125 0.0
H65 H 0.61777 0.41322 0.89405 0.0
H66 H 0.49729 0.51934 0.89579 0.0
N67 N 0.50266 0.52901 0.95739 0.0
N68 N 0.48234 0.56209 0.94478 0.0
C69 C 0.56909 0.46571 0.95631 0.0
C70 C 0.59987 0.43481 0.93962 0.0
C71 C 0.53266 0.49684 0.94074 0.0
C72 C 0.52631 0.49624 0.90826 0.0
C73 C 0.55633 0.46603 0.89137 0.0
C74 C 0.59294 0.43544 0.90709 0.0
H75 H 0.57017 0.49825 0.03597 0.0
H76 H 0.52516 0.45342 0.11682 0.0
H77 H 0.66577 0.55787 0.12979 0.0
N78 N 0.65748 0.56046 0.06813 0.0
N79 N 0.69352 0.59089 0.08554 0.0
C80 C 0.57787 0.50016 0.06125 0.0
C81 C 0.54211 0.47231 0.07407 0.0
C82 C 0.62246 0.53149 0.08119 0.0
C83 C 0.63143 0.53412 0.11405 0.0
C84 C 0.59703 0.50578 0.12696 0.0
C85 C 0.55244 0.47501 0.10689 0.0
C86 C 0.26475 0.12564 0.01162 0.0
C87 C 0.21211 0.12198 0.02257 0.0
C88 C 0.2837 0.16659 0.00399 0.0
C89 C 0.31656 0.25816 0.98781 0.0
H90 H 0.3166 0.3491 0.05876 0.0
C91 C 0.4327 0.44675 0.05538 0.0
C92 C 0.49282 0.4405 0.05394 0.0
C93 C 0.3871 0.41261 0.04188 0.0
C94 C 0.31611 0.32482 0.03825 0.0
H95 H 0.13576 0.15696 0.03236 0.0
H96 H 0.16814 0.2289 0.01855 0.0
H97 H 0.25265 0.28025 0.05002 0.0
H98 H 0.55238 0.39502 0.036 0.0
H99 H 0.47325 0.33449 0.01312 0.0
H100 H 0.38204 0.30235 0.97683 0.0
C101 C 0.19491 0.20008 0.01581 0.0
C102 C 0.27908 0.28509 0.0332 0.0
C103 C 0.17573 0.15878 0.02322 0.0
C104 C 0.50612 0.40062 0.03716 0.0
C105 C 0.4606 0.36605 0.024 0.0
C106 C 0.35352 0.29814 0.99278 0.0
C107 C 0.2508 0.20503 0.00768 0.0
C108 C 0.28015 0.2506 0.00852 0.0
C109 C 0.40084 0.37097 0.02719 0.0
C110 C 0.35515 0.33148 0.01865 0.0
H111 H 0.29402 0.09781 0.01148 0.0
H112 H 0.3271 0.16905 0.9981 0.0
H113 H 0.31803 0.23248 0.96837 0.0
H114 H 0.4215 0.47739 0.06818 0.0
H115 H 0.34148 0.41822 0.04412 0.0
C116 C 0.16617 0.86841 1.00173 0.0
C117 C 0.20326 0.90201 0.02396 0.0
C118 C 0.18706 0.82541 0.99546 0.0
C119 C 0.30968 0.75081 0.02656 0.0
H120 H 0.28349 0.6998 0.93887 0.0
C121 C 0.42657 0.59141 0.98434 0.0
C122 C 0.44876 0.59529 0.95768 0.0
C123 C 0.38919 0.62396 0.99408 0.0
C124 C 0.29127 0.71357 0.96352 0.0
H125 H 0.29128 0.91622 0.05725 0.0
H126 H 0.32756 0.84254 0.04587 0.0
H127 H 0.23075 0.76564 0.95303 0.0
H128 H 0.45113 0.63532 0.9209 0.0
H129 H 0.38781 0.69246 0.93804 0.0
H130 H 0.37308 0.70018 0.03676 0.0
C131 C 0.28193 0.84869 0.03372 0.0
C132 C 0.26031 0.75103 0.97167 0.0
C133 C 0.26116 0.89134 0.04 0.0
C134 C 0.43423 0.63199 0.94146 0.0
C135 C 0.39738 0.66428 0.95109 0.0
C136 C 0.34096 0.71343 0.01836 0.0
C137 C 0.24544 0.81515 0.01129 0.0
C138 C 0.27056 0.77105 0.00321 0.0
C139 C 0.37352 0.66044 0.9772 0.0
C140 C 0.33364 0.69534 0.98663 0.0
H141 H 0.12114 0.87529 0.98914 0.0
H142 H 0.15753 0.80025 0.9782 0.0
H143 H 0.31768 0.76476 0.05118 0.0
H144 H 0.43696 0.56306 0.99712 0.0
H145 H 0.37158 0.62008 0.01433 0.0
C146 C 0.95629 0.86437 0.97431 0.0
C147 C 0.97083 0.90515 0.9949 0.0
C148 C 0.93944 0.82521 0.98492 0.0
C149 C 0.92716 0.7726 0.0547 0.0
H150 H 0.7759 0.71853 0.99911 0.0
C151 C 0.76411 0.65632 0.09579 0.0
C152 C 0.73003 0.62092 0.0743 0.0
C153 C 0.80027 0.6873 0.08607 0.0
C154 C 0.81866 0.73243 0.01469 0.0
H155 H 0.98153 0.93703 0.04272 0.0
H156 H 0.95256 0.86825 0.06177 0.0
H157 H 0.83156 0.77803 0.98321 0.0
H158 H 0.70772 0.58897 0.02568 0.0
H159 H 0.772 0.64256 0.00854 0.0
H160 H 0.91389 0.72708 0.08631 0.0
C161 C 0.95523 0.86628 0.0375 0.0
C162 C 0.85066 0.76671 0.00557 0.0
C163 C 0.97249 0.90556 0.02681 0.0
C164 C 0.73326 0.6163 0.04272 0.0
C165 C 0.76994 0.64715 0.03295 0.0
C166 C 0.89532 0.73794 0.06375 0.0
C167 C 0.93584 0.8262 0.01627 0.0
C168 C 0.90499 0.78752 0.02554 0.0
C169 C 0.80365 0.68329 0.05449 0.0
C170 C 0.84018 0.71778 0.04402 0.0
H171 H 0.95437 0.86342 0.94951 0.0
H172 H 0.92597 0.79471 0.96813 0.0
H173 H 0.96906 0.78775 0.0705 0.0
H174 H 0.76198 0.6603 0.1202 0.0
H175 H 0.82445 0.71501 0.10325 0.0
C176 C 0.99154 0.17182 0.00786 0.0
C177 C 0.96288 0.13234 0.01301 0.0
C178 C 0.96265 0.21246 0.00884 0.0
C179 C 0.8325 0.27014 0.03019 0.0
H180 H 0.81372 0.31408 0.95 0.0
C181 C 0.68108 0.41635 0.98553 0.0
C182 C 0.64137 0.40287 0.95568 0.0
C183 C 0.72555 0.388 0.99829 0.0
C184 C 0.81906 0.30251 0.97265 0.0
H185 H 0.88422 0.10465 0.02533 0.0
H186 H 0.83453 0.17552 0.0278 0.0
H187 H 0.88799 0.25887 0.96462 0.0
H188 H 0.61423 0.34735 0.91727 0.0
H189 H 0.69266 0.29905 0.93903 0.0
H190 H 0.76179 0.31314 0.03754 0.0
C191 C 0.87904 0.17544 0.02303 0.0
C192 C 0.86198 0.27124 0.98117 0.0
C193 C 0.90737 0.13482 0.02153 0.0
C194 C 0.64511 0.35951 0.93982 0.0
C195 C 0.68989 0.3317 0.95229 0.0
C196 C 0.79009 0.30211 0.02184 0.0
C197 C 0.90508 0.21425 0.01538 0.0
C198 C 0.86801 0.25368 0.00961 0.0
C199 C 0.73141 0.34604 0.98125 0.0
C200 C 0.78176 0.31744 0.99253 0.0
H201 H 1.03375 0.17053 1.00064 0.0
H202 H 0.98384 0.2419 1.00291 0.0
H203 H 0.83624 0.25723 0.05228 0.0
H204 H 0.67968 0.44952 0.99838 0.0
H205 H 0.75695 0.39964 0.02078 0.0
C206 C 0.67459 0.66213 0.52444 0.0
C207 C 0.70958 0.62462 0.52289 0.0
C208 C 0.69493 0.70355 0.51764 0.0
C209 C 0.78076 0.78785 0.53501 0.0
H210 H 0.88158 0.80481 0.47757 0.0
C211 C 1.00618 0.90423 0.53639 0.0
C212 C 0.99321 0.94411 0.55333 0.0
C213 C 0.96078 0.86937 0.52379 0.0
C214 C 0.85373 0.80069 0.49385 0.0
H215 H 0.79039 0.5996 0.51096 0.0
H216 H 0.82536 0.67101 0.49858 0.0
H217 H 0.81748 0.73508 0.4696 0.0
H218 H 0.92235 0.98058 0.56839 0.0
H219 H 0.84251 0.92096 0.54526 0.0
H220 H 0.81892 0.85189 0.56032 0.0
C221 C 0.78215 0.66901 0.50472 0.0
C222 C 0.81671 0.76075 0.48917 0.0
C223 C 0.76207 0.62793 0.51174 0.0
C224 C 0.93334 0.95002 0.55542 0.0
C225 C 0.88785 0.91558 0.54248 0.0
C226 C 0.81786 0.82754 0.53977 0.0
C227 C 0.75062 0.70797 0.50922 0.0
C228 C 0.78088 0.75334 0.51018 0.0
C229 C 0.90142 0.87394 0.52771 0.0
C230 C 0.85606 0.83417 0.51974 0.0
H231 H 0.63481 0.66063 0.53376 0.0
H232 H 0.66912 0.73276 0.52099 0.0
H233 H 0.75484 0.78314 0.55207 0.0
H234 H 0.05223 0.8988 0.53477 0.0
H235 H 0.97333 0.83785 0.5128 0.0
C236 C 0.75496 0.39301 0.53925 0.0
C237 C 0.69695 0.40382 0.52346 0.0
C238 C 0.77549 0.35031 0.53282 0.0
C239 C 0.75261 0.25231 0.47085 0.0
H240 H 0.86665 0.20193 0.53567 0.0
C241 C 0.92539 0.13239 0.4399 0.0
C242 C 0.94145 0.09646 0.4567 0.0
C243 C 0.88837 0.16463 0.44944 0.0
C244 C 0.83418 0.21501 0.51734 0.0
H245 H 0.61439 0.37728 0.48894 0.0
H246 H 0.65036 0.3021 0.47775 0.0
H247 H 0.81162 0.26658 0.55023 0.0
H248 H 0.93193 0.06548 0.49704 0.0
H249 H 0.86615 0.1223 0.51404 0.0
H250 H 0.77493 0.20073 0.43798 0.0
C251 C 0.68017 0.32721 0.49493 0.0
C252 C 0.8031 0.25247 0.52562 0.0
C253 C 0.6595 0.37028 0.50133 0.0
C254 C 0.92037 0.09322 0.48378 0.0
C255 C 0.88277 0.12569 0.49342 0.0
C256 C 0.78333 0.21472 0.46261 0.0
C257 C 0.73866 0.31681 0.51051 0.0
C258 C 0.76354 0.27258 0.50236 0.0
C259 C 0.86579 0.16153 0.47606 0.0
C260 C 0.82618 0.19662 0.4856 0.0
H261 H 0.78539 0.41781 0.55639 0.0
H262 H 0.82122 0.3441 0.54479 0.0
H263 H 0.72268 0.26678 0.45227 0.0
H264 H 0.94143 0.13524 0.41901 0.0
H265 H 0.87785 0.19229 0.43598 0.0
C266 C 0.41991 0.37266 0.47271 0.0
C267 C 0.45914 0.40783 0.49205 0.0
C268 C 0.40792 0.3331 0.48412 0.0
C269 C 0.39714 0.29479 0.55731 0.0
H270 H 0.36021 0.1783 0.50446 0.0
C271 C 0.28897 0.14283 0.59727 0.0
C272 C 0.24151 0.11737 0.57495 0.0
C273 C 0.3253 0.17469 0.58841 0.0
C274 C 0.36998 0.21063 0.51946 0.0
H275 H 0.52064 0.42754 0.53773 0.0
H276 H 0.4985 0.3581 0.55841 0.0
H277 H 0.41258 0.2392 0.48754 0.0
H278 H 0.19475 0.10452 0.5255 0.0
H279 H 0.25794 0.16065 0.5098 0.0
H280 H 0.35293 0.26673 0.58878 0.0
C281 C 0.4767 0.36161 0.53431 0.0
C282 C 0.40034 0.24548 0.50986 0.0
C283 C 0.48951 0.40128 0.52256 0.0
C284 C 0.23127 0.12365 0.54322 0.0
C285 C 0.26773 0.15564 0.53427 0.0
C286 C 0.36681 0.25991 0.56693 0.0
C287 C 0.4345 0.32755 0.51535 0.0
C288 C 0.41288 0.28836 0.52827 0.0
C289 C 0.31488 0.18187 0.55684 0.0
C290 C 0.35159 0.21769 0.54778 0.0
H291 H 0.39624 0.37637 0.4489 0.0
H292 H 0.37488 0.30796 0.46888 0.0
H293 H 0.40527 0.32752 0.57185 0.0
H294 H 0.29746 0.13827 0.6218 0.0
H295 H 0.36159 0.19373 0.60634 0.0
C296 C 0.49048 0.67662 0.50956 0.0
C297 C 0.46183 0.63754 0.51531 0.0
C298 C 0.46221 0.71754 0.51069 0.0
C299 C 0.33327 0.7764 0.53286 0.0
H300 H 0.31273 0.81889 0.45211 0.0
C301 C 0.17937 0.92105 0.4873 0.0
C302 C 0.13983 0.90705 0.45748 0.0
C303 C 0.2243 0.89316 0.50028 0.0
C304 C 0.31857 0.80774 0.47491 0.0
H305 H 0.38406 0.61092 0.52895 0.0
H306 H 0.33551 0.68222 0.53166 0.0
H307 H 0.38729 0.76396 0.46683 0.0
H308 H 0.11334 0.85104 0.4194 0.0
H309 H 0.1924 0.8035 0.44154 0.0
H310 H 0.26261 0.81945 0.54023 0.0
C311 C 0.37951 0.68165 0.5263 0.0
C312 C 0.36169 0.77663 0.4835 0.0
C313 C 0.40721 0.64077 0.52468 0.0
C314 C 0.14408 0.86358 0.44192 0.0
C315 C 0.18926 0.83622 0.45461 0.0
C316 C 0.29061 0.8082 0.52442 0.0
C317 C 0.40529 0.72002 0.51795 0.0
C318 C 0.36832 0.75953 0.51214 0.0
C319 C 0.23074 0.85111 0.48349 0.0
C320 C 0.28159 0.82297 0.49491 0.0
H321 H 0.53202 0.67476 0.50172 0.0
H322 H 0.48326 0.74661 0.50425 0.0
H323 H 0.33748 0.76389 0.55512 0.0
H324 H 0.17748 0.9543 0.49993 0.0
H325 H 0.25561 0.90522 0.52272 0.0
C326 C 0.06352 0.04887 0.13501 0.0
C327 C 0.06211 0.01375 0.11047 0.0
C328 C 0.04645 0.04022 0.16205 0.0
C329 C 0.05088 0.95005 0.20956 0.0
H330 H 0.96961 0.03285 0.25838 0.0
C331 C 1.03922 0.92954 0.33672 0.0
C332 C 0.04889 0.96961 0.35823 0.0
C333 C 1.03103 0.93112 0.30448 0.0
C334 C 0.99269 0.0095 0.2451 0.0
H335 H 0.04166 0.94223 0.09461 0.0
H336 H 1.01099 0.92694 0.14187 0.0
H337 H 0.96774 0.04264 0.20426 0.0
H338 H 0.0598 0.04257 0.36304 0.0
H339 H 0.04652 0.04536 0.30713 0.0
H340 H 0.07813 0.91806 0.25075 0.0
C341 C 1.02455 0.96127 0.14002 0.0
C342 C 0.99129 0.01499 0.21407 0.0
C343 C 0.04106 0.9701 0.11277 0.0
C344 C 0.05132 0.01116 0.34696 0.0
C345 C 0.04337 0.01274 0.31487 0.0
C346 C 0.05257 0.94469 0.24068 0.0
C347 C 1.0287 -0.00395 0.16528 0.0
C348 C 1.02161 0.98599 0.19623 0.0
C349 C 1.03261 0.97281 0.29318 0.0
C350 C 1.02484 0.97509 0.25907 0.0
H351 H 0.0806 0.08264 0.13386 0.0
H352 H 0.05093 0.06762 0.18125 0.0
H353 H 0.07534 0.92749 0.19653 0.0
H354 H 1.03665 0.89707 0.34475 0.0
H355 H 1.02253 0.89975 0.28839 0.0
C356 C 0.08521 0.06519 0.8984 0.0
C357 C 0.1023 0.03123 0.91713 0.0
C358 C 0.1018 0.06456 0.86993 0.0
C359 C 0.11721 0.98389 0.80617 0.0
H360 H 0.18059 0.0846 0.77411 0.0
C361 C 0.12118 0.97119 0.67534 0.0
C362 C 0.10973 0.01013 0.66099 0.0
C363 C 0.13133 0.97357 0.70799 0.0
C364 C 0.16209 0.05626 0.78251 0.0
H365 H 0.15137 0.97083 0.92174 0.0
H366 H 0.17903 0.96885 0.87116 0.0
H367 H 0.18185 0.09087 0.82988 0.0
H368 H 0.0992 0.0819 0.66914 0.0
H369 H 0.11366 0.08596 0.72585 0.0
H370 H 0.09324 0.95022 0.75888 0.0
C371 C 0.15399 -0.00356 0.87889 0.0
C372 C 0.16354 0.05978 0.81454 0.0
C373 C 0.13863 -0.00226 0.9078 0.0
C374 C 0.10844 0.05148 0.67977 0.0
C375 C 0.11733 0.05375 0.71233 0.0
C376 C 0.11456 0.98066 0.77406 0.0
C377 C 0.13432 0.02922 0.85937 0.0
C378 C 0.1405 0.0238 0.82656 0.0
C379 C 0.12894 0.01482 0.72698 0.0
C380 C 0.13615 0.01705 0.76163 0.0
H381 H 0.05653 0.09097 0.90508 0.0
H382 H 0.08562 0.08995 0.85518 0.0
H383 H 0.09819 0.95594 0.8148 0.0
H384 H 0.12303 0.939 0.66129 0.0
H385 H 0.1413 0.943 0.71828 0.0
C386 C 0.56859 0.55211 0.63765 0.0
C387 C 0.55803 0.51906 0.61099 0.0
C388 C 0.5506 0.54353 0.66443 0.0
C389 C 0.53888 0.45112 0.70707 0.0
H390 H 0.47388 0.53878 0.76086 0.0
C391 C 0.53548 0.42847 0.8352 0.0
C392 C 0.55005 0.46777 0.8574 0.0
C393 C 0.52556 0.43113 0.80299 0.0
C394 C 0.49245 0.51401 0.74622 0.0
H395 H 0.51833 0.45186 0.59083 0.0
H396 H 0.48782 0.4363 0.63818 0.0
H397 H 0.47067 0.55077 0.70702 0.0
H398 H 0.56826 0.54027 0.86358 0.0
H399 H 0.55269 0.5449 0.8078 0.0
H400 H 0.56395 0.41563 0.7467 0.0
C401 C 0.50934 0.46905 0.63807 0.0
C402 C 0.49007 0.52074 0.71532 0.0
C403 C 0.52628 0.47807 0.61094 0.0
C404 C 0.55609 0.50952 0.84692 0.0
C405 C 0.54667 0.51216 0.8149 0.0
C406 C 0.54187 0.44459 0.73813 0.0
C407 C 0.52277 0.50135 0.66531 0.0
C408 C 0.51471 0.49 0.69572 0.0
C409 C 0.53048 0.47313 0.79246 0.0
C410 C 0.52034 0.47669 0.75836 0.0
H411 H 0.59327 0.5839 0.63826 0.0
H412 H 0.56204 0.56889 0.68516 0.0
H413 H 0.55884 0.42713 0.69255 0.0
H414 H 0.53017 0.3959 0.84269 0.0
H415 H 0.51294 0.40043 0.78636 0.0
C416 C 0.57544 0.56689 0.39689 0.0
C417 C 0.59581 0.53515 0.41705 0.0
C418 C 0.5928 0.56592 0.36862 0.0
C419 C 0.61696 0.4853 0.30739 0.0
H420 H 0.67401 0.58693 0.27382 0.0
C421 C 0.62121 0.47068 0.17642 0.0
C422 C 0.60731 0.50887 0.16151 0.0
C423 C 0.63144 0.4738 0.20913 0.0
C424 C 0.6573 0.55828 0.28263 0.0
H425 H 0.65158 0.47849 0.42434 0.0
H426 H 0.68042 0.47568 0.37398 0.0
H427 H 0.67409 0.59441 0.32947 0.0
H428 H 0.59245 0.58003 0.16865 0.0
H429 H 0.60689 0.58528 0.2254 0.0
H430 H 0.59565 0.45 0.26056 0.0
C431 C 0.65218 0.50188 0.3805 0.0
C432 C 0.65814 0.56252 0.31461 0.0
C433 C 0.63607 0.50365 0.40927 0.0
C434 C 0.60358 0.5502 0.17974 0.0
C435 C 0.61251 0.55318 0.21234 0.0
C436 C 0.61485 0.48132 0.2753 0.0
C437 C 0.62947 0.53239 0.35966 0.0
C438 C 0.63723 0.52625 0.32714 0.0
C439 C 0.62668 0.51504 0.22758 0.0
C440 C 0.634 0.51801 0.2623 0.0
H441 H 0.54396 0.59123 0.4024 0.0
H442 H 0.5743 0.58952 0.35282 0.0
H443 H 0.59967 0.45707 0.31645 0.0
H444 H 0.62495 0.43854 0.16279 0.0
H445 H 0.64338 0.44385 0.21988 0.0
loop_
_geom_bond_atom_site_label_1
_geom_bond_atom_site_label_2
_geom_bond_distance
_geom_bond_site_symmetry_2
_ccdc_geom_bond_type
O0 Mn1 2.163 . S
O0 C14 1.244 1_454 S
Mn1 O0 2.163 . S
Mn1 O4 2.160 1_545 S
Mn1 O5 2.221 . S
Mn1 O7 2.163 . S
Mn1 O9 2.160 1_554 S
Mn1 O19 2.221 1_444 S
O2 Mn3 2.087 1_545 S
O2 C14 1.256 . S
Mn3 O2 2.087 1_565 S
Mn3 O10 2.089 1_565 S
Mn3 O19 2.290 . S
Mn3 O20 2.251 . S
O4 Mn1 2.160 1_565 S
O4 C15 1.239 . S
O5 Mn1 2.221 . S
O5 Mn6 2.290 . S
O5 C16 1.278 . S
Mn6 O5 2.290 . S
Mn6 O8 2.089 1_545 S
Mn6 O11 2.251 . S
Mn6 O12 2.087 . S
O7 Mn1 2.163 . S
O7 C17 1.244 . S
O8 Mn6 2.089 1_565 S
O8 C15 1.256 . S
O9 Mn1 2.160 1_556 S
O9 C18 1.239 . S
O10 Mn3 2.089 1_545 S
O10 C18 1.256 1_655 S
O11 Mn6 2.251 . S
O11 C16 1.241 . S
O12 Mn6 2.087 . S
O12 C17 1.256 . S
C13 O19 1.263 1_554 S
C13 O20 1.237 1_554 S
C14 O0 1.244 1_656 S
C14 O2 1.256 . S
C15 O4 1.239 . S
C15 O8 1.256 . S
C16 O5 1.278 . S
C16 O11 1.241 . S
C17 O7 1.244 . S
C17 O12 1.256 . S
C18 O9 1.239 . S
C18 O10 1.256 1_455 S
O19 Mn1 2.221 1_666 S
O19 Mn3 2.290 . S
O19 C13 1.263 1_556 S
O20 Mn3 2.251 . S
O20 C13 1.237 1_556 S
O21 Mn22 2.163 . S
O21 C35 1.244 . S
Mn22 O21 2.163 . S
Mn22 O25 2.160 . S
Mn22 O26 2.221 . S
Mn22 O28 2.163 . S
Mn22 O30 2.160 . S
Mn22 O40 2.221 . S
O23 Mn24 2.087 . S
O23 C35 1.256 . S
Mn24 O23 2.087 . S
Mn24 O31 2.089 . S
Mn24 O40 2.290 . S
Mn24 O41 2.251 . S
O25 Mn22 2.160 . S
O25 C36 1.239 . S
O26 Mn22 2.221 . S
O26 Mn27 2.290 . S
O26 C37 1.278 . S
Mn27 O26 2.290 . S
Mn27 O29 2.089 . S
Mn27 O32 2.251 . S
Mn27 O33 2.087 . S
O28 Mn22 2.163 . S
O28 C38 1.244 . S
O29 Mn27 2.089 . S
O29 C36 1.256 . S
O30 Mn22 2.160 . S
O30 C39 1.239 . S
O31 Mn24 2.089 . S
O31 C39 1.256 . S
O32 Mn27 2.251 . S
O32 C37 1.241 . S
O33 Mn27 2.087 . S
O33 C38 1.256 . S
C34 O40 1.278 . S
C34 O41 1.241 . S
C35 O21 1.244 . S
C35 O23 1.256 . S
C36 O25 1.239 . S
C36 O29 1.256 . S
C37 O26 1.278 . S
C37 O32 1.241 . S
C38 O28 1.244 . S
C38 O33 1.256 . S
C39 O30 1.239 . S
C39 O31 1.256 . S
O40 Mn22 2.221 . S
O40 Mn24 2.290 . S
O40 C34 1.278 . S
O41 Mn24 2.251 . S
O41 C34 1.241 . S
H42 C47 0.929 . S
H43 C52 0.931 . S
H44 C50 0.930 . S
N45 N46 1.234 1_455 S
N45 C49 1.453 . S
N46 N45 1.234 1_655 S
C47 H42 0.929 . S
C47 C48 1.373 . S
C47 C49 1.368 1_565 S
C48 C47 1.373 . S
C48 C52 1.397 . S
C49 N45 1.453 . S
C49 C47 1.368 1_545 S
C49 C50 1.373 . S
C50 H44 0.930 . S
C50 C49 1.373 . S
C50 C51 1.371 1_545 S
C51 C50 1.371 1_565 S
C51 C52 1.383 . S
C52 H43 0.931 . S
C52 C48 1.397 . S
C52 C51 1.383 . S
H53 C58 0.929 . S
H54 C63 0.931 . S
H55 C61 0.930 . S
N56 N57 1.234 . S
N56 C60 1.453 . S
N57 N56 1.234 . S
C58 H53 0.929 . S
C58 C59 1.373 . S
C58 C60 1.368 1_655 S
C59 C58 1.373 . S
C59 C63 1.397 . S
C60 N56 1.453 . S
C60 C58 1.368 1_455 S
C60 C61 1.373 . S
C61 H55 0.930 . S
C61 C60 1.373 . S
C61 C62 1.371 1_455 S
C62 C61 1.371 1_655 S
C62 C63 1.383 . S
C63 H54 0.931 . S
C63 C59 1.397 . S
C63 C62 1.383 . S
H64 C69 0.929 . S
H65 C74 0.931 . S
H66 C72 0.930 . S
N67 N68 1.234 . S
N67 C71 1.453 . S
N68 N67 1.234 . S
C69 H64 0.929 . S
C69 C70 1.373 . S
C69 C71 1.368 . S
C70 C69 1.373 . S
C70 C74 1.397 . S
C71 N67 1.453 . S
C71 C69 1.368 . S
C71 C72 1.373 . S
C72 H66 0.930 . S
C72 C71 1.373 . S
C72 C73 1.371 . S
C73 C72 1.371 . S
C73 C74 1.383 . S
C74 H65 0.931 . S
C74 C70 1.397 . S
C74 C73 1.383 . S
H75 C80 0.929 . S
H76 C85 0.931 . S
H77 C83 0.930 . S
N78 N79 1.234 . S
N78 C82 1.453 . S
N79 N78 1.234 . S
C80 H75 0.929 . S
C80 C81 1.373 . S
C80 C82 1.368 . S
C81 C80 1.373 . S
C81 C85 1.397 . S
C82 N78 1.453 . S
C82 C80 1.368 . S
C82 C83 1.373 . S
C83 H77 0.930 . S
C83 C82 1.373 . S
C83 C84 1.371 . S
C84 C83 1.371 . S
C84 C85 1.383 . S
C85 H76 0.931 . S
C85 C81 1.397 . S
C85 C84 1.383 . S
C86 C87 1.349 . S
C86 C88 1.327 . S
C86 H111 0.950 . S
C87 C86 1.349 . S
C87 C103 1.349 1_554 S
C88 C86 1.327 . S
C88 C107 1.429 . S
C88 H112 0.950 . S
C89 C106 1.574 . S
C89 C108 1.368 . S
C89 H113 0.949 1_554 S
H90 C94 0.949 . S
C91 C92 1.349 . S
C91 C93 1.327 . S
C91 H114 0.950 . S
C92 C91 1.349 . S
C92 C104 1.349 . S
C93 C91 1.327 . S
C93 C109 1.429 . S
C93 H115 0.950 . S
C94 H90 0.949 . S
C94 C102 1.574 . S
C94 C110 1.368 . S
H95 C103 0.950 . S
H96 C101 0.950 1_556 S
H97 C102 0.949 . S
H98 C104 0.950 . S
H99 C105 0.950 . S
H100 C106 0.959 . S
C101 H96 0.950 1_554 S
C101 C103 1.327 1_554 S
C101 C107 1.429 . S
C102 C94 1.574 . S
C102 H97 0.949 . S
C102 C108 1.368 . S
C103 C87 1.349 1_556 S
C103 H95 0.950 . S
C103 C101 1.327 1_556 S
C104 C92 1.349 . S
C104 H98 0.950 . S
C104 C105 1.327 . S
C105 H99 0.950 . S
C105 C104 1.327 . S
C105 C109 1.429 . S
C106 C89 1.574 . S
C106 H100 0.959 . S
C106 C110 1.368 . S
C107 C88 1.429 . S
C107 C101 1.429 . S
C107 C108 1.523 . S
C108 C89 1.368 . S
C108 C102 1.368 . S
C108 C107 1.523 . S
C109 C93 1.429 . S
C109 C105 1.429 . S
C109 C110 1.523 . S
C110 C94 1.368 . S
C110 C106 1.368 . S
C110 C109 1.523 . S
H111 C86 0.950 . S
H112 C88 0.950 . S
H113 C89 0.949 1_556 S
H114 C91 0.950 . S
H115 C93 0.950 . S
C116 C117 1.349 1_556 S
C116 C118 1.327 . S
C116 H141 0.950 . S
C117 C116 1.349 1_554 S
C117 C133 1.349 . S
C118 C116 1.327 . S
C118 C137 1.429 1_556 S
C118 H142 0.950 . S
C119 C136 1.574 . S
C119 C138 1.368 1_554 S
C119 H143 0.949 . S
H120 C124 0.949 . S
C121 C122 1.349 1_554 S
C121 C123 1.327 . S
C121 H144 0.950 . S
C122 C121 1.349 1_556 S
C122 C134 1.349 . S
C123 C121 1.327 . S
C123 C139 1.429 1_554 S
C123 H145 0.950 . S
C124 H120 0.949 . S
C124 C132 1.574 . S
C124 C140 1.368 . S
H125 C133 0.950 . S
H126 C131 0.950 . S
H127 C132 0.949 . S
H128 C134 0.950 . S
H129 C135 0.950 . S
H130 C136 0.949 . S
C131 H126 0.950 . S
C131 C133 1.327 . S
C131 C137 1.429 . S
C132 C124 1.574 . S
C132 H127 0.949 . S
C132 C138 1.368 . S
C133 C117 1.349 . S
C133 H125 0.950 . S
C133 C131 1.327 . S
C134 C122 1.349 . S
C134 H128 0.950 . S
C134 C135 1.327 . S
C135 H129 0.950 . S
C135 C134 1.327 . S
C135 C139 1.429 . S
C136 C119 1.574 . S
C136 H130 0.949 . S
C136 C140 1.368 1_554 S
C137 C118 1.429 1_554 S
C137 C131 1.429 . S
C137 C138 1.523 1_554 S
C138 C119 1.368 1_556 S
C138 C132 1.368 . S
C138 C137 1.523 1_556 S
C139 C123 1.429 1_556 S
C139 C135 1.429 . S
C139 C140 1.523 . S
C140 C124 1.368 . S
C140 C136 1.368 1_556 S
C140 C139 1.523 . S
H141 C116 0.950 . S
H142 C118 0.950 . S
H143 C119 0.949 . S
H144 C121 0.950 . S
H145 C123 0.950 . S
C146 C147 1.349 1_556 S
C146 C148 1.327 . S
C146 H171 0.950 . S
C147 C146 1.349 1_554 S
C147 C163 1.349 . S
C148 C146 1.327 . S
C148 C167 1.429 1_556 S
C148 H172 0.950 . S
C149 C166 1.574 . S
C149 C168 1.368 . S
C149 H173 0.949 . S
H150 C154 0.949 1_556 S
C151 C152 1.349 . S
C151 C153 1.327 . S
C151 H174 0.950 . S
C152 C151 1.349 . S
C152 C164 1.349 . S
C153 C151 1.327 . S
C153 C169 1.429 . S
C153 H175 0.950 . S
C154 H150 0.949 1_554 S
C154 C162 1.574 . S
C154 C170 1.368 . S
H155 C163 0.950 . S
H156 C161 0.950 . S
H157 C162 0.949 1_556 S
H158 C164 0.950 . S
H159 C165 0.950 1_556 S
H160 C166 0.949 . S
C161 H156 0.950 . S
C161 C163 1.327 . S
C161 C167 1.429 . S
C162 C154 1.574 . S
C162 H157 0.949 1_554 S
C162 C168 1.368 . S
C163 C147 1.349 . S
C163 H155 0.950 . S
C163 C161 1.327 . S
C164 C152 1.349 . S
C164 H158 0.950 . S
C164 C165 1.327 . S
C165 H159 0.950 1_554 S
C165 C164 1.327 . S
C165 C169 1.429 . S
C166 C149 1.574 . S
C166 H160 0.949 . S
C166 C170 1.368 . S
C167 C148 1.429 1_554 S
C167 C161 1.429 . S
C167 C168 1.523 . S
C168 C149 1.368 . S
C168 C162 1.368 . S
C168 C167 1.523 . S
C169 C153 1.429 . S
C169 C165 1.429 . S
C169 C170 1.523 . S
C170 C154 1.368 . S
C170 C166 1.368 . S
C170 C169 1.523 . S
H171 C146 0.950 . S
H172 C148 0.950 . S
H173 C149 0.949 . S
H174 C151 0.950 . S
H175 C153 0.950 . S
C176 C177 1.349 . S
C176 C178 1.327 . S
C176 H201 0.950 . S
C177 C176 1.349 . S
C177 C193 1.349 1_556 S
C178 C176 1.327 . S
C178 C197 1.429 . S
C178 H202 0.950 . S
C179 C196 1.574 . S
C179 C198 1.368 1_554 S
C179 H203 0.949 . S
H180 C184 0.949 . S
C181 C182 1.349 . S
C181 C183 1.327 . S
C181 H204 0.950 1_556 S
C182 C181 1.349 . S
C182 C194 1.349 . S
C183 C181 1.327 . S
C183 C199 1.429 . S
C183 H205 0.950 1_556 S
C184 H180 0.949 . S
C184 C192 1.574 . S
C184 C200 1.368 . S
H185 C193 0.950 . S
H186 C191 0.950 . S
H187 C192 0.949 . S
H188 C194 0.950 . S
H189 C195 0.950 . S
H190 C196 0.949 . S
C191 H186 0.950 . S
C191 C193 1.327 . S
C191 C197 1.429 1_554 S
C192 C184 1.574 . S
C192 H187 0.949 . S
C192 C198 1.368 . S
C193 C177 1.349 1_554 S
C193 H185 0.950 . S
C193 C191 1.327 . S
C194 C182 1.349 . S
C194 H188 0.950 . S
C194 C195 1.327 . S
C195 H189 0.950 . S
C195 C194 1.327 . S
C195 C199 1.429 . S
C196 C179 1.574 . S
C196 H190 0.949 . S
C196 C200 1.368 1_554 S
C197 C178 1.429 . S
C197 C191 1.429 1_556 S
C197 C198 1.523 . S
C198 C179 1.368 1_556 S
C198 C192 1.368 . S
C198 C197 1.523 . S
C199 C183 1.429 . S
C199 C195 1.429 . S
C199 C200 1.523 . S
C200 C184 1.368 . S
C200 C196 1.368 1_556 S
C200 C199 1.523 . S
H201 C176 0.950 . S
H202 C178 0.950 . S
H203 C179 0.949 . S
H204 C181 0.950 1_554 S
H205 C183 0.950 1_554 S
C206 C207 1.349 . S
C206 C208 1.327 . S
C206 H231 0.950 . S
C207 C206 1.349 . S
C207 C223 1.349 . S
C208 C206 1.327 . S
C208 C227 1.429 . S
C208 H232 0.950 . S
C209 C226 1.574 . S
C209 C228 1.368 . S
C209 H233 0.949 . S
H210 C214 0.949 . S
C211 C212 1.349 . S
C211 C213 1.327 . S
C211 H234 0.950 . S
C212 C211 1.349 . S
C212 C224 1.349 . S
C213 C211 1.327 . S
C213 C229 1.429 . S
C213 H235 0.950 . S
C214 H210 0.949 . S
C214 C222 1.574 . S
C214 C230 1.368 . S
H215 C223 0.950 . S
H216 C221 0.950 . S
H217 C222 0.949 . S
H218 C224 0.950 . S
H219 C225 0.950 . S
H220 C226 0.949 . S
C221 H216 0.950 . S
C221 C223 1.327 . S
C221 C227 1.429 . S
C222 C214 1.574 . S
C222 H217 0.949 . S
C222 C228 1.368 . S
C223 C207 1.349 . S
C223 H215 0.950 . S
C223 C221 1.327 . S
C224 C212 1.349 . S
C224 H218 0.950 . S
C224 C225 1.327 . S
C225 H219 0.950 . S
C225 C224 1.327 . S
C225 C229 1.429 . S
C226 C209 1.574 . S
C226 H220 0.949 . S
C226 C230 1.368 . S
C227 C208 1.429 . S
C227 C221 1.429 . S
C227 C228 1.523 . S
C228 C209 1.368 . S
C228 C222 1.368 . S
C228 C227 1.523 . S
C229 C213 1.429 . S
C229 C225 1.429 . S
C229 C230 1.523 . S
C230 C214 1.368 . S
C230 C226 1.368 . S
C230 C229 1.523 . S
H231 C206 0.950 . S
H232 C208 0.950 . S
H233 C209 0.949 . S
H234 C211 0.950 . S
H235 C213 0.950 . S
C236 C237 1.349 . S
C236 C238 1.327 . S
C236 H261 0.950 . S
C237 C236 1.349 . S
C237 C253 1.349 . S
C238 C236 1.327 . S
C238 C257 1.429 . S
C238 H262 0.950 . S
C239 C256 1.574 . S
C239 C258 1.368 . S
C239 H263 0.949 . S
H240 C244 0.949 . S
C241 C242 1.349 . S
C241 C243 1.327 . S
C241 H264 0.950 1_655 S
C242 C241 1.349 . S
C242 C254 1.349 . S
C243 C241 1.327 . S
C243 C259 1.429 . S
C243 H265 0.950 . S
C244 H240 0.949 . S
C244 C252 1.574 . S
C244 C260 1.368 . S
H245 C253 0.950 . S
H246 C251 0.950 . S
H247 C252 0.949 . S
H248 C254 0.950 . S
H249 C255 0.950 . S
H250 C256 0.949 . S
C251 H246 0.950 . S
C251 C253 1.327 . S
C251 C257 1.429 . S
C252 C244 1.574 . S
C252 H247 0.949 . S
C252 C258 1.368 . S
C253 C237 1.349 . S
C253 H245 0.950 . S
C253 C251 1.327 . S
C254 C242 1.349 . S
C254 H248 0.950 . S
C254 C255 1.327 . S
C255 H249 0.950 . S
C255 C254 1.327 . S
C255 C259 1.429 . S
C256 C239 1.574 . S
C256 H250 0.949 . S
C256 C260 1.368 . S
C257 C238 1.429 . S
C257 C251 1.429 . S
C257 C258 1.523 . S
C258 C239 1.368 . S
C258 C252 1.368 . S
C258 C257 1.523 . S
C259 C243 1.429 . S
C259 C255 1.429 . S
C259 C260 1.523 . S
C260 C244 1.368 . S
C260 C256 1.368 . S
C260 C259 1.523 . S
H261 C236 0.950 . S
H262 C238 0.950 . S
H263 C239 0.949 . S
H264 C241 0.950 1_455 S
H265 C243 0.950 . S
C266 C267 1.349 . S
C266 C268 1.327 . S
C266 H291 0.950 . S
C267 C266 1.349 . S
C267 C283 1.349 . S
C268 C266 1.327 . S
C268 C287 1.429 . S
C268 H292 0.950 . S
C269 C286 1.574 . S
C269 C288 1.368 . S
C269 H293 0.949 . S
H270 C274 0.949 . S
C271 C272 1.349 . S
C271 C273 1.327 . S
C271 H294 0.950 . S
C272 C271 1.349 . S
C272 C284 1.349 . S
C273 C271 1.327 . S
C273 C289 1.429 . S
C273 H295 0.950 . S
C274 H270 0.949 . S
C274 C282 1.574 . S
C274 C290 1.368 . S
H275 C283 0.950 . S
H276 C281 0.950 . S
H277 C282 0.949 . S
H278 C284 0.950 . S
H279 C285 0.950 . S
H280 C286 0.949 . S
C281 H276 0.950 . S
C281 C283 1.327 . S
C281 C287 1.429 . S
C282 C274 1.574 . S
C282 H277 0.949 . S
C282 C288 1.368 . S
C283 C267 1.349 . S
C283 H275 0.950 . S
C283 C281 1.327 . S
C284 C272 1.349 . S
C284 H278 0.950 . S
C284 C285 1.327 . S
C285 H279 0.950 . S
C285 C284 1.327 . S
C285 C289 1.429 . S
C286 C269 1.574 . S
C286 H280 0.949 . S
C286 C290 1.368 . S
C287 C268 1.429 . S
C287 C281 1.429 . S
C287 C288 1.523 . S
C288 C269 1.368 . S
C288 C282 1.368 . S
C288 C287 1.523 . S
C289 C273 1.429 . S
C289 C285 1.429 . S
C289 C290 1.523 . S
C290 C274 1.368 . S
C290 C286 1.368 . S
C290 C289 1.523 . S
H291 C266 0.950 . S
H292 C268 0.950 . S
H293 C269 0.949 . S
H294 C271 0.950 . S
H295 C273 0.950 . S
C296 C297 1.349 . S
C296 C298 1.327 . S
C296 H321 0.950 . S
C297 C296 1.349 . S
C297 C313 1.349 . S
C298 C296 1.327 . S
C298 C317 1.429 . S
C298 H322 0.950 . S
C299 C316 1.574 . S
C299 C318 1.368 . S
C299 H323 0.949 . S
H300 C304 0.949 . S
C301 C302 1.349 . S
C301 C303 1.327 . S
C301 H324 0.950 . S
C302 C301 1.349 . S
C302 C314 1.349 . S
C303 C301 1.327 . S
C303 C319 1.429 . S
C303 H325 0.950 . S
C304 H300 0.949 . S
C304 C312 1.574 . S
C304 C320 1.368 . S
H305 C313 0.950 . S
H306 C311 0.950 . S
H307 C312 0.949 . S
H308 C314 0.950 . S
H309 C315 0.950 . S
H310 C316 0.949 . S
C311 H306 0.950 . S
C311 C313 1.327 . S
C311 C317 1.429 . S
C312 C304 1.574 . S
C312 H307 0.949 . S
C312 C318 1.368 . S
C313 C297 1.349 . S
C313 H305 0.950 . S
C313 C311 1.327 . S
C314 C302 1.349 . S
C314 H308 0.950 . S
C314 C315 1.327 . S
C315 H309 0.950 . S
C315 C314 1.327 . S
C315 C319 1.429 . S
C316 C299 1.574 . S
C316 H310 0.949 . S
C316 C320 1.368 . S
C317 C298 1.429 . S
C317 C311 1.429 . S
C317 C318 1.523 . S
C318 C299 1.368 . S
C318 C312 1.368 . S
C318 C317 1.523 . S
C319 C303 1.429 . S
C319 C315 1.429 . S
C319 C320 1.523 . S
C320 C304 1.368 . S
C320 C316 1.368 . S
C320 C319 1.523 . S
H321 C296 0.950 . S
H322 C298 0.950 . S
H323 C299 0.949 . S
H324 C301 0.950 . S
H325 C303 0.950 . S
C326 C327 1.349 . S
C326 C328 1.327 . S
C326 H351 0.950 . S
C327 C326 1.349 . S
C327 C343 1.349 1_545 S
C328 C326 1.327 . S
C328 C347 1.442 . S
C328 H352 0.950 . S
C329 C346 1.574 . S
C329 C348 1.374 . S
C329 H353 0.949 . S
H330 C334 0.949 . S
C331 C332 1.349 . S
C331 C333 1.327 . S
C331 H354 0.950 . S
C332 C331 1.349 . S
C332 C344 1.349 1_565 S
C333 C331 1.327 . S
C333 C349 1.429 . S
C333 H355 0.950 . S
C334 H330 0.949 . S
C334 C342 1.574 . S
C334 C350 1.368 1_545 S
H335 C343 0.950 . S
H336 C341 0.950 . S
H337 C342 0.949 . S
H338 C344 0.950 . S
H339 C345 0.950 . S
H340 C346 0.949 . S
C341 H336 0.950 . S
C341 C343 1.327 . S
C341 C347 1.418 1_565 S
C342 C334 1.574 . S
C342 H337 0.949 . S
C342 C348 1.364 1_545 S
C343 C327 1.349 1_565 S
C343 H335 0.950 . S
C343 C341 1.327 . S
C344 C332 1.349 1_545 S
C344 H338 0.950 . S
C344 C345 1.327 . S
C345 H339 0.950 . S
C345 C344 1.327 . S
C345 C349 1.429 1_545 S
C346 C329 1.574 . S
C346 H340 0.949 . S
C346 C350 1.368 . S
C347 C328 1.442 . S
C347 C341 1.418 1_545 S
C347 C348 1.519 1_545 S
C348 C329 1.374 . S
C348 C342 1.364 1_565 S
C348 C347 1.519 1_565 S
C349 C333 1.429 . S
C349 C345 1.429 1_565 S
C349 C350 1.523 . S
C350 C334 1.368 1_565 S
C350 C346 1.368 . S
C350 C349 1.523 . S
H351 C326 0.950 . S
H352 C328 0.950 . S
H353 C329 0.949 . S
H354 C331 0.950 . S
H355 C333 0.950 . S
C356 C357 1.349 . S
C356 C358 1.327 . S
C356 H381 0.950 . S
C357 C356 1.349 . S
C357 C373 1.349 1_445 S
C358 C356 1.327 . S
C358 C377 1.429 . S
C358 H382 0.950 . S
C359 C376 1.574 . S
C359 C378 1.368 1_655 S
C359 H383 0.949 1_545 S
H360 C364 0.949 . S
C361 C362 1.349 . S
C361 C363 1.327 . S
C361 H384 0.950 . S
C362 C361 1.349 . S
C362 C374 1.349 1_655 S
C363 C361 1.327 . S
C363 C379 1.429 1_655 S
C363 H385 0.950 1_545 S
C364 H360 0.949 . S
C364 C372 1.574 . S
C364 C380 1.368 . S
H365 C373 0.950 . S
H366 C371 0.949 1_565 S
H367 C372 0.949 . S
H368 C374 0.950 . S
H369 C375 0.950 . S
H370 C376 0.949 1_565 S
C371 H366 0.949 1_545 S
C371 C373 1.327 1_545 S
C371 C377 1.430 1_655 S
C372 C364 1.574 . S
C372 H367 0.949 . S
C372 C378 1.368 . S
C373 C357 1.349 1_665 S
C373 H365 0.950 . S
C373 C371 1.327 1_565 S
C374 C362 1.349 1_455 S
C374 H368 0.950 . S
C374 C375 1.327 . S
C375 H369 0.950 . S
C375 C374 1.327 . S
C375 C379 1.429 . S
C376 C359 1.574 . S
C376 H370 0.949 1_545 S
C376 C380 1.368 1_655 S
C377 C358 1.429 . S
C377 C371 1.430 1_455 S
C377 C378 1.523 . S
C378 C359 1.368 1_455 S
C378 C372 1.368 . S
C378 C377 1.523 . S
C379 C363 1.429 1_455 S
C379 C375 1.429 . S
C379 C380 1.523 . S
C380 C364 1.368 . S
C380 C376 1.368 1_455 S
C380 C379 1.523 . S
H381 C356 0.950 . S
H382 C358 0.950 . S
H383 C359 0.949 1_565 S
H384 C361 0.950 . S
H385 C363 0.950 1_565 S
C386 C387 1.349 . S
C386 C388 1.327 . S
C386 H411 0.950 . S
C387 C386 1.349 . S
C387 C403 1.349 . S
C388 C386 1.327 . S
C388 C407 1.429 . S
C388 H412 0.950 . S
C389 C406 1.574 . S
C389 C408 1.368 . S
C389 H413 0.949 . S
H390 C394 0.949 . S
C391 C392 1.349 . S
C391 C393 1.327 . S
C391 H414 0.950 . S
C392 C391 1.349 . S
C392 C404 1.349 . S
C393 C391 1.327 . S
C393 C409 1.429 . S
C393 H415 0.950 . S
C394 H390 0.949 . S
C394 C402 1.574 . S
C394 C410 1.368 . S
H395 C403 0.950 . S
H396 C401 0.950 . S
H397 C402 0.949 . S
H398 C404 0.950 . S
H399 C405 0.950 . S
H400 C406 0.949 . S
C401 H396 0.950 . S
C401 C403 1.327 . S
C401 C407 1.429 . S
C402 C394 1.574 . S
C402 H397 0.949 . S
C402 C408 1.368 . S
C403 C387 1.349 . S
C403 H395 0.950 . S
C403 C401 1.327 . S
C404 C392 1.349 . S
C404 H398 0.950 . S
C404 C405 1.327 . S
C405 H399 0.950 . S
C405 C404 1.327 . S
C405 C409 1.429 . S
C406 C389 1.574 . S
C406 H400 0.949 . S
C406 C410 1.368 . S
C407 C388 1.429 . S
C407 C401 1.429 . S
C407 C408 1.523 . S
C408 C389 1.368 . S
C408 C402 1.368 . S
C408 C407 1.523 . S
C409 C393 1.429 . S
C409 C405 1.429 . S
C409 C410 1.523 . S
C410 C394 1.368 . S
C410 C406 1.368 . S
C410 C409 1.523 . S
H411 C386 0.950 . S
H412 C388 0.950 . S
H413 C389 0.949 . S
H414 C391 0.950 . S
H415 C393 0.950 . S
C416 C417 1.349 . S
C416 C418 1.327 . S
C416 H441 0.950 . S
C417 C416 1.349 . S
C417 C433 1.349 . S
C418 C416 1.327 . S
C418 C437 1.429 . S
C418 H442 0.950 . S
C419 C436 1.574 . S
C419 C438 1.368 . S
C419 H443 0.949 . S
H420 C424 0.949 . S
C421 C422 1.349 . S
C421 C423 1.327 . S
C421 H444 0.950 . S
C422 C421 1.349 . S
C422 C434 1.349 . S
C423 C421 1.327 . S
C423 C439 1.429 . S
C423 H445 0.950 . S
C424 H420 0.949 . S
C424 C432 1.574 . S
C424 C440 1.368 . S
H425 C433 0.950 . S
H426 C431 0.950 . S
H427 C432 0.949 . S
H428 C434 0.950 . S
H429 C435 0.950 . S
H430 C436 0.949 . S
C431 H426 0.950 . S
C431 C433 1.327 . S
C431 C437 1.429 . S
C432 C424 1.574 . S
C432 H427 0.949 . S
C432 C438 1.368 . S
C433 C417 1.349 . S
C433 H425 0.950 . S
C433 C431 1.327 . S
C434 C422 1.349 . S
C434 H428 0.950 . S
C434 C435 1.327 . S
C435 H429 0.950 . S
C435 C434 1.327 . S
C435 C439 1.429 . S
C436 C419 1.574 . S
C436 H430 0.949 . S
C436 C440 1.368 . S
C437 C418 1.429 . S
C437 C431 1.429 . S
C437 C438 1.523 . S
C438 C419 1.368 . S
C438 C432 1.368 . S
C438 C437 1.523 . S
C439 C423 1.429 . S
C439 C435 1.429 . S
C439 C440 1.523 . S
C440 C424 1.368 . S
C440 C436 1.368 . S
C440 C439 1.523 . S
H441 C416 0.950 . S
H442 C418 0.950 . S
H443 C419 0.949 . S
H444 C421 0.950 . S
H445 C423 0.950 . S
C92 C81 1.432 . S
C87 C16 1.282 . S
C117 C15 1.386 . S
C122 N68 1.363 . S
C147 C13 1.270 . S
C152 N79 1.395 . S
C177 C14 1.403 . S
C182 C70 1.438 . S
C207 C37 1.282 . S
C212 C59 1.431 1_565 S
C237 C36 1.386 . S
C242 N46 1.363 . S
C272 N57 1.395 . S
C267 C34 1.254 . S
C302 C48 1.438 . S
C297 C35 1.403 . S
C327 C17 1.579 . S
C332 C51 1.618 . S
C357 C18 1.382 . S
C362 C62 1.407 . S
C392 C73 1.618 . S
C387 C38 1.579 . S
C417 C39 1.382 . S
C422 C84 1.407 . S
