# Generated by pormake.
# Topology pth, (4,4)-cn, num edge types: 1
# Building blocks:
#     Node 0, Type 0, BuildingBlock: TATPOV_clean_sbu_0, # of connection points: 4
#     Node 1, Type 0, BuildingBlock: TATPOV_clean_sbu_0, # of connection points: 4
#     Node 2, Type 0, BuildingBlock: TATPOV_clean_sbu_0, # of connection points: 4
#     Node 3, Type 1, BuildingBlock: NAHDIM_clean_linker_0, # of connection points: 4
#     Node 4, Type 1, BuildingBlock: NAHDIM_clean_linker_0, # of connection points: 4
#     Node 5, Type 1, BuildingBlock: NAHDIM_clean_linker_0, # of connection points: 4
#     Edge 6, Type (0, 1), BuildingBlock: MIFKUJ_clean_linker_0, # of connection points: 2
#     Edge 7, Type (0, 1), BuildingBlock: MIFKUJ_clean_linker_0, # of connection points: 2
#     Edge 8, Type (0, 1), BuildingBlock: MIFKUJ_clean_linker_0, # of connection points: 2
#     Edge 9, Type (0, 1), BuildingBlock: MIFKUJ_clean_linker_0, # of connection points: 2
#     Edge 10, Type (0, 1), BuildingBlock: MIFKUJ_clean_linker_0, # of connection points: 2
#     Edge 11, Type (0, 1), BuildingBlock: MIFKUJ_clean_linker_0, # of connection points: 2
#     Edge 12, Type (0, 1), BuildingBlock: MIFKUJ_clean_linker_0, # of connection points: 2
#     Edge 13, Type (0, 1), BuildingBlock: MIFKUJ_clean_linker_0, # of connection points: 2
#     Edge 14, Type (0, 1), BuildingBlock: MIFKUJ_clean_linker_0, # of connection points: 2
#     Edge 15, Type (0, 1), BuildingBlock: MIFKUJ_clean_linker_0, # of connection points: 2
#     Edge 16, Type (0, 1), BuildingBlock: MIFKUJ_clean_linker_0, # of connection points: 2
#     Edge 17, Type (0, 1), BuildingBlock: MIFKUJ_clean_linker_0, # of connection points: 2
# Relax obj value: 0.053
# Max RMSD: 0.173
# Mean RMSD: 0.111
data_MOF--net-pth--node1-TATPOV_clean_sbu_0--node2-NAHDIM_clean_linker_0--edge1-MIFKUJ_clean_linker_0
_symmetry_space_group_name_H-M    P1
_symmetry_Int_Tables_number       1
_symmetry_cell_setting            triclinic
loop_
_symmetry_equiv_pos_as_xyz
'x, y, z'
_cell_length_a     38.823101
_cell_length_b     38.433188
_cell_length_c     96.021064
_cell_angle_alpha  92.152625
_cell_angle_beta   92.541423
_cell_angle_gamma 121.07441
loop_
_atom_site_label
_atom_site_type_symbol
_atom_site_fract_x
_atom_site_fract_y
_atom_site_fract_z
_atom_type_partial_charge
Zn0 Zn 0.12184 0.04318 0.04217 0.0
Zn1 Zn 0.08676 0.07915 0.05478 0.0
O2 O 0.09861 0.05148 0.07061 0.0
O3 O 0.12825 0.02253 0.06054 0.0
O4 O 0.06952 0.11367 0.06509 0.0
O5 O 0.16682 0.09554 0.03578 0.0
O6 O 0.13425 0.123 0.0446 0.0
C7 C 0.11477 0.02992 0.07131 0.0
C8 C 0.03746 0.01195 0.0323 0.0
O9 O 0.03857 0.03675 0.04177 0.0
O10 O 0.06876 0.01048 0.03022 0.0
C11 C 0.04628 0.10186 0.07503 0.0
O12 O 0.02935 0.06381 0.07825 0.0
C13 C 0.16333 0.12619 0.03794 0.0
Zn14 Zn 0.13695 0.12553 0.37757 0.0
Zn15 Zn 0.07619 0.10679 0.3945 0.0
O16 O 0.12306 0.11707 0.4081 0.0
O17 O 0.17203 0.1297 0.39457 0.0
O18 O 0.03322 0.0999 0.40709 0.0
O19 O 0.13559 0.17432 0.37119 0.0
O20 O 0.08309 0.15443 0.3836 0.0
C21 C 0.15876 0.12493 0.40661 0.0
C22 C 0.06546 0.04443 0.3717 0.0
O23 O 0.05255 0.05327 0.38242 0.0
O24 O 0.0992 0.07022 0.36739 0.0
C25 C 0.00245 0.06646 0.40981 0.0
O26 O 0.9971 0.032 0.40435 0.0
C27 C 0.10714 0.17846 0.37513 0.0
Zn28 Zn 0.07363 0.98241 0.74546 0.0
Zn29 Zn 0.03192 0.01021 0.73168 0.0
O30 O 0.06222 0.99884 0.7166 0.0
O31 O 0.09425 0.97368 0.72783 0.0
O32 O 0.99857 0.02621 0.7199 0.0
O33 O 0.02235 0.93626 0.75176 0.0
O34 O 0.9884 0.96068 0.74127 0.0
C35 C 0.08515 0.98418 0.71659 0.0
C36 C 0.09725 0.06542 0.75434 0.0
O37 O 0.0694 0.05971 0.74531 0.0
O38 O 0.1047 0.03744 0.75627 0.0
C39 C 0.99129 0.05424 0.72281 0.0
O40 O 0.00673 0.07673 0.73462 0.0
C41 C 0.98933 0.93417 0.7486 0.0
C42 C 0.88929 0.68192 0.27178 0.0
C43 C 0.92418 0.689 0.28201 0.0
C44 C 0.97177 0.67804 0.26929 0.0
C45 C 0.01253 0.69638 0.2668 0.0
C46 C 0.02816 0.67345 0.26129 0.0
C47 C 0.00186 0.63136 0.25765 0.0
C48 C 0.96027 0.61286 0.25971 0.0
C49 C 0.94577 0.63623 0.26569 0.0
C50 C 0.07283 0.69401 0.25962 0.0
C51 C 0.93109 0.56813 0.25588 0.0
C52 C 0.01713 0.39382 0.31095 0.0
C53 C 0.004 0.4158 0.3018 0.0
C54 C 0.0341 0.47729 0.28895 0.0
C55 C 0.9995 0.46458 0.27995 0.0
C56 C 0.99956 0.48915 0.26953 0.0
C57 C 0.03478 0.52734 0.26815 0.0
C58 C 0.06969 0.54019 0.27713 0.0
C59 C 0.06887 0.51487 0.28742 0.0
C60 C 0.96188 0.4744 0.26003 0.0
C61 C 0.10769 0.58072 0.27588 0.0
C62 C 0.09411 0.45469 0.18578 0.0
C63 C 0.05331 0.44178 0.18682 0.0
C64 C 0.042 0.46914 0.19169 0.0
C65 C 0.0721 0.51018 0.19551 0.0
C66 C 0.11313 0.52344 0.19412 0.0
C67 C 0.12353 0.49553 0.18912 0.0
C68 C 0.9979 0.45427 0.19272 0.0
C69 C 0.14598 0.56701 0.198 0.0
C70 C 0.96881 0.65423 0.13911 0.0
C71 C 0.995 0.68793 0.15057 0.0
C72 C 0.03053 0.66226 0.16481 0.0
C73 C 0.99643 0.63003 0.17024 0.0
C74 C 0.00053 0.60578 0.17996 0.0
C75 C 0.03959 0.61525 0.18487 0.0
C76 C 0.07395 0.64807 0.17955 0.0
C77 C 0.06884 0.67065 0.16941 0.0
C78 C 0.96303 0.57007 0.18495 0.0
C79 C 0.11611 0.65937 0.18454 0.0
C80 C 0.01789 0.60596 0.25248 0.0
C81 C 0.02264 0.58182 0.26196 0.0
C82 C 0.03425 0.55448 0.25771 0.0
C83 C 0.04211 0.55135 0.24364 0.0
C84 C 0.05389 0.52411 0.23903 0.0
C85 C 0.06033 0.52036 0.22506 0.0
C86 C 0.05514 0.54362 0.21515 0.0
C87 C 0.06067 0.53934 0.20087 0.0
C88 C 0.05519 0.56291 0.19131 0.0
C89 C 0.04461 0.59111 0.19561 0.0
C90 C 0.03899 0.59588 0.20986 0.0
C91 C 0.0284 0.624 0.21458 0.0
C92 C 0.02119 0.62719 0.22849 0.0
C93 C 0.0256 0.60336 0.23833 0.0
C94 C 0.03755 0.57575 0.2339 0.0
C95 C 0.04399 0.57182 0.21963 0.0
C96 C 0.11973 0.38518 0.19394 0.0
C97 C 0.08959 0.38864 0.18418 0.0
O98 O 0.95889 0.70177 0.27507 0.0
O99 O 0.02815 0.68556 0.15497 0.0
O100 O 0.10614 0.42904 0.1812 0.0
O101 O 0.03519 0.4542 0.29912 0.0
H102 H 0.9154 0.66 0.2869 0.0
H103 H 0.88192 0.65722 0.26371 0.0
H104 H 0.89723 0.70988 0.26637 0.0
H105 H 0.86188 0.67287 0.27747 0.0
H106 H 0.03235 0.72868 0.26958 0.0
H107 H 0.91411 0.62156 0.26746 0.0
H108 H 0.08527 0.67715 0.26487 0.0
H109 H 0.08963 0.72614 0.26404 0.0
H110 H 0.07811 0.69361 0.24837 0.0
H111 H 0.89924 0.56041 0.25536 0.0
H112 H 0.9349 0.55017 0.26393 0.0
H113 H 0.9372 0.55875 0.24565 0.0
H114 H 0.97645 0.41563 0.30476 0.0
H115 H 0.00106 0.39011 0.32077 0.0
H116 H 0.04771 0.4174 0.31595 0.0
H117 H 0.00762 0.34406 0.29793 0.0
H118 H 0.97228 0.43561 0.28102 0.0
H119 H 0.09542 0.52436 0.29439 0.0
H120 H 0.96865 0.47301 0.24898 0.0
H121 H 0.95138 0.49623 0.26107 0.0
H122 H 0.93703 0.44381 0.26241 0.0
H123 H 0.13285 0.58554 0.28328 0.0
H124 H 0.10169 0.60565 0.27797 0.0
H125 H 0.11721 0.58277 0.26505 0.0
H126 H 0.06171 0.37774 0.18979 0.0
H127 H 0.03021 0.41063 0.18363 0.0
H128 H 0.15488 0.50532 0.18804 0.0
H129 H 0.99226 0.45776 0.20377 0.0
H130 H 0.97806 0.42182 0.18886 0.0
H131 H 0.98955 0.4731 0.18658 0.0
H132 H 0.17658 0.57208 0.19689 0.0
H133 H 0.14398 0.57566 0.20897 0.0
H134 H 0.14179 0.58748 0.19121 0.0
H135 H 0.97664 0.68476 0.15955 0.0
H136 H 0.94277 0.65687 0.13542 0.0
H137 H 0.95682 0.62368 0.14311 0.0
H138 H 0.98659 0.65633 0.13009 0.0
H139 H 0.96652 0.62316 0.16684 0.0
H140 H 0.09494 0.6955 0.16513 0.0
H141 H 0.95824 0.57806 0.19561 0.0
H142 H 0.96628 0.54307 0.18545 0.0
H143 H 0.93575 0.56165 0.17803 0.0
H144 H 0.13937 0.68922 0.181 0.0
H145 H 0.12198 0.63572 0.18039 0.0
H146 H 0.11932 0.66061 0.19613 0.0
H147 H 0.01601 0.58345 0.27275 0.0
H148 H 0.05807 0.50526 0.24619 0.0
H149 H 0.06918 0.49877 0.2221 0.0
H150 H 0.05927 0.55928 0.18035 0.0
H151 H 0.02501 0.64354 0.20753 0.0
H152 H 0.01224 0.64869 0.23145 0.0
H153 H 0.1071 0.35313 0.19662 0.0
H154 H 0.12623 0.40436 0.20378 0.0
H155 H 0.14849 0.39566 0.18896 0.0
C156 C 0.32064 0.97108 0.59839 0.0
C157 C 0.34023 0.98639 0.6133 0.0
C158 C 0.41112 0.03544 0.60927 0.0
C159 C 0.43976 0.0768 0.60871 0.0
C160 C 0.47748 0.08968 0.60354 0.0
C161 C 0.48675 0.06031 0.5989 0.0
C162 C 0.45881 0.01847 0.60013 0.0
C163 C 0.42124 0.00642 0.60524 0.0
C164 C 0.50671 0.13451 0.60242 0.0
C165 C 0.46803 0.98635 0.59549 0.0
C166 C 0.75918 0.06974 0.63632 0.0
C167 C 0.72836 0.06229 0.62492 0.0
C168 C 0.69095 0.09232 0.61543 0.0
C169 C 0.66165 0.05647 0.60764 0.0
C170 C 0.62951 0.05503 0.59984 0.0
C171 C 0.62679 0.09035 0.59959 0.0
C172 C 0.65634 0.1266 0.60729 0.0
C173 C 0.68802 0.12705 0.61515 0.0
C174 C 0.59832 0.01557 0.5919 0.0
C175 C 0.65442 0.16478 0.60718 0.0
C176 C 0.67621 0.07594 0.51091 0.0
C177 C 0.64911 0.04257 0.5182 0.0
C178 C 0.61771 0.04265 0.52482 0.0
C179 C 0.61369 0.07719 0.52447 0.0
C180 C 0.64043 0.11059 0.517 0.0
C181 C 0.67118 0.10936 0.51022 0.0
C182 C 0.5892 0.00588 0.53239 0.0
C183 C 0.63692 0.1478 0.5164 0.0
C184 C 0.28622 0.96101 0.519 0.0
C185 C 0.32472 0.99888 0.5151 0.0
C186 C 0.39104 0.0067 0.51403 0.0
C187 C 0.4088 0.98327 0.51534 0.0
C188 C 0.44913 0.00099 0.52048 0.0
C189 C 0.47252 0.04352 0.52393 0.0
C190 C 0.45565 0.06793 0.52135 0.0
C191 C 0.41482 0.04916 0.51659 0.0
C192 C 0.46607 0.9739 0.52283 0.0
C193 C 0.48016 0.11352 0.52431 0.0
C194 C 0.52308 0.07264 0.59112 0.0
C195 C 0.55866 0.08079 0.59846 0.0
C196 C 0.59252 0.08872 0.59141 0.0
C197 C 0.59134 0.08973 0.57668 0.0
C198 C 0.62502 0.09834 0.56929 0.0
C199 C 0.62248 0.09596 0.55474 0.0
C200 C 0.58609 0.08462 0.54703 0.0
C201 C 0.58209 0.07835 0.53228 0.0
C202 C 0.54554 0.06739 0.52493 0.0
C203 C 0.51223 0.06115 0.53197 0.0
C204 C 0.51553 0.06657 0.54674 0.0
C205 C 0.48229 0.05931 0.55419 0.0
C206 C 0.48509 0.06256 0.56868 0.0
C207 C 0.521 0.07238 0.57638 0.0
C208 C 0.55516 0.08074 0.56913 0.0
C209 C 0.55249 0.07806 0.55428 0.0
C210 C 0.74427 0.05746 0.51969 0.0
C211 C 0.72079 0.05012 0.50554 0.0
O212 O 0.37415 0.02511 0.61344 0.0
O213 O 0.35085 0.98721 0.51048 0.0
O214 O 0.70756 0.07735 0.50454 0.0
O215 O 0.72198 0.09435 0.62338 0.0
H216 H 0.34879 0.96494 0.61735 0.0
H217 H 0.3414 0.96784 0.59162 0.0
H218 H 0.31322 0.99269 0.59375 0.0
H219 H 0.29257 0.94077 0.59843 0.0
H220 H 0.43194 0.09902 0.61195 0.0
H221 H 0.39986 0.97427 0.60573 0.0
H222 H 0.5368 0.14326 0.60733 0.0
H223 H 0.49641 0.1537 0.60748 0.0
H224 H 0.51032 0.14093 0.59123 0.0
H225 H 0.4445 0.95539 0.5981 0.0
H226 H 0.49752 0.9936 0.6005 0.0
H227 H 0.47035 0.98612 0.584 0.0
H228 H 0.73154 0.04957 0.61475 0.0
H229 H 0.72571 0.02691 0.65063 0.0
H230 H 0.7768 0.10358 0.63912 0.0
H231 H 0.78423 0.06963 0.63088 0.0
H232 H 0.66344 0.0293 0.60766 0.0
H233 H 0.71068 0.1546 0.62115 0.0
H234 H 0.60055 0.01916 0.5805 0.0
H235 H 0.56751 0.00769 0.59431 0.0
H236 H 0.6023 0.9898 0.59439 0.0
H237 H 0.68108 0.19122 0.61297 0.0
H238 H 0.62679 0.15951 0.612 0.0
H239 H 0.65241 0.17236 0.59624 0.0
H240 H 0.69451 0.01839 0.50447 0.0
H241 H 0.65213 0.01627 0.5189 0.0
H242 H 0.69201 0.13492 0.50455 0.0
H243 H 0.59611 0.0132 0.54383 0.0
H244 H 0.59185 0.97907 0.52961 0.0
H245 H 0.5575 0.99744 0.52996 0.0
H246 H 0.66121 0.17204 0.51069 0.0
H247 H 0.63818 0.16025 0.52716 0.0
H248 H 0.6073 0.13921 0.51111 0.0
H249 H 0.33825 0.01964 0.52478 0.0
H250 H 0.26498 0.96945 0.52309 0.0
H251 H 0.29371 0.94601 0.52726 0.0
H252 H 0.27114 0.93892 0.50975 0.0
H253 H 0.39027 0.95062 0.51302 0.0
H254 H 0.40142 0.06757 0.51505 0.0
H255 H 0.47789 0.97799 0.5339 0.0
H256 H 0.49159 0.98261 0.51618 0.0
H257 H 0.44321 0.94117 0.52031 0.0
H258 H 0.46559 0.12868 0.51922 0.0
H259 H 0.51086 0.12616 0.52064 0.0
H260 H 0.48345 0.12092 0.53575 0.0
H261 H 0.5594 0.07914 0.60971 0.0
H262 H 0.65354 0.10642 0.57468 0.0
H263 H 0.64921 0.10236 0.5496 0.0
H264 H 0.54232 0.06147 0.51367 0.0
H265 H 0.45342 0.0505 0.54894 0.0
H266 H 0.45833 0.05635 0.57376 0.0
H267 H 0.7554 0.03608 0.5204 0.0
H268 H 0.72456 0.05237 0.52836 0.0
H269 H 0.77041 0.08923 0.52109 0.0
C270 C 0.78344 0.61242 0.84036 0.0
C271 C 0.75107 0.6211 0.83504 0.0
C272 C 0.70187 0.61018 0.85222 0.0
C273 C 0.68678 0.63097 0.85947 0.0
C274 C 0.64993 0.60994 0.86557 0.0
C275 C 0.62824 0.56682 0.86473 0.0
C276 C 0.64392 0.54548 0.85776 0.0
C277 C 0.68066 0.56741 0.85153 0.0
C278 C 0.63401 0.63389 0.87274 0.0
C279 C 0.62183 0.49958 0.85689 0.0
C280 C 0.39496 0.49174 0.79977 0.0
C281 C 0.39682 0.46437 0.81057 0.0
C282 C 0.42278 0.48556 0.83484 0.0
C283 C 0.43542 0.4579 0.8372 0.0
C284 C 0.4644 0.46593 0.8481 0.0
C285 C 0.4814 0.5026 0.85668 0.0
C286 C 0.46773 0.52993 0.85455 0.0
C287 C 0.43788 0.52051 0.84382 0.0
C288 C 0.47763 0.43572 0.85022 0.0
C289 C 0.4857 0.56982 0.86323 0.0
C290 C 0.39156 0.48432 0.94243 0.0
C291 C 0.39898 0.45319 0.93868 0.0
C292 C 0.43588 0.46249 0.93353 0.0
C293 C 0.46538 0.50356 0.93176 0.0
C294 C 0.45808 0.53492 0.9357 0.0
C295 C 0.42144 0.52483 0.94118 0.0
C296 C 0.44326 0.42844 0.92989 0.0
C297 C 0.48877 0.57908 0.93395 0.0
C298 C 0.78172 0.62159 0.96683 0.0
C299 C 0.75467 0.63803 0.96253 0.0
C300 C 0.68215 0.59578 0.95773 0.0
C301 C 0.65444 0.55395 0.95709 0.0
C302 C 0.61986 0.5361 0.94778 0.0
C303 C 0.61216 0.56114 0.93934 0.0
C304 C 0.63917 0.60396 0.94056 0.0
C305 C 0.67435 0.62071 0.94956 0.0
C306 C 0.59194 0.49044 0.94682 0.0
C307 C 0.63113 0.63214 0.93238 0.0
C308 C 0.58858 0.54442 0.87079 0.0
C309 C 0.55405 0.5305 0.86182 0.0
C310 C 0.51597 0.51412 0.86696 0.0
C311 C 0.51214 0.51181 0.88153 0.0
C312 C 0.47456 0.49672 0.88714 0.0
C313 C 0.4716 0.49722 0.90153 0.0
C314 C 0.50597 0.51186 0.91087 0.0
C315 C 0.50356 0.51397 0.92551 0.0
C316 C 0.53844 0.52927 0.93446 0.0
C317 C 0.57602 0.54264 0.92923 0.0
C318 C 0.57895 0.54032 0.91462 0.0
C319 C 0.61609 0.55284 0.90897 0.0
C320 C 0.61923 0.5535 0.8946 0.0
C321 C 0.58522 0.54108 0.88533 0.0
C322 C 0.547 0.52569 0.89075 0.0
C323 C 0.5439 0.52553 0.90543 0.0
C324 C 0.286 0.45008 0.94651 0.0
C325 C 0.31953 0.44052 0.94565 0.0
O326 O 0.73724 0.63272 0.8463 0.0
O327 O 0.7161 0.61144 0.96638 0.0
O328 O 0.35635 0.47676 0.94744 0.0
O329 O 0.39679 0.47983 0.82383 0.0
H330 H 0.72597 0.59319 0.82923 0.0
H331 H 0.77074 0.58802 0.84778 0.0
H332 H 0.80943 0.64023 0.84585 0.0
H333 H 0.79428 0.60203 0.83154 0.0
H334 H 0.70369 0.66398 0.86005 0.0
H335 H 0.69282 0.55106 0.84632 0.0
H336 H 0.60228 0.62215 0.86885 0.0
H337 H 0.65224 0.6669 0.87108 0.0
H338 H 0.6344 0.63026 0.88415 0.0
H339 H 0.63975 0.48764 0.85226 0.0
H340 H 0.59304 0.4871 0.85038 0.0
H341 H 0.61426 0.48837 0.86747 0.0
H342 H 0.42577 0.46539 0.80935 0.0
H343 H 0.39469 0.47972 0.78904 0.0
H344 H 0.4219 0.52292 0.80156 0.0
H345 H 0.36758 0.49377 0.80059 0.0
H346 H 0.42286 0.43021 0.83046 0.0
H347 H 0.42756 0.54142 0.84196 0.0
H348 H 0.47837 0.43015 0.86147 0.0
H349 H 0.50865 0.44849 0.84685 0.0
H350 H 0.45745 0.4062 0.84414 0.0
H351 H 0.47473 0.58946 0.85928 0.0
H352 H 0.51911 0.58676 0.86331 0.0
H353 H 0.47769 0.56385 0.87419 0.0
H354 H 0.31604 0.42604 0.93499 0.0
H355 H 0.37631 0.42172 0.93986 0.0
H356 H 0.41553 0.54858 0.94424 0.0
H357 H 0.44408 0.42516 0.9184 0.0
H358 H 0.41945 0.39883 0.93341 0.0
H359 H 0.47297 0.43575 0.93474 0.0
H360 H 0.47706 0.59939 0.93641 0.0
H361 H 0.49798 0.58298 0.92306 0.0
H362 H 0.51614 0.58884 0.94099 0.0
H363 H 0.7545 0.63929 0.95093 0.0
H364 H 0.81265 0.64145 0.96347 0.0
H365 H 0.76928 0.59053 0.96178 0.0
H366 H 0.78344 0.61997 0.97836 0.0
H367 H 0.66072 0.53514 0.9636 0.0
H368 H 0.69552 0.65329 0.95037 0.0
H369 H 0.58536 0.47825 0.93573 0.0
H370 H 0.56291 0.48277 0.95108 0.0
H371 H 0.60482 0.47499 0.95276 0.0
H372 H 0.64954 0.66417 0.93683 0.0
H373 H 0.59876 0.62252 0.93215 0.0
H374 H 0.63881 0.63115 0.92143 0.0
H375 H 0.55703 0.5338 0.85068 0.0
H376 H 0.44714 0.48517 0.88046 0.0
H377 H 0.44201 0.48622 0.90524 0.0
H378 H 0.53645 0.53175 0.94565 0.0
H379 H 0.64334 0.56301 0.9156 0.0
H380 H 0.64872 0.56425 0.89083 0.0
H381 H 0.28787 0.4646 0.95697 0.0
H382 H 0.25592 0.42181 0.94457 0.0
H383 H 0.28897 0.47129 0.93845 0.0
H384 H 0.08623 0.18443 0.0734 0.0
H385 H 0.08827 0.23501 0.09013 0.0
H386 H 0.00212 0.13911 0.11394 0.0
H387 H -0.0001 0.08806 0.09725 0.0
H388 H 0.9895 0.20594 0.11171 0.0
H389 H 0.09652 0.18073 0.12417 0.0
H390 H 0.1556 0.17532 0.11952 0.0
H391 H 0.22109 0.30049 0.10962 0.0
H392 H 0.16213 0.30646 0.11404 0.0
H393 H 0.02814 0.3097 0.17858 0.0
H394 H 0.01622 0.26354 0.15825 0.0
H395 H 0.11832 0.36047 0.13975 0.0
H396 H 0.13108 0.40629 0.16028 0.0
H397 H 0.12214 0.29522 0.13802 0.0
H398 H 0.01869 0.32352 0.12688 0.0
H399 H 0.96013 0.33043 0.13086 0.0
H400 H 0.88854 0.20293 0.13728 0.0
H401 H 0.94686 0.19534 0.13354 0.0
C402 C 0.0672 0.17395 0.08206 0.0
C403 C 0.04319 0.13214 0.08406 0.0
C404 C 0.06848 0.20297 0.09163 0.0
C405 C 0.04572 0.19078 0.10335 0.0
C406 C 0.01996 0.1491 0.10496 0.0
C407 C 0.01884 0.11999 0.09544 0.0
C408 C 0.05125 0.22147 0.11445 0.0
C409 C 0.01834 0.22527 0.11757 0.0
C410 C 0.0892 0.24736 0.12181 0.0
C411 C 0.12479 0.24391 0.11929 0.0
C412 C 0.12341 0.20701 0.1209 0.0
C413 C 0.15689 0.20385 0.11832 0.0
C414 C 0.19204 0.23751 0.11424 0.0
C415 C 0.19382 0.27443 0.11277 0.0
C416 C 0.16039 0.27772 0.11531 0.0
C417 C 0.04755 0.32129 0.17004 0.0
C418 C 0.07995 0.36183 0.17088 0.0
C419 C 0.04067 0.29495 0.15841 0.0
C420 C 0.06594 0.30866 0.14733 0.0
C421 C 0.09822 0.34924 0.14811 0.0
C422 C 0.10531 0.3755 0.1598 0.0
C423 C 0.06032 0.27995 0.13539 0.0
C424 C 0.09327 0.27631 0.13212 0.0
C425 C 0.02249 0.25457 0.12782 0.0
C426 C 0.98728 0.25894 0.13005 0.0
C427 C 0.99055 0.29701 0.12925 0.0
C428 C 0.95738 0.30104 0.13145 0.0
C429 C 0.92067 0.26716 0.13436 0.0
C430 C 0.91702 0.22915 0.13504 0.0
C431 C 0.95011 0.22496 0.13287 0.0
H432 H 0.89502 0.27034 0.13605 0.0
H433 H 0.21793 0.23501 0.11225 0.0
H434 H 0.93352 0.00101 0.41807 0.0
H435 H 0.88471 0.00197 0.43308 0.0
H436 H 0.95484 0.13331 0.43691 0.0
H437 H 0.00406 0.13264 0.42211 0.0
H438 H 0.93236 0.10422 0.46167 0.0
H439 H 0.86684 0.08248 0.41622 0.0
H440 H 0.8395 0.0495 0.39256 0.0
H441 H 0.75771 0.93703 0.41005 0.0
H442 H 0.78497 0.96918 0.43383 0.0
H443 H 0.78102 0.12079 0.49542 0.0
H444 H 0.82772 0.12738 0.47786 0.0
H445 H 0.76875 0.99651 0.47254 0.0
H446 H 0.72189 0.98982 0.48989 0.0
H447 H 0.78579 0.0305 0.44762 0.0
H448 H 0.85544 0.05247 0.49311 0.0
H449 H 0.88264 0.08661 0.51665 0.0
H450 H 0.95684 0.20055 0.49868 0.0
H451 H 0.92961 0.16717 0.47502 0.0
C452 C 0.93855 0.0301 0.42209 0.0
C453 C 0.9727 0.06673 0.41888 0.0
C454 C 0.9105 0.03062 0.43061 0.0
C455 C 0.91587 0.06775 0.43598 0.0
C456 C 0.95004 0.10432 0.43286 0.0
C457 C 0.97812 0.10384 0.42438 0.0
C458 C 0.8864 0.0684 0.44516 0.0
C459 C 0.90039 0.08866 0.45851 0.0
C460 C 0.84461 0.04766 0.4411 0.0
C461 C 0.82823 0.02816 0.42681 0.0
C462 C 0.84327 0.05061 0.41502 0.0
C463 C 0.82774 0.03208 0.40159 0.0
C464 C 0.79696 0.99116 0.3998 0.0
C465 C 0.7816 0.96871 0.41145 0.0
C466 C 0.79705 0.98708 0.42491 0.0
C467 C 0.77769 0.0935 0.49031 0.0
C468 C 0.74746 0.05477 0.49386 0.0
C469 C 0.80448 0.09727 0.48037 0.0
C470 C 0.80182 0.06241 0.47396 0.0
C471 C 0.7712 0.02379 0.47729 0.0
C472 C 0.74447 0.02001 0.48721 0.0
C473 C 0.83174 0.06581 0.46417 0.0
C474 C 0.81782 0.04633 0.45072 0.0
C475 C 0.87362 0.08741 0.4681 0.0
C476 C 0.89016 0.10742 0.48231 0.0
C477 C 0.87732 0.08486 0.49418 0.0
C478 C 0.89278 0.10407 0.50755 0.0
C479 C 0.92137 0.14575 0.50916 0.0
C480 C 0.93464 0.16829 0.49741 0.0
C481 C 0.91922 0.14924 0.48403 0.0
H482 H 0.93331 0.16056 0.51952 0.0
H483 H 0.78496 0.97688 0.38939 0.0
H484 H 0.96586 0.85465 0.7483 0.0
H485 H 0.91152 0.80184 0.76079 0.0
H486 H 0.87757 0.88746 0.77442 0.0
H487 H 0.93103 0.94017 0.76135 0.0
H488 H 0.91005 0.84322 0.79521 0.0
H489 H 0.80918 0.82632 0.76013 0.0
H490 H 0.77887 0.8155 0.73607 0.0
H491 H 0.77259 0.70083 0.73109 0.0
H492 H 0.80352 0.71128 0.75505 0.0
H493 H 0.77544 0.70291 0.83964 0.0
H494 H 0.80393 0.75596 0.82331 0.0
H495 H 0.797 0.6694 0.79164 0.0
H496 H 0.76602 0.61524 0.80779 0.0
H497 H 0.7791 0.71872 0.77982 0.0
H498 H 0.88576 0.73626 0.81207 0.0
H499 H 0.92076 0.745 0.83517 0.0
H500 H 0.92227 0.85599 0.84441 0.0
H501 H 0.88677 0.8476 0.82142 0.0
C502 C 0.94596 0.86178 0.7536 0.0
C503 C 0.95241 0.90125 0.75392 0.0
C504 C 0.91495 0.83165 0.76066 0.0
C505 C 0.89057 0.84085 0.76841 0.0
C506 C 0.89585 0.87982 0.76831 0.0
C507 C 0.92625 0.90976 0.76088 0.0
C508 C 0.86455 0.81162 0.77827 0.0
C509 C 0.88086 0.81647 0.792 0.0
C510 C 0.82748 0.77614 0.77379 0.0
C511 C 0.80912 0.76984 0.75934 0.0
C512 C 0.80183 0.79904 0.75385 0.0
C513 C 0.7844 0.79291 0.74024 0.0
C514 C 0.77393 0.75756 0.73204 0.0
C515 C 0.78078 0.72823 0.73744 0.0
C516 C 0.79823 0.73423 0.75104 0.0
C517 C 0.77931 0.69481 0.82915 0.0
C518 C 0.76812 0.65458 0.82497 0.0
C519 C 0.79594 0.72538 0.81983 0.0
C520 C 0.80319 0.71687 0.8063 0.0
C521 C 0.7916 0.67671 0.80202 0.0
C522 C 0.77418 0.64587 0.81126 0.0
C523 C 0.82463 0.75016 0.79687 0.0
C524 C 0.80779 0.74587 0.78319 0.0
C525 C 0.86185 0.78591 0.80128 0.0
C526 C 0.8832 0.79104 0.81511 0.0
C527 C 0.89328 0.76236 0.81908 0.0
C528 C 0.91324 0.76727 0.83214 0.0
C529 C 0.92361 0.80096 0.84127 0.0
C530 C 0.91414 0.82987 0.83734 0.0
C531 C 0.89411 0.82506 0.82429 0.0
H532 H 0.93909 0.80473 0.85137 0.0
H533 H 0.76039 0.75284 0.72151 0.0
H534 H 0.15351 0.9895 0.07742 0.0
H535 H 0.13619 0.93944 0.09478 0.0
H536 H 0.05221 0.96949 0.11098 0.0
H537 H 0.06956 0.02012 0.09363 0.0
H538 H 0.09291 0.94547 0.13188 0.0
H539 H 0.01308 0.89843 0.08816 0.0
H540 H 0.00228 0.89157 0.06246 0.0
H541 H 0.06927 0.83124 0.05987 0.0
H542 H 0.08108 0.83841 0.08556 0.0
H543 H 0.96985 0.74219 0.15582 0.0
H544 H 0.99276 0.80767 0.1456 0.0
H545 H 0.076 0.791 0.12212 0.0
H546 H 0.05325 0.72586 0.13222 0.0
H547 H 0.02937 0.80992 0.1059 0.0
H548 H 0.10932 0.85822 0.15022 0.0
H549 H 0.11922 0.86581 0.17594 0.0
H550 H 0.04884 0.92264 0.17763 0.0
H551 H 0.03804 0.91487 0.1519 0.0
C552 C 0.13221 0.9864 0.08492 0.0
C553 C 0.11228 0.00816 0.08396 0.0
C554 C 0.12243 0.95782 0.09485 0.0
C555 C 0.0924 0.95033 0.10395 0.0
C556 C 0.07539 0.97485 0.104 0.0
C557 C 0.0853 0.00367 0.09406 0.0
C558 C 0.07466 0.91292 0.11161 0.0
C559 C 0.07851 0.91574 0.12626 0.0
C560 C 0.05581 0.87424 0.10422 0.0
C561 C 0.04827 0.86929 0.08877 0.0
C562 C 0.02577 0.88398 0.0821 0.0
C563 C 0.01944 0.88001 0.06754 0.0
C564 C 0.03516 0.86106 0.05953 0.0
C565 C 0.05715 0.84595 0.06608 0.0
C566 C 0.06365 0.84994 0.08065 0.0
C567 C 0.9933 0.7528 0.14858 0.0
C568 C 0.01 0.72914 0.14487 0.0
C569 C 0.00642 0.79017 0.1428 0.0
C570 C 0.03625 0.80423 0.13318 0.0
C571 C 0.05301 0.78071 0.12954 0.0
C572 C 0.04007 0.74359 0.13532 0.0
C573 C 0.04876 0.84229 0.12622 0.0
C574 C 0.04355 0.83954 0.1116 0.0
C575 C 0.06589 0.88076 0.1337 0.0
C576 C 0.07248 0.88553 0.14915 0.0
C577 C 0.09564 0.872 0.15608 0.0
C578 C 0.10149 0.8764 0.17066 0.0
C579 C 0.08457 0.89458 0.17842 0.0
C580 C 0.06187 0.9085 0.17161 0.0
C581 C 0.0559 0.90413 0.15703 0.0
H582 H 0.08913 0.89797 0.18971 0.0
H583 H 0.03022 0.85801 0.04826 0.0
H584 H 0.22447 0.11696 0.40603 0.0
H585 H 0.25783 0.10399 0.42556 0.0
H586 H 0.18207 0.11757 0.454 0.0
H587 H 0.14759 0.12965 0.43443 0.0
H588 H 0.27833 0.15566 0.46175 0.0
H589 H 0.14632 0.03289 0.44869 0.0
H590 H 0.09463 0.98264 0.43103 0.0
H591 H 0.18006 0.95373 0.41594 0.0
H592 H 0.23244 0.00436 0.4334 0.0
H593 H 0.30139 0.05425 0.51881 0.0
H594 H 0.27815 0.08306 0.50105 0.0
H595 H 0.30124 0.01842 0.46862 0.0
H596 H 0.32263 0.98814 0.48635 0.0
H597 H 0.23181 0.00889 0.46298 0.0
H598 H 0.36214 0.12467 0.47645 0.0
H599 H 0.41762 0.17686 0.4926 0.0
H600 H 0.34208 0.22158 0.50542 0.0
H601 H 0.2859 0.16922 0.4895 0.0
C602 C 0.21538 0.11806 0.41646 0.0
C603 C 0.18315 0.12399 0.41868 0.0
C604 C 0.23452 0.11067 0.42759 0.0
C605 C 0.22223 0.10979 0.44113 0.0
C606 C 0.19194 0.11833 0.44358 0.0
C607 C 0.17222 0.12502 0.4324 0.0
C608 C 0.23791 0.09531 0.45232 0.0
C609 C 0.26791 0.12358 0.46223 0.0
C610 C 0.22498 0.05363 0.45254 0.0
C611 C 0.19336 0.02269 0.44223 0.0
C612 C 0.15416 0.01608 0.44152 0.0
C613 C 0.12473 0.98748 0.43157 0.0
C614 C 0.13409 0.96509 0.42233 0.0
C615 C 0.17287 0.97115 0.42308 0.0
C616 C 0.20242 -0.00024 0.43301 0.0
C617 C 0.30203 0.04675 0.50787 0.0
C618 C 0.31462 0.01968 0.50397 0.0
C619 C 0.2889 0.06331 0.49773 0.0
C620 C 0.28856 0.05346 0.48347 0.0
C621 C 0.30142 0.02663 0.47955 0.0
C622 C 0.31397 0.00961 0.48969 0.0
C623 C 0.27265 0.06921 0.47265 0.0
C624 C 0.24244 0.04107 0.46269 0.0
C625 C 0.28592 0.11114 0.47231 0.0
C626 C 0.31967 0.14273 0.48188 0.0
C627 C 0.35724 0.14541 0.4828 0.0
C628 C 0.38884 0.17506 0.4919 0.0
C629 C 0.38335 0.20245 0.50006 0.0
C630 C 0.34627 0.2003 0.49911 0.0
C631 C 0.31454 0.17066 0.49004 0.0
H632 H 0.40786 0.2254 0.50709 0.0
H633 H 0.11128 0.94299 0.41462 0.0
H634 H 0.07703 0.12151 0.76235 0.0
H635 H 0.12082 0.18779 0.77526 0.0
H636 H 0.21961 0.16623 0.77578 0.0
H637 H 0.17542 0.09939 0.76382 0.0
H638 H 0.22372 0.19981 0.79912 0.0
H639 H 0.20392 0.22944 0.75172 0.0
H640 H 0.1635 0.22756 0.73082 0.0
H641 H 0.11542 0.28682 0.75501 0.0
H642 H 0.15525 0.28863 0.77609 0.0
H643 H 0.39813 0.39692 0.80113 0.0
H644 H 0.34094 0.32816 0.79485 0.0
H645 H 0.25888 0.36587 0.80711 0.0
H646 H 0.31626 0.43487 0.81357 0.0
H647 H 0.23882 0.32515 0.78045 0.0
H648 H 0.27161 0.30514 0.827 0.0
H649 H 0.31686 0.30886 0.84662 0.0
H650 H 0.34601 0.23266 0.82234 0.0
H651 H 0.30145 0.22901 0.80249 0.0
C652 C 0.10807 0.13102 0.76531 0.0
C653 C 0.12289 0.10542 0.76209 0.0
C654 C 0.13316 0.16896 0.77262 0.0
C655 C 0.17386 0.1825 0.77634 0.0
C656 C 0.18838 0.15662 0.77314 0.0
C657 C 0.16311 0.1184 0.76624 0.0
C658 C 0.20201 0.22371 0.7833 0.0
C659 C 0.22712 0.22716 0.79495 0.0
C660 C 0.20588 0.25959 0.77817 0.0
C661 C 0.18217 0.25874 0.7655 0.0
C662 C 0.18454 0.24185 0.75259 0.0
C663 C 0.16177 0.24082 0.74072 0.0
C664 C 0.13681 0.25695 0.7416 0.0
C665 C 0.1347 0.27427 0.75435 0.0
C666 C 0.15737 0.27532 0.76626 0.0
C667 C 0.36793 0.3904 0.80267 0.0
C668 C 0.36158 0.42115 0.80785 0.0
C669 C 0.33532 0.35113 0.7991 0.0
C670 C 0.29573 0.34193 0.80059 0.0
C671 C 0.28924 0.37241 0.80592 0.0
C672 C 0.32193 0.41166 0.80962 0.0
C673 C 0.26126 0.30098 0.79585 0.0
C674 C 0.23494 0.29767 0.78469 0.0
C675 C 0.25688 0.26528 0.80122 0.0
C676 C 0.28333 0.26701 0.81322 0.0
C677 C 0.28787 0.28939 0.82581 0.0
C678 C 0.31338 0.29146 0.83698 0.0
C679 C 0.33434 0.27106 0.83572 0.0
C680 C 0.32976 0.24845 0.8233 0.0
C681 C 0.30433 0.24633 0.81209 0.0
H682 H 0.35408 0.27271 0.84437 0.0
H683 H 0.11918 0.25611 0.7324 0.0
H684 H 0.9527 0.01073 0.69815 0.0
H685 H 0.90598 0.01798 0.68256 0.0
H686 H 0.92193 0.11841 0.7095 0.0
H687 H 0.96844 0.11082 0.72541 0.0
H688 H 0.84417 0.06649 0.70232 0.0
H689 H 0.96187 0.13461 0.67738 0.0
H690 H 0.02255 0.14496 0.66652 0.0
H691 H 0.94934 0.03945 0.63835 0.0
H692 H 0.88824 0.02808 0.64917 0.0
H693 H 0.69495 0.08411 0.65075 0.0
H694 H 0.76358 0.10279 0.6696 0.0
H695 H 0.78183 0.9985 0.64367 0.0
H696 H 0.71433 0.97758 0.62401 0.0
H697 H 0.85304 0.06953 0.65095 0.0
H698 H 0.73845 0.99585 0.6784 0.0
H699 H 0.67724 0.98323 0.68947 0.0
H700 H 0.74535 0.09895 0.71297 0.0
H701 H 0.8069 0.11243 0.70191 0.0
C702 C 0.9466 0.03461 0.70076 0.0
C703 C 0.96436 0.0602 0.71305 0.0
C704 C 0.92002 0.0389 0.69175 0.0
C705 C 0.91088 0.06917 0.69473 0.0
C706 C 0.9287 0.09498 0.70696 0.0
C707 C 0.9553 0.09062 0.71602 0.0
C708 C 0.88095 0.07199 0.6854 0.0
C709 C 0.84666 0.06831 0.69112 0.0
C710 C 0.88378 0.0736 0.67075 0.0
C711 C 0.92046 0.08037 0.66416 0.0
C712 C 0.95872 0.11344 0.66893 0.0
C713 C 0.9932 0.11952 0.66277 0.0
C714 C 0.98981 0.09285 0.65176 0.0
C715 C 0.95192 0.06008 0.64688 0.0
C716 C 0.91734 0.05385 0.65301 0.0
C717 C 0.71005 0.06718 0.6498 0.0
C718 C 0.70208 0.03386 0.63386 0.0
C719 C 0.75391 0.07985 0.66106 0.0
C720 C 0.78169 0.05456 0.65816 0.0
C721 C 0.76553 0.01422 0.64463 0.0
C722 C 0.72223 0.99934 0.63283 0.0
C723 C 0.81617 0.06328 0.66788 0.0
C724 C 0.85115 0.06885 0.66219 0.0
C725 C 0.81403 0.06349 0.68254 0.0
C726 C 0.7771 0.05539 0.68919 0.0
C727 C 0.74028 0.01872 0.68585 0.0
C728 C 0.70556 0.0114 0.69214 0.0
C729 C 0.70738 0.04034 0.70188 0.0
C730 C 0.74397 0.07661 0.7054 0.0
C731 C 0.77878 0.0841 0.69913 0.0
H732 H 0.68046 0.03462 0.70673 0.0
H733 H 0.01654 0.0976 0.64701 0.0
H734 H 0.0278 0.97798 0.00603 0.0
H735 H 0.96639 0.92037 0.99437 0.0
H736 H 0.89953 0.91877 0.02927 0.0
H737 H 0.96102 0.97729 0.04093 0.0
H738 H 0.8962 0.84371 0.02195 0.0
H739 H 0.87355 0.94045 0.00035 0.0
H740 H 0.8918 0.00164 0.98771 0.0
H741 H 0.91867 0.95042 0.95233 0.0
H742 H 0.90116 0.88914 0.96483 0.0
H743 H 0.73606 0.66254 0.98728 0.0
H744 H 0.77072 0.73085 0.99911 0.0
H745 H 0.8494 0.77685 0.96545 0.0
H746 H 0.81348 0.70913 0.9533 0.0
H747 H 0.83518 0.83233 0.97424 0.0
H748 H 0.87415 0.74585 0.99665 0.0
H749 H 0.86245 0.68573 0.00885 0.0
H750 H 0.81221 0.71884 0.04214 0.0
H751 H 0.82315 0.77889 0.03002 0.0
C752 C -0.00018 0.96599 0.01108 0.0
C753 C 0.99914 0.98203 0.02439 0.0
C754 C 0.96475 0.93318 0.00439 0.0
C755 C 0.92845 0.91542 0.01095 0.0
C756 C 0.92725 0.93226 0.02402 0.0
C757 C 0.96229 0.96573 0.03062 0.0
C758 C 0.89342 0.87666 0.00474 0.0
C759 C 0.88196 0.84124 0.01168 0.0
C760 C 0.87587 0.87353 0.99118 0.0
C761 C 0.88621 0.91024 0.98357 0.0
C762 C 0.88362 0.94233 0.98991 0.0
C763 C 0.89379 0.97703 0.98276 0.0
C764 C 0.90643 0.97994 0.96923 0.0
C765 C 0.90886 0.94812 0.96281 0.0
C766 C 0.89874 0.91336 0.96992 0.0
C767 C 0.76004 0.68744 0.98224 0.0
C768 C 0.77183 0.68059 0.96927 0.0
C769 C 0.78009 0.72644 0.98907 0.0
C770 C 0.81316 0.75899 0.9833 0.0
C771 C 0.82394 0.7524 0.97012 0.0
C772 C 0.80349 0.71366 0.96319 0.0
C773 C 0.83867 0.79912 0.9913 0.0
C774 C 0.84852 0.83479 0.98467 0.0
C775 C 0.85549 0.80252 0.00505 0.0
C776 C 0.84896 0.76651 0.01235 0.0
C777 C 0.86034 0.74012 0.00652 0.0
C778 C 0.85388 0.70609 0.01343 0.0
C779 C 0.83647 0.69839 0.02624 0.0
C780 C 0.82559 0.72478 0.03219 0.0
C781 C 0.83191 0.75881 0.02531 0.0
H782 H 0.83151 0.67204 0.03157 0.0
H783 H 0.9143 0.00683 0.96372 0.0
H784 H 0.01476 0.97159 0.38249 0.0
H785 H 0.9804 0.90363 0.37001 0.0
H786 H 0.0278 0.95849 0.33163 0.0
H787 H 0.06307 0.02597 0.34403 0.0
H788 H 0.93933 0.89263 0.33083 0.0
H789 H 0.07681 0.92702 0.34573 0.0
H790 H 0.1317 0.94667 0.36395 0.0
H791 H 0.05477 0.84014 0.38531 0.0
H792 H 0.9992 0.82019 0.36728 0.0
H793 H 0.9543 0.77028 0.2794 0.0
H794 H 0.96748 0.82283 0.29754 0.0
H795 H 0.9274 0.73382 0.32844 0.0
H796 H 0.91361 0.68071 0.3102 0.0
H797 H 0.99971 0.80703 0.33705 0.0
H798 H 0.86723 0.76438 0.31978 0.0
H799 H 0.81086 0.74381 0.30212 0.0
H800 H 0.87347 0.86272 0.28645 0.0
H801 H 0.93058 0.88385 0.30387 0.0
C802 C 0.01742 0.96904 0.37136 0.0
C803 C 0.04167 0.00387 0.3642 0.0
C804 C 0.99789 0.93036 0.36429 0.0
C805 C 0.00167 0.92631 0.34995 0.0
C806 C 0.0245 0.96117 0.34271 0.0
C807 C 0.04474 0.99959 0.3498 0.0
C808 C 0.98397 0.88587 0.34243 0.0
C809 C 0.95233 0.87376 0.33218 0.0
C810 C 0.0002 0.86082 0.34459 0.0
C811 C 0.03374 0.87243 0.35528 0.0
C812 C 0.0715 0.90799 0.35438 0.0
C813 C 0.10275 0.91914 0.36465 0.0
C814 C 0.09668 0.89476 0.37582 0.0
C815 C 0.05939 0.85905 0.37668 0.0
C816 C 0.02802 0.8478 0.36643 0.0
C817 C 0.94806 0.76185 0.29004 0.0
C818 C 0.93265 0.72137 0.29337 0.0
C819 C 0.95557 0.79184 0.30038 0.0
C820 C 0.94796 0.78205 0.31429 0.0
C821 C 0.93328 0.74186 0.31775 0.0
C822 C 0.92538 0.71164 0.30734 0.0
C823 C 0.95589 0.81441 0.32506 0.0
C824 C 0.98578 0.82513 0.33591 0.0
C825 C 0.93765 0.83795 0.32357 0.0
C826 C 0.90333 0.82563 0.31309 0.0
C827 C 0.86914 0.78607 0.3125 0.0
C828 C 0.83702 0.77432 0.30254 0.0
C829 C 0.83861 0.80192 0.29316 0.0
C830 C 0.87229 0.84137 0.29373 0.0
C831 C 0.90453 0.85328 0.30366 0.0
H832 H 0.8137 0.79276 0.28545 0.0
H833 H 0.12089 0.90347 0.38378 0.0
H834 H 0.09297 0.02334 0.6925 0.0
H835 H 0.13232 0.02547 0.67288 0.0
H836 H 0.15785 0.94087 0.69221 0.0
H837 H 0.11947 0.93912 0.7118 0.0
H838 H 0.22528 0.0069 0.68581 0.0
H839 H 0.09364 0.91329 0.66272 0.0
H840 H 0.02436 0.89144 0.65382 0.0
H841 H 0.07024 0.99239 0.62784 0.0
H842 H 0.13983 0.01515 0.63672 0.0
H843 H 0.30492 0.93885 0.63503 0.0
H844 H 0.25832 0.94156 0.6507 0.0
H845 H 0.26147 0.03848 0.62848 0.0
H846 H 0.30874 0.03631 0.61279 0.0
H847 H 0.18183 0.97557 0.63523 0.0
H848 H 0.31362 0.06617 0.65721 0.0
H849 H 0.38281 0.08724 0.66593 0.0
H850 H 0.33613 0.99162 0.69414 0.0
H851 H 0.26662 0.96954 0.68543 0.0
C852 C 0.10643 0.0047 0.69242 0.0
C853 C 0.10353 0.98143 0.70376 0.0
C854 C 0.12885 0.00592 0.68121 0.0
C855 C 0.1482 0.9835 0.68114 0.0
C856 C 0.14351 0.95872 0.69212 0.0
C857 C 0.1215 0.95772 0.70331 0.0
C858 C 0.17586 0.98775 0.6703 0.0
C859 C 0.21559 -0.00032 0.67476 0.0
C860 C 0.16369 0.97985 0.65585 0.0
C861 C 0.1219 0.96619 0.65051 0.0
C862 C 0.08894 0.93104 0.6552 0.0
C863 C 0.04962 0.91844 0.65014 0.0
C864 C 0.04289 0.94059 0.64031 0.0
C865 C 0.07549 0.97531 0.63548 0.0
C866 C 0.11488 0.98806 0.64052 0.0
C867 C 0.2957 0.96073 0.63347 0.0
C868 C 0.31068 0.98759 0.62276 0.0
C869 C 0.26905 0.96219 0.6424 0.0
C870 C 0.25672 0.99036 0.64076 0.0
C871 C 0.27066 0.01651 0.62986 0.0
C872 C 0.29768 0.01533 0.62098 0.0
C873 C 0.23055 0.99327 0.65087 0.0
C874 C 0.19141 0.98306 0.64627 0.0
C875 C 0.24313 0.00272 0.66525 0.0
C876 C 0.2849 0.016 0.67057 0.0
C877 C 0.3181 0.04941 0.66519 0.0
C878 C 0.35739 0.06158 0.67015 0.0
C879 C 0.36387 0.04073 0.68056 0.0
C880 C 0.33106 0.00772 0.68606 0.0
C881 C 0.29171 0.99539 0.68113 0.0
H882 H 0.39431 0.0502 0.68439 0.0
H883 H 0.01243 0.93078 0.6364 0.0
H884 H 0.23759 0.15027 0.02878 0.0
H885 H 0.28026 0.21076 0.01636 0.0
H886 H 0.19308 0.24785 0.01985 0.0
H887 H 0.15149 0.18868 0.03281 0.0
H888 H 0.26842 0.22917 0.99274 0.0
H889 H 0.23083 0.34594 0.0183 0.0
H890 H 0.22201 0.36669 0.04184 0.0
H891 H 0.29133 0.31979 0.06022 0.0
H892 H 0.30111 0.2993 0.03679 0.0
H893 H 0.26885 0.35842 0.94403 0.0
H894 H 0.2569 0.31077 0.96192 0.0
H895 H 0.34911 0.40908 0.98972 0.0
H896 H 0.35932 0.45723 0.97211 0.0
H897 H 0.29097 0.36678 0.00385 0.0
H898 H 0.36197 0.33209 0.97373 0.0
H899 H 0.38172 0.31498 0.95165 0.0
H900 H 0.26607 0.20457 0.94522 0.0
H901 H 0.2453 0.22134 0.96713 0.0
C902 C 0.22796 0.17179 0.02712 0.0
C903 C 0.19118 0.16473 0.03176 0.0
C904 C 0.25233 0.20631 0.01999 0.0
C905 C 0.24018 0.23419 0.01722 0.0
C906 C 0.2038 0.22751 0.02213 0.0
C907 C 0.17983 0.19345 0.02949 0.0
C908 C 0.26337 0.2682 0.00818 0.0
C909 C 0.27373 0.25938 0.99524 0.0
C910 C 0.27195 0.30818 0.01162 0.0
C911 C 0.26649 0.32085 0.02576 0.0
C912 C 0.24442 0.34027 0.02735 0.0
C913 C 0.23919 0.35194 0.04068 0.0
C914 C 0.25602 0.34448 0.05252 0.0
C915 C 0.2782 0.32543 0.05104 0.0
C916 C 0.28355 0.31373 0.03774 0.0
C917 C 0.28682 0.36971 0.95392 0.0
C918 C 0.31542 0.41137 0.95656 0.0
C919 C 0.28025 0.34245 0.96411 0.0
C920 C 0.30274 0.35607 0.97711 0.0
C921 C 0.33155 0.39772 0.97976 0.0
C922 C 0.33756 0.4252 0.96964 0.0
C923 C 0.294 0.32706 0.98815 0.0
C924 C 0.28642 0.33683 0.00146 0.0
C925 C 0.28973 0.28854 0.98529 0.0
C926 C 0.302 0.27813 0.97207 0.0
C927 C 0.34062 0.30429 0.96756 0.0
C928 C 0.35202 0.29464 0.95508 0.0
C929 C 0.32516 0.25873 0.94703 0.0
C930 C 0.28685 0.23238 0.95146 0.0
C931 C 0.27527 0.24193 0.96393 0.0
H932 H 0.33404 0.25129 0.93737 0.0
H933 H 0.25191 0.35351 0.06283 0.0
H934 H 0.04302 0.18819 0.37849 0.0
H935 H 0.02481 0.2302 0.36532 0.0
H936 H 0.13435 0.27787 0.34411 0.0
H937 H 0.15298 0.23596 0.35724 0.0
H938 H 0.11427 0.33683 0.35116 0.0
H939 H 0.05243 0.20164 0.32857 0.0
H940 H 0.01143 0.12663 0.3274 0.0
H941 H 0.9082 0.13186 0.33852 0.0
H942 H 0.9488 0.20698 0.33997 0.0
H943 H 0.07198 0.41732 0.28509 0.0
H944 H 0.0949 0.37986 0.30626 0.0
H945 H 0.9528 0.29896 0.32005 0.0
H946 H 0.92606 0.33425 0.29928 0.0
H947 H 0.98929 0.25881 0.31975 0.0
H948 H 0.04891 0.39199 0.343 0.0
H949 H 0.08864 0.46712 0.34512 0.0
H950 H 0.19366 0.46593 0.33359 0.0
H951 H 0.15439 0.39075 0.3313 0.0
C952 C 0.06364 0.20811 0.37121 0.0
C953 C 0.09924 0.20837 0.36879 0.0
C954 C 0.0531 0.23201 0.36368 0.0
C955 C 0.07798 0.25659 0.35362 0.0
C956 C 0.11474 0.25894 0.35181 0.0
C957 C 0.12524 0.23488 0.35929 0.0
C958 C 0.06419 0.2773 0.34425 0.0
C959 C 0.08717 0.31984 0.34418 0.0
C960 C 0.02826 0.25507 0.33544 0.0
C961 C 0.00377 0.20992 0.33454 0.0
C962 C 0.02108 0.18679 0.33089 0.0
C963 C 0.9979 0.14426 0.33016 0.0
C964 C 0.95726 0.12449 0.33293 0.0
C965 C 0.9397 0.14722 0.33641 0.0
C966 C 0.96278 0.18977 0.33718 0.0
C967 C 0.04977 0.39444 0.29127 0.0
C968 C 0.99778 0.38517 0.29178 0.0
C969 C 0.06406 0.37267 0.30497 0.0
C970 C 0.02712 0.33796 0.31618 0.0
C971 C 0.97429 0.3213 0.31356 0.0
C972 C 0.95693 0.34134 0.30017 0.0
C973 C 0.03937 0.31849 0.32661 0.0
C974 C 0.01614 0.27603 0.32682 0.0
C975 C 0.07493 0.34079 0.33557 0.0
C976 C 0.09859 0.38587 0.33677 0.0
C977 C 0.08042 0.4078 0.34083 0.0
C978 C 0.10286 0.45037 0.34209 0.0
C979 C 0.14361 0.4713 0.33943 0.0
C980 C 0.16205 0.44969 0.33559 0.0
C981 C 0.13974 0.40711 0.33432 0.0
H982 H 0.16093 0.50425 0.3404 0.0
H983 H 0.93936 0.09155 0.33235 0.0
loop_
_geom_bond_atom_site_label_1
_geom_bond_atom_site_label_2
_geom_bond_distance
_geom_bond_site_symmetry_2
_ccdc_geom_bond_type
Zn0 O3 2.025 1_545 S
Zn0 O5 2.049 . S
Zn0 O10 2.067 . S
Zn1 O2 1.962 . S
Zn1 O4 1.986 . S
Zn1 O6 1.996 . S
Zn1 O9 1.943 . S
O2 Zn1 1.962 . S
O2 C7 1.254 . S
O3 Zn0 2.025 1_565 S
O3 C7 1.262 1_565 S
O4 Zn1 1.986 . S
O4 C11 1.262 . S
O5 Zn0 2.049 . S
O5 C13 1.260 . S
O6 Zn1 1.996 . S
O6 C13 1.257 . S
C7 O2 1.254 . S
C7 O3 1.262 1_545 S
C8 O9 1.249 . S
C8 O10 1.270 . S
O9 Zn1 1.943 . S
O9 C8 1.249 . S
O10 Zn0 2.067 . S
O10 C8 1.270 . S
C11 O4 1.262 . S
C11 O12 1.232 . S
O12 C11 1.232 . S
C13 O5 1.260 . S
C13 O6 1.257 . S
Zn14 O17 2.031 . S
Zn14 O19 2.049 . S
Zn14 O24 2.067 . S
Zn15 O16 1.962 . S
Zn15 O18 1.986 1_455 S
Zn15 O20 1.996 . S
Zn15 O23 1.943 . S
O16 Zn15 1.962 . S
O16 C21 1.254 . S
O17 Zn14 2.031 . S
O17 C21 1.269 . S
O18 Zn15 1.986 1_655 S
O18 C25 1.262 . S
O19 Zn14 2.049 . S
O19 C27 1.260 . S
O20 Zn15 1.996 . S
O20 C27 1.257 . S
C21 O16 1.254 . S
C21 O17 1.269 . S
C22 O23 1.249 . S
C22 O24 1.270 . S
O23 Zn15 1.943 . S
O23 C22 1.249 . S
O24 Zn14 2.067 . S
O24 C22 1.270 . S
C25 O18 1.262 . S
C25 O26 1.232 . S
O26 C25 1.232 . S
C27 O19 1.260 . S
C27 O20 1.257 . S
Zn28 O31 2.031 1_565 S
Zn28 O33 2.049 . S
Zn28 O38 2.067 1_565 S
Zn29 O30 1.970 . S
Zn29 O32 1.986 1_455 S
Zn29 O34 1.996 1_445 S
Zn29 O37 1.943 . S
O30 Zn29 1.970 . S
O30 C35 1.249 . S
O31 Zn28 2.031 1_545 S
O31 C35 1.269 . S
O32 Zn29 1.986 1_655 S
O32 C39 1.262 . S
O33 Zn28 2.049 . S
O33 C41 1.260 1_455 S
O34 Zn29 1.996 1_665 S
O34 C41 1.257 . S
C35 O30 1.249 . S
C35 O31 1.269 . S
C36 O37 1.249 . S
C36 O38 1.270 . S
O37 Zn29 1.943 . S
O37 C36 1.249 . S
O38 Zn28 2.067 1_545 S
O38 C36 1.270 . S
C39 O32 1.262 . S
C39 O40 1.232 1_655 S
O40 C39 1.232 1_455 S
C41 O33 1.260 1_655 S
C41 O34 1.257 . S
C42 C43 1.560 1_655 S
C42 H103 0.959 . S
C42 H104 0.959 . S
C42 H105 0.960 . S
C43 C42 1.560 1_455 S
C43 O98 1.426 1_455 S
C43 H102 0.980 . S
C44 C45 1.407 . S
C44 C49 1.418 1_455 S
C44 O98 1.334 1_455 S
C45 C44 1.407 . S
C45 C46 1.360 . S
C45 H106 0.929 . S
C46 C45 1.360 . S
C46 C47 1.401 . S
C46 C50 1.527 . S
C47 C46 1.401 . S
C47 C48 1.405 . S
C47 C80 1.587 . S
C48 C47 1.405 . S
C48 C49 1.332 1_455 S
C48 C51 1.496 1_455 S
C49 C44 1.418 1_655 S
C49 C48 1.332 1_655 S
C49 H107 0.929 . S
C50 C46 1.527 . S
C50 H108 0.959 . S
C50 H109 0.961 . S
C50 H110 0.961 . S
C51 C48 1.496 1_655 S
C51 H111 0.960 . S
C51 H112 0.960 . S
C51 H113 0.961 . S
C52 C53 1.517 . S
C52 H115 0.961 . S
C52 H116 0.960 . S
C52 H117 0.959 . S
C53 C52 1.517 . S
C53 O101 1.468 . S
C53 H114 0.980 . S
C54 C55 1.349 . S
C54 C59 1.367 . S
C54 O101 1.408 . S
C55 C54 1.349 . S
C55 C56 1.407 . S
C55 H118 0.930 . S
C56 C55 1.407 . S
C56 C57 1.449 . S
C56 C60 1.535 . S
C57 C56 1.449 . S
C57 C58 1.384 . S
C57 C82 1.553 . S
C58 C57 1.384 . S
C58 C59 1.364 . S
C58 C61 1.450 . S
C59 C54 1.367 . S
C59 C58 1.364 . S
C59 H119 0.931 . S
C60 C56 1.535 . S
C60 H120 0.959 . S
C60 H121 0.961 1_455 S
C60 H122 0.959 1_455 S
C61 C58 1.450 . S
C61 H123 0.960 . S
C61 H124 0.960 . S
C61 H125 0.960 . S
C62 C63 1.309 . S
C62 C67 1.304 . S
C62 O100 1.435 . S
C63 C62 1.309 . S
C63 C64 1.476 . S
C63 H127 0.930 . S
C64 C63 1.476 . S
C64 C65 1.400 . S
C64 C68 1.554 1_455 S
C65 C64 1.400 . S
C65 C66 1.373 . S
C65 C87 1.432 . S
C66 C65 1.373 . S
C66 C67 1.339 . S
C66 C69 1.530 . S
C67 C62 1.304 . S
C67 C66 1.339 . S
C67 H128 0.930 . S
C68 C64 1.554 1_655 S
C68 H129 0.964 1_655 S
C68 H130 0.961 . S
C68 H131 0.966 . S
C69 C66 1.530 . S
C69 H132 0.961 . S
C69 H133 0.960 . S
C69 H134 0.960 . S
C70 C71 1.530 . S
C70 H136 0.961 . S
C70 H137 0.960 . S
C70 H138 0.959 . S
C71 C70 1.530 . S
C71 O99 1.412 . S
C71 H135 0.980 . S
C72 C73 1.288 1_455 S
C72 C77 1.377 . S
C72 O99 1.393 . S
C73 C72 1.288 1_655 S
C73 C74 1.371 1_655 S
C73 H139 0.929 . S
C74 C73 1.371 1_455 S
C74 C75 1.398 . S
C74 C78 1.527 1_455 S
C75 C74 1.398 . S
C75 C76 1.380 . S
C75 C89 1.497 . S
C76 C75 1.380 . S
C76 C77 1.383 . S
C76 C79 1.603 . S
C77 C72 1.377 . S
C77 C76 1.383 . S
C77 H140 0.929 . S
C78 C74 1.527 1_655 S
C78 H141 0.961 . S
C78 H142 0.959 . S
C78 H143 0.959 . S
C79 C76 1.603 . S
C79 H144 0.960 . S
C79 H145 0.962 . S
C79 H146 0.961 . S
C80 C47 1.587 . S
C80 C81 1.360 . S
C80 C93 1.412 . S
C81 C80 1.360 . S
C81 C82 1.365 . S
C81 H147 0.929 . S
C82 C57 1.553 . S
C82 C81 1.365 . S
C82 C83 1.404 . S
C83 C82 1.404 . S
C83 C84 1.395 . S
C83 C94 1.451 . S
C84 C83 1.395 . S
C84 C85 1.322 . S
C84 H148 0.930 . S
C85 C84 1.322 . S
C85 C86 1.459 . S
C85 H149 0.929 . S
C86 C85 1.459 . S
C86 C87 1.445 . S
C86 C95 1.395 . S
C87 C65 1.432 . S
C87 C86 1.445 . S
C87 C88 1.370 . S
C88 C87 1.370 . S
C88 C89 1.438 . S
C88 H150 0.930 . S
C89 C75 1.497 . S
C89 C88 1.438 . S
C89 C90 1.360 . S
C90 C89 1.360 . S
C90 C91 1.401 . S
C90 C95 1.446 . S
C91 C90 1.401 . S
C91 C92 1.347 . S
C91 H151 0.929 . S
C92 C91 1.347 . S
C92 C93 1.455 . S
C92 H152 0.930 . S
C93 C80 1.412 . S
C93 C92 1.455 . S
C93 C94 1.331 . S
C94 C83 1.451 . S
C94 C93 1.331 . S
C94 C95 1.497 . S
C95 C86 1.395 . S
C95 C90 1.446 . S
C95 C94 1.497 . S
C96 C97 1.582 . S
C96 H153 0.962 . S
C96 H154 0.959 . S
C96 H155 0.958 . S
C97 C96 1.582 . S
C97 O100 1.458 . S
C97 H126 0.980 . S
O98 C43 1.426 1_655 S
O98 C44 1.334 1_655 S
O99 C71 1.412 . S
O99 C72 1.393 . S
O100 C62 1.435 . S
O100 C97 1.458 . S
O101 C53 1.468 . S
O101 C54 1.408 . S
H102 C43 0.980 . S
H103 C42 0.959 . S
H104 C42 0.959 . S
H105 C42 0.960 . S
H106 C45 0.929 . S
H107 C49 0.929 . S
H108 C50 0.959 . S
H109 C50 0.961 . S
H110 C50 0.961 . S
H111 C51 0.960 . S
H112 C51 0.960 . S
H113 C51 0.961 . S
H114 C53 0.980 . S
H115 C52 0.961 . S
H116 C52 0.960 . S
H117 C52 0.959 . S
H118 C55 0.930 . S
H119 C59 0.931 . S
H120 C60 0.959 . S
H121 C60 0.961 1_655 S
H122 C60 0.959 1_655 S
H123 C61 0.960 . S
H124 C61 0.960 . S
H125 C61 0.960 . S
H126 C97 0.980 . S
H127 C63 0.930 . S
H128 C67 0.930 . S
H129 C68 0.964 1_455 S
H130 C68 0.961 . S
H131 C68 0.966 . S
H132 C69 0.961 . S
H133 C69 0.960 . S
H134 C69 0.960 . S
H135 C71 0.980 . S
H136 C70 0.961 . S
H137 C70 0.960 . S
H138 C70 0.959 . S
H139 C73 0.929 . S
H140 C77 0.929 . S
H141 C78 0.961 . S
H142 C78 0.959 . S
H143 C78 0.959 . S
H144 C79 0.960 . S
H145 C79 0.962 . S
H146 C79 0.961 . S
H147 C81 0.929 . S
H148 C84 0.930 . S
H149 C85 0.929 . S
H150 C88 0.930 . S
H151 C91 0.929 . S
H152 C92 0.930 . S
H153 C96 0.962 . S
H154 C96 0.959 . S
H155 C96 0.958 . S
C156 C157 1.560 1_565 S
C156 H217 0.959 . S
C156 H218 0.959 . S
C156 H219 0.960 . S
C157 C156 1.560 1_545 S
C157 O212 1.414 1_545 S
C157 H216 0.980 . S
C158 C159 1.407 . S
C158 C163 1.418 1_545 S
C158 O212 1.334 1_545 S
C159 C158 1.407 . S
C159 C160 1.360 . S
C159 H220 0.929 . S
C160 C159 1.360 . S
C160 C161 1.401 . S
C160 C164 1.527 . S
C161 C160 1.401 . S
C161 C162 1.405 . S
C161 C194 1.587 . S
C162 C161 1.405 . S
C162 C163 1.332 1_545 S
C162 C165 1.496 1_545 S
C163 C158 1.418 1_565 S
C163 C162 1.332 1_565 S
C163 H221 0.929 . S
C164 C160 1.527 . S
C164 H222 0.959 . S
C164 H223 0.961 . S
C164 H224 0.961 . S
C165 C162 1.496 1_565 S
C165 H225 0.960 . S
C165 H226 0.960 . S
C165 H227 0.961 . S
C166 C167 1.517 . S
C166 H229 0.961 . S
C166 H230 0.960 . S
C166 H231 0.959 . S
C167 C166 1.517 . S
C167 O215 1.468 . S
C167 H228 0.980 . S
C168 C169 1.349 . S
C168 C173 1.367 . S
C168 O215 1.408 . S
C169 C168 1.349 . S
C169 C170 1.407 . S
C169 H232 0.930 . S
C170 C169 1.407 . S
C170 C171 1.449 . S
C170 C174 1.535 . S
C171 C170 1.449 . S
C171 C172 1.384 . S
C171 C196 1.553 . S
C172 C171 1.384 . S
C172 C173 1.364 . S
C172 C175 1.450 . S
C173 C168 1.367 . S
C173 C172 1.364 . S
C173 H233 0.931 . S
C174 C170 1.535 . S
C174 H234 0.959 . S
C174 H235 0.961 1_545 S
C174 H236 0.959 1_545 S
C175 C172 1.450 . S
C175 H237 0.960 . S
C175 H238 0.960 . S
C175 H239 0.960 . S
C176 C177 1.309 . S
C176 C181 1.304 . S
C176 O214 1.435 . S
C177 C176 1.309 . S
C177 C178 1.476 . S
C177 H241 0.930 . S
C178 C177 1.476 . S
C178 C179 1.400 . S
C178 C182 1.567 . S
C179 C178 1.400 . S
C179 C180 1.373 . S
C179 C201 1.432 . S
C180 C179 1.373 . S
C180 C181 1.339 . S
C180 C183 1.530 . S
C181 C176 1.304 . S
C181 C180 1.339 . S
C181 H242 0.930 . S
C182 C178 1.567 . S
C182 H243 0.961 . S
C182 H244 0.960 1_545 S
C182 H245 0.958 1_545 S
C183 C180 1.530 . S
C183 H246 0.961 . S
C183 H247 0.960 . S
C183 H248 0.960 . S
C184 C185 1.530 . S
C184 H250 0.961 . S
C184 H251 0.961 . S
C184 H252 0.959 . S
C185 C184 1.530 . S
C185 O213 1.412 . S
C185 H249 0.980 . S
C186 C187 1.288 . S
C186 C191 1.377 . S
C186 O213 1.393 . S
C187 C186 1.288 . S
C187 C188 1.369 . S
C187 H253 0.932 1_545 S
C188 C187 1.369 . S
C188 C189 1.398 . S
C188 C192 1.527 1_545 S
C189 C188 1.398 . S
C189 C190 1.380 . S
C189 C203 1.497 . S
C190 C189 1.380 . S
C190 C191 1.383 . S
C190 C193 1.603 . S
C191 C186 1.377 . S
C191 C190 1.383 . S
C191 H254 0.929 . S
C192 C188 1.527 1_565 S
C192 H255 0.961 . S
C192 H256 0.959 . S
C192 H257 0.959 . S
C193 C190 1.603 . S
C193 H258 0.960 . S
C193 H259 0.962 . S
C193 H260 0.961 . S
C194 C161 1.587 . S
C194 C195 1.360 . S
C194 C207 1.412 . S
C195 C194 1.360 . S
C195 C196 1.365 . S
C195 H261 0.929 . S
C196 C171 1.553 . S
C196 C195 1.365 . S
C196 C197 1.404 . S
C197 C196 1.404 . S
C197 C198 1.395 . S
C197 C208 1.451 . S
C198 C197 1.395 . S
C198 C199 1.322 . S
C198 H262 0.930 . S
C199 C198 1.322 . S
C199 C200 1.459 . S
C199 H263 0.929 . S
C200 C199 1.459 . S
C200 C201 1.445 . S
C200 C209 1.395 . S
C201 C179 1.432 . S
C201 C200 1.445 . S
C201 C202 1.370 . S
C202 C201 1.370 . S
C202 C203 1.438 . S
C202 H264 0.930 . S
C203 C189 1.497 . S
C203 C202 1.438 . S
C203 C204 1.360 . S
C204 C203 1.360 . S
C204 C205 1.401 . S
C204 C209 1.446 . S
C205 C204 1.401 . S
C205 C206 1.347 . S
C205 H265 0.929 . S
C206 C205 1.347 . S
C206 C207 1.455 . S
C206 H266 0.930 . S
C207 C194 1.412 . S
C207 C206 1.455 . S
C207 C208 1.331 . S
C208 C197 1.451 . S
C208 C207 1.331 . S
C208 C209 1.497 . S
C209 C200 1.395 . S
C209 C204 1.446 . S
C209 C208 1.497 . S
C210 C211 1.582 . S
C210 H267 0.962 . S
C210 H268 0.959 . S
C210 H269 0.958 . S
C211 C210 1.582 . S
C211 O214 1.458 . S
C211 H240 0.980 . S
O212 C157 1.414 1_565 S
O212 C158 1.334 1_565 S
O213 C185 1.412 . S
O213 C186 1.393 . S
O214 C176 1.435 . S
O214 C211 1.458 . S
O215 C167 1.468 . S
O215 C168 1.408 . S
H216 C157 0.980 . S
H217 C156 0.959 . S
H218 C156 0.959 . S
H219 C156 0.960 . S
H220 C159 0.929 . S
H221 C163 0.929 . S
H222 C164 0.959 . S
H223 C164 0.961 . S
H224 C164 0.961 . S
H225 C165 0.960 . S
H226 C165 0.960 . S
H227 C165 0.961 . S
H228 C167 0.980 . S
H229 C166 0.961 . S
H230 C166 0.960 . S
H231 C166 0.959 . S
H232 C169 0.930 . S
H233 C173 0.931 . S
H234 C174 0.959 . S
H235 C174 0.961 1_565 S
H236 C174 0.959 1_565 S
H237 C175 0.960 . S
H238 C175 0.960 . S
H239 C175 0.960 . S
H240 C211 0.980 . S
H241 C177 0.930 . S
H242 C181 0.930 . S
H243 C182 0.961 . S
H244 C182 0.960 1_565 S
H245 C182 0.958 1_565 S
H246 C183 0.961 . S
H247 C183 0.960 . S
H248 C183 0.960 . S
H249 C185 0.980 . S
H250 C184 0.961 . S
H251 C184 0.961 . S
H252 C184 0.959 . S
H253 C187 0.932 1_565 S
H254 C191 0.929 . S
H255 C192 0.961 . S
H256 C192 0.959 . S
H257 C192 0.959 . S
H258 C193 0.960 . S
H259 C193 0.962 . S
H260 C193 0.961 . S
H261 C195 0.929 . S
H262 C198 0.930 . S
H263 C199 0.929 . S
H264 C202 0.930 . S
H265 C205 0.929 . S
H266 C206 0.930 . S
H267 C210 0.962 . S
H268 C210 0.959 . S
H269 C210 0.958 . S
C270 C271 1.560 . S
C270 H331 0.959 . S
C270 H332 0.959 . S
C270 H333 0.960 . S
C271 C270 1.560 . S
C271 O326 1.426 . S
C271 H330 0.980 . S
C272 C273 1.407 . S
C272 C277 1.418 . S
C272 O326 1.334 . S
C273 C272 1.407 . S
C273 C274 1.360 . S
C273 H334 0.929 . S
C274 C273 1.360 . S
C274 C275 1.401 . S
C274 C278 1.527 . S
C275 C274 1.401 . S
C275 C276 1.405 . S
C275 C308 1.587 . S
C276 C275 1.405 . S
C276 C277 1.332 . S
C276 C279 1.496 . S
C277 C272 1.418 . S
C277 C276 1.332 . S
C277 H335 0.929 . S
C278 C274 1.527 . S
C278 H336 0.959 . S
C278 H337 0.961 . S
C278 H338 0.961 . S
C279 C276 1.496 . S
C279 H339 0.960 . S
C279 H340 0.960 . S
C279 H341 0.961 . S
C280 C281 1.517 . S
C280 H343 0.961 . S
C280 H344 0.960 . S
C280 H345 0.959 . S
C281 C280 1.517 . S
C281 O329 1.468 . S
C281 H342 0.980 . S
C282 C283 1.349 . S
C282 C287 1.367 . S
C282 O329 1.408 . S
C283 C282 1.349 . S
C283 C284 1.407 . S
C283 H346 0.930 . S
C284 C283 1.407 . S
C284 C285 1.449 . S
C284 C288 1.535 . S
C285 C284 1.449 . S
C285 C286 1.384 . S
C285 C310 1.553 . S
C286 C285 1.384 . S
C286 C287 1.364 . S
C286 C289 1.450 . S
C287 C282 1.367 . S
C287 C286 1.364 . S
C287 H347 0.931 . S
C288 C284 1.535 . S
C288 H348 0.959 . S
C288 H349 0.961 . S
C288 H350 0.959 . S
C289 C286 1.450 . S
C289 H351 0.960 . S
C289 H352 0.960 . S
C289 H353 0.960 . S
C290 C291 1.309 . S
C290 C295 1.304 . S
C290 O328 1.435 . S
C291 C290 1.309 . S
C291 C292 1.476 . S
C291 H355 0.930 . S
C292 C291 1.476 . S
C292 C293 1.400 . S
C292 C296 1.567 . S
C293 C292 1.400 . S
C293 C294 1.373 . S
C293 C315 1.432 . S
C294 C293 1.373 . S
C294 C295 1.339 . S
C294 C297 1.530 . S
C295 C290 1.304 . S
C295 C294 1.339 . S
C295 H356 0.930 . S
C296 C292 1.567 . S
C296 H357 0.961 . S
C296 H358 0.960 . S
C296 H359 0.958 . S
C297 C294 1.530 . S
C297 H360 0.961 . S
C297 H361 0.960 . S
C297 H362 0.960 . S
C298 C299 1.530 . S
C298 H364 0.961 . S
C298 H365 0.961 . S
C298 H366 0.959 . S
C299 C298 1.530 . S
C299 O327 1.412 . S
C299 H363 0.980 . S
C300 C301 1.288 . S
C300 C305 1.377 . S
C300 O327 1.393 . S
C301 C300 1.288 . S
C301 C302 1.369 . S
C301 H367 0.932 . S
C302 C301 1.369 . S
C302 C303 1.398 . S
C302 C306 1.527 . S
C303 C302 1.398 . S
C303 C304 1.380 . S
C303 C317 1.497 . S
C304 C303 1.380 . S
C304 C305 1.383 . S
C304 C307 1.603 . S
C305 C300 1.377 . S
C305 C304 1.383 . S
C305 H368 0.929 . S
C306 C302 1.527 . S
C306 H369 0.961 . S
C306 H370 0.959 . S
C306 H371 0.959 . S
C307 C304 1.603 . S
C307 H372 0.960 . S
C307 H373 0.962 . S
C307 H374 0.961 . S
C308 C275 1.587 . S
C308 C309 1.360 . S
C308 C321 1.412 . S
C309 C308 1.360 . S
C309 C310 1.365 . S
C309 H375 0.929 . S
C310 C285 1.553 . S
C310 C309 1.365 . S
C310 C311 1.404 . S
C311 C310 1.404 . S
C311 C312 1.395 . S
C311 C322 1.451 . S
C312 C311 1.395 . S
C312 C313 1.322 . S
C312 H376 0.930 . S
C313 C312 1.322 . S
C313 C314 1.459 . S
C313 H377 0.929 . S
C314 C313 1.459 . S
C314 C315 1.445 . S
C314 C323 1.395 . S
C315 C293 1.432 . S
C315 C314 1.445 . S
C315 C316 1.370 . S
C316 C315 1.370 . S
C316 C317 1.438 . S
C316 H378 0.930 . S
C317 C303 1.497 . S
C317 C316 1.438 . S
C317 C318 1.360 . S
C318 C317 1.360 . S
C318 C319 1.401 . S
C318 C323 1.446 . S
C319 C318 1.401 . S
C319 C320 1.347 . S
C319 H379 0.929 . S
C320 C319 1.347 . S
C320 C321 1.455 . S
C320 H380 0.930 . S
C321 C308 1.412 . S
C321 C320 1.455 . S
C321 C322 1.331 . S
C322 C311 1.451 . S
C322 C321 1.331 . S
C322 C323 1.497 . S
C323 C314 1.395 . S
C323 C318 1.446 . S
C323 C322 1.497 . S
C324 C325 1.582 . S
C324 H381 0.962 . S
C324 H382 0.959 . S
C324 H383 0.958 . S
C325 C324 1.582 . S
C325 O328 1.458 . S
C325 H354 0.980 . S
O326 C271 1.426 . S
O326 C272 1.334 . S
O327 C299 1.412 . S
O327 C300 1.393 . S
O328 C290 1.435 . S
O328 C325 1.458 . S
O329 C281 1.468 . S
O329 C282 1.408 . S
H330 C271 0.980 . S
H331 C270 0.959 . S
H332 C270 0.959 . S
H333 C270 0.960 . S
H334 C273 0.929 . S
H335 C277 0.929 . S
H336 C278 0.959 . S
H337 C278 0.961 . S
H338 C278 0.961 . S
H339 C279 0.960 . S
H340 C279 0.960 . S
H341 C279 0.961 . S
H342 C281 0.980 . S
H343 C280 0.961 . S
H344 C280 0.960 . S
H345 C280 0.959 . S
H346 C283 0.930 . S
H347 C287 0.931 . S
H348 C288 0.959 . S
H349 C288 0.961 . S
H350 C288 0.959 . S
H351 C289 0.960 . S
H352 C289 0.960 . S
H353 C289 0.960 . S
H354 C325 0.980 . S
H355 C291 0.930 . S
H356 C295 0.930 . S
H357 C296 0.961 . S
H358 C296 0.960 . S
H359 C296 0.958 . S
H360 C297 0.961 . S
H361 C297 0.960 . S
H362 C297 0.960 . S
H363 C299 0.980 . S
H364 C298 0.961 . S
H365 C298 0.961 . S
H366 C298 0.959 . S
H367 C301 0.932 . S
H368 C305 0.929 . S
H369 C306 0.961 . S
H370 C306 0.959 . S
H371 C306 0.959 . S
H372 C307 0.960 . S
H373 C307 0.962 . S
H374 C307 0.961 . S
H375 C309 0.929 . S
H376 C312 0.930 . S
H377 C313 0.929 . S
H378 C316 0.930 . S
H379 C319 0.929 . S
H380 C320 0.930 . S
H381 C324 0.962 . S
H382 C324 0.959 . S
H383 C324 0.958 . S
H384 C402 0.951 . S
H385 C404 0.951 . S
H386 C406 0.950 . S
H387 C407 0.950 . S
H388 C409 0.950 1_655 S
H389 C412 0.950 . S
H390 C413 0.950 . S
H391 C415 0.950 . S
H392 C416 0.950 . S
H393 C417 0.951 1_655 S
H394 C419 0.951 1_655 S
H395 C421 0.950 . S
H396 C422 0.950 . S
H397 C424 0.950 . S
H398 C427 0.950 . S
H399 C428 0.950 . S
H400 C430 0.950 . S
H401 C431 0.950 . S
C402 H384 0.951 . S
C402 C403 1.366 . S
C402 C404 1.388 . S
C403 C402 1.366 . S
C403 C407 1.385 . S
C404 H385 0.951 . S
C404 C402 1.388 . S
C404 C405 1.366 . S
C405 C404 1.366 . S
C405 C406 1.414 . S
C405 C408 1.499 . S
C406 H386 0.950 . S
C406 C405 1.414 . S
C406 C407 1.374 . S
C407 H387 0.950 . S
C407 C403 1.385 . S
C407 C406 1.374 . S
C408 C405 1.499 . S
C408 C409 1.373 . S
C408 C410 1.389 . S
C409 H388 0.950 1_455 S
C409 C408 1.373 . S
C409 C425 1.377 . S
C410 C408 1.389 . S
C410 C411 1.524 . S
C410 C424 1.377 . S
C411 C410 1.524 . S
C411 C412 1.397 . S
C411 C416 1.363 . S
C412 H389 0.950 . S
C412 C411 1.397 . S
C412 C413 1.334 . S
C413 H390 0.950 . S
C413 C412 1.334 . S
C413 C414 1.287 . S
C414 C413 1.287 . S
C414 C415 1.524 . S
C414 H433 0.913 . S
C415 H391 0.950 . S
C415 C414 1.524 . S
C415 C416 1.415 . S
C416 H392 0.950 . S
C416 C411 1.363 . S
C416 C415 1.415 . S
C417 H393 0.951 1_455 S
C417 C418 1.366 . S
C417 C419 1.388 . S
C418 C417 1.366 . S
C418 C422 1.385 . S
C419 H394 0.951 1_455 S
C419 C417 1.388 . S
C419 C420 1.366 . S
C420 C419 1.366 . S
C420 C421 1.414 . S
C420 C423 1.499 . S
C421 H395 0.950 . S
C421 C420 1.414 . S
C421 C422 1.374 . S
C422 H396 0.950 . S
C422 C418 1.385 . S
C422 C421 1.374 . S
C423 C420 1.499 . S
C423 C424 1.373 . S
C423 C425 1.389 . S
C424 H397 0.950 . S
C424 C410 1.377 . S
C424 C423 1.373 . S
C425 C409 1.377 . S
C425 C423 1.389 . S
C425 C426 1.524 1_455 S
C426 C425 1.524 1_655 S
C426 C427 1.397 . S
C426 C431 1.363 . S
C427 H398 0.950 . S
C427 C426 1.397 . S
C427 C428 1.334 . S
C428 H399 0.950 . S
C428 C427 1.334 . S
C428 C429 1.287 . S
C429 C428 1.287 . S
C429 C430 1.524 . S
C429 H432 0.999 . S
C430 H400 0.950 . S
C430 C429 1.524 . S
C430 C431 1.415 . S
C431 H401 0.950 . S
C431 C426 1.363 . S
C431 C430 1.415 . S
H432 C429 0.999 . S
H433 C414 0.913 . S
H434 C452 0.964 . S
H435 C454 0.956 . S
H436 C456 0.950 . S
H437 C457 0.950 . S
H438 C459 0.950 . S
H439 C462 0.950 . S
H440 C463 0.950 . S
H441 C465 0.950 . S
H442 C466 0.950 . S
H443 C467 0.951 . S
H444 C469 0.951 . S
H445 C471 0.950 1_565 S
H446 C472 0.950 1_565 S
H447 C474 0.950 . S
H448 C477 0.950 . S
H449 C478 0.950 . S
H450 C480 0.950 . S
H451 C481 0.950 . S
C452 H434 0.964 . S
C452 C453 1.366 . S
C452 C454 1.388 . S
C453 C452 1.366 . S
C453 C457 1.385 . S
C454 H435 0.956 . S
C454 C452 1.388 . S
C454 C455 1.366 . S
C455 C454 1.366 . S
C455 C456 1.414 . S
C455 C458 1.499 . S
C456 H436 0.950 . S
C456 C455 1.414 . S
C456 C457 1.374 . S
C457 H437 0.950 . S
C457 C453 1.385 . S
C457 C456 1.374 . S
C458 C455 1.499 . S
C458 C459 1.373 . S
C458 C460 1.389 . S
C459 H438 0.950 . S
C459 C458 1.373 . S
C459 C475 1.377 . S
C460 C458 1.389 . S
C460 C461 1.524 . S
C460 C474 1.377 . S
C461 C460 1.524 . S
C461 C462 1.397 . S
C461 C466 1.363 1_545 S
C462 H439 0.950 . S
C462 C461 1.397 . S
C462 C463 1.334 . S
C463 H440 0.950 . S
C463 C462 1.334 . S
C463 C464 1.287 . S
C464 C463 1.287 . S
C464 C465 1.524 1_545 S
C464 H483 0.913 . S
C465 H441 0.950 . S
C465 C464 1.524 1_565 S
C465 C466 1.415 . S
C466 H442 0.950 . S
C466 C461 1.363 1_565 S
C466 C465 1.415 . S
C467 H443 0.951 . S
C467 C468 1.366 . S
C467 C469 1.388 . S
C468 C467 1.366 . S
C468 C472 1.385 . S
C469 H444 0.951 . S
C469 C467 1.388 . S
C469 C470 1.366 . S
C470 C469 1.366 . S
C470 C471 1.414 . S
C470 C473 1.499 . S
C471 H445 0.950 1_545 S
C471 C470 1.414 . S
C471 C472 1.374 . S
C472 H446 0.950 1_545 S
C472 C468 1.385 . S
C472 C471 1.374 . S
C473 C470 1.499 . S
C473 C474 1.373 . S
C473 C475 1.389 . S
C474 H447 0.950 . S
C474 C460 1.377 . S
C474 C473 1.373 . S
C475 C459 1.377 . S
C475 C473 1.389 . S
C475 C476 1.524 . S
C476 C475 1.524 . S
C476 C477 1.397 . S
C476 C481 1.363 . S
C477 H448 0.950 . S
C477 C476 1.397 . S
C477 C478 1.334 . S
C478 H449 0.950 . S
C478 C477 1.334 . S
C478 C479 1.287 . S
C479 C478 1.287 . S
C479 C480 1.524 . S
C479 H482 0.999 . S
C480 H450 0.950 . S
C480 C479 1.524 . S
C480 C481 1.415 . S
C481 H451 0.950 . S
C481 C476 1.363 . S
C481 C480 1.415 . S
H482 C479 0.999 . S
H483 C464 0.913 . S
H484 C502 0.951 . S
H485 C504 0.951 . S
H486 C506 0.950 . S
H487 C507 0.950 . S
H488 C509 0.950 . S
H489 C512 0.950 . S
H490 C513 0.950 . S
H491 C515 0.950 . S
H492 C516 0.950 . S
H493 C517 0.951 . S
H494 C519 0.951 . S
H495 C521 0.950 . S
H496 C522 0.950 . S
H497 C524 0.950 . S
H498 C527 0.950 . S
H499 C528 0.950 . S
H500 C530 0.950 . S
H501 C531 0.950 . S
C502 H484 0.951 . S
C502 C503 1.366 . S
C502 C504 1.388 . S
C503 C502 1.366 . S
C503 C507 1.385 . S
C504 H485 0.951 . S
C504 C502 1.388 . S
C504 C505 1.366 . S
C505 C504 1.366 . S
C505 C506 1.414 . S
C505 C508 1.499 . S
C506 H486 0.950 . S
C506 C505 1.414 . S
C506 C507 1.374 . S
C507 H487 0.950 . S
C507 C503 1.385 . S
C507 C506 1.374 . S
C508 C505 1.499 . S
C508 C509 1.373 . S
C508 C510 1.389 . S
C509 H488 0.950 . S
C509 C508 1.373 . S
C509 C525 1.377 . S
C510 C508 1.389 . S
C510 C511 1.524 . S
C510 C524 1.377 . S
C511 C510 1.524 . S
C511 C512 1.397 . S
C511 C516 1.363 . S
C512 H489 0.950 . S
C512 C511 1.397 . S
C512 C513 1.334 . S
C513 H490 0.950 . S
C513 C512 1.334 . S
C513 C514 1.287 . S
C514 C513 1.287 . S
C514 C515 1.524 . S
C514 H533 0.913 . S
C515 H491 0.950 . S
C515 C514 1.524 . S
C515 C516 1.415 . S
C516 H492 0.950 . S
C516 C511 1.363 . S
C516 C515 1.415 . S
C517 H493 0.951 . S
C517 C518 1.366 . S
C517 C519 1.388 . S
C518 C517 1.366 . S
C518 C522 1.385 . S
C519 H494 0.951 . S
C519 C517 1.388 . S
C519 C520 1.366 . S
C520 C519 1.366 . S
C520 C521 1.414 . S
C520 C523 1.499 . S
C521 H495 0.950 . S
C521 C520 1.414 . S
C521 C522 1.374 . S
C522 H496 0.950 . S
C522 C518 1.385 . S
C522 C521 1.374 . S
C523 C520 1.499 . S
C523 C524 1.373 . S
C523 C525 1.389 . S
C524 H497 0.950 . S
C524 C510 1.377 . S
C524 C523 1.373 . S
C525 C509 1.377 . S
C525 C523 1.389 . S
C525 C526 1.524 . S
C526 C525 1.524 . S
C526 C527 1.397 . S
C526 C531 1.363 . S
C527 H498 0.950 . S
C527 C526 1.397 . S
C527 C528 1.334 . S
C528 H499 0.950 . S
C528 C527 1.334 . S
C528 C529 1.287 . S
C529 C528 1.287 . S
C529 C530 1.524 . S
C529 H532 0.999 . S
C530 H500 0.950 . S
C530 C529 1.524 . S
C530 C531 1.415 . S
C531 H501 0.950 . S
C531 C526 1.363 . S
C531 C530 1.415 . S
H532 C529 0.999 . S
H533 C514 0.913 . S
H534 C552 0.951 . S
H535 C554 0.951 . S
H536 C556 0.950 . S
H537 C557 0.950 . S
H538 C559 0.950 . S
H539 C562 0.950 . S
H540 C563 0.950 . S
H541 C565 0.950 . S
H542 C566 0.950 . S
H543 C567 0.951 . S
H544 C569 0.951 . S
H545 C571 0.950 . S
H546 C572 0.950 . S
H547 C574 0.950 . S
H548 C577 0.950 . S
H549 C578 0.950 . S
H550 C580 0.950 . S
H551 C581 0.950 . S
C552 H534 0.951 . S
C552 C553 1.366 . S
C552 C554 1.388 . S
C553 C552 1.366 . S
C553 C557 1.385 . S
C554 H535 0.951 . S
C554 C552 1.388 . S
C554 C555 1.366 . S
C555 C554 1.366 . S
C555 C556 1.414 . S
C555 C558 1.499 . S
C556 H536 0.950 . S
C556 C555 1.414 . S
C556 C557 1.374 . S
C557 H537 0.950 . S
C557 C553 1.385 . S
C557 C556 1.374 . S
C558 C555 1.499 . S
C558 C559 1.373 . S
C558 C560 1.389 . S
C559 H538 0.950 . S
C559 C558 1.373 . S
C559 C575 1.377 . S
C560 C558 1.389 . S
C560 C561 1.524 . S
C560 C574 1.377 . S
C561 C560 1.524 . S
C561 C562 1.397 . S
C561 C566 1.363 . S
C562 H539 0.950 . S
C562 C561 1.397 . S
C562 C563 1.334 . S
C563 H540 0.950 . S
C563 C562 1.334 . S
C563 C564 1.287 . S
C564 C563 1.287 . S
C564 C565 1.524 . S
C564 H583 0.913 . S
C565 H541 0.950 . S
C565 C564 1.524 . S
C565 C566 1.415 . S
C566 H542 0.950 . S
C566 C561 1.363 . S
C566 C565 1.415 . S
C567 H543 0.951 . S
C567 C568 1.366 . S
C567 C569 1.388 . S
C568 C567 1.366 . S
C568 C572 1.385 . S
C569 H544 0.951 . S
C569 C567 1.388 . S
C569 C570 1.366 . S
C570 C569 1.366 . S
C570 C571 1.414 . S
C570 C573 1.499 . S
C571 H545 0.950 . S
C571 C570 1.414 . S
C571 C572 1.374 . S
C572 H546 0.950 . S
C572 C568 1.385 . S
C572 C571 1.374 . S
C573 C570 1.499 . S
C573 C574 1.373 . S
C573 C575 1.389 . S
C574 H547 0.950 . S
C574 C560 1.377 . S
C574 C573 1.373 . S
C575 C559 1.377 . S
C575 C573 1.389 . S
C575 C576 1.524 . S
C576 C575 1.524 . S
C576 C577 1.397 . S
C576 C581 1.363 . S
C577 H548 0.950 . S
C577 C576 1.397 . S
C577 C578 1.334 . S
C578 H549 0.950 . S
C578 C577 1.334 . S
C578 C579 1.287 . S
C579 C578 1.287 . S
C579 C580 1.524 . S
C579 H582 0.999 . S
C580 H550 0.950 . S
C580 C579 1.524 . S
C580 C581 1.415 . S
C581 H551 0.950 . S
C581 C576 1.363 . S
C581 C580 1.415 . S
H582 C579 0.999 . S
H583 C564 0.913 . S
H584 C602 0.951 . S
H585 C604 0.951 . S
H586 C606 0.950 . S
H587 C607 0.950 . S
H588 C609 0.950 . S
H589 C612 0.950 1_545 S
H590 C613 0.950 . S
H591 C615 0.950 . S
H592 C616 0.950 . S
H593 C617 0.951 . S
H594 C619 0.951 . S
H595 C621 0.950 . S
H596 C622 0.950 . S
H597 C624 0.950 . S
H598 C627 0.950 . S
H599 C628 0.950 . S
H600 C630 0.950 . S
H601 C631 0.950 . S
C602 H584 0.951 . S
C602 C603 1.366 . S
C602 C604 1.388 . S
C603 C602 1.366 . S
C603 C607 1.385 . S
C604 H585 0.951 . S
C604 C602 1.388 . S
C604 C605 1.366 . S
C605 C604 1.366 . S
C605 C606 1.414 . S
C605 C608 1.499 . S
C606 H586 0.950 . S
C606 C605 1.414 . S
C606 C607 1.374 . S
C607 H587 0.950 . S
C607 C603 1.385 . S
C607 C606 1.374 . S
C608 C605 1.499 . S
C608 C609 1.373 . S
C608 C610 1.389 . S
C609 H588 0.950 . S
C609 C608 1.373 . S
C609 C625 1.377 . S
C610 C608 1.389 . S
C610 C611 1.524 . S
C610 C624 1.377 . S
C611 C610 1.524 . S
C611 C612 1.397 1_545 S
C611 C616 1.363 1_545 S
C612 H589 0.950 1_565 S
C612 C611 1.397 1_565 S
C612 C613 1.334 . S
C613 H590 0.950 . S
C613 C612 1.334 . S
C613 C614 1.287 . S
C614 C613 1.287 . S
C614 C615 1.524 . S
C614 H633 0.913 . S
C615 H591 0.950 . S
C615 C614 1.524 . S
C615 C616 1.415 . S
C616 H592 0.950 . S
C616 C611 1.363 1_565 S
C616 C615 1.415 . S
C617 H593 0.951 . S
C617 C618 1.366 . S
C617 C619 1.388 . S
C618 C617 1.366 . S
C618 C622 1.385 . S
C619 H594 0.951 . S
C619 C617 1.388 . S
C619 C620 1.366 . S
C620 C619 1.366 . S
C620 C621 1.414 . S
C620 C623 1.499 . S
C621 H595 0.950 . S
C621 C620 1.414 . S
C621 C622 1.374 . S
C622 H596 0.950 . S
C622 C618 1.385 . S
C622 C621 1.374 . S
C623 C620 1.499 . S
C623 C624 1.373 . S
C623 C625 1.389 . S
C624 H597 0.950 . S
C624 C610 1.377 . S
C624 C623 1.373 . S
C625 C609 1.377 . S
C625 C623 1.389 . S
C625 C626 1.524 . S
C626 C625 1.524 . S
C626 C627 1.397 . S
C626 C631 1.363 . S
C627 H598 0.950 . S
C627 C626 1.397 . S
C627 C628 1.334 . S
C628 H599 0.950 . S
C628 C627 1.334 . S
C628 C629 1.287 . S
C629 C628 1.287 . S
C629 C630 1.524 . S
C629 H632 0.999 . S
C630 H600 0.950 . S
C630 C629 1.524 . S
C630 C631 1.415 . S
C631 H601 0.950 . S
C631 C626 1.363 . S
C631 C630 1.415 . S
H632 C629 0.999 . S
H633 C614 0.913 . S
H634 C652 0.951 . S
H635 C654 0.951 . S
H636 C656 0.950 . S
H637 C657 0.950 . S
H638 C659 0.950 . S
H639 C662 0.950 . S
H640 C663 0.950 . S
H641 C665 0.950 . S
H642 C666 0.950 . S
H643 C667 0.951 . S
H644 C669 0.951 . S
H645 C671 0.950 . S
H646 C672 0.950 . S
H647 C674 0.950 . S
H648 C677 0.950 . S
H649 C678 0.950 . S
H650 C680 0.950 . S
H651 C681 0.950 . S
C652 H634 0.951 . S
C652 C653 1.366 . S
C652 C654 1.388 . S
C653 C652 1.366 . S
C653 C657 1.385 . S
C654 H635 0.951 . S
C654 C652 1.388 . S
C654 C655 1.366 . S
C655 C654 1.366 . S
C655 C656 1.414 . S
C655 C658 1.499 . S
C656 H636 0.950 . S
C656 C655 1.414 . S
C656 C657 1.374 . S
C657 H637 0.950 . S
C657 C653 1.385 . S
C657 C656 1.374 . S
C658 C655 1.499 . S
C658 C659 1.373 . S
C658 C660 1.389 . S
C659 H638 0.950 . S
C659 C658 1.373 . S
C659 C675 1.377 . S
C660 C658 1.389 . S
C660 C661 1.524 . S
C660 C674 1.377 . S
C661 C660 1.524 . S
C661 C662 1.397 . S
C661 C666 1.363 . S
C662 H639 0.950 . S
C662 C661 1.397 . S
C662 C663 1.334 . S
C663 H640 0.950 . S
C663 C662 1.334 . S
C663 C664 1.287 . S
C664 C663 1.287 . S
C664 C665 1.524 . S
C664 H683 0.913 . S
C665 H641 0.950 . S
C665 C664 1.524 . S
C665 C666 1.415 . S
C666 H642 0.950 . S
C666 C661 1.363 . S
C666 C665 1.415 . S
C667 H643 0.951 . S
C667 C668 1.366 . S
C667 C669 1.388 . S
C668 C667 1.366 . S
C668 C672 1.385 . S
C669 H644 0.951 . S
C669 C667 1.388 . S
C669 C670 1.366 . S
C670 C669 1.366 . S
C670 C671 1.414 . S
C670 C673 1.499 . S
C671 H645 0.950 . S
C671 C670 1.414 . S
C671 C672 1.374 . S
C672 H646 0.950 . S
C672 C668 1.385 . S
C672 C671 1.374 . S
C673 C670 1.499 . S
C673 C674 1.373 . S
C673 C675 1.389 . S
C674 H647 0.950 . S
C674 C660 1.377 . S
C674 C673 1.373 . S
C675 C659 1.377 . S
C675 C673 1.389 . S
C675 C676 1.524 . S
C676 C675 1.524 . S
C676 C677 1.397 . S
C676 C681 1.363 . S
C677 H648 0.950 . S
C677 C676 1.397 . S
C677 C678 1.334 . S
C678 H649 0.950 . S
C678 C677 1.334 . S
C678 C679 1.287 . S
C679 C678 1.287 . S
C679 C680 1.524 . S
C679 H682 0.999 . S
C680 H650 0.950 . S
C680 C679 1.524 . S
C680 C681 1.415 . S
C681 H651 0.950 . S
C681 C676 1.363 . S
C681 C680 1.415 . S
H682 C679 0.999 . S
H683 C664 0.913 . S
H684 C702 0.951 1_565 S
H685 C704 0.951 1_565 S
H686 C706 0.950 . S
H687 C707 0.950 . S
H688 C709 0.950 . S
H689 C712 0.950 . S
H690 C713 0.950 . S
H691 C715 0.950 1_565 S
H692 C716 0.950 1_565 S
H693 C717 0.951 . S
H694 C719 0.951 . S
H695 C721 0.950 1_565 S
H696 C722 0.950 1_565 S
H697 C724 0.950 . S
H698 C727 0.950 1_565 S
H699 C728 0.950 1_565 S
H700 C730 0.950 . S
H701 C731 0.950 . S
C702 H684 0.951 1_545 S
C702 C703 1.366 . S
C702 C704 1.388 . S
C703 C702 1.366 . S
C703 C707 1.385 . S
C704 H685 0.951 1_545 S
C704 C702 1.388 . S
C704 C705 1.366 . S
C705 C704 1.366 . S
C705 C706 1.414 . S
C705 C708 1.499 . S
C706 H686 0.950 . S
C706 C705 1.414 . S
C706 C707 1.374 . S
C707 H687 0.950 . S
C707 C703 1.385 . S
C707 C706 1.374 . S
C708 C705 1.499 . S
C708 C709 1.373 . S
C708 C710 1.389 . S
C709 H688 0.950 . S
C709 C708 1.373 . S
C709 C725 1.377 . S
C710 C708 1.389 . S
C710 C711 1.524 . S
C710 C724 1.377 . S
C711 C710 1.524 . S
C711 C712 1.397 . S
C711 C716 1.363 . S
C712 H689 0.950 . S
C712 C711 1.397 . S
C712 C713 1.334 . S
C713 H690 0.950 . S
C713 C712 1.334 . S
C713 C714 1.287 . S
C714 C713 1.287 . S
C714 C715 1.524 . S
C714 H733 0.913 . S
C715 H691 0.950 1_545 S
C715 C714 1.524 . S
C715 C716 1.415 . S
C716 H692 0.950 1_545 S
C716 C711 1.363 . S
C716 C715 1.415 . S
C717 H693 0.951 . S
C717 C718 1.366 . S
C717 C719 1.388 . S
C718 C717 1.366 . S
C718 C722 1.385 . S
C719 H694 0.951 . S
C719 C717 1.388 . S
C719 C720 1.366 . S
C720 C719 1.366 . S
C720 C721 1.414 . S
C720 C723 1.499 . S
C721 H695 0.950 1_545 S
C721 C720 1.414 . S
C721 C722 1.374 . S
C722 H696 0.950 1_545 S
C722 C718 1.385 . S
C722 C721 1.374 . S
C723 C720 1.499 . S
C723 C724 1.373 . S
C723 C725 1.389 . S
C724 H697 0.950 . S
C724 C710 1.377 . S
C724 C723 1.373 . S
C725 C709 1.377 . S
C725 C723 1.389 . S
C725 C726 1.524 . S
C726 C725 1.524 . S
C726 C727 1.397 . S
C726 C731 1.363 . S
C727 H698 0.950 1_545 S
C727 C726 1.397 . S
C727 C728 1.334 . S
C728 H699 0.950 1_545 S
C728 C727 1.334 . S
C728 C729 1.287 . S
C729 C728 1.287 . S
C729 C730 1.524 . S
C729 H732 0.999 . S
C730 H700 0.950 . S
C730 C729 1.524 . S
C730 C731 1.415 . S
C731 H701 0.950 . S
C731 C726 1.363 . S
C731 C730 1.415 . S
H732 C729 0.999 . S
H733 C714 0.913 . S
H734 C752 0.926 1_455 S
H735 C754 0.951 . S
H736 C756 0.950 . S
H737 C757 0.950 . S
H738 C759 0.950 . S
H739 C762 0.950 1_554 S
H740 C763 0.950 1_545 S
H741 C765 0.950 . S
H742 C766 0.950 . S
H743 C767 0.951 . S
H744 C769 0.951 . S
H745 C771 0.950 . S
H746 C772 0.950 . S
H747 C774 0.950 . S
H748 C777 0.950 . S
H749 C778 0.950 . S
H750 C780 0.950 . S
H751 C781 0.950 . S
C752 H734 0.926 1_655 S
C752 C753 1.381 . S
C752 C754 1.397 . S
C753 C752 1.381 . S
C753 C757 1.385 . S
C754 H735 0.951 . S
C754 C752 1.397 . S
C754 C755 1.366 . S
C755 C754 1.366 . S
C755 C756 1.414 . S
C755 C758 1.499 . S
C756 H736 0.950 . S
C756 C755 1.414 . S
C756 C757 1.374 . S
C757 H737 0.950 . S
C757 C753 1.385 . S
C757 C756 1.374 . S
C758 C755 1.499 . S
C758 C759 1.373 . S
C758 C760 1.389 1_554 S
C759 H738 0.950 . S
C759 C758 1.373 . S
C759 C775 1.377 . S
C760 C758 1.389 1_556 S
C760 C761 1.524 . S
C760 C774 1.377 . S
C761 C760 1.524 . S
C761 C762 1.397 . S
C761 C766 1.363 . S
C762 H739 0.950 1_556 S
C762 C761 1.397 . S
C762 C763 1.334 . S
C763 H740 0.950 1_565 S
C763 C762 1.334 . S
C763 C764 1.287 1_565 S
C764 C763 1.287 1_545 S
C764 C765 1.524 1_545 S
C764 H783 0.913 . S
C765 H741 0.950 . S
C765 C764 1.524 1_565 S
C765 C766 1.415 . S
C766 H742 0.950 . S
C766 C761 1.363 . S
C766 C765 1.415 . S
C767 H743 0.951 . S
C767 C768 1.366 . S
C767 C769 1.388 . S
C768 C767 1.366 . S
C768 C772 1.385 . S
C769 H744 0.951 . S
C769 C767 1.388 . S
C769 C770 1.366 . S
C770 C769 1.366 . S
C770 C771 1.414 . S
C770 C773 1.499 . S
C771 H745 0.950 . S
C771 C770 1.414 . S
C771 C772 1.374 . S
C772 H746 0.950 . S
C772 C768 1.385 . S
C772 C771 1.374 . S
C773 C770 1.499 . S
C773 C774 1.373 . S
C773 C775 1.389 1_556 S
C774 H747 0.950 . S
C774 C760 1.377 . S
C774 C773 1.373 . S
C775 C759 1.377 . S
C775 C773 1.389 1_554 S
C775 C776 1.524 . S
C776 C775 1.524 . S
C776 C777 1.397 . S
C776 C781 1.363 . S
C777 H748 0.950 . S
C777 C776 1.397 . S
C777 C778 1.334 . S
C778 H749 0.950 . S
C778 C777 1.334 . S
C778 C779 1.287 . S
C779 C778 1.287 . S
C779 C780 1.524 . S
C779 H782 0.999 . S
C780 H750 0.950 . S
C780 C779 1.524 . S
C780 C781 1.415 . S
C781 H751 0.950 . S
C781 C776 1.363 . S
C781 C780 1.415 . S
H782 C779 0.999 . S
H783 C764 0.913 . S
H784 C802 0.951 . S
H785 C804 0.951 . S
H786 C806 0.950 . S
H787 C807 0.950 1_545 S
H788 C809 0.950 . S
H789 C812 0.950 . S
H790 C813 0.974 . S
H791 C815 0.950 . S
H792 C816 0.950 . S
H793 C817 0.951 . S
H794 C819 0.951 . S
H795 C821 0.950 . S
H796 C822 0.950 . S
H797 C824 0.950 . S
H798 C827 0.950 . S
H799 C828 0.950 . S
H800 C830 0.950 . S
H801 C831 0.950 . S
C802 H784 0.951 . S
C802 C803 1.366 . S
C802 C804 1.388 . S
C803 C802 1.366 . S
C803 C807 1.385 . S
C804 H785 0.951 . S
C804 C802 1.388 . S
C804 C805 1.366 . S
C805 C804 1.366 . S
C805 C806 1.414 . S
C805 C808 1.499 . S
C806 H786 0.950 . S
C806 C805 1.414 . S
C806 C807 1.374 . S
C807 H787 0.950 1_565 S
C807 C803 1.385 . S
C807 C806 1.374 . S
C808 C805 1.499 . S
C808 C809 1.373 1_455 S
C808 C810 1.389 . S
C809 H788 0.950 . S
C809 C808 1.373 1_655 S
C809 C825 1.377 . S
C810 C808 1.389 . S
C810 C811 1.524 . S
C810 C824 1.377 . S
C811 C810 1.524 . S
C811 C812 1.397 . S
C811 C816 1.363 . S
C812 H789 0.950 . S
C812 C811 1.397 . S
C812 C813 1.329 1_565 S
C813 H790 0.974 . S
C813 C812 1.329 1_545 S
C813 C814 1.268 1_545 S
C814 C813 1.268 1_565 S
C814 C815 1.524 . S
C814 H833 0.913 1_565 S
C815 H791 0.950 . S
C815 C814 1.524 . S
C815 C816 1.415 . S
C816 H792 0.950 . S
C816 C811 1.363 . S
C816 C815 1.415 . S
C817 H793 0.951 . S
C817 C818 1.366 . S
C817 C819 1.388 . S
C818 C817 1.366 . S
C818 C822 1.385 . S
C819 H794 0.951 . S
C819 C817 1.388 . S
C819 C820 1.366 . S
C820 C819 1.366 . S
C820 C821 1.414 . S
C820 C823 1.499 . S
C821 H795 0.950 . S
C821 C820 1.414 . S
C821 C822 1.374 . S
C822 H796 0.950 . S
C822 C818 1.385 . S
C822 C821 1.374 . S
C823 C820 1.499 . S
C823 C824 1.373 . S
C823 C825 1.389 1_455 S
C824 H797 0.950 . S
C824 C810 1.377 . S
C824 C823 1.373 . S
C825 C809 1.377 . S
C825 C823 1.389 1_655 S
C825 C826 1.524 . S
C826 C825 1.524 . S
C826 C827 1.397 . S
C826 C831 1.363 . S
C827 H798 0.950 . S
C827 C826 1.397 . S
C827 C828 1.334 . S
C828 H799 0.950 . S
C828 C827 1.334 . S
C828 C829 1.287 . S
C829 C828 1.287 . S
C829 C830 1.524 . S
C829 H832 0.999 . S
C830 H800 0.950 . S
C830 C829 1.524 . S
C830 C831 1.415 . S
C831 H801 0.950 . S
C831 C826 1.363 . S
C831 C830 1.415 . S
H832 C829 0.999 . S
H833 C814 0.913 1_545 S
H834 C852 0.951 . S
H835 C854 0.951 . S
H836 C856 0.950 . S
H837 C857 0.950 . S
H838 C859 0.950 . S
H839 C862 0.950 . S
H840 C863 0.950 . S
H841 C865 0.959 . S
H842 C866 0.950 . S
H843 C867 0.951 1_565 S
H844 C869 0.951 1_565 S
H845 C871 0.950 . S
H846 C872 0.950 . S
H847 C874 0.950 . S
H848 C877 0.950 . S
H849 C878 0.950 . S
H850 C880 0.950 . S
H851 C881 0.950 . S
C852 H834 0.951 . S
C852 C853 1.366 . S
C852 C854 1.388 . S
C853 C852 1.366 . S
C853 C857 1.385 1_545 S
C854 H835 0.951 . S
C854 C852 1.388 . S
C854 C855 1.366 . S
C855 C854 1.366 . S
C855 C856 1.414 1_545 S
C855 C858 1.499 . S
C856 H836 0.950 . S
C856 C855 1.414 1_565 S
C856 C857 1.374 . S
C857 H837 0.950 . S
C857 C853 1.385 1_565 S
C857 C856 1.374 . S
C858 C855 1.499 . S
C858 C859 1.373 . S
C858 C860 1.389 . S
C859 H838 0.950 . S
C859 C858 1.373 . S
C859 C875 1.377 . S
C860 C858 1.389 . S
C860 C861 1.524 1_545 S
C860 C874 1.377 . S
C861 C860 1.524 1_565 S
C861 C862 1.397 . S
C861 C866 1.363 1_565 S
C862 H839 0.950 . S
C862 C861 1.397 . S
C862 C863 1.334 . S
C863 H840 0.950 . S
C863 C862 1.334 . S
C863 C864 1.287 . S
C864 C863 1.287 . S
C864 C865 1.524 . S
C864 H883 0.913 . S
C865 H841 0.959 . S
C865 C864 1.524 . S
C865 C866 1.415 1_565 S
C866 H842 0.950 . S
C866 C861 1.363 1_545 S
C866 C865 1.415 1_545 S
C867 H843 0.951 1_545 S
C867 C868 1.366 . S
C867 C869 1.388 . S
C868 C867 1.366 . S
C868 C872 1.385 . S
C869 H844 0.951 1_545 S
C869 C867 1.388 . S
C869 C870 1.366 . S
C870 C869 1.366 . S
C870 C871 1.414 . S
C870 C873 1.499 . S
C871 H845 0.950 . S
C871 C870 1.414 . S
C871 C872 1.374 . S
C872 H846 0.950 . S
C872 C868 1.385 . S
C872 C871 1.374 . S
C873 C870 1.499 . S
C873 C874 1.373 . S
C873 C875 1.389 . S
C874 H847 0.950 . S
C874 C860 1.377 . S
C874 C873 1.373 . S
C875 C859 1.377 . S
C875 C873 1.389 . S
C875 C876 1.524 . S
C876 C875 1.524 . S
C876 C877 1.397 . S
C876 C881 1.363 . S
C877 H848 0.950 . S
C877 C876 1.397 . S
C877 C878 1.334 . S
C878 H849 0.950 . S
C878 C877 1.334 . S
C878 C879 1.287 . S
C879 C878 1.287 . S
C879 C880 1.524 . S
C879 H882 0.999 . S
C880 H850 0.950 . S
C880 C879 1.524 . S
C880 C881 1.415 . S
C881 H851 0.950 . S
C881 C876 1.363 . S
C881 C880 1.415 . S
H882 C879 0.999 . S
H883 C864 0.913 . S
H884 C902 0.951 . S
H885 C904 0.951 . S
H886 C906 0.950 . S
H887 C907 0.950 . S
H888 C909 0.950 . S
H889 C912 0.950 . S
H890 C913 0.950 . S
H891 C915 0.950 . S
H892 C916 0.950 . S
H893 C917 0.951 . S
H894 C919 0.951 . S
H895 C921 0.950 . S
H896 C922 0.950 . S
H897 C924 0.950 . S
H898 C927 0.950 . S
H899 C928 0.950 . S
H900 C930 0.950 . S
H901 C931 0.950 . S
C902 H884 0.951 . S
C902 C903 1.366 . S
C902 C904 1.388 . S
C903 C902 1.366 . S
C903 C907 1.385 . S
C904 H885 0.951 . S
C904 C902 1.388 . S
C904 C905 1.366 . S
C905 C904 1.366 . S
C905 C906 1.414 . S
C905 C908 1.499 . S
C906 H886 0.950 . S
C906 C905 1.414 . S
C906 C907 1.374 . S
C907 H887 0.950 . S
C907 C903 1.385 . S
C907 C906 1.374 . S
C908 C905 1.499 . S
C908 C909 1.373 1_554 S
C908 C910 1.389 . S
C909 H888 0.950 . S
C909 C908 1.373 1_556 S
C909 C925 1.377 . S
C910 C908 1.389 . S
C910 C911 1.524 . S
C910 C924 1.377 . S
C911 C910 1.524 . S
C911 C912 1.397 . S
C911 C916 1.363 . S
C912 H889 0.950 . S
C912 C911 1.397 . S
C912 C913 1.334 . S
C913 H890 0.950 . S
C913 C912 1.334 . S
C913 C914 1.287 . S
C914 C913 1.287 . S
C914 C915 1.524 . S
C914 H933 0.913 . S
C915 H891 0.950 . S
C915 C914 1.524 . S
C915 C916 1.415 . S
C916 H892 0.950 . S
C916 C911 1.363 . S
C916 C915 1.415 . S
C917 H893 0.951 . S
C917 C918 1.366 . S
C917 C919 1.388 . S
C918 C917 1.366 . S
C918 C922 1.385 . S
C919 H894 0.951 . S
C919 C917 1.388 . S
C919 C920 1.366 . S
C920 C919 1.366 . S
C920 C921 1.414 . S
C920 C923 1.499 . S
C921 H895 0.950 . S
C921 C920 1.414 . S
C921 C922 1.374 . S
C922 H896 0.950 . S
C922 C918 1.385 . S
C922 C921 1.374 . S
C923 C920 1.499 . S
C923 C924 1.373 1_556 S
C923 C925 1.389 . S
C924 H897 0.950 . S
C924 C910 1.377 . S
C924 C923 1.373 1_554 S
C925 C909 1.377 . S
C925 C923 1.389 . S
C925 C926 1.524 . S
C926 C925 1.524 . S
C926 C927 1.397 . S
C926 C931 1.363 . S
C927 H898 0.950 . S
C927 C926 1.397 . S
C927 C928 1.334 . S
C928 H899 0.950 . S
C928 C927 1.334 . S
C928 C929 1.287 . S
C929 C928 1.287 . S
C929 C930 1.524 . S
C929 H932 0.999 . S
C930 H900 0.950 . S
C930 C929 1.524 . S
C930 C931 1.415 . S
C931 H901 0.950 . S
C931 C926 1.363 . S
C931 C930 1.415 . S
H932 C929 0.999 . S
H933 C914 0.913 . S
H934 C952 0.951 1_655 S
H935 C954 0.951 1_655 S
H936 C956 0.950 . S
H937 C957 0.950 . S
H938 C959 0.950 . S
H939 C962 0.950 . S
H940 C963 0.950 . S
H941 C965 0.950 . S
H942 C966 0.950 . S
H943 C967 0.951 . S
H944 C969 0.951 . S
H945 C971 0.950 1_655 S
H946 C972 0.950 1_655 S
H947 C974 0.950 . S
H948 C977 0.950 . S
H949 C978 0.950 . S
H950 C980 0.950 . S
H951 C981 0.950 . S
C952 H934 0.951 1_455 S
C952 C953 1.366 . S
C952 C954 1.388 . S
C953 C952 1.366 . S
C953 C957 1.385 . S
C954 H935 0.951 1_455 S
C954 C952 1.388 . S
C954 C955 1.366 . S
C955 C954 1.366 . S
C955 C956 1.414 . S
C955 C958 1.499 . S
C956 H936 0.950 . S
C956 C955 1.414 . S
C956 C957 1.374 . S
C957 H937 0.950 . S
C957 C953 1.385 . S
C957 C956 1.374 . S
C958 C955 1.499 . S
C958 C959 1.373 . S
C958 C960 1.389 . S
C959 H938 0.950 . S
C959 C958 1.373 . S
C959 C975 1.377 . S
C960 C958 1.389 . S
C960 C961 1.524 . S
C960 C974 1.377 . S
C961 C960 1.524 . S
C961 C962 1.397 . S
C961 C966 1.363 1_455 S
C962 H939 0.950 . S
C962 C961 1.397 . S
C962 C963 1.334 . S
C963 H940 0.950 . S
C963 C962 1.334 . S
C963 C964 1.287 1_455 S
C964 C963 1.287 1_655 S
C964 C965 1.524 . S
C964 H983 0.913 . S
C965 H941 0.950 . S
C965 C964 1.524 . S
C965 C966 1.415 . S
C966 H942 0.950 . S
C966 C961 1.363 1_655 S
C966 C965 1.415 . S
C967 H943 0.951 . S
C967 C968 1.366 . S
C967 C969 1.388 . S
C968 C967 1.366 . S
C968 C972 1.385 . S
C969 H944 0.951 . S
C969 C967 1.388 . S
C969 C970 1.366 . S
C970 C969 1.366 . S
C970 C971 1.414 . S
C970 C973 1.499 . S
C971 H945 0.950 1_455 S
C971 C970 1.414 . S
C971 C972 1.374 . S
C972 H946 0.950 1_455 S
C972 C968 1.385 . S
C972 C971 1.374 . S
C973 C970 1.499 . S
C973 C974 1.373 . S
C973 C975 1.389 . S
C974 H947 0.950 . S
C974 C960 1.377 . S
C974 C973 1.373 . S
C975 C959 1.377 . S
C975 C973 1.389 . S
C975 C976 1.524 . S
C976 C975 1.524 . S
C976 C977 1.397 . S
C976 C981 1.363 . S
C977 H948 0.950 . S
C977 C976 1.397 . S
C977 C978 1.334 . S
C978 H949 0.950 . S
C978 C977 1.334 . S
C978 C979 1.287 . S
C979 C978 1.287 . S
C979 C980 1.524 . S
C979 H982 0.999 . S
C980 H950 0.950 . S
C980 C979 1.524 . S
C980 C981 1.415 . S
C981 H951 0.950 . S
C981 C976 1.363 . S
C981 C980 1.415 . S
H982 C979 0.999 . S
H983 C964 0.913 . S
C418 C97 1.001 . S
C403 C11 1.341 . S
C453 C25 1.422 . S
C468 C211 1.065 . S
C503 C41 1.164 . S
C518 C271 0.992 . S
C553 C7 1.226 1_565 S
C568 C71 1.008 . S
C618 C185 1.058 . S
C603 C21 1.304 . S
C653 C36 1.353 . S
C668 C281 0.828 . S
C718 C167 0.830 . S
C703 C39 1.319 . S
C753 C8 1.282 1_665 S
C768 C299 1.106 . S
C818 C43 1.037 . S
C803 C22 1.259 1_565 S
C868 C157 0.966 . S
C853 C35 1.208 . S
C918 C325 1.054 . S
C903 C13 1.400 . S
C953 C27 1.362 . S
C968 C53 0.872 . S
