# Generated by pormake.
# Topology zzz, (3,6)-cn, num edge types: 1
# Building blocks:
#     Node 0, Type 0, BuildingBlock: KAKCAD_clean_linker_0, # of connection points: 3
#     Node 1, Type 0, BuildingBlock: KAKCAD_clean_linker_0, # of connection points: 3
#     Node 2, Type 0, BuildingBlock: KAKCAD_clean_linker_0, # of connection points: 3
#     Node 3, Type 0, BuildingBlock: KAKCAD_clean_linker_0, # of connection points: 3
#     Node 4, Type 0, BuildingBlock: KAKCAD_clean_linker_0, # of connection points: 3
#     Node 5, Type 0, BuildingBlock: KAKCAD_clean_linker_0, # of connection points: 3
#     Node 6, Type 0, BuildingBlock: KAKCAD_clean_linker_0, # of connection points: 3
#     Node 7, Type 0, BuildingBlock: KAKCAD_clean_linker_0, # of connection points: 3
#     Node 8, Type 1, BuildingBlock: BETDIP_clean_sbu_0, # of connection points: 6
#     Node 9, Type 1, BuildingBlock: BETDIP_clean_sbu_0, # of connection points: 6
#     Node 10, Type 1, BuildingBlock: BETDIP_clean_sbu_0, # of connection points: 6
#     Node 11, Type 1, BuildingBlock: BETDIP_clean_sbu_0, # of connection points: 6
#     Edge 12, Type (0, 1), BuildingBlock: OJICUG_clean_linker_0, # of connection points: 2
#     Edge 13, Type (0, 1), BuildingBlock: OJICUG_clean_linker_0, # of connection points: 2
#     Edge 14, Type (0, 1), BuildingBlock: OJICUG_clean_linker_0, # of connection points: 2
#     Edge 15, Type (0, 1), BuildingBlock: OJICUG_clean_linker_0, # of connection points: 2
#     Edge 16, Type (0, 1), BuildingBlock: OJICUG_clean_linker_0, # of connection points: 2
#     Edge 17, Type (0, 1), BuildingBlock: OJICUG_clean_linker_0, # of connection points: 2
#     Edge 18, Type (0, 1), BuildingBlock: OJICUG_clean_linker_0, # of connection points: 2
#     Edge 19, Type (0, 1), BuildingBlock: OJICUG_clean_linker_0, # of connection points: 2
#     Edge 20, Type (0, 1), BuildingBlock: OJICUG_clean_linker_0, # of connection points: 2
#     Edge 21, Type (0, 1), BuildingBlock: OJICUG_clean_linker_0, # of connection points: 2
#     Edge 22, Type (0, 1), BuildingBlock: OJICUG_clean_linker_0, # of connection points: 2
#     Edge 23, Type (0, 1), BuildingBlock: OJICUG_clean_linker_0, # of connection points: 2
#     Edge 24, Type (0, 1), BuildingBlock: OJICUG_clean_linker_0, # of connection points: 2
#     Edge 25, Type (0, 1), BuildingBlock: OJICUG_clean_linker_0, # of connection points: 2
#     Edge 26, Type (0, 1), BuildingBlock: OJICUG_clean_linker_0, # of connection points: 2
#     Edge 27, Type (0, 1), BuildingBlock: OJICUG_clean_linker_0, # of connection points: 2
#     Edge 28, Type (0, 1), BuildingBlock: OJICUG_clean_linker_0, # of connection points: 2
#     Edge 29, Type (0, 1), BuildingBlock: OJICUG_clean_linker_0, # of connection points: 2
#     Edge 30, Type (0, 1), BuildingBlock: OJICUG_clean_linker_0, # of connection points: 2
#     Edge 31, Type (0, 1), BuildingBlock: OJICUG_clean_linker_0, # of connection points: 2
#     Edge 32, Type (0, 1), BuildingBlock: OJICUG_clean_linker_0, # of connection points: 2
#     Edge 33, Type (0, 1), BuildingBlock: OJICUG_clean_linker_0, # of connection points: 2
#     Edge 34, Type (0, 1), BuildingBlock: OJICUG_clean_linker_0, # of connection points: 2
#     Edge 35, Type (0, 1), BuildingBlock: OJICUG_clean_linker_0, # of connection points: 2
# Relax obj value: 0.494
# Max RMSD: 0.258
# Mean RMSD: 0.242
data_MOF--net-zzz--node1-BETDIP_clean_sbu_0--node2-KAKCAD_clean_linker_0--edge1-OJICUG_clean_linker_0
_symmetry_space_group_name_H-M    P1
_symmetry_Int_Tables_number       1
_symmetry_cell_setting            triclinic
loop_
_symmetry_equiv_pos_as_xyz
'x, y, z'
_cell_length_a     46.047148
_cell_length_b     45.997505
_cell_length_c     14.377822
_cell_angle_alpha  89.771752
_cell_angle_beta   89.898985
_cell_angle_gamma 90.072109
loop_
_atom_site_label
_atom_site_type_symbol
_atom_site_fract_x
_atom_site_fract_y
_atom_site_fract_z
_atom_type_partial_charge
C0 C 0.78966 0.40497 0.08715 0.0
C1 C 0.80583 0.3831 0.13258 0.0
C2 C 0.76823 0.42029 0.13468 0.0
C3 C 0.76273 0.41436 0.22877 0.0
C4 C 0.77538 0.38968 0.26966 0.0
C5 C 0.79639 0.37382 0.22124 0.0
C6 C 0.75052 0.43781 0.2871 0.0
C7 C 0.72579 0.45301 0.25868 0.0
C8 C 0.71887 0.4801 0.29728 0.0
C9 C 0.73733 0.49218 0.36612 0.0
C10 C 0.7618 0.47633 0.39833 0.0
C11 C 0.76767 0.44908 0.35882 0.0
C12 C 0.78391 0.48818 0.46468 0.0
C13 C 0.79883 0.51419 0.44517 0.0
C14 C 0.7945 0.47034 0.53692 0.0
C15 C 0.82034 0.47714 0.58366 0.0
C16 C 0.83654 0.50208 0.5599 0.0
C17 C 0.69404 0.49599 0.25485 0.0
C18 C 0.69847 0.51149 0.17175 0.0
C19 C 0.66541 0.48951 0.28196 0.0
C20 C 0.64178 0.4975 0.22548 0.0
C21 C 0.64621 0.51168 0.13923 0.0
C22 C 0.67498 0.5192 0.11477 0.0
C23 C 0.82478 0.52105 0.49214 0.0
H24 H 0.79565 0.41293 1.01891 0.0
H25 H 0.75872 0.43915 0.10114 0.0
H26 H 0.77099 0.38432 0.34177 0.0
H27 H 0.80718 0.35615 0.25706 0.0
H28 H 0.71281 0.44453 0.20198 0.0
H29 H 0.78747 0.43779 0.37794 0.0
H30 H 0.73291 0.51366 0.39326 0.0
H31 H 0.79153 0.52826 0.38937 0.0
H32 H 0.78365 0.45005 0.55342 0.0
H33 H 0.82844 0.46177 0.63453 0.0
H34 H 0.72035 0.51588 0.14757 0.0
H35 H 0.6614 0.47686 0.34445 0.0
H36 H 0.83613 0.54081 0.47292 0.0
H37 H 0.67975 0.52951 0.04872 0.0
H38 H 0.62013 0.49168 0.24831 0.0
C39 C 0.12357 0.79163 0.08788 0.0
C40 C 0.14552 0.80773 0.13284 0.0
C41 C 0.10793 0.77042 0.13601 0.0
C42 C 0.11362 0.76508 0.2302 0.0
C43 C 0.1382 0.77775 0.27104 0.0
C44 C 0.15443 0.79848 0.22198 0.0
C45 C 0.0902 0.75258 0.28844 0.0
C46 C 0.0762 0.72695 0.26235 0.0
C47 C 0.04956 0.71871 0.30264 0.0
C48 C 0.03659 0.73728 0.36983 0.0
C49 C 0.05134 0.76277 0.39958 0.0
C50 C 0.07818 0.76972 0.35874 0.0
C51 C 0.03911 0.78444 0.46664 0.0
C52 C 1.01346 0.7997 0.4463 0.0
C53 C 0.05667 0.79471 0.53967 0.0
C54 C 0.04998 0.82057 0.58647 0.0
C55 C 0.02543 0.83713 0.56194 0.0
C56 C 0.03571 0.69155 0.26658 0.0
C57 C 1.00885 0.69234 0.22052 0.0
C58 C 0.05234 0.66597 0.26075 0.0
C59 C 0.04367 0.64277 0.20433 0.0
C60 C 0.01785 0.64424 0.15203 0.0
C61 C 0.99998 0.66895 0.16423 0.0
C62 C 1.00669 0.82566 0.49336 0.0
H63 H 0.11584 0.79748 1.01937 0.0
H64 H 0.08913 0.76086 0.10268 0.0
H65 H 0.14333 0.77347 0.34332 0.0
H66 H 0.17215 0.80916 0.25754 0.0
H67 H 0.08544 0.71407 0.20662 0.0
H68 H 0.08868 0.79009 0.37648 0.0
H69 H 0.01558 0.73183 0.39912 0.0
H70 H 0.99967 0.79267 0.38971 0.0
H71 H 0.07677 0.78366 0.55648 0.0
H72 H 0.0652 0.82843 0.63789 0.0
H73 H 0.99562 0.71177 0.22296 0.0
H74 H 0.07316 0.6647 0.29537 0.0
H75 H 0.98722 0.83728 0.47348 0.0
H76 H 0.97956 0.67079 0.12759 0.0
H77 H 0.05832 0.62452 0.19748 0.0
C78 C 0.73722 0.1231 0.08694 0.0
C79 C 0.72119 0.1454 0.13035 0.0
C80 C 0.75832 0.10776 0.13604 0.0
C81 C 0.76361 0.1141 0.22971 0.0
C82 C 0.75098 0.13896 0.26882 0.0
C83 C 0.73037 0.1549 0.21873 0.0
C84 C 0.776 0.09106 0.28955 0.0
C85 C 0.80168 0.077 0.26448 0.0
C86 C 0.80984 0.05059 0.30651 0.0
C87 C 0.79116 0.0379 0.37435 0.0
C88 C 0.76562 0.05272 0.40298 0.0
C89 C 0.75873 0.07935 0.3605 0.0
C90 C 0.7438 0.04066 0.47033 0.0
C91 C 0.72882 0.01473 0.45125 0.0
C92 C 0.7332 0.05851 0.54212 0.0
C93 C 0.70724 0.05183 0.58882 0.0
C94 C 0.69095 0.027 0.56538 0.0
C95 C 0.83702 0.03659 0.27149 0.0
C96 C 0.83633 1.00939 0.22752 0.0
C97 C 0.86256 0.05329 0.2644 0.0
C98 C 0.88582 0.04432 0.2086 0.0
C99 C 0.88444 0.01815 0.15821 0.0
C100 C 0.85978 1.00024 0.17182 0.0
C101 C 0.70275 1.00798 0.49818 0.0
H102 H 0.73139 0.11492 1.0191 0.0
H103 H 0.76784 0.08871 0.10408 0.0
H104 H 0.75521 0.14458 0.34065 0.0
H105 H 0.71973 0.17288 0.25302 0.0
H106 H 0.81465 0.08598 0.20821 0.0
H107 H 0.73832 0.08987 0.37743 0.0
H108 H 0.79655 0.01704 0.40491 0.0
H109 H 0.73613 1.0007 0.39562 0.0
H110 H 0.74405 0.07881 0.55794 0.0
H111 H 0.6991 0.06725 0.63918 0.0
H112 H 0.81693 0.99609 0.231 0.0
H113 H 0.86375 0.07436 0.29736 0.0
H114 H 0.69132 0.9883 0.47923 0.0
H115 H 0.85801 0.97956 0.13661 0.0
H116 H 0.90403 0.05902 0.20055 0.0
C117 C 0.47574 0.70775 0.58696 0.0
C118 C 0.50072 0.69176 0.56318 0.0
C119 C 0.46892 0.73375 0.54065 0.0
C120 C 0.48677 0.7447 0.46894 0.0
C121 C 0.51284 0.73005 0.44965 0.0
C122 C 0.51974 0.70394 0.49621 0.0
C123 C 0.47457 0.76637 0.40155 0.0
C124 C 0.48908 0.7922 0.37305 0.0
C125 C 0.47633 0.81068 0.30493 0.0
C126 C 0.45023 0.80204 0.26247 0.0
C127 C 0.43649 0.77609 0.28754 0.0
C128 C 0.44822 0.75902 0.35878 0.0
C129 C 0.41383 0.76328 0.22758 0.0
C130 C 0.38907 0.75025 0.26666 0.0
C131 C 0.42052 0.75801 0.13409 0.0
C132 C 0.40564 0.73659 0.08517 0.0
C133 C 0.38347 0.72022 0.12861 0.0
C134 C 0.49003 0.83817 0.27016 0.0
C135 C 0.47293 0.86338 0.26196 0.0
C136 C 0.51754 0.83807 0.22784 0.0
C137 C 0.52667 0.86175 0.1726 0.0
C138 C 0.50842 0.88606 0.15786 0.0
C139 C 0.48188 0.88688 0.20665 0.0
C140 C 0.37361 0.72929 0.21677 0.0
H141 H 0.46033 0.6993 0.6372 0.0
H142 H 0.44851 0.74434 0.55658 0.0
H143 H 0.52687 0.73762 0.39406 0.0
H144 H 0.53952 0.69276 0.47704 0.0
H145 H 0.50973 0.79796 0.40391 0.0
H146 H 0.43797 0.7384 0.37569 0.0
H147 H 0.44126 0.81487 0.20595 0.0
H148 H 0.38321 0.75443 0.33838 0.0
H149 H 0.4395 0.76785 0.10221 0.0
H150 H 0.41408 0.73082 1.01751 0.0
H151 H 0.45162 0.86412 0.29368 0.0
H152 H 0.53116 0.81894 0.23225 0.0
H153 H 0.35573 0.71833 0.25107 0.0
H154 H 0.46694 0.90481 0.19766 0.0
H155 H 0.54761 0.86044 0.1386 0.0
C156 C 0.22968 0.65423 0.29949 0.0
C157 C 0.22048 0.64509 0.38856 0.0
C158 C 0.25042 0.63819 0.25049 0.0
C159 C 0.26313 0.61356 0.29132 0.0
C160 C 0.25782 0.60763 0.38545 0.0
C161 C 0.23661 0.62309 0.43353 0.0
C162 C 0.2756 0.59029 0.23298 0.0
C163 C 0.30128 0.57634 0.25884 0.0
C164 C 0.30954 0.54983 0.21823 0.0
C165 C 0.29094 0.53689 0.15117 0.0
C166 C 0.26539 0.55158 0.12181 0.0
C167 C 0.25842 0.57832 0.16276 0.0
C168 C 0.24365 0.5393 0.05519 0.0
C169 C 0.23329 0.55688 0.98202 0.0
C170 C 0.22841 0.51363 0.07632 0.0
C171 C 0.20233 0.50686 0.02994 0.0
C172 C 0.19077 0.52565 0.96129 0.0
C173 C 0.33679 0.53602 0.25367 0.0
C174 C 0.36223 0.55286 0.25992 0.0
C175 C 0.33628 0.50883 0.2984 0.0
C176 C 0.3598 0.49982 0.35398 0.0
C177 C 0.38436 0.51789 0.36679 0.0
C178 C 0.38556 0.54406 0.31566 0.0
C179 C 0.20732 0.5502 0.93588 0.0
H180 H 0.21895 0.67199 0.26393 0.0
H181 H 0.25466 0.6435 0.17825 0.0
H182 H 0.26742 0.58878 0.41873 0.0
H183 H 0.23078 0.61519 0.50199 0.0
H184 H 0.3142 0.58552 0.31454 0.0
H185 H 0.23801 0.58875 0.14522 0.0
H186 H 0.2964 0.51597 0.12171 0.0
H187 H 0.24433 0.57701 0.96468 0.0
H188 H 0.23552 0.49983 0.13307 0.0
H189 H 0.1907 0.4874 0.05045 0.0
H190 H 0.36329 0.5739 0.2262 0.0
H191 H 0.31696 0.4954 0.29552 0.0
H192 H 0.19936 0.56544 0.88434 0.0
H193 H 0.40368 0.55887 0.323 0.0
H194 H 0.35817 0.47913 0.38968 0.0
C195 C 0.87249 0.22998 0.31477 0.0
C196 C 0.88176 0.22078 0.4036 0.0
C197 C 0.88867 0.25049 0.26453 0.0
C198 C 0.91353 0.26302 0.30394 0.0
C199 C 0.91969 0.25773 0.39784 0.0
C200 C 0.90411 0.23672 0.44709 0.0
C201 C 0.93663 0.27549 0.24443 0.0
C202 C 0.95057 0.30127 0.26929 0.0
C203 C 0.97694 0.30962 0.22749 0.0
C204 C 0.98974 0.29101 0.16011 0.0
C205 C 0.97505 0.26533 0.13171 0.0
C206 C 0.94845 0.25827 0.17398 0.0
C207 C 0.98714 0.24363 0.06451 0.0
C208 C 0.96934 0.23308 0.99252 0.0
C209 C 1.01305 0.22867 0.0838 0.0
C210 C 0.01987 0.20272 0.03674 0.0
C211 C 1.00093 0.19098 0.96917 0.0
C212 C 0.99074 0.33697 0.26222 0.0
C213 C 0.97392 0.36242 0.26839 0.0
C214 C 0.01782 0.33649 0.30698 0.0
C215 C 0.02675 0.36004 0.36246 0.0
C216 C 1.00873 0.38461 0.3751 0.0
C217 C 0.98267 0.38579 0.32397 0.0
C218 C 0.97608 0.20724 0.94568 0.0
H219 H 0.85446 0.21946 0.28033 0.0
H220 H 0.88319 0.25473 0.19249 0.0
H221 H 0.93872 0.26721 0.43002 0.0
H222 H 0.91215 0.23091 0.51527 0.0
H223 H 0.9415 0.3142 0.32518 0.0
H224 H 0.938 0.23779 0.15721 0.0
H225 H 1.01056 0.29656 0.12967 0.0
H226 H 0.94905 0.2439 0.97654 0.0
H227 H 0.02704 0.23591 0.1396 0.0
H228 H 0.03954 0.19132 0.0558 0.0
H229 H 0.95292 0.36345 0.23482 0.0
H230 H 0.0312 0.31716 0.30427 0.0
H231 H 0.96072 0.19916 0.89507 0.0
H232 H 0.9679 0.40393 0.33125 0.0
H233 H 0.04734 0.35842 0.39824 0.0
C234 C 0.29704 0.87518 0.31408 0.0
C235 C 0.30613 0.88476 0.40247 0.0
C236 C 0.27646 0.89106 0.26365 0.0
C237 C 0.26377 0.91593 0.30246 0.0
C238 C 0.26898 0.92236 0.3961 0.0
C239 C 0.29005 0.90709 0.44552 0.0
C240 C 0.25131 0.93886 0.24237 0.0
C241 C 0.22552 0.95277 0.26712 0.0
C242 C 0.21723 0.9791 0.22489 0.0
C243 C 0.23589 0.99188 0.15714 0.0
C244 C 0.26155 0.9772 0.12879 0.0
C245 C 0.26856 0.95064 0.17151 0.0
C246 C 0.28333 0.98933 0.06142 0.0
C247 C 0.29405 0.97147 0.98981 0.0
C248 C 0.29817 0.01536 0.0803 0.0
C249 C 0.32419 0.02223 0.03331 0.0
C250 C 0.33611 1.00323 0.96625 0.0
C251 C 0.18995 0.99294 0.25974 0.0
C252 C 0.16447 0.97612 0.26628 0.0
C253 C 0.19051 0.02002 0.30446 0.0
C254 C 0.16702 0.02893 0.36037 0.0
C255 C 0.14244 1.01087 0.3735 0.0
C256 C 0.14116 0.98484 0.32232 0.0
C257 C 0.31997 0.97827 0.94306 0.0
H258 H 0.30771 0.85716 0.28005 0.0
H259 H 0.2723 0.88538 0.19184 0.0
H260 H 0.25938 0.94142 0.42781 0.0
H261 H 0.29579 0.91534 0.51335 0.0
H262 H 0.21255 0.94374 0.32333 0.0
H263 H 0.28905 0.94023 0.15482 0.0
H264 H 0.23039 1.01269 0.12642 0.0
H265 H 0.28331 0.9511 0.97415 0.0
H266 H 0.29077 0.02939 0.1358 0.0
H267 H 0.3355 0.04199 0.05209 0.0
H268 H 0.16339 0.95513 0.23273 0.0
H269 H 0.20986 0.0334 0.30143 0.0
H270 H 0.3282 0.96286 0.89283 0.0
H271 H 0.12301 0.97005 0.32994 0.0
H272 H 0.1687 0.04951 0.39616 0.0
C273 C 0.50694 0.32347 0.02081 0.0
C274 C 0.52577 0.33541 0.95281 0.0
C275 C 0.51398 0.29755 0.06814 0.0
C276 C 0.53997 0.28282 0.04856 0.0
C277 C 0.55754 0.29343 0.9756 0.0
C278 C 0.55061 0.31927 0.92859 0.0
C279 C 0.55245 0.26152 0.11662 0.0
C280 C 0.53792 0.23604 0.14804 0.0
C281 C 0.55092 0.21799 0.2168 0.0
C282 C 0.57736 0.22672 0.25691 0.0
C283 C 0.59114 0.25241 0.22911 0.0
C284 C 0.5791 0.26901 0.15724 0.0
C285 C 0.61417 0.26562 0.28685 0.0
C286 C 0.60819 0.2711 0.38071 0.0
C287 C 0.63846 0.27885 0.24538 0.0
C288 C 0.65408 0.30014 0.29336 0.0
C289 C 0.64493 0.30928 0.38221 0.0
C290 C 0.53715 0.19091 0.25452 0.0
C291 C 0.50992 0.19163 0.29863 0.0
C292 C 0.55394 0.16551 0.26302 0.0
C293 C 0.54499 0.14241 0.32003 0.0
C294 C 0.51875 0.14383 0.37036 0.0
C295 C 0.5008 0.16835 0.35565 0.0
C296 C 0.62325 0.2928 0.4278 0.0
H297 H 0.48724 0.33475 0.04027 0.0
H298 H 0.50014 0.29022 0.12457 0.0
H299 H 0.57787 0.28274 0.95929 0.0
H300 H 0.56586 0.3275 0.87752 0.0
H301 H 0.51704 0.23023 0.11895 0.0
H302 H 0.58935 0.28944 0.13819 0.0
H303 H 0.58657 0.21423 0.31379 0.0
H304 H 0.58957 0.26118 0.41447 0.0
H305 H 0.6438 0.27453 0.17334 0.0
H306 H 0.67156 0.3112 0.25727 0.0
H307 H 0.49654 0.21092 0.29403 0.0
H308 H 0.575 0.1643 0.22985 0.0
H309 H 0.61531 0.29862 0.49604 0.0
H310 H 0.48009 0.17014 0.39085 0.0
H311 H 0.55971 0.12429 0.32891 0.0
Tb312 Tb 0.03419 1.00842 0.83691 0.0
Tb313 Tb 0.99255 0.01967 0.69503 0.0
C314 C 0.06341 0.99066 0.97356 0.0
C315 C 0.08546 0.96839 0.99178 0.0
C316 C 0.088 0.95709 0.08171 0.0
C317 C 0.1074 0.93457 0.10005 0.0
C318 C 0.12494 0.92297 0.02874 0.0
C319 C 0.12324 0.93543 0.93923 0.0
C320 C 0.1035 0.95783 0.92076 0.0
C321 C 0.05883 0.02446 0.67623 0.0
C322 C 0.0148 0.95598 0.70558 0.0
C323 C 0.96303 0.03746 0.55909 0.0
C324 C 0.94095 0.05978 0.54212 0.0
C325 C 0.93776 0.07094 0.45224 0.0
C326 C 0.91841 0.09359 0.43514 0.0
C327 C 0.90156 0.10547 0.5077 0.0
C328 C 0.90387 0.09312 0.59722 0.0
C329 C 0.92357 0.07059 0.61443 0.0
C330 C 0.96807 1.00362 0.85615 0.0
C331 C 1.01202 0.07216 0.82589 0.0
O332 O 0.03732 0.9812 0.95417 0.0
O333 O 0.07135 1.0121 0.91946 0.0
O334 O 0.03736 1.00772 0.68655 0.0
O335 O 0.06754 0.03186 0.758 0.0
O336 O 0.02507 0.96345 0.78827 0.0
O337 O 1.00498 0.97633 0.64894 0.0
O338 O 0.98918 0.0469 0.57789 0.0
O339 O 0.95525 0.01595 0.61312 0.0
O340 O 0.98941 0.02047 0.84527 0.0
O341 O 0.95938 0.99606 0.7745 0.0
O342 O 1.00171 0.06464 0.7433 0.0
O343 O 0.02185 0.05184 0.88263 0.0
H344 H 0.07429 0.96508 0.13736 0.0
H345 H 0.10739 0.92535 0.16942 0.0
H346 H 0.13658 0.92742 0.88284 0.0
H347 H 0.10191 0.96649 0.85075 0.0
H348 H 0.95096 0.06275 0.39563 0.0
H349 H 0.91794 0.1027 0.36565 0.0
H350 H 0.89107 0.10134 0.65457 0.0
H351 H 0.92567 0.06204 0.68443 0.0
Tb352 Tb 0.519 0.03626 0.83648 0.0
Tb353 Tb 0.508 0.99454 0.69469 0.0
C354 C 0.53671 0.06548 0.97283 0.0
C355 C 0.55942 0.08712 0.99063 0.0
C356 C 0.57057 0.08961 0.08054 0.0
C357 C 0.59356 0.10851 0.09837 0.0
C358 C 0.60578 0.1256 0.02656 0.0
C359 C 0.59349 0.12398 0.93705 0.0
C360 C 0.57063 0.10473 0.91909 0.0
C361 C 0.50369 0.06085 0.67517 0.0
C362 C 0.57171 0.01653 0.70635 0.0
C363 C 0.49037 0.96512 0.55872 0.0
C364 C 0.46769 0.94341 0.54147 0.0
C365 C 0.45662 0.94059 0.45158 0.0
C366 C 0.43369 0.92159 0.43422 0.0
C367 C 0.42143 0.90473 0.50654 0.0
C368 C 0.43364 0.90669 0.59609 0.0
C369 C 0.45645 0.92604 0.61355 0.0
C370 C 0.52348 0.97006 0.85609 0.0
C371 C 0.45526 1.01427 0.82474 0.0
O372 O 0.54564 0.03912 0.95457 0.0
O373 O 0.51569 0.07369 0.91796 0.0
O374 O 0.52025 0.03932 0.68616 0.0
O375 O 0.49605 0.06968 0.75666 0.0
O376 O 0.564 0.02693 0.78868 0.0
O377 O 0.55156 1.0067 0.64939 0.0
O378 O 0.48139 0.99149 0.57659 0.0
O379 O 0.51141 0.95703 0.61365 0.0
O380 O 0.50674 0.99144 0.84494 0.0
O381 O 0.53126 0.96134 0.7746 0.0
O382 O 0.463 1.00381 0.74251 0.0
O383 O 0.47539 0.0242 0.8816 0.0
H384 H 0.56211 0.07622 0.13657 0.0
H385 H 0.60261 0.10846 0.16778 0.0
H386 H 0.60197 0.13699 0.88028 0.0
H387 H 0.56211 0.10317 0.84907 0.0
H388 H 0.46512 0.9538 0.39515 0.0
H389 H 0.4247 0.92139 0.36473 0.0
H390 H 0.42513 0.89386 0.65325 0.0
H391 H 0.4649 0.92786 0.68358 0.0
Tb392 Tb 0.4926 0.51849 0.82905 0.0
Tb393 Tb 0.53443 0.5087 0.68692 0.0
C394 C 0.46324 0.53541 0.96638 0.0
C395 C 0.4418 0.55819 0.98542 0.0
C396 C 0.43966 0.56926 0.07551 0.0
C397 C 0.421 0.59233 0.09441 0.0
C398 C 0.40381 0.60473 0.0235 0.0
C399 C 0.40508 0.59254 0.93384 0.0
C400 C 0.42409 0.5696 0.9148 0.0
C401 C 0.4682 0.50338 0.66792 0.0
C402 C 0.51178 0.57204 0.70054 0.0
C403 C 0.56443 0.49239 0.55015 0.0
C404 C 0.58623 0.47006 0.53001 0.0
C405 C 0.58826 0.45922 0.43961 0.0
C406 C 0.60734 0.43661 0.41944 0.0
C407 C 0.6251 0.42447 0.48934 0.0
C408 C 0.62397 0.43649 0.57926 0.0
C409 C 0.60453 0.45896 0.5996 0.0
C410 C 0.55834 0.52368 0.84932 0.0
C411 C 0.5149 0.45501 0.8145 0.0
O412 O 0.48969 0.54431 0.9489 0.0
O413 O 0.45499 0.5148 0.91015 0.0
O414 O 0.4895 0.52029 0.67876 0.0
O415 O 0.45958 0.49522 0.74937 0.0
O416 O 0.50148 0.56386 0.78278 0.0
O417 O 0.52179 0.55221 0.64282 0.0
O418 O 0.53807 0.48307 0.56681 0.0
O419 O 0.5723 0.51287 0.60737 0.0
O420 O 0.53742 0.50649 0.83688 0.0
O421 O 0.5668 0.53258 0.76849 0.0
O422 O 0.52545 0.46326 0.73258 0.0
O423 O 0.50483 0.4748 0.87229 0.0
H424 H 0.45315 0.56065 0.13084 0.0
H425 H 0.42132 0.6013 0.16387 0.0
H426 H 0.39197 0.60116 0.87776 0.0
H427 H 0.42539 0.56118 0.84463 0.0
H428 H 0.57435 0.46762 0.38503 0.0
H429 H 0.60691 0.42775 0.34985 0.0
H430 H 0.63751 0.42807 0.63459 0.0
H431 H 0.60336 0.46724 0.66995 0.0
Tb432 Tb 1.00766 0.49404 0.83468 0.0
Tb433 Tb 0.01905 0.53528 0.69072 0.0
C434 C 0.98974 0.46535 0.97281 0.0
C435 C 0.96715 0.44361 0.99193 0.0
C436 C 0.9556 0.44165 0.08164 0.0
C437 C 0.93285 0.42251 0.10067 0.0
C438 C 0.92126 0.40466 0.03029 0.0
C439 C 0.93391 0.40581 0.94106 0.0
C440 C 0.95655 0.42528 0.92188 0.0
C441 C 0.0231 0.46882 0.67491 0.0
C442 C 0.95524 0.51346 0.70309 0.0
C443 C 0.03682 0.5642 0.55284 0.0
C444 C 0.05935 0.58596 0.53346 0.0
C445 C 0.07056 0.58814 0.44335 0.0
C446 C 0.09331 0.60723 0.42398 0.0
C447 C 0.10525 0.62484 0.49442 0.0
C448 C 0.0929 0.62351 0.58408 0.0
C449 C 0.07027 0.60407 0.6036 0.0
C450 C 1.00361 0.56034 0.85098 0.0
C451 C 0.07154 0.5156 0.8215 0.0
O452 O 0.98067 0.49155 0.95243 0.0
O453 O 1.01098 0.45702 0.91896 0.0
O454 O 1.00664 0.49049 0.68449 0.0
O455 O 0.03054 0.46023 0.75698 0.0
O456 O 0.96277 0.50329 0.78606 0.0
O457 O 0.97554 0.52309 0.64585 0.0
O458 O 0.04594 0.53798 0.57277 0.0
O459 O 0.01568 0.57245 0.60717 0.0
O460 O 0.02019 0.5388 0.84086 0.0
O461 O 0.99603 0.56892 0.76901 0.0
O462 O 0.06396 0.52579 0.73862 0.0
O463 O 0.05127 0.50609 0.87906 0.0
H464 H 0.9636 0.4556 0.13654 0.0
H465 H 0.92347 0.42294 0.16973 0.0
H466 H 0.92591 0.39221 0.88541 0.0
H467 H 0.96538 0.42642 0.85204 0.0
H468 H 0.0623 0.57436 0.38838 0.0
H469 H 0.10242 0.60695 0.35456 0.0
H470 H 0.10117 0.63692 0.6398 0.0
H471 H 0.0617 0.60277 0.67373 0.0
C472 C 0.1274 0.0315 0.52972 0.0
C473 C 0.1197 0.01751 0.44619 0.0
H474 H 0.11438 0.04495 0.66609 0.0
C475 C 0.09068 1.00789 0.43688 0.0
H476 H 0.14942 0.03886 0.54134 0.0
C477 C 0.07059 1.01091 0.5101 0.0
C478 C 0.0788 0.02393 0.59433 0.0
H479 H 0.08348 0.99756 0.37347 0.0
H480 H 0.04879 1.00248 0.50145 0.0
C481 C 0.10725 0.0348 0.6022 0.0
C482 C 0.52119 0.09218 0.43528 0.0
C483 C 0.51173 0.12128 0.44362 0.0
H484 H 0.52612 0.05036 0.50109 0.0
C485 C 0.49752 0.12922 0.52666 0.0
H486 H 0.53168 0.0848 0.37223 0.0
C487 C 0.49387 0.10922 0.5997 0.0
C488 C 0.50458 0.08068 0.59279 0.0
H489 H 0.49026 0.15132 0.53746 0.0
H490 H 0.48357 0.11652 0.66322 0.0
C491 C 0.51781 0.07223 0.50899 0.0
C492 C 0.43614 0.5209 0.42945 0.0
C493 C 0.40717 0.51107 0.43901 0.0
H494 H 0.47804 0.52629 0.49348 0.0
C495 C 0.3996 0.49667 0.52237 0.0
H496 H 0.44326 0.53155 0.36612 0.0
C497 C 0.41981 0.49315 0.59442 0.0
C498 C 0.44819 0.50422 0.58635 0.0
H499 H 0.37763 0.48913 0.53423 0.0
H500 H 0.41277 0.48265 0.65817 0.0
C501 C 0.45628 0.51769 0.50229 0.0
C502 C 0.02956 0.39989 0.53075 0.0
C503 C 0.01548 0.40747 0.44709 0.0
H504 H 0.04328 0.41314 0.66652 0.0
C505 C 1.00593 0.43651 0.43692 0.0
H506 H 0.03688 0.37786 0.54303 0.0
C507 C 1.00914 0.45674 0.50939 0.0
C508 C 0.02229 0.44866 0.59377 0.0
H509 H 0.99552 0.44362 0.37337 0.0
H510 H 1.00078 0.47856 0.50005 0.0
C511 C 0.03305 0.42018 0.60251 0.0
C512 C 0.93622 0.02074 0.09502 0.0
C513 C 0.90717 1.01121 0.08581 0.0
H514 H 0.97815 0.02588 0.03046 0.0
C515 C 0.89945 0.99704 1.00262 0.0
H516 H 0.94344 0.03119 0.15821 0.0
C517 C 0.91961 0.99351 0.93028 0.0
C518 C 0.94809 1.00432 0.93798 0.0
H519 H 0.87741 0.98973 0.99112 0.0
H520 H 0.91247 0.98325 0.8666 0.0
C521 C 0.95632 0.0175 0.02194 0.0
C522 C 0.50545 0.93787 0.09443 0.0
C523 C 0.51547 0.90897 0.08577 0.0
H524 H 0.50007 0.97976 0.02944 0.0
C525 C 0.53024 0.90151 1.00328 0.0
H526 H 0.4945 0.94488 0.15711 0.0
C527 C 0.53389 0.92176 0.93099 0.0
C528 C 0.52261 0.95007 0.93807 0.0
H529 H 0.53795 0.87958 0.99223 0.0
H530 H 0.54463 0.91481 0.86781 0.0
C531 C 0.50883 0.95807 0.02142 0.0
C532 C 0.59803 0.49704 0.06601 0.0
C533 C 0.62156 0.51669 0.07183 0.0
H534 H 0.55951 0.48399 0.99275 0.0
C535 C 0.62224 0.54008 1.00801 0.0
H536 H 0.59664 0.47848 0.11232 0.0
C537 C 0.60116 0.54279 0.93807 0.0
C538 C 0.5784 0.52257 0.93057 0.0
H539 H 0.63935 0.5562 1.01084 0.0
H540 H 0.603 0.56051 0.88854 0.0
C541 C 0.57667 0.50006 0.99682 0.0
C542 C 0.99735 0.62924 0.99555 0.0
C543 C 1.01119 0.6215 0.07949 0.0
H544 H 0.98383 0.61618 0.85937 0.0
C545 C 0.02056 0.59239 0.08956 0.0
H546 H 0.99019 0.65132 0.98329 0.0
C547 C 0.01739 0.57224 1.0168 0.0
C548 C 1.00445 0.58046 0.93224 0.0
H549 H 0.03077 0.58514 0.15328 0.0
H550 H 0.02559 0.55036 0.02612 0.0
C551 C 0.99389 0.60903 0.92352 0.0
C552 C 0.86919 0.16831 0.37656 0.0
C553 C 0.87416 0.19115 0.4397 0.0
H554 H 0.87241 0.12289 0.35013 0.0
C555 C 0.87908 0.1838 0.53359 0.0
H556 H 0.86457 0.17243 0.304 0.0
C557 C 0.8852 0.15508 0.55889 0.0
C558 C 0.88522 0.13299 0.49145 0.0
H559 H 0.88123 0.20048 0.58599 0.0
H560 H 0.89271 0.15098 0.62899 0.0
C561 C 0.87428 0.13955 0.40267 0.0
C562 C 0.35865 0.8727 0.3751 0.0
C563 C 0.33575 0.87749 0.4384 0.0
H564 H 0.40405 0.87608 0.34849 0.0
C565 C 0.34295 0.88245 0.53221 0.0
H566 H 0.35463 0.86815 0.30254 0.0
C567 C 0.37161 0.8886 0.55743 0.0
C568 C 0.39379 0.88865 0.48998 0.0
H569 H 0.3262 0.88454 0.58465 0.0
H570 H 0.37562 0.89604 0.62755 0.0
C571 C 0.38734 0.87785 0.4011 0.0
C572 C 0.65603 0.3621 0.35325 0.0
C573 C 0.6521 0.33906 0.41705 0.0
H574 H 0.6523 0.40769 0.32763 0.0
C575 C 0.64809 0.3461 0.51144 0.0
H576 H 0.65984 0.35815 0.28016 0.0
C577 C 0.64206 0.3747 0.53763 0.0
C578 C 0.6412 0.397 0.47044 0.0
H579 H 0.64666 0.32925 0.56401 0.0
H580 H 0.63534 0.37854 0.60867 0.0
C581 C 0.65108 0.39078 0.38014 0.0
C582 C 0.16791 0.65643 0.35976 0.0
C583 C 0.19075 0.65237 0.42363 0.0
H584 H 0.12258 0.65238 0.33333 0.0
C585 C 0.18347 0.64806 0.51789 0.0
H586 H 0.17201 0.66044 0.28677 0.0
C587 C 0.15483 0.64186 0.54368 0.0
C588 C 0.13275 0.64107 0.4762 0.0
H589 H 0.20018 0.64649 0.57053 0.0
H590 H 0.15079 0.63493 0.61454 0.0
C591 C 0.13923 0.6512 0.3862 0.0
C592 C 0.14858 0.84494 1.00363 0.0
C593 C 0.15293 0.83753 0.09775 0.0
H594 H 0.13523 0.87771 0.90765 0.0
C595 C 0.15709 0.86033 0.1616 0.0
H596 H 0.14702 0.82829 0.95089 0.0
C597 C 0.15178 0.88906 0.13553 0.0
C598 C 0.14145 0.8956 0.04597 0.0
H599 H 0.1612 0.85615 0.23444 0.0
H600 H 0.153 0.90566 0.18845 0.0
C601 C 0.14226 0.87361 0.97826 0.0
C602 C 0.68427 0.14793 1.00099 0.0
C603 C 0.69153 0.15268 0.09486 0.0
H604 H 0.65153 0.13459 0.90553 0.0
C605 C 0.66869 0.15725 0.15849 0.0
H606 H 0.70099 0.14596 0.94839 0.0
C607 C 0.63998 0.15211 0.13262 0.0
C608 C 0.63346 0.14159 0.04344 0.0
H609 H 0.67277 0.16161 0.23114 0.0
H610 H 0.62334 0.1537 0.18548 0.0
C611 C 0.65559 0.14184 0.97582 0.0
C612 C 0.37241 0.66747 0.15714 0.0
C613 C 0.37665 0.69043 0.09334 0.0
H614 H 0.37629 0.62208 0.18392 0.0
C615 C 0.3814 0.6833 0.99935 0.0
H616 H 0.36815 0.67148 0.22994 0.0
C617 C 0.38758 0.65467 0.97388 0.0
C618 C 0.38799 0.63243 0.04137 0.0
H619 H 0.38321 0.70012 0.94677 0.0
H620 H 0.39473 0.65072 0.90332 0.0
C621 C 0.37768 0.63881 0.13103 0.0
C622 C 0.84334 0.38055 1.00467 0.0
C623 C 0.83579 0.37625 0.09871 0.0
H624 H 0.87618 0.39396 0.90895 0.0
C625 C 0.85846 0.37263 0.16348 0.0
H626 H 0.82679 0.38183 0.95145 0.0
C627 C 0.88716 0.37822 0.13798 0.0
C628 C 0.89382 0.38826 0.048 0.0
H629 H 0.85413 0.36868 0.23638 0.0
H630 H 0.90366 0.37734 0.19142 0.0
C631 C 0.87198 0.38709 0.97979 0.0
C632 C 0.99694 0.15406 0.83753 0.0
C633 C 1.00561 0.16104 0.92902 0.0
H634 H 0.99207 0.12101 0.73315 0.0
C635 C 0.01717 0.13849 0.98422 0.0
H636 H 0.98825 0.17069 0.79199 0.0
C637 C 0.01955 0.11004 0.95005 0.0
C638 C 1.01038 0.10297 0.85946 0.0
H639 H 0.02361 0.14252 0.0554 0.0
H640 H 0.0282 0.09342 0.99579 0.0
C641 C 0.99925 0.12548 0.80335 0.0
C642 C 0.3734 0.99917 0.83525 0.0
C643 C 0.36614 1.00794 0.92645 0.0
H644 H 0.40676 0.99419 0.73154 0.0
C645 C 0.38849 0.01961 0.98181 0.0
H646 H 0.35693 0.99039 0.78962 0.0
C647 C 0.41703 0.02198 0.94807 0.0
C648 C 0.42438 1.01268 0.85779 0.0
H649 H 0.38424 0.02613 0.05279 0.0
H650 H 0.43348 0.03071 0.99391 0.0
C651 C 0.40207 1.00146 0.80151 0.0
C652 C 0.52976 0.37303 0.82225 0.0
C653 C 0.52111 0.36553 0.91361 0.0
H654 H 0.5347 0.40675 0.71913 0.0
C655 C 0.50967 0.38775 0.96992 0.0
H656 H 0.53839 0.35666 0.77596 0.0
C657 C 0.50735 0.41639 0.93693 0.0
C658 C 0.51651 0.424 0.84649 0.0
H659 H 0.50329 0.38333 0.04108 0.0
H660 H 0.49879 0.43273 0.98353 0.0
C661 C 0.52754 0.40184 0.78925 0.0
C662 C 0.13813 0.51024 0.97864 0.0
C663 C 0.16068 0.52119 0.92211 0.0
H664 H 0.09297 0.49994 0.99201 0.0
C665 C 0.1536 0.52953 0.83021 0.0
H666 H 0.14225 0.50409 0.05016 0.0
C667 C 0.12492 0.52748 0.79687 0.0
C668 C 0.10242 0.51697 0.85427 0.0
H669 H 0.17023 0.53775 0.78371 0.0
H670 H 0.12036 0.53439 0.72629 0.0
C671 C 0.10958 0.50811 0.9453 0.0
C672 C 0.02932 0.87396 0.69395 0.0
C673 C 0.02091 0.8671 0.60211 0.0
H674 H 0.03409 0.90692 0.79871 0.0
C675 C 1.00975 0.88979 0.54661 0.0
H676 H 0.03769 0.85723 0.73973 0.0
C677 C 1.00748 0.91824 0.58088 0.0
C678 C 0.01639 0.92518 0.67185 0.0
H679 H 1.00353 0.88587 0.47518 0.0
H680 H 0.99913 0.93495 0.53492 0.0
C681 C 0.02714 0.90255 0.72821 0.0
C682 C 0.63848 1.01101 0.54941 0.0
C683 C 0.66088 0.02245 0.60501 0.0
H684 H 0.59342 1.00022 0.53701 0.0
C685 C 0.65365 0.03117 0.69629 0.0
H686 H 0.64271 1.00455 0.47836 0.0
C687 C 0.62496 0.02902 0.7299 0.0
C688 C 0.6026 0.01801 0.67339 0.0
H689 H 0.67017 0.03978 0.74208 0.0
H690 H 0.62029 0.03623 0.79995 0.0
C691 C 0.60992 1.00878 0.58302 0.0
C692 C 0.4966 0.65395 0.69309 0.0
C693 C 0.50539 0.66158 0.60197 0.0
H694 H 0.49163 0.62013 0.79579 0.0
C695 C 0.51702 0.63946 0.54563 0.0
H696 H 0.48784 0.67024 0.73939 0.0
C697 C 0.51937 0.61078 0.57837 0.0
C698 C 0.51009 0.60306 0.66858 0.0
H699 H 0.52352 0.644 0.47466 0.0
H700 H 0.52808 0.59451 0.5318 0.0
C701 C 0.49889 0.62513 0.72583 0.0
C702 C 0.87343 0.49825 0.69178 0.0
C703 C 0.86644 0.50686 0.60005 0.0
H704 H 0.90649 0.49352 0.79636 0.0
C705 C 0.88893 0.51845 0.54461 0.0
H706 H 0.85683 0.48954 0.73745 0.0
C707 C 0.91736 0.52092 0.57879 0.0
C708 C 0.92445 0.5118 0.66962 0.0
H709 H 0.88488 0.52485 0.47327 0.0
H710 H 0.93394 0.52958 0.53287 0.0
C711 C 0.90199 0.50066 0.72598 0.0
loop_
_geom_bond_atom_site_label_1
_geom_bond_atom_site_label_2
_geom_bond_distance
_geom_bond_site_symmetry_2
_ccdc_geom_bond_type
C0 C1 1.386 . S
C0 C2 1.397 . S
C0 H24 0.931 . S
C1 C0 1.386 . S
C1 C5 1.397 . S
C2 C0 1.397 . S
C2 C3 1.384 . S
C2 H25 0.930 . S
C3 C2 1.384 . S
C3 C4 1.377 . S
C3 C6 1.481 . S
C4 C3 1.377 . S
C4 C5 1.389 . S
C4 H26 0.929 . S
C5 C1 1.397 . S
C5 C4 1.389 . S
C5 H27 0.931 . S
C6 C3 1.481 . S
C6 C7 1.387 . S
C6 C11 1.390 . S
C7 C6 1.387 . S
C7 C8 1.401 . S
C7 H28 0.930 . S
C8 C7 1.401 . S
C8 C9 1.376 . S
C8 C17 1.511 . S
C9 C8 1.376 . S
C9 C10 1.392 . S
C9 H30 0.931 . S
C10 C9 1.392 . S
C10 C11 1.361 . S
C10 C12 1.500 . S
C11 C6 1.390 . S
C11 C10 1.361 . S
C11 H29 0.931 . S
C12 C10 1.500 . S
C12 C13 1.371 . S
C12 C14 1.365 . S
C13 C12 1.371 . S
C13 C23 1.386 . S
C13 H31 0.931 . S
C14 C12 1.365 . S
C14 C15 1.409 . S
C14 H32 0.929 . S
C15 C14 1.409 . S
C15 C16 1.380 . S
C15 H33 0.930 . S
C16 C15 1.380 . S
C16 C23 1.357 . S
C17 C8 1.511 . S
C17 C18 1.341 . S
C17 C19 1.371 . S
C18 C17 1.341 . S
C18 C22 1.394 . S
C18 H34 0.930 . S
C19 C17 1.371 . S
C19 C20 1.392 . S
C19 H35 0.931 . S
C20 C19 1.392 . S
C20 C21 1.331 . S
C20 H38 0.932 . S
C21 C20 1.331 . S
C21 C22 1.336 . S
C22 C18 1.394 . S
C22 C21 1.336 . S
C22 H37 0.929 . S
C23 C13 1.386 . S
C23 C16 1.357 . S
C23 H36 0.928 . S
H24 C0 0.931 . S
H25 C2 0.930 . S
H26 C4 0.929 . S
H27 C5 0.931 . S
H28 C7 0.930 . S
H29 C11 0.931 . S
H30 C9 0.931 . S
H31 C13 0.931 . S
H32 C14 0.929 . S
H33 C15 0.930 . S
H34 C18 0.930 . S
H35 C19 0.931 . S
H36 C23 0.928 . S
H37 C22 0.929 . S
H38 C20 0.932 . S
C39 C40 1.394 . S
C39 C41 1.397 . S
C39 H63 0.931 . S
C40 C39 1.394 . S
C40 C44 1.389 1_655 S
C41 C39 1.397 . S
C41 C42 1.389 . S
C41 H64 0.930 . S
C42 C41 1.389 . S
C42 C43 1.373 1_655 S
C42 C45 1.480 . S
C43 C42 1.373 1_455 S
C43 C44 1.389 . S
C43 H65 0.929 . S
C44 C40 1.389 1_455 S
C44 C43 1.389 . S
C44 H66 0.931 . S
C45 C42 1.480 . S
C45 C46 1.388 . S
C45 C50 1.390 . S
C46 C45 1.388 . S
C46 C47 1.402 . S
C46 H67 0.930 . S
C47 C46 1.402 . S
C47 C48 1.377 . S
C47 C56 1.513 . S
C48 C47 1.377 . S
C48 C49 1.392 . S
C48 H69 0.931 . S
C49 C48 1.392 . S
C49 C50 1.361 . S
C49 C51 1.499 1_655 S
C50 C45 1.390 . S
C50 C49 1.361 . S
C50 H68 0.931 . S
C51 C49 1.499 1_455 S
C51 C52 1.361 1_455 S
C51 C53 1.376 . S
C52 C51 1.361 1_655 S
C52 C62 1.386 . S
C52 H70 0.931 . S
C53 C51 1.376 . S
C53 C54 1.409 . S
C53 H71 0.929 . S
C54 C53 1.409 . S
C54 C55 1.380 . S
C54 H72 0.930 . S
C55 C54 1.380 . S
C55 C62 1.357 1_455 S
C56 C47 1.513 . S
C56 C57 1.341 . S
C56 C58 1.371 1_655 S
C57 C56 1.341 . S
C57 C61 1.394 . S
C57 H73 0.930 . S
C58 C56 1.371 1_455 S
C58 C59 1.392 . S
C58 H74 0.931 . S
C59 C58 1.392 . S
C59 C60 1.322 1_455 S
C59 H77 0.932 . S
C60 C59 1.322 1_655 S
C60 C61 1.345 . S
C61 C57 1.394 . S
C61 C60 1.345 . S
C61 H76 0.929 . S
C62 C52 1.386 . S
C62 C55 1.357 1_655 S
C62 H75 0.928 . S
H63 C39 0.931 . S
H64 C41 0.930 . S
H65 C43 0.929 . S
H66 C44 0.931 . S
H67 C46 0.930 . S
H68 C50 0.931 . S
H69 C48 0.931 . S
H70 C52 0.931 . S
H71 C53 0.929 . S
H72 C54 0.930 . S
H73 C57 0.930 . S
H74 C58 0.931 . S
H75 C62 0.928 . S
H76 C61 0.929 . S
H77 C59 0.932 . S
C78 C79 1.394 . S
C78 C80 1.397 . S
C78 H102 0.931 . S
C79 C78 1.394 . S
C79 C83 1.389 1_565 S
C80 C78 1.397 . S
C80 C81 1.389 . S
C80 H103 0.930 . S
C81 C80 1.389 . S
C81 C82 1.373 1_565 S
C81 C84 1.481 . S
C82 C81 1.373 1_545 S
C82 C83 1.389 . S
C82 H104 0.929 . S
C83 C79 1.389 1_545 S
C83 C82 1.389 . S
C83 H105 0.931 . S
C84 C81 1.481 . S
C84 C85 1.389 . S
C84 C89 1.390 . S
C85 C84 1.389 . S
C85 C86 1.403 . S
C85 H106 0.930 . S
C86 C85 1.403 . S
C86 C87 1.376 . S
C86 C95 1.513 . S
C87 C86 1.376 . S
C87 C88 1.392 . S
C87 H108 0.931 . S
C88 C87 1.392 . S
C88 C89 1.361 . S
C88 C90 1.499 1_565 S
C89 C84 1.390 . S
C89 C88 1.361 . S
C89 H107 0.931 . S
C90 C88 1.499 1_545 S
C90 C91 1.361 1_545 S
C90 C92 1.376 . S
C91 C90 1.361 1_565 S
C91 C101 1.386 . S
C91 H109 0.931 . S
C92 C90 1.376 . S
C92 C93 1.409 . S
C92 H110 0.929 . S
C93 C92 1.409 . S
C93 C94 1.380 . S
C93 H111 0.930 . S
C94 C93 1.380 . S
C94 C101 1.357 1_545 S
C95 C86 1.513 . S
C95 C96 1.341 . S
C95 C97 1.371 1_565 S
C96 C95 1.341 . S
C96 C100 1.394 . S
C96 H112 0.930 . S
C97 C95 1.371 1_545 S
C97 C98 1.392 . S
C97 H113 0.931 . S
C98 C97 1.392 . S
C98 C99 1.322 1_545 S
C98 H116 0.932 . S
C99 C98 1.322 1_565 S
C99 C100 1.345 . S
C100 C96 1.394 . S
C100 C99 1.345 . S
C100 H115 0.929 . S
C101 C91 1.386 . S
C101 C94 1.357 1_565 S
C101 H114 0.928 . S
H102 C78 0.931 . S
H103 C80 0.930 . S
H104 C82 0.929 . S
H105 C83 0.931 . S
H106 C85 0.930 . S
H107 C89 0.931 . S
H108 C87 0.931 . S
H109 C91 0.931 . S
H110 C92 0.929 . S
H111 C93 0.930 . S
H112 C96 0.930 . S
H113 C97 0.931 . S
H114 C101 0.928 . S
H115 C100 0.929 . S
H116 C98 0.932 . S
C117 C118 1.386 . S
C117 C119 1.397 . S
C117 H141 0.931 . S
C118 C117 1.386 . S
C118 C122 1.397 . S
C119 C117 1.397 . S
C119 C120 1.384 . S
C119 H142 0.930 . S
C120 C119 1.384 . S
C120 C121 1.377 . S
C120 C123 1.481 . S
C121 C120 1.377 . S
C121 C122 1.389 . S
C121 H143 0.929 . S
C122 C118 1.397 . S
C122 C121 1.389 . S
C122 H144 0.931 . S
C123 C120 1.481 . S
C123 C124 1.387 . S
C123 C128 1.390 . S
C124 C123 1.387 . S
C124 C125 1.401 . S
C124 H145 0.930 . S
C125 C124 1.401 . S
C125 C126 1.376 . S
C125 C134 1.511 . S
C126 C125 1.376 . S
C126 C127 1.392 . S
C126 H147 0.931 . S
C127 C126 1.392 . S
C127 C128 1.361 . S
C127 C129 1.500 . S
C128 C123 1.390 . S
C128 C127 1.361 . S
C128 H146 0.931 . S
C129 C127 1.500 . S
C129 C130 1.371 . S
C129 C131 1.365 . S
C130 C129 1.371 . S
C130 C140 1.386 . S
C130 H148 0.931 . S
C131 C129 1.365 . S
C131 C132 1.409 . S
C131 H149 0.929 . S
C132 C131 1.409 . S
C132 C133 1.380 . S
C132 H150 0.930 . S
C133 C132 1.380 . S
C133 C140 1.357 . S
C134 C125 1.511 . S
C134 C135 1.341 . S
C134 C136 1.371 . S
C135 C134 1.341 . S
C135 C139 1.394 . S
C135 H151 0.930 . S
C136 C134 1.371 . S
C136 C137 1.392 . S
C136 H152 0.931 . S
C137 C136 1.392 . S
C137 C138 1.331 . S
C137 H155 0.932 . S
C138 C137 1.331 . S
C138 C139 1.336 . S
C139 C135 1.394 . S
C139 C138 1.336 . S
C139 H154 0.929 . S
C140 C130 1.386 . S
C140 C133 1.357 . S
C140 H153 0.928 . S
H141 C117 0.931 . S
H142 C119 0.930 . S
H143 C121 0.929 . S
H144 C122 0.931 . S
H145 C124 0.930 . S
H146 C128 0.931 . S
H147 C126 0.931 . S
H148 C130 0.931 . S
H149 C131 0.929 . S
H150 C132 0.930 . S
H151 C135 0.930 . S
H152 C136 0.931 . S
H153 C140 0.928 . S
H154 C139 0.929 . S
H155 C137 0.932 . S
C156 C157 1.386 . S
C156 C158 1.397 . S
C156 H180 0.931 . S
C157 C156 1.386 . S
C157 C161 1.397 . S
C158 C156 1.397 . S
C158 C159 1.384 . S
C158 H181 0.930 . S
C159 C158 1.384 . S
C159 C160 1.377 . S
C159 C162 1.481 . S
C160 C159 1.377 . S
C160 C161 1.389 . S
C160 H182 0.929 . S
C161 C157 1.397 . S
C161 C160 1.389 . S
C161 H183 0.931 . S
C162 C159 1.481 . S
C162 C163 1.387 . S
C162 C167 1.390 . S
C163 C162 1.387 . S
C163 C164 1.401 . S
C163 H184 0.930 . S
C164 C163 1.401 . S
C164 C165 1.376 1_554 S
C164 C173 1.511 . S
C165 C164 1.376 1_556 S
C165 C166 1.392 . S
C165 H186 0.931 . S
C166 C165 1.392 . S
C166 C167 1.361 1_556 S
C166 C168 1.500 . S
C167 C162 1.390 . S
C167 C166 1.361 1_554 S
C167 H185 0.931 . S
C168 C166 1.500 . S
C168 C169 1.371 . S
C168 C170 1.365 . S
C169 C168 1.371 . S
C169 C179 1.386 . S
C169 H187 0.931 . S
C170 C168 1.365 . S
C170 C171 1.409 . S
C170 H188 0.929 . S
C171 C170 1.409 . S
C171 C172 1.380 . S
C171 H189 0.930 . S
C172 C171 1.380 . S
C172 C179 1.357 . S
C173 C164 1.511 . S
C173 C174 1.341 . S
C173 C175 1.371 . S
C174 C173 1.341 . S
C174 C178 1.394 . S
C174 H190 0.930 . S
C175 C173 1.371 . S
C175 C176 1.392 . S
C175 H191 0.931 1_554 S
C176 C175 1.392 . S
C176 C177 1.331 . S
C176 H194 0.932 . S
C177 C176 1.331 . S
C177 C178 1.336 . S
C178 C174 1.394 . S
C178 C177 1.336 . S
C178 H193 0.929 . S
C179 C169 1.386 . S
C179 C172 1.357 . S
C179 H192 0.928 . S
H180 C156 0.931 . S
H181 C158 0.930 . S
H182 C160 0.929 . S
H183 C161 0.931 . S
H184 C163 0.930 . S
H185 C167 0.931 . S
H186 C165 0.931 . S
H187 C169 0.931 . S
H188 C170 0.929 . S
H189 C171 0.930 . S
H190 C174 0.930 . S
H191 C175 0.931 1_556 S
H192 C179 0.928 . S
H193 C178 0.929 . S
H194 C176 0.932 . S
C195 C196 1.389 . S
C195 C197 1.397 . S
C195 H219 0.931 . S
C196 C195 1.389 . S
C196 C200 1.394 1_655 S
C197 C195 1.397 . S
C197 C198 1.383 . S
C197 H220 0.930 . S
C198 C197 1.383 . S
C198 C199 1.378 1_655 S
C198 C201 1.480 . S
C199 C198 1.378 1_455 S
C199 C200 1.389 . S
C199 H221 0.929 . S
C200 C196 1.394 1_455 S
C200 C199 1.389 . S
C200 H222 0.931 . S
C201 C198 1.480 . S
C201 C202 1.388 . S
C201 C206 1.390 . S
C202 C201 1.388 . S
C202 C203 1.402 . S
C202 H223 0.930 . S
C203 C202 1.402 . S
C203 C204 1.376 1_554 S
C203 C212 1.512 . S
C204 C203 1.376 1_556 S
C204 C205 1.392 1_655 S
C204 H225 0.934 . S
C205 C204 1.392 1_455 S
C205 C206 1.361 1_456 S
C205 C207 1.499 . S
C206 C201 1.390 . S
C206 C205 1.361 1_654 S
C206 H224 0.931 . S
C207 C205 1.499 . S
C207 C208 1.357 1_455 S
C207 C209 1.380 . S
C208 C207 1.357 1_655 S
C208 C218 1.386 . S
C208 H226 0.931 . S
C209 C207 1.380 . S
C209 C210 1.409 . S
C209 H227 0.929 . S
C210 C209 1.409 . S
C210 C211 1.384 . S
C210 H228 0.930 . S
C211 C210 1.384 . S
C211 C218 1.353 1_455 S
C212 C203 1.512 . S
C212 C213 1.341 . S
C212 C214 1.371 1_655 S
C213 C212 1.341 . S
C213 C217 1.394 . S
C213 H229 0.930 . S
C214 C212 1.371 1_455 S
C214 C215 1.392 . S
C214 H230 0.931 1_554 S
C215 C214 1.392 . S
C215 C216 1.325 1_455 S
C215 H233 0.932 . S
C216 C215 1.325 1_655 S
C216 C217 1.342 . S
C217 C213 1.394 . S
C217 C216 1.342 . S
C217 H232 0.929 . S
C218 C208 1.386 . S
C218 C211 1.353 1_655 S
C218 H231 0.928 . S
H219 C195 0.931 . S
H220 C197 0.930 . S
H221 C199 0.929 . S
H222 C200 0.931 . S
H223 C202 0.930 . S
H224 C206 0.931 . S
H225 C204 0.934 . S
H226 C208 0.931 . S
H227 C209 0.929 . S
H228 C210 0.930 . S
H229 C213 0.930 . S
H230 C214 0.931 1_556 S
H231 C218 0.928 . S
H232 C217 0.929 . S
H233 C215 0.932 . S
C234 C235 1.389 . S
C234 C236 1.397 . S
C234 H258 0.931 . S
C235 C234 1.389 . S
C235 C239 1.394 1_565 S
C236 C234 1.397 . S
C236 C237 1.383 . S
C236 H259 0.930 . S
C237 C236 1.383 . S
C237 C238 1.378 1_565 S
C237 C240 1.480 . S
C238 C237 1.378 1_545 S
C238 C239 1.389 . S
C238 H260 0.929 . S
C239 C235 1.394 1_545 S
C239 C238 1.389 . S
C239 H261 0.931 . S
C240 C237 1.480 . S
C240 C241 1.388 . S
C240 C245 1.390 . S
C241 C240 1.388 . S
C241 C242 1.402 . S
C241 H262 0.930 . S
C242 C241 1.402 . S
C242 C243 1.376 1_554 S
C242 C251 1.512 . S
C243 C242 1.376 1_556 S
C243 C244 1.392 1_565 S
C243 H264 0.934 . S
C244 C243 1.392 1_545 S
C244 C245 1.361 1_546 S
C244 C246 1.499 . S
C245 C240 1.390 . S
C245 C244 1.361 1_564 S
C245 H263 0.931 . S
C246 C244 1.499 . S
C246 C247 1.357 1_545 S
C246 C248 1.380 . S
C247 C246 1.357 1_565 S
C247 C257 1.386 . S
C247 H265 0.931 . S
C248 C246 1.380 . S
C248 C249 1.409 . S
C248 H266 0.929 . S
C249 C248 1.409 . S
C249 C250 1.384 . S
C249 H267 0.930 . S
C250 C249 1.384 . S
C250 C257 1.353 1_545 S
C251 C242 1.512 . S
C251 C252 1.341 . S
C251 C253 1.371 1_565 S
C252 C251 1.341 . S
C252 C256 1.394 . S
C252 H268 0.930 . S
C253 C251 1.371 1_545 S
C253 C254 1.392 . S
C253 H269 0.931 1_554 S
C254 C253 1.392 . S
C254 C255 1.325 1_545 S
C254 H272 0.932 . S
C255 C254 1.325 1_565 S
C255 C256 1.342 . S
C256 C252 1.394 . S
C256 C255 1.342 . S
C256 H271 0.929 . S
C257 C247 1.386 . S
C257 C250 1.353 1_565 S
C257 H270 0.928 . S
H258 C234 0.931 . S
H259 C236 0.930 . S
H260 C238 0.929 . S
H261 C239 0.931 . S
H262 C241 0.930 . S
H263 C245 0.931 . S
H264 C243 0.934 . S
H265 C247 0.931 . S
H266 C248 0.929 . S
H267 C249 0.930 . S
H268 C252 0.930 . S
H269 C253 0.931 1_556 S
H270 C257 0.928 . S
H271 C256 0.929 . S
H272 C254 0.932 . S
C273 C274 1.386 . S
C273 C275 1.397 . S
C273 H297 0.931 . S
C274 C273 1.386 . S
C274 C278 1.397 . S
C275 C273 1.397 . S
C275 C276 1.384 . S
C275 H298 0.930 . S
C276 C275 1.384 . S
C276 C277 1.377 . S
C276 C279 1.481 . S
C277 C276 1.377 . S
C277 C278 1.389 . S
C277 H299 0.929 . S
C278 C274 1.397 . S
C278 C277 1.389 . S
C278 H300 0.931 . S
C279 C276 1.481 . S
C279 C280 1.387 . S
C279 C284 1.390 1_556 S
C280 C279 1.387 . S
C280 C281 1.401 1_556 S
C280 H301 0.930 . S
C281 C280 1.401 1_554 S
C281 C282 1.376 . S
C281 C290 1.511 . S
C282 C281 1.376 . S
C282 C283 1.392 . S
C282 H303 0.931 . S
C283 C282 1.392 . S
C283 C284 1.361 . S
C283 C285 1.500 . S
C284 C279 1.390 1_554 S
C284 C283 1.361 . S
C284 H302 0.931 . S
C285 C283 1.500 . S
C285 C286 1.371 . S
C285 C287 1.365 . S
C286 C285 1.371 . S
C286 C296 1.386 . S
C286 H304 0.931 . S
C287 C285 1.365 . S
C287 C288 1.409 . S
C287 H305 0.929 . S
C288 C287 1.409 . S
C288 C289 1.380 . S
C288 H306 0.930 . S
C289 C288 1.380 . S
C289 C296 1.357 . S
C290 C281 1.511 . S
C290 C291 1.341 . S
C290 C292 1.371 . S
C291 C290 1.341 . S
C291 C295 1.394 . S
C291 H307 0.930 1_554 S
C292 C290 1.371 . S
C292 C293 1.392 . S
C292 H308 0.931 . S
C293 C292 1.392 . S
C293 C294 1.331 . S
C293 H311 0.932 . S
C294 C293 1.331 . S
C294 C295 1.336 . S
C295 C291 1.394 . S
C295 C294 1.336 . S
C295 H310 0.929 . S
C296 C286 1.386 . S
C296 C289 1.357 . S
C296 H309 0.928 . S
H297 C273 0.931 . S
H298 C275 0.930 . S
H299 C277 0.929 . S
H300 C278 0.931 . S
H301 C280 0.930 . S
H302 C284 0.931 . S
H303 C282 0.931 . S
H304 C286 0.931 . S
H305 C287 0.929 . S
H306 C288 0.930 . S
H307 C291 0.930 1_556 S
H308 C292 0.931 . S
H309 C296 0.928 . S
H310 C295 0.929 . S
H311 C293 0.932 . S
Tb312 C314 2.809 . S
Tb312 O332 2.484 . S
Tb312 O333 2.440 . S
Tb312 O334 2.658 1_565 S
Tb312 O335 2.409 . S
Tb312 O336 2.378 . S
Tb312 O340 2.325 1_455 S
Tb312 O343 2.341 1_565 S
Tb313 C323 2.809 . S
Tb313 O334 2.325 1_655 S
Tb313 O337 2.341 1_545 S
Tb313 O338 2.484 . S
Tb313 O339 2.440 . S
Tb313 O340 2.658 1_545 S
Tb313 O341 2.409 . S
Tb313 O342 2.378 . S
C314 Tb312 2.809 . S
C314 C315 1.514 . S
C314 O332 1.248 . S
C314 O333 1.266 . S
C315 C314 1.514 . S
C315 C316 1.359 1_556 S
C315 C320 1.348 . S
C316 C315 1.359 1_554 S
C316 C317 1.380 . S
C316 H344 0.929 1_455 S
C317 C316 1.380 . S
C317 C318 1.347 . S
C317 H345 0.957 . S
C318 C317 1.347 . S
C318 C319 1.369 . S
C319 C318 1.369 . S
C319 C320 1.408 1_554 S
C319 H346 0.930 . S
C320 C315 1.348 . S
C320 C319 1.408 1_556 S
C320 H347 0.930 . S
C321 O334 1.281 1_565 S
C321 O335 1.254 . S
C322 O336 1.236 1_655 S
C322 O337 1.266 . S
C323 Tb313 2.809 . S
C323 C324 1.514 . S
C323 O338 1.248 . S
C323 O339 1.266 . S
C324 C323 1.514 . S
C324 C325 1.359 . S
C324 C329 1.348 . S
C325 C324 1.359 . S
C325 C326 1.380 . S
C325 H348 0.929 1_655 S
C326 C325 1.380 . S
C326 C327 1.347 . S
C326 H349 0.949 . S
C327 C326 1.347 . S
C327 C328 1.369 . S
C328 C327 1.369 . S
C328 C329 1.408 . S
C328 H350 0.930 . S
C329 C324 1.348 . S
C329 C328 1.408 . S
C329 H351 0.930 . S
C330 O340 1.281 1_545 S
C330 O341 1.254 . S
C331 O342 1.236 1_455 S
C331 O343 1.266 . S
O332 Tb312 2.484 . S
O332 C314 1.248 . S
O333 Tb312 2.440 . S
O333 C314 1.266 . S
O334 Tb312 2.658 1_545 S
O334 Tb313 2.325 1_455 S
O334 C321 1.281 1_545 S
O335 Tb312 2.409 . S
O335 C321 1.254 . S
O336 Tb312 2.378 . S
O336 C322 1.236 1_455 S
O337 Tb313 2.341 1_565 S
O337 C322 1.266 . S
O338 Tb313 2.484 . S
O338 C323 1.248 . S
O339 Tb313 2.440 . S
O339 C323 1.266 . S
O340 Tb312 2.325 1_655 S
O340 Tb313 2.658 1_565 S
O340 C330 1.281 1_565 S
O341 Tb313 2.409 . S
O341 C330 1.254 . S
O342 Tb313 2.378 . S
O342 C331 1.236 1_655 S
O343 Tb312 2.341 1_545 S
O343 C331 1.266 . S
H344 C316 0.929 1_655 S
H345 C317 0.957 . S
H346 C319 0.930 . S
H347 C320 0.930 . S
H348 C325 0.929 1_455 S
H349 C326 0.949 . S
H350 C328 0.930 . S
H351 C329 0.930 . S
Tb352 C354 2.809 . S
Tb352 O372 2.484 . S
Tb352 O373 2.440 . S
Tb352 O374 2.658 . S
Tb352 O375 2.409 . S
Tb352 O376 2.378 . S
Tb352 O380 2.325 1_545 S
Tb352 O383 2.341 . S
Tb353 C363 2.809 . S
Tb353 O374 2.325 1_565 S
Tb353 O377 2.341 . S
Tb353 O378 2.484 . S
Tb353 O379 2.440 . S
Tb353 O380 2.658 . S
Tb353 O381 2.409 . S
Tb353 O382 2.378 . S
C354 Tb352 2.809 . S
C354 C355 1.514 . S
C354 O372 1.248 . S
C354 O373 1.266 . S
C355 C354 1.514 . S
C355 C356 1.359 1_556 S
C355 C360 1.348 . S
C356 C355 1.359 1_554 S
C356 C357 1.380 . S
C356 H384 0.929 1_545 S
C357 C356 1.380 . S
C357 C358 1.347 . S
C357 H385 0.931 1_545 S
C358 C357 1.347 . S
C358 C359 1.369 . S
C359 C358 1.369 . S
C359 C360 1.408 1_554 S
C359 H386 0.930 . S
C360 C355 1.348 . S
C360 C359 1.408 1_556 S
C360 H387 0.930 . S
C361 O374 1.281 . S
C361 O375 1.254 . S
C362 O376 1.236 1_565 S
C362 O377 1.266 . S
C363 Tb353 2.809 . S
C363 C364 1.514 . S
C363 O378 1.248 . S
C363 O379 1.266 . S
C364 C363 1.514 . S
C364 C365 1.359 . S
C364 C369 1.348 . S
C365 C364 1.359 . S
C365 C366 1.380 . S
C365 H388 0.929 1_565 S
C366 C365 1.380 . S
C366 C367 1.347 . S
C366 H389 0.931 1_565 S
C367 C366 1.347 . S
C367 C368 1.369 . S
C368 C367 1.369 . S
C368 C369 1.408 . S
C368 H390 0.930 . S
C369 C364 1.348 . S
C369 C368 1.408 . S
C369 H391 0.930 . S
C370 O380 1.281 . S
C370 O381 1.254 . S
C371 O382 1.236 1_545 S
C371 O383 1.266 . S
O372 Tb352 2.484 . S
O372 C354 1.248 . S
O373 Tb352 2.440 . S
O373 C354 1.266 . S
O374 Tb352 2.658 . S
O374 Tb353 2.325 1_545 S
O374 C361 1.281 . S
O375 Tb352 2.409 . S
O375 C361 1.254 . S
O376 Tb352 2.378 . S
O376 C362 1.236 1_545 S
O377 Tb353 2.341 . S
O377 C362 1.266 . S
O378 Tb353 2.484 . S
O378 C363 1.248 . S
O379 Tb353 2.440 . S
O379 C363 1.266 . S
O380 Tb352 2.325 1_565 S
O380 Tb353 2.658 . S
O380 C370 1.281 . S
O381 Tb353 2.409 . S
O381 C370 1.254 . S
O382 Tb353 2.378 . S
O382 C371 1.236 1_565 S
O383 Tb352 2.341 . S
O383 C371 1.266 . S
H384 C356 0.929 1_565 S
H385 C357 0.931 1_565 S
H386 C359 0.930 . S
H387 C360 0.930 . S
H388 C365 0.929 1_545 S
H389 C366 0.931 1_545 S
H390 C368 0.930 . S
H391 C369 0.930 . S
Tb392 C394 2.809 . S
Tb392 O412 2.484 . S
Tb392 O413 2.440 . S
Tb392 O414 2.658 . S
Tb392 O415 2.409 . S
Tb392 O416 2.378 . S
Tb392 O420 2.325 . S
Tb392 O423 2.341 . S
Tb393 C403 2.809 . S
Tb393 O414 2.325 . S
Tb393 O417 2.341 . S
Tb393 O418 2.484 . S
Tb393 O419 2.440 . S
Tb393 O420 2.658 . S
Tb393 O421 2.409 . S
Tb393 O422 2.378 . S
C394 Tb392 2.809 . S
C394 C395 1.514 . S
C394 O412 1.248 . S
C394 O413 1.266 . S
C395 C394 1.514 . S
C395 C396 1.359 1_556 S
C395 C400 1.348 . S
C396 C395 1.359 1_554 S
C396 C397 1.380 . S
C396 H424 0.929 . S
C397 C396 1.380 . S
C397 C398 1.347 . S
C397 H425 0.931 . S
C398 C397 1.347 . S
C398 C399 1.369 . S
C399 C398 1.369 . S
C399 C400 1.408 1_554 S
C399 H426 0.930 . S
C400 C395 1.348 . S
C400 C399 1.408 1_556 S
C400 H427 0.930 . S
C401 O414 1.281 . S
C401 O415 1.254 . S
C402 O416 1.236 . S
C402 O417 1.266 . S
C403 Tb393 2.809 . S
C403 C404 1.514 . S
C403 O418 1.248 . S
C403 O419 1.266 . S
C404 C403 1.514 . S
C404 C405 1.359 . S
C404 C409 1.348 . S
C405 C404 1.359 . S
C405 C406 1.380 . S
C405 H428 0.929 . S
C406 C405 1.380 . S
C406 C407 1.347 . S
C406 H429 0.931 . S
C407 C406 1.347 . S
C407 C408 1.369 . S
C408 C407 1.369 . S
C408 C409 1.408 . S
C408 H430 0.930 . S
C409 C404 1.348 . S
C409 C408 1.408 . S
C409 H431 0.930 . S
C410 O420 1.281 . S
C410 O421 1.254 . S
C411 O422 1.236 . S
C411 O423 1.266 . S
O412 Tb392 2.484 . S
O412 C394 1.248 . S
O413 Tb392 2.440 . S
O413 C394 1.266 . S
O414 Tb392 2.658 . S
O414 Tb393 2.325 . S
O414 C401 1.281 . S
O415 Tb392 2.409 . S
O415 C401 1.254 . S
O416 Tb392 2.378 . S
O416 C402 1.236 . S
O417 Tb393 2.341 . S
O417 C402 1.266 . S
O418 Tb393 2.484 . S
O418 C403 1.248 . S
O419 Tb393 2.440 . S
O419 C403 1.266 . S
O420 Tb392 2.325 . S
O420 Tb393 2.658 . S
O420 C410 1.281 . S
O421 Tb393 2.409 . S
O421 C410 1.254 . S
O422 Tb393 2.378 . S
O422 C411 1.236 . S
O423 Tb392 2.341 . S
O423 C411 1.266 . S
H424 C396 0.929 . S
H425 C397 0.931 . S
H426 C399 0.930 . S
H427 C400 0.930 . S
H428 C405 0.929 . S
H429 C406 0.931 . S
H430 C408 0.930 . S
H431 C409 0.930 . S
Tb432 C434 2.809 . S
Tb432 O452 2.484 . S
Tb432 O453 2.440 . S
Tb432 O454 2.658 1_655 S
Tb432 O455 2.409 . S
Tb432 O456 2.378 . S
Tb432 O460 2.325 . S
Tb432 O463 2.341 1_655 S
Tb433 C443 2.809 . S
Tb433 O454 2.325 . S
Tb433 O457 2.341 1_455 S
Tb433 O458 2.484 . S
Tb433 O459 2.440 . S
Tb433 O460 2.658 1_455 S
Tb433 O461 2.409 . S
Tb433 O462 2.378 . S
C434 Tb432 2.809 . S
C434 C435 1.514 . S
C434 O452 1.248 . S
C434 O453 1.266 . S
C435 C434 1.514 . S
C435 C436 1.359 1_556 S
C435 C440 1.348 . S
C436 C435 1.359 1_554 S
C436 C437 1.380 . S
C436 H464 0.929 . S
C437 C436 1.380 . S
C437 C438 1.347 . S
C437 H465 0.931 . S
C438 C437 1.347 . S
C438 C439 1.369 . S
C439 C438 1.369 . S
C439 C440 1.408 1_554 S
C439 H466 0.930 . S
C440 C435 1.348 . S
C440 C439 1.408 1_556 S
C440 H467 0.930 . S
C441 O454 1.280 1_655 S
C441 O455 1.254 . S
C442 O456 1.236 . S
C442 O457 1.266 . S
C443 Tb433 2.809 . S
C443 C444 1.514 . S
C443 O458 1.248 . S
C443 O459 1.266 . S
C444 C443 1.514 . S
C444 C445 1.359 . S
C444 C449 1.348 . S
C445 C444 1.359 . S
C445 C446 1.380 . S
C445 H468 0.929 . S
C446 C445 1.380 . S
C446 C447 1.347 . S
C446 H469 0.931 . S
C447 C446 1.347 . S
C447 C448 1.369 . S
C448 C447 1.369 . S
C448 C449 1.408 . S
C448 H470 0.930 . S
C449 C444 1.348 . S
C449 C448 1.408 . S
C449 H471 0.930 . S
C450 O460 1.277 1_455 S
C450 O461 1.258 . S
C451 O462 1.236 . S
C451 O463 1.266 . S
O452 Tb432 2.484 . S
O452 C434 1.248 . S
O453 Tb432 2.440 . S
O453 C434 1.266 . S
O454 Tb432 2.658 1_455 S
O454 Tb433 2.325 . S
O454 C441 1.280 1_455 S
O455 Tb432 2.409 . S
O455 C441 1.254 . S
O456 Tb432 2.378 . S
O456 C442 1.236 . S
O457 Tb433 2.341 1_655 S
O457 C442 1.266 . S
O458 Tb433 2.484 . S
O458 C443 1.248 . S
O459 Tb433 2.440 . S
O459 C443 1.266 . S
O460 Tb432 2.325 . S
O460 Tb433 2.658 1_655 S
O460 C450 1.277 1_655 S
O461 Tb433 2.409 . S
O461 C450 1.258 . S
O462 Tb433 2.378 . S
O462 C451 1.236 . S
O463 Tb432 2.341 1_455 S
O463 C451 1.266 . S
H464 C436 0.929 . S
H465 C437 0.931 . S
H466 C439 0.930 . S
H467 C440 0.930 . S
H468 C445 0.929 . S
H469 C446 0.931 . S
H470 C448 0.930 . S
H471 C449 0.930 . S
C472 C473 1.386 . S
C472 H476 0.950 . S
C472 C481 1.390 . S
C473 C472 1.386 . S
C473 C475 1.389 1_545 S
H474 C481 0.950 . S
C475 C473 1.389 1_565 S
C475 C477 1.390 . S
C475 H479 0.950 . S
H476 C472 0.950 . S
C477 C475 1.390 . S
C477 C478 1.387 . S
C477 H480 0.950 . S
C478 C477 1.387 . S
C478 C481 1.388 1_565 S
H479 C475 0.950 . S
H480 C477 0.950 . S
C481 C472 1.390 . S
C481 H474 0.950 . S
C481 C478 1.388 1_545 S
C482 C483 1.387 . S
C482 H486 0.950 . S
C482 C491 1.390 . S
C483 C482 1.387 . S
C483 C485 1.387 . S
H484 C491 0.950 . S
C485 C483 1.387 . S
C485 C487 1.390 . S
C485 H489 0.950 . S
H486 C482 0.950 . S
C487 C485 1.390 . S
C487 C488 1.387 . S
C487 H490 0.950 . S
C488 C487 1.387 . S
C488 C491 1.387 . S
H489 C485 0.950 . S
H490 C487 0.950 . S
C491 C482 1.390 . S
C491 H484 0.950 . S
C491 C488 1.387 . S
C492 C493 1.387 . S
C492 H496 0.950 . S
C492 C501 1.390 . S
C493 C492 1.387 . S
C493 C495 1.387 . S
H494 C501 0.950 . S
C495 C493 1.387 . S
C495 C497 1.390 . S
C495 H499 0.950 . S
H496 C492 0.950 . S
C497 C495 1.390 . S
C497 C498 1.387 . S
C497 H500 0.950 . S
C498 C497 1.387 . S
C498 C501 1.387 . S
H499 C495 0.950 . S
H500 C497 0.950 . S
C501 C492 1.390 . S
C501 H494 0.950 . S
C501 C498 1.387 . S
C502 C503 1.408 . S
C502 H506 0.950 . S
C502 C511 1.390 . S
C503 C502 1.408 . S
C503 C505 1.367 1_455 S
H504 C511 0.950 . S
C505 C503 1.367 1_655 S
C505 C507 1.390 . S
C505 H509 0.950 . S
H506 C502 0.950 . S
C507 C505 1.390 . S
C507 C508 1.387 1_655 S
C507 H510 0.950 . S
C508 C507 1.387 1_455 S
C508 C511 1.387 . S
H509 C505 0.950 . S
H510 C507 0.950 . S
C511 C502 1.390 . S
C511 H504 0.950 . S
C511 C508 1.387 . S
C512 C513 1.390 . S
C512 H516 0.950 . S
C512 C521 1.390 . S
C513 C512 1.390 . S
C513 C515 1.384 1_545 S
H514 C521 0.950 . S
C515 C513 1.384 1_565 S
C515 C517 1.390 . S
C515 H519 0.950 . S
H516 C512 0.950 . S
C517 C515 1.390 . S
C517 C518 1.381 1_565 S
C517 H520 0.950 . S
C518 C517 1.381 1_545 S
C518 C521 1.394 . S
H519 C515 0.950 . S
H520 C517 0.950 . S
C521 C512 1.390 . S
C521 H514 0.950 . S
C521 C518 1.394 . S
C522 C523 1.387 . S
C522 H526 0.950 . S
C522 C531 1.390 . S
C523 C522 1.387 . S
C523 C525 1.387 . S
H524 C531 0.950 . S
C525 C523 1.387 . S
C525 C527 1.390 . S
C525 H529 0.950 . S
H526 C522 0.950 . S
C527 C525 1.390 . S
C527 C528 1.387 . S
C527 H530 0.950 . S
C528 C527 1.387 . S
C528 C531 1.387 . S
H529 C525 0.950 . S
H530 C527 0.950 . S
C531 C522 1.390 . S
C531 H524 0.950 . S
C531 C528 1.387 . S
C532 C533 1.387 . S
C532 H536 0.950 . S
C532 C541 1.390 . S
C533 C532 1.387 . S
C533 C535 1.387 . S
H534 C541 0.950 . S
C535 C533 1.387 . S
C535 C537 1.390 . S
C535 H539 0.950 . S
H536 C532 0.950 . S
C537 C535 1.390 . S
C537 C538 1.387 . S
C537 H540 0.950 . S
C538 C537 1.387 . S
C538 C541 1.387 . S
H539 C535 0.950 . S
H540 C537 0.950 . S
C541 C532 1.390 . S
C541 H534 0.950 . S
C541 C538 1.387 . S
C542 C543 1.408 . S
C542 H546 0.950 . S
C542 C551 1.390 . S
C543 C542 1.408 . S
C543 C545 1.367 1_655 S
H544 C551 0.950 . S
C545 C543 1.367 1_455 S
C545 C547 1.390 . S
C545 H549 0.950 . S
H546 C542 0.950 . S
C547 C545 1.390 . S
C547 C548 1.387 1_455 S
C547 H550 0.950 . S
C548 C547 1.387 1_655 S
C548 C551 1.387 . S
H549 C545 0.950 . S
H550 C547 0.950 . S
C551 C542 1.390 . S
C551 H544 0.950 . S
C551 C548 1.387 . S
C552 C553 1.396 . S
C552 H556 0.950 . S
C552 C561 1.390 . S
C553 C552 1.396 . S
C553 C555 1.390 . S
H554 C561 0.950 . S
C555 C553 1.390 . S
C555 C557 1.390 . S
C555 H559 0.950 1_655 S
H556 C552 0.950 . S
C557 C555 1.390 . S
C557 C558 1.387 . S
C557 H560 0.950 . S
C558 C557 1.387 . S
C558 C561 1.387 . S
H559 C555 0.950 1_455 S
H560 C557 0.950 . S
C561 C552 1.390 . S
C561 H554 0.950 . S
C561 C558 1.387 . S
C562 C563 1.391 . S
C562 H566 0.950 . S
C562 C571 1.390 . S
C563 C562 1.391 . S
C563 C565 1.388 . S
H564 C571 0.950 . S
C565 C563 1.388 . S
C565 C567 1.390 . S
C565 H569 0.950 1_565 S
H566 C562 0.950 . S
C567 C565 1.390 . S
C567 C568 1.387 . S
C567 H570 0.950 . S
C568 C567 1.387 . S
C568 C571 1.387 . S
H569 C565 0.950 1_545 S
H570 C567 0.950 . S
C571 C562 1.390 . S
C571 H564 0.950 . S
C571 C568 1.387 . S
C572 C573 1.387 . S
C572 H576 0.950 . S
C572 C581 1.390 . S
C573 C572 1.387 . S
C573 C575 1.387 . S
H574 C581 0.950 . S
C575 C573 1.387 . S
C575 C577 1.390 . S
C575 H579 0.950 . S
H576 C572 0.950 . S
C577 C575 1.390 . S
C577 C578 1.387 . S
C577 H580 0.950 . S
C578 C577 1.387 . S
C578 C581 1.387 . S
H579 C575 0.950 . S
H580 C577 0.950 . S
C581 C572 1.390 . S
C581 H574 0.950 . S
C581 C578 1.387 . S
C582 C583 1.387 . S
C582 H586 0.950 . S
C582 C591 1.390 . S
C583 C582 1.387 . S
C583 C585 1.387 . S
H584 C591 0.950 . S
C585 C583 1.387 . S
C585 C587 1.390 . S
C585 H589 0.950 . S
H586 C582 0.950 . S
C587 C585 1.390 . S
C587 C588 1.387 . S
C587 H590 0.950 . S
C588 C587 1.387 . S
C588 C591 1.387 . S
H589 C585 0.950 . S
H590 C587 0.950 . S
C591 C582 1.390 . S
C591 H584 0.950 . S
C591 C588 1.387 . S
C592 C593 1.396 . S
C592 H596 0.950 1_554 S
C592 C601 1.390 . S
C593 C592 1.396 . S
C593 C595 1.391 . S
H594 C601 0.950 1_556 S
C595 C593 1.391 . S
C595 C597 1.390 . S
C595 H599 0.950 1_455 S
H596 C592 0.950 1_556 S
C597 C595 1.390 . S
C597 C598 1.387 . S
C597 H600 0.950 . S
C598 C597 1.387 . S
C598 C601 1.387 . S
H599 C595 0.950 1_655 S
H600 C597 0.950 . S
C601 C592 1.390 . S
C601 H594 0.950 1_554 S
C601 C598 1.387 . S
C602 C603 1.389 . S
C602 H606 0.950 1_544 S
C602 C611 1.390 . S
C603 C602 1.389 . S
C603 C605 1.397 . S
H604 C611 0.950 1_556 S
C605 C603 1.397 . S
C605 C607 1.390 . S
C605 H609 0.950 . S
H606 C602 0.950 1_566 S
C607 C605 1.390 . S
C607 C608 1.387 . S
C607 H610 0.950 . S
C608 C607 1.387 . S
C608 C611 1.387 . S
H609 C605 0.950 . S
H610 C607 0.950 . S
C611 C602 1.390 . S
C611 H604 0.950 1_554 S
C611 C608 1.387 . S
C612 C613 1.387 . S
C612 H616 0.950 . S
C612 C621 1.390 . S
C613 C612 1.387 . S
C613 C615 1.387 . S
H614 C621 0.950 . S
C615 C613 1.387 . S
C615 C617 1.390 . S
C615 H619 0.950 1_554 S
H616 C612 0.950 . S
C617 C615 1.390 . S
C617 C618 1.387 . S
C617 H620 0.950 1_554 S
C618 C617 1.387 . S
C618 C621 1.387 . S
H619 C615 0.950 1_556 S
H620 C617 0.950 1_556 S
C621 C612 1.390 . S
C621 H614 0.950 . S
C621 C618 1.387 . S
C622 C623 1.387 . S
C622 H626 0.950 1_554 S
C622 C631 1.390 . S
C623 C622 1.387 . S
C623 C625 1.387 . S
H624 C631 0.950 1_556 S
C625 C623 1.387 . S
C625 C627 1.390 . S
C625 H629 0.950 . S
H626 C622 0.950 1_556 S
C627 C625 1.390 . S
C627 C628 1.387 . S
C627 H630 0.950 . S
C628 C627 1.387 . S
C628 C631 1.387 . S
H629 C625 0.950 . S
H630 C627 0.950 . S
C631 C622 1.390 . S
C631 H624 0.950 1_554 S
C631 C628 1.387 . S
C632 C633 1.387 1_655 S
C632 H636 0.950 . S
C632 C641 1.390 . S
C633 C632 1.387 1_455 S
C633 C635 1.387 . S
H634 C641 0.950 . S
C635 C633 1.387 . S
C635 C637 1.390 . S
C635 H639 0.950 . S
H636 C632 0.950 . S
C637 C635 1.390 . S
C637 C638 1.387 . S
C637 H640 0.950 . S
C638 C637 1.387 . S
C638 C641 1.387 1_455 S
H639 C635 0.950 . S
H640 C637 0.950 . S
C641 C632 1.390 . S
C641 H634 0.950 . S
C641 C638 1.387 1_655 S
C642 C643 1.387 1_565 S
C642 H646 0.950 . S
C642 C651 1.390 . S
C643 C642 1.387 1_545 S
C643 C645 1.387 . S
H644 C651 0.950 . S
C645 C643 1.387 . S
C645 C647 1.390 . S
C645 H649 0.950 . S
H646 C642 0.950 . S
C647 C645 1.390 . S
C647 C648 1.387 . S
C647 H650 0.950 . S
C648 C647 1.387 . S
C648 C651 1.387 1_545 S
H649 C645 0.950 . S
H650 C647 0.950 . S
C651 C642 1.390 . S
C651 H644 0.950 . S
C651 C648 1.387 1_565 S
C652 C653 1.387 . S
C652 H656 0.950 . S
C652 C661 1.390 . S
C653 C652 1.387 . S
C653 C655 1.387 . S
H654 C661 0.950 . S
C655 C653 1.387 . S
C655 C657 1.390 . S
C655 H659 0.950 . S
H656 C652 0.950 . S
C657 C655 1.390 . S
C657 C658 1.387 . S
C657 H660 0.950 . S
C658 C657 1.387 . S
C658 C661 1.387 . S
H659 C655 0.950 . S
H660 C657 0.950 . S
C661 C652 1.390 . S
C661 H654 0.950 . S
C661 C658 1.387 . S
C662 C663 1.387 . S
C662 H666 0.950 . S
C662 C671 1.390 . S
C663 C662 1.387 . S
C663 C665 1.387 . S
H664 C671 0.950 . S
C665 C663 1.387 . S
C665 C667 1.390 . S
C665 H669 0.950 . S
H666 C662 0.950 . S
C667 C665 1.390 . S
C667 C668 1.387 . S
C667 H670 0.950 . S
C668 C667 1.387 . S
C668 C671 1.387 . S
H669 C665 0.950 . S
H670 C667 0.950 . S
C671 C662 1.390 . S
C671 H664 0.950 . S
C671 C668 1.387 . S
C672 C673 1.387 1_455 S
C672 H676 0.950 . S
C672 C681 1.390 . S
C673 C672 1.387 1_655 S
C673 C675 1.387 . S
H674 C681 0.950 . S
C675 C673 1.387 . S
C675 C677 1.390 . S
C675 H679 0.950 . S
H676 C672 0.950 . S
C677 C675 1.390 . S
C677 C678 1.387 . S
C677 H680 0.950 . S
C678 C677 1.387 . S
C678 C681 1.387 1_655 S
H679 C675 0.950 . S
H680 C677 0.950 . S
C681 C672 1.390 . S
C681 H674 0.950 . S
C681 C678 1.387 1_455 S
C682 C683 1.387 . S
C682 H686 0.950 . S
C682 C691 1.390 . S
C683 C682 1.387 . S
C683 C685 1.387 1_565 S
H684 C691 0.950 . S
C685 C683 1.387 1_545 S
C685 C687 1.390 . S
C685 H689 0.950 . S
H686 C682 0.950 . S
C687 C685 1.390 . S
C687 C688 1.387 1_545 S
C687 H690 0.950 . S
C688 C687 1.387 1_565 S
C688 C691 1.387 . S
H689 C685 0.950 . S
H690 C687 0.950 . S
C691 C682 1.390 . S
C691 H684 0.950 . S
C691 C688 1.387 . S
C692 C693 1.387 . S
C692 H696 0.950 . S
C692 C701 1.390 . S
C693 C692 1.387 . S
C693 C695 1.387 . S
H694 C701 0.950 . S
C695 C693 1.387 . S
C695 C697 1.390 . S
C695 H699 0.950 . S
H696 C692 0.950 . S
C697 C695 1.390 . S
C697 C698 1.387 . S
C697 H700 0.950 . S
C698 C697 1.387 . S
C698 C701 1.387 . S
H699 C695 0.950 . S
H700 C697 0.950 . S
C701 C692 1.390 . S
C701 H694 0.950 . S
C701 C698 1.387 . S
C702 C703 1.387 . S
C702 H706 0.950 . S
C702 C711 1.390 . S
C703 C702 1.387 . S
C703 C705 1.387 . S
H704 C711 0.950 . S
C705 C703 1.387 . S
C705 C707 1.390 . S
C705 H709 0.950 . S
H706 C702 0.950 . S
C707 C705 1.390 . S
C707 C708 1.387 . S
C707 H710 0.950 . S
C708 C707 1.387 . S
C708 C711 1.387 . S
H709 C705 0.950 . S
H710 C707 0.950 . S
C711 C702 1.390 . S
C711 H704 0.950 . S
C711 C708 1.387 . S
C473 C255 2.519 1_545 S
C478 C321 2.866 . S
C488 C361 2.907 . S
C483 C294 2.522 . S
C498 C401 2.900 . S
C493 C177 2.564 . S
C508 C441 2.876 1_455 S
C503 C216 2.532 1_455 S
C518 C330 2.866 1_554 S
C513 C99 2.521 1_545 S
C523 C138 2.527 . S
C528 C370 2.908 1_554 S
C533 C21 2.555 . S
C538 C410 2.899 1_554 S
C543 C60 2.536 . S
C548 C450 2.878 1_654 S
C558 C327 0.761 . S
C553 C196 0.761 . S
C568 C367 0.755 . S
C563 C235 0.757 . S
C578 C407 0.707 . S
C573 C289 0.703 . S
C583 C157 0.714 . S
C588 C447 0.713 . S
C593 C40 0.763 1_455 S
C598 C318 0.763 . S
C608 C358 0.755 . S
C603 C79 0.758 1_545 S
C618 C398 0.716 . S
C613 C133 0.709 . S
C623 C1 0.713 . S
C628 C438 0.720 . S
C633 C211 3.244 . S
C638 C331 3.759 . S
C643 C250 3.191 . S
C648 C371 3.714 . S
C658 C411 3.706 . S
C653 C274 3.190 . S
C668 C451 3.747 . S
C663 C172 3.222 . S
C673 C55 3.246 1_655 S
C678 C322 3.769 . S
C688 C362 3.714 . S
C683 C94 3.191 1_565 S
C698 C402 3.707 . S
C693 C118 3.196 . S
C703 C16 3.230 . S
C708 C442 3.751 . S
