# Generated by pormake.
# Topology apo, (3,6)-cn, num edge types: 1
# Building blocks:
#     Node 0, Type 0, BuildingBlock: ESEHIV_clean_linker_0, # of connection points: 3
#     Node 1, Type 0, BuildingBlock: ESEHIV_clean_linker_0, # of connection points: 3
#     Node 2, Type 0, BuildingBlock: ESEHIV_clean_linker_0, # of connection points: 3
#     Node 3, Type 0, BuildingBlock: ESEHIV_clean_linker_0, # of connection points: 3
#     Node 4, Type 0, BuildingBlock: ESEHIV_clean_linker_0, # of connection points: 3
#     Node 5, Type 0, BuildingBlock: ESEHIV_clean_linker_0, # of connection points: 3
#     Node 6, Type 0, BuildingBlock: ESEHIV_clean_linker_0, # of connection points: 3
#     Node 7, Type 0, BuildingBlock: ESEHIV_clean_linker_0, # of connection points: 3
#     Node 8, Type 1, BuildingBlock: MIDCAF_clean_sbu_0, # of connection points: 6
#     Node 9, Type 1, BuildingBlock: MIDCAF_clean_sbu_0, # of connection points: 6
#     Node 10, Type 1, BuildingBlock: MIDCAF_clean_sbu_0, # of connection points: 6
#     Node 11, Type 1, BuildingBlock: MIDCAF_clean_sbu_0, # of connection points: 6
#     Edge 12, Type (0, 1), BuildingBlock: XUDNAN_clean_linker_2, # of connection points: 2
#     Edge 13, Type (0, 1), BuildingBlock: XUDNAN_clean_linker_2, # of connection points: 2
#     Edge 14, Type (0, 1), BuildingBlock: XUDNAN_clean_linker_2, # of connection points: 2
#     Edge 15, Type (0, 1), BuildingBlock: XUDNAN_clean_linker_2, # of connection points: 2
#     Edge 16, Type (0, 1), BuildingBlock: XUDNAN_clean_linker_2, # of connection points: 2
#     Edge 17, Type (0, 1), BuildingBlock: XUDNAN_clean_linker_2, # of connection points: 2
#     Edge 18, Type (0, 1), BuildingBlock: XUDNAN_clean_linker_2, # of connection points: 2
#     Edge 19, Type (0, 1), BuildingBlock: XUDNAN_clean_linker_2, # of connection points: 2
#     Edge 20, Type (0, 1), BuildingBlock: XUDNAN_clean_linker_2, # of connection points: 2
#     Edge 21, Type (0, 1), BuildingBlock: XUDNAN_clean_linker_2, # of connection points: 2
#     Edge 22, Type (0, 1), BuildingBlock: XUDNAN_clean_linker_2, # of connection points: 2
#     Edge 23, Type (0, 1), BuildingBlock: XUDNAN_clean_linker_2, # of connection points: 2
#     Edge 24, Type (0, 1), BuildingBlock: XUDNAN_clean_linker_2, # of connection points: 2
#     Edge 25, Type (0, 1), BuildingBlock: XUDNAN_clean_linker_2, # of connection points: 2
#     Edge 26, Type (0, 1), BuildingBlock: XUDNAN_clean_linker_2, # of connection points: 2
#     Edge 27, Type (0, 1), BuildingBlock: XUDNAN_clean_linker_2, # of connection points: 2
#     Edge 28, Type (0, 1), BuildingBlock: XUDNAN_clean_linker_2, # of connection points: 2
#     Edge 29, Type (0, 1), BuildingBlock: XUDNAN_clean_linker_2, # of connection points: 2
#     Edge 30, Type (0, 1), BuildingBlock: XUDNAN_clean_linker_2, # of connection points: 2
#     Edge 31, Type (0, 1), BuildingBlock: XUDNAN_clean_linker_2, # of connection points: 2
#     Edge 32, Type (0, 1), BuildingBlock: XUDNAN_clean_linker_2, # of connection points: 2
#     Edge 33, Type (0, 1), BuildingBlock: XUDNAN_clean_linker_2, # of connection points: 2
#     Edge 34, Type (0, 1), BuildingBlock: XUDNAN_clean_linker_2, # of connection points: 2
#     Edge 35, Type (0, 1), BuildingBlock: XUDNAN_clean_linker_2, # of connection points: 2
# Relax obj value: 0.086
# Max RMSD: 0.099
# Mean RMSD: 0.089
data_MOF--net-apo--node1-MIDCAF_clean_sbu_0--node2-ESEHIV_clean_linker_0--edge1-XUDNAN_clean_linker_2
_symmetry_space_group_name_H-M    P1
_symmetry_Int_Tables_number       1
_symmetry_cell_setting            triclinic
loop_
_symmetry_equiv_pos_as_xyz
'x, y, z'
_cell_length_a     32.627719
_cell_length_b     38.903785
_cell_length_c     34.261438
_cell_angle_alpha  89.26693
_cell_angle_beta   89.546469
_cell_angle_gamma 90.410693
loop_
_atom_site_label
_atom_site_type_symbol
_atom_site_fract_x
_atom_site_fract_y
_atom_site_fract_z
_atom_type_partial_charge
H0 H 0.36324 0.40007 0.46393 0.0
H1 H 0.29183 0.38897 0.35962 0.0
H2 H 0.26014 0.3302 0.46224 0.0
C3 C 0.33734 0.38893 0.44891 0.0
C4 C 0.31199 0.36461 0.46848 0.0
C5 C 0.33067 0.39761 0.40942 0.0
C6 C 0.29764 0.38238 0.3899 0.0
C7 C 0.27269 0.3578 0.40863 0.0
C8 C 0.27987 0.34905 0.44783 0.0
H9 H 0.16926 0.06936 0.9628 0.0
H10 H 0.22095 0.10889 0.85653 0.0
H11 H 0.23373 0.16643 0.96316 0.0
C12 C 0.18606 0.08969 0.94755 0.0
C13 C 0.19979 0.11861 0.96787 0.0
C14 C 0.19401 0.08631 0.90778 0.0
C15 C 0.2155 0.11211 0.8875 0.0
C16 C 0.23083 0.14116 0.90695 0.0
C17 C 0.22201 0.14458 0.94736 0.0
H18 H 0.88969 0.11923 0.63383 0.0
H19 H 0.83595 0.15196 0.74255 0.0
H20 H 0.78818 0.18841 0.6331 0.0
C21 C 0.86785 0.13431 0.65011 0.0
C22 C 0.84032 0.15486 0.62907 0.0
C23 C 0.86671 0.13255 0.69123 0.0
C24 C 0.83709 0.15211 0.71096 0.0
C25 C 0.80808 0.17154 0.69029 0.0
C26 C 0.80968 0.17268 0.64921 0.0
H27 H 0.59925 0.3423 0.11852 0.0
H28 H 0.66716 0.33334 0.22568 0.0
H29 H 0.68891 0.263 0.13221 0.0
C30 C 0.62179 0.32951 0.13652 0.0
C31 C 0.6434 0.30175 0.12089 0.0
C32 C 0.63028 0.34174 0.17415 0.0
C33 C 0.65945 0.32425 0.19688 0.0
C34 C 0.67971 0.29532 0.18231 0.0
C35 C 0.67209 0.28447 0.14407 0.0
H36 H 0.65293 0.61001 0.56828 0.0
H37 H 0.71851 0.70598 0.56894 0.0
H38 H 0.70428 0.64808 0.67551 0.0
C39 C 0.67059 0.62878 0.5842 0.0
C40 C 0.67564 0.62524 0.62499 0.0
C41 C 0.68654 0.65759 0.56382 0.0
C42 C 0.70691 0.68339 0.58442 0.0
C43 C 0.7132 0.67991 0.62469 0.0
C44 C 0.69853 0.65056 0.64452 0.0
H45 H 0.85385 0.9137 0.04461 0.0
H46 H 0.81322 0.89324 0.1624 0.0
H47 H 0.78801 0.82056 0.07118 0.0
C48 C 0.83819 0.89724 0.06581 0.0
C49 C 0.8217 0.86582 0.0537 0.0
C50 C 0.83538 0.90735 0.10497 0.0
C51 C 0.81563 0.88541 0.13225 0.0
C52 C 0.79805 0.85395 0.12058 0.0
C53 C 0.80183 0.84425 0.08112 0.0
H54 H 0.09569 0.84159 0.39292 0.0
H55 H 0.18995 0.76539 0.38543 0.0
H56 H 0.16959 0.83394 0.28853 0.0
C57 C 0.1198 0.82943 0.37634 0.0
C58 C 0.1295 0.84157 0.33834 0.0
C59 C 0.14201 0.80266 0.39413 0.0
C60 C 0.17273 0.78625 0.3724 0.0
C61 C 0.18163 0.79702 0.33392 0.0
C62 C 0.16066 0.8249 0.31741 0.0
H63 H 0.41155 0.6629 0.91239 0.0
H64 H 0.35242 0.66514 0.80086 0.0
H65 H 0.30353 0.72373 0.89628 0.0
C66 C 0.3882 0.67297 0.89314 0.0
C67 C 0.3593 0.69599 0.9082 0.0
C68 C 0.3857 0.66116 0.85471 0.0
C69 C 0.35407 0.67339 0.8309 0.0
C70 C 0.32393 0.69558 0.84552 0.0
C71 C 0.32678 0.70699 0.88439 0.0
Zn72 Zn 0.04018 0.13667 0.33857 0.0
Zn73 Zn 0.98294 0.18235 0.23639 0.0
Zn74 Zn 0.00066 0.14995 0.28706 0.0
C75 C 0.05196 0.149 0.21375 0.0
C76 C 0.95769 0.11537 0.2189 0.0
O77 O 0.95342 0.14901 0.33367 0.0
O78 O 1.00034 0.15109 0.37917 0.0
C79 C 0.07988 0.1915 0.30719 0.0
O80 O 0.03393 0.12706 0.23699 0.0
O81 O 0.04035 0.1801 0.21417 0.0
O82 O 0.94484 0.14574 0.21385 0.0
O83 O 0.9881 0.11058 0.24222 0.0
O84 O 0.08864 0.16593 0.32846 0.0
O85 O 0.04525 0.19208 0.29006 0.0
O86 O 0.01792 0.0964 0.27102 0.0
O87 O 0.04414 0.08736 0.3292 0.0
C88 C 0.03337 0.07573 0.2966 0.0
O89 O 0.93861 0.16986 0.29424 0.0
O90 O 0.95488 0.21947 0.26684 0.0
C91 C 0.963 0.15227 0.36973 0.0
C92 C 0.92894 0.20096 0.28538 0.0
Zn93 Zn 0.52812 0.34524 0.71897 0.0
Zn94 Zn 0.463 0.37058 0.84689 0.0
Zn95 Zn 0.50137 0.35606 0.78458 0.0
C96 C 0.48267 0.4332 0.81633 0.0
C97 C 0.40992 0.32696 0.81277 0.0
O98 O 0.5548 0.32065 0.79137 0.0
O99 O 0.55699 0.30238 0.73068 0.0
C100 C 0.55114 0.41137 0.73075 0.0
O101 O 0.50125 0.41322 0.79222 0.0
O102 O 0.46106 0.42085 0.84377 0.0
O103 O 0.41157 0.34463 0.84329 0.0
O104 O 0.43902 0.3297 0.78689 0.0
O105 O 0.56131 0.38707 0.70877 0.0
O106 O 0.52598 0.40555 0.75949 0.0
O107 O 0.44959 0.33724 0.74756 0.0
O108 O 0.47784 0.34253 0.689 0.0
C109 C 0.44663 0.33713 0.71003 0.0
O110 O 0.53864 0.32992 0.82989 0.0
O111 O 0.50416 0.34886 0.88103 0.0
C112 C 0.56935 0.3002 0.76539 0.0
C113 C 0.53346 0.33172 0.86714 0.0
Zn114 Zn 0.03514 0.8115 0.79845 0.0
Zn115 Zn 0.97893 0.87401 0.68382 0.0
Zn116 Zn 0.00959 0.84517 0.74313 0.0
C117 C 0.00548 0.92787 0.72684 0.0
C118 C 0.91515 0.83697 0.71821 0.0
O119 O 0.06206 0.81067 0.7274 0.0
O120 O 0.05724 0.77045 0.77309 0.0
C121 C 0.06848 0.87913 0.80105 0.0
O122 O 0.01385 0.90224 0.74962 0.0
O123 O 0.99223 0.92259 0.69297 0.0
O124 O 0.92122 0.85915 0.69156 0.0
O125 O 0.94468 0.8281 0.74094 0.0
O126 O 0.07568 0.84867 0.81223 0.0
O127 O 0.03943 0.88489 0.77676 0.0
O128 O 0.95756 0.82415 0.78028 0.0
O129 O 0.98805 0.80526 0.83343 0.0
C130 C 0.9555 0.81263 0.81578 0.0
O131 O 0.04218 0.82356 0.691 0.0
O132 O 0.00925 0.8496 0.64321 0.0
C133 C 0.07426 0.78195 0.74245 0.0
C134 C 0.03605 0.82848 0.65424 0.0
Zn135 Zn 0.55288 0.64332 0.17773 0.0
Zn136 Zn 0.4839 0.67035 0.30662 0.0
Zn137 Zn 0.51511 0.65383 0.24182 0.0
C138 C 0.56268 0.68669 0.31759 0.0
C139 C 0.47391 0.59844 0.29846 0.0
O140 O 0.47581 0.67646 0.19464 0.0
O141 O 0.51291 0.6648 0.1423 0.0
C142 C 0.60511 0.68559 0.21717 0.0
O143 O 0.56234 0.67726 0.28154 0.0
O144 O 0.52979 0.68688 0.33704 0.0
O145 O 0.46305 0.6231 0.31976 0.0
O146 O 0.49634 0.60428 0.26793 0.0
O147 O 0.60387 0.66928 0.18564 0.0
O148 O 0.57529 0.68248 0.24208 0.0
O149 O 0.52268 0.59691 0.23622 0.0
O150 O 0.55599 0.59297 0.18011 0.0
C151 C 0.54041 0.57858 0.20997 0.0
O152 O 0.45651 0.68267 0.2317 0.0
O153 O 0.44401 0.70445 0.28985 0.0
C154 C 0.48121 0.67773 0.15728 0.0
C155 C 0.43488 0.70181 0.25437 0.0
H156 H 0.10021 0.89699 0.37864 0.0
H157 H 0.11362 0.85886 0.2606 0.0
H158 H 0.08584 0.91353 0.23493 0.0
H159 H 0.00189 0.9397 0.3613 0.0
H160 H 0.01475 0.97362 0.3945 0.0
H161 H 0.03443 0.93098 0.40249 0.0
H162 H 0.10852 0.95569 0.40296 0.0
H163 H 0.08917 0.99824 0.39475 0.0
H164 H 0.12675 0.98087 0.36174 0.0
H165 H 0.06184 0.9771 0.22287 0.0
H166 H 0.04215 0.03883 0.22739 0.0
H167 H 0.03799 0.02821 0.35352 0.0
C168 C 0.09619 0.8991 0.34742 0.0
C169 C 0.10934 0.87307 0.32196 0.0
C170 C 0.10463 0.87841 0.28107 0.0
C171 C 0.08842 0.90935 0.2661 0.0
C172 C 0.07605 0.93444 0.29233 0.0
C173 C 0.07915 0.92908 0.33218 0.0
C174 C 0.06469 0.95966 0.3548 0.0
C175 C 0.02667 0.95043 0.37973 0.0
C176 C 0.09935 0.97447 0.38001 0.0
C177 C 0.05405 0.98364 0.32159 0.0
C178 C 0.0607 0.96914 0.28556 0.0
C179 C 0.05592 0.9884 0.25104 0.0
C180 C 0.04464 0.02336 0.25375 0.0
C181 C 0.03875 0.03838 0.29077 0.0
C182 C 0.04236 0.01768 0.32467 0.0
H183 H 0.36668 0.6068 0.80762 0.0
H184 H 0.46743 0.65191 0.87185 0.0
H185 H 0.50887 0.60045 0.85922 0.0
H186 H 0.37454 0.52628 0.84098 0.0
H187 H 0.3633 0.50462 0.79607 0.0
H188 H 0.34436 0.54719 0.80388 0.0
H189 H 0.3798 0.56856 0.74002 0.0
H190 H 0.39867 0.52578 0.73176 0.0
H191 H 0.43392 0.56163 0.73299 0.0
H192 H 0.53219 0.53984 0.85318 0.0
H193 H 0.53816 0.47668 0.84814 0.0
H194 H 0.42673 0.47318 0.78087 0.0
C195 C 0.39807 0.60673 0.81759 0.0
C196 C 0.41355 0.6335 0.84099 0.0
C197 C 0.45447 0.63156 0.85445 0.0
C198 C 0.47847 0.60257 0.84705 0.0
C199 C 0.46161 0.5761 0.82519 0.0
C200 C 0.42266 0.5783 0.80984 0.0
C201 C 0.41022 0.54513 0.79037 0.0
C202 C 0.37081 0.52993 0.80896 0.0
C203 C 0.40538 0.55061 0.74615 0.0
C204 C 0.44717 0.5232 0.79932 0.0
C205 C 0.4767 0.54163 0.81914 0.0
C206 C 0.51038 0.52553 0.83603 0.0
C207 C 0.51364 0.48974 0.83298 0.0
C208 C 0.48425 0.47071 0.81207 0.0
C209 C 0.45088 0.48767 0.79481 0.0
H210 H 0.65831 0.55874 0.60075 0.0
H211 H 0.64589 0.62592 0.70065 0.0
H212 H 0.61505 0.57844 0.73866 0.0
H213 H 0.55907 0.51778 0.61564 0.0
H214 H 0.5764 0.4765 0.59914 0.0
H215 H 0.60002 0.5153 0.58016 0.0
H216 H 0.67117 0.49315 0.60169 0.0
H217 H 0.64776 0.45436 0.62088 0.0
H218 H 0.67895 0.48071 0.65195 0.0
H219 H 0.58939 0.52228 0.7676 0.0
H220 H 0.56376 0.46332 0.7819 0.0
H221 H 0.58165 0.43628 0.66111 0.0
C222 C 0.64883 0.56384 0.63043 0.0
C223 C 0.65578 0.5963 0.64761 0.0
C224 C 0.64276 0.6012 0.68685 0.0
C225 C 0.62465 0.57441 0.70876 0.0
C226 C 0.61865 0.54288 0.69096 0.0
C227 C 0.62967 0.53763 0.65249 0.0
C228 C 0.61806 0.50169 0.63983 0.0
C229 C 0.58651 0.50291 0.60674 0.0
C230 C 0.65627 0.48128 0.6279 0.0
C231 C 0.5992 0.48753 0.67732 0.0
C232 C 0.60029 0.51156 0.70661 0.0
C233 C 0.58701 0.50367 0.74449 0.0
C234 C 0.57158 0.47051 0.75234 0.0
C235 C 0.56816 0.44611 0.72242 0.0
C236 C 0.58281 0.4547 0.68452 0.0
H237 H 0.88144 0.92388 0.16977 0.0
H238 H 0.82548 0.96836 0.06644 0.0
H239 H 0.85305 0.02524 0.08355 0.0
H240 H 0.86255 0.99609 0.23289 0.0
H241 H 0.91059 0.99244 0.25819 0.0
H242 H 0.88686 0.95481 0.23788 0.0
H243 H 0.95309 0.94258 0.19798 0.0
H244 H 0.97649 0.97992 0.21911 0.0
H245 H 0.97445 0.97597 0.1668 0.0
H246 H 0.88448 0.0771 0.11174 0.0
H247 H 0.91835 0.12207 0.14989 0.0
H248 H 0.95604 0.04542 0.2353 0.0
C249 C 0.87488 0.94566 0.15091 0.0
C250 C 0.85154 0.94159 0.11654 0.0
C251 C 0.8438 0.9707 0.09251 0.0
C252 C 0.85919 0.00316 0.10207 0.0
C253 C 0.88239 0.00624 0.13578 0.0
C254 C 0.89027 0.97842 0.15994 0.0
C255 C 0.91596 0.9892 0.19459 0.0
C256 C 0.89258 0.98275 0.23317 0.0
C257 C 0.95748 0.97081 0.19456 0.0
C258 C 0.92113 0.02743 0.18606 0.0
C259 C 0.90132 0.03652 0.15198 0.0
C260 C 0.90028 0.07033 0.13837 0.0
C261 C 0.91959 0.0957 0.16033 0.0
C262 C 0.94002 0.08726 0.19547 0.0
C263 C 0.94118 0.05254 0.20827 0.0
H264 H 0.94476 0.11159 0.67015 0.0
H265 H 0.85245 0.0983 0.76139 0.0
H266 H 0.89437 0.05381 0.79209 0.0
H267 H 0.95207 0.02786 0.65321 0.0
H268 H 0.00604 0.02731 0.64151 0.0
H269 H 0.97755 0.06609 0.63478 0.0
H270 H 0.02871 0.09823 0.67937 0.0
H271 H 0.05708 0.05904 0.68654 0.0
H272 H 0.03798 0.08213 0.72807 0.0
H273 H 0.93735 0.00312 0.80579 0.0
H274 H 0.96904 0.94675 0.79445 0.0
H275 H 0.02838 0.98722 0.69011 0.0
C276 C 0.93335 0.09982 0.69689 0.0
C277 C 0.89495 0.10905 0.71308 0.0
C278 C 0.88205 0.09289 0.74854 0.0
C279 C 0.9058 0.06732 0.76639 0.0
C280 C 0.9424 0.05771 0.74849 0.0
C281 C 0.95594 0.07336 0.71425 0.0
C282 C 0.99098 0.05362 0.69612 0.0
C283 C 0.98102 0.04308 0.65397 0.0
C284 C 0.03106 0.07451 0.69763 0.0
C285 C 0.99257 0.02286 0.72361 0.0
C286 C 0.96601 0.0267 0.75491 0.0
C287 C 0.95893 0.00015 0.78195 0.0
C288 C 0.97728 0.96823 0.77546 0.0
C289 C 0.00161 0.963 0.74176 0.0
C290 C 0.01083 0.99105 0.71664 0.0
H291 H 0.60905 0.39873 0.13082 0.0
H292 H 0.60796 0.35872 0.2498 0.0
H293 H 0.58023 0.41396 0.27264 0.0
H294 H 0.63852 0.48201 0.15015 0.0
H295 H 0.60588 0.50161 0.1141 0.0
H296 H 0.62374 0.45847 0.10745 0.0
H297 H 0.54877 0.43677 0.10124 0.0
H298 H 0.5306 0.47997 0.10771 0.0
H299 H 0.51221 0.4458 0.13942 0.0
H300 H 0.55854 0.47678 0.28254 0.0
H301 H 0.54306 0.53904 0.27754 0.0
H302 H 0.55143 0.53346 0.15145 0.0
C303 C 0.60194 0.40084 0.16159 0.0
C304 C 0.61078 0.37398 0.18834 0.0
C305 C 0.60215 0.37891 0.22858 0.0
C306 C 0.58598 0.41014 0.24185 0.0
C307 C 0.57786 0.43601 0.21451 0.0
C308 C 0.58512 0.43135 0.17514 0.0
C309 C 0.57495 0.46312 0.15149 0.0
C310 C 0.61304 0.47712 0.12953 0.0
C311 C 0.53952 0.45598 0.12331 0.0
C312 C 0.56185 0.48685 0.18372 0.0
C313 C 0.56361 0.47099 0.21997 0.0
C314 C 0.55606 0.48914 0.25419 0.0
C315 C 0.54696 0.52442 0.25112 0.0
C316 C 0.54487 0.54087 0.2141 0.0
C317 C 0.55199 0.52152 0.18018 0.0
H318 H 0.3641 0.45841 0.4351 0.0
H319 H 0.36002 0.39159 0.33467 0.0
H320 H 0.40026 0.4341 0.29631 0.0
H321 H 0.35234 0.53595 0.38489 0.0
H322 H 0.38746 0.56032 0.41423 0.0
H323 H 0.36133 0.52344 0.43493 0.0
H324 H 0.43099 0.49646 0.45364 0.0
H325 H 0.45739 0.53344 0.43318 0.0
H326 H 0.46981 0.49097 0.41655 0.0
H327 H 0.434 0.4866 0.26669 0.0
H328 H 0.46216 0.54403 0.2495 0.0
H329 H 0.4491 0.57473 0.37017 0.0
C330 C 0.37246 0.45236 0.40533 0.0
C331 C 0.35846 0.42181 0.38782 0.0
C332 C 0.36963 0.41513 0.34854 0.0
C333 C 0.3928 0.43899 0.32657 0.0
C334 C 0.40518 0.46923 0.34439 0.0
C335 C 0.39588 0.4758 0.38302 0.0
C336 C 0.4115 0.51091 0.39468 0.0
C337 C 0.37604 0.534 0.40795 0.0
C338 C 0.44438 0.50774 0.42639 0.0
C339 C 0.42989 0.5234 0.35628 0.0
C340 C 0.42613 0.49894 0.32765 0.0
C341 C 0.43815 0.50563 0.28911 0.0
C342 C 0.45443 0.5382 0.27964 0.0
C343 C 0.4592 0.5634 0.30869 0.0
C344 C 0.44668 0.55573 0.34745 0.0
H345 H 0.12473 0.07021 0.86697 0.0
H346 H 0.24022 0.02933 0.90745 0.0
H347 H 0.22215 0.9724 0.88085 0.0
H348 H 0.06427 0.99734 0.8902 0.0
H349 H 0.032 6e-05 0.84782 0.0
H350 H 0.05533 0.03835 0.86679 0.0
H351 H 0.08844 0.05152 0.79919 0.0
H352 H 0.06485 0.01332 0.7802 0.0
H353 H 0.11952 0.01932 0.77612 0.0
H354 H 0.1898 0.91962 0.85513 0.0
H355 H 0.14566 0.87355 0.82969 0.0
H356 H 0.05064 0.94798 0.80569 0.0
C357 C 0.14632 0.04929 0.86942 0.0
C358 C 0.18395 0.05375 0.88871 0.0
C359 C 0.21145 0.02606 0.89231 0.0
C360 C 0.20145 0.99381 0.87734 0.0
C361 C 0.16389 0.98991 0.85881 0.0
C362 C 0.13678 0.01686 0.85451 0.0
C363 C 0.09766 0.00515 0.83493 0.0
C364 C 0.06011 0.01054 0.86155 0.0
C365 C 0.09234 0.02342 0.79525 0.0
C366 C 0.10669 0.96729 0.82991 0.0
C367 C 0.14517 0.95919 0.84365 0.0
C368 C 0.15978 0.92567 0.84384 0.0
C369 C 0.13438 0.89966 0.82955 0.0
C370 C 0.0948 0.90729 0.81525 0.0
C371 C 0.08098 0.94158 0.81539 0.0
H372 H 0.16566 0.17196 1.0086 0.0
H373 H 0.21118 0.06821 0.02289 0.0
H374 H 0.18275 0.06558 0.08985 0.0
H375 H 0.18222 0.19839 0.11251 0.0
H376 H 0.13604 0.22354 0.11281 0.0
H377 H 0.16482 0.21872 0.06811 0.0
H378 H 0.09958 0.1956 0.03435 0.0
H379 H 0.0708 0.19989 0.07897 0.0
H380 H 0.07295 0.15888 0.05518 0.0
H381 H 0.14018 0.0712 0.15197 0.0
H382 H 0.09283 0.08727 0.20577 0.0
H383 H 0.07804 0.1878 0.15154 0.0
C384 C 0.17092 0.14922 0.02636 0.0
C385 C 0.19058 0.12031 1.01049 0.0
C386 C 0.196 0.09064 0.0344 0.0
C387 C 0.18 0.08889 0.07252 0.0
C388 C 0.15907 0.11722 0.08673 0.0
C389 C 0.15523 0.14709 0.06465 0.0
C390 C 0.12925 0.17311 0.08586 0.0
C391 C 0.1546 0.20535 0.09539 0.0
C392 C 0.09088 0.18239 0.06218 0.0
C393 C 0.11811 0.15285 0.12257 0.0
C394 C 0.13559 0.12068 0.12275 0.0
C395 C 0.12699 0.09664 0.15251 0.0
C396 C 0.09994 0.10586 0.18287 0.0
C397 C 0.08199 0.13885 0.18323 0.0
C398 C 0.09169 0.16253 0.15269 0.0
H399 H 0.33474 0.40613 0.52911 0.0
H400 H 0.3086 0.29977 0.50129 0.0
H401 H 0.3257 0.28241 0.56865 0.0
H402 H 0.42173 0.39008 0.58192 0.0
H403 H 0.41341 0.42331 0.61726 0.0
H404 H 0.39195 0.42743 0.56938 0.0
H405 H 0.31983 0.43468 0.60055 0.0
H406 H 0.34125 0.42978 0.64865 0.0
H407 H 0.30001 0.40202 0.63354 0.0
H408 H 0.35664 0.27535 0.63524 0.0
H409 H 0.40297 0.27946 0.69195 0.0
H410 H 0.40735 0.38993 0.67743 0.0
C411 C 0.33203 0.37924 0.53732 0.0
C412 C 0.31997 0.35442 0.50985 0.0
C413 C 0.31694 0.31945 0.52189 0.0
C414 C 0.32657 0.3093 0.5602 0.0
C415 C 0.3388 0.3344 0.58644 0.0
C416 C 0.34146 0.36869 0.57545 0.0
C417 C 0.35982 0.39011 0.60756 0.0
C418 C 0.39905 0.40879 0.59317 0.0
C419 C 0.32834 0.41566 0.62352 0.0
C420 C 0.36913 0.36231 0.63751 0.0
C421 C 0.35593 0.33038 0.62528 0.0
C422 C 0.36594 0.30031 0.64576 0.0
C423 C 0.39185 0.30281 0.67826 0.0
C424 C 0.40725 0.3351 0.68977 0.0
C425 C 0.39423 0.36517 0.67021 0.0
H426 H 0.5726 0.28388 0.08447 0.0
H427 H 0.70164 0.30355 0.06342 0.0
H428 H 0.6898 0.30269 0.9921 0.0
H429 H 0.55568 0.22809 0.99505 0.0
H430 H 0.50534 0.24587 0.98823 0.0
H431 H 0.52573 0.24099 0.03674 0.0
H432 H 0.51365 0.30576 0.04902 0.0
H433 H 0.49346 0.31085 1.00076 0.0
H434 H 0.53596 0.33721 0.01593 0.0
H435 H 0.66065 0.31363 0.92482 0.0
H436 H 0.61766 0.33118 0.86891 0.0
H437 H 0.50912 0.29834 0.93253 0.0
C438 C 0.59853 0.28658 0.0647 0.0
C439 C 0.63804 0.29339 0.07917 0.0
C440 C 0.67126 0.29766 0.05272 0.0
C441 C 0.66477 0.29729 1.01221 0.0
C442 C 0.62503 0.29178 0.99872 0.0
C443 C 0.59263 0.28568 0.0243 0.0
C444 C 0.55231 0.28387 1.00292 0.0
C445 C 0.53368 0.24754 1.00591 0.0
C446 C 0.52212 0.31104 0.01804 0.0
C447 C 0.56663 0.29204 0.9617 0.0
C448 C 0.60871 0.29614 0.95956 0.0
C449 C 0.62794 0.30882 0.92564 0.0
C450 C 0.60346 0.31818 0.89358 0.0
C451 C 0.56042 0.31439 0.89557 0.0
C452 C 0.54216 0.30028 0.92973 0.0
H453 H 0.90858 0.17746 0.59165 0.0
H454 H 0.78552 0.14039 0.57034 0.0
H455 H 0.80001 0.141 0.49885 0.0
H456 H 0.91723 0.23365 0.50398 0.0
H457 H 0.97072 0.22366 0.49774 0.0
H458 H 0.94819 0.22371 0.54593 0.0
H459 H 0.9728 0.16115 0.55747 0.0
H460 H 0.99526 0.16089 0.50944 0.0
H461 H 0.95829 0.12829 0.5235 0.0
H462 H 0.83283 0.13992 0.42894 0.0
H463 H 0.87915 0.13793 0.37086 0.0
H464 H 0.97839 0.17752 0.44114 0.0
C465 C 0.88444 0.17009 0.57183 0.0
C466 C 0.84602 0.15889 0.58624 0.0
C467 C 0.8151 0.1493 0.55964 0.0
C468 C 0.82314 0.14955 0.51908 0.0
C469 C 0.86196 0.16004 0.5058 0.0
C470 C 0.89179 0.17056 0.53165 0.0
C471 C 0.93171 0.17894 0.51107 0.0
C472 C 0.94258 0.21727 0.5149 0.0
C473 C 0.96653 0.15594 0.52626 0.0
C474 C 0.92046 0.17035 0.46967 0.0
C475 C 0.8801 0.1598 0.46666 0.0
C476 C 0.8643 0.14863 0.43105 0.0
C477 C 0.89071 0.14764 0.39816 0.0
C478 C 0.93242 0.15743 0.40142 0.0
C479 C 0.94673 0.16972 0.4375 0.0
H480 H 0.86009 0.8095 0.02456 0.0
H481 H 0.79461 0.90108 0.98966 0.0
H482 H 0.80924 0.8887 0.92025 0.0
H483 H 0.94024 0.82212 0.96225 0.0
H484 H 0.949 0.77751 0.95157 0.0
H485 H 0.92501 0.789 0.99681 0.0
H486 H 0.86312 0.74954 0.98096 0.0
H487 H 0.88695 0.73818 0.93528 0.0
H488 H 0.83597 0.75572 0.93582 0.0
H489 H 0.83979 0.87134 0.85588 0.0
H490 H 0.88972 0.85516 0.80485 0.0
H491 H 0.93711 0.77578 0.88165 0.0
C492 C 0.84757 0.82612 1.00209 0.0
C493 C 0.82562 0.85585 1.01219 0.0
C494 C 0.81106 0.87793 0.9823 0.0
C495 C 0.81901 0.87095 0.94284 0.0
C496 C 0.84168 0.84181 0.93371 0.0
C497 C 0.85585 0.81978 0.9626 0.0
C498 C 0.88488 0.79348 0.94584 0.0
C499 C 0.92727 0.7957 0.96525 0.0
C500 C 0.86663 0.75707 0.94971 0.0
C501 C 0.8866 0.80525 0.9035 0.0
C502 C 0.86043 0.83242 0.89671 0.0
C503 C 0.85978 0.84964 0.86066 0.0
C504 C 0.88808 0.8401 0.83162 0.0
C505 C 0.91716 0.81408 0.83918 0.0
C506 C 0.91483 0.79543 0.87485 0.0
H507 H 0.64704 0.70925 0.52552 0.0
H508 H 0.71199 0.61422 0.50649 0.0
H509 H 0.70093 0.62037 0.4352 0.0
H510 H 0.56935 0.69196 0.4612 0.0
H511 H 0.56272 0.73584 0.44501 0.0
H512 H 0.58318 0.72702 0.49252 0.0
H513 H 0.64694 0.76454 0.4749 0.0
H514 H 0.62686 0.77269 0.4268 0.0
H515 H 0.67719 0.75456 0.43233 0.0
H516 H 0.67661 0.63388 0.36704 0.0
H517 H 0.6302 0.64629 0.31205 0.0
H518 H 0.57838 0.73092 0.37615 0.0
C519 C 0.65973 0.69024 0.50611 0.0
C520 C 0.6808 0.66152 0.52115 0.0
C521 C 0.69594 0.63649 0.49527 0.0
C522 C 0.6902 0.64002 0.4548 0.0
C523 C 0.66909 0.66867 0.44073 0.0
C524 C 0.65359 0.69309 0.46579 0.0
C525 C 0.6266 0.71844 0.44437 0.0
C526 C 0.5829 0.71826 0.46179 0.0
C527 C 0.64555 0.75471 0.44462 0.0
C528 C 0.62765 0.70358 0.40371 0.0
C529 C 0.65361 0.67568 0.40176 0.0
C530 C 0.65671 0.65599 0.36806 0.0
C531 C 0.63059 0.66348 0.33668 0.0
C532 C 0.60104 0.68975 0.33983 0.0
C533 C 0.60137 0.71121 0.37276 0.0
H534 H 0.4255 0.72443 0.94292 0.0
H535 H 0.30274 0.68685 0.96727 0.0
H536 H 0.31654 0.68911 0.03831 0.0
H537 H 0.47324 0.67471 1.00761 0.0
H538 H 0.51169 0.70536 0.02219 0.0
H539 H 0.48874 0.70921 0.97497 0.0
H540 H 0.46655 0.7715 0.99017 0.0
H541 H 0.4898 0.76794 0.03761 0.0
H542 H 0.43668 0.77976 0.03349 0.0
H543 H 0.34948 0.68339 0.10548 0.0
H544 H 0.39718 0.67117 0.15981 0.0
H545 H 0.49743 0.71389 0.09122 0.0
C546 C 0.40097 0.71817 0.96334 0.0
C547 C 0.36292 0.70592 0.94978 0.0
C548 C 0.3318 0.69701 0.97716 0.0
C549 C 0.3395 0.69811 0.01755 0.0
C550 C 0.37823 0.70872 0.03001 0.0
C551 C 0.40819 0.71921 1.00351 0.0
C552 C 0.44884 0.7252 0.02334 0.0
C553 C 0.48256 0.70224 1.00601 0.0
C554 C 0.46118 0.76337 0.02102 0.0
C555 C 0.43794 0.71451 0.06476 0.0
C556 C 0.39692 0.70577 0.06848 0.0
C557 C 0.38128 0.69131 0.10317 0.0
C558 C 0.40843 0.68477 0.13418 0.0
C559 C 0.45067 0.69247 0.13015 0.0
C560 C 0.46506 0.7085 0.09542 0.0
H561 H 0.06814 0.79457 0.43178 0.0
H562 H 0.19903 0.79314 0.45194 0.0
H563 H 0.18618 0.78918 0.52321 0.0
H564 H 0.04458 0.84976 0.50461 0.0
H565 H 0.99628 0.82997 0.51802 0.0
H566 H 0.01602 0.82558 0.4693 0.0
H567 H 0.01163 0.7592 0.47641 0.0
H568 H 0.99187 0.76343 0.52539 0.0
H569 H 0.03692 0.73804 0.51657 0.0
H570 H 0.15813 0.79484 0.59343 0.0
H571 H 0.11826 0.81084 0.65261 0.0
H572 H 0.0068 0.8086 0.58485 0.0
C573 C 0.09413 0.79257 0.45112 0.0
C574 C 0.13457 0.79404 0.43621 0.0
C575 C 0.16773 0.79149 0.46259 0.0
C576 C 0.1607 0.78934 0.50319 0.0
C577 C 0.12031 0.78927 0.51701 0.0
C578 C 0.08762 0.79044 0.49151 0.0
C579 C 0.04734 0.79377 0.51314 0.0
C580 C 0.02477 0.82672 0.50053 0.0
C581 C 0.02035 0.76169 0.50754 0.0
C582 C 0.06239 0.79593 0.55469 0.0
C583 C 0.10446 0.79262 0.55677 0.0
C584 C 0.1251 0.79678 0.59213 0.0
C585 C 0.10228 0.80567 0.6257 0.0
C586 C 0.05949 0.8108 0.62328 0.0
C587 C 0.03948 0.80458 0.58762 0.0
H588 H 0.26552 0.28891 0.40023 0.0
H589 H 0.20977 0.38527 0.36595 0.0
H590 H 0.15747 0.35341 0.32812 0.0
H591 H 0.24912 0.24536 0.30735 0.0
H592 H 0.23943 0.20443 0.33103 0.0
H593 H 0.27331 0.23521 0.35316 0.0
H594 H 0.22956 0.23307 0.41676 0.0
H595 H 0.19604 0.202 0.39502 0.0
H596 H 0.17531 0.24122 0.41417 0.0
H597 H 0.10745 0.30954 0.29926 0.0
H598 H 0.0647 0.25851 0.28386 0.0
H599 H 0.15769 0.19245 0.33382 0.0
C600 C 0.24228 0.30325 0.38469 0.0
C601 C 0.24115 0.33935 0.38618 0.0
C602 C 0.21082 0.35746 0.36512 0.0
C603 C 0.18123 0.33962 0.34349 0.0
C604 C 0.18315 0.30382 0.34265 0.0
C605 C 0.21319 0.28596 0.36253 0.0
C606 C 0.20813 0.24764 0.35831 0.0
C607 C 0.24467 0.23227 0.33613 0.0
C608 C 0.20186 0.22997 0.39843 0.0
C609 C 0.16963 0.24652 0.33419 0.0
C610 C 0.15565 0.27904 0.32501 0.0
C611 C 0.11852 0.28395 0.3057 0.0
C612 C 0.09452 0.25486 0.29687 0.0
C613 C 0.10788 0.22153 0.30757 0.0
C614 C 0.14664 0.21754 0.32501 0.0
H615 H 0.23793 0.2121 0.9156 0.0
H616 H 0.28681 0.12715 0.84897 0.0
H617 H 0.32875 0.16749 0.81003 0.0
H618 H 0.23866 0.27686 0.83689 0.0
H619 H 0.25608 0.31087 0.86806 0.0
H620 H 0.22554 0.27601 0.88811 0.0
H621 H 0.2818 0.2629 0.93909 0.0
H622 H 0.31201 0.29808 0.91965 0.0
H623 H 0.33362 0.25562 0.92266 0.0
H624 H 0.36853 0.21645 0.7797 0.0
H625 H 0.41052 0.26879 0.76821 0.0
H626 H 0.33929 0.32173 0.85611 0.0
C627 C 0.2573 0.20191 0.89278 0.0
C628 C 0.25768 0.16626 0.88484 0.0
C629 C 0.2842 0.15431 0.85487 0.0
C630 C 0.30849 0.17707 0.8325 0.0
C631 C 0.30671 0.21196 0.84052 0.0
C632 C 0.28236 0.22432 0.87037 0.0
C633 C 0.2893 0.26258 0.87542 0.0
C634 C 0.25005 0.28277 0.86659 0.0
C635 C 0.30514 0.27023 0.91664 0.0
C636 C 0.32201 0.26948 0.84446 0.0
C637 C 0.33095 0.24011 0.82401 0.0
C638 C 0.3616 0.23973 0.79532 0.0
C639 C 0.38511 0.26971 0.78868 0.0
C640 C 0.3782 0.29946 0.81107 0.0
C641 C 0.34514 0.29954 0.8382 0.0
H642 H 0.72531 0.16932 0.67905 0.0
H643 H 0.81885 0.21639 0.75028 0.0
H644 H 0.76539 0.24854 0.78595 0.0
H645 H 0.66368 0.24153 0.66773 0.0
H646 H 0.61579 0.21818 0.6703 0.0
H647 H 0.66133 0.19711 0.65345 0.0
H648 H 0.65066 0.14975 0.70662 0.0
H649 H 0.60536 0.17114 0.72405 0.0
H650 H 0.64656 0.1617 0.75716 0.0
H651 H 0.70249 0.28129 0.80721 0.0
H652 H 0.63654 0.31195 0.81066 0.0
H653 H 0.5833 0.23932 0.73082 0.0
C654 C 0.73441 0.18624 0.70235 0.0
C655 C 0.77607 0.19053 0.71193 0.0
C656 C 0.78697 0.2127 0.7427 0.0
C657 C 0.75684 0.23092 0.76317 0.0
C658 C 0.71591 0.22612 0.75304 0.0
C659 C 0.7047 0.20411 0.7235 0.0
C660 C 0.65897 0.20481 0.71679 0.0
C661 C 0.6494 0.2161 0.67459 0.0
C662 C 0.63923 0.16976 0.72676 0.0
C663 C 0.64635 0.23174 0.74595 0.0
C664 C 0.67947 0.24354 0.76695 0.0
C665 C 0.67601 0.27137 0.79209 0.0
C666 C 0.63816 0.2883 0.79466 0.0
C667 C 0.60429 0.2771 0.77262 0.0
C668 C 0.60831 0.24773 0.74909 0.0
H669 H 0.75311 0.32008 0.20724 0.0
H670 H 0.67493 0.2297 0.21064 0.0
H671 H 0.72693 0.19861 0.24966 0.0
H672 H 0.84339 0.27577 0.19026 0.0
H673 H 0.87555 0.3037 0.21858 0.0
H674 H 0.82947 0.32007 0.19709 0.0
H675 H 0.8046 0.33967 0.26531 0.0
H676 H 0.85055 0.32285 0.28707 0.0
H677 H 0.801 0.30876 0.30486 0.0
H678 H 0.78962 0.17614 0.28334 0.0
H679 H 0.86079 0.16117 0.29982 0.0
H680 H 0.89939 0.26564 0.27192 0.0
C681 C 0.74676 0.29398 0.21704 0.0
C682 C 0.71007 0.27724 0.20664 0.0
C683 C 0.70292 0.24284 0.21876 0.0
C684 C 0.73207 0.22518 0.24114 0.0
C685 C 0.76822 0.24232 0.25087 0.0
C686 C 0.77583 0.27586 0.23881 0.0
C687 C 0.81907 0.28696 0.24862 0.0
C688 C 0.84328 0.2972 0.21143 0.0
C689 C 0.81877 0.3163 0.27823 0.0
C690 C 0.83512 0.25408 0.26683 0.0
C691 C 0.80499 0.22895 0.26893 0.0
C692 C 0.81333 0.19572 0.28225 0.0
C693 C 0.85389 0.1875 0.29181 0.0
C694 C 0.88571 0.21223 0.28721 0.0
C695 C 0.8757 0.24627 0.27616 0.0
H696 H 0.78181 0.67517 0.66992 0.0
H697 H 0.6915 0.74712 0.62691 0.0
H698 H 0.72762 0.79457 0.65977 0.0
H699 H 0.80383 0.71922 0.765 0.0
H700 H 0.85782 0.71017 0.76145 0.0
H701 H 0.82092 0.68078 0.74117 0.0
H702 H 0.85731 0.68555 0.67375 0.0
H703 H 0.89441 0.71449 0.69396 0.0
H704 H 0.86544 0.72741 0.65172 0.0
H705 H 0.77739 0.83464 0.68849 0.0
H706 H 0.84087 0.86552 0.70548 0.0
H707 H 0.90029 0.76857 0.73049 0.0
C708 C 0.76922 0.70083 0.66843 0.0
C709 C 0.73381 0.70767 0.6463 0.0
C710 C 0.7186 0.74156 0.64385 0.0
C711 C 0.73866 0.76852 0.66273 0.0
C712 C 0.77388 0.76113 0.68394 0.0
C713 C 0.78922 0.72815 0.68677 0.0
C714 C 0.83055 0.72798 0.70675 0.0
C715 C 0.82812 0.70837 0.74593 0.0
C716 C 0.86388 0.71299 0.67994 0.0
C717 C 0.83695 0.76617 0.71295 0.0
C718 C 0.80331 0.78468 0.70051 0.0
C719 C 0.80354 0.82047 0.69913 0.0
C720 C 0.83968 0.8378 0.70887 0.0
C721 C 0.87508 0.81936 0.71977 0.0
C722 C 0.87315 0.78321 0.72348 0.0
H723 H 0.79295 0.78322 0.12473 0.0
H724 H 0.74645 0.87523 0.17951 0.0
H725 H 0.70085 0.83952 0.22122 0.0
H726 H 0.69922 0.74441 0.11487 0.0
H727 H 0.71679 0.70114 0.12335 0.0
H728 H 0.75163 0.7332 0.10426 0.0
H729 H 0.80119 0.72093 0.1615 0.0
H730 H 0.7661 0.68895 0.181 0.0
H731 H 0.78283 0.72394 0.2111 0.0
H732 H 0.65284 0.79436 0.25033 0.0
H733 H 0.60436 0.7455 0.259 0.0
H734 H 0.68062 0.68385 0.18346 0.0
C735 C 0.77367 0.79595 0.14586 0.0
C736 C 0.77374 0.83218 0.14881 0.0
C737 C 0.7479 0.84755 0.17708 0.0
C738 C 0.7217 0.82743 0.20096 0.0
C739 C 0.72166 0.79186 0.1965 0.0
C740 C 0.74708 0.77631 0.16959 0.0
C741 C 0.73772 0.73828 0.16674 0.0
C742 C 0.7256 0.72873 0.12485 0.0
C743 C 0.77413 0.71676 0.18095 0.0
C744 C 0.70173 0.73514 0.19476 0.0
C745 C 0.69352 0.76604 0.21256 0.0
C746 C 0.65944 0.76989 0.23708 0.0
C747 C 0.63214 0.74194 0.24206 0.0
C748 C 0.63878 0.71089 0.22198 0.0
C749 C 0.67495 0.70719 0.19949 0.0
H750 H 0.25901 0.82071 0.32018 0.0
H751 H 0.17714 0.73544 0.29735 0.0
H752 H 0.2321 0.70686 0.25954 0.0
H753 H 0.31809 0.819 0.22638 0.0
H754 H 0.36575 0.8286 0.25032 0.0
H755 H 0.31823 0.84486 0.26968 0.0
H756 H 0.33311 0.81627 0.33688 0.0
H757 H 0.38088 0.80078 0.31791 0.0
H758 H 0.34426 0.77096 0.3392 0.0
H759 H 0.2979 0.68474 0.23154 0.0
H760 H 0.37015 0.66733 0.22448 0.0
H761 H 0.40959 0.76689 0.26516 0.0
C762 C 0.25267 0.79631 0.30651 0.0
C763 C 0.21414 0.78017 0.31116 0.0
C764 C 0.20668 0.74802 0.29379 0.0
C765 C 0.23752 0.73188 0.272 0.0
C766 C 0.27549 0.74837 0.26791 0.0
C767 C 0.28323 0.77977 0.28503 0.0
C768 C 0.32789 0.78998 0.28078 0.0
C769 C 0.33276 0.82255 0.25526 0.0
C770 C 0.34768 0.79474 0.32107 0.0
C771 C 0.34453 0.75878 0.2601 0.0
C772 C 0.31364 0.7355 0.25185 0.0
C773 C 0.3222 0.70315 0.23676 0.0
C774 C 0.36337 0.69363 0.23212 0.0
C775 C 0.39529 0.71632 0.24271 0.0
C776 C 0.38564 0.74973 0.25526 0.0
H777 H 0.28793 0.75904 0.83421 0.0
H778 H 0.27923 0.65215 0.80042 0.0
H779 H 0.2212 0.66601 0.75763 0.0
H780 H 0.18215 0.77309 0.84075 0.0
H781 H 0.18436 0.81658 0.82206 0.0
H782 H 0.22802 0.79863 0.84632 0.0
H783 H 0.27276 0.81318 0.78532 0.0
H784 H 0.2287 0.83045 0.76062 0.0
H785 H 0.25816 0.79678 0.73841 0.0
H786 H 0.15867 0.68921 0.72608 0.0
H787 H 0.09404 0.71976 0.71223 0.0
H788 H 0.14476 0.81236 0.7616 0.0
C789 C 0.27398 0.73867 0.81752 0.0
C790 C 0.2885 0.7046 0.82032 0.0
C791 C 0.26921 0.67858 0.7982 0.0
C792 C 0.23626 0.6862 0.77369 0.0
C793 C 0.22297 0.72006 0.77116 0.0
C794 C 0.24113 0.74591 0.79253 0.0
C795 C 0.21866 0.77956 0.78701 0.0
C796 C 0.20232 0.79271 0.82636 0.0
C797 C 0.24623 0.80659 0.76662 0.0
C798 C 0.18413 0.76824 0.76054 0.0
C799 C 0.18749 0.73388 0.75131 0.0
C800 C 0.15631 0.7164 0.73191 0.0
C801 C 0.11987 0.73397 0.72368 0.0
C802 C 0.11534 0.76869 0.73425 0.0
C803 C 0.14855 0.78637 0.75121 0.0
loop_
_geom_bond_atom_site_label_1
_geom_bond_atom_site_label_2
_geom_bond_distance
_geom_bond_site_symmetry_2
_ccdc_geom_bond_type
H0 C3 0.931 . S
H1 C6 0.928 . S
H2 C8 0.930 . S
C3 H0 0.931 . S
C3 C4 1.413 . S
C3 C5 1.360 . S
C4 C3 1.413 . S
C4 C8 1.429 . S
C5 C3 1.360 . S
C5 C6 1.372 . S
C6 H1 0.928 . S
C6 C5 1.372 . S
C6 C7 1.404 . S
C7 C6 1.404 . S
C7 C8 1.391 . S
C8 H2 0.930 . S
C8 C4 1.429 . S
C8 C7 1.391 . S
H9 C12 0.931 . S
H10 C15 0.928 . S
H11 C17 0.930 . S
C12 H9 0.931 . S
C12 C13 1.413 . S
C12 C14 1.360 . S
C13 C12 1.413 . S
C13 C17 1.429 . S
C14 C12 1.360 . S
C14 C15 1.372 . S
C15 H10 0.928 . S
C15 C14 1.372 . S
C15 C16 1.404 . S
C16 C15 1.404 . S
C16 C17 1.391 . S
C17 H11 0.930 . S
C17 C13 1.429 . S
C17 C16 1.391 . S
H18 C21 0.931 . S
H19 C24 0.928 . S
H20 C26 0.930 . S
C21 H18 0.931 . S
C21 C22 1.413 . S
C21 C23 1.360 . S
C22 C21 1.413 . S
C22 C26 1.429 . S
C23 C21 1.360 . S
C23 C24 1.372 . S
C24 H19 0.928 . S
C24 C23 1.372 . S
C24 C25 1.404 . S
C25 C24 1.404 . S
C25 C26 1.391 . S
C26 H20 0.930 . S
C26 C22 1.429 . S
C26 C25 1.391 . S
H27 C30 0.931 . S
H28 C33 0.928 . S
H29 C35 0.930 . S
C30 H27 0.931 . S
C30 C31 1.413 . S
C30 C32 1.360 . S
C31 C30 1.413 . S
C31 C35 1.429 . S
C32 C30 1.360 . S
C32 C33 1.372 . S
C33 H28 0.928 . S
C33 C32 1.372 . S
C33 C34 1.404 . S
C34 C33 1.404 . S
C34 C35 1.391 . S
C35 H29 0.930 . S
C35 C31 1.429 . S
C35 C34 1.391 . S
H36 C39 0.931 . S
H37 C42 0.928 . S
H38 C44 0.930 . S
C39 H36 0.931 . S
C39 C40 1.413 . S
C39 C41 1.360 . S
C40 C39 1.413 . S
C40 C44 1.429 . S
C41 C39 1.360 . S
C41 C42 1.372 . S
C42 H37 0.928 . S
C42 C41 1.372 . S
C42 C43 1.404 . S
C43 C42 1.404 . S
C43 C44 1.391 . S
C44 H38 0.930 . S
C44 C40 1.429 . S
C44 C43 1.391 . S
H45 C48 0.931 . S
H46 C51 0.928 . S
H47 C53 0.930 . S
C48 H45 0.931 . S
C48 C49 1.413 . S
C48 C50 1.360 . S
C49 C48 1.413 . S
C49 C53 1.429 . S
C50 C48 1.360 . S
C50 C51 1.372 . S
C51 H46 0.928 . S
C51 C50 1.372 . S
C51 C52 1.404 . S
C52 C51 1.404 . S
C52 C53 1.391 . S
C53 H47 0.930 . S
C53 C49 1.429 . S
C53 C52 1.391 . S
H54 C57 0.931 . S
H55 C60 0.928 . S
H56 C62 0.930 . S
C57 H54 0.931 . S
C57 C58 1.413 . S
C57 C59 1.360 . S
C58 C57 1.413 . S
C58 C62 1.429 . S
C59 C57 1.360 . S
C59 C60 1.372 . S
C60 H55 0.928 . S
C60 C59 1.372 . S
C60 C61 1.404 . S
C61 C60 1.404 . S
C61 C62 1.391 . S
C62 H56 0.930 . S
C62 C58 1.429 . S
C62 C61 1.391 . S
H63 C66 0.931 . S
H64 C69 0.928 . S
H65 C71 0.930 . S
C66 H63 0.931 . S
C66 C67 1.413 . S
C66 C68 1.360 . S
C67 C66 1.413 . S
C67 C71 1.429 . S
C68 C66 1.360 . S
C68 C69 1.372 . S
C69 H64 0.928 . S
C69 C68 1.372 . S
C69 C70 1.404 . S
C70 C69 1.404 . S
C70 C71 1.391 . S
C71 H65 0.930 . S
C71 C67 1.429 . S
C71 C70 1.391 . S
Zn72 O78 1.894 1_455 S
Zn72 O84 1.898 . S
Zn72 O87 1.905 . S
Zn73 O81 1.905 1_655 S
Zn73 O82 1.898 . S
Zn73 O90 1.920 . S
Zn74 O77 2.080 1_455 S
Zn74 O80 2.114 . S
Zn74 O83 2.120 1_455 S
Zn74 O85 2.120 . S
Zn74 O86 2.114 . S
Zn74 O89 2.080 1_455 S
C75 O80 1.166 . S
C75 O81 1.182 . S
C76 O82 1.167 . S
C76 O83 1.299 . S
O77 Zn74 2.080 1_655 S
O77 C91 1.305 . S
O78 Zn72 1.894 1_655 S
O78 C91 1.257 . S
C79 O84 1.167 . S
C79 O85 1.299 . S
O80 Zn74 2.114 . S
O80 C75 1.166 . S
O81 Zn73 1.905 1_455 S
O81 C75 1.182 . S
O82 Zn73 1.898 . S
O82 C76 1.167 . S
O83 Zn74 2.120 1_655 S
O83 C76 1.299 . S
O84 Zn72 1.898 . S
O84 C79 1.167 . S
O85 Zn74 2.120 . S
O85 C79 1.299 . S
O86 Zn74 2.114 . S
O86 C88 1.166 . S
O87 Zn72 1.905 . S
O87 C88 1.182 . S
C88 O86 1.166 . S
C88 O87 1.182 . S
O89 Zn74 2.080 1_655 S
O89 C92 1.305 . S
O90 Zn73 1.920 . S
O90 C92 1.234 . S
C91 O77 1.305 . S
C91 O78 1.257 . S
C92 O89 1.305 . S
C92 O90 1.234 . S
Zn93 O99 1.920 . S
Zn93 O105 1.898 . S
Zn93 O108 1.905 . S
Zn94 O102 1.905 . S
Zn94 O103 1.898 . S
Zn94 O111 1.920 . S
Zn95 O98 2.080 . S
Zn95 O101 2.114 . S
Zn95 O104 2.120 . S
Zn95 O106 2.120 . S
Zn95 O107 2.114 . S
Zn95 O110 2.080 . S
C96 O101 1.166 . S
C96 O102 1.182 . S
C97 O103 1.167 . S
C97 O104 1.299 . S
O98 Zn95 2.080 . S
O98 C112 1.305 . S
O99 Zn93 1.920 . S
O99 C112 1.234 . S
C100 O105 1.167 . S
C100 O106 1.299 . S
O101 Zn95 2.114 . S
O101 C96 1.166 . S
O102 Zn94 1.905 . S
O102 C96 1.182 . S
O103 Zn94 1.898 . S
O103 C97 1.167 . S
O104 Zn95 2.120 . S
O104 C97 1.299 . S
O105 Zn93 1.898 . S
O105 C100 1.167 . S
O106 Zn95 2.120 . S
O106 C100 1.299 . S
O107 Zn95 2.114 . S
O107 C109 1.166 . S
O108 Zn93 1.905 . S
O108 C109 1.182 . S
C109 O107 1.166 . S
C109 O108 1.182 . S
O110 Zn95 2.080 . S
O110 C113 1.305 . S
O111 Zn94 1.920 . S
O111 C113 1.234 . S
C112 O98 1.305 . S
C112 O99 1.234 . S
C113 O110 1.305 . S
C113 O111 1.234 . S
Zn114 O120 1.920 . S
Zn114 O126 1.898 . S
Zn114 O129 1.905 1_455 S
Zn115 O123 1.905 . S
Zn115 O124 1.898 . S
Zn115 O132 1.920 1_655 S
Zn116 O119 2.080 . S
Zn116 O122 2.114 1_455 S
Zn116 O125 2.120 1_455 S
Zn116 O127 2.120 . S
Zn116 O128 2.114 1_455 S
Zn116 O131 2.080 . S
C117 O122 1.166 . S
C117 O123 1.182 . S
C118 O124 1.167 . S
C118 O125 1.299 . S
O119 Zn116 2.080 . S
O119 C133 1.305 . S
O120 Zn114 1.920 . S
O120 C133 1.234 . S
C121 O126 1.167 . S
C121 O127 1.299 . S
O122 Zn116 2.114 1_655 S
O122 C117 1.166 . S
O123 Zn115 1.905 . S
O123 C117 1.182 . S
O124 Zn115 1.898 . S
O124 C118 1.167 . S
O125 Zn116 2.120 1_655 S
O125 C118 1.299 . S
O126 Zn114 1.898 . S
O126 C121 1.167 . S
O127 Zn116 2.120 . S
O127 C121 1.299 . S
O128 Zn116 2.114 1_655 S
O128 C130 1.166 . S
O129 Zn114 1.905 1_655 S
O129 C130 1.182 . S
C130 O128 1.166 . S
C130 O129 1.182 . S
O131 Zn116 2.080 . S
O131 C134 1.305 . S
O132 Zn115 1.920 1_455 S
O132 C134 1.234 . S
C133 O119 1.305 . S
C133 O120 1.234 . S
C134 O131 1.305 . S
C134 O132 1.234 . S
Zn135 O141 1.920 . S
Zn135 O147 1.898 . S
Zn135 O150 1.905 . S
Zn136 O144 1.905 . S
Zn136 O145 1.898 . S
Zn136 O153 1.920 . S
Zn137 O140 2.080 . S
Zn137 O143 2.114 . S
Zn137 O146 2.120 . S
Zn137 O148 2.120 . S
Zn137 O149 2.114 . S
Zn137 O152 2.080 . S
C138 O143 1.166 . S
C138 O144 1.182 . S
C139 O145 1.167 . S
C139 O146 1.299 . S
O140 Zn137 2.080 . S
O140 C154 1.305 . S
O141 Zn135 1.920 . S
O141 C154 1.234 . S
C142 O147 1.167 . S
C142 O148 1.299 . S
O143 Zn137 2.114 . S
O143 C138 1.166 . S
O144 Zn136 1.905 . S
O144 C138 1.182 . S
O145 Zn136 1.898 . S
O145 C139 1.167 . S
O146 Zn137 2.120 . S
O146 C139 1.299 . S
O147 Zn135 1.898 . S
O147 C142 1.167 . S
O148 Zn137 2.120 . S
O148 C142 1.299 . S
O149 Zn137 2.114 . S
O149 C151 1.166 . S
O150 Zn135 1.905 . S
O150 C151 1.182 . S
C151 O149 1.166 . S
C151 O150 1.182 . S
O152 Zn137 2.080 . S
O152 C155 1.305 . S
O153 Zn136 1.920 . S
O153 C155 1.234 . S
C154 O140 1.305 . S
C154 O141 1.234 . S
C155 O152 1.305 . S
C155 O153 1.234 . S
H156 C168 0.930 . S
H157 C170 0.930 . S
H158 C171 0.930 . S
H159 C175 0.959 1_565 S
H160 C175 0.959 . S
H161 C175 0.961 1_565 S
H162 C176 0.960 . S
H163 C176 0.961 . S
H164 C176 0.959 . S
H165 C179 0.928 . S
H166 C180 0.931 . S
H167 C182 0.930 . S
C168 H156 0.930 . S
C168 C169 1.399 . S
C168 C173 1.399 . S
C169 C168 1.399 . S
C169 C170 1.376 . S
C170 H157 0.930 . S
C170 C169 1.376 . S
C170 C171 1.388 . S
C171 H158 0.930 . S
C171 C170 1.388 . S
C171 C172 1.390 . S
C172 C171 1.390 . S
C172 C173 1.394 . S
C172 C178 1.465 . S
C173 C168 1.399 . S
C173 C172 1.394 . S
C173 C174 1.516 1_565 S
C174 C173 1.516 1_545 S
C174 C175 1.502 . S
C174 C176 1.561 . S
C174 C177 1.526 . S
C175 H159 0.959 1_545 S
C175 H160 0.959 . S
C175 H161 0.961 1_545 S
C175 C174 1.502 . S
C176 H162 0.960 . S
C176 H163 0.961 . S
C176 H164 0.959 . S
C176 C174 1.561 . S
C177 C174 1.526 . S
C177 C178 1.396 1_545 S
C177 C182 1.390 . S
C178 C172 1.465 . S
C178 C177 1.396 1_565 S
C178 C179 1.398 . S
C179 H165 0.928 . S
C179 C178 1.398 . S
C179 C180 1.387 1_565 S
C180 H166 0.931 . S
C180 C179 1.387 1_545 S
C180 C181 1.389 . S
C181 C180 1.389 . S
C181 C182 1.387 . S
C182 H167 0.930 . S
C182 C177 1.390 . S
C182 C181 1.387 . S
H183 C195 0.930 . S
H184 C197 0.930 . S
H185 C198 0.930 . S
H186 C202 0.959 . S
H187 C202 0.959 . S
H188 C202 0.961 . S
H189 C203 0.960 . S
H190 C203 0.961 . S
H191 C203 0.959 . S
H192 C206 0.929 . S
H193 C207 0.931 . S
H194 C209 0.930 . S
C195 H183 0.930 . S
C195 C196 1.399 . S
C195 C200 1.399 . S
C196 C195 1.399 . S
C196 C197 1.376 . S
C197 H184 0.930 . S
C197 C196 1.376 . S
C197 C198 1.388 . S
C198 H185 0.930 . S
C198 C197 1.388 . S
C198 C199 1.390 . S
C199 C198 1.390 . S
C199 C200 1.394 . S
C199 C205 1.465 . S
C200 C195 1.399 . S
C200 C199 1.394 . S
C200 C201 1.516 . S
C201 C200 1.516 . S
C201 C202 1.502 . S
C201 C203 1.561 . S
C201 C204 1.526 . S
C202 H186 0.959 . S
C202 H187 0.959 . S
C202 H188 0.961 . S
C202 C201 1.502 . S
C203 H189 0.960 . S
C203 H190 0.961 . S
C203 H191 0.959 . S
C203 C201 1.561 . S
C204 C201 1.526 . S
C204 C205 1.396 . S
C204 C209 1.390 . S
C205 C199 1.465 . S
C205 C204 1.396 . S
C205 C206 1.399 . S
C206 H192 0.929 . S
C206 C205 1.399 . S
C206 C207 1.385 . S
C207 H193 0.931 . S
C207 C206 1.385 . S
C207 C208 1.389 . S
C208 C207 1.389 . S
C208 C209 1.387 . S
C209 H194 0.930 . S
C209 C204 1.390 . S
C209 C208 1.387 . S
H210 C222 0.930 . S
H211 C224 0.930 . S
H212 C225 0.930 . S
H213 C229 0.959 . S
H214 C229 0.959 . S
H215 C229 0.961 . S
H216 C230 0.960 . S
H217 C230 0.961 . S
H218 C230 0.959 . S
H219 C233 0.929 . S
H220 C234 0.931 . S
H221 C236 0.930 . S
C222 H210 0.930 . S
C222 C223 1.399 . S
C222 C227 1.399 . S
C223 C222 1.399 . S
C223 C224 1.376 . S
C224 H211 0.930 . S
C224 C223 1.376 . S
C224 C225 1.388 . S
C225 H212 0.930 . S
C225 C224 1.388 . S
C225 C226 1.390 . S
C226 C225 1.390 . S
C226 C227 1.394 . S
C226 C232 1.465 . S
C227 C222 1.399 . S
C227 C226 1.394 . S
C227 C228 1.516 . S
C228 C227 1.516 . S
C228 C229 1.502 . S
C228 C230 1.561 . S
C228 C231 1.526 . S
C229 H213 0.959 . S
C229 H214 0.959 . S
C229 H215 0.961 . S
C229 C228 1.502 . S
C230 H216 0.960 . S
C230 H217 0.961 . S
C230 H218 0.959 . S
C230 C228 1.561 . S
C231 C228 1.526 . S
C231 C232 1.396 . S
C231 C236 1.390 . S
C232 C226 1.465 . S
C232 C231 1.396 . S
C232 C233 1.399 . S
C233 H219 0.929 . S
C233 C232 1.399 . S
C233 C234 1.385 . S
C234 H220 0.931 . S
C234 C233 1.385 . S
C234 C235 1.389 . S
C235 C234 1.389 . S
C235 C236 1.387 . S
C236 H221 0.930 . S
C236 C231 1.390 . S
C236 C235 1.387 . S
H237 C249 0.930 . S
H238 C251 0.930 . S
H239 C252 0.930 . S
H240 C256 0.959 . S
H241 C256 0.959 . S
H242 C256 0.961 . S
H243 C257 0.960 . S
H244 C257 0.961 . S
H245 C257 0.959 . S
H246 C260 0.929 . S
H247 C261 0.931 . S
H248 C263 0.930 . S
C249 H237 0.930 . S
C249 C250 1.399 . S
C249 C254 1.399 . S
C250 C249 1.399 . S
C250 C251 1.376 . S
C251 H238 0.930 . S
C251 C250 1.376 . S
C251 C252 1.388 . S
C252 H239 0.930 . S
C252 C251 1.388 . S
C252 C253 1.390 . S
C253 C252 1.390 . S
C253 C254 1.394 . S
C253 C259 1.465 . S
C254 C249 1.399 . S
C254 C253 1.394 . S
C254 C255 1.516 . S
C255 C254 1.516 . S
C255 C256 1.502 . S
C255 C257 1.561 . S
C255 C258 1.526 1_565 S
C256 H240 0.959 . S
C256 H241 0.959 . S
C256 H242 0.961 . S
C256 C255 1.502 . S
C257 H243 0.960 . S
C257 H244 0.961 . S
C257 H245 0.959 . S
C257 C255 1.561 . S
C258 C255 1.526 1_545 S
C258 C259 1.396 1_545 S
C258 C263 1.390 . S
C259 C253 1.465 . S
C259 C258 1.396 1_565 S
C259 C260 1.399 1_565 S
C260 H246 0.929 . S
C260 C259 1.399 1_545 S
C260 C261 1.385 . S
C261 H247 0.931 . S
C261 C260 1.385 . S
C261 C262 1.389 . S
C262 C261 1.389 . S
C262 C263 1.387 . S
C263 H248 0.930 . S
C263 C258 1.390 . S
C263 C262 1.387 . S
H264 C276 0.930 . S
H265 C278 0.930 . S
H266 C279 0.930 . S
H267 C283 0.959 1_565 S
H268 C283 0.959 1_565 S
H269 C283 0.961 . S
H270 C284 0.960 . S
H271 C284 0.974 . S
H272 C284 0.959 . S
H273 C287 0.929 . S
H274 C288 0.931 . S
H275 C290 0.930 . S
C276 H264 0.930 . S
C276 C277 1.399 . S
C276 C281 1.399 . S
C277 C276 1.399 . S
C277 C278 1.376 . S
C278 H265 0.930 . S
C278 C277 1.376 . S
C278 C279 1.388 . S
C279 H266 0.930 . S
C279 C278 1.388 . S
C279 C280 1.390 . S
C280 C279 1.390 . S
C280 C281 1.394 . S
C280 C286 1.465 . S
C281 C276 1.399 . S
C281 C280 1.394 . S
C281 C282 1.516 . S
C282 C281 1.516 . S
C282 C283 1.502 . S
C282 C284 1.561 . S
C282 C285 1.526 1_545 S
C283 H267 0.959 1_545 S
C283 H268 0.959 1_545 S
C283 H269 0.961 . S
C283 C282 1.502 . S
C284 H270 0.960 . S
C284 H271 0.974 . S
C284 H272 0.959 . S
C284 C282 1.561 . S
C285 C282 1.526 1_565 S
C285 C286 1.396 1_565 S
C285 C290 1.390 . S
C286 C280 1.465 . S
C286 C285 1.396 1_545 S
C286 C287 1.399 1_545 S
C287 H273 0.929 . S
C287 C286 1.399 1_565 S
C287 C288 1.385 . S
C288 H274 0.931 . S
C288 C287 1.385 . S
C288 C289 1.389 . S
C289 C288 1.389 . S
C289 C290 1.387 . S
C290 H275 0.930 . S
C290 C285 1.390 . S
C290 C289 1.387 . S
H291 C303 0.930 . S
H292 C305 0.930 . S
H293 C306 0.930 . S
H294 C310 0.959 . S
H295 C310 0.959 . S
H296 C310 0.961 . S
H297 C311 0.960 . S
H298 C311 0.961 . S
H299 C311 0.959 . S
H300 C314 0.929 . S
H301 C315 0.931 . S
H302 C317 0.930 . S
C303 H291 0.930 . S
C303 C304 1.399 . S
C303 C308 1.399 . S
C304 C303 1.399 . S
C304 C305 1.376 . S
C305 H292 0.930 . S
C305 C304 1.376 . S
C305 C306 1.388 . S
C306 H293 0.930 . S
C306 C305 1.388 . S
C306 C307 1.390 . S
C307 C306 1.390 . S
C307 C308 1.394 . S
C307 C313 1.465 . S
C308 C303 1.399 . S
C308 C307 1.394 . S
C308 C309 1.516 . S
C309 C308 1.516 . S
C309 C310 1.502 . S
C309 C311 1.561 . S
C309 C312 1.526 . S
C310 H294 0.959 . S
C310 H295 0.959 . S
C310 H296 0.961 . S
C310 C309 1.502 . S
C311 H297 0.960 . S
C311 H298 0.961 . S
C311 H299 0.959 . S
C311 C309 1.561 . S
C312 C309 1.526 . S
C312 C313 1.396 . S
C312 C317 1.390 . S
C313 C307 1.465 . S
C313 C312 1.396 . S
C313 C314 1.399 . S
C314 H300 0.929 . S
C314 C313 1.399 . S
C314 C315 1.385 . S
C315 H301 0.931 . S
C315 C314 1.385 . S
C315 C316 1.389 . S
C316 C315 1.389 . S
C316 C317 1.387 . S
C317 H302 0.930 . S
C317 C312 1.390 . S
C317 C316 1.387 . S
H318 C330 0.930 . S
H319 C332 0.930 . S
H320 C333 0.930 . S
H321 C337 0.959 . S
H322 C337 0.959 . S
H323 C337 0.961 . S
H324 C338 0.960 . S
H325 C338 0.961 . S
H326 C338 0.959 . S
H327 C341 0.929 . S
H328 C342 0.931 . S
H329 C344 0.930 . S
C330 H318 0.930 . S
C330 C331 1.399 . S
C330 C335 1.399 . S
C331 C330 1.399 . S
C331 C332 1.376 . S
C332 H319 0.930 . S
C332 C331 1.376 . S
C332 C333 1.388 . S
C333 H320 0.930 . S
C333 C332 1.388 . S
C333 C334 1.390 . S
C334 C333 1.390 . S
C334 C335 1.394 . S
C334 C340 1.465 . S
C335 C330 1.399 . S
C335 C334 1.394 . S
C335 C336 1.516 . S
C336 C335 1.516 . S
C336 C337 1.502 . S
C336 C338 1.561 . S
C336 C339 1.526 . S
C337 H321 0.959 . S
C337 H322 0.959 . S
C337 H323 0.961 . S
C337 C336 1.502 . S
C338 H324 0.960 . S
C338 H325 0.961 . S
C338 H326 0.959 . S
C338 C336 1.561 . S
C339 C336 1.526 . S
C339 C340 1.396 . S
C339 C344 1.390 . S
C340 C334 1.465 . S
C340 C339 1.396 . S
C340 C341 1.399 . S
C341 H327 0.929 . S
C341 C340 1.399 . S
C341 C342 1.385 . S
C342 H328 0.931 . S
C342 C341 1.385 . S
C342 C343 1.389 . S
C343 C342 1.389 . S
C343 C344 1.387 . S
C344 H329 0.930 . S
C344 C339 1.390 . S
C344 C343 1.387 . S
H345 C357 0.930 . S
H346 C359 0.930 . S
H347 C360 0.930 . S
H348 C364 0.959 . S
H349 C364 0.959 . S
H350 C364 0.961 . S
H351 C365 0.960 . S
H352 C365 0.961 . S
H353 C365 0.959 . S
H354 C368 0.929 . S
H355 C369 0.931 . S
H356 C371 0.930 . S
C357 H345 0.930 . S
C357 C358 1.399 . S
C357 C362 1.399 . S
C358 C357 1.399 . S
C358 C359 1.376 . S
C359 H346 0.930 . S
C359 C358 1.376 . S
C359 C360 1.388 . S
C360 H347 0.930 . S
C360 C359 1.388 . S
C360 C361 1.390 . S
C361 C360 1.390 . S
C361 C362 1.394 . S
C361 C367 1.465 1_545 S
C362 C357 1.399 . S
C362 C361 1.394 . S
C362 C363 1.516 . S
C363 C362 1.516 . S
C363 C364 1.502 . S
C363 C365 1.561 . S
C363 C366 1.526 1_545 S
C364 H348 0.959 . S
C364 H349 0.959 . S
C364 H350 0.961 . S
C364 C363 1.502 . S
C365 H351 0.960 . S
C365 H352 0.961 . S
C365 H353 0.959 . S
C365 C363 1.561 . S
C366 C363 1.526 1_565 S
C366 C367 1.396 . S
C366 C371 1.390 . S
C367 C361 1.465 1_565 S
C367 C366 1.396 . S
C367 C368 1.399 . S
C368 H354 0.929 . S
C368 C367 1.399 . S
C368 C369 1.385 . S
C369 H355 0.931 . S
C369 C368 1.385 . S
C369 C370 1.389 . S
C370 C369 1.389 . S
C370 C371 1.387 . S
C371 H356 0.930 . S
C371 C366 1.390 . S
C371 C370 1.387 . S
H372 C384 0.930 . S
H373 C386 0.930 . S
H374 C387 0.930 . S
H375 C391 0.959 . S
H376 C391 0.959 . S
H377 C391 0.961 . S
H378 C392 0.960 . S
H379 C392 0.961 . S
H380 C392 0.959 . S
H381 C395 0.929 . S
H382 C396 0.931 . S
H383 C398 0.930 . S
C384 H372 0.930 . S
C384 C385 1.399 . S
C384 C389 1.399 1_556 S
C385 C384 1.399 . S
C385 C386 1.376 . S
C386 H373 0.930 . S
C386 C385 1.376 . S
C386 C387 1.388 1_556 S
C387 H374 0.930 . S
C387 C386 1.388 1_554 S
C387 C388 1.390 . S
C388 C387 1.390 . S
C388 C389 1.394 . S
C388 C394 1.465 . S
C389 C384 1.399 1_554 S
C389 C388 1.394 . S
C389 C390 1.516 . S
C390 C389 1.516 . S
C390 C391 1.502 . S
C390 C392 1.561 . S
C390 C393 1.526 . S
C391 H375 0.959 . S
C391 H376 0.959 . S
C391 H377 0.961 . S
C391 C390 1.502 . S
C392 H378 0.960 . S
C392 H379 0.961 . S
C392 H380 0.959 . S
C392 C390 1.561 . S
C393 C390 1.526 . S
C393 C394 1.396 . S
C393 C398 1.390 . S
C394 C388 1.465 . S
C394 C393 1.396 . S
C394 C395 1.399 . S
C395 H381 0.929 . S
C395 C394 1.399 . S
C395 C396 1.385 . S
C396 H382 0.931 . S
C396 C395 1.385 . S
C396 C397 1.389 . S
C397 C396 1.389 . S
C397 C398 1.387 . S
C398 H383 0.930 . S
C398 C393 1.390 . S
C398 C397 1.387 . S
H399 C411 0.930 . S
H400 C413 0.930 . S
H401 C414 0.930 . S
H402 C418 0.959 . S
H403 C418 0.959 . S
H404 C418 0.961 . S
H405 C419 0.960 . S
H406 C419 0.961 . S
H407 C419 0.959 . S
H408 C422 0.929 . S
H409 C423 0.931 . S
H410 C425 0.930 . S
C411 H399 0.930 . S
C411 C412 1.399 . S
C411 C416 1.399 . S
C412 C411 1.399 . S
C412 C413 1.376 . S
C413 H400 0.930 . S
C413 C412 1.376 . S
C413 C414 1.388 . S
C414 H401 0.930 . S
C414 C413 1.388 . S
C414 C415 1.390 . S
C415 C414 1.390 . S
C415 C416 1.394 . S
C415 C421 1.465 . S
C416 C411 1.399 . S
C416 C415 1.394 . S
C416 C417 1.516 . S
C417 C416 1.516 . S
C417 C418 1.502 . S
C417 C419 1.561 . S
C417 C420 1.526 . S
C418 H402 0.959 . S
C418 H403 0.959 . S
C418 H404 0.961 . S
C418 C417 1.502 . S
C419 H405 0.960 . S
C419 H406 0.961 . S
C419 H407 0.959 . S
C419 C417 1.561 . S
C420 C417 1.526 . S
C420 C421 1.396 . S
C420 C425 1.390 . S
C421 C415 1.465 . S
C421 C420 1.396 . S
C421 C422 1.399 . S
C422 H408 0.929 . S
C422 C421 1.399 . S
C422 C423 1.385 . S
C423 H409 0.931 . S
C423 C422 1.385 . S
C423 C424 1.389 . S
C424 C423 1.389 . S
C424 C425 1.387 . S
C425 H410 0.930 . S
C425 C420 1.390 . S
C425 C424 1.387 . S
H426 C438 0.930 . S
H427 C440 0.930 . S
H428 C441 0.930 . S
H429 C445 0.959 . S
H430 C445 0.959 . S
H431 C445 0.961 . S
H432 C446 0.960 . S
H433 C446 0.961 . S
H434 C446 0.959 . S
H435 C449 0.929 . S
H436 C450 0.931 . S
H437 C452 0.930 . S
C438 H426 0.930 . S
C438 C439 1.399 . S
C438 C443 1.399 1_554 S
C439 C438 1.399 . S
C439 C440 1.376 . S
C440 H427 0.930 . S
C440 C439 1.376 . S
C440 C441 1.388 1_554 S
C441 H428 0.930 . S
C441 C440 1.388 1_556 S
C441 C442 1.390 . S
C442 C441 1.390 . S
C442 C443 1.394 . S
C442 C448 1.465 . S
C443 C438 1.399 1_556 S
C443 C442 1.394 . S
C443 C444 1.516 . S
C444 C443 1.516 . S
C444 C445 1.502 . S
C444 C446 1.561 . S
C444 C447 1.526 . S
C445 H429 0.959 . S
C445 H430 0.959 . S
C445 H431 0.961 . S
C445 C444 1.502 . S
C446 H432 0.960 . S
C446 H433 0.961 . S
C446 H434 0.959 . S
C446 C444 1.561 . S
C447 C444 1.526 . S
C447 C448 1.396 . S
C447 C452 1.390 . S
C448 C442 1.465 . S
C448 C447 1.396 . S
C448 C449 1.399 . S
C449 H435 0.929 . S
C449 C448 1.399 . S
C449 C450 1.385 . S
C450 H436 0.931 . S
C450 C449 1.385 . S
C450 C451 1.389 . S
C451 C450 1.389 . S
C451 C452 1.387 . S
C452 H437 0.930 . S
C452 C447 1.390 . S
C452 C451 1.387 . S
H453 C465 0.930 . S
H454 C467 0.930 . S
H455 C468 0.930 . S
H456 C472 0.959 . S
H457 C472 0.959 . S
H458 C472 0.961 . S
H459 C473 0.960 . S
H460 C473 0.961 . S
H461 C473 0.959 . S
H462 C476 0.929 . S
H463 C477 0.931 . S
H464 C479 0.930 . S
C465 H453 0.930 . S
C465 C466 1.399 . S
C465 C470 1.399 . S
C466 C465 1.399 . S
C466 C467 1.376 . S
C467 H454 0.930 . S
C467 C466 1.376 . S
C467 C468 1.388 . S
C468 H455 0.930 . S
C468 C467 1.388 . S
C468 C469 1.390 . S
C469 C468 1.390 . S
C469 C470 1.394 . S
C469 C475 1.465 . S
C470 C465 1.399 . S
C470 C469 1.394 . S
C470 C471 1.516 . S
C471 C470 1.516 . S
C471 C472 1.502 . S
C471 C473 1.561 . S
C471 C474 1.526 . S
C472 H456 0.959 . S
C472 H457 0.959 . S
C472 H458 0.961 . S
C472 C471 1.502 . S
C473 H459 0.960 . S
C473 H460 0.961 . S
C473 H461 0.959 . S
C473 C471 1.561 . S
C474 C471 1.526 . S
C474 C475 1.396 . S
C474 C479 1.390 . S
C475 C469 1.465 . S
C475 C474 1.396 . S
C475 C476 1.399 . S
C476 H462 0.929 . S
C476 C475 1.399 . S
C476 C477 1.385 . S
C477 H463 0.931 . S
C477 C476 1.385 . S
C477 C478 1.389 . S
C478 C477 1.389 . S
C478 C479 1.387 . S
C479 H464 0.930 . S
C479 C474 1.390 . S
C479 C478 1.387 . S
H480 C492 0.930 . S
H481 C494 0.930 . S
H482 C495 0.930 . S
H483 C499 0.959 . S
H484 C499 0.959 . S
H485 C499 0.961 . S
H486 C500 0.960 . S
H487 C500 0.961 . S
H488 C500 0.959 . S
H489 C503 0.929 . S
H490 C504 0.931 . S
H491 C506 0.930 . S
C492 H480 0.930 . S
C492 C493 1.399 . S
C492 C497 1.399 1_554 S
C493 C492 1.399 . S
C493 C494 1.376 . S
C494 H481 0.930 . S
C494 C493 1.376 . S
C494 C495 1.388 1_554 S
C495 H482 0.930 . S
C495 C494 1.388 1_556 S
C495 C496 1.390 . S
C496 C495 1.390 . S
C496 C497 1.394 . S
C496 C502 1.465 . S
C497 C492 1.399 1_556 S
C497 C496 1.394 . S
C497 C498 1.516 . S
C498 C497 1.516 . S
C498 C499 1.502 . S
C498 C500 1.561 . S
C498 C501 1.526 . S
C499 H483 0.959 . S
C499 H484 0.959 . S
C499 H485 0.961 . S
C499 C498 1.502 . S
C500 H486 0.960 . S
C500 H487 0.961 . S
C500 H488 0.959 . S
C500 C498 1.561 . S
C501 C498 1.526 . S
C501 C502 1.396 . S
C501 C506 1.390 . S
C502 C496 1.465 . S
C502 C501 1.396 . S
C502 C503 1.399 . S
C503 H489 0.929 . S
C503 C502 1.399 . S
C503 C504 1.385 . S
C504 H490 0.931 . S
C504 C503 1.385 . S
C504 C505 1.389 . S
C505 C504 1.389 . S
C505 C506 1.387 . S
C506 H491 0.930 . S
C506 C501 1.390 . S
C506 C505 1.387 . S
H507 C519 0.930 . S
H508 C521 0.930 . S
H509 C522 0.930 . S
H510 C526 0.959 . S
H511 C526 0.959 . S
H512 C526 0.961 . S
H513 C527 0.960 . S
H514 C527 0.961 . S
H515 C527 0.959 . S
H516 C530 0.929 . S
H517 C531 0.931 . S
H518 C533 0.930 . S
C519 H507 0.930 . S
C519 C520 1.399 . S
C519 C524 1.399 . S
C520 C519 1.399 . S
C520 C521 1.376 . S
C521 H508 0.930 . S
C521 C520 1.376 . S
C521 C522 1.388 . S
C522 H509 0.930 . S
C522 C521 1.388 . S
C522 C523 1.390 . S
C523 C522 1.390 . S
C523 C524 1.394 . S
C523 C529 1.465 . S
C524 C519 1.399 . S
C524 C523 1.394 . S
C524 C525 1.516 . S
C525 C524 1.516 . S
C525 C526 1.502 . S
C525 C527 1.561 . S
C525 C528 1.526 . S
C526 H510 0.959 . S
C526 H511 0.959 . S
C526 H512 0.961 . S
C526 C525 1.502 . S
C527 H513 0.960 . S
C527 H514 0.961 . S
C527 H515 0.959 . S
C527 C525 1.561 . S
C528 C525 1.526 . S
C528 C529 1.396 . S
C528 C533 1.390 . S
C529 C523 1.465 . S
C529 C528 1.396 . S
C529 C530 1.399 . S
C530 H516 0.929 . S
C530 C529 1.399 . S
C530 C531 1.385 . S
C531 H517 0.931 . S
C531 C530 1.385 . S
C531 C532 1.389 . S
C532 C531 1.389 . S
C532 C533 1.387 . S
C533 H518 0.930 . S
C533 C528 1.390 . S
C533 C532 1.387 . S
H534 C546 0.930 . S
H535 C548 0.930 . S
H536 C549 0.930 . S
H537 C553 0.959 . S
H538 C553 0.959 . S
H539 C553 0.961 1_556 S
H540 C554 0.960 . S
H541 C554 0.961 . S
H542 C554 0.959 . S
H543 C557 0.929 . S
H544 C558 0.931 . S
H545 C560 0.930 . S
C546 H534 0.930 . S
C546 C547 1.399 . S
C546 C551 1.399 1_556 S
C547 C546 1.399 . S
C547 C548 1.376 . S
C548 H535 0.930 . S
C548 C547 1.376 . S
C548 C549 1.388 1_556 S
C549 H536 0.930 . S
C549 C548 1.388 1_554 S
C549 C550 1.390 . S
C550 C549 1.390 . S
C550 C551 1.394 . S
C550 C556 1.465 . S
C551 C546 1.399 1_554 S
C551 C550 1.394 . S
C551 C552 1.516 . S
C552 C551 1.516 . S
C552 C553 1.502 . S
C552 C554 1.561 . S
C552 C555 1.526 . S
C553 H537 0.959 . S
C553 H538 0.959 . S
C553 H539 0.961 1_554 S
C553 C552 1.502 . S
C554 H540 0.960 . S
C554 H541 0.961 . S
C554 H542 0.959 . S
C554 C552 1.561 . S
C555 C552 1.526 . S
C555 C556 1.396 . S
C555 C560 1.390 . S
C556 C550 1.465 . S
C556 C555 1.396 . S
C556 C557 1.399 . S
C557 H543 0.929 . S
C557 C556 1.399 . S
C557 C558 1.385 . S
C558 H544 0.931 . S
C558 C557 1.385 . S
C558 C559 1.389 . S
C559 C558 1.389 . S
C559 C560 1.387 . S
C560 H545 0.930 . S
C560 C555 1.390 . S
C560 C559 1.387 . S
H561 C573 0.930 . S
H562 C575 0.930 . S
H563 C576 0.930 . S
H564 C580 0.959 . S
H565 C580 0.959 . S
H566 C580 0.961 . S
H567 C581 0.960 . S
H568 C581 0.961 . S
H569 C581 0.959 . S
H570 C584 0.929 . S
H571 C585 0.931 . S
H572 C587 0.930 . S
C573 H561 0.930 . S
C573 C574 1.399 . S
C573 C578 1.399 . S
C574 C573 1.399 . S
C574 C575 1.376 . S
C575 H562 0.930 . S
C575 C574 1.376 . S
C575 C576 1.388 . S
C576 H563 0.930 . S
C576 C575 1.388 . S
C576 C577 1.390 . S
C577 C576 1.390 . S
C577 C578 1.394 . S
C577 C583 1.465 . S
C578 C573 1.399 . S
C578 C577 1.394 . S
C578 C579 1.516 . S
C579 C578 1.516 . S
C579 C580 1.502 . S
C579 C581 1.561 . S
C579 C582 1.526 . S
C580 H564 0.959 . S
C580 H565 0.959 . S
C580 H566 0.961 . S
C580 C579 1.502 . S
C581 H567 0.960 . S
C581 H568 0.961 . S
C581 H569 0.959 . S
C581 C579 1.561 . S
C582 C579 1.526 . S
C582 C583 1.396 . S
C582 C587 1.390 . S
C583 C577 1.465 . S
C583 C582 1.396 . S
C583 C584 1.399 . S
C584 H570 0.929 . S
C584 C583 1.399 . S
C584 C585 1.385 . S
C585 H571 0.931 . S
C585 C584 1.385 . S
C585 C586 1.389 . S
C586 C585 1.389 . S
C586 C587 1.387 . S
C587 H572 0.930 . S
C587 C582 1.390 . S
C587 C586 1.387 . S
H588 C600 0.930 . S
H589 C602 0.930 . S
H590 C603 0.930 . S
H591 C607 0.959 . S
H592 C607 0.959 . S
H593 C607 0.961 . S
H594 C608 0.960 . S
H595 C608 0.961 . S
H596 C608 0.959 . S
H597 C611 0.929 . S
H598 C612 0.931 . S
H599 C614 0.930 . S
C600 H588 0.930 . S
C600 C601 1.399 . S
C600 C605 1.399 . S
C601 C600 1.399 . S
C601 C602 1.376 . S
C602 H589 0.930 . S
C602 C601 1.376 . S
C602 C603 1.388 . S
C603 H590 0.930 . S
C603 C602 1.388 . S
C603 C604 1.390 . S
C604 C603 1.390 . S
C604 C605 1.394 . S
C604 C610 1.465 . S
C605 C600 1.399 . S
C605 C604 1.394 . S
C605 C606 1.516 . S
C606 C605 1.516 . S
C606 C607 1.502 . S
C606 C608 1.561 . S
C606 C609 1.526 . S
C607 H591 0.959 . S
C607 H592 0.959 . S
C607 H593 0.961 . S
C607 C606 1.502 . S
C608 H594 0.960 . S
C608 H595 0.961 . S
C608 H596 0.959 . S
C608 C606 1.561 . S
C609 C606 1.526 . S
C609 C610 1.396 . S
C609 C614 1.390 . S
C610 C604 1.465 . S
C610 C609 1.396 . S
C610 C611 1.399 . S
C611 H597 0.929 . S
C611 C610 1.399 . S
C611 C612 1.385 . S
C612 H598 0.931 . S
C612 C611 1.385 . S
C612 C613 1.389 . S
C613 C612 1.389 . S
C613 C614 1.387 . S
C614 H599 0.930 . S
C614 C609 1.390 . S
C614 C613 1.387 . S
H615 C627 0.930 . S
H616 C629 0.930 . S
H617 C630 0.930 . S
H618 C634 0.959 . S
H619 C634 0.959 . S
H620 C634 0.961 . S
H621 C635 0.960 . S
H622 C635 0.961 . S
H623 C635 0.959 . S
H624 C638 0.929 . S
H625 C639 0.931 . S
H626 C641 0.930 . S
C627 H615 0.930 . S
C627 C628 1.399 . S
C627 C632 1.399 . S
C628 C627 1.399 . S
C628 C629 1.376 . S
C629 H616 0.930 . S
C629 C628 1.376 . S
C629 C630 1.388 . S
C630 H617 0.930 . S
C630 C629 1.388 . S
C630 C631 1.390 . S
C631 C630 1.390 . S
C631 C632 1.394 . S
C631 C637 1.465 . S
C632 C627 1.399 . S
C632 C631 1.394 . S
C632 C633 1.516 . S
C633 C632 1.516 . S
C633 C634 1.502 . S
C633 C635 1.561 . S
C633 C636 1.526 . S
C634 H618 0.959 . S
C634 H619 0.959 . S
C634 H620 0.961 . S
C634 C633 1.502 . S
C635 H621 0.960 . S
C635 H622 0.961 . S
C635 H623 0.959 . S
C635 C633 1.561 . S
C636 C633 1.526 . S
C636 C637 1.396 . S
C636 C641 1.390 . S
C637 C631 1.465 . S
C637 C636 1.396 . S
C637 C638 1.399 . S
C638 H624 0.929 . S
C638 C637 1.399 . S
C638 C639 1.385 . S
C639 H625 0.931 . S
C639 C638 1.385 . S
C639 C640 1.389 . S
C640 C639 1.389 . S
C640 C641 1.387 . S
C641 H626 0.930 . S
C641 C636 1.390 . S
C641 C640 1.387 . S
H642 C654 0.930 . S
H643 C656 0.930 . S
H644 C657 0.930 . S
H645 C661 0.959 . S
H646 C661 0.959 . S
H647 C661 0.961 . S
H648 C662 0.960 . S
H649 C662 0.961 . S
H650 C662 0.959 . S
H651 C665 0.929 . S
H652 C666 0.931 . S
H653 C668 0.930 . S
C654 H642 0.930 . S
C654 C655 1.399 . S
C654 C659 1.399 . S
C655 C654 1.399 . S
C655 C656 1.376 . S
C656 H643 0.930 . S
C656 C655 1.376 . S
C656 C657 1.388 . S
C657 H644 0.930 . S
C657 C656 1.388 . S
C657 C658 1.390 . S
C658 C657 1.390 . S
C658 C659 1.394 . S
C658 C664 1.465 . S
C659 C654 1.399 . S
C659 C658 1.394 . S
C659 C660 1.516 . S
C660 C659 1.516 . S
C660 C661 1.502 . S
C660 C662 1.561 . S
C660 C663 1.526 . S
C661 H645 0.959 . S
C661 H646 0.959 . S
C661 H647 0.961 . S
C661 C660 1.502 . S
C662 H648 0.960 . S
C662 H649 0.961 . S
C662 H650 0.959 . S
C662 C660 1.561 . S
C663 C660 1.526 . S
C663 C664 1.396 . S
C663 C668 1.390 . S
C664 C658 1.465 . S
C664 C663 1.396 . S
C664 C665 1.399 . S
C665 H651 0.929 . S
C665 C664 1.399 . S
C665 C666 1.385 . S
C666 H652 0.931 . S
C666 C665 1.385 . S
C666 C667 1.389 . S
C667 C666 1.389 . S
C667 C668 1.387 . S
C668 H653 0.930 . S
C668 C663 1.390 . S
C668 C667 1.387 . S
H669 C681 0.930 . S
H670 C683 0.930 . S
H671 C684 0.930 . S
H672 C688 0.959 . S
H673 C688 0.959 . S
H674 C688 0.961 . S
H675 C689 0.960 . S
H676 C689 0.961 . S
H677 C689 0.959 . S
H678 C692 0.929 . S
H679 C693 0.931 . S
H680 C695 0.930 . S
C681 H669 0.930 . S
C681 C682 1.399 . S
C681 C686 1.399 . S
C682 C681 1.399 . S
C682 C683 1.376 . S
C683 H670 0.930 . S
C683 C682 1.376 . S
C683 C684 1.388 . S
C684 H671 0.930 . S
C684 C683 1.388 . S
C684 C685 1.390 . S
C685 C684 1.390 . S
C685 C686 1.394 . S
C685 C691 1.465 . S
C686 C681 1.399 . S
C686 C685 1.394 . S
C686 C687 1.516 . S
C687 C686 1.516 . S
C687 C688 1.502 . S
C687 C689 1.561 . S
C687 C690 1.526 . S
C688 H672 0.959 . S
C688 H673 0.959 . S
C688 H674 0.961 . S
C688 C687 1.502 . S
C689 H675 0.960 . S
C689 H676 0.961 . S
C689 H677 0.959 . S
C689 C687 1.561 . S
C690 C687 1.526 . S
C690 C691 1.396 . S
C690 C695 1.390 . S
C691 C685 1.465 . S
C691 C690 1.396 . S
C691 C692 1.399 . S
C692 H678 0.929 . S
C692 C691 1.399 . S
C692 C693 1.385 . S
C693 H679 0.931 . S
C693 C692 1.385 . S
C693 C694 1.389 . S
C694 C693 1.389 . S
C694 C695 1.387 . S
C695 H680 0.930 . S
C695 C690 1.390 . S
C695 C694 1.387 . S
H696 C708 0.930 . S
H697 C710 0.930 . S
H698 C711 0.930 . S
H699 C715 0.959 . S
H700 C715 0.959 . S
H701 C715 0.961 . S
H702 C716 0.960 . S
H703 C716 0.961 . S
H704 C716 0.959 . S
H705 C719 0.929 . S
H706 C720 0.931 . S
H707 C722 0.930 . S
C708 H696 0.930 . S
C708 C709 1.399 . S
C708 C713 1.399 . S
C709 C708 1.399 . S
C709 C710 1.376 . S
C710 H697 0.930 . S
C710 C709 1.376 . S
C710 C711 1.388 . S
C711 H698 0.930 . S
C711 C710 1.388 . S
C711 C712 1.390 . S
C712 C711 1.390 . S
C712 C713 1.394 . S
C712 C718 1.465 . S
C713 C708 1.399 . S
C713 C712 1.394 . S
C713 C714 1.516 . S
C714 C713 1.516 . S
C714 C715 1.502 . S
C714 C716 1.561 . S
C714 C717 1.526 . S
C715 H699 0.959 . S
C715 H700 0.959 . S
C715 H701 0.961 . S
C715 C714 1.502 . S
C716 H702 0.960 . S
C716 H703 0.961 . S
C716 H704 0.959 . S
C716 C714 1.561 . S
C717 C714 1.526 . S
C717 C718 1.396 . S
C717 C722 1.390 . S
C718 C712 1.465 . S
C718 C717 1.396 . S
C718 C719 1.399 . S
C719 H705 0.929 . S
C719 C718 1.399 . S
C719 C720 1.385 . S
C720 H706 0.931 . S
C720 C719 1.385 . S
C720 C721 1.389 . S
C721 C720 1.389 . S
C721 C722 1.387 . S
C722 H707 0.930 . S
C722 C717 1.390 . S
C722 C721 1.387 . S
H723 C735 0.930 . S
H724 C737 0.930 . S
H725 C738 0.930 . S
H726 C742 0.959 . S
H727 C742 0.959 . S
H728 C742 0.961 . S
H729 C743 0.960 . S
H730 C743 0.961 . S
H731 C743 0.959 . S
H732 C746 0.929 . S
H733 C747 0.931 . S
H734 C749 0.930 . S
C735 H723 0.930 . S
C735 C736 1.399 . S
C735 C740 1.399 . S
C736 C735 1.399 . S
C736 C737 1.376 . S
C737 H724 0.930 . S
C737 C736 1.376 . S
C737 C738 1.388 . S
C738 H725 0.930 . S
C738 C737 1.388 . S
C738 C739 1.390 . S
C739 C738 1.390 . S
C739 C740 1.394 . S
C739 C745 1.465 . S
C740 C735 1.399 . S
C740 C739 1.394 . S
C740 C741 1.516 . S
C741 C740 1.516 . S
C741 C742 1.502 . S
C741 C743 1.561 . S
C741 C744 1.526 . S
C742 H726 0.959 . S
C742 H727 0.959 . S
C742 H728 0.961 . S
C742 C741 1.502 . S
C743 H729 0.960 . S
C743 H730 0.961 . S
C743 H731 0.959 . S
C743 C741 1.561 . S
C744 C741 1.526 . S
C744 C745 1.396 . S
C744 C749 1.390 . S
C745 C739 1.465 . S
C745 C744 1.396 . S
C745 C746 1.399 . S
C746 H732 0.929 . S
C746 C745 1.399 . S
C746 C747 1.385 . S
C747 H733 0.931 . S
C747 C746 1.385 . S
C747 C748 1.389 . S
C748 C747 1.389 . S
C748 C749 1.387 . S
C749 H734 0.930 . S
C749 C744 1.390 . S
C749 C748 1.387 . S
H750 C762 0.930 . S
H751 C764 0.930 . S
H752 C765 0.930 . S
H753 C769 0.959 . S
H754 C769 0.959 . S
H755 C769 0.961 . S
H756 C770 0.960 . S
H757 C770 0.961 . S
H758 C770 0.959 . S
H759 C773 0.929 . S
H760 C774 0.931 . S
H761 C776 0.930 . S
C762 H750 0.930 . S
C762 C763 1.399 . S
C762 C767 1.399 . S
C763 C762 1.399 . S
C763 C764 1.376 . S
C764 H751 0.930 . S
C764 C763 1.376 . S
C764 C765 1.388 . S
C765 H752 0.930 . S
C765 C764 1.388 . S
C765 C766 1.390 . S
C766 C765 1.390 . S
C766 C767 1.394 . S
C766 C772 1.465 . S
C767 C762 1.399 . S
C767 C766 1.394 . S
C767 C768 1.516 . S
C768 C767 1.516 . S
C768 C769 1.502 . S
C768 C770 1.561 . S
C768 C771 1.526 . S
C769 H753 0.959 . S
C769 H754 0.959 . S
C769 H755 0.961 . S
C769 C768 1.502 . S
C770 H756 0.960 . S
C770 H757 0.961 . S
C770 H758 0.959 . S
C770 C768 1.561 . S
C771 C768 1.526 . S
C771 C772 1.396 . S
C771 C776 1.390 . S
C772 C766 1.465 . S
C772 C771 1.396 . S
C772 C773 1.399 . S
C773 H759 0.929 . S
C773 C772 1.399 . S
C773 C774 1.385 . S
C774 H760 0.931 . S
C774 C773 1.385 . S
C774 C775 1.389 . S
C775 C774 1.389 . S
C775 C776 1.387 . S
C776 H761 0.930 . S
C776 C771 1.390 . S
C776 C775 1.387 . S
H777 C789 0.930 . S
H778 C791 0.930 . S
H779 C792 0.930 . S
H780 C796 0.959 . S
H781 C796 0.959 . S
H782 C796 0.961 . S
H783 C797 0.960 . S
H784 C797 0.961 . S
H785 C797 0.959 . S
H786 C800 0.929 . S
H787 C801 0.931 . S
H788 C803 0.930 . S
C789 H777 0.930 . S
C789 C790 1.399 . S
C789 C794 1.399 . S
C790 C789 1.399 . S
C790 C791 1.376 . S
C791 H778 0.930 . S
C791 C790 1.376 . S
C791 C792 1.388 . S
C792 H779 0.930 . S
C792 C791 1.388 . S
C792 C793 1.390 . S
C793 C792 1.390 . S
C793 C794 1.394 . S
C793 C799 1.465 . S
C794 C789 1.399 . S
C794 C793 1.394 . S
C794 C795 1.516 . S
C795 C794 1.516 . S
C795 C796 1.502 . S
C795 C797 1.561 . S
C795 C798 1.526 . S
C796 H780 0.959 . S
C796 H781 0.959 . S
C796 H782 0.961 . S
C796 C795 1.502 . S
C797 H783 0.960 . S
C797 H784 0.961 . S
C797 H785 0.959 . S
C797 C795 1.561 . S
C798 C795 1.526 . S
C798 C799 1.396 . S
C798 C803 1.390 . S
C799 C793 1.465 . S
C799 C798 1.396 . S
C799 C800 1.399 . S
C800 H786 0.929 . S
C800 C799 1.399 . S
C800 C801 1.385 . S
C801 H787 0.931 . S
C801 C800 1.385 . S
C801 C802 1.389 . S
C802 C801 1.389 . S
C802 C803 1.387 . S
C803 H788 0.930 . S
C803 C798 1.390 . S
C803 C802 1.387 . S
C169 C58 1.395 . S
C181 C88 1.355 . S
C208 C96 1.274 . S
C196 C68 1.362 . S
C235 C100 1.335 . S
C223 C40 1.387 . S
C250 C50 1.360 . S
C262 C76 1.261 . S
C289 C117 1.332 . S
C277 C23 1.396 . S
C316 C151 1.345 . S
C304 C32 1.377 . S
C331 C5 1.383 . S
C343 C139 1.347 . S
C358 C14 1.354 . S
C370 C121 1.241 . S
C397 C75 1.222 . S
C385 C13 1.427 . S
C424 C109 1.312 . S
C412 C4 1.446 . S
C451 C113 1.337 . S
C439 C31 1.447 . S
C478 C91 1.207 . S
C466 C22 1.436 . S
C505 C130 1.279 . S
C493 C49 1.432 . S
C520 C41 1.426 . S
C532 C138 1.244 . S
C559 C154 1.339 . S
C547 C67 1.449 . S
C574 C59 1.438 . S
C586 C134 1.298 . S
C613 C79 1.236 . S
C601 C7 1.498 . S
C640 C97 1.367 . S
C628 C16 1.484 . S
C655 C25 1.492 . S
C667 C112 1.289 . S
C694 C92 1.274 . S
C682 C34 1.491 . S
C721 C118 1.234 . S
C709 C43 1.494 . S
C736 C52 1.497 . S
C748 C142 1.238 . S
C763 C61 1.492 . S
C775 C155 1.342 . S
C790 C70 1.487 . S
C802 C133 1.250 . S
