# Generated by pormake.
# Topology csq, (4,8)-cn, num edge types: 1
# Building blocks:
#     Node 0, Type 0, BuildingBlock: MIFKUJ_clean_linker_1, # of connection points: 4
#     Node 1, Type 0, BuildingBlock: MIFKUJ_clean_linker_1, # of connection points: 4
#     Node 2, Type 0, BuildingBlock: MIFKUJ_clean_linker_1, # of connection points: 4
#     Node 3, Type 0, BuildingBlock: MIFKUJ_clean_linker_1, # of connection points: 4
#     Node 4, Type 0, BuildingBlock: MIFKUJ_clean_linker_1, # of connection points: 4
#     Node 5, Type 0, BuildingBlock: MIFKUJ_clean_linker_1, # of connection points: 4
#     Node 6, Type 1, BuildingBlock: TAGTUT_clean_sbu_1, # of connection points: 8
#     Node 7, Type 1, BuildingBlock: TAGTUT_clean_sbu_1, # of connection points: 8
#     Node 8, Type 1, BuildingBlock: TAGTUT_clean_sbu_1, # of connection points: 8
#     Edge 9, Type (0, 1), BuildingBlock: OJICUG_clean_linker_0, # of connection points: 2
#     Edge 10, Type (0, 1), BuildingBlock: OJICUG_clean_linker_0, # of connection points: 2
#     Edge 11, Type (0, 1), BuildingBlock: OJICUG_clean_linker_0, # of connection points: 2
#     Edge 12, Type (0, 1), BuildingBlock: OJICUG_clean_linker_0, # of connection points: 2
#     Edge 13, Type (0, 1), BuildingBlock: OJICUG_clean_linker_0, # of connection points: 2
#     Edge 14, Type (0, 1), BuildingBlock: OJICUG_clean_linker_0, # of connection points: 2
#     Edge 15, Type (0, 1), BuildingBlock: OJICUG_clean_linker_0, # of connection points: 2
#     Edge 16, Type (0, 1), BuildingBlock: OJICUG_clean_linker_0, # of connection points: 2
#     Edge 17, Type (0, 1), BuildingBlock: OJICUG_clean_linker_0, # of connection points: 2
#     Edge 18, Type (0, 1), BuildingBlock: OJICUG_clean_linker_0, # of connection points: 2
#     Edge 19, Type (0, 1), BuildingBlock: OJICUG_clean_linker_0, # of connection points: 2
#     Edge 20, Type (0, 1), BuildingBlock: OJICUG_clean_linker_0, # of connection points: 2
#     Edge 21, Type (0, 1), BuildingBlock: OJICUG_clean_linker_0, # of connection points: 2
#     Edge 22, Type (0, 1), BuildingBlock: OJICUG_clean_linker_0, # of connection points: 2
#     Edge 23, Type (0, 1), BuildingBlock: OJICUG_clean_linker_0, # of connection points: 2
#     Edge 24, Type (0, 1), BuildingBlock: OJICUG_clean_linker_0, # of connection points: 2
#     Edge 25, Type (0, 1), BuildingBlock: OJICUG_clean_linker_0, # of connection points: 2
#     Edge 26, Type (0, 1), BuildingBlock: OJICUG_clean_linker_0, # of connection points: 2
#     Edge 27, Type (0, 1), BuildingBlock: OJICUG_clean_linker_0, # of connection points: 2
#     Edge 28, Type (0, 1), BuildingBlock: OJICUG_clean_linker_0, # of connection points: 2
#     Edge 29, Type (0, 1), BuildingBlock: OJICUG_clean_linker_0, # of connection points: 2
#     Edge 30, Type (0, 1), BuildingBlock: OJICUG_clean_linker_0, # of connection points: 2
#     Edge 31, Type (0, 1), BuildingBlock: OJICUG_clean_linker_0, # of connection points: 2
#     Edge 32, Type (0, 1), BuildingBlock: OJICUG_clean_linker_0, # of connection points: 2
# Relax obj value: 0.034
# Max RMSD: 0.125
# Mean RMSD: 0.057
data_MOF--net-csq--node1-TAGTUT_clean_sbu_1--node2-MIFKUJ_clean_linker_1--edge1-OJICUG_clean_linker_0
_symmetry_space_group_name_H-M    P1
_symmetry_Int_Tables_number       1
_symmetry_cell_setting            triclinic
loop_
_symmetry_equiv_pos_as_xyz
'x, y, z'
_cell_length_a     49.590629
_cell_length_b     48.906086
_cell_length_c     17.260509
_cell_angle_alpha  93.542276
_cell_angle_beta   91.423666
_cell_angle_gamma 120.07921
loop_
_atom_site_label
_atom_site_type_symbol
_atom_site_fract_x
_atom_site_fract_y
_atom_site_fract_z
_atom_type_partial_charge
H0 H 0.25836 0.45088 0.3233 0.0
H1 H 0.29324 0.44807 0.42132 0.0
H2 H 0.36943 0.53633 0.35526 0.0
H3 H 0.33437 0.53939 0.25891 0.0
H4 H 0.24285 0.49467 0.32649 0.0
H5 H 0.28596 0.45453 0.1334 0.0
H6 H 0.32062 0.44804 0.04467 0.0
H7 H 0.35701 0.54421 0.98425 0.0
H8 H 0.32258 0.55058 0.0732 0.0
H9 H 0.24285 0.56071 0.06019 0.0
H10 H 0.21063 0.56004 0.94939 0.0
H11 H 0.13818 0.46616 0.99523 0.0
H12 H 0.1706 0.46685 0.10529 0.0
H13 H 0.26023 0.51567 0.04995 0.0
H14 H 0.20881 0.55016 0.23431 0.0
H15 H 0.1684 0.55072 0.31227 0.0
H16 H 0.14335 0.45823 0.38385 0.0
H17 H 0.18305 0.45747 0.30457 0.0
C18 C 0.2939 0.49517 0.28328 0.0
C19 C 0.28266 0.46948 0.32966 0.0
C20 C 0.30251 0.46797 0.3858 0.0
C21 C 0.33386 0.49226 0.39683 0.0
C22 C 0.34516 0.51764 0.34933 0.0
C23 C 0.32535 0.5191 0.29311 0.0
C24 C 0.27198 0.49904 0.23203 0.0
C25 C 0.24627 0.49869 0.26547 0.0
C26 C 0.27723 0.50539 0.15332 0.0
C27 C 0.30185 0.50314 0.11061 0.0
C28 C 0.30192 0.47443 0.1024 0.0
C29 C 0.32139 0.4706 0.05072 0.0
C30 C 0.34134 0.49549 0.00666 0.0
C31 C 0.34205 0.5246 0.0174 0.0
C32 C 0.32241 0.5283 0.06841 0.0
C33 C 0.20891 0.51396 0.09126 0.0
C34 C 0.21968 0.54034 0.04739 0.0
C35 C 0.20144 0.53983 0.98384 0.0
C36 C 0.1723 0.51276 0.96277 0.0
C37 C 0.16094 0.48702 0.00914 0.0
C38 C 0.1791 0.48763 0.07297 0.0
C39 C 0.23104 0.51121 0.14427 0.0
C40 C 0.25686 0.51179 0.11108 0.0
C41 C 0.22542 0.50435 0.22261 0.0
C42 C 0.19886 0.50365 0.26284 0.0
C43 C 0.19423 0.52977 0.26565 0.0
C44 C 0.17145 0.53028 0.31133 0.0
C45 C 0.15278 0.50463 0.35498 0.0
C46 C 0.15713 0.4783 0.35076 0.0
C47 C 0.17989 0.47786 0.30542 0.0
H48 H 0.81843 0.32723 0.06241 0.0
H49 H 0.86772 0.3659 0.01263 0.0
H50 H 0.89024 0.29195 0.96444 0.0
H51 H 0.84009 0.25331 0.0104 0.0
H52 H 0.77207 0.23732 0.97734 0.0
H53 H 0.8014 0.31687 0.25667 0.0
H54 H 0.84664 0.36095 0.33063 0.0
H55 H 0.9052 0.32555 0.2418 0.0
H56 H 0.85953 0.28061 0.17234 0.0
H57 H 0.76092 0.19331 0.28119 0.0
H58 H 0.72521 0.16094 0.37421 0.0
H59 H 0.64874 0.15924 0.24334 0.0
H60 H 0.68542 0.19418 0.15373 0.0
H61 H 0.77626 0.25005 0.26552 0.0
H62 H 0.73322 0.15563 0.06344 0.0
H63 H 0.69346 0.11306 0.97341 0.0
H64 H 0.66378 0.17717 0.89796 0.0
H65 H 0.70482 0.21989 0.98527 0.0
C66 C 0.82562 0.28749 0.039 0.0
C67 C 0.83373 0.31935 0.03916 0.0
C68 C 0.86222 0.3415 0.01226 0.0
C69 C 0.88331 0.33222 0.9857 0.0
C70 C 0.87455 0.29997 0.98371 0.0
C71 C 0.84581 0.27777 0.00944 0.0
C72 C 0.79881 0.26547 0.08131 0.0
C73 C 0.77271 0.23995 0.04036 0.0
C74 C 0.79983 0.26927 0.16307 0.0
C75 C 0.82719 0.29568 0.20863 0.0
C76 C 0.824 0.31861 0.25365 0.0
C77 C 0.84999 0.34403 0.29489 0.0
C78 C 0.87968 0.347 0.29168 0.0
C79 C 0.88271 0.32393 0.24615 0.0
C80 C 0.85666 0.29835 0.20582 0.0
C81 C 0.72598 0.19625 0.21003 0.0
C82 C 0.73642 0.18594 0.27224 0.0
C83 C 0.71582 0.16714 0.32542 0.0
C84 C 0.68392 0.15742 0.31708 0.0
C85 C 0.67323 0.16678 0.25292 0.0
C86 C 0.69409 0.18622 0.20033 0.0
C87 C 0.74943 0.22033 0.16235 0.0
C88 C 0.77507 0.247 0.20248 0.0
C89 C 0.74781 0.21733 0.07976 0.0
C90 C 0.72153 0.19067 0.03198 0.0
C91 C 0.71791 0.16032 0.02793 0.0
C92 C 0.69514 0.13604 0.97615 0.0
C93 C 0.67515 0.14149 0.92803 0.0
C94 C 0.67896 0.17208 0.93269 0.0
C95 C 0.70208 0.19644 0.98359 0.0
H96 H 0.57141 0.72956 0.03924 0.0
H97 H 0.57783 0.68473 0.99472 0.0
H98 H 0.48605 0.63884 0.87582 0.0
H99 H 0.47966 0.68353 0.92173 0.0
H100 H 0.52327 0.75425 0.90338 0.0
H101 H 0.56386 0.75022 0.20318 0.0
H102 H 0.56741 0.71081 0.27596 0.0
H103 H 0.47566 0.63911 0.1785 0.0
H104 H 0.47309 0.67861 0.10333 0.0
H105 H 0.47953 0.81171 0.04167 0.0
H106 H 0.48597 0.86316 0.0865 0.0
H107 H 0.56569 0.88217 0.23676 0.0
H108 H 0.56041 0.83195 0.18748 0.0
H109 H 0.51622 0.7705 0.18771 0.0
H110 H 0.47911 0.78048 0.88261 0.0
H111 H 0.48281 0.82359 0.80946 0.0
H112 H 0.57455 0.88691 0.92041 0.0
H113 H 0.57073 0.84374 0.99281 0.0
C114 C 0.52513 0.70972 0.98318 0.0
C115 C 0.55274 0.70978 0.00348 0.0
C116 C 0.55632 0.6842 0.97841 0.0
C117 C 0.53231 0.65819 0.93268 0.0
C118 C 0.50468 0.65829 0.91241 0.0
C119 C 0.50117 0.68395 0.93732 0.0
C120 C 0.52064 0.73571 0.01485 0.0
C121 C 0.52101 0.7575 0.96514 0.0
C122 C 0.51839 0.74013 0.09547 0.0
C123 C 0.51814 0.71734 0.14851 0.0
C124 C 0.54432 0.72612 0.19873 0.0
C125 C 0.54628 0.70345 0.24018 0.0
C126 C 0.52184 0.67159 0.23314 0.0
C127 C 0.49519 0.66319 0.18437 0.0
C128 C 0.49344 0.68582 0.14223 0.0
C129 C 0.51976 0.81824 0.11056 0.0
C130 C 0.49853 0.82717 0.08381 0.0
C131 C 0.50217 0.85652 0.1097 0.0
C132 C 0.52672 0.87715 0.16409 0.0
C133 C 0.54715 0.86745 0.19286 0.0
C134 C 0.54379 0.83839 0.16606 0.0
C135 C 0.51866 0.78919 0.07628 0.0
C136 C 0.51753 0.76689 0.12559 0.0
C137 C 0.52063 0.78454 0.99532 0.0
C138 C 0.52464 0.80899 0.94292 0.0
C139 C 0.50021 0.8035 0.88992 0.0
C140 C 0.5022 0.82823 0.8491 0.0
C141 C 0.52885 0.85869 0.8599 0.0
C142 C 0.5538 0.86369 0.91067 0.0
C143 C 0.55168 0.83907 0.95188 0.0
H144 H 0.76042 0.45133 0.19778 0.0
H145 H 0.79418 0.45329 0.30655 0.0
H146 H 0.86554 0.54638 0.25233 0.0
H147 H 0.83159 0.5444 0.14416 0.0
H148 H 0.74205 0.49513 0.20544 0.0
H149 H 0.7878 0.45703 0.01819 0.0
H150 H 0.82587 0.45276 0.93949 0.0
H151 H 0.85842 0.54719 0.86963 0.0
H152 H 0.81928 0.5507 0.94651 0.0
H153 H 0.73902 0.55541 0.92631 0.0
H154 H 0.70243 0.55476 0.82739 0.0
H155 H 0.62946 0.46643 0.90243 0.0
H156 H 0.66628 0.46665 0.99902 0.0
H157 H 0.75719 0.51381 0.92704 0.0
H158 H 0.71168 0.55213 0.12315 0.0
H159 H 0.67523 0.55554 0.21148 0.0
H160 H 0.64282 0.45941 0.26666 0.0
H161 H 0.67917 0.45616 0.17852 0.0
C162 C 0.79367 0.49762 0.16267 0.0
C163 C 0.78364 0.47183 0.20834 0.0
C164 C 0.80279 0.47306 0.2707 0.0
C165 C 0.83211 0.50028 0.2888 0.0
C166 C 0.84269 0.52543 0.24069 0.0
C167 C 0.82363 0.52408 0.17798 0.0
C168 C 0.77087 0.49959 0.11027 0.0
C169 C 0.74498 0.4986 0.14403 0.0
C170 C 0.77566 0.50553 0.03121 0.0
C171 C 0.80102 0.5044 0.98955 0.0
C172 C 0.8034 0.47698 0.98678 0.0
C173 C 0.82518 0.47457 0.94129 0.0
C174 C 0.84546 0.4997 0.89805 0.0
C175 C 0.84297 0.52716 0.90095 0.0
C176 C 0.82088 0.52939 0.94584 0.0
C177 C 0.70523 0.51129 0.97069 0.0
C178 C 0.71504 0.53604 0.92169 0.0
C179 C 0.69422 0.53559 0.86505 0.0
C180 C 0.66327 0.51028 0.85629 0.0
C181 C 0.65338 0.48586 0.90649 0.0
C182 C 0.6742 0.48632 0.96298 0.0
C183 C 0.72829 0.50935 0.02228 0.0
C184 C 0.75428 0.51045 0.98848 0.0
C185 C 0.72359 0.50342 0.1014 0.0
C186 C 0.698 0.50381 0.14371 0.0
C187 C 0.69624 0.53158 0.153 0.0
C188 C 0.67572 0.53364 0.20433 0.0
C189 C 0.65637 0.50785 0.24676 0.0
C190 C 0.6573 0.47965 0.23476 0.0
C191 C 0.67803 0.47774 0.18425 0.0
H192 H 0.26498 0.84836 0.03217 0.0
H193 H 0.30285 0.87734 0.93809 0.0
H194 H 0.33555 0.81028 0.94214 0.0
H195 H 0.29901 0.78301 0.04068 0.0
H196 H 0.22663 0.76674 0.98741 0.0
H197 H 0.28995 0.86204 0.16828 0.0
H198 H 0.33444 0.90017 0.25376 0.0
H199 H 0.32557 0.82422 0.38671 0.0
H200 H 0.28313 0.78599 0.29593 0.0
H201 H 0.19661 0.70999 0.2701 0.0
H202 H 0.14847 0.66843 0.31954 0.0
H203 H 0.09616 0.70614 0.21067 0.0
H204 H 0.14436 0.74743 0.16014 0.0
H205 H 0.2286 0.77911 0.27532 0.0
H206 H 0.1784 0.68566 0.10383 0.0
H207 H 0.13308 0.64053 0.03365 0.0
H208 H 0.1205 0.70476 0.89608 0.0
H209 H 0.16481 0.74985 0.96989 0.0
C210 C 0.28017 0.81442 0.04562 0.0
C211 C 0.2811 0.84065 0.01454 0.0
C212 C 0.30227 0.85667 0.95913 0.0
C213 C 0.32225 0.84609 0.93138 0.0
C214 C 0.32105 0.81958 0.96272 0.0
C215 C 0.30028 0.804 0.01946 0.0
C216 C 0.25394 0.79414 0.09201 0.0
C217 C 0.22705 0.76977 0.05035 0.0
C218 C 0.25516 0.79727 0.17456 0.0
C219 C 0.28352 0.82087 0.22375 0.0
C220 C 0.29828 0.85339 0.21379 0.0
C221 C 0.32333 0.8754 0.26464 0.0
C222 C 0.33375 0.86556 0.32831 0.0
C223 C 0.3188 0.83291 0.33809 0.0
C224 C 0.29423 0.81092 0.28626 0.0
C225 C 0.17391 0.73164 0.2117 0.0
C226 C 0.17489 0.70968 0.25832 0.0
C227 C 0.14742 0.68579 0.28549 0.0
C228 C 0.11874 0.68398 0.26762 0.0
C229 C 0.11804 0.70708 0.22471 0.0
C230 C 0.14547 0.73066 0.1964 0.0
C231 C 0.20157 0.75265 0.17027 0.0
C232 C 0.2285 0.77656 0.21241 0.0
C233 C 0.20121 0.7485 0.08863 0.0
C234 C 0.17465 0.72114 0.0429 0.0
C235 C 0.16557 0.69001 0.0593 0.0
C236 C 0.13981 0.66419 0.01859 0.0
C237 C 0.12292 0.66895 0.95957 0.0
C238 C 0.13248 0.70021 0.94238 0.0
C239 C 0.15808 0.72604 0.98371 0.0
H240 H 0.52922 0.19864 0.17077 0.0
H241 H 0.5266 0.14896 0.12903 0.0
H242 H 0.42862 0.1086 0.05756 0.0
H243 H 0.43096 0.15707 0.10985 0.0
H244 H 0.47991 0.22672 0.06707 0.0
H245 H 0.52945 0.20843 0.30486 0.0
H246 H 0.52824 0.16593 0.37246 0.0
H247 H 0.43111 0.13164 0.41558 0.0
H248 H 0.43191 0.17197 0.33788 0.0
H249 H 0.42407 0.26639 0.21744 0.0
H250 H 0.41688 0.31071 0.26213 0.0
H251 H 0.50908 0.35815 0.37904 0.0
H252 H 0.51625 0.31401 0.33293 0.0
H253 H 0.47614 0.24442 0.35245 0.0
H254 H 0.43072 0.24615 0.05444 0.0
H255 H 0.42627 0.28516 0.98177 0.0
H256 H 0.51867 0.35735 0.0741 0.0
H257 H 0.52213 0.31832 0.14913 0.0
C258 C 0.48012 0.18111 0.14513 0.0
C259 C 0.50707 0.17869 0.14787 0.0
C260 C 0.50553 0.15026 0.12265 0.0
C261 C 0.4773 0.12417 0.08995 0.0
C262 C 0.45059 0.1274 0.08473 0.0
C263 C 0.45194 0.15542 0.11302 0.0
C264 C 0.48078 0.20983 0.1792 0.0
C265 C 0.47946 0.2308 0.12939 0.0
C266 C 0.48018 0.21504 0.26051 0.0
C267 C 0.48054 0.19265 0.31404 0.0
C268 C 0.50778 0.19133 0.32777 0.0
C269 C 0.50709 0.16713 0.36814 0.0
C270 C 0.47941 0.14455 0.39968 0.0
C271 C 0.45264 0.14751 0.39019 0.0
C272 C 0.45312 0.17104 0.34695 0.0
C273 C 0.47063 0.28704 0.27242 0.0
C274 C 0.44267 0.28639 0.2528 0.0
C275 C 0.43863 0.31169 0.278 0.0
C276 C 0.46255 0.338 0.32315 0.0
C277 C 0.4905 0.33847 0.34287 0.0
C278 C 0.49446 0.31311 0.31785 0.0
C279 C 0.47571 0.26147 0.24034 0.0
C280 C 0.4775 0.24082 0.29035 0.0
C281 C 0.47743 0.25691 0.15947 0.0
C282 C 0.47681 0.27933 0.10654 0.0
C283 C 0.45017 0.27027 0.05782 0.0
C284 C 0.4477 0.29271 0.01643 0.0
C285 C 0.47208 0.32461 0.02208 0.0
C286 C 0.49916 0.33326 0.06936 0.0
C287 C 0.50141 0.31088 0.11142 0.0
C288 C 0.98715 0.42821 0.84016 0.0
C289 C 0.07587 0.49497 0.75082 0.0
C290 C 0.03016 0.57249 0.73996 0.0
Mg291 Mg 0.01118 0.44714 0.67665 0.0
O292 O -0.00391 0.47477 0.70295 0.0
Mg293 Mg 0.01528 0.50418 0.79944 0.0
Mg294 Mg 0.00165 0.5061 0.62873 0.0
O295 O 0.00789 0.53743 0.55372 0.0
Mg296 Mg -0.00568 0.56655 0.57683 0.0
Mg297 Mg 0.9898 0.50807 0.4565 0.0
C298 C 0.97368 0.44003 0.51602 0.0
C299 C 0.05286 0.50828 0.50797 0.0
O300 O -0.00401 0.45736 0.86162 0.0
O301 O 0.99099 0.41933 0.77193 0.0
O302 O 0.06196 0.50682 0.78905 0.0
O303 O 0.06134 0.47206 0.69827 0.0
O304 O 0.98718 0.42971 0.56066 0.0
O305 O 0.97397 0.46609 0.53396 0.0
C306 C 0.95041 0.50145 0.75266 0.0
O307 O 0.95673 0.50382 0.68048 0.0
O308 O 0.96918 0.50137 0.80443 0.0
O309 O 0.01051 0.55461 0.39385 0.0
O310 O 0.0155 0.59365 0.48032 0.0
O311 O 0.94365 0.50696 0.46384 0.0
C312 C 0.01935 0.5839 0.41307 0.0
O313 O 0.9443 0.54242 0.55257 0.0
O314 O 0.01755 0.58343 0.6943 0.0
C315 C 0.92986 0.51942 0.50018 0.0
O316 O 0.02936 0.54615 0.72243 0.0
O317 O 0.04609 0.50778 0.57947 0.0
O318 O 0.03534 0.50857 0.45307 0.0
C319 C 0.46691 0.02116 0.89643 0.0
C320 C 0.41866 0.9343 0.75278 0.0
C321 C 0.53296 0.95713 0.68269 0.0
Mg322 Mg 0.44798 0.00373 0.71921 0.0
O323 O 0.48863 0.0097 0.72633 0.0
Mg324 Mg 0.49651 0.98246 0.79501 0.0
Mg325 Mg 0.50483 0.00165 0.62942 0.0
O326 O 0.52029 0.99323 0.53161 0.0
Mg327 Mg 0.55996 -0.00254 0.53491 0.0
Mg328 Mg 0.51168 0.01976 0.46198 0.0
C329 C 0.47601 0.04519 0.57382 0.0
C330 C 0.44495 0.96154 0.50312 0.0
O331 O 0.48341 0.00757 0.89357 0.0
O332 O 0.45171 0.02248 0.83696 0.0
O333 O 0.44581 0.94221 0.78146 0.0
O334 O 0.41386 0.95365 0.71668 0.0
O335 O 0.45431 0.03342 0.62195 0.0
O336 O 0.49834 0.03905 0.57251 0.0
C337 C 0.56391 0.04089 0.75884 0.0
O338 O 0.55464 0.03913 0.68737 0.0
O339 O 0.54588 0.0221 0.8065 0.0
O340 O 0.52367 0.9941 0.36196 0.0
O341 O 0.555 0.97849 0.41726 0.0
O342 O 0.56298 0.06 0.47235 0.0
C343 C 0.53982 0.98013 0.35826 0.0
O344 O 0.59435 0.04703 0.53496 0.0
O345 O 0.55378 0.96796 0.63212 0.0
C346 C 0.59006 0.06685 0.49948 0.0
O347 O 0.51122 0.96415 0.68563 0.0
O348 O 0.4555 0.96414 0.57351 0.0
O349 O 0.46159 0.97987 0.45284 0.0
C350 C 0.52973 0.57794 0.40844 0.0
C351 C 0.57268 0.52146 0.45333 0.0
C352 C 0.45696 0.43161 0.51897 0.0
Mg353 Mg 0.55422 0.56218 0.55745 0.0
O354 O 0.51206 0.52999 0.54926 0.0
Mg355 Mg 0.49629 0.50128 0.45092 0.0
Mg356 Mg 0.4969 0.49801 0.62714 0.0
O357 O 0.48167 0.46595 0.70499 0.0
Mg358 Mg 0.43935 0.43399 0.69725 0.0
Mg359 Mg 0.49777 0.49464 0.80326 0.0
C360 C 0.53694 0.5644 0.73563 0.0
C361 C 0.55728 0.50191 0.71388 0.0
O362 O 0.51133 0.54807 0.38917 0.0
O363 O 0.54765 0.58829 0.47097 0.0
O364 O 0.54393 0.5057 0.42901 0.0
O365 O 0.58243 0.54366 0.50827 0.0
O366 O 0.55565 0.57707 0.68127 0.0
O367 O 0.51251 0.53668 0.72503 0.0
C368 C 0.43653 0.49393 0.53953 0.0
O369 O 0.44894 0.49407 0.60567 0.0
O370 O 0.45009 0.49658 0.4762 0.0
O371 O 0.4825 0.44783 0.86501 0.0
O372 O 0.44568 0.4077 0.78397 0.0
O373 O 0.45058 0.49081 0.82533 0.0
C374 C 0.46379 0.41799 0.8462 0.0
O375 O 0.41158 0.45324 0.74656 0.0
O376 O 0.43813 0.41906 0.57323 0.0
C377 C 0.42181 0.47558 0.8013 0.0
O378 O 0.4814 0.45932 0.52957 0.0
O379 O 0.54485 0.50211 0.64816 0.0
O380 O 0.5438 0.49901 0.77742 0.0
C381 C 0.09874 0.47742 0.40321 0.0
C382 C 0.12831 0.50487 0.40321 0.0
H383 H 0.0518 0.45712 0.43825 0.0
C384 C 0.13379 0.53259 0.44744 0.0
H385 H 0.09353 0.45577 0.36923 0.0
C386 C 0.10982 0.53315 0.48785 0.0
C387 C 0.08006 0.50602 0.48468 0.0
H388 H 0.15639 0.55404 0.44944 0.0
H389 H 0.11408 0.55517 0.51806 0.0
C390 C 0.07486 0.47808 0.44306 0.0
C391 C 0.63591 0.13998 0.39319 0.0
C392 C 0.66201 0.1373 0.37444 0.0
H393 H 0.59288 0.12021 0.44967 0.0
C394 C 0.66648 0.11445 0.40933 0.0
H395 H 0.63211 0.15787 0.36965 0.0
C396 C 0.64456 0.09366 0.45758 0.0
C397 C 0.61724 0.09467 0.47085 0.0
H398 H 0.68602 0.1113 0.39612 0.0
H399 H 0.64787 0.07514 0.47916 0.0
C400 C 0.61368 0.11877 0.44037 0.0
C401 C 0.53909 0.65563 0.35168 0.0
C402 C 0.52422 0.64738 0.27664 0.0
H403 H 0.55277 0.64059 0.451 0.0
C404 C 0.51174 0.61591 0.24403 0.0
H405 H 0.54842 0.67934 0.37958 0.0
C406 C 0.51375 0.59327 0.28598 0.0
C407 C 0.52866 0.60171 0.361 0.0
H408 H 0.50058 0.60876 0.18584 0.0
H409 H 0.50366 0.56922 0.25964 0.0
C410 C 0.54147 0.63324 0.39294 0.0
C411 C 0.86796 0.53064 0.4061 0.0
C412 C 0.85202 0.50246 0.35682 0.0
H413 H 0.90481 0.55775 0.49397 0.0
C414 C 0.85726 0.47737 0.36904 0.0
H415 H 0.86375 0.55007 0.39896 0.0
C416 C 0.8805 0.48165 0.42378 0.0
C417 C 0.89876 0.51104 0.46727 0.0
H418 H 0.84514 0.45532 0.33227 0.0
H419 H 0.88593 0.46286 0.4274 0.0
C420 C 0.89105 0.53484 0.46142 0.0
C421 C 0.38122 0.88152 0.4189 0.0
C422 C 0.36018 0.88921 0.38351 0.0
H423 H 0.42426 0.89848 0.48738 0.0
C424 C 0.36546 0.92021 0.39892 0.0
H425 H 0.37842 0.85818 0.40804 0.0
C426 C 0.39212 0.94334 0.4432 0.0
C427 C 0.41358 0.93581 0.47531 0.0
H428 H 0.34949 0.92699 0.37509 0.0
H429 H 0.39661 0.96748 0.44989 0.0
C430 C 0.40752 0.90456 0.46479 0.0
C431 C 0.43015 0.35638 0.39238 0.0
C432 C 0.45766 0.36376 0.35561 0.0
H433 H 0.4079 0.37268 0.47192 0.0
C434 C 0.4819 0.39548 0.35899 0.0
H435 H 0.411 0.33214 0.39039 0.0
C436 C 0.48012 0.41879 0.4056 0.0
C437 C 0.4542 0.41062 0.45021 0.0
H438 H 0.50306 0.4019 0.32952 0.0
H439 H 0.50025 0.44249 0.41189 0.0
C440 C 0.42841 0.37965 0.43924 0.0
C441 C 0.505 0.89019 0.81478 0.0
C442 C 0.53056 0.88524 0.81874 0.0
H443 H 0.48587 0.91718 0.77002 0.0
C444 C 0.55772 0.90565 0.7825 0.0
H445 H 0.48393 0.87512 0.8432 0.0
C446 C 0.55889 0.92976 0.74076 0.0
C447 C 0.53302 0.93421 0.73487 0.0
H448 H 0.57776 0.90237 0.78441 0.0
H449 H 0.57988 0.9445 0.71171 0.0
C450 C 0.50626 0.91452 0.77361 0.0
C451 C 0.61789 0.48145 0.75792 0.0
C452 C 0.64056 0.51006 0.79871 0.0
H453 H 0.57309 0.45666 0.69522 0.0
C454 C 0.63875 0.5376 0.79214 0.0
H455 H 0.61909 0.46002 0.76076 0.0
C456 C 0.6128 0.5357 0.75332 0.0
C457 C 0.58857 0.50637 0.72033 0.0
H458 H 0.65578 0.55994 0.82307 0.0
H459 H 0.61016 0.55644 0.75606 0.0
C460 C 0.59191 0.4796 0.71921 0.0
C461 C 0.07018 0.6433 0.88777 0.0
C462 C 0.09634 0.64153 0.91349 0.0
H463 H 0.02829 0.62244 0.81369 0.0
C464 C 0.09781 0.61422 0.89047 0.0
H465 H 0.06784 0.66355 0.9061 0.0
C466 C 0.07475 0.5903 0.83869 0.0
C467 C 0.04996 0.59338 0.80822 0.0
H468 H 0.11766 0.61206 0.90877 0.0
H469 H 0.07757 0.57052 0.81854 0.0
C470 C 0.04733 0.61957 0.83543 0.0
C471 C 0.50258 0.0962 0.02356 0.0
C472 C 0.4761 0.09472 0.05588 0.0
H473 H 0.52033 0.07277 0.95024 0.0
C474 C 0.44777 0.06546 0.04808 0.0
H475 H 0.5248 0.11806 0.02681 0.0
C476 C 0.4451 0.03981 1.0011 0.0
C477 C 0.47108 0.04244 0.96462 0.0
H478 H 0.42712 0.06273 0.07464 0.0
H479 H 0.42242 0.01859 0.9898 0.0
C480 C 0.50014 0.07012 0.9794 0.0
C481 C 0.34918 0.46324 0.89911 0.0
C482 C 0.36119 0.49116 0.94934 0.0
H483 H 0.35862 0.43667 0.81119 0.0
C484 C 0.39247 0.51495 0.94477 0.0
H485 H 0.32503 0.44467 0.90031 0.0
C486 C 0.41161 0.51043 0.89368 0.0
C487 C 0.39995 0.48211 0.84523 0.0
H488 H 0.40251 0.53669 0.98265 0.0
H489 H 0.43588 0.52888 0.89376 0.0
C490 C 0.3683 0.45884 0.84725 0.0
C491 C 0.93002 0.38738 0.99191 0.0
C492 C 0.91375 0.35596 0.95766 0.0
H493 H 0.96661 0.43509 0.98254 0.0
C494 C 0.92577 0.3479 0.89295 0.0
H495 H 0.92205 0.39421 0.04346 0.0
C496 C 0.95185 0.37111 0.85954 0.0
C497 C 0.96622 0.4031 0.88904 0.0
H498 H 0.91396 0.32404 0.86478 0.0
H499 H 0.95924 0.36419 0.80704 0.0
C500 C 0.95591 0.41077 0.95772 0.0
C501 C 0.88562 0.48324 0.88624 0.0
C502 C 0.87028 0.49789 0.85438 0.0
H503 H 0.9218 0.47214 0.87791 0.0
C504 C 0.87986 0.51162 0.78315 0.0
H505 H 0.87945 0.47282 0.94123 0.0
C506 C 0.90492 0.51158 0.74648 0.0
C507 C 0.92088 0.49799 0.78085 0.0
H508 H 0.86829 0.52275 0.75627 0.0
H509 H 0.91254 0.52321 0.6934 0.0
C510 C 0.91029 0.48315 0.84996 0.0
C511 C 0.37475 0.86662 0.87594 0.0
C512 C 0.34498 0.86349 0.87249 0.0
H513 H 0.42096 0.89021 0.83763 0.0
C514 C 0.33809 0.87912 0.816 0.0
H515 H 0.38116 0.85508 0.91825 0.0
C516 C 0.36137 0.90002 0.77034 0.0
C517 C 0.39193 0.90543 0.77961 0.0
H518 H 0.31506 0.87634 0.80932 0.0
H519 H 0.3559 0.9135 0.73189 0.0
C520 C 0.39778 0.88701 0.82947 0.0
C521 C 0.4822 0.38026 0.01049 0.0
C522 C 0.46927 0.34863 0.97866 0.0
H523 H 0.49064 0.42701 0.99413 0.0
C524 C 0.45374 0.34012 0.90435 0.0
H525 H 0.49384 0.38763 0.06816 0.0
C526 C 0.45131 0.36248 0.86291 0.0
C527 C 0.4647 0.39419 0.89396 0.0
H528 H 0.444 0.31627 0.87705 0.0
H529 H 0.43955 0.35495 0.80536 0.0
C530 C 0.48013 0.40283 0.9684 0.0
C531 C 0.14824 0.53659 0.88206 0.0
C532 C 0.15331 0.51134 0.89361 0.0
H533 H 0.11983 0.55146 0.82399 0.0
C534 C 0.13778 0.48356 0.84286 0.0
H535 H 0.16009 0.55836 0.9199 0.0
C536 C 0.11497 0.47973 0.78716 0.0
C537 C 0.10718 0.5035 0.7824 0.0
H538 H 0.14192 0.46405 0.84941 0.0
H539 H 0.10135 0.45699 0.75377 0.0
C540 C 0.12531 0.53268 0.82685 0.0
C541 C 0.63338 0.08443 0.90297 0.0
C542 C 0.64926 0.11496 0.87714 0.0
H543 H 0.59503 0.03725 0.88449 0.0
C544 C 0.63885 0.11995 0.8052 0.0
H545 H 0.64018 0.07947 0.95808 0.0
C546 C 0.61216 0.0954 0.76277 0.0
C547 C 0.59545 0.0655 0.79172 0.0
H548 H 0.65087 0.143 0.78252 0.0
H549 H 0.60379 0.10026 0.70974 0.0
C550 C 0.60711 0.06012 0.86075 0.0
C551 C 0.56438 0.63938 0.86363 0.0
C552 C 0.53686 0.63224 0.90001 0.0
H553 H 0.58643 0.62286 0.78401 0.0
C554 C 0.51231 0.60065 0.89594 0.0
H555 H 0.58376 0.66352 0.86615 0.0
C556 C 0.51385 0.57728 0.849 0.0
C557 C 0.53983 0.58526 0.80475 0.0
H558 H 0.49112 0.59442 0.92507 0.0
H559 H 0.49352 0.55372 0.84211 0.0
C560 C 0.56588 0.61605 0.81642 0.0
C561 C 0.4504 0.08918 0.44562 0.0
C562 C 0.47855 0.11818 0.4418 0.0
H563 H 0.42743 0.04348 0.49119 0.0
C564 C 0.50592 0.12166 0.47883 0.0
H565 H 0.42889 0.08478 0.41636 0.0
C566 C 0.50518 0.09716 0.51798 0.0
C567 C 0.47691 0.06897 0.52389 0.0
H568 H 0.528 0.14357 0.4798 0.0
H569 H 0.52657 0.10087 0.54677 0.0
C570 C 0.44951 0.06514 0.48751 0.0
C571 C 0.37821 0.51779 0.49867 0.0
C572 C 0.35549 0.49037 0.45391 0.0
H573 H 0.42218 0.53999 0.56509 0.0
C574 C 0.35622 0.46209 0.4563 0.0
H575 H 0.37784 0.53975 0.49886 0.0
C576 C 0.38127 0.46222 0.49514 0.0
C577 C 0.40563 0.49047 0.53258 0.0
H578 H 0.33909 0.44065 0.42223 0.0
H579 H 0.38319 0.44107 0.48923 0.0
C580 C 0.40322 0.51783 0.53774 0.0
C581 C 0.91064 0.40326 0.35201 0.0
C582 C 0.90687 0.37279 0.33985 0.0
H583 H 0.93511 0.44875 0.41631 0.0
C584 C 0.92814 0.36642 0.37851 0.0
H585 H 0.8951 0.40921 0.32185 0.0
C586 C 0.95137 0.38923 0.43157 0.0
C587 C 0.95375 0.41891 0.44795 0.0
H588 H 0.92587 0.34319 0.37117 0.0
H589 H 0.96637 0.38287 0.46277 0.0
C590 C 0.93383 0.42609 0.40557 0.0
C591 C 0.56007 0.93393 0.21639 0.0
C592 C 0.5302 0.90782 0.19513 0.0
H593 H 0.58659 0.97816 0.28548 0.0
C594 C 0.50379 0.91009 0.21281 0.0
H595 H 0.58091 0.93346 0.20128 0.0
C596 C 0.5072 0.93638 0.25842 0.0
C597 C 0.53696 0.96036 0.28782 0.0
H598 H 0.48043 0.89048 0.1974 0.0
H599 H 0.48647 0.93623 0.27749 0.0
C600 C 0.56341 0.95978 0.26341 0.0
C601 C 0.64658 0.53757 0.3566 0.0
C602 C 0.63561 0.51042 0.30416 0.0
H603 H 0.63563 0.56203 0.44656 0.0
C604 C 0.60457 0.48574 0.30678 0.0
H605 H 0.67053 0.55677 0.3569 0.0
C606 C 0.58462 0.4887 0.35815 0.0
C607 C 0.59527 0.51629 0.40888 0.0
H608 H 0.59537 0.46453 0.2672 0.0
H609 H 0.56054 0.46968 0.35656 0.0
C610 C 0.6267 0.54039 0.40875 0.0
C611 C 0.08264 0.62629 0.277 0.0
C612 C 0.08971 0.65772 0.29349 0.0
H613 H 0.05387 0.57785 0.30007 0.0
C614 C 0.07017 0.66398 0.33939 0.0
H615 H 0.09723 0.62097 0.2407 0.0
C616 C 0.04544 0.63938 0.37384 0.0
C617 C 0.03967 0.60813 0.36186 0.0
H618 H 0.07517 0.6881 0.35241 0.0
H619 H 0.0319 0.64507 0.41305 0.0
C620 C 0.05763 0.60163 0.31032 0.0
loop_
_geom_bond_atom_site_label_1
_geom_bond_atom_site_label_2
_geom_bond_distance
_geom_bond_site_symmetry_2
_ccdc_geom_bond_type
H0 C19 0.949 . S
H1 C20 0.950 . S
H2 C22 0.950 . S
H3 C23 0.950 . S
H4 C25 0.950 . S
H5 C28 0.950 . S
H6 C29 0.950 . S
H7 C31 0.944 1_556 S
H8 C32 0.949 . S
H9 C34 0.949 . S
H10 C35 0.950 1_556 S
H11 C37 0.950 . S
H12 C38 0.950 . S
H13 C40 0.950 . S
H14 C43 0.950 . S
H15 C44 0.950 . S
H16 C46 0.951 . S
H17 C47 0.949 . S
C18 C19 1.376 . S
C18 C23 1.386 . S
C18 C24 1.483 . S
C19 H0 0.949 . S
C19 C18 1.376 . S
C19 C20 1.397 . S
C20 H1 0.950 . S
C20 C19 1.397 . S
C20 C21 1.391 . S
C21 C20 1.391 . S
C21 C22 1.405 . S
C22 H2 0.950 . S
C22 C21 1.405 . S
C22 C23 1.367 . S
C23 H3 0.950 . S
C23 C18 1.386 . S
C23 C22 1.367 . S
C24 C18 1.483 . S
C24 C25 1.382 . S
C24 C26 1.403 . S
C25 H4 0.950 . S
C25 C24 1.382 . S
C25 C41 1.411 . S
C26 C24 1.403 . S
C26 C27 1.489 . S
C26 C40 1.411 . S
C27 C26 1.489 . S
C27 C28 1.383 . S
C27 C32 1.382 . S
C28 H5 0.950 . S
C28 C27 1.383 . S
C28 C29 1.395 . S
C29 H6 0.950 . S
C29 C28 1.395 . S
C29 C30 1.288 . S
C30 C29 1.288 . S
C30 C31 1.392 . S
C31 H7 0.944 1_554 S
C31 C30 1.392 . S
C31 C32 1.398 . S
C32 H8 0.949 . S
C32 C27 1.382 . S
C32 C31 1.398 . S
C33 C34 1.376 . S
C33 C38 1.386 . S
C33 C39 1.483 . S
C34 H9 0.949 . S
C34 C33 1.376 . S
C34 C35 1.397 . S
C35 H10 0.950 1_554 S
C35 C34 1.397 . S
C35 C36 1.391 1_554 S
C36 C35 1.391 1_556 S
C36 C37 1.405 1_556 S
C37 H11 0.950 . S
C37 C36 1.405 1_554 S
C37 C38 1.367 . S
C38 H12 0.950 . S
C38 C33 1.386 . S
C38 C37 1.367 . S
C39 C33 1.483 . S
C39 C40 1.382 . S
C39 C41 1.403 . S
C40 H13 0.950 . S
C40 C26 1.411 . S
C40 C39 1.382 . S
C41 C25 1.411 . S
C41 C39 1.403 . S
C41 C42 1.489 . S
C42 C41 1.489 . S
C42 C43 1.383 . S
C42 C47 1.382 . S
C43 H14 0.950 . S
C43 C42 1.383 . S
C43 C44 1.395 . S
C44 H15 0.950 . S
C44 C43 1.395 . S
C44 C45 1.288 . S
C45 C44 1.288 . S
C45 C46 1.392 . S
C46 H16 0.951 . S
C46 C45 1.392 . S
C46 C47 1.392 . S
C47 H17 0.949 . S
C47 C42 1.382 . S
C47 C46 1.392 . S
H48 C67 0.949 . S
H49 C68 0.950 . S
H50 C70 0.950 . S
H51 C71 0.950 . S
H52 C73 0.950 . S
H53 C76 0.950 . S
H54 C77 0.950 . S
H55 C79 0.951 . S
H56 C80 0.949 . S
H57 C82 0.949 . S
H58 C83 0.950 . S
H59 C85 0.950 . S
H60 C86 0.950 . S
H61 C88 0.950 . S
H62 C91 0.950 . S
H63 C92 0.950 . S
H64 C94 0.951 . S
H65 C95 0.949 . S
C66 C67 1.376 . S
C66 C71 1.386 . S
C66 C72 1.483 . S
C67 H48 0.949 . S
C67 C66 1.376 . S
C67 C68 1.397 1_554 S
C68 H49 0.950 . S
C68 C67 1.397 1_556 S
C68 C69 1.391 . S
C69 C68 1.391 . S
C69 C70 1.405 1_556 S
C70 H50 0.950 . S
C70 C69 1.405 1_554 S
C70 C71 1.367 . S
C71 H51 0.950 . S
C71 C66 1.386 . S
C71 C70 1.367 . S
C72 C66 1.483 . S
C72 C73 1.382 . S
C72 C74 1.403 . S
C73 H52 0.950 . S
C73 C72 1.382 . S
C73 C89 1.411 . S
C74 C72 1.403 . S
C74 C75 1.489 . S
C74 C88 1.411 . S
C75 C74 1.489 . S
C75 C76 1.383 . S
C75 C80 1.382 . S
C76 H53 0.950 . S
C76 C75 1.383 . S
C76 C77 1.395 . S
C77 H54 0.950 . S
C77 C76 1.395 . S
C77 C78 1.288 . S
C78 C77 1.288 . S
C78 C79 1.392 . S
C79 H55 0.951 . S
C79 C78 1.392 . S
C79 C80 1.392 . S
C80 H56 0.949 . S
C80 C75 1.382 . S
C80 C79 1.392 . S
C81 C82 1.376 . S
C81 C86 1.386 . S
C81 C87 1.483 . S
C82 H57 0.949 . S
C82 C81 1.376 . S
C82 C83 1.397 . S
C83 H58 0.950 . S
C83 C82 1.397 . S
C83 C84 1.391 . S
C84 C83 1.391 . S
C84 C85 1.405 . S
C85 H59 0.950 . S
C85 C84 1.405 . S
C85 C86 1.367 . S
C86 H60 0.950 . S
C86 C81 1.386 . S
C86 C85 1.367 . S
C87 C81 1.483 . S
C87 C88 1.382 . S
C87 C89 1.403 . S
C88 H61 0.950 . S
C88 C74 1.411 . S
C88 C87 1.382 . S
C89 C73 1.411 . S
C89 C87 1.403 . S
C89 C90 1.489 . S
C90 C89 1.489 . S
C90 C91 1.383 . S
C90 C95 1.382 1_554 S
C91 H62 0.950 . S
C91 C90 1.383 . S
C91 C92 1.395 . S
C92 H63 0.950 . S
C92 C91 1.395 . S
C92 C93 1.288 1_554 S
C93 C92 1.288 1_556 S
C93 C94 1.392 . S
C94 H64 0.951 . S
C94 C93 1.392 . S
C94 C95 1.392 . S
C95 H65 0.949 . S
C95 C90 1.382 1_556 S
C95 C94 1.392 . S
H96 C115 0.949 . S
H97 C116 0.950 . S
H98 C118 0.950 . S
H99 C119 0.950 . S
H100 C121 0.950 . S
H101 C124 0.950 . S
H102 C125 0.950 . S
H103 C127 0.951 . S
H104 C128 0.949 . S
H105 C130 0.949 . S
H106 C131 0.950 . S
H107 C133 0.950 . S
H108 C134 0.950 . S
H109 C136 0.950 . S
H110 C139 0.950 . S
H111 C140 0.950 . S
H112 C142 0.951 . S
H113 C143 0.949 . S
C114 C115 1.376 . S
C114 C119 1.386 . S
C114 C120 1.483 . S
C115 H96 0.949 . S
C115 C114 1.376 . S
C115 C116 1.397 . S
C116 H97 0.950 . S
C116 C115 1.397 . S
C116 C117 1.391 . S
C117 C116 1.391 . S
C117 C118 1.405 . S
C118 H98 0.950 . S
C118 C117 1.405 . S
C118 C119 1.367 . S
C119 H99 0.950 . S
C119 C114 1.386 . S
C119 C118 1.367 . S
C120 C114 1.483 . S
C120 C121 1.382 . S
C120 C122 1.403 1_556 S
C121 H100 0.950 . S
C121 C120 1.382 . S
C121 C137 1.411 . S
C122 C120 1.403 1_554 S
C122 C123 1.489 . S
C122 C136 1.411 . S
C123 C122 1.489 . S
C123 C124 1.383 . S
C123 C128 1.382 . S
C124 H101 0.950 . S
C124 C123 1.383 . S
C124 C125 1.395 . S
C125 H102 0.950 . S
C125 C124 1.395 . S
C125 C126 1.288 . S
C126 C125 1.288 . S
C126 C127 1.392 . S
C127 H103 0.951 . S
C127 C126 1.392 . S
C127 C128 1.392 . S
C128 H104 0.949 . S
C128 C123 1.382 . S
C128 C127 1.392 . S
C129 C130 1.376 . S
C129 C134 1.386 . S
C129 C135 1.483 . S
C130 H105 0.949 . S
C130 C129 1.376 . S
C130 C131 1.397 . S
C131 H106 0.950 . S
C131 C130 1.397 . S
C131 C132 1.391 . S
C132 C131 1.391 . S
C132 C133 1.405 . S
C133 H107 0.950 . S
C133 C132 1.405 . S
C133 C134 1.367 . S
C134 H108 0.950 . S
C134 C129 1.386 . S
C134 C133 1.367 . S
C135 C129 1.483 . S
C135 C136 1.382 . S
C135 C137 1.403 1_554 S
C136 H109 0.950 . S
C136 C122 1.411 . S
C136 C135 1.382 . S
C137 C121 1.411 . S
C137 C135 1.403 1_556 S
C137 C138 1.489 . S
C138 C137 1.489 . S
C138 C139 1.383 . S
C138 C143 1.382 . S
C139 H110 0.950 . S
C139 C138 1.383 . S
C139 C140 1.395 . S
C140 H111 0.950 . S
C140 C139 1.395 . S
C140 C141 1.288 . S
C141 C140 1.288 . S
C141 C142 1.392 . S
C142 H112 0.951 . S
C142 C141 1.392 . S
C142 C143 1.392 . S
C143 H113 0.949 . S
C143 C138 1.382 . S
C143 C142 1.392 . S
H144 C163 0.949 . S
H145 C164 0.950 . S
H146 C166 0.950 . S
H147 C167 0.950 . S
H148 C169 0.950 . S
H149 C172 0.950 1_554 S
H150 C173 0.950 . S
H151 C175 0.951 . S
H152 C176 0.949 . S
H153 C178 0.949 . S
H154 C179 0.950 . S
H155 C181 0.950 . S
H156 C182 0.950 1_554 S
H157 C184 0.950 . S
H158 C187 0.950 . S
H159 C188 0.950 . S
H160 C190 0.951 . S
H161 C191 0.949 . S
C162 C163 1.376 . S
C162 C167 1.386 . S
C162 C168 1.483 . S
C163 H144 0.949 . S
C163 C162 1.376 . S
C163 C164 1.397 . S
C164 H145 0.950 . S
C164 C163 1.397 . S
C164 C165 1.391 . S
C165 C164 1.391 . S
C165 C166 1.405 . S
C166 H146 0.950 . S
C166 C165 1.405 . S
C166 C167 1.367 . S
C167 H147 0.950 . S
C167 C162 1.386 . S
C167 C166 1.367 . S
C168 C162 1.483 . S
C168 C169 1.382 . S
C168 C170 1.403 . S
C169 H148 0.950 . S
C169 C168 1.382 . S
C169 C185 1.411 . S
C170 C168 1.403 . S
C170 C171 1.489 1_554 S
C170 C184 1.411 1_554 S
C171 C170 1.489 1_556 S
C171 C172 1.383 . S
C171 C176 1.382 . S
C172 H149 0.950 1_556 S
C172 C171 1.383 . S
C172 C173 1.395 . S
C173 H150 0.950 . S
C173 C172 1.395 . S
C173 C174 1.288 . S
C174 C173 1.288 . S
C174 C175 1.392 . S
C175 H151 0.951 . S
C175 C174 1.392 . S
C175 C176 1.392 . S
C176 H152 0.949 . S
C176 C171 1.382 . S
C176 C175 1.392 . S
C177 C178 1.376 . S
C177 C182 1.386 . S
C177 C183 1.483 1_556 S
C178 H153 0.949 . S
C178 C177 1.376 . S
C178 C179 1.397 . S
C179 H154 0.950 . S
C179 C178 1.397 . S
C179 C180 1.391 . S
C180 C179 1.391 . S
C180 C181 1.405 . S
C181 H155 0.950 . S
C181 C180 1.405 . S
C181 C182 1.367 . S
C182 H156 0.950 1_556 S
C182 C177 1.386 . S
C182 C181 1.367 . S
C183 C177 1.483 1_554 S
C183 C184 1.382 1_554 S
C183 C185 1.403 . S
C184 H157 0.950 . S
C184 C170 1.411 1_556 S
C184 C183 1.382 1_556 S
C185 C169 1.411 . S
C185 C183 1.403 . S
C185 C186 1.489 . S
C186 C185 1.489 . S
C186 C187 1.383 . S
C186 C191 1.382 . S
C187 H158 0.950 . S
C187 C186 1.383 . S
C187 C188 1.395 . S
C188 H159 0.950 . S
C188 C187 1.395 . S
C188 C189 1.288 . S
C189 C188 1.288 . S
C189 C190 1.392 . S
C190 H160 0.951 . S
C190 C189 1.392 . S
C190 C191 1.392 . S
C191 H161 0.949 . S
C191 C186 1.382 . S
C191 C190 1.392 . S
H192 C211 0.949 . S
H193 C212 0.950 . S
H194 C214 0.950 . S
H195 C215 0.950 . S
H196 C217 0.950 1_556 S
H197 C220 0.950 . S
H198 C221 0.950 . S
H199 C223 0.951 . S
H200 C224 0.949 . S
H201 C226 0.949 . S
H202 C227 0.950 . S
H203 C229 0.950 . S
H204 C230 0.950 . S
H205 C232 0.950 . S
H206 C235 0.950 . S
H207 C236 0.950 . S
H208 C238 0.951 . S
H209 C239 0.949 . S
C210 C211 1.376 1_554 S
C210 C215 1.386 . S
C210 C216 1.483 . S
C211 H192 0.949 . S
C211 C210 1.376 1_556 S
C211 C212 1.397 . S
C212 H193 0.950 . S
C212 C211 1.397 . S
C212 C213 1.391 . S
C213 C212 1.391 . S
C213 C214 1.405 . S
C214 H194 0.950 . S
C214 C213 1.405 . S
C214 C215 1.367 1_556 S
C215 H195 0.950 . S
C215 C210 1.386 . S
C215 C214 1.367 1_554 S
C216 C210 1.483 . S
C216 C217 1.382 . S
C216 C218 1.403 . S
C217 H196 0.950 1_554 S
C217 C216 1.382 . S
C217 C233 1.411 . S
C218 C216 1.403 . S
C218 C219 1.489 . S
C218 C232 1.411 . S
C219 C218 1.489 . S
C219 C220 1.383 . S
C219 C224 1.382 . S
C220 H197 0.950 . S
C220 C219 1.383 . S
C220 C221 1.395 . S
C221 H198 0.950 . S
C221 C220 1.395 . S
C221 C222 1.288 . S
C222 C221 1.288 . S
C222 C223 1.392 . S
C223 H199 0.951 . S
C223 C222 1.392 . S
C223 C224 1.392 . S
C224 H200 0.949 . S
C224 C219 1.382 . S
C224 C223 1.392 . S
C225 C226 1.376 . S
C225 C230 1.386 . S
C225 C231 1.483 . S
C226 H201 0.949 . S
C226 C225 1.376 . S
C226 C227 1.397 . S
C227 H202 0.950 . S
C227 C226 1.397 . S
C227 C228 1.391 . S
C228 C227 1.391 . S
C228 C229 1.405 . S
C229 H203 0.950 . S
C229 C228 1.405 . S
C229 C230 1.367 . S
C230 H204 0.950 . S
C230 C225 1.386 . S
C230 C229 1.367 . S
C231 C225 1.483 . S
C231 C232 1.382 . S
C231 C233 1.403 . S
C232 H205 0.950 . S
C232 C218 1.411 . S
C232 C231 1.382 . S
C233 C217 1.411 . S
C233 C231 1.403 . S
C233 C234 1.489 . S
C234 C233 1.489 . S
C234 C235 1.383 . S
C234 C239 1.382 1_554 S
C235 H206 0.950 . S
C235 C234 1.383 . S
C235 C236 1.395 1_554 S
C236 H207 0.950 . S
C236 C235 1.395 1_556 S
C236 C237 1.288 . S
C237 C236 1.288 . S
C237 C238 1.392 . S
C238 H208 0.951 . S
C238 C237 1.392 . S
C238 C239 1.392 . S
C239 H209 0.949 . S
C239 C234 1.382 1_556 S
C239 C238 1.392 . S
H240 C259 0.949 . S
H241 C260 0.950 . S
H242 C262 0.950 . S
H243 C263 0.950 . S
H244 C265 0.950 . S
H245 C268 0.950 . S
H246 C269 0.950 . S
H247 C271 0.951 . S
H248 C272 0.949 . S
H249 C274 0.949 . S
H250 C275 0.950 . S
H251 C277 0.950 . S
H252 C278 0.950 . S
H253 C280 0.950 . S
H254 C283 0.950 . S
H255 C284 0.950 . S
H256 C286 0.951 . S
H257 C287 0.949 . S
C258 C259 1.376 . S
C258 C263 1.386 . S
C258 C264 1.483 . S
C259 H240 0.949 . S
C259 C258 1.376 . S
C259 C260 1.397 . S
C260 H241 0.950 . S
C260 C259 1.397 . S
C260 C261 1.391 . S
C261 C260 1.391 . S
C261 C262 1.405 . S
C262 H242 0.950 . S
C262 C261 1.405 . S
C262 C263 1.367 . S
C263 H243 0.950 . S
C263 C258 1.386 . S
C263 C262 1.367 . S
C264 C258 1.483 . S
C264 C265 1.382 . S
C264 C266 1.403 . S
C265 H244 0.950 . S
C265 C264 1.382 . S
C265 C281 1.411 . S
C266 C264 1.403 . S
C266 C267 1.489 . S
C266 C280 1.411 . S
C267 C266 1.489 . S
C267 C268 1.383 . S
C267 C272 1.382 . S
C268 H245 0.950 . S
C268 C267 1.383 . S
C268 C269 1.395 . S
C269 H246 0.950 . S
C269 C268 1.395 . S
C269 C270 1.288 . S
C270 C269 1.288 . S
C270 C271 1.392 . S
C271 H247 0.951 . S
C271 C270 1.392 . S
C271 C272 1.392 . S
C272 H248 0.949 . S
C272 C267 1.382 . S
C272 C271 1.392 . S
C273 C274 1.376 . S
C273 C278 1.386 . S
C273 C279 1.483 . S
C274 H249 0.949 . S
C274 C273 1.376 . S
C274 C275 1.397 . S
C275 H250 0.950 . S
C275 C274 1.397 . S
C275 C276 1.391 . S
C276 C275 1.391 . S
C276 C277 1.405 . S
C277 H251 0.950 . S
C277 C276 1.405 . S
C277 C278 1.367 . S
C278 H252 0.950 . S
C278 C273 1.386 . S
C278 C277 1.367 . S
C279 C273 1.483 . S
C279 C280 1.382 . S
C279 C281 1.403 . S
C280 H253 0.950 . S
C280 C266 1.411 . S
C280 C279 1.382 . S
C281 C265 1.411 . S
C281 C279 1.403 . S
C281 C282 1.489 . S
C282 C281 1.489 . S
C282 C283 1.383 . S
C282 C287 1.382 . S
C283 H254 0.950 . S
C283 C282 1.383 . S
C283 C284 1.395 . S
C284 H255 0.950 . S
C284 C283 1.395 . S
C284 C285 1.288 . S
C285 C284 1.288 . S
C285 C286 1.392 . S
C286 H256 0.951 . S
C286 C285 1.392 . S
C286 C287 1.392 . S
C287 H257 0.949 . S
C287 C282 1.382 . S
C287 C286 1.392 . S
C288 O300 1.241 . S
C288 O301 1.280 . S
C289 O302 1.277 . S
C289 O303 1.245 . S
C290 O314 1.247 . S
C290 O316 1.289 . S
Mg291 O292 1.926 . S
Mg291 O301 1.984 . S
Mg291 O303 1.988 1_655 S
Mg291 O304 2.061 . S
O292 Mg291 1.926 . S
O292 Mg293 1.986 1_655 S
O292 Mg294 1.917 1_655 S
Mg293 O292 1.986 1_455 S
Mg293 O300 2.042 1_455 S
Mg293 O302 2.041 . S
Mg293 O308 2.038 1_455 S
Mg293 O316 2.238 . S
Mg294 O292 1.917 1_455 S
Mg294 O295 1.917 . S
Mg294 O305 2.106 1_455 S
Mg294 O307 2.079 1_455 S
Mg294 O316 2.106 . S
Mg294 O317 2.079 . S
O295 Mg294 1.917 . S
O295 Mg296 1.926 . S
O295 Mg297 1.986 . S
Mg296 O295 1.926 . S
Mg296 O310 1.984 . S
Mg296 O313 1.988 1_455 S
Mg296 O314 2.061 . S
Mg297 O295 1.986 . S
Mg297 O305 2.238 1_455 S
Mg297 O309 2.042 . S
Mg297 O311 2.041 1_455 S
Mg297 O318 2.038 . S
C298 O304 1.247 . S
C298 O305 1.289 . S
C299 O317 1.245 . S
C299 O318 1.274 . S
O300 C288 1.241 . S
O300 Mg293 2.042 1_655 S
O301 C288 1.280 . S
O301 Mg291 1.984 . S
O302 C289 1.277 . S
O302 Mg293 2.041 . S
O303 C289 1.245 . S
O303 Mg291 1.988 1_455 S
O304 Mg291 2.061 . S
O304 C298 1.247 . S
O305 Mg294 2.106 1_655 S
O305 Mg297 2.238 1_655 S
O305 C298 1.289 . S
C306 O307 1.245 . S
C306 O308 1.274 . S
O307 Mg294 2.079 1_655 S
O307 C306 1.245 . S
O308 Mg293 2.038 1_655 S
O308 C306 1.274 . S
O309 Mg297 2.042 . S
O309 C312 1.241 . S
O310 Mg296 1.984 . S
O310 C312 1.280 . S
O311 Mg297 2.041 1_655 S
O311 C315 1.277 . S
C312 O309 1.241 . S
C312 O310 1.280 . S
O313 Mg296 1.988 1_655 S
O313 C315 1.245 . S
O314 C290 1.247 . S
O314 Mg296 2.061 . S
C315 O311 1.277 . S
C315 O313 1.245 . S
O316 C290 1.289 . S
O316 Mg293 2.238 . S
O316 Mg294 2.106 . S
O317 Mg294 2.079 . S
O317 C299 1.245 . S
O318 Mg297 2.038 . S
O318 C299 1.274 . S
C319 O331 1.241 . S
C319 O332 1.280 . S
C320 O333 1.277 . S
C320 O334 1.245 . S
C321 O345 1.247 . S
C321 O347 1.289 . S
Mg322 O323 1.926 . S
Mg322 O332 1.984 . S
Mg322 O334 1.988 1_545 S
Mg322 O335 2.061 . S
O323 Mg322 1.926 . S
O323 Mg324 1.986 . S
O323 Mg325 1.917 . S
Mg324 O323 1.986 . S
Mg324 O331 2.042 . S
Mg324 O333 2.041 1_545 S
Mg324 O339 2.038 . S
Mg324 O347 2.238 1_545 S
Mg325 O323 1.917 . S
Mg325 O326 1.917 1_545 S
Mg325 O336 2.106 . S
Mg325 O338 2.079 . S
Mg325 O347 2.106 1_545 S
Mg325 O348 2.079 1_545 S
O326 Mg325 1.917 1_565 S
O326 Mg327 1.926 . S
O326 Mg328 1.986 1_565 S
Mg327 O326 1.926 . S
Mg327 O341 1.984 . S
Mg327 O344 1.988 1_565 S
Mg327 O345 2.061 . S
Mg328 O326 1.986 1_545 S
Mg328 O336 2.238 . S
Mg328 O340 2.042 1_545 S
Mg328 O342 2.041 . S
Mg328 O349 2.038 1_545 S
C329 O335 1.247 . S
C329 O336 1.289 . S
C330 O348 1.245 . S
C330 O349 1.274 . S
O331 C319 1.241 . S
O331 Mg324 2.042 . S
O332 C319 1.280 . S
O332 Mg322 1.984 . S
O333 C320 1.277 . S
O333 Mg324 2.041 1_565 S
O334 C320 1.245 . S
O334 Mg322 1.988 1_565 S
O335 Mg322 2.061 . S
O335 C329 1.247 . S
O336 Mg325 2.106 . S
O336 Mg328 2.238 . S
O336 C329 1.289 . S
C337 O338 1.245 . S
C337 O339 1.274 . S
O338 Mg325 2.079 . S
O338 C337 1.245 . S
O339 Mg324 2.038 . S
O339 C337 1.274 . S
O340 Mg328 2.042 1_565 S
O340 C343 1.241 . S
O341 Mg327 1.984 . S
O341 C343 1.280 . S
O342 Mg328 2.041 . S
O342 C346 1.277 . S
C343 O340 1.241 . S
C343 O341 1.280 . S
O344 Mg327 1.988 1_545 S
O344 C346 1.245 . S
O345 C321 1.247 . S
O345 Mg327 2.061 . S
C346 O342 1.277 . S
C346 O344 1.245 . S
O347 C321 1.289 . S
O347 Mg324 2.238 1_565 S
O347 Mg325 2.106 1_565 S
O348 Mg325 2.079 1_565 S
O348 C330 1.245 . S
O349 Mg328 2.038 1_565 S
O349 C330 1.274 . S
C350 O362 1.241 . S
C350 O363 1.280 . S
C351 O364 1.277 . S
C351 O365 1.245 . S
C352 O376 1.247 . S
C352 O378 1.289 . S
Mg353 O354 1.926 . S
Mg353 O363 1.984 . S
Mg353 O365 1.988 . S
Mg353 O366 2.061 . S
O354 Mg353 1.926 . S
O354 Mg355 1.986 . S
O354 Mg356 1.917 . S
Mg355 O354 1.986 . S
Mg355 O362 2.042 . S
Mg355 O364 2.041 . S
Mg355 O370 2.038 . S
Mg355 O378 2.238 . S
Mg356 O354 1.917 . S
Mg356 O357 1.917 . S
Mg356 O367 2.106 . S
Mg356 O369 2.079 . S
Mg356 O378 2.106 . S
Mg356 O379 2.079 . S
O357 Mg356 1.917 . S
O357 Mg358 1.926 . S
O357 Mg359 1.986 . S
Mg358 O357 1.926 . S
Mg358 O372 1.984 . S
Mg358 O375 1.988 . S
Mg358 O376 2.061 . S
Mg359 O357 1.986 . S
Mg359 O367 2.238 . S
Mg359 O371 2.042 . S
Mg359 O373 2.041 . S
Mg359 O380 2.038 . S
C360 O366 1.247 . S
C360 O367 1.289 . S
C361 O379 1.245 . S
C361 O380 1.274 . S
O362 C350 1.241 . S
O362 Mg355 2.042 . S
O363 C350 1.280 . S
O363 Mg353 1.984 . S
O364 C351 1.277 . S
O364 Mg355 2.041 . S
O365 C351 1.245 . S
O365 Mg353 1.988 . S
O366 Mg353 2.061 . S
O366 C360 1.247 . S
O367 Mg356 2.106 . S
O367 Mg359 2.238 . S
O367 C360 1.289 . S
C368 O369 1.245 . S
C368 O370 1.274 . S
O369 Mg356 2.079 . S
O369 C368 1.245 . S
O370 Mg355 2.038 . S
O370 C368 1.274 . S
O371 Mg359 2.042 . S
O371 C374 1.241 . S
O372 Mg358 1.984 . S
O372 C374 1.280 . S
O373 Mg359 2.041 . S
O373 C377 1.277 . S
C374 O371 1.241 . S
C374 O372 1.280 . S
O375 Mg358 1.988 . S
O375 C377 1.245 . S
O376 C352 1.247 . S
O376 Mg358 2.061 . S
C377 O373 1.277 . S
C377 O375 1.245 . S
O378 C352 1.289 . S
O378 Mg355 2.238 . S
O378 Mg356 2.106 . S
O379 Mg356 2.079 . S
O379 C361 1.245 . S
O380 Mg359 2.038 . S
O380 C361 1.274 . S
C381 C382 1.387 . S
C381 H385 0.950 . S
C381 C390 1.390 . S
C382 C381 1.387 . S
C382 C384 1.387 . S
H383 C390 0.950 . S
C384 C382 1.387 . S
C384 C386 1.390 . S
C384 H388 0.950 . S
H385 C381 0.950 . S
C386 C384 1.390 . S
C386 C387 1.387 . S
C386 H389 0.950 . S
C387 C386 1.387 . S
C387 C390 1.387 . S
H388 C384 0.950 . S
H389 C386 0.950 . S
C390 C381 1.390 . S
C390 H383 0.950 . S
C390 C387 1.387 . S
C391 C392 1.387 . S
C391 H395 0.950 . S
C391 C400 1.390 . S
C392 C391 1.387 . S
C392 C394 1.387 . S
H393 C400 0.950 . S
C394 C392 1.387 . S
C394 C396 1.390 . S
C394 H398 0.950 . S
H395 C391 0.950 . S
C396 C394 1.390 . S
C396 C397 1.387 . S
C396 H399 0.950 . S
C397 C396 1.387 . S
C397 C400 1.387 . S
H398 C394 0.950 . S
H399 C396 0.950 . S
C400 C391 1.390 . S
C400 H393 0.950 . S
C400 C397 1.387 . S
C401 C402 1.387 . S
C401 H405 0.950 . S
C401 C410 1.390 . S
C402 C401 1.387 . S
C402 C404 1.387 . S
H403 C410 0.950 . S
C404 C402 1.387 . S
C404 C406 1.390 . S
C404 H408 0.950 . S
H405 C401 0.950 . S
C406 C404 1.390 . S
C406 C407 1.387 . S
C406 H409 0.950 . S
C407 C406 1.387 . S
C407 C410 1.387 . S
H408 C404 0.950 . S
H409 C406 0.950 . S
C410 C401 1.390 . S
C410 H403 0.950 . S
C410 C407 1.387 . S
C411 C412 1.387 . S
C411 H415 0.950 . S
C411 C420 1.390 . S
C412 C411 1.387 . S
C412 C414 1.387 . S
H413 C420 0.950 . S
C414 C412 1.387 . S
C414 C416 1.390 . S
C414 H418 0.950 . S
H415 C411 0.950 . S
C416 C414 1.390 . S
C416 C417 1.387 . S
C416 H419 0.950 . S
C417 C416 1.387 . S
C417 C420 1.387 . S
H418 C414 0.950 . S
H419 C416 0.950 . S
C420 C411 1.390 . S
C420 H413 0.950 . S
C420 C417 1.387 . S
C421 C422 1.387 . S
C421 H425 0.950 . S
C421 C430 1.390 . S
C422 C421 1.387 . S
C422 C424 1.387 . S
H423 C430 0.950 . S
C424 C422 1.387 . S
C424 C426 1.390 . S
C424 H428 0.950 . S
H425 C421 0.950 . S
C426 C424 1.390 . S
C426 C427 1.387 . S
C426 H429 0.950 . S
C427 C426 1.387 . S
C427 C430 1.387 . S
H428 C424 0.950 . S
H429 C426 0.950 . S
C430 C421 1.390 . S
C430 H423 0.950 . S
C430 C427 1.387 . S
C431 C432 1.387 . S
C431 H435 0.950 . S
C431 C440 1.390 . S
C432 C431 1.387 . S
C432 C434 1.387 . S
H433 C440 0.950 . S
C434 C432 1.387 . S
C434 C436 1.390 . S
C434 H438 0.950 . S
H435 C431 0.950 . S
C436 C434 1.390 . S
C436 C437 1.387 . S
C436 H439 0.950 . S
C437 C436 1.387 . S
C437 C440 1.387 . S
H438 C434 0.950 . S
H439 C436 0.950 . S
C440 C431 1.390 . S
C440 H433 0.950 . S
C440 C437 1.387 . S
C441 C442 1.387 . S
C441 H445 0.950 . S
C441 C450 1.390 . S
C442 C441 1.387 . S
C442 C444 1.387 . S
H443 C450 0.950 . S
C444 C442 1.387 . S
C444 C446 1.390 . S
C444 H448 0.950 . S
H445 C441 0.950 . S
C446 C444 1.390 . S
C446 C447 1.387 . S
C446 H449 0.950 . S
C447 C446 1.387 . S
C447 C450 1.387 . S
H448 C444 0.950 . S
H449 C446 0.950 . S
C450 C441 1.390 . S
C450 H443 0.950 . S
C450 C447 1.387 . S
C451 C452 1.387 . S
C451 H455 0.950 . S
C451 C460 1.390 . S
C452 C451 1.387 . S
C452 C454 1.387 . S
H453 C460 0.950 . S
C454 C452 1.387 . S
C454 C456 1.390 . S
C454 H458 0.950 . S
H455 C451 0.950 . S
C456 C454 1.390 . S
C456 C457 1.387 . S
C456 H459 0.950 . S
C457 C456 1.387 . S
C457 C460 1.387 . S
H458 C454 0.950 . S
H459 C456 0.950 . S
C460 C451 1.390 . S
C460 H453 0.950 . S
C460 C457 1.387 . S
C461 C462 1.387 . S
C461 H465 0.950 . S
C461 C470 1.390 . S
C462 C461 1.387 . S
C462 C464 1.387 . S
H463 C470 0.950 . S
C464 C462 1.387 . S
C464 C466 1.390 . S
C464 H468 0.950 . S
H465 C461 0.950 . S
C466 C464 1.390 . S
C466 C467 1.387 . S
C466 H469 0.950 . S
C467 C466 1.387 . S
C467 C470 1.387 . S
H468 C464 0.950 . S
H469 C466 0.950 . S
C470 C461 1.390 . S
C470 H463 0.950 . S
C470 C467 1.387 . S
C471 C472 1.387 . S
C471 H475 0.950 . S
C471 C480 1.390 . S
C472 C471 1.387 . S
C472 C474 1.387 1_556 S
H473 C480 0.950 . S
C474 C472 1.387 1_554 S
C474 C476 1.390 1_554 S
C474 H478 0.950 . S
H475 C471 0.950 . S
C476 C474 1.390 1_556 S
C476 C477 1.387 . S
C476 H479 0.950 . S
C477 C476 1.387 . S
C477 C480 1.387 . S
H478 C474 0.950 . S
H479 C476 0.950 . S
C480 C471 1.390 . S
C480 H473 0.950 . S
C480 C477 1.387 . S
C481 C482 1.387 . S
C481 H485 0.950 . S
C481 C490 1.390 . S
C482 C481 1.387 . S
C482 C484 1.387 . S
H483 C490 0.950 . S
C484 C482 1.387 . S
C484 C486 1.390 . S
C484 H488 0.950 . S
H485 C481 0.950 . S
C486 C484 1.390 . S
C486 C487 1.387 . S
C486 H489 0.950 . S
C487 C486 1.387 . S
C487 C490 1.387 . S
H488 C484 0.950 . S
H489 C486 0.950 . S
C490 C481 1.390 . S
C490 H483 0.950 . S
C490 C487 1.387 . S
C491 C492 1.387 . S
C491 H495 0.950 1_556 S
C491 C500 1.390 . S
C492 C491 1.387 . S
C492 C494 1.387 . S
H493 C500 0.950 . S
C494 C492 1.387 . S
C494 C496 1.390 . S
C494 H498 0.950 . S
H495 C491 0.950 1_554 S
C496 C494 1.390 . S
C496 C497 1.387 . S
C496 H499 0.950 . S
C497 C496 1.387 . S
C497 C500 1.387 . S
H498 C494 0.950 . S
H499 C496 0.950 . S
C500 C491 1.390 . S
C500 H493 0.950 . S
C500 C497 1.387 . S
C501 C502 1.387 . S
C501 H505 0.950 . S
C501 C510 1.390 . S
C502 C501 1.387 . S
C502 C504 1.387 . S
H503 C510 0.950 . S
C504 C502 1.387 . S
C504 C506 1.390 . S
C504 H508 0.950 . S
H505 C501 0.950 . S
C506 C504 1.390 . S
C506 C507 1.387 . S
C506 H509 0.950 . S
C507 C506 1.387 . S
C507 C510 1.387 . S
H508 C504 0.950 . S
H509 C506 0.950 . S
C510 C501 1.390 . S
C510 H503 0.950 . S
C510 C507 1.387 . S
C511 C512 1.387 . S
C511 H515 0.950 . S
C511 C520 1.390 . S
C512 C511 1.387 . S
C512 C514 1.387 . S
H513 C520 0.950 . S
C514 C512 1.387 . S
C514 C516 1.390 . S
C514 H518 0.950 . S
H515 C511 0.950 . S
C516 C514 1.390 . S
C516 C517 1.387 . S
C516 H519 0.950 . S
C517 C516 1.387 . S
C517 C520 1.387 . S
H518 C514 0.950 . S
H519 C516 0.950 . S
C520 C511 1.390 . S
C520 H513 0.950 . S
C520 C517 1.387 . S
C521 C522 1.387 . S
C521 H525 0.950 . S
C521 C530 1.390 . S
C522 C521 1.387 . S
C522 C524 1.387 . S
H523 C530 0.950 . S
C524 C522 1.387 . S
C524 C526 1.390 . S
C524 H528 0.950 . S
H525 C521 0.950 . S
C526 C524 1.390 . S
C526 C527 1.387 . S
C526 H529 0.950 . S
C527 C526 1.387 . S
C527 C530 1.387 . S
H528 C524 0.950 . S
H529 C526 0.950 . S
C530 C521 1.390 . S
C530 H523 0.950 . S
C530 C527 1.387 . S
C531 C532 1.387 . S
C531 H535 0.950 . S
C531 C540 1.390 . S
C532 C531 1.387 . S
C532 C534 1.387 . S
H533 C540 0.950 . S
C534 C532 1.387 . S
C534 C536 1.390 . S
C534 H538 0.950 . S
H535 C531 0.950 . S
C536 C534 1.390 . S
C536 C537 1.387 . S
C536 H539 0.950 . S
C537 C536 1.387 . S
C537 C540 1.387 . S
H538 C534 0.950 . S
H539 C536 0.950 . S
C540 C531 1.390 . S
C540 H533 0.950 . S
C540 C537 1.387 . S
C541 C542 1.387 . S
C541 H545 0.950 . S
C541 C550 1.390 . S
C542 C541 1.387 . S
C542 C544 1.387 . S
H543 C550 0.950 . S
C544 C542 1.387 . S
C544 C546 1.390 . S
C544 H548 0.950 . S
H545 C541 0.950 . S
C546 C544 1.390 . S
C546 C547 1.387 . S
C546 H549 0.950 . S
C547 C546 1.387 . S
C547 C550 1.387 . S
H548 C544 0.950 . S
H549 C546 0.950 . S
C550 C541 1.390 . S
C550 H543 0.950 . S
C550 C547 1.387 . S
C551 C552 1.387 . S
C551 H555 0.950 . S
C551 C560 1.390 . S
C552 C551 1.387 . S
C552 C554 1.387 . S
H553 C560 0.950 . S
C554 C552 1.387 . S
C554 C556 1.390 . S
C554 H558 0.950 . S
H555 C551 0.950 . S
C556 C554 1.390 . S
C556 C557 1.387 . S
C556 H559 0.950 . S
C557 C556 1.387 . S
C557 C560 1.387 . S
H558 C554 0.950 . S
H559 C556 0.950 . S
C560 C551 1.390 . S
C560 H553 0.950 . S
C560 C557 1.387 . S
C561 C562 1.387 . S
C561 H565 0.950 . S
C561 C570 1.390 . S
C562 C561 1.387 . S
C562 C564 1.387 . S
H563 C570 0.950 . S
C564 C562 1.387 . S
C564 C566 1.390 . S
C564 H568 0.950 . S
H565 C561 0.950 . S
C566 C564 1.390 . S
C566 C567 1.387 . S
C566 H569 0.950 . S
C567 C566 1.387 . S
C567 C570 1.387 . S
H568 C564 0.950 . S
H569 C566 0.950 . S
C570 C561 1.390 . S
C570 H563 0.950 . S
C570 C567 1.387 . S
C571 C572 1.387 . S
C571 H575 0.950 . S
C571 C580 1.390 . S
C572 C571 1.387 . S
C572 C574 1.387 . S
H573 C580 0.950 . S
C574 C572 1.387 . S
C574 C576 1.390 . S
C574 H578 0.950 . S
H575 C571 0.950 . S
C576 C574 1.390 . S
C576 C577 1.387 . S
C576 H579 0.950 . S
C577 C576 1.387 . S
C577 C580 1.387 . S
H578 C574 0.950 . S
H579 C576 0.950 . S
C580 C571 1.390 . S
C580 H573 0.950 . S
C580 C577 1.387 . S
C581 C582 1.387 . S
C581 H585 0.950 . S
C581 C590 1.390 . S
C582 C581 1.387 . S
C582 C584 1.387 . S
H583 C590 0.950 . S
C584 C582 1.387 . S
C584 C586 1.390 . S
C584 H588 0.950 . S
H585 C581 0.950 . S
C586 C584 1.390 . S
C586 C587 1.387 . S
C586 H589 0.950 . S
C587 C586 1.387 . S
C587 C590 1.387 . S
H588 C584 0.950 . S
H589 C586 0.950 . S
C590 C581 1.390 . S
C590 H583 0.950 . S
C590 C587 1.387 . S
C591 C592 1.387 . S
C591 H595 0.950 . S
C591 C600 1.390 . S
C592 C591 1.387 . S
C592 C594 1.387 . S
H593 C600 0.950 . S
C594 C592 1.387 . S
C594 C596 1.390 . S
C594 H598 0.950 . S
H595 C591 0.950 . S
C596 C594 1.390 . S
C596 C597 1.387 . S
C596 H599 0.950 . S
C597 C596 1.387 . S
C597 C600 1.387 . S
H598 C594 0.950 . S
H599 C596 0.950 . S
C600 C591 1.390 . S
C600 H593 0.950 . S
C600 C597 1.387 . S
C601 C602 1.387 . S
C601 H605 0.950 . S
C601 C610 1.390 . S
C602 C601 1.387 . S
C602 C604 1.387 . S
H603 C610 0.950 . S
C604 C602 1.387 . S
C604 C606 1.390 . S
C604 H608 0.950 . S
H605 C601 0.950 . S
C606 C604 1.390 . S
C606 C607 1.387 . S
C606 H609 0.950 . S
C607 C606 1.387 . S
C607 C610 1.387 . S
H608 C604 0.950 . S
H609 C606 0.950 . S
C610 C601 1.390 . S
C610 H603 0.950 . S
C610 C607 1.387 . S
C611 C612 1.387 . S
C611 H615 0.950 . S
C611 C620 1.390 . S
C612 C611 1.387 . S
C612 C614 1.387 . S
H613 C620 0.950 . S
C614 C612 1.387 . S
C614 C616 1.390 . S
C614 H618 0.950 . S
H615 C611 0.950 . S
C616 C614 1.390 . S
C616 C617 1.387 . S
C616 H619 0.950 . S
C617 C616 1.387 . S
C617 C620 1.387 . S
H618 C614 0.950 . S
H619 C616 0.950 . S
C620 C611 1.390 . S
C620 H613 0.950 . S
C620 C617 1.387 . S
C382 C45 1.942 . S
C387 C299 1.850 . S
C392 C84 1.625 . S
C397 C346 1.585 . S
C407 C350 1.739 . S
C402 C126 1.786 . S
C417 C315 1.500 . S
C412 C165 1.545 . S
C422 C222 1.805 . S
C427 C330 1.764 . S
C437 C352 1.173 . S
C432 C276 1.233 . S
C447 C321 1.521 . S
C442 C141 1.627 . S
C452 C180 1.537 . S
C457 C361 1.490 . S
C467 C290 1.423 . S
C462 C237 1.537 . S
C472 C261 1.473 1_556 S
C477 C319 1.421 . S
C482 C30 1.864 1_556 S
C487 C377 1.828 . S
C497 C288 1.506 . S
C492 C69 1.554 . S
C507 C306 1.852 . S
C502 C174 1.943 . S
C517 C320 1.587 . S
C512 C213 1.625 . S
C527 C374 1.740 . S
C522 C285 1.786 1_556 S
C537 C289 1.500 . S
C532 C36 1.545 . S
C547 C337 1.766 . S
C542 C93 1.807 . S
C552 C117 1.231 . S
C557 C360 1.169 . S
C567 C329 1.524 . S
C562 C270 1.628 . S
C577 C368 1.494 . S
C572 C21 1.538 . S
C587 C298 1.425 . S
C582 C78 1.538 . S
C597 C343 1.421 . S
C592 C132 1.473 . S
C602 C189 1.863 . S
C607 C351 1.826 . S
C612 C228 1.556 . S
C617 C312 1.510 . S
