# Generated by pormake.
# Topology pyr, (3,6)-cn, num edge types: 1
# Building blocks:
#     Node 0, Type 0, BuildingBlock: PAMTOO_clean_linker_0, # of connection points: 3
#     Node 1, Type 0, BuildingBlock: PAMTOO_clean_linker_0, # of connection points: 3
#     Node 2, Type 0, BuildingBlock: PAMTOO_clean_linker_0, # of connection points: 3
#     Node 3, Type 0, BuildingBlock: PAMTOO_clean_linker_0, # of connection points: 3
#     Node 4, Type 0, BuildingBlock: PAMTOO_clean_linker_0, # of connection points: 3
#     Node 5, Type 0, BuildingBlock: PAMTOO_clean_linker_0, # of connection points: 3
#     Node 6, Type 0, BuildingBlock: PAMTOO_clean_linker_0, # of connection points: 3
#     Node 7, Type 0, BuildingBlock: PAMTOO_clean_linker_0, # of connection points: 3
#     Node 8, Type 1, BuildingBlock: BETFAJ_clean_sbu_0, # of connection points: 6
#     Node 9, Type 1, BuildingBlock: BETFAJ_clean_sbu_0, # of connection points: 6
#     Node 10, Type 1, BuildingBlock: BETFAJ_clean_sbu_0, # of connection points: 6
#     Node 11, Type 1, BuildingBlock: BETFAJ_clean_sbu_0, # of connection points: 6
#     Edge 12, Type (0, 1), BuildingBlock: UVAHIK_clean_linker_0, # of connection points: 2
#     Edge 13, Type (0, 1), BuildingBlock: UVAHIK_clean_linker_0, # of connection points: 2
#     Edge 14, Type (0, 1), BuildingBlock: UVAHIK_clean_linker_0, # of connection points: 2
#     Edge 15, Type (0, 1), BuildingBlock: UVAHIK_clean_linker_0, # of connection points: 2
#     Edge 16, Type (0, 1), BuildingBlock: UVAHIK_clean_linker_0, # of connection points: 2
#     Edge 17, Type (0, 1), BuildingBlock: UVAHIK_clean_linker_0, # of connection points: 2
#     Edge 18, Type (0, 1), BuildingBlock: UVAHIK_clean_linker_0, # of connection points: 2
#     Edge 19, Type (0, 1), BuildingBlock: UVAHIK_clean_linker_0, # of connection points: 2
#     Edge 20, Type (0, 1), BuildingBlock: UVAHIK_clean_linker_0, # of connection points: 2
#     Edge 21, Type (0, 1), BuildingBlock: UVAHIK_clean_linker_0, # of connection points: 2
#     Edge 22, Type (0, 1), BuildingBlock: UVAHIK_clean_linker_0, # of connection points: 2
#     Edge 23, Type (0, 1), BuildingBlock: UVAHIK_clean_linker_0, # of connection points: 2
#     Edge 24, Type (0, 1), BuildingBlock: UVAHIK_clean_linker_0, # of connection points: 2
#     Edge 25, Type (0, 1), BuildingBlock: UVAHIK_clean_linker_0, # of connection points: 2
#     Edge 26, Type (0, 1), BuildingBlock: UVAHIK_clean_linker_0, # of connection points: 2
#     Edge 27, Type (0, 1), BuildingBlock: UVAHIK_clean_linker_0, # of connection points: 2
#     Edge 28, Type (0, 1), BuildingBlock: UVAHIK_clean_linker_0, # of connection points: 2
#     Edge 29, Type (0, 1), BuildingBlock: UVAHIK_clean_linker_0, # of connection points: 2
#     Edge 30, Type (0, 1), BuildingBlock: UVAHIK_clean_linker_0, # of connection points: 2
#     Edge 31, Type (0, 1), BuildingBlock: UVAHIK_clean_linker_0, # of connection points: 2
#     Edge 32, Type (0, 1), BuildingBlock: UVAHIK_clean_linker_0, # of connection points: 2
#     Edge 33, Type (0, 1), BuildingBlock: UVAHIK_clean_linker_0, # of connection points: 2
#     Edge 34, Type (0, 1), BuildingBlock: UVAHIK_clean_linker_0, # of connection points: 2
#     Edge 35, Type (0, 1), BuildingBlock: UVAHIK_clean_linker_0, # of connection points: 2
# Relax obj value: 0.137
# Max RMSD: 0.215
# Mean RMSD: 0.147
data_MOF--net-pyr--node1-BETFAJ_clean_sbu_0--node2-PAMTOO_clean_linker_0--edge1-UVAHIK_clean_linker_0
_symmetry_space_group_name_H-M    P1
_symmetry_Int_Tables_number       1
_symmetry_cell_setting            triclinic
loop_
_symmetry_equiv_pos_as_xyz
'x, y, z'
_cell_length_a     48.323609
_cell_length_b     52.820782
_cell_length_c     47.249943
_cell_angle_alpha  91.887116
_cell_angle_beta   89.8178
_cell_angle_gamma 104.29381
loop_
_atom_site_label
_atom_site_type_symbol
_atom_site_fract_x
_atom_site_fract_y
_atom_site_fract_z
_atom_type_partial_charge
H0 H 0.27806 0.26204 0.23038 0.0
H1 H 0.33944 0.21586 0.22109 0.0
H2 H 0.35552 0.29077 0.18334 0.0
H3 H 0.39551 0.25159 0.22846 0.0
C4 C 0.39973 0.25295 0.2053 0.0
O5 O 0.37464 0.24919 0.19002 0.0
H6 H 0.41319 0.27281 0.20125 0.0
C7 C 0.29865 0.26002 0.22286 0.0
C8 C 0.31569 0.27953 0.20634 0.0
C9 C 0.30708 0.23709 0.22845 0.0
C10 C 0.33275 0.23355 0.21717 0.0
C11 C 0.35026 0.25307 0.20127 0.0
C12 C 0.34187 0.27602 0.19599 0.0
H13 H 0.32285 0.92719 0.63737 0.0
H14 H 0.31747 0.89049 0.55395 0.0
H15 H 0.38035 0.87994 0.61309 0.0
H16 H 0.39359 0.8957 0.55029 0.0
C17 C 0.38 0.87615 0.54357 0.0
O18 O 0.35827 0.86743 0.56256 0.0
H19 H 0.37063 0.87823 0.52257 0.0
C20 C 0.33065 0.9155 0.62141 0.0
C21 C 0.35365 0.9049 0.62816 0.0
C22 C 0.31718 0.91049 0.59476 0.0
C23 C 0.32705 0.89444 0.57483 0.0
C24 C 0.34959 0.8834 0.58159 0.0
C25 C 0.36276 0.88847 0.60823 0.0
H26 H 0.72647 0.32873 0.90799 0.0
H27 H 0.65952 0.3208 0.84565 0.0
H28 H 0.73064 0.38802 0.84656 0.0
H29 H 0.67598 0.39934 0.83642 0.0
C30 C 0.6653 0.38195 0.82306 0.0
O31 O 0.6829 0.36484 0.82067 0.0
H32 H 0.64533 0.3721 0.83404 0.0
C33 C 0.71726 0.33616 0.89017 0.0
C34 C 0.73179 0.36036 0.87918 0.0
C35 C 0.69112 0.32139 0.87846 0.0
C36 C 0.6796 0.33148 0.85505 0.0
C37 C 0.69375 0.35558 0.8437 0.0
C38 C 0.71973 0.36977 0.85579 0.0
H39 H 0.87411 0.72905 0.41181 0.0
H40 H 0.87552 0.66593 0.35206 0.0
H41 H 0.94274 0.7365 0.35176 0.0
H42 H 0.92347 0.7121 0.29415 0.0
C43 C 0.91788 0.69112 0.29963 0.0
O44 O 0.92377 0.68932 0.32812 0.0
H45 H 0.89461 0.68327 0.29569 0.0
C46 C 0.88415 0.72103 0.39432 0.0
C47 C 0.90996 0.73606 0.38332 0.0
C48 C 0.87125 0.69575 0.38324 0.0
C49 C 0.88489 0.68536 0.36082 0.0
C50 C 0.91048 0.70005 0.34921 0.0
C51 C 0.9228 0.72542 0.36042 0.0
H52 H 0.74858 0.84385 0.85165 0.0
H53 H 0.70757 0.79366 0.91766 0.0
H54 H 0.78049 0.77832 0.87496 0.0
H55 H 0.72165 0.73598 0.88215 0.0
C56 C 0.72914 0.73694 0.90454 0.0
O57 O 0.74177 0.76228 0.9136 0.0
H58 H 0.71001 0.7292 0.91771 0.0
C59 C 0.74696 0.82686 0.86443 0.0
C60 C 0.76661 0.81149 0.86042 0.0
C61 C 0.72584 0.82097 0.88536 0.0
C62 C 0.72364 0.79858 0.90135 0.0
C63 C 0.74322 0.78316 0.89741 0.0
C64 C 0.76505 0.78999 0.87746 0.0
H65 H 0.75193 0.13077 0.44221 0.0
H66 H 0.69383 0.17767 0.4667 0.0
H67 H 0.74163 0.15034 0.53005 0.0
H68 H 0.6799 0.16205 0.55447 0.0
C69 C 0.67744 0.1672 0.53216 0.0
O70 O 0.70412 0.17726 0.52087 0.0
H71 H 0.66586 0.14898 0.52052 0.0
C72 C 0.74206 0.14062 0.45836 0.0
C73 C 0.74956 0.13927 0.48685 0.0
C74 C 0.72166 0.15411 0.4507 0.0
C75 C 0.70894 0.16647 0.47208 0.0
C76 C 0.71582 0.16466 0.50059 0.0
C77 C 0.73591 0.15095 0.50797 0.0
H78 H 0.37864 0.73804 0.16472 0.0
H79 H 0.37718 0.67686 0.22354 0.0
H80 H 0.44506 0.74662 0.22736 0.0
H81 H 0.46275 0.69837 0.24081 0.0
C82 C 0.44244 0.68664 0.2497 0.0
O83 O 0.42283 0.70187 0.25151 0.0
H84 H 0.43434 0.6697 0.23476 0.0
C85 C 0.38826 0.72999 0.1818 0.0
C86 C 0.41396 0.74513 0.19393 0.0
C87 C 0.37445 0.70517 0.19194 0.0
C88 C 0.38683 0.69587 0.2153 0.0
C89 C 0.41204 0.71083 0.22824 0.0
C90 C 0.42547 0.73538 0.2175 0.0
H91 H 0.14033 0.34657 0.75628 0.0
H92 H 0.21006 0.41587 0.75382 0.0
H93 H 0.20663 0.35308 0.69349 0.0
H94 H 0.263 0.37661 0.7164 0.0
C95 C 0.26218 0.39747 0.71801 0.0
O96 O 0.23531 0.39968 0.71015 0.0
H97 H 0.26618 0.40431 0.7405 0.0
C98 C 0.1602 0.35737 0.74721 0.0
C99 C 0.17171 0.34645 0.72347 0.0
C100 C 0.17349 0.38278 0.75824 0.0
C101 C 0.19912 0.39661 0.74565 0.0
C102 C 0.21102 0.38584 0.72248 0.0
C103 C 0.19719 0.36104 0.71146 0.0
Sm104 Sm 0.04494 0.05419 0.52516 0.0
Sm105 Sm 0.03708 0.02724 0.58151 0.0
C106 C 0.04869 0.0827 0.47971 0.0
C107 C 0.06109 0.08241 0.45142 0.0
C108 C 0.06259 0.10366 0.43407 0.0
C109 C 0.07933 0.10638 0.40969 0.0
C110 C 0.09497 0.08791 0.40241 0.0
C111 C 0.09193 0.06575 0.41897 0.0
C112 C 0.0751 0.06303 0.44333 0.0
C113 C 0.08628 0.02863 0.53756 0.0
C114 C 0.06257 0.09091 0.58356 0.0
C115 C 0.03852 1.00481 0.63043 0.0
C116 C 0.01918 0.98331 0.64496 0.0
C117 C 0.03019 0.96775 0.66315 0.0
C118 C 0.01175 0.94758 0.67741 0.0
C119 C 0.98197 0.94273 0.67374 0.0
C120 C 0.97116 0.95824 0.6551 0.0
C121 C 0.98957 0.97819 0.64074 0.0
C122 C 0.98805 0.03698 0.55956 0.0
C123 C 0.01768 0.99152 0.52394 0.0
O124 O 0.06744 0.08766 0.50033 0.0
O125 O 0.02615 0.06393 0.4852 0.0
O126 O 0.07591 0.0423 0.55488 0.0
O127 O 0.07602 0.02908 0.5124 0.0
O128 O 0.05653 0.09019 0.55622 0.0
O129 O 0.0591 0.06917 0.5977 0.0
O130 O 0.05089 0.99822 0.60759 0.0
O131 O 0.02925 0.02591 0.62762 0.0
O132 O 0.01252 0.05217 0.55939 0.0
O133 O 0.98818 1.01626 0.57343 0.0
O134 O 0.02925 0.99211 0.5494 0.0
O135 O 0.01641 1.01347 0.51181 0.0
H136 H 0.0521 0.1189 0.44021 0.0
H137 H 0.08147 0.12383 0.39761 0.0
H138 H 0.10347 0.05108 0.41374 0.0
H139 H 0.07422 0.04652 0.45661 0.0
H140 H 0.05303 0.9713 0.66644 0.0
H141 H 0.02081 0.9358 0.6913 0.0
H142 H 0.94839 0.95544 0.65209 0.0
H143 H 0.98062 0.98987 0.62662 0.0
Sm144 Sm 0.5814 0.04137 0.04908 0.0
Sm145 Sm 0.52541 0.02498 0.02389 0.0
C146 C 0.62932 0.06723 0.07456 0.0
C147 C 0.63614 0.07825 0.10332 0.0
C148 C 0.66158 0.09726 0.10869 0.0
C149 C 0.66786 0.10809 0.13602 0.0
C150 C 0.64877 0.1 0.15844 0.0
C151 C 0.62318 0.08099 0.15278 0.0
C152 C 0.61687 0.07031 0.12545 0.0
C153 C 0.55071 0.99343 0.06827 0.0
C154 C 0.52855 0.06078 0.07904 0.0
C155 C 0.4771 0.99934 0.99887 0.0
C156 C 0.46871 0.98978 0.96991 0.0
C157 C 0.44271 0.97144 0.96497 0.0
C158 C 0.43453 0.96233 0.9374 0.0
C159 C 0.45224 0.97153 0.9143 0.0
C160 C 0.47851 0.98975 0.91951 0.0
C161 C 0.48671 0.99873 0.9471 0.0
C162 C 0.55608 0.07282 1.00444 0.0
C163 C 0.5784 1.00516 0.9944 0.0
O164 O 0.61343 0.07855 0.05959 0.0
O165 O 0.62142 0.04176 0.07218 0.0
O166 O 0.54074 1.01323 0.06545 0.0
O167 O 0.57743 0.99874 0.06135 0.0
O168 O 0.5561 0.06665 0.07368 0.0
O169 O 0.51125 0.04107 0.06541 0.0
O170 O 0.49425 0.98774 1.01161 0.0
O171 O 0.48435 1.0247 1.00286 0.0
O172 O 0.56608 0.05306 1.00749 0.0
O173 O 0.52926 0.06737 1.01092 0.0
O174 O 0.55077 0.99945 0.99951 0.0
O175 O 0.59569 0.02495 1.00791 0.0
H176 H 0.67651 0.1038 0.09172 0.0
H177 H 0.68754 0.12297 0.13953 0.0
H178 H 0.60818 0.074 0.16954 0.0
H179 H 0.59698 0.05577 0.12159 0.0
H180 H 0.42872 0.96417 0.98244 0.0
H181 H 0.41439 0.948 0.9342 0.0
H182 H 0.4925 0.99749 0.90223 0.0
H183 H 0.50699 1.01282 0.95062 0.0
Sm184 Sm 0.55982 0.51714 0.51722 0.0
Sm185 Sm 0.56034 0.56081 0.55611 0.0
C186 C 0.57171 0.47853 0.48623 0.0
C187 C 0.57632 0.45243 0.49106 0.0
C188 C 0.59726 0.449 0.51011 0.0
C189 C 0.60139 0.42412 0.51421 0.0
C190 C 0.58453 0.4021 0.49952 0.0
C191 C 0.56337 0.40561 0.48071 0.0
C192 C 0.55941 0.43053 0.47645 0.0
C193 C 0.50907 0.5111 0.54666 0.0
C194 C 0.58304 0.5143 0.58292 0.0
C195 C 0.54809 0.59895 0.58772 0.0
C196 C 0.53916 0.623 0.58273 0.0
C197 C 0.54007 0.63287 0.55545 0.0
C198 C 0.52954 0.65472 0.55056 0.0
C199 C 0.51788 0.66695 0.57289 0.0
C200 C 0.51758 0.65722 0.60029 0.0
C201 C 0.52811 0.63539 0.60514 0.0
C202 C 0.61119 0.56659 0.52703 0.0
C203 C 0.53662 0.56321 0.4906 0.0
O204 O 0.59122 0.49874 0.49595 0.0
O205 O 0.54573 0.48112 0.48997 0.0
O206 O 0.5338 0.51925 0.55716 0.0
O207 O 0.51058 0.50561 0.51984 0.0
O208 O 0.58363 0.506 0.55623 0.0
O209 O 0.57188 0.53415 0.58931 0.0
O210 O 0.52935 0.57726 0.58073 0.0
O211 O 0.57404 0.5987 0.58013 0.0
O212 O 0.58651 0.55879 0.51621 0.0
O213 O 0.60951 0.57139 0.55401 0.0
O214 O 0.53545 0.57106 0.51738 0.0
O215 O 0.54883 0.54408 0.48408 0.0
H216 H 0.61061 0.46552 0.52176 0.0
H217 H 0.61817 0.42225 0.52853 0.0
H218 H 0.54969 0.38908 0.46938 0.0
H219 H 0.54305 0.4327 0.46175 0.0
H220 H 0.54843 0.62339 0.53788 0.0
H221 H 0.52978 0.66157 0.52919 0.0
H222 H 0.50908 0.66643 0.61797 0.0
H223 H 0.52724 0.62794 0.6263 0.0
Sm224 Sm 0.05612 0.50568 0.05072 0.0
Sm225 Sm 0.04778 0.56073 0.02317 0.0
C226 C 0.07445 0.46325 0.05768 0.0
C227 C 0.09381 0.45355 0.07621 0.0
C228 C 0.12271 0.4669 0.07929 0.0
C229 C 0.14147 0.45597 0.09434 0.0
C230 C 0.13171 0.43158 0.10684 0.0
C231 C 0.10247 0.41891 0.10485 0.0
C232 C 0.08377 0.42973 0.08955 0.0
C233 C 0.03427 0.53648 0.08978 0.0
C234 C 0.10664 0.56154 0.05993 0.0
C235 C 0.02913 0.60308 1.01622 0.0
C236 C 0.00647 0.61014 0.99982 0.0
C237 C 0.98028 0.5919 0.99478 0.0
C238 C 0.95781 0.59941 0.98177 0.0
C239 C 0.96121 0.62525 0.97332 0.0
C240 C 0.98786 0.64319 0.97722 0.0
C241 C 0.0103 0.6357 0.99051 0.0
C242 C 0.06836 0.52932 0.98371 0.0
C243 C 0.99764 0.50487 1.01352 0.0
O244 O 0.08642 0.48172 0.04042 0.0
O245 O 0.05043 0.46628 0.06869 0.0
O246 O 0.04187 0.54102 0.06451 0.0
O247 O 0.03792 0.51352 0.09538 0.0
O248 O 0.09857 0.53574 0.06247 0.0
O249 O 0.09094 0.57521 0.047 0.0
O250 O 0.02033 0.58663 0.03644 0.0
O251 O 0.05083 0.59844 1.00202 0.0
O252 O 0.0618 0.52516 1.00929 0.0
O253 O 0.06434 0.55213 0.97806 0.0
O254 O 1.00471 0.53086 1.01294 0.0
O255 O 0.01438 0.49123 0.02471 0.0
H256 H 0.13108 0.48541 0.06936 0.0
H257 H 0.16384 0.46618 0.09514 0.0
H258 H 0.09409 0.40036 0.11469 0.0
H259 H 0.06155 0.41917 0.08756 0.0
H260 H 0.97692 0.57201 1.00162 0.0
H261 H 0.93761 0.58512 0.97871 0.0
H262 H 0.99099 0.66326 0.97105 0.0
H263 H 0.03036 0.65003 0.99421 0.0
C264 C 0.28121 0.19046 0.23615 0.0
C265 C 0.2886 0.21677 0.24565 0.0
C266 C 0.26232 0.17168 0.25174 0.0
C267 C 0.23208 0.1589 0.3229 0.0
H268 H 0.16594 0.11492 0.28415 0.0
C269 C 0.14449 0.09035 0.38502 0.0
C270 C 0.11694 0.0936 0.37992 0.0
C271 C 0.16671 0.09993 0.36628 0.0
C272 C 0.1844 0.12696 0.2952 0.0
H273 H 0.28293 0.24398 0.27919 0.0
H274 H 0.25013 0.21122 0.3065 0.0
H275 H 0.20373 0.14311 0.25676 0.0
H276 H 0.09063 0.10765 0.3501 0.0
H277 H 0.12955 0.12465 0.31747 0.0
H278 H 0.21245 0.14364 0.36137 0.0
C279 C 0.25886 0.20508 0.28704 0.0
C280 C 0.20609 0.14291 0.27954 0.0
C281 C 0.27742 0.22385 0.27133 0.0
C282 C 0.1117 0.10511 0.35473 0.0
C283 C 0.13394 0.11462 0.33593 0.0
C284 C 0.21057 0.14284 0.3385 0.0
C285 C 0.25088 0.17886 0.27728 0.0
C286 C 0.22978 0.1595 0.29333 0.0
C287 C 0.16186 0.11291 0.34201 0.0
C288 C 0.1862 0.12713 0.32489 0.0
H289 H 0.28945 0.18456 0.21631 0.0
H290 H 0.25658 0.15158 0.24382 0.0
H291 H 0.25024 0.17134 0.33403 0.0
H292 H 0.14933 0.08178 0.40433 0.0
H293 H 0.18796 0.09806 0.37134 0.0
C294 C 0.37517 0.93717 0.66666 0.0
C295 C 0.36782 0.9112 0.65615 0.0
C296 C 0.38636 0.94316 0.69391 0.0
C297 C 0.41892 0.91719 0.75396 0.0
H298 H 0.3895 0.96843 0.79721 0.0
C299 C 0.46281 0.958 0.86468 0.0
C300 C 0.44304 0.9627 0.88485 0.0
C301 C 0.45429 0.95077 0.83671 0.0
C302 C 0.39774 0.95389 0.78556 0.0
H303 H 0.36718 0.87118 0.66546 0.0
H304 H 0.38635 0.88155 0.71348 0.0
H305 H 0.37401 0.95753 0.74854 0.0
H306 H 0.39872 0.96324 0.89139 0.0
H307 H 0.38372 0.94987 0.84298 0.0
H308 H 0.44202 0.91307 0.79145 0.0
C309 C 0.38383 0.89736 0.70049 0.0
C310 C 0.38918 0.94792 0.75747 0.0
C311 C 0.37281 0.89139 0.67305 0.0
C312 C 0.41446 0.95952 0.87652 0.0
C313 C 0.40594 0.95219 0.84862 0.0
C314 C 0.42743 0.92312 0.78219 0.0
C315 C 0.39024 0.92328 0.71141 0.0
C316 C 0.3997 0.92955 0.74128 0.0
C317 C 0.4258 0.94801 0.8283 0.0
C318 C 0.41688 0.94152 0.79832 0.0
H319 H 0.372 0.95287 0.65385 0.0
H320 H 0.39173 0.96339 0.70137 0.0
H321 H 0.42759 0.90309 0.74202 0.0
H322 H 0.48492 0.95994 0.87047 0.0
H323 H 0.47019 0.9479 0.82155 0.0
C324 C 0.67945 0.40808 0.77847 0.0
C325 C 0.65829 0.39142 0.79439 0.0
C326 C 0.6722 0.41986 0.75416 0.0
C327 C 0.61028 0.43902 0.72192 0.0
H328 H 0.65789 0.45148 0.65515 0.0
C329 C 0.59069 0.50769 0.63478 0.0
C330 C 0.59345 0.50026 0.6062 0.0
C331 C 0.59926 0.49403 0.6568 0.0
C332 C 0.64421 0.44805 0.67354 0.0
H333 H 0.61295 0.37352 0.79658 0.0
H334 H 0.60034 0.39362 0.75428 0.0
H335 H 0.67132 0.42754 0.69422 0.0
H336 H 0.60791 0.4725 0.57871 0.0
H337 H 0.62288 0.44874 0.61707 0.0
H338 H 0.58309 0.45931 0.70134 0.0
C339 C 0.62256 0.39798 0.76066 0.0
C340 C 0.65209 0.43449 0.69615 0.0
C341 C 0.62983 0.38618 0.78483 0.0
C342 C 0.60547 0.47891 0.60037 0.0
C343 C 0.6142 0.4653 0.62246 0.0
C344 C 0.60254 0.4527 0.69947 0.0
C345 C 0.64352 0.41545 0.74521 0.0
C346 C 0.63521 0.42971 0.72072 0.0
C347 C 0.611 0.47249 0.65107 0.0
C348 C 0.61936 0.45752 0.6749 0.0
H349 H 0.70152 0.41272 0.78544 0.0
H350 H 0.68898 0.43326 0.74306 0.0
H351 H 0.59684 0.43613 0.7405 0.0
H352 H 0.58163 0.524 0.64027 0.0
H353 H 0.59681 0.50053 0.67843 0.0
C354 C 0.94989 0.68781 0.25741 0.0
C355 C 0.9339 0.67577 0.28044 0.0
C356 C 0.96161 0.67321 0.23736 0.0
C357 C 0.95346 0.60464 0.20896 0.0
H358 H 0.0252 0.6344 0.17179 0.0
C359 C 0.008 0.54197 0.1345 0.0
C360 C 0.0222 0.55315 0.11018 0.0
C361 C 0.99737 0.55714 0.15474 0.0
C362 C 1.00494 0.62583 0.18164 0.0
H363 H 0.91778 0.63877 0.30028 0.0
H364 H 0.93876 0.61327 0.26583 0.0
H365 H 0.00764 0.65982 0.20863 0.0
H366 H 0.03716 0.5895 0.08873 0.0
H367 H 0.01815 0.61608 0.12376 0.0
H368 H 0.95081 0.57062 0.18207 0.0
C369 C 0.94206 0.63405 0.26298 0.0
C370 C 0.9948 0.64047 0.20294 0.0
C371 C 0.9303 0.64871 0.28304 0.0
C372 C 0.02569 0.58011 0.10677 0.0
C373 C 0.01514 0.59541 0.12717 0.0
C374 C 0.96362 0.58999 0.18775 0.0
C375 C 0.95763 0.64599 0.23953 0.0
C376 C 0.96887 0.63014 0.21704 0.0
C377 C 1.00075 0.58415 0.15153 0.0
C378 C 0.98958 0.60027 0.17373 0.0
H379 H 0.95268 0.70853 0.2544 0.0
H380 H 0.97296 0.68325 0.21957 0.0
H381 H 0.93314 0.59602 0.21867 0.0
H382 H 1.00516 0.52133 0.13802 0.0
H383 H 0.98697 0.54767 0.17328 0.0
C384 C 0.39952 0.20616 0.1921 0.0
C385 C 0.41493 0.23225 0.19656 0.0
C386 C 0.41345 0.18702 0.1835 0.0
C387 C 0.48004 0.17981 0.14923 0.0
H388 H 0.45319 0.10792 0.17168 0.0
C389 C 0.53532 0.10036 0.11122 0.0
C390 C 0.51701 0.07784 0.09883 0.0
C391 C 0.52427 0.1183 0.12711 0.0
C392 C 0.46086 0.12792 0.16523 0.0
H393 H 0.45716 0.25844 0.19767 0.0
H394 H 0.48176 0.22489 0.18322 0.0
H395 H 0.4318 0.14147 0.19256 0.0
H396 H 0.47285 0.0558 0.09473 0.0
H397 H 0.45357 0.08717 0.12266 0.0
H398 H 0.50907 0.16621 0.1219 0.0
C399 C 0.45875 0.21937 0.18531 0.0
C400 C 0.44857 0.14714 0.17708 0.0
C401 C 0.44473 0.23858 0.19367 0.0
C402 C 0.48752 0.07299 0.10391 0.0
C403 C 0.47648 0.09089 0.12 0.0
C404 C 0.49249 0.16066 0.13761 0.0
C405 C 0.44322 0.19341 0.17972 0.0
C406 C 0.45773 0.17327 0.1689 0.0
C407 C 0.4947 0.11403 0.13115 0.0
C408 C 0.48278 0.13447 0.14521 0.0
H409 H 0.37657 0.20061 0.1947 0.0
H410 H 0.40071 0.16734 0.17914 0.0
H411 H 0.48731 0.19959 0.14202 0.0
H412 H 0.55818 0.10461 0.10793 0.0
H413 H 0.53883 0.1358 0.1358 0.0
C414 C 0.2919 0.94674 0.59903 0.0
C415 C 0.2927 0.92179 0.58811 0.0
C416 C 0.26839 0.95689 0.59397 0.0
C417 C 0.21258 0.95672 0.54421 0.0
H418 H 0.1713 0.97776 0.60766 0.0
C419 C 0.11249 0.99464 0.52625 0.0
C420 C 0.10806 1.0147 0.54451 0.0
C421 C 0.13361 0.98171 0.53223 0.0
C422 C 0.18281 0.9724 0.58967 0.0
H423 H 0.26922 0.88817 0.563 0.0
H424 H 0.22881 0.90667 0.55306 0.0
H425 H 0.21165 0.9589 0.61635 0.0
H426 H 0.12177 0.03699 0.58341 0.0
H427 H 0.15972 1.01546 0.59326 0.0
H428 H 0.18502 0.97126 0.5174 0.0
C429 C 0.24639 0.91802 0.56585 0.0
C430 C 0.20575 0.96142 0.59471 0.0
C431 C 0.26964 0.90758 0.57139 0.0
C432 C 0.12482 1.02151 0.56904 0.0
C433 C 0.1464 1.00897 0.57475 0.0
C434 C 0.19004 0.96819 0.53913 0.0
C435 C 0.24549 0.94261 0.57737 0.0
C436 C 0.22079 0.95354 0.57201 0.0
C437 C 0.15119 0.98897 0.55633 0.0
C438 C 0.17483 0.97621 0.56179 0.0
H439 H 0.3095 0.95857 0.61139 0.0
H440 H 0.26825 0.97608 0.60272 0.0
H441 H 0.22412 0.95096 0.52641 0.0
H442 H 0.0995 0.98881 0.50737 0.0
H443 H 0.13606 0.96599 0.51793 0.0
C444 C 0.76587 0.40312 0.89512 0.0
C445 C 0.75951 0.37565 0.89218 0.0
C446 C 0.79149 0.4173 0.90788 0.0
C447 C 0.86456 0.4117 0.92833 0.0
H448 H 0.86463 0.47257 0.97647 0.0
C449 C 0.96247 0.46276 0.99818 0.0
C450 C 0.96992 0.49028 1.00026 0.0
C451 C 0.93689 0.44908 0.98502 0.0
C452 C 0.86512 0.45579 0.96286 0.0
H453 H 0.77599 0.34184 0.90003 0.0
H454 H 0.81998 0.36633 0.92281 0.0
H455 H 0.82043 0.44845 0.95346 0.0
H456 H 0.9557 0.52479 0.98999 0.0
H457 H 0.9113 0.501 0.96713 0.0
H458 H 0.90921 0.41894 0.93793 0.0
C459 C 0.80533 0.37705 0.91499 0.0
C460 C 0.83968 0.44191 0.94956 0.0
C461 C 0.77976 0.36289 0.9022 0.0
C462 C 0.95082 0.50365 0.98895 0.0
C463 C 0.92517 0.48995 0.9759 0.0
C464 C 0.88996 0.42551 0.9417 0.0
C465 C 0.81163 0.4045 0.91812 0.0
C466 C 0.83894 0.41959 0.9321 0.0
C467 C 0.91786 0.46244 0.9736 0.0
C468 C 0.89066 0.44775 0.95923 0.0
H469 H 0.75082 0.41372 0.88796 0.0
H470 H 0.79558 0.4384 0.90949 0.0
H471 H 0.86516 0.39498 0.91468 0.0
H472 H 0.97649 0.45167 1.00658 0.0
H473 H 0.93191 0.42792 0.98405 0.0
C474 C 0.82166 0.6926 0.40246 0.0
C475 C 0.84371 0.68039 0.39546 0.0
C476 C 0.79629 0.67864 0.41489 0.0
C477 C 0.76644 0.61998 0.45675 0.0
H478 H 0.69353 0.63243 0.43582 0.0
C479 C 0.66414 0.58586 0.52449 0.0
C480 C 0.63779 0.57643 0.51048 0.0
C481 C 0.68904 0.5967 0.50934 0.0
C482 C 0.71364 0.6285 0.44181 0.0
H483 H 0.85597 0.64362 0.39608 0.0
H484 H 0.81169 0.61924 0.4177 0.0
H485 H 0.73679 0.65451 0.41111 0.0
H486 H 0.61712 0.57065 0.46934 0.0
H487 H 0.66056 0.58962 0.44283 0.0
H488 H 0.7433 0.59403 0.4875 0.0
C489 C 0.81412 0.63974 0.41367 0.0
C490 C 0.73857 0.64142 0.4278 0.0
C491 C 0.83945 0.65366 0.40098 0.0
C492 C 0.63706 0.57773 0.48081 0.0
C493 C 0.66195 0.58879 0.46563 0.0
C494 C 0.74154 0.60723 0.47092 0.0
C495 C 0.79218 0.65204 0.42091 0.0
C496 C 0.76539 0.63748 0.43515 0.0
C497 C 0.68831 0.59861 0.4797 0.0
C498 C 0.71476 0.61139 0.46377 0.0
H499 H 0.82398 0.71305 0.39828 0.0
H500 H 0.78009 0.68892 0.42034 0.0
H501 H 0.78666 0.61656 0.46321 0.0
H502 H 0.66548 0.58519 0.54732 0.0
H503 H 0.70876 0.60425 0.521 0.0
C504 C 0.28851 0.31354 0.21728 0.0
C505 C 0.30469 0.30221 0.19814 0.0
C506 C 0.27397 0.33163 0.20819 0.0
C507 C 0.24326 0.34874 0.14246 0.0
H508 H 0.22466 0.40307 0.19052 0.0
C509 C 0.14905 0.39157 0.11594 0.0
C510 C 0.15229 0.41862 0.12004 0.0
C511 C 0.16939 0.37953 0.12634 0.0
C512 C 0.22988 0.38817 0.1767 0.0
H513 H 0.31997 0.30258 0.15488 0.0
H514 H 0.2957 0.33495 0.13939 0.0
H515 H 0.25995 0.38058 0.20644 0.0
H516 H 0.17914 0.45406 0.13931 0.0
H517 H 0.21518 0.43313 0.1567 0.0
H518 H 0.21371 0.35656 0.11251 0.0
C519 C 0.29347 0.32921 0.16123 0.0
C520 C 0.24991 0.37509 0.18594 0.0
C521 C 0.30776 0.3109 0.17024 0.0
C522 C 0.17614 0.43324 0.13541 0.0
C523 C 0.19666 0.42119 0.14566 0.0
C524 C 0.22345 0.3619 0.13316 0.0
C525 C 0.27553 0.33905 0.17981 0.0
C526 C 0.25653 0.35493 0.16909 0.0
C527 C 0.19373 0.39425 0.14087 0.0
C528 C 0.2161 0.38144 0.15036 0.0
H529 H 0.28617 0.3077 0.23909 0.0
H530 H 0.26033 0.3387 0.22312 0.0
H531 H 0.24743 0.3331 0.12903 0.0
H532 H 0.13119 0.37969 0.10393 0.0
H533 H 0.16612 0.35864 0.12276 0.0
C534 C 0.66181 0.2742 0.87328 0.0
C535 C 0.67637 0.29549 0.8907 0.0
C536 C 0.64919 0.24978 0.88473 0.0
C537 C 0.65184 0.20964 0.94786 0.0
H538 H 0.57767 0.16943 0.92142 0.0
C539 C 0.60034 0.10338 0.9845 0.0
C540 C 0.57099 0.09757 0.99069 0.0
C541 C 0.61384 0.12699 0.97173 0.0
C542 C 0.59838 0.18039 0.92915 0.0
H543 H 0.68771 0.3074 0.93443 0.0
H544 H 0.66631 0.26507 0.95408 0.0
H545 H 0.59931 0.2114 0.90065 0.0
H546 H 0.53295 0.1122 0.98832 0.0
H547 H 0.5562 0.15288 0.96608 0.0
H548 H 0.65074 0.17871 0.97657 0.0
C549 C 0.66505 0.26711 0.93142 0.0
C550 C 0.61095 0.20444 0.917 0.0
C551 C 0.67744 0.29153 0.92003 0.0
C552 C 0.55555 0.1159 0.98376 0.0
C553 C 0.5689 0.13926 0.9708 0.0
C554 C 0.63938 0.18545 0.95982 0.0
C555 C 0.65084 0.24577 0.91397 0.0
C556 C 0.63778 0.2196 0.92632 0.0
C557 C 0.59826 0.14526 0.96455 0.0
C558 C 0.61231 0.17054 0.95086 0.0
H559 H 0.66071 0.27614 0.8506 0.0
H560 H 0.63866 0.23384 0.87052 0.0
H561 H 0.67264 0.22052 0.95544 0.0
H562 H 0.6129 0.08975 0.98961 0.0
H563 H 0.63643 0.13078 0.96714 0.0
C564 C 0.92542 0.76613 0.42612 0.0
C565 C 0.9234 0.76253 0.39646 0.0
C566 C 0.93672 0.79094 0.43877 0.0
C567 C 0.94902 0.86172 0.42657 0.0
H568 H 1.00062 0.86948 0.49064 0.0
C569 C 1.00059 0.96412 0.4794 0.0
C570 C 0.00662 0.9657 0.50863 0.0
C571 C 0.99113 0.93974 0.465 0.0
C572 C 0.98586 0.86779 0.4731 0.0
H573 H 0.93193 0.78255 0.35692 0.0
H574 H 0.95139 0.82604 0.37903 0.0
H575 H 0.98327 0.82681 0.46716 0.0
H576 H 0.00669 0.94253 0.54562 0.0
H577 H 0.98936 0.90043 0.52106 0.0
H578 H 0.95086 0.90247 0.43291 0.0
C579 C 0.94421 0.80952 0.3925 0.0
C580 C 0.976 0.84317 0.45947 0.0
C581 C 0.93328 0.78454 0.37979 0.0
C582 C 1.00252 0.9422 0.52308 0.0
C583 C 0.99275 0.91788 0.5088 0.0
C584 C 0.95859 0.88634 0.44044 0.0
C585 C 0.94607 0.81309 0.42221 0.0
C586 C 0.95734 0.8397 0.43606 0.0
C587 C 0.98708 0.91611 0.47942 0.0
C588 C 0.97711 0.88984 0.46409 0.0
H589 H 0.91823 0.74965 0.43966 0.0
H590 H 0.93757 0.79286 0.46166 0.0
H591 H 0.93443 0.85981 0.40883 0.0
H592 H 1.00366 0.98174 0.46746 0.0
H593 H 0.98753 0.93953 0.4424 0.0
C594 C 0.3905 0.83517 0.52247 0.0
C595 C 0.39788 0.85664 0.54162 0.0
C596 C 0.40514 0.81544 0.5228 0.0
C597 C 0.47087 0.79963 0.54883 0.0
H598 H 0.42423 0.72838 0.5458 0.0
C599 C 0.51874 0.70927 0.5497 0.0
C600 C 0.50516 0.68919 0.56752 0.0
C601 C 0.50646 0.73005 0.54457 0.0
C602 C 0.43754 0.74817 0.54675 0.0
H603 H 0.42574 0.87432 0.57642 0.0
H604 H 0.45146 0.83984 0.5771 0.0
H605 H 0.40185 0.76449 0.54012 0.0
H606 H 0.46786 0.67494 0.59355 0.0
H607 H 0.44669 0.71131 0.58494 0.0
H608 H 0.50646 0.78324 0.55627 0.0
C609 C 0.43487 0.8385 0.56136 0.0
C610 C 0.42477 0.76884 0.54316 0.0
C611 C 0.42018 0.85818 0.56104 0.0
C612 C 0.47903 0.69027 0.58 0.0
C613 C 0.46672 0.71094 0.57478 0.0
C614 C 0.48367 0.77892 0.55233 0.0
C615 C 0.42726 0.81674 0.54248 0.0
C616 C 0.44124 0.79482 0.54446 0.0
C617 C 0.48027 0.73104 0.55699 0.0
C618 C 0.46707 0.75299 0.55168 0.0
H619 H 0.37302 0.83341 0.50764 0.0
H620 H 0.39892 0.79901 0.50787 0.0
H621 H 0.48415 0.81943 0.5497 0.0
H622 H 0.53899 0.70905 0.53994 0.0
H623 H 0.51731 0.74518 0.53062 0.0
C624 C 0.81802 0.82318 0.84647 0.0
C625 C 0.78913 0.81852 0.83886 0.0
C626 C 0.83932 0.83224 0.82656 0.0
C627 C 0.84941 0.86628 0.7585 0.0
H628 H 0.92407 0.8515 0.76117 0.0
C629 C 0.93628 0.90788 0.67782 0.0
C630 C 0.96202 0.92249 0.69011 0.0
C631 C 0.9159 0.89126 0.69413 0.0
C632 C 0.90326 0.85571 0.76021 0.0
H633 H 0.7596 0.81808 0.80442 0.0
H634 H 0.79662 0.83276 0.76926 0.0
H635 H 0.88638 0.82901 0.79271 0.0
H636 H 0.98699 0.92996 0.72898 0.0
H637 H 0.95159 0.90037 0.75722 0.0
H638 H 0.86628 0.8928 0.72587 0.0
C639 C 0.80305 0.83047 0.79077 0.0
C640 C 0.88172 0.84298 0.77835 0.0
C641 C 0.78181 0.82189 0.81079 0.0
C642 C 0.96756 0.91885 0.71872 0.0
C643 C 0.94728 0.90196 0.73495 0.0
C644 C 0.87076 0.87864 0.74013 0.0
C645 C 0.8321 0.83641 0.79853 0.0
C646 C 0.85459 0.84837 0.77798 0.0
C647 C 0.92098 0.88857 0.72297 0.0
C648 C 0.89797 0.87372 0.74103 0.0
H649 H 0.8241 0.82083 0.86809 0.0
H650 H 0.86139 0.83691 0.83349 0.0
H651 H 0.82911 0.87148 0.75797 0.0
H652 H 0.93159 0.90969 0.65569 0.0
H653 H 0.8959 0.88086 0.68433 0.0
C654 C 0.73414 0.15709 0.39906 0.0
C655 C 0.71349 0.15483 0.42048 0.0
C656 C 0.72617 0.15543 0.37056 0.0
C657 C 0.66374 0.12862 0.32436 0.0
H658 H 0.71307 0.16626 0.26666 0.0
C659 C 0.63417 0.11579 0.20565 0.0
C660 C 0.6557 0.11087 0.18772 0.0
C661 C 0.64038 0.1245 0.23369 0.0
C662 C 0.69913 0.1556 0.28257 0.0
H663 H 0.66831 0.1501 0.42862 0.0
H664 H 0.65452 0.14809 0.37889 0.0
H665 H 0.72512 0.1763 0.31659 0.0
H666 H 0.70078 0.1117 0.18527 0.0
H667 H 0.71163 0.12731 0.23405 0.0
H668 H 0.63786 0.10785 0.29028 0.0
C669 C 0.67684 0.15053 0.38415 0.0
C670 C 0.70604 0.16128 0.31116 0.0
C671 C 0.6848 0.15202 0.41269 0.0
C672 C 0.68375 0.11563 0.19831 0.0
C673 C 0.68999 0.12455 0.22629 0.0
C674 C 0.65673 0.12311 0.2958 0.0
C675 C 0.69736 0.15171 0.36273 0.0
C676 C 0.68869 0.14754 0.33241 0.0
C677 C 0.6683 0.12874 0.24436 0.0
C678 C 0.67459 0.13623 0.27461 0.0
H679 H 0.7565 0.15976 0.4043 0.0
H680 H 0.74255 0.15619 0.3547 0.0
H681 H 0.65013 0.11733 0.34008 0.0
H682 H 0.61246 0.11284 0.19804 0.0
H683 H 0.62332 0.12789 0.24707 0.0
C684 C 0.47248 0.68903 0.29451 0.0
C685 C 0.44824 0.67646 0.2784 0.0
C686 C 0.47999 0.67777 0.31901 0.0
C687 C 0.46887 0.61304 0.35285 0.0
H688 H 0.50682 0.65457 0.41717 0.0
C689 C 0.52607 0.56807 0.43896 0.0
C690 C 0.52499 0.57651 0.46744 0.0
C691 C 0.51557 0.58053 0.41706 0.0
C692 C 0.49604 0.64256 0.39954 0.0
H693 H 0.41202 0.64289 0.27642 0.0
H694 H 0.42469 0.6234 0.31931 0.0
H695 H 0.48967 0.67596 0.37821 0.0
H696 H 0.51176 0.60502 0.4949 0.0
H697 H 0.49332 0.62663 0.45681 0.0
H698 H 0.47492 0.57964 0.37424 0.0
C699 C 0.43842 0.64168 0.31272 0.0
C700 C 0.48644 0.65493 0.37692 0.0
C701 C 0.43092 0.65298 0.28824 0.0
C702 C 0.51304 0.5979 0.4733 0.0
C703 C 0.50258 0.61044 0.45133 0.0
C704 C 0.47852 0.60071 0.3754 0.0
C705 C 0.46343 0.65359 0.32823 0.0
C706 C 0.47279 0.6404 0.35308 0.0
C707 C 0.50361 0.60194 0.4228 0.0
C708 C 0.49247 0.61523 0.39909 0.0
H709 H 0.48627 0.70715 0.28753 0.0
H710 H 0.49946 0.68759 0.33007 0.0
H711 H 0.45883 0.60105 0.3349 0.0
H712 H 0.53519 0.5518 0.43344 0.0
H713 H 0.51729 0.57356 0.39548 0.0
C714 C 0.16079 0.42226 0.78149 0.0
C715 C 0.1605 0.39554 0.78213 0.0
C716 C 0.14959 0.43472 0.80386 0.0
C717 C 0.13006 0.42984 0.88037 0.0
H718 H 0.08983 0.48233 0.86243 0.0
C719 C 0.07767 0.48569 0.96729 0.0
C720 C 0.07907 0.51218 0.96273 0.0
C721 C 0.08674 0.46996 0.9462 0.0
C722 C 0.10132 0.468 0.86802 0.0
H723 H 0.14781 0.3611 0.80738 0.0
H724 H 0.12809 0.38285 0.84645 0.0
H725 H 0.10664 0.45795 0.8244 0.0
H726 H 0.09154 0.54283 0.93249 0.0
H727 H 0.10761 0.51598 0.89643 0.0
H728 H 0.12486 0.4402 0.92413 0.0
C729 C 0.13726 0.39421 0.82854 0.0
C730 C 0.11098 0.45389 0.84603 0.0
C731 C 0.14833 0.38163 0.80595 0.0
C732 C 0.09 0.52251 0.93678 0.0
C733 C 0.09905 0.50694 0.91587 0.0
C734 C 0.12042 0.44408 0.90248 0.0
C735 C 0.13768 0.421 0.82784 0.0
C736 C 0.12589 0.43482 0.85174 0.0
C737 C 0.09732 0.48029 0.91996 0.0
C738 C 0.10625 0.46372 0.89666 0.0
H739 H 0.16958 0.43367 0.76348 0.0
H740 H 0.15071 0.45537 0.80247 0.0
H741 H 0.14157 0.41548 0.88575 0.0
H742 H 0.06893 0.47697 0.9868 0.0
H743 H 0.08478 0.44953 0.95022 0.0
C744 C 0.71995 0.86627 0.89392 0.0
C745 C 0.70759 0.83926 0.89167 0.0
C746 C 0.7033 0.88372 0.90063 0.0
C747 C 0.63515 0.88698 0.93417 0.0
H748 H 0.65336 0.95623 0.90318 0.0
C749 C 0.57289 0.96338 0.96602 0.0
C750 C 0.59025 0.98761 0.97553 0.0
C751 C 0.58477 0.9452 0.95145 0.0
C752 C 0.64805 0.93695 0.91198 0.0
H753 H 0.66799 0.80934 0.89427 0.0
H754 H 0.63861 0.83995 0.9056 0.0
H755 H 0.67819 0.92389 0.88568 0.0
H756 H 0.63338 1.01234 0.97581 0.0
H757 H 0.65405 0.98066 0.95012 0.0
H758 H 0.60512 0.90019 0.96058 0.0
C759 C 0.66133 0.84759 0.9026 0.0
C760 C 0.66232 0.91844 0.90207 0.0
C761 C 0.6781 0.83006 0.89608 0.0
C762 C 0.61945 0.99382 0.96885 0.0
C763 C 0.63127 0.97573 0.95403 0.0
C764 C 0.6207 0.90542 0.94388 0.0
C765 C 0.67378 0.87465 0.9051 0.0
C766 C 0.6565 0.8934 0.91348 0.0
C767 C 0.61417 0.951 0.94581 0.0
C768 C 0.6274 0.93074 0.93328 0.0
H769 H 0.74272 0.87391 0.89119 0.0
H770 H 0.71378 0.90431 0.90304 0.0
H771 H 0.63037 0.86805 0.94374 0.0
H772 H 0.55028 0.95799 0.97074 0.0
H773 H 0.57105 0.92639 0.94507 0.0
C774 C 0.79883 0.1335 0.47981 0.0
C775 C 0.77272 0.12681 0.49424 0.0
C776 C 0.82114 0.12247 0.48703 0.0
C777 C 0.83817 0.06623 0.51841 0.0
H778 H 0.91239 0.11348 0.53272 0.0
C779 C 0.93512 0.03141 0.55976 0.0
C780 C 0.96227 0.04454 0.55032 0.0
C781 C 0.91109 0.04025 0.55271 0.0
C782 C 0.89197 0.09992 0.52834 0.0
H783 H 0.74918 0.10309 0.52713 0.0
H784 H 0.78835 0.08337 0.53955 0.0
H785 H 0.87205 0.13105 0.52081 0.0
H786 H 0.98562 0.07624 0.52507 0.0
H787 H 0.94378 0.09099 0.51175 0.0
H788 H 0.8582 0.035 0.52515 0.0
C789 C 0.79143 0.09725 0.52275 0.0
C790 C 0.86884 0.11005 0.52171 0.0
C791 C 0.76918 0.10861 0.5158 0.0
C792 C 0.96492 0.06594 0.53285 0.0
C793 C 0.94094 0.07452 0.52546 0.0
C794 C 0.86146 0.05601 0.52469 0.0
C795 C 0.81768 0.10431 0.50859 0.0
C796 C 0.84179 0.09332 0.51654 0.0
C797 C 0.91378 0.06218 0.53579 0.0
C798 C 0.88871 0.07275 0.52954 0.0
H799 H 0.80217 0.14763 0.46325 0.0
H800 H 0.84113 0.1281 0.47569 0.0
H801 H 0.8175 0.05294 0.51433 0.0
H802 H 0.93258 1.01485 0.57331 0.0
H803 H 0.89058 0.03038 0.56124 0.0
C804 C 0.34156 0.69153 0.14921 0.0
C805 C 0.34715 0.68931 0.17819 0.0
C806 C 0.31582 0.67761 0.13656 0.0
C807 C 0.24175 0.63763 0.15434 0.0
H808 H 0.23907 0.62091 0.07373 0.0
C809 C 0.14579 0.56561 0.0962 0.0
C810 C 0.13445 0.57586 0.073 0.0
C811 C 0.17152 0.57931 0.1091 0.0
C812 C 0.23947 0.62553 0.09625 0.0
H813 H 0.3291 0.66975 0.21619 0.0
H814 H 0.28564 0.64425 0.19389 0.0
H815 H 0.28418 0.64359 0.09592 0.0
H816 H 0.1418 0.60847 0.04493 0.0
H817 H 0.18734 0.63186 0.0668 0.0
H818 H 0.19706 0.61821 0.15449 0.0
C819 C 0.30066 0.65762 0.18098 0.0
C820 C 0.2654 0.63882 0.10911 0.0
C821 C 0.32616 0.67202 0.19382 0.0
C822 C 0.14982 0.60001 0.06278 0.0
C823 C 0.17595 0.61338 0.07523 0.0
C824 C 0.21601 0.62377 0.14156 0.0
C825 C 0.29481 0.6603 0.15213 0.0
C826 C 0.26706 0.64536 0.13841 0.0
C827 C 0.18699 0.60329 0.09869 0.0
C828 C 0.2145 0.61774 0.11233 0.0
H829 H 0.35712 0.704 0.13597 0.0
H830 H 0.31242 0.68085 0.1145 0.0
H831 H 0.24151 0.64259 0.17672 0.0
H832 H 0.13451 0.54715 0.10475 0.0
H833 H 0.17952 0.57098 0.12705 0.0
C834 C 0.3104 0.42919 0.71118 0.0
C835 C 0.28539 0.413 0.69914 0.0
C836 C 0.33335 0.44132 0.69412 0.0
C837 C 0.36447 0.43583 0.62246 0.0
H838 H 0.41224 0.50434 0.64309 0.0
C839 C 0.45683 0.489 0.55046 0.0
C840 C 0.48265 0.50215 0.56368 0.0
C841 C 0.43221 0.47928 0.56646 0.0
C842 C 0.39931 0.48508 0.63713 0.0
H843 H 0.26504 0.39667 0.65967 0.0
H844 H 0.30474 0.41833 0.62968 0.0
H845 H 0.3702 0.48579 0.67128 0.0
H846 H 0.50263 0.51582 0.60417 0.0
H847 H 0.45973 0.49887 0.63216 0.0
H848 H 0.39361 0.43516 0.58831 0.0
C849 C 0.3068 0.42155 0.6524 0.0
C850 C 0.3751 0.47438 0.65336 0.0
C851 C 0.28384 0.40936 0.66953 0.0
C852 C 0.48308 0.5058 0.59331 0.0
C853 C 0.4584 0.49616 0.60934 0.0
C854 C 0.38861 0.44658 0.60618 0.0
C855 C 0.33208 0.43753 0.66445 0.0
C856 C 0.35735 0.44949 0.6464 0.0
C857 C 0.43264 0.48252 0.59618 0.0
C858 C 0.40651 0.47132 0.61333 0.0
H859 H 0.31253 0.43198 0.73395 0.0
H860 H 0.35248 0.453 0.70438 0.0
H861 H 0.35179 0.41645 0.61661 0.0
H862 H 0.45569 0.48594 0.52767 0.0
H863 H 0.41276 0.46928 0.55547 0.0
C864 C 0.77107 0.72101 0.88621 0.0
C865 C 0.75049 0.72073 0.90732 0.0
C866 C 0.79299 0.70845 0.89013 0.0
C867 C 0.81387 0.65784 0.93015 0.0
H868 H 0.89132 0.6996 0.921 0.0
C869 C 0.91022 0.62738 0.97637 0.0
C870 C 0.93647 0.63381 0.9622 0.0
C871 C 0.88711 0.63633 0.96694 0.0
C872 C 0.86988 0.68741 0.92312 0.0
H873 H 0.73643 0.70712 0.94891 0.0
H874 H 0.77438 0.68448 0.95552 0.0
H875 H 0.85123 0.71761 0.90892 0.0
H876 H 0.95902 0.65408 0.92664 0.0
H877 H 0.91837 0.66917 0.90952 0.0
H878 H 0.83228 0.62751 0.94405 0.0
C879 C 0.77348 0.69433 0.93592 0.0
C880 C 0.84692 0.69782 0.91629 0.0
C881 C 0.75182 0.70724 0.93217 0.0
C882 C 0.93905 0.64903 0.93808 0.0
C883 C 0.91578 0.65774 0.92839 0.0
C884 C 0.83681 0.64727 0.9366 0.0
C885 C 0.79452 0.69517 0.91512 0.0
C886 C 0.81872 0.68329 0.92019 0.0
C887 C 0.88956 0.6517 0.94287 0.0
C888 C 0.86515 0.6621 0.93368 0.0
H889 H 0.77048 0.73136 0.8669 0.0
H890 H 0.80888 0.70927 0.87373 0.0
H891 H 0.7923 0.64613 0.93301 0.0
H892 H 0.90777 0.61602 0.9953 0.0
H893 H 0.86756 0.63174 0.97906 0.0
C894 C 0.42962 0.77383 0.15204 0.0
C895 C 0.42849 0.77096 0.1816 0.0
C896 C 0.4424 0.79793 0.14021 0.0
C897 C 0.46482 0.86974 0.15664 0.0
H898 H 0.50934 0.87051 0.08816 0.0
C899 C 0.50788 0.96457 0.09242 0.0
C900 C 0.5356 0.96839 0.08129 0.0
C901 C 0.49435 0.94084 0.10492 0.0
C902 C 0.49712 0.87078 0.10736 0.0
H903 H 0.44023 0.79177 0.22179 0.0
H904 H 0.46277 0.83377 0.20117 0.0
H905 H 0.48785 0.8291 0.1098 0.0
H906 H 0.57066 0.95007 0.07454 0.0
H907 H 0.54734 0.9091 0.09612 0.0
H908 H 0.47448 0.91158 0.15428 0.0
C909 C 0.45347 0.81729 0.1871 0.0
C910 C 0.48448 0.84687 0.11968 0.0
C911 C 0.4408 0.79306 0.19896 0.0
C912 C 0.5493 0.94786 0.08284 0.0
C913 C 0.53579 0.9242 0.09511 0.0
C914 C 0.47736 0.89371 0.14419 0.0
C915 C 0.45449 0.82012 0.1575 0.0
C916 C 0.46815 0.8459 0.14456 0.0
C917 C 0.50809 0.92022 0.10638 0.0
C918 C 0.49385 0.89463 0.1194 0.0
H919 H 0.42072 0.75731 0.13787 0.0
H920 H 0.44241 0.79921 0.11739 0.0
H921 H 0.45221 0.86989 0.1756 0.0
H922 H 0.49667 0.97994 0.09154 0.0
H923 H 0.47293 0.93852 0.11308 0.0
C924 C 0.15503 0.31669 0.68076 0.0
C925 C 0.15732 0.32017 0.71041 0.0
C926 C 0.14384 0.29194 0.668 0.0
C927 C 0.10229 0.22345 0.68221 0.0
H928 H 0.13606 0.20798 0.6112 0.0
C929 C 0.07654 0.11875 0.62846 0.0
C930 C 0.0732 0.11687 0.59878 0.0
C931 C 0.08626 0.14317 0.64266 0.0
C932 C 0.12611 0.21197 0.63087 0.0
H933 H 0.14879 0.30002 0.74985 0.0
H934 H 0.12961 0.25665 0.72767 0.0
H935 H 0.15347 0.25051 0.63483 0.0
H936 H 0.07764 0.13968 0.56096 0.0
H937 H 0.09461 0.18199 0.58555 0.0
H938 H 0.07522 0.18454 0.67825 0.0
C939 C 0.13618 0.27321 0.71417 0.0
C940 C 0.13609 0.23655 0.6445 0.0
C941 C 0.14722 0.29814 0.72698 0.0
C942 C 0.07995 0.14019 0.58377 0.0
C943 C 0.08988 0.16456 0.59793 0.0
C944 C 0.09243 0.19873 0.66862 0.0
C945 C 0.13469 0.26961 0.6844 0.0
C946 C 0.12422 0.24288 0.67031 0.0
C947 C 0.0932 0.16648 0.62761 0.0
C948 C 0.10404 0.19266 0.6426 0.0
H949 H 0.16204 0.33323 0.66726 0.0
H950 H 0.14237 0.29039 0.64513 0.0
H951 H 0.09226 0.22745 0.70181 0.0
H952 H 0.07156 0.10132 0.64084 0.0
H953 H 0.08877 0.14374 0.66545 0.0
C954 C 0.64662 0.19036 0.50541 0.0
C955 C 0.66069 0.18757 0.53062 0.0
C956 C 0.63443 0.2115 0.50239 0.0
C957 C 0.60991 0.26336 0.54158 0.0
H958 H 0.63077 0.30215 0.47324 0.0
C959 C 0.59664 0.36823 0.53015 0.0
C960 C 0.58941 0.3757 0.50341 0.0
C961 C 0.60249 0.34388 0.5335 0.0
C962 C 0.62425 0.29134 0.49222 0.0
H963 H 0.6731 0.20443 0.57243 0.0
H964 H 0.65141 0.24132 0.56738 0.0
H965 H 0.64506 0.26159 0.47914 0.0
H966 H 0.58231 0.36308 0.45926 0.0
H967 H 0.59138 0.32033 0.46532 0.0
H968 H 0.58907 0.2931 0.55469 0.0
C969 C 0.64946 0.22699 0.55009 0.0
C970 C 0.63251 0.2681 0.4956 0.0
C971 C 0.66187 0.20595 0.55301 0.0
C972 C 0.58752 0.35794 0.48024 0.0
C973 C 0.59313 0.33351 0.48363 0.0
C974 C 0.60141 0.28652 0.53809 0.0
C975 C 0.63611 0.23024 0.52455 0.0
C976 C 0.62566 0.25399 0.52041 0.0
C977 C 0.60103 0.32629 0.51023 0.0
C978 C 0.60872 0.30094 0.51347 0.0
H979 H 0.64574 0.17654 0.48778 0.0
H980 H 0.6241 0.21344 0.48254 0.0
H981 H 0.60413 0.25273 0.56081 0.0
H982 H 0.59788 0.38123 0.54857 0.0
H983 H 0.60879 0.33913 0.55425 0.0
loop_
_geom_bond_atom_site_label_1
_geom_bond_atom_site_label_2
_geom_bond_distance
_geom_bond_site_symmetry_2
_ccdc_geom_bond_type
H0 C7 0.929 . S
H1 C10 0.930 . S
H2 C12 0.929 . S
H3 C4 0.969 . S
C4 H3 0.969 . S
C4 O5 1.550 . S
C4 H6 0.973 . S
O5 C4 1.550 . S
O5 C11 1.412 . S
H6 C4 0.973 . S
C7 H0 0.929 . S
C7 C8 1.400 . S
C7 C9 1.364 . S
C8 C7 1.400 . S
C8 C12 1.377 . S
C9 C7 1.364 . S
C9 C10 1.374 . S
C10 H1 0.930 . S
C10 C9 1.374 . S
C10 C11 1.383 . S
C11 O5 1.412 . S
C11 C10 1.383 . S
C11 C12 1.394 . S
C12 H2 0.929 . S
C12 C8 1.377 . S
C12 C11 1.394 . S
H13 C20 0.929 . S
H14 C23 0.930 . S
H15 C25 0.929 . S
H16 C17 0.969 . S
C17 H16 0.969 . S
C17 O18 1.550 . S
C17 H19 0.973 . S
O18 C17 1.550 . S
O18 C24 1.412 . S
H19 C17 0.973 . S
C20 H13 0.929 . S
C20 C21 1.400 . S
C20 C22 1.364 . S
C21 C20 1.400 . S
C21 C25 1.377 . S
C22 C20 1.364 . S
C22 C23 1.374 . S
C23 H14 0.930 . S
C23 C22 1.374 . S
C23 C24 1.383 . S
C24 O18 1.412 . S
C24 C23 1.383 . S
C24 C25 1.394 . S
C25 H15 0.929 . S
C25 C21 1.377 . S
C25 C24 1.394 . S
H26 C33 0.929 . S
H27 C36 0.930 . S
H28 C38 0.929 . S
H29 C30 0.969 . S
C30 H29 0.969 . S
C30 O31 1.550 . S
C30 H32 0.973 . S
O31 C30 1.550 . S
O31 C37 1.412 . S
H32 C30 0.973 . S
C33 H26 0.929 . S
C33 C34 1.400 . S
C33 C35 1.364 . S
C34 C33 1.400 . S
C34 C38 1.377 . S
C35 C33 1.364 . S
C35 C36 1.374 . S
C36 H27 0.930 . S
C36 C35 1.374 . S
C36 C37 1.383 . S
C37 O31 1.412 . S
C37 C36 1.383 . S
C37 C38 1.394 . S
C38 H28 0.929 . S
C38 C34 1.377 . S
C38 C37 1.394 . S
H39 C46 0.929 . S
H40 C49 0.930 . S
H41 C51 0.929 . S
H42 C43 0.969 . S
C43 H42 0.969 . S
C43 O44 1.550 . S
C43 H45 0.973 . S
O44 C43 1.550 . S
O44 C50 1.412 . S
H45 C43 0.973 . S
C46 H39 0.929 . S
C46 C47 1.400 . S
C46 C48 1.364 . S
C47 C46 1.400 . S
C47 C51 1.377 . S
C48 C46 1.364 . S
C48 C49 1.374 . S
C49 H40 0.930 . S
C49 C48 1.374 . S
C49 C50 1.383 . S
C50 O44 1.412 . S
C50 C49 1.383 . S
C50 C51 1.394 . S
C51 H41 0.929 . S
C51 C47 1.377 . S
C51 C50 1.394 . S
H52 C59 0.929 . S
H53 C62 0.930 . S
H54 C64 0.929 . S
H55 C56 0.969 . S
C56 H55 0.969 . S
C56 O57 1.550 . S
C56 H58 0.973 . S
O57 C56 1.550 . S
O57 C63 1.412 . S
H58 C56 0.973 . S
C59 H52 0.929 . S
C59 C60 1.400 . S
C59 C61 1.364 . S
C60 C59 1.400 . S
C60 C64 1.377 . S
C61 C59 1.364 . S
C61 C62 1.374 . S
C62 H53 0.930 . S
C62 C61 1.374 . S
C62 C63 1.383 . S
C63 O57 1.412 . S
C63 C62 1.383 . S
C63 C64 1.394 . S
C64 H54 0.929 . S
C64 C60 1.377 . S
C64 C63 1.394 . S
H65 C72 0.929 . S
H66 C75 0.930 . S
H67 C77 0.929 . S
H68 C69 0.969 . S
C69 H68 0.969 . S
C69 O70 1.550 . S
C69 H71 0.973 . S
O70 C69 1.550 . S
O70 C76 1.412 . S
H71 C69 0.973 . S
C72 H65 0.929 . S
C72 C73 1.400 . S
C72 C74 1.364 . S
C73 C72 1.400 . S
C73 C77 1.377 . S
C74 C72 1.364 . S
C74 C75 1.374 . S
C75 H66 0.930 . S
C75 C74 1.374 . S
C75 C76 1.383 . S
C76 O70 1.412 . S
C76 C75 1.383 . S
C76 C77 1.394 . S
C77 H67 0.929 . S
C77 C73 1.377 . S
C77 C76 1.394 . S
H78 C85 0.929 . S
H79 C88 0.930 . S
H80 C90 0.929 . S
H81 C82 0.969 . S
C82 H81 0.969 . S
C82 O83 1.550 . S
C82 H84 0.973 . S
O83 C82 1.550 . S
O83 C89 1.412 . S
H84 C82 0.973 . S
C85 H78 0.929 . S
C85 C86 1.400 . S
C85 C87 1.364 . S
C86 C85 1.400 . S
C86 C90 1.377 . S
C87 C85 1.364 . S
C87 C88 1.374 . S
C88 H79 0.930 . S
C88 C87 1.374 . S
C88 C89 1.383 . S
C89 O83 1.412 . S
C89 C88 1.383 . S
C89 C90 1.394 . S
C90 H80 0.929 . S
C90 C86 1.377 . S
C90 C89 1.394 . S
H91 C98 0.929 . S
H92 C101 0.930 . S
H93 C103 0.929 . S
H94 C95 0.969 . S
C95 H94 0.969 . S
C95 O96 1.550 . S
C95 H97 0.973 . S
O96 C95 1.550 . S
O96 C102 1.412 . S
H97 C95 0.973 . S
C98 H91 0.929 . S
C98 C99 1.400 . S
C98 C100 1.364 . S
C99 C98 1.400 . S
C99 C103 1.377 . S
C100 C98 1.364 . S
C100 C101 1.374 . S
C101 H92 0.930 . S
C101 C100 1.374 . S
C101 C102 1.383 . S
C102 O96 1.412 . S
C102 C101 1.383 . S
C102 C103 1.394 . S
C103 H93 0.929 . S
C103 C99 1.377 . S
C103 C102 1.394 . S
Sm104 C106 2.846 . S
Sm104 O124 2.543 . S
Sm104 O125 2.450 . S
Sm104 O126 2.681 . S
Sm104 O127 2.464 . S
Sm104 O128 2.396 . S
Sm104 O132 2.386 . S
Sm104 O135 2.408 1_545 S
Sm105 C115 2.846 1_445 S
Sm105 O126 2.385 . S
Sm105 O129 2.408 . S
Sm105 O130 2.543 1_445 S
Sm105 O131 2.450 1_445 S
Sm105 O132 2.681 . S
Sm105 O133 2.464 1_455 S
Sm105 O134 2.396 1_445 S
C106 Sm104 2.846 . S
C106 C107 1.506 . S
C106 O124 1.261 . S
C106 O125 1.242 . S
C107 C106 1.506 . S
C107 C108 1.358 . S
C107 C112 1.382 . S
C108 C107 1.358 . S
C108 C109 1.385 . S
C108 H136 0.930 . S
C109 C108 1.385 . S
C109 C110 1.395 . S
C109 H137 0.929 . S
C110 C109 1.395 . S
C110 C111 1.335 . S
C111 C110 1.335 . S
C111 C112 1.398 . S
C111 H138 0.930 . S
C112 C107 1.382 . S
C112 C111 1.398 . S
C112 H139 0.929 . S
C113 O126 1.271 1_565 S
C113 O127 1.251 1_565 S
C114 O128 1.252 . S
C114 O129 1.272 . S
C115 Sm105 2.846 1_665 S
C115 C116 1.506 . S
C115 O130 1.261 . S
C115 O131 1.242 . S
C116 C115 1.506 . S
C116 C117 1.358 . S
C116 C121 1.382 . S
C117 C116 1.358 . S
C117 C118 1.385 . S
C117 H140 0.930 . S
C118 C117 1.385 . S
C118 C119 1.395 . S
C118 H141 0.929 . S
C119 C118 1.395 . S
C119 C120 1.335 . S
C120 C119 1.335 . S
C120 C121 1.398 . S
C120 H142 0.930 . S
C121 C116 1.382 . S
C121 C120 1.398 . S
C121 H143 0.929 . S
C122 O132 1.271 1_655 S
C122 O133 1.251 . S
C123 O134 1.252 . S
C123 O135 1.272 1_655 S
O124 Sm104 2.543 . S
O124 C106 1.261 . S
O125 Sm104 2.450 . S
O125 C106 1.242 . S
O126 Sm104 2.681 . S
O126 Sm105 2.385 . S
O126 C113 1.271 1_545 S
O127 Sm104 2.464 . S
O127 C113 1.251 1_545 S
O128 Sm104 2.396 . S
O128 C114 1.252 . S
O129 Sm105 2.408 . S
O129 C114 1.272 . S
O130 Sm105 2.543 1_665 S
O130 C115 1.261 . S
O131 Sm105 2.450 1_665 S
O131 C115 1.242 . S
O132 Sm104 2.386 . S
O132 Sm105 2.681 . S
O132 C122 1.271 1_455 S
O133 Sm105 2.464 1_655 S
O133 C122 1.251 . S
O134 Sm105 2.396 1_665 S
O134 C123 1.252 . S
O135 Sm104 2.408 1_565 S
O135 C123 1.272 1_455 S
H136 C108 0.930 . S
H137 C109 0.929 . S
H138 C111 0.930 . S
H139 C112 0.929 . S
H140 C117 0.930 . S
H141 C118 0.929 . S
H142 C120 0.930 . S
H143 C121 0.929 . S
Sm144 C146 2.846 . S
Sm144 O164 2.543 . S
Sm144 O165 2.450 . S
Sm144 O166 2.681 1_545 S
Sm144 O167 2.464 1_545 S
Sm144 O168 2.396 . S
Sm144 O172 2.386 . S
Sm144 O175 2.408 1_544 S
Sm145 C155 2.846 1_545 S
Sm145 O166 2.386 1_546 S
Sm145 O169 2.408 1_556 S
Sm145 O170 2.543 1_545 S
Sm145 O171 2.449 1_545 S
Sm145 O172 2.681 1_556 S
Sm145 O173 2.464 . S
Sm145 O174 2.396 1_545 S
C146 Sm144 2.846 . S
C146 C147 1.506 . S
C146 O164 1.261 . S
C146 O165 1.242 . S
C147 C146 1.506 . S
C147 C148 1.358 . S
C147 C152 1.382 . S
C148 C147 1.358 . S
C148 C149 1.385 . S
C148 H176 0.930 . S
C149 C148 1.385 . S
C149 C150 1.395 . S
C149 H177 0.929 . S
C150 C149 1.395 . S
C150 C151 1.335 . S
C151 C150 1.335 . S
C151 C152 1.398 . S
C151 H178 0.930 . S
C152 C147 1.382 . S
C152 C151 1.398 . S
C152 H179 0.929 . S
C153 O166 1.271 . S
C153 O167 1.251 . S
C154 O168 1.252 . S
C154 O169 1.272 . S
C155 Sm145 2.846 1_565 S
C155 C156 1.506 . S
C155 O170 1.261 . S
C155 O171 1.252 . S
C156 C155 1.506 . S
C156 C157 1.358 . S
C156 C161 1.382 . S
C157 C156 1.358 . S
C157 C158 1.385 . S
C157 H180 0.930 . S
C158 C157 1.385 . S
C158 C159 1.395 . S
C158 H181 0.929 . S
C159 C158 1.395 . S
C159 C160 1.335 . S
C160 C159 1.335 . S
C160 C161 1.398 . S
C160 H182 0.930 . S
C161 C156 1.382 . S
C161 C160 1.398 . S
C161 H183 0.929 . S
C162 O172 1.271 1_556 S
C162 O173 1.251 . S
C163 O174 1.252 . S
C163 O175 1.272 . S
O164 Sm144 2.543 . S
O164 C146 1.261 . S
O165 Sm144 2.450 . S
O165 C146 1.242 . S
O166 Sm144 2.681 1_565 S
O166 Sm145 2.386 1_564 S
O166 C153 1.271 . S
O167 Sm144 2.464 1_565 S
O167 C153 1.251 . S
O168 Sm144 2.396 . S
O168 C154 1.252 . S
O169 Sm145 2.408 1_554 S
O169 C154 1.272 . S
O170 Sm145 2.543 1_565 S
O170 C155 1.261 . S
O171 Sm145 2.449 1_565 S
O171 C155 1.252 . S
O172 Sm144 2.386 . S
O172 Sm145 2.681 1_554 S
O172 C162 1.271 1_554 S
O173 Sm145 2.464 . S
O173 C162 1.251 . S
O174 Sm145 2.396 1_565 S
O174 C163 1.252 . S
O175 Sm144 2.408 1_566 S
O175 C163 1.272 . S
H176 C148 0.930 . S
H177 C149 0.929 . S
H178 C151 0.930 . S
H179 C152 0.929 . S
H180 C157 0.930 . S
H181 C158 0.929 . S
H182 C160 0.930 . S
H183 C161 0.929 . S
Sm184 C186 2.846 . S
Sm184 O204 2.543 . S
Sm184 O205 2.450 . S
Sm184 O206 2.681 . S
Sm184 O207 2.464 . S
Sm184 O208 2.396 . S
Sm184 O212 2.386 . S
Sm184 O215 2.408 . S
Sm185 C195 2.846 . S
Sm185 O206 2.386 . S
Sm185 O209 2.408 . S
Sm185 O210 2.543 . S
Sm185 O211 2.450 . S
Sm185 O212 2.681 . S
Sm185 O213 2.464 . S
Sm185 O214 2.396 . S
C186 Sm184 2.846 . S
C186 C187 1.506 . S
C186 O204 1.261 . S
C186 O205 1.242 . S
C187 C186 1.506 . S
C187 C188 1.358 . S
C187 C192 1.382 . S
C188 C187 1.358 . S
C188 C189 1.385 . S
C188 H216 0.930 . S
C189 C188 1.385 . S
C189 C190 1.395 . S
C189 H217 0.929 . S
C190 C189 1.395 . S
C190 C191 1.335 . S
C191 C190 1.335 . S
C191 C192 1.398 . S
C191 H218 0.930 . S
C192 C187 1.382 . S
C192 C191 1.398 . S
C192 H219 0.929 . S
C193 O206 1.271 . S
C193 O207 1.251 . S
C194 O208 1.252 . S
C194 O209 1.272 . S
C195 Sm185 2.846 . S
C195 C196 1.506 . S
C195 O210 1.261 . S
C195 O211 1.242 . S
C196 C195 1.506 . S
C196 C197 1.358 . S
C196 C201 1.382 . S
C197 C196 1.358 . S
C197 C198 1.385 . S
C197 H220 0.930 . S
C198 C197 1.385 . S
C198 C199 1.395 . S
C198 H221 0.929 . S
C199 C198 1.395 . S
C199 C200 1.335 . S
C200 C199 1.335 . S
C200 C201 1.398 . S
C200 H222 0.930 . S
C201 C196 1.382 . S
C201 C200 1.398 . S
C201 H223 0.929 . S
C202 O212 1.271 . S
C202 O213 1.251 . S
C203 O214 1.252 . S
C203 O215 1.272 . S
O204 Sm184 2.543 . S
O204 C186 1.261 . S
O205 Sm184 2.450 . S
O205 C186 1.242 . S
O206 Sm184 2.681 . S
O206 Sm185 2.386 . S
O206 C193 1.271 . S
O207 Sm184 2.464 . S
O207 C193 1.251 . S
O208 Sm184 2.396 . S
O208 C194 1.252 . S
O209 Sm185 2.408 . S
O209 C194 1.272 . S
O210 Sm185 2.543 . S
O210 C195 1.261 . S
O211 Sm185 2.450 . S
O211 C195 1.242 . S
O212 Sm184 2.386 . S
O212 Sm185 2.681 . S
O212 C202 1.271 . S
O213 Sm185 2.464 . S
O213 C202 1.251 . S
O214 Sm185 2.396 . S
O214 C203 1.252 . S
O215 Sm184 2.408 . S
O215 C203 1.272 . S
H216 C188 0.930 . S
H217 C189 0.929 . S
H218 C191 0.930 . S
H219 C192 0.929 . S
H220 C197 0.930 . S
H221 C198 0.929 . S
H222 C200 0.930 . S
H223 C201 0.929 . S
Sm224 C226 2.846 . S
Sm224 O244 2.543 . S
Sm224 O245 2.450 . S
Sm224 O246 2.681 . S
Sm224 O247 2.464 . S
Sm224 O248 2.396 . S
Sm224 O252 2.386 . S
Sm224 O255 2.408 1_455 S
Sm225 C235 2.846 1_454 S
Sm225 O246 2.386 . S
Sm225 O249 2.408 . S
Sm225 O250 2.543 1_455 S
Sm225 O251 2.450 1_554 S
Sm225 O252 2.681 . S
Sm225 O253 2.464 1_554 S
Sm225 O254 2.404 1_455 S
C226 Sm224 2.846 . S
C226 C227 1.506 . S
C226 O244 1.261 . S
C226 O245 1.242 . S
C227 C226 1.506 . S
C227 C228 1.358 . S
C227 C232 1.382 . S
C228 C227 1.358 . S
C228 C229 1.385 . S
C228 H256 0.930 . S
C229 C228 1.385 . S
C229 C230 1.395 . S
C229 H257 0.929 . S
C230 C229 1.395 . S
C230 C231 1.335 . S
C231 C230 1.335 . S
C231 C232 1.398 . S
C231 H258 0.930 . S
C232 C227 1.382 . S
C232 C231 1.398 . S
C232 H259 0.929 . S
C233 O246 1.271 . S
C233 O247 1.251 . S
C234 O248 1.252 . S
C234 O249 1.272 . S
C235 Sm225 2.846 1_656 S
C235 C236 1.506 . S
C235 O250 1.261 1_556 S
C235 O251 1.242 1_655 S
C236 C235 1.506 . S
C236 C237 1.358 . S
C236 C241 1.382 . S
C237 C236 1.358 . S
C237 C238 1.385 . S
C237 H260 0.930 1_556 S
C238 C237 1.385 . S
C238 C239 1.395 . S
C238 H261 0.929 . S
C239 C238 1.395 . S
C239 C240 1.335 . S
C240 C239 1.335 . S
C240 C241 1.398 . S
C240 H262 0.930 . S
C241 C236 1.382 . S
C241 C240 1.398 . S
C241 H263 0.929 . S
C242 O252 1.271 1_556 S
C242 O253 1.251 . S
C243 O254 1.267 . S
C243 O255 1.272 . S
O244 Sm224 2.543 . S
O244 C226 1.261 . S
O245 Sm224 2.450 . S
O245 C226 1.242 . S
O246 Sm224 2.681 . S
O246 Sm225 2.386 . S
O246 C233 1.271 . S
O247 Sm224 2.464 . S
O247 C233 1.251 . S
O248 Sm224 2.396 . S
O248 C234 1.252 . S
O249 Sm225 2.408 . S
O249 C234 1.272 . S
O250 Sm225 2.543 1_655 S
O250 C235 1.261 1_554 S
O251 Sm225 2.450 1_556 S
O251 C235 1.242 1_455 S
O252 Sm224 2.386 . S
O252 Sm225 2.681 . S
O252 C242 1.271 1_554 S
O253 Sm225 2.464 1_556 S
O253 C242 1.251 . S
O254 Sm225 2.404 1_655 S
O254 C243 1.267 . S
O255 Sm224 2.408 1_655 S
O255 C243 1.272 . S
H256 C228 0.930 . S
H257 C229 0.929 . S
H258 C231 0.930 . S
H259 C232 0.929 . S
H260 C237 0.930 1_554 S
H261 C238 0.929 . S
H262 C240 0.930 . S
H263 C241 0.929 . S
C264 C265 1.349 . S
C264 C266 1.327 . S
C264 H289 0.950 . S
C265 C264 1.349 . S
C265 C281 1.349 . S
C266 C264 1.327 . S
C266 C285 1.429 . S
C266 H290 0.950 . S
C267 C284 1.574 . S
C267 C286 1.368 . S
C267 H291 0.949 . S
H268 C272 0.949 . S
C269 C270 1.349 . S
C269 C271 1.327 . S
C269 H292 0.950 . S
C270 C269 1.349 . S
C270 C282 1.349 . S
C271 C269 1.327 . S
C271 C287 1.429 . S
C271 H293 0.950 . S
C272 H268 0.949 . S
C272 C280 1.574 . S
C272 C288 1.368 . S
H273 C281 0.950 . S
H274 C279 0.950 . S
H275 C280 0.949 . S
H276 C282 0.950 . S
H277 C283 0.950 . S
H278 C284 0.949 . S
C279 H274 0.950 . S
C279 C281 1.327 . S
C279 C285 1.429 . S
C280 C272 1.574 . S
C280 H275 0.949 . S
C280 C286 1.368 . S
C281 C265 1.349 . S
C281 H273 0.950 . S
C281 C279 1.327 . S
C282 C270 1.349 . S
C282 H276 0.950 . S
C282 C283 1.327 . S
C283 H277 0.950 . S
C283 C282 1.327 . S
C283 C287 1.429 . S
C284 C267 1.574 . S
C284 H278 0.949 . S
C284 C288 1.368 . S
C285 C266 1.429 . S
C285 C279 1.429 . S
C285 C286 1.523 . S
C286 C267 1.368 . S
C286 C280 1.368 . S
C286 C285 1.523 . S
C287 C271 1.429 . S
C287 C283 1.429 . S
C287 C288 1.523 . S
C288 C272 1.368 . S
C288 C284 1.368 . S
C288 C287 1.523 . S
H289 C264 0.950 . S
H290 C266 0.950 . S
H291 C267 0.949 . S
H292 C269 0.950 . S
H293 C271 0.950 . S
C294 C295 1.349 . S
C294 C296 1.327 . S
C294 H319 0.950 . S
C295 C294 1.349 . S
C295 C311 1.349 . S
C296 C294 1.327 . S
C296 C315 1.429 . S
C296 H320 0.950 . S
C297 C314 1.574 . S
C297 C316 1.368 . S
C297 H321 0.949 . S
H298 C302 0.949 . S
C299 C300 1.349 . S
C299 C301 1.327 . S
C299 H322 0.950 . S
C300 C299 1.349 . S
C300 C312 1.349 . S
C301 C299 1.327 . S
C301 C317 1.429 . S
C301 H323 0.950 . S
C302 H298 0.949 . S
C302 C310 1.574 . S
C302 C318 1.368 . S
H303 C311 0.950 . S
H304 C309 0.950 . S
H305 C310 0.949 . S
H306 C312 0.950 . S
H307 C313 0.950 . S
H308 C314 0.949 . S
C309 H304 0.950 . S
C309 C311 1.327 . S
C309 C315 1.429 . S
C310 C302 1.574 . S
C310 H305 0.949 . S
C310 C316 1.368 . S
C311 C295 1.349 . S
C311 H303 0.950 . S
C311 C309 1.327 . S
C312 C300 1.349 . S
C312 H306 0.950 . S
C312 C313 1.327 . S
C313 H307 0.950 . S
C313 C312 1.327 . S
C313 C317 1.429 . S
C314 C297 1.574 . S
C314 H308 0.949 . S
C314 C318 1.368 . S
C315 C296 1.429 . S
C315 C309 1.429 . S
C315 C316 1.523 . S
C316 C297 1.368 . S
C316 C310 1.368 . S
C316 C315 1.523 . S
C317 C301 1.429 . S
C317 C313 1.429 . S
C317 C318 1.523 . S
C318 C302 1.368 . S
C318 C314 1.368 . S
C318 C317 1.523 . S
H319 C294 0.950 . S
H320 C296 0.950 . S
H321 C297 0.949 . S
H322 C299 0.950 . S
H323 C301 0.950 . S
C324 C325 1.349 . S
C324 C326 1.327 . S
C324 H349 0.950 . S
C325 C324 1.349 . S
C325 C341 1.349 . S
C326 C324 1.327 . S
C326 C345 1.429 . S
C326 H350 0.950 . S
C327 C344 1.574 . S
C327 C346 1.368 . S
C327 H351 0.949 . S
H328 C332 0.949 . S
C329 C330 1.349 . S
C329 C331 1.327 . S
C329 H352 0.950 . S
C330 C329 1.349 . S
C330 C342 1.349 . S
C331 C329 1.327 . S
C331 C347 1.429 . S
C331 H353 0.950 . S
C332 H328 0.949 . S
C332 C340 1.574 . S
C332 C348 1.368 . S
H333 C341 0.950 . S
H334 C339 0.950 . S
H335 C340 0.949 . S
H336 C342 0.950 . S
H337 C343 0.950 . S
H338 C344 0.949 . S
C339 H334 0.950 . S
C339 C341 1.327 . S
C339 C345 1.429 . S
C340 C332 1.574 . S
C340 H335 0.949 . S
C340 C346 1.368 . S
C341 C325 1.349 . S
C341 H333 0.950 . S
C341 C339 1.327 . S
C342 C330 1.349 . S
C342 H336 0.950 . S
C342 C343 1.327 . S
C343 H337 0.950 . S
C343 C342 1.327 . S
C343 C347 1.429 . S
C344 C327 1.574 . S
C344 H338 0.949 . S
C344 C348 1.368 . S
C345 C326 1.429 . S
C345 C339 1.429 . S
C345 C346 1.523 . S
C346 C327 1.368 . S
C346 C340 1.368 . S
C346 C345 1.523 . S
C347 C331 1.429 . S
C347 C343 1.429 . S
C347 C348 1.523 . S
C348 C332 1.368 . S
C348 C344 1.368 . S
C348 C347 1.523 . S
H349 C324 0.950 . S
H350 C326 0.950 . S
H351 C327 0.949 . S
H352 C329 0.950 . S
H353 C331 0.950 . S
C354 C355 1.349 . S
C354 C356 1.327 . S
C354 H379 0.950 . S
C355 C354 1.349 . S
C355 C371 1.349 . S
C356 C354 1.327 . S
C356 C375 1.429 . S
C356 H380 0.950 . S
C357 C374 1.574 . S
C357 C376 1.368 . S
C357 H381 0.949 . S
H358 C362 0.949 . S
C359 C360 1.349 . S
C359 C361 1.327 . S
C359 H382 0.950 . S
C360 C359 1.349 . S
C360 C372 1.349 1_655 S
C361 C359 1.327 . S
C361 C377 1.429 . S
C361 H383 0.950 . S
C362 H358 0.949 . S
C362 C370 1.574 . S
C362 C378 1.368 . S
H363 C371 0.950 . S
H364 C369 0.950 . S
H365 C370 0.949 . S
H366 C372 0.950 . S
H367 C373 0.950 1_455 S
H368 C374 0.949 . S
C369 H364 0.950 . S
C369 C371 1.327 . S
C369 C375 1.429 . S
C370 C362 1.574 . S
C370 H365 0.949 . S
C370 C376 1.368 . S
C371 C355 1.349 . S
C371 H363 0.950 . S
C371 C369 1.327 . S
C372 C360 1.349 1_455 S
C372 H366 0.950 . S
C372 C373 1.327 1_455 S
C373 H367 0.950 1_655 S
C373 C372 1.327 1_655 S
C373 C377 1.429 . S
C374 C357 1.574 . S
C374 H368 0.949 . S
C374 C378 1.368 . S
C375 C356 1.429 . S
C375 C369 1.429 . S
C375 C376 1.523 . S
C376 C357 1.368 . S
C376 C370 1.368 . S
C376 C375 1.523 . S
C377 C361 1.429 . S
C377 C373 1.429 . S
C377 C378 1.523 . S
C378 C362 1.368 . S
C378 C374 1.368 . S
C378 C377 1.523 . S
H379 C354 0.950 . S
H380 C356 0.950 . S
H381 C357 0.949 . S
H382 C359 0.950 . S
H383 C361 0.950 . S
C384 C385 1.349 . S
C384 C386 1.327 . S
C384 H409 0.950 . S
C385 C384 1.349 . S
C385 C401 1.349 . S
C386 C384 1.327 . S
C386 C405 1.429 . S
C386 H410 0.950 . S
C387 C404 1.574 . S
C387 C406 1.368 . S
C387 H411 0.949 . S
H388 C392 0.949 . S
C389 C390 1.349 . S
C389 C391 1.327 . S
C389 H412 0.950 . S
C390 C389 1.349 . S
C390 C402 1.349 . S
C391 C389 1.327 . S
C391 C407 1.429 . S
C391 H413 0.950 . S
C392 H388 0.949 . S
C392 C400 1.574 . S
C392 C408 1.368 . S
H393 C401 0.950 . S
H394 C399 0.950 . S
H395 C400 0.949 . S
H396 C402 0.950 . S
H397 C403 0.950 . S
H398 C404 0.949 . S
C399 H394 0.950 . S
C399 C401 1.327 . S
C399 C405 1.429 . S
C400 C392 1.574 . S
C400 H395 0.949 . S
C400 C406 1.368 . S
C401 C385 1.349 . S
C401 H393 0.950 . S
C401 C399 1.327 . S
C402 C390 1.349 . S
C402 H396 0.950 . S
C402 C403 1.327 . S
C403 H397 0.950 . S
C403 C402 1.327 . S
C403 C407 1.429 . S
C404 C387 1.574 . S
C404 H398 0.949 . S
C404 C408 1.368 . S
C405 C386 1.429 . S
C405 C399 1.429 . S
C405 C406 1.523 . S
C406 C387 1.368 . S
C406 C400 1.368 . S
C406 C405 1.523 . S
C407 C391 1.429 . S
C407 C403 1.429 . S
C407 C408 1.523 . S
C408 C392 1.368 . S
C408 C404 1.368 . S
C408 C407 1.523 . S
H409 C384 0.950 . S
H410 C386 0.950 . S
H411 C387 0.949 . S
H412 C389 0.950 . S
H413 C391 0.950 . S
C414 C415 1.349 . S
C414 C416 1.327 . S
C414 H439 0.950 . S
C415 C414 1.349 . S
C415 C431 1.349 . S
C416 C414 1.327 . S
C416 C435 1.429 . S
C416 H440 0.950 . S
C417 C434 1.574 . S
C417 C436 1.368 . S
C417 H441 0.949 . S
H418 C422 0.949 . S
C419 C420 1.349 . S
C419 C421 1.327 . S
C419 H442 0.950 . S
C420 C419 1.349 . S
C420 C432 1.349 . S
C421 C419 1.327 . S
C421 C437 1.429 . S
C421 H443 0.950 . S
C422 H418 0.949 . S
C422 C430 1.574 . S
C422 C438 1.368 . S
H423 C431 0.950 . S
H424 C429 0.950 . S
H425 C430 0.949 . S
H426 C432 0.950 1_545 S
H427 C433 0.950 . S
H428 C434 0.949 . S
C429 H424 0.950 . S
C429 C431 1.327 . S
C429 C435 1.429 . S
C430 C422 1.574 . S
C430 H425 0.949 . S
C430 C436 1.368 . S
C431 C415 1.349 . S
C431 H423 0.950 . S
C431 C429 1.327 . S
C432 C420 1.349 . S
C432 H426 0.950 1_565 S
C432 C433 1.327 . S
C433 H427 0.950 . S
C433 C432 1.327 . S
C433 C437 1.429 . S
C434 C417 1.574 . S
C434 H428 0.949 . S
C434 C438 1.368 . S
C435 C416 1.429 . S
C435 C429 1.429 . S
C435 C436 1.523 . S
C436 C417 1.368 . S
C436 C430 1.368 . S
C436 C435 1.523 . S
C437 C421 1.429 . S
C437 C433 1.429 . S
C437 C438 1.523 . S
C438 C422 1.368 . S
C438 C434 1.368 . S
C438 C437 1.523 . S
H439 C414 0.950 . S
H440 C416 0.950 . S
H441 C417 0.949 . S
H442 C419 0.950 . S
H443 C421 0.950 . S
C444 C445 1.349 . S
C444 C446 1.327 . S
C444 H469 0.950 . S
C445 C444 1.349 . S
C445 C461 1.349 . S
C446 C444 1.327 . S
C446 C465 1.429 . S
C446 H470 0.950 . S
C447 C464 1.574 . S
C447 C466 1.368 . S
C447 H471 0.949 . S
H448 C452 0.949 . S
C449 C450 1.340 1_556 S
C449 C451 1.327 . S
C449 H472 0.950 . S
C450 C449 1.340 1_554 S
C450 C462 1.342 1_554 S
C451 C449 1.327 . S
C451 C467 1.429 . S
C451 H473 0.950 . S
C452 H448 0.949 . S
C452 C460 1.574 . S
C452 C468 1.368 . S
H453 C461 0.950 . S
H454 C459 0.950 . S
H455 C460 0.949 . S
H456 C462 0.950 1_554 S
H457 C463 0.950 . S
H458 C464 0.949 . S
C459 H454 0.950 . S
C459 C461 1.327 . S
C459 C465 1.429 . S
C460 C452 1.574 . S
C460 H455 0.949 . S
C460 C466 1.368 . S
C461 C445 1.349 . S
C461 H453 0.950 . S
C461 C459 1.327 . S
C462 C450 1.342 1_556 S
C462 H456 0.950 1_556 S
C462 C463 1.327 . S
C463 H457 0.950 . S
C463 C462 1.327 . S
C463 C467 1.429 . S
C464 C447 1.574 . S
C464 H458 0.949 . S
C464 C468 1.368 . S
C465 C446 1.429 . S
C465 C459 1.429 . S
C465 C466 1.523 . S
C466 C447 1.368 . S
C466 C460 1.368 . S
C466 C465 1.523 . S
C467 C451 1.429 . S
C467 C463 1.429 . S
C467 C468 1.523 . S
C468 C452 1.368 . S
C468 C464 1.368 . S
C468 C467 1.523 . S
H469 C444 0.950 . S
H470 C446 0.950 . S
H471 C447 0.949 . S
H472 C449 0.950 . S
H473 C451 0.950 . S
C474 C475 1.349 . S
C474 C476 1.327 . S
C474 H499 0.950 . S
C475 C474 1.349 . S
C475 C491 1.349 . S
C476 C474 1.327 . S
C476 C495 1.429 . S
C476 H500 0.950 . S
C477 C494 1.574 . S
C477 C496 1.368 . S
C477 H501 0.949 . S
H478 C482 0.949 . S
C479 C480 1.349 . S
C479 C481 1.327 . S
C479 H502 0.950 . S
C480 C479 1.349 . S
C480 C492 1.349 . S
C481 C479 1.327 . S
C481 C497 1.429 . S
C481 H503 0.950 . S
C482 H478 0.949 . S
C482 C490 1.574 . S
C482 C498 1.368 . S
H483 C491 0.950 . S
H484 C489 0.950 . S
H485 C490 0.949 . S
H486 C492 0.950 . S
H487 C493 0.950 . S
H488 C494 0.949 . S
C489 H484 0.950 . S
C489 C491 1.327 . S
C489 C495 1.429 . S
C490 C482 1.574 . S
C490 H485 0.949 . S
C490 C496 1.368 . S
C491 C475 1.349 . S
C491 H483 0.950 . S
C491 C489 1.327 . S
C492 C480 1.349 . S
C492 H486 0.950 . S
C492 C493 1.327 . S
C493 H487 0.950 . S
C493 C492 1.327 . S
C493 C497 1.429 . S
C494 C477 1.574 . S
C494 H488 0.949 . S
C494 C498 1.368 . S
C495 C476 1.429 . S
C495 C489 1.429 . S
C495 C496 1.523 . S
C496 C477 1.368 . S
C496 C490 1.368 . S
C496 C495 1.523 . S
C497 C481 1.429 . S
C497 C493 1.429 . S
C497 C498 1.523 . S
C498 C482 1.368 . S
C498 C494 1.368 . S
C498 C497 1.523 . S
H499 C474 0.950 . S
H500 C476 0.950 . S
H501 C477 0.949 . S
H502 C479 0.950 . S
H503 C481 0.950 . S
C504 C505 1.349 . S
C504 C506 1.327 . S
C504 H529 0.950 . S
C505 C504 1.349 . S
C505 C521 1.349 . S
C506 C504 1.327 . S
C506 C525 1.429 . S
C506 H530 0.950 . S
C507 C524 1.574 . S
C507 C526 1.368 . S
C507 H531 0.949 . S
H508 C512 0.949 . S
C509 C510 1.349 . S
C509 C511 1.327 . S
C509 H532 0.950 . S
C510 C509 1.349 . S
C510 C522 1.349 . S
C511 C509 1.327 . S
C511 C527 1.429 . S
C511 H533 0.950 . S
C512 H508 0.949 . S
C512 C520 1.574 . S
C512 C528 1.368 . S
H513 C521 0.950 . S
H514 C519 0.950 . S
H515 C520 0.949 . S
H516 C522 0.950 . S
H517 C523 0.950 . S
H518 C524 0.949 . S
C519 H514 0.950 . S
C519 C521 1.327 . S
C519 C525 1.429 . S
C520 C512 1.574 . S
C520 H515 0.949 . S
C520 C526 1.368 . S
C521 C505 1.349 . S
C521 H513 0.950 . S
C521 C519 1.327 . S
C522 C510 1.349 . S
C522 H516 0.950 . S
C522 C523 1.327 . S
C523 H517 0.950 . S
C523 C522 1.327 . S
C523 C527 1.429 . S
C524 C507 1.574 . S
C524 H518 0.949 . S
C524 C528 1.368 . S
C525 C506 1.429 . S
C525 C519 1.429 . S
C525 C526 1.523 . S
C526 C507 1.368 . S
C526 C520 1.368 . S
C526 C525 1.523 . S
C527 C511 1.429 . S
C527 C523 1.429 . S
C527 C528 1.523 . S
C528 C512 1.368 . S
C528 C524 1.368 . S
C528 C527 1.523 . S
H529 C504 0.950 . S
H530 C506 0.950 . S
H531 C507 0.949 . S
H532 C509 0.950 . S
H533 C511 0.950 . S
C534 C535 1.349 . S
C534 C536 1.327 . S
C534 H559 0.950 . S
C535 C534 1.349 . S
C535 C551 1.349 . S
C536 C534 1.327 . S
C536 C555 1.429 . S
C536 H560 0.950 . S
C537 C554 1.574 . S
C537 C556 1.368 . S
C537 H561 0.949 . S
H538 C542 0.949 . S
C539 C540 1.349 . S
C539 C541 1.327 . S
C539 H562 0.950 . S
C540 C539 1.349 . S
C540 C552 1.349 . S
C541 C539 1.327 . S
C541 C557 1.429 . S
C541 H563 0.950 . S
C542 H538 0.949 . S
C542 C550 1.574 . S
C542 C558 1.368 . S
H543 C551 0.950 . S
H544 C549 0.950 . S
H545 C550 0.949 . S
H546 C552 0.950 . S
H547 C553 0.950 . S
H548 C554 0.949 . S
C549 H544 0.950 . S
C549 C551 1.327 . S
C549 C555 1.429 . S
C550 C542 1.574 . S
C550 H545 0.949 . S
C550 C556 1.368 . S
C551 C535 1.349 . S
C551 H543 0.950 . S
C551 C549 1.327 . S
C552 C540 1.349 . S
C552 H546 0.950 . S
C552 C553 1.327 . S
C553 H547 0.950 . S
C553 C552 1.327 . S
C553 C557 1.429 . S
C554 C537 1.574 . S
C554 H548 0.949 . S
C554 C558 1.368 . S
C555 C536 1.429 . S
C555 C549 1.429 . S
C555 C556 1.523 . S
C556 C537 1.368 . S
C556 C550 1.368 . S
C556 C555 1.523 . S
C557 C541 1.429 . S
C557 C553 1.429 . S
C557 C558 1.523 . S
C558 C542 1.368 . S
C558 C554 1.368 . S
C558 C557 1.523 . S
H559 C534 0.950 . S
H560 C536 0.950 . S
H561 C537 0.949 . S
H562 C539 0.950 . S
H563 C541 0.950 . S
C564 C565 1.349 . S
C564 C566 1.327 . S
C564 H589 0.950 . S
C565 C564 1.349 . S
C565 C581 1.349 . S
C566 C564 1.327 . S
C566 C585 1.429 . S
C566 H590 0.950 . S
C567 C584 1.574 . S
C567 C586 1.368 . S
C567 H591 0.949 . S
H568 C572 0.949 . S
C569 C570 1.349 . S
C569 C571 1.327 . S
C569 H592 0.950 . S
C570 C569 1.349 . S
C570 C582 1.349 . S
C571 C569 1.327 . S
C571 C587 1.429 . S
C571 H593 0.950 . S
C572 H568 0.949 . S
C572 C580 1.574 . S
C572 C588 1.368 . S
H573 C581 0.950 . S
H574 C579 0.950 . S
H575 C580 0.949 . S
H576 C582 0.950 . S
H577 C583 0.950 . S
H578 C584 0.949 . S
C579 H574 0.950 . S
C579 C581 1.327 . S
C579 C585 1.429 . S
C580 C572 1.574 . S
C580 H575 0.949 . S
C580 C586 1.368 . S
C581 C565 1.349 . S
C581 H573 0.950 . S
C581 C579 1.327 . S
C582 C570 1.349 . S
C582 H576 0.950 . S
C582 C583 1.327 . S
C583 H577 0.950 . S
C583 C582 1.327 . S
C583 C587 1.429 . S
C584 C567 1.574 . S
C584 H578 0.949 . S
C584 C588 1.368 . S
C585 C566 1.429 . S
C585 C579 1.429 . S
C585 C586 1.523 . S
C586 C567 1.368 . S
C586 C580 1.368 . S
C586 C585 1.523 . S
C587 C571 1.429 . S
C587 C583 1.429 . S
C587 C588 1.523 . S
C588 C572 1.368 . S
C588 C584 1.368 . S
C588 C587 1.523 . S
H589 C564 0.950 . S
H590 C566 0.950 . S
H591 C567 0.949 . S
H592 C569 0.950 . S
H593 C571 0.950 . S
C594 C595 1.349 . S
C594 C596 1.327 . S
C594 H619 0.950 . S
C595 C594 1.349 . S
C595 C611 1.349 . S
C596 C594 1.327 . S
C596 C615 1.429 . S
C596 H620 0.950 . S
C597 C614 1.574 . S
C597 C616 1.368 . S
C597 H621 0.949 . S
H598 C602 0.949 . S
C599 C600 1.349 . S
C599 C601 1.327 . S
C599 H622 0.950 . S
C600 C599 1.349 . S
C600 C612 1.349 . S
C601 C599 1.327 . S
C601 C617 1.429 . S
C601 H623 0.950 . S
C602 H598 0.949 . S
C602 C610 1.574 . S
C602 C618 1.368 . S
H603 C611 0.950 . S
H604 C609 0.950 . S
H605 C610 0.949 . S
H606 C612 0.950 . S
H607 C613 0.950 . S
H608 C614 0.949 . S
C609 H604 0.950 . S
C609 C611 1.327 . S
C609 C615 1.429 . S
C610 C602 1.574 . S
C610 H605 0.949 . S
C610 C616 1.368 . S
C611 C595 1.349 . S
C611 H603 0.950 . S
C611 C609 1.327 . S
C612 C600 1.349 . S
C612 H606 0.950 . S
C612 C613 1.327 . S
C613 H607 0.950 . S
C613 C612 1.327 . S
C613 C617 1.429 . S
C614 C597 1.574 . S
C614 H608 0.949 . S
C614 C618 1.368 . S
C615 C596 1.429 . S
C615 C609 1.429 . S
C615 C616 1.523 . S
C616 C597 1.368 . S
C616 C610 1.368 . S
C616 C615 1.523 . S
C617 C601 1.429 . S
C617 C613 1.429 . S
C617 C618 1.523 . S
C618 C602 1.368 . S
C618 C614 1.368 . S
C618 C617 1.523 . S
H619 C594 0.950 . S
H620 C596 0.950 . S
H621 C597 0.949 . S
H622 C599 0.950 . S
H623 C601 0.950 . S
C624 C625 1.349 . S
C624 C626 1.327 . S
C624 H649 0.950 . S
C625 C624 1.349 . S
C625 C641 1.349 . S
C626 C624 1.327 . S
C626 C645 1.429 . S
C626 H650 0.950 . S
C627 C644 1.574 . S
C627 C646 1.368 . S
C627 H651 0.949 . S
H628 C632 0.949 . S
C629 C630 1.349 . S
C629 C631 1.327 . S
C629 H652 0.950 . S
C630 C629 1.349 . S
C630 C642 1.349 . S
C631 C629 1.327 . S
C631 C647 1.429 . S
C631 H653 0.950 . S
C632 H628 0.949 . S
C632 C640 1.574 . S
C632 C648 1.368 . S
H633 C641 0.950 . S
H634 C639 0.950 . S
H635 C640 0.949 . S
H636 C642 0.950 . S
H637 C643 0.950 . S
H638 C644 0.949 . S
C639 H634 0.950 . S
C639 C641 1.327 . S
C639 C645 1.429 . S
C640 C632 1.574 . S
C640 H635 0.949 . S
C640 C646 1.368 . S
C641 C625 1.349 . S
C641 H633 0.950 . S
C641 C639 1.327 . S
C642 C630 1.349 . S
C642 H636 0.950 . S
C642 C643 1.327 . S
C643 H637 0.950 . S
C643 C642 1.327 . S
C643 C647 1.429 . S
C644 C627 1.574 . S
C644 H638 0.949 . S
C644 C648 1.368 . S
C645 C626 1.429 . S
C645 C639 1.429 . S
C645 C646 1.523 . S
C646 C627 1.368 . S
C646 C640 1.368 . S
C646 C645 1.523 . S
C647 C631 1.429 . S
C647 C643 1.429 . S
C647 C648 1.523 . S
C648 C632 1.368 . S
C648 C644 1.368 . S
C648 C647 1.523 . S
H649 C624 0.950 . S
H650 C626 0.950 . S
H651 C627 0.949 . S
H652 C629 0.950 . S
H653 C631 0.950 . S
C654 C655 1.349 . S
C654 C656 1.327 . S
C654 H679 0.950 . S
C655 C654 1.349 . S
C655 C671 1.349 . S
C656 C654 1.327 . S
C656 C675 1.429 . S
C656 H680 0.950 . S
C657 C674 1.574 . S
C657 C676 1.368 . S
C657 H681 0.949 . S
H658 C662 0.949 . S
C659 C660 1.349 . S
C659 C661 1.327 . S
C659 H682 0.950 . S
C660 C659 1.349 . S
C660 C672 1.349 . S
C661 C659 1.327 . S
C661 C677 1.429 . S
C661 H683 0.950 . S
C662 H658 0.949 . S
C662 C670 1.574 . S
C662 C678 1.368 . S
H663 C671 0.950 . S
H664 C669 0.950 . S
H665 C670 0.949 . S
H666 C672 0.950 . S
H667 C673 0.950 . S
H668 C674 0.949 . S
C669 H664 0.950 . S
C669 C671 1.327 . S
C669 C675 1.429 . S
C670 C662 1.574 . S
C670 H665 0.949 . S
C670 C676 1.368 . S
C671 C655 1.349 . S
C671 H663 0.950 . S
C671 C669 1.327 . S
C672 C660 1.349 . S
C672 H666 0.950 . S
C672 C673 1.327 . S
C673 H667 0.950 . S
C673 C672 1.327 . S
C673 C677 1.429 . S
C674 C657 1.574 . S
C674 H668 0.949 . S
C674 C678 1.368 . S
C675 C656 1.429 . S
C675 C669 1.429 . S
C675 C676 1.523 . S
C676 C657 1.368 . S
C676 C670 1.368 . S
C676 C675 1.523 . S
C677 C661 1.429 . S
C677 C673 1.429 . S
C677 C678 1.523 . S
C678 C662 1.368 . S
C678 C674 1.368 . S
C678 C677 1.523 . S
H679 C654 0.950 . S
H680 C656 0.950 . S
H681 C657 0.949 . S
H682 C659 0.950 . S
H683 C661 0.950 . S
C684 C685 1.349 . S
C684 C686 1.327 . S
C684 H709 0.950 . S
C685 C684 1.349 . S
C685 C701 1.349 . S
C686 C684 1.327 . S
C686 C705 1.429 . S
C686 H710 0.950 . S
C687 C704 1.574 . S
C687 C706 1.368 . S
C687 H711 0.949 . S
H688 C692 0.949 . S
C689 C690 1.349 . S
C689 C691 1.327 . S
C689 H712 0.950 . S
C690 C689 1.349 . S
C690 C702 1.349 . S
C691 C689 1.327 . S
C691 C707 1.429 . S
C691 H713 0.950 . S
C692 H688 0.949 . S
C692 C700 1.574 . S
C692 C708 1.368 . S
H693 C701 0.950 . S
H694 C699 0.950 . S
H695 C700 0.949 . S
H696 C702 0.950 . S
H697 C703 0.950 . S
H698 C704 0.949 . S
C699 H694 0.950 . S
C699 C701 1.327 . S
C699 C705 1.429 . S
C700 C692 1.574 . S
C700 H695 0.949 . S
C700 C706 1.368 . S
C701 C685 1.349 . S
C701 H693 0.950 . S
C701 C699 1.327 . S
C702 C690 1.349 . S
C702 H696 0.950 . S
C702 C703 1.327 . S
C703 H697 0.950 . S
C703 C702 1.327 . S
C703 C707 1.429 . S
C704 C687 1.574 . S
C704 H698 0.949 . S
C704 C708 1.368 . S
C705 C686 1.429 . S
C705 C699 1.429 . S
C705 C706 1.523 . S
C706 C687 1.368 . S
C706 C700 1.368 . S
C706 C705 1.523 . S
C707 C691 1.429 . S
C707 C703 1.429 . S
C707 C708 1.523 . S
C708 C692 1.368 . S
C708 C704 1.368 . S
C708 C707 1.523 . S
H709 C684 0.950 . S
H710 C686 0.950 . S
H711 C687 0.949 . S
H712 C689 0.950 . S
H713 C691 0.950 . S
C714 C715 1.349 . S
C714 C716 1.327 . S
C714 H739 0.950 . S
C715 C714 1.349 . S
C715 C731 1.349 . S
C716 C714 1.327 . S
C716 C735 1.429 . S
C716 H740 0.950 . S
C717 C734 1.574 . S
C717 C736 1.368 . S
C717 H741 0.949 . S
H718 C722 0.949 . S
C719 C720 1.349 . S
C719 C721 1.327 . S
C719 H742 0.950 . S
C720 C719 1.349 . S
C720 C732 1.349 . S
C721 C719 1.327 . S
C721 C737 1.429 . S
C721 H743 0.950 . S
C722 H718 0.949 . S
C722 C730 1.574 . S
C722 C738 1.368 . S
H723 C731 0.950 . S
H724 C729 0.950 . S
H725 C730 0.949 . S
H726 C732 0.950 . S
H727 C733 0.950 . S
H728 C734 0.949 . S
C729 H724 0.950 . S
C729 C731 1.327 . S
C729 C735 1.429 . S
C730 C722 1.574 . S
C730 H725 0.949 . S
C730 C736 1.368 . S
C731 C715 1.349 . S
C731 H723 0.950 . S
C731 C729 1.327 . S
C732 C720 1.349 . S
C732 H726 0.950 . S
C732 C733 1.327 . S
C733 H727 0.950 . S
C733 C732 1.327 . S
C733 C737 1.429 . S
C734 C717 1.574 . S
C734 H728 0.949 . S
C734 C738 1.368 . S
C735 C716 1.429 . S
C735 C729 1.429 . S
C735 C736 1.523 . S
C736 C717 1.368 . S
C736 C730 1.368 . S
C736 C735 1.523 . S
C737 C721 1.429 . S
C737 C733 1.429 . S
C737 C738 1.523 . S
C738 C722 1.368 . S
C738 C734 1.368 . S
C738 C737 1.523 . S
H739 C714 0.950 . S
H740 C716 0.950 . S
H741 C717 0.949 . S
H742 C719 0.950 . S
H743 C721 0.950 . S
C744 C745 1.349 . S
C744 C746 1.327 . S
C744 H769 0.950 . S
C745 C744 1.349 . S
C745 C761 1.349 . S
C746 C744 1.327 . S
C746 C765 1.429 . S
C746 H770 0.950 . S
C747 C764 1.574 . S
C747 C766 1.368 . S
C747 H771 0.949 . S
H748 C752 0.949 . S
C749 C750 1.349 . S
C749 C751 1.327 . S
C749 H772 0.950 . S
C750 C749 1.349 . S
C750 C762 1.349 . S
C751 C749 1.327 . S
C751 C767 1.429 . S
C751 H773 0.950 . S
C752 H748 0.949 . S
C752 C760 1.574 . S
C752 C768 1.368 . S
H753 C761 0.950 . S
H754 C759 0.950 . S
H755 C760 0.949 . S
H756 C762 0.950 . S
H757 C763 0.950 . S
H758 C764 0.949 . S
C759 H754 0.950 . S
C759 C761 1.327 . S
C759 C765 1.429 . S
C760 C752 1.574 . S
C760 H755 0.949 . S
C760 C766 1.368 . S
C761 C745 1.349 . S
C761 H753 0.950 . S
C761 C759 1.327 . S
C762 C750 1.349 . S
C762 H756 0.950 . S
C762 C763 1.327 . S
C763 H757 0.950 . S
C763 C762 1.327 . S
C763 C767 1.429 . S
C764 C747 1.574 . S
C764 H758 0.949 . S
C764 C768 1.368 . S
C765 C746 1.429 . S
C765 C759 1.429 . S
C765 C766 1.523 . S
C766 C747 1.368 . S
C766 C760 1.368 . S
C766 C765 1.523 . S
C767 C751 1.429 . S
C767 C763 1.429 . S
C767 C768 1.523 . S
C768 C752 1.368 . S
C768 C764 1.368 . S
C768 C767 1.523 . S
H769 C744 0.950 . S
H770 C746 0.950 . S
H771 C747 0.949 . S
H772 C749 0.950 . S
H773 C751 0.950 . S
C774 C775 1.349 . S
C774 C776 1.327 . S
C774 H799 0.950 . S
C775 C774 1.349 . S
C775 C791 1.349 . S
C776 C774 1.327 . S
C776 C795 1.429 . S
C776 H800 0.950 . S
C777 C794 1.574 . S
C777 C796 1.368 . S
C777 H801 0.949 . S
H778 C782 0.949 . S
C779 C780 1.349 . S
C779 C781 1.327 . S
C779 H802 0.950 . S
C780 C779 1.349 . S
C780 C792 1.349 . S
C781 C779 1.327 . S
C781 C797 1.429 . S
C781 H803 0.950 . S
C782 H778 0.949 . S
C782 C790 1.574 . S
C782 C798 1.368 . S
H783 C791 0.950 . S
H784 C789 0.950 . S
H785 C790 0.949 . S
H786 C792 0.950 . S
H787 C793 0.950 . S
H788 C794 0.949 . S
C789 H784 0.950 . S
C789 C791 1.327 . S
C789 C795 1.429 . S
C790 C782 1.574 . S
C790 H785 0.949 . S
C790 C796 1.368 . S
C791 C775 1.349 . S
C791 H783 0.950 . S
C791 C789 1.327 . S
C792 C780 1.349 . S
C792 H786 0.950 . S
C792 C793 1.327 . S
C793 H787 0.950 . S
C793 C792 1.327 . S
C793 C797 1.429 . S
C794 C777 1.574 . S
C794 H788 0.949 . S
C794 C798 1.368 . S
C795 C776 1.429 . S
C795 C789 1.429 . S
C795 C796 1.523 . S
C796 C777 1.368 . S
C796 C790 1.368 . S
C796 C795 1.523 . S
C797 C781 1.429 . S
C797 C793 1.429 . S
C797 C798 1.523 . S
C798 C782 1.368 . S
C798 C794 1.368 . S
C798 C797 1.523 . S
H799 C774 0.950 . S
H800 C776 0.950 . S
H801 C777 0.949 . S
H802 C779 0.950 . S
H803 C781 0.950 . S
C804 C805 1.349 . S
C804 C806 1.327 . S
C804 H829 0.950 . S
C805 C804 1.349 . S
C805 C821 1.349 . S
C806 C804 1.327 . S
C806 C825 1.429 . S
C806 H830 0.950 . S
C807 C824 1.574 . S
C807 C826 1.368 . S
C807 H831 0.949 . S
H808 C812 0.949 . S
C809 C810 1.349 . S
C809 C811 1.327 . S
C809 H832 0.950 . S
C810 C809 1.349 . S
C810 C822 1.349 . S
C811 C809 1.327 . S
C811 C827 1.429 . S
C811 H833 0.950 . S
C812 H808 0.949 . S
C812 C820 1.574 . S
C812 C828 1.368 . S
H813 C821 0.950 . S
H814 C819 0.950 . S
H815 C820 0.949 . S
H816 C822 0.950 . S
H817 C823 0.950 . S
H818 C824 0.949 . S
C819 H814 0.950 . S
C819 C821 1.327 . S
C819 C825 1.429 . S
C820 C812 1.574 . S
C820 H815 0.949 . S
C820 C826 1.368 . S
C821 C805 1.349 . S
C821 H813 0.950 . S
C821 C819 1.327 . S
C822 C810 1.349 . S
C822 H816 0.950 . S
C822 C823 1.327 . S
C823 H817 0.950 . S
C823 C822 1.327 . S
C823 C827 1.429 . S
C824 C807 1.574 . S
C824 H818 0.949 . S
C824 C828 1.368 . S
C825 C806 1.429 . S
C825 C819 1.429 . S
C825 C826 1.523 . S
C826 C807 1.368 . S
C826 C820 1.368 . S
C826 C825 1.523 . S
C827 C811 1.429 . S
C827 C823 1.429 . S
C827 C828 1.523 . S
C828 C812 1.368 . S
C828 C824 1.368 . S
C828 C827 1.523 . S
H829 C804 0.950 . S
H830 C806 0.950 . S
H831 C807 0.949 . S
H832 C809 0.950 . S
H833 C811 0.950 . S
C834 C835 1.349 . S
C834 C836 1.327 . S
C834 H859 0.950 . S
C835 C834 1.349 . S
C835 C851 1.349 . S
C836 C834 1.327 . S
C836 C855 1.429 . S
C836 H860 0.950 . S
C837 C854 1.574 . S
C837 C856 1.368 . S
C837 H861 0.949 . S
H838 C842 0.949 . S
C839 C840 1.349 . S
C839 C841 1.327 . S
C839 H862 0.950 . S
C840 C839 1.349 . S
C840 C852 1.349 . S
C841 C839 1.327 . S
C841 C857 1.429 . S
C841 H863 0.950 . S
C842 H838 0.949 . S
C842 C850 1.574 . S
C842 C858 1.368 . S
H843 C851 0.950 . S
H844 C849 0.950 . S
H845 C850 0.949 . S
H846 C852 0.950 . S
H847 C853 0.950 . S
H848 C854 0.949 . S
C849 H844 0.950 . S
C849 C851 1.327 . S
C849 C855 1.429 . S
C850 C842 1.574 . S
C850 H845 0.949 . S
C850 C856 1.368 . S
C851 C835 1.349 . S
C851 H843 0.950 . S
C851 C849 1.327 . S
C852 C840 1.349 . S
C852 H846 0.950 . S
C852 C853 1.327 . S
C853 H847 0.950 . S
C853 C852 1.327 . S
C853 C857 1.429 . S
C854 C837 1.574 . S
C854 H848 0.949 . S
C854 C858 1.368 . S
C855 C836 1.429 . S
C855 C849 1.429 . S
C855 C856 1.523 . S
C856 C837 1.368 . S
C856 C850 1.368 . S
C856 C855 1.523 . S
C857 C841 1.429 . S
C857 C853 1.429 . S
C857 C858 1.523 . S
C858 C842 1.368 . S
C858 C854 1.368 . S
C858 C857 1.523 . S
H859 C834 0.950 . S
H860 C836 0.950 . S
H861 C837 0.949 . S
H862 C839 0.950 . S
H863 C841 0.950 . S
C864 C865 1.349 . S
C864 C866 1.327 . S
C864 H889 0.950 . S
C865 C864 1.349 . S
C865 C881 1.349 . S
C866 C864 1.327 . S
C866 C885 1.429 . S
C866 H890 0.950 . S
C867 C884 1.574 . S
C867 C886 1.368 . S
C867 H891 0.949 . S
H868 C872 0.949 . S
C869 C870 1.349 . S
C869 C871 1.327 . S
C869 H892 0.950 . S
C870 C869 1.349 . S
C870 C882 1.349 . S
C871 C869 1.327 . S
C871 C887 1.429 . S
C871 H893 0.950 . S
C872 H868 0.949 . S
C872 C880 1.574 . S
C872 C888 1.368 . S
H873 C881 0.950 . S
H874 C879 0.950 . S
H875 C880 0.949 . S
H876 C882 0.950 . S
H877 C883 0.950 . S
H878 C884 0.949 . S
C879 H874 0.950 . S
C879 C881 1.327 . S
C879 C885 1.429 . S
C880 C872 1.574 . S
C880 H875 0.949 . S
C880 C886 1.368 . S
C881 C865 1.349 . S
C881 H873 0.950 . S
C881 C879 1.327 . S
C882 C870 1.349 . S
C882 H876 0.950 . S
C882 C883 1.327 . S
C883 H877 0.950 . S
C883 C882 1.327 . S
C883 C887 1.429 . S
C884 C867 1.574 . S
C884 H878 0.949 . S
C884 C888 1.368 . S
C885 C866 1.429 . S
C885 C879 1.429 . S
C885 C886 1.523 . S
C886 C867 1.368 . S
C886 C880 1.368 . S
C886 C885 1.523 . S
C887 C871 1.429 . S
C887 C883 1.429 . S
C887 C888 1.523 . S
C888 C872 1.368 . S
C888 C884 1.368 . S
C888 C887 1.523 . S
H889 C864 0.950 . S
H890 C866 0.950 . S
H891 C867 0.949 . S
H892 C869 0.950 . S
H893 C871 0.950 . S
C894 C895 1.349 . S
C894 C896 1.327 . S
C894 H919 0.950 . S
C895 C894 1.349 . S
C895 C911 1.349 . S
C896 C894 1.327 . S
C896 C915 1.429 . S
C896 H920 0.950 . S
C897 C914 1.574 . S
C897 C916 1.368 . S
C897 H921 0.949 . S
H898 C902 0.949 . S
C899 C900 1.349 . S
C899 C901 1.327 . S
C899 H922 0.950 . S
C900 C899 1.349 . S
C900 C912 1.349 . S
C901 C899 1.327 . S
C901 C917 1.429 . S
C901 H923 0.950 . S
C902 H898 0.949 . S
C902 C910 1.574 . S
C902 C918 1.368 . S
H903 C911 0.950 . S
H904 C909 0.950 . S
H905 C910 0.949 . S
H906 C912 0.950 . S
H907 C913 0.950 . S
H908 C914 0.949 . S
C909 H904 0.950 . S
C909 C911 1.327 . S
C909 C915 1.429 . S
C910 C902 1.574 . S
C910 H905 0.949 . S
C910 C916 1.368 . S
C911 C895 1.349 . S
C911 H903 0.950 . S
C911 C909 1.327 . S
C912 C900 1.349 . S
C912 H906 0.950 . S
C912 C913 1.327 . S
C913 H907 0.950 . S
C913 C912 1.327 . S
C913 C917 1.429 . S
C914 C897 1.574 . S
C914 H908 0.949 . S
C914 C918 1.368 . S
C915 C896 1.429 . S
C915 C909 1.429 . S
C915 C916 1.523 . S
C916 C897 1.368 . S
C916 C910 1.368 . S
C916 C915 1.523 . S
C917 C901 1.429 . S
C917 C913 1.429 . S
C917 C918 1.523 . S
C918 C902 1.368 . S
C918 C914 1.368 . S
C918 C917 1.523 . S
H919 C894 0.950 . S
H920 C896 0.950 . S
H921 C897 0.949 . S
H922 C899 0.950 . S
H923 C901 0.950 . S
C924 C925 1.349 . S
C924 C926 1.327 . S
C924 H949 0.950 . S
C925 C924 1.349 . S
C925 C941 1.349 . S
C926 C924 1.327 . S
C926 C945 1.429 . S
C926 H950 0.950 . S
C927 C944 1.574 . S
C927 C946 1.368 . S
C927 H951 0.949 . S
H928 C932 0.949 . S
C929 C930 1.349 . S
C929 C931 1.327 . S
C929 H952 0.950 . S
C930 C929 1.349 . S
C930 C942 1.349 . S
C931 C929 1.327 . S
C931 C947 1.429 . S
C931 H953 0.950 . S
C932 H928 0.949 . S
C932 C940 1.574 . S
C932 C948 1.368 . S
H933 C941 0.950 . S
H934 C939 0.950 . S
H935 C940 0.949 . S
H936 C942 0.950 . S
H937 C943 0.950 . S
H938 C944 0.949 . S
C939 H934 0.950 . S
C939 C941 1.327 . S
C939 C945 1.429 . S
C940 C932 1.574 . S
C940 H935 0.949 . S
C940 C946 1.368 . S
C941 C925 1.349 . S
C941 H933 0.950 . S
C941 C939 1.327 . S
C942 C930 1.349 . S
C942 H936 0.950 . S
C942 C943 1.327 . S
C943 H937 0.950 . S
C943 C942 1.327 . S
C943 C947 1.429 . S
C944 C927 1.574 . S
C944 H938 0.949 . S
C944 C948 1.368 . S
C945 C926 1.429 . S
C945 C939 1.429 . S
C945 C946 1.523 . S
C946 C927 1.368 . S
C946 C940 1.368 . S
C946 C945 1.523 . S
C947 C931 1.429 . S
C947 C943 1.429 . S
C947 C948 1.523 . S
C948 C932 1.368 . S
C948 C944 1.368 . S
C948 C947 1.523 . S
H949 C924 0.950 . S
H950 C926 0.950 . S
H951 C927 0.949 . S
H952 C929 0.950 . S
H953 C931 0.950 . S
C954 C955 1.349 . S
C954 C956 1.327 . S
C954 H979 0.950 . S
C955 C954 1.349 . S
C955 C971 1.349 . S
C956 C954 1.327 . S
C956 C975 1.429 . S
C956 H980 0.950 . S
C957 C974 1.574 . S
C957 C976 1.368 . S
C957 H981 0.949 . S
H958 C962 0.949 . S
C959 C960 1.349 . S
C959 C961 1.327 . S
C959 H982 0.950 . S
C960 C959 1.349 . S
C960 C972 1.349 . S
C961 C959 1.327 . S
C961 C977 1.429 . S
C961 H983 0.950 . S
C962 H958 0.949 . S
C962 C970 1.574 . S
C962 C978 1.368 . S
H963 C971 0.950 . S
H964 C969 0.950 . S
H965 C970 0.949 . S
H966 C972 0.950 . S
H967 C973 0.950 . S
H968 C974 0.949 . S
C969 H964 0.950 . S
C969 C971 1.327 . S
C969 C975 1.429 . S
C970 C962 1.574 . S
C970 H965 0.949 . S
C970 C976 1.368 . S
C971 C955 1.349 . S
C971 H963 0.950 . S
C971 C969 1.327 . S
C972 C960 1.349 . S
C972 H966 0.950 . S
C972 C973 1.327 . S
C973 H967 0.950 . S
C973 C972 1.327 . S
C973 C977 1.429 . S
C974 C957 1.574 . S
C974 H968 0.949 . S
C974 C978 1.368 . S
C975 C956 1.429 . S
C975 C969 1.429 . S
C975 C976 1.523 . S
C976 C957 1.368 . S
C976 C970 1.368 . S
C976 C975 1.523 . S
C977 C961 1.429 . S
C977 C973 1.429 . S
C977 C978 1.523 . S
C978 C962 1.368 . S
C978 C974 1.368 . S
C978 C977 1.523 . S
H979 C954 0.950 . S
H980 C956 0.950 . S
H981 C957 0.949 . S
H982 C959 0.950 . S
H983 C961 0.950 . S
C265 C9 1.489 . S
C270 C110 1.514 . S
C295 C21 1.027 . S
C300 C159 1.026 . S
C330 C194 2.106 . S
C325 C30 2.106 . S
C355 C43 2.089 . S
C360 C233 2.153 1_655 S
C390 C154 2.136 . S
C385 C4 1.918 . S
C420 C113 1.677 . S
C415 C22 1.737 . S
C450 C243 1.469 . S
C445 C34 1.496 . S
C480 C202 1.389 . S
C475 C48 1.410 . S
C505 C8 1.610 . S
C510 C230 1.650 . S
C540 C162 2.250 . S
C535 C35 2.322 . S
C565 C47 2.581 . S
C570 C123 2.573 . S
C595 C17 0.656 . S
C600 C199 0.653 . S
C630 C119 1.032 . S
C625 C60 1.021 . S
C655 C74 1.107 . S
C660 C150 1.100 . S
C685 C82 1.831 . S
C690 C203 1.875 . S
C715 C100 2.713 . S
C720 C242 2.644 . S
C745 C61 2.585 . S
C750 C163 2.665 . S
C780 C122 0.876 . S
C775 C73 0.892 . S
C810 C234 2.132 . S
C805 C87 2.183 . S
C840 C193 1.132 . S
C835 C95 1.124 . S
C865 C56 1.558 . S
C870 C239 1.564 . S
C900 C153 2.464 . S
C895 C86 2.534 . S
C930 C114 2.299 . S
C925 C99 2.306 . S
C955 C69 0.638 . S
C960 C190 0.586 . S
