# Generated by pormake.
# Topology tsx, (6,3)-cn, num edge types: 1
# Building blocks:
#     Node 0, Type 0, BuildingBlock: MIDCAF_clean_sbu_0, # of connection points: 6
#     Node 1, Type 0, BuildingBlock: MIDCAF_clean_sbu_0, # of connection points: 6
#     Node 2, Type 1, BuildingBlock: VETTIZ_charged_linker_0, # of connection points: 3
#     Node 3, Type 1, BuildingBlock: VETTIZ_charged_linker_0, # of connection points: 3
#     Node 4, Type 1, BuildingBlock: VETTIZ_charged_linker_0, # of connection points: 3
#     Node 5, Type 1, BuildingBlock: VETTIZ_charged_linker_0, # of connection points: 3
#     Edge 6, Type (0, 1), BuildingBlock: AJUNOK_clean_linker_0, # of connection points: 2
#     Edge 7, Type (0, 1), BuildingBlock: AJUNOK_clean_linker_0, # of connection points: 2
#     Edge 8, Type (0, 1), BuildingBlock: AJUNOK_clean_linker_0, # of connection points: 2
#     Edge 9, Type (0, 1), BuildingBlock: AJUNOK_clean_linker_0, # of connection points: 2
#     Edge 10, Type (0, 1), BuildingBlock: AJUNOK_clean_linker_0, # of connection points: 2
#     Edge 11, Type (0, 1), BuildingBlock: AJUNOK_clean_linker_0, # of connection points: 2
#     Edge 12, Type (0, 1), BuildingBlock: AJUNOK_clean_linker_0, # of connection points: 2
#     Edge 13, Type (0, 1), BuildingBlock: AJUNOK_clean_linker_0, # of connection points: 2
#     Edge 14, Type (0, 1), BuildingBlock: AJUNOK_clean_linker_0, # of connection points: 2
#     Edge 15, Type (0, 1), BuildingBlock: AJUNOK_clean_linker_0, # of connection points: 2
#     Edge 16, Type (0, 1), BuildingBlock: AJUNOK_clean_linker_0, # of connection points: 2
#     Edge 17, Type (0, 1), BuildingBlock: AJUNOK_clean_linker_0, # of connection points: 2
# Relax obj value: 0.121
# Max RMSD: 0.183
# Mean RMSD: 0.115
data_MOF--net-tsx--node1-MIDCAF_clean_sbu_0--node2-VETTIZ_charged_linker_0--edge1-AJUNOK_clean_linker_0
_symmetry_space_group_name_H-M    P1
_symmetry_Int_Tables_number       1
_symmetry_cell_setting            triclinic
loop_
_symmetry_equiv_pos_as_xyz
'x, y, z'
_cell_length_a     18.184999
_cell_length_b     18.799051
_cell_length_c     37.405128
_cell_angle_alpha  90.272689
_cell_angle_beta   94.681991
_cell_angle_gamma 90.677469
loop_
_atom_site_label
_atom_site_type_symbol
_atom_site_fract_x
_atom_site_fract_y
_atom_site_fract_z
_atom_type_partial_charge
Zn0 Zn 0.95238 0.05616 0.96108 0.0
Zn1 Zn 0.19679 0.07013 0.0323 0.0
Zn2 Zn 0.07585 0.06278 -0.0032 0.0
C3 C 0.18665 0.19981 0.00202 0.0
C4 C 0.21332 0.95721 -0.01074 0.0
O5 O 0.9907 1.00893 0.02914 0.0
O6 O 0.89109 1.00029 -0.00858 0.0
C7 C 0.98356 0.19978 0.96993 0.0
O8 O 0.11931 0.17644 -0.00241 0.0
O9 O 0.23732 0.15797 0.01269 0.0
O10 O 0.24229 0.98119 0.0187 0.0
O11 O 0.15376 0.98529 0.97465 0.0
O12 O 0.9319 0.15789 0.95898 0.0
O13 O 0.04607 0.17521 0.98284 0.0
O14 O 0.09263 0.99434 0.94999 0.0
O15 O 0.98482 1.00616 0.91904 0.0
C16 C 0.04869 0.98024 0.92203 0.0
O17 O 0.05171 0.03308 0.0502 0.0
O18 O 0.15319 0.07656 0.07933 0.0
C19 C 0.92331 0.98744 0.02174 0.0
C20 C 0.08888 0.05075 0.07958 0.0
Zn21 Zn 0.61841 0.51032 0.55818 0.0
Zn22 Zn 0.39919 0.48582 0.4613 0.0
Zn23 Zn 0.51165 0.51111 0.50742 0.0
C24 C 0.52421 0.44981 0.4274 0.0
C25 C 0.41381 0.63599 0.474 0.0
O26 O 0.47366 0.46286 0.55703 0.0
O27 O 0.5691 0.46741 0.5977 0.0
C28 C 0.66895 0.43124 0.50347 0.0
O29 O 0.55515 0.46728 0.45849 0.0
O30 O 0.45488 0.45035 0.42164 0.0
O31 O 0.37291 0.58747 0.45938 0.0
O32 O 0.47308 0.61979 0.49334 0.0
O33 O 0.68911 0.4513 0.535 0.0
O34 O 0.60618 0.45088 0.48833 0.0
O35 O 0.53873 0.62534 0.51682 0.0
O36 O 0.63228 0.61429 0.55814 0.0
C37 C 0.59077 0.65307 0.53804 0.0
O38 O 0.42337 0.44265 0.52845 0.0
O39 O 0.33464 0.42051 0.48553 0.0
C40 C 0.50256 0.45133 0.58908 0.0
C41 C 0.36191 0.41169 0.51721 0.0
C42 C 0.23998 0.94452 0.4503 0.0
C43 C 0.29745 0.91291 0.43272 0.0
C44 C 0.31126 0.93688 0.39823 0.0
C45 C 0.19909 1.00401 0.39495 0.0
C46 C 0.19214 0.99177 0.43085 0.0
C47 C 0.12858 0.03363 0.44379 0.0
H48 H 0.82002 0.22763 0.39471 0.0
C49 C 0.1337 0.0419 0.37996 0.0
C50 C 0.09259 0.06229 0.40844 0.0
H51 H 0.92293 0.2026 0.50189 0.0
H52 H 0.01426 0.12431 0.47908 0.0
H53 H 0.96059 0.255 0.35768 0.0
H54 H 0.83554 0.06359 0.37133 0.0
H55 H 0.87153 0.05371 0.32954 0.0
H56 H 0.80964 0.12602 0.33664 0.0
H57 H 0.87246 0.2366 0.33403 0.0
H58 H 0.95707 0.20903 0.31658 0.0
C59 C 0.16223 0.09377 0.46857 0.0
C60 C 0.07625 0.98292 0.46215 0.0
C61 C 0.0688 0.02681 0.24561 0.0
C62 C 1.0083 0.05068 0.22347 0.0
C63 C 0.94919 0.08336 0.23878 0.0
C64 C 0.9513 0.09376 0.27591 0.0
C65 C 0.01348 0.0717 0.29775 0.0
C66 C 0.07046 0.03812 0.28256 0.0
C67 C 0.13295 0.01998 0.30963 0.0
C68 C 0.10321 0.04723 0.34395 0.0
C69 C 0.03362 0.07731 0.33664 0.0
C70 C 0.20328 0.06137 0.30032 0.0
C71 C 0.14118 0.93813 0.30931 0.0
C72 C 0.86145 0.20437 0.41344 0.0
C73 C 0.86426 0.2208 0.45004 0.0
C74 C 0.92014 0.19073 0.47347 0.0
C75 C 0.97348 0.14619 0.46026 0.0
C76 C 0.97175 0.13277 0.42327 0.0
C77 C 0.91551 0.16105 0.40071 0.0
C78 C 0.92258 0.14362 0.36213 0.0
C79 C 0.99485 0.1043 0.36487 0.0
C80 C 0.02361 0.09686 0.4007 0.0
C81 C 0.928 0.21438 0.34121 0.0
C82 C 0.85643 0.09462 0.34891 0.0
H83 H 0.27325 0.99514 0.35238 0.0
H84 H 0.22975 0.9293 0.47733 0.0
H85 H 0.02526 1.00941 0.46885 0.0
H86 H 0.10387 0.96106 0.48721 0.0
H87 H 0.05935 0.93745 0.44407 0.0
H88 H 0.21348 0.11576 0.45829 0.0
H89 H 0.17702 0.07367 0.49607 0.0
H90 H 0.12575 0.13988 0.46998 0.0
H91 H 0.11565 1.00307 0.23417 0.0
H92 H 0.90238 0.10242 0.22188 0.0
H93 H 0.90528 0.12022 0.28597 0.0
H94 H 0.19064 0.10438 0.28051 0.0
H95 H 0.24334 0.0255 0.28871 0.0
H96 H 0.23092 0.08901 0.32412 0.0
H97 H 0.08791 0.91159 0.31414 0.0
H98 H 0.18266 0.91862 0.32987 0.0
H99 H 0.15773 0.91952 0.28293 0.0
H100 H 0.35683 0.91567 0.38473 0.0
C101 C 0.2622 0.98197 0.37924 0.0
C102 C 0.14713 0.16776 0.58155 0.0
C103 C 0.21222 0.19981 0.59735 0.0
C104 C 0.24092 0.17766 0.63151 0.0
C105 C 0.14249 0.09021 0.633 0.0
C106 C 0.11354 0.1127 0.59974 0.0
C107 C 0.04588 0.07018 0.58648 0.0
H108 H 0.80398 0.80261 0.61465 0.0
C109 C 0.09739 0.02955 0.64375 0.0
C110 C 0.04076 0.01708 0.61662 0.0
H111 H 0.79188 0.95244 0.52727 0.0
H112 H 0.90689 1.0077 0.55135 0.0
H113 H 0.96852 0.76906 0.61472 0.0
H114 H 0.8633 0.92139 0.68002 0.0
H115 H 0.91848 0.86134 0.70657 0.0
H116 H 0.84227 0.82766 0.6783 0.0
H117 H 0.92839 0.74258 0.65491 0.0
H118 H 0.02221 0.77592 0.65587 0.0
C119 C 0.06186 0.03257 0.55128 0.0
C120 C 0.97917 0.12087 0.58294 0.0
C121 C 0.14044 0.92787 0.76825 0.0
C122 C 0.10728 0.87088 0.7855 0.0
C123 C 0.06862 0.81842 0.76398 0.0
C124 C 0.05115 0.82991 0.72726 0.0
C125 C 0.0749 0.89317 0.71183 0.0
C126 C 0.1243 0.93734 0.73142 0.0
C127 C 0.1518 0.99689 0.70922 0.0
C128 C 0.10405 0.98559 0.67441 0.0
C129 C 0.05754 0.92597 0.67643 0.0
C130 C 0.23481 0.98444 0.70463 0.0
C131 C 0.13543 0.06872 0.72732 0.0
C132 C 0.82556 0.84806 0.60099 0.0
C133 C 0.78837 0.87397 0.56936 0.0
C134 C 0.81941 0.93175 0.55174 0.0
C135 C 0.88605 0.96371 0.56583 0.0
C136 C 0.9221 0.93741 0.59778 0.0
C137 C 0.89165 0.88034 0.61471 0.0
C138 C 0.93678 0.85914 0.64841 0.0
C139 C 0.99881 0.91406 0.6495 0.0
C140 C 0.99004 0.95975 0.6198 0.0
C141 C 0.96528 0.78259 0.64354 0.0
C142 C 0.88803 0.86754 0.68017 0.0
H143 H 0.23074 0.10883 0.67538 0.0
H144 H 0.12415 0.18389 0.55524 0.0
H145 H 0.98675 0.16608 0.60225 0.0
H146 H 0.9272 0.09467 0.58939 0.0
H147 H 0.97175 0.14357 0.55558 0.0
H148 H 0.11625 1.00582 0.55439 0.0
H149 H 0.06387 0.07177 0.52944 0.0
H150 H 0.02094 0.9908 0.54285 0.0
H151 H 0.17298 0.96801 0.78338 0.0
H152 H 0.04744 0.77083 0.77591 0.0
H153 H 0.01718 0.79086 0.7126 0.0
H154 H 0.25097 0.92845 0.71032 0.0
H155 H 0.27065 0.01897 0.72307 0.0
H156 H 0.24875 0.99359 0.67671 0.0
H157 H 0.07879 0.06812 0.73654 0.0
H158 H 0.13747 0.11446 0.70904 0.0
H159 H 0.17499 0.07927 0.75102 0.0
H160 H 0.29038 0.20258 0.64429 0.0
C161 C 0.2064 0.1231 0.64941 0.0
C162 C 0.75978 0.46603 0.93867 0.0
C163 C 0.81054 0.42284 0.9222 0.0
C164 C 0.79352 0.40108 0.88631 0.0
C165 C 0.67585 0.46016 0.88468 0.0
C166 C 0.69293 0.48424 0.91933 0.0
C167 C 0.63145 0.52838 0.93245 0.0
H168 H 0.30433 0.69285 0.89053 0.0
C169 C 0.60059 0.48342 0.87278 0.0
C170 C 0.57402 0.52432 0.90035 0.0
H171 H 0.44642 0.71376 0.98848 0.0
H172 H 0.52561 0.62207 0.96816 0.0
H173 H 0.42663 0.68059 0.83591 0.0
H174 H 0.30714 0.521 0.89049 0.0
H175 H 0.32461 0.48348 0.84899 0.0
H176 H 0.26816 0.56187 0.85019 0.0
H177 H 0.32895 0.66484 0.82818 0.0
H178 H 0.39333 0.6151 0.80459 0.0
C179 C 0.66198 0.60476 0.93956 0.0
C180 C 0.60344 0.49176 0.96573 0.0
C181 C 0.49149 0.41431 0.74842 0.0
C182 C 0.42348 0.42732 0.72895 0.0
C183 C 0.36756 0.46099 0.74659 0.0
C184 C 0.38069 0.48434 0.78231 0.0
C185 C 0.45054 0.47413 0.80057 0.0
C186 C 0.50337 0.43721 0.78396 0.0
C187 C 0.57375 0.42937 0.80745 0.0
C188 C 0.55535 0.46949 0.84073 0.0
C189 C 0.4837 0.49655 0.83637 0.0
C190 C 0.63701 0.46631 0.78874 0.0
C191 C 0.5849 0.34889 0.81477 0.0
C192 C 0.3516 0.67683 0.90797 0.0
C193 C 0.36951 0.71137 0.94094 0.0
C194 C 0.43226 0.68909 0.96258 0.0
C195 C 0.47838 0.63607 0.95071 0.0
C196 C 0.46193 0.60498 0.91675 0.0
C197 C 0.39793 0.62377 0.89661 0.0
C198 C 0.38752 0.58376 0.86173 0.0
C199 C 0.45794 0.54114 0.8632 0.0
C200 C 0.50207 0.55407 0.89535 0.0
C201 C 0.38347 0.6385 0.83079 0.0
C202 C 0.31811 0.53522 0.86255 0.0
H203 H 0.71745 0.39984 0.84065 0.0
H204 H 0.77088 0.48327 0.96627 0.0
H205 H 0.59524 0.43372 0.96071 0.0
H206 H 0.54957 0.51168 0.97266 0.0
H207 H 0.6441 0.49834 -0.01065 0.0
H208 H 0.69933 0.62061 0.91878 0.0
H209 H 0.69412 0.60845 0.96608 0.0
H210 H 0.61873 0.6454 0.9382 0.0
H211 H 0.53696 0.39094 0.73577 0.0
H212 H 0.31465 0.4717 0.73231 0.0
H213 H 0.33688 0.51167 0.7939 0.0
H214 H 0.61619 0.51237 0.77248 0.0
H215 H 0.66271 0.42901 0.77045 0.0
H216 H 0.68041 0.48936 0.80791 0.0
H217 H 0.53103 0.32091 0.81647 0.0
H218 H 0.61597 0.33824 0.84077 0.0
H219 H 0.61312 0.32309 0.79298 0.0
H220 H 0.82978 0.36595 0.87317 0.0
C221 C 0.72705 0.41962 0.86756 0.0
C222 C 0.70018 0.74516 0.07809 0.0
C223 C 0.75993 0.7788 0.09817 0.0
C224 C 0.77888 0.75613 0.1335 0.0
C225 C 0.67712 0.67083 0.12898 0.0
C226 C 0.65945 0.69179 0.09401 0.0
C227 C 0.59407 0.65077 0.07661 0.0
H228 H 0.32174 0.40445 0.09392 0.0
C229 C 0.62281 0.61585 0.13795 0.0
C230 C 0.5735 0.60396 0.1074 0.0
H231 H 0.37297 0.51027 -0.00332 0.0
H232 H 0.4714 0.57755 0.03001 0.0
H233 H 0.48456 0.3706 0.11852 0.0
H234 H 0.34211 0.53857 0.14704 0.0
H235 H 0.3964 0.51819 0.1865 0.0
H236 H 0.33585 0.45082 0.16521 0.0
H237 H 0.40936 0.35701 0.14607 0.0
H238 H 0.50009 0.38257 0.16509 0.0
C239 C 0.62045 0.60647 0.04527 0.0
C240 C 0.53256 0.70397 0.06511 0.0
C241 C 0.63448 0.51391 0.26445 0.0
C242 C 0.58548 0.47017 0.28213 0.0
C243 C 0.52307 0.44123 0.26192 0.0
C244 C 0.50885 0.45633 0.22548 0.0
C245 C 0.55669 0.50193 0.20861 0.0
C246 C 0.61819 0.5301 0.22802 0.0
C247 C 0.6595 0.58181 0.20611 0.0
C248 C 0.61315 0.57881 0.17032 0.0
C249 C 0.55352 0.5314 0.17195 0.0
C250 C 0.73796 0.55265 0.20293 0.0
C251 C 0.6577 0.65621 0.22416 0.0
C252 C 0.3526 0.44369 0.07993 0.0
C253 C 0.3382 0.45349 0.04285 0.0
C254 C 0.38218 0.50268 0.02539 0.0
C255 C 0.43969 0.54109 0.04474 0.0
C256 C 0.45455 0.52896 0.0818 0.0
C257 C 0.41094 0.48081 0.09859 0.0
C258 C 0.43677 0.47015 0.13731 0.0
C259 C 0.50356 0.51935 0.14125 0.0
C260 C 0.51365 0.55463 0.1089 0.0
C261 C 0.4585 0.39102 0.14238 0.0
C262 C 0.37477 0.49509 0.16044 0.0
H263 H 0.75485 0.68805 0.17609 0.0
H264 H 0.68557 0.75996 0.0505 0.0
H265 H 0.5251 0.74248 0.08716 0.0
H266 H 0.47835 0.67796 0.05885 0.0
H267 H 0.54672 0.73473 0.04127 0.0
H268 H 0.67775 0.58752 0.05162 0.0
H269 H 0.61999 0.63852 0.0204 0.0
H270 H 0.58705 0.55764 0.03989 0.0
H271 H 0.68358 0.53647 0.27864 0.0
H272 H 0.48315 0.40872 0.27456 0.0
H273 H 0.45997 0.43305 0.21207 0.0
H274 H 0.73599 0.49401 0.19871 0.0
H275 H 0.7742 0.56379 0.22774 0.0
H276 H 0.76445 0.57426 0.17971 0.0
H277 H 0.6067 0.66282 0.23832 0.0
H278 H 0.65624 0.70022 0.20466 0.0
H279 H 0.70556 0.66427 0.24424 0.0
H280 H 0.82472 0.78095 0.14941 0.0
C281 C 0.73791 0.70245 0.14899 0.0
C282 C 0.27357 0.29517 0.98628 0.0
C283 C 0.20688 0.2762 0.00066 0.0
C284 C 0.31189 0.35808 -0.00317 0.0
C285 C 0.28544 0.40372 0.02262 0.0
H286 H 0.29979 0.25786 0.96933 0.0
H287 H 0.36612 0.36708 0.98754 0.0
S288 S 0.1067 0.38505 0.06314 0.0
N289 N 0.11053 0.31345 0.0376 0.0
N290 N 0.18282 0.4314 0.05787 0.0
C291 C 0.21486 0.38934 0.03408 0.0
C292 C 0.17536 0.32566 0.02291 0.0
C293 C 0.32727 0.89524 0.97547 0.0
C294 C 0.24974 0.89692 0.97278 0.0
C295 C 0.36499 0.83532 0.96489 0.0
C296 C 0.32678 0.7741 0.95149 0.0
H297 H 0.35925 0.94051 0.98637 0.0
H298 H 0.42476 0.83706 0.96731 0.0
S299 S 0.12304 0.75072 0.94 0.0
N300 N 0.13566 0.83225 0.95617 0.0
N301 N 0.20637 0.71882 0.9363 0.0
C302 C 0.24896 0.77537 0.94813 0.0
C303 C 0.21049 0.83694 0.95878 0.0
C304 C 0.91996 0.88876 0.06658 0.0
C305 C 0.88353 0.94311 0.04673 0.0
C306 C 0.8799 0.83687 0.08417 0.0
C307 C 0.80212 0.83757 0.08237 0.0
H308 H 0.97926 0.8838 0.06676 0.0
H309 H 0.90982 0.79415 0.09789 0.0
S310 S 0.68189 0.97546 0.03876 0.0
N311 N 0.7661 0.99911 0.02975 0.0
N312 N 0.69132 0.9024 0.06292 0.0
C313 C 0.7657 0.89431 0.06452 0.0
C314 C 0.80627 0.94685 0.04671 0.0
C315 C 0.90597 0.29741 0.9877 0.0
C316 C 0.96633 0.27604 0.96915 0.0
C317 C 0.86041 0.35297 0.97501 0.0
C318 C 0.87382 0.38891 0.94326 0.0
H319 H 0.8884 0.26523 0.0095 0.0
H320 H 0.80974 0.36153 0.98767 0.0
S321 S 0.03812 0.36732 0.89166 0.0
N322 N 0.04656 0.30468 0.92253 0.0
N323 N 0.96241 0.411 0.89903 0.0
C324 C 0.94089 0.37558 0.92805 0.0
C325 C 0.98695 0.31854 0.94094 0.0
C326 C 0.61206 0.76699 0.56967 0.0
C327 C 0.6115 0.72878 0.53729 0.0
C328 C 0.66487 0.82055 0.57824 0.0
C329 C 0.7193 0.83727 0.55482 0.0
H330 H 0.57716 0.74978 0.59021 0.0
H331 H 0.66751 0.84423 0.60479 0.0
S332 S 0.73192 0.76172 0.46383 0.0
N333 N 0.66155 0.71879 0.4794 0.0
N334 N 0.76177 0.81904 0.49553 0.0
C335 C 0.7132 0.80582 0.5205 0.0
C336 C 0.6588 0.75161 0.5117 0.0
C337 C 0.7937 0.38495 0.49466 0.0
C338 C 0.71691 0.38096 0.48607 0.0
C339 C 0.84065 0.33248 0.48328 0.0
C340 C 0.81263 0.27379 0.46294 0.0
H341 H 0.81773 0.42864 0.51082 0.0
H342 H 0.89943 0.33816 0.49029 0.0
S343 S 0.61557 0.23571 0.43509 0.0
N344 N 0.61474 0.31197 0.45716 0.0
N345 N 0.70319 0.2134 0.4354 0.0
C346 C 0.73603 0.26914 0.45395 0.0
C347 C 0.68811 0.32275 0.46555 0.0
C348 C 0.25136 0.36767 0.54589 0.0
C349 C 0.32627 0.36064 0.54005 0.0
C350 C 0.21468 0.31566 0.56476 0.0
C351 C 0.25175 0.2548 0.57798 0.0
H352 H 0.22092 0.41341 0.53559 0.0
H353 H 0.15699 0.32292 0.56896 0.0
S354 S 0.44486 0.2069 0.56478 0.0
N355 N 0.43444 0.28595 0.54606 0.0
N356 N 0.36546 0.18767 0.5812 0.0
C357 C 0.32633 0.24672 0.57167 0.0
C358 C 0.36366 0.29984 0.55274 0.0
C359 C 0.35877 0.7222 0.43063 0.0
C360 C 0.39321 0.71015 0.46504 0.0
C361 C 0.32896 0.78785 0.42109 0.0
C362 C 0.33239 0.84539 0.44533 0.0
H363 H 0.35338 0.67978 0.41082 0.0
H364 H 0.30139 0.79301 0.39444 0.0
S365 S 0.41881 0.84323 0.53861 0.0
N366 N 0.43062 0.76163 0.52355 0.0
N367 N 0.37475 0.88696 0.50525 0.0
C368 C 0.36779 0.8351 0.47979 0.0
C369 C 0.3987 0.76724 0.48963 0.0
C370 C 0.04665 0.98502 0.13158 0.0
C371 C 0.05422 0.04923 0.1133 0.0
C372 C 0.0264 0.98513 0.16691 0.0
C373 C 0.01257 0.04942 0.18443 0.0
H374 H 0.06063 0.93516 0.11935 0.0
H375 H 0.025 0.9352 0.1812 0.0
S376 S 0.02028 0.23074 0.14636 0.0
N377 N 0.04272 0.17765 0.11377 0.0
N378 N 1.00399 0.17814 0.18015 0.0
C379 C 0.0158 0.11342 0.16544 0.0
C380 C 0.03705 0.11325 0.12977 0.0
C381 C 0.14186 0.93733 0.88118 0.0
C382 C 0.07039 0.93415 0.89272 0.0
C383 C 0.15647 0.90829 0.84783 0.0
C384 C 0.09983 0.87611 0.82489 0.0
H385 H 0.18512 0.96698 0.89657 0.0
H386 H 0.21106 0.91607 0.8388 0.0
S387 S 0.90787 0.8393 0.84809 0.0
N388 N 0.94705 0.88324 0.88298 0.0
N389 N 0.97244 0.83227 0.81984 0.0
C390 C 0.03056 0.86517 0.83855 0.0
C391 C 0.01632 0.89367 0.87256 0.0
C392 C 0.4108 0.47925 0.6318 0.0
C393 C 0.45725 0.42902 0.61776 0.0
C394 C 0.3915 0.47384 0.66723 0.0
C395 C 0.41723 0.41728 0.6893 0.0
H396 H 0.39664 0.52719 0.61694 0.0
H397 H 0.36341 0.51825 0.67835 0.0
S398 S 0.52167 0.26163 0.66071 0.0
N399 N 0.51763 0.31538 0.62582 0.0
N400 N 0.47491 0.301 0.6911 0.0
C401 C 0.45333 0.36104 0.67327 0.0
C402 C 0.4754 0.36812 0.6378 0.0
C403 C 0.55602 0.38773 0.37219 0.0
C404 C 0.56717 0.44569 0.39582 0.0
C405 C 0.57073 0.39372 0.33611 0.0
C406 C 0.59352 0.45906 0.32187 0.0
H407 H 0.53042 0.33923 0.38096 0.0
H408 H 0.55837 0.34829 0.31864 0.0
S409 S 0.63793 0.62463 0.37447 0.0
N410 N 0.61127 0.56722 0.4042 0.0
N411 N 0.63362 0.581 0.33592 0.0
C412 C 0.61091 0.51562 0.34617 0.0
C413 C 0.59865 0.50832 0.38325 0.0
loop_
_geom_bond_atom_site_label_1
_geom_bond_atom_site_label_2
_geom_bond_distance
_geom_bond_site_symmetry_2
_ccdc_geom_bond_type
Zn0 O6 1.920 1_545 S
Zn0 O12 1.898 . S
Zn0 O15 1.905 1_545 S
Zn1 O9 1.905 . S
Zn1 O10 1.898 1_545 S
Zn1 O18 1.920 1_545 S
Zn2 O5 2.080 1_445 S
Zn2 O8 2.114 . S
Zn2 O11 2.120 1_545 S
Zn2 O13 2.120 1_455 S
Zn2 O14 2.114 1_554 S
Zn2 O17 2.080 . S
C3 O8 1.166 . S
C3 O9 1.182 . S
C4 O10 1.167 . S
C4 O11 1.299 . S
O5 Zn2 2.080 1_665 S
O5 C19 1.305 . S
O6 Zn0 1.920 1_565 S
O6 C19 1.234 1_556 S
C7 O12 1.167 . S
C7 O13 1.299 1_556 S
O8 Zn2 2.114 . S
O8 C3 1.166 . S
O9 Zn1 1.905 . S
O9 C3 1.182 . S
O10 Zn1 1.898 1_565 S
O10 C4 1.167 . S
O11 Zn2 2.120 1_565 S
O11 C4 1.299 . S
O12 Zn0 1.898 . S
O12 C7 1.167 . S
O13 Zn2 2.120 1_655 S
O13 C7 1.299 1_554 S
O14 Zn2 2.114 1_556 S
O14 C16 1.166 1_445 S
O15 Zn0 1.905 1_565 S
O15 C16 1.182 . S
C16 O14 1.166 1_665 S
C16 O15 1.182 . S
O17 Zn2 2.080 . S
O17 C20 1.305 1_545 S
O18 Zn1 1.920 1_565 S
O18 C20 1.234 . S
C19 O5 1.305 . S
C19 O6 1.234 1_554 S
C20 O17 1.305 1_565 S
C20 O18 1.234 . S
Zn21 O27 1.920 . S
Zn21 O33 1.898 . S
Zn21 O36 1.905 . S
Zn22 O30 1.905 . S
Zn22 O31 1.898 . S
Zn22 O39 1.920 . S
Zn23 O26 2.080 . S
Zn23 O29 2.114 . S
Zn23 O32 2.120 . S
Zn23 O34 2.120 . S
Zn23 O35 2.114 . S
Zn23 O38 2.080 . S
C24 O29 1.166 . S
C24 O30 1.182 . S
C25 O31 1.167 . S
C25 O32 1.299 . S
O26 Zn23 2.080 . S
O26 C40 1.305 . S
O27 Zn21 1.920 . S
O27 C40 1.234 . S
C28 O33 1.167 . S
C28 O34 1.299 . S
O29 Zn23 2.114 . S
O29 C24 1.166 . S
O30 Zn22 1.905 . S
O30 C24 1.182 . S
O31 Zn22 1.898 . S
O31 C25 1.167 . S
O32 Zn23 2.120 . S
O32 C25 1.299 . S
O33 Zn21 1.898 . S
O33 C28 1.167 . S
O34 Zn23 2.120 . S
O34 C28 1.299 . S
O35 Zn23 2.114 . S
O35 C37 1.166 . S
O36 Zn21 1.905 . S
O36 C37 1.182 . S
C37 O35 1.166 . S
C37 O36 1.182 . S
O38 Zn23 2.080 . S
O38 C41 1.305 . S
O39 Zn22 1.920 . S
O39 C41 1.234 . S
C40 O26 1.305 . S
C40 O27 1.234 . S
C41 O38 1.305 . S
C41 O39 1.234 . S
C42 C43 1.391 . S
C42 C46 1.391 . S
C42 H84 0.948 . S
C43 C42 1.391 . S
C43 C44 1.391 . S
C44 C43 1.391 . S
C44 H100 0.947 . S
C44 C101 1.392 . S
C45 C46 1.391 . S
C45 C49 1.397 . S
C45 C101 1.419 . S
C46 C42 1.391 . S
C46 C45 1.391 . S
C46 C47 1.399 . S
C47 C46 1.399 . S
C47 C50 1.396 1_565 S
C47 C59 1.453 1_565 S
C47 C60 1.684 . S
H48 C72 0.948 . S
C49 C45 1.397 . S
C49 C50 1.394 1_565 S
C49 C68 1.723 . S
C50 C47 1.396 1_545 S
C50 C49 1.394 1_545 S
C50 C80 1.723 . S
H51 C74 0.947 . S
H52 C75 0.948 1_455 S
H53 C81 0.982 1_455 S
H54 C82 0.979 . S
H55 C82 0.980 . S
H56 C82 0.983 . S
H57 C81 0.979 . S
H58 C81 0.977 . S
C59 C47 1.453 1_545 S
C59 H88 0.982 . S
C59 H89 0.979 . S
C59 H90 0.977 . S
C60 C47 1.684 . S
C60 H85 0.979 . S
C60 H86 0.980 1_565 S
C60 H87 0.983 . S
C61 C62 1.391 1_565 S
C61 C66 1.391 . S
C61 H91 0.948 . S
C62 C61 1.391 1_545 S
C62 C63 1.391 . S
C63 C62 1.391 . S
C63 C64 1.392 . S
C63 H92 0.947 1_455 S
C64 C63 1.392 . S
C64 C65 1.419 . S
C64 H93 0.948 1_455 S
C65 C64 1.419 . S
C65 C66 1.391 1_545 S
C65 C69 1.397 . S
C66 C61 1.391 . S
C66 C65 1.391 1_565 S
C66 C67 1.399 . S
C67 C66 1.399 . S
C67 C68 1.396 . S
C67 C70 1.453 . S
C67 C71 1.684 . S
C68 C49 1.723 . S
C68 C67 1.396 . S
C68 C69 1.394 1_565 S
C69 C65 1.397 . S
C69 C68 1.394 1_545 S
C69 C79 1.723 . S
C70 C67 1.453 . S
C70 H94 0.982 1_565 S
C70 H95 0.979 . S
C70 H96 0.977 . S
C71 C67 1.684 . S
C71 H97 0.979 . S
C71 H98 0.980 . S
C71 H99 0.983 . S
C72 H48 0.948 . S
C72 C73 1.391 . S
C72 C77 1.391 . S
C73 C72 1.391 . S
C73 C74 1.391 . S
C74 H51 0.947 . S
C74 C73 1.391 . S
C74 C75 1.392 . S
C75 H52 0.948 1_655 S
C75 C74 1.392 . S
C75 C76 1.419 . S
C76 C75 1.419 . S
C76 C77 1.391 . S
C76 C80 1.397 1_655 S
C77 C72 1.391 . S
C77 C76 1.391 . S
C77 C78 1.399 . S
C78 C77 1.399 . S
C78 C79 1.396 1_655 S
C78 C81 1.453 . S
C78 C82 1.684 . S
C79 C69 1.723 . S
C79 C78 1.396 1_455 S
C79 C80 1.394 . S
C80 C50 1.723 . S
C80 C76 1.397 1_455 S
C80 C79 1.394 . S
C81 H53 0.982 1_655 S
C81 H57 0.979 . S
C81 H58 0.977 . S
C81 C78 1.453 . S
C82 H54 0.979 . S
C82 H55 0.980 . S
C82 H56 0.983 . S
C82 C78 1.684 . S
H83 C101 0.948 . S
H84 C42 0.948 . S
H85 C60 0.979 . S
H86 C60 0.980 1_545 S
H87 C60 0.983 . S
H88 C59 0.982 . S
H89 C59 0.979 . S
H90 C59 0.977 . S
H91 C61 0.948 . S
H92 C63 0.947 1_655 S
H93 C64 0.948 1_655 S
H94 C70 0.982 1_545 S
H95 C70 0.979 . S
H96 C70 0.977 . S
H97 C71 0.979 . S
H98 C71 0.980 . S
H99 C71 0.983 . S
H100 C44 0.947 . S
C101 C44 1.392 . S
C101 C45 1.419 . S
C101 H83 0.948 . S
C102 C103 1.391 . S
C102 C106 1.391 . S
C102 H144 0.948 . S
C103 C102 1.391 . S
C103 C104 1.391 . S
C104 C103 1.391 . S
C104 H160 0.947 . S
C104 C161 1.392 . S
C105 C106 1.391 . S
C105 C109 1.397 . S
C105 C161 1.419 . S
C106 C102 1.391 . S
C106 C105 1.391 . S
C106 C107 1.399 . S
C107 C106 1.399 . S
C107 C110 1.396 . S
C107 C119 1.453 . S
C107 C120 1.684 1_455 S
H108 C132 0.948 . S
C109 C105 1.397 . S
C109 C110 1.394 . S
C109 C128 1.723 . S
C110 C107 1.396 . S
C110 C109 1.394 . S
C110 C140 1.723 1_445 S
H111 C134 0.947 . S
H112 C135 0.948 . S
H113 C141 0.982 . S
H114 C142 0.979 . S
H115 C142 0.980 . S
H116 C142 0.983 . S
H117 C141 0.979 . S
H118 C141 0.977 . S
C119 C107 1.453 . S
C119 H148 0.982 1_545 S
C119 H149 0.979 . S
C119 H150 0.977 1_545 S
C120 C107 1.684 1_655 S
C120 H145 0.979 . S
C120 H146 0.980 . S
C120 H147 0.983 1_655 S
C121 C122 1.391 1_455 S
C121 C126 1.391 . S
C121 H151 0.948 . S
C122 C121 1.391 1_655 S
C122 C123 1.391 1_545 S
C123 C122 1.391 1_565 S
C123 C124 1.392 . S
C123 H152 0.947 . S
C124 C123 1.392 . S
C124 C125 1.419 1_565 S
C124 H153 0.948 . S
C125 C124 1.419 1_545 S
C125 C126 1.391 1_655 S
C125 C129 1.397 . S
C126 C121 1.391 . S
C126 C125 1.391 1_455 S
C126 C127 1.399 . S
C127 C126 1.399 . S
C127 C128 1.396 . S
C127 C130 1.453 . S
C127 C131 1.684 . S
C128 C109 1.723 . S
C128 C127 1.396 . S
C128 C129 1.394 1_455 S
C129 C125 1.397 . S
C129 C128 1.394 1_655 S
C129 C139 1.723 1_545 S
C130 C127 1.453 . S
C130 H154 0.982 . S
C130 H155 0.979 . S
C130 H156 0.977 . S
C131 C127 1.684 . S
C131 H157 0.979 . S
C131 H158 0.980 . S
C131 H159 0.983 . S
C132 H108 0.948 . S
C132 C133 1.391 . S
C132 C137 1.391 . S
C133 C132 1.391 . S
C133 C134 1.391 . S
C134 H111 0.947 . S
C134 C133 1.391 . S
C134 C135 1.392 . S
C135 H112 0.948 . S
C135 C134 1.392 . S
C135 C136 1.419 . S
C136 C135 1.419 . S
C136 C137 1.391 . S
C136 C140 1.397 . S
C137 C132 1.391 . S
C137 C136 1.391 . S
C137 C138 1.399 . S
C138 C137 1.399 . S
C138 C139 1.396 . S
C138 C141 1.453 . S
C138 C142 1.684 . S
C139 C129 1.723 1_565 S
C139 C138 1.396 . S
C139 C140 1.394 . S
C140 C110 1.723 1_665 S
C140 C136 1.397 . S
C140 C139 1.394 . S
C141 H113 0.982 . S
C141 H117 0.979 . S
C141 H118 0.977 . S
C141 C138 1.453 . S
C142 H114 0.979 . S
C142 H115 0.980 . S
C142 H116 0.983 . S
C142 C138 1.684 . S
H143 C161 0.948 . S
H144 C102 0.948 . S
H145 C120 0.979 . S
H146 C120 0.980 . S
H147 C120 0.983 1_455 S
H148 C119 0.982 1_565 S
H149 C119 0.979 . S
H150 C119 0.977 1_565 S
H151 C121 0.948 . S
H152 C123 0.947 . S
H153 C124 0.948 . S
H154 C130 0.982 . S
H155 C130 0.979 . S
H156 C130 0.977 . S
H157 C131 0.979 . S
H158 C131 0.980 . S
H159 C131 0.983 . S
H160 C104 0.947 . S
C161 C104 1.392 . S
C161 C105 1.419 . S
C161 H143 0.948 . S
C162 C163 1.391 . S
C162 C166 1.391 . S
C162 H204 0.948 1_556 S
C163 C162 1.391 . S
C163 C164 1.391 . S
C164 C163 1.391 . S
C164 H220 0.947 . S
C164 C221 1.392 . S
C165 C166 1.391 . S
C165 C169 1.397 . S
C165 C221 1.419 . S
C166 C162 1.391 . S
C166 C165 1.391 . S
C166 C167 1.399 . S
C167 C166 1.399 . S
C167 C170 1.396 . S
C167 C179 1.453 1_556 S
C167 C180 1.684 1_556 S
H168 C192 0.948 . S
C169 C165 1.397 . S
C169 C170 1.394 . S
C169 C188 1.723 . S
C170 C167 1.396 . S
C170 C169 1.394 . S
C170 C200 1.723 . S
H171 C194 0.947 . S
H172 C195 0.948 1_554 S
H173 C201 0.982 . S
H174 C202 0.979 . S
H175 C202 0.980 . S
H176 C202 0.983 . S
H177 C201 0.979 . S
H178 C201 0.977 . S
C179 C167 1.453 1_554 S
C179 H208 0.982 1_554 S
C179 H209 0.979 . S
C179 H210 0.977 . S
C180 C167 1.684 1_554 S
C180 H205 0.979 . S
C180 H206 0.980 . S
C180 H207 0.983 . S
C181 C182 1.391 . S
C181 C186 1.391 . S
C181 H211 0.948 . S
C182 C181 1.391 . S
C182 C183 1.391 . S
C183 C182 1.391 . S
C183 C184 1.392 . S
C183 H212 0.947 . S
C184 C183 1.392 . S
C184 C185 1.419 . S
C184 H213 0.948 . S
C185 C184 1.419 . S
C185 C186 1.391 . S
C185 C189 1.397 . S
C186 C181 1.391 . S
C186 C185 1.391 . S
C186 C187 1.399 . S
C187 C186 1.399 . S
C187 C188 1.396 . S
C187 C190 1.453 . S
C187 C191 1.684 . S
C188 C169 1.723 . S
C188 C187 1.396 . S
C188 C189 1.394 . S
C189 C185 1.397 . S
C189 C188 1.394 . S
C189 C199 1.723 . S
C190 C187 1.453 . S
C190 H214 0.982 . S
C190 H215 0.979 . S
C190 H216 0.977 . S
C191 C187 1.684 . S
C191 H217 0.979 . S
C191 H218 0.980 . S
C191 H219 0.983 . S
C192 H168 0.948 . S
C192 C193 1.391 . S
C192 C197 1.391 . S
C193 C192 1.391 . S
C193 C194 1.391 1_556 S
C194 H171 0.947 . S
C194 C193 1.391 1_554 S
C194 C195 1.392 1_554 S
C195 H172 0.948 1_556 S
C195 C194 1.392 1_556 S
C195 C196 1.419 . S
C196 C195 1.419 . S
C196 C197 1.391 . S
C196 C200 1.397 . S
C197 C192 1.391 . S
C197 C196 1.391 . S
C197 C198 1.399 . S
C198 C197 1.399 . S
C198 C199 1.396 . S
C198 C201 1.453 . S
C198 C202 1.684 . S
C199 C189 1.723 . S
C199 C198 1.396 . S
C199 C200 1.394 . S
C200 C170 1.723 . S
C200 C196 1.397 . S
C200 C199 1.394 . S
C201 H173 0.982 . S
C201 H177 0.979 . S
C201 H178 0.977 . S
C201 C198 1.453 . S
C202 H174 0.979 . S
C202 H175 0.980 . S
C202 H176 0.983 . S
C202 C198 1.684 . S
H203 C221 0.948 . S
H204 C162 0.948 1_554 S
H205 C180 0.979 . S
H206 C180 0.980 . S
H207 C180 0.983 . S
H208 C179 0.982 1_556 S
H209 C179 0.979 . S
H210 C179 0.977 . S
H211 C181 0.948 . S
H212 C183 0.947 . S
H213 C184 0.948 . S
H214 C190 0.982 . S
H215 C190 0.979 . S
H216 C190 0.977 . S
H217 C191 0.979 . S
H218 C191 0.980 . S
H219 C191 0.983 . S
H220 C164 0.947 . S
C221 C164 1.392 . S
C221 C165 1.419 . S
C221 H203 0.948 . S
C222 C223 1.391 . S
C222 C226 1.391 . S
C222 H264 0.948 . S
C223 C222 1.391 . S
C223 C224 1.391 . S
C224 C223 1.391 . S
C224 H280 0.947 . S
C224 C281 1.392 . S
C225 C226 1.391 . S
C225 C229 1.397 . S
C225 C281 1.419 . S
C226 C222 1.391 . S
C226 C225 1.391 . S
C226 C227 1.399 . S
C227 C226 1.399 . S
C227 C230 1.396 . S
C227 C239 1.453 . S
C227 C240 1.684 . S
H228 C252 0.948 . S
C229 C225 1.397 . S
C229 C230 1.394 . S
C229 C248 1.723 . S
C230 C227 1.396 . S
C230 C229 1.394 . S
C230 C260 1.723 . S
H231 C254 0.947 1_556 S
H232 C255 0.948 . S
H233 C261 0.982 . S
H234 C262 0.979 . S
H235 C262 0.980 . S
H236 C262 0.983 . S
H237 C261 0.979 . S
H238 C261 0.977 . S
C239 C227 1.453 . S
C239 H268 0.982 . S
C239 H269 0.979 . S
C239 H270 0.977 . S
C240 C227 1.684 . S
C240 H265 0.979 . S
C240 H266 0.980 . S
C240 H267 0.983 1_554 S
C241 C242 1.391 . S
C241 C246 1.391 . S
C241 H271 0.948 . S
C242 C241 1.391 . S
C242 C243 1.391 . S
C243 C242 1.391 . S
C243 C244 1.392 . S
C243 H272 0.947 . S
C244 C243 1.392 . S
C244 C245 1.419 . S
C244 H273 0.948 . S
C245 C244 1.419 . S
C245 C246 1.391 . S
C245 C249 1.397 . S
C246 C241 1.391 . S
C246 C245 1.391 . S
C246 C247 1.399 . S
C247 C246 1.399 . S
C247 C248 1.396 . S
C247 C250 1.453 . S
C247 C251 1.684 . S
C248 C229 1.723 . S
C248 C247 1.396 . S
C248 C249 1.394 . S
C249 C245 1.397 . S
C249 C248 1.394 . S
C249 C259 1.723 . S
C250 C247 1.453 . S
C250 H274 0.982 . S
C250 H275 0.979 . S
C250 H276 0.977 . S
C251 C247 1.684 . S
C251 H277 0.979 . S
C251 H278 0.980 . S
C251 H279 0.983 . S
C252 H228 0.948 . S
C252 C253 1.391 . S
C252 C257 1.391 . S
C253 C252 1.391 . S
C253 C254 1.391 . S
C254 H231 0.947 1_554 S
C254 C253 1.391 . S
C254 C255 1.392 . S
C255 H232 0.948 . S
C255 C254 1.392 . S
C255 C256 1.419 . S
C256 C255 1.419 . S
C256 C257 1.391 . S
C256 C260 1.397 . S
C257 C252 1.391 . S
C257 C256 1.391 . S
C257 C258 1.399 . S
C258 C257 1.399 . S
C258 C259 1.396 . S
C258 C261 1.453 . S
C258 C262 1.684 . S
C259 C249 1.723 . S
C259 C258 1.396 . S
C259 C260 1.394 . S
C260 C230 1.723 . S
C260 C256 1.397 . S
C260 C259 1.394 . S
C261 H233 0.982 . S
C261 H237 0.979 . S
C261 H238 0.977 . S
C261 C258 1.453 . S
C262 H234 0.979 . S
C262 H235 0.980 . S
C262 H236 0.983 . S
C262 C258 1.684 . S
H263 C281 0.948 . S
H264 C222 0.948 . S
H265 C240 0.979 . S
H266 C240 0.980 . S
H267 C240 0.983 1_556 S
H268 C239 0.982 . S
H269 C239 0.979 . S
H270 C239 0.977 . S
H271 C241 0.948 . S
H272 C243 0.947 . S
H273 C244 0.948 . S
H274 C250 0.982 . S
H275 C250 0.979 . S
H276 C250 0.977 . S
H277 C251 0.979 . S
H278 C251 0.980 . S
H279 C251 0.983 . S
H280 C224 0.947 . S
C281 C224 1.392 . S
C281 C225 1.419 . S
C281 H263 0.948 . S
C282 C283 1.369 . S
C282 C284 1.419 . S
C282 H286 0.930 1_554 S
C283 C282 1.369 . S
C283 C292 1.429 . S
C284 C282 1.419 . S
C284 C285 1.363 . S
C284 H287 0.929 1_554 S
C285 C284 1.363 . S
C285 C291 1.428 . S
H286 C282 0.930 1_556 S
H287 C284 0.929 1_556 S
S288 N289 1.613 . S
S288 N290 1.610 . S
N289 S288 1.613 . S
N289 C292 1.350 . S
N290 S288 1.610 . S
N290 C291 1.351 . S
C291 C285 1.428 . S
C291 N290 1.351 . S
C291 C292 1.434 . S
C292 C283 1.429 . S
C292 N289 1.350 . S
C292 C291 1.434 . S
C293 C294 1.369 1_554 S
C293 C295 1.419 . S
C293 H297 0.930 . S
C294 C293 1.369 1_556 S
C294 C303 1.429 . S
C295 C293 1.419 . S
C295 C296 1.363 1_554 S
C295 H298 0.929 . S
C296 C295 1.363 1_556 S
C296 C302 1.428 . S
H297 C293 0.930 . S
H298 C295 0.929 . S
S299 N300 1.613 . S
S299 N301 1.610 . S
N300 S299 1.613 . S
N300 C303 1.350 . S
N301 S299 1.610 . S
N301 C302 1.351 . S
C302 C296 1.428 . S
C302 N301 1.351 . S
C302 C303 1.434 . S
C303 C294 1.429 . S
C303 N300 1.350 . S
C303 C302 1.434 . S
C304 C305 1.369 . S
C304 C306 1.419 . S
C304 H308 0.930 . S
C305 C304 1.369 . S
C305 C314 1.429 . S
C306 C304 1.419 . S
C306 C307 1.363 . S
C306 H309 0.929 . S
C307 C306 1.363 . S
C307 C313 1.428 . S
H308 C304 0.930 . S
H309 C306 0.929 . S
S310 N311 1.613 . S
S310 N312 1.617 . S
N311 S310 1.613 . S
N311 C314 1.350 1_556 S
N312 S310 1.617 . S
N312 C313 1.344 1_556 S
C313 C307 1.428 . S
C313 N312 1.344 1_554 S
C313 C314 1.434 . S
C314 C305 1.429 . S
C314 N311 1.350 1_554 S
C314 C313 1.434 . S
C315 C316 1.369 . S
C315 C317 1.419 . S
C315 H319 0.930 . S
C316 C315 1.369 . S
C316 C325 1.429 1_554 S
C317 C315 1.419 . S
C317 C318 1.363 1_554 S
C317 H320 0.929 . S
C318 C317 1.363 1_556 S
C318 C324 1.428 . S
H319 C315 0.930 . S
H320 C317 0.929 . S
S321 N322 1.613 . S
S321 N323 1.610 . S
N322 S321 1.613 . S
N322 C325 1.350 . S
N323 S321 1.610 . S
N323 C324 1.351 . S
C324 C318 1.428 . S
C324 N323 1.351 . S
C324 C325 1.434 . S
C325 C316 1.429 1_556 S
C325 N322 1.350 . S
C325 C324 1.434 . S
C326 C327 1.369 . S
C326 C328 1.419 . S
C326 H330 0.930 . S
C327 C326 1.369 . S
C327 C336 1.429 . S
C328 C326 1.419 . S
C328 C329 1.363 . S
C328 H331 0.929 . S
C329 C328 1.363 . S
C329 C335 1.428 . S
H330 C326 0.930 . S
H331 C328 0.929 . S
S332 N333 1.613 . S
S332 N334 1.610 . S
N333 S332 1.613 . S
N333 C336 1.350 . S
N334 S332 1.610 . S
N334 C335 1.351 . S
C335 C329 1.428 . S
C335 N334 1.351 . S
C335 C336 1.434 . S
C336 C327 1.429 . S
C336 N333 1.350 . S
C336 C335 1.434 . S
C337 C338 1.369 . S
C337 C339 1.419 . S
C337 H341 0.930 . S
C338 C337 1.369 . S
C338 C347 1.429 . S
C339 C337 1.419 . S
C339 C340 1.363 . S
C339 H342 0.929 . S
C340 C339 1.363 . S
C340 C346 1.428 . S
H341 C337 0.930 . S
H342 C339 0.929 . S
S343 N344 1.613 . S
S343 N345 1.610 . S
N344 S343 1.613 . S
N344 C347 1.350 . S
N345 S343 1.610 . S
N345 C346 1.351 . S
C346 C340 1.428 . S
C346 N345 1.351 . S
C346 C347 1.434 . S
C347 C338 1.429 . S
C347 N344 1.350 . S
C347 C346 1.434 . S
C348 C349 1.369 . S
C348 C350 1.419 . S
C348 H352 0.930 . S
C349 C348 1.369 . S
C349 C358 1.429 . S
C350 C348 1.419 . S
C350 C351 1.363 . S
C350 H353 0.929 . S
C351 C350 1.363 . S
C351 C357 1.428 . S
H352 C348 0.930 . S
H353 C350 0.929 . S
S354 N355 1.613 . S
S354 N356 1.610 . S
N355 S354 1.613 . S
N355 C358 1.350 . S
N356 S354 1.610 . S
N356 C357 1.351 . S
C357 C351 1.428 . S
C357 N356 1.351 . S
C357 C358 1.434 . S
C358 C349 1.429 . S
C358 N355 1.350 . S
C358 C357 1.434 . S
C359 C360 1.369 . S
C359 C361 1.419 . S
C359 H363 0.930 . S
C360 C359 1.369 . S
C360 C369 1.429 . S
C361 C359 1.419 . S
C361 C362 1.363 . S
C361 H364 0.929 . S
C362 C361 1.363 . S
C362 C368 1.428 . S
H363 C359 0.930 . S
H364 C361 0.929 . S
S365 N366 1.613 . S
S365 N367 1.610 . S
N366 S365 1.613 . S
N366 C369 1.350 . S
N367 S365 1.610 . S
N367 C368 1.351 . S
C368 C362 1.428 . S
C368 N367 1.351 . S
C368 C369 1.434 . S
C369 C360 1.429 . S
C369 N366 1.350 . S
C369 C368 1.434 . S
C370 C371 1.369 1_655 S
C370 C372 1.419 1_565 S
C370 H374 0.930 . S
C371 C370 1.369 1_455 S
C371 C380 1.429 . S
C372 C370 1.419 1_545 S
C372 C373 1.358 1_655 S
C372 H375 0.935 . S
C373 C372 1.358 1_455 S
C373 C379 1.428 . S
H374 C370 0.930 . S
H375 C372 0.935 . S
S376 N377 1.613 . S
S376 N378 1.610 1_565 S
N377 S376 1.613 . S
N377 C380 1.350 . S
N378 S376 1.610 1_545 S
N378 C379 1.351 . S
C379 C373 1.428 . S
C379 N378 1.351 . S
C379 C380 1.434 1_545 S
C380 C371 1.429 . S
C380 N377 1.350 . S
C380 C379 1.434 1_565 S
C381 C382 1.369 1_545 S
C381 C383 1.419 . S
C381 H385 0.930 . S
C382 C381 1.369 1_565 S
C382 C391 1.429 1_455 S
C383 C381 1.419 . S
C383 C384 1.363 . S
C383 H386 0.929 . S
C384 C383 1.363 . S
C384 C390 1.428 1_445 S
H385 C381 0.930 . S
H386 C383 0.929 . S
S387 N388 1.613 . S
S387 N389 1.610 . S
N388 S387 1.613 . S
N388 C391 1.350 . S
N389 S387 1.610 . S
N389 C390 1.351 . S
C390 C384 1.428 1_665 S
C390 N389 1.351 . S
C390 C391 1.434 . S
C391 C382 1.429 1_655 S
C391 N388 1.350 . S
C391 C390 1.434 . S
C392 C393 1.369 . S
C392 C394 1.419 . S
C392 H396 0.930 . S
C393 C392 1.369 . S
C393 C402 1.429 . S
C394 C392 1.419 . S
C394 C395 1.363 . S
C394 H397 0.929 . S
C395 C394 1.363 . S
C395 C401 1.428 . S
H396 C392 0.930 . S
H397 C394 0.929 . S
S398 N399 1.613 . S
S398 N400 1.610 . S
N399 S398 1.613 . S
N399 C402 1.350 . S
N400 S398 1.610 . S
N400 C401 1.351 . S
C401 C395 1.428 . S
C401 N400 1.351 . S
C401 C402 1.434 . S
C402 C393 1.429 . S
C402 N399 1.350 . S
C402 C401 1.434 . S
C403 C404 1.369 . S
C403 C405 1.419 . S
C403 H407 0.930 . S
C404 C403 1.369 . S
C404 C413 1.429 . S
C405 C403 1.419 . S
C405 C406 1.363 . S
C405 H408 0.929 . S
C406 C405 1.363 . S
C406 C412 1.428 . S
H407 C403 0.930 . S
H408 C405 0.929 . S
S409 N410 1.613 . S
S409 N411 1.610 . S
N410 S409 1.613 . S
N410 C413 1.350 . S
N411 S409 1.610 . S
N411 C412 1.351 . S
C412 C406 1.428 . S
C412 N411 1.351 . S
C412 C413 1.434 . S
C413 C404 1.429 . S
C413 N410 1.350 . S
C413 C412 1.434 . S
C285 C253 1.355 . S
C283 C3 1.243 . S
C294 C4 1.499 1_556 S
C296 C193 1.633 . S
C305 C19 1.512 . S
C307 C223 1.556 . S
C316 C7 1.241 1_554 S
C318 C163 1.256 . S
C327 C37 1.234 . S
C329 C133 1.355 . S
C338 C28 1.494 . S
C340 C73 1.633 . S
C351 C103 1.557 . S
C349 C41 1.517 . S
C362 C43 1.263 . S
C360 C25 1.237 . S
C371 C20 1.314 . S
C373 C62 1.483 . S
C382 C16 1.364 1_455 S
C384 C122 1.514 1_455 S
C395 C182 1.479 . S
C393 C40 1.323 . S
C404 C24 1.360 . S
C406 C242 1.520 . S
