# Generated by pormake.
# Topology tsx, (6,3)-cn, num edge types: 1
# Building blocks:
#     Node 0, Type 0, BuildingBlock: CIFDUS_clean_sbu_1, # of connection points: 6
#     Node 1, Type 0, BuildingBlock: CIFDUS_clean_sbu_1, # of connection points: 6
#     Node 2, Type 1, BuildingBlock: VETTIZ_charged_linker_0, # of connection points: 3
#     Node 3, Type 1, BuildingBlock: VETTIZ_charged_linker_0, # of connection points: 3
#     Node 4, Type 1, BuildingBlock: VETTIZ_charged_linker_0, # of connection points: 3
#     Node 5, Type 1, BuildingBlock: VETTIZ_charged_linker_0, # of connection points: 3
#     Edge 6, Type (0, 1), BuildingBlock: FUNLAD_clean_linker_1, # of connection points: 2
#     Edge 7, Type (0, 1), BuildingBlock: FUNLAD_clean_linker_1, # of connection points: 2
#     Edge 8, Type (0, 1), BuildingBlock: FUNLAD_clean_linker_1, # of connection points: 2
#     Edge 9, Type (0, 1), BuildingBlock: FUNLAD_clean_linker_1, # of connection points: 2
#     Edge 10, Type (0, 1), BuildingBlock: FUNLAD_clean_linker_1, # of connection points: 2
#     Edge 11, Type (0, 1), BuildingBlock: FUNLAD_clean_linker_1, # of connection points: 2
#     Edge 12, Type (0, 1), BuildingBlock: FUNLAD_clean_linker_1, # of connection points: 2
#     Edge 13, Type (0, 1), BuildingBlock: FUNLAD_clean_linker_1, # of connection points: 2
#     Edge 14, Type (0, 1), BuildingBlock: FUNLAD_clean_linker_1, # of connection points: 2
#     Edge 15, Type (0, 1), BuildingBlock: FUNLAD_clean_linker_1, # of connection points: 2
#     Edge 16, Type (0, 1), BuildingBlock: FUNLAD_clean_linker_1, # of connection points: 2
#     Edge 17, Type (0, 1), BuildingBlock: FUNLAD_clean_linker_1, # of connection points: 2
# Relax obj value: 0.132
# Max RMSD: 0.158
# Mean RMSD: 0.122
data_MOF--net-tsx--node1-CIFDUS_clean_sbu_1--node2-VETTIZ_charged_linker_0--edge1-FUNLAD_clean_linker_1
_symmetry_space_group_name_H-M    P1
_symmetry_Int_Tables_number       1
_symmetry_cell_setting            triclinic
loop_
_symmetry_equiv_pos_as_xyz
'x, y, z'
_cell_length_a     22.420703
_cell_length_b     27.494979
_cell_length_c     47.311048
_cell_angle_alpha  96.347787
_cell_angle_beta   90.826616
_cell_angle_gamma 90.917295
loop_
_atom_site_label
_atom_site_type_symbol
_atom_site_fract_x
_atom_site_fract_y
_atom_site_fract_z
_atom_type_partial_charge
O0 O 1.00172 0.10052 0.00578 0.0
Mn1 Mn 0.05106 0.03549 -0.00194 0.0
O2 O 0.91792 0.08678 0.9796 0.0
Mn3 Mn 0.9434 0.02867 0.96149 0.0
O4 O 0.09991 0.97037 0.98984 0.0
O5 O 0.12545 0.07729 0.01021 0.0
Mn6 Mn 0.17005 0.04012 0.03002 0.0
O7 O 0.03622 0.02148 0.03985 0.0
O8 O 0.19329 0.98701 0.00588 0.0
O9 O 0.07072 0.0501 0.95666 0.0
O10 O 0.98927 0.03243 0.93005 0.0
O11 O 0.21196 0.09746 0.03069 0.0
O12 O 0.12682 0.02625 0.06119 0.0
C13 C 0.92678 0.96521 0.97961 0.0
C14 C 0.95 0.11347 -0.00251 0.0
C15 C 0.1551 0.95905 -0.00795 0.0
C16 C 0.16784 0.11034 0.01533 0.0
C17 C 0.07056 0.01884 0.06156 0.0
C18 C 0.04366 0.04527 0.93255 0.0
O19 O 0.97491 0.99239 0.98677 0.0
O20 O 0.89175 0.97871 0.96001 0.0
O21 O 0.53411 0.5988 0.51184 0.0
Mn22 Mn 0.58095 0.53292 0.50373 0.0
O23 O 0.44253 0.58305 0.49242 0.0
Mn24 Mn 0.45867 0.52233 0.4739 0.0
O25 O 0.62572 0.46655 0.49443 0.0
O26 O 0.6577 0.572 0.50952 0.0
Mn27 Mn 0.71172 0.53765 0.52545 0.0
O28 O 0.58123 0.52294 0.54711 0.0
O29 O 0.72379 0.48226 0.50061 0.0
O30 O 0.58586 0.54314 0.46061 0.0
O31 O 0.4974 0.52273 0.43977 0.0
O32 O 0.74799 0.59674 0.52079 0.0
O33 O 0.67904 0.52751 0.56016 0.0
C34 C 0.4597 0.46204 0.49796 0.0
C35 C 0.48035 0.61156 0.50653 0.0
C36 C 0.68049 0.45409 0.49176 0.0
C37 C 0.69641 0.6075 0.51075 0.0
C38 C 0.6239 0.52187 0.56568 0.0
C39 C 0.55177 0.53604 0.4385 0.0
O40 O 0.5037 0.4933 0.49769 0.0
O41 O 0.41464 0.46919 0.48157 0.0
C42 C 0.14839 0.90088 0.46159 0.0
C43 C 0.19651 0.87296 0.45063 0.0
C44 C 0.20932 0.87144 0.42146 0.0
C45 C 0.12805 0.92599 0.41476 0.0
C46 C 0.11556 0.92795 0.4434 0.0
C47 C 0.06568 0.96261 0.45162 0.0
H48 H 0.88865 0.14369 0.41409 0.0
C49 C 0.08739 0.95907 0.40173 0.0
C50 C 0.05154 0.98177 0.42331 0.0
H51 H 0.89435 0.08463 0.49495 0.0
H52 H 0.96449 0.02314 0.47553 0.0
H53 H 0.02998 0.13503 0.39739 0.0
H54 H 0.87126 0.04749 0.38118 0.0
H55 H 0.91681 0.02787 0.35249 0.0
H56 H 0.8933 0.09074 0.35753 0.0
H57 H 0.96799 0.14952 0.37553 0.0
H58 H 0.02824 0.11264 0.36097 0.0
C59 C 0.09055 0.00324 0.47401 0.0
C60 C 1.01274 0.93297 0.46213 0.0
C61 C 0.08505 0.96568 0.29453 0.0
C62 C 0.05148 0.99332 0.27695 0.0
C63 C 1.01459 0.03046 0.2895 0.0
C64 C 1.00919 0.03854 0.31898 0.0
C65 C 0.04062 0.00909 0.33625 0.0
C66 C 0.07852 0.97387 0.32411 0.0
C67 C 0.10963 0.94738 0.34621 0.0
C68 C 0.08084 0.97049 0.3733 0.0
C69 C 0.04095 0.00669 0.36717 0.0
C70 C 0.17748 0.9594 0.3456 0.0
C71 C 0.09379 0.89219 0.34018 0.0
C72 C 0.90661 0.11923 0.42833 0.0
C73 C 0.88919 0.12148 0.45689 0.0
C74 C 0.90968 0.08533 0.47341 0.0
C75 C 0.95024 0.04994 0.46233 0.0
C76 C 0.97004 0.05029 0.43442 0.0
C77 C 0.94642 0.08343 0.41764 0.0
C78 C 0.96542 0.0741 0.38733 0.0
C79 C 1.00697 0.03155 0.38905 0.0
C80 C 1.01074 0.01827 0.4168 0.0
C81 C 0.99946 0.1202 0.37964 0.0
C82 C 0.90909 0.05956 0.36852 0.0
H83 H 0.18707 0.89465 0.38154 0.0
H84 H 0.13748 0.90239 0.4839 0.0
H85 H 0.96913 0.9484 0.45708 0.0
H86 H 0.01638 0.9307 0.48539 0.0
H87 H 1.01114 0.8949 0.45131 0.0
H88 H 0.13292 0.01888 0.46667 0.0
H89 H 0.10004 0.9883 0.49445 0.0
H90 H 0.06017 0.03414 0.47819 0.0
H91 H 0.11506 0.93791 0.28542 0.0
H92 H 0.99054 0.05403 0.2766 0.0
H93 H 0.98082 0.06758 0.32714 0.0
H94 H 0.18685 0.99293 0.33511 0.0
H95 H 0.20214 0.92902 0.33384 0.0
H96 H 0.19722 0.96742 0.36726 0.0
H97 H 0.04497 0.88671 0.33627 0.0
H98 H 0.10504 0.87141 0.35812 0.0
H99 H 0.11711 0.87547 0.32103 0.0
H100 H 0.2451 0.84921 0.41233 0.0
C101 C 0.17531 0.89762 0.40352 0.0
C102 C 0.12683 0.18181 0.54964 0.0
C103 C 0.16271 0.21974 0.56374 0.0
C104 C 0.15652 0.23158 0.59335 0.0
C105 C 0.08256 0.167 0.59445 0.0
C106 C 0.08676 0.15619 0.56538 0.0
C107 C 0.04607 0.114 0.55423 0.0
H108 H 0.84223 0.9403 0.58239 0.0
C109 C 0.04015 0.13205 0.60496 0.0
C110 C 0.01674 0.10177 0.58148 0.0
H111 H 0.91161 0.96628 0.50085 0.0
H112 H 0.97125 0.03549 0.52339 0.0
H113 H 0.96467 0.94698 0.61131 0.0
H114 H 0.82897 0.05537 0.61055 0.0
H115 H 0.85696 0.0573 0.64566 0.0
H116 H 0.8222 1.00172 0.62883 0.0
H117 H 0.90244 0.94791 0.63472 0.0
H118 H 0.97058 0.98188 0.64448 0.0
C119 C 0.08568 0.0719 0.54144 0.0
C120 C 1.00079 0.13209 0.53288 0.0
C121 C 0.03262 0.11974 0.71078 0.0
C122 C 1.00357 0.08673 0.72684 0.0
C123 C 0.95968 0.05441 0.71358 0.0
C124 C 0.94787 0.05251 0.68432 0.0
C125 C 0.98038 0.08332 0.66816 0.0
C126 C 0.02064 0.11713 0.68156 0.0
C127 C 0.05137 0.14671 0.66107 0.0
C128 C 0.02503 0.1234 0.63297 0.0
C129 C 0.98362 0.08634 0.63726 0.0
C130 C 0.11936 0.13802 0.66355 0.0
C131 C 0.03289 0.20089 0.66772 0.0
C132 C 0.86903 0.96177 0.56929 0.0
C133 C 0.87162 0.94904 0.53979 0.0
C134 C 0.90902 0.97617 0.52355 0.0
C135 C 0.94337 0.01589 0.53654 0.0
C136 C 0.94131 0.02769 0.56611 0.0
C137 C 0.90472 1.00065 0.58199 0.0
C138 C 0.91265 0.01519 0.61337 0.0
C139 C 0.95767 0.05696 0.6136 0.0
C140 C 0.9744 0.0643 0.58586 0.0
C141 C 0.9385 0.97089 0.62691 0.0
C142 C 0.8521 0.0331 0.62548 0.0
H143 H 0.11431 0.21638 0.63103 0.0
H144 H 0.1305 0.17188 0.52693 0.0
H145 H 0.99179 0.17174 0.53803 0.0
H146 H 0.95676 0.11379 0.53368 0.0
H147 H 0.0176 0.12667 0.51079 0.0
H148 H 0.12342 0.06629 0.5562 0.0
H149 H 0.10501 0.08058 0.52108 0.0
H150 H 0.06177 0.03638 0.53788 0.0
H151 H 0.0648 0.14649 0.72045 0.0
H152 H 0.93593 0.02931 0.72572 0.0
H153 H 0.91505 0.02622 0.67531 0.0
H154 H 0.12809 0.09868 0.66516 0.0
H155 H 0.13891 0.1595 0.68283 0.0
H156 H 0.1446 0.14698 0.64496 0.0
H157 H 0.9897 0.20409 0.67902 0.0
H158 H 0.02524 0.21883 0.64816 0.0
H159 H 0.06684 0.22238 0.68138 0.0
H160 H 0.18421 0.25942 0.60526 0.0
C161 C 0.1162 0.2059 0.60859 0.0
C162 C 0.65349 0.41836 0.95621 0.0
C163 C 0.69272 0.38375 0.94308 0.0
C164 C 0.69108 0.37375 0.91319 0.0
C165 C 0.61451 0.43416 0.90991 0.0
C166 C 0.61427 0.4427 0.93927 0.0
C167 C 0.56826 0.47975 0.94956 0.0
H168 H 0.37898 0.65663 0.91657 0.0
C169 C 0.57177 0.46758 0.89836 0.0
C170 C 0.54411 0.49443 0.92154 0.0
H171 H 0.40351 0.60593 -0.00108 0.0
H172 H 0.47362 0.54509 0.97877 0.0
H173 H 0.51774 0.64658 0.89402 0.0
H174 H 0.3574 0.55907 0.88714 0.0
H175 H 0.39564 0.5397 0.856 0.0
H176 H 0.37252 0.60256 0.86253 0.0
H177 H 0.45234 0.65986 0.87411 0.0
H178 H 0.50996 0.62134 0.85829 0.0
C179 C 0.60033 0.52287 0.96752 0.0
C180 C 0.52028 0.45377 0.96601 0.0
C181 C 0.55406 0.47528 0.79099 0.0
C182 C 0.51959 0.50481 0.77469 0.0
C183 C 0.48353 0.54091 0.78871 0.0
C184 C 0.4816 0.54802 0.81835 0.0
C185 C 0.51521 0.51803 0.83444 0.0
C186 C 0.55083 0.48244 0.82085 0.0
C187 C 0.58302 0.45416 0.84184 0.0
C188 C 0.55937 0.47792 0.87004 0.0
C189 C 0.52011 0.51542 0.86539 0.0
C190 C 0.65083 0.46368 0.83896 0.0
C191 C 0.56348 0.39964 0.83596 0.0
C192 C 0.40087 0.63374 0.93062 0.0
C193 C 0.38823 0.63778 0.95974 0.0
C194 C 0.41445 0.60453 0.97664 0.0
C195 C 0.45472 0.56921 0.9649 0.0
C196 C 0.46759 0.56627 0.93574 0.0
C197 C 0.43956 0.59769 0.91915 0.0
C198 C 0.45164 0.58591 0.88813 0.0
C199 C 0.49259 0.54279 0.88864 0.0
C200 C 0.50325 0.53187 0.91657 0.0
C201 C 0.4843 0.63069 0.87783 0.0
C202 C 0.39146 0.57133 0.87245 0.0
H203 H 0.6539 0.38987 0.87398 0.0
H204 H 0.65337 0.42614 0.97916 0.0
H205 H 0.47548 0.46912 0.96363 0.0
H206 H 0.53236 0.45553 0.98897 0.0
H207 H 0.51505 0.41447 0.95765 0.0
H208 H 0.63562 0.53895 0.95493 0.0
H209 H 0.62201 0.51005 0.98649 0.0
H210 H 0.57003 0.5526 0.97488 0.0
H211 H 0.58175 0.44674 0.78086 0.0
H212 H 0.45701 0.56421 0.77661 0.0
H213 H 0.45379 0.5767 0.8275 0.0
H214 H 0.65993 0.50231 0.83516 0.0
H215 H 0.66913 0.43975 0.82079 0.0
H216 H 0.67673 0.45868 0.85839 0.0
H217 H 0.51572 0.39615 0.82919 0.0
H218 H 0.5665 0.37998 0.85505 0.0
H219 H 0.59019 0.38021 0.81876 0.0
H220 H 0.72126 0.34771 0.90248 0.0
C221 C 0.65232 0.39871 0.8966 0.0
C222 C 0.65201 0.66435 0.05208 0.0
C223 C 0.6863 0.7038 0.06583 0.0
C224 C 0.67529 0.7198 0.09455 0.0
C225 C 0.60095 0.65543 0.0962 0.0
C226 C 0.60857 0.64126 0.0676 0.0
C227 C 0.56512 0.60049 0.05665 0.0
H228 H 0.35442 0.43393 0.0908 0.0
C229 C 0.55572 0.62292 0.10693 0.0
C230 C 0.53254 0.59125 0.08376 0.0
H231 H 0.41318 0.45291 0.00617 0.0
H232 H 0.47867 0.52042 0.02558 0.0
H233 H 0.48285 0.4451 0.11916 0.0
H234 H 0.33728 0.5424 0.11186 0.0
H235 H 0.36929 0.56056 0.1455 0.0
H236 H 0.33817 0.49943 0.13774 0.0
H237 H 0.41535 0.44201 0.13884 0.0
H238 H 0.47809 0.47973 0.15237 0.0
C239 C 0.60101 0.55574 0.0447 0.0
C240 C 0.52317 0.61987 0.03452 0.0
C241 C 0.5391 0.61995 0.21394 0.0
C242 C 0.50409 0.59136 0.23046 0.0
C243 C 0.45958 0.55999 0.21705 0.0
C244 C 0.45231 0.55471 0.18746 0.0
C245 C 0.48964 0.58149 0.17098 0.0
C246 C 0.53076 0.61462 0.18428 0.0
C247 C 0.56402 0.64181 0.16333 0.0
C248 C 0.53867 0.61711 0.13517 0.0
C249 C 0.4957 0.58166 0.13991 0.0
C250 C 0.63135 0.63199 0.16701 0.0
C251 C 0.54739 0.69667 0.16845 0.0
C252 C 0.38088 0.45277 0.07624 0.0
C253 C 0.37812 0.43802 0.04699 0.0
C254 C 0.41366 0.46369 0.02886 0.0
C255 C 0.45185 0.50287 0.04016 0.0
C256 C 0.45414 0.51676 0.06978 0.0
C257 C 0.41831 0.49165 0.08703 0.0
C258 C 0.42559 0.50961 0.11787 0.0
C259 C 0.47052 0.55075 0.1167 0.0
C260 C 0.4883 0.55508 0.08861 0.0
C261 C 0.45139 0.46714 0.13311 0.0
C262 C 0.36456 0.52874 0.12906 0.0
H263 H 0.62748 0.70951 0.13156 0.0
H264 H 0.65874 0.65209 0.02982 0.0
H265 H 0.5095 0.65791 0.04167 0.0
H266 H 0.48144 0.59823 0.03154 0.0
H267 H 0.54543 0.62009 0.0137 0.0
H268 H 0.63097 0.54383 0.06146 0.0
H269 H 0.62932 0.56515 0.02698 0.0
H270 H 0.5723 0.5241 0.03679 0.0
H271 H 0.57216 0.6458 0.2238 0.0
H272 H 0.43157 0.5382 0.22946 0.0
H273 H 0.41868 0.5291 0.17858 0.0
H274 H 0.63883 0.59218 0.16752 0.0
H275 H 0.64921 0.65153 0.18725 0.0
H276 H 0.65869 0.643 0.14958 0.0
H277 H 0.50601 0.70235 0.18101 0.0
H278 H 0.53751 0.7122 0.14826 0.0
H279 H 0.58346 0.71887 0.18024 0.0
H280 H 0.70108 0.74983 0.10567 0.0
C281 C 0.63285 0.69601 0.10968 0.0
H282 H 0.13208 0.17117 -0.00768 0.0
C283 C 0.16871 0.15975 0.00518 0.0
H284 H 0.25317 0.17681 0.02438 0.0
H285 H 0.38061 0.33392 0.97104 0.0
H286 H 0.42037 0.26379 0.9421 0.0
H287 H 0.37144 0.18245 0.9404 0.0
H288 H 0.28229 0.17073 0.96784 0.0
C289 C 0.21641 0.18982 0.01219 0.0
C290 C 0.22731 0.23973 0.00345 0.0
C291 C 0.27765 0.24689 0.98647 0.0
C292 C 0.30542 0.29401 0.98717 0.0
C293 C 0.35744 0.29912 0.97109 0.0
C294 C 0.38073 0.25915 0.9544 0.0
C295 C 0.35323 0.21333 0.95347 0.0
C296 C 0.3024 0.20703 0.96935 0.0
H297 H 0.32701 0.37131 0.05385 0.0
C298 C 0.34005 0.39403 0.03745 0.0
H299 H 0.33082 0.40143 -0.00648 0.0
H300 H 0.1253 0.24081 0.03428 0.0
H301 H 0.0803 0.31204 0.05997 0.0
H302 H 0.12605 0.39423 0.05977 0.0
H303 H 0.2175 0.40567 0.03409 0.0
C304 C 0.31916 0.38053 0.01086 0.0
C305 C 0.28248 0.33423 0.00476 0.0
C306 C 0.22755 0.32832 0.01876 0.0
C307 C 0.2003 0.28097 0.01834 0.0
C308 C 0.14744 0.2759 0.03376 0.0
C309 C 0.12113 0.3165 0.04851 0.0
C310 C 0.14692 0.3628 0.04842 0.0
C311 C 0.19952 0.36885 0.03377 0.0
H312 H 0.2138 0.91302 0.96431 0.0
C313 C 0.17688 0.91186 0.97888 0.0
H314 H 0.13162 0.86955 0.0065 0.0
H315 H 0.28379 0.71337 0.91494 0.0
H316 H 0.21635 0.73648 0.87847 0.0
H317 H 0.1413 0.80005 0.88974 0.0
H318 H 0.1333 0.84085 0.93765 0.0
C319 C 0.16425 0.86984 0.98974 0.0
C320 C 0.20359 0.82662 0.9836 0.0
C321 C 0.20709 0.8024 0.95565 0.0
C322 C 0.2503 0.76559 0.94921 0.0
C323 C 0.25257 0.7421 0.92103 0.0
C324 C 0.21384 0.7548 0.89987 0.0
C325 C 0.17161 0.79059 0.90621 0.0
C326 C 0.16781 0.814 0.93376 0.0
H327 H 0.31586 0.66436 0.98887 0.0
C328 C 0.34465 0.67423 0.97204 0.0
H329 H 0.36902 0.72866 0.94609 0.0
H330 H 0.20594 0.86293 0.03996 0.0
H331 H 0.27351 0.8402 0.07646 0.0
H332 H 0.35065 0.77852 0.065 0.0
H333 H 0.3604 0.73897 0.01707 0.0
C334 C 0.33942 0.71845 0.96252 0.0
C335 C 0.29006 0.75279 0.97074 0.0
C336 C 0.28525 0.77584 -0.00103 0.0
C337 C 0.2414 0.81226 0.00546 0.0
C338 C 0.23811 0.83503 0.03376 0.0
C339 C 0.2768 0.82244 0.05496 0.0
C340 C 0.32017 0.78766 0.04852 0.0
C341 C 0.3249 0.76485 0.02088 0.0
H342 H 0.8622 0.90812 0.98495 0.0
C343 C 0.90529 0.9225 -0.00677 0.0
H344 H 0.97148 0.91573 0.02467 0.0
H345 H 0.78023 0.81943 0.10178 0.0
H346 H 0.82472 0.88471 0.13422 0.0
H347 H 0.89995 0.94104 0.11773 0.0
H348 H 0.93404 0.93049 0.06907 0.0
C349 C 0.9299 0.90142 0.01476 0.0
C350 C 0.89463 0.8613 0.02666 0.0
C351 C 0.87537 0.86769 0.05521 0.0
C352 C 0.8294 0.83671 0.06431 0.0
C353 C 0.81285 0.84306 0.09328 0.0
C354 C 0.83832 0.88024 0.11223 0.0
C355 C 0.88088 0.91183 0.10297 0.0
C356 C 0.8998 0.90552 0.07491 0.0
H357 H 0.76764 0.70253 0.03969 0.0
C358 C 0.73616 0.72657 0.05122 0.0
H359 H 0.71218 0.79847 0.06528 0.0
H360 H 0.93477 0.82775 0.97413 0.0
H361 H 0.88577 0.76678 0.93994 0.0
H362 H 0.79321 0.7248 0.95229 0.0
H363 H 0.751 0.74139 -0.00102 0.0
C364 C 0.74481 0.7756 0.05368 0.0
C365 C 0.79998 0.80105 0.04451 0.0
C366 C 0.82105 0.79342 0.01619 0.0
C367 C 0.87095 0.82122 0.00804 0.0
C368 C 0.89481 0.80965 0.98063 0.0
C369 C 0.86737 0.77467 0.96094 0.0
C370 C 0.81549 0.75083 0.96796 0.0
C371 C 0.79221 0.76016 -0.00487 0.0
H372 H 0.87807 0.15997 0.01305 0.0
C373 C 0.92487 0.16125 0.00737 0.0
H374 H 0.9913 0.20237 0.98981 0.0
H375 H 0.8125 0.29706 0.90946 0.0
H376 H 0.88228 0.25574 0.87693 0.0
H377 H 0.96069 0.20424 0.89429 0.0
H378 H 0.97157 0.19537 0.94419 0.0
C379 C 0.94588 0.20203 -0.0025 0.0
C380 C 0.90245 0.23782 0.98767 0.0
C381 C 0.89667 0.24232 0.95811 0.0
C382 C 0.8494 0.26995 0.94785 0.0
C383 C 0.84598 0.27504 0.91836 0.0
C384 C 0.88601 0.25175 0.89939 0.0
C385 C 0.93036 0.22298 0.90918 0.0
C386 C 0.93602 0.21829 0.93809 0.0
H387 H 0.76158 0.38351 0.97723 0.0
C388 C 0.73806 0.36067 0.96029 0.0
H389 H 0.72778 0.29078 0.93775 0.0
H390 H 0.90686 0.24441 0.0456 0.0
H391 H 0.83277 0.28098 0.07802 0.0
H392 H 0.74407 0.32018 0.05979 0.0
H393 H 0.72956 0.32424 0.0093 0.0
C394 C 0.75222 0.31324 0.95455 0.0
C395 C 0.80604 0.29118 0.96681 0.0
C396 C 0.81243 0.28753 -0.00358 0.0
C397 C 0.86185 0.26234 0.00688 0.0
C398 C 0.86886 0.26134 0.03658 0.0
C399 C 0.82689 0.28238 0.05538 0.0
C400 C 0.77707 0.30463 0.04511 0.0
C401 C 0.76957 0.30711 0.01602 0.0
H402 H 0.63751 0.66954 0.50312 0.0
C403 C 0.68339 0.65826 0.50536 0.0
H404 H 0.77441 0.6791 0.50869 0.0
H405 H 0.79029 0.8865 0.47451 0.0
H406 H 0.80519 0.84323 0.42759 0.0
H407 H 0.78221 0.7548 0.41796 0.0
H408 H 0.74313 0.70929 0.45517 0.0
C409 C 0.72871 0.69135 0.50722 0.0
C410 C 0.72221 0.74538 0.50992 0.0
C411 C 0.74506 0.77153 0.48821 0.0
C412 C 0.76006 0.82214 0.49404 0.0
C413 C 0.78084 0.84754 0.47157 0.0
C414 C 0.78897 0.82325 0.44449 0.0
C415 C 0.77596 0.77347 0.43905 0.0
C416 C 0.75401 0.74774 0.46057 0.0
H417 H 0.86742 0.8771 0.51416 0.0
C418 C 0.84075 0.90425 0.52644 0.0
H419 H 0.75655 0.92352 0.54234 0.0
H420 H 0.66833 0.70841 0.55479 0.0
H421 H 0.64993 0.7518 0.60107 0.0
H422 H 0.67958 0.83864 0.61205 0.0
H423 H 0.72738 0.88252 0.5769 0.0
C424 C 0.78243 0.89545 0.5304 0.0
C425 C 0.75444 0.84607 0.52204 0.0
C426 C 0.72548 0.82118 0.54294 0.0
C427 C 0.70893 0.77083 0.53676 0.0
C428 C 0.68193 0.74646 0.55826 0.0
C429 C 0.67105 0.77097 0.58498 0.0
C430 C 0.68766 0.81987 0.59115 0.0
C431 C 0.71496 0.84473 0.57059 0.0
H432 H 0.71745 0.39897 0.45991 0.0
C433 C 0.69516 0.40409 0.48024 0.0
H434 H 0.67744 0.3747 0.51855 0.0
H435 H 0.7517 0.18269 0.42616 0.0
H436 H 0.65713 0.19453 0.40242 0.0
H437 H 0.59368 0.26436 0.4186 0.0
H438 H 0.62455 0.32295 0.45855 0.0
C439 C 0.69464 0.36794 0.49712 0.0
C440 C 0.72862 0.32241 0.48937 0.0
C441 C 0.70942 0.28812 0.46634 0.0
C442 C 0.74568 0.24758 0.45722 0.0
C443 C 0.7259 0.21421 0.4339 0.0
C444 C 0.67167 0.22049 0.42015 0.0
C445 C 0.63596 0.25983 0.42925 0.0
C446 C 0.65433 0.29333 0.4521 0.0
H447 H 0.82472 0.15358 0.48871 0.0
C448 C 0.8486 0.16002 0.46959 0.0
H449 H 0.86679 0.2118 0.44061 0.0
H450 H 0.77711 0.37969 0.53543 0.0
H451 H 0.87035 0.36651 0.55976 0.0
H452 H 0.9327 0.29575 0.54407 0.0
H453 H 0.90215 0.23778 0.50388 0.0
C454 C 0.84217 0.20316 0.45901 0.0
C455 C 0.80065 0.24108 0.47135 0.0
C456 C 0.81855 0.27398 0.49524 0.0
C457 C 0.78244 0.31469 0.50431 0.0
C458 C 0.80234 0.34785 0.52774 0.0
C459 C 0.85592 0.3408 0.54189 0.0
C460 C 0.89104 0.30098 0.53305 0.0
C461 C 0.87292 0.26794 0.50996 0.0
H462 H 0.4485 0.4348 0.53908 0.0
C463 C 0.45532 0.42302 0.5167 0.0
H464 H 0.44223 0.36874 0.48262 0.0
H465 H 0.31217 0.27972 0.59479 0.0
H466 H 0.40856 0.28684 0.61887 0.0
H467 H 0.49517 0.32225 0.59648 0.0
H468 H 0.48597 0.35235 0.55044 0.0
C469 C 0.43444 0.37899 0.5051 0.0
C470 C 0.38399 0.35344 0.51801 0.0
C471 C 0.39053 0.33545 0.54481 0.0
C472 C 0.34076 0.31377 0.55733 0.0
C473 C 0.34836 0.2966 0.58429 0.0
C474 C 0.40349 0.30028 0.59832 0.0
C475 C 0.45225 0.32045 0.5858 0.0
C476 C 0.44623 0.33778 0.55937 0.0
H477 H 0.22459 0.22463 0.52799 0.0
C478 C 0.20895 0.24403 0.5477 0.0
H479 H 0.21761 0.30927 0.576 0.0
H480 H 0.35398 0.38431 0.46606 0.0
H481 H 0.25839 0.37528 0.44204 0.0
H482 H 0.17316 0.33634 0.46364 0.0
H483 H 0.18345 0.30651 0.50964 0.0
C484 C 0.23293 0.2883 0.5568 0.0
C485 C 0.28495 0.30889 0.54273 0.0
C486 C 0.27844 0.32582 0.51569 0.0
C487 C 0.32786 0.34817 0.50329 0.0
C488 C 0.31906 0.36611 0.47656 0.0
C489 C 0.26398 0.36144 0.46245 0.0
C490 C 0.21601 0.33955 0.4746 0.0
C491 C 0.22274 0.32225 0.50098 0.0
H492 H 0.49736 0.69169 0.51329 0.0
C493 C 0.46286 0.66335 0.51253 0.0
H494 H 0.37066 0.64642 0.50954 0.0
H495 H 0.28322 0.86615 0.52161 0.0
H496 H 0.28843 0.8588 0.57227 0.0
H497 H 0.3381 0.78873 0.59035 0.0
H498 H 0.38342 0.72567 0.55782 0.0
C499 C 0.4049 0.67498 0.51013 0.0
C500 C 0.38517 0.72154 0.50006 0.0
C501 C 0.35903 0.75803 0.51917 0.0
C502 C 0.32945 0.798 0.50865 0.0
C503 C 0.30474 0.83436 0.52836 0.0
C504 C 0.30778 0.83074 0.5575 0.0
C505 C 0.3358 0.79129 0.56769 0.0
C506 C 0.36138 0.75531 0.54884 0.0
H507 H 0.20776 0.82191 0.48338 0.0
C508 C 0.2316 0.84341 0.46908 0.0
H509 H 0.3147 0.86271 0.45307 0.0
H510 H 0.4307 0.65768 0.45723 0.0
H511 H 0.4232 0.66355 0.4068 0.0
H512 H 0.37319 0.73308 0.38849 0.0
H513 H 0.32846 0.79611 0.42056 0.0
C514 C 0.29129 0.84034 0.46705 0.0
C515 C 0.32537 0.80088 0.47891 0.0
C516 C 0.3534 0.76514 0.45981 0.0
C517 C 0.38299 0.72533 0.47036 0.0
C518 C 0.40811 0.68901 0.45063 0.0
C519 C 0.40435 0.69194 0.42148 0.0
C520 C 0.37599 0.73097 0.41118 0.0
C521 C 0.35062 0.7671 0.42996 0.0
H522 H 0.99609 0.01039 0.0911 0.0
C523 C 0.04416 0.00854 0.08866 0.0
H524 H 0.12749 0.99818 0.10854 0.0
H525 H 0.04305 0.08375 0.22966 0.0
H526 H 0.08388 0.15812 0.21378 0.0
H527 H 0.11249 0.16061 0.16379 0.0
H528 H 0.10007 0.08881 0.12937 0.0
C529 C 0.07933 0.99964 0.11068 0.0
C530 C 0.05616 0.99893 0.13969 0.0
C531 C 0.06358 0.04132 0.15942 0.0
C532 C 0.04759 0.03978 0.1882 0.0
C533 C 0.05513 0.0827 0.20754 0.0
C534 C 0.07837 0.1257 0.19871 0.0
C535 C 0.09444 0.12711 0.17057 0.0
C536 C 0.08718 0.08557 0.15104 0.0
H537 H 0.10098 0.97394 0.23727 0.0
C538 C 0.0579 0.9853 0.24571 0.0
H539 H 0.96908 0.00304 0.23532 0.0
H540 H 0.03598 0.9117 0.10692 0.0
H541 H 0.99327 0.83765 0.12263 0.0
H542 H 0.96339 0.83555 0.1725 0.0
H543 H 0.97705 0.90733 0.20713 0.0
C544 C 1.01326 0.9935 0.22767 0.0
C545 C 0.025 0.99568 0.19714 0.0
C546 C 0.01541 0.95387 0.17721 0.0
C547 C 0.03165 0.95534 0.1484 0.0
C548 C 0.0239 0.91259 0.12903 0.0
C549 C 0.99949 0.86989 0.13778 0.0
C550 C 0.98261 0.86873 0.16586 0.0
C551 C 0.99061 0.91009 0.18549 0.0
H552 H 0.12289 0.06583 0.90845 0.0
C553 C 0.07552 0.05675 0.90697 0.0
H554 H 0.99838 0.04807 0.88057 0.0
H555 H 0.08917 0.18577 0.79285 0.0
H556 H 0.0819 0.25249 0.83101 0.0
H557 H 0.07153 0.23542 0.88087 0.0
H558 H 0.0682 0.15163 0.89291 0.0
C559 C 0.04572 0.05725 0.8822 0.0
C560 C 0.07397 0.06851 0.85562 0.0
C561 C 0.07758 0.11757 0.84926 0.0
C562 C 0.08347 0.12743 0.82058 0.0
C563 C 0.08465 0.17657 0.81439 0.0
C564 C 0.08063 0.21503 0.83605 0.0
C565 C 0.07482 0.20542 0.86414 0.0
C566 C 0.07288 0.15726 0.87078 0.0
H567 H 0.98629 0.06673 0.76986 0.0
C568 C 0.01895 0.08382 0.7571 0.0
H569 H 0.10767 0.11277 0.75703 0.0
H570 H 0.08234 0.97142 0.86206 0.0
H571 H 0.09742 0.90518 0.82433 0.0
H572 H 0.10884 0.92246 0.77455 0.0
H573 H 0.10488 0.00606 0.76218 0.0
C574 C 0.07264 0.09692 0.76888 0.0
C575 C 0.08522 0.08813 0.79868 0.0
C576 C 0.09014 0.03954 0.80555 0.0
C577 C 0.0841 0.02967 0.83415 0.0
C578 C 0.08649 0.98065 0.84051 0.0
C579 C 0.09536 0.94248 0.81911 0.0
C580 C 0.10178 0.95221 0.79108 0.0
C581 C 0.09916 1.00016 0.78424 0.0
H582 H 0.64818 0.52413 0.61071 0.0
C583 C 0.61142 0.51583 0.59556 0.0
H584 H 0.52228 0.48899 0.59085 0.0
H585 H 0.57972 0.39624 0.70862 0.0
H586 H 0.59063 0.32379 0.67493 0.0
H587 H 0.58614 0.32921 0.62333 0.0
H588 H 0.56736 0.40681 0.60488 0.0
C589 C 0.55957 0.49988 0.60519 0.0
C590 C 0.5548 0.49555 0.6362 0.0
C591 C 0.5637 0.44976 0.6466 0.0
C592 C 0.56791 0.44683 0.67643 0.0
C593 C 0.57682 0.40062 0.6862 0.0
C594 C 0.58315 0.35876 0.6671 0.0
C595 C 0.58034 0.3618 0.63801 0.0
C596 C 0.57003 0.40656 0.62772 0.0
H597 H 0.47912 0.51195 0.73265 0.0
C598 C 0.51867 0.49952 0.74315 0.0
H599 H 0.60677 0.47454 0.73662 0.0
H600 H 0.53454 0.58846 0.6234 0.0
H601 H 0.53458 0.66231 0.65667 0.0
H602 H 0.55092 0.65835 0.70804 0.0
H603 H 0.56597 0.58068 0.72649 0.0
C604 C 0.56591 0.48642 0.72709 0.0
C605 C 0.5638 0.48976 0.6958 0.0
C606 C 0.55698 0.53586 0.6853 0.0
C607 C 0.55062 0.53849 0.65556 0.0
C608 C 0.54148 0.58466 0.64573 0.0
C609 C 0.54118 0.62729 0.66459 0.0
C610 C 0.55013 0.62504 0.69351 0.0
C611 C 0.55808 0.58004 0.70386 0.0
H612 H 0.62259 0.55595 0.40936 0.0
C613 C 0.57555 0.54654 0.4108 0.0
H614 H 0.4919 0.53977 0.38938 0.0
H615 H 0.55417 0.68428 0.3001 0.0
H616 H 0.52757 0.7461 0.33852 0.0
H617 H 0.51689 0.72472 0.38753 0.0
H618 H 0.53247 0.64143 0.39845 0.0
C619 C 0.53935 0.54764 0.38801 0.0
C620 C 0.56035 0.56289 0.36068 0.0
C621 C 0.55252 0.61185 0.35486 0.0
C622 C 0.55884 0.62423 0.32668 0.0
C623 C 0.54945 0.67309 0.32119 0.0
C624 C 0.53442 0.70883 0.34303 0.0
C625 C 0.52841 0.69679 0.37063 0.0
C626 C 0.53724 0.64888 0.37661 0.0
H627 H 0.47495 0.58304 0.27403 0.0
C628 C 0.51309 0.59234 0.26157 0.0
H629 H 0.60704 0.6027 0.26235 0.0
H630 H 0.58632 0.46741 0.36566 0.0
H631 H 0.61787 0.40677 0.32772 0.0
H632 H 0.63055 0.42866 0.27893 0.0
H633 H 0.61144 0.51125 0.26771 0.0
C634 C 0.56704 0.59737 0.27439 0.0
C635 C 0.57329 0.58765 0.30454 0.0
C636 C 0.58678 0.53985 0.31088 0.0
C637 C 0.57982 0.52731 0.33901 0.0
C638 C 0.59105 0.47876 0.34461 0.0
C639 C 0.60925 0.4437 0.32306 0.0
C640 C 0.61638 0.45603 0.29558 0.0
C641 C 0.6052 0.50347 0.28941 0.0
loop_
_geom_bond_atom_site_label_1
_geom_bond_atom_site_label_2
_geom_bond_distance
_geom_bond_site_symmetry_2
_ccdc_geom_bond_type
O0 Mn1 2.163 . S
O0 C14 1.244 1_455 S
Mn1 O0 2.163 . S
Mn1 O4 2.160 1_545 S
Mn1 O5 2.221 . S
Mn1 O7 2.163 . S
Mn1 O9 2.160 1_554 S
Mn1 O19 2.221 1_444 S
O2 Mn3 2.087 . S
O2 C14 1.256 1_556 S
Mn3 O2 2.087 . S
Mn3 O10 2.089 . S
Mn3 O19 2.290 1_545 S
Mn3 O20 2.251 1_546 S
O4 Mn1 2.160 1_565 S
O4 C15 1.237 . S
O5 Mn1 2.221 . S
O5 Mn6 2.290 . S
O5 C16 1.278 . S
Mn6 O5 2.290 . S
Mn6 O8 2.089 1_545 S
Mn6 O11 2.251 . S
Mn6 O12 2.087 . S
O7 Mn1 2.163 . S
O7 C17 1.244 . S
O8 Mn6 2.089 1_565 S
O8 C15 1.256 . S
O9 Mn1 2.160 1_556 S
O9 C18 1.239 . S
O10 Mn3 2.089 . S
O10 C18 1.256 1_655 S
O11 Mn6 2.251 . S
O11 C16 1.241 . S
O12 Mn6 2.087 . S
O12 C17 1.256 . S
C13 O19 1.278 1_554 S
C13 O20 1.241 . S
C14 O0 1.244 1_655 S
C14 O2 1.256 1_554 S
C15 O4 1.237 . S
C15 O8 1.256 . S
C16 O5 1.278 . S
C16 O11 1.241 . S
C17 O7 1.244 . S
C17 O12 1.256 . S
C18 O9 1.239 . S
C18 O10 1.256 1_455 S
O19 Mn1 2.221 1_666 S
O19 Mn3 2.290 1_565 S
O19 C13 1.278 1_556 S
O20 Mn3 2.251 1_564 S
O20 C13 1.241 . S
O21 Mn22 2.163 . S
O21 C35 1.244 . S
Mn22 O21 2.163 . S
Mn22 O25 2.160 . S
Mn22 O26 2.221 . S
Mn22 O28 2.163 . S
Mn22 O30 2.160 . S
Mn22 O40 2.221 . S
O23 Mn24 2.087 . S
O23 C35 1.256 . S
Mn24 O23 2.087 . S
Mn24 O31 2.089 . S
Mn24 O40 2.290 . S
Mn24 O41 2.251 . S
O25 Mn22 2.160 . S
O25 C36 1.239 . S
O26 Mn22 2.221 . S
O26 Mn27 2.290 . S
O26 C37 1.278 . S
Mn27 O26 2.290 . S
Mn27 O29 2.089 . S
Mn27 O32 2.251 . S
Mn27 O33 2.087 . S
O28 Mn22 2.163 . S
O28 C38 1.244 . S
O29 Mn27 2.089 . S
O29 C36 1.256 . S
O30 Mn22 2.160 . S
O30 C39 1.239 . S
O31 Mn24 2.089 . S
O31 C39 1.256 . S
O32 Mn27 2.251 . S
O32 C37 1.241 . S
O33 Mn27 2.087 . S
O33 C38 1.256 . S
C34 O40 1.278 . S
C34 O41 1.241 . S
C35 O21 1.244 . S
C35 O23 1.256 . S
C36 O25 1.239 . S
C36 O29 1.256 . S
C37 O26 1.278 . S
C37 O32 1.241 . S
C38 O28 1.244 . S
C38 O33 1.256 . S
C39 O30 1.239 . S
C39 O31 1.256 . S
O40 Mn22 2.221 . S
O40 Mn24 2.290 . S
O40 C34 1.278 . S
O41 Mn24 2.251 . S
O41 C34 1.241 . S
C42 C43 1.391 . S
C42 C46 1.391 . S
C42 H84 0.948 . S
C43 C42 1.391 . S
C43 C44 1.391 . S
C44 C43 1.391 . S
C44 H100 0.947 . S
C44 C101 1.392 . S
C45 C46 1.391 . S
C45 C49 1.397 . S
C45 C101 1.419 . S
C46 C42 1.391 . S
C46 C45 1.391 . S
C46 C47 1.399 . S
C47 C46 1.399 . S
C47 C50 1.396 . S
C47 C59 1.453 1_565 S
C47 C60 1.684 . S
H48 C72 0.948 . S
C49 C45 1.397 . S
C49 C50 1.394 . S
C49 C68 1.723 . S
C50 C47 1.396 . S
C50 C49 1.394 . S
C50 C80 1.723 1_565 S
H51 C74 0.947 . S
H52 C75 0.948 . S
H53 C81 0.982 1_455 S
H54 C82 0.979 . S
H55 C82 0.980 . S
H56 C82 0.983 . S
H57 C81 0.979 . S
H58 C81 0.977 . S
C59 C47 1.453 1_545 S
C59 H88 0.982 . S
C59 H89 0.979 1_545 S
C59 H90 0.977 . S
C60 C47 1.684 . S
C60 H85 0.979 1_455 S
C60 H86 0.980 1_455 S
C60 H87 0.983 . S
C61 C62 1.391 . S
C61 C66 1.391 . S
C61 H91 0.948 . S
C62 C61 1.391 . S
C62 C63 1.391 1_565 S
C63 C62 1.391 1_545 S
C63 C64 1.392 1_455 S
C63 H92 0.947 1_455 S
C64 C63 1.392 1_655 S
C64 C65 1.419 1_655 S
C64 H93 0.948 . S
C65 C64 1.419 1_455 S
C65 C66 1.391 1_545 S
C65 C69 1.397 . S
C66 C61 1.391 . S
C66 C65 1.391 1_565 S
C66 C67 1.399 . S
C67 C66 1.399 . S
C67 C68 1.396 . S
C67 C70 1.453 . S
C67 C71 1.684 . S
C68 C49 1.723 . S
C68 C67 1.396 . S
C68 C69 1.394 1_565 S
C69 C65 1.397 . S
C69 C68 1.394 1_545 S
C69 C79 1.723 . S
C70 C67 1.453 . S
C70 H94 0.982 . S
C70 H95 0.979 . S
C70 H96 0.977 . S
C71 C67 1.684 . S
C71 H97 0.979 . S
C71 H98 0.980 . S
C71 H99 0.983 . S
C72 H48 0.948 . S
C72 C73 1.391 . S
C72 C77 1.391 . S
C73 C72 1.391 . S
C73 C74 1.391 . S
C74 H51 0.947 . S
C74 C73 1.391 . S
C74 C75 1.392 . S
C75 H52 0.948 . S
C75 C74 1.392 . S
C75 C76 1.419 . S
C76 C75 1.419 . S
C76 C77 1.391 . S
C76 C80 1.397 1_655 S
C77 C72 1.391 . S
C77 C76 1.391 . S
C77 C78 1.399 . S
C78 C77 1.399 . S
C78 C79 1.396 1_655 S
C78 C81 1.453 . S
C78 C82 1.684 . S
C79 C69 1.723 . S
C79 C78 1.396 1_455 S
C79 C80 1.394 . S
C80 C50 1.723 1_545 S
C80 C76 1.397 1_455 S
C80 C79 1.394 . S
C81 H53 0.982 1_655 S
C81 H57 0.979 . S
C81 H58 0.977 . S
C81 C78 1.453 . S
C82 H54 0.979 . S
C82 H55 0.980 . S
C82 H56 0.983 . S
C82 C78 1.684 . S
H83 C101 0.948 . S
H84 C42 0.948 . S
H85 C60 0.979 1_655 S
H86 C60 0.980 1_655 S
H87 C60 0.983 . S
H88 C59 0.982 . S
H89 C59 0.979 1_565 S
H90 C59 0.977 . S
H91 C61 0.948 . S
H92 C63 0.947 1_655 S
H93 C64 0.948 . S
H94 C70 0.982 . S
H95 C70 0.979 . S
H96 C70 0.977 . S
H97 C71 0.979 . S
H98 C71 0.980 . S
H99 C71 0.983 . S
H100 C44 0.947 . S
C101 C44 1.392 . S
C101 C45 1.419 . S
C101 H83 0.948 . S
C102 C103 1.391 . S
C102 C106 1.391 . S
C102 H144 0.948 . S
C103 C102 1.391 . S
C103 C104 1.391 . S
C104 C103 1.391 . S
C104 H160 0.947 . S
C104 C161 1.392 . S
C105 C106 1.391 . S
C105 C109 1.397 . S
C105 C161 1.419 . S
C106 C102 1.391 . S
C106 C105 1.391 . S
C106 C107 1.399 . S
C107 C106 1.399 . S
C107 C110 1.396 . S
C107 C119 1.453 . S
C107 C120 1.684 1_455 S
H108 C132 0.948 . S
C109 C105 1.397 . S
C109 C110 1.394 . S
C109 C128 1.723 . S
C110 C107 1.396 . S
C110 C109 1.394 . S
C110 C140 1.723 1_455 S
H111 C134 0.947 . S
H112 C135 0.948 . S
H113 C141 0.982 . S
H114 C142 0.979 . S
H115 C142 0.980 . S
H116 C142 0.983 1_565 S
H117 C141 0.979 . S
H118 C141 0.977 . S
C119 C107 1.453 . S
C119 H148 0.982 . S
C119 H149 0.979 . S
C119 H150 0.977 . S
C120 C107 1.684 1_655 S
C120 H145 0.979 . S
C120 H146 0.980 . S
C120 H147 0.983 . S
C121 C122 1.391 1_455 S
C121 C126 1.391 . S
C121 H151 0.948 . S
C122 C121 1.391 1_655 S
C122 C123 1.391 . S
C123 C122 1.391 . S
C123 C124 1.392 . S
C123 H152 0.947 . S
C124 C123 1.392 . S
C124 C125 1.419 . S
C124 H153 0.948 . S
C125 C124 1.419 . S
C125 C126 1.391 1_655 S
C125 C129 1.397 . S
C126 C121 1.391 . S
C126 C125 1.391 1_455 S
C126 C127 1.399 . S
C127 C126 1.399 . S
C127 C128 1.396 . S
C127 C130 1.453 . S
C127 C131 1.684 . S
C128 C109 1.723 . S
C128 C127 1.396 . S
C128 C129 1.394 1_455 S
C129 C125 1.397 . S
C129 C128 1.394 1_655 S
C129 C139 1.723 . S
C130 C127 1.453 . S
C130 H154 0.982 . S
C130 H155 0.979 . S
C130 H156 0.977 . S
C131 C127 1.684 . S
C131 H157 0.979 . S
C131 H158 0.980 . S
C131 H159 0.983 . S
C132 H108 0.948 . S
C132 C133 1.391 . S
C132 C137 1.391 . S
C133 C132 1.391 . S
C133 C134 1.391 . S
C134 H111 0.947 . S
C134 C133 1.391 . S
C134 C135 1.392 1_565 S
C135 H112 0.948 . S
C135 C134 1.392 1_545 S
C135 C136 1.419 . S
C136 C135 1.419 . S
C136 C137 1.391 1_545 S
C136 C140 1.397 . S
C137 C132 1.391 . S
C137 C136 1.391 1_565 S
C137 C138 1.399 1_565 S
C138 C137 1.399 1_545 S
C138 C139 1.396 . S
C138 C141 1.453 1_545 S
C138 C142 1.684 . S
C139 C129 1.723 . S
C139 C138 1.396 . S
C139 C140 1.394 . S
C140 C110 1.723 1_655 S
C140 C136 1.397 . S
C140 C139 1.394 . S
C141 H113 0.982 . S
C141 H117 0.979 . S
C141 H118 0.977 . S
C141 C138 1.453 1_565 S
C142 H114 0.979 . S
C142 H115 0.980 . S
C142 H116 0.983 1_545 S
C142 C138 1.684 . S
H143 C161 0.948 . S
H144 C102 0.948 . S
H145 C120 0.979 . S
H146 C120 0.980 . S
H147 C120 0.983 . S
H148 C119 0.982 . S
H149 C119 0.979 . S
H150 C119 0.977 . S
H151 C121 0.948 . S
H152 C123 0.947 . S
H153 C124 0.948 . S
H154 C130 0.982 . S
H155 C130 0.979 . S
H156 C130 0.977 . S
H157 C131 0.979 . S
H158 C131 0.980 . S
H159 C131 0.983 . S
H160 C104 0.947 . S
C161 C104 1.392 . S
C161 C105 1.419 . S
C161 H143 0.948 . S
C162 C163 1.391 . S
C162 C166 1.391 . S
C162 H204 0.948 1_556 S
C163 C162 1.391 . S
C163 C164 1.391 . S
C164 C163 1.391 . S
C164 H220 0.947 . S
C164 C221 1.392 . S
C165 C166 1.391 . S
C165 C169 1.397 . S
C165 C221 1.419 . S
C166 C162 1.391 . S
C166 C165 1.391 . S
C166 C167 1.399 . S
C167 C166 1.399 . S
C167 C170 1.396 . S
C167 C179 1.453 . S
C167 C180 1.677 1_556 S
H168 C192 0.948 . S
C169 C165 1.397 . S
C169 C170 1.394 . S
C169 C188 1.723 . S
C170 C167 1.396 . S
C170 C169 1.394 . S
C170 C200 1.723 . S
H171 C194 0.947 . S
H172 C195 0.948 . S
H173 C201 0.982 . S
H174 C202 0.979 . S
H175 C202 0.980 . S
H176 C202 0.983 . S
H177 C201 0.979 . S
H178 C201 0.977 . S
C179 C167 1.453 . S
C179 H208 0.982 . S
C179 H209 0.979 1_556 S
C179 H210 0.978 . S
C180 C167 1.677 1_554 S
C180 H205 0.976 1_554 S
C180 H206 0.981 . S
C180 H207 0.990 . S
C181 C182 1.391 . S
C181 C186 1.391 . S
C181 H211 0.948 . S
C182 C181 1.391 . S
C182 C183 1.391 . S
C183 C182 1.391 . S
C183 C184 1.392 . S
C183 H212 0.947 . S
C184 C183 1.392 . S
C184 C185 1.419 . S
C184 H213 0.948 . S
C185 C184 1.419 . S
C185 C186 1.391 . S
C185 C189 1.397 . S
C186 C181 1.391 . S
C186 C185 1.391 . S
C186 C187 1.399 . S
C187 C186 1.399 . S
C187 C188 1.396 . S
C187 C190 1.453 . S
C187 C191 1.684 . S
C188 C169 1.723 . S
C188 C187 1.396 . S
C188 C189 1.394 . S
C189 C185 1.397 . S
C189 C188 1.394 . S
C189 C199 1.723 . S
C190 C187 1.453 . S
C190 H214 0.982 . S
C190 H215 0.979 . S
C190 H216 0.977 . S
C191 C187 1.684 . S
C191 H217 0.979 . S
C191 H218 0.980 . S
C191 H219 0.983 . S
C192 H168 0.948 . S
C192 C193 1.391 . S
C192 C197 1.391 . S
C193 C192 1.391 . S
C193 C194 1.391 1_556 S
C194 H171 0.947 . S
C194 C193 1.391 1_554 S
C194 C195 1.392 1_554 S
C195 H172 0.948 . S
C195 C194 1.392 1_556 S
C195 C196 1.419 . S
C196 C195 1.419 . S
C196 C197 1.391 . S
C196 C200 1.397 . S
C197 C192 1.391 . S
C197 C196 1.391 . S
C197 C198 1.399 . S
C198 C197 1.399 . S
C198 C199 1.396 . S
C198 C201 1.453 . S
C198 C202 1.684 . S
C199 C189 1.723 . S
C199 C198 1.396 . S
C199 C200 1.394 . S
C200 C170 1.723 . S
C200 C196 1.397 . S
C200 C199 1.394 . S
C201 H173 0.982 . S
C201 H177 0.979 . S
C201 H178 0.977 . S
C201 C198 1.453 . S
C202 H174 0.979 . S
C202 H175 0.980 . S
C202 H176 0.983 . S
C202 C198 1.684 . S
H203 C221 0.948 . S
H204 C162 0.948 1_554 S
H205 C180 0.976 1_556 S
H206 C180 0.981 . S
H207 C180 0.990 . S
H208 C179 0.982 . S
H209 C179 0.979 1_554 S
H210 C179 0.978 . S
H211 C181 0.948 . S
H212 C183 0.947 . S
H213 C184 0.948 . S
H214 C190 0.982 . S
H215 C190 0.979 . S
H216 C190 0.977 . S
H217 C191 0.979 . S
H218 C191 0.980 . S
H219 C191 0.983 . S
H220 C164 0.947 . S
C221 C164 1.392 . S
C221 C165 1.419 . S
C221 H203 0.948 . S
C222 C223 1.391 . S
C222 C226 1.391 . S
C222 H264 0.948 . S
C223 C222 1.391 . S
C223 C224 1.391 . S
C224 C223 1.391 . S
C224 H280 0.947 . S
C224 C281 1.392 . S
C225 C226 1.391 . S
C225 C229 1.397 . S
C225 C281 1.419 . S
C226 C222 1.391 . S
C226 C225 1.391 . S
C226 C227 1.399 . S
C227 C226 1.399 . S
C227 C230 1.396 . S
C227 C239 1.453 . S
C227 C240 1.684 . S
H228 C252 0.948 . S
C229 C225 1.397 . S
C229 C230 1.394 . S
C229 C248 1.723 . S
C230 C227 1.396 . S
C230 C229 1.394 . S
C230 C260 1.723 . S
H231 C254 0.947 1_556 S
H232 C255 0.948 . S
H233 C261 0.982 . S
H234 C262 0.979 . S
H235 C262 0.980 . S
H236 C262 0.983 . S
H237 C261 0.979 . S
H238 C261 0.977 . S
C239 C227 1.453 . S
C239 H268 0.982 . S
C239 H269 0.979 . S
C239 H270 0.977 . S
C240 C227 1.684 . S
C240 H265 0.979 . S
C240 H266 0.980 . S
C240 H267 0.983 . S
C241 C242 1.391 . S
C241 C246 1.391 . S
C241 H271 0.948 . S
C242 C241 1.391 . S
C242 C243 1.391 . S
C243 C242 1.391 . S
C243 C244 1.392 . S
C243 H272 0.947 . S
C244 C243 1.392 . S
C244 C245 1.419 . S
C244 H273 0.948 . S
C245 C244 1.419 . S
C245 C246 1.391 . S
C245 C249 1.397 . S
C246 C241 1.391 . S
C246 C245 1.391 . S
C246 C247 1.399 . S
C247 C246 1.399 . S
C247 C248 1.396 . S
C247 C250 1.453 . S
C247 C251 1.684 . S
C248 C229 1.723 . S
C248 C247 1.396 . S
C248 C249 1.394 . S
C249 C245 1.397 . S
C249 C248 1.394 . S
C249 C259 1.723 . S
C250 C247 1.453 . S
C250 H274 0.982 . S
C250 H275 0.979 . S
C250 H276 0.977 . S
C251 C247 1.684 . S
C251 H277 0.979 . S
C251 H278 0.980 . S
C251 H279 0.983 . S
C252 H228 0.948 . S
C252 C253 1.391 . S
C252 C257 1.391 . S
C253 C252 1.391 . S
C253 C254 1.391 . S
C254 H231 0.947 1_554 S
C254 C253 1.391 . S
C254 C255 1.392 . S
C255 H232 0.948 . S
C255 C254 1.392 . S
C255 C256 1.419 . S
C256 C255 1.419 . S
C256 C257 1.391 . S
C256 C260 1.397 . S
C257 C252 1.391 . S
C257 C256 1.391 . S
C257 C258 1.399 . S
C258 C257 1.399 . S
C258 C259 1.396 . S
C258 C261 1.453 . S
C258 C262 1.684 . S
C259 C249 1.723 . S
C259 C258 1.396 . S
C259 C260 1.394 . S
C260 C230 1.723 . S
C260 C256 1.397 . S
C260 C259 1.394 . S
C261 H233 0.982 . S
C261 H237 0.979 . S
C261 H238 0.977 . S
C261 C258 1.453 . S
C262 H234 0.979 . S
C262 H235 0.980 . S
C262 H236 0.983 . S
C262 C258 1.684 . S
H263 C281 0.948 . S
H264 C222 0.948 . S
H265 C240 0.979 . S
H266 C240 0.980 . S
H267 C240 0.983 . S
H268 C239 0.982 . S
H269 C239 0.979 . S
H270 C239 0.977 . S
H271 C241 0.948 . S
H272 C243 0.947 . S
H273 C244 0.948 . S
H274 C250 0.982 . S
H275 C250 0.979 . S
H276 C250 0.977 . S
H277 C251 0.979 . S
H278 C251 0.980 . S
H279 C251 0.983 . S
H280 C224 0.947 . S
C281 C224 1.392 . S
C281 C225 1.419 . S
C281 H263 0.948 . S
H282 C283 0.951 . S
C283 H282 0.951 . S
C283 C289 1.265 . S
H284 C289 0.950 . S
H285 C293 0.949 . S
H286 C294 0.950 . S
H287 C295 0.951 . S
H288 C296 0.951 . S
C289 C283 1.265 . S
C289 H284 0.950 . S
C289 C290 1.478 . S
C290 C289 1.478 . S
C290 C291 1.397 . S
C290 C307 1.394 . S
C291 C290 1.397 . S
C291 C292 1.438 . S
C291 C296 1.429 1_554 S
C292 C291 1.438 . S
C292 C293 1.428 1_554 S
C292 C305 1.394 . S
C293 H285 0.949 . S
C293 C292 1.428 1_556 S
C293 C294 1.345 . S
C294 H286 0.950 . S
C294 C293 1.345 . S
C294 C295 1.424 . S
C295 H287 0.951 . S
C295 C294 1.424 . S
C295 C296 1.347 . S
C296 H288 0.951 . S
C296 C291 1.429 1_556 S
C296 C295 1.347 . S
H297 C298 0.951 . S
C298 H297 0.951 . S
C298 C304 1.265 . S
H299 C304 0.950 . S
H300 C308 0.949 . S
H301 C309 0.950 . S
H302 C310 0.951 . S
H303 C311 0.951 . S
C304 C298 1.265 . S
C304 H299 0.950 . S
C304 C305 1.478 . S
C305 C292 1.394 . S
C305 C304 1.478 . S
C305 C306 1.397 . S
C306 C305 1.397 . S
C306 C307 1.438 . S
C306 C311 1.429 . S
C307 C290 1.394 . S
C307 C306 1.438 . S
C307 C308 1.428 . S
C308 H300 0.949 . S
C308 C307 1.428 . S
C308 C309 1.345 . S
C309 H301 0.950 . S
C309 C308 1.345 . S
C309 C310 1.424 . S
C310 H302 0.951 . S
C310 C309 1.424 . S
C310 C311 1.347 . S
C311 H303 0.951 . S
C311 C306 1.429 . S
C311 C310 1.347 . S
H312 C313 0.951 . S
C313 H312 0.951 . S
C313 C319 1.266 . S
H314 C319 0.948 1_556 S
H315 C323 0.949 . S
H316 C324 0.950 . S
H317 C325 0.951 . S
H318 C326 0.951 . S
C319 C313 1.266 . S
C319 H314 0.948 1_554 S
C319 C320 1.478 1_554 S
C320 C319 1.478 1_556 S
C320 C321 1.396 . S
C320 C337 1.395 1_556 S
C321 C320 1.396 . S
C321 C322 1.438 . S
C321 C326 1.429 . S
C322 C321 1.438 . S
C322 C323 1.428 . S
C322 C335 1.394 . S
C323 H315 0.949 . S
C323 C322 1.428 . S
C323 C324 1.345 . S
C324 H316 0.950 . S
C324 C323 1.345 . S
C324 C325 1.424 . S
C325 H317 0.951 . S
C325 C324 1.424 . S
C325 C326 1.347 . S
C326 H318 0.951 . S
C326 C321 1.429 . S
C326 C325 1.347 . S
H327 C328 0.951 . S
C328 H327 0.951 . S
C328 C334 1.265 . S
H329 C334 0.950 1_554 S
H330 C338 0.949 . S
H331 C339 0.950 . S
H332 C340 0.951 . S
H333 C341 0.951 . S
C334 C328 1.265 . S
C334 H329 0.950 1_556 S
C334 C335 1.478 . S
C335 C322 1.394 . S
C335 C334 1.478 . S
C335 C336 1.397 1_556 S
C336 C335 1.397 1_554 S
C336 C337 1.438 . S
C336 C341 1.429 . S
C337 C320 1.395 1_554 S
C337 C336 1.438 . S
C337 C338 1.428 . S
C338 H330 0.949 . S
C338 C337 1.428 . S
C338 C339 1.345 . S
C339 H331 0.950 . S
C339 C338 1.345 . S
C339 C340 1.424 . S
C340 H332 0.951 . S
C340 C339 1.424 . S
C340 C341 1.347 . S
C341 H333 0.951 . S
C341 C336 1.429 . S
C341 C340 1.347 . S
H342 C343 0.951 . S
C343 H342 0.951 . S
C343 C349 1.265 . S
H344 C349 0.950 . S
H345 C353 0.949 . S
H346 C354 0.950 . S
H347 C355 0.951 . S
H348 C356 0.951 . S
C349 C343 1.265 . S
C349 H344 0.950 . S
C349 C350 1.478 . S
C350 C349 1.478 . S
C350 C351 1.397 . S
C350 C367 1.394 . S
C351 C350 1.397 . S
C351 C352 1.438 . S
C351 C356 1.429 . S
C352 C351 1.438 . S
C352 C353 1.428 . S
C352 C365 1.394 . S
C353 H345 0.949 . S
C353 C352 1.428 . S
C353 C354 1.345 . S
C354 H346 0.950 . S
C354 C353 1.345 . S
C354 C355 1.424 . S
C355 H347 0.951 . S
C355 C354 1.424 . S
C355 C356 1.347 . S
C356 H348 0.951 . S
C356 C351 1.429 . S
C356 C355 1.347 . S
H357 C358 0.951 . S
C358 H357 0.951 . S
C358 C364 1.265 . S
H359 C364 0.950 . S
H360 C368 0.949 . S
H361 C369 0.950 . S
H362 C370 0.951 . S
H363 C371 0.951 . S
C364 C358 1.265 . S
C364 H359 0.950 . S
C364 C365 1.478 . S
C365 C352 1.394 . S
C365 C364 1.478 . S
C365 C366 1.397 . S
C366 C365 1.397 . S
C366 C367 1.438 . S
C366 C371 1.429 1_554 S
C367 C350 1.394 . S
C367 C366 1.438 . S
C367 C368 1.428 1_554 S
C368 H360 0.949 . S
C368 C367 1.428 1_556 S
C368 C369 1.345 . S
C369 H361 0.950 . S
C369 C368 1.345 . S
C369 C370 1.424 . S
C370 H362 0.951 . S
C370 C369 1.424 . S
C370 C371 1.347 . S
C371 H363 0.951 . S
C371 C366 1.429 1_556 S
C371 C370 1.347 . S
H372 C373 0.951 . S
C373 H372 0.951 . S
C373 C379 1.265 1_554 S
H374 C379 0.950 . S
H375 C383 0.949 . S
H376 C384 0.950 . S
H377 C385 0.951 . S
H378 C386 0.951 . S
C379 C373 1.265 1_556 S
C379 H374 0.950 . S
C379 C380 1.478 . S
C380 C379 1.478 . S
C380 C381 1.397 . S
C380 C397 1.394 1_556 S
C381 C380 1.397 . S
C381 C382 1.438 . S
C381 C386 1.429 . S
C382 C381 1.438 . S
C382 C383 1.428 . S
C382 C395 1.394 . S
C383 H375 0.949 . S
C383 C382 1.428 . S
C383 C384 1.345 . S
C384 H376 0.950 . S
C384 C383 1.345 . S
C384 C385 1.424 . S
C385 H377 0.951 . S
C385 C384 1.424 . S
C385 C386 1.347 . S
C386 H378 0.951 . S
C386 C381 1.429 . S
C386 C385 1.347 . S
H387 C388 0.951 . S
C388 H387 0.951 . S
C388 C394 1.265 . S
H389 C394 0.950 . S
H390 C398 0.949 . S
H391 C399 0.950 . S
H392 C400 0.951 . S
H393 C401 0.951 . S
C394 C388 1.265 . S
C394 H389 0.950 . S
C394 C395 1.478 . S
C395 C382 1.394 . S
C395 C394 1.478 . S
C395 C396 1.397 1_556 S
C396 C395 1.397 1_554 S
C396 C397 1.438 . S
C396 C401 1.429 . S
C397 C380 1.394 1_554 S
C397 C396 1.438 . S
C397 C398 1.428 . S
C398 H390 0.949 . S
C398 C397 1.428 . S
C398 C399 1.345 . S
C399 H391 0.950 . S
C399 C398 1.345 . S
C399 C400 1.424 . S
C400 H392 0.951 . S
C400 C399 1.424 . S
C400 C401 1.347 . S
C401 H393 0.951 . S
C401 C396 1.429 . S
C401 C400 1.347 . S
H402 C403 0.951 . S
C403 H402 0.951 . S
C403 C409 1.265 . S
H404 C409 0.950 . S
H405 C413 0.949 . S
H406 C414 0.950 . S
H407 C415 0.951 . S
H408 C416 0.951 . S
C409 C403 1.265 . S
C409 H404 0.950 . S
C409 C410 1.478 . S
C410 C409 1.478 . S
C410 C411 1.397 . S
C410 C427 1.394 . S
C411 C410 1.397 . S
C411 C412 1.438 . S
C411 C416 1.429 . S
C412 C411 1.438 . S
C412 C413 1.428 . S
C412 C425 1.394 . S
C413 H405 0.949 . S
C413 C412 1.428 . S
C413 C414 1.345 . S
C414 H406 0.950 . S
C414 C413 1.345 . S
C414 C415 1.424 . S
C415 H407 0.951 . S
C415 C414 1.424 . S
C415 C416 1.347 . S
C416 H408 0.951 . S
C416 C411 1.429 . S
C416 C415 1.347 . S
H417 C418 0.951 . S
C418 H417 0.951 . S
C418 C424 1.265 . S
H419 C424 0.950 . S
H420 C428 0.949 . S
H421 C429 0.950 . S
H422 C430 0.951 . S
H423 C431 0.951 . S
C424 C418 1.265 . S
C424 H419 0.950 . S
C424 C425 1.478 . S
C425 C412 1.394 . S
C425 C424 1.478 . S
C425 C426 1.397 . S
C426 C425 1.397 . S
C426 C427 1.438 . S
C426 C431 1.429 . S
C427 C410 1.394 . S
C427 C426 1.438 . S
C427 C428 1.428 . S
C428 H420 0.949 . S
C428 C427 1.428 . S
C428 C429 1.345 . S
C429 H421 0.950 . S
C429 C428 1.345 . S
C429 C430 1.424 . S
C430 H422 0.951 . S
C430 C429 1.424 . S
C430 C431 1.347 . S
C431 H423 0.951 . S
C431 C426 1.429 . S
C431 C430 1.347 . S
H432 C433 0.951 . S
C433 H432 0.951 . S
C433 C439 1.265 . S
H434 C439 0.950 . S
H435 C443 0.949 . S
H436 C444 0.950 . S
H437 C445 0.951 . S
H438 C446 0.951 . S
C439 C433 1.265 . S
C439 H434 0.950 . S
C439 C440 1.478 . S
C440 C439 1.478 . S
C440 C441 1.397 . S
C440 C457 1.394 . S
C441 C440 1.397 . S
C441 C442 1.438 . S
C441 C446 1.429 . S
C442 C441 1.438 . S
C442 C443 1.428 . S
C442 C455 1.394 . S
C443 H435 0.949 . S
C443 C442 1.428 . S
C443 C444 1.345 . S
C444 H436 0.950 . S
C444 C443 1.345 . S
C444 C445 1.424 . S
C445 H437 0.951 . S
C445 C444 1.424 . S
C445 C446 1.347 . S
C446 H438 0.951 . S
C446 C441 1.429 . S
C446 C445 1.347 . S
H447 C448 0.951 . S
C448 H447 0.951 . S
C448 C454 1.265 . S
H449 C454 0.950 . S
H450 C458 0.949 . S
H451 C459 0.950 . S
H452 C460 0.951 . S
H453 C461 0.951 . S
C454 C448 1.265 . S
C454 H449 0.950 . S
C454 C455 1.478 . S
C455 C442 1.394 . S
C455 C454 1.478 . S
C455 C456 1.397 . S
C456 C455 1.397 . S
C456 C457 1.438 . S
C456 C461 1.429 . S
C457 C440 1.394 . S
C457 C456 1.438 . S
C457 C458 1.428 . S
C458 H450 0.949 . S
C458 C457 1.428 . S
C458 C459 1.345 . S
C459 H451 0.950 . S
C459 C458 1.345 . S
C459 C460 1.424 . S
C460 H452 0.951 . S
C460 C459 1.424 . S
C460 C461 1.347 . S
C461 H453 0.951 . S
C461 C456 1.429 . S
C461 C460 1.347 . S
H462 C463 0.951 . S
C463 H462 0.951 . S
C463 C469 1.265 . S
H464 C469 0.950 . S
H465 C473 0.949 . S
H466 C474 0.950 . S
H467 C475 0.951 . S
H468 C476 0.951 . S
C469 C463 1.265 . S
C469 H464 0.950 . S
C469 C470 1.478 . S
C470 C469 1.478 . S
C470 C471 1.397 . S
C470 C487 1.394 . S
C471 C470 1.397 . S
C471 C472 1.438 . S
C471 C476 1.429 . S
C472 C471 1.438 . S
C472 C473 1.428 . S
C472 C485 1.394 . S
C473 H465 0.949 . S
C473 C472 1.428 . S
C473 C474 1.345 . S
C474 H466 0.950 . S
C474 C473 1.345 . S
C474 C475 1.424 . S
C475 H467 0.951 . S
C475 C474 1.424 . S
C475 C476 1.347 . S
C476 H468 0.951 . S
C476 C471 1.429 . S
C476 C475 1.347 . S
H477 C478 0.951 . S
C478 H477 0.951 . S
C478 C484 1.265 . S
H479 C484 0.950 . S
H480 C488 0.949 . S
H481 C489 0.950 . S
H482 C490 0.951 . S
H483 C491 0.951 . S
C484 C478 1.265 . S
C484 H479 0.950 . S
C484 C485 1.478 . S
C485 C472 1.394 . S
C485 C484 1.478 . S
C485 C486 1.397 . S
C486 C485 1.397 . S
C486 C487 1.438 . S
C486 C491 1.429 . S
C487 C470 1.394 . S
C487 C486 1.438 . S
C487 C488 1.428 . S
C488 H480 0.949 . S
C488 C487 1.428 . S
C488 C489 1.345 . S
C489 H481 0.950 . S
C489 C488 1.345 . S
C489 C490 1.424 . S
C490 H482 0.951 . S
C490 C489 1.424 . S
C490 C491 1.347 . S
C491 H483 0.951 . S
C491 C486 1.429 . S
C491 C490 1.347 . S
H492 C493 0.951 . S
C493 H492 0.951 . S
C493 C499 1.265 . S
H494 C499 0.950 . S
H495 C503 0.949 . S
H496 C504 0.950 . S
H497 C505 0.951 . S
H498 C506 0.951 . S
C499 C493 1.265 . S
C499 H494 0.950 . S
C499 C500 1.478 . S
C500 C499 1.478 . S
C500 C501 1.397 . S
C500 C517 1.394 . S
C501 C500 1.397 . S
C501 C502 1.438 . S
C501 C506 1.429 . S
C502 C501 1.438 . S
C502 C503 1.428 . S
C502 C515 1.394 . S
C503 H495 0.949 . S
C503 C502 1.428 . S
C503 C504 1.345 . S
C504 H496 0.950 . S
C504 C503 1.345 . S
C504 C505 1.424 . S
C505 H497 0.951 . S
C505 C504 1.424 . S
C505 C506 1.347 . S
C506 H498 0.951 . S
C506 C501 1.429 . S
C506 C505 1.347 . S
H507 C508 0.951 . S
C508 H507 0.951 . S
C508 C514 1.265 . S
H509 C514 0.950 . S
H510 C518 0.949 . S
H511 C519 0.950 . S
H512 C520 0.951 . S
H513 C521 0.951 . S
C514 C508 1.265 . S
C514 H509 0.950 . S
C514 C515 1.478 . S
C515 C502 1.394 . S
C515 C514 1.478 . S
C515 C516 1.397 . S
C516 C515 1.397 . S
C516 C517 1.438 . S
C516 C521 1.429 . S
C517 C500 1.394 . S
C517 C516 1.438 . S
C517 C518 1.428 . S
C518 H510 0.949 . S
C518 C517 1.428 . S
C518 C519 1.345 . S
C519 H511 0.950 . S
C519 C518 1.345 . S
C519 C520 1.424 . S
C520 H512 0.951 . S
C520 C519 1.424 . S
C520 C521 1.347 . S
C521 H513 0.951 . S
C521 C516 1.429 . S
C521 C520 1.347 . S
H522 C523 0.951 . S
C523 H522 0.951 . S
C523 C529 1.265 . S
H524 C529 0.950 . S
H525 C533 0.949 . S
H526 C534 0.950 . S
H527 C535 0.951 . S
H528 C536 0.951 . S
C529 C523 1.265 . S
C529 H524 0.950 . S
C529 C530 1.478 . S
C530 C529 1.478 . S
C530 C531 1.397 . S
C530 C547 1.394 1_545 S
C531 C530 1.397 . S
C531 C532 1.438 . S
C531 C536 1.429 . S
C532 C531 1.438 . S
C532 C533 1.428 . S
C532 C545 1.382 1_545 S
C533 H525 0.949 . S
C533 C532 1.428 . S
C533 C534 1.345 . S
C534 H526 0.950 . S
C534 C533 1.345 . S
C534 C535 1.424 . S
C535 H527 0.951 . S
C535 C534 1.424 . S
C535 C536 1.347 . S
C536 H528 0.951 . S
C536 C531 1.429 . S
C536 C535 1.347 . S
H537 C538 0.951 1_545 S
C538 H537 0.951 1_565 S
C538 C544 1.265 . S
H539 C544 0.950 1_655 S
H540 C548 0.949 . S
H541 C549 0.950 . S
H542 C550 0.951 1_655 S
H543 C551 0.951 . S
C544 C538 1.265 . S
C544 H539 0.950 1_455 S
C544 C545 1.482 . S
C545 C532 1.382 1_565 S
C545 C544 1.482 . S
C545 C546 1.406 . S
C546 C545 1.406 . S
C546 C547 1.438 . S
C546 C551 1.429 . S
C547 C530 1.394 1_565 S
C547 C546 1.438 . S
C547 C548 1.428 . S
C548 H540 0.949 . S
C548 C547 1.428 . S
C548 C549 1.345 . S
C549 H541 0.950 . S
C549 C548 1.345 . S
C549 C550 1.424 . S
C550 H542 0.951 1_455 S
C550 C549 1.424 . S
C550 C551 1.347 . S
C551 H543 0.951 . S
C551 C546 1.429 . S
C551 C550 1.347 . S
H552 C553 0.951 . S
C553 H552 0.951 . S
C553 C559 1.265 . S
H554 C559 0.950 1_655 S
H555 C563 0.949 . S
H556 C564 0.950 . S
H557 C565 0.951 . S
H558 C566 0.951 . S
C559 C553 1.265 . S
C559 H554 0.950 1_455 S
C559 C560 1.478 . S
C560 C559 1.478 . S
C560 C561 1.397 . S
C560 C577 1.394 . S
C561 C560 1.397 . S
C561 C562 1.438 . S
C561 C566 1.429 . S
C562 C561 1.438 . S
C562 C563 1.428 . S
C562 C575 1.394 . S
C563 H555 0.949 . S
C563 C562 1.428 . S
C563 C564 1.345 . S
C564 H556 0.950 . S
C564 C563 1.345 . S
C564 C565 1.424 . S
C565 H557 0.951 . S
C565 C564 1.424 . S
C565 C566 1.347 . S
C566 H558 0.951 . S
C566 C561 1.429 . S
C566 C565 1.347 . S
H567 C568 0.951 1_655 S
C568 H567 0.951 1_455 S
C568 C574 1.265 . S
H569 C574 0.950 . S
H570 C578 0.949 . S
H571 C579 0.950 . S
H572 C580 0.951 . S
H573 C581 0.951 . S
C574 C568 1.265 . S
C574 H569 0.950 . S
C574 C575 1.478 . S
C575 C562 1.394 . S
C575 C574 1.478 . S
C575 C576 1.397 . S
C576 C575 1.397 . S
C576 C577 1.438 . S
C576 C581 1.429 1_545 S
C577 C560 1.394 . S
C577 C576 1.438 . S
C577 C578 1.428 1_545 S
C578 H570 0.949 . S
C578 C577 1.428 1_565 S
C578 C579 1.345 . S
C579 H571 0.950 . S
C579 C578 1.345 . S
C579 C580 1.424 . S
C580 H572 0.951 . S
C580 C579 1.424 . S
C580 C581 1.347 . S
C581 H573 0.951 . S
C581 C576 1.429 1_565 S
C581 C580 1.347 . S
H582 C583 0.951 . S
C583 H582 0.951 . S
C583 C589 1.265 . S
H584 C589 0.950 . S
H585 C593 0.949 . S
H586 C594 0.950 . S
H587 C595 0.951 . S
H588 C596 0.951 . S
C589 C583 1.265 . S
C589 H584 0.950 . S
C589 C590 1.478 . S
C590 C589 1.478 . S
C590 C591 1.397 . S
C590 C607 1.394 . S
C591 C590 1.397 . S
C591 C592 1.438 . S
C591 C596 1.429 . S
C592 C591 1.438 . S
C592 C593 1.428 . S
C592 C605 1.394 . S
C593 H585 0.949 . S
C593 C592 1.428 . S
C593 C594 1.345 . S
C594 H586 0.950 . S
C594 C593 1.345 . S
C594 C595 1.424 . S
C595 H587 0.951 . S
C595 C594 1.424 . S
C595 C596 1.347 . S
C596 H588 0.951 . S
C596 C591 1.429 . S
C596 C595 1.347 . S
H597 C598 0.951 . S
C598 H597 0.951 . S
C598 C604 1.265 . S
H599 C604 0.950 . S
H600 C608 0.949 . S
H601 C609 0.950 . S
H602 C610 0.951 . S
H603 C611 0.951 . S
C604 C598 1.265 . S
C604 H599 0.950 . S
C604 C605 1.478 . S
C605 C592 1.394 . S
C605 C604 1.478 . S
C605 C606 1.397 . S
C606 C605 1.397 . S
C606 C607 1.438 . S
C606 C611 1.429 . S
C607 C590 1.394 . S
C607 C606 1.438 . S
C607 C608 1.428 . S
C608 H600 0.949 . S
C608 C607 1.428 . S
C608 C609 1.345 . S
C609 H601 0.950 . S
C609 C608 1.345 . S
C609 C610 1.424 . S
C610 H602 0.951 . S
C610 C609 1.424 . S
C610 C611 1.347 . S
C611 H603 0.951 . S
C611 C606 1.429 . S
C611 C610 1.347 . S
H612 C613 0.951 . S
C613 H612 0.951 . S
C613 C619 1.265 . S
H614 C619 0.950 . S
H615 C623 0.949 . S
H616 C624 0.950 . S
H617 C625 0.951 . S
H618 C626 0.951 . S
C619 C613 1.265 . S
C619 H614 0.950 . S
C619 C620 1.478 . S
C620 C619 1.478 . S
C620 C621 1.397 . S
C620 C637 1.394 . S
C621 C620 1.397 . S
C621 C622 1.438 . S
C621 C626 1.429 . S
C622 C621 1.438 . S
C622 C623 1.428 . S
C622 C635 1.394 . S
C623 H615 0.949 . S
C623 C622 1.428 . S
C623 C624 1.345 . S
C624 H616 0.950 . S
C624 C623 1.345 . S
C624 C625 1.424 . S
C625 H617 0.951 . S
C625 C624 1.424 . S
C625 C626 1.347 . S
C626 H618 0.951 . S
C626 C621 1.429 . S
C626 C625 1.347 . S
H627 C628 0.951 . S
C628 H627 0.951 . S
C628 C634 1.265 . S
H629 C634 0.950 . S
H630 C638 0.949 . S
H631 C639 0.950 . S
H632 C640 0.951 . S
H633 C641 0.951 . S
C634 C628 1.265 . S
C634 H629 0.950 . S
C634 C635 1.478 . S
C635 C622 1.394 . S
C635 C634 1.478 . S
C635 C636 1.397 . S
C636 C635 1.397 . S
C636 C637 1.438 . S
C636 C641 1.429 . S
C637 C620 1.394 . S
C637 C636 1.438 . S
C637 C638 1.428 . S
C638 H630 0.949 . S
C638 C637 1.428 . S
C638 C639 1.345 . S
C639 H631 0.950 . S
C639 C638 1.345 . S
C639 C640 1.424 . S
C640 H632 0.951 . S
C640 C639 1.424 . S
C640 C641 1.347 . S
C641 H633 0.951 . S
C641 C636 1.429 . S
C641 C640 1.347 . S
C298 C253 1.480 . S
C283 C16 1.397 . S
C313 C15 1.489 . S
C328 C193 1.526 . S
C343 C13 1.190 . S
C358 C223 1.373 . S
C373 C14 1.272 . S
C388 C163 1.304 . S
C403 C37 1.368 . S
C418 C133 1.490 . S
C433 C36 1.500 . S
C448 C73 1.535 . S
C478 C103 1.409 . S
C463 C34 1.206 . S
C508 C43 1.318 . S
C493 C35 1.359 . S
C523 C17 1.545 . S
C538 C62 1.545 . S
C553 C18 1.420 . S
C568 C122 1.386 1_455 S
C598 C182 1.491 . S
C583 C38 1.470 . S
C613 C39 1.424 . S
C628 C242 1.379 . S
