# Generated by pormake.
# Topology eea, (3,6)-cn, num edge types: 1
# Building blocks:
#     Node 0, Type 0, BuildingBlock: BETDAH_clean_linker_0, # of connection points: 3
#     Node 1, Type 0, BuildingBlock: BETDAH_clean_linker_0, # of connection points: 3
#     Node 2, Type 0, BuildingBlock: BETDAH_clean_linker_0, # of connection points: 3
#     Node 3, Type 0, BuildingBlock: BETDAH_clean_linker_0, # of connection points: 3
#     Node 4, Type 0, BuildingBlock: BETDAH_clean_linker_0, # of connection points: 3
#     Node 5, Type 0, BuildingBlock: BETDAH_clean_linker_0, # of connection points: 3
#     Node 6, Type 0, BuildingBlock: BETDAH_clean_linker_0, # of connection points: 3
#     Node 7, Type 0, BuildingBlock: BETDAH_clean_linker_0, # of connection points: 3
#     Node 8, Type 0, BuildingBlock: BETDAH_clean_linker_0, # of connection points: 3
#     Node 9, Type 0, BuildingBlock: BETDAH_clean_linker_0, # of connection points: 3
#     Node 10, Type 0, BuildingBlock: BETDAH_clean_linker_0, # of connection points: 3
#     Node 11, Type 0, BuildingBlock: BETDAH_clean_linker_0, # of connection points: 3
#     Node 12, Type 0, BuildingBlock: BETDAH_clean_linker_0, # of connection points: 3
#     Node 13, Type 0, BuildingBlock: BETDAH_clean_linker_0, # of connection points: 3
#     Node 14, Type 0, BuildingBlock: BETDAH_clean_linker_0, # of connection points: 3
#     Node 15, Type 0, BuildingBlock: BETDAH_clean_linker_0, # of connection points: 3
#     Node 16, Type 0, BuildingBlock: BETDAH_clean_linker_0, # of connection points: 3
#     Node 17, Type 0, BuildingBlock: BETDAH_clean_linker_0, # of connection points: 3
#     Node 18, Type 1, BuildingBlock: KUMJIN_clean_sbu_0, # of connection points: 6
#     Node 19, Type 1, BuildingBlock: KUMJIN_clean_sbu_0, # of connection points: 6
#     Node 20, Type 1, BuildingBlock: KUMJIN_clean_sbu_0, # of connection points: 6
#     Node 21, Type 1, BuildingBlock: KUMJIN_clean_sbu_0, # of connection points: 6
#     Node 22, Type 1, BuildingBlock: KUMJIN_clean_sbu_0, # of connection points: 6
#     Node 23, Type 1, BuildingBlock: KUMJIN_clean_sbu_0, # of connection points: 6
#     Node 24, Type 1, BuildingBlock: KUMJIN_clean_sbu_0, # of connection points: 6
#     Node 25, Type 1, BuildingBlock: KUMJIN_clean_sbu_0, # of connection points: 6
#     Node 26, Type 1, BuildingBlock: KUMJIN_clean_sbu_0, # of connection points: 6
#     Edge 27, Type (0, 1), BuildingBlock: EZIPEK_clean_linker_0, # of connection points: 2
#     Edge 28, Type (0, 1), BuildingBlock: EZIPEK_clean_linker_0, # of connection points: 2
#     Edge 29, Type (0, 1), BuildingBlock: EZIPEK_clean_linker_0, # of connection points: 2
#     Edge 30, Type (0, 1), BuildingBlock: EZIPEK_clean_linker_0, # of connection points: 2
#     Edge 31, Type (0, 1), BuildingBlock: EZIPEK_clean_linker_0, # of connection points: 2
#     Edge 32, Type (0, 1), BuildingBlock: EZIPEK_clean_linker_0, # of connection points: 2
#     Edge 33, Type (0, 1), BuildingBlock: EZIPEK_clean_linker_0, # of connection points: 2
#     Edge 34, Type (0, 1), BuildingBlock: EZIPEK_clean_linker_0, # of connection points: 2
#     Edge 35, Type (0, 1), BuildingBlock: EZIPEK_clean_linker_0, # of connection points: 2
#     Edge 36, Type (0, 1), BuildingBlock: EZIPEK_clean_linker_0, # of connection points: 2
#     Edge 37, Type (0, 1), BuildingBlock: EZIPEK_clean_linker_0, # of connection points: 2
#     Edge 38, Type (0, 1), BuildingBlock: EZIPEK_clean_linker_0, # of connection points: 2
#     Edge 39, Type (0, 1), BuildingBlock: EZIPEK_clean_linker_0, # of connection points: 2
#     Edge 40, Type (0, 1), BuildingBlock: EZIPEK_clean_linker_0, # of connection points: 2
#     Edge 41, Type (0, 1), BuildingBlock: EZIPEK_clean_linker_0, # of connection points: 2
#     Edge 42, Type (0, 1), BuildingBlock: EZIPEK_clean_linker_0, # of connection points: 2
#     Edge 43, Type (0, 1), BuildingBlock: EZIPEK_clean_linker_0, # of connection points: 2
#     Edge 44, Type (0, 1), BuildingBlock: EZIPEK_clean_linker_0, # of connection points: 2
#     Edge 45, Type (0, 1), BuildingBlock: EZIPEK_clean_linker_0, # of connection points: 2
#     Edge 46, Type (0, 1), BuildingBlock: EZIPEK_clean_linker_0, # of connection points: 2
#     Edge 47, Type (0, 1), BuildingBlock: EZIPEK_clean_linker_0, # of connection points: 2
#     Edge 48, Type (0, 1), BuildingBlock: EZIPEK_clean_linker_0, # of connection points: 2
#     Edge 49, Type (0, 1), BuildingBlock: EZIPEK_clean_linker_0, # of connection points: 2
#     Edge 50, Type (0, 1), BuildingBlock: EZIPEK_clean_linker_0, # of connection points: 2
#     Edge 51, Type (0, 1), BuildingBlock: EZIPEK_clean_linker_0, # of connection points: 2
#     Edge 52, Type (0, 1), BuildingBlock: EZIPEK_clean_linker_0, # of connection points: 2
#     Edge 53, Type (0, 1), BuildingBlock: EZIPEK_clean_linker_0, # of connection points: 2
#     Edge 54, Type (0, 1), BuildingBlock: EZIPEK_clean_linker_0, # of connection points: 2
#     Edge 55, Type (0, 1), BuildingBlock: EZIPEK_clean_linker_0, # of connection points: 2
#     Edge 56, Type (0, 1), BuildingBlock: EZIPEK_clean_linker_0, # of connection points: 2
#     Edge 57, Type (0, 1), BuildingBlock: EZIPEK_clean_linker_0, # of connection points: 2
#     Edge 58, Type (0, 1), BuildingBlock: EZIPEK_clean_linker_0, # of connection points: 2
#     Edge 59, Type (0, 1), BuildingBlock: EZIPEK_clean_linker_0, # of connection points: 2
#     Edge 60, Type (0, 1), BuildingBlock: EZIPEK_clean_linker_0, # of connection points: 2
#     Edge 61, Type (0, 1), BuildingBlock: EZIPEK_clean_linker_0, # of connection points: 2
#     Edge 62, Type (0, 1), BuildingBlock: EZIPEK_clean_linker_0, # of connection points: 2
#     Edge 63, Type (0, 1), BuildingBlock: EZIPEK_clean_linker_0, # of connection points: 2
#     Edge 64, Type (0, 1), BuildingBlock: EZIPEK_clean_linker_0, # of connection points: 2
#     Edge 65, Type (0, 1), BuildingBlock: EZIPEK_clean_linker_0, # of connection points: 2
#     Edge 66, Type (0, 1), BuildingBlock: EZIPEK_clean_linker_0, # of connection points: 2
#     Edge 67, Type (0, 1), BuildingBlock: EZIPEK_clean_linker_0, # of connection points: 2
#     Edge 68, Type (0, 1), BuildingBlock: EZIPEK_clean_linker_0, # of connection points: 2
#     Edge 69, Type (0, 1), BuildingBlock: EZIPEK_clean_linker_0, # of connection points: 2
#     Edge 70, Type (0, 1), BuildingBlock: EZIPEK_clean_linker_0, # of connection points: 2
#     Edge 71, Type (0, 1), BuildingBlock: EZIPEK_clean_linker_0, # of connection points: 2
#     Edge 72, Type (0, 1), BuildingBlock: EZIPEK_clean_linker_0, # of connection points: 2
#     Edge 73, Type (0, 1), BuildingBlock: EZIPEK_clean_linker_0, # of connection points: 2
#     Edge 74, Type (0, 1), BuildingBlock: EZIPEK_clean_linker_0, # of connection points: 2
#     Edge 75, Type (0, 1), BuildingBlock: EZIPEK_clean_linker_0, # of connection points: 2
#     Edge 76, Type (0, 1), BuildingBlock: EZIPEK_clean_linker_0, # of connection points: 2
#     Edge 77, Type (0, 1), BuildingBlock: EZIPEK_clean_linker_0, # of connection points: 2
#     Edge 78, Type (0, 1), BuildingBlock: EZIPEK_clean_linker_0, # of connection points: 2
#     Edge 79, Type (0, 1), BuildingBlock: EZIPEK_clean_linker_0, # of connection points: 2
#     Edge 80, Type (0, 1), BuildingBlock: EZIPEK_clean_linker_0, # of connection points: 2
# Relax obj value: 0.024
# Max RMSD: 0.184
# Mean RMSD: 0.130
data_MOF--net-eea--node1-KUMJIN_clean_sbu_0--node2-BETDAH_clean_linker_0--edge1-EZIPEK_clean_linker_0
_symmetry_space_group_name_H-M    P1
_symmetry_Int_Tables_number       1
_symmetry_cell_setting            triclinic
loop_
_symmetry_equiv_pos_as_xyz
'x, y, z'
_cell_length_a     39.637463
_cell_length_b     40.702326
_cell_length_c     51.870812
_cell_angle_alpha  90.134049
_cell_angle_beta   89.877115
_cell_angle_gamma 119.88284
loop_
_atom_site_label
_atom_site_type_symbol
_atom_site_fract_x
_atom_site_fract_y
_atom_site_fract_z
_atom_type_partial_charge
H0 H 0.25873 0.05726 0.44036 0.0
H1 H 0.2617 0.16421 0.43263 0.0
H2 H 0.21671 0.08218 0.37119 0.0
C3 C 0.25245 0.07626 0.42941 0.0
C4 C 0.23535 0.06516 0.40503 0.0
C5 C 0.26232 0.11205 0.4395 0.0
C6 C 0.25393 0.13649 0.42507 0.0
C7 C 0.23783 0.12573 0.4002 0.0
C8 C 0.22879 0.09024 0.39042 0.0
N9 N 0.23264 0.15041 0.38355 0.0
C10 C 0.22736 0.1803 0.39107 0.0
H11 H 0.95587 0.2109 0.44444 0.0
H12 H 0.8573 0.10081 0.4283 0.0
H13 H 0.95136 0.15374 0.37372 0.0
C14 C 0.94104 0.18629 0.43202 0.0
C15 C 0.95775 0.18573 0.40822 0.0
C16 C 0.90456 0.15586 0.43939 0.0
C17 C 0.88541 0.12425 0.42283 0.0
C18 C 0.90268 0.12329 0.39924 0.0
C19 C 0.93853 0.15416 0.39212 0.0
N20 N 0.88516 0.09232 0.38181 0.0
C21 C 0.84925 0.05972 0.38487 0.0
H22 H 0.81047 0.76209 0.43518 0.0
H23 H 0.91629 0.75886 0.42164 0.0
H24 H 0.87305 0.80506 0.36428 0.0
C25 C 0.8354 0.76844 0.42314 0.0
C26 C 0.83855 0.78473 0.3988 0.0
C27 C 0.86282 0.75833 0.43157 0.0
C28 C 0.89517 0.76674 0.41555 0.0
C29 C 0.89934 0.78445 0.39138 0.0
C30 C 0.87056 0.79261 0.38314 0.0
N31 N 0.93079 0.79337 0.3741 0.0
C32 C 0.96508 0.79277 0.37903 0.0
H33 H 0.05252 0.2534 0.60004 0.0
H34 H 0.15736 0.24824 0.61271 0.0
H35 H 0.07333 0.21909 0.67377 0.0
C36 C 0.07084 0.24777 0.61264 0.0
C37 C 0.05865 0.23575 0.63806 0.0
C38 C 0.10639 0.25239 0.60326 0.0
C39 C 0.12994 0.24456 0.61973 0.0
C40 C 0.118 0.23253 0.64533 0.0
C41 C 0.08255 0.22848 0.6542 0.0
N42 N 0.14062 0.22497 0.6632 0.0
C43 C 0.17247 0.22012 0.65794 0.0
H44 H 0.75793 0.81174 0.59749 0.0
H45 H 0.73506 0.90185 0.61752 0.0
H46 H 0.7806 0.85767 0.6743 0.0
C47 C 0.75872 0.8321 0.61134 0.0
C48 C 0.77168 0.83244 0.6366 0.0
C49 C 0.74503 0.8569 0.60434 0.0
C50 C 0.74596 0.88304 0.62264 0.0
C51 C 0.75908 0.88342 0.64788 0.0
C52 C 0.77138 0.85788 0.65466 0.0
N53 N 0.75792 0.90713 0.66754 0.0
C54 C 0.76218 0.94276 0.66365 0.0
H55 H 0.20267 0.94597 0.5952 0.0
H56 H 0.08618 0.85109 0.60353 0.0
H57 H 0.13456 0.93846 0.6616 0.0
C58 C 0.17585 0.93079 0.6061 0.0
C59 C 0.17203 0.94607 0.62942 0.0
C60 C 0.14508 0.89659 0.59642 0.0
C61 C 0.11015 0.87724 0.61087 0.0
C62 C 0.10661 0.89218 0.63472 0.0
C63 C 0.1375 0.92664 0.64354 0.0
N64 N 0.07265 0.87455 0.65045 0.0
C65 C 0.04047 0.83846 0.64758 0.0
H66 H 0.91863 0.39506 0.77609 0.0
H67 H 0.96452 0.51242 0.75696 0.0
H68 H 0.91943 0.42861 0.69715 0.0
C69 C 0.92473 0.41659 0.76171 0.0
C70 C 0.91606 0.40638 0.73552 0.0
C71 C 0.94443 0.45489 0.76928 0.0
C72 C 0.94988 0.48286 0.75129 0.0
C73 C 0.93909 0.4729 0.72548 0.0
C74 C 0.92486 0.43537 0.71748 0.0
N75 N 0.94607 0.50085 0.70677 0.0
C76 C 0.92824 0.52291 0.70735 0.0
H77 H 0.62834 0.53371 0.77544 0.0
H78 H 0.52736 0.42359 0.76352 0.0
H79 H 0.61762 0.4711 0.70609 0.0
C80 C 0.61233 0.5084 0.76382 0.0
C81 C 0.62732 0.50583 0.7397 0.0
C82 C 0.57609 0.47877 0.77259 0.0
C83 C 0.55525 0.44632 0.75699 0.0
C84 C 0.57049 0.44339 0.73307 0.0
C85 C 0.60633 0.47313 0.72473 0.0
N86 N 0.55082 0.41142 0.71656 0.0
C87 C 0.51394 0.38039 0.72059 0.0
H88 H 0.4711 0.09258 0.77171 0.0
H89 H 0.57518 0.08603 0.75864 0.0
H90 H 0.52956 0.12574 0.69859 0.0
C91 C 0.49524 0.0972 0.75942 0.0
C92 C 0.49736 0.1108 0.73423 0.0
C93 C 0.52275 0.08753 0.76843 0.0
C94 C 0.55414 0.09379 0.75216 0.0
C95 C 0.55699 0.10821 0.72701 0.0
C96 C 0.52811 0.11585 0.71817 0.0
N97 N 0.5863 0.11239 0.70919 0.0
C98 C 0.62446 0.12189 0.71509 0.0
H99 H 0.72724 0.57872 0.93192 0.0
H100 H 0.82473 0.55952 0.93676 0.0
H101 H 0.72812 0.50211 0.98861 0.0
C102 C 0.74169 0.56522 0.94114 0.0
C103 C 0.72355 0.54057 0.96218 0.0
C104 C 0.7775 0.57108 0.93111 0.0
C105 C 0.79685 0.55451 0.94388 0.0
C106 C 0.77912 0.53004 0.96495 0.0
C107 C 0.74216 0.52222 0.97308 0.0
N108 N 0.79632 0.5114 0.97812 0.0
C109 C 0.83497 0.51992 0.97676 0.0
H110 H 0.42315 0.14203 0.92837 0.0
H111 H 0.39241 0.22723 0.94683 0.0
H112 H 0.44424 0.19094 1.00434 0.0
C113 C 0.42312 0.16255 0.94171 0.0
C114 C 0.43698 0.16493 0.96701 0.0
C115 C 0.4069 0.18503 0.93423 0.0
C116 C 0.40595 0.2107 0.95205 0.0
C117 C 0.41994 0.2131 0.97718 0.0
C118 C 0.43522 0.19021 0.98452 0.0
N119 N 0.41285 0.23344 0.99646 0.0
C120 C 0.43217 0.27268 0.99759 0.0
H121 H 0.86974 0.27761 0.9278 0.0
H122 H 0.75921 0.1777 0.94376 0.0
H123 H 0.80903 0.26947 0.99833 0.0
C124 C 0.84473 0.26199 0.94025 0.0
C125 C 0.84285 0.27774 0.96398 0.0
C126 C 0.81483 0.22564 0.93286 0.0
C127 C 0.78227 0.20562 0.94927 0.0
C128 C 0.78017 0.22179 0.97291 0.0
C129 C 0.8106 0.25738 0.98001 0.0
N130 N 0.74865 0.20372 0.99054 0.0
C131 C 0.71468 0.16918 0.98732 0.0
H132 H 0.60291 0.72167 0.10142 0.0
H133 H 0.57666 0.81264 0.10437 0.0
H134 H 0.53364 0.73245 0.04206 0.0
C135 C 0.58984 0.737 0.09294 0.0
C136 C 0.5684 0.72366 0.07004 0.0
C137 C 0.59319 0.7693 0.10546 0.0
C138 C 0.57519 0.78844 0.09454 0.0
C139 C 0.55391 0.77508 0.0715 0.0
C140 C 0.55085 0.74304 0.05949 0.0
N141 N 0.53204 0.79063 0.06093 0.0
C142 C 0.54282 0.82869 0.06109 0.0
H143 H 0.28784 0.88048 0.1046 0.0
H144 H 0.18951 0.76916 0.09131 0.0
H145 H 0.28447 0.81728 0.03723 0.0
C146 C 0.27296 0.85512 0.09287 0.0
C147 C 0.29011 0.85258 0.06976 0.0
C148 C 0.23639 0.82526 0.10071 0.0
C149 C 0.21752 0.79229 0.08535 0.0
C150 C 0.23534 0.78922 0.06266 0.0
C151 C 0.2711 0.81957 0.0549 0.0
N152 N 0.21907 0.75611 0.04714 0.0
C153 C 0.18277 0.72405 0.05028 0.0
H154 H 0.14551 0.42558 0.10734 0.0
H155 H 0.25462 0.42782 0.09625 0.0
H156 H 0.20964 0.4696 0.03701 0.0
C157 C 0.17102 0.43282 0.0957 0.0
C158 C 0.17436 0.44881 0.07118 0.0
C159 C 0.1996 0.42482 0.10496 0.0
C160 C 0.23267 0.43416 0.08946 0.0
C161 C 0.23652 0.45077 0.06492 0.0
C162 C 0.20709 0.45754 0.05602 0.0
N163 N 0.2684 0.46014 0.04792 0.0
C164 C 0.30284 0.4599 0.05305 0.0
H165 H 0.39111 0.9163 0.26346 0.0
H166 H 0.49049 0.90236 0.2774 0.0
H167 H 0.39604 0.85995 0.33211 0.0
C168 C 0.40607 0.90562 0.27527 0.0
C169 C 0.38914 0.8873 0.29867 0.0
C170 C 0.4428 0.91151 0.26742 0.0
C171 C 0.46224 0.89788 0.28321 0.0
C172 C 0.44509 0.87868 0.30644 0.0
C173 C 0.40884 0.87392 0.314 0.0
N174 N 0.46297 0.86387 0.32301 0.0
C175 C 0.4995 0.86706 0.32 0.0
H176 H 0.07662 0.47833 0.26217 0.0
H177 H 0.06131 0.5721 0.28472 0.0
H178 H 0.1031 0.52161 0.33958 0.0
C179 C 0.07908 0.49888 0.27648 0.0
C180 C 0.092 0.49754 0.3014 0.0
C181 C 0.06749 0.52544 0.27034 0.0
C182 C 0.07057 0.55181 0.28918 0.0
C183 C 0.08373 0.55054 0.31417 0.0
C184 C 0.09382 0.52309 0.32017 0.0
N185 N 0.08502 0.57499 0.33411 0.0
C186 C 0.09848 0.61329 0.33035 0.0
H187 H 0.52804 0.61998 0.26778 0.0
H188 H 0.42946 0.50909 0.28224 0.0
H189 H 0.47729 0.59162 0.34334 0.0
C190 C 0.50584 0.59986 0.28071 0.0
C191 C 0.50497 0.6103 0.30635 0.0
C192 C 0.47893 0.56334 0.27182 0.0
C193 C 0.45006 0.53739 0.28885 0.0
C194 C 0.44971 0.54763 0.31485 0.0
C195 C 0.47729 0.58392 0.32331 0.0
N196 N 0.42433 0.52173 0.33366 0.0
C197 C 0.38686 0.49198 0.32923 0.0
Eu198 Eu 0.48903 0.98454 0.98765 0.0
C199 C 0.56495 0.11905 0.06581 0.0
C200 C 0.63382 0.14073 0.06393 0.0
C201 C 0.61176 0.18596 0.07146 0.0
C202 C 0.59477 0.1115 0.06183 0.0
C203 C 0.573 0.15619 0.07136 0.0
C204 C 0.64218 0.17823 0.0678 0.0
C205 C 0.50432 0.13092 0.07918 0.0
N206 N 0.52806 0.08949 0.06606 0.0
C207 C 0.49793 0.09456 0.07381 0.0
C208 C 0.54196 0.16198 0.07755 0.0
Eu209 Eu 0.51878 0.02936 0.05347 0.0
N210 N 0.58552 0.07493 0.05849 0.0
C211 C 0.61361 0.06504 0.0604 0.0
C212 C 0.6631 0.13106 0.06357 0.0
C213 C 0.65283 0.09291 0.06264 0.0
H214 H 0.4687 0.07065 0.07473 0.0
H215 H 0.67509 0.08494 0.06343 0.0
H216 H 0.67201 0.20117 0.06904 0.0
H217 H 0.48023 0.13496 0.08453 0.0
H218 H 0.60599 0.03566 0.05992 0.0
H219 H 0.3304 0.91575 0.9897 0.0
H220 H 0.69347 0.15261 0.06522 0.0
H221 H 0.5413 0.95083 0.95842 0.0
H222 H 0.39788 0.96931 0.98834 0.0
H223 H 0.53487 0.88901 0.94683 0.0
H224 H 0.61857 0.21479 0.07535 0.0
H225 H 0.31814 0.85002 0.98615 0.0
H226 H 0.34503 0.8065 0.97746 0.0
H227 H 0.54689 0.1901 0.08188 0.0
H228 H 0.40113 0.79919 0.96551 0.0
N229 N 0.42342 0.93461 0.98611 0.0
C230 C 0.39278 0.94091 0.98734 0.0
C231 C 0.34775 0.87352 0.98584 0.0
C232 C 0.3792 0.86749 0.98201 0.0
C233 C 0.35454 0.91055 0.98781 0.0
C234 C 0.41713 0.89914 0.98188 0.0
H235 H 0.47208 0.82996 0.95349 0.0
N236 N 0.48379 0.92672 0.97325 0.0
C237 C 0.51042 0.89022 0.95509 0.0
C238 C 0.44845 0.89502 0.97521 0.0
C239 C 0.51407 0.92515 0.96184 0.0
C240 C 0.47496 0.85696 0.95893 0.0
C241 C 0.44308 0.85917 0.96844 0.0
O242 O 0.52133 0.01112 0.95226 0.0
O243 O 0.53455 0.03116 0.01181 0.0
O244 O 0.50507 0.06712 0.02853 0.0
O245 O 0.46856 0.02729 0.99465 0.0
O246 O 0.55415 0.01016 0.98268 0.0
O247 O 0.46051 0.9931 0.95401 0.0
O248 O 0.48974 0.01609 0.0913 0.0
O249 O 0.47191 0.98333 0.02948 0.0
O250 O 0.50776 0.94884 1.01018 0.0
O251 O 0.54 0.987 0.04615 0.0
O252 O 0.45454 0.00364 0.06003 0.0
O253 O 0.53727 0.00565 0.08448 0.0
C254 C 0.56503 0.03465 1.00112 0.0
C255 C 0.48759 0.9939 0.91273 0.0
C256 C 0.4952 0.00578 0.86601 0.0
C257 C 0.49598 0.01869 0.89152 0.0
C258 C 0.48614 0.96802 0.86225 0.0
C259 C 0.47741 0.95613 0.90814 0.0
C260 C 0.47696 0.9434 0.8831 0.0
C261 C 0.48241 0.05933 1.00801 0.0
C262 C 0.49159 0.00786 0.9396 0.0
C263 C 0.4058 0.82709 0.97028 0.0
C264 C 0.37387 0.83125 0.97709 0.0
C265 C 0.44195 0.97929 0.04156 0.0
C266 C 0.52512 0.01483 0.12805 0.0
C267 C 0.50355 0.99082 0.14873 0.0
C268 C 0.51753 0.99974 0.17434 0.0
C269 C 0.55313 0.03305 0.17881 0.0
C270 C 0.56025 0.0481 0.13321 0.0
C271 C 0.57409 0.05707 0.15845 0.0
C272 C 0.52867 0.95639 0.03153 0.0
C273 C 0.51177 0.004 0.10113 0.0
H274 H 0.50329 0.0478 0.89481 0.0
H275 H 0.48547 0.95738 0.84298 0.0
H276 H 0.47009 0.93647 0.92393 0.0
H277 H 0.46946 0.91426 0.87983 0.0
H278 H 0.47628 0.96512 0.14492 0.0
H279 H 0.56459 0.04059 0.19821 0.0
H280 H 0.57717 0.06692 0.11767 0.0
H281 H 0.60135 0.08271 0.16225 0.0
Eu282 Eu 0.03728 0.50573 0.98748 0.0
C283 C 0.89531 0.43723 0.06256 0.0
C284 C 0.86603 0.47678 0.05868 0.0
C285 C 0.82531 0.40947 0.06728 0.0
C286 C 0.89892 0.47207 0.05752 0.0
C287 C 0.85861 0.40562 0.06802 0.0
C288 C 0.82904 0.44507 0.06269 0.0
C289 C 0.89096 0.3699 0.07705 0.0
N290 N 0.92815 0.43477 0.06347 0.0
C291 C 0.92673 0.40217 0.0717 0.0
C292 C 0.85667 0.37147 0.07485 0.0
Eu293 Eu 0.98729 0.48957 0.05139 0.0
N294 N 0.9351 0.50206 0.05394 0.0
C295 C 0.94101 0.53801 0.05482 0.0
C296 C 0.87162 0.51349 0.05726 0.0
C297 C 0.90941 0.54432 0.05619 0.0
H298 H 0.9531 0.40066 0.07312 0.0
H299 H 0.91426 0.57294 0.05627 0.0
H300 H 0.80334 0.44801 0.06325 0.0
H301 H 0.88985 0.34385 0.08283 0.0
H302 H 0.97014 0.56196 0.05441 0.0
H303 H 0.10585 0.41802 0.9912 0.0
H304 H 0.84719 0.51842 0.05822 0.0
H305 H 0.07505 0.59057 0.95877 0.0
H306 H 0.05151 0.43126 0.98887 0.0
H307 H 0.1398 0.64614 0.94984 0.0
H308 H 0.79677 0.38544 0.07114 0.0
H309 H 0.17381 0.47112 0.99032 0.0
H310 H 0.21987 0.54099 0.98422 0.0
H311 H 0.82901 0.3465 0.07912 0.0
H312 H 0.22921 0.60375 0.97294 0.0
N313 N 0.08797 0.49078 0.98787 0.0
C314 C 0.08089 0.45442 0.98865 0.0
C315 C 0.14999 0.47695 0.98937 0.0
C316 C 0.15699 0.51398 0.9863 0.0
C317 C 0.11169 0.44692 0.9898 0.0
C318 C 0.12487 0.51991 0.98518 0.0
H319 H 0.1994 0.64319 0.95949 0.0
N320 N 0.09806 0.55826 0.97541 0.0
C321 C 0.13755 0.62085 0.95832 0.0
C322 C 0.13013 0.55499 0.97883 0.0
C323 C 0.101 0.58956 0.96359 0.0
C324 C 0.17111 0.6191 0.96385 0.0
C325 C 0.16763 0.58542 0.97347 0.0
O326 O 0.01626 0.51419 0.95066 0.0
O327 O 0.98631 0.50134 1.00933 0.0
O328 O 0.95071 0.43811 0.02635 0.0
O329 O 0.9931 0.44265 0.99337 0.0
O330 O 0.00821 0.54086 0.98029 0.0
O331 O 0.02993 0.46938 0.95414 0.0
O332 O 1.00058 0.47906 0.09048 0.0
O333 O 0.03716 0.49192 0.02944 0.0
O334 O 0.07112 0.55967 1.01041 0.0
O335 O 0.02749 0.55317 0.04342 0.0
O336 O 0.01852 0.45759 0.06134 0.0
O337 O 0.00469 0.53277 0.08132 0.0
C338 C 0.98156 0.52625 0.99777 0.0
C339 C 0.03674 0.49763 0.91299 0.0
C340 C 0.02909 0.49858 0.86632 0.0
C341 C 0.01289 0.48569 0.89094 0.0
C342 C 0.06939 0.5234 0.86407 0.0
C343 C 0.07698 0.5217 0.91026 0.0
C344 C 0.09315 0.53457 0.88589 0.0
C345 C 0.95948 0.4241 1.00601 0.0
C346 C 0.01889 0.48749 0.93872 0.0
C347 C 0.20008 0.58056 0.97657 0.0
C348 C 0.19476 0.54483 0.98299 0.0
C349 C 0.04358 0.46947 0.04294 0.0
C350 C 0.98927 0.51138 0.12444 0.0
C351 C 0.00962 0.5145 0.14739 0.0
C352 C 0.99368 0.51558 0.17147 0.0
C353 C 0.95719 0.5134 0.17232 0.0
C354 C 0.95263 0.50875 0.12575 0.0
C355 C 0.93678 0.50984 0.14959 0.0
C356 C 0.06011 0.57314 0.02995 0.0
C357 C 0.00691 0.51163 0.09936 0.0
H358 H 0.98179 0.46689 0.89293 0.0
H359 H 0.08249 0.53368 0.84532 0.0
H360 H 0.09579 0.53092 0.92694 0.0
H361 H 0.12418 0.5534 0.88392 0.0
H362 H 0.03779 0.51622 0.14655 0.0
H363 H 0.94439 0.51411 0.19064 0.0
H364 H 0.93639 0.50608 0.10839 0.0
H365 H 0.90858 0.50794 0.15045 0.0
Eu366 Eu 0.53437 0.5079 0.05538 0.0
C367 C 0.45831 0.55045 0.96977 0.0
C368 C 0.38922 0.5058 0.97277 0.0
C369 C 0.41165 0.57054 0.95911 0.0
C370 C 0.42819 0.51467 0.97601 0.0
C371 C 0.45038 0.57854 0.96074 0.0
C372 C 0.38111 0.53422 0.9651 0.0
C373 C 0.51939 0.61929 0.95352 0.0
N374 N 0.49548 0.55738 0.97166 0.0
C375 C 0.52583 0.59051 0.96248 0.0
C376 C 0.48156 0.6135 0.95301 0.0
Eu377 Eu 0.50355 0.50759 0.98856 0.0
N378 N 0.43694 0.48768 0.98311 0.0
C379 C 0.4086 0.45055 0.9839 0.0
C380 C 0.35965 0.46819 0.97604 0.0
C381 C 0.36948 0.44027 0.98086 0.0
H382 H 0.55515 0.59514 0.96315 0.0
H383 H 0.34698 0.41083 0.98224 0.0
H384 H 0.35134 0.52805 0.96286 0.0
H385 H 0.54358 0.64591 0.94706 0.0
H386 H 0.41612 0.42879 0.98686 0.0
H387 H 0.68677 0.62258 0.0479 0.0
H388 H 0.32935 0.46017 0.97369 0.0
H389 H 0.49914 0.42546 0.08631 0.0
H390 H 0.61904 0.58587 0.03451 0.0
H391 H 0.5207 0.39324 0.11664 0.0
H392 H 0.40496 0.59189 0.9525 0.0
H393 H 0.71186 0.59861 0.08227 0.0
H394 H 0.70005 0.54636 0.11278 0.0
H395 H 0.47665 0.63582 0.94599 0.0
H396 H 0.65556 0.48312 0.13038 0.0
N397 N 0.60344 0.54158 0.06187 0.0
C398 C 0.6284 0.57511 0.05005 0.0
C399 C 0.68149 0.58246 0.07678 0.0
C400 C 0.65656 0.54746 0.0881 0.0
C401 C 0.66745 0.59605 0.05739 0.0
C402 C 0.61721 0.52754 0.08024 0.0
H403 H 0.58912 0.42541 0.13134 0.0
N404 N 0.55522 0.4734 0.08139 0.0
C405 C 0.54139 0.42082 0.10904 0.0
C406 C 0.59244 0.49199 0.08995 0.0
C407 C 0.52939 0.43875 0.09133 0.0
C408 C 0.57992 0.43916 0.11741 0.0
C409 C 0.60593 0.47535 0.10807 0.0
O410 O 0.50707 0.49731 0.09366 0.0
O411 O 0.48603 0.5028 0.03 0.0
O412 O 0.50978 0.55945 1.00903 0.0
O413 O 0.55422 0.56752 0.04057 0.0
O414 O 0.46992 0.46707 0.06116 0.0
O415 O 0.5396 0.5545 0.07925 0.0
O416 O 0.52982 0.51981 0.95005 0.0
O417 O 0.54902 0.50424 0.01329 0.0
O418 O 0.51942 0.45016 0.03886 0.0
O419 O 0.48385 0.44659 1.00159 0.0
O420 O 0.56909 0.54267 0.984 0.0
O421 O 0.48056 0.46432 0.95821 0.0
C422 C 0.45668 0.47684 0.04179 0.0
C423 C 0.53914 0.54625 0.12456 0.0
C424 C 0.53308 0.55373 0.17093 0.0
C425 C 0.51574 0.54006 0.1466 0.0
C426 C 0.5738 0.5728 0.17301 0.0
C427 C 0.57981 0.5659 0.12718 0.0
C428 C 0.59693 0.57878 0.15128 0.0
C429 C 0.53568 0.58045 0.02645 0.0
C430 C 0.52109 0.53306 0.09891 0.0
C431 C 0.64475 0.49536 0.1164 0.0
C432 C 0.67001 0.5314 0.10646 0.0
C433 C 0.57977 0.52649 1.00092 0.0
C434 C 0.49036 0.48537 0.91434 0.0
C435 C 0.51314 0.48658 0.89299 0.0
C436 C 0.49904 0.48343 0.8676 0.0
C437 C 0.46214 0.47965 0.86394 0.0
C438 C 0.45381 0.48191 0.91014 0.0
C439 C 0.43988 0.47914 0.88505 0.0
C440 C 0.49561 0.43105 0.01951 0.0
C441 C 0.50491 0.48668 0.94072 0.0
H442 H 0.48432 0.52521 0.14483 0.0
H443 H 0.58769 0.58339 0.19152 0.0
H444 H 0.59843 0.57174 0.11056 0.0
H445 H 0.62831 0.59381 0.15308 0.0
H446 H 0.54151 0.48943 0.89607 0.0
H447 H 0.45062 0.47716 0.84467 0.0
H448 H 0.43593 0.48108 0.92622 0.0
H449 H 0.41157 0.47634 0.88194 0.0
Eu450 Eu 0.14871 0.31857 0.32278 0.0
C451 C 0.23056 0.46234 0.39085 0.0
C452 C 0.29765 0.47756 0.39436 0.0
C453 C 0.28206 0.5282 0.39355 0.0
C454 C 0.25775 0.45074 0.39163 0.0
C455 C 0.24225 0.50118 0.39251 0.0
C456 C 0.30975 0.51639 0.39454 0.0
C457 C 0.17445 0.4834 0.39545 0.0
N458 N 0.19248 0.43541 0.3904 0.0
C459 C 0.16444 0.44528 0.3942 0.0
C460 C 0.21354 0.51155 0.39416 0.0
Eu461 Eu 0.17724 0.37109 0.38608 0.0
N462 N 0.24495 0.41304 0.39155 0.0
C463 C 0.26985 0.40034 0.39777 0.0
C464 C 0.32393 0.46445 0.39775 0.0
C465 C 0.3098 0.42559 0.4001 0.0
H466 H 0.13412 0.42354 0.39524 0.0
H467 H 0.3295 0.41513 0.40429 0.0
H468 H 0.3403 0.53743 0.39621 0.0
H469 H 0.15203 0.49102 0.39752 0.0
H470 H 0.25882 0.37097 0.40198 0.0
H471 H 0.99105 0.23017 0.33094 0.0
H472 H 0.35482 0.48405 0.39981 0.0
H473 H 0.21283 0.29439 0.29813 0.0
H474 H 0.05382 0.28991 0.32789 0.0
H475 H 0.21544 0.23651 0.28826 0.0
H476 H 0.29165 0.55818 0.39451 0.0
H477 H 0.98929 0.16874 0.32711 0.0
H478 H 0.02512 0.13357 0.3178 0.0
H479 H 0.22129 0.54107 0.3954 0.0
H480 H 0.08608 0.13537 0.30571 0.0
N481 N 0.08725 0.26269 0.32393 0.0
C482 C 0.05337 0.26331 0.32655 0.0
C483 C 0.01689 0.1949 0.32593 0.0
C484 C 0.05145 0.19457 0.32106 0.0
C485 C 0.01776 0.2295 0.3281 0.0
C486 C 0.08659 0.22946 0.31974 0.0
H487 H 0.15697 0.17358 0.29428 0.0
N488 N 0.15377 0.26473 0.31068 0.0
C489 C 0.18873 0.23441 0.29533 0.0
C490 C 0.1208 0.23048 0.3127 0.0
C491 C 0.18716 0.26721 0.30104 0.0
C492 C 0.15565 0.19894 0.29874 0.0
C493 C 0.12096 0.19663 0.30714 0.0
O494 O 0.175 0.3545 0.28874 0.0
O495 O 0.19496 0.3657 0.3463 0.0
O496 O 0.15855 0.40041 0.35573 0.0
O497 O 0.11821 0.35239 0.3274 0.0
O498 O 0.21329 0.35118 0.31328 0.0
O499 O 0.11586 0.30935 0.28683 0.0
O500 O 0.15749 0.3786 0.42393 0.0
O501 O 0.13098 0.32073 0.36458 0.0
O502 O 0.17085 0.28776 0.34705 0.0
O503 O 0.19554 0.32504 0.38453 0.0
O504 O 0.11304 0.34828 0.38973 0.0
O505 O 0.1833 0.34331 0.421 0.0
C506 C 0.22507 0.37357 0.33296 0.0
C507 C 0.1529 0.3261 0.24786 0.0
C508 C 0.1701 0.34188 0.20213 0.0
C509 C 0.16108 0.35095 0.22667 0.0
C510 C 0.17126 0.30811 0.19932 0.0
C511 C 0.1533 0.29216 0.24407 0.0
C512 C 0.16273 0.28345 0.22006 0.0
C513 C 0.13244 0.38684 0.33681 0.0
C514 C 0.14495 0.33586 0.27395 0.0
C515 C 0.08644 0.16169 0.30965 0.0
C516 C 0.05174 0.16066 0.31659 0.0
C517 C 0.10092 0.31926 0.37482 0.0
C518 C 0.13603 0.32863 0.45462 0.0
C519 C 0.14659 0.32086 0.47905 0.0
C520 C 0.1175 0.29664 0.49682 0.0
C521 C 0.07827 0.27947 0.48953 0.0
C522 C 0.09627 0.31209 0.44866 0.0
C523 C 0.06781 0.28716 0.46566 0.0
C524 C 0.18806 0.29511 0.3698 0.0
C525 C 0.16596 0.3558 0.4362 0.0
H526 H 0.16026 0.37698 0.22919 0.0
H527 H 0.1781 0.3005 0.18079 0.0
H528 H 0.14622 0.27225 0.25966 0.0
H529 H 0.16317 0.25727 0.21747 0.0
H530 H 0.17698 0.33422 0.48447 0.0
H531 H 0.05556 0.26069 0.50269 0.0
H532 H 0.08681 0.31863 0.43098 0.0
H533 H 0.03738 0.27431 0.46049 0.0
Eu534 Eu 0.69665 0.84138 0.32123 0.0
C535 C 0.56104 0.77753 0.40129 0.0
C536 C 0.53233 0.81768 0.39819 0.0
C537 C 0.49158 0.75084 0.40827 0.0
C538 C 0.56479 0.81239 0.39608 0.0
C539 C 0.52458 0.74649 0.408 0.0
C540 C 0.49547 0.78644 0.40343 0.0
C541 C 0.55679 0.7104 0.41619 0.0
N542 N 0.59361 0.77453 0.4011 0.0
C543 C 0.59234 0.74212 0.4096 0.0
C544 C 0.52265 0.7124 0.41501 0.0
Eu545 Eu 0.65214 0.82833 0.38693 0.0
N546 N 0.60086 0.84191 0.39129 0.0
C547 C 0.60729 0.87807 0.39171 0.0
C548 C 0.5383 0.85449 0.39638 0.0
C549 C 0.57614 0.88493 0.39396 0.0
H550 H 0.61858 0.74028 0.41024 0.0
H551 H 0.58134 0.91368 0.39364 0.0
H552 H 0.47008 0.78982 0.40473 0.0
H553 H 0.55574 0.68443 0.42213 0.0
H554 H 0.63648 0.90174 0.39012 0.0
H555 H 0.76114 0.74996 0.32101 0.0
H556 H 0.51421 0.85984 0.39801 0.0
H557 H 0.73438 0.92552 0.29158 0.0
H558 H 0.70824 0.76532 0.32062 0.0
H559 H 0.79901 0.9795 0.28036 0.0
H560 H 0.4632 0.72722 0.41307 0.0
H561 H 0.82969 0.8016 0.31814 0.0
H562 H 0.87689 0.87095 0.3107 0.0
H563 H 0.49517 0.68784 0.42023 0.0
H564 H 0.88729 0.9341 0.2994 0.0
N565 N 0.74604 0.82457 0.31933 0.0
C566 C 0.73784 0.78786 0.31988 0.0
C567 C 0.80647 0.80834 0.31819 0.0
C568 C 0.81443 0.84568 0.31514 0.0
C569 C 0.76785 0.77915 0.31978 0.0
C570 C 0.78305 0.85278 0.31535 0.0
H571 H 0.85822 0.97475 0.28738 0.0
N572 N 0.75713 0.89204 0.30662 0.0
C573 C 0.79666 0.95406 0.28864 0.0
C574 C 0.78884 0.88793 0.30886 0.0
C575 C 0.76016 0.92359 0.29516 0.0
C576 C 0.83 0.95131 0.2927 0.0
C577 C 0.82624 0.91748 0.30221 0.0
O578 O 0.68033 0.85192 0.2831 0.0
O579 O 0.64843 0.83951 0.34497 0.0
O580 O 0.61283 0.77601 0.36359 0.0
O581 O 0.65209 0.77885 0.329 0.0
O582 O 0.66806 0.87717 0.31477 0.0
O583 O 0.67671 0.79824 0.29103 0.0
O584 O 0.67098 0.81915 0.42457 0.0
O585 O 0.70019 0.82961 0.36314 0.0
O586 O 0.73314 0.89579 0.34348 0.0
O587 O 0.69219 0.8913 0.37777 0.0
O588 O 0.68329 0.79578 0.39526 0.0
O589 O 0.66968 0.87083 0.41745 0.0
C590 C 0.64333 0.86422 0.33344 0.0
C591 C 0.68958 0.82014 0.24802 0.0
C592 C 0.68084 0.81086 0.20139 0.0
C593 C 0.66614 0.81205 0.22593 0.0
C594 C 0.71942 0.81846 0.19923 0.0
C595 C 0.72813 0.828 0.24541 0.0
C596 C 0.74292 0.8272 0.2211 0.0
C597 C 0.61977 0.76093 0.34307 0.0
C598 C 0.67325 0.81946 0.27366 0.0
C599 C 0.8582 0.9116 0.30404 0.0
C600 C 0.85229 0.87566 0.3105 0.0
C601 C 0.70702 0.80695 0.37609 0.0
C602 C 0.65985 0.84825 0.46052 0.0
C603 C 0.68212 0.85018 0.48222 0.0
C604 C 0.66772 0.84866 0.50731 0.0
C605 C 0.63076 0.84496 0.5104 0.0
C606 C 0.62284 0.84418 0.46406 0.0
C607 C 0.60848 0.84261 0.4889 0.0
C608 C 0.72415 0.91016 0.36356 0.0
C609 C 0.67561 0.85059 0.4344 0.0
H610 H 0.63636 0.80609 0.22783 0.0
H611 H 0.7313 0.81762 0.18057 0.0
H612 H 0.74664 0.83445 0.26216 0.0
H613 H 0.77263 0.83312 0.21921 0.0
H614 H 0.71057 0.85295 0.47963 0.0
H615 H 0.61907 0.84364 0.52952 0.0
H616 H 0.60512 0.84232 0.44766 0.0
H617 H 0.57995 0.83956 0.49151 0.0
Eu618 Eu 0.19577 0.83752 0.37956 0.0
C619 C 0.11927 0.90091 0.3051 0.0
C620 C 0.05042 0.85543 0.30657 0.0
C621 C 0.07218 0.92215 0.29999 0.0
C622 C 0.08953 0.86421 0.30856 0.0
C623 C 0.11102 0.93026 0.30022 0.0
C624 C 0.04189 0.88475 0.3031 0.0
C625 C 0.17983 0.97253 0.29364 0.0
N626 N 0.15633 0.90755 0.30513 0.0
C627 C 0.18647 0.9424 0.29835 0.0
C628 C 0.14199 0.96657 0.29494 0.0
Eu629 Eu 0.16575 0.85595 0.31601 0.0
N630 N 0.09887 0.83665 0.31172 0.0
C631 C 0.07073 0.79947 0.31023 0.0
C632 C 0.02121 0.81734 0.30687 0.0
C633 C 0.03152 0.78922 0.30795 0.0
H634 H 0.21585 0.9473 0.2976 0.0
H635 H 0.00927 0.75961 0.30738 0.0
H636 H 0.01202 0.87863 0.30191 0.0
H637 H 0.2039 0.00032 0.28905 0.0
H638 H 0.07828 0.77754 0.31137 0.0
H639 H 0.35319 0.93167 0.38106 0.0
H640 H 0.99081 0.80934 0.3053 0.0
H641 H 0.14541 0.74762 0.4008 0.0
H642 H 0.28413 0.91477 0.38071 0.0
H643 H 0.15669 0.69468 0.41096 0.0
H644 H 0.06524 0.94437 0.29656 0.0
H645 H 0.37041 0.88111 0.38413 0.0
H646 H 0.34811 0.81202 0.39092 0.0
H647 H 0.13689 0.98991 0.29116 0.0
H648 H 0.2945 0.74752 0.39992 0.0
N649 N 0.26257 0.85576 0.38211 0.0
C650 C 0.29134 0.8927 0.38162 0.0
C651 C 0.34009 0.87369 0.38381 0.0
C652 C 0.31039 0.83602 0.38644 0.0
C653 C 0.33049 0.90228 0.38211 0.0
C654 C 0.27143 0.82799 0.38586 0.0
H655 H 0.22311 0.70373 0.40814 0.0
N656 N 0.20476 0.78618 0.39186 0.0
C657 C 0.18083 0.72191 0.40538 0.0
C658 C 0.24151 0.792 0.39113 0.0
C659 C 0.17457 0.75203 0.39967 0.0
C660 C 0.21834 0.7271 0.4037 0.0
C661 C 0.24937 0.76261 0.39682 0.0
O662 O 0.16559 0.8225 0.41684 0.0
O663 O 0.14855 0.83929 0.35715 0.0
O664 O 0.17489 0.90382 0.34242 0.0
O665 O 0.21335 0.90013 0.37496 0.0
O666 O 0.13119 0.79639 0.38382 0.0
O667 O 0.21737 0.87706 0.41202 0.0
O668 O 0.19553 0.87346 0.27853 0.0
O669 O 0.21298 0.8535 0.33813 0.0
O670 O 0.18502 0.78885 0.35335 0.0
O671 O 0.14548 0.7926 0.32184 0.0
O672 O 0.23041 0.89608 0.31165 0.0
O673 O 0.14639 0.81741 0.28332 0.0
C674 C 0.11888 0.81103 0.36693 0.0
C675 C 0.20192 0.85228 0.45453 0.0
C676 C 0.19495 0.85833 0.50107 0.0
C677 C 0.18223 0.85742 0.47552 0.0
C678 C 0.22696 0.85302 0.50523 0.0
C679 C 0.23347 0.84664 0.45925 0.0
C680 C 0.24579 0.84691 0.4845 0.0
C681 C 0.19758 0.91795 0.36279 0.0
C682 C 0.19013 0.85431 0.42789 0.0
C683 C 0.2879 0.76983 0.39594 0.0
C684 C 0.3184 0.80652 0.39074 0.0
C685 C 0.24304 0.88101 0.32798 0.0
C686 C 0.15788 0.84307 0.24138 0.0
C687 C 0.17779 0.84093 0.21949 0.0
C688 C 0.16279 0.83901 0.19457 0.0
C689 C 0.12793 0.83983 0.19188 0.0
C690 C 0.12349 0.84449 0.23822 0.0
C691 C 0.10869 0.84293 0.21356 0.0
C692 C 0.1612 0.7743 0.33342 0.0
C693 C 0.17204 0.84146 0.26731 0.0
H694 H 0.15771 0.86165 0.47197 0.0
H695 H 0.23743 0.85368 0.52461 0.0
H696 H 0.24879 0.84244 0.4434 0.0
H697 H 0.27032 0.84277 0.48801 0.0
H698 H 0.20444 0.83992 0.22183 0.0
H699 H 0.11573 0.83824 0.17293 0.0
H700 H 0.10782 0.84623 0.25481 0.0
H701 H 0.08198 0.84374 0.21124 0.0
Eu702 Eu 0.81844 0.64962 0.64919 0.0
C703 C 0.88987 0.77417 0.73381 0.0
C704 C 0.95914 0.79756 0.73262 0.0
C705 C 0.93512 0.84039 0.74341 0.0
C706 C 0.92052 0.76804 0.72898 0.0
C707 C 0.89671 0.81015 0.74169 0.0
C708 C 0.96632 0.83407 0.73894 0.0
C709 C 0.82748 0.78258 0.74845 0.0
N710 N 0.85325 0.74418 0.73239 0.0
C711 C 0.82227 0.74738 0.74079 0.0
C712 C 0.86482 0.81427 0.7485 0.0
Eu713 Eu 0.8462 0.68648 0.71616 0.0
N714 N 0.91244 0.73231 0.72326 0.0
C715 C 0.94121 0.72322 0.72421 0.0
C716 C 0.98916 0.78898 0.73127 0.0
C717 C 0.98 0.75141 0.72788 0.0
H718 H 0.79339 0.72295 0.7408 0.0
H719 H 1.00278 0.74412 0.72799 0.0
H720 H 0.99582 0.85724 0.74142 0.0
H721 H 0.80274 0.78522 0.75435 0.0
H722 H 0.93454 0.69426 0.72209 0.0
H723 H 0.66206 0.59816 0.64823 0.0
H724 H 0.01921 0.81076 0.73406 0.0
H725 H 0.86073 0.6074 0.61734 0.0
H726 H 0.73196 0.64619 0.64788 0.0
H727 H 0.84635 0.54244 0.60624 0.0
H728 H 0.941 0.86837 0.74914 0.0
H729 H 0.64157 0.52997 0.64636 0.0
H730 H 0.66046 0.47989 0.63979 0.0
H731 H 0.86883 0.84146 0.75462 0.0
H732 H 0.71131 0.46449 0.62824 0.0
N733 N 0.75079 0.60564 0.64689 0.0
C734 C 0.72336 0.61655 0.64723 0.0
C735 C 0.67226 0.55094 0.64627 0.0
C736 C 0.70056 0.54019 0.64357 0.0
C737 C 0.68371 0.5894 0.64723 0.0
C738 C 0.74007 0.5687 0.64351 0.0
H739 H 0.78083 0.48784 0.61493 0.0
N740 N 0.8054 0.58908 0.63435 0.0
C741 C 0.8243 0.54689 0.61527 0.0
C742 C 0.76849 0.56007 0.63706 0.0
C743 C 0.83251 0.58351 0.62177 0.0
C744 C 0.78733 0.51615 0.62027 0.0
C745 C 0.75844 0.52267 0.63046 0.0
O746 O 0.85127 0.6716 0.61337 0.0
O747 O 0.86355 0.6949 0.6744 0.0
O748 O 0.83888 0.73022 0.6937 0.0
O749 O 0.79973 0.69363 0.65961 0.0
O750 O 0.88343 0.67664 0.64394 0.0
O751 O 0.79425 0.66495 0.61608 0.0
O752 O 0.81553 0.66939 0.75336 0.0
O753 O 0.80125 0.63998 0.69114 0.0
O754 O 0.84028 0.6135 0.66843 0.0
O755 O 0.87105 0.64775 0.70592 0.0
O756 O 0.78083 0.66057 0.71963 0.0
O757 O 0.86463 0.66147 0.74637 0.0
C758 C 0.89431 0.6997 0.66321 0.0
C759 C 0.81696 0.65974 0.57436 0.0
C760 C 0.82591 0.67118 0.52761 0.0
C761 C 0.82838 0.68485 0.5531 0.0
C762 C 0.81217 0.63226 0.52398 0.0
C763 C 0.80166 0.62092 0.56984 0.0
C764 C 0.79961 0.60737 0.54485 0.0
C765 C 0.81576 0.72501 0.67394 0.0
C766 C 0.82417 0.67428 0.60118 0.0
C767 C 0.71956 0.49354 0.63277 0.0
C768 C 0.6906 0.5023 0.63934 0.0
C769 C 0.77027 0.63514 0.70191 0.0
C770 C 0.85245 0.67076 0.78989 0.0
C771 C 0.83155 0.64772 0.81113 0.0
C772 C 0.84616 0.65804 0.83655 0.0
C773 C 0.88161 0.69182 0.84025 0.0
C774 C 0.88735 0.70463 0.79436 0.0
C775 C 0.90175 0.71501 0.81937 0.0
C776 C 0.86243 0.61996 0.68909 0.0
C777 C 0.83872 0.65865 0.76313 0.0
H778 H 0.83957 0.71483 0.55637 0.0
H779 H 0.8103 0.62095 0.50477 0.0
H780 H 0.79183 0.60108 0.58565 0.0
H781 H 0.78835 0.5774 0.54164 0.0
H782 H 0.80444 0.62161 0.80789 0.0
H783 H 0.89365 0.70036 0.85944 0.0
H784 H 0.90374 0.72285 0.77847 0.0
H785 H 0.92887 0.74106 0.82258 0.0
Eu786 Eu 0.36189 0.17351 0.65445 0.0
C787 C 0.21675 0.10222 0.72967 0.0
C788 C 0.18993 0.14419 0.72953 0.0
C789 C 0.14762 0.07689 0.7374 0.0
C790 C 0.22173 0.13802 0.72656 0.0
C791 C 0.17978 0.07131 0.73562 0.0
C792 C 0.15271 0.11331 0.73442 0.0
C793 C 0.20988 0.03257 0.7402 0.0
N794 N 0.24851 0.098 0.72826 0.0
C795 C 0.24598 0.06424 0.73461 0.0
C796 C 0.17652 0.036 0.74041 0.0
Eu797 Eu 0.3087 0.15251 0.7182 0.0
N798 N 0.25805 0.16716 0.72179 0.0
C799 C 0.26504 0.20358 0.72148 0.0
C800 C 0.19665 0.1813 0.72808 0.0
C801 C 0.23448 0.21117 0.72431 0.0
H802 H 0.27183 0.06165 0.73452 0.0
H803 H 0.24011 0.24004 0.72346 0.0
H804 H 0.12784 0.11741 0.73645 0.0
H805 H 0.20783 0.00562 0.74448 0.0
H806 H 0.29407 0.22697 0.71858 0.0
H807 H 0.43983 0.09437 0.65467 0.0
H808 H 0.17301 0.18723 0.73019 0.0
H809 H 0.3934 0.26194 0.63404 0.0
H810 H 0.38261 0.10295 0.65607 0.0
H811 H 0.45556 0.31993 0.62374 0.0
H812 H 0.11891 0.05345 0.74173 0.0
H813 H 0.50565 0.14991 0.64914 0.0
H814 H 0.54724 0.21996 0.64123 0.0
H815 H 0.14861 0.01152 0.74498 0.0
H816 H 0.55155 0.28148 0.63282 0.0
N817 N 0.41551 0.16292 0.65231 0.0
C818 C 0.41105 0.12747 0.65366 0.0
C819 C 0.48057 0.15385 0.64974 0.0
C820 C 0.48468 0.18981 0.64665 0.0
C821 C 0.44348 0.12244 0.65281 0.0
C822 C 0.45107 0.19335 0.64774 0.0
H823 H 0.51746 0.31899 0.62598 0.0
N824 N 0.4202 0.22937 0.64301 0.0
C825 C 0.45545 0.29426 0.62927 0.0
C826 C 0.45351 0.22777 0.64304 0.0
C827 C 0.42036 0.26147 0.63506 0.0
C828 C 0.49032 0.29363 0.63062 0.0
C829 C 0.4896 0.25991 0.63709 0.0
O830 O 0.34863 0.18385 0.61539 0.0
O831 O 0.3135 0.17275 0.67764 0.0
O832 O 0.27673 0.10205 0.69073 0.0
O833 O 0.32564 0.1102 0.66193 0.0
O834 O 0.32294 0.19712 0.64207 0.0
O835 O 0.34518 0.13035 0.6246 0.0
O836 O 0.32179 0.13841 0.75612 0.0
O837 O 0.35803 0.15468 0.6955 0.0
O838 O 0.39334 0.2255 0.68011 0.0
O839 O 0.34852 0.21623 0.71291 0.0
O840 O 0.34458 0.12555 0.72961 0.0
O841 O 0.32547 0.1928 0.75009 0.0
C842 C 0.30102 0.18855 0.66211 0.0
C843 C 0.35864 0.15102 0.58129 0.0
C844 C 0.34988 0.14303 0.53466 0.0
C845 C 0.33647 0.1465 0.55909 0.0
C846 C 0.38643 0.1454 0.5327 0.0
C847 C 0.39519 0.1537 0.57895 0.0
C848 C 0.40901 0.15102 0.5547 0.0
C849 C 0.29005 0.09027 0.67136 0.0
C850 C 0.34226 0.15121 0.60666 0.0
C851 C 0.52348 0.25704 0.6371 0.0
C852 C 0.52102 0.22202 0.64188 0.0
C853 C 0.36852 0.13659 0.71057 0.0
C854 C 0.31333 0.16817 0.79266 0.0
C855 C 0.33654 0.17123 0.81403 0.0
C856 C 0.32278 0.16979 0.83925 0.0
C857 C 0.28538 0.16484 0.84284 0.0
C858 C 0.27598 0.163 0.79657 0.0
C859 C 0.26214 0.16137 0.8216 0.0
C860 C 0.38199 0.23685 0.70069 0.0
C861 C 0.32876 0.17033 0.76656 0.0
H862 H 0.30831 0.14467 0.56087 0.0
H863 H 0.39737 0.14266 0.51414 0.0
H864 H 0.41275 0.15741 0.59585 0.0
H865 H 0.43711 0.15283 0.55298 0.0
H866 H 0.36531 0.1749 0.81108 0.0
H867 H 0.27418 0.16353 0.86211 0.0
H868 H 0.25764 0.1603 0.78032 0.0
H869 H 0.23331 0.15742 0.82456 0.0
Eu870 Eu 0.85798 0.17094 0.71948 0.0
C871 C 0.7751 0.21766 0.6367 0.0
C872 C 0.70787 0.1692 0.64266 0.0
C873 C 0.72333 0.23021 0.62468 0.0
C874 C 0.74798 0.18194 0.64496 0.0
C875 C 0.76316 0.24195 0.62586 0.0
C876 C 0.6957 0.19387 0.6331 0.0
C877 C 0.83062 0.28623 0.61626 0.0
N878 N 0.81323 0.22791 0.638 0.0
C879 C 0.84098 0.26122 0.62738 0.0
C880 C 0.79156 0.27678 0.61579 0.0
Eu881 Eu 0.82899 0.1835 0.65522 0.0
N882 N 0.76081 0.15873 0.65363 0.0
C883 C 0.7351 0.12154 0.65847 0.0
C884 C 0.68127 0.13167 0.64924 0.0
C885 C 0.695 0.10757 0.65685 0.0
H886 H 0.87122 0.26869 0.62776 0.0
H887 H 0.67476 0.07819 0.6613 0.0
H888 H 0.66503 0.18477 0.63149 0.0
H889 H 0.85275 0.31282 0.60818 0.0
H890 H 0.74547 0.10258 0.66346 0.0
H891 H 0.99387 0.29619 0.75064 0.0
H892 H 0.65021 0.12079 0.64787 0.0
H893 H 0.84731 0.08122 0.71729 0.0
H894 H 0.92349 0.25493 0.74689 0.0
H895 H 0.88583 0.05208 0.70522 0.0
H896 H 0.71357 0.24861 0.61667 0.0
H897 H 0.03808 0.27416 0.73476 0.0
H898 H 0.0461 0.22172 0.71632 0.0
H899 H 0.78359 0.29619 0.6072 0.0
H900 H 0.01638 0.15535 0.70229 0.0
N901 N 0.92644 0.21127 0.72646 0.0
C902 C 0.94191 0.2455 0.73872 0.0
C903 C 0.0069 0.25617 0.73261 0.0
C904 C 0.99103 0.21977 0.72222 0.0
C905 C 0.98211 0.26874 0.74146 0.0
C906 C 0.95014 0.19746 0.71976 0.0
H907 H 0.95663 0.09174 0.69823 0.0
N908 N 0.89403 0.13839 0.71309 0.0
C909 C 0.89959 0.08263 0.7065 0.0
C910 C 0.93339 0.16007 0.71226 0.0
C911 C 0.8775 0.0997 0.71262 0.0
C912 C 0.93948 0.10506 0.70261 0.0
C913 C 0.95715 0.14409 0.70666 0.0
O914 O 0.83535 0.12678 0.7491 0.0
O915 O 0.80658 0.16154 0.69519 0.0
O916 O 0.83985 0.23593 0.67861 0.0
O917 O 0.87441 0.23312 0.71406 0.0
O918 O 0.81131 0.18472 0.73147 0.0
O919 O 0.86238 0.18617 0.7607 0.0
O920 O 0.85907 0.19843 0.61774 0.0
O921 O 0.87667 0.18193 0.67796 0.0
O922 O 0.81575 0.11241 0.70307 0.0
O923 O 0.81727 0.12296 0.65901 0.0
O924 O 0.89263 0.22785 0.65384 0.0
O925 O 0.80935 0.143 0.62337 0.0
C926 C 0.79016 0.17327 0.71103 0.0
C927 C 0.8366 0.13888 0.79539 0.0
C928 C 0.82661 0.14991 0.84066 0.0
C929 C 0.83687 0.16325 0.81506 0.0
C930 C 0.81674 0.11247 0.84634 0.0
C931 C 0.82658 0.10159 0.8018 0.0
C932 C 0.81688 0.0886 0.82707 0.0
C933 C 0.85976 0.25065 0.70028 0.0
C934 C 0.84442 0.1509 0.76798 0.0
C935 C 0.9978 0.16702 0.70696 0.0
C936 C 0.01472 0.20475 0.71496 0.0
C937 C 0.90573 0.21187 0.66907 0.0
C938 C 0.8216 0.16687 0.58073 0.0
C939 C 0.84296 0.166 0.5592 0.0
C940 C 0.8287 0.16384 0.53397 0.0
C941 C 0.79313 0.16308 0.53064 0.0
C942 C 0.78641 0.16654 0.57685 0.0
C943 C 0.77237 0.16472 0.55193 0.0
C944 C 0.80994 0.10024 0.67891 0.0
C945 C 0.83527 0.16612 0.60705 0.0
H946 H 0.84431 0.19205 0.81049 0.0
H947 H 0.80892 0.1017 0.86581 0.0
H948 H 0.82603 0.08225 0.78719 0.0
H949 H 0.80919 0.05979 0.83172 0.0
H950 H 0.87023 0.16635 0.56205 0.0
H951 H 0.78154 0.16138 0.51148 0.0
H952 H 0.76953 0.16713 0.59309 0.0
H953 H 0.74509 0.16426 0.5491 0.0
C954 C 0.3612 0.8792 0.05976 0.0
C955 C 0.32841 0.88424 0.061 0.0
C956 C 0.36968 0.9509 0.04947 0.0
C957 C 0.40193 0.94508 0.04461 0.0
N958 N 0.42455 0.89966 0.04204 0.0
N959 N 0.29961 0.92245 0.05046 0.0
C960 C 0.39642 0.90795 0.0486 0.0
C961 C 0.33206 0.91927 0.05372 0.0
N962 N 0.35945 0.84769 0.07045 0.0
N963 N 0.37472 0.98657 0.05159 0.0
H964 H 0.27148 0.8998 0.0531 0.0
H965 H 0.30063 0.94646 0.04255 0.0
H966 H 0.40136 0.01132 0.04972 0.0
H967 H 0.3527 0.99162 0.05785 0.0
H968 H 0.38377 0.84456 0.07292 0.0
H969 H 0.33452 0.82635 0.07933 0.0
H970 H 0.42022 0.87223 0.04165 0.0
H971 H 0.45072 0.91948 0.03433 0.0
C972 C 0.14785 0.49202 0.05922 0.0
C973 C 0.14259 0.45497 0.06093 0.0
C974 C 0.07379 0.42818 0.04938 0.0
C975 C 0.07919 0.46528 0.04558 0.0
N976 N 0.12334 0.53294 0.04557 0.0
N977 N 0.10341 0.38858 0.05122 0.0
C978 C 0.11696 0.4973 0.0498 0.0
C979 C 0.10644 0.42336 0.05399 0.0
N980 N 0.18168 0.52211 0.06807 0.0
N981 N 0.0372 0.39725 0.04972 0.0
H982 H 0.12674 0.38397 0.05426 0.0
H983 H 0.07905 0.36529 0.04335 0.0
H984 H 0.01203 0.3986 0.0465 0.0
H985 H 0.03145 0.37044 0.05549 0.0
H986 H 0.1859 0.5493 0.07043 0.0
H987 H 0.20486 0.51944 0.07501 0.0
H988 H 0.15085 0.55692 0.04464 0.0
H989 H 0.10115 0.53832 0.0413 0.0
C990 C 0.59116 0.68502 0.04471 0.0
C991 C 0.56098 0.68756 0.05776 0.0
C992 C 0.51317 0.62586 0.04024 0.0
C993 C 0.54359 0.61973 0.03177 0.0
N994 N 0.61119 0.64559 0.02142 0.0
N995 N 0.49389 0.65712 0.0716 0.0
C996 C 0.58264 0.65004 0.03278 0.0
C997 C 0.52217 0.65708 0.05649 0.0
N998 N 0.62735 0.71635 0.0429 0.0
N999 N 0.47588 0.60326 0.03202 0.0
H1000 H 0.49942 0.67878 0.08465 0.0
H1001 H 0.46597 0.63372 0.07312 0.0
H1002 H 0.46748 0.58057 0.01952 0.0
H1003 H 0.45397 0.60981 0.03546 0.0
H1004 H 0.64989 0.71754 0.03188 0.0
H1005 H 0.63432 0.74231 0.05123 0.0
H1006 H 0.64082 0.66401 0.02405 0.0
H1007 H 0.60469 0.62283 1.00915 0.0
C1008 C 0.8653 0.34519 0.97594 0.0
C1009 C 0.87418 0.3158 0.97274 0.0
C1010 C 0.93932 0.35726 0.99063 0.0
C1011 C 0.92929 0.38579 0.996 0.0
N1012 N 0.87741 0.40132 0.99896 0.0
N1013 N 0.91699 0.29109 0.9813 0.0
C1014 C 0.89071 0.37808 0.99035 0.0
C1015 C 0.91059 0.32114 0.98107 0.0
N1016 N 0.83294 0.34227 0.96437 0.0
N1017 N 0.97611 0.36413 0.99523 0.0
H1018 H 0.89674 0.26421 0.97462 0.0
H1019 H 0.94097 0.29181 0.99006 0.0
H1020 H 0.99633 0.3876 1.00543 0.0
H1021 H 0.98692 0.3472 0.98817 0.0
H1022 H 0.82712 0.36455 0.9636 0.0
H1023 H 0.81401 0.31896 0.95319 0.0
H1024 H 0.84804 0.39346 0.99868 0.0
H1025 H 0.89443 0.42724 1.00791 0.0
C1026 C 0.65131 0.51801 0.95568 0.0
C1027 C 0.68423 0.53204 0.97236 0.0
C1028 C 0.63984 0.51944 1.0089 0.0
C1029 C 0.61099 0.51728 0.99235 0.0
N1030 N 0.58109 0.48852 0.95261 0.0
N1031 N 0.70855 0.54846 0.01624 0.0
C1032 C 0.61443 0.50976 0.96607 0.0
C1033 C 0.67813 0.53331 0.9994 0.0
N1034 N 0.65475 0.51127 0.93026 0.0
N1035 N 0.62904 0.50051 0.03155 0.0
H1036 H 0.73754 0.56227 1.01029 0.0
H1037 H 0.70447 0.55034 0.03595 0.0
H1038 H 0.59961 0.48406 0.03626 0.0
H1039 H 0.64856 0.49708 0.04315 0.0
H1040 H 0.63376 0.50649 0.91645 0.0
H1041 H 0.67889 0.51075 0.92278 0.0
H1042 H 0.57969 0.4791 0.93377 0.0
H1043 H 0.55467 0.47534 0.9624 0.0
C1044 C 0.41976 0.10133 0.98487 0.0
C1045 C 0.44874 0.13775 0.97673 0.0
C1046 C 0.49936 0.12621 0.99442 0.0
C1047 C 0.47077 0.08761 0.99938 0.0
N1048 N 0.40303 0.03855 0.99834 0.0
N1049 N 0.51626 0.18372 0.97062 0.0
C1050 C 0.43084 0.07526 0.99413 0.0
C1051 C 0.48856 0.14987 0.98068 0.0
N1052 N 0.38154 0.09223 0.98508 0.0
N1053 N 0.53666 0.14097 1.00312 0.0
H1054 H 0.50937 0.20185 0.96067 0.0
H1055 H 0.54577 0.19223 0.97007 0.0
H1056 H 0.54725 0.12542 0.01236 0.0
H1057 H 0.55677 0.16987 1.00299 0.0
H1058 H 0.35946 0.068 0.99382 0.0
H1059 H 0.37208 0.11047 0.97855 0.0
H1060 H 0.37485 0.02628 0.99106 0.0
H1061 H 0.40861 0.01994 1.00847 0.0
C1062 C 0.67531 0.10081 0.9979 0.0
C1063 C 0.67717 0.13458 0.98906 0.0
C1064 C 0.60603 0.10265 0.98721 0.0
C1065 C 0.60358 0.07004 0.99903 0.0
N1066 N 0.63547 0.0352 1.0112 0.0
N1067 N 0.64494 0.16972 0.97844 0.0
C1068 C 0.63824 0.06828 1.0029 0.0
C1069 C 0.64275 0.13607 0.98461 0.0
N1070 N 0.70915 0.10063 1.00276 0.0
N1071 N 0.57396 0.10071 0.97597 0.0
H1072 H 0.67124 0.19464 0.97526 0.0
H1073 H 0.62073 0.17341 0.97827 0.0
H1074 H 0.5465 0.07669 0.97651 0.0
H1075 H 0.5753 0.12186 0.96399 0.0
H1076 H 0.71071 0.07863 0.01175 0.0
H1077 H 0.73654 0.12354 0.99845 0.0
H1078 H 0.65837 0.02964 0.01153 0.0
H1079 H 0.60952 0.0128 0.01803 0.0
C1080 C 0.90394 0.55611 0.9913 0.0
C1081 C 0.87328 0.52342 0.97956 0.0
C1082 C 0.91443 0.49411 0.97792 0.0
C1083 C 0.94342 0.52449 0.9928 0.0
N1084 N 0.97051 0.58931 1.00678 0.0
N1085 N 0.84772 0.46018 0.96287 0.0
C1086 C 0.93962 0.55708 0.99725 0.0
C1087 C 0.87819 0.49225 0.97306 0.0
N1088 N 0.89808 0.58541 0.99803 0.0
N1089 N 0.92269 0.46873 0.96635 0.0
H1090 H 0.82129 0.45823 0.95789 0.0
H1091 H 0.84783 0.43479 0.96072 0.0
H1092 H 0.94848 0.46848 0.9693 0.0
H1093 H 0.90512 0.44951 0.9523 0.0
H1094 H 0.91698 0.60812 1.00955 0.0
H1095 H 0.87298 0.58617 0.99304 0.0
H1096 H 0.9722 0.61565 1.00714 0.0
H1097 H 0.99514 0.58976 0.01408 0.0
C1098 C 0.48271 0.33989 0.98984 0.0
C1099 C 0.44979 0.31267 1.00371 0.0
C1100 C 0.45176 0.36238 0.03142 0.0
C1101 C 0.48283 0.39011 0.01637 0.0
N1102 N 0.53526 0.40524 0.9868 0.0
N1103 N 0.40023 0.29719 0.03597 0.0
C1104 C 0.50037 0.37884 0.99702 0.0
C1105 C 0.43382 0.32364 0.0242 0.0
N1106 N 0.49627 0.32853 0.96938 0.0
N1107 N 0.44036 0.37286 0.05327 0.0
H1108 H 0.38653 0.26832 0.03172 0.0
H1109 H 0.38414 0.30395 0.0486 0.0
H1110 H 0.45166 0.40096 0.05853 0.0
H1111 H 0.42176 0.35392 0.06705 0.0
H1112 H 0.51766 0.34707 0.95673 0.0
H1113 H 0.48432 0.30013 0.96406 0.0
H1114 H 0.55143 0.39911 0.97384 0.0
H1115 H 0.55011 0.4331 0.9935 0.0
C1116 C 0.13479 0.66061 0.06717 0.0
C1117 C 0.14686 0.68819 0.04749 0.0
C1118 C 0.09539 0.64263 0.01917 0.0
C1119 C 0.08691 0.61337 0.0373 0.0
N1120 N 0.10074 0.59384 0.07804 0.0
N1121 N 0.14037 0.70618 1.00436 0.0
C1122 C 0.10675 0.62224 0.06139 0.0
C1123 C 0.12732 0.67953 0.0235 0.0
N1124 N 0.15033 0.67115 0.0913 0.0
N1125 N 0.07239 0.63538 0.99799 0.0
H1126 H 0.16222 0.73421 1.0072 0.0
H1127 H 0.13115 0.70008 0.98529 0.0
H1128 H 0.04984 0.60848 0.99355 0.0
H1129 H 0.07386 0.65632 0.98577 0.0
H1130 H 0.14016 0.65332 0.10726 0.0
H1131 H 0.17127 0.69899 0.09581 0.0
H1132 H 0.11746 0.59795 0.09445 0.0
H1133 H 0.08091 0.56541 0.07451 0.0
C1134 C 0.37506 0.49992 0.05436 0.0
C1135 C 0.34153 0.46357 0.0526 0.0
C1136 C 0.383 0.43609 0.04247 0.0
C1137 C 0.41685 0.47278 0.04397 0.0
N1138 N 0.44402 0.53532 0.06249 0.0
N1139 N 0.31332 0.39601 0.05012 0.0
C1140 C 0.41265 0.50361 0.05292 0.0
C1141 C 0.34548 0.43127 0.04834 0.0
N1142 N 0.37121 0.53128 0.0572 0.0
N1143 N 0.38667 0.40603 0.03454 0.0
H1144 H 0.28566 0.39187 0.05416 0.0
H1145 H 0.31417 0.37089 0.04965 0.0
H1146 H 0.41326 0.40916 0.02887 0.0
H1147 H 0.36342 0.37905 0.03094 0.0
H1148 H 0.39463 0.5588 0.05577 0.0
H1149 H 0.34432 0.52982 0.05941 0.0
H1150 H 0.44147 0.55585 0.07298 0.0
H1151 H 0.47209 0.53951 0.06212 0.0
C1152 C 0.56115 0.88257 0.03156 0.0
C1153 C 0.5474 0.86571 0.056 0.0
C1154 C 0.5232 0.90922 0.06501 0.0
C1155 C 0.53776 0.92706 0.04072 0.0
N1156 N 0.57759 0.93566 1.00329 0.0
N1157 N 0.52457 0.86826 0.09846 0.0
C1158 C 0.55893 0.91525 0.02473 0.0
C1159 C 0.53173 0.88103 0.07361 0.0
N1160 N 0.57494 0.86643 0.01445 0.0
N1161 N 0.49865 0.91688 0.07899 0.0
H1162 H 0.53035 0.84735 0.10509 0.0
H1163 H 0.51665 0.88086 0.11297 0.0
H1164 H 0.48971 0.93567 0.07288 0.0
H1165 H 0.48392 0.90182 0.0954 0.0
H1166 H 0.5804 0.87413 0.9951 0.0
H1167 H 0.57899 0.84377 0.01931 0.0
H1168 H 0.59708 0.93115 0.99248 0.0
H1169 H 0.57571 0.95903 0.99728 0.0
C1170 C 0.99303 0.25086 0.38899 0.0
C1171 C 0.99435 0.21936 0.39931 0.0
C1172 C 0.06542 0.25372 0.39518 0.0
C1173 C 0.06411 0.28421 0.38271 0.0
N1174 N 0.0281 0.31776 0.37998 0.0
N1175 N 0.03104 0.18842 0.40935 0.0
C1176 C 0.02828 0.28452 0.38299 0.0
C1177 C 0.03029 0.22007 0.40147 0.0
N1178 N 0.95789 0.24821 0.38399 0.0
N1179 N 0.09978 0.25897 0.40473 0.0
H1180 H 0.00624 0.16376 0.41537 0.0
H1181 H 0.05584 0.1858 0.40809 0.0
H1182 H 0.12588 0.28407 0.40252 0.0
H1183 H 0.10178 0.24006 0.41728 0.0
H1184 H 0.95503 0.2684 0.3734 0.0
H1185 H 0.93133 0.22419 0.38827 0.0
H1186 H 1.00351 0.32034 0.38286 0.0
H1187 H 0.05325 0.34385 0.37771 0.0
C1188 C 0.81244 0.82858 0.38759 0.0
C1189 C 0.80679 0.79142 0.38926 0.0
C1190 C 0.73703 0.76515 0.38148 0.0
C1191 C 0.74251 0.80224 0.37736 0.0
N1192 N 0.78764 0.86969 0.37525 0.0
N1193 N 0.76597 0.72498 0.38042 0.0
C1194 C 0.781 0.83403 0.3797 0.0
C1195 C 0.76981 0.75999 0.38382 0.0
N1196 N 0.84726 0.85868 0.39507 0.0
N1197 N 0.70056 0.73463 0.38455 0.0
H1198 H 0.78951 0.72028 0.38147 0.0
H1199 H 0.74044 0.7017 0.37372 0.0
H1200 H 0.67515 0.73609 0.38367 0.0
H1201 H 0.69563 0.70815 0.39049 0.0
H1202 H 0.852 0.88605 0.39751 0.0
H1203 H 0.87089 0.85588 0.40083 0.0
H1204 H 0.81523 0.89321 0.37288 0.0
H1205 H 0.76539 0.8754 0.37233 0.0
C1206 C 0.1864 0.99908 0.39135 0.0
C1207 C 0.22577 0.02775 0.39406 0.0
C1208 C 0.24681 0.98516 0.37614 0.0
C1209 C 0.20722 0.9567 0.37205 0.0
N1210 N 0.13968 0.9418 0.36989 0.0
N1211 N 0.29339 0.05132 0.38435 0.0
C1212 C 0.17711 0.96522 0.37774 0.0
C1213 C 0.25599 0.02166 0.38524 0.0
N1214 N 0.15774 0.00353 0.40269 0.0
N1215 N 0.27597 0.97769 0.37085 0.0
H1216 H 0.30131 0.07853 0.39076 0.0
H1217 H 0.31613 0.05 0.37528 0.0
H1218 H 0.2711 0.95381 0.36075 0.0
H1219 H 0.30455 0.99448 0.37711 0.0
H1220 H 0.12895 0.98175 0.40412 0.0
H1221 H 0.16334 0.02785 0.41289 0.0
H1222 H 0.11831 0.94956 0.37056 0.0
H1223 H 0.13009 0.91598 0.36075 0.0
C1224 C 0.57214 0.65628 0.32227 0.0
C1225 C 0.53418 0.64857 0.31595 0.0
C1226 C 0.5498 0.71159 0.33165 0.0
C1227 C 0.5895 0.72134 0.33525 0.0
N1228 N 0.63811 0.70207 0.33377 0.0
N1229 N 0.48806 0.67012 0.31087 0.0
C1230 C 0.6005 0.69341 0.33033 0.0
C1231 C 0.52332 0.6765 0.31972 0.0
N1232 N 0.58062 0.62753 0.32165 0.0
N1233 N 0.53669 0.7352 0.3398 0.0
H1234 H 0.46773 0.64471 0.30223 0.0
H1235 H 0.48034 0.69109 0.30995 0.0
H1236 H 0.55436 0.76238 0.34681 0.0
H1237 H 0.50725 0.72675 0.34124 0.0
H1238 H 0.60612 0.62981 0.32897 0.0
H1239 H 0.56081 0.60012 0.31555 0.0
H1240 H 0.64963 0.68574 0.32674 0.0
H1241 H 0.65822 0.72643 0.3432 0.0
C1242 C 0.31597 0.85015 0.30537 0.0
C1243 C 0.35185 0.88454 0.3078 0.0
C1244 C 0.31648 0.91687 0.32165 0.0
C1245 C 0.28062 0.88182 0.32149 0.0
N1246 N 0.24632 0.82103 0.30042 0.0
N1247 N 0.38692 0.94883 0.32323 0.0
C1248 C 0.28024 0.84969 0.31022 0.0
C1249 C 0.35223 0.91733 0.31741 0.0
N1250 N 0.31586 0.81771 0.29841 0.0
N1251 N 0.3164 0.95031 0.32329 0.0
H1252 H 0.41371 0.95032 0.32043 0.0
H1253 H 0.38894 0.97197 0.33323 0.0
H1254 H 0.29102 0.95183 0.32271 0.0
H1255 H 0.3413 0.97674 0.32129 0.0
H1256 H 0.29113 0.79096 0.29952 0.0
H1257 H 0.34108 0.81716 0.29346 0.0
H1258 H 0.24484 0.79914 0.28915 0.0
H1259 H 0.2203 0.82141 0.30074 0.0
C1260 C 0.07204 0.43339 0.31958 0.0
C1261 C 0.1013 0.46764 0.30845 0.0
C1262 C 0.14748 0.44434 0.31046 0.0
C1263 C 0.11998 0.41234 0.32458 0.0
N1264 N 0.05175 0.36892 0.3317 0.0
N1265 N 0.16776 0.50753 0.29484 0.0
C1266 C 0.0809 0.40461 0.32613 0.0
C1267 C 0.13925 0.47357 0.30421 0.0
N1268 N 0.03607 0.42884 0.32462 0.0
N1269 N 0.17943 0.44456 0.30044 0.0
H1270 H 0.16258 0.52928 0.28936 0.0
H1271 H 0.19703 0.51512 0.29428 0.0
H1272 H 0.1831 0.42098 0.30171 0.0
H1273 H 0.19909 0.46541 0.28802 0.0
H1274 H 0.0152 0.40694 0.33585 0.0
H1275 H 0.02782 0.44844 0.31904 0.0
H1276 H 0.02229 0.36034 0.33062 0.0
H1277 H 0.05676 0.34649 0.33443 0.0
C1278 C 0.33657 0.42383 0.33113 0.0
C1279 C 0.34619 0.46219 0.32952 0.0
C1280 C 0.27713 0.44337 0.33346 0.0
C1281 C 0.26691 0.40449 0.33528 0.0
N1282 N 0.28719 0.35787 0.32853 0.0
N1283 N 0.32732 0.50983 0.33139 0.0
C1284 C 0.29677 0.39482 0.33214 0.0
C1285 C 0.31688 0.47228 0.33107 0.0
N1286 N 0.36563 0.41504 0.33265 0.0
N1287 N 0.24856 0.4526 0.33261 0.0
H1288 H 0.35585 0.53167 0.32858 0.0
H1289 H 0.30846 0.51986 0.33583 0.0
H1290 H 0.21997 0.43295 0.33652 0.0
H1291 H 0.25269 0.47908 0.32761 0.0
H1292 H 0.36082 0.38824 0.33752 0.0
H1293 H 0.39505 0.43528 0.33089 0.0
H1294 H 0.3069 0.34971 0.32223 0.0
H1295 H 0.25907 0.33508 0.33045 0.0
C1296 C 0.53776 0.83385 0.31606 0.0
C1297 C 0.53658 0.86743 0.32137 0.0
C1298 C 0.60524 0.89899 0.33483 0.0
C1299 C 0.60582 0.86459 0.33083 0.0
N1300 N 0.57785 0.80593 0.30687 0.0
N1301 N 0.56814 0.93204 0.33603 0.0
C1302 C 0.57347 0.83372 0.31854 0.0
C1303 C 0.57029 0.90026 0.33039 0.0
N1304 N 0.50446 0.80155 0.30917 0.0
N1305 N 0.63842 0.93059 0.34269 0.0
H1306 H 0.54354 0.93427 0.3321 0.0
H1307 H 0.58978 0.95572 0.34547 0.0
H1308 H 0.66271 0.92951 0.34902 0.0
H1309 H 0.64231 0.95781 0.34282 0.0
H1310 H 0.5025 0.77508 0.30821 0.0
H1311 H 0.47805 0.80075 0.30609 0.0
H1312 H 0.55695 0.78552 0.29475 0.0
H1313 H 0.60364 0.80505 0.30734 0.0
C1314 C 0.15472 0.67771 0.33633 0.0
C1315 C 0.11583 0.65405 0.32819 0.0
C1316 C 0.11204 0.70949 0.31438 0.0
C1317 C 0.14872 0.73375 0.32621 0.0
N1318 N 0.21117 0.74051 0.33705 0.0
N1319 N 0.05562 0.64656 0.31185 0.0
C1320 C 0.17194 0.71771 0.33399 0.0
C1321 C 0.09397 0.66968 0.31789 0.0
N1322 N 0.17471 0.66198 0.34736 0.0
N1323 N 0.09646 0.72365 0.29732 0.0
H1324 H 0.0417 0.6171 0.31333 0.0
H1325 H 0.03688 0.65678 0.30744 0.0
H1326 H 0.11279 0.75035 0.28935 0.0
H1327 H 0.07076 0.70701 0.28721 0.0
H1328 H 0.20123 0.67761 0.35678 0.0
H1329 H 0.16354 0.63279 0.3487 0.0
H1330 H 0.2304 0.73048 0.34003 0.0
H1331 H 0.22546 0.76949 0.33365 0.0
C1332 C 0.78749 0.0181 0.36263 0.0
C1333 C 0.81342 0.02358 0.38299 0.0
C1334 C 0.77553 0.95614 0.394 0.0
C1335 C 0.75284 0.94967 0.37131 0.0
N1336 N 0.73891 0.97424 0.33294 0.0
N1337 N 0.83366 0.99909 0.41815 0.0
C1338 C 0.75913 0.98064 0.35541 0.0
C1339 C 0.80757 0.99303 0.39895 0.0
N1340 N 0.78984 0.04888 0.35036 0.0
N1341 N 0.76679 0.927 0.41067 0.0
H1342 H 0.85622 0.02608 0.42298 0.0
H1343 H 0.83424 0.97749 0.42848 0.0
H1344 H 0.74538 0.89914 0.40702 0.0
H1345 H 0.77913 0.9306 0.42888 0.0
H1346 H 0.7694 0.04717 0.33705 0.0
H1347 H 0.81037 0.07667 0.35532 0.0
H1348 H 0.74545 0.99488 0.31897 0.0
H1349 H 0.71718 0.94746 0.32733 0.0
C1350 C 0.03691 0.83098 0.38469 0.0
C1351 C 1.00351 0.79583 0.37871 0.0
C1352 C 0.04564 0.76994 0.36596 0.0
C1353 C 0.07911 0.80617 0.37021 0.0
N1354 N 0.10535 0.86381 0.39513 0.0
N1355 N 0.9749 0.73157 0.36361 0.0
C1356 C 0.07451 0.83482 0.38269 0.0
C1357 C 0.00756 0.76499 0.36973 0.0
N1358 N 0.03294 0.86128 0.3917 0.0
N1359 N 0.05044 0.74018 0.35867 0.0
H1360 H 0.94684 0.72671 0.3671 0.0
H1361 H 0.97513 0.70911 0.35419 0.0
H1362 H 0.07758 0.7431 0.35463 0.0
H1363 H 0.02803 0.71221 0.35758 0.0
H1364 H 0.05644 0.88878 0.39306 0.0
H1365 H 0.00593 0.85936 0.39451 0.0
H1366 H 0.10254 0.88257 0.40745 0.0
H1367 H 0.13311 0.86702 0.39531 0.0
C1368 C 0.24651 0.24827 0.39259 0.0
C1369 C 0.21707 0.20986 0.39227 0.0
C1370 C 0.16817 0.22733 0.3811 0.0
C1371 C 0.198 0.26627 0.37958 0.0
N1372 N 0.26634 0.31291 0.38097 0.0
N1373 N 0.14939 0.16305 0.394 0.0
C1374 C 0.23733 0.27664 0.38517 0.0
C1375 C 0.17773 0.19954 0.38898 0.0
N1376 N 0.28318 0.25741 0.40021 0.0
N1377 N 0.13097 0.21634 0.37364 0.0
H1378 H 0.15577 0.14226 0.39994 0.0
H1379 H 0.11983 0.15417 0.39486 0.0
H1380 H 0.12167 0.23512 0.36847 0.0
H1381 H 0.10953 0.18826 0.37073 0.0
H1382 H 0.30563 0.28498 0.40333 0.0
H1383 H 0.29021 0.23687 0.40567 0.0
H1384 H 0.29589 0.32197 0.38212 0.0
H1385 H 0.26087 0.33358 0.37393 0.0
C1386 C 0.69804 0.53581 0.72664 0.0
C1387 C 0.66366 0.53821 0.72879 0.0
C1388 C 0.6975 0.60104 0.70869 0.0
C1389 C 0.73197 0.59858 0.70564 0.0
N1390 N 0.75973 0.55751 0.70527 0.0
N1391 N 0.6279 0.5691 0.71626 0.0
C1392 C 0.73066 0.5641 0.71263 0.0
C1393 C 0.66263 0.56972 0.71824 0.0
N1394 N 0.70001 0.50699 0.73871 0.0
N1395 N 0.69802 0.63359 0.70205 0.0
H1396 H 0.60168 0.54674 0.72298 0.0
H1397 H 0.62437 0.58916 0.70602 0.0
H1398 H 0.72027 0.65383 0.69081 0.0
H1399 H 0.67675 0.64016 0.70748 0.0
H1400 H 0.72565 0.50599 0.74048 0.0
H1401 H 0.67676 0.48582 0.74906 0.0
H1402 H 0.75866 0.53161 0.70765 0.0
H1403 H 0.78246 0.57608 0.69368 0.0
C1404 C 0.42853 0.08678 0.71936 0.0
C1405 C 0.46598 0.11784 0.72433 0.0
C1406 C 0.44196 0.16124 0.71279 0.0
C1407 C 0.40303 0.13019 0.71101 0.0
N1408 N 0.35957 0.06332 0.71964 0.0
N1409 N 0.50803 0.18518 0.72834 0.0
C1410 C 0.39645 0.09293 0.71616 0.0
C1411 C 0.47272 0.15526 0.72148 0.0
N1412 N 0.4235 0.05113 0.71739 0.0
N1413 N 0.44964 0.19672 0.70665 0.0
H1414 H 0.53126 0.18196 0.73447 0.0
H1415 H 0.51359 0.21294 0.72989 0.0
H1416 H 0.42782 0.20199 0.70121 0.0
H1417 H 0.4775 0.21993 0.7046 0.0
H1418 H 0.39761 0.02788 0.71112 0.0
H1419 H 0.44639 0.04559 0.71935 0.0
H1420 H 0.35376 0.03701 0.72661 0.0
H1421 H 0.33464 0.06546 0.71762 0.0
C1422 C 0.86692 0.34958 0.70897 0.0
C1423 C 0.89832 0.36568 0.72691 0.0
C1424 C 0.88664 0.30203 0.73428 0.0
C1425 C 0.86637 0.28855 0.71071 0.0
N1426 N 0.82988 0.30058 0.678 0.0
N1427 N 0.9436 0.35454 0.75182 0.0
C1428 C 0.85467 0.31276 0.69838 0.0
C1429 C 0.91009 0.34123 0.73805 0.0
N1430 N 0.84623 0.36747 0.70389 0.0
N1431 N 0.87931 0.27836 0.75461 0.0
H1432 H 0.96437 0.38321 0.75263 0.0
H1433 H 0.95225 0.33622 0.75958 0.0
H1434 H 0.85705 0.25016 0.75418 0.0
H1435 H 0.89234 0.2884 0.77257 0.0
H1436 H 0.82091 0.35538 0.69286 0.0
H1437 H 0.85122 0.39205 0.71344 0.0
H1438 H 0.82615 0.31912 0.66608 0.0
H1439 H 0.81155 0.27222 0.67397 0.0
C1440 C 0.23303 0.9845 0.65543 0.0
C1441 C 0.20402 0.98325 0.6388 0.0
C1442 C 0.23642 0.05277 0.63949 0.0
C1443 C 0.26286 0.05371 0.65827 0.0
N1444 N 0.29685 0.02306 0.67429 0.0
N1445 N 0.17621 0.01559 0.61592 0.0
C1446 C 0.26413 0.02024 0.66362 0.0
C1447 C 0.20535 0.01727 0.63093 0.0
N1448 N 0.23039 0.95149 0.66382 0.0
N1449 N 0.24321 0.08575 0.62812 0.0
H1450 H 0.15365 0.99026 0.60858 0.0
H1451 H 0.17282 0.03891 0.61221 0.0
H1452 H 0.26741 0.11183 0.63261 0.0
H1453 H 0.22755 0.087 0.61243 0.0
H1454 H 0.2479 0.95034 0.67832 0.0
H1455 H 0.20881 0.92485 0.65754 0.0
H1456 H 0.30124 0.00016 0.67715 0.0
H1457 H 0.3219 0.04922 0.67665 0.0
C1458 C 0.0169 0.25821 0.66091 0.0
C1459 C 0.01989 0.2293 0.64741 0.0
C1460 C 0.94867 0.18969 0.6477 0.0
C1461 C 0.94524 0.21693 0.66303 0.0
N1462 N 0.97549 0.28072 0.67952 0.0
N1463 N 0.98918 0.16465 0.63261 0.0
C1464 C 0.97933 0.25229 0.66831 0.0
C1465 C 0.98595 0.19422 0.6423 0.0
N1466 N 0.05021 0.29079 0.66739 0.0
N1467 N 0.9167 0.1616 0.63567 0.0
H1468 H 0.0158 0.16685 0.62781 0.0
H1469 H 0.96571 0.13709 0.63155 0.0
H1470 H 0.88913 0.1584 0.63753 0.0
H1471 H 0.91817 0.14397 0.62165 0.0
H1472 H 0.05115 0.31161 0.67949 0.0
H1473 H 0.07779 0.29623 0.66172 0.0
H1474 H 0.9981 0.30841 0.68174 0.0
H1475 H 0.94884 0.27707 0.68584 0.0
C1476 C 0.82321 0.81483 0.64512 0.0
C1477 C 0.78337 0.80474 0.6454 0.0
C1478 C 0.76798 0.74842 0.67088 0.0
C1479 C 0.8064 0.7555 0.6676 0.0
N1480 N 0.87342 0.80408 0.66286 0.0
N1481 N 0.71689 0.76036 0.65694 0.0
C1482 C 0.83506 0.79119 0.65784 0.0
C1483 C 0.75546 0.77101 0.65779 0.0
N1484 N 0.84953 0.84649 0.63208 0.0
N1485 N 0.74533 0.72361 0.68944 0.0
H1486 H 0.70659 0.77656 0.64798 0.0
H1487 H 0.69496 0.73401 0.66329 0.0
H1488 H 0.75687 0.712 0.70216 0.0
H1489 H 0.71804 0.71927 0.69472 0.0
H1490 H 0.87813 0.85312 0.62862 0.0
H1491 H 0.8419 0.86463 0.62289 0.0
H1492 H 0.8954 0.83162 0.65899 0.0
H1493 H 0.88292 0.78874 0.67366 0.0
C1494 C 0.00375 0.77112 0.66165 0.0
C1495 C 0.00408 0.80249 0.64963 0.0
C1496 C 0.93287 0.76626 0.6459 0.0
C1497 C 0.93189 0.73623 0.66058 0.0
N1498 N 0.96714 0.7049 0.67364 0.0
N1499 N 0.96944 0.83155 0.63155 0.0
C1500 C 0.96763 0.73716 0.66583 0.0
C1501 C 0.9688 0.8004 0.64197 0.0
N1502 N 0.03794 0.77435 0.6701 0.0
N1503 N 0.90012 0.76085 0.63347 0.0
H1504 H 0.99519 0.85651 0.62731 0.0
H1505 H 0.94453 0.83346 0.62846 0.0
H1506 H 0.87289 0.73701 0.63604 0.0
H1507 H 0.90032 0.77898 0.61925 0.0
H1508 H 0.03946 0.75459 0.68202 0.0
H1509 H 0.06502 0.79811 0.66642 0.0
H1510 H 0.99173 0.70192 0.67429 0.0
H1511 H 0.94161 0.68027 0.67849 0.0
C1512 C 0.19674 0.17461 0.66303 0.0
C1513 C 0.20462 0.21197 0.658 0.0
C1514 C 0.27484 0.23398 0.65695 0.0
C1515 C 0.26759 0.19676 0.66336 0.0
N1516 N 0.22022 0.13029 0.66613 0.0
N1517 N 0.25075 0.27833 0.65388 0.0
C1518 C 0.22806 0.16678 0.66478 0.0
C1519 C 0.24352 0.24187 0.65588 0.0
N1520 N 0.15913 0.14666 0.66729 0.0
N1521 N 0.31153 0.26167 0.65037 0.0
H1522 H 0.22871 0.28508 0.65191 0.0
H1523 H 0.27827 0.30202 0.65603 0.0
H1524 H 0.33599 0.2587 0.65198 0.0
H1525 H 0.31766 0.28714 0.64177 0.0
H1526 H 0.15137 0.12003 0.6746 0.0
H1527 H 0.13534 0.15078 0.6651 0.0
H1528 H 0.19283 0.1066 0.66362 0.0
H1529 H 0.24205 0.12383 0.66825 0.0
C1530 C 0.7485 0.99177 0.68111 0.0
C1531 C 0.77023 0.9817 0.66441 0.0
C1532 C 0.81813 0.0485 0.65809 0.0
C1533 C 0.7955 0.05915 0.67365 0.0
N1534 N 0.73513 0.04061 0.69583 0.0
N1535 N 0.82038 0.99971 0.63244 0.0
C1536 C 0.75949 0.03064 0.68401 0.0
C1537 C 0.80315 0.00988 0.65127 0.0
N1538 N 0.7179 0.96423 0.6947 0.0
N1539 N 0.8553 0.07482 0.6516 0.0
H1540 H 0.81016 0.97151 0.62721 0.0
H1541 H 0.84225 0.01923 0.62041 0.0
H1542 H 0.86845 0.10235 0.65865 0.0
H1543 H 0.87458 0.06831 0.64234 0.0
H1544 H 0.70392 0.96998 0.70958 0.0
H1545 H 0.70784 0.93538 0.69206 0.0
H1546 H 0.70677 0.02129 0.70138 0.0
H1547 H 0.7422 0.06866 0.69795 0.0
C1548 C 0.44622 0.34294 0.70443 0.0
C1549 C 0.47632 0.34574 0.72062 0.0
C1550 C 0.43824 0.27765 0.72991 0.0
C1551 C 0.41014 0.27454 0.71168 0.0
N1552 N 0.37862 0.3049 0.69171 0.0
N1553 N 0.49835 0.31882 0.75316 0.0
C1554 C 0.41148 0.30747 0.70191 0.0
C1555 C 0.47133 0.31398 0.73496 0.0
N1556 N 0.45125 0.37384 0.69092 0.0
N1557 N 0.43294 0.24584 0.74231 0.0
H1558 H 0.52235 0.34529 0.75728 0.0
H1559 H 0.4964 0.29749 0.76513 0.0
H1560 H 0.40752 0.21972 0.74029 0.0
H1561 H 0.45321 0.2448 0.75445 0.0
H1562 H 0.43225 0.37239 0.67654 0.0
H1563 H 0.47562 0.4007 0.6932 0.0
H1564 H 0.37651 0.32817 0.68561 0.0
H1565 H 0.35207 0.27974 0.6929 0.0
C1566 C 0.69294 0.17295 0.70835 0.0
C1567 C 0.66628 0.13536 0.71613 0.0
C1568 C 0.72091 0.12383 0.72321 0.0
C1569 C 0.74731 0.1602 0.7129 0.0
N1570 N 0.75955 0.22396 0.70797 0.0
N1571 N 0.65396 0.07362 0.72904 0.0
C1572 C 0.73364 0.18611 0.70884 0.0
C1573 C 0.68004 0.1105 0.72323 0.0
N1574 N 0.67937 0.19592 0.69966 0.0
N1575 N 0.7351 0.10343 0.73522 0.0
H1576 H 0.62403 0.06327 0.73011 0.0
H1577 H 0.6617 0.05277 0.73103 0.0
H1578 H 0.76466 0.11237 0.73614 0.0
H1579 H 0.71795 0.07911 0.74599 0.0
H1580 H 0.69692 0.22166 0.69042 0.0
H1581 H 0.64997 0.18804 0.69987 0.0
H1582 H 0.75163 0.24479 0.70736 0.0
H1583 H 0.78887 0.2346 0.71163 0.0
C1584 C 0.89134 0.55404 0.72325 0.0
C1585 C 0.91059 0.54643 0.70305 0.0
C1586 C 0.90114 0.58896 0.67449 0.0
C1587 C 0.87882 0.59433 0.69385 0.0
N1588 N 0.84597 0.5752 0.73499 0.0
N1589 N 0.9264 0.54989 0.65786 0.0
C1590 C 0.87215 0.57507 0.71786 0.0
C1591 C 0.91307 0.56172 0.67819 0.0
N1592 N 0.89161 0.54145 0.7476 0.0
N1593 N 0.91323 0.61146 0.65315 0.0
H1594 H 0.93624 0.53054 0.65975 0.0
H1595 H 0.92436 0.55663 0.63877 0.0
H1596 H 0.90642 0.63258 0.64995 0.0
H1597 H 0.93327 0.61181 0.63997 0.0
H1598 H 0.88184 0.54959 0.76373 0.0
H1599 H 0.90428 0.52498 0.75193 0.0
H1600 H 0.83701 0.55869 0.75161 0.0
H1601 H 0.8302 0.58889 0.7314 0.0
C1602 C 0.47007 0.97169 0.24092 0.0
C1603 C 0.46131 0.93342 0.24311 0.0
C1604 C 0.48999 0.93825 0.20002 0.0
C1605 C 0.49529 0.97527 0.19696 0.0
N1606 N 0.48126 0.02315 0.21232 0.0
N1607 N 0.45564 0.87785 0.22223 0.0
C1608 C 0.4825 0.99069 0.21678 0.0
C1609 C 0.46916 0.91597 0.22191 0.0
N1610 N 0.46827 0.99064 0.26219 0.0
N1611 N 0.50623 0.92484 0.18268 0.0
H1612 H 0.43979 0.86052 0.23761 0.0
H1613 H 0.45694 0.86291 0.20629 0.0
H1614 H 0.52197 0.94024 0.16662 0.0
H1615 H 0.50697 0.89987 0.18543 0.0
H1616 H 0.4781 0.01963 0.26227 0.0
H1617 H 0.46084 0.97839 0.28045 0.0
H1618 H 0.46861 0.03368 0.2251 0.0
H1619 H 0.48911 0.03733 0.19469 0.0
C1620 C 0.01281 0.49105 0.23866 0.0
C1621 C 0.04917 0.52335 0.24478 0.0
C1622 C 0.04873 0.55173 0.20308 0.0
C1623 C 0.01427 0.51787 0.19608 0.0
N1624 N 0.96844 0.45225 0.20504 0.0
N1625 N 0.10525 0.58155 0.23105 0.0
C1626 C 0.9978 0.4866 0.21325 0.0
C1627 C 0.06818 0.55292 0.22647 0.0
N1628 N 0.99174 0.46531 0.2574 0.0
N1629 N 0.06209 0.58321 0.18791 0.0
H1630 H 0.12043 0.58326 0.24786 0.0
H1631 H 0.12213 0.60172 0.21728 0.0
H1632 H 0.04865 0.58353 0.17073 0.0
H1633 H 0.08453 0.60981 0.19341 0.0
H1634 H 0.96329 0.44338 0.25467 0.0
H1635 H 1.00106 0.46798 0.27646 0.0
H1636 H 0.95805 0.4275 0.21582 0.0
H1637 H 0.9571 0.44766 0.1864 0.0
C1638 C 0.49892 0.5288 0.24004 0.0
C1639 C 0.48316 0.55289 0.2448 0.0
C1640 C 0.49377 0.57282 0.19939 0.0
C1641 C 0.50963 0.54884 0.1947 0.0
N1642 N 0.51719 0.49644 0.20833 0.0
N1643 N 0.45589 0.58956 0.22786 0.0
C1644 C 0.50863 0.52418 0.21434 0.0
C1645 C 0.47727 0.57205 0.22398 0.0
N1646 N 0.5071 0.51231 0.26019 0.0
N1647 N 0.49651 0.59793 0.18092 0.0
H1648 H 0.44333 0.58918 0.24565 0.0
H1649 H 0.4475 0.60116 0.21302 0.0
H1650 H 0.50787 0.59903 0.16259 0.0
H1651 H 0.48989 0.61932 0.18428 0.0
H1652 H 0.52287 0.49827 0.25819 0.0
H1653 H 0.50064 0.51494 0.2793 0.0
H1654 H 0.51351 0.47525 0.22116 0.0
H1655 H 0.52432 0.49247 0.18963 0.0
C1656 C 0.95304 0.48197 0.81446 0.0
C1657 C 0.96489 0.4658 0.79464 0.0
C1658 C 0.01288 0.46473 0.82379 0.0
C1659 C 0.00468 0.48523 0.84251 0.0
N1660 N 0.97078 0.51869 0.85406 0.0
N1661 N 0.01331 0.45142 0.7785 0.0
C1662 C 0.97562 0.49521 0.8375 0.0
C1663 C 0.99682 0.45982 0.79877 0.0
N1664 N 0.91997 0.48413 0.81146 0.0
N1665 N 0.03537 0.44915 0.83005 0.0
H1666 H 0.00405 0.44987 0.7595 0.0
H1667 H 0.03892 0.4503 0.78014 0.0
H1668 H 0.04677 0.45113 0.84847 0.0
H1669 H 0.03913 0.4309 0.81779 0.0
H1670 H 0.90765 0.49207 0.82624 0.0
H1671 H 0.90308 0.47498 0.79477 0.0
H1672 H 0.95292 0.53005 0.85007 0.0
H1673 H 0.98713 0.52949 0.87083 0.0
C1674 C 0.5486 0.51006 0.80164 0.0
C1675 C 0.55924 0.4818 0.79788 0.0
C1676 C 0.53027 0.4541 0.83999 0.0
C1677 C 0.52243 0.48411 0.84457 0.0
N1678 N 0.53311 0.54567 0.83229 0.0
N1679 N 0.56826 0.43233 0.81625 0.0
C1680 C 0.53443 0.51367 0.82616 0.0
C1681 C 0.55253 0.45546 0.81794 0.0
N1682 N 0.55004 0.53228 0.78148 0.0
N1683 N 0.51495 0.42333 0.85595 0.0
H1684 H 0.58531 0.43301 0.80069 0.0
H1685 H 0.56765 0.41525 0.83138 0.0
H1686 H 0.49799 0.42081 0.87202 0.0
H1687 H 0.51611 0.39882 0.85194 0.0
H1688 H 0.53874 0.55052 0.78244 0.0
H1689 H 0.55897 0.52984 0.76301 0.0
H1690 H 0.54505 0.5697 0.82065 0.0
H1691 H 0.5237 0.54967 0.85022 0.0
C1692 C 0.54422 0.08372 0.81424 0.0
C1693 C 0.51629 0.06786 0.79406 0.0
C1694 C 0.472 0.01793 0.82384 0.0
C1695 C 0.50189 0.03019 0.84263 0.0
N1696 N 0.56916 0.07218 0.85385 0.0
N1697 N 0.45703 0.01402 0.77846 0.0
C1698 C 0.53878 0.06254 0.83739 0.0
C1699 C 0.48107 0.03335 0.79856 0.0
N1700 N 0.57532 0.11943 0.8117 0.0
N1701 N 0.4346 0.99184 0.83026 0.0
H1702 H 0.46367 0.02286 0.75936 0.0
H1703 H 0.43286 0.98704 0.7804 0.0
H1704 H 0.42659 0.98078 0.84883 0.0
H1705 H 0.4111 0.9845 0.81799 0.0
H1706 H 0.59447 0.13386 0.82674 0.0
H1707 H 0.57984 0.13603 0.79537 0.0
H1708 H 0.59763 0.09294 0.8496 0.0
H1709 H 0.56659 0.0573 0.87075 0.0
C1710 C 0.11342 0.2402 0.55605 0.0
C1711 C 0.11847 0.26611 0.57611 0.0
C1712 C 0.13193 0.31546 0.54379 0.0
C1713 C 0.12619 0.28937 0.5237 0.0
N1714 N 0.12122 0.23049 0.51057 0.0
N1715 N 0.1422 0.33057 0.58951 0.0
C1716 C 0.12032 0.25292 0.52989 0.0
C1717 C 0.13101 0.30452 0.57005 0.0
N1718 N 0.09998 0.20296 0.56184 0.0
N1719 N 0.13601 0.34995 0.53783 0.0
H1720 H 0.14178 0.32338 0.60885 0.0
H1721 H 0.15515 0.35963 0.58641 0.0
H1722 H 0.13798 0.3594 0.51893 0.0
H1723 H 0.13526 0.36835 0.5515 0.0
H1724 H 0.09129 0.18172 0.548 0.0
H1725 H 0.09517 0.19276 0.5807 0.0
H1726 H 0.12059 0.20495 0.51375 0.0
H1727 H 0.12629 0.23931 0.49137 0.0
C1728 C 0.7448 0.88457 0.56077 0.0
C1729 C 0.72719 0.85388 0.57841 0.0
C1730 C 0.67599 0.81741 0.54665 0.0
C1731 C 0.6904 0.84989 0.53066 0.0
N1732 N 0.73606 0.91627 0.52399 0.0
N1733 N 0.67189 0.79338 0.58983 0.0
C1734 C 0.72433 0.88399 0.53803 0.0
C1735 C 0.69175 0.82079 0.57176 0.0
N1736 N 0.78147 0.91389 0.56545 0.0
N1737 N 0.64764 0.78308 0.53765 0.0
H1738 H 0.68155 0.79516 0.60872 0.0
H1739 H 0.64395 0.77067 0.58683 0.0
H1740 H 0.63579 0.77943 0.51922 0.0
H1741 H 0.63876 0.75772 0.54742 0.0
H1742 H 0.7974 0.93519 0.55211 0.0
H1743 H 0.79743 0.91505 0.58174 0.0
H1744 H 0.7579 0.94287 0.53 0.0
H1745 H 0.72188 0.91709 0.5073 0.0
C1746 C 0.15896 0.90665 0.54878 0.0
C1747 C 0.15025 0.88273 0.57063 0.0
C1748 C 0.15974 0.83803 0.54385 0.0
C1749 C 0.17572 0.86537 0.52378 0.0
N1750 N 0.19549 0.92878 0.50905 0.0
N1751 N 0.14691 0.82704 0.58961 0.0
C1752 C 0.17629 0.9004 0.5266 0.0
C1753 C 0.15142 0.84852 0.5683 0.0
N1754 N 0.15042 0.93528 0.54917 0.0
N1755 N 0.15201 0.80184 0.53943 0.0
H1756 H 0.14158 0.83391 0.60796 0.0
H1757 H 0.15182 0.80416 0.58946 0.0
H1758 H 0.15688 0.79301 0.5216 0.0
H1759 H 0.13707 0.77982 0.5525 0.0
H1760 H 0.15289 0.9515 0.53301 0.0
H1761 H 0.13693 0.94008 0.56488 0.0
H1762 H 0.20033 0.95617 0.51175 0.0
H1763 H 0.20987 0.92619 0.49302 0.0
C1764 C 0.59963 0.75653 0.15221 0.0
C1765 C 0.61383 0.78151 0.13078 0.0
C1766 C 0.66682 0.82858 0.15776 0.0
C1767 C 0.6561 0.80136 0.17776 0.0
N1768 N 0.61553 0.73684 0.19219 0.0
N1769 N 0.66465 0.83946 0.11206 0.0
C1770 C 0.62324 0.76463 0.17457 0.0
C1771 C 0.64836 0.81717 0.13327 0.0
N1772 N 0.56314 0.7255 0.1515 0.0
N1773 N 0.69402 0.86556 0.16233 0.0
H1774 H 0.65261 0.83187 0.09367 0.0
H1775 H 0.69198 0.8638 0.11228 0.0
H1776 H 0.70754 0.8751 0.18018 0.0
H1777 H 0.70021 0.88731 0.14931 0.0
H1778 H 0.54987 0.70834 0.16748 0.0
H1779 H 0.54454 0.71917 0.13577 0.0
H1780 H 0.59447 0.70856 0.18934 0.0
H1781 H 0.6325 0.74119 0.20855 0.0
C1782 C 0.209 0.85839 0.12763 0.0
C1783 C 0.2179 0.82877 0.125 0.0
C1784 C 0.18793 0.80395 0.16727 0.0
C1785 C 0.18318 0.83601 0.17109 0.0
N1786 N 0.19803 0.89833 0.15708 0.0
N1787 N 0.22356 0.77827 0.14512 0.0
C1788 C 0.19638 0.86463 0.1519 0.0
C1789 C 0.2096 0.80293 0.14565 0.0
N1790 N 0.21095 0.87962 0.10672 0.0
N1791 N 0.17041 0.77368 0.1836 0.0
H1792 H 0.24054 0.77738 0.13005 0.0
H1793 H 0.22163 0.76147 0.1608 0.0
H1794 H 0.15334 0.7727 0.19922 0.0
H1795 H 0.16964 0.74809 0.18014 0.0
H1796 H 0.20113 0.89908 0.10706 0.0
H1797 H 0.21844 0.87499 0.08833 0.0
H1798 H 0.21097 0.9215 0.14467 0.0
H1799 H 0.19025 0.90451 0.17491 0.0
C1800 C 0.16031 0.36725 0.13294 0.0
C1801 C 0.19287 0.40432 0.13025 0.0
C1802 C 0.21098 0.40142 0.17537 0.0
C1803 C 0.17647 0.3658 0.17856 0.0
N1804 N 0.11382 0.31943 0.1619 0.0
N1805 N 0.24519 0.45956 0.15054 0.0
C1806 C 0.14978 0.35022 0.15777 0.0
C1807 C 0.2171 0.42226 0.15196 0.0
N1808 N 0.14033 0.34749 0.11156 0.0
N1809 N 0.23865 0.41474 0.19426 0.0
H1810 H 0.25039 0.47571 0.13389 0.0
H1811 H 0.26101 0.47531 0.16645 0.0
H1812 H 0.23515 0.40054 0.21163 0.0
H1813 H 0.26622 0.4383 0.1919 0.0
H1814 H 0.11886 0.31902 0.11205 0.0
H1815 H 0.14795 0.35826 0.09292 0.0
H1816 H 0.09171 0.30908 0.14817 0.0
H1817 H 0.10474 0.30669 0.17994 0.0
C1818 C 0.80299 0.63132 0.90449 0.0
C1819 C 0.79366 0.59288 0.90641 0.0
C1820 C 0.81934 0.5969 0.86246 0.0
C1821 C 0.8252 0.63413 0.85969 0.0
N1822 N 0.81301 0.68273 0.87619 0.0
N1823 N 0.78366 0.53645 0.88422 0.0
C1824 C 0.81405 0.65007 0.88017 0.0
C1825 C 0.79908 0.57487 0.88449 0.0
N1826 N 0.80299 0.65061 0.92609 0.0
N1827 N 0.83463 0.58299 0.84477 0.0
H1828 H 0.76734 0.51904 0.89944 0.0
H1829 H 0.78348 0.52152 0.86782 0.0
H1830 H 0.85053 0.59834 0.82875 0.0
H1831 H 0.83474 0.55766 0.84737 0.0
H1832 H 0.81333 0.67969 0.92623 0.0
H1833 H 0.79642 0.6384 0.94438 0.0
H1834 H 0.80162 0.69371 0.8896 0.0
H1835 H 0.81963 0.69657 0.85844 0.0
C1836 C 0.35262 0.14561 0.90297 0.0
C1837 C 0.38772 0.17971 0.90856 0.0
C1838 C 0.38069 0.20768 0.8684 0.0
C1839 C 0.347 0.17274 0.86211 0.0
N1840 N 0.30684 0.10584 0.87023 0.0
N1841 N 0.43961 0.2401 0.89399 0.0
C1842 C 0.33488 0.14086 0.87841 0.0
C1843 C 0.40315 0.2098 0.89041 0.0
N1844 N 0.33489 0.11855 0.92156 0.0
N1845 N 0.39028 0.2393 0.85408 0.0
H1846 H 0.45693 0.24236 0.90978 0.0
H1847 H 0.45404 0.26111 0.88019 0.0
H1848 H 0.37449 0.23906 0.83796 0.0
H1849 H 0.41193 0.26638 0.8594 0.0
H1850 H 0.3072 0.09508 0.91941 0.0
H1851 H 0.34606 0.12127 0.94008 0.0
H1852 H 0.29966 0.08097 0.88017 0.0
H1853 H 0.29352 0.10121 0.85223 0.0
C1854 C 0.79391 0.20244 0.88705 0.0
C1855 C 0.81875 0.20813 0.90837 0.0
C1856 C 0.85435 0.18481 0.88222 0.0
C1857 C 0.8264 0.17436 0.86225 0.0
N1858 N 0.76672 0.16937 0.84673 0.0
N1859 N 0.86881 0.19889 0.92758 0.0
C1860 C 0.79549 0.18235 0.86487 0.0
C1861 C 0.84811 0.19791 0.90626 0.0
N1862 N 0.76949 0.21708 0.88772 0.0
N1863 N 0.88723 0.18262 0.87803 0.0
H1864 H 0.86434 0.20713 0.94572 0.0
H1865 H 0.88767 0.18803 0.92787 0.0
H1866 H 0.89285 0.17351 0.86055 0.0
H1867 H 0.91055 0.19334 0.89082 0.0
H1868 H 0.75364 0.21736 0.87182 0.0
H1869 H 0.76762 0.23195 0.90355 0.0
H1870 H 0.74112 0.17033 0.84903 0.0
H1871 H 0.76712 0.15514 0.8301 0.0
C1872 C 0.32224 0.15358 0.46615 0.0
C1873 C 0.28296 0.12367 0.46478 0.0
C1874 C 0.28765 0.10489 0.50898 0.0
C1875 C 0.32576 0.1366 0.51104 0.0
N1876 N 0.37546 0.19544 0.49462 0.0
N1877 N 0.22549 0.07711 0.48709 0.0
C1878 C 0.34173 0.16238 0.49035 0.0
C1879 C 0.26476 0.10139 0.48698 0.0
N1880 N 0.34179 0.17174 0.44423 0.0
N1881 N 0.2741 0.07689 0.52714 0.0
H1882 H 0.20777 0.07445 0.47146 0.0
H1883 H 0.21015 0.06269 0.50353 0.0
H1884 H 0.29068 0.0773 0.54284 0.0
H1885 H 0.24803 0.05141 0.52517 0.0
H1886 H 0.37168 0.19042 0.44373 0.0
H1887 H 0.32911 0.16549 0.426 0.0
H1888 H 0.38826 0.21764 0.48141 0.0
H1889 H 0.38826 0.21764 0.48141 0.0
C1890 C 0.87777 0.13127 0.48407 0.0
C1891 C 0.8859 0.158 0.46405 0.0
C1892 C 0.86372 0.19216 0.49219 0.0
C1893 C 0.85066 0.16269 0.51073 0.0
N1894 N 0.83927 0.10044 0.52204 0.0
N1895 N 0.87865 0.2095 0.44732 0.0
C1896 C 0.85612 0.1312 0.5061 0.0
C1897 C 0.87672 0.1873 0.46764 0.0
N1898 N 0.89177 0.1067 0.48251 0.0
N1899 N 0.86468 0.22531 0.49824 0.0
H1900 H 0.8864 0.20592 0.42874 0.0
H1901 H 0.86858 0.22873 0.44829 0.0
H1902 H 0.85641 0.23036 0.51626 0.0
H1903 H 0.87749 0.24912 0.48638 0.0
H1904 H 0.89011 0.08924 0.49769 0.0
H1905 H 0.90841 0.10638 0.46701 0.0
H1906 H 0.83881 0.07513 0.51801 0.0
H1907 H 0.8226 0.09885 0.53807 0.0
C1908 C 0.819 0.70231 0.45959 0.0
C1909 C 0.85512 0.73634 0.45634 0.0
C1910 C 0.87397 0.72735 0.49995 0.0
C1911 C 0.83585 0.69621 0.50418 0.0
N1912 N 0.76911 0.6617 0.48974 0.0
N1913 N 0.91398 0.78533 0.47608 0.0
C1914 C 0.80747 0.68611 0.48451 0.0
C1915 C 0.88183 0.75009 0.4773 0.0
N1916 N 0.79625 0.68436 0.43869 0.0
N1917 N 0.90318 0.73438 0.51686 0.0
H1918 H 0.92024 0.80316 0.46023 0.0
H1919 H 0.93229 0.79818 0.49178 0.0
H1920 H 0.89902 0.71793 0.5332 0.0
H1921 H 0.93222 0.75429 0.51333 0.0
H1922 H 0.77127 0.65779 0.43984 0.0
H1923 H 0.80479 0.6938 0.41986 0.0
H1924 H 0.74695 0.65606 0.47664 0.0
H1925 H 0.75914 0.6506 0.50809 0.0
loop_
_geom_bond_atom_site_label_1
_geom_bond_atom_site_label_2
_geom_bond_distance
_geom_bond_site_symmetry_2
_ccdc_geom_bond_type
H0 C3 0.929 . S
H1 C6 0.929 . S
H2 C8 0.930 . S
C3 H0 0.929 . S
C3 C4 1.398 . S
C3 C5 1.396 . S
C4 C3 1.398 . S
C4 C8 1.407 . S
C5 C3 1.396 . S
C5 C6 1.394 . S
C6 H1 0.929 . S
C6 C5 1.394 . S
C6 C7 1.382 . S
C7 C6 1.382 . S
C7 C8 1.392 . S
C7 N9 1.420 . S
C8 H2 0.930 . S
C8 C4 1.407 . S
C8 C7 1.392 . S
N9 C7 1.420 . S
N9 C10 1.244 . S
C10 N9 1.244 . S
H11 C14 0.929 . S
H12 C17 0.929 . S
H13 C19 0.930 . S
C14 H11 0.929 . S
C14 C15 1.398 . S
C14 C16 1.396 . S
C15 C14 1.398 . S
C15 C19 1.407 . S
C16 C14 1.396 . S
C16 C17 1.394 . S
C17 H12 0.929 . S
C17 C16 1.394 . S
C17 C18 1.382 . S
C18 C17 1.382 . S
C18 C19 1.392 . S
C18 N20 1.420 . S
C19 H13 0.930 . S
C19 C15 1.407 . S
C19 C18 1.392 . S
N20 C18 1.420 . S
N20 C21 1.244 . S
C21 N20 1.244 . S
H22 C25 0.929 . S
H23 C28 0.929 . S
H24 C30 0.930 . S
C25 H22 0.929 . S
C25 C26 1.398 . S
C25 C27 1.396 . S
C26 C25 1.398 . S
C26 C30 1.407 . S
C27 C25 1.396 . S
C27 C28 1.394 . S
C28 H23 0.929 . S
C28 C27 1.394 . S
C28 C29 1.382 . S
C29 C28 1.382 . S
C29 C30 1.392 . S
C29 N31 1.420 . S
C30 H24 0.930 . S
C30 C26 1.407 . S
C30 C29 1.392 . S
N31 C29 1.420 . S
N31 C32 1.244 . S
C32 N31 1.244 . S
H33 C36 0.929 . S
H34 C39 0.929 . S
H35 C41 0.930 . S
C36 H33 0.929 . S
C36 C37 1.398 . S
C36 C38 1.396 . S
C37 C36 1.398 . S
C37 C41 1.407 . S
C38 C36 1.396 . S
C38 C39 1.394 . S
C39 H34 0.929 . S
C39 C38 1.394 . S
C39 C40 1.382 . S
C40 C39 1.382 . S
C40 C41 1.392 . S
C40 N42 1.420 . S
C41 H35 0.930 . S
C41 C37 1.407 . S
C41 C40 1.392 . S
N42 C40 1.420 . S
N42 C43 1.244 . S
C43 N42 1.244 . S
H44 C47 0.929 . S
H45 C50 0.929 . S
H46 C52 0.930 . S
C47 H44 0.929 . S
C47 C48 1.398 . S
C47 C49 1.396 . S
C48 C47 1.398 . S
C48 C52 1.407 . S
C49 C47 1.396 . S
C49 C50 1.394 . S
C50 H45 0.929 . S
C50 C49 1.394 . S
C50 C51 1.382 . S
C51 C50 1.382 . S
C51 C52 1.392 . S
C51 N53 1.420 . S
C52 H46 0.930 . S
C52 C48 1.407 . S
C52 C51 1.392 . S
N53 C51 1.420 . S
N53 C54 1.244 . S
C54 N53 1.244 . S
H55 C58 0.929 . S
H56 C61 0.929 . S
H57 C63 0.930 . S
C58 H55 0.929 . S
C58 C59 1.398 . S
C58 C60 1.396 . S
C59 C58 1.398 . S
C59 C63 1.407 . S
C60 C58 1.396 . S
C60 C61 1.394 . S
C61 H56 0.929 . S
C61 C60 1.394 . S
C61 C62 1.382 . S
C62 C61 1.382 . S
C62 C63 1.392 . S
C62 N64 1.420 . S
C63 H57 0.930 . S
C63 C59 1.407 . S
C63 C62 1.392 . S
N64 C62 1.420 . S
N64 C65 1.244 . S
C65 N64 1.244 . S
H66 C69 0.929 . S
H67 C72 0.929 . S
H68 C74 0.930 . S
C69 H66 0.929 . S
C69 C70 1.398 . S
C69 C71 1.396 . S
C70 C69 1.398 . S
C70 C74 1.407 . S
C71 C69 1.396 . S
C71 C72 1.394 . S
C72 H67 0.929 . S
C72 C71 1.394 . S
C72 C73 1.382 . S
C73 C72 1.382 . S
C73 C74 1.392 . S
C73 N75 1.420 . S
C74 H68 0.930 . S
C74 C70 1.407 . S
C74 C73 1.392 . S
N75 C73 1.420 . S
N75 C76 1.244 . S
C76 N75 1.244 . S
H77 C80 0.929 . S
H78 C83 0.929 . S
H79 C85 0.930 . S
C80 H77 0.929 . S
C80 C81 1.398 . S
C80 C82 1.396 . S
C81 C80 1.398 . S
C81 C85 1.407 . S
C82 C80 1.396 . S
C82 C83 1.394 . S
C83 H78 0.929 . S
C83 C82 1.394 . S
C83 C84 1.382 . S
C84 C83 1.382 . S
C84 C85 1.392 . S
C84 N86 1.420 . S
C85 H79 0.930 . S
C85 C81 1.407 . S
C85 C84 1.392 . S
N86 C84 1.420 . S
N86 C87 1.244 . S
C87 N86 1.244 . S
H88 C91 0.929 . S
H89 C94 0.929 . S
H90 C96 0.930 . S
C91 H88 0.929 . S
C91 C92 1.398 . S
C91 C93 1.396 . S
C92 C91 1.398 . S
C92 C96 1.407 . S
C93 C91 1.396 . S
C93 C94 1.394 . S
C94 H89 0.929 . S
C94 C93 1.394 . S
C94 C95 1.382 . S
C95 C94 1.382 . S
C95 C96 1.392 . S
C95 N97 1.420 . S
C96 H90 0.930 . S
C96 C92 1.407 . S
C96 C95 1.392 . S
N97 C95 1.420 . S
N97 C98 1.244 . S
C98 N97 1.244 . S
H99 C102 0.929 . S
H100 C105 0.929 . S
H101 C107 0.930 . S
C102 H99 0.929 . S
C102 C103 1.398 . S
C102 C104 1.396 . S
C103 C102 1.398 . S
C103 C107 1.407 . S
C104 C102 1.396 . S
C104 C105 1.394 . S
C105 H100 0.929 . S
C105 C104 1.394 . S
C105 C106 1.382 . S
C106 C105 1.382 . S
C106 C107 1.392 . S
C106 N108 1.420 . S
C107 H101 0.930 . S
C107 C103 1.407 . S
C107 C106 1.392 . S
N108 C106 1.420 . S
N108 C109 1.244 . S
C109 N108 1.244 . S
H110 C113 0.929 . S
H111 C116 0.929 . S
H112 C118 0.930 . S
C113 H110 0.929 . S
C113 C114 1.398 . S
C113 C115 1.396 . S
C114 C113 1.398 . S
C114 C118 1.407 . S
C115 C113 1.396 . S
C115 C116 1.394 . S
C116 H111 0.929 . S
C116 C115 1.394 . S
C116 C117 1.382 . S
C117 C116 1.382 . S
C117 C118 1.392 . S
C117 N119 1.420 . S
C118 H112 0.930 . S
C118 C114 1.407 . S
C118 C117 1.392 . S
N119 C117 1.420 . S
N119 C120 1.244 . S
C120 N119 1.244 . S
H121 C124 0.929 . S
H122 C127 0.929 . S
H123 C129 0.930 . S
C124 H121 0.929 . S
C124 C125 1.398 . S
C124 C126 1.396 . S
C125 C124 1.398 . S
C125 C129 1.407 . S
C126 C124 1.396 . S
C126 C127 1.394 . S
C127 H122 0.929 . S
C127 C126 1.394 . S
C127 C128 1.382 . S
C128 C127 1.382 . S
C128 C129 1.392 . S
C128 N130 1.420 . S
C129 H123 0.930 . S
C129 C125 1.407 . S
C129 C128 1.392 . S
N130 C128 1.420 . S
N130 C131 1.244 . S
C131 N130 1.244 . S
H132 C135 0.929 . S
H133 C138 0.929 . S
H134 C140 0.930 . S
C135 H132 0.929 . S
C135 C136 1.398 . S
C135 C137 1.396 . S
C136 C135 1.398 . S
C136 C140 1.407 . S
C137 C135 1.396 . S
C137 C138 1.394 . S
C138 H133 0.929 . S
C138 C137 1.394 . S
C138 C139 1.382 . S
C139 C138 1.382 . S
C139 C140 1.392 . S
C139 N141 1.420 . S
C140 H134 0.930 . S
C140 C136 1.407 . S
C140 C139 1.392 . S
N141 C139 1.420 . S
N141 C142 1.244 . S
C142 N141 1.244 . S
H143 C146 0.929 . S
H144 C149 0.929 . S
H145 C151 0.930 . S
C146 H143 0.929 . S
C146 C147 1.398 . S
C146 C148 1.396 . S
C147 C146 1.398 . S
C147 C151 1.407 . S
C148 C146 1.396 . S
C148 C149 1.394 . S
C149 H144 0.929 . S
C149 C148 1.394 . S
C149 C150 1.382 . S
C150 C149 1.382 . S
C150 C151 1.392 . S
C150 N152 1.420 . S
C151 H145 0.930 . S
C151 C147 1.407 . S
C151 C150 1.392 . S
N152 C150 1.420 . S
N152 C153 1.244 . S
C153 N152 1.244 . S
H154 C157 0.929 . S
H155 C160 0.929 . S
H156 C162 0.930 . S
C157 H154 0.929 . S
C157 C158 1.398 . S
C157 C159 1.396 . S
C158 C157 1.398 . S
C158 C162 1.407 . S
C159 C157 1.396 . S
C159 C160 1.394 . S
C160 H155 0.929 . S
C160 C159 1.394 . S
C160 C161 1.382 . S
C161 C160 1.382 . S
C161 C162 1.392 . S
C161 N163 1.420 . S
C162 H156 0.930 . S
C162 C158 1.407 . S
C162 C161 1.392 . S
N163 C161 1.420 . S
N163 C164 1.244 . S
C164 N163 1.244 . S
H165 C168 0.929 . S
H166 C171 0.929 . S
H167 C173 0.930 . S
C168 H165 0.929 . S
C168 C169 1.398 . S
C168 C170 1.396 . S
C169 C168 1.398 . S
C169 C173 1.407 . S
C170 C168 1.396 . S
C170 C171 1.394 . S
C171 H166 0.929 . S
C171 C170 1.394 . S
C171 C172 1.382 . S
C172 C171 1.382 . S
C172 C173 1.392 . S
C172 N174 1.420 . S
C173 H167 0.930 . S
C173 C169 1.407 . S
C173 C172 1.392 . S
N174 C172 1.420 . S
N174 C175 1.244 . S
C175 N174 1.244 . S
H176 C179 0.929 . S
H177 C182 0.929 . S
H178 C184 0.930 . S
C179 H176 0.929 . S
C179 C180 1.398 . S
C179 C181 1.396 . S
C180 C179 1.398 . S
C180 C184 1.407 . S
C181 C179 1.396 . S
C181 C182 1.394 . S
C182 H177 0.929 . S
C182 C181 1.394 . S
C182 C183 1.382 . S
C183 C182 1.382 . S
C183 C184 1.392 . S
C183 N185 1.420 . S
C184 H178 0.930 . S
C184 C180 1.407 . S
C184 C183 1.392 . S
N185 C183 1.420 . S
N185 C186 1.244 . S
C186 N185 1.244 . S
H187 C190 0.929 . S
H188 C193 0.929 . S
H189 C195 0.930 . S
C190 H187 0.929 . S
C190 C191 1.398 . S
C190 C192 1.396 . S
C191 C190 1.398 . S
C191 C195 1.407 . S
C192 C190 1.396 . S
C192 C193 1.394 . S
C193 H188 0.929 . S
C193 C192 1.394 . S
C193 C194 1.382 . S
C194 C193 1.382 . S
C194 C195 1.392 . S
C194 N196 1.420 . S
C195 H189 0.930 . S
C195 C191 1.407 . S
C195 C194 1.392 . S
N196 C194 1.420 . S
N196 C197 1.244 . S
C197 N196 1.244 . S
Eu198 N229 2.657 . S
Eu198 N236 2.609 . S
Eu198 O242 2.558 . S
Eu198 O243 2.612 1_566 S
Eu198 O245 2.339 1_565 S
Eu198 O246 2.563 1_565 S
Eu198 O247 2.419 1_565 S
Eu198 O249 2.380 1_556 S
Eu198 O250 2.432 . S
Eu198 C262 2.848 . S
C199 C202 1.429 . S
C199 C203 1.411 . S
C199 N206 1.377 . S
C200 C202 1.420 . S
C200 C204 1.423 . S
C200 C212 1.392 . S
C201 C203 1.420 . S
C201 C204 1.351 . S
C201 H224 0.931 . S
C202 C199 1.429 . S
C202 C200 1.420 . S
C202 N210 1.362 . S
C203 C199 1.411 . S
C203 C201 1.420 . S
C203 C208 1.395 . S
C204 C200 1.423 . S
C204 C201 1.351 . S
C204 H216 0.930 . S
C205 C207 1.400 . S
C205 C208 1.386 . S
C205 H217 0.930 . S
N206 C199 1.377 . S
N206 C207 1.321 . S
N206 Eu209 2.609 . S
C207 C205 1.400 . S
C207 N206 1.321 . S
C207 H214 0.930 . S
C208 C203 1.395 . S
C208 C205 1.386 . S
C208 H227 0.930 . S
Eu209 N206 2.609 . S
Eu209 N210 2.657 . S
Eu209 O243 2.380 . S
Eu209 O244 2.432 . S
Eu209 O248 2.558 . S
Eu209 O249 2.612 1_545 S
Eu209 O251 2.339 1_545 S
Eu209 O252 2.563 1_545 S
Eu209 O253 2.419 1_545 S
Eu209 C273 2.848 . S
N210 C202 1.362 . S
N210 Eu209 2.657 . S
N210 C211 1.334 . S
C211 N210 1.334 . S
C211 C213 1.413 . S
C211 H218 0.929 . S
C212 C200 1.392 . S
C212 C213 1.367 . S
C212 H220 0.930 . S
C213 C211 1.413 . S
C213 C212 1.367 . S
C213 H215 0.930 . S
H214 C207 0.930 . S
H215 C213 0.930 . S
H216 C204 0.930 . S
H217 C205 0.930 . S
H218 C211 0.929 . S
H219 C233 0.930 . S
H220 C212 0.930 . S
H221 C239 0.930 . S
H222 C230 0.929 . S
H223 C237 0.930 . S
H224 C201 0.931 . S
H225 C231 0.930 . S
H226 C264 0.930 . S
H227 C208 0.930 . S
H228 C263 0.931 . S
N229 Eu198 2.657 . S
N229 C230 1.334 . S
N229 C234 1.362 . S
C230 H222 0.929 . S
C230 N229 1.334 . S
C230 C233 1.413 . S
C231 H225 0.930 . S
C231 C232 1.392 . S
C231 C233 1.367 . S
C232 C231 1.392 . S
C232 C234 1.420 . S
C232 C264 1.423 . S
C233 H219 0.930 . S
C233 C230 1.413 . S
C233 C231 1.367 . S
C234 N229 1.362 . S
C234 C232 1.420 . S
C234 C238 1.429 . S
H235 C240 0.930 . S
N236 Eu198 2.609 . S
N236 C238 1.377 . S
N236 C239 1.321 . S
C237 H223 0.930 . S
C237 C239 1.400 . S
C237 C240 1.386 . S
C238 C234 1.429 . S
C238 N236 1.377 . S
C238 C241 1.411 . S
C239 H221 0.930 . S
C239 N236 1.321 . S
C239 C237 1.400 . S
C240 H235 0.930 . S
C240 C237 1.386 . S
C240 C241 1.395 . S
C241 C238 1.411 . S
C241 C240 1.395 . S
C241 C263 1.420 . S
O242 Eu198 2.558 . S
O242 C262 1.257 . S
O243 Eu198 2.612 1_544 S
O243 Eu209 2.380 . S
O243 C254 1.276 1_554 S
O244 Eu209 2.432 . S
O244 C261 1.264 1_554 S
O245 Eu198 2.339 1_545 S
O245 C261 1.254 . S
O246 Eu198 2.563 1_545 S
O246 C254 1.235 . S
O247 Eu198 2.419 1_545 S
O247 C262 1.249 1_545 S
O248 Eu209 2.558 . S
O248 C273 1.257 . S
O249 Eu198 2.380 1_554 S
O249 Eu209 2.612 1_565 S
O249 C265 1.276 . S
O250 Eu198 2.432 . S
O250 C272 1.264 1_556 S
O251 Eu209 2.339 1_565 S
O251 C272 1.254 . S
O252 Eu209 2.563 1_565 S
O252 C265 1.235 . S
O253 Eu209 2.419 1_565 S
O253 C273 1.249 1_565 S
C254 O243 1.276 1_556 S
C254 O246 1.235 . S
C255 C257 1.393 . S
C255 C259 1.395 1_545 S
C255 C262 1.492 1_545 S
C256 C257 1.392 . S
C256 C258 1.386 . S
C257 C255 1.393 . S
C257 C256 1.392 . S
C257 H274 0.930 . S
C258 C256 1.386 . S
C258 C260 1.395 1_545 S
C258 H275 0.930 . S
C259 C255 1.395 1_565 S
C259 C260 1.379 . S
C259 H276 0.930 . S
C260 C258 1.395 1_565 S
C260 C259 1.379 . S
C260 H277 0.930 . S
C261 O244 1.264 1_556 S
C261 O245 1.254 . S
C262 Eu198 2.848 . S
C262 O242 1.257 . S
C262 O247 1.249 1_565 S
C262 C255 1.492 1_565 S
C263 H228 0.931 . S
C263 C241 1.420 . S
C263 C264 1.351 . S
C264 H226 0.930 . S
C264 C232 1.423 . S
C264 C263 1.351 . S
C265 O249 1.276 . S
C265 O252 1.235 . S
C266 C267 1.393 1_545 S
C266 C270 1.395 . S
C266 C273 1.492 . S
C267 C266 1.393 1_565 S
C267 C268 1.392 . S
C267 H278 0.930 . S
C268 C267 1.392 . S
C268 C269 1.386 . S
C269 C268 1.386 . S
C269 C271 1.395 1_565 S
C269 H279 0.930 . S
C270 C266 1.395 . S
C270 C271 1.379 . S
C270 H280 0.930 . S
C271 C269 1.395 1_545 S
C271 C270 1.379 . S
C271 H281 0.930 . S
C272 O250 1.264 1_554 S
C272 O251 1.254 . S
C273 Eu209 2.848 . S
C273 O248 1.257 . S
C273 O253 1.249 1_545 S
C273 C266 1.492 . S
H274 C257 0.930 . S
H275 C258 0.930 . S
H276 C259 0.930 . S
H277 C260 0.930 . S
H278 C267 0.930 . S
H279 C269 0.930 . S
H280 C270 0.930 . S
H281 C271 0.930 . S
Eu282 N313 2.657 . S
Eu282 N320 2.609 . S
Eu282 O326 2.558 . S
Eu282 O327 2.612 1_456 S
Eu282 O329 2.339 1_455 S
Eu282 O330 2.563 1_455 S
Eu282 O331 2.419 1_455 S
Eu282 O333 2.380 1_556 S
Eu282 O334 2.432 . S
Eu282 C346 2.848 . S
C283 C286 1.429 . S
C283 C287 1.411 . S
C283 N290 1.377 . S
C284 C286 1.420 . S
C284 C288 1.423 . S
C284 C296 1.392 . S
C285 C287 1.420 . S
C285 C288 1.351 . S
C285 H308 0.931 . S
C286 C283 1.429 . S
C286 C284 1.420 . S
C286 N294 1.362 . S
C287 C283 1.411 . S
C287 C285 1.420 . S
C287 C292 1.395 . S
C288 C284 1.423 . S
C288 C285 1.351 . S
C288 H300 0.930 . S
C289 C291 1.400 . S
C289 C292 1.386 . S
C289 H301 0.930 . S
N290 C283 1.377 . S
N290 C291 1.321 . S
N290 Eu293 2.609 . S
C291 C289 1.400 . S
C291 N290 1.321 . S
C291 H298 0.930 . S
C292 C287 1.395 . S
C292 C289 1.386 . S
C292 H311 0.930 . S
Eu293 N290 2.609 . S
Eu293 N294 2.657 . S
Eu293 O327 2.380 . S
Eu293 O328 2.432 . S
Eu293 O332 2.558 . S
Eu293 O333 2.612 1_655 S
Eu293 O335 2.339 1_655 S
Eu293 O336 2.563 1_655 S
Eu293 O337 2.419 1_655 S
Eu293 C357 2.848 . S
N294 C286 1.362 . S
N294 Eu293 2.657 . S
N294 C295 1.334 . S
C295 N294 1.334 . S
C295 C297 1.413 . S
C295 H302 0.929 . S
C296 C284 1.392 . S
C296 C297 1.367 . S
C296 H304 0.930 . S
C297 C295 1.413 . S
C297 C296 1.367 . S
C297 H299 0.930 . S
H298 C291 0.930 . S
H299 C297 0.930 . S
H300 C288 0.930 . S
H301 C289 0.930 . S
H302 C295 0.929 . S
H303 C317 0.930 . S
H304 C296 0.930 . S
H305 C323 0.930 . S
H306 C314 0.929 . S
H307 C321 0.930 . S
H308 C285 0.931 . S
H309 C315 0.930 . S
H310 C348 0.930 . S
H311 C292 0.930 . S
H312 C347 0.931 . S
N313 Eu282 2.657 . S
N313 C314 1.334 . S
N313 C318 1.362 . S
C314 H306 0.929 . S
C314 N313 1.334 . S
C314 C317 1.413 . S
C315 H309 0.930 . S
C315 C316 1.392 . S
C315 C317 1.367 . S
C316 C315 1.392 . S
C316 C318 1.420 . S
C316 C348 1.423 . S
C317 H303 0.930 . S
C317 C314 1.413 . S
C317 C315 1.367 . S
C318 N313 1.362 . S
C318 C316 1.420 . S
C318 C322 1.429 . S
H319 C324 0.930 . S
N320 Eu282 2.609 . S
N320 C322 1.377 . S
N320 C323 1.321 . S
C321 H307 0.930 . S
C321 C323 1.400 . S
C321 C324 1.386 . S
C322 C318 1.429 . S
C322 N320 1.377 . S
C322 C325 1.411 . S
C323 H305 0.930 . S
C323 N320 1.321 . S
C323 C321 1.400 . S
C324 H319 0.930 . S
C324 C321 1.386 . S
C324 C325 1.395 . S
C325 C322 1.411 . S
C325 C324 1.395 . S
C325 C347 1.420 . S
O326 Eu282 2.558 . S
O326 C346 1.257 . S
O327 Eu282 2.612 1_654 S
O327 Eu293 2.380 . S
O327 C338 1.276 1_554 S
O328 Eu293 2.432 . S
O328 C345 1.264 1_554 S
O329 Eu282 2.339 1_655 S
O329 C345 1.254 . S
O330 Eu282 2.563 1_655 S
O330 C338 1.235 . S
O331 Eu282 2.419 1_655 S
O331 C346 1.249 1_655 S
O332 Eu293 2.558 . S
O332 C357 1.257 . S
O333 Eu282 2.380 1_554 S
O333 Eu293 2.612 1_455 S
O333 C349 1.276 . S
O334 Eu282 2.432 . S
O334 C356 1.264 1_556 S
O335 Eu293 2.339 1_455 S
O335 C356 1.254 . S
O336 Eu293 2.563 1_455 S
O336 C349 1.235 . S
O337 Eu293 2.419 1_455 S
O337 C357 1.249 1_455 S
C338 O327 1.276 1_556 S
C338 O330 1.235 . S
C339 C341 1.393 1_455 S
C339 C343 1.395 . S
C339 C346 1.492 . S
C340 C341 1.392 . S
C340 C342 1.386 . S
C341 C339 1.393 1_655 S
C341 C340 1.392 . S
C341 H358 0.930 . S
C342 C340 1.386 . S
C342 C344 1.395 1_655 S
C342 H359 0.930 . S
C343 C339 1.395 . S
C343 C344 1.379 . S
C343 H360 0.930 . S
C344 C342 1.395 1_455 S
C344 C343 1.379 . S
C344 H361 0.930 . S
C345 O328 1.264 1_556 S
C345 O329 1.254 . S
C346 Eu282 2.848 . S
C346 O326 1.257 . S
C346 O331 1.249 1_455 S
C346 C339 1.492 . S
C347 H312 0.931 . S
C347 C325 1.420 . S
C347 C348 1.351 . S
C348 H310 0.930 . S
C348 C316 1.423 . S
C348 C347 1.351 . S
C349 O333 1.276 . S
C349 O336 1.235 . S
C350 C351 1.407 . S
C350 C354 1.387 1_455 S
C350 C357 1.486 1_455 S
C351 C350 1.407 . S
C351 C352 1.392 . S
C351 H362 0.930 . S
C352 C351 1.392 . S
C352 C353 1.386 . S
C353 C352 1.386 . S
C353 C355 1.395 1_455 S
C353 H363 0.930 . S
C354 C350 1.387 1_655 S
C354 C355 1.379 . S
C354 H364 0.930 . S
C355 C353 1.395 1_655 S
C355 C354 1.379 . S
C355 H365 0.930 . S
C356 O334 1.264 1_554 S
C356 O335 1.254 . S
C357 Eu293 2.848 . S
C357 O332 1.257 . S
C357 O337 1.249 1_655 S
C357 C350 1.486 1_655 S
H358 C341 0.930 . S
H359 C342 0.930 . S
H360 C343 0.930 . S
H361 C344 0.930 . S
H362 C351 0.930 . S
H363 C353 0.930 . S
H364 C354 0.930 . S
H365 C355 0.930 . S
Eu366 N397 2.657 . S
Eu366 N404 2.609 . S
Eu366 O410 2.558 . S
Eu366 O411 2.612 . S
Eu366 O413 2.339 . S
Eu366 O414 2.563 . S
Eu366 O415 2.419 . S
Eu366 O417 2.380 . S
Eu366 O418 2.432 . S
Eu366 C430 2.848 . S
C367 C370 1.429 . S
C367 C371 1.411 . S
C367 N374 1.377 . S
C368 C370 1.420 . S
C368 C372 1.423 . S
C368 C380 1.392 . S
C369 C371 1.420 . S
C369 C372 1.351 . S
C369 H392 0.931 . S
C370 C367 1.429 . S
C370 C368 1.420 . S
C370 N378 1.362 . S
C371 C367 1.411 . S
C371 C369 1.420 . S
C371 C376 1.395 . S
C372 C368 1.423 . S
C372 C369 1.351 . S
C372 H384 0.930 . S
C373 C375 1.400 . S
C373 C376 1.386 . S
C373 H385 0.930 . S
N374 C367 1.377 . S
N374 C375 1.321 . S
N374 Eu377 2.609 . S
C375 C373 1.400 . S
C375 N374 1.321 . S
C375 H382 0.930 . S
C376 C371 1.395 . S
C376 C373 1.386 . S
C376 H395 0.930 . S
Eu377 N374 2.609 . S
Eu377 N378 2.657 . S
Eu377 O411 2.380 1_556 S
Eu377 O412 2.432 . S
Eu377 O416 2.558 . S
Eu377 O417 2.612 1_556 S
Eu377 O419 2.339 . S
Eu377 O420 2.563 . S
Eu377 O421 2.419 . S
Eu377 C441 2.848 . S
N378 C370 1.362 . S
N378 Eu377 2.657 . S
N378 C379 1.334 . S
C379 N378 1.334 . S
C379 C381 1.413 . S
C379 H386 0.929 . S
C380 C368 1.392 . S
C380 C381 1.367 . S
C380 H388 0.930 . S
C381 C379 1.413 . S
C381 C380 1.367 . S
C381 H383 0.930 . S
H382 C375 0.930 . S
H383 C381 0.930 . S
H384 C372 0.930 . S
H385 C373 0.930 . S
H386 C379 0.929 . S
H387 C401 0.930 . S
H388 C380 0.930 . S
H389 C407 0.930 . S
H390 C398 0.929 . S
H391 C405 0.930 . S
H392 C369 0.931 . S
H393 C399 0.930 . S
H394 C432 0.930 . S
H395 C376 0.930 . S
H396 C431 0.931 . S
N397 Eu366 2.657 . S
N397 C398 1.334 . S
N397 C402 1.362 . S
C398 H390 0.929 . S
C398 N397 1.334 . S
C398 C401 1.413 . S
C399 H393 0.930 . S
C399 C400 1.392 . S
C399 C401 1.367 . S
C400 C399 1.392 . S
C400 C402 1.420 . S
C400 C432 1.423 . S
C401 H387 0.930 . S
C401 C398 1.413 . S
C401 C399 1.367 . S
C402 N397 1.362 . S
C402 C400 1.420 . S
C402 C406 1.429 . S
H403 C408 0.930 . S
N404 Eu366 2.609 . S
N404 C406 1.377 . S
N404 C407 1.321 . S
C405 H391 0.930 . S
C405 C407 1.400 . S
C405 C408 1.386 . S
C406 C402 1.429 . S
C406 N404 1.377 . S
C406 C409 1.411 . S
C407 H389 0.930 . S
C407 N404 1.321 . S
C407 C405 1.400 . S
C408 H403 0.930 . S
C408 C405 1.386 . S
C408 C409 1.395 . S
C409 C406 1.411 . S
C409 C408 1.395 . S
C409 C431 1.420 . S
O410 Eu366 2.558 . S
O410 C430 1.257 . S
O411 Eu366 2.612 . S
O411 Eu377 2.380 1_554 S
O411 C422 1.276 . S
O412 Eu377 2.432 . S
O412 C429 1.264 1_556 S
O413 Eu366 2.339 . S
O413 C429 1.254 . S
O414 Eu366 2.563 . S
O414 C422 1.235 . S
O415 Eu366 2.419 . S
O415 C430 1.249 . S
O416 Eu377 2.558 . S
O416 C441 1.257 . S
O417 Eu366 2.380 . S
O417 Eu377 2.612 1_554 S
O417 C433 1.276 1_554 S
O418 Eu366 2.432 . S
O418 C440 1.264 1_554 S
O419 Eu377 2.339 . S
O419 C440 1.254 . S
O420 Eu377 2.563 . S
O420 C433 1.235 . S
O421 Eu377 2.419 . S
O421 C441 1.249 . S
C422 O411 1.276 . S
C422 O414 1.235 . S
C423 C425 1.393 . S
C423 C427 1.395 . S
C423 C430 1.492 . S
C424 C425 1.392 . S
C424 C426 1.386 . S
C425 C423 1.393 . S
C425 C424 1.392 . S
C425 H442 0.930 . S
C426 C424 1.386 . S
C426 C428 1.395 . S
C426 H443 0.930 . S
C427 C423 1.395 . S
C427 C428 1.379 . S
C427 H444 0.930 . S
C428 C426 1.395 . S
C428 C427 1.379 . S
C428 H445 0.930 . S
C429 O412 1.264 1_554 S
C429 O413 1.254 . S
C430 Eu366 2.848 . S
C430 O410 1.257 . S
C430 O415 1.249 . S
C430 C423 1.492 . S
C431 H396 0.931 . S
C431 C409 1.420 . S
C431 C432 1.351 . S
C432 H394 0.930 . S
C432 C400 1.423 . S
C432 C431 1.351 . S
C433 O417 1.276 1_556 S
C433 O420 1.235 . S
C434 C435 1.393 . S
C434 C438 1.395 . S
C434 C441 1.492 . S
C435 C434 1.393 . S
C435 C436 1.392 . S
C435 H446 0.930 . S
C436 C435 1.392 . S
C436 C437 1.386 . S
C437 C436 1.386 . S
C437 C439 1.395 . S
C437 H447 0.930 . S
C438 C434 1.395 . S
C438 C439 1.379 . S
C438 H448 0.930 . S
C439 C437 1.395 . S
C439 C438 1.379 . S
C439 H449 0.930 . S
C440 O418 1.264 1_556 S
C440 O419 1.254 . S
C441 Eu377 2.848 . S
C441 O416 1.257 . S
C441 O421 1.249 . S
C441 C434 1.492 . S
H442 C425 0.930 . S
H443 C426 0.930 . S
H444 C427 0.930 . S
H445 C428 0.930 . S
H446 C435 0.930 . S
H447 C437 0.930 . S
H448 C438 0.930 . S
H449 C439 0.930 . S
Eu450 N481 2.657 . S
Eu450 N488 2.609 . S
Eu450 O494 2.558 . S
Eu450 O495 2.612 . S
Eu450 O497 2.339 . S
Eu450 O498 2.563 . S
Eu450 O499 2.419 . S
Eu450 O501 2.380 . S
Eu450 O502 2.432 . S
Eu450 C514 2.848 . S
C451 C454 1.429 . S
C451 C455 1.411 . S
C451 N458 1.377 . S
C452 C454 1.420 . S
C452 C456 1.423 . S
C452 C464 1.392 . S
C453 C455 1.420 . S
C453 C456 1.351 . S
C453 H476 0.931 . S
C454 C451 1.429 . S
C454 C452 1.420 . S
C454 N462 1.362 . S
C455 C451 1.411 . S
C455 C453 1.420 . S
C455 C460 1.395 . S
C456 C452 1.423 . S
C456 C453 1.351 . S
C456 H468 0.930 . S
C457 C459 1.400 . S
C457 C460 1.386 . S
C457 H469 0.930 . S
N458 C451 1.377 . S
N458 C459 1.321 . S
N458 Eu461 2.609 . S
C459 C457 1.400 . S
C459 N458 1.321 . S
C459 H466 0.930 . S
C460 C455 1.395 . S
C460 C457 1.386 . S
C460 H479 0.930 . S
Eu461 N458 2.609 . S
Eu461 N462 2.657 . S
Eu461 O495 2.380 . S
Eu461 O496 2.432 . S
Eu461 O500 2.558 . S
Eu461 O501 2.612 . S
Eu461 O503 2.339 . S
Eu461 O504 2.563 . S
Eu461 O505 2.419 . S
Eu461 C525 2.848 . S
N462 C454 1.362 . S
N462 Eu461 2.657 . S
N462 C463 1.334 . S
C463 N462 1.334 . S
C463 C465 1.413 . S
C463 H470 0.929 . S
C464 C452 1.392 . S
C464 C465 1.367 . S
C464 H472 0.930 . S
C465 C463 1.413 . S
C465 C464 1.367 . S
C465 H467 0.930 . S
H466 C459 0.930 . S
H467 C465 0.930 . S
H468 C456 0.930 . S
H469 C457 0.930 . S
H470 C463 0.929 . S
H471 C485 0.930 . S
H472 C464 0.930 . S
H473 C491 0.930 . S
H474 C482 0.929 . S
H475 C489 0.930 . S
H476 C453 0.931 . S
H477 C483 0.930 . S
H478 C516 0.930 . S
H479 C460 0.930 . S
H480 C515 0.931 . S
N481 Eu450 2.657 . S
N481 C482 1.334 . S
N481 C486 1.362 . S
C482 H474 0.929 . S
C482 N481 1.334 . S
C482 C485 1.413 1_455 S
C483 H477 0.930 . S
C483 C484 1.392 . S
C483 C485 1.367 . S
C484 C483 1.392 . S
C484 C486 1.420 1_655 S
C484 C516 1.423 . S
C485 H471 0.930 . S
C485 C482 1.413 1_655 S
C485 C483 1.367 . S
C486 N481 1.362 . S
C486 C484 1.420 1_455 S
C486 C490 1.429 . S
H487 C492 0.930 . S
N488 Eu450 2.609 . S
N488 C490 1.377 . S
N488 C491 1.321 . S
C489 H475 0.930 . S
C489 C491 1.400 . S
C489 C492 1.386 . S
C490 C486 1.429 . S
C490 N488 1.377 . S
C490 C493 1.411 . S
C491 H473 0.930 . S
C491 N488 1.321 . S
C491 C489 1.400 . S
C492 H487 0.930 . S
C492 C489 1.386 . S
C492 C493 1.395 . S
C493 C490 1.411 . S
C493 C492 1.395 . S
C493 C515 1.420 1_455 S
O494 Eu450 2.558 . S
O494 C514 1.257 . S
O495 Eu450 2.612 . S
O495 Eu461 2.380 . S
O495 C506 1.276 . S
O496 Eu461 2.432 . S
O496 C513 1.264 . S
O497 Eu450 2.339 . S
O497 C513 1.254 . S
O498 Eu450 2.563 . S
O498 C506 1.235 . S
O499 Eu450 2.419 . S
O499 C514 1.249 . S
O500 Eu461 2.558 . S
O500 C525 1.257 . S
O501 Eu450 2.380 . S
O501 Eu461 2.612 . S
O501 C517 1.276 . S
O502 Eu450 2.432 . S
O502 C524 1.264 . S
O503 Eu461 2.339 . S
O503 C524 1.254 . S
O504 Eu461 2.563 . S
O504 C517 1.235 . S
O505 Eu461 2.419 . S
O505 C525 1.249 . S
C506 O495 1.276 . S
C506 O498 1.235 . S
C507 C509 1.393 . S
C507 C511 1.395 . S
C507 C514 1.492 . S
C508 C509 1.392 . S
C508 C510 1.386 . S
C509 C507 1.393 . S
C509 C508 1.392 . S
C509 H526 0.930 . S
C510 C508 1.386 . S
C510 C512 1.395 . S
C510 H527 0.930 . S
C511 C507 1.395 . S
C511 C512 1.379 . S
C511 H528 0.930 . S
C512 C510 1.395 . S
C512 C511 1.379 . S
C512 H529 0.930 . S
C513 O496 1.264 . S
C513 O497 1.254 . S
C514 Eu450 2.848 . S
C514 O494 1.257 . S
C514 O499 1.249 . S
C514 C507 1.492 . S
C515 H480 0.931 . S
C515 C493 1.420 1_655 S
C515 C516 1.351 . S
C516 H478 0.930 . S
C516 C484 1.423 . S
C516 C515 1.351 . S
C517 O501 1.276 . S
C517 O504 1.235 . S
C518 C519 1.393 . S
C518 C522 1.395 . S
C518 C525 1.492 . S
C519 C518 1.393 . S
C519 C520 1.392 . S
C519 H530 0.930 . S
C520 C519 1.392 . S
C520 C521 1.386 . S
C521 C520 1.386 . S
C521 C523 1.395 . S
C521 H531 0.930 . S
C522 C518 1.395 . S
C522 C523 1.379 . S
C522 H532 0.930 . S
C523 C521 1.395 . S
C523 C522 1.379 . S
C523 H533 0.930 . S
C524 O502 1.264 . S
C524 O503 1.254 . S
C525 Eu461 2.848 . S
C525 O500 1.257 . S
C525 O505 1.249 . S
C525 C518 1.492 . S
H526 C509 0.930 . S
H527 C510 0.930 . S
H528 C511 0.930 . S
H529 C512 0.930 . S
H530 C519 0.930 . S
H531 C521 0.930 . S
H532 C522 0.930 . S
H533 C523 0.930 . S
Eu534 N565 2.657 . S
Eu534 N572 2.609 . S
Eu534 O578 2.558 . S
Eu534 O579 2.612 . S
Eu534 O581 2.339 . S
Eu534 O582 2.563 . S
Eu534 O583 2.419 . S
Eu534 O585 2.380 . S
Eu534 O586 2.432 . S
Eu534 C598 2.848 . S
C535 C538 1.429 . S
C535 C539 1.411 . S
C535 N542 1.377 . S
C536 C538 1.420 . S
C536 C540 1.423 . S
C536 C548 1.392 . S
C537 C539 1.420 . S
C537 C540 1.351 . S
C537 H560 0.931 . S
C538 C535 1.429 . S
C538 C536 1.420 . S
C538 N546 1.362 . S
C539 C535 1.411 . S
C539 C537 1.420 . S
C539 C544 1.395 . S
C540 C536 1.423 . S
C540 C537 1.351 . S
C540 H552 0.930 . S
C541 C543 1.400 . S
C541 C544 1.386 . S
C541 H553 0.930 . S
N542 C535 1.377 . S
N542 C543 1.321 . S
N542 Eu545 2.609 . S
C543 C541 1.400 . S
C543 N542 1.321 . S
C543 H550 0.930 . S
C544 C539 1.395 . S
C544 C541 1.386 . S
C544 H563 0.930 . S
Eu545 N542 2.609 . S
Eu545 N546 2.657 . S
Eu545 O579 2.380 . S
Eu545 O580 2.432 . S
Eu545 O584 2.558 . S
Eu545 O585 2.612 . S
Eu545 O587 2.339 . S
Eu545 O588 2.563 . S
Eu545 O589 2.419 . S
Eu545 C609 2.848 . S
N546 C538 1.362 . S
N546 Eu545 2.657 . S
N546 C547 1.334 . S
C547 N546 1.334 . S
C547 C549 1.413 . S
C547 H554 0.929 . S
C548 C536 1.392 . S
C548 C549 1.367 . S
C548 H556 0.930 . S
C549 C547 1.413 . S
C549 C548 1.367 . S
C549 H551 0.930 . S
H550 C543 0.930 . S
H551 C549 0.930 . S
H552 C540 0.930 . S
H553 C541 0.930 . S
H554 C547 0.929 . S
H555 C569 0.930 . S
H556 C548 0.930 . S
H557 C575 0.930 . S
H558 C566 0.929 . S
H559 C573 0.930 . S
H560 C537 0.931 . S
H561 C567 0.930 . S
H562 C600 0.930 . S
H563 C544 0.930 . S
H564 C599 0.931 . S
N565 Eu534 2.657 . S
N565 C566 1.334 . S
N565 C570 1.362 . S
C566 H558 0.929 . S
C566 N565 1.334 . S
C566 C569 1.413 . S
C567 H561 0.930 . S
C567 C568 1.392 . S
C567 C569 1.367 . S
C568 C567 1.392 . S
C568 C570 1.420 . S
C568 C600 1.423 . S
C569 H555 0.930 . S
C569 C566 1.413 . S
C569 C567 1.367 . S
C570 N565 1.362 . S
C570 C568 1.420 . S
C570 C574 1.429 . S
H571 C576 0.930 . S
N572 Eu534 2.609 . S
N572 C574 1.377 . S
N572 C575 1.321 . S
C573 H559 0.930 . S
C573 C575 1.400 . S
C573 C576 1.386 . S
C574 C570 1.429 . S
C574 N572 1.377 . S
C574 C577 1.411 . S
C575 H557 0.930 . S
C575 N572 1.321 . S
C575 C573 1.400 . S
C576 H571 0.930 . S
C576 C573 1.386 . S
C576 C577 1.395 . S
C577 C574 1.411 . S
C577 C576 1.395 . S
C577 C599 1.420 . S
O578 Eu534 2.558 . S
O578 C598 1.257 . S
O579 Eu534 2.612 . S
O579 Eu545 2.380 . S
O579 C590 1.276 . S
O580 Eu545 2.432 . S
O580 C597 1.264 . S
O581 Eu534 2.339 . S
O581 C597 1.254 . S
O582 Eu534 2.563 . S
O582 C590 1.235 . S
O583 Eu534 2.419 . S
O583 C598 1.249 . S
O584 Eu545 2.558 . S
O584 C609 1.257 . S
O585 Eu534 2.380 . S
O585 Eu545 2.612 . S
O585 C601 1.276 . S
O586 Eu534 2.432 . S
O586 C608 1.264 . S
O587 Eu545 2.339 . S
O587 C608 1.254 . S
O588 Eu545 2.563 . S
O588 C601 1.235 . S
O589 Eu545 2.419 . S
O589 C609 1.249 . S
C590 O579 1.276 . S
C590 O582 1.235 . S
C591 C593 1.393 . S
C591 C595 1.395 . S
C591 C598 1.492 . S
C592 C593 1.392 . S
C592 C594 1.386 . S
C593 C591 1.393 . S
C593 C592 1.392 . S
C593 H610 0.930 . S
C594 C592 1.386 . S
C594 C596 1.395 . S
C594 H611 0.930 . S
C595 C591 1.395 . S
C595 C596 1.379 . S
C595 H612 0.930 . S
C596 C594 1.395 . S
C596 C595 1.379 . S
C596 H613 0.930 . S
C597 O580 1.264 . S
C597 O581 1.254 . S
C598 Eu534 2.848 . S
C598 O578 1.257 . S
C598 O583 1.249 . S
C598 C591 1.492 . S
C599 H564 0.931 . S
C599 C577 1.420 . S
C599 C600 1.351 . S
C600 H562 0.930 . S
C600 C568 1.423 . S
C600 C599 1.351 . S
C601 O585 1.276 . S
C601 O588 1.235 . S
C602 C603 1.393 . S
C602 C606 1.395 . S
C602 C609 1.492 . S
C603 C602 1.393 . S
C603 C604 1.392 . S
C603 H614 0.930 . S
C604 C603 1.392 . S
C604 C605 1.386 . S
C605 C604 1.386 . S
C605 C607 1.395 . S
C605 H615 0.930 . S
C606 C602 1.395 . S
C606 C607 1.379 . S
C606 H616 0.930 . S
C607 C605 1.395 . S
C607 C606 1.379 . S
C607 H617 0.930 . S
C608 O586 1.264 . S
C608 O587 1.254 . S
C609 Eu545 2.848 . S
C609 O584 1.257 . S
C609 O589 1.249 . S
C609 C602 1.492 . S
H610 C593 0.930 . S
H611 C594 0.930 . S
H612 C595 0.930 . S
H613 C596 0.930 . S
H614 C603 0.930 . S
H615 C605 0.930 . S
H616 C606 0.930 . S
H617 C607 0.930 . S
Eu618 N649 2.657 . S
Eu618 N656 2.609 . S
Eu618 O662 2.558 . S
Eu618 O663 2.612 . S
Eu618 O665 2.339 . S
Eu618 O666 2.563 . S
Eu618 O667 2.419 . S
Eu618 O669 2.380 . S
Eu618 O670 2.432 . S
Eu618 C682 2.848 . S
C619 C622 1.429 . S
C619 C623 1.411 . S
C619 N626 1.377 . S
C620 C622 1.420 . S
C620 C624 1.423 . S
C620 C632 1.392 . S
C621 C623 1.420 . S
C621 C624 1.351 . S
C621 H644 0.931 . S
C622 C619 1.429 . S
C622 C620 1.420 . S
C622 N630 1.362 . S
C623 C619 1.411 . S
C623 C621 1.420 . S
C623 C628 1.395 . S
C624 C620 1.423 . S
C624 C621 1.351 . S
C624 H636 0.930 . S
C625 C627 1.400 . S
C625 C628 1.386 . S
C625 H637 0.930 . S
N626 C619 1.377 . S
N626 C627 1.321 . S
N626 Eu629 2.609 . S
C627 C625 1.400 . S
C627 N626 1.321 . S
C627 H634 0.930 . S
C628 C623 1.395 . S
C628 C625 1.386 . S
C628 H647 0.930 . S
Eu629 N626 2.609 . S
Eu629 N630 2.657 . S
Eu629 O663 2.380 . S
Eu629 O664 2.432 . S
Eu629 O668 2.558 . S
Eu629 O669 2.612 . S
Eu629 O671 2.339 . S
Eu629 O672 2.563 . S
Eu629 O673 2.419 . S
Eu629 C693 2.848 . S
N630 C622 1.362 . S
N630 Eu629 2.657 . S
N630 C631 1.334 . S
C631 N630 1.334 . S
C631 C633 1.413 . S
C631 H638 0.929 . S
C632 C620 1.392 . S
C632 C633 1.367 . S
C632 H640 0.930 . S
C633 C631 1.413 . S
C633 C632 1.367 . S
C633 H635 0.930 . S
H634 C627 0.930 . S
H635 C633 0.930 . S
H636 C624 0.930 . S
H637 C625 0.930 . S
H638 C631 0.929 . S
H639 C653 0.930 . S
H640 C632 0.930 . S
H641 C659 0.930 . S
H642 C650 0.929 . S
H643 C657 0.930 . S
H644 C621 0.931 . S
H645 C651 0.930 . S
H646 C684 0.930 . S
H647 C628 0.930 . S
H648 C683 0.931 . S
N649 Eu618 2.657 . S
N649 C650 1.334 . S
N649 C654 1.362 . S
C650 H642 0.929 . S
C650 N649 1.334 . S
C650 C653 1.413 . S
C651 H645 0.930 . S
C651 C652 1.392 . S
C651 C653 1.367 . S
C652 C651 1.392 . S
C652 C654 1.420 . S
C652 C684 1.423 . S
C653 H639 0.930 . S
C653 C650 1.413 . S
C653 C651 1.367 . S
C654 N649 1.362 . S
C654 C652 1.420 . S
C654 C658 1.429 . S
H655 C660 0.930 . S
N656 Eu618 2.609 . S
N656 C658 1.377 . S
N656 C659 1.321 . S
C657 H643 0.930 . S
C657 C659 1.400 . S
C657 C660 1.386 . S
C658 C654 1.429 . S
C658 N656 1.377 . S
C658 C661 1.411 . S
C659 H641 0.930 . S
C659 N656 1.321 . S
C659 C657 1.400 . S
C660 H655 0.930 . S
C660 C657 1.386 . S
C660 C661 1.395 . S
C661 C658 1.411 . S
C661 C660 1.395 . S
C661 C683 1.420 . S
O662 Eu618 2.558 . S
O662 C682 1.257 . S
O663 Eu618 2.612 . S
O663 Eu629 2.380 . S
O663 C674 1.276 . S
O664 Eu629 2.432 . S
O664 C681 1.264 . S
O665 Eu618 2.339 . S
O665 C681 1.254 . S
O666 Eu618 2.563 . S
O666 C674 1.235 . S
O667 Eu618 2.419 . S
O667 C682 1.249 . S
O668 Eu629 2.558 . S
O668 C693 1.257 . S
O669 Eu618 2.380 . S
O669 Eu629 2.612 . S
O669 C685 1.276 . S
O670 Eu618 2.432 . S
O670 C692 1.264 . S
O671 Eu629 2.339 . S
O671 C692 1.254 . S
O672 Eu629 2.563 . S
O672 C685 1.235 . S
O673 Eu629 2.419 . S
O673 C693 1.249 . S
C674 O663 1.276 . S
C674 O666 1.235 . S
C675 C677 1.393 . S
C675 C679 1.395 . S
C675 C682 1.492 . S
C676 C677 1.392 . S
C676 C678 1.386 . S
C677 C675 1.393 . S
C677 C676 1.392 . S
C677 H694 0.930 . S
C678 C676 1.386 . S
C678 C680 1.395 . S
C678 H695 0.930 . S
C679 C675 1.395 . S
C679 C680 1.379 . S
C679 H696 0.930 . S
C680 C678 1.395 . S
C680 C679 1.379 . S
C680 H697 0.930 . S
C681 O664 1.264 . S
C681 O665 1.254 . S
C682 Eu618 2.848 . S
C682 O662 1.257 . S
C682 O667 1.249 . S
C682 C675 1.492 . S
C683 H648 0.931 . S
C683 C661 1.420 . S
C683 C684 1.351 . S
C684 H646 0.930 . S
C684 C652 1.423 . S
C684 C683 1.351 . S
C685 O669 1.276 . S
C685 O672 1.235 . S
C686 C687 1.393 . S
C686 C690 1.395 . S
C686 C693 1.492 . S
C687 C686 1.393 . S
C687 C688 1.392 . S
C687 H698 0.930 . S
C688 C687 1.392 . S
C688 C689 1.386 . S
C689 C688 1.386 . S
C689 C691 1.395 . S
C689 H699 0.930 . S
C690 C686 1.395 . S
C690 C691 1.379 . S
C690 H700 0.930 . S
C691 C689 1.395 . S
C691 C690 1.379 . S
C691 H701 0.930 . S
C692 O670 1.264 . S
C692 O671 1.254 . S
C693 Eu629 2.848 . S
C693 O668 1.257 . S
C693 O673 1.249 . S
C693 C686 1.492 . S
H694 C677 0.930 . S
H695 C678 0.930 . S
H696 C679 0.930 . S
H697 C680 0.930 . S
H698 C687 0.930 . S
H699 C689 0.930 . S
H700 C690 0.930 . S
H701 C691 0.930 . S
Eu702 N733 2.657 . S
Eu702 N740 2.609 . S
Eu702 O746 2.558 . S
Eu702 O747 2.612 . S
Eu702 O749 2.339 . S
Eu702 O750 2.563 . S
Eu702 O751 2.419 . S
Eu702 O753 2.380 . S
Eu702 O754 2.432 . S
Eu702 C766 2.848 . S
C703 C706 1.429 . S
C703 C707 1.411 . S
C703 N710 1.377 . S
C704 C706 1.420 . S
C704 C708 1.423 . S
C704 C716 1.392 . S
C705 C707 1.420 . S
C705 C708 1.351 . S
C705 H728 0.931 . S
C706 C703 1.429 . S
C706 C704 1.420 . S
C706 N714 1.362 . S
C707 C703 1.411 . S
C707 C705 1.420 . S
C707 C712 1.395 . S
C708 C704 1.423 . S
C708 C705 1.351 . S
C708 H720 0.930 . S
C709 C711 1.400 . S
C709 C712 1.386 . S
C709 H721 0.930 . S
N710 C703 1.377 . S
N710 C711 1.321 . S
N710 Eu713 2.609 . S
C711 C709 1.400 . S
C711 N710 1.321 . S
C711 H718 0.930 . S
C712 C707 1.395 . S
C712 C709 1.386 . S
C712 H731 0.930 . S
Eu713 N710 2.609 . S
Eu713 N714 2.657 . S
Eu713 O747 2.380 . S
Eu713 O748 2.432 . S
Eu713 O752 2.558 . S
Eu713 O753 2.612 . S
Eu713 O755 2.339 . S
Eu713 O756 2.563 . S
Eu713 O757 2.419 . S
Eu713 C777 2.848 . S
N714 C706 1.362 . S
N714 Eu713 2.657 . S
N714 C715 1.334 . S
C715 N714 1.334 . S
C715 C717 1.413 . S
C715 H722 0.929 . S
C716 C704 1.392 . S
C716 C717 1.367 . S
C716 H724 0.930 . S
C717 C715 1.413 . S
C717 C716 1.367 . S
C717 H719 0.930 . S
H718 C711 0.930 . S
H719 C717 0.930 . S
H720 C708 0.930 . S
H721 C709 0.930 . S
H722 C715 0.929 . S
H723 C737 0.930 . S
H724 C716 0.930 . S
H725 C743 0.930 . S
H726 C734 0.929 . S
H727 C741 0.930 . S
H728 C705 0.931 . S
H729 C735 0.930 . S
H730 C768 0.930 . S
H731 C712 0.930 . S
H732 C767 0.931 . S
N733 Eu702 2.657 . S
N733 C734 1.334 . S
N733 C738 1.362 . S
C734 H726 0.929 . S
C734 N733 1.334 . S
C734 C737 1.413 . S
C735 H729 0.930 . S
C735 C736 1.392 . S
C735 C737 1.367 . S
C736 C735 1.392 . S
C736 C738 1.420 . S
C736 C768 1.423 . S
C737 H723 0.930 . S
C737 C734 1.413 . S
C737 C735 1.367 . S
C738 N733 1.362 . S
C738 C736 1.420 . S
C738 C742 1.429 . S
H739 C744 0.930 . S
N740 Eu702 2.609 . S
N740 C742 1.377 . S
N740 C743 1.321 . S
C741 H727 0.930 . S
C741 C743 1.400 . S
C741 C744 1.386 . S
C742 C738 1.429 . S
C742 N740 1.377 . S
C742 C745 1.411 . S
C743 H725 0.930 . S
C743 N740 1.321 . S
C743 C741 1.400 . S
C744 H739 0.930 . S
C744 C741 1.386 . S
C744 C745 1.395 . S
C745 C742 1.411 . S
C745 C744 1.395 . S
C745 C767 1.420 . S
O746 Eu702 2.558 . S
O746 C766 1.257 . S
O747 Eu702 2.612 . S
O747 Eu713 2.380 . S
O747 C758 1.276 . S
O748 Eu713 2.432 . S
O748 C765 1.264 . S
O749 Eu702 2.339 . S
O749 C765 1.254 . S
O750 Eu702 2.563 . S
O750 C758 1.235 . S
O751 Eu702 2.419 . S
O751 C766 1.249 . S
O752 Eu713 2.558 . S
O752 C777 1.257 . S
O753 Eu702 2.380 . S
O753 Eu713 2.612 . S
O753 C769 1.276 . S
O754 Eu702 2.432 . S
O754 C776 1.264 . S
O755 Eu713 2.339 . S
O755 C776 1.254 . S
O756 Eu713 2.563 . S
O756 C769 1.235 . S
O757 Eu713 2.419 . S
O757 C777 1.249 . S
C758 O747 1.276 . S
C758 O750 1.235 . S
C759 C761 1.393 . S
C759 C763 1.395 . S
C759 C766 1.492 . S
C760 C761 1.392 . S
C760 C762 1.386 . S
C761 C759 1.393 . S
C761 C760 1.392 . S
C761 H778 0.930 . S
C762 C760 1.386 . S
C762 C764 1.395 . S
C762 H779 0.930 . S
C763 C759 1.395 . S
C763 C764 1.379 . S
C763 H780 0.930 . S
C764 C762 1.395 . S
C764 C763 1.379 . S
C764 H781 0.930 . S
C765 O748 1.264 . S
C765 O749 1.254 . S
C766 Eu702 2.848 . S
C766 O746 1.257 . S
C766 O751 1.249 . S
C766 C759 1.492 . S
C767 H732 0.931 . S
C767 C745 1.420 . S
C767 C768 1.351 . S
C768 H730 0.930 . S
C768 C736 1.423 . S
C768 C767 1.351 . S
C769 O753 1.276 . S
C769 O756 1.235 . S
C770 C771 1.393 . S
C770 C774 1.395 . S
C770 C777 1.492 . S
C771 C770 1.393 . S
C771 C772 1.392 . S
C771 H782 0.930 . S
C772 C771 1.392 . S
C772 C773 1.386 . S
C773 C772 1.386 . S
C773 C775 1.395 . S
C773 H783 0.930 . S
C774 C770 1.395 . S
C774 C775 1.379 . S
C774 H784 0.930 . S
C775 C773 1.395 . S
C775 C774 1.379 . S
C775 H785 0.930 . S
C776 O754 1.264 . S
C776 O755 1.254 . S
C777 Eu713 2.848 . S
C777 O752 1.257 . S
C777 O757 1.249 . S
C777 C770 1.492 . S
H778 C761 0.930 . S
H779 C762 0.930 . S
H780 C763 0.930 . S
H781 C764 0.930 . S
H782 C771 0.930 . S
H783 C773 0.930 . S
H784 C774 0.930 . S
H785 C775 0.930 . S
Eu786 N817 2.657 . S
Eu786 N824 2.609 . S
Eu786 O830 2.558 . S
Eu786 O831 2.612 . S
Eu786 O833 2.339 . S
Eu786 O834 2.563 . S
Eu786 O835 2.419 . S
Eu786 O837 2.380 . S
Eu786 O838 2.432 . S
Eu786 C850 2.848 . S
C787 C790 1.429 . S
C787 C791 1.411 . S
C787 N794 1.377 . S
C788 C790 1.420 . S
C788 C792 1.423 . S
C788 C800 1.392 . S
C789 C791 1.420 . S
C789 C792 1.351 . S
C789 H812 0.931 . S
C790 C787 1.429 . S
C790 C788 1.420 . S
C790 N798 1.362 . S
C791 C787 1.411 . S
C791 C789 1.420 . S
C791 C796 1.395 . S
C792 C788 1.423 . S
C792 C789 1.351 . S
C792 H804 0.930 . S
C793 C795 1.400 . S
C793 C796 1.386 . S
C793 H805 0.930 . S
N794 C787 1.377 . S
N794 C795 1.321 . S
N794 Eu797 2.609 . S
C795 C793 1.400 . S
C795 N794 1.321 . S
C795 H802 0.930 . S
C796 C791 1.395 . S
C796 C793 1.386 . S
C796 H815 0.930 . S
Eu797 N794 2.609 . S
Eu797 N798 2.657 . S
Eu797 O831 2.380 . S
Eu797 O832 2.432 . S
Eu797 O836 2.558 . S
Eu797 O837 2.612 . S
Eu797 O839 2.339 . S
Eu797 O840 2.563 . S
Eu797 O841 2.419 . S
Eu797 C861 2.848 . S
N798 C790 1.362 . S
N798 Eu797 2.657 . S
N798 C799 1.334 . S
C799 N798 1.334 . S
C799 C801 1.413 . S
C799 H806 0.929 . S
C800 C788 1.392 . S
C800 C801 1.367 . S
C800 H808 0.930 . S
C801 C799 1.413 . S
C801 C800 1.367 . S
C801 H803 0.930 . S
H802 C795 0.930 . S
H803 C801 0.930 . S
H804 C792 0.930 . S
H805 C793 0.930 . S
H806 C799 0.929 . S
H807 C821 0.930 . S
H808 C800 0.930 . S
H809 C827 0.930 . S
H810 C818 0.929 . S
H811 C825 0.930 . S
H812 C789 0.931 . S
H813 C819 0.930 . S
H814 C852 0.930 . S
H815 C796 0.930 . S
H816 C851 0.931 . S
N817 Eu786 2.657 . S
N817 C818 1.334 . S
N817 C822 1.362 . S
C818 H810 0.929 . S
C818 N817 1.334 . S
C818 C821 1.413 . S
C819 H813 0.930 . S
C819 C820 1.392 . S
C819 C821 1.367 . S
C820 C819 1.392 . S
C820 C822 1.420 . S
C820 C852 1.423 . S
C821 H807 0.930 . S
C821 C818 1.413 . S
C821 C819 1.367 . S
C822 N817 1.362 . S
C822 C820 1.420 . S
C822 C826 1.429 . S
H823 C828 0.930 . S
N824 Eu786 2.609 . S
N824 C826 1.377 . S
N824 C827 1.321 . S
C825 H811 0.930 . S
C825 C827 1.400 . S
C825 C828 1.386 . S
C826 C822 1.429 . S
C826 N824 1.377 . S
C826 C829 1.411 . S
C827 H809 0.930 . S
C827 N824 1.321 . S
C827 C825 1.400 . S
C828 H823 0.930 . S
C828 C825 1.386 . S
C828 C829 1.395 . S
C829 C826 1.411 . S
C829 C828 1.395 . S
C829 C851 1.420 . S
O830 Eu786 2.558 . S
O830 C850 1.257 . S
O831 Eu786 2.612 . S
O831 Eu797 2.380 . S
O831 C842 1.276 . S
O832 Eu797 2.432 . S
O832 C849 1.264 . S
O833 Eu786 2.339 . S
O833 C849 1.254 . S
O834 Eu786 2.563 . S
O834 C842 1.235 . S
O835 Eu786 2.419 . S
O835 C850 1.249 . S
O836 Eu797 2.558 . S
O836 C861 1.257 . S
O837 Eu786 2.380 . S
O837 Eu797 2.612 . S
O837 C853 1.276 . S
O838 Eu786 2.432 . S
O838 C860 1.264 . S
O839 Eu797 2.339 . S
O839 C860 1.254 . S
O840 Eu797 2.563 . S
O840 C853 1.235 . S
O841 Eu797 2.419 . S
O841 C861 1.249 . S
C842 O831 1.276 . S
C842 O834 1.235 . S
C843 C845 1.393 . S
C843 C847 1.395 . S
C843 C850 1.492 . S
C844 C845 1.392 . S
C844 C846 1.386 . S
C845 C843 1.393 . S
C845 C844 1.392 . S
C845 H862 0.930 . S
C846 C844 1.386 . S
C846 C848 1.395 . S
C846 H863 0.930 . S
C847 C843 1.395 . S
C847 C848 1.379 . S
C847 H864 0.930 . S
C848 C846 1.395 . S
C848 C847 1.379 . S
C848 H865 0.930 . S
C849 O832 1.264 . S
C849 O833 1.254 . S
C850 Eu786 2.848 . S
C850 O830 1.257 . S
C850 O835 1.249 . S
C850 C843 1.492 . S
C851 H816 0.931 . S
C851 C829 1.420 . S
C851 C852 1.351 . S
C852 H814 0.930 . S
C852 C820 1.423 . S
C852 C851 1.351 . S
C853 O837 1.276 . S
C853 O840 1.235 . S
C854 C855 1.393 . S
C854 C858 1.395 . S
C854 C861 1.492 . S
C855 C854 1.393 . S
C855 C856 1.392 . S
C855 H866 0.930 . S
C856 C855 1.392 . S
C856 C857 1.386 . S
C857 C856 1.386 . S
C857 C859 1.395 . S
C857 H867 0.930 . S
C858 C854 1.395 . S
C858 C859 1.379 . S
C858 H868 0.930 . S
C859 C857 1.395 . S
C859 C858 1.379 . S
C859 H869 0.930 . S
C860 O838 1.264 . S
C860 O839 1.254 . S
C861 Eu797 2.848 . S
C861 O836 1.257 . S
C861 O841 1.249 . S
C861 C854 1.492 . S
H862 C845 0.930 . S
H863 C846 0.930 . S
H864 C847 0.930 . S
H865 C848 0.930 . S
H866 C855 0.930 . S
H867 C857 0.930 . S
H868 C858 0.930 . S
H869 C859 0.930 . S
Eu870 N901 2.657 . S
Eu870 N908 2.609 . S
Eu870 O914 2.558 . S
Eu870 O915 2.612 . S
Eu870 O917 2.339 . S
Eu870 O918 2.563 . S
Eu870 O919 2.419 . S
Eu870 O921 2.380 . S
Eu870 O922 2.432 . S
Eu870 C934 2.848 . S
C871 C874 1.429 . S
C871 C875 1.411 . S
C871 N878 1.377 . S
C872 C874 1.420 . S
C872 C876 1.423 . S
C872 C884 1.392 . S
C873 C875 1.420 . S
C873 C876 1.351 . S
C873 H896 0.931 . S
C874 C871 1.429 . S
C874 C872 1.420 . S
C874 N882 1.362 . S
C875 C871 1.411 . S
C875 C873 1.420 . S
C875 C880 1.395 . S
C876 C872 1.423 . S
C876 C873 1.351 . S
C876 H888 0.930 . S
C877 C879 1.400 . S
C877 C880 1.386 . S
C877 H889 0.930 . S
N878 C871 1.377 . S
N878 C879 1.321 . S
N878 Eu881 2.609 . S
C879 C877 1.400 . S
C879 N878 1.321 . S
C879 H886 0.930 . S
C880 C875 1.395 . S
C880 C877 1.386 . S
C880 H899 0.930 . S
Eu881 N878 2.609 . S
Eu881 N882 2.657 . S
Eu881 O915 2.380 . S
Eu881 O916 2.432 . S
Eu881 O920 2.558 . S
Eu881 O921 2.612 . S
Eu881 O923 2.339 . S
Eu881 O924 2.563 . S
Eu881 O925 2.419 . S
Eu881 C945 2.848 . S
N882 C874 1.362 . S
N882 Eu881 2.657 . S
N882 C883 1.334 . S
C883 N882 1.334 . S
C883 C885 1.413 . S
C883 H890 0.929 . S
C884 C872 1.392 . S
C884 C885 1.367 . S
C884 H892 0.930 . S
C885 C883 1.413 . S
C885 C884 1.367 . S
C885 H887 0.930 . S
H886 C879 0.930 . S
H887 C885 0.930 . S
H888 C876 0.930 . S
H889 C877 0.930 . S
H890 C883 0.929 . S
H891 C905 0.930 . S
H892 C884 0.930 . S
H893 C911 0.930 . S
H894 C902 0.929 . S
H895 C909 0.930 . S
H896 C873 0.931 . S
H897 C903 0.930 . S
H898 C936 0.930 . S
H899 C880 0.930 . S
H900 C935 0.931 . S
N901 Eu870 2.657 . S
N901 C902 1.334 . S
N901 C906 1.362 . S
C902 H894 0.929 . S
C902 N901 1.334 . S
C902 C905 1.413 1_655 S
C903 H897 0.930 . S
C903 C904 1.392 . S
C903 C905 1.367 . S
C904 C903 1.392 . S
C904 C906 1.420 1_455 S
C904 C936 1.423 . S
C905 H891 0.930 . S
C905 C902 1.413 1_455 S
C905 C903 1.367 . S
C906 N901 1.362 . S
C906 C904 1.420 1_655 S
C906 C910 1.429 . S
H907 C912 0.930 . S
N908 Eu870 2.609 . S
N908 C910 1.377 . S
N908 C911 1.321 . S
C909 H895 0.930 . S
C909 C911 1.400 . S
C909 C912 1.386 . S
C910 C906 1.429 . S
C910 N908 1.377 . S
C910 C913 1.411 . S
C911 H893 0.930 . S
C911 N908 1.321 . S
C911 C909 1.400 . S
C912 H907 0.930 . S
C912 C909 1.386 . S
C912 C913 1.395 . S
C913 C910 1.411 . S
C913 C912 1.395 . S
C913 C935 1.420 1_655 S
O914 Eu870 2.558 . S
O914 C934 1.257 . S
O915 Eu870 2.612 . S
O915 Eu881 2.380 . S
O915 C926 1.276 . S
O916 Eu881 2.432 . S
O916 C933 1.264 . S
O917 Eu870 2.339 . S
O917 C933 1.254 . S
O918 Eu870 2.563 . S
O918 C926 1.235 . S
O919 Eu870 2.419 . S
O919 C934 1.249 . S
O920 Eu881 2.558 . S
O920 C945 1.257 . S
O921 Eu870 2.380 . S
O921 Eu881 2.612 . S
O921 C937 1.276 . S
O922 Eu870 2.432 . S
O922 C944 1.264 . S
O923 Eu881 2.339 . S
O923 C944 1.254 . S
O924 Eu881 2.563 . S
O924 C937 1.235 . S
O925 Eu881 2.419 . S
O925 C945 1.249 . S
C926 O915 1.276 . S
C926 O918 1.235 . S
C927 C929 1.393 . S
C927 C931 1.395 . S
C927 C934 1.492 . S
C928 C929 1.392 . S
C928 C930 1.386 . S
C929 C927 1.393 . S
C929 C928 1.392 . S
C929 H946 0.930 . S
C930 C928 1.386 . S
C930 C932 1.395 . S
C930 H947 0.930 . S
C931 C927 1.395 . S
C931 C932 1.379 . S
C931 H948 0.930 . S
C932 C930 1.395 . S
C932 C931 1.379 . S
C932 H949 0.930 . S
C933 O916 1.264 . S
C933 O917 1.254 . S
C934 Eu870 2.848 . S
C934 O914 1.257 . S
C934 O919 1.249 . S
C934 C927 1.492 . S
C935 H900 0.931 . S
C935 C913 1.420 1_455 S
C935 C936 1.351 . S
C936 H898 0.930 . S
C936 C904 1.423 . S
C936 C935 1.351 . S
C937 O921 1.276 . S
C937 O924 1.235 . S
C938 C939 1.393 . S
C938 C942 1.395 . S
C938 C945 1.492 . S
C939 C938 1.393 . S
C939 C940 1.392 . S
C939 H950 0.930 . S
C940 C939 1.392 . S
C940 C941 1.386 . S
C941 C940 1.386 . S
C941 C943 1.395 . S
C941 H951 0.930 . S
C942 C938 1.395 . S
C942 C943 1.379 . S
C942 H952 0.930 . S
C943 C941 1.395 . S
C943 C942 1.379 . S
C943 H953 0.930 . S
C944 O922 1.264 . S
C944 O923 1.254 . S
C945 Eu881 2.848 . S
C945 O920 1.257 . S
C945 O925 1.249 . S
C945 C938 1.492 . S
H946 C929 0.930 . S
H947 C930 0.930 . S
H948 C931 0.930 . S
H949 C932 0.930 . S
H950 C939 0.930 . S
H951 C941 0.930 . S
H952 C942 0.930 . S
H953 C943 0.930 . S
C954 C955 1.363 . S
C954 C960 1.379 . S
C954 N962 1.356 . S
C955 C954 1.363 . S
C955 C961 1.363 . S
C956 C957 1.363 . S
C956 C961 1.379 . S
C956 N963 1.356 . S
C957 C956 1.363 . S
C957 C960 1.363 . S
N958 C960 1.356 . S
N958 H970 0.984 . S
N958 H971 0.985 . S
N959 C961 1.356 . S
N959 H964 0.984 . S
N959 H965 0.985 . S
C960 C954 1.379 . S
C960 C957 1.363 . S
C960 N958 1.356 . S
C961 C955 1.363 . S
C961 C956 1.379 . S
C961 N959 1.356 . S
N962 C954 1.356 . S
N962 H968 0.984 . S
N962 H969 0.984 . S
N963 C956 1.356 . S
N963 H966 0.984 . S
N963 H967 0.985 . S
H964 N959 0.984 . S
H965 N959 0.985 . S
H966 N963 0.984 . S
H967 N963 0.985 . S
H968 N962 0.984 . S
H969 N962 0.984 . S
H970 N958 0.984 . S
H971 N958 0.985 . S
C972 C973 1.363 . S
C972 C978 1.379 . S
C972 N980 1.356 . S
C973 C972 1.363 . S
C973 C979 1.363 . S
C974 C975 1.363 . S
C974 C979 1.379 . S
C974 N981 1.356 . S
C975 C974 1.363 . S
C975 C978 1.363 . S
N976 C978 1.356 . S
N976 H988 0.984 . S
N976 H989 0.985 . S
N977 C979 1.356 . S
N977 H982 0.984 . S
N977 H983 0.985 . S
C978 C972 1.379 . S
C978 C975 1.363 . S
C978 N976 1.356 . S
C979 C973 1.363 . S
C979 C974 1.379 . S
C979 N977 1.356 . S
N980 C972 1.356 . S
N980 H986 0.984 . S
N980 H987 0.984 . S
N981 C974 1.356 . S
N981 H984 0.984 . S
N981 H985 0.985 . S
H982 N977 0.984 . S
H983 N977 0.985 . S
H984 N981 0.984 . S
H985 N981 0.985 . S
H986 N980 0.984 . S
H987 N980 0.984 . S
H988 N976 0.984 . S
H989 N976 0.985 . S
C990 C991 1.363 . S
C990 C996 1.379 . S
C990 N998 1.356 . S
C991 C990 1.363 . S
C991 C997 1.363 . S
C992 C993 1.363 . S
C992 C997 1.379 . S
C992 N999 1.356 1_554 S
C993 C992 1.363 . S
C993 C996 1.363 . S
N994 C996 1.356 . S
N994 H1006 0.984 . S
N994 H1007 0.985 . S
N995 C997 1.356 . S
N995 H1000 0.984 . S
N995 H1001 0.985 . S
C996 C990 1.379 . S
C996 C993 1.363 . S
C996 N994 1.356 . S
C997 C991 1.363 . S
C997 C992 1.379 . S
C997 N995 1.356 . S
N998 C990 1.356 . S
N998 H1004 0.984 . S
N998 H1005 0.984 . S
N999 C992 1.356 1_556 S
N999 H1002 0.984 . S
N999 H1003 0.985 . S
H1000 N995 0.984 . S
H1001 N995 0.985 . S
H1002 N999 0.984 . S
H1003 N999 0.985 . S
H1004 N998 0.984 . S
H1005 N998 0.984 . S
H1006 N994 0.984 . S
H1007 N994 0.985 . S
C1008 C1009 1.363 . S
C1008 C1014 1.379 . S
C1008 N1016 1.356 . S
C1009 C1008 1.363 . S
C1009 C1015 1.363 . S
C1010 C1011 1.363 . S
C1010 C1015 1.379 . S
C1010 N1017 1.356 . S
C1011 C1010 1.363 . S
C1011 C1014 1.363 . S
N1012 C1014 1.356 1_554 S
N1012 H1024 0.984 . S
N1012 H1025 0.985 . S
N1013 C1015 1.356 . S
N1013 H1018 0.984 . S
N1013 H1019 0.985 . S
C1014 C1008 1.379 . S
C1014 C1011 1.363 . S
C1014 N1012 1.356 1_556 S
C1015 C1009 1.363 . S
C1015 C1010 1.379 . S
C1015 N1013 1.356 . S
N1016 C1008 1.356 . S
N1016 H1022 0.984 1_556 S
N1016 H1023 0.984 . S
N1017 C1010 1.356 . S
N1017 H1020 0.984 . S
N1017 H1021 0.985 . S
H1018 N1013 0.984 . S
H1019 N1013 0.985 . S
H1020 N1017 0.984 . S
H1021 N1017 0.985 . S
H1022 N1016 0.984 1_554 S
H1023 N1016 0.984 . S
H1024 N1012 0.984 . S
H1025 N1012 0.985 . S
C1026 C1027 1.363 . S
C1026 C1032 1.379 . S
C1026 N1034 1.356 . S
C1027 C1026 1.363 . S
C1027 C1033 1.363 . S
C1028 C1029 1.341 1_554 S
C1028 C1033 1.366 1_554 S
C1028 N1035 1.389 . S
C1029 C1028 1.341 1_556 S
C1029 C1032 1.363 . S
N1030 C1032 1.356 . S
N1030 H1042 0.984 . S
N1030 H1043 0.985 . S
N1031 C1033 1.342 1_554 S
N1031 H1036 0.960 1_554 S
N1031 H1037 1.024 . S
C1032 C1026 1.379 . S
C1032 C1029 1.363 . S
C1032 N1030 1.356 . S
C1033 C1027 1.363 . S
C1033 C1028 1.366 1_556 S
C1033 N1031 1.342 1_556 S
N1034 C1026 1.356 . S
N1034 H1040 0.984 . S
N1034 H1041 0.984 . S
N1035 C1028 1.389 . S
N1035 H1038 0.984 . S
N1035 H1039 0.985 . S
H1036 N1031 0.960 1_556 S
H1037 N1031 1.024 . S
H1038 N1035 0.984 . S
H1039 N1035 0.985 . S
H1040 N1034 0.984 . S
H1041 N1034 0.984 . S
H1042 N1030 0.984 . S
H1043 N1030 0.985 . S
C1044 C1045 1.363 . S
C1044 C1050 1.379 . S
C1044 N1052 1.356 . S
C1045 C1044 1.363 . S
C1045 C1051 1.363 . S
C1046 C1047 1.363 1_554 S
C1046 C1051 1.379 1_554 S
C1046 N1053 1.356 . S
C1047 C1046 1.363 1_556 S
C1047 C1050 1.363 . S
N1048 C1050 1.356 . S
N1048 H1060 0.984 . S
N1048 H1061 0.985 . S
N1049 C1051 1.356 1_554 S
N1049 H1054 0.984 1_554 S
N1049 H1055 0.985 . S
C1050 C1044 1.379 . S
C1050 C1047 1.363 . S
C1050 N1048 1.356 . S
C1051 C1045 1.363 . S
C1051 C1046 1.379 1_556 S
C1051 N1049 1.356 1_556 S
N1052 C1044 1.356 . S
N1052 H1058 0.984 . S
N1052 H1059 0.984 . S
N1053 C1046 1.356 . S
N1053 H1056 0.984 . S
N1053 H1057 0.985 . S
H1054 N1049 0.984 1_556 S
H1055 N1049 0.985 . S
H1056 N1053 0.984 . S
H1057 N1053 0.985 . S
H1058 N1052 0.984 . S
H1059 N1052 0.984 . S
H1060 N1048 0.984 . S
H1061 N1048 0.985 . S
C1062 C1063 1.363 . S
C1062 C1068 1.379 1_556 S
C1062 N1070 1.356 1_556 S
C1063 C1062 1.363 . S
C1063 C1069 1.363 . S
C1064 C1065 1.363 . S
C1064 C1069 1.379 . S
C1064 N1071 1.356 . S
C1065 C1064 1.363 . S
C1065 C1068 1.363 1_556 S
N1066 C1068 1.356 . S
N1066 H1078 0.984 . S
N1066 H1079 0.985 . S
N1067 C1069 1.356 . S
N1067 H1072 0.984 . S
N1067 H1073 0.985 . S
C1068 C1062 1.379 1_554 S
C1068 C1065 1.363 1_554 S
C1068 N1066 1.356 . S
C1069 C1063 1.363 . S
C1069 C1064 1.379 . S
C1069 N1067 1.356 . S
N1070 C1062 1.356 1_554 S
N1070 H1076 0.984 . S
N1070 H1077 0.995 . S
N1071 C1064 1.356 . S
N1071 H1074 0.984 . S
N1071 H1075 0.985 . S
H1072 N1067 0.984 . S
H1073 N1067 0.985 . S
H1074 N1071 0.984 . S
H1075 N1071 0.985 . S
H1076 N1070 0.984 . S
H1077 N1070 0.995 . S
H1078 N1066 0.984 . S
H1079 N1066 0.985 . S
C1080 C1081 1.363 . S
C1080 C1086 1.379 . S
C1080 N1088 1.359 . S
C1081 C1080 1.363 . S
C1081 C1087 1.363 . S
C1082 C1083 1.363 . S
C1082 C1087 1.379 . S
C1082 N1089 1.356 . S
C1083 C1082 1.363 . S
C1083 C1086 1.363 . S
N1084 C1086 1.356 1_554 S
N1084 H1096 0.984 . S
N1084 H1097 0.985 . S
N1085 C1087 1.356 . S
N1085 H1090 0.984 . S
N1085 H1091 0.985 . S
C1086 C1080 1.379 . S
C1086 C1083 1.363 . S
C1086 N1084 1.356 1_556 S
C1087 C1081 1.363 . S
C1087 C1082 1.379 . S
C1087 N1085 1.356 . S
N1088 C1080 1.359 . S
N1088 H1094 0.979 1_556 S
N1088 H1095 0.988 . S
N1089 C1082 1.356 . S
N1089 H1092 0.984 . S
N1089 H1093 0.985 . S
H1090 N1085 0.984 . S
H1091 N1085 0.985 . S
H1092 N1089 0.984 . S
H1093 N1089 0.985 . S
H1094 N1088 0.979 1_554 S
H1095 N1088 0.988 . S
H1096 N1084 0.984 . S
H1097 N1084 0.985 . S
C1098 C1099 1.363 . S
C1098 C1104 1.379 . S
C1098 N1106 1.356 . S
C1099 C1098 1.363 . S
C1099 C1105 1.363 . S
C1100 C1101 1.356 1_554 S
C1100 C1105 1.376 1_554 S
C1100 N1107 1.366 . S
C1101 C1100 1.356 1_556 S
C1101 C1104 1.363 . S
N1102 C1104 1.356 . S
N1102 H1114 0.984 . S
N1102 H1115 0.985 . S
N1103 C1105 1.356 1_554 S
N1103 H1108 0.984 1_554 S
N1103 H1109 0.985 . S
C1104 C1098 1.379 . S
C1104 C1101 1.363 . S
C1104 N1102 1.356 . S
C1105 C1099 1.363 . S
C1105 C1100 1.376 1_556 S
C1105 N1103 1.356 1_556 S
N1106 C1098 1.356 . S
N1106 H1112 0.984 . S
N1106 H1113 0.984 . S
N1107 C1100 1.366 . S
N1107 H1110 0.984 . S
N1107 H1111 0.985 . S
H1108 N1103 0.984 1_556 S
H1109 N1103 0.985 . S
H1110 N1107 0.984 . S
H1111 N1107 0.985 . S
H1112 N1106 0.984 . S
H1113 N1106 0.984 . S
H1114 N1102 0.984 . S
H1115 N1102 0.985 . S
C1116 C1117 1.363 . S
C1116 C1122 1.379 . S
C1116 N1124 1.356 . S
C1117 C1116 1.363 . S
C1117 C1123 1.363 . S
C1118 C1119 1.363 . S
C1118 C1123 1.379 . S
C1118 N1125 1.356 1_554 S
C1119 C1118 1.363 . S
C1119 C1122 1.363 . S
N1120 C1122 1.356 . S
N1120 H1132 0.984 . S
N1120 H1133 0.985 . S
N1121 C1123 1.356 . S
N1121 H1126 0.984 . S
N1121 H1127 0.985 1_554 S
C1122 C1116 1.379 . S
C1122 C1119 1.363 . S
C1122 N1120 1.356 . S
C1123 C1117 1.363 . S
C1123 C1118 1.379 . S
C1123 N1121 1.356 . S
N1124 C1116 1.356 . S
N1124 H1130 0.984 . S
N1124 H1131 0.984 . S
N1125 C1118 1.356 1_556 S
N1125 H1128 0.984 . S
N1125 H1129 0.985 . S
H1126 N1121 0.984 . S
H1127 N1121 0.985 1_556 S
H1128 N1125 0.984 . S
H1129 N1125 0.985 . S
H1130 N1124 0.984 . S
H1131 N1124 0.984 . S
H1132 N1120 0.984 . S
H1133 N1120 0.985 . S
C1134 C1135 1.363 . S
C1134 C1140 1.379 . S
C1134 N1142 1.356 . S
C1135 C1134 1.363 . S
C1135 C1141 1.363 . S
C1136 C1137 1.363 . S
C1136 C1141 1.379 . S
C1136 N1143 1.356 . S
C1137 C1136 1.363 . S
C1137 C1140 1.363 . S
N1138 C1140 1.356 . S
N1138 H1150 0.984 . S
N1138 H1151 0.985 . S
N1139 C1141 1.356 . S
N1139 H1144 0.984 . S
N1139 H1145 0.985 . S
C1140 C1134 1.379 . S
C1140 C1137 1.363 . S
C1140 N1138 1.356 . S
C1141 C1135 1.363 . S
C1141 C1136 1.379 . S
C1141 N1139 1.356 . S
N1142 C1134 1.356 . S
N1142 H1148 0.984 . S
N1142 H1149 0.984 . S
N1143 C1136 1.356 . S
N1143 H1146 0.984 . S
N1143 H1147 0.985 . S
H1144 N1139 0.984 . S
H1145 N1139 0.985 . S
H1146 N1143 0.984 . S
H1147 N1143 0.985 . S
H1148 N1142 0.984 . S
H1149 N1142 0.984 . S
H1150 N1138 0.984 . S
H1151 N1138 0.985 . S
C1152 C1153 1.363 . S
C1152 C1158 1.379 . S
C1152 N1160 1.356 . S
C1153 C1152 1.363 . S
C1153 C1159 1.363 . S
C1154 C1155 1.363 . S
C1154 C1159 1.379 . S
C1154 N1161 1.356 . S
C1155 C1154 1.363 . S
C1155 C1158 1.363 . S
N1156 C1158 1.367 . S
N1156 H1168 0.974 1_554 S
N1156 H1169 0.984 . S
N1157 C1159 1.356 . S
N1157 H1162 0.984 . S
N1157 H1163 0.985 . S
C1158 C1152 1.379 . S
C1158 C1155 1.363 . S
C1158 N1156 1.367 . S
C1159 C1153 1.363 . S
C1159 C1154 1.379 . S
C1159 N1157 1.356 . S
N1160 C1152 1.356 . S
N1160 H1166 1.004 . S
N1160 H1167 0.984 . S
N1161 C1154 1.356 . S
N1161 H1164 0.984 . S
N1161 H1165 0.985 . S
H1162 N1157 0.984 . S
H1163 N1157 0.985 . S
H1164 N1161 0.984 . S
H1165 N1161 0.985 . S
H1166 N1160 1.004 . S
H1167 N1160 0.984 . S
H1168 N1156 0.974 1_556 S
H1169 N1156 0.984 . S
C1170 C1171 1.363 . S
C1170 C1176 1.379 . S
C1170 N1178 1.356 . S
C1171 C1170 1.363 . S
C1171 C1177 1.363 1_655 S
C1172 C1173 1.363 . S
C1172 C1177 1.379 . S
C1172 N1179 1.356 . S
C1173 C1172 1.363 . S
C1173 C1176 1.363 1_455 S
N1174 C1176 1.356 1_455 S
N1174 H1186 0.984 1_455 S
N1174 H1187 0.985 . S
N1175 C1177 1.356 1_655 S
N1175 H1180 0.984 . S
N1175 H1181 0.985 1_655 S
C1176 C1170 1.379 . S
C1176 C1173 1.363 1_655 S
C1176 N1174 1.356 1_655 S
C1177 C1171 1.363 1_455 S
C1177 C1172 1.379 . S
C1177 N1175 1.356 1_455 S
N1178 C1170 1.356 . S
N1178 H1184 0.984 . S
N1178 H1185 0.984 . S
N1179 C1172 1.356 . S
N1179 H1182 0.984 . S
N1179 H1183 0.985 . S
H1180 N1175 0.984 . S
H1181 N1175 0.985 1_455 S
H1182 N1179 0.984 . S
H1183 N1179 0.985 . S
H1184 N1178 0.984 . S
H1185 N1178 0.984 . S
H1186 N1174 0.984 1_655 S
H1187 N1174 0.985 . S
C1188 C1189 1.363 . S
C1188 C1194 1.379 . S
C1188 N1196 1.356 . S
C1189 C1188 1.363 . S
C1189 C1195 1.363 . S
C1190 C1191 1.363 . S
C1190 C1195 1.379 . S
C1190 N1197 1.356 . S
C1191 C1190 1.363 . S
C1191 C1194 1.363 . S
N1192 C1194 1.356 . S
N1192 H1204 0.984 . S
N1192 H1205 0.985 . S
N1193 C1195 1.356 . S
N1193 H1198 0.984 . S
N1193 H1199 0.985 . S
C1194 C1188 1.379 . S
C1194 C1191 1.363 . S
C1194 N1192 1.356 . S
C1195 C1189 1.363 . S
C1195 C1190 1.379 . S
C1195 N1193 1.356 . S
N1196 C1188 1.356 . S
N1196 H1202 0.984 . S
N1196 H1203 0.984 . S
N1197 C1190 1.356 . S
N1197 H1200 0.984 . S
N1197 H1201 0.985 . S
H1198 N1193 0.984 . S
H1199 N1193 0.985 . S
H1200 N1197 0.984 . S
H1201 N1197 0.985 . S
H1202 N1196 0.984 . S
H1203 N1196 0.984 . S
H1204 N1192 0.984 . S
H1205 N1192 0.985 . S
C1206 C1207 1.363 . S
C1206 C1212 1.379 1_545 S
C1206 N1214 1.356 . S
C1207 C1206 1.363 . S
C1207 C1213 1.363 . S
C1208 C1209 1.363 . S
C1208 C1213 1.379 1_565 S
C1208 N1215 1.356 . S
C1209 C1208 1.363 . S
C1209 C1212 1.363 . S
N1210 C1212 1.356 . S
N1210 H1222 0.984 . S
N1210 H1223 0.985 . S
N1211 C1213 1.356 . S
N1211 H1216 0.984 . S
N1211 H1217 0.985 . S
C1212 C1206 1.379 1_565 S
C1212 C1209 1.363 . S
C1212 N1210 1.356 . S
C1213 C1207 1.363 . S
C1213 C1208 1.379 1_545 S
C1213 N1211 1.356 . S
N1214 C1206 1.356 . S
N1214 H1220 0.984 . S
N1214 H1221 0.984 . S
N1215 C1208 1.356 . S
N1215 H1218 0.984 . S
N1215 H1219 0.985 . S
H1216 N1211 0.984 . S
H1217 N1211 0.985 . S
H1218 N1215 0.984 . S
H1219 N1215 0.985 . S
H1220 N1214 0.984 . S
H1221 N1214 0.984 . S
H1222 N1210 0.984 . S
H1223 N1210 0.985 . S
C1224 C1225 1.363 . S
C1224 C1230 1.379 . S
C1224 N1232 1.356 . S
C1225 C1224 1.363 . S
C1225 C1231 1.363 . S
C1226 C1227 1.363 . S
C1226 C1231 1.379 . S
C1226 N1233 1.356 . S
C1227 C1226 1.363 . S
C1227 C1230 1.363 . S
N1228 C1230 1.356 . S
N1228 H1240 0.984 . S
N1228 H1241 0.985 . S
N1229 C1231 1.356 . S
N1229 H1234 0.984 . S
N1229 H1235 0.985 . S
C1230 C1224 1.379 . S
C1230 C1227 1.363 . S
C1230 N1228 1.356 . S
C1231 C1225 1.363 . S
C1231 C1226 1.379 . S
C1231 N1229 1.356 . S
N1232 C1224 1.356 . S
N1232 H1238 0.984 . S
N1232 H1239 0.984 . S
N1233 C1226 1.356 . S
N1233 H1236 0.984 . S
N1233 H1237 0.985 . S
H1234 N1229 0.984 . S
H1235 N1229 0.985 . S
H1236 N1233 0.984 . S
H1237 N1233 0.985 . S
H1238 N1232 0.984 . S
H1239 N1232 0.984 . S
H1240 N1228 0.984 . S
H1241 N1228 0.985 . S
C1242 C1243 1.363 . S
C1242 C1248 1.379 . S
C1242 N1250 1.356 . S
C1243 C1242 1.363 . S
C1243 C1249 1.363 . S
C1244 C1245 1.363 . S
C1244 C1249 1.379 . S
C1244 N1251 1.356 . S
C1245 C1244 1.363 . S
C1245 C1248 1.363 . S
N1246 C1248 1.356 . S
N1246 H1258 0.984 . S
N1246 H1259 0.985 . S
N1247 C1249 1.356 . S
N1247 H1252 0.984 . S
N1247 H1253 0.985 . S
C1248 C1242 1.379 . S
C1248 C1245 1.363 . S
C1248 N1246 1.356 . S
C1249 C1243 1.363 . S
C1249 C1244 1.379 . S
C1249 N1247 1.356 . S
N1250 C1242 1.356 . S
N1250 H1256 0.984 . S
N1250 H1257 0.984 . S
N1251 C1244 1.356 . S
N1251 H1254 0.984 . S
N1251 H1255 0.985 . S
H1252 N1247 0.984 . S
H1253 N1247 0.985 . S
H1254 N1251 0.984 . S
H1255 N1251 0.985 . S
H1256 N1250 0.984 . S
H1257 N1250 0.984 . S
H1258 N1246 0.984 . S
H1259 N1246 0.985 . S
C1260 C1261 1.363 . S
C1260 C1266 1.379 . S
C1260 N1268 1.356 . S
C1261 C1260 1.363 . S
C1261 C1267 1.363 . S
C1262 C1263 1.363 . S
C1262 C1267 1.379 . S
C1262 N1269 1.356 . S
C1263 C1262 1.363 . S
C1263 C1266 1.363 . S
N1264 C1266 1.356 . S
N1264 H1276 0.984 . S
N1264 H1277 0.985 . S
N1265 C1267 1.356 . S
N1265 H1270 0.984 . S
N1265 H1271 0.985 . S
C1266 C1260 1.379 . S
C1266 C1263 1.363 . S
C1266 N1264 1.356 . S
C1267 C1261 1.363 . S
C1267 C1262 1.379 . S
C1267 N1265 1.356 . S
N1268 C1260 1.356 . S
N1268 H1274 0.984 . S
N1268 H1275 0.984 . S
N1269 C1262 1.356 . S
N1269 H1272 0.984 . S
N1269 H1273 0.985 . S
H1270 N1265 0.984 . S
H1271 N1265 0.985 . S
H1272 N1269 0.984 . S
H1273 N1269 0.985 . S
H1274 N1268 0.984 . S
H1275 N1268 0.984 . S
H1276 N1264 0.984 . S
H1277 N1264 0.985 . S
C1278 C1279 1.363 . S
C1278 C1284 1.379 . S
C1278 N1286 1.356 . S
C1279 C1278 1.363 . S
C1279 C1285 1.363 . S
C1280 C1281 1.363 . S
C1280 C1285 1.379 . S
C1280 N1287 1.356 . S
C1281 C1280 1.363 . S
C1281 C1284 1.363 . S
N1282 C1284 1.356 . S
N1282 H1294 0.984 . S
N1282 H1295 0.985 . S
N1283 C1285 1.356 . S
N1283 H1288 0.984 . S
N1283 H1289 0.985 . S
C1284 C1278 1.379 . S
C1284 C1281 1.363 . S
C1284 N1282 1.356 . S
C1285 C1279 1.363 . S
C1285 C1280 1.379 . S
C1285 N1283 1.356 . S
N1286 C1278 1.356 . S
N1286 H1292 0.984 . S
N1286 H1293 0.984 . S
N1287 C1280 1.356 . S
N1287 H1290 0.984 . S
N1287 H1291 0.985 . S
H1288 N1283 0.984 . S
H1289 N1283 0.985 . S
H1290 N1287 0.984 . S
H1291 N1287 0.985 . S
H1292 N1286 0.984 . S
H1293 N1286 0.984 . S
H1294 N1282 0.984 . S
H1295 N1282 0.985 . S
C1296 C1297 1.363 . S
C1296 C1302 1.379 . S
C1296 N1304 1.356 . S
C1297 C1296 1.363 . S
C1297 C1303 1.363 . S
C1298 C1299 1.363 . S
C1298 C1303 1.379 . S
C1298 N1305 1.356 . S
C1299 C1298 1.363 . S
C1299 C1302 1.363 . S
N1300 C1302 1.356 . S
N1300 H1312 0.984 . S
N1300 H1313 0.985 . S
N1301 C1303 1.356 . S
N1301 H1306 0.984 . S
N1301 H1307 0.985 . S
C1302 C1296 1.379 . S
C1302 C1299 1.363 . S
C1302 N1300 1.356 . S
C1303 C1297 1.363 . S
C1303 C1298 1.379 . S
C1303 N1301 1.356 . S
N1304 C1296 1.356 . S
N1304 H1310 0.984 . S
N1304 H1311 0.984 . S
N1305 C1298 1.356 . S
N1305 H1308 0.984 . S
N1305 H1309 0.985 . S
H1306 N1301 0.984 . S
H1307 N1301 0.985 . S
H1308 N1305 0.984 . S
H1309 N1305 0.985 . S
H1310 N1304 0.984 . S
H1311 N1304 0.984 . S
H1312 N1300 0.984 . S
H1313 N1300 0.985 . S
C1314 C1315 1.363 . S
C1314 C1320 1.379 . S
C1314 N1322 1.356 . S
C1315 C1314 1.363 . S
C1315 C1321 1.363 . S
C1316 C1317 1.363 . S
C1316 C1321 1.379 . S
C1316 N1323 1.356 . S
C1317 C1316 1.363 . S
C1317 C1320 1.363 . S
N1318 C1320 1.356 . S
N1318 H1330 0.984 . S
N1318 H1331 0.985 . S
N1319 C1321 1.356 . S
N1319 H1324 0.984 . S
N1319 H1325 0.985 . S
C1320 C1314 1.379 . S
C1320 C1317 1.363 . S
C1320 N1318 1.356 . S
C1321 C1315 1.363 . S
C1321 C1316 1.379 . S
C1321 N1319 1.356 . S
N1322 C1314 1.356 . S
N1322 H1328 0.984 . S
N1322 H1329 0.984 . S
N1323 C1316 1.356 . S
N1323 H1326 0.984 . S
N1323 H1327 0.985 . S
H1324 N1319 0.984 . S
H1325 N1319 0.985 . S
H1326 N1323 0.984 . S
H1327 N1323 0.985 . S
H1328 N1322 0.984 . S
H1329 N1322 0.984 . S
H1330 N1318 0.984 . S
H1331 N1318 0.985 . S
C1332 C1333 1.363 . S
C1332 C1338 1.379 . S
C1332 N1340 1.356 1_565 S
C1333 C1332 1.363 . S
C1333 C1339 1.363 . S
C1334 C1335 1.363 . S
C1334 C1339 1.379 . S
C1334 N1341 1.356 . S
C1335 C1334 1.363 . S
C1335 C1338 1.363 . S
N1336 C1338 1.356 . S
N1336 H1348 0.984 . S
N1336 H1349 0.985 . S
N1337 C1339 1.356 . S
N1337 H1342 0.984 1_565 S
N1337 H1343 0.985 . S
C1338 C1332 1.379 . S
C1338 C1335 1.363 . S
C1338 N1336 1.356 . S
C1339 C1333 1.363 . S
C1339 C1334 1.379 . S
C1339 N1337 1.356 . S
N1340 C1332 1.356 1_545 S
N1340 H1346 0.984 . S
N1340 H1347 0.984 . S
N1341 C1334 1.356 . S
N1341 H1344 0.984 . S
N1341 H1345 0.985 . S
H1342 N1337 0.984 1_545 S
H1343 N1337 0.985 . S
H1344 N1341 0.984 . S
H1345 N1341 0.985 . S
H1346 N1340 0.984 . S
H1347 N1340 0.984 . S
H1348 N1336 0.984 . S
H1349 N1336 0.985 . S
C1350 C1351 1.363 . S
C1350 C1356 1.379 . S
C1350 N1358 1.356 . S
C1351 C1350 1.363 . S
C1351 C1357 1.363 . S
C1352 C1353 1.363 . S
C1352 C1357 1.379 . S
C1352 N1359 1.356 . S
C1353 C1352 1.363 . S
C1353 C1356 1.363 . S
N1354 C1356 1.356 . S
N1354 H1366 0.984 . S
N1354 H1367 0.985 . S
N1355 C1357 1.346 1_655 S
N1355 H1360 1.000 . S
N1355 H1361 0.980 . S
C1356 C1350 1.379 . S
C1356 C1353 1.363 . S
C1356 N1354 1.356 . S
C1357 C1351 1.363 . S
C1357 C1352 1.379 . S
C1357 N1355 1.346 1_455 S
N1358 C1350 1.356 . S
N1358 H1364 0.984 . S
N1358 H1365 0.984 . S
N1359 C1352 1.356 . S
N1359 H1362 0.984 . S
N1359 H1363 0.985 . S
H1360 N1355 1.000 . S
H1361 N1355 0.980 . S
H1362 N1359 0.984 . S
H1363 N1359 0.985 . S
H1364 N1358 0.984 . S
H1365 N1358 0.984 . S
H1366 N1354 0.984 . S
H1367 N1354 0.985 . S
C1368 C1369 1.363 . S
C1368 C1374 1.379 . S
C1368 N1376 1.356 . S
C1369 C1368 1.363 . S
C1369 C1375 1.363 . S
C1370 C1371 1.363 . S
C1370 C1375 1.379 . S
C1370 N1377 1.356 . S
C1371 C1370 1.363 . S
C1371 C1374 1.363 . S
N1372 C1374 1.356 . S
N1372 H1384 0.984 . S
N1372 H1385 0.985 . S
N1373 C1375 1.356 . S
N1373 H1378 0.984 . S
N1373 H1379 0.985 . S
C1374 C1368 1.379 . S
C1374 C1371 1.363 . S
C1374 N1372 1.356 . S
C1375 C1369 1.363 . S
C1375 C1370 1.379 . S
C1375 N1373 1.356 . S
N1376 C1368 1.356 . S
N1376 H1382 0.984 . S
N1376 H1383 0.984 . S
N1377 C1370 1.356 . S
N1377 H1380 0.984 . S
N1377 H1381 0.985 . S
H1378 N1373 0.984 . S
H1379 N1373 0.985 . S
H1380 N1377 0.984 . S
H1381 N1377 0.985 . S
H1382 N1376 0.984 . S
H1383 N1376 0.984 . S
H1384 N1372 0.984 . S
H1385 N1372 0.985 . S
C1386 C1387 1.363 . S
C1386 C1392 1.379 . S
C1386 N1394 1.356 . S
C1387 C1386 1.363 . S
C1387 C1393 1.363 . S
C1388 C1389 1.363 . S
C1388 C1393 1.379 . S
C1388 N1395 1.356 . S
C1389 C1388 1.363 . S
C1389 C1392 1.363 . S
N1390 C1392 1.356 . S
N1390 H1402 0.984 . S
N1390 H1403 0.985 . S
N1391 C1393 1.356 . S
N1391 H1396 0.984 . S
N1391 H1397 0.985 . S
C1392 C1386 1.379 . S
C1392 C1389 1.363 . S
C1392 N1390 1.356 . S
C1393 C1387 1.363 . S
C1393 C1388 1.379 . S
C1393 N1391 1.356 . S
N1394 C1386 1.356 . S
N1394 H1400 0.984 . S
N1394 H1401 0.984 . S
N1395 C1388 1.356 . S
N1395 H1398 0.984 . S
N1395 H1399 0.985 . S
H1396 N1391 0.984 . S
H1397 N1391 0.985 . S
H1398 N1395 0.984 . S
H1399 N1395 0.985 . S
H1400 N1394 0.984 . S
H1401 N1394 0.984 . S
H1402 N1390 0.984 . S
H1403 N1390 0.985 . S
C1404 C1405 1.363 . S
C1404 C1410 1.379 . S
C1404 N1412 1.356 . S
C1405 C1404 1.363 . S
C1405 C1411 1.363 . S
C1406 C1407 1.363 . S
C1406 C1411 1.379 . S
C1406 N1413 1.356 . S
C1407 C1406 1.363 . S
C1407 C1410 1.363 . S
N1408 C1410 1.356 . S
N1408 H1420 0.984 . S
N1408 H1421 0.985 . S
N1409 C1411 1.356 . S
N1409 H1414 0.984 . S
N1409 H1415 0.985 . S
C1410 C1404 1.379 . S
C1410 C1407 1.363 . S
C1410 N1408 1.356 . S
C1411 C1405 1.363 . S
C1411 C1406 1.379 . S
C1411 N1409 1.356 . S
N1412 C1404 1.356 . S
N1412 H1418 0.984 . S
N1412 H1419 0.984 . S
N1413 C1406 1.356 . S
N1413 H1416 0.984 . S
N1413 H1417 0.985 . S
H1414 N1409 0.984 . S
H1415 N1409 0.985 . S
H1416 N1413 0.984 . S
H1417 N1413 0.985 . S
H1418 N1412 0.984 . S
H1419 N1412 0.984 . S
H1420 N1408 0.984 . S
H1421 N1408 0.985 . S
C1422 C1423 1.363 . S
C1422 C1428 1.379 . S
C1422 N1430 1.356 . S
C1423 C1422 1.363 . S
C1423 C1429 1.363 . S
C1424 C1425 1.363 . S
C1424 C1429 1.379 . S
C1424 N1431 1.356 . S
C1425 C1424 1.363 . S
C1425 C1428 1.363 . S
N1426 C1428 1.356 . S
N1426 H1438 0.984 . S
N1426 H1439 0.985 . S
N1427 C1429 1.356 . S
N1427 H1432 0.984 . S
N1427 H1433 0.985 . S
C1428 C1422 1.379 . S
C1428 C1425 1.363 . S
C1428 N1426 1.356 . S
C1429 C1423 1.363 . S
C1429 C1424 1.379 . S
C1429 N1427 1.356 . S
N1430 C1422 1.356 . S
N1430 H1436 0.984 . S
N1430 H1437 0.984 . S
N1431 C1424 1.356 . S
N1431 H1434 0.984 . S
N1431 H1435 0.985 . S
H1432 N1427 0.984 . S
H1433 N1427 0.985 . S
H1434 N1431 0.984 . S
H1435 N1431 0.985 . S
H1436 N1430 0.984 . S
H1437 N1430 0.984 . S
H1438 N1426 0.984 . S
H1439 N1426 0.985 . S
C1440 C1441 1.363 . S
C1440 C1446 1.379 1_565 S
C1440 N1448 1.356 . S
C1441 C1440 1.363 . S
C1441 C1447 1.363 . S
C1442 C1443 1.363 . S
C1442 C1447 1.379 1_545 S
C1442 N1449 1.356 . S
C1443 C1442 1.363 . S
C1443 C1446 1.363 . S
N1444 C1446 1.356 . S
N1444 H1456 0.984 . S
N1444 H1457 0.985 . S
N1445 C1447 1.356 . S
N1445 H1450 0.984 . S
N1445 H1451 0.985 . S
C1446 C1440 1.379 1_545 S
C1446 C1443 1.363 . S
C1446 N1444 1.356 . S
C1447 C1441 1.363 . S
C1447 C1442 1.379 1_565 S
C1447 N1445 1.356 . S
N1448 C1440 1.356 . S
N1448 H1454 0.984 . S
N1448 H1455 0.984 . S
N1449 C1442 1.356 . S
N1449 H1452 0.984 . S
N1449 H1453 0.985 . S
H1450 N1445 0.984 . S
H1451 N1445 0.985 . S
H1452 N1449 0.984 . S
H1453 N1449 0.985 . S
H1454 N1448 0.984 . S
H1455 N1448 0.984 . S
H1456 N1444 0.984 . S
H1457 N1444 0.985 . S
C1458 C1459 1.363 . S
C1458 C1464 1.379 . S
C1458 N1466 1.356 . S
C1459 C1458 1.363 . S
C1459 C1465 1.352 1_455 S
C1460 C1461 1.363 . S
C1460 C1465 1.392 . S
C1460 N1467 1.356 . S
C1461 C1460 1.363 . S
C1461 C1464 1.363 1_655 S
N1462 C1464 1.356 1_655 S
N1462 H1474 0.984 1_655 S
N1462 H1475 0.985 . S
N1463 C1465 1.350 1_455 S
N1463 H1468 0.984 . S
N1463 H1469 0.985 1_455 S
C1464 C1458 1.379 . S
C1464 C1461 1.363 1_455 S
C1464 N1462 1.356 1_455 S
C1465 C1459 1.352 1_655 S
C1465 C1460 1.392 . S
C1465 N1463 1.350 1_655 S
N1466 C1458 1.356 . S
N1466 H1472 0.984 . S
N1466 H1473 0.984 . S
N1467 C1460 1.356 . S
N1467 H1470 0.984 . S
N1467 H1471 0.985 . S
H1468 N1463 0.984 . S
H1469 N1463 0.985 1_655 S
H1470 N1467 0.984 . S
H1471 N1467 0.985 . S
H1472 N1466 0.984 . S
H1473 N1466 0.984 . S
H1474 N1462 0.984 1_455 S
H1475 N1462 0.985 . S
C1476 C1477 1.363 . S
C1476 C1482 1.379 . S
C1476 N1484 1.356 . S
C1477 C1476 1.363 . S
C1477 C1483 1.363 . S
C1478 C1479 1.363 . S
C1478 C1483 1.379 . S
C1478 N1485 1.356 . S
C1479 C1478 1.363 . S
C1479 C1482 1.363 . S
N1480 C1482 1.356 . S
N1480 H1492 0.984 . S
N1480 H1493 0.985 . S
N1481 C1483 1.356 . S
N1481 H1486 0.984 . S
N1481 H1487 0.985 . S
C1482 C1476 1.379 . S
C1482 C1479 1.363 . S
C1482 N1480 1.356 . S
C1483 C1477 1.363 . S
C1483 C1478 1.379 . S
C1483 N1481 1.356 . S
N1484 C1476 1.356 . S
N1484 H1490 0.984 . S
N1484 H1491 0.984 . S
N1485 C1478 1.356 . S
N1485 H1488 0.984 . S
N1485 H1489 0.985 . S
H1486 N1481 0.984 . S
H1487 N1481 0.985 . S
H1488 N1485 0.984 . S
H1489 N1485 0.985 . S
H1490 N1484 0.984 . S
H1491 N1484 0.984 . S
H1492 N1480 0.984 . S
H1493 N1480 0.985 . S
C1494 C1495 1.363 . S
C1494 C1500 1.379 . S
C1494 N1502 1.356 1_655 S
C1495 C1494 1.363 . S
C1495 C1501 1.363 . S
C1496 C1497 1.363 . S
C1496 C1501 1.379 . S
C1496 N1503 1.356 . S
C1497 C1496 1.363 . S
C1497 C1500 1.363 . S
N1498 C1500 1.356 . S
N1498 H1510 0.984 . S
N1498 H1511 0.985 . S
N1499 C1501 1.356 . S
N1499 H1504 0.981 . S
N1499 H1505 0.985 . S
C1500 C1494 1.379 . S
C1500 C1497 1.363 . S
C1500 N1498 1.356 . S
C1501 C1495 1.363 . S
C1501 C1496 1.379 . S
C1501 N1499 1.356 . S
N1502 C1494 1.356 1_455 S
N1502 H1508 0.984 . S
N1502 H1509 0.984 . S
N1503 C1496 1.356 . S
N1503 H1506 0.984 . S
N1503 H1507 0.985 . S
H1504 N1499 0.981 . S
H1505 N1499 0.985 . S
H1506 N1503 0.984 . S
H1507 N1503 0.985 . S
H1508 N1502 0.984 . S
H1509 N1502 0.984 . S
H1510 N1498 0.984 . S
H1511 N1498 0.985 . S
C1512 C1513 1.363 . S
C1512 C1518 1.379 . S
C1512 N1520 1.356 . S
C1513 C1512 1.363 . S
C1513 C1519 1.363 . S
C1514 C1515 1.363 . S
C1514 C1519 1.379 . S
C1514 N1521 1.356 . S
C1515 C1514 1.363 . S
C1515 C1518 1.363 . S
N1516 C1518 1.356 . S
N1516 H1528 0.984 . S
N1516 H1529 0.985 . S
N1517 C1519 1.356 . S
N1517 H1522 0.984 . S
N1517 H1523 0.985 . S
C1518 C1512 1.379 . S
C1518 C1515 1.363 . S
C1518 N1516 1.356 . S
C1519 C1513 1.363 . S
C1519 C1514 1.379 . S
C1519 N1517 1.356 . S
N1520 C1512 1.356 . S
N1520 H1526 0.984 . S
N1520 H1527 0.984 . S
N1521 C1514 1.356 . S
N1521 H1524 0.984 . S
N1521 H1525 0.985 . S
H1522 N1517 0.984 . S
H1523 N1517 0.985 . S
H1524 N1521 0.984 . S
H1525 N1521 0.985 . S
H1526 N1520 0.984 . S
H1527 N1520 0.984 . S
H1528 N1516 0.984 . S
H1529 N1516 0.985 . S
C1530 C1531 1.363 . S
C1530 C1536 1.379 . S
C1530 N1538 1.356 1_545 S
C1531 C1530 1.363 . S
C1531 C1537 1.363 . S
C1532 C1533 1.363 . S
C1532 C1537 1.379 . S
C1532 N1539 1.356 . S
C1533 C1532 1.363 . S
C1533 C1536 1.363 . S
N1534 C1536 1.356 . S
N1534 H1546 0.984 . S
N1534 H1547 0.985 . S
N1535 C1537 1.356 . S
N1535 H1540 0.984 1_545 S
N1535 H1541 0.985 . S
C1536 C1530 1.379 . S
C1536 C1533 1.363 . S
C1536 N1534 1.356 . S
C1537 C1531 1.363 . S
C1537 C1532 1.379 . S
C1537 N1535 1.356 . S
N1538 C1530 1.356 1_565 S
N1538 H1544 0.984 . S
N1538 H1545 0.984 . S
N1539 C1532 1.356 . S
N1539 H1542 0.984 . S
N1539 H1543 0.985 . S
H1540 N1535 0.984 1_565 S
H1541 N1535 0.985 . S
H1542 N1539 0.984 . S
H1543 N1539 0.985 . S
H1544 N1538 0.984 . S
H1545 N1538 0.984 . S
H1546 N1534 0.984 . S
H1547 N1534 0.985 . S
C1548 C1549 1.363 . S
C1548 C1554 1.379 . S
C1548 N1556 1.356 . S
C1549 C1548 1.363 . S
C1549 C1555 1.363 . S
C1550 C1551 1.363 . S
C1550 C1555 1.379 . S
C1550 N1557 1.356 . S
C1551 C1550 1.363 . S
C1551 C1554 1.363 . S
N1552 C1554 1.356 . S
N1552 H1564 0.984 . S
N1552 H1565 0.985 . S
N1553 C1555 1.356 . S
N1553 H1558 0.984 . S
N1553 H1559 0.985 . S
C1554 C1548 1.379 . S
C1554 C1551 1.363 . S
C1554 N1552 1.356 . S
C1555 C1549 1.363 . S
C1555 C1550 1.379 . S
C1555 N1553 1.356 . S
N1556 C1548 1.356 . S
N1556 H1562 0.984 . S
N1556 H1563 0.984 . S
N1557 C1550 1.356 . S
N1557 H1560 0.984 . S
N1557 H1561 0.985 . S
H1558 N1553 0.984 . S
H1559 N1553 0.985 . S
H1560 N1557 0.984 . S
H1561 N1557 0.985 . S
H1562 N1556 0.984 . S
H1563 N1556 0.984 . S
H1564 N1552 0.984 . S
H1565 N1552 0.985 . S
C1566 C1567 1.363 . S
C1566 C1572 1.379 . S
C1566 N1574 1.356 . S
C1567 C1566 1.363 . S
C1567 C1573 1.363 . S
C1568 C1569 1.363 . S
C1568 C1573 1.379 . S
C1568 N1575 1.356 . S
C1569 C1568 1.363 . S
C1569 C1572 1.363 . S
N1570 C1572 1.356 . S
N1570 H1582 0.984 . S
N1570 H1583 0.985 . S
N1571 C1573 1.356 . S
N1571 H1576 0.984 . S
N1571 H1577 0.985 . S
C1572 C1566 1.379 . S
C1572 C1569 1.363 . S
C1572 N1570 1.356 . S
C1573 C1567 1.363 . S
C1573 C1568 1.379 . S
C1573 N1571 1.356 . S
N1574 C1566 1.356 . S
N1574 H1580 0.984 . S
N1574 H1581 0.984 . S
N1575 C1568 1.356 . S
N1575 H1578 0.984 . S
N1575 H1579 0.985 . S
H1576 N1571 0.984 . S
H1577 N1571 0.985 . S
H1578 N1575 0.984 . S
H1579 N1575 0.985 . S
H1580 N1574 0.984 . S
H1581 N1574 0.984 . S
H1582 N1570 0.984 . S
H1583 N1570 0.985 . S
C1584 C1585 1.363 . S
C1584 C1590 1.379 . S
C1584 N1592 1.356 . S
C1585 C1584 1.363 . S
C1585 C1591 1.363 . S
C1586 C1587 1.363 . S
C1586 C1591 1.379 . S
C1586 N1593 1.356 . S
C1587 C1586 1.363 . S
C1587 C1590 1.363 . S
N1588 C1590 1.356 . S
N1588 H1600 0.984 . S
N1588 H1601 0.985 . S
N1589 C1591 1.356 . S
N1589 H1594 0.984 . S
N1589 H1595 0.985 . S
C1590 C1584 1.379 . S
C1590 C1587 1.363 . S
C1590 N1588 1.356 . S
C1591 C1585 1.363 . S
C1591 C1586 1.379 . S
C1591 N1589 1.356 . S
N1592 C1584 1.356 . S
N1592 H1598 0.984 . S
N1592 H1599 0.984 . S
N1593 C1586 1.356 . S
N1593 H1596 0.984 . S
N1593 H1597 0.985 . S
H1594 N1589 0.984 . S
H1595 N1589 0.985 . S
H1596 N1593 0.984 . S
H1597 N1593 0.985 . S
H1598 N1592 0.984 . S
H1599 N1592 0.984 . S
H1600 N1588 0.984 . S
H1601 N1588 0.985 . S
C1602 C1603 1.363 . S
C1602 C1608 1.379 . S
C1602 N1610 1.356 . S
C1603 C1602 1.363 . S
C1603 C1609 1.363 . S
C1604 C1605 1.363 . S
C1604 C1609 1.379 . S
C1604 N1611 1.356 . S
C1605 C1604 1.363 . S
C1605 C1608 1.363 . S
N1606 C1608 1.356 . S
N1606 H1618 0.984 . S
N1606 H1619 0.985 . S
N1607 C1609 1.356 . S
N1607 H1612 0.984 . S
N1607 H1613 0.985 . S
C1608 C1602 1.379 . S
C1608 C1605 1.363 . S
C1608 N1606 1.356 . S
C1609 C1603 1.363 . S
C1609 C1604 1.379 . S
C1609 N1607 1.356 . S
N1610 C1602 1.356 . S
N1610 H1616 0.984 . S
N1610 H1617 0.984 . S
N1611 C1604 1.356 . S
N1611 H1614 0.984 . S
N1611 H1615 0.985 . S
H1612 N1607 0.984 . S
H1613 N1607 0.985 . S
H1614 N1611 0.984 . S
H1615 N1611 0.985 . S
H1616 N1610 0.984 . S
H1617 N1610 0.984 . S
H1618 N1606 0.984 . S
H1619 N1606 0.985 . S
C1620 C1621 1.363 . S
C1620 C1626 1.379 . S
C1620 N1628 1.356 . S
C1621 C1620 1.363 . S
C1621 C1627 1.363 . S
C1622 C1623 1.363 . S
C1622 C1627 1.379 . S
C1622 N1629 1.356 . S
C1623 C1622 1.363 . S
C1623 C1626 1.363 . S
N1624 C1626 1.356 . S
N1624 H1636 0.984 . S
N1624 H1637 0.985 . S
N1625 C1627 1.356 . S
N1625 H1630 0.984 . S
N1625 H1631 0.985 . S
C1626 C1620 1.379 . S
C1626 C1623 1.363 . S
C1626 N1624 1.356 . S
C1627 C1621 1.363 . S
C1627 C1622 1.379 . S
C1627 N1625 1.356 . S
N1628 C1620 1.356 . S
N1628 H1634 0.984 . S
N1628 H1635 0.984 . S
N1629 C1622 1.356 . S
N1629 H1632 0.984 . S
N1629 H1633 0.985 . S
H1630 N1625 0.984 . S
H1631 N1625 0.985 . S
H1632 N1629 0.984 . S
H1633 N1629 0.985 . S
H1634 N1628 0.984 . S
H1635 N1628 0.984 . S
H1636 N1624 0.984 . S
H1637 N1624 0.985 . S
C1638 C1639 1.363 . S
C1638 C1644 1.379 . S
C1638 N1646 1.356 . S
C1639 C1638 1.363 . S
C1639 C1645 1.363 . S
C1640 C1641 1.363 . S
C1640 C1645 1.379 . S
C1640 N1647 1.356 . S
C1641 C1640 1.363 . S
C1641 C1644 1.363 . S
N1642 C1644 1.356 . S
N1642 H1654 0.984 . S
N1642 H1655 0.985 . S
N1643 C1645 1.356 . S
N1643 H1648 0.984 . S
N1643 H1649 0.985 . S
C1644 C1638 1.379 . S
C1644 C1641 1.363 . S
C1644 N1642 1.356 . S
C1645 C1639 1.363 . S
C1645 C1640 1.379 . S
C1645 N1643 1.356 . S
N1646 C1638 1.356 . S
N1646 H1652 0.984 . S
N1646 H1653 0.984 . S
N1647 C1640 1.356 . S
N1647 H1650 0.984 . S
N1647 H1651 0.985 . S
H1648 N1643 0.984 . S
H1649 N1643 0.985 . S
H1650 N1647 0.984 . S
H1651 N1647 0.985 . S
H1652 N1646 0.984 . S
H1653 N1646 0.984 . S
H1654 N1642 0.984 . S
H1655 N1642 0.985 . S
C1656 C1657 1.363 . S
C1656 C1662 1.379 . S
C1656 N1664 1.356 . S
C1657 C1656 1.363 . S
C1657 C1663 1.363 . S
C1658 C1659 1.363 . S
C1658 C1663 1.379 . S
C1658 N1665 1.356 . S
C1659 C1658 1.363 . S
C1659 C1662 1.363 . S
N1660 C1662 1.356 . S
N1660 H1672 0.984 . S
N1660 H1673 0.985 . S
N1661 C1663 1.356 . S
N1661 H1666 0.984 . S
N1661 H1667 0.985 . S
C1662 C1656 1.379 . S
C1662 C1659 1.363 . S
C1662 N1660 1.356 . S
C1663 C1657 1.363 . S
C1663 C1658 1.379 . S
C1663 N1661 1.356 . S
N1664 C1656 1.356 . S
N1664 H1670 0.984 . S
N1664 H1671 0.984 . S
N1665 C1658 1.356 . S
N1665 H1668 0.984 . S
N1665 H1669 0.985 1_655 S
H1666 N1661 0.984 . S
H1667 N1661 0.985 . S
H1668 N1665 0.984 . S
H1669 N1665 0.985 1_455 S
H1670 N1664 0.984 . S
H1671 N1664 0.984 . S
H1672 N1660 0.984 . S
H1673 N1660 0.985 . S
C1674 C1675 1.363 . S
C1674 C1680 1.379 . S
C1674 N1682 1.356 . S
C1675 C1674 1.363 . S
C1675 C1681 1.363 . S
C1676 C1677 1.363 . S
C1676 C1681 1.379 . S
C1676 N1683 1.356 . S
C1677 C1676 1.363 . S
C1677 C1680 1.363 . S
N1678 C1680 1.356 . S
N1678 H1690 0.984 . S
N1678 H1691 0.985 . S
N1679 C1681 1.356 . S
N1679 H1684 0.984 . S
N1679 H1685 0.985 . S
C1680 C1674 1.379 . S
C1680 C1677 1.363 . S
C1680 N1678 1.356 . S
C1681 C1675 1.363 . S
C1681 C1676 1.379 . S
C1681 N1679 1.356 . S
N1682 C1674 1.356 . S
N1682 H1688 0.984 . S
N1682 H1689 0.984 . S
N1683 C1676 1.356 . S
N1683 H1686 0.984 . S
N1683 H1687 0.985 . S
H1684 N1679 0.984 . S
H1685 N1679 0.985 . S
H1686 N1683 0.984 . S
H1687 N1683 0.985 . S
H1688 N1682 0.984 . S
H1689 N1682 0.984 . S
H1690 N1678 0.984 . S
H1691 N1678 0.985 . S
C1692 C1693 1.363 . S
C1692 C1698 1.379 . S
C1692 N1700 1.356 . S
C1693 C1692 1.363 . S
C1693 C1699 1.363 . S
C1694 C1695 1.363 . S
C1694 C1699 1.379 . S
C1694 N1701 1.356 . S
C1695 C1694 1.363 . S
C1695 C1698 1.363 . S
N1696 C1698 1.356 . S
N1696 H1708 0.984 . S
N1696 H1709 0.985 . S
N1697 C1699 1.356 . S
N1697 H1702 0.984 . S
N1697 H1703 0.985 . S
C1698 C1692 1.379 . S
C1698 C1695 1.363 . S
C1698 N1696 1.356 . S
C1699 C1693 1.363 . S
C1699 C1694 1.379 . S
C1699 N1697 1.356 . S
N1700 C1692 1.356 . S
N1700 H1706 0.984 . S
N1700 H1707 0.984 . S
N1701 C1694 1.356 . S
N1701 H1704 0.984 . S
N1701 H1705 0.985 . S
H1702 N1697 0.984 . S
H1703 N1697 0.985 . S
H1704 N1701 0.984 . S
H1705 N1701 0.985 . S
H1706 N1700 0.984 . S
H1707 N1700 0.984 . S
H1708 N1696 0.984 . S
H1709 N1696 0.985 . S
C1710 C1711 1.363 . S
C1710 C1716 1.379 . S
C1710 N1718 1.356 . S
C1711 C1710 1.363 . S
C1711 C1717 1.363 . S
C1712 C1713 1.363 . S
C1712 C1717 1.379 . S
C1712 N1719 1.356 . S
C1713 C1712 1.363 . S
C1713 C1716 1.363 . S
N1714 C1716 1.356 . S
N1714 H1726 0.984 . S
N1714 H1727 0.985 . S
N1715 C1717 1.356 . S
N1715 H1720 0.984 . S
N1715 H1721 0.985 . S
C1716 C1710 1.379 . S
C1716 C1713 1.363 . S
C1716 N1714 1.356 . S
C1717 C1711 1.363 . S
C1717 C1712 1.379 . S
C1717 N1715 1.356 . S
N1718 C1710 1.356 . S
N1718 H1724 0.984 . S
N1718 H1725 0.984 . S
N1719 C1712 1.356 . S
N1719 H1722 0.984 . S
N1719 H1723 0.985 . S
H1720 N1715 0.984 . S
H1721 N1715 0.985 . S
H1722 N1719 0.984 . S
H1723 N1719 0.985 . S
H1724 N1718 0.984 . S
H1725 N1718 0.984 . S
H1726 N1714 0.984 . S
H1727 N1714 0.985 . S
C1728 C1729 1.363 . S
C1728 C1734 1.379 . S
C1728 N1736 1.356 . S
C1729 C1728 1.363 . S
C1729 C1735 1.363 . S
C1730 C1731 1.363 . S
C1730 C1735 1.379 . S
C1730 N1737 1.356 . S
C1731 C1730 1.363 . S
C1731 C1734 1.363 . S
N1732 C1734 1.356 . S
N1732 H1744 0.984 . S
N1732 H1745 0.985 . S
N1733 C1735 1.356 . S
N1733 H1738 0.984 . S
N1733 H1739 0.985 . S
C1734 C1728 1.379 . S
C1734 C1731 1.363 . S
C1734 N1732 1.356 . S
C1735 C1729 1.363 . S
C1735 C1730 1.379 . S
C1735 N1733 1.356 . S
N1736 C1728 1.356 . S
N1736 H1742 0.984 . S
N1736 H1743 0.984 . S
N1737 C1730 1.356 . S
N1737 H1740 0.984 . S
N1737 H1741 0.985 . S
H1738 N1733 0.984 . S
H1739 N1733 0.985 . S
H1740 N1737 0.984 . S
H1741 N1737 0.985 . S
H1742 N1736 0.984 . S
H1743 N1736 0.984 . S
H1744 N1732 0.984 . S
H1745 N1732 0.985 . S
C1746 C1747 1.363 . S
C1746 C1752 1.379 . S
C1746 N1754 1.356 . S
C1747 C1746 1.363 . S
C1747 C1753 1.363 . S
C1748 C1749 1.363 . S
C1748 C1753 1.379 . S
C1748 N1755 1.356 . S
C1749 C1748 1.363 . S
C1749 C1752 1.363 . S
N1750 C1752 1.356 . S
N1750 H1762 0.984 . S
N1750 H1763 0.985 . S
N1751 C1753 1.356 . S
N1751 H1756 0.984 . S
N1751 H1757 0.985 . S
C1752 C1746 1.379 . S
C1752 C1749 1.363 . S
C1752 N1750 1.356 . S
C1753 C1747 1.363 . S
C1753 C1748 1.379 . S
C1753 N1751 1.356 . S
N1754 C1746 1.356 . S
N1754 H1760 0.984 . S
N1754 H1761 0.984 . S
N1755 C1748 1.356 . S
N1755 H1758 0.984 . S
N1755 H1759 0.985 . S
H1756 N1751 0.984 . S
H1757 N1751 0.985 . S
H1758 N1755 0.984 . S
H1759 N1755 0.985 . S
H1760 N1754 0.984 . S
H1761 N1754 0.984 . S
H1762 N1750 0.984 . S
H1763 N1750 0.985 . S
C1764 C1765 1.363 . S
C1764 C1770 1.379 . S
C1764 N1772 1.356 . S
C1765 C1764 1.363 . S
C1765 C1771 1.363 . S
C1766 C1767 1.363 . S
C1766 C1771 1.379 . S
C1766 N1773 1.356 . S
C1767 C1766 1.363 . S
C1767 C1770 1.363 . S
N1768 C1770 1.356 . S
N1768 H1780 0.984 . S
N1768 H1781 0.985 . S
N1769 C1771 1.356 . S
N1769 H1774 0.984 . S
N1769 H1775 0.985 . S
C1770 C1764 1.379 . S
C1770 C1767 1.363 . S
C1770 N1768 1.356 . S
C1771 C1765 1.363 . S
C1771 C1766 1.379 . S
C1771 N1769 1.356 . S
N1772 C1764 1.356 . S
N1772 H1778 0.984 . S
N1772 H1779 0.984 . S
N1773 C1766 1.356 . S
N1773 H1776 0.984 . S
N1773 H1777 0.985 . S
H1774 N1769 0.984 . S
H1775 N1769 0.985 . S
H1776 N1773 0.984 . S
H1777 N1773 0.985 . S
H1778 N1772 0.984 . S
H1779 N1772 0.984 . S
H1780 N1768 0.984 . S
H1781 N1768 0.985 . S
C1782 C1783 1.363 . S
C1782 C1788 1.379 . S
C1782 N1790 1.356 . S
C1783 C1782 1.363 . S
C1783 C1789 1.363 . S
C1784 C1785 1.363 . S
C1784 C1789 1.379 . S
C1784 N1791 1.356 . S
C1785 C1784 1.363 . S
C1785 C1788 1.363 . S
N1786 C1788 1.356 . S
N1786 H1798 0.984 . S
N1786 H1799 0.985 . S
N1787 C1789 1.356 . S
N1787 H1792 0.984 . S
N1787 H1793 0.985 . S
C1788 C1782 1.379 . S
C1788 C1785 1.363 . S
C1788 N1786 1.356 . S
C1789 C1783 1.363 . S
C1789 C1784 1.379 . S
C1789 N1787 1.356 . S
N1790 C1782 1.356 . S
N1790 H1796 0.984 . S
N1790 H1797 0.984 . S
N1791 C1784 1.356 . S
N1791 H1794 0.984 . S
N1791 H1795 0.985 . S
H1792 N1787 0.984 . S
H1793 N1787 0.985 . S
H1794 N1791 0.984 . S
H1795 N1791 0.985 . S
H1796 N1790 0.984 . S
H1797 N1790 0.984 . S
H1798 N1786 0.984 . S
H1799 N1786 0.985 . S
C1800 C1801 1.363 . S
C1800 C1806 1.379 . S
C1800 N1808 1.356 . S
C1801 C1800 1.363 . S
C1801 C1807 1.363 . S
C1802 C1803 1.363 . S
C1802 C1807 1.379 . S
C1802 N1809 1.356 . S
C1803 C1802 1.363 . S
C1803 C1806 1.363 . S
N1804 C1806 1.356 . S
N1804 H1816 0.984 . S
N1804 H1817 0.985 . S
N1805 C1807 1.356 . S
N1805 H1810 0.984 . S
N1805 H1811 0.985 . S
C1806 C1800 1.379 . S
C1806 C1803 1.363 . S
C1806 N1804 1.356 . S
C1807 C1801 1.363 . S
C1807 C1802 1.379 . S
C1807 N1805 1.356 . S
N1808 C1800 1.356 . S
N1808 H1814 0.984 . S
N1808 H1815 0.984 . S
N1809 C1802 1.356 . S
N1809 H1812 0.984 . S
N1809 H1813 0.985 . S
H1810 N1805 0.984 . S
H1811 N1805 0.985 . S
H1812 N1809 0.984 . S
H1813 N1809 0.985 . S
H1814 N1808 0.984 . S
H1815 N1808 0.984 . S
H1816 N1804 0.984 . S
H1817 N1804 0.985 . S
C1818 C1819 1.363 . S
C1818 C1824 1.379 . S
C1818 N1826 1.356 . S
C1819 C1818 1.363 . S
C1819 C1825 1.363 . S
C1820 C1821 1.363 . S
C1820 C1825 1.379 . S
C1820 N1827 1.356 . S
C1821 C1820 1.363 . S
C1821 C1824 1.363 . S
N1822 C1824 1.356 . S
N1822 H1834 0.984 . S
N1822 H1835 0.985 . S
N1823 C1825 1.356 . S
N1823 H1828 0.984 . S
N1823 H1829 0.985 . S
C1824 C1818 1.379 . S
C1824 C1821 1.363 . S
C1824 N1822 1.356 . S
C1825 C1819 1.363 . S
C1825 C1820 1.379 . S
C1825 N1823 1.356 . S
N1826 C1818 1.356 . S
N1826 H1832 0.984 . S
N1826 H1833 0.984 . S
N1827 C1820 1.356 . S
N1827 H1830 0.984 . S
N1827 H1831 0.985 . S
H1828 N1823 0.984 . S
H1829 N1823 0.985 . S
H1830 N1827 0.984 . S
H1831 N1827 0.985 . S
H1832 N1826 0.984 . S
H1833 N1826 0.984 . S
H1834 N1822 0.984 . S
H1835 N1822 0.985 . S
C1836 C1837 1.363 . S
C1836 C1842 1.379 . S
C1836 N1844 1.356 . S
C1837 C1836 1.363 . S
C1837 C1843 1.363 . S
C1838 C1839 1.363 . S
C1838 C1843 1.379 . S
C1838 N1845 1.356 . S
C1839 C1838 1.363 . S
C1839 C1842 1.363 . S
N1840 C1842 1.356 . S
N1840 H1852 0.984 . S
N1840 H1853 0.985 . S
N1841 C1843 1.356 . S
N1841 H1846 0.984 . S
N1841 H1847 0.985 . S
C1842 C1836 1.379 . S
C1842 C1839 1.363 . S
C1842 N1840 1.356 . S
C1843 C1837 1.363 . S
C1843 C1838 1.379 . S
C1843 N1841 1.356 . S
N1844 C1836 1.356 . S
N1844 H1850 0.984 . S
N1844 H1851 0.984 . S
N1845 C1838 1.356 . S
N1845 H1848 0.984 . S
N1845 H1849 0.985 . S
H1846 N1841 0.984 . S
H1847 N1841 0.985 . S
H1848 N1845 0.984 . S
H1849 N1845 0.985 . S
H1850 N1844 0.984 . S
H1851 N1844 0.984 . S
H1852 N1840 0.984 . S
H1853 N1840 0.985 . S
C1854 C1855 1.363 . S
C1854 C1860 1.379 . S
C1854 N1862 1.356 . S
C1855 C1854 1.363 . S
C1855 C1861 1.363 . S
C1856 C1857 1.363 . S
C1856 C1861 1.379 . S
C1856 N1863 1.356 . S
C1857 C1856 1.363 . S
C1857 C1860 1.363 . S
N1858 C1860 1.356 . S
N1858 H1870 0.984 . S
N1858 H1871 0.985 . S
N1859 C1861 1.356 . S
N1859 H1864 0.984 . S
N1859 H1865 0.985 . S
C1860 C1854 1.379 . S
C1860 C1857 1.363 . S
C1860 N1858 1.356 . S
C1861 C1855 1.363 . S
C1861 C1856 1.379 . S
C1861 N1859 1.356 . S
N1862 C1854 1.356 . S
N1862 H1868 0.984 . S
N1862 H1869 0.984 . S
N1863 C1856 1.356 . S
N1863 H1866 0.984 . S
N1863 H1867 0.985 . S
H1864 N1859 0.984 . S
H1865 N1859 0.985 . S
H1866 N1863 0.984 . S
H1867 N1863 0.985 . S
H1868 N1862 0.984 . S
H1869 N1862 0.984 . S
H1870 N1858 0.984 . S
H1871 N1858 0.985 . S
C1872 C1873 1.363 . S
C1872 C1878 1.379 . S
C1872 N1880 1.356 . S
C1873 C1872 1.363 . S
C1873 C1879 1.363 . S
C1874 C1875 1.363 . S
C1874 C1879 1.379 . S
C1874 N1881 1.356 . S
C1875 C1874 1.363 . S
C1875 C1878 1.363 . S
N1876 C1878 1.356 . S
N1876 H1888 0.984 . S
N1876 H1889 0.985 . S
N1877 C1879 1.356 . S
N1877 H1882 0.984 . S
N1877 H1883 0.985 . S
C1878 C1872 1.379 . S
C1878 C1875 1.363 . S
C1878 N1876 1.356 . S
C1879 C1873 1.363 . S
C1879 C1874 1.379 . S
C1879 N1877 1.356 . S
N1880 C1872 1.356 . S
N1880 H1886 0.984 . S
N1880 H1887 0.984 . S
N1881 C1874 1.356 . S
N1881 H1884 0.984 . S
N1881 H1885 0.985 . S
H1882 N1877 0.984 . S
H1883 N1877 0.985 . S
H1884 N1881 0.984 . S
H1885 N1881 0.985 . S
H1886 N1880 0.984 . S
H1887 N1880 0.984 . S
H1888 N1876 0.984 . S
H1889 N1876 0.985 . S
C1890 C1891 1.363 . S
C1890 C1896 1.379 . S
C1890 N1898 1.356 . S
C1891 C1890 1.363 . S
C1891 C1897 1.363 . S
C1892 C1893 1.363 . S
C1892 C1897 1.379 . S
C1892 N1899 1.356 . S
C1893 C1892 1.363 . S
C1893 C1896 1.363 . S
N1894 C1896 1.356 . S
N1894 H1906 0.984 . S
N1894 H1907 0.985 . S
N1895 C1897 1.356 . S
N1895 H1900 0.984 . S
N1895 H1901 0.985 . S
C1896 C1890 1.379 . S
C1896 C1893 1.363 . S
C1896 N1894 1.356 . S
C1897 C1891 1.363 . S
C1897 C1892 1.379 . S
C1897 N1895 1.356 . S
N1898 C1890 1.356 . S
N1898 H1904 0.984 . S
N1898 H1905 0.984 . S
N1899 C1892 1.356 . S
N1899 H1902 0.984 . S
N1899 H1903 0.985 . S
H1900 N1895 0.984 . S
H1901 N1895 0.985 . S
H1902 N1899 0.984 . S
H1903 N1899 0.985 . S
H1904 N1898 0.984 . S
H1905 N1898 0.984 . S
H1906 N1894 0.984 . S
H1907 N1894 0.985 . S
C1908 C1909 1.363 . S
C1908 C1914 1.379 . S
C1908 N1916 1.356 . S
C1909 C1908 1.363 . S
C1909 C1915 1.363 . S
C1910 C1911 1.363 . S
C1910 C1915 1.379 . S
C1910 N1917 1.356 . S
C1911 C1910 1.363 . S
C1911 C1914 1.363 . S
N1912 C1914 1.356 . S
N1912 H1924 0.984 . S
N1912 H1925 0.985 . S
N1913 C1915 1.356 . S
N1913 H1918 0.984 . S
N1913 H1919 0.985 . S
C1914 C1908 1.379 . S
C1914 C1911 1.363 . S
C1914 N1912 1.356 . S
C1915 C1909 1.363 . S
C1915 C1910 1.379 . S
C1915 N1913 1.356 . S
N1916 C1908 1.356 . S
N1916 H1922 0.984 . S
N1916 H1923 0.984 . S
N1917 C1910 1.356 . S
N1917 H1920 0.984 . S
N1917 H1921 0.985 . S
H1918 N1913 0.984 . S
H1919 N1913 0.985 . S
H1920 N1917 0.984 . S
H1921 N1917 0.985 . S
H1922 N1916 0.984 . S
H1923 N1916 0.984 . S
H1924 N1912 0.984 . S
H1925 N1912 0.985 . S
C955 C147 1.473 . S
C957 C265 1.419 . S
C973 C158 1.498 . S
C975 C349 1.449 . S
C991 C136 1.470 . S
C993 C429 1.469 . S
C1009 C125 1.458 . S
C1011 C345 1.461 . S
C1029 C433 1.408 . S
C1027 C103 1.465 . S
C1045 C114 1.437 . S
C1047 C261 1.436 . S
C1065 C254 1.460 . S
C1063 C131 1.514 . S
C1083 C338 1.483 . S
C1081 C109 1.534 . S
C1099 C120 1.528 . S
C1101 C440 1.482 . S
C1117 C153 1.504 . S
C1119 C356 1.460 . S
C1135 C164 1.493 . S
C1137 C422 1.436 . S
C1155 C272 1.441 . S
C1153 C142 1.488 . S
C1173 C517 1.419 . S
C1171 C15 1.473 . S
C1189 C26 1.498 . S
C1191 C601 1.449 . S
C1207 C4 1.470 . S
C1209 C681 1.469 . S
C1225 C191 1.458 . S
C1227 C597 1.461 . S
C1243 C169 1.465 . S
C1245 C685 1.408 . S
C1261 C180 1.437 . S
C1263 C513 1.436 . S
C1279 C197 1.514 . S
C1281 C506 1.460 . S
C1297 C175 1.534 . S
C1299 C590 1.483 . S
C1317 C692 1.482 . S
C1315 C186 1.528 . S
C1333 C21 1.504 1_565 S
C1335 C608 1.460 . S
C1353 C674 1.437 . S
C1351 C32 1.493 1_455 S
C1369 C10 1.488 . S
C1371 C524 1.441 . S
C1389 C769 1.419 . S
C1387 C81 1.473 . S
C1405 C92 1.498 . S
C1407 C853 1.449 . S
C1425 C933 1.469 . S
C1423 C70 1.470 . S
C1443 C849 1.461 . S
C1441 C59 1.458 . S
C1461 C937 1.408 . S
C1459 C37 1.464 . S
C1477 C48 1.438 . S
C1479 C765 1.436 . S
C1495 C65 1.514 1_655 S
C1497 C758 1.460 . S
C1513 C43 1.534 . S
C1515 C842 1.483 . S
C1533 C944 1.482 . S
C1531 C54 1.528 1_545 S
C1549 C87 1.504 . S
C1551 C860 1.460 . S
C1567 C98 1.493 . S
C1569 C926 1.437 . S
C1585 C76 1.488 . S
C1587 C776 1.442 . S
C1603 C170 1.570 . S
C1605 C268 1.472 . S
C1623 C352 1.480 . S
C1621 C181 1.613 . S
C1639 C192 1.568 . S
C1641 C424 1.383 . S
C1657 C71 1.580 . S
C1659 C340 1.378 . S
C1675 C82 1.579 . S
C1677 C436 1.456 . S
C1695 C256 1.375 . S
C1693 C93 1.538 . S
C1711 C38 1.570 . S
C1713 C520 1.472 . S
C1729 C49 1.613 . S
C1731 C604 1.479 . S
C1747 C60 1.568 . S
C1749 C676 1.383 . S
C1765 C137 1.580 . S
C1767 C592 1.379 . S
C1785 C688 1.456 . S
C1783 C148 1.579 . S
C1801 C159 1.538 . S
C1803 C508 1.375 . S
C1819 C104 1.570 . S
C1821 C772 1.472 . S
C1837 C115 1.613 . S
C1839 C856 1.479 . S
C1857 C928 1.383 . S
C1855 C126 1.568 . S
C1873 C5 1.580 . S
C1875 C844 1.378 . S
C1891 C16 1.579 . S
C1893 C940 1.456 . S
C1909 C27 1.538 . S
C1911 C760 1.375 . S
