# Generated by pormake.
# Topology ptr, (4,4)-cn, num edge types: 1
# Building blocks:
#     Node 0, Type 0, BuildingBlock: QUQFOY_clean_sbu_3, # of connection points: 4
#     Node 1, Type 0, BuildingBlock: QUQFOY_clean_sbu_3, # of connection points: 4
#     Node 2, Type 0, BuildingBlock: QUQFOY_clean_sbu_3, # of connection points: 4
#     Node 3, Type 0, BuildingBlock: QUQFOY_clean_sbu_3, # of connection points: 4
#     Node 4, Type 0, BuildingBlock: QUQFOY_clean_sbu_3, # of connection points: 4
#     Node 5, Type 0, BuildingBlock: QUQFOY_clean_sbu_3, # of connection points: 4
#     Node 6, Type 0, BuildingBlock: QUQFOY_clean_sbu_3, # of connection points: 4
#     Node 7, Type 0, BuildingBlock: QUQFOY_clean_sbu_3, # of connection points: 4
#     Node 8, Type 0, BuildingBlock: QUQFOY_clean_sbu_3, # of connection points: 4
#     Node 9, Type 0, BuildingBlock: QUQFOY_clean_sbu_3, # of connection points: 4
#     Node 10, Type 0, BuildingBlock: QUQFOY_clean_sbu_3, # of connection points: 4
#     Node 11, Type 0, BuildingBlock: QUQFOY_clean_sbu_3, # of connection points: 4
#     Node 12, Type 0, BuildingBlock: QUQFOY_clean_sbu_3, # of connection points: 4
#     Node 13, Type 0, BuildingBlock: QUQFOY_clean_sbu_3, # of connection points: 4
#     Node 14, Type 0, BuildingBlock: QUQFOY_clean_sbu_3, # of connection points: 4
#     Node 15, Type 0, BuildingBlock: QUQFOY_clean_sbu_3, # of connection points: 4
#     Node 16, Type 0, BuildingBlock: QUQFOY_clean_sbu_3, # of connection points: 4
#     Node 17, Type 0, BuildingBlock: QUQFOY_clean_sbu_3, # of connection points: 4
#     Node 18, Type 1, BuildingBlock: GIZVER_clean_linker_0, # of connection points: 4
#     Node 19, Type 1, BuildingBlock: GIZVER_clean_linker_0, # of connection points: 4
#     Node 20, Type 1, BuildingBlock: GIZVER_clean_linker_0, # of connection points: 4
#     Node 21, Type 1, BuildingBlock: GIZVER_clean_linker_0, # of connection points: 4
#     Node 22, Type 1, BuildingBlock: GIZVER_clean_linker_0, # of connection points: 4
#     Node 23, Type 1, BuildingBlock: GIZVER_clean_linker_0, # of connection points: 4
#     Node 24, Type 1, BuildingBlock: GIZVER_clean_linker_0, # of connection points: 4
#     Node 25, Type 1, BuildingBlock: GIZVER_clean_linker_0, # of connection points: 4
#     Node 26, Type 1, BuildingBlock: GIZVER_clean_linker_0, # of connection points: 4
#     Node 27, Type 1, BuildingBlock: GIZVER_clean_linker_0, # of connection points: 4
#     Node 28, Type 1, BuildingBlock: GIZVER_clean_linker_0, # of connection points: 4
#     Node 29, Type 1, BuildingBlock: GIZVER_clean_linker_0, # of connection points: 4
#     Node 30, Type 1, BuildingBlock: GIZVER_clean_linker_0, # of connection points: 4
#     Node 31, Type 1, BuildingBlock: GIZVER_clean_linker_0, # of connection points: 4
#     Node 32, Type 1, BuildingBlock: GIZVER_clean_linker_0, # of connection points: 4
#     Node 33, Type 1, BuildingBlock: GIZVER_clean_linker_0, # of connection points: 4
#     Node 34, Type 1, BuildingBlock: GIZVER_clean_linker_0, # of connection points: 4
#     Node 35, Type 1, BuildingBlock: GIZVER_clean_linker_0, # of connection points: 4
#     Edge 36, Type (0, 1), BuildingBlock: UVAHIK_clean_linker_0, # of connection points: 2
#     Edge 37, Type (0, 1), BuildingBlock: UVAHIK_clean_linker_0, # of connection points: 2
#     Edge 38, Type (0, 1), BuildingBlock: UVAHIK_clean_linker_0, # of connection points: 2
#     Edge 39, Type (0, 1), BuildingBlock: UVAHIK_clean_linker_0, # of connection points: 2
#     Edge 40, Type (0, 1), BuildingBlock: UVAHIK_clean_linker_0, # of connection points: 2
#     Edge 41, Type (0, 1), BuildingBlock: UVAHIK_clean_linker_0, # of connection points: 2
#     Edge 42, Type (0, 1), BuildingBlock: UVAHIK_clean_linker_0, # of connection points: 2
#     Edge 43, Type (0, 1), BuildingBlock: UVAHIK_clean_linker_0, # of connection points: 2
#     Edge 44, Type (0, 1), BuildingBlock: UVAHIK_clean_linker_0, # of connection points: 2
#     Edge 45, Type (0, 1), BuildingBlock: UVAHIK_clean_linker_0, # of connection points: 2
#     Edge 46, Type (0, 1), BuildingBlock: UVAHIK_clean_linker_0, # of connection points: 2
#     Edge 47, Type (0, 1), BuildingBlock: UVAHIK_clean_linker_0, # of connection points: 2
#     Edge 48, Type (0, 1), BuildingBlock: UVAHIK_clean_linker_0, # of connection points: 2
#     Edge 49, Type (0, 1), BuildingBlock: UVAHIK_clean_linker_0, # of connection points: 2
#     Edge 50, Type (0, 1), BuildingBlock: UVAHIK_clean_linker_0, # of connection points: 2
#     Edge 51, Type (0, 1), BuildingBlock: UVAHIK_clean_linker_0, # of connection points: 2
#     Edge 52, Type (0, 1), BuildingBlock: UVAHIK_clean_linker_0, # of connection points: 2
#     Edge 53, Type (0, 1), BuildingBlock: UVAHIK_clean_linker_0, # of connection points: 2
#     Edge 54, Type (0, 1), BuildingBlock: UVAHIK_clean_linker_0, # of connection points: 2
#     Edge 55, Type (0, 1), BuildingBlock: UVAHIK_clean_linker_0, # of connection points: 2
#     Edge 56, Type (0, 1), BuildingBlock: UVAHIK_clean_linker_0, # of connection points: 2
#     Edge 57, Type (0, 1), BuildingBlock: UVAHIK_clean_linker_0, # of connection points: 2
#     Edge 58, Type (0, 1), BuildingBlock: UVAHIK_clean_linker_0, # of connection points: 2
#     Edge 59, Type (0, 1), BuildingBlock: UVAHIK_clean_linker_0, # of connection points: 2
#     Edge 60, Type (0, 1), BuildingBlock: UVAHIK_clean_linker_0, # of connection points: 2
#     Edge 61, Type (0, 1), BuildingBlock: UVAHIK_clean_linker_0, # of connection points: 2
#     Edge 62, Type (0, 1), BuildingBlock: UVAHIK_clean_linker_0, # of connection points: 2
#     Edge 63, Type (0, 1), BuildingBlock: UVAHIK_clean_linker_0, # of connection points: 2
#     Edge 64, Type (0, 1), BuildingBlock: UVAHIK_clean_linker_0, # of connection points: 2
#     Edge 65, Type (0, 1), BuildingBlock: UVAHIK_clean_linker_0, # of connection points: 2
#     Edge 66, Type (0, 1), BuildingBlock: UVAHIK_clean_linker_0, # of connection points: 2
#     Edge 67, Type (0, 1), BuildingBlock: UVAHIK_clean_linker_0, # of connection points: 2
#     Edge 68, Type (0, 1), BuildingBlock: UVAHIK_clean_linker_0, # of connection points: 2
#     Edge 69, Type (0, 1), BuildingBlock: UVAHIK_clean_linker_0, # of connection points: 2
#     Edge 70, Type (0, 1), BuildingBlock: UVAHIK_clean_linker_0, # of connection points: 2
#     Edge 71, Type (0, 1), BuildingBlock: UVAHIK_clean_linker_0, # of connection points: 2
#     Edge 72, Type (0, 1), BuildingBlock: UVAHIK_clean_linker_0, # of connection points: 2
#     Edge 73, Type (0, 1), BuildingBlock: UVAHIK_clean_linker_0, # of connection points: 2
#     Edge 74, Type (0, 1), BuildingBlock: UVAHIK_clean_linker_0, # of connection points: 2
#     Edge 75, Type (0, 1), BuildingBlock: UVAHIK_clean_linker_0, # of connection points: 2
#     Edge 76, Type (0, 1), BuildingBlock: UVAHIK_clean_linker_0, # of connection points: 2
#     Edge 77, Type (0, 1), BuildingBlock: UVAHIK_clean_linker_0, # of connection points: 2
#     Edge 78, Type (0, 1), BuildingBlock: UVAHIK_clean_linker_0, # of connection points: 2
#     Edge 79, Type (0, 1), BuildingBlock: UVAHIK_clean_linker_0, # of connection points: 2
#     Edge 80, Type (0, 1), BuildingBlock: UVAHIK_clean_linker_0, # of connection points: 2
#     Edge 81, Type (0, 1), BuildingBlock: UVAHIK_clean_linker_0, # of connection points: 2
#     Edge 82, Type (0, 1), BuildingBlock: UVAHIK_clean_linker_0, # of connection points: 2
#     Edge 83, Type (0, 1), BuildingBlock: UVAHIK_clean_linker_0, # of connection points: 2
#     Edge 84, Type (0, 1), BuildingBlock: UVAHIK_clean_linker_0, # of connection points: 2
#     Edge 85, Type (0, 1), BuildingBlock: UVAHIK_clean_linker_0, # of connection points: 2
#     Edge 86, Type (0, 1), BuildingBlock: UVAHIK_clean_linker_0, # of connection points: 2
#     Edge 87, Type (0, 1), BuildingBlock: UVAHIK_clean_linker_0, # of connection points: 2
#     Edge 88, Type (0, 1), BuildingBlock: UVAHIK_clean_linker_0, # of connection points: 2
#     Edge 89, Type (0, 1), BuildingBlock: UVAHIK_clean_linker_0, # of connection points: 2
#     Edge 90, Type (0, 1), BuildingBlock: UVAHIK_clean_linker_0, # of connection points: 2
#     Edge 91, Type (0, 1), BuildingBlock: UVAHIK_clean_linker_0, # of connection points: 2
#     Edge 92, Type (0, 1), BuildingBlock: UVAHIK_clean_linker_0, # of connection points: 2
#     Edge 93, Type (0, 1), BuildingBlock: UVAHIK_clean_linker_0, # of connection points: 2
#     Edge 94, Type (0, 1), BuildingBlock: UVAHIK_clean_linker_0, # of connection points: 2
#     Edge 95, Type (0, 1), BuildingBlock: UVAHIK_clean_linker_0, # of connection points: 2
#     Edge 96, Type (0, 1), BuildingBlock: UVAHIK_clean_linker_0, # of connection points: 2
#     Edge 97, Type (0, 1), BuildingBlock: UVAHIK_clean_linker_0, # of connection points: 2
#     Edge 98, Type (0, 1), BuildingBlock: UVAHIK_clean_linker_0, # of connection points: 2
#     Edge 99, Type (0, 1), BuildingBlock: UVAHIK_clean_linker_0, # of connection points: 2
#     Edge 100, Type (0, 1), BuildingBlock: UVAHIK_clean_linker_0, # of connection points: 2
#     Edge 101, Type (0, 1), BuildingBlock: UVAHIK_clean_linker_0, # of connection points: 2
#     Edge 102, Type (0, 1), BuildingBlock: UVAHIK_clean_linker_0, # of connection points: 2
#     Edge 103, Type (0, 1), BuildingBlock: UVAHIK_clean_linker_0, # of connection points: 2
#     Edge 104, Type (0, 1), BuildingBlock: UVAHIK_clean_linker_0, # of connection points: 2
#     Edge 105, Type (0, 1), BuildingBlock: UVAHIK_clean_linker_0, # of connection points: 2
#     Edge 106, Type (0, 1), BuildingBlock: UVAHIK_clean_linker_0, # of connection points: 2
#     Edge 107, Type (0, 1), BuildingBlock: UVAHIK_clean_linker_0, # of connection points: 2
# Relax obj value: 0.044
# Max RMSD: 0.105
# Mean RMSD: 0.074
data_MOF--net-ptr--node1-QUQFOY_clean_sbu_3--node2-GIZVER_clean_linker_0--edge1-UVAHIK_clean_linker_0
_symmetry_space_group_name_H-M    P1
_symmetry_Int_Tables_number       1
_symmetry_cell_setting            triclinic
loop_
_symmetry_equiv_pos_as_xyz
'x, y, z'
_cell_length_a     103.11305
_cell_length_b     103.51162
_cell_length_c     63.356662
_cell_angle_alpha  90.425884
_cell_angle_beta   89.877253
_cell_angle_gamma 120.49293
loop_
_atom_site_label
_atom_site_type_symbol
_atom_site_fract_x
_atom_site_fract_y
_atom_site_fract_z
_atom_type_partial_charge
C0 C 0.96644 0.33553 0.01494 0.0
O1 O 0.96143 0.34394 0.02076 0.0
Cd2 Cd 0.97695 0.36957 0.03211 0.0
O3 O 0.98058 0.34056 0.01432 0.0
Cd4 Cd 0.0047 0.36431 0.02164 0.0
C5 C 0.99817 0.38579 0.98768 0.0
O6 O 0.99607 0.3704 0.05426 0.0
O7 O 0.01814 0.38695 0.04364 0.0
O8 O 0.01347 0.34728 0.03191 0.0
C9 C 0.00781 0.38306 0.05722 0.0
O10 O 0.98844 0.38482 0.00098 0.0
C11 C 0.02617 0.35446 0.02288 0.0
O12 O 0.00493 0.37846 0.99026 0.0
O13 O 0.02893 0.36622 0.01301 0.0
C14 C 0.62455 0.66919 0.01032 0.0
O15 O 0.61134 0.66085 0.00311 0.0
Cd16 Cd 0.60111 0.63504 0.99267 0.0
O17 O 0.63355 0.6642 0.01204 0.0
Cd18 Cd 0.63405 0.64091 0.00408 0.0
C19 C 0.60556 0.61914 0.03754 0.0
O20 O 0.61957 0.63398 0.97105 0.0
O21 O 0.62449 0.6177 0.98387 0.0
O22 O 0.66003 0.65641 0.99195 0.0
C23 C 0.61859 0.6213 0.96925 0.0
O24 O 0.59672 0.61986 0.0242 0.0
C25 C 0.66538 0.65028 0.00358 0.0
O26 O 0.61977 0.62669 0.03494 0.0
O27 O 0.65621 0.63996 0.01573 0.0
C28 C 0.32776 0.96671 0.99162 0.0
O29 O 0.33508 0.96163 0.98196 0.0
Cd30 Cd 0.36144 0.97527 0.97424 0.0
O31 O 0.33408 0.98042 -0.00252 0.0
Cd32 Cd 0.35891 0.0042 0.99435 0.0
C33 C 0.37671 0.9901 0.02354 0.0
O34 O 0.36435 0.99772 0.96046 0.0
O35 O 0.38214 0.01857 0.97279 0.0
O36 O 0.34471 0.01673 0.98768 0.0
C37 C 0.37754 0.00874 0.95827 0.0
O38 O 0.37474 0.98125 0.00817 0.0
C39 C 0.35175 0.02722 0.00106 0.0
O40 O 0.37153 0.99897 0.02291 0.0
O41 O 0.3621 0.02695 0.01155 0.0
C42 C 0.95931 0.62827 0.0128 0.0
O43 O 0.95431 0.61547 0.02112 0.0
Cd44 Cd 0.96934 0.6049 0.0309 0.0
O45 O 0.97335 0.63671 0.00925 0.0
Cd46 Cd 0.99745 0.63687 0.0147 0.0
C47 C 0.98653 0.60603 0.98359 0.0
O48 O 0.99041 0.62474 0.04889 0.0
O49 O 0.01157 0.62864 0.03677 0.0
O50 O 0.00779 0.66354 0.02171 0.0
C51 C 0.00189 0.62349 0.05142 0.0
O52 O 0.97715 0.59843 -0.002 0.0
C53 C 0.01968 0.66798 0.01091 0.0
O54 O 0.9948 0.62024 0.98513 0.0
O55 O 0.02126 0.65794 0.00163 0.0
C56 C 0.33048 0.37208 0.00948 0.0
O57 O 0.33747 0.38552 0.00296 0.0
Cd58 Cd 0.36337 0.39867 0.99231 0.0
O59 O 0.33716 0.36459 0.01081 0.0
Cd60 Cd 0.36229 0.36758 0.0034 0.0
C61 C 0.38163 0.39739 0.03682 0.0
O62 O 0.36631 0.3813 0.97061 0.0
O63 O 0.3848 0.37885 0.98089 0.0
O64 O 0.34892 0.34102 0.99323 0.0
C65 C 0.37954 0.38392 0.96733 0.0
O66 O 0.37896 0.40519 0.02402 0.0
C67 C 0.35669 0.3375 0.00479 0.0
O68 O 0.37621 0.3834 0.03367 0.0
O69 O 0.36705 0.34797 0.01573 0.0
C70 C 0.6745 0.03957 0.01229 0.0
O71 O 0.66712 0.04539 0.01957 0.0
Cd72 Cd 0.64092 0.03137 0.02869 0.0
O73 O 0.6682 0.02539 0.00998 0.0
Cd74 Cd 0.64354 0.00207 0.01672 0.0
C75 C 0.62497 0.01198 0.98217 0.0
O76 O 0.63753 0.01074 0.04946 0.0
O77 O 0.62021 0.98956 0.03688 0.0
O78 O 0.65944 0.99207 0.02749 0.0
C79 C 0.62432 -0.00047 0.05113 0.0
O80 O 0.627 0.02207 0.99562 0.0
C81 C 0.65179 0.97948 0.01826 0.0
O82 O 0.63044 0.00351 0.98514 0.0
O83 O 0.64029 0.97734 0.00799 0.0
C84 C 0.63442 0.66736 0.3459 0.0
O85 O 0.62908 0.67503 0.35365 0.0
Cd86 Cd 0.64363 0.70077 0.36411 0.0
O87 O 0.6486 0.67313 0.34362 0.0
Cd88 Cd 0.67225 0.69745 0.35204 0.0
C89 C 0.66379 0.71785 0.31898 0.0
O90 O 0.66343 0.70237 0.38533 0.0
O91 O 0.68462 0.72029 0.37418 0.0
O92 O 0.68288 0.68193 0.36225 0.0
C93 C 0.67455 0.71543 0.38829 0.0
O94 O 0.65366 0.71583 0.33229 0.0
C95 C 0.69529 0.68965 0.35267 0.0
O96 O 0.67172 0.71172 0.3215 0.0
O97 O 0.69695 0.7009 0.34245 0.0
C98 C 0.29201 0.00145 0.34125 0.0
O99 O 0.27873 0.99347 0.33407 0.0
Cd100 Cd 0.26752 0.96764 0.3233 0.0
O101 O 0.30064 0.99603 0.3429 0.0
Cd102 Cd 0.29993 0.97209 0.33463 0.0
C103 C 0.27107 0.95093 0.36793 0.0
O104 O 0.28555 0.96602 0.30155 0.0
O105 O 0.28933 0.9489 0.31401 0.0
O106 O 0.32604 0.98661 0.32253 0.0
C107 C 0.28391 0.95308 0.29946 0.0
O108 O 0.26251 0.95208 0.35453 0.0
C109 C 0.33084 0.97983 0.33384 0.0
O110 O 0.28531 0.9581 0.36549 0.0
O111 O 0.32134 0.96967 0.3459 0.0
C112 C 0.00489 0.30138 0.32412 0.0
O113 O 0.01356 0.29703 0.31686 0.0
Cd114 Cd 0.03972 0.31233 0.30871 0.0
O115 O 0.0098 0.31526 0.32781 0.0
Cd116 Cd 0.03361 0.34009 0.32438 0.0
C117 C 0.05335 0.33001 0.35707 0.0
O118 O 0.04046 0.33301 0.29198 0.0
O119 O 0.05655 0.35519 0.30257 0.0
O120 O 0.01693 0.34963 0.31601 0.0
C121 C 0.05307 0.34474 0.28925 0.0
O122 O 0.05257 0.32099 0.34264 0.0
C123 C 0.02371 0.36131 0.32753 0.0
O124 O 0.04686 0.33764 0.35494 0.0
O125 O 0.03507 0.36308 0.33782 0.0
C126 C 0.62219 0.95939 0.34722 0.0
O127 O 0.61656 0.94606 0.35387 0.0
Cd128 Cd 0.63071 0.93427 0.36289 0.0
O129 O 0.63639 0.96772 0.34499 0.0
Cd130 Cd 0.65966 0.96648 0.35056 0.0
C131 C 0.64919 0.93719 0.31637 0.0
O132 O 0.65173 0.95222 0.38341 0.0
O133 O 0.67276 0.95631 0.37026 0.0
O134 O 0.67224 0.99282 0.36165 0.0
C135 C 0.66307 0.95056 0.38482 0.0
O136 O 0.63926 0.92887 0.32977 0.0
C137 C 0.68334 0.99719 0.34919 0.0
O138 O 0.65747 0.95126 0.31951 0.0
O139 O 0.68337 0.98729 0.33726 0.0
C140 C 0.99785 0.70721 0.34733 0.0
O141 O 0.00487 0.7207 0.34104 0.0
Cd142 Cd 0.03071 0.73394 0.33026 0.0
O143 O 0.00451 0.69967 0.34838 0.0
Cd144 Cd 0.02969 0.70285 0.3406 0.0
C145 C 0.04918 0.73234 0.37435 0.0
O146 O 0.03356 0.71675 0.30799 0.0
O147 O 0.05216 0.71441 0.31811 0.0
O148 O 0.01645 0.67649 0.32946 0.0
C149 C 0.04678 0.71938 0.30458 0.0
O150 O 0.04644 0.7402 0.36175 0.0
C151 C 0.0243 0.67281 0.34055 0.0
O152 O 0.04374 0.71836 0.37105 0.0
O153 O 0.03457 0.68307 0.35184 0.0
C154 C 0.33236 0.36902 0.34087 0.0
O155 O 0.32388 0.37379 0.34746 0.0
Cd156 Cd 0.29883 0.35848 0.36078 0.0
O157 O 0.32772 0.355 0.34063 0.0
Cd158 Cd 0.30449 0.33093 0.35022 0.0
C159 C 0.28121 0.33595 0.31753 0.0
O160 O 0.2995 0.34035 0.38292 0.0
O161 O 0.28252 0.31809 0.37362 0.0
O162 O 0.3221 0.32259 0.35973 0.0
C163 C 0.28691 0.32878 0.38678 0.0
O164 O 0.28249 0.34591 0.33067 0.0
C165 C 0.31453 0.30966 0.3514 0.0
O166 O 0.2889 0.32952 0.31973 0.0
O167 O 0.30235 0.30661 0.34223 0.0
C168 C 0.30272 0.00429 0.68009 0.0
O169 O 0.29755 0.01215 0.68771 0.0
Cd170 Cd 0.31242 0.03814 0.69723 0.0
O171 O 0.31687 0.00994 0.67753 0.0
Cd172 Cd 0.34074 0.03418 0.68489 0.0
C173 C 0.33202 0.05413 0.65128 0.0
O174 O 0.33264 0.04027 0.71807 0.0
O175 O 0.35389 0.05738 0.70565 0.0
O176 O 0.35138 0.01882 0.69579 0.0
C177 C 0.34412 0.05325 0.7201 0.0
O178 O 0.32211 0.05251 0.66473 0.0
C179 C 0.36347 0.02597 0.68528 0.0
O180 O 0.33986 0.04792 0.65396 0.0
O181 O 0.36493 0.03684 0.67427 0.0
C182 C 0.95562 0.33588 0.67213 0.0
O183 O 0.94249 0.32819 0.66436 0.0
Cd184 Cd 0.93102 0.30214 0.65494 0.0
O185 O 0.96383 0.33005 0.67467 0.0
Cd186 Cd 0.96296 0.3059 0.66743 0.0
C187 C 0.93385 0.28634 0.70114 0.0
O188 O 0.94888 0.29942 0.63408 0.0
O189 O 0.95236 0.28239 0.64773 0.0
O190 O 0.98902 0.3207 0.65548 0.0
C191 C 0.94713 0.2864 0.6327 0.0
O192 O 0.92562 0.28794 0.68767 0.0
C193 C 0.99404 0.31418 0.66692 0.0
O194 O 0.948 0.29241 0.69836 0.0
O195 O 0.98463 0.3039 0.67893 0.0
C196 C 0.66421 0.63243 0.6645 0.0
O197 O 0.67204 0.62707 0.65731 0.0
Cd198 Cd 0.69798 0.64111 0.64725 0.0
O199 O 0.67 0.64655 0.66722 0.0
Cd200 Cd 0.69433 0.67056 0.6622 0.0
C201 C 0.71405 0.65997 0.69414 0.0
O202 O 0.69914 0.66178 0.62977 0.0
O203 O 0.71637 0.68408 0.63816 0.0
O204 O 0.67793 0.6806 0.65505 0.0
C205 C 0.71185 0.67302 0.62563 0.0
O206 O 0.71222 0.65028 0.68012 0.0
C207 C 0.68546 0.69256 0.66579 0.0
O208 O 0.70814 0.66815 0.69205 0.0
O209 O 0.69723 0.69437 0.67493 0.0
C210 C 0.2888 0.29146 0.67483 0.0
O211 O 0.28266 0.27751 0.67835 0.0
Cd212 Cd 0.29572 0.26488 0.6885 0.0
O213 O 0.30306 0.29995 0.67562 0.0
Cd214 Cd 0.32545 0.29726 0.68193 0.0
C215 C 0.31736 0.27002 0.64483 0.0
O216 O 0.31519 0.28103 0.71264 0.0
O217 O 0.3367 0.28506 0.70141 0.0
O218 O 0.33882 0.32171 0.69933 0.0
C219 C 0.32623 0.27897 0.7149 0.0
O220 O 0.30644 0.26112 0.65654 0.0
C221 C 0.34945 0.32773 0.68602 0.0
O222 O 0.32556 0.28385 0.64969 0.0
O223 O 0.34895 0.31959 0.67059 0.0
C224 C 0.67029 0.0448 0.67663 0.0
O225 O 0.67842 0.0585 0.6716 0.0
Cd226 Cd 0.70378 0.06999 0.65873 0.0
O227 O 0.67557 0.03601 0.67595 0.0
Cd228 Cd 0.69984 0.03746 0.66723 0.0
C229 C 0.72186 0.06613 0.70125 0.0
O230 O 0.70418 0.05202 0.63518 0.0
O231 O 0.72194 0.04798 0.64394 0.0
O232 O 0.68524 0.01113 0.65585 0.0
C233 C 0.71696 0.05371 0.63103 0.0
O234 O 0.7204 0.07491 0.6888 0.0
C235 C 0.69273 0.00686 0.66664 0.0
O236 O 0.71469 0.05201 0.69795 0.0
O237 O 0.70341 0.01677 0.67781 0.0
C238 C -0.00013 0.70288 0.67213 0.0
O239 O 0.99129 0.7077 0.67799 0.0
Cd240 Cd 0.96622 0.69269 0.69124 0.0
O241 O 0.99529 0.68888 0.67257 0.0
Cd242 Cd 0.97182 0.66512 0.68267 0.0
C243 C 0.94854 0.66932 0.6489 0.0
O244 O 0.96692 0.67523 0.71483 0.0
O245 O 0.94972 0.65299 0.70587 0.0
O246 O 0.98885 0.6563 0.69352 0.0
C247 C 0.95427 0.6638 0.71884 0.0
O248 O 0.94976 0.67954 0.66146 0.0
C249 C 0.98106 0.64327 0.68556 0.0
O250 O 0.95629 0.66301 0.65178 0.0
O251 O 0.96912 0.64044 0.6759 0.0
H252 H 0.14659 0.30853 0.14879 0.0
H253 H 0.13614 0.30374 0.08239 0.0
H254 H 0.13024 0.335 0.12014 0.0
H255 H 0.13885 0.28421 0.12607 0.0
H256 H 0.14213 0.28673 0.09838 0.0
H257 H 0.15978 0.29386 0.15123 0.0
H258 H 0.20371 0.30828 0.12595 0.0
H259 H 0.16827 0.30289 0.08467 0.0
C260 C 0.1434 0.31219 0.13477 0.0
C261 C 0.1391 0.32302 0.13659 0.0
C262 C 0.14276 0.30545 0.11515 0.0
C263 C 0.13747 0.30946 0.09733 0.0
C264 C 0.13311 0.32028 0.099 0.0
C265 C 0.13439 0.32728 0.11854 0.0
C266 C 0.14575 0.29261 0.11389 0.0
C267 C 0.16215 0.29775 0.11752 0.0
C268 C 0.16741 0.29736 0.1379 0.0
C269 C 0.18238 0.30102 0.14098 0.0
C270 C 0.19206 0.30519 0.12361 0.0
C271 C 0.18711 0.30594 0.10334 0.0
C272 C 0.17219 0.30243 0.10037 0.0
H273 H 0.69955 0.83861 0.15507 0.0
H274 H 0.68486 0.82848 0.09026 0.0
H275 H 0.67061 0.79299 0.13553 0.0
H276 H 0.71173 0.85783 0.12774 0.0
H277 H 0.70645 0.85334 0.10059 0.0
H278 H 0.69142 0.85786 0.15305 0.0
H279 H 0.6688 0.87866 0.12498 0.0
H280 H 0.69229 0.86329 0.08553 0.0
C281 C 0.69304 0.83055 0.14281 0.0
C282 C 0.68471 0.81526 0.14766 0.0
C283 C 0.69293 0.83543 0.12214 0.0
C284 C 0.68475 0.82478 0.10625 0.0
C285 C 0.67658 0.8094 0.11094 0.0
C286 C 0.6765 0.80483 0.13176 0.0
C287 C 0.70192 0.85191 0.1169 0.0
C288 C 0.69234 0.85907 0.11896 0.0
C289 C 0.6879 0.86125 0.13907 0.0
C290 C 0.67921 0.86809 0.14122 0.0
C291 C 0.67496 0.87279 0.1232 0.0
C292 C 0.67981 0.87131 0.10312 0.0
C293 C 0.68841 0.86433 0.10102 0.0
H294 H 0.15765 0.81001 0.14042 0.0
H295 H 0.15768 0.80911 0.07244 0.0
H296 H 0.11589 0.79015 0.10621 0.0
H297 H 0.17983 0.81394 0.12078 0.0
H298 H 0.17997 0.81387 0.09263 0.0
H299 H 0.18625 0.83672 0.14073 0.0
H300 H 0.20871 0.87818 0.10665 0.0
H301 H 0.18578 0.83641 0.07272 0.0
C302 C 0.15158 0.80755 0.1256 0.0
C303 C 0.13578 0.79975 0.1256 0.0
C304 C 0.15957 0.81113 0.10645 0.0
C305 C 0.15162 0.80699 0.0872 0.0
C306 C 0.13584 0.79953 0.08704 0.0
C307 C 0.1281 0.79634 0.10627 0.0
C308 C 0.17639 0.81781 0.10665 0.0
C309 C 0.18443 0.8347 0.10674 0.0
C310 C 0.18888 0.84274 0.12595 0.0
C311 C 0.19785 0.85844 0.12598 0.0
C312 C 0.2015 0.86608 0.10673 0.0
C313 C 0.19725 0.85824 0.08751 0.0
C314 C 0.18863 0.84253 0.08756 0.0
H315 H 0.35378 0.19306 0.87909 0.0
H316 H 0.35509 0.19615 0.94696 0.0
H317 H 0.33399 0.21554 0.91104 0.0
H318 H 0.37313 0.19119 0.90057 0.0
H319 H 0.3716 0.18982 0.92855 0.0
H320 H 0.35908 0.16932 0.87817 0.0
H321 H 0.33862 0.12648 0.90835 0.0
H322 H 0.35225 0.16629 0.94551 0.0
C323 C 0.35048 0.19619 0.89362 0.0
C324 C 0.3431 0.20443 0.89283 0.0
C325 C 0.35476 0.19308 0.91315 0.0
C326 C 0.35131 0.19804 0.93197 0.0
C327 C 0.34376 0.20614 0.93137 0.0
C328 C 0.3394 0.2089 0.91175 0.0
C329 C 0.36487 0.1865 0.91372 0.0
C330 C 0.35608 0.16963 0.91194 0.0
C331 C 0.35453 0.16259 0.89224 0.0
C332 C 0.34834 0.14701 0.89097 0.0
C333 C 0.34297 0.13845 0.90935 0.0
C334 C 0.34428 0.14522 0.92911 0.0
C335 C 0.35075 0.16086 0.93028 0.0
H336 H 0.86397 0.17178 0.87061 0.0
H337 H 0.8634 0.17459 0.93839 0.0
H338 H 0.87577 0.21359 0.90119 0.0
H339 H 0.86478 0.15278 0.89402 0.0
H340 H 0.86154 0.15279 0.92166 0.0
H341 H 0.84365 0.14417 0.86828 0.0
H342 H 0.79997 0.11315 0.89311 0.0
H343 H 0.83585 0.14161 0.93554 0.0
C344 C 0.86498 0.17816 0.88476 0.0
C345 C 0.87021 0.1936 0.88337 0.0
C346 C 0.86211 0.17112 0.90456 0.0
C347 C 0.86472 0.17971 0.92307 0.0
C348 C 0.8697 0.19506 0.92185 0.0
C349 C 0.87181 0.2017 0.90201 0.0
C350 C 0.85821 0.15499 0.906 0.0
C351 C 0.84165 0.1442 0.90233 0.0
C352 C 0.83615 0.13948 0.88166 0.0
C353 C 0.82114 0.12817 0.87834 0.0
C354 C 0.81161 0.12183 0.89569 0.0
C355 C 0.81675 0.12665 0.91628 0.0
C356 C 0.83175 0.13802 0.91959 0.0
H357 H 0.83573 0.65802 0.8658 0.0
H358 H 0.83784 0.65575 0.93337 0.0
H359 H 0.87811 0.67278 0.89624 0.0
H360 H 0.81374 0.63918 0.8878 0.0
H361 H 0.81427 0.64118 0.91573 0.0
H362 H 0.81239 0.65808 0.86474 0.0
H363 H 0.78637 0.67557 0.89235 0.0
H364 H 0.80719 0.65771 0.93211 0.0
C365 C 0.8423 0.66053 0.88014 0.0
C366 C 0.85795 0.66672 0.87883 0.0
C367 C 0.83499 0.65668 0.89981 0.0
C368 C 0.84352 0.65919 0.91828 0.0
C369 C 0.85915 0.66504 0.91719 0.0
C370 C 0.86625 0.6691 0.89743 0.0
C371 C 0.81803 0.64765 0.90079 0.0
C372 C 0.81092 0.65723 0.8987 0.0
C373 C 0.80829 0.66108 0.87859 0.0
C374 C 0.79967 0.668 0.87619 0.0
C375 C 0.79391 0.67125 0.89426 0.0
C376 C 0.79648 0.66759 0.91455 0.0
C377 C 0.8053 0.66084 0.91663 0.0
H378 H 0.80926 0.63944 0.48391 0.0
H379 H 0.80484 0.64021 0.4164 0.0
H380 H 0.79511 0.668 0.45601 0.0
H381 H 0.80475 0.61769 0.45932 0.0
H382 H 0.80839 0.62122 0.43183 0.0
H383 H 0.82546 0.62725 0.48514 0.0
H384 H 0.86945 0.64163 0.46023 0.0
H385 H 0.83456 0.63755 0.41892 0.0
C386 C 0.80728 0.64424 0.47001 0.0
C387 C 0.80256 0.65474 0.47236 0.0
C388 C 0.80852 0.63921 0.44984 0.0
C389 C 0.80479 0.64465 0.43193 0.0
C390 C 0.8002 0.65525 0.43414 0.0
C391 C 0.79952 0.66051 0.4543 0.0
C392 C 0.81173 0.62656 0.44772 0.0
C393 C 0.82812 0.63178 0.45157 0.0
C394 C 0.83318 0.63097 0.47192 0.0
C395 C 0.84807 0.63437 0.47501 0.0
C396 C 0.85789 0.63881 0.4578 0.0
C397 C 0.85317 0.64008 0.43762 0.0
C398 C 0.83832 0.63677 0.43457 0.0
H399 H 0.36897 0.17285 0.48348 0.0
H400 H 0.35462 0.16193 0.41862 0.0
H401 H 0.33983 0.12704 0.46496 0.0
H402 H 0.38168 0.19156 0.45532 0.0
H403 H 0.37582 0.18692 0.42838 0.0
H404 H 0.36241 0.19261 0.4815 0.0
H405 H 0.33948 0.2134 0.45438 0.0
H406 H 0.36147 0.19692 0.4139 0.0
C407 C 0.36245 0.16466 0.47136 0.0
C408 C 0.35399 0.14944 0.47659 0.0
C409 C 0.3625 0.1693 0.45049 0.0
C410 C 0.35438 0.15845 0.43478 0.0
C411 C 0.3461 0.14313 0.43987 0.0
C412 C 0.34583 0.13883 0.46088 0.0
C413 C 0.37163 0.18571 0.44487 0.0
C414 C 0.3624 0.19323 0.44736 0.0
C415 C 0.35862 0.19586 0.46766 0.0
C416 C 0.35015 0.20291 0.47019 0.0
C417 C 0.34552 0.20741 0.45236 0.0
C418 C 0.34974 0.20551 0.43208 0.0
C419 C 0.3581 0.1983 0.42957 0.0
H420 H 0.82991 0.15059 0.46791 0.0
H421 H 0.8239 0.14191 0.40106 0.0
H422 H 0.78547 0.12497 0.44205 0.0
H423 H 0.84954 0.14954 0.44423 0.0
H424 H 0.84804 0.15041 0.41637 0.0
H425 H 0.85525 0.1715 0.46721 0.0
H426 H 0.88161 0.21398 0.43701 0.0
H427 H 0.85629 0.17408 0.39935 0.0
C428 C 0.82256 0.14616 0.45429 0.0
C429 C 0.80692 0.13832 0.45714 0.0
C430 C 0.82877 0.14762 0.43406 0.0
C431 C 0.81913 0.14116 0.41657 0.0
C432 C 0.80342 0.133 0.41924 0.0
C433 C 0.79749 0.13193 0.43955 0.0
C434 C 0.8455 0.15408 0.43161 0.0
C435 C 0.85419 0.17098 0.43311 0.0
C436 C 0.85863 0.17813 0.45294 0.0
C437 C 0.86851 0.19365 0.45435 0.0
C438 C 0.87353 0.20207 0.43581 0.0
C439 C 0.86931 0.19518 0.41586 0.0
C440 C 0.85937 0.17961 0.41464 0.0
H441 H 0.02297 0.5272 0.20916 0.0
H442 H 0.02505 0.53307 0.2767 0.0
H443 H 0.00507 0.55238 0.23815 0.0
H444 H 0.04235 0.52543 0.23235 0.0
H445 H 0.03955 0.52364 0.2602 0.0
H446 H 0.02491 0.50499 0.20795 0.0
H447 H 0.00186 0.46097 0.23484 0.0
H448 H 0.02158 0.4997 0.2755 0.0
C449 C 0.0202 0.53127 0.22328 0.0
C450 C 0.01286 0.53949 0.22145 0.0
C451 C 0.02444 0.5287 0.2432 0.0
C452 C 0.02142 0.53464 0.26138 0.0
C453 C 0.01429 0.54312 0.25973 0.0
C454 C 0.00987 0.54523 0.23973 0.0
C455 C 0.03353 0.52102 0.2448 0.0
C456 C 0.0238 0.50425 0.24202 0.0
C457 C 0.02061 0.49783 0.22165 0.0
C458 C 0.01246 0.48219 0.21893 0.0
C459 C 0.00736 0.47304 0.23681 0.0
C460 C 0.01066 0.4792 0.25723 0.0
C461 C 0.01874 0.49485 0.25977 0.0
H462 H 0.52946 0.4966 0.20328 0.0
H463 H 0.52723 0.50705 0.26887 0.0
H464 H 0.55349 0.54224 0.22484 0.0
H465 H 0.52108 0.47694 0.23127 0.0
H466 H 0.51885 0.48122 0.25795 0.0
H467 H 0.50349 0.47783 0.20271 0.0
H468 H 0.45838 0.46117 0.22461 0.0
H469 H 0.49419 0.47445 0.26951 0.0
C470 C 0.53235 0.50471 0.21593 0.0
C471 C 0.54193 0.51997 0.21179 0.0
C472 C 0.52694 0.49991 0.23654 0.0
C473 C 0.53121 0.51063 0.25293 0.0
C474 C 0.54067 0.52596 0.24871 0.0
C475 C 0.54595 0.53045 0.22814 0.0
C476 C 0.51735 0.48337 0.2412 0.0
C477 C 0.50091 0.4776 0.23665 0.0
C478 C 0.49573 0.47542 0.21564 0.0
C479 C 0.48044 0.46974 0.21127 0.0
C480 C 0.47031 0.46618 0.22798 0.0
C481 C 0.47513 0.46762 0.24895 0.0
C482 C 0.49047 0.47347 0.25329 0.0
H483 H 0.49873 0.98249 0.19339 0.0
H484 H 0.49974 0.97974 0.26106 0.0
H485 H 0.54099 0.00065 0.22587 0.0
H486 H 0.47682 0.96268 0.21431 0.0
H487 H 0.4767 0.96411 0.24232 0.0
H488 H 0.4738 0.98054 0.19164 0.0
H489 H 0.44781 0.99788 0.21985 0.0
H490 H 0.46916 0.98036 0.25917 0.0
C491 C 0.50506 0.98531 0.208 0.0
C492 C 0.52086 0.99276 0.20737 0.0
C493 C 0.49736 0.98074 0.22735 0.0
C494 C 0.50563 0.98374 0.2462 0.0
C495 C 0.52142 0.99108 0.24579 0.0
C496 C 0.52888 0.9958 0.22637 0.0
C497 C 0.48045 0.97086 0.22763 0.0
C498 C 0.47263 0.97979 0.22565 0.0
C499 C 0.46971 0.98346 0.20558 0.0
C500 C 0.46097 0.99026 0.20339 0.0
C501 C 0.45536 0.99355 0.22158 0.0
C502 C 0.45819 0.99004 0.2418 0.0
C503 C 0.46706 0.98334 0.24371 0.0
H504 H 0.48053 0.98143 0.81858 0.0
H505 H 0.47738 0.98128 0.7507 0.0
H506 H 0.46137 0.00494 0.7884 0.0
H507 H 0.48207 0.96207 0.79535 0.0
H508 H 0.48478 0.96513 0.76755 0.0
H509 H 0.50268 0.97701 0.82053 0.0
H510 H 0.54729 0.00359 0.7955 0.0
H511 H 0.50929 0.98439 0.75343 0.0
C512 C 0.47777 0.98524 0.80431 0.0
C513 C 0.47106 0.99408 0.8058 0.0
C514 C 0.4805 0.9809 0.78445 0.0
C515 C 0.476 0.98514 0.76603 0.0
C516 C 0.46926 0.99396 0.76749 0.0
C517 C 0.46718 0.99867 0.78732 0.0
C518 C 0.48724 0.97094 0.78313 0.0
C519 C 0.50403 0.97997 0.78662 0.0
C520 C 0.51007 0.98214 0.80715 0.0
C521 C 0.52567 0.99082 0.81038 0.0
C522 C 0.5352 0.99732 0.79306 0.0
C523 C 0.52941 0.99489 0.77251 0.0
C524 C 0.51381 0.9863 0.76932 0.0
H525 H 0.03462 0.50431 0.82061 0.0
H526 H 0.01785 0.49477 0.75662 0.0
H527 H 0.00949 0.4588 0.79844 0.0
H528 H 0.04453 0.52429 0.79448 0.0
H529 H 0.03929 0.52005 0.76733 0.0
H530 H 0.02356 0.52227 0.82042 0.0
H531 H -0.00037 0.54236 0.79426 0.0
H532 H 0.02404 0.52897 0.75327 0.0
C533 C 0.02829 0.49632 0.80816 0.0
C534 C 0.02209 0.48095 0.81177 0.0
C535 C 0.02688 0.50142 0.7882 0.0
C536 C 0.01888 0.49091 0.77205 0.0
C537 C 0.01236 0.47548 0.77577 0.0
C538 C 0.01411 0.47067 0.79561 0.0
C539 C 0.03475 0.51801 0.78369 0.0
C540 C 0.02428 0.52411 0.78641 0.0
C541 C 0.01972 0.52565 0.80676 0.0
C542 C 0.01064 0.53203 0.80957 0.0
C543 C 0.00606 0.53679 0.79195 0.0
C544 C 0.01101 0.53593 0.77165 0.0
C545 C 0.02001 0.52944 0.7689 0.0
H546 H 0.49518 0.48246 0.80931 0.0
H547 H 0.49107 0.47104 0.74321 0.0
H548 H 0.45146 0.45684 0.78068 0.0
H549 H 0.51553 0.48048 0.78783 0.0
H550 H 0.51506 0.48145 0.75979 0.0
H551 H 0.52274 0.50249 0.81002 0.0
H552 H 0.54488 0.5452 0.77933 0.0
H553 H 0.52047 0.50488 0.74234 0.0
C554 C 0.48823 0.4776 0.7954 0.0
C555 C 0.47248 0.47 0.79725 0.0
C556 C 0.49504 0.47828 0.77587 0.0
C557 C 0.48595 0.4712 0.75809 0.0
C558 C 0.47021 0.46367 0.75974 0.0
C559 C 0.46361 0.46341 0.7792 0.0
C560 C 0.51185 0.48493 0.77463 0.0
C561 C 0.5201 0.50181 0.77609 0.0
C562 C 0.5251 0.50907 0.7958 0.0
C563 C 0.53414 0.52472 0.79696 0.0
C564 C 0.53755 0.53313 0.77844 0.0
C565 C 0.53273 0.52612 0.75868 0.0
C566 C 0.52389 0.51042 0.75759 0.0
H567 H 0.68427 0.85351 0.54268 0.0
H568 H 0.68764 0.86317 0.6093 0.0
H569 H 0.66728 0.8806 0.56794 0.0
H570 H 0.70455 0.85382 0.56641 0.0
H571 H 0.70223 0.85341 0.59432 0.0
H572 H 0.68946 0.83161 0.54459 0.0
H573 H 0.6657 0.78948 0.5767 0.0
H574 H 0.68296 0.83055 0.61197 0.0
C575 C 0.68179 0.85842 0.55614 0.0
C576 C 0.67454 0.86664 0.55307 0.0
C577 C 0.68646 0.85704 0.57642 0.0
C578 C 0.68373 0.86392 0.59375 0.0
C579 C 0.67665 0.87235 0.59089 0.0
C580 C 0.67193 0.87342 0.57053 0.0
C581 C 0.69593 0.84986 0.57912 0.0
C582 C 0.68653 0.83298 0.5782 0.0
C583 C 0.6845 0.82532 0.55888 0.0
C584 C 0.67718 0.80961 0.55835 0.0
C585 C 0.67113 0.80161 0.57702 0.0
C586 C 0.67322 0.80902 0.5964 0.0
C587 C 0.68087 0.82474 0.59694 0.0
H588 H 0.19774 0.83284 0.53906 0.0
H589 H 0.19603 0.8437 0.60457 0.0
H590 H 0.22129 0.87868 0.55981 0.0
H591 H 0.1901 0.81349 0.5675 0.0
H592 H 0.18774 0.81787 0.59406 0.0
H593 H 0.1723 0.81387 0.53867 0.0
H594 H 0.12704 0.79637 0.56038 0.0
H595 H 0.16285 0.81037 0.60546 0.0
C596 C 0.20062 0.84104 0.55158 0.0
C597 C 0.20994 0.8563 0.54709 0.0
C598 C 0.19548 0.83636 0.57231 0.0
C599 C 0.1998 0.84719 0.58854 0.0
C600 C 0.20902 0.86251 0.58405 0.0
C601 C 0.214 0.86689 0.56333 0.0
C602 C 0.18617 0.81982 0.57725 0.0
C603 C 0.16966 0.81367 0.57262 0.0
C604 C 0.1645 0.81134 0.55159 0.0
C605 C 0.14917 0.80537 0.54715 0.0
C606 C 0.13897 0.8016 0.5638 0.0
C607 C 0.14377 0.80313 0.58479 0.0
C608 C 0.15915 0.80931 0.58921 0.0
H609 H 0.16785 0.32306 0.53356 0.0
H610 H 0.17182 0.32593 0.60122 0.0
H611 H 0.21092 0.33952 0.56238 0.0
H612 H 0.14637 0.30635 0.55725 0.0
H613 H 0.14789 0.30931 0.58504 0.0
H614 H 0.1469 0.32678 0.53361 0.0
H615 H 0.11878 0.34234 0.55963 0.0
H616 H 0.13837 0.32378 0.60037 0.0
C617 C 0.1748 0.32654 0.54763 0.0
C618 C 0.19039 0.33264 0.54574 0.0
C619 C 0.16805 0.32418 0.56764 0.0
C620 C 0.17711 0.32805 0.58585 0.0
C621 C 0.19268 0.33358 0.58428 0.0
C622 C 0.19915 0.33609 0.56407 0.0
C623 C 0.15111 0.31525 0.56965 0.0
C624 C 0.1439 0.32473 0.56734 0.0
C625 C 0.14204 0.32916 0.54719 0.0
C626 C 0.13321 0.3358 0.54433 0.0
C627 C 0.12644 0.33821 0.56199 0.0
C628 C 0.12816 0.33392 0.5823 0.0
C629 C 0.13717 0.32742 0.58488 0.0
C630 C 0.99584 0.39029 0.08587 0.0
C631 C 0.00845 0.39377 0.07336 0.0
C632 C 0.99616 0.40089 0.10004 0.0
C633 C 0.0222 0.43532 0.12948 0.0
H634 H 0.98748 0.44032 0.13398 0.0
C635 C 0.02344 0.48016 0.18457 0.0
C636 C 0.01089 0.47509 0.19789 0.0
C637 C 0.02289 0.47165 0.16697 0.0
C638 C 0.99724 0.43902 0.13297 0.0
H639 H 0.03139 0.411 0.06611 0.0
H640 H 0.03194 0.42943 0.09082 0.0
H641 H 0.98711 0.42209 0.10894 0.0
H642 H 0.98757 0.45782 0.20223 0.0
H643 H 0.98665 0.44288 0.17178 0.0
H644 H 0.03224 0.45198 0.15374 0.0
C645 C 0.02182 0.41851 0.08978 0.0
C646 C 0.99701 0.42854 0.11868 0.0
C647 C 0.02148 0.40795 0.07559 0.0
C648 C 0.99746 0.46193 0.19236 0.0
C649 C 0.99692 0.45342 0.17481 0.0
C650 C 0.02242 0.44576 0.14379 0.0
C651 C 0.00913 0.41515 0.10205 0.0
C652 C 0.00945 0.42649 0.11689 0.0
C653 C 0.00979 0.45791 0.16234 0.0
C654 C 0.00991 0.44767 0.14583 0.0
H655 H 0.98564 0.37948 0.0845 0.0
H656 H 0.98627 0.39788 0.1095 0.0
H657 H 0.03189 0.43388 0.12869 0.0
H658 H 0.03398 0.4902 0.18844 0.0
H659 H 0.03291 0.47558 0.15744 0.0
C660 C 0.58347 0.59934 0.05759 0.0
C661 C 0.59915 0.60857 0.05542 0.0
C662 C 0.5774 0.58857 0.07347 0.0
C663 C 0.58641 0.57864 0.12486 0.0
H664 H 0.5526 0.53905 0.1122 0.0
C665 C 0.56382 0.53329 0.18785 0.0
C666 C 0.54817 0.52546 0.19061 0.0
C667 C 0.5702 0.54165 0.16964 0.0
C668 C 0.56198 0.55008 0.116 0.0
H669 H 0.62074 0.61381 0.0685 0.0
H670 H 0.61014 0.59503 0.0962 0.0
H671 H 0.56342 0.55781 0.08433 0.0
H672 H 0.52679 0.51945 0.17632 0.0
H673 H 0.53791 0.53425 0.1444 0.0
H674 H 0.58488 0.57112 0.15653 0.0
C675 C 0.60253 0.5962 0.08567 0.0
C676 C 0.56816 0.56083 0.10006 0.0
C677 C 0.60861 0.60695 0.06976 0.0
C678 C 0.5389 0.52529 0.17433 0.0
C679 C 0.54529 0.53378 0.15612 0.0
C680 C 0.58024 0.56794 0.14077 0.0
C681 C 0.58686 0.5868 0.08759 0.0
C682 C 0.58042 0.57525 0.10435 0.0
C683 C 0.56104 0.54251 0.15396 0.0
C684 C 0.56793 0.55352 0.13657 0.0
H685 H 0.57583 0.60027 0.04684 0.0
H686 H 0.56528 0.58167 0.07475 0.0
H687 H 0.59568 0.58971 0.12878 0.0
H688 H 0.57116 0.53356 0.20028 0.0
H689 H 0.58234 0.54793 0.16825 0.0
C690 C 0.39086 0.00217 0.05696 0.0
C691 C 0.3858 0.99055 0.04192 0.0
C692 C 0.40017 0.00306 0.0736 0.0
C693 C 0.42573 0.98946 0.09008 0.0
H694 H 0.4203 0.00181 0.14572 0.0
C695 C 0.45093 0.98106 0.16687 0.0
C696 C 0.45612 0.99246 0.18229 0.0
C697 C 0.44404 0.98204 0.14844 0.0
C698 C 0.4221 0.99855 0.1302 0.0
H699 H 0.38631 0.97055 0.03287 0.0
H700 H 0.40217 0.97187 0.06215 0.0
H701 H 0.4043 0.00068 0.11673 0.0
H702 H 0.45918 0.01432 0.18973 0.0
H703 H 0.44707 0.01596 0.15762 0.0
H704 H 0.4433 0.98696 0.10385 0.0
C705 C 0.39928 0.98053 0.06082 0.0
C706 C 0.41293 0.9979 0.11356 0.0
C707 C 0.39006 0.9797 0.04411 0.0
C708 C 0.45506 0.00523 0.17831 0.0
C709 C 0.4481 0.00617 0.15997 0.0
C710 C 0.43484 0.99 0.10679 0.0
C711 C 0.40456 0.99229 0.07568 0.0
C712 C 0.41456 0.99328 0.0933 0.0
C713 C 0.44216 0.9944 0.14511 0.0
C714 C 0.43309 0.99451 0.12704 0.0
H715 H 0.38788 0.01078 0.05567 0.0
H716 H 0.40417 0.01238 0.08459 0.0
H717 H 0.4275 0.98612 0.07461 0.0
H718 H 0.45141 0.97099 0.16954 0.0
H719 H 0.43949 0.97275 0.13734 0.0
C720 C 0.40208 0.02103 0.93874 0.0
C721 C 0.38797 0.00831 0.94265 0.0
C722 C 0.41223 0.02019 0.92491 0.0
C723 C 0.41418 0.99552 0.88317 0.0
H724 H 0.45708 0.01885 0.89439 0.0
C725 C 0.45582 0.98445 0.83855 0.0
C726 C 0.46587 0.99674 0.82627 0.0
C727 C 0.44789 0.98636 0.85498 0.0
C728 C 0.44512 0.01227 0.89118 0.0
H729 H 0.37344 0.98471 0.93522 0.0
H730 H 0.39122 0.98304 0.91203 0.0
H731 H 0.43955 0.02125 0.91792 0.0
H732 H 0.47642 0.02076 0.82242 0.0
H733 H 0.46282 0.02418 0.85172 0.0
H734 H 0.41979 0.98623 0.85683 0.0
C735 C 0.39438 0.99385 0.91893 0.0
C736 C 0.43506 0.01373 0.90448 0.0
C737 C 0.38417 0.99477 0.93239 0.0
C738 C 0.46876 0.01115 0.83176 0.0
C739 C 0.46101 0.0131 0.84846 0.0
C740 C 0.42418 0.99385 0.87021 0.0
C741 C 0.40857 0.00653 0.91497 0.0
C742 C 0.41943 0.00534 0.90066 0.0
C743 C 0.45008 0.00063 0.85961 0.0
C744 C 0.43971 0.00218 0.8741 0.0
H745 H 0.40528 0.03163 0.94641 0.0
H746 H 0.42292 0.03026 0.92199 0.0
H747 H 0.40232 0.98918 0.87928 0.0
H748 H 0.45327 0.97322 0.83446 0.0
H749 H 0.43952 0.97661 0.86345 0.0
C750 C 0.99591 0.40559 0.96838 0.0
C751 C 0.00209 0.39622 0.96968 0.0
C752 C 1e-05 0.41596 0.95211 0.0
C753 C 0.01504 0.42397 0.89832 0.0
H754 H 0.02275 0.46404 0.91065 0.0
C755 C 0.03145 0.46685 0.83207 0.0
C756 C 0.02416 0.47518 0.83197 0.0
C757 C 0.03102 0.45886 0.84996 0.0
C758 C 0.02053 0.45287 0.9069 0.0
H759 H 0.01737 0.39038 0.95465 0.0
H760 H 0.02444 0.40848 0.92603 0.0
H761 H 0.01727 0.44644 0.93942 0.0
H762 H 0.01124 0.48229 0.85052 0.0
H763 H 0.01018 0.46808 0.88186 0.0
H764 H 0.01781 0.43013 0.86583 0.0
C765 C 0.0164 0.40773 0.9377 0.0
C766 C 0.01741 0.4428 0.9234 0.0
C767 C 0.01237 0.39739 0.95411 0.0
C768 C 0.01707 0.47605 0.85039 0.0
C769 C 0.01649 0.4679 0.86828 0.0
C770 C 0.01806 0.43399 0.88183 0.0
C771 C 0.01034 0.4172 0.93663 0.0
C772 C 0.01449 0.42819 0.91926 0.0
C773 C 0.02308 0.45884 0.86805 0.0
C774 C 0.02075 0.44855 0.88587 0.0
H775 H 0.98796 0.40503 0.98007 0.0
H776 H 0.99496 0.42292 0.95154 0.0
H777 H 0.01264 0.41273 0.89459 0.0
H778 H 0.037 0.46607 0.81799 0.0
H779 H 0.03655 0.45233 0.84937 0.0
C780 C 0.60139 0.61382 0.9379 0.0
C781 C 0.60943 0.61043 0.95255 0.0
C782 C 0.59229 0.60324 0.92267 0.0
C783 C 0.58719 0.56978 0.89447 0.0
H784 H 0.54836 0.56451 0.87926 0.0
C785 C 0.53364 0.53049 0.83555 0.0
C786 C 0.54175 0.53239 0.81686 0.0
C787 C 0.54108 0.53866 0.85377 0.0
C788 C 0.55909 0.56572 0.88354 0.0
H789 H 0.61423 0.59331 0.96272 0.0
H790 H 0.59837 0.57491 0.9362 0.0
H791 H 0.56293 0.58173 0.90797 0.0
H792 H 0.56395 0.54368 0.80273 0.0
H793 H 0.57684 0.55785 0.83429 0.0
H794 H 0.58344 0.55389 0.87002 0.0
C795 C 0.59917 0.58576 0.93636 0.0
C796 C 0.56752 0.57571 0.89977 0.0
C797 C 0.60823 0.5963 0.9516 0.0
C798 C 0.55741 0.54215 0.81688 0.0
C799 C 0.56481 0.55015 0.83501 0.0
C800 C 0.57882 0.55987 0.87823 0.0
C801 C 0.59109 0.58909 0.92173 0.0
C802 C 0.58175 0.57798 0.90523 0.0
C803 C 0.55674 0.54863 0.85361 0.0
C804 C 0.56478 0.5579 0.87236 0.0
H805 H 0.60206 0.62461 0.93826 0.0
H806 H 0.58636 0.60623 0.91142 0.0
H807 H 0.59815 0.57134 0.89818 0.0
H808 H 0.52156 0.523 0.83589 0.0
H809 H 0.5346 0.5372 0.86795 0.0
C810 C 0.97655 0.58372 0.95956 0.0
C811 C 0.98834 0.59802 0.96546 0.0
C812 C 0.97854 0.57566 0.94337 0.0
C813 C 0.00674 0.57008 0.91801 0.0
H814 H 0.97965 0.55508 0.87003 0.0
C815 C 0.01958 0.54619 0.84342 0.0
C816 C 0.00759 0.53582 0.8308 0.0
C817 C 0.01686 0.55238 0.86136 0.0
C818 C 0.98714 0.55884 0.88352 0.0
H819 H 0.01146 0.6151 0.95904 0.0
H820 H 0.01505 0.60076 0.93101 0.0
H821 H 0.97558 0.56897 0.89787 0.0
H822 H 0.98338 0.52302 0.82752 0.0
H823 H 0.97846 0.53305 0.85957 0.0
H824 H 0.01808 0.55964 0.90419 0.0
C825 C 0.00424 0.59593 0.93884 0.0
C826 C 0.98486 0.56694 0.89935 0.0
C827 C 0.00214 0.60415 0.95473 0.0
C828 C 0.99279 0.53101 0.83709 0.0
C829 C 0.99002 0.53695 0.85528 0.0
C830 C 0.00886 0.56171 0.90239 0.0
C831 C 0.99247 0.5816 0.93311 0.0
C832 C 0.99474 0.57277 0.91659 0.0
C833 C 0.00204 0.54814 0.86725 0.0
C834 C -0.00081 0.55611 0.88478 0.0
H835 H 0.96578 0.57873 0.96753 0.0
H836 H 0.96932 0.56461 0.93922 0.0
H837 H 0.01439 0.57431 0.93134 0.0
H838 H 0.03111 0.55024 0.83864 0.0
H839 H 0.02644 0.56108 0.8699 0.0
C840 C 0.38363 0.40121 0.93734 0.0
C841 C 0.3891 0.39417 0.95051 0.0
C842 C 0.39295 0.41151 0.9222 0.0
C843 C 0.43309 0.43619 0.90823 0.0
H844 H 0.41734 0.43443 0.85212 0.0
C845 C 0.47024 0.46133 0.83456 0.0
C846 C 0.46509 0.46673 0.81824 0.0
C847 C 0.46155 0.45515 0.85266 0.0
C848 C 0.42186 0.4353 0.86782 0.0
H849 H 0.40858 0.39225 0.95794 0.0
H850 H 0.42477 0.41003 0.9313 0.0
H851 H 0.40073 0.41777 0.87935 0.0
H852 H 0.44747 0.4711 0.8089 0.0
H853 H 0.43233 0.4604 0.84062 0.0
H854 H 0.45433 0.45349 0.89649 0.0
C855 C 0.41336 0.40781 0.93292 0.0
C856 C 0.41233 0.4257 0.88343 0.0
C857 C 0.40404 0.39752 0.94806 0.0
C858 C 0.45162 0.46683 0.82111 0.0
C859 C 0.44293 0.46065 0.83921 0.0
C860 C 0.44263 0.44579 0.89261 0.0
C861 C 0.40795 0.41499 0.91989 0.0
C862 C 0.41788 0.42587 0.90372 0.0
C863 C 0.44754 0.45424 0.85482 0.0
C864 C 0.43717 0.44531 0.87214 0.0
H865 H 0.37219 0.39892 0.93892 0.0
H866 H 0.38848 0.41694 0.91252 0.0
H867 H 0.43764 0.43679 0.92383 0.0
H868 H 0.48046 0.46091 0.83274 0.0
H869 H 0.46538 0.45021 0.8643 0.0
C870 C 0.61285 0.0212 0.95705 0.0
C871 C 0.61534 0.00968 0.96357 0.0
C872 C 0.6028 0.01878 0.94069 0.0
C873 C 0.5691 0.98952 0.91459 0.0
H874 H 0.58032 0.01853 0.86972 0.0
C875 C 0.53151 0.9797 0.84113 0.0
C876 C 0.53252 0.99229 0.83136 0.0
C877 C 0.54069 0.98145 0.85845 0.0
C878 C 0.57685 0.01044 0.88233 0.0
H879 H 0.60933 0.98661 0.95787 0.0
H880 H 0.59153 0.98232 0.92932 0.0
H881 H 0.59867 0.02224 0.89668 0.0
H882 H 0.54306 0.01644 0.83259 0.0
H883 H 0.5585 0.01954 0.86347 0.0
H884 H 0.54715 0.97788 0.90058 0.0
C885 C 0.59745 0.99323 0.93693 0.0
C886 C 0.58745 0.01252 0.89768 0.0
C887 C 0.60772 0.99573 0.95311 0.0
C888 C 0.54211 0.00657 0.83994 0.0
C889 C 0.55109 0.00832 0.85743 0.0
C890 C 0.5584 0.98752 0.89936 0.0
C891 C 0.59484 0.00472 0.93066 0.0
C892 C 0.58369 0.00211 0.91397 0.0
C893 C 0.55094 0.99585 0.86643 0.0
C894 C 0.56212 0.99799 0.88304 0.0
H895 H 0.61855 0.03207 0.96478 0.0
H896 H 0.60095 0.02781 0.93626 0.0
H897 H 0.56586 0.98141 0.92714 0.0
H898 H 0.52433 0.9686 0.83454 0.0
H899 H 0.54031 0.97159 0.8648 0.0
C900 C 0.59873 0.98668 0.06743 0.0
C901 C 0.61345 0.99907 0.06683 0.0
C902 C 0.5881 0.98651 0.08128 0.0
C903 C 0.57944 0.0114 0.11269 0.0
H904 H 0.55246 0.97477 0.14237 0.0
C905 C 0.54312 0.00855 0.18425 0.0
C906 C 0.5291 0.99542 0.18711 0.0
C907 C 0.55242 0.0097 0.16742 0.0
C908 C 0.55971 0.98503 0.13392 0.0
H909 H 0.62862 0.02093 0.0805 0.0
H910 H 0.61006 0.02054 0.10497 0.0
H911 H 0.57108 0.97523 0.11831 0.0
H912 H 0.51344 0.97362 0.17369 0.0
H913 H 0.52948 0.9758 0.14399 0.0
H914 H 0.56813 0.02123 0.12859 0.0
C915 C 0.6067 0.01104 0.09448 0.0
C916 C 0.57044 0.9853 0.12018 0.0
C917 C 0.61737 0.01121 0.08061 0.0
C918 C 0.52412 0.98392 0.17189 0.0
C919 C 0.53342 0.98508 0.15504 0.0
C920 C 0.56868 0.01113 0.12647 0.0
C921 C 0.59192 0.99871 0.09489 0.0
C922 C 0.58048 0.9985 0.10945 0.0
C923 C 0.5479 0.99775 0.15305 0.0
C924 C 0.55871 0.99794 0.1373 0.0
H925 H 0.59533 0.97716 0.05697 0.0
H926 H 0.57677 0.97691 0.08101 0.0
H927 H 0.58686 0.02169 0.10442 0.0
H928 H 0.5472 0.01765 0.19564 0.0
H929 H 0.5635 0.01961 0.16641 0.0
C930 C 0.9907 0.60679 0.08267 0.0
C931 C 0.00277 0.61438 0.06861 0.0
C932 C 0.99111 0.59744 0.09811 0.0
C933 C 0.00988 0.57613 0.11172 0.0
H934 H 0.99493 0.57636 0.16782 0.0
C935 C 0.02114 0.55019 0.18526 0.0
C936 C 0.00976 0.54375 0.20058 0.0
C937 C 0.01928 0.55699 0.16744 0.0
C938 C -0.00108 0.57596 0.15214 0.0
H939 H 0.02485 0.61834 0.05992 0.0
H940 H 0.02569 0.60224 0.08715 0.0
H941 H 0.99412 0.59249 0.14081 0.0
H942 H 0.98707 0.53825 0.20845 0.0
H943 H 0.98373 0.54996 0.17725 0.0
H944 H 0.01492 0.55975 0.1233 0.0
C945 C 0.01578 0.60328 0.08599 0.0
C946 C 0.99848 0.58525 0.13665 0.0
C947 C 0.01535 0.61261 0.0705 0.0
C948 C 0.99609 0.54331 0.19701 0.0
C949 C 0.99423 0.55008 0.17922 0.0
C950 C 0.01035 0.56685 0.12727 0.0
C951 C 0.00362 0.59551 0.0999 0.0
C952 C 0.00399 0.58548 0.11626 0.0
C953 C 0.00599 0.55746 0.16463 0.0
C954 C 0.00489 0.56668 0.14766 0.0
H955 H 0.9808 0.60785 0.08153 0.0
H956 H 0.98148 0.59149 0.1084 0.0
H957 H 0.014 0.57588 0.09608 0.0
H958 H 0.03184 0.55082 0.1877 0.0
H959 H 0.02858 0.56264 0.15654 0.0
C960 C 0.39976 0.39848 0.06399 0.0
C961 C 0.39206 0.40495 0.0547 0.0
C962 C 0.41062 0.40621 0.07958 0.0
C963 C 0.43465 0.44463 0.1023 0.0
H964 H 0.43984 0.42286 0.14788 0.0
C965 C 0.46488 0.47052 0.18168 0.0
C966 C 0.47442 0.46569 0.18955 0.0
C967 C 0.45675 0.46433 0.16307 0.0
C968 C 0.43864 0.42906 0.13508 0.0
H969 H 0.38931 0.42437 0.05497 0.0
H970 H 0.40769 0.43755 0.08282 0.0
H971 H 0.42094 0.40915 0.12082 0.0
H972 H 0.48344 0.4511 0.18389 0.0
H973 H 0.46901 0.44009 0.1514 0.0
H974 H 0.45194 0.46461 0.11738 0.0
C975 C 0.40581 0.42676 0.07758 0.0
C976 C 0.42782 0.42121 0.11951 0.0
C977 C 0.39514 0.41913 0.06174 0.0
C978 C 0.47628 0.45512 0.17798 0.0
C979 C 0.46794 0.44874 0.15955 0.0
C980 C 0.4453 0.45249 0.1181 0.0
C981 C 0.41386 0.42051 0.08652 0.0
C982 C 0.42561 0.42888 0.10293 0.0
C983 C 0.45782 0.45302 0.15224 0.0
C984 C 0.44736 0.44477 0.13464 0.0
H985 H 0.39776 0.38763 0.05874 0.0
H986 H 0.41671 0.4011 0.0858 0.0
H987 H 0.43355 0.45093 0.08958 0.0
H988 H 0.46323 0.4786 0.19044 0.0
H989 H 0.44896 0.46777 0.15783 0.0
C990 C 0.66225 0.72029 0.41899 0.0
C991 C 0.67462 0.72531 0.40534 0.0
C992 C 0.66201 0.72983 0.4345 0.0
C993 C 0.67954 0.76992 0.44985 0.0
H994 H 0.66494 0.7536 0.50547 0.0
C995 C 0.67299 0.80367 0.51936 0.0
C996 C 0.67747 0.80138 0.53924 0.0
C997 C 0.67239 0.7949 0.50196 0.0
C998 C 0.6691 0.75836 0.49003 0.0
H999 H 0.69645 0.74425 0.39729 0.0
H1000 H 0.69615 0.76082 0.42464 0.0
H1001 H 0.66449 0.73725 0.4774 0.0
H1002 H 0.68587 0.78898 0.55619 0.0
H1003 H 0.68489 0.77387 0.5261 0.0
H1004 H 0.68454 0.79117 0.46285 0.0
C1005 C 0.68652 0.74959 0.42312 0.0
C1006 C 0.66868 0.74894 0.47387 0.0
C1007 C 0.68676 0.74005 0.40758 0.0
C1008 C 0.68196 0.7907 0.54119 0.0
C1009 C 0.68138 0.78202 0.52395 0.0
C1010 C 0.67994 0.77938 0.46608 0.0
C1011 C 0.67414 0.7446 0.43675 0.0
C1012 C 0.67403 0.75461 0.45363 0.0
C1013 C 0.6763 0.78377 0.50424 0.0
C1014 C 0.67494 0.77373 0.48644 0.0
H1015 H 0.65267 0.70903 0.41756 0.0
H1016 H 0.65221 0.72568 0.44457 0.0
H1017 H 0.68356 0.7746 0.43435 0.0
H1018 H 0.66954 0.81188 0.51744 0.0
H1019 H 0.66846 0.79652 0.48693 0.0
C1020 C 0.27336 0.93922 0.40124 0.0
C1021 C 0.26426 0.94034 0.38571 0.0
C1022 C 0.26693 0.92852 0.41719 0.0
C1023 C 0.23073 0.90376 0.44414 0.0
H1024 H 0.25156 0.8836 0.46337 0.0
C1025 C 0.20568 0.85874 0.50881 0.0
C1026 C 0.21567 0.86159 0.52559 0.0
C1027 C 0.21106 0.86621 0.4896 0.0
C1028 C 0.24561 0.88913 0.45813 0.0
H1029 H 0.24123 0.93109 0.37491 0.0
H1030 H 0.23011 0.91236 0.40246 0.0
H1031 H 0.26209 0.90151 0.43451 0.0
H1032 H 0.23906 0.87357 0.53521 0.0
H1033 H 0.24848 0.88646 0.5017 0.0
H1034 H 0.21432 0.89145 0.4679 0.0
C1035 C 0.24218 0.91989 0.40255 0.0
C1036 C 0.25169 0.89947 0.4417 0.0
C1037 C 0.24859 0.93063 0.38668 0.0
C1038 C 0.23116 0.87122 0.52245 0.0
C1039 C 0.23654 0.87854 0.50326 0.0
C1040 C 0.22461 0.89335 0.46047 0.0
C1041 C 0.25127 0.91863 0.41793 0.0
C1042 C 0.24445 0.90709 0.43472 0.0
C1043 C 0.22651 0.87648 0.48685 0.0
C1044 C 0.2321 0.8861 0.46786 0.0
H1045 H 0.28547 0.94654 0.40101 0.0
H1046 H 0.27426 0.92806 0.42901 0.0
H1047 H 0.22494 0.90954 0.43938 0.0
H1048 H 0.19368 0.85141 0.51094 0.0
H1049 H 0.20309 0.8643 0.47714 0.0
C1050 C 0.06617 0.3438 0.3905 0.0
C1051 C 0.06247 0.33199 0.37617 0.0
C1052 C 0.07548 0.34604 0.40785 0.0
C1053 C 0.10329 0.33623 0.42772 0.0
H1054 H 0.09416 0.34688 0.48226 0.0
C1055 C 0.12544 0.32764 0.50678 0.0
C1056 C 0.12928 0.33845 0.52283 0.0
C1057 C 0.11943 0.32889 0.48768 0.0
C1058 C 0.09701 0.34415 0.46706 0.0
H1059 H 0.06539 0.31306 0.36916 0.0
H1060 H 0.08122 0.31672 0.39956 0.0
H1061 H 0.0789 0.34479 0.45168 0.0
H1062 H 0.13077 0.35958 0.53079 0.0
H1063 H 0.1201 0.36166 0.49748 0.0
H1064 H 0.12111 0.33513 0.44334 0.0
C1065 C 0.07729 0.32452 0.39715 0.0
C1066 C 0.08826 0.34295 0.44952 0.0
C1067 C 0.06809 0.32234 0.37978 0.0
C1068 C 0.1277 0.35094 0.51888 0.0
C1069 C 0.12159 0.35213 0.49984 0.0
C1070 C 0.11198 0.33734 0.44529 0.0
C1071 C 0.08123 0.33647 0.41131 0.0
C1072 C 0.09115 0.33875 0.42969 0.0
C1073 C 0.11705 0.34093 0.48425 0.0
C1074 C 0.10881 0.34113 0.4652 0.0
H1075 H 0.0621 0.3515 0.38812 0.0
H1076 H 0.07838 0.35543 0.41834 0.0
H1077 H 0.10605 0.33331 0.4126 0.0
H1078 H 0.12627 0.31776 0.50937 0.0
H1079 H 0.11591 0.32001 0.47605 0.0
C1080 C 0.06215 0.33127 0.26631 0.0
C1081 C 0.06437 0.34483 0.27478 0.0
C1082 C 0.0733 0.33102 0.25413 0.0
C1083 C 0.10381 0.35249 0.21848 0.0
H1084 H 0.11656 0.32419 0.23247 0.0
C1085 C 0.14139 0.34308 0.16133 0.0
C1086 C 0.13674 0.32795 0.15752 0.0
C1087 C 0.1361 0.34721 0.17895 0.0
C1088 C 0.11309 0.3321 0.22825 0.0
H1089 H 0.07981 0.36883 0.27662 0.0
H1090 H 0.09918 0.36842 0.25449 0.0
H1091 H 0.09954 0.32725 0.25605 0.0
H1092 H 0.12361 0.30541 0.16966 0.0
H1093 H 0.11408 0.31243 0.19999 0.0
H1094 H 0.11642 0.35669 0.19004 0.0
C1095 C 0.08887 0.358 0.25771 0.0
C1096 C 0.10341 0.33389 0.24181 0.0
C1097 C 0.07781 0.35822 0.2703 0.0
C1098 C 0.12754 0.31718 0.17237 0.0
C1099 C 0.12208 0.32126 0.18982 0.0
C1100 C 0.11329 0.35053 0.2047 0.0
C1101 C 0.08678 0.34435 0.24982 0.0
C1102 C 0.09843 0.34385 0.2368 0.0
C1103 C 0.12584 0.33625 0.19293 0.0
C1104 C 0.11777 0.34003 0.20914 0.0
H1105 H 0.05193 0.32076 0.2695 0.0
H1106 H 0.07136 0.32039 0.24795 0.0
H1107 H 0.10005 0.36019 0.21425 0.0
H1108 H 0.14855 0.3516 0.15012 0.0
H1109 H 0.13955 0.35891 0.18111 0.0
C1110 C 0.6807 0.73481 0.29045 0.0
C1111 C 0.66688 0.72825 0.30121 0.0
C1112 C 0.68409 0.74574 0.27508 0.0
C1113 C 0.67216 0.77232 0.25683 0.0
H1114 H 0.69418 0.77415 0.20619 0.0
C1115 C 0.67142 0.8015 0.18013 0.0
C1116 C 0.68493 0.80967 0.16894 0.0
C1117 C 0.67087 0.79369 0.1983 0.0
C1118 C 0.68823 0.77393 0.22042 0.0
H1119 H 0.64555 0.72754 0.30364 0.0
H1120 H 0.65118 0.74607 0.27645 0.0
H1121 H 0.68959 0.75554 0.23304 0.0
H1122 H 0.70852 0.81647 0.168 0.0
H1123 H 0.70757 0.80259 0.19983 0.0
H1124 H 0.67028 0.79032 0.24368 0.0
C1125 C 0.65966 0.74324 0.28031 0.0
C1126 C 0.68558 0.76325 0.23583 0.0
C1127 C 0.65636 0.73248 0.29579 0.0
C1128 C 0.69804 0.81039 0.1766 0.0
C1129 C 0.69745 0.80236 0.19462 0.0
C1130 C 0.67465 0.78286 0.24132 0.0
C1131 C 0.67367 0.75023 0.27 0.0
C1132 C 0.67731 0.76215 0.2541 0.0
C1133 C 0.68377 0.79368 0.20538 0.0
C1134 C 0.68254 0.78364 0.22284 0.0
H1135 H 0.6891 0.73187 0.29436 0.0
H1136 H 0.69503 0.75093 0.26762 0.0
H1137 H 0.66609 0.77209 0.27092 0.0
H1138 H 0.66115 0.80068 0.1743 0.0
H1139 H 0.66016 0.78699 0.20614 0.0
C1140 C 0.27272 0.92827 0.281 0.0
C1141 C 0.27447 0.94262 0.28254 0.0
C1142 C 0.26344 0.91815 0.26549 0.0
C1143 C 0.25131 0.90325 0.223 0.0
H1144 H 0.21285 0.89922 0.20865 0.0
C1145 C 0.22106 0.8768 0.14528 0.0
C1146 C 0.20544 0.86683 0.14553 0.0
C1147 C 0.22856 0.88491 0.1633 0.0
C1148 C 0.22348 0.9001 0.21267 0.0
H1149 H 0.26783 0.95761 0.26906 0.0
H1150 H 0.25173 0.93995 0.24178 0.0
H1151 H 0.22774 0.91576 0.2378 0.0
H1152 H 0.1854 0.85733 0.16491 0.0
H1153 H 0.19862 0.87174 0.19677 0.0
H1154 H 0.24715 0.88772 0.19785 0.0
C1155 C 0.25741 0.93648 0.25275 0.0
C1156 C 0.23208 0.90969 0.22917 0.0
C1157 C 0.26674 0.94664 0.26824 0.0
C1158 C 0.19745 0.86499 0.16433 0.0
C1159 C 0.20498 0.87326 0.18244 0.0
C1160 C 0.24277 0.89375 0.20649 0.0
C1161 C 0.25568 0.92213 0.2512 0.0
C1162 C 0.24616 0.91148 0.23435 0.0
C1163 C 0.22063 0.88328 0.18207 0.0
C1164 C 0.22888 0.89224 0.20094 0.0
H1165 H 0.27846 0.9248 0.29185 0.0
H1166 H 0.26223 0.90713 0.26484 0.0
H1167 H 0.26215 0.90445 0.22649 0.0
H1168 H 0.22756 0.87828 0.13111 0.0
H1169 H 0.24058 0.89265 0.16244 0.0
C1170 C 0.66612 0.93691 0.28829 0.0
C1171 C 0.65186 0.93016 0.29776 0.0
C1172 C 0.66911 0.92955 0.27209 0.0
C1173 C 0.654 0.89158 0.24767 0.0
H1174 H 0.68261 0.91428 0.20365 0.0
C1175 C 0.66112 0.8678 0.16777 0.0
C1176 C 0.67595 0.87208 0.16219 0.0
C1177 C 0.65828 0.87372 0.18591 0.0
C1178 C 0.6747 0.90783 0.21599 0.0
H1179 H 0.62935 0.91073 0.29715 0.0
H1180 H 0.63426 0.89826 0.26814 0.0
H1181 H 0.67699 0.92745 0.23086 0.0
H1182 H 0.69939 0.88554 0.17124 0.0
H1183 H 0.69443 0.8962 0.20281 0.0
H1184 H 0.65127 0.87191 0.2319 0.0
C1185 C 0.64338 0.90893 0.27373 0.0
C1186 C 0.6715 0.91536 0.23166 0.0
C1187 C 0.64049 0.91615 0.29023 0.0
C1188 C 0.68785 0.88195 0.17541 0.0
C1189 C 0.68504 0.88811 0.1933 0.0
C1190 C 0.65699 0.88405 0.23172 0.0
C1191 C 0.65781 0.9154 0.26466 0.0
C1192 C 0.66112 0.90735 0.24778 0.0
C1193 C 0.67025 0.88427 0.19845 0.0
C1194 C 0.66741 0.89212 0.21581 0.0
H1195 H 0.67516 0.94762 0.29393 0.0
H1196 H 0.68043 0.93483 0.26584 0.0
H1197 H 0.6462 0.88499 0.26001 0.0
H1198 H 0.6518 0.86028 0.15768 0.0
H1199 H 0.6468 0.87066 0.18953 0.0
C1200 C 0.0706 0.73161 0.28362 0.0
C1201 C 0.05602 0.72904 0.2871 0.0
C1202 C 0.07946 0.74098 0.26733 0.0
C1203 C 0.07633 0.75627 0.21661 0.0
H1204 H 0.11953 0.78207 0.22291 0.0
C1205 C 0.11522 0.77836 0.14529 0.0
C1206 C 0.12713 0.79332 0.14531 0.0
C1207 C 0.10676 0.77205 0.16341 0.0
C1208 C 0.10746 0.77508 0.22099 0.0
H1209 H 0.03934 0.73442 0.27645 0.0
H1210 H 0.05485 0.75087 0.24813 0.0
H1211 H 0.10428 0.76841 0.25341 0.0
H1212 H 0.13978 0.81328 0.16459 0.0
H1213 H 0.12486 0.80212 0.19663 0.0
H1214 H 0.07946 0.7629 0.18427 0.0
C1215 C 0.05937 0.74549 0.2578 0.0
C1216 C 0.09875 0.76711 0.23838 0.0
C1217 C 0.0505 0.73609 0.27405 0.0
C1218 C 0.13063 0.80174 0.16412 0.0
C1219 C 0.12212 0.79536 0.1824 0.0
C1220 C 0.08502 0.76421 0.19929 0.0
C1221 C 0.07394 0.74801 0.2542 0.0
C1222 C 0.08311 0.75741 0.23628 0.0
C1223 C 0.10998 0.78048 0.18212 0.0
C1224 C 0.10071 0.77345 0.20116 0.0
H1225 H 0.07515 0.72634 0.29341 0.0
H1226 H 0.09053 0.74247 0.26478 0.0
H1227 H 0.06435 0.74883 0.21437 0.0
H1228 H 0.11253 0.77141 0.13126 0.0
H1229 H 0.09778 0.76044 0.16282 0.0
C1230 C 0.26071 0.33763 0.29897 0.0
C1231 C 0.27012 0.33148 0.30008 0.0
C1232 C 0.24983 0.33315 0.28316 0.0
C1233 C 0.22811 0.30283 0.24419 0.0
H1234 H 0.22174 0.33291 0.21801 0.0
C1235 C 0.19707 0.29411 0.16499 0.0
C1236 C 0.18838 0.30093 0.16218 0.0
C1237 C 0.20507 0.29624 0.18368 0.0
C1238 C 0.22317 0.32432 0.22541 0.0
H1239 H 0.27548 0.31581 0.28524 0.0
H1240 H 0.25664 0.3082 0.25729 0.0
H1241 H 0.24029 0.34022 0.24605 0.0
H1242 H 0.18053 0.31458 0.17713 0.0
H1243 H 0.1945 0.31826 0.21003 0.0
H1244 H 0.21119 0.287 0.22306 0.0
C1245 C 0.25753 0.31632 0.26894 0.0
C1246 C 0.23385 0.32851 0.24147 0.0
C1247 C 0.26842 0.32078 0.28486 0.0
C1248 C 0.18711 0.30917 0.17893 0.0
C1249 C 0.19522 0.31139 0.19763 0.0
C1250 C 0.21745 0.29864 0.22803 0.0
C1251 C 0.24809 0.32245 0.26793 0.0
C1252 C 0.23653 0.31785 0.251 0.0
C1253 C 0.20462 0.30529 0.19996 0.0
C1254 C 0.21493 0.30936 0.21836 0.0
H1255 H 0.26159 0.34582 0.3105 0.0
H1256 H 0.24261 0.33793 0.28309 0.0
H1257 H 0.22969 0.29427 0.25141 0.0
H1258 H 0.19815 0.28763 0.15234 0.0
H1259 H 0.21225 0.29145 0.18489 0.0
C1260 C 0.26203 0.3164 0.40525 0.0
C1261 C 0.27658 0.32888 0.40296 0.0
C1262 C 0.2518 0.3169 0.41924 0.0
C1263 C 0.24392 0.34361 0.44737 0.0
H1264 H 0.2181 0.30918 0.48187 0.0
C1265 C 0.21158 0.34618 0.52021 0.0
C1266 C 0.19756 0.33357 0.52503 0.0
C1267 C 0.21991 0.34593 0.50297 0.0
C1268 C 0.22503 0.3188 0.47207 0.0
H1269 H 0.29193 0.35154 0.41391 0.0
H1270 H 0.27413 0.35232 0.43861 0.0
H1271 H 0.23571 0.30792 0.45749 0.0
H1272 H 0.18087 0.31115 0.51482 0.0
H1273 H 0.19531 0.3108 0.48441 0.0
H1274 H 0.23338 0.35456 0.46227 0.0
C1275 C 0.27055 0.34224 0.4293 0.0
C1276 C 0.23517 0.3181 0.45814 0.0
C1277 C 0.28079 0.34175 0.41531 0.0
C1278 C 0.19159 0.32107 0.51142 0.0
C1279 C 0.19995 0.3208 0.49418 0.0
C1280 C 0.23378 0.34432 0.46134 0.0
C1281 C 0.25587 0.32988 0.43128 0.0
C1282 C 0.24484 0.33053 0.44575 0.0
C1283 C 0.21442 0.33305 0.49017 0.0
C1284 C 0.22429 0.33196 0.47398 0.0
H1285 H 0.25842 0.30633 0.39591 0.0
H1286 H 0.24056 0.30722 0.42023 0.0
H1287 H 0.25101 0.35329 0.43777 0.0
H1288 H 0.21641 0.35599 0.5304 0.0
H1289 H 0.23103 0.35553 0.50042 0.0
C1290 C 0.67649 0.93873 0.40131 0.0
C1291 C 0.66404 0.94081 0.40091 0.0
C1292 C 0.67717 0.92901 0.41583 0.0
C1293 C 0.65346 0.89698 0.45054 0.0
H1294 H 0.69106 0.90961 0.4798 0.0
C1295 C 0.65812 0.87026 0.52759 0.0
C1296 C 0.67142 0.87006 0.53159 0.0
C1297 C 0.65655 0.87661 0.50911 0.0
C1298 C 0.68054 0.90574 0.47148 0.0
H1299 H 0.64257 0.93437 0.41549 0.0
H1300 H 0.64386 0.91751 0.44107 0.0
H1301 H 0.68983 0.92579 0.45324 0.0
H1302 H 0.69303 0.87533 0.51864 0.0
H1303 H 0.69013 0.88608 0.48609 0.0
H1304 H 0.64412 0.87703 0.46911 0.0
C1305 C 0.65299 0.92326 0.42994 0.0
C1306 C 0.67983 0.91507 0.4563 0.0
C1307 C 0.65232 0.93302 0.41543 0.0
C1308 C 0.68262 0.87527 0.51598 0.0
C1309 C 0.68104 0.88161 0.49747 0.0
C1310 C 0.65418 0.88763 0.46574 0.0
C1311 C 0.66542 0.92112 0.43027 0.0
C1312 C 0.66624 0.91088 0.44581 0.0
C1313 C 0.66824 0.88288 0.4942 0.0
C1314 C 0.66769 0.89198 0.47655 0.0
H1315 H 0.68568 0.94452 0.39027 0.0
H1316 H 0.68683 0.9275 0.41552 0.0
H1317 H 0.64288 0.89332 0.44248 0.0
H1318 H 0.64924 0.86619 0.53927 0.0
H1319 H 0.64656 0.87743 0.50716 0.0
C1320 C 0.06289 0.75404 0.39924 0.0
C1321 C 0.05973 0.73985 0.39211 0.0
C1322 C 0.07375 0.7617 0.41484 0.0
C1323 C 0.09631 0.75634 0.45606 0.0
H1324 H 0.12039 0.79972 0.45337 0.0
C1325 C 0.14505 0.79063 0.514 0.0
C1326 C 0.14321 0.80126 0.52542 0.0
C1327 C 0.13666 0.78414 0.49563 0.0
C1328 C 0.11376 0.78761 0.45424 0.0
H1329 H 0.06546 0.72253 0.39582 0.0
H1330 H 0.08473 0.73604 0.4225 0.0
H1331 H 0.1017 0.78587 0.42597 0.0
H1332 H 0.13202 0.81417 0.52614 0.0
H1333 H 0.11768 0.80316 0.49364 0.0
H1334 H 0.1086 0.75817 0.48422 0.0
C1335 C 0.07857 0.74115 0.4165 0.0
C1336 C 0.10295 0.77965 0.43868 0.0
C1337 C 0.06752 0.73338 0.40114 0.0
C1338 C 0.13366 0.80606 0.51747 0.0
C1339 C 0.12549 0.79976 0.49893 0.0
C1340 C 0.10729 0.76429 0.47141 0.0
C1341 C 0.08192 0.75547 0.42346 0.0
C1342 C 0.0939 0.76391 0.43954 0.0
C1343 C 0.12652 0.78837 0.48826 0.0
C1344 C 0.11598 0.78 0.47079 0.0
H1345 H 0.057 0.75928 0.39269 0.0
H1346 H 0.07571 0.77251 0.42014 0.0
H1347 H 0.08944 0.74429 0.45752 0.0
H1348 H 0.15222 0.78665 0.51999 0.0
H1349 H 0.13771 0.77544 0.48759 0.0
C1350 C 0.35784 0.07828 0.73814 0.0
C1351 C 0.34512 0.06382 0.73676 0.0
C1352 C 0.3586 0.08852 0.75329 0.0
C1353 C 0.36102 0.10412 0.79509 0.0
H1354 H 0.32587 0.10712 0.80825 0.0
C1355 C 0.3557 0.13063 0.87183 0.0
C1356 C 0.34917 0.13969 0.87126 0.0
C1357 C 0.35589 0.12288 0.85389 0.0
C1358 C 0.33583 0.10655 0.80456 0.0
H1359 H 0.3232 0.04875 0.75024 0.0
H1360 H 0.3246 0.0666 0.77689 0.0
H1361 H 0.3246 0.09038 0.77984 0.0
H1362 H 0.33808 0.14809 0.85137 0.0
H1363 H 0.33832 0.13434 0.81965 0.0
H1364 H 0.37221 0.12017 0.81984 0.0
C1365 C 0.33392 0.07007 0.76605 0.0
C1366 C 0.33505 0.09683 0.78848 0.0
C1367 C 0.33318 0.0598 0.75092 0.0
C1368 C 0.34316 0.14115 0.85217 0.0
C1369 C 0.34322 0.13323 0.83414 0.0
C1370 C 0.36177 0.11376 0.81118 0.0
C1371 C 0.34664 0.08455 0.76739 0.0
C1372 C 0.34759 0.09537 0.78375 0.0
C1373 C 0.34953 0.12395 0.83489 0.0
C1374 C 0.34912 0.11492 0.81631 0.0
H1375 H 0.36721 0.08175 0.7274 0.0
H1376 H 0.3685 0.09963 0.75377 0.0
H1377 H 0.37085 0.1032 0.79194 0.0
H1378 H 0.36056 0.12944 0.88631 0.0
H1379 H 0.36068 0.11572 0.85507 0.0
C1380 C 0.9337 0.26988 0.73007 0.0
C1381 C 0.92665 0.27661 0.7196 0.0
C1382 C 0.9264 0.25986 0.74658 0.0
C1383 C 0.89883 0.25074 0.78792 0.0
H1384 H 0.89564 0.21172 0.78873 0.0
C1385 C 0.88848 0.21622 0.86282 0.0
C1386 C 0.87559 0.20178 0.86301 0.0
C1387 C 0.89342 0.22437 0.84422 0.0
C1388 C 0.89635 0.22252 0.78854 0.0
H1389 H 0.90654 0.27832 0.71846 0.0
H1390 H 0.89402 0.26117 0.74777 0.0
H1391 H 0.9072 0.22829 0.75829 0.0
H1392 H 0.85825 0.18437 0.84329 0.0
H1393 H 0.86742 0.19859 0.81033 0.0
H1394 H 0.88858 0.24527 0.8185 0.0
C1395 C 0.9051 0.26352 0.74297 0.0
C1396 C 0.90305 0.23202 0.7713 0.0
C1397 C 0.91227 0.27332 0.72623 0.0
C1398 C 0.86818 0.19545 0.84376 0.0
C1399 C 0.87336 0.20357 0.82494 0.0
C1400 C 0.89242 0.24139 0.80529 0.0
C1401 C 0.91203 0.2566 0.75316 0.0
C1402 C 0.90444 0.24625 0.77093 0.0
C1403 C 0.88588 0.21819 0.82517 0.0
C1404 C 0.89123 0.22727 0.80581 0.0
H1405 H 0.94473 0.27211 0.72523 0.0
H1406 H 0.93203 0.25477 0.75435 0.0
H1407 H 0.89983 0.26168 0.78805 0.0
H1408 H 0.89489 0.22129 0.87708 0.0
H1409 H 0.90328 0.23552 0.84467 0.0
C1410 C 0.72884 0.65202 0.71624 0.0
C1411 C 0.72371 0.66208 0.71265 0.0
C1412 C 0.73854 0.6543 0.73301 0.0
C1413 C 0.75201 0.6741 0.78414 0.0
H1414 H 0.78352 0.6645 0.77627 0.0
C1415 C 0.79363 0.68274 0.85076 0.0
C1416 C 0.79492 0.67011 0.85496 0.0
C1417 C 0.78688 0.68358 0.83211 0.0
C1418 C 0.77476 0.66721 0.7787 0.0
H1419 H 0.72473 0.6824 0.72401 0.0
H1420 H 0.74186 0.68648 0.75318 0.0
H1421 H 0.76756 0.66238 0.74652 0.0
H1422 H 0.79071 0.64877 0.84234 0.0
H1423 H 0.77922 0.65038 0.8097 0.0
H1424 H 0.75919 0.67884 0.81637 0.0
C1425 C 0.7382 0.67671 0.74315 0.0
C1426 C 0.76557 0.66594 0.7617 0.0
C1427 C 0.7284 0.67439 0.7264 0.0
C1428 C 0.79011 0.65875 0.83952 0.0
C1429 C 0.78346 0.65965 0.82082 0.0
C1430 C 0.76127 0.67546 0.80111 0.0
C1431 C 0.74346 0.66674 0.74657 0.0
C1432 C 0.7539 0.66912 0.7643 0.0
C1433 C 0.7814 0.67187 0.81718 0.0
C1434 C 0.7726 0.67181 0.79865 0.0
H1435 H 0.72538 0.64236 0.70606 0.0
H1436 H 0.74208 0.6462 0.73544 0.0
H1437 H 0.74304 0.67647 0.78679 0.0
H1438 H 0.79744 0.69179 0.86218 0.0
H1439 H 0.78566 0.69325 0.82957 0.0
C1440 C 0.73575 0.68471 0.60458 0.0
C1441 C 0.72203 0.67199 0.61015 0.0
C1442 C 0.7457 0.68339 0.59088 0.0
C1443 C 0.74723 0.65703 0.55191 0.0
H1444 H 0.79037 0.68169 0.56026 0.0
C1445 C 0.7877 0.64543 0.50553 0.0
C1446 C 0.79792 0.65761 0.4932 0.0
C1447 C 0.78013 0.64761 0.52222 0.0
C1448 C 0.77834 0.67474 0.55783 0.0
H1449 H 0.70802 0.64793 0.60586 0.0
H1450 H 0.72545 0.64554 0.58276 0.0
H1451 H 0.77325 0.68473 0.58384 0.0
H1452 H 0.80923 0.68172 0.48974 0.0
H1453 H 0.79614 0.68557 0.51928 0.0
H1454 H 0.75233 0.64685 0.52621 0.0
C1455 C 0.72844 0.65663 0.58832 0.0
C1456 C 0.76852 0.67655 0.57117 0.0
C1457 C 0.71843 0.65798 0.6017 0.0
C1458 C 0.80138 0.67216 0.49901 0.0
C1459 C 0.79393 0.67435 0.51589 0.0
C1460 C 0.75701 0.65507 0.53887 0.0
C1461 C 0.74221 0.6693 0.58269 0.0
C1462 C 0.75281 0.66769 0.56839 0.0
C1463 C 0.78277 0.66201 0.52702 0.0
C1464 C 0.77264 0.66388 0.54169 0.0
H1465 H 0.7388 0.69566 0.61084 0.0
H1466 H 0.75607 0.69344 0.58664 0.0
H1467 H 0.73526 0.65027 0.54885 0.0
H1468 H 0.78468 0.63408 0.5013 0.0
H1469 H 0.77166 0.63793 0.53071 0.0
C1470 C 0.34877 0.07046 0.62216 0.0
C1471 C 0.33506 0.06423 0.63313 0.0
C1472 C 0.35215 0.08113 0.60641 0.0
C1473 C 0.34051 0.10769 0.58705 0.0
H1474 H 0.36239 0.10854 0.53674 0.0
C1475 C 0.34046 0.13624 0.50925 0.0
C1476 C 0.35403 0.14411 0.49811 0.0
C1477 C 0.33971 0.12858 0.52769 0.0
C1478 C 0.35647 0.10859 0.55087 0.0
H1479 H 0.31388 0.06385 0.63556 0.0
H1480 H 0.31949 0.08193 0.60767 0.0
H1481 H 0.35755 0.09022 0.56414 0.0
H1482 H 0.37754 0.15055 0.49755 0.0
H1483 H 0.37622 0.13694 0.52985 0.0
H1484 H 0.33891 0.12568 0.57322 0.0
C1485 C 0.32791 0.07903 0.61166 0.0
C1486 C 0.35369 0.09808 0.5666 0.0
C1487 C 0.32461 0.06853 0.62754 0.0
C1488 C 0.36701 0.1447 0.5061 0.0
C1489 C 0.36621 0.13682 0.5244 0.0
C1490 C 0.34314 0.11806 0.5712 0.0
C1491 C 0.34183 0.08569 0.60112 0.0
C1492 C 0.34549 0.09735 0.58479 0.0
C1493 C 0.35246 0.12842 0.5351 0.0
C1494 C 0.351 0.11851 0.55285 0.0
H1495 H 0.35711 0.06747 0.62621 0.0
H1496 H 0.36304 0.08608 0.59881 0.0
H1497 H 0.3345 0.10776 0.60104 0.0
H1498 H 0.33029 0.13551 0.50317 0.0
H1499 H 0.32894 0.1221 0.53549 0.0
C1500 C 0.93608 0.26129 0.61513 0.0
C1501 C 0.93816 0.2758 0.61562 0.0
C1502 C 0.92737 0.25111 0.59931 0.0
C1503 C 0.91706 0.23583 0.55668 0.0
H1504 H 0.88024 0.23311 0.53657 0.0
C1505 C 0.89097 0.21002 0.47651 0.0
C1506 C 0.87525 0.201 0.4748 0.0
C1507 C 0.8976 0.21765 0.49522 0.0
C1508 C 0.89039 0.23361 0.54221 0.0
H1509 H 0.9327 0.291 0.59995 0.0
H1510 H 0.91764 0.27325 0.5721 0.0
H1511 H 0.89374 0.24956 0.56647 0.0
H1512 H 0.85414 0.19253 0.49144 0.0
H1513 H 0.86583 0.20605 0.5245 0.0
H1514 H 0.91379 0.21998 0.53241 0.0
C1515 C 0.92258 0.2697 0.58414 0.0
C1516 C 0.89822 0.24316 0.55914 0.0
C1517 C 0.93132 0.27991 0.59998 0.0
C1518 C 0.86628 0.19945 0.4924 0.0
C1519 C 0.87295 0.20724 0.51119 0.0
C1520 C 0.90927 0.22634 0.53975 0.0
C1521 C 0.92055 0.25519 0.58361 0.0
C1522 C 0.91175 0.24451 0.56638 0.0
C1523 C 0.88869 0.21647 0.51271 0.0
C1524 C 0.89599 0.2253 0.53211 0.0
H1525 H 0.94113 0.25775 0.62702 0.0
H1526 H 0.92589 0.23997 0.59948 0.0
H1527 H 0.92749 0.23668 0.56176 0.0
H1528 H 0.89816 0.21125 0.46326 0.0
H1529 H 0.90973 0.22479 0.4958 0.0
C1530 C 0.30997 0.25029 0.61702 0.0
C1531 C 0.32105 0.26381 0.62622 0.0
C1532 C 0.31365 0.24351 0.60084 0.0
C1533 C 0.34369 0.25029 0.56209 0.0
H1534 H 0.32247 0.20681 0.56054 0.0
C1535 C 0.35937 0.21701 0.50417 0.0
C1536 C 0.34727 0.20707 0.49129 0.0
C1537 C 0.35681 0.22324 0.52224 0.0
C1538 C 0.32849 0.21895 0.56085 0.0
H1539 H 0.34465 0.28097 0.62546 0.0
H1540 H 0.35124 0.26891 0.59766 0.0
H1541 H 0.31691 0.21963 0.58842 0.0
H1542 H 0.32306 0.19525 0.48749 0.0
H1543 H 0.31852 0.20575 0.51952 0.0
H1544 H 0.35546 0.24947 0.53465 0.0
C1545 C 0.3396 0.26368 0.60256 0.0
C1546 C 0.32522 0.22633 0.57668 0.0
C1547 C 0.33584 0.27061 0.61853 0.0
C1548 C 0.33253 0.20282 0.49732 0.0
C1549 C 0.32995 0.20882 0.51558 0.0
C1550 C 0.34712 0.24289 0.54647 0.0
C1551 C 0.32858 0.24992 0.59369 0.0
C1552 C 0.3326 0.24211 0.57732 0.0
C1553 C 0.3421 0.2194 0.52786 0.0
C1554 C 0.3394 0.22716 0.54555 0.0
H1555 H 0.29843 0.24485 0.62248 0.0
H1556 H 0.30475 0.23317 0.59402 0.0
H1557 H 0.34947 0.26242 0.56185 0.0
H1558 H 0.37083 0.22058 0.49964 0.0
H1559 H 0.36634 0.23134 0.53154 0.0
C1560 C 0.74096 0.06598 0.61042 0.0
C1561 C 0.72645 0.06361 0.61387 0.0
C1562 C 0.75021 0.07592 0.59489 0.0
C1563 C 0.74893 0.09434 0.54604 0.0
H1564 H 0.79163 0.12047 0.55663 0.0
C1565 C 0.78707 0.13527 0.48282 0.0
C1566 C 0.80018 0.13476 0.47854 0.0
C1567 C 0.77891 0.129 0.50128 0.0
C1568 C 0.77974 0.11321 0.55343 0.0
H1569 H 0.71021 0.06974 0.60371 0.0
H1570 H 0.72639 0.08712 0.57667 0.0
H1571 H 0.77538 0.10414 0.58463 0.0
H1572 H 0.81552 0.12811 0.49081 0.0
H1573 H 0.8013 0.11717 0.52304 0.0
H1574 H 0.75327 0.10315 0.51478 0.0
C1575 C 0.73057 0.08121 0.58582 0.0
C1576 C 0.77044 0.10383 0.56943 0.0
C1577 C 0.72132 0.07127 0.60135 0.0
C1578 C 0.80555 0.12881 0.49378 0.0
C1579 C 0.79737 0.12251 0.51224 0.0
C1580 C 0.75821 0.10371 0.53008 0.0
C1581 C 0.74515 0.08369 0.58246 0.0
C1582 C 0.75495 0.09417 0.56584 0.0
C1583 C 0.78368 0.12206 0.51582 0.0
C1584 C 0.77374 0.11315 0.53351 0.0
H1585 H 0.74521 0.06023 0.6198 0.0
H1586 H 0.76128 0.07739 0.59246 0.0
H1587 H 0.7371 0.08689 0.54264 0.0
H1588 H 0.78278 0.13995 0.47144 0.0
H1589 H 0.76858 0.12912 0.50381 0.0
C1590 C 0.92834 0.67078 0.62905 0.0
C1591 C 0.9374 0.66432 0.63144 0.0
C1592 C 0.91731 0.6657 0.61335 0.0
C1593 C 0.90652 0.64594 0.56227 0.0
H1594 H 0.86767 0.64173 0.57453 0.0
C1595 C 0.86109 0.62522 0.49832 0.0
C1596 C 0.85385 0.63352 0.49599 0.0
C1597 C 0.86943 0.62679 0.51647 0.0
C1598 C 0.87848 0.64293 0.57082 0.0
H1599 H 0.94197 0.64744 0.619 0.0
H1600 H 0.92269 0.63859 0.59149 0.0
H1601 H 0.88634 0.64904 0.60265 0.0
H1602 H 0.84887 0.64929 0.51114 0.0
H1603 H 0.86363 0.65225 0.54292 0.0
H1604 H 0.8989 0.6402 0.53041 0.0
C1605 C 0.92421 0.64766 0.60177 0.0
C1606 C 0.88919 0.64712 0.58692 0.0
C1607 C 0.93525 0.65272 0.61756 0.0
C1608 C 0.85426 0.64268 0.5127 0.0
C1609 C 0.86274 0.64437 0.53085 0.0
C1610 C 0.89586 0.6418 0.54618 0.0
C1611 C 0.91506 0.65405 0.59958 0.0
C1612 C 0.90338 0.64881 0.58278 0.0
C1613 C 0.87085 0.63683 0.5326 0.0
C1614 C 0.88173 0.64033 0.5502 0.0
H1615 H 0.92967 0.67975 0.63941 0.0
H1616 H 0.91065 0.67104 0.61186 0.0
H1617 H 0.91741 0.64736 0.55847 0.0
H1618 H 0.86084 0.61801 0.48565 0.0
H1619 H 0.8752 0.62052 0.51751 0.0
C1620 C 0.92935 0.652 0.73707 0.0
C1621 C 0.94412 0.66414 0.73508 0.0
C1622 C 0.91934 0.65272 0.75125 0.0
C1623 C 0.91283 0.67975 0.78125 0.0
H1624 H 0.88562 0.64465 0.81366 0.0
C1625 C 0.8799 0.68094 0.85459 0.0
C1626 C 0.86553 0.66847 0.85822 0.0
C1627 C 0.88846 0.68112 0.83734 0.0
C1628 C 0.89296 0.65448 0.80446 0.0
H1629 H 0.96009 0.68642 0.74673 0.0
H1630 H 0.9427 0.68755 0.77183 0.0
H1631 H 0.90306 0.64333 0.78906 0.0
H1632 H 0.84848 0.64684 0.84586 0.0
H1633 H 0.8633 0.64729 0.8155 0.0
H1634 H 0.90287 0.69095 0.79708 0.0
C1635 C 0.93876 0.6776 0.76212 0.0
C1636 C 0.90299 0.65374 0.79038 0.0
C1637 C 0.94877 0.67689 0.74788 0.0
C1638 C 0.85947 0.65666 0.84342 0.0
C1639 C 0.86804 0.65683 0.82619 0.0
C1640 C 0.9028 0.6805 0.79541 0.0
C1641 C 0.92388 0.66556 0.76384 0.0
C1642 C 0.9131 0.66637 0.77867 0.0
C1643 C 0.88282 0.66882 0.82338 0.0
C1644 C 0.89279 0.66789 0.80724 0.0
H1645 H 0.92539 0.64204 0.72737 0.0
H1646 H 0.90792 0.64331 0.75199 0.0
H1647 H 0.92029 0.68961 0.77221 0.0
H1648 H 0.88482 0.69023 0.86569 0.0
H1649 H 0.89981 0.69051 0.83566 0.0
C1650 C 0.33872 0.26693 0.73356 0.0
C1651 C 0.32641 0.26913 0.73155 0.0
C1652 C 0.33898 0.25778 0.74945 0.0
C1653 C 0.32327 0.24362 0.80185 0.0
H1654 H 0.34067 0.21834 0.79387 0.0
C1655 C 0.34484 0.22528 0.87125 0.0
C1656 C 0.34086 0.21016 0.87257 0.0
C1657 C 0.342 0.23081 0.85299 0.0
C1658 C 0.33562 0.22521 0.79625 0.0
H1659 H 0.30452 0.26314 0.74425 0.0
H1660 H 0.30495 0.24712 0.77195 0.0
H1661 H 0.33713 0.2307 0.76342 0.0
H1662 H 0.33151 0.18915 0.85534 0.0
H1663 H 0.32661 0.19897 0.82293 0.0
H1664 H 0.3219 0.23831 0.8346 0.0
C1665 C 0.31449 0.25261 0.7614 0.0
C1666 C 0.33373 0.2324 0.7789 0.0
C1667 C 0.31424 0.26177 0.74551 0.0
C1668 C 0.3346 0.20083 0.85477 0.0
C1669 C 0.3318 0.20643 0.8363 0.0
C1670 C 0.32521 0.23651 0.81912 0.0
C1671 C 0.32693 0.25062 0.76368 0.0
C1672 C 0.32776 0.24189 0.78158 0.0
C1673 C 0.33521 0.22142 0.83545 0.0
C1674 C 0.33169 0.22749 0.8166 0.0
H1675 H 0.34826 0.27242 0.72301 0.0
H1676 H 0.34882 0.25665 0.75096 0.0
H1677 H 0.31876 0.25093 0.80452 0.0
H1678 H 0.35013 0.23289 0.88446 0.0
H1679 H 0.34515 0.24251 0.8526 0.0
C1680 C 0.74123 0.08814 0.72223 0.0
C1681 C 0.73264 0.07252 0.7191 0.0
C1682 C 0.75194 0.09425 0.73837 0.0
C1683 C 0.76232 0.0848 0.7891 0.0
H1684 H 0.80122 0.12026 0.77891 0.0
C1685 C 0.80774 0.10704 0.85287 0.0
C1686 C 0.81506 0.12251 0.857 0.0
C1687 C 0.79932 0.10109 0.83447 0.0
C1688 C 0.79038 0.11041 0.78203 0.0
H1689 H 0.72855 0.05109 0.73066 0.0
H1690 H 0.74725 0.06176 0.75881 0.0
H1691 H 0.78278 0.10949 0.7503 0.0
H1692 H 0.82012 0.14402 0.84474 0.0
H1693 H 0.80519 0.13361 0.81247 0.0
H1694 H 0.76973 0.08577 0.82081 0.0
C1695 C 0.74561 0.06927 0.74884 0.0
C1696 C 0.77981 0.10426 0.76566 0.0
C1697 C 0.73491 0.06315 0.73267 0.0
C1698 C 0.81463 0.13206 0.84178 0.0
C1699 C 0.80608 0.12608 0.82336 0.0
C1700 C 0.77285 0.09095 0.80542 0.0
C1701 C 0.7543 0.08489 0.75182 0.0
C1702 C 0.76565 0.09138 0.76904 0.0
C1703 C 0.79791 0.11046 0.81988 0.0
C1704 C 0.78701 0.10382 0.80211 0.0
H1705 H 0.73979 0.0957 0.7121 0.0
H1706 H 0.75829 0.10631 0.74045 0.0
H1707 H 0.75144 0.07505 0.79233 0.0
H1708 H 0.80803 0.09948 0.86435 0.0
H1709 H 0.7935 0.08906 0.83202 0.0
C1710 C 0.03278 0.33471 0.02961 0.0
C1711 C 0.03737 0.3496 0.02452 0.0
C1712 C 0.0434 0.33028 0.03256 0.0
C1713 C 0.0845 0.34316 0.02657 0.0
H1714 H 0.07559 0.31458 0.07141 0.0
C1715 C 0.12829 0.33711 0.07628 0.0
C1716 C 0.12475 0.32255 0.08183 0.0
C1717 C 0.11826 0.33935 0.06423 0.0
C1718 C 0.07816 0.32239 0.0586 0.0
H1719 H 0.05666 0.37149 0.01813 0.0
H1720 H 0.07525 0.36404 0.0243 0.0
H1721 H 0.05669 0.32059 0.06084 0.0
H1722 H 0.1084 0.29891 0.0781 0.0
H1723 H 0.09079 0.30283 0.05716 0.0
H1724 H 0.10644 0.34555 0.02551 0.0
C1725 C 0.06345 0.35557 0.02537 0.0
C1726 C 0.06728 0.32583 0.05243 0.0
C1727 C 0.05279 0.35991 0.02197 0.0
C1728 C 0.11149 0.31024 0.07386 0.0
C1729 C 0.10135 0.31249 0.06206 0.0
C1730 C 0.09551 0.3399 0.03304 0.0
C1731 C 0.05892 0.34073 0.03101 0.0
C1732 C 0.0703 0.33637 0.03645 0.0
C1733 C 0.1044 0.32707 0.05779 0.0
C1734 C 0.09246 0.32955 0.04922 0.0
H1735 H 0.02095 0.32646 0.03142 0.0
H1736 H 0.03938 0.31866 0.03628 0.0
H1737 H 0.0872 0.35112 0.01394 0.0
H1738 H 0.13842 0.34678 0.08232 0.0
H1739 H 0.12086 0.35071 0.06125 0.0
C1740 C 0.62117 0.69155 0.01097 0.0
C1741 C 0.62958 0.68485 0.01664 0.0
C1742 C 0.6259 0.70632 0.01702 0.0
C1743 C 0.65909 0.74118 0.03814 0.0
H1744 H 0.62879 0.75032 0.0568 0.0
C1745 C 0.67665 0.79851 0.07541 0.0
C1746 C 0.66907 0.79779 0.09422 0.0
C1747 C 0.67093 0.78613 0.06174 0.0
C1748 C 0.63742 0.74797 0.05168 0.0
H1749 H 0.64956 0.68844 0.03315 0.0
H1750 H 0.65752 0.71393 0.0443 0.0
H1751 H 0.62107 0.72571 0.04207 0.0
H1752 H 0.64889 0.78407 0.11245 0.0
H1753 H 0.63916 0.76243 0.08914 0.0
H1754 H 0.67545 0.76307 0.04903 0.0
C1755 C 0.64749 0.70797 0.03467 0.0
C1756 C 0.63298 0.73388 0.04296 0.0
C1757 C 0.64285 0.69328 0.02842 0.0
C1758 C 0.65511 0.78488 0.09823 0.0
C1759 C 0.64945 0.7725 0.08469 0.0
C1760 C 0.66353 0.75521 0.04706 0.0
C1761 C 0.63907 0.7147 0.02908 0.0
C1762 C 0.64376 0.73017 0.03649 0.0
C1763 C 0.65754 0.77275 0.06664 0.0
C1764 C 0.65276 0.75869 0.05439 0.0
H1765 H 0.61096 0.68542 0.00173 0.0
H1766 H 0.61924 0.71117 0.01214 0.0
H1767 H 0.66772 0.73887 0.03291 0.0
H1768 H 0.68745 0.80829 0.07188 0.0
H1769 H 0.6773 0.78684 0.04774 0.0
C1770 C 0.30277 0.94487 0.98174 0.0
C1771 C 0.31167 0.95644 0.99602 0.0
C1772 C 0.28771 0.9346 0.9863 0.0
C1773 C 0.25696 0.92654 0.02529 0.0
H1774 H 0.24251 0.88561 0.00725 0.0
C1775 C 0.20358 0.87908 0.06235 0.0
C1776 C 0.20456 0.86654 0.06808 0.0
C1777 C 0.21366 0.88934 0.04773 0.0
C1778 C 0.24635 0.89695 0.01259 0.0
H1779 H 0.31187 0.96657 0.0261 0.0
H1780 H 0.28597 0.94816 0.03486 0.0
H1781 H 0.26647 0.90543 0.99456 0.0
H1782 H 0.21615 0.85435 0.06238 0.0
H1783 H 0.23409 0.87235 0.03774 0.0
H1784 H 0.2376 0.91787 0.04498 0.0
C1785 C 0.29026 0.94724 0.01966 0.0
C1786 C 0.26008 0.90846 0.00495 0.0
C1787 C 0.3052 0.95777 0.01478 0.0
C1788 C 0.21504 0.86384 0.05793 0.0
C1789 C 0.22534 0.87423 0.04372 0.0
C1790 C 0.24343 0.91498 0.03337 0.0
C1791 C 0.28131 0.93538 0.00558 0.0
C1792 C 0.2658 0.9234 0.01163 0.0
C1793 C 0.22522 0.88747 0.03907 0.0
C1794 C 0.23813 0.89994 0.02761 0.0
H1795 H 0.30745 0.94375 0.96698 0.0
H1796 H 0.28118 0.92597 0.97473 0.0
H1797 H 0.26066 0.93791 0.03034 0.0
H1798 H 0.19556 0.88137 0.07006 0.0
H1799 H 0.21286 0.89911 0.04409 0.0
C1800 C 0.35814 0.05245 0.01533 0.0
C1801 C 0.34854 0.03957 0.00342 0.0
C1802 C 0.356 0.06476 0.01563 0.0
C1803 C 0.32916 0.07737 0.00172 0.0
H1804 H 0.36518 0.11401 0.98526 0.0
C1805 C 0.32854 0.12132 0.94876 0.0
C1806 C 0.34105 0.13594 0.94833 0.0
C1807 C 0.32783 0.11092 0.96329 0.0
C1808 C 0.35503 0.10408 0.99046 0.0
H1809 H 0.32867 0.02916 0.98348 0.0
H1810 H 0.32498 0.0506 0.98394 0.0
H1811 H 0.36707 0.09267 0.99629 0.0
H1812 H 0.36168 0.15166 0.96454 0.0
H1813 H 0.36015 0.13368 0.9905 0.0
H1814 H 0.31705 0.08865 0.99514 0.0
C1815 C 0.33411 0.0512 0.99314 0.0
C1816 C 0.35614 0.09177 -0.00327 0.0
C1817 C 0.33631 0.03895 0.99272 0.0
C1818 C 0.35191 0.14047 0.96439 0.0
C1819 C 0.35114 0.13008 0.9791 0.0
C1820 C 0.32807 0.08974 0.99561 0.0
C1821 C 0.34415 0.06438 0.00416 0.0
C1822 C 0.34316 0.07811 0.00165 0.0
C1823 C 0.33956 0.11496 0.9779 0.0
C1824 C 0.34092 0.10307 0.98907 0.0
H1825 H 0.36762 0.05324 0.02383 0.0
H1826 H 0.36385 0.07473 0.02438 0.0
H1827 H 0.31899 0.06704 0.00576 0.0
H1828 H 0.31987 0.11759 0.93676 0.0
H1829 H 0.31872 0.09942 0.9618 0.0
C1830 C 0.96053 0.30915 0.0082 0.0
C1831 C 0.95573 0.31966 0.00929 0.0
C1832 C 0.95034 0.29413 0.00322 0.0
C1833 C 0.90913 0.26626 -0.00156 0.0
H1834 H 0.92303 0.24548 0.9621 0.0
C1835 C 0.87142 0.21601 0.94391 0.0
C1836 C 0.87539 0.20502 0.94063 0.0
C1837 C 0.87995 0.22818 0.9574 0.0
C1838 C 0.91901 0.25101 0.97259 0.0
H1839 H 0.93648 0.32261 0.00585 0.0
H1840 H 0.91889 0.29664 0.99637 0.0
H1841 H 0.9408 0.27064 0.97457 0.0
H1842 H 0.89064 0.1975 0.95005 0.0
H1843 H 0.90556 0.21877 0.9737 0.0
H1844 H 0.88713 0.24676 0.99538 0.0
C1845 C 0.93039 0.29983 -1e-05 0.0
C1846 C 0.92923 0.26548 0.97978 0.0
C1847 C 0.94053 0.3148 0.00525 0.0
C1848 C 0.88725 0.20574 0.95246 0.0
C1849 C 0.89589 0.218 0.96578 0.0
C1850 C 0.89887 0.25183 0.99101 0.0
C1851 C 0.93514 0.28927 -0.00109 0.0
C1852 C 0.9244 0.27341 0.99257 0.0
C1853 C 0.89271 0.22965 0.96767 0.0
C1854 C 0.90368 0.24413 0.97781 0.0
H1855 H 0.97213 0.31249 0.01145 0.0
H1856 H 0.9544 0.28632 0.0029 0.0
H1857 H 0.90503 0.27185 0.00863 0.0
H1858 H 0.86236 0.21573 0.93489 0.0
H1859 H 0.87725 0.23701 0.95848 0.0
C1860 C 0.69155 0.66667 0.98989 0.0
C1861 C 0.68134 0.65436 0.00207 0.0
C1862 C 0.70623 0.66964 0.98672 0.0
C1863 C 0.72664 0.64971 0.98271 0.0
H1864 H 0.76207 0.68944 0.98064 0.0
C1865 C 0.78097 0.65715 0.94739 0.0
C1866 C 0.78805 0.66889 0.9328 0.0
C1867 C 0.7704 0.65674 0.96164 0.0
C1868 C 0.75228 0.67826 0.98105 0.0
H1869 H 0.67874 0.63591 0.02123 0.0
H1870 H 0.70435 0.64101 0.01545 0.0
H1871 H 0.73847 0.68621 0.9945 0.0
H1872 H 0.79073 0.6902 0.92335 0.0
H1873 H 0.77184 0.68915 0.94733 0.0
H1874 H 0.73995 0.64175 0.96816 0.0
C1875 C 0.70095 0.64833 0.00835 0.0
C1876 C 0.73879 0.67643 0.98907 0.0
C1877 C 0.68631 0.64545 0.0117 0.0
C1878 C 0.78523 0.68082 0.93404 0.0
C1879 C 0.7745 0.6803 0.94805 0.0
C1880 C 0.74004 0.65154 0.97448 0.0
C1881 C 0.71097 0.66028 0.9955 0.0
C1882 C 0.72576 0.66216 0.98959 0.0
C1883 C 0.76648 0.66793 0.96144 0.0
C1884 C 0.75298 0.66589 0.97311 0.0
H1885 H 0.68808 0.67378 0.98232 0.0
H1886 H 0.71365 0.67885 0.97658 0.0
H1887 H 0.71674 0.6386 0.98264 0.0
H1888 H 0.78281 0.64774 0.94695 0.0
H1889 H 0.76477 0.64725 0.97213 0.0
C1890 C 0.9537 0.64743 -0.00192 0.0
C1891 C 0.94864 0.63336 0.00737 0.0
C1892 C 0.94348 0.65198 0.99262 0.0
C1893 C 0.90366 0.6361 0.9789 0.0
H1894 H 0.91203 0.67688 0.98595 0.0
C1895 C 0.8615 0.65153 0.94829 0.0
C1896 C 0.86775 0.66439 0.9356 0.0
C1897 C 0.87062 0.64898 0.96185 0.0
C1898 C 0.90955 0.66545 0.98384 0.0
H1899 H 0.92887 0.61325 0.01874 0.0
H1900 H 0.91116 0.6212 0.00929 0.0
H1901 H 0.92982 0.66992 -0.00039 0.0
H1902 H 0.88813 0.68548 0.92912 0.0
H1903 H 0.90412 0.6808 0.95218 0.0
H1904 H 0.88375 0.63164 0.96255 0.0
C1905 C 0.92299 0.62864 0.00598 0.0
C1906 C 0.91975 0.66148 0.99162 0.0
C1907 C 0.93318 0.6241 0.01144 0.0
C1908 C 0.88302 0.67531 0.93836 0.0
C1909 C 0.89218 0.67268 0.95176 0.0
C1910 C 0.89353 0.64006 0.97107 0.0
C1911 C 0.92799 0.64254 0.99629 0.0
C1912 C 0.91695 0.64678 0.98907 0.0
C1913 C 0.88621 0.65914 0.96289 0.0
C1914 C 0.89638 0.65481 0.97327 0.0
H1915 H 0.96553 0.65487 0.99479 0.0
H1916 H 0.94766 0.6627 0.98499 0.0
H1917 H 0.90129 0.62475 0.97632 0.0
H1918 H 0.84981 0.64284 0.94661 0.0
H1919 H 0.86557 0.63862 0.97066 0.0
C1920 C 0.34141 0.31029 0.99497 0.0
C1921 C 0.35411 0.32207 0.00497 0.0
C1922 C 0.33944 0.2959 0.99403 0.0
C1923 C 0.36144 0.27753 0.9921 0.0
H1924 H 0.32286 0.24097 -0.00174 0.0
C1925 C 0.35519 0.22244 0.96338 0.0
C1926 C 0.34259 0.21407 0.95032 0.0
C1927 C 0.35578 0.23339 0.97708 0.0
C1928 C 0.33372 0.25106 -0.00358 0.0
H1929 H 0.37447 0.32789 0.0224 0.0
H1930 H 0.37113 0.30278 0.02042 0.0
H1931 H 0.32546 0.26504 0.00812 0.0
H1932 H 0.31997 0.20925 0.94345 0.0
H1933 H 0.32119 0.22864 0.9665 0.0
H1934 H 0.36957 0.26392 0.97914 0.0
C1935 C 0.3627 0.30471 0.01336 0.0
C1936 C 0.33519 0.26483 0.00213 0.0
C1937 C 0.36459 0.31906 0.01452 0.0
C1938 C 0.32997 0.21574 0.95299 0.0
C1939 C 0.33064 0.22682 0.96643 0.0
C1940 C 0.35994 0.26382 0.98614 0.0
C1941 C 0.3502 0.29302 0.00288 0.0
C1942 C 0.34899 0.27824 -0.00044 0.0
C1943 C 0.34387 0.23634 0.97781 0.0
C1944 C 0.34596 0.25041 0.9877 0.0
H1945 H 0.33311 0.31224 0.98754 0.0
H1946 H 0.32978 0.28716 0.98564 0.0
H1947 H 0.37218 0.28768 0.98972 0.0
H1948 H 0.3651 0.22143 0.9618 0.0
H1949 H 0.36597 0.24017 0.98611 0.0
C1950 C 0.69886 0.04331 -0.00226 0.0
C1951 C 0.69059 0.04938 0.00661 0.0
C1952 C 0.71396 0.05261 0.99218 0.0
C1953 C 0.74139 0.09186 0.97855 0.0
H1954 H 0.77031 0.07871 0.98484 0.0
C1955 C 0.80183 0.12746 0.947 0.0
C1956 C 0.80613 0.11929 0.93391 0.0
C1957 C 0.78938 0.11994 0.96039 0.0
C1958 C 0.76237 0.08255 0.98301 0.0
H1959 H 0.69186 0.07005 0.01693 0.0
H1960 H 0.71819 0.0862 0.00742 0.0
H1961 H 0.74495 0.06344 -0.00097 0.0
H1962 H 0.80163 0.09709 0.92547 0.0
H1963 H 0.78008 0.08398 0.94885 0.0
H1964 H 0.75867 0.11077 0.96208 0.0
C1965 C 0.71295 0.07426 0.00448 0.0
C1966 C 0.74782 0.07377 0.99105 0.0
C1967 C 0.69785 0.06497 0.01001 0.0
C1968 C 0.79851 0.10361 0.93549 0.0
C1969 C 0.7862 0.09612 0.94894 0.0
C1970 C 0.75595 0.10065 0.97055 0.0
C1971 C 0.72118 0.06821 0.99539 0.0
C1972 C 0.73705 0.07816 0.98853 0.0
C1973 C 0.78115 0.10415 0.96101 0.0
C1974 C 0.76651 0.09594 0.97229 0.0
H1975 H 0.69364 0.03136 0.99488 0.0
H1976 H 0.71988 0.04758 0.98491 0.0
H1977 H 0.73336 0.09552 0.97609 0.0
H1978 H 0.80749 0.13956 0.94591 0.0
H1979 H 0.78586 0.12644 0.96969 0.0
C1980 C 0.67068 0.97161 0.02477 0.0
C1981 C 0.6558 0.96771 0.02025 0.0
C1982 C 0.67433 0.96053 0.02833 0.0
C1983 C 0.65866 0.91881 0.02606 0.0
H1984 H 0.68871 0.92832 0.06944 0.0
C1985 C 0.663 0.87647 0.0808 0.0
C1986 C 0.67746 0.87901 0.08522 0.0
C1987 C 0.66114 0.88621 0.06767 0.0
C1988 C 0.68047 0.92555 0.05705 0.0
H1989 H 0.63312 0.94916 0.01548 0.0
H1990 H 0.63923 0.9298 0.02283 0.0
H1991 H 0.68397 0.94767 0.0572 0.0
H1992 H 0.70122 0.89316 0.07859 0.0
H1993 H 0.69799 0.91039 0.05586 0.0
H1994 H 0.65455 0.89629 0.02728 0.0
C1995 C 0.64827 0.94137 0.02292 0.0
C1996 C 0.67776 0.93669 0.0499 0.0
C1997 C 0.6447 0.95248 0.01883 0.0
C1998 C 0.68994 0.89088 0.07521 0.0
C1999 C 0.68811 0.90078 0.06238 0.0
C2000 C 0.66118 0.90757 0.03357 0.0
C2001 C 0.66311 0.94523 0.02807 0.0
C2002 C 0.6667 0.93349 0.03443 0.0
C2003 C 0.67374 0.89881 0.05907 0.0
C2004 C 0.67204 0.91083 0.04925 0.0
H2005 H 0.6795 0.98328 0.02569 0.0
H2006 H 0.68596 0.96402 0.03158 0.0
H2007 H 0.65028 0.91591 0.01385 0.0
H2008 H 0.65323 0.86744 0.08847 0.0
H2009 H 0.64996 0.8845 0.06549 0.0
C2010 C 0.04635 0.6884 0.00506 0.0
C2011 C 0.03142 0.68402 0.01019 0.0
C2012 C 0.05775 0.70344 0.00685 0.0
C2013 C 0.0655 0.7377 0.036 0.0
H2014 H 0.10272 0.75571 0.00415 0.0
C2015 C 0.11407 0.79341 0.06341 0.0
C2016 C 0.127 0.79257 0.06759 0.0
C2017 C 0.10296 0.78307 0.04978 0.0
C2018 C 0.09234 0.75086 0.01306 0.0
H2019 H 0.0165 0.69202 0.01965 0.0
H2020 H 0.0362 0.71828 0.02194 0.0
H2021 H 0.08149 0.73153 0.99284 0.0
H2022 H 0.13922 0.78138 0.0591 0.0
H2023 H 0.11983 0.76329 0.03531 0.0
H2024 H 0.07635 0.75672 0.05649 0.0
C2025 C 0.03929 0.7101 0.01733 0.0
C2026 C 0.0802 0.73697 0.00669 0.0
C2027 C 0.02796 0.69505 0.01591 0.0
C2028 C 0.12941 0.78234 0.05605 0.0
C2029 C 0.11826 0.77194 0.04245 0.0
C2030 C 0.07753 0.75158 0.04221 0.0
C2031 C 0.05442 0.71445 0.01351 0.0
C2032 C 0.06673 0.73004 0.01839 0.0
C2033 C 0.10455 0.77166 0.04016 0.0
C2034 C 0.09121 0.75819 0.03113 0.0
H2035 H 0.04935 0.68013 0.00062 0.0
H2036 H 0.06925 0.70628 0.00399 0.0
H2037 H 0.05551 0.73267 0.04574 0.0
H2038 H 0.11202 0.80128 0.072 0.0
H2039 H 0.09265 0.78333 0.04797 0.0
C2040 C 0.30638 0.35018 0.02253 0.0
C2041 C 0.31433 0.36498 0.01507 0.0
C2042 C 0.29113 0.34347 0.02764 0.0
C2043 C 0.26234 0.35277 0.043 0.0
H2044 H 0.23494 0.31048 0.03204 0.0
C2045 C 0.20159 0.32341 0.07394 0.0
C2046 C 0.19792 0.31057 0.08569 0.0
C2047 C 0.21406 0.32954 0.06046 0.0
C2048 C 0.24245 0.32232 0.03515 0.0
H2049 H 0.31236 0.38425 0.00689 0.0
H2050 H 0.28576 0.37249 0.01569 0.0
H2051 H 0.2606 0.32251 0.0184 0.0
H2052 H 0.20351 0.29338 0.09151 0.0
H2053 H 0.22515 0.30394 0.06801 0.0
H2054 H 0.24435 0.3525 0.06025 0.0
C2055 C 0.29137 0.36614 0.01781 0.0
C2056 C 0.25716 0.32919 0.02743 0.0
C2057 C 0.30663 0.37287 0.01272 0.0
C2058 C 0.20617 0.30332 0.0826 0.0
C2059 C 0.21851 0.30935 0.06906 0.0
C2060 C 0.24763 0.34591 0.05068 0.0
C2061 C 0.28345 0.35138 0.02539 0.0
C2062 C 0.26739 0.34442 0.0317 0.0
C2063 C 0.22293 0.32281 0.0584 0.0
C2064 C 0.23762 0.33052 0.04728 0.0
H2065 H 0.31195 0.34378 0.02455 0.0
H2066 H 0.28543 0.33217 0.03377 0.0
H2067 H 0.26996 0.36448 0.04677 0.0
H2068 H 0.19541 0.32921 0.07617 0.0
H2069 H 0.21711 0.33985 0.05227 0.0
C2070 C 0.72246 0.69707 0.34995 0.0
C2071 C 0.70747 0.68609 0.35427 0.0
C2072 C 0.73413 0.69414 0.35339 0.0
C2073 C 0.74325 0.66442 0.35953 0.0
H2074 H 0.77379 0.6917 0.39889 0.0
C2075 C 0.77965 0.64772 0.4079 0.0
C2076 C 0.79338 0.65892 0.41639 0.0
C2077 C 0.77092 0.65153 0.39546 0.0
C2078 C 0.76567 0.68412 0.38743 0.0
H2079 H 0.69287 0.66323 0.36465 0.0
H2080 H 0.71324 0.65802 0.37018 0.0
H2081 H 0.75513 0.69737 0.38586 0.0
H2082 H 0.80937 0.68274 0.41736 0.0
H2083 H 0.7947 0.68943 0.39446 0.0
H2084 H 0.75378 0.65118 0.36088 0.0
C2085 C 0.71595 0.66891 0.36429 0.0
C2086 C 0.75488 0.68737 0.38008 0.0
C2087 C 0.70432 0.67193 0.36124 0.0
C2088 C 0.79882 0.67391 0.41088 0.0
C2089 C 0.79026 0.67772 0.39805 0.0
C2090 C 0.75424 0.66129 0.36655 0.0
C2091 C 0.73099 0.68008 0.3608 0.0
C2092 C 0.74337 0.67739 0.36645 0.0
C2093 C 0.77585 0.66665 0.39097 0.0
C2094 C 0.7654 0.67091 0.38105 0.0
H2095 H 0.72524 0.70809 0.3446 0.0
H2096 H 0.74563 0.70292 0.35054 0.0
H2097 H 0.73456 0.6566 0.34886 0.0
H2098 H 0.77511 0.6361 0.41226 0.0
H2099 H 0.75988 0.64265 0.39063 0.0
C2100 C 0.31069 0.02529 0.35964 0.0
C2101 C 0.2975 0.01722 0.34758 0.0
C2102 C 0.31568 0.04007 0.36591 0.0
C2103 C 0.30212 0.06687 0.37342 0.0
H2104 H 0.34471 0.09529 0.38044 0.0
C2105 C 0.32455 0.11857 0.42746 0.0
C2106 C 0.33865 0.13129 0.42342 0.0
C2107 C 0.31888 0.10596 0.41435 0.0
C2108 C 0.33277 0.08764 0.37821 0.0
H2109 H 0.27944 0.01851 0.33213 0.0
H2110 H 0.28834 0.04436 0.34253 0.0
H2111 H 0.33661 0.07087 0.36475 0.0
H2112 H 0.35732 0.14121 0.40148 0.0
H2113 H 0.34716 0.11935 0.37806 0.0
H2114 H 0.29829 0.08374 0.38653 0.0
C2115 C 0.29465 0.03918 0.34767 0.0
C2116 C 0.32811 0.07348 0.36953 0.0
C2117 C 0.28956 0.02435 0.34161 0.0
C2118 C 0.3464 0.13159 0.405 0.0
C2119 C 0.34068 0.11897 0.39176 0.0
C2120 C 0.30678 0.08108 0.38189 0.0
C2121 C 0.3077 0.04722 0.36006 0.0
C2122 C 0.31271 0.06277 0.36748 0.0
C2123 C 0.3271 0.1058 0.39671 0.0
C2124 C 0.32217 0.09153 0.38489 0.0
H2125 H 0.31704 0.02011 0.36458 0.0
H2126 H 0.32562 0.04576 0.37577 0.0
H2127 H 0.29016 0.05893 0.37225 0.0
H2128 H 0.31822 0.11808 0.4414 0.0
H2129 H 0.30845 0.09606 0.41882 0.0
C2130 C 0.97917 0.29411 0.33788 0.0
C2131 C 0.9889 0.29007 0.3282 0.0
C2132 C 0.96424 0.28321 0.34233 0.0
C2133 C 0.94115 0.24281 0.35225 0.0
H2134 H 0.90756 0.24959 0.34798 0.0
C2135 C 0.88398 0.19844 0.38281 0.0
C2136 C 0.87751 0.20405 0.39699 0.0
C2137 C 0.89521 0.20805 0.36886 0.0
C2138 C 0.91683 0.24753 0.34925 0.0
H2139 H 0.99036 0.27147 0.31484 0.0
H2140 H 0.96444 0.25261 0.32242 0.0
H2141 H 0.93237 0.26858 0.33504 0.0
H2142 H 0.87633 0.22372 0.40574 0.0
H2143 H 0.89621 0.24057 0.38193 0.0
H2144 H 0.92596 0.22213 0.36709 0.0
C2145 C 0.96838 0.26413 0.32692 0.0
C2146 C 0.93103 0.25842 0.3419 0.0
C2147 C 0.98325 0.27498 0.32254 0.0
C2148 C 0.88133 0.21912 0.39528 0.0
C2149 C 0.89266 0.22877 0.38148 0.0
C2150 C 0.92702 0.23199 0.35961 0.0
C2151 C 0.95875 0.26806 0.33716 0.0
C2152 C 0.94339 0.25624 0.34357 0.0
C2153 C 0.90029 0.2235 0.36892 0.0
C2154 C 0.91471 0.23426 0.35847 0.0
H2155 H 0.98313 0.30564 0.34239 0.0
H2156 H 0.95716 0.28659 0.35042 0.0
H2157 H 0.95046 0.24087 0.35414 0.0
H2158 H 0.88132 0.1869 0.38366 0.0
H2159 H 0.90058 0.20354 0.35896 0.0
C2160 C 0.00483 0.36909 0.32029 0.0
C2161 C 0.01902 0.37264 0.32802 0.0
C2162 C 0.00091 0.38014 0.31883 0.0
C2163 C 0.01327 0.41996 0.33333 0.0
H2164 H 0.99346 0.41827 0.28061 0.0
C2165 C 0.0196 0.47105 0.28821 0.0
C2166 C 0.00765 0.469 0.27523 0.0
C2167 C 0.01816 0.45927 0.30062 0.0
C2168 C -0.00131 0.4188 0.29566 0.0
H2169 H 0.04001 0.39039 0.34108 0.0
H2170 H 0.03346 0.40982 0.33776 0.0
H2171 H 0.99641 0.39739 0.29051 0.0
H2172 H 0.98433 0.45377 0.26695 0.0
H2173 H 0.98174 0.43327 0.28884 0.0
H2174 H 0.01627 0.44191 0.33765 0.0
C2175 C 0.02516 0.39845 0.3333 0.0
C2176 C 0.00038 0.40677 0.30138 0.0
C2177 C 0.02899 0.38733 0.33506 0.0
C2178 C 0.99376 0.45557 0.27667 0.0
C2179 C 0.99231 0.44382 0.28909 0.0
C2180 C 0.01168 0.43211 0.32747 0.0
C2181 C 0.01119 0.39508 0.3247 0.0
C2182 C 0.00794 0.40726 0.3201 0.0
C2183 C 0.00476 0.44527 0.30025 0.0
C2184 C 0.00459 0.43175 0.30837 0.0
H2185 H 0.99683 0.35781 0.31501 0.0
H2186 H 0.98991 0.37702 0.31264 0.0
H2187 H 0.01892 0.42065 0.34803 0.0
H2188 H 0.03047 0.48124 0.28729 0.0
H2189 H 0.02798 0.46074 0.30899 0.0
C2190 C 0.60897 0.64415 0.34701 0.0
C2191 C 0.62394 0.6515 0.33986 0.0
C2192 C 0.5989 0.6293 0.34117 0.0
C2193 C 0.59669 0.59518 0.31724 0.0
H2194 H 0.55595 0.58521 0.30391 0.0
C2195 C 0.55362 0.53703 0.28321 0.0
C2196 C 0.54585 0.53763 0.26543 0.0
C2197 C 0.56149 0.54966 0.29631 0.0
C2198 C 0.56727 0.58778 0.30755 0.0
H2199 H 0.64011 0.64891 0.32115 0.0
H2200 H 0.6224 0.62315 0.3103 0.0
H2201 H 0.57369 0.60993 0.31778 0.0
H2202 H 0.53922 0.55137 0.24824 0.0
H2203 H 0.55291 0.5733 0.27077 0.0
H2204 H 0.59046 0.57328 0.30576 0.0
C2205 C 0.61851 0.62874 0.32087 0.0
C2206 C 0.57744 0.60195 0.31577 0.0
C2207 C 0.62866 0.64357 0.32694 0.0
C2208 C 0.54516 0.55064 0.26185 0.0
C2209 C 0.55297 0.5632 0.27487 0.0
C2210 C 0.58653 0.58103 0.30884 0.0
C2211 C 0.60345 0.62144 0.32778 0.0
C2212 C 0.59237 0.60594 0.32041 0.0
C2213 C 0.56164 0.56306 0.29187 0.0
C2214 C 0.57177 0.57725 0.3035 0.0
H2215 H 0.60499 0.64985 0.35722 0.0
H2216 H 0.58751 0.624 0.3472 0.0
H2217 H 0.608 0.59773 0.32097 0.0
H2218 H 0.55439 0.52715 0.28622 0.0
H2219 H 0.56785 0.5491 0.30947 0.0
C2220 C 0.35072 0.97333 0.34124 0.0
C2221 C 0.3465 0.98297 0.33203 0.0
C2222 C 0.365 0.97532 0.33755 0.0
C2223 C 0.40328 0.00202 0.31799 0.0
H2224 H 0.40217 0.96633 0.29645 0.0
C2225 C 0.44793 0.00401 0.26162 0.0
C2226 C 0.45015 0.99171 0.26023 0.0
C2227 C 0.43758 0.00399 0.2759 0.0
C2228 C 0.40287 0.97638 0.30293 0.0
H2229 H 0.35421 0.00272 0.31265 0.0
H2230 H 0.37915 0.00624 0.30632 0.0
H2231 H 0.37959 0.96442 0.31143 0.0
H2232 H 0.44426 0.97036 0.27427 0.0
H2233 H 0.42676 0.97065 0.29985 0.0
H2234 H 0.42653 0.01404 0.30919 0.0
C2235 C 0.37143 0.99715 0.3164 0.0
C2236 C 0.38985 0.97526 0.31146 0.0
C2237 C 0.35711 0.99507 0.31991 0.0
C2238 C 0.44285 0.98003 0.27487 0.0
C2239 C 0.43261 0.98009 0.28934 0.0
C2240 C 0.41639 0.00312 0.30967 0.0
C2241 C 0.37541 0.98709 0.32477 0.0
C2242 C 0.3898 0.98812 0.31856 0.0
C2243 C 0.42933 0.99174 0.28939 0.0
C2244 C 0.41625 0.99037 0.30146 0.0
H2245 H 0.34282 0.96392 0.3507 0.0
H2246 H 0.3678 0.96747 0.34434 0.0
H2247 H 0.40361 0.01209 0.32361 0.0
H2248 H 0.45359 0.01332 0.25084 0.0
H2249 H 0.4354 0.01317 0.27534 0.0
C2250 C 0.59639 0.95573 0.34257 0.0
C2251 C 0.61211 0.96521 0.34183 0.0
C2252 C 0.58684 0.961 0.33678 0.0
C2253 C 0.58632 0.99005 0.30433 0.0
H2254 H 0.5474 0.97557 0.3307 0.0
C2255 C 0.54437 0.00435 0.26875 0.0
C2256 C 0.53019 0.99166 0.2647 0.0
C2257 C 0.55432 0.00359 0.28293 0.0
C2258 C 0.55825 0.97974 0.32322 0.0
H2259 H 0.63008 0.98782 0.33505 0.0
H2260 H 0.61339 0.99705 0.32517 0.0
H2261 H 0.56534 0.96952 0.3462 0.0
H2262 H 0.51488 0.9686 0.27362 0.0
H2263 H 0.53217 0.96729 0.29838 0.0
H2264 H 0.57913 -0.0001 0.28104 0.0
C2265 C 0.60847 0.98547 0.32991 0.0
C2266 C 0.56851 0.97624 0.33204 0.0
C2267 C 0.61804 0.98018 0.33563 0.0
C2268 C 0.52566 0.97862 0.27653 0.0
C2269 C 0.53561 0.97786 0.29072 0.0
C2270 C 0.57611 0.99359 0.29557 0.0
C2271 C 0.59275 0.97589 0.33018 0.0
C2272 C 0.58253 0.98105 0.3224 0.0
C2273 C 0.55029 0.99013 0.29335 0.0
C2274 C 0.56182 0.9882 0.30463 0.0
H2275 H 0.59142 0.94413 0.34725 0.0
H2276 H 0.57481 0.95323 0.33686 0.0
H2277 H 0.59691 0.99378 0.2963 0.0
H2278 H 0.54809 0.01461 0.26004 0.0
H2279 H 0.56544 0.01333 0.28495 0.0
C2280 C 0.03259 0.65442 0.34858 0.0
C2281 C 0.02198 0.65748 0.33964 0.0
C2282 C 0.03105 0.64026 0.34617 0.0
C2283 C 0.00423 0.6007 0.33205 0.0
H2284 H 0.03929 0.60136 0.30857 0.0
C2285 C 0.00055 0.55332 0.28017 0.0
C2286 C 0.01315 0.55157 0.27804 0.0
C2287 C 0.00097 0.56424 0.29368 0.0
C2288 C 0.02946 0.60082 0.31564 0.0
H2289 H 0.00108 0.64792 0.32198 0.0
H2290 H 0.99835 0.62319 0.3179 0.0
H2291 H 0.04127 0.62453 0.32097 0.0
H2292 H 0.03549 0.55887 0.29017 0.0
H2293 H 0.03598 0.57745 0.3145 0.0
H2294 H 0.99234 0.57701 0.32643 0.0
C2295 C 0.00785 0.63173 0.32678 0.0
C2296 C 0.03061 0.61418 0.32267 0.0
C2297 C 0.00947 0.64593 0.32899 0.0
C2298 C 0.02559 0.55992 0.29138 0.0
C2299 C 0.02596 0.57076 0.3051 0.0
C2300 C 0.00311 0.58728 0.32524 0.0
C2301 C 0.01876 0.62883 0.335 0.0
C2302 C 0.01791 0.61433 0.3304 0.0
C2303 C 0.01395 0.57357 0.30565 0.0
C2304 C 0.01561 0.58723 0.31635 0.0
H2305 H 0.04233 0.66308 0.35692 0.0
H2306 H 0.03958 0.63831 0.35277 0.0
H2307 H 0.9943 0.60047 0.33821 0.0
H2308 H 0.99068 0.54687 0.27037 0.0
H2309 H 0.99149 0.56602 0.29355 0.0
C2310 C 0.35197 0.39498 0.33015 0.0
C2311 C 0.34781 0.37996 0.33371 0.0
C2312 C 0.36651 0.40539 0.32352 0.0
C2313 C 0.40552 0.41344 0.32243 0.0
H2314 H 0.40952 0.43844 0.27475 0.0
C2315 C 0.46117 0.44816 0.27618 0.0
C2316 C 0.46356 0.46105 0.26562 0.0
C2317 C 0.44792 0.43947 0.28761 0.0
C2318 C 0.40871 0.43183 0.28839 0.0
H2319 H 0.35581 0.3642 0.33335 0.0
H2320 H 0.38132 0.38251 0.32188 0.0
H2321 H 0.38466 0.42068 0.28806 0.0
H2322 H 0.45468 0.47567 0.25991 0.0
H2323 H 0.43193 0.46105 0.2808 0.0
H2324 H 0.4296 0.42467 0.32291 0.0
C2325 C 0.37325 0.38615 0.32426 0.0
C2326 C 0.39439 0.42155 0.29591 0.0
C2327 C 0.35862 0.37565 0.33066 0.0
C2328 C 0.45307 0.46577 0.26799 0.0
C2329 C 0.43995 0.45725 0.27969 0.0
C2330 C 0.4199 0.42388 0.31506 0.0
C2331 C 0.37731 0.40111 0.3205 0.0
C2332 C 0.39263 0.41218 0.31291 0.0
C2333 C 0.43686 0.44362 0.28885 0.0
C2334 C 0.42169 0.43317 0.29784 0.0
H2335 H 0.34396 0.3987 0.33235 0.0
H2336 H 0.36935 0.41687 0.3209 0.0
H2337 H 0.40449 0.40645 0.33572 0.0
H2338 H 0.46901 0.44418 0.27427 0.0
H2339 H 0.44595 0.42903 0.29426 0.0
C2340 C 0.33451 0.30311 0.35717 0.0
C2341 C 0.31938 0.29849 0.35318 0.0
C2342 C 0.33895 0.29254 0.36029 0.0
C2343 C 0.32515 0.2512 0.35714 0.0
H2344 H 0.35603 0.26168 0.39956 0.0
C2345 C 0.33216 0.20977 0.4102 0.0
C2346 C 0.34685 0.21288 0.41427 0.0
C2347 C 0.32971 0.21928 0.39741 0.0
C2348 C 0.34757 0.25866 0.38741 0.0
H2349 H 0.29705 0.2792 0.34895 0.0
H2350 H 0.30454 0.26076 0.35549 0.0
H2351 H 0.35003 0.28037 0.38822 0.0
H2352 H 0.37044 0.22783 0.40745 0.0
H2353 H 0.36619 0.24466 0.38531 0.0
H2354 H 0.3221 0.22907 0.3577 0.0
C2355 C 0.31318 0.2725 0.35551 0.0
C2356 C 0.34413 0.26942 0.3808 0.0
C2357 C 0.30881 0.28308 0.3519 0.0
C2358 C 0.359 0.2251 0.40429 0.0
C2359 C 0.35657 0.23478 0.39181 0.0
C2360 C 0.32841 0.24034 0.36412 0.0
C2361 C 0.32829 0.27707 0.36004 0.0
C2362 C 0.33273 0.26583 0.36573 0.0
C2363 C 0.34194 0.23223 0.38885 0.0
C2364 C 0.33956 0.24395 0.37946 0.0
H2365 H 0.34293 0.31492 0.35799 0.0
H2366 H 0.35075 0.29657 0.36313 0.0
H2367 H 0.31654 0.24802 0.3452 0.0
H2368 H 0.32265 0.20048 0.41794 0.0
H2369 H 0.31833 0.21712 0.39552 0.0
C2370 C 0.7095 0.01681 0.33891 0.0
C2371 C 0.69591 0.01292 0.3492 0.0
C2372 C 0.7218 0.03141 0.34036 0.0
C2373 C 0.73331 0.07057 0.35365 0.0
H2374 H 0.76973 0.07289 0.37455 0.0
C2375 C 0.77844 0.1211 0.4006 0.0
C2376 C 0.79314 0.12355 0.40191 0.0
C2377 C 0.76753 0.1094 0.38826 0.0
C2378 C 0.75987 0.07261 0.36816 0.0
H2379 H 0.68435 0.02144 0.36825 0.0
H2380 H 0.70581 0.04699 0.37061 0.0
H2381 H 0.74859 0.04881 0.364 0.0
H2382 H 0.80826 0.11661 0.3893 0.0
H2383 H 0.78952 0.09684 0.36685 0.0
H2384 H 0.74452 0.09437 0.35795 0.0
C2385 C 0.70693 0.03873 0.36145 0.0
C2386 C 0.74768 0.05872 0.36222 0.0
C2387 C 0.69469 0.02408 0.36023 0.0
C2388 C 0.79707 0.11508 0.38876 0.0
C2389 C 0.78621 0.10352 0.37613 0.0
C2390 C 0.7456 0.08454 0.35931 0.0
C2391 C 0.7207 0.04247 0.35188 0.0
C2392 C 0.73415 0.05749 0.35543 0.0
C2393 C 0.77111 0.10001 0.37658 0.0
C2394 C 0.75891 0.0857 0.36721 0.0
H2395 H 0.71078 0.00847 0.33024 0.0
H2396 H 0.73226 0.03402 0.33274 0.0
H2397 H 0.72306 0.06995 0.34822 0.0
H2398 H 0.7751 0.12765 0.41015 0.0
H2399 H 0.75608 0.10714 0.38909 0.0
C2400 C 0.9736 0.68515 0.35973 0.0
C2401 C 0.98168 0.70009 0.35285 0.0
C2402 C 0.9583 0.67842 0.36461 0.0
C2403 C 0.92948 0.68761 0.38029 0.0
H2404 H 0.90193 0.64571 0.36704 0.0
C2405 C 0.86824 0.65818 0.40913 0.0
C2406 C 0.86414 0.64494 0.42015 0.0
C2407 C 0.88094 0.6645 0.39608 0.0
C2408 C 0.90948 0.65743 0.37081 0.0
H2409 H 0.97993 0.71961 0.34553 0.0
H2410 H 0.95327 0.70783 0.35393 0.0
H2411 H 0.92783 0.65784 0.35432 0.0
H2412 H 0.8692 0.62729 0.42504 0.0
H2413 H 0.89125 0.63819 0.40229 0.0
H2414 H 0.91129 0.68712 0.39728 0.0
C2415 C 0.9588 0.70137 0.35577 0.0
C2416 C 0.92433 0.66436 0.36361 0.0
C2417 C 0.97409 0.70811 0.3509 0.0
C2418 C 0.87219 0.63753 0.41669 0.0
C2419 C 0.88477 0.64376 0.40357 0.0
C2420 C 0.91463 0.68069 0.38747 0.0
C2421 C 0.95072 0.68645 0.36272 0.0
C2422 C 0.93459 0.67944 0.36867 0.0
C2423 C 0.88963 0.65759 0.39373 0.0
C2424 C 0.90455 0.66543 0.38322 0.0
H2425 H 0.97908 0.67864 0.36142 0.0
H2426 H 0.95248 0.66698 0.37025 0.0
H2427 H 0.93712 0.6992 0.38467 0.0
H2428 H 0.86221 0.66411 0.41167 0.0
H2429 H 0.88431 0.67509 0.38849 0.0
C2430 C 0.37249 0.00843 0.69497 0.0
C2431 C 0.37553 0.02225 0.68667 0.0
C2432 C 0.3841 0.00534 0.69778 0.0
C2433 C 0.4237 0.02412 0.71012 0.0
H2434 H 0.42085 0.98637 0.6952 0.0
C2435 C 0.46784 0.01117 0.7415 0.0
C2436 C 0.46218 0.9966 0.74911 0.0
C2437 C 0.45905 0.01443 0.72824 0.0
C2438 C 0.42181 0.99694 0.69965 0.0
H2439 H 0.39305 0.04352 0.67436 0.0
H2440 H 0.41341 0.03824 0.67985 0.0
H2441 H 0.40148 0.99159 0.68319 0.0
H2442 H 0.44329 0.97391 0.74846 0.0
H2443 H 0.4277 0.97955 0.72604 0.0
H2444 H 0.44332 0.02919 0.72776 0.0
C2445 C 0.40201 0.02977 0.68395 0.0
C2446 C 0.41074 -6e-05 0.69264 0.0
C2447 C 0.39036 0.03276 0.68077 0.0
C2448 C 0.44797 0.98517 0.74238 0.0
C2449 C 0.43905 0.98846 0.7295 0.0
C2450 C 0.4346 0.02103 0.71746 0.0
C2451 C 0.39901 0.0161 0.69269 0.0
C2452 C 0.41147 0.01346 0.69809 0.0
C2453 C 0.44424 0.00327 0.72288 0.0
C2454 C 0.4337 0.00727 0.71265 0.0
H2455 H 0.36118 9e-05 0.6996 0.0
H2456 H 0.38149 0.99476 0.70473 0.0
H2457 H 0.42444 0.03457 0.71476 0.0
H2458 H 0.47873 0.02017 0.74671 0.0
H2459 H 0.46365 0.02587 0.72304 0.0
C2460 C 0.95339 0.35892 0.67301 0.0
C2461 C 0.9614 0.35173 0.67831 0.0
C2462 C 0.95864 0.37376 0.67923 0.0
C2463 C 0.99251 0.40803 0.7001 0.0
H2464 H 0.96305 0.4175 0.72163 0.0
C2465 C 0.01128 0.46519 0.7394 0.0
C2466 C 0.0044 0.46409 0.75898 0.0
C2467 C 0.00518 0.45296 0.7254 0.0
C2468 C 0.97144 0.41506 0.71564 0.0
H2469 H 0.98133 0.35461 0.69416 0.0
H2470 H 0.99027 0.38029 0.7055 0.0
H2471 H 0.95465 0.393 0.70586 0.0
H2472 H 0.98517 0.4499 0.77857 0.0
H2473 H 0.97466 0.4286 0.75448 0.0
H2474 H 0.00932 0.42976 0.71106 0.0
C2475 C 0.98009 0.3746 0.69611 0.0
C2476 C 0.96661 0.40104 0.70637 0.0
C2477 C 0.97489 0.3598 0.68975 0.0
C2478 C 0.99076 0.45099 0.76362 0.0
C2479 C 0.98468 0.43881 0.74971 0.0
C2480 C 0.99734 0.42201 0.70949 0.0
C2481 C 0.97198 0.38175 0.69105 0.0
C2482 C 0.97709 0.39721 0.69892 0.0
C2483 C 0.99207 0.43944 0.73073 0.0
C2484 C 0.98687 0.42557 0.71784 0.0
H2485 H 0.94302 0.35309 0.66404 0.0
H2486 H 0.95222 0.37896 0.67476 0.0
H2487 H 0.00089 0.40558 0.69417 0.0
H2488 H 0.02184 0.47515 0.73546 0.0
H2489 H 0.01103 0.4539 0.71076 0.0
C2490 C 0.64174 0.60654 0.66678 0.0
C2491 C 0.6481 0.62211 0.66937 0.0
C2492 C 0.62661 0.59672 0.67147 0.0
C2493 C 0.59602 0.59407 0.70419 0.0
H2494 H 0.57206 0.55706 0.67274 0.0
C2495 C 0.54015 0.54923 0.73777 0.0
C2496 C 0.53934 0.53532 0.73956 0.0
C2497 C 0.55029 0.56 0.72377 0.0
C2498 C 0.57858 0.56738 0.68163 0.0
H2499 H 0.64337 0.63956 0.67849 0.0
H2500 H 0.61691 0.62236 0.68664 0.0
H2501 H 0.59653 0.57614 0.65911 0.0
H2502 H 0.54735 0.5212 0.72669 0.0
H2503 H 0.56507 0.53995 0.70233 0.0
H2504 H 0.57846 0.58516 0.72711 0.0
C2505 C 0.62371 0.61777 0.68116 0.0
C2506 C 0.59261 0.57828 0.67387 0.0
C2507 C 0.63888 0.62763 0.67647 0.0
C2508 C 0.54766 0.53178 0.72552 0.0
C2509 C 0.55785 0.54258 0.71157 0.0
C2510 C 0.58202 0.5832 0.71192 0.0
C2511 C 0.61743 0.60219 0.67885 0.0
C2512 C 0.60168 0.59157 0.68538 0.0
C2513 C 0.55985 0.55708 0.71138 0.0
C2514 C 0.5733 0.56954 0.70104 0.0
H2515 H 0.64848 0.60187 0.66133 0.0
H2516 H 0.62223 0.58478 0.66987 0.0
H2517 H 0.60277 0.60408 0.7136 0.0
H2518 H 0.53374 0.55217 0.74831 0.0
H2519 H 0.55131 0.57095 0.72363 0.0
C2520 C 0.6913 0.7188 0.67324 0.0
C2521 C 0.68097 0.70403 0.66688 0.0
C2522 C 0.68745 0.72994 0.67227 0.0
C2523 C 0.66143 0.73803 0.64328 0.0
H2524 H 0.67895 0.77357 0.6789 0.0
C2525 C 0.65569 0.78696 0.61805 0.0
C2526 C 0.66981 0.80002 0.61582 0.0
C2527 C 0.654 0.77548 0.63128 0.0
C2528 C 0.67389 0.76366 0.66892 0.0
H2529 H 0.65817 0.68912 0.65594 0.0
H2530 H 0.65128 0.70839 0.65488 0.0
H2531 H 0.68183 0.7523 0.6885 0.0
H2532 H 0.69274 0.81209 0.62734 0.0
H2533 H 0.68989 0.79203 0.65031 0.0
H2534 H 0.65392 0.74943 0.62335 0.0
C2535 C 0.66254 0.71154 0.65995 0.0
C2536 C 0.6756 0.75151 0.67434 0.0
C2537 C 0.66646 0.70046 0.66063 0.0
C2538 C 0.68171 0.80217 0.62893 0.0
C2539 C 0.68006 0.79063 0.64206 0.0
C2540 C 0.65964 0.75008 0.63798 0.0
C2541 C 0.67312 0.72652 0.66516 0.0
C2542 C 0.66971 0.73868 0.66127 0.0
C2543 C 0.66646 0.7768 0.6423 0.0
C2544 C 0.66615 0.7632 0.65042 0.0
H2545 H 0.70257 0.72188 0.67815 0.0
H2546 H 0.69597 0.74136 0.67617 0.0
H2547 H 0.65698 0.72854 0.63256 0.0
H2548 H 0.64634 0.78509 0.60812 0.0
H2549 H 0.64327 0.76509 0.63152 0.0
C2550 C 0.29679 0.98027 0.66175 0.0
C2551 C 0.29214 0.98839 0.67438 0.0
C2552 C 0.28659 0.9654 0.65592 0.0
C2553 C 0.24553 0.9387 0.65078 0.0
H2554 H 0.25854 0.90995 0.64151 0.0
C2555 C 0.21353 0.88728 0.59695 0.0
C2556 C 0.21423 0.87428 0.60065 0.0
C2557 C 0.22125 0.89985 0.60997 0.0
C2558 C 0.2546 0.91772 0.64438 0.0
H2559 H 0.27323 0.98704 0.69144 0.0
H2560 H 0.25562 0.96111 0.68181 0.0
H2561 H 0.276 0.93443 0.65667 0.0
H2562 H 0.22268 0.86386 0.6217 0.0
H2563 H 0.23598 0.88581 0.64495 0.0
H2564 H 0.22409 0.92194 0.63876 0.0
C2565 C 0.26702 0.9663 0.67585 0.0
C2566 C 0.26472 0.93188 0.65276 0.0
C2567 C 0.27716 0.98119 0.68146 0.0
C2568 C 0.22192 0.87372 0.61856 0.0
C2569 C 0.22969 0.88636 0.63167 0.0
C2570 C 0.23539 0.92451 0.64259 0.0
C2571 C 0.27153 0.95824 0.66278 0.0
C2572 C 0.26043 0.94269 0.65562 0.0
C2573 C 0.22984 0.89975 0.62712 0.0
C2574 C 0.23989 0.91395 0.63878 0.0
H2575 H 0.30825 0.98549 0.65599 0.0
H2576 H 0.29045 0.95968 0.64557 0.0
H2577 H 0.24179 0.94671 0.65257 0.0
H2578 H 0.20762 0.88797 0.58328 0.0
H2579 H 0.22118 0.90994 0.60578 0.0
C2580 C 0.02042 0.3305 0.65403 0.0
C2581 C 0.00989 0.3179 0.66543 0.0
C2582 C 0.03507 0.33333 0.65102 0.0
C2583 C 0.05538 0.3133 0.64595 0.0
H2584 H 0.09094 0.35299 0.64725 0.0
C2585 C 0.11107 0.32203 0.6134 0.0
C2586 C 0.11875 0.33435 0.59987 0.0
C2587 C 0.09983 0.32099 0.6269 0.0
C2588 C 0.08113 0.34183 0.64671 0.0
H2589 H 0.00662 0.29865 0.68322 0.0
H2590 H 0.03219 0.30349 0.67767 0.0
H2591 H 0.06701 0.34936 0.66031 0.0
H2592 H 0.12164 0.35593 0.5915 0.0
H2593 H 0.1017 0.35386 0.61422 0.0
H2594 H 0.06907 0.30582 0.63129 0.0
C2595 C 0.02908 0.31118 0.6711 0.0
C2596 C 0.06744 0.33977 0.65426 0.0
C2597 C 0.01447 0.30844 0.67433 0.0
C2598 C 0.11573 0.34614 0.6014 0.0
C2599 C 0.10438 0.34502 0.61468 0.0
C2600 C 0.069 0.31538 0.63818 0.0
C2601 C 0.03946 0.32352 0.65914 0.0
C2602 C 0.05437 0.32552 0.65359 0.0
C2603 C 0.09587 0.33216 0.62703 0.0
C2604 C 0.082 0.32973 0.63804 0.0
H2605 H 0.01726 0.33803 0.64703 0.0
H2606 H 0.04276 0.34285 0.64155 0.0
H2607 H 0.04547 0.30223 0.64497 0.0
H2608 H 0.11302 0.3127 0.61267 0.0
H2609 H 0.0938 0.3111 0.63658 0.0
C2610 C 0.26567 0.28907 0.65872 0.0
C2611 C 0.27918 0.29778 0.66978 0.0
C2612 C 0.2563 0.29476 0.65419 0.0
C2613 C 0.25527 0.33037 0.6528 0.0
H2614 H 0.21292 0.30175 0.64448 0.0
C2615 C 0.21755 0.34423 0.60322 0.0
C2616 C 0.20187 0.33435 0.60301 0.0
C2617 C 0.22677 0.34196 0.61695 0.0
C2618 C 0.22459 0.31011 0.64723 0.0
H2619 H 0.29347 0.31923 0.68503 0.0
H2620 H 0.2767 0.32895 0.67823 0.0
H2621 H 0.22909 0.2933 0.65779 0.0
H2622 H 0.18353 0.31582 0.61979 0.0
H2623 H 0.19935 0.31299 0.64508 0.0
H2624 H 0.25055 0.34735 0.64353 0.0
C2625 C 0.27353 0.3179 0.67231 0.0
C2626 C 0.23405 0.30511 0.6544 0.0
C2627 C 0.28314 0.31232 0.67632 0.0
C2628 C 0.19553 0.32359 0.61908 0.0
C2629 C 0.20473 0.3217 0.63339 0.0
C2630 C 0.24569 0.33548 0.64625 0.0
C2631 C 0.25993 0.30918 0.66119 0.0
C2632 C 0.24964 0.31502 0.65642 0.0
C2633 C 0.22053 0.33011 0.63153 0.0
C2634 C 0.23028 0.32534 0.64251 0.0
H2635 H 0.26244 0.27789 0.65326 0.0
H2636 H 0.24627 0.28782 0.64494 0.0
H2637 H 0.26717 0.33845 0.65418 0.0
H2638 H 0.22286 0.35311 0.59173 0.0
H2639 H 0.2388 0.34889 0.61491 0.0
C2640 C 0.67689 0.98011 0.65476 0.0
C2641 C 0.6896 0.99124 0.66558 0.0
C2642 C 0.67452 0.96561 0.65252 0.0
C2643 C 0.69566 0.94629 0.64896 0.0
H2644 H 0.65655 0.91013 0.65315 0.0
C2645 C 0.68852 0.8904 0.62121 0.0
C2646 C 0.67597 0.88185 0.60812 0.0
C2647 C 0.68931 0.90188 0.63393 0.0
C2648 C 0.66755 0.92011 0.65181 0.0
H2649 H 0.70955 0.99577 0.68311 0.0
H2650 H 0.70549 0.9705 0.67894 0.0
H2651 H 0.65955 0.93421 0.664 0.0
H2652 H 0.65373 0.87762 0.59992 0.0
H2653 H 0.65534 0.89794 0.62126 0.0
H2654 H 0.70357 0.93258 0.6357 0.0
C2655 C 0.69738 0.97301 0.6722 0.0
C2656 C 0.66925 0.93389 0.65809 0.0
C2657 C 0.69967 0.98746 0.67462 0.0
C2658 C 0.6637 0.8842 0.60948 0.0
C2659 C 0.66457 0.89579 0.62196 0.0
C2660 C 0.69393 0.93259 0.64246 0.0
C2661 C 0.68489 0.962 0.66088 0.0
C2662 C 0.68327 0.94715 0.65638 0.0
C2663 C 0.67765 0.90521 0.63367 0.0
C2664 C 0.67979 0.91933 0.64341 0.0
H2665 H 0.66891 0.98266 0.64766 0.0
H2666 H 0.66487 0.9574 0.64354 0.0
H2667 H 0.70656 0.95635 0.64721 0.0
H2668 H 0.69819 0.88893 0.6206 0.0
H2669 H 0.69939 0.90861 0.64319 0.0
C2670 C 0.01958 0.72877 0.66139 0.0
C2671 C 0.0154 0.71378 0.66516 0.0
C2672 C 0.03421 0.73921 0.65516 0.0
C2673 C 0.07328 0.74734 0.65563 0.0
H2674 H 0.07806 0.77298 0.60841 0.0
C2675 C 0.12974 0.7833 0.6115 0.0
C2676 C 0.13215 0.79634 0.60136 0.0
C2677 C 0.11633 0.77431 0.62247 0.0
C2678 C 0.07701 0.76618 0.62193 0.0
H2679 H 0.02344 0.69806 0.66554 0.0
H2680 H 0.04912 0.71641 0.6547 0.0
H2681 H 0.05298 0.75485 0.62056 0.0
H2682 H 0.12318 0.81091 0.59598 0.0
H2683 H 0.10014 0.79573 0.61607 0.0
H2684 H 0.09736 0.75876 0.65707 0.0
C2685 C 0.041 0.72002 0.65663 0.0
C2686 C 0.06258 0.75569 0.62878 0.0
C2687 C 0.02627 0.7095 0.66267 0.0
C2688 C 0.12155 0.80091 0.60377 0.0
C2689 C 0.10827 0.79207 0.615 0.0
C2690 C 0.08778 0.75798 0.64889 0.0
C2691 C 0.04509 0.73497 0.65272 0.0
C2692 C 0.06053 0.74612 0.64565 0.0
C2693 C 0.10516 0.77829 0.62364 0.0
C2694 C 0.08984 0.76753 0.63189 0.0
H2695 H 0.01152 0.73248 0.66317 0.0
H2696 H 0.03706 0.75067 0.65244 0.0
H2697 H 0.07203 0.74021 0.66882 0.0
H2698 H 0.13767 0.77944 0.60953 0.0
H2699 H 0.11435 0.76376 0.62877 0.0
C2700 C 0.00023 0.63588 0.69321 0.0
C2701 C 0.98532 0.63172 0.68839 0.0
C2702 C 0.00405 0.62497 0.69734 0.0
C2703 C 0.98889 0.58333 0.69561 0.0
H2704 H 0.01888 0.59332 0.73927 0.0
C2705 C 0.99393 0.54125 0.75015 0.0
C2706 C 0.00847 0.54391 0.75429 0.0
C2707 C 0.99187 0.55103 0.73738 0.0
C2708 C 0.01064 0.59043 0.72682 0.0
H2709 H 0.96276 0.61289 0.68377 0.0
H2710 H 0.96917 0.59389 0.69203 0.0
H2711 H 0.01385 0.61245 0.72671 0.0
H2712 H 0.03217 0.55841 0.74764 0.0
H2713 H 0.0286 0.5757 0.72555 0.0
H2714 H 0.9851 0.56093 0.69702 0.0
C2715 C 0.97811 0.60551 0.69193 0.0
C2716 C 0.00777 0.60143 0.71949 0.0
C2717 C 0.97437 0.61643 0.68733 0.0
C2718 C 0.02084 0.55602 0.74446 0.0
C2719 C 0.01881 0.56596 0.732 0.0
C2720 C 0.99157 0.57223 0.7033 0.0
C2721 C 0.99299 0.60961 0.69728 0.0
C2722 C 0.99675 0.59804 0.70391 0.0
C2723 C 0.00435 0.56379 0.72887 0.0
C2724 C 0.0024 0.57567 0.71908 0.0
H2725 H 0.00894 0.6476 0.6939 0.0
H2726 H 0.0157 0.62864 0.70078 0.0
H2727 H 0.98055 0.58029 0.68331 0.0
H2728 H 0.98424 0.53203 0.75769 0.0
H2729 H 0.98062 0.54916 0.73533 0.0
C2730 C 0.36341 0.35112 0.70767 0.0
C2731 C 0.36189 0.3434 0.68868 0.0
C2732 C 0.37533 0.36576 0.7106 0.0
C2733 C 0.41336 0.39288 0.69053 0.0
H2734 H 0.40769 0.41993 0.72675 0.0
C2735 C 0.44791 0.45471 0.73595 0.0
C2736 C 0.46043 0.45385 0.74254 0.0
C2737 C 0.43664 0.44323 0.7237 0.0
C2738 C 0.40953 0.41275 0.71619 0.0
H2739 H 0.37153 0.34508 0.65767 0.0
H2740 H 0.39217 0.37085 0.66255 0.0
H2741 H 0.38613 0.39624 0.71625 0.0
H2742 H 0.47146 0.44082 0.74065 0.0
H2743 H 0.45167 0.42055 0.71997 0.0
H2744 H 0.43676 0.40958 0.69015 0.0
C2745 C 0.38432 0.36547 0.67538 0.0
C2746 C 0.39712 0.39895 0.71049 0.0
C2747 C 0.37245 0.35072 0.67253 0.0
C2748 C 0.46199 0.44183 0.73551 0.0
C2749 C 0.4506 0.4302 0.72361 0.0
C2750 C 0.42578 0.40681 0.69601 0.0
C2751 C 0.38596 0.37316 0.69451 0.0
C2752 C 0.39891 0.38861 0.69817 0.0
C2753 C 0.43748 0.43045 0.71825 0.0
C2754 C 0.4241 0.41675 0.70945 0.0
H2755 H 0.35553 0.34577 0.72048 0.0
H2756 H 0.37637 0.37113 0.72574 0.0
H2757 H 0.41523 0.38523 0.68104 0.0
H2758 H 0.4465 0.46392 0.74118 0.0
H2759 H 0.42694 0.44406 0.71937 0.0
C2760 C 0.64397 0.02352 0.68249 0.0
C2761 C 0.65444 0.03899 0.68289 0.0
C2762 C 0.62893 0.01812 0.6879 0.0
C2763 C 0.60101 0.03057 0.69673 0.0
H2764 H 0.58034 0.99405 0.72936 0.0
C2765 C 0.55166 0.01514 0.75372 0.0
C2766 C 0.54008 8e-05 0.75467 0.0
C2767 C 0.56384 0.01945 0.74014 0.0
C2768 C 0.58586 0.00412 0.71992 0.0
H2769 H 0.65737 0.0609 0.68948 0.0
H2770 H 0.63139 0.05151 0.69975 0.0
H2771 H 0.60546 0.00235 0.71598 0.0
H2772 H 0.53165 0.97786 0.74152 0.0
H2773 H 0.55312 0.98537 0.71784 0.0
H2774 H 0.58159 0.03268 0.70189 0.0
C2775 C 0.63459 0.04352 0.69459 0.0
C2776 C 0.60028 0.0089 0.71221 0.0
C2777 C 0.64956 0.04892 0.6889 0.0
C2778 C 0.54039 0.98957 0.74087 0.0
C2779 C 0.5527 0.99383 0.72751 0.0
C2780 C 0.58665 0.02589 0.70473 0.0
C2781 C 0.62404 0.02805 0.69412 0.0
C2782 C 0.60817 0.02232 0.7008 0.0
C2783 C 0.56476 0.00871 0.72753 0.0
C2784 C 0.57903 0.01273 0.71664 0.0
H2785 H 0.64734 0.01558 0.67771 0.0
H2786 H 0.62111 0.00616 0.68701 0.0
H2787 H 0.60655 0.04077 0.6876 0.0
H2788 H 0.55167 0.02339 0.76435 0.0
H2789 H 0.57302 0.03097 0.74059 0.0
loop_
_geom_bond_atom_site_label_1
_geom_bond_atom_site_label_2
_geom_bond_distance
_geom_bond_site_symmetry_2
_ccdc_geom_bond_type
C0 O1 1.306 1_556 S
C0 O3 1.160 . S
O1 C0 1.306 1_554 S
O1 Cd2 2.228 . S
Cd2 O1 2.228 . S
Cd2 O6 2.273 . S
Cd2 O10 2.277 1_554 S
O3 C0 1.160 . S
O3 Cd4 2.203 1_656 S
Cd4 O3 2.203 1_454 S
Cd4 O6 2.411 1_455 S
Cd4 O7 2.333 . S
Cd4 O8 2.352 . S
Cd4 O12 2.277 1_554 S
Cd4 O13 2.356 . S
C5 O10 1.209 1_455 S
C5 O12 1.226 . S
O6 Cd2 2.273 . S
O6 Cd4 2.411 1_655 S
O6 C9 1.320 1_655 S
O7 Cd4 2.333 . S
O7 C9 1.214 . S
O8 Cd4 2.352 . S
O8 C11 1.258 . S
C9 O6 1.320 1_455 S
C9 O7 1.214 . S
O10 Cd2 2.277 1_556 S
O10 C5 1.209 1_655 S
C11 O8 1.258 . S
C11 O13 1.282 . S
O12 Cd4 2.277 1_556 S
O12 C5 1.226 . S
O13 Cd4 2.356 . S
O13 C11 1.282 . S
C14 O15 1.306 . S
C14 O17 1.160 . S
O15 C14 1.306 . S
O15 Cd16 2.228 . S
Cd16 O15 2.228 . S
Cd16 O20 2.273 1_554 S
Cd16 O24 2.277 . S
O17 C14 1.160 . S
O17 Cd18 2.203 . S
Cd18 O17 2.203 . S
Cd18 O20 2.411 1_554 S
Cd18 O21 2.333 1_554 S
Cd18 O22 2.352 1_554 S
Cd18 O26 2.277 . S
Cd18 O27 2.356 . S
C19 O24 1.209 . S
C19 O26 1.226 . S
O20 Cd16 2.273 1_556 S
O20 Cd18 2.411 1_556 S
O20 C23 1.320 . S
O21 Cd18 2.333 1_556 S
O21 C23 1.214 . S
O22 Cd18 2.352 1_556 S
O22 C25 1.258 . S
C23 O20 1.320 . S
C23 O21 1.214 . S
O24 Cd16 2.277 . S
O24 C19 1.209 . S
C25 O22 1.258 . S
C25 O27 1.282 1_556 S
O26 Cd18 2.277 . S
O26 C19 1.226 . S
O27 Cd18 2.356 . S
O27 C25 1.282 1_554 S
C28 O29 1.306 . S
C28 O31 1.160 . S
O29 C28 1.306 . S
O29 Cd30 2.228 . S
Cd30 O29 2.228 . S
Cd30 O34 2.273 1_554 S
Cd30 O38 2.277 . S
O31 C28 1.160 . S
O31 Cd32 2.203 1_565 S
Cd32 O31 2.203 1_545 S
Cd32 O34 2.411 1_544 S
Cd32 O35 2.333 1_554 S
Cd32 O36 2.352 1_554 S
Cd32 O40 2.277 . S
Cd32 O41 2.356 . S
C33 O38 1.209 1_545 S
C33 O40 1.226 . S
O34 Cd30 2.273 1_556 S
O34 Cd32 2.411 1_566 S
O34 C37 1.320 1_565 S
O35 Cd32 2.333 1_556 S
O35 C37 1.214 . S
O36 Cd32 2.352 1_556 S
O36 C39 1.258 . S
C37 O34 1.320 1_545 S
C37 O35 1.214 . S
O38 Cd30 2.277 . S
O38 C33 1.209 1_565 S
C39 O36 1.258 . S
C39 O41 1.282 1_556 S
O40 Cd32 2.277 . S
O40 C33 1.226 . S
O41 Cd32 2.356 . S
O41 C39 1.282 1_554 S
C42 O43 1.306 1_556 S
C42 O45 1.160 . S
O43 C42 1.306 1_554 S
O43 Cd44 2.228 . S
Cd44 O43 2.228 . S
Cd44 O48 2.273 . S
Cd44 O52 2.277 1_554 S
O45 C42 1.160 . S
O45 Cd46 2.203 1_656 S
Cd46 O45 2.203 1_454 S
Cd46 O48 2.411 1_455 S
Cd46 O49 2.333 . S
Cd46 O50 2.352 . S
Cd46 O54 2.277 1_554 S
Cd46 O55 2.356 . S
C47 O52 1.209 1_455 S
C47 O54 1.226 . S
O48 Cd44 2.273 . S
O48 Cd46 2.411 1_655 S
O48 C51 1.320 1_655 S
O49 Cd46 2.333 . S
O49 C51 1.214 . S
O50 Cd46 2.352 . S
O50 C53 1.258 . S
C51 O48 1.320 1_455 S
C51 O49 1.214 . S
O52 Cd44 2.277 1_556 S
O52 C47 1.209 1_655 S
C53 O50 1.258 . S
C53 O55 1.282 . S
O54 Cd46 2.277 1_556 S
O54 C47 1.226 . S
O55 Cd46 2.356 . S
O55 C53 1.282 . S
C56 O57 1.306 . S
C56 O59 1.160 . S
O57 C56 1.306 . S
O57 Cd58 2.228 . S
Cd58 O57 2.228 . S
Cd58 O62 2.273 1_554 S
Cd58 O66 2.277 . S
O59 C56 1.160 . S
O59 Cd60 2.203 . S
Cd60 O59 2.203 . S
Cd60 O62 2.411 1_554 S
Cd60 O63 2.333 1_554 S
Cd60 O64 2.352 1_554 S
Cd60 O68 2.277 . S
Cd60 O69 2.356 . S
C61 O66 1.209 . S
C61 O68 1.226 . S
O62 Cd58 2.273 1_556 S
O62 Cd60 2.411 1_556 S
O62 C65 1.320 . S
O63 Cd60 2.333 1_556 S
O63 C65 1.214 . S
O64 Cd60 2.352 1_556 S
O64 C67 1.258 . S
C65 O62 1.320 . S
C65 O63 1.214 . S
O66 Cd58 2.277 . S
O66 C61 1.209 . S
C67 O64 1.258 . S
C67 O69 1.282 1_556 S
O68 Cd60 2.277 . S
O68 C61 1.226 . S
O69 Cd60 2.356 . S
O69 C67 1.282 1_554 S
C70 O71 1.306 1_556 S
C70 O73 1.160 . S
O71 C70 1.306 1_554 S
O71 Cd72 2.228 . S
Cd72 O71 2.228 . S
Cd72 O76 2.273 . S
Cd72 O80 2.277 1_554 S
O73 C70 1.160 . S
O73 Cd74 2.203 1_546 S
Cd74 O73 2.203 1_564 S
Cd74 O76 2.411 1_565 S
Cd74 O77 2.333 . S
Cd74 O78 2.352 . S
Cd74 O82 2.277 1_554 S
Cd74 O83 2.356 . S
C75 O80 1.184 1_565 S
C75 O82 1.261 . S
O76 Cd72 2.273 . S
O76 Cd74 2.411 1_545 S
O76 C79 1.340 . S
O77 Cd74 2.333 . S
O77 C79 1.172 1_565 S
O78 Cd74 2.352 . S
O78 C81 1.258 . S
C79 O76 1.340 . S
C79 O77 1.172 1_545 S
O80 Cd72 2.277 1_556 S
O80 C75 1.184 1_545 S
C81 O78 1.258 . S
C81 O83 1.282 . S
O82 Cd74 2.277 1_556 S
O82 C75 1.261 . S
O83 Cd74 2.356 . S
O83 C81 1.282 . S
C84 O85 1.306 . S
C84 O87 1.160 . S
O85 C84 1.306 . S
O85 Cd86 2.228 . S
Cd86 O85 2.228 . S
Cd86 O90 2.273 . S
Cd86 O94 2.277 . S
O87 C84 1.160 . S
O87 Cd88 2.203 . S
Cd88 O87 2.203 . S
Cd88 O90 2.411 . S
Cd88 O91 2.333 . S
Cd88 O92 2.352 . S
Cd88 O96 2.277 . S
Cd88 O97 2.356 . S
C89 O94 1.209 . S
C89 O96 1.226 . S
O90 Cd86 2.273 . S
O90 Cd88 2.411 . S
O90 C93 1.320 . S
O91 Cd88 2.333 . S
O91 C93 1.214 . S
O92 Cd88 2.352 . S
O92 C95 1.258 . S
C93 O90 1.320 . S
C93 O91 1.214 . S
O94 Cd86 2.277 . S
O94 C89 1.209 . S
C95 O92 1.258 . S
C95 O97 1.282 . S
O96 Cd88 2.277 . S
O96 C89 1.226 . S
O97 Cd88 2.356 . S
O97 C95 1.282 . S
C98 O99 1.306 . S
C98 O101 1.160 . S
O99 C98 1.306 . S
O99 Cd100 2.228 1_545 S
Cd100 O99 2.228 1_565 S
Cd100 O104 2.273 . S
Cd100 O108 2.277 . S
O101 C98 1.160 . S
O101 Cd102 2.203 1_545 S
Cd102 O101 2.203 1_565 S
Cd102 O104 2.411 . S
Cd102 O105 2.333 . S
Cd102 O106 2.352 . S
Cd102 O110 2.277 . S
Cd102 O111 2.356 . S
C103 O108 1.209 . S
C103 O110 1.226 . S
O104 Cd100 2.273 . S
O104 Cd102 2.411 . S
O104 C107 1.320 . S
O105 Cd102 2.333 . S
O105 C107 1.214 . S
O106 Cd102 2.352 . S
O106 C109 1.258 . S
C107 O104 1.320 . S
C107 O105 1.214 . S
O108 Cd100 2.277 . S
O108 C103 1.209 . S
C109 O106 1.258 . S
C109 O111 1.282 . S
O110 Cd102 2.277 . S
O110 C103 1.226 . S
O111 Cd102 2.356 . S
O111 C109 1.282 . S
C112 O113 1.255 1_655 S
C112 O115 1.160 1_655 S
O113 C112 1.255 1_455 S
O113 Cd114 2.300 . S
Cd114 O113 2.300 . S
Cd114 O118 2.273 . S
Cd114 O122 2.277 . S
O115 C112 1.160 1_455 S
O115 Cd116 2.203 . S
Cd116 O115 2.203 . S
Cd116 O118 2.411 . S
Cd116 O119 2.333 . S
Cd116 O120 2.352 . S
Cd116 O124 2.277 . S
Cd116 O125 2.356 . S
C117 O122 1.209 . S
C117 O124 1.226 . S
O118 Cd114 2.273 . S
O118 Cd116 2.411 . S
O118 C121 1.320 . S
O119 Cd116 2.333 . S
O119 C121 1.214 . S
O120 Cd116 2.352 . S
O120 C123 1.258 . S
C121 O118 1.320 . S
C121 O119 1.214 . S
O122 Cd114 2.277 . S
O122 C117 1.209 . S
C123 O120 1.258 . S
C123 O125 1.282 . S
O124 Cd116 2.277 . S
O124 C117 1.226 . S
O125 Cd116 2.356 . S
O125 C123 1.282 . S
C126 O127 1.306 . S
C126 O129 1.160 . S
O127 C126 1.306 . S
O127 Cd128 2.228 . S
Cd128 O127 2.228 . S
Cd128 O132 2.273 . S
Cd128 O136 2.277 . S
O129 C126 1.160 . S
O129 Cd130 2.203 . S
Cd130 O129 2.203 . S
Cd130 O132 2.411 . S
Cd130 O133 2.333 . S
Cd130 O134 2.352 1_565 S
Cd130 O138 2.277 . S
Cd130 O139 2.356 1_565 S
C131 O136 1.209 . S
C131 O138 1.226 . S
O132 Cd128 2.273 . S
O132 Cd130 2.411 . S
O132 C135 1.320 . S
O133 Cd130 2.333 . S
O133 C135 1.214 . S
O134 Cd130 2.352 1_545 S
O134 C137 1.258 . S
C135 O132 1.320 . S
C135 O133 1.214 . S
O136 Cd128 2.277 . S
O136 C131 1.209 . S
C137 O134 1.258 . S
C137 O139 1.282 . S
O138 Cd130 2.277 . S
O138 C131 1.226 . S
O139 Cd130 2.356 1_545 S
O139 C137 1.282 . S
C140 O141 1.306 . S
C140 O143 1.154 . S
O141 C140 1.306 . S
O141 Cd142 2.228 1_655 S
Cd142 O141 2.228 1_455 S
Cd142 O146 2.273 . S
Cd142 O150 2.277 . S
O143 C140 1.154 . S
O143 Cd144 2.209 1_655 S
Cd144 O143 2.209 1_455 S
Cd144 O146 2.411 . S
Cd144 O147 2.333 . S
Cd144 O148 2.352 . S
Cd144 O152 2.277 . S
Cd144 O153 2.356 . S
C145 O150 1.209 . S
C145 O152 1.226 . S
O146 Cd142 2.273 . S
O146 Cd144 2.411 . S
O146 C149 1.320 . S
O147 Cd144 2.333 . S
O147 C149 1.214 . S
O148 Cd144 2.352 . S
O148 C151 1.258 . S
C149 O146 1.320 . S
C149 O147 1.214 . S
O150 Cd142 2.277 . S
O150 C145 1.209 . S
C151 O148 1.258 . S
C151 O153 1.282 . S
O152 Cd144 2.277 . S
O152 C145 1.226 . S
O153 Cd144 2.356 . S
O153 C151 1.282 . S
C154 O155 1.306 . S
C154 O157 1.160 . S
O155 C154 1.306 . S
O155 Cd156 2.228 . S
Cd156 O155 2.228 . S
Cd156 O160 2.273 . S
Cd156 O164 2.277 . S
O157 C154 1.160 . S
O157 Cd158 2.203 . S
Cd158 O157 2.203 . S
Cd158 O160 2.411 . S
Cd158 O161 2.333 . S
Cd158 O162 2.352 . S
Cd158 O166 2.277 . S
Cd158 O167 2.356 . S
C159 O164 1.209 . S
C159 O166 1.226 . S
O160 Cd156 2.273 . S
O160 Cd158 2.411 . S
O160 C163 1.320 . S
O161 Cd158 2.333 . S
O161 C163 1.214 . S
O162 Cd158 2.352 . S
O162 C165 1.258 . S
C163 O160 1.320 . S
C163 O161 1.214 . S
O164 Cd156 2.277 . S
O164 C159 1.209 . S
C165 O162 1.258 . S
C165 O167 1.282 . S
O166 Cd158 2.277 . S
O166 C159 1.226 . S
O167 Cd158 2.356 . S
O167 C165 1.282 . S
C168 O169 1.306 . S
C168 O171 1.160 . S
O169 C168 1.306 . S
O169 Cd170 2.228 1_565 S
Cd170 O169 2.228 1_545 S
Cd170 O174 2.273 . S
Cd170 O178 2.277 . S
O171 C168 1.160 . S
O171 Cd172 2.174 1_565 S
Cd172 O171 2.174 1_545 S
Cd172 O174 2.411 . S
Cd172 O175 2.333 . S
Cd172 O176 2.352 . S
Cd172 O180 2.277 . S
Cd172 O181 2.356 . S
C173 O178 1.209 . S
C173 O180 1.226 . S
O174 Cd170 2.273 . S
O174 Cd172 2.411 . S
O174 C177 1.320 . S
O175 Cd172 2.333 . S
O175 C177 1.214 . S
O176 Cd172 2.352 . S
O176 C179 1.258 . S
C177 O174 1.320 . S
C177 O175 1.214 . S
O178 Cd170 2.277 . S
O178 C173 1.209 . S
C179 O176 1.258 . S
C179 O181 1.282 . S
O180 Cd172 2.277 . S
O180 C173 1.226 . S
O181 Cd172 2.356 . S
O181 C179 1.282 . S
C182 O183 1.306 . S
C182 O185 1.160 . S
O183 C182 1.306 . S
O183 Cd184 2.228 . S
Cd184 O183 2.228 . S
Cd184 O188 2.273 . S
Cd184 O192 2.277 . S
O185 C182 1.160 . S
O185 Cd186 2.203 . S
Cd186 O185 2.203 . S
Cd186 O188 2.411 . S
Cd186 O189 2.333 . S
Cd186 O190 2.352 1_655 S
Cd186 O194 2.277 . S
Cd186 O195 2.356 1_655 S
C187 O192 1.209 . S
C187 O194 1.226 . S
O188 Cd184 2.273 . S
O188 Cd186 2.411 . S
O188 C191 1.320 . S
O189 Cd186 2.333 . S
O189 C191 1.214 . S
O190 Cd186 2.352 1_455 S
O190 C193 1.258 . S
C191 O188 1.320 . S
C191 O189 1.214 . S
O192 Cd184 2.277 . S
O192 C187 1.209 . S
C193 O190 1.258 . S
C193 O195 1.282 . S
O194 Cd186 2.277 . S
O194 C187 1.226 . S
O195 Cd186 2.356 1_455 S
O195 C193 1.282 . S
C196 O197 1.306 . S
C196 O199 1.160 . S
O197 C196 1.306 . S
O197 Cd198 2.228 . S
Cd198 O197 2.228 . S
Cd198 O202 2.273 . S
Cd198 O206 2.277 . S
O199 C196 1.160 . S
O199 Cd200 2.203 . S
Cd200 O199 2.203 . S
Cd200 O202 2.411 . S
Cd200 O203 2.333 . S
Cd200 O204 2.352 . S
Cd200 O208 2.277 . S
Cd200 O209 2.356 . S
C201 O206 1.209 . S
C201 O208 1.226 . S
O202 Cd198 2.273 . S
O202 Cd200 2.411 . S
O202 C205 1.320 . S
O203 Cd200 2.333 . S
O203 C205 1.214 . S
O204 Cd200 2.352 . S
O204 C207 1.258 . S
C205 O202 1.320 . S
C205 O203 1.214 . S
O206 Cd198 2.277 . S
O206 C201 1.209 . S
C207 O204 1.258 . S
C207 O209 1.282 . S
O208 Cd200 2.277 . S
O208 C201 1.226 . S
O209 Cd200 2.356 . S
O209 C207 1.282 . S
C210 O211 1.306 . S
C210 O213 1.160 . S
O211 C210 1.306 . S
O211 Cd212 2.228 . S
Cd212 O211 2.228 . S
Cd212 O216 2.273 . S
Cd212 O220 2.277 . S
O213 C210 1.160 . S
O213 Cd214 2.203 . S
Cd214 O213 2.203 . S
Cd214 O216 2.411 . S
Cd214 O217 2.333 . S
Cd214 O218 2.352 . S
Cd214 O222 2.277 . S
Cd214 O223 2.356 . S
C215 O220 1.209 . S
C215 O222 1.226 . S
O216 Cd212 2.273 . S
O216 Cd214 2.411 . S
O216 C219 1.320 . S
O217 Cd214 2.333 . S
O217 C219 1.214 . S
O218 Cd214 2.352 . S
O218 C221 1.258 . S
C219 O216 1.320 . S
C219 O217 1.214 . S
O220 Cd212 2.277 . S
O220 C215 1.209 . S
C221 O218 1.258 . S
C221 O223 1.282 . S
O222 Cd214 2.277 . S
O222 C215 1.226 . S
O223 Cd214 2.356 . S
O223 C221 1.282 . S
C224 O225 1.306 . S
C224 O227 1.160 . S
O225 C224 1.306 . S
O225 Cd226 2.228 . S
Cd226 O225 2.228 . S
Cd226 O230 2.273 . S
Cd226 O234 2.277 . S
O227 C224 1.160 . S
O227 Cd228 2.203 . S
Cd228 O227 2.203 . S
Cd228 O230 2.411 . S
Cd228 O231 2.333 . S
Cd228 O232 2.352 1_545 S
Cd228 O236 2.277 . S
Cd228 O237 2.356 1_545 S
C229 O234 1.209 . S
C229 O236 1.226 . S
O230 Cd226 2.273 . S
O230 Cd228 2.411 . S
O230 C233 1.320 . S
O231 Cd228 2.333 . S
O231 C233 1.214 . S
O232 Cd228 2.352 1_565 S
O232 C235 1.258 . S
C233 O230 1.320 . S
C233 O231 1.214 . S
O234 Cd226 2.277 . S
O234 C229 1.209 . S
C235 O232 1.258 . S
C235 O237 1.282 . S
O236 Cd228 2.277 . S
O236 C229 1.226 . S
O237 Cd228 2.356 1_565 S
O237 C235 1.282 . S
C238 O239 1.306 . S
C238 O241 1.160 . S
O239 C238 1.306 . S
O239 Cd240 2.228 1_455 S
Cd240 O239 2.228 1_655 S
Cd240 O244 2.273 . S
Cd240 O248 2.277 . S
O241 C238 1.160 . S
O241 Cd242 2.203 1_455 S
Cd242 O241 2.203 1_655 S
Cd242 O244 2.411 . S
Cd242 O245 2.333 . S
Cd242 O246 2.352 . S
Cd242 O250 2.277 . S
Cd242 O251 2.356 . S
C243 O248 1.209 . S
C243 O250 1.226 . S
O244 Cd240 2.273 . S
O244 Cd242 2.411 . S
O244 C247 1.320 . S
O245 Cd242 2.333 . S
O245 C247 1.214 . S
O246 Cd242 2.352 . S
O246 C249 1.258 . S
C247 O244 1.320 . S
C247 O245 1.214 . S
O248 Cd240 2.277 . S
O248 C243 1.209 . S
C249 O246 1.258 . S
C249 O251 1.282 . S
O250 Cd242 2.277 . S
O250 C243 1.226 . S
O251 Cd242 2.356 . S
O251 C249 1.282 . S
H252 C260 0.930 . S
H253 C263 0.930 . S
H254 C265 0.930 . S
H255 C266 0.970 . S
H256 C266 0.970 . S
H257 C268 0.930 . S
H258 C270 0.930 . S
H259 C272 0.930 . S
C260 H252 0.930 . S
C260 C261 1.382 . S
C260 C262 1.426 . S
C261 C260 1.382 . S
C261 C265 1.389 . S
C262 C260 1.426 . S
C262 C263 1.375 . S
C262 C266 1.532 . S
C263 H253 0.930 . S
C263 C262 1.375 . S
C263 C264 1.416 . S
C264 C263 1.416 . S
C264 C265 1.371 . S
C265 H254 0.930 . S
C265 C261 1.389 . S
C265 C264 1.371 . S
C266 H255 0.970 . S
C266 H256 0.970 . S
C266 C262 1.532 . S
C266 C267 1.499 . S
C267 C266 1.499 . S
C267 C268 1.370 . S
C267 C272 1.415 . S
C268 H257 0.930 . S
C268 C267 1.370 . S
C268 C269 1.407 . S
C269 C268 1.407 . S
C269 C270 1.365 . S
C270 H258 0.930 . S
C270 C269 1.365 . S
C270 C271 1.393 . S
C271 C270 1.393 . S
C271 C272 1.387 . S
C272 H259 0.930 . S
C272 C267 1.415 . S
C272 C271 1.387 . S
H273 C281 0.930 . S
H274 C284 0.930 . S
H275 C286 0.930 . S
H276 C287 0.970 . S
H277 C287 0.970 . S
H278 C289 0.930 . S
H279 C291 0.930 . S
H280 C293 0.930 . S
C281 H273 0.930 . S
C281 C282 1.382 . S
C281 C283 1.426 . S
C282 C281 1.382 . S
C282 C286 1.389 . S
C283 C281 1.426 . S
C283 C284 1.375 . S
C283 C287 1.532 . S
C284 H274 0.930 . S
C284 C283 1.375 . S
C284 C285 1.416 . S
C285 C284 1.416 . S
C285 C286 1.371 . S
C286 H275 0.930 . S
C286 C282 1.389 . S
C286 C285 1.371 . S
C287 H276 0.970 . S
C287 H277 0.970 . S
C287 C283 1.532 . S
C287 C288 1.499 . S
C288 C287 1.499 . S
C288 C289 1.370 . S
C288 C293 1.415 . S
C289 H278 0.930 . S
C289 C288 1.370 . S
C289 C290 1.407 . S
C290 C289 1.407 . S
C290 C291 1.365 . S
C291 H279 0.930 . S
C291 C290 1.365 . S
C291 C292 1.393 . S
C292 C291 1.393 . S
C292 C293 1.387 . S
C293 H280 0.930 . S
C293 C288 1.415 . S
C293 C292 1.387 . S
H294 C302 0.930 . S
H295 C305 0.930 . S
H296 C307 0.930 . S
H297 C308 0.970 . S
H298 C308 0.970 . S
H299 C310 0.930 . S
H300 C312 0.930 . S
H301 C314 0.930 . S
C302 H294 0.930 . S
C302 C303 1.382 . S
C302 C304 1.426 . S
C303 C302 1.382 . S
C303 C307 1.389 . S
C304 C302 1.426 . S
C304 C305 1.375 . S
C304 C308 1.532 . S
C305 H295 0.930 . S
C305 C304 1.375 . S
C305 C306 1.416 . S
C306 C305 1.416 . S
C306 C307 1.371 . S
C307 H296 0.930 . S
C307 C303 1.389 . S
C307 C306 1.371 . S
C308 H297 0.970 . S
C308 H298 0.970 . S
C308 C304 1.532 . S
C308 C309 1.499 . S
C309 C308 1.499 . S
C309 C310 1.370 . S
C309 C314 1.415 . S
C310 H299 0.930 . S
C310 C309 1.370 . S
C310 C311 1.407 . S
C311 C310 1.407 . S
C311 C312 1.365 . S
C312 H300 0.930 . S
C312 C311 1.365 . S
C312 C313 1.393 . S
C313 C312 1.393 . S
C313 C314 1.387 . S
C314 H301 0.930 . S
C314 C309 1.415 . S
C314 C313 1.387 . S
H315 C323 0.930 . S
H316 C326 0.930 . S
H317 C328 0.930 . S
H318 C329 0.970 . S
H319 C329 0.970 . S
H320 C331 0.930 . S
H321 C333 0.930 . S
H322 C335 0.930 . S
C323 H315 0.930 . S
C323 C324 1.382 . S
C323 C325 1.426 . S
C324 C323 1.382 . S
C324 C328 1.389 . S
C325 C323 1.426 . S
C325 C326 1.375 . S
C325 C329 1.532 . S
C326 H316 0.930 . S
C326 C325 1.375 . S
C326 C327 1.416 . S
C327 C326 1.416 . S
C327 C328 1.371 . S
C328 H317 0.930 . S
C328 C324 1.389 . S
C328 C327 1.371 . S
C329 H318 0.970 . S
C329 H319 0.970 . S
C329 C325 1.532 . S
C329 C330 1.499 . S
C330 C329 1.499 . S
C330 C331 1.370 . S
C330 C335 1.415 . S
C331 H320 0.930 . S
C331 C330 1.370 . S
C331 C332 1.407 . S
C332 C331 1.407 . S
C332 C333 1.365 . S
C333 H321 0.930 . S
C333 C332 1.365 . S
C333 C334 1.393 . S
C334 C333 1.393 . S
C334 C335 1.387 . S
C335 H322 0.930 . S
C335 C330 1.415 . S
C335 C334 1.387 . S
H336 C344 0.930 . S
H337 C347 0.930 . S
H338 C349 0.930 . S
H339 C350 0.970 . S
H340 C350 0.970 . S
H341 C352 0.930 . S
H342 C354 0.930 . S
H343 C356 0.930 . S
C344 H336 0.930 . S
C344 C345 1.382 . S
C344 C346 1.426 . S
C345 C344 1.382 . S
C345 C349 1.389 . S
C346 C344 1.426 . S
C346 C347 1.375 . S
C346 C350 1.532 . S
C347 H337 0.930 . S
C347 C346 1.375 . S
C347 C348 1.416 . S
C348 C347 1.416 . S
C348 C349 1.371 . S
C349 H338 0.930 . S
C349 C345 1.389 . S
C349 C348 1.371 . S
C350 H339 0.970 . S
C350 H340 0.970 . S
C350 C346 1.532 . S
C350 C351 1.499 . S
C351 C350 1.499 . S
C351 C352 1.370 . S
C351 C356 1.415 . S
C352 H341 0.930 . S
C352 C351 1.370 . S
C352 C353 1.407 . S
C353 C352 1.407 . S
C353 C354 1.365 . S
C354 H342 0.930 . S
C354 C353 1.365 . S
C354 C355 1.393 . S
C355 C354 1.393 . S
C355 C356 1.387 . S
C356 H343 0.930 . S
C356 C351 1.415 . S
C356 C355 1.387 . S
H357 C365 0.930 . S
H358 C368 0.930 . S
H359 C370 0.930 . S
H360 C371 0.970 . S
H361 C371 0.970 . S
H362 C373 0.930 . S
H363 C375 0.930 . S
H364 C377 0.930 . S
C365 H357 0.930 . S
C365 C366 1.382 . S
C365 C367 1.426 . S
C366 C365 1.382 . S
C366 C370 1.389 . S
C367 C365 1.426 . S
C367 C368 1.375 . S
C367 C371 1.532 . S
C368 H358 0.930 . S
C368 C367 1.375 . S
C368 C369 1.416 . S
C369 C368 1.416 . S
C369 C370 1.371 . S
C370 H359 0.930 . S
C370 C366 1.389 . S
C370 C369 1.371 . S
C371 H360 0.970 . S
C371 H361 0.970 . S
C371 C367 1.532 . S
C371 C372 1.499 . S
C372 C371 1.499 . S
C372 C373 1.370 . S
C372 C377 1.415 . S
C373 H362 0.930 . S
C373 C372 1.370 . S
C373 C374 1.407 . S
C374 C373 1.407 . S
C374 C375 1.365 . S
C375 H363 0.930 . S
C375 C374 1.365 . S
C375 C376 1.393 . S
C376 C375 1.393 . S
C376 C377 1.387 . S
C377 H364 0.930 . S
C377 C372 1.415 . S
C377 C376 1.387 . S
H378 C386 0.930 . S
H379 C389 0.930 . S
H380 C391 0.930 . S
H381 C392 0.970 . S
H382 C392 0.970 . S
H383 C394 0.930 . S
H384 C396 0.930 . S
H385 C398 0.930 . S
C386 H378 0.930 . S
C386 C387 1.382 . S
C386 C388 1.426 . S
C387 C386 1.382 . S
C387 C391 1.389 . S
C388 C386 1.426 . S
C388 C389 1.375 . S
C388 C392 1.532 . S
C389 H379 0.930 . S
C389 C388 1.375 . S
C389 C390 1.416 . S
C390 C389 1.416 . S
C390 C391 1.371 . S
C391 H380 0.930 . S
C391 C387 1.389 . S
C391 C390 1.371 . S
C392 H381 0.970 . S
C392 H382 0.970 . S
C392 C388 1.532 . S
C392 C393 1.499 . S
C393 C392 1.499 . S
C393 C394 1.370 . S
C393 C398 1.415 . S
C394 H383 0.930 . S
C394 C393 1.370 . S
C394 C395 1.407 . S
C395 C394 1.407 . S
C395 C396 1.365 . S
C396 H384 0.930 . S
C396 C395 1.365 . S
C396 C397 1.393 . S
C397 C396 1.393 . S
C397 C398 1.387 . S
C398 H385 0.930 . S
C398 C393 1.415 . S
C398 C397 1.387 . S
H399 C407 0.930 . S
H400 C410 0.930 . S
H401 C412 0.930 . S
H402 C413 0.970 . S
H403 C413 0.970 . S
H404 C415 0.930 . S
H405 C417 0.930 . S
H406 C419 0.930 . S
C407 H399 0.930 . S
C407 C408 1.382 . S
C407 C409 1.426 . S
C408 C407 1.382 . S
C408 C412 1.389 . S
C409 C407 1.426 . S
C409 C410 1.375 . S
C409 C413 1.532 . S
C410 H400 0.930 . S
C410 C409 1.375 . S
C410 C411 1.416 . S
C411 C410 1.416 . S
C411 C412 1.371 . S
C412 H401 0.930 . S
C412 C408 1.389 . S
C412 C411 1.371 . S
C413 H402 0.970 . S
C413 H403 0.970 . S
C413 C409 1.532 . S
C413 C414 1.499 . S
C414 C413 1.499 . S
C414 C415 1.370 . S
C414 C419 1.415 . S
C415 H404 0.930 . S
C415 C414 1.370 . S
C415 C416 1.407 . S
C416 C415 1.407 . S
C416 C417 1.365 . S
C417 H405 0.930 . S
C417 C416 1.365 . S
C417 C418 1.393 . S
C418 C417 1.393 . S
C418 C419 1.387 . S
C419 H406 0.930 . S
C419 C414 1.415 . S
C419 C418 1.387 . S
H420 C428 0.930 . S
H421 C431 0.930 . S
H422 C433 0.930 . S
H423 C434 0.970 . S
H424 C434 0.970 . S
H425 C436 0.930 . S
H426 C438 0.930 . S
H427 C440 0.930 . S
C428 H420 0.930 . S
C428 C429 1.382 . S
C428 C430 1.426 . S
C429 C428 1.382 . S
C429 C433 1.389 . S
C430 C428 1.426 . S
C430 C431 1.375 . S
C430 C434 1.532 . S
C431 H421 0.930 . S
C431 C430 1.375 . S
C431 C432 1.416 . S
C432 C431 1.416 . S
C432 C433 1.371 . S
C433 H422 0.930 . S
C433 C429 1.389 . S
C433 C432 1.371 . S
C434 H423 0.970 . S
C434 H424 0.970 . S
C434 C430 1.532 . S
C434 C435 1.499 . S
C435 C434 1.499 . S
C435 C436 1.370 . S
C435 C440 1.415 . S
C436 H425 0.930 . S
C436 C435 1.370 . S
C436 C437 1.407 . S
C437 C436 1.407 . S
C437 C438 1.365 . S
C438 H426 0.930 . S
C438 C437 1.365 . S
C438 C439 1.393 . S
C439 C438 1.393 . S
C439 C440 1.387 . S
C440 H427 0.930 . S
C440 C435 1.415 . S
C440 C439 1.387 . S
H441 C449 0.930 . S
H442 C452 0.930 . S
H443 C454 0.930 . S
H444 C455 0.970 . S
H445 C455 0.970 . S
H446 C457 0.930 . S
H447 C459 0.930 . S
H448 C461 0.930 . S
C449 H441 0.930 . S
C449 C450 1.382 . S
C449 C451 1.426 . S
C450 C449 1.382 . S
C450 C454 1.389 1_455 S
C451 C449 1.426 . S
C451 C452 1.375 . S
C451 C455 1.532 . S
C452 H442 0.930 . S
C452 C451 1.375 . S
C452 C453 1.416 . S
C453 C452 1.416 . S
C453 C454 1.371 1_455 S
C454 H443 0.930 . S
C454 C450 1.389 1_655 S
C454 C453 1.371 1_655 S
C455 H444 0.970 . S
C455 H445 0.970 . S
C455 C451 1.532 . S
C455 C456 1.499 . S
C456 C455 1.499 . S
C456 C457 1.370 . S
C456 C461 1.415 . S
C457 H446 0.930 . S
C457 C456 1.370 . S
C457 C458 1.411 . S
C458 C457 1.411 . S
C458 C459 1.371 1_455 S
C459 H447 0.930 . S
C459 C458 1.371 1_655 S
C459 C460 1.393 1_655 S
C460 C459 1.393 1_455 S
C460 C461 1.387 . S
C461 H448 0.930 . S
C461 C456 1.415 . S
C461 C460 1.387 . S
H462 C470 0.930 . S
H463 C473 0.930 . S
H464 C475 0.930 . S
H465 C476 0.970 . S
H466 C476 0.970 . S
H467 C478 0.930 . S
H468 C480 0.930 . S
H469 C482 0.930 . S
C470 H462 0.930 . S
C470 C471 1.382 . S
C470 C472 1.426 . S
C471 C470 1.382 . S
C471 C475 1.389 . S
C472 C470 1.426 . S
C472 C473 1.375 . S
C472 C476 1.532 . S
C473 H463 0.930 . S
C473 C472 1.375 . S
C473 C474 1.416 . S
C474 C473 1.416 . S
C474 C475 1.371 . S
C475 H464 0.930 . S
C475 C471 1.389 . S
C475 C474 1.371 . S
C476 H465 0.970 . S
C476 H466 0.970 . S
C476 C472 1.532 . S
C476 C477 1.499 . S
C477 C476 1.499 . S
C477 C478 1.370 . S
C477 C482 1.415 . S
C478 H467 0.930 . S
C478 C477 1.370 . S
C478 C479 1.407 . S
C479 C478 1.407 . S
C479 C480 1.365 . S
C480 H468 0.930 . S
C480 C479 1.365 . S
C480 C481 1.393 . S
C481 C480 1.393 . S
C481 C482 1.387 . S
C482 H469 0.930 . S
C482 C477 1.415 . S
C482 C481 1.387 . S
H483 C491 0.930 . S
H484 C494 0.930 . S
H485 C496 0.930 . S
H486 C497 0.970 . S
H487 C497 0.970 . S
H488 C499 0.930 . S
H489 C501 0.930 . S
H490 C503 0.930 . S
C491 H483 0.930 . S
C491 C492 1.382 . S
C491 C493 1.426 . S
C492 C491 1.382 . S
C492 C496 1.389 1_565 S
C493 C491 1.426 . S
C493 C494 1.375 . S
C493 C497 1.532 . S
C494 H484 0.930 . S
C494 C493 1.375 . S
C494 C495 1.416 . S
C495 C494 1.416 . S
C495 C496 1.371 1_565 S
C496 H485 0.930 . S
C496 C492 1.389 1_545 S
C496 C495 1.371 1_545 S
C497 H486 0.970 . S
C497 H487 0.970 . S
C497 C493 1.532 . S
C497 C498 1.499 . S
C498 C497 1.499 . S
C498 C499 1.370 . S
C498 C503 1.415 . S
C499 H488 0.930 . S
C499 C498 1.370 . S
C499 C500 1.431 . S
C500 C499 1.431 . S
C500 C501 1.355 1_565 S
C501 H489 0.930 . S
C501 C500 1.355 1_545 S
C501 C502 1.393 1_545 S
C502 C501 1.393 1_565 S
C502 C503 1.387 . S
C503 H490 0.930 . S
C503 C498 1.415 . S
C503 C502 1.387 . S
H504 C512 0.930 . S
H505 C515 0.930 . S
H506 C517 0.930 . S
H507 C518 0.970 . S
H508 C518 0.970 . S
H509 C520 0.930 . S
H510 C522 0.930 . S
H511 C524 0.930 . S
C512 H504 0.930 . S
C512 C513 1.382 . S
C512 C514 1.426 . S
C513 C512 1.382 . S
C513 C517 1.389 1_565 S
C514 C512 1.426 . S
C514 C515 1.375 . S
C514 C518 1.532 . S
C515 H505 0.930 . S
C515 C514 1.375 . S
C515 C516 1.486 . S
C516 C515 1.486 . S
C516 C517 1.345 1_565 S
C517 H506 0.930 . S
C517 C513 1.389 1_545 S
C517 C516 1.345 1_545 S
C518 H507 0.970 . S
C518 H508 0.970 . S
C518 C514 1.532 . S
C518 C519 1.499 . S
C519 C518 1.499 . S
C519 C520 1.370 . S
C519 C524 1.415 . S
C520 H509 0.930 . S
C520 C519 1.370 . S
C520 C521 1.407 . S
C521 C520 1.407 . S
C521 C522 1.365 1_565 S
C522 H510 0.930 . S
C522 C521 1.365 1_545 S
C522 C523 1.393 1_545 S
C523 C522 1.393 1_565 S
C523 C524 1.387 . S
C524 H511 0.930 . S
C524 C519 1.415 . S
C524 C523 1.387 . S
H525 C533 0.930 . S
H526 C536 0.930 . S
H527 C538 0.930 . S
H528 C539 0.970 . S
H529 C539 0.970 . S
H530 C541 0.930 . S
H531 C543 0.930 . S
H532 C545 0.930 . S
C533 H525 0.930 . S
C533 C534 1.382 . S
C533 C535 1.426 . S
C534 C533 1.382 . S
C534 C538 1.389 1_455 S
C535 C533 1.426 . S
C535 C536 1.375 . S
C535 C539 1.532 . S
C536 H526 0.930 . S
C536 C535 1.375 . S
C536 C537 1.416 . S
C537 C536 1.416 . S
C537 C538 1.371 1_455 S
C538 H527 0.930 . S
C538 C534 1.389 1_655 S
C538 C537 1.371 1_655 S
C539 H528 0.970 . S
C539 H529 0.970 . S
C539 C535 1.532 . S
C539 C540 1.499 . S
C540 C539 1.499 . S
C540 C541 1.370 . S
C540 C545 1.415 . S
C541 H530 0.930 . S
C541 C540 1.370 . S
C541 C542 1.407 . S
C542 C541 1.407 . S
C542 C543 1.365 1_455 S
C543 H531 0.930 . S
C543 C542 1.365 1_655 S
C543 C544 1.393 1_655 S
C544 C543 1.393 1_455 S
C544 C545 1.387 . S
C545 H532 0.930 . S
C545 C540 1.415 . S
C545 C544 1.387 . S
H546 C554 0.930 . S
H547 C557 0.930 . S
H548 C559 0.930 . S
H549 C560 0.970 . S
H550 C560 0.970 . S
H551 C562 0.930 . S
H552 C564 0.930 . S
H553 C566 0.930 . S
C554 H546 0.930 . S
C554 C555 1.382 . S
C554 C556 1.426 . S
C555 C554 1.382 . S
C555 C559 1.389 . S
C556 C554 1.426 . S
C556 C557 1.375 . S
C556 C560 1.532 . S
C557 H547 0.930 . S
C557 C556 1.375 . S
C557 C558 1.416 . S
C558 C557 1.416 . S
C558 C559 1.371 . S
C559 H548 0.930 . S
C559 C555 1.389 . S
C559 C558 1.371 . S
C560 H549 0.970 . S
C560 H550 0.970 . S
C560 C556 1.532 . S
C560 C561 1.499 . S
C561 C560 1.499 . S
C561 C562 1.370 . S
C561 C566 1.415 . S
C562 H551 0.930 . S
C562 C561 1.370 . S
C562 C563 1.407 . S
C563 C562 1.407 . S
C563 C564 1.365 . S
C564 H552 0.930 . S
C564 C563 1.365 . S
C564 C565 1.393 . S
C565 C564 1.393 . S
C565 C566 1.387 . S
C566 H553 0.930 . S
C566 C561 1.415 . S
C566 C565 1.387 . S
H567 C575 0.930 . S
H568 C578 0.930 . S
H569 C580 0.930 . S
H570 C581 0.970 . S
H571 C581 0.970 . S
H572 C583 0.930 . S
H573 C585 0.930 . S
H574 C587 0.930 . S
C575 H567 0.930 . S
C575 C576 1.382 . S
C575 C577 1.426 . S
C576 C575 1.382 . S
C576 C580 1.389 . S
C577 C575 1.426 . S
C577 C578 1.375 . S
C577 C581 1.532 . S
C578 H568 0.930 . S
C578 C577 1.375 . S
C578 C579 1.416 . S
C579 C578 1.416 . S
C579 C580 1.371 . S
C580 H569 0.930 . S
C580 C576 1.389 . S
C580 C579 1.371 . S
C581 H570 0.970 . S
C581 H571 0.970 . S
C581 C577 1.532 . S
C581 C582 1.499 . S
C582 C581 1.499 . S
C582 C583 1.370 . S
C582 C587 1.415 . S
C583 H572 0.930 . S
C583 C582 1.370 . S
C583 C584 1.407 . S
C584 C583 1.407 . S
C584 C585 1.365 . S
C585 H573 0.930 . S
C585 C584 1.365 . S
C585 C586 1.393 . S
C586 C585 1.393 . S
C586 C587 1.387 . S
C587 H574 0.930 . S
C587 C582 1.415 . S
C587 C586 1.387 . S
H588 C596 0.930 . S
H589 C599 0.930 . S
H590 C601 0.930 . S
H591 C602 0.970 . S
H592 C602 0.970 . S
H593 C604 0.930 . S
H594 C606 0.930 . S
H595 C608 0.930 . S
C596 H588 0.930 . S
C596 C597 1.382 . S
C596 C598 1.426 . S
C597 C596 1.382 . S
C597 C601 1.389 . S
C598 C596 1.426 . S
C598 C599 1.375 . S
C598 C602 1.532 . S
C599 H589 0.930 . S
C599 C598 1.375 . S
C599 C600 1.416 . S
C600 C599 1.416 . S
C600 C601 1.371 . S
C601 H590 0.930 . S
C601 C597 1.389 . S
C601 C600 1.371 . S
C602 H591 0.970 . S
C602 H592 0.970 . S
C602 C598 1.532 . S
C602 C603 1.499 . S
C603 C602 1.499 . S
C603 C604 1.370 . S
C603 C608 1.415 . S
C604 H593 0.930 . S
C604 C603 1.370 . S
C604 C605 1.407 . S
C605 C604 1.407 . S
C605 C606 1.365 . S
C606 H594 0.930 . S
C606 C605 1.365 . S
C606 C607 1.393 . S
C607 C606 1.393 . S
C607 C608 1.387 . S
C608 H595 0.930 . S
C608 C603 1.415 . S
C608 C607 1.387 . S
H609 C617 0.930 . S
H610 C620 0.930 . S
H611 C622 0.930 . S
H612 C623 0.970 . S
H613 C623 0.970 . S
H614 C625 0.930 . S
H615 C627 0.930 . S
H616 C629 0.930 . S
C617 H609 0.930 . S
C617 C618 1.382 . S
C617 C619 1.426 . S
C618 C617 1.382 . S
C618 C622 1.389 . S
C619 C617 1.426 . S
C619 C620 1.375 . S
C619 C623 1.532 . S
C620 H610 0.930 . S
C620 C619 1.375 . S
C620 C621 1.416 . S
C621 C620 1.416 . S
C621 C622 1.371 . S
C622 H611 0.930 . S
C622 C618 1.389 . S
C622 C621 1.371 . S
C623 H612 0.970 . S
C623 H613 0.970 . S
C623 C619 1.532 . S
C623 C624 1.499 . S
C624 C623 1.499 . S
C624 C625 1.370 . S
C624 C629 1.415 . S
C625 H614 0.930 . S
C625 C624 1.370 . S
C625 C626 1.407 . S
C626 C625 1.407 . S
C626 C627 1.365 . S
C627 H615 0.930 . S
C627 C626 1.365 . S
C627 C628 1.393 . S
C628 C627 1.393 . S
C628 C629 1.387 . S
C629 H616 0.930 . S
C629 C624 1.415 . S
C629 C628 1.387 . S
C630 C631 1.374 . S
C630 C632 1.327 . S
C630 H655 0.950 . S
C631 C630 1.374 . S
C631 C647 1.335 1_655 S
C632 C630 1.327 . S
C632 C651 1.472 . S
C632 H656 0.950 . S
C633 C650 1.574 . S
C633 C652 1.368 1_455 S
C633 H657 0.949 . S
H634 C638 0.949 . S
C635 C636 1.349 1_455 S
C635 C637 1.327 . S
C635 H658 0.950 . S
C636 C635 1.349 1_655 S
C636 C648 1.349 . S
C637 C635 1.327 . S
C637 C653 1.429 1_455 S
C637 H659 0.950 . S
C638 H634 0.949 . S
C638 C646 1.574 . S
C638 C654 1.368 . S
H639 C647 0.950 . S
H640 C645 0.950 . S
H641 C646 0.949 . S
H642 C648 0.950 . S
H643 C649 0.950 . S
H644 C650 0.949 . S
C645 H640 0.950 . S
C645 C647 1.327 . S
C645 C651 1.350 1_455 S
C646 C638 1.574 . S
C646 H641 0.949 . S
C646 C652 1.368 . S
C647 C631 1.335 1_455 S
C647 H639 0.950 . S
C647 C645 1.327 . S
C648 C636 1.349 . S
C648 H642 0.950 . S
C648 C649 1.327 . S
C649 H643 0.950 . S
C649 C648 1.327 . S
C649 C653 1.429 . S
C650 C633 1.574 . S
C650 H644 0.949 . S
C650 C654 1.368 1_455 S
C651 C632 1.472 . S
C651 C645 1.350 1_655 S
C651 C652 1.558 . S
C652 C633 1.368 1_655 S
C652 C646 1.368 . S
C652 C651 1.558 . S
C653 C637 1.429 1_655 S
C653 C649 1.429 . S
C653 C654 1.523 . S
C654 C638 1.368 . S
C654 C650 1.368 1_655 S
C654 C653 1.523 . S
H655 C630 0.950 . S
H656 C632 0.950 . S
H657 C633 0.949 . S
H658 C635 0.950 . S
H659 C637 0.950 . S
C660 C661 1.349 . S
C660 C662 1.327 . S
C660 H685 0.950 . S
C661 C660 1.349 . S
C661 C677 1.349 . S
C662 C660 1.327 . S
C662 C681 1.429 . S
C662 H686 0.950 . S
C663 C680 1.574 . S
C663 C682 1.368 . S
C663 H687 0.949 . S
H664 C668 0.949 . S
C665 C666 1.349 . S
C665 C667 1.327 . S
C665 H688 0.950 . S
C666 C665 1.349 . S
C666 C678 1.349 . S
C667 C665 1.327 . S
C667 C683 1.429 . S
C667 H689 0.950 . S
C668 H664 0.949 . S
C668 C676 1.574 . S
C668 C684 1.368 . S
H669 C677 0.950 . S
H670 C675 0.950 . S
H671 C676 0.949 . S
H672 C678 0.950 . S
H673 C679 0.950 . S
H674 C680 0.949 . S
C675 H670 0.950 . S
C675 C677 1.327 . S
C675 C681 1.429 . S
C676 C668 1.574 . S
C676 H671 0.949 . S
C676 C682 1.368 . S
C677 C661 1.349 . S
C677 H669 0.950 . S
C677 C675 1.327 . S
C678 C666 1.349 . S
C678 H672 0.950 . S
C678 C679 1.327 . S
C679 H673 0.950 . S
C679 C678 1.327 . S
C679 C683 1.429 . S
C680 C663 1.574 . S
C680 H674 0.949 . S
C680 C684 1.368 . S
C681 C662 1.429 . S
C681 C675 1.429 . S
C681 C682 1.523 . S
C682 C663 1.368 . S
C682 C676 1.368 . S
C682 C681 1.523 . S
C683 C667 1.429 . S
C683 C679 1.429 . S
C683 C684 1.523 . S
C684 C668 1.368 . S
C684 C680 1.368 . S
C684 C683 1.523 . S
H685 C660 0.950 . S
H686 C662 0.950 . S
H687 C663 0.949 . S
H688 C665 0.950 . S
H689 C667 0.950 . S
C690 C691 1.349 . S
C690 C692 1.327 . S
C690 H715 0.950 . S
C691 C690 1.349 . S
C691 C707 1.349 1_545 S
C692 C690 1.327 . S
C692 C711 1.429 . S
C692 H716 0.950 . S
C693 C710 1.574 . S
C693 C712 1.368 1_565 S
C693 H717 0.949 . S
H694 C698 0.949 . S
C695 C696 1.349 1_565 S
C695 C697 1.327 . S
C695 H718 0.950 . S
C696 C695 1.349 1_545 S
C696 C708 1.349 . S
C697 C695 1.327 . S
C697 C713 1.429 1_565 S
C697 H719 0.950 . S
C698 H694 0.949 . S
C698 C706 1.574 . S
C698 C714 1.368 . S
H699 C707 0.950 . S
H700 C705 0.950 . S
H701 C706 0.949 . S
H702 C708 0.950 . S
H703 C709 0.950 . S
H704 C710 0.949 . S
C705 H700 0.950 . S
C705 C707 1.327 . S
C705 C711 1.429 1_565 S
C706 C698 1.574 . S
C706 H701 0.949 . S
C706 C712 1.368 . S
C707 C691 1.349 1_565 S
C707 H699 0.950 . S
C707 C705 1.327 . S
C708 C696 1.349 . S
C708 H702 0.950 . S
C708 C709 1.327 . S
C709 H703 0.950 . S
C709 C708 1.327 . S
C709 C713 1.429 . S
C710 C693 1.574 . S
C710 H704 0.949 . S
C710 C714 1.368 1_565 S
C711 C692 1.429 . S
C711 C705 1.429 1_545 S
C711 C712 1.523 . S
C712 C693 1.368 1_545 S
C712 C706 1.368 . S
C712 C711 1.523 . S
C713 C697 1.429 1_545 S
C713 C709 1.429 . S
C713 C714 1.523 . S
C714 C698 1.368 . S
C714 C710 1.368 1_545 S
C714 C713 1.523 . S
H715 C690 0.950 . S
H716 C692 0.950 . S
H717 C693 0.949 . S
H718 C695 0.950 . S
H719 C697 0.950 . S
C720 C721 1.362 . S
C720 C722 1.327 . S
C720 H745 0.950 . S
C721 C720 1.362 . S
C721 C737 1.316 1_545 S
C722 C720 1.327 . S
C722 C741 1.426 1_545 S
C722 H746 0.950 . S
C723 C740 1.574 . S
C723 C742 1.397 . S
C723 H747 0.949 . S
H724 C728 0.949 . S
C725 C726 1.349 . S
C725 C727 1.327 . S
C725 H748 0.950 . S
C726 C725 1.349 . S
C726 C738 1.349 1_565 S
C727 C725 1.327 . S
C727 C743 1.429 . S
C727 H749 0.950 . S
C728 H724 0.949 . S
C728 C736 1.574 . S
C728 C744 1.368 1_545 S
H729 C737 0.950 . S
H730 C735 0.950 . S
H731 C736 0.949 . S
H732 C738 0.950 . S
H733 C739 0.950 . S
H734 C740 0.949 . S
C735 H730 0.950 . S
C735 C737 1.327 . S
C735 C741 1.429 . S
C736 C728 1.574 . S
C736 H731 0.949 . S
C736 C742 1.355 1_545 S
C737 C721 1.316 1_565 S
C737 H729 0.950 . S
C737 C735 1.327 . S
C738 C726 1.349 1_545 S
C738 H732 0.950 . S
C738 C739 1.327 . S
C739 H733 0.950 . S
C739 C738 1.327 . S
C739 C743 1.429 1_545 S
C740 C723 1.574 . S
C740 H734 0.949 . S
C740 C744 1.368 . S
C741 C722 1.426 1_565 S
C741 C735 1.429 . S
C741 C742 1.506 . S
C742 C723 1.397 . S
C742 C736 1.355 1_565 S
C742 C741 1.506 . S
C743 C727 1.429 . S
C743 C739 1.429 1_565 S
C743 C744 1.523 . S
C744 C728 1.368 1_565 S
C744 C740 1.368 . S
C744 C743 1.523 . S
H745 C720 0.950 . S
H746 C722 0.950 . S
H747 C723 0.949 . S
H748 C725 0.950 . S
H749 C727 0.950 . S
C750 C751 1.349 . S
C750 C752 1.327 . S
C750 H775 0.950 . S
C751 C750 1.349 . S
C751 C767 1.342 1_455 S
C752 C750 1.327 . S
C752 C771 1.429 . S
C752 H776 0.950 . S
C753 C770 1.612 . S
C753 C772 1.363 1_655 S
C753 H777 0.928 . S
H754 C758 0.949 . S
C755 C756 1.369 1_655 S
C755 C757 1.330 . S
C755 H778 0.963 . S
C756 C755 1.369 1_455 S
C756 C768 1.349 . S
C757 C755 1.330 . S
C757 C773 1.418 1_655 S
C757 H779 0.934 . S
C758 H754 0.949 . S
C758 C766 1.574 . S
C758 C774 1.368 . S
H759 C767 0.938 . S
H760 C765 0.960 . S
H761 C766 0.949 . S
H762 C768 0.950 . S
H763 C769 0.950 . S
H764 C770 0.949 . S
C765 H760 0.960 . S
C765 C767 1.322 . S
C765 C771 1.447 1_655 S
C766 C758 1.574 . S
C766 H761 0.949 . S
C766 C772 1.368 . S
C767 C751 1.342 1_655 S
C767 H759 0.938 . S
C767 C765 1.322 . S
C768 C756 1.349 . S
C768 H762 0.950 . S
C768 C769 1.327 . S
C769 H763 0.950 . S
C769 C768 1.327 . S
C769 C773 1.429 . S
C770 C753 1.612 . S
C770 H764 0.949 . S
C770 C774 1.368 1_655 S
C771 C752 1.429 . S
C771 C765 1.447 1_455 S
C771 C772 1.523 . S
C772 C753 1.363 1_455 S
C772 C766 1.368 . S
C772 C771 1.523 . S
C773 C757 1.418 1_455 S
C773 C769 1.429 . S
C773 C774 1.523 . S
C774 C758 1.368 . S
C774 C770 1.368 1_455 S
C774 C773 1.523 . S
H775 C750 0.950 . S
H776 C752 0.950 . S
H777 C753 0.928 . S
H778 C755 0.963 . S
H779 C757 0.934 . S
C780 C781 1.349 . S
C780 C782 1.327 . S
C780 H805 0.950 . S
C781 C780 1.349 . S
C781 C797 1.349 . S
C782 C780 1.327 . S
C782 C801 1.429 . S
C782 H806 0.950 . S
C783 C800 1.574 . S
C783 C802 1.368 . S
C783 H807 0.949 . S
H784 C788 0.949 . S
C785 C786 1.349 . S
C785 C787 1.327 . S
C785 H808 0.950 . S
C786 C785 1.349 . S
C786 C798 1.349 . S
C787 C785 1.327 . S
C787 C803 1.429 . S
C787 H809 0.950 . S
C788 H784 0.949 . S
C788 C796 1.574 . S
C788 C804 1.368 . S
H789 C797 0.950 . S
H790 C795 0.950 . S
H791 C796 0.949 . S
H792 C798 0.950 . S
H793 C799 0.950 . S
H794 C800 0.949 . S
C795 H790 0.950 . S
C795 C797 1.327 . S
C795 C801 1.429 . S
C796 C788 1.574 . S
C796 H791 0.949 . S
C796 C802 1.368 . S
C797 C781 1.349 . S
C797 H789 0.950 . S
C797 C795 1.327 . S
C798 C786 1.349 . S
C798 H792 0.950 . S
C798 C799 1.327 . S
C799 H793 0.950 . S
C799 C798 1.327 . S
C799 C803 1.429 . S
C800 C783 1.574 . S
C800 H794 0.949 . S
C800 C804 1.368 . S
C801 C782 1.429 . S
C801 C795 1.429 . S
C801 C802 1.523 . S
C802 C783 1.368 . S
C802 C796 1.368 . S
C802 C801 1.523 . S
C803 C787 1.429 . S
C803 C799 1.429 . S
C803 C804 1.523 . S
C804 C788 1.368 . S
C804 C800 1.368 . S
C804 C803 1.523 . S
H805 C780 0.950 . S
H806 C782 0.950 . S
H807 C783 0.949 . S
H808 C785 0.950 . S
H809 C787 0.950 . S
C810 C811 1.349 1_655 S
C810 C812 1.327 . S
C810 H835 0.950 . S
C811 C810 1.349 1_455 S
C811 C827 1.349 . S
C812 C810 1.327 . S
C812 C831 1.429 1_655 S
C812 H836 0.950 . S
C813 C830 1.574 . S
C813 C832 1.368 . S
C813 H837 0.949 . S
H814 C818 0.949 . S
C815 C816 1.367 . S
C815 C817 1.327 . S
C815 H838 0.950 . S
C816 C815 1.367 . S
C816 C828 1.318 1_455 S
C817 C815 1.327 . S
C817 C833 1.429 . S
C817 H839 0.950 . S
C818 H814 0.949 . S
C818 C826 1.574 . S
C818 C834 1.368 1_655 S
H819 C827 0.950 . S
H820 C825 0.950 . S
H821 C826 0.949 . S
H822 C828 0.950 . S
H823 C829 0.950 . S
H824 C830 0.949 . S
C825 H820 0.950 . S
C825 C827 1.327 . S
C825 C831 1.429 . S
C826 C818 1.574 . S
C826 H821 0.949 . S
C826 C832 1.368 1_655 S
C827 C811 1.349 . S
C827 H819 0.950 . S
C827 C825 1.327 . S
C828 C816 1.318 1_655 S
C828 H822 0.950 . S
C828 C829 1.327 . S
C829 H823 0.950 . S
C829 C828 1.327 . S
C829 C833 1.429 1_655 S
C830 C813 1.574 . S
C830 H824 0.949 . S
C830 C834 1.368 . S
C831 C812 1.429 1_455 S
C831 C825 1.429 . S
C831 C832 1.523 . S
C832 C813 1.368 . S
C832 C826 1.368 1_455 S
C832 C831 1.523 . S
C833 C817 1.429 . S
C833 C829 1.429 1_455 S
C833 C834 1.523 . S
C834 C818 1.368 1_455 S
C834 C830 1.368 . S
C834 C833 1.523 . S
H835 C810 0.950 . S
H836 C812 0.950 . S
H837 C813 0.949 . S
H838 C815 0.950 . S
H839 C817 0.950 . S
C840 C841 1.349 . S
C840 C842 1.327 . S
C840 H865 0.950 . S
C841 C840 1.349 . S
C841 C857 1.349 . S
C842 C840 1.327 . S
C842 C861 1.429 . S
C842 H866 0.950 . S
C843 C860 1.574 . S
C843 C862 1.368 . S
C843 H867 0.949 . S
H844 C848 0.949 . S
C845 C846 1.349 . S
C845 C847 1.327 . S
C845 H868 0.950 . S
C846 C845 1.349 . S
C846 C858 1.349 . S
C847 C845 1.327 . S
C847 C863 1.429 . S
C847 H869 0.950 . S
C848 H844 0.949 . S
C848 C856 1.574 . S
C848 C864 1.368 . S
H849 C857 0.950 . S
H850 C855 0.950 . S
H851 C856 0.949 . S
H852 C858 0.950 . S
H853 C859 0.950 . S
H854 C860 0.949 . S
C855 H850 0.950 . S
C855 C857 1.327 . S
C855 C861 1.429 . S
C856 C848 1.574 . S
C856 H851 0.949 . S
C856 C862 1.368 . S
C857 C841 1.349 . S
C857 H849 0.950 . S
C857 C855 1.327 . S
C858 C846 1.349 . S
C858 H852 0.950 . S
C858 C859 1.327 . S
C859 H853 0.950 . S
C859 C858 1.327 . S
C859 C863 1.429 . S
C860 C843 1.574 . S
C860 H854 0.949 . S
C860 C864 1.368 . S
C861 C842 1.429 . S
C861 C855 1.429 . S
C861 C862 1.523 . S
C862 C843 1.368 . S
C862 C856 1.368 . S
C862 C861 1.523 . S
C863 C847 1.429 . S
C863 C859 1.429 . S
C863 C864 1.523 . S
C864 C848 1.368 . S
C864 C860 1.368 . S
C864 C863 1.523 . S
H865 C840 0.950 . S
H866 C842 0.950 . S
H867 C843 0.949 . S
H868 C845 0.950 . S
H869 C847 0.950 . S
C870 C871 1.290 1_545 S
C870 C872 1.327 . S
C870 H895 0.950 . S
C871 C870 1.290 1_565 S
C871 C887 1.375 . S
C872 C870 1.327 . S
C872 C891 1.413 1_545 S
C872 H896 0.950 . S
C873 C890 1.574 . S
C873 C892 1.392 . S
C873 H897 0.949 . S
H874 C878 0.949 . S
C875 C876 1.369 . S
C875 C877 1.327 . S
C875 H898 0.950 . S
C876 C875 1.369 . S
C876 C888 1.341 1_565 S
C877 C875 1.327 . S
C877 C893 1.439 . S
C877 H899 0.950 . S
C878 H874 0.949 . S
C878 C886 1.574 . S
C878 C894 1.351 1_545 S
H879 C887 0.950 . S
H880 C885 0.950 . S
H881 C886 0.949 . S
H882 C888 0.950 . S
H883 C889 0.950 . S
H884 C890 0.949 . S
C885 H880 0.950 . S
C885 C887 1.327 . S
C885 C891 1.481 . S
C886 C878 1.574 . S
C886 H881 0.949 . S
C886 C892 1.325 1_545 S
C887 C871 1.375 . S
C887 H879 0.950 . S
C887 C885 1.327 . S
C888 C876 1.341 1_545 S
C888 H882 0.950 . S
C888 C889 1.327 . S
C889 H883 0.950 . S
C889 C888 1.327 . S
C889 C893 1.399 1_545 S
C890 C873 1.574 . S
C890 H884 0.949 . S
C890 C894 1.404 . S
C891 C872 1.413 1_565 S
C891 C885 1.481 . S
C891 C892 1.520 . S
C892 C873 1.392 . S
C892 C886 1.325 1_565 S
C892 C891 1.520 . S
C893 C877 1.439 . S
C893 C889 1.399 1_565 S
C893 C894 1.520 . S
C894 C878 1.351 1_565 S
C894 C890 1.404 . S
C894 C893 1.520 . S
H895 C870 0.950 . S
H896 C872 0.950 . S
H897 C873 0.949 . S
H898 C875 0.950 . S
H899 C877 0.950 . S
C900 C901 1.349 1_565 S
C900 C902 1.327 . S
C900 H925 0.950 . S
C901 C900 1.349 1_545 S
C901 C917 1.349 . S
C902 C900 1.327 . S
C902 C921 1.429 1_565 S
C902 H926 0.950 . S
C903 C920 1.574 . S
C903 C922 1.368 . S
C903 H927 0.949 . S
H904 C908 0.949 . S
C905 C906 1.369 . S
C905 C907 1.327 . S
C905 H928 0.950 . S
C906 C905 1.369 . S
C906 C918 1.317 1_545 S
C907 C905 1.327 . S
C907 C923 1.505 . S
C907 H929 0.950 . S
C908 H904 0.949 . S
C908 C916 1.574 . S
C908 C924 1.368 1_565 S
H909 C917 0.950 . S
H910 C915 0.950 . S
H911 C916 0.949 . S
H912 C918 0.950 . S
H913 C919 0.950 . S
H914 C920 0.949 . S
C915 H910 0.950 . S
C915 C917 1.327 . S
C915 C921 1.429 . S
C916 C908 1.574 . S
C916 H911 0.949 . S
C916 C922 1.368 1_565 S
C917 C901 1.349 . S
C917 H909 0.950 . S
C917 C915 1.327 . S
C918 C906 1.317 1_565 S
C918 H912 0.950 . S
C918 C919 1.327 . S
C919 H913 0.950 . S
C919 C918 1.327 . S
C919 C923 1.386 1_565 S
C920 C903 1.574 . S
C920 H914 0.949 . S
C920 C924 1.368 . S
C921 C902 1.429 1_545 S
C921 C915 1.429 . S
C921 C922 1.523 . S
C922 C903 1.368 . S
C922 C916 1.368 1_545 S
C922 C921 1.523 . S
C923 C907 1.505 . S
C923 C919 1.386 1_545 S
C923 C924 1.495 . S
C924 C908 1.368 1_545 S
C924 C920 1.368 . S
C924 C923 1.495 . S
H925 C900 0.950 . S
H926 C902 0.950 . S
H927 C903 0.949 . S
H928 C905 0.950 . S
H929 C907 0.950 . S
C930 C931 1.365 . S
C930 C932 1.327 . S
C930 H955 0.950 . S
C931 C930 1.365 . S
C931 C947 1.318 1_655 S
C932 C930 1.327 . S
C932 C951 1.459 . S
C932 H956 0.950 . S
C933 C950 1.574 . S
C933 C952 1.338 1_455 S
C933 H957 0.949 . S
H934 C938 0.949 . S
C935 C936 1.334 1_455 S
C935 C937 1.327 . S
C935 H958 0.950 . S
C936 C935 1.334 1_655 S
C936 C948 1.379 . S
C937 C935 1.327 . S
C937 C953 1.399 1_455 S
C937 H959 0.950 . S
C938 H934 0.949 . S
C938 C946 1.574 . S
C938 C954 1.399 . S
H939 C947 0.950 . S
H940 C945 0.950 . S
H941 C946 0.949 . S
H942 C948 0.950 . S
H943 C949 0.950 . S
H944 C950 0.949 . S
C945 H940 0.950 . S
C945 C947 1.327 . S
C945 C951 1.415 1_455 S
C946 C938 1.574 . S
C946 H941 0.949 . S
C946 C952 1.387 . S
C947 C931 1.318 1_455 S
C947 H939 0.950 . S
C947 C945 1.327 . S
C948 C936 1.379 . S
C948 H942 0.950 . S
C948 C949 1.327 . S
C949 H943 0.950 . S
C949 C948 1.327 . S
C949 C953 1.443 . S
C950 C933 1.574 . S
C950 H944 0.949 . S
C950 C954 1.350 1_455 S
C951 C932 1.459 . S
C951 C945 1.415 1_655 S
C951 C952 1.523 . S
C952 C933 1.338 1_655 S
C952 C946 1.387 . S
C952 C951 1.523 . S
C953 C937 1.399 1_655 S
C953 C949 1.443 . S
C953 C954 1.523 . S
C954 C938 1.399 . S
C954 C950 1.350 1_655 S
C954 C953 1.523 . S
H955 C930 0.950 . S
H956 C932 0.950 . S
H957 C933 0.949 . S
H958 C935 0.950 . S
H959 C937 0.950 . S
C960 C961 1.349 . S
C960 C962 1.327 . S
C960 H985 0.950 . S
C961 C960 1.349 . S
C961 C977 1.349 . S
C962 C960 1.327 . S
C962 C981 1.429 . S
C962 H986 0.950 . S
C963 C980 1.574 . S
C963 C982 1.368 . S
C963 H987 0.949 . S
H964 C968 0.949 . S
C965 C966 1.349 . S
C965 C967 1.327 . S
C965 H988 0.950 . S
C966 C965 1.349 . S
C966 C978 1.349 . S
C967 C965 1.327 . S
C967 C983 1.429 . S
C967 H989 0.950 . S
C968 H964 0.949 . S
C968 C976 1.574 . S
C968 C984 1.368 . S
H969 C977 0.950 . S
H970 C975 0.950 . S
H971 C976 0.949 . S
H972 C978 0.950 . S
H973 C979 0.950 . S
H974 C980 0.949 . S
C975 H970 0.950 . S
C975 C977 1.327 . S
C975 C981 1.429 . S
C976 C968 1.574 . S
C976 H971 0.949 . S
C976 C982 1.368 . S
C977 C961 1.349 . S
C977 H969 0.950 . S
C977 C975 1.327 . S
C978 C966 1.349 . S
C978 H972 0.950 . S
C978 C979 1.327 . S
C979 H973 0.950 . S
C979 C978 1.327 . S
C979 C983 1.429 . S
C980 C963 1.574 . S
C980 H974 0.949 . S
C980 C984 1.368 . S
C981 C962 1.429 . S
C981 C975 1.429 . S
C981 C982 1.523 . S
C982 C963 1.368 . S
C982 C976 1.368 . S
C982 C981 1.523 . S
C983 C967 1.429 . S
C983 C979 1.429 . S
C983 C984 1.523 . S
C984 C968 1.368 . S
C984 C980 1.368 . S
C984 C983 1.523 . S
H985 C960 0.950 . S
H986 C962 0.950 . S
H987 C963 0.949 . S
H988 C965 0.950 . S
H989 C967 0.950 . S
C990 C991 1.349 . S
C990 C992 1.327 . S
C990 H1015 0.950 . S
C991 C990 1.349 . S
C991 C1007 1.349 . S
C992 C990 1.327 . S
C992 C1011 1.429 . S
C992 H1016 0.950 . S
C993 C1010 1.574 . S
C993 C1012 1.368 . S
C993 H1017 0.949 . S
H994 C998 0.949 . S
C995 C996 1.349 . S
C995 C997 1.327 . S
C995 H1018 0.950 . S
C996 C995 1.349 . S
C996 C1008 1.349 . S
C997 C995 1.327 . S
C997 C1013 1.429 . S
C997 H1019 0.950 . S
C998 H994 0.949 . S
C998 C1006 1.574 . S
C998 C1014 1.368 . S
H999 C1007 0.950 . S
H1000 C1005 0.950 . S
H1001 C1006 0.949 . S
H1002 C1008 0.950 . S
H1003 C1009 0.950 . S
H1004 C1010 0.949 . S
C1005 H1000 0.950 . S
C1005 C1007 1.327 . S
C1005 C1011 1.429 . S
C1006 C998 1.574 . S
C1006 H1001 0.949 . S
C1006 C1012 1.368 . S
C1007 C991 1.349 . S
C1007 H999 0.950 . S
C1007 C1005 1.327 . S
C1008 C996 1.349 . S
C1008 H1002 0.950 . S
C1008 C1009 1.327 . S
C1009 H1003 0.950 . S
C1009 C1008 1.327 . S
C1009 C1013 1.429 . S
C1010 C993 1.574 . S
C1010 H1004 0.949 . S
C1010 C1014 1.368 . S
C1011 C992 1.429 . S
C1011 C1005 1.429 . S
C1011 C1012 1.523 . S
C1012 C993 1.368 . S
C1012 C1006 1.368 . S
C1012 C1011 1.523 . S
C1013 C997 1.429 . S
C1013 C1009 1.429 . S
C1013 C1014 1.523 . S
C1014 C998 1.368 . S
C1014 C1010 1.368 . S
C1014 C1013 1.523 . S
H1015 C990 0.950 . S
H1016 C992 0.950 . S
H1017 C993 0.949 . S
H1018 C995 0.950 . S
H1019 C997 0.950 . S
C1020 C1021 1.349 . S
C1020 C1022 1.327 . S
C1020 H1045 0.950 . S
C1021 C1020 1.349 . S
C1021 C1037 1.349 . S
C1022 C1020 1.327 . S
C1022 C1041 1.429 . S
C1022 H1046 0.950 . S
C1023 C1040 1.574 . S
C1023 C1042 1.368 . S
C1023 H1047 0.949 . S
H1024 C1028 0.949 . S
C1025 C1026 1.349 . S
C1025 C1027 1.327 . S
C1025 H1048 0.950 . S
C1026 C1025 1.349 . S
C1026 C1038 1.349 . S
C1027 C1025 1.327 . S
C1027 C1043 1.429 . S
C1027 H1049 0.950 . S
C1028 H1024 0.949 . S
C1028 C1036 1.574 . S
C1028 C1044 1.368 . S
H1029 C1037 0.950 . S
H1030 C1035 0.950 . S
H1031 C1036 0.949 . S
H1032 C1038 0.950 . S
H1033 C1039 0.950 . S
H1034 C1040 0.949 . S
C1035 H1030 0.950 . S
C1035 C1037 1.327 . S
C1035 C1041 1.429 . S
C1036 C1028 1.574 . S
C1036 H1031 0.949 . S
C1036 C1042 1.368 . S
C1037 C1021 1.349 . S
C1037 H1029 0.950 . S
C1037 C1035 1.327 . S
C1038 C1026 1.349 . S
C1038 H1032 0.950 . S
C1038 C1039 1.327 . S
C1039 H1033 0.950 . S
C1039 C1038 1.327 . S
C1039 C1043 1.429 . S
C1040 C1023 1.574 . S
C1040 H1034 0.949 . S
C1040 C1044 1.368 . S
C1041 C1022 1.429 . S
C1041 C1035 1.429 . S
C1041 C1042 1.523 . S
C1042 C1023 1.368 . S
C1042 C1036 1.368 . S
C1042 C1041 1.523 . S
C1043 C1027 1.429 . S
C1043 C1039 1.429 . S
C1043 C1044 1.523 . S
C1044 C1028 1.368 . S
C1044 C1040 1.368 . S
C1044 C1043 1.523 . S
H1045 C1020 0.950 . S
H1046 C1022 0.950 . S
H1047 C1023 0.949 . S
H1048 C1025 0.950 . S
H1049 C1027 0.950 . S
C1050 C1051 1.349 . S
C1050 C1052 1.327 . S
C1050 H1075 0.950 . S
C1051 C1050 1.349 . S
C1051 C1067 1.349 . S
C1052 C1050 1.327 . S
C1052 C1071 1.429 . S
C1052 H1076 0.950 . S
C1053 C1070 1.574 . S
C1053 C1072 1.368 . S
C1053 H1077 0.949 . S
H1054 C1058 0.949 . S
C1055 C1056 1.349 . S
C1055 C1057 1.327 . S
C1055 H1078 0.950 . S
C1056 C1055 1.349 . S
C1056 C1068 1.349 . S
C1057 C1055 1.327 . S
C1057 C1073 1.429 . S
C1057 H1079 0.950 . S
C1058 H1054 0.949 . S
C1058 C1066 1.574 . S
C1058 C1074 1.368 . S
H1059 C1067 0.950 . S
H1060 C1065 0.950 . S
H1061 C1066 0.949 . S
H1062 C1068 0.950 . S
H1063 C1069 0.950 . S
H1064 C1070 0.949 . S
C1065 H1060 0.950 . S
C1065 C1067 1.327 . S
C1065 C1071 1.429 . S
C1066 C1058 1.574 . S
C1066 H1061 0.949 . S
C1066 C1072 1.368 . S
C1067 C1051 1.349 . S
C1067 H1059 0.950 . S
C1067 C1065 1.327 . S
C1068 C1056 1.349 . S
C1068 H1062 0.950 . S
C1068 C1069 1.327 . S
C1069 H1063 0.950 . S
C1069 C1068 1.327 . S
C1069 C1073 1.429 . S
C1070 C1053 1.574 . S
C1070 H1064 0.949 . S
C1070 C1074 1.368 . S
C1071 C1052 1.429 . S
C1071 C1065 1.429 . S
C1071 C1072 1.523 . S
C1072 C1053 1.368 . S
C1072 C1066 1.368 . S
C1072 C1071 1.523 . S
C1073 C1057 1.429 . S
C1073 C1069 1.429 . S
C1073 C1074 1.523 . S
C1074 C1058 1.368 . S
C1074 C1070 1.368 . S
C1074 C1073 1.523 . S
H1075 C1050 0.950 . S
H1076 C1052 0.950 . S
H1077 C1053 0.949 . S
H1078 C1055 0.950 . S
H1079 C1057 0.950 . S
C1080 C1081 1.349 . S
C1080 C1082 1.327 . S
C1080 H1105 0.950 . S
C1081 C1080 1.349 . S
C1081 C1097 1.349 . S
C1082 C1080 1.327 . S
C1082 C1101 1.429 . S
C1082 H1106 0.950 . S
C1083 C1100 1.574 . S
C1083 C1102 1.368 . S
C1083 H1107 0.949 . S
H1084 C1088 0.949 . S
C1085 C1086 1.349 . S
C1085 C1087 1.327 . S
C1085 H1108 0.950 . S
C1086 C1085 1.349 . S
C1086 C1098 1.349 . S
C1087 C1085 1.327 . S
C1087 C1103 1.429 . S
C1087 H1109 0.950 . S
C1088 H1084 0.949 . S
C1088 C1096 1.574 . S
C1088 C1104 1.368 . S
H1089 C1097 0.950 . S
H1090 C1095 0.950 . S
H1091 C1096 0.949 . S
H1092 C1098 0.950 . S
H1093 C1099 0.950 . S
H1094 C1100 0.949 . S
C1095 H1090 0.950 . S
C1095 C1097 1.327 . S
C1095 C1101 1.429 . S
C1096 C1088 1.574 . S
C1096 H1091 0.949 . S
C1096 C1102 1.368 . S
C1097 C1081 1.349 . S
C1097 H1089 0.950 . S
C1097 C1095 1.327 . S
C1098 C1086 1.349 . S
C1098 H1092 0.950 . S
C1098 C1099 1.327 . S
C1099 H1093 0.950 . S
C1099 C1098 1.327 . S
C1099 C1103 1.429 . S
C1100 C1083 1.574 . S
C1100 H1094 0.949 . S
C1100 C1104 1.368 . S
C1101 C1082 1.429 . S
C1101 C1095 1.429 . S
C1101 C1102 1.523 . S
C1102 C1083 1.368 . S
C1102 C1096 1.368 . S
C1102 C1101 1.523 . S
C1103 C1087 1.429 . S
C1103 C1099 1.429 . S
C1103 C1104 1.523 . S
C1104 C1088 1.368 . S
C1104 C1100 1.368 . S
C1104 C1103 1.523 . S
H1105 C1080 0.950 . S
H1106 C1082 0.950 . S
H1107 C1083 0.949 . S
H1108 C1085 0.950 . S
H1109 C1087 0.950 . S
C1110 C1111 1.349 . S
C1110 C1112 1.327 . S
C1110 H1135 0.950 . S
C1111 C1110 1.349 . S
C1111 C1127 1.349 . S
C1112 C1110 1.327 . S
C1112 C1131 1.429 . S
C1112 H1136 0.950 . S
C1113 C1130 1.574 . S
C1113 C1132 1.368 . S
C1113 H1137 0.949 . S
H1114 C1118 0.949 . S
C1115 C1116 1.349 . S
C1115 C1117 1.327 . S
C1115 H1138 0.950 . S
C1116 C1115 1.349 . S
C1116 C1128 1.349 . S
C1117 C1115 1.327 . S
C1117 C1133 1.429 . S
C1117 H1139 0.950 . S
C1118 H1114 0.949 . S
C1118 C1126 1.574 . S
C1118 C1134 1.368 . S
H1119 C1127 0.950 . S
H1120 C1125 0.950 . S
H1121 C1126 0.949 . S
H1122 C1128 0.950 . S
H1123 C1129 0.950 . S
H1124 C1130 0.949 . S
C1125 H1120 0.950 . S
C1125 C1127 1.327 . S
C1125 C1131 1.429 . S
C1126 C1118 1.574 . S
C1126 H1121 0.949 . S
C1126 C1132 1.368 . S
C1127 C1111 1.349 . S
C1127 H1119 0.950 . S
C1127 C1125 1.327 . S
C1128 C1116 1.349 . S
C1128 H1122 0.950 . S
C1128 C1129 1.327 . S
C1129 H1123 0.950 . S
C1129 C1128 1.327 . S
C1129 C1133 1.429 . S
C1130 C1113 1.574 . S
C1130 H1124 0.949 . S
C1130 C1134 1.368 . S
C1131 C1112 1.429 . S
C1131 C1125 1.429 . S
C1131 C1132 1.523 . S
C1132 C1113 1.368 . S
C1132 C1126 1.368 . S
C1132 C1131 1.523 . S
C1133 C1117 1.429 . S
C1133 C1129 1.429 . S
C1133 C1134 1.523 . S
C1134 C1118 1.368 . S
C1134 C1130 1.368 . S
C1134 C1133 1.523 . S
H1135 C1110 0.950 . S
H1136 C1112 0.950 . S
H1137 C1113 0.949 . S
H1138 C1115 0.950 . S
H1139 C1117 0.950 . S
C1140 C1141 1.349 . S
C1140 C1142 1.327 . S
C1140 H1165 0.950 . S
C1141 C1140 1.349 . S
C1141 C1157 1.349 . S
C1142 C1140 1.327 . S
C1142 C1161 1.429 . S
C1142 H1166 0.950 . S
C1143 C1160 1.574 . S
C1143 C1162 1.368 . S
C1143 H1167 0.949 . S
H1144 C1148 0.949 . S
C1145 C1146 1.349 . S
C1145 C1147 1.327 . S
C1145 H1168 0.950 . S
C1146 C1145 1.349 . S
C1146 C1158 1.349 . S
C1147 C1145 1.327 . S
C1147 C1163 1.429 . S
C1147 H1169 0.950 . S
C1148 H1144 0.949 . S
C1148 C1156 1.574 . S
C1148 C1164 1.368 . S
H1149 C1157 0.950 . S
H1150 C1155 0.950 . S
H1151 C1156 0.949 . S
H1152 C1158 0.950 . S
H1153 C1159 0.950 . S
H1154 C1160 0.949 . S
C1155 H1150 0.950 . S
C1155 C1157 1.327 . S
C1155 C1161 1.429 . S
C1156 C1148 1.574 . S
C1156 H1151 0.949 . S
C1156 C1162 1.368 . S
C1157 C1141 1.349 . S
C1157 H1149 0.950 . S
C1157 C1155 1.327 . S
C1158 C1146 1.349 . S
C1158 H1152 0.950 . S
C1158 C1159 1.327 . S
C1159 H1153 0.950 . S
C1159 C1158 1.327 . S
C1159 C1163 1.429 . S
C1160 C1143 1.574 . S
C1160 H1154 0.949 . S
C1160 C1164 1.368 . S
C1161 C1142 1.429 . S
C1161 C1155 1.429 . S
C1161 C1162 1.523 . S
C1162 C1143 1.368 . S
C1162 C1156 1.368 . S
C1162 C1161 1.523 . S
C1163 C1147 1.429 . S
C1163 C1159 1.429 . S
C1163 C1164 1.523 . S
C1164 C1148 1.368 . S
C1164 C1160 1.368 . S
C1164 C1163 1.523 . S
H1165 C1140 0.950 . S
H1166 C1142 0.950 . S
H1167 C1143 0.949 . S
H1168 C1145 0.950 . S
H1169 C1147 0.950 . S
C1170 C1171 1.349 . S
C1170 C1172 1.327 . S
C1170 H1195 0.950 . S
C1171 C1170 1.349 . S
C1171 C1187 1.349 . S
C1172 C1170 1.327 . S
C1172 C1191 1.429 . S
C1172 H1196 0.950 . S
C1173 C1190 1.574 . S
C1173 C1192 1.368 . S
C1173 H1197 0.949 . S
H1174 C1178 0.949 . S
C1175 C1176 1.349 . S
C1175 C1177 1.327 . S
C1175 H1198 0.950 . S
C1176 C1175 1.349 . S
C1176 C1188 1.349 . S
C1177 C1175 1.327 . S
C1177 C1193 1.429 . S
C1177 H1199 0.950 . S
C1178 H1174 0.949 . S
C1178 C1186 1.574 . S
C1178 C1194 1.368 . S
H1179 C1187 0.950 . S
H1180 C1185 0.950 . S
H1181 C1186 0.949 . S
H1182 C1188 0.950 . S
H1183 C1189 0.950 . S
H1184 C1190 0.949 . S
C1185 H1180 0.950 . S
C1185 C1187 1.327 . S
C1185 C1191 1.429 . S
C1186 C1178 1.574 . S
C1186 H1181 0.949 . S
C1186 C1192 1.368 . S
C1187 C1171 1.349 . S
C1187 H1179 0.950 . S
C1187 C1185 1.327 . S
C1188 C1176 1.349 . S
C1188 H1182 0.950 . S
C1188 C1189 1.327 . S
C1189 H1183 0.950 . S
C1189 C1188 1.327 . S
C1189 C1193 1.429 . S
C1190 C1173 1.574 . S
C1190 H1184 0.949 . S
C1190 C1194 1.368 . S
C1191 C1172 1.429 . S
C1191 C1185 1.429 . S
C1191 C1192 1.523 . S
C1192 C1173 1.368 . S
C1192 C1186 1.368 . S
C1192 C1191 1.523 . S
C1193 C1177 1.429 . S
C1193 C1189 1.429 . S
C1193 C1194 1.523 . S
C1194 C1178 1.368 . S
C1194 C1190 1.368 . S
C1194 C1193 1.523 . S
H1195 C1170 0.950 . S
H1196 C1172 0.950 . S
H1197 C1173 0.949 . S
H1198 C1175 0.950 . S
H1199 C1177 0.950 . S
C1200 C1201 1.349 . S
C1200 C1202 1.327 . S
C1200 H1225 0.950 . S
C1201 C1200 1.349 . S
C1201 C1217 1.349 . S
C1202 C1200 1.327 . S
C1202 C1221 1.429 . S
C1202 H1226 0.950 . S
C1203 C1220 1.574 . S
C1203 C1222 1.368 . S
C1203 H1227 0.949 . S
H1204 C1208 0.949 . S
C1205 C1206 1.349 . S
C1205 C1207 1.327 . S
C1205 H1228 0.950 . S
C1206 C1205 1.349 . S
C1206 C1218 1.349 . S
C1207 C1205 1.327 . S
C1207 C1223 1.429 . S
C1207 H1229 0.950 . S
C1208 H1204 0.949 . S
C1208 C1216 1.574 . S
C1208 C1224 1.368 . S
H1209 C1217 0.950 . S
H1210 C1215 0.950 . S
H1211 C1216 0.949 . S
H1212 C1218 0.950 . S
H1213 C1219 0.950 . S
H1214 C1220 0.949 . S
C1215 H1210 0.950 . S
C1215 C1217 1.327 . S
C1215 C1221 1.429 . S
C1216 C1208 1.574 . S
C1216 H1211 0.949 . S
C1216 C1222 1.368 . S
C1217 C1201 1.349 . S
C1217 H1209 0.950 . S
C1217 C1215 1.327 . S
C1218 C1206 1.349 . S
C1218 H1212 0.950 . S
C1218 C1219 1.327 . S
C1219 H1213 0.950 . S
C1219 C1218 1.327 . S
C1219 C1223 1.429 . S
C1220 C1203 1.574 . S
C1220 H1214 0.949 . S
C1220 C1224 1.368 . S
C1221 C1202 1.429 . S
C1221 C1215 1.429 . S
C1221 C1222 1.523 . S
C1222 C1203 1.368 . S
C1222 C1216 1.368 . S
C1222 C1221 1.523 . S
C1223 C1207 1.429 . S
C1223 C1219 1.429 . S
C1223 C1224 1.523 . S
C1224 C1208 1.368 . S
C1224 C1220 1.368 . S
C1224 C1223 1.523 . S
H1225 C1200 0.950 . S
H1226 C1202 0.950 . S
H1227 C1203 0.949 . S
H1228 C1205 0.950 . S
H1229 C1207 0.950 . S
C1230 C1231 1.349 . S
C1230 C1232 1.327 . S
C1230 H1255 0.950 . S
C1231 C1230 1.349 . S
C1231 C1247 1.349 . S
C1232 C1230 1.327 . S
C1232 C1251 1.429 . S
C1232 H1256 0.950 . S
C1233 C1250 1.574 . S
C1233 C1252 1.368 . S
C1233 H1257 0.949 . S
H1234 C1238 0.949 . S
C1235 C1236 1.349 . S
C1235 C1237 1.327 . S
C1235 H1258 0.950 . S
C1236 C1235 1.349 . S
C1236 C1248 1.349 . S
C1237 C1235 1.327 . S
C1237 C1253 1.429 . S
C1237 H1259 0.950 . S
C1238 H1234 0.949 . S
C1238 C1246 1.574 . S
C1238 C1254 1.368 . S
H1239 C1247 0.950 . S
H1240 C1245 0.950 . S
H1241 C1246 0.949 . S
H1242 C1248 0.950 . S
H1243 C1249 0.950 . S
H1244 C1250 0.949 . S
C1245 H1240 0.950 . S
C1245 C1247 1.327 . S
C1245 C1251 1.429 . S
C1246 C1238 1.574 . S
C1246 H1241 0.949 . S
C1246 C1252 1.368 . S
C1247 C1231 1.349 . S
C1247 H1239 0.950 . S
C1247 C1245 1.327 . S
C1248 C1236 1.349 . S
C1248 H1242 0.950 . S
C1248 C1249 1.327 . S
C1249 H1243 0.950 . S
C1249 C1248 1.327 . S
C1249 C1253 1.429 . S
C1250 C1233 1.574 . S
C1250 H1244 0.949 . S
C1250 C1254 1.368 . S
C1251 C1232 1.429 . S
C1251 C1245 1.429 . S
C1251 C1252 1.523 . S
C1252 C1233 1.368 . S
C1252 C1246 1.368 . S
C1252 C1251 1.523 . S
C1253 C1237 1.429 . S
C1253 C1249 1.429 . S
C1253 C1254 1.523 . S
C1254 C1238 1.368 . S
C1254 C1250 1.368 . S
C1254 C1253 1.523 . S
H1255 C1230 0.950 . S
H1256 C1232 0.950 . S
H1257 C1233 0.949 . S
H1258 C1235 0.950 . S
H1259 C1237 0.950 . S
C1260 C1261 1.349 . S
C1260 C1262 1.327 . S
C1260 H1285 0.950 . S
C1261 C1260 1.349 . S
C1261 C1277 1.349 . S
C1262 C1260 1.327 . S
C1262 C1281 1.429 . S
C1262 H1286 0.950 . S
C1263 C1280 1.574 . S
C1263 C1282 1.368 . S
C1263 H1287 0.949 . S
H1264 C1268 0.949 . S
C1265 C1266 1.349 . S
C1265 C1267 1.327 . S
C1265 H1288 0.950 . S
C1266 C1265 1.349 . S
C1266 C1278 1.349 . S
C1267 C1265 1.327 . S
C1267 C1283 1.429 . S
C1267 H1289 0.950 . S
C1268 H1264 0.949 . S
C1268 C1276 1.574 . S
C1268 C1284 1.368 . S
H1269 C1277 0.950 . S
H1270 C1275 0.950 . S
H1271 C1276 0.949 . S
H1272 C1278 0.950 . S
H1273 C1279 0.950 . S
H1274 C1280 0.949 . S
C1275 H1270 0.950 . S
C1275 C1277 1.327 . S
C1275 C1281 1.429 . S
C1276 C1268 1.574 . S
C1276 H1271 0.949 . S
C1276 C1282 1.368 . S
C1277 C1261 1.349 . S
C1277 H1269 0.950 . S
C1277 C1275 1.327 . S
C1278 C1266 1.349 . S
C1278 H1272 0.950 . S
C1278 C1279 1.327 . S
C1279 H1273 0.950 . S
C1279 C1278 1.327 . S
C1279 C1283 1.429 . S
C1280 C1263 1.574 . S
C1280 H1274 0.949 . S
C1280 C1284 1.368 . S
C1281 C1262 1.429 . S
C1281 C1275 1.429 . S
C1281 C1282 1.523 . S
C1282 C1263 1.368 . S
C1282 C1276 1.368 . S
C1282 C1281 1.523 . S
C1283 C1267 1.429 . S
C1283 C1279 1.429 . S
C1283 C1284 1.523 . S
C1284 C1268 1.368 . S
C1284 C1280 1.368 . S
C1284 C1283 1.523 . S
H1285 C1260 0.950 . S
H1286 C1262 0.950 . S
H1287 C1263 0.949 . S
H1288 C1265 0.950 . S
H1289 C1267 0.950 . S
C1290 C1291 1.349 . S
C1290 C1292 1.327 . S
C1290 H1315 0.950 . S
C1291 C1290 1.349 . S
C1291 C1307 1.349 . S
C1292 C1290 1.327 . S
C1292 C1311 1.429 . S
C1292 H1316 0.950 . S
C1293 C1310 1.574 . S
C1293 C1312 1.368 . S
C1293 H1317 0.949 . S
H1294 C1298 0.949 . S
C1295 C1296 1.349 . S
C1295 C1297 1.327 . S
C1295 H1318 0.950 . S
C1296 C1295 1.349 . S
C1296 C1308 1.349 . S
C1297 C1295 1.327 . S
C1297 C1313 1.429 . S
C1297 H1319 0.950 . S
C1298 H1294 0.949 . S
C1298 C1306 1.574 . S
C1298 C1314 1.368 . S
H1299 C1307 0.950 . S
H1300 C1305 0.950 . S
H1301 C1306 0.949 . S
H1302 C1308 0.950 . S
H1303 C1309 0.950 . S
H1304 C1310 0.949 . S
C1305 H1300 0.950 . S
C1305 C1307 1.327 . S
C1305 C1311 1.429 . S
C1306 C1298 1.574 . S
C1306 H1301 0.949 . S
C1306 C1312 1.368 . S
C1307 C1291 1.349 . S
C1307 H1299 0.950 . S
C1307 C1305 1.327 . S
C1308 C1296 1.349 . S
C1308 H1302 0.950 . S
C1308 C1309 1.327 . S
C1309 H1303 0.950 . S
C1309 C1308 1.327 . S
C1309 C1313 1.429 . S
C1310 C1293 1.574 . S
C1310 H1304 0.949 . S
C1310 C1314 1.368 . S
C1311 C1292 1.429 . S
C1311 C1305 1.429 . S
C1311 C1312 1.523 . S
C1312 C1293 1.368 . S
C1312 C1306 1.368 . S
C1312 C1311 1.523 . S
C1313 C1297 1.429 . S
C1313 C1309 1.429 . S
C1313 C1314 1.523 . S
C1314 C1298 1.368 . S
C1314 C1310 1.368 . S
C1314 C1313 1.523 . S
H1315 C1290 0.950 . S
H1316 C1292 0.950 . S
H1317 C1293 0.949 . S
H1318 C1295 0.950 . S
H1319 C1297 0.950 . S
C1320 C1321 1.349 . S
C1320 C1322 1.327 . S
C1320 H1345 0.950 . S
C1321 C1320 1.349 . S
C1321 C1337 1.349 . S
C1322 C1320 1.327 . S
C1322 C1341 1.429 . S
C1322 H1346 0.950 . S
C1323 C1340 1.574 . S
C1323 C1342 1.368 . S
C1323 H1347 0.949 . S
H1324 C1328 0.949 . S
C1325 C1326 1.349 . S
C1325 C1327 1.327 . S
C1325 H1348 0.950 . S
C1326 C1325 1.349 . S
C1326 C1338 1.349 . S
C1327 C1325 1.327 . S
C1327 C1343 1.429 . S
C1327 H1349 0.950 . S
C1328 H1324 0.949 . S
C1328 C1336 1.574 . S
C1328 C1344 1.368 . S
H1329 C1337 0.950 . S
H1330 C1335 0.950 . S
H1331 C1336 0.949 . S
H1332 C1338 0.950 . S
H1333 C1339 0.950 . S
H1334 C1340 0.949 . S
C1335 H1330 0.950 . S
C1335 C1337 1.327 . S
C1335 C1341 1.429 . S
C1336 C1328 1.574 . S
C1336 H1331 0.949 . S
C1336 C1342 1.368 . S
C1337 C1321 1.349 . S
C1337 H1329 0.950 . S
C1337 C1335 1.327 . S
C1338 C1326 1.349 . S
C1338 H1332 0.950 . S
C1338 C1339 1.327 . S
C1339 H1333 0.950 . S
C1339 C1338 1.327 . S
C1339 C1343 1.429 . S
C1340 C1323 1.574 . S
C1340 H1334 0.949 . S
C1340 C1344 1.368 . S
C1341 C1322 1.429 . S
C1341 C1335 1.429 . S
C1341 C1342 1.523 . S
C1342 C1323 1.368 . S
C1342 C1336 1.368 . S
C1342 C1341 1.523 . S
C1343 C1327 1.429 . S
C1343 C1339 1.429 . S
C1343 C1344 1.523 . S
C1344 C1328 1.368 . S
C1344 C1340 1.368 . S
C1344 C1343 1.523 . S
H1345 C1320 0.950 . S
H1346 C1322 0.950 . S
H1347 C1323 0.949 . S
H1348 C1325 0.950 . S
H1349 C1327 0.950 . S
C1350 C1351 1.349 . S
C1350 C1352 1.327 . S
C1350 H1375 0.950 . S
C1351 C1350 1.349 . S
C1351 C1367 1.349 . S
C1352 C1350 1.327 . S
C1352 C1371 1.429 . S
C1352 H1376 0.950 . S
C1353 C1370 1.574 . S
C1353 C1372 1.368 . S
C1353 H1377 0.949 . S
H1354 C1358 0.949 . S
C1355 C1356 1.349 . S
C1355 C1357 1.327 . S
C1355 H1378 0.950 . S
C1356 C1355 1.349 . S
C1356 C1368 1.349 . S
C1357 C1355 1.327 . S
C1357 C1373 1.429 . S
C1357 H1379 0.950 . S
C1358 H1354 0.949 . S
C1358 C1366 1.574 . S
C1358 C1374 1.368 . S
H1359 C1367 0.950 . S
H1360 C1365 0.950 . S
H1361 C1366 0.949 . S
H1362 C1368 0.950 . S
H1363 C1369 0.950 . S
H1364 C1370 0.949 . S
C1365 H1360 0.950 . S
C1365 C1367 1.327 . S
C1365 C1371 1.429 . S
C1366 C1358 1.574 . S
C1366 H1361 0.949 . S
C1366 C1372 1.368 . S
C1367 C1351 1.349 . S
C1367 H1359 0.950 . S
C1367 C1365 1.327 . S
C1368 C1356 1.349 . S
C1368 H1362 0.950 . S
C1368 C1369 1.327 . S
C1369 H1363 0.950 . S
C1369 C1368 1.327 . S
C1369 C1373 1.429 . S
C1370 C1353 1.574 . S
C1370 H1364 0.949 . S
C1370 C1374 1.368 . S
C1371 C1352 1.429 . S
C1371 C1365 1.429 . S
C1371 C1372 1.523 . S
C1372 C1353 1.368 . S
C1372 C1366 1.368 . S
C1372 C1371 1.523 . S
C1373 C1357 1.429 . S
C1373 C1369 1.429 . S
C1373 C1374 1.523 . S
C1374 C1358 1.368 . S
C1374 C1370 1.368 . S
C1374 C1373 1.523 . S
H1375 C1350 0.950 . S
H1376 C1352 0.950 . S
H1377 C1353 0.949 . S
H1378 C1355 0.950 . S
H1379 C1357 0.950 . S
C1380 C1381 1.349 . S
C1380 C1382 1.327 . S
C1380 H1405 0.950 . S
C1381 C1380 1.349 . S
C1381 C1397 1.349 . S
C1382 C1380 1.327 . S
C1382 C1401 1.429 . S
C1382 H1406 0.950 . S
C1383 C1400 1.574 . S
C1383 C1402 1.368 . S
C1383 H1407 0.949 . S
H1384 C1388 0.949 . S
C1385 C1386 1.349 . S
C1385 C1387 1.327 . S
C1385 H1408 0.950 . S
C1386 C1385 1.349 . S
C1386 C1398 1.349 . S
C1387 C1385 1.327 . S
C1387 C1403 1.429 . S
C1387 H1409 0.950 . S
C1388 H1384 0.949 . S
C1388 C1396 1.574 . S
C1388 C1404 1.368 . S
H1389 C1397 0.950 . S
H1390 C1395 0.950 . S
H1391 C1396 0.949 . S
H1392 C1398 0.950 . S
H1393 C1399 0.950 . S
H1394 C1400 0.949 . S
C1395 H1390 0.950 . S
C1395 C1397 1.327 . S
C1395 C1401 1.429 . S
C1396 C1388 1.574 . S
C1396 H1391 0.949 . S
C1396 C1402 1.368 . S
C1397 C1381 1.349 . S
C1397 H1389 0.950 . S
C1397 C1395 1.327 . S
C1398 C1386 1.349 . S
C1398 H1392 0.950 . S
C1398 C1399 1.327 . S
C1399 H1393 0.950 . S
C1399 C1398 1.327 . S
C1399 C1403 1.429 . S
C1400 C1383 1.574 . S
C1400 H1394 0.949 . S
C1400 C1404 1.368 . S
C1401 C1382 1.429 . S
C1401 C1395 1.429 . S
C1401 C1402 1.523 . S
C1402 C1383 1.368 . S
C1402 C1396 1.368 . S
C1402 C1401 1.523 . S
C1403 C1387 1.429 . S
C1403 C1399 1.429 . S
C1403 C1404 1.523 . S
C1404 C1388 1.368 . S
C1404 C1400 1.368 . S
C1404 C1403 1.523 . S
H1405 C1380 0.950 . S
H1406 C1382 0.950 . S
H1407 C1383 0.949 . S
H1408 C1385 0.950 . S
H1409 C1387 0.950 . S
C1410 C1411 1.349 . S
C1410 C1412 1.327 . S
C1410 H1435 0.950 . S
C1411 C1410 1.349 . S
C1411 C1427 1.349 . S
C1412 C1410 1.327 . S
C1412 C1431 1.429 . S
C1412 H1436 0.950 . S
C1413 C1430 1.574 . S
C1413 C1432 1.368 . S
C1413 H1437 0.949 . S
H1414 C1418 0.949 . S
C1415 C1416 1.349 . S
C1415 C1417 1.327 . S
C1415 H1438 0.950 . S
C1416 C1415 1.349 . S
C1416 C1428 1.349 . S
C1417 C1415 1.327 . S
C1417 C1433 1.429 . S
C1417 H1439 0.950 . S
C1418 H1414 0.949 . S
C1418 C1426 1.574 . S
C1418 C1434 1.368 . S
H1419 C1427 0.950 . S
H1420 C1425 0.950 . S
H1421 C1426 0.949 . S
H1422 C1428 0.950 . S
H1423 C1429 0.950 . S
H1424 C1430 0.949 . S
C1425 H1420 0.950 . S
C1425 C1427 1.327 . S
C1425 C1431 1.429 . S
C1426 C1418 1.574 . S
C1426 H1421 0.949 . S
C1426 C1432 1.368 . S
C1427 C1411 1.349 . S
C1427 H1419 0.950 . S
C1427 C1425 1.327 . S
C1428 C1416 1.349 . S
C1428 H1422 0.950 . S
C1428 C1429 1.327 . S
C1429 H1423 0.950 . S
C1429 C1428 1.327 . S
C1429 C1433 1.429 . S
C1430 C1413 1.574 . S
C1430 H1424 0.949 . S
C1430 C1434 1.368 . S
C1431 C1412 1.429 . S
C1431 C1425 1.429 . S
C1431 C1432 1.523 . S
C1432 C1413 1.368 . S
C1432 C1426 1.368 . S
C1432 C1431 1.523 . S
C1433 C1417 1.429 . S
C1433 C1429 1.429 . S
C1433 C1434 1.523 . S
C1434 C1418 1.368 . S
C1434 C1430 1.368 . S
C1434 C1433 1.523 . S
H1435 C1410 0.950 . S
H1436 C1412 0.950 . S
H1437 C1413 0.949 . S
H1438 C1415 0.950 . S
H1439 C1417 0.950 . S
C1440 C1441 1.349 . S
C1440 C1442 1.327 . S
C1440 H1465 0.950 . S
C1441 C1440 1.349 . S
C1441 C1457 1.349 . S
C1442 C1440 1.327 . S
C1442 C1461 1.429 . S
C1442 H1466 0.950 . S
C1443 C1460 1.574 . S
C1443 C1462 1.368 . S
C1443 H1467 0.949 . S
H1444 C1448 0.949 . S
C1445 C1446 1.349 . S
C1445 C1447 1.327 . S
C1445 H1468 0.950 . S
C1446 C1445 1.349 . S
C1446 C1458 1.349 . S
C1447 C1445 1.327 . S
C1447 C1463 1.429 . S
C1447 H1469 0.950 . S
C1448 H1444 0.949 . S
C1448 C1456 1.574 . S
C1448 C1464 1.368 . S
H1449 C1457 0.950 . S
H1450 C1455 0.950 . S
H1451 C1456 0.949 . S
H1452 C1458 0.950 . S
H1453 C1459 0.950 . S
H1454 C1460 0.949 . S
C1455 H1450 0.950 . S
C1455 C1457 1.327 . S
C1455 C1461 1.429 . S
C1456 C1448 1.574 . S
C1456 H1451 0.949 . S
C1456 C1462 1.368 . S
C1457 C1441 1.349 . S
C1457 H1449 0.950 . S
C1457 C1455 1.327 . S
C1458 C1446 1.349 . S
C1458 H1452 0.950 . S
C1458 C1459 1.327 . S
C1459 H1453 0.950 . S
C1459 C1458 1.327 . S
C1459 C1463 1.429 . S
C1460 C1443 1.574 . S
C1460 H1454 0.949 . S
C1460 C1464 1.368 . S
C1461 C1442 1.429 . S
C1461 C1455 1.429 . S
C1461 C1462 1.523 . S
C1462 C1443 1.368 . S
C1462 C1456 1.368 . S
C1462 C1461 1.523 . S
C1463 C1447 1.429 . S
C1463 C1459 1.429 . S
C1463 C1464 1.523 . S
C1464 C1448 1.368 . S
C1464 C1460 1.368 . S
C1464 C1463 1.523 . S
H1465 C1440 0.950 . S
H1466 C1442 0.950 . S
H1467 C1443 0.949 . S
H1468 C1445 0.950 . S
H1469 C1447 0.950 . S
C1470 C1471 1.349 . S
C1470 C1472 1.327 . S
C1470 H1495 0.950 . S
C1471 C1470 1.349 . S
C1471 C1487 1.349 . S
C1472 C1470 1.327 . S
C1472 C1491 1.429 . S
C1472 H1496 0.950 . S
C1473 C1490 1.574 . S
C1473 C1492 1.368 . S
C1473 H1497 0.949 . S
H1474 C1478 0.949 . S
C1475 C1476 1.349 . S
C1475 C1477 1.327 . S
C1475 H1498 0.950 . S
C1476 C1475 1.349 . S
C1476 C1488 1.349 . S
C1477 C1475 1.327 . S
C1477 C1493 1.429 . S
C1477 H1499 0.950 . S
C1478 H1474 0.949 . S
C1478 C1486 1.574 . S
C1478 C1494 1.368 . S
H1479 C1487 0.950 . S
H1480 C1485 0.950 . S
H1481 C1486 0.949 . S
H1482 C1488 0.950 . S
H1483 C1489 0.950 . S
H1484 C1490 0.949 . S
C1485 H1480 0.950 . S
C1485 C1487 1.327 . S
C1485 C1491 1.429 . S
C1486 C1478 1.574 . S
C1486 H1481 0.949 . S
C1486 C1492 1.368 . S
C1487 C1471 1.349 . S
C1487 H1479 0.950 . S
C1487 C1485 1.327 . S
C1488 C1476 1.349 . S
C1488 H1482 0.950 . S
C1488 C1489 1.327 . S
C1489 H1483 0.950 . S
C1489 C1488 1.327 . S
C1489 C1493 1.429 . S
C1490 C1473 1.574 . S
C1490 H1484 0.949 . S
C1490 C1494 1.368 . S
C1491 C1472 1.429 . S
C1491 C1485 1.429 . S
C1491 C1492 1.523 . S
C1492 C1473 1.368 . S
C1492 C1486 1.368 . S
C1492 C1491 1.523 . S
C1493 C1477 1.429 . S
C1493 C1489 1.429 . S
C1493 C1494 1.523 . S
C1494 C1478 1.368 . S
C1494 C1490 1.368 . S
C1494 C1493 1.523 . S
H1495 C1470 0.950 . S
H1496 C1472 0.950 . S
H1497 C1473 0.949 . S
H1498 C1475 0.950 . S
H1499 C1477 0.950 . S
C1500 C1501 1.349 . S
C1500 C1502 1.327 . S
C1500 H1525 0.950 . S
C1501 C1500 1.349 . S
C1501 C1517 1.349 . S
C1502 C1500 1.327 . S
C1502 C1521 1.429 . S
C1502 H1526 0.950 . S
C1503 C1520 1.574 . S
C1503 C1522 1.368 . S
C1503 H1527 0.949 . S
H1504 C1508 0.949 . S
C1505 C1506 1.349 . S
C1505 C1507 1.327 . S
C1505 H1528 0.950 . S
C1506 C1505 1.349 . S
C1506 C1518 1.349 . S
C1507 C1505 1.327 . S
C1507 C1523 1.429 . S
C1507 H1529 0.950 . S
C1508 H1504 0.949 . S
C1508 C1516 1.574 . S
C1508 C1524 1.368 . S
H1509 C1517 0.950 . S
H1510 C1515 0.950 . S
H1511 C1516 0.949 . S
H1512 C1518 0.950 . S
H1513 C1519 0.950 . S
H1514 C1520 0.949 . S
C1515 H1510 0.950 . S
C1515 C1517 1.327 . S
C1515 C1521 1.429 . S
C1516 C1508 1.574 . S
C1516 H1511 0.949 . S
C1516 C1522 1.368 . S
C1517 C1501 1.349 . S
C1517 H1509 0.950 . S
C1517 C1515 1.327 . S
C1518 C1506 1.349 . S
C1518 H1512 0.950 . S
C1518 C1519 1.327 . S
C1519 H1513 0.950 . S
C1519 C1518 1.327 . S
C1519 C1523 1.429 . S
C1520 C1503 1.574 . S
C1520 H1514 0.949 . S
C1520 C1524 1.368 . S
C1521 C1502 1.429 . S
C1521 C1515 1.429 . S
C1521 C1522 1.523 . S
C1522 C1503 1.368 . S
C1522 C1516 1.368 . S
C1522 C1521 1.523 . S
C1523 C1507 1.429 . S
C1523 C1519 1.429 . S
C1523 C1524 1.523 . S
C1524 C1508 1.368 . S
C1524 C1520 1.368 . S
C1524 C1523 1.523 . S
H1525 C1500 0.950 . S
H1526 C1502 0.950 . S
H1527 C1503 0.949 . S
H1528 C1505 0.950 . S
H1529 C1507 0.950 . S
C1530 C1531 1.349 . S
C1530 C1532 1.327 . S
C1530 H1555 0.950 . S
C1531 C1530 1.349 . S
C1531 C1547 1.349 . S
C1532 C1530 1.327 . S
C1532 C1551 1.429 . S
C1532 H1556 0.950 . S
C1533 C1550 1.574 . S
C1533 C1552 1.368 . S
C1533 H1557 0.949 . S
H1534 C1538 0.949 . S
C1535 C1536 1.349 . S
C1535 C1537 1.327 . S
C1535 H1558 0.950 . S
C1536 C1535 1.349 . S
C1536 C1548 1.349 . S
C1537 C1535 1.327 . S
C1537 C1553 1.429 . S
C1537 H1559 0.950 . S
C1538 H1534 0.949 . S
C1538 C1546 1.574 . S
C1538 C1554 1.368 . S
H1539 C1547 0.950 . S
H1540 C1545 0.950 . S
H1541 C1546 0.949 . S
H1542 C1548 0.950 . S
H1543 C1549 0.950 . S
H1544 C1550 0.949 . S
C1545 H1540 0.950 . S
C1545 C1547 1.327 . S
C1545 C1551 1.429 . S
C1546 C1538 1.574 . S
C1546 H1541 0.949 . S
C1546 C1552 1.368 . S
C1547 C1531 1.349 . S
C1547 H1539 0.950 . S
C1547 C1545 1.327 . S
C1548 C1536 1.349 . S
C1548 H1542 0.950 . S
C1548 C1549 1.327 . S
C1549 H1543 0.950 . S
C1549 C1548 1.327 . S
C1549 C1553 1.429 . S
C1550 C1533 1.574 . S
C1550 H1544 0.949 . S
C1550 C1554 1.368 . S
C1551 C1532 1.429 . S
C1551 C1545 1.429 . S
C1551 C1552 1.523 . S
C1552 C1533 1.368 . S
C1552 C1546 1.368 . S
C1552 C1551 1.523 . S
C1553 C1537 1.429 . S
C1553 C1549 1.429 . S
C1553 C1554 1.523 . S
C1554 C1538 1.368 . S
C1554 C1550 1.368 . S
C1554 C1553 1.523 . S
H1555 C1530 0.950 . S
H1556 C1532 0.950 . S
H1557 C1533 0.949 . S
H1558 C1535 0.950 . S
H1559 C1537 0.950 . S
C1560 C1561 1.349 . S
C1560 C1562 1.327 . S
C1560 H1585 0.950 . S
C1561 C1560 1.349 . S
C1561 C1577 1.349 . S
C1562 C1560 1.327 . S
C1562 C1581 1.429 . S
C1562 H1586 0.950 . S
C1563 C1580 1.574 . S
C1563 C1582 1.368 . S
C1563 H1587 0.949 . S
H1564 C1568 0.949 . S
C1565 C1566 1.349 . S
C1565 C1567 1.327 . S
C1565 H1588 0.950 . S
C1566 C1565 1.349 . S
C1566 C1578 1.349 . S
C1567 C1565 1.327 . S
C1567 C1583 1.429 . S
C1567 H1589 0.950 . S
C1568 H1564 0.949 . S
C1568 C1576 1.574 . S
C1568 C1584 1.368 . S
H1569 C1577 0.950 . S
H1570 C1575 0.950 . S
H1571 C1576 0.949 . S
H1572 C1578 0.950 . S
H1573 C1579 0.950 . S
H1574 C1580 0.949 . S
C1575 H1570 0.950 . S
C1575 C1577 1.327 . S
C1575 C1581 1.429 . S
C1576 C1568 1.574 . S
C1576 H1571 0.949 . S
C1576 C1582 1.368 . S
C1577 C1561 1.349 . S
C1577 H1569 0.950 . S
C1577 C1575 1.327 . S
C1578 C1566 1.349 . S
C1578 H1572 0.950 . S
C1578 C1579 1.327 . S
C1579 H1573 0.950 . S
C1579 C1578 1.327 . S
C1579 C1583 1.429 . S
C1580 C1563 1.574 . S
C1580 H1574 0.949 . S
C1580 C1584 1.368 . S
C1581 C1562 1.429 . S
C1581 C1575 1.429 . S
C1581 C1582 1.523 . S
C1582 C1563 1.368 . S
C1582 C1576 1.368 . S
C1582 C1581 1.523 . S
C1583 C1567 1.429 . S
C1583 C1579 1.429 . S
C1583 C1584 1.523 . S
C1584 C1568 1.368 . S
C1584 C1580 1.368 . S
C1584 C1583 1.523 . S
H1585 C1560 0.950 . S
H1586 C1562 0.950 . S
H1587 C1563 0.949 . S
H1588 C1565 0.950 . S
H1589 C1567 0.950 . S
C1590 C1591 1.349 . S
C1590 C1592 1.327 . S
C1590 H1615 0.950 . S
C1591 C1590 1.349 . S
C1591 C1607 1.349 . S
C1592 C1590 1.327 . S
C1592 C1611 1.429 . S
C1592 H1616 0.950 . S
C1593 C1610 1.574 . S
C1593 C1612 1.368 . S
C1593 H1617 0.949 . S
H1594 C1598 0.949 . S
C1595 C1596 1.349 . S
C1595 C1597 1.327 . S
C1595 H1618 0.950 . S
C1596 C1595 1.349 . S
C1596 C1608 1.349 . S
C1597 C1595 1.327 . S
C1597 C1613 1.429 . S
C1597 H1619 0.950 . S
C1598 H1594 0.949 . S
C1598 C1606 1.574 . S
C1598 C1614 1.368 . S
H1599 C1607 0.950 . S
H1600 C1605 0.950 . S
H1601 C1606 0.949 . S
H1602 C1608 0.950 . S
H1603 C1609 0.950 . S
H1604 C1610 0.949 . S
C1605 H1600 0.950 . S
C1605 C1607 1.327 . S
C1605 C1611 1.429 . S
C1606 C1598 1.574 . S
C1606 H1601 0.949 . S
C1606 C1612 1.368 . S
C1607 C1591 1.349 . S
C1607 H1599 0.950 . S
C1607 C1605 1.327 . S
C1608 C1596 1.349 . S
C1608 H1602 0.950 . S
C1608 C1609 1.327 . S
C1609 H1603 0.950 . S
C1609 C1608 1.327 . S
C1609 C1613 1.429 . S
C1610 C1593 1.574 . S
C1610 H1604 0.949 . S
C1610 C1614 1.368 . S
C1611 C1592 1.429 . S
C1611 C1605 1.429 . S
C1611 C1612 1.523 . S
C1612 C1593 1.368 . S
C1612 C1606 1.368 . S
C1612 C1611 1.523 . S
C1613 C1597 1.429 . S
C1613 C1609 1.429 . S
C1613 C1614 1.523 . S
C1614 C1598 1.368 . S
C1614 C1610 1.368 . S
C1614 C1613 1.523 . S
H1615 C1590 0.950 . S
H1616 C1592 0.950 . S
H1617 C1593 0.949 . S
H1618 C1595 0.950 . S
H1619 C1597 0.950 . S
C1620 C1621 1.349 . S
C1620 C1622 1.327 . S
C1620 H1645 0.950 . S
C1621 C1620 1.349 . S
C1621 C1637 1.349 . S
C1622 C1620 1.327 . S
C1622 C1641 1.429 . S
C1622 H1646 0.950 . S
C1623 C1640 1.574 . S
C1623 C1642 1.368 . S
C1623 H1647 0.949 . S
H1624 C1628 0.949 . S
C1625 C1626 1.349 . S
C1625 C1627 1.327 . S
C1625 H1648 0.950 . S
C1626 C1625 1.349 . S
C1626 C1638 1.349 . S
C1627 C1625 1.327 . S
C1627 C1643 1.429 . S
C1627 H1649 0.950 . S
C1628 H1624 0.949 . S
C1628 C1636 1.574 . S
C1628 C1644 1.368 . S
H1629 C1637 0.950 . S
H1630 C1635 0.950 . S
H1631 C1636 0.949 . S
H1632 C1638 0.950 . S
H1633 C1639 0.950 . S
H1634 C1640 0.949 . S
C1635 H1630 0.950 . S
C1635 C1637 1.327 . S
C1635 C1641 1.429 . S
C1636 C1628 1.574 . S
C1636 H1631 0.949 . S
C1636 C1642 1.368 . S
C1637 C1621 1.349 . S
C1637 H1629 0.950 . S
C1637 C1635 1.327 . S
C1638 C1626 1.349 . S
C1638 H1632 0.950 . S
C1638 C1639 1.327 . S
C1639 H1633 0.950 . S
C1639 C1638 1.327 . S
C1639 C1643 1.429 . S
C1640 C1623 1.574 . S
C1640 H1634 0.949 . S
C1640 C1644 1.368 . S
C1641 C1622 1.429 . S
C1641 C1635 1.429 . S
C1641 C1642 1.523 . S
C1642 C1623 1.368 . S
C1642 C1636 1.368 . S
C1642 C1641 1.523 . S
C1643 C1627 1.429 . S
C1643 C1639 1.429 . S
C1643 C1644 1.523 . S
C1644 C1628 1.368 . S
C1644 C1640 1.368 . S
C1644 C1643 1.523 . S
H1645 C1620 0.950 . S
H1646 C1622 0.950 . S
H1647 C1623 0.949 . S
H1648 C1625 0.950 . S
H1649 C1627 0.950 . S
C1650 C1651 1.349 . S
C1650 C1652 1.327 . S
C1650 H1675 0.950 . S
C1651 C1650 1.349 . S
C1651 C1667 1.349 . S
C1652 C1650 1.327 . S
C1652 C1671 1.429 . S
C1652 H1676 0.950 . S
C1653 C1670 1.574 . S
C1653 C1672 1.368 . S
C1653 H1677 0.949 . S
H1654 C1658 0.949 . S
C1655 C1656 1.349 . S
C1655 C1657 1.327 . S
C1655 H1678 0.950 . S
C1656 C1655 1.349 . S
C1656 C1668 1.349 . S
C1657 C1655 1.327 . S
C1657 C1673 1.429 . S
C1657 H1679 0.950 . S
C1658 H1654 0.949 . S
C1658 C1666 1.574 . S
C1658 C1674 1.368 . S
H1659 C1667 0.950 . S
H1660 C1665 0.950 . S
H1661 C1666 0.949 . S
H1662 C1668 0.950 . S
H1663 C1669 0.950 . S
H1664 C1670 0.949 . S
C1665 H1660 0.950 . S
C1665 C1667 1.327 . S
C1665 C1671 1.429 . S
C1666 C1658 1.574 . S
C1666 H1661 0.949 . S
C1666 C1672 1.368 . S
C1667 C1651 1.349 . S
C1667 H1659 0.950 . S
C1667 C1665 1.327 . S
C1668 C1656 1.349 . S
C1668 H1662 0.950 . S
C1668 C1669 1.327 . S
C1669 H1663 0.950 . S
C1669 C1668 1.327 . S
C1669 C1673 1.429 . S
C1670 C1653 1.574 . S
C1670 H1664 0.949 . S
C1670 C1674 1.368 . S
C1671 C1652 1.429 . S
C1671 C1665 1.429 . S
C1671 C1672 1.523 . S
C1672 C1653 1.368 . S
C1672 C1666 1.368 . S
C1672 C1671 1.523 . S
C1673 C1657 1.429 . S
C1673 C1669 1.429 . S
C1673 C1674 1.523 . S
C1674 C1658 1.368 . S
C1674 C1670 1.368 . S
C1674 C1673 1.523 . S
H1675 C1650 0.950 . S
H1676 C1652 0.950 . S
H1677 C1653 0.949 . S
H1678 C1655 0.950 . S
H1679 C1657 0.950 . S
C1680 C1681 1.349 . S
C1680 C1682 1.327 . S
C1680 H1705 0.950 . S
C1681 C1680 1.349 . S
C1681 C1697 1.349 . S
C1682 C1680 1.327 . S
C1682 C1701 1.429 . S
C1682 H1706 0.950 . S
C1683 C1700 1.574 . S
C1683 C1702 1.368 . S
C1683 H1707 0.949 . S
H1684 C1688 0.949 . S
C1685 C1686 1.349 . S
C1685 C1687 1.327 . S
C1685 H1708 0.950 . S
C1686 C1685 1.349 . S
C1686 C1698 1.349 . S
C1687 C1685 1.327 . S
C1687 C1703 1.429 . S
C1687 H1709 0.950 . S
C1688 H1684 0.949 . S
C1688 C1696 1.574 . S
C1688 C1704 1.368 . S
H1689 C1697 0.950 . S
H1690 C1695 0.950 . S
H1691 C1696 0.949 . S
H1692 C1698 0.950 . S
H1693 C1699 0.950 . S
H1694 C1700 0.949 . S
C1695 H1690 0.950 . S
C1695 C1697 1.327 . S
C1695 C1701 1.429 . S
C1696 C1688 1.574 . S
C1696 H1691 0.949 . S
C1696 C1702 1.368 . S
C1697 C1681 1.349 . S
C1697 H1689 0.950 . S
C1697 C1695 1.327 . S
C1698 C1686 1.349 . S
C1698 H1692 0.950 . S
C1698 C1699 1.327 . S
C1699 H1693 0.950 . S
C1699 C1698 1.327 . S
C1699 C1703 1.429 . S
C1700 C1683 1.574 . S
C1700 H1694 0.949 . S
C1700 C1704 1.368 . S
C1701 C1682 1.429 . S
C1701 C1695 1.429 . S
C1701 C1702 1.523 . S
C1702 C1683 1.368 . S
C1702 C1696 1.368 . S
C1702 C1701 1.523 . S
C1703 C1687 1.429 . S
C1703 C1699 1.429 . S
C1703 C1704 1.523 . S
C1704 C1688 1.368 . S
C1704 C1700 1.368 . S
C1704 C1703 1.523 . S
H1705 C1680 0.950 . S
H1706 C1682 0.950 . S
H1707 C1683 0.949 . S
H1708 C1685 0.950 . S
H1709 C1687 0.950 . S
C1710 C1711 1.349 . S
C1710 C1712 1.327 . S
C1710 H1735 0.950 . S
C1711 C1710 1.349 . S
C1711 C1727 1.349 . S
C1712 C1710 1.327 . S
C1712 C1731 1.429 . S
C1712 H1736 0.950 . S
C1713 C1730 1.574 . S
C1713 C1732 1.368 . S
C1713 H1737 0.949 . S
H1714 C1718 0.949 . S
C1715 C1716 1.349 . S
C1715 C1717 1.327 . S
C1715 H1738 0.950 . S
C1716 C1715 1.349 . S
C1716 C1728 1.349 . S
C1717 C1715 1.327 . S
C1717 C1733 1.429 . S
C1717 H1739 0.950 . S
C1718 H1714 0.949 . S
C1718 C1726 1.574 . S
C1718 C1734 1.368 . S
H1719 C1727 0.950 . S
H1720 C1725 0.950 . S
H1721 C1726 0.949 . S
H1722 C1728 0.950 . S
H1723 C1729 0.950 . S
H1724 C1730 0.949 . S
C1725 H1720 0.950 . S
C1725 C1727 1.327 . S
C1725 C1731 1.429 . S
C1726 C1718 1.574 . S
C1726 H1721 0.949 . S
C1726 C1732 1.368 . S
C1727 C1711 1.349 . S
C1727 H1719 0.950 . S
C1727 C1725 1.327 . S
C1728 C1716 1.349 . S
C1728 H1722 0.950 . S
C1728 C1729 1.327 . S
C1729 H1723 0.950 . S
C1729 C1728 1.327 . S
C1729 C1733 1.429 . S
C1730 C1713 1.574 . S
C1730 H1724 0.949 . S
C1730 C1734 1.368 . S
C1731 C1712 1.429 . S
C1731 C1725 1.429 . S
C1731 C1732 1.523 . S
C1732 C1713 1.368 . S
C1732 C1726 1.368 . S
C1732 C1731 1.523 . S
C1733 C1717 1.429 . S
C1733 C1729 1.429 . S
C1733 C1734 1.523 . S
C1734 C1718 1.368 . S
C1734 C1730 1.368 . S
C1734 C1733 1.523 . S
H1735 C1710 0.950 . S
H1736 C1712 0.950 . S
H1737 C1713 0.949 . S
H1738 C1715 0.950 . S
H1739 C1717 0.950 . S
C1740 C1741 1.349 . S
C1740 C1742 1.327 . S
C1740 H1765 0.950 . S
C1741 C1740 1.349 . S
C1741 C1757 1.349 . S
C1742 C1740 1.327 . S
C1742 C1761 1.429 . S
C1742 H1766 0.950 . S
C1743 C1760 1.574 . S
C1743 C1762 1.368 . S
C1743 H1767 0.949 . S
H1744 C1748 0.949 . S
C1745 C1746 1.349 . S
C1745 C1747 1.327 . S
C1745 H1768 0.950 . S
C1746 C1745 1.349 . S
C1746 C1758 1.349 . S
C1747 C1745 1.327 . S
C1747 C1763 1.429 . S
C1747 H1769 0.950 . S
C1748 H1744 0.949 . S
C1748 C1756 1.574 . S
C1748 C1764 1.368 . S
H1749 C1757 0.950 . S
H1750 C1755 0.950 . S
H1751 C1756 0.949 . S
H1752 C1758 0.950 . S
H1753 C1759 0.950 . S
H1754 C1760 0.949 . S
C1755 H1750 0.950 . S
C1755 C1757 1.327 . S
C1755 C1761 1.429 . S
C1756 C1748 1.574 . S
C1756 H1751 0.949 . S
C1756 C1762 1.368 . S
C1757 C1741 1.349 . S
C1757 H1749 0.950 . S
C1757 C1755 1.327 . S
C1758 C1746 1.349 . S
C1758 H1752 0.950 . S
C1758 C1759 1.327 . S
C1759 H1753 0.950 . S
C1759 C1758 1.327 . S
C1759 C1763 1.429 . S
C1760 C1743 1.574 . S
C1760 H1754 0.949 . S
C1760 C1764 1.368 . S
C1761 C1742 1.429 . S
C1761 C1755 1.429 . S
C1761 C1762 1.523 . S
C1762 C1743 1.368 . S
C1762 C1756 1.368 . S
C1762 C1761 1.523 . S
C1763 C1747 1.429 . S
C1763 C1759 1.429 . S
C1763 C1764 1.523 . S
C1764 C1748 1.368 . S
C1764 C1760 1.368 . S
C1764 C1763 1.523 . S
H1765 C1740 0.950 . S
H1766 C1742 0.950 . S
H1767 C1743 0.949 . S
H1768 C1745 0.950 . S
H1769 C1747 0.950 . S
C1770 C1771 1.349 . S
C1770 C1772 1.327 . S
C1770 H1795 0.950 . S
C1771 C1770 1.349 . S
C1771 C1787 1.349 . S
C1772 C1770 1.327 . S
C1772 C1791 1.429 . S
C1772 H1796 0.950 . S
C1773 C1790 1.574 . S
C1773 C1792 1.368 . S
C1773 H1797 0.949 . S
H1774 C1778 0.949 . S
C1775 C1776 1.349 . S
C1775 C1777 1.327 . S
C1775 H1798 0.950 . S
C1776 C1775 1.349 . S
C1776 C1788 1.349 . S
C1777 C1775 1.327 . S
C1777 C1793 1.429 . S
C1777 H1799 0.950 . S
C1778 H1774 0.949 . S
C1778 C1786 1.574 . S
C1778 C1794 1.368 . S
H1779 C1787 0.950 . S
H1780 C1785 0.950 . S
H1781 C1786 0.949 . S
H1782 C1788 0.950 . S
H1783 C1789 0.950 . S
H1784 C1790 0.949 . S
C1785 H1780 0.950 . S
C1785 C1787 1.327 . S
C1785 C1791 1.429 . S
C1786 C1778 1.574 . S
C1786 H1781 0.949 . S
C1786 C1792 1.368 . S
C1787 C1771 1.349 . S
C1787 H1779 0.950 . S
C1787 C1785 1.327 . S
C1788 C1776 1.349 . S
C1788 H1782 0.950 . S
C1788 C1789 1.327 . S
C1789 H1783 0.950 . S
C1789 C1788 1.327 . S
C1789 C1793 1.429 . S
C1790 C1773 1.574 . S
C1790 H1784 0.949 . S
C1790 C1794 1.368 . S
C1791 C1772 1.429 . S
C1791 C1785 1.429 . S
C1791 C1792 1.523 . S
C1792 C1773 1.368 . S
C1792 C1786 1.368 . S
C1792 C1791 1.523 . S
C1793 C1777 1.429 . S
C1793 C1789 1.429 . S
C1793 C1794 1.523 . S
C1794 C1778 1.368 . S
C1794 C1790 1.368 . S
C1794 C1793 1.523 . S
H1795 C1770 0.950 . S
H1796 C1772 0.950 . S
H1797 C1773 0.949 . S
H1798 C1775 0.950 . S
H1799 C1777 0.950 . S
C1800 C1801 1.349 . S
C1800 C1802 1.327 . S
C1800 H1825 0.950 . S
C1801 C1800 1.349 . S
C1801 C1817 1.349 . S
C1802 C1800 1.327 . S
C1802 C1821 1.429 . S
C1802 H1826 0.950 . S
C1803 C1820 1.574 . S
C1803 C1822 1.368 . S
C1803 H1827 0.949 . S
H1804 C1808 0.949 . S
C1805 C1806 1.349 . S
C1805 C1807 1.327 . S
C1805 H1828 0.950 . S
C1806 C1805 1.349 . S
C1806 C1818 1.349 . S
C1807 C1805 1.327 . S
C1807 C1823 1.429 . S
C1807 H1829 0.950 . S
C1808 H1804 0.949 . S
C1808 C1816 1.574 . S
C1808 C1824 1.368 . S
H1809 C1817 0.950 1_554 S
H1810 C1815 0.950 . S
H1811 C1816 0.949 . S
H1812 C1818 0.950 . S
H1813 C1819 0.950 . S
H1814 C1820 0.949 . S
C1815 H1810 0.950 . S
C1815 C1817 1.327 . S
C1815 C1821 1.429 . S
C1816 C1808 1.574 . S
C1816 H1811 0.949 . S
C1816 C1822 1.368 . S
C1817 C1801 1.349 . S
C1817 H1809 0.950 1_556 S
C1817 C1815 1.327 . S
C1818 C1806 1.349 . S
C1818 H1812 0.950 . S
C1818 C1819 1.327 . S
C1819 H1813 0.950 . S
C1819 C1818 1.327 . S
C1819 C1823 1.429 . S
C1820 C1803 1.574 . S
C1820 H1814 0.949 . S
C1820 C1824 1.368 . S
C1821 C1802 1.429 . S
C1821 C1815 1.429 . S
C1821 C1822 1.523 . S
C1822 C1803 1.368 . S
C1822 C1816 1.368 . S
C1822 C1821 1.523 . S
C1823 C1807 1.429 . S
C1823 C1819 1.429 . S
C1823 C1824 1.523 . S
C1824 C1808 1.368 . S
C1824 C1820 1.368 . S
C1824 C1823 1.523 . S
H1825 C1800 0.950 . S
H1826 C1802 0.950 . S
H1827 C1803 0.949 . S
H1828 C1805 0.950 . S
H1829 C1807 0.950 . S
C1830 C1831 1.349 . S
C1830 C1832 1.327 . S
C1830 H1855 0.950 . S
C1831 C1830 1.349 . S
C1831 C1847 1.349 1_556 S
C1832 C1830 1.327 . S
C1832 C1851 1.429 . S
C1832 H1856 0.950 . S
C1833 C1850 1.574 . S
C1833 C1852 1.368 . S
C1833 H1857 0.949 . S
H1834 C1838 0.949 . S
C1835 C1836 1.349 . S
C1835 C1837 1.327 . S
C1835 H1858 0.950 . S
C1836 C1835 1.349 . S
C1836 C1848 1.349 . S
C1837 C1835 1.327 . S
C1837 C1853 1.429 . S
C1837 H1859 0.950 . S
C1838 H1834 0.949 . S
C1838 C1846 1.574 . S
C1838 C1854 1.368 . S
H1839 C1847 0.950 . S
H1840 C1845 0.950 1_554 S
H1841 C1846 0.949 . S
H1842 C1848 0.950 . S
H1843 C1849 0.950 . S
H1844 C1850 0.949 . S
C1845 H1840 0.950 1_556 S
C1845 C1847 1.327 1_556 S
C1845 C1851 1.429 . S
C1846 C1838 1.574 . S
C1846 H1841 0.949 . S
C1846 C1852 1.368 . S
C1847 C1831 1.349 1_554 S
C1847 H1839 0.950 . S
C1847 C1845 1.327 1_554 S
C1848 C1836 1.349 . S
C1848 H1842 0.950 . S
C1848 C1849 1.327 . S
C1849 H1843 0.950 . S
C1849 C1848 1.327 . S
C1849 C1853 1.429 . S
C1850 C1833 1.574 . S
C1850 H1844 0.949 . S
C1850 C1854 1.368 . S
C1851 C1832 1.429 . S
C1851 C1845 1.429 . S
C1851 C1852 1.523 . S
C1852 C1833 1.368 . S
C1852 C1846 1.368 . S
C1852 C1851 1.523 . S
C1853 C1837 1.429 . S
C1853 C1849 1.429 . S
C1853 C1854 1.523 . S
C1854 C1838 1.368 . S
C1854 C1850 1.368 . S
C1854 C1853 1.523 . S
H1855 C1830 0.950 . S
H1856 C1832 0.950 . S
H1857 C1833 0.949 . S
H1858 C1835 0.950 . S
H1859 C1837 0.950 . S
C1860 C1861 1.349 . S
C1860 C1862 1.327 . S
C1860 H1885 0.950 1_556 S
C1861 C1860 1.349 . S
C1861 C1877 1.349 . S
C1862 C1860 1.327 . S
C1862 C1881 1.429 . S
C1862 H1886 0.950 . S
C1863 C1880 1.574 . S
C1863 C1882 1.368 . S
C1863 H1887 0.949 . S
H1864 C1868 0.949 . S
C1865 C1866 1.349 . S
C1865 C1867 1.327 . S
C1865 H1888 0.950 . S
C1866 C1865 1.349 . S
C1866 C1878 1.349 . S
C1867 C1865 1.327 . S
C1867 C1883 1.429 . S
C1867 H1889 0.950 . S
C1868 H1864 0.949 . S
C1868 C1876 1.574 . S
C1868 C1884 1.368 . S
H1869 C1877 0.950 . S
H1870 C1875 0.950 . S
H1871 C1876 0.949 . S
H1872 C1878 0.950 . S
H1873 C1879 0.950 . S
H1874 C1880 0.949 . S
C1875 H1870 0.950 . S
C1875 C1877 1.327 . S
C1875 C1881 1.429 . S
C1876 C1868 1.574 . S
C1876 H1871 0.949 . S
C1876 C1882 1.368 . S
C1877 C1861 1.349 . S
C1877 H1869 0.950 . S
C1877 C1875 1.327 . S
C1878 C1866 1.349 . S
C1878 H1872 0.950 . S
C1878 C1879 1.327 . S
C1879 H1873 0.950 . S
C1879 C1878 1.327 . S
C1879 C1883 1.429 . S
C1880 C1863 1.574 . S
C1880 H1874 0.949 . S
C1880 C1884 1.368 . S
C1881 C1862 1.429 . S
C1881 C1875 1.429 . S
C1881 C1882 1.523 . S
C1882 C1863 1.368 . S
C1882 C1876 1.368 . S
C1882 C1881 1.523 . S
C1883 C1867 1.429 . S
C1883 C1879 1.429 . S
C1883 C1884 1.523 . S
C1884 C1868 1.368 . S
C1884 C1880 1.368 . S
C1884 C1883 1.523 . S
H1885 C1860 0.950 1_554 S
H1886 C1862 0.950 . S
H1887 C1863 0.949 . S
H1888 C1865 0.950 . S
H1889 C1867 0.950 . S
C1890 C1891 1.349 . S
C1890 C1892 1.327 . S
C1890 H1915 0.950 . S
C1891 C1890 1.349 . S
C1891 C1907 1.349 . S
C1892 C1890 1.327 . S
C1892 C1911 1.429 . S
C1892 H1916 0.950 . S
C1893 C1910 1.574 . S
C1893 C1912 1.368 . S
C1893 H1917 0.949 . S
H1894 C1898 0.949 . S
C1895 C1896 1.349 . S
C1895 C1897 1.327 . S
C1895 H1918 0.950 . S
C1896 C1895 1.349 . S
C1896 C1908 1.349 . S
C1897 C1895 1.327 . S
C1897 C1913 1.429 . S
C1897 H1919 0.950 . S
C1898 H1894 0.949 . S
C1898 C1906 1.574 . S
C1898 C1914 1.368 . S
H1899 C1907 0.950 . S
H1900 C1905 0.950 . S
H1901 C1906 0.949 . S
H1902 C1908 0.950 . S
H1903 C1909 0.950 . S
H1904 C1910 0.949 . S
C1905 H1900 0.950 . S
C1905 C1907 1.327 . S
C1905 C1911 1.429 . S
C1906 C1898 1.574 . S
C1906 H1901 0.949 . S
C1906 C1912 1.368 . S
C1907 C1891 1.349 . S
C1907 H1899 0.950 . S
C1907 C1905 1.327 . S
C1908 C1896 1.349 . S
C1908 H1902 0.950 . S
C1908 C1909 1.327 . S
C1909 H1903 0.950 . S
C1909 C1908 1.327 . S
C1909 C1913 1.429 . S
C1910 C1893 1.574 . S
C1910 H1904 0.949 . S
C1910 C1914 1.368 . S
C1911 C1892 1.429 . S
C1911 C1905 1.429 . S
C1911 C1912 1.523 . S
C1912 C1893 1.368 . S
C1912 C1906 1.368 . S
C1912 C1911 1.523 . S
C1913 C1897 1.429 . S
C1913 C1909 1.429 . S
C1913 C1914 1.523 . S
C1914 C1898 1.368 . S
C1914 C1910 1.368 . S
C1914 C1913 1.523 . S
H1915 C1890 0.950 . S
H1916 C1892 0.950 . S
H1917 C1893 0.949 . S
H1918 C1895 0.950 . S
H1919 C1897 0.950 . S
C1920 C1921 1.349 . S
C1920 C1922 1.327 . S
C1920 H1945 0.950 1_556 S
C1921 C1920 1.349 . S
C1921 C1937 1.349 . S
C1922 C1920 1.327 . S
C1922 C1941 1.429 . S
C1922 H1946 0.950 . S
C1923 C1940 1.574 . S
C1923 C1942 1.368 . S
C1923 H1947 0.949 . S
H1924 C1928 0.949 . S
C1925 C1926 1.349 . S
C1925 C1927 1.327 . S
C1925 H1948 0.950 . S
C1926 C1925 1.349 . S
C1926 C1938 1.349 . S
C1927 C1925 1.327 . S
C1927 C1943 1.429 . S
C1927 H1949 0.950 . S
C1928 H1924 0.949 . S
C1928 C1936 1.574 . S
C1928 C1944 1.368 . S
H1929 C1937 0.950 . S
H1930 C1935 0.950 . S
H1931 C1936 0.949 . S
H1932 C1938 0.950 . S
H1933 C1939 0.950 . S
H1934 C1940 0.949 . S
C1935 H1930 0.950 . S
C1935 C1937 1.327 . S
C1935 C1941 1.429 . S
C1936 C1928 1.574 . S
C1936 H1931 0.949 . S
C1936 C1942 1.368 . S
C1937 C1921 1.349 . S
C1937 H1929 0.950 . S
C1937 C1935 1.327 . S
C1938 C1926 1.349 . S
C1938 H1932 0.950 . S
C1938 C1939 1.327 . S
C1939 H1933 0.950 . S
C1939 C1938 1.327 . S
C1939 C1943 1.429 . S
C1940 C1923 1.574 . S
C1940 H1934 0.949 . S
C1940 C1944 1.368 . S
C1941 C1922 1.429 . S
C1941 C1935 1.429 . S
C1941 C1942 1.523 . S
C1942 C1923 1.368 . S
C1942 C1936 1.368 . S
C1942 C1941 1.523 . S
C1943 C1927 1.429 . S
C1943 C1939 1.429 . S
C1943 C1944 1.523 . S
C1944 C1928 1.368 . S
C1944 C1940 1.368 . S
C1944 C1943 1.523 . S
H1945 C1920 0.950 1_554 S
H1946 C1922 0.950 . S
H1947 C1923 0.949 . S
H1948 C1925 0.950 . S
H1949 C1927 0.950 . S
C1950 C1951 1.349 . S
C1950 C1952 1.327 . S
C1950 H1975 0.950 . S
C1951 C1950 1.349 . S
C1951 C1967 1.349 . S
C1952 C1950 1.327 . S
C1952 C1971 1.429 . S
C1952 H1976 0.950 . S
C1953 C1970 1.574 . S
C1953 C1972 1.368 . S
C1953 H1977 0.949 . S
H1954 C1958 0.949 . S
C1955 C1956 1.349 . S
C1955 C1957 1.327 . S
C1955 H1978 0.950 . S
C1956 C1955 1.349 . S
C1956 C1968 1.349 . S
C1957 C1955 1.327 . S
C1957 C1973 1.429 . S
C1957 H1979 0.950 . S
C1958 H1954 0.949 . S
C1958 C1966 1.574 . S
C1958 C1974 1.368 . S
H1959 C1967 0.950 . S
H1960 C1965 0.950 . S
H1961 C1966 0.949 . S
H1962 C1968 0.950 . S
H1963 C1969 0.950 . S
H1964 C1970 0.949 . S
C1965 H1960 0.950 . S
C1965 C1967 1.327 . S
C1965 C1971 1.429 . S
C1966 C1958 1.574 . S
C1966 H1961 0.949 . S
C1966 C1972 1.368 . S
C1967 C1951 1.349 . S
C1967 H1959 0.950 . S
C1967 C1965 1.327 . S
C1968 C1956 1.349 . S
C1968 H1962 0.950 . S
C1968 C1969 1.327 . S
C1969 H1963 0.950 . S
C1969 C1968 1.327 . S
C1969 C1973 1.429 . S
C1970 C1953 1.574 . S
C1970 H1964 0.949 . S
C1970 C1974 1.368 . S
C1971 C1952 1.429 . S
C1971 C1965 1.429 . S
C1971 C1972 1.523 . S
C1972 C1953 1.368 . S
C1972 C1966 1.368 . S
C1972 C1971 1.523 . S
C1973 C1957 1.429 . S
C1973 C1969 1.429 . S
C1973 C1974 1.523 . S
C1974 C1958 1.368 . S
C1974 C1970 1.368 . S
C1974 C1973 1.523 . S
H1975 C1950 0.950 . S
H1976 C1952 0.950 . S
H1977 C1953 0.949 . S
H1978 C1955 0.950 . S
H1979 C1957 0.950 . S
C1980 C1981 1.349 . S
C1980 C1982 1.327 . S
C1980 H2005 0.950 . S
C1981 C1980 1.349 . S
C1981 C1997 1.349 . S
C1982 C1980 1.327 . S
C1982 C2001 1.429 . S
C1982 H2006 0.950 . S
C1983 C2000 1.574 . S
C1983 C2002 1.368 . S
C1983 H2007 0.949 . S
H1984 C1988 0.949 . S
C1985 C1986 1.349 . S
C1985 C1987 1.327 . S
C1985 H2008 0.950 . S
C1986 C1985 1.349 . S
C1986 C1998 1.349 . S
C1987 C1985 1.327 . S
C1987 C2003 1.429 . S
C1987 H2009 0.950 . S
C1988 H1984 0.949 . S
C1988 C1996 1.574 . S
C1988 C2004 1.368 . S
H1989 C1997 0.950 . S
H1990 C1995 0.950 . S
H1991 C1996 0.949 . S
H1992 C1998 0.950 . S
H1993 C1999 0.950 . S
H1994 C2000 0.949 . S
C1995 H1990 0.950 . S
C1995 C1997 1.327 . S
C1995 C2001 1.429 . S
C1996 C1988 1.574 . S
C1996 H1991 0.949 . S
C1996 C2002 1.368 . S
C1997 C1981 1.349 . S
C1997 H1989 0.950 . S
C1997 C1995 1.327 . S
C1998 C1986 1.349 . S
C1998 H1992 0.950 . S
C1998 C1999 1.327 . S
C1999 H1993 0.950 . S
C1999 C1998 1.327 . S
C1999 C2003 1.429 . S
C2000 C1983 1.574 . S
C2000 H1994 0.949 . S
C2000 C2004 1.368 . S
C2001 C1982 1.429 . S
C2001 C1995 1.429 . S
C2001 C2002 1.523 . S
C2002 C1983 1.368 . S
C2002 C1996 1.368 . S
C2002 C2001 1.523 . S
C2003 C1987 1.429 . S
C2003 C1999 1.429 . S
C2003 C2004 1.523 . S
C2004 C1988 1.368 . S
C2004 C2000 1.368 . S
C2004 C2003 1.523 . S
H2005 C1980 0.950 . S
H2006 C1982 0.950 . S
H2007 C1983 0.949 . S
H2008 C1985 0.950 . S
H2009 C1987 0.950 . S
C2010 C2011 1.349 . S
C2010 C2012 1.327 . S
C2010 H2035 0.950 . S
C2011 C2010 1.349 . S
C2011 C2027 1.349 . S
C2012 C2010 1.327 . S
C2012 C2031 1.429 . S
C2012 H2036 0.950 . S
C2013 C2030 1.574 . S
C2013 C2032 1.368 . S
C2013 H2037 0.949 . S
H2014 C2018 0.949 . S
C2015 C2016 1.349 . S
C2015 C2017 1.327 . S
C2015 H2038 0.950 . S
C2016 C2015 1.349 . S
C2016 C2028 1.349 . S
C2017 C2015 1.327 . S
C2017 C2033 1.429 . S
C2017 H2039 0.950 . S
C2018 H2014 0.949 . S
C2018 C2026 1.574 . S
C2018 C2034 1.368 . S
H2019 C2027 0.950 . S
H2020 C2025 0.950 . S
H2021 C2026 0.949 . S
H2022 C2028 0.950 . S
H2023 C2029 0.950 . S
H2024 C2030 0.949 . S
C2025 H2020 0.950 . S
C2025 C2027 1.327 . S
C2025 C2031 1.429 . S
C2026 C2018 1.574 . S
C2026 H2021 0.949 . S
C2026 C2032 1.368 . S
C2027 C2011 1.349 . S
C2027 H2019 0.950 . S
C2027 C2025 1.327 . S
C2028 C2016 1.349 . S
C2028 H2022 0.950 . S
C2028 C2029 1.327 . S
C2029 H2023 0.950 . S
C2029 C2028 1.327 . S
C2029 C2033 1.429 . S
C2030 C2013 1.574 . S
C2030 H2024 0.949 . S
C2030 C2034 1.368 . S
C2031 C2012 1.429 . S
C2031 C2025 1.429 . S
C2031 C2032 1.523 . S
C2032 C2013 1.368 . S
C2032 C2026 1.368 . S
C2032 C2031 1.523 . S
C2033 C2017 1.429 . S
C2033 C2029 1.429 . S
C2033 C2034 1.523 . S
C2034 C2018 1.368 . S
C2034 C2030 1.368 . S
C2034 C2033 1.523 . S
H2035 C2010 0.950 . S
H2036 C2012 0.950 . S
H2037 C2013 0.949 . S
H2038 C2015 0.950 . S
H2039 C2017 0.950 . S
C2040 C2041 1.349 . S
C2040 C2042 1.327 . S
C2040 H2065 0.950 . S
C2041 C2040 1.349 . S
C2041 C2057 1.349 . S
C2042 C2040 1.327 . S
C2042 C2061 1.429 . S
C2042 H2066 0.950 . S
C2043 C2060 1.574 . S
C2043 C2062 1.368 . S
C2043 H2067 0.949 . S
H2044 C2048 0.949 . S
C2045 C2046 1.349 . S
C2045 C2047 1.327 . S
C2045 H2068 0.950 . S
C2046 C2045 1.349 . S
C2046 C2058 1.349 . S
C2047 C2045 1.327 . S
C2047 C2063 1.429 . S
C2047 H2069 0.950 . S
C2048 H2044 0.949 . S
C2048 C2056 1.574 . S
C2048 C2064 1.368 . S
H2049 C2057 0.950 . S
H2050 C2055 0.950 . S
H2051 C2056 0.949 . S
H2052 C2058 0.950 . S
H2053 C2059 0.950 . S
H2054 C2060 0.949 . S
C2055 H2050 0.950 . S
C2055 C2057 1.327 . S
C2055 C2061 1.429 . S
C2056 C2048 1.574 . S
C2056 H2051 0.949 . S
C2056 C2062 1.368 . S
C2057 C2041 1.349 . S
C2057 H2049 0.950 . S
C2057 C2055 1.327 . S
C2058 C2046 1.349 . S
C2058 H2052 0.950 . S
C2058 C2059 1.327 . S
C2059 H2053 0.950 . S
C2059 C2058 1.327 . S
C2059 C2063 1.429 . S
C2060 C2043 1.574 . S
C2060 H2054 0.949 . S
C2060 C2064 1.368 . S
C2061 C2042 1.429 . S
C2061 C2055 1.429 . S
C2061 C2062 1.523 . S
C2062 C2043 1.368 . S
C2062 C2056 1.368 . S
C2062 C2061 1.523 . S
C2063 C2047 1.429 . S
C2063 C2059 1.429 . S
C2063 C2064 1.523 . S
C2064 C2048 1.368 . S
C2064 C2060 1.368 . S
C2064 C2063 1.523 . S
H2065 C2040 0.950 . S
H2066 C2042 0.950 . S
H2067 C2043 0.949 . S
H2068 C2045 0.950 . S
H2069 C2047 0.950 . S
C2070 C2071 1.349 . S
C2070 C2072 1.327 . S
C2070 H2095 0.950 . S
C2071 C2070 1.349 . S
C2071 C2087 1.349 . S
C2072 C2070 1.327 . S
C2072 C2091 1.429 . S
C2072 H2096 0.950 . S
C2073 C2090 1.574 . S
C2073 C2092 1.368 . S
C2073 H2097 0.949 . S
H2074 C2078 0.949 . S
C2075 C2076 1.349 . S
C2075 C2077 1.327 . S
C2075 H2098 0.950 . S
C2076 C2075 1.349 . S
C2076 C2088 1.349 . S
C2077 C2075 1.327 . S
C2077 C2093 1.429 . S
C2077 H2099 0.950 . S
C2078 H2074 0.949 . S
C2078 C2086 1.574 . S
C2078 C2094 1.368 . S
H2079 C2087 0.950 . S
H2080 C2085 0.950 . S
H2081 C2086 0.949 . S
H2082 C2088 0.950 . S
H2083 C2089 0.950 . S
H2084 C2090 0.949 . S
C2085 H2080 0.950 . S
C2085 C2087 1.327 . S
C2085 C2091 1.429 . S
C2086 C2078 1.574 . S
C2086 H2081 0.949 . S
C2086 C2092 1.368 . S
C2087 C2071 1.349 . S
C2087 H2079 0.950 . S
C2087 C2085 1.327 . S
C2088 C2076 1.349 . S
C2088 H2082 0.950 . S
C2088 C2089 1.327 . S
C2089 H2083 0.950 . S
C2089 C2088 1.327 . S
C2089 C2093 1.429 . S
C2090 C2073 1.574 . S
C2090 H2084 0.949 . S
C2090 C2094 1.368 . S
C2091 C2072 1.429 . S
C2091 C2085 1.429 . S
C2091 C2092 1.523 . S
C2092 C2073 1.368 . S
C2092 C2086 1.368 . S
C2092 C2091 1.523 . S
C2093 C2077 1.429 . S
C2093 C2089 1.429 . S
C2093 C2094 1.523 . S
C2094 C2078 1.368 . S
C2094 C2090 1.368 . S
C2094 C2093 1.523 . S
H2095 C2070 0.950 . S
H2096 C2072 0.950 . S
H2097 C2073 0.949 . S
H2098 C2075 0.950 . S
H2099 C2077 0.950 . S
C2100 C2101 1.349 . S
C2100 C2102 1.327 . S
C2100 H2125 0.950 . S
C2101 C2100 1.349 . S
C2101 C2117 1.349 . S
C2102 C2100 1.327 . S
C2102 C2121 1.429 . S
C2102 H2126 0.950 . S
C2103 C2120 1.574 . S
C2103 C2122 1.368 . S
C2103 H2127 0.949 . S
H2104 C2108 0.949 . S
C2105 C2106 1.349 . S
C2105 C2107 1.327 . S
C2105 H2128 0.950 . S
C2106 C2105 1.349 . S
C2106 C2118 1.349 . S
C2107 C2105 1.327 . S
C2107 C2123 1.429 . S
C2107 H2129 0.950 . S
C2108 H2104 0.949 . S
C2108 C2116 1.574 . S
C2108 C2124 1.368 . S
H2109 C2117 0.950 . S
H2110 C2115 0.950 . S
H2111 C2116 0.949 . S
H2112 C2118 0.950 . S
H2113 C2119 0.950 . S
H2114 C2120 0.949 . S
C2115 H2110 0.950 . S
C2115 C2117 1.327 . S
C2115 C2121 1.429 . S
C2116 C2108 1.574 . S
C2116 H2111 0.949 . S
C2116 C2122 1.368 . S
C2117 C2101 1.349 . S
C2117 H2109 0.950 . S
C2117 C2115 1.327 . S
C2118 C2106 1.349 . S
C2118 H2112 0.950 . S
C2118 C2119 1.327 . S
C2119 H2113 0.950 . S
C2119 C2118 1.327 . S
C2119 C2123 1.429 . S
C2120 C2103 1.574 . S
C2120 H2114 0.949 . S
C2120 C2124 1.368 . S
C2121 C2102 1.429 . S
C2121 C2115 1.429 . S
C2121 C2122 1.523 . S
C2122 C2103 1.368 . S
C2122 C2116 1.368 . S
C2122 C2121 1.523 . S
C2123 C2107 1.429 . S
C2123 C2119 1.429 . S
C2123 C2124 1.523 . S
C2124 C2108 1.368 . S
C2124 C2120 1.368 . S
C2124 C2123 1.523 . S
H2125 C2100 0.950 . S
H2126 C2102 0.950 . S
H2127 C2103 0.949 . S
H2128 C2105 0.950 . S
H2129 C2107 0.950 . S
C2130 C2131 1.349 . S
C2130 C2132 1.327 . S
C2130 H2155 0.950 . S
C2131 C2130 1.349 . S
C2131 C2147 1.349 . S
C2132 C2130 1.327 . S
C2132 C2151 1.429 . S
C2132 H2156 0.950 . S
C2133 C2150 1.574 . S
C2133 C2152 1.368 . S
C2133 H2157 0.949 . S
H2134 C2138 0.949 . S
C2135 C2136 1.349 . S
C2135 C2137 1.327 . S
C2135 H2158 0.950 . S
C2136 C2135 1.349 . S
C2136 C2148 1.349 . S
C2137 C2135 1.327 . S
C2137 C2153 1.429 . S
C2137 H2159 0.950 . S
C2138 H2134 0.949 . S
C2138 C2146 1.574 . S
C2138 C2154 1.368 . S
H2139 C2147 0.950 . S
H2140 C2145 0.950 . S
H2141 C2146 0.949 . S
H2142 C2148 0.950 . S
H2143 C2149 0.950 . S
H2144 C2150 0.949 . S
C2145 H2140 0.950 . S
C2145 C2147 1.327 . S
C2145 C2151 1.429 . S
C2146 C2138 1.574 . S
C2146 H2141 0.949 . S
C2146 C2152 1.368 . S
C2147 C2131 1.349 . S
C2147 H2139 0.950 . S
C2147 C2145 1.327 . S
C2148 C2136 1.349 . S
C2148 H2142 0.950 . S
C2148 C2149 1.327 . S
C2149 H2143 0.950 . S
C2149 C2148 1.327 . S
C2149 C2153 1.429 . S
C2150 C2133 1.574 . S
C2150 H2144 0.949 . S
C2150 C2154 1.368 . S
C2151 C2132 1.429 . S
C2151 C2145 1.429 . S
C2151 C2152 1.523 . S
C2152 C2133 1.368 . S
C2152 C2146 1.368 . S
C2152 C2151 1.523 . S
C2153 C2137 1.429 . S
C2153 C2149 1.429 . S
C2153 C2154 1.523 . S
C2154 C2138 1.368 . S
C2154 C2150 1.368 . S
C2154 C2153 1.523 . S
H2155 C2130 0.950 . S
H2156 C2132 0.950 . S
H2157 C2133 0.949 . S
H2158 C2135 0.950 . S
H2159 C2137 0.950 . S
C2160 C2161 1.349 . S
C2160 C2162 1.327 . S
C2160 H2185 0.949 1_455 S
C2161 C2160 1.349 . S
C2161 C2177 1.349 . S
C2162 C2160 1.327 . S
C2162 C2181 1.429 . S
C2162 H2186 0.950 1_455 S
C2163 C2180 1.574 . S
C2163 C2182 1.368 . S
C2163 H2187 0.949 . S
H2164 C2168 1.006 . S
C2165 C2166 1.349 . S
C2165 C2167 1.327 . S
C2165 H2188 0.950 . S
C2166 C2165 1.349 . S
C2166 C2178 1.349 1_455 S
C2167 C2165 1.327 . S
C2167 C2183 1.429 . S
C2167 H2189 0.950 . S
C2168 H2164 1.006 . S
C2168 C2176 1.511 1_655 S
C2168 C2184 1.360 1_655 S
H2169 C2177 0.950 . S
H2170 C2175 0.950 . S
H2171 C2176 0.949 1_655 S
H2172 C2178 0.950 . S
H2173 C2179 0.950 . S
H2174 C2180 0.949 . S
C2175 H2170 0.950 . S
C2175 C2177 1.327 . S
C2175 C2181 1.429 . S
C2176 C2168 1.511 1_455 S
C2176 H2171 0.949 1_455 S
C2176 C2182 1.387 . S
C2177 C2161 1.349 . S
C2177 H2169 0.950 . S
C2177 C2175 1.327 . S
C2178 C2166 1.349 1_655 S
C2178 H2172 0.950 . S
C2178 C2179 1.327 . S
C2179 H2173 0.950 . S
C2179 C2178 1.327 . S
C2179 C2183 1.429 1_655 S
C2180 C2163 1.574 . S
C2180 H2174 0.949 . S
C2180 C2184 1.368 . S
C2181 C2162 1.429 . S
C2181 C2175 1.429 . S
C2181 C2182 1.523 . S
C2182 C2163 1.368 . S
C2182 C2176 1.387 . S
C2182 C2181 1.523 . S
C2183 C2167 1.429 . S
C2183 C2179 1.429 1_455 S
C2183 C2184 1.523 . S
C2184 C2168 1.360 1_455 S
C2184 C2180 1.368 . S
C2184 C2183 1.523 . S
H2185 C2160 0.949 1_655 S
H2186 C2162 0.950 1_655 S
H2187 C2163 0.949 . S
H2188 C2165 0.950 . S
H2189 C2167 0.950 . S
C2190 C2191 1.349 . S
C2190 C2192 1.327 . S
C2190 H2215 0.950 . S
C2191 C2190 1.349 . S
C2191 C2207 1.349 . S
C2192 C2190 1.327 . S
C2192 C2211 1.429 . S
C2192 H2216 0.950 . S
C2193 C2210 1.574 . S
C2193 C2212 1.368 . S
C2193 H2217 0.949 . S
H2194 C2198 0.949 . S
C2195 C2196 1.349 . S
C2195 C2197 1.327 . S
C2195 H2218 0.950 . S
C2196 C2195 1.349 . S
C2196 C2208 1.349 . S
C2197 C2195 1.327 . S
C2197 C2213 1.429 . S
C2197 H2219 0.950 . S
C2198 H2194 0.949 . S
C2198 C2206 1.574 . S
C2198 C2214 1.368 . S
H2199 C2207 0.950 . S
H2200 C2205 0.950 . S
H2201 C2206 0.949 . S
H2202 C2208 0.950 . S
H2203 C2209 0.950 . S
H2204 C2210 0.949 . S
C2205 H2200 0.950 . S
C2205 C2207 1.327 . S
C2205 C2211 1.429 . S
C2206 C2198 1.574 . S
C2206 H2201 0.949 . S
C2206 C2212 1.368 . S
C2207 C2191 1.349 . S
C2207 H2199 0.950 . S
C2207 C2205 1.327 . S
C2208 C2196 1.349 . S
C2208 H2202 0.950 . S
C2208 C2209 1.327 . S
C2209 H2203 0.950 . S
C2209 C2208 1.327 . S
C2209 C2213 1.429 . S
C2210 C2193 1.574 . S
C2210 H2204 0.949 . S
C2210 C2214 1.368 . S
C2211 C2192 1.429 . S
C2211 C2205 1.429 . S
C2211 C2212 1.523 . S
C2212 C2193 1.368 . S
C2212 C2206 1.368 . S
C2212 C2211 1.523 . S
C2213 C2197 1.429 . S
C2213 C2209 1.429 . S
C2213 C2214 1.523 . S
C2214 C2198 1.368 . S
C2214 C2210 1.368 . S
C2214 C2213 1.523 . S
H2215 C2190 0.950 . S
H2216 C2192 0.950 . S
H2217 C2193 0.949 . S
H2218 C2195 0.950 . S
H2219 C2197 0.950 . S
C2220 C2221 1.349 . S
C2220 C2222 1.327 . S
C2220 H2245 0.950 . S
C2221 C2220 1.349 . S
C2221 C2237 1.349 1_565 S
C2222 C2220 1.327 . S
C2222 C2241 1.429 . S
C2222 H2246 0.950 . S
C2223 C2240 1.574 . S
C2223 C2242 1.368 1_545 S
C2223 H2247 0.949 . S
H2224 C2228 0.949 . S
C2225 C2226 1.349 1_545 S
C2225 C2227 1.327 . S
C2225 H2248 0.950 . S
C2226 C2225 1.349 1_565 S
C2226 C2238 1.349 . S
C2227 C2225 1.327 . S
C2227 C2243 1.429 1_545 S
C2227 H2249 0.950 . S
C2228 H2224 0.949 . S
C2228 C2236 1.574 . S
C2228 C2244 1.368 . S
H2229 C2237 0.950 . S
H2230 C2235 0.950 . S
H2231 C2236 0.949 . S
H2232 C2238 0.950 . S
H2233 C2239 0.950 . S
H2234 C2240 0.949 . S
C2235 H2230 0.950 . S
C2235 C2237 1.327 . S
C2235 C2241 1.429 1_545 S
C2236 C2228 1.574 . S
C2236 H2231 0.949 . S
C2236 C2242 1.368 . S
C2237 C2221 1.349 1_545 S
C2237 H2229 0.950 . S
C2237 C2235 1.327 . S
C2238 C2226 1.349 . S
C2238 H2232 0.950 . S
C2238 C2239 1.327 . S
C2239 H2233 0.950 . S
C2239 C2238 1.327 . S
C2239 C2243 1.429 . S
C2240 C2223 1.574 . S
C2240 H2234 0.949 . S
C2240 C2244 1.368 1_545 S
C2241 C2222 1.429 . S
C2241 C2235 1.429 1_565 S
C2241 C2242 1.523 . S
C2242 C2223 1.368 1_565 S
C2242 C2236 1.368 . S
C2242 C2241 1.523 . S
C2243 C2227 1.429 1_565 S
C2243 C2239 1.429 . S
C2243 C2244 1.523 . S
C2244 C2228 1.368 . S
C2244 C2240 1.368 1_565 S
C2244 C2243 1.523 . S
H2245 C2220 0.950 . S
H2246 C2222 0.950 . S
H2247 C2223 0.949 . S
H2248 C2225 0.950 . S
H2249 C2227 0.950 . S
C2250 C2251 1.349 . S
C2250 C2252 1.327 . S
C2250 H2275 0.950 . S
C2251 C2250 1.349 . S
C2251 C2267 1.349 . S
C2252 C2250 1.327 . S
C2252 C2271 1.429 . S
C2252 H2276 0.950 . S
C2253 C2270 1.608 . S
C2253 C2272 1.368 . S
C2253 H2277 0.957 1_565 S
H2254 C2258 0.949 . S
C2255 C2256 1.349 1_545 S
C2255 C2257 1.327 . S
C2255 H2278 0.950 . S
C2256 C2255 1.349 1_565 S
C2256 C2268 1.349 . S
C2257 C2255 1.327 . S
C2257 C2273 1.429 1_545 S
C2257 H2279 0.950 . S
C2258 H2254 0.949 . S
C2258 C2266 1.574 . S
C2258 C2274 1.368 . S
H2259 C2267 0.950 . S
H2260 C2265 0.950 . S
H2261 C2266 0.949 . S
H2262 C2268 0.950 . S
H2263 C2269 0.950 . S
H2264 C2270 0.929 1_545 S
C2265 H2260 0.950 . S
C2265 C2267 1.327 . S
C2265 C2271 1.429 . S
C2266 C2258 1.574 . S
C2266 H2261 0.949 . S
C2266 C2272 1.368 . S
C2267 C2251 1.349 . S
C2267 H2259 0.950 . S
C2267 C2265 1.327 . S
C2268 C2256 1.349 . S
C2268 H2262 0.950 . S
C2268 C2269 1.327 . S
C2269 H2263 0.950 . S
C2269 C2268 1.327 . S
C2269 C2273 1.429 . S
C2270 C2253 1.608 . S
C2270 H2264 0.929 1_565 S
C2270 C2274 1.361 . S
C2271 C2252 1.429 . S
C2271 C2265 1.429 . S
C2271 C2272 1.523 . S
C2272 C2253 1.368 . S
C2272 C2266 1.368 . S
C2272 C2271 1.523 . S
C2273 C2257 1.429 1_565 S
C2273 C2269 1.429 . S
C2273 C2274 1.523 . S
C2274 C2258 1.368 . S
C2274 C2270 1.361 . S
C2274 C2273 1.523 . S
H2275 C2250 0.950 . S
H2276 C2252 0.950 . S
H2277 C2253 0.957 1_545 S
H2278 C2255 0.950 . S
H2279 C2257 0.950 . S
C2280 C2281 1.349 . S
C2280 C2282 1.327 . S
C2280 H2305 0.950 . S
C2281 C2280 1.349 . S
C2281 C2297 1.349 1_455 S
C2282 C2280 1.327 . S
C2282 C2301 1.429 . S
C2282 H2306 0.950 . S
C2283 C2300 1.574 . S
C2283 C2302 1.368 1_655 S
C2283 H2307 0.949 . S
H2284 C2288 0.949 . S
C2285 C2286 1.281 1_655 S
C2285 C2287 1.327 . S
C2285 H2308 0.950 . S
C2286 C2285 1.281 1_455 S
C2286 C2298 1.386 . S
C2287 C2285 1.327 . S
C2287 C2303 1.429 1_655 S
C2287 H2309 0.950 . S
C2288 H2284 0.949 . S
C2288 C2296 1.574 . S
C2288 C2304 1.368 . S
H2289 C2297 0.950 . S
H2290 C2295 0.950 . S
H2291 C2296 0.949 . S
H2292 C2298 0.950 . S
H2293 C2299 0.950 . S
H2294 C2300 0.949 . S
C2295 H2290 0.950 . S
C2295 C2297 1.327 . S
C2295 C2301 1.429 1_655 S
C2296 C2288 1.574 . S
C2296 H2291 0.949 . S
C2296 C2302 1.368 . S
C2297 C2281 1.349 1_655 S
C2297 H2289 0.950 . S
C2297 C2295 1.327 . S
C2298 C2286 1.386 . S
C2298 H2292 0.950 . S
C2298 C2299 1.327 . S
C2299 H2293 0.950 . S
C2299 C2298 1.327 . S
C2299 C2303 1.429 . S
C2300 C2283 1.574 . S
C2300 H2294 0.949 . S
C2300 C2304 1.368 1_655 S
C2301 C2282 1.429 . S
C2301 C2295 1.429 1_455 S
C2301 C2302 1.523 . S
C2302 C2283 1.368 1_455 S
C2302 C2296 1.368 . S
C2302 C2301 1.523 . S
C2303 C2287 1.429 1_455 S
C2303 C2299 1.429 . S
C2303 C2304 1.523 . S
C2304 C2288 1.368 . S
C2304 C2300 1.368 1_455 S
C2304 C2303 1.523 . S
H2305 C2280 0.950 . S
H2306 C2282 0.950 . S
H2307 C2283 0.949 . S
H2308 C2285 0.950 . S
H2309 C2287 0.950 . S
C2310 C2311 1.349 . S
C2310 C2312 1.327 . S
C2310 H2335 0.950 . S
C2311 C2310 1.349 . S
C2311 C2327 1.349 . S
C2312 C2310 1.327 . S
C2312 C2331 1.429 . S
C2312 H2336 0.950 . S
C2313 C2330 1.574 . S
C2313 C2332 1.368 . S
C2313 H2337 0.949 . S
H2314 C2318 0.949 . S
C2315 C2316 1.349 . S
C2315 C2317 1.327 . S
C2315 H2338 0.950 . S
C2316 C2315 1.349 . S
C2316 C2328 1.349 . S
C2317 C2315 1.327 . S
C2317 C2333 1.429 . S
C2317 H2339 0.950 . S
C2318 H2314 0.949 . S
C2318 C2326 1.574 . S
C2318 C2334 1.368 . S
H2319 C2327 0.950 . S
H2320 C2325 0.950 . S
H2321 C2326 0.949 . S
H2322 C2328 0.950 . S
H2323 C2329 0.950 . S
H2324 C2330 0.949 . S
C2325 H2320 0.950 . S
C2325 C2327 1.327 . S
C2325 C2331 1.429 . S
C2326 C2318 1.574 . S
C2326 H2321 0.949 . S
C2326 C2332 1.368 . S
C2327 C2311 1.349 . S
C2327 H2319 0.950 . S
C2327 C2325 1.327 . S
C2328 C2316 1.349 . S
C2328 H2322 0.950 . S
C2328 C2329 1.327 . S
C2329 H2323 0.950 . S
C2329 C2328 1.327 . S
C2329 C2333 1.429 . S
C2330 C2313 1.574 . S
C2330 H2324 0.949 . S
C2330 C2334 1.368 . S
C2331 C2312 1.429 . S
C2331 C2325 1.429 . S
C2331 C2332 1.523 . S
C2332 C2313 1.368 . S
C2332 C2326 1.368 . S
C2332 C2331 1.523 . S
C2333 C2317 1.429 . S
C2333 C2329 1.429 . S
C2333 C2334 1.523 . S
C2334 C2318 1.368 . S
C2334 C2330 1.368 . S
C2334 C2333 1.523 . S
H2335 C2310 0.950 . S
H2336 C2312 0.950 . S
H2337 C2313 0.949 . S
H2338 C2315 0.950 . S
H2339 C2317 0.950 . S
C2340 C2341 1.349 . S
C2340 C2342 1.327 . S
C2340 H2365 0.950 . S
C2341 C2340 1.349 . S
C2341 C2357 1.349 . S
C2342 C2340 1.327 . S
C2342 C2361 1.429 . S
C2342 H2366 0.950 . S
C2343 C2360 1.574 . S
C2343 C2362 1.368 . S
C2343 H2367 0.949 . S
H2344 C2348 0.949 . S
C2345 C2346 1.349 . S
C2345 C2347 1.327 . S
C2345 H2368 0.950 . S
C2346 C2345 1.349 . S
C2346 C2358 1.349 . S
C2347 C2345 1.327 . S
C2347 C2363 1.429 . S
C2347 H2369 0.950 . S
C2348 H2344 0.949 . S
C2348 C2356 1.574 . S
C2348 C2364 1.368 . S
H2349 C2357 0.950 . S
H2350 C2355 0.950 . S
H2351 C2356 0.949 . S
H2352 C2358 0.950 . S
H2353 C2359 0.950 . S
H2354 C2360 0.949 . S
C2355 H2350 0.950 . S
C2355 C2357 1.327 . S
C2355 C2361 1.429 . S
C2356 C2348 1.574 . S
C2356 H2351 0.949 . S
C2356 C2362 1.368 . S
C2357 C2341 1.349 . S
C2357 H2349 0.950 . S
C2357 C2355 1.327 . S
C2358 C2346 1.349 . S
C2358 H2352 0.950 . S
C2358 C2359 1.327 . S
C2359 H2353 0.950 . S
C2359 C2358 1.327 . S
C2359 C2363 1.429 . S
C2360 C2343 1.574 . S
C2360 H2354 0.949 . S
C2360 C2364 1.368 . S
C2361 C2342 1.429 . S
C2361 C2355 1.429 . S
C2361 C2362 1.523 . S
C2362 C2343 1.368 . S
C2362 C2356 1.368 . S
C2362 C2361 1.523 . S
C2363 C2347 1.429 . S
C2363 C2359 1.429 . S
C2363 C2364 1.523 . S
C2364 C2348 1.368 . S
C2364 C2360 1.368 . S
C2364 C2363 1.523 . S
H2365 C2340 0.950 . S
H2366 C2342 0.950 . S
H2367 C2343 0.949 . S
H2368 C2345 0.950 . S
H2369 C2347 0.950 . S
C2370 C2371 1.349 . S
C2370 C2372 1.327 . S
C2370 H2395 0.950 . S
C2371 C2370 1.349 . S
C2371 C2387 1.349 . S
C2372 C2370 1.327 . S
C2372 C2391 1.429 . S
C2372 H2396 0.950 . S
C2373 C2390 1.574 . S
C2373 C2392 1.368 . S
C2373 H2397 0.949 . S
H2374 C2378 0.949 . S
C2375 C2376 1.349 . S
C2375 C2377 1.327 . S
C2375 H2398 0.950 . S
C2376 C2375 1.349 . S
C2376 C2388 1.349 . S
C2377 C2375 1.327 . S
C2377 C2393 1.429 . S
C2377 H2399 0.950 . S
C2378 H2374 0.949 . S
C2378 C2386 1.574 . S
C2378 C2394 1.368 . S
H2379 C2387 0.950 . S
H2380 C2385 0.950 . S
H2381 C2386 0.949 . S
H2382 C2388 0.950 . S
H2383 C2389 0.950 . S
H2384 C2390 0.949 . S
C2385 H2380 0.950 . S
C2385 C2387 1.327 . S
C2385 C2391 1.429 . S
C2386 C2378 1.574 . S
C2386 H2381 0.949 . S
C2386 C2392 1.368 . S
C2387 C2371 1.349 . S
C2387 H2379 0.950 . S
C2387 C2385 1.327 . S
C2388 C2376 1.349 . S
C2388 H2382 0.950 . S
C2388 C2389 1.327 . S
C2389 H2383 0.950 . S
C2389 C2388 1.327 . S
C2389 C2393 1.429 . S
C2390 C2373 1.574 . S
C2390 H2384 0.949 . S
C2390 C2394 1.368 . S
C2391 C2372 1.429 . S
C2391 C2385 1.429 . S
C2391 C2392 1.523 . S
C2392 C2373 1.368 . S
C2392 C2386 1.368 . S
C2392 C2391 1.523 . S
C2393 C2377 1.429 . S
C2393 C2389 1.429 . S
C2393 C2394 1.523 . S
C2394 C2378 1.368 . S
C2394 C2390 1.368 . S
C2394 C2393 1.523 . S
H2395 C2370 0.950 . S
H2396 C2372 0.950 . S
H2397 C2373 0.949 . S
H2398 C2375 0.950 . S
H2399 C2377 0.950 . S
C2400 C2401 1.349 . S
C2400 C2402 1.327 . S
C2400 H2425 0.950 . S
C2401 C2400 1.349 . S
C2401 C2417 1.349 . S
C2402 C2400 1.327 . S
C2402 C2421 1.429 . S
C2402 H2426 0.950 . S
C2403 C2420 1.574 . S
C2403 C2422 1.368 . S
C2403 H2427 0.949 . S
H2404 C2408 0.949 . S
C2405 C2406 1.349 . S
C2405 C2407 1.327 . S
C2405 H2428 0.950 . S
C2406 C2405 1.349 . S
C2406 C2418 1.349 . S
C2407 C2405 1.327 . S
C2407 C2423 1.429 . S
C2407 H2429 0.950 . S
C2408 H2404 0.949 . S
C2408 C2416 1.574 . S
C2408 C2424 1.368 . S
H2409 C2417 0.950 . S
H2410 C2415 0.950 . S
H2411 C2416 0.949 . S
H2412 C2418 0.950 . S
H2413 C2419 0.950 . S
H2414 C2420 0.949 . S
C2415 H2410 0.950 . S
C2415 C2417 1.327 . S
C2415 C2421 1.429 . S
C2416 C2408 1.574 . S
C2416 H2411 0.949 . S
C2416 C2422 1.368 . S
C2417 C2401 1.349 . S
C2417 H2409 0.950 . S
C2417 C2415 1.327 . S
C2418 C2406 1.349 . S
C2418 H2412 0.950 . S
C2418 C2419 1.327 . S
C2419 H2413 0.950 . S
C2419 C2418 1.327 . S
C2419 C2423 1.429 . S
C2420 C2403 1.574 . S
C2420 H2414 0.949 . S
C2420 C2424 1.368 . S
C2421 C2402 1.429 . S
C2421 C2415 1.429 . S
C2421 C2422 1.523 . S
C2422 C2403 1.368 . S
C2422 C2416 1.368 . S
C2422 C2421 1.523 . S
C2423 C2407 1.429 . S
C2423 C2419 1.429 . S
C2423 C2424 1.523 . S
C2424 C2408 1.368 . S
C2424 C2420 1.368 . S
C2424 C2423 1.523 . S
H2425 C2400 0.950 . S
H2426 C2402 0.950 . S
H2427 C2403 0.949 . S
H2428 C2405 0.950 . S
H2429 C2407 0.950 . S
C2430 C2431 1.349 . S
C2430 C2432 1.327 . S
C2430 H2455 0.950 1_545 S
C2431 C2430 1.349 . S
C2431 C2447 1.349 . S
C2432 C2430 1.327 . S
C2432 C2451 1.429 . S
C2432 H2456 0.950 1_545 S
C2433 C2450 1.574 . S
C2433 C2452 1.368 . S
C2433 H2457 0.949 . S
H2434 C2438 0.949 . S
C2435 C2436 1.349 . S
C2435 C2437 1.327 . S
C2435 H2458 0.950 . S
C2436 C2435 1.349 . S
C2436 C2448 1.349 1_545 S
C2437 C2435 1.327 . S
C2437 C2453 1.429 . S
C2437 H2459 0.950 . S
C2438 H2434 0.949 . S
C2438 C2446 1.574 . S
C2438 C2454 1.368 1_565 S
H2439 C2447 0.950 . S
H2440 C2445 0.950 . S
H2441 C2446 0.949 . S
H2442 C2448 0.950 . S
H2443 C2449 0.950 . S
H2444 C2450 0.949 . S
C2445 H2440 0.950 . S
C2445 C2447 1.327 . S
C2445 C2451 1.429 . S
C2446 C2438 1.574 . S
C2446 H2441 0.949 . S
C2446 C2452 1.368 1_565 S
C2447 C2431 1.349 . S
C2447 H2439 0.950 . S
C2447 C2445 1.327 . S
C2448 C2436 1.349 1_565 S
C2448 H2442 0.950 . S
C2448 C2449 1.327 . S
C2449 H2443 0.950 . S
C2449 C2448 1.327 . S
C2449 C2453 1.429 1_565 S
C2450 C2433 1.574 . S
C2450 H2444 0.949 . S
C2450 C2454 1.368 . S
C2451 C2432 1.429 . S
C2451 C2445 1.429 . S
C2451 C2452 1.523 . S
C2452 C2433 1.368 . S
C2452 C2446 1.368 1_545 S
C2452 C2451 1.523 . S
C2453 C2437 1.429 . S
C2453 C2449 1.429 1_545 S
C2453 C2454 1.523 . S
C2454 C2438 1.368 1_545 S
C2454 C2450 1.368 . S
C2454 C2453 1.523 . S
H2455 C2430 0.950 1_565 S
H2456 C2432 0.950 1_565 S
H2457 C2433 0.949 . S
H2458 C2435 0.950 . S
H2459 C2437 0.950 . S
C2460 C2461 1.349 . S
C2460 C2462 1.327 . S
C2460 H2485 0.950 . S
C2461 C2460 1.349 . S
C2461 C2477 1.349 1_655 S
C2462 C2460 1.327 . S
C2462 C2481 1.429 . S
C2462 H2486 0.950 . S
C2463 C2480 1.574 . S
C2463 C2482 1.368 1_455 S
C2463 H2487 0.949 . S
H2464 C2468 0.949 . S
C2465 C2466 1.349 1_455 S
C2465 C2467 1.327 . S
C2465 H2488 0.950 . S
C2466 C2465 1.349 1_655 S
C2466 C2478 1.349 . S
C2467 C2465 1.327 . S
C2467 C2483 1.429 1_455 S
C2467 H2489 0.950 . S
C2468 H2464 0.949 . S
C2468 C2476 1.574 . S
C2468 C2484 1.368 . S
H2469 C2477 0.950 . S
H2470 C2475 0.950 . S
H2471 C2476 0.949 . S
H2472 C2478 0.950 . S
H2473 C2479 0.950 . S
H2474 C2480 0.949 . S
C2475 H2470 0.950 . S
C2475 C2477 1.327 . S
C2475 C2481 1.429 1_455 S
C2476 C2468 1.574 . S
C2476 H2471 0.949 . S
C2476 C2482 1.368 . S
C2477 C2461 1.349 1_455 S
C2477 H2469 0.950 . S
C2477 C2475 1.327 . S
C2478 C2466 1.349 . S
C2478 H2472 0.950 . S
C2478 C2479 1.327 . S
C2479 H2473 0.950 . S
C2479 C2478 1.327 . S
C2479 C2483 1.429 . S
C2480 C2463 1.574 . S
C2480 H2474 0.949 . S
C2480 C2484 1.368 1_455 S
C2481 C2462 1.429 . S
C2481 C2475 1.429 1_655 S
C2481 C2482 1.523 . S
C2482 C2463 1.368 1_655 S
C2482 C2476 1.368 . S
C2482 C2481 1.523 . S
C2483 C2467 1.429 1_655 S
C2483 C2479 1.429 . S
C2483 C2484 1.523 . S
C2484 C2468 1.368 . S
C2484 C2480 1.368 1_655 S
C2484 C2483 1.523 . S
H2485 C2460 0.950 . S
H2486 C2462 0.950 . S
H2487 C2463 0.949 . S
H2488 C2465 0.950 . S
H2489 C2467 0.950 . S
C2490 C2491 1.349 . S
C2490 C2492 1.327 . S
C2490 H2515 0.950 . S
C2491 C2490 1.349 . S
C2491 C2507 1.349 . S
C2492 C2490 1.327 . S
C2492 C2511 1.429 . S
C2492 H2516 0.950 . S
C2493 C2510 1.574 . S
C2493 C2512 1.368 . S
C2493 H2517 0.949 . S
H2494 C2498 0.949 . S
C2495 C2496 1.349 . S
C2495 C2497 1.327 . S
C2495 H2518 0.950 . S
C2496 C2495 1.349 . S
C2496 C2508 1.349 . S
C2497 C2495 1.327 . S
C2497 C2513 1.429 . S
C2497 H2519 0.950 . S
C2498 H2494 0.949 . S
C2498 C2506 1.574 . S
C2498 C2514 1.368 . S
H2499 C2507 0.950 . S
H2500 C2505 0.950 . S
H2501 C2506 0.949 . S
H2502 C2508 0.950 . S
H2503 C2509 0.950 . S
H2504 C2510 0.949 . S
C2505 H2500 0.950 . S
C2505 C2507 1.327 . S
C2505 C2511 1.429 . S
C2506 C2498 1.574 . S
C2506 H2501 0.949 . S
C2506 C2512 1.368 . S
C2507 C2491 1.349 . S
C2507 H2499 0.950 . S
C2507 C2505 1.327 . S
C2508 C2496 1.349 . S
C2508 H2502 0.950 . S
C2508 C2509 1.327 . S
C2509 H2503 0.950 . S
C2509 C2508 1.327 . S
C2509 C2513 1.429 . S
C2510 C2493 1.574 . S
C2510 H2504 0.949 . S
C2510 C2514 1.368 . S
C2511 C2492 1.429 . S
C2511 C2505 1.429 . S
C2511 C2512 1.523 . S
C2512 C2493 1.368 . S
C2512 C2506 1.368 . S
C2512 C2511 1.523 . S
C2513 C2497 1.429 . S
C2513 C2509 1.429 . S
C2513 C2514 1.523 . S
C2514 C2498 1.368 . S
C2514 C2510 1.368 . S
C2514 C2513 1.523 . S
H2515 C2490 0.950 . S
H2516 C2492 0.950 . S
H2517 C2493 0.949 . S
H2518 C2495 0.950 . S
H2519 C2497 0.950 . S
C2520 C2521 1.349 . S
C2520 C2522 1.327 . S
C2520 H2545 0.950 . S
C2521 C2520 1.349 . S
C2521 C2537 1.349 . S
C2522 C2520 1.327 . S
C2522 C2541 1.429 . S
C2522 H2546 0.950 . S
C2523 C2540 1.574 . S
C2523 C2542 1.368 . S
C2523 H2547 0.949 . S
H2524 C2528 0.949 . S
C2525 C2526 1.349 . S
C2525 C2527 1.327 . S
C2525 H2548 0.950 . S
C2526 C2525 1.349 . S
C2526 C2538 1.349 . S
C2527 C2525 1.327 . S
C2527 C2543 1.429 . S
C2527 H2549 0.950 . S
C2528 H2524 0.949 . S
C2528 C2536 1.574 . S
C2528 C2544 1.368 . S
H2529 C2537 0.950 . S
H2530 C2535 0.950 . S
H2531 C2536 0.949 . S
H2532 C2538 0.950 . S
H2533 C2539 0.950 . S
H2534 C2540 0.949 . S
C2535 H2530 0.950 . S
C2535 C2537 1.327 . S
C2535 C2541 1.429 . S
C2536 C2528 1.574 . S
C2536 H2531 0.949 . S
C2536 C2542 1.368 . S
C2537 C2521 1.349 . S
C2537 H2529 0.950 . S
C2537 C2535 1.327 . S
C2538 C2526 1.349 . S
C2538 H2532 0.950 . S
C2538 C2539 1.327 . S
C2539 H2533 0.950 . S
C2539 C2538 1.327 . S
C2539 C2543 1.429 . S
C2540 C2523 1.574 . S
C2540 H2534 0.949 . S
C2540 C2544 1.368 . S
C2541 C2522 1.429 . S
C2541 C2535 1.429 . S
C2541 C2542 1.523 . S
C2542 C2523 1.368 . S
C2542 C2536 1.368 . S
C2542 C2541 1.523 . S
C2543 C2527 1.429 . S
C2543 C2539 1.429 . S
C2543 C2544 1.523 . S
C2544 C2528 1.368 . S
C2544 C2540 1.368 . S
C2544 C2543 1.523 . S
H2545 C2520 0.950 . S
H2546 C2522 0.950 . S
H2547 C2523 0.949 . S
H2548 C2525 0.950 . S
H2549 C2527 0.950 . S
C2550 C2551 1.349 . S
C2550 C2552 1.327 . S
C2550 H2575 0.950 . S
C2551 C2550 1.349 . S
C2551 C2567 1.349 . S
C2552 C2550 1.327 . S
C2552 C2571 1.429 . S
C2552 H2576 0.950 . S
C2553 C2570 1.574 . S
C2553 C2572 1.368 . S
C2553 H2577 0.949 . S
H2554 C2558 0.949 . S
C2555 C2556 1.349 . S
C2555 C2557 1.327 . S
C2555 H2578 0.950 . S
C2556 C2555 1.349 . S
C2556 C2568 1.349 . S
C2557 C2555 1.327 . S
C2557 C2573 1.429 . S
C2557 H2579 0.950 . S
C2558 H2554 0.949 . S
C2558 C2566 1.574 . S
C2558 C2574 1.368 . S
H2559 C2567 0.950 . S
H2560 C2565 0.950 . S
H2561 C2566 0.949 . S
H2562 C2568 0.950 . S
H2563 C2569 0.950 . S
H2564 C2570 0.949 . S
C2565 H2560 0.950 . S
C2565 C2567 1.327 . S
C2565 C2571 1.429 . S
C2566 C2558 1.574 . S
C2566 H2561 0.949 . S
C2566 C2572 1.368 . S
C2567 C2551 1.349 . S
C2567 H2559 0.950 . S
C2567 C2565 1.327 . S
C2568 C2556 1.349 . S
C2568 H2562 0.950 . S
C2568 C2569 1.327 . S
C2569 H2563 0.950 . S
C2569 C2568 1.327 . S
C2569 C2573 1.429 . S
C2570 C2553 1.574 . S
C2570 H2564 0.949 . S
C2570 C2574 1.368 . S
C2571 C2552 1.429 . S
C2571 C2565 1.429 . S
C2571 C2572 1.523 . S
C2572 C2553 1.368 . S
C2572 C2566 1.368 . S
C2572 C2571 1.523 . S
C2573 C2557 1.429 . S
C2573 C2569 1.429 . S
C2573 C2574 1.523 . S
C2574 C2558 1.368 . S
C2574 C2570 1.368 . S
C2574 C2573 1.523 . S
H2575 C2550 0.950 . S
H2576 C2552 0.950 . S
H2577 C2553 0.949 . S
H2578 C2555 0.950 . S
H2579 C2557 0.950 . S
C2580 C2581 1.349 . S
C2580 C2582 1.327 . S
C2580 H2605 0.950 . S
C2581 C2580 1.349 . S
C2581 C2597 1.349 . S
C2582 C2580 1.327 . S
C2582 C2601 1.429 . S
C2582 H2606 0.950 . S
C2583 C2600 1.574 . S
C2583 C2602 1.368 . S
C2583 H2607 0.949 . S
H2584 C2588 0.949 . S
C2585 C2586 1.349 . S
C2585 C2587 1.327 . S
C2585 H2608 0.950 . S
C2586 C2585 1.349 . S
C2586 C2598 1.349 . S
C2587 C2585 1.327 . S
C2587 C2603 1.429 . S
C2587 H2609 0.950 . S
C2588 H2584 0.949 . S
C2588 C2596 1.574 . S
C2588 C2604 1.368 . S
H2589 C2597 0.950 . S
H2590 C2595 0.950 . S
H2591 C2596 0.949 . S
H2592 C2598 0.950 . S
H2593 C2599 0.950 . S
H2594 C2600 0.949 . S
C2595 H2590 0.950 . S
C2595 C2597 1.327 . S
C2595 C2601 1.429 . S
C2596 C2588 1.574 . S
C2596 H2591 0.949 . S
C2596 C2602 1.368 . S
C2597 C2581 1.349 . S
C2597 H2589 0.950 . S
C2597 C2595 1.327 . S
C2598 C2586 1.349 . S
C2598 H2592 0.950 . S
C2598 C2599 1.327 . S
C2599 H2593 0.950 . S
C2599 C2598 1.327 . S
C2599 C2603 1.429 . S
C2600 C2583 1.574 . S
C2600 H2594 0.949 . S
C2600 C2604 1.368 . S
C2601 C2582 1.429 . S
C2601 C2595 1.429 . S
C2601 C2602 1.523 . S
C2602 C2583 1.368 . S
C2602 C2596 1.368 . S
C2602 C2601 1.523 . S
C2603 C2587 1.429 . S
C2603 C2599 1.429 . S
C2603 C2604 1.523 . S
C2604 C2588 1.368 . S
C2604 C2600 1.368 . S
C2604 C2603 1.523 . S
H2605 C2580 0.950 . S
H2606 C2582 0.950 . S
H2607 C2583 0.949 . S
H2608 C2585 0.950 . S
H2609 C2587 0.950 . S
C2610 C2611 1.349 . S
C2610 C2612 1.327 . S
C2610 H2635 0.950 . S
C2611 C2610 1.349 . S
C2611 C2627 1.349 . S
C2612 C2610 1.327 . S
C2612 C2631 1.429 . S
C2612 H2636 0.950 . S
C2613 C2630 1.574 . S
C2613 C2632 1.368 . S
C2613 H2637 0.949 . S
H2614 C2618 0.949 . S
C2615 C2616 1.349 . S
C2615 C2617 1.327 . S
C2615 H2638 0.950 . S
C2616 C2615 1.349 . S
C2616 C2628 1.349 . S
C2617 C2615 1.327 . S
C2617 C2633 1.429 . S
C2617 H2639 0.950 . S
C2618 H2614 0.949 . S
C2618 C2626 1.574 . S
C2618 C2634 1.368 . S
H2619 C2627 0.950 . S
H2620 C2625 0.950 . S
H2621 C2626 0.949 . S
H2622 C2628 0.950 . S
H2623 C2629 0.950 . S
H2624 C2630 0.949 . S
C2625 H2620 0.950 . S
C2625 C2627 1.327 . S
C2625 C2631 1.429 . S
C2626 C2618 1.574 . S
C2626 H2621 0.949 . S
C2626 C2632 1.368 . S
C2627 C2611 1.349 . S
C2627 H2619 0.950 . S
C2627 C2625 1.327 . S
C2628 C2616 1.349 . S
C2628 H2622 0.950 . S
C2628 C2629 1.327 . S
C2629 H2623 0.950 . S
C2629 C2628 1.327 . S
C2629 C2633 1.429 . S
C2630 C2613 1.574 . S
C2630 H2624 0.949 . S
C2630 C2634 1.368 . S
C2631 C2612 1.429 . S
C2631 C2625 1.429 . S
C2631 C2632 1.523 . S
C2632 C2613 1.368 . S
C2632 C2626 1.368 . S
C2632 C2631 1.523 . S
C2633 C2617 1.429 . S
C2633 C2629 1.429 . S
C2633 C2634 1.523 . S
C2634 C2618 1.368 . S
C2634 C2630 1.368 . S
C2634 C2633 1.523 . S
H2635 C2610 0.950 . S
H2636 C2612 0.950 . S
H2637 C2613 0.949 . S
H2638 C2615 0.950 . S
H2639 C2617 0.950 . S
C2640 C2641 1.349 . S
C2640 C2642 1.327 . S
C2640 H2665 0.950 . S
C2641 C2640 1.349 . S
C2641 C2657 1.349 . S
C2642 C2640 1.327 . S
C2642 C2661 1.429 . S
C2642 H2666 0.950 . S
C2643 C2660 1.574 . S
C2643 C2662 1.368 . S
C2643 H2667 0.949 . S
H2644 C2648 0.949 . S
C2645 C2646 1.349 . S
C2645 C2647 1.327 . S
C2645 H2668 0.950 . S
C2646 C2645 1.349 . S
C2646 C2658 1.349 . S
C2647 C2645 1.327 . S
C2647 C2663 1.429 . S
C2647 H2669 0.950 . S
C2648 H2644 0.949 . S
C2648 C2656 1.574 . S
C2648 C2664 1.368 . S
H2649 C2657 0.950 . S
H2650 C2655 0.950 . S
H2651 C2656 0.949 . S
H2652 C2658 0.950 . S
H2653 C2659 0.950 . S
H2654 C2660 0.949 . S
C2655 H2650 0.950 . S
C2655 C2657 1.327 . S
C2655 C2661 1.429 . S
C2656 C2648 1.574 . S
C2656 H2651 0.949 . S
C2656 C2662 1.368 . S
C2657 C2641 1.349 . S
C2657 H2649 0.950 . S
C2657 C2655 1.327 . S
C2658 C2646 1.349 . S
C2658 H2652 0.950 . S
C2658 C2659 1.327 . S
C2659 H2653 0.950 . S
C2659 C2658 1.327 . S
C2659 C2663 1.429 . S
C2660 C2643 1.574 . S
C2660 H2654 0.949 . S
C2660 C2664 1.368 . S
C2661 C2642 1.429 . S
C2661 C2655 1.429 . S
C2661 C2662 1.523 . S
C2662 C2643 1.368 . S
C2662 C2656 1.368 . S
C2662 C2661 1.523 . S
C2663 C2647 1.429 . S
C2663 C2659 1.429 . S
C2663 C2664 1.523 . S
C2664 C2648 1.368 . S
C2664 C2660 1.368 . S
C2664 C2663 1.523 . S
H2665 C2640 0.950 . S
H2666 C2642 0.950 . S
H2667 C2643 0.949 . S
H2668 C2645 0.950 . S
H2669 C2647 0.950 . S
C2670 C2671 1.349 . S
C2670 C2672 1.327 . S
C2670 H2695 0.950 . S
C2671 C2670 1.349 . S
C2671 C2687 1.349 . S
C2672 C2670 1.327 . S
C2672 C2691 1.429 . S
C2672 H2696 0.950 . S
C2673 C2690 1.574 . S
C2673 C2692 1.368 . S
C2673 H2697 0.949 . S
H2674 C2678 0.949 . S
C2675 C2676 1.349 . S
C2675 C2677 1.327 . S
C2675 H2698 0.950 . S
C2676 C2675 1.349 . S
C2676 C2688 1.349 . S
C2677 C2675 1.327 . S
C2677 C2693 1.429 . S
C2677 H2699 0.950 . S
C2678 H2674 0.949 . S
C2678 C2686 1.574 . S
C2678 C2694 1.368 . S
H2679 C2687 0.950 . S
H2680 C2685 0.950 . S
H2681 C2686 0.949 . S
H2682 C2688 0.950 . S
H2683 C2689 0.950 . S
H2684 C2690 0.949 . S
C2685 H2680 0.950 . S
C2685 C2687 1.327 . S
C2685 C2691 1.429 . S
C2686 C2678 1.574 . S
C2686 H2681 0.949 . S
C2686 C2692 1.368 . S
C2687 C2671 1.349 . S
C2687 H2679 0.950 . S
C2687 C2685 1.327 . S
C2688 C2676 1.349 . S
C2688 H2682 0.950 . S
C2688 C2689 1.327 . S
C2689 H2683 0.950 . S
C2689 C2688 1.327 . S
C2689 C2693 1.429 . S
C2690 C2673 1.574 . S
C2690 H2684 0.949 . S
C2690 C2694 1.368 . S
C2691 C2672 1.429 . S
C2691 C2685 1.429 . S
C2691 C2692 1.523 . S
C2692 C2673 1.368 . S
C2692 C2686 1.368 . S
C2692 C2691 1.523 . S
C2693 C2677 1.429 . S
C2693 C2689 1.429 . S
C2693 C2694 1.523 . S
C2694 C2678 1.368 . S
C2694 C2690 1.368 . S
C2694 C2693 1.523 . S
H2695 C2670 0.950 . S
H2696 C2672 0.950 . S
H2697 C2673 0.949 . S
H2698 C2675 0.950 . S
H2699 C2677 0.950 . S
C2700 C2701 1.349 1_455 S
C2700 C2702 1.327 . S
C2700 H2725 0.950 . S
C2701 C2700 1.349 1_655 S
C2701 C2717 1.349 . S
C2702 C2700 1.327 . S
C2702 C2721 1.429 1_455 S
C2702 H2726 0.950 . S
C2703 C2720 1.574 . S
C2703 C2722 1.368 . S
C2703 H2727 0.949 . S
H2704 C2708 0.949 . S
C2705 C2706 1.349 . S
C2705 C2707 1.327 . S
C2705 H2728 0.950 . S
C2706 C2705 1.349 . S
C2706 C2718 1.349 1_655 S
C2707 C2705 1.327 . S
C2707 C2723 1.429 . S
C2707 H2729 0.950 . S
C2708 H2704 0.949 . S
C2708 C2716 1.574 . S
C2708 C2724 1.368 1_455 S
H2709 C2717 0.950 . S
H2710 C2715 0.950 . S
H2711 C2716 0.949 . S
H2712 C2718 0.950 . S
H2713 C2719 0.950 . S
H2714 C2720 0.949 . S
C2715 H2710 0.950 . S
C2715 C2717 1.327 . S
C2715 C2721 1.429 . S
C2716 C2708 1.574 . S
C2716 H2711 0.949 . S
C2716 C2722 1.368 1_455 S
C2717 C2701 1.349 . S
C2717 H2709 0.950 . S
C2717 C2715 1.327 . S
C2718 C2706 1.349 1_455 S
C2718 H2712 0.950 . S
C2718 C2719 1.327 . S
C2719 H2713 0.950 . S
C2719 C2718 1.327 . S
C2719 C2723 1.429 1_455 S
C2720 C2703 1.574 . S
C2720 H2714 0.949 . S
C2720 C2724 1.368 . S
C2721 C2702 1.429 1_655 S
C2721 C2715 1.429 . S
C2721 C2722 1.523 . S
C2722 C2703 1.368 . S
C2722 C2716 1.368 1_655 S
C2722 C2721 1.523 . S
C2723 C2707 1.429 . S
C2723 C2719 1.429 1_655 S
C2723 C2724 1.523 . S
C2724 C2708 1.368 1_655 S
C2724 C2720 1.368 . S
C2724 C2723 1.523 . S
H2725 C2700 0.950 . S
H2726 C2702 0.950 . S
H2727 C2703 0.949 . S
H2728 C2705 0.950 . S
H2729 C2707 0.950 . S
C2730 C2731 1.349 . S
C2730 C2732 1.327 . S
C2730 H2755 0.950 . S
C2731 C2730 1.349 . S
C2731 C2747 1.349 . S
C2732 C2730 1.327 . S
C2732 C2751 1.429 . S
C2732 H2756 0.950 . S
C2733 C2750 1.574 . S
C2733 C2752 1.368 . S
C2733 H2757 0.949 . S
H2734 C2738 0.949 . S
C2735 C2736 1.349 . S
C2735 C2737 1.327 . S
C2735 H2758 0.950 . S
C2736 C2735 1.349 . S
C2736 C2748 1.349 . S
C2737 C2735 1.327 . S
C2737 C2753 1.429 . S
C2737 H2759 0.950 . S
C2738 H2734 0.949 . S
C2738 C2746 1.574 . S
C2738 C2754 1.368 . S
H2739 C2747 0.950 . S
H2740 C2745 0.950 . S
H2741 C2746 0.949 . S
H2742 C2748 0.950 . S
H2743 C2749 0.950 . S
H2744 C2750 0.949 . S
C2745 H2740 0.950 . S
C2745 C2747 1.327 . S
C2745 C2751 1.429 . S
C2746 C2738 1.574 . S
C2746 H2741 0.949 . S
C2746 C2752 1.368 . S
C2747 C2731 1.349 . S
C2747 H2739 0.950 . S
C2747 C2745 1.327 . S
C2748 C2736 1.349 . S
C2748 H2742 0.950 . S
C2748 C2749 1.327 . S
C2749 H2743 0.950 . S
C2749 C2748 1.327 . S
C2749 C2753 1.429 . S
C2750 C2733 1.574 . S
C2750 H2744 0.949 . S
C2750 C2754 1.368 . S
C2751 C2732 1.429 . S
C2751 C2745 1.429 . S
C2751 C2752 1.523 . S
C2752 C2733 1.368 . S
C2752 C2746 1.368 . S
C2752 C2751 1.523 . S
C2753 C2737 1.429 . S
C2753 C2749 1.429 . S
C2753 C2754 1.523 . S
C2754 C2738 1.368 . S
C2754 C2750 1.368 . S
C2754 C2753 1.523 . S
H2755 C2730 0.950 . S
H2756 C2732 0.950 . S
H2757 C2733 0.949 . S
H2758 C2735 0.950 . S
H2759 C2737 0.950 . S
C2760 C2761 1.349 . S
C2760 C2762 1.327 . S
C2760 H2785 0.950 . S
C2761 C2760 1.349 . S
C2761 C2777 1.349 . S
C2762 C2760 1.327 . S
C2762 C2781 1.429 . S
C2762 H2786 0.950 . S
C2763 C2780 1.574 . S
C2763 C2782 1.368 . S
C2763 H2787 0.967 . S
H2764 C2768 0.949 . S
C2765 C2766 1.328 1_565 S
C2765 C2767 1.327 . S
C2765 H2788 0.950 . S
C2766 C2765 1.328 1_545 S
C2766 C2778 1.342 . S
C2767 C2765 1.327 . S
C2767 C2783 1.429 1_565 S
C2767 H2789 0.950 . S
C2768 H2764 0.949 . S
C2768 C2776 1.574 . S
C2768 C2784 1.368 . S
H2769 C2777 0.950 . S
H2770 C2775 0.950 . S
H2771 C2776 0.949 . S
H2772 C2778 0.950 . S
H2773 C2779 0.950 . S
H2774 C2780 0.949 1_565 S
C2775 H2770 0.950 . S
C2775 C2777 1.327 . S
C2775 C2781 1.429 . S
C2776 C2768 1.574 . S
C2776 H2771 0.949 . S
C2776 C2782 1.368 . S
C2777 C2761 1.349 . S
C2777 H2769 0.950 . S
C2777 C2775 1.327 . S
C2778 C2766 1.342 . S
C2778 H2772 0.950 . S
C2778 C2779 1.327 . S
C2779 H2773 0.950 . S
C2779 C2778 1.327 . S
C2779 C2783 1.429 . S
C2780 C2763 1.574 . S
C2780 H2774 0.949 1_545 S
C2780 C2784 1.368 . S
C2781 C2762 1.429 . S
C2781 C2775 1.429 . S
C2781 C2782 1.523 . S
C2782 C2763 1.368 . S
C2782 C2776 1.368 . S
C2782 C2781 1.523 . S
C2783 C2767 1.429 1_545 S
C2783 C2779 1.429 . S
C2783 C2784 1.523 . S
C2784 C2768 1.368 . S
C2784 C2780 1.368 . S
C2784 C2783 1.523 . S
H2785 C2760 0.950 . S
H2786 C2762 0.950 . S
H2787 C2763 0.967 . S
H2788 C2765 0.950 . S
H2789 C2767 0.950 . S
C631 C9 1.544 1_655 S
C636 C458 1.497 1_655 S
C661 C19 1.565 . S
C666 C471 1.530 . S
C696 C500 1.497 1_545 S
C691 C33 1.578 . S
C721 C37 1.573 . S
C726 C513 1.506 . S
C751 C5 1.539 . S
C756 C534 1.500 . S
C781 C23 1.588 . S
C786 C563 1.501 . S
C811 C47 1.560 . S
C816 C542 1.516 . S
C846 C555 1.521 . S
C841 C65 1.591 . S
C876 C521 1.482 . S
C871 C75 1.560 . S
C901 C79 1.511 . S
C906 C492 1.445 1_545 S
C936 C450 1.498 1_655 S
C931 C51 1.580 1_655 S
C961 C61 1.568 . S
C966 C479 1.523 . S
C991 C93 1.660 . S
C996 C584 1.565 . S
C1021 C103 1.605 . S
C1026 C597 1.572 . S
C1056 C626 1.547 . S
C1051 C117 1.634 . S
C1081 C121 1.602 . S
C1086 C261 1.568 . S
C1111 C89 1.614 . S
C1116 C282 1.580 . S
C1141 C107 1.615 . S
C1146 C311 1.526 . S
C1171 C131 1.591 . S
C1176 C290 1.546 . S
C1201 C149 1.611 . S
C1206 C303 1.540 . S
C1236 C269 1.540 . S
C1231 C159 1.584 . S
C1266 C618 1.523 . S
C1261 C163 1.593 . S
C1296 C576 1.555 . S
C1291 C135 1.633 . S
C1326 C605 1.564 . S
C1321 C145 1.607 . S
C1351 C177 1.615 . S
C1356 C332 1.523 . S
C1381 C187 1.584 . S
C1386 C345 1.550 . S
C1411 C201 1.637 . S
C1416 C374 1.550 . S
C1441 C205 1.648 . S
C1446 C387 1.613 . S
C1476 C408 1.578 . S
C1471 C173 1.611 . S
C1506 C437 1.545 . S
C1501 C191 1.636 . S
C1536 C416 1.597 . S
C1531 C215 1.642 . S
C1566 C429 1.564 . S
C1561 C233 1.637 . S
C1591 C243 1.578 . S
C1596 C395 1.534 . S
C1626 C366 1.473 . S
C1621 C247 1.541 . S
C1651 C219 1.636 . S
C1656 C324 1.560 . S
C1686 C353 1.553 . S
C1681 C229 1.597 . S
C1716 C264 1.400 . S
C1711 C11 1.504 . S
C1741 C14 1.454 . S
C1746 C285 1.356 . S
C1776 C313 1.432 . S
C1771 C28 1.539 . S
C1806 C334 1.420 . S
C1801 C39 1.529 . S
C1836 C348 1.399 . S
C1831 C0 1.501 . S
C1866 C376 1.323 . S
C1861 C25 1.424 . S
C1891 C42 1.572 . S
C1896 C369 1.419 . S
C1921 C67 1.484 . S
C1926 C327 1.333 . S
C1951 C70 1.466 . S
C1956 C355 1.389 . S
C1981 C81 1.492 . S
C1986 C292 1.420 . S
C2016 C306 1.380 . S
C2011 C53 1.537 . S
C2041 C56 1.499 . S
C2046 C271 1.423 . S
C2076 C390 1.387 . S
C2071 C95 1.493 . S
C2101 C98 1.533 . S
C2106 C411 1.431 . S
C2131 C112 1.595 . S
C2136 C439 1.486 . S
C2166 C460 1.364 . S
C2161 C123 1.443 . S
C2191 C84 1.501 . S
C2196 C474 1.397 . S
C2221 C109 1.406 . S
C2226 C502 1.331 . S
C2251 C126 1.497 . S
C2256 C495 1.374 . S
C2281 C151 1.442 . S
C2286 C453 1.371 . S
C2316 C481 1.411 . S
C2311 C154 1.489 . S
C2341 C165 1.471 . S
C2346 C418 1.392 . S
C2371 C137 1.579 . S
C2376 C432 1.420 . S
C2406 C397 1.501 . S
C2401 C140 1.578 . S
C2436 C516 1.292 1_545 S
C2431 C179 1.441 . S
C2461 C182 1.431 . S
C2466 C537 1.328 1_655 S
C2491 C196 1.540 . S
C2496 C565 1.437 . S
C2526 C586 1.406 . S
C2521 C207 1.515 . S
C2556 C600 1.438 . S
C2551 C168 1.545 . S
C2581 C193 1.512 . S
C2586 C628 1.408 . S
C2611 C210 1.569 . S
C2616 C621 1.413 . S
C2641 C235 1.564 . S
C2646 C579 1.408 . S
C2676 C607 1.451 . S
C2671 C238 1.531 . S
C2706 C544 1.319 1_655 S
C2701 C249 1.390 . S
C2736 C558 1.379 . S
C2731 C221 1.530 . S
C2761 C224 1.465 . S
C2766 C523 1.413 1_545 S
