# Generated by pormake.
# Topology eea, (3,6)-cn, num edge types: 1
# Building blocks:
#     Node 0, Type 0, BuildingBlock: CUQRIR_clean_linker_1, # of connection points: 3
#     Node 1, Type 0, BuildingBlock: CUQRIR_clean_linker_1, # of connection points: 3
#     Node 2, Type 0, BuildingBlock: CUQRIR_clean_linker_1, # of connection points: 3
#     Node 3, Type 0, BuildingBlock: CUQRIR_clean_linker_1, # of connection points: 3
#     Node 4, Type 0, BuildingBlock: CUQRIR_clean_linker_1, # of connection points: 3
#     Node 5, Type 0, BuildingBlock: CUQRIR_clean_linker_1, # of connection points: 3
#     Node 6, Type 0, BuildingBlock: CUQRIR_clean_linker_1, # of connection points: 3
#     Node 7, Type 0, BuildingBlock: CUQRIR_clean_linker_1, # of connection points: 3
#     Node 8, Type 0, BuildingBlock: CUQRIR_clean_linker_1, # of connection points: 3
#     Node 9, Type 0, BuildingBlock: CUQRIR_clean_linker_1, # of connection points: 3
#     Node 10, Type 0, BuildingBlock: CUQRIR_clean_linker_1, # of connection points: 3
#     Node 11, Type 0, BuildingBlock: CUQRIR_clean_linker_1, # of connection points: 3
#     Node 12, Type 0, BuildingBlock: CUQRIR_clean_linker_1, # of connection points: 3
#     Node 13, Type 0, BuildingBlock: CUQRIR_clean_linker_1, # of connection points: 3
#     Node 14, Type 0, BuildingBlock: CUQRIR_clean_linker_1, # of connection points: 3
#     Node 15, Type 0, BuildingBlock: CUQRIR_clean_linker_1, # of connection points: 3
#     Node 16, Type 0, BuildingBlock: CUQRIR_clean_linker_1, # of connection points: 3
#     Node 17, Type 0, BuildingBlock: CUQRIR_clean_linker_1, # of connection points: 3
#     Node 18, Type 1, BuildingBlock: LEVNOQ01_clean_sbu_1, # of connection points: 6
#     Node 19, Type 1, BuildingBlock: LEVNOQ01_clean_sbu_1, # of connection points: 6
#     Node 20, Type 1, BuildingBlock: LEVNOQ01_clean_sbu_1, # of connection points: 6
#     Node 21, Type 1, BuildingBlock: LEVNOQ01_clean_sbu_1, # of connection points: 6
#     Node 22, Type 1, BuildingBlock: LEVNOQ01_clean_sbu_1, # of connection points: 6
#     Node 23, Type 1, BuildingBlock: LEVNOQ01_clean_sbu_1, # of connection points: 6
#     Node 24, Type 1, BuildingBlock: LEVNOQ01_clean_sbu_1, # of connection points: 6
#     Node 25, Type 1, BuildingBlock: LEVNOQ01_clean_sbu_1, # of connection points: 6
#     Node 26, Type 1, BuildingBlock: LEVNOQ01_clean_sbu_1, # of connection points: 6
#     Edge 27, Type (0, 1), BuildingBlock: TEMPAE_clean_linker_10, # of connection points: 2
#     Edge 28, Type (0, 1), BuildingBlock: TEMPAE_clean_linker_10, # of connection points: 2
#     Edge 29, Type (0, 1), BuildingBlock: TEMPAE_clean_linker_10, # of connection points: 2
#     Edge 30, Type (0, 1), BuildingBlock: TEMPAE_clean_linker_10, # of connection points: 2
#     Edge 31, Type (0, 1), BuildingBlock: TEMPAE_clean_linker_10, # of connection points: 2
#     Edge 32, Type (0, 1), BuildingBlock: TEMPAE_clean_linker_10, # of connection points: 2
#     Edge 33, Type (0, 1), BuildingBlock: TEMPAE_clean_linker_10, # of connection points: 2
#     Edge 34, Type (0, 1), BuildingBlock: TEMPAE_clean_linker_10, # of connection points: 2
#     Edge 35, Type (0, 1), BuildingBlock: TEMPAE_clean_linker_10, # of connection points: 2
#     Edge 36, Type (0, 1), BuildingBlock: TEMPAE_clean_linker_10, # of connection points: 2
#     Edge 37, Type (0, 1), BuildingBlock: TEMPAE_clean_linker_10, # of connection points: 2
#     Edge 38, Type (0, 1), BuildingBlock: TEMPAE_clean_linker_10, # of connection points: 2
#     Edge 39, Type (0, 1), BuildingBlock: TEMPAE_clean_linker_10, # of connection points: 2
#     Edge 40, Type (0, 1), BuildingBlock: TEMPAE_clean_linker_10, # of connection points: 2
#     Edge 41, Type (0, 1), BuildingBlock: TEMPAE_clean_linker_10, # of connection points: 2
#     Edge 42, Type (0, 1), BuildingBlock: TEMPAE_clean_linker_10, # of connection points: 2
#     Edge 43, Type (0, 1), BuildingBlock: TEMPAE_clean_linker_10, # of connection points: 2
#     Edge 44, Type (0, 1), BuildingBlock: TEMPAE_clean_linker_10, # of connection points: 2
#     Edge 45, Type (0, 1), BuildingBlock: TEMPAE_clean_linker_10, # of connection points: 2
#     Edge 46, Type (0, 1), BuildingBlock: TEMPAE_clean_linker_10, # of connection points: 2
#     Edge 47, Type (0, 1), BuildingBlock: TEMPAE_clean_linker_10, # of connection points: 2
#     Edge 48, Type (0, 1), BuildingBlock: TEMPAE_clean_linker_10, # of connection points: 2
#     Edge 49, Type (0, 1), BuildingBlock: TEMPAE_clean_linker_10, # of connection points: 2
#     Edge 50, Type (0, 1), BuildingBlock: TEMPAE_clean_linker_10, # of connection points: 2
#     Edge 51, Type (0, 1), BuildingBlock: TEMPAE_clean_linker_10, # of connection points: 2
#     Edge 52, Type (0, 1), BuildingBlock: TEMPAE_clean_linker_10, # of connection points: 2
#     Edge 53, Type (0, 1), BuildingBlock: TEMPAE_clean_linker_10, # of connection points: 2
#     Edge 54, Type (0, 1), BuildingBlock: TEMPAE_clean_linker_10, # of connection points: 2
#     Edge 55, Type (0, 1), BuildingBlock: TEMPAE_clean_linker_10, # of connection points: 2
#     Edge 56, Type (0, 1), BuildingBlock: TEMPAE_clean_linker_10, # of connection points: 2
#     Edge 57, Type (0, 1), BuildingBlock: TEMPAE_clean_linker_10, # of connection points: 2
#     Edge 58, Type (0, 1), BuildingBlock: TEMPAE_clean_linker_10, # of connection points: 2
#     Edge 59, Type (0, 1), BuildingBlock: TEMPAE_clean_linker_10, # of connection points: 2
#     Edge 60, Type (0, 1), BuildingBlock: TEMPAE_clean_linker_10, # of connection points: 2
#     Edge 61, Type (0, 1), BuildingBlock: TEMPAE_clean_linker_10, # of connection points: 2
#     Edge 62, Type (0, 1), BuildingBlock: TEMPAE_clean_linker_10, # of connection points: 2
#     Edge 63, Type (0, 1), BuildingBlock: TEMPAE_clean_linker_10, # of connection points: 2
#     Edge 64, Type (0, 1), BuildingBlock: TEMPAE_clean_linker_10, # of connection points: 2
#     Edge 65, Type (0, 1), BuildingBlock: TEMPAE_clean_linker_10, # of connection points: 2
#     Edge 66, Type (0, 1), BuildingBlock: TEMPAE_clean_linker_10, # of connection points: 2
#     Edge 67, Type (0, 1), BuildingBlock: TEMPAE_clean_linker_10, # of connection points: 2
#     Edge 68, Type (0, 1), BuildingBlock: TEMPAE_clean_linker_10, # of connection points: 2
#     Edge 69, Type (0, 1), BuildingBlock: TEMPAE_clean_linker_10, # of connection points: 2
#     Edge 70, Type (0, 1), BuildingBlock: TEMPAE_clean_linker_10, # of connection points: 2
#     Edge 71, Type (0, 1), BuildingBlock: TEMPAE_clean_linker_10, # of connection points: 2
#     Edge 72, Type (0, 1), BuildingBlock: TEMPAE_clean_linker_10, # of connection points: 2
#     Edge 73, Type (0, 1), BuildingBlock: TEMPAE_clean_linker_10, # of connection points: 2
#     Edge 74, Type (0, 1), BuildingBlock: TEMPAE_clean_linker_10, # of connection points: 2
#     Edge 75, Type (0, 1), BuildingBlock: TEMPAE_clean_linker_10, # of connection points: 2
#     Edge 76, Type (0, 1), BuildingBlock: TEMPAE_clean_linker_10, # of connection points: 2
#     Edge 77, Type (0, 1), BuildingBlock: TEMPAE_clean_linker_10, # of connection points: 2
#     Edge 78, Type (0, 1), BuildingBlock: TEMPAE_clean_linker_10, # of connection points: 2
#     Edge 79, Type (0, 1), BuildingBlock: TEMPAE_clean_linker_10, # of connection points: 2
#     Edge 80, Type (0, 1), BuildingBlock: TEMPAE_clean_linker_10, # of connection points: 2
# Relax obj value: 0.108
# Max RMSD: 0.165
# Mean RMSD: 0.139
data_MOF--net-eea--node1-LEVNOQ01_clean_sbu_1--node2-CUQRIR_clean_linker_1--edge1-TEMPAE_clean_linker_10
_symmetry_space_group_name_H-M    P1
_symmetry_Int_Tables_number       1
_symmetry_cell_setting            triclinic
loop_
_symmetry_equiv_pos_as_xyz
'x, y, z'
_cell_length_a     53.285372
_cell_length_b     54.126482
_cell_length_c     43.658313
_cell_angle_alpha  82.262689
_cell_angle_beta   90.387917
_cell_angle_gamma 119.28627
loop_
_atom_site_label
_atom_site_type_symbol
_atom_site_fract_x
_atom_site_fract_y
_atom_site_fract_z
_atom_type_partial_charge
C0 C 0.23332 0.1103 0.35359 0.0
N1 N 0.23928 0.12939 0.37352 0.0
N2 N 0.24391 0.09257 0.3628 0.0
C3 C 0.21753 0.1087 0.32459 0.0
C4 C 0.25776 0.10234 0.38821 0.0
N5 N 0.25517 0.12469 0.39462 0.0
C6 C 0.26973 0.08702 0.40962 0.0
H7 H 0.19451 0.09215 0.32955 0.0
H8 H 0.22659 0.10208 0.30654 0.0
H9 H 0.21922 0.12966 0.31554 0.0
H10 H 0.27381 0.07238 0.39762 0.0
H11 H 0.25397 0.07433 0.42975 0.0
H12 H 0.29008 0.10272 0.41853 0.0
C13 C 0.88835 0.12436 0.36542 0.0
N14 N 0.89716 0.14241 0.38679 0.0
N15 N 0.85941 0.10757 0.36807 0.0
C16 C 0.90819 0.12118 0.34388 0.0
C17 C 0.85094 0.11619 0.39164 0.0
N18 N 0.87385 0.13677 0.40386 0.0
C19 C 0.82022 0.10186 0.40506 0.0
H20 H 0.91227 0.13577 0.32179 0.0
H21 H 0.89839 0.09904 0.33839 0.0
H22 H 0.92915 0.12697 0.35407 0.0
H23 H 0.81478 0.08108 0.41932 0.0
H24 H 0.8053 0.0973 0.38611 0.0
H25 H 0.81701 0.11549 0.41966 0.0
C26 C 0.878 0.78414 0.33887 0.0
N27 N 0.88652 0.77521 0.36523 0.0
N28 N 0.85158 0.78119 0.34378 0.0
C29 C 0.89568 0.79596 0.30846 0.0
C30 C 0.84448 0.77026 0.37429 0.0
N31 N 0.86562 0.76636 0.38721 0.0
C32 C 0.81903 0.76753 0.39248 0.0
H33 H 0.9121 0.81871 0.30865 0.0
H34 H 0.8819 0.79462 0.28887 0.0
H35 H 0.90724 0.78403 0.30517 0.0
H36 H 0.79951 0.74721 0.38932 0.0
H37 H 0.81511 0.78549 0.38411 0.0
H38 H 0.82238 0.76752 0.41757 0.0
C39 C 0.09838 0.22332 0.6952 0.0
N40 N 0.11855 0.22967 0.67249 0.0
N41 N 0.07728 0.22809 0.68369 0.0
C42 C 0.0982 0.21044 0.72807 0.0
C43 C 0.08545 0.23767 0.65313 0.0
N44 N 0.11054 0.23853 0.6464 0.0
C45 C 0.06758 0.24365 0.62954 0.0
H46 H 0.09662 0.1892 0.72825 0.0
H47 H 0.08018 0.20812 0.74297 0.0
H48 H 0.11866 0.22431 0.73815 0.0
H49 H 0.0663 0.26269 0.6341 0.0
H50 H 0.04529 0.22521 0.63176 0.0
H51 H 0.07674 0.24784 0.60548 0.0
C52 C 0.76088 0.87618 0.66792 0.0
N53 N 0.75186 0.85955 0.64516 0.0
N54 N 0.75241 0.89605 0.66388 0.0
C55 C 0.77851 0.87358 0.6939 0.0
C56 C 0.73801 0.89125 0.63785 0.0
N57 N 0.73706 0.86861 0.62667 0.0
C58 C 0.72839 0.91124 0.62125 0.0
H59 H 0.77405 0.88108 0.71459 0.0
H60 H 0.80175 0.88727 0.68646 0.0
H61 H 0.77379 0.85108 0.70014 0.0
H62 H 0.73177 0.91341 0.59576 0.0
H63 H 0.74007 0.93289 0.62813 0.0
H64 H 0.7051 0.90249 0.62729 0.0
C65 C 0.12771 0.88252 0.683 0.0
N66 N 0.11313 0.86373 0.66316 0.0
N67 N 0.15467 0.90215 0.67078 0.0
C68 C 0.11636 0.881 0.71504 0.0
C69 C 0.1562 0.89428 0.64304 0.0
N70 N 0.1311 0.87106 0.63841 0.0
C71 C 0.18133 0.91113 0.61913 0.0
H72 H 0.10503 0.89363 0.71406 0.0
H73 H 0.13438 0.89016 0.73039 0.0
H74 H 0.10089 0.85849 0.72497 0.0
H75 H 0.20075 0.91112 0.62836 0.0
H76 H 0.18605 0.9337 0.61424 0.0
H77 H 0.17754 0.9021 0.59715 0.0
C78 C 0.90166 0.44533 0.68897 0.0
N79 N 0.91 0.46547 0.70784 0.0
N80 N 0.90893 0.42519 0.6999 0.0
C81 C 0.88734 0.4459 0.65929 0.0
C82 C 0.92222 0.43397 0.726 0.0
N83 N 0.92322 0.45864 0.73051 0.0
C84 C 0.93033 0.41631 0.74943 0.0
H85 H 0.8637 0.43556 0.66438 0.0
H86 H 0.89168 0.43416 0.64298 0.0
H87 H 0.89514 0.46835 0.64823 0.0
H88 H 0.95247 0.42095 0.74296 0.0
H89 H 0.91543 0.39307 0.74989 0.0
H90 H 0.92991 0.42135 0.77315 0.0
C91 C 0.54998 0.46165 0.6937 0.0
N92 N 0.56242 0.47838 0.71585 0.0
N93 N 0.52099 0.44667 0.699 0.0
C94 C 0.56596 0.4586 0.66755 0.0
C95 C 0.51626 0.45556 0.7247 0.0
N96 N 0.54137 0.47427 0.73562 0.0
C97 C 0.48701 0.44273 0.74154 0.0
H98 H 0.55177 0.45083 0.64827 0.0
H99 H 0.57282 0.4427 0.67597 0.0
H100 H 0.58543 0.47935 0.65892 0.0
H101 H 0.48154 0.42167 0.75515 0.0
H102 H 0.47035 0.43903 0.72462 0.0
H103 H 0.48671 0.45695 0.75746 0.0
C104 C 0.54276 0.11061 0.67555 0.0
N105 N 0.55089 0.09796 0.69923 0.0
N106 N 0.5161 0.1062 0.68192 0.0
C107 C 0.56193 0.13015 0.64758 0.0
C108 C 0.50772 0.08914 0.70986 0.0
N109 N 0.52895 0.08419 0.72052 0.0
C110 C 0.48096 0.08184 0.72898 0.0
H111 H 0.57197 0.1527 0.65184 0.0
H112 H 0.54894 0.12809 0.62713 0.0
H113 H 0.57918 0.1251 0.64253 0.0
H114 H 0.47219 0.06053 0.74341 0.0
H115 H 0.46423 0.08182 0.71375 0.0
H116 H 0.48634 0.09805 0.74463 0.0
C117 C 0.76639 0.56469 0.02509 0.0
N118 N 0.78349 0.5689 1.00003 0.0
N119 N 0.74176 0.56387 0.01645 0.0
C120 C 0.7732 0.56027 0.05821 0.0
C121 C 0.74439 0.56785 0.9851 0.0
N122 N 0.76997 0.57121 0.97499 0.0
C123 C 0.72003 0.56364 0.96479 0.0
H124 H 0.76457 0.53708 0.06625 0.0
H125 H 0.76292 0.5682 0.07334 0.0
H126 H 0.79688 0.57152 0.06031 0.0
H127 H 0.71756 0.58299 0.96247 0.0
H128 H 0.69954 0.54518 0.97558 0.0
H129 H 0.72375 0.55962 0.94146 0.0
C130 C 0.42787 0.21398 0.99688 0.0
N131 N 0.41884 0.19503 0.9766 0.0
N132 N 0.41667 0.23158 0.99132 0.0
C133 C 0.44914 0.21651 0.02085 0.0
C134 C 0.40068 0.22296 0.96685 0.0
N135 N 0.40177 0.20054 0.95795 0.0
C136 C 0.38688 0.23859 0.94925 0.0
H137 H 0.43746 0.2005 0.04165 0.0
H138 H 0.45999 0.23806 0.02803 0.0
H139 H 0.46559 0.21187 0.01187 0.0
H140 H 0.3973 0.24723 0.92542 0.0
H141 H 0.38864 0.2564 0.96071 0.0
H142 H 0.36374 0.22338 0.94724 0.0
C143 C 0.79574 0.21674 0.01492 0.0
N144 N 0.7819 0.19781 0.99515 0.0
N145 N 0.8228 0.23657 0.0032 0.0
C146 C 0.78231 0.21644 0.04523 0.0
C147 C 0.82499 0.22855 0.9757 0.0
N148 N 0.80004 0.2053 0.97061 0.0
C149 C 0.85056 0.24529 0.95236 0.0
H150 H 0.76791 0.22577 0.04081 0.0
H151 H 0.79908 0.22903 0.06059 0.0
H152 H 0.76892 0.19404 0.05694 0.0
H153 H 0.87047 0.24819 0.96323 0.0
H154 H 0.85318 0.26685 0.94452 0.0
H155 H 0.84846 0.23433 0.93202 0.0
C156 C 0.56958 0.77801 0.01985 0.0
N157 N 0.57716 0.79783 0.03891 0.0
N158 N 0.57488 0.75686 0.0322 0.0
C159 C 0.55676 0.77939 0.98931 0.0
C160 C 0.58603 0.76457 0.0595 0.0
N161 N 0.58758 0.78957 0.06344 0.0
C162 C 0.59149 0.74581 0.08428 0.0
H163 H 0.53329 0.77116 0.99344 0.0
H164 H 0.5601 0.76641 0.97386 0.0
H165 H 0.56661 0.80195 0.97773 0.0
H166 H 0.61346 0.74911 0.07977 0.0
H167 H 0.57571 0.72285 0.0842 0.0
H168 H 0.59002 0.7511 0.10765 0.0
C169 C 0.21886 0.79557 0.03023 0.0
N170 N 0.23237 0.80988 0.05385 0.0
N171 N 0.18999 0.78011 0.03671 0.0
C172 C 0.23361 0.79665 1.00041 0.0
C173 C 0.18628 0.78647 0.06465 0.0
N174 N 0.21194 0.80418 0.07541 0.0
C175 C 0.15759 0.77266 0.08304 0.0
H176 H 0.21848 0.79165 0.98164 0.0
H177 H 0.24084 0.78048 0.00349 0.0
H178 H 0.25276 0.81813 0.99354 0.0
H179 H 0.1512 0.7501 0.09227 0.0
H180 H 0.14073 0.77254 0.06799 0.0
H181 H 0.15847 0.78418 0.10254 0.0
C182 C 0.22123 0.46448 0.02134 0.0
N183 N 0.22683 0.44764 0.04263 0.0
N184 N 0.19541 0.46176 0.02865 0.0
C185 C 0.2419 0.48519 0.99488 0.0
C186 C 0.18534 0.44244 0.05493 0.0
N187 N 0.20454 0.43384 0.06354 0.0
C188 C 0.15746 0.43305 0.07317 0.0
H189 H 0.23936 0.50447 0.98977 0.0
H190 H 0.23713 0.47452 0.97393 0.0
H191 H 0.26457 0.49187 0.99999 0.0
H192 H 0.14661 0.40974 0.08174 0.0
H193 H 0.14256 0.43768 0.05895 0.0
H194 H 0.16216 0.44442 0.0936 0.0
C195 C 0.43501 0.89628 0.36168 0.0
N196 N 0.45317 0.90118 0.33737 0.0
N197 N 0.41425 0.9026 0.35263 0.0
C198 C 0.43781 0.88557 0.39446 0.0
C199 C 0.42085 0.91211 0.32179 0.0
N200 N 0.44465 0.91145 0.3127 0.0
C201 C 0.40208 0.91858 0.29994 0.0
H202 H 0.42765 0.86189 0.39795 0.0
H203 H 0.42706 0.89175 0.41119 0.0
H204 H 0.46093 0.89441 0.39906 0.0
H205 H 0.40212 0.93814 0.30495 0.0
H206 H 0.37954 0.90063 0.30353 0.0
H207 H 0.40961 0.92213 0.27531 0.0
C208 C 0.08986 0.54203 0.33756 0.0
N209 N 0.08339 0.52586 0.31455 0.0
N210 N 0.07683 0.55821 0.33451 0.0
C211 C 0.11134 0.54426 0.36112 0.0
C212 C 0.0619 0.55091 0.30908 0.0
N213 N 0.06654 0.53195 0.29622 0.0
C214 C 0.0446 0.5644 0.29543 0.0
H215 H 0.10141 0.52474 0.37878 0.0
H216 H 0.11807 0.56314 0.37311 0.0
H217 H 0.13054 0.54543 0.34976 0.0
H218 H 0.05944 0.58626 0.28318 0.0
H219 H 0.03218 0.56654 0.31421 0.0
H220 H 0.02946 0.55143 0.279 0.0
C221 C 0.45803 0.55936 0.34035 0.0
N222 N 0.44428 0.53826 0.32274 0.0
N223 N 0.48306 0.58054 0.32549 0.0
C224 C 0.44817 0.55831 0.37294 0.0
C225 C 0.4842 0.57169 0.29832 0.0
N226 N 0.46101 0.54582 0.29689 0.0
C227 C 0.50616 0.58978 0.27159 0.0
H228 H 0.43516 0.56924 0.37247 0.0
H229 H 0.46699 0.56955 0.38674 0.0
H230 H 0.43467 0.53581 0.38432 0.0
H231 H 0.52487 0.58609 0.27373 0.0
H232 H 0.51394 0.6129 0.27158 0.0
H233 H 0.49696 0.58408 0.24905 0.0
O234 O 0.55325 0.02105 0.95675 0.0
Mg235 Mg 0.55436 0.00408 0.00345 0.0
O236 O 0.50716 0.00727 0.9644 0.0
Mg237 Mg 0.50626 0.00123 0.01788 0.0
O238 O 0.52061 0.96568 0.0212 0.0
O239 O 0.56369 0.97262 0.00358 0.0
O240 O 0.50672 -0.00458 0.07141 0.0
O241 O 0.46195 0.95492 0.02106 0.0
Mg242 Mg 0.46241 -0.00365 0.03027 0.0
O243 O 0.49055 0.03735 0.01326 0.0
O244 O 0.46002 0.97727 0.07682 0.0
O245 O 0.43643 0.97152 0.99738 0.0
O246 O 0.44599 0.02151 0.03492 0.0
C247 C 0.57461 0.0508 0.02785 0.0
C248 C 0.5297 0.01755 0.94617 0.0
C249 C 0.53805 0.95599 0.01637 0.0
C250 C 0.48348 0.9825 0.08868 0.0
C251 C 0.43888 0.95015 0.00792 0.0
C252 C 0.46927 0.04165 0.01991 0.0
O253 O 0.57846 0.02988 0.03624 0.0
O254 O 0.55133 0.04591 0.01499 0.0
O255 O 0.01539 0.53289 0.93529 0.0
Mg256 Mg 0.0038 0.54991 0.96938 0.0
O257 O 0.97476 0.50244 0.96077 0.0
Mg258 Mg -0.00544 0.5151 0.00938 0.0
O259 O 0.02996 0.56625 0.00299 0.0
O260 O 0.02942 0.59243 0.95865 0.0
O261 O 0.01646 0.52856 0.05742 0.0
O262 O 0.03096 0.50958 0.99332 0.0
Mg263 Mg 0.98815 0.48262 0.04759 0.0
O264 O 0.95934 0.46262 0.01733 0.0
O265 O 0.97671 0.49846 0.08392 0.0
O266 O 0.03061 0.48846 0.03972 0.0
O267 O 0.96533 0.44074 0.06198 0.0
C268 C 0.94694 0.53101 0.00095 0.0
C269 C 0.99057 0.51166 0.93564 0.0
C270 C 0.04024 0.59073 0.9848 0.0
C271 C 0.00173 0.51933 0.08321 0.0
C272 C 0.0423 0.49921 0.01256 0.0
C273 C 0.95216 0.43935 0.03697 0.0
O274 O 0.96052 0.54129 0.97461 0.0
O275 O 0.95754 0.52216 0.02305 0.0
O276 O 0.49812 0.48129 0.09598 0.0
Mg277 Mg 0.46328 0.45302 0.07268 0.0
O278 O 0.47922 0.50358 0.06906 0.0
Mg279 Mg 0.48544 0.48848 0.02205 0.0
O280 O 0.47351 0.44054 0.03634 0.0
O281 O 0.45665 0.41293 0.08311 0.0
O282 O 0.49035 0.47126 0.97468 0.0
O283 O 0.52919 0.49795 0.03576 0.0
Mg284 Mg 0.51309 0.51971 0.9772 0.0
O285 O 0.50051 0.53824 0.00649 0.0
O286 O 0.48382 0.50179 0.94329 0.0
O287 O 0.54572 0.50749 0.98769 0.0
O288 O 0.53285 0.56185 0.96531 0.0
C289 C 0.41976 0.46399 0.03597 0.0
C290 C 0.48998 0.4996 0.09409 0.0
C291 C 0.46535 0.41655 0.05451 0.0
C292 C 0.48558 0.47931 0.94748 0.0
C293 C 0.54801 0.50093 0.01612 0.0
C294 C 0.51771 0.56188 0.98819 0.0
O295 O 0.42536 0.4558 0.06259 0.0
O296 O 0.43906 0.47622 0.01355 0.0
O297 O 0.21363 0.35578 0.29619 0.0
Mg298 Mg 0.2107 0.33444 0.3418 0.0
O299 O 0.16836 0.3437 0.30416 0.0
Mg300 Mg 0.17126 0.33607 0.35701 0.0
O301 O 0.17834 0.29425 0.35539 0.0
O302 O 0.22097 0.30588 0.33182 0.0
O303 O 0.17437 0.32439 0.41061 0.0
O304 O 0.12261 0.30118 0.36237 0.0
Mg305 Mg 0.14914 0.35438 0.39859 0.0
O306 O 0.16054 0.37434 0.35409 0.0
O307 O 0.17989 0.36082 0.43131 0.0
O308 O 0.10952 0.31535 0.40165 0.0
O309 O 0.14355 0.38874 0.39104 0.0
C310 C 0.24092 0.37851 0.36632 0.0
C311 C 0.19055 0.35352 0.28571 0.0
C312 C 0.1961 0.28679 0.34462 0.0
C313 C 0.18044 0.33768 0.43385 0.0
C314 C 0.10346 0.29778 0.38256 0.0
C315 C 0.15253 0.39173 0.36274 0.0
O316 O 0.24033 0.35513 0.37477 0.0
O317 O 0.21894 0.37765 0.35381 0.0
O318 O 0.67402 0.89279 0.25971 0.0
Mg319 Mg 0.66466 0.90473 0.29941 0.0
O320 O 0.65515 0.84881 0.28526 0.0
Mg321 Mg 0.66487 0.85196 0.33781 0.0
O322 O 0.68919 0.90079 0.33288 0.0
O323 O 0.69402 0.94304 0.31198 0.0
O324 O 0.67755 0.85989 0.39143 0.0
O325 O 0.70791 0.85611 0.3231 0.0
Mg326 Mg 0.66533 0.8179 0.37192 0.0
O327 O 0.63755 0.79987 0.34004 0.0
O328 O 0.64379 0.81801 0.41149 0.0
O329 O 0.7111 0.83622 0.36846 0.0
O330 O 0.65245 0.77635 0.37519 0.0
C331 C 0.6081 0.86061 0.33563 0.0
C332 C 0.66273 0.86611 0.25972 0.0
C333 C 0.70293 0.92846 0.33005 0.0
C334 C 0.66286 0.84251 0.41553 0.0
C335 C 0.72264 0.84975 0.34198 0.0
C336 C 0.63527 0.77602 0.35424 0.0
O337 O 0.62103 0.8826 0.31522 0.0
O338 O 0.62073 0.84784 0.34921 0.0
O339 O 0.16221 0.8142 0.43395 0.0
Mg340 Mg 0.12837 0.78625 0.40843 0.0
O341 O 0.14413 0.83618 0.40477 0.0
Mg342 Mg 0.14862 0.82062 0.35808 0.0
O343 O 0.13689 0.77221 0.37147 0.0
O344 O 0.12079 0.74566 0.41873 0.0
O345 O 0.15407 0.80678 0.3094 0.0
O346 O 0.1937 0.83114 0.36876 0.0
Mg347 Mg 0.17881 0.85838 0.31027 0.0
O348 O 0.16233 0.86931 0.34482 0.0
O349 O 0.15083 0.83865 0.27622 0.0
O350 O 0.2133 0.84954 0.32138 0.0
O351 O 0.19231 0.90051 0.30454 0.0
C352 C 0.08396 0.7989 0.37583 0.0
C353 C 0.15554 0.83366 0.42974 0.0
C354 C 0.12867 0.74834 0.39005 0.0
C355 C 0.15109 0.81538 0.2816 0.0
C356 C 0.2147 0.83992 0.34911 0.0
C357 C 0.17655 0.89506 0.32947 0.0
O358 O 0.09066 0.79057 0.40171 0.0
O359 O 0.10159 0.80851 0.35191 0.0
O360 O 0.82804 0.65526 0.61224 0.0
Mg361 Mg 0.86 0.66304 0.64386 0.0
O362 O 0.84006 0.69306 0.6332 0.0
Mg363 Mg 0.83798 0.66939 0.68504 0.0
O364 O 0.85075 0.63225 0.68053 0.0
O365 O 0.8747 0.63675 0.6361 0.0
O366 O 0.83616 0.64593 0.73553 0.0
O367 O 0.7897 0.63536 0.6825 0.0
Mg368 Mg 0.81781 0.67833 0.72994 0.0
O369 O 0.82496 0.70567 0.68995 0.0
O370 O 0.85041 0.68202 0.76042 0.0
O371 O 0.77993 0.63736 0.73075 0.0
O372 O 0.80598 0.70782 0.73462 0.0
C373 C 0.90415 0.71488 0.66682 0.0
C374 C 0.83253 0.6805 0.60943 0.0
C375 C 0.86354 0.62316 0.66335 0.0
C376 C 0.84559 0.65685 0.75999 0.0
C377 C 0.77232 0.62531 0.70669 0.0
C378 C 0.81382 0.71729 0.70563 0.0
O379 O 0.8977 0.7045 0.64175 0.0
O380 O 0.88574 0.70324 0.68998 0.0
O381 O 0.35247 0.19729 0.59528 0.0
Mg382 Mg 0.34292 0.21841 0.62651 0.0
O383 O 0.31455 0.16661 0.62489 0.0
Mg384 Mg 0.3308 0.17995 0.67366 0.0
O385 O 0.36554 0.23003 0.66428 0.0
O386 O 0.37288 0.26011 0.61996 0.0
O387 O 0.34771 0.19515 0.72335 0.0
O388 O 0.36854 0.17423 0.66407 0.0
Mg389 Mg 0.32195 0.14907 0.71406 0.0
O390 O 0.29616 0.1273 0.68267 0.0
O391 O 0.30558 0.16554 0.74503 0.0
O392 O 0.36584 0.1576 0.71304 0.0
O393 O 0.3003 0.10729 0.72955 0.0
C394 C 0.2851 0.19924 0.65837 0.0
C395 C 0.3288 0.1743 0.5989 0.0
C396 C 0.37935 0.25543 0.64785 0.0
C397 C 0.33029 0.1861 0.74717 0.0
C398 C 0.37952 0.16698 0.68673 0.0
C399 C 0.28867 0.10466 0.70343 0.0
O400 O 0.30035 0.21136 0.633 0.0
O401 O 0.2933 0.18743 0.68025 0.0
O402 O 0.83009 0.14855 0.76415 0.0
Mg403 Mg 0.79583 0.12072 0.73917 0.0
O404 O 0.81085 0.17016 0.73626 0.0
Mg405 Mg 0.81452 0.15386 0.68928 0.0
O406 O 0.80329 0.10518 0.70315 0.0
O407 O 0.78768 0.08016 0.75124 0.0
O408 O 0.81813 0.13705 0.64124 0.0
O409 O 0.85899 0.16428 0.69983 0.0
Mg410 Mg 0.83918 0.1855 0.64346 0.0
O411 O 0.82869 0.20401 0.67467 0.0
O412 O 0.80825 0.16594 0.61136 0.0
O413 O 0.87424 0.17644 0.65102 0.0
O414 O 0.8568 0.22745 0.63053 0.0
C415 C 0.75095 0.13284 0.70786 0.0
C416 C 0.82254 0.16738 0.761 0.0
C417 C 0.79534 0.08188 0.72273 0.0
C418 C 0.81189 0.14453 0.61458 0.0
C419 C 0.87793 0.16975 0.67895 0.0
C420 C 0.8441 0.22762 0.65543 0.0
O421 O 0.75818 0.12502 0.73362 0.0
O422 O 0.76787 0.14175 0.6835 0.0
C423 C 0.27665 0.855 0.05886 0.0
C424 C 0.26319 0.82593 0.05594 0.0
C425 C 0.30679 0.87235 0.05408 0.0
C426 C 0.32365 0.86054 0.04485 0.0
C427 C 0.31021 0.83085 0.04331 0.0
C428 C 0.28026 0.81381 0.04969 0.0
C429 C 0.32031 0.90372 0.05699 0.0
C430 C 0.32709 0.81747 0.03275 0.0
C431 C 0.3903 0.91526 0.99362 0.0
C432 C 0.41205 0.92223 0.01446 0.0
C433 C 0.36175 0.89396 0.00276 0.0
C434 C 0.3546 0.87976 0.03378 0.0
C435 C 0.37682 0.88549 0.05439 0.0
C436 C 0.40538 0.90646 0.04435 0.0
C437 C 0.33894 0.88798 0.9797 0.0
C438 C 0.37013 0.87135 0.08777 0.0
H439 H 0.26352 0.86455 0.06297 0.0
H440 H 0.26981 0.79121 0.04783 0.0
H441 H 0.34022 0.91067 0.06967 0.0
H442 H 0.32646 0.91666 0.03357 0.0
H443 H 0.30529 0.90845 0.06924 0.0
H444 H 0.3135 0.79396 0.03333 0.0
H445 H 0.33641 0.82735 0.00869 0.0
H446 H 0.34533 0.82163 0.04755 0.0
H447 H 0.39535 0.92762 0.9706 0.0
H448 H 0.422 0.91222 0.06076 0.0
H449 H 0.32486 0.89652 0.98608 0.0
H450 H 0.32507 0.86456 0.98009 0.0
H451 H 0.34848 0.89804 0.95571 0.0
H452 H 0.35856 0.87982 0.1002 0.0
H453 H 0.38997 0.87543 0.09973 0.0
H454 H 0.35575 0.84789 0.08946 0.0
C455 C 0.17582 0.47816 0.9846 0.0
C456 C 0.18374 0.47912 0.01517 0.0
C457 C 0.15811 0.4894 0.97386 0.0
C458 C 0.14773 0.50067 0.99477 0.0
C459 C 0.15936 0.50546 0.02404 0.0
C460 C 0.17759 0.49476 0.03377 0.0
C461 C 0.1477 0.48583 0.94172 0.0
C462 C 0.14927 0.5179 0.04693 0.0
C463 C 0.09161 0.52352 0.98714 0.0
C464 C 0.06815 0.49883 0.00306 0.0
C465 C 0.11762 0.52397 0.98111 0.0
C466 C 0.11951 0.499 0.99094 0.0
C467 C 0.09464 0.47317 0.00383 0.0
C468 C 0.06934 0.47361 0.01031 0.0
C469 C 0.14339 0.55162 0.96653 0.0
C470 C 0.09532 0.44565 0.01356 0.0
H471 H 0.18157 0.4667 0.97007 0.0
H472 H 0.1849 0.4962 0.05703 0.0
H473 H 0.12785 0.46476 0.94251 0.0
H474 H 0.14251 0.50278 0.93229 0.0
H475 H 0.16415 0.48639 0.92572 0.0
H476 H 0.16328 0.52374 0.06668 0.0
H477 H 0.14883 0.53722 0.03547 0.0
H478 H 0.12699 0.50188 0.05633 0.0
H479 H 0.09016 0.54287 0.98105 0.0
H480 H 0.05062 0.45439 0.02173 0.0
H481 H 0.15816 0.54766 0.95281 0.0
H482 H 0.1556 0.56391 0.98501 0.0
H483 H 0.13659 0.56516 0.95132 0.0
H484 H 0.10621 0.44137 0.9951 0.0
H485 H 0.07333 0.4269 0.01902 0.0
H486 H 0.10757 0.44759 0.03456 0.0
C487 C 0.53671 0.71323 0.01536 0.0
C488 C 0.56537 0.72963 0.02243 0.0
C489 C 0.52633 0.68542 0.00882 0.0
C490 C 0.54484 0.67356 0.01084 0.0
C491 C 0.57385 0.69007 0.018 0.0
C492 C 0.58395 0.71826 0.02299 0.0
C493 C 0.49555 0.66866 1.00027 0.0
C494 C 0.59401 0.67783 0.02094 0.0
C495 C 0.51486 0.59339 0.02305 0.0
C496 C 0.5209 0.58939 0.99355 0.0
C497 C 0.52164 0.62073 0.02891 0.0
C498 C 0.53432 0.64415 0.00453 0.0
C499 C 0.53891 0.63985 0.97436 0.0
C500 C 0.53226 0.61248 0.96927 0.0
C501 C 0.51669 0.62479 0.06144 0.0
C502 C 0.55196 0.66434 0.94774 0.0
H503 H 0.52223 0.7219 0.01575 0.0
H504 H 0.60613 0.73122 0.02835 0.0
H505 H 0.49477 0.65959 0.97873 0.0
H506 H 0.4829 0.65044 0.0189 0.0
H507 H 0.48501 0.68208 0.99675 0.0
H508 H 0.6155 0.69318 0.02813 0.0
H509 H 0.58451 0.65802 0.03824 0.0
H510 H 0.59704 0.67185 0.99849 0.0
H511 H 0.50612 0.5755 0.04181 0.0
H512 H 0.53658 0.6093 0.9463 0.0
H513 H 0.50408 0.63612 0.06134 0.0
H514 H 0.53774 0.63835 0.07078 0.0
H515 H 0.50509 0.60411 0.0773 0.0
H516 H 0.54012 0.67651 0.94611 0.0
H517 H 0.55169 0.65687 0.92519 0.0
H518 H 0.57465 0.67941 0.95184 0.0
C519 C 0.82736 0.28196 0.014 0.0
C520 C 0.84003 0.26495 0.01101 0.0
C521 C 0.84412 0.31071 0.01809 0.0
C522 C 0.87446 0.32311 0.01774 0.0
C523 C 0.88742 0.30601 0.01477 0.0
C524 C 0.86993 0.27692 0.01219 0.0
C525 C 0.82935 0.32783 0.02251 0.0
C526 C 0.91975 0.31852 0.01394 0.0
C527 C 0.92175 0.4044 0.00157 0.0
C528 C 0.92966 0.4106 0.03142 0.0
C529 C 0.90332 0.37596 0.99668 0.0
C530 C 0.89254 0.35351 0.02228 0.0
C531 C 0.89955 0.35995 0.05252 0.0
C532 C 0.91795 0.38832 0.05668 0.0
C533 C 0.89623 0.36977 0.96409 0.0
C534 C 0.8882 0.33677 0.0805 0.0
H535 H 0.80431 0.27292 0.01239 0.0
H536 H 0.87965 0.26362 0.01046 0.0
H537 H 0.83637 0.33812 0.04365 0.0
H538 H 0.83555 0.34519 0.00257 0.0
H539 H 0.80548 0.31437 0.02462 0.0
H540 H 0.92648 0.30282 0.00943 0.0
H541 H 0.9303 0.33752 0.99563 0.0
H542 H 0.92778 0.32585 0.03634 0.0
H543 H 0.93082 0.4215 0.982 0.0
H544 H 0.92367 0.39296 0.07993 0.0
H545 H 0.87251 0.35815 0.9625 0.0
H546 H 0.90445 0.35565 0.95797 0.0
H547 H 0.90573 0.38961 0.9468 0.0
H548 H 0.86433 0.32403 0.0812 0.0
H549 H 0.89446 0.34561 0.10259 0.0
H550 H 0.89665 0.32186 0.07893 0.0
C551 C 0.70234 0.52207 0.04765 0.0
C552 C 0.71522 0.55106 0.03487 0.0
C553 C 0.67267 0.50627 0.05559 0.0
C554 C 0.65605 0.52002 0.04977 0.0
C555 C 0.66983 0.55021 0.04124 0.0
C556 C 0.6995 0.56543 0.03388 0.0
C557 C 0.65895 0.47442 0.06598 0.0
C558 C 0.65292 0.56593 0.03587 0.0
C559 C 0.59095 0.49621 0.00543 0.0
C560 C 0.57257 0.49779 0.02672 0.0
C561 C 0.61714 0.49854 0.01427 0.0
C562 C 0.62511 0.50331 0.04489 0.0
C563 C 0.60461 0.50014 0.06757 0.0
C564 C 0.5784 0.49752 0.05815 0.0
C565 C 0.63744 0.49986 0.98938 0.0
C566 C 0.61153 0.50297 0.1009 0.0
H567 H 0.71481 0.51111 0.0483 0.0
H568 H 0.70997 0.58795 0.02419 0.0
H569 H 0.63866 0.46605 0.08053 0.0
H570 H 0.65377 0.4633 0.04534 0.0
H571 H 0.67399 0.46907 0.07921 0.0
H572 H 0.66716 0.58956 0.03225 0.0
H573 H 0.6405 0.5599 0.01504 0.0
H574 H 0.63733 0.55997 0.05587 0.0
H575 H 0.58575 0.4949 0.98143 0.0
H576 H 0.56351 0.49739 0.07508 0.0
H577 H 0.65387 0.49462 0.99887 0.0
H578 H 0.64852 0.5218 0.97604 0.0
H579 H 0.62529 0.48485 0.97289 0.0
H580 H 0.62709 0.49553 0.10784 0.0
H581 H 0.59166 0.49058 0.11665 0.0
H582 H 0.62132 0.52581 0.10395 0.0
C583 C 0.4435 0.1727 0.95391 0.0
C584 C 0.42529 0.17218 0.97721 0.0
C585 C 0.45386 0.1532 0.95716 0.0
C586 C 0.44686 0.13376 0.985 0.0
C587 C 0.4287 0.13343 0.00875 0.0
C588 C 0.41771 0.15229 0.00425 0.0
C589 C 0.47249 0.15357 0.93102 0.0
C590 C 0.42114 0.1134 0.03907 0.0
C591 C 0.44377 0.06255 0.98956 0.0
C592 C 0.46816 0.06712 0.00561 0.0
C593 C 0.43763 0.08467 0.98092 0.0
C594 C 0.45639 0.11207 0.98863 0.0
C595 C 0.48222 0.11739 0.00296 0.0
C596 C 0.48789 0.09464 0.01133 0.0
C597 C 0.40991 0.07806 0.9657 0.0
C598 C 0.50268 0.14647 0.01142 0.0
H599 H 0.45063 0.18898 0.93378 0.0
H600 H 0.40409 0.15249 0.02244 0.0
H601 H 0.49403 0.15856 0.93903 0.0
H602 H 0.46272 0.13208 0.92369 0.0
H603 H 0.47532 0.16956 0.91058 0.0
H604 H 0.40839 0.11729 0.05591 0.0
H605 H 0.40846 0.09085 0.03489 0.0
H606 H 0.44109 0.11596 0.0497 0.0
H607 H 0.42861 0.04112 0.9851 0.0
H608 H 0.50662 0.09794 0.02395 0.0
H609 H 0.41395 0.09455 0.94538 0.0
H610 H 0.39449 0.07841 0.98236 0.0
H611 H 0.39955 0.05668 0.95799 0.0
H612 H 0.5075 0.16349 0.99145 0.0
H613 H 0.52327 0.14799 0.019 0.0
H614 H 0.4924 0.15073 0.03054 0.0
C615 C 0.74042 0.14901 0.00504 0.0
C616 C 0.75135 0.17845 0.99671 0.0
C617 C 0.71051 0.13023 0.00954 0.0
C618 C 0.69125 0.14133 0.00553 0.0
C619 C 0.70243 0.17115 0.9966 0.0
C620 C 0.7324 0.18935 0.99233 0.0
C621 C 0.69953 0.09858 0.01902 0.0
C622 C 0.68278 0.18388 0.99216 0.0
C623 C 0.61404 0.08818 0.99136 0.0
C624 C 0.60089 0.07896 0.02147 0.0
C625 C 0.64326 0.10909 0.98566 0.0
C626 C 0.65947 0.12166 0.0106 0.0
C627 C 0.64561 0.11393 0.04072 0.0
C628 C 0.61661 0.09215 0.04593 0.0
C629 C 0.6573 0.11604 0.95341 0.0
C630 C 0.66187 0.1274 0.06778 0.0
H631 H 0.75537 0.14089 0.0087 0.0
H632 H 0.74123 0.21227 0.98606 0.0
H633 H 0.68746 0.0913 0.04201 0.0
H634 H 0.68433 0.08628 0.00225 0.0
H635 H 0.71726 0.09334 0.02036 0.0
H636 H 0.69491 0.20744 0.98471 0.0
H637 H 0.66733 0.17388 0.97453 0.0
H638 H 0.66993 0.1793 0.01416 0.0
H639 H 0.60211 0.07726 0.97264 0.0
H640 H 0.60661 0.08448 0.06932 0.0
H641 H 0.67306 0.10822 0.95341 0.0
H642 H 0.6694 0.13955 0.94593 0.0
H643 H 0.64133 0.10601 0.93617 0.0
H644 H 0.67727 0.11958 0.07397 0.0
H645 H 0.64719 0.12213 0.08851 0.0
H646 H 0.6746 0.15104 0.06155 0.0
C647 C 0.79929 0.5339 0.01438 0.0
C648 C 0.80581 0.5615 0.00088 0.0
C649 C 0.82052 0.52592 0.01631 0.0
C650 C 0.84864 0.54589 0.00349 0.0
C651 C 0.85509 0.57352 0.98872 0.0
C652 C 0.83351 0.5812 0.98801 0.0
C653 C 0.81291 0.4963 0.03216 0.0
C654 C 0.88468 0.59486 0.97372 0.0
C655 C 0.91312 0.53979 0.03022 0.0
C656 C 0.91924 0.52982 0.00497 0.0
C657 C 0.88935 0.54421 0.03061 0.0
C658 C 0.8714 0.53793 0.00544 0.0
C659 C 0.87633 0.52572 0.98114 0.0
C660 C 0.90049 0.52208 0.98106 0.0
C661 C 0.88442 0.55718 0.05689 0.0
C662 C 0.85719 0.51813 0.95432 0.0
H663 H 0.77743 0.51862 0.0235 0.0
H664 H 0.83803 0.60233 0.97723 0.0
H665 H 0.81773 0.48476 0.01603 0.0
H666 H 0.82626 0.49797 0.05221 0.0
H667 H 0.7898 0.48331 0.04056 0.0
H668 H 0.88581 0.61508 0.96244 0.0
H669 H 0.9009 0.59998 0.99136 0.0
H670 H 0.89071 0.58547 0.95597 0.0
H671 H 0.92789 0.54584 0.04854 0.0
H672 H 0.90534 0.51408 0.96173 0.0
H673 H 0.86172 0.54431 0.06659 0.0
H674 H 0.88829 0.57904 0.04804 0.0
H675 H 0.8989 0.55866 0.07583 0.0
H676 H 0.83416 0.5052 0.96281 0.0
H677 H 0.86222 0.50595 0.93919 0.0
H678 H 0.86009 0.53805 0.94009 0.0
C679 C 0.45305 0.28183 0.98669 0.0
C680 C 0.42741 0.2588 0.00101 0.0
C681 C 0.46298 0.30925 0.99406 0.0
C682 C 0.44654 0.31328 0.0161 0.0
C683 C 0.42076 0.28979 0.031 0.0
C684 C 0.41143 0.26259 0.02314 0.0
C685 C 0.49058 0.33389 0.97791 0.0
C686 C 0.40273 0.29353 0.05456 0.0
C687 C 0.47574 0.37672 0.05847 0.0
C688 C 0.46456 0.3927 0.04208 0.0
C689 C 0.47194 0.35165 0.04874 0.0
C690 C 0.45556 0.34216 0.02294 0.0
C691 C 0.4453 0.35901 0.00557 0.0
C692 C 0.45042 0.38456 0.01515 0.0
C693 C 0.48407 0.33462 0.06697 0.0
C694 C 0.42724 0.34912 0.97829 0.0
H695 H 0.46489 0.27825 0.96933 0.0
H696 H 0.39148 0.24436 0.03371 0.0
H697 H 0.48589 0.34953 0.96362 0.0
H698 H 0.50562 0.34535 0.99523 0.0
H699 H 0.50152 0.32669 0.96264 0.0
H700 H 0.38349 0.27292 0.06423 0.0
H701 H 0.41586 0.30317 0.07393 0.0
H702 H 0.3954 0.30845 0.04371 0.0
H703 H 0.48698 0.38357 0.07915 0.0
H704 H 0.4418 0.39721 0.00276 0.0
H705 H 0.49482 0.32769 0.05115 0.0
H706 H 0.46626 0.31503 0.08055 0.0
H707 H 0.49985 0.34712 0.08325 0.0
H708 H 0.43801 0.34289 0.96169 0.0
H709 H 0.42303 0.36589 0.96584 0.0
H710 H 0.40622 0.32988 0.98654 0.0
C711 C 0.17829 0.73219 0.02691 0.0
C712 C 0.17081 0.75377 0.02556 0.0
C713 C 0.15858 0.70489 0.02031 0.0
C714 C 0.13044 0.69886 0.01299 0.0
C715 C 0.1229 0.72075 0.01113 0.0
C716 C 0.14339 0.74812 0.01704 0.0
C717 C 0.16773 0.68242 0.02169 0.0
C718 C 0.09301 0.71504 0.00362 0.0
C719 C 0.08373 0.63805 0.96922 0.0
C720 C 0.06484 0.61695 0.99301 0.0
C721 C 0.10598 0.6643 0.97562 0.0
C722 C 0.10898 0.66989 0.00652 0.0
C723 C 0.09059 0.6483 0.03085 0.0
C724 C 0.06886 0.62183 0.02381 0.0
C725 C 0.12576 0.68632 0.94916 0.0
C726 C 0.09316 0.6536 0.06409 0.0
H727 H 0.19937 0.7365 0.03412 0.0
H728 H 0.1378 0.76496 0.01585 0.0
H729 H 0.1546 0.66437 0.0403 0.0
H730 H 0.16393 0.67359 0.99955 0.0
H731 H 0.19087 0.69108 0.02619 0.0
H732 H 0.09039 0.73415 0.0039 0.0
H733 H 0.08827 0.70831 0.98039 0.0
H734 H 0.07676 0.69719 0.02064 0.0
H735 H 0.08096 0.63409 0.94541 0.0
H736 H 0.05428 0.60547 0.0422 0.0
H737 H 0.14864 0.69445 0.95442 0.0
H738 H 0.12198 0.70489 0.94603 0.0
H739 H 0.12236 0.67754 0.92698 0.0
H740 H 0.1154 0.66029 0.07093 0.0
H741 H 0.07785 0.63433 0.08037 0.0
H742 H 0.08888 0.67138 0.06655 0.0
C743 C 0.27488 0.46161 0.06012 0.0
C744 C 0.25239 0.4454 0.04242 0.0
C745 C 0.30158 0.46296 0.05687 0.0
C746 C 0.30608 0.44888 0.03419 0.0
C747 C 0.28349 0.43287 0.01579 0.0
C748 C 0.25666 0.43109 0.02042 0.0
C749 C 0.32513 0.48001 0.07717 0.0
C750 C 0.28791 0.41838 0.99078 0.0
C751 C 0.38494 0.47773 0.01192 0.0
C752 C 0.39031 0.45849 0.03167 0.0
C753 C 0.35703 0.4741 0.01122 0.0
C754 C 0.33436 0.45057 0.03046 0.0
C755 C 0.33947 0.43014 0.04883 0.0
C756 C 0.36749 0.43446 0.04933 0.0
C757 C 0.35218 0.49626 0.99133 0.0
C758 C 0.31575 0.40471 0.06946 0.0
H759 H 0.27198 0.47419 0.07552 0.0
H760 H 0.23925 0.41952 0.00607 0.0
H761 H 0.33419 0.46682 0.08866 0.0
H762 H 0.34296 0.49891 0.06274 0.0
H763 H 0.31724 0.4876 0.09532 0.0
H764 H 0.26809 0.40696 0.97837 0.0
H765 H 0.30549 0.43454 0.97369 0.0
H766 H 0.29464 0.40279 0.00095 0.0
H767 H 0.4027 0.49629 0.99829 0.0
H768 H 0.37169 0.41934 0.06421 0.0
H769 H 0.34897 0.50963 0.00631 0.0
H770 H 0.33243 0.48581 0.97859 0.0
H771 H 0.37077 0.51059 0.97437 0.0
H772 H 0.30884 0.41228 0.08843 0.0
H773 H 0.32278 0.38941 0.07993 0.0
H774 H 0.29665 0.39312 0.0562 0.0
C775 C 0.58366 0.84585 0.02321 0.0
C776 C 0.56675 0.81773 0.03776 0.0
C777 C 0.57285 0.86494 0.02078 0.0
C778 C 0.54471 0.85551 0.03379 0.0
C779 C 0.52743 0.82681 0.04804 0.0
C780 C 0.53859 0.8081 0.04941 0.0
C781 C 0.59157 0.89523 0.00456 0.0
C782 C 0.49746 0.81607 0.0622 0.0
C783 C 0.54008 0.91874 0.05307 0.0
C784 C 0.52961 0.92601 0.02593 0.0
C785 C 0.54246 0.8939 0.05743 0.0
C786 C 0.53439 0.87638 0.03383 0.0
C787 C 0.52084 0.88209 0.00796 0.0
C788 C 0.51879 0.90716 0.0042 0.0
C789 C 0.5566 0.88825 0.08556 0.0
C790 C 0.51149 0.86369 0.98254 0.0
H791 H 0.60515 0.85267 0.01358 0.0
H792 H 0.52561 0.78594 0.06002 0.0
H793 H 0.57998 0.90032 0.98573 0.0
H794 H 0.59634 0.91055 0.02117 0.0
H795 H 0.6123 0.89867 0.99442 0.0
H796 H 0.48653 0.79283 0.07147 0.0
H797 H 0.49859 0.82805 0.08136 0.0
H798 H 0.48409 0.81994 0.04472 0.0
H799 H 0.54878 0.93375 0.06955 0.0
H800 H 0.5111 0.91324 0.98302 0.0
H801 H 0.57908 0.89414 0.07868 0.0
H802 H 0.54509 0.86517 0.09542 0.0
H803 H 0.55722 0.90091 0.10387 0.0
H804 H 0.53052 0.86994 0.96671 0.0
H805 H 0.49524 0.86652 0.96872 0.0
H806 H 0.50231 0.84068 0.99202 0.0
C807 C 0.94008 0.18469 0.36049 0.0
C808 C 0.92598 0.16578 0.38779 0.0
C809 C 0.96919 0.20565 0.3593 0.0
C810 C 0.98439 0.20839 0.38644 0.0
C811 C 0.96996 0.19005 0.41447 0.0
C812 C 0.94092 0.16864 0.41472 0.0
C813 C 0.98373 0.22453 0.32887 0.0
C814 C 0.98532 0.19283 0.44403 0.0
C815 C 0.06648 0.24752 0.37639 0.0
C816 C 0.07329 0.27466 0.38291 0.0
C817 C 0.03757 0.22547 0.37802 0.0
C818 C 0.01515 0.23105 0.38556 0.0
C819 C 0.02203 0.25866 0.39142 0.0
C820 C 0.05099 0.27999 0.39039 0.0
C821 C 0.03101 0.1962 0.3718 0.0
C822 C -0.00122 0.26578 0.3985 0.0
H823 H 0.92829 0.18259 0.3398 0.0
H824 H 0.9302 0.15375 0.43568 0.0
H825 H -0.00707 0.24741 0.33147 0.0
H826 H 0.00188 0.22148 0.32181 0.0
H827 H 0.96867 0.2198 0.31001 0.0
H828 H 0.97083 0.17752 0.46404 0.0
H829 H 0.00372 0.18899 0.44102 0.0
H830 H -0.00572 0.21493 0.44949 0.0
H831 H 0.08373 0.24339 0.37071 0.0
H832 H 0.05623 0.30112 0.395 0.0
H833 H 0.01732 0.19032 0.35185 0.0
H834 H 0.01864 0.1799 0.39217 0.0
H835 H 0.05087 0.19521 0.36673 0.0
H836 H 0.98483 0.26266 0.37876 0.0
H837 H 0.0078 0.28822 0.40294 0.0
H838 H 0.98481 0.25111 0.41908 0.0
C839 C 0.85328 0.82379 0.31399 0.0
C840 C 0.83799 0.79429 0.32471 0.0
C841 C 0.8386 0.83895 0.30575 0.0
C842 C 0.80819 0.82427 0.30985 0.0
C843 C 0.79281 0.79393 0.31635 0.0
C844 C 0.80811 0.77921 0.32297 0.0
C845 C 0.85565 0.87106 0.29712 0.0
C846 C 0.76029 0.77732 0.32072 0.0
C847 C 0.76849 0.85083 0.3538 0.0
C848 C 0.75024 0.85271 0.33165 0.0
C849 C 0.78996 0.84465 0.34605 0.0
C850 C 0.79298 0.8401 0.31536 0.0
C851 C 0.77716 0.84575 0.29203 0.0
C852 C 0.75581 0.85205 0.3005 0.0
C853 C 0.80651 0.83936 0.37192 0.0
C854 C 0.7806 0.84234 0.25884 0.0
H855 H 0.87647 0.83549 0.31515 0.0
H856 H 0.79657 0.75628 0.33062 0.0
H857 H 0.84439 0.87895 0.28048 0.0
H858 H 0.85817 0.88119 0.31824 0.0
H859 H 0.87752 0.87801 0.2868 0.0
H860 H 0.75169 0.75386 0.32237 0.0
H861 H 0.75326 0.78152 0.34239 0.0
H862 H 0.75059 0.7843 0.30129 0.0
H863 H 0.7645 0.85195 0.37778 0.0
H864 H 0.74189 0.85389 0.28318 0.0
H865 H 0.82878 0.84561 0.3639 0.0
H866 H 0.79508 0.81618 0.38128 0.0
H867 H 0.80767 0.85127 0.39121 0.0
H868 H 0.80313 0.84822 0.2523 0.0
H869 H 0.7742 0.85567 0.2427 0.0
H870 H 0.76643 0.81964 0.25588 0.0
C871 C 0.20674 0.04319 0.37999 0.0
C872 C 0.22966 0.06307 0.35894 0.0
C873 C 0.19344 0.01392 0.37832 0.0
C874 C 0.20346 0.00457 0.35493 0.0
C875 C 0.22607 0.02481 0.33292 0.0
C876 C 0.23904 0.05403 0.33529 0.0
C877 C 0.16963 0.99314 0.40235 0.0
C878 C 0.23709 0.01552 0.30748 0.0
C879 C 0.19842 0.93213 0.36311 0.0
C880 C 0.17774 0.91912 0.3421 0.0
C881 C 0.20561 0.95942 0.36938 0.0
C882 C 0.19164 0.97364 0.35418 0.0
C883 C 0.16884 0.95932 0.33517 0.0
C884 C 0.16241 0.93219 0.32896 0.0
C885 C 0.22971 0.97391 0.39021 0.0
C886 C 0.15279 0.97347 0.31954 0.0
H887 H 0.19977 0.05073 0.3982 0.0
H888 H 0.25678 0.06978 0.31917 0.0
H889 H 0.15207 0.9756 0.39182 0.0
H890 H 0.17847 0.98328 0.42 0.0
H891 H 0.16032 0.00397 0.41434 0.0
H892 H 0.25348 0.03402 0.29115 0.0
H893 H 0.24693 0.00265 0.31779 0.0
H894 H 0.21897 0.00168 0.2942 0.0
H895 H 0.21034 0.92182 0.37293 0.0
H896 H 0.14651 0.92187 0.3126 0.0
H897 H 0.22333 0.98374 0.40713 0.0
H898 H 0.24895 0.99141 0.37603 0.0
H899 H 0.23589 0.95876 0.40308 0.0
H900 H 0.14693 0.98399 0.33608 0.0
H901 H 0.13283 0.95789 0.30984 0.0
H902 H 0.16693 0.99033 0.30036 0.0
C903 C 0.5325 0.61756 0.33104 0.0
C904 C 0.5029 0.60763 0.33448 0.0
C905 C 0.55246 0.64582 0.33406 0.0
C906 C 0.54245 0.66408 0.34221 0.0
C907 C 0.51254 0.65356 0.34781 0.0
C908 C 0.493 0.62547 0.34327 0.0
C909 C 0.58421 0.65629 0.3278 0.0
C910 C 0.50116 0.67206 0.35785 0.0
C911 C 0.6003 0.7261 0.37605 0.0
C912 C 0.61051 0.74811 0.35056 0.0
C913 C 0.57684 0.69916 0.37418 0.0
C914 C 0.5637 0.69384 0.34586 0.0
C915 C 0.57314 0.7162 0.32029 0.0
C916 C 0.59638 0.74337 0.32307 0.0
C917 C 0.56675 0.67614 0.40227 0.0
C918 C 0.55954 0.71107 0.28969 0.0
H919 H 0.53992 0.60341 0.32471 0.0
H920 H 0.47003 0.61775 0.34555 0.0
H921 H 0.59366 0.67543 0.30959 0.0
H922 H 0.59575 0.66283 0.34902 0.0
H923 H 0.5882 0.63968 0.32015 0.0
H924 H 0.47782 0.65942 0.36535 0.0
H925 H 0.51317 0.683 0.37721 0.0
H926 H 0.50432 0.68891 0.33832 0.0
H927 H 0.61061 0.72995 0.39774 0.0
H928 H 0.60402 0.76054 0.30357 0.0
H929 H 0.57219 0.65948 0.39816 0.0
H930 H 0.54297 0.6655 0.40648 0.0
H931 H 0.57688 0.68482 0.42351 0.0
H932 H 0.56433 0.69608 0.27931 0.0
H933 H 0.56763 0.73121 0.27302 0.0
H934 H 0.53576 0.70088 0.29318 0.0
C935 C 0.37055 0.86233 0.38046 0.0
C936 C 0.38648 0.89153 0.36834 0.0
C937 C 0.3409 0.84929 0.3878 0.0
C938 C 0.32699 0.86568 0.38122 0.0
C939 C 0.3435 0.89578 0.37248 0.0
C940 C 0.37333 0.90846 0.36674 0.0
C941 C 0.32429 0.81748 0.39903 0.0
C942 C 0.32941 0.91407 0.36539 0.0
C943 C 0.26032 0.84032 0.33763 0.0
C944 C 0.24125 0.8406 0.35917 0.0
C945 C 0.28761 0.84534 0.34579 0.0
C946 C 0.29598 0.85137 0.37599 0.0
C947 C 0.27571 0.84863 0.39873 0.0
C948 C 0.24836 0.84317 0.39002 0.0
C949 C 0.30825 0.84667 0.32123 0.0
C950 C 0.28351 0.85369 0.43147 0.0
H951 H 0.38063 0.84909 0.38165 0.0
H952 H 0.38601 0.93116 0.35819 0.0
H953 H 0.30426 0.81132 0.41306 0.0
H954 H 0.31822 0.8058 0.3788 0.0
H955 H 0.33774 0.81046 0.41313 0.0
H956 H 0.34537 0.93733 0.36192 0.0
H957 H 0.31778 0.90891 0.34392 0.0
H958 H 0.31335 0.9095 0.38438 0.0
H959 H 0.2543 0.83728 0.31408 0.0
H960 H 0.23327 0.84275 0.40691 0.0
H961 H 0.31873 0.83409 0.33033 0.0
H962 H 0.32546 0.86922 0.31438 0.0
H963 H 0.29731 0.83831 0.30019 0.0
H964 H 0.29852 0.84579 0.43934 0.0
H965 H 0.26402 0.84305 0.44783 0.0
H966 H 0.29445 0.87702 0.43246 0.0
C967 C 0.11009 0.50803 0.28664 0.0
C968 C 0.09203 0.50487 0.31175 0.0
C969 C 0.12185 0.4897 0.28655 0.0
C970 C 0.11572 0.46827 0.31244 0.0
C971 C 0.09637 0.46436 0.33712 0.0
C972 C 0.08463 0.48255 0.33626 0.0
C973 C 0.14182 0.4941 0.25954 0.0
C974 C 0.08927 0.44199 0.36536 0.0
C975 C 0.12792 0.40461 0.32054 0.0
C976 C 0.15046 0.41339 0.34041 0.0
C977 C 0.11801 0.42341 0.3082 0.0
C978 C 0.13125 0.45155 0.3158 0.0
C979 C 0.15626 0.46136 0.33279 0.0
C980 C 0.16531 0.44198 0.34529 0.0
C981 C 0.09133 0.41205 0.29021 0.0
C982 C 0.17139 0.49128 0.34105 0.0
H983 H 0.11591 0.52549 0.2678 0.0
H984 H 0.07044 0.48019 0.35546 0.0
H985 H 0.1641 0.50234 0.26702 0.0
H986 H 0.13539 0.47341 0.25133 0.0
H987 H 0.14196 0.50952 0.23989 0.0
H988 H 0.07264 0.44076 0.38166 0.0
H989 H 0.08138 0.42058 0.35836 0.0
H990 H 0.10902 0.44711 0.37789 0.0
H991 H 0.11615 0.3823 0.31726 0.0
H992 H 0.18255 0.44859 0.36096 0.0
H993 H 0.09297 0.42851 0.27098 0.0
H994 H 0.07234 0.40632 0.30585 0.0
H995 H 0.08745 0.39258 0.28059 0.0
H996 H 0.17378 0.50724 0.32083 0.0
H997 H 0.19308 0.49712 0.34934 0.0
H998 H 0.1583 0.49265 0.35973 0.0
C999 C 0.39339 0.52183 0.33595 0.0
C1000 C 0.41483 0.5155 0.32806 0.0
C1001 C 0.36478 0.5002 0.34307 0.0
C1002 C 0.35717 0.47155 0.34112 0.0
C1003 C 0.37856 0.46505 0.3321 0.0
C1004 C 0.40733 0.48718 0.32595 0.0
C1005 C 0.34278 0.50801 0.35303 0.0
C1006 C 0.37104 0.43481 0.32895 0.0
C1007 C 0.28865 0.41091 0.38482 0.0
C1008 C 0.26906 0.40481 0.36168 0.0
C1009 C 0.3173 0.43311 0.37868 0.0
C1010 C 0.32672 0.44856 0.34831 0.0
C1011 C 0.30688 0.44247 0.32492 0.0
C1012 C 0.2781 0.421 0.33208 0.0
C1013 C 0.33759 0.4397 0.40448 0.0
C1014 C 0.31629 0.45785 0.29207 0.0
H1015 H 0.39917 0.5439 0.33671 0.0
H1016 H 0.42398 0.48238 0.31983 0.0
H1017 H 0.3256 0.50224 0.33648 0.0
H1018 H 0.33231 0.49568 0.37608 0.0
H1019 H 0.35253 0.53123 0.35441 0.0
H1020 H 0.39001 0.43349 0.32083 0.0
H1021 H 0.3622 0.42074 0.35158 0.0
H1022 H 0.35405 0.42626 0.31235 0.0
H1023 H 0.2816 0.39803 0.40758 0.0
H1024 H 0.26305 0.41569 0.31399 0.0
H1025 H 0.34786 0.4628 0.4066 0.0
H1026 H 0.3551 0.43516 0.39907 0.0
H1027 H 0.32642 0.42691 0.42716 0.0
H1028 H 0.32493 0.48117 0.29153 0.0
H1029 H 0.29835 0.44991 0.2764 0.0
H1030 H 0.33394 0.455 0.28288 0.0
C1031 C 0.45958 0.85912 0.34503 0.0
C1032 C 0.47129 0.8887 0.33624 0.0
C1033 C 0.47717 0.8466 0.34641 0.0
C1034 C 0.50694 0.86422 0.33824 0.0
C1035 C 0.51852 0.89393 0.32754 0.0
C1036 C 0.50042 0.90588 0.32687 0.0
C1037 C 0.4641 0.81489 0.35759 0.0
C1038 C 0.55014 0.91324 0.31764 0.0
C1039 C 0.56739 0.85378 0.36867 0.0
C1040 C 0.57737 0.84947 0.34157 0.0
C1041 C 0.54187 0.85521 0.36925 0.0
C1042 C 0.52663 0.85234 0.34203 0.0
C1043 C 0.53463 0.84392 0.31622 0.0
C1044 C 0.56017 0.84265 0.3163 0.0
C1045 C 0.53349 0.86363 0.39741 0.0
C1046 C 0.51867 0.84021 0.28697 0.0
H1047 H 0.43667 0.84594 0.35132 0.0
H1048 H 0.50904 0.92868 0.31981 0.0
H1049 H 0.47113 0.80473 0.34171 0.0
H1050 H 0.4717 0.81155 0.38069 0.0
H1051 H 0.44015 0.80378 0.35956 0.0
H1052 H 0.55527 0.93551 0.30864 0.0
H1053 H 0.56332 0.9138 0.3376 0.0
H1054 H 0.55665 0.90475 0.29931 0.0
H1055 H 0.58101 0.85919 0.38801 0.0
H1056 H 0.56823 0.83931 0.29536 0.0
H1057 H 0.50977 0.85154 0.40251 0.0
H1058 H 0.54019 0.88677 0.39283 0.0
H1059 H 0.54402 0.85985 0.41817 0.0
H1060 H 0.49503 0.82924 0.29233 0.0
H1061 H 0.52363 0.82782 0.27209 0.0
H1062 H 0.52523 0.86161 0.27353 0.0
C1063 C 0.11402 0.60842 0.33019 0.0
C1064 C 0.08768 0.58579 0.34384 0.0
C1065 C 0.12355 0.63647 0.3355 0.0
C1066 C 0.10618 0.6418 0.35494 0.0
C1067 C 0.07956 0.61887 0.36896 0.0
C1068 C 0.07056 0.591 0.36311 0.0
C1069 C 0.15193 0.66037 0.32004 0.0
C1070 C 0.06044 0.62388 0.38969 0.0
C1071 C 0.13607 0.70633 0.39634 0.0
C1072 C 0.12704 0.72355 0.37835 0.0
C1073 C 0.13114 0.68043 0.38771 0.0
C1074 C 0.11587 0.67124 0.36116 0.0
C1075 C 0.10785 0.68925 0.34213 0.0
C1076 C 0.11398 0.71556 0.35078 0.0
C1077 C 0.14102 0.66229 0.40784 0.0
C1078 C 0.09126 0.68 0.31381 0.0
H1079 H 0.12667 0.60406 0.31466 0.0
H1080 H 0.04994 0.57332 0.37295 0.0
H1081 H 0.14848 0.6767 0.30536 0.0
H1082 H 0.16668 0.67123 0.33785 0.0
H1083 H 0.16265 0.65252 0.30535 0.0
H1084 H 0.04027 0.60378 0.39845 0.0
H1085 H 0.07221 0.63346 0.40982 0.0
H1086 H 0.05465 0.63932 0.37685 0.0
H1087 H 0.14651 0.71289 0.41749 0.0
H1088 H 0.10697 0.72903 0.33703 0.0
H1089 H 0.1524 0.65493 0.39342 0.0
H1090 H 0.12199 0.64292 0.42014 0.0
H1091 H 0.15564 0.67408 0.42533 0.0
H1092 H 0.10197 0.67245 0.29875 0.0
H1093 H 0.08908 0.69757 0.29999 0.0
H1094 H 0.06935 0.66176 0.32107 0.0
C1095 C 0.82214 0.07314 0.33929 0.0
C1096 C 0.84354 0.07932 0.3602 0.0
C1097 C 0.80249 0.04467 0.33632 0.0
C1098 C 0.80427 0.02214 0.35517 0.0
C1099 C 0.82691 0.02848 0.37515 0.0
C1100 C 0.84636 0.05715 0.37742 0.0
C1101 C 0.77878 0.0387 0.31443 0.0
C1102 C 0.82947 0.0051 0.39555 0.0
C1103 C 0.72961 0.95887 0.36879 0.0
C1104 C 0.7296 0.9441 0.34494 0.0
C1105 C 0.75506 0.9828 0.37495 0.0
C1106 C 0.78056 0.99232 0.35606 0.0
C1107 C 0.7812 0.97547 0.33429 0.0
C1108 C 0.75552 0.95129 0.32907 0.0
C1109 C 0.75375 -0.00026 0.3991 0.0
C1110 C 0.8079 0.98476 0.31377 0.0
H1111 H 0.82005 0.09055 0.32647 0.0
H1112 H 0.86284 0.06238 0.39394 0.0
H1113 H 0.77759 0.02324 0.29939 0.0
H1114 H 0.7577 0.02888 0.32792 0.0
H1115 H 0.78204 0.05849 0.29948 0.0
H1116 H 0.8501 0.01359 0.40709 0.0
H1117 H 0.81139 0.99427 0.41368 0.0
H1118 H 0.8279 0.98863 0.38182 0.0
H1119 H 0.70932 0.95327 0.38073 0.0
H1120 H 0.75516 0.9399 0.31029 0.0
H1121 H 0.75328 0.01903 0.38745 0.0
H1122 H 0.77312 0.00712 0.41272 0.0
H1123 H 0.73421 0.98697 0.41526 0.0
H1124 H 0.80922 0.00049 0.29382 0.0
H1125 H 0.80726 0.96631 0.30455 0.0
H1126 H 0.82776 -0.00473 0.32631 0.0
C1127 C 0.91997 0.75645 0.37204 0.0
C1128 C 0.91486 0.77951 0.3698 0.0
C1129 C 0.94818 0.761 0.37321 0.0
C1130 C 0.97145 0.78925 0.37254 0.0
C1131 C 0.96609 0.8125 0.3713 0.0
C1132 C 0.93773 0.80731 0.3696 0.0
C1133 C 0.95319 0.73575 0.37445 0.0
C1134 C 0.99023 0.84282 0.37116 0.0
C1135 C 0.04017 0.79401 0.40213 0.0
C1136 C 0.05592 0.79813 0.37445 0.0
C1137 C 0.01309 0.7922 0.4018 0.0
C1138 C 0.00135 0.79429 0.3731 0.0
C1139 C 0.01754 0.79955 0.34502 0.0
C1140 C 0.04477 0.8015 0.34603 0.0
C1141 C -0.00324 0.78736 0.43219 0.0
C1142 C 0.0057 0.80221 0.31398 0.0
H1143 H 0.90194 0.73508 0.37193 0.0
H1144 H 0.93324 0.82492 0.3678 0.0
H1145 H 0.96726 0.73887 0.354 0.0
H1146 H 0.96453 0.73417 0.39539 0.0
H1147 H 0.93275 0.7152 0.37485 0.0
H1148 H 0.98205 0.85797 0.37284 0.0
H1149 H 0.00392 0.84382 0.39073 0.0
H1150 H 0.00422 0.85009 0.34946 0.0
H1151 H 0.04893 0.79202 0.42423 0.0
H1152 H 0.057 0.80501 0.32461 0.0
H1153 H 0.97724 0.76584 0.43538 0.0
H1154 H 0.98939 0.80332 0.43208 0.0
H1155 H 0.01001 0.78879 0.45233 0.0
H1156 H 0.98665 0.78138 0.31121 0.0
H1157 H 0.02188 0.80856 0.29439 0.0
H1158 H -0.00165 0.81826 0.31265 0.0
C1159 C 0.19831 0.13868 0.36796 0.0
C1160 C 0.22705 0.1479 0.37485 0.0
C1161 C 0.18734 0.15765 0.3647 0.0
C1162 C 0.20472 0.18581 0.37124 0.0
C1163 C 0.23258 0.19419 0.38178 0.0
C1164 C 0.24378 0.17548 0.38241 0.0
C1165 C 0.15808 0.14819 0.3521 0.0
C1166 C 0.25127 0.22357 0.3906 0.0
C1167 C 0.20298 0.24931 0.32639 0.0
C1168 C 0.19009 0.25693 0.34849 0.0
C1169 C 0.20619 0.2251 0.33294 0.0
C1170 C 0.19608 0.20791 0.36232 0.0
C1171 C 0.18061 0.21393 0.38369 0.0
C1172 C 0.17763 0.23849 0.37641 0.0
C1173 C 0.22263 0.21941 0.30931 0.0
C1174 C 0.16899 0.19565 0.41497 0.0
H1175 H 0.18465 0.11686 0.36393 0.0
H1176 H 0.26594 0.18281 0.38784 0.0
H1177 H 0.14427 0.15187 0.36763 0.0
H1178 H 0.16057 0.16116 0.32919 0.0
H1179 H 0.14686 0.12521 0.34922 0.0
H1180 H 0.26968 0.22475 0.40371 0.0
H1181 H 0.25999 0.23971 0.36934 0.0
H1182 H 0.23842 0.22942 0.40495 0.0
H1183 H 0.21242 0.26351 0.30464 0.0
H1184 H 0.16772 0.24445 0.39348 0.0
H1185 H 0.21122 0.19644 0.30649 0.0
H1186 H 0.24421 0.2246 0.31744 0.0
H1187 H 0.22576 0.23252 0.28631 0.0
H1188 H 0.15215 0.17374 0.41196 0.0
H1189 H 0.15942 0.20449 0.4298 0.0
H1190 H 0.18643 0.19373 0.4272 0.0
C1191 C 0.61248 0.4874 0.71678 0.0
C1192 C 0.5928 0.49746 0.71753 0.0
C1193 C 0.64237 0.50644 0.714 0.0
C1194 C 0.65276 0.53622 0.71251 0.0
C1195 C 0.63284 0.54634 0.71404 0.0
C1196 C 0.60309 0.52682 0.71634 0.0
C1197 C 0.66278 0.49473 0.71233 0.0
C1198 C 0.64296 0.57786 0.71277 0.0
C1199 C 0.72771 0.5856 0.73608 0.0
C1200 C 0.74285 0.60035 0.70738 0.0
C1201 C 0.69877 0.56394 0.73797 0.0
C1202 C 0.68439 0.55682 0.71048 0.0
C1203 C 0.69986 0.5707 0.68133 0.0
C1204 C 0.729 0.59226 0.68011 0.0
C1205 C 0.68328 0.54951 0.76951 0.0
C1206 C 0.68534 0.56346 0.65148 0.0
H1207 H 0.60438 0.46462 0.71778 0.0
H1208 H 0.58778 0.53454 0.7161 0.0
H1209 H 0.67737 0.50523 0.69099 0.0
H1210 H 0.6765 0.49959 0.73232 0.0
H1211 H 0.6512 0.47119 0.71241 0.0
H1212 H 0.62473 0.58218 0.7147 0.0
H1213 H 0.65719 0.58628 0.73183 0.0
H1214 H 0.65583 0.5899 0.69064 0.0
H1215 H 0.73836 0.59137 0.75731 0.0
H1216 H 0.74057 0.6035 0.65787 0.0
H1217 H 0.67259 0.52589 0.77093 0.0
H1218 H 0.66617 0.55507 0.77322 0.0
H1219 H 0.69807 0.55601 0.78854 0.0
H1220 H 0.67498 0.54006 0.65111 0.0
H1221 H 0.70072 0.57488 0.63077 0.0
H1222 H 0.66806 0.5693 0.64986 0.0
C1223 C 0.51352 0.14825 0.69124 0.0
C1224 C 0.50792 0.12738 0.67243 0.0
C1225 C 0.50027 0.16503 0.68663 0.0
C1226 C 0.48111 0.16036 0.66282 0.0
C1227 C 0.48019 0.14354 0.64021 0.0
C1228 C 0.49328 0.12651 0.64568 0.0
C1229 C 0.50307 0.18412 0.71014 0.0
C1230 C 0.46195 0.14027 0.61292 0.0
C1231 C 0.40796 0.14269 0.69451 0.0
C1232 C 0.40628 0.16673 0.68169 0.0
C1233 C 0.43211 0.14036 0.6878 0.0
C1234 C 0.45553 0.16321 0.66857 0.0
C1235 C 0.45422 0.18802 0.65612 0.0
C1236 C 0.4292 0.18931 0.66255 0.0
C1237 C 0.43235 0.11328 0.70144 0.0
C1238 C 0.47911 0.2134 0.63681 0.0
H1239 H 0.5262 0.14954 0.71111 0.0
H1240 H 0.49036 0.11118 0.63048 0.0
H1241 H 0.50313 0.20377 0.69883 0.0
H1242 H 0.48432 0.17249 0.72746 0.0
H1243 H 0.52305 0.19032 0.72261 0.0
H1244 H 0.46943 0.1333 0.59381 0.0
H1245 H 0.43926 0.12383 0.62027 0.0
H1246 H 0.4624 0.16071 0.60412 0.0
H1247 H 0.38987 0.12522 0.70897 0.0
H1248 H 0.42762 0.20801 0.65291 0.0
H1249 H 0.4498 0.11851 0.7176 0.0
H1250 H 0.43648 0.10339 0.68283 0.0
H1251 H 0.41165 0.0971 0.71442 0.0
H1252 H 0.49325 0.22841 0.65237 0.0
H1253 H 0.47138 0.22522 0.62018 0.0
H1254 H 0.49234 0.20708 0.6238 0.0
C1255 C 0.86917 0.38018 0.68733 0.0
C1256 C 0.8986 0.39744 0.6909 0.0
C1257 C 0.85819 0.352 0.68164 0.0
C1258 C 0.877 0.34062 0.68061 0.0
C1259 C 0.90679 0.35797 0.68426 0.0
C1260 C 0.91732 0.38643 0.6888 0.0
C1261 C 0.82644 0.33436 0.67706 0.0
C1262 C 0.92742 0.34638 0.68379 0.0
C1263 C 0.84661 0.26004 0.69255 0.0
C1264 C 0.8487 0.25543 0.6621 0.0
C1265 C 0.85525 0.28772 0.699 0.0
C1266 C 0.8658 0.31095 0.67434 0.0
C1267 C 0.86663 0.30609 0.64348 0.0
C1268 C 0.85814 0.2784 0.63776 0.0
C1269 C 0.8543 0.2923 0.73223 0.0
C1270 C 0.87737 0.33028 0.61656 0.0
H1271 H 0.85463 0.38851 0.68982 0.0
H1272 H 0.94007 0.39994 0.69162 0.0
H1273 H 0.82342 0.32552 0.65497 0.0
H1274 H 0.81609 0.31593 0.69602 0.0
H1275 H 0.81515 0.34704 0.67668 0.0
H1276 H 0.94967 0.36232 0.68845 0.0
H1277 H 0.91983 0.32697 0.70144 0.0
H1278 H 0.92809 0.33992 0.66089 0.0
H1279 H 0.8395 0.24234 0.71139 0.0
H1280 H 0.85954 0.27485 0.61412 0.0
H1281 H 0.84208 0.30369 0.7349 0.0
H1282 H 0.87653 0.30602 0.73886 0.0
H1283 H 0.84419 0.27181 0.74854 0.0
H1284 H 0.86553 0.34232 0.61715 0.0
H1285 H 0.87487 0.32253 0.59382 0.0
H1286 H 0.90053 0.34555 0.61836 0.0
C1287 C 0.16153 0.94768 0.68402 0.0
C1288 C 0.17306 0.93003 0.6793 0.0
C1289 C 0.17947 0.97632 0.68792 0.0
C1290 C 0.20976 0.98788 0.68579 0.0
C1291 C 0.22153 0.97005 0.68136 0.0
C1292 C 0.20296 0.94113 0.67888 0.0
C1293 C 0.166 0.99429 0.69377 0.0
C1294 C 0.25372 0.98164 0.67867 0.0
C1295 C 0.258 0.06902 0.66866 0.0
C1296 C 0.26711 0.07539 0.69818 0.0
C1297 C 0.23911 0.04055 0.66418 0.0
C1298 C 0.22908 0.01822 0.68985 0.0
C1299 C 0.23769 0.02472 0.71972 0.0
C1300 C 0.25655 0.05311 0.72348 0.0
C1301 C 0.23034 0.03427 0.63196 0.0
C1302 C 0.22719 0.00165 0.74777 0.0
H1303 H 0.13848 0.93932 0.68363 0.0
H1304 H 0.2118 0.92733 0.67573 0.0
H1305 H 0.17476 0.00501 0.71435 0.0
H1306 H 0.17142 0.01132 0.67366 0.0
H1307 H 0.14215 0.98134 0.69761 0.0
H1308 H 0.25939 0.9653 0.67369 0.0
H1309 H 0.26388 0.00027 0.65988 0.0
H1310 H 0.26318 0.98932 0.70049 0.0
H1311 H 0.2661 0.08608 0.64904 0.0
H1312 H 0.2632 0.05775 0.7465 0.0
H1313 H 0.20652 0.02362 0.63151 0.0
H1314 H 0.23711 0.01924 0.62522 0.0
H1315 H 0.23998 0.05397 0.61447 0.0
H1316 H 0.20327 0.98968 0.75005 0.0
H1317 H 0.23517 0.01048 0.76958 0.0
H1318 H 0.23448 0.98603 0.74497 0.0
C1319 C 0.03242 0.18714 0.70801 0.0
C1320 C 0.04878 0.21658 0.69734 0.0
C1321 C 0.00267 0.17425 0.7143 0.0
C1322 C 0.98928 0.19116 0.70814 0.0
C1323 C 0.00611 0.22132 0.7003 0.0
C1324 C 0.03594 0.23375 0.69545 0.0
C1325 C 0.98556 0.14228 0.72441 0.0
C1326 C -0.00753 0.24008 0.69361 0.0
C1327 C 0.92253 0.16884 0.66551 0.0
C1328 C 0.90432 0.16954 0.68779 0.0
C1329 C 0.94952 0.17253 0.67303 0.0
C1330 C 0.95834 0.17755 0.70334 0.0
C1331 C 0.93881 0.17513 0.72672 0.0
C1332 C 0.91183 0.17111 0.71863 0.0
C1333 C 0.96952 0.1737 0.64782 0.0
C1334 C 0.94719 0.17932 0.7595 0.0
H1335 H 0.04254 0.17391 0.70932 0.0
H1336 H 0.04902 0.25657 0.68769 0.0
H1337 H 0.96572 0.13612 0.73881 0.0
H1338 H 0.97905 0.13134 0.70367 0.0
H1339 H -0.00128 0.1344 0.73779 0.0
H1340 H 0.00872 0.26326 0.69027 0.0
H1341 H 0.98067 0.23525 0.67223 0.0
H1342 H 0.97664 0.23566 0.7128 0.0
H1343 H 0.91617 0.16654 0.64195 0.0
H1344 H 0.89738 0.17091 0.73615 0.0
H1345 H 0.9794 0.16037 0.65615 0.0
H1346 H 0.98724 0.19609 0.64136 0.0
H1347 H 0.95817 0.16611 0.62671 0.0
H1348 H 0.96165 0.17055 0.76662 0.0
H1349 H 0.9279 0.16899 0.77613 0.0
H1350 H 0.95894 0.20257 0.76101 0.0
C1351 C 0.74087 0.81002 0.64246 0.0
C1352 C 0.76087 0.83923 0.64004 0.0
C1353 C 0.75019 0.78957 0.64611 0.0
C1354 C 0.77999 0.79874 0.6482 0.0
C1355 C 0.80024 0.82837 0.64248 0.0
C1356 C 0.79039 0.84821 0.63802 0.0
C1357 C 0.72807 0.75816 0.65027 0.0
C1358 C 0.83216 0.83922 0.64423 0.0
C1359 C 0.79835 0.75367 0.70836 0.0
C1360 C 0.80762 0.73975 0.69023 0.0
C1361 C 0.78937 0.77277 0.6948 0.0
C1362 C 0.78952 0.77822 0.66212 0.0
C1363 C 0.79958 0.76486 0.64353 0.0
C1364 C 0.80844 0.74569 0.65782 0.0
C1365 C 0.77955 0.78705 0.71561 0.0
C1366 C 0.80018 0.76985 0.60865 0.0
H1367 H 0.71805 0.80318 0.64365 0.0
H1368 H 0.80573 0.87094 0.63551 0.0
H1369 H 0.73542 0.74646 0.63702 0.0
H1370 H 0.72537 0.74893 0.67511 0.0
H1371 H 0.70677 0.75456 0.64261 0.0
H1372 H 0.84518 0.86251 0.6355 0.0
H1373 H 0.83683 0.83544 0.66871 0.0
H1374 H 0.83911 0.82743 0.63068 0.0
H1375 H 0.79771 0.74937 0.7334 0.0
H1376 H 0.81529 0.73485 0.64359 0.0
H1377 H 0.75673 0.78102 0.71208 0.0
H1378 H 0.79264 0.81069 0.70961 0.0
H1379 H 0.78135 0.781 0.74053 0.0
H1380 H 0.77893 0.75429 0.60123 0.0
H1381 H 0.81694 0.76648 0.59804 0.0
H1382 H 0.80431 0.79173 0.59952 0.0
C1383 C 0.0623 0.85058 0.67408 0.0
C1384 C 0.0827 0.84296 0.66574 0.0
C1385 C 0.03266 0.83065 0.6769 0.0
C1386 C 0.02304 0.80273 0.66994 0.0
C1387 C 0.04355 0.795 0.66121 0.0
C1388 C 0.07313 0.81505 0.65983 0.0
C1389 C 0.01164 0.83961 0.68699 0.0
C1390 C 0.03423 0.76566 0.65295 0.0
C1391 C 0.94753 0.74117 0.6965 0.0
C1392 C 0.93335 0.73919 0.66902 0.0
C1393 C 0.97661 0.76215 0.69741 0.0
C1394 C -0.00843 0.78193 0.67039 0.0
C1395 C 0.97678 0.7809 0.64311 0.0
C1396 C 0.94799 0.75934 0.64265 0.0
C1397 C -0.00836 0.76244 0.7269 0.0
C1398 C -0.00835 0.80198 0.61402 0.0
H1399 H 0.06956 0.8723 0.67807 0.0
H1400 H 0.08879 0.80883 0.65429 0.0
H1401 H -0.00265 0.83887 0.66813 0.0
H1402 H -0.00233 0.82447 0.70734 0.0
H1403 H 0.02272 0.86159 0.6932 0.0
H1404 H 0.05284 0.76312 0.64633 0.0
H1405 H 0.02147 0.74895 0.67286 0.0
H1406 H 0.02008 0.76179 0.63332 0.0
H1407 H 0.9363 0.7255 0.71687 0.0
H1408 H 0.93696 0.75801 0.62145 0.0
H1409 H 0.00262 0.78428 0.73338 0.0
H1410 H 0.0085 0.75654 0.72317 0.0
H1411 H 0.97648 0.74722 0.74654 0.0
H1412 H 0.00155 0.82425 0.61914 0.0
H1413 H 0.97661 0.79946 0.59543 0.0
H1414 H 0.00931 0.79896 0.60523 0.0
C1415 C 0.16127 0.23055 0.69432 0.0
C1416 C 0.13938 0.22033 0.67399 0.0
C1417 C 0.18187 0.22168 0.69552 0.0
C1418 C 0.1811 0.20347 0.67468 0.0
C1419 C 0.15827 0.19223 0.65492 0.0
C1420 C 0.13718 0.20035 0.65544 0.0
C1421 C 0.20547 0.23325 0.7176 0.0
C1422 C 0.15665 0.17265 0.63244 0.0
C1423 C 0.25472 0.22123 0.64506 0.0
C1424 C 0.25802 0.1994 0.66228 0.0
C1425 C 0.22935 0.2223 0.64855 0.0
C1426 C 0.20681 0.20085 0.66961 0.0
C1427 C 0.2096 0.17822 0.68641 0.0
C1428 C 0.23549 0.17789 0.68272 0.0
C1429 C 0.22684 0.24661 0.63001 0.0
C1430 C 0.18545 0.15464 0.70827 0.0
H1431 H 0.16262 0.24596 0.70863 0.0
H1432 H 0.11926 0.19162 0.64085 0.0
H1433 H 0.2093 0.21597 0.72922 0.0
H1434 H 0.22585 0.24988 0.70448 0.0
H1435 H 0.20018 0.24298 0.73561 0.0
H1436 H 0.1404 0.17003 0.6152 0.0
H1437 H 0.17786 0.18093 0.61975 0.0
H1438 H 0.15054 0.15121 0.64541 0.0
H1439 H 0.27222 0.23784 0.62925 0.0
H1440 H 0.23804 0.16075 0.69557 0.0
H1441 H 0.22449 0.25983 0.6459 0.0
H1442 H 0.20731 0.23798 0.61662 0.0
H1443 H 0.24593 0.26076 0.61361 0.0
H1444 H 0.17934 0.1639 0.72611 0.0
H1445 H 0.1914 0.1389 0.72004 0.0
H1446 H 0.16611 0.14311 0.6953 0.0
C1447 C 0.79013 0.94534 0.66452 0.0
C1448 C 0.76398 0.92185 0.67719 0.0
C1449 C 0.79896 0.97261 0.67207 0.0
C1450 C 0.78119 0.9761 0.69302 0.0
C1451 C 0.75557 0.95193 0.70734 0.0
C1452 C 0.7471 0.92499 0.69893 0.0
C1453 C 0.82629 -0.00217 0.6562 0.0
C1454 C 0.73633 0.9548 0.73016 0.0
C1455 C 0.80685 0.04251 0.73084 0.0
C1456 C 0.7949 0.05696 0.71269 0.0
C1457 C 0.80409 0.01692 0.72356 0.0
C1458 C 0.78806 0.00514 0.69829 0.0
C1459 C 0.77675 0.02022 0.67927 0.0
C1460 C 0.78073 0.04632 0.68647 0.0
C1461 C 0.81734 0.00197 0.74363 0.0
C1462 C 0.7592 0.00807 0.65233 0.0
H1463 H 0.80266 0.94251 0.64727 0.0
H1464 H 0.72672 0.90658 0.70822 0.0
H1465 H 0.82072 0.01132 0.63927 0.0
H1466 H 0.83965 0.01141 0.67327 0.0
H1467 H 0.83936 0.99099 0.64365 0.0
H1468 H 0.71843 0.93366 0.74095 0.0
H1469 H 0.74905 0.96647 0.74877 0.0
H1470 H 0.72695 0.9675 0.71817 0.0
H1471 H 0.81808 0.05111 0.75095 0.0
H1472 H 0.77145 0.05762 0.67263 0.0
H1473 H 0.82931 -0.00467 0.72907 0.0
H1474 H 0.80002 0.98228 0.75762 0.0
H1475 H 0.83231 0.01582 0.75962 0.0
H1476 H 0.77131 0.00252 0.63658 0.0
H1477 H 0.7534 0.02325 0.6388 0.0
H1478 H 0.73903 0.98801 0.66105 0.0
C1479 C 0.50628 0.39576 0.70605 0.0
C1480 C 0.50279 0.41848 0.69159 0.0
C1481 C 0.48707 0.36747 0.702 0.0
C1482 C 0.46392 0.36193 0.68287 0.0
C1483 C 0.4604 0.38496 0.66813 0.0
C1484 C 0.47988 0.41307 0.67286 0.0
C1485 C 0.4915 0.34358 0.71823 0.0
C1486 C 0.43599 0.37985 0.6475 0.0
C1487 C 0.42892 0.29642 0.64275 0.0
C1488 C 0.40272 0.27956 0.66045 0.0
C1489 C 0.44988 0.32248 0.65105 0.0
C1490 C 0.444 0.33225 0.6771 0.0
C1491 C 0.41811 0.31454 0.696 0.0
C1492 C 0.39779 0.28809 0.68758 0.0
C1493 C 0.47762 0.34024 0.63093 0.0
C1494 C 0.41108 0.32429 0.72394 0.0
H1495 H 0.52381 0.40028 0.7211 0.0
H1496 H 0.47715 0.43083 0.66229 0.0
H1497 H 0.47185 0.32758 0.73293 0.0
H1498 H 0.49521 0.3323 0.70087 0.0
H1499 H 0.51011 0.35153 0.73302 0.0
H1500 H 0.43597 0.39999 0.63825 0.0
H1501 H 0.43768 0.36974 0.6277 0.0
H1502 H 0.41501 0.36482 0.66058 0.0
H1503 H 0.43263 0.28957 0.62183 0.0
H1504 H 0.37734 0.275 0.70105 0.0
H1505 H 0.49645 0.34781 0.64537 0.0
H1506 H 0.47779 0.35947 0.61811 0.0
H1507 H 0.48031 0.32808 0.61387 0.0
H1508 H 0.42948 0.33207 0.73895 0.0
H1509 H 0.39158 0.30691 0.73791 0.0
H1510 H 0.40725 0.34249 0.71621 0.0
C1511 C 0.58703 0.08306 0.70919 0.0
C1512 C 0.57993 0.10478 0.70424 0.0
C1513 C 0.61583 0.08987 0.71124 0.0
C1514 C 0.63758 0.11904 0.70809 0.0
C1515 C 0.6302 0.14096 0.7047 0.0
C1516 C 0.60125 0.13345 0.70316 0.0
C1517 C 0.62309 0.06599 0.71575 0.0
C1518 C 0.6528 0.17226 0.70139 0.0
C1519 C 0.7092 0.13086 0.7349 0.0
C1520 C 0.72314 0.13218 0.70708 0.0
C1521 C 0.68177 0.12809 0.73536 0.0
C1522 C 0.66805 0.1264 0.70736 0.0
C1523 C 0.68262 0.1294 0.67895 0.0
C1524 C 0.71021 0.13235 0.67913 0.0
C1525 C 0.66704 0.12571 0.76595 0.0
C1526 C 0.66856 0.12821 0.64862 0.0
H1527 H 0.57011 0.06096 0.71049 0.0
H1528 H 0.59516 0.14998 0.7004 0.0
H1529 H 0.63617 0.06761 0.69513 0.0
H1530 H 0.63626 0.06797 0.73603 0.0
H1531 H 0.6035 0.04447 0.71936 0.0
H1532 H 0.64314 0.18624 0.70276 0.0
H1533 H 0.66838 0.17604 0.71958 0.0
H1534 H 0.66516 0.17878 0.67866 0.0
H1535 H 0.71954 0.13152 0.75649 0.0
H1536 H 0.72118 0.13377 0.65759 0.0
H1537 H 0.64874 0.10362 0.77231 0.0
H1538 H 0.65802 0.14045 0.76408 0.0
H1539 H 0.68195 0.13066 0.78497 0.0
H1540 H 0.65008 0.10634 0.64848 0.0
H1541 H 0.68378 0.13354 0.62837 0.0
H1542 H 0.65993 0.14327 0.64592 0.0
C1543 C 0.9227 0.51592 0.70605 0.0
C1544 C 0.90179 0.48719 0.70686 0.0
C1545 C 0.9148 0.53731 0.70361 0.0
C1546 C 0.88529 0.52954 0.70215 0.0
C1547 C 0.86404 0.50028 0.70481 0.0
C1548 C 0.8726 0.47945 0.70707 0.0
C1549 C 0.93809 0.56828 0.70088 0.0
C1550 C 0.83238 0.49103 0.70361 0.0
C1551 C 0.8649 0.58755 0.70587 0.0
C1552 C 0.86597 0.59741 0.67427 0.0
C1553 C 0.87054 0.56495 0.71557 0.0
C1554 C 0.87718 0.55203 0.69307 0.0
C1555 C 0.87695 0.56112 0.66121 0.0
C1556 C 0.87141 0.58366 0.65226 0.0
C1557 C 0.87034 0.55556 0.74975 0.0
C1558 C 0.88342 0.54763 0.63643 0.0
H1559 H 0.94523 0.52161 0.70634 0.0
H1560 H 0.85652 0.45702 0.70867 0.0
H1561 H 0.93949 0.57931 0.67709 0.0
H1562 H 0.93275 0.57938 0.71714 0.0
H1563 H 0.95956 0.57054 0.70571 0.0
H1564 H 0.81851 0.46753 0.71048 0.0
H1565 H 0.82626 0.50221 0.71901 0.0
H1566 H 0.82792 0.49691 0.67967 0.0
H1567 H 0.86068 0.59812 0.72294 0.0
H1568 H 0.87181 0.59087 0.62777 0.0
H1569 H 0.89264 0.56169 0.75598 0.0
H1570 H 0.85723 0.53191 0.75552 0.0
H1571 H 0.86168 0.56547 0.76419 0.0
H1572 H 0.90575 0.55127 0.6378 0.0
H1573 H 0.88121 0.55646 0.61272 0.0
H1574 H 0.86865 0.52412 0.64012 0.0
C1575 C 0.44653 0.90011 0.26048 0.0
C1576 C 0.45776 0.91933 0.28181 0.0
C1577 C 0.45516 0.90948 0.22881 0.0
C1578 C 0.47526 0.93874 0.21858 0.0
C1579 C 0.48827 0.95756 0.24059 0.0
C1580 C 0.47919 0.94758 0.27204 0.0
C1581 C 0.44104 0.88867 0.20612 0.0
C1582 C 0.50982 0.98883 0.23076 0.0
C1583 C 0.503 0.96488 0.13369 0.0
C1584 C 0.48311 0.97304 0.12205 0.0
C1585 C 0.50077 0.95344 0.16513 0.0
C1586 C 0.4785 0.9507 0.18523 0.0
C1587 C 0.45888 0.95963 0.17358 0.0
C1588 C 0.46127 0.97039 0.14212 0.0
C1589 C 0.52165 0.94356 0.1766 0.0
C1590 C 0.43511 0.95759 0.19429 0.0
H1591 H 0.42983 0.87827 0.26844 0.0
H1592 H 0.48758 0.9622 0.2889 0.0
H1593 H 0.42531 0.89339 0.19359 0.0
H1594 H 0.45733 0.89101 0.18859 0.0
H1595 H 0.42941 0.8661 0.21787 0.0
H1596 H 0.52109 -0.00059 0.25066 0.0
H1597 H 0.52613 0.99143 0.2131 0.0
H1598 H 0.49845 5e-05 0.22008 0.0
H1599 H 0.51967 0.96655 0.11805 0.0
H1600 H 0.44594 0.97678 0.13316 0.0
H1601 H 0.50989 0.91994 0.18329 0.0
H1602 H 0.53146 0.95298 0.19758 0.0
H1603 H 0.53916 0.94935 0.15874 0.0
H1604 H 0.42033 0.93489 0.20416 0.0
H1605 H 0.42226 0.96632 0.18173 0.0
H1606 H 0.4444 0.96952 0.21398 0.0
C1607 C 0.07499 0.55393 0.24199 0.0
C1608 C 0.06391 0.52907 0.26394 0.0
C1609 C 0.06718 0.55274 0.21145 0.0
C1610 C 0.0497 0.52575 0.20207 0.0
C1611 C 0.04149 0.50031 0.22324 0.0
C1612 C 0.04815 0.50226 0.25438 0.0
C1613 C 0.07567 0.58041 0.19008 0.0
C1614 C 0.02469 0.47117 0.21333 0.0
C1615 C -0.00057 0.52261 0.13913 0.0
C1616 C 0.01561 0.52527 0.11257 0.0
C1617 C 0.01035 0.52274 0.16842 0.0
C1618 C 0.03769 0.52455 0.17122 0.0
C1619 C 0.05411 0.52715 0.14441 0.0
C1620 C 0.0431 0.52812 0.11527 0.0
C1621 C -0.00746 0.52077 0.19636 0.0
C1622 C 0.08299 0.52836 0.14644 0.0
H1623 H 0.08813 0.57457 0.24945 0.0
H1624 H 0.04022 0.48308 0.27136 0.0
H1625 H 0.08776 0.58166 0.16886 0.0
H1626 H 0.056 0.5811 0.18278 0.0
H1627 H 0.0892 0.59959 0.20125 0.0
H1628 H 0.02409 0.45401 0.23095 0.0
H1629 H 0.00222 0.4663 0.20962 0.0
H1630 H 0.03435 0.47086 0.19103 0.0
H1631 H 0.97799 0.51997 0.13699 0.0
H1632 H 0.05533 0.52943 0.09477 0.0
H1633 H 0.00529 0.53903 0.20909 0.0
H1634 H 0.98671 0.50081 0.21249 0.0
H1635 H 0.97235 0.52085 0.18997 0.0
H1636 H 0.09981 0.55029 0.14943 0.0
H1637 H 0.08932 0.52303 0.12512 0.0
H1638 H 0.08273 0.51339 0.16665 0.0
C1639 C 0.43481 0.52451 0.25236 0.0
C1640 C 0.45696 0.52951 0.27218 0.0
C1641 C 0.43595 0.51659 0.22324 0.0
C1642 C 0.46032 0.5148 0.21371 0.0
C1643 C 0.48165 0.5179 0.23471 0.0
C1644 C 0.47925 0.52452 0.26399 0.0
C1645 C 0.41201 0.51178 0.20206 0.0
C1646 C 0.50819 0.51655 0.22548 0.0
C1647 C 0.4648 0.48032 0.14602 0.0
C1648 C 0.4806 0.50423 0.1233 0.0
C1649 C 0.45641 0.48328 0.17492 0.0
C1650 C 0.46455 0.51094 0.18151 0.0
C1651 C 0.47964 0.53517 0.15823 0.0
C1652 C 0.4872 0.53146 0.12904 0.0
C1653 C 0.43992 0.45688 0.19879 0.0
C1654 C 0.489 0.56507 0.16469 0.0
H1655 H 0.41768 0.52852 0.25883 0.0
H1656 H 0.49627 0.52848 0.27964 0.0
H1657 H 0.41974 0.53012 0.18299 0.0
H1658 H 0.40548 0.4922 0.1914 0.0
H1659 H 0.39278 0.50964 0.21455 0.0
H1660 H 0.52222 0.51853 0.245 0.0
H1661 H 0.50201 0.49609 0.21688 0.0
H1662 H 0.52095 0.53417 0.20629 0.0
H1663 H 0.45916 0.45912 0.14122 0.0
H1664 H 0.49918 0.54983 0.11127 0.0
H1665 H 0.42144 0.45717 0.20997 0.0
H1666 H 0.4542 0.45653 0.21724 0.0
H1667 H 0.43168 0.43682 0.18854 0.0
H1668 H 0.47023 0.56626 0.17354 0.0
H1669 H 0.49925 0.58142 0.14373 0.0
H1670 H 0.50465 0.57043 0.18296 0.0
C1671 C 0.96081 0.48071 0.76595 0.0
C1672 C 0.93274 0.47223 0.75753 0.0
C1673 C 0.96897 0.48843 0.79519 0.0
C1674 C 0.94859 0.4882 0.816 0.0
C1675 C 0.92081 0.48169 0.80666 0.0
C1676 C 0.91304 0.47333 0.77751 0.0
C1677 C -0.00118 0.49529 0.80437 0.0
C1678 C 0.89893 0.48228 0.82788 0.0
C1679 C 0.9615 0.47649 0.90076 0.0
C1680 C 0.97789 0.50479 0.90608 0.0
C1681 C 0.95093 0.47063 0.87154 0.0
C1682 C 0.95625 0.49369 0.8479 0.0
C1683 C 0.97123 0.52218 0.85404 0.0
C1684 C 0.98228 0.52741 0.88298 0.0
C1685 C 0.93526 0.43997 0.86553 0.0
C1686 C 0.97648 0.54722 0.82977 0.0
H1687 H 0.97578 0.47969 0.75017 0.0
H1688 H 0.89121 0.46632 0.77092 0.0
H1689 H 0.01003 0.51661 0.81209 0.0
H1690 H -0.00282 0.47928 0.82418 0.0
H1691 H 0.01227 0.49525 0.78506 0.0
H1692 H 0.87984 0.48033 0.81562 0.0
H1693 H 0.89149 0.4643 0.84734 0.0
H1694 H 0.90879 0.50246 0.83803 0.0
H1695 H 0.95794 0.45914 0.91896 0.0
H1696 H -0.0056 0.54931 0.88761 0.0
H1697 H 0.94806 0.43705 0.84784 0.0
H1698 H 0.91415 0.43482 0.85611 0.0
H1699 H 0.93155 0.42449 0.88681 0.0
H1700 H -0.00739 0.5504 0.81154 0.0
H1701 H 0.98464 0.56743 0.83973 0.0
H1702 H 0.95635 0.54292 0.8184 0.0
C1703 C 0.53431 0.4509 0.78913 0.0
C1704 C 0.54415 0.4763 0.76815 0.0
C1705 C 0.52664 0.4495 0.82017 0.0
C1706 C 0.53116 0.47471 0.83106 0.0
C1707 C 0.54491 0.50126 0.81085 0.0
C1708 C 0.55039 0.5016 0.77924 0.0
C1709 C 0.51081 0.42054 0.8402 0.0
C1710 C 0.55208 0.52898 0.82212 0.0
C1711 C 0.47887 0.47035 0.89302 0.0
C1712 C 0.49349 0.47096 0.9199 0.0
C1713 C 0.49052 0.47057 0.86419 0.0
C1714 C 0.51804 0.47262 0.86201 0.0
C1715 C 0.53262 0.4726 0.88927 0.0
C1716 C 0.51982 0.47109 0.91802 0.0
C1717 C 0.47379 0.4697 0.83588 0.0
C1718 C 0.5623 0.47557 0.888 0.0
H1719 H 0.52961 0.43141 0.78028 0.0
H1720 H 0.55789 0.5212 0.76306 0.0
H1721 H 0.52103 0.4208 0.86242 0.0
H1722 H 0.4883 0.41533 0.8458 0.0
H1723 H 0.51019 0.40321 0.8286 0.0
H1724 H 0.56787 0.54788 0.80574 0.0
H1725 H 0.53218 0.53047 0.82454 0.0
H1726 H 0.56107 0.5298 0.84521 0.0
H1727 H 0.45882 0.47086 0.8944 0.0
H1728 H 0.53153 0.47234 0.9387 0.0
H1729 H 0.47257 0.45318 0.82242 0.0
H1730 H 0.48501 0.49066 0.82055 0.0
H1731 H 0.45153 0.465 0.84199 0.0
H1732 H 0.5606 0.45498 0.88418 0.0
H1733 H 0.57308 0.48134 0.90984 0.0
H1734 H 0.57621 0.49213 0.86847 0.0
C1735 C 0.51205 0.0454 0.76478 0.0
C1736 C 0.53069 0.07394 0.75219 0.0
C1737 C 0.51161 0.03567 0.79634 0.0
C1738 C 0.53063 0.05496 0.81552 0.0
C1739 C 0.55003 0.08372 0.80262 0.0
C1740 C 0.54958 0.09294 0.77111 0.0
C1741 C 0.49052 0.00491 0.80927 0.0
C1742 C 0.57086 0.10488 0.82218 0.0
C1743 C 0.51077 0.03682 0.90226 0.0
C1744 C 0.52899 0.02612 0.91276 0.0
C1745 C 0.51137 0.0467 0.87067 0.0
C1746 C 0.53007 0.04506 0.84911 0.0
C1747 C 0.54817 0.03382 0.85961 0.0
C1748 C 0.54765 0.02481 0.89137 0.0
C1749 C 0.49231 0.05925 0.86042 0.0
C1750 C 0.56808 0.03135 0.83729 0.0
H1751 H 0.49743 0.03092 0.74992 0.0
H1752 H 0.56353 0.11516 0.76131 0.0
H1753 H 0.50224 0.99424 0.82036 0.0
H1754 H 0.47561 0.00416 0.82745 0.0
H1755 H 0.47755 0.99255 0.79114 0.0
H1756 H 0.5853 0.12612 0.80828 0.0
H1757 H 0.55872 0.1078 0.84059 0.0
H1758 H 0.58436 0.09655 0.83383 0.0
H1759 H 0.49664 0.03823 0.91886 0.0
H1760 H 0.56173 0.01648 0.89948 0.0
H1761 H 0.47759 0.04695 0.84332 0.0
H1762 H 0.50574 0.08165 0.84875 0.0
H1763 H 0.47917 0.05919 0.88012 0.0
H1764 H 0.55541 0.0178 0.81987 0.0
H1765 H 0.5806 0.0219 0.8492 0.0
H1766 H 0.58342 0.0528 0.82451 0.0
C1767 C 0.15035 0.27639 0.61151 0.0
C1768 C 0.12676 0.24873 0.61696 0.0
C1769 C 0.16344 0.28879 0.58155 0.0
C1770 C 0.1528 0.27279 0.55673 0.0
C1771 C 0.13072 0.24376 0.56288 0.0
C1772 C 0.11758 0.23218 0.59296 0.0
C1773 C 0.18666 0.31986 0.57602 0.0
C1774 C 0.11924 0.2257 0.53729 0.0
C1775 C 0.15092 0.31696 0.48305 0.0
C1776 C 0.17464 0.32109 0.46503 0.0
C1777 C 0.14319 0.30046 0.51239 0.0
C1778 C 0.15999 0.28816 0.52441 0.0
C1779 C 0.1838 0.2918 0.5061 0.0
C1780 C 0.19068 0.30804 0.47622 0.0
C1781 C 0.11704 0.29639 0.53059 0.0
C1782 C 0.20213 0.27896 0.51822 0.0
H1783 H 0.15724 0.28889 0.63039 0.0
H1784 H 0.09931 0.21067 0.59755 0.0
H1785 H 0.20465 0.32297 0.56044 0.0
H1786 H 0.17756 0.333 0.56447 0.0
H1787 H 0.19538 0.32795 0.59798 0.0
H1788 H 0.10693 0.20248 0.5466 0.0
H1789 H 0.10463 0.2316 0.52401 0.0
H1790 H 0.13705 0.22957 0.52091 0.0
H1791 H 0.13802 0.32638 0.47387 0.0
H1792 H 0.20874 0.31092 0.46191 0.0
H1793 H 0.12349 0.30525 0.55261 0.0
H1794 H 0.10128 0.27323 0.53662 0.0
H1795 H 0.10604 0.307 0.51753 0.0
H1796 H 0.21426 0.28989 0.53752 0.0
H1797 H 0.21781 0.28107 0.50002 0.0
H1798 H 0.18835 0.25595 0.52766 0.0
C1799 C 0.69751 0.85599 0.59223 0.0
C1800 C 0.72449 0.85863 0.59839 0.0
C1801 C 0.68815 0.85484 0.56219 0.0
C1802 C 0.70467 0.85295 0.53834 0.0
C1803 C 0.7303 0.85206 0.54525 0.0
C1804 C 0.74053 0.85607 0.57497 0.0
C1805 C 0.66113 0.8567 0.55602 0.0
C1806 C 0.7473 0.84762 0.5212 0.0
C1807 C 0.66156 0.82262 0.47051 0.0
C1808 C 0.67242 0.84674 0.44728 0.0
C1809 C 0.67272 0.8242 0.49966 0.0
C1810 C 0.69438 0.85089 0.50656 0.0
C1811 C 0.70492 0.87562 0.48369 0.0
C1812 C 0.69414 0.87316 0.45403 0.0
C1813 C 0.66152 0.79707 0.52284 0.0
C1814 C 0.72717 0.90469 0.49073 0.0
H1815 H 0.68467 0.85699 0.61064 0.0
H1816 H 0.76148 0.85828 0.5794 0.0
H1817 H 0.66379 0.87053 0.5337 0.0
H1818 H 0.64283 0.83505 0.55465 0.0
H1819 H 0.6553 0.86539 0.57473 0.0
H1820 H 0.76267 0.84125 0.53192 0.0
H1821 H 0.73269 0.83085 0.50756 0.0
H1822 H 0.75981 0.8678 0.5049 0.0
H1823 H 0.6449 0.80195 0.46564 0.0
H1824 H 0.7027 0.89181 0.43619 0.0
H1825 H 0.64705 0.797 0.54101 0.0
H1826 H 0.67955 0.7958 0.53442 0.0
H1827 H 0.64912 0.77753 0.51184 0.0
H1828 H 0.71845 0.91044 0.50993 0.0
H1829 H 0.73351 0.92169 0.47032 0.0
H1830 H 0.74676 0.90418 0.49861 0.0
C1831 C 0.12044 0.87893 0.58472 0.0
C1832 C 0.12368 0.86124 0.60902 0.0
C1833 C 0.12326 0.8757 0.55382 0.0
C1834 C 0.128 0.85331 0.5474 0.0
C1835 C 0.12834 0.83363 0.57211 0.0
C1836 C 0.12711 0.83842 0.60267 0.0
C1837 C 0.12401 0.89786 0.52827 0.0
C1838 C 0.13206 0.8087 0.56627 0.0
C1839 C 0.12055 0.83311 0.46677 0.0
C1840 C 0.14938 0.84323 0.45713 0.0
C1841 C 0.11317 0.83678 0.49588 0.0
C1842 C 0.13532 0.8519 0.51517 0.0
C1843 C 0.16464 0.86388 0.50453 0.0
C1844 C 0.17132 0.85875 0.47582 0.0
C1845 C 0.08171 0.82271 0.50679 0.0
C1846 C 0.18889 0.88121 0.52393 0.0
H1847 H 0.11864 0.89705 0.58995 0.0
H1848 H 0.1306 0.82544 0.62149 0.0
H1849 H 0.14635 0.91127 0.51759 0.0
H1850 H 0.11003 0.88752 0.50974 0.0
H1851 H 0.11707 0.9121 0.53697 0.0
H1852 H 0.12671 0.79278 0.58755 0.0
H1853 H 0.11816 0.79777 0.54791 0.0
H1854 H 0.15476 0.81661 0.55816 0.0
H1855 H 0.10362 0.82067 0.45234 0.0
H1856 H 0.19358 0.86639 0.46823 0.0
H1857 H 0.07685 0.83818 0.51588 0.0
H1858 H 0.07675 0.80506 0.52609 0.0
H1859 H 0.06721 0.81373 0.48803 0.0
H1860 H 0.18542 0.89783 0.53237 0.0
H1861 H 0.21025 0.89184 0.51081 0.0
H1862 H 0.18931 0.86706 0.54457 0.0
C1863 C 0.62822 0.81132 0.09554 0.0
C1864 C 0.60025 0.80514 0.08863 0.0
C1865 C 0.63951 0.82151 0.12305 0.0
C1866 C 0.62267 0.82654 0.14356 0.0
C1867 C 0.59502 0.82197 0.1358 0.0
C1868 C 0.58386 0.81073 0.10859 0.0
C1869 C 0.6689 0.8257 0.13075 0.0
C1870 C 0.57683 0.82801 0.1567 0.0
C1871 C 0.63823 0.82597 0.22848 0.0
C1872 C 0.65483 0.85537 0.22979 0.0
C1873 C 0.6278 0.81619 0.2004 0.0
C1874 C 0.63399 0.83634 0.17325 0.0
C1875 C 0.65126 0.86593 0.17432 0.0
C1876 C 0.66171 0.87506 0.20248 0.0
C1877 C 0.60975 0.78438 0.19986 0.0
C1878 C 0.65805 0.88803 0.14589 0.0
H1879 H 0.64066 0.80678 0.07993 0.0
H1880 H 0.56196 0.80516 0.10376 0.0
H1881 H 0.68317 0.8479 0.13529 0.0
H1882 H 0.66681 0.81107 0.15219 0.0
H1883 H 0.67946 0.82144 0.11185 0.0
H1884 H 0.55732 0.82634 0.14564 0.0
H1885 H 0.56988 0.81252 0.17848 0.0
H1886 H 0.58962 0.8498 0.16305 0.0
H1887 H 0.63282 0.81065 0.24948 0.0
H1888 H 0.67462 0.89784 0.20318 0.0
H1889 H 0.6194 0.77784 0.18234 0.0
H1890 H 0.58782 0.77917 0.19301 0.0
H1891 H 0.60774 0.77152 0.22274 0.0
H1892 H 0.66978 0.88458 0.12751 0.0
H1893 H 0.67137 0.91029 0.15084 0.0
H1894 H 0.63773 0.88571 0.13648 0.0
C1895 C 0.20585 0.78221 0.12934 0.0
C1896 C 0.21562 0.80717 0.10766 0.0
C1897 C 0.19675 0.78112 0.15981 0.0
C1898 C 0.19976 0.8063 0.16949 0.0
C1899 C 0.21356 0.83254 0.14881 0.0
C1900 C 0.22037 0.83246 0.11776 0.0
C1901 C 0.18083 0.75241 0.18023 0.0
C1902 C 0.21913 0.86031 0.15881 0.0
C1903 C 0.14572 0.80419 0.22769 0.0
C1904 C 0.15976 0.80618 0.25521 0.0
C1905 C 0.15785 0.80263 0.20004 0.0
C1906 C 0.18542 0.80462 0.19956 0.0
C1907 C 0.19941 0.80605 0.22751 0.0
C1908 C 0.18603 0.80607 0.25516 0.0
C1909 C 0.14157 0.79988 0.17108 0.0
C1910 C 0.22908 0.80898 0.22812 0.0
H1911 H 0.20182 0.76261 0.1212 0.0
H1912 H 0.22726 0.85161 0.10101 0.0
H1913 H 0.18954 0.75349 0.20342 0.0
H1914 H 0.15778 0.74633 0.18361 0.0
H1915 H 0.18206 0.73526 0.17004 0.0
H1916 H 0.23506 0.87917 0.14249 0.0
H1917 H 0.19873 0.86107 0.15969 0.0
H1918 H 0.22725 0.86193 0.18236 0.0
H1919 H 0.12566 0.80477 0.22764 0.0
H1920 H 0.19726 0.80832 0.2763 0.0
H1921 H 0.14072 0.78245 0.15956 0.0
H1922 H 0.15289 0.82005 0.15447 0.0
H1923 H 0.11918 0.79535 0.17609 0.0
H1924 H 0.22739 0.7879 0.22691 0.0
H1925 H 0.23955 0.81646 0.24967 0.0
H1926 H 0.24328 0.82421 0.20793 0.0
C1927 C 0.22052 0.43457 0.11614 0.0
C1928 C 0.20405 0.41893 0.09351 0.0
C1929 C 0.21755 0.4215 0.1468 0.0
C1930 C 0.19626 0.39244 0.15537 0.0
C1931 C 0.17927 0.37651 0.1326 0.0
C1932 C 0.1837 0.38993 0.10171 0.0
C1933 C 0.23658 0.43911 0.1702 0.0
C1934 C 0.15572 0.34577 0.14108 0.0
C1935 C 0.20708 0.35758 0.23141 0.0
C1936 C 0.18965 0.36117 0.25224 0.0
C1937 C 0.20811 0.36614 0.19953 0.0
C1938 C 0.19177 0.37918 0.18832 0.0
C1939 C 0.17337 0.38204 0.20918 0.0
C1940 C 0.17231 0.3727 0.241 0.0
C1941 C 0.22763 0.36236 0.178 0.0
C1942 C 0.15583 0.39611 0.19808 0.0
H1943 H 0.23477 0.45737 0.11013 0.0
H1944 H 0.17041 0.37823 0.08415 0.0
H1945 H 0.22329 0.44184 0.18746 0.0
H1946 H 0.24712 0.4279 0.18296 0.0
H1947 H 0.25362 0.46065 0.15918 0.0
H1948 H 0.14537 0.33599 0.12041 0.0
H1949 H 0.16449 0.33276 0.15365 0.0
H1950 H 0.13892 0.34474 0.15691 0.0
H1951 H 0.22015 0.34822 0.24012 0.0
H1952 H 0.15886 0.37547 0.25718 0.0
H1953 H 0.24558 0.38367 0.1678 0.0
H1954 H 0.21562 0.35157 0.15857 0.0
H1955 H 0.23693 0.34959 0.19008 0.0
H1956 H 0.17048 0.41929 0.19019 0.0
H1957 H 0.14029 0.39382 0.21658 0.0
H1958 H 0.14378 0.3868 0.17799 0.0
C1959 C 0.79438 0.56458 0.93091 0.0
C1960 C 0.7815 0.5787 0.94316 0.0
C1961 C 0.80744 0.57372 0.9006 0.0
C1962 C 0.80569 0.59607 0.88154 0.0
C1963 C 0.79065 0.60875 0.89309 0.0
C1964 C 0.77978 0.60068 0.92401 0.0
C1965 C 0.82382 0.56012 0.88938 0.0
C1966 C 0.78615 0.63104 0.87287 0.0
C1967 C 0.85614 0.64899 0.81508 0.0
C1968 C 0.84054 0.63798 0.78968 0.0
C1969 C 0.84667 0.63363 0.84511 0.0
C1970 C 0.82024 0.60741 0.84986 0.0
C1971 C 0.80553 0.59525 0.82398 0.0
C1972 C 0.8164 0.61038 0.79409 0.0
C1973 C 0.86367 0.64663 0.872 0.0
C1974 C 0.77726 0.56738 0.82763 0.0
H1975 H 0.7946 0.54667 0.94502 0.0
H1976 H 0.76977 0.61157 0.93335 0.0
H1977 H 0.81508 0.55117 0.8679 0.0
H1978 H 0.84677 0.57667 0.88369 0.0
H1979 H 0.82279 0.54272 0.90695 0.0
H1980 H 0.77061 0.6357 0.88413 0.0
H1981 H 0.80698 0.65127 0.86768 0.0
H1982 H 0.77798 0.62369 0.85048 0.0
H1983 H 0.87495 0.67022 0.81166 0.0
H1984 H 0.80434 0.6017 0.77443 0.0
H1985 H 0.86429 0.62992 0.88927 0.0
H1986 H 0.85312 0.65643 0.88377 0.0
H1987 H 0.88613 0.66355 0.86429 0.0
H1988 H 0.78166 0.54923 0.8316 0.0
H1989 H 0.765 0.56517 0.80652 0.0
H1990 H 0.76336 0.56541 0.84766 0.0
C1991 C 0.3624 0.17592 0.92535 0.0
C1992 C 0.39202 0.19032 0.92918 0.0
C1993 C 0.35198 0.1747 0.89568 0.0
C1994 C 0.37185 0.18681 0.86931 0.0
C1995 C 0.40178 0.19944 0.8732 0.0
C1996 C 0.41148 0.20199 0.90309 0.0
C1997 C 0.31985 0.16178 0.89289 0.0
C1998 C 0.42368 0.21177 0.84583 0.0
C1999 C 0.34174 0.16323 0.79331 0.0
C2000 C 0.34166 0.18762 0.77791 0.0
C2001 C 0.35193 0.16287 0.82284 0.0
C2002 C 0.36152 0.18729 0.8377 0.0
C2003 C 0.36141 0.21211 0.82219 0.0
C2004 C 0.35188 0.21212 0.79206 0.0
C2005 C 0.35256 0.1364 0.83795 0.0
C2006 C 0.3714 0.2388 0.83696 0.0
H2007 H 0.34749 0.16792 0.94567 0.0
H2008 H 0.43426 0.215 0.90595 0.0
H2009 H 0.31482 0.17324 0.87291 0.0
H2010 H 0.31065 0.1391 0.88946 0.0
H2011 H 0.30884 0.16212 0.91423 0.0
H2012 H 0.44529 0.21581 0.85285 0.0
H2013 H 0.41673 0.19707 0.82825 0.0
H2014 H 0.42567 0.23239 0.83477 0.0
H2015 H 0.334 0.14437 0.78199 0.0
H2016 H 0.3519 0.23097 0.7799 0.0
H2017 H 0.33584 0.12533 0.85745 0.0
H2018 H 0.37377 0.14229 0.84756 0.0
H2019 H 0.34839 0.12104 0.82149 0.0
H2020 H 0.35911 0.24991 0.82914 0.0
H2021 H 0.39445 0.25382 0.82958 0.0
H2022 H 0.36918 0.23423 0.86265 0.0
C2023 C 0.79337 0.21545 0.91588 0.0
C2024 C 0.79242 0.19593 0.941 0.0
C2025 C 0.79523 0.21083 0.8854 0.0
C2026 C 0.79482 0.18542 0.8801 0.0
C2027 C 0.79043 0.1641 0.90554 0.0
C2028 C 0.78973 0.16985 0.93588 0.0
C2029 C 0.80052 0.23439 0.85914 0.0
C2030 C 0.78858 0.13617 0.9008 0.0
C2031 C 0.78838 0.16918 0.79753 0.0
C2032 C 0.81675 0.17631 0.78921 0.0
C2033 C 0.78075 0.17172 0.82717 0.0
C2034 C 0.8023 0.18272 0.84844 0.0
C2035 C 0.83129 0.19125 0.83951 0.0
C2036 C 0.83804 0.18729 0.81018 0.0
C2037 C 0.74947 0.16125 0.83621 0.0
C2038 C 0.85509 0.20399 0.86117 0.0
H2039 H 0.79544 0.23559 0.92026 0.0
H2040 H 0.78898 0.15486 0.9555 0.0
H2041 H 0.82295 0.24412 0.84895 0.0
H2042 H 0.78589 0.22571 0.84048 0.0
H2043 H 0.79752 0.25153 0.86696 0.0
H2044 H 0.77993 0.12006 0.92214 0.0
H2045 H 0.77467 0.1272 0.88167 0.0
H2046 H 0.8104 0.13995 0.89427 0.0
H2047 H 0.77177 0.15994 0.7815 0.0
H2048 H 0.85986 0.19238 0.80377 0.0
H2049 H 0.74699 0.17841 0.84468 0.0
H2050 H 0.74168 0.1431 0.85553 0.0
H2051 H 0.73549 0.15399 0.81664 0.0
H2052 H 0.85495 0.2223 0.86982 0.0
H2053 H 0.87673 0.21157 0.84981 0.0
H2054 H 0.85148 0.18776 0.88159 0.0
C2055 C 0.29083 0.15458 0.42795 0.0
C2056 C 0.26211 0.13572 0.42335 0.0
C2057 C 0.29939 0.16084 0.4576 0.0
C2058 C 0.27863 0.14747 0.48313 0.0
C2059 C 0.24927 0.12929 0.47828 0.0
C2060 C 0.24134 0.12363 0.44824 0.0
C2061 C 0.33082 0.18068 0.46178 0.0
C2062 C 0.22658 0.11475 0.50493 0.0
C2063 C 0.31052 0.14102 0.55972 0.0
C2064 C 0.31333 0.165 0.57127 0.0
C2065 C 0.29792 0.1342 0.5315 0.0
C2066 C 0.2881 0.15188 0.51488 0.0
C2067 C 0.28978 0.17536 0.52742 0.0
C2068 C 0.3025 0.18168 0.5555 0.0
C2069 C 0.29625 0.10887 0.51882 0.0
C2070 C 0.2795 0.19464 0.51049 0.0
H2071 H 0.30669 0.16335 0.40842 0.0
H2072 H 0.21926 0.10859 0.4443 0.0
H2073 H 0.33314 0.19803 0.47448 0.0
H2074 H 0.33984 0.16862 0.47588 0.0
H2075 H 0.34384 0.19054 0.43931 0.0
H2076 H 0.20451 0.10274 0.49695 0.0
H2077 H 0.231 0.09957 0.52053 0.0
H2078 H 0.22728 0.13078 0.5188 0.0
H2079 H 0.3189 0.12822 0.57223 0.0
H2080 H 0.30469 0.20017 0.56485 0.0
H2081 H 0.31091 0.11652 0.49758 0.0
H2082 H 0.27409 0.09491 0.51218 0.0
H2083 H 0.3024 0.09585 0.53579 0.0
H2084 H 0.29415 0.20739 0.48959 0.0
H2085 H 0.27902 0.20967 0.52518 0.0
H2086 H 0.25761 0.18179 0.50256 0.0
C2087 C 0.86283 0.11547 0.45839 0.0
C2088 C 0.8733 0.14003 0.43602 0.0
C2089 C 0.85415 0.11545 0.48854 0.0
C2090 C 0.85804 0.14124 0.49726 0.0
C2091 C 0.87175 0.16697 0.47568 0.0
C2092 C 0.87861 0.16593 0.4449 0.0
C2093 C 0.83866 0.08732 0.51012 0.0
C2094 C 0.87807 0.19527 0.48475 0.0
C2095 C 0.8057 0.13652 0.55961 0.0
C2096 C 0.82072 0.13776 0.58631 0.0
C2097 C 0.81745 0.13722 0.53059 0.0
C2098 C 0.84548 0.14052 0.52802 0.0
C2099 C 0.86071 0.14167 0.55499 0.0
C2100 C 0.84783 0.13957 0.58392 0.0
C2101 C 0.80006 0.13496 0.50259 0.0
C2102 C 0.89097 0.14612 0.55327 0.0
H2103 H 0.85919 0.09558 0.45135 0.0
H2104 H 0.88701 0.18494 0.42759 0.0
H2105 H 0.8498 0.08863 0.53185 0.0
H2106 H 0.81644 0.0826 0.51647 0.0
H2107 H 0.83725 0.06916 0.49956 0.0
H2108 H 0.89254 0.21363 0.46698 0.0
H2109 H 0.85765 0.19571 0.4878 0.0
H2110 H 0.88826 0.19808 0.50722 0.0
H2111 H 0.78503 0.13577 0.56135 0.0
H2112 H 0.85988 0.14138 0.6044 0.0
H2113 H 0.79862 0.11775 0.4902 0.0
H2114 H 0.81091 0.15531 0.48621 0.0
H2115 H 0.77786 0.13037 0.50889 0.0
H2116 H 0.89028 0.12597 0.54944 0.0
H2117 H 0.90189 0.15246 0.57492 0.0
H2118 H 0.90418 0.16285 0.53354 0.0
C2119 C 0.88671 0.77238 0.43806 0.0
C2120 C 0.86564 0.75557 0.41915 0.0
C2121 C 0.8844 0.76328 0.47015 0.0
C2122 C 0.86008 0.73719 0.4834 0.0
C2123 C 0.83903 0.72006 0.46415 0.0
C2124 C 0.84233 0.72931 0.43223 0.0
C2125 C 0.90771 0.78165 0.48983 0.0
C2126 C 0.8127 0.69217 0.47733 0.0
C2127 C 0.85794 0.69234 0.5581 0.0
C2128 C 0.84097 0.69729 0.57817 0.0
C2129 C 0.86626 0.70699 0.52788 0.0
C2130 C 0.85679 0.72663 0.51712 0.0
C2131 C 0.84078 0.73281 0.53771 0.0
C2132 C 0.83342 0.71832 0.56837 0.0
C2133 C 0.88397 0.7003 0.50703 0.0
C2134 C 0.83058 0.75389 0.52697 0.0
H2135 H 0.9044 0.79297 0.42793 0.0
H2136 H 0.8261 0.71654 0.41736 0.0
H2137 H 0.8986 0.78942 0.50651 0.0
H2138 H 0.91611 0.76881 0.50356 0.0
H2139 H 0.92598 0.80045 0.47569 0.0
H2140 H 0.79777 0.68206 0.4593 0.0
H2141 H 0.81933 0.67686 0.48869 0.0
H2142 H 0.8008 0.6959 0.49529 0.0
H2143 H 0.86469 0.67676 0.56605 0.0
H2144 H 0.8209 0.72256 0.58421 0.0
H2145 H 0.90197 0.72032 0.49432 0.0
H2146 H 0.87023 0.68764 0.48955 0.0
H2147 H 0.89307 0.6878 0.52018 0.0
H2148 H 0.84946 0.7756 0.5206 0.0
H2149 H 0.81658 0.75473 0.54505 0.0
H2150 H 0.81837 0.7481 0.50597 0.0
loop_
_geom_bond_atom_site_label_1
_geom_bond_atom_site_label_2
_geom_bond_distance
_geom_bond_site_symmetry_2
_ccdc_geom_bond_type
C0 N1 1.317 . S
C0 N2 1.348 . S
C0 C3 1.485 . S
N1 C0 1.317 . S
N1 N5 1.370 . S
N2 C0 1.348 . S
N2 C4 1.346 . S
C3 C0 1.485 . S
C3 H7 0.960 . S
C3 H8 0.961 . S
C3 H9 0.960 . S
C4 N2 1.346 . S
C4 N5 1.307 . S
C4 C6 1.486 . S
N5 N1 1.370 . S
N5 C4 1.307 . S
C6 C4 1.486 . S
C6 H10 0.960 . S
C6 H11 0.960 . S
C6 H12 0.959 . S
H7 C3 0.960 . S
H8 C3 0.961 . S
H9 C3 0.960 . S
H10 C6 0.960 . S
H11 C6 0.960 . S
H12 C6 0.959 . S
C13 N14 1.317 . S
C13 N15 1.348 . S
C13 C16 1.485 . S
N14 C13 1.317 . S
N14 N18 1.370 . S
N15 C13 1.348 . S
N15 C17 1.346 . S
C16 C13 1.485 . S
C16 H20 0.960 . S
C16 H21 0.961 . S
C16 H22 0.960 . S
C17 N15 1.346 . S
C17 N18 1.307 . S
C17 C19 1.486 . S
N18 N14 1.370 . S
N18 C17 1.307 . S
C19 C17 1.486 . S
C19 H23 0.960 . S
C19 H24 0.960 . S
C19 H25 0.959 . S
H20 C16 0.960 . S
H21 C16 0.961 . S
H22 C16 0.960 . S
H23 C19 0.960 . S
H24 C19 0.960 . S
H25 C19 0.959 . S
C26 N27 1.317 . S
C26 N28 1.348 . S
C26 C29 1.485 . S
N27 C26 1.317 . S
N27 N31 1.370 . S
N28 C26 1.348 . S
N28 C30 1.346 . S
C29 C26 1.485 . S
C29 H33 0.960 . S
C29 H34 0.961 . S
C29 H35 0.960 . S
C30 N28 1.346 . S
C30 N31 1.307 . S
C30 C32 1.486 . S
N31 N27 1.370 . S
N31 C30 1.307 . S
C32 C30 1.486 . S
C32 H36 0.960 . S
C32 H37 0.960 . S
C32 H38 0.959 . S
H33 C29 0.960 . S
H34 C29 0.961 . S
H35 C29 0.960 . S
H36 C32 0.960 . S
H37 C32 0.960 . S
H38 C32 0.959 . S
C39 N40 1.317 . S
C39 N41 1.348 . S
C39 C42 1.485 . S
N40 C39 1.317 . S
N40 N44 1.370 . S
N41 C39 1.348 . S
N41 C43 1.346 . S
C42 C39 1.485 . S
C42 H46 0.960 . S
C42 H47 0.961 . S
C42 H48 0.960 . S
C43 N41 1.346 . S
C43 N44 1.307 . S
C43 C45 1.486 . S
N44 N40 1.370 . S
N44 C43 1.307 . S
C45 C43 1.486 . S
C45 H49 0.960 . S
C45 H50 0.960 . S
C45 H51 0.959 . S
H46 C42 0.960 . S
H47 C42 0.961 . S
H48 C42 0.960 . S
H49 C45 0.960 . S
H50 C45 0.960 . S
H51 C45 0.959 . S
C52 N53 1.317 . S
C52 N54 1.348 . S
C52 C55 1.485 . S
N53 C52 1.317 . S
N53 N57 1.370 . S
N54 C52 1.348 . S
N54 C56 1.346 . S
C55 C52 1.485 . S
C55 H59 0.960 . S
C55 H60 0.961 . S
C55 H61 0.960 . S
C56 N54 1.346 . S
C56 N57 1.307 . S
C56 C58 1.486 . S
N57 N53 1.370 . S
N57 C56 1.307 . S
C58 C56 1.486 . S
C58 H62 0.960 . S
C58 H63 0.960 . S
C58 H64 0.959 . S
H59 C55 0.960 . S
H60 C55 0.961 . S
H61 C55 0.960 . S
H62 C58 0.960 . S
H63 C58 0.960 . S
H64 C58 0.959 . S
C65 N66 1.317 . S
C65 N67 1.348 . S
C65 C68 1.485 . S
N66 C65 1.317 . S
N66 N70 1.370 . S
N67 C65 1.348 . S
N67 C69 1.346 . S
C68 C65 1.485 . S
C68 H72 0.960 . S
C68 H73 0.961 . S
C68 H74 0.960 . S
C69 N67 1.346 . S
C69 N70 1.307 . S
C69 C71 1.486 . S
N70 N66 1.370 . S
N70 C69 1.307 . S
C71 C69 1.486 . S
C71 H75 0.960 . S
C71 H76 0.960 . S
C71 H77 0.959 . S
H72 C68 0.960 . S
H73 C68 0.961 . S
H74 C68 0.960 . S
H75 C71 0.960 . S
H76 C71 0.960 . S
H77 C71 0.959 . S
C78 N79 1.317 . S
C78 N80 1.348 . S
C78 C81 1.485 . S
N79 C78 1.317 . S
N79 N83 1.370 . S
N80 C78 1.348 . S
N80 C82 1.346 . S
C81 C78 1.485 . S
C81 H85 0.960 . S
C81 H86 0.961 . S
C81 H87 0.960 . S
C82 N80 1.346 . S
C82 N83 1.307 . S
C82 C84 1.486 . S
N83 N79 1.370 . S
N83 C82 1.307 . S
C84 C82 1.486 . S
C84 H88 0.960 . S
C84 H89 0.960 . S
C84 H90 0.959 . S
H85 C81 0.960 . S
H86 C81 0.961 . S
H87 C81 0.960 . S
H88 C84 0.960 . S
H89 C84 0.960 . S
H90 C84 0.959 . S
C91 N92 1.317 . S
C91 N93 1.348 . S
C91 C94 1.485 . S
N92 C91 1.317 . S
N92 N96 1.370 . S
N93 C91 1.348 . S
N93 C95 1.346 . S
C94 C91 1.485 . S
C94 H98 0.960 . S
C94 H99 0.961 . S
C94 H100 0.960 . S
C95 N93 1.346 . S
C95 N96 1.307 . S
C95 C97 1.486 . S
N96 N92 1.370 . S
N96 C95 1.307 . S
C97 C95 1.486 . S
C97 H101 0.960 . S
C97 H102 0.960 . S
C97 H103 0.959 . S
H98 C94 0.960 . S
H99 C94 0.961 . S
H100 C94 0.960 . S
H101 C97 0.960 . S
H102 C97 0.960 . S
H103 C97 0.959 . S
C104 N105 1.317 . S
C104 N106 1.348 . S
C104 C107 1.485 . S
N105 C104 1.317 . S
N105 N109 1.370 . S
N106 C104 1.348 . S
N106 C108 1.346 . S
C107 C104 1.485 . S
C107 H111 0.960 . S
C107 H112 0.961 . S
C107 H113 0.960 . S
C108 N106 1.346 . S
C108 N109 1.307 . S
C108 C110 1.486 . S
N109 N105 1.370 . S
N109 C108 1.307 . S
C110 C108 1.486 . S
C110 H114 0.960 . S
C110 H115 0.960 . S
C110 H116 0.959 . S
H111 C107 0.960 . S
H112 C107 0.961 . S
H113 C107 0.960 . S
H114 C110 0.960 . S
H115 C110 0.960 . S
H116 C110 0.959 . S
C117 N118 1.317 1_554 S
C117 N119 1.359 . S
C117 C120 1.485 . S
N118 C117 1.317 1_556 S
N118 N122 1.370 . S
N119 C117 1.359 . S
N119 C121 1.319 1_554 S
C120 C117 1.485 . S
C120 H124 0.960 . S
C120 H125 0.961 . S
C120 H126 0.960 . S
C121 N119 1.319 1_556 S
C121 N122 1.307 . S
C121 C123 1.486 . S
N122 N118 1.370 . S
N122 C121 1.307 . S
C123 C121 1.486 . S
C123 H127 0.960 . S
C123 H128 0.960 . S
C123 H129 0.959 . S
H124 C120 0.960 . S
H125 C120 0.961 . S
H126 C120 0.960 . S
H127 C123 0.960 . S
H128 C123 0.960 . S
H129 C123 0.959 . S
C130 N131 1.317 1_554 S
C130 N132 1.348 . S
C130 C133 1.485 . S
N131 C130 1.317 1_556 S
N131 N135 1.370 . S
N132 C130 1.348 . S
N132 C134 1.346 1_554 S
C133 C130 1.485 . S
C133 H137 0.960 . S
C133 H138 0.961 . S
C133 H139 0.960 . S
C134 N132 1.346 1_556 S
C134 N135 1.307 . S
C134 C136 1.486 . S
N135 N131 1.370 . S
N135 C134 1.307 . S
C136 C134 1.486 . S
C136 H140 0.960 . S
C136 H141 0.960 . S
C136 H142 0.959 . S
H137 C133 0.960 . S
H138 C133 0.961 . S
H139 C133 0.960 . S
H140 C136 0.960 . S
H141 C136 0.960 . S
H142 C136 0.959 . S
C143 N144 1.317 1_554 S
C143 N145 1.348 . S
C143 C146 1.485 . S
N144 C143 1.317 1_556 S
N144 N148 1.370 . S
N145 C143 1.348 . S
N145 C147 1.346 1_554 S
C146 C143 1.485 . S
C146 H150 0.960 . S
C146 H151 0.961 . S
C146 H152 0.960 . S
C147 N145 1.346 1_556 S
C147 N148 1.307 . S
C147 C149 1.486 . S
N148 N144 1.370 . S
N148 C147 1.307 . S
C149 C147 1.486 . S
C149 H153 0.960 . S
C149 H154 0.960 . S
C149 H155 0.959 . S
H150 C146 0.960 . S
H151 C146 0.961 . S
H152 C146 0.960 . S
H153 C149 0.960 . S
H154 C149 0.960 . S
H155 C149 0.959 . S
C156 N157 1.317 . S
C156 N158 1.348 . S
C156 C159 1.485 1_554 S
N157 C156 1.317 . S
N157 N161 1.370 . S
N158 C156 1.348 . S
N158 C160 1.346 . S
C159 C156 1.485 1_556 S
C159 H163 0.960 . S
C159 H164 0.961 . S
C159 H165 0.960 . S
C160 N158 1.346 . S
C160 N161 1.307 . S
C160 C162 1.486 . S
N161 N157 1.370 . S
N161 C160 1.307 . S
C162 C160 1.486 . S
C162 H166 0.960 . S
C162 H167 0.960 . S
C162 H168 0.959 . S
H163 C159 0.960 . S
H164 C159 0.961 . S
H165 C159 0.960 . S
H166 C162 0.960 . S
H167 C162 0.960 . S
H168 C162 0.959 . S
C169 N170 1.317 . S
C169 N171 1.348 . S
C169 C172 1.485 1_554 S
N170 C169 1.317 . S
N170 N174 1.370 . S
N171 C169 1.348 . S
N171 C173 1.346 . S
C172 C169 1.485 1_556 S
C172 H176 0.960 . S
C172 H177 0.961 . S
C172 H178 0.960 . S
C173 N171 1.346 . S
C173 N174 1.307 . S
C173 C175 1.486 . S
N174 N170 1.370 . S
N174 C173 1.307 . S
C175 C173 1.486 . S
C175 H179 0.960 . S
C175 H180 0.960 . S
C175 H181 0.959 . S
H176 C172 0.960 . S
H177 C172 0.961 . S
H178 C172 0.960 . S
H179 C175 0.960 . S
H180 C175 0.960 . S
H181 C175 0.959 . S
C182 N183 1.317 . S
C182 N184 1.348 . S
C182 C185 1.485 1_554 S
N183 C182 1.317 . S
N183 N187 1.370 . S
N184 C182 1.348 . S
N184 C186 1.346 . S
C185 C182 1.485 1_556 S
C185 H189 0.960 . S
C185 H190 0.961 . S
C185 H191 0.960 . S
C186 N184 1.346 . S
C186 N187 1.307 . S
C186 C188 1.486 . S
N187 N183 1.370 . S
N187 C186 1.307 . S
C188 C186 1.486 . S
C188 H192 0.960 . S
C188 H193 0.960 . S
C188 H194 0.959 . S
H189 C185 0.960 . S
H190 C185 0.961 . S
H191 C185 0.960 . S
H192 C188 0.960 . S
H193 C188 0.960 . S
H194 C188 0.959 . S
C195 N196 1.317 . S
C195 N197 1.348 . S
C195 C198 1.485 . S
N196 C195 1.317 . S
N196 N200 1.370 . S
N197 C195 1.348 . S
N197 C199 1.346 . S
C198 C195 1.485 . S
C198 H202 0.960 . S
C198 H203 0.961 . S
C198 H204 0.960 . S
C199 N197 1.346 . S
C199 N200 1.307 . S
C199 C201 1.486 . S
N200 N196 1.370 . S
N200 C199 1.307 . S
C201 C199 1.486 . S
C201 H205 0.960 . S
C201 H206 0.960 . S
C201 H207 0.959 . S
H202 C198 0.960 . S
H203 C198 0.961 . S
H204 C198 0.960 . S
H205 C201 0.960 . S
H206 C201 0.960 . S
H207 C201 0.959 . S
C208 N209 1.317 . S
C208 N210 1.348 . S
C208 C211 1.485 . S
N209 C208 1.317 . S
N209 N213 1.370 . S
N210 C208 1.348 . S
N210 C212 1.346 . S
C211 C208 1.485 . S
C211 H215 0.960 . S
C211 H216 0.961 . S
C211 H217 0.960 . S
C212 N210 1.346 . S
C212 N213 1.307 . S
C212 C214 1.486 . S
N213 N209 1.370 . S
N213 C212 1.307 . S
C214 C212 1.486 . S
C214 H218 0.960 . S
C214 H219 0.960 . S
C214 H220 0.959 . S
H215 C211 0.960 . S
H216 C211 0.961 . S
H217 C211 0.960 . S
H218 C214 0.960 . S
H219 C214 0.960 . S
H220 C214 0.959 . S
C221 N222 1.317 . S
C221 N223 1.348 . S
C221 C224 1.485 . S
N222 C221 1.317 . S
N222 N226 1.370 . S
N223 C221 1.348 . S
N223 C225 1.346 . S
C224 C221 1.485 . S
C224 H228 0.960 . S
C224 H229 0.961 . S
C224 H230 0.960 . S
C225 N223 1.346 . S
C225 N226 1.307 . S
C225 C227 1.486 . S
N226 N222 1.370 . S
N226 C225 1.307 . S
C227 C225 1.486 . S
C227 H231 0.960 . S
C227 H232 0.960 . S
C227 H233 0.959 . S
H228 C224 0.960 . S
H229 C224 0.961 . S
H230 C224 0.960 . S
H231 C227 0.960 . S
H232 C227 0.960 . S
H233 C227 0.959 . S
O234 Mg235 1.990 . S
O234 C248 1.253 . S
Mg235 O234 1.990 . S
Mg235 O238 2.180 1_546 S
Mg235 O239 2.117 1_545 S
Mg235 O253 2.030 . S
O236 Mg237 2.072 1_556 S
O236 C248 1.260 . S
Mg237 O236 2.072 1_554 S
Mg237 O238 2.099 1_545 S
Mg237 O240 2.079 1_545 S
Mg237 O241 2.072 1_545 S
Mg237 O243 2.099 . S
Mg237 O254 2.079 . S
O238 Mg235 2.180 1_564 S
O238 Mg237 2.099 1_565 S
O238 C249 1.279 . S
O239 Mg235 2.117 1_565 S
O239 C249 1.250 1_556 S
O240 Mg237 2.079 1_565 S
O240 C250 1.264 . S
O241 Mg237 2.072 1_565 S
O241 C251 1.260 . S
Mg242 O243 2.180 . S
Mg242 O244 2.030 1_545 S
Mg242 O245 1.990 1_545 S
Mg242 O246 2.117 . S
O243 Mg237 2.099 . S
O243 Mg242 2.180 . S
O243 C252 1.279 . S
O244 Mg242 2.030 1_565 S
O244 C250 1.248 . S
O245 Mg242 1.990 1_565 S
O245 C251 1.253 . S
O246 Mg242 2.117 . S
O246 C252 1.250 . S
C247 O253 1.248 1_554 S
C247 O254 1.264 . S
C248 O234 1.253 . S
C248 O236 1.260 . S
C249 O238 1.279 . S
C249 O239 1.250 1_554 S
C250 O240 1.264 . S
C250 O244 1.248 . S
C251 O241 1.260 . S
C251 O245 1.253 . S
C252 O243 1.279 . S
C252 O246 1.250 . S
O253 Mg235 2.030 . S
O253 C247 1.248 1_556 S
O254 Mg237 2.079 . S
O254 C247 1.264 . S
O255 Mg256 1.990 . S
O255 C269 1.253 1_455 S
Mg256 O255 1.990 . S
Mg256 O259 2.180 . S
Mg256 O260 2.117 . S
Mg256 O274 2.030 1_455 S
O257 Mg258 2.072 1_656 S
O257 C269 1.260 . S
Mg258 O257 2.072 1_454 S
Mg258 O259 2.099 1_554 S
Mg258 O261 2.079 . S
Mg258 O262 2.072 . S
Mg258 O264 2.099 1_455 S
Mg258 O275 2.079 1_455 S
O259 Mg256 2.180 . S
O259 Mg258 2.099 1_556 S
O259 C270 1.279 . S
O260 Mg256 2.117 . S
O260 C270 1.250 . S
O261 Mg258 2.079 . S
O261 C271 1.264 . S
O262 Mg258 2.072 . S
O262 C272 1.260 . S
Mg263 O264 2.180 1_455 S
Mg263 O265 2.030 . S
Mg263 O266 1.990 . S
Mg263 O267 2.117 1_455 S
O264 Mg258 2.099 1_655 S
O264 Mg263 2.180 1_655 S
O264 C273 1.279 . S
O265 Mg263 2.030 . S
O265 C271 1.248 . S
O266 Mg263 1.990 . S
O266 C272 1.253 . S
O267 Mg263 2.117 1_655 S
O267 C273 1.250 . S
C268 O274 1.248 . S
C268 O275 1.264 1_556 S
C269 O255 1.253 1_655 S
C269 O257 1.260 . S
C270 O259 1.279 . S
C270 O260 1.250 . S
C271 O261 1.264 . S
C271 O265 1.248 . S
C272 O262 1.260 . S
C272 O266 1.253 . S
C273 O264 1.279 . S
C273 O267 1.250 . S
O274 Mg256 2.030 1_655 S
O274 C268 1.248 . S
O275 Mg258 2.079 1_655 S
O275 C268 1.264 1_554 S
O276 Mg277 1.990 . S
O276 C290 1.253 . S
Mg277 O276 1.990 . S
Mg277 O280 2.180 . S
Mg277 O281 2.117 . S
Mg277 O295 2.030 . S
O278 Mg279 2.072 . S
O278 C290 1.260 . S
Mg279 O278 2.072 . S
Mg279 O280 2.099 . S
Mg279 O282 2.079 1_554 S
Mg279 O283 2.072 . S
Mg279 O285 2.099 . S
Mg279 O296 2.079 . S
O280 Mg277 2.180 . S
O280 Mg279 2.099 . S
O280 C291 1.279 . S
O281 Mg277 2.117 . S
O281 C291 1.250 . S
O282 Mg279 2.079 1_556 S
O282 C292 1.264 . S
O283 Mg279 2.072 . S
O283 C293 1.260 . S
Mg284 O285 2.180 1_556 S
Mg284 O286 2.030 . S
Mg284 O287 1.990 1_556 S
Mg284 O288 2.117 1_556 S
O285 Mg279 2.099 . S
O285 Mg284 2.180 1_554 S
O285 C294 1.279 . S
O286 Mg284 2.030 . S
O286 C292 1.248 . S
O287 Mg284 1.990 1_554 S
O287 C293 1.253 . S
O288 Mg284 2.117 1_554 S
O288 C294 1.250 . S
C289 O295 1.248 . S
C289 O296 1.264 . S
C290 O276 1.253 . S
C290 O278 1.260 . S
C291 O280 1.279 . S
C291 O281 1.250 . S
C292 O282 1.264 . S
C292 O286 1.248 . S
C293 O283 1.260 . S
C293 O287 1.253 . S
C294 O285 1.279 . S
C294 O288 1.250 . S
O295 Mg277 2.030 . S
O295 C289 1.248 . S
O296 Mg279 2.079 . S
O296 C289 1.264 . S
O297 Mg298 1.990 . S
O297 C311 1.253 . S
Mg298 O297 1.990 . S
Mg298 O301 2.180 . S
Mg298 O302 2.117 . S
Mg298 O316 2.030 . S
O299 Mg300 2.072 . S
O299 C311 1.260 . S
Mg300 O299 2.072 . S
Mg300 O301 2.099 . S
Mg300 O303 2.079 . S
Mg300 O304 2.072 . S
Mg300 O306 2.099 . S
Mg300 O317 2.079 . S
O301 Mg298 2.180 . S
O301 Mg300 2.099 . S
O301 C312 1.279 . S
O302 Mg298 2.117 . S
O302 C312 1.250 . S
O303 Mg300 2.079 . S
O303 C313 1.264 . S
O304 Mg300 2.072 . S
O304 C314 1.260 . S
Mg305 O306 2.180 . S
Mg305 O307 2.030 . S
Mg305 O308 1.990 . S
Mg305 O309 2.117 . S
O306 Mg300 2.099 . S
O306 Mg305 2.180 . S
O306 C315 1.279 . S
O307 Mg305 2.030 . S
O307 C313 1.248 . S
O308 Mg305 1.990 . S
O308 C314 1.253 . S
O309 Mg305 2.117 . S
O309 C315 1.250 . S
C310 O316 1.248 . S
C310 O317 1.264 . S
C311 O297 1.253 . S
C311 O299 1.260 . S
C312 O301 1.279 . S
C312 O302 1.250 . S
C313 O303 1.264 . S
C313 O307 1.248 . S
C314 O304 1.260 . S
C314 O308 1.253 . S
C315 O306 1.279 . S
C315 O309 1.250 . S
O316 Mg298 2.030 . S
O316 C310 1.248 . S
O317 Mg300 2.079 . S
O317 C310 1.264 . S
O318 Mg319 1.990 . S
O318 C332 1.253 . S
Mg319 O318 1.990 . S
Mg319 O322 2.180 . S
Mg319 O323 2.117 . S
Mg319 O337 2.030 . S
O320 Mg321 2.072 . S
O320 C332 1.260 . S
Mg321 O320 2.072 . S
Mg321 O322 2.099 . S
Mg321 O324 2.079 . S
Mg321 O325 2.072 . S
Mg321 O327 2.099 . S
Mg321 O338 2.079 . S
O322 Mg319 2.180 . S
O322 Mg321 2.099 . S
O322 C333 1.279 . S
O323 Mg319 2.117 . S
O323 C333 1.250 . S
O324 Mg321 2.079 . S
O324 C334 1.264 . S
O325 Mg321 2.072 . S
O325 C335 1.260 . S
Mg326 O327 2.180 . S
Mg326 O328 2.030 . S
Mg326 O329 1.990 . S
Mg326 O330 2.117 . S
O327 Mg321 2.099 . S
O327 Mg326 2.180 . S
O327 C336 1.279 . S
O328 Mg326 2.030 . S
O328 C334 1.248 . S
O329 Mg326 1.990 . S
O329 C335 1.253 . S
O330 Mg326 2.117 . S
O330 C336 1.250 . S
C331 O337 1.248 . S
C331 O338 1.264 . S
C332 O318 1.253 . S
C332 O320 1.260 . S
C333 O322 1.279 . S
C333 O323 1.250 . S
C334 O324 1.264 . S
C334 O328 1.248 . S
C335 O325 1.260 . S
C335 O329 1.253 . S
C336 O327 1.279 . S
C336 O330 1.250 . S
O337 Mg319 2.030 . S
O337 C331 1.248 . S
O338 Mg321 2.079 . S
O338 C331 1.264 . S
O339 Mg340 1.990 . S
O339 C353 1.253 . S
Mg340 O339 1.990 . S
Mg340 O343 2.180 . S
Mg340 O344 2.117 . S
Mg340 O358 2.030 . S
O341 Mg342 2.072 . S
O341 C353 1.260 . S
Mg342 O341 2.072 . S
Mg342 O343 2.099 . S
Mg342 O345 2.079 . S
Mg342 O346 2.072 . S
Mg342 O348 2.099 . S
Mg342 O359 2.079 . S
O343 Mg340 2.180 . S
O343 Mg342 2.099 . S
O343 C354 1.279 . S
O344 Mg340 2.117 . S
O344 C354 1.250 . S
O345 Mg342 2.079 . S
O345 C355 1.264 . S
O346 Mg342 2.072 . S
O346 C356 1.260 . S
Mg347 O348 2.180 . S
Mg347 O349 2.030 . S
Mg347 O350 1.990 . S
Mg347 O351 2.117 . S
O348 Mg342 2.099 . S
O348 Mg347 2.180 . S
O348 C357 1.279 . S
O349 Mg347 2.030 . S
O349 C355 1.248 . S
O350 Mg347 1.990 . S
O350 C356 1.253 . S
O351 Mg347 2.117 . S
O351 C357 1.250 . S
C352 O358 1.248 . S
C352 O359 1.264 . S
C353 O339 1.253 . S
C353 O341 1.260 . S
C354 O343 1.279 . S
C354 O344 1.250 . S
C355 O345 1.264 . S
C355 O349 1.248 . S
C356 O346 1.260 . S
C356 O350 1.253 . S
C357 O348 1.279 . S
C357 O351 1.250 . S
O358 Mg340 2.030 . S
O358 C352 1.248 . S
O359 Mg342 2.079 . S
O359 C352 1.264 . S
O360 Mg361 1.990 . S
O360 C374 1.253 . S
Mg361 O360 1.990 . S
Mg361 O364 2.180 . S
Mg361 O365 2.117 . S
Mg361 O379 2.030 . S
O362 Mg363 2.072 . S
O362 C374 1.260 . S
Mg363 O362 2.072 . S
Mg363 O364 2.099 . S
Mg363 O366 2.079 . S
Mg363 O367 2.072 . S
Mg363 O369 2.099 . S
Mg363 O380 2.079 . S
O364 Mg361 2.180 . S
O364 Mg363 2.099 . S
O364 C375 1.279 . S
O365 Mg361 2.117 . S
O365 C375 1.250 . S
O366 Mg363 2.079 . S
O366 C376 1.264 . S
O367 Mg363 2.072 . S
O367 C377 1.260 . S
Mg368 O369 2.180 . S
Mg368 O370 2.030 . S
Mg368 O371 1.990 . S
Mg368 O372 2.117 . S
O369 Mg363 2.099 . S
O369 Mg368 2.180 . S
O369 C378 1.279 . S
O370 Mg368 2.030 . S
O370 C376 1.248 . S
O371 Mg368 1.990 . S
O371 C377 1.253 . S
O372 Mg368 2.117 . S
O372 C378 1.250 . S
C373 O379 1.248 . S
C373 O380 1.264 . S
C374 O360 1.253 . S
C374 O362 1.260 . S
C375 O364 1.279 . S
C375 O365 1.250 . S
C376 O366 1.264 . S
C376 O370 1.248 . S
C377 O367 1.260 . S
C377 O371 1.253 . S
C378 O369 1.279 . S
C378 O372 1.250 . S
O379 Mg361 2.030 . S
O379 C373 1.248 . S
O380 Mg363 2.079 . S
O380 C373 1.264 . S
O381 Mg382 1.990 . S
O381 C395 1.253 . S
Mg382 O381 1.990 . S
Mg382 O385 2.180 . S
Mg382 O386 2.117 . S
Mg382 O400 2.030 . S
O383 Mg384 2.072 . S
O383 C395 1.260 . S
Mg384 O383 2.072 . S
Mg384 O385 2.099 . S
Mg384 O387 2.079 . S
Mg384 O388 2.072 . S
Mg384 O390 2.099 . S
Mg384 O401 2.079 . S
O385 Mg382 2.180 . S
O385 Mg384 2.099 . S
O385 C396 1.279 . S
O386 Mg382 2.117 . S
O386 C396 1.250 . S
O387 Mg384 2.079 . S
O387 C397 1.264 . S
O388 Mg384 2.072 . S
O388 C398 1.260 . S
Mg389 O390 2.180 . S
Mg389 O391 2.030 . S
Mg389 O392 1.990 . S
Mg389 O393 2.117 . S
O390 Mg384 2.099 . S
O390 Mg389 2.180 . S
O390 C399 1.279 . S
O391 Mg389 2.030 . S
O391 C397 1.248 . S
O392 Mg389 1.990 . S
O392 C398 1.253 . S
O393 Mg389 2.117 . S
O393 C399 1.250 . S
C394 O400 1.248 . S
C394 O401 1.264 . S
C395 O381 1.253 . S
C395 O383 1.260 . S
C396 O385 1.279 . S
C396 O386 1.250 . S
C397 O387 1.264 . S
C397 O391 1.248 . S
C398 O388 1.260 . S
C398 O392 1.253 . S
C399 O390 1.279 . S
C399 O393 1.250 . S
O400 Mg382 2.030 . S
O400 C394 1.248 . S
O401 Mg384 2.079 . S
O401 C394 1.264 . S
O402 Mg403 1.990 . S
O402 C416 1.253 . S
Mg403 O402 1.990 . S
Mg403 O406 2.180 . S
Mg403 O407 2.117 . S
Mg403 O421 2.030 . S
O404 Mg405 2.072 . S
O404 C416 1.260 . S
Mg405 O404 2.072 . S
Mg405 O406 2.099 . S
Mg405 O408 2.079 . S
Mg405 O409 2.072 . S
Mg405 O411 2.099 . S
Mg405 O422 2.079 . S
O406 Mg403 2.180 . S
O406 Mg405 2.099 . S
O406 C417 1.279 . S
O407 Mg403 2.117 . S
O407 C417 1.250 . S
O408 Mg405 2.079 . S
O408 C418 1.264 . S
O409 Mg405 2.072 . S
O409 C419 1.260 . S
Mg410 O411 2.180 . S
Mg410 O412 2.030 . S
Mg410 O413 1.990 . S
Mg410 O414 2.117 . S
O411 Mg405 2.099 . S
O411 Mg410 2.180 . S
O411 C420 1.279 . S
O412 Mg410 2.030 . S
O412 C418 1.248 . S
O413 Mg410 1.990 . S
O413 C419 1.253 . S
O414 Mg410 2.117 . S
O414 C420 1.250 . S
C415 O421 1.248 . S
C415 O422 1.264 . S
C416 O402 1.253 . S
C416 O404 1.260 . S
C417 O406 1.279 . S
C417 O407 1.250 . S
C418 O408 1.264 . S
C418 O412 1.248 . S
C419 O409 1.260 . S
C419 O413 1.253 . S
C420 O411 1.279 . S
C420 O414 1.250 . S
O421 Mg403 2.030 . S
O421 C415 1.248 . S
O422 Mg405 2.079 . S
O422 C415 1.264 . S
C423 C424 1.391 . S
C423 C425 1.394 . S
C423 H439 0.931 . S
C424 C423 1.391 . S
C424 C428 1.376 . S
C425 C423 1.394 . S
C425 C426 1.369 . S
C425 C429 1.531 . S
C426 C425 1.369 . S
C426 C427 1.410 . S
C426 C434 1.503 . S
C427 C426 1.410 . S
C427 C428 1.392 . S
C427 C430 1.511 . S
C428 C424 1.376 . S
C428 C427 1.392 . S
C428 H440 0.929 . S
C429 C425 1.531 . S
C429 H441 0.960 . S
C429 H442 0.962 . S
C429 H443 0.960 . S
C430 C427 1.511 . S
C430 H444 0.961 1_554 S
C430 H445 0.954 1_554 S
C430 H446 0.961 . S
C431 C432 1.370 . S
C431 C433 1.363 . S
C431 H447 0.931 1_554 S
C432 C431 1.370 . S
C432 C436 1.408 . S
C433 C431 1.363 . S
C433 C434 1.370 . S
C433 C437 1.524 1_554 S
C434 C426 1.503 . S
C434 C433 1.370 . S
C434 C435 1.403 . S
C435 C434 1.403 . S
C435 C436 1.404 . S
C435 C438 1.539 . S
C436 C432 1.408 . S
C436 C435 1.404 . S
C436 H448 0.930 . S
C437 C433 1.524 1_556 S
C437 H449 0.956 . S
C437 H450 0.961 . S
C437 H451 0.961 . S
C438 C435 1.539 . S
C438 H452 0.958 . S
C438 H453 0.961 . S
C438 H454 0.960 . S
H439 C423 0.931 . S
H440 C428 0.929 . S
H441 C429 0.960 . S
H442 C429 0.962 . S
H443 C429 0.960 . S
H444 C430 0.961 1_556 S
H445 C430 0.954 1_556 S
H446 C430 0.961 . S
H447 C431 0.931 1_556 S
H448 C436 0.930 . S
H449 C437 0.956 . S
H450 C437 0.961 . S
H451 C437 0.961 . S
H452 C438 0.958 . S
H453 C438 0.961 . S
H454 C438 0.960 . S
C455 C456 1.403 . S
C455 C457 1.393 1_554 S
C455 H471 0.920 1_554 S
C456 C455 1.403 . S
C456 C460 1.376 . S
C457 C455 1.393 1_556 S
C457 C458 1.369 1_556 S
C457 C461 1.531 . S
C458 C457 1.369 1_554 S
C458 C459 1.410 . S
C458 C466 1.503 . S
C459 C458 1.410 . S
C459 C460 1.392 . S
C459 C462 1.511 . S
C460 C456 1.376 . S
C460 C459 1.392 . S
C460 H472 0.929 . S
C461 C457 1.531 . S
C461 H473 0.960 . S
C461 H474 0.962 . S
C461 H475 0.960 . S
C462 C459 1.511 . S
C462 H476 0.961 . S
C462 H477 0.961 . S
C462 H478 0.961 . S
C463 C464 1.370 . S
C463 C465 1.363 . S
C463 H479 0.931 . S
C464 C463 1.370 . S
C464 C468 1.408 . S
C465 C463 1.363 . S
C465 C466 1.370 . S
C465 C469 1.524 . S
C466 C458 1.503 . S
C466 C465 1.370 . S
C466 C467 1.403 . S
C467 C466 1.403 . S
C467 C468 1.404 . S
C467 C470 1.539 . S
C468 C464 1.408 . S
C468 C467 1.404 . S
C468 H480 0.930 . S
C469 C465 1.524 . S
C469 H481 0.971 . S
C469 H482 0.961 . S
C469 H483 0.961 . S
C470 C467 1.539 . S
C470 H484 0.958 . S
C470 H485 0.961 . S
C470 H486 0.960 . S
H471 C455 0.920 1_556 S
H472 C460 0.929 . S
H473 C461 0.960 . S
H474 C461 0.962 . S
H475 C461 0.960 . S
H476 C462 0.961 . S
H477 C462 0.961 . S
H478 C462 0.961 . S
H479 C463 0.931 . S
H480 C468 0.930 . S
H481 C469 0.971 . S
H482 C469 0.961 . S
H483 C469 0.961 . S
H484 C470 0.958 . S
H485 C470 0.961 . S
H486 C470 0.960 . S
C487 C488 1.391 . S
C487 C489 1.394 . S
C487 H503 0.931 1_554 S
C488 C487 1.391 . S
C488 C492 1.376 . S
C489 C487 1.394 . S
C489 C490 1.369 . S
C489 C493 1.531 1_554 S
C490 C489 1.369 . S
C490 C491 1.410 . S
C490 C498 1.503 . S
C491 C490 1.410 . S
C491 C492 1.392 . S
C491 C494 1.511 . S
C492 C488 1.376 . S
C492 C491 1.392 . S
C492 H504 0.929 . S
C493 C489 1.531 1_556 S
C493 H505 0.960 . S
C493 H506 0.962 1_556 S
C493 H507 0.960 . S
C494 C491 1.511 . S
C494 H508 0.961 . S
C494 H509 0.961 . S
C494 H510 0.961 . S
C495 C496 1.370 . S
C495 C497 1.363 . S
C495 H511 0.931 . S
C496 C495 1.370 . S
C496 C500 1.408 . S
C497 C495 1.363 . S
C497 C498 1.370 . S
C497 C501 1.524 . S
C498 C490 1.503 . S
C498 C497 1.370 . S
C498 C499 1.403 . S
C499 C498 1.403 . S
C499 C500 1.404 . S
C499 C502 1.539 1_554 S
C500 C496 1.408 . S
C500 C499 1.404 . S
C500 H512 0.930 1_554 S
C501 C497 1.524 . S
C501 H513 0.956 . S
C501 H514 0.961 . S
C501 H515 0.961 . S
C502 C499 1.539 1_556 S
C502 H516 0.958 . S
C502 H517 0.961 . S
C502 H518 0.960 . S
H503 C487 0.931 1_556 S
H504 C492 0.929 . S
H505 C493 0.960 . S
H506 C493 0.962 1_554 S
H507 C493 0.960 . S
H508 C494 0.961 . S
H509 C494 0.961 . S
H510 C494 0.961 . S
H511 C495 0.931 . S
H512 C500 0.930 1_556 S
H513 C501 0.956 . S
H514 C501 0.961 . S
H515 C501 0.961 . S
H516 C502 0.958 . S
H517 C502 0.961 . S
H518 C502 0.960 . S
C519 C520 1.391 . S
C519 C521 1.394 . S
C519 H535 0.931 . S
C520 C519 1.391 . S
C520 C524 1.376 1_554 S
C521 C519 1.394 . S
C521 C522 1.369 . S
C521 C525 1.531 . S
C522 C521 1.369 . S
C522 C523 1.410 1_554 S
C522 C530 1.503 . S
C523 C522 1.410 1_556 S
C523 C524 1.392 . S
C523 C526 1.511 . S
C524 C520 1.376 1_556 S
C524 C523 1.392 . S
C524 H536 0.929 . S
C525 C521 1.531 . S
C525 H537 0.960 . S
C525 H538 0.962 . S
C525 H539 0.960 . S
C526 C523 1.511 . S
C526 H540 0.961 . S
C526 H541 0.961 . S
C526 H542 0.961 . S
C527 C528 1.370 1_556 S
C527 C529 1.363 . S
C527 H543 0.931 . S
C528 C527 1.370 1_554 S
C528 C532 1.408 . S
C529 C527 1.363 . S
C529 C530 1.370 1_556 S
C529 C533 1.524 . S
C530 C522 1.503 . S
C530 C529 1.370 1_554 S
C530 C531 1.403 . S
C531 C530 1.403 . S
C531 C532 1.404 . S
C531 C534 1.539 . S
C532 C528 1.408 . S
C532 C531 1.404 . S
C532 H544 0.930 . S
C533 C529 1.524 . S
C533 H545 0.956 . S
C533 H546 0.961 . S
C533 H547 0.961 . S
C534 C531 1.539 . S
C534 H548 0.958 . S
C534 H549 0.961 . S
C534 H550 0.960 . S
H535 C519 0.931 . S
H536 C524 0.929 . S
H537 C525 0.960 . S
H538 C525 0.962 . S
H539 C525 0.960 . S
H540 C526 0.961 . S
H541 C526 0.961 . S
H542 C526 0.961 . S
H543 C527 0.931 . S
H544 C532 0.930 . S
H545 C533 0.956 . S
H546 C533 0.961 . S
H547 C533 0.961 . S
H548 C534 0.958 . S
H549 C534 0.961 . S
H550 C534 0.960 . S
C551 C552 1.391 . S
C551 C553 1.394 . S
C551 H567 0.931 . S
C552 C551 1.391 . S
C552 C556 1.376 . S
C553 C551 1.394 . S
C553 C554 1.369 . S
C553 C557 1.531 . S
C554 C553 1.369 . S
C554 C555 1.410 . S
C554 C562 1.503 . S
C555 C554 1.410 . S
C555 C556 1.392 . S
C555 C558 1.511 . S
C556 C552 1.376 . S
C556 C555 1.392 . S
C556 H568 0.928 . S
C557 C553 1.531 . S
C557 H569 0.960 . S
C557 H570 0.962 . S
C557 H571 0.960 . S
C558 C555 1.511 . S
C558 H572 0.961 1_554 S
C558 H573 0.961 1_554 S
C558 H574 0.961 . S
C559 C560 1.370 1_556 S
C559 C561 1.363 . S
C559 H575 0.931 . S
C560 C559 1.370 1_554 S
C560 C564 1.408 . S
C561 C559 1.363 . S
C561 C562 1.370 1_556 S
C561 C565 1.524 . S
C562 C554 1.503 . S
C562 C561 1.370 1_554 S
C562 C563 1.403 . S
C563 C562 1.403 . S
C563 C564 1.404 . S
C563 C566 1.539 . S
C564 C560 1.408 . S
C564 C563 1.404 . S
C564 H576 0.930 . S
C565 C561 1.524 . S
C565 H577 0.956 . S
C565 H578 0.961 . S
C565 H579 0.961 . S
C566 C563 1.539 . S
C566 H580 0.958 . S
C566 H581 0.961 . S
C566 H582 0.960 . S
H567 C551 0.931 . S
H568 C556 0.928 . S
H569 C557 0.960 . S
H570 C557 0.962 . S
H571 C557 0.960 . S
H572 C558 0.961 1_556 S
H573 C558 0.961 1_556 S
H574 C558 0.961 . S
H575 C559 0.931 . S
H576 C564 0.930 . S
H577 C565 0.956 . S
H578 C565 0.961 . S
H579 C565 0.961 . S
H580 C566 0.958 . S
H581 C566 0.961 . S
H582 C566 0.960 . S
C583 C584 1.391 . S
C583 C585 1.394 . S
C583 H599 0.931 . S
C584 C583 1.391 . S
C584 C588 1.376 1_556 S
C585 C583 1.394 . S
C585 C586 1.369 1_556 S
C585 C589 1.531 . S
C586 C585 1.369 1_554 S
C586 C587 1.410 . S
C586 C594 1.503 . S
C587 C586 1.410 . S
C587 C588 1.392 . S
C587 C590 1.511 . S
C588 C584 1.376 1_554 S
C588 C587 1.392 . S
C588 H600 0.929 . S
C589 C585 1.531 . S
C589 H601 0.960 . S
C589 H602 0.962 . S
C589 H603 0.960 . S
C590 C587 1.511 . S
C590 H604 0.961 . S
C590 H605 0.961 . S
C590 H606 0.961 . S
C591 C592 1.370 . S
C591 C593 1.363 . S
C591 H607 0.931 . S
C592 C591 1.370 . S
C592 C596 1.408 . S
C593 C591 1.363 . S
C593 C594 1.370 . S
C593 C597 1.524 . S
C594 C586 1.503 . S
C594 C593 1.370 . S
C594 C595 1.403 . S
C595 C594 1.403 . S
C595 C596 1.404 . S
C595 C598 1.539 . S
C596 C592 1.408 . S
C596 C595 1.404 . S
C596 H608 0.930 . S
C597 C593 1.524 . S
C597 H609 0.956 1_554 S
C597 H610 0.961 . S
C597 H611 0.961 . S
C598 C595 1.539 . S
C598 H612 0.958 1_554 S
C598 H613 0.961 . S
C598 H614 0.960 . S
H599 C583 0.931 . S
H600 C588 0.929 . S
H601 C589 0.960 . S
H602 C589 0.962 . S
H603 C589 0.960 . S
H604 C590 0.961 . S
H605 C590 0.961 . S
H606 C590 0.961 . S
H607 C591 0.931 . S
H608 C596 0.930 . S
H609 C597 0.956 1_556 S
H610 C597 0.961 . S
H611 C597 0.961 . S
H612 C598 0.958 1_556 S
H613 C598 0.961 . S
H614 C598 0.960 . S
C615 C616 1.391 . S
C615 C617 1.394 . S
C615 H631 0.931 . S
C616 C615 1.391 . S
C616 C620 1.376 1_554 S
C617 C615 1.394 . S
C617 C618 1.369 . S
C617 C621 1.531 . S
C618 C617 1.369 . S
C618 C619 1.410 . S
C618 C626 1.503 . S
C619 C618 1.410 . S
C619 C620 1.392 1_554 S
C619 C622 1.511 1_554 S
C620 C616 1.376 1_556 S
C620 C619 1.392 1_556 S
C620 H632 0.929 . S
C621 C617 1.531 . S
C621 H633 0.960 . S
C621 H634 0.962 . S
C621 H635 0.960 . S
C622 C619 1.511 1_556 S
C622 H636 0.961 . S
C622 H637 0.961 . S
C622 H638 0.961 1_556 S
C623 C624 1.370 1_556 S
C623 C625 1.363 . S
C623 H639 0.931 . S
C624 C623 1.370 1_554 S
C624 C628 1.408 . S
C625 C623 1.363 . S
C625 C626 1.370 1_556 S
C625 C629 1.524 . S
C626 C618 1.503 . S
C626 C625 1.370 1_554 S
C626 C627 1.403 . S
C627 C626 1.403 . S
C627 C628 1.404 . S
C627 C630 1.539 . S
C628 C624 1.408 . S
C628 C627 1.404 . S
C628 H640 0.930 . S
C629 C625 1.524 . S
C629 H641 0.956 . S
C629 H642 0.961 . S
C629 H643 0.961 . S
C630 C627 1.539 . S
C630 H644 0.958 . S
C630 H645 0.961 . S
C630 H646 0.960 . S
H631 C615 0.931 . S
H632 C620 0.929 . S
H633 C621 0.960 . S
H634 C621 0.962 . S
H635 C621 0.960 . S
H636 C622 0.961 . S
H637 C622 0.961 . S
H638 C622 0.961 1_554 S
H639 C623 0.931 . S
H640 C628 0.930 . S
H641 C629 0.956 . S
H642 C629 0.961 . S
H643 C629 0.961 . S
H644 C630 0.958 . S
H645 C630 0.961 . S
H646 C630 0.960 . S
C647 C648 1.391 1_554 S
C647 C649 1.394 . S
C647 H663 0.931 . S
C648 C647 1.391 1_556 S
C648 C652 1.376 . S
C649 C647 1.394 . S
C649 C650 1.369 1_554 S
C649 C653 1.531 . S
C650 C649 1.369 1_556 S
C650 C651 1.410 . S
C650 C658 1.503 . S
C651 C650 1.410 . S
C651 C652 1.392 . S
C651 C654 1.511 . S
C652 C648 1.376 . S
C652 C651 1.392 . S
C652 H664 0.929 . S
C653 C649 1.531 . S
C653 H665 0.960 . S
C653 H666 0.962 . S
C653 H667 0.960 . S
C654 C651 1.511 . S
C654 H668 0.961 . S
C654 H669 0.961 . S
C654 H670 0.961 . S
C655 C656 1.370 1_554 S
C655 C657 1.363 . S
C655 H671 0.931 . S
C656 C655 1.370 1_556 S
C656 C660 1.408 . S
C657 C655 1.363 . S
C657 C658 1.370 1_554 S
C657 C661 1.524 . S
C658 C650 1.503 . S
C658 C657 1.370 1_556 S
C658 C659 1.403 . S
C659 C658 1.403 . S
C659 C660 1.404 . S
C659 C662 1.539 . S
C660 C656 1.408 . S
C660 C659 1.404 . S
C660 H672 0.930 . S
C661 C657 1.524 . S
C661 H673 0.956 . S
C661 H674 0.961 . S
C661 H675 0.961 . S
C662 C659 1.539 . S
C662 H676 0.958 . S
C662 H677 0.961 . S
C662 H678 0.960 . S
H663 C647 0.931 . S
H664 C652 0.929 . S
H665 C653 0.960 . S
H666 C653 0.962 . S
H667 C653 0.960 . S
H668 C654 0.961 . S
H669 C654 0.961 . S
H670 C654 0.961 . S
H671 C655 0.931 . S
H672 C660 0.930 . S
H673 C661 0.956 . S
H674 C661 0.961 . S
H675 C661 0.961 . S
H676 C662 0.958 . S
H677 C662 0.961 . S
H678 C662 0.960 . S
C679 C680 1.391 1_556 S
C679 C681 1.394 . S
C679 H695 0.931 . S
C680 C679 1.391 1_554 S
C680 C684 1.376 . S
C681 C679 1.394 . S
C681 C682 1.369 1_556 S
C681 C685 1.531 . S
C682 C681 1.369 1_554 S
C682 C683 1.410 . S
C682 C690 1.503 . S
C683 C682 1.410 . S
C683 C684 1.392 . S
C683 C686 1.511 . S
C684 C680 1.376 . S
C684 C683 1.392 . S
C684 H696 0.929 . S
C685 C681 1.531 . S
C685 H697 0.960 . S
C685 H698 0.962 . S
C685 H699 0.960 . S
C686 C683 1.511 . S
C686 H700 0.961 . S
C686 H701 0.961 . S
C686 H702 0.961 . S
C687 C688 1.370 . S
C687 C689 1.363 . S
C687 H703 0.931 . S
C688 C687 1.370 . S
C688 C692 1.408 . S
C689 C687 1.363 . S
C689 C690 1.370 . S
C689 C693 1.524 . S
C690 C682 1.503 . S
C690 C689 1.370 . S
C690 C691 1.403 . S
C691 C690 1.403 . S
C691 C692 1.404 . S
C691 C694 1.539 1_554 S
C692 C688 1.408 . S
C692 C691 1.404 . S
C692 H704 0.930 . S
C693 C689 1.524 . S
C693 H705 0.956 . S
C693 H706 0.961 . S
C693 H707 0.961 . S
C694 C691 1.539 1_556 S
C694 H708 0.958 . S
C694 H709 0.961 . S
C694 H710 0.960 . S
H695 C679 0.931 . S
H696 C684 0.929 . S
H697 C685 0.960 . S
H698 C685 0.962 . S
H699 C685 0.960 . S
H700 C686 0.961 . S
H701 C686 0.961 . S
H702 C686 0.961 . S
H703 C687 0.931 . S
H704 C692 0.930 . S
H705 C693 0.956 . S
H706 C693 0.961 . S
H707 C693 0.961 . S
H708 C694 0.958 . S
H709 C694 0.961 . S
H710 C694 0.960 . S
C711 C712 1.391 . S
C711 C713 1.394 . S
C711 H727 0.931 . S
C712 C711 1.391 . S
C712 C716 1.376 . S
C713 C711 1.394 . S
C713 C714 1.369 . S
C713 C717 1.531 . S
C714 C713 1.369 . S
C714 C715 1.410 . S
C714 C722 1.503 . S
C715 C714 1.410 . S
C715 C716 1.392 . S
C715 C718 1.511 . S
C716 C712 1.376 . S
C716 C715 1.392 . S
C716 H728 0.929 . S
C717 C713 1.531 . S
C717 H729 0.960 . S
C717 H730 0.962 1_554 S
C717 H731 0.960 . S
C718 C715 1.511 . S
C718 H732 0.961 . S
C718 H733 0.961 . S
C718 H734 0.961 . S
C719 C720 1.370 1_556 S
C719 C721 1.363 . S
C719 H735 0.931 . S
C720 C719 1.370 1_554 S
C720 C724 1.408 . S
C721 C719 1.363 . S
C721 C722 1.370 1_556 S
C721 C725 1.524 . S
C722 C714 1.503 . S
C722 C721 1.370 1_554 S
C722 C723 1.403 . S
C723 C722 1.403 . S
C723 C724 1.404 . S
C723 C726 1.539 . S
C724 C720 1.408 . S
C724 C723 1.404 . S
C724 H736 0.930 . S
C725 C721 1.524 . S
C725 H737 0.956 . S
C725 H738 0.961 . S
C725 H739 0.961 . S
C726 C723 1.539 . S
C726 H740 0.958 . S
C726 H741 0.961 . S
C726 H742 0.960 . S
H727 C711 0.931 . S
H728 C716 0.929 . S
H729 C717 0.960 . S
H730 C717 0.962 1_556 S
H731 C717 0.960 . S
H732 C718 0.961 . S
H733 C718 0.961 . S
H734 C718 0.961 . S
H735 C719 0.931 . S
H736 C724 0.930 . S
H737 C725 0.956 . S
H738 C725 0.961 . S
H739 C725 0.961 . S
H740 C726 0.958 . S
H741 C726 0.961 . S
H742 C726 0.960 . S
C743 C744 1.391 . S
C743 C745 1.394 . S
C743 H759 0.931 . S
C744 C743 1.391 . S
C744 C748 1.376 . S
C745 C743 1.394 . S
C745 C746 1.369 . S
C745 C749 1.531 . S
C746 C745 1.369 . S
C746 C747 1.410 . S
C746 C754 1.503 . S
C747 C746 1.410 . S
C747 C748 1.392 . S
C747 C750 1.511 1_554 S
C748 C744 1.376 . S
C748 C747 1.392 . S
C748 H760 0.929 . S
C749 C745 1.531 . S
C749 H761 0.960 . S
C749 H762 0.962 . S
C749 H763 0.960 . S
C750 C747 1.511 1_556 S
C750 H764 0.961 . S
C750 H765 0.961 . S
C750 H766 0.961 . S
C751 C752 1.370 . S
C751 C753 1.363 . S
C751 H767 0.931 . S
C752 C751 1.370 . S
C752 C756 1.408 . S
C753 C751 1.363 . S
C753 C754 1.370 . S
C753 C757 1.524 . S
C754 C746 1.503 . S
C754 C753 1.370 . S
C754 C755 1.403 . S
C755 C754 1.403 . S
C755 C756 1.404 . S
C755 C758 1.539 . S
C756 C752 1.408 . S
C756 C755 1.404 . S
C756 H768 0.930 . S
C757 C753 1.524 . S
C757 H769 0.956 . S
C757 H770 0.961 . S
C757 H771 0.961 . S
C758 C755 1.539 . S
C758 H772 0.958 . S
C758 H773 0.961 . S
C758 H774 0.960 . S
H759 C743 0.931 . S
H760 C748 0.929 . S
H761 C749 0.960 . S
H762 C749 0.962 . S
H763 C749 0.960 . S
H764 C750 0.961 . S
H765 C750 0.961 . S
H766 C750 0.961 . S
H767 C751 0.931 . S
H768 C756 0.930 . S
H769 C757 0.956 . S
H770 C757 0.961 . S
H771 C757 0.961 . S
H772 C758 0.958 . S
H773 C758 0.961 . S
H774 C758 0.960 . S
C775 C776 1.391 . S
C775 C777 1.394 . S
C775 H791 0.931 1_554 S
C776 C775 1.391 . S
C776 C780 1.376 . S
C777 C775 1.394 . S
C777 C778 1.369 . S
C777 C781 1.531 1_554 S
C778 C777 1.369 . S
C778 C779 1.410 . S
C778 C786 1.503 . S
C779 C778 1.410 . S
C779 C780 1.392 . S
C779 C782 1.511 . S
C780 C776 1.376 . S
C780 C779 1.392 . S
C780 H792 0.929 . S
C781 C777 1.531 1_556 S
C781 H793 0.960 . S
C781 H794 0.962 . S
C781 H795 0.960 . S
C782 C779 1.511 . S
C782 H796 0.961 . S
C782 H797 0.961 . S
C782 H798 0.961 . S
C783 C784 1.370 . S
C783 C785 1.363 . S
C783 H799 0.931 . S
C784 C783 1.370 . S
C784 C788 1.408 1_554 S
C785 C783 1.363 . S
C785 C786 1.370 . S
C785 C789 1.524 . S
C786 C778 1.503 . S
C786 C785 1.370 . S
C786 C787 1.403 1_554 S
C787 C786 1.403 1_556 S
C787 C788 1.404 . S
C787 C790 1.539 . S
C788 C784 1.408 1_556 S
C788 C787 1.404 . S
C788 H800 0.930 . S
C789 C785 1.524 . S
C789 H801 0.956 . S
C789 H802 0.961 . S
C789 H803 0.961 . S
C790 C787 1.539 . S
C790 H804 0.958 . S
C790 H805 0.961 . S
C790 H806 0.960 . S
H791 C775 0.931 1_556 S
H792 C780 0.929 . S
H793 C781 0.960 . S
H794 C781 0.962 . S
H795 C781 0.960 . S
H796 C782 0.961 . S
H797 C782 0.961 . S
H798 C782 0.961 . S
H799 C783 0.931 . S
H800 C788 0.930 . S
H801 C789 0.956 . S
H802 C789 0.961 . S
H803 C789 0.961 . S
H804 C790 0.958 . S
H805 C790 0.961 . S
H806 C790 0.960 . S
C807 C808 1.391 . S
C807 C809 1.394 . S
C807 H823 0.931 . S
C808 C807 1.391 . S
C808 C812 1.376 . S
C809 C807 1.394 . S
C809 C810 1.369 . S
C809 C813 1.531 . S
C810 C809 1.369 . S
C810 C811 1.410 . S
C810 C818 1.503 1_655 S
C811 C810 1.410 . S
C811 C812 1.392 . S
C811 C814 1.511 . S
C812 C808 1.376 . S
C812 C811 1.392 . S
C812 H824 0.929 . S
C813 C809 1.531 . S
C813 H825 0.960 1_655 S
C813 H826 0.962 1_655 S
C813 H827 0.960 . S
C814 C811 1.511 . S
C814 H828 0.961 . S
C814 H829 0.961 1_655 S
C814 H830 0.961 . S
C815 C816 1.370 . S
C815 C817 1.363 . S
C815 H831 0.931 . S
C816 C815 1.370 . S
C816 C820 1.408 . S
C817 C815 1.363 . S
C817 C818 1.370 . S
C817 C821 1.524 . S
C818 C810 1.503 1_455 S
C818 C817 1.370 . S
C818 C819 1.403 . S
C819 C818 1.403 . S
C819 C820 1.404 . S
C819 C822 1.539 . S
C820 C816 1.408 . S
C820 C819 1.404 . S
C820 H832 0.930 . S
C821 C817 1.524 . S
C821 H833 0.956 . S
C821 H834 0.961 . S
C821 H835 0.961 . S
C822 C819 1.539 . S
C822 H836 0.958 . S
C822 H837 0.961 . S
C822 H838 0.960 . S
H823 C807 0.931 . S
H824 C812 0.929 . S
H825 C813 0.960 1_455 S
H826 C813 0.962 1_455 S
H827 C813 0.960 . S
H828 C814 0.961 . S
H829 C814 0.961 1_455 S
H830 C814 0.961 . S
H831 C815 0.931 . S
H832 C820 0.930 . S
H833 C821 0.956 . S
H834 C821 0.961 . S
H835 C821 0.961 . S
H836 C822 0.958 . S
H837 C822 0.961 . S
H838 C822 0.960 . S
C839 C840 1.391 . S
C839 C841 1.394 . S
C839 H855 0.931 . S
C840 C839 1.391 . S
C840 C844 1.376 . S
C841 C839 1.394 . S
C841 C842 1.369 . S
C841 C845 1.531 . S
C842 C841 1.369 . S
C842 C843 1.410 . S
C842 C850 1.503 . S
C843 C842 1.410 . S
C843 C844 1.392 . S
C843 C846 1.511 . S
C844 C840 1.376 . S
C844 C843 1.392 . S
C844 H856 0.929 . S
C845 C841 1.531 . S
C845 H857 0.960 . S
C845 H858 0.962 . S
C845 H859 0.960 . S
C846 C843 1.511 . S
C846 H860 0.961 . S
C846 H861 0.961 . S
C846 H862 0.961 . S
C847 C848 1.370 . S
C847 C849 1.363 . S
C847 H863 0.931 . S
C848 C847 1.370 . S
C848 C852 1.408 . S
C849 C847 1.363 . S
C849 C850 1.370 . S
C849 C853 1.524 . S
C850 C842 1.503 . S
C850 C849 1.370 . S
C850 C851 1.403 . S
C851 C850 1.403 . S
C851 C852 1.404 . S
C851 C854 1.539 . S
C852 C848 1.408 . S
C852 C851 1.404 . S
C852 H864 0.930 . S
C853 C849 1.524 . S
C853 H865 0.956 . S
C853 H866 0.961 . S
C853 H867 0.961 . S
C854 C851 1.539 . S
C854 H868 0.958 . S
C854 H869 0.961 . S
C854 H870 0.960 . S
H855 C839 0.931 . S
H856 C844 0.929 . S
H857 C845 0.960 . S
H858 C845 0.962 . S
H859 C845 0.960 . S
H860 C846 0.961 . S
H861 C846 0.961 . S
H862 C846 0.961 . S
H863 C847 0.931 . S
H864 C852 0.930 . S
H865 C853 0.956 . S
H866 C853 0.961 . S
H867 C853 0.961 . S
H868 C854 0.958 . S
H869 C854 0.961 . S
H870 C854 0.960 . S
C871 C872 1.391 . S
C871 C873 1.394 . S
C871 H887 0.931 . S
C872 C871 1.391 . S
C872 C876 1.376 . S
C873 C871 1.394 . S
C873 C874 1.369 . S
C873 C877 1.531 1_545 S
C874 C873 1.369 . S
C874 C875 1.410 . S
C874 C882 1.503 1_545 S
C875 C874 1.410 . S
C875 C876 1.392 . S
C875 C878 1.511 . S
C876 C872 1.376 . S
C876 C875 1.392 . S
C876 H888 0.929 . S
C877 C873 1.531 1_565 S
C877 H889 0.960 . S
C877 H890 0.962 . S
C877 H891 0.960 1_565 S
C878 C875 1.511 . S
C878 H892 0.961 . S
C878 H893 0.961 . S
C878 H894 0.961 . S
C879 C880 1.370 . S
C879 C881 1.363 . S
C879 H895 0.931 . S
C880 C879 1.370 . S
C880 C884 1.408 . S
C881 C879 1.363 . S
C881 C882 1.370 . S
C881 C885 1.524 . S
C882 C874 1.503 1_565 S
C882 C881 1.370 . S
C882 C883 1.403 . S
C883 C882 1.403 . S
C883 C884 1.404 . S
C883 C886 1.539 . S
C884 C880 1.408 . S
C884 C883 1.404 . S
C884 H896 0.930 . S
C885 C881 1.524 . S
C885 H897 0.956 . S
C885 H898 0.961 1_565 S
C885 H899 0.961 . S
C886 C883 1.539 . S
C886 H900 0.958 . S
C886 H901 0.961 . S
C886 H902 0.960 . S
H887 C871 0.931 . S
H888 C876 0.929 . S
H889 C877 0.960 . S
H890 C877 0.962 . S
H891 C877 0.960 1_545 S
H892 C878 0.961 . S
H893 C878 0.961 . S
H894 C878 0.961 . S
H895 C879 0.931 . S
H896 C884 0.930 . S
H897 C885 0.956 . S
H898 C885 0.961 1_545 S
H899 C885 0.961 . S
H900 C886 0.958 . S
H901 C886 0.961 . S
H902 C886 0.960 . S
C903 C904 1.391 . S
C903 C905 1.394 . S
C903 H919 0.931 . S
C904 C903 1.391 . S
C904 C908 1.376 . S
C905 C903 1.394 . S
C905 C906 1.369 . S
C905 C909 1.531 . S
C906 C905 1.369 . S
C906 C907 1.410 . S
C906 C914 1.503 . S
C907 C906 1.410 . S
C907 C908 1.392 . S
C907 C910 1.511 . S
C908 C904 1.376 . S
C908 C907 1.392 . S
C908 H920 0.929 . S
C909 C905 1.531 . S
C909 H921 0.960 . S
C909 H922 0.962 . S
C909 H923 0.960 . S
C910 C907 1.511 . S
C910 H924 0.961 . S
C910 H925 0.961 . S
C910 H926 0.961 . S
C911 C912 1.370 . S
C911 C913 1.363 . S
C911 H927 0.931 . S
C912 C911 1.370 . S
C912 C916 1.408 . S
C913 C911 1.363 . S
C913 C914 1.370 . S
C913 C917 1.524 . S
C914 C906 1.503 . S
C914 C913 1.370 . S
C914 C915 1.403 . S
C915 C914 1.403 . S
C915 C916 1.404 . S
C915 C918 1.539 . S
C916 C912 1.408 . S
C916 C915 1.404 . S
C916 H928 0.930 . S
C917 C913 1.524 . S
C917 H929 0.956 . S
C917 H930 0.961 . S
C917 H931 0.961 . S
C918 C915 1.539 . S
C918 H932 0.958 . S
C918 H933 0.961 . S
C918 H934 0.960 . S
H919 C903 0.931 . S
H920 C908 0.929 . S
H921 C909 0.960 . S
H922 C909 0.962 . S
H923 C909 0.960 . S
H924 C910 0.961 . S
H925 C910 0.961 . S
H926 C910 0.961 . S
H927 C911 0.931 . S
H928 C916 0.930 . S
H929 C917 0.956 . S
H930 C917 0.961 . S
H931 C917 0.961 . S
H932 C918 0.958 . S
H933 C918 0.961 . S
H934 C918 0.960 . S
C935 C936 1.391 . S
C935 C937 1.394 . S
C935 H951 0.931 . S
C936 C935 1.391 . S
C936 C940 1.376 . S
C937 C935 1.394 . S
C937 C938 1.369 . S
C937 C941 1.531 . S
C938 C937 1.369 . S
C938 C939 1.410 . S
C938 C946 1.503 . S
C939 C938 1.410 . S
C939 C940 1.392 . S
C939 C942 1.511 . S
C940 C936 1.376 . S
C940 C939 1.392 . S
C940 H952 0.929 . S
C941 C937 1.531 . S
C941 H953 0.960 . S
C941 H954 0.962 . S
C941 H955 0.960 . S
C942 C939 1.511 . S
C942 H956 0.961 . S
C942 H957 0.961 . S
C942 H958 0.961 . S
C943 C944 1.370 . S
C943 C945 1.363 . S
C943 H959 0.931 . S
C944 C943 1.370 . S
C944 C948 1.408 . S
C945 C943 1.363 . S
C945 C946 1.370 . S
C945 C949 1.524 . S
C946 C938 1.503 . S
C946 C945 1.370 . S
C946 C947 1.403 . S
C947 C946 1.403 . S
C947 C948 1.404 . S
C947 C950 1.539 . S
C948 C944 1.408 . S
C948 C947 1.404 . S
C948 H960 0.930 . S
C949 C945 1.524 . S
C949 H961 0.956 . S
C949 H962 0.961 . S
C949 H963 0.961 . S
C950 C947 1.539 . S
C950 H964 0.958 . S
C950 H965 0.961 . S
C950 H966 0.960 . S
H951 C935 0.931 . S
H952 C940 0.929 . S
H953 C941 0.960 . S
H954 C941 0.962 . S
H955 C941 0.960 . S
H956 C942 0.961 . S
H957 C942 0.961 . S
H958 C942 0.961 . S
H959 C943 0.931 . S
H960 C948 0.930 . S
H961 C949 0.956 . S
H962 C949 0.961 . S
H963 C949 0.961 . S
H964 C950 0.958 . S
H965 C950 0.961 . S
H966 C950 0.960 . S
C967 C968 1.391 . S
C967 C969 1.394 . S
C967 H983 0.931 . S
C968 C967 1.391 . S
C968 C972 1.376 . S
C969 C967 1.394 . S
C969 C970 1.369 . S
C969 C973 1.531 . S
C970 C969 1.369 . S
C970 C971 1.410 . S
C970 C978 1.503 . S
C971 C970 1.410 . S
C971 C972 1.392 . S
C971 C974 1.511 . S
C972 C968 1.376 . S
C972 C971 1.392 . S
C972 H984 0.929 . S
C973 C969 1.531 . S
C973 H985 0.960 . S
C973 H986 0.962 . S
C973 H987 0.960 . S
C974 C971 1.511 . S
C974 H988 0.961 . S
C974 H989 0.961 . S
C974 H990 0.961 . S
C975 C976 1.370 . S
C975 C977 1.363 . S
C975 H991 0.931 . S
C976 C975 1.370 . S
C976 C980 1.408 . S
C977 C975 1.363 . S
C977 C978 1.370 . S
C977 C981 1.524 . S
C978 C970 1.503 . S
C978 C977 1.370 . S
C978 C979 1.403 . S
C979 C978 1.403 . S
C979 C980 1.404 . S
C979 C982 1.539 . S
C980 C976 1.408 . S
C980 C979 1.404 . S
C980 H992 0.930 . S
C981 C977 1.524 . S
C981 H993 0.956 . S
C981 H994 0.961 . S
C981 H995 0.961 . S
C982 C979 1.539 . S
C982 H996 0.958 . S
C982 H997 0.961 . S
C982 H998 0.960 . S
H983 C967 0.931 . S
H984 C972 0.929 . S
H985 C973 0.960 . S
H986 C973 0.962 . S
H987 C973 0.960 . S
H988 C974 0.961 . S
H989 C974 0.961 . S
H990 C974 0.961 . S
H991 C975 0.931 . S
H992 C980 0.930 . S
H993 C981 0.956 . S
H994 C981 0.961 . S
H995 C981 0.961 . S
H996 C982 0.958 . S
H997 C982 0.961 . S
H998 C982 0.960 . S
C999 C1000 1.391 . S
C999 C1001 1.394 . S
C999 H1015 0.931 . S
C1000 C999 1.391 . S
C1000 C1004 1.376 . S
C1001 C999 1.394 . S
C1001 C1002 1.369 . S
C1001 C1005 1.531 . S
C1002 C1001 1.369 . S
C1002 C1003 1.410 . S
C1002 C1010 1.503 . S
C1003 C1002 1.410 . S
C1003 C1004 1.392 . S
C1003 C1006 1.511 . S
C1004 C1000 1.376 . S
C1004 C1003 1.392 . S
C1004 H1016 0.929 . S
C1005 C1001 1.531 . S
C1005 H1017 0.960 . S
C1005 H1018 0.962 . S
C1005 H1019 0.960 . S
C1006 C1003 1.511 . S
C1006 H1020 0.961 . S
C1006 H1021 0.961 . S
C1006 H1022 0.961 . S
C1007 C1008 1.370 . S
C1007 C1009 1.363 . S
C1007 H1023 0.931 . S
C1008 C1007 1.370 . S
C1008 C1012 1.408 . S
C1009 C1007 1.363 . S
C1009 C1010 1.370 . S
C1009 C1013 1.524 . S
C1010 C1002 1.503 . S
C1010 C1009 1.370 . S
C1010 C1011 1.403 . S
C1011 C1010 1.403 . S
C1011 C1012 1.404 . S
C1011 C1014 1.539 . S
C1012 C1008 1.408 . S
C1012 C1011 1.404 . S
C1012 H1024 0.930 . S
C1013 C1009 1.524 . S
C1013 H1025 0.956 . S
C1013 H1026 0.961 . S
C1013 H1027 0.961 . S
C1014 C1011 1.539 . S
C1014 H1028 0.958 . S
C1014 H1029 0.961 . S
C1014 H1030 0.960 . S
H1015 C999 0.931 . S
H1016 C1004 0.929 . S
H1017 C1005 0.960 . S
H1018 C1005 0.962 . S
H1019 C1005 0.960 . S
H1020 C1006 0.961 . S
H1021 C1006 0.961 . S
H1022 C1006 0.961 . S
H1023 C1007 0.931 . S
H1024 C1012 0.930 . S
H1025 C1013 0.956 . S
H1026 C1013 0.961 . S
H1027 C1013 0.961 . S
H1028 C1014 0.958 . S
H1029 C1014 0.961 . S
H1030 C1014 0.960 . S
C1031 C1032 1.391 . S
C1031 C1033 1.394 . S
C1031 H1047 0.931 . S
C1032 C1031 1.391 . S
C1032 C1036 1.376 . S
C1033 C1031 1.394 . S
C1033 C1034 1.369 . S
C1033 C1037 1.531 . S
C1034 C1033 1.369 . S
C1034 C1035 1.410 . S
C1034 C1042 1.503 . S
C1035 C1034 1.410 . S
C1035 C1036 1.392 . S
C1035 C1038 1.511 . S
C1036 C1032 1.376 . S
C1036 C1035 1.392 . S
C1036 H1048 0.929 . S
C1037 C1033 1.531 . S
C1037 H1049 0.960 . S
C1037 H1050 0.962 . S
C1037 H1051 0.960 . S
C1038 C1035 1.511 . S
C1038 H1052 0.961 . S
C1038 H1053 0.961 . S
C1038 H1054 0.961 . S
C1039 C1040 1.370 . S
C1039 C1041 1.363 . S
C1039 H1055 0.931 . S
C1040 C1039 1.370 . S
C1040 C1044 1.408 . S
C1041 C1039 1.363 . S
C1041 C1042 1.370 . S
C1041 C1045 1.524 . S
C1042 C1034 1.503 . S
C1042 C1041 1.370 . S
C1042 C1043 1.403 . S
C1043 C1042 1.403 . S
C1043 C1044 1.404 . S
C1043 C1046 1.539 . S
C1044 C1040 1.408 . S
C1044 C1043 1.404 . S
C1044 H1056 0.930 . S
C1045 C1041 1.524 . S
C1045 H1057 0.956 . S
C1045 H1058 0.961 . S
C1045 H1059 0.961 . S
C1046 C1043 1.539 . S
C1046 H1060 0.958 . S
C1046 H1061 0.961 . S
C1046 H1062 0.960 . S
H1047 C1031 0.931 . S
H1048 C1036 0.929 . S
H1049 C1037 0.960 . S
H1050 C1037 0.962 . S
H1051 C1037 0.960 . S
H1052 C1038 0.961 . S
H1053 C1038 0.961 . S
H1054 C1038 0.961 . S
H1055 C1039 0.931 . S
H1056 C1044 0.930 . S
H1057 C1045 0.956 . S
H1058 C1045 0.961 . S
H1059 C1045 0.961 . S
H1060 C1046 0.958 . S
H1061 C1046 0.961 . S
H1062 C1046 0.960 . S
C1063 C1064 1.391 . S
C1063 C1065 1.394 . S
C1063 H1079 0.931 . S
C1064 C1063 1.391 . S
C1064 C1068 1.376 . S
C1065 C1063 1.394 . S
C1065 C1066 1.369 . S
C1065 C1069 1.531 . S
C1066 C1065 1.369 . S
C1066 C1067 1.410 . S
C1066 C1074 1.503 . S
C1067 C1066 1.410 . S
C1067 C1068 1.392 . S
C1067 C1070 1.511 . S
C1068 C1064 1.376 . S
C1068 C1067 1.392 . S
C1068 H1080 0.929 . S
C1069 C1065 1.531 . S
C1069 H1081 0.960 . S
C1069 H1082 0.962 . S
C1069 H1083 0.960 . S
C1070 C1067 1.511 . S
C1070 H1084 0.961 . S
C1070 H1085 0.961 . S
C1070 H1086 0.961 . S
C1071 C1072 1.370 . S
C1071 C1073 1.363 . S
C1071 H1087 0.931 . S
C1072 C1071 1.370 . S
C1072 C1076 1.408 . S
C1073 C1071 1.363 . S
C1073 C1074 1.370 . S
C1073 C1077 1.524 . S
C1074 C1066 1.503 . S
C1074 C1073 1.370 . S
C1074 C1075 1.403 . S
C1075 C1074 1.403 . S
C1075 C1076 1.404 . S
C1075 C1078 1.539 . S
C1076 C1072 1.408 . S
C1076 C1075 1.404 . S
C1076 H1088 0.930 . S
C1077 C1073 1.524 . S
C1077 H1089 0.956 . S
C1077 H1090 0.961 . S
C1077 H1091 0.961 . S
C1078 C1075 1.539 . S
C1078 H1092 0.958 . S
C1078 H1093 0.961 . S
C1078 H1094 0.960 . S
H1079 C1063 0.931 . S
H1080 C1068 0.929 . S
H1081 C1069 0.960 . S
H1082 C1069 0.962 . S
H1083 C1069 0.960 . S
H1084 C1070 0.961 . S
H1085 C1070 0.961 . S
H1086 C1070 0.961 . S
H1087 C1071 0.931 . S
H1088 C1076 0.930 . S
H1089 C1077 0.956 . S
H1090 C1077 0.961 . S
H1091 C1077 0.961 . S
H1092 C1078 0.958 . S
H1093 C1078 0.961 . S
H1094 C1078 0.960 . S
C1095 C1096 1.391 . S
C1095 C1097 1.394 . S
C1095 H1111 0.931 . S
C1096 C1095 1.391 . S
C1096 C1100 1.376 . S
C1097 C1095 1.394 . S
C1097 C1098 1.369 . S
C1097 C1101 1.531 . S
C1098 C1097 1.369 . S
C1098 C1099 1.410 . S
C1098 C1106 1.503 1_545 S
C1099 C1098 1.410 . S
C1099 C1100 1.392 . S
C1099 C1102 1.511 . S
C1100 C1096 1.376 . S
C1100 C1099 1.392 . S
C1100 H1112 0.929 . S
C1101 C1097 1.531 . S
C1101 H1113 0.960 . S
C1101 H1114 0.962 . S
C1101 H1115 0.960 . S
C1102 C1099 1.511 . S
C1102 H1116 0.961 . S
C1102 H1117 0.961 1_545 S
C1102 H1118 0.961 1_545 S
C1103 C1104 1.370 . S
C1103 C1105 1.363 . S
C1103 H1119 0.931 . S
C1104 C1103 1.370 . S
C1104 C1108 1.408 . S
C1105 C1103 1.363 . S
C1105 C1106 1.370 . S
C1105 C1109 1.524 . S
C1106 C1098 1.503 1_565 S
C1106 C1105 1.370 . S
C1106 C1107 1.403 . S
C1107 C1106 1.403 . S
C1107 C1108 1.404 . S
C1107 C1110 1.539 . S
C1108 C1104 1.408 . S
C1108 C1107 1.404 . S
C1108 H1120 0.930 . S
C1109 C1105 1.524 . S
C1109 H1121 0.956 1_565 S
C1109 H1122 0.962 . S
C1109 H1123 0.961 . S
C1110 C1107 1.539 . S
C1110 H1124 0.960 . S
C1110 H1125 0.961 . S
C1110 H1126 0.960 1_565 S
H1111 C1095 0.931 . S
H1112 C1100 0.929 . S
H1113 C1101 0.960 . S
H1114 C1101 0.962 . S
H1115 C1101 0.960 . S
H1116 C1102 0.961 . S
H1117 C1102 0.961 1_565 S
H1118 C1102 0.961 1_565 S
H1119 C1103 0.931 . S
H1120 C1108 0.930 . S
H1121 C1109 0.956 1_545 S
H1122 C1109 0.962 . S
H1123 C1109 0.961 . S
H1124 C1110 0.960 . S
H1125 C1110 0.961 . S
H1126 C1110 0.960 1_545 S
C1127 C1128 1.391 . S
C1127 C1129 1.394 . S
C1127 H1143 0.931 . S
C1128 C1127 1.391 . S
C1128 C1132 1.376 . S
C1129 C1127 1.394 . S
C1129 C1130 1.369 . S
C1129 C1133 1.531 . S
C1130 C1129 1.369 . S
C1130 C1131 1.410 . S
C1130 C1138 1.503 1_655 S
C1131 C1130 1.410 . S
C1131 C1132 1.392 . S
C1131 C1134 1.511 1_655 S
C1132 C1128 1.376 . S
C1132 C1131 1.392 . S
C1132 H1144 0.929 . S
C1133 C1129 1.531 . S
C1133 H1145 0.960 . S
C1133 H1146 0.962 . S
C1133 H1147 0.960 . S
C1134 C1131 1.511 1_455 S
C1134 H1148 0.961 . S
C1134 H1149 0.961 . S
C1134 H1150 0.961 . S
C1135 C1136 1.370 . S
C1135 C1137 1.363 . S
C1135 H1151 0.931 . S
C1136 C1135 1.370 . S
C1136 C1140 1.408 . S
C1137 C1135 1.363 . S
C1137 C1138 1.370 . S
C1137 C1141 1.524 . S
C1138 C1130 1.503 1_455 S
C1138 C1137 1.370 . S
C1138 C1139 1.403 . S
C1139 C1138 1.403 . S
C1139 C1140 1.404 . S
C1139 C1142 1.539 . S
C1140 C1136 1.408 . S
C1140 C1139 1.404 . S
C1140 H1152 0.930 . S
C1141 C1137 1.524 . S
C1141 H1153 0.956 1_455 S
C1141 H1154 0.961 . S
C1141 H1155 0.961 . S
C1142 C1139 1.539 . S
C1142 H1156 0.958 . S
C1142 H1157 0.961 . S
C1142 H1158 0.960 . S
H1143 C1127 0.931 . S
H1144 C1132 0.929 . S
H1145 C1133 0.960 . S
H1146 C1133 0.962 . S
H1147 C1133 0.960 . S
H1148 C1134 0.961 . S
H1149 C1134 0.961 . S
H1150 C1134 0.961 . S
H1151 C1135 0.931 . S
H1152 C1140 0.930 . S
H1153 C1141 0.956 1_655 S
H1154 C1141 0.961 . S
H1155 C1141 0.961 . S
H1156 C1142 0.958 . S
H1157 C1142 0.961 . S
H1158 C1142 0.960 . S
C1159 C1160 1.391 . S
C1159 C1161 1.394 . S
C1159 H1175 0.931 . S
C1160 C1159 1.391 . S
C1160 C1164 1.376 . S
C1161 C1159 1.394 . S
C1161 C1162 1.369 . S
C1161 C1165 1.531 . S
C1162 C1161 1.369 . S
C1162 C1163 1.410 . S
C1162 C1170 1.503 . S
C1163 C1162 1.410 . S
C1163 C1164 1.392 . S
C1163 C1166 1.511 . S
C1164 C1160 1.376 . S
C1164 C1163 1.392 . S
C1164 H1176 0.929 . S
C1165 C1161 1.531 . S
C1165 H1177 0.960 . S
C1165 H1178 0.962 . S
C1165 H1179 0.960 . S
C1166 C1163 1.511 . S
C1166 H1180 0.961 . S
C1166 H1181 0.961 . S
C1166 H1182 0.961 . S
C1167 C1168 1.370 . S
C1167 C1169 1.363 . S
C1167 H1183 0.931 . S
C1168 C1167 1.370 . S
C1168 C1172 1.408 . S
C1169 C1167 1.363 . S
C1169 C1170 1.370 . S
C1169 C1173 1.524 . S
C1170 C1162 1.503 . S
C1170 C1169 1.370 . S
C1170 C1171 1.403 . S
C1171 C1170 1.403 . S
C1171 C1172 1.404 . S
C1171 C1174 1.539 . S
C1172 C1168 1.408 . S
C1172 C1171 1.404 . S
C1172 H1184 0.930 . S
C1173 C1169 1.524 . S
C1173 H1185 0.956 . S
C1173 H1186 0.961 . S
C1173 H1187 0.961 . S
C1174 C1171 1.539 . S
C1174 H1188 0.958 . S
C1174 H1189 0.961 . S
C1174 H1190 0.960 . S
H1175 C1159 0.931 . S
H1176 C1164 0.929 . S
H1177 C1165 0.960 . S
H1178 C1165 0.962 . S
H1179 C1165 0.960 . S
H1180 C1166 0.961 . S
H1181 C1166 0.961 . S
H1182 C1166 0.961 . S
H1183 C1167 0.931 . S
H1184 C1172 0.930 . S
H1185 C1173 0.956 . S
H1186 C1173 0.961 . S
H1187 C1173 0.961 . S
H1188 C1174 0.958 . S
H1189 C1174 0.961 . S
H1190 C1174 0.960 . S
C1191 C1192 1.391 . S
C1191 C1193 1.394 . S
C1191 H1207 0.931 . S
C1192 C1191 1.391 . S
C1192 C1196 1.376 . S
C1193 C1191 1.394 . S
C1193 C1194 1.369 . S
C1193 C1197 1.531 . S
C1194 C1193 1.369 . S
C1194 C1195 1.410 . S
C1194 C1202 1.503 . S
C1195 C1194 1.410 . S
C1195 C1196 1.392 . S
C1195 C1198 1.511 . S
C1196 C1192 1.376 . S
C1196 C1195 1.392 . S
C1196 H1208 0.929 . S
C1197 C1193 1.531 . S
C1197 H1209 0.960 . S
C1197 H1210 0.962 . S
C1197 H1211 0.960 . S
C1198 C1195 1.511 . S
C1198 H1212 0.961 . S
C1198 H1213 0.961 . S
C1198 H1214 0.961 . S
C1199 C1200 1.370 . S
C1199 C1201 1.363 . S
C1199 H1215 0.931 . S
C1200 C1199 1.370 . S
C1200 C1204 1.408 . S
C1201 C1199 1.363 . S
C1201 C1202 1.370 . S
C1201 C1205 1.524 . S
C1202 C1194 1.503 . S
C1202 C1201 1.370 . S
C1202 C1203 1.403 . S
C1203 C1202 1.403 . S
C1203 C1204 1.404 . S
C1203 C1206 1.539 . S
C1204 C1200 1.408 . S
C1204 C1203 1.404 . S
C1204 H1216 0.930 . S
C1205 C1201 1.524 . S
C1205 H1217 0.956 . S
C1205 H1218 0.961 . S
C1205 H1219 0.961 . S
C1206 C1203 1.539 . S
C1206 H1220 0.958 . S
C1206 H1221 0.961 . S
C1206 H1222 0.960 . S
H1207 C1191 0.931 . S
H1208 C1196 0.929 . S
H1209 C1197 0.960 . S
H1210 C1197 0.962 . S
H1211 C1197 0.960 . S
H1212 C1198 0.961 . S
H1213 C1198 0.961 . S
H1214 C1198 0.961 . S
H1215 C1199 0.931 . S
H1216 C1204 0.930 . S
H1217 C1205 0.956 . S
H1218 C1205 0.961 . S
H1219 C1205 0.961 . S
H1220 C1206 0.958 . S
H1221 C1206 0.961 . S
H1222 C1206 0.960 . S
C1223 C1224 1.391 . S
C1223 C1225 1.394 . S
C1223 H1239 0.931 . S
C1224 C1223 1.391 . S
C1224 C1228 1.376 . S
C1225 C1223 1.394 . S
C1225 C1226 1.369 . S
C1225 C1229 1.531 . S
C1226 C1225 1.369 . S
C1226 C1227 1.410 . S
C1226 C1234 1.503 . S
C1227 C1226 1.410 . S
C1227 C1228 1.392 . S
C1227 C1230 1.511 . S
C1228 C1224 1.376 . S
C1228 C1227 1.392 . S
C1228 H1240 0.929 . S
C1229 C1225 1.531 . S
C1229 H1241 0.960 . S
C1229 H1242 0.962 . S
C1229 H1243 0.960 . S
C1230 C1227 1.511 . S
C1230 H1244 0.961 . S
C1230 H1245 0.961 . S
C1230 H1246 0.961 . S
C1231 C1232 1.370 . S
C1231 C1233 1.363 . S
C1231 H1247 0.931 . S
C1232 C1231 1.370 . S
C1232 C1236 1.408 . S
C1233 C1231 1.363 . S
C1233 C1234 1.370 . S
C1233 C1237 1.524 . S
C1234 C1226 1.503 . S
C1234 C1233 1.370 . S
C1234 C1235 1.403 . S
C1235 C1234 1.403 . S
C1235 C1236 1.404 . S
C1235 C1238 1.539 . S
C1236 C1232 1.408 . S
C1236 C1235 1.404 . S
C1236 H1248 0.930 . S
C1237 C1233 1.524 . S
C1237 H1249 0.956 . S
C1237 H1250 0.961 . S
C1237 H1251 0.961 . S
C1238 C1235 1.539 . S
C1238 H1252 0.958 . S
C1238 H1253 0.961 . S
C1238 H1254 0.960 . S
H1239 C1223 0.931 . S
H1240 C1228 0.929 . S
H1241 C1229 0.960 . S
H1242 C1229 0.962 . S
H1243 C1229 0.960 . S
H1244 C1230 0.961 . S
H1245 C1230 0.961 . S
H1246 C1230 0.961 . S
H1247 C1231 0.931 . S
H1248 C1236 0.930 . S
H1249 C1237 0.956 . S
H1250 C1237 0.961 . S
H1251 C1237 0.961 . S
H1252 C1238 0.958 . S
H1253 C1238 0.961 . S
H1254 C1238 0.960 . S
C1255 C1256 1.391 . S
C1255 C1257 1.394 . S
C1255 H1271 0.931 . S
C1256 C1255 1.391 . S
C1256 C1260 1.376 . S
C1257 C1255 1.394 . S
C1257 C1258 1.369 . S
C1257 C1261 1.531 . S
C1258 C1257 1.369 . S
C1258 C1259 1.410 . S
C1258 C1266 1.503 . S
C1259 C1258 1.410 . S
C1259 C1260 1.392 . S
C1259 C1262 1.511 . S
C1260 C1256 1.376 . S
C1260 C1259 1.392 . S
C1260 H1272 0.929 . S
C1261 C1257 1.531 . S
C1261 H1273 0.960 . S
C1261 H1274 0.962 . S
C1261 H1275 0.960 . S
C1262 C1259 1.511 . S
C1262 H1276 0.961 . S
C1262 H1277 0.961 . S
C1262 H1278 0.961 . S
C1263 C1264 1.370 . S
C1263 C1265 1.363 . S
C1263 H1279 0.931 . S
C1264 C1263 1.370 . S
C1264 C1268 1.408 . S
C1265 C1263 1.363 . S
C1265 C1266 1.370 . S
C1265 C1269 1.524 . S
C1266 C1258 1.503 . S
C1266 C1265 1.370 . S
C1266 C1267 1.403 . S
C1267 C1266 1.403 . S
C1267 C1268 1.404 . S
C1267 C1270 1.539 . S
C1268 C1264 1.408 . S
C1268 C1267 1.404 . S
C1268 H1280 0.930 . S
C1269 C1265 1.524 . S
C1269 H1281 0.956 . S
C1269 H1282 0.961 . S
C1269 H1283 0.961 . S
C1270 C1267 1.539 . S
C1270 H1284 0.958 . S
C1270 H1285 0.961 . S
C1270 H1286 0.960 . S
H1271 C1255 0.931 . S
H1272 C1260 0.929 . S
H1273 C1261 0.960 . S
H1274 C1261 0.962 . S
H1275 C1261 0.960 . S
H1276 C1262 0.961 . S
H1277 C1262 0.961 . S
H1278 C1262 0.961 . S
H1279 C1263 0.931 . S
H1280 C1268 0.930 . S
H1281 C1269 0.956 . S
H1282 C1269 0.961 . S
H1283 C1269 0.961 . S
H1284 C1270 0.958 . S
H1285 C1270 0.961 . S
H1286 C1270 0.960 . S
C1287 C1288 1.391 . S
C1287 C1289 1.394 . S
C1287 H1303 0.931 . S
C1288 C1287 1.391 . S
C1288 C1292 1.376 . S
C1289 C1287 1.394 . S
C1289 C1290 1.373 1_565 S
C1289 C1293 1.531 1_565 S
C1290 C1289 1.373 1_545 S
C1290 C1291 1.375 1_545 S
C1290 C1298 1.536 . S
C1291 C1290 1.375 1_565 S
C1291 C1292 1.392 . S
C1291 C1294 1.511 . S
C1292 C1288 1.376 . S
C1292 C1291 1.392 . S
C1292 H1304 0.929 . S
C1293 C1289 1.531 1_545 S
C1293 H1305 0.960 . S
C1293 H1306 0.962 . S
C1293 H1307 0.960 1_545 S
C1294 C1291 1.511 . S
C1294 H1308 0.961 . S
C1294 H1309 0.961 1_565 S
C1294 H1310 0.961 . S
C1295 C1296 1.370 . S
C1295 C1297 1.363 . S
C1295 H1311 0.931 . S
C1296 C1295 1.370 . S
C1296 C1300 1.408 . S
C1297 C1295 1.363 . S
C1297 C1298 1.370 . S
C1297 C1301 1.524 . S
C1298 C1290 1.536 . S
C1298 C1297 1.370 . S
C1298 C1299 1.403 . S
C1299 C1298 1.403 . S
C1299 C1300 1.404 . S
C1299 C1302 1.539 . S
C1300 C1296 1.408 . S
C1300 C1299 1.404 . S
C1300 H1312 0.930 . S
C1301 C1297 1.524 . S
C1301 H1313 0.956 . S
C1301 H1314 0.961 . S
C1301 H1315 0.961 . S
C1302 C1299 1.539 . S
C1302 H1316 0.958 . S
C1302 H1317 0.961 . S
C1302 H1318 0.960 . S
H1303 C1287 0.931 . S
H1304 C1292 0.929 . S
H1305 C1293 0.960 . S
H1306 C1293 0.962 . S
H1307 C1293 0.960 1_565 S
H1308 C1294 0.961 . S
H1309 C1294 0.961 1_545 S
H1310 C1294 0.961 . S
H1311 C1295 0.931 . S
H1312 C1300 0.930 . S
H1313 C1301 0.956 . S
H1314 C1301 0.961 . S
H1315 C1301 0.961 . S
H1316 C1302 0.958 . S
H1317 C1302 0.961 . S
H1318 C1302 0.960 . S
C1319 C1320 1.391 . S
C1319 C1321 1.394 . S
C1319 H1335 0.931 . S
C1320 C1319 1.391 . S
C1320 C1324 1.376 . S
C1321 C1319 1.394 . S
C1321 C1322 1.360 1_455 S
C1321 C1325 1.531 1_455 S
C1322 C1321 1.360 1_655 S
C1322 C1323 1.406 1_655 S
C1322 C1330 1.516 . S
C1323 C1322 1.406 1_455 S
C1323 C1324 1.392 . S
C1323 C1326 1.511 . S
C1324 C1320 1.376 . S
C1324 C1323 1.392 . S
C1324 H1336 0.929 . S
C1325 C1321 1.531 1_655 S
C1325 H1337 0.960 . S
C1325 H1338 0.962 . S
C1325 H1339 0.960 . S
C1326 C1323 1.511 . S
C1326 H1340 0.961 . S
C1326 H1341 0.961 1_455 S
C1326 H1342 0.961 . S
C1327 C1328 1.370 . S
C1327 C1329 1.363 . S
C1327 H1343 0.931 . S
C1328 C1327 1.370 . S
C1328 C1332 1.408 . S
C1329 C1327 1.363 . S
C1329 C1330 1.370 . S
C1329 C1333 1.524 . S
C1330 C1322 1.516 . S
C1330 C1329 1.370 . S
C1330 C1331 1.403 . S
C1331 C1330 1.403 . S
C1331 C1332 1.404 . S
C1331 C1334 1.539 . S
C1332 C1328 1.408 . S
C1332 C1331 1.404 . S
C1332 H1344 0.930 . S
C1333 C1329 1.524 . S
C1333 H1345 0.956 . S
C1333 H1346 0.961 . S
C1333 H1347 0.961 . S
C1334 C1331 1.539 . S
C1334 H1348 0.958 . S
C1334 H1349 0.961 . S
C1334 H1350 0.960 . S
H1335 C1319 0.931 . S
H1336 C1324 0.929 . S
H1337 C1325 0.960 . S
H1338 C1325 0.962 . S
H1339 C1325 0.960 . S
H1340 C1326 0.961 . S
H1341 C1326 0.961 1_655 S
H1342 C1326 0.961 . S
H1343 C1327 0.931 . S
H1344 C1332 0.930 . S
H1345 C1333 0.956 . S
H1346 C1333 0.961 . S
H1347 C1333 0.961 . S
H1348 C1334 0.958 . S
H1349 C1334 0.961 . S
H1350 C1334 0.960 . S
C1351 C1352 1.391 . S
C1351 C1353 1.394 . S
C1351 H1367 0.931 . S
C1352 C1351 1.391 . S
C1352 C1356 1.376 . S
C1353 C1351 1.394 . S
C1353 C1354 1.369 . S
C1353 C1357 1.531 . S
C1354 C1353 1.369 . S
C1354 C1355 1.410 . S
C1354 C1362 1.503 . S
C1355 C1354 1.410 . S
C1355 C1356 1.392 . S
C1355 C1358 1.511 . S
C1356 C1352 1.376 . S
C1356 C1355 1.392 . S
C1356 H1368 0.929 . S
C1357 C1353 1.531 . S
C1357 H1369 0.960 . S
C1357 H1370 0.962 . S
C1357 H1371 0.960 . S
C1358 C1355 1.511 . S
C1358 H1372 0.961 . S
C1358 H1373 0.961 . S
C1358 H1374 0.961 . S
C1359 C1360 1.370 . S
C1359 C1361 1.363 . S
C1359 H1375 0.931 . S
C1360 C1359 1.370 . S
C1360 C1364 1.408 . S
C1361 C1359 1.363 . S
C1361 C1362 1.370 . S
C1361 C1365 1.524 . S
C1362 C1354 1.503 . S
C1362 C1361 1.370 . S
C1362 C1363 1.403 . S
C1363 C1362 1.403 . S
C1363 C1364 1.404 . S
C1363 C1366 1.539 . S
C1364 C1360 1.408 . S
C1364 C1363 1.404 . S
C1364 H1376 0.930 . S
C1365 C1361 1.524 . S
C1365 H1377 0.956 . S
C1365 H1378 0.961 . S
C1365 H1379 0.961 . S
C1366 C1363 1.539 . S
C1366 H1380 0.958 . S
C1366 H1381 0.961 . S
C1366 H1382 0.960 . S
H1367 C1351 0.931 . S
H1368 C1356 0.929 . S
H1369 C1357 0.960 . S
H1370 C1357 0.962 . S
H1371 C1357 0.960 . S
H1372 C1358 0.961 . S
H1373 C1358 0.961 . S
H1374 C1358 0.961 . S
H1375 C1359 0.931 . S
H1376 C1364 0.930 . S
H1377 C1365 0.956 . S
H1378 C1365 0.961 . S
H1379 C1365 0.961 . S
H1380 C1366 0.958 . S
H1381 C1366 0.961 . S
H1382 C1366 0.960 . S
C1383 C1384 1.391 . S
C1383 C1385 1.394 . S
C1383 H1399 0.931 . S
C1384 C1383 1.391 . S
C1384 C1388 1.376 . S
C1385 C1383 1.394 . S
C1385 C1386 1.369 . S
C1385 C1389 1.531 . S
C1386 C1385 1.369 . S
C1386 C1387 1.410 . S
C1386 C1394 1.503 . S
C1387 C1386 1.410 . S
C1387 C1388 1.392 . S
C1387 C1390 1.511 . S
C1388 C1384 1.376 . S
C1388 C1387 1.392 . S
C1388 H1400 0.929 . S
C1389 C1385 1.531 . S
C1389 H1401 0.960 . S
C1389 H1402 0.962 . S
C1389 H1403 0.960 . S
C1390 C1387 1.511 . S
C1390 H1404 0.961 . S
C1390 H1405 0.961 . S
C1390 H1406 0.961 . S
C1391 C1392 1.370 . S
C1391 C1393 1.363 . S
C1391 H1407 0.931 . S
C1392 C1391 1.370 . S
C1392 C1396 1.408 . S
C1393 C1391 1.363 . S
C1393 C1394 1.370 1_655 S
C1393 C1397 1.524 1_655 S
C1394 C1386 1.503 . S
C1394 C1393 1.370 1_455 S
C1394 C1395 1.403 1_455 S
C1395 C1394 1.403 1_655 S
C1395 C1396 1.404 . S
C1395 C1398 1.539 . S
C1396 C1392 1.408 . S
C1396 C1395 1.404 . S
C1396 H1408 0.930 . S
C1397 C1393 1.524 1_455 S
C1397 H1409 0.956 . S
C1397 H1410 0.961 . S
C1397 H1411 0.961 . S
C1398 C1395 1.539 . S
C1398 H1412 0.958 . S
C1398 H1413 0.961 . S
C1398 H1414 0.960 1_655 S
H1399 C1383 0.931 . S
H1400 C1388 0.929 . S
H1401 C1389 0.960 . S
H1402 C1389 0.962 . S
H1403 C1389 0.960 . S
H1404 C1390 0.961 . S
H1405 C1390 0.961 . S
H1406 C1390 0.961 . S
H1407 C1391 0.931 . S
H1408 C1396 0.930 . S
H1409 C1397 0.956 . S
H1410 C1397 0.961 . S
H1411 C1397 0.961 . S
H1412 C1398 0.958 . S
H1413 C1398 0.961 . S
H1414 C1398 0.960 1_455 S
C1415 C1416 1.391 . S
C1415 C1417 1.394 . S
C1415 H1431 0.931 . S
C1416 C1415 1.391 . S
C1416 C1420 1.376 . S
C1417 C1415 1.394 . S
C1417 C1418 1.369 . S
C1417 C1421 1.531 . S
C1418 C1417 1.369 . S
C1418 C1419 1.410 . S
C1418 C1426 1.503 . S
C1419 C1418 1.410 . S
C1419 C1420 1.392 . S
C1419 C1422 1.511 . S
C1420 C1416 1.376 . S
C1420 C1419 1.392 . S
C1420 H1432 0.929 . S
C1421 C1417 1.531 . S
C1421 H1433 0.960 . S
C1421 H1434 0.962 . S
C1421 H1435 0.960 . S
C1422 C1419 1.511 . S
C1422 H1436 0.961 . S
C1422 H1437 0.961 . S
C1422 H1438 0.961 . S
C1423 C1424 1.370 . S
C1423 C1425 1.363 . S
C1423 H1439 0.931 . S
C1424 C1423 1.370 . S
C1424 C1428 1.408 . S
C1425 C1423 1.363 . S
C1425 C1426 1.370 . S
C1425 C1429 1.524 . S
C1426 C1418 1.503 . S
C1426 C1425 1.370 . S
C1426 C1427 1.403 . S
C1427 C1426 1.403 . S
C1427 C1428 1.404 . S
C1427 C1430 1.539 . S
C1428 C1424 1.408 . S
C1428 C1427 1.404 . S
C1428 H1440 0.930 . S
C1429 C1425 1.524 . S
C1429 H1441 0.956 . S
C1429 H1442 0.961 . S
C1429 H1443 0.961 . S
C1430 C1427 1.539 . S
C1430 H1444 0.958 . S
C1430 H1445 0.961 . S
C1430 H1446 0.960 . S
H1431 C1415 0.931 . S
H1432 C1420 0.929 . S
H1433 C1421 0.960 . S
H1434 C1421 0.962 . S
H1435 C1421 0.960 . S
H1436 C1422 0.961 . S
H1437 C1422 0.961 . S
H1438 C1422 0.961 . S
H1439 C1423 0.931 . S
H1440 C1428 0.930 . S
H1441 C1429 0.956 . S
H1442 C1429 0.961 . S
H1443 C1429 0.961 . S
H1444 C1430 0.958 . S
H1445 C1430 0.961 . S
H1446 C1430 0.960 . S
C1447 C1448 1.391 . S
C1447 C1449 1.394 . S
C1447 H1463 0.931 . S
C1448 C1447 1.391 . S
C1448 C1452 1.376 . S
C1449 C1447 1.394 . S
C1449 C1450 1.369 . S
C1449 C1453 1.531 1_565 S
C1450 C1449 1.369 . S
C1450 C1451 1.410 . S
C1450 C1458 1.503 1_565 S
C1451 C1450 1.410 . S
C1451 C1452 1.392 . S
C1451 C1454 1.511 . S
C1452 C1448 1.376 . S
C1452 C1451 1.392 . S
C1452 H1464 0.929 . S
C1453 C1449 1.531 1_545 S
C1453 H1465 0.960 . S
C1453 H1466 0.962 . S
C1453 H1467 0.960 . S
C1454 C1451 1.511 . S
C1454 H1468 0.961 . S
C1454 H1469 0.961 . S
C1454 H1470 0.961 . S
C1455 C1456 1.370 . S
C1455 C1457 1.363 . S
C1455 H1471 0.931 . S
C1456 C1455 1.370 . S
C1456 C1460 1.408 . S
C1457 C1455 1.363 . S
C1457 C1458 1.370 . S
C1457 C1461 1.524 . S
C1458 C1450 1.503 1_545 S
C1458 C1457 1.370 . S
C1458 C1459 1.403 . S
C1459 C1458 1.403 . S
C1459 C1460 1.404 . S
C1459 C1462 1.539 . S
C1460 C1456 1.408 . S
C1460 C1459 1.404 . S
C1460 H1472 0.930 . S
C1461 C1457 1.524 . S
C1461 H1473 0.956 . S
C1461 H1474 0.961 1_545 S
C1461 H1475 0.961 . S
C1462 C1459 1.539 . S
C1462 H1476 0.958 . S
C1462 H1477 0.961 . S
C1462 H1478 0.960 . S
H1463 C1447 0.931 . S
H1464 C1452 0.929 . S
H1465 C1453 0.960 . S
H1466 C1453 0.962 . S
H1467 C1453 0.960 . S
H1468 C1454 0.961 . S
H1469 C1454 0.961 . S
H1470 C1454 0.961 . S
H1471 C1455 0.931 . S
H1472 C1460 0.930 . S
H1473 C1461 0.956 . S
H1474 C1461 0.961 1_565 S
H1475 C1461 0.961 . S
H1476 C1462 0.958 . S
H1477 C1462 0.961 . S
H1478 C1462 0.960 . S
C1479 C1480 1.391 . S
C1479 C1481 1.394 . S
C1479 H1495 0.931 . S
C1480 C1479 1.391 . S
C1480 C1484 1.376 . S
C1481 C1479 1.394 . S
C1481 C1482 1.369 . S
C1481 C1485 1.531 . S
C1482 C1481 1.369 . S
C1482 C1483 1.410 . S
C1482 C1490 1.503 . S
C1483 C1482 1.410 . S
C1483 C1484 1.392 . S
C1483 C1486 1.511 . S
C1484 C1480 1.376 . S
C1484 C1483 1.392 . S
C1484 H1496 0.929 . S
C1485 C1481 1.531 . S
C1485 H1497 0.960 . S
C1485 H1498 0.962 . S
C1485 H1499 0.960 . S
C1486 C1483 1.511 . S
C1486 H1500 0.961 . S
C1486 H1501 0.961 . S
C1486 H1502 0.961 . S
C1487 C1488 1.370 . S
C1487 C1489 1.363 . S
C1487 H1503 0.931 . S
C1488 C1487 1.370 . S
C1488 C1492 1.408 . S
C1489 C1487 1.363 . S
C1489 C1490 1.370 . S
C1489 C1493 1.524 . S
C1490 C1482 1.503 . S
C1490 C1489 1.370 . S
C1490 C1491 1.403 . S
C1491 C1490 1.403 . S
C1491 C1492 1.404 . S
C1491 C1494 1.539 . S
C1492 C1488 1.408 . S
C1492 C1491 1.404 . S
C1492 H1504 0.930 . S
C1493 C1489 1.524 . S
C1493 H1505 0.956 . S
C1493 H1506 0.961 . S
C1493 H1507 0.961 . S
C1494 C1491 1.539 . S
C1494 H1508 0.958 . S
C1494 H1509 0.961 . S
C1494 H1510 0.960 . S
H1495 C1479 0.931 . S
H1496 C1484 0.929 . S
H1497 C1485 0.960 . S
H1498 C1485 0.962 . S
H1499 C1485 0.960 . S
H1500 C1486 0.961 . S
H1501 C1486 0.961 . S
H1502 C1486 0.961 . S
H1503 C1487 0.931 . S
H1504 C1492 0.930 . S
H1505 C1493 0.956 . S
H1506 C1493 0.961 . S
H1507 C1493 0.961 . S
H1508 C1494 0.958 . S
H1509 C1494 0.961 . S
H1510 C1494 0.960 . S
C1511 C1512 1.391 . S
C1511 C1513 1.394 . S
C1511 H1527 0.931 . S
C1512 C1511 1.391 . S
C1512 C1516 1.376 . S
C1513 C1511 1.394 . S
C1513 C1514 1.369 . S
C1513 C1517 1.531 . S
C1514 C1513 1.369 . S
C1514 C1515 1.410 . S
C1514 C1522 1.503 . S
C1515 C1514 1.410 . S
C1515 C1516 1.392 . S
C1515 C1518 1.511 . S
C1516 C1512 1.376 . S
C1516 C1515 1.392 . S
C1516 H1528 0.929 . S
C1517 C1513 1.531 . S
C1517 H1529 0.960 . S
C1517 H1530 0.962 . S
C1517 H1531 0.960 . S
C1518 C1515 1.511 . S
C1518 H1532 0.961 . S
C1518 H1533 0.961 . S
C1518 H1534 0.961 . S
C1519 C1520 1.370 . S
C1519 C1521 1.363 . S
C1519 H1535 0.931 . S
C1520 C1519 1.370 . S
C1520 C1524 1.408 . S
C1521 C1519 1.363 . S
C1521 C1522 1.370 . S
C1521 C1525 1.524 . S
C1522 C1514 1.503 . S
C1522 C1521 1.370 . S
C1522 C1523 1.403 . S
C1523 C1522 1.403 . S
C1523 C1524 1.404 . S
C1523 C1526 1.539 . S
C1524 C1520 1.408 . S
C1524 C1523 1.404 . S
C1524 H1536 0.930 . S
C1525 C1521 1.524 . S
C1525 H1537 0.956 . S
C1525 H1538 0.961 . S
C1525 H1539 0.961 . S
C1526 C1523 1.539 . S
C1526 H1540 0.958 . S
C1526 H1541 0.961 . S
C1526 H1542 0.960 . S
H1527 C1511 0.931 . S
H1528 C1516 0.929 . S
H1529 C1517 0.960 . S
H1530 C1517 0.962 . S
H1531 C1517 0.960 . S
H1532 C1518 0.961 . S
H1533 C1518 0.961 . S
H1534 C1518 0.961 . S
H1535 C1519 0.931 . S
H1536 C1524 0.930 . S
H1537 C1525 0.956 . S
H1538 C1525 0.961 . S
H1539 C1525 0.961 . S
H1540 C1526 0.958 . S
H1541 C1526 0.961 . S
H1542 C1526 0.960 . S
C1543 C1544 1.391 . S
C1543 C1545 1.394 . S
C1543 H1559 0.931 . S
C1544 C1543 1.391 . S
C1544 C1548 1.376 . S
C1545 C1543 1.394 . S
C1545 C1546 1.369 . S
C1545 C1549 1.531 . S
C1546 C1545 1.369 . S
C1546 C1547 1.410 . S
C1546 C1554 1.503 . S
C1547 C1546 1.410 . S
C1547 C1548 1.392 . S
C1547 C1550 1.511 . S
C1548 C1544 1.376 . S
C1548 C1547 1.392 . S
C1548 H1560 0.929 . S
C1549 C1545 1.531 . S
C1549 H1561 0.960 . S
C1549 H1562 0.962 . S
C1549 H1563 0.960 . S
C1550 C1547 1.511 . S
C1550 H1564 0.961 . S
C1550 H1565 0.961 . S
C1550 H1566 0.961 . S
C1551 C1552 1.370 . S
C1551 C1553 1.363 . S
C1551 H1567 0.931 . S
C1552 C1551 1.370 . S
C1552 C1556 1.408 . S
C1553 C1551 1.363 . S
C1553 C1554 1.370 . S
C1553 C1557 1.524 . S
C1554 C1546 1.503 . S
C1554 C1553 1.370 . S
C1554 C1555 1.403 . S
C1555 C1554 1.403 . S
C1555 C1556 1.404 . S
C1555 C1558 1.539 . S
C1556 C1552 1.408 . S
C1556 C1555 1.404 . S
C1556 H1568 0.930 . S
C1557 C1553 1.524 . S
C1557 H1569 0.956 . S
C1557 H1570 0.961 . S
C1557 H1571 0.961 . S
C1558 C1555 1.539 . S
C1558 H1572 0.958 . S
C1558 H1573 0.961 . S
C1558 H1574 0.960 . S
H1559 C1543 0.931 . S
H1560 C1548 0.929 . S
H1561 C1549 0.960 . S
H1562 C1549 0.962 . S
H1563 C1549 0.960 . S
H1564 C1550 0.961 . S
H1565 C1550 0.961 . S
H1566 C1550 0.961 . S
H1567 C1551 0.931 . S
H1568 C1556 0.930 . S
H1569 C1557 0.956 . S
H1570 C1557 0.961 . S
H1571 C1557 0.961 . S
H1572 C1558 0.958 . S
H1573 C1558 0.961 . S
H1574 C1558 0.960 . S
C1575 C1576 1.391 . S
C1575 C1577 1.394 . S
C1575 H1591 0.931 . S
C1576 C1575 1.391 . S
C1576 C1580 1.376 . S
C1577 C1575 1.394 . S
C1577 C1578 1.369 . S
C1577 C1581 1.531 . S
C1578 C1577 1.369 . S
C1578 C1579 1.410 . S
C1578 C1586 1.503 . S
C1579 C1578 1.410 . S
C1579 C1580 1.392 . S
C1579 C1582 1.511 . S
C1580 C1576 1.376 . S
C1580 C1579 1.392 . S
C1580 H1592 0.929 . S
C1581 C1577 1.531 . S
C1581 H1593 0.960 . S
C1581 H1594 0.962 . S
C1581 H1595 0.960 . S
C1582 C1579 1.511 . S
C1582 H1596 0.961 . S
C1582 H1597 0.961 . S
C1582 H1598 0.958 1_565 S
C1583 C1584 1.370 . S
C1583 C1585 1.363 . S
C1583 H1599 0.931 . S
C1584 C1583 1.370 . S
C1584 C1588 1.408 . S
C1585 C1583 1.363 . S
C1585 C1586 1.370 . S
C1585 C1589 1.524 . S
C1586 C1578 1.503 . S
C1586 C1585 1.370 . S
C1586 C1587 1.403 . S
C1587 C1586 1.403 . S
C1587 C1588 1.404 . S
C1587 C1590 1.539 . S
C1588 C1584 1.408 . S
C1588 C1587 1.404 . S
C1588 H1600 0.930 . S
C1589 C1585 1.524 . S
C1589 H1601 0.956 . S
C1589 H1602 0.961 . S
C1589 H1603 0.961 . S
C1590 C1587 1.539 . S
C1590 H1604 0.958 . S
C1590 H1605 0.961 . S
C1590 H1606 0.960 . S
H1591 C1575 0.931 . S
H1592 C1580 0.929 . S
H1593 C1581 0.960 . S
H1594 C1581 0.962 . S
H1595 C1581 0.960 . S
H1596 C1582 0.961 . S
H1597 C1582 0.961 . S
H1598 C1582 0.958 1_545 S
H1599 C1583 0.931 . S
H1600 C1588 0.930 . S
H1601 C1589 0.956 . S
H1602 C1589 0.961 . S
H1603 C1589 0.961 . S
H1604 C1590 0.958 . S
H1605 C1590 0.961 . S
H1606 C1590 0.960 . S
C1607 C1608 1.391 . S
C1607 C1609 1.394 . S
C1607 H1623 0.931 . S
C1608 C1607 1.391 . S
C1608 C1612 1.376 . S
C1609 C1607 1.394 . S
C1609 C1610 1.369 . S
C1609 C1613 1.531 . S
C1610 C1609 1.369 . S
C1610 C1611 1.410 . S
C1610 C1618 1.503 . S
C1611 C1610 1.410 . S
C1611 C1612 1.392 . S
C1611 C1614 1.511 . S
C1612 C1608 1.376 . S
C1612 C1611 1.392 . S
C1612 H1624 0.929 . S
C1613 C1609 1.531 . S
C1613 H1625 0.960 . S
C1613 H1626 0.962 . S
C1613 H1627 0.960 . S
C1614 C1611 1.511 . S
C1614 H1628 0.961 . S
C1614 H1629 0.961 . S
C1614 H1630 0.961 . S
C1615 C1616 1.370 . S
C1615 C1617 1.363 . S
C1615 H1631 0.931 1_455 S
C1616 C1615 1.370 . S
C1616 C1620 1.408 . S
C1617 C1615 1.363 . S
C1617 C1618 1.370 . S
C1617 C1621 1.524 1_455 S
C1618 C1610 1.503 . S
C1618 C1617 1.370 . S
C1618 C1619 1.403 . S
C1619 C1618 1.403 . S
C1619 C1620 1.404 . S
C1619 C1622 1.539 . S
C1620 C1616 1.408 . S
C1620 C1619 1.404 . S
C1620 H1632 0.930 . S
C1621 C1617 1.524 1_655 S
C1621 H1633 0.956 . S
C1621 H1634 0.961 . S
C1621 H1635 0.961 . S
C1622 C1619 1.539 . S
C1622 H1636 0.958 . S
C1622 H1637 0.961 . S
C1622 H1638 0.960 . S
H1623 C1607 0.931 . S
H1624 C1612 0.929 . S
H1625 C1613 0.960 . S
H1626 C1613 0.962 . S
H1627 C1613 0.960 . S
H1628 C1614 0.961 . S
H1629 C1614 0.961 . S
H1630 C1614 0.961 . S
H1631 C1615 0.931 1_655 S
H1632 C1620 0.930 . S
H1633 C1621 0.956 . S
H1634 C1621 0.961 . S
H1635 C1621 0.961 . S
H1636 C1622 0.958 . S
H1637 C1622 0.961 . S
H1638 C1622 0.960 . S
C1639 C1640 1.391 . S
C1639 C1641 1.394 . S
C1639 H1655 0.931 . S
C1640 C1639 1.391 . S
C1640 C1644 1.376 . S
C1641 C1639 1.394 . S
C1641 C1642 1.369 . S
C1641 C1645 1.531 . S
C1642 C1641 1.369 . S
C1642 C1643 1.410 . S
C1642 C1650 1.503 . S
C1643 C1642 1.410 . S
C1643 C1644 1.392 . S
C1643 C1646 1.511 . S
C1644 C1640 1.376 . S
C1644 C1643 1.392 . S
C1644 H1656 0.929 . S
C1645 C1641 1.531 . S
C1645 H1657 0.960 . S
C1645 H1658 0.962 . S
C1645 H1659 0.960 . S
C1646 C1643 1.511 . S
C1646 H1660 0.961 . S
C1646 H1661 0.961 . S
C1646 H1662 0.961 . S
C1647 C1648 1.370 . S
C1647 C1649 1.363 . S
C1647 H1663 0.931 . S
C1648 C1647 1.370 . S
C1648 C1652 1.408 . S
C1649 C1647 1.363 . S
C1649 C1650 1.370 . S
C1649 C1653 1.524 . S
C1650 C1642 1.503 . S
C1650 C1649 1.370 . S
C1650 C1651 1.403 . S
C1651 C1650 1.403 . S
C1651 C1652 1.404 . S
C1651 C1654 1.539 . S
C1652 C1648 1.408 . S
C1652 C1651 1.404 . S
C1652 H1664 0.930 . S
C1653 C1649 1.524 . S
C1653 H1665 0.956 . S
C1653 H1666 0.961 . S
C1653 H1667 0.961 . S
C1654 C1651 1.539 . S
C1654 H1668 0.958 . S
C1654 H1669 0.961 . S
C1654 H1670 0.960 . S
H1655 C1639 0.931 . S
H1656 C1644 0.929 . S
H1657 C1645 0.960 . S
H1658 C1645 0.962 . S
H1659 C1645 0.960 . S
H1660 C1646 0.961 . S
H1661 C1646 0.961 . S
H1662 C1646 0.961 . S
H1663 C1647 0.931 . S
H1664 C1652 0.930 . S
H1665 C1653 0.956 . S
H1666 C1653 0.961 . S
H1667 C1653 0.961 . S
H1668 C1654 0.958 . S
H1669 C1654 0.961 . S
H1670 C1654 0.960 . S
C1671 C1672 1.391 . S
C1671 C1673 1.394 . S
C1671 H1687 0.931 . S
C1672 C1671 1.391 . S
C1672 C1676 1.376 . S
C1673 C1671 1.394 . S
C1673 C1674 1.369 . S
C1673 C1677 1.531 1_655 S
C1674 C1673 1.369 . S
C1674 C1675 1.410 . S
C1674 C1682 1.503 . S
C1675 C1674 1.410 . S
C1675 C1676 1.392 . S
C1675 C1678 1.511 . S
C1676 C1672 1.376 . S
C1676 C1675 1.392 . S
C1676 H1688 0.929 . S
C1677 C1673 1.531 1_455 S
C1677 H1689 0.960 . S
C1677 H1690 0.962 . S
C1677 H1691 0.960 . S
C1678 C1675 1.511 . S
C1678 H1692 0.961 . S
C1678 H1693 0.961 . S
C1678 H1694 0.961 . S
C1679 C1680 1.370 . S
C1679 C1681 1.363 . S
C1679 H1695 0.931 . S
C1680 C1679 1.370 . S
C1680 C1684 1.408 . S
C1681 C1679 1.363 . S
C1681 C1682 1.370 . S
C1681 C1685 1.524 . S
C1682 C1674 1.503 . S
C1682 C1681 1.370 . S
C1682 C1683 1.403 . S
C1683 C1682 1.403 . S
C1683 C1684 1.404 . S
C1683 C1686 1.539 . S
C1684 C1680 1.408 . S
C1684 C1683 1.404 . S
C1684 H1696 0.930 1_655 S
C1685 C1681 1.524 . S
C1685 H1697 0.956 . S
C1685 H1698 0.961 . S
C1685 H1699 0.961 . S
C1686 C1683 1.539 . S
C1686 H1700 0.958 1_655 S
C1686 H1701 0.961 . S
C1686 H1702 0.960 . S
H1687 C1671 0.931 . S
H1688 C1676 0.929 . S
H1689 C1677 0.960 . S
H1690 C1677 0.962 . S
H1691 C1677 0.960 . S
H1692 C1678 0.961 . S
H1693 C1678 0.961 . S
H1694 C1678 0.961 . S
H1695 C1679 0.931 . S
H1696 C1684 0.930 1_455 S
H1697 C1685 0.956 . S
H1698 C1685 0.961 . S
H1699 C1685 0.961 . S
H1700 C1686 0.958 1_455 S
H1701 C1686 0.961 . S
H1702 C1686 0.960 . S
C1703 C1704 1.391 . S
C1703 C1705 1.394 . S
C1703 H1719 0.931 . S
C1704 C1703 1.391 . S
C1704 C1708 1.376 . S
C1705 C1703 1.394 . S
C1705 C1706 1.369 . S
C1705 C1709 1.531 . S
C1706 C1705 1.369 . S
C1706 C1707 1.410 . S
C1706 C1714 1.503 . S
C1707 C1706 1.410 . S
C1707 C1708 1.392 . S
C1707 C1710 1.511 . S
C1708 C1704 1.376 . S
C1708 C1707 1.392 . S
C1708 H1720 0.929 . S
C1709 C1705 1.531 . S
C1709 H1721 0.960 . S
C1709 H1722 0.962 . S
C1709 H1723 0.960 . S
C1710 C1707 1.511 . S
C1710 H1724 0.961 . S
C1710 H1725 0.961 . S
C1710 H1726 0.961 . S
C1711 C1712 1.370 . S
C1711 C1713 1.363 . S
C1711 H1727 0.931 . S
C1712 C1711 1.370 . S
C1712 C1716 1.408 . S
C1713 C1711 1.363 . S
C1713 C1714 1.370 . S
C1713 C1717 1.524 . S
C1714 C1706 1.503 . S
C1714 C1713 1.370 . S
C1714 C1715 1.403 . S
C1715 C1714 1.403 . S
C1715 C1716 1.404 . S
C1715 C1718 1.539 . S
C1716 C1712 1.408 . S
C1716 C1715 1.404 . S
C1716 H1728 0.930 . S
C1717 C1713 1.524 . S
C1717 H1729 0.956 . S
C1717 H1730 0.961 . S
C1717 H1731 0.961 . S
C1718 C1715 1.539 . S
C1718 H1732 0.958 . S
C1718 H1733 0.961 . S
C1718 H1734 0.960 . S
H1719 C1703 0.931 . S
H1720 C1708 0.929 . S
H1721 C1709 0.960 . S
H1722 C1709 0.962 . S
H1723 C1709 0.960 . S
H1724 C1710 0.961 . S
H1725 C1710 0.961 . S
H1726 C1710 0.961 . S
H1727 C1711 0.931 . S
H1728 C1716 0.930 . S
H1729 C1717 0.956 . S
H1730 C1717 0.961 . S
H1731 C1717 0.961 . S
H1732 C1718 0.958 . S
H1733 C1718 0.961 . S
H1734 C1718 0.960 . S
C1735 C1736 1.391 . S
C1735 C1737 1.394 . S
C1735 H1751 0.931 . S
C1736 C1735 1.391 . S
C1736 C1740 1.376 . S
C1737 C1735 1.394 . S
C1737 C1738 1.369 . S
C1737 C1741 1.531 . S
C1738 C1737 1.369 . S
C1738 C1739 1.410 . S
C1738 C1746 1.503 . S
C1739 C1738 1.410 . S
C1739 C1740 1.392 . S
C1739 C1742 1.511 . S
C1740 C1736 1.376 . S
C1740 C1739 1.392 . S
C1740 H1752 0.929 . S
C1741 C1737 1.531 . S
C1741 H1753 0.960 . S
C1741 H1754 0.962 . S
C1741 H1755 0.960 . S
C1742 C1739 1.511 . S
C1742 H1756 0.961 . S
C1742 H1757 0.961 . S
C1742 H1758 0.961 . S
C1743 C1744 1.370 . S
C1743 C1745 1.363 . S
C1743 H1759 0.931 . S
C1744 C1743 1.370 . S
C1744 C1748 1.408 . S
C1745 C1743 1.363 . S
C1745 C1746 1.370 . S
C1745 C1749 1.524 . S
C1746 C1738 1.503 . S
C1746 C1745 1.370 . S
C1746 C1747 1.403 . S
C1747 C1746 1.403 . S
C1747 C1748 1.404 . S
C1747 C1750 1.539 . S
C1748 C1744 1.408 . S
C1748 C1747 1.404 . S
C1748 H1760 0.930 . S
C1749 C1745 1.524 . S
C1749 H1761 0.956 . S
C1749 H1762 0.961 . S
C1749 H1763 0.961 . S
C1750 C1747 1.539 . S
C1750 H1764 0.958 . S
C1750 H1765 0.961 . S
C1750 H1766 0.960 . S
H1751 C1735 0.931 . S
H1752 C1740 0.929 . S
H1753 C1741 0.960 . S
H1754 C1741 0.962 . S
H1755 C1741 0.960 . S
H1756 C1742 0.961 . S
H1757 C1742 0.961 . S
H1758 C1742 0.961 . S
H1759 C1743 0.931 . S
H1760 C1748 0.930 . S
H1761 C1749 0.956 . S
H1762 C1749 0.961 . S
H1763 C1749 0.961 . S
H1764 C1750 0.958 . S
H1765 C1750 0.961 . S
H1766 C1750 0.960 . S
C1767 C1768 1.391 . S
C1767 C1769 1.394 . S
C1767 H1783 0.931 . S
C1768 C1767 1.391 . S
C1768 C1772 1.376 . S
C1769 C1767 1.394 . S
C1769 C1770 1.369 . S
C1769 C1773 1.531 . S
C1770 C1769 1.369 . S
C1770 C1771 1.410 . S
C1770 C1778 1.503 . S
C1771 C1770 1.410 . S
C1771 C1772 1.392 . S
C1771 C1774 1.511 . S
C1772 C1768 1.376 . S
C1772 C1771 1.392 . S
C1772 H1784 0.929 . S
C1773 C1769 1.531 . S
C1773 H1785 0.960 . S
C1773 H1786 0.962 . S
C1773 H1787 0.960 . S
C1774 C1771 1.511 . S
C1774 H1788 0.961 . S
C1774 H1789 0.961 . S
C1774 H1790 0.961 . S
C1775 C1776 1.370 . S
C1775 C1777 1.363 . S
C1775 H1791 0.931 . S
C1776 C1775 1.370 . S
C1776 C1780 1.408 . S
C1777 C1775 1.363 . S
C1777 C1778 1.370 . S
C1777 C1781 1.524 . S
C1778 C1770 1.503 . S
C1778 C1777 1.370 . S
C1778 C1779 1.403 . S
C1779 C1778 1.403 . S
C1779 C1780 1.404 . S
C1779 C1782 1.539 . S
C1780 C1776 1.408 . S
C1780 C1779 1.404 . S
C1780 H1792 0.930 . S
C1781 C1777 1.524 . S
C1781 H1793 0.956 . S
C1781 H1794 0.961 . S
C1781 H1795 0.961 . S
C1782 C1779 1.539 . S
C1782 H1796 0.958 . S
C1782 H1797 0.961 . S
C1782 H1798 0.960 . S
H1783 C1767 0.931 . S
H1784 C1772 0.929 . S
H1785 C1773 0.960 . S
H1786 C1773 0.962 . S
H1787 C1773 0.960 . S
H1788 C1774 0.961 . S
H1789 C1774 0.961 . S
H1790 C1774 0.961 . S
H1791 C1775 0.931 . S
H1792 C1780 0.930 . S
H1793 C1781 0.956 . S
H1794 C1781 0.961 . S
H1795 C1781 0.961 . S
H1796 C1782 0.958 . S
H1797 C1782 0.961 . S
H1798 C1782 0.960 . S
C1799 C1800 1.391 . S
C1799 C1801 1.394 . S
C1799 H1815 0.931 . S
C1800 C1799 1.391 . S
C1800 C1804 1.376 . S
C1801 C1799 1.394 . S
C1801 C1802 1.369 . S
C1801 C1805 1.531 . S
C1802 C1801 1.369 . S
C1802 C1803 1.410 . S
C1802 C1810 1.503 . S
C1803 C1802 1.410 . S
C1803 C1804 1.392 . S
C1803 C1806 1.511 . S
C1804 C1800 1.376 . S
C1804 C1803 1.392 . S
C1804 H1816 0.929 . S
C1805 C1801 1.531 . S
C1805 H1817 0.960 . S
C1805 H1818 0.962 . S
C1805 H1819 0.960 . S
C1806 C1803 1.511 . S
C1806 H1820 0.961 . S
C1806 H1821 0.961 . S
C1806 H1822 0.961 . S
C1807 C1808 1.370 . S
C1807 C1809 1.363 . S
C1807 H1823 0.931 . S
C1808 C1807 1.370 . S
C1808 C1812 1.408 . S
C1809 C1807 1.363 . S
C1809 C1810 1.370 . S
C1809 C1813 1.524 . S
C1810 C1802 1.503 . S
C1810 C1809 1.370 . S
C1810 C1811 1.403 . S
C1811 C1810 1.403 . S
C1811 C1812 1.404 . S
C1811 C1814 1.539 . S
C1812 C1808 1.408 . S
C1812 C1811 1.404 . S
C1812 H1824 0.930 . S
C1813 C1809 1.524 . S
C1813 H1825 0.956 . S
C1813 H1826 0.961 . S
C1813 H1827 0.961 . S
C1814 C1811 1.539 . S
C1814 H1828 0.958 . S
C1814 H1829 0.961 . S
C1814 H1830 0.960 . S
H1815 C1799 0.931 . S
H1816 C1804 0.929 . S
H1817 C1805 0.960 . S
H1818 C1805 0.962 . S
H1819 C1805 0.960 . S
H1820 C1806 0.961 . S
H1821 C1806 0.961 . S
H1822 C1806 0.961 . S
H1823 C1807 0.931 . S
H1824 C1812 0.930 . S
H1825 C1813 0.956 . S
H1826 C1813 0.961 . S
H1827 C1813 0.961 . S
H1828 C1814 0.958 . S
H1829 C1814 0.961 . S
H1830 C1814 0.960 . S
C1831 C1832 1.391 . S
C1831 C1833 1.394 . S
C1831 H1847 0.931 . S
C1832 C1831 1.391 . S
C1832 C1836 1.376 . S
C1833 C1831 1.394 . S
C1833 C1834 1.369 . S
C1833 C1837 1.531 . S
C1834 C1833 1.369 . S
C1834 C1835 1.410 . S
C1834 C1842 1.503 . S
C1835 C1834 1.410 . S
C1835 C1836 1.392 . S
C1835 C1838 1.511 . S
C1836 C1832 1.376 . S
C1836 C1835 1.392 . S
C1836 H1848 0.929 . S
C1837 C1833 1.531 . S
C1837 H1849 0.960 . S
C1837 H1850 0.962 . S
C1837 H1851 0.960 . S
C1838 C1835 1.511 . S
C1838 H1852 0.961 . S
C1838 H1853 0.961 . S
C1838 H1854 0.961 . S
C1839 C1840 1.370 . S
C1839 C1841 1.363 . S
C1839 H1855 0.931 . S
C1840 C1839 1.370 . S
C1840 C1844 1.408 . S
C1841 C1839 1.363 . S
C1841 C1842 1.370 . S
C1841 C1845 1.524 . S
C1842 C1834 1.503 . S
C1842 C1841 1.370 . S
C1842 C1843 1.403 . S
C1843 C1842 1.403 . S
C1843 C1844 1.404 . S
C1843 C1846 1.539 . S
C1844 C1840 1.408 . S
C1844 C1843 1.404 . S
C1844 H1856 0.930 . S
C1845 C1841 1.524 . S
C1845 H1857 0.956 . S
C1845 H1858 0.961 . S
C1845 H1859 0.961 . S
C1846 C1843 1.539 . S
C1846 H1860 0.958 . S
C1846 H1861 0.961 . S
C1846 H1862 0.960 . S
H1847 C1831 0.931 . S
H1848 C1836 0.929 . S
H1849 C1837 0.960 . S
H1850 C1837 0.962 . S
H1851 C1837 0.960 . S
H1852 C1838 0.961 . S
H1853 C1838 0.961 . S
H1854 C1838 0.961 . S
H1855 C1839 0.931 . S
H1856 C1844 0.930 . S
H1857 C1845 0.956 . S
H1858 C1845 0.961 . S
H1859 C1845 0.961 . S
H1860 C1846 0.958 . S
H1861 C1846 0.961 . S
H1862 C1846 0.960 . S
C1863 C1864 1.391 . S
C1863 C1865 1.394 . S
C1863 H1879 0.931 . S
C1864 C1863 1.391 . S
C1864 C1868 1.376 . S
C1865 C1863 1.394 . S
C1865 C1866 1.369 . S
C1865 C1869 1.531 . S
C1866 C1865 1.369 . S
C1866 C1867 1.410 . S
C1866 C1874 1.503 . S
C1867 C1866 1.410 . S
C1867 C1868 1.392 . S
C1867 C1870 1.511 . S
C1868 C1864 1.376 . S
C1868 C1867 1.392 . S
C1868 H1880 0.929 . S
C1869 C1865 1.531 . S
C1869 H1881 0.960 . S
C1869 H1882 0.962 . S
C1869 H1883 0.960 . S
C1870 C1867 1.511 . S
C1870 H1884 0.961 . S
C1870 H1885 0.961 . S
C1870 H1886 0.961 . S
C1871 C1872 1.370 . S
C1871 C1873 1.363 . S
C1871 H1887 0.931 . S
C1872 C1871 1.370 . S
C1872 C1876 1.408 . S
C1873 C1871 1.363 . S
C1873 C1874 1.370 . S
C1873 C1877 1.524 . S
C1874 C1866 1.503 . S
C1874 C1873 1.370 . S
C1874 C1875 1.403 . S
C1875 C1874 1.403 . S
C1875 C1876 1.404 . S
C1875 C1878 1.539 . S
C1876 C1872 1.408 . S
C1876 C1875 1.404 . S
C1876 H1888 0.930 . S
C1877 C1873 1.524 . S
C1877 H1889 0.956 . S
C1877 H1890 0.961 . S
C1877 H1891 0.961 . S
C1878 C1875 1.539 . S
C1878 H1892 0.958 . S
C1878 H1893 0.961 . S
C1878 H1894 0.960 . S
H1879 C1863 0.931 . S
H1880 C1868 0.929 . S
H1881 C1869 0.960 . S
H1882 C1869 0.962 . S
H1883 C1869 0.960 . S
H1884 C1870 0.961 . S
H1885 C1870 0.961 . S
H1886 C1870 0.961 . S
H1887 C1871 0.931 . S
H1888 C1876 0.930 . S
H1889 C1877 0.956 . S
H1890 C1877 0.961 . S
H1891 C1877 0.961 . S
H1892 C1878 0.958 . S
H1893 C1878 0.961 . S
H1894 C1878 0.960 . S
C1895 C1896 1.391 . S
C1895 C1897 1.394 . S
C1895 H1911 0.931 . S
C1896 C1895 1.391 . S
C1896 C1900 1.376 . S
C1897 C1895 1.394 . S
C1897 C1898 1.369 . S
C1897 C1901 1.531 . S
C1898 C1897 1.369 . S
C1898 C1899 1.410 . S
C1898 C1906 1.503 . S
C1899 C1898 1.410 . S
C1899 C1900 1.392 . S
C1899 C1902 1.511 . S
C1900 C1896 1.376 . S
C1900 C1899 1.392 . S
C1900 H1912 0.929 . S
C1901 C1897 1.531 . S
C1901 H1913 0.960 . S
C1901 H1914 0.962 . S
C1901 H1915 0.960 . S
C1902 C1899 1.511 . S
C1902 H1916 0.961 . S
C1902 H1917 0.961 . S
C1902 H1918 0.961 . S
C1903 C1904 1.370 . S
C1903 C1905 1.363 . S
C1903 H1919 0.931 . S
C1904 C1903 1.370 . S
C1904 C1908 1.408 . S
C1905 C1903 1.363 . S
C1905 C1906 1.370 . S
C1905 C1909 1.524 . S
C1906 C1898 1.503 . S
C1906 C1905 1.370 . S
C1906 C1907 1.403 . S
C1907 C1906 1.403 . S
C1907 C1908 1.404 . S
C1907 C1910 1.539 . S
C1908 C1904 1.408 . S
C1908 C1907 1.404 . S
C1908 H1920 0.930 . S
C1909 C1905 1.524 . S
C1909 H1921 0.956 . S
C1909 H1922 0.961 . S
C1909 H1923 0.961 . S
C1910 C1907 1.539 . S
C1910 H1924 0.958 . S
C1910 H1925 0.961 . S
C1910 H1926 0.960 . S
H1911 C1895 0.931 . S
H1912 C1900 0.929 . S
H1913 C1901 0.960 . S
H1914 C1901 0.962 . S
H1915 C1901 0.960 . S
H1916 C1902 0.961 . S
H1917 C1902 0.961 . S
H1918 C1902 0.961 . S
H1919 C1903 0.931 . S
H1920 C1908 0.930 . S
H1921 C1909 0.956 . S
H1922 C1909 0.961 . S
H1923 C1909 0.961 . S
H1924 C1910 0.958 . S
H1925 C1910 0.961 . S
H1926 C1910 0.960 . S
C1927 C1928 1.391 . S
C1927 C1929 1.394 . S
C1927 H1943 0.931 . S
C1928 C1927 1.391 . S
C1928 C1932 1.376 . S
C1929 C1927 1.394 . S
C1929 C1930 1.369 . S
C1929 C1933 1.531 . S
C1930 C1929 1.369 . S
C1930 C1931 1.410 . S
C1930 C1938 1.503 . S
C1931 C1930 1.410 . S
C1931 C1932 1.392 . S
C1931 C1934 1.511 . S
C1932 C1928 1.376 . S
C1932 C1931 1.392 . S
C1932 H1944 0.929 . S
C1933 C1929 1.531 . S
C1933 H1945 0.960 . S
C1933 H1946 0.962 . S
C1933 H1947 0.960 . S
C1934 C1931 1.511 . S
C1934 H1948 0.961 . S
C1934 H1949 0.961 . S
C1934 H1950 0.961 . S
C1935 C1936 1.370 . S
C1935 C1937 1.363 . S
C1935 H1951 0.931 . S
C1936 C1935 1.370 . S
C1936 C1940 1.408 . S
C1937 C1935 1.363 . S
C1937 C1938 1.370 . S
C1937 C1941 1.524 . S
C1938 C1930 1.503 . S
C1938 C1937 1.370 . S
C1938 C1939 1.403 . S
C1939 C1938 1.403 . S
C1939 C1940 1.404 . S
C1939 C1942 1.539 . S
C1940 C1936 1.408 . S
C1940 C1939 1.404 . S
C1940 H1952 0.930 . S
C1941 C1937 1.524 . S
C1941 H1953 0.956 . S
C1941 H1954 0.961 . S
C1941 H1955 0.961 . S
C1942 C1939 1.539 . S
C1942 H1956 0.958 . S
C1942 H1957 0.961 . S
C1942 H1958 0.960 . S
H1943 C1927 0.931 . S
H1944 C1932 0.929 . S
H1945 C1933 0.960 . S
H1946 C1933 0.962 . S
H1947 C1933 0.960 . S
H1948 C1934 0.961 . S
H1949 C1934 0.961 . S
H1950 C1934 0.961 . S
H1951 C1935 0.931 . S
H1952 C1940 0.930 . S
H1953 C1941 0.956 . S
H1954 C1941 0.961 . S
H1955 C1941 0.961 . S
H1956 C1942 0.958 . S
H1957 C1942 0.961 . S
H1958 C1942 0.960 . S
C1959 C1960 1.391 . S
C1959 C1961 1.394 . S
C1959 H1975 0.931 . S
C1960 C1959 1.391 . S
C1960 C1964 1.376 . S
C1961 C1959 1.394 . S
C1961 C1962 1.369 . S
C1961 C1965 1.531 . S
C1962 C1961 1.369 . S
C1962 C1963 1.410 . S
C1962 C1970 1.503 . S
C1963 C1962 1.410 . S
C1963 C1964 1.392 . S
C1963 C1966 1.511 . S
C1964 C1960 1.376 . S
C1964 C1963 1.392 . S
C1964 H1976 0.929 . S
C1965 C1961 1.531 . S
C1965 H1977 0.960 . S
C1965 H1978 0.962 . S
C1965 H1979 0.960 . S
C1966 C1963 1.511 . S
C1966 H1980 0.961 . S
C1966 H1981 0.961 . S
C1966 H1982 0.961 . S
C1967 C1968 1.370 . S
C1967 C1969 1.363 . S
C1967 H1983 0.931 . S
C1968 C1967 1.370 . S
C1968 C1972 1.408 . S
C1969 C1967 1.363 . S
C1969 C1970 1.370 . S
C1969 C1973 1.524 . S
C1970 C1962 1.503 . S
C1970 C1969 1.370 . S
C1970 C1971 1.403 . S
C1971 C1970 1.403 . S
C1971 C1972 1.404 . S
C1971 C1974 1.539 . S
C1972 C1968 1.408 . S
C1972 C1971 1.404 . S
C1972 H1984 0.930 . S
C1973 C1969 1.524 . S
C1973 H1985 0.956 . S
C1973 H1986 0.961 . S
C1973 H1987 0.961 . S
C1974 C1971 1.539 . S
C1974 H1988 0.958 . S
C1974 H1989 0.961 . S
C1974 H1990 0.960 . S
H1975 C1959 0.931 . S
H1976 C1964 0.929 . S
H1977 C1965 0.960 . S
H1978 C1965 0.962 . S
H1979 C1965 0.960 . S
H1980 C1966 0.961 . S
H1981 C1966 0.961 . S
H1982 C1966 0.961 . S
H1983 C1967 0.931 . S
H1984 C1972 0.930 . S
H1985 C1973 0.956 . S
H1986 C1973 0.961 . S
H1987 C1973 0.961 . S
H1988 C1974 0.958 . S
H1989 C1974 0.961 . S
H1990 C1974 0.960 . S
C1991 C1992 1.391 . S
C1991 C1993 1.394 . S
C1991 H2007 0.931 . S
C1992 C1991 1.391 . S
C1992 C1996 1.376 . S
C1993 C1991 1.394 . S
C1993 C1994 1.369 . S
C1993 C1997 1.531 . S
C1994 C1993 1.369 . S
C1994 C1995 1.410 . S
C1994 C2002 1.503 . S
C1995 C1994 1.410 . S
C1995 C1996 1.392 . S
C1995 C1998 1.511 . S
C1996 C1992 1.376 . S
C1996 C1995 1.392 . S
C1996 H2008 0.929 . S
C1997 C1993 1.531 . S
C1997 H2009 0.960 . S
C1997 H2010 0.962 . S
C1997 H2011 0.960 . S
C1998 C1995 1.511 . S
C1998 H2012 0.961 . S
C1998 H2013 0.961 . S
C1998 H2014 0.961 . S
C1999 C2000 1.370 . S
C1999 C2001 1.363 . S
C1999 H2015 0.931 . S
C2000 C1999 1.370 . S
C2000 C2004 1.408 . S
C2001 C1999 1.363 . S
C2001 C2002 1.370 . S
C2001 C2005 1.524 . S
C2002 C1994 1.503 . S
C2002 C2001 1.370 . S
C2002 C2003 1.403 . S
C2003 C2002 1.403 . S
C2003 C2004 1.404 . S
C2003 C2006 1.539 . S
C2004 C2000 1.408 . S
C2004 C2003 1.404 . S
C2004 H2016 0.930 . S
C2005 C2001 1.524 . S
C2005 H2017 0.956 . S
C2005 H2018 0.961 . S
C2005 H2019 0.961 . S
C2006 C2003 1.539 . S
C2006 H2020 0.958 . S
C2006 H2021 0.961 . S
C2006 H2022 0.960 . S
H2007 C1991 0.931 . S
H2008 C1996 0.929 . S
H2009 C1997 0.960 . S
H2010 C1997 0.962 . S
H2011 C1997 0.960 . S
H2012 C1998 0.961 . S
H2013 C1998 0.961 . S
H2014 C1998 0.961 . S
H2015 C1999 0.931 . S
H2016 C2004 0.930 . S
H2017 C2005 0.956 . S
H2018 C2005 0.961 . S
H2019 C2005 0.961 . S
H2020 C2006 0.958 . S
H2021 C2006 0.961 . S
H2022 C2006 0.960 . S
C2023 C2024 1.391 . S
C2023 C2025 1.394 . S
C2023 H2039 0.931 . S
C2024 C2023 1.391 . S
C2024 C2028 1.376 . S
C2025 C2023 1.394 . S
C2025 C2026 1.369 . S
C2025 C2029 1.531 . S
C2026 C2025 1.369 . S
C2026 C2027 1.410 . S
C2026 C2034 1.503 . S
C2027 C2026 1.410 . S
C2027 C2028 1.392 . S
C2027 C2030 1.511 . S
C2028 C2024 1.376 . S
C2028 C2027 1.392 . S
C2028 H2040 0.929 . S
C2029 C2025 1.531 . S
C2029 H2041 0.960 . S
C2029 H2042 0.962 . S
C2029 H2043 0.960 . S
C2030 C2027 1.511 . S
C2030 H2044 0.961 . S
C2030 H2045 0.961 . S
C2030 H2046 0.961 . S
C2031 C2032 1.370 . S
C2031 C2033 1.363 . S
C2031 H2047 0.931 . S
C2032 C2031 1.370 . S
C2032 C2036 1.408 . S
C2033 C2031 1.363 . S
C2033 C2034 1.370 . S
C2033 C2037 1.524 . S
C2034 C2026 1.503 . S
C2034 C2033 1.370 . S
C2034 C2035 1.403 . S
C2035 C2034 1.403 . S
C2035 C2036 1.404 . S
C2035 C2038 1.539 . S
C2036 C2032 1.408 . S
C2036 C2035 1.404 . S
C2036 H2048 0.930 . S
C2037 C2033 1.524 . S
C2037 H2049 0.956 . S
C2037 H2050 0.961 . S
C2037 H2051 0.961 . S
C2038 C2035 1.539 . S
C2038 H2052 0.958 . S
C2038 H2053 0.961 . S
C2038 H2054 0.960 . S
H2039 C2023 0.931 . S
H2040 C2028 0.929 . S
H2041 C2029 0.960 . S
H2042 C2029 0.962 . S
H2043 C2029 0.960 . S
H2044 C2030 0.961 . S
H2045 C2030 0.961 . S
H2046 C2030 0.961 . S
H2047 C2031 0.931 . S
H2048 C2036 0.930 . S
H2049 C2037 0.956 . S
H2050 C2037 0.961 . S
H2051 C2037 0.961 . S
H2052 C2038 0.958 . S
H2053 C2038 0.961 . S
H2054 C2038 0.960 . S
C2055 C2056 1.391 . S
C2055 C2057 1.394 . S
C2055 H2071 0.931 . S
C2056 C2055 1.391 . S
C2056 C2060 1.376 . S
C2057 C2055 1.394 . S
C2057 C2058 1.369 . S
C2057 C2061 1.531 . S
C2058 C2057 1.369 . S
C2058 C2059 1.410 . S
C2058 C2066 1.503 . S
C2059 C2058 1.410 . S
C2059 C2060 1.392 . S
C2059 C2062 1.511 . S
C2060 C2056 1.376 . S
C2060 C2059 1.392 . S
C2060 H2072 0.929 . S
C2061 C2057 1.531 . S
C2061 H2073 0.960 . S
C2061 H2074 0.962 . S
C2061 H2075 0.960 . S
C2062 C2059 1.511 . S
C2062 H2076 0.961 . S
C2062 H2077 0.961 . S
C2062 H2078 0.961 . S
C2063 C2064 1.370 . S
C2063 C2065 1.363 . S
C2063 H2079 0.931 . S
C2064 C2063 1.370 . S
C2064 C2068 1.408 . S
C2065 C2063 1.363 . S
C2065 C2066 1.370 . S
C2065 C2069 1.524 . S
C2066 C2058 1.503 . S
C2066 C2065 1.370 . S
C2066 C2067 1.403 . S
C2067 C2066 1.403 . S
C2067 C2068 1.404 . S
C2067 C2070 1.539 . S
C2068 C2064 1.408 . S
C2068 C2067 1.404 . S
C2068 H2080 0.930 . S
C2069 C2065 1.524 . S
C2069 H2081 0.956 . S
C2069 H2082 0.961 . S
C2069 H2083 0.961 . S
C2070 C2067 1.539 . S
C2070 H2084 0.958 . S
C2070 H2085 0.961 . S
C2070 H2086 0.960 . S
H2071 C2055 0.931 . S
H2072 C2060 0.929 . S
H2073 C2061 0.960 . S
H2074 C2061 0.962 . S
H2075 C2061 0.960 . S
H2076 C2062 0.961 . S
H2077 C2062 0.961 . S
H2078 C2062 0.961 . S
H2079 C2063 0.931 . S
H2080 C2068 0.930 . S
H2081 C2069 0.956 . S
H2082 C2069 0.961 . S
H2083 C2069 0.961 . S
H2084 C2070 0.958 . S
H2085 C2070 0.961 . S
H2086 C2070 0.960 . S
C2087 C2088 1.391 . S
C2087 C2089 1.394 . S
C2087 H2103 0.931 . S
C2088 C2087 1.391 . S
C2088 C2092 1.376 . S
C2089 C2087 1.394 . S
C2089 C2090 1.369 . S
C2089 C2093 1.531 . S
C2090 C2089 1.369 . S
C2090 C2091 1.410 . S
C2090 C2098 1.503 . S
C2091 C2090 1.410 . S
C2091 C2092 1.392 . S
C2091 C2094 1.511 . S
C2092 C2088 1.376 . S
C2092 C2091 1.392 . S
C2092 H2104 0.929 . S
C2093 C2089 1.531 . S
C2093 H2105 0.960 . S
C2093 H2106 0.962 . S
C2093 H2107 0.960 . S
C2094 C2091 1.511 . S
C2094 H2108 0.961 . S
C2094 H2109 0.961 . S
C2094 H2110 0.961 . S
C2095 C2096 1.370 . S
C2095 C2097 1.363 . S
C2095 H2111 0.931 . S
C2096 C2095 1.370 . S
C2096 C2100 1.408 . S
C2097 C2095 1.363 . S
C2097 C2098 1.370 . S
C2097 C2101 1.524 . S
C2098 C2090 1.503 . S
C2098 C2097 1.370 . S
C2098 C2099 1.403 . S
C2099 C2098 1.403 . S
C2099 C2100 1.404 . S
C2099 C2102 1.539 . S
C2100 C2096 1.408 . S
C2100 C2099 1.404 . S
C2100 H2112 0.930 . S
C2101 C2097 1.524 . S
C2101 H2113 0.956 . S
C2101 H2114 0.961 . S
C2101 H2115 0.961 . S
C2102 C2099 1.539 . S
C2102 H2116 0.958 . S
C2102 H2117 0.961 . S
C2102 H2118 0.960 . S
H2103 C2087 0.931 . S
H2104 C2092 0.929 . S
H2105 C2093 0.960 . S
H2106 C2093 0.962 . S
H2107 C2093 0.960 . S
H2108 C2094 0.961 . S
H2109 C2094 0.961 . S
H2110 C2094 0.961 . S
H2111 C2095 0.931 . S
H2112 C2100 0.930 . S
H2113 C2101 0.956 . S
H2114 C2101 0.961 . S
H2115 C2101 0.961 . S
H2116 C2102 0.958 . S
H2117 C2102 0.961 . S
H2118 C2102 0.960 . S
C2119 C2120 1.391 . S
C2119 C2121 1.394 . S
C2119 H2135 0.931 . S
C2120 C2119 1.391 . S
C2120 C2124 1.376 . S
C2121 C2119 1.394 . S
C2121 C2122 1.369 . S
C2121 C2125 1.531 . S
C2122 C2121 1.369 . S
C2122 C2123 1.410 . S
C2122 C2130 1.503 . S
C2123 C2122 1.410 . S
C2123 C2124 1.392 . S
C2123 C2126 1.511 . S
C2124 C2120 1.376 . S
C2124 C2123 1.392 . S
C2124 H2136 0.929 . S
C2125 C2121 1.531 . S
C2125 H2137 0.960 . S
C2125 H2138 0.962 . S
C2125 H2139 0.960 . S
C2126 C2123 1.511 . S
C2126 H2140 0.961 . S
C2126 H2141 0.961 . S
C2126 H2142 0.961 . S
C2127 C2128 1.370 . S
C2127 C2129 1.363 . S
C2127 H2143 0.931 . S
C2128 C2127 1.370 . S
C2128 C2132 1.408 . S
C2129 C2127 1.363 . S
C2129 C2130 1.370 . S
C2129 C2133 1.524 . S
C2130 C2122 1.503 . S
C2130 C2129 1.370 . S
C2130 C2131 1.403 . S
C2131 C2130 1.403 . S
C2131 C2132 1.404 . S
C2131 C2134 1.539 . S
C2132 C2128 1.408 . S
C2132 C2131 1.404 . S
C2132 H2144 0.930 . S
C2133 C2129 1.524 . S
C2133 H2145 0.956 . S
C2133 H2146 0.961 . S
C2133 H2147 0.961 . S
C2134 C2131 1.539 . S
C2134 H2148 0.958 . S
C2134 H2149 0.961 . S
C2134 H2150 0.960 . S
H2135 C2119 0.931 . S
H2136 C2124 0.929 . S
H2137 C2125 0.960 . S
H2138 C2125 0.962 . S
H2139 C2125 0.960 . S
H2140 C2126 0.961 . S
H2141 C2126 0.961 . S
H2142 C2126 0.961 . S
H2143 C2127 0.931 . S
H2144 C2132 0.930 . S
H2145 C2133 0.956 . S
H2146 C2133 0.961 . S
H2147 C2133 0.961 . S
H2148 C2134 0.958 . S
H2149 C2134 0.961 . S
H2150 C2134 0.960 . S
C424 N170 1.790 . S
C432 C251 1.727 . S
C456 N184 1.046 . S
C464 C272 0.994 . S
C488 N158 1.502 . S
C496 C294 1.268 . S
C520 N145 1.499 . S
C528 C273 1.257 . S
C560 C293 1.014 . S
C552 N119 1.091 . S
C584 N131 1.737 . S
C592 C252 1.523 . S
C624 C247 1.425 . S
C616 N144 1.474 1_554 S
C656 C268 1.240 . S
C648 N118 1.273 . S
C680 N132 1.454 . S
C688 C291 1.301 . S
C712 N171 1.424 . S
C720 C270 1.314 1_554 S
C744 N183 1.260 . S
C752 C289 1.204 . S
C784 C249 1.291 . S
C776 N157 1.488 . S
C816 C314 1.706 . S
C808 N14 1.822 . S
C840 N28 1.074 . S
C848 C335 1.011 . S
C872 N2 1.496 . S
C880 C357 1.295 . S
C904 N223 1.464 . S
C912 C336 1.309 . S
C936 N197 1.070 . S
C944 C356 1.003 . S
C968 N209 1.739 . S
C976 C315 1.518 . S
C1000 N222 1.471 . S
C1008 C310 1.402 . S
C1032 N196 1.273 . S
C1040 C331 1.234 . S
C1072 C354 1.304 . S
C1064 N210 1.452 . S
C1096 N15 1.452 . S
C1104 C333 1.307 . S
C1136 C352 1.230 . S
C1128 N27 1.257 . S
C1160 N1 1.483 . S
C1168 C312 1.311 . S
C1200 C377 1.719 . S
C1192 N92 1.810 . S
C1224 N106 1.059 . S
C1232 C398 1.038 . S
C1264 C420 1.269 . S
C1256 N80 1.504 . S
C1296 C399 1.257 . S
C1288 N67 1.499 . S
C1328 C419 1.005 . S
C1320 N41 1.072 . S
C1352 N53 1.746 . S
C1360 C378 1.527 . S
C1384 N66 1.467 . S
C1392 C373 1.410 . S
C1416 N40 1.274 . S
C1424 C394 1.249 . S
C1456 C417 1.299 . S
C1448 N54 1.456 . S
C1480 N93 1.435 . S
C1488 C396 1.296 . S
C1512 N105 1.258 . S
C1520 C415 1.226 . S
C1544 N79 1.496 . S
C1552 C375 1.271 . S
C1576 N200 1.202 . S
C1584 C250 1.180 . S
C1616 C271 1.708 . S
C1608 N213 1.723 . S
C1640 N226 1.460 . S
C1648 C290 1.490 . S
C1672 N83 1.552 . S
C1680 C269 1.525 . S
C1704 N96 1.754 . S
C1712 C292 1.731 . S
C1744 C248 1.293 . S
C1736 N109 1.332 . S
C1768 N44 1.246 . S
C1776 C313 1.211 . S
C1800 N57 1.713 . S
C1808 C334 1.713 . S
C1832 N70 1.472 . S
C1840 C353 1.486 . S
C1864 N161 1.552 . S
C1872 C332 1.525 . S
C1904 C355 1.731 . S
C1896 N174 1.754 . S
C1928 N187 1.293 . S
C1936 C311 1.316 . S
C1960 N122 1.213 . S
C1968 C376 1.188 . S
C1992 N135 1.706 . S
C2000 C397 1.720 . S
C2032 C416 1.485 . S
C2024 N148 1.474 . S
C2056 N5 1.548 . S
C2064 C395 1.526 . S
C2088 N18 1.757 . S
C2096 C418 1.730 . S
C2120 N31 1.289 . S
C2128 C374 1.316 . S
