# Generated by pormake.
# Topology llk, (3,12)-cn, num edge types: 1
# Building blocks:
#     Node 0, Type 0, BuildingBlock: VETTIZ_charged_linker_0, # of connection points: 3
#     Node 1, Type 0, BuildingBlock: VETTIZ_charged_linker_0, # of connection points: 3
#     Node 2, Type 0, BuildingBlock: VETTIZ_charged_linker_0, # of connection points: 3
#     Node 3, Type 0, BuildingBlock: VETTIZ_charged_linker_0, # of connection points: 3
#     Node 4, Type 0, BuildingBlock: VETTIZ_charged_linker_0, # of connection points: 3
#     Node 5, Type 0, BuildingBlock: VETTIZ_charged_linker_0, # of connection points: 3
#     Node 6, Type 0, BuildingBlock: VETTIZ_charged_linker_0, # of connection points: 3
#     Node 7, Type 0, BuildingBlock: VETTIZ_charged_linker_0, # of connection points: 3
#     Node 8, Type 0, BuildingBlock: VETTIZ_charged_linker_0, # of connection points: 3
#     Node 9, Type 0, BuildingBlock: VETTIZ_charged_linker_0, # of connection points: 3
#     Node 10, Type 0, BuildingBlock: VETTIZ_charged_linker_0, # of connection points: 3
#     Node 11, Type 0, BuildingBlock: VETTIZ_charged_linker_0, # of connection points: 3
#     Node 12, Type 0, BuildingBlock: VETTIZ_charged_linker_0, # of connection points: 3
#     Node 13, Type 0, BuildingBlock: VETTIZ_charged_linker_0, # of connection points: 3
#     Node 14, Type 0, BuildingBlock: VETTIZ_charged_linker_0, # of connection points: 3
#     Node 15, Type 0, BuildingBlock: VETTIZ_charged_linker_0, # of connection points: 3
#     Node 16, Type 0, BuildingBlock: VETTIZ_charged_linker_0, # of connection points: 3
#     Node 17, Type 0, BuildingBlock: VETTIZ_charged_linker_0, # of connection points: 3
#     Node 18, Type 0, BuildingBlock: VETTIZ_charged_linker_0, # of connection points: 3
#     Node 19, Type 0, BuildingBlock: VETTIZ_charged_linker_0, # of connection points: 3
#     Node 20, Type 0, BuildingBlock: VETTIZ_charged_linker_0, # of connection points: 3
#     Node 21, Type 0, BuildingBlock: VETTIZ_charged_linker_0, # of connection points: 3
#     Node 22, Type 0, BuildingBlock: VETTIZ_charged_linker_0, # of connection points: 3
#     Node 23, Type 0, BuildingBlock: VETTIZ_charged_linker_0, # of connection points: 3
#     Node 24, Type 1, BuildingBlock: QEWDON_clean_sbu_0, # of connection points: 12
#     Node 25, Type 1, BuildingBlock: QEWDON_clean_sbu_0, # of connection points: 12
#     Node 26, Type 1, BuildingBlock: QEWDON_clean_sbu_0, # of connection points: 12
#     Node 27, Type 1, BuildingBlock: QEWDON_clean_sbu_0, # of connection points: 12
#     Node 28, Type 1, BuildingBlock: QEWDON_clean_sbu_0, # of connection points: 12
#     Node 29, Type 1, BuildingBlock: QEWDON_clean_sbu_0, # of connection points: 12
#     Edge 30, Type (0, 1), BuildingBlock: EZIPEK_clean_linker_0, # of connection points: 2
#     Edge 31, Type (0, 1), BuildingBlock: EZIPEK_clean_linker_0, # of connection points: 2
#     Edge 32, Type (0, 1), BuildingBlock: EZIPEK_clean_linker_0, # of connection points: 2
#     Edge 33, Type (0, 1), BuildingBlock: EZIPEK_clean_linker_0, # of connection points: 2
#     Edge 34, Type (0, 1), BuildingBlock: EZIPEK_clean_linker_0, # of connection points: 2
#     Edge 35, Type (0, 1), BuildingBlock: EZIPEK_clean_linker_0, # of connection points: 2
#     Edge 36, Type (0, 1), BuildingBlock: EZIPEK_clean_linker_0, # of connection points: 2
#     Edge 37, Type (0, 1), BuildingBlock: EZIPEK_clean_linker_0, # of connection points: 2
#     Edge 38, Type (0, 1), BuildingBlock: EZIPEK_clean_linker_0, # of connection points: 2
#     Edge 39, Type (0, 1), BuildingBlock: EZIPEK_clean_linker_0, # of connection points: 2
#     Edge 40, Type (0, 1), BuildingBlock: EZIPEK_clean_linker_0, # of connection points: 2
#     Edge 41, Type (0, 1), BuildingBlock: EZIPEK_clean_linker_0, # of connection points: 2
#     Edge 42, Type (0, 1), BuildingBlock: EZIPEK_clean_linker_0, # of connection points: 2
#     Edge 43, Type (0, 1), BuildingBlock: EZIPEK_clean_linker_0, # of connection points: 2
#     Edge 44, Type (0, 1), BuildingBlock: EZIPEK_clean_linker_0, # of connection points: 2
#     Edge 45, Type (0, 1), BuildingBlock: EZIPEK_clean_linker_0, # of connection points: 2
#     Edge 46, Type (0, 1), BuildingBlock: EZIPEK_clean_linker_0, # of connection points: 2
#     Edge 47, Type (0, 1), BuildingBlock: EZIPEK_clean_linker_0, # of connection points: 2
#     Edge 48, Type (0, 1), BuildingBlock: EZIPEK_clean_linker_0, # of connection points: 2
#     Edge 49, Type (0, 1), BuildingBlock: EZIPEK_clean_linker_0, # of connection points: 2
#     Edge 50, Type (0, 1), BuildingBlock: EZIPEK_clean_linker_0, # of connection points: 2
#     Edge 51, Type (0, 1), BuildingBlock: EZIPEK_clean_linker_0, # of connection points: 2
#     Edge 52, Type (0, 1), BuildingBlock: EZIPEK_clean_linker_0, # of connection points: 2
#     Edge 53, Type (0, 1), BuildingBlock: EZIPEK_clean_linker_0, # of connection points: 2
#     Edge 54, Type (0, 1), BuildingBlock: EZIPEK_clean_linker_0, # of connection points: 2
#     Edge 55, Type (0, 1), BuildingBlock: EZIPEK_clean_linker_0, # of connection points: 2
#     Edge 56, Type (0, 1), BuildingBlock: EZIPEK_clean_linker_0, # of connection points: 2
#     Edge 57, Type (0, 1), BuildingBlock: EZIPEK_clean_linker_0, # of connection points: 2
#     Edge 58, Type (0, 1), BuildingBlock: EZIPEK_clean_linker_0, # of connection points: 2
#     Edge 59, Type (0, 1), BuildingBlock: EZIPEK_clean_linker_0, # of connection points: 2
#     Edge 60, Type (0, 1), BuildingBlock: EZIPEK_clean_linker_0, # of connection points: 2
#     Edge 61, Type (0, 1), BuildingBlock: EZIPEK_clean_linker_0, # of connection points: 2
#     Edge 62, Type (0, 1), BuildingBlock: EZIPEK_clean_linker_0, # of connection points: 2
#     Edge 63, Type (0, 1), BuildingBlock: EZIPEK_clean_linker_0, # of connection points: 2
#     Edge 64, Type (0, 1), BuildingBlock: EZIPEK_clean_linker_0, # of connection points: 2
#     Edge 65, Type (0, 1), BuildingBlock: EZIPEK_clean_linker_0, # of connection points: 2
#     Edge 66, Type (0, 1), BuildingBlock: EZIPEK_clean_linker_0, # of connection points: 2
#     Edge 67, Type (0, 1), BuildingBlock: EZIPEK_clean_linker_0, # of connection points: 2
#     Edge 68, Type (0, 1), BuildingBlock: EZIPEK_clean_linker_0, # of connection points: 2
#     Edge 69, Type (0, 1), BuildingBlock: EZIPEK_clean_linker_0, # of connection points: 2
#     Edge 70, Type (0, 1), BuildingBlock: EZIPEK_clean_linker_0, # of connection points: 2
#     Edge 71, Type (0, 1), BuildingBlock: EZIPEK_clean_linker_0, # of connection points: 2
#     Edge 72, Type (0, 1), BuildingBlock: EZIPEK_clean_linker_0, # of connection points: 2
#     Edge 73, Type (0, 1), BuildingBlock: EZIPEK_clean_linker_0, # of connection points: 2
#     Edge 74, Type (0, 1), BuildingBlock: EZIPEK_clean_linker_0, # of connection points: 2
#     Edge 75, Type (0, 1), BuildingBlock: EZIPEK_clean_linker_0, # of connection points: 2
#     Edge 76, Type (0, 1), BuildingBlock: EZIPEK_clean_linker_0, # of connection points: 2
#     Edge 77, Type (0, 1), BuildingBlock: EZIPEK_clean_linker_0, # of connection points: 2
#     Edge 78, Type (0, 1), BuildingBlock: EZIPEK_clean_linker_0, # of connection points: 2
#     Edge 79, Type (0, 1), BuildingBlock: EZIPEK_clean_linker_0, # of connection points: 2
#     Edge 80, Type (0, 1), BuildingBlock: EZIPEK_clean_linker_0, # of connection points: 2
#     Edge 81, Type (0, 1), BuildingBlock: EZIPEK_clean_linker_0, # of connection points: 2
#     Edge 82, Type (0, 1), BuildingBlock: EZIPEK_clean_linker_0, # of connection points: 2
#     Edge 83, Type (0, 1), BuildingBlock: EZIPEK_clean_linker_0, # of connection points: 2
#     Edge 84, Type (0, 1), BuildingBlock: EZIPEK_clean_linker_0, # of connection points: 2
#     Edge 85, Type (0, 1), BuildingBlock: EZIPEK_clean_linker_0, # of connection points: 2
#     Edge 86, Type (0, 1), BuildingBlock: EZIPEK_clean_linker_0, # of connection points: 2
#     Edge 87, Type (0, 1), BuildingBlock: EZIPEK_clean_linker_0, # of connection points: 2
#     Edge 88, Type (0, 1), BuildingBlock: EZIPEK_clean_linker_0, # of connection points: 2
#     Edge 89, Type (0, 1), BuildingBlock: EZIPEK_clean_linker_0, # of connection points: 2
#     Edge 90, Type (0, 1), BuildingBlock: EZIPEK_clean_linker_0, # of connection points: 2
#     Edge 91, Type (0, 1), BuildingBlock: EZIPEK_clean_linker_0, # of connection points: 2
#     Edge 92, Type (0, 1), BuildingBlock: EZIPEK_clean_linker_0, # of connection points: 2
#     Edge 93, Type (0, 1), BuildingBlock: EZIPEK_clean_linker_0, # of connection points: 2
#     Edge 94, Type (0, 1), BuildingBlock: EZIPEK_clean_linker_0, # of connection points: 2
#     Edge 95, Type (0, 1), BuildingBlock: EZIPEK_clean_linker_0, # of connection points: 2
#     Edge 96, Type (0, 1), BuildingBlock: EZIPEK_clean_linker_0, # of connection points: 2
#     Edge 97, Type (0, 1), BuildingBlock: EZIPEK_clean_linker_0, # of connection points: 2
#     Edge 98, Type (0, 1), BuildingBlock: EZIPEK_clean_linker_0, # of connection points: 2
#     Edge 99, Type (0, 1), BuildingBlock: EZIPEK_clean_linker_0, # of connection points: 2
#     Edge 100, Type (0, 1), BuildingBlock: EZIPEK_clean_linker_0, # of connection points: 2
#     Edge 101, Type (0, 1), BuildingBlock: EZIPEK_clean_linker_0, # of connection points: 2
# Relax obj value: 0.133
# Max RMSD: 0.168
# Mean RMSD: 0.151
data_MOF--net-llk--node1-QEWDON_clean_sbu_0--node2-VETTIZ_charged_linker_0--edge1-EZIPEK_clean_linker_0
_symmetry_space_group_name_H-M    P1
_symmetry_Int_Tables_number       1
_symmetry_cell_setting            triclinic
loop_
_symmetry_equiv_pos_as_xyz
'x, y, z'
_cell_length_a     44.073089
_cell_length_b     45.398868
_cell_length_c     44.667211
_cell_angle_alpha  90.104052
_cell_angle_beta   90.014209
_cell_angle_gamma 89.682882
loop_
_atom_site_label
_atom_site_type_symbol
_atom_site_fract_x
_atom_site_fract_y
_atom_site_fract_z
_atom_type_partial_charge
C0 C 0.02094 0.30212 0.17765 0.0
C1 C 0.0306 0.3307 0.16841 0.0
C2 C 0.05271 0.34529 0.18548 0.0
C3 C 0.0488 0.30848 0.2238 0.0
C4 C 0.03155 0.29085 0.20554 0.0
C5 C 0.02704 0.26076 0.22049 0.0
H6 H 0.02194 0.18834 0.35487 0.0
C7 C 0.05159 0.29505 0.25322 0.0
C8 C 0.04214 0.26552 0.25139 0.0
H9 H 0.05278 0.14388 0.27523 0.0
H10 H 0.05238 0.19138 0.24811 0.0
H11 H 0.0775 0.21994 0.34561 0.0
H12 H 0.98568 0.25028 0.3326 0.0
H13 H 0.00513 0.27558 0.35554 0.0
H14 H 0.0012 0.23829 0.36777 0.0
H15 H 0.05577 0.23415 0.37639 0.0
H16 H 0.0789 0.2574 0.35262 0.0
C17 C 0.04314 0.23688 0.20178 0.0
C18 C 0.99303 0.25411 0.22374 0.0
C19 C 0.04351 0.36664 0.34035 0.0
C20 C 0.0414 0.36213 0.37136 0.0
C21 C 0.04625 0.33387 0.38316 0.0
C22 C 0.04967 0.30977 0.3641 0.0
C23 C 0.0494 0.31412 0.33294 0.0
C24 C 0.04827 0.34231 0.32156 0.0
C25 C 0.05162 0.34278 0.28804 0.0
C26 C 0.05339 0.30966 0.28125 0.0
C27 C 0.05014 0.29342 0.30755 0.0
C28 C 0.0811 0.35961 0.28013 0.0
C29 C 0.02294 0.35727 0.27438 0.0
C30 C 0.02667 0.18815 0.33104 0.0
C31 C 0.03575 0.16199 0.31708 0.0
C32 C 0.04417 0.1634 0.28639 0.0
C33 C 0.04342 0.19067 0.27051 0.0
C34 C 0.03494 0.21678 0.28559 0.0
C35 C 0.02914 0.21494 0.31602 0.0
C36 C 0.03513 0.24323 0.33197 0.0
C37 C 0.04308 0.26312 0.30617 0.0
C38 C 0.04083 0.24844 0.27846 0.0
C39 C 0.06297 0.23862 0.35301 0.0
C40 C 0.0054 0.2525 0.34799 0.0
H41 H 0.08001 0.34496 0.22469 0.0
H42 H 0.00536 0.28954 0.16403 0.0
H43 H 0.98139 0.27194 0.23647 0.0
H44 H 0.9897 0.23304 0.23589 0.0
H45 H 0.98213 0.2522 0.20139 0.0
H46 H 0.06819 0.2387 0.20386 0.0
H47 H 0.03704 0.23906 0.17773 0.0
H48 H 0.03602 0.21459 0.20869 0.0
H49 H 0.04066 0.38848 0.33103 0.0
H50 H 0.04507 0.33021 0.4071 0.0
H51 H 0.05082 0.28869 0.3746 0.0
H52 H 0.0902 0.37243 0.29934 0.0
H53 H 0.07714 0.37608 0.2622 0.0
H54 H 0.09948 0.34422 0.27312 0.0
H55 H 0.00223 0.34496 0.28092 0.0
H56 H 0.02379 0.35801 0.24968 0.0
H57 H 0.0204 0.3804 0.28217 0.0
H58 H 0.06186 0.36615 0.17802 0.0
C59 C 0.06234 0.33391 0.21279 0.0
C60 C 0.83993 0.04663 0.28089 0.0
C61 C 0.84561 0.05712 0.31015 0.0
C62 C 0.82873 0.08093 0.32177 0.0
C63 C 0.79505 0.07667 0.28038 0.0
C64 C 0.81442 0.05776 0.26577 0.0
C65 C 0.8018 0.04975 0.2353 0.0
H66 H 0.67827 0.02428 0.15496 0.0
C67 C 0.76631 0.07702 0.26531 0.0
C68 C 0.77072 0.06528 0.23667 0.0
H69 H 0.76019 0.05701 0.11481 0.0
H70 H 0.78071 0.06735 0.16503 0.0
H71 H 0.672 0.00274 0.20523 0.0
H72 H 0.67502 0.08068 0.17975 0.0
H73 H 0.66478 0.08692 0.21698 0.0
H74 H 0.64632 0.05789 0.19603 0.0
H75 H 0.65954 0.02109 0.23763 0.0
H76 H 0.69711 0.00534 0.23678 0.0
C77 C 0.79845 0.01607 0.23256 0.0
C78 C 0.82288 0.06197 0.21085 0.0
C79 C 0.67997 0.04765 0.33252 0.0
C80 C 0.64871 0.04502 0.32738 0.0
C81 C 0.63637 0.05263 0.29947 0.0
C82 C 0.65547 0.06143 0.27629 0.0
C83 C 0.68685 0.0623 0.28136 0.0
C84 C 0.69839 0.05781 0.30956 0.0
C85 C 0.73136 0.06562 0.31178 0.0
C86 C 0.73766 0.07448 0.27925 0.0
C87 C 0.71207 0.06912 0.26157 0.0
C88 C 0.74929 0.03776 0.32131 0.0
C89 C 0.73524 0.09113 0.33451 0.0
C90 C 0.70179 0.03097 0.15701 0.0
C91 C 0.71843 0.03824 0.13156 0.0
C92 C 0.7479 0.04979 0.13444 0.0
C93 C 0.76 0.05506 0.16313 0.0
C94 C 0.74229 0.04865 0.18837 0.0
C95 C 0.71295 0.03872 0.18485 0.0
C96 C 0.69293 0.04649 0.21086 0.0
C97 C 0.71583 0.06091 0.23137 0.0
C98 C 0.74491 0.06018 0.2187 0.0
C99 C 0.67974 0.0175 0.22354 0.0
C100 C 0.66829 0.06895 0.20052 0.0
H101 H 0.79009 0.10927 0.31526 0.0
H102 H 0.85375 0.02932 0.27115 0.0
H103 H 0.81916 0.08599 0.20765 0.0
H104 H 0.8196 0.05032 0.1893 0.0
H105 H 0.84709 0.05841 0.21693 0.0
H106 H 0.78404 0.00735 0.25092 0.0
H107 H 0.82098 0.00501 0.23363 0.0
H108 H 0.78781 0.01007 0.21088 0.0
H109 H 0.68944 0.0434 0.3545 0.0
H110 H 0.61207 0.05208 0.29585 0.0
H111 H 0.64527 0.06731 0.25536 0.0
H112 H 0.74692 0.01999 0.30431 0.0
H113 H 0.74102 0.02931 0.34314 0.0
H114 H 0.77371 0.04232 0.32426 0.0
H115 H 0.71788 0.09052 0.35252 0.0
H116 H 0.73327 0.1129 0.32331 0.0
H117 H 0.75725 0.08968 0.34641 0.0
H118 H 0.83409 0.09021 0.3435 0.0
C119 C 0.80338 0.09122 0.30645 0.0
C120 C 0.01515 0.85903 0.2808 0.0
C121 C 0.0272 0.86956 0.30822 0.0
C122 C 0.05152 0.85439 0.3218 0.0
C123 C 0.04373 0.81435 0.28804 0.0
C124 C 0.02495 0.83118 0.27045 0.0
C125 C 0.0194 0.81562 0.24076 0.0
H126 H 0.00196 0.67849 0.17946 0.0
C127 C 0.04523 0.78487 0.2762 0.0
C128 C 0.03258 0.78481 0.24732 0.0
H129 H 0.00512 0.75858 0.1282 0.0
H130 H 0.01453 0.78678 0.17425 0.0
H131 H 0.05656 0.68361 0.1983 0.0
H132 H 0.98017 0.70469 0.2544 0.0
H133 H 0.00512 0.67619 0.26742 0.0
H134 H 0.98685 0.67209 0.23235 0.0
H135 H 0.04517 0.65956 0.22769 0.0
H136 H 0.07222 0.68882 0.23398 0.0
C137 C 0.03796 0.83212 0.21687 0.0
C138 C 0.98531 0.81502 0.23344 0.0
C139 C 0.03714 0.70286 0.35268 0.0
C140 C 0.04069 0.6722 0.34958 0.0
C141 C 0.05086 0.66036 0.3222 0.0
C142 C 0.05424 0.67843 0.29728 0.0
C143 C 0.04727 0.70841 0.29991 0.0
C144 C 0.04202 0.72072 0.32761 0.0
C145 C 0.04325 0.75383 0.32644 0.0
C146 C 0.04834 0.75855 0.2927 0.0
C147 C 0.04679 0.73179 0.27757 0.0
C148 C 0.0697 0.76437 0.34648 0.0
C149 C 0.01256 0.76678 0.3369 0.0
C150 C 0.00322 0.70233 0.17835 0.0
C151 C 0.00207 0.71644 0.15071 0.0
C152 C 0.00535 0.74735 0.14957 0.0
C153 C 0.01126 0.76352 0.17606 0.0
C154 C 0.01512 0.74837 0.20333 0.0
C155 C 0.01175 0.71809 0.20366 0.0
C156 C 0.02427 0.70401 0.23123 0.0
C157 C 0.03539 0.73089 0.248 0.0
C158 C 0.02855 0.75716 0.23249 0.0
C159 C 0.05077 0.68283 0.22251 0.0
C160 C -0.00224 0.68843 0.24739 0.0
H161 H 0.07946 0.81569 0.32104 0.0
H162 H -0.00202 0.87142 0.26882 0.0
H163 H 0.97259 0.80368 0.25151 0.0
H164 H 0.98097 0.80334 0.21212 0.0
H165 H 0.97615 0.83775 0.23115 0.0
H166 H 0.06215 0.83378 0.22377 0.0
H167 H 0.02896 0.85484 0.21382 0.0
H168 H 0.03773 0.82114 0.19495 0.0
H169 H 0.03065 0.7125 0.37395 0.0
H170 H 0.05478 0.63688 0.31983 0.0
H171 H 0.06175 0.66851 0.27685 0.0
H172 H 0.07322 0.7497 0.36608 0.0
H173 H 0.06492 0.7863 0.35639 0.0
H174 H 0.09135 0.7649 0.33377 0.0
H175 H 0.9937 0.7586 0.32264 0.0
H176 H 0.0126 0.79116 0.33577 0.0
H177 H 0.00783 0.76058 0.36049 0.0
H178 H 0.06237 0.86313 0.34169 0.0
C179 C 0.06021 0.82676 0.31133 0.0
C180 C 0.28711 0.00585 0.15614 0.0
C181 C 0.31808 0.00745 0.14848 0.0
C182 C 0.33999 0.01079 0.17108 0.0
C183 C 0.30107 0.00834 0.20863 0.0
C184 C 0.27903 0.00689 0.18662 0.0
C185 C 0.24746 0.00754 0.19999 0.0
H186 H 0.1657 0.99621 0.32972 0.0
C187 C 0.28632 0.00637 0.23785 0.0
C188 C 0.25465 0.00581 0.23333 0.0
H189 H 0.1281 0.01894 0.24371 0.0
H190 H 0.17867 0.01347 0.22079 0.0
H191 H 0.21218 0.94675 0.30909 0.0
H192 H 0.21151 0.03889 0.32731 0.0
H193 H 0.24838 0.02904 0.33729 0.0
H194 H 0.21681 0.01233 0.35643 0.0
H195 H 0.21336 0.96179 0.3462 0.0
H196 H 0.24761 0.95277 0.32578 0.0
C197 C 0.22944 0.98062 0.18899 0.0
C198 C 0.23249 0.03721 0.19157 0.0
C199 C 0.34992 0.0027 0.33295 0.0
C200 C 0.34081 1.00063 0.36302 0.0
C201 C 0.31084 0.99364 0.37028 0.0
C202 C 0.28942 0.99029 0.34795 0.0
C203 C 0.29782 0.99496 0.31807 0.0
C204 C 0.32772 1.00003 0.31069 0.0
C205 C 0.33179 0.00398 0.27746 0.0
C206 C 0.29893 0.0026 0.2668 0.0
C207 C 0.27963 0.99737 0.29079 0.0
C208 C 0.35089 0.9775 0.26599 0.0
C209 C 0.34622 0.03461 0.27176 0.0
C210 C 0.16803 0.99948 0.30576 0.0
C211 C 0.14331 0.0081 0.28858 0.0
C212 C 0.14723 0.01255 0.25748 0.0
C213 C 0.17647 0.00967 0.2444 0.0
C214 C 0.20153 0.00277 0.26287 0.0
C215 C 0.19647 0.99773 0.29296 0.0
C216 C 0.22451 0.99409 0.31082 0.0
C217 C 0.248 0.9976 0.28685 0.0
C218 C 0.23506 0.00223 0.25847 0.0
C219 C 0.22453 0.96236 0.32392 0.0
C220 C 0.2255 0.01961 0.33433 0.0
H221 H 0.34955 0.01354 0.21706 0.0
H222 H 0.26991 0.00401 0.13894 0.0
H223 H 0.24885 0.05562 0.19426 0.0
H224 H 0.21305 0.04278 0.20605 0.0
H225 H 0.2248 0.037 0.16787 0.0
H226 H 0.24248 0.95999 0.19317 0.0
H227 H 0.22487 0.98218 0.16458 0.0
H228 H 0.20746 0.97853 0.20062 0.0
H229 H 0.37317 0.00778 0.32715 0.0
H230 H 0.30384 0.99161 0.39345 0.0
H231 H 0.26693 0.98548 0.35526 0.0
H232 H 0.34397 0.95679 0.27734 0.0
H233 H 0.3754 0.98084 0.27061 0.0
H234 H 0.34785 0.97297 0.24192 0.0
H235 H 0.34057 0.05043 0.29001 0.0
H236 H 0.33749 0.04527 0.25121 0.0
H237 H 0.37134 0.03303 0.27043 0.0
H238 H 0.36383 0.01268 0.16545 0.0
C239 C 0.33168 0.01115 0.20103 0.0
C240 C 0.99302 0.73191 0.85043 0.0
C241 C 0.00762 0.70454 0.85608 0.0
C242 C 0.03209 0.69547 0.83784 0.0
C243 C 0.01853 0.73283 0.80315 0.0
C244 C 0.00056 0.74682 0.82384 0.0
C245 C 0.98943 0.77602 0.81124 0.0
H246 H 0.97267 0.85722 0.68496 0.0
C247 C 0.01429 0.74626 0.77444 0.0
C248 C 0.00243 0.77441 0.77928 0.0
H249 H 0.02287 0.88907 0.76088 0.0
H250 H 0.0165 0.84139 0.7858 0.0
H251 H 0.01856 0.82058 0.68009 0.0
H252 H 0.93105 0.79214 0.71228 0.0
H253 H 0.94481 0.77089 0.68149 0.0
H254 H 0.93851 0.80964 0.67694 0.0
H255 H 0.99066 0.80623 0.65501 0.0
H256 H 0.01763 0.78285 0.67447 0.0
C257 C 0.00247 0.80148 0.82986 0.0
C258 C 0.95451 0.77716 0.8109 0.0
C259 C 0.98674 0.67408 0.69249 0.0
C260 C 0.98687 0.67764 0.66126 0.0
C261 C 0.98661 0.70626 0.64913 0.0
C262 C 0.98654 0.73084 0.66788 0.0
C263 C 0.98998 0.72673 0.6988 0.0
C264 C 0.99153 0.69869 0.71051 0.0
C265 C 0.00238 0.69847 0.74241 0.0
C266 C 0.00767 0.73135 0.74739 0.0
C267 C -0.00282 0.74742 0.72285 0.0
C268 C 0.03153 0.67949 0.74531 0.0
C269 C 0.97676 0.68673 0.76238 0.0
C270 C 0.97961 0.85485 0.70815 0.0
C271 C -0.00286 0.87668 0.72157 0.0
C272 C 0.00832 0.87264 0.75083 0.0
C273 C 0.00419 0.84549 0.76538 0.0
C274 C 0.98919 0.82269 0.75022 0.0
C275 C 0.97887 0.82714 0.7212 0.0
C276 C 0.97938 0.79921 0.70294 0.0
C277 C 0.99069 0.77765 0.72602 0.0
C278 C 0.99385 0.79111 0.754 0.0
C279 C 0.00243 0.80225 0.67664 0.0
C280 C 0.94669 0.79247 0.69274 0.0
H281 H 0.0558 0.70258 0.79646 0.0
H282 H 0.97528 0.74016 0.86501 0.0
H283 H 0.94517 0.75806 0.79836 0.0
H284 H 0.94641 0.7977 0.79992 0.0
H285 H 0.94534 0.77674 0.83406 0.0
H286 H 0.02733 0.80352 0.82625 0.0
H287 H -0.00154 0.7977 0.85412 0.0
H288 H 0.99111 0.82259 0.82416 0.0
H289 H 0.98709 0.65227 0.70228 0.0
H290 H 0.98739 0.70966 0.62515 0.0
H291 H 0.98549 0.75197 0.65738 0.0
H292 H 0.0311 0.65988 0.73053 0.0
H293 H 0.03387 0.67004 0.768 0.0
H294 H 0.05207 0.69243 0.73963 0.0
H295 H 0.95608 0.70078 0.76064 0.0
H296 H 0.98421 0.68648 0.78591 0.0
H297 H 0.97076 0.6638 0.75606 0.0
H298 H 0.04482 0.67561 0.84295 0.0
C299 C 0.03769 0.70982 0.81101 0.0
C300 C 0.29749 0.0028 0.86911 0.0
C301 C 0.32724 0.99464 0.87875 0.0
C302 C 0.34229 0.97156 0.86314 0.0
C303 C 0.30545 0.97397 0.82459 0.0
C304 C 0.28721 0.9923 0.84103 0.0
C305 C 0.25815 0.99867 0.82361 0.0
H306 H 0.20687 0.02492 0.68268 0.0
C307 C 0.29541 0.97323 0.79403 0.0
C308 C 0.26626 0.98568 0.79256 0.0
H309 H 0.14779 0.01136 0.75802 0.0
H310 H 0.19195 0.99774 0.78898 0.0
H311 H 0.28124 0.0426 0.71764 0.0
H312 H 0.22677 0.96934 0.68637 0.0
H313 H 0.26443 0.95709 0.68898 0.0
H314 H 0.25471 0.98627 0.66308 0.0
H315 H 0.2592 0.04158 0.68379 0.0
H316 H 0.29416 0.02287 0.68522 0.0
C317 C 0.25191 0.03202 0.82232 0.0
C318 C 0.2322 0.98199 0.83919 0.0
C319 C 0.37893 0.99441 0.72079 0.0
C320 C 0.37895 0.99682 0.68965 0.0
C321 C 0.35372 0.98741 0.67294 0.0
C322 C 0.3274 0.97838 0.68764 0.0
C323 C 0.32657 0.97973 0.71897 0.0
C324 C 0.35271 0.98466 0.73492 0.0
C325 C 0.34863 0.97949 0.76771 0.0
C326 C 0.31449 0.9727 0.76864 0.0
C327 C 0.30173 0.97643 0.74032 0.0
C328 C 0.3566 0.00825 0.78462 0.0
C329 C 0.3694 0.95336 0.7769 0.0
C330 C 0.20362 0.02099 0.70642 0.0
C331 C 0.1745 0.02033 0.71836 0.0
C332 C 0.17043 0.01302 0.7488 0.0
C333 C 0.19578 0.00536 0.76666 0.0
C334 C 0.22482 0.0047 0.75362 0.0
C335 C 0.22786 0.01128 0.72357 0.0
C336 C 0.25709 1.00077 0.71047 0.0
C337 C 0.27172 0.98718 0.73788 0.0
C338 C 0.25361 0.99117 0.76365 0.0
C339 C 0.27404 0.02827 0.69874 0.0
C340 C 0.25058 0.97732 0.68585 0.0
H341 H 0.34115 0.94159 0.8262 0.0
H342 H 0.2835 0.01767 0.88215 0.0
H343 H 0.23431 0.95786 0.83534 0.0
H344 H 0.20963 0.98941 0.8317 0.0
H345 H 0.23273 0.98598 0.86375 0.0
H346 H 0.27125 0.04364 0.81169 0.0
H347 H 0.24853 0.04114 0.84519 0.0
H348 H 0.23113 0.03678 0.80917 0.0
H349 H 0.39875 1.0005 0.73369 0.0
H350 H 0.35394 0.98849 0.64871 0.0
H351 H 0.30832 0.97201 0.6743 0.0
H352 H 0.34186 0.02674 0.777 0.0
H353 H 0.38062 0.01444 0.78081 0.0
H354 H 0.35388 0.00608 0.80909 0.0
H355 H 0.38933 0.9508 0.76185 0.0
H356 H 0.35686 0.9322 0.77623 0.0
H357 H 0.37937 0.95673 0.79943 0.0
H358 H 0.36417 0.96314 0.87025 0.0
C359 C 0.33035 0.96004 0.83701 0.0
C360 C 0.01298 0.18127 0.72267 0.0
C361 C 0.01799 0.17363 0.6919 0.0
C362 C 0.0303 0.19486 0.67279 0.0
C363 C 0.02613 0.23179 0.71126 0.0
C364 C 0.01841 0.21091 0.73218 0.0
C365 C 0.01632 0.22546 0.76333 0.0
H366 H -0.00027 0.36017 0.83606 0.0
C367 C 0.02378 0.26111 0.72466 0.0
C368 C 0.02041 0.25853 0.75584 0.0
H369 H 0.05215 0.28924 0.87375 0.0
H370 H 0.04453 0.26015 0.82755 0.0
H371 H 0.04492 0.35745 0.78988 0.0
H372 H 0.95201 0.32894 0.78642 0.0
H373 H 0.95952 0.34943 0.75377 0.0
H374 H 0.96327 0.36676 0.78991 0.0
H375 H 0.01446 0.3831 0.78387 0.0
H376 H 0.03333 0.36428 0.75338 0.0
C377 C 0.04203 0.21324 0.78315 0.0
C378 C 0.98513 0.21977 0.7775 0.0
C379 C 0.00478 0.34347 0.65122 0.0
C380 C 0.00231 0.374 0.65497 0.0
C381 C -0.00332 0.38561 0.6837 0.0
C382 C -0.00439 0.36697 0.70866 0.0
C383 C 0.00195 0.33674 0.70495 0.0
C384 C 0.00608 0.32555 0.67648 0.0
C385 C 0.01753 0.29447 0.67661 0.0
C386 C 0.01743 0.28798 0.70994 0.0
C387 C 0.00865 0.31271 0.72635 0.0
C388 C 0.05059 0.2948 0.66436 0.0
C389 C -0.00492 0.27497 0.65838 0.0
C390 C 0.00768 0.33753 0.83549 0.0
C391 C 0.02518 0.32666 0.85912 0.0
C392 C 0.03743 0.29779 0.85638 0.0
C393 C 0.03271 0.28078 0.82989 0.0
C394 C 0.01611 0.29288 0.8058 0.0
C395 C 0.00553 0.32164 0.80875 0.0
C396 C 0.00081 0.3363 0.77917 0.0
C397 C 0.00809 0.31143 0.75795 0.0
C398 C 0.01542 0.28506 0.77314 0.0
C399 C 0.02425 0.36176 0.77628 0.0
C400 C 0.9672 0.34612 0.77706 0.0
H401 H 0.04269 0.23854 0.66587 0.0
H402 H 0.00465 0.16505 0.73833 0.0
H403 H 0.96665 0.2276 0.76249 0.0
H404 H 0.98309 0.23161 0.79921 0.0
H405 H 0.98193 0.19586 0.78168 0.0
H406 H 0.06425 0.22278 0.77668 0.0
H407 H 0.04367 0.18889 0.78093 0.0
H408 H 0.03768 0.21771 0.8071 0.0
H409 H 0.00954 0.33415 0.62935 0.0
H410 H 0.99461 0.40919 0.68697 0.0
H411 H 0.99161 0.37712 0.73001 0.0
H412 H 0.0622 0.31577 0.66996 0.0
H413 H 0.05104 0.29224 0.63962 0.0
H414 H 0.06536 0.2779 0.67479 0.0
H415 H 0.97604 0.28792 0.64854 0.0
H416 H 0.98412 0.25803 0.67256 0.0
H417 H 0.00644 0.26379 0.63929 0.0
H418 H 0.03557 0.18947 0.64968 0.0
C419 C 0.0342 0.22361 0.68216 0.0
C420 C 0.86496 0.05202 0.75697 0.0
C421 C 0.87476 0.04115 0.72872 0.0
C422 C 0.85874 0.01781 0.71517 0.0
C423 C 0.8194 0.02357 0.75109 0.0
C424 C 0.83695 0.04186 0.76836 0.0
C425 C 0.81981 0.0501 0.79679 0.0
H426 H 0.68011 0.0634 0.8597 0.0
C427 C 0.78841 0.02499 0.76138 0.0
C428 C 0.78853 0.03661 0.79039 0.0
H429 H 0.7507 0.01294 0.90252 0.0
H430 H 0.78379 0.02049 0.85874 0.0
H431 H 0.71553 0.10611 0.80635 0.0
H432 H 0.68727 0.01553 0.81461 0.0
H433 H 0.67613 0.02778 0.77978 0.0
H434 H 0.66016 0.04523 0.81232 0.0
H435 H 0.67621 0.09588 0.80636 0.0
H436 H 0.69857 0.09498 0.77248 0.0
C437 C 0.81781 0.0838 0.80023 0.0
C438 C 0.83549 0.03602 0.824 0.0
C439 C 0.71236 0.03387 0.67763 0.0
C440 C 0.68198 0.04231 0.67688 0.0
C441 C 0.66749 0.0527 0.70287 0.0
C442 C 0.68355 0.05421 0.72982 0.0
C443 C 0.71366 0.04372 0.73073 0.0
C444 C 0.72758 0.03413 0.70479 0.0
C445 C 0.75981 0.02478 0.70923 0.0
C446 C 0.76244 0.02836 0.74303 0.0
C447 C 0.73581 0.04046 0.75505 0.0
C448 C 0.77975 0.04694 0.69174 0.0
C449 C 0.76386 0.99235 0.69863 0.0
C450 C 0.70358 0.05615 0.86077 0.0
C451 C 0.71335 0.03881 0.88478 0.0
C452 C 0.74327 0.02748 0.88474 0.0
C453 C 0.76243 0.03215 0.85985 0.0
C454 C 0.7511 0.04751 0.83489 0.0
C455 C 0.72127 0.05741 0.83502 0.0
C456 C 0.70784 0.05828 0.804 0.0
C457 C 0.73454 0.04787 0.78568 0.0
C458 C 0.76037 0.0444 0.80351 0.0
C459 C 0.69881 0.09042 0.79677 0.0
C460 C 0.68124 0.03593 0.80238 0.0
H461 H 0.81958 0.99084 0.7159 0.0
H462 H 0.87797 0.06844 0.7689 0.0
H463 H 0.83315 0.01165 0.82353 0.0
H464 H 0.82581 0.04467 0.84518 0.0
H465 H 0.86008 0.04137 0.82411 0.0
H466 H 0.80724 0.09391 0.78008 0.0
H467 H 0.84075 0.09338 0.80331 0.0
H468 H 0.80384 0.08979 0.82006 0.0
H469 H 0.7237 0.0262 0.65751 0.0
H470 H 0.64396 0.05971 0.70216 0.0
H471 H 0.67176 0.06304 0.74885 0.0
H472 H 0.77781 0.06938 0.70161 0.0
H473 H 0.77265 0.04826 0.66791 0.0
H474 H 0.8039 0.04084 0.69116 0.0
H475 H 0.74269 0.98274 0.68935 0.0
H476 H 0.77049 0.97769 0.71744 0.0
H477 H 0.7812 0.99053 0.68066 0.0
H478 H 0.86662 0.0078 0.69452 0.0
C479 C 0.83145 0.00832 0.72691 0.0
C480 C 0.28042 0.18567 0.01425 0.0
C481 C 0.30712 0.17736 0.99801 0.0
C482 C 0.31324 0.1911 0.97041 0.0
C483 C 0.27515 0.22693 0.98131 0.0
C484 C 0.26365 0.21062 0.00432 0.0
C485 C 0.23621 0.22701 0.01764 0.0
H486 H 0.16958 0.3638 0.03131 0.0
C487 C 0.26388 0.25658 0.98348 0.0
C488 C 0.23703 0.25647 0.00028 0.0
H489 H 0.11553 0.28666 0.0152 0.0
H490 H 0.16247 0.25711 0.00816 0.0
H491 H 0.23794 0.33105 0.06247 0.0
H492 H 0.19664 0.35804 0.97905 0.0
H493 H 0.23566 0.35877 0.97272 0.0
H494 H 0.21917 0.38316 0.00051 0.0
H495 H 0.22277 0.36699 0.05425 0.0
H496 H 0.26022 0.35721 0.04309 0.0
C497 C 0.24065 0.23199 0.05144 0.0
C498 C 0.2072 0.20942 0.01144 0.0
C499 C 0.3488 0.32836 0.00234 0.0
C500 C 0.34841 0.35876 0.00741 0.0
C501 C 0.32134 0.37491 0.0044 0.0
C502 C 0.2943 0.36059 0.99835 0.0
C503 C 0.2945 0.32991 0.99539 0.0
C504 C 0.32155 0.31454 0.99508 0.0
C505 C 0.31727 0.28269 0.98734 0.0
C506 C 0.28255 0.28176 0.98409 0.0
C507 C 0.26987 0.30884 0.99209 0.0
C508 C 0.32885 0.26382 0.01383 0.0
C509 C 0.33472 0.27581 0.95807 0.0
C510 C 0.16754 0.34016 0.02839 0.0
C511 C 0.13906 0.32763 0.0243 0.0
C512 C 0.13736 0.29686 0.01884 0.0
C513 C 0.16426 0.27968 0.01543 0.0
C514 C 0.19271 0.29338 0.01807 0.0
C515 C 0.19359 0.32345 0.02338 0.0
C516 C 0.22344 0.33682 0.01568 0.0
C517 C 0.24016 0.31016 0.00376 0.0
C518 C 0.22326 0.28424 0.00736 0.0
C519 C 0.23702 0.34874 0.04527 0.0
C520 C 0.21866 0.36057 0.99093 0.0
H521 H 0.30257 0.22746 0.94142 0.0
H522 H 0.27436 0.17453 0.03477 0.0
H523 H 0.20141 0.20987 0.98722 0.0
H524 H 0.18786 0.21829 0.02453 0.0
H525 H 0.21031 0.18606 0.0183 0.0
H526 H 0.26224 0.24381 0.05581 0.0
H527 H 0.24131 0.21064 0.06355 0.0
H528 H 0.22168 0.24541 0.06071 0.0
H529 H 0.36979 0.31593 0.00388 0.0
H530 H 0.32106 0.39859 0.00766 0.0
H531 H 0.27428 0.37393 0.99714 0.0
H532 H 0.31559 0.26857 0.03448 0.0
H533 H 0.35316 0.26819 0.01853 0.0
H534 H 0.32721 0.24004 0.00901 0.0
H535 H 0.32041 0.28034 0.9381 0.0
H536 H 0.34289 0.25271 0.95739 0.0
H537 H 0.3556 0.28926 0.95598 0.0
H538 H 0.33237 0.18414 0.95683 0.0
C539 C 0.29694 0.21596 0.96181 0.0
C540 C 0.25934 0.86742 0.01642 0.0
C541 C 0.28876 0.87626 0.02622 0.0
C542 C 0.30339 0.85998 0.04886 0.0
C543 C 0.26628 0.82216 0.04349 0.0
C544 C 0.2478 0.84013 0.0268 0.0
C545 C 0.21798 0.82415 0.0202 0.0
H546 H 0.15128 0.68943 0.00636 0.0
C547 C 0.25483 0.79241 0.04255 0.0
C548 C 0.22432 0.7934 0.03356 0.0
H549 H 0.10552 0.7583 0.05515 0.0
H550 H 0.15139 0.78969 0.0509 0.0
H551 H 0.20659 0.72288 0.96553 0.0
H552 H 0.19006 0.69228 0.05517 0.0
H553 H 0.2291 0.6888 0.05082 0.0
H554 H 0.2041 0.66774 0.02686 0.0
H555 H 0.2015 0.68498 0.97578 0.0
H556 H 0.23822 0.70193 0.97693 0.0
C557 C 0.21254 0.82235 0.98622 0.0
C558 C 0.19159 0.84001 0.03599 0.0
C559 C 0.33529 0.71659 0.01656 0.0
C560 C 0.33357 0.68618 0.01145 0.0
C561 C 0.3054 0.67206 0.01116 0.0
C562 C 0.27895 0.68823 0.01569 0.0
C563 C 0.28092 0.71853 0.02187 0.0
C564 C 0.30878 0.7321 0.02313 0.0
C565 C 0.30663 0.76377 0.03277 0.0
C566 C 0.27233 0.76668 0.03735 0.0
C567 C 0.25784 0.74073 0.02886 0.0
C568 C 0.31823 0.78311 0.00672 0.0
C569 C 0.32519 0.76824 0.06195 0.0
C570 C 0.15012 0.71202 0.01428 0.0
C571 C 0.12477 0.72171 0.03006 0.0
C572 C 0.12474 0.75062 0.04216 0.0
C573 C 0.15076 0.76887 0.03924 0.0
C574 C 0.1768 0.75769 0.02474 0.0
C575 C 0.17637 0.7288 0.01457 0.0
C576 C 0.20713 0.71495 0.01419 0.0
C577 C 0.22629 0.74042 0.02429 0.0
C578 C 0.20909 0.76618 0.02811 0.0
C579 C 0.21391 0.70546 0.98152 0.0
C580 C 0.2078 0.68948 0.03767 0.0
H581 H 0.30332 0.82058 0.07507 0.0
H582 H 0.24687 0.88037 0.0002 0.0
H583 H 0.19377 0.83817 0.06071 0.0
H584 H 0.16953 0.83067 0.02895 0.0
H585 H 0.19132 0.86377 0.02999 0.0
H586 H 0.23212 0.81154 0.97487 0.0
H587 H 0.20946 0.84472 0.97658 0.0
H588 H 0.19184 0.80935 0.98132 0.0
H589 H 0.35705 0.72756 0.0173 0.0
H590 H 0.30396 0.64848 0.00758 0.0
H591 H 0.25818 0.67628 0.0143 0.0
H592 H 0.3043 0.77963 0.98626 0.0
H593 H 0.3422 0.77761 0.00129 0.0
H594 H 0.31758 0.80683 0.01219 0.0
H595 H 0.34211 0.75041 0.06579 0.0
H596 H 0.3102 0.76871 0.08195 0.0
H597 H 0.33861 0.78884 0.06118 0.0
H598 H 0.32489 0.86723 0.05798 0.0
C599 C 0.29189 0.83295 0.05791 0.0
C600 C 0.89252 0.3013 0.00292 0.0
C601 C 0.89952 0.33187 0.00149 0.0
C602 C 0.87656 0.35207 0.99424 0.0
C603 C 0.83998 0.31321 0.99166 0.0
C604 C 0.86203 0.29237 0.99784 0.0
C605 C 0.84824 0.26147 0.99751 0.0
H606 H 0.71174 0.18731 0.00813 0.0
C607 C 0.81051 0.29888 0.98959 0.0
C608 C 0.81426 0.26826 0.99321 0.0
H609 H 0.79711 0.14448 0.99008 0.0
H610 H 0.82302 0.19276 0.99189 0.0
H611 H 0.72906 0.24514 0.04747 0.0
H612 H 0.7224 0.22029 0.95495 0.0
H613 H 0.71403 0.2579 0.9546 0.0
H614 H 0.68979 0.23298 0.97516 0.0
H615 H 0.69434 0.23606 0.02862 0.0
H616 H 0.70843 0.27309 0.02924 0.0
C617 C 0.85456 0.24574 0.02733 0.0
C618 C 0.86144 0.24453 0.97057 0.0
C619 C 0.7186 0.36559 0.98595 0.0
C620 C 0.6876 0.35966 0.98594 0.0
C621 C 0.67722 0.33053 0.98406 0.0
C622 C 0.69777 0.30721 0.98447 0.0
C623 C 0.72895 0.31324 0.98583 0.0
C624 C 0.73881 0.34197 0.98532 0.0
C625 C 0.77254 0.34421 0.98576 0.0
C626 C 0.78142 0.31186 0.98735 0.0
C627 C 0.75586 0.29417 0.98817 0.0
C628 C 0.78144 0.36145 0.01463 0.0
C629 C 0.78233 0.35859 0.95567 0.0
C630 C 0.73623 0.18801 0.00567 0.0
C631 C 0.75235 0.16242 0.99947 0.0
C632 C 0.78416 0.1642 0.9951 0.0
C633 C 0.79899 0.19204 0.99581 0.0
C634 C 0.78148 0.21795 0.99946 0.0
C635 C 0.75045 0.21503 0.00346 0.0
C636 C 0.73325 0.24264 0.99826 0.0
C637 C 0.75878 0.26373 0.99309 0.0
C638 C 0.7876 0.25005 0.99469 0.0
C639 C 0.71511 0.24974 0.02721 0.0
C640 C 0.71365 0.2384 0.96947 0.0
H641 H 0.83154 0.36005 0.98389 0.0
H642 H 0.90998 0.28521 0.00794 0.0
H643 H 0.85856 0.2575 0.94965 0.0
H644 H 0.85006 0.22325 0.96704 0.0
H645 H 0.88607 0.24025 0.97383 0.0
H646 H 0.84551 0.25893 0.04637 0.0
H647 H 0.87934 0.24261 0.03071 0.0
H648 H 0.84375 0.2238 0.02791 0.0
H649 H 0.72683 0.38799 0.98756 0.0
H650 H 0.65313 0.32587 0.98428 0.0
H651 H 0.68828 0.28562 0.98511 0.0
H652 H 0.76464 0.35804 0.03289 0.0
H653 H 0.7826 0.38551 0.01035 0.0
H654 H 0.80312 0.35401 0.02456 0.0
H655 H 0.76502 0.35556 0.93779 0.0
H656 H 0.80316 0.34837 0.94627 0.0
H657 H 0.78588 0.38266 0.95826 0.0
H658 H 0.88118 0.37549 0.99307 0.0
C659 C 0.84734 0.34296 0.98896 0.0
C660 C 0.87673 0.73633 0.98799 0.0
C661 C 0.88311 0.70796 0.00032 0.0
C662 C 0.86655 0.69842 0.02538 0.0
C663 C 0.83178 0.73836 0.01847 0.0
C664 C 0.85094 0.75202 0.99874 0.0
C665 C 0.83733 0.78192 0.98988 0.0
H666 H 0.70444 0.85506 0.96613 0.0
C667 C 0.80223 0.75233 0.01705 0.0
C668 C 0.8055 0.78022 0.00398 0.0
H669 H 0.77359 0.89687 0.0188 0.0
H670 H 0.8051 0.85146 0.01585 0.0
H671 H 0.73479 0.79566 0.93207 0.0
H672 H 0.70493 0.82288 0.01959 0.0
H673 H 0.69657 0.78572 0.01818 0.0
H674 H 0.67852 0.81042 0.99183 0.0
H675 H 0.69573 0.80172 0.94184 0.0
H676 H 0.71381 0.76637 0.94709 0.0
C677 C 0.83569 0.78498 0.95563 0.0
C678 C 0.85608 0.80686 0.0038 0.0
C679 C 0.7165 0.67951 0.00974 0.0
C680 C 0.68594 0.68288 0.00243 0.0
C681 C 0.67433 0.71021 0.99335 0.0
C682 C 0.69349 0.73439 0.99171 0.0
C683 C 0.724 0.73114 0.00049 0.0
C684 C 0.73498 0.70409 0.00943 0.0
C685 C 0.76775 0.7046 0.01816 0.0
C686 C 0.77422 0.7374 0.01477 0.0
C687 C 0.74898 0.75201 0.00294 0.0
C688 C 0.78516 0.68546 0.99501 0.0
C689 C 0.7713 0.69343 0.05085 0.0
C690 C 0.72744 0.85547 0.97485 0.0
C691 C 0.73682 0.87943 0.99183 0.0
C692 C 0.76612 0.87869 0.00498 0.0
C693 C 0.78433 0.85278 0.00307 0.0
C694 C 0.77247 0.82754 0.98898 0.0
C695 C 0.74322 0.82905 0.9774 0.0
C696 C 0.7267 0.80054 0.98056 0.0
C697 C 0.7512 0.7814 0.99363 0.0
C698 C 0.77874 0.79626 0.99602 0.0
C699 C 0.71698 0.79041 0.94887 0.0
C700 C 0.70012 0.80489 0.00339 0.0
H701 H 0.8284 0.70597 0.0537 0.0
H702 H 0.89052 0.74515 0.97013 0.0
H703 H 0.85517 0.80593 0.02866 0.0
H704 H 0.84751 0.82865 0.99636 0.0
H705 H 0.88021 0.80497 0.99678 0.0
H706 H 0.82252 0.76656 0.94572 0.0
H707 H 0.85882 0.78477 0.94573 0.0
H708 H 0.82446 0.80605 0.94937 0.0
H709 H 0.72545 0.65832 0.01674 0.0
H710 H 0.65056 0.71272 0.98762 0.0
H711 H 0.68356 0.75453 0.98392 0.0
H712 H 0.78305 0.69498 0.97217 0.0
H713 H 0.77601 0.66271 0.99439 0.0
H714 H 0.80947 0.68311 0.0001 0.0
H715 H 0.74984 0.68472 0.06035 0.0
H716 H 0.7784 0.71143 0.06615 0.0
H717 H 0.78806 0.67512 0.05229 0.0
H718 H 0.87237 0.67796 0.03653 0.0
C719 C 0.84108 0.71394 0.03492 0.0
C720 C 0.52493 0.80219 0.66042 0.0
C721 C 0.53689 0.83012 0.65157 0.0
C722 C 0.56066 0.84234 0.66848 0.0
C723 C 0.55268 0.80624 0.70674 0.0
C724 C 0.53454 0.78986 0.6882 0.0
C725 C 0.52701 0.7605 0.70359 0.0
H726 H 0.51462 0.69048 0.83907 0.0
C727 C 0.55301 0.79345 0.73644 0.0
C728 C 0.54186 0.76451 0.73472 0.0
H729 H 0.5495 0.64361 0.76268 0.0
H730 H 0.55023 0.69022 0.73379 0.0
H731 H 0.57036 0.71953 0.83189 0.0
H732 H 0.48101 0.75387 0.81327 0.0
H733 H 0.50047 0.77788 0.83772 0.0
H734 H 0.49384 0.74076 0.84908 0.0
H735 H 0.54832 0.73644 0.86094 0.0
H736 H 0.5738 0.75702 0.83686 0.0
C737 C 0.5412 0.73492 0.6858 0.0
C738 C 0.49246 0.75685 0.70629 0.0
C739 C 0.54019 0.86729 0.82159 0.0
C740 C 0.53822 0.86318 0.85275 0.0
C741 C 0.5426 0.835 0.86486 0.0
C742 C 0.54589 0.81072 0.84628 0.0
C743 C 0.54612 0.81462 0.81515 0.0
C744 C 0.54537 0.84261 0.80322 0.0
C745 C 0.5502 0.8422 0.76979 0.0
C746 C 0.55306 0.80888 0.76405 0.0
C747 C 0.54794 0.79336 0.79045 0.0
C748 C 0.57936 0.85967 0.76247 0.0
C749 C 0.52193 0.85548 0.75429 0.0
C750 C 0.52021 0.68956 0.81544 0.0
C751 C 0.53043 0.66313 0.80296 0.0
C752 C 0.54019 0.66345 0.77263 0.0
C753 C 0.54015 0.69018 0.75577 0.0
C754 C 0.53105 0.7168 0.76957 0.0
C755 C 0.52362 0.71588 0.79974 0.0
C756 C 0.52997 0.74432 0.81529 0.0
C757 C 0.53987 0.7633 0.78945 0.0
C758 C 0.53836 0.7481 0.76203 0.0
C759 C 0.55667 0.73926 0.83767 0.0
C760 C 0.4999 0.75494 0.82976 0.0
H761 H 0.58759 0.83931 0.70818 0.0
H762 H 0.50777 0.79139 0.64706 0.0
H763 H 0.48224 0.77589 0.71841 0.0
H764 H 0.48699 0.73644 0.71883 0.0
H765 H 0.48183 0.75539 0.68377 0.0
H766 H 0.56635 0.73523 0.68755 0.0
H767 H 0.53493 0.73653 0.66174 0.0
H768 H 0.53272 0.71347 0.69392 0.0
H769 H 0.53745 0.88901 0.81193 0.0
H770 H 0.54149 0.83156 0.88885 0.0
H771 H 0.54678 0.78989 0.8572 0.0
H772 H 0.58469 0.87634 0.77992 0.0
H773 H 0.57684 0.87254 0.74153 0.0
H774 H 0.59938 0.84479 0.76069 0.0
H775 H 0.50123 0.84288 0.76023 0.0
H776 H 0.52423 0.85526 0.72961 0.0
H777 H 0.51847 0.87879 0.76118 0.0
H778 H 0.57148 0.86254 0.66137 0.0
C779 C 0.56893 0.83015 0.6959 0.0
C780 C 0.38549 0.53654 0.79415 0.0
C781 C 0.39125 0.54362 0.82487 0.0
C782 C 0.36994 0.56122 0.8402 0.0
C783 C 0.33495 0.55672 0.79959 0.0
C784 C 0.35657 0.54363 0.78178 0.0
C785 C 0.34392 0.5398 0.75002 0.0
H786 H 0.20856 0.52869 0.67168 0.0
C787 C 0.30587 0.55667 0.78442 0.0
C788 C 0.31018 0.54796 0.75442 0.0
H789 H 0.29582 0.53294 0.62869 0.0
H790 H 0.32065 0.53729 0.67845 0.0
H791 H 0.22136 0.49214 0.7247 0.0
H792 H 0.22082 0.58368 0.70539 0.0
H793 H 0.20717 0.58249 0.74216 0.0
H794 H 0.18717 0.563 0.71291 0.0
H795 H 0.18753 0.51381 0.72775 0.0
H796 H 0.21176 0.50699 0.75955 0.0
C797 C 0.34804 0.50787 0.73922 0.0
C798 C 0.36004 0.56191 0.72943 0.0
C799 C 0.214 0.54641 0.85112 0.0
C800 C 0.18303 0.54437 0.84472 0.0
C801 C 0.1726 0.54691 0.8152 0.0
C802 C 0.19323 0.55025 0.79191 0.0
C803 C 0.22443 0.5515 0.79845 0.0
C804 C 0.23423 0.55075 0.82767 0.0
C805 C 0.2676 0.55618 0.83057 0.0
C806 C 0.27667 0.55739 0.79751 0.0
C807 C 0.25139 0.5535 0.77938 0.0
C808 C 0.28199 0.5296 0.84711 0.0
C809 C 0.27178 0.58596 0.84732 0.0
C810 C 0.23314 0.53 0.67268 0.0
C811 C 0.25012 0.53034 0.64665 0.0
C812 C 0.28215 0.53262 0.64881 0.0
C813 C 0.29639 0.53543 0.67741 0.0
C814 C 0.27817 0.53682 0.70341 0.0
C815 C 0.24705 0.53441 0.69999 0.0
C816 C 0.22956 0.54055 0.72746 0.0
C817 C 0.25487 0.54681 0.74888 0.0
C818 C 0.28387 0.54417 0.73568 0.0
C819 C 0.21146 0.51217 0.73539 0.0
C820 C 0.20991 0.56869 0.72185 0.0
H821 H 0.32775 0.58299 0.83933 0.0
H822 H 0.40247 0.5255 0.78064 0.0
H823 H 0.35808 0.58463 0.73861 0.0
H824 H 0.35021 0.56222 0.70675 0.0
H825 H 0.38455 0.55631 0.72747 0.0
H826 H 0.33686 0.49238 0.75493 0.0
H827 H 0.37251 0.50201 0.73786 0.0
H828 H 0.33793 0.50477 0.71673 0.0
H829 H 0.22204 0.54551 0.87403 0.0
H830 H 0.14856 0.54583 0.81023 0.0
H831 H 0.18394 0.55117 0.76981 0.0
H832 H 0.27775 0.50883 0.83459 0.0
H833 H 0.2723 0.52726 0.86992 0.0
H834 H 0.3067 0.53172 0.85004 0.0
H835 H 0.25008 0.59559 0.85561 0.0
H836 H 0.28169 0.60295 0.83241 0.0
H837 H 0.2863 0.58333 0.86748 0.0
H838 H 0.37402 0.56852 0.86297 0.0
C839 C 0.34256 0.56876 0.82717 0.0
C840 C 0.48671 0.36368 0.78581 0.0
C841 C 0.4985 0.37143 0.81465 0.0
C842 C 0.51872 0.35187 0.82878 0.0
C843 C 0.50726 0.31473 0.79229 0.0
C844 C 0.49283 0.33488 0.77432 0.0
C845 C 0.48546 0.32034 0.74403 0.0
H846 H 0.46654 0.18668 0.67217 0.0
C847 C 0.50422 0.28545 0.77955 0.0
C848 C 0.49534 0.288 0.74944 0.0
H849 H 0.51504 0.25695 0.62955 0.0
H850 H 0.51148 0.28646 0.67612 0.0
H851 H 0.51801 0.1903 0.71134 0.0
H852 H 0.42589 0.21694 0.7296 0.0
H853 H 0.43911 0.19473 0.75932 0.0
H854 H 0.43735 0.17959 0.72212 0.0
H855 H 0.48993 0.16374 0.72166 0.0
H856 H 0.51288 0.18333 0.7488 0.0
C857 C 0.50401 0.33511 0.71917 0.0
C858 C 0.45128 0.32251 0.73749 0.0
C859 C 0.48825 0.20403 0.8556 0.0
C860 C 0.48809 0.17324 0.8521 0.0
C861 C 0.4843 0.16125 0.82329 0.0
C862 C 0.4813 0.17957 0.79843 0.0
C863 C 0.48532 0.21009 0.80187 0.0
C864 C 0.48922 0.22184 0.83011 0.0
C865 C 0.49826 0.25375 0.82924 0.0
C866 C 0.4994 0.25891 0.79541 0.0
C867 C 0.48997 0.23385 0.77996 0.0
C868 C 0.52955 0.25749 0.84479 0.0
C869 C 0.47306 0.27222 0.84444 0.0
C870 C 0.47415 0.20936 0.67179 0.0
C871 C 0.48954 0.21986 0.64664 0.0
C872 C 0.50176 0.24871 0.64809 0.0
C873 C 0.4994 0.26592 0.67481 0.0
C874 C 0.48534 0.25397 0.70041 0.0
C875 C 0.47495 0.22518 0.69867 0.0
C876 C 0.47535 0.21021 0.72852 0.0
C877 C 0.48509 0.23501 0.74872 0.0
C878 C 0.48905 0.26147 0.73288 0.0
C879 C 0.49991 0.18536 0.72772 0.0
C880 C 0.44281 0.19958 0.73541 0.0
H881 H 0.54026 0.30995 0.82772 0.0
H882 H 0.47276 0.37904 0.77334 0.0
H883 H 0.43797 0.31255 0.75599 0.0
H884 H 0.4457 0.31065 0.71642 0.0
H885 H 0.44415 0.3459 0.735 0.0
H886 H 0.52853 0.32968 0.72143 0.0
H887 H 0.50135 0.35946 0.72028 0.0
H888 H 0.496 0.32814 0.69677 0.0
H889 H 0.49124 0.21378 0.87755 0.0
H890 H 0.48435 0.13762 0.81986 0.0
H891 H 0.47725 0.16894 0.77742 0.0
H892 H 0.53614 0.23845 0.85885 0.0
H893 H 0.52946 0.27646 0.86049 0.0
H894 H 0.54807 0.26005 0.82813 0.0
H895 H 0.45096 0.26906 0.83287 0.0
H896 H 0.47828 0.29602 0.84423 0.0
H897 H 0.47036 0.2656 0.86823 0.0
H898 H 0.52981 0.35799 0.84953 0.0
C899 C 0.52365 0.32378 0.81729 0.0
C900 C 0.77589 0.52247 0.68216 0.0
C901 C 0.80766 0.52317 0.67662 0.0
C902 C 0.82795 0.52189 0.70066 0.0
C903 C 0.78656 0.51648 0.73511 0.0
C904 C 0.76572 0.51926 0.71216 0.0
C905 C 0.73339 0.5188 0.72463 0.0
H906 H 0.64989 0.49226 0.85312 0.0
C907 C 0.77053 0.51054 0.76302 0.0
C908 C 0.73902 0.51155 0.75779 0.0
H909 H 0.61254 0.52899 0.7721 0.0
H910 H 0.66252 0.52369 0.74749 0.0
H911 H 0.6927 0.4432 0.823 0.0
H912 H 0.69853 0.53099 0.85673 0.0
H913 H 0.73408 0.51645 0.86536 0.0
H914 H 0.70071 0.49954 0.88081 0.0
H915 H 0.69508 0.45162 0.86214 0.0
H916 H 0.7286 0.44443 0.83987 0.0
C917 C 0.71466 0.49482 0.70894 0.0
C918 C 0.71952 0.54976 0.72061 0.0
C919 C 0.83313 0.49038 0.85565 0.0
C920 C 0.82515 0.48105 0.88442 0.0
C921 C 0.79538 0.47244 0.89073 0.0
C922 C 0.77308 0.47484 0.86873 0.0
C923 C 0.78091 0.48587 0.84032 0.0
C924 C 0.81066 0.49237 0.8339 0.0
C925 C 0.81505 0.50194 0.80214 0.0
C926 C 0.78244 0.50201 0.79109 0.0
C927 C 0.76287 0.49313 0.81363 0.0
C928 C 0.83497 0.47815 0.78626 0.0
C929 C 0.82859 0.53349 0.80254 0.0
C930 C 0.65191 0.49872 0.82982 0.0
C931 C 0.62749 0.51143 0.81492 0.0
C932 C 0.6314 0.51979 0.78455 0.0
C933 C 0.66028 0.51696 0.77043 0.0
C934 C 0.68518 0.50611 0.78708 0.0
C935 C 0.68 0.49695 0.81618 0.0
C936 C 0.70784 0.48877 0.83275 0.0
C937 C 0.73135 0.49494 0.80945 0.0
C938 C 0.71878 0.50459 0.78204 0.0
C939 C 0.70608 0.45537 0.84012 0.0
C940 C 0.71058 0.50968 0.86044 0.0
H941 H 0.83476 0.51776 0.74646 0.0
H942 H 0.75984 0.52405 0.66388 0.0
H943 H 0.73501 0.56684 0.7297 0.0
H944 H 0.69775 0.55228 0.73245 0.0
H945 H 0.7157 0.55452 0.69649 0.0
H946 H 0.72613 0.47304 0.71097 0.0
H947 H 0.71188 0.49989 0.68476 0.0
H948 H 0.6918 0.49294 0.71899 0.0
H949 H 0.85627 0.49646 0.8504 0.0
H950 H 0.78933 0.46478 0.91289 0.0
H951 H 0.75053 0.46896 0.87515 0.0
H952 H 0.83556 0.45698 0.79879 0.0
H953 H 0.85883 0.48553 0.78386 0.0
H954 H 0.82603 0.47209 0.76391 0.0
H955 H 0.8196 0.5465 0.82177 0.0
H956 H 0.82237 0.54663 0.78261 0.0
H957 H 0.85369 0.5328 0.80462 0.0
H958 H 0.85225 0.5228 0.69689 0.0
C959 C 0.81767 0.51867 0.72959 0.0
C960 C 0.50813 0.2375 0.36311 0.0
C961 C 0.52136 0.20959 0.37045 0.0
C962 C 0.54212 0.19675 0.35026 0.0
C963 C 0.52698 0.23153 0.3129 0.0
C964 C 0.51305 0.24904 0.33389 0.0
C965 C 0.50293 0.27792 0.31902 0.0
H966 H 0.47823 0.34601 0.18324 0.0
C967 C 0.5204 0.24274 0.28324 0.0
C968 C 0.51152 0.27232 0.28594 0.0
H969 H 0.53788 0.38468 0.24851 0.0
H970 H 0.53227 0.34054 0.28057 0.0
H971 H 0.5225 0.29992 0.18261 0.0
H972 H 0.43385 0.29816 0.22284 0.0
H973 H 0.43933 0.26443 0.20398 0.0
H974 H 0.43995 0.29844 0.1831 0.0
H975 H 0.48893 0.29461 0.16057 0.0
H976 H 0.50973 0.26443 0.17718 0.0
C977 C 0.52035 0.30393 0.33256 0.0
C978 C 0.46847 0.28233 0.32257 0.0
C979 C 0.49325 0.16472 0.20632 0.0
C980 C 0.48733 0.16783 0.17558 0.0
C981 C 0.47672 0.19502 0.16463 0.0
C982 C 0.47542 0.2196 0.18337 0.0
C983 C 0.48696 0.21737 0.2126 0.0
C984 C 0.49501 0.19014 0.22403 0.0
C985 C 0.50908 0.19244 0.25472 0.0
C986 C 0.51035 0.2259 0.2584 0.0
C987 C 0.49587 0.23997 0.23449 0.0
C988 C 0.54093 0.17761 0.25508 0.0
C989 C 0.48722 0.17827 0.27746 0.0
C990 C 0.48828 0.34616 0.2054 0.0
C991 C 0.50725 0.36936 0.21385 0.0
C992 C 0.52208 0.36765 0.24199 0.0
C993 C 0.51856 0.34251 0.26065 0.0
C994 C 0.50052 0.31887 0.25083 0.0
C995 C 0.48728 0.32055 0.22268 0.0
C996 C 0.4814 0.29063 0.20956 0.0
C997 C 0.49251 0.27095 0.23452 0.0
C998 C 0.50127 0.28734 0.25969 0.0
C999 C 0.50124 0.28703 0.18087 0.0
C1000 C 0.44686 0.2876 0.20433 0.0
H1001 H 0.56097 0.19774 0.30621 0.0
H1002 H 0.49328 0.24875 0.37872 0.0
H1003 H 0.456 0.2631 0.31339 0.0
H1004 H 0.46085 0.30236 0.31036 0.0
H1005 H 0.46232 0.28497 0.34655 0.0
H1006 H 0.5449 0.30239 0.32702 0.0
H1007 H 0.51793 0.30412 0.35733 0.0
H1008 H 0.5112 0.32515 0.32412 0.0
H1009 H 0.50067 0.14367 0.21516 0.0
H1010 H 0.47146 0.19774 0.1411 0.0
H1011 H 0.46774 0.23984 0.17355 0.0
H1012 H 0.54453 0.16185 0.23647 0.0
H1013 H 0.54433 0.16423 0.27557 0.0
H1014 H 0.55929 0.19419 0.2533 0.0
H1015 H 0.46473 0.1895 0.27709 0.0
H1016 H 0.49616 0.17949 0.30057 0.0
H1017 H 0.4838 0.15461 0.27205 0.0
H1018 H 0.55393 0.17651 0.35596 0.0
C1019 C 0.54512 0.20782 0.32139 0.0
C1020 C 0.75929 0.51349 0.35616 0.0
C1021 C 0.78802 0.50509 0.36804 0.0
C1022 C 0.80356 0.48083 0.35552 0.0
C1023 C 0.7691 0.48159 0.31431 0.0
C1024 C 0.74957 0.50009 0.3292 0.0
C1025 C 0.72104 0.50496 0.3104 0.0
H1026 H 0.66164 0.50322 0.1696 0.0
C1027 C 0.75986 0.4793 0.28342 0.0
C1028 C 0.72946 0.48838 0.28134 0.0
H1029 H 0.60931 0.47605 0.24608 0.0
H1030 H 0.65589 0.47692 0.27724 0.0
H1031 H 0.7182 0.54638 0.20402 0.0
H1032 H 0.70073 0.45681 0.17745 0.0
H1033 H 0.74024 0.45974 0.1775 0.0
H1034 H 0.71804 0.48219 0.15206 0.0
H1035 H 0.71099 0.53403 0.16644 0.0
H1036 H 0.74843 0.53275 0.18195 0.0
C1037 C 0.71613 0.53805 0.30454 0.0
C1038 C 0.69362 0.4916 0.32664 0.0
C1039 C 0.84516 0.50187 0.2109 0.0
C1040 C 0.84532 0.50596 0.17982 0.0
C1041 C 0.81858 0.50189 0.16325 0.0
C1042 C 0.79154 0.49502 0.17761 0.0
C1043 C 0.79129 0.49188 0.20883 0.0
C1044 C 0.81797 0.49392 0.22487 0.0
C1045 C 0.81342 0.48783 0.25764 0.0
C1046 C 0.77921 0.48173 0.25823 0.0
C1047 C 0.76652 0.48644 0.22998 0.0
C1048 C 0.82178 0.51594 0.2754 0.0
C1049 C 0.83316 0.46097 0.26684 0.0
C1050 C 0.65966 0.49902 0.19342 0.0
C1051 C 0.63195 0.49052 0.2056 0.0
C1052 C 0.63046 0.48351 0.23645 0.0
C1053 C 0.65687 0.4849 0.25459 0.0
C1054 C 0.68448 0.49375 0.2417 0.0
C1055 C 0.68557 0.49903 0.21122 0.0
C1056 C 0.71712 0.49814 0.19899 0.0
C1057 C 0.7349 0.49072 0.22694 0.0
C1058 C 0.71613 0.49054 0.25234 0.0
C1059 C 0.72428 0.52935 0.18706 0.0
C1060 C 0.71929 0.47316 0.17513 0.0
H1061 H 0.80592 0.4504 0.31878 0.0
H1062 H 0.74618 0.53107 0.36633 0.0
H1063 H 0.69415 0.46715 0.32535 0.0
H1064 H 0.67203 0.49991 0.31712 0.0
H1065 H 0.6936 0.49809 0.35066 0.0
H1066 H 0.73656 0.5478 0.29392 0.0
H1067 H 0.71151 0.55 0.3258 0.0
H1068 H 0.69649 0.54154 0.28933 0.0
H1069 H 0.86573 0.50473 0.22384 0.0
H1070 H 0.81854 0.50483 0.13917 0.0
H1071 H 0.77185 0.49309 0.16379 0.0
H1072 H 0.80717 0.53481 0.26853 0.0
H1073 H 0.84584 0.52202 0.2715 0.0
H1074 H 0.81921 0.51298 0.29981 0.0
H1075 H 0.85292 0.45767 0.25173 0.0
H1076 H 0.8198 0.44029 0.26634 0.0
H1077 H 0.84315 0.46395 0.28941 0.0
H1078 H 0.82459 0.47294 0.3653 0.0
C1079 C 0.79381 0.46867 0.32859 0.0
C1080 C 0.53808 0.68764 0.23238 0.0
C1081 C 0.54332 0.67966 0.20183 0.0
C1082 C 0.5548 0.70088 0.18224 0.0
C1083 C 0.55296 0.73785 0.22094 0.0
C1084 C 0.54353 0.71729 0.24161 0.0
C1085 C 0.53921 0.73201 0.2723 0.0
H1086 H 0.55951 0.86254 0.35187 0.0
C1087 C 0.55529 0.76678 0.23529 0.0
C1088 C 0.5488 0.76406 0.26605 0.0
H1089 H 0.5131 0.78655 0.38596 0.0
H1090 H 0.52465 0.75943 0.33923 0.0
H1091 H 0.61237 0.83361 0.30805 0.0
H1092 H 0.52102 0.86439 0.30449 0.0
H1093 H 0.53147 0.86648 0.267 0.0
H1094 H 0.55144 0.8882 0.29455 0.0
H1095 H 0.6 0.87128 0.31089 0.0
H1096 H 0.60882 0.85476 0.27513 0.0
C1097 C 0.56001 0.71718 0.29551 0.0
C1098 C 0.50546 0.73005 0.28095 0.0
C1099 C 0.55615 0.85712 0.17003 0.0
C1100 C 0.55771 0.88717 0.17687 0.0
C1101 C 0.56787 0.89618 0.20526 0.0
C1102 C 0.57308 0.87525 0.2277 0.0
C1103 C 0.56776 0.8453 0.22152 0.0
C1104 C 0.56143 0.8366 0.19266 0.0
C1105 C 0.56025 0.80377 0.18952 0.0
C1106 C 0.5615 0.79454 0.22233 0.0
C1107 C 0.56565 0.81897 0.24075 0.0
C1108 C 0.58899 0.79415 0.17165 0.0
C1109 C 0.52977 0.79542 0.17443 0.0
C1110 C 0.55276 0.83967 0.3499 0.0
C1111 C 0.53599 0.82664 0.37264 0.0
C1112 C 0.52641 0.79709 0.3687 0.0
C1113 C 0.53266 0.78163 0.34152 0.0
C1114 C 0.5473 0.79639 0.31777 0.0
C1115 C 0.55654 0.82518 0.32263 0.0
C1116 C 0.56476 0.84085 0.29462 0.0
C1117 C 0.56139 0.81648 0.27197 0.0
C1118 C 0.55188 0.78969 0.28505 0.0
C1119 C 0.59819 0.85091 0.29719 0.0
C1120 C 0.54129 0.86636 0.28979 0.0
H1121 H 0.56774 0.74421 0.17501 0.0
H1122 H 0.52942 0.67165 0.24811 0.0
H1123 H 0.49088 0.73832 0.26243 0.0
H1124 H 0.50008 0.74343 0.3009 0.0
H1125 H 0.49906 0.70686 0.28561 0.0
H1126 H 0.58404 0.71793 0.288 0.0
H1127 H 0.55364 0.69373 0.29863 0.0
H1128 H 0.55855 0.72836 0.31749 0.0
H1129 H 0.54956 0.84992 0.14784 0.0
H1130 H 0.56994 0.91939 0.21049 0.0
H1131 H 0.57982 0.88328 0.24926 0.0
H1132 H 0.60505 0.81257 0.16765 0.0
H1133 H 0.58291 0.78535 0.14923 0.0
H1134 H 0.60248 0.77737 0.18398 0.0
H1135 H 0.51054 0.80707 0.18554 0.0
H1136 H 0.52461 0.77174 0.17568 0.0
H1137 H 0.52974 0.80159 0.15039 0.0
H1138 H 0.55907 0.6955 0.15894 0.0
C1139 C 0.55979 0.72946 0.19161 0.0
C1140 C 0.37761 0.56037 0.22401 0.0
C1141 C 0.38835 0.54846 0.19647 0.0
C1142 C 0.37682 0.52134 0.1863 0.0
C1143 C 0.33777 0.52441 0.22318 0.0
C1144 C 0.35259 0.5466 0.23802 0.0
C1145 C 0.33538 0.55436 0.26665 0.0
H1146 H 0.19656 0.56483 0.32981 0.0
C1147 C 0.30716 0.52225 0.23461 0.0
C1148 C 0.30625 0.5363 0.26263 0.0
H1149 H 0.27002 0.52648 0.38001 0.0
H1150 H 0.30277 0.52834 0.33495 0.0
H1151 H 0.22964 0.59876 0.26823 0.0
H1152 H 0.20287 0.51306 0.29918 0.0
H1153 H 0.19922 0.51093 0.26073 0.0
H1154 H 0.17617 0.53718 0.2813 0.0
H1155 H 0.1911 0.58774 0.27453 0.0
H1156 H 0.20964 0.58114 0.23918 0.0
C1157 C 0.32863 0.58763 0.26822 0.0
C1158 C 0.35379 0.54418 0.294 0.0
C1159 C 0.22722 0.51738 0.15295 0.0
C1160 C 0.19603 0.52301 0.15354 0.0
C1161 C 0.18162 0.53074 0.18047 0.0
C1162 C 0.19828 0.53366 0.20662 0.0
C1163 C 0.2295 0.52765 0.20608 0.0
C1164 C 0.24351 0.51934 0.17972 0.0
C1165 C 0.27714 0.51529 0.18333 0.0
C1166 C 0.28041 0.52029 0.21708 0.0
C1167 C 0.25268 0.52909 0.22944 0.0
C1168 C 0.29275 0.53971 0.16476 0.0
C1169 C 0.28633 0.48374 0.17326 0.0
C1170 C 0.22043 0.5592 0.3319 0.0
C1171 C 0.23114 0.54684 0.35838 0.0
C1172 C 0.2617 0.53717 0.35995 0.0
C1173 C 0.28062 0.5386 0.33429 0.0
C1174 C 0.26838 0.5489 0.30712 0.0
C1175 C 0.23794 0.55679 0.30614 0.0
C1176 C 0.22411 0.55119 0.27603 0.0
C1177 C 0.25123 0.53961 0.25908 0.0
C1178 C 0.27756 0.5411 0.27636 0.0
C1179 C 0.21278 0.58114 0.26369 0.0
C1180 C 0.19912 0.52714 0.27924 0.0
H1181 H 0.34235 0.48884 0.19127 0.0
H1182 H 0.38738 0.58021 0.23327 0.0
H1183 H 0.35572 0.51976 0.29456 0.0
H1184 H 0.34308 0.55191 0.31506 0.0
H1185 H 0.37707 0.55348 0.29325 0.0
H1186 H 0.31592 0.59494 0.24802 0.0
H1187 H 0.35003 0.60037 0.26967 0.0
H1188 H 0.31477 0.59293 0.2883 0.0
H1189 H 0.23862 0.51225 0.13208 0.0
H1190 H 0.15755 0.53581 0.18091 0.0
H1191 H 0.18609 0.54117 0.22588 0.0
H1192 H 0.28629 0.56192 0.17326 0.0
H1193 H 0.28602 0.53833 0.14083 0.0
H1194 H 0.31767 0.53812 0.1651 0.0
H1195 H 0.26753 0.47185 0.16198 0.0
H1196 H 0.29316 0.46993 0.19266 0.0
H1197 H 0.30526 0.48418 0.15687 0.0
H1198 H 0.38601 0.51089 0.1664 0.0
C1199 C 0.35155 0.50899 0.19991 0.0
C1200 C 0.79815 0.68394 0.50351 0.0
C1201 C 0.82833 0.6739 0.49727 0.0
C1202 C 0.84823 0.69323 0.48269 0.0
C1203 C 0.81218 0.73285 0.48692 0.0
C1204 C 0.7905 0.714 0.49786 0.0
C1205 C 0.76036 0.7306 0.50182 0.0
H1206 H 0.69397 0.86987 0.50566 0.0
C1207 C 0.80039 0.76296 0.48672 0.0
C1208 C 0.76933 0.76255 0.49427 0.0
H1209 H 0.64477 0.78884 0.51566 0.0
H1210 H 0.69246 0.76051 0.509 0.0
H1211 H 0.74949 0.8514 0.54491 0.0
H1212 H 0.72903 0.85237 0.45134 0.0
H1213 H 0.76785 0.86054 0.45274 0.0
H1214 H 0.74088 0.88486 0.47086 0.0
H1215 H 0.74839 0.88442 0.523 0.0
H1216 H 0.78279 0.86348 0.52797 0.0
C1217 C 0.74934 0.72763 0.53434 0.0
C1218 C 0.73736 0.7183 0.47914 0.0
C1219 C 0.87686 0.84523 0.49644 0.0
C1220 C 0.87324 0.8758 0.49903 0.0
C1221 C 0.84503 0.88881 0.49229 0.0
C1222 C 0.81987 0.87126 0.48615 0.0
C1223 C 0.82304 0.84045 0.48682 0.0
C1224 C 0.85145 0.828 0.48985 0.0
C1225 C 0.85086 0.79517 0.48596 0.0
C1226 C 0.81657 0.78978 0.48459 0.0
C1227 C 0.80073 0.81637 0.48595 0.0
C1228 C 0.86581 0.78085 0.51379 0.0
C1229 C 0.86736 0.78789 0.45603 0.0
C1230 C 0.69324 0.846 0.50658 0.0
C1231 C 0.66586 0.83173 0.51137 0.0
C1232 C 0.66586 0.80047 0.51218 0.0
C1233 C 0.69335 0.78414 0.50809 0.0
C1234 C 0.72076 0.7993 0.50274 0.0
C1235 C 0.71974 0.82981 0.50204 0.0
C1236 C 0.74954 0.84354 0.49588 0.0
C1237 C 0.76922 0.81662 0.49189 0.0
C1238 C 0.753 0.79014 0.49622 0.0
C1239 C 0.75818 0.86185 0.5241 0.0
C1240 C 0.74685 0.86147 0.46635 0.0
H1241 H 0.85608 0.73526 0.46538 0.0
H1242 H 0.7815 0.66919 0.51293 0.0
H1243 H 0.74707 0.71846 0.45616 0.0
H1244 H 0.71629 0.7315 0.4785 0.0
H1245 H 0.73138 0.69522 0.4848 0.0
H1246 H 0.76715 0.73523 0.55015 0.0
H1247 H 0.74403 0.7043 0.53959 0.0
H1248 H 0.72871 0.74098 0.53843 0.0
H1249 H 0.89873 0.83505 0.50058 0.0
H1250 H 0.8421 0.91248 0.49371 0.0
H1251 H 0.79865 0.8824 0.48285 0.0
H1252 H 0.85466 0.78882 0.53465 0.0
H1253 H 0.8903 0.78635 0.51505 0.0
H1254 H 0.86442 0.75666 0.51382 0.0
H1255 H 0.87579 0.80781 0.44423 0.0
H1256 H 0.85193 0.77692 0.43985 0.0
H1257 H 0.88761 0.77369 0.45978 0.0
H1258 H 0.871 0.68629 0.47663 0.0
C1259 C 0.83996 0.72206 0.47675 0.0
C1260 C 0.77663 0.36947 0.49231 0.0
C1261 C 0.80582 0.38231 0.49536 0.0
C1262 C 0.83008 0.36504 0.50562 0.0
C1263 C 0.79824 0.32231 0.50649 0.0
C1264 C 0.77327 0.33903 0.49868 0.0
C1265 C 0.74471 0.32008 0.49853 0.0
H1266 H 0.68924 0.1802 0.52622 0.0
C1267 C 0.78917 0.29167 0.50996 0.0
C1268 C 0.7575 0.28958 0.50684 0.0
H1269 H 0.63559 0.25332 0.49454 0.0
H1270 H 0.68077 0.2851 0.4959 0.0
H1271 H 0.73215 0.18959 0.4772 0.0
H1272 H 0.73732 0.21093 0.5705 0.0
H1273 H 0.77264 0.19556 0.56031 0.0
H1274 H 0.73863 0.17418 0.5556 0.0
H1275 H 0.74536 0.16324 0.50401 0.0
H1276 H 0.77095 0.18784 0.48496 0.0
C1277 C 0.73104 0.32029 0.46681 0.0
C1278 C 0.72257 0.33188 0.52238 0.0
C1279 C 0.87173 0.21512 0.50547 0.0
C1280 C 0.87152 0.18452 0.50741 0.0
C1281 C 0.84472 0.16975 0.51532 0.0
C1282 C 0.81784 0.1856 0.51997 0.0
C1283 C 0.81806 0.2164 0.5167 0.0
C1284 C 0.84497 0.23057 0.51077 0.0
C1285 C 0.84178 0.26327 0.51082 0.0
C1286 C 0.8075 0.26633 0.5134 0.0
C1287 C 0.79392 0.23897 0.51705 0.0
C1288 C 0.8543 0.27488 0.48058 0.0
C1289 C 0.85863 0.27486 0.53913 0.0
C1290 C 0.68681 0.20333 0.5206 0.0
C1291 C 0.65887 0.2144 0.51112 0.0
C1292 C 0.65691 0.2444 0.50258 0.0
C1293 C 0.68308 0.26264 0.50311 0.0
C1294 C 0.7114 0.25037 0.5113 0.0
C1295 C 0.7125 0.22089 0.5193 0.0
C1296 C 0.74393 0.20899 0.52159 0.0
C1297 C 0.76202 0.23654 0.51666 0.0
C1298 C 0.7434 0.26134 0.51087 0.0
C1299 C 0.74851 0.18612 0.49587 0.0
C1300 C 0.74854 0.19653 0.55357 0.0
H1301 H 0.84609 0.32388 0.51854 0.0
H1302 H 0.75735 0.38265 0.48534 0.0
H1303 H 0.73403 0.33336 0.54451 0.0
H1304 H 0.70271 0.31744 0.52512 0.0
H1305 H 0.71428 0.35424 0.51626 0.0
H1306 H 0.74866 0.31449 0.44995 0.0
H1307 H 0.72189 0.34247 0.46125 0.0
H1308 H 0.71259 0.30413 0.46439 0.0
H1309 H 0.89239 0.22669 0.49984 0.0
H1310 H 0.8445 0.14594 0.51699 0.0
H1311 H 0.79793 0.17324 0.52541 0.0
H1312 H 0.84582 0.26125 0.46165 0.0
H1313 H 0.87949 0.274 0.48023 0.0
H1314 H 0.84745 0.29763 0.47535 0.0
H1315 H 0.86527 0.25697 0.55489 0.0
H1316 H 0.84405 0.2898 0.55267 0.0
H1317 H 0.87986 0.28649 0.53302 0.0
H1318 H 0.85236 0.37457 0.50897 0.0
C1319 C 0.82639 0.33545 0.51134 0.0
C1320 C 0.36331 0.80102 0.51384 0.0
C1321 C 0.37066 0.83106 0.50816 0.0
C1322 C 0.34829 0.84972 0.49628 0.0
C1323 C 0.3106 0.81219 0.50297 0.0
C1324 C 0.33267 0.79177 0.51008 0.0
C1325 C 0.31856 0.76104 0.51223 0.0
H1326 H 0.18275 0.68886 0.53856 0.0
C1327 C 0.2807 0.79889 0.50685 0.0
C1328 C 0.28427 0.76827 0.51089 0.0
H1329 H 0.25666 0.64936 0.48988 0.0
H1330 H 0.28566 0.69545 0.49453 0.0
H1331 H 0.21347 0.73803 0.5824 0.0
H1332 H 0.18356 0.73161 0.49127 0.0
H1333 H 0.1751 0.76774 0.50121 0.0
H1334 H 0.15747 0.73798 0.5214 0.0
H1335 H 0.17423 0.73778 0.5717 0.0
H1336 H 0.19529 0.77168 0.57452 0.0
C1337 C 0.32729 0.74591 0.54176 0.0
C1338 C 0.32955 0.74307 0.48494 0.0
C1339 C 0.1918 0.86863 0.52152 0.0
C1340 C 0.16095 0.86348 0.5266 0.0
C1341 C 0.15122 0.83543 0.53538 0.0
C1342 C 0.17198 0.81211 0.53709 0.0
C1343 C 0.20243 0.81684 0.52881 0.0
C1344 C 0.21198 0.84489 0.52201 0.0
C1345 C 0.24448 0.84573 0.51217 0.0
C1346 C 0.25273 0.81312 0.51329 0.0
C1347 C 0.22815 0.79662 0.52322 0.0
C1348 C 0.26173 0.86425 0.53578 0.0
C1349 C 0.24574 0.85829 0.4798 0.0
C1350 C 0.206 0.68933 0.5306 0.0
C1351 C 0.21768 0.66535 0.51482 0.0
C1352 C 0.24739 0.66743 0.5029 0.0
C1353 C 0.26421 0.694 0.50564 0.0
C1354 C 0.25086 0.71876 0.5196 0.0
C1355 C 0.22157 0.71596 0.53064 0.0
C1356 C 0.20573 0.74483 0.534 0.0
C1357 C 0.23052 0.76571 0.52519 0.0
C1358 C 0.25782 0.751 0.51789 0.0
C1359 C 0.19642 0.7484 0.56729 0.0
C1360 C 0.17892 0.74576 0.51113 0.0
H1361 H 0.30261 0.85613 0.48513 0.0
H1362 H 0.38054 0.78573 0.52153 0.0
H1363 H 0.31804 0.75054 0.46412 0.0
H1364 H 0.32591 0.71927 0.48788 0.0
H1365 H 0.35441 0.74565 0.48177 0.0
H1366 H 0.3204 0.75972 0.5612 0.0
H1367 H 0.35219 0.7421 0.54289 0.0
H1368 H 0.31584 0.72425 0.54363 0.0
H1369 H 0.1995 0.89017 0.51446 0.0
H1370 H 0.12737 0.83129 0.53937 0.0
H1371 H 0.16307 0.79107 0.54327 0.0
H1372 H 0.25792 0.85525 0.55862 0.0
H1373 H 0.25354 0.88745 0.53559 0.0
H1374 H 0.28641 0.86482 0.53247 0.0
H1375 H 0.22311 0.85879 0.46878 0.0
H1376 H 0.25987 0.84439 0.46476 0.0
H1377 H 0.25452 0.88118 0.47965 0.0
H1378 H 0.35357 0.87237 0.4907 0.0
C1379 C 0.31855 0.8404 0.49345 0.0
C1380 C 0.36099 0.23493 0.51383 0.0
C1381 C 0.36645 0.20454 0.50852 0.0
C1382 C 0.34188 0.18586 0.50282 0.0
C1383 C 0.30683 0.22551 0.51283 0.0
C1384 C 0.33056 0.24512 0.51523 0.0
C1385 C 0.31866 0.2764 0.51969 0.0
H1386 H 0.18919 0.36138 0.52765 0.0
C1387 C 0.27837 0.24101 0.51946 0.0
C1388 C 0.28444 0.27123 0.52272 0.0
H1389 H 0.28037 0.39497 0.52436 0.0
H1390 H 0.30056 0.34441 0.5268 0.0
H1391 H 0.19297 0.30236 0.48795 0.0
H1392 H 0.20435 0.32432 0.58061 0.0
H1393 H 0.19672 0.28637 0.58114 0.0
H1394 H 0.16857 0.31193 0.56684 0.0
H1395 H 0.16454 0.31748 0.51253 0.0
H1396 H 0.17075 0.27871 0.51045 0.0
C1397 C 0.3265 0.2943 0.49148 0.0
C1398 C 0.33226 0.28952 0.54851 0.0
C1399 C 0.18332 0.18061 0.53397 0.0
C1400 C 0.15401 0.1879 0.54373 0.0
C1401 C 0.14755 0.21666 0.55353 0.0
C1402 C 0.16956 0.2386 0.55106 0.0
C1403 C 0.19837 0.23133 0.53953 0.0
C1404 C 0.20521 0.20251 0.53255 0.0
C1405 C 0.23765 0.19828 0.5234 0.0
C1406 C 0.24907 0.22973 0.52528 0.0
C1407 C 0.22575 0.24884 0.53381 0.0
C1408 C 0.23825 0.18614 0.49082 0.0
C1409 C 0.25271 0.17793 0.54705 0.0
C1410 C 0.21354 0.35795 0.5268 0.0
C1411 C 0.23311 0.38185 0.52457 0.0
C1412 C 0.2648 0.37662 0.52507 0.0
C1413 C 0.27639 0.34745 0.52621 0.0
C1414 C 0.25601 0.32365 0.52753 0.0
C1415 C 0.22522 0.32962 0.52907 0.0
C1416 C 0.20651 0.30319 0.53543 0.0
C1417 C 0.23049 0.27947 0.53367 0.0
C1418 C 0.25972 0.29105 0.52872 0.0
C1419 C 0.1823 0.30016 0.5104 0.0
C1420 C 0.19318 0.30652 0.56752 0.0
H1421 H 0.29478 0.18031 0.50129 0.0
H1422 H 0.37968 0.24986 0.51761 0.0
H1423 H 0.3293 0.27405 0.56755 0.0
H1424 H 0.32105 0.31042 0.55489 0.0
H1425 H 0.35691 0.29371 0.54573 0.0
H1426 H 0.31907 0.2824 0.47098 0.0
H1427 H 0.3514 0.29775 0.48991 0.0
H1428 H 0.31524 0.31599 0.49104 0.0
H1429 H 0.18891 0.15836 0.52694 0.0
H1430 H 0.12509 0.22235 0.56162 0.0
H1431 H 0.16292 0.26042 0.55732 0.0
H1432 H 0.21657 0.19048 0.47879 0.0
H1433 H 0.24215 0.16194 0.49047 0.0
H1434 H 0.25574 0.19697 0.47688 0.0
H1435 H 0.24551 0.18435 0.57004 0.0
H1436 H 0.27766 0.17908 0.54739 0.0
H1437 H 0.24601 0.15463 0.54348 0.0
H1438 H 0.34567 0.16266 0.49822 0.0
C1439 C 0.31228 0.19611 0.50494 0.0
Zn1440 Zn 0.95921 0.98543 0.44246 0.0
Zn1441 Zn 0.96663 0.05724 0.44768 0.0
O1442 O 0.98832 0.01861 0.45391 0.0
H1443 H 0.00204 0.01555 0.47041 0.0
C1444 C 0.96003 0.95829 0.54572 0.0
O1445 O 0.97211 0.97499 0.52501 0.0
Zn1446 Zn 0.0694 0.05726 0.56533 0.0
Zn1447 Zn 0.05512 0.98945 0.58195 0.0
O1448 O 0.03739 0.0258 0.56297 0.0
H1449 H 0.02377 0.02462 0.54615 0.0
Zn1450 Zn 0.97836 0.008 0.58068 0.0
O1451 O 0.96733 0.03227 0.54426 0.0
Zn1452 Zn 0.9654 0.06951 0.56564 0.0
H1453 H 0.97458 0.02995 0.52399 0.0
Zn1454 Zn 0.04986 0.99547 0.44914 0.0
O1455 O 0.0577 0.02696 0.47931 0.0
H1456 H 0.045 0.02975 0.49669 0.0
Zn1457 Zn 0.07174 0.05734 0.4519 0.0
C1458 C 0.08186 0.95736 0.48947 0.0
O1459 O 0.0841 0.98224 0.50423 0.0
O1460 O 0.92522 1.00064 0.41664 0.0
O1461 O 0.92773 0.04894 0.42442 0.0
O1462 O 0.08793 0.00269 0.60967 0.0
O1463 O 0.10613 0.04376 0.59022 0.0
O1464 O 0.96498 0.02841 0.6208 0.0
O1465 O 0.93876 0.0662 0.60307 0.0
C1466 C 0.01767 0.08426 0.41473 0.0
O1467 O 0.06181 0.00728 0.40573 0.0
O1468 O 0.09614 0.04103 0.41624 0.0
O1469 O 0.03544 0.96712 0.61655 0.0
C1470 C 0.91598 0.02661 0.41164 0.0
O1471 O 0.97341 0.95133 0.41545 0.0
C1472 C 0.02521 0.09199 0.59765 0.0
O1473 O 0.96269 0.96565 0.57309 0.0
C1474 C 0.10643 0.0239 0.61038 0.0
O1475 O 0.06696 0.95633 0.46509 0.0
C1476 C 0.95382 0.09893 0.50511 0.0
O1477 O 0.98903 0.08312 0.41663 0.0
O1478 O 0.0326 0.07124 0.43509 0.0
C1479 C 0.94579 0.04925 0.62487 0.0
O1480 O 0.0535 0.08988 0.59274 0.0
O1481 O 0.00779 0.0793 0.57893 0.0
C1482 C 0.08959 0.08836 0.50695 0.0
O1483 O 0.95329 0.09877 0.53386 0.0
O1484 O 0.96075 0.07546 0.49057 0.0
C1485 C 0.08377 0.02344 0.3975 0.0
O1486 O 0.09076 0.08838 0.47831 0.0
O1487 O 0.07795 0.0668 0.5209 0.0
C1488 C 0.02192 0.94262 0.61669 0.0
O1489 O 0.01579 0.92919 0.59135 0.0
C1490 C 0.99431 0.95603 0.39656 0.0
O1491 O 0.00903 0.98098 0.39798 0.0
Zn1492 Zn 0.45 0.06385 0.04893 0.0
Zn1493 Zn 0.46608 0.07751 0.97973 0.0
O1494 O 0.47033 0.04738 0.0121 0.0
H1495 H 0.48731 0.03389 0.01305 0.0
C1496 C 0.53804 0.09804 0.08181 0.0
O1497 O 0.52865 0.0742 0.06807 0.0
Zn1498 Zn 0.56781 0.96463 0.97377 0.0
Zn1499 Zn 0.58027 0.97277 0.04471 0.0
O1500 O 0.56289 0.99267 0.00803 0.0
H1501 H 0.54746 0.00784 0.00861 0.0
Zn1502 Zn 0.58644 0.09341 0.03811 0.0
O1503 O 0.56266 0.06745 0.01116 0.0
Zn1504 Zn 0.58416 0.06995 0.97309 0.0
H1505 H 0.54206 0.06082 0.01376 0.0
Zn1506 Zn 0.44784 0.95953 0.04401 0.0
O1507 O 0.47314 0.97706 0.01167 0.0
H1508 H 0.49475 0.98041 0.01224 0.0
Zn1509 Zn 0.4489 0.97406 0.97518 0.0
C1510 C 0.49832 0.95188 0.08411 0.0
O1511 O 0.5089 0.97378 0.06814 0.0
O1512 O 0.4206 0.09654 0.03715 0.0
O1513 O 0.43814 0.11237 0.99329 0.0
O1514 O 0.6134 0.9447 0.03094 0.0
O1515 O 0.59962 0.93181 0.98482 0.0
O1516 O 0.62974 0.10554 0.02414 0.0
O1517 O 0.62745 0.08814 0.97754 0.0
C1518 C 0.43056 0.0347 0.94476 0.0
O1519 O 0.40521 0.94447 0.03192 0.0
O1520 O 0.40666 0.95483 0.98328 0.0
O1521 O 0.60432 0.99838 0.07376 0.0
C1522 C 0.41907 0.11391 0.01499 0.0
O1523 O 0.42533 0.03596 0.07525 0.0
C1524 C 0.60149 0.01063 0.94376 0.0
O1525 O 0.56264 0.11035 0.07382 0.0
C1526 C 0.61835 0.93062 0.00689 0.0
O1527 O 0.47203 0.94174 0.07888 0.0
C1528 C 0.52694 0.09664 0.94729 0.0
O1529 O 0.43864 0.06128 0.94733 0.0
O1530 O 0.44469 0.01628 0.9612 0.0
C1531 C 0.64202 0.10115 0.99859 0.0
O1532 O 0.59328 0.98396 0.94175 0.0
O1533 O 0.58555 0.0279 0.95973 0.0
C1534 C 0.50383 0.94542 0.94462 0.0
O1535 O 0.55588 0.09371 0.94639 0.0
O1536 O 0.51134 0.08322 0.96704 0.0
C1537 C 0.39281 0.9445 0.00615 0.0
O1538 O 0.47519 0.94975 0.9468 0.0
O1539 O 0.52216 0.95808 0.96263 0.0
C1540 C 0.61624 0.02119 0.06259 0.0
O1541 O 0.6071 0.03058 0.03639 0.0
C1542 C 0.40591 0.02052 0.06145 0.0
O1543 O 0.40678 0.01923 0.03208 0.0
Zn1544 Zn 0.99494 0.4838 0.96055 0.0
Zn1545 Zn 0.97214 0.5536 0.95155 0.0
O1546 O 0.00964 0.52655 0.95196 0.0
H1547 H 0.02742 0.53022 0.93994 0.0
C1548 C 0.94288 0.4366 0.02463 0.0
O1549 O 0.91683 0.44655 0.03486 0.0
Zn1550 Zn 0.03827 0.56137 0.0765 0.0
Zn1551 Zn 0.03726 0.48765 0.07128 0.0
O1552 O 0.0108 0.52594 0.06869 0.0
H1553 H 0.02079 0.50696 0.06942 0.0
Zn1554 Zn 0.95737 0.49904 0.03591 0.0
O1555 O 0.97976 0.53584 0.02125 0.0
Zn1556 Zn 0.96885 0.56947 0.04994 0.0
H1557 H 0.9853 0.53743 0.00053 0.0
Zn1558 Zn 0.06581 0.49869 0.98876 0.0
O1559 O 0.04029 0.5359 0.0009 0.0
H1560 H 0.03752 0.53973 0.02193 0.0
Zn1561 Zn 0.05055 0.56979 0.97223 0.0
C1562 C 0.09236 0.4411 0.00432 0.0
O1563 O 0.11628 0.4559 0.99555 0.0
O1564 O 0.9486 0.48521 0.96394 0.0
O1565 O 0.93801 0.52769 0.9408 0.0
O1566 O 0.08204 0.50139 0.07325 0.0
O1567 O 0.07389 0.54348 0.0967 0.0
O1568 O 0.9352 0.5073 0.07546 0.0
O1569 O 0.94716 0.55405 0.08596 0.0
C1570 C -0.00062 0.60017 0.92484 0.0
O1571 O 0.09511 0.50759 0.95486 0.0
O1572 O 0.08286 0.55451 0.94549 0.0
O1573 O 0.02664 0.44691 0.09449 0.0
C1574 C 0.93058 0.50217 0.94987 0.0
O1575 O 0.00796 0.44326 0.93789 0.0
C1576 C 0.00513 0.60825 0.08903 0.0
O1577 O 0.9649 0.45454 0.02198 0.0
C1578 C 0.09217 0.52467 0.08567 0.0
O1579 O 0.06668 0.45435 0.00539 0.0
C1580 C 0.94418 0.60092 0.0019 0.0
O1581 O 0.97747 0.58267 0.92128 0.0
O1582 O 0.02154 0.59365 0.94245 0.0
C1583 C 0.93407 0.52993 0.0924 0.0
O1584 O 0.01758 0.58876 0.10522 0.0
O1585 O -0.0011 0.6017 0.06207 0.0
C1586 C 0.06798 0.6088 0.02318 0.0
O1587 O 0.9411 0.59719 0.02976 0.0
O1588 O 0.95581 0.57965 0.98668 0.0
C1589 C 0.09834 0.53137 0.94025 0.0
O1590 O 0.07017 0.60165 0.99577 0.0
O1591 O 0.05673 0.5901 0.042 0.0
C1592 C 0.01651 0.42314 0.08273 0.0
O1593 O 0.00883 0.42348 0.05438 0.0
C1594 C 0.03371 0.43234 0.93086 0.0
O1595 O 0.05817 0.44782 0.93608 0.0
Zn1596 Zn 0.45635 0.50322 0.99742 0.0
Zn1597 Zn 0.4711 0.48625 0.06914 0.0
O1598 O 0.4855 0.51078 0.03299 0.0
H1599 H 0.493 0.53063 0.03343 0.0
C1600 C 0.50097 0.45435 0.91111 0.0
O1601 O 0.49908 0.48315 0.91235 0.0
Zn1602 Zn 0.56444 0.55927 0.06092 0.0
Zn1603 Zn 0.57843 0.53047 0.99301 0.0
O1604 O 0.54745 0.53267 0.02754 0.0
H1605 H 0.5389 0.51349 0.03044 0.0
Zn1606 Zn 0.52952 0.4588 0.97571 0.0
O1607 O 0.51195 0.46222 0.0197 0.0
Zn1608 Zn 0.54498 0.46116 0.05272 0.0
H1609 H 0.49223 0.45416 0.0238 0.0
Zn1610 Zn 0.49714 0.59168 0.97445 0.0
O1611 O 0.51745 0.58405 0.01682 0.0
H1612 H 0.53866 0.58853 0.01956 0.0
Zn1613 Zn 0.48614 0.58922 0.05141 0.0
C1614 C 0.52433 0.59052 0.9089 0.0
O1615 O 0.52803 0.56207 0.91253 0.0
O1616 O 0.43183 0.46614 0.00493 0.0
O1617 O 0.44259 0.45673 0.05285 0.0
O1618 O 0.61097 0.56121 0.99925 0.0
O1619 O 0.59502 0.58356 0.04108 0.0
O1620 O 0.5721 0.4422 0.98216 0.0
O1621 O 0.57996 0.44386 0.03169 0.0
C1622 C 0.45228 0.5416 0.09461 0.0
O1623 O 0.45726 0.61298 0.983 0.0
O1624 O 0.45157 0.60928 0.03261 0.0
O1625 O 0.56805 0.52291 0.94706 0.0
C1626 C 0.42925 0.45056 0.02845 0.0
O1627 O 0.4609 0.5169 0.95179 0.0
C1628 C 0.57645 0.50982 0.09575 0.0
O1629 O 0.51001 0.44058 0.93459 0.0
C1630 C 0.61223 0.58197 0.01833 0.0
O1631 O 0.51485 0.6058 0.93121 0.0
C1632 C 0.51544 0.44143 0.10646 0.0
O1633 O 0.4487 0.51391 0.09544 0.0
O1634 O 0.46749 0.55268 0.07288 0.0
C1635 C 0.58835 0.43738 0.00524 0.0
O1636 O 0.58502 0.53602 0.09194 0.0
O1637 O 0.56348 0.49721 0.07354 0.0
C1638 C 0.52274 0.60672 0.10065 0.0
O1639 O 0.5354 0.43565 0.08684 0.0
O1640 O 0.49441 0.4603 0.10105 0.0
C1641 C 0.4425 0.61776 0.00701 0.0
O1642 O 0.50073 0.61533 0.08458 0.0
O1643 O 0.54131 0.58802 0.08943 0.0
C1644 C 0.59042 0.52534 0.92908 0.0
O1645 O 0.61729 0.53147 0.94008 0.0
C1646 C 0.4368 0.51605 0.93591 0.0
O1647 O 0.41131 0.50816 0.94876 0.0
Zn1648 Zn 0.94053 0.49391 0.45758 0.0
Zn1649 Zn 0.94613 0.56292 0.46449 0.0
O1650 O 0.96831 0.52614 0.46972 0.0
H1651 H 0.9901 0.52497 0.47159 0.0
C1652 C 0.88715 0.47289 0.50589 0.0
O1653 O 0.88522 0.50151 0.50946 0.0
Zn1654 Zn 0.08142 0.55952 0.56108 0.0
Zn1655 Zn 0.09212 0.49402 0.54827 0.0
O1656 O 0.06033 0.52512 0.54637 0.0
H1657 H 0.03869 0.52216 0.54759 0.0
Zn1658 Zn 0.93481 0.48661 0.5447 0.0
O1659 O 0.96088 0.52099 0.5327 0.0
Zn1660 Zn 0.95784 0.5513 0.56573 0.0
H1661 H 0.98049 0.51713 0.52385 0.0
Zn1662 Zn 0.09351 0.49063 0.47139 0.0
O1663 O 0.06673 0.52397 0.48669 0.0
H1664 H 0.04679 0.51849 0.4936 0.0
Zn1665 Zn 0.06947 0.55906 0.45936 0.0
C1666 C 0.14666 0.47388 0.50464 0.0
O1667 O 0.15157 0.50209 0.50059 0.0
O1668 O 0.89882 0.50816 0.44147 0.0
O1669 O 0.9048 0.5568 0.44284 0.0
O1670 O 0.13397 0.50846 0.56445 0.0
O1671 O 0.11889 0.54905 0.58764 0.0
O1672 O 0.90542 0.50128 0.57587 0.0
O1673 O 0.93035 0.53601 0.60082 0.0
C1674 C 0.00557 0.5886 0.43913 0.0
O1675 O 0.12002 0.50626 0.43868 0.0
O1676 O 0.09848 0.54836 0.42354 0.0
O1677 O 0.07142 0.45997 0.56994 0.0
C1678 C 0.88887 0.53411 0.43653 0.0
O1679 O 0.96375 0.46083 0.43619 0.0
C1680 C 0.01953 0.5818 0.58477 0.0
O1681 O 0.91054 0.45969 0.51581 0.0
C1682 C 0.13953 0.52977 0.58223 0.0
O1683 O 0.12106 0.46323 0.49728 0.0
C1684 C 0.92362 0.59194 0.52602 0.0
O1685 O 0.97658 0.5883 0.44209 0.0
O1686 O 0.02282 0.57083 0.45369 0.0
C1687 C 0.90692 0.51952 0.59733 0.0
O1688 O 0.04856 0.58298 0.58262 0.0
O1689 O 0.00408 0.56208 0.57125 0.0
C1690 C 0.10955 0.59435 0.50246 0.0
O1691 O 0.93072 0.58573 0.55273 0.0
O1692 O 0.9374 0.5768 0.50624 0.0
C1693 C 0.11946 0.52856 0.42169 0.0
O1694 O 0.0971 0.59115 0.47688 0.0
O1695 O 0.09869 0.58092 0.52502 0.0
C1696 C 0.04406 0.45316 0.56421 0.0
O1697 O 0.0298 0.46547 0.54161 0.0
C1698 C 0.99169 0.45641 0.44189 0.0
O1699 O 0.00536 0.47189 0.46269 0.0
Zn1700 Zn 0.48365 0.98838 0.46579 0.0
Zn1701 Zn 0.47642 0.06273 0.4695 0.0
O1702 O 0.50609 0.02767 0.47375 0.0
H1703 H 0.5196 0.02587 0.49029 0.0
C1704 C 0.44238 0.93177 0.51495 0.0
O1705 O 0.44222 0.94371 0.48823 0.0
Zn1706 Zn 0.55095 0.06798 0.55879 0.0
Zn1707 Zn 0.5515 0.99251 0.55953 0.0
O1708 O 0.52463 0.03069 0.55413 0.0
H1709 H 0.5056 0.0313 0.56468 0.0
Zn1710 Zn 0.46462 0.99236 0.547 0.0
O1711 O 0.47264 0.02929 0.52041 0.0
Zn1712 Zn 0.46509 0.06661 0.54526 0.0
H1713 H 0.46933 0.01077 0.5305 0.0
Zn1714 Zn 0.57454 0.99612 0.49426 0.0
O1715 O 0.56323 0.0375 0.51262 0.0
H1716 H 0.5689 0.01763 0.50707 0.0
Zn1717 Zn 0.55495 0.06557 0.47682 0.0
C1718 C 0.60551 0.94092 0.51711 0.0
O1719 O 0.62909 0.95841 0.51587 0.0
O1720 O 0.43986 0.99822 0.45657 0.0
O1721 O 0.43648 0.04694 0.45727 0.0
O1722 O 0.59428 0.00631 0.57125 0.0
O1723 O 0.58676 0.05395 0.58041 0.0
O1724 O 0.45826 0.00626 0.59065 0.0
O1725 O 0.4543 0.05495 0.58651 0.0
C1726 C 0.50982 0.10563 0.44366 0.0
O1727 O 0.58708 1.00167 0.45063 0.0
O1728 O 0.5643 0.04432 0.43915 0.0
O1729 O 0.54073 0.9487 0.57719 0.0
C1730 C 0.42445 0.02182 0.45379 0.0
O1731 O 0.49728 0.9463 0.44748 0.0
C1732 C 0.50746 0.11236 0.57605 0.0
O1733 O 0.45074 0.94733 0.53728 0.0
C1734 C 0.60376 0.03125 0.58031 0.0
O1735 O 0.57928 0.95176 0.51152 0.0
C1736 C 0.44129 0.10469 0.50955 0.0
O1737 O 0.49114 0.08597 0.43569 0.0
O1738 O 0.52542 0.10103 0.46744 0.0
C1739 C 0.45409 0.03171 0.60219 0.0
O1740 O 0.52962 0.09653 0.58467 0.0
O1741 O 0.49273 0.10464 0.55254 0.0
C1742 C 0.58715 0.10791 0.50638 0.0
O1743 O 0.42927 0.08502 0.52569 0.0
O1744 O 0.46715 0.09919 0.49758 0.0
C1745 C 0.57933 0.02138 0.43187 0.0
O1746 O 0.58704 0.09409 0.48171 0.0
O1747 O 0.57415 0.09641 0.52921 0.0
C1748 C 0.51608 0.93588 0.58466 0.0
O1749 O 0.49039 0.95018 0.58158 0.0
C1750 C 0.52171 0.93161 0.44324 0.0
O1751 O 0.54774 0.94306 0.4513 0.0
C1752 C 0.1356 0.13829 0.55706 0.0
C1753 C 0.13038 0.16517 0.54188 0.0
C1754 C 0.08931 0.14229 0.51399 0.0
C1755 C 0.10022 0.1144 0.5232 0.0
N1756 N 0.13636 0.08547 0.55153 0.0
N1757 N 0.10333 0.19234 0.50336 0.0
C1758 C 0.12359 0.11212 0.54482 0.0
C1759 C 0.10702 0.1674 0.52009 0.0
N1760 N 0.1531 0.13778 0.58228 0.0
N1761 N 0.06237 0.14464 0.49902 0.0
H1762 H 0.1163 0.21122 0.50615 0.0
H1763 H 0.08892 0.19337 0.48488 0.0
H1764 H 0.04866 0.12644 0.49472 0.0
H1765 H 0.05228 0.16483 0.49387 0.0
H1766 H 0.15579 0.11902 0.59545 0.0
H1767 H 0.16221 0.15697 0.59147 0.0
H1768 H 0.15554 0.08323 0.565 0.0
H1769 H 0.12953 0.06584 0.54154 0.0
C1770 C 0.92595 0.1706 0.51599 0.0
C1771 C 0.89886 0.16784 0.49904 0.0
C1772 C 0.92126 0.12791 0.46992 0.0
C1773 C 0.94523 0.12719 0.49076 0.0
N1774 N 0.97889 0.1562 0.52043 0.0
N1775 N 0.87483 0.15195 0.45325 0.0
C1776 C 0.95074 0.15225 0.5085 0.0
C1777 C 0.89783 0.14908 0.47362 0.0
N1778 N 0.92713 0.1884 0.54067 0.0
N1779 N 0.92159 0.10877 0.44663 0.0
H1780 H 0.85822 0.16835 0.45493 0.0
H1781 H 0.87296 0.13949 0.4338 0.0
H1782 H 0.94163 0.09803 0.44133 0.0
H1783 H 0.90373 0.10539 0.43182 0.0
H1784 H 0.94564 0.18895 0.55514 0.0
H1785 H 0.90873 0.20088 0.54818 0.0
H1786 H 0.98505 0.17491 0.53249 0.0
H1787 H -0.00343 0.1415 0.51565 0.0
C1788 C 0.89136 0.90819 0.54023 0.0
C1789 C 0.89738 0.89396 0.51262 0.0
C1790 C 0.94797 0.91566 0.51208 0.0
C1791 C 0.93954 0.93417 0.53645 0.0
N1792 N 0.89903 0.95252 0.56857 0.0
N1793 N 0.93026 0.88672 0.47 0.0
C1794 C 0.91021 0.93156 0.54944 0.0
C1795 C 0.92547 0.89822 0.4979 0.0
N1796 N 0.86767 0.89939 0.55777 0.0
N1797 N 0.97752 0.91424 0.50292 0.0
H1798 H 0.91413 0.87413 0.45876 0.0
H1799 H 0.94915 0.89182 0.45703 0.0
H1800 H 0.99486 0.92569 0.51369 0.0
H1801 H 0.98527 0.89932 0.48686 0.0
H1802 H 0.8641 0.90756 0.57932 0.0
H1803 H 0.85374 0.8817 0.55218 0.0
H1804 H 0.87663 0.95252 0.57608 0.0
H1805 H 0.91041 0.97181 0.57405 0.0
C1806 C 0.12073 0.90094 0.539 0.0
C1807 C 0.13873 0.88605 0.51744 0.0
C1808 C 0.12116 0.91934 0.47835 0.0
C1809 C 0.10052 0.93215 0.49895 0.0
N1810 N 0.0772 0.93264 0.54784 0.0
N1811 N 0.15019 0.87606 0.46541 0.0
C1812 C 0.09926 0.92223 0.52906 0.0
C1813 C 0.13703 0.89363 0.48671 0.0
N1814 N 0.12477 0.89536 0.56881 0.0
N1815 N 0.1273 0.93271 0.45162 0.0
H1816 H 0.16136 0.85638 0.47047 0.0
H1817 H 0.14716 0.87945 0.44253 0.0
H1818 H 0.11778 0.95279 0.44519 0.0
H1819 H 0.14461 0.92563 0.43738 0.0
H1820 H 0.1146 0.90774 0.58574 0.0
H1821 H 0.14023 0.87974 0.57673 0.0
H1822 H 0.07405 0.92489 0.56948 0.0
H1823 H 0.06031 0.94733 0.54096 0.0
C1824 C 0.52886 0.13574 0.15469 0.0
C1825 C 0.49801 0.14512 0.15406 0.0
C1826 C 0.49148 0.12021 0.10591 0.0
C1827 C 0.52169 0.10947 0.10811 0.0
N1828 N 0.56368 0.09717 0.14024 0.0
N1829 N 0.44794 0.1395 0.13289 0.0
C1830 C 0.53841 0.11373 0.13459 0.0
C1831 C 0.47853 0.13497 0.13095 0.0
N1832 N 0.54994 0.1497 0.172 0.0
N1833 N 0.47587 0.11804 0.07962 0.0
H1834 H 0.43786 0.14969 0.15138 0.0
H1835 H 0.43255 0.1306 0.11769 0.0
H1836 H 0.48471 0.10772 0.06065 0.0
H1837 H 0.45511 0.12854 0.07609 0.0
H1838 H 0.57298 0.14439 0.17123 0.0
H1839 H 0.54543 0.16911 0.18365 0.0
H1840 H 0.5755 0.09837 0.16044 0.0
H1841 H 0.57023 0.07983 0.12626 0.0
C1842 C 0.89786 0.49675 0.16002 0.0
C1843 C 0.87268 0.51591 0.16393 0.0
C1844 C 0.89049 0.5476 0.12372 0.0
C1845 C 0.91561 0.52831 0.11967 0.0
N1846 N 0.94875 0.49134 0.14048 0.0
N1847 N 0.85083 0.56422 0.1573 0.0
C1848 C 0.92116 0.50513 0.14007 0.0
C1849 C 0.87116 0.54309 0.1485 0.0
N1850 N 0.89864 0.46979 0.17355 0.0
N1851 N 0.8836 0.56866 0.1029 0.0
H1852 H 0.83654 0.56141 0.17571 0.0
H1853 H 0.85044 0.58542 0.14838 0.0
H1854 H 0.89644 0.57232 0.08371 0.0
H1855 H 0.86352 0.58088 0.10335 0.0
H1856 H 0.91496 0.45382 0.16856 0.0
H1857 H 0.88182 0.46249 0.1881 0.0
H1858 H 0.95504 0.47665 0.15728 0.0
H1859 H 0.96639 0.49721 0.12611 0.0
C1860 C 0.56019 0.91152 0.1269 0.0
C1861 C 0.54561 0.90857 0.15499 0.0
C1862 C 0.50445 0.94081 0.13816 0.0
C1863 C 0.51639 0.93955 0.1088 0.0
N1864 N 0.55403 0.92133 0.07401 0.0
N1865 N 0.50141 0.91687 0.18621 0.0
C1866 C 0.54409 0.92462 0.10281 0.0
C1867 C 0.51723 0.92255 0.16054 0.0
N1868 N 0.58935 0.90171 0.12336 0.0
N1869 N 0.48106 0.95966 0.14469 0.0
H1870 H 0.50933 0.90305 0.20311 0.0
H1871 H 0.47911 0.92384 0.1896 0.0
H1872 H 0.47134 0.97362 0.12876 0.0
H1873 H 0.47345 0.9636 0.16642 0.0
H1874 H 0.60215 0.90555 0.10418 0.0
H1875 H 0.60168 0.89209 0.14078 0.0
H1876 H 0.57212 0.90769 0.06807 0.0
H1877 H 0.54274 0.93035 0.05564 0.0
C1878 C 0.16875 0.49991 0.11034 0.0
C1879 C 0.17834 0.52525 0.12594 0.0
C1880 C 0.13685 0.55402 0.10581 0.0
C1881 C 0.12521 0.5278 0.0922 0.0
N1882 N 0.14092 0.48269 0.0673 0.0
N1883 N 0.18059 0.57804 0.12744 0.0
C1884 C 0.14469 0.50286 0.08964 0.0
C1885 C 0.16561 0.55295 0.11943 0.0
N1886 N 0.18128 0.473 0.11627 0.0
N1887 N 0.1203 0.57944 0.1075 0.0
H1888 H 0.20186 0.57738 0.13774 0.0
H1889 H 0.17347 0.59905 0.12107 0.0
H1890 H 0.10131 0.58376 0.09455 0.0
H1891 H 0.12573 0.59668 0.12197 0.0
H1892 H 0.17251 0.4535 0.10756 0.0
H1893 H 0.19921 0.47014 0.13123 0.0
H1894 H 0.15563 0.46488 0.06418 0.0
H1895 H 0.12624 0.48641 0.04938 0.0
C1896 C 0.50238 0.88171 0.89118 0.0
C1897 C 0.52835 0.88686 0.87332 0.0
C1898 C 0.53641 0.93318 0.89984 0.0
C1899 C 0.51434 0.92484 0.92125 0.0
N1900 N 0.48087 0.88719 0.9404 0.0
N1901 N 0.5731 0.91589 0.86354 0.0
C1902 C 0.4986 0.8979 0.91783 0.0
C1903 C 0.54628 0.91219 0.87833 0.0
N1904 N 0.48117 0.86158 0.88249 0.0
N1905 N 0.54652 0.96144 0.89859 0.0
H1906 H 0.58142 0.90079 0.84792 0.0
H1907 H 0.58816 0.93277 0.86878 0.0
H1908 H 0.53918 0.97786 0.91328 0.0
H1909 H 0.55933 0.96897 0.88061 0.0
H1910 H 0.46062 0.85887 0.89371 0.0
H1911 H 0.48264 0.85011 0.86226 0.0
H1912 H 0.47095 0.86641 0.93958 0.0
H1913 H 0.47897 0.89748 0.96122 0.0
C1914 C 0.14323 0.51492 0.8703 0.0
C1915 C 0.16147 0.54049 0.86925 0.0
C1916 C 0.14254 0.55613 0.91779 0.0
C1917 C 0.12122 0.53296 0.91677 0.0
N1918 N 0.09655 0.49436 0.88863 0.0
N1919 N 0.17326 0.58897 0.88844 0.0
C1920 C 0.12023 0.51331 0.89216 0.0
C1921 C 0.15968 0.5622 0.89198 0.0
N1922 N 0.14831 0.49195 0.85108 0.0
N1923 N 0.14695 0.57184 0.94355 0.0
H1924 H 0.185 0.59485 0.8691 0.0
H1925 H 0.1701 0.6064 0.90336 0.0
H1926 H 0.1355 0.56728 0.96344 0.0
H1927 H 0.16427 0.5872 0.94599 0.0
H1928 H 0.13726 0.47179 0.853 0.0
H1929 H 0.16561 0.49193 0.83516 0.0
H1930 H 0.0934 0.48208 0.86915 0.0
H1931 H 0.07843 0.49332 0.90356 0.0
C1932 C 0.47927 0.12765 0.88352 0.0
C1933 C 0.49582 0.15385 0.87786 0.0
C1934 C 0.5255 0.14529 0.92298 0.0
C1935 C 0.51277 0.11695 0.92573 0.0
N1936 N 0.48275 0.07825 0.90359 0.0
N1937 N 0.54294 0.17991 0.88655 0.0
C1938 C 0.49093 0.10717 0.90468 0.0
C1939 C 0.5212 0.16078 0.89609 0.0
N1940 N 0.45253 0.12247 0.86906 0.0
N1941 N 0.5423 0.15717 0.94563 0.0
H1942 H 0.54342 0.18811 0.86479 0.0
H1943 H 0.56274 0.18392 0.89866 0.0
H1944 H 0.54535 0.14659 0.96615 0.0
H1945 H 0.55026 0.17876 0.94496 0.0
H1946 H 0.4397 0.1036 0.87229 0.0
H1947 H 0.44182 0.13827 0.85577 0.0
H1948 H 0.46922 0.06958 0.88663 0.0
H1949 H 0.4917 0.06247 0.91811 0.0
C1950 C 0.87287 0.4609 0.90469 0.0
C1951 C 0.84843 0.48093 0.90775 0.0
C1952 C 0.87501 0.50673 0.94761 0.0
C1953 C 0.90147 0.49072 0.93998 0.0
N1954 N 0.92697 0.45436 0.90892 0.0
N1955 N 0.82622 0.52435 0.93054 0.0
C1956 C 0.90077 0.46774 0.9184 0.0
C1957 C 0.84911 0.50394 0.92923 0.0
N1958 N 0.86953 0.43595 0.88787 0.0
N1959 N 0.87504 0.52494 0.97201 0.0
H1960 H 0.80677 0.52323 0.91732 0.0
H1961 H 0.82746 0.54356 0.94326 0.0
H1962 H 0.894 0.52721 0.98584 0.0
H1963 H 0.85562 0.53543 0.9801 0.0
H1964 H 0.88586 0.4193 0.88686 0.0
H1965 H 0.84914 0.43064 0.87732 0.0
H1966 H 0.92791 0.44016 0.8906 0.0
H1967 H 0.94832 0.45909 0.91759 0.0
C1968 C 0.66263 0.64553 0.03493 0.0
C1969 C 0.66605 0.65773 0.00602 0.0
C1970 C 0.63234 0.62117 0.98507 0.0
C1971 C 0.63257 0.60651 0.01312 0.0
N1972 N 0.65391 0.60098 0.0627 0.0
N1973 N 0.65944 0.65413 0.95239 0.0
C1974 C 0.64955 0.61754 0.03751 0.0
C1975 C 0.65259 0.64462 0.98061 0.0
N1976 N 0.67117 0.66094 0.05984 0.0
N1977 N 0.61168 0.61417 0.96344 0.0
H1978 H 0.67441 0.67134 0.94817 0.0
H1979 H 0.65246 0.64311 0.93311 0.0
H1980 H 0.59439 0.59891 0.96647 0.0
H1981 H 0.6097 0.62597 0.94359 0.0
H1982 H 0.6665 0.65385 0.08153 0.0
H1983 H 0.68002 0.68219 0.05884 0.0
H1984 H 0.66833 0.60733 0.08002 0.0
H1985 H 0.64587 0.5795 0.06479 0.0
C1986 C 0.36707 0.65059 0.984 0.0
C1987 C 0.36149 0.66871 0.00933 0.0
C1988 C 0.41168 0.6581 0.02843 0.0
C1989 C 0.41528 0.63616 0.0061 0.0
N1990 N 0.39321 0.60716 0.9661 0.0
N1991 N 0.37523 0.68224 0.06008 0.0
C1992 C 0.39215 0.6311 0.98468 0.0
C1993 C 0.38279 0.67027 0.03296 0.0
N1994 N 0.34904 0.65246 0.95918 0.0
N1995 N 0.43588 0.66811 0.0446 0.0
H1996 H 0.35341 0.68972 0.06518 0.0
H1997 H 0.38975 0.68145 0.07851 0.0
H1998 H 0.45817 0.66149 0.04033 0.0
H1999 H 0.43413 0.68568 0.05959 0.0
H2000 H 0.35398 0.64137 0.9393 0.0
H2001 H 0.33102 0.66734 0.95745 0.0
H2002 H 0.37527 0.60139 0.95209 0.0
H2003 H 0.41042 0.59135 0.96689 0.0
C2004 C 0.39877 0.3807 0.99608 0.0
C2005 C 0.37557 0.37454 0.01692 0.0
C2006 C 0.39012 0.41602 0.04798 0.0
C2007 C 0.41278 0.42283 0.02663 0.0
N2008 N 0.44666 0.40482 0.98806 0.0
N2009 N 0.35684 0.37835 0.06736 0.0
C2010 C 0.4198 0.40291 0.00313 0.0
C2011 C 0.37424 0.38934 0.04474 0.0
N2012 N 0.39959 0.367 0.96884 0.0
N2013 N 0.38208 0.43574 0.06979 0.0
H2014 H 0.34498 0.35862 0.06509 0.0
H2015 H 0.35682 0.38708 0.08896 0.0
H2016 H 0.39195 0.45642 0.07209 0.0
H2017 H 0.36358 0.43268 0.08394 0.0
H2018 H 0.41402 0.37356 0.95168 0.0
H2019 H 0.38462 0.35041 0.96262 0.0
H2020 H 0.45404 0.38859 0.97317 0.0
H2021 H 0.46301 0.42061 0.993 0.0
C2022 C 0.64856 0.38039 0.01915 0.0
C2023 C 0.66584 0.3831 0.9927 0.0
C2024 C 0.63711 0.42688 0.97894 0.0
C2025 C 0.61603 0.42 0.00183 0.0
N2026 N 0.5983 0.38492 0.03901 0.0
N2027 N 0.67553 0.40741 0.94558 0.0
C2028 C 0.62084 0.39548 0.02096 0.0
C2029 C 0.66012 0.40611 0.97208 0.0
N2030 N 0.6584 0.3631 0.04226 0.0
N2031 N 0.6355 0.45324 0.96429 0.0
H2032 H 0.69237 0.3923 0.93963 0.0
H2033 H 0.6699 0.42213 0.92856 0.0
H2034 H 0.61947 0.46942 0.96959 0.0
H2035 H 0.65195 0.4602 0.94916 0.0
H2036 H 0.64737 0.36243 0.0629 0.0
H2037 H 0.67928 0.35212 0.04188 0.0
H2038 H 0.60062 0.36552 0.05128 0.0
H2039 H 0.57613 0.393 0.03892 0.0
C2040 C 0.97615 0.64798 0.61447 0.0
C2041 C 0.99225 0.65164 0.64179 0.0
C2042 C 0.01699 0.60432 0.63432 0.0
C2043 C 0.00515 0.60298 0.60504 0.0
N2044 N 0.97885 0.6272 0.56448 0.0
N2045 N 0.03769 0.63839 0.66957 0.0
C2046 C 0.98605 0.6258 0.59416 0.0
C2047 C 0.0153 0.63114 0.64976 0.0
N2048 N 0.95182 0.66559 0.60801 0.0
N2049 N 0.03124 0.58051 0.64676 0.0
H2050 H 0.04054 0.65974 0.67768 0.0
H2051 H 0.05595 0.62442 0.67425 0.0
H2052 H 0.0327 0.56018 0.63586 0.0
H2053 H 0.03867 0.5804 0.66894 0.0
H2054 H 0.94047 0.66537 0.58763 0.0
H2055 H 0.9417 0.67929 0.62394 0.0
H2056 H 0.9675 0.64503 0.55489 0.0
H2057 H 0.98623 0.61146 0.54903 0.0
C2058 C 0.39865 0.04002 0.66179 0.0
C2059 C 0.40406 0.01187 0.67469 0.0
C2060 C 0.45455 0.01049 0.65286 0.0
C2061 C 0.44528 0.03352 0.63393 0.0
N2062 N 0.41946 0.08025 0.6326 0.0
N2063 N 0.43876 0.97224 0.68707 0.0
C2064 C 0.42076 0.05178 0.64232 0.0
C2065 C 0.43295 0.99807 0.67246 0.0
N2066 N 0.37213 0.05477 0.66745 0.0
N2067 N 0.4838 1.00067 0.65128 0.0
H2068 H 0.4228 0.96152 0.70029 0.0
H2069 H 0.45917 0.96085 0.68549 0.0
H2070 H 0.49926 0.01011 0.63642 0.0
H2071 H 0.49331 0.98576 0.66629 0.0
H2072 H 0.36526 0.07359 0.65596 0.0
H2073 H 0.35642 0.04765 0.68331 0.0
H2074 H 0.40271 0.09524 0.63894 0.0
H2075 H 0.43751 0.08995 0.62126 0.0
C2076 C 0.03946 0.38942 0.61572 0.0
C2077 C 0.01081 0.39353 0.62977 0.0
C2078 C 0.00166 0.43687 0.59849 0.0
C2079 C 0.02921 0.43079 0.58297 0.0
N2080 N 0.06797 0.39535 0.57011 0.0
N2081 N 0.96152 0.41699 0.6295 0.0
C2082 C 0.04584 0.40493 0.58926 0.0
C2083 C 0.99081 0.41593 0.61954 0.0
N2084 N 0.06156 0.37253 0.62872 0.0
N2085 N 0.98678 0.46307 0.59459 0.0
H2086 H 0.95274 0.40162 0.64446 0.0
H2087 H 0.94529 0.43131 0.62068 0.0
H2088 H 0.99405 0.47926 0.57978 0.0
H2089 H 0.9685 0.46969 0.60783 0.0
H2090 H 0.08347 0.37079 0.62005 0.0
H2091 H 0.05937 0.36361 0.65006 0.0
H2092 H 0.07905 0.37516 0.57273 0.0
H2093 H 0.07263 0.40599 0.54993 0.0
C2094 C 0.6583 0.06537 0.63207 0.0
C2095 C 0.66575 0.03962 0.64849 0.0
C2096 C 0.64705 0.00861 0.60803 0.0
C2097 C 0.63339 0.03381 0.59554 0.0
N2098 N 0.63921 0.08538 0.58529 0.0
N2099 N 0.66684 0.9864 0.65296 0.0
C2100 C 0.64327 0.06215 0.60431 0.0
C2101 C 0.66053 0.01106 0.63651 0.0
N2102 N 0.66479 0.09264 0.64339 0.0
N2103 N 0.6485 0.98303 0.59201 0.0
H2104 H 0.67585 0.98713 0.67453 0.0
H2105 H 0.66061 0.9653 0.64623 0.0
H2106 H 0.64175 0.98209 0.56965 0.0
H2107 H 0.66028 0.96439 0.59922 0.0
H2108 H 0.65661 0.1122 0.63426 0.0
H2109 H 0.67741 0.0958 0.66287 0.0
H2110 H 0.64722 0.10654 0.5893 0.0
H2111 H 0.63044 0.08245 0.56377 0.0
C2112 C 0.00279 0.38234 0.40686 0.0
C2113 C 0.03055 0.38601 0.39122 0.0
C2114 C 0.03422 0.43652 0.40996 0.0
C2115 C 0.00756 0.4318 0.42712 0.0
N2116 N 0.97285 0.39737 0.44948 0.0
N2117 N 0.07624 0.41399 0.38315 0.0
C2118 C 0.99393 0.40374 0.42804 0.0
C2119 C 0.04747 0.41233 0.39442 0.0
N2120 N 0.98389 0.35942 0.40032 0.0
N2121 N 0.04604 0.46416 0.40732 0.0
H2122 H 0.08674 0.39645 0.37206 0.0
H2123 H 0.09063 0.43168 0.38721 0.0
H2124 H 0.03696 0.4825 0.41825 0.0
H2125 H 0.06343 0.4693 0.39245 0.0
H2126 H 0.96218 0.35758 0.40937 0.0
H2127 H 0.98828 0.34409 0.38345 0.0
H2128 H 0.96437 0.37623 0.45275 0.0
H2129 H 0.96651 0.41238 0.46611 0.0
C2130 C 0.61139 0.01236 0.35379 0.0
C2131 C 0.62891 0.03855 0.35283 0.0
C2132 C 0.61872 0.04798 0.40509 0.0
C2133 C 0.59775 0.02453 0.40512 0.0
N2134 N 0.57144 0.98566 0.37942 0.0
N2135 N 0.64197 0.08543 0.37515 0.0
C2136 C 0.59319 0.00695 0.37942 0.0
C2137 C 0.63027 0.0577 0.37774 0.0
N2138 N 0.61305 0.99234 0.33099 0.0
N2139 N 0.62833 0.06039 0.43131 0.0
H2140 H 0.6495 0.09405 0.35485 0.0
H2141 H 0.641 0.10087 0.39244 0.0
H2142 H 0.62136 0.05293 0.45229 0.0
H2143 H 0.64594 0.0756 0.43216 0.0
H2144 H 0.60294 0.97167 0.33191 0.0
H2145 H 0.6265 0.99547 0.31207 0.0
H2146 H 0.56508 0.97407 0.36029 0.0
H2147 H 0.55842 0.98095 0.39832 0.0
C2148 C 0.00921 0.63046 0.36737 0.0
C2149 C 0.03167 0.65181 0.37369 0.0
C2150 C 0.03602 0.63277 0.42463 0.0
C2151 C 0.01771 0.60858 0.41639 0.0
N2152 N 0.99117 0.58152 0.37791 0.0
N2153 N 0.06997 0.67067 0.40732 0.0
C2154 C 0.00572 0.60649 0.38706 0.0
C2155 C 0.04609 0.65235 0.40208 0.0
N2156 N 0.99029 0.63377 0.34333 0.0
N2157 N 0.04224 0.63821 0.45402 0.0
H2158 H 0.07877 0.68473 0.39111 0.0
H2159 H 0.08265 0.66987 0.42699 0.0
H2160 H 0.03592 0.62403 0.47125 0.0
H2161 H 0.05083 0.65838 0.46117 0.0
H2162 H 0.97171 0.62016 0.33952 0.0
H2163 H 0.991 0.65206 0.32924 0.0
H2164 H 0.98423 0.57812 0.35587 0.0
H2165 H 0.98888 0.56302 0.39156 0.0
C2166 C 0.36801 0.03697 0.39496 0.0
C2167 C 0.36133 0.00714 0.38792 0.0
C2168 C 0.38236 0.99113 0.43553 0.0
C2169 C 0.39427 0.01958 0.43957 0.0
N2170 N 0.38514 0.07139 0.43298 0.0
N2171 N 0.36365 0.95534 0.40019 0.0
C2172 C 0.38313 0.04329 0.42221 0.0
C2173 C 0.36862 0.98404 0.40803 0.0
N2174 N 0.36023 0.05905 0.37558 0.0
N2175 N 0.38379 0.9714 0.4585 0.0
H2176 H 0.35443 0.94926 0.37957 0.0
H2177 H 0.3712 0.93755 0.41292 0.0
H2178 H 0.39225 0.97748 0.47946 0.0
H2179 H 0.37364 0.95074 0.45788 0.0
H2180 H 0.36773 0.08064 0.37774 0.0
H2181 H 0.34758 0.0556 0.35618 0.0
H2182 H 0.37611 0.08979 0.42227 0.0
H2183 H 0.39239 0.07578 0.45478 0.0
C2184 C 0.02337 0.10938 0.33437 0.0
C2185 C 0.04048 0.1356 0.33731 0.0
C2186 C 0.05065 0.12345 0.3902 0.0
C2187 C 0.03177 0.09842 0.38775 0.0
N2188 N 0.01406 0.0606 0.35453 0.0
N2189 N 0.08155 0.15891 0.36353 0.0
C2190 C 0.02257 0.08911 0.35879 0.0
C2191 C 0.05799 0.13958 0.36381 0.0
N2192 N 0.00652 0.10443 0.30928 0.0
N2193 N 0.0606 0.13257 0.41759 0.0
H2194 H 0.08806 0.16955 0.34387 0.0
H2195 H 0.09645 0.16152 0.38144 0.0
H2196 H 0.05612 0.12097 0.43718 0.0
H2197 H 0.07177 0.15248 0.42093 0.0
H2198 H 0.99139 0.08695 0.30745 0.0
H2199 H 0.00639 0.11874 0.29108 0.0
H2200 H 0.01011 0.05171 0.33336 0.0
H2201 H 0.0143 0.04531 0.37198 0.0
C2202 C 0.85524 0.02201 0.35144 0.0
C2203 C 0.86702 0.04249 0.33059 0.0
C2204 C 0.91327 0.04657 0.35986 0.0
C2205 C 0.89886 0.03135 0.38372 0.0
N2206 N 0.85649 0.00356 0.40242 0.0
N2207 N 0.90694 0.07442 0.31408 0.0
C2208 C 0.87007 0.01831 0.37943 0.0
C2209 C 0.89614 0.05458 0.33437 0.0
N2210 N 0.82979 0.00643 0.34437 0.0
N2211 N 0.94369 0.05205 0.36081 0.0
H2212 H 0.89559 0.07925 0.29415 0.0
H2213 H 0.92625 0.08708 0.3177 0.0
H2214 H 0.95768 0.045 0.37822 0.0
H2215 H 0.95553 0.06062 0.34272 0.0
H2216 H 0.82126 0.98945 0.35747 0.0
H2217 H 0.81887 0.00866 0.32377 0.0
H2218 H 0.83428 0.99592 0.40163 0.0
H2219 H 0.86677 1.00071 0.42326 0.0
C2220 C -0.00149 0.88391 0.35342 0.0
C2221 C 0.01227 0.89286 0.32635 0.0
C2222 C 0.00769 0.94417 0.34252 0.0
C2223 C 0.00037 0.93445 0.37208 0.0
N2224 N -0.00429 0.89328 0.40634 0.0
N2225 N 0.03163 0.93156 0.29517 0.0
C2226 C -0.00267 0.90381 0.37773 0.0
C2227 C 0.01733 0.92307 0.32081 0.0
N2228 N 0.98729 0.85605 0.35608 0.0
N2229 N 0.00394 0.97303 0.33459 0.0
H2230 H 0.0381 0.91659 0.27858 0.0
H2231 H 0.03857 0.95311 0.29125 0.0
H2232 H 0.99395 0.98872 0.34854 0.0
H2233 H 0.0071 0.98066 0.31284 0.0
H2234 H 0.97485 0.84919 0.37462 0.0
H2235 H 0.98754 0.8411 0.33829 0.0
H2236 H -0.00423 0.87085 0.41128 0.0
H2237 H -0.00161 0.90651 0.42523 0.0
C2238 C 0.11213 0.04267 0.31819 0.0
C2239 C 0.11522 0.01417 0.30592 0.0
C2240 C 0.09557 0.99228 0.35188 0.0
C2241 C 0.09466 0.02076 0.36571 0.0
N2242 N 0.10224 0.07355 0.36137 0.0
N2243 N 0.10075 0.96374 0.30586 0.0
C2244 C 0.10257 0.0462 0.34854 0.0
C2245 C 0.10287 0.98981 0.32097 0.0
N2246 N 0.11828 0.06628 0.30032 0.0
N2247 N 0.09292 0.96736 0.36888 0.0
H2248 H 0.10688 0.9621 0.28331 0.0
H2249 H 0.09068 0.94491 0.31451 0.0
H2250 H 0.09239 0.96756 0.39219 0.0
H2251 H 0.09504 0.94608 0.36044 0.0
H2252 H 0.11438 0.08812 0.30629 0.0
H2253 H 0.12484 0.06363 0.27804 0.0
H2254 H 0.11223 0.09201 0.35189 0.0
H2255 H 0.09268 0.0781 0.38209 0.0
C2256 C 0.03304 0.88895 0.68108 0.0
C2257 C 0.01002 0.89868 0.70094 0.0
C2258 C 0.00023 0.94079 0.6686 0.0
C2259 C 0.01806 0.92754 0.64576 0.0
N2260 N 0.05231 0.88841 0.63044 0.0
N2261 N 0.97033 0.93284 0.71317 0.0
C2262 C 0.03484 0.90144 0.65204 0.0
C2263 C 0.99365 0.92464 0.69488 0.0
N2264 N 0.05303 0.86765 0.69011 0.0
N2265 N 0.98998 0.96898 0.66573 0.0
H2266 H 0.96601 0.92248 0.73357 0.0
H2267 H 0.95417 0.94828 0.70665 0.0
H2268 H 0.99169 0.98112 0.64605 0.0
H2269 H 0.98229 0.9809 0.68419 0.0
H2270 H 0.07202 0.86133 0.67776 0.0
H2271 H 0.0521 0.85822 0.71136 0.0
H2272 H 0.06173 0.86744 0.63266 0.0
H2273 H 0.05611 0.8977 0.60953 0.0
C2274 C 0.13857 0.0483 0.68591 0.0
C2275 C 0.14976 0.0208 0.69594 0.0
C2276 C 0.13875 0.99838 0.64748 0.0
C2277 C 0.12634 0.02546 0.63722 0.0
N2278 N 0.11427 0.0769 0.64661 0.0
N2279 N 0.15327 0.96833 0.68987 0.0
C2280 C 0.1262 0.05076 0.6564 0.0
C2281 C 0.14712 0.99537 0.67786 0.0
N2282 N 0.14015 0.07189 0.70492 0.0
N2283 N 0.14379 0.97592 0.6276 0.0
H2284 H 0.15951 0.96566 0.71225 0.0
H2285 H 0.14923 0.94858 0.67869 0.0
H2286 H 0.13954 0.97805 0.60471 0.0
H2287 H 0.15519 0.95651 0.63309 0.0
H2288 H 0.13409 0.09337 0.69949 0.0
H2289 H 0.14757 0.06965 0.72701 0.0
H2290 H 0.11192 0.09569 0.65972 0.0
H2291 H 0.10623 0.08039 0.62507 0.0
C2292 C 0.98832 0.1471 0.65274 0.0
C2293 C 0.0096 0.14522 0.67661 0.0
C2294 C 0.03016 0.10039 0.65345 0.0
C2295 C 0.01464 0.10686 0.62611 0.0
N2296 N 0.97793 0.13718 0.60029 0.0
N2297 N 0.04859 0.11714 0.70138 0.0
C2298 C 0.99279 0.13 0.6261 0.0
C2299 C 0.0295 0.12076 0.67764 0.0
N2300 N 0.9646 0.16637 0.65535 0.0
N2301 N 0.04619 0.07493 0.657 0.0
H2302 H 0.04839 0.13137 0.71975 0.0
H2303 H 0.06431 0.09988 0.70249 0.0
H2304 H 0.04691 0.05807 0.64107 0.0
H2305 H 0.04691 0.05807 0.64107 0.0
H2306 H 0.94688 0.16767 0.63997 0.0
H2307 H 0.96139 0.17897 0.67471 0.0
H2308 H 0.96415 0.15574 0.59812 0.0
H2309 H 0.98079 0.12556 0.58038 0.0
C2310 C 0.92275 0.03035 0.70441 0.0
C2311 C 0.90152 0.05215 0.71187 0.0
C2312 C 0.91665 0.0783 0.66607 0.0
C2313 C 0.93057 0.05181 0.65504 0.0
N2314 N 0.93072 0.99886 0.66242 0.0
N2315 N 0.8776 0.09817 0.69906 0.0
C2316 C 0.93005 0.02667 0.67398 0.0
C2317 C 0.89858 0.07689 0.69271 0.0
N2318 N 0.93146 0.01029 0.72532 0.0
N2319 N 0.92053 0.10454 0.65184 0.0
H2320 H 0.86505 0.09809 0.71886 0.0
H2321 H 0.87184 0.11487 0.68407 0.0
H2322 H 0.93447 0.1071 0.63332 0.0
H2323 H 0.91241 0.12439 0.66052 0.0
H2324 H 0.94785 0.99439 0.72071 0.0
H2325 H 0.92447 0.01203 0.74761 0.0
H2326 H 0.9268 0.98047 0.67581 0.0
H2327 H 0.9303 0.99446 0.6395 0.0
C2328 C 0.33032 0.03103 0.09953 0.0
C2329 C 0.3295 0.00535 0.1174 0.0
C2330 C 0.37583 0.98679 0.09428 0.0
C2331 C 0.3777 0.01302 0.07732 0.0
N2332 N 0.35278 0.05629 0.05729 0.0
N2333 N 0.34365 0.95467 0.12355 0.0
C2334 C 0.35336 0.0337 0.07748 0.0
C2335 C 0.34935 0.98157 0.11129 0.0
N2336 N 0.31069 0.05371 0.10528 0.0
N2337 N 0.40009 0.96809 0.096 0.0
H2338 H 0.32433 0.951 0.13654 0.0
H2339 H 0.3562 0.93582 0.11836 0.0
H2340 H 0.42045 0.97232 0.08511 0.0
H2341 H 0.40092 0.94999 0.11029 0.0
H2342 H 0.3127 0.07457 0.09585 0.0
H2343 H 0.29294 0.05191 0.12057 0.0
H2344 H 0.33426 0.07037 0.05455 0.0
H2345 H 0.36985 0.05959 0.04155 0.0
C2346 C -0.0017 0.37188 0.14882 0.0
C2347 C 0.01773 0.34768 0.14242 0.0
C2348 C 0.02657 0.3681 0.09209 0.0
C2349 C 0.01311 0.39543 0.10123 0.0
N2350 N 0.98152 0.4215 0.13653 0.0
N2351 N 0.0492 0.32145 0.10754 0.0
C2352 C -0.00264 0.39662 0.12904 0.0
C2353 C 0.03098 0.34515 0.11365 0.0
N2354 N 0.98084 0.37095 0.17408 0.0
N2355 N 0.03513 0.36376 0.06303 0.0
H2356 H 0.0517 0.3039 0.12241 0.0
H2357 H 0.06265 0.31965 0.08848 0.0
H2358 H 0.03355 0.37971 0.04648 0.0
H2359 H 0.04163 0.34331 0.05453 0.0
H2360 H 0.96429 0.3865 0.17947 0.0
H2361 H 0.98116 0.35288 0.1885 0.0
H2362 H 0.97259 0.42549 0.1577 0.0
H2363 H 0.97765 0.43859 0.12143 0.0
C2364 C 0.67802 0.06278 0.10318 0.0
C2365 C 0.70059 0.04042 0.10381 0.0
C2366 C 0.67156 0.01151 0.06807 0.0
C2367 C 0.64618 0.03015 0.07363 0.0
N2368 N 0.62505 0.07461 0.09451 0.0
N2369 N 0.72066 0.9945 0.08575 0.0
C2370 C 0.64945 0.05647 0.09022 0.0
C2371 C 0.69823 0.01535 0.08531 0.0
N2372 N 0.68389 0.08944 0.11607 0.0
N2373 N 0.67014 0.99051 0.04618 0.0
H2374 H 0.74092 0.9977 0.09741 0.0
H2375 H 0.7187 0.97391 0.07563 0.0
H2376 H 0.65117 0.98805 0.03248 0.0
H2377 H 0.68867 0.97774 0.03957 0.0
H2378 H 0.66926 0.10748 0.11486 0.0
H2379 H 0.70489 0.09411 0.12574 0.0
H2380 H 0.62515 0.09277 0.10877 0.0
H2381 H 0.60401 0.07041 0.08482 0.0
C2382 C 0.97815 0.68587 0.11066 0.0
C2383 C 0.00476 0.69674 0.12417 0.0
C2384 C 0.03324 0.65298 0.10792 0.0
C2385 C 0.00554 0.63987 0.09846 0.0
N2386 N 0.9515 0.64382 0.08996 0.0
N2387 N 0.05889 0.6958 0.1288 0.0
C2388 C 0.97805 0.65665 0.09876 0.0
C2389 C 0.03282 0.68193 0.1202 0.0
N2390 N 0.95307 0.70362 0.10973 0.0
N2391 N 0.05973 0.63732 0.10605 0.0
H2392 H 0.05875 0.71722 0.13734 0.0
H2393 H 0.08065 0.68737 0.12588 0.0
H2394 H 0.06149 0.6175 0.09447 0.0
H2395 H 0.08007 0.64357 0.11589 0.0
H2396 H 0.93325 0.69853 0.09822 0.0
H2397 H 0.95331 0.72496 0.11848 0.0
H2398 H 0.93029 0.65381 0.09173 0.0
H2399 H 0.95026 0.62217 0.08233 0.0
C2400 C 0.36264 0.99032 0.92121 0.0
C2401 C 0.34496 0.00944 0.9034 0.0
C2402 C 0.38296 0.04825 0.91304 0.0
C2403 C 0.40278 0.02667 0.92639 0.0
N2404 N 0.41459 0.97514 0.92465 0.0
N2405 N 0.33723 0.05869 0.88432 0.0
C2406 C 0.39346 0.99703 0.92588 0.0
C2407 C 0.35443 0.03928 0.90049 0.0
N2408 N 0.35117 0.96383 0.9297 0.0
N2409 N 0.39171 0.07694 0.9106 0.0
H2410 H 0.31535 0.05426 0.87719 0.0
H2411 H 0.34447 0.07945 0.87769 0.0
H2412 H 0.41419 0.08348 0.9104 0.0
H2413 H 0.37666 0.09436 0.90717 0.0
H2414 H 0.36381 0.94867 0.94199 0.0
H2415 H 0.32849 0.95838 0.92585 0.0
H2416 H 0.40888 0.95303 0.92176 0.0
H2417 H 0.43742 0.98003 0.92144 0.0
C2418 C 0.02231 0.35023 0.91128 0.0
C2419 C 0.0352 0.34901 0.88219 0.0
C2420 C 0.04975 0.40107 0.88637 0.0
C2421 C 0.03599 0.40299 0.91508 0.0
N2422 N 0.01791 0.37705 0.95851 0.0
N2423 N 0.07148 0.36942 0.84807 0.0
C2424 C 0.02497 0.37674 0.92875 0.0
C2425 C 0.05254 0.37319 0.87196 0.0
N2426 N 0.00715 0.32629 0.92186 0.0
N2427 N 0.05821 0.42609 0.87174 0.0
H2428 H 0.07422 0.349 0.83758 0.0
H2429 H 0.08672 0.38542 0.84099 0.0
H2430 H 0.05471 0.44708 0.88055 0.0
H2431 H 0.06567 0.42621 0.84961 0.0
H2432 H -0.0043 0.32589 0.9422 0.0
H2433 H 0.00567 0.3067 0.90971 0.0
H2434 H 0.01223 0.3583 0.9706 0.0
H2435 H 0.02029 0.39585 0.97177 0.0
C2436 C 0.68371 0.03652 0.93335 0.0
C2437 C 0.68893 0.02642 0.90391 0.0
C2438 C 0.63649 0.01032 0.9 0.0
C2439 C 0.63088 0.01925 0.92983 0.0
N2440 N 0.65341 0.03015 0.97794 0.0
N2441 N 0.67446 0.99179 0.86583 0.0
C2442 C 0.65568 0.02947 0.94756 0.0
C2443 C 0.66664 0.00923 0.88948 0.0
N2444 N 0.70538 0.05256 0.94768 0.0
N2445 N 0.61298 0.004 0.88128 0.0
H2446 H 0.69699 0.9896 0.85888 0.0
H2447 H 0.6593 0.97727 0.85573 0.0
H2448 H 0.5905 0.00759 0.88764 0.0
H2449 H 0.61603 0.99903 0.85868 0.0
H2450 H 0.70212 0.06181 0.96873 0.0
H2451 H 0.7263 0.05727 0.93791 0.0
H2452 H 0.67196 0.03377 0.99188 0.0
H2453 H 0.63377 0.02392 0.98905 0.0
C2454 C 0.0014 0.68254 0.9073 0.0
C2455 C -0.00474 0.68199 0.87647 0.0
C2456 C 0.9914 0.62852 0.87716 0.0
C2457 C -0.00172 0.62853 0.90815 0.0
N2458 N 0.99354 0.65669 0.95346 0.0
N2459 N 0.96895 0.657 0.83709 0.0
C2460 C -0.00135 0.65592 0.92362 0.0
C2461 C 0.98502 0.65568 0.86307 0.0
N2462 N 0.00996 0.70809 0.92088 0.0
N2463 N 0.99194 0.60303 0.86092 0.0
H2464 H 0.96167 0.67726 0.82865 0.0
H2465 H 0.95946 0.63853 0.82693 0.0
H2466 H -0.00182 0.58277 0.87008 0.0
H2467 H 0.98919 0.6027 0.83773 0.0
H2468 H 0.01677 0.70905 0.94318 0.0
H2469 H 0.01113 0.72803 0.90938 0.0
H2470 H 0.99038 0.67631 0.96524 0.0
H2471 H 0.99037 0.63739 0.9655 0.0
C2472 C 0.10631 0.36811 0.04507 0.0
C2473 C 0.11344 0.34929 0.02056 0.0
C2474 C 0.10177 0.3893 0.9856 0.0
C2475 C 0.0956 0.40871 0.00996 0.0
N2476 N 0.08773 0.41575 0.06282 0.0
N2477 N 0.10677 0.33894 0.96818 0.0
C2478 C 0.09599 0.39764 0.03972 0.0
C2479 C 0.1069 0.35884 0.99111 0.0
N2480 N 0.11129 0.35792 0.07341 0.0
N2481 N 0.10518 0.40021 0.95732 0.0
H2482 H 0.11054 0.31654 0.97154 0.0
H2483 H 0.09943 0.34411 0.94663 0.0
H2484 H 0.10357 0.42252 0.95236 0.0
H2485 H 0.11277 0.38761 0.93928 0.0
H2486 H 0.10964 0.37072 0.09267 0.0
H2487 H 0.11763 0.33607 0.0774 0.0
H2488 H 0.08558 0.40887 0.0849 0.0
H2489 H 0.08123 0.43764 0.05959 0.0
C2490 C 0.11015 0.67581 0.05672 0.0
C2491 C 0.10171 0.69849 0.03664 0.0
C2492 C 0.06685 0.66403 0.01216 0.0
C2493 C 0.07728 0.64026 0.03073 0.0
N2494 N 0.1198 0.62376 0.05988 0.0
N2495 N 0.06884 0.71593 0.99807 0.0
C2496 C 0.10149 0.64619 0.05071 0.0
C2497 C 0.07899 0.69304 0.01527 0.0
N2498 N 0.12809 0.68239 0.08064 0.0
N2499 N 0.04767 0.65821 0.98915 0.0
H2500 H 0.07765 0.73715 9e-05 0.0
H2501 H 0.05024 0.71471 0.98382 0.0
H2502 H 0.03511 0.63897 0.9881 0.0
H2503 H 0.04649 0.67137 0.97015 0.0
H2504 H 0.13332 0.66702 0.09722 0.0
H2505 H 0.13489 0.70395 0.08519 0.0
H2506 H 0.13972 0.62719 0.07198 0.0
H2507 H 0.11726 0.60238 0.0517 0.0
C2508 C 0.33657 0.13012 0.99405 0.0
C2509 C 0.33142 0.15707 0.00937 0.0
C2510 C 0.38447 0.15674 0.02701 0.0
C2511 C 0.38975 0.13005 0.0113 0.0
N2512 N 0.36951 0.08804 0.98482 0.0
N2513 N 0.34781 0.1922 0.04632 0.0
C2514 C 0.36534 0.11574 0.99632 0.0
C2515 C 0.35456 0.16904 0.02788 0.0
N2516 N 0.31406 0.11892 0.9764 0.0
N2517 N 0.40834 0.17081 0.04021 0.0
H2518 H 0.32609 0.20125 0.04779 0.0
H2519 H 0.36271 0.20062 0.0622 0.0
H2520 H 0.43043 0.16243 0.03957 0.0
H2521 H 0.40692 0.19176 0.04961 0.0
H2522 H 0.31716 0.10162 0.96137 0.0
H2523 H 0.2922 0.12791 0.97612 0.0
H2524 H 0.352 0.07501 0.97667 0.0
H2525 H 0.39034 0.07706 0.98515 0.0
C2526 C 0.93443 0.3545 0.03768 0.0
C2527 C 0.92952 0.34555 0.00786 0.0
C2528 C 0.94896 0.39277 0.98977 0.0
C2529 C 0.94648 0.40416 0.01937 0.0
N2530 N 0.94221 0.3952 0.07231 0.0
N2531 N 0.94221 0.35058 0.95634 0.0
C2532 C 0.94168 0.38453 0.0437 0.0
C2533 C 0.94152 0.36267 0.98431 0.0
N2534 N 0.93045 0.33438 0.05992 0.0
N2535 N 0.95586 0.41129 0.96683 0.0
H2536 H 0.93578 0.32871 0.95284 0.0
H2537 H 0.95039 0.3611 0.93735 0.0
H2538 H 0.96195 0.43304 0.97062 0.0
H2539 H 0.95587 0.40539 0.94433 0.0
H2540 H 0.9348 0.33843 0.08244 0.0
H2541 H 0.92492 0.31256 0.05502 0.0
H2542 H 0.93642 0.38301 0.09112 0.0
H2543 H 0.94826 0.41687 0.0772 0.0
C2544 C 0.69321 0.89179 0.02526 0.0
C2545 C 0.71179 0.90008 0.00072 0.0
C2546 C 0.67019 0.93137 0.98216 0.0
C2547 C 0.64984 0.91842 0.00317 0.0
N2548 N 0.64208 0.8848 0.04407 0.0
N2549 N 0.71805 0.92762 0.95539 0.0
C2550 C 0.66152 0.89843 0.02477 0.0
C2551 C 0.7003 0.92006 0.97919 0.0
N2552 N 0.7059 0.87721 0.0489 0.0
N2553 N 0.66144 0.95557 0.9662 0.0
H2554 H 0.74078 0.92116 0.95384 0.0
H2555 H 0.70992 0.93904 0.9368 0.0
H2556 H 0.64033 0.96552 0.96886 0.0
H2557 H 0.67618 0.96756 0.95276 0.0
H2558 H 0.69434 0.87287 0.06873 0.0
H2559 H 0.72894 0.87205 0.04984 0.0
H2560 H 0.64862 0.86788 0.05843 0.0
H2561 H 0.61871 0.8885 0.04372 0.0
C2562 C 0.93312 0.68324 0.00553 0.0
C2563 C 0.90637 0.68675 0.98871 0.0
C2564 C 0.91171 0.63559 0.96986 0.0
C2565 C 0.93597 0.63101 0.99025 0.0
N2566 N 0.97485 0.65384 0.02096 0.0
N2567 N 0.87405 0.66981 0.94917 0.0
C2568 C 0.94818 0.65578 0.00581 0.0
C2569 C 0.89723 0.66407 0.96861 0.0
N2570 N 0.94382 0.70609 0.02235 0.0
N2571 N 0.90163 0.61242 0.95315 0.0
H2572 H 0.86362 0.69049 0.94817 0.0
H2573 H 0.86636 0.65514 0.933 0.0
H2574 H 0.91243 0.59193 0.95339 0.0
H2575 H 0.88276 0.61318 0.9392 0.0
H2576 H 0.96298 0.70418 0.03599 0.0
H2577 H 0.93368 0.72693 0.02203 0.0
H2578 H 0.98893 0.63535 0.02013 0.0
H2579 H 0.98893 0.63535 0.02013 0.0
C2580 C 0.32814 0.89094 0.9892 0.0
C2581 C 0.3073 0.89977 0.01176 0.0
C2582 C 0.33757 0.94423 0.02026 0.0
C2583 C 0.36166 0.9318 0.00327 0.0
N2584 N 0.37982 0.8932 0.97055 0.0
N2585 N 0.29133 0.93545 0.04834 0.0
C2586 C 0.35671 0.90542 0.98684 0.0
C2587 C 0.3115 0.92695 0.02676 0.0
N2588 N 0.32085 0.86805 0.97073 0.0
N2589 N 0.33948 0.97276 0.0296 0.0
H2590 H 0.2714 0.9238 0.05243 0.0
H2591 H 0.29504 0.95308 0.06283 0.0
H2592 H 0.35769 0.98609 0.0236 0.0
H2593 H 0.3218 0.98395 0.04022 0.0
H2594 H 0.33374 0.86195 0.95217 0.0
H2595 H 0.3002 0.85704 0.97235 0.0
H2596 H 0.37878 0.87233 0.96093 0.0
H2597 H 0.40089 0.9032 0.968 0.0
C2598 C 0.72465 0.11775 0.01736 0.0
C2599 C 0.73309 0.13611 0.99334 0.0
C2600 C 0.68365 0.12761 0.96928 0.0
C2601 C 0.67448 0.11033 0.99419 0.0
N2602 N 0.69141 0.0793 0.03455 0.0
N2603 N 0.72556 0.1498 0.94209 0.0
C2604 C 0.6966 0.10245 0.01602 0.0
C2605 C 0.71431 0.13746 0.96757 0.0
N2606 N 0.74263 0.11619 0.04218 0.0
N2607 N 0.66284 0.13661 0.94851 0.0
H2608 H 0.74782 0.15752 0.94096 0.0
H2609 H 0.71408 0.14963 0.9217 0.0
H2610 H 0.63997 0.13106 0.94946 0.0
H2611 H 0.66771 0.15172 0.93169 0.0
H2612 H 0.73583 0.10604 0.06198 0.0
H2613 H 0.76384 0.12628 0.04309 0.0
H2614 H 0.70827 0.07034 0.04816 0.0
H2615 H 0.6717 0.06688 0.03305 0.0
C2616 C 0.55552 0.64379 0.84935 0.0
C2617 C 0.53604 0.6382 0.82477 0.0
C2618 C 0.51785 0.59427 0.85157 0.0
C2619 C 0.53091 0.60493 0.87895 0.0
N2620 N 0.56322 0.641 0.90277 0.0
N2621 N 0.49905 0.60686 0.80184 0.0
C2622 C 0.55008 0.63003 0.87746 0.0
C2623 C 0.51767 0.61275 0.82549 0.0
N2624 N 0.57967 0.66203 0.84542 0.0
N2625 N 0.50561 0.56676 0.85008 0.0
H2626 H 0.49907 0.61952 0.78238 0.0
H2627 H 0.48274 0.59036 0.80205 0.0
H2628 H 0.50373 0.55268 0.86826 0.0
H2629 H 0.49929 0.55689 0.82997 0.0
H2630 H 0.59626 0.66541 0.86168 0.0
H2631 H 0.58485 0.67081 0.82445 0.0
H2632 H 0.57433 0.66121 0.90337 0.0
H2633 H 0.56177 0.63073 0.92352 0.0
C2634 C 0.43329 0.55513 0.86027 0.0
C2635 C 0.41777 0.53332 0.84345 0.0
C2636 C 0.42716 0.49752 0.88362 0.0
C2637 C 0.437 0.52079 0.90267 0.0
N2638 N 0.45228 0.57127 0.90879 0.0
N2639 N 0.41065 0.48175 0.83408 0.0
C2640 C 0.44187 0.54931 0.89059 0.0
C2641 C 0.41851 0.50373 0.85343 0.0
N2642 N 0.43772 0.582 0.84733 0.0
N2643 N 0.42448 0.46977 0.89513 0.0
H2644 H 0.40486 0.48585 0.8119 0.0
H2645 H 0.41261 0.45941 0.83883 0.0
H2646 H 0.43204 0.46435 0.91655 0.0
H2647 H 0.41428 0.45226 0.88407 0.0
H2648 H 0.4493 0.59934 0.85727 0.0
H2649 H 0.43119 0.58605 0.82522 0.0
H2650 H 0.45388 0.59324 0.90251 0.0
H2651 H 0.45888 0.56761 0.93088 0.0
C2652 C 0.47129 0.39349 0.85843 0.0
C2653 C 0.48953 0.3981 0.83277 0.0
C2654 C 0.50511 0.44592 0.85392 0.0
C2655 C 0.49306 0.43769 0.88255 0.0
N2656 N 0.46054 0.40514 0.91036 0.0
N2657 N 0.52258 0.4294 0.80482 0.0
C2658 C 0.47467 0.41202 0.88413 0.0
C2659 C 0.50559 0.42484 0.82994 0.0
N2660 N 0.45069 0.37111 0.85798 0.0
N2661 N 0.51594 0.47366 0.84919 0.0
H2662 H 0.52225 0.41492 0.78666 0.0
H2663 H 0.53772 0.44672 0.80237 0.0
H2664 H 0.51702 0.48993 0.86547 0.0
H2665 H 0.52145 0.48161 0.82805 0.0
H2666 H 0.43458 0.36769 0.87462 0.0
H2667 H 0.4479 0.35759 0.83925 0.0
H2668 H 0.45071 0.38477 0.91448 0.0
H2669 H 0.45927 0.41968 0.92838 0.0
C2670 C 0.58846 0.49333 0.85025 0.0
C2671 C 0.60041 0.51765 0.83426 0.0
C2672 C 0.59378 0.54904 0.87838 0.0
C2673 C 0.58679 0.52377 0.89582 0.0
N2674 N 0.57276 0.47266 0.89818 0.0
N2675 N 0.60173 0.57006 0.82896 0.0
C2676 C 0.58177 0.49625 0.88149 0.0
C2677 C 0.59838 0.54607 0.84696 0.0
N2678 N 0.58663 0.46694 0.83569 0.0
N2679 N 0.59787 0.57555 0.89224 0.0
H2680 H 0.60476 0.56798 0.80592 0.0
H2681 H 0.59839 0.59165 0.83616 0.0
H2682 H 0.59268 0.57891 0.91476 0.0
H2683 H 0.60724 0.59385 0.8818 0.0
H2684 H 0.57969 0.4473 0.84537 0.0
H2685 H 0.59164 0.46521 0.81288 0.0
H2686 H 0.56892 0.45171 0.88964 0.0
H2687 H 0.56831 0.47419 0.92105 0.0
C2688 C 0.52892 0.37937 0.16313 0.0
C2689 C 0.51579 0.39091 0.18965 0.0
C2690 C 0.50978 0.4383 0.16355 0.0
C2691 C 0.5159 0.42438 0.13548 0.0
N2692 N 0.52512 0.37823 0.1094 0.0
N2693 N 0.4923 0.43204 0.21478 0.0
C2694 C 0.52408 0.39399 0.13548 0.0
C2695 C 0.50594 0.42069 0.18987 0.0
N2696 N 0.54585 0.35416 0.16436 0.0
N2697 N 0.50922 0.46825 0.16552 0.0
H2698 H 0.48992 0.41997 0.23448 0.0
H2699 H 0.48185 0.4527 0.2151 0.0
H2700 H 0.51396 0.48174 0.1473 0.0
H2701 H 0.50776 0.4794 0.1859 0.0
H2702 H 0.5577 0.34586 0.14596 0.0
H2703 H 0.55085 0.34384 0.18466 0.0
H2704 H 0.52872 0.35551 0.10894 0.0
H2705 H 0.51843 0.38679 0.0888 0.0
C2706 C 0.58765 0.51315 0.17944 0.0
C2707 C 0.60602 0.48807 0.18419 0.0
C2708 C 0.59613 0.47094 0.13268 0.0
C2709 C 0.58031 0.49763 0.12682 0.0
N2710 N 0.55369 0.54005 0.14677 0.0
N2711 N 0.61987 0.43896 0.16987 0.0
C2712 C 0.57335 0.5171 0.15117 0.0
C2713 C 0.60712 0.46538 0.1623 0.0
N2714 N 0.58589 0.53424 0.20127 0.0
N2715 N 0.60292 0.45223 0.10967 0.0
H2716 H 0.62819 0.43499 0.1914 0.0
H2717 H 0.61969 0.42049 0.15604 0.0
H2718 H 0.59531 0.45574 0.08792 0.0
H2719 H 0.61723 0.43404 0.11174 0.0
H2720 H 0.57661 0.55514 0.19818 0.0
H2721 H 0.59491 0.53104 0.22262 0.0
H2722 H 0.54586 0.55393 0.16368 0.0
H2723 H 0.54312 0.54385 0.12631 0.0
C2724 C 0.50622 0.64697 0.17554 0.0
C2725 C 0.5357 0.65077 0.18727 0.0
C2726 C 0.557 0.62325 0.14461 0.0
C2727 C 0.52739 0.61984 0.13183 0.0
N2728 N 0.47312 0.62089 0.14189 0.0
N2729 N 0.58666 0.63282 0.18959 0.0
C2730 C 0.50179 0.6292 0.14947 0.0
C2731 C 0.56 0.63487 0.17423 0.0
N2732 N 0.48252 0.66186 0.18831 0.0
N2733 N 0.58252 0.61852 0.12787 0.0
H2734 H 0.58904 0.64206 0.21091 0.0
H2735 H 0.60472 0.61954 0.18267 0.0
H2736 H 0.5823 0.61404 0.10505 0.0
H2737 H 0.60429 0.623 0.13569 0.0
H2738 H 0.46118 0.66375 0.17843 0.0
H2739 H 0.48473 0.67346 0.20836 0.0
H2740 H 0.45439 0.62407 0.15577 0.0
H2741 H 0.46822 0.60819 0.12328 0.0
C2742 C 0.39757 0.57589 0.14913 0.0
C2743 C 0.40972 0.56365 0.17585 0.0
C2744 C 0.45624 0.55034 0.14961 0.0
C2745 C 0.44223 0.55787 0.12189 0.0
N2746 N 0.40388 0.58503 0.09558 0.0
N2747 N 0.45332 0.54964 0.20418 0.0
C2748 C 0.41441 0.57357 0.12184 0.0
C2749 C 0.44037 0.55503 0.17695 0.0
N2750 N 0.36899 0.58762 0.14986 0.0
N2751 N 0.48375 0.53652 0.14936 0.0
H2752 H 0.44124 0.55273 0.22405 0.0
H2753 H 0.47615 0.54463 0.20736 0.0
H2754 H 0.4952 0.53199 0.12948 0.0
H2755 H 0.49467 0.52868 0.16837 0.0
H2756 H 0.35716 0.59493 0.13113 0.0
H2757 H 0.35707 0.58991 0.16995 0.0
H2758 H 0.38429 0.59776 0.09367 0.0
H2759 H 0.41618 0.58315 0.0757 0.0
C2760 C 0.83369 0.49708 0.63597 0.0
C2761 C 0.82239 0.52416 0.64674 0.0
C2762 C 0.86424 0.54956 0.62135 0.0
C2763 C 0.87912 0.52193 0.61656 0.0
N2764 N 0.87862 0.46903 0.62334 0.0
N2765 N 0.82533 0.57673 0.64868 0.0
C2766 C 0.86378 0.49552 0.62465 0.0
C2767 C 0.83697 0.55063 0.63854 0.0
N2768 N 0.81594 0.47265 0.63796 0.0
N2769 N 0.87528 0.57462 0.6087 0.0
H2770 H 0.80448 0.57784 0.65977 0.0
H2771 H 0.83671 0.59672 0.64724 0.0
H2772 H 0.8949 0.57505 0.59588 0.0
H2773 H 0.86352 0.59456 0.60888 0.0
H2774 H 0.82175 0.4525 0.62827 0.0
H2775 H 0.79394 0.47378 0.6466 0.0
H2776 H 0.8693 0.44946 0.63115 0.0
H2777 H 0.90149 0.46712 0.61764 0.0
C2778 C 0.53769 0.855 0.60065 0.0
C2779 C 0.52299 0.8502 0.62849 0.0
C2780 C 0.50102 0.89998 0.62598 0.0
C2781 C 0.51639 0.90545 0.59847 0.0
N2782 N 0.54047 0.88415 0.55504 0.0
N2783 N 0.4826 0.86402 0.66175 0.0
C2784 C 0.53199 0.88165 0.58431 0.0
C2785 C 0.50166 0.87125 0.63884 0.0
N2786 N 0.55783 0.83444 0.59035 0.0
N2787 N 0.48781 0.92262 0.64139 0.0
H2788 H 0.4829 0.84327 0.67174 0.0
H2789 H 0.46449 0.87729 0.66851 0.0
H2790 H 0.48747 0.94423 0.63383 0.0
H2791 H 0.47991 0.92036 0.66321 0.0
H2792 H 0.57177 0.83776 0.57187 0.0
H2793 H 0.56115 0.81436 0.60128 0.0
H2794 H 0.54937 0.8667 0.54261 0.0
H2795 H 0.53603 0.90301 0.54242 0.0
C2796 C 0.2175 0.50459 0.61062 0.0
C2797 C 0.2315 0.53115 0.61876 0.0
C2798 C 0.18637 0.55864 0.60109 0.0
C2799 C 0.17081 0.53135 0.59626 0.0
N2800 N 0.16995 0.47915 0.60714 0.0
N2801 N 0.2333 0.58349 0.61575 0.0
C2802 C 0.18613 0.50445 0.60337 0.0
C2803 C 0.21703 0.55822 0.61195 0.0
N2804 N 0.23412 0.47918 0.61146 0.0
N2805 N 0.17184 0.58493 0.59653 0.0
H2806 H 0.25578 0.58299 0.62312 0.0
H2807 H 0.22591 0.6044 0.60956 0.0
H2808 H 0.15139 0.58723 0.58524 0.0
H2809 H 0.17988 0.60505 0.60423 0.0
H2810 H 0.22602 0.45915 0.6034 0.0
H2811 H 0.25707 0.47925 0.61733 0.0
H2812 H 0.17955 0.4598 0.6154 0.0
H2813 H 0.14631 0.47857 0.60642 0.0
C2814 C 0.51699 0.17319 0.63441 0.0
C2815 C 0.49905 0.19686 0.62386 0.0
C2816 C 0.49116 0.16802 0.57755 0.0
C2817 C 0.50287 0.14194 0.59177 0.0
N2818 N 0.51718 0.12069 0.6397 0.0
N2819 N 0.46638 0.21563 0.58515 0.0
C2820 C 0.51316 0.14482 0.62189 0.0
C2821 C 0.48527 0.19397 0.59528 0.0
N2822 N 0.53721 0.17763 0.65701 0.0
N2823 N 0.48708 0.16897 0.54731 0.0
H2824 H 0.46262 0.23503 0.5972 0.0
H2825 H 0.4533 0.21336 0.56583 0.0
H2826 H 0.4929 0.15172 0.5331 0.0
H2827 H 0.48091 0.18818 0.53605 0.0
H2828 H 0.55192 0.1611 0.66445 0.0
H2829 H 0.54143 0.19865 0.66553 0.0
H2830 H 0.52303 0.12247 0.66227 0.0
H2831 H 0.51029 0.09962 0.63343 0.0
C2832 C 0.80851 0.51288 0.41984 0.0
C2833 C 0.80532 0.52301 0.39008 0.0
C2834 C 0.85389 0.54909 0.39396 0.0
C2835 C 0.85798 0.53714 0.42301 0.0
N2836 N 0.8335 0.51994 0.46757 0.0
N2837 N 0.81922 0.55851 0.35268 0.0
C2838 C 0.83336 0.5229 0.43725 0.0
C2839 C 0.82595 0.54412 0.37867 0.0
N2840 N 0.78864 0.4927 0.43091 0.0
N2841 N 0.87724 0.56328 0.38011 0.0
H2842 H 0.79906 0.55494 0.34102 0.0
H2843 H 0.83202 0.57588 0.34435 0.0
H2844 H 0.8978 0.56775 0.39063 0.0
H2845 H 0.87686 0.56929 0.35763 0.0
H2846 H 0.79201 0.48177 0.45116 0.0
H2847 H 0.76951 0.48604 0.41894 0.0
H2848 H 0.81555 0.51102 0.47966 0.0
H2849 H 0.8499 0.53042 0.48052 0.0
C2850 C 0.54077 0.85086 0.42379 0.0
C2851 C 0.52462 0.84727 0.3966 0.0
C2852 C 0.50438 0.89764 0.40124 0.0
C2853 C 0.52085 0.90177 0.42834 0.0
N2854 N 0.54708 0.87898 0.4698 0.0
N2855 N 0.48323 0.86299 0.36552 0.0
C2856 C 0.53673 0.87729 0.44102 0.0
C2857 C 0.5035 0.86921 0.38773 0.0
N2858 N 0.56055 0.82934 0.43262 0.0
N2859 N 0.49166 0.92122 0.38683 0.0
H2860 H 0.48241 0.84233 0.35523 0.0
H2861 H 0.46543 0.87705 0.35969 0.0
H2862 H 0.49337 0.94282 0.39449 0.0
H2863 H 0.48219 0.91981 0.36552 0.0
H2864 H 0.57504 0.83136 0.45088 0.0
H2865 H 0.56289 0.80955 0.42089 0.0
H2866 H 0.55643 0.86118 0.48128 0.0
H2867 H 0.54365 0.89751 0.48324 0.0
C2868 C 0.18816 0.51432 0.37246 0.0
C2869 C 0.20724 0.53825 0.38026 0.0
C2870 C 0.1697 0.5543 0.41733 0.0
C2871 C 0.14825 0.53406 0.40526 0.0
N2872 N 0.13691 0.49506 0.37049 0.0
N2873 N 0.21639 0.58146 0.40988 0.0
C2874 C 0.15756 0.51398 0.38266 0.0
C2875 C 0.19811 0.55829 0.40278 0.0
N2876 N 0.19956 0.49189 0.35535 0.0
N2877 N 0.16378 0.56838 0.44374 0.0
H2878 H 0.23808 0.58379 0.40085 0.0
H2879 H 0.2095 0.59886 0.42357 0.0
H2880 H 0.14385 0.56522 0.45574 0.0
H2881 H 0.17985 0.58081 0.45518 0.0
H2882 H 0.18781 0.47256 0.35083 0.0
H2883 H 0.22206 0.49154 0.34805 0.0
H2884 H 0.14147 0.48178 0.35198 0.0
H2885 H 0.11429 0.49452 0.37735 0.0
C2886 C 0.49183 0.16599 0.38555 0.0
C2887 C 0.5103 0.1896 0.3948 0.0
C2888 C 0.52106 0.16185 0.44096 0.0
C2889 C 0.50944 0.13534 0.42767 0.0
N2890 N 0.49162 0.11343 0.38097 0.0
N2891 N 0.54466 0.20926 0.43133 0.0
C2892 C 0.49649 0.13774 0.39836 0.0
C2893 C 0.52555 0.18735 0.42261 0.0
N2894 N 0.47153 0.17 0.36285 0.0
N2895 N 0.52643 0.16361 0.471 0.0
H2896 H 0.54711 0.22859 0.41895 0.0
H2897 H 0.55902 0.20734 0.4498 0.0
H2898 H 0.51993 0.14743 0.48605 0.0
H2899 H 0.53322 0.18304 0.48146 0.0
H2900 H 0.4561 0.15379 0.35653 0.0
H2901 H 0.46814 0.19053 0.35285 0.0
H2902 H 0.48371 0.11485 0.35901 0.0
H2903 H 0.50015 0.09262 0.38609 0.0
C2904 C 0.62905 0.86552 0.48654 0.0
C2905 C 0.63833 0.85135 0.51327 0.0
C2906 C 0.61522 0.89181 0.54261 0.0
C2907 C 0.6112 0.9083 0.51584 0.0
N2908 N 0.61423 0.91106 0.46202 0.0
N2909 N 0.63712 0.84833 0.56677 0.0
C2910 C 0.61744 0.89491 0.48766 0.0
C2911 C 0.62974 0.86345 0.54136 0.0
N2912 N 0.63265 0.85096 0.45999 0.0
N2913 N 0.6058 0.90371 0.56915 0.0
H2914 H 0.64658 0.82721 0.56595 0.0
H2915 H 0.63417 0.85638 0.58838 0.0
H2916 H 0.59581 0.92456 0.57044 0.0
H2917 H 0.60592 0.89252 0.58944 0.0
H2918 H 0.62471 0.85876 0.43953 0.0
H2919 H 0.6412 0.82947 0.45903 0.0
H2920 H 0.62155 0.90403 0.44105 0.0
H2921 H 0.60561 0.93248 0.46185 0.0
C2922 C 0.64137 0.1694 0.48494 0.0
C2923 C 0.63459 0.19199 0.50575 0.0
C2924 C 0.59268 0.16156 0.52471 0.0
C2925 C 0.60386 0.13682 0.50806 0.0
N2926 N 0.64578 0.11692 0.47929 0.0
N2927 N 0.60478 0.20877 0.54759 0.0
C2928 C 0.62999 0.14072 0.48985 0.0
C2929 C 0.61038 0.18793 0.52623 0.0
N2930 N 0.65997 0.17506 0.46123 0.0
N2931 N 0.56483 0.1606 0.538 0.0
H2932 H 0.61659 0.22862 0.54845 0.0
H2933 H 0.58973 0.20555 0.56527 0.0
H2934 H 0.5504 0.14264 0.53613 0.0
H2935 H 0.55472 0.17888 0.5481 0.0
H2936 H 0.66393 0.15976 0.44421 0.0
H2937 H 0.66866 0.19604 0.45719 0.0
H2938 H 0.66622 0.11886 0.46771 0.0
H2939 H 0.64092 0.09542 0.4858 0.0
C2940 C 0.85755 0.62887 0.48362 0.0
C2941 C 0.84212 0.64476 0.50625 0.0
C2942 C 0.88002 0.6272 0.54274 0.0
C2943 C 0.8971 0.61291 0.51929 0.0
N2944 N 0.90702 0.61455 0.46621 0.0
N2945 N 0.8328 0.65048 0.55871 0.0
C2946 C 0.88697 0.61706 0.48931 0.0
C2947 C 0.85144 0.64097 0.53624 0.0
N2948 N 0.84472 0.62694 0.45592 0.0
N2949 N 0.89245 0.63129 0.57044 0.0
H2950 H 0.81193 0.66051 0.55456 0.0
H2951 H 0.83615 0.64527 0.58118 0.0
H2952 H 0.91445 0.62554 0.57612 0.0
H2953 H 0.88262 0.64436 0.58701 0.0
H2954 H 0.85373 0.61378 0.43891 0.0
H2955 H 0.82344 0.63619 0.45145 0.0
H2956 H 0.90137 0.61939 0.44409 0.0
H2957 H 0.93029 0.61287 0.46981 0.0
C2958 C 0.42055 0.85324 0.49346 0.0
C2959 C 0.39975 0.84596 0.51636 0.0
C2960 C 0.41183 0.89197 0.54267 0.0
C2961 C 0.43148 0.90042 0.51874 0.0
N2962 N 0.46335 0.88312 0.47838 0.0
N2963 N 0.38539 0.85197 0.56762 0.0
C2964 C 0.43873 0.87904 0.49637 0.0
C2965 C 0.39937 0.863 0.54286 0.0
N2966 N 0.42173 0.83622 0.46829 0.0
N2967 N 0.40254 0.91195 0.56371 0.0
H2968 H 0.37573 0.83101 0.56761 0.0
H2969 H 0.38636 0.86207 0.58856 0.0
H2970 H 0.40892 0.93393 0.56398 0.0
H2971 H 0.38585 0.90742 0.57952 0.0
H2972 H 0.43369 0.84212 0.44911 0.0
H2973 H 0.40952 0.81664 0.46652 0.0
H2974 H 0.47098 0.86742 0.46306 0.0
H2975 H 0.47815 0.90069 0.48152 0.0
C2976 C 0.21844 0.4275 0.49557 0.0
C2977 C 0.21857 0.41161 0.5229 0.0
C2978 C 0.17225 0.43741 0.53888 0.0
C2979 C 0.1724 0.45389 0.51195 0.0
N2980 N 0.19865 0.46842 0.46671 0.0
N2981 N 0.20119 0.40743 0.5737 0.0
C2982 C 0.19677 0.45052 0.49123 0.0
C2983 C 0.19746 0.41901 0.54573 0.0
N2984 N 0.23721 0.41904 0.47273 0.0
N2985 N 0.14749 0.4382 0.55724 0.0
H2986 H 0.21988 0.39426 0.5792 0.0
H2987 H 0.18752 0.41292 0.5919 0.0
H2988 H 0.12873 0.45162 0.55317 0.0
H2989 H 0.1446 0.42399 0.57529 0.0
H2990 H 0.23527 0.42694 0.45095 0.0
H2991 H 0.25369 0.40267 0.47495 0.0
H2992 H 0.21788 0.46957 0.45322 0.0
H2993 H 0.18181 0.4834 0.46053 0.0
C2994 C 0.40153 0.17425 0.53908 0.0
C2995 C 0.39641 0.18961 0.51204 0.0
C2996 C 0.4261 0.1528 0.48433 0.0
C2997 C 0.42905 0.13565 0.51098 0.0
N2998 N 0.42706 0.13473 0.56532 0.0
N2999 N 0.412 0.19994 0.46204 0.0
C3000 C 0.41919 0.14789 0.53891 0.0
C3001 C 0.41197 0.18112 0.48581 0.0
N3002 N 0.38759 0.18404 0.56459 0.0
N3003 N 0.4342 0.14112 0.45724 0.0
H3004 H 0.40122 0.22047 0.46315 0.0
H3005 H 0.42497 0.19663 0.44283 0.0
H3006 H 0.44275 0.11986 0.45462 0.0
H3007 H 0.43008 0.15149 0.43687 0.0
H3008 H 0.3863 0.17198 0.58434 0.0
H3009 H 0.3762 0.20425 0.56549 0.0
H3010 H 0.42338 0.14421 0.58624 0.0
H3011 H 0.43997 0.1156 0.56669 0.0
C3012 C 0.81164 0.43338 0.51357 0.0
C3013 C 0.8135 0.41359 0.4893 0.0
C3014 C 0.85959 0.43809 0.47138 0.0
C3015 C 0.85977 0.45563 0.49777 0.0
N3016 N 0.83302 0.47163 0.54296 0.0
N3017 N 0.83212 0.40304 0.44019 0.0
C3018 C 0.83468 0.45449 0.51793 0.0
C3019 C 0.83489 0.41855 0.46624 0.0
N3020 N 0.78878 0.43066 0.53394 0.0
N3021 N 0.88386 0.43871 0.45235 0.0
H3022 H 0.81422 0.38838 0.4369 0.0
H3023 H 0.84557 0.40643 0.42138 0.0
H3024 H 0.90232 0.45259 0.45564 0.0
H3025 H 0.88665 0.42441 0.43432 0.0
H3026 H 0.78698 0.4441 0.55286 0.0
H3027 H 0.77131 0.41547 0.53118 0.0
H3028 H 0.84913 0.48718 0.54925 0.0
H3029 H 0.84913 0.48718 0.54925 0.0
C3030 C 0.17121 0.65144 0.48652 0.0
C3031 C 0.19501 0.64242 0.50576 0.0
C3032 C 0.16542 0.59826 0.51806 0.0
C3033 C 0.13907 0.61104 0.50445 0.0
N3034 N 0.11707 0.65287 0.47912 0.0
N3035 N 0.21554 0.60657 0.53958 0.0
C3036 C 0.14217 0.6383 0.48922 0.0
C3037 C 0.19239 0.6155 0.52142 0.0
N3038 N 0.17635 0.67305 0.46596 0.0
N3039 N 0.16536 0.5693 0.52616 0.0
H3040 H 0.23563 0.61846 0.54168 0.0
H3041 H 0.21459 0.58793 0.553 0.0
H3042 H 0.14676 0.55567 0.52281 0.0
H3043 H 0.18469 0.55804 0.53327 0.0
H3044 H 0.16062 0.67883 0.44953 0.0
H3045 H 0.19761 0.68277 0.46343 0.0
H3046 H 0.11781 0.67409 0.47029 0.0
H3047 H 0.09526 0.64527 0.48322 0.0
loop_
_geom_bond_atom_site_label_1
_geom_bond_atom_site_label_2
_geom_bond_distance
_geom_bond_site_symmetry_2
_ccdc_geom_bond_type
C0 C1 1.391 . S
C0 C4 1.391 . S
C0 H42 0.948 . S
C1 C0 1.391 . S
C1 C2 1.391 . S
C2 C1 1.391 . S
C2 H58 0.947 . S
C2 C59 1.392 . S
C3 C4 1.391 . S
C3 C7 1.397 . S
C3 C59 1.419 . S
C4 C0 1.391 . S
C4 C3 1.391 . S
C4 C5 1.399 . S
C5 C4 1.399 . S
C5 C8 1.396 . S
C5 C17 1.453 . S
C5 C18 1.684 . S
H6 C30 0.948 . S
C7 C3 1.397 . S
C7 C8 1.394 . S
C7 C26 1.723 . S
C8 C5 1.396 . S
C8 C7 1.394 . S
C8 C38 1.723 . S
H9 C32 0.947 . S
H10 C33 0.948 . S
H11 C39 0.982 . S
H12 C40 0.979 1_655 S
H13 C40 0.980 . S
H14 C40 0.983 . S
H15 C39 0.979 . S
H16 C39 0.977 . S
C17 C5 1.453 . S
C17 H46 0.982 . S
C17 H47 0.979 . S
C17 H48 0.977 . S
C18 C5 1.684 . S
C18 H43 0.979 1_455 S
C18 H44 0.980 . S
C18 H45 0.983 . S
C19 C20 1.391 . S
C19 C24 1.391 . S
C19 H49 0.948 . S
C20 C19 1.391 . S
C20 C21 1.391 . S
C21 C20 1.391 . S
C21 C22 1.392 . S
C21 H50 0.947 . S
C22 C21 1.392 . S
C22 C23 1.419 . S
C22 H51 0.948 . S
C23 C22 1.419 . S
C23 C24 1.391 . S
C23 C27 1.397 . S
C24 C19 1.391 . S
C24 C23 1.391 . S
C24 C25 1.399 . S
C25 C24 1.399 . S
C25 C26 1.396 . S
C25 C28 1.453 . S
C25 C29 1.684 . S
C26 C7 1.723 . S
C26 C25 1.396 . S
C26 C27 1.394 . S
C27 C23 1.397 . S
C27 C26 1.394 . S
C27 C37 1.723 . S
C28 C25 1.453 . S
C28 H52 0.982 . S
C28 H53 0.979 . S
C28 H54 0.977 . S
C29 C25 1.684 . S
C29 H55 0.979 1_455 S
C29 H56 0.980 . S
C29 H57 0.983 . S
C30 H6 0.948 . S
C30 C31 1.391 . S
C30 C35 1.391 . S
C31 C30 1.391 . S
C31 C32 1.391 . S
C32 H9 0.947 . S
C32 C31 1.391 . S
C32 C33 1.392 . S
C33 H10 0.948 . S
C33 C32 1.392 . S
C33 C34 1.419 . S
C34 C33 1.419 . S
C34 C35 1.391 . S
C34 C38 1.397 . S
C35 C30 1.391 . S
C35 C34 1.391 . S
C35 C36 1.399 . S
C36 C35 1.399 . S
C36 C37 1.396 . S
C36 C39 1.453 . S
C36 C40 1.684 . S
C37 C27 1.723 . S
C37 C36 1.396 . S
C37 C38 1.394 . S
C38 C8 1.723 . S
C38 C34 1.397 . S
C38 C37 1.394 . S
C39 H11 0.982 . S
C39 H15 0.979 . S
C39 H16 0.977 . S
C39 C36 1.453 . S
C40 H12 0.979 1_455 S
C40 H13 0.980 . S
C40 H14 0.983 . S
C40 C36 1.684 . S
H41 C59 0.948 . S
H42 C0 0.948 . S
H43 C18 0.979 1_655 S
H44 C18 0.980 . S
H45 C18 0.983 . S
H46 C17 0.982 . S
H47 C17 0.979 . S
H48 C17 0.977 . S
H49 C19 0.948 . S
H50 C21 0.947 . S
H51 C22 0.948 . S
H52 C28 0.982 . S
H53 C28 0.979 . S
H54 C28 0.977 . S
H55 C29 0.979 1_655 S
H56 C29 0.980 . S
H57 C29 0.983 . S
H58 C2 0.947 . S
C59 C2 1.392 . S
C59 C3 1.419 . S
C59 H41 0.948 . S
C60 C61 1.391 . S
C60 C64 1.391 . S
C60 H102 0.948 . S
C61 C60 1.391 . S
C61 C62 1.391 . S
C62 C61 1.391 . S
C62 H118 0.947 . S
C62 C119 1.392 . S
C63 C64 1.391 . S
C63 C67 1.397 . S
C63 C119 1.419 . S
C64 C60 1.391 . S
C64 C63 1.391 . S
C64 C65 1.399 . S
C65 C64 1.399 . S
C65 C68 1.396 . S
C65 C77 1.453 . S
C65 C78 1.684 . S
H66 C90 0.948 . S
C67 C63 1.397 . S
C67 C68 1.394 . S
C67 C86 1.723 . S
C68 C65 1.396 . S
C68 C67 1.394 . S
C68 C98 1.723 . S
H69 C92 0.947 . S
H70 C93 0.948 . S
H71 C99 0.982 . S
H72 C100 0.979 . S
H73 C100 0.980 . S
H74 C100 0.983 . S
H75 C99 0.979 . S
H76 C99 0.977 . S
C77 C65 1.453 . S
C77 H106 1.010 . S
C77 H107 0.979 . S
C77 H108 0.977 . S
C78 C65 1.684 . S
C78 H103 0.979 . S
C78 H104 0.980 . S
C78 H105 0.983 . S
C79 C80 1.391 . S
C79 C84 1.391 . S
C79 H109 0.948 . S
C80 C79 1.391 . S
C80 C81 1.391 . S
C81 C80 1.391 . S
C81 C82 1.392 . S
C81 H110 0.947 . S
C82 C81 1.392 . S
C82 C83 1.419 . S
C82 H111 0.948 . S
C83 C82 1.419 . S
C83 C84 1.391 . S
C83 C87 1.397 . S
C84 C79 1.391 . S
C84 C83 1.391 . S
C84 C85 1.399 . S
C85 C84 1.399 . S
C85 C86 1.396 . S
C85 C88 1.453 . S
C85 C89 1.684 . S
C86 C67 1.723 . S
C86 C85 1.396 . S
C86 C87 1.394 . S
C87 C83 1.397 . S
C87 C86 1.394 . S
C87 C97 1.723 . S
C88 C85 1.453 . S
C88 H112 0.982 . S
C88 H113 0.979 . S
C88 H114 0.977 . S
C89 C85 1.684 . S
C89 H115 0.979 . S
C89 H116 0.980 . S
C89 H117 0.983 . S
C90 H66 0.948 . S
C90 C91 1.391 . S
C90 C95 1.391 . S
C91 C90 1.391 . S
C91 C92 1.391 . S
C92 H69 0.947 . S
C92 C91 1.391 . S
C92 C93 1.392 . S
C93 H70 0.948 . S
C93 C92 1.392 . S
C93 C94 1.419 . S
C94 C93 1.419 . S
C94 C95 1.391 . S
C94 C98 1.397 . S
C95 C90 1.391 . S
C95 C94 1.391 . S
C95 C96 1.399 . S
C96 C95 1.399 . S
C96 C97 1.396 . S
C96 C99 1.453 . S
C96 C100 1.684 . S
C97 C87 1.723 . S
C97 C96 1.396 . S
C97 C98 1.394 . S
C98 C68 1.723 . S
C98 C94 1.397 . S
C98 C97 1.394 . S
C99 H71 0.982 . S
C99 H75 0.979 . S
C99 H76 0.977 . S
C99 C96 1.453 . S
C100 H72 0.979 . S
C100 H73 0.980 . S
C100 H74 0.983 . S
C100 C96 1.684 . S
H101 C119 0.948 . S
H102 C60 0.948 . S
H103 C78 0.979 . S
H104 C78 0.980 . S
H105 C78 0.983 . S
H106 C77 1.010 . S
H107 C77 0.979 . S
H108 C77 0.977 . S
H109 C79 0.948 . S
H110 C81 0.947 . S
H111 C82 0.948 . S
H112 C88 0.982 . S
H113 C88 0.979 . S
H114 C88 0.977 . S
H115 C89 0.979 . S
H116 C89 0.980 . S
H117 C89 0.983 . S
H118 C62 0.947 . S
C119 C62 1.392 . S
C119 C63 1.419 . S
C119 H101 0.948 . S
C120 C121 1.391 . S
C120 C124 1.391 . S
C120 H162 0.948 . S
C121 C120 1.391 . S
C121 C122 1.391 . S
C122 C121 1.391 . S
C122 H178 0.947 . S
C122 C179 1.392 . S
C123 C124 1.391 . S
C123 C127 1.397 . S
C123 C179 1.419 . S
C124 C120 1.391 . S
C124 C123 1.391 . S
C124 C125 1.399 . S
C125 C124 1.399 . S
C125 C128 1.396 . S
C125 C137 1.453 . S
C125 C138 1.684 1_455 S
H126 C150 0.948 . S
C127 C123 1.397 . S
C127 C128 1.394 . S
C127 C146 1.723 . S
C128 C125 1.396 . S
C128 C127 1.394 . S
C128 C158 1.723 . S
H129 C152 0.947 . S
H130 C153 0.948 . S
H131 C159 0.982 . S
H132 C160 0.979 . S
H133 C160 0.980 1_455 S
H134 C160 0.977 1_455 S
H135 C159 0.979 . S
H136 C159 0.977 . S
C137 C125 1.453 . S
C137 H166 0.982 . S
C137 H167 0.979 . S
C137 H168 0.977 . S
C138 C125 1.684 1_655 S
C138 H163 0.979 . S
C138 H164 0.980 1_655 S
C138 H165 0.977 1_655 S
C139 C140 1.391 . S
C139 C144 1.391 . S
C139 H169 0.948 . S
C140 C139 1.391 . S
C140 C141 1.391 . S
C141 C140 1.391 . S
C141 C142 1.392 . S
C141 H170 0.947 . S
C142 C141 1.392 . S
C142 C143 1.419 . S
C142 H171 0.948 . S
C143 C142 1.419 . S
C143 C144 1.391 . S
C143 C147 1.397 . S
C144 C139 1.391 . S
C144 C143 1.391 . S
C144 C145 1.399 . S
C145 C144 1.399 . S
C145 C146 1.396 . S
C145 C148 1.453 . S
C145 C149 1.684 1_455 S
C146 C127 1.723 . S
C146 C145 1.396 . S
C146 C147 1.394 . S
C147 C143 1.397 . S
C147 C146 1.394 . S
C147 C157 1.723 . S
C148 C145 1.453 . S
C148 H172 0.982 . S
C148 H173 0.979 . S
C148 H174 0.977 . S
C149 C145 1.684 1_655 S
C149 H175 0.979 . S
C149 H176 0.980 1_655 S
C149 H177 0.977 1_655 S
C150 H126 0.948 . S
C150 C151 1.391 . S
C150 C155 1.391 . S
C151 C150 1.391 . S
C151 C152 1.391 . S
C152 H129 0.947 . S
C152 C151 1.391 . S
C152 C153 1.392 . S
C153 H130 0.948 . S
C153 C152 1.392 . S
C153 C154 1.419 . S
C154 C153 1.419 . S
C154 C155 1.391 . S
C154 C158 1.397 . S
C155 C150 1.391 . S
C155 C154 1.391 . S
C155 C156 1.399 . S
C156 C155 1.399 . S
C156 C157 1.396 . S
C156 C159 1.453 . S
C156 C160 1.684 1_455 S
C157 C147 1.723 . S
C157 C156 1.396 . S
C157 C158 1.394 . S
C158 C128 1.723 . S
C158 C154 1.397 . S
C158 C157 1.394 . S
C159 H131 0.982 . S
C159 H135 0.979 . S
C159 H136 0.977 . S
C159 C156 1.453 . S
C160 H132 0.979 . S
C160 H133 0.980 1_655 S
C160 H134 0.977 1_655 S
C160 C156 1.684 1_655 S
H161 C179 0.948 . S
H162 C120 0.948 . S
H163 C138 0.979 . S
H164 C138 0.980 1_455 S
H165 C138 0.977 1_455 S
H166 C137 0.982 . S
H167 C137 0.979 . S
H168 C137 0.977 . S
H169 C139 0.948 . S
H170 C141 0.947 . S
H171 C142 0.948 . S
H172 C148 0.982 . S
H173 C148 0.979 . S
H174 C148 0.977 . S
H175 C149 0.979 . S
H176 C149 0.980 1_455 S
H177 C149 0.977 1_455 S
H178 C122 0.947 . S
C179 C122 1.392 . S
C179 C123 1.419 . S
C179 H161 0.948 . S
C180 C181 1.391 . S
C180 C184 1.391 . S
C180 H222 0.948 . S
C181 C180 1.391 . S
C181 C182 1.391 . S
C182 C181 1.391 . S
C182 H238 0.947 . S
C182 C239 1.392 . S
C183 C184 1.391 . S
C183 C187 1.397 . S
C183 C239 1.419 . S
C184 C180 1.391 . S
C184 C183 1.391 . S
C184 C185 1.399 . S
C185 C184 1.399 . S
C185 C188 1.396 . S
C185 C197 1.453 1_545 S
C185 C198 1.684 . S
H186 C210 0.948 . S
C187 C183 1.397 . S
C187 C188 1.394 . S
C187 C206 1.723 . S
C188 C185 1.396 . S
C188 C187 1.394 . S
C188 C218 1.723 . S
H189 C212 0.947 . S
H190 C213 0.948 . S
H191 C219 0.982 . S
H192 C220 0.979 . S
H193 C220 0.980 . S
H194 C220 0.983 . S
H195 C219 0.979 . S
H196 C219 0.977 . S
C197 C185 1.453 1_565 S
C197 H226 0.982 . S
C197 H227 0.979 . S
C197 H228 0.977 . S
C198 C185 1.684 . S
C198 H223 0.979 . S
C198 H224 0.980 . S
C198 H225 0.983 . S
C199 C200 1.391 . S
C199 C204 1.391 . S
C199 H229 0.948 . S
C200 C199 1.391 . S
C200 C201 1.391 . S
C201 C200 1.391 . S
C201 C202 1.392 . S
C201 H230 0.947 . S
C202 C201 1.392 . S
C202 C203 1.419 . S
C202 H231 0.948 . S
C203 C202 1.419 . S
C203 C204 1.391 . S
C203 C207 1.397 . S
C204 C199 1.391 . S
C204 C203 1.391 . S
C204 C205 1.399 . S
C205 C204 1.399 . S
C205 C206 1.396 . S
C205 C208 1.453 1_545 S
C205 C209 1.684 . S
C206 C187 1.723 . S
C206 C205 1.396 . S
C206 C207 1.394 . S
C207 C203 1.397 . S
C207 C206 1.394 . S
C207 C217 1.723 . S
C208 C205 1.453 1_565 S
C208 H232 0.982 . S
C208 H233 0.979 . S
C208 H234 0.977 . S
C209 C205 1.684 . S
C209 H235 0.979 . S
C209 H236 0.980 . S
C209 H237 0.983 . S
C210 H186 0.948 . S
C210 C211 1.391 . S
C210 C215 1.391 . S
C211 C210 1.391 . S
C211 C212 1.391 . S
C212 H189 0.947 . S
C212 C211 1.391 . S
C212 C213 1.392 . S
C213 H190 0.948 . S
C213 C212 1.392 . S
C213 C214 1.419 . S
C214 C213 1.419 . S
C214 C215 1.391 . S
C214 C218 1.397 . S
C215 C210 1.391 . S
C215 C214 1.391 . S
C215 C216 1.399 . S
C216 C215 1.399 . S
C216 C217 1.396 . S
C216 C219 1.453 1_545 S
C216 C220 1.684 . S
C217 C207 1.723 . S
C217 C216 1.396 . S
C217 C218 1.394 . S
C218 C188 1.723 . S
C218 C214 1.397 . S
C218 C217 1.394 . S
C219 H191 0.982 . S
C219 H195 0.979 . S
C219 H196 0.977 . S
C219 C216 1.453 1_565 S
C220 H192 0.979 . S
C220 H193 0.980 . S
C220 H194 0.983 . S
C220 C216 1.684 . S
H221 C239 0.948 . S
H222 C180 0.948 . S
H223 C198 0.979 . S
H224 C198 0.980 . S
H225 C198 0.983 . S
H226 C197 0.982 . S
H227 C197 0.979 . S
H228 C197 0.977 . S
H229 C199 0.948 . S
H230 C201 0.947 . S
H231 C202 0.948 . S
H232 C208 0.982 . S
H233 C208 0.979 . S
H234 C208 0.977 . S
H235 C209 0.979 . S
H236 C209 0.980 . S
H237 C209 0.983 . S
H238 C182 0.947 . S
C239 C182 1.392 . S
C239 C183 1.419 . S
C239 H221 0.948 . S
C240 C241 1.391 . S
C240 C244 1.391 . S
C240 H282 0.948 . S
C241 C240 1.391 . S
C241 C242 1.391 . S
C242 C241 1.391 . S
C242 H298 0.947 . S
C242 C299 1.392 . S
C243 C244 1.391 . S
C243 C247 1.396 1_655 S
C243 C299 1.419 . S
C244 C240 1.391 . S
C244 C243 1.391 . S
C244 C245 1.399 . S
C245 C244 1.399 . S
C245 C248 1.396 1_655 S
C245 C257 1.453 1_655 S
C245 C258 1.684 . S
H246 C270 0.948 . S
C247 C243 1.396 1_455 S
C247 C248 1.395 . S
C247 C266 1.723 . S
C248 C245 1.396 1_455 S
C248 C247 1.395 . S
C248 C278 1.723 . S
H249 C272 0.947 . S
H250 C273 0.948 . S
H251 C279 0.982 . S
H252 C280 0.979 . S
H253 C280 0.980 . S
H254 C280 0.983 . S
H255 C279 0.979 . S
H256 C279 0.977 . S
C257 C245 1.453 1_455 S
C257 H286 0.982 . S
C257 H287 0.979 . S
C257 H288 0.977 . S
C258 C245 1.684 . S
C258 H283 0.979 . S
C258 H284 0.980 . S
C258 H285 0.983 . S
C259 C260 1.391 . S
C259 C264 1.391 . S
C259 H289 0.948 . S
C260 C259 1.391 . S
C260 C261 1.391 . S
C261 C260 1.391 . S
C261 C262 1.392 . S
C261 H290 0.947 . S
C262 C261 1.392 . S
C262 C263 1.419 . S
C262 H291 0.948 . S
C263 C262 1.419 . S
C263 C264 1.391 . S
C263 C267 1.396 1_655 S
C264 C259 1.391 . S
C264 C263 1.391 . S
C264 C265 1.399 . S
C265 C264 1.399 . S
C265 C266 1.396 1_655 S
C265 C268 1.453 1_655 S
C265 C269 1.684 . S
C266 C247 1.723 . S
C266 C265 1.396 1_455 S
C266 C267 1.395 . S
C267 C263 1.396 1_455 S
C267 C266 1.395 . S
C267 C277 1.723 . S
C268 C265 1.453 1_455 S
C268 H292 0.982 . S
C268 H293 0.979 . S
C268 H294 0.977 . S
C269 C265 1.684 . S
C269 H295 0.979 . S
C269 H296 0.980 . S
C269 H297 0.983 . S
C270 H246 0.948 . S
C270 C271 1.391 . S
C270 C275 1.391 . S
C271 C270 1.391 . S
C271 C272 1.391 . S
C272 H249 0.947 . S
C272 C271 1.391 . S
C272 C273 1.392 . S
C273 H250 0.948 . S
C273 C272 1.392 . S
C273 C274 1.419 . S
C274 C273 1.419 . S
C274 C275 1.391 . S
C274 C278 1.396 1_655 S
C275 C270 1.391 . S
C275 C274 1.391 . S
C275 C276 1.399 . S
C276 C275 1.399 . S
C276 C277 1.396 1_655 S
C276 C279 1.453 1_655 S
C276 C280 1.684 . S
C277 C267 1.723 . S
C277 C276 1.396 1_455 S
C277 C278 1.395 . S
C278 C248 1.723 . S
C278 C274 1.396 1_455 S
C278 C277 1.395 . S
C279 H251 0.982 . S
C279 H255 0.979 . S
C279 H256 0.977 . S
C279 C276 1.453 1_455 S
C280 H252 0.979 . S
C280 H253 0.980 . S
C280 H254 0.983 . S
C280 C276 1.684 . S
H281 C299 0.948 . S
H282 C240 0.948 . S
H283 C258 0.979 . S
H284 C258 0.980 . S
H285 C258 0.983 . S
H286 C257 0.982 . S
H287 C257 0.979 . S
H288 C257 0.977 . S
H289 C259 0.948 . S
H290 C261 0.947 . S
H291 C262 0.948 . S
H292 C268 0.982 . S
H293 C268 0.979 . S
H294 C268 0.977 . S
H295 C269 0.979 . S
H296 C269 0.980 . S
H297 C269 0.983 . S
H298 C242 0.947 . S
C299 C242 1.392 . S
C299 C243 1.419 . S
C299 H281 0.948 . S
C300 C301 1.391 . S
C300 C304 1.391 . S
C300 H342 0.948 . S
C301 C300 1.391 . S
C301 C302 1.391 . S
C302 C301 1.391 . S
C302 H358 0.947 . S
C302 C359 1.392 . S
C303 C304 1.391 . S
C303 C307 1.397 . S
C303 C359 1.419 . S
C304 C300 1.391 . S
C304 C303 1.391 . S
C304 C305 1.399 . S
C305 C304 1.399 . S
C305 C308 1.396 . S
C305 C317 1.453 . S
C305 C318 1.684 1_545 S
H306 C330 0.948 . S
C307 C303 1.397 . S
C307 C308 1.394 . S
C307 C326 1.723 . S
C308 C305 1.396 . S
C308 C307 1.394 . S
C308 C338 1.723 . S
H309 C332 0.947 . S
H310 C333 0.952 . S
H311 C339 0.982 . S
H312 C340 0.979 . S
H313 C340 0.980 . S
H314 C340 0.983 . S
H315 C339 0.979 . S
H316 C339 0.977 . S
C317 C305 1.453 . S
C317 H346 0.982 . S
C317 H347 0.979 . S
C317 H348 0.977 . S
C318 C305 1.684 1_565 S
C318 H343 0.979 . S
C318 H344 0.980 . S
C318 H345 0.983 . S
C319 C320 1.391 . S
C319 C324 1.391 . S
C319 H349 0.948 . S
C320 C319 1.391 . S
C320 C321 1.391 . S
C321 C320 1.391 . S
C321 C322 1.392 . S
C321 H350 0.947 . S
C322 C321 1.392 . S
C322 C323 1.419 . S
C322 H351 0.948 . S
C323 C322 1.419 . S
C323 C324 1.391 . S
C323 C327 1.397 . S
C324 C319 1.391 . S
C324 C323 1.391 . S
C324 C325 1.399 . S
C325 C324 1.399 . S
C325 C326 1.396 . S
C325 C328 1.453 . S
C325 C329 1.684 1_545 S
C326 C307 1.723 . S
C326 C325 1.396 . S
C326 C327 1.394 . S
C327 C323 1.397 . S
C327 C326 1.394 . S
C327 C337 1.723 . S
C328 C325 1.453 . S
C328 H352 0.982 . S
C328 H353 0.979 . S
C328 H354 0.977 . S
C329 C325 1.684 1_565 S
C329 H355 0.979 . S
C329 H356 0.980 . S
C329 H357 0.983 . S
C330 H306 0.948 . S
C330 C331 1.391 . S
C330 C335 1.391 . S
C331 C330 1.391 . S
C331 C332 1.391 . S
C332 H309 0.947 . S
C332 C331 1.391 . S
C332 C333 1.392 . S
C333 H310 0.952 . S
C333 C332 1.392 . S
C333 C334 1.419 . S
C334 C333 1.419 . S
C334 C335 1.391 . S
C334 C338 1.397 . S
C335 C330 1.391 . S
C335 C334 1.391 . S
C335 C336 1.399 . S
C336 C335 1.399 . S
C336 C337 1.396 . S
C336 C339 1.453 . S
C336 C340 1.684 1_545 S
C337 C327 1.723 . S
C337 C336 1.396 . S
C337 C338 1.394 . S
C338 C308 1.723 . S
C338 C334 1.397 . S
C338 C337 1.394 . S
C339 H311 0.982 . S
C339 H315 0.979 . S
C339 H316 0.977 . S
C339 C336 1.453 . S
C340 H312 0.979 . S
C340 H313 0.980 . S
C340 H314 0.983 . S
C340 C336 1.684 1_565 S
H341 C359 0.953 . S
H342 C300 0.948 . S
H343 C318 0.979 . S
H344 C318 0.980 . S
H345 C318 0.983 . S
H346 C317 0.982 . S
H347 C317 0.979 . S
H348 C317 0.977 . S
H349 C319 0.948 . S
H350 C321 0.947 . S
H351 C322 0.948 . S
H352 C328 0.982 . S
H353 C328 0.979 . S
H354 C328 0.977 . S
H355 C329 0.979 . S
H356 C329 0.980 . S
H357 C329 0.983 . S
H358 C302 0.947 . S
C359 C302 1.392 . S
C359 C303 1.419 . S
C359 H341 0.953 . S
C360 C361 1.391 . S
C360 C364 1.391 . S
C360 H402 0.948 . S
C361 C360 1.391 . S
C361 C362 1.391 . S
C362 C361 1.391 . S
C362 H418 0.947 . S
C362 C419 1.392 . S
C363 C364 1.391 . S
C363 C367 1.397 . S
C363 C419 1.419 . S
C364 C360 1.391 . S
C364 C363 1.391 . S
C364 C365 1.399 . S
C365 C364 1.399 . S
C365 C368 1.396 . S
C365 C377 1.453 . S
C365 C378 1.684 1_455 S
H366 C390 0.948 . S
C367 C363 1.397 . S
C367 C368 1.394 . S
C367 C386 1.723 . S
C368 C365 1.396 . S
C368 C367 1.394 . S
C368 C398 1.723 . S
H369 C392 0.947 . S
H370 C393 0.948 . S
H371 C399 0.982 . S
H372 C400 0.979 . S
H373 C400 0.979 1_455 S
H374 C400 0.983 1_455 S
H375 C399 0.979 . S
H376 C399 0.977 . S
C377 C365 1.453 . S
C377 H406 0.982 . S
C377 H407 0.979 . S
C377 H408 0.977 . S
C378 C365 1.684 1_655 S
C378 H403 0.979 . S
C378 H404 0.979 1_655 S
C378 H405 0.976 1_655 S
C379 C380 1.391 . S
C379 C384 1.391 . S
C379 H409 0.948 . S
C380 C379 1.391 . S
C380 C381 1.391 . S
C381 C380 1.391 . S
C381 C382 1.392 . S
C381 H410 0.947 . S
C382 C381 1.392 . S
C382 C383 1.419 . S
C382 H411 0.948 . S
C383 C382 1.419 . S
C383 C384 1.391 . S
C383 C387 1.397 . S
C384 C379 1.391 . S
C384 C383 1.391 . S
C384 C385 1.399 . S
C385 C384 1.399 . S
C385 C386 1.396 . S
C385 C388 1.453 . S
C385 C389 1.684 1_455 S
C386 C367 1.723 . S
C386 C385 1.396 . S
C386 C387 1.394 . S
C387 C383 1.397 . S
C387 C386 1.394 . S
C387 C397 1.723 . S
C388 C385 1.453 . S
C388 H412 0.982 . S
C388 H413 0.979 . S
C388 H414 0.977 . S
C389 C385 1.684 1_655 S
C389 H415 0.979 . S
C389 H416 0.979 1_655 S
C389 H417 0.983 1_655 S
C390 H366 0.948 . S
C390 C391 1.391 . S
C390 C395 1.391 . S
C391 C390 1.391 . S
C391 C392 1.391 . S
C392 H369 0.947 . S
C392 C391 1.391 . S
C392 C393 1.392 . S
C393 H370 0.948 . S
C393 C392 1.392 . S
C393 C394 1.419 . S
C394 C393 1.419 . S
C394 C395 1.391 . S
C394 C398 1.397 . S
C395 C390 1.391 . S
C395 C394 1.391 . S
C395 C396 1.399 . S
C396 C395 1.399 . S
C396 C397 1.396 . S
C396 C399 1.453 . S
C396 C400 1.684 1_455 S
C397 C387 1.723 . S
C397 C396 1.396 . S
C397 C398 1.394 . S
C398 C368 1.723 . S
C398 C394 1.397 . S
C398 C397 1.394 . S
C399 H371 0.982 . S
C399 H375 0.979 . S
C399 H376 0.977 . S
C399 C396 1.453 . S
C400 H372 0.979 . S
C400 H373 0.979 1_655 S
C400 H374 0.983 1_655 S
C400 C396 1.684 1_655 S
H401 C419 0.948 . S
H402 C360 0.948 . S
H403 C378 0.979 . S
H404 C378 0.979 1_455 S
H405 C378 0.976 1_455 S
H406 C377 0.982 . S
H407 C377 0.979 . S
H408 C377 0.977 . S
H409 C379 0.948 . S
H410 C381 0.947 . S
H411 C382 0.948 . S
H412 C388 0.982 . S
H413 C388 0.979 . S
H414 C388 0.977 . S
H415 C389 0.979 . S
H416 C389 0.979 1_455 S
H417 C389 0.983 1_455 S
H418 C362 0.947 . S
C419 C362 1.392 . S
C419 C363 1.419 . S
C419 H401 0.948 . S
C420 C421 1.391 . S
C420 C424 1.391 . S
C420 H462 0.948 . S
C421 C420 1.391 . S
C421 C422 1.391 . S
C422 C421 1.391 . S
C422 H478 0.947 . S
C422 C479 1.392 . S
C423 C424 1.391 . S
C423 C427 1.397 . S
C423 C479 1.419 . S
C424 C420 1.391 . S
C424 C423 1.391 . S
C424 C425 1.399 . S
C425 C424 1.399 . S
C425 C428 1.396 . S
C425 C437 1.453 . S
C425 C438 1.684 . S
H426 C450 0.948 . S
C427 C423 1.397 . S
C427 C428 1.394 . S
C427 C446 1.723 . S
C428 C425 1.396 . S
C428 C427 1.394 . S
C428 C458 1.723 . S
H429 C452 0.947 . S
H430 C453 0.948 . S
H431 C459 0.982 . S
H432 C460 0.979 1_565 S
H433 C460 0.980 . S
H434 C460 0.983 . S
H435 C459 0.979 . S
H436 C459 0.977 . S
C437 C425 1.453 . S
C437 H466 0.982 . S
C437 H467 0.979 . S
C437 H468 0.977 . S
C438 C425 1.684 . S
C438 H463 0.979 1_545 S
C438 H464 0.980 . S
C438 H465 0.983 . S
C439 C440 1.391 . S
C439 C444 1.391 . S
C439 H469 0.948 . S
C440 C439 1.391 . S
C440 C441 1.391 . S
C441 C440 1.391 . S
C441 C442 1.392 . S
C441 H470 0.947 . S
C442 C441 1.392 . S
C442 C443 1.419 . S
C442 H471 0.948 . S
C443 C442 1.419 . S
C443 C444 1.391 . S
C443 C447 1.397 . S
C444 C439 1.391 . S
C444 C443 1.391 . S
C444 C445 1.399 . S
C445 C444 1.399 . S
C445 C446 1.396 . S
C445 C448 1.453 . S
C445 C449 1.684 . S
C446 C427 1.723 . S
C446 C445 1.396 . S
C446 C447 1.394 . S
C447 C443 1.397 . S
C447 C446 1.394 . S
C447 C457 1.723 . S
C448 C445 1.453 . S
C448 H472 0.982 . S
C448 H473 0.979 . S
C448 H474 0.977 . S
C449 C445 1.684 . S
C449 H475 0.979 1_545 S
C449 H476 0.980 . S
C449 H477 0.983 . S
C450 H426 0.948 . S
C450 C451 1.391 . S
C450 C455 1.391 . S
C451 C450 1.391 . S
C451 C452 1.391 . S
C452 H429 0.947 . S
C452 C451 1.391 . S
C452 C453 1.392 . S
C453 H430 0.948 . S
C453 C452 1.392 . S
C453 C454 1.419 . S
C454 C453 1.419 . S
C454 C455 1.391 . S
C454 C458 1.397 . S
C455 C450 1.391 . S
C455 C454 1.391 . S
C455 C456 1.399 . S
C456 C455 1.399 . S
C456 C457 1.396 . S
C456 C459 1.453 . S
C456 C460 1.684 . S
C457 C447 1.723 . S
C457 C456 1.396 . S
C457 C458 1.394 . S
C458 C428 1.723 . S
C458 C454 1.397 . S
C458 C457 1.394 . S
C459 H431 0.982 . S
C459 H435 0.979 . S
C459 H436 0.977 . S
C459 C456 1.453 . S
C460 H432 0.979 1_545 S
C460 H433 0.980 . S
C460 H434 0.983 . S
C460 C456 1.684 . S
H461 C479 0.948 . S
H462 C420 0.948 . S
H463 C438 0.979 1_565 S
H464 C438 0.980 . S
H465 C438 0.983 . S
H466 C437 0.982 . S
H467 C437 0.979 . S
H468 C437 0.977 . S
H469 C439 0.948 . S
H470 C441 0.947 . S
H471 C442 0.948 . S
H472 C448 0.982 . S
H473 C448 0.979 . S
H474 C448 0.977 . S
H475 C449 0.979 1_565 S
H476 C449 0.980 . S
H477 C449 0.983 . S
H478 C422 0.947 . S
C479 C422 1.392 . S
C479 C423 1.419 . S
C479 H461 0.948 . S
C480 C481 1.391 . S
C480 C484 1.391 . S
C480 H522 0.948 . S
C481 C480 1.391 . S
C481 C482 1.391 . S
C482 C481 1.391 . S
C482 H538 0.947 . S
C482 C539 1.392 . S
C483 C484 1.391 . S
C483 C487 1.397 . S
C483 C539 1.419 . S
C484 C480 1.391 . S
C484 C483 1.391 . S
C484 C485 1.399 . S
C485 C484 1.399 . S
C485 C488 1.396 . S
C485 C497 1.453 . S
C485 C498 1.684 1_554 S
H486 C510 0.948 . S
C487 C483 1.397 . S
C487 C488 1.394 . S
C487 C506 1.723 . S
C488 C485 1.396 . S
C488 C487 1.394 . S
C488 C518 1.723 . S
H489 C512 0.947 . S
H490 C513 0.948 . S
H491 C519 0.982 . S
H492 C520 0.979 . S
H493 C520 0.980 . S
H494 C520 0.983 . S
H495 C519 0.979 . S
H496 C519 0.977 . S
C497 C485 1.453 . S
C497 H526 0.982 . S
C497 H527 0.979 . S
C497 H528 0.977 . S
C498 C485 1.684 1_556 S
C498 H523 0.979 . S
C498 H524 0.980 . S
C498 H525 0.983 . S
C499 C500 1.391 . S
C499 C504 1.391 . S
C499 H529 0.948 . S
C500 C499 1.391 . S
C500 C501 1.391 . S
C501 C500 1.391 . S
C501 C502 1.392 . S
C501 H530 0.947 . S
C502 C501 1.392 . S
C502 C503 1.419 . S
C502 H531 0.948 . S
C503 C502 1.419 . S
C503 C504 1.391 . S
C503 C507 1.397 . S
C504 C499 1.391 . S
C504 C503 1.391 . S
C504 C505 1.399 . S
C505 C504 1.399 . S
C505 C506 1.396 . S
C505 C508 1.453 . S
C505 C509 1.684 1_554 S
C506 C487 1.723 . S
C506 C505 1.396 . S
C506 C507 1.394 . S
C507 C503 1.397 . S
C507 C506 1.394 . S
C507 C517 1.723 . S
C508 C505 1.453 . S
C508 H532 0.982 . S
C508 H533 0.979 . S
C508 H534 0.977 . S
C509 C505 1.684 1_556 S
C509 H535 0.979 . S
C509 H536 0.980 . S
C509 H537 0.983 . S
C510 H486 0.948 . S
C510 C511 1.391 . S
C510 C515 1.391 . S
C511 C510 1.391 . S
C511 C512 1.391 . S
C512 H489 0.947 . S
C512 C511 1.391 . S
C512 C513 1.392 . S
C513 H490 0.948 . S
C513 C512 1.392 . S
C513 C514 1.419 . S
C514 C513 1.419 . S
C514 C515 1.391 . S
C514 C518 1.397 . S
C515 C510 1.391 . S
C515 C514 1.391 . S
C515 C516 1.399 . S
C516 C515 1.399 . S
C516 C517 1.396 . S
C516 C519 1.453 . S
C516 C520 1.684 1_554 S
C517 C507 1.723 . S
C517 C516 1.396 . S
C517 C518 1.394 . S
C518 C488 1.723 . S
C518 C514 1.397 . S
C518 C517 1.394 . S
C519 H491 0.982 . S
C519 H495 0.979 . S
C519 H496 0.977 . S
C519 C516 1.453 . S
C520 H492 0.979 . S
C520 H493 0.980 . S
C520 H494 0.983 . S
C520 C516 1.684 1_556 S
H521 C539 0.948 . S
H522 C480 0.948 . S
H523 C498 0.979 . S
H524 C498 0.980 . S
H525 C498 0.983 . S
H526 C497 0.982 . S
H527 C497 0.979 . S
H528 C497 0.977 . S
H529 C499 0.948 . S
H530 C501 0.947 . S
H531 C502 0.948 . S
H532 C508 0.982 . S
H533 C508 0.979 . S
H534 C508 0.977 . S
H535 C509 0.979 . S
H536 C509 0.980 . S
H537 C509 0.983 . S
H538 C482 0.947 . S
C539 C482 1.392 . S
C539 C483 1.419 . S
C539 H521 0.948 . S
C540 C541 1.391 . S
C540 C544 1.391 . S
C540 H582 0.948 . S
C541 C540 1.391 . S
C541 C542 1.391 . S
C542 C541 1.391 . S
C542 H598 0.947 . S
C542 C599 1.392 . S
C543 C544 1.391 . S
C543 C547 1.397 . S
C543 C599 1.419 . S
C544 C540 1.391 . S
C544 C543 1.391 . S
C544 C545 1.399 . S
C545 C544 1.399 . S
C545 C548 1.396 . S
C545 C557 1.453 1_554 S
C545 C558 1.684 . S
H546 C570 0.948 . S
C547 C543 1.397 . S
C547 C548 1.394 . S
C547 C566 1.723 . S
C548 C545 1.396 . S
C548 C547 1.394 . S
C548 C578 1.723 . S
H549 C572 0.947 . S
H550 C573 0.948 . S
H551 C579 0.982 . S
H552 C580 0.979 . S
H553 C580 0.980 . S
H554 C580 0.983 . S
H555 C579 0.979 . S
H556 C579 0.977 . S
C557 C545 1.453 1_556 S
C557 H586 0.982 . S
C557 H587 0.979 . S
C557 H588 0.977 . S
C558 C545 1.684 . S
C558 H583 0.979 . S
C558 H584 0.980 . S
C558 H585 0.983 . S
C559 C560 1.391 . S
C559 C564 1.391 . S
C559 H589 0.948 . S
C560 C559 1.391 . S
C560 C561 1.391 . S
C561 C560 1.391 . S
C561 C562 1.392 . S
C561 H590 0.947 . S
C562 C561 1.392 . S
C562 C563 1.419 . S
C562 H591 0.948 . S
C563 C562 1.419 . S
C563 C564 1.391 . S
C563 C567 1.397 . S
C564 C559 1.391 . S
C564 C563 1.391 . S
C564 C565 1.399 . S
C565 C564 1.399 . S
C565 C566 1.396 . S
C565 C568 1.453 1_554 S
C565 C569 1.684 . S
C566 C547 1.723 . S
C566 C565 1.396 . S
C566 C567 1.394 . S
C567 C563 1.397 . S
C567 C566 1.394 . S
C567 C577 1.723 . S
C568 C565 1.453 1_556 S
C568 H592 0.982 . S
C568 H593 0.979 . S
C568 H594 0.977 . S
C569 C565 1.684 . S
C569 H595 0.979 . S
C569 H596 0.980 . S
C569 H597 0.983 . S
C570 H546 0.948 . S
C570 C571 1.391 . S
C570 C575 1.391 . S
C571 C570 1.391 . S
C571 C572 1.391 . S
C572 H549 0.947 . S
C572 C571 1.391 . S
C572 C573 1.392 . S
C573 H550 0.948 . S
C573 C572 1.392 . S
C573 C574 1.419 . S
C574 C573 1.419 . S
C574 C575 1.391 . S
C574 C578 1.397 . S
C575 C570 1.391 . S
C575 C574 1.391 . S
C575 C576 1.399 . S
C576 C575 1.399 . S
C576 C577 1.396 . S
C576 C579 1.453 1_554 S
C576 C580 1.684 . S
C577 C567 1.723 . S
C577 C576 1.396 . S
C577 C578 1.394 . S
C578 C548 1.723 . S
C578 C574 1.397 . S
C578 C577 1.394 . S
C579 H551 0.982 . S
C579 H555 0.979 . S
C579 H556 0.977 . S
C579 C576 1.453 1_556 S
C580 H552 0.979 . S
C580 H553 0.980 . S
C580 H554 0.983 . S
C580 C576 1.684 . S
H581 C599 0.948 . S
H582 C540 0.948 . S
H583 C558 0.979 . S
H584 C558 0.980 . S
H585 C558 0.983 . S
H586 C557 0.982 . S
H587 C557 0.979 . S
H588 C557 0.977 . S
H589 C559 0.948 . S
H590 C561 0.947 . S
H591 C562 0.948 . S
H592 C568 0.982 . S
H593 C568 0.979 . S
H594 C568 0.977 . S
H595 C569 0.979 . S
H596 C569 0.980 . S
H597 C569 0.983 . S
H598 C542 0.947 . S
C599 C542 1.392 . S
C599 C543 1.419 . S
C599 H581 0.948 . S
C600 C601 1.392 . S
C600 C604 1.391 . S
C600 H642 0.948 . S
C601 C600 1.392 . S
C601 C602 1.391 . S
C602 C601 1.391 . S
C602 H658 0.947 . S
C602 C659 1.392 . S
C603 C604 1.391 1_554 S
C603 C607 1.397 . S
C603 C659 1.419 1_554 S
C604 C600 1.391 . S
C604 C603 1.391 1_556 S
C604 C605 1.399 . S
C605 C604 1.399 . S
C605 C608 1.396 1_556 S
C605 C617 1.453 1_556 S
C605 C618 1.684 . S
H606 C630 0.948 . S
C607 C603 1.397 . S
C607 C608 1.394 . S
C607 C626 1.723 . S
C608 C605 1.396 1_554 S
C608 C607 1.394 . S
C608 C638 1.723 . S
H609 C632 0.947 . S
H610 C633 0.948 . S
H611 C639 0.982 . S
H612 C640 0.979 . S
H613 C640 0.980 . S
H614 C640 0.983 . S
H615 C639 0.979 . S
H616 C639 0.977 . S
C617 C605 1.453 1_554 S
C617 H646 0.982 . S
C617 H647 0.979 . S
C617 H648 0.977 . S
C618 C605 1.684 . S
C618 H643 0.979 . S
C618 H644 0.980 . S
C618 H645 0.983 . S
C619 C620 1.391 1_556 S
C619 C624 1.392 . S
C619 H649 0.948 . S
C620 C619 1.391 1_554 S
C620 C621 1.391 1_554 S
C621 C620 1.391 1_556 S
C621 C622 1.392 . S
C621 H650 0.947 1_556 S
C622 C621 1.392 . S
C622 C623 1.419 1_556 S
C622 H651 0.948 . S
C623 C622 1.419 1_554 S
C623 C624 1.391 1_554 S
C623 C627 1.397 . S
C624 C619 1.392 . S
C624 C623 1.391 1_556 S
C624 C625 1.401 . S
C625 C624 1.401 . S
C625 C626 1.391 1_556 S
C625 C628 1.428 1_556 S
C625 C629 1.704 . S
C626 C607 1.723 . S
C626 C625 1.391 1_554 S
C626 C627 1.394 . S
C627 C623 1.397 . S
C627 C626 1.394 . S
C627 C637 1.723 . S
C628 C625 1.428 1_554 S
C628 H652 0.982 . S
C628 H653 0.979 . S
C628 H654 0.977 . S
C629 C625 1.704 . S
C629 H655 0.979 . S
C629 H656 0.980 . S
C629 H657 0.983 . S
C630 H606 0.948 . S
C630 C631 1.392 . S
C630 C635 1.391 . S
C631 C630 1.392 . S
C631 C632 1.391 . S
C632 H609 0.947 . S
C632 C631 1.391 . S
C632 C633 1.393 . S
C633 H610 0.948 . S
C633 C632 1.393 . S
C633 C634 1.416 1_556 S
C634 C633 1.416 1_554 S
C634 C635 1.388 1_554 S
C634 C638 1.400 . S
C635 C630 1.391 . S
C635 C634 1.388 1_556 S
C635 C636 1.399 . S
C636 C635 1.399 . S
C636 C637 1.396 1_556 S
C636 C639 1.453 1_556 S
C636 C640 1.684 . S
C637 C627 1.723 . S
C637 C636 1.396 1_554 S
C637 C638 1.394 . S
C638 C608 1.723 . S
C638 C634 1.400 . S
C638 C637 1.394 . S
C639 H611 0.982 . S
C639 H615 0.979 . S
C639 H616 0.977 . S
C639 C636 1.453 1_554 S
C640 H612 0.979 . S
C640 H613 0.980 . S
C640 H614 0.983 . S
C640 C636 1.684 . S
H641 C659 0.948 . S
H642 C600 0.948 . S
H643 C618 0.979 . S
H644 C618 0.980 . S
H645 C618 0.983 . S
H646 C617 0.982 . S
H647 C617 0.979 . S
H648 C617 0.977 . S
H649 C619 0.948 . S
H650 C621 0.947 1_554 S
H651 C622 0.948 . S
H652 C628 0.982 . S
H653 C628 0.979 . S
H654 C628 0.977 . S
H655 C629 0.979 . S
H656 C629 0.980 . S
H657 C629 0.983 . S
H658 C602 0.947 . S
C659 C602 1.392 . S
C659 C603 1.419 1_556 S
C659 H641 0.948 . S
C660 C661 1.391 . S
C660 C664 1.391 . S
C660 H702 0.948 . S
C661 C660 1.391 . S
C661 C662 1.391 . S
C662 C661 1.391 . S
C662 H718 0.947 . S
C662 C719 1.392 . S
C663 C664 1.391 . S
C663 C667 1.397 . S
C663 C719 1.419 . S
C664 C660 1.391 . S
C664 C663 1.391 . S
C664 C665 1.399 . S
C665 C664 1.399 . S
C665 C668 1.396 . S
C665 C677 1.453 1_554 S
C665 C678 1.684 . S
H666 C690 0.948 . S
C667 C663 1.397 . S
C667 C668 1.394 . S
C667 C686 1.723 . S
C668 C665 1.396 . S
C668 C667 1.394 . S
C668 C698 1.723 . S
H669 C692 0.947 . S
H670 C693 0.948 . S
H671 C699 0.982 . S
H672 C700 0.979 . S
H673 C700 0.980 . S
H674 C700 0.983 . S
H675 C699 0.979 . S
H676 C699 0.977 . S
C677 C665 1.453 1_556 S
C677 H706 0.982 . S
C677 H707 0.979 . S
C677 H708 0.977 . S
C678 C665 1.684 . S
C678 H703 0.979 . S
C678 H704 0.980 . S
C678 H705 0.983 . S
C679 C680 1.391 . S
C679 C684 1.391 . S
C679 H709 0.948 . S
C680 C679 1.391 . S
C680 C681 1.391 . S
C681 C680 1.391 . S
C681 C682 1.392 . S
C681 H710 0.947 . S
C682 C681 1.392 . S
C682 C683 1.419 . S
C682 H711 0.948 . S
C683 C682 1.419 . S
C683 C684 1.391 . S
C683 C687 1.397 . S
C684 C679 1.391 . S
C684 C683 1.391 . S
C684 C685 1.399 . S
C685 C684 1.399 . S
C685 C686 1.396 . S
C685 C688 1.453 1_554 S
C685 C689 1.684 . S
C686 C667 1.723 . S
C686 C685 1.396 . S
C686 C687 1.394 . S
C687 C683 1.397 . S
C687 C686 1.394 . S
C687 C697 1.723 . S
C688 C685 1.453 1_556 S
C688 H712 0.982 . S
C688 H713 0.979 . S
C688 H714 0.977 . S
C689 C685 1.684 . S
C689 H715 0.979 . S
C689 H716 0.980 . S
C689 H717 0.983 . S
C690 H666 0.948 . S
C690 C691 1.391 . S
C690 C695 1.391 . S
C691 C690 1.391 . S
C691 C692 1.391 . S
C692 H669 0.947 . S
C692 C691 1.391 . S
C692 C693 1.392 . S
C693 H670 0.948 . S
C693 C692 1.392 . S
C693 C694 1.419 . S
C694 C693 1.419 . S
C694 C695 1.391 . S
C694 C698 1.397 . S
C695 C690 1.391 . S
C695 C694 1.391 . S
C695 C696 1.399 . S
C696 C695 1.399 . S
C696 C697 1.396 . S
C696 C699 1.453 1_554 S
C696 C700 1.684 . S
C697 C687 1.723 . S
C697 C696 1.396 . S
C697 C698 1.394 . S
C698 C668 1.723 . S
C698 C694 1.397 . S
C698 C697 1.394 . S
C699 H671 0.982 . S
C699 H675 0.979 . S
C699 H676 0.977 . S
C699 C696 1.453 1_556 S
C700 H672 0.979 . S
C700 H673 0.980 . S
C700 H674 0.983 . S
C700 C696 1.684 . S
H701 C719 0.948 . S
H702 C660 0.948 . S
H703 C678 0.979 . S
H704 C678 0.980 . S
H705 C678 0.983 . S
H706 C677 0.982 . S
H707 C677 0.979 . S
H708 C677 0.977 . S
H709 C679 0.948 . S
H710 C681 0.947 . S
H711 C682 0.948 . S
H712 C688 0.982 . S
H713 C688 0.979 . S
H714 C688 0.977 . S
H715 C689 0.979 . S
H716 C689 0.980 . S
H717 C689 0.983 . S
H718 C662 0.947 . S
C719 C662 1.392 . S
C719 C663 1.419 . S
C719 H701 0.948 . S
C720 C721 1.391 . S
C720 C724 1.391 . S
C720 H762 0.948 . S
C721 C720 1.391 . S
C721 C722 1.391 . S
C722 C721 1.391 . S
C722 H778 0.947 . S
C722 C779 1.392 . S
C723 C724 1.391 . S
C723 C727 1.397 . S
C723 C779 1.419 . S
C724 C720 1.391 . S
C724 C723 1.391 . S
C724 C725 1.399 . S
C725 C724 1.399 . S
C725 C728 1.396 . S
C725 C737 1.453 . S
C725 C738 1.684 . S
H726 C750 0.948 . S
C727 C723 1.397 . S
C727 C728 1.394 . S
C727 C746 1.723 . S
C728 C725 1.396 . S
C728 C727 1.394 . S
C728 C758 1.723 . S
H729 C752 0.947 . S
H730 C753 0.948 . S
H731 C759 0.982 . S
H732 C760 0.979 . S
H733 C760 0.980 . S
H734 C760 0.983 . S
H735 C759 0.979 . S
H736 C759 0.977 . S
C737 C725 1.453 . S
C737 H766 0.982 . S
C737 H767 0.979 . S
C737 H768 0.977 . S
C738 C725 1.684 . S
C738 H763 0.979 . S
C738 H764 0.980 . S
C738 H765 0.983 . S
C739 C740 1.391 . S
C739 C744 1.391 . S
C739 H769 0.948 . S
C740 C739 1.391 . S
C740 C741 1.391 . S
C741 C740 1.391 . S
C741 C742 1.392 . S
C741 H770 0.947 . S
C742 C741 1.392 . S
C742 C743 1.419 . S
C742 H771 0.948 . S
C743 C742 1.419 . S
C743 C744 1.391 . S
C743 C747 1.397 . S
C744 C739 1.391 . S
C744 C743 1.391 . S
C744 C745 1.399 . S
C745 C744 1.399 . S
C745 C746 1.396 . S
C745 C748 1.453 . S
C745 C749 1.684 . S
C746 C727 1.723 . S
C746 C745 1.396 . S
C746 C747 1.394 . S
C747 C743 1.397 . S
C747 C746 1.394 . S
C747 C757 1.723 . S
C748 C745 1.453 . S
C748 H772 0.982 . S
C748 H773 0.979 . S
C748 H774 0.977 . S
C749 C745 1.684 . S
C749 H775 0.979 . S
C749 H776 0.980 . S
C749 H777 0.983 . S
C750 H726 0.948 . S
C750 C751 1.391 . S
C750 C755 1.391 . S
C751 C750 1.391 . S
C751 C752 1.391 . S
C752 H729 0.947 . S
C752 C751 1.391 . S
C752 C753 1.392 . S
C753 H730 0.948 . S
C753 C752 1.392 . S
C753 C754 1.419 . S
C754 C753 1.419 . S
C754 C755 1.391 . S
C754 C758 1.397 . S
C755 C750 1.391 . S
C755 C754 1.391 . S
C755 C756 1.399 . S
C756 C755 1.399 . S
C756 C757 1.396 . S
C756 C759 1.453 . S
C756 C760 1.684 . S
C757 C747 1.723 . S
C757 C756 1.396 . S
C757 C758 1.394 . S
C758 C728 1.723 . S
C758 C754 1.397 . S
C758 C757 1.394 . S
C759 H731 0.982 . S
C759 H735 0.979 . S
C759 H736 0.977 . S
C759 C756 1.453 . S
C760 H732 0.979 . S
C760 H733 0.980 . S
C760 H734 0.983 . S
C760 C756 1.684 . S
H761 C779 0.948 . S
H762 C720 0.948 . S
H763 C738 0.979 . S
H764 C738 0.980 . S
H765 C738 0.983 . S
H766 C737 0.982 . S
H767 C737 0.979 . S
H768 C737 0.977 . S
H769 C739 0.948 . S
H770 C741 0.947 . S
H771 C742 0.948 . S
H772 C748 0.982 . S
H773 C748 0.979 . S
H774 C748 0.977 . S
H775 C749 0.979 . S
H776 C749 0.980 . S
H777 C749 0.983 . S
H778 C722 0.947 . S
C779 C722 1.392 . S
C779 C723 1.419 . S
C779 H761 0.948 . S
C780 C781 1.391 . S
C780 C784 1.391 . S
C780 H822 0.948 . S
C781 C780 1.391 . S
C781 C782 1.391 . S
C782 C781 1.391 . S
C782 H838 0.947 . S
C782 C839 1.392 . S
C783 C784 1.391 . S
C783 C787 1.397 . S
C783 C839 1.419 . S
C784 C780 1.391 . S
C784 C783 1.391 . S
C784 C785 1.399 . S
C785 C784 1.399 . S
C785 C788 1.396 . S
C785 C797 1.453 . S
C785 C798 1.684 . S
H786 C810 0.948 . S
C787 C783 1.397 . S
C787 C788 1.394 . S
C787 C806 1.723 . S
C788 C785 1.396 . S
C788 C787 1.394 . S
C788 C818 1.723 . S
H789 C812 0.947 . S
H790 C813 0.948 . S
H791 C819 0.982 . S
H792 C820 0.979 . S
H793 C820 0.980 . S
H794 C820 0.983 . S
H795 C819 0.979 . S
H796 C819 0.977 . S
C797 C785 1.453 . S
C797 H826 0.982 . S
C797 H827 0.979 . S
C797 H828 0.977 . S
C798 C785 1.684 . S
C798 H823 0.979 . S
C798 H824 0.980 . S
C798 H825 0.983 . S
C799 C800 1.391 . S
C799 C804 1.391 . S
C799 H829 0.948 . S
C800 C799 1.391 . S
C800 C801 1.391 . S
C801 C800 1.391 . S
C801 C802 1.392 . S
C801 H830 0.947 . S
C802 C801 1.392 . S
C802 C803 1.419 . S
C802 H831 0.948 . S
C803 C802 1.419 . S
C803 C804 1.391 . S
C803 C807 1.397 . S
C804 C799 1.391 . S
C804 C803 1.391 . S
C804 C805 1.399 . S
C805 C804 1.399 . S
C805 C806 1.396 . S
C805 C808 1.453 . S
C805 C809 1.684 . S
C806 C787 1.723 . S
C806 C805 1.396 . S
C806 C807 1.394 . S
C807 C803 1.397 . S
C807 C806 1.394 . S
C807 C817 1.723 . S
C808 C805 1.453 . S
C808 H832 0.982 . S
C808 H833 0.979 . S
C808 H834 0.977 . S
C809 C805 1.684 . S
C809 H835 0.979 . S
C809 H836 0.980 . S
C809 H837 0.983 . S
C810 H786 0.948 . S
C810 C811 1.391 . S
C810 C815 1.391 . S
C811 C810 1.391 . S
C811 C812 1.391 . S
C812 H789 0.947 . S
C812 C811 1.391 . S
C812 C813 1.392 . S
C813 H790 0.948 . S
C813 C812 1.392 . S
C813 C814 1.419 . S
C814 C813 1.419 . S
C814 C815 1.391 . S
C814 C818 1.397 . S
C815 C810 1.391 . S
C815 C814 1.391 . S
C815 C816 1.399 . S
C816 C815 1.399 . S
C816 C817 1.396 . S
C816 C819 1.453 . S
C816 C820 1.684 . S
C817 C807 1.723 . S
C817 C816 1.396 . S
C817 C818 1.394 . S
C818 C788 1.723 . S
C818 C814 1.397 . S
C818 C817 1.394 . S
C819 H791 0.982 . S
C819 H795 0.979 . S
C819 H796 0.977 . S
C819 C816 1.453 . S
C820 H792 0.979 . S
C820 H793 0.980 . S
C820 H794 0.983 . S
C820 C816 1.684 . S
H821 C839 0.948 . S
H822 C780 0.948 . S
H823 C798 0.979 . S
H824 C798 0.980 . S
H825 C798 0.983 . S
H826 C797 0.982 . S
H827 C797 0.979 . S
H828 C797 0.977 . S
H829 C799 0.948 . S
H830 C801 0.947 . S
H831 C802 0.948 . S
H832 C808 0.982 . S
H833 C808 0.979 . S
H834 C808 0.977 . S
H835 C809 0.979 . S
H836 C809 0.980 . S
H837 C809 0.983 . S
H838 C782 0.947 . S
C839 C782 1.392 . S
C839 C783 1.419 . S
C839 H821 0.948 . S
C840 C841 1.391 . S
C840 C844 1.391 . S
C840 H882 0.948 . S
C841 C840 1.391 . S
C841 C842 1.391 . S
C842 C841 1.391 . S
C842 H898 0.947 . S
C842 C899 1.392 . S
C843 C844 1.391 . S
C843 C847 1.397 . S
C843 C899 1.419 . S
C844 C840 1.391 . S
C844 C843 1.391 . S
C844 C845 1.399 . S
C845 C844 1.399 . S
C845 C848 1.396 . S
C845 C857 1.453 . S
C845 C858 1.684 . S
H846 C870 0.948 . S
C847 C843 1.397 . S
C847 C848 1.394 . S
C847 C866 1.723 . S
C848 C845 1.396 . S
C848 C847 1.394 . S
C848 C878 1.723 . S
H849 C872 0.947 . S
H850 C873 0.948 . S
H851 C879 0.982 . S
H852 C880 0.979 . S
H853 C880 0.980 . S
H854 C880 0.983 . S
H855 C879 0.979 . S
H856 C879 0.977 . S
C857 C845 1.453 . S
C857 H886 0.982 . S
C857 H887 0.979 . S
C857 H888 0.977 . S
C858 C845 1.684 . S
C858 H883 0.979 . S
C858 H884 0.980 . S
C858 H885 0.983 . S
C859 C860 1.391 . S
C859 C864 1.391 . S
C859 H889 0.948 . S
C860 C859 1.391 . S
C860 C861 1.391 . S
C861 C860 1.391 . S
C861 C862 1.392 . S
C861 H890 0.947 . S
C862 C861 1.392 . S
C862 C863 1.419 . S
C862 H891 0.948 . S
C863 C862 1.419 . S
C863 C864 1.391 . S
C863 C867 1.397 . S
C864 C859 1.391 . S
C864 C863 1.391 . S
C864 C865 1.399 . S
C865 C864 1.399 . S
C865 C866 1.396 . S
C865 C868 1.453 . S
C865 C869 1.684 . S
C866 C847 1.723 . S
C866 C865 1.396 . S
C866 C867 1.394 . S
C867 C863 1.397 . S
C867 C866 1.394 . S
C867 C877 1.723 . S
C868 C865 1.453 . S
C868 H892 0.982 . S
C868 H893 0.979 . S
C868 H894 0.977 . S
C869 C865 1.684 . S
C869 H895 0.979 . S
C869 H896 0.980 . S
C869 H897 0.983 . S
C870 H846 0.948 . S
C870 C871 1.391 . S
C870 C875 1.391 . S
C871 C870 1.391 . S
C871 C872 1.391 . S
C872 H849 0.947 . S
C872 C871 1.391 . S
C872 C873 1.392 . S
C873 H850 0.948 . S
C873 C872 1.392 . S
C873 C874 1.419 . S
C874 C873 1.419 . S
C874 C875 1.391 . S
C874 C878 1.397 . S
C875 C870 1.391 . S
C875 C874 1.391 . S
C875 C876 1.399 . S
C876 C875 1.399 . S
C876 C877 1.396 . S
C876 C879 1.453 . S
C876 C880 1.684 . S
C877 C867 1.723 . S
C877 C876 1.396 . S
C877 C878 1.394 . S
C878 C848 1.723 . S
C878 C874 1.397 . S
C878 C877 1.394 . S
C879 H851 0.982 . S
C879 H855 0.979 . S
C879 H856 0.977 . S
C879 C876 1.453 . S
C880 H852 0.979 . S
C880 H853 0.980 . S
C880 H854 0.983 . S
C880 C876 1.684 . S
H881 C899 0.948 . S
H882 C840 0.948 . S
H883 C858 0.979 . S
H884 C858 0.980 . S
H885 C858 0.983 . S
H886 C857 0.982 . S
H887 C857 0.979 . S
H888 C857 0.977 . S
H889 C859 0.948 . S
H890 C861 0.947 . S
H891 C862 0.948 . S
H892 C868 0.982 . S
H893 C868 0.979 . S
H894 C868 0.977 . S
H895 C869 0.979 . S
H896 C869 0.980 . S
H897 C869 0.983 . S
H898 C842 0.947 . S
C899 C842 1.392 . S
C899 C843 1.419 . S
C899 H881 0.948 . S
C900 C901 1.391 . S
C900 C904 1.391 . S
C900 H942 0.948 . S
C901 C900 1.391 . S
C901 C902 1.391 . S
C902 C901 1.391 . S
C902 H958 0.947 . S
C902 C959 1.392 . S
C903 C904 1.391 . S
C903 C907 1.397 . S
C903 C959 1.419 . S
C904 C900 1.391 . S
C904 C903 1.391 . S
C904 C905 1.399 . S
C905 C904 1.399 . S
C905 C908 1.396 . S
C905 C917 1.453 . S
C905 C918 1.684 . S
H906 C930 0.948 . S
C907 C903 1.397 . S
C907 C908 1.394 . S
C907 C926 1.723 . S
C908 C905 1.396 . S
C908 C907 1.394 . S
C908 C938 1.723 . S
H909 C932 0.947 . S
H910 C933 0.948 . S
H911 C939 0.982 . S
H912 C940 0.979 . S
H913 C940 0.980 . S
H914 C940 0.983 . S
H915 C939 0.979 . S
H916 C939 0.977 . S
C917 C905 1.453 . S
C917 H946 0.982 . S
C917 H947 0.979 . S
C917 H948 0.977 . S
C918 C905 1.684 . S
C918 H943 0.979 . S
C918 H944 0.980 . S
C918 H945 0.983 . S
C919 C920 1.391 . S
C919 C924 1.391 . S
C919 H949 0.948 . S
C920 C919 1.391 . S
C920 C921 1.391 . S
C921 C920 1.391 . S
C921 C922 1.392 . S
C921 H950 0.947 . S
C922 C921 1.392 . S
C922 C923 1.419 . S
C922 H951 0.948 . S
C923 C922 1.419 . S
C923 C924 1.391 . S
C923 C927 1.397 . S
C924 C919 1.391 . S
C924 C923 1.391 . S
C924 C925 1.399 . S
C925 C924 1.399 . S
C925 C926 1.396 . S
C925 C928 1.453 . S
C925 C929 1.684 . S
C926 C907 1.723 . S
C926 C925 1.396 . S
C926 C927 1.394 . S
C927 C923 1.397 . S
C927 C926 1.394 . S
C927 C937 1.723 . S
C928 C925 1.453 . S
C928 H952 0.982 . S
C928 H953 0.979 . S
C928 H954 0.977 . S
C929 C925 1.684 . S
C929 H955 0.979 . S
C929 H956 0.980 . S
C929 H957 0.983 . S
C930 H906 0.948 . S
C930 C931 1.391 . S
C930 C935 1.391 . S
C931 C930 1.391 . S
C931 C932 1.391 . S
C932 H909 0.947 . S
C932 C931 1.391 . S
C932 C933 1.392 . S
C933 H910 0.948 . S
C933 C932 1.392 . S
C933 C934 1.419 . S
C934 C933 1.419 . S
C934 C935 1.391 . S
C934 C938 1.397 . S
C935 C930 1.391 . S
C935 C934 1.391 . S
C935 C936 1.399 . S
C936 C935 1.399 . S
C936 C937 1.396 . S
C936 C939 1.453 . S
C936 C940 1.684 . S
C937 C927 1.723 . S
C937 C936 1.396 . S
C937 C938 1.394 . S
C938 C908 1.723 . S
C938 C934 1.397 . S
C938 C937 1.394 . S
C939 H911 0.982 . S
C939 H915 0.979 . S
C939 H916 0.977 . S
C939 C936 1.453 . S
C940 H912 0.979 . S
C940 H913 0.980 . S
C940 H914 0.983 . S
C940 C936 1.684 . S
H941 C959 0.948 . S
H942 C900 0.948 . S
H943 C918 0.979 . S
H944 C918 0.980 . S
H945 C918 0.983 . S
H946 C917 0.982 . S
H947 C917 0.979 . S
H948 C917 0.977 . S
H949 C919 0.948 . S
H950 C921 0.947 . S
H951 C922 0.948 . S
H952 C928 0.982 . S
H953 C928 0.979 . S
H954 C928 0.977 . S
H955 C929 0.979 . S
H956 C929 0.980 . S
H957 C929 0.983 . S
H958 C902 0.947 . S
C959 C902 1.392 . S
C959 C903 1.419 . S
C959 H941 0.948 . S
C960 C961 1.391 . S
C960 C964 1.391 . S
C960 H1002 0.948 . S
C961 C960 1.391 . S
C961 C962 1.391 . S
C962 C961 1.391 . S
C962 H1018 0.947 . S
C962 C1019 1.392 . S
C963 C964 1.391 . S
C963 C967 1.397 . S
C963 C1019 1.419 . S
C964 C960 1.391 . S
C964 C963 1.391 . S
C964 C965 1.399 . S
C965 C964 1.399 . S
C965 C968 1.396 . S
C965 C977 1.453 . S
C965 C978 1.684 . S
H966 C990 0.948 . S
C967 C963 1.397 . S
C967 C968 1.394 . S
C967 C986 1.723 . S
C968 C965 1.396 . S
C968 C967 1.394 . S
C968 C998 1.723 . S
H969 C992 0.947 . S
H970 C993 0.948 . S
H971 C999 0.982 . S
H972 C1000 0.979 . S
H973 C1000 0.980 . S
H974 C1000 0.983 . S
H975 C999 0.979 . S
H976 C999 0.977 . S
C977 C965 1.453 . S
C977 H1006 0.982 . S
C977 H1007 0.979 . S
C977 H1008 0.977 . S
C978 C965 1.684 . S
C978 H1003 0.979 . S
C978 H1004 0.980 . S
C978 H1005 0.983 . S
C979 C980 1.391 . S
C979 C984 1.391 . S
C979 H1009 0.948 . S
C980 C979 1.391 . S
C980 C981 1.391 . S
C981 C980 1.391 . S
C981 C982 1.392 . S
C981 H1010 0.947 . S
C982 C981 1.392 . S
C982 C983 1.419 . S
C982 H1011 0.948 . S
C983 C982 1.419 . S
C983 C984 1.391 . S
C983 C987 1.397 . S
C984 C979 1.391 . S
C984 C983 1.391 . S
C984 C985 1.399 . S
C985 C984 1.399 . S
C985 C986 1.396 . S
C985 C988 1.453 . S
C985 C989 1.684 . S
C986 C967 1.723 . S
C986 C985 1.396 . S
C986 C987 1.394 . S
C987 C983 1.397 . S
C987 C986 1.394 . S
C987 C997 1.723 . S
C988 C985 1.453 . S
C988 H1012 0.982 . S
C988 H1013 0.979 . S
C988 H1014 0.977 . S
C989 C985 1.684 . S
C989 H1015 0.979 . S
C989 H1016 0.980 . S
C989 H1017 0.983 . S
C990 H966 0.948 . S
C990 C991 1.391 . S
C990 C995 1.391 . S
C991 C990 1.391 . S
C991 C992 1.391 . S
C992 H969 0.947 . S
C992 C991 1.391 . S
C992 C993 1.392 . S
C993 H970 0.948 . S
C993 C992 1.392 . S
C993 C994 1.419 . S
C994 C993 1.419 . S
C994 C995 1.391 . S
C994 C998 1.397 . S
C995 C990 1.391 . S
C995 C994 1.391 . S
C995 C996 1.399 . S
C996 C995 1.399 . S
C996 C997 1.396 . S
C996 C999 1.453 . S
C996 C1000 1.684 . S
C997 C987 1.723 . S
C997 C996 1.396 . S
C997 C998 1.394 . S
C998 C968 1.723 . S
C998 C994 1.397 . S
C998 C997 1.394 . S
C999 H971 0.982 . S
C999 H975 0.979 . S
C999 H976 0.977 . S
C999 C996 1.453 . S
C1000 H972 0.979 . S
C1000 H973 0.980 . S
C1000 H974 0.983 . S
C1000 C996 1.684 . S
H1001 C1019 0.948 . S
H1002 C960 0.948 . S
H1003 C978 0.979 . S
H1004 C978 0.980 . S
H1005 C978 0.983 . S
H1006 C977 0.982 . S
H1007 C977 0.979 . S
H1008 C977 0.977 . S
H1009 C979 0.948 . S
H1010 C981 0.947 . S
H1011 C982 0.948 . S
H1012 C988 0.982 . S
H1013 C988 0.979 . S
H1014 C988 0.977 . S
H1015 C989 0.979 . S
H1016 C989 0.980 . S
H1017 C989 0.983 . S
H1018 C962 0.947 . S
C1019 C962 1.392 . S
C1019 C963 1.419 . S
C1019 H1001 0.948 . S
C1020 C1021 1.391 . S
C1020 C1024 1.391 . S
C1020 H1062 0.948 . S
C1021 C1020 1.391 . S
C1021 C1022 1.391 . S
C1022 C1021 1.391 . S
C1022 H1078 0.947 . S
C1022 C1079 1.392 . S
C1023 C1024 1.391 . S
C1023 C1027 1.397 . S
C1023 C1079 1.419 . S
C1024 C1020 1.391 . S
C1024 C1023 1.391 . S
C1024 C1025 1.399 . S
C1025 C1024 1.399 . S
C1025 C1028 1.396 . S
C1025 C1037 1.453 . S
C1025 C1038 1.684 . S
H1026 C1050 0.948 . S
C1027 C1023 1.397 . S
C1027 C1028 1.394 . S
C1027 C1046 1.723 . S
C1028 C1025 1.396 . S
C1028 C1027 1.394 . S
C1028 C1058 1.723 . S
H1029 C1052 0.947 . S
H1030 C1053 0.948 . S
H1031 C1059 0.982 . S
H1032 C1060 0.979 . S
H1033 C1060 0.980 . S
H1034 C1060 0.983 . S
H1035 C1059 0.979 . S
H1036 C1059 0.977 . S
C1037 C1025 1.453 . S
C1037 H1066 0.982 . S
C1037 H1067 0.979 . S
C1037 H1068 0.977 . S
C1038 C1025 1.684 . S
C1038 H1063 0.979 . S
C1038 H1064 0.980 . S
C1038 H1065 0.983 . S
C1039 C1040 1.391 . S
C1039 C1044 1.391 . S
C1039 H1069 0.948 . S
C1040 C1039 1.391 . S
C1040 C1041 1.391 . S
C1041 C1040 1.391 . S
C1041 C1042 1.392 . S
C1041 H1070 0.947 . S
C1042 C1041 1.392 . S
C1042 C1043 1.419 . S
C1042 H1071 0.948 . S
C1043 C1042 1.419 . S
C1043 C1044 1.391 . S
C1043 C1047 1.397 . S
C1044 C1039 1.391 . S
C1044 C1043 1.391 . S
C1044 C1045 1.399 . S
C1045 C1044 1.399 . S
C1045 C1046 1.396 . S
C1045 C1048 1.453 . S
C1045 C1049 1.684 . S
C1046 C1027 1.723 . S
C1046 C1045 1.396 . S
C1046 C1047 1.394 . S
C1047 C1043 1.397 . S
C1047 C1046 1.394 . S
C1047 C1057 1.723 . S
C1048 C1045 1.453 . S
C1048 H1072 0.982 . S
C1048 H1073 0.979 . S
C1048 H1074 0.977 . S
C1049 C1045 1.684 . S
C1049 H1075 0.979 . S
C1049 H1076 0.980 . S
C1049 H1077 0.983 . S
C1050 H1026 0.948 . S
C1050 C1051 1.391 . S
C1050 C1055 1.391 . S
C1051 C1050 1.391 . S
C1051 C1052 1.391 . S
C1052 H1029 0.947 . S
C1052 C1051 1.391 . S
C1052 C1053 1.392 . S
C1053 H1030 0.948 . S
C1053 C1052 1.392 . S
C1053 C1054 1.419 . S
C1054 C1053 1.419 . S
C1054 C1055 1.391 . S
C1054 C1058 1.397 . S
C1055 C1050 1.391 . S
C1055 C1054 1.391 . S
C1055 C1056 1.399 . S
C1056 C1055 1.399 . S
C1056 C1057 1.396 . S
C1056 C1059 1.453 . S
C1056 C1060 1.684 . S
C1057 C1047 1.723 . S
C1057 C1056 1.396 . S
C1057 C1058 1.394 . S
C1058 C1028 1.723 . S
C1058 C1054 1.397 . S
C1058 C1057 1.394 . S
C1059 H1031 0.982 . S
C1059 H1035 0.979 . S
C1059 H1036 0.977 . S
C1059 C1056 1.453 . S
C1060 H1032 0.979 . S
C1060 H1033 0.980 . S
C1060 H1034 0.983 . S
C1060 C1056 1.684 . S
H1061 C1079 0.948 . S
H1062 C1020 0.948 . S
H1063 C1038 0.979 . S
H1064 C1038 0.980 . S
H1065 C1038 0.983 . S
H1066 C1037 0.982 . S
H1067 C1037 0.979 . S
H1068 C1037 0.977 . S
H1069 C1039 0.948 . S
H1070 C1041 0.947 . S
H1071 C1042 0.948 . S
H1072 C1048 0.982 . S
H1073 C1048 0.979 . S
H1074 C1048 0.977 . S
H1075 C1049 0.979 . S
H1076 C1049 0.980 . S
H1077 C1049 0.983 . S
H1078 C1022 0.947 . S
C1079 C1022 1.392 . S
C1079 C1023 1.419 . S
C1079 H1061 0.948 . S
C1080 C1081 1.391 . S
C1080 C1084 1.391 . S
C1080 H1122 0.948 . S
C1081 C1080 1.391 . S
C1081 C1082 1.391 . S
C1082 C1081 1.391 . S
C1082 H1138 0.947 . S
C1082 C1139 1.392 . S
C1083 C1084 1.391 . S
C1083 C1087 1.397 . S
C1083 C1139 1.419 . S
C1084 C1080 1.391 . S
C1084 C1083 1.391 . S
C1084 C1085 1.399 . S
C1085 C1084 1.399 . S
C1085 C1088 1.396 . S
C1085 C1097 1.453 . S
C1085 C1098 1.684 . S
H1086 C1110 0.948 . S
C1087 C1083 1.397 . S
C1087 C1088 1.394 . S
C1087 C1106 1.723 . S
C1088 C1085 1.396 . S
C1088 C1087 1.394 . S
C1088 C1118 1.723 . S
H1089 C1112 0.947 . S
H1090 C1113 0.948 . S
H1091 C1119 0.982 . S
H1092 C1120 0.979 . S
H1093 C1120 0.980 . S
H1094 C1120 0.983 . S
H1095 C1119 0.979 . S
H1096 C1119 0.977 . S
C1097 C1085 1.453 . S
C1097 H1126 0.982 . S
C1097 H1127 0.979 . S
C1097 H1128 0.977 . S
C1098 C1085 1.684 . S
C1098 H1123 0.979 . S
C1098 H1124 0.980 . S
C1098 H1125 0.983 . S
C1099 C1100 1.391 . S
C1099 C1104 1.391 . S
C1099 H1129 0.948 . S
C1100 C1099 1.391 . S
C1100 C1101 1.391 . S
C1101 C1100 1.391 . S
C1101 C1102 1.392 . S
C1101 H1130 0.947 . S
C1102 C1101 1.392 . S
C1102 C1103 1.419 . S
C1102 H1131 0.948 . S
C1103 C1102 1.419 . S
C1103 C1104 1.391 . S
C1103 C1107 1.397 . S
C1104 C1099 1.391 . S
C1104 C1103 1.391 . S
C1104 C1105 1.399 . S
C1105 C1104 1.399 . S
C1105 C1106 1.396 . S
C1105 C1108 1.453 . S
C1105 C1109 1.684 . S
C1106 C1087 1.723 . S
C1106 C1105 1.396 . S
C1106 C1107 1.394 . S
C1107 C1103 1.397 . S
C1107 C1106 1.394 . S
C1107 C1117 1.723 . S
C1108 C1105 1.453 . S
C1108 H1132 0.982 . S
C1108 H1133 0.979 . S
C1108 H1134 0.977 . S
C1109 C1105 1.684 . S
C1109 H1135 0.979 . S
C1109 H1136 0.980 . S
C1109 H1137 0.983 . S
C1110 H1086 0.948 . S
C1110 C1111 1.391 . S
C1110 C1115 1.391 . S
C1111 C1110 1.391 . S
C1111 C1112 1.391 . S
C1112 H1089 0.947 . S
C1112 C1111 1.391 . S
C1112 C1113 1.392 . S
C1113 H1090 0.948 . S
C1113 C1112 1.392 . S
C1113 C1114 1.419 . S
C1114 C1113 1.419 . S
C1114 C1115 1.391 . S
C1114 C1118 1.397 . S
C1115 C1110 1.391 . S
C1115 C1114 1.391 . S
C1115 C1116 1.399 . S
C1116 C1115 1.399 . S
C1116 C1117 1.396 . S
C1116 C1119 1.453 . S
C1116 C1120 1.684 . S
C1117 C1107 1.723 . S
C1117 C1116 1.396 . S
C1117 C1118 1.394 . S
C1118 C1088 1.723 . S
C1118 C1114 1.397 . S
C1118 C1117 1.394 . S
C1119 H1091 0.982 . S
C1119 H1095 0.979 . S
C1119 H1096 0.977 . S
C1119 C1116 1.453 . S
C1120 H1092 0.979 . S
C1120 H1093 0.980 . S
C1120 H1094 0.983 . S
C1120 C1116 1.684 . S
H1121 C1139 0.948 . S
H1122 C1080 0.948 . S
H1123 C1098 0.979 . S
H1124 C1098 0.980 . S
H1125 C1098 0.983 . S
H1126 C1097 0.982 . S
H1127 C1097 0.979 . S
H1128 C1097 0.977 . S
H1129 C1099 0.948 . S
H1130 C1101 0.947 . S
H1131 C1102 0.948 . S
H1132 C1108 0.982 . S
H1133 C1108 0.979 . S
H1134 C1108 0.977 . S
H1135 C1109 0.979 . S
H1136 C1109 0.980 . S
H1137 C1109 0.983 . S
H1138 C1082 0.947 . S
C1139 C1082 1.392 . S
C1139 C1083 1.419 . S
C1139 H1121 0.948 . S
C1140 C1141 1.391 . S
C1140 C1144 1.391 . S
C1140 H1182 0.948 . S
C1141 C1140 1.391 . S
C1141 C1142 1.391 . S
C1142 C1141 1.391 . S
C1142 H1198 0.947 . S
C1142 C1199 1.392 . S
C1143 C1144 1.391 . S
C1143 C1147 1.397 . S
C1143 C1199 1.419 . S
C1144 C1140 1.391 . S
C1144 C1143 1.391 . S
C1144 C1145 1.399 . S
C1145 C1144 1.399 . S
C1145 C1148 1.396 . S
C1145 C1157 1.453 . S
C1145 C1158 1.684 . S
H1146 C1170 0.948 . S
C1147 C1143 1.397 . S
C1147 C1148 1.394 . S
C1147 C1166 1.723 . S
C1148 C1145 1.396 . S
C1148 C1147 1.394 . S
C1148 C1178 1.723 . S
H1149 C1172 0.947 . S
H1150 C1173 0.948 . S
H1151 C1179 0.982 . S
H1152 C1180 0.979 . S
H1153 C1180 0.980 . S
H1154 C1180 0.983 . S
H1155 C1179 0.979 . S
H1156 C1179 0.977 . S
C1157 C1145 1.453 . S
C1157 H1186 0.982 . S
C1157 H1187 0.979 . S
C1157 H1188 0.977 . S
C1158 C1145 1.684 . S
C1158 H1183 0.979 . S
C1158 H1184 0.980 . S
C1158 H1185 0.983 . S
C1159 C1160 1.391 . S
C1159 C1164 1.391 . S
C1159 H1189 0.948 . S
C1160 C1159 1.391 . S
C1160 C1161 1.391 . S
C1161 C1160 1.391 . S
C1161 C1162 1.392 . S
C1161 H1190 0.947 . S
C1162 C1161 1.392 . S
C1162 C1163 1.419 . S
C1162 H1191 0.948 . S
C1163 C1162 1.419 . S
C1163 C1164 1.391 . S
C1163 C1167 1.397 . S
C1164 C1159 1.391 . S
C1164 C1163 1.391 . S
C1164 C1165 1.399 . S
C1165 C1164 1.399 . S
C1165 C1166 1.396 . S
C1165 C1168 1.453 . S
C1165 C1169 1.684 . S
C1166 C1147 1.723 . S
C1166 C1165 1.396 . S
C1166 C1167 1.394 . S
C1167 C1163 1.397 . S
C1167 C1166 1.394 . S
C1167 C1177 1.723 . S
C1168 C1165 1.453 . S
C1168 H1192 0.982 . S
C1168 H1193 0.979 . S
C1168 H1194 0.977 . S
C1169 C1165 1.684 . S
C1169 H1195 0.979 . S
C1169 H1196 0.980 . S
C1169 H1197 0.983 . S
C1170 H1146 0.948 . S
C1170 C1171 1.391 . S
C1170 C1175 1.391 . S
C1171 C1170 1.391 . S
C1171 C1172 1.391 . S
C1172 H1149 0.947 . S
C1172 C1171 1.391 . S
C1172 C1173 1.392 . S
C1173 H1150 0.948 . S
C1173 C1172 1.392 . S
C1173 C1174 1.419 . S
C1174 C1173 1.419 . S
C1174 C1175 1.391 . S
C1174 C1178 1.397 . S
C1175 C1170 1.391 . S
C1175 C1174 1.391 . S
C1175 C1176 1.399 . S
C1176 C1175 1.399 . S
C1176 C1177 1.396 . S
C1176 C1179 1.453 . S
C1176 C1180 1.684 . S
C1177 C1167 1.723 . S
C1177 C1176 1.396 . S
C1177 C1178 1.394 . S
C1178 C1148 1.723 . S
C1178 C1174 1.397 . S
C1178 C1177 1.394 . S
C1179 H1151 0.982 . S
C1179 H1155 0.979 . S
C1179 H1156 0.977 . S
C1179 C1176 1.453 . S
C1180 H1152 0.979 . S
C1180 H1153 0.980 . S
C1180 H1154 0.983 . S
C1180 C1176 1.684 . S
H1181 C1199 0.948 . S
H1182 C1140 0.948 . S
H1183 C1158 0.979 . S
H1184 C1158 0.980 . S
H1185 C1158 0.983 . S
H1186 C1157 0.982 . S
H1187 C1157 0.979 . S
H1188 C1157 0.977 . S
H1189 C1159 0.948 . S
H1190 C1161 0.947 . S
H1191 C1162 0.948 . S
H1192 C1168 0.982 . S
H1193 C1168 0.979 . S
H1194 C1168 0.977 . S
H1195 C1169 0.979 . S
H1196 C1169 0.980 . S
H1197 C1169 0.983 . S
H1198 C1142 0.947 . S
C1199 C1142 1.392 . S
C1199 C1143 1.419 . S
C1199 H1181 0.948 . S
C1200 C1201 1.391 . S
C1200 C1204 1.391 . S
C1200 H1242 0.948 . S
C1201 C1200 1.391 . S
C1201 C1202 1.391 . S
C1202 C1201 1.391 . S
C1202 H1258 0.947 . S
C1202 C1259 1.392 . S
C1203 C1204 1.391 . S
C1203 C1207 1.397 . S
C1203 C1259 1.419 . S
C1204 C1200 1.391 . S
C1204 C1203 1.391 . S
C1204 C1205 1.399 . S
C1205 C1204 1.399 . S
C1205 C1208 1.396 . S
C1205 C1217 1.453 . S
C1205 C1218 1.684 . S
H1206 C1230 0.948 . S
C1207 C1203 1.397 . S
C1207 C1208 1.394 . S
C1207 C1226 1.723 . S
C1208 C1205 1.396 . S
C1208 C1207 1.394 . S
C1208 C1238 1.723 . S
H1209 C1232 0.947 . S
H1210 C1233 0.948 . S
H1211 C1239 0.982 . S
H1212 C1240 0.979 . S
H1213 C1240 0.980 . S
H1214 C1240 0.983 . S
H1215 C1239 0.979 . S
H1216 C1239 0.977 . S
C1217 C1205 1.453 . S
C1217 H1246 0.982 . S
C1217 H1247 0.979 . S
C1217 H1248 0.977 . S
C1218 C1205 1.684 . S
C1218 H1243 0.979 . S
C1218 H1244 0.980 . S
C1218 H1245 0.983 . S
C1219 C1220 1.391 . S
C1219 C1224 1.391 . S
C1219 H1249 0.948 . S
C1220 C1219 1.391 . S
C1220 C1221 1.391 . S
C1221 C1220 1.391 . S
C1221 C1222 1.392 . S
C1221 H1250 0.947 . S
C1222 C1221 1.392 . S
C1222 C1223 1.419 . S
C1222 H1251 0.948 . S
C1223 C1222 1.419 . S
C1223 C1224 1.391 . S
C1223 C1227 1.397 . S
C1224 C1219 1.391 . S
C1224 C1223 1.391 . S
C1224 C1225 1.399 . S
C1225 C1224 1.399 . S
C1225 C1226 1.396 . S
C1225 C1228 1.453 . S
C1225 C1229 1.684 . S
C1226 C1207 1.723 . S
C1226 C1225 1.396 . S
C1226 C1227 1.394 . S
C1227 C1223 1.397 . S
C1227 C1226 1.394 . S
C1227 C1237 1.723 . S
C1228 C1225 1.453 . S
C1228 H1252 0.982 . S
C1228 H1253 0.979 . S
C1228 H1254 0.977 . S
C1229 C1225 1.684 . S
C1229 H1255 0.979 . S
C1229 H1256 0.980 . S
C1229 H1257 0.983 . S
C1230 H1206 0.948 . S
C1230 C1231 1.391 . S
C1230 C1235 1.391 . S
C1231 C1230 1.391 . S
C1231 C1232 1.391 . S
C1232 H1209 0.947 . S
C1232 C1231 1.391 . S
C1232 C1233 1.392 . S
C1233 H1210 0.948 . S
C1233 C1232 1.392 . S
C1233 C1234 1.419 . S
C1234 C1233 1.419 . S
C1234 C1235 1.391 . S
C1234 C1238 1.397 . S
C1235 C1230 1.391 . S
C1235 C1234 1.391 . S
C1235 C1236 1.399 . S
C1236 C1235 1.399 . S
C1236 C1237 1.396 . S
C1236 C1239 1.453 . S
C1236 C1240 1.684 . S
C1237 C1227 1.723 . S
C1237 C1236 1.396 . S
C1237 C1238 1.394 . S
C1238 C1208 1.723 . S
C1238 C1234 1.397 . S
C1238 C1237 1.394 . S
C1239 H1211 0.982 . S
C1239 H1215 0.979 . S
C1239 H1216 0.977 . S
C1239 C1236 1.453 . S
C1240 H1212 0.979 . S
C1240 H1213 0.980 . S
C1240 H1214 0.983 . S
C1240 C1236 1.684 . S
H1241 C1259 0.948 . S
H1242 C1200 0.948 . S
H1243 C1218 0.979 . S
H1244 C1218 0.980 . S
H1245 C1218 0.983 . S
H1246 C1217 0.982 . S
H1247 C1217 0.979 . S
H1248 C1217 0.977 . S
H1249 C1219 0.948 . S
H1250 C1221 0.947 . S
H1251 C1222 0.948 . S
H1252 C1228 0.982 . S
H1253 C1228 0.979 . S
H1254 C1228 0.977 . S
H1255 C1229 0.979 . S
H1256 C1229 0.980 . S
H1257 C1229 0.983 . S
H1258 C1202 0.947 . S
C1259 C1202 1.392 . S
C1259 C1203 1.419 . S
C1259 H1241 0.948 . S
C1260 C1261 1.391 . S
C1260 C1264 1.391 . S
C1260 H1302 0.948 . S
C1261 C1260 1.391 . S
C1261 C1262 1.391 . S
C1262 C1261 1.391 . S
C1262 H1318 0.947 . S
C1262 C1319 1.392 . S
C1263 C1264 1.391 . S
C1263 C1267 1.397 . S
C1263 C1319 1.419 . S
C1264 C1260 1.391 . S
C1264 C1263 1.391 . S
C1264 C1265 1.399 . S
C1265 C1264 1.399 . S
C1265 C1268 1.396 . S
C1265 C1277 1.453 . S
C1265 C1278 1.684 . S
H1266 C1290 0.948 . S
C1267 C1263 1.397 . S
C1267 C1268 1.394 . S
C1267 C1286 1.723 . S
C1268 C1265 1.396 . S
C1268 C1267 1.394 . S
C1268 C1298 1.723 . S
H1269 C1292 0.947 . S
H1270 C1293 0.948 . S
H1271 C1299 0.982 . S
H1272 C1300 0.979 . S
H1273 C1300 0.980 . S
H1274 C1300 0.983 . S
H1275 C1299 0.979 . S
H1276 C1299 0.977 . S
C1277 C1265 1.453 . S
C1277 H1306 0.982 . S
C1277 H1307 0.979 . S
C1277 H1308 0.977 . S
C1278 C1265 1.684 . S
C1278 H1303 0.979 . S
C1278 H1304 0.980 . S
C1278 H1305 0.983 . S
C1279 C1280 1.391 . S
C1279 C1284 1.391 . S
C1279 H1309 0.948 . S
C1280 C1279 1.391 . S
C1280 C1281 1.391 . S
C1281 C1280 1.391 . S
C1281 C1282 1.392 . S
C1281 H1310 0.947 . S
C1282 C1281 1.392 . S
C1282 C1283 1.419 . S
C1282 H1311 0.948 . S
C1283 C1282 1.419 . S
C1283 C1284 1.391 . S
C1283 C1287 1.397 . S
C1284 C1279 1.391 . S
C1284 C1283 1.391 . S
C1284 C1285 1.399 . S
C1285 C1284 1.399 . S
C1285 C1286 1.396 . S
C1285 C1288 1.453 . S
C1285 C1289 1.684 . S
C1286 C1267 1.723 . S
C1286 C1285 1.396 . S
C1286 C1287 1.394 . S
C1287 C1283 1.397 . S
C1287 C1286 1.394 . S
C1287 C1297 1.723 . S
C1288 C1285 1.453 . S
C1288 H1312 0.982 . S
C1288 H1313 0.979 . S
C1288 H1314 0.977 . S
C1289 C1285 1.684 . S
C1289 H1315 0.979 . S
C1289 H1316 0.980 . S
C1289 H1317 0.983 . S
C1290 H1266 0.948 . S
C1290 C1291 1.391 . S
C1290 C1295 1.391 . S
C1291 C1290 1.391 . S
C1291 C1292 1.391 . S
C1292 H1269 0.947 . S
C1292 C1291 1.391 . S
C1292 C1293 1.392 . S
C1293 H1270 0.948 . S
C1293 C1292 1.392 . S
C1293 C1294 1.419 . S
C1294 C1293 1.419 . S
C1294 C1295 1.391 . S
C1294 C1298 1.397 . S
C1295 C1290 1.391 . S
C1295 C1294 1.391 . S
C1295 C1296 1.399 . S
C1296 C1295 1.399 . S
C1296 C1297 1.396 . S
C1296 C1299 1.453 . S
C1296 C1300 1.684 . S
C1297 C1287 1.723 . S
C1297 C1296 1.396 . S
C1297 C1298 1.394 . S
C1298 C1268 1.723 . S
C1298 C1294 1.397 . S
C1298 C1297 1.394 . S
C1299 H1271 0.982 . S
C1299 H1275 0.979 . S
C1299 H1276 0.977 . S
C1299 C1296 1.453 . S
C1300 H1272 0.979 . S
C1300 H1273 0.980 . S
C1300 H1274 0.983 . S
C1300 C1296 1.684 . S
H1301 C1319 0.948 . S
H1302 C1260 0.948 . S
H1303 C1278 0.979 . S
H1304 C1278 0.980 . S
H1305 C1278 0.983 . S
H1306 C1277 0.982 . S
H1307 C1277 0.979 . S
H1308 C1277 0.977 . S
H1309 C1279 0.948 . S
H1310 C1281 0.947 . S
H1311 C1282 0.948 . S
H1312 C1288 0.982 . S
H1313 C1288 0.979 . S
H1314 C1288 0.977 . S
H1315 C1289 0.979 . S
H1316 C1289 0.980 . S
H1317 C1289 0.983 . S
H1318 C1262 0.947 . S
C1319 C1262 1.392 . S
C1319 C1263 1.419 . S
C1319 H1301 0.948 . S
C1320 C1321 1.391 . S
C1320 C1324 1.391 . S
C1320 H1362 0.948 . S
C1321 C1320 1.391 . S
C1321 C1322 1.391 . S
C1322 C1321 1.391 . S
C1322 H1378 0.947 . S
C1322 C1379 1.392 . S
C1323 C1324 1.391 . S
C1323 C1327 1.397 . S
C1323 C1379 1.419 . S
C1324 C1320 1.391 . S
C1324 C1323 1.391 . S
C1324 C1325 1.399 . S
C1325 C1324 1.399 . S
C1325 C1328 1.396 . S
C1325 C1337 1.453 . S
C1325 C1338 1.684 . S
H1326 C1350 0.948 . S
C1327 C1323 1.397 . S
C1327 C1328 1.394 . S
C1327 C1346 1.723 . S
C1328 C1325 1.396 . S
C1328 C1327 1.394 . S
C1328 C1358 1.723 . S
H1329 C1352 0.947 . S
H1330 C1353 0.948 . S
H1331 C1359 0.982 . S
H1332 C1360 0.979 . S
H1333 C1360 0.980 . S
H1334 C1360 0.983 . S
H1335 C1359 0.979 . S
H1336 C1359 0.977 . S
C1337 C1325 1.453 . S
C1337 H1366 0.982 . S
C1337 H1367 0.979 . S
C1337 H1368 0.977 . S
C1338 C1325 1.684 . S
C1338 H1363 0.979 . S
C1338 H1364 0.980 . S
C1338 H1365 0.983 . S
C1339 C1340 1.391 . S
C1339 C1344 1.391 . S
C1339 H1369 0.948 . S
C1340 C1339 1.391 . S
C1340 C1341 1.391 . S
C1341 C1340 1.391 . S
C1341 C1342 1.392 . S
C1341 H1370 0.947 . S
C1342 C1341 1.392 . S
C1342 C1343 1.419 . S
C1342 H1371 0.948 . S
C1343 C1342 1.419 . S
C1343 C1344 1.391 . S
C1343 C1347 1.397 . S
C1344 C1339 1.391 . S
C1344 C1343 1.391 . S
C1344 C1345 1.399 . S
C1345 C1344 1.399 . S
C1345 C1346 1.396 . S
C1345 C1348 1.453 . S
C1345 C1349 1.684 . S
C1346 C1327 1.723 . S
C1346 C1345 1.396 . S
C1346 C1347 1.394 . S
C1347 C1343 1.397 . S
C1347 C1346 1.394 . S
C1347 C1357 1.723 . S
C1348 C1345 1.453 . S
C1348 H1372 0.982 . S
C1348 H1373 0.979 . S
C1348 H1374 0.977 . S
C1349 C1345 1.684 . S
C1349 H1375 0.979 . S
C1349 H1376 0.980 . S
C1349 H1377 0.983 . S
C1350 H1326 0.948 . S
C1350 C1351 1.391 . S
C1350 C1355 1.391 . S
C1351 C1350 1.391 . S
C1351 C1352 1.391 . S
C1352 H1329 0.947 . S
C1352 C1351 1.391 . S
C1352 C1353 1.392 . S
C1353 H1330 0.948 . S
C1353 C1352 1.392 . S
C1353 C1354 1.419 . S
C1354 C1353 1.419 . S
C1354 C1355 1.391 . S
C1354 C1358 1.397 . S
C1355 C1350 1.391 . S
C1355 C1354 1.391 . S
C1355 C1356 1.399 . S
C1356 C1355 1.399 . S
C1356 C1357 1.396 . S
C1356 C1359 1.453 . S
C1356 C1360 1.684 . S
C1357 C1347 1.723 . S
C1357 C1356 1.396 . S
C1357 C1358 1.394 . S
C1358 C1328 1.723 . S
C1358 C1354 1.397 . S
C1358 C1357 1.394 . S
C1359 H1331 0.982 . S
C1359 H1335 0.979 . S
C1359 H1336 0.977 . S
C1359 C1356 1.453 . S
C1360 H1332 0.979 . S
C1360 H1333 0.980 . S
C1360 H1334 0.983 . S
C1360 C1356 1.684 . S
H1361 C1379 0.948 . S
H1362 C1320 0.948 . S
H1363 C1338 0.979 . S
H1364 C1338 0.980 . S
H1365 C1338 0.983 . S
H1366 C1337 0.982 . S
H1367 C1337 0.979 . S
H1368 C1337 0.977 . S
H1369 C1339 0.948 . S
H1370 C1341 0.947 . S
H1371 C1342 0.948 . S
H1372 C1348 0.982 . S
H1373 C1348 0.979 . S
H1374 C1348 0.977 . S
H1375 C1349 0.979 . S
H1376 C1349 0.980 . S
H1377 C1349 0.983 . S
H1378 C1322 0.947 . S
C1379 C1322 1.392 . S
C1379 C1323 1.419 . S
C1379 H1361 0.948 . S
C1380 C1381 1.391 . S
C1380 C1384 1.391 . S
C1380 H1422 0.948 . S
C1381 C1380 1.391 . S
C1381 C1382 1.391 . S
C1382 C1381 1.391 . S
C1382 H1438 0.947 . S
C1382 C1439 1.392 . S
C1383 C1384 1.391 . S
C1383 C1387 1.397 . S
C1383 C1439 1.419 . S
C1384 C1380 1.391 . S
C1384 C1383 1.391 . S
C1384 C1385 1.399 . S
C1385 C1384 1.399 . S
C1385 C1388 1.396 . S
C1385 C1397 1.453 . S
C1385 C1398 1.684 . S
H1386 C1410 0.948 . S
C1387 C1383 1.397 . S
C1387 C1388 1.394 . S
C1387 C1406 1.723 . S
C1388 C1385 1.396 . S
C1388 C1387 1.394 . S
C1388 C1418 1.723 . S
H1389 C1412 0.947 . S
H1390 C1413 0.948 . S
H1391 C1419 0.982 . S
H1392 C1420 0.979 . S
H1393 C1420 0.980 . S
H1394 C1420 0.983 . S
H1395 C1419 0.979 . S
H1396 C1419 0.977 . S
C1397 C1385 1.453 . S
C1397 H1426 0.982 . S
C1397 H1427 0.979 . S
C1397 H1428 0.977 . S
C1398 C1385 1.684 . S
C1398 H1423 0.979 . S
C1398 H1424 0.980 . S
C1398 H1425 0.983 . S
C1399 C1400 1.391 . S
C1399 C1404 1.391 . S
C1399 H1429 0.948 . S
C1400 C1399 1.391 . S
C1400 C1401 1.391 . S
C1401 C1400 1.391 . S
C1401 C1402 1.392 . S
C1401 H1430 0.947 . S
C1402 C1401 1.392 . S
C1402 C1403 1.419 . S
C1402 H1431 0.948 . S
C1403 C1402 1.419 . S
C1403 C1404 1.391 . S
C1403 C1407 1.397 . S
C1404 C1399 1.391 . S
C1404 C1403 1.391 . S
C1404 C1405 1.399 . S
C1405 C1404 1.399 . S
C1405 C1406 1.396 . S
C1405 C1408 1.453 . S
C1405 C1409 1.684 . S
C1406 C1387 1.723 . S
C1406 C1405 1.396 . S
C1406 C1407 1.394 . S
C1407 C1403 1.397 . S
C1407 C1406 1.394 . S
C1407 C1417 1.723 . S
C1408 C1405 1.453 . S
C1408 H1432 0.982 . S
C1408 H1433 0.979 . S
C1408 H1434 0.977 . S
C1409 C1405 1.684 . S
C1409 H1435 0.979 . S
C1409 H1436 0.980 . S
C1409 H1437 0.983 . S
C1410 H1386 0.948 . S
C1410 C1411 1.391 . S
C1410 C1415 1.391 . S
C1411 C1410 1.391 . S
C1411 C1412 1.391 . S
C1412 H1389 0.947 . S
C1412 C1411 1.391 . S
C1412 C1413 1.392 . S
C1413 H1390 0.948 . S
C1413 C1412 1.392 . S
C1413 C1414 1.419 . S
C1414 C1413 1.419 . S
C1414 C1415 1.391 . S
C1414 C1418 1.397 . S
C1415 C1410 1.391 . S
C1415 C1414 1.391 . S
C1415 C1416 1.399 . S
C1416 C1415 1.399 . S
C1416 C1417 1.396 . S
C1416 C1419 1.453 . S
C1416 C1420 1.684 . S
C1417 C1407 1.723 . S
C1417 C1416 1.396 . S
C1417 C1418 1.394 . S
C1418 C1388 1.723 . S
C1418 C1414 1.397 . S
C1418 C1417 1.394 . S
C1419 H1391 0.982 . S
C1419 H1395 0.979 . S
C1419 H1396 0.977 . S
C1419 C1416 1.453 . S
C1420 H1392 0.979 . S
C1420 H1393 0.980 . S
C1420 H1394 0.983 . S
C1420 C1416 1.684 . S
H1421 C1439 0.948 . S
H1422 C1380 0.948 . S
H1423 C1398 0.979 . S
H1424 C1398 0.980 . S
H1425 C1398 0.983 . S
H1426 C1397 0.982 . S
H1427 C1397 0.979 . S
H1428 C1397 0.977 . S
H1429 C1399 0.948 . S
H1430 C1401 0.947 . S
H1431 C1402 0.948 . S
H1432 C1408 0.982 . S
H1433 C1408 0.979 . S
H1434 C1408 0.977 . S
H1435 C1409 0.979 . S
H1436 C1409 0.980 . S
H1437 C1409 0.983 . S
H1438 C1382 0.947 . S
C1439 C1382 1.392 . S
C1439 C1383 1.419 . S
C1439 H1421 0.948 . S
Zn1440 O1442 1.933 1_565 S
Zn1440 O1460 1.995 . S
Zn1440 O1471 1.955 . S
Zn1441 O1442 1.911 . S
Zn1441 O1461 1.970 . S
Zn1441 O1477 1.945 . S
Zn1441 O1484 1.981 . S
O1442 Zn1440 1.933 1_545 S
O1442 Zn1441 1.911 . S
O1442 H1443 0.841 1_655 S
H1443 O1442 0.841 1_455 S
C1444 O1445 1.246 . S
C1444 O1473 1.276 . S
O1445 C1444 1.246 . S
Zn1446 O1448 1.911 . S
Zn1446 O1463 1.970 . S
Zn1446 O1480 1.945 . S
Zn1446 O1487 1.981 . S
Zn1447 O1448 1.933 1_565 S
Zn1447 O1462 1.985 . S
Zn1447 O1469 1.955 . S
O1448 Zn1446 1.911 . S
O1448 Zn1447 1.933 1_545 S
O1448 H1449 0.841 . S
H1449 O1448 0.841 . S
Zn1450 O1451 1.933 1_565 S
Zn1450 O1464 1.992 . S
Zn1450 O1473 1.955 . S
O1451 Zn1450 1.933 1_545 S
O1451 Zn1452 1.911 . S
O1451 H1453 0.841 . S
Zn1452 O1451 1.911 . S
Zn1452 O1465 1.970 . S
Zn1452 O1481 1.981 1_655 S
Zn1452 O1483 1.945 . S
H1453 O1451 0.841 . S
Zn1454 O1455 1.933 1_565 S
Zn1454 O1467 1.985 . S
Zn1454 O1475 1.955 . S
O1455 Zn1454 1.933 1_545 S
O1455 H1456 0.841 . S
O1455 Zn1457 1.911 . S
H1456 O1455 0.841 . S
Zn1457 O1455 1.911 . S
Zn1457 O1468 1.970 . S
Zn1457 O1478 1.981 . S
Zn1457 O1486 1.945 . S
C1458 O1459 1.246 . S
C1458 O1475 1.276 . S
O1459 C1458 1.246 . S
O1460 Zn1440 1.995 . S
O1460 C1470 1.209 1_565 S
O1461 Zn1441 1.970 . S
O1461 C1470 1.263 . S
O1462 Zn1447 1.985 . S
O1462 C1474 1.245 1_565 S
O1463 Zn1446 1.970 . S
O1463 C1474 1.263 . S
O1464 Zn1450 1.992 . S
O1464 C1479 1.217 1_565 S
O1465 Zn1452 1.970 . S
O1465 C1479 1.263 . S
C1466 O1477 1.262 1_455 S
C1466 O1478 1.245 . S
O1467 Zn1454 1.985 . S
O1467 C1485 1.245 1_565 S
O1468 Zn1457 1.970 . S
O1468 C1485 1.263 . S
O1469 Zn1447 1.955 . S
O1469 C1488 1.276 . S
C1470 O1460 1.209 1_545 S
C1470 O1461 1.263 . S
O1471 Zn1440 1.955 . S
O1471 C1490 1.276 1_655 S
C1472 O1480 1.262 . S
C1472 O1481 1.245 . S
O1473 C1444 1.276 . S
O1473 Zn1450 1.955 . S
C1474 O1462 1.245 1_545 S
C1474 O1463 1.263 . S
O1475 Zn1454 1.955 . S
O1475 C1458 1.276 . S
C1476 O1483 1.262 . S
C1476 O1484 1.245 . S
O1477 Zn1441 1.945 . S
O1477 C1466 1.262 1_655 S
O1478 Zn1457 1.981 . S
O1478 C1466 1.245 . S
C1479 O1464 1.217 1_545 S
C1479 O1465 1.263 . S
O1480 Zn1446 1.945 . S
O1480 C1472 1.262 . S
O1481 Zn1452 1.981 1_455 S
O1481 C1472 1.245 . S
C1482 O1486 1.262 . S
C1482 O1487 1.245 . S
O1483 Zn1452 1.945 . S
O1483 C1476 1.262 . S
O1484 Zn1441 1.981 . S
O1484 C1476 1.245 . S
C1485 O1467 1.245 1_545 S
C1485 O1468 1.263 . S
O1486 Zn1457 1.945 . S
O1486 C1482 1.262 . S
O1487 Zn1446 1.981 . S
O1487 C1482 1.245 . S
C1488 O1469 1.276 . S
C1488 O1489 1.246 . S
O1489 C1488 1.246 . S
C1490 O1471 1.276 1_455 S
C1490 O1491 1.246 . S
O1491 C1490 1.246 . S
Zn1492 O1494 1.933 . S
Zn1492 O1512 1.985 . S
Zn1492 O1523 1.955 . S
Zn1493 O1494 1.911 1_556 S
Zn1493 O1513 1.970 . S
Zn1493 O1529 1.945 . S
Zn1493 O1536 1.981 . S
O1494 Zn1492 1.933 . S
O1494 Zn1493 1.911 1_554 S
O1494 H1495 0.841 . S
H1495 O1494 0.841 . S
C1496 O1497 1.246 . S
C1496 O1525 1.276 . S
O1497 C1496 1.246 . S
Zn1498 O1500 1.911 1_556 S
Zn1498 O1515 1.970 . S
Zn1498 O1532 1.945 . S
Zn1498 O1539 1.981 . S
Zn1499 O1500 1.933 . S
Zn1499 O1514 1.985 . S
Zn1499 O1521 1.955 . S
O1500 Zn1498 1.911 1_554 S
O1500 Zn1499 1.933 . S
O1500 H1501 0.841 1_565 S
H1501 O1500 0.841 1_545 S
Zn1502 O1503 1.933 . S
Zn1502 O1516 1.985 . S
Zn1502 O1525 1.955 . S
O1503 Zn1502 1.933 . S
O1503 Zn1504 1.911 1_554 S
O1503 H1505 0.841 . S
Zn1504 O1503 1.911 1_556 S
Zn1504 O1517 1.970 . S
Zn1504 O1533 1.981 . S
Zn1504 O1535 1.945 . S
H1505 O1503 0.841 . S
Zn1506 O1507 1.933 . S
Zn1506 O1519 1.985 . S
Zn1506 O1527 1.955 . S
O1507 Zn1506 1.933 . S
O1507 H1508 0.841 . S
O1507 Zn1509 1.911 1_554 S
H1508 O1507 0.841 . S
Zn1509 O1507 1.911 1_556 S
Zn1509 O1520 1.970 . S
Zn1509 O1530 1.981 1_565 S
Zn1509 O1538 1.945 . S
C1510 O1511 1.246 . S
C1510 O1527 1.276 . S
O1511 C1510 1.246 . S
O1512 Zn1492 1.985 . S
O1512 C1522 1.245 . S
O1513 Zn1493 1.970 . S
O1513 C1522 1.263 1_556 S
O1514 Zn1499 1.985 . S
O1514 C1526 1.245 . S
O1515 Zn1498 1.970 . S
O1515 C1526 1.263 1_556 S
O1516 Zn1502 1.985 . S
O1516 C1531 1.245 . S
O1517 Zn1504 1.970 . S
O1517 C1531 1.263 1_556 S
C1518 O1529 1.262 . S
C1518 O1530 1.245 . S
O1519 Zn1506 1.985 . S
O1519 C1537 1.245 . S
O1520 Zn1509 1.970 . S
O1520 C1537 1.263 1_556 S
O1521 Zn1499 1.955 . S
O1521 C1540 1.276 1_565 S
C1522 O1512 1.245 . S
C1522 O1513 1.263 1_554 S
O1523 Zn1492 1.955 . S
O1523 C1542 1.276 . S
C1524 O1532 1.262 1_545 S
C1524 O1533 1.245 . S
O1525 C1496 1.276 . S
O1525 Zn1502 1.955 . S
C1526 O1514 1.245 . S
C1526 O1515 1.263 1_554 S
O1527 Zn1506 1.955 . S
O1527 C1510 1.276 . S
C1528 O1535 1.262 . S
C1528 O1536 1.245 . S
O1529 Zn1493 1.945 . S
O1529 C1518 1.262 . S
O1530 Zn1509 1.981 1_545 S
O1530 C1518 1.245 . S
C1531 O1516 1.245 . S
C1531 O1517 1.263 1_554 S
O1532 Zn1498 1.945 . S
O1532 C1524 1.262 1_565 S
O1533 Zn1504 1.981 . S
O1533 C1524 1.245 . S
C1534 O1538 1.262 . S
C1534 O1539 1.245 . S
O1535 Zn1504 1.945 . S
O1535 C1528 1.262 . S
O1536 Zn1493 1.981 . S
O1536 C1528 1.245 . S
C1537 O1519 1.245 . S
C1537 O1520 1.263 1_554 S
O1538 Zn1509 1.945 . S
O1538 C1534 1.262 . S
O1539 Zn1498 1.981 . S
O1539 C1534 1.245 . S
C1540 O1521 1.276 1_545 S
C1540 O1541 1.246 . S
O1541 C1540 1.246 . S
C1542 O1523 1.276 . S
C1542 O1543 1.246 . S
O1543 C1542 1.246 . S
Zn1544 O1546 1.933 . S
Zn1544 O1564 1.985 . S
Zn1544 O1575 1.955 . S
Zn1545 O1546 1.911 . S
Zn1545 O1565 1.970 . S
Zn1545 O1581 1.945 . S
Zn1545 O1588 1.981 . S
O1546 Zn1544 1.933 . S
O1546 Zn1545 1.911 . S
O1546 H1547 0.841 1_655 S
H1547 O1546 0.841 1_455 S
C1548 O1549 1.246 1_554 S
C1548 O1577 1.276 . S
O1549 C1548 1.246 1_556 S
Zn1550 O1552 1.911 . S
Zn1550 O1567 1.970 . S
Zn1550 O1584 1.945 . S
Zn1550 O1591 1.981 . S
Zn1551 O1552 1.933 . S
Zn1551 O1566 1.985 . S
Zn1551 O1573 1.955 . S
O1552 Zn1550 1.911 . S
O1552 Zn1551 1.933 . S
O1552 H1553 0.841 . S
H1553 O1552 0.841 . S
Zn1554 O1555 1.933 . S
Zn1554 O1568 1.985 . S
Zn1554 O1577 1.955 . S
O1555 Zn1554 1.933 . S
O1555 Zn1556 1.911 . S
O1555 H1557 0.841 . S
Zn1556 O1555 1.911 . S
Zn1556 O1569 1.970 . S
Zn1556 O1585 1.981 1_655 S
Zn1556 O1587 1.945 . S
H1557 O1555 0.841 . S
Zn1558 O1559 1.933 . S
Zn1558 O1571 1.985 . S
Zn1558 O1579 1.955 . S
O1559 Zn1558 1.933 . S
O1559 H1560 0.841 1_556 S
O1559 Zn1561 1.911 . S
H1560 O1559 0.841 1_554 S
Zn1561 O1559 1.911 . S
Zn1561 O1572 1.970 . S
Zn1561 O1582 1.981 . S
Zn1561 O1590 1.945 . S
C1562 O1563 1.246 . S
C1562 O1579 1.276 1_554 S
O1563 C1562 1.246 . S
O1564 Zn1544 1.985 . S
O1564 C1574 1.245 . S
O1565 Zn1545 1.970 . S
O1565 C1574 1.263 . S
O1566 Zn1551 1.985 . S
O1566 C1578 1.245 . S
O1567 Zn1550 1.970 . S
O1567 C1578 1.263 . S
O1568 Zn1554 1.985 . S
O1568 C1583 1.245 . S
O1569 Zn1556 1.970 . S
O1569 C1583 1.263 . S
C1570 O1581 1.262 1_455 S
C1570 O1582 1.245 . S
O1571 Zn1558 1.985 . S
O1571 C1589 1.245 . S
O1572 Zn1561 1.970 . S
O1572 C1589 1.263 . S
O1573 Zn1551 1.955 . S
O1573 C1592 1.276 . S
C1574 O1564 1.245 . S
C1574 O1565 1.263 . S
O1575 Zn1544 1.955 . S
O1575 C1594 1.276 1_655 S
C1576 O1584 1.262 . S
C1576 O1585 1.245 . S
O1577 C1548 1.276 . S
O1577 Zn1554 1.955 . S
C1578 O1566 1.245 . S
C1578 O1567 1.263 . S
O1579 Zn1558 1.955 . S
O1579 C1562 1.276 1_556 S
C1580 O1587 1.262 . S
C1580 O1588 1.245 1_554 S
O1581 Zn1545 1.945 . S
O1581 C1570 1.262 1_655 S
O1582 Zn1561 1.981 . S
O1582 C1570 1.245 . S
C1583 O1568 1.245 . S
C1583 O1569 1.263 . S
O1584 Zn1550 1.945 . S
O1584 C1576 1.262 . S
O1585 Zn1556 1.981 1_455 S
O1585 C1576 1.245 . S
C1586 O1590 1.262 1_554 S
C1586 O1591 1.245 . S
O1587 Zn1556 1.945 . S
O1587 C1580 1.262 . S
O1588 Zn1545 1.981 . S
O1588 C1580 1.245 1_556 S
C1589 O1571 1.245 . S
C1589 O1572 1.263 . S
O1590 Zn1561 1.945 . S
O1590 C1586 1.262 1_556 S
O1591 Zn1550 1.981 . S
O1591 C1586 1.245 . S
C1592 O1573 1.276 . S
C1592 O1593 1.246 . S
O1593 C1592 1.246 . S
C1594 O1575 1.276 1_455 S
C1594 O1595 1.246 . S
O1595 C1594 1.246 . S
Zn1596 O1598 1.933 1_556 S
Zn1596 O1616 1.985 . S
Zn1596 O1627 1.955 . S
Zn1597 O1598 1.911 . S
Zn1597 O1617 1.970 . S
Zn1597 O1633 1.945 . S
Zn1597 O1640 1.981 . S
O1598 Zn1596 1.933 1_554 S
O1598 Zn1597 1.911 . S
O1598 H1599 0.841 . S
H1599 O1598 0.841 . S
C1600 O1601 1.246 . S
C1600 O1629 1.276 . S
O1601 C1600 1.246 . S
Zn1602 O1604 1.911 . S
Zn1602 O1619 1.970 . S
Zn1602 O1636 1.945 . S
Zn1602 O1643 1.981 . S
Zn1603 O1604 1.933 1_556 S
Zn1603 O1618 1.985 . S
Zn1603 O1625 1.955 . S
O1604 Zn1602 1.911 . S
O1604 Zn1603 1.933 1_554 S
O1604 H1605 0.841 . S
H1605 O1604 0.841 . S
Zn1606 O1607 1.933 1_556 S
Zn1606 O1620 1.985 . S
Zn1606 O1629 1.955 . S
O1607 Zn1606 1.933 1_554 S
O1607 Zn1608 1.911 . S
O1607 H1609 0.841 . S
Zn1608 O1607 1.911 . S
Zn1608 O1621 1.970 . S
Zn1608 O1637 1.981 . S
Zn1608 O1639 1.945 . S
H1609 O1607 0.841 . S
Zn1610 O1611 1.933 1_556 S
Zn1610 O1623 1.985 . S
Zn1610 O1631 1.955 . S
O1611 Zn1610 1.933 1_554 S
O1611 H1612 0.841 . S
O1611 Zn1613 1.911 . S
H1612 O1611 0.841 . S
Zn1613 O1611 1.911 . S
Zn1613 O1624 1.970 . S
Zn1613 O1634 1.981 . S
Zn1613 O1642 1.945 . S
C1614 O1615 1.246 . S
C1614 O1631 1.276 . S
O1615 C1614 1.246 . S
O1616 Zn1596 1.985 . S
O1616 C1626 1.245 1_556 S
O1617 Zn1597 1.970 . S
O1617 C1626 1.263 . S
O1618 Zn1603 1.985 . S
O1618 C1630 1.245 1_556 S
O1619 Zn1602 1.970 . S
O1619 C1630 1.263 . S
O1620 Zn1606 1.985 . S
O1620 C1635 1.245 1_556 S
O1621 Zn1608 1.970 . S
O1621 C1635 1.263 . S
C1622 O1633 1.262 . S
C1622 O1634 1.245 . S
O1623 Zn1610 1.985 . S
O1623 C1641 1.245 1_556 S
O1624 Zn1613 1.970 . S
O1624 C1641 1.263 . S
O1625 Zn1603 1.955 . S
O1625 C1644 1.276 . S
C1626 O1616 1.245 1_554 S
C1626 O1617 1.263 . S
O1627 Zn1596 1.955 . S
O1627 C1646 1.276 . S
C1628 O1636 1.262 . S
C1628 O1637 1.245 . S
O1629 C1600 1.276 . S
O1629 Zn1606 1.955 . S
C1630 O1618 1.245 1_554 S
C1630 O1619 1.263 . S
O1631 Zn1610 1.955 . S
O1631 C1614 1.276 . S
C1632 O1639 1.262 . S
C1632 O1640 1.245 . S
O1633 Zn1597 1.945 . S
O1633 C1622 1.262 . S
O1634 Zn1613 1.981 . S
O1634 C1622 1.245 . S
C1635 O1620 1.245 1_554 S
C1635 O1621 1.263 . S
O1636 Zn1602 1.945 . S
O1636 C1628 1.262 . S
O1637 Zn1608 1.981 . S
O1637 C1628 1.245 . S
C1638 O1642 1.262 . S
C1638 O1643 1.245 . S
O1639 Zn1608 1.945 . S
O1639 C1632 1.262 . S
O1640 Zn1597 1.981 . S
O1640 C1632 1.245 . S
C1641 O1623 1.245 1_554 S
C1641 O1624 1.263 . S
O1642 Zn1613 1.945 . S
O1642 C1638 1.262 . S
O1643 Zn1602 1.981 . S
O1643 C1638 1.245 . S
C1644 O1625 1.276 . S
C1644 O1645 1.246 . S
O1645 C1644 1.246 . S
C1646 O1627 1.276 . S
C1646 O1647 1.246 . S
O1647 C1646 1.246 . S
Zn1648 O1650 1.933 . S
Zn1648 O1668 1.985 . S
Zn1648 O1679 1.955 . S
Zn1649 O1650 1.911 . S
Zn1649 O1669 1.970 . S
Zn1649 O1685 1.945 . S
Zn1649 O1692 1.981 . S
O1650 Zn1648 1.933 . S
O1650 Zn1649 1.911 . S
O1650 H1651 0.841 1_655 S
H1651 O1650 0.841 1_455 S
C1652 O1653 1.246 . S
C1652 O1681 1.276 . S
O1653 C1652 1.246 . S
Zn1654 O1656 1.911 . S
Zn1654 O1671 1.970 . S
Zn1654 O1688 1.945 . S
Zn1654 O1695 1.981 . S
Zn1655 O1656 1.933 . S
Zn1655 O1670 1.985 . S
Zn1655 O1677 1.955 . S
O1656 Zn1654 1.911 . S
O1656 Zn1655 1.933 . S
O1656 H1657 0.841 . S
H1657 O1656 0.841 . S
Zn1658 O1659 1.933 . S
Zn1658 O1672 1.985 . S
Zn1658 O1681 1.955 . S
O1659 Zn1658 1.933 . S
O1659 Zn1660 1.911 . S
O1659 H1661 0.841 . S
Zn1660 O1659 1.911 . S
Zn1660 O1673 1.970 . S
Zn1660 O1689 1.981 1_655 S
Zn1660 O1691 1.945 . S
H1661 O1659 0.841 . S
Zn1662 O1663 1.933 . S
Zn1662 O1675 1.985 . S
Zn1662 O1683 1.955 . S
O1663 Zn1662 1.933 . S
O1663 H1664 0.841 . S
O1663 Zn1665 1.911 . S
H1664 O1663 0.841 . S
Zn1665 O1663 1.911 . S
Zn1665 O1676 1.970 . S
Zn1665 O1686 1.981 . S
Zn1665 O1694 1.945 . S
C1666 O1667 1.246 . S
C1666 O1683 1.276 . S
O1667 C1666 1.246 . S
O1668 Zn1648 1.985 . S
O1668 C1678 1.245 . S
O1669 Zn1649 1.970 . S
O1669 C1678 1.263 . S
O1670 Zn1655 1.985 . S
O1670 C1682 1.245 . S
O1671 Zn1654 1.970 . S
O1671 C1682 1.263 . S
O1672 Zn1658 1.985 . S
O1672 C1687 1.245 . S
O1673 Zn1660 1.970 . S
O1673 C1687 1.263 . S
C1674 O1685 1.262 1_455 S
C1674 O1686 1.245 . S
O1675 Zn1662 1.985 . S
O1675 C1693 1.245 . S
O1676 Zn1665 1.970 . S
O1676 C1693 1.263 . S
O1677 Zn1655 1.955 . S
O1677 C1696 1.276 . S
C1678 O1668 1.245 . S
C1678 O1669 1.263 . S
O1679 Zn1648 1.955 . S
O1679 C1698 1.276 1_655 S
C1680 O1688 1.262 . S
C1680 O1689 1.245 . S
O1681 C1652 1.276 . S
O1681 Zn1658 1.955 . S
C1682 O1670 1.245 . S
C1682 O1671 1.263 . S
O1683 Zn1662 1.955 . S
O1683 C1666 1.276 . S
C1684 O1691 1.262 . S
C1684 O1692 1.245 . S
O1685 Zn1649 1.945 . S
O1685 C1674 1.262 1_655 S
O1686 Zn1665 1.981 . S
O1686 C1674 1.245 . S
C1687 O1672 1.245 . S
C1687 O1673 1.263 . S
O1688 Zn1654 1.945 . S
O1688 C1680 1.262 . S
O1689 Zn1660 1.981 1_455 S
O1689 C1680 1.245 . S
C1690 O1694 1.262 . S
C1690 O1695 1.245 . S
O1691 Zn1660 1.945 . S
O1691 C1684 1.262 . S
O1692 Zn1649 1.981 . S
O1692 C1684 1.245 . S
C1693 O1675 1.245 . S
C1693 O1676 1.263 . S
O1694 Zn1665 1.945 . S
O1694 C1690 1.262 . S
O1695 Zn1654 1.981 . S
O1695 C1690 1.245 . S
C1696 O1677 1.276 . S
C1696 O1697 1.246 . S
O1697 C1696 1.246 . S
C1698 O1679 1.276 1_455 S
C1698 O1699 1.246 . S
O1699 C1698 1.246 . S
Zn1700 O1702 1.933 1_565 S
Zn1700 O1720 1.985 . S
Zn1700 O1731 1.955 . S
Zn1701 O1702 1.911 . S
Zn1701 O1721 1.970 . S
Zn1701 O1737 1.945 . S
Zn1701 O1744 1.981 . S
O1702 Zn1700 1.933 1_545 S
O1702 Zn1701 1.911 . S
O1702 H1703 0.841 . S
H1703 O1702 0.841 . S
C1704 O1705 1.246 . S
C1704 O1733 1.276 . S
O1705 C1704 1.246 . S
Zn1706 O1708 1.911 . S
Zn1706 O1723 1.970 . S
Zn1706 O1740 1.945 . S
Zn1706 O1747 1.981 . S
Zn1707 O1708 1.933 1_565 S
Zn1707 O1722 1.979 1_565 S
Zn1707 O1729 1.955 . S
O1708 Zn1706 1.911 . S
O1708 Zn1707 1.933 1_545 S
O1708 H1709 0.841 . S
H1709 O1708 0.841 . S
Zn1710 O1711 1.933 1_565 S
Zn1710 O1724 1.985 . S
Zn1710 O1733 1.955 . S
O1711 Zn1710 1.933 1_545 S
O1711 Zn1712 1.911 . S
O1711 H1713 0.841 . S
Zn1712 O1711 1.911 . S
Zn1712 O1725 1.970 . S
Zn1712 O1741 1.981 . S
Zn1712 O1743 1.945 . S
H1713 O1711 0.841 . S
Zn1714 O1715 1.933 1_565 S
Zn1714 O1727 1.979 1_565 S
Zn1714 O1735 1.955 . S
O1715 Zn1714 1.933 1_545 S
O1715 H1716 0.841 . S
O1715 Zn1717 1.911 . S
H1716 O1715 0.841 . S
Zn1717 O1715 1.911 . S
Zn1717 O1728 1.970 . S
Zn1717 O1738 1.981 . S
Zn1717 O1746 1.945 . S
C1718 O1719 1.246 . S
C1718 O1735 1.276 . S
O1719 C1718 1.246 . S
O1720 Zn1700 1.985 . S
O1720 C1730 1.245 1_565 S
O1721 Zn1701 1.970 . S
O1721 C1730 1.263 . S
O1722 Zn1707 1.979 1_545 S
O1722 C1734 1.268 . S
O1723 Zn1706 1.970 . S
O1723 C1734 1.263 . S
O1724 Zn1710 1.985 . S
O1724 C1739 1.245 1_565 S
O1725 Zn1712 1.970 . S
O1725 C1739 1.263 . S
C1726 O1737 1.262 . S
C1726 O1738 1.245 . S
O1727 Zn1714 1.979 1_545 S
O1727 C1745 1.270 . S
O1728 Zn1717 1.970 . S
O1728 C1745 1.263 . S
O1729 Zn1707 1.955 . S
O1729 C1748 1.276 . S
C1730 O1720 1.245 1_545 S
C1730 O1721 1.263 . S
O1731 Zn1700 1.955 . S
O1731 C1750 1.276 . S
C1732 O1740 1.262 . S
C1732 O1741 1.245 . S
O1733 C1704 1.276 . S
O1733 Zn1710 1.955 . S
C1734 O1722 1.268 . S
C1734 O1723 1.263 . S
O1735 Zn1714 1.955 . S
O1735 C1718 1.276 . S
C1736 O1743 1.262 . S
C1736 O1744 1.245 . S
O1737 Zn1701 1.945 . S
O1737 C1726 1.262 . S
O1738 Zn1717 1.981 . S
O1738 C1726 1.245 . S
C1739 O1724 1.245 1_545 S
C1739 O1725 1.263 . S
O1740 Zn1706 1.945 . S
O1740 C1732 1.262 . S
O1741 Zn1712 1.981 . S
O1741 C1732 1.245 . S
C1742 O1746 1.262 . S
C1742 O1747 1.245 . S
O1743 Zn1712 1.945 . S
O1743 C1736 1.262 . S
O1744 Zn1701 1.981 . S
O1744 C1736 1.245 . S
C1745 O1727 1.270 . S
C1745 O1728 1.263 . S
O1746 Zn1717 1.945 . S
O1746 C1742 1.262 . S
O1747 Zn1706 1.981 . S
O1747 C1742 1.245 . S
C1748 O1729 1.276 . S
C1748 O1749 1.246 . S
O1749 C1748 1.246 . S
C1750 O1731 1.276 . S
C1750 O1751 1.246 . S
O1751 C1750 1.246 . S
C1752 C1753 1.363 . S
C1752 C1758 1.379 . S
C1752 N1760 1.356 . S
C1753 C1752 1.363 . S
C1753 C1759 1.363 . S
C1754 C1755 1.363 . S
C1754 C1759 1.379 . S
C1754 N1761 1.356 . S
C1755 C1754 1.363 . S
C1755 C1758 1.363 . S
N1756 C1758 1.356 . S
N1756 H1768 0.984 . S
N1756 H1769 0.985 . S
N1757 C1759 1.356 . S
N1757 H1762 0.984 . S
N1757 H1763 0.985 . S
C1758 C1752 1.379 . S
C1758 C1755 1.363 . S
C1758 N1756 1.356 . S
C1759 C1753 1.363 . S
C1759 C1754 1.379 . S
C1759 N1757 1.356 . S
N1760 C1752 1.356 . S
N1760 H1766 0.984 . S
N1760 H1767 0.984 . S
N1761 C1754 1.356 . S
N1761 H1764 0.984 . S
N1761 H1765 0.985 . S
H1762 N1757 0.984 . S
H1763 N1757 0.985 . S
H1764 N1761 0.984 . S
H1765 N1761 0.985 . S
H1766 N1760 0.984 . S
H1767 N1760 0.984 . S
H1768 N1756 0.984 . S
H1769 N1756 0.985 . S
C1770 C1771 1.363 . S
C1770 C1776 1.379 . S
C1770 N1778 1.356 . S
C1771 C1770 1.363 . S
C1771 C1777 1.363 . S
C1772 C1773 1.363 . S
C1772 C1777 1.379 . S
C1772 N1779 1.356 . S
C1773 C1772 1.363 . S
C1773 C1776 1.363 . S
N1774 C1776 1.356 . S
N1774 H1786 0.984 . S
N1774 H1787 0.985 . S
N1775 C1777 1.356 . S
N1775 H1780 0.984 . S
N1775 H1781 0.985 . S
C1776 C1770 1.379 . S
C1776 C1773 1.363 . S
C1776 N1774 1.356 . S
C1777 C1771 1.363 . S
C1777 C1772 1.379 . S
C1777 N1775 1.356 . S
N1778 C1770 1.356 . S
N1778 H1784 0.984 . S
N1778 H1785 0.984 . S
N1779 C1772 1.356 . S
N1779 H1782 0.984 . S
N1779 H1783 0.985 . S
H1780 N1775 0.984 . S
H1781 N1775 0.985 . S
H1782 N1779 0.984 . S
H1783 N1779 0.985 . S
H1784 N1778 0.984 . S
H1785 N1778 0.984 . S
H1786 N1774 0.984 . S
H1787 N1774 0.985 . S
C1788 C1789 1.363 . S
C1788 C1794 1.379 . S
C1788 N1796 1.356 . S
C1789 C1788 1.363 . S
C1789 C1795 1.363 . S
C1790 C1791 1.363 . S
C1790 C1795 1.379 . S
C1790 N1797 1.356 . S
C1791 C1790 1.363 . S
C1791 C1794 1.363 . S
N1792 C1794 1.356 . S
N1792 H1804 0.984 . S
N1792 H1805 0.985 . S
N1793 C1795 1.356 . S
N1793 H1798 0.984 . S
N1793 H1799 0.985 . S
C1794 C1788 1.379 . S
C1794 C1791 1.363 . S
C1794 N1792 1.356 . S
C1795 C1789 1.363 . S
C1795 C1790 1.379 . S
C1795 N1793 1.356 . S
N1796 C1788 1.356 . S
N1796 H1802 0.984 . S
N1796 H1803 0.984 . S
N1797 C1790 1.356 . S
N1797 H1800 0.984 . S
N1797 H1801 0.985 . S
H1798 N1793 0.984 . S
H1799 N1793 0.985 . S
H1800 N1797 0.984 . S
H1801 N1797 0.985 . S
H1802 N1796 0.984 . S
H1803 N1796 0.984 . S
H1804 N1792 0.984 . S
H1805 N1792 0.985 . S
C1806 C1807 1.363 . S
C1806 C1812 1.379 . S
C1806 N1814 1.356 . S
C1807 C1806 1.363 . S
C1807 C1813 1.363 . S
C1808 C1809 1.363 . S
C1808 C1813 1.379 . S
C1808 N1815 1.356 . S
C1809 C1808 1.363 . S
C1809 C1812 1.363 . S
N1810 C1812 1.356 . S
N1810 H1822 0.984 . S
N1810 H1823 0.985 . S
N1811 C1813 1.356 . S
N1811 H1816 0.984 . S
N1811 H1817 0.985 . S
C1812 C1806 1.379 . S
C1812 C1809 1.363 . S
C1812 N1810 1.356 . S
C1813 C1807 1.363 . S
C1813 C1808 1.379 . S
C1813 N1811 1.356 . S
N1814 C1806 1.356 . S
N1814 H1820 0.984 . S
N1814 H1821 0.984 . S
N1815 C1808 1.356 . S
N1815 H1818 0.984 . S
N1815 H1819 0.985 . S
H1816 N1811 0.984 . S
H1817 N1811 0.985 . S
H1818 N1815 0.984 . S
H1819 N1815 0.985 . S
H1820 N1814 0.984 . S
H1821 N1814 0.984 . S
H1822 N1810 0.984 . S
H1823 N1810 0.985 . S
C1824 C1825 1.363 . S
C1824 C1830 1.379 . S
C1824 N1832 1.356 . S
C1825 C1824 1.363 . S
C1825 C1831 1.363 . S
C1826 C1827 1.363 . S
C1826 C1831 1.379 . S
C1826 N1833 1.356 . S
C1827 C1826 1.363 . S
C1827 C1830 1.363 . S
N1828 C1830 1.356 . S
N1828 H1840 0.984 . S
N1828 H1841 0.985 . S
N1829 C1831 1.356 . S
N1829 H1834 0.984 . S
N1829 H1835 0.985 . S
C1830 C1824 1.379 . S
C1830 C1827 1.363 . S
C1830 N1828 1.356 . S
C1831 C1825 1.363 . S
C1831 C1826 1.379 . S
C1831 N1829 1.356 . S
N1832 C1824 1.356 . S
N1832 H1838 0.984 . S
N1832 H1839 0.984 . S
N1833 C1826 1.356 . S
N1833 H1836 0.984 . S
N1833 H1837 0.985 . S
H1834 N1829 0.984 . S
H1835 N1829 0.985 . S
H1836 N1833 0.984 . S
H1837 N1833 0.985 . S
H1838 N1832 0.984 . S
H1839 N1832 0.984 . S
H1840 N1828 0.984 . S
H1841 N1828 0.985 . S
C1842 C1843 1.363 . S
C1842 C1848 1.379 . S
C1842 N1850 1.356 . S
C1843 C1842 1.363 . S
C1843 C1849 1.363 . S
C1844 C1845 1.363 . S
C1844 C1849 1.379 . S
C1844 N1851 1.356 . S
C1845 C1844 1.363 . S
C1845 C1848 1.363 . S
N1846 C1848 1.356 . S
N1846 H1858 0.984 . S
N1846 H1859 0.985 . S
N1847 C1849 1.356 . S
N1847 H1852 0.984 . S
N1847 H1853 0.985 . S
C1848 C1842 1.379 . S
C1848 C1845 1.363 . S
C1848 N1846 1.356 . S
C1849 C1843 1.363 . S
C1849 C1844 1.379 . S
C1849 N1847 1.356 . S
N1850 C1842 1.356 . S
N1850 H1856 0.984 . S
N1850 H1857 0.984 . S
N1851 C1844 1.356 . S
N1851 H1854 0.984 . S
N1851 H1855 0.985 . S
H1852 N1847 0.984 . S
H1853 N1847 0.985 . S
H1854 N1851 0.984 . S
H1855 N1851 0.985 . S
H1856 N1850 0.984 . S
H1857 N1850 0.984 . S
H1858 N1846 0.984 . S
H1859 N1846 0.985 . S
C1860 C1861 1.363 . S
C1860 C1866 1.379 . S
C1860 N1868 1.356 . S
C1861 C1860 1.363 . S
C1861 C1867 1.363 . S
C1862 C1863 1.363 . S
C1862 C1867 1.379 . S
C1862 N1869 1.356 . S
C1863 C1862 1.363 . S
C1863 C1866 1.363 . S
N1864 C1866 1.356 . S
N1864 H1876 0.984 . S
N1864 H1877 0.985 . S
N1865 C1867 1.356 . S
N1865 H1870 0.984 . S
N1865 H1871 0.985 . S
C1866 C1860 1.379 . S
C1866 C1863 1.363 . S
C1866 N1864 1.356 . S
C1867 C1861 1.363 . S
C1867 C1862 1.379 . S
C1867 N1865 1.356 . S
N1868 C1860 1.356 . S
N1868 H1874 0.984 . S
N1868 H1875 0.984 . S
N1869 C1862 1.356 . S
N1869 H1872 0.984 . S
N1869 H1873 0.985 . S
H1870 N1865 0.984 . S
H1871 N1865 0.985 . S
H1872 N1869 0.984 . S
H1873 N1869 0.985 . S
H1874 N1868 0.984 . S
H1875 N1868 0.984 . S
H1876 N1864 0.984 . S
H1877 N1864 0.985 . S
C1878 C1879 1.363 . S
C1878 C1884 1.379 . S
C1878 N1886 1.356 . S
C1879 C1878 1.363 . S
C1879 C1885 1.363 . S
C1880 C1881 1.363 . S
C1880 C1885 1.379 . S
C1880 N1887 1.356 . S
C1881 C1880 1.363 . S
C1881 C1884 1.363 . S
N1882 C1884 1.356 . S
N1882 H1894 0.984 . S
N1882 H1895 0.985 . S
N1883 C1885 1.356 . S
N1883 H1888 0.984 . S
N1883 H1889 0.985 . S
C1884 C1878 1.379 . S
C1884 C1881 1.363 . S
C1884 N1882 1.356 . S
C1885 C1879 1.363 . S
C1885 C1880 1.379 . S
C1885 N1883 1.356 . S
N1886 C1878 1.356 . S
N1886 H1892 0.984 . S
N1886 H1893 0.984 . S
N1887 C1880 1.356 . S
N1887 H1890 0.984 . S
N1887 H1891 0.985 . S
H1888 N1883 0.984 . S
H1889 N1883 0.985 . S
H1890 N1887 0.984 . S
H1891 N1887 0.985 . S
H1892 N1886 0.984 . S
H1893 N1886 0.984 . S
H1894 N1882 0.984 . S
H1895 N1882 0.985 . S
C1896 C1897 1.363 . S
C1896 C1902 1.379 . S
C1896 N1904 1.356 . S
C1897 C1896 1.363 . S
C1897 C1903 1.363 . S
C1898 C1899 1.363 . S
C1898 C1903 1.379 . S
C1898 N1905 1.356 . S
C1899 C1898 1.363 . S
C1899 C1902 1.363 . S
N1900 C1902 1.356 . S
N1900 H1912 0.984 . S
N1900 H1913 0.985 . S
N1901 C1903 1.356 . S
N1901 H1906 0.984 . S
N1901 H1907 0.985 . S
C1902 C1896 1.379 . S
C1902 C1899 1.363 . S
C1902 N1900 1.356 . S
C1903 C1897 1.363 . S
C1903 C1898 1.379 . S
C1903 N1901 1.356 . S
N1904 C1896 1.356 . S
N1904 H1910 0.984 . S
N1904 H1911 0.984 . S
N1905 C1898 1.356 . S
N1905 H1908 0.984 . S
N1905 H1909 0.985 . S
H1906 N1901 0.984 . S
H1907 N1901 0.985 . S
H1908 N1905 0.984 . S
H1909 N1905 0.985 . S
H1910 N1904 0.984 . S
H1911 N1904 0.984 . S
H1912 N1900 0.984 . S
H1913 N1900 0.985 . S
C1914 C1915 1.363 . S
C1914 C1920 1.379 . S
C1914 N1922 1.356 . S
C1915 C1914 1.363 . S
C1915 C1921 1.363 . S
C1916 C1917 1.363 . S
C1916 C1921 1.379 . S
C1916 N1923 1.356 . S
C1917 C1916 1.363 . S
C1917 C1920 1.363 . S
N1918 C1920 1.356 . S
N1918 H1930 0.984 . S
N1918 H1931 0.985 . S
N1919 C1921 1.356 . S
N1919 H1924 0.984 . S
N1919 H1925 0.985 . S
C1920 C1914 1.379 . S
C1920 C1917 1.363 . S
C1920 N1918 1.356 . S
C1921 C1915 1.363 . S
C1921 C1916 1.379 . S
C1921 N1919 1.356 . S
N1922 C1914 1.356 . S
N1922 H1928 0.984 . S
N1922 H1929 0.984 . S
N1923 C1916 1.356 . S
N1923 H1926 0.984 . S
N1923 H1927 0.985 . S
H1924 N1919 0.984 . S
H1925 N1919 0.985 . S
H1926 N1923 0.984 . S
H1927 N1923 0.985 . S
H1928 N1922 0.984 . S
H1929 N1922 0.984 . S
H1930 N1918 0.984 . S
H1931 N1918 0.985 . S
C1932 C1933 1.363 . S
C1932 C1938 1.379 . S
C1932 N1940 1.356 . S
C1933 C1932 1.363 . S
C1933 C1939 1.363 . S
C1934 C1935 1.363 . S
C1934 C1939 1.379 . S
C1934 N1941 1.356 . S
C1935 C1934 1.363 . S
C1935 C1938 1.363 . S
N1936 C1938 1.356 . S
N1936 H1948 0.984 . S
N1936 H1949 0.985 . S
N1937 C1939 1.356 . S
N1937 H1942 0.984 . S
N1937 H1943 0.985 . S
C1938 C1932 1.379 . S
C1938 C1935 1.363 . S
C1938 N1936 1.356 . S
C1939 C1933 1.363 . S
C1939 C1934 1.379 . S
C1939 N1937 1.356 . S
N1940 C1932 1.356 . S
N1940 H1946 0.984 . S
N1940 H1947 0.984 . S
N1941 C1934 1.356 . S
N1941 H1944 0.984 . S
N1941 H1945 0.985 . S
H1942 N1937 0.984 . S
H1943 N1937 0.985 . S
H1944 N1941 0.984 . S
H1945 N1941 0.985 . S
H1946 N1940 0.984 . S
H1947 N1940 0.984 . S
H1948 N1936 0.984 . S
H1949 N1936 0.985 . S
C1950 C1951 1.363 . S
C1950 C1956 1.379 . S
C1950 N1958 1.356 . S
C1951 C1950 1.363 . S
C1951 C1957 1.363 . S
C1952 C1953 1.363 . S
C1952 C1957 1.379 . S
C1952 N1959 1.356 . S
C1953 C1952 1.363 . S
C1953 C1956 1.363 . S
N1954 C1956 1.356 . S
N1954 H1966 0.984 . S
N1954 H1967 0.985 . S
N1955 C1957 1.356 . S
N1955 H1960 0.984 . S
N1955 H1961 0.985 . S
C1956 C1950 1.379 . S
C1956 C1953 1.363 . S
C1956 N1954 1.356 . S
C1957 C1951 1.363 . S
C1957 C1952 1.379 . S
C1957 N1955 1.356 . S
N1958 C1950 1.356 . S
N1958 H1964 0.984 . S
N1958 H1965 0.984 . S
N1959 C1952 1.356 . S
N1959 H1962 0.984 . S
N1959 H1963 0.985 . S
H1960 N1955 0.984 . S
H1961 N1955 0.985 . S
H1962 N1959 0.984 . S
H1963 N1959 0.985 . S
H1964 N1958 0.984 . S
H1965 N1958 0.984 . S
H1966 N1954 0.984 . S
H1967 N1954 0.985 . S
C1968 C1969 1.363 . S
C1968 C1974 1.379 . S
C1968 N1976 1.356 . S
C1969 C1968 1.363 . S
C1969 C1975 1.363 1_554 S
C1970 C1971 1.363 1_556 S
C1970 C1975 1.379 . S
C1970 N1977 1.356 . S
C1971 C1970 1.363 1_554 S
C1971 C1974 1.363 . S
N1972 C1974 1.356 . S
N1972 H1984 0.984 . S
N1972 H1985 0.985 . S
N1973 C1975 1.356 . S
N1973 H1978 0.984 . S
N1973 H1979 0.985 . S
C1974 C1968 1.379 . S
C1974 C1971 1.363 . S
C1974 N1972 1.356 . S
C1975 C1969 1.363 1_556 S
C1975 C1970 1.379 . S
C1975 N1973 1.356 . S
N1976 C1968 1.356 . S
N1976 H1982 0.984 . S
N1976 H1983 0.984 . S
N1977 C1970 1.356 . S
N1977 H1980 0.984 . S
N1977 H1981 0.985 . S
H1978 N1973 0.984 . S
H1979 N1973 0.985 . S
H1980 N1977 0.984 . S
H1981 N1977 0.985 . S
H1982 N1976 0.984 . S
H1983 N1976 0.984 . S
H1984 N1972 0.984 . S
H1985 N1972 0.985 . S
C1986 C1987 1.363 1_556 S
C1986 C1992 1.379 . S
C1986 N1994 1.356 . S
C1987 C1986 1.363 1_554 S
C1987 C1993 1.363 . S
C1988 C1989 1.363 . S
C1988 C1993 1.379 . S
C1988 N1995 1.356 . S
C1989 C1988 1.363 . S
C1989 C1992 1.363 1_554 S
N1990 C1992 1.356 . S
N1990 H2002 0.984 . S
N1990 H2003 0.985 . S
N1991 C1993 1.356 . S
N1991 H1996 0.984 . S
N1991 H1997 0.985 . S
C1992 C1986 1.379 . S
C1992 C1989 1.363 1_556 S
C1992 N1990 1.356 . S
C1993 C1987 1.363 . S
C1993 C1988 1.379 . S
C1993 N1991 1.356 . S
N1994 C1986 1.356 . S
N1994 H2000 0.984 . S
N1994 H2001 0.984 . S
N1995 C1988 1.356 . S
N1995 H1998 0.984 . S
N1995 H1999 0.985 . S
H1996 N1991 0.984 . S
H1997 N1991 0.985 . S
H1998 N1995 0.984 . S
H1999 N1995 0.985 . S
H2000 N1994 0.984 . S
H2001 N1994 0.984 . S
H2002 N1990 0.984 . S
H2003 N1990 0.985 . S
C2004 C2005 1.363 1_556 S
C2004 C2010 1.379 . S
C2004 N2012 1.356 . S
C2005 C2004 1.363 1_554 S
C2005 C2011 1.363 . S
C2006 C2007 1.363 . S
C2006 C2011 1.379 . S
C2006 N2013 1.356 . S
C2007 C2006 1.363 . S
C2007 C2010 1.363 1_554 S
N2008 C2010 1.356 . S
N2008 H2020 0.984 . S
N2008 H2021 0.985 . S
N2009 C2011 1.356 . S
N2009 H2014 0.984 . S
N2009 H2015 0.985 . S
C2010 C2004 1.379 . S
C2010 C2007 1.363 1_556 S
C2010 N2008 1.356 . S
C2011 C2005 1.363 . S
C2011 C2006 1.379 . S
C2011 N2009 1.356 . S
N2012 C2004 1.356 . S
N2012 H2018 0.984 . S
N2012 H2019 0.984 . S
N2013 C2006 1.356 . S
N2013 H2016 0.984 . S
N2013 H2017 0.985 . S
H2014 N2009 0.984 . S
H2015 N2009 0.985 . S
H2016 N2013 0.984 . S
H2017 N2013 0.985 . S
H2018 N2012 0.984 . S
H2019 N2012 0.984 . S
H2020 N2008 0.984 . S
H2021 N2008 0.985 . S
C2022 C2023 1.363 . S
C2022 C2028 1.379 . S
C2022 N2030 1.356 . S
C2023 C2022 1.363 . S
C2023 C2029 1.363 1_554 S
C2024 C2025 1.363 1_556 S
C2024 C2029 1.379 . S
C2024 N2031 1.356 . S
C2025 C2024 1.363 1_554 S
C2025 C2028 1.363 . S
N2026 C2028 1.356 . S
N2026 H2038 0.984 . S
N2026 H2039 0.985 . S
N2027 C2029 1.356 . S
N2027 H2032 0.984 . S
N2027 H2033 0.985 . S
C2028 C2022 1.379 . S
C2028 C2025 1.363 . S
C2028 N2026 1.356 . S
C2029 C2023 1.363 1_556 S
C2029 C2024 1.379 . S
C2029 N2027 1.356 . S
N2030 C2022 1.356 . S
N2030 H2036 0.984 . S
N2030 H2037 0.984 . S
N2031 C2024 1.356 . S
N2031 H2034 0.984 . S
N2031 H2035 0.985 . S
H2032 N2027 0.984 . S
H2033 N2027 0.985 . S
H2034 N2031 0.984 . S
H2035 N2031 0.985 . S
H2036 N2030 0.984 . S
H2037 N2030 0.984 . S
H2038 N2026 0.984 . S
H2039 N2026 0.985 . S
C2040 C2041 1.363 1_655 S
C2040 C2046 1.379 . S
C2040 N2048 1.356 . S
C2041 C2040 1.363 1_455 S
C2041 C2047 1.363 . S
C2042 C2043 1.363 . S
C2042 C2047 1.379 . S
C2042 N2049 1.356 . S
C2043 C2042 1.363 . S
C2043 C2046 1.363 1_455 S
N2044 C2046 1.356 . S
N2044 H2056 0.984 . S
N2044 H2057 0.985 . S
N2045 C2047 1.356 . S
N2045 H2050 0.984 . S
N2045 H2051 0.985 . S
C2046 C2040 1.379 . S
C2046 C2043 1.363 1_655 S
C2046 N2044 1.356 . S
C2047 C2041 1.363 . S
C2047 C2042 1.379 . S
C2047 N2045 1.356 . S
N2048 C2040 1.356 . S
N2048 H2054 0.984 . S
N2048 H2055 0.984 . S
N2049 C2042 1.356 . S
N2049 H2052 0.984 . S
N2049 H2053 0.985 . S
H2050 N2045 0.984 . S
H2051 N2045 0.985 . S
H2052 N2049 0.984 . S
H2053 N2049 0.985 . S
H2054 N2048 0.984 . S
H2055 N2048 0.984 . S
H2056 N2044 0.984 . S
H2057 N2044 0.985 . S
C2058 C2059 1.363 . S
C2058 C2064 1.379 . S
C2058 N2066 1.356 . S
C2059 C2058 1.363 . S
C2059 C2065 1.363 1_545 S
C2060 C2061 1.363 1_565 S
C2060 C2065 1.379 . S
C2060 N2067 1.356 . S
C2061 C2060 1.363 1_545 S
C2061 C2064 1.363 . S
N2062 C2064 1.356 . S
N2062 H2074 0.984 . S
N2062 H2075 0.985 . S
N2063 C2065 1.356 . S
N2063 H2068 0.984 . S
N2063 H2069 0.985 . S
C2064 C2058 1.379 . S
C2064 C2061 1.363 . S
C2064 N2062 1.356 . S
C2065 C2059 1.363 1_565 S
C2065 C2060 1.379 . S
C2065 N2063 1.356 . S
N2066 C2058 1.356 . S
N2066 H2072 0.984 . S
N2066 H2073 0.984 . S
N2067 C2060 1.356 . S
N2067 H2070 0.984 . S
N2067 H2071 0.985 . S
H2068 N2063 0.984 . S
H2069 N2063 0.985 . S
H2070 N2067 0.984 . S
H2071 N2067 0.985 . S
H2072 N2066 0.984 . S
H2073 N2066 0.984 . S
H2074 N2062 0.984 . S
H2075 N2062 0.985 . S
C2076 C2077 1.363 . S
C2076 C2082 1.379 . S
C2076 N2084 1.356 . S
C2077 C2076 1.363 . S
C2077 C2083 1.342 1_455 S
C2078 C2079 1.363 1_655 S
C2078 C2083 1.382 . S
C2078 N2085 1.356 . S
C2079 C2078 1.363 1_455 S
C2079 C2082 1.363 . S
N2080 C2082 1.356 . S
N2080 H2092 0.984 . S
N2080 H2093 0.985 . S
N2081 C2083 1.370 . S
N2081 H2086 0.984 . S
N2081 H2087 0.985 . S
C2082 C2076 1.379 . S
C2082 C2079 1.363 . S
C2082 N2080 1.356 . S
C2083 C2077 1.342 1_655 S
C2083 C2078 1.382 . S
C2083 N2081 1.370 . S
N2084 C2076 1.356 . S
N2084 H2090 0.984 . S
N2084 H2091 0.984 . S
N2085 C2078 1.356 . S
N2085 H2088 0.984 . S
N2085 H2089 0.985 . S
H2086 N2081 0.984 . S
H2087 N2081 0.985 . S
H2088 N2085 0.984 . S
H2089 N2085 0.985 . S
H2090 N2084 0.984 . S
H2091 N2084 0.984 . S
H2092 N2080 0.984 . S
H2093 N2080 0.985 . S
C2094 C2095 1.363 . S
C2094 C2100 1.379 . S
C2094 N2102 1.356 . S
C2095 C2094 1.363 . S
C2095 C2101 1.363 . S
C2096 C2097 1.363 . S
C2096 C2101 1.379 . S
C2096 N2103 1.356 1_545 S
C2097 C2096 1.363 . S
C2097 C2100 1.363 . S
N2098 C2100 1.356 . S
N2098 H2110 0.984 . S
N2098 H2111 0.985 . S
N2099 C2101 1.356 . S
N2099 H2104 0.984 . S
N2099 H2105 0.985 1_545 S
C2100 C2094 1.379 . S
C2100 C2097 1.363 . S
C2100 N2098 1.356 . S
C2101 C2095 1.363 . S
C2101 C2096 1.379 . S
C2101 N2099 1.356 . S
N2102 C2094 1.356 . S
N2102 H2108 0.984 . S
N2102 H2109 0.984 . S
N2103 C2096 1.356 1_565 S
N2103 H2106 0.984 . S
N2103 H2107 0.985 . S
H2104 N2099 0.984 . S
H2105 N2099 0.985 1_565 S
H2106 N2103 0.984 . S
H2107 N2103 0.985 . S
H2108 N2102 0.984 . S
H2109 N2102 0.984 . S
H2110 N2098 0.984 . S
H2111 N2098 0.985 . S
C2112 C2113 1.363 . S
C2112 C2118 1.379 . S
C2112 N2120 1.356 . S
C2113 C2112 1.363 . S
C2113 C2119 1.363 . S
C2114 C2115 1.363 . S
C2114 C2119 1.379 . S
C2114 N2121 1.356 . S
C2115 C2114 1.363 . S
C2115 C2118 1.363 . S
N2116 C2118 1.356 . S
N2116 H2128 0.984 . S
N2116 H2129 0.985 . S
N2117 C2119 1.356 . S
N2117 H2122 0.984 . S
N2117 H2123 0.985 . S
C2118 C2112 1.379 . S
C2118 C2115 1.363 . S
C2118 N2116 1.356 . S
C2119 C2113 1.363 . S
C2119 C2114 1.379 . S
C2119 N2117 1.356 . S
N2120 C2112 1.356 . S
N2120 H2126 0.984 . S
N2120 H2127 0.984 . S
N2121 C2114 1.356 . S
N2121 H2124 0.984 . S
N2121 H2125 0.985 . S
H2122 N2117 0.984 . S
H2123 N2117 0.985 . S
H2124 N2121 0.984 . S
H2125 N2121 0.985 . S
H2126 N2120 0.984 . S
H2127 N2120 0.984 . S
H2128 N2116 0.984 . S
H2129 N2116 0.985 . S
C2130 C2131 1.363 . S
C2130 C2136 1.379 . S
C2130 N2138 1.356 . S
C2131 C2130 1.363 . S
C2131 C2137 1.363 . S
C2132 C2133 1.363 . S
C2132 C2137 1.379 . S
C2132 N2139 1.356 . S
C2133 C2132 1.363 . S
C2133 C2136 1.363 . S
N2134 C2136 1.356 1_565 S
N2134 H2146 0.984 . S
N2134 H2147 0.985 . S
N2135 C2137 1.356 . S
N2135 H2140 0.984 . S
N2135 H2141 0.985 . S
C2136 C2130 1.379 . S
C2136 C2133 1.363 . S
C2136 N2134 1.356 1_545 S
C2137 C2131 1.363 . S
C2137 C2132 1.379 . S
C2137 N2135 1.356 . S
N2138 C2130 1.356 . S
N2138 H2144 0.984 1_545 S
N2138 H2145 0.984 . S
N2139 C2132 1.356 . S
N2139 H2142 0.984 . S
N2139 H2143 0.985 . S
H2140 N2135 0.984 . S
H2141 N2135 0.985 . S
H2142 N2139 0.984 . S
H2143 N2139 0.985 . S
H2144 N2138 0.984 1_565 S
H2145 N2138 0.984 . S
H2146 N2134 0.984 . S
H2147 N2134 0.985 . S
C2148 C2149 1.363 . S
C2148 C2154 1.379 . S
C2148 N2156 1.356 1_455 S
C2149 C2148 1.363 . S
C2149 C2155 1.363 . S
C2150 C2151 1.363 . S
C2150 C2155 1.379 . S
C2150 N2157 1.356 . S
C2151 C2150 1.363 . S
C2151 C2154 1.363 . S
N2152 C2154 1.356 1_655 S
N2152 H2164 0.984 . S
N2152 H2165 0.985 . S
N2153 C2155 1.356 . S
N2153 H2158 0.984 . S
N2153 H2159 0.985 . S
C2154 C2148 1.379 . S
C2154 C2151 1.363 . S
C2154 N2152 1.356 1_455 S
C2155 C2149 1.363 . S
C2155 C2150 1.379 . S
C2155 N2153 1.356 . S
N2156 C2148 1.356 1_655 S
N2156 H2162 0.984 . S
N2156 H2163 0.984 . S
N2157 C2150 1.356 . S
N2157 H2160 0.984 . S
N2157 H2161 0.985 . S
H2158 N2153 0.984 . S
H2159 N2153 0.985 . S
H2160 N2157 0.984 . S
H2161 N2157 0.985 . S
H2162 N2156 0.984 . S
H2163 N2156 0.984 . S
H2164 N2152 0.984 . S
H2165 N2152 0.985 . S
C2166 C2167 1.363 . S
C2166 C2172 1.379 . S
C2166 N2174 1.356 . S
C2167 C2166 1.363 . S
C2167 C2173 1.363 1_545 S
C2168 C2169 1.363 1_565 S
C2168 C2173 1.379 . S
C2168 N2175 1.356 . S
C2169 C2168 1.363 1_545 S
C2169 C2172 1.363 . S
N2170 C2172 1.356 . S
N2170 H2182 0.984 . S
N2170 H2183 0.985 . S
N2171 C2173 1.356 . S
N2171 H2176 0.984 . S
N2171 H2177 0.985 . S
C2172 C2166 1.379 . S
C2172 C2169 1.363 . S
C2172 N2170 1.356 . S
C2173 C2167 1.363 1_565 S
C2173 C2168 1.379 . S
C2173 N2171 1.356 . S
N2174 C2166 1.356 . S
N2174 H2180 0.984 . S
N2174 H2181 0.984 . S
N2175 C2168 1.356 . S
N2175 H2178 0.984 . S
N2175 H2179 0.985 . S
H2176 N2171 0.984 . S
H2177 N2171 0.985 . S
H2178 N2175 0.984 . S
H2179 N2175 0.985 . S
H2180 N2174 0.984 . S
H2181 N2174 0.984 . S
H2182 N2170 0.984 . S
H2183 N2170 0.985 . S
C2184 C2185 1.363 . S
C2184 C2190 1.379 . S
C2184 N2192 1.356 . S
C2185 C2184 1.363 . S
C2185 C2191 1.363 . S
C2186 C2187 1.363 . S
C2186 C2191 1.379 . S
C2186 N2193 1.356 . S
C2187 C2186 1.363 . S
C2187 C2190 1.363 . S
N2188 C2190 1.356 . S
N2188 H2200 0.984 1_455 S
N2188 H2201 0.985 . S
N2189 C2191 1.356 . S
N2189 H2194 0.984 . S
N2189 H2195 0.985 . S
C2190 C2184 1.379 . S
C2190 C2187 1.363 . S
C2190 N2188 1.356 . S
C2191 C2185 1.363 . S
C2191 C2186 1.379 . S
C2191 N2189 1.356 . S
N2192 C2184 1.356 . S
N2192 H2198 0.984 1_455 S
N2192 H2199 0.984 . S
N2193 C2186 1.356 . S
N2193 H2196 0.984 . S
N2193 H2197 0.985 . S
H2194 N2189 0.984 . S
H2195 N2189 0.985 . S
H2196 N2193 0.984 . S
H2197 N2193 0.985 . S
H2198 N2192 0.984 1_655 S
H2199 N2192 0.984 . S
H2200 N2188 0.984 1_655 S
H2201 N2188 0.985 . S
C2202 C2203 1.363 . S
C2202 C2208 1.379 . S
C2202 N2210 1.356 . S
C2203 C2202 1.363 . S
C2203 C2209 1.363 . S
C2204 C2205 1.363 . S
C2204 C2209 1.379 . S
C2204 N2211 1.356 . S
C2205 C2204 1.363 . S
C2205 C2208 1.363 . S
N2206 C2208 1.356 . S
N2206 H2218 0.984 1_545 S
N2206 H2219 0.985 . S
N2207 C2209 1.356 . S
N2207 H2212 0.984 . S
N2207 H2213 0.985 . S
C2208 C2202 1.379 . S
C2208 C2205 1.363 . S
C2208 N2206 1.356 . S
C2209 C2203 1.363 . S
C2209 C2204 1.379 . S
C2209 N2207 1.356 . S
N2210 C2202 1.356 . S
N2210 H2216 0.984 . S
N2210 H2217 0.984 . S
N2211 C2204 1.356 . S
N2211 H2214 0.984 . S
N2211 H2215 0.985 . S
H2212 N2207 0.984 . S
H2213 N2207 0.985 . S
H2214 N2211 0.984 . S
H2215 N2211 0.985 . S
H2216 N2210 0.984 . S
H2217 N2210 0.984 . S
H2218 N2206 0.984 1_565 S
H2219 N2206 0.985 . S
C2220 C2221 1.363 . S
C2220 C2226 1.379 . S
C2220 N2228 1.356 . S
C2221 C2220 1.363 . S
C2221 C2227 1.363 . S
C2222 C2223 1.363 . S
C2222 C2227 1.379 . S
C2222 N2229 1.356 . S
C2223 C2222 1.363 . S
C2223 C2226 1.363 . S
N2224 C2226 1.356 . S
N2224 H2236 0.984 1_455 S
N2224 H2237 0.985 . S
N2225 C2227 1.356 . S
N2225 H2230 0.984 . S
N2225 H2231 0.985 . S
C2226 C2220 1.379 . S
C2226 C2223 1.363 . S
C2226 N2224 1.356 . S
C2227 C2221 1.363 . S
C2227 C2222 1.379 . S
C2227 N2225 1.356 . S
N2228 C2220 1.356 . S
N2228 H2234 0.984 1_455 S
N2228 H2235 0.984 . S
N2229 C2222 1.356 . S
N2229 H2232 0.984 . S
N2229 H2233 0.985 . S
H2230 N2225 0.984 . S
H2231 N2225 0.985 . S
H2232 N2229 0.984 . S
H2233 N2229 0.985 . S
H2234 N2228 0.984 1_655 S
H2235 N2228 0.984 . S
H2236 N2224 0.984 1_655 S
H2237 N2224 0.985 . S
C2238 C2239 1.363 . S
C2238 C2244 1.379 . S
C2238 N2246 1.356 . S
C2239 C2238 1.363 . S
C2239 C2245 1.363 1_545 S
C2240 C2241 1.363 1_565 S
C2240 C2245 1.379 . S
C2240 N2247 1.356 . S
C2241 C2240 1.363 1_545 S
C2241 C2244 1.363 . S
N2242 C2244 1.356 . S
N2242 H2254 0.984 . S
N2242 H2255 0.985 . S
N2243 C2245 1.356 . S
N2243 H2248 0.984 . S
N2243 H2249 0.985 . S
C2244 C2238 1.379 . S
C2244 C2241 1.363 . S
C2244 N2242 1.356 . S
C2245 C2239 1.363 1_565 S
C2245 C2240 1.379 . S
C2245 N2243 1.356 . S
N2246 C2238 1.356 . S
N2246 H2252 0.984 . S
N2246 H2253 0.984 . S
N2247 C2240 1.356 . S
N2247 H2250 0.984 . S
N2247 H2251 0.985 . S
H2248 N2243 0.984 . S
H2249 N2243 0.985 . S
H2250 N2247 0.984 . S
H2251 N2247 0.985 . S
H2252 N2246 0.984 . S
H2253 N2246 0.984 . S
H2254 N2242 0.984 . S
H2255 N2242 0.985 . S
C2256 C2257 1.363 . S
C2256 C2262 1.379 . S
C2256 N2264 1.356 . S
C2257 C2256 1.363 . S
C2257 C2263 1.363 1_455 S
C2258 C2259 1.363 1_655 S
C2258 C2263 1.379 . S
C2258 N2265 1.356 . S
C2259 C2258 1.363 1_455 S
C2259 C2262 1.363 . S
N2260 C2262 1.356 . S
N2260 H2272 0.984 . S
N2260 H2273 0.985 . S
N2261 C2263 1.356 . S
N2261 H2266 0.984 . S
N2261 H2267 0.985 . S
C2262 C2256 1.379 . S
C2262 C2259 1.363 . S
C2262 N2260 1.356 . S
C2263 C2257 1.363 1_655 S
C2263 C2258 1.379 . S
C2263 N2261 1.356 . S
N2264 C2256 1.356 . S
N2264 H2270 0.984 . S
N2264 H2271 0.984 . S
N2265 C2258 1.356 . S
N2265 H2268 0.984 . S
N2265 H2269 0.985 . S
H2266 N2261 0.984 . S
H2267 N2261 0.985 . S
H2268 N2265 0.984 . S
H2269 N2265 0.985 . S
H2270 N2264 0.984 . S
H2271 N2264 0.984 . S
H2272 N2260 0.984 . S
H2273 N2260 0.985 . S
C2274 C2275 1.363 . S
C2274 C2280 1.379 . S
C2274 N2282 1.356 . S
C2275 C2274 1.363 . S
C2275 C2281 1.363 1_545 S
C2276 C2277 1.363 1_565 S
C2276 C2281 1.379 . S
C2276 N2283 1.356 . S
C2277 C2276 1.363 1_545 S
C2277 C2280 1.363 . S
N2278 C2280 1.356 . S
N2278 H2290 0.984 . S
N2278 H2291 0.985 . S
N2279 C2281 1.356 . S
N2279 H2284 0.984 . S
N2279 H2285 0.985 . S
C2280 C2274 1.379 . S
C2280 C2277 1.363 . S
C2280 N2278 1.356 . S
C2281 C2275 1.363 1_565 S
C2281 C2276 1.379 . S
C2281 N2279 1.356 . S
N2282 C2274 1.356 . S
N2282 H2288 0.984 . S
N2282 H2289 0.984 . S
N2283 C2276 1.356 . S
N2283 H2286 0.984 . S
N2283 H2287 0.985 . S
H2284 N2279 0.984 . S
H2285 N2279 0.985 . S
H2286 N2283 0.984 . S
H2287 N2283 0.985 . S
H2288 N2282 0.984 . S
H2289 N2282 0.984 . S
H2290 N2278 0.984 . S
H2291 N2278 0.985 . S
C2292 C2293 1.363 1_655 S
C2292 C2298 1.379 . S
C2292 N2300 1.356 . S
C2293 C2292 1.363 1_455 S
C2293 C2299 1.363 . S
C2294 C2295 1.363 . S
C2294 C2299 1.379 . S
C2294 N2301 1.356 . S
C2295 C2294 1.363 . S
C2295 C2298 1.363 1_455 S
N2296 C2298 1.356 . S
N2296 H2308 0.984 . S
N2296 H2309 0.985 . S
N2297 C2299 1.356 . S
N2297 H2302 0.984 . S
N2297 H2303 0.985 . S
C2298 C2292 1.379 . S
C2298 C2295 1.363 1_655 S
C2298 N2296 1.356 . S
C2299 C2293 1.363 . S
C2299 C2294 1.379 . S
C2299 N2297 1.356 . S
N2300 C2292 1.356 . S
N2300 H2306 0.984 . S
N2300 H2307 0.984 . S
N2301 C2294 1.356 . S
N2301 H2304 0.984 . S
N2301 H2305 0.985 . S
H2302 N2297 0.984 . S
H2303 N2297 0.985 . S
H2304 N2301 0.984 . S
H2305 N2301 0.985 . S
H2306 N2300 0.984 . S
H2307 N2300 0.984 . S
H2308 N2296 0.984 . S
H2309 N2296 0.985 . S
C2310 C2311 1.363 . S
C2310 C2316 1.379 . S
C2310 N2318 1.356 1_545 S
C2311 C2310 1.363 . S
C2311 C2317 1.363 . S
C2312 C2313 1.363 . S
C2312 C2317 1.379 . S
C2312 N2319 1.356 . S
C2313 C2312 1.363 . S
C2313 C2316 1.363 . S
N2314 C2316 1.356 1_565 S
N2314 H2326 0.984 . S
N2314 H2327 0.985 . S
N2315 C2317 1.356 . S
N2315 H2320 0.984 . S
N2315 H2321 0.985 . S
C2316 C2310 1.379 . S
C2316 C2313 1.363 . S
C2316 N2314 1.356 1_545 S
C2317 C2311 1.363 . S
C2317 C2312 1.379 . S
C2317 N2315 1.356 . S
N2318 C2310 1.356 1_565 S
N2318 H2324 0.984 . S
N2318 H2325 0.984 1_565 S
N2319 C2312 1.356 . S
N2319 H2322 0.984 . S
N2319 H2323 0.985 . S
H2320 N2315 0.984 . S
H2321 N2315 0.985 . S
H2322 N2319 0.984 . S
H2323 N2319 0.985 . S
H2324 N2318 0.984 . S
H2325 N2318 0.984 1_545 S
H2326 N2314 0.984 . S
H2327 N2314 0.985 . S
C2328 C2329 1.363 . S
C2328 C2334 1.379 . S
C2328 N2336 1.356 . S
C2329 C2328 1.363 . S
C2329 C2335 1.363 1_545 S
C2330 C2331 1.363 1_565 S
C2330 C2335 1.379 . S
C2330 N2337 1.356 . S
C2331 C2330 1.363 1_545 S
C2331 C2334 1.363 . S
N2332 C2334 1.356 . S
N2332 H2344 0.984 . S
N2332 H2345 0.985 . S
N2333 C2335 1.356 . S
N2333 H2338 0.984 . S
N2333 H2339 0.985 . S
C2334 C2328 1.379 . S
C2334 C2331 1.363 . S
C2334 N2332 1.356 . S
C2335 C2329 1.363 1_565 S
C2335 C2330 1.379 . S
C2335 N2333 1.356 . S
N2336 C2328 1.356 . S
N2336 H2342 0.984 . S
N2336 H2343 0.984 . S
N2337 C2330 1.356 . S
N2337 H2340 0.984 . S
N2337 H2341 0.985 . S
H2338 N2333 0.984 . S
H2339 N2333 0.985 . S
H2340 N2337 0.984 . S
H2341 N2337 0.985 . S
H2342 N2336 0.984 . S
H2343 N2336 0.984 . S
H2344 N2332 0.984 . S
H2345 N2332 0.985 . S
C2346 C2347 1.363 . S
C2346 C2352 1.379 . S
C2346 N2354 1.356 . S
C2347 C2346 1.363 . S
C2347 C2353 1.363 . S
C2348 C2349 1.363 . S
C2348 C2353 1.379 . S
C2348 N2355 1.356 . S
C2349 C2348 1.363 . S
C2349 C2352 1.363 . S
N2350 C2352 1.356 1_655 S
N2350 H2362 0.984 . S
N2350 H2363 0.985 . S
N2351 C2353 1.356 . S
N2351 H2356 0.984 . S
N2351 H2357 0.985 . S
C2352 C2346 1.379 . S
C2352 C2349 1.363 . S
C2352 N2350 1.356 1_455 S
C2353 C2347 1.363 . S
C2353 C2348 1.379 . S
C2353 N2351 1.356 . S
N2354 C2346 1.356 . S
N2354 H2360 0.984 1_455 S
N2354 H2361 0.984 . S
N2355 C2348 1.356 . S
N2355 H2358 0.984 . S
N2355 H2359 0.985 . S
H2356 N2351 0.984 . S
H2357 N2351 0.985 . S
H2358 N2355 0.984 . S
H2359 N2355 0.985 . S
H2360 N2354 0.984 1_655 S
H2361 N2354 0.984 . S
H2362 N2350 0.984 . S
H2363 N2350 0.985 . S
C2364 C2365 1.363 . S
C2364 C2370 1.379 . S
C2364 N2372 1.356 . S
C2365 C2364 1.363 . S
C2365 C2371 1.363 . S
C2366 C2367 1.363 . S
C2366 C2371 1.379 . S
C2366 N2373 1.356 1_545 S
C2367 C2366 1.363 . S
C2367 C2370 1.363 . S
N2368 C2370 1.356 . S
N2368 H2380 0.984 . S
N2368 H2381 0.985 . S
N2369 C2371 1.356 . S
N2369 H2374 0.984 . S
N2369 H2375 0.985 1_545 S
C2370 C2364 1.379 . S
C2370 C2367 1.363 . S
C2370 N2368 1.356 . S
C2371 C2365 1.363 . S
C2371 C2366 1.379 . S
C2371 N2369 1.356 . S
N2372 C2364 1.356 . S
N2372 H2378 0.984 . S
N2372 H2379 0.984 . S
N2373 C2366 1.356 1_565 S
N2373 H2376 0.984 1_565 S
N2373 H2377 0.985 . S
H2374 N2369 0.984 . S
H2375 N2369 0.985 1_565 S
H2376 N2373 0.984 1_545 S
H2377 N2373 0.985 . S
H2378 N2372 0.984 . S
H2379 N2372 0.984 . S
H2380 N2368 0.984 . S
H2381 N2368 0.985 . S
C2382 C2383 1.347 1_655 S
C2382 C2388 1.381 . S
C2382 N2390 1.367 . S
C2383 C2382 1.347 1_455 S
C2383 C2389 1.363 . S
C2384 C2385 1.363 . S
C2384 C2389 1.379 . S
C2384 N2391 1.356 . S
C2385 C2384 1.363 . S
C2385 C2388 1.363 1_455 S
N2386 C2388 1.356 . S
N2386 H2398 0.984 . S
N2386 H2399 0.985 . S
N2387 C2389 1.356 . S
N2387 H2392 0.984 . S
N2387 H2393 0.985 . S
C2388 C2382 1.381 . S
C2388 C2385 1.363 1_655 S
C2388 N2386 1.356 . S
C2389 C2383 1.363 . S
C2389 C2384 1.379 . S
C2389 N2387 1.356 . S
N2390 C2382 1.367 . S
N2390 H2396 0.984 . S
N2390 H2397 0.984 . S
N2391 C2384 1.356 . S
N2391 H2394 0.984 . S
N2391 H2395 0.985 . S
H2392 N2387 0.984 . S
H2393 N2387 0.985 . S
H2394 N2391 0.984 . S
H2395 N2391 0.985 . S
H2396 N2390 0.984 . S
H2397 N2390 0.984 . S
H2398 N2386 0.984 . S
H2399 N2386 0.985 . S
C2400 C2401 1.363 1_565 S
C2400 C2406 1.379 . S
C2400 N2408 1.356 . S
C2401 C2400 1.363 1_545 S
C2401 C2407 1.363 . S
C2402 C2403 1.363 . S
C2402 C2407 1.379 . S
C2402 N2409 1.356 . S
C2403 C2402 1.363 . S
C2403 C2406 1.363 1_545 S
N2404 C2406 1.356 . S
N2404 H2416 0.984 . S
N2404 H2417 0.985 . S
N2405 C2407 1.356 . S
N2405 H2410 0.984 . S
N2405 H2411 0.985 . S
C2406 C2400 1.379 . S
C2406 C2403 1.363 1_565 S
C2406 N2404 1.356 . S
C2407 C2401 1.363 . S
C2407 C2402 1.379 . S
C2407 N2405 1.356 . S
N2408 C2400 1.356 . S
N2408 H2414 0.984 . S
N2408 H2415 0.984 . S
N2409 C2402 1.356 . S
N2409 H2412 0.984 . S
N2409 H2413 0.985 . S
H2410 N2405 0.984 . S
H2411 N2405 0.985 . S
H2412 N2409 0.984 . S
H2413 N2409 0.985 . S
H2414 N2408 0.984 . S
H2415 N2408 0.984 . S
H2416 N2404 0.984 . S
H2417 N2404 0.985 . S
C2418 C2419 1.363 . S
C2418 C2424 1.379 . S
C2418 N2426 1.356 1_455 S
C2419 C2418 1.363 . S
C2419 C2425 1.363 . S
C2420 C2421 1.363 . S
C2420 C2425 1.379 . S
C2420 N2427 1.356 . S
C2421 C2420 1.363 . S
C2421 C2424 1.363 . S
N2422 C2424 1.358 . S
N2422 H2434 0.982 1_455 S
N2422 H2435 0.986 . S
N2423 C2425 1.356 . S
N2423 H2428 0.984 . S
N2423 H2429 0.985 . S
C2424 C2418 1.379 . S
C2424 C2421 1.363 . S
C2424 N2422 1.358 . S
C2425 C2419 1.363 . S
C2425 C2420 1.379 . S
C2425 N2423 1.356 . S
N2426 C2418 1.356 1_655 S
N2426 H2432 0.984 . S
N2426 H2433 0.984 . S
N2427 C2420 1.356 . S
N2427 H2430 0.984 . S
N2427 H2431 0.985 . S
H2428 N2423 0.984 . S
H2429 N2423 0.985 . S
H2430 N2427 0.984 . S
H2431 N2427 0.985 . S
H2432 N2426 0.984 . S
H2433 N2426 0.984 . S
H2434 N2422 0.982 1_655 S
H2435 N2422 0.986 . S
C2436 C2437 1.363 . S
C2436 C2442 1.379 . S
C2436 N2444 1.356 . S
C2437 C2436 1.363 . S
C2437 C2443 1.363 . S
C2438 C2439 1.363 . S
C2438 C2443 1.379 . S
C2438 N2445 1.356 . S
C2439 C2438 1.363 . S
C2439 C2442 1.363 . S
N2440 C2442 1.356 . S
N2440 H2452 0.984 . S
N2440 H2453 0.985 . S
N2441 C2443 1.356 . S
N2441 H2446 0.984 . S
N2441 H2447 0.993 . S
C2442 C2436 1.379 . S
C2442 C2439 1.363 . S
C2442 N2440 1.356 . S
C2443 C2437 1.363 . S
C2443 C2438 1.379 . S
C2443 N2441 1.356 . S
N2444 C2436 1.356 . S
N2444 H2450 0.984 . S
N2444 H2451 0.984 . S
N2445 C2438 1.356 . S
N2445 H2448 0.984 . S
N2445 H2449 0.985 1_545 S
H2446 N2441 0.984 . S
H2447 N2441 0.993 . S
H2448 N2445 0.984 . S
H2449 N2445 0.985 1_565 S
H2450 N2444 0.984 . S
H2451 N2444 0.984 . S
H2452 N2440 0.984 . S
H2453 N2440 0.985 . S
C2454 C2455 1.363 . S
C2454 C2460 1.379 . S
C2454 N2462 1.356 . S
C2455 C2454 1.363 . S
C2455 C2461 1.363 . S
C2456 C2457 1.363 . S
C2456 C2461 1.379 . S
C2456 N2463 1.356 . S
C2457 C2456 1.363 . S
C2457 C2460 1.363 . S
N2458 C2460 1.356 . S
N2458 H2470 0.984 . S
N2458 H2471 0.985 . S
N2459 C2461 1.356 1_655 S
N2459 H2464 0.984 . S
N2459 H2465 0.985 . S
C2460 C2454 1.379 . S
C2460 C2457 1.363 . S
C2460 N2458 1.356 . S
C2461 C2455 1.363 . S
C2461 C2456 1.379 . S
C2461 N2459 1.356 1_455 S
N2462 C2454 1.356 . S
N2462 H2468 0.984 . S
N2462 H2469 0.984 . S
N2463 C2456 1.356 . S
N2463 H2466 0.984 . S
N2463 H2467 0.985 1_455 S
H2464 N2459 0.984 . S
H2465 N2459 0.985 . S
H2466 N2463 0.984 . S
H2467 N2463 0.985 1_655 S
H2468 N2462 0.984 . S
H2469 N2462 0.984 . S
H2470 N2458 0.984 . S
H2471 N2458 0.985 . S
C2472 C2473 1.363 . S
C2472 C2478 1.379 . S
C2472 N2480 1.356 . S
C2473 C2472 1.363 . S
C2473 C2479 1.363 1_554 S
C2474 C2475 1.363 1_556 S
C2474 C2479 1.379 . S
C2474 N2481 1.356 . S
C2475 C2474 1.363 1_554 S
C2475 C2478 1.363 . S
N2476 C2478 1.356 . S
N2476 H2488 0.984 . S
N2476 H2489 0.985 . S
N2477 C2479 1.356 . S
N2477 H2482 0.984 . S
N2477 H2483 0.985 . S
C2478 C2472 1.379 . S
C2478 C2475 1.363 . S
C2478 N2476 1.356 . S
C2479 C2473 1.363 1_556 S
C2479 C2474 1.379 . S
C2479 N2477 1.356 . S
N2480 C2472 1.356 . S
N2480 H2486 0.984 . S
N2480 H2487 0.984 . S
N2481 C2474 1.356 . S
N2481 H2484 0.984 . S
N2481 H2485 0.985 . S
H2482 N2477 0.984 . S
H2483 N2477 0.985 . S
H2484 N2481 0.984 . S
H2485 N2481 0.985 . S
H2486 N2480 0.984 . S
H2487 N2480 0.984 . S
H2488 N2476 0.984 . S
H2489 N2476 0.985 . S
C2490 C2491 1.363 . S
C2490 C2496 1.379 . S
C2490 N2498 1.356 . S
C2491 C2490 1.363 . S
C2491 C2497 1.363 1_554 S
C2492 C2493 1.363 1_556 S
C2492 C2497 1.379 . S
C2492 N2499 1.356 . S
C2493 C2492 1.363 1_554 S
C2493 C2496 1.363 . S
N2494 C2496 1.356 . S
N2494 H2506 0.984 . S
N2494 H2507 0.985 . S
N2495 C2497 1.356 . S
N2495 H2500 0.984 . S
N2495 H2501 0.985 . S
C2496 C2490 1.379 . S
C2496 C2493 1.363 . S
C2496 N2494 1.356 . S
C2497 C2491 1.363 1_556 S
C2497 C2492 1.379 . S
C2497 N2495 1.356 . S
N2498 C2490 1.356 . S
N2498 H2504 0.984 . S
N2498 H2505 0.984 . S
N2499 C2492 1.356 . S
N2499 H2502 0.984 . S
N2499 H2503 0.985 . S
H2500 N2495 0.984 . S
H2501 N2495 0.985 . S
H2502 N2499 0.984 . S
H2503 N2499 0.985 . S
H2504 N2498 0.984 . S
H2505 N2498 0.984 . S
H2506 N2494 0.984 . S
H2507 N2494 0.985 . S
C2508 C2509 1.363 . S
C2508 C2514 1.379 . S
C2508 N2516 1.356 . S
C2509 C2508 1.363 . S
C2509 C2515 1.363 . S
C2510 C2511 1.363 . S
C2510 C2515 1.379 . S
C2510 N2517 1.356 . S
C2511 C2510 1.363 . S
C2511 C2514 1.363 . S
N2512 C2514 1.356 . S
N2512 H2524 0.984 . S
N2512 H2525 0.985 . S
N2513 C2515 1.356 . S
N2513 H2518 0.984 . S
N2513 H2519 0.985 . S
C2514 C2508 1.379 . S
C2514 C2511 1.363 . S
C2514 N2512 1.356 . S
C2515 C2509 1.363 . S
C2515 C2510 1.379 . S
C2515 N2513 1.356 . S
N2516 C2508 1.356 . S
N2516 H2522 0.984 . S
N2516 H2523 0.984 . S
N2517 C2510 1.356 . S
N2517 H2520 0.984 . S
N2517 H2521 0.985 . S
H2518 N2513 0.984 . S
H2519 N2513 0.985 . S
H2520 N2517 0.984 . S
H2521 N2517 0.985 . S
H2522 N2516 0.984 . S
H2523 N2516 0.984 . S
H2524 N2512 0.984 . S
H2525 N2512 0.985 . S
C2526 C2527 1.363 . S
C2526 C2532 1.379 . S
C2526 N2534 1.356 . S
C2527 C2526 1.363 . S
C2527 C2533 1.363 1_554 S
C2528 C2529 1.363 1_556 S
C2528 C2533 1.379 . S
C2528 N2535 1.356 . S
C2529 C2528 1.363 1_554 S
C2529 C2532 1.363 . S
N2530 C2532 1.356 . S
N2530 H2542 0.984 . S
N2530 H2543 0.985 . S
N2531 C2533 1.356 . S
N2531 H2536 0.984 . S
N2531 H2537 0.985 . S
C2532 C2526 1.379 . S
C2532 C2529 1.363 . S
C2532 N2530 1.356 . S
C2533 C2527 1.363 1_556 S
C2533 C2528 1.379 . S
C2533 N2531 1.356 . S
N2534 C2526 1.356 . S
N2534 H2540 0.984 . S
N2534 H2541 0.984 . S
N2535 C2528 1.356 . S
N2535 H2538 0.984 . S
N2535 H2539 0.985 . S
H2536 N2531 0.984 . S
H2537 N2531 0.985 . S
H2538 N2535 0.984 . S
H2539 N2535 0.985 . S
H2540 N2534 0.984 . S
H2541 N2534 0.984 . S
H2542 N2530 0.984 . S
H2543 N2530 0.985 . S
C2544 C2545 1.363 . S
C2544 C2550 1.379 . S
C2544 N2552 1.356 . S
C2545 C2544 1.363 . S
C2545 C2551 1.363 1_554 S
C2546 C2547 1.363 1_556 S
C2546 C2551 1.379 . S
C2546 N2553 1.356 . S
C2547 C2546 1.363 1_554 S
C2547 C2550 1.363 . S
N2548 C2550 1.356 . S
N2548 H2560 0.984 . S
N2548 H2561 0.985 . S
N2549 C2551 1.356 . S
N2549 H2554 0.984 . S
N2549 H2555 0.985 . S
C2550 C2544 1.379 . S
C2550 C2547 1.363 . S
C2550 N2548 1.356 . S
C2551 C2545 1.363 1_556 S
C2551 C2546 1.379 . S
C2551 N2549 1.356 . S
N2552 C2544 1.356 . S
N2552 H2558 0.984 . S
N2552 H2559 0.984 . S
N2553 C2546 1.356 . S
N2553 H2556 0.984 . S
N2553 H2557 0.985 . S
H2554 N2549 0.984 . S
H2555 N2549 0.985 . S
H2556 N2553 0.984 . S
H2557 N2553 0.985 . S
H2558 N2552 0.984 . S
H2559 N2552 0.984 . S
H2560 N2548 0.984 . S
H2561 N2548 0.985 . S
C2562 C2563 1.363 . S
C2562 C2568 1.379 . S
C2562 N2570 1.356 . S
C2563 C2562 1.363 . S
C2563 C2569 1.363 1_554 S
C2564 C2565 1.363 1_556 S
C2564 C2569 1.379 . S
C2564 N2571 1.356 . S
C2565 C2564 1.363 1_554 S
C2565 C2568 1.363 . S
N2566 C2568 1.356 . S
N2566 H2578 0.984 . S
N2566 H2579 0.985 . S
N2567 C2569 1.356 . S
N2567 H2572 0.984 . S
N2567 H2573 0.985 . S
C2568 C2562 1.379 . S
C2568 C2565 1.363 . S
C2568 N2566 1.356 . S
C2569 C2563 1.363 1_556 S
C2569 C2564 1.379 . S
C2569 N2567 1.356 . S
N2570 C2562 1.356 . S
N2570 H2576 0.984 . S
N2570 H2577 0.984 . S
N2571 C2564 1.356 . S
N2571 H2574 0.984 . S
N2571 H2575 0.985 . S
H2572 N2567 0.984 . S
H2573 N2567 0.985 . S
H2574 N2571 0.984 . S
H2575 N2571 0.985 . S
H2576 N2570 0.984 . S
H2577 N2570 0.984 . S
H2578 N2566 0.984 . S
H2579 N2566 0.985 . S
C2580 C2581 1.363 1_556 S
C2580 C2586 1.379 . S
C2580 N2588 1.356 . S
C2581 C2580 1.363 1_554 S
C2581 C2587 1.363 . S
C2582 C2583 1.363 . S
C2582 C2587 1.379 . S
C2582 N2589 1.356 . S
C2583 C2582 1.363 . S
C2583 C2586 1.363 1_554 S
N2584 C2586 1.356 . S
N2584 H2596 0.984 . S
N2584 H2597 0.985 . S
N2585 C2587 1.356 . S
N2585 H2590 0.984 . S
N2585 H2591 0.985 . S
C2586 C2580 1.379 . S
C2586 C2583 1.363 1_556 S
C2586 N2584 1.356 . S
C2587 C2581 1.363 . S
C2587 C2582 1.379 . S
C2587 N2585 1.356 . S
N2588 C2580 1.356 . S
N2588 H2594 0.984 . S
N2588 H2595 0.984 . S
N2589 C2582 1.356 . S
N2589 H2592 0.984 . S
N2589 H2593 0.985 . S
H2590 N2585 0.984 . S
H2591 N2585 0.985 . S
H2592 N2589 0.984 . S
H2593 N2589 0.985 . S
H2594 N2588 0.984 . S
H2595 N2588 0.984 . S
H2596 N2584 0.984 . S
H2597 N2584 0.985 . S
C2598 C2599 1.363 . S
C2598 C2604 1.379 . S
C2598 N2606 1.356 . S
C2599 C2598 1.363 . S
C2599 C2605 1.363 1_554 S
C2600 C2601 1.363 1_556 S
C2600 C2605 1.379 . S
C2600 N2607 1.356 . S
C2601 C2600 1.363 1_554 S
C2601 C2604 1.363 . S
N2602 C2604 1.356 . S
N2602 H2614 0.984 . S
N2602 H2615 0.985 . S
N2603 C2605 1.356 . S
N2603 H2608 0.984 . S
N2603 H2609 0.985 . S
C2604 C2598 1.379 . S
C2604 C2601 1.363 . S
C2604 N2602 1.356 . S
C2605 C2599 1.363 1_556 S
C2605 C2600 1.379 . S
C2605 N2603 1.356 . S
N2606 C2598 1.356 . S
N2606 H2612 0.984 . S
N2606 H2613 0.984 . S
N2607 C2600 1.356 . S
N2607 H2610 0.984 . S
N2607 H2611 0.985 . S
H2608 N2603 0.984 . S
H2609 N2603 0.985 . S
H2610 N2607 0.984 . S
H2611 N2607 0.985 . S
H2612 N2606 0.984 . S
H2613 N2606 0.984 . S
H2614 N2602 0.984 . S
H2615 N2602 0.985 . S
C2616 C2617 1.363 . S
C2616 C2622 1.379 . S
C2616 N2624 1.356 . S
C2617 C2616 1.363 . S
C2617 C2623 1.363 . S
C2618 C2619 1.363 . S
C2618 C2623 1.379 . S
C2618 N2625 1.356 . S
C2619 C2618 1.363 . S
C2619 C2622 1.363 . S
N2620 C2622 1.356 . S
N2620 H2632 0.984 . S
N2620 H2633 0.985 . S
N2621 C2623 1.356 . S
N2621 H2626 0.984 . S
N2621 H2627 0.985 . S
C2622 C2616 1.379 . S
C2622 C2619 1.363 . S
C2622 N2620 1.356 . S
C2623 C2617 1.363 . S
C2623 C2618 1.379 . S
C2623 N2621 1.356 . S
N2624 C2616 1.356 . S
N2624 H2630 0.984 . S
N2624 H2631 0.984 . S
N2625 C2618 1.356 . S
N2625 H2628 0.984 . S
N2625 H2629 0.985 . S
H2626 N2621 0.984 . S
H2627 N2621 0.985 . S
H2628 N2625 0.984 . S
H2629 N2625 0.985 . S
H2630 N2624 0.984 . S
H2631 N2624 0.984 . S
H2632 N2620 0.984 . S
H2633 N2620 0.985 . S
C2634 C2635 1.363 . S
C2634 C2640 1.379 . S
C2634 N2642 1.356 . S
C2635 C2634 1.363 . S
C2635 C2641 1.363 . S
C2636 C2637 1.363 . S
C2636 C2641 1.379 . S
C2636 N2643 1.356 . S
C2637 C2636 1.363 . S
C2637 C2640 1.363 . S
N2638 C2640 1.356 . S
N2638 H2650 0.984 . S
N2638 H2651 0.985 . S
N2639 C2641 1.356 . S
N2639 H2644 0.984 . S
N2639 H2645 0.985 . S
C2640 C2634 1.379 . S
C2640 C2637 1.363 . S
C2640 N2638 1.356 . S
C2641 C2635 1.363 . S
C2641 C2636 1.379 . S
C2641 N2639 1.356 . S
N2642 C2634 1.356 . S
N2642 H2648 0.984 . S
N2642 H2649 0.984 . S
N2643 C2636 1.356 . S
N2643 H2646 0.984 . S
N2643 H2647 0.985 . S
H2644 N2639 0.984 . S
H2645 N2639 0.985 . S
H2646 N2643 0.984 . S
H2647 N2643 0.985 . S
H2648 N2642 0.984 . S
H2649 N2642 0.984 . S
H2650 N2638 0.984 . S
H2651 N2638 0.985 . S
C2652 C2653 1.363 . S
C2652 C2658 1.379 . S
C2652 N2660 1.356 . S
C2653 C2652 1.363 . S
C2653 C2659 1.363 . S
C2654 C2655 1.363 . S
C2654 C2659 1.379 . S
C2654 N2661 1.356 . S
C2655 C2654 1.363 . S
C2655 C2658 1.363 . S
N2656 C2658 1.356 . S
N2656 H2668 0.984 . S
N2656 H2669 0.985 . S
N2657 C2659 1.356 . S
N2657 H2662 0.984 . S
N2657 H2663 0.985 . S
C2658 C2652 1.379 . S
C2658 C2655 1.363 . S
C2658 N2656 1.356 . S
C2659 C2653 1.363 . S
C2659 C2654 1.379 . S
C2659 N2657 1.356 . S
N2660 C2652 1.356 . S
N2660 H2666 0.984 . S
N2660 H2667 0.984 . S
N2661 C2654 1.356 . S
N2661 H2664 0.984 . S
N2661 H2665 0.985 . S
H2662 N2657 0.984 . S
H2663 N2657 0.985 . S
H2664 N2661 0.984 . S
H2665 N2661 0.985 . S
H2666 N2660 0.984 . S
H2667 N2660 0.984 . S
H2668 N2656 0.984 . S
H2669 N2656 0.985 . S
C2670 C2671 1.363 . S
C2670 C2676 1.379 . S
C2670 N2678 1.356 . S
C2671 C2670 1.363 . S
C2671 C2677 1.363 . S
C2672 C2673 1.363 . S
C2672 C2677 1.379 . S
C2672 N2679 1.356 . S
C2673 C2672 1.363 . S
C2673 C2676 1.363 . S
N2674 C2676 1.356 . S
N2674 H2686 0.984 . S
N2674 H2687 0.985 . S
N2675 C2677 1.356 . S
N2675 H2680 0.984 . S
N2675 H2681 0.985 . S
C2676 C2670 1.379 . S
C2676 C2673 1.363 . S
C2676 N2674 1.356 . S
C2677 C2671 1.363 . S
C2677 C2672 1.379 . S
C2677 N2675 1.356 . S
N2678 C2670 1.356 . S
N2678 H2684 0.984 . S
N2678 H2685 0.984 . S
N2679 C2672 1.356 . S
N2679 H2682 0.984 . S
N2679 H2683 0.985 . S
H2680 N2675 0.984 . S
H2681 N2675 0.985 . S
H2682 N2679 0.984 . S
H2683 N2679 0.985 . S
H2684 N2678 0.984 . S
H2685 N2678 0.984 . S
H2686 N2674 0.984 . S
H2687 N2674 0.985 . S
C2688 C2689 1.363 . S
C2688 C2694 1.379 . S
C2688 N2696 1.356 . S
C2689 C2688 1.363 . S
C2689 C2695 1.363 . S
C2690 C2691 1.363 . S
C2690 C2695 1.379 . S
C2690 N2697 1.356 . S
C2691 C2690 1.363 . S
C2691 C2694 1.363 . S
N2692 C2694 1.356 . S
N2692 H2704 0.984 . S
N2692 H2705 0.985 . S
N2693 C2695 1.356 . S
N2693 H2698 0.984 . S
N2693 H2699 0.985 . S
C2694 C2688 1.379 . S
C2694 C2691 1.363 . S
C2694 N2692 1.356 . S
C2695 C2689 1.363 . S
C2695 C2690 1.379 . S
C2695 N2693 1.356 . S
N2696 C2688 1.356 . S
N2696 H2702 0.984 . S
N2696 H2703 0.984 . S
N2697 C2690 1.356 . S
N2697 H2700 0.984 . S
N2697 H2701 0.985 . S
H2698 N2693 0.984 . S
H2699 N2693 0.985 . S
H2700 N2697 0.984 . S
H2701 N2697 0.985 . S
H2702 N2696 0.984 . S
H2703 N2696 0.984 . S
H2704 N2692 0.984 . S
H2705 N2692 0.985 . S
C2706 C2707 1.363 . S
C2706 C2712 1.379 . S
C2706 N2714 1.356 . S
C2707 C2706 1.363 . S
C2707 C2713 1.363 . S
C2708 C2709 1.363 . S
C2708 C2713 1.379 . S
C2708 N2715 1.356 . S
C2709 C2708 1.363 . S
C2709 C2712 1.363 . S
N2710 C2712 1.356 . S
N2710 H2722 0.984 . S
N2710 H2723 0.985 . S
N2711 C2713 1.356 . S
N2711 H2716 0.984 . S
N2711 H2717 0.985 . S
C2712 C2706 1.379 . S
C2712 C2709 1.363 . S
C2712 N2710 1.356 . S
C2713 C2707 1.363 . S
C2713 C2708 1.379 . S
C2713 N2711 1.356 . S
N2714 C2706 1.356 . S
N2714 H2720 0.984 . S
N2714 H2721 0.984 . S
N2715 C2708 1.356 . S
N2715 H2718 0.984 . S
N2715 H2719 0.985 . S
H2716 N2711 0.984 . S
H2717 N2711 0.985 . S
H2718 N2715 0.984 . S
H2719 N2715 0.985 . S
H2720 N2714 0.984 . S
H2721 N2714 0.984 . S
H2722 N2710 0.984 . S
H2723 N2710 0.985 . S
C2724 C2725 1.363 . S
C2724 C2730 1.379 . S
C2724 N2732 1.356 . S
C2725 C2724 1.363 . S
C2725 C2731 1.363 . S
C2726 C2727 1.363 . S
C2726 C2731 1.379 . S
C2726 N2733 1.356 . S
C2727 C2726 1.363 . S
C2727 C2730 1.363 . S
N2728 C2730 1.356 . S
N2728 H2740 0.984 . S
N2728 H2741 0.985 . S
N2729 C2731 1.356 . S
N2729 H2734 0.984 . S
N2729 H2735 0.985 . S
C2730 C2724 1.379 . S
C2730 C2727 1.363 . S
C2730 N2728 1.356 . S
C2731 C2725 1.363 . S
C2731 C2726 1.379 . S
C2731 N2729 1.356 . S
N2732 C2724 1.356 . S
N2732 H2738 0.984 . S
N2732 H2739 0.984 . S
N2733 C2726 1.356 . S
N2733 H2736 0.984 . S
N2733 H2737 0.985 . S
H2734 N2729 0.984 . S
H2735 N2729 0.985 . S
H2736 N2733 0.984 . S
H2737 N2733 0.985 . S
H2738 N2732 0.984 . S
H2739 N2732 0.984 . S
H2740 N2728 0.984 . S
H2741 N2728 0.985 . S
C2742 C2743 1.363 . S
C2742 C2748 1.379 . S
C2742 N2750 1.356 . S
C2743 C2742 1.363 . S
C2743 C2749 1.363 . S
C2744 C2745 1.363 . S
C2744 C2749 1.379 . S
C2744 N2751 1.356 . S
C2745 C2744 1.363 . S
C2745 C2748 1.363 . S
N2746 C2748 1.356 . S
N2746 H2758 0.984 . S
N2746 H2759 0.985 . S
N2747 C2749 1.356 . S
N2747 H2752 0.984 . S
N2747 H2753 0.985 . S
C2748 C2742 1.379 . S
C2748 C2745 1.363 . S
C2748 N2746 1.356 . S
C2749 C2743 1.363 . S
C2749 C2744 1.379 . S
C2749 N2747 1.356 . S
N2750 C2742 1.356 . S
N2750 H2756 0.984 . S
N2750 H2757 0.984 . S
N2751 C2744 1.356 . S
N2751 H2754 0.984 . S
N2751 H2755 0.985 . S
H2752 N2747 0.984 . S
H2753 N2747 0.985 . S
H2754 N2751 0.984 . S
H2755 N2751 0.985 . S
H2756 N2750 0.984 . S
H2757 N2750 0.984 . S
H2758 N2746 0.984 . S
H2759 N2746 0.985 . S
C2760 C2761 1.363 . S
C2760 C2766 1.379 . S
C2760 N2768 1.356 . S
C2761 C2760 1.363 . S
C2761 C2767 1.363 . S
C2762 C2763 1.363 . S
C2762 C2767 1.379 . S
C2762 N2769 1.356 . S
C2763 C2762 1.363 . S
C2763 C2766 1.363 . S
N2764 C2766 1.356 . S
N2764 H2776 0.984 . S
N2764 H2777 0.985 . S
N2765 C2767 1.356 . S
N2765 H2770 0.984 . S
N2765 H2771 0.985 . S
C2766 C2760 1.379 . S
C2766 C2763 1.363 . S
C2766 N2764 1.356 . S
C2767 C2761 1.363 . S
C2767 C2762 1.379 . S
C2767 N2765 1.356 . S
N2768 C2760 1.356 . S
N2768 H2774 0.984 . S
N2768 H2775 0.984 . S
N2769 C2762 1.356 . S
N2769 H2772 0.984 . S
N2769 H2773 0.985 . S
H2770 N2765 0.984 . S
H2771 N2765 0.985 . S
H2772 N2769 0.984 . S
H2773 N2769 0.985 . S
H2774 N2768 0.984 . S
H2775 N2768 0.984 . S
H2776 N2764 0.984 . S
H2777 N2764 0.985 . S
C2778 C2779 1.363 . S
C2778 C2784 1.379 . S
C2778 N2786 1.356 . S
C2779 C2778 1.363 . S
C2779 C2785 1.363 . S
C2780 C2781 1.363 . S
C2780 C2785 1.379 . S
C2780 N2787 1.356 . S
C2781 C2780 1.363 . S
C2781 C2784 1.363 . S
N2782 C2784 1.356 . S
N2782 H2794 0.984 . S
N2782 H2795 0.985 . S
N2783 C2785 1.356 . S
N2783 H2788 0.984 . S
N2783 H2789 0.985 . S
C2784 C2778 1.379 . S
C2784 C2781 1.363 . S
C2784 N2782 1.356 . S
C2785 C2779 1.363 . S
C2785 C2780 1.379 . S
C2785 N2783 1.356 . S
N2786 C2778 1.356 . S
N2786 H2792 0.984 . S
N2786 H2793 0.984 . S
N2787 C2780 1.356 . S
N2787 H2790 0.984 . S
N2787 H2791 0.985 . S
H2788 N2783 0.984 . S
H2789 N2783 0.985 . S
H2790 N2787 0.984 . S
H2791 N2787 0.985 . S
H2792 N2786 0.984 . S
H2793 N2786 0.984 . S
H2794 N2782 0.984 . S
H2795 N2782 0.985 . S
C2796 C2797 1.363 . S
C2796 C2802 1.379 . S
C2796 N2804 1.356 . S
C2797 C2796 1.363 . S
C2797 C2803 1.363 . S
C2798 C2799 1.363 . S
C2798 C2803 1.379 . S
C2798 N2805 1.356 . S
C2799 C2798 1.363 . S
C2799 C2802 1.363 . S
N2800 C2802 1.356 . S
N2800 H2812 0.984 . S
N2800 H2813 0.985 . S
N2801 C2803 1.356 . S
N2801 H2806 0.984 . S
N2801 H2807 0.985 . S
C2802 C2796 1.379 . S
C2802 C2799 1.363 . S
C2802 N2800 1.356 . S
C2803 C2797 1.363 . S
C2803 C2798 1.379 . S
C2803 N2801 1.356 . S
N2804 C2796 1.356 . S
N2804 H2810 0.984 . S
N2804 H2811 0.984 . S
N2805 C2798 1.356 . S
N2805 H2808 0.984 . S
N2805 H2809 0.985 . S
H2806 N2801 0.984 . S
H2807 N2801 0.985 . S
H2808 N2805 0.984 . S
H2809 N2805 0.985 . S
H2810 N2804 0.984 . S
H2811 N2804 0.984 . S
H2812 N2800 0.984 . S
H2813 N2800 0.985 . S
C2814 C2815 1.363 . S
C2814 C2820 1.379 . S
C2814 N2822 1.356 . S
C2815 C2814 1.363 . S
C2815 C2821 1.363 . S
C2816 C2817 1.363 . S
C2816 C2821 1.379 . S
C2816 N2823 1.356 . S
C2817 C2816 1.363 . S
C2817 C2820 1.363 . S
N2818 C2820 1.356 . S
N2818 H2830 0.984 . S
N2818 H2831 0.985 . S
N2819 C2821 1.356 . S
N2819 H2824 0.984 . S
N2819 H2825 0.985 . S
C2820 C2814 1.379 . S
C2820 C2817 1.363 . S
C2820 N2818 1.356 . S
C2821 C2815 1.363 . S
C2821 C2816 1.379 . S
C2821 N2819 1.356 . S
N2822 C2814 1.356 . S
N2822 H2828 0.984 . S
N2822 H2829 0.984 . S
N2823 C2816 1.356 . S
N2823 H2826 0.984 . S
N2823 H2827 0.985 . S
H2824 N2819 0.984 . S
H2825 N2819 0.985 . S
H2826 N2823 0.984 . S
H2827 N2823 0.985 . S
H2828 N2822 0.984 . S
H2829 N2822 0.984 . S
H2830 N2818 0.984 . S
H2831 N2818 0.985 . S
C2832 C2833 1.363 . S
C2832 C2838 1.379 . S
C2832 N2840 1.356 . S
C2833 C2832 1.363 . S
C2833 C2839 1.363 . S
C2834 C2835 1.363 . S
C2834 C2839 1.379 . S
C2834 N2841 1.356 . S
C2835 C2834 1.363 . S
C2835 C2838 1.363 . S
N2836 C2838 1.356 . S
N2836 H2848 0.984 . S
N2836 H2849 0.985 . S
N2837 C2839 1.356 . S
N2837 H2842 0.984 . S
N2837 H2843 0.985 . S
C2838 C2832 1.379 . S
C2838 C2835 1.363 . S
C2838 N2836 1.356 . S
C2839 C2833 1.363 . S
C2839 C2834 1.379 . S
C2839 N2837 1.356 . S
N2840 C2832 1.356 . S
N2840 H2846 0.984 . S
N2840 H2847 0.984 . S
N2841 C2834 1.356 . S
N2841 H2844 0.984 . S
N2841 H2845 0.985 . S
H2842 N2837 0.984 . S
H2843 N2837 0.985 . S
H2844 N2841 0.984 . S
H2845 N2841 0.985 . S
H2846 N2840 0.984 . S
H2847 N2840 0.984 . S
H2848 N2836 0.984 . S
H2849 N2836 0.985 . S
C2850 C2851 1.363 . S
C2850 C2856 1.379 . S
C2850 N2858 1.356 . S
C2851 C2850 1.363 . S
C2851 C2857 1.363 . S
C2852 C2853 1.363 . S
C2852 C2857 1.379 . S
C2852 N2859 1.356 . S
C2853 C2852 1.363 . S
C2853 C2856 1.363 . S
N2854 C2856 1.356 . S
N2854 H2866 0.984 . S
N2854 H2867 0.985 . S
N2855 C2857 1.356 . S
N2855 H2860 0.984 . S
N2855 H2861 0.985 . S
C2856 C2850 1.379 . S
C2856 C2853 1.363 . S
C2856 N2854 1.356 . S
C2857 C2851 1.363 . S
C2857 C2852 1.379 . S
C2857 N2855 1.356 . S
N2858 C2850 1.356 . S
N2858 H2864 0.984 . S
N2858 H2865 0.984 . S
N2859 C2852 1.356 . S
N2859 H2862 0.984 . S
N2859 H2863 0.985 . S
H2860 N2855 0.984 . S
H2861 N2855 0.985 . S
H2862 N2859 0.984 . S
H2863 N2859 0.985 . S
H2864 N2858 0.984 . S
H2865 N2858 0.984 . S
H2866 N2854 0.984 . S
H2867 N2854 0.985 . S
C2868 C2869 1.363 . S
C2868 C2874 1.379 . S
C2868 N2876 1.356 . S
C2869 C2868 1.363 . S
C2869 C2875 1.363 . S
C2870 C2871 1.363 . S
C2870 C2875 1.379 . S
C2870 N2877 1.356 . S
C2871 C2870 1.363 . S
C2871 C2874 1.363 . S
N2872 C2874 1.356 . S
N2872 H2884 0.984 . S
N2872 H2885 0.985 . S
N2873 C2875 1.356 . S
N2873 H2878 0.984 . S
N2873 H2879 0.985 . S
C2874 C2868 1.379 . S
C2874 C2871 1.363 . S
C2874 N2872 1.356 . S
C2875 C2869 1.363 . S
C2875 C2870 1.379 . S
C2875 N2873 1.356 . S
N2876 C2868 1.356 . S
N2876 H2882 0.984 . S
N2876 H2883 0.984 . S
N2877 C2870 1.356 . S
N2877 H2880 0.984 . S
N2877 H2881 0.985 . S
H2878 N2873 0.984 . S
H2879 N2873 0.985 . S
H2880 N2877 0.984 . S
H2881 N2877 0.985 . S
H2882 N2876 0.984 . S
H2883 N2876 0.984 . S
H2884 N2872 0.984 . S
H2885 N2872 0.985 . S
C2886 C2887 1.363 . S
C2886 C2892 1.379 . S
C2886 N2894 1.356 . S
C2887 C2886 1.363 . S
C2887 C2893 1.363 . S
C2888 C2889 1.363 . S
C2888 C2893 1.379 . S
C2888 N2895 1.356 . S
C2889 C2888 1.363 . S
C2889 C2892 1.363 . S
N2890 C2892 1.356 . S
N2890 H2902 0.984 . S
N2890 H2903 0.985 . S
N2891 C2893 1.356 . S
N2891 H2896 0.984 . S
N2891 H2897 0.985 . S
C2892 C2886 1.379 . S
C2892 C2889 1.363 . S
C2892 N2890 1.356 . S
C2893 C2887 1.363 . S
C2893 C2888 1.379 . S
C2893 N2891 1.356 . S
N2894 C2886 1.356 . S
N2894 H2900 0.984 . S
N2894 H2901 0.984 . S
N2895 C2888 1.356 . S
N2895 H2898 0.984 . S
N2895 H2899 0.985 . S
H2896 N2891 0.984 . S
H2897 N2891 0.985 . S
H2898 N2895 0.984 . S
H2899 N2895 0.985 . S
H2900 N2894 0.984 . S
H2901 N2894 0.984 . S
H2902 N2890 0.984 . S
H2903 N2890 0.985 . S
C2904 C2905 1.363 . S
C2904 C2910 1.379 . S
C2904 N2912 1.356 . S
C2905 C2904 1.363 . S
C2905 C2911 1.363 . S
C2906 C2907 1.363 . S
C2906 C2911 1.379 . S
C2906 N2913 1.356 . S
C2907 C2906 1.363 . S
C2907 C2910 1.363 . S
N2908 C2910 1.356 . S
N2908 H2920 0.984 . S
N2908 H2921 0.985 . S
N2909 C2911 1.356 . S
N2909 H2914 0.984 . S
N2909 H2915 0.985 . S
C2910 C2904 1.379 . S
C2910 C2907 1.363 . S
C2910 N2908 1.356 . S
C2911 C2905 1.363 . S
C2911 C2906 1.379 . S
C2911 N2909 1.356 . S
N2912 C2904 1.356 . S
N2912 H2918 0.984 . S
N2912 H2919 0.984 . S
N2913 C2906 1.356 . S
N2913 H2916 0.984 . S
N2913 H2917 0.985 . S
H2914 N2909 0.984 . S
H2915 N2909 0.985 . S
H2916 N2913 0.984 . S
H2917 N2913 0.985 . S
H2918 N2912 0.984 . S
H2919 N2912 0.984 . S
H2920 N2908 0.984 . S
H2921 N2908 0.985 . S
C2922 C2923 1.363 . S
C2922 C2928 1.379 . S
C2922 N2930 1.356 . S
C2923 C2922 1.363 . S
C2923 C2929 1.363 . S
C2924 C2925 1.363 . S
C2924 C2929 1.379 . S
C2924 N2931 1.356 . S
C2925 C2924 1.363 . S
C2925 C2928 1.363 . S
N2926 C2928 1.356 . S
N2926 H2938 0.984 . S
N2926 H2939 0.985 . S
N2927 C2929 1.356 . S
N2927 H2932 0.984 . S
N2927 H2933 0.985 . S
C2928 C2922 1.379 . S
C2928 C2925 1.363 . S
C2928 N2926 1.356 . S
C2929 C2923 1.363 . S
C2929 C2924 1.379 . S
C2929 N2927 1.356 . S
N2930 C2922 1.356 . S
N2930 H2936 0.984 . S
N2930 H2937 0.984 . S
N2931 C2924 1.356 . S
N2931 H2934 0.984 . S
N2931 H2935 0.985 . S
H2932 N2927 0.984 . S
H2933 N2927 0.985 . S
H2934 N2931 0.984 . S
H2935 N2931 0.985 . S
H2936 N2930 0.984 . S
H2937 N2930 0.984 . S
H2938 N2926 0.984 . S
H2939 N2926 0.985 . S
C2940 C2941 1.363 . S
C2940 C2946 1.379 . S
C2940 N2948 1.356 . S
C2941 C2940 1.363 . S
C2941 C2947 1.363 . S
C2942 C2943 1.363 . S
C2942 C2947 1.379 . S
C2942 N2949 1.356 . S
C2943 C2942 1.363 . S
C2943 C2946 1.363 . S
N2944 C2946 1.356 . S
N2944 H2956 0.984 . S
N2944 H2957 0.985 . S
N2945 C2947 1.356 . S
N2945 H2950 0.984 . S
N2945 H2951 0.985 . S
C2946 C2940 1.379 . S
C2946 C2943 1.363 . S
C2946 N2944 1.356 . S
C2947 C2941 1.363 . S
C2947 C2942 1.379 . S
C2947 N2945 1.356 . S
N2948 C2940 1.356 . S
N2948 H2954 0.984 . S
N2948 H2955 0.984 . S
N2949 C2942 1.356 . S
N2949 H2952 0.984 . S
N2949 H2953 0.985 . S
H2950 N2945 0.984 . S
H2951 N2945 0.985 . S
H2952 N2949 0.984 . S
H2953 N2949 0.985 . S
H2954 N2948 0.984 . S
H2955 N2948 0.984 . S
H2956 N2944 0.984 . S
H2957 N2944 0.985 . S
C2958 C2959 1.363 . S
C2958 C2964 1.379 . S
C2958 N2966 1.356 . S
C2959 C2958 1.363 . S
C2959 C2965 1.363 . S
C2960 C2961 1.363 . S
C2960 C2965 1.379 . S
C2960 N2967 1.356 . S
C2961 C2960 1.363 . S
C2961 C2964 1.363 . S
N2962 C2964 1.356 . S
N2962 H2974 0.984 . S
N2962 H2975 0.985 . S
N2963 C2965 1.356 . S
N2963 H2968 0.984 . S
N2963 H2969 0.985 . S
C2964 C2958 1.379 . S
C2964 C2961 1.363 . S
C2964 N2962 1.356 . S
C2965 C2959 1.363 . S
C2965 C2960 1.379 . S
C2965 N2963 1.356 . S
N2966 C2958 1.356 . S
N2966 H2972 0.984 . S
N2966 H2973 0.984 . S
N2967 C2960 1.356 . S
N2967 H2970 0.984 . S
N2967 H2971 0.985 . S
H2968 N2963 0.984 . S
H2969 N2963 0.985 . S
H2970 N2967 0.984 . S
H2971 N2967 0.985 . S
H2972 N2966 0.984 . S
H2973 N2966 0.984 . S
H2974 N2962 0.984 . S
H2975 N2962 0.985 . S
C2976 C2977 1.363 . S
C2976 C2982 1.379 . S
C2976 N2984 1.356 . S
C2977 C2976 1.363 . S
C2977 C2983 1.363 . S
C2978 C2979 1.363 . S
C2978 C2983 1.379 . S
C2978 N2985 1.356 . S
C2979 C2978 1.363 . S
C2979 C2982 1.363 . S
N2980 C2982 1.356 . S
N2980 H2992 0.984 . S
N2980 H2993 0.985 . S
N2981 C2983 1.356 . S
N2981 H2986 0.984 . S
N2981 H2987 0.985 . S
C2982 C2976 1.379 . S
C2982 C2979 1.363 . S
C2982 N2980 1.356 . S
C2983 C2977 1.363 . S
C2983 C2978 1.379 . S
C2983 N2981 1.356 . S
N2984 C2976 1.356 . S
N2984 H2990 0.984 . S
N2984 H2991 0.984 . S
N2985 C2978 1.356 . S
N2985 H2988 0.984 . S
N2985 H2989 0.985 . S
H2986 N2981 0.984 . S
H2987 N2981 0.985 . S
H2988 N2985 0.984 . S
H2989 N2985 0.985 . S
H2990 N2984 0.984 . S
H2991 N2984 0.984 . S
H2992 N2980 0.984 . S
H2993 N2980 0.985 . S
C2994 C2995 1.363 . S
C2994 C3000 1.379 . S
C2994 N3002 1.356 . S
C2995 C2994 1.363 . S
C2995 C3001 1.363 . S
C2996 C2997 1.363 . S
C2996 C3001 1.379 . S
C2996 N3003 1.356 . S
C2997 C2996 1.363 . S
C2997 C3000 1.363 . S
N2998 C3000 1.356 . S
N2998 H3010 0.984 . S
N2998 H3011 0.985 . S
N2999 C3001 1.356 . S
N2999 H3004 0.984 . S
N2999 H3005 0.985 . S
C3000 C2994 1.379 . S
C3000 C2997 1.363 . S
C3000 N2998 1.356 . S
C3001 C2995 1.363 . S
C3001 C2996 1.379 . S
C3001 N2999 1.356 . S
N3002 C2994 1.356 . S
N3002 H3008 0.984 . S
N3002 H3009 0.984 . S
N3003 C2996 1.356 . S
N3003 H3006 0.984 . S
N3003 H3007 0.985 . S
H3004 N2999 0.984 . S
H3005 N2999 0.985 . S
H3006 N3003 0.984 . S
H3007 N3003 0.985 . S
H3008 N3002 0.984 . S
H3009 N3002 0.984 . S
H3010 N2998 0.984 . S
H3011 N2998 0.985 . S
C3012 C3013 1.363 . S
C3012 C3018 1.379 . S
C3012 N3020 1.356 . S
C3013 C3012 1.363 . S
C3013 C3019 1.363 . S
C3014 C3015 1.363 . S
C3014 C3019 1.379 . S
C3014 N3021 1.356 . S
C3015 C3014 1.363 . S
C3015 C3018 1.363 . S
N3016 C3018 1.356 . S
N3016 H3028 0.984 . S
N3016 H3029 0.985 . S
N3017 C3019 1.356 . S
N3017 H3022 0.984 . S
N3017 H3023 0.985 . S
C3018 C3012 1.379 . S
C3018 C3015 1.363 . S
C3018 N3016 1.356 . S
C3019 C3013 1.363 . S
C3019 C3014 1.379 . S
C3019 N3017 1.356 . S
N3020 C3012 1.356 . S
N3020 H3026 0.984 . S
N3020 H3027 0.984 . S
N3021 C3014 1.356 . S
N3021 H3024 0.984 . S
N3021 H3025 0.985 . S
H3022 N3017 0.984 . S
H3023 N3017 0.985 . S
H3024 N3021 0.984 . S
H3025 N3021 0.985 . S
H3026 N3020 0.984 . S
H3027 N3020 0.984 . S
H3028 N3016 0.984 . S
H3029 N3016 0.985 . S
C3030 C3031 1.363 . S
C3030 C3036 1.379 . S
C3030 N3038 1.356 . S
C3031 C3030 1.363 . S
C3031 C3037 1.363 . S
C3032 C3033 1.363 . S
C3032 C3037 1.379 . S
C3032 N3039 1.356 . S
C3033 C3032 1.363 . S
C3033 C3036 1.363 . S
N3034 C3036 1.356 . S
N3034 H3046 0.984 . S
N3034 H3047 0.985 . S
N3035 C3037 1.356 . S
N3035 H3040 0.984 . S
N3035 H3041 0.985 . S
C3036 C3030 1.379 . S
C3036 C3033 1.363 . S
C3036 N3034 1.356 . S
C3037 C3031 1.363 . S
C3037 C3032 1.379 . S
C3037 N3035 1.356 . S
N3038 C3030 1.356 . S
N3038 H3044 0.984 . S
N3038 H3045 0.984 . S
N3039 C3032 1.356 . S
N3039 H3042 0.984 . S
N3039 H3043 0.985 . S
H3040 N3035 0.984 . S
H3041 N3035 0.985 . S
H3042 N3039 0.984 . S
H3043 N3039 0.985 . S
H3044 N3038 0.984 . S
H3045 N3038 0.984 . S
H3046 N3034 0.984 . S
H3047 N3034 0.985 . S
C1755 C1482 1.080 . S
C1753 C1400 1.105 . S
C1771 C1280 1.113 . S
C1773 C1476 1.091 . S
C1791 C1444 1.195 . S
C1789 C1220 1.241 . S
C1807 C1340 1.269 . S
C1809 C1458 1.204 . S
C1827 C1496 1.538 . S
C1825 C980 1.627 . S
C1845 C1583 1.117 . S
C1843 C1040 1.156 . S
C1861 C1100 1.638 . S
C1863 C1510 1.615 . S
C1881 C1578 0.832 . S
C1879 C1160 0.836 . S
C1897 C740 1.660 . S
C1899 C1534 1.593 . S
C1917 C1589 1.170 . S
C1915 C800 1.186 . S
C1933 C860 1.614 . S
C1935 C1528 1.571 . S
C1951 C920 0.876 . S
C1953 C1574 0.878 . S
C1971 C1630 0.867 . S
C1969 C680 0.866 . S
C1987 C560 1.192 . S
C1989 C1641 1.189 . S
C2005 C500 0.930 . S
C2007 C1626 0.924 . S
C2025 C1635 1.245 . S
C2023 C620 1.263 . S
C2041 C260 1.214 1_455 S
C2043 C1680 1.183 . S
C2059 C320 0.489 . S
C2061 C1739 0.519 . S
C2077 C380 1.341 . S
C2079 C1696 1.262 . S
C2095 C440 0.865 . S
C2097 C1734 0.848 . S
C2115 C1698 1.297 . S
C2113 C20 1.349 . S
C2133 C1745 0.501 . S
C2131 C80 0.473 . S
C2149 C140 1.192 . S
C2151 C1674 1.146 . S
C2169 C1730 0.831 . S
C2167 C200 0.831 . S
C2187 C1466 2.021 . S
C2185 C31 2.134 . S
C2203 C61 1.618 . S
C2205 C1470 1.837 . S
C2221 C121 1.891 . S
C2223 C1490 2.017 . S
C2239 C211 1.570 . S
C2241 C1485 1.693 . S
C2257 C271 2.198 1_455 S
C2259 C1488 2.054 . S
C2277 C1474 1.830 . S
C2275 C331 1.895 . S
C2293 C361 1.831 . S
C2295 C1472 1.988 . S
C2313 C1479 1.698 . S
C2311 C421 1.308 . S
C2331 C1542 2.042 . S
C2329 C181 1.881 . S
C2347 C1 2.033 . S
C2349 C1592 2.320 . S
C2367 C1540 1.696 . S
C2365 C91 1.826 . S
C2385 C1576 2.227 . S
C2383 C151 2.202 . S
C2401 C301 1.503 . S
C2403 C1518 1.653 . S
C2421 C1594 2.293 . S
C2419 C391 2.295 . S
C2439 C1524 2.009 . S
C2437 C451 2.133 . S
C2457 C1570 2.259 . S
C2455 C241 1.995 1_455 S
C2475 C1562 2.161 . S
C2473 C511 2.078 . S
C2491 C571 2.004 . S
C2493 C1586 2.127 . S
C2511 C1522 1.812 . S
C2509 C481 1.550 . S
C2529 C1548 2.152 . S
C2527 C601 1.726 1_554 S
C2545 C691 1.798 . S
C2547 C1526 1.752 . S
C2563 C661 1.742 . S
C2565 C1580 2.133 . S
C2583 C1537 2.115 . S
C2581 C541 1.700 . S
C2601 C1531 2.173 . S
C2599 C631 2.040 1_554 S
C2619 C1614 2.465 . S
C2617 C751 2.401 . S
C2637 C1646 2.251 . S
C2635 C781 1.833 . S
C2653 C841 2.102 . S
C2655 C1600 2.445 . S
C2673 C1644 1.879 . S
C2671 C931 1.796 . S
C2691 C1632 2.416 . S
C2689 C991 2.347 . S
C2707 C1051 2.089 . S
C2709 C1628 2.207 . S
C2725 C1081 2.105 . S
C2727 C1638 2.504 . S
C2745 C1622 1.840 . S
C2743 C1141 1.465 . S
C2763 C1687 2.022 . S
C2761 C901 1.749 . S
C2779 C721 1.883 . S
C2781 C1748 2.269 . S
C2799 C1682 1.898 . S
C2797 C811 1.766 . S
C2817 C1732 2.281 . S
C2815 C871 2.170 . S
C2835 C1678 1.822 . S
C2833 C1021 1.415 . S
C2851 C1111 2.079 . S
C2853 C1750 2.195 . S
C2871 C1693 1.956 . S
C2869 C1171 2.007 . S
C2889 C1726 2.129 . S
C2887 C961 1.785 . S
C2907 C1718 2.226 . S
C2905 C1231 2.209 . S
C2923 C1291 2.204 . S
C2925 C1742 2.230 . S
C2943 C1684 1.888 . S
C2941 C1201 1.726 . S
C2959 C1321 2.013 . S
C2961 C1704 2.290 . S
C2979 C1666 1.921 . S
C2977 C1411 2.054 . S
C2997 C1736 2.163 . S
C2995 C1381 1.857 . S
C3015 C1652 1.929 . S
C3013 C1261 1.793 . S
C3031 C1351 2.040 . S
C3033 C1690 1.899 . S
