# Generated by pormake.
# Topology zzz, (3,6)-cn, num edge types: 1
# Building blocks:
#     Node 0, Type 0, BuildingBlock: CUQRIR_clean_linker_1, # of connection points: 3
#     Node 1, Type 0, BuildingBlock: CUQRIR_clean_linker_1, # of connection points: 3
#     Node 2, Type 0, BuildingBlock: CUQRIR_clean_linker_1, # of connection points: 3
#     Node 3, Type 0, BuildingBlock: CUQRIR_clean_linker_1, # of connection points: 3
#     Node 4, Type 0, BuildingBlock: CUQRIR_clean_linker_1, # of connection points: 3
#     Node 5, Type 0, BuildingBlock: CUQRIR_clean_linker_1, # of connection points: 3
#     Node 6, Type 0, BuildingBlock: CUQRIR_clean_linker_1, # of connection points: 3
#     Node 7, Type 0, BuildingBlock: CUQRIR_clean_linker_1, # of connection points: 3
#     Node 8, Type 1, BuildingBlock: JUFBIX_clean_sbu_0, # of connection points: 6
#     Node 9, Type 1, BuildingBlock: JUFBIX_clean_sbu_0, # of connection points: 6
#     Node 10, Type 1, BuildingBlock: JUFBIX_clean_sbu_0, # of connection points: 6
#     Node 11, Type 1, BuildingBlock: JUFBIX_clean_sbu_0, # of connection points: 6
#     Edge 12, Type (0, 1), BuildingBlock: ZUJKAS_clean_linker_0, # of connection points: 2
#     Edge 13, Type (0, 1), BuildingBlock: ZUJKAS_clean_linker_0, # of connection points: 2
#     Edge 14, Type (0, 1), BuildingBlock: ZUJKAS_clean_linker_0, # of connection points: 2
#     Edge 15, Type (0, 1), BuildingBlock: ZUJKAS_clean_linker_0, # of connection points: 2
#     Edge 16, Type (0, 1), BuildingBlock: ZUJKAS_clean_linker_0, # of connection points: 2
#     Edge 17, Type (0, 1), BuildingBlock: ZUJKAS_clean_linker_0, # of connection points: 2
#     Edge 18, Type (0, 1), BuildingBlock: ZUJKAS_clean_linker_0, # of connection points: 2
#     Edge 19, Type (0, 1), BuildingBlock: ZUJKAS_clean_linker_0, # of connection points: 2
#     Edge 20, Type (0, 1), BuildingBlock: ZUJKAS_clean_linker_0, # of connection points: 2
#     Edge 21, Type (0, 1), BuildingBlock: ZUJKAS_clean_linker_0, # of connection points: 2
#     Edge 22, Type (0, 1), BuildingBlock: ZUJKAS_clean_linker_0, # of connection points: 2
#     Edge 23, Type (0, 1), BuildingBlock: ZUJKAS_clean_linker_0, # of connection points: 2
#     Edge 24, Type (0, 1), BuildingBlock: ZUJKAS_clean_linker_0, # of connection points: 2
#     Edge 25, Type (0, 1), BuildingBlock: ZUJKAS_clean_linker_0, # of connection points: 2
#     Edge 26, Type (0, 1), BuildingBlock: ZUJKAS_clean_linker_0, # of connection points: 2
#     Edge 27, Type (0, 1), BuildingBlock: ZUJKAS_clean_linker_0, # of connection points: 2
#     Edge 28, Type (0, 1), BuildingBlock: ZUJKAS_clean_linker_0, # of connection points: 2
#     Edge 29, Type (0, 1), BuildingBlock: ZUJKAS_clean_linker_0, # of connection points: 2
#     Edge 30, Type (0, 1), BuildingBlock: ZUJKAS_clean_linker_0, # of connection points: 2
#     Edge 31, Type (0, 1), BuildingBlock: ZUJKAS_clean_linker_0, # of connection points: 2
#     Edge 32, Type (0, 1), BuildingBlock: ZUJKAS_clean_linker_0, # of connection points: 2
#     Edge 33, Type (0, 1), BuildingBlock: ZUJKAS_clean_linker_0, # of connection points: 2
#     Edge 34, Type (0, 1), BuildingBlock: ZUJKAS_clean_linker_0, # of connection points: 2
#     Edge 35, Type (0, 1), BuildingBlock: ZUJKAS_clean_linker_0, # of connection points: 2
# Relax obj value: 0.138
# Max RMSD: 0.183
# Mean RMSD: 0.101
data_MOF--net-zzz--node1-JUFBIX_clean_sbu_0--node2-CUQRIR_clean_linker_1--edge1-ZUJKAS_clean_linker_0
_symmetry_space_group_name_H-M    P1
_symmetry_Int_Tables_number       1
_symmetry_cell_setting            triclinic
loop_
_symmetry_equiv_pos_as_xyz
'x, y, z'
_cell_length_a     63.845108
_cell_length_b     63.502205
_cell_length_c     20.694677
_cell_angle_alpha  82.778011
_cell_angle_beta   89.920431
_cell_angle_gamma 91.12434
loop_
_atom_site_label
_atom_site_type_symbol
_atom_site_fract_x
_atom_site_fract_y
_atom_site_fract_z
_atom_type_partial_charge
C0 C 0.77789 0.509 0.30259 0.0
N1 N 0.79903 0.50784 0.29814 0.0
N2 N 0.76876 0.50525 0.24588 0.0
C3 C 0.76625 0.51414 0.36153 0.0
C4 C 0.78506 0.50196 0.20674 0.0
N5 N 0.80341 0.50361 0.23836 0.0
C6 C 0.78307 0.49758 0.13715 0.0
H7 H 0.76433 0.49944 0.39632 0.0
H8 H 0.75049 0.52032 0.34843 0.0
H9 H 0.77529 0.52591 0.38615 0.0
H10 H 0.78418 0.51286 0.1047 0.0
H11 H 0.76781 0.48988 0.1282 0.0
H12 H 0.79589 0.48732 0.12417 0.0
C13 C 0.98518 0.74143 0.31007 0.0
N14 N 0.98677 0.76289 0.30509 0.0
N15 N 0.98613 0.73492 0.25017 0.0
C16 C 0.98268 0.727 0.37283 0.0
C17 C 0.98836 0.75311 0.2089 0.0
N18 N 0.98864 0.77005 0.24226 0.0
C19 C 0.99075 0.75435 0.13614 0.0
H20 H 0.9982 0.72512 0.39674 0.0
H21 H 0.97656 0.71112 0.36425 0.0
H22 H 0.97204 0.73411 0.40621 0.0
H23 H 0.97555 0.75886 0.113 0.0
H24 H 0.99536 0.73895 0.12098 0.0
H25 H 1.00256 0.76677 0.11814 0.0
C26 C 0.77031 0.01156 0.21128 0.0
N27 N 0.74936 0.01484 0.20894 0.0
N28 N 0.77872 0.01473 0.15045 0.0
C29 C 0.7824 0.00459 0.27215 0.0
C30 C 0.76222 0.02015 0.11132 0.0
N31 N 0.74448 0.0203 0.14678 0.0
C32 C 0.76325 0.02409 0.03815 0.0
H33 H 0.79888 0.01043 0.26759 0.0
H34 H 0.78249 0.98699 0.28014 0.0
H35 H 0.775 0.01034 0.31504 0.0
H36 H 0.76001 0.00892 0.01835 0.0
H37 H 0.77902 0.03011 0.02133 0.0
H38 H 0.75133 0.03563 0.01855 0.0
C39 C 0.51995 0.74187 0.21832 0.0
N40 N 0.51719 0.72062 0.2179 0.0
N41 N 0.51626 0.75244 0.1584 0.0
C42 C 0.52776 0.7522 0.27538 0.0
C43 C 0.51105 0.73695 0.12173 0.0
N44 N 0.51168 0.71768 0.15765 0.0
C45 C 0.50411 0.74076 0.05181 0.0
H46 H 0.51414 0.75615 0.30463 0.0
H47 H 0.53659 0.76713 0.25875 0.0
H48 H 0.53795 0.74133 0.30694 0.0
H49 H 0.4965 0.75638 0.04128 0.0
H50 H 0.49302 0.72809 0.04038 0.0
H51 H 0.51802 0.74074 0.01962 0.0
C52 C 0.24644 0.49887 0.24602 0.0
N53 N 0.22539 0.50125 0.24594 0.0
N54 N 0.25478 0.50373 0.30274 0.0
C55 C 0.25891 0.49265 0.19012 0.0
C56 C 0.23801 0.50892 0.33724 0.0
N57 N 0.22022 0.50758 0.30255 0.0
C58 C 0.23883 0.51341 0.40695 0.0
H59 H 0.25949 0.47507 0.19464 0.0
H60 H 0.27519 0.49907 0.19066 0.0
H61 H 0.25141 0.49838 0.143 0.0
H62 H 0.2405 0.5308 0.40768 0.0
H63 H 0.25238 0.50562 0.43281 0.0
H64 H 0.22423 0.50782 0.43343 0.0
C65 C 0.02987 0.26086 0.23574 0.0
N66 N 0.02725 0.23944 0.24096 0.0
N67 N 0.02823 0.26765 0.2951 0.0
C68 C 0.03308 0.27519 0.17299 0.0
C69 C 0.02468 0.24971 0.33645 0.0
N70 N 0.024 0.23262 0.30367 0.0
C71 C 0.02301 0.24889 0.40931 0.0
H72 H 0.02752 0.2914 0.17726 0.0
H73 H 0.0248 0.26866 0.13253 0.0
H74 H 0.05006 0.27626 0.16134 0.0
H75 H 0.0063 0.25007 0.42286 0.0
H76 H 0.03181 0.26232 0.42665 0.0
H77 H 0.02906 0.23373 0.43419 0.0
C78 C 0.25523 0.99476 0.3438 0.0
N79 N 0.27644 0.99553 0.3452 0.0
N80 N 0.24727 0.99277 0.40532 0.0
C81 C 0.24237 0.99602 0.28285 0.0
C82 C 0.26448 0.99256 0.44375 0.0
N83 N 0.28208 0.99422 0.40716 0.0
C84 C 0.26411 0.99091 0.51695 0.0
H85 H 0.22732 0.98711 0.29207 0.0
H86 H 0.25107 0.98971 0.24324 0.0
H87 H 0.23889 0.0129 0.26659 0.0
H88 H 0.26358 0.97389 0.53735 0.0
H89 H 0.25006 0.99862 0.53412 0.0
H90 H 0.27833 0.99828 0.53588 0.0
C91 C 0.50428 0.26361 0.33303 0.0
N92 N 0.50558 0.28492 0.33361 0.0
N93 N 0.50873 0.25331 0.39273 0.0
C94 C 0.49744 0.25291 0.27563 0.0
C95 C 0.51298 0.26911 0.4293 0.0
N96 N 0.51095 0.28832 0.39358 0.0
C97 C 0.52078 0.26565 0.49838 0.0
H98 H 0.487 0.26327 0.24334 0.0
H99 H 0.48923 0.23759 0.29186 0.0
H100 H 0.5115 0.24965 0.24721 0.0
H101 H 0.52952 0.25064 0.50748 0.0
H102 H 0.5072 0.26453 0.53222 0.0
H103 H 0.53113 0.27903 0.50896 0.0
Co104 Co 0.01978 0.01029 0.81178 0.0
C105 C 0.97678 0.00496 0.83009 0.0
Co106 Co 0.00472 0.99093 0.74221 0.0
C107 C 0.02692 0.04717 0.87849 0.0
C108 C 0.0481 0.02229 0.91021 0.0
N109 N 0.03216 0.02727 0.86873 0.0
N110 N 0.03886 0.05473 0.92456 0.0
C111 C 0.05217 0.03908 0.94481 0.0
H112 H 0.01431 0.05582 0.8531 0.0
H113 H 0.05622 0.00739 0.91508 0.0
C114 C 0.04768 0.99626 0.72373 0.0
N115 N 0.99225 0.97402 0.68539 0.0
C116 C 0.99786 0.95447 0.67325 0.0
C117 C 0.97531 0.97856 0.64788 0.0
N118 N 0.98506 0.94653 0.62971 0.0
C119 C 0.97089 0.9618 0.61361 0.0
C120 C 0.00672 0.03351 0.69646 0.0
O121 O 0.04643 0.00658 0.77252 0.0
O122 O 0.03116 0.98791 0.70283 0.0
O123 O 1.00031 0.01561 0.68217 0.0
O124 O 0.01555 0.03458 0.75091 0.0
O125 O 0.97823 0.99418 0.78246 0.0
H126 H 0.96669 0.99313 0.64569 0.0
H127 H 0.01094 0.94614 0.69691 0.0
O128 O 0.99318 0.01377 0.85013 0.0
O129 O 0.0238 0.98568 0.87228 0.0
O130 O 0.00939 0.96653 0.80253 0.0
C131 C 0.01785 0.96769 0.8575 0.0
H132 H 0.06417 0.03983 0.98142 0.0
H133 H 0.95828 0.96113 0.57906 0.0
Co134 Co 0.50366 0.00881 0.81681 0.0
C135 C 0.51202 0.96577 0.83874 0.0
Co136 Co 0.5227 0.99763 0.73862 0.0
C137 C 0.46874 0.01027 0.90607 0.0
C138 C 0.4914 0.03514 0.91322 0.0
N139 N 0.48733 0.01823 0.88162 0.0
N140 N 0.46096 0.02162 0.95152 0.0
C141 C 0.47532 0.03724 0.95611 0.0
H142 H 0.4609 0.99666 0.88967 0.0
H143 H 0.50514 0.04539 0.90524 0.0
C144 C 0.51437 0.04065 0.71645 0.0
N145 N 0.53901 0.98828 0.67355 0.0
C146 C 0.55828 0.99534 0.65263 0.0
C147 C 0.53393 0.973 0.63619 0.0
N148 N 0.56531 0.98518 0.60354 0.0
C149 C 0.54999 0.97117 0.59291 0.0
C150 C 0.48006 0.99553 0.71633 0.0
O151 O 0.50453 0.03674 0.77032 0.0
O152 O 0.52379 0.02568 0.69387 0.0
O153 O 0.49785 0.99208 0.69266 0.0
O154 O 0.47911 0.00267 0.77089 0.0
O155 O 0.52145 0.96964 0.78417 0.0
H156 H 0.51947 0.96376 0.64016 0.0
H157 H 0.56687 0.00794 0.6723 0.0
O158 O 0.50297 0.98081 0.86225 0.0
O159 O 0.52858 0.01493 0.86214 0.0
O160 O 0.54716 0.00332 0.78524 0.0
C161 C 0.54632 0.01102 0.83889 0.0
H162 H 0.47444 0.04932 0.98845 0.0
H163 H 0.55052 0.96014 0.55709 0.0
Co164 Co 0.52773 0.50354 0.78847 0.0
C165 C 0.50693 0.47115 0.86655 0.0
Co166 Co 0.49361 0.5026 0.76934 0.0
C167 C 0.56678 0.50393 0.86013 0.0
C168 C 0.57155 0.50586 0.75712 0.0
N169 N 0.55641 0.50452 0.80299 0.0
N170 N 0.5878 0.50472 0.85167 0.0
C171 C 0.59081 0.50594 0.78679 0.0
H172 H 0.55903 0.50264 0.90705 0.0
H173 H 0.56875 0.50676 0.70531 0.0
C174 C 0.51444 0.53494 0.69138 0.0
N175 N 0.46493 0.50153 0.75483 0.0
C176 C 0.45465 0.50233 0.69752 0.0
C177 C 0.44977 0.49929 0.80064 0.0
N178 N 0.43362 0.50068 0.70572 0.0
C179 C 0.43057 0.49876 0.77074 0.0
C180 C 0.50518 0.52837 0.86298 0.0
O181 O 0.53036 0.52744 0.72252 0.0
O182 O 0.49653 0.52626 0.70381 0.0
O183 O 0.48964 0.52145 0.8329 0.0
O184 O 0.52348 0.52232 0.85101 0.0
O185 O 0.49102 0.47865 0.8353 0.0
H186 H 0.45252 0.49789 0.85255 0.0
H187 H 0.46251 0.50419 0.65072 0.0
O188 O 0.5248 0.47993 0.85403 0.0
O189 O 0.53166 0.48445 0.72554 0.0
O190 O 0.49786 0.48405 0.70612 0.0
C191 C 0.51613 0.47788 0.69475 0.0
H192 H 0.60585 0.50714 0.76231 0.0
H193 H 0.41557 0.49665 0.79532 0.0
Co194 Co 0.01269 0.51765 0.77997 0.0
C195 C 0.0457 0.49447 0.84225 0.0
Co196 Co 0.01186 0.48311 0.77124 0.0
C197 C 1.00246 0.5567 0.8324 0.0
C198 C 0.03035 0.55987 0.77447 0.0
N199 N 0.01441 0.54621 0.79335 0.0
N200 N 0.01047 0.57616 0.83944 0.0
C201 C 0.02795 0.57821 0.80238 0.0
H202 H 0.98856 0.54987 0.85728 0.0
H203 H 0.04366 0.5563 0.74565 0.0
C204 C 0.97885 0.5063 0.70907 0.0
N205 N 0.01029 0.45448 0.75769 0.0
C206 C 0.02168 0.44457 0.71571 0.0
C207 C 0.99528 0.4401 0.7799 0.0
N208 N 0.01419 0.42483 0.71003 0.0
C209 C 0.99768 0.42193 0.75101 0.0
C210 C 0.99003 0.49275 0.87813 0.0
O211 O 0.98772 0.5223 0.72985 0.0
O212 O 0.98701 0.48812 0.7217 0.0
O213 O 0.99539 0.47735 0.84847 0.0
O214 O 0.99626 0.51141 0.85647 0.0
O215 O 0.03691 0.47848 0.8212 0.0
H216 H 0.98258 0.443 0.81204 0.0
H217 H 0.03483 0.4519 0.6879 0.0
O218 O 0.03747 0.51261 0.82976 0.0
O219 O 0.02923 0.52344 0.70286 0.0
O220 O 0.02814 0.48944 0.69449 0.0
C221 C 0.03437 0.50808 0.67281 0.0
H222 H 0.03905 0.5914 0.79902 0.0
H223 H 0.98721 0.4082 0.75659 0.0
H224 H 0.21643 0.02018 0.3673 0.0
H225 H 0.18099 0.02001 0.41398 0.0
H226 H 0.19481 0.96284 0.54133 0.0
H227 H 0.22957 0.96236 0.49165 0.0
H228 H 0.15628 0.96074 0.5012 0.0
H229 H 0.16906 0.03931 0.58631 0.0
H230 H 0.17128 0.0403 0.49959 0.0
H231 H 0.1898 0.02543 0.55165 0.0
C232 C 0.21162 0.00738 0.40422 0.0
C233 C 0.22572 0.99141 0.42655 0.0
C234 C 0.19154 0.00745 0.43167 0.0
C235 C 0.1854 0.99178 0.48277 0.0
C236 C 0.19918 0.97526 0.5026 0.0
H237 H 0.08724 0.00445 0.76691 0.0
H238 H 0.12041 0.00249 0.7085 0.0
C239 C 0.21907 0.97502 0.47452 0.0
C240 C 0.16491 0.99265 0.51684 0.0
H241 H 0.13498 0.02403 0.6012 0.0
C242 C 0.15164 0.97459 0.52309 0.0
C243 C 0.15898 0.01055 0.54671 0.0
C244 C 0.17311 0.02991 0.54641 0.0
C245 C 0.1327 0.9739 0.55805 0.0
C246 C 0.12639 0.9921 0.58571 0.0
C247 C 0.13967 0.01014 0.5796 0.0
C248 C 0.10622 0.99272 0.62174 0.0
C249 C 0.12004 0.95341 0.56667 0.0
C250 C 0.08713 0.98804 0.5925 0.0
C251 C 0.06823 0.98877 0.62625 0.0
C252 C 0.0679 0.99472 0.68947 0.0
C253 C 0.08697 0.99976 0.71837 0.0
C254 C 0.10593 0.99869 0.68493 0.0
H255 H 0.12999 0.93954 0.56163 0.0
H256 H 0.11222 0.95082 0.61504 0.0
H257 H 0.10784 0.954 0.52839 0.0
H258 H 0.08679 0.98408 0.54314 0.0
H259 H 0.0538 0.9851 0.60215 0.0
H260 H 0.48583 0.23389 0.49254 0.0
H261 H 0.48702 0.19646 0.53883 0.0
H262 H 0.5304 0.18458 0.38811 0.0
H263 H 0.5296 0.22235 0.34295 0.0
H264 H 0.4777 0.15926 0.48723 0.0
H265 H 0.56181 0.16334 0.55492 0.0
H266 H 0.54681 0.18677 0.53035 0.0
H267 H 0.55629 0.17113 0.4703 0.0
C268 C 0.49557 0.22321 0.46944 0.0
C269 C 0.5078 0.23089 0.41482 0.0
C270 C 0.4962 0.20187 0.49563 0.0
C271 C 0.5091 0.18779 0.46769 0.0
C272 C 0.52067 0.19525 0.41127 0.0
H273 H 0.53495 0.05467 0.60245 0.0
H274 H 0.53355 0.08986 0.53903 0.0
C275 C 0.52006 0.21669 0.38509 0.0
C276 C 0.51065 0.16551 0.49903 0.0
H277 H 0.54451 0.13008 0.57807 0.0
C278 C 0.49232 0.15285 0.50686 0.0
C279 C 0.52974 0.15718 0.52477 0.0
C280 C 0.54977 0.17031 0.5203 0.0
C281 C 0.49255 0.13213 0.53989 0.0
C282 C 0.51155 0.12396 0.56659 0.0
C283 C 0.52996 0.13642 0.55759 0.0
C284 C 0.51252 0.1027 0.60546 0.0
C285 C 0.47245 0.11911 0.54568 0.0
C286 C 0.50147 0.09839 0.66449 0.0
C287 C 0.50229 0.07833 0.701 0.0
C288 C 0.51422 0.06219 0.67922 0.0
C289 C 0.52556 0.0667 0.62056 0.0
C290 C 0.52478 0.0868 0.58421 0.0
H291 H 0.46075 0.1254 0.50887 0.0
H292 H 0.47542 0.10228 0.53983 0.0
H293 H 0.46555 0.11956 0.59471 0.0
H294 H 0.49223 0.11057 0.68241 0.0
H295 H 0.49343 0.07544 0.74603 0.0
H296 H 0.27744 0.53587 0.34146 0.0
H297 H 0.31167 0.53352 0.39507 0.0
H298 H 0.31452 0.46743 0.36728 0.0
H299 H 0.27996 0.46983 0.31445 0.0
H300 H 0.32102 0.47397 0.4939 0.0
H301 H 0.37168 0.52955 0.33287 0.0
H302 H 0.34768 0.54145 0.35322 0.0
H303 H 0.34692 0.51942 0.30631 0.0
C304 C 0.28568 0.52102 0.34562 0.0
C305 C 0.27625 0.50305 0.32388 0.0
C306 C 0.30525 0.51969 0.37581 0.0
C307 C 0.31583 0.50036 0.38452 0.0
C308 C 0.30673 0.48254 0.36061 0.0
H309 H 0.43803 0.49002 0.5829 0.0
H310 H 0.4105 0.48864 0.50107 0.0
C311 C 0.28712 0.48392 0.33018 0.0
C312 C 0.33514 0.49835 0.42478 0.0
H313 H 0.38334 0.52114 0.44376 0.0
C314 C 0.33477 0.48405 0.48236 0.0
C315 C 0.35319 0.51135 0.40957 0.0
C316 C 0.35502 0.52615 0.34677 0.0
C317 C 0.35149 0.48314 0.52656 0.0
C318 C 0.36894 0.4971 0.51335 0.0
C319 C 0.36982 0.51064 0.45426 0.0
C320 C 0.38588 0.49852 0.56183 0.0
C321 C 0.35021 0.46739 0.58751 0.0
C322 C 0.38129 0.50502 0.62252 0.0
C323 C 0.39696 0.50596 0.66914 0.0
C324 C 0.41768 0.50049 0.65618 0.0
C325 C 0.42234 0.49448 0.59458 0.0
C326 C 0.40659 0.49358 0.54779 0.0
H327 H 0.33906 0.45411 0.58179 0.0
H328 H 0.36582 0.46073 0.6006 0.0
H329 H 0.34461 0.47554 0.62849 0.0
H330 H 0.36551 0.50939 0.63384 0.0
H331 H 0.39282 0.51113 0.71526 0.0
H332 H 0.99592 0.28871 0.33556 0.0
H333 H 0.99801 0.32058 0.39097 0.0
H334 H 0.0646 0.32522 0.35452 0.0
H335 H 0.06231 0.29307 0.29914 0.0
H336 H 0.05443 0.3245 0.48422 0.0
H337 H 0.00651 0.38401 0.33648 0.0
H338 H 0.99303 0.35886 0.35344 0.0
H339 H 0.01653 0.36095 0.30468 0.0
C340 C 0.01079 0.2971 0.33733 0.0
C341 C 0.02889 0.28884 0.3125 0.0
C342 C 0.01203 0.31526 0.36892 0.0
C343 C 0.03143 0.32548 0.37629 0.0
C344 C 0.04944 0.31773 0.34884 0.0
H345 H 0.03233 0.43638 0.59147 0.0
H346 H 0.03995 0.41327 0.5087 0.0
C347 C 0.04815 0.29955 0.31684 0.0
C348 C 0.03304 0.34245 0.41946 0.0
H349 H 0.01106 0.38887 0.44949 0.0
C350 C 0.04525 0.33878 0.47602 0.0
C351 C 0.02123 0.36117 0.40861 0.0
C352 C 0.00876 0.36661 0.34714 0.0
C353 C 0.04506 0.35272 0.52362 0.0
C354 C 0.03209 0.37065 0.51487 0.0
C355 C 0.0208 0.37497 0.45663 0.0
C356 C 0.02907 0.38445 0.56692 0.0
C357 C 0.05853 0.34795 0.58328 0.0
C358 C 0.02048 0.37593 0.62732 0.0
C359 C 0.0162 0.38908 0.67489 0.0
C360 C 0.02031 0.41107 0.66303 0.0
C361 C 0.02926 0.4195 0.60281 0.0
C362 C 0.03349 0.40633 0.55515 0.0
H363 H 0.07198 0.33792 0.5737 0.0
H364 H 0.06465 0.36278 0.60034 0.0
H365 H 0.049 0.33912 0.62304 0.0
H366 H 0.01658 0.35916 0.63711 0.0
H367 H 0.00942 0.38205 0.72073 0.0
H368 H 0.81336 0.03747 0.17392 0.0
H369 H 0.8482 0.03505 0.12416 0.0
H370 H 0.82575 0.98259 0.02799 0.0
H371 H 0.7911 0.98499 0.07813 0.0
H372 H 0.87683 0.99847 0.1232 0.0
H373 H 0.8461 0.02971 0.87937 0.0
H374 H 0.83235 0.03255 0.95402 0.0
H375 H 0.83174 0.00755 0.92199 0.0
C376 C 0.81615 0.02514 0.14342 0.0
C377 C 0.79978 0.01133 0.12986 0.0
C378 C 0.83591 0.02383 0.11479 0.0
C379 C 0.83943 0.00882 0.07174 0.0
C380 C 0.82328 0.99444 0.06044 0.0
H381 H 0.93972 0.98441 0.80946 0.0
H382 H 0.90683 0.98533 0.86979 0.0
C383 C 0.80361 0.99571 0.08921 0.0
C384 C 0.85961 0.0088 0.03612 0.0
H385 H 0.88107 0.0181 0.88367 0.0
C386 C 0.87784 0.00283 0.0709 0.0
C387 C 0.86079 0.01446 0.96787 0.0
C388 C 0.84177 0.0216 0.92843 0.0
C389 C 0.8972 1.00192 0.03894 0.0
C390 C 0.89842 0.00765 0.97057 0.0
C391 C 0.88015 0.01371 0.93598 0.0
C392 C 0.91843 0.00734 0.9338 0.0
C393 C 0.91602 0.99425 0.07848 0.0
C394 C 0.93578 0.01975 0.94872 0.0
C395 C 0.95464 0.0192 0.91448 0.0
C396 C 0.95646 0.0064 0.86402 0.0
C397 C 0.93888 0.99442 0.84802 0.0
C398 C 0.92006 0.99491 0.88254 0.0
H399 H 0.91136 0.98495 0.12557 0.0
H400 H 0.926 0.98423 0.05125 0.0
H401 H 0.92556 0.00815 0.08945 0.0
H402 H 0.93475 0.02992 0.98683 0.0
H403 H 0.96781 0.02875 0.92778 0.0
H404 H 0.49587 0.78399 0.20636 0.0
H405 H 0.49531 0.82154 0.15836 0.0
H406 H 0.53992 0.80847 0.01256 0.0
H407 H 0.54047 0.77114 0.06064 0.0
H408 H 0.52899 0.85359 0.12752 0.0
H409 H 0.48768 0.83183 0.90866 0.0
H410 H 0.48921 0.81398 0.9836 0.0
H411 H 0.51125 0.81749 0.92894 0.0
C412 C 0.5058 0.78936 0.16487 0.0
C413 C 0.51807 0.77483 0.13659 0.0
C414 C 0.50543 0.81069 0.13738 0.0
C415 C 0.51728 0.81765 0.08119 0.0
C416 C 0.53037 0.80333 0.05516 0.0
H417 H 0.53177 0.93076 0.80583 0.0
H418 H 0.53273 0.89538 0.86769 0.0
C419 C 0.53074 0.7821 0.0826 0.0
C420 C 0.51533 0.83957 0.04768 0.0
H421 H 0.50007 0.86742 0.90407 0.0
C422 C 0.52254 0.85669 0.07887 0.0
C423 C 0.50687 0.84351 0.98426 0.0
C424 C 0.49813 0.82578 0.94945 0.0
C425 C 0.52215 0.87765 0.04735 0.0
C426 C 0.51393 0.88155 0.98351 0.0
C427 C 0.50642 0.86441 0.95287 0.0
C428 C 0.51335 0.9032 0.94683 0.0
C429 C 0.53116 0.89532 0.08182 0.0
C430 C 0.50188 0.91931 0.97026 0.0
C431 C 0.50132 0.9396 0.93502 0.0
C432 C 0.5121 0.94413 0.87535 0.0
C433 C 0.52331 0.92785 0.85158 0.0
C434 C 0.52389 0.9076 0.88692 0.0
H435 H 0.5415 0.88918 0.12277 0.0
H436 H 0.54026 0.90691 0.04757 0.0
H437 H 0.51817 0.90385 0.1021 0.0
H438 H 0.49322 0.91615 0.01558 0.0
H439 H 0.49243 0.95173 0.95456 0.0
H440 H 0.74345 0.47199 0.2313 0.0
H441 H 0.70922 0.4734 0.17686 0.0
H442 H 0.7113 0.54177 0.16371 0.0
H443 H 0.74583 0.54018 0.21679 0.0
H444 H 0.66999 0.49027 0.19578 0.0
H445 H 0.70922 0.53115 0.97352 0.0
H446 H 0.72368 0.51931 0.04312 0.0
H447 H 0.7118 0.5447 0.04428 0.0
C448 C 0.73621 0.48721 0.21817 0.0
C449 C 0.74704 0.50597 0.22786 0.0
C450 C 0.71676 0.48805 0.18703 0.0
C451 C 0.70788 0.50771 0.16504 0.0
C452 C 0.71804 0.52644 0.17914 0.0
H453 H 0.58528 0.51959 0.96898 0.0
H454 H 0.61337 0.52071 0.04931 0.0
C455 C 0.73757 0.52557 0.20996 0.0
C456 C 0.68909 0.50854 0.12247 0.0
H457 H 0.67286 0.5251 0.96748 0.0
C458 C 0.67053 0.498 0.14598 0.0
C459 C 0.68995 0.51832 0.0571 0.0
C460 C 0.70976 0.52885 0.02761 0.0
C461 C 0.65287 0.49688 0.1058 0.0
C462 C 0.6537 0.50685 0.04066 0.0
C463 C 0.67219 0.51757 0.0175 0.0
C464 C 0.63612 0.50541 0.99415 0.0
C465 C 0.63377 0.48438 0.13272 0.0
C466 C 0.63958 0.49669 0.93608 0.0
C467 C 0.62366 0.49621 0.89005 0.0
C468 C 0.60385 0.50443 0.90088 0.0
C469 C 0.60027 0.51288 0.95954 0.0
C470 C 0.6163 0.51349 0.00556 0.0
H471 H 0.6374 0.47358 0.17763 0.0
H472 H 0.62167 0.49554 0.14512 0.0
H473 H 0.62703 0.4748 0.09617 0.0
H474 H 0.65471 0.49032 0.92619 0.0
H475 H 0.62687 0.48931 0.84592 0.0
H476 H 0.01942 0.71151 0.23095 0.0
H477 H 0.01945 0.68032 0.1717 0.0
H478 H 0.95188 0.68046 0.16632 0.0
H479 H 0.9521 0.71205 0.2242 0.0
H480 H 1.00224 0.63969 0.18551 0.0
H481 H 0.96782 0.68991 0.97435 0.0
H482 H 0.97744 0.70077 0.04532 0.0
H483 H 0.95228 0.68746 0.04738 0.0
C484 C 0.00464 0.70432 0.2189 0.0
C485 C 0.98576 0.71383 0.23223 0.0
C486 C 0.00462 0.68666 0.18482 0.0
C487 C 0.98568 0.67832 0.16339 0.0
C488 C 0.96669 0.68687 0.18126 0.0
H489 H 0.98705 0.56652 0.95006 0.0
H490 H 0.97853 0.59032 0.02988 0.0
C491 C 0.96676 0.70466 0.21497 0.0
C492 C 0.98609 0.6621 0.1175 0.0
H493 H 0.97473 0.65452 0.96065 0.0
C494 C 0.99606 0.64282 0.13652 0.0
C495 C 0.97833 0.66639 0.05317 0.0
C496 C 0.96853 0.68731 0.02841 0.0
C497 C 0.99876 0.62783 0.09276 0.0
C498 C 0.99089 0.63207 0.02856 0.0
C499 C 0.98059 0.6512 0.00998 0.0
C500 C 0.99461 0.61773 0.97832 0.0
C501 C 0.01085 0.60804 0.11484 0.0
C502 C 0.00563 0.62542 0.92119 0.0
C503 C 0.01019 0.61197 0.8748 0.0
C504 C 0.00388 0.59045 0.8844 0.0
C505 C 0.99213 0.58296 0.94063 0.0
C506 C 0.98748 0.59651 0.98695 0.0
H507 H 0.01998 0.60956 0.15975 0.0
H508 H 0.99971 0.59441 0.12558 0.0
H509 H 0.0218 0.60438 0.07621 0.0
H510 H 0.01112 0.6418 0.91308 0.0
H511 H 0.01888 0.61842 0.83167 0.0
H512 H 0.0497 0.20027 0.29055 0.0
H513 H 0.04529 0.16328 0.34056 0.0
H514 H 0.98813 0.17961 0.43259 0.0
H515 H 0.99203 0.21619 0.37956 0.0
H516 H 0.04562 0.14956 0.46536 0.0
H517 H 0.96975 0.12563 0.3667 0.0
H518 H 0.98399 0.14929 0.33261 0.0
H519 H 0.96732 0.14968 0.40282 0.0
C520 C 0.03603 0.19571 0.32044 0.0
C521 C 0.02118 0.21085 0.33157 0.0
C522 C 0.03352 0.17469 0.34902 0.0
C523 C 0.01618 0.16859 0.38943 0.0
C524 C 1.0013 0.18378 0.40018 0.0
H525 H 0.01147 0.07449 0.72007 0.0
H526 H 0.01331 0.10619 0.64028 0.0
C527 C 0.00369 0.20469 0.37091 0.0
C528 C 0.01465 0.14694 0.42544 0.0
H529 H 0.98061 0.10535 0.46778 0.0
C530 C 0.03152 0.13976 0.46503 0.0
C531 C 0.99642 0.13396 0.42416 0.0
C532 C 0.97846 0.13995 0.37866 0.0
C533 C 0.03026 0.12045 0.50589 0.0
C534 C 0.01137 0.10835 0.50871 0.0
C535 C 0.99491 0.11491 0.46655 0.0
C536 C 0.00826 0.08929 0.5569 0.0
C537 C 0.04917 0.1133 0.5459 0.0
C538 C 0.0036 0.06945 0.53669 0.0
C539 C 1.00217 0.05128 0.58242 0.0
C540 C 0.00547 0.05277 0.64887 0.0
C541 C 0.00914 0.07282 0.6691 0.0
C542 C 0.01034 0.09092 0.62355 0.0
H543 H 0.06389 0.12037 0.52313 0.0
H544 H 0.04782 0.11859 0.59482 0.0
H545 H 0.0504 0.09574 0.55209 0.0
H546 H 1.00174 0.06793 0.48545 0.0
H547 H 0.9993 0.03603 0.56549 0.0
H548 H 0.30399 0.02444 0.45897 0.0
H549 H 0.34013 0.02192 0.5001 0.0
H550 H 0.3437 0.95864 0.44586 0.0
H551 H 0.3075 0.96131 0.405 0.0
H552 H 0.35557 0.96267 0.57678 0.0
H553 H 0.39626 0.02194 0.39749 0.0
H554 H 0.37279 0.03147 0.43098 0.0
H555 H 0.37111 0.01012 0.38176 0.0
C556 C 0.31267 0.01011 0.45592 0.0
C557 C 0.30325 0.99295 0.42996 0.0
C558 C 0.33323 0.00872 0.47867 0.0
C559 C 0.34458 0.99016 0.47535 0.0
C560 C 0.33519 0.9731 0.44851 0.0
H561 H 0.47641 0.98355 0.59415 0.0
H562 H 0.44412 0.9797 0.53241 0.0
C563 C 0.31466 0.97457 0.42548 0.0
C564 C 0.36571 0.98812 0.50409 0.0
H565 H 0.41445 0.01127 0.49712 0.0
C566 C 0.36855 0.97309 0.55894 0.0
C567 C 0.38264 1.0015 0.47994 0.0
C568 C 0.38068 0.01704 0.41891 0.0
C569 C 0.38765 0.97183 0.59239 0.0
C570 C 0.40415 0.98617 0.57082 0.0
C571 C 0.40167 1.00046 0.51395 0.0
C572 C 0.42361 0.98749 0.60886 0.0
C573 C 0.38991 0.95532 0.65098 0.0
C574 C 0.4227 0.99322 0.67205 0.0
C575 C 0.44103 0.99545 0.70735 0.0
C576 C 0.46066 0.99208 0.67993 0.0
C577 C 0.46153 0.98618 0.6167 0.0
C578 C 0.44313 0.98401 0.58132 0.0
H579 H 0.37861 0.94186 0.64946 0.0
H580 H 0.40603 0.94903 0.65433 0.0
H581 H 0.38668 0.96265 0.69581 0.0
H582 H 0.4078 0.99638 0.69366 0.0
H583 H 0.43981 1.00009 0.75581 0.0
H584 H 0.53371 0.32246 0.33849 0.0
H585 H 0.53559 0.35768 0.37503 0.0
H586 H 0.49648 0.33474 0.54044 0.0
H587 H 0.49276 0.30044 0.49974 0.0
H588 H 0.48439 0.3711 0.49514 0.0
H589 H 0.57087 0.37706 0.51243 0.0
H590 H 0.56215 0.37456 0.43143 0.0
H591 H 0.55754 0.35308 0.4958 0.0
C592 C 0.52537 0.32511 0.3822 0.0
C593 C 0.51316 0.30876 0.4166 0.0
C594 C 0.52673 0.34512 0.40372 0.0
C595 C 0.51661 0.34882 0.46149 0.0
C596 C 0.50454 0.33235 0.49592 0.0
H597 H 0.54251 0.44465 0.70945 0.0
H598 H 0.54298 0.41474 0.64576 0.0
C599 C 0.50262 0.31265 0.47325 0.0
C600 C 0.51793 0.36985 0.48591 0.0
H601 H 0.552 0.4075 0.53072 0.0
C602 C 0.49921 0.37901 0.50311 0.0
C603 C 0.53726 0.38017 0.49669 0.0
C604 C 0.55809 0.37062 0.48375 0.0
C605 C 0.49921 0.39765 0.53289 0.0
C606 C 0.5185 0.40828 0.54217 0.0
C607 C 0.53721 0.39949 0.5231 0.0
C608 C 0.51971 0.42756 0.57616 0.0
C609 C 0.47858 0.40495 0.55717 0.0
C610 C 0.50708 0.44513 0.55709 0.0
C611 C 0.50629 0.46186 0.59484 0.0
C612 C 0.51885 0.46176 0.65044 0.0
C613 C 0.53272 0.44508 0.66659 0.0
C614 C 0.53298 0.428 0.63016 0.0
H615 H 0.46672 0.3918 0.56391 0.0
H616 H 0.48047 0.41138 0.60432 0.0
H617 H 0.47228 0.41755 0.52081 0.0
H618 H 0.49736 0.44562 0.51416 0.0
H619 H 0.49566 0.47474 0.5811 0.0
H620 H 0.18918 0.47817 0.30926 0.0
H621 H 0.15408 0.48081 0.35569 0.0
H622 H 0.16928 0.54433 0.39638 0.0
H623 H 0.20422 0.54179 0.34818 0.0
H624 H 0.14821 0.48741 0.4854 0.0
H625 H 0.11012 0.55028 0.31751 0.0
H626 H 0.13275 0.53627 0.29435 0.0
H627 H 0.13578 0.55721 0.34466 0.0
C628 C 0.18475 0.49282 0.32681 0.0
C629 C 0.19919 0.5098 0.32541 0.0
C630 C 0.16481 0.49432 0.35338 0.0
C631 C 0.15902 0.51286 0.37877 0.0
C632 C 0.17329 0.53006 0.37589 0.0
H633 H 0.05963 0.54277 0.63437 0.0
H634 H 0.08867 0.5448 0.55602 0.0
C635 C 0.19324 0.52855 0.34914 0.0
C636 C 0.13898 0.51328 0.4145 0.0
H637 H 0.09279 0.53935 0.41866 0.0
C638 C 0.136 0.49863 0.47049 0.0
C639 C 0.12324 0.5281 0.39517 0.0
C640 C 0.12547 0.54377 0.33433 0.0
C641 C 0.11782 0.49858 0.50841 0.0
C642 C 0.102 0.51332 0.48903 0.0
C643 C 0.10494 0.52803 0.43307 0.0
C644 C 0.0825 0.51365 0.52747 0.0
C645 C 0.11595 0.48308 0.56989 0.0
C646 C 0.06895 0.49587 0.53499 0.0
C647 C 0.05251 0.4946 0.57983 0.0
C648 C 0.04921 0.5112 0.61748 0.0
C649 C 0.06182 0.52971 0.60618 0.0
C650 C 0.0784 0.5309 0.56149 0.0
H651 H 0.13136 0.47647 0.58581 0.0
H652 H 0.10914 0.49077 0.6102 0.0
H653 H 0.10542 0.46966 0.56085 0.0
H654 H 0.07167 0.48256 0.50824 0.0
H655 H 0.04288 0.48024 0.58676 0.0
H656 H 0.02149 0.79437 0.26946 0.0
H657 H 0.02975 0.83085 0.21966 0.0
H658 H 0.97328 0.83051 0.1054 0.0
H659 H 0.96505 0.79413 0.15578 0.0
H660 H 0.03488 0.8423 0.08105 0.0
H661 H 0.97254 0.88774 0.18511 0.0
H662 H 0.98051 0.86187 0.22237 0.0
H663 H 0.9633 0.86419 0.15333 0.0
C664 C 0.01078 0.80235 0.23447 0.0
C665 C 0.99271 0.79175 0.21602 0.0
C666 C 0.01547 0.82303 0.20609 0.0
C667 C 1.00199 0.83336 0.1595 0.0
C668 C 0.98369 0.82287 0.14205 0.0
H669 H 0.01209 0.92669 0.83464 0.0
H670 H 0.01156 0.89493 0.91443 0.0
C671 C 0.97908 0.80216 0.17019 0.0
C672 C 0.00778 0.85444 0.12503 0.0
H673 H 0.99008 0.90487 0.0897 0.0
C674 C 0.02531 0.8561 0.08366 0.0
C675 C 0.99539 0.87239 0.1293 0.0
C676 C 0.97698 0.8716 0.17537 0.0
C677 C 0.03009 0.87504 0.04347 0.0
C678 C 0.0169 0.89258 0.04462 0.0
C679 C 1.00007 0.8913 0.08873 0.0
C680 C 0.01912 0.9117 0.99641 0.0
C681 C 0.0489 0.87599 0.99894 0.0
C682 C 0.02353 0.93161 0.01633 0.0
C683 C 0.02392 0.94984 0.97074 0.0
C684 C 0.01955 0.94839 0.90483 0.0
C685 C 0.01551 0.92833 0.88505 0.0
C686 C 0.01531 0.91016 0.93047 0.0
H687 H 0.06043 0.86368 0.0163 0.0
H688 H 0.04371 0.87315 0.94957 0.0
H689 H 0.05678 0.89185 0.9949 0.0
H690 H 0.02636 0.93306 0.06721 0.0
H691 H 0.02698 0.9651 0.98744 0.0
H692 H 0.72597 0.05585 0.09281 0.0
H693 H 0.69017 0.05871 0.04903 0.0
H694 H 0.68091 0.99106 0.0991 0.0
H695 H 0.71639 0.98858 0.14462 0.0
H696 H 0.67412 0.04186 0.95029 0.0
H697 H 0.62795 0.01201 0.1697 0.0
H698 H 0.6554 0.01907 0.17354 0.0
H699 H 0.64735 0.99329 0.15376 0.0
C700 C 0.71606 0.04175 0.09458 0.0
C701 C 0.72359 0.02202 0.12152 0.0
C702 C 0.69572 0.04334 0.06994 0.0
C703 C 0.6827 0.02516 0.07186 0.0
C704 C 0.69039 0.0054 0.0988 0.0
H705 H 0.58563 0.9989 0.81095 0.0
H706 H 0.61792 0.00471 0.86919 0.0
C707 C 0.71064 0.0039 0.12405 0.0
C708 C 0.66167 0.02652 0.0415 0.0
H709 H 0.61059 0.01071 0.06642 0.0
C710 C 0.66017 0.03534 0.97603 0.0
C711 C 0.64337 0.01844 0.07537 0.0
C712 C 0.64355 0.0104 0.14717 0.0
C713 C 0.64111 0.0353 0.94257 0.0
C714 C 0.62319 0.0256 0.9749 0.0
C715 C 0.62441 0.01781 0.04132 0.0
C716 C 0.60342 0.02233 0.93975 0.0
C717 C 0.64042 0.04561 0.8728 0.0
C718 C 0.58436 0.02964 0.96144 0.0
C719 C 0.56571 0.02602 0.92875 0.0
C720 C 0.56587 0.01503 0.87386 0.0
C721 C 0.58498 0.00762 0.85265 0.0
C722 C 0.60351 0.01107 0.88562 0.0
H723 H 0.65265 0.05832 0.86318 0.0
H724 H 0.64352 0.0335 0.83989 0.0
H725 H 0.62489 0.05257 0.86051 0.0
H726 H 0.58392 0.03821 0.00348 0.0
H727 H 0.55122 0.03188 0.94632 0.0
H728 H 0.48323 0.68744 0.2038 0.0
H729 H 0.47746 0.6527 0.16459 0.0
H730 H 0.52607 0.66826 0.02039 0.0
H731 H 0.53179 0.70273 0.05983 0.0
H732 H 0.48823 0.65209 0.97184 0.0
H733 H 0.5176 0.60157 0.19119 0.0
H734 H 0.49765 0.62023 0.20423 0.0
H735 H 0.52311 0.62977 0.17622 0.0
C736 C 0.4926 0.68326 0.16386 0.0
C737 C 0.50787 0.69755 0.1344 0.0
C738 C 0.4894 0.66351 0.14172 0.0
C739 C 0.50146 0.65791 0.08995 0.0
C740 C 0.51659 0.67232 0.06033 0.0
H741 H 0.53527 0.54677 0.93219 0.0
H742 H 0.53138 0.57678 0.99394 0.0
C743 C 0.5198 0.69195 0.08251 0.0
C744 C 0.49837 0.6372 0.06538 0.0
H745 H 0.50657 0.5841 0.10277 0.0
C746 C 0.49197 0.63716 1.00061 0.0
C747 C 0.50346 0.61787 0.10313 0.0
C748 C 0.51099 0.61721 0.17244 0.0
C749 C 0.49109 0.61835 0.97176 0.0
C750 C 0.49641 0.59901 0.00918 0.0
C751 C 0.50231 0.59895 0.07454 0.0
C752 C 0.49793 0.57913 0.97915 0.0
C753 C 0.48546 0.61949 0.90056 0.0
C754 C 0.48027 0.5701 0.95217 0.0
C755 C 0.48244 0.55297 0.91646 0.0
C756 C 0.50232 0.54458 0.90748 0.0
C757 C 0.51977 0.55294 0.93777 0.0
C758 C 0.51757 0.57006 0.97329 0.0
H759 H 0.48569 0.63607 0.87588 0.0
H760 H 0.49647 0.61008 0.87468 0.0
H761 H 0.46946 0.61273 0.89602 0.0
H762 H 0.46492 0.5767 0.95708 0.0
H763 H 0.46867 0.54678 0.89418 0.0
H764 H 0.83186 0.47495 0.28591 0.0
H765 H 0.86619 0.46897 0.23781 0.0
H766 H 0.8553 0.5204 0.08517 0.0
H767 H 0.8211 0.52623 0.13336 0.0
H768 H 0.86767 0.48313 0.03939 0.0
H769 H 0.92055 0.50473 0.2351 0.0
H770 H 0.90042 0.48517 0.25979 0.0
H771 H 0.89331 0.5119 0.2304 0.0
C772 C 0.83705 0.48504 0.24253 0.0
C773 C 0.824 0.50092 0.21272 0.0
C774 C 0.85658 0.48169 0.21524 0.0
C775 C 0.8633 0.4943 0.15806 0.0
C776 C 0.85037 0.51045 0.12916 0.0
H777 H 0.97719 0.52217 0.95409 0.0
H778 H 0.94752 0.51912 0.02908 0.0
C779 C 0.8309 0.51376 0.1564 0.0
C780 C 0.88337 0.49029 0.12618 0.0
H781 H 0.9365 0.49283 0.14376 0.0
C782 C 0.88273 0.48506 0.06234 0.0
C783 C 0.90295 0.49292 0.15628 0.0
C784 C 0.9045 0.49915 0.22401 0.0
C785 C 0.90116 0.48296 0.027 0.0
C786 C 0.92077 0.48574 0.05691 0.0
C787 C 0.92143 0.49046 0.12134 0.0
C788 C 0.94058 0.48618 0.01949 0.0
C789 C 0.89946 0.4788 0.95691 0.0
C790 C 0.94705 0.46838 0.99134 0.0
C791 C 0.96401 0.47009 0.94797 0.0
C792 C 0.97475 0.48962 0.93241 0.0
C793 C 0.96912 0.50696 0.96442 0.0
C794 C 0.95219 0.50524 0.00753 0.0
H795 H 0.88331 0.48111 0.93776 0.0
H796 H 0.91034 0.48944 0.92542 0.0
H797 H 0.90381 0.46216 0.95322 0.0
H798 H 0.93849 0.45341 1.00098 0.0
H799 H 0.96805 0.45641 0.92444 0.0
H800 H 0.05755 0.23608 0.15156 0.0
H801 H 0.05954 0.20866 0.07794 0.0
H802 H 0.99916 0.18359 0.14762 0.0
H803 H 0.99669 0.21179 0.21712 0.0
H804 H 0.06244 0.16864 0.11099 0.0
H805 H 0.9913 0.17896 0.96128 0.0
H806 H 1.00027 0.19883 0.01047 0.0
H807 H 0.98423 0.17658 0.04564 0.0
C808 C 0.04441 0.22519 0.14886 0.0
C809 C 0.02695 0.22599 0.18967 0.0
C810 C 0.04561 0.20939 0.10745 0.0
C811 C 0.0294 0.19407 0.10639 0.0
C812 C 0.01163 0.19545 0.14568 0.0
H813 H 0.04494 0.06345 0.04761 0.0
H814 H 0.04326 0.0981 0.08694 0.0
C815 C 0.01029 0.21144 0.18601 0.0
C816 C 0.03191 0.1754 0.07002 0.0
H817 H 0.00566 0.14356 0.97453 0.0
C818 C 0.05014 0.1634 0.08024 0.0
C819 C 0.01613 0.16859 0.02879 0.0
C820 C 0.99702 0.18159 0.01037 0.0
C821 C 0.05261 0.14443 0.05293 0.0
C822 C 0.03603 0.13667 0.01643 0.0
C823 C 0.01823 0.14917 0.00361 0.0
C824 C 0.03665 0.11548 0.99248 0.0
C825 C 0.07311 0.13305 0.06328 0.0
C826 C 0.03247 0.11337 0.92686 0.0
C827 C 0.0329 0.09342 0.90469 0.0
C828 C 0.03772 0.0752 0.94755 0.0
C829 C 0.0416 0.07728 0.01327 0.0
C830 C 0.04078 0.09713 0.03565 0.0
H831 H 0.08618 0.14433 0.07042 0.0
H832 H 0.07197 0.12141 0.10792 0.0
H833 H 0.07705 0.12449 0.02143 0.0
H834 H 0.02908 0.12721 0.89257 0.0
H835 H 0.02991 0.09229 0.85374 0.0
H836 H 0.29935 0.03068 0.30884 0.0
H837 H 0.32928 0.03421 0.2334 0.0
H838 H 0.31771 0.97019 0.19108 0.0
H839 H 0.28751 0.96698 0.26609 0.0
H840 H 0.36394 0.0098 0.25012 0.0
H841 H 0.3283 1.0016 0.00967 0.0
H842 H 0.31301 0.00719 0.07874 0.0
H843 H 0.32143 0.98064 0.07315 0.0
C844 C 0.30287 0.01772 0.28147 0.0
C845 C 0.291 0.99878 0.29161 0.0
C846 C 0.32001 0.01962 0.23895 0.0
C847 C 0.32565 0.00256 0.20589 0.0
C848 C 0.31339 0.98376 0.21468 0.0
H849 H 0.43753 0.98498 0.97325 0.0
H850 H 0.40464 0.9794 0.03461 0.0
C851 C 0.29615 0.98191 0.25722 0.0
C852 C 0.3454 0.00394 0.16711 0.0
H853 H 0.36544 1.00188 0.01473 0.0
C854 C 0.36423 0.00813 0.1986 0.0
C855 C 0.34583 1.00154 0.10003 0.0
C856 C 0.32606 0.99767 0.06311 0.0
C857 C 0.38342 0.01009 0.16493 0.0
C858 C 0.38382 0.00806 0.09764 0.0
C859 C 0.36509 0.00344 0.06631 0.0
C860 C 0.40345 0.01151 0.05874 0.0
C861 C 0.40315 0.01416 0.20183 0.0
C862 C 0.4135 0.03151 0.05087 0.0
C863 C 0.43219 0.03482 0.01546 0.0
C864 C 0.44134 0.01819 0.98693 0.0
C865 C 0.43098 0.99822 0.99399 0.0
C866 C 0.41219 0.99495 0.02932 0.0
H867 H 0.40102 0.00996 0.25523 0.0
H868 H 0.41637 0.00498 0.18554 0.0
H869 H 0.40748 0.03128 0.19242 0.0
H870 H 0.40682 0.04463 0.07203 0.0
H871 H 0.43932 0.05053 0.01007 0.0
H872 H 0.52587 0.29136 0.21857 0.0
H873 H 0.52323 0.32258 0.13578 0.0
H874 H 0.47414 0.34676 0.24769 0.0
H875 H 0.47682 0.3155 0.33013 0.0
H876 H 0.48912 0.34124 0.05956 0.0
H877 H 0.52072 0.3935 0.23419 0.0
H878 H 0.52239 0.36494 0.248 0.0
H879 H 0.49816 0.37753 0.26213 0.0
C880 C 0.51422 0.30315 0.22434 0.0
C881 C 0.50163 0.30126 0.28044 0.0
C882 C 0.51278 0.32098 0.17747 0.0
C883 C 0.49876 0.33716 0.18626 0.0
C884 C 0.48531 0.33464 0.24055 0.0
H885 H 0.47151 0.44727 0.90174 0.0
H886 H 0.46869 0.41487 0.9794 0.0
C887 C 0.48674 0.31681 0.28729 0.0
C888 C 0.49901 0.35713 0.14054 0.0
H889 H 0.51034 0.41025 0.13105 0.0
C890 C 0.49368 0.35636 0.07512 0.0
C891 C 0.50527 0.37676 0.1609 0.0
C892 C 0.51215 0.37834 0.22995 0.0
C893 C 0.49429 0.37475 0.02949 0.0
C894 C 0.50018 0.39445 0.0501 0.0
C895 C 0.50563 0.39517 0.1155 0.0
C896 C 0.50162 0.41437 0.00406 0.0
C897 C 0.48918 0.37285 0.95927 0.0
C898 C 0.52094 0.42518 0.99348 0.0
C899 C 0.52259 0.44374 0.94945 0.0
C900 C 0.5049 0.45197 0.9153 0.0
C901 C 0.48546 0.44133 0.92698 0.0
C902 C 0.48384 0.42273 0.97105 0.0
H903 H 0.48972 0.35614 0.94872 0.0
H904 H 0.47313 0.37868 0.94853 0.0
H905 H 0.50024 0.38264 0.92599 0.0
H906 H 0.53484 0.41908 0.01867 0.0
H907 H 0.5378 0.45153 0.94182 0.0
H908 H 0.20005 0.53103 0.18821 0.0
H909 H 0.17173 0.526 0.11118 0.0
H910 H 0.18912 0.46068 0.11162 0.0
H911 H 0.21748 0.46582 0.1893 0.0
H912 H 0.17321 0.51057 0.98335 0.0
H913 H 0.12578 0.45895 0.16866 0.0
H914 H 0.14691 0.47591 0.19092 0.0
H915 H 0.1526 0.45191 0.15761 0.0
C916 C 0.19794 0.51573 0.17091 0.0
C917 C 0.21084 0.49883 0.19411 0.0
C918 C 0.18182 0.51284 0.12716 0.0
C919 C 0.1782 0.49291 0.10626 0.0
C920 C 0.19154 0.47613 0.12766 0.0
H921 H 0.06842 0.4585 0.87931 0.0
H922 H 0.10161 0.4561 0.9396 0.0
C923 C 0.20781 0.4791 0.17129 0.0
C924 C 0.15997 0.4898 0.06383 0.0
H925 H 0.11072 0.4676 0.06528 0.0
C926 C 0.15964 0.50099 1.00095 0.0
C927 C 0.14229 0.47726 0.08694 0.0
C928 C 0.14169 0.46537 0.15482 0.0
C929 C 0.14194 0.50033 0.96095 0.0
C930 C 0.12392 0.48851 0.98498 0.0
C931 C 0.12453 0.47666 0.04697 0.0
C932 C 0.10384 0.48965 0.94857 0.0
C933 C 0.14262 0.51248 0.89343 0.0
C934 C 0.0939 0.50919 0.93479 0.0
C935 C 0.07503 0.51061 0.9007 0.0
C936 C 0.06553 0.49246 0.87979 0.0
C937 C 0.07533 0.47278 0.89452 0.0
C938 C 0.09429 0.47138 0.92892 0.0
H939 H 0.15898 0.51512 0.87537 0.0
H940 H 0.13362 0.50398 0.85841 0.0
H941 H 0.13556 0.52825 0.8947 0.0
H942 H 0.10072 0.52341 0.95074 0.0
H943 H 0.06792 0.52602 0.89065 0.0
H944 H 0.01464 0.76674 0.40094 0.0
H945 H 0.01549 0.79504 0.47254 0.0
H946 H 0.95701 0.81838 0.3908 0.0
H947 H 0.95641 0.79032 0.3193 0.0
H948 H 0.01424 0.84039 0.41639 0.0
H949 H 0.94997 0.81694 0.59346 0.0
H950 H 0.9632 0.79805 0.55004 0.0
H951 H 0.94377 0.81498 0.50964 0.0
C952 C 1.00172 0.77755 0.40022 0.0
C953 C 0.98529 0.77634 0.35581 0.0
C954 C 1.00226 0.79375 0.44047 0.0
C955 C 0.98619 0.80866 0.4374 0.0
C956 C 0.96936 0.80684 0.3948 0.0
H957 H 0.95406 0.92608 0.57027 0.0
H958 H 0.95606 0.89228 0.52712 0.0
C959 C 0.96898 0.79085 0.3542 0.0
C960 C 0.98781 0.82737 0.47358 0.0
H961 H 0.96267 0.85264 0.58656 0.0
C962 C 0.0032 0.84298 0.45438 0.0
C963 C 0.97323 0.83074 0.52245 0.0
C964 C 0.95667 0.81425 0.54568 0.0
C965 C 0.00387 0.86232 0.48087 0.0
C966 C 0.98906 0.86588 0.52919 0.0
C967 C 0.97402 0.84995 0.54959 0.0
C968 C 0.98813 0.88643 0.55661 0.0
C969 C 0.01978 0.87912 0.45443 0.0
C970 C 0.00543 0.89443 0.58836 0.0
C971 C 0.00447 0.91407 0.61231 0.0
C972 C 0.98608 0.92607 0.60581 0.0
C973 C 0.96864 0.91768 0.57528 0.0
C974 C 0.96968 0.89816 0.55099 0.0
H975 H 0.0262 0.87606 0.40663 0.0
H976 H 0.01281 0.89513 0.44854 0.0
H977 H 0.03304 0.87919 0.48901 0.0
H978 H 0.0197 0.88548 0.59463 0.0
H979 H 0.01827 0.91988 0.63518 0.0
H980 H 0.72113 0.04341 0.23546 0.0
H981 H 0.69195 0.03764 0.31249 0.0
H982 H 0.71471 0.97521 0.3804 0.0
H983 H 0.74307 0.98052 0.29933 0.0
H984 H 0.67503 0.97254 0.36126 0.0
H985 H 0.68735 0.03993 0.5017 0.0
H986 H 0.68544 0.04936 0.41671 0.0
H987 H 0.7068 0.03259 0.44582 0.0
C988 C 0.71995 0.02855 0.26733 0.0
C989 C 0.73436 0.01246 0.26177 0.0
C990 C 0.70342 0.02534 0.312 0.0
C991 C 0.70127 0.00615 0.3536 0.0
C992 C 0.71608 0.99024 0.34937 0.0
H993 H 0.603 0.99387 0.65495 0.0
H994 H 0.63686 0.99762 0.598 0.0
C995 C 0.73243 0.99334 0.30367 0.0
C996 C 0.68265 1.00213 0.39738 0.0
H997 H 0.6524 0.02451 0.50581 0.0
C998 C 0.67028 0.98378 0.39357 0.0
C999 C 0.6765 0.01652 0.44062 0.0
C1000 C 0.68988 0.03555 0.45199 0.0
C1001 C 0.65168 0.97981 0.4298 0.0
C1002 C 0.64468 0.99505 0.46909 0.0
C1003 C 0.65745 0.01299 0.47485 0.0
C1004 C 0.62411 0.99281 0.50386 0.0
C1005 C 0.63994 0.95914 0.42601 0.0
C1006 C 0.60555 0.98931 0.46998 0.0
C1007 C 0.58632 0.98679 0.50273 0.0
C1008 C 0.5851 0.98835 0.56973 0.0
C1009 C 0.60351 0.99266 0.60326 0.0
C1010 C 0.62284 0.99475 0.57072 0.0
H1011 H 0.65066 0.94659 0.41408 0.0
H1012 H 0.6318 0.95341 0.47254 0.0
H1013 H 0.62812 0.96147 0.38663 0.0
H1014 H 0.60589 0.98858 0.41801 0.0
H1015 H 0.57231 0.98389 0.47551 0.0
H1016 H 0.50062 0.71798 0.33892 0.0
H1017 H 0.50322 0.68827 0.4262 0.0
H1018 H 0.54087 0.65471 0.30062 0.0
H1019 H 0.54015 0.68533 0.21674 0.0
H1020 H 0.48867 0.65122 0.43324 0.0
H1021 H 0.57401 0.64206 0.45856 0.0
H1022 H 0.56289 0.66478 0.41081 0.0
H1023 H 0.56661 0.64044 0.37594 0.0
C1024 C 0.51003 0.70453 0.33111 0.0
C1025 C 0.52014 0.70392 0.27115 0.0
C1026 C 0.51133 0.68743 0.38061 0.0
C1027 C 0.5225 0.66919 0.37077 0.0
C1028 C 0.53272 0.66872 0.31078 0.0
H1029 H 0.49117 0.54521 0.58208 0.0
H1030 H 0.49373 0.57758 0.50459 0.0
C1031 C 0.53197 0.68609 0.26219 0.0
C1032 C 0.52217 0.65017 0.42121 0.0
H1033 H 0.5528 0.61142 0.49908 0.0
C1034 C 0.50278 0.64273 0.44822 0.0
C1035 C 0.54053 0.63912 0.4421 0.0
C1036 C 0.56217 0.64719 0.42082 0.0
C1037 C 0.50117 0.62449 0.49413 0.0
C1038 C 0.51932 0.61253 0.51115 0.0
C1039 C 0.53878 0.62023 0.48534 0.0
C1040 C 0.51852 0.5922 0.55611 0.0
C1041 C 0.48005 0.61868 0.52492 0.0
C1042 C 0.53248 0.58887 0.60879 0.0
C1043 C 0.5316 0.56996 0.65159 0.0
C1044 C 0.51648 0.55416 0.6433 0.0
C1045 C 0.50279 0.55727 0.59007 0.0
C1046 C 0.50409 0.5759 0.54619 0.0
H1047 H 0.47018 0.6329 0.52496 0.0
H1048 H 0.47167 0.60754 0.49624 0.0
H1049 H 0.48158 0.61104 0.57593 0.0
H1050 H 0.54387 0.60105 0.61753 0.0
H1051 H 0.54231 0.56798 0.69236 0.0
H1052 H 0.83038 0.53696 0.28604 0.0
H1053 H 0.85961 0.53975 0.3617 0.0
H1054 H 0.83188 0.48904 0.49464 0.0
H1055 H 0.80262 0.48632 0.41854 0.0
H1056 H 0.85025 0.52366 0.55636 0.0
H1057 H 0.90401 0.49291 0.3805 0.0
H1058 H 0.88989 0.51612 0.34868 0.0
H1059 H 0.87588 0.49155 0.37252 0.0
C1060 C 0.83048 0.52666 0.33188 0.0
C1061 C 0.81443 0.51138 0.34667 0.0
C1062 C 0.84713 0.5282 0.37492 0.0
C1063 C 0.84806 0.5144 0.43339 0.0
C1064 C 0.83146 0.49984 0.44979 0.0
H1065 H 0.9572 0.47512 0.65684 0.0
H1066 H 0.92502 0.47818 0.59342 0.0
C1067 C 0.81476 0.49833 0.40662 0.0
C1068 C 0.86704 0.51414 0.47492 0.0
H1069 H 0.91931 0.50366 0.47505 0.0
C1070 C 0.86538 0.51934 0.53869 0.0
C1071 C 0.88669 0.50823 0.45198 0.0
C1072 C 0.88929 0.50168 0.38491 0.0
C1073 C 0.88295 0.51896 0.57989 0.0
C1074 C 0.90265 0.51338 0.55641 0.0
C1075 C 0.90423 0.5081 0.4928 0.0
C1076 C 0.92171 0.51181 0.59774 0.0
C1077 C 0.88022 0.52402 0.64864 0.0
C1078 C 0.93067 0.52976 0.62111 0.0
C1079 C 0.94922 0.52809 0.6575 0.0
C1080 C 0.95915 0.50844 0.67092 0.0
C1081 C 0.95004 0.49053 0.64749 0.0
C1082 C 0.93159 0.49222 0.6112 0.0
H1083 H 0.86346 0.5237 0.66335 0.0
H1084 H 0.88881 0.51258 0.68349 0.0
H1085 H 0.88677 0.54014 0.65227 0.0
H1086 H 0.92351 0.54512 0.61033 0.0
H1087 H 0.95583 0.54219 0.67474 0.0
loop_
_geom_bond_atom_site_label_1
_geom_bond_atom_site_label_2
_geom_bond_distance
_geom_bond_site_symmetry_2
_ccdc_geom_bond_type
C0 N1 1.317 . S
C0 N2 1.348 . S
C0 C3 1.485 . S
N1 C0 1.317 . S
N1 N5 1.370 . S
N2 C0 1.348 . S
N2 C4 1.346 . S
C3 C0 1.485 . S
C3 H7 0.960 . S
C3 H8 0.961 . S
C3 H9 0.960 . S
C4 N2 1.346 . S
C4 N5 1.307 . S
C4 C6 1.486 . S
N5 N1 1.370 . S
N5 C4 1.307 . S
C6 C4 1.486 . S
C6 H10 0.960 . S
C6 H11 0.960 . S
C6 H12 0.959 . S
H7 C3 0.960 . S
H8 C3 0.961 . S
H9 C3 0.960 . S
H10 C6 0.960 . S
H11 C6 0.960 . S
H12 C6 0.959 . S
C13 N14 1.317 . S
C13 N15 1.348 . S
C13 C16 1.485 . S
N14 C13 1.317 . S
N14 N18 1.370 . S
N15 C13 1.348 . S
N15 C17 1.346 . S
C16 C13 1.485 . S
C16 H20 0.960 . S
C16 H21 0.961 . S
C16 H22 0.960 . S
C17 N15 1.346 . S
C17 N18 1.307 . S
C17 C19 1.486 1_554 S
N18 N14 1.370 . S
N18 C17 1.307 . S
C19 C17 1.486 1_556 S
C19 H23 0.960 . S
C19 H24 0.960 . S
C19 H25 0.959 . S
H20 C16 0.960 . S
H21 C16 0.961 . S
H22 C16 0.960 . S
H23 C19 0.960 . S
H24 C19 0.960 . S
H25 C19 0.959 . S
C26 N27 1.317 . S
C26 N28 1.345 . S
C26 C29 1.485 . S
N27 C26 1.317 . S
N27 N31 1.369 . S
N28 C26 1.345 . S
N28 C30 1.348 1_565 S
C29 C26 1.485 . S
C29 H33 0.960 1_565 S
C29 H34 0.961 . S
C29 H35 0.960 . S
C30 N28 1.348 1_545 S
C30 N31 1.308 1_545 S
C30 C32 1.491 1_554 S
N31 N27 1.369 . S
N31 C30 1.308 1_565 S
C32 C30 1.491 1_556 S
C32 H36 0.922 1_545 S
C32 H37 0.988 . S
C32 H38 0.966 . S
H33 C29 0.960 1_545 S
H34 C29 0.961 . S
H35 C29 0.960 . S
H36 C32 0.922 1_565 S
H37 C32 0.988 . S
H38 C32 0.966 . S
C39 N40 1.317 . S
C39 N41 1.348 . S
C39 C42 1.485 . S
N40 C39 1.317 . S
N40 N44 1.370 . S
N41 C39 1.348 . S
N41 C43 1.346 . S
C42 C39 1.485 . S
C42 H46 0.960 . S
C42 H47 0.961 . S
C42 H48 0.960 . S
C43 N41 1.346 . S
C43 N44 1.307 . S
C43 C45 1.486 1_554 S
N44 N40 1.370 . S
N44 C43 1.307 . S
C45 C43 1.486 1_556 S
C45 H49 0.960 . S
C45 H50 0.960 . S
C45 H51 0.959 . S
H46 C42 0.960 . S
H47 C42 0.961 . S
H48 C42 0.960 . S
H49 C45 0.960 . S
H50 C45 0.960 . S
H51 C45 0.959 . S
C52 N53 1.317 . S
C52 N54 1.348 . S
C52 C55 1.485 . S
N53 C52 1.317 . S
N53 N57 1.370 . S
N54 C52 1.348 . S
N54 C56 1.346 . S
C55 C52 1.485 . S
C55 H59 0.960 . S
C55 H60 0.961 . S
C55 H61 0.960 . S
C56 N54 1.346 . S
C56 N57 1.307 . S
C56 C58 1.486 . S
N57 N53 1.370 . S
N57 C56 1.307 . S
C58 C56 1.486 . S
C58 H62 0.960 . S
C58 H63 0.960 . S
C58 H64 0.959 . S
H59 C55 0.960 . S
H60 C55 0.961 . S
H61 C55 0.960 . S
H62 C58 0.960 . S
H63 C58 0.960 . S
H64 C58 0.959 . S
C65 N66 1.317 . S
C65 N67 1.348 . S
C65 C68 1.485 . S
N66 C65 1.317 . S
N66 N70 1.370 . S
N67 C65 1.348 . S
N67 C69 1.346 . S
C68 C65 1.485 . S
C68 H72 0.960 . S
C68 H73 0.961 . S
C68 H74 0.960 . S
C69 N67 1.346 . S
C69 N70 1.307 . S
C69 C71 1.486 . S
N70 N66 1.370 . S
N70 C69 1.307 . S
C71 C69 1.486 . S
C71 H75 0.960 . S
C71 H76 0.960 . S
C71 H77 0.959 . S
H72 C68 0.960 . S
H73 C68 0.961 . S
H74 C68 0.960 . S
H75 C71 0.960 . S
H76 C71 0.960 . S
H77 C71 0.959 . S
C78 N79 1.317 . S
C78 N80 1.353 . S
C78 C81 1.485 . S
N79 C78 1.317 . S
N79 N83 1.370 . S
N80 C78 1.353 . S
N80 C82 1.343 1_565 S
C81 C78 1.485 . S
C81 H85 0.960 1_565 S
C81 H86 0.961 . S
C81 H87 0.960 . S
C82 N80 1.343 1_545 S
C82 N83 1.306 1_545 S
C82 C84 1.480 . S
N83 N79 1.370 . S
N83 C82 1.306 1_565 S
C84 C82 1.480 . S
C84 H88 0.916 1_545 S
C84 H89 1.001 . S
C84 H90 0.972 . S
H85 C81 0.960 1_545 S
H86 C81 0.961 . S
H87 C81 0.960 . S
H88 C84 0.916 1_565 S
H89 C84 1.001 . S
H90 C84 0.972 . S
C91 N92 1.317 . S
C91 N93 1.348 . S
C91 C94 1.485 . S
N92 C91 1.317 . S
N92 N96 1.370 . S
N93 C91 1.348 . S
N93 C95 1.346 . S
C94 C91 1.485 . S
C94 H98 0.960 . S
C94 H99 0.961 . S
C94 H100 0.960 . S
C95 N93 1.346 . S
C95 N96 1.307 . S
C95 C97 1.486 . S
N96 N92 1.370 . S
N96 C95 1.307 . S
C97 C95 1.486 . S
C97 H101 0.960 . S
C97 H102 0.960 . S
C97 H103 0.959 . S
H98 C94 0.960 . S
H99 C94 0.961 . S
H100 C94 0.960 . S
H101 C97 0.960 . S
H102 C97 0.960 . S
H103 C97 0.959 . S
Co104 N109 2.057 . S
Co104 O121 2.021 . S
Co104 O124 2.062 . S
Co104 O128 2.117 1_455 S
Co104 O129 2.020 1_545 S
C105 O125 1.259 1_545 S
C105 O128 1.258 . S
Co106 N115 2.057 . S
Co106 O122 2.117 . S
Co106 O123 2.020 1_565 S
Co106 O125 2.021 1_455 S
Co106 O130 2.062 . S
C107 N109 1.316 . S
C107 N110 1.347 . S
C107 H112 0.931 . S
C108 N109 1.356 1_655 S
C108 C111 1.343 1_655 S
C108 H113 0.952 . S
N109 Co104 2.057 . S
N109 C107 1.316 . S
N109 C108 1.356 1_455 S
N110 C107 1.347 . S
N110 C111 1.373 . S
C111 C108 1.343 1_455 S
C111 N110 1.373 . S
C111 H132 0.931 1_456 S
H112 C107 0.931 . S
H113 C108 0.952 . S
C114 O121 1.259 1_565 S
C114 O122 1.258 . S
N115 Co106 2.057 . S
N115 C116 1.316 1_455 S
N115 C117 1.375 . S
C116 N115 1.316 1_655 S
C116 N118 1.347 . S
C116 H127 0.931 . S
C117 N115 1.375 . S
C117 C119 1.350 . S
C117 H126 0.930 . S
N118 C116 1.347 . S
N118 C119 1.373 1_655 S
C119 C117 1.350 . S
C119 N118 1.373 1_455 S
C119 H133 0.931 . S
C120 O123 1.256 . S
C120 O124 1.255 . S
O121 Co104 2.021 . S
O121 C114 1.259 1_545 S
O122 Co106 2.117 . S
O122 C114 1.258 . S
O123 Co106 2.020 1_545 S
O123 C120 1.256 . S
O124 Co104 2.062 . S
O124 C120 1.255 . S
O125 C105 1.259 1_565 S
O125 Co106 2.021 1_655 S
H126 C117 0.930 . S
H127 C116 0.931 . S
O128 Co104 2.117 1_655 S
O128 C105 1.258 . S
O129 Co104 2.020 1_565 S
O129 C131 1.256 . S
O130 Co106 2.062 . S
O130 C131 1.255 . S
C131 O129 1.256 . S
C131 O130 1.255 . S
H132 C111 0.931 1_654 S
H133 C119 0.931 . S
Co134 N139 2.057 1_545 S
Co134 O151 2.021 . S
Co134 O154 2.067 . S
Co134 O158 2.117 1_545 S
Co134 O159 2.020 . S
C135 O155 1.259 . S
C135 O158 1.258 . S
Co136 N145 2.056 1_565 S
Co136 O152 2.117 1_565 S
Co136 O153 2.020 . S
Co136 O155 2.021 . S
Co136 O160 2.064 . S
C137 N139 1.309 1_545 S
C137 N140 1.347 . S
C137 H142 0.931 . S
C138 N139 1.383 . S
C138 C141 1.356 . S
C138 H143 0.930 . S
N139 Co134 2.057 1_565 S
N139 C137 1.309 1_565 S
N139 C138 1.383 . S
N140 C137 1.347 . S
N140 C141 1.374 1_545 S
C141 C138 1.356 . S
C141 N140 1.374 1_565 S
C141 H162 0.925 1_556 S
H142 C137 0.931 . S
H143 C138 0.930 . S
C144 O151 1.259 . S
C144 O152 1.258 . S
N145 Co136 2.056 1_545 S
N145 C146 1.300 1_545 S
N145 C147 1.393 . S
C146 N145 1.300 1_565 S
C146 N148 1.347 . S
C146 H157 0.931 . S
C147 N145 1.393 . S
C147 C149 1.350 . S
C147 H156 0.930 . S
N148 C146 1.347 . S
N148 C149 1.373 1_565 S
C149 C147 1.350 . S
C149 N148 1.373 1_545 S
C149 H163 0.931 . S
C150 O153 1.256 . S
C150 O154 1.246 1_565 S
O151 Co134 2.021 . S
O151 C144 1.259 . S
O152 Co136 2.117 1_545 S
O152 C144 1.258 . S
O153 Co136 2.020 . S
O153 C150 1.256 . S
O154 Co134 2.067 . S
O154 C150 1.246 1_545 S
O155 C135 1.259 . S
O155 Co136 2.021 . S
H156 C147 0.930 . S
H157 C146 0.931 . S
O158 Co134 2.117 1_565 S
O158 C135 1.258 . S
O159 Co134 2.020 . S
O159 C161 1.256 . S
O160 Co136 2.064 . S
O160 C161 1.250 1_565 S
C161 O159 1.256 . S
C161 O160 1.250 1_545 S
H162 C141 0.925 1_554 S
H163 C149 0.931 . S
Co164 N169 2.057 . S
Co164 O181 2.021 . S
Co164 O184 2.062 . S
Co164 O188 2.117 . S
Co164 O189 2.020 . S
C165 O185 1.259 . S
C165 O188 1.258 . S
Co166 N175 2.057 . S
Co166 O182 2.117 . S
Co166 O183 2.020 . S
Co166 O185 2.021 . S
Co166 O190 2.062 . S
C167 N169 1.316 . S
C167 N170 1.347 . S
C167 H172 0.931 . S
C168 N169 1.375 . S
C168 C171 1.350 . S
C168 H173 0.930 . S
N169 Co164 2.057 . S
N169 C167 1.316 . S
N169 C168 1.375 . S
N170 C167 1.347 . S
N170 C171 1.373 . S
C171 C168 1.350 . S
C171 N170 1.373 . S
C171 H192 0.931 . S
H172 C167 0.931 . S
H173 C168 0.930 . S
C174 O181 1.259 . S
C174 O182 1.258 . S
N175 Co166 2.057 . S
N175 C176 1.316 . S
N175 C177 1.375 . S
C176 N175 1.316 . S
C176 N178 1.347 . S
C176 H187 0.931 . S
C177 N175 1.375 . S
C177 C179 1.350 . S
C177 H186 0.930 . S
N178 C176 1.347 . S
N178 C179 1.373 . S
C179 C177 1.350 . S
C179 N178 1.373 . S
C179 H193 0.931 . S
C180 O183 1.256 . S
C180 O184 1.255 . S
O181 Co164 2.021 . S
O181 C174 1.259 . S
O182 Co166 2.117 . S
O182 C174 1.258 . S
O183 Co166 2.020 . S
O183 C180 1.256 . S
O184 Co164 2.062 . S
O184 C180 1.255 . S
O185 C165 1.259 . S
O185 Co166 2.021 . S
H186 C177 0.930 . S
H187 C176 0.931 . S
O188 Co164 2.117 . S
O188 C165 1.258 . S
O189 Co164 2.020 . S
O189 C191 1.256 . S
O190 Co166 2.062 . S
O190 C191 1.255 . S
C191 O189 1.256 . S
C191 O190 1.255 . S
H192 C171 0.931 . S
H193 C179 0.931 . S
Co194 N199 2.057 . S
Co194 O211 2.021 1_455 S
Co194 O214 2.062 1_455 S
Co194 O218 2.117 . S
Co194 O219 2.020 . S
C195 O215 1.259 . S
C195 O218 1.258 . S
Co196 N205 2.057 . S
Co196 O212 2.117 1_455 S
Co196 O213 2.020 1_455 S
Co196 O215 2.021 . S
Co196 O220 2.062 . S
C197 N199 1.319 1_655 S
C197 N200 1.347 1_655 S
C197 H202 0.927 . S
C198 N199 1.375 . S
C198 C201 1.350 . S
C198 H203 0.930 . S
N199 Co194 2.057 . S
N199 C197 1.319 1_455 S
N199 C198 1.375 . S
N200 C197 1.347 1_455 S
N200 C201 1.373 . S
C201 C198 1.350 . S
C201 N200 1.373 . S
C201 H222 0.931 . S
H202 C197 0.927 . S
H203 C198 0.930 . S
C204 O211 1.259 . S
C204 O212 1.258 . S
N205 Co196 2.057 . S
N205 C206 1.316 . S
N205 C207 1.375 1_455 S
C206 N205 1.316 . S
C206 N208 1.347 . S
C206 H217 0.931 . S
C207 N205 1.375 1_655 S
C207 C209 1.350 . S
C207 H216 0.930 . S
N208 C206 1.347 . S
N208 C209 1.373 1_455 S
C209 C207 1.350 . S
C209 N208 1.373 1_655 S
C209 H223 0.931 . S
C210 O213 1.256 . S
C210 O214 1.255 . S
O211 Co194 2.021 1_655 S
O211 C204 1.259 . S
O212 Co196 2.117 1_655 S
O212 C204 1.258 . S
O213 Co196 2.020 1_655 S
O213 C210 1.256 . S
O214 Co194 2.062 1_655 S
O214 C210 1.255 . S
O215 C195 1.259 . S
O215 Co196 2.021 . S
H216 C207 0.930 . S
H217 C206 0.931 . S
O218 Co194 2.117 . S
O218 C195 1.258 . S
O219 Co194 2.020 . S
O219 C221 1.256 . S
O220 Co196 2.062 . S
O220 C221 1.255 . S
C221 O219 1.256 . S
C221 O220 1.255 . S
H222 C201 0.931 . S
H223 C209 0.931 . S
H224 C232 0.929 . S
H225 C234 0.930 . S
H226 C236 0.930 . S
H227 C239 0.929 . S
H228 C242 0.930 . S
H229 C244 0.960 . S
H230 C244 0.960 . S
H231 C244 0.960 . S
C232 H224 0.929 . S
C232 C233 1.377 . S
C232 C234 1.383 . S
C233 C232 1.377 . S
C233 C239 1.390 1_545 S
C234 H225 0.930 . S
C234 C232 1.383 . S
C234 C235 1.380 1_545 S
C235 C234 1.380 1_565 S
C235 C236 1.399 . S
C235 C240 1.490 . S
C236 H226 0.930 . S
C236 C235 1.399 . S
C236 C239 1.386 . S
H237 C253 0.930 . S
H238 C254 0.931 . S
C239 H227 0.929 . S
C239 C233 1.390 1_565 S
C239 C236 1.386 . S
C240 C235 1.490 . S
C240 C242 1.395 . S
C240 C243 1.403 1_565 S
H241 C247 0.930 . S
C242 H228 0.930 . S
C242 C240 1.395 . S
C242 C245 1.403 . S
C243 C240 1.403 1_545 S
C243 C244 1.524 . S
C243 C247 1.400 . S
C244 H229 0.960 . S
C244 H230 0.960 . S
C244 H231 0.960 . S
C244 C243 1.524 . S
C245 C242 1.403 . S
C245 C246 1.392 . S
C245 C249 1.495 . S
C246 C245 1.392 . S
C246 C247 1.385 1_565 S
C246 C248 1.478 . S
C247 H241 0.930 . S
C247 C243 1.400 . S
C247 C246 1.385 1_545 S
C248 C246 1.478 . S
C248 C250 1.381 . S
C248 C254 1.383 . S
C249 C245 1.495 . S
C249 H255 0.959 . S
C249 H256 0.961 . S
C249 H257 0.960 . S
C250 C248 1.381 . S
C250 C251 1.394 . S
C250 H258 0.931 . S
C251 C250 1.394 . S
C251 C252 1.383 . S
C251 H259 0.924 1_565 S
C252 C251 1.383 . S
C252 C253 1.377 . S
C253 H237 0.930 . S
C253 C252 1.377 . S
C253 C254 1.379 . S
C254 H238 0.931 . S
C254 C248 1.383 . S
C254 C253 1.379 . S
H255 C249 0.959 . S
H256 C249 0.961 . S
H257 C249 0.960 . S
H258 C250 0.931 . S
H259 C251 0.924 1_545 S
H260 C268 0.929 . S
H261 C270 0.930 . S
H262 C272 0.930 . S
H263 C275 0.929 . S
H264 C278 0.930 . S
H265 C280 0.960 . S
H266 C280 0.960 . S
H267 C280 0.960 . S
C268 H260 0.929 . S
C268 C269 1.377 . S
C268 C270 1.384 . S
C269 C268 1.377 . S
C269 C275 1.390 . S
C270 H261 0.930 . S
C270 C268 1.384 . S
C270 C271 1.372 . S
C271 C270 1.372 . S
C271 C272 1.400 . S
C271 C276 1.490 . S
C272 H262 0.930 . S
C272 C271 1.400 . S
C272 C275 1.386 . S
H273 C289 0.930 . S
H274 C290 0.931 . S
C275 H263 0.929 . S
C275 C269 1.390 . S
C275 C272 1.386 . S
C276 C271 1.490 . S
C276 C278 1.395 . S
C276 C279 1.403 . S
H277 C283 0.930 . S
C278 H264 0.930 . S
C278 C276 1.395 . S
C278 C281 1.403 . S
C279 C276 1.403 . S
C279 C280 1.524 . S
C279 C283 1.400 . S
C280 H265 0.960 . S
C280 H266 0.960 . S
C280 H267 0.960 . S
C280 C279 1.524 . S
C281 C278 1.403 . S
C281 C282 1.392 . S
C281 C285 1.495 . S
C282 C281 1.392 . S
C282 C283 1.385 . S
C282 C284 1.478 . S
C283 H277 0.930 . S
C283 C279 1.400 . S
C283 C282 1.385 . S
C284 C282 1.478 . S
C284 C286 1.381 . S
C284 C290 1.383 . S
C285 C281 1.495 . S
C285 H291 0.959 . S
C285 H292 0.961 . S
C285 H293 0.960 . S
C286 C284 1.381 . S
C286 C287 1.394 . S
C286 H294 0.930 . S
C287 C286 1.394 . S
C287 C288 1.383 . S
C287 H295 0.929 . S
C288 C287 1.383 . S
C288 C289 1.377 . S
C289 H273 0.930 . S
C289 C288 1.377 . S
C289 C290 1.379 . S
C290 H274 0.931 . S
C290 C284 1.383 . S
C290 C289 1.379 . S
H291 C285 0.959 . S
H292 C285 0.961 . S
H293 C285 0.960 . S
H294 C286 0.930 . S
H295 C287 0.929 . S
H296 C304 0.929 . S
H297 C306 0.930 . S
H298 C308 0.930 . S
H299 C311 0.929 . S
H300 C314 0.930 . S
H301 C316 0.960 . S
H302 C316 0.960 . S
H303 C316 0.960 . S
C304 H296 0.929 . S
C304 C305 1.377 . S
C304 C306 1.384 . S
C305 C304 1.377 . S
C305 C311 1.390 . S
C306 H297 0.930 . S
C306 C304 1.384 . S
C306 C307 1.372 . S
C307 C306 1.372 . S
C307 C308 1.400 . S
C307 C312 1.490 . S
C308 H298 0.930 . S
C308 C307 1.400 . S
C308 C311 1.386 . S
H309 C325 0.930 . S
H310 C326 0.931 . S
C311 H299 0.929 . S
C311 C305 1.390 . S
C311 C308 1.386 . S
C312 C307 1.490 . S
C312 C314 1.395 . S
C312 C315 1.403 . S
H313 C319 0.930 . S
C314 H300 0.930 . S
C314 C312 1.395 . S
C314 C317 1.403 . S
C315 C312 1.403 . S
C315 C316 1.524 . S
C315 C319 1.400 . S
C316 H301 0.960 . S
C316 H302 0.960 . S
C316 H303 0.960 . S
C316 C315 1.524 . S
C317 C314 1.403 . S
C317 C318 1.392 . S
C317 C321 1.495 . S
C318 C317 1.392 . S
C318 C319 1.385 . S
C318 C320 1.478 . S
C319 H313 0.930 . S
C319 C315 1.400 . S
C319 C318 1.385 . S
C320 C318 1.478 . S
C320 C322 1.381 . S
C320 C326 1.383 . S
C321 C317 1.495 . S
C321 H327 0.959 . S
C321 H328 0.961 . S
C321 H329 0.960 . S
C322 C320 1.381 . S
C322 C323 1.394 . S
C322 H330 0.930 . S
C323 C322 1.394 . S
C323 C324 1.383 . S
C323 H331 0.929 . S
C324 C323 1.383 . S
C324 C325 1.377 . S
C325 H309 0.930 . S
C325 C324 1.377 . S
C325 C326 1.379 . S
C326 H310 0.931 . S
C326 C320 1.383 . S
C326 C325 1.379 . S
H327 C321 0.959 . S
H328 C321 0.961 . S
H329 C321 0.960 . S
H330 C322 0.930 . S
H331 C323 0.929 . S
H332 C340 0.929 . S
H333 C342 0.930 . S
H334 C344 0.930 . S
H335 C347 0.929 . S
H336 C350 0.930 . S
H337 C352 0.960 1_655 S
H338 C352 0.960 . S
H339 C352 0.960 . S
C340 H332 0.929 . S
C340 C341 1.377 . S
C340 C342 1.384 . S
C341 C340 1.377 . S
C341 C347 1.390 . S
C342 H333 0.930 . S
C342 C340 1.384 . S
C342 C343 1.372 . S
C343 C342 1.372 . S
C343 C344 1.400 . S
C343 C348 1.490 . S
C344 H334 0.930 . S
C344 C343 1.400 . S
C344 C347 1.386 . S
H345 C361 0.930 . S
H346 C362 0.931 . S
C347 H335 0.929 . S
C347 C341 1.390 . S
C347 C344 1.386 . S
C348 C343 1.490 . S
C348 C350 1.395 . S
C348 C351 1.403 . S
H349 C355 0.930 . S
C350 H336 0.930 . S
C350 C348 1.395 . S
C350 C353 1.403 . S
C351 C348 1.403 . S
C351 C352 1.524 . S
C351 C355 1.400 . S
C352 H337 0.960 1_455 S
C352 H338 0.960 . S
C352 H339 0.960 . S
C352 C351 1.524 . S
C353 C350 1.403 . S
C353 C354 1.392 . S
C353 C357 1.495 . S
C354 C353 1.392 . S
C354 C355 1.385 . S
C354 C356 1.478 . S
C355 H349 0.930 . S
C355 C351 1.400 . S
C355 C354 1.385 . S
C356 C354 1.478 . S
C356 C358 1.381 . S
C356 C362 1.383 . S
C357 C353 1.495 . S
C357 H363 0.959 . S
C357 H364 0.961 . S
C357 H365 0.960 . S
C358 C356 1.381 . S
C358 C359 1.394 . S
C358 H366 0.930 . S
C359 C358 1.394 . S
C359 C360 1.383 . S
C359 H367 0.929 . S
C360 C359 1.383 . S
C360 C361 1.377 . S
C361 H345 0.930 . S
C361 C360 1.377 . S
C361 C362 1.379 . S
C362 H346 0.931 . S
C362 C356 1.383 . S
C362 C361 1.379 . S
H363 C357 0.959 . S
H364 C357 0.961 . S
H365 C357 0.960 . S
H366 C358 0.930 . S
H367 C359 0.929 . S
H368 C376 0.929 . S
H369 C378 0.930 . S
H370 C380 0.930 . S
H371 C383 0.929 . S
H372 C386 0.930 1_554 S
H373 C388 0.960 . S
H374 C388 0.960 . S
H375 C388 0.960 1_565 S
C376 H368 0.929 . S
C376 C377 1.406 . S
C376 C378 1.384 . S
C377 C376 1.406 . S
C377 C383 1.360 1_544 S
C378 H369 0.930 . S
C378 C376 1.384 . S
C378 C379 1.372 1_554 S
C379 C378 1.372 1_556 S
C379 C380 1.400 1_545 S
C379 C384 1.490 . S
C380 H370 0.930 . S
C380 C379 1.400 1_565 S
C380 C383 1.386 . S
H381 C397 0.930 . S
H382 C398 0.931 . S
C383 H371 0.929 . S
C383 C377 1.360 1_566 S
C383 C380 1.386 . S
C384 C379 1.490 . S
C384 C386 1.395 . S
C384 C387 1.403 . S
H385 C391 0.930 . S
C386 H372 0.930 1_556 S
C386 C384 1.395 . S
C386 C389 1.403 . S
C387 C384 1.403 . S
C387 C388 1.524 . S
C387 C391 1.400 . S
C388 H373 0.960 . S
C388 H374 0.960 . S
C388 H375 0.960 1_545 S
C388 C387 1.524 . S
C389 C386 1.403 . S
C389 C390 1.392 . S
C389 C393 1.495 1_556 S
C390 C389 1.392 . S
C390 C391 1.385 . S
C390 C392 1.478 . S
C391 H385 0.930 . S
C391 C387 1.400 . S
C391 C390 1.385 . S
C392 C390 1.478 . S
C392 C394 1.381 . S
C392 C398 1.383 1_545 S
C393 C389 1.495 1_554 S
C393 H399 0.959 . S
C393 H400 0.961 1_545 S
C393 H401 0.960 . S
C394 C392 1.381 . S
C394 C395 1.394 . S
C394 H402 0.930 . S
C395 C394 1.394 . S
C395 C396 1.383 . S
C395 H403 0.929 . S
C396 C395 1.383 . S
C396 C397 1.377 1_545 S
C397 H381 0.930 . S
C397 C396 1.377 1_565 S
C397 C398 1.379 . S
C398 H382 0.931 . S
C398 C392 1.383 1_565 S
C398 C397 1.379 . S
H399 C393 0.959 . S
H400 C393 0.961 1_565 S
H401 C393 0.960 . S
H402 C394 0.930 . S
H403 C395 0.929 . S
H404 C412 0.929 . S
H405 C414 0.930 1_556 S
H406 C416 0.930 . S
H407 C419 0.929 . S
H408 C422 0.933 . S
H409 C424 0.960 . S
H410 C424 0.960 . S
H411 C424 0.960 . S
C412 H404 0.929 . S
C412 C413 1.377 . S
C412 C414 1.384 . S
C413 C412 1.377 . S
C413 C419 1.390 . S
C414 H405 0.930 1_554 S
C414 C412 1.384 . S
C414 C415 1.372 . S
C415 C414 1.372 . S
C415 C416 1.400 . S
C415 C420 1.490 1_554 S
C416 H406 0.930 . S
C416 C415 1.400 . S
C416 C419 1.386 . S
H417 C433 0.930 . S
H418 C434 0.931 . S
C419 H407 0.929 . S
C419 C413 1.390 . S
C419 C416 1.386 . S
C420 C415 1.490 1_556 S
C420 C422 1.393 1_556 S
C420 C423 1.403 . S
H421 C427 0.930 . S
C422 H408 0.933 . S
C422 C420 1.393 1_554 S
C422 C425 1.402 1_554 S
C423 C420 1.403 . S
C423 C424 1.524 . S
C423 C427 1.400 . S
C424 H409 0.960 . S
C424 H410 0.960 . S
C424 H411 0.960 . S
C424 C423 1.524 . S
C425 C422 1.402 1_556 S
C425 C426 1.392 . S
C425 C429 1.495 1_556 S
C426 C425 1.392 . S
C426 C427 1.385 . S
C426 C428 1.478 . S
C427 H421 0.930 . S
C427 C423 1.400 . S
C427 C426 1.385 . S
C428 C426 1.478 . S
C428 C430 1.381 . S
C428 C434 1.383 . S
C429 C425 1.495 1_554 S
C429 H435 0.959 . S
C429 H436 0.961 . S
C429 H437 0.960 1_554 S
C430 C428 1.381 . S
C430 C431 1.394 . S
C430 H438 0.930 . S
C431 C430 1.394 . S
C431 C432 1.383 . S
C431 H439 0.929 . S
C432 C431 1.383 . S
C432 C433 1.377 . S
C433 H417 0.930 . S
C433 C432 1.377 . S
C433 C434 1.379 . S
C434 H418 0.931 . S
C434 C428 1.383 . S
C434 C433 1.379 . S
H435 C429 0.959 . S
H436 C429 0.961 . S
H437 C429 0.960 1_556 S
H438 C430 0.930 . S
H439 C431 0.929 . S
H440 C448 0.929 . S
H441 C450 0.930 . S
H442 C452 0.930 . S
H443 C455 0.929 . S
H444 C458 0.930 . S
H445 C460 0.960 . S
H446 C460 0.960 . S
H447 C460 0.960 . S
C448 H440 0.929 . S
C448 C449 1.377 . S
C448 C450 1.384 . S
C449 C448 1.377 . S
C449 C455 1.390 . S
C450 H441 0.930 . S
C450 C448 1.384 . S
C450 C451 1.372 . S
C451 C450 1.372 . S
C451 C452 1.400 . S
C451 C456 1.490 . S
C452 H442 0.930 . S
C452 C451 1.400 . S
C452 C455 1.386 . S
H453 C469 0.930 . S
H454 C470 0.931 . S
C455 H443 0.929 . S
C455 C449 1.390 . S
C455 C452 1.386 . S
C456 C451 1.490 . S
C456 C458 1.395 . S
C456 C459 1.403 1_554 S
H457 C463 0.930 . S
C458 H444 0.930 . S
C458 C456 1.395 . S
C458 C461 1.403 . S
C459 C456 1.403 1_556 S
C459 C460 1.524 . S
C459 C463 1.400 . S
C460 H445 0.960 . S
C460 H446 0.960 . S
C460 H447 0.960 . S
C460 C459 1.524 . S
C461 C458 1.403 . S
C461 C462 1.392 1_554 S
C461 C465 1.495 . S
C462 C461 1.392 1_556 S
C462 C463 1.385 . S
C462 C464 1.478 . S
C463 H457 0.930 . S
C463 C459 1.400 . S
C463 C462 1.385 . S
C464 C462 1.478 . S
C464 C466 1.381 . S
C464 C470 1.383 . S
C465 C461 1.495 . S
C465 H471 0.959 . S
C465 H472 0.961 . S
C465 H473 0.960 . S
C466 C464 1.381 . S
C466 C467 1.394 . S
C466 H474 0.930 . S
C467 C466 1.394 . S
C467 C468 1.383 . S
C467 H475 0.929 . S
C468 C467 1.383 . S
C468 C469 1.377 . S
C469 H453 0.930 . S
C469 C468 1.377 . S
C469 C470 1.379 . S
C470 H454 0.931 . S
C470 C464 1.383 . S
C470 C469 1.379 . S
H471 C465 0.959 . S
H472 C465 0.961 . S
H473 C465 0.960 . S
H474 C466 0.930 . S
H475 C467 0.929 . S
H476 C484 0.929 . S
H477 C486 0.930 . S
H478 C488 0.930 1_556 S
H479 C491 0.929 . S
H480 C494 0.930 . S
H481 C496 0.960 . S
H482 C496 0.960 . S
H483 C496 0.960 . S
C484 H476 0.929 . S
C484 C485 1.377 . S
C484 C486 1.384 . S
C485 C484 1.377 . S
C485 C491 1.390 . S
C486 H477 0.930 . S
C486 C484 1.384 . S
C486 C487 1.372 . S
C487 C486 1.372 . S
C487 C488 1.400 . S
C487 C492 1.490 1_554 S
C488 H478 0.930 1_554 S
C488 C487 1.400 . S
C488 C491 1.386 . S
H489 C505 0.930 . S
H490 C506 0.931 . S
C491 H479 0.929 . S
C491 C485 1.390 . S
C491 C488 1.386 . S
C492 C487 1.490 1_556 S
C492 C494 1.395 1_556 S
C492 C495 1.403 . S
H493 C499 0.930 . S
C494 H480 0.930 . S
C494 C492 1.395 1_554 S
C494 C497 1.403 . S
C495 C492 1.403 . S
C495 C496 1.524 . S
C495 C499 1.400 . S
C496 H481 0.960 . S
C496 H482 0.960 . S
C496 H483 0.960 . S
C496 C495 1.524 . S
C497 C494 1.403 . S
C497 C498 1.392 1_554 S
C497 C501 1.495 . S
C498 C497 1.392 1_556 S
C498 C499 1.385 . S
C498 C500 1.478 . S
C499 H493 0.930 . S
C499 C495 1.400 . S
C499 C498 1.385 . S
C500 C498 1.478 . S
C500 C502 1.381 1_655 S
C500 C506 1.383 . S
C501 C497 1.495 . S
C501 H507 0.959 . S
C501 H508 0.961 . S
C501 H509 0.960 . S
C502 C500 1.381 1_455 S
C502 C503 1.394 . S
C502 H510 0.930 . S
C503 C502 1.394 . S
C503 C504 1.383 1_455 S
C503 H511 0.929 . S
C504 C503 1.383 1_655 S
C504 C505 1.377 . S
C505 H489 0.930 . S
C505 C504 1.377 . S
C505 C506 1.379 . S
C506 H490 0.931 . S
C506 C500 1.383 . S
C506 C505 1.379 . S
H507 C501 0.959 . S
H508 C501 0.961 . S
H509 C501 0.960 . S
H510 C502 0.930 . S
H511 C503 0.929 . S
H512 C520 0.929 . S
H513 C522 0.930 . S
H514 C524 0.930 . S
H515 C527 0.929 . S
H516 C530 0.930 . S
H517 C532 0.960 1_655 S
H518 C532 0.960 . S
H519 C532 0.960 . S
C520 H512 0.929 . S
C520 C521 1.377 . S
C520 C522 1.384 . S
C521 C520 1.377 . S
C521 C527 1.390 . S
C522 H513 0.930 . S
C522 C520 1.384 . S
C522 C523 1.372 . S
C523 C522 1.372 . S
C523 C524 1.400 . S
C523 C528 1.490 . S
C524 H514 0.930 . S
C524 C523 1.400 . S
C524 C527 1.386 . S
H525 C541 0.930 1_655 S
H526 C542 0.931 . S
C527 H515 0.929 . S
C527 C521 1.390 . S
C527 C524 1.386 . S
C528 C523 1.490 . S
C528 C530 1.395 . S
C528 C531 1.403 . S
H529 C535 0.930 . S
C530 H516 0.930 . S
C530 C528 1.395 . S
C530 C533 1.403 . S
C531 C528 1.403 . S
C531 C532 1.524 . S
C531 C535 1.400 . S
C532 H517 0.960 1_455 S
C532 H518 0.960 . S
C532 H519 0.960 . S
C532 C531 1.524 . S
C533 C530 1.403 . S
C533 C534 1.392 . S
C533 C537 1.495 . S
C534 C533 1.392 . S
C534 C535 1.385 . S
C534 C536 1.478 . S
C535 H529 0.930 . S
C535 C531 1.400 . S
C535 C534 1.385 . S
C536 C534 1.478 . S
C536 C538 1.381 . S
C536 C542 1.383 . S
C537 C533 1.495 . S
C537 H543 0.959 . S
C537 H544 0.961 . S
C537 H545 0.960 . S
C538 C536 1.381 . S
C538 C539 1.394 . S
C538 H546 0.930 . S
C539 C538 1.394 . S
C539 C540 1.383 . S
C539 H547 0.929 . S
C540 C539 1.383 . S
C540 C541 1.377 . S
C541 H525 0.930 1_455 S
C541 C540 1.377 . S
C541 C542 1.379 . S
C542 H526 0.931 . S
C542 C536 1.383 . S
C542 C541 1.379 . S
H543 C537 0.959 . S
H544 C537 0.961 . S
H545 C537 0.960 . S
H546 C538 0.930 . S
H547 C539 0.929 . S
H548 C556 0.929 . S
H549 C558 0.930 . S
H550 C560 0.930 . S
H551 C563 0.929 . S
H552 C566 0.930 . S
H553 C568 0.960 . S
H554 C568 0.960 . S
H555 C568 0.960 . S
C556 H548 0.929 . S
C556 C557 1.391 . S
C556 C558 1.384 . S
C557 C556 1.391 . S
C557 C563 1.377 1_545 S
C558 H549 0.930 . S
C558 C556 1.384 . S
C558 C559 1.359 1_545 S
C559 C558 1.359 1_565 S
C559 C560 1.412 . S
C559 C564 1.491 . S
C560 H550 0.930 . S
C560 C559 1.412 . S
C560 C563 1.386 . S
H561 C577 0.930 . S
H562 C578 0.931 . S
C563 H551 0.929 . S
C563 C557 1.377 1_565 S
C563 C560 1.386 . S
C564 C559 1.491 . S
C564 C566 1.395 . S
C564 C567 1.403 1_565 S
H565 C571 0.930 . S
C566 H552 0.930 . S
C566 C564 1.395 . S
C566 C569 1.403 . S
C567 C564 1.403 1_545 S
C567 C568 1.524 . S
C567 C571 1.400 . S
C568 H553 0.960 . S
C568 H554 0.960 . S
C568 H555 0.960 . S
C568 C567 1.524 . S
C569 C566 1.403 . S
C569 C570 1.392 . S
C569 C573 1.495 . S
C570 C569 1.392 . S
C570 C571 1.385 1_565 S
C570 C572 1.478 . S
C571 H565 0.930 . S
C571 C567 1.400 . S
C571 C570 1.385 1_545 S
C572 C570 1.478 . S
C572 C574 1.381 1_565 S
C572 C578 1.383 . S
C573 C569 1.495 . S
C573 H579 0.959 . S
C573 H580 0.961 . S
C573 H581 0.960 . S
C574 C572 1.381 1_545 S
C574 C575 1.394 . S
C574 H582 0.930 . S
C575 C574 1.394 . S
C575 C576 1.383 1_545 S
C575 H583 0.929 . S
C576 C575 1.383 1_565 S
C576 C577 1.377 . S
C577 H561 0.930 . S
C577 C576 1.377 . S
C577 C578 1.379 . S
C578 H562 0.931 . S
C578 C572 1.383 . S
C578 C577 1.379 . S
H579 C573 0.959 . S
H580 C573 0.961 . S
H581 C573 0.960 . S
H582 C574 0.930 . S
H583 C575 0.929 . S
H584 C592 0.929 . S
H585 C594 0.930 . S
H586 C596 0.930 . S
H587 C599 0.929 . S
H588 C602 0.930 . S
H589 C604 0.960 . S
H590 C604 0.960 . S
H591 C604 0.960 . S
C592 H584 0.929 . S
C592 C593 1.377 . S
C592 C594 1.384 . S
C593 C592 1.377 . S
C593 C599 1.390 . S
C594 H585 0.930 . S
C594 C592 1.384 . S
C594 C595 1.372 . S
C595 C594 1.372 . S
C595 C596 1.400 . S
C595 C600 1.490 . S
C596 H586 0.930 . S
C596 C595 1.400 . S
C596 C599 1.386 . S
H597 C613 0.930 . S
H598 C614 0.931 . S
C599 H587 0.929 . S
C599 C593 1.390 . S
C599 C596 1.386 . S
C600 C595 1.490 . S
C600 C602 1.395 . S
C600 C603 1.403 . S
H601 C607 0.930 . S
C602 H588 0.930 . S
C602 C600 1.395 . S
C602 C605 1.403 . S
C603 C600 1.403 . S
C603 C604 1.524 . S
C603 C607 1.400 . S
C604 H589 0.960 . S
C604 H590 0.960 . S
C604 H591 0.960 . S
C604 C603 1.524 . S
C605 C602 1.403 . S
C605 C606 1.392 . S
C605 C609 1.495 . S
C606 C605 1.392 . S
C606 C607 1.385 . S
C606 C608 1.478 . S
C607 H601 0.930 . S
C607 C603 1.400 . S
C607 C606 1.385 . S
C608 C606 1.478 . S
C608 C610 1.381 . S
C608 C614 1.383 . S
C609 C605 1.495 . S
C609 H615 0.959 . S
C609 H616 0.961 . S
C609 H617 0.960 . S
C610 C608 1.381 . S
C610 C611 1.394 . S
C610 H618 0.930 . S
C611 C610 1.394 . S
C611 C612 1.383 . S
C611 H619 0.929 . S
C612 C611 1.383 . S
C612 C613 1.377 . S
C613 H597 0.930 . S
C613 C612 1.377 . S
C613 C614 1.379 . S
C614 H598 0.931 . S
C614 C608 1.383 . S
C614 C613 1.379 . S
H615 C609 0.959 . S
H616 C609 0.961 . S
H617 C609 0.960 . S
H618 C610 0.930 . S
H619 C611 0.929 . S
H620 C628 0.929 . S
H621 C630 0.930 . S
H622 C632 0.930 . S
H623 C635 0.929 . S
H624 C638 0.930 . S
H625 C640 0.960 . S
H626 C640 0.960 . S
H627 C640 0.960 . S
C628 H620 0.929 . S
C628 C629 1.377 . S
C628 C630 1.384 . S
C629 C628 1.377 . S
C629 C635 1.390 . S
C630 H621 0.930 . S
C630 C628 1.384 . S
C630 C631 1.372 . S
C631 C630 1.372 . S
C631 C632 1.400 . S
C631 C636 1.490 . S
C632 H622 0.930 . S
C632 C631 1.400 . S
C632 C635 1.386 . S
H633 C649 0.930 . S
H634 C650 0.931 . S
C635 H623 0.929 . S
C635 C629 1.390 . S
C635 C632 1.386 . S
C636 C631 1.490 . S
C636 C638 1.395 . S
C636 C639 1.403 . S
H637 C643 0.930 . S
C638 H624 0.930 . S
C638 C636 1.395 . S
C638 C641 1.403 . S
C639 C636 1.403 . S
C639 C640 1.524 . S
C639 C643 1.400 . S
C640 H625 0.960 . S
C640 H626 0.960 . S
C640 H627 0.960 . S
C640 C639 1.524 . S
C641 C638 1.403 . S
C641 C642 1.392 . S
C641 C645 1.495 . S
C642 C641 1.392 . S
C642 C643 1.385 . S
C642 C644 1.478 . S
C643 H637 0.930 . S
C643 C639 1.400 . S
C643 C642 1.385 . S
C644 C642 1.478 . S
C644 C646 1.381 . S
C644 C650 1.383 . S
C645 C641 1.495 . S
C645 H651 0.959 . S
C645 H652 0.961 . S
C645 H653 0.960 . S
C646 C644 1.381 . S
C646 C647 1.394 . S
C646 H654 0.930 . S
C647 C646 1.394 . S
C647 C648 1.383 . S
C647 H655 0.929 . S
C648 C647 1.383 . S
C648 C649 1.377 . S
C649 H633 0.930 . S
C649 C648 1.377 . S
C649 C650 1.379 . S
C650 H634 0.931 . S
C650 C644 1.383 . S
C650 C649 1.379 . S
H651 C645 0.959 . S
H652 C645 0.961 . S
H653 C645 0.960 . S
H654 C646 0.930 . S
H655 C647 0.929 . S
H656 C664 0.929 . S
H657 C666 0.930 . S
H658 C668 0.930 1_556 S
H659 C671 0.929 . S
H660 C674 0.930 1_455 S
H661 C676 0.960 . S
H662 C676 0.960 . S
H663 C676 0.960 . S
C664 H656 0.929 . S
C664 C665 1.377 . S
C664 C666 1.384 . S
C665 C664 1.377 . S
C665 C671 1.390 . S
C666 H657 0.930 . S
C666 C664 1.384 . S
C666 C667 1.372 . S
C667 C666 1.372 . S
C667 C668 1.400 . S
C667 C672 1.484 1_554 S
C668 H658 0.930 1_554 S
C668 C667 1.400 . S
C668 C671 1.386 . S
H669 C685 0.930 . S
H670 C686 0.931 . S
C671 H659 0.929 . S
C671 C665 1.390 . S
C671 C668 1.386 . S
C672 C667 1.484 1_556 S
C672 C674 1.404 . S
C672 C675 1.400 1_556 S
H673 C679 0.930 . S
C674 H660 0.930 1_655 S
C674 C672 1.404 . S
C674 C677 1.403 1_655 S
C675 C672 1.400 1_554 S
C675 C676 1.524 . S
C675 C679 1.400 1_554 S
C676 H661 0.960 . S
C676 H662 0.960 . S
C676 H663 0.960 . S
C676 C675 1.524 . S
C677 C674 1.403 1_455 S
C677 C678 1.392 1_455 S
C677 C681 1.495 . S
C678 C677 1.392 1_655 S
C678 C679 1.385 . S
C678 C680 1.483 . S
C679 H673 0.930 . S
C679 C675 1.400 1_556 S
C679 C678 1.385 . S
C680 C678 1.483 . S
C680 C682 1.366 1_655 S
C680 C686 1.393 . S
C681 C677 1.495 . S
C681 H687 0.959 . S
C681 H688 0.961 . S
C681 H689 0.960 . S
C682 C680 1.366 1_455 S
C682 C683 1.394 . S
C682 H690 0.930 . S
C683 C682 1.394 . S
C683 C684 1.383 . S
C683 H691 0.929 . S
C684 C683 1.383 . S
C684 C685 1.377 1_455 S
C685 H669 0.930 . S
C685 C684 1.377 1_655 S
C685 C686 1.379 . S
C686 H670 0.931 . S
C686 C680 1.393 . S
C686 C685 1.379 . S
H687 C681 0.959 . S
H688 C681 0.961 . S
H689 C681 0.960 . S
H690 C682 0.930 . S
H691 C683 0.929 . S
H692 C700 0.929 . S
H693 C702 0.930 . S
H694 C704 0.930 . S
H695 C707 0.930 . S
H696 C710 0.930 . S
H697 C712 0.960 . S
H698 C712 0.960 . S
H699 C712 0.960 . S
C700 H692 0.929 . S
C700 C701 1.373 . S
C700 C702 1.384 . S
C701 C700 1.373 . S
C701 C707 1.394 1_545 S
C702 H693 0.930 . S
C702 C700 1.384 . S
C702 C703 1.372 1_554 S
C703 C702 1.372 1_556 S
C703 C704 1.400 1_545 S
C703 C708 1.490 . S
C704 H694 0.930 . S
C704 C703 1.400 1_565 S
C704 C707 1.386 1_556 S
H705 C721 0.930 . S
H706 C722 0.931 . S
C707 H695 0.930 . S
C707 C701 1.394 1_565 S
C707 C704 1.386 1_554 S
C708 C703 1.490 . S
C708 C710 1.395 . S
C708 C711 1.403 1_545 S
H709 C715 0.930 . S
C710 H696 0.930 . S
C710 C708 1.395 . S
C710 C713 1.403 . S
C711 C708 1.403 1_565 S
C711 C712 1.524 1_556 S
C711 C715 1.400 . S
C712 H697 0.960 . S
C712 H698 0.960 . S
C712 H699 0.960 . S
C712 C711 1.524 1_554 S
C713 C710 1.403 . S
C713 C714 1.392 . S
C713 C717 1.495 . S
C714 C713 1.392 . S
C714 C715 1.385 1_545 S
C714 C716 1.478 . S
C715 H709 0.930 . S
C715 C711 1.400 . S
C715 C714 1.385 1_565 S
C716 C714 1.478 . S
C716 C718 1.381 . S
C716 C722 1.383 1_545 S
C717 C713 1.495 . S
C717 H723 0.959 . S
C717 H724 0.961 . S
C717 H725 0.960 . S
C718 C716 1.381 . S
C718 C719 1.394 . S
C718 H726 0.930 . S
C719 C718 1.394 . S
C719 C720 1.383 . S
C719 H727 0.929 . S
C720 C719 1.383 . S
C720 C721 1.377 1_545 S
C721 H705 0.930 . S
C721 C720 1.377 1_565 S
C721 C722 1.379 . S
C722 H706 0.931 . S
C722 C716 1.383 1_565 S
C722 C721 1.379 . S
H723 C717 0.959 . S
H724 C717 0.961 . S
H725 C717 0.960 . S
H726 C718 0.930 . S
H727 C719 0.929 . S
H728 C736 0.929 . S
H729 C738 0.930 . S
H730 C740 0.930 . S
H731 C743 0.929 . S
H732 C746 0.930 . S
H733 C748 0.960 . S
H734 C748 0.960 . S
H735 C748 0.960 . S
C736 H728 0.929 . S
C736 C737 1.377 . S
C736 C738 1.384 . S
C737 C736 1.377 . S
C737 C743 1.390 . S
C738 H729 0.930 . S
C738 C736 1.384 . S
C738 C739 1.372 . S
C739 C738 1.372 . S
C739 C740 1.400 . S
C739 C744 1.490 1_554 S
C740 H730 0.930 . S
C740 C739 1.400 . S
C740 C743 1.386 . S
H741 C757 0.930 . S
H742 C758 0.931 . S
C743 H731 0.929 . S
C743 C737 1.390 . S
C743 C740 1.386 . S
C744 C739 1.490 1_556 S
C744 C746 1.395 . S
C744 C747 1.403 1_556 S
H745 C751 0.930 1_554 S
C746 H732 0.930 . S
C746 C744 1.395 . S
C746 C749 1.403 . S
C747 C744 1.403 1_554 S
C747 C748 1.524 . S
C747 C751 1.400 1_554 S
C748 H733 0.960 . S
C748 H734 0.960 . S
C748 H735 0.960 . S
C748 C747 1.524 . S
C749 C746 1.403 . S
C749 C750 1.392 . S
C749 C753 1.495 . S
C750 C749 1.392 . S
C750 C751 1.385 . S
C750 C752 1.478 . S
C751 H745 0.930 1_556 S
C751 C747 1.400 1_556 S
C751 C750 1.385 . S
C752 C750 1.478 . S
C752 C754 1.381 . S
C752 C758 1.383 . S
C753 C749 1.495 . S
C753 H759 0.959 . S
C753 H760 0.961 . S
C753 H761 0.960 . S
C754 C752 1.381 . S
C754 C755 1.394 . S
C754 H762 0.930 . S
C755 C754 1.394 . S
C755 C756 1.383 . S
C755 H763 0.929 . S
C756 C755 1.383 . S
C756 C757 1.377 . S
C757 H741 0.930 . S
C757 C756 1.377 . S
C757 C758 1.379 . S
C758 H742 0.931 . S
C758 C752 1.383 . S
C758 C757 1.379 . S
H759 C753 0.959 . S
H760 C753 0.961 . S
H761 C753 0.960 . S
H762 C754 0.930 . S
H763 C755 0.929 . S
H764 C772 0.929 . S
H765 C774 0.930 . S
H766 C776 0.930 . S
H767 C779 0.929 . S
H768 C782 0.930 . S
H769 C784 0.960 . S
H770 C784 0.960 . S
H771 C784 0.960 . S
C772 H764 0.929 . S
C772 C773 1.377 . S
C772 C774 1.384 . S
C773 C772 1.377 . S
C773 C779 1.390 . S
C774 H765 0.930 . S
C774 C772 1.384 . S
C774 C775 1.372 . S
C775 C774 1.372 . S
C775 C776 1.400 . S
C775 C780 1.490 . S
C776 H766 0.930 . S
C776 C775 1.400 . S
C776 C779 1.386 . S
H777 C793 0.930 . S
H778 C794 0.931 . S
C779 H767 0.929 . S
C779 C773 1.390 . S
C779 C776 1.386 . S
C780 C775 1.490 . S
C780 C782 1.395 1_554 S
C780 C783 1.403 . S
H781 C787 0.930 . S
C782 H768 0.930 . S
C782 C780 1.395 1_556 S
C782 C785 1.403 . S
C783 C780 1.403 . S
C783 C784 1.524 . S
C783 C787 1.400 . S
C784 H769 0.960 . S
C784 H770 0.960 . S
C784 H771 0.960 . S
C784 C783 1.524 . S
C785 C782 1.403 . S
C785 C786 1.392 . S
C785 C789 1.495 . S
C786 C785 1.392 . S
C786 C787 1.385 1_556 S
C786 C788 1.478 . S
C787 H781 0.930 . S
C787 C783 1.400 . S
C787 C786 1.385 1_554 S
C788 C786 1.478 . S
C788 C790 1.381 . S
C788 C794 1.383 . S
C789 C785 1.495 . S
C789 H795 0.959 . S
C789 H796 0.961 . S
C789 H797 0.960 . S
C790 C788 1.381 . S
C790 C791 1.394 . S
C790 H798 0.930 . S
C791 C790 1.394 . S
C791 C792 1.383 . S
C791 H799 0.929 . S
C792 C791 1.383 . S
C792 C793 1.377 . S
C793 H777 0.930 . S
C793 C792 1.377 . S
C793 C794 1.379 . S
C794 H778 0.931 . S
C794 C788 1.383 . S
C794 C793 1.379 . S
H795 C789 0.959 . S
H796 C789 0.961 . S
H797 C789 0.960 . S
H798 C790 0.930 . S
H799 C791 0.929 . S
H800 C808 0.929 . S
H801 C810 0.930 . S
H802 C812 0.930 . S
H803 C815 0.929 . S
H804 C818 0.930 . S
H805 C820 0.960 . S
H806 C820 0.960 . S
H807 C820 0.960 . S
C808 H800 0.929 . S
C808 C809 1.377 . S
C808 C810 1.384 . S
C809 C808 1.377 . S
C809 C815 1.390 . S
C810 H801 0.930 . S
C810 C808 1.384 . S
C810 C811 1.372 . S
C811 C810 1.372 . S
C811 C812 1.400 . S
C811 C816 1.490 . S
C812 H802 0.930 . S
C812 C811 1.400 . S
C812 C815 1.386 . S
H813 C829 0.930 . S
H814 C830 0.931 . S
C815 H803 0.929 . S
C815 C809 1.390 . S
C815 C812 1.386 . S
C816 C811 1.490 . S
C816 C818 1.395 . S
C816 C819 1.403 . S
H817 C823 0.930 . S
C818 H804 0.930 . S
C818 C816 1.395 . S
C818 C821 1.403 . S
C819 C816 1.403 . S
C819 C820 1.524 . S
C819 C823 1.400 . S
C820 H805 0.960 . S
C820 H806 0.960 . S
C820 H807 0.960 . S
C820 C819 1.524 . S
C821 C818 1.403 . S
C821 C822 1.392 . S
C821 C825 1.495 . S
C822 C821 1.392 . S
C822 C823 1.385 . S
C822 C824 1.478 . S
C823 H817 0.930 . S
C823 C819 1.400 . S
C823 C822 1.385 . S
C824 C822 1.478 . S
C824 C826 1.381 . S
C824 C830 1.383 . S
C825 C821 1.495 . S
C825 H831 0.959 . S
C825 H832 0.961 . S
C825 H833 0.960 . S
C826 C824 1.381 . S
C826 C827 1.394 . S
C826 H834 0.930 . S
C827 C826 1.394 . S
C827 C828 1.383 . S
C827 H835 0.929 1_554 S
C828 C827 1.383 . S
C828 C829 1.377 . S
C829 H813 0.930 . S
C829 C828 1.377 . S
C829 C830 1.379 . S
C830 H814 0.931 . S
C830 C824 1.383 . S
C830 C829 1.379 . S
H831 C825 0.959 . S
H832 C825 0.961 . S
H833 C825 0.960 . S
H834 C826 0.930 . S
H835 C827 0.929 1_556 S
H836 C844 0.929 . S
H837 C846 0.930 . S
H838 C848 0.930 . S
H839 C851 0.929 . S
H840 C854 0.930 . S
H841 C856 0.948 1_565 S
H842 C856 0.975 . S
H843 C856 0.946 1_565 S
C844 H836 0.929 . S
C844 C845 1.420 . S
C844 C846 1.384 . S
C845 C844 1.420 . S
C845 C851 1.346 1_545 S
C846 H837 0.930 . S
C846 C844 1.384 . S
C846 C847 1.372 . S
C847 C846 1.372 . S
C847 C848 1.400 1_545 S
C847 C852 1.490 . S
C848 H838 0.930 . S
C848 C847 1.400 1_565 S
C848 C851 1.386 . S
H849 C865 0.930 . S
H850 C866 0.931 . S
C851 H839 0.929 . S
C851 C845 1.346 1_565 S
C851 C848 1.386 . S
C852 C847 1.490 . S
C852 C854 1.395 . S
C852 C855 1.403 . S
H853 C859 0.930 . S
C854 H840 0.930 . S
C854 C852 1.395 . S
C854 C857 1.403 . S
C855 C852 1.403 . S
C855 C856 1.526 . S
C855 C859 1.400 . S
C856 H841 0.948 1_545 S
C856 H842 0.975 . S
C856 H843 0.946 1_545 S
C856 C855 1.526 . S
C857 C854 1.403 . S
C857 C858 1.392 . S
C857 C861 1.495 . S
C858 C857 1.392 . S
C858 C859 1.385 . S
C858 C860 1.478 . S
C859 H853 0.930 . S
C859 C855 1.400 . S
C859 C858 1.385 . S
C860 C858 1.478 . S
C860 C862 1.381 . S
C860 C866 1.383 1_545 S
C861 C857 1.495 . S
C861 H867 0.959 . S
C861 H868 0.961 . S
C861 H869 0.960 . S
C862 C860 1.381 . S
C862 C863 1.394 . S
C862 H870 0.930 . S
C863 C862 1.394 . S
C863 C864 1.383 . S
C863 H871 0.929 . S
C864 C863 1.383 . S
C864 C865 1.377 1_545 S
C865 H849 0.930 . S
C865 C864 1.377 1_565 S
C865 C866 1.379 . S
C866 H850 0.931 . S
C866 C860 1.383 1_565 S
C866 C865 1.379 . S
H867 C861 0.959 . S
H868 C861 0.961 . S
H869 C861 0.960 . S
H870 C862 0.930 . S
H871 C863 0.929 . S
H872 C880 0.929 . S
H873 C882 0.930 . S
H874 C884 0.930 . S
H875 C887 0.929 . S
H876 C890 0.930 . S
H877 C892 0.960 . S
H878 C892 0.960 . S
H879 C892 0.960 . S
C880 H872 0.929 . S
C880 C881 1.377 . S
C880 C882 1.384 . S
C881 C880 1.377 . S
C881 C887 1.390 . S
C882 H873 0.930 . S
C882 C880 1.384 . S
C882 C883 1.372 . S
C883 C882 1.372 . S
C883 C884 1.400 . S
C883 C888 1.490 . S
C884 H874 0.930 . S
C884 C883 1.400 . S
C884 C887 1.386 . S
H885 C901 0.930 . S
H886 C902 0.931 1_554 S
C887 H875 0.929 . S
C887 C881 1.390 . S
C887 C884 1.386 . S
C888 C883 1.490 . S
C888 C890 1.395 . S
C888 C891 1.403 . S
H889 C895 0.930 . S
C890 H876 0.930 . S
C890 C888 1.395 . S
C890 C893 1.403 . S
C891 C888 1.403 . S
C891 C892 1.524 . S
C891 C895 1.400 . S
C892 H877 0.960 . S
C892 H878 0.960 . S
C892 H879 0.960 . S
C892 C891 1.524 . S
C893 C890 1.403 . S
C893 C894 1.392 . S
C893 C897 1.495 . S
C894 C893 1.392 . S
C894 C895 1.385 . S
C894 C896 1.478 . S
C895 H889 0.930 . S
C895 C891 1.400 . S
C895 C894 1.385 . S
C896 C894 1.478 . S
C896 C898 1.381 . S
C896 C902 1.383 1_554 S
C897 C893 1.495 . S
C897 H903 0.959 . S
C897 H904 0.961 1_554 S
C897 H905 0.960 . S
C898 C896 1.381 . S
C898 C899 1.394 1_554 S
C898 H906 0.930 . S
C899 C898 1.394 1_556 S
C899 C900 1.383 . S
C899 H907 0.929 . S
C900 C899 1.383 . S
C900 C901 1.377 . S
C901 H885 0.930 . S
C901 C900 1.377 . S
C901 C902 1.379 . S
C902 H886 0.931 1_556 S
C902 C896 1.383 1_556 S
C902 C901 1.379 . S
H903 C897 0.959 . S
H904 C897 0.961 1_556 S
H905 C897 0.960 . S
H906 C898 0.930 . S
H907 C899 0.929 . S
H908 C916 0.929 . S
H909 C918 0.930 . S
H910 C920 0.930 . S
H911 C923 0.929 . S
H912 C926 0.930 . S
H913 C928 0.960 . S
H914 C928 0.960 . S
H915 C928 0.960 . S
C916 H908 0.929 . S
C916 C917 1.377 . S
C916 C918 1.384 . S
C917 C916 1.377 . S
C917 C923 1.390 . S
C918 H909 0.930 . S
C918 C916 1.384 . S
C918 C919 1.372 . S
C919 C918 1.372 . S
C919 C920 1.400 . S
C919 C924 1.490 . S
C920 H910 0.930 . S
C920 C919 1.400 . S
C920 C923 1.386 . S
H921 C937 0.930 . S
H922 C938 0.931 . S
C923 H911 0.929 . S
C923 C917 1.390 . S
C923 C920 1.386 . S
C924 C919 1.490 . S
C924 C926 1.395 . S
C924 C927 1.403 . S
H925 C931 0.930 . S
C926 H912 0.930 . S
C926 C924 1.395 . S
C926 C929 1.403 . S
C927 C924 1.403 . S
C927 C928 1.524 . S
C927 C931 1.400 . S
C928 H913 0.960 . S
C928 H914 0.960 . S
C928 H915 0.960 . S
C928 C927 1.524 . S
C929 C926 1.403 . S
C929 C930 1.392 . S
C929 C933 1.495 . S
C930 C929 1.392 . S
C930 C931 1.385 . S
C930 C932 1.478 . S
C931 H925 0.930 . S
C931 C927 1.400 . S
C931 C930 1.385 . S
C932 C930 1.478 . S
C932 C934 1.381 . S
C932 C938 1.383 1_554 S
C933 C929 1.495 . S
C933 H939 0.959 . S
C933 H940 0.961 . S
C933 H941 0.960 . S
C934 C932 1.381 . S
C934 C935 1.394 1_554 S
C934 H942 0.930 . S
C935 C934 1.394 1_556 S
C935 C936 1.383 . S
C935 H943 0.929 . S
C936 C935 1.383 . S
C936 C937 1.377 . S
C937 H921 0.930 . S
C937 C936 1.377 . S
C937 C938 1.379 . S
C938 H922 0.931 . S
C938 C932 1.383 1_556 S
C938 C937 1.379 . S
H939 C933 0.959 . S
H940 C933 0.961 . S
H941 C933 0.960 . S
H942 C934 0.930 . S
H943 C935 0.929 . S
H944 C952 0.929 . S
H945 C954 0.930 . S
H946 C956 0.930 . S
H947 C959 0.929 . S
H948 C962 0.890 1_455 S
H949 C964 0.960 . S
H950 C964 0.960 . S
H951 C964 0.960 . S
C952 H944 0.929 . S
C952 C953 1.377 . S
C952 C954 1.384 . S
C953 C952 1.377 . S
C953 C959 1.390 . S
C954 H945 0.930 . S
C954 C952 1.384 . S
C954 C955 1.372 . S
C955 C954 1.372 . S
C955 C956 1.400 . S
C955 C960 1.490 . S
C956 H946 0.930 . S
C956 C955 1.400 . S
C956 C959 1.386 . S
H957 C973 0.930 . S
H958 C974 0.931 . S
C959 H947 0.929 . S
C959 C953 1.390 . S
C959 C956 1.386 . S
C960 C955 1.490 . S
C960 C962 1.395 . S
C960 C963 1.403 . S
H961 C967 0.930 . S
C962 H948 0.890 1_655 S
C962 C960 1.395 . S
C962 C965 1.403 . S
C963 C960 1.403 . S
C963 C964 1.524 . S
C963 C967 1.400 . S
C964 H949 0.960 . S
C964 H950 0.960 . S
C964 H951 0.960 . S
C964 C963 1.524 . S
C965 C962 1.403 . S
C965 C966 1.392 . S
C965 C969 1.495 1_655 S
C966 C965 1.392 . S
C966 C967 1.385 . S
C966 C968 1.478 . S
C967 H961 0.930 . S
C967 C963 1.400 . S
C967 C966 1.385 . S
C968 C966 1.478 . S
C968 C970 1.381 . S
C968 C974 1.383 . S
C969 C965 1.495 1_455 S
C969 H975 0.959 . S
C969 H976 0.961 . S
C969 H977 0.960 . S
C970 C968 1.381 . S
C970 C971 1.394 . S
C970 H978 0.930 . S
C971 C970 1.394 . S
C971 C972 1.383 . S
C971 H979 0.942 . S
C972 C971 1.383 . S
C972 C973 1.377 . S
C973 H957 0.930 . S
C973 C972 1.377 . S
C973 C974 1.379 . S
C974 H958 0.931 . S
C974 C968 1.383 . S
C974 C973 1.379 . S
H975 C969 0.959 . S
H976 C969 0.961 . S
H977 C969 0.960 . S
H978 C970 0.930 . S
H979 C971 0.942 . S
H980 C988 0.929 . S
H981 C990 0.930 . S
H982 C992 0.930 . S
H983 C995 0.929 . S
H984 C998 0.930 . S
H985 C1000 0.960 . S
H986 C1000 0.960 . S
H987 C1000 0.960 . S
C988 H980 0.929 . S
C988 C989 1.372 1_545 S
C988 C990 1.384 . S
C989 C988 1.372 1_565 S
C989 C995 1.394 . S
C990 H981 0.930 . S
C990 C988 1.384 . S
C990 C991 1.372 1_545 S
C991 C990 1.372 1_565 S
C991 C992 1.400 . S
C991 C996 1.490 . S
C992 H982 0.930 . S
C992 C991 1.400 . S
C992 C995 1.386 . S
H993 C1009 0.930 . S
H994 C1010 0.931 . S
C995 H983 0.929 . S
C995 C989 1.394 . S
C995 C992 1.386 . S
C996 C991 1.490 . S
C996 C998 1.395 1_565 S
C996 C999 1.403 . S
H997 C1003 0.930 . S
C998 H984 0.930 . S
C998 C996 1.395 1_545 S
C998 C1001 1.403 . S
C999 C996 1.403 . S
C999 C1000 1.524 . S
C999 C1003 1.400 . S
C1000 H985 0.960 . S
C1000 H986 0.960 . S
C1000 H987 0.960 . S
C1000 C999 1.524 . S
C1001 C998 1.403 . S
C1001 C1002 1.392 1_545 S
C1001 C1005 1.495 . S
C1002 C1001 1.392 1_565 S
C1002 C1003 1.385 . S
C1002 C1004 1.478 . S
C1003 H997 0.930 . S
C1003 C999 1.400 . S
C1003 C1002 1.385 . S
C1004 C1002 1.478 . S
C1004 C1006 1.381 1_565 S
C1004 C1010 1.383 . S
C1005 C1001 1.495 . S
C1005 H1011 0.959 . S
C1005 H1012 0.961 1_545 S
C1005 H1013 0.960 . S
C1006 C1004 1.381 1_545 S
C1006 C1007 1.394 . S
C1006 H1014 0.930 . S
C1007 C1006 1.394 . S
C1007 C1008 1.383 1_545 S
C1007 H1015 0.929 . S
C1008 C1007 1.383 1_565 S
C1008 C1009 1.377 . S
C1009 H993 0.930 . S
C1009 C1008 1.377 . S
C1009 C1010 1.379 . S
C1010 H994 0.931 . S
C1010 C1004 1.383 . S
C1010 C1009 1.379 . S
H1011 C1005 0.959 . S
H1012 C1005 0.961 1_565 S
H1013 C1005 0.960 . S
H1014 C1006 0.930 . S
H1015 C1007 0.929 . S
H1016 C1024 0.929 . S
H1017 C1026 0.930 . S
H1018 C1028 0.930 . S
H1019 C1031 0.929 . S
H1020 C1034 0.930 . S
H1021 C1036 0.960 . S
H1022 C1036 0.960 . S
H1023 C1036 0.960 . S
C1024 H1016 0.929 . S
C1024 C1025 1.377 . S
C1024 C1026 1.384 . S
C1025 C1024 1.377 . S
C1025 C1031 1.390 . S
C1026 H1017 0.930 . S
C1026 C1024 1.384 . S
C1026 C1027 1.372 . S
C1027 C1026 1.372 . S
C1027 C1028 1.400 . S
C1027 C1032 1.490 . S
C1028 H1018 0.930 . S
C1028 C1027 1.400 . S
C1028 C1031 1.386 . S
H1029 C1045 0.930 . S
H1030 C1046 0.931 . S
C1031 H1019 0.929 . S
C1031 C1025 1.390 . S
C1031 C1028 1.386 . S
C1032 C1027 1.490 . S
C1032 C1034 1.395 . S
C1032 C1035 1.403 . S
H1033 C1039 0.930 . S
C1034 H1020 0.930 . S
C1034 C1032 1.395 . S
C1034 C1037 1.403 . S
C1035 C1032 1.403 . S
C1035 C1036 1.524 . S
C1035 C1039 1.400 . S
C1036 H1021 0.960 . S
C1036 H1022 0.960 . S
C1036 H1023 0.960 . S
C1036 C1035 1.524 . S
C1037 C1034 1.403 . S
C1037 C1038 1.392 . S
C1037 C1041 1.495 . S
C1038 C1037 1.392 . S
C1038 C1039 1.385 . S
C1038 C1040 1.478 . S
C1039 H1033 0.930 . S
C1039 C1035 1.400 . S
C1039 C1038 1.385 . S
C1040 C1038 1.478 . S
C1040 C1042 1.381 . S
C1040 C1046 1.383 . S
C1041 C1037 1.495 . S
C1041 H1047 0.959 . S
C1041 H1048 0.961 . S
C1041 H1049 0.960 . S
C1042 C1040 1.381 . S
C1042 C1043 1.394 . S
C1042 H1050 0.930 . S
C1043 C1042 1.394 . S
C1043 C1044 1.383 . S
C1043 H1051 0.929 . S
C1044 C1043 1.383 . S
C1044 C1045 1.377 . S
C1045 H1029 0.930 . S
C1045 C1044 1.377 . S
C1045 C1046 1.379 . S
C1046 H1030 0.931 . S
C1046 C1040 1.383 . S
C1046 C1045 1.379 . S
H1047 C1041 0.959 . S
H1048 C1041 0.961 . S
H1049 C1041 0.960 . S
H1050 C1042 0.930 . S
H1051 C1043 0.929 . S
H1052 C1060 0.929 . S
H1053 C1062 0.930 . S
H1054 C1064 0.930 . S
H1055 C1067 0.929 . S
H1056 C1070 0.930 . S
H1057 C1072 0.960 . S
H1058 C1072 0.960 . S
H1059 C1072 0.960 . S
C1060 H1052 0.929 . S
C1060 C1061 1.377 . S
C1060 C1062 1.384 . S
C1061 C1060 1.377 . S
C1061 C1067 1.390 . S
C1062 H1053 0.930 . S
C1062 C1060 1.384 . S
C1062 C1063 1.372 . S
C1063 C1062 1.372 . S
C1063 C1064 1.400 . S
C1063 C1068 1.490 . S
C1064 H1054 0.930 . S
C1064 C1063 1.400 . S
C1064 C1067 1.386 . S
H1065 C1081 0.930 . S
H1066 C1082 0.931 . S
C1067 H1055 0.929 . S
C1067 C1061 1.390 . S
C1067 C1064 1.386 . S
C1068 C1063 1.490 . S
C1068 C1070 1.395 . S
C1068 C1071 1.403 . S
H1069 C1075 0.930 . S
C1070 H1056 0.930 . S
C1070 C1068 1.395 . S
C1070 C1073 1.403 . S
C1071 C1068 1.403 . S
C1071 C1072 1.524 . S
C1071 C1075 1.400 . S
C1072 H1057 0.960 . S
C1072 H1058 0.960 . S
C1072 H1059 0.960 . S
C1072 C1071 1.524 . S
C1073 C1070 1.403 . S
C1073 C1074 1.392 . S
C1073 C1077 1.495 . S
C1074 C1073 1.392 . S
C1074 C1075 1.385 . S
C1074 C1076 1.478 . S
C1075 H1069 0.930 . S
C1075 C1071 1.400 . S
C1075 C1074 1.385 . S
C1076 C1074 1.478 . S
C1076 C1078 1.381 . S
C1076 C1082 1.383 . S
C1077 C1073 1.495 . S
C1077 H1083 0.959 . S
C1077 H1084 0.961 . S
C1077 H1085 0.960 . S
C1078 C1076 1.381 . S
C1078 C1079 1.394 . S
C1078 H1086 0.930 . S
C1079 C1078 1.394 . S
C1079 C1080 1.383 . S
C1079 H1087 0.929 . S
C1080 C1079 1.383 . S
C1080 C1081 1.377 . S
C1081 H1065 0.930 . S
C1081 C1080 1.377 . S
C1081 C1082 1.379 . S
C1082 H1066 0.931 . S
C1082 C1076 1.383 . S
C1082 C1081 1.379 . S
H1083 C1077 0.959 . S
H1084 C1077 0.961 . S
H1085 C1077 0.960 . S
H1086 C1078 0.930 . S
H1087 C1079 0.929 . S
C233 N80 1.664 1_545 S
C252 C114 1.667 . S
C288 C144 1.813 . S
C269 N93 1.802 . S
C324 N178 1.390 . S
C305 N54 1.409 . S
C360 N208 1.373 . S
C341 N67 1.374 . S
C396 C105 1.661 . S
C377 N28 1.668 1_545 S
C413 N41 1.815 . S
C432 C135 1.824 . S
C449 N2 1.411 . S
C468 N170 1.354 . S
C485 N15 1.383 . S
C504 N200 1.327 1_655 S
C540 C120 0.122 . S
C521 N70 0.241 . S
C576 C150 0.465 . S
C557 N83 0.449 1_545 S
C612 C191 0.718 . S
C593 N96 0.723 . S
C629 N57 0.321 . S
C648 C221 0.277 . S
C665 N18 0.221 . S
C684 C131 0.289 . S
C720 C161 0.467 . S
C701 N31 0.446 1_545 S
C756 C180 0.722 . S
C737 N44 0.725 . S
C773 N5 0.308 . S
C792 C210 0.324 . S
C809 N66 1.493 . S
C828 N110 1.462 1_554 S
C845 N79 1.469 1_545 S
C864 N140 1.418 1_554 S
C900 C165 1.637 . S
C881 N92 1.636 . S
C936 C195 1.591 . S
C917 N53 1.589 . S
C953 N14 1.501 . S
C972 N118 1.436 . S
C1008 N148 1.412 . S
C989 N27 1.467 . S
C1044 C174 1.639 . S
C1025 N40 1.646 . S
C1061 N1 1.590 . S
C1080 C204 1.587 . S
