# Generated by pormake.
# Topology anh, (6,3)-cn, num edge types: 1
# Building blocks:
#     Node 0, Type 0, BuildingBlock: CUKXOW_clean_sbu_0, # of connection points: 6
#     Node 1, Type 0, BuildingBlock: CUKXOW_clean_sbu_0, # of connection points: 6
#     Node 2, Type 0, BuildingBlock: CUKXOW_clean_sbu_0, # of connection points: 6
#     Node 3, Type 1, BuildingBlock: CUQRIR_clean_linker_1, # of connection points: 3
#     Node 4, Type 1, BuildingBlock: CUQRIR_clean_linker_1, # of connection points: 3
#     Node 5, Type 1, BuildingBlock: CUQRIR_clean_linker_1, # of connection points: 3
#     Node 6, Type 1, BuildingBlock: CUQRIR_clean_linker_1, # of connection points: 3
#     Node 7, Type 1, BuildingBlock: CUQRIR_clean_linker_1, # of connection points: 3
#     Node 8, Type 1, BuildingBlock: CUQRIR_clean_linker_1, # of connection points: 3
#     Edge 9, Type (0, 1), BuildingBlock: AJUNOK_clean_linker_0, # of connection points: 2
#     Edge 10, Type (0, 1), BuildingBlock: AJUNOK_clean_linker_0, # of connection points: 2
#     Edge 11, Type (0, 1), BuildingBlock: AJUNOK_clean_linker_0, # of connection points: 2
#     Edge 12, Type (0, 1), BuildingBlock: AJUNOK_clean_linker_0, # of connection points: 2
#     Edge 13, Type (0, 1), BuildingBlock: AJUNOK_clean_linker_0, # of connection points: 2
#     Edge 14, Type (0, 1), BuildingBlock: AJUNOK_clean_linker_0, # of connection points: 2
#     Edge 15, Type (0, 1), BuildingBlock: AJUNOK_clean_linker_0, # of connection points: 2
#     Edge 16, Type (0, 1), BuildingBlock: AJUNOK_clean_linker_0, # of connection points: 2
#     Edge 17, Type (0, 1), BuildingBlock: AJUNOK_clean_linker_0, # of connection points: 2
#     Edge 18, Type (0, 1), BuildingBlock: AJUNOK_clean_linker_0, # of connection points: 2
#     Edge 19, Type (0, 1), BuildingBlock: AJUNOK_clean_linker_0, # of connection points: 2
#     Edge 20, Type (0, 1), BuildingBlock: AJUNOK_clean_linker_0, # of connection points: 2
#     Edge 21, Type (0, 1), BuildingBlock: AJUNOK_clean_linker_0, # of connection points: 2
#     Edge 22, Type (0, 1), BuildingBlock: AJUNOK_clean_linker_0, # of connection points: 2
#     Edge 23, Type (0, 1), BuildingBlock: AJUNOK_clean_linker_0, # of connection points: 2
#     Edge 24, Type (0, 1), BuildingBlock: AJUNOK_clean_linker_0, # of connection points: 2
#     Edge 25, Type (0, 1), BuildingBlock: AJUNOK_clean_linker_0, # of connection points: 2
#     Edge 26, Type (0, 1), BuildingBlock: AJUNOK_clean_linker_0, # of connection points: 2
# Relax obj value: 0.148
# Max RMSD: 0.195
# Mean RMSD: 0.165
data_MOF--net-anh--node1-CUKXOW_clean_sbu_0--node2-CUQRIR_clean_linker_1--edge1-AJUNOK_clean_linker_0
_symmetry_space_group_name_H-M    P1
_symmetry_Int_Tables_number       1
_symmetry_cell_setting            triclinic
loop_
_symmetry_equiv_pos_as_xyz
'x, y, z'
_cell_length_a     18.685516
_cell_length_b     17.99758
_cell_length_c     31.917575
_cell_angle_alpha  89.072694
_cell_angle_beta   89.603601
_cell_angle_gamma 109.83825
loop_
_atom_site_label
_atom_site_type_symbol
_atom_site_fract_x
_atom_site_fract_y
_atom_site_fract_z
_atom_type_partial_charge
Tb0 Tb 0.05806 0.56162 0.15237 0.0
C1 C 1.02119 0.48118 0.242 0.0
Tb2 Tb 0.97024 0.37848 0.16297 0.0
O3 O 0.9586 0.6009 0.146 0.0
O4 O 0.94255 0.48413 0.15568 0.0
O5 O 0.07048 0.53656 0.21837 0.0
C6 C 0.85273 0.24526 0.17473 0.0
O7 O 0.96696 0.42053 0.22624 0.0
C8 C 0.1236 0.41193 0.16092 0.0
C9 C 1.0191 0.45336 0.07222 0.0
O10 O 0.91593 0.26449 0.1953 0.0
O11 O 0.85707 0.29968 0.14667 0.0
O12 O 0.07294 0.34104 0.16324 0.0
O13 O 0.08383 0.45691 0.15996 0.0
O14 O 0.97909 0.38998 0.09496 0.0
O15 O 0.05657 0.52373 0.08799 0.0
C16 C 0.1726 0.69882 0.15078 0.0
O17 O 0.16446 0.64151 0.12499 0.0
O18 O 0.11496 0.67942 0.17661 0.0
C19 C 0.90582 0.53191 0.15041 0.0
Tb20 Tb 0.54481 0.96525 0.51695 0.0
C21 C 0.621 1.01181 0.42695 0.0
Tb22 Tb 0.72404 0.06519 0.50771 0.0
O23 O 0.50494 0.06833 0.51476 0.0
O24 O 0.61788 0.08194 0.50991 0.0
O25 O 0.56261 0.96528 0.44955 0.0
C26 C 0.84501 0.19363 0.49534 0.0
O27 O 0.68456 0.06089 0.44304 0.0
C28 C 0.69421 0.90993 0.51812 0.0
C29 C 0.64813 1.01572 0.59778 0.0
O30 O 0.83159 0.12829 0.47508 0.0
O31 O 0.79247 0.18468 0.52363 0.0
O32 O 0.76303 0.96123 0.51428 0.0
O33 O 0.6506 0.94964 0.51518 0.0
O34 O 0.70648 0.06384 0.57531 0.0
O35 O 0.58457 0.96658 0.58121 0.0
C36 C 0.41838 0.84133 0.51807 0.0
O37 O 0.4289 0.90418 0.54013 0.0
O38 O 0.47839 0.84899 0.49543 0.0
C39 C 0.57296 0.12062 0.51162 0.0
Tb40 Tb 0.55409 0.61646 0.85165 0.0
C41 C 0.6636 0.63538 0.9267 0.0
Tb42 Tb 0.71442 0.64484 0.83433 0.0
O43 O 0.52394 0.50014 0.82463 0.0
O44 O 0.62477 0.54575 0.85759 0.0
O45 O 0.60909 0.6587 0.91119 0.0
C46 C 0.82706 0.60825 0.79933 0.0
O47 O 0.70895 0.61401 0.90112 0.0
C48 C 0.68564 0.77713 0.84419 0.0
C49 C 0.60126 0.6302 0.75742 0.0
O50 O 0.83584 0.66452 0.82613 0.0
O51 O 0.75542 0.57314 0.79312 0.0
O52 O 0.75085 0.76905 0.85234 0.0
O53 O 0.64388 0.71498 0.82716 0.0
O54 O 0.66934 0.63478 0.77108 0.0
O55 O 0.5451 0.62839 0.78364 0.0
C56 C 0.4186 0.59137 0.8869 0.0
O57 O 0.46278 0.55113 0.8941 0.0
O58 O 0.45103 0.64729 0.85949 0.0
C59 C 0.58505 0.48801 0.83649 0.0
C60 C 0.5177 0.96583 0.18842 0.0
N61 N 0.57111 0.99877 0.21753 0.0
N62 N 0.45608 0.91149 0.20653 0.0
C63 C 0.52513 0.98705 0.1424 0.0
C64 C 0.47396 0.9114 0.24752 0.0
N65 N 0.54406 0.96431 0.25428 0.0
C66 C 0.42285 0.86023 0.28119 0.0
H67 H 0.49111 0.93671 0.12334 0.0
H68 H 0.58549 1.0059 0.13188 0.0
H69 H 0.50353 0.03659 0.13674 0.0
H70 H 0.36433 0.82971 0.27014 0.0
H71 H 0.42084 0.89654 0.30867 0.0
H72 H 0.44659 0.81446 0.2917 0.0
C73 C 0.61666 0.51309 0.52565 0.0
N74 N 0.60943 0.57076 0.55082 0.0
N75 N 0.59496 0.44207 0.54633 0.0
C76 C 0.64557 0.52552 0.48116 0.0
C77 C 0.57252 0.45836 0.58458 0.0
N78 N 0.58055 0.53597 0.58723 0.0
C79 C 0.54819 0.39966 0.62061 0.0
H80 H 0.61144 0.47594 0.46162 0.0
H81 H 0.70517 0.52621 0.48034 0.0
H82 H 0.64345 0.58187 0.46761 0.0
H83 H 0.59391 0.41409 0.64426 0.0
H84 H 0.53605 0.33811 0.61034 0.0
H85 H 0.49634 0.40338 0.63607 0.0
C86 C 0.08692 0.45149 0.83177 0.0
N87 N 0.10532 0.44513 0.87216 0.0
N88 N 1.01127 0.43546 0.82783 0.0
C89 C 0.14384 0.48526 0.79684 0.0
C90 C 0.98409 0.41271 0.86733 0.0
N91 N 1.04121 0.41983 0.89433 0.0
C92 C 0.90321 0.39901 0.88088 0.0
H93 H 0.16205 0.55066 0.7966 0.0
H94 H 0.11786 0.46434 0.76613 0.0
H95 H 0.19496 0.46798 0.80137 0.0
H96 H 0.89081 0.37076 0.9125 0.0
H97 H 0.86393 0.36057 0.85809 0.0
H98 H 0.89301 0.45628 0.88135 0.0
C99 C 0.09341 0.54548 0.48309 0.0
N100 N 0.05354 0.50062 0.45191 0.0
N101 N 0.14166 0.61448 0.46749 0.0
C102 C 0.09056 0.51857 0.52817 0.0
C103 C 0.13053 0.60969 0.42572 0.0
N104 N 0.07721 0.54004 0.41603 0.0
C105 C 0.17477 0.6723 0.39452 0.0
H106 H 1.03739 0.52042 0.54305 0.0
H107 H 0.13955 0.5568 0.54607 0.0
H108 H 0.08951 0.45656 0.52993 0.0
H109 H 0.23028 0.66488 0.38785 0.0
H110 H 0.18664 0.73181 0.40785 0.0
H111 H 0.14342 0.66839 0.36478 0.0
C112 C 0.65174 0.13846 0.83204 0.0
N113 N 0.65719 0.08088 0.8066 0.0
N114 N 0.63961 0.19732 0.80921 0.0
C115 C 0.65335 0.13458 0.879 0.0
C116 C 0.63811 0.17349 0.76917 0.0
N117 N 0.64832 0.103 0.76766 0.0
C118 C 0.62565 0.21831 0.73122 0.0
H119 H 0.61806 0.07472 0.8905 0.0
H120 H 0.63272 0.17949 0.89328 0.0
H121 H 0.71269 0.14508 0.88899 0.0
H122 H 0.63307 0.28056 0.73833 0.0
H123 H 0.56707 0.18889 0.71975 0.0
H124 H 0.66571 0.21706 0.70562 0.0
C125 C 0.51567 0.46919 0.15051 0.0
N126 N 0.58027 0.49605 0.12567 0.0
N127 N 0.45426 0.48156 0.13179 0.0
C128 C 0.51367 0.4348 0.19371 0.0
C129 C 0.48424 0.51585 0.09459 0.0
N130 N 0.55952 0.52567 0.0911 0.0
C131 C 0.43814 0.53501 0.06011 0.0
H132 H 0.5124 0.37294 0.19123 0.0
H133 H 0.46258 0.43519 0.21151 0.0
H134 H 0.56594 0.46833 0.21076 0.0
H135 H 0.37787 0.49556 0.06199 0.0
H136 H 0.46151 0.52908 0.02878 0.0
H137 H 0.43982 0.59687 0.06333 0.0
C138 C 0.26205 0.50884 0.15248 0.0
C139 C 0.21004 0.43093 0.15709 0.0
C140 C 0.34177 0.52513 0.1466 0.0
C141 C 0.37459 0.46462 0.14572 0.0
H142 H 0.24104 0.55778 0.15271 0.0
H143 H 0.37815 0.58591 0.14163 0.0
S144 S 0.26585 0.25071 0.15824 0.0
N145 N 0.19991 0.29259 0.16185 0.0
N146 N 0.34753 0.32356 0.15106 0.0
C147 C 0.32381 0.38695 0.1517 0.0
C148 C 0.2427 0.37019 0.15733 0.0
C149 C 0.88568 0.33931 0.4952 0.0
C150 C 0.89935 0.27095 0.48233 0.0
C151 C 0.93402 0.41419 0.48267 0.0
C152 C 0.99806 0.4234 0.45733 0.0
H153 H 0.83713 0.33514 0.51504 0.0
H154 H 0.92279 0.46572 0.49385 0.0
S155 S 0.05944 0.26406 0.41515 0.0
N156 N 0.98044 0.21704 0.44186 0.0
N157 N 0.0736 0.35929 0.41985 0.0
C158 C 1.01211 0.35598 0.44367 0.0
C159 C 0.96211 0.27922 0.45589 0.0
C160 C 0.73618 0.92576 0.84482 0.0
C161 C 0.6754 0.85498 0.83805 0.0
C162 C 0.72957 0.99981 0.83532 0.0
C163 C 0.66208 1.00537 0.81883 0.0
H164 H 0.78985 0.92398 0.85653 0.0
H165 H 0.7779 0.05298 0.8399 0.0
S166 S 0.48425 0.83985 0.79905 0.0
N167 N 0.54393 0.79666 0.81611 0.0
N168 N 0.53193 0.93571 0.7992 0.0
C169 C 0.60026 0.93581 0.81344 0.0
C170 C 0.60679 0.86061 0.82288 0.0
C171 C 0.76158 0.44459 0.14724 0.0
C172 C 0.82039 0.51933 0.14659 0.0
C173 C 0.68312 0.43665 0.14189 0.0
C174 C 0.65945 0.50306 0.13564 0.0
H175 H 0.77611 0.39178 0.15136 0.0
H176 H 0.64093 0.37799 0.14158 0.0
S177 S 0.78754 0.71181 0.13428 0.0
N178 N 0.84562 0.66115 0.14101 0.0
N179 N 0.70147 0.6455 0.13161 0.0
C180 C 0.71711 0.57741 0.13609 0.0
C181 C 0.79613 0.58566 0.1414 0.0
C182 C 0.27707 0.79058 0.51873 0.0
C183 C 0.34624 0.77681 0.51331 0.0
C184 C 0.20871 0.73523 0.50538 0.0
C185 C 0.20842 0.66495 0.48706 0.0
H186 H 0.27638 0.84628 0.53077 0.0
H187 H 0.15655 0.74864 0.50756 0.0
S188 S 0.37201 0.59666 0.47129 0.0
N189 N 0.40894 0.68467 0.49219 0.0
N190 N 0.27982 0.58054 0.4677 0.0
C191 C 0.27603 0.64821 0.48424 0.0
C192 C 0.34537 0.70436 0.49733 0.0
C193 C 0.66584 0.40207 0.8453 0.0
C194 C 0.59632 0.41064 0.83384 0.0
C195 C 0.6784 0.33002 0.83982 0.0
C196 C 0.62179 0.26467 0.82312 0.0
H197 H 0.7116 0.45188 0.85717 0.0
H198 H 0.73353 0.32617 0.84678 0.0
S199 S 0.42746 0.25278 0.79315 0.0
N200 N 0.46812 0.34471 0.80828 0.0
N201 N 0.49226 0.21001 0.79901 0.0
C202 C 0.55091 0.27103 0.81409 0.0
C203 C 0.53813 0.34397 0.81909 0.0
C204 C 0.59947 0.77699 0.54037 0.0
C205 C 0.67313 0.82282 0.52625 0.0
C206 C 0.57891 0.69485 0.54789 0.0
C207 C 0.63128 0.6551 0.54183 0.0
H208 H 0.55781 0.80495 0.5466 0.0
H209 H 0.52161 0.662 0.55865 0.0
S210 S 0.83372 0.7484 0.51002 0.0
N211 N 0.79992 0.82214 0.50918 0.0
N212 N 0.76184 0.66907 0.52461 0.0
C213 C 0.70572 0.70048 0.52917 0.0
C214 C 0.72651 0.78388 0.52119 0.0
C215 C 0.95884 0.60978 0.80344 0.0
C216 C 0.88502 0.57335 0.78886 0.0
C217 C 1.00622 0.56561 0.81008 0.0
C218 C 0.9808 0.48394 0.80265 0.0
H219 H 0.97702 0.67005 0.81426 0.0
H220 H 0.05872 0.59328 0.82627 0.0
S221 S 0.80312 0.36832 0.75078 0.0
N222 N 0.79627 0.45682 0.75635 0.0
N223 N 0.88627 0.37352 0.7703 0.0
C224 C 0.91266 0.45044 0.78149 0.0
C225 C 0.86427 0.49549 0.77421 0.0
C226 C 0.31377 0.75411 0.14569 0.0
C227 C 0.24476 0.76303 0.15814 0.0
C228 C 0.38342 0.80483 0.16042 0.0
C229 C 0.386 0.86668 0.18719 0.0
H230 H 0.31378 0.70481 0.12667 0.0
H231 H 0.43528 0.79383 0.15235 0.0
S232 S 0.22314 0.92149 0.22443 0.0
N233 N 0.18413 0.84225 0.19604 0.0
N234 N 0.31586 0.93932 0.22223 0.0
C235 C 0.31825 0.87962 0.19739 0.0
C236 C 0.24728 0.82729 0.18318 0.0
C237 C 0.54501 0.24431 0.49429 0.0
C238 C 0.59015 0.20749 0.5157 0.0
C239 C 0.55 0.32271 0.50255 0.0
C240 C 0.59998 0.3673 0.53279 0.0
H241 H 0.50346 0.2112 0.47195 0.0
H242 H 0.51186 0.34733 0.4867 0.0
S243 S 0.72756 0.29807 0.59928 0.0
N244 N 0.68378 0.22144 0.57003 0.0
N245 N 0.69576 0.36922 0.58404 0.0
C246 C 0.64682 0.33204 0.55362 0.0
C247 C 0.64124 0.25208 0.54551 0.0
C248 C 0.30288 0.47895 0.90553 0.0
C249 C 0.33709 0.56037 0.89643 0.0
C250 C 0.22448 0.44165 0.90136 0.0
C251 C 0.17883 0.48525 0.88897 0.0
H252 H 0.33735 0.44242 0.91193 0.0
H253 H 0.20038 0.37792 0.90435 0.0
S254 S 0.23805 0.70212 0.87286 0.0
N255 N 0.31807 0.68513 0.88204 0.0
N256 N 0.1698 0.61512 0.87623 0.0
C257 C 0.2109 0.56788 0.88557 0.0
C258 C 0.29068 0.60564 0.8888 0.0
C259 C 0.71181 0.18912 0.17704 0.0
C260 C 0.78205 0.18084 0.18657 0.0
C261 C 0.6433 0.13093 0.18907 0.0
C262 C 0.64243 0.06142 0.21004 0.0
H263 H 0.70961 0.24144 0.16062 0.0
H264 H 0.59034 0.13973 0.18147 0.0
S265 S 0.81056 1.0108 0.24212 0.0
N266 N 0.84686 0.09894 0.2193 0.0
N267 N 0.71717 0.98711 0.2398 0.0
C268 C 0.71205 0.05251 0.22011 0.0
C269 C 0.78216 0.11278 0.20874 0.0
C270 C 1.02826 0.3749 0.00977 0.0
C271 C 1.0236 0.44508 0.02651 0.0
C272 C 1.0353 0.36721 0.96638 0.0
C273 C 1.03648 0.42884 0.93872 0.0
H274 H 1.02779 0.32626 0.03033 0.0
H275 H 1.03932 0.3129 0.95427 0.0
S276 S 1.0212 0.6219 0.96598 0.0
N277 N 1.01858 0.57627 0.0116 0.0
N278 N 1.02938 0.56009 0.9301 0.0
C279 C 1.03054 0.49841 0.95484 0.0
C280 C 1.02471 0.50698 0.99881 0.0
C281 C 0.6068 0.93415 0.36221 0.0
C282 C 0.61471 1.00635 0.38109 0.0
C283 C 0.59012 0.92317 0.31957 0.0
C284 C 0.57884 0.98327 0.29468 0.0
H285 H 0.61133 0.88509 0.38083 0.0
H286 H 0.58222 0.866 0.30629 0.0
S287 S 0.59636 0.18415 0.32897 0.0
N288 N 0.61477 0.14045 0.37148 0.0
N289 N 0.57976 0.11836 0.29147 0.0
C290 C 0.58991 0.05685 0.31274 0.0
C291 C 0.60851 0.06865 0.35605 0.0
C292 C 0.65544 0.64365 0.685 0.0
C293 C 0.59031 0.62286 0.71136 0.0
C294 C 0.65087 0.62045 0.6432 0.0
C295 C 0.58105 0.57624 0.62596 0.0
H296 H 0.71143 0.6741 0.69735 0.0
H297 H 0.70288 0.63233 0.62505 0.0
S298 S 0.39201 0.51956 0.67812 0.0
N299 N 0.45231 0.56426 0.71496 0.0
N300 N 0.44408 0.52269 0.63562 0.0
C301 C 0.51463 0.56181 0.65031 0.0
C302 C 0.51913 0.58485 0.69321 0.0
C303 C 0.58205 1.00362 0.66703 0.0
C304 C 0.65071 0.02229 0.644 0.0
C305 C 0.58177 0.02389 0.70916 0.0
C306 C 0.64997 0.06126 0.73002 0.0
H307 H 0.52778 0.97859 0.65174 0.0
H308 H 0.52787 1.01551 0.72475 0.0
S309 S 0.84482 0.11446 0.68627 0.0
N310 N 0.78916 0.07426 0.64678 0.0
N311 N 0.78742 0.11085 0.72644 0.0
C312 C 0.71887 0.07476 0.70861 0.0
C313 C 0.71956 0.05555 0.66546 0.0
C314 C 0.63617 0.66384 1.00011 0.0
C315 C 0.66033 0.61696 0.97234 0.0
C316 C 0.61086 0.63683 0.04087 0.0
C317 C 0.60709 0.56122 0.05514 0.0
H318 H 0.63218 0.71971 0.98937 0.0
H319 H 0.58828 0.67261 0.06035 0.0
S320 S 0.67117 0.41876 0.99665 0.0
N321 N 0.68652 0.49454 0.96372 0.0
N322 N 0.63611 0.44297 0.03996 0.0
C323 C 0.6368 0.51644 0.02909 0.0
C324 C 0.66401 0.5445 0.9877 0.0
C325 C 0.97272 0.48482 0.31506 0.0
C326 C 1.03187 0.48451 0.28761 0.0
C327 C 0.98628 0.49827 0.35808 0.0
C328 C 0.05879 0.51028 0.37451 0.0
H329 H 0.91708 0.47879 0.30291 0.0
H330 H 0.94128 0.50327 0.37818 0.0
S331 S 0.22794 0.50063 0.31689 0.0
N332 N 0.16258 0.48843 0.28057 0.0
N333 N 0.18681 0.51034 0.36145 0.0
C334 C 0.11618 0.50361 0.34786 0.0
C335 C 0.10306 0.49172 0.30429 0.0
loop_
_geom_bond_atom_site_label_1
_geom_bond_atom_site_label_2
_geom_bond_distance
_geom_bond_site_symmetry_2
_ccdc_geom_bond_type
Tb0 O3 2.453 1_455 S
Tb0 O4 2.596 1_455 S
Tb0 O5 2.374 . S
Tb0 O13 2.343 . S
Tb0 O15 2.353 . S
Tb0 O17 2.427 . S
Tb0 O18 2.513 . S
C1 O5 1.251 1_655 S
C1 O7 1.263 . S
Tb2 O4 2.343 . S
Tb2 O7 2.353 . S
Tb2 O10 2.427 . S
Tb2 O11 2.513 . S
Tb2 O12 2.453 1_655 S
Tb2 O13 2.596 1_655 S
Tb2 O14 2.374 . S
O3 Tb0 2.453 1_655 S
O3 C19 1.245 . S
O4 Tb0 2.596 1_655 S
O4 Tb2 2.343 . S
O4 C19 1.259 . S
O5 Tb0 2.374 . S
O5 C1 1.251 1_455 S
C6 O10 1.275 . S
C6 O11 1.246 . S
O7 C1 1.263 . S
O7 Tb2 2.353 . S
C8 O12 1.245 . S
C8 O13 1.259 . S
C9 O14 1.250 1_455 S
C9 O15 1.263 . S
O10 Tb2 2.427 . S
O10 C6 1.275 . S
O11 Tb2 2.513 . S
O11 C6 1.246 . S
O12 Tb2 2.453 1_455 S
O12 C8 1.245 . S
O13 Tb0 2.343 . S
O13 Tb2 2.596 1_455 S
O13 C8 1.259 . S
O14 Tb2 2.374 . S
O14 C9 1.250 1_655 S
O15 Tb0 2.353 . S
O15 C9 1.263 . S
C16 O17 1.275 . S
C16 O18 1.246 . S
O17 Tb0 2.427 . S
O17 C16 1.275 . S
O18 Tb0 2.513 . S
O18 C16 1.246 . S
C19 O3 1.245 . S
C19 O4 1.259 . S
Tb20 O23 2.453 1_565 S
Tb20 O24 2.596 1_565 S
Tb20 O25 2.374 . S
Tb20 O33 2.343 . S
Tb20 O35 2.353 1_565 S
Tb20 O37 2.427 . S
Tb20 O38 2.513 . S
C21 O25 1.251 1_545 S
C21 O27 1.263 . S
Tb22 O24 2.343 . S
Tb22 O27 2.353 . S
Tb22 O30 2.427 . S
Tb22 O31 2.513 . S
Tb22 O32 2.453 1_545 S
Tb22 O33 2.596 1_545 S
Tb22 O34 2.374 . S
O23 Tb20 2.453 1_545 S
O23 C39 1.245 . S
O24 Tb20 2.596 1_545 S
O24 Tb22 2.343 . S
O24 C39 1.259 . S
O25 Tb20 2.374 . S
O25 C21 1.251 1_565 S
C26 O30 1.275 . S
C26 O31 1.246 . S
O27 C21 1.263 . S
O27 Tb22 2.353 . S
C28 O32 1.245 . S
C28 O33 1.259 . S
C29 O34 1.250 . S
C29 O35 1.263 . S
O30 Tb22 2.427 . S
O30 C26 1.275 . S
O31 Tb22 2.513 . S
O31 C26 1.246 . S
O32 Tb22 2.453 1_565 S
O32 C28 1.245 . S
O33 Tb20 2.343 . S
O33 Tb22 2.596 1_565 S
O33 C28 1.259 . S
O34 Tb22 2.374 . S
O34 C29 1.250 . S
O35 Tb20 2.353 1_545 S
O35 C29 1.263 . S
C36 O37 1.275 . S
C36 O38 1.246 . S
O37 Tb20 2.427 . S
O37 C36 1.275 . S
O38 Tb20 2.513 . S
O38 C36 1.246 . S
C39 O23 1.245 . S
C39 O24 1.259 . S
Tb40 O43 2.453 . S
Tb40 O44 2.596 . S
Tb40 O45 2.374 . S
Tb40 O53 2.343 . S
Tb40 O55 2.353 . S
Tb40 O57 2.427 . S
Tb40 O58 2.513 . S
C41 O45 1.251 . S
C41 O47 1.263 . S
Tb42 O44 2.343 . S
Tb42 O47 2.353 . S
Tb42 O50 2.427 . S
Tb42 O51 2.513 . S
Tb42 O52 2.453 . S
Tb42 O53 2.596 . S
Tb42 O54 2.374 . S
O43 Tb40 2.453 . S
O43 C59 1.245 . S
O44 Tb40 2.596 . S
O44 Tb42 2.343 . S
O44 C59 1.259 . S
O45 Tb40 2.374 . S
O45 C41 1.251 . S
C46 O50 1.275 . S
C46 O51 1.246 . S
O47 C41 1.263 . S
O47 Tb42 2.353 . S
C48 O52 1.245 . S
C48 O53 1.259 . S
C49 O54 1.250 . S
C49 O55 1.263 . S
O50 Tb42 2.427 . S
O50 C46 1.275 . S
O51 Tb42 2.513 . S
O51 C46 1.246 . S
O52 Tb42 2.453 . S
O52 C48 1.245 . S
O53 Tb40 2.343 . S
O53 Tb42 2.596 . S
O53 C48 1.259 . S
O54 Tb42 2.374 . S
O54 C49 1.250 . S
O55 Tb40 2.353 . S
O55 C49 1.263 . S
C56 O57 1.275 . S
C56 O58 1.246 . S
O57 Tb40 2.427 . S
O57 C56 1.275 . S
O58 Tb40 2.513 . S
O58 C56 1.246 . S
C59 O43 1.245 . S
C59 O44 1.259 . S
C60 N61 1.317 1_565 S
C60 N62 1.348 . S
C60 C63 1.485 . S
N61 C60 1.317 1_545 S
N61 N65 1.370 . S
N62 C60 1.348 . S
N62 C64 1.346 . S
C63 C60 1.485 . S
C63 H67 0.960 1_565 S
C63 H68 0.961 . S
C63 H69 0.960 1_565 S
C64 N62 1.346 . S
C64 N65 1.307 1_565 S
C64 C66 1.486 . S
N65 N61 1.370 . S
N65 C64 1.307 1_545 S
C66 C64 1.486 . S
C66 H70 0.960 . S
C66 H71 0.960 . S
C66 H72 0.959 . S
H67 C63 0.960 1_545 S
H68 C63 0.961 . S
H69 C63 0.960 1_545 S
H70 C66 0.960 . S
H71 C66 0.960 . S
H72 C66 0.959 . S
C73 N74 1.317 . S
C73 N75 1.348 . S
C73 C76 1.485 . S
N74 C73 1.317 . S
N74 N78 1.370 . S
N75 C73 1.348 . S
N75 C77 1.346 . S
C76 C73 1.485 . S
C76 H80 0.960 . S
C76 H81 0.961 . S
C76 H82 0.960 . S
C77 N75 1.346 . S
C77 N78 1.307 . S
C77 C79 1.486 . S
N78 N74 1.370 . S
N78 C77 1.307 . S
C79 C77 1.486 . S
C79 H83 0.960 . S
C79 H84 0.960 . S
C79 H85 0.959 . S
H80 C76 0.960 . S
H81 C76 0.961 . S
H82 C76 0.960 . S
H83 C79 0.960 . S
H84 C79 0.960 . S
H85 C79 0.959 . S
C86 N87 1.317 . S
C86 N88 1.348 1_455 S
C86 C89 1.485 . S
N87 C86 1.317 . S
N87 N91 1.370 . S
N88 C86 1.348 1_655 S
N88 C90 1.346 . S
C89 C86 1.485 . S
C89 H93 0.960 . S
C89 H94 0.961 . S
C89 H95 0.960 . S
C90 N88 1.346 . S
C90 N91 1.307 1_655 S
C90 C92 1.486 . S
N91 N87 1.370 . S
N91 C90 1.307 1_455 S
C92 C90 1.486 . S
C92 H96 0.960 . S
C92 H97 0.960 . S
C92 H98 0.959 . S
H93 C89 0.960 . S
H94 C89 0.961 . S
H95 C89 0.960 . S
H96 C92 0.960 . S
H97 C92 0.960 . S
H98 C92 0.959 . S
C99 N100 1.317 1_455 S
C99 N101 1.348 . S
C99 C102 1.485 . S
N100 C99 1.317 1_655 S
N100 N104 1.370 1_655 S
N101 C99 1.348 . S
N101 C103 1.346 . S
C102 C99 1.485 . S
C102 H106 0.960 1_455 S
C102 H107 0.961 . S
C102 H108 0.960 1_455 S
C103 N101 1.346 . S
C103 N104 1.307 . S
C103 C105 1.486 . S
N104 N100 1.370 1_455 S
N104 C103 1.307 . S
C105 C103 1.486 . S
C105 H109 0.960 . S
C105 H110 0.960 . S
C105 H111 0.959 . S
H106 C102 0.960 1_655 S
H107 C102 0.961 . S
H108 C102 0.960 1_655 S
H109 C105 0.960 . S
H110 C105 0.960 . S
H111 C105 0.959 . S
C112 N113 1.319 1_545 S
C112 N114 1.348 . S
C112 C115 1.485 . S
N113 C112 1.319 1_565 S
N113 N117 1.371 1_565 S
N114 C112 1.348 . S
N114 C116 1.346 . S
C115 C112 1.485 . S
C115 H119 0.960 . S
C115 H120 0.961 . S
C115 H121 0.950 1_545 S
C116 N114 1.346 . S
C116 N117 1.307 . S
C116 C118 1.486 . S
N117 N113 1.371 1_545 S
N117 C116 1.307 . S
C118 C116 1.486 . S
C118 H122 0.960 . S
C118 H123 0.960 . S
C118 H124 0.959 . S
H119 C115 0.960 . S
H120 C115 0.961 . S
H121 C115 0.950 1_565 S
H122 C118 0.960 . S
H123 C118 0.960 . S
H124 C118 0.959 . S
C125 N126 1.317 . S
C125 N127 1.348 . S
C125 C128 1.485 . S
N126 C125 1.317 . S
N126 N130 1.370 . S
N127 C125 1.348 . S
N127 C129 1.346 . S
C128 C125 1.485 . S
C128 H132 0.960 . S
C128 H133 0.961 . S
C128 H134 0.960 . S
C129 N127 1.346 . S
C129 N130 1.307 . S
C129 C131 1.486 . S
N130 N126 1.370 . S
N130 C129 1.307 . S
C131 C129 1.486 . S
C131 H135 0.960 . S
C131 H136 0.960 . S
C131 H137 0.959 . S
H132 C128 0.960 . S
H133 C128 0.961 . S
H134 C128 0.960 . S
H135 C131 0.960 . S
H136 C131 0.960 . S
H137 C131 0.959 . S
C138 C139 1.369 . S
C138 C140 1.419 . S
C138 H142 0.930 . S
C139 C138 1.369 . S
C139 C148 1.429 . S
C140 C138 1.419 . S
C140 C141 1.363 . S
C140 H143 0.929 . S
C141 C140 1.363 . S
C141 C147 1.428 . S
H142 C138 0.930 . S
H143 C140 0.929 . S
S144 N145 1.613 . S
S144 N146 1.610 . S
N145 S144 1.613 . S
N145 C148 1.350 . S
N146 S144 1.610 . S
N146 C147 1.351 . S
C147 C141 1.428 . S
C147 N146 1.351 . S
C147 C148 1.434 . S
C148 C139 1.429 . S
C148 N145 1.350 . S
C148 C147 1.434 . S
C149 C150 1.369 . S
C149 C151 1.419 . S
C149 H153 0.930 . S
C150 C149 1.369 . S
C150 C159 1.429 . S
C151 C149 1.419 . S
C151 C152 1.363 . S
C151 H154 0.929 . S
C152 C151 1.363 . S
C152 C158 1.428 . S
H153 C149 0.930 . S
H154 C151 0.929 . S
S155 N156 1.613 . S
S155 N157 1.610 . S
N156 S155 1.613 . S
N156 C159 1.350 . S
N157 S155 1.610 . S
N157 C158 1.351 . S
C158 C152 1.428 . S
C158 N157 1.351 . S
C158 C159 1.434 . S
C159 C150 1.429 . S
C159 N156 1.350 . S
C159 C158 1.434 . S
C160 C161 1.369 . S
C160 C162 1.419 . S
C160 H164 0.930 . S
C161 C160 1.369 . S
C161 C170 1.429 . S
C162 C160 1.419 . S
C162 C163 1.363 . S
C162 H165 0.929 . S
C163 C162 1.363 . S
C163 C169 1.428 . S
H164 C160 0.930 . S
H165 C162 0.929 . S
S166 N167 1.613 . S
S166 N168 1.610 . S
N167 S166 1.613 . S
N167 C170 1.350 . S
N168 S166 1.610 . S
N168 C169 1.351 . S
C169 C163 1.428 . S
C169 N168 1.351 . S
C169 C170 1.434 . S
C170 C161 1.429 . S
C170 N167 1.350 . S
C170 C169 1.434 . S
C171 C172 1.369 . S
C171 C173 1.419 . S
C171 H175 0.930 . S
C172 C171 1.369 . S
C172 C181 1.429 . S
C173 C171 1.419 . S
C173 C174 1.363 . S
C173 H176 0.929 . S
C174 C173 1.363 . S
C174 C180 1.428 . S
H175 C171 0.930 . S
H176 C173 0.929 . S
S177 N178 1.613 . S
S177 N179 1.610 . S
N178 S177 1.613 . S
N178 C181 1.350 . S
N179 S177 1.610 . S
N179 C180 1.351 . S
C180 C174 1.428 . S
C180 N179 1.351 . S
C180 C181 1.434 . S
C181 C172 1.429 . S
C181 N178 1.350 . S
C181 C180 1.434 . S
C182 C183 1.369 . S
C182 C184 1.419 . S
C182 H186 0.930 . S
C183 C182 1.369 . S
C183 C192 1.429 . S
C184 C182 1.419 . S
C184 C185 1.363 . S
C184 H187 0.929 . S
C185 C184 1.363 . S
C185 C191 1.428 . S
H186 C182 0.930 . S
H187 C184 0.929 . S
S188 N189 1.613 . S
S188 N190 1.610 . S
N189 S188 1.613 . S
N189 C192 1.350 . S
N190 S188 1.610 . S
N190 C191 1.351 . S
C191 C185 1.428 . S
C191 N190 1.351 . S
C191 C192 1.434 . S
C192 C183 1.429 . S
C192 N189 1.350 . S
C192 C191 1.434 . S
C193 C194 1.369 . S
C193 C195 1.419 . S
C193 H197 0.930 . S
C194 C193 1.369 . S
C194 C203 1.429 . S
C195 C193 1.419 . S
C195 C196 1.363 . S
C195 H198 0.929 . S
C196 C195 1.363 . S
C196 C202 1.428 . S
H197 C193 0.930 . S
H198 C195 0.929 . S
S199 N200 1.613 . S
S199 N201 1.610 . S
N200 S199 1.613 . S
N200 C203 1.350 . S
N201 S199 1.610 . S
N201 C202 1.351 . S
C202 C196 1.428 . S
C202 N201 1.351 . S
C202 C203 1.434 . S
C203 C194 1.429 . S
C203 N200 1.350 . S
C203 C202 1.434 . S
C204 C205 1.369 . S
C204 C206 1.419 . S
C204 H208 0.930 . S
C205 C204 1.369 . S
C205 C214 1.429 . S
C206 C204 1.419 . S
C206 C207 1.363 . S
C206 H209 0.929 . S
C207 C206 1.363 . S
C207 C213 1.428 . S
H208 C204 0.930 . S
H209 C206 0.929 . S
S210 N211 1.613 . S
S210 N212 1.610 . S
N211 S210 1.613 . S
N211 C214 1.350 . S
N212 S210 1.610 . S
N212 C213 1.351 . S
C213 C207 1.428 . S
C213 N212 1.351 . S
C213 C214 1.434 . S
C214 C205 1.429 . S
C214 N211 1.350 . S
C214 C213 1.434 . S
C215 C216 1.369 . S
C215 C217 1.419 . S
C215 H219 0.930 . S
C216 C215 1.369 . S
C216 C225 1.429 . S
C217 C215 1.419 . S
C217 C218 1.363 . S
C217 H220 0.929 . S
C218 C217 1.363 . S
C218 C224 1.428 . S
H219 C215 0.930 . S
H220 C217 0.929 . S
S221 N222 1.613 . S
S221 N223 1.610 . S
N222 S221 1.613 . S
N222 C225 1.350 . S
N223 S221 1.610 . S
N223 C224 1.351 . S
C224 C218 1.428 . S
C224 N223 1.351 . S
C224 C225 1.434 . S
C225 C216 1.429 . S
C225 N222 1.350 . S
C225 C224 1.434 . S
C226 C227 1.369 . S
C226 C228 1.419 . S
C226 H230 0.930 . S
C227 C226 1.369 . S
C227 C236 1.429 . S
C228 C226 1.419 . S
C228 C229 1.363 . S
C228 H231 0.929 . S
C229 C228 1.363 . S
C229 C235 1.428 . S
H230 C226 0.930 . S
H231 C228 0.929 . S
S232 N233 1.613 . S
S232 N234 1.610 . S
N233 S232 1.613 . S
N233 C236 1.350 . S
N234 S232 1.610 . S
N234 C235 1.351 . S
C235 C229 1.428 . S
C235 N234 1.351 . S
C235 C236 1.434 . S
C236 C227 1.429 . S
C236 N233 1.350 . S
C236 C235 1.434 . S
C237 C238 1.369 . S
C237 C239 1.419 . S
C237 H241 0.930 . S
C238 C237 1.369 . S
C238 C247 1.429 . S
C239 C237 1.419 . S
C239 C240 1.363 . S
C239 H242 0.929 . S
C240 C239 1.363 . S
C240 C246 1.428 . S
H241 C237 0.930 . S
H242 C239 0.929 . S
S243 N244 1.613 . S
S243 N245 1.610 . S
N244 S243 1.613 . S
N244 C247 1.350 . S
N245 S243 1.610 . S
N245 C246 1.351 . S
C246 C240 1.428 . S
C246 N245 1.351 . S
C246 C247 1.434 . S
C247 C238 1.429 . S
C247 N244 1.350 . S
C247 C246 1.434 . S
C248 C249 1.369 . S
C248 C250 1.419 . S
C248 H252 0.930 . S
C249 C248 1.369 . S
C249 C258 1.429 . S
C250 C248 1.419 . S
C250 C251 1.363 . S
C250 H253 0.929 . S
C251 C250 1.363 . S
C251 C257 1.428 . S
H252 C248 0.930 . S
H253 C250 0.929 . S
S254 N255 1.613 . S
S254 N256 1.610 . S
N255 S254 1.613 . S
N255 C258 1.350 . S
N256 S254 1.610 . S
N256 C257 1.351 . S
C257 C251 1.428 . S
C257 N256 1.351 . S
C257 C258 1.434 . S
C258 C249 1.429 . S
C258 N255 1.350 . S
C258 C257 1.434 . S
C259 C260 1.369 . S
C259 C261 1.419 . S
C259 H263 0.930 . S
C260 C259 1.369 . S
C260 C269 1.429 . S
C261 C259 1.419 . S
C261 C262 1.363 . S
C261 H264 0.929 . S
C262 C261 1.363 . S
C262 C268 1.428 . S
H263 C259 0.930 . S
H264 C261 0.929 . S
S265 N266 1.613 1_565 S
S265 N267 1.610 . S
N266 S265 1.613 1_545 S
N266 C269 1.350 . S
N267 S265 1.610 . S
N267 C268 1.351 1_565 S
C268 C262 1.428 . S
C268 N267 1.351 1_545 S
C268 C269 1.434 . S
C269 C260 1.429 . S
C269 N266 1.350 . S
C269 C268 1.434 . S
C270 C271 1.369 1_655 S
C270 C272 1.419 1_554 S
C270 H274 0.930 . S
C271 C270 1.369 1_455 S
C271 C280 1.429 . S
C272 C270 1.419 1_556 S
C272 C273 1.363 1_655 S
C272 H275 0.929 . S
C273 C272 1.363 1_455 S
C273 C279 1.428 . S
H274 C270 0.930 . S
H275 C272 0.929 . S
S276 N277 1.613 . S
S276 N278 1.610 1_554 S
N277 S276 1.613 . S
N277 C280 1.350 . S
N278 S276 1.610 1_556 S
N278 C279 1.351 . S
C279 C273 1.428 . S
C279 N278 1.351 . S
C279 C280 1.434 1_556 S
C280 C271 1.429 . S
C280 N277 1.350 . S
C280 C279 1.434 1_554 S
C281 C282 1.369 1_565 S
C281 C283 1.419 . S
C281 H285 0.930 . S
C282 C281 1.369 1_545 S
C282 C291 1.429 . S
C283 C281 1.419 . S
C283 C284 1.363 1_565 S
C283 H286 0.929 . S
C284 C283 1.363 1_545 S
C284 C290 1.428 . S
H285 C281 0.930 . S
H286 C283 0.929 . S
S287 N288 1.613 . S
S287 N289 1.610 . S
N288 S287 1.613 . S
N288 C291 1.350 . S
N289 S287 1.610 . S
N289 C290 1.351 . S
C290 C284 1.428 . S
C290 N289 1.351 . S
C290 C291 1.434 . S
C291 C282 1.429 . S
C291 N288 1.350 . S
C291 C290 1.434 . S
C292 C293 1.369 . S
C292 C294 1.419 . S
C292 H296 0.930 . S
C293 C292 1.369 . S
C293 C302 1.429 . S
C294 C292 1.419 . S
C294 C295 1.363 . S
C294 H297 0.929 . S
C295 C294 1.363 . S
C295 C301 1.428 . S
H296 C292 0.930 . S
H297 C294 0.929 . S
S298 N299 1.613 . S
S298 N300 1.610 . S
N299 S298 1.613 . S
N299 C302 1.350 . S
N300 S298 1.610 . S
N300 C301 1.351 . S
C301 C295 1.428 . S
C301 N300 1.351 . S
C301 C302 1.434 . S
C302 C293 1.429 . S
C302 N299 1.350 . S
C302 C301 1.434 . S
C303 C304 1.369 . S
C303 C305 1.419 . S
C303 H307 0.930 . S
C304 C303 1.369 . S
C304 C313 1.434 . S
C305 C303 1.419 . S
C305 C306 1.363 . S
C305 H308 0.929 . S
C306 C305 1.363 . S
C306 C312 1.428 . S
H307 C303 0.930 . S
H308 C305 0.929 . S
S309 N310 1.613 . S
S309 N311 1.610 1_565 S
N310 S309 1.613 . S
N310 C313 1.343 1_565 S
N311 S309 1.610 1_545 S
N311 C312 1.351 . S
C312 C306 1.428 . S
C312 N311 1.351 . S
C312 C313 1.435 . S
C313 C304 1.434 . S
C313 N310 1.343 1_545 S
C313 C312 1.435 . S
C314 C315 1.369 . S
C314 C316 1.419 1_556 S
C314 H318 0.930 . S
C315 C314 1.369 . S
C315 C324 1.429 . S
C316 C314 1.419 1_554 S
C316 C317 1.363 . S
C316 H319 0.929 . S
C317 C316 1.363 . S
C317 C323 1.428 . S
H318 C314 0.930 . S
H319 C316 0.929 . S
S320 N321 1.613 . S
S320 N322 1.610 1_556 S
N321 S320 1.613 . S
N321 C324 1.350 . S
N322 S320 1.610 1_554 S
N322 C323 1.351 . S
C323 C317 1.428 . S
C323 N322 1.351 . S
C323 C324 1.434 1_554 S
C324 C315 1.429 . S
C324 N321 1.350 . S
C324 C323 1.434 1_556 S
C325 C326 1.369 . S
C325 C327 1.419 . S
C325 H329 0.930 . S
C326 C325 1.369 . S
C326 C335 1.429 . S
C327 C325 1.419 . S
C327 C328 1.363 . S
C327 H330 0.929 . S
C328 C327 1.363 . S
C328 C334 1.428 . S
H329 C325 0.930 . S
H330 C327 0.929 . S
S331 N332 1.611 1_455 S
S331 N333 1.610 . S
N332 S331 1.611 1_655 S
N332 C335 1.353 . S
N333 S331 1.610 . S
N333 C334 1.351 1_455 S
C334 C328 1.428 . S
C334 N333 1.351 1_655 S
C334 C335 1.434 . S
C335 C326 1.429 . S
C335 N332 1.353 . S
C335 C334 1.434 . S
C139 C8 1.761 . S
C141 N127 1.784 . S
C150 C26 1.321 . S
C152 N100 1.317 . S
C161 C48 1.462 . S
C163 N113 1.527 . S
C172 C19 1.966 . S
C174 N126 2.102 . S
C185 N101 1.544 . S
C183 C36 1.493 . S
C196 N114 1.704 . S
C194 C59 1.596 . S
C205 C28 1.478 . S
C207 N74 1.530 . S
C216 C46 1.004 . S
C218 N88 0.996 . S
C227 C16 1.480 . S
C229 N62 1.518 . S
C240 N75 1.704 . S
C238 C39 1.606 . S
C251 N87 1.326 . S
C249 C56 1.237 . S
C260 C6 1.389 . S
C262 N61 1.367 . S
C273 N91 1.520 . S
C271 C9 1.511 . S
C282 C21 1.531 . S
C284 N65 1.537 . S
C293 C49 1.526 . S
C295 N78 1.565 . S
C306 N117 1.539 . S
C304 C29 1.524 . S
C317 N130 1.568 . S
C315 C41 1.604 . S
C326 C1 1.554 . S
C328 N104 1.575 1_655 S
