# Generated by pormake.
# Topology zzz, (3,6)-cn, num edge types: 1
# Building blocks:
#     Node 0, Type 0, BuildingBlock: QEWDON_clean_linker_0, # of connection points: 3
#     Node 1, Type 0, BuildingBlock: QEWDON_clean_linker_0, # of connection points: 3
#     Node 2, Type 0, BuildingBlock: QEWDON_clean_linker_0, # of connection points: 3
#     Node 3, Type 0, BuildingBlock: QEWDON_clean_linker_0, # of connection points: 3
#     Node 4, Type 0, BuildingBlock: QEWDON_clean_linker_0, # of connection points: 3
#     Node 5, Type 0, BuildingBlock: QEWDON_clean_linker_0, # of connection points: 3
#     Node 6, Type 0, BuildingBlock: QEWDON_clean_linker_0, # of connection points: 3
#     Node 7, Type 0, BuildingBlock: QEWDON_clean_linker_0, # of connection points: 3
#     Node 8, Type 1, BuildingBlock: KUMJIN_clean_sbu_1, # of connection points: 6
#     Node 9, Type 1, BuildingBlock: KUMJIN_clean_sbu_1, # of connection points: 6
#     Node 10, Type 1, BuildingBlock: KUMJIN_clean_sbu_1, # of connection points: 6
#     Node 11, Type 1, BuildingBlock: KUMJIN_clean_sbu_1, # of connection points: 6
#     Edge 12, Type (0, 1), BuildingBlock: AJUNOK_clean_linker_0, # of connection points: 2
#     Edge 13, Type (0, 1), BuildingBlock: AJUNOK_clean_linker_0, # of connection points: 2
#     Edge 14, Type (0, 1), BuildingBlock: AJUNOK_clean_linker_0, # of connection points: 2
#     Edge 15, Type (0, 1), BuildingBlock: AJUNOK_clean_linker_0, # of connection points: 2
#     Edge 16, Type (0, 1), BuildingBlock: AJUNOK_clean_linker_0, # of connection points: 2
#     Edge 17, Type (0, 1), BuildingBlock: AJUNOK_clean_linker_0, # of connection points: 2
#     Edge 18, Type (0, 1), BuildingBlock: AJUNOK_clean_linker_0, # of connection points: 2
#     Edge 19, Type (0, 1), BuildingBlock: AJUNOK_clean_linker_0, # of connection points: 2
#     Edge 20, Type (0, 1), BuildingBlock: AJUNOK_clean_linker_0, # of connection points: 2
#     Edge 21, Type (0, 1), BuildingBlock: AJUNOK_clean_linker_0, # of connection points: 2
#     Edge 22, Type (0, 1), BuildingBlock: AJUNOK_clean_linker_0, # of connection points: 2
#     Edge 23, Type (0, 1), BuildingBlock: AJUNOK_clean_linker_0, # of connection points: 2
#     Edge 24, Type (0, 1), BuildingBlock: AJUNOK_clean_linker_0, # of connection points: 2
#     Edge 25, Type (0, 1), BuildingBlock: AJUNOK_clean_linker_0, # of connection points: 2
#     Edge 26, Type (0, 1), BuildingBlock: AJUNOK_clean_linker_0, # of connection points: 2
#     Edge 27, Type (0, 1), BuildingBlock: AJUNOK_clean_linker_0, # of connection points: 2
#     Edge 28, Type (0, 1), BuildingBlock: AJUNOK_clean_linker_0, # of connection points: 2
#     Edge 29, Type (0, 1), BuildingBlock: AJUNOK_clean_linker_0, # of connection points: 2
#     Edge 30, Type (0, 1), BuildingBlock: AJUNOK_clean_linker_0, # of connection points: 2
#     Edge 31, Type (0, 1), BuildingBlock: AJUNOK_clean_linker_0, # of connection points: 2
#     Edge 32, Type (0, 1), BuildingBlock: AJUNOK_clean_linker_0, # of connection points: 2
#     Edge 33, Type (0, 1), BuildingBlock: AJUNOK_clean_linker_0, # of connection points: 2
#     Edge 34, Type (0, 1), BuildingBlock: AJUNOK_clean_linker_0, # of connection points: 2
#     Edge 35, Type (0, 1), BuildingBlock: AJUNOK_clean_linker_0, # of connection points: 2
# Relax obj value: 0.159
# Max RMSD: 0.110
# Mean RMSD: 0.043
data_MOF--net-zzz--node1-KUMJIN_clean_sbu_1--node2-QEWDON_clean_linker_0--edge1-AJUNOK_clean_linker_0
_symmetry_space_group_name_H-M    P1
_symmetry_Int_Tables_number       1
_symmetry_cell_setting            triclinic
loop_
_symmetry_equiv_pos_as_xyz
'x, y, z'
_cell_length_a     40.389876
_cell_length_b     40.251629
_cell_length_c     11.656909
_cell_angle_alpha  90.073599
_cell_angle_beta   90.348029
_cell_angle_gamma 89.981762
loop_
_atom_site_label
_atom_site_type_symbol
_atom_site_fract_x
_atom_site_fract_y
_atom_site_fract_z
_atom_type_partial_charge
H0 H 0.78309 0.53134 0.15339 0.0
C1 C 0.79934 0.53227 0.22718 0.0
C2 C 0.83289 0.52654 0.20862 0.0
C3 C 0.78649 0.53604 0.33808 0.0
H4 H 0.88114 0.52133 0.28392 0.0
C5 C 0.85526 0.52628 0.30112 0.0
C6 C 0.84523 0.52992 0.41514 0.0
C7 C 0.8102 0.53517 0.43349 0.0
C8 C 0.74834 0.53588 0.34908 0.0
H9 H 0.80162 0.53756 0.52075 0.0
C10 C 0.72551 0.54339 0.25518 0.0
C11 C 0.69058 0.5368 0.26253 0.0
C12 C 0.73428 0.52362 0.45053 0.0
H13 H 0.74961 0.51686 0.52315 0.0
C14 C 0.70029 0.51786 0.4588 0.0
H15 H 0.73457 0.55332 0.17527 0.0
C16 C 0.67892 0.52411 0.36682 0.0
H17 H 0.65283 0.51868 0.37728 0.0
H18 H 0.69038 0.50764 0.53726 0.0
H19 H 1.0 0.7739 0.14974 0.0
C20 C 1.00779 0.78995 0.21909 0.0
C21 C 1.01131 0.82361 0.19523 0.0
C22 C 1.01615 0.77672 0.32651 0.0
H23 H 1.01923 0.8723 0.26627 0.0
C24 C 1.01697 0.84613 0.28558 0.0
C25 C 0.02251 0.83594 0.39898 0.0
C26 C 0.02278 0.80042 0.41905 0.0
C27 C 1.01763 0.73841 0.33491 0.0
H28 H 0.02906 0.7916 0.50399 0.0
C29 C 0.02119 0.71655 0.2359 0.0
C30 C 1.01867 0.68105 0.24469 0.0
C31 C 1.01381 0.72298 0.44187 0.0
H32 H 1.01104 0.73758 0.51915 0.0
C33 C 1.01252 0.68835 0.45128 0.0
H34 H 0.02571 0.72665 0.15165 0.0
C35 C 1.01426 0.66779 0.35461 0.0
H36 H 1.01251 0.64114 0.36596 0.0
H37 H 1.00976 0.67731 0.53505 0.0
H38 H 0.79509 0.06947 0.17733 0.0
C39 C 0.77705 0.05944 0.23615 0.0
C40 C 0.74693 0.07605 0.2472 0.0
C41 C 0.78415 0.03099 0.30243 0.0
H42 H 0.6992 0.07687 0.32596 0.0
C43 C 0.72288 0.06433 0.32318 0.0
C44 C 0.7278 0.0369 0.39386 0.0
C45 C 0.75879 1.01963 0.38193 0.0
C46 C 0.81903 1.01594 0.29409 0.0
H47 H 0.7631 0.99802 0.43491 0.0
C48 C 0.84047 1.01928 0.19525 0.0
C49 C 0.87424 1.00767 0.19655 0.0
C50 C 0.83243 1.00035 0.39139 0.0
H51 H 0.81825 0.99787 0.46929 0.0
C52 C 0.86497 0.98898 0.39305 0.0
H53 H 0.83096 0.03035 0.11734 0.0
C54 C 0.88558 0.99274 0.29851 0.0
H55 H 0.91094 0.98432 0.30673 0.0
H56 H 0.87451 0.97764 0.47005 0.0
H57 H 0.48777 0.78857 0.16964 0.0
C58 C 0.49494 0.77192 0.23817 0.0
C59 C 0.47593 0.74338 0.25407 0.0
C60 C 0.52443 0.77722 0.29957 0.0
H61 H 0.47197 0.6965 0.33813 0.0
C62 C 0.48554 0.71968 0.33574 0.0
C63 C 0.51345 0.72366 0.40694 0.0
C64 C 0.53332 0.75289 0.38675 0.0
C65 C 0.54712 0.80529 0.25751 0.0
H66 H 0.5554 0.75667 0.43786 0.0
C67 C 0.53553 0.83418 0.1942 0.0
C68 C 0.55801 0.85636 0.13764 0.0
C69 C 0.58153 0.80084 0.26646 0.0
H70 H 0.59187 0.77953 0.3103 0.0
C71 C 0.60348 0.82271 0.21381 0.0
H72 H 0.5093 0.83906 0.18599 0.0
C73 C 0.59201 0.84964 0.14964 0.0
H74 H 0.61014 0.86571 0.10993 0.0
H75 H 0.62986 0.81841 0.22127 0.0
H76 H 0.29329 0.56762 0.28932 0.0
C77 C 0.27581 0.55982 0.22401 0.0
C78 C 0.24341 0.5707 0.23447 0.0
C79 C 0.28593 0.54077 0.12981 0.0
H80 H 0.19435 0.57083 0.16776 0.0
C81 C 0.21957 0.56301 0.15142 0.0
C82 C 0.22734 0.54621 0.04935 0.0
C83 C 0.26119 0.53435 0.0401 0.0
C84 C 0.32293 0.5312 0.1259 0.0
H85 H 0.26819 0.52084 0.96389 0.0
C86 C 0.3444 0.52993 0.22668 0.0
C87 C 0.3796 0.52479 0.21893 0.0
C88 C 0.33801 0.52622 0.01921 0.0
H89 H 0.32381 0.52767 0.94046 0.0
C90 C 0.37206 0.52075 1.01096 0.0
H91 H 0.334 0.5325 0.31139 0.0
C92 C 0.39243 0.52007 0.10832 0.0
H93 H 0.41873 0.51659 0.09633 0.0
H94 H 0.38293 0.51778 0.92707 0.0
H95 H 0.99412 0.28956 0.24165 0.0
C96 C 1.00243 0.27196 0.17794 0.0
C97 C 0.98778 0.24065 0.17771 0.0
C98 C 0.02637 0.28081 0.09683 0.0
H99 H 0.98485 0.19251 0.1002 0.0
C100 C 0.99611 0.21693 0.09495 0.0
C101 C 1.01857 0.22351 1.00693 0.0
C102 C 0.03447 0.25583 1.00962 0.0
C103 C 0.04004 0.31679 0.10274 0.0
H104 H 0.05245 0.26135 0.94409 0.0
C105 C 0.03835 0.33825 0.2038 0.0
C106 C 0.04913 0.37243 0.20215 0.0
C107 C 0.05287 0.33112 1.00274 0.0
H108 H 0.05405 0.31718 0.92355 0.0
C109 C 0.06323 0.36421 1.00063 0.0
H110 H 0.02932 0.32868 0.28428 0.0
C111 C 0.06145 0.38444 0.09781 0.0
H112 H 0.06926 0.41009 0.09043 0.0
H113 H 0.07228 0.3745 0.92136 0.0
H114 H 0.26361 0.09265 0.19267 0.0
C115 C 0.2839 0.08046 0.14981 0.0
C116 C 0.31593 0.09268 0.16639 0.0
C117 C 0.27761 0.0519 0.08464 0.0
H118 H 0.36617 0.09046 0.10258 0.0
C119 C 0.34152 0.08013 0.09613 0.0
C120 C 0.33734 0.05229 0.02463 0.0
C121 C 0.30473 0.03788 0.01957 0.0
C122 C 0.24213 0.03867 0.08697 0.0
H123 H 0.30076 1.01574 0.96859 0.0
C124 C 0.22098 0.04161 0.18645 0.0
C125 C 0.18621 0.0345 0.18091 0.0
C126 C 0.22774 0.02692 0.98505 0.0
H127 H 0.24233 1.02472 0.90778 0.0
C128 C 0.19394 1.01968 0.97921 0.0
H129 H 0.23125 0.05034 0.26698 0.0
C130 C 0.17352 1.02368 0.07478 0.0
H131 H 0.14747 1.01799 0.06582 0.0
H132 H 0.18325 1.01138 0.89873 0.0
H133 H 0.50093 0.2744 0.28713 0.0
C134 C 0.50507 0.29154 0.21755 0.0
C135 C 0.50314 0.32512 0.24516 0.0
C136 C 0.52007 0.28088 0.11612 0.0
H137 H 0.50743 0.37514 0.18338 0.0
C138 C 0.50825 0.34921 0.16004 0.0
C139 C 0.51867 0.34055 0.04933 0.0
C140 C 0.52591 0.30597 0.02891 0.0
C141 C 0.5354 0.24585 0.11838 0.0
H142 H 0.53692 0.29908 0.94796 0.0
C143 C 0.52577 0.22022 0.19941 0.0
C144 C 0.54601 0.19172 0.2211 0.0
C145 C 0.56424 0.23997 0.05466 0.0
H146 H 0.57342 0.25819 0.99466 0.0
C147 C 0.5833 0.21147 0.07241 0.0
H148 H 0.50354 0.22271 0.2497 0.0
C149 C 0.57453 0.18797 0.15449 0.0
H150 H 0.59083 0.16712 0.16872 0.0
H151 H 0.60603 0.20816 0.02507 0.0
Eu152 Eu 0.99952 0.03628 0.57562 0.0
C153 C 0.09211 0.08355 0.96138 0.0
N154 N 0.09887 0.06531 0.86639 0.0
C155 C 0.14939 0.09551 0.83935 0.0
C156 C 0.11312 0.10978 0.99601 0.0
C157 C 0.12736 0.07038 0.80666 0.0
C158 C 0.14212 0.11549 0.93391 0.0
C159 C 0.05515 0.09593 0.11836 0.0
C160 C 0.06391 0.07615 0.02302 0.0
C161 C 0.07507 0.1231 0.14983 0.0
C162 C 0.10426 0.12971 0.08984 0.0
Eu163 Eu 0.06224 1.02159 0.81911 0.0
N164 N 0.04584 0.04892 0.99277 0.0
C165 C 0.02714 0.08728 0.18134 0.0
C166 C 0.02135 0.03817 0.06404 0.0
C167 C 1.01042 0.05797 0.15491 0.0
H168 H 0.13318 0.05494 0.73391 0.0
H169 H 0.98985 0.04995 0.20709 0.0
H170 H 0.92614 1.01847 0.7119 0.0
H171 H 0.04705 0.97788 0.18654 0.0
H172 H 1.01045 1.01402 0.05369 0.0
H173 H 1.01927 0.1021 0.25386 0.0
H174 H 0.04244 1.02144 0.33497 0.0
H175 H 0.1719 0.0995 0.79139 0.0
H176 H 0.0686 0.13856 0.22249 0.0
H177 H 0.11977 0.15029 0.11659 0.0
H178 H 0.89007 0.97017 0.73876 0.0
H179 H 0.159 0.13523 0.9582 0.0
H180 H 1.00983 0.92941 0.191 0.0
N181 N 0.95841 0.99403 0.59479 0.0
C182 C 0.96026 0.96862 0.51757 0.0
C183 C 0.91031 0.96895 0.67844 0.0
C184 C 0.93834 0.94134 0.52329 0.0
C185 C 0.93171 0.99595 0.66606 0.0
C186 C 0.91428 0.94102 0.609 0.0
N187 N 1.00422 0.99684 0.42566 0.0
C188 C 0.02635 1.00015 0.33831 0.0
C189 C 0.98455 0.94533 0.3448 0.0
C190 C 0.98304 0.97055 0.42874 0.0
C191 C 1.00784 0.94818 0.25695 0.0
C192 C 0.02889 0.97561 0.25397 0.0
H193 H 0.89717 0.92043 0.61684 0.0
H194 H 0.92358 0.89483 0.44435 0.0
H195 H 0.9637 0.89853 0.2876 0.0
O196 O 0.99392 0.08018 0.46604 0.0
O197 O 0.03332 0.9901 0.56975 0.0
O198 O 0.03425 0.97442 0.75425 0.0
O199 O 0.95471 0.04401 0.47486 0.0
O200 O 0.05241 0.05208 0.52001 0.0
O201 O 0.08627 1.02152 0.6406 0.0
O202 O 0.08605 0.99703 0.96484 0.0
O203 O 0.05645 0.07639 0.75808 0.0
O204 O 1.00198 0.07867 0.71075 0.0
O205 O 0.10762 0.99329 0.79645 0.0
O206 O 1.00895 1.00342 0.85662 0.0
O207 O 0.9786 0.04171 0.75765 0.0
C208 C 0.0332 0.96591 0.64503 0.0
C209 C 0.93883 0.1 0.47749 0.0
C210 C 0.92243 0.15792 0.46985 0.0
C211 C 0.89594 0.1517 0.54343 0.0
C212 C 0.91236 0.09378 0.55292 0.0
C213 C 0.89101 0.11953 0.58512 0.0
C214 C 0.94352 0.13207 0.43643 0.0
C215 C 0.08166 0.03848 0.54471 0.0
C216 C 0.96274 0.07394 0.44567 0.0
C217 C 0.94021 0.91591 0.44101 0.0
C218 C 0.96304 0.91805 0.35152 0.0
C219 C 0.02864 0.09361 0.75249 0.0
C220 C 0.11456 0.94814 0.91789 0.0
C221 C 0.09138 0.89247 0.92628 0.0
C222 C 0.12247 0.88073 0.96522 0.0
C223 C 0.14532 0.93615 0.95465 0.0
C224 C 0.08839 0.92615 0.89872 0.0
C225 C 0.14935 0.90235 0.97658 0.0
C226 C 0.98147 1.02103 0.84454 0.0
C227 C 0.10922 0.98365 0.90255 0.0
H228 H 0.87945 0.17156 0.56893 0.0
H229 H 0.90823 0.06922 0.58773 0.0
H230 H 0.87077 0.11457 0.64307 0.0
H231 H 0.96393 0.13711 0.37873 0.0
H232 H 0.12586 0.85538 0.99346 0.0
H233 H 0.16594 0.95287 0.96834 0.0
H234 H 0.06503 0.93576 0.86893 0.0
H235 H 0.17295 0.89311 1.00734 0.0
Eu236 Eu 0.54777 0.06082 0.84395 0.0
C237 C 0.54471 0.9385 0.47436 0.0
N238 N 0.54506 0.97159 0.45359 0.0
C239 C 0.58013 0.96325 0.29115 0.0
C240 C 0.56328 0.9164 0.40667 0.0
C241 C 0.56154 0.98417 0.36175 0.0
C242 C 0.58162 0.92929 0.31531 0.0
C243 C 0.52254 0.89228 0.58242 0.0
C244 C 0.52501 0.92669 0.56195 0.0
C245 C 0.54192 0.87017 0.51807 0.0
C246 C 0.56261 0.88231 0.43166 0.0
Eu247 Eu 0.52071 1.00555 0.59427 0.0
N248 N 0.50763 0.94888 0.62531 0.0
C249 C 0.50066 0.88121 0.66676 0.0
C250 C 0.48522 0.9382 0.70451 0.0
C251 C 0.48156 0.90426 0.72685 0.0
H252 H 0.56119 1.01048 0.34572 0.0
H253 H 0.46437 0.89594 0.79162 0.0
H254 H 0.47161 0.09849 0.86098 0.0
H255 H 0.67032 0.11809 0.80793 0.0
H256 H 0.47099 0.9557 0.75398 0.0
H257 H 0.49805 0.85496 0.68517 0.0
H258 H 0.63106 0.07224 0.83213 0.0
H259 H 0.59373 0.97339 0.21953 0.0
H260 H 0.54096 0.84366 0.53397 0.0
H261 H 0.57769 0.86509 0.38394 0.0
H262 H 0.4487 0.15455 0.85455 0.0
H263 H 0.59647 0.91324 0.26173 0.0
H264 H 0.65004 0.1758 0.79395 0.0
N265 N 0.52176 0.11386 0.83718 0.0
C266 C 0.54256 0.14029 0.82516 0.0
C267 C 0.47511 0.15088 0.84569 0.0
C268 C 0.53004 0.17304 0.82 0.0
C269 C 0.48842 0.11886 0.84927 0.0
C270 C 0.49595 0.17806 0.83044 0.0
N271 N 0.58809 0.10281 0.81742 0.0
C272 C 0.6214 0.0969 0.8181 0.0
C273 C 0.59843 0.16177 0.80551 0.0
C274 C 0.57647 0.13461 0.81583 0.0
C275 C 0.63247 0.1556 0.80155 0.0
C276 C 0.64398 0.12306 0.80821 0.0
H277 H 0.48548 0.20284 0.82733 0.0
H278 H 0.5425 0.22502 0.79904 0.0
H279 H 0.60234 0.21519 0.78714 0.0
O280 O 0.5811 0.04933 0.98578 0.0
O281 O 0.52979 0.08795 0.67909 0.0
O282 O 0.54496 0.05387 0.53201 0.0
O283 O 0.5401 0.083 0.01386 0.0
O284 O 0.59245 0.03648 0.74543 0.0
O285 O 0.57479 1.01971 0.56529 0.0
O286 O 0.48386 0.04164 0.54706 0.0
O287 O 0.54406 0.97667 0.74366 0.0
O288 O 0.53177 1.00807 0.90023 0.0
O289 O 0.48816 0.99536 0.44829 0.0
O290 O 0.47693 1.01453 0.71945 0.0
O291 O 0.49417 0.04524 0.87591 0.0
C292 C 0.53875 0.08395 0.57124 0.0
C293 C 0.58553 0.0857 0.14434 0.0
C294 C 0.63717 0.11393 0.19149 0.0
C295 C 0.63271 0.10511 0.30733 0.0
C296 C 0.58119 0.07783 0.25986 0.0
C297 C 0.60494 0.08712 0.34071 0.0
C298 C 0.61254 0.1052 0.11186 0.0
C299 C 0.59886 0.02651 0.63851 0.0
C300 C 0.5654 0.06792 0.05928 0.0
C301 C 0.55177 0.19979 0.80426 0.0
C302 C 0.58585 0.19419 0.79739 0.0
C303 C 0.53879 0.979 0.8544 0.0
C304 C 0.43489 1.01995 0.47486 0.0
C305 C 0.38215 0.04938 0.47279 0.0
C306 C 0.36586 1.01833 0.47866 0.0
C307 C 0.41841 0.98943 0.48272 0.0
C308 C 0.41682 0.04961 0.47471 0.0
C309 C 0.38393 0.98877 0.48596 0.0
C310 C 0.47066 0.02979 0.81763 0.0
C311 C 0.47091 1.02242 0.46818 0.0
H312 H 0.65158 0.11011 0.37131 0.0
H313 H 0.56007 0.06334 0.28654 0.0
H314 H 0.60247 0.07926 0.42882 0.0
H315 H 0.6157 0.11186 0.02407 0.0
H316 H 0.33924 1.01637 0.4719 0.0
H317 H 0.43205 0.96626 0.48556 0.0
H318 H 0.43015 0.07294 0.4727 0.0
H319 H 0.37109 0.96521 0.49008 0.0
Eu320 Eu 0.56793 0.5248 0.64203 0.0
C321 C 0.47404 0.47882 0.9943 0.0
N322 N 0.46719 0.49639 0.89722 0.0
C323 C 0.42122 0.46059 0.85461 0.0
C324 C 0.45502 0.45066 0.02313 0.0
C325 C 0.44086 0.48809 0.82839 0.0
C326 C 0.42835 0.44176 0.95218 0.0
C327 C 0.50838 0.47014 0.16312 0.0
C328 C 0.50053 0.48869 0.06397 0.0
C329 C 0.49014 0.44164 0.18969 0.0
C330 C 0.46341 0.43199 0.12055 0.0
Eu331 Eu 0.50145 0.54303 0.86341 0.0
N332 N 0.51769 0.51688 0.03805 0.0
C333 C 0.53383 0.48122 0.23503 0.0
C334 C 0.53888 0.53017 0.1178 0.0
C335 C 0.54869 0.51172 0.21358 0.0
H336 H 0.43511 0.50281 0.75343 0.0
H337 H 0.56746 0.52119 0.27153 0.0
H338 H 0.64189 0.52444 0.78257 0.0
H339 H 0.52884 0.59829 0.26969 0.0
H340 H 0.54856 0.55497 0.1088 0.0
H341 H 0.54107 0.4671 0.30996 0.0
H342 H 0.52169 0.55911 0.42837 0.0
H343 H 0.40055 0.45397 0.79969 0.0
H344 H 0.49622 0.42736 0.26538 0.0
H345 H 0.44934 0.41009 0.14337 0.0
H346 H 0.69519 0.55355 0.7744 0.0
H347 H 0.4132 0.42033 0.97178 0.0
H348 H 0.58328 0.62452 0.2369 0.0
N349 N 0.62079 0.55047 0.64062 0.0
C350 C 0.62648 0.57199 0.55305 0.0
C351 C 0.67598 0.55922 0.7123 0.0
C352 C 0.6574 0.58801 0.54211 0.0
C353 C 0.64533 0.54324 0.718 0.0
C354 C 0.68203 0.58179 0.62421 0.0
N355 N 0.57118 0.56381 0.49019 0.0
C356 C 0.54541 0.5707 0.41761 0.0
C357 C 0.60656 0.60043 0.38248 0.0
C358 C 0.60127 0.57824 0.47426 0.0
C359 C 0.58021 0.60751 0.30803 0.0
C360 C 0.54943 0.59286 0.32653 0.0
H361 H 0.70603 0.59371 0.61889 0.0
H362 H 0.68657 0.62178 0.43923 0.0
H363 H 0.64195 0.63292 0.30044 0.0
O364 O 0.56008 0.48662 0.51331 0.0
O365 O 0.55982 0.5812 0.66974 0.0
O366 O 0.5058 0.58464 0.72782 0.0
O367 O 0.60987 0.49731 0.57123 0.0
O368 O 0.51369 0.51658 0.57277 0.0
O369 O 0.478 0.54704 0.68578 0.0
O370 O 0.48875 0.58751 0.96448 0.0
O371 O 0.50759 0.48896 0.79475 0.0
O372 O 0.56272 0.48509 0.784 0.0
O373 O 0.45221 0.55002 0.9327 0.0
O374 O 0.55554 0.56003 0.91157 0.0
O375 O 0.58448 0.51848 0.82763 0.0
C376 C 0.53205 0.59829 0.67949 0.0
C377 C 0.59289 0.4413 0.56786 0.0
C378 C 0.56372 0.38926 0.60021 0.0
C379 C 0.58699 0.3806 0.68494 0.0
C380 C 0.61615 0.43239 0.65286 0.0
C381 C 0.61334 0.40198 0.70993 0.0
C382 C 0.5676 0.41909 0.54005 0.0
C383 C 0.48422 0.53066 0.59032 0.0
C384 C 0.59036 0.47552 0.52382 0.0
C385 C 0.6629 0.60952 0.44947 0.0
C386 C 0.63758 0.61563 0.36978 0.0
C387 C 0.5344 0.47078 0.8083 0.0
C388 C 0.43284 0.60488 0.93669 0.0
C389 C 0.4112 0.66079 0.95877 0.0
C390 C 0.38546 0.6538 0.88172 0.0
C391 C 0.4069 0.59786 0.85885 0.0
C392 C 0.43462 0.63633 0.98626 0.0
C393 C 0.38335 0.62224 0.83195 0.0
C394 C 0.58294 0.54187 0.90553 0.0
C395 C 0.45753 0.57964 0.97038 0.0
H396 H 0.58507 0.35719 0.73017 0.0
H397 H 0.63584 0.44923 0.67781 0.0
H398 H 0.63127 0.39526 0.77524 0.0
H399 H 0.55056 0.42539 0.4712 0.0
H400 H 0.36721 0.67257 0.86047 0.0
H401 H 0.40464 0.57361 0.81922 0.0
H402 H 0.45431 0.64189 0.04715 0.0
H403 H 0.36341 0.61662 0.77259 0.0
Eu404 Eu 0.04044 0.56199 0.61329 0.0
C405 C 0.10125 0.45847 0.92337 0.0
N406 N 0.0798 0.45583 0.83312 0.0
C407 C 0.10986 0.40894 0.76092 0.0
C408 C 0.12838 0.43656 0.93401 0.0
C409 C 0.08336 0.43116 0.75359 0.0
C410 C 0.13234 0.4115 0.85185 0.0
C411 C 0.12028 0.4887 0.09174 0.0
C412 C 0.09696 0.48421 1.00222 0.0
C413 C 0.14777 0.4675 0.10011 0.0
C414 C 0.15144 0.44112 0.0231 0.0
Eu415 Eu 0.03421 0.49269 0.83409 0.0
N416 N 0.07033 0.50492 0.99116 0.0
C417 C 0.11519 0.51419 0.17126 0.0
C418 C 0.06389 0.52775 0.0751 0.0
C419 C 0.08657 0.5334 0.16398 0.0
H420 H 0.06534 0.42801 0.68604 0.0
H421 H 0.08157 0.5521 0.22842 0.0
H422 H 1.00689 0.62764 0.74958 0.0
H423 H 1.00188 0.50315 0.20679 0.0
H424 H 0.04084 0.54102 0.07779 0.0
H425 H 0.13258 0.51846 0.24087 0.0
H426 H 0.04078 0.51669 0.3613 0.0
H427 H 0.11262 0.38951 0.69741 0.0
H428 H 0.16622 0.47107 0.16688 0.0
H429 H 0.17267 0.42483 0.03153 0.0
H430 H 0.95809 0.66417 0.73112 0.0
H431 H 0.1529 0.39426 0.8571 0.0
H432 H 0.94809 0.53214 0.1934 0.0
N433 N 0.99431 0.59815 0.60417 0.0
C434 C 0.97318 0.59352 0.51401 0.0
C435 C 0.96193 0.64427 0.67011 0.0
C436 C 0.94484 0.6137 0.50114 0.0
C437 C 0.98935 0.62332 0.68106 0.0
C438 C 0.93965 0.63952 0.5796 0.0
N439 N 1.00746 0.54914 0.44877 0.0
C440 C 1.01659 0.52794 0.36279 0.0
C441 C 0.95701 0.5619 0.34533 0.0
C442 C 0.97941 0.56781 0.4366 0.0
C443 C 0.96469 0.53745 0.26449 0.0
C444 C 0.99493 0.52092 0.272 0.0
H445 H 0.91827 0.65565 0.57191 0.0
H446 H 0.89996 0.62189 0.40258 0.0
H447 H 0.91021 0.5762 0.26824 0.0
O448 O 0.08014 0.57396 0.49278 0.0
O449 O 0.98826 0.55268 0.68788 0.0
O450 O 0.98751 0.49715 0.71653 0.0
O451 O 0.04741 0.61239 0.55117 0.0
O452 O 0.05595 0.5084 0.55241 0.0
O453 O 0.02228 0.47365 0.654 0.0
O454 O 1.00659 0.48018 0.98778 0.0
O455 O 0.08677 0.50449 0.76416 0.0
O456 O 0.08442 0.56011 0.74156 0.0
O457 O 0.02102 0.44121 0.87169 0.0
O458 O 1.01594 0.54527 0.89596 0.0
O459 O 0.04877 0.58136 0.79521 0.0
C460 C 0.97188 0.52451 0.68484 0.0
C461 C 0.10328 0.62707 0.53366 0.0
C462 C 0.16273 0.63629 0.5378 0.0
C463 C 0.15824 0.66619 0.59712 0.0
C464 C 0.09887 0.65705 0.59443 0.0
C465 C 0.12627 0.67635 0.62624 0.0
C466 C 0.1353 0.61703 0.50601 0.0
C467 C 0.03988 0.4796 0.56189 0.0
C468 C 0.07497 0.60589 0.50024 0.0
C469 C 0.92219 0.60707 0.41244 0.0
C470 C 0.92801 0.58095 0.33605 0.0
C471 C 0.10162 0.53356 0.77086 0.0
C472 C 0.971 0.43464 0.96727 0.0
C473 C 0.91178 0.44515 0.96196 0.0
C474 C 0.90681 0.41423 0.0169 0.0
C475 C 0.9658 0.40405 0.02073 0.0
C476 C 0.94404 0.45346 0.92893 0.0
C477 C 0.93359 0.39342 0.04218 0.0
C478 C 0.03032 0.57496 0.88511 0.0
C479 C 1.0042 0.44874 0.96217 0.0
H480 H 0.17925 0.68166 0.61939 0.0
H481 H 0.07436 0.66563 0.6173 0.0
H482 H 0.12265 0.69942 0.67234 0.0
H483 H 0.13897 0.59444 0.4567 0.0
H484 H 0.88284 0.40683 0.04853 0.0
H485 H 0.98652 0.389 0.04906 0.0
H486 H 0.94868 0.47648 0.88403 0.0
H487 H 0.92951 0.37008 0.08586 0.0
C488 C 0.13089 0.05419 0.2639 0.0
C489 C 0.16197 0.03852 0.28097 0.0
C490 C 0.10595 0.05505 0.34935 0.0
C491 C 0.11 0.03955 0.45719 0.0
H492 H 0.12555 0.06562 0.18215 0.0
H493 H 0.0829 0.06746 0.3294 0.0
S494 S 0.18676 0.99482 0.54825 0.0
N495 N 0.19533 1.00758 0.41717 0.0
N496 N 0.14889 1.00804 0.5753 0.0
C497 C 0.14127 1.02409 0.47622 0.0
C498 C 0.16694 1.02385 0.38949 0.0
C499 C 0.51482 0.14382 0.32145 0.0
C500 C 0.54093 0.16726 0.31979 0.0
C501 C 0.51379 0.1175 0.40361 0.0
C502 C 0.53863 0.11343 0.48896 0.0
H503 H 0.49573 0.14497 0.25595 0.0
H504 H 0.49365 0.0998 0.39874 0.0
S505 S 0.61339 0.16654 0.51714 0.0
N506 N 0.59261 0.18354 0.41011 0.0
N507 N 0.59075 0.13489 0.56099 0.0
C508 C 0.5644 0.13704 0.48876 0.0
C509 C 0.56559 0.16347 0.4052 0.0
C510 C 0.43149 0.5028 0.32523 0.0
C511 C 0.40414 0.52506 0.32124 0.0
C512 C 0.45689 0.50466 0.41046 0.0
C513 C 0.45667 0.52883 0.49854 0.0
H514 H 0.43344 0.48358 0.2608 0.0
H515 H 0.47689 0.48677 0.40734 0.0
S516 S 0.392 0.59442 0.52746 0.0
N517 N 0.37967 0.57297 0.4142 0.0
N518 N 0.42628 0.5763 0.57335 0.0
C519 C 0.42935 0.55113 0.49642 0.0
C520 C 0.40356 0.54928 0.40905 0.0
C521 C 1.01771 0.40485 0.36042 0.0
C522 C 0.04764 0.39704 0.30379 0.0
C523 C 1.01546 0.43122 0.44248 0.0
C524 C 0.04279 0.45189 0.47152 0.0
H525 H 0.99551 0.39107 0.33884 0.0
H526 H 0.99173 0.4359 0.48207 0.0
S527 S 0.12799 0.4393 0.36312 0.0
N528 N 0.10616 0.41078 0.29422 0.0
N529 N 0.10155 0.45985 0.44401 0.0
C530 C 0.07294 0.44375 0.41813 0.0
C531 C 0.07541 0.4167 0.33606 0.0
C532 C 0.92257 0.98526 0.07616 0.0
C533 C 0.89898 1.01078 0.09705 0.0
C534 C 0.9486 0.98861 0.99563 0.0
C535 C 0.9528 1.01765 0.92955 0.0
H536 H 0.92121 0.96221 0.12367 0.0
H537 H 0.96575 0.96814 0.98553 0.0
S538 S 0.8983 0.09212 0.94662 0.0
N539 N 0.88221 0.06639 0.04137 0.0
N540 N 0.93016 0.07245 0.88994 0.0
C541 C 0.92902 0.04309 0.947 0.0
C542 C 0.90253 0.03973 0.02984 0.0
C543 C 0.56357 0.89062 0.9545 0.0
C544 C 0.54812 0.88607 0.0622 0.0
C545 C 0.55988 0.92005 0.88894 0.0
C546 C 0.54106 0.94744 0.92747 0.0
H547 H 0.57938 0.87123 0.92081 0.0
H548 H 0.57275 0.92157 0.80786 0.0
S549 S 0.49235 0.94803 0.19753 0.0
N550 N 0.51044 0.91119 0.19862 0.0
N551 N 0.5046 0.96667 0.07885 0.0
C552 C 0.5245 0.94299 0.03326 0.0
C553 C 0.52761 0.91244 0.09902 0.0
C554 C 0.64558 0.51163 0.13518 0.0
C555 C 0.66546 0.53947 0.16321 0.0
C556 C 0.61927 0.51319 0.05436 0.0
C557 C 0.61016 0.54279 0.99768 0.0
H558 H 0.65024 0.48809 0.17727 0.0
H559 H 0.60523 0.49091 0.03818 0.0
S560 S 0.65393 0.62328 0.03523 0.0
N561 N 0.67419 0.59797 0.12262 0.0
N562 N 0.62428 0.60096 0.97423 0.0
C563 C 0.62969 0.571 0.02409 0.0
C564 C 0.65726 0.5693 0.10521 0.0
C565 C 0.05076 0.64911 0.08909 0.0
C566 C 1.02046 0.65669 0.14336 0.0
C567 C 0.05358 0.62299 1.00678 0.0
C568 C 0.02648 0.60238 0.97544 0.0
H569 H 0.07276 0.66297 0.11243 0.0
H570 H 0.07756 0.61848 0.96884 0.0
S571 S 0.94063 0.61446 0.0783 0.0
N572 N 0.96203 0.64274 0.15011 0.0
N573 N 0.96753 0.59417 0.9983 0.0
C574 C 0.99595 0.61025 0.02679 0.0
C575 C 0.99296 0.63704 0.10958 0.0
C576 C 0.93348 0.21794 0.23741 0.0
C577 C 0.96447 0.23117 0.26845 0.0
C578 C 0.91591 0.19804 0.31398 0.0
C579 C 0.92911 0.19084 0.4227 0.0
H580 H 0.9245 0.22017 0.14995 0.0
H581 H 0.89427 0.18482 0.28281 0.0
S582 S 1.00575 0.22489 0.55209 0.0
N583 N 1.00483 0.24032 0.4208 0.0
N584 N 0.97165 0.20258 0.56468 0.0
C585 C 0.95761 0.20764 0.4599 0.0
C586 C 0.9755 0.22792 0.38222 0.0
C587 C 0.35739 0.1212 0.28879 0.0
C588 C 0.32426 0.11108 0.27551 0.0
C589 C 0.3777 0.10344 0.36494 0.0
C590 C 0.36362 0.08022 0.44177 0.0
H591 H 0.36923 0.13536 0.22155 0.0
H592 H 0.40409 0.10503 0.35143 0.0
S593 S 0.27479 0.07845 0.5181 0.0
N594 N 0.27628 0.09917 0.39593 0.0
N595 N 0.31352 0.06877 0.55019 0.0
C596 C 0.32943 0.08291 0.46024 0.0
C597 C 0.30943 0.09937 0.37715 0.0
C598 C 0.53603 0.31948 0.42346 0.0
C599 C 0.5087 0.33412 0.36679 0.0
C600 C 0.5508 0.33481 0.5177 0.0
C601 C 0.53894 0.36542 0.55689 0.0
H602 H 0.54876 0.29832 0.3868 0.0
H603 H 0.57434 0.32516 0.5479 0.0
S604 S 0.46036 0.40616 0.46996 0.0
N605 N 0.46463 0.37503 0.37842 0.0
N606 N 0.49254 0.40405 0.55791 0.0
C607 C 0.50798 0.37663 0.51612 0.0
C608 C 0.493 0.36114 0.41908 0.0
C609 C 0.22481 0.62463 0.31248 0.0
C610 C 0.23374 0.59141 0.33221 0.0
C611 C 0.20581 0.64197 0.39245 0.0
C612 C 0.19495 0.62618 0.49265 0.0
H613 H 0.22991 0.63614 0.23048 0.0
H614 H 0.19611 0.66615 0.36893 0.0
S615 S 0.21743 0.54189 0.59258 0.0
N616 N 0.23525 0.54527 0.4659 0.0
N617 N 0.19887 0.57781 0.61625 0.0
C618 C 0.20734 0.59454 0.51959 0.0
C619 C 0.22685 0.57699 0.43859 0.0
C620 C 1.00961 0.86772 0.04661 0.0
C621 C 1.01724 0.83475 0.07543 0.0
C622 C 0.03184 0.88642 0.98214 0.0
C623 C 0.06099 0.87179 0.93842 0.0
H624 H 0.98978 0.88057 0.09035 0.0
H625 H 0.028 0.913 0.98124 0.0
S626 S 0.0784 0.78162 0.92394 0.0
N627 N 0.04697 0.78506 0.01305 0.0
N628 N 0.08632 0.81973 0.87976 0.0
C629 C 0.06269 0.83699 0.93715 0.0
C630 C 0.04105 0.81826 1.00792 0.0
C631 C 0.71904 0.09395 0.07584 0.0
C632 C 0.73725 0.10408 0.17259 0.0
C633 C 0.68544 0.10225 0.06777 0.0
C634 C 0.6708 0.12299 0.15104 0.0
H635 H 0.72781 0.07326 0.02469 0.0
H636 H 0.6703 0.08769 1.00969 0.0
S637 S 0.71582 0.17332 0.36649 0.0
N638 N 0.74408 0.14795 0.31349 0.0
N639 N 0.68127 0.16558 0.29464 0.0
C640 C 0.69211 0.14184 0.22097 0.0
C641 C 0.72608 0.13263 0.2301 0.0
C642 C 0.45808 0.73396 0.05243 0.0
C643 C 0.44988 0.73438 0.16965 0.0
C644 C 0.44079 0.71362 0.97555 0.0
C645 C 0.41501 0.69323 0.01409 0.0
H646 H 0.4804 0.74598 0.02245 0.0
H647 H 0.45049 0.71046 0.88973 0.0
S648 S 0.37837 0.69234 0.30397 0.0
N649 N 0.4096 0.71872 0.31408 0.0
N650 N 0.37775 0.67953 0.16926 0.0
C651 C 0.40336 0.69736 0.12608 0.0
C652 C 0.42074 0.71825 0.20431 0.0
C653 C 0.87569 0.52578 0.05768 0.0
C654 C 0.84482 0.51464 0.09602 0.0
C655 C 0.89631 0.50459 0.99618 0.0
C656 C 0.88615 0.47188 0.96829 0.0
H657 H 0.88593 0.54887 0.0901 0.0
H658 H 0.92159 0.51277 0.98591 0.0
S659 S 0.80081 0.43913 0.99429 0.0
N660 N 0.80052 0.47436 0.06705 0.0
N661 N 0.83837 0.43586 0.94027 0.0
C662 C 0.85236 0.46434 0.98028 0.0
C663 C 0.83172 0.48547 0.04703 0.0
C664 C 0.05332 0.17898 0.89637 0.0
C665 C 0.02279 0.19512 0.91776 0.0
C666 C 0.05519 0.14771 0.83711 0.0
C667 C 0.02673 0.12964 0.80036 0.0
H668 H 0.07595 0.18987 0.92944 0.0
H669 H 0.07936 0.13739 0.82113 0.0
S670 S 0.94116 0.16371 0.81341 0.0
N671 N 0.96378 0.19247 0.87744 0.0
N672 N 0.96721 0.13416 0.7752 0.0
C673 C 0.99641 0.14682 0.81357 0.0
C674 C 0.99455 0.17897 0.87013 0.0
C675 C 0.37421 0.03735 0.84899 0.0
C676 C 0.36918 0.03848 0.96926 0.0
C677 C 0.40641 0.03263 0.80013 0.0
C678 C 0.43555 0.02965 0.86833 0.0
H679 H 0.35344 0.04185 0.79192 0.0
H680 H 0.40867 0.03314 0.70797 0.0
S681 S 0.43616 0.02749 0.18662 0.0
N682 N 0.39669 0.03256 0.15395 0.0
N683 N 0.45595 0.02584 0.06352 0.0
C684 C 0.43048 0.02936 0.98796 0.0
C685 C 0.39791 0.03315 0.03748 0.0
C686 C 0.50074 0.38333 0.89683 0.0
C687 C 0.52589 0.36949 0.96729 0.0
C688 C 0.50415 0.41498 0.84262 0.0
C689 C 0.53264 0.43518 0.85696 0.0
H690 H 0.47747 0.37024 0.88747 0.0
H691 H 0.48368 0.42417 0.79151 0.0
S692 S 0.60614 0.41078 0.03125 0.0
N693 N 0.58064 0.37904 0.04631 0.0
N694 N 0.58713 0.43727 0.9451 0.0
C695 C 0.55833 0.42104 0.9241 0.0
C696 C 0.55486 0.38889 0.9792 0.0
C697 C 0.17427 0.56893 0.95286 0.0
C698 C 0.19867 0.54334 0.95965 0.0
C699 C 0.14418 0.56577 0.89028 0.0
C700 C 0.13617 0.53707 0.82664 0.0
H701 H 0.17797 0.59201 0.9989 0.0
H702 H 0.12653 0.58597 0.89461 0.0
S703 S 0.19479 0.46688 0.78068 0.0
N704 N 0.21433 0.49045 0.87554 0.0
N705 N 0.15908 0.48546 0.75324 0.0
C706 C 0.16155 0.51262 0.82177 0.0
C707 C 0.19227 0.51559 0.88801 0.0
C708 C 1.00952 0.87316 0.57736 0.0
C709 C 0.03065 0.8643 0.48513 0.0
C710 C 1.01179 0.90472 0.63513 0.0
C711 C 0.03473 0.92967 0.60212 0.0
H712 H 0.98969 0.85645 0.60069 0.0
H713 H 0.99389 0.91041 0.70107 0.0
S714 S 0.09758 0.91901 0.37358 0.0
N715 N 0.07743 0.88332 0.37277 0.0
N716 N 0.08032 0.94169 0.47501 0.0
C717 C 0.05674 0.92051 0.51396 0.0
C718 C 0.05509 0.88839 0.45775 0.0
C719 C 0.68544 0.05661 0.54001 0.0
C720 C 0.69938 0.02969 0.47795 0.0
C721 C 0.65395 0.055 0.5927 0.0
C722 C 0.63445 0.02598 0.59265 0.0
H723 H 0.69806 0.08036 0.5407 0.0
H724 H 0.64382 0.07778 0.6253 0.0
S725 S 0.65869 0.94738 0.44703 0.0
N726 N 0.69016 0.97246 0.42081 0.0
N727 N 0.63222 0.96888 0.52536 0.0
C728 C 0.64835 0.99834 0.53439 0.0
C729 C 0.68038 1.00018 0.47762 0.0
C730 C 0.49349 0.67686 0.54029 0.0
C731 C 0.5204 0.69518 0.49345 0.0
C732 C 0.49761 0.64668 0.60136 0.0
C733 C 0.52905 0.63278 0.62372 0.0
H734 H 0.46835 0.68545 0.52739 0.0
H735 H 0.47557 0.63372 0.62905 0.0
S736 S 0.60861 0.67449 0.55193 0.0
N737 N 0.58041 0.6988 0.49243 0.0
N738 N 0.58816 0.64383 0.61352 0.0
C739 C 0.55644 0.65229 0.58802 0.0
C740 C 0.55219 0.68289 0.52273 0.0
C741 C 0.89672 0.49961 0.4936 0.0
C742 C 0.87303 0.52559 0.50644 0.0
C743 C 0.92729 0.49859 0.555 0.0
C744 C 0.9366 0.52351 0.63404 0.0
H745 H 0.89225 0.48029 0.43064 0.0
H746 H 0.94456 0.47881 0.5357 0.0
S747 S 0.88191 0.59359 0.72027 0.0
N748 N 0.86028 0.57472 0.61845 0.0
N749 N 0.91687 0.57255 0.73424 0.0
C750 C 0.91231 0.5483 0.65476 0.0
C751 C 0.88096 0.54933 0.59186 0.0
loop_
_geom_bond_atom_site_label_1
_geom_bond_atom_site_label_2
_geom_bond_distance
_geom_bond_site_symmetry_2
_ccdc_geom_bond_type
H0 C1 0.949 . S
C1 H0 0.949 . S
C1 C2 1.395 . S
C1 C3 1.391 . S
C2 C1 1.395 . S
C2 C5 1.390 . S
C3 C1 1.391 . S
C3 C7 1.387 . S
C3 C8 1.491 . S
H4 C5 0.950 . S
C5 C2 1.390 . S
C5 H4 0.950 . S
C5 C6 1.378 . S
C6 C5 1.378 . S
C6 C7 1.409 . S
C7 C3 1.387 . S
C7 C6 1.409 . S
C7 H9 0.951 . S
C8 C3 1.491 . S
C8 C10 1.382 . S
C8 C12 1.404 . S
H9 C7 0.951 . S
C10 C8 1.382 . S
C10 C11 1.390 . S
C10 H15 0.949 . S
C11 C10 1.390 . S
C11 C16 1.399 . S
C12 C8 1.404 . S
C12 H13 0.950 . S
C12 C14 1.375 . S
H13 C12 0.950 . S
C14 C12 1.375 . S
C14 C16 1.382 . S
C14 H18 0.950 . S
H15 C10 0.949 . S
C16 C11 1.399 . S
C16 C14 1.382 . S
C16 H17 0.952 . S
H17 C16 0.952 . S
H18 C14 0.950 . S
H19 C20 0.949 . S
C20 H19 0.949 . S
C20 C21 1.395 . S
C20 C22 1.391 . S
C21 C20 1.395 . S
C21 C24 1.390 . S
C22 C20 1.391 . S
C22 C26 1.387 . S
C22 C27 1.491 . S
H23 C24 0.950 . S
C24 C21 1.390 . S
C24 H23 0.950 . S
C24 C25 1.378 . S
C25 C24 1.378 . S
C25 C26 1.409 . S
C26 C22 1.387 . S
C26 C25 1.409 . S
C26 H28 0.951 . S
C27 C22 1.491 . S
C27 C29 1.382 . S
C27 C31 1.404 . S
H28 C26 0.951 . S
C29 C27 1.382 . S
C29 C30 1.390 . S
C29 H34 0.949 . S
C30 C29 1.390 . S
C30 C35 1.399 . S
C31 C27 1.404 . S
C31 H32 0.950 . S
C31 C33 1.375 . S
H32 C31 0.950 . S
C33 C31 1.375 . S
C33 C35 1.382 . S
C33 H37 0.950 . S
H34 C29 0.949 . S
C35 C30 1.399 . S
C35 C33 1.382 . S
C35 H36 0.952 . S
H36 C35 0.952 . S
H37 C33 0.950 . S
H38 C39 0.949 . S
C39 H38 0.949 . S
C39 C40 1.395 . S
C39 C41 1.391 . S
C40 C39 1.395 . S
C40 C43 1.390 . S
C41 C39 1.391 . S
C41 C45 1.387 . S
C41 C46 1.491 . S
H42 C43 0.950 . S
C43 C40 1.390 . S
C43 H42 0.950 . S
C43 C44 1.378 . S
C44 C43 1.378 . S
C44 C45 1.409 . S
C45 C41 1.387 . S
C45 C44 1.409 . S
C45 H47 0.951 . S
C46 C41 1.491 . S
C46 C48 1.382 . S
C46 C50 1.404 . S
H47 C45 0.951 . S
C48 C46 1.382 . S
C48 C49 1.390 . S
C48 H53 0.949 . S
C49 C48 1.390 . S
C49 C54 1.399 . S
C50 C46 1.404 . S
C50 H51 0.950 . S
C50 C52 1.375 . S
H51 C50 0.950 . S
C52 C50 1.375 . S
C52 C54 1.382 . S
C52 H56 0.950 . S
H53 C48 0.949 . S
C54 C49 1.399 . S
C54 C52 1.382 . S
C54 H55 0.952 . S
H55 C54 0.952 . S
H56 C52 0.950 . S
H57 C58 0.949 . S
C58 H57 0.949 . S
C58 C59 1.395 . S
C58 C60 1.391 . S
C59 C58 1.395 . S
C59 C62 1.390 . S
C60 C58 1.391 . S
C60 C64 1.387 . S
C60 C65 1.491 . S
H61 C62 0.950 . S
C62 C59 1.390 . S
C62 H61 0.950 . S
C62 C63 1.378 . S
C63 C62 1.378 . S
C63 C64 1.409 . S
C64 C60 1.387 . S
C64 C63 1.409 . S
C64 H66 0.951 . S
C65 C60 1.491 . S
C65 C67 1.382 . S
C65 C69 1.404 . S
H66 C64 0.951 . S
C67 C65 1.382 . S
C67 C68 1.390 . S
C67 H72 0.949 . S
C68 C67 1.390 . S
C68 C73 1.399 . S
C69 C65 1.404 . S
C69 H70 0.950 . S
C69 C71 1.375 . S
H70 C69 0.950 . S
C71 C69 1.375 . S
C71 C73 1.382 . S
C71 H75 0.950 . S
H72 C67 0.949 . S
C73 C68 1.399 . S
C73 C71 1.382 . S
C73 H74 0.952 . S
H74 C73 0.952 . S
H75 C71 0.950 . S
H76 C77 0.949 . S
C77 H76 0.949 . S
C77 C78 1.395 . S
C77 C79 1.391 . S
C78 C77 1.395 . S
C78 C81 1.390 1_554 S
C79 C77 1.391 . S
C79 C83 1.387 1_554 S
C79 C84 1.491 . S
H80 C81 0.950 . S
C81 C78 1.390 1_556 S
C81 H80 0.950 . S
C81 C82 1.378 . S
C82 C81 1.378 . S
C82 C83 1.409 . S
C83 C79 1.387 1_556 S
C83 C82 1.409 . S
C83 H85 0.951 . S
C84 C79 1.491 . S
C84 C86 1.382 . S
C84 C88 1.404 1_554 S
H85 C83 0.951 . S
C86 C84 1.382 . S
C86 C87 1.390 . S
C86 H91 0.949 . S
C87 C86 1.390 . S
C87 C92 1.399 . S
C88 C84 1.404 1_556 S
C88 H89 0.950 . S
C88 C90 1.375 . S
H89 C88 0.950 . S
C90 C88 1.375 . S
C90 C92 1.382 1_556 S
C90 H94 0.950 . S
H91 C86 0.949 . S
C92 C87 1.399 . S
C92 C90 1.382 1_554 S
C92 H93 0.952 . S
H93 C92 0.952 . S
H94 C90 0.950 . S
H95 C96 0.949 . S
C96 H95 0.949 . S
C96 C97 1.395 . S
C96 C98 1.391 . S
C97 C96 1.395 . S
C97 C100 1.390 1_554 S
C98 C96 1.391 . S
C98 C102 1.387 1_554 S
C98 C103 1.491 . S
H99 C100 0.950 . S
C100 C97 1.390 1_556 S
C100 H99 0.950 . S
C100 C101 1.378 . S
C101 C100 1.378 . S
C101 C102 1.409 . S
C102 C98 1.387 1_556 S
C102 C101 1.409 . S
C102 H104 0.951 . S
C103 C98 1.491 . S
C103 C105 1.382 . S
C103 C107 1.404 1_454 S
H104 C102 0.951 . S
C105 C103 1.382 . S
C105 C106 1.390 . S
C105 H110 0.949 . S
C106 C105 1.390 . S
C106 C111 1.399 . S
C107 C103 1.404 1_656 S
C107 H108 0.950 . S
C107 C109 1.375 . S
H108 C107 0.950 . S
C109 C107 1.375 . S
C109 C111 1.382 1_656 S
C109 H113 0.950 . S
H110 C105 0.949 . S
C111 C106 1.399 . S
C111 C109 1.382 1_454 S
C111 H112 0.952 1_455 S
H112 C111 0.952 1_655 S
H113 C109 0.950 . S
H114 C115 0.949 . S
C115 H114 0.949 . S
C115 C116 1.395 . S
C115 C117 1.391 . S
C116 C115 1.395 . S
C116 C119 1.390 1_554 S
C117 C115 1.391 . S
C117 C121 1.387 1_554 S
C117 C122 1.491 . S
H118 C119 0.950 . S
C119 C116 1.390 1_556 S
C119 H118 0.950 . S
C119 C120 1.378 . S
C120 C119 1.378 . S
C120 C121 1.409 . S
C121 C117 1.387 1_556 S
C121 C120 1.409 . S
C121 H123 0.951 . S
C122 C117 1.491 . S
C122 C124 1.382 . S
C122 C126 1.404 1_544 S
H123 C121 0.951 . S
C124 C122 1.382 . S
C124 C125 1.390 . S
C124 H129 0.949 . S
C125 C124 1.390 . S
C125 C130 1.399 . S
C126 C122 1.404 1_566 S
C126 H127 0.950 . S
C126 C128 1.375 . S
H127 C126 0.950 . S
C128 C126 1.375 . S
C128 C130 1.382 1_566 S
C128 H132 0.950 . S
H129 C124 0.949 . S
C130 C125 1.399 . S
C130 C128 1.382 1_544 S
C130 H131 0.952 1_545 S
H131 C130 0.952 1_565 S
H132 C128 0.950 . S
H133 C134 0.949 . S
C134 H133 0.949 . S
C134 C135 1.395 . S
C134 C136 1.391 1_554 S
C135 C134 1.395 . S
C135 C138 1.390 1_554 S
C136 C134 1.391 1_556 S
C136 C140 1.387 . S
C136 C141 1.491 1_556 S
H137 C138 0.950 . S
C138 C135 1.390 1_556 S
C138 H137 0.950 . S
C138 C139 1.378 . S
C139 C138 1.378 . S
C139 C140 1.409 . S
C140 C136 1.387 . S
C140 C139 1.409 . S
C140 H142 0.951 . S
C141 C136 1.491 1_554 S
C141 C143 1.382 . S
C141 C145 1.404 1_554 S
H142 C140 0.951 . S
C143 C141 1.382 . S
C143 C144 1.390 . S
C143 H148 0.949 . S
C144 C143 1.390 . S
C144 C149 1.399 . S
C145 C141 1.404 1_556 S
C145 H146 0.950 . S
C145 C147 1.375 . S
H146 C145 0.950 . S
C147 C145 1.375 . S
C147 C149 1.382 1_556 S
C147 H151 0.950 . S
H148 C143 0.949 . S
C149 C144 1.399 . S
C149 C147 1.382 1_554 S
C149 H150 0.952 . S
H150 C149 0.952 . S
H151 C147 0.950 . S
Eu152 N181 2.600 . S
Eu152 N187 2.562 . S
Eu152 O196 2.456 1_655 S
Eu152 O197 2.373 1_545 S
Eu152 O199 2.432 . S
Eu152 O200 2.291 1_655 S
Eu152 O204 2.335 1_655 S
Eu152 O207 2.372 . S
Eu152 C216 2.787 . S
C153 N154 1.365 1_554 S
C153 C156 1.405 . S
C153 C160 1.448 . S
N154 C153 1.365 1_556 S
N154 C157 1.319 . S
N154 Eu163 2.600 1_545 S
C155 C157 1.397 . S
C155 C158 1.367 . S
C155 H175 0.931 . S
C156 C153 1.405 . S
C156 C158 1.403 1_554 S
C156 C162 1.439 . S
C157 N154 1.319 . S
C157 C155 1.397 . S
C157 H168 0.930 1_545 S
C158 C155 1.367 . S
C158 C156 1.403 1_556 S
C158 H179 0.929 1_556 S
C159 C160 1.430 . S
C159 C161 1.387 . S
C159 C165 1.404 . S
C160 C153 1.448 . S
C160 C159 1.430 . S
C160 N164 1.351 . S
C161 C159 1.387 . S
C161 C162 1.374 . S
C161 H176 0.931 . S
C162 C156 1.439 . S
C162 C161 1.374 . S
C162 H177 0.931 . S
Eu163 N154 2.600 1_565 S
Eu163 N164 2.562 1_566 S
Eu163 O198 2.335 . S
Eu163 O201 2.372 . S
Eu163 O202 2.462 . S
Eu163 O203 2.373 1_565 S
Eu163 O205 2.432 . S
Eu163 O206 2.291 1_465 S
Eu163 C227 2.787 . S
N164 C160 1.351 . S
N164 Eu163 2.562 1_544 S
N164 C166 1.325 . S
C165 C159 1.404 . S
C165 C167 1.366 . S
C165 H173 0.930 . S
C166 N164 1.325 . S
C166 C167 1.416 . S
C166 H172 0.929 1_455 S
C167 C165 1.366 . S
C167 C166 1.416 . S
C167 H169 0.930 1_455 S
H168 C157 0.930 1_565 S
H169 C167 0.930 1_655 S
H170 C185 0.930 . S
H171 C192 0.930 . S
H172 C166 0.929 1_655 S
H173 C165 0.930 . S
H174 C188 0.929 . S
H175 C155 0.931 . S
H176 C161 0.931 . S
H177 C162 0.931 . S
H178 C183 0.931 . S
H179 C158 0.929 1_554 S
H180 C191 0.930 . S
N181 Eu152 2.600 . S
N181 C182 1.365 1_545 S
N181 C185 1.319 . S
C182 N181 1.365 1_565 S
C182 C184 1.405 . S
C182 C190 1.448 . S
C183 H178 0.931 . S
C183 C185 1.397 . S
C183 C186 1.367 1_545 S
C184 C182 1.405 . S
C184 C186 1.403 . S
C184 C217 1.439 . S
C185 H170 0.930 . S
C185 N181 1.319 . S
C185 C183 1.397 . S
C186 C183 1.367 1_565 S
C186 C184 1.403 . S
C186 H193 0.929 . S
N187 Eu152 2.562 . S
N187 C188 1.325 1_655 S
N187 C190 1.351 1_545 S
C188 H174 0.929 . S
C188 N187 1.325 1_455 S
C188 C192 1.416 1_545 S
C189 C190 1.430 . S
C189 C191 1.404 . S
C189 C218 1.387 . S
C190 C182 1.448 . S
C190 N187 1.351 1_565 S
C190 C189 1.430 . S
C191 H180 0.930 . S
C191 C189 1.404 . S
C191 C192 1.366 1_655 S
C192 H171 0.930 . S
C192 C188 1.416 1_565 S
C192 C191 1.366 1_455 S
H193 C186 0.929 . S
H194 C217 0.931 . S
H195 C218 0.931 . S
O196 Eu152 2.456 1_455 S
O196 C216 1.238 1_455 S
O197 Eu152 2.373 1_565 S
O197 C208 1.249 . S
O198 Eu163 2.335 . S
O198 C208 1.264 1_455 S
O199 Eu152 2.432 . S
O199 C216 1.268 . S
O200 Eu152 2.291 1_455 S
O200 C215 1.255 . S
O201 Eu163 2.372 . S
O201 C215 1.257 1_565 S
O202 Eu163 2.462 . S
O202 C227 1.252 . S
O203 Eu163 2.373 1_545 S
O203 C219 1.249 . S
O204 Eu152 2.335 1_455 S
O204 C219 1.264 . S
O205 Eu163 2.432 . S
O205 C227 1.268 . S
O206 Eu163 2.291 1_645 S
O206 C226 1.255 . S
O207 Eu152 2.372 . S
O207 C226 1.257 . S
C208 O197 1.249 . S
C208 O198 1.264 1_655 S
C209 C212 1.382 . S
C209 C214 1.390 . S
C209 C216 1.506 . S
C210 C211 1.398 . S
C210 C214 1.392 . S
C211 C210 1.398 . S
C211 C213 1.372 . S
C211 H228 0.931 . S
C212 C209 1.382 . S
C212 C213 1.390 . S
C212 H229 0.931 . S
C213 C211 1.372 . S
C213 C212 1.390 . S
C213 H230 0.929 . S
C214 C209 1.390 . S
C214 C210 1.392 . S
C214 H231 0.930 1_655 S
C215 O200 1.255 . S
C215 O201 1.257 1_545 S
C216 Eu152 2.787 . S
C216 O196 1.238 1_655 S
C216 O199 1.268 . S
C216 C209 1.506 . S
C217 C184 1.439 . S
C217 H194 0.931 . S
C217 C218 1.374 . S
C218 C189 1.387 . S
C218 H195 0.931 . S
C218 C217 1.374 . S
C219 O203 1.249 . S
C219 O204 1.264 . S
C220 C223 1.382 . S
C220 C224 1.390 . S
C220 C227 1.506 1_554 S
C221 C222 1.398 . S
C221 C224 1.392 . S
C222 C221 1.398 . S
C222 C225 1.372 . S
C222 H232 0.931 . S
C223 C220 1.382 . S
C223 C225 1.390 . S
C223 H233 0.931 1_554 S
C224 C220 1.390 . S
C224 C221 1.392 . S
C224 H234 0.930 . S
C225 C222 1.372 . S
C225 C223 1.390 . S
C225 H235 0.929 . S
C226 O206 1.255 . S
C226 O207 1.257 . S
C227 Eu163 2.787 . S
C227 O202 1.252 . S
C227 O205 1.268 . S
C227 C220 1.506 1_556 S
H228 C211 0.931 . S
H229 C212 0.931 . S
H230 C213 0.929 . S
H231 C214 0.930 1_455 S
H232 C222 0.931 . S
H233 C223 0.931 1_556 S
H234 C224 0.930 . S
H235 C225 0.929 . S
Eu236 N265 2.600 . S
Eu236 N271 2.562 . S
Eu236 O280 2.462 . S
Eu236 O281 2.373 . S
Eu236 O283 2.432 1_556 S
Eu236 O284 2.291 . S
Eu236 O288 2.335 1_545 S
Eu236 O291 2.372 . S
Eu236 C300 2.787 1_556 S
C237 N238 1.365 . S
C237 C240 1.405 . S
C237 C244 1.448 . S
N238 C237 1.365 . S
N238 C241 1.319 . S
N238 Eu247 2.600 . S
C239 C241 1.397 . S
C239 C242 1.367 . S
C239 H259 0.931 . S
C240 C237 1.405 . S
C240 C242 1.403 . S
C240 C246 1.439 . S
C241 N238 1.319 . S
C241 C239 1.397 . S
C241 H252 0.930 . S
C242 C239 1.367 . S
C242 C240 1.403 . S
C242 H263 0.929 . S
C243 C244 1.430 . S
C243 C245 1.387 . S
C243 C249 1.404 . S
C244 C237 1.448 . S
C244 C243 1.430 . S
C244 N248 1.351 . S
C245 C243 1.387 . S
C245 C246 1.374 . S
C245 H260 0.931 . S
C246 C240 1.439 . S
C246 C245 1.374 . S
C246 H261 0.931 . S
Eu247 N238 2.600 . S
Eu247 N248 2.562 . S
Eu247 O282 2.335 1_565 S
Eu247 O285 2.372 . S
Eu247 O286 2.462 . S
Eu247 O287 2.373 . S
Eu247 O289 2.432 . S
Eu247 O290 2.287 1_565 S
Eu247 C311 2.787 . S
N248 C244 1.351 . S
N248 Eu247 2.562 . S
N248 C250 1.325 . S
C249 C243 1.404 . S
C249 C251 1.366 . S
C249 H257 0.930 . S
C250 N248 1.325 . S
C250 C251 1.416 . S
C250 H256 0.929 . S
C251 C249 1.366 . S
C251 C250 1.416 . S
C251 H253 0.930 . S
H252 C241 0.930 . S
H253 C251 0.930 . S
H254 C269 0.930 1_554 S
H255 C276 0.930 . S
H256 C250 0.929 . S
H257 C249 0.930 . S
H258 C272 0.929 . S
H259 C239 0.931 . S
H260 C245 0.931 . S
H261 C246 0.931 . S
H262 C267 0.931 . S
H263 C242 0.929 . S
H264 C275 0.930 . S
N265 Eu236 2.600 . S
N265 C266 1.365 . S
N265 C269 1.319 . S
C266 N265 1.365 . S
C266 C268 1.405 . S
C266 C274 1.448 . S
C267 H262 0.931 . S
C267 C269 1.397 1_554 S
C267 C270 1.367 . S
C268 C266 1.405 . S
C268 C270 1.403 1_556 S
C268 C301 1.439 . S
C269 H254 0.930 1_556 S
C269 N265 1.319 . S
C269 C267 1.397 1_556 S
C270 C267 1.367 . S
C270 C268 1.403 1_554 S
C270 H277 0.929 . S
N271 Eu236 2.562 . S
N271 C272 1.325 . S
N271 C274 1.351 . S
C272 H258 0.929 . S
C272 N271 1.325 . S
C272 C276 1.416 . S
C273 C274 1.430 . S
C273 C275 1.404 . S
C273 C302 1.387 . S
C274 C266 1.448 . S
C274 N271 1.351 . S
C274 C273 1.430 . S
C275 H264 0.930 . S
C275 C273 1.404 . S
C275 C276 1.366 . S
C276 H255 0.930 . S
C276 C272 1.416 . S
C276 C275 1.366 . S
H277 C270 0.929 . S
H278 C301 0.931 . S
H279 C302 0.931 . S
O280 Eu236 2.462 . S
O280 C300 1.252 1_556 S
O281 Eu236 2.373 . S
O281 C292 1.249 . S
O282 Eu247 2.335 1_545 S
O282 C292 1.264 . S
O283 Eu236 2.432 1_554 S
O283 C300 1.268 . S
O284 Eu236 2.291 . S
O284 C299 1.236 1_545 S
O285 Eu247 2.372 . S
O285 C299 1.270 . S
O286 Eu247 2.462 . S
O286 C311 1.252 . S
O287 Eu247 2.373 . S
O287 C303 1.249 . S
O288 Eu236 2.335 1_565 S
O288 C303 1.264 . S
O289 Eu247 2.432 . S
O289 C311 1.268 . S
O290 Eu247 2.287 1_545 S
O290 C310 1.262 . S
O291 Eu236 2.372 . S
O291 C310 1.257 . S
C292 O281 1.249 . S
C292 O282 1.264 . S
C293 C296 1.382 . S
C293 C298 1.390 . S
C293 C300 1.506 . S
C294 C295 1.398 . S
C294 C298 1.392 . S
C295 C294 1.398 . S
C295 C297 1.372 . S
C295 H312 0.931 . S
C296 C293 1.382 . S
C296 C297 1.390 . S
C296 H313 0.931 . S
C297 C295 1.372 . S
C297 C296 1.390 . S
C297 H314 0.929 . S
C298 C293 1.390 . S
C298 C294 1.392 . S
C298 H315 0.930 . S
C299 O284 1.236 1_565 S
C299 O285 1.270 . S
C300 Eu236 2.787 1_554 S
C300 O280 1.252 1_554 S
C300 O283 1.268 . S
C300 C293 1.506 . S
C301 C268 1.439 . S
C301 H278 0.931 . S
C301 C302 1.374 . S
C302 C273 1.387 . S
C302 H279 0.931 . S
C302 C301 1.374 . S
C303 O287 1.249 . S
C303 O288 1.264 . S
C304 C307 1.382 . S
C304 C308 1.391 . S
C304 C311 1.506 . S
C305 C306 1.391 1_545 S
C305 C308 1.391 1_545 S
C306 C305 1.391 1_565 S
C306 C309 1.372 . S
C306 H316 0.931 . S
C307 C304 1.382 . S
C307 C309 1.390 . S
C307 H317 0.931 . S
C308 C304 1.391 . S
C308 C305 1.391 1_565 S
C308 H318 0.929 1_565 S
C309 C306 1.372 . S
C309 C307 1.390 . S
C309 H319 0.929 . S
C310 O290 1.262 . S
C310 O291 1.257 . S
C311 Eu247 2.787 . S
C311 O286 1.252 . S
C311 O289 1.268 . S
C311 C304 1.506 . S
H312 C295 0.931 . S
H313 C296 0.931 . S
H314 C297 0.929 . S
H315 C298 0.930 . S
H316 C306 0.931 . S
H317 C307 0.931 . S
H318 C308 0.929 1_545 S
H319 C309 0.929 . S
Eu320 N349 2.600 . S
Eu320 N355 2.562 . S
Eu320 O364 2.462 . S
Eu320 O365 2.373 . S
Eu320 O367 2.432 . S
Eu320 O368 2.291 . S
Eu320 O372 2.335 . S
Eu320 O375 2.372 . S
Eu320 C384 2.787 . S
C321 N322 1.365 1_554 S
C321 C324 1.405 . S
C321 C328 1.448 . S
N322 C321 1.365 1_556 S
N322 C325 1.319 . S
N322 Eu331 2.600 . S
C323 C325 1.397 . S
C323 C326 1.367 . S
C323 H343 0.931 . S
C324 C321 1.405 . S
C324 C326 1.403 1_554 S
C324 C330 1.439 . S
C325 N322 1.319 . S
C325 C323 1.397 . S
C325 H336 0.930 . S
C326 C323 1.367 . S
C326 C324 1.403 1_556 S
C326 H347 0.929 1_556 S
C327 C328 1.430 . S
C327 C329 1.387 . S
C327 C333 1.404 . S
C328 C321 1.448 . S
C328 C327 1.430 . S
C328 N332 1.351 . S
C329 C327 1.387 . S
C329 C330 1.374 . S
C329 H344 0.931 . S
C330 C324 1.439 . S
C330 C329 1.374 . S
C330 H345 0.931 . S
Eu331 N322 2.600 . S
Eu331 N332 2.562 1_556 S
Eu331 O366 2.335 . S
Eu331 O369 2.372 . S
Eu331 O370 2.462 . S
Eu331 O371 2.373 . S
Eu331 O373 2.432 . S
Eu331 O374 2.291 . S
Eu331 C395 2.787 . S
N332 C328 1.351 . S
N332 Eu331 2.562 1_554 S
N332 C334 1.325 . S
C333 C327 1.404 . S
C333 C335 1.366 . S
C333 H341 0.930 . S
C334 N332 1.325 . S
C334 C335 1.416 . S
C334 H340 0.929 . S
C335 C333 1.366 . S
C335 C334 1.416 . S
C335 H337 0.930 . S
H336 C325 0.930 . S
H337 C335 0.930 . S
H338 C353 0.930 . S
H339 C360 0.930 . S
H340 C334 0.929 . S
H341 C333 0.930 . S
H342 C356 0.929 . S
H343 C323 0.931 . S
H344 C329 0.931 . S
H345 C330 0.931 . S
H346 C351 0.931 . S
H347 C326 0.929 1_554 S
H348 C359 0.930 . S
N349 Eu320 2.600 . S
N349 C350 1.365 . S
N349 C353 1.319 . S
C350 N349 1.365 . S
C350 C352 1.405 . S
C350 C358 1.448 . S
C351 H346 0.931 . S
C351 C353 1.397 . S
C351 C354 1.367 . S
C352 C350 1.405 . S
C352 C354 1.403 . S
C352 C385 1.439 . S
C353 H338 0.930 . S
C353 N349 1.319 . S
C353 C351 1.397 . S
C354 C351 1.367 . S
C354 C352 1.403 . S
C354 H361 0.929 . S
N355 Eu320 2.562 . S
N355 C356 1.325 . S
N355 C358 1.351 . S
C356 H342 0.929 . S
C356 N355 1.325 . S
C356 C360 1.416 . S
C357 C358 1.430 . S
C357 C359 1.404 . S
C357 C386 1.387 . S
C358 C350 1.448 . S
C358 N355 1.351 . S
C358 C357 1.430 . S
C359 H348 0.930 . S
C359 C357 1.404 . S
C359 C360 1.366 . S
C360 H339 0.930 . S
C360 C356 1.416 . S
C360 C359 1.366 . S
H361 C354 0.929 . S
H362 C385 0.931 . S
H363 C386 0.931 . S
O364 Eu320 2.462 . S
O364 C384 1.252 . S
O365 Eu320 2.373 . S
O365 C376 1.249 . S
O366 Eu331 2.335 . S
O366 C376 1.264 . S
O367 Eu320 2.432 . S
O367 C384 1.268 . S
O368 Eu320 2.291 . S
O368 C383 1.255 . S
O369 Eu331 2.372 . S
O369 C383 1.257 . S
O370 Eu331 2.462 . S
O370 C395 1.252 . S
O371 Eu331 2.373 . S
O371 C387 1.249 . S
O372 Eu320 2.335 . S
O372 C387 1.264 . S
O373 Eu331 2.432 . S
O373 C395 1.268 . S
O374 Eu331 2.291 . S
O374 C394 1.255 . S
O375 Eu320 2.372 . S
O375 C394 1.257 . S
C376 O365 1.249 . S
C376 O366 1.264 . S
C377 C380 1.382 . S
C377 C382 1.390 . S
C377 C384 1.506 . S
C378 C379 1.398 . S
C378 C382 1.392 . S
C379 C378 1.398 . S
C379 C381 1.372 . S
C379 H396 0.931 . S
C380 C377 1.382 . S
C380 C381 1.390 . S
C380 H397 0.931 . S
C381 C379 1.372 . S
C381 C380 1.390 . S
C381 H398 0.929 . S
C382 C377 1.390 . S
C382 C378 1.392 . S
C382 H399 0.930 . S
C383 O368 1.255 . S
C383 O369 1.257 . S
C384 Eu320 2.787 . S
C384 O364 1.252 . S
C384 O367 1.268 . S
C384 C377 1.506 . S
C385 C352 1.439 . S
C385 H362 0.931 . S
C385 C386 1.374 . S
C386 C357 1.387 . S
C386 H363 0.931 . S
C386 C385 1.374 . S
C387 O371 1.249 . S
C387 O372 1.264 . S
C388 C391 1.382 . S
C388 C392 1.390 . S
C388 C395 1.506 1_554 S
C389 C390 1.398 . S
C389 C392 1.392 . S
C390 C389 1.398 . S
C390 C393 1.372 . S
C390 H400 0.931 . S
C391 C388 1.382 . S
C391 C393 1.390 . S
C391 H401 0.931 1_554 S
C392 C388 1.390 . S
C392 C389 1.392 . S
C392 H402 0.930 . S
C393 C390 1.372 . S
C393 C391 1.390 . S
C393 H403 0.929 . S
C394 O374 1.255 . S
C394 O375 1.257 . S
C395 Eu331 2.787 . S
C395 O370 1.252 . S
C395 O373 1.268 . S
C395 C388 1.506 1_556 S
H396 C379 0.931 . S
H397 C380 0.931 . S
H398 C381 0.929 . S
H399 C382 0.930 . S
H400 C390 0.931 . S
H401 C391 0.931 1_556 S
H402 C392 0.930 . S
H403 C393 0.929 . S
Eu404 N433 2.600 . S
Eu404 N439 2.562 . S
Eu404 O448 2.462 . S
Eu404 O449 2.373 1_455 S
Eu404 O451 2.432 . S
Eu404 O452 2.291 . S
Eu404 O456 2.335 . S
Eu404 O459 2.372 . S
Eu404 C468 2.787 . S
C405 N406 1.365 1_554 S
C405 C408 1.405 . S
C405 C412 1.448 . S
N406 C405 1.365 1_556 S
N406 C409 1.322 . S
N406 Eu415 2.600 1_455 S
C407 C409 1.407 . S
C407 C410 1.367 . S
C407 H427 0.931 . S
C408 C405 1.405 . S
C408 C410 1.403 1_554 S
C408 C414 1.439 . S
C409 N406 1.322 . S
C409 C407 1.407 . S
C409 H420 0.916 1_455 S
C410 C407 1.367 . S
C410 C408 1.403 1_556 S
C410 H431 0.929 1_556 S
C411 C412 1.430 . S
C411 C413 1.387 . S
C411 C417 1.404 . S
C412 C405 1.448 . S
C412 C411 1.430 . S
C412 N416 1.351 . S
C413 C411 1.387 . S
C413 C414 1.374 . S
C413 H428 0.931 . S
C414 C408 1.439 . S
C414 C413 1.374 . S
C414 H429 0.931 . S
Eu415 N406 2.600 1_655 S
Eu415 N416 2.562 1_656 S
Eu415 O450 2.335 . S
Eu415 O453 2.372 . S
Eu415 O454 2.462 . S
Eu415 O455 2.373 1_655 S
Eu415 O457 2.432 . S
Eu415 O458 2.291 1_655 S
Eu415 C479 2.787 . S
N416 C412 1.351 . S
N416 Eu415 2.562 1_454 S
N416 C418 1.325 . S
C417 C411 1.404 . S
C417 C419 1.366 . S
C417 H425 0.930 . S
C418 N416 1.325 . S
C418 C419 1.416 . S
C418 H424 0.929 . S
C419 C417 1.366 . S
C419 C418 1.416 . S
C419 H421 0.930 . S
H420 C409 0.916 1_655 S
H421 C419 0.930 . S
H422 C437 0.930 . S
H423 C444 0.930 . S
H424 C418 0.929 . S
H425 C417 0.930 . S
H426 C440 0.929 . S
H427 C407 0.931 . S
H428 C413 0.931 . S
H429 C414 0.931 . S
H430 C435 0.931 . S
H431 C410 0.929 1_554 S
H432 C443 0.930 . S
N433 Eu404 2.600 . S
N433 C434 1.365 1_455 S
N433 C437 1.319 . S
C434 N433 1.365 1_655 S
C434 C436 1.405 . S
C434 C442 1.448 . S
C435 H430 0.931 . S
C435 C437 1.397 . S
C435 C438 1.367 1_455 S
C436 C434 1.405 . S
C436 C438 1.403 . S
C436 C469 1.439 . S
C437 H422 0.930 . S
C437 N433 1.319 . S
C437 C435 1.397 . S
C438 C435 1.367 1_655 S
C438 C436 1.403 . S
C438 H445 0.929 . S
N439 Eu404 2.562 . S
N439 C440 1.325 . S
N439 C442 1.351 1_455 S
C440 H426 0.929 . S
C440 N439 1.325 . S
C440 C444 1.416 1_455 S
C441 C442 1.430 . S
C441 C443 1.404 . S
C441 C470 1.387 . S
C442 C434 1.448 . S
C442 N439 1.351 1_655 S
C442 C441 1.430 . S
C443 H432 0.930 . S
C443 C441 1.404 . S
C443 C444 1.366 . S
C444 H423 0.930 . S
C444 C440 1.416 1_655 S
C444 C443 1.366 . S
H445 C438 0.929 . S
H446 C469 0.931 . S
H447 C470 0.931 . S
O448 Eu404 2.462 . S
O448 C468 1.252 . S
O449 Eu404 2.373 1_655 S
O449 C460 1.249 . S
O450 Eu415 2.335 . S
O450 C460 1.264 . S
O451 Eu404 2.432 . S
O451 C468 1.268 . S
O452 Eu404 2.291 . S
O452 C467 1.255 . S
O453 Eu415 2.372 . S
O453 C467 1.257 1_655 S
O454 Eu415 2.462 . S
O454 C479 1.252 . S
O455 Eu415 2.373 1_455 S
O455 C471 1.249 . S
O456 Eu404 2.335 . S
O456 C471 1.264 . S
O457 Eu415 2.432 . S
O457 C479 1.268 . S
O458 Eu415 2.291 1_455 S
O458 C478 1.255 . S
O459 Eu404 2.372 . S
O459 C478 1.257 . S
C460 O449 1.249 . S
C460 O450 1.264 . S
C461 C464 1.382 . S
C461 C466 1.390 . S
C461 C468 1.506 . S
C462 C463 1.398 . S
C462 C466 1.392 . S
C463 C462 1.398 . S
C463 C465 1.372 . S
C463 H480 0.931 . S
C464 C461 1.382 . S
C464 C465 1.390 . S
C464 H481 0.931 . S
C465 C463 1.372 . S
C465 C464 1.390 . S
C465 H482 0.929 . S
C466 C461 1.390 . S
C466 C462 1.392 . S
C466 H483 0.930 . S
C467 O452 1.255 . S
C467 O453 1.257 1_455 S
C468 Eu404 2.787 . S
C468 O448 1.252 . S
C468 O451 1.268 . S
C468 C461 1.506 . S
C469 C436 1.439 . S
C469 H446 0.931 . S
C469 C470 1.374 . S
C470 C441 1.387 . S
C470 H447 0.931 . S
C470 C469 1.374 . S
C471 O455 1.249 . S
C471 O456 1.264 . S
C472 C475 1.382 . S
C472 C476 1.390 . S
C472 C479 1.506 1_554 S
C473 C474 1.398 . S
C473 C476 1.392 . S
C474 C473 1.398 . S
C474 C477 1.372 . S
C474 H484 0.931 . S
C475 C472 1.382 . S
C475 C477 1.390 . S
C475 H485 0.931 1_554 S
C476 C472 1.390 . S
C476 C473 1.392 . S
C476 H486 0.930 . S
C477 C474 1.372 . S
C477 C475 1.390 . S
C477 H487 0.929 . S
C478 O458 1.255 . S
C478 O459 1.257 . S
C479 Eu415 2.787 . S
C479 O454 1.252 . S
C479 O457 1.268 . S
C479 C472 1.506 1_556 S
H480 C463 0.931 . S
H481 C464 0.931 . S
H482 C465 0.929 . S
H483 C466 0.930 . S
H484 C474 0.931 . S
H485 C475 0.931 1_556 S
H486 C476 0.930 . S
H487 C477 0.929 . S
C488 C489 1.369 . S
C488 C490 1.419 . S
C488 H492 0.930 . S
C489 C488 1.369 . S
C489 C498 1.429 . S
C490 C488 1.419 . S
C490 C491 1.363 . S
C490 H493 0.929 . S
C491 C490 1.363 . S
C491 C497 1.423 1_545 S
H492 C488 0.930 . S
H493 C490 0.929 . S
S494 N495 1.613 . S
S494 N496 1.610 . S
N495 S494 1.613 . S
N495 C498 1.350 1_565 S
N496 S494 1.610 . S
N496 C497 1.357 . S
C497 C491 1.423 1_565 S
C497 N496 1.357 . S
C497 C498 1.433 1_565 S
C498 C489 1.429 . S
C498 N495 1.350 1_545 S
C498 C497 1.433 1_545 S
C499 C500 1.369 . S
C499 C501 1.419 . S
C499 H503 0.930 . S
C500 C499 1.369 . S
C500 C509 1.429 . S
C501 C499 1.419 . S
C501 C502 1.363 . S
C501 H504 0.929 . S
C502 C501 1.363 . S
C502 C508 1.428 . S
H503 C499 0.930 . S
H504 C501 0.929 . S
S505 N506 1.613 . S
S505 N507 1.610 . S
N506 S505 1.613 . S
N506 C509 1.350 . S
N507 S505 1.610 . S
N507 C508 1.351 . S
C508 C502 1.428 . S
C508 N507 1.351 . S
C508 C509 1.434 . S
C509 C500 1.429 . S
C509 N506 1.350 . S
C509 C508 1.434 . S
C510 C511 1.369 . S
C510 C512 1.419 . S
C510 H514 0.930 . S
C511 C510 1.369 . S
C511 C520 1.429 . S
C512 C510 1.419 . S
C512 C513 1.363 . S
C512 H515 0.929 . S
C513 C512 1.363 . S
C513 C519 1.428 . S
H514 C510 0.930 . S
H515 C512 0.929 . S
S516 N517 1.613 . S
S516 N518 1.610 . S
N517 S516 1.613 . S
N517 C520 1.350 . S
N518 S516 1.610 . S
N518 C519 1.351 . S
C519 C513 1.428 . S
C519 N518 1.351 . S
C519 C520 1.434 . S
C520 C511 1.429 . S
C520 N517 1.350 . S
C520 C519 1.434 . S
C521 C522 1.369 . S
C521 C523 1.419 1_455 S
C521 H525 0.930 1_455 S
C522 C521 1.369 . S
C522 C531 1.429 . S
C523 C521 1.419 1_655 S
C523 C524 1.363 1_655 S
C523 H526 0.929 . S
C524 C523 1.363 1_455 S
C524 C530 1.428 . S
H525 C521 0.930 1_655 S
H526 C523 0.929 . S
S527 N528 1.613 . S
S527 N529 1.610 . S
N528 S527 1.613 . S
N528 C531 1.350 . S
N529 S527 1.610 . S
N529 C530 1.351 . S
C530 C524 1.428 . S
C530 N529 1.351 . S
C530 C531 1.434 . S
C531 C522 1.429 . S
C531 N528 1.350 . S
C531 C530 1.434 . S
C532 C533 1.369 . S
C532 C534 1.419 . S
C532 H536 0.930 . S
C533 C532 1.369 . S
C533 C542 1.429 1_565 S
C534 C532 1.419 . S
C534 C535 1.363 1_554 S
C534 H537 0.929 1_554 S
C535 C534 1.363 1_556 S
C535 C541 1.428 1_566 S
H536 C532 0.930 . S
H537 C534 0.929 1_556 S
S538 N539 1.613 . S
S538 N540 1.610 1_554 S
N539 S538 1.613 . S
N539 C542 1.350 . S
N540 S538 1.610 1_556 S
N540 C541 1.351 1_556 S
C541 C535 1.428 1_544 S
C541 N540 1.351 1_554 S
C541 C542 1.434 . S
C542 C533 1.429 1_545 S
C542 N539 1.350 . S
C542 C541 1.434 . S
C543 C544 1.369 . S
C543 C545 1.422 . S
C543 H547 0.930 . S
C544 C543 1.369 . S
C544 C553 1.429 . S
C545 C543 1.422 . S
C545 C546 1.363 1_554 S
C545 H548 0.926 1_554 S
C546 C545 1.363 1_556 S
C546 C552 1.428 1_556 S
H547 C543 0.930 . S
H548 C545 0.926 1_556 S
S549 N550 1.613 . S
S549 N551 1.610 . S
N550 S549 1.613 . S
N550 C553 1.350 . S
N551 S549 1.610 . S
N551 C552 1.351 . S
C552 C546 1.428 1_554 S
C552 N551 1.351 . S
C552 C553 1.434 . S
C553 C544 1.429 . S
C553 N550 1.350 . S
C553 C552 1.434 . S
C554 C555 1.369 . S
C554 C556 1.419 . S
C554 H558 0.930 . S
C555 C554 1.369 . S
C555 C564 1.429 . S
C556 C554 1.419 . S
C556 C557 1.363 1_554 S
C556 H559 0.929 . S
C557 C556 1.363 1_556 S
C557 C563 1.428 . S
H558 C554 0.930 . S
H559 C556 0.929 . S
S560 N561 1.613 1_556 S
S560 N562 1.610 . S
N561 S560 1.613 1_554 S
N561 C564 1.350 . S
N562 S560 1.610 . S
N562 C563 1.351 . S
C563 C557 1.428 . S
C563 N562 1.351 . S
C563 C564 1.434 1_556 S
C564 C555 1.429 . S
C564 N561 1.350 . S
C564 C563 1.434 1_554 S
C565 C566 1.369 1_455 S
C565 C567 1.419 . S
C565 H569 0.930 . S
C566 C565 1.369 1_655 S
C566 C575 1.429 . S
C567 C565 1.419 . S
C567 C568 1.363 1_454 S
C567 H570 0.929 . S
C568 C567 1.363 1_656 S
C568 C574 1.428 1_556 S
H569 C565 0.930 . S
H570 C567 0.929 . S
S571 N572 1.613 . S
S571 N573 1.610 1_554 S
N572 S571 1.613 . S
N572 C575 1.350 . S
N573 S571 1.610 1_556 S
N573 C574 1.351 1_556 S
C574 C568 1.428 1_554 S
C574 N573 1.351 1_554 S
C574 C575 1.434 . S
C575 C566 1.429 . S
C575 N572 1.350 . S
C575 C574 1.434 . S
C576 C577 1.369 . S
C576 C578 1.419 . S
C576 H580 0.930 . S
C577 C576 1.369 . S
C577 C586 1.429 . S
C578 C576 1.419 . S
C578 C579 1.363 . S
C578 H581 0.929 1_455 S
C579 C578 1.363 . S
C579 C585 1.428 . S
H580 C576 0.930 . S
H581 C578 0.929 1_655 S
S582 N583 1.613 . S
S582 N584 1.610 . S
N583 S582 1.613 . S
N583 C586 1.350 . S
N584 S582 1.610 . S
N584 C585 1.351 . S
C585 C579 1.428 . S
C585 N584 1.351 . S
C585 C586 1.434 . S
C586 C577 1.429 . S
C586 N583 1.350 . S
C586 C585 1.434 . S
C587 C588 1.369 . S
C587 C589 1.419 . S
C587 H591 0.930 . S
C588 C587 1.369 . S
C588 C597 1.429 . S
C589 C587 1.419 . S
C589 C590 1.363 . S
C589 H592 0.929 . S
C590 C589 1.363 . S
C590 C596 1.428 . S
H591 C587 0.930 . S
H592 C589 0.929 . S
S593 N594 1.613 . S
S593 N595 1.610 . S
N594 S593 1.613 . S
N594 C597 1.350 . S
N595 S593 1.610 . S
N595 C596 1.351 . S
C596 C590 1.428 . S
C596 N595 1.351 . S
C596 C597 1.434 . S
C597 C588 1.429 . S
C597 N594 1.350 . S
C597 C596 1.434 . S
C598 C599 1.369 . S
C598 C600 1.419 . S
C598 H602 0.930 . S
C599 C598 1.369 . S
C599 C608 1.429 . S
C600 C598 1.419 . S
C600 C601 1.363 . S
C600 H603 0.929 . S
C601 C600 1.363 . S
C601 C607 1.428 . S
H602 C598 0.930 . S
H603 C600 0.929 . S
S604 N605 1.613 . S
S604 N606 1.610 1_556 S
N605 S604 1.613 . S
N605 C608 1.350 1_556 S
N606 S604 1.610 1_554 S
N606 C607 1.351 . S
C607 C601 1.428 . S
C607 N606 1.351 . S
C607 C608 1.434 . S
C608 C599 1.429 . S
C608 N605 1.350 1_554 S
C608 C607 1.434 . S
C609 C610 1.369 . S
C609 C611 1.419 . S
C609 H613 0.930 . S
C610 C609 1.369 . S
C610 C619 1.429 . S
C611 C609 1.419 . S
C611 C612 1.363 . S
C611 H614 0.929 . S
C612 C611 1.363 . S
C612 C618 1.428 . S
H613 C609 0.930 . S
H614 C611 0.929 . S
S615 N616 1.613 . S
S615 N617 1.610 . S
N616 S615 1.613 . S
N616 C619 1.350 . S
N617 S615 1.610 . S
N617 C618 1.351 . S
C618 C612 1.428 . S
C618 N617 1.351 . S
C618 C619 1.434 . S
C619 C610 1.429 . S
C619 N616 1.350 . S
C619 C618 1.434 . S
C620 C621 1.369 . S
C620 C622 1.419 . S
C620 H624 0.930 . S
C621 C620 1.369 . S
C621 C630 1.429 1_655 S
C622 C620 1.419 . S
C622 C623 1.363 1_655 S
C622 H625 0.929 . S
C623 C622 1.363 1_455 S
C623 C629 1.428 . S
H624 C620 0.930 . S
H625 C622 0.929 . S
S626 N627 1.613 . S
S626 N628 1.610 . S
N627 S626 1.613 . S
N627 C630 1.350 . S
N628 S626 1.610 . S
N628 C629 1.351 . S
C629 C623 1.428 . S
C629 N628 1.351 . S
C629 C630 1.434 . S
C630 C621 1.429 1_455 S
C630 N627 1.350 . S
C630 C629 1.434 . S
C631 C632 1.369 . S
C631 C633 1.419 . S
C631 H635 0.930 . S
C632 C631 1.369 . S
C632 C641 1.429 1_565 S
C633 C631 1.419 . S
C633 C634 1.363 1_565 S
C633 H636 0.929 . S
C634 C633 1.363 1_545 S
C634 C640 1.428 . S
H635 C631 0.930 . S
H636 C633 0.929 . S
S637 N638 1.613 . S
S637 N639 1.610 . S
N638 S637 1.613 . S
N638 C641 1.350 . S
N639 S637 1.610 . S
N639 C640 1.351 . S
C640 C634 1.428 . S
C640 N639 1.351 . S
C640 C641 1.434 . S
C641 C632 1.429 1_545 S
C641 N638 1.350 . S
C641 C640 1.434 . S
C642 C643 1.369 . S
C642 C644 1.419 . S
C642 H646 0.930 . S
C643 C642 1.369 . S
C643 C652 1.429 . S
C644 C642 1.419 . S
C644 C645 1.363 . S
C644 H647 0.929 . S
C645 C644 1.363 . S
C645 C651 1.428 . S
H646 C642 0.930 . S
H647 C644 0.929 . S
S648 N649 1.613 . S
S648 N650 1.610 . S
N649 S648 1.613 . S
N649 C652 1.350 . S
N650 S648 1.610 . S
N650 C651 1.351 . S
C651 C645 1.428 . S
C651 N650 1.351 . S
C651 C652 1.434 . S
C652 C643 1.429 . S
C652 N649 1.350 . S
C652 C651 1.434 . S
C653 C654 1.369 . S
C653 C655 1.419 . S
C653 H657 0.930 . S
C654 C653 1.369 . S
C654 C663 1.429 . S
C655 C653 1.419 . S
C655 C656 1.363 . S
C655 H658 0.929 . S
C656 C655 1.363 . S
C656 C662 1.428 . S
H657 C653 0.930 . S
H658 C655 0.929 . S
S659 N660 1.613 . S
S659 N661 1.610 . S
N660 S659 1.613 . S
N660 C663 1.350 . S
N661 S659 1.610 . S
N661 C662 1.351 . S
C662 C656 1.428 . S
C662 N661 1.351 . S
C662 C663 1.434 . S
C663 C654 1.429 . S
C663 N660 1.350 . S
C663 C662 1.434 . S
C664 C665 1.369 . S
C664 C666 1.419 . S
C664 H668 0.930 . S
C665 C664 1.369 . S
C665 C674 1.455 . S
C666 C664 1.419 . S
C666 C667 1.363 . S
C666 H669 0.929 . S
C667 C666 1.363 . S
C667 C673 1.428 1_455 S
H668 C664 0.930 . S
H669 C666 0.929 . S
S670 N671 1.613 . S
S670 N672 1.610 . S
N671 S670 1.613 . S
N671 C674 1.324 1_655 S
N672 S670 1.610 . S
N672 C673 1.351 . S
C673 C667 1.428 1_655 S
C673 N672 1.351 . S
C673 C674 1.432 1_655 S
C674 C665 1.455 . S
C674 N671 1.324 1_455 S
C674 C673 1.432 1_455 S
C675 C676 1.369 . S
C675 C677 1.419 . S
C675 H679 0.930 . S
C676 C675 1.369 . S
C676 C685 1.429 . S
C677 C675 1.419 . S
C677 C678 1.363 . S
C677 H680 0.929 . S
C678 C677 1.363 . S
C678 C684 1.428 . S
H679 C675 0.930 . S
H680 C677 0.929 . S
S681 N682 1.613 1_565 S
S681 N683 1.610 1_565 S
N682 S681 1.613 1_545 S
N682 C685 1.350 1_554 S
N683 S681 1.610 1_545 S
N683 C684 1.351 1_554 S
C684 C678 1.428 . S
C684 N683 1.351 1_556 S
C684 C685 1.434 . S
C685 C676 1.429 . S
C685 N682 1.350 1_556 S
C685 C684 1.434 . S
C686 C687 1.369 . S
C686 C688 1.419 . S
C686 H690 0.930 . S
C687 C686 1.369 . S
C687 C696 1.429 . S
C688 C686 1.419 . S
C688 C689 1.363 . S
C688 H691 0.929 . S
C689 C688 1.363 . S
C689 C695 1.428 . S
H690 C686 0.930 . S
H691 C688 0.929 . S
S692 N693 1.613 1_554 S
S692 N694 1.610 1_554 S
N693 S692 1.613 1_556 S
N693 C696 1.350 . S
N694 S692 1.610 1_556 S
N694 C695 1.351 . S
C695 C689 1.428 . S
C695 N694 1.351 . S
C695 C696 1.434 . S
C696 C687 1.429 . S
C696 N693 1.350 . S
C696 C695 1.434 . S
C697 C698 1.369 . S
C697 C699 1.419 . S
C697 H701 0.930 . S
C698 C697 1.369 . S
C698 C707 1.429 . S
C699 C697 1.419 . S
C699 C700 1.363 . S
C699 H702 0.929 . S
C700 C699 1.363 . S
C700 C706 1.428 . S
H701 C697 0.930 . S
H702 C699 0.929 . S
S703 N704 1.613 . S
S703 N705 1.610 . S
N704 S703 1.613 . S
N704 C707 1.350 . S
N705 S703 1.610 . S
N705 C706 1.351 . S
C706 C700 1.428 . S
C706 N705 1.351 . S
C706 C707 1.434 . S
C707 C698 1.429 . S
C707 N704 1.350 . S
C707 C706 1.434 . S
C708 C709 1.369 . S
C708 C710 1.419 . S
C708 H712 0.930 . S
C709 C708 1.369 . S
C709 C718 1.429 . S
C710 C708 1.419 . S
C710 C711 1.363 . S
C710 H713 0.929 . S
C711 C710 1.363 . S
C711 C717 1.428 . S
H712 C708 0.930 . S
H713 C710 0.929 . S
S714 N715 1.616 . S
S714 N716 1.610 . S
N715 S714 1.616 . S
N715 C718 1.347 1_455 S
N716 S714 1.610 . S
N716 C717 1.351 1_455 S
C717 C711 1.428 . S
C717 N716 1.351 1_655 S
C717 C718 1.434 . S
C718 C709 1.429 . S
C718 N715 1.347 1_655 S
C718 C717 1.434 . S
C719 C720 1.359 1_545 S
C719 C721 1.420 . S
C719 H723 0.939 . S
C720 C719 1.359 1_565 S
C720 C729 1.429 . S
C721 C719 1.420 . S
C721 C722 1.363 1_545 S
C721 H724 0.929 . S
C722 C721 1.363 1_565 S
C722 C728 1.428 . S
H723 C719 0.939 . S
H724 C721 0.929 . S
S725 N726 1.613 . S
S725 N727 1.610 . S
N726 S725 1.613 . S
N726 C729 1.350 . S
N727 S725 1.610 . S
N727 C728 1.351 . S
C728 C722 1.428 . S
C728 N727 1.351 . S
C728 C729 1.434 . S
C729 C720 1.429 . S
C729 N726 1.350 . S
C729 C728 1.434 . S
C730 C731 1.369 . S
C730 C732 1.419 . S
C730 H734 0.930 . S
C731 C730 1.369 . S
C731 C740 1.429 . S
C732 C730 1.419 . S
C732 C733 1.363 . S
C732 H735 0.929 . S
C733 C732 1.363 . S
C733 C739 1.428 . S
H734 C730 0.930 . S
H735 C732 0.929 . S
S736 N737 1.613 . S
S736 N738 1.610 . S
N737 S736 1.613 . S
N737 C740 1.350 . S
N738 S736 1.610 . S
N738 C739 1.351 . S
C739 C733 1.428 . S
C739 N738 1.351 . S
C739 C740 1.434 . S
C740 C731 1.429 . S
C740 N737 1.350 . S
C740 C739 1.434 . S
C741 C742 1.369 . S
C741 C743 1.419 . S
C741 H745 0.930 . S
C742 C741 1.369 . S
C742 C751 1.429 . S
C743 C741 1.419 . S
C743 C744 1.363 . S
C743 H746 0.929 . S
C744 C743 1.363 . S
C744 C750 1.428 . S
H745 C741 0.930 . S
H746 C743 0.929 . S
S747 N748 1.613 . S
S747 N749 1.610 . S
N748 S747 1.613 . S
N748 C751 1.350 . S
N749 S747 1.610 . S
N749 C750 1.351 . S
C750 C744 1.428 . S
C750 N749 1.351 . S
C750 C751 1.434 . S
C751 C742 1.429 . S
C751 N748 1.350 . S
C751 C750 1.434 . S
C489 C125 2.101 . S
C491 C215 2.149 . S
C502 C292 2.153 . S
C500 C144 2.098 . S
C513 C383 2.151 . S
C511 C87 2.101 . S
C524 C467 2.142 . S
C522 C106 2.094 . S
C535 C226 2.151 1_565 S
C533 C49 2.162 . S
C544 C68 2.159 . S
C546 C303 2.152 . S
C555 C11 2.158 . S
C557 C394 2.153 . S
C566 C30 2.147 . S
C568 C478 2.141 1_655 S
C579 C210 0.789 1_455 S
C577 C97 0.798 . S
C590 C305 0.794 . S
C588 C116 0.787 . S
C601 C378 0.797 . S
C599 C135 0.781 . S
C610 C78 0.767 . S
C612 C462 0.781 . S
C621 C21 0.785 . S
C623 C221 0.783 . S
C634 C294 0.774 . S
C632 C40 0.766 . S
C645 C389 0.791 . S
C643 C59 0.779 . S
C654 C2 0.767 . S
C656 C473 0.770 . S
C665 C101 2.028 . S
C667 C219 2.259 . S
C676 C120 2.035 . S
C678 C310 2.319 . S
C689 C387 2.275 . S
C687 C139 2.036 . S
C700 C471 2.276 . S
C698 C82 2.048 . S
C709 C25 2.027 . S
C711 C208 2.260 . S
C722 C299 2.324 . S
C720 C44 2.046 . S
C733 C376 2.275 . S
C731 C63 2.038 . S
C742 C6 2.048 . S
C744 C460 2.276 . S
