# Generated by pormake.
# Topology tsx, (6,3)-cn, num edge types: 1
# Building blocks:
#     Node 0, Type 0, BuildingBlock: LEVNOQ01_clean_sbu_1, # of connection points: 6
#     Node 1, Type 0, BuildingBlock: LEVNOQ01_clean_sbu_1, # of connection points: 6
#     Node 2, Type 1, BuildingBlock: KAKCAD_clean_linker_0, # of connection points: 3
#     Node 3, Type 1, BuildingBlock: KAKCAD_clean_linker_0, # of connection points: 3
#     Node 4, Type 1, BuildingBlock: KAKCAD_clean_linker_0, # of connection points: 3
#     Node 5, Type 1, BuildingBlock: KAKCAD_clean_linker_0, # of connection points: 3
#     Edge 6, Type (0, 1), BuildingBlock: KIFKEQ_clean_linker_1, # of connection points: 2
#     Edge 7, Type (0, 1), BuildingBlock: KIFKEQ_clean_linker_1, # of connection points: 2
#     Edge 8, Type (0, 1), BuildingBlock: KIFKEQ_clean_linker_1, # of connection points: 2
#     Edge 9, Type (0, 1), BuildingBlock: KIFKEQ_clean_linker_1, # of connection points: 2
#     Edge 10, Type (0, 1), BuildingBlock: KIFKEQ_clean_linker_1, # of connection points: 2
#     Edge 11, Type (0, 1), BuildingBlock: KIFKEQ_clean_linker_1, # of connection points: 2
#     Edge 12, Type (0, 1), BuildingBlock: KIFKEQ_clean_linker_1, # of connection points: 2
#     Edge 13, Type (0, 1), BuildingBlock: KIFKEQ_clean_linker_1, # of connection points: 2
#     Edge 14, Type (0, 1), BuildingBlock: KIFKEQ_clean_linker_1, # of connection points: 2
#     Edge 15, Type (0, 1), BuildingBlock: KIFKEQ_clean_linker_1, # of connection points: 2
#     Edge 16, Type (0, 1), BuildingBlock: KIFKEQ_clean_linker_1, # of connection points: 2
#     Edge 17, Type (0, 1), BuildingBlock: KIFKEQ_clean_linker_1, # of connection points: 2
# Relax obj value: 0.130
# Max RMSD: 0.158
# Mean RMSD: 0.120
data_MOF--net-tsx--node1-LEVNOQ01_clean_sbu_1--node2-KAKCAD_clean_linker_0--edge1-KIFKEQ_clean_linker_1
_symmetry_space_group_name_H-M    P1
_symmetry_Int_Tables_number       1
_symmetry_cell_setting            triclinic
loop_
_symmetry_equiv_pos_as_xyz
'x, y, z'
_cell_length_a     22.833286
_cell_length_b     27.78247
_cell_length_c     45.791359
_cell_angle_alpha  97.696113
_cell_angle_beta   90.864291
_cell_angle_gamma 91.054769
loop_
_atom_site_label
_atom_site_type_symbol
_atom_site_fract_x
_atom_site_fract_y
_atom_site_fract_z
_atom_type_partial_charge
O0 O 0.13506 0.04028 0.08058 0.0
Mg1 Mg 0.17932 0.03882 0.04006 0.0
O2 O 0.04734 0.02086 0.06009 0.0
Mg3 Mg 0.05179 0.02045 0.00922 0.0
O4 O 0.12987 0.07396 0.0126 0.0
O5 O 0.21881 0.10052 0.02822 0.0
O6 O 0.05629 0.01997 0.95825 0.0
O7 O 0.00105 0.09489 0.01364 0.0
Mg8 Mg 0.93953 0.02077 0.99207 0.0
O9 O 0.97327 0.96177 0.00766 0.0
O10 O 0.96352 0.03439 0.94967 0.0
O11 O 0.91085 0.07714 0.02335 0.0
O12 O 0.8825 0.9648 0.9878 0.0
C13 C 0.16256 0.9392 0.00683 0.0
C14 C 0.08112 0.02969 0.0827 0.0
C15 C 0.17163 0.10627 0.01337 0.0
C16 C 0.01531 0.02869 0.94061 0.0
C17 C 0.95062 0.10873 0.02236 0.0
C18 C 0.92181 0.942 0.00067 0.0
O19 O 0.20046 0.9703 0.01818 0.0
O20 O 0.10874 0.94992 0.00391 0.0
O21 O 0.63509 0.5433 0.57891 0.0
Mg22 Mg 0.67497 0.54257 0.53813 0.0
O23 O 0.54979 0.51526 0.55913 0.0
Mg24 Mg 0.55066 0.52304 0.50816 0.0
O25 O 0.6276 0.5787 0.5107 0.0
O26 O 0.71728 0.60296 0.52738 0.0
O27 O 0.56141 0.53557 0.45626 0.0
O28 O 0.49288 0.59082 0.5197 0.0
Mg29 Mg 0.47528 0.50698 0.47554 0.0
O30 O 0.46827 0.46498 0.5084 0.0
O31 O 0.51141 0.47191 0.43721 0.0
O32 O 0.45079 0.58085 0.47628 0.0
O33 O 0.39727 0.47405 0.47533 0.0
C34 C 0.66216 0.4425 0.50496 0.0
C35 C 0.5841 0.52581 0.58154 0.0
C36 C 0.67092 0.60994 0.51216 0.0
C37 C 0.54517 0.50655 0.43344 0.0
C38 C 0.46066 0.60695 0.5006 0.0
C39 C 0.41685 0.45271 0.49658 0.0
O40 O 0.69761 0.47335 0.51875 0.0
O41 O 0.60951 0.45353 0.49902 0.0
C42 C 0.04366 0.94882 0.30732 0.0
C43 C 0.04739 -0.0065 0.2961 0.0
C44 C 0.04269 0.94749 0.33782 0.0
C45 C 0.04509 -0.00918 0.35762 0.0
C46 C 0.04983 0.0353 0.34631 0.0
C47 C 0.05066 0.03663 0.31602 0.0
C48 C 0.04067 -0.00957 0.38997 0.0
C49 C 0.07153 0.95701 0.40448 0.0
C50 C 0.06898 0.95864 0.43535 0.0
C51 C 0.03423 -0.00633 0.45161 0.0
C52 C 0.00349 0.02712 0.43728 0.0
C53 C 0.00657 0.02511 0.40665 0.0
C54 C 0.96922 0.0658 0.45382 0.0
C55 C 0.91789 0.05462 0.46823 0.0
C56 C 0.98404 0.11447 0.45193 0.0
C57 C 0.94675 0.15141 0.46299 0.0
C58 C 0.89348 0.14025 0.47572 0.0
C59 C 0.10498 0.92536 0.45063 0.0
C60 C 0.10876 0.87609 0.43908 0.0
C61 C 0.13785 0.9431 0.47616 0.0
C62 C 0.175 0.91251 0.48935 0.0
C63 C 0.17964 0.86346 0.47742 0.0
C64 C 0.14554 0.84544 0.45238 0.0
C65 C 0.87986 0.09167 0.47887 0.0
H66 H 0.04171 0.91492 0.29256 0.0
H67 H 0.03882 0.91265 0.34585 0.0
H68 H 0.05272 0.06934 0.36092 0.0
H69 H 0.05289 0.07172 0.3082 0.0
H70 H 0.09946 0.93108 0.39189 0.0
H71 H 0.98185 0.05076 0.39577 0.0
H72 H 0.03179 -0.00454 0.47535 0.0
H73 H 0.90575 0.01719 0.46981 0.0
H74 H 0.02346 0.12371 0.44083 0.0
H75 H 0.95812 0.18853 0.46018 0.0
H76 H 0.08364 0.86131 0.41956 0.0
H77 H 0.13625 0.98102 0.48544 0.0
H78 H 0.83922 0.08233 0.48887 0.0
H79 H 0.14868 0.80794 0.44247 0.0
H80 H 0.20054 0.92731 0.50871 0.0
C81 C 0.00579 0.11019 0.7155 0.0
C82 C 0.02208 0.06753 0.72658 0.0
C83 C 0.99645 0.11 0.68525 0.0
C84 C 0.00207 0.0669 0.66567 0.0
C85 C 0.01788 0.02419 0.67682 0.0
C86 C 0.02827 0.02459 0.707 0.0
C87 C 0.9941 0.06691 0.63352 0.0
C88 C 0.02429 0.10135 0.61948 0.0
C89 C 0.02099 0.09978 0.58876 0.0
C90 C 0.98579 0.06405 0.57198 0.0
C91 C 0.9543 0.02971 0.58578 0.0
C92 C 0.95899 0.03128 0.6166 0.0
C93 C 0.91868 -0.00916 0.568 0.0
C94 C 0.88143 0.00122 0.54496 0.0
C95 C 0.92206 0.94274 0.57401 0.0
C96 C 0.88901 0.90581 0.55748 0.0
C97 C 0.85159 0.91602 0.53454 0.0
C98 C 0.0575 0.13403 0.57453 0.0
C99 C 0.05741 0.18377 0.58517 0.0
C100 C 0.09663 0.11683 0.55231 0.0
C101 C 0.13686 0.14875 0.54184 0.0
C102 C 0.13777 0.19834 0.55314 0.0
C103 C 0.09696 0.21566 0.57447 0.0
C104 C 0.8478 0.96414 0.5285 0.0
H105 H 0.00054 0.14366 0.73025 0.0
H106 H 0.98431 0.1434 0.67716 0.0
H107 H 0.02307 -0.00936 0.66213 0.0
H108 H 0.04004 -0.00887 0.71513 0.0
H109 H 0.05276 0.12809 0.63238 0.0
H110 H 0.93503 0.00496 0.62751 0.0
H111 H 0.98383 0.06249 0.54819 0.0
H112 H 0.87774 0.03807 0.53994 0.0
H113 H 0.95078 0.93348 0.59137 0.0
H114 H 0.89222 0.86918 0.56293 0.0
H115 H 0.02754 0.19781 0.60226 0.0
H116 H 0.09768 0.07849 0.54394 0.0
H117 H 0.81932 0.97298 0.51093 0.0
H118 H 0.09691 0.25369 0.58362 0.0
H119 H 0.16755 0.13467 0.52516 0.0
C120 C 0.52148 0.43909 0.80548 0.0
C121 C 0.53302 0.48261 0.79388 0.0
C122 C 0.52081 0.43861 0.83606 0.0
C123 C 0.53075 0.48177 0.85546 0.0
C124 C 0.54198 0.52517 0.84376 0.0
C125 C 0.54317 0.52557 0.81338 0.0
C126 C 0.52905 0.4824 0.88788 0.0
C127 C 0.56102 0.44918 0.90192 0.0
C128 C 0.56313 0.45254 0.93295 0.0
C129 C 0.5315 0.48926 0.94978 0.0
C130 C 0.50019 0.52305 0.93591 0.0
C131 C 0.4986 0.51891 0.90505 0.0
C132 C 0.47146 0.56474 0.95308 0.0
C133 C 0.43064 0.55805 0.97491 0.0
C134 C 0.48141 0.61152 0.94563 0.0
C135 C 0.44853 0.65035 0.95819 0.0
C136 C 0.4048 0.64341 0.97858 0.0
C137 C 0.60242 0.4204 0.94752 0.0
C138 C 0.61052 0.37192 0.93497 0.0
C139 C 0.63544 0.43894 0.97294 0.0
C140 C 0.67681 0.41025 0.98485 0.0
C141 C 0.68628 0.36281 0.97143 0.0
C142 C 0.65244 0.34355 0.94669 0.0
C143 C 0.39719 0.59712 0.98743 0.0
H144 H 0.51405 0.40538 0.79093 0.0
H145 H 0.5119 0.4047 0.84455 0.0
H146 H 0.55046 0.55889 0.85816 0.0
H147 H 0.55185 0.55971 0.80511 0.0
H148 H 0.58683 0.42248 0.88863 0.0
H149 H 0.47379 0.54467 0.8943 0.0
H150 H 0.53263 0.49261 0.97363 0.0
H151 H 0.42251 0.5223 0.98115 0.0
H152 H 0.51328 0.61773 0.92916 0.0
H153 H 0.45531 0.68529 0.95061 0.0
H154 H 0.58517 0.35611 0.91578 0.0
H155 H 0.63118 0.47623 0.98299 0.0
H156 H 0.36424 0.59087 0.00332 0.0
H157 H 0.65908 0.30676 0.93621 0.0
H158 H 0.70279 0.42561 0.00395 0.0
C159 C 0.50717 0.61173 0.21272 0.0
C160 C 0.52646 0.56986 0.22378 0.0
C161 C 0.49673 0.61107 0.18247 0.0
C162 C 0.50413 0.56824 0.16288 0.0
C163 C 0.52263 0.52623 0.17401 0.0
C164 C 0.53417 0.52715 0.20414 0.0
C165 C 0.49447 0.5677 0.13076 0.0
C166 C 0.52303 0.60223 0.11606 0.0
C167 C 0.51715 0.60071 0.08533 0.0
C168 C 0.48063 0.56489 0.06941 0.0
C169 C 0.45146 0.53016 0.08388 0.0
C170 C 0.459 0.53157 0.11453 0.0
C171 C 0.41492 0.49117 0.06693 0.0
C172 C 0.37184 0.50204 0.04668 0.0
C173 C 0.42282 0.44262 0.07117 0.0
C174 C 0.38832 0.40563 0.05557 0.0
C175 C 0.34479 0.41634 0.03551 0.0
C176 C 0.55285 0.63452 0.07007 0.0
C177 C 0.55982 0.6834 0.08234 0.0
C178 C 0.58484 0.61724 0.04495 0.0
C179 C 0.62562 0.64758 0.03346 0.0
C180 C 0.63499 0.69577 0.04682 0.0
C181 C 0.60046 0.71361 0.07092 0.0
C182 C 0.33671 0.46495 0.03124 0.0
H183 H 0.50077 0.64505 0.22744 0.0
H184 H 0.4824 0.6439 0.17439 0.0
H185 H 0.52907 0.49288 0.15931 0.0
H186 H 0.54831 0.49423 0.21219 0.0
H187 H 0.55225 0.62892 0.12848 0.0
H188 H 0.43676 0.50481 0.12583 0.0
H189 H 0.47592 0.56335 0.0457 0.0
H190 H 0.36465 0.5393 0.04326 0.0
H191 H 0.45597 0.43322 0.0865 0.0
H192 H 0.39503 0.36857 0.05962 0.0
H193 H 0.53519 0.69789 0.10146 0.0
H194 H 0.5805 0.57967 0.03504 0.0
H195 H 0.3035 0.47419 0.01591 0.0
H196 H 0.60667 0.75037 0.08195 0.0
H197 H 0.65079 0.63294 0.01457 0.0
H198 H 0.11351 0.18512 0.037 0.0
H199 H 0.22172 0.13083 0.96416 0.0
H200 H 0.14444 0.26789 0.03214 0.0
H201 H 0.25067 0.21382 0.95796 0.0
H202 H 0.38012 0.32989 0.00713 0.0
H203 H 0.31988 0.25867 0.99021 0.0
H204 H 0.16374 0.34116 0.01129 0.0
H205 H 0.2251 0.41259 0.02922 0.0
C206 C 0.14091 0.19128 0.01868 0.0
C207 C 0.1655 0.15193 0.00101 0.0
C208 C 0.15897 0.23881 0.01589 0.0
C209 C 0.20169 0.24751 0.99524 0.0
C210 C 0.21912 0.2083 0.97469 0.0
C211 C 0.20185 0.16079 0.97786 0.0
C212 C 0.33291 0.33303 0.0077 0.0
C213 C 0.30734 0.37646 0.01998 0.0
C214 C 0.29809 0.2923 -0.00243 0.0
C215 C 0.23663 0.29388 -0.00055 0.0
C216 C 0.21088 0.33849 0.00978 0.0
C217 C 0.24595 0.37946 0.01989 0.0
H218 H 0.24458 0.91213 0.96686 0.0
H219 H 0.12936 0.85651 0.02876 0.0
H220 H 0.29857 0.83662 0.96179 0.0
H221 H 0.18452 0.78071 0.02432 0.0
H222 H 0.28535 0.6382 0.98372 0.0
H223 H 0.21786 0.70619 0.98936 0.0
H224 H 0.36517 0.80705 -0.00081 0.0
H225 H 0.43235 0.73959 0.99412 0.0
C226 C 0.22997 0.88302 0.97875 0.0
C227 C 0.18287 0.88968 -0.00199 0.0
C228 C 0.26124 0.84014 0.9762 0.0
C229 C 0.24665 0.80337 0.99326 0.0
C230 C 0.19673 0.80853 0.01096 0.0
C231 C 0.16496 0.85159 0.01333 0.0
C232 C 0.30327 0.67488 0.98788 0.0
C233 C 0.36424 0.68355 0.98795 0.0
C234 C 0.26459 0.71375 0.99089 0.0
C235 C 0.28632 0.7618 0.99382 0.0
C236 C 0.34719 0.77032 -0.00396 0.0
C237 C 0.38567 0.73169 0.99324 0.0
H238 H 0.912 0.85363 0.96749 0.0
H239 H 0.88414 0.92979 0.05437 0.0
H240 H 0.84752 0.78684 0.97851 0.0
H241 H 0.81859 0.86399 0.06513 0.0
H242 H 0.63334 0.79299 0.0425 0.0
H243 H 0.71582 0.84571 0.03362 0.0
H244 H 0.82787 0.72176 0.01962 0.0
H245 H 0.74583 0.66865 0.02977 0.0
C246 C 0.89426 0.85483 0.98938 0.0
C247 C 0.90358 0.89606 0.01035 0.0
C248 C 0.85711 0.817 0.99558 0.0
C249 C 0.82779 0.82084 0.02249 0.0
C250 C 0.84072 0.86043 0.0442 0.0
C251 C 0.87868 0.89767 0.03822 0.0
C252 C 0.67553 0.77684 0.03773 0.0
C253 C 0.68306 0.72665 0.03728 0.0
C254 C 0.72266 0.80703 0.03264 0.0
C255 C 0.77818 0.7877 0.02655 0.0
C256 C 0.78541 0.73737 0.02449 0.0
C257 C 0.73831 0.70707 0.03003 0.0
H258 H 0.95345 0.15156 0.97341 0.0
H259 H 0.90161 0.17432 0.0642 0.0
H260 H 0.89545 0.21957 0.96313 0.0
H261 H 0.84739 0.24599 0.05496 0.0
H262 H 0.68406 0.313 0.01849 0.0
H263 H 0.75916 0.26003 0.03389 0.0
H264 H 0.87134 0.29855 0.96475 0.0
H265 H 0.79382 0.34852 0.94844 0.0
C266 C 0.93192 0.17299 0.99154 0.0
C267 C 0.93201 0.15815 0.01959 0.0
C268 C 0.89845 0.21222 0.9857 0.0
C269 C 0.86549 0.23835 0.00807 0.0
C270 C 0.87039 0.22595 0.03689 0.0
C271 C 0.90232 0.18552 0.04244 0.0
C272 C 0.72503 0.30996 0.00681 0.0
C273 C 0.73344 0.33411 0.98224 0.0
C274 C 0.76858 0.28011 0.01577 0.0
C275 C 0.8219 0.27453 0.00061 0.0
C276 C 0.83071 0.30076 0.97667 0.0
C277 C 0.78662 0.32974 0.96739 0.0
H278 H 0.61053 0.69123 0.52968 0.0
H279 H 0.73259 0.62909 0.46512 0.0
H280 H 0.64585 0.77244 0.5235 0.0
H281 H 0.76637 0.71025 0.45762 0.0
H282 H 0.88912 0.82737 0.51087 0.0
H283 H 0.82972 0.75639 0.49253 0.0
H284 H 0.67383 0.84291 0.50116 0.0
H285 H 0.73417 0.91425 0.5206 0.0
C286 C 0.64226 0.6952 0.51276 0.0
C287 C 0.66923 0.65423 0.49802 0.0
C288 C 0.66284 0.74182 0.50923 0.0
C289 C 0.71052 0.74788 0.49078 0.0
C290 C 0.73086 0.70683 0.47268 0.0
C291 C 0.71093 0.66033 0.47659 0.0
C292 C 0.84227 0.83143 0.50838 0.0
C293 C 0.81616 0.87603 0.51772 0.0
C294 C 0.80804 0.79079 0.49742 0.0
C295 C 0.74661 0.79364 0.49547 0.0
C296 C 0.72088 0.83928 0.50268 0.0
C297 C 0.75541 0.88019 0.51363 0.0
H298 H 0.70694 0.39635 0.54737 0.0
H299 H 0.66003 0.37481 0.45485 0.0
H300 H 0.75445 0.31817 0.54225 0.0
H301 H 0.70916 0.29585 0.44943 0.0
H302 H 0.77885 0.14151 0.45819 0.0
H303 H 0.71236 0.2104 0.46566 0.0
H304 H 0.84738 0.29582 0.51689 0.0
H305 H 0.91321 0.22732 0.50947 0.0
C306 C 0.70629 0.37436 0.52594 0.0
C307 C 0.68071 0.39165 0.50138 0.0
C308 C 0.73362 0.32973 0.52302 0.0
C309 C 0.73654 0.30139 0.49537 0.0
C310 C 0.70746 0.31704 0.47103 0.0
C311 C 0.67947 0.36204 0.47405 0.0
C312 C 0.79364 0.17481 0.47152 0.0
C313 C 0.85092 0.17921 0.48341 0.0
C314 C 0.75593 0.21427 0.47548 0.0
C315 C 0.77467 0.25842 0.49181 0.0
C316 C 0.83143 0.2621 0.50443 0.0
C317 C 0.86921 0.22302 0.50017 0.0
H318 H 0.43235 0.40109 0.54389 0.0
H319 H 0.32046 0.41143 0.46796 0.0
H320 H 0.36808 0.3353 0.55706 0.0
H321 H 0.25831 0.34672 0.48083 0.0
H322 H 0.11808 0.2863 0.53587 0.0
H323 H 0.19024 0.34537 0.52323 0.0
H324 H 0.32926 0.24655 0.53602 0.0
H325 H 0.2564 0.1871 0.54909 0.0
C326 C 0.39448 0.38937 0.53005 0.0
C327 C 0.38093 0.41226 0.50527 0.0
C328 C 0.35807 0.35163 0.53743 0.0
C329 C 0.30787 0.33657 0.52013 0.0
C330 C 0.29597 0.35829 0.49488 0.0
C331 C 0.33179 0.39558 0.4876 0.0
C332 C 0.16401 0.27717 0.53599 0.0
C333 C 0.18174 0.23227 0.54344 0.0
C334 C 0.20529 0.31085 0.52869 0.0
C335 C 0.2653 0.3005 0.52877 0.0
C336 C 0.28329 0.2555 0.5361 0.0
C337 C 0.24169 0.22142 0.54318 0.0
H338 H 0.47533 0.68729 0.47395 0.0
H339 H 0.37514 0.62814 0.54033 0.0
H340 H 0.40961 0.7562 0.47633 0.0
H341 H 0.30822 0.69664 0.54241 0.0
H342 H 0.16241 0.76998 0.4884 0.0
H343 H 0.23627 0.71429 0.50216 0.0
H344 H 0.36743 0.82929 0.50804 0.0
H345 H 0.2936 0.88499 0.49396 0.0
C346 C 0.44012 0.68999 0.48966 0.0
C347 C 0.43013 0.65299 0.50707 0.0
C348 C 0.4026 0.72934 0.49109 0.0
C349 C 0.35361 0.73157 0.50943 0.0
C350 C 0.34556 0.69569 0.52803 0.0
C351 C 0.38392 0.65683 0.52702 0.0
C352 C 0.20684 0.78351 0.49302 0.0
C353 C 0.22235 0.83168 0.48981 0.0
C354 C 0.24898 0.75181 0.50121 0.0
C355 C 0.30761 0.7675 0.5061 0.0
C356 C 0.32258 0.81625 0.50427 0.0
C357 C 0.28028 0.84813 0.49637 0.0
H358 H 0.06499 0.10111 0.12786 0.0
H359 H 0.0511 0.94599 0.10344 0.0
H360 H 0.04805 0.09115 0.17931 0.0
H361 H 0.03682 0.93535 0.15515 0.0
H362 H 0.9809 0.93972 0.25233 0.0
H363 H 0.97783 0.94827 0.19979 0.0
H364 H 0.11171 0.0612 0.21484 0.0
H365 H 0.11489 0.05261 0.26682 0.0
C366 C 0.05722 0.06497 0.13359 0.0
C367 C 0.05909 0.02433 0.11201 0.0
C368 C 0.04817 0.05911 0.16299 0.0
C369 C 0.04242 0.01236 0.17144 0.0
C370 C 0.04083 0.97182 0.14941 0.0
C371 C 0.04896 0.97783 0.11986 0.0
C372 C 0.00999 0.96605 0.24429 0.0
C373 C 0.04767 -0.00411 0.26385 0.0
C374 C 0.00803 0.97108 0.21424 0.0
C375 C 0.04364 0.00613 0.2032 0.0
C376 C 0.08231 0.03492 0.2227 0.0
C377 C 0.08433 0.02986 0.25255 0.0
H378 H 0.11216 0.06494 0.91487 0.0
H379 H 0.94143 -0.00223 0.89553 0.0
H380 H 0.12043 0.07761 0.86277 0.0
H381 H 0.94991 0.00969 0.84419 0.0
H382 H 0.94368 0.09671 0.76875 0.0
H383 H 0.94959 0.08787 0.82102 0.0
H384 H 0.12193 0.02762 0.8091 0.0
H385 H 0.11575 0.03636 0.7564 0.0
C386 C 0.0771 0.05213 0.89941 0.0
C387 C 0.02584 0.03096 0.90915 0.0
C388 C 0.08172 0.05946 0.86975 0.0
C389 C 0.03519 0.04553 0.8497 0.0
C390 C 0.98569 0.02197 0.85933 0.0
C391 C 0.98097 0.01497 0.88869 0.0
C392 C 0.98318 0.08235 0.7774 0.0
C393 C 0.02907 0.06688 0.75866 0.0
C394 C 0.98648 0.07703 0.80721 0.0
C395 C 0.03597 0.05655 0.81896 0.0
C396 C 0.08333 0.04345 0.80055 0.0
C397 C 0.07964 0.04814 0.77051 0.0
H398 H 0.47686 0.52742 0.6094 0.0
H399 H 0.65863 0.4912 0.619 0.0
H400 H 0.45989 0.51171 0.66046 0.0
H401 H 0.64166 0.47453 0.66874 0.0
H402 H 0.61757 0.52631 0.76521 0.0
H403 H 0.62313 0.53237 0.71295 0.0
H404 H 0.46315 0.44692 0.69676 0.0
H405 H 0.45689 0.44167 0.74988 0.0
C406 C 0.51275 0.5155 0.62222 0.0
C407 C 0.56938 0.51186 0.61062 0.0
C408 C 0.50308 0.50631 0.65128 0.0
C409 C 0.54986 0.49296 0.66877 0.0
C410 C 0.60517 0.48612 0.65617 0.0
C411 C 0.61486 0.49575 0.62764 0.0
C412 C 0.58336 0.50898 0.7506 0.0
C413 C 0.53672 0.48368 0.76165 0.0
C414 C 0.58674 0.51211 0.72059 0.0
C415 C 0.54369 0.48991 0.70071 0.0
C416 C 0.49675 0.46457 0.71162 0.0
C417 C 0.49354 0.46116 0.74188 0.0
H418 H 0.47919 0.47105 0.38563 0.0
H419 H 0.62392 0.57054 0.41261 0.0
H420 H 0.48008 0.49521 0.33678 0.0
H421 H 0.62576 0.59356 0.36231 0.0
H422 H 0.6235 0.53996 0.25138 0.0
H423 H 0.63546 0.5315 0.30386 0.0
H424 H 0.46353 0.58972 0.32041 0.0
H425 H 0.45189 0.59908 0.26819 0.0
C426 C 0.51203 0.49755 0.38106 0.0
C427 C 0.55185 0.51868 0.4031 0.0
C428 C 0.51202 0.5116 0.35305 0.0
C429 C 0.55257 0.54639 0.34601 0.0
C430 C 0.5939 0.56672 0.36747 0.0
C431 C 0.593 0.55346 0.39606 0.0
C432 C 0.58882 0.55178 0.26641 0.0
C433 C 0.53666 0.56993 0.25582 0.0
C434 C 0.59592 0.54737 0.29635 0.0
C435 C 0.55057 0.56028 0.31599 0.0
C436 C 0.49929 0.58001 0.30562 0.0
C437 C 0.49263 0.58527 0.27583 0.0
loop_
_geom_bond_atom_site_label_1
_geom_bond_atom_site_label_2
_geom_bond_distance
_geom_bond_site_symmetry_2
_ccdc_geom_bond_type
O0 Mg1 1.990 . S
O0 C14 1.253 . S
Mg1 O0 1.990 . S
Mg1 O4 2.180 . S
Mg1 O5 2.117 . S
Mg1 O19 2.030 1_545 S
O2 Mg3 2.072 . S
O2 C14 1.260 . S
Mg3 O2 2.072 . S
Mg3 O4 2.099 . S
Mg3 O6 2.079 1_554 S
Mg3 O7 2.072 . S
Mg3 O9 2.099 1_444 S
Mg3 O20 2.079 1_545 S
O4 Mg1 2.180 . S
O4 Mg3 2.099 . S
O4 C15 1.279 . S
O5 Mg1 2.117 . S
O5 C15 1.250 . S
O6 Mg3 2.079 1_556 S
O6 C16 1.264 . S
O7 Mg3 2.072 . S
O7 C17 1.260 1_455 S
Mg8 O9 2.180 1_545 S
Mg8 O10 2.030 . S
Mg8 O11 1.990 . S
Mg8 O12 2.117 1_546 S
O9 Mg3 2.099 1_666 S
O9 Mg8 2.180 1_565 S
O9 C18 1.279 1_556 S
O10 Mg8 2.030 . S
O10 C16 1.248 1_655 S
O11 Mg8 1.990 . S
O11 C17 1.253 1_556 S
O12 Mg8 2.117 1_564 S
O12 C18 1.250 . S
C13 O19 1.248 . S
C13 O20 1.264 . S
C14 O0 1.253 . S
C14 O2 1.260 . S
C15 O4 1.279 . S
C15 O5 1.250 . S
C16 O6 1.264 . S
C16 O10 1.248 1_455 S
C17 O7 1.260 1_655 S
C17 O11 1.253 1_554 S
C18 O9 1.279 1_554 S
C18 O12 1.250 . S
O19 Mg1 2.030 1_565 S
O19 C13 1.248 . S
O20 Mg3 2.079 1_565 S
O20 C13 1.264 . S
O21 Mg22 1.990 . S
O21 C35 1.253 . S
Mg22 O21 1.990 . S
Mg22 O25 2.180 . S
Mg22 O26 2.117 . S
Mg22 O40 2.030 . S
O23 Mg24 2.072 . S
O23 C35 1.260 . S
Mg24 O23 2.072 . S
Mg24 O25 2.099 . S
Mg24 O27 2.079 . S
Mg24 O28 2.072 . S
Mg24 O30 2.099 . S
Mg24 O41 2.079 . S
O25 Mg22 2.180 . S
O25 Mg24 2.099 . S
O25 C36 1.279 . S
O26 Mg22 2.117 . S
O26 C36 1.250 . S
O27 Mg24 2.079 . S
O27 C37 1.264 . S
O28 Mg24 2.072 . S
O28 C38 1.260 . S
Mg29 O30 2.180 . S
Mg29 O31 2.030 . S
Mg29 O32 1.990 . S
Mg29 O33 2.117 . S
O30 Mg24 2.099 . S
O30 Mg29 2.180 . S
O30 C39 1.279 . S
O31 Mg29 2.030 . S
O31 C37 1.248 . S
O32 Mg29 1.990 . S
O32 C38 1.253 . S
O33 Mg29 2.117 . S
O33 C39 1.250 . S
C34 O40 1.248 . S
C34 O41 1.264 . S
C35 O21 1.253 . S
C35 O23 1.260 . S
C36 O25 1.279 . S
C36 O26 1.250 . S
C37 O27 1.264 . S
C37 O31 1.248 . S
C38 O28 1.260 . S
C38 O32 1.253 . S
C39 O30 1.279 . S
C39 O33 1.250 . S
O40 Mg22 2.030 . S
O40 C34 1.248 . S
O41 Mg24 2.079 . S
O41 C34 1.264 . S
C42 C43 1.386 . S
C42 C44 1.397 . S
C42 H66 0.931 . S
C43 C42 1.386 . S
C43 C47 1.397 1_565 S
C44 C42 1.397 . S
C44 C45 1.384 . S
C44 H67 0.930 . S
C45 C44 1.384 . S
C45 C46 1.377 1_565 S
C45 C48 1.481 . S
C46 C45 1.377 1_545 S
C46 C47 1.389 . S
C46 H68 0.929 . S
C47 C43 1.397 1_545 S
C47 C46 1.389 . S
C47 H69 0.931 . S
C48 C45 1.481 . S
C48 C49 1.387 . S
C48 C53 1.390 1_565 S
C49 C48 1.387 . S
C49 C50 1.401 . S
C49 H70 0.930 . S
C50 C49 1.401 . S
C50 C51 1.376 1_565 S
C50 C59 1.511 . S
C51 C50 1.376 1_545 S
C51 C52 1.392 . S
C51 H72 0.931 . S
C52 C51 1.392 . S
C52 C53 1.361 . S
C52 C54 1.500 1_455 S
C53 C48 1.390 1_545 S
C53 C52 1.361 . S
C53 H71 0.931 1_455 S
C54 C52 1.500 1_655 S
C54 C55 1.371 . S
C54 C56 1.365 . S
C55 C54 1.371 . S
C55 C65 1.386 . S
C55 H73 0.931 . S
C56 C54 1.365 . S
C56 C57 1.409 . S
C56 H74 0.929 . S
C57 C56 1.409 . S
C57 C58 1.380 . S
C57 H75 0.930 . S
C58 C57 1.380 . S
C58 C65 1.357 . S
C59 C50 1.511 . S
C59 C60 1.341 . S
C59 C61 1.371 . S
C60 C59 1.341 . S
C60 C64 1.394 . S
C60 H76 0.930 . S
C61 C59 1.371 . S
C61 C62 1.392 . S
C61 H77 0.931 . S
C62 C61 1.392 . S
C62 C63 1.331 . S
C62 H80 0.932 . S
C63 C62 1.331 . S
C63 C64 1.336 . S
C64 C60 1.394 . S
C64 C63 1.336 . S
C64 H79 0.929 . S
C65 C55 1.386 . S
C65 C58 1.357 . S
C65 H78 0.928 . S
H66 C42 0.931 . S
H67 C44 0.930 . S
H68 C46 0.929 . S
H69 C47 0.931 . S
H70 C49 0.930 . S
H71 C53 0.931 1_655 S
H72 C51 0.931 . S
H73 C55 0.931 . S
H74 C56 0.929 . S
H75 C57 0.930 . S
H76 C60 0.930 . S
H77 C61 0.931 . S
H78 C65 0.928 . S
H79 C64 0.929 . S
H80 C62 0.932 . S
C81 C82 1.386 . S
C81 C83 1.397 . S
C81 H105 0.931 . S
C82 C81 1.386 . S
C82 C86 1.397 . S
C83 C81 1.397 . S
C83 C84 1.384 . S
C83 H106 0.930 . S
C84 C83 1.384 . S
C84 C85 1.377 . S
C84 C87 1.481 . S
C85 C84 1.377 . S
C85 C86 1.389 . S
C85 H107 0.929 . S
C86 C82 1.397 . S
C86 C85 1.389 . S
C86 H108 0.931 . S
C87 C84 1.481 . S
C87 C88 1.387 . S
C87 C92 1.390 1_455 S
C88 C87 1.387 . S
C88 C89 1.401 . S
C88 H109 0.930 . S
C89 C88 1.401 . S
C89 C90 1.376 1_455 S
C89 C98 1.511 . S
C90 C89 1.376 1_655 S
C90 C91 1.392 . S
C90 H111 0.931 . S
C91 C90 1.392 . S
C91 C92 1.361 . S
C91 C93 1.500 . S
C92 C87 1.390 1_655 S
C92 C91 1.361 . S
C92 H110 0.931 . S
C93 C91 1.500 . S
C93 C94 1.371 . S
C93 C95 1.365 1_545 S
C94 C93 1.371 . S
C94 C104 1.386 1_545 S
C94 H112 0.931 . S
C95 C93 1.365 1_565 S
C95 C96 1.409 . S
C95 H113 0.929 . S
C96 C95 1.409 . S
C96 C97 1.380 . S
C96 H114 0.930 . S
C97 C96 1.380 . S
C97 C104 1.357 . S
C98 C89 1.511 . S
C98 C99 1.341 . S
C98 C100 1.371 . S
C99 C98 1.341 . S
C99 C103 1.394 . S
C99 H115 0.930 . S
C100 C98 1.371 . S
C100 C101 1.392 . S
C100 H116 0.931 . S
C101 C100 1.392 . S
C101 C102 1.331 . S
C101 H119 0.932 . S
C102 C101 1.331 . S
C102 C103 1.336 . S
C103 C99 1.394 . S
C103 C102 1.336 . S
C103 H118 0.929 . S
C104 C94 1.386 1_565 S
C104 C97 1.357 . S
C104 H117 0.928 . S
H105 C81 0.931 . S
H106 C83 0.930 . S
H107 C85 0.929 . S
H108 C86 0.931 . S
H109 C88 0.930 . S
H110 C92 0.931 . S
H111 C90 0.931 . S
H112 C94 0.931 . S
H113 C95 0.929 . S
H114 C96 0.930 . S
H115 C99 0.930 . S
H116 C100 0.931 . S
H117 C104 0.928 . S
H118 C103 0.929 . S
H119 C101 0.932 . S
C120 C121 1.386 . S
C120 C122 1.397 . S
C120 H144 0.931 . S
C121 C120 1.386 . S
C121 C125 1.397 . S
C122 C120 1.397 . S
C122 C123 1.384 . S
C122 H145 0.930 . S
C123 C122 1.384 . S
C123 C124 1.377 . S
C123 C126 1.481 . S
C124 C123 1.377 . S
C124 C125 1.389 . S
C124 H146 0.929 . S
C125 C121 1.397 . S
C125 C124 1.389 . S
C125 H147 0.931 . S
C126 C123 1.481 . S
C126 C127 1.387 . S
C126 C131 1.390 . S
C127 C126 1.387 . S
C127 C128 1.401 . S
C127 H148 0.930 . S
C128 C127 1.401 . S
C128 C129 1.376 . S
C128 C137 1.511 . S
C129 C128 1.376 . S
C129 C130 1.392 . S
C129 H150 0.931 . S
C130 C129 1.392 . S
C130 C131 1.361 . S
C130 C132 1.500 . S
C131 C126 1.390 . S
C131 C130 1.361 . S
C131 H149 0.931 . S
C132 C130 1.500 . S
C132 C133 1.371 . S
C132 C134 1.365 . S
C133 C132 1.371 . S
C133 C143 1.386 . S
C133 H151 0.931 . S
C134 C132 1.365 . S
C134 C135 1.409 . S
C134 H152 0.929 . S
C135 C134 1.409 . S
C135 C136 1.380 . S
C135 H153 0.930 . S
C136 C135 1.380 . S
C136 C143 1.357 . S
C137 C128 1.511 . S
C137 C138 1.341 . S
C137 C139 1.371 . S
C138 C137 1.341 . S
C138 C142 1.394 . S
C138 H154 0.930 . S
C139 C137 1.371 . S
C139 C140 1.392 . S
C139 H155 0.931 . S
C140 C139 1.392 . S
C140 C141 1.331 . S
C140 H158 0.932 1_556 S
C141 C140 1.331 . S
C141 C142 1.336 . S
C142 C138 1.394 . S
C142 C141 1.336 . S
C142 H157 0.929 . S
C143 C133 1.386 . S
C143 C136 1.357 . S
C143 H156 0.928 1_556 S
H144 C120 0.931 . S
H145 C122 0.930 . S
H146 C124 0.929 . S
H147 C125 0.931 . S
H148 C127 0.930 . S
H149 C131 0.931 . S
H150 C129 0.931 . S
H151 C133 0.931 . S
H152 C134 0.929 . S
H153 C135 0.930 . S
H154 C138 0.930 . S
H155 C139 0.931 . S
H156 C143 0.928 1_554 S
H157 C142 0.929 . S
H158 C140 0.932 1_554 S
C159 C160 1.386 . S
C159 C161 1.397 . S
C159 H183 0.931 . S
C160 C159 1.386 . S
C160 C164 1.397 . S
C161 C159 1.397 . S
C161 C162 1.384 . S
C161 H184 0.930 . S
C162 C161 1.384 . S
C162 C163 1.377 . S
C162 C165 1.481 . S
C163 C162 1.377 . S
C163 C164 1.389 . S
C163 H185 0.929 . S
C164 C160 1.397 . S
C164 C163 1.389 . S
C164 H186 0.931 . S
C165 C162 1.481 . S
C165 C166 1.387 . S
C165 C170 1.390 . S
C166 C165 1.387 . S
C166 C167 1.401 . S
C166 H187 0.930 . S
C167 C166 1.401 . S
C167 C168 1.376 . S
C167 C176 1.511 . S
C168 C167 1.376 . S
C168 C169 1.392 . S
C168 H189 0.931 . S
C169 C168 1.392 . S
C169 C170 1.361 . S
C169 C171 1.500 . S
C170 C165 1.390 . S
C170 C169 1.361 . S
C170 H188 0.931 . S
C171 C169 1.500 . S
C171 C172 1.371 . S
C171 C173 1.365 . S
C172 C171 1.371 . S
C172 C182 1.386 . S
C172 H190 0.931 . S
C173 C171 1.365 . S
C173 C174 1.409 . S
C173 H191 0.929 . S
C174 C173 1.409 . S
C174 C175 1.380 . S
C174 H192 0.930 . S
C175 C174 1.380 . S
C175 C182 1.357 . S
C176 C167 1.511 . S
C176 C177 1.341 . S
C176 C178 1.371 . S
C177 C176 1.341 . S
C177 C181 1.394 . S
C177 H193 0.930 . S
C178 C176 1.371 . S
C178 C179 1.392 . S
C178 H194 0.931 . S
C179 C178 1.392 . S
C179 C180 1.331 . S
C179 H197 0.932 . S
C180 C179 1.331 . S
C180 C181 1.336 . S
C181 C177 1.394 . S
C181 C180 1.336 . S
C181 H196 0.929 . S
C182 C172 1.386 . S
C182 C175 1.357 . S
C182 H195 0.928 . S
H183 C159 0.931 . S
H184 C161 0.930 . S
H185 C163 0.929 . S
H186 C164 0.931 . S
H187 C166 0.930 . S
H188 C170 0.931 . S
H189 C168 0.931 . S
H190 C172 0.931 . S
H191 C173 0.929 . S
H192 C174 0.930 . S
H193 C177 0.930 . S
H194 C178 0.931 . S
H195 C182 0.928 . S
H196 C181 0.929 . S
H197 C179 0.932 . S
H198 C206 0.950 . S
H199 C211 0.950 1_556 S
H200 C208 0.950 . S
H201 C210 0.950 1_556 S
H202 C212 0.957 . S
H203 C214 0.950 1_556 S
H204 C216 0.950 . S
H205 C217 0.950 . S
C206 H198 0.950 . S
C206 C207 1.386 . S
C206 C208 1.391 . S
C207 C206 1.386 . S
C207 C211 1.393 . S
C208 H200 0.950 . S
C208 C206 1.391 . S
C208 C209 1.400 . S
C209 C208 1.400 . S
C209 C210 1.398 . S
C209 C215 1.491 . S
C210 H201 0.950 1_554 S
C210 C209 1.398 . S
C210 C211 1.391 . S
C211 H199 0.950 1_554 S
C211 C207 1.393 . S
C211 C210 1.391 . S
C212 H202 0.957 . S
C212 C213 1.386 . S
C212 C214 1.391 . S
C213 C212 1.386 . S
C213 C217 1.393 . S
C214 H203 0.950 1_554 S
C214 C212 1.391 . S
C214 C215 1.400 . S
C215 C209 1.491 . S
C215 C214 1.400 . S
C215 C216 1.398 . S
C216 H204 0.950 . S
C216 C215 1.398 . S
C216 C217 1.391 . S
C217 H205 0.950 . S
C217 C213 1.393 . S
C217 C216 1.391 . S
H218 C226 0.950 . S
H219 C231 0.950 . S
H220 C228 0.950 . S
H221 C230 0.950 . S
H222 C232 0.950 . S
H223 C234 0.950 . S
H224 C236 0.950 . S
H225 C237 0.950 . S
C226 H218 0.950 . S
C226 C227 1.386 1_556 S
C226 C228 1.391 . S
C227 C226 1.386 1_554 S
C227 C231 1.393 . S
C228 H220 0.950 . S
C228 C226 1.391 . S
C228 C229 1.400 1_556 S
C229 C228 1.400 1_554 S
C229 C230 1.398 . S
C229 C235 1.491 . S
C230 H221 0.950 . S
C230 C229 1.398 . S
C230 C231 1.391 . S
C231 H219 0.950 . S
C231 C227 1.393 . S
C231 C230 1.391 . S
C232 H222 0.950 . S
C232 C233 1.386 1_554 S
C232 C234 1.391 . S
C233 C232 1.386 1_556 S
C233 C237 1.393 . S
C234 H223 0.950 . S
C234 C232 1.391 . S
C234 C235 1.400 . S
C235 C229 1.491 . S
C235 C234 1.400 . S
C235 C236 1.398 1_554 S
C236 H224 0.950 . S
C236 C235 1.398 1_556 S
C236 C237 1.391 . S
C237 H225 0.950 . S
C237 C233 1.393 . S
C237 C236 1.391 . S
H238 C246 0.950 . S
H239 C251 0.950 . S
H240 C248 0.950 . S
H241 C250 0.950 . S
H242 C252 0.950 . S
H243 C254 0.950 . S
H244 C256 0.950 . S
H245 C257 0.950 . S
C246 H238 0.950 . S
C246 C247 1.386 . S
C246 C248 1.391 . S
C247 C246 1.386 . S
C247 C251 1.393 . S
C248 H240 0.950 . S
C248 C246 1.391 . S
C248 C249 1.400 . S
C249 C248 1.400 . S
C249 C250 1.398 . S
C249 C255 1.491 . S
C250 H241 0.950 . S
C250 C249 1.398 . S
C250 C251 1.391 . S
C251 H239 0.950 . S
C251 C247 1.393 . S
C251 C250 1.391 . S
C252 H242 0.950 . S
C252 C253 1.386 . S
C252 C254 1.391 . S
C253 C252 1.386 . S
C253 C257 1.393 . S
C254 H243 0.950 . S
C254 C252 1.391 . S
C254 C255 1.400 . S
C255 C249 1.491 . S
C255 C254 1.400 . S
C255 C256 1.398 . S
C256 H244 0.950 . S
C256 C255 1.398 . S
C256 C257 1.391 . S
C257 H245 0.950 . S
C257 C253 1.393 . S
C257 C256 1.391 . S
H258 C266 0.950 . S
H259 C271 0.950 . S
H260 C268 0.950 . S
H261 C270 0.950 . S
H262 C272 0.950 . S
H263 C274 0.950 . S
H264 C276 0.950 . S
H265 C277 0.950 . S
C266 H258 0.950 . S
C266 C267 1.386 1_556 S
C266 C268 1.391 . S
C267 C266 1.386 1_554 S
C267 C271 1.393 . S
C268 H260 0.950 . S
C268 C266 1.391 . S
C268 C269 1.401 1_556 S
C269 C268 1.401 1_554 S
C269 C270 1.398 . S
C269 C275 1.491 1_554 S
C270 H261 0.950 . S
C270 C269 1.398 . S
C270 C271 1.391 . S
C271 H259 0.950 . S
C271 C267 1.393 . S
C271 C270 1.391 . S
C272 H262 0.950 . S
C272 C273 1.386 1_554 S
C272 C274 1.391 . S
C273 C272 1.386 1_556 S
C273 C277 1.393 . S
C274 H263 0.950 . S
C274 C272 1.391 . S
C274 C275 1.400 1_554 S
C275 C269 1.491 1_556 S
C275 C274 1.400 1_556 S
C275 C276 1.398 . S
C276 H264 0.950 . S
C276 C275 1.398 . S
C276 C277 1.391 . S
C277 H265 0.950 . S
C277 C273 1.393 . S
C277 C276 1.391 . S
H278 C286 0.950 . S
H279 C291 0.950 . S
H280 C288 0.950 . S
H281 C290 0.950 . S
H282 C292 0.950 . S
H283 C294 0.950 . S
H284 C296 0.950 . S
H285 C297 0.950 . S
C286 H278 0.950 . S
C286 C287 1.386 . S
C286 C288 1.391 . S
C287 C286 1.386 . S
C287 C291 1.393 . S
C288 H280 0.950 . S
C288 C286 1.391 . S
C288 C289 1.400 . S
C289 C288 1.400 . S
C289 C290 1.398 . S
C289 C295 1.491 . S
C290 H281 0.950 . S
C290 C289 1.398 . S
C290 C291 1.391 . S
C291 H279 0.950 . S
C291 C287 1.393 . S
C291 C290 1.391 . S
C292 H282 0.950 . S
C292 C293 1.386 . S
C292 C294 1.391 . S
C293 C292 1.386 . S
C293 C297 1.393 . S
C294 H283 0.950 . S
C294 C292 1.391 . S
C294 C295 1.400 . S
C295 C289 1.491 . S
C295 C294 1.400 . S
C295 C296 1.398 . S
C296 H284 0.950 . S
C296 C295 1.398 . S
C296 C297 1.391 . S
C297 H285 0.950 . S
C297 C293 1.393 . S
C297 C296 1.391 . S
H298 C306 0.950 . S
H299 C311 0.950 . S
H300 C308 0.950 . S
H301 C310 0.950 . S
H302 C312 0.950 . S
H303 C314 0.950 . S
H304 C316 0.950 . S
H305 C317 0.950 . S
C306 H298 0.950 . S
C306 C307 1.386 . S
C306 C308 1.391 . S
C307 C306 1.386 . S
C307 C311 1.393 . S
C308 H300 0.950 . S
C308 C306 1.391 . S
C308 C309 1.400 . S
C309 C308 1.400 . S
C309 C310 1.398 . S
C309 C315 1.491 . S
C310 H301 0.950 . S
C310 C309 1.398 . S
C310 C311 1.391 . S
C311 H299 0.950 . S
C311 C307 1.393 . S
C311 C310 1.391 . S
C312 H302 0.950 . S
C312 C313 1.386 . S
C312 C314 1.391 . S
C313 C312 1.386 . S
C313 C317 1.393 . S
C314 H303 0.950 . S
C314 C312 1.391 . S
C314 C315 1.400 . S
C315 C309 1.491 . S
C315 C314 1.400 . S
C315 C316 1.398 . S
C316 H304 0.950 . S
C316 C315 1.398 . S
C316 C317 1.391 . S
C317 H305 0.950 . S
C317 C313 1.393 . S
C317 C316 1.391 . S
H318 C326 0.950 . S
H319 C331 0.950 . S
H320 C328 0.950 . S
H321 C330 0.950 . S
H322 C332 0.950 . S
H323 C334 0.950 . S
H324 C336 0.950 . S
H325 C337 0.950 . S
C326 H318 0.950 . S
C326 C327 1.386 . S
C326 C328 1.391 . S
C327 C326 1.386 . S
C327 C331 1.393 . S
C328 H320 0.950 . S
C328 C326 1.391 . S
C328 C329 1.400 . S
C329 C328 1.400 . S
C329 C330 1.398 . S
C329 C335 1.491 . S
C330 H321 0.950 . S
C330 C329 1.398 . S
C330 C331 1.391 . S
C331 H319 0.950 . S
C331 C327 1.393 . S
C331 C330 1.391 . S
C332 H322 0.950 . S
C332 C333 1.386 . S
C332 C334 1.391 . S
C333 C332 1.386 . S
C333 C337 1.393 . S
C334 H323 0.950 . S
C334 C332 1.391 . S
C334 C335 1.400 . S
C335 C329 1.491 . S
C335 C334 1.400 . S
C335 C336 1.398 . S
C336 H324 0.950 . S
C336 C335 1.398 . S
C336 C337 1.391 . S
C337 H325 0.950 . S
C337 C333 1.393 . S
C337 C336 1.391 . S
H338 C346 0.950 . S
H339 C351 0.950 . S
H340 C348 0.950 . S
H341 C350 0.950 . S
H342 C352 0.950 . S
H343 C354 0.950 . S
H344 C356 0.950 . S
H345 C357 0.950 . S
C346 H338 0.950 . S
C346 C347 1.386 . S
C346 C348 1.391 . S
C347 C346 1.386 . S
C347 C351 1.393 . S
C348 H340 0.950 . S
C348 C346 1.391 . S
C348 C349 1.400 . S
C349 C348 1.400 . S
C349 C350 1.398 . S
C349 C355 1.491 . S
C350 H341 0.950 . S
C350 C349 1.398 . S
C350 C351 1.391 . S
C351 H339 0.950 . S
C351 C347 1.393 . S
C351 C350 1.391 . S
C352 H342 0.950 . S
C352 C353 1.386 . S
C352 C354 1.391 . S
C353 C352 1.386 . S
C353 C357 1.393 . S
C354 H343 0.950 . S
C354 C352 1.391 . S
C354 C355 1.400 . S
C355 C349 1.491 . S
C355 C354 1.400 . S
C355 C356 1.398 . S
C356 H344 0.950 . S
C356 C355 1.398 . S
C356 C357 1.391 . S
C357 H345 0.950 . S
C357 C353 1.393 . S
C357 C356 1.391 . S
H358 C366 0.950 . S
H359 C371 0.950 . S
H360 C368 0.950 . S
H361 C370 0.950 . S
H362 C372 0.950 . S
H363 C374 0.950 . S
H364 C376 0.950 . S
H365 C377 0.950 . S
C366 H358 0.950 . S
C366 C367 1.386 . S
C366 C368 1.391 . S
C367 C366 1.386 . S
C367 C371 1.393 1_545 S
C368 H360 0.950 . S
C368 C366 1.391 . S
C368 C369 1.400 . S
C369 C368 1.400 . S
C369 C370 1.398 1_545 S
C369 C375 1.491 . S
C370 H361 0.950 . S
C370 C369 1.398 1_565 S
C370 C371 1.391 . S
C371 H359 0.950 . S
C371 C367 1.393 1_565 S
C371 C370 1.391 . S
C372 H362 0.950 . S
C372 C373 1.386 . S
C372 C374 1.391 . S
C373 C372 1.386 . S
C373 C377 1.393 1_565 S
C374 H363 0.950 . S
C374 C372 1.391 . S
C374 C375 1.400 1_565 S
C375 C369 1.491 . S
C375 C374 1.400 1_545 S
C375 C376 1.398 . S
C376 H364 0.950 . S
C376 C375 1.398 . S
C376 C377 1.391 . S
C377 H365 0.950 . S
C377 C373 1.393 1_545 S
C377 C376 1.391 . S
H378 C386 0.950 . S
H379 C391 0.950 . S
H380 C388 0.950 . S
H381 C390 0.950 . S
H382 C392 0.950 . S
H383 C394 0.950 . S
H384 C396 0.950 . S
H385 C397 0.950 . S
C386 H378 0.950 . S
C386 C387 1.386 . S
C386 C388 1.391 . S
C387 C386 1.386 . S
C387 C391 1.393 1_455 S
C388 H380 0.950 . S
C388 C386 1.391 . S
C388 C389 1.400 . S
C389 C388 1.400 . S
C389 C390 1.398 1_455 S
C389 C395 1.491 . S
C390 H381 0.950 . S
C390 C389 1.398 1_655 S
C390 C391 1.391 . S
C391 H379 0.950 . S
C391 C387 1.393 1_655 S
C391 C390 1.391 . S
C392 H382 0.950 . S
C392 C393 1.386 1_655 S
C392 C394 1.391 . S
C393 C392 1.386 1_455 S
C393 C397 1.393 . S
C394 H383 0.950 . S
C394 C392 1.391 . S
C394 C395 1.400 1_655 S
C395 C389 1.491 . S
C395 C394 1.400 1_455 S
C395 C396 1.398 . S
C396 H384 0.950 . S
C396 C395 1.398 . S
C396 C397 1.391 . S
C397 H385 0.950 . S
C397 C393 1.393 . S
C397 C396 1.391 . S
H398 C406 0.950 . S
H399 C411 0.950 . S
H400 C408 0.950 . S
H401 C410 0.950 . S
H402 C412 0.950 . S
H403 C414 0.950 . S
H404 C416 0.950 . S
H405 C417 0.950 . S
C406 H398 0.950 . S
C406 C407 1.386 . S
C406 C408 1.391 . S
C407 C406 1.386 . S
C407 C411 1.393 . S
C408 H400 0.950 . S
C408 C406 1.391 . S
C408 C409 1.400 . S
C409 C408 1.400 . S
C409 C410 1.398 . S
C409 C415 1.491 . S
C410 H401 0.950 . S
C410 C409 1.398 . S
C410 C411 1.391 . S
C411 H399 0.950 . S
C411 C407 1.393 . S
C411 C410 1.391 . S
C412 H402 0.950 . S
C412 C413 1.386 . S
C412 C414 1.391 . S
C413 C412 1.386 . S
C413 C417 1.393 . S
C414 H403 0.950 . S
C414 C412 1.391 . S
C414 C415 1.400 . S
C415 C409 1.491 . S
C415 C414 1.400 . S
C415 C416 1.398 . S
C416 H404 0.950 . S
C416 C415 1.398 . S
C416 C417 1.391 . S
C417 H405 0.950 . S
C417 C413 1.393 . S
C417 C416 1.391 . S
H418 C426 0.950 . S
H419 C431 0.950 . S
H420 C428 0.950 . S
H421 C430 0.950 . S
H422 C432 0.950 . S
H423 C434 0.950 . S
H424 C436 0.950 . S
H425 C437 0.950 . S
C426 H418 0.950 . S
C426 C427 1.386 . S
C426 C428 1.391 . S
C427 C426 1.386 . S
C427 C431 1.393 . S
C428 H420 0.950 . S
C428 C426 1.391 . S
C428 C429 1.400 . S
C429 C428 1.400 . S
C429 C430 1.398 . S
C429 C435 1.491 . S
C430 H421 0.950 . S
C430 C429 1.398 . S
C430 C431 1.391 . S
C431 H419 0.950 . S
C431 C427 1.393 . S
C431 C430 1.391 . S
C432 H422 0.950 . S
C432 C433 1.386 . S
C432 C434 1.391 . S
C433 C432 1.386 . S
C433 C437 1.393 . S
C434 H423 0.950 . S
C434 C432 1.391 . S
C434 C435 1.400 . S
C435 C429 1.491 . S
C435 C434 1.400 . S
C435 C436 1.398 . S
C436 H424 0.950 . S
C436 C435 1.398 . S
C436 C437 1.391 . S
C437 H425 0.950 . S
C437 C433 1.393 . S
C437 C436 1.391 . S
C213 C175 1.479 . S
C207 C15 1.321 . S
C227 C13 1.520 . S
C233 C136 1.506 . S
C247 C18 1.311 . S
C253 C180 1.500 . S
C267 C17 1.329 . S
C273 C141 1.384 . S
C287 C36 1.322 . S
C293 C97 1.481 . S
C307 C34 1.534 . S
C313 C58 1.507 . S
C333 C102 1.497 . S
C327 C39 1.298 . S
C353 C63 1.396 . S
C347 C38 1.333 . S
C367 C14 1.523 . S
C373 C43 1.563 . S
C387 C16 1.382 . S
C393 C82 1.437 . S
C413 C121 1.561 . S
C407 C35 1.516 . S
C427 C37 1.380 . S
C433 C160 1.429 . S
