# Generated by pormake.
# Topology pyr, (3,6)-cn, num edge types: 1
# Building blocks:
#     Node 0, Type 0, BuildingBlock: BETDIP_clean_linker_0, # of connection points: 3
#     Node 1, Type 0, BuildingBlock: BETDIP_clean_linker_0, # of connection points: 3
#     Node 2, Type 0, BuildingBlock: BETDIP_clean_linker_0, # of connection points: 3
#     Node 3, Type 0, BuildingBlock: BETDIP_clean_linker_0, # of connection points: 3
#     Node 4, Type 0, BuildingBlock: BETDIP_clean_linker_0, # of connection points: 3
#     Node 5, Type 0, BuildingBlock: BETDIP_clean_linker_0, # of connection points: 3
#     Node 6, Type 0, BuildingBlock: BETDIP_clean_linker_0, # of connection points: 3
#     Node 7, Type 0, BuildingBlock: BETDIP_clean_linker_0, # of connection points: 3
#     Node 8, Type 1, BuildingBlock: MIFKUJ_clean_sbu_0, # of connection points: 6
#     Node 9, Type 1, BuildingBlock: MIFKUJ_clean_sbu_0, # of connection points: 6
#     Node 10, Type 1, BuildingBlock: MIFKUJ_clean_sbu_0, # of connection points: 6
#     Node 11, Type 1, BuildingBlock: MIFKUJ_clean_sbu_0, # of connection points: 6
#     Edge 12, Type (0, 1), BuildingBlock: XIVTED_clean_linker_0, # of connection points: 2
#     Edge 13, Type (0, 1), BuildingBlock: XIVTED_clean_linker_0, # of connection points: 2
#     Edge 14, Type (0, 1), BuildingBlock: XIVTED_clean_linker_0, # of connection points: 2
#     Edge 15, Type (0, 1), BuildingBlock: XIVTED_clean_linker_0, # of connection points: 2
#     Edge 16, Type (0, 1), BuildingBlock: XIVTED_clean_linker_0, # of connection points: 2
#     Edge 17, Type (0, 1), BuildingBlock: XIVTED_clean_linker_0, # of connection points: 2
#     Edge 18, Type (0, 1), BuildingBlock: XIVTED_clean_linker_0, # of connection points: 2
#     Edge 19, Type (0, 1), BuildingBlock: XIVTED_clean_linker_0, # of connection points: 2
#     Edge 20, Type (0, 1), BuildingBlock: XIVTED_clean_linker_0, # of connection points: 2
#     Edge 21, Type (0, 1), BuildingBlock: XIVTED_clean_linker_0, # of connection points: 2
#     Edge 22, Type (0, 1), BuildingBlock: XIVTED_clean_linker_0, # of connection points: 2
#     Edge 23, Type (0, 1), BuildingBlock: XIVTED_clean_linker_0, # of connection points: 2
#     Edge 24, Type (0, 1), BuildingBlock: XIVTED_clean_linker_0, # of connection points: 2
#     Edge 25, Type (0, 1), BuildingBlock: XIVTED_clean_linker_0, # of connection points: 2
#     Edge 26, Type (0, 1), BuildingBlock: XIVTED_clean_linker_0, # of connection points: 2
#     Edge 27, Type (0, 1), BuildingBlock: XIVTED_clean_linker_0, # of connection points: 2
#     Edge 28, Type (0, 1), BuildingBlock: XIVTED_clean_linker_0, # of connection points: 2
#     Edge 29, Type (0, 1), BuildingBlock: XIVTED_clean_linker_0, # of connection points: 2
#     Edge 30, Type (0, 1), BuildingBlock: XIVTED_clean_linker_0, # of connection points: 2
#     Edge 31, Type (0, 1), BuildingBlock: XIVTED_clean_linker_0, # of connection points: 2
#     Edge 32, Type (0, 1), BuildingBlock: XIVTED_clean_linker_0, # of connection points: 2
#     Edge 33, Type (0, 1), BuildingBlock: XIVTED_clean_linker_0, # of connection points: 2
#     Edge 34, Type (0, 1), BuildingBlock: XIVTED_clean_linker_0, # of connection points: 2
#     Edge 35, Type (0, 1), BuildingBlock: XIVTED_clean_linker_0, # of connection points: 2
# Relax obj value: 0.058
# Max RMSD: 0.189
# Mean RMSD: 0.128
data_MOF--net-pyr--node1-MIFKUJ_clean_sbu_0--node2-BETDIP_clean_linker_0--edge1-XIVTED_clean_linker_0
_symmetry_space_group_name_H-M    P1
_symmetry_Int_Tables_number       1
_symmetry_cell_setting            triclinic
loop_
_symmetry_equiv_pos_as_xyz
'x, y, z'
_cell_length_a     39.121725
_cell_length_b     34.546303
_cell_length_c     38.773865
_cell_angle_alpha  88.999952
_cell_angle_beta   84.611759
_cell_angle_gamma 103.44197
loop_
_atom_site_label
_atom_site_type_symbol
_atom_site_fract_x
_atom_site_fract_y
_atom_site_fract_z
_atom_type_partial_charge
H0 H 0.15801 0.19239 0.248 0.0
H1 H 0.23823 0.19916 0.1632 0.0
H2 H 0.23072 0.11619 0.24881 0.0
H3 H 0.22584 0.25548 0.14915 0.0
C4 C 0.19863 0.25384 0.15897 0.0
C5 C 0.18077 0.18277 0.23634 0.0
C6 C 0.19279 0.15262 0.25272 0.0
C7 C 0.19707 0.20005 0.20436 0.0
C8 C 0.22568 0.18666 0.18822 0.0
C9 C 0.23804 0.15638 0.20409 0.0
C10 C 0.22156 0.13975 0.23648 0.0
N11 N 0.18267 0.22927 0.18859 0.0
H12 H 0.31411 0.87941 0.74222 0.0
H13 H 0.31819 0.80281 0.6565 0.0
H14 H 0.39481 0.8133 0.7305 0.0
H15 H 0.25743 0.79617 0.66706 0.0
C16 C 0.25718 0.82752 0.66808 0.0
C17 C 0.32672 0.85894 0.72796 0.0
C18 C 0.35573 0.84754 0.74048 0.0
C19 C 0.31265 0.84239 0.698 0.0
C20 C 0.3288 0.81538 0.67971 0.0
C21 C 0.35849 0.80446 0.69117 0.0
C22 C 0.37163 0.82082 0.7216 0.0
N23 N 0.28238 0.85332 0.68665 0.0
H24 H 0.71726 0.42737 0.81914 0.0
H25 H 0.62654 0.32854 0.82921 0.0
H26 H 0.7064 0.33596 0.89916 0.0
H27 H 0.63133 0.33947 0.77103 0.0
C28 C 0.63687 0.37173 0.76825 0.0
C29 C 0.70262 0.39977 0.83238 0.0
C30 C 0.71579 0.38424 0.86081 0.0
C31 C 0.67089 0.37956 0.82035 0.0
C32 C 0.65142 0.34407 0.8378 0.0
C33 C 0.66412 0.32811 0.8662 0.0
C34 C 0.6963 0.3484 0.87751 0.0
N35 N 0.65924 0.39543 0.79063 0.0
H36 H 0.77539 0.63407 0.27328 0.0
H37 H 0.87569 0.71786 0.27387 0.0
H38 H 0.80024 0.70083 0.3638 0.0
H39 H 0.87362 0.71751 0.21464 0.0
C40 C 0.8627 0.686 0.21153 0.0
C41 C 0.79313 0.65655 0.28644 0.0
C42 C 0.78393 0.66489 0.32086 0.0
C43 C 0.82569 0.6761 0.269 0.0
C44 C 0.84975 0.70389 0.28643 0.0
C45 C 0.84092 0.71219 0.32098 0.0
C46 C 0.8077 0.69327 0.33759 0.0
N47 N 0.83444 0.66451 0.23503 0.0
H48 H 0.75261 0.7976 0.85334 0.0
H49 H 0.82744 0.79369 0.76624 0.0
H50 H 0.75344 0.86695 0.75961 0.0
H51 H 0.82846 0.73469 0.79016 0.0
C52 C 0.82703 0.74107 0.81752 0.0
C53 C 0.76253 0.80619 0.8266 0.0
C54 C 0.74946 0.83433 0.80842 0.0
C55 C 0.7897 0.79028 0.81116 0.0
C56 C 0.80456 0.8033 0.77738 0.0
C57 C 0.79178 0.83111 0.75867 0.0
C58 C 0.76374 0.84587 0.77412 0.0
N59 N 0.8038 0.76423 0.83138 0.0
H60 H 0.67753 0.11811 0.30113 0.0
H61 H 0.68205 0.19879 0.38452 0.0
H62 H 0.60234 0.1915 0.31453 0.0
H63 H 0.74051 0.19935 0.37614 0.0
C64 C 0.73987 0.16807 0.37261 0.0
C65 C 0.66727 0.14075 0.31478 0.0
C66 C 0.63781 0.15277 0.30387 0.0
C67 C 0.68384 0.15774 0.34334 0.0
C68 C 0.66996 0.18621 0.36202 0.0
C69 C 0.64033 0.19841 0.35195 0.0
C70 C 0.62484 0.18182 0.32265 0.0
N71 N 0.71376 0.14489 0.35329 0.0
H72 H 0.29497 0.6115 0.24458 0.0
H73 H 0.3932 0.70027 0.23326 0.0
H74 H 0.30974 0.70987 0.17109 0.0
H75 H 0.41026 0.63447 0.24503 0.0
C76 C 0.39247 0.62866 0.26879 0.0
C77 C 0.3113 0.63888 0.23232 0.0
C78 C 0.29837 0.65916 0.20674 0.0
C79 C 0.34551 0.65333 0.24176 0.0
C80 C 0.36695 0.68865 0.22561 0.0
C81 C 0.35385 0.7098 0.20061 0.0
C82 C 0.31956 0.69471 0.19138 0.0
N83 N 0.3572 0.63263 0.26852 0.0
H84 H 0.12301 0.26063 0.7377 0.0
H85 H 0.22167 0.34316 0.74886 0.0
H86 H 0.20987 0.27367 0.6583 0.0
H87 H 0.20173 0.33118 0.80785 0.0
C88 C 0.17505 0.33404 0.80495 0.0
C89 C 0.15027 0.27361 0.72805 0.0
C90 C 0.16382 0.26406 0.69536 0.0
C91 C 0.1713 0.30113 0.74796 0.0
C92 C 0.20606 0.31986 0.73473 0.0
C93 C 0.21994 0.3106 0.70205 0.0
C94 C 0.19893 0.28187 0.68307 0.0
N95 N 0.15564 0.31249 0.77946 0.0
Zn96 Zn 0.02852 0.97265 0.52561 0.0
Zn97 Zn 0.96918 0.00484 0.49183 0.0
C98 C 0.06242 0.04923 0.54466 0.0
O99 O 0.08691 0.04243 0.52156 0.0
C100 C 0.93737 0.92679 0.47223 0.0
O101 O 0.91269 0.93105 0.49629 0.0
O102 O 0.06697 0.94866 0.54332 0.0
O103 O 0.98028 0.93896 0.54234 0.0
O104 O 0.95657 0.99102 0.54263 0.0
C105 C 0.06301 0.91357 0.55618 0.0
O106 O 0.03199 0.88852 0.55704 0.0
O107 O 0.03351 0.0233 0.55073 0.0
C108 C 0.93321 0.06722 0.47214 0.0
O109 O 0.96074 0.09226 0.48242 0.0
O110 O 0.93157 0.03004 0.47433 0.0
O111 O 0.01698 0.0392 0.47691 0.0
O112 O 0.04096 0.98734 0.47442 0.0
O113 O 0.96498 0.95458 0.46594 0.0
C114 C 0.95708 0.95674 0.55477 0.0
C115 C 0.04 0.02195 0.46329 0.0
Zn116 Zn 0.52801 0.98157 0.99138 0.0
Zn117 Zn 0.48232 0.0291 0.03769 0.0
C118 C 0.47628 0.93437 0.95311 0.0
O119 O 0.48695 0.90694 0.97024 0.0
C120 C 0.52275 0.07516 0.08641 0.0
O121 O 0.50638 0.10097 0.07447 0.0
O122 O 0.56414 0.95502 0.96898 0.0
O123 O 0.5517 0.04007 0.9901 0.0
O124 O 0.50224 0.0602 0.993 0.0
C125 C 0.57934 0.96866 0.93942 0.0
O126 O 0.57183 0.00026 0.92553 0.0
O127 O 0.4889 0.97079 0.959 0.0
C128 C 0.43009 0.04152 0.08855 0.0
O129 O 0.44425 0.01735 0.10599 0.0
O130 O 0.44189 0.05123 0.05717 0.0
O131 O 0.46118 0.97021 0.03797 0.0
O132 O 0.51162 0.95301 0.03788 0.0
O133 O 0.51849 0.0411 0.07317 0.0
C134 C 0.53507 0.06638 0.98353 0.0
C135 C 0.47904 0.94679 0.04831 0.0
Zn136 Zn 0.51311 0.46689 0.50279 0.0
Zn137 Zn 0.49511 0.53656 0.54894 0.0
C138 C 0.55904 0.51135 0.45057 0.0
O139 O 0.53445 0.48988 0.43336 0.0
C140 C 0.44819 0.48612 0.59873 0.0
O141 O 0.47062 0.50654 0.61872 0.0
O142 O 0.51978 0.41642 0.47954 0.0
O143 O 0.51485 0.45818 0.55407 0.0
O144 O 0.53765 0.52055 0.56562 0.0
C145 C 0.5437 0.40064 0.48957 0.0
O146 O 0.56079 0.41594 0.5156 0.0
O147 O 0.556 0.50751 0.48345 0.0
C148 C 0.46026 0.59826 0.56517 0.0
O149 O 0.4418 0.58022 0.54102 0.0
O150 O 0.48647 0.58546 0.57359 0.0
O151 O 0.49293 0.54691 0.49791 0.0
O152 O 0.47194 0.48439 0.485 0.0
O153 O 0.45321 0.49338 0.56618 0.0
C154 C 0.53418 0.48344 0.57182 0.0
C155 C 0.47514 0.52151 0.4791 0.0
Zn156 Zn 0.00733 0.55558 0.96981 0.0
Zn157 Zn 0.04831 0.50279 0.0366 0.0
C158 C 0.95385 0.51136 0.93579 0.0
O159 O 0.97834 0.52834 0.91106 0.0
C160 C 0.08265 0.55777 0.08606 0.0
O161 O 0.05071 0.55315 0.10192 0.0
O162 O 0.00102 0.60488 0.94596 0.0
O163 O 0.01857 0.56831 0.01835 0.0
O164 O 0.00168 0.51504 0.05255 0.0
C165 C 0.97446 0.61684 0.95896 0.0
O166 O 0.95675 0.59899 0.98757 0.0
O167 O 0.96023 0.51671 0.96718 0.0
C168 C 0.08404 0.4459 0.04714 0.0
O169 O 0.10601 0.47414 0.02765 0.0
O170 O 0.05296 0.44999 0.05594 0.0
O171 O 0.06151 0.5028 0.98497 0.0
O172 O 0.04371 0.534 0.94218 0.0
O173 O 0.08693 0.54161 0.05728 0.0
C174 C 0.99731 0.54857 0.04257 0.0
C175 C 0.06235 0.51164 0.9529 0.0
H176 H 0.17664 0.07335 0.27267 0.0
H177 H 0.0536 0.10007 0.44146 0.0
H178 H 0.16633 0.18817 0.30848 0.0
H179 H 0.08464 0.9902 0.4198 0.0
H180 H 0.09416 0.13268 0.39229 0.0
H181 H 0.14293 0.0421 0.32614 0.0
C182 C 0.16771 0.09208 0.29195 0.0
C183 C 0.17422 0.13348 0.28598 0.0
C184 C 0.09227 0.1015 0.39841 0.0
C185 C 0.13498 0.09773 0.34693 0.0
C186 C 0.06901 0.08281 0.42639 0.0
C187 C 0.06557 0.04228 0.43455 0.0
C188 C 0.11195 0.07941 0.3782 0.0
C189 C 0.08642 0.02148 0.41434 0.0
C190 C 0.14829 0.07416 0.32241 0.0
C191 C 0.1614 0.1561 0.31169 0.0
N192 N 0.10854 0.04023 0.38687 0.0
N193 N 0.14218 0.13789 0.34092 0.0
H194 H 0.36963 0.92406 0.76419 0.0
H195 H 0.44343 0.85922 0.93709 0.0
H196 H 0.37203 0.80364 0.79297 0.0
H197 H 0.45662 0.98234 0.90447 0.0
H198 H 0.41058 0.83901 0.88759 0.0
H199 H 0.3951 0.94649 0.81817 0.0
C200 C 0.37522 0.90234 0.78197 0.0
C201 C 0.36904 0.86197 0.77387 0.0
C202 C 0.42045 0.8705 0.89124 0.0
C203 C 0.39805 0.88733 0.83554 0.0
C204 C 0.43921 0.88212 0.91965 0.0
C205 C 0.45312 0.92259 0.92493 0.0
C206 C 0.41542 0.89945 0.86758 0.0
C207 C 0.44648 0.9508 0.90141 0.0
C208 C 0.38989 0.91516 0.81267 0.0
C209 C 0.3769 0.83513 0.79781 0.0
N210 N 0.4283 0.93869 0.87362 0.0
N211 N 0.39099 0.84827 0.82737 0.0
H212 H 0.59724 0.33225 0.72093 0.0
H213 H 0.57484 0.52723 0.61859 0.0
H214 H 0.64428 0.45132 0.7499 0.0
H215 H 0.53119 0.4064 0.59124 0.0
H216 H 0.60083 0.50124 0.66662 0.0
H217 H 0.57306 0.36001 0.67309 0.0
C218 C 0.60248 0.36433 0.71712 0.0
C219 C 0.62276 0.38949 0.73932 0.0
C220 C 0.58559 0.48052 0.65002 0.0
C221 C 0.59511 0.42173 0.68454 0.0
C222 C 0.57076 0.49532 0.6226 0.0
C223 C 0.55075 0.469 0.6008 0.0
C224 C 0.58033 0.43914 0.65564 0.0
C225 C 0.54633 0.42792 0.60729 0.0
C226 C 0.58868 0.38021 0.6898 0.0
C227 C 0.62877 0.43085 0.73331 0.0
N228 N 0.56094 0.41437 0.63404 0.0
N229 N 0.61496 0.44573 0.70645 0.0
H230 H 0.84601 0.60624 0.19845 0.0
H231 H 0.99873 0.62791 0.04249 0.0
H232 H 0.91536 0.71845 0.16151 0.0
H233 H 0.94349 0.51502 0.09231 0.0
H234 H 0.96274 0.66134 0.08064 0.0
H235 H 0.87588 0.57243 0.15456 0.0
C236 C 0.86736 0.62384 0.18091 0.0
C237 C 0.87845 0.66524 0.18362 0.0
C238 C 0.95836 0.62924 0.08316 0.0
C239 C 0.91269 0.62666 0.13348 0.0
C240 C 0.9788 0.61006 0.06129 0.0
C241 C 0.97411 0.56856 0.06426 0.0
C242 C 0.93303 0.60683 0.10829 0.0
C243 C 0.94805 0.54708 0.08925 0.0
C244 C 0.88445 0.60446 0.15592 0.0
C245 C 0.90617 0.68648 0.16024 0.0
N246 N 0.92851 0.5665 0.11041 0.0
N247 N 0.92246 0.66692 0.13617 0.0
H248 H 0.24991 0.143 0.13492 0.0
H249 H 0.40875 0.0396 0.15778 0.0
H250 H 0.29264 0.13444 0.23277 0.0
H251 H 0.38775 0.08241 0.05849 0.0
H252 H 0.36269 0.06877 0.18594 0.0
H253 H 0.29729 0.11625 0.10652 0.0
C254 C 0.26943 0.13592 0.15042 0.0
C255 C 0.26726 0.14109 0.18635 0.0
C256 C 0.36822 0.07183 0.158 0.0
C257 C 0.32108 0.10953 0.15402 0.0
C258 C 0.39437 0.05503 0.14189 0.0
C259 C 0.40202 0.05855 0.10574 0.0
C260 C 0.34933 0.09189 0.13778 0.0
C261 C 0.38271 0.07906 0.08645 0.0
C262 C 0.29635 0.1204 0.13418 0.0
C263 C 0.29291 0.13043 0.20514 0.0
N264 N 0.35711 0.09482 0.10271 0.0
N265 N 0.31866 0.11499 0.18877 0.0
H266 H 0.20077 0.78124 0.64173 0.0
H267 H 0.12672 0.96121 0.56973 0.0
H268 H 0.24888 0.90427 0.65773 0.0
H269 H 0.06676 0.83905 0.57859 0.0
H270 H 0.17415 0.9412 0.59733 0.0
H271 H 0.15386 0.80211 0.61423 0.0
C272 C 0.20137 0.81271 0.6395 0.0
C273 C 0.22864 0.84102 0.65217 0.0
C274 C 0.15061 0.91881 0.59322 0.0
C275 C 0.17513 0.8653 0.62032 0.0
C276 C 0.12355 0.93015 0.5773 0.0
C277 C 0.09261 0.90176 0.57176 0.0
C278 C 0.14695 0.8787 0.60339 0.0
C279 C 0.09003 0.862 0.58233 0.0
C280 C 0.17457 0.82461 0.62382 0.0
C281 C 0.22823 0.88142 0.64849 0.0
N282 N 0.11682 0.85169 0.59749 0.0
N283 N 0.20197 0.89238 0.63277 0.0
H284 H 0.77702 0.41752 0.82016 0.0
H285 H 0.89315 0.47984 0.97898 0.0
H286 H 0.7341 0.39588 0.92728 0.0
H287 H 0.93446 0.49466 0.87111 0.0
H288 H 0.83462 0.44897 0.96136 0.0
H289 H 0.8347 0.44734 0.83904 0.0
C290 C 0.77964 0.41941 0.84768 0.0
C291 C 0.75062 0.40421 0.87215 0.0
C292 C 0.85659 0.45887 0.94162 0.0
C293 C 0.81693 0.43782 0.89408 0.0
C294 C 0.89 0.47634 0.95167 0.0
C295 C 0.91876 0.48991 0.9265 0.0
C296 C 0.85199 0.45508 0.90618 0.0
C297 C 0.91311 0.48477 0.89147 0.0
C298 C 0.81269 0.43614 0.85849 0.0
C299 C 0.75583 0.40685 0.90751 0.0
N300 N 0.88046 0.46794 0.8824 0.0
N301 N 0.78833 0.42332 0.91742 0.0
H302 H 0.77313 0.63599 0.38798 0.0
H303 H 0.5697 0.53253 0.38159 0.0
H304 H 0.71813 0.64398 0.29758 0.0
H305 H 0.62025 0.54908 0.47634 0.0
H306 H 0.6239 0.5716 0.34973 0.0
H307 H 0.71754 0.60187 0.42008 0.0
C308 C 0.74928 0.63086 0.37493 0.0
C309 C 0.75024 0.64318 0.34009 0.0
C310 C 0.62304 0.56689 0.37751 0.0
C311 C 0.68651 0.60343 0.37663 0.0
C312 C 0.59216 0.54456 0.39572 0.0
C313 C 0.59062 0.53736 0.43162 0.0
C314 C 0.65263 0.58177 0.39532 0.0
C315 C 0.62036 0.55385 0.44866 0.0
C316 C 0.71755 0.61124 0.39327 0.0
C317 C 0.71863 0.63474 0.3243 0.0
N318 N 0.65028 0.57506 0.43028 0.0
N319 N 0.68799 0.6153 0.34271 0.0
H320 H 0.13097 0.26231 0.17699 0.0
H321 H 0.14364 0.42362 0.02321 0.0
H322 H 0.22153 0.30192 0.10165 0.0
H323 H 0.05459 0.39225 0.10134 0.0
H324 H 0.16944 0.37382 0.04876 0.0
H325 H 0.10007 0.30513 0.14747 0.0
C326 C 0.14433 0.27996 0.15419 0.0
C327 C 0.17894 0.27885 0.14172 0.0
C328 C 0.14416 0.37755 0.06031 0.0
C329 C 0.14372 0.32755 0.10787 0.0
C330 C 0.12936 0.406 0.04568 0.0
C331 C 0.09709 0.41236 0.06042 0.0
C332 C 0.12674 0.35529 0.0901 0.0
C333 C 0.07958 0.38832 0.08925 0.0
C334 C 0.12664 0.30433 0.13735 0.0
C335 C 0.19492 0.30215 0.1121 0.0
N336 N 0.09484 0.361 0.10341 0.0
N337 N 0.17721 0.32561 0.09622 0.0
H338 H 0.5928 0.30297 0.88487 0.0
H339 H 0.60531 0.08979 0.96019 0.0
H340 H 0.69045 0.26542 0.88644 0.0
H341 H 0.50838 0.12991 0.96577 0.0
H342 H 0.63651 0.15322 0.9314 0.0
H343 H 0.56094 0.23895 0.91267 0.0
C344 C 0.60751 0.2812 0.89097 0.0
C345 C 0.64436 0.2896 0.88341 0.0
C346 C 0.60841 0.14818 0.93891 0.0
C347 C 0.60812 0.21637 0.91536 0.0
C348 C 0.59055 0.11191 0.95535 0.0
C349 C 0.55414 0.10449 0.96551 0.0
C350 C 0.5898 0.17733 0.93246 0.0
C351 C 0.53644 0.13431 0.95844 0.0
C352 C 0.58935 0.24474 0.90698 0.0
C353 C 0.66212 0.26046 0.89223 0.0
N354 N 0.55444 0.16941 0.94238 0.0
N355 N 0.64384 0.22517 0.90767 0.0
H356 H 0.88201 0.78605 0.29946 0.0
H357 H 0.89598 0.85316 0.48999 0.0
H358 H 0.85635 0.70212 0.38711 0.0
H359 H 0.96507 0.921 0.40566 0.0
H360 H 0.88118 0.7973 0.45205 0.0
H361 H 0.91412 0.83605 0.33638 0.0
C362 C 0.88377 0.77792 0.32623 0.0
C363 C 0.86582 0.74029 0.34053 0.0
C364 C 0.89999 0.82419 0.44195 0.0
C365 C 0.90175 0.79713 0.38274 0.0
C366 C 0.90826 0.85608 0.46354 0.0
C367 C 0.9315 0.89167 0.45077 0.0
C368 C 0.9144 0.82833 0.40714 0.0
C369 C 0.94696 0.89394 0.4164 0.0
C370 C 0.90198 0.80642 0.34728 0.0
C371 C 0.86894 0.73122 0.37535 0.0
N372 N 0.93762 0.86287 0.39548 0.0
N373 N 0.88594 0.75966 0.39543 0.0
H374 H 0.36747 0.79615 0.62047 0.0
H375 H 0.47614 0.62722 0.62886 0.0
H376 H 0.38883 0.74693 0.71716 0.0
H377 H 0.41848 0.64453 0.54256 0.0
H378 H 0.45317 0.67906 0.6594 0.0
H379 H 0.39422 0.74792 0.58945 0.0
C380 C 0.37755 0.77518 0.6353 0.0
C381 C 0.37555 0.77573 0.67168 0.0
C382 C 0.44573 0.67155 0.63371 0.0
C383 C 0.40723 0.72096 0.63597 0.0
C384 C 0.45898 0.64219 0.61621 0.0
C385 C 0.4491 0.63145 0.58317 0.0
C386 C 0.42294 0.69072 0.61781 0.0
C387 C 0.42661 0.65167 0.56808 0.0
C388 C 0.39308 0.7478 0.61746 0.0
C389 C 0.39011 0.74827 0.68916 0.0
N390 N 0.41437 0.68035 0.58545 0.0
N391 N 0.40534 0.72212 0.67117 0.0
H392 H 0.81873 0.79121 0.706 0.0
H393 H 0.90882 0.98957 0.59169 0.0
H394 H 0.80772 0.90856 0.73375 0.0
H395 H 0.94264 0.8796 0.58063 0.0
H396 H 0.86412 0.95755 0.63794 0.0
H397 H 0.85646 0.82062 0.65378 0.0
C398 C 0.82401 0.82309 0.701 0.0
C399 C 0.8103 0.84749 0.72451 0.0
C400 C 0.88127 0.94041 0.62535 0.0
C401 C 0.85312 0.88116 0.66474 0.0
C402 C 0.90681 0.95864 0.59893 0.0
C403 C 0.92971 0.9373 0.58247 0.0
C404 C 0.8784 0.90046 0.63528 0.0
C405 C 0.92575 0.89725 0.59285 0.0
C406 C 0.84549 0.83981 0.6712 0.0
C407 C 0.8174 0.8885 0.71631 0.0
N408 N 0.90058 0.8801 0.61868 0.0
N409 N 0.83851 0.90406 0.68722 0.0
H410 H 0.56722 0.13632 0.29379 0.0
H411 H 0.57741 0.04553 0.10779 0.0
H412 H 0.66861 0.12954 0.24275 0.0
H413 H 0.50985 0.12448 0.13711 0.0
H414 H 0.60642 0.06111 0.16146 0.0
H415 H 0.54036 0.11583 0.24084 0.0
C416 C 0.584 0.13072 0.27154 0.0
C417 C 0.62059 0.13578 0.27278 0.0
C418 C 0.58527 0.07494 0.15591 0.0
C419 C 0.58933 0.11065 0.21222 0.0
C420 C 0.56872 0.06605 0.12546 0.0
C421 C 0.54139 0.08399 0.11791 0.0
C422 C 0.57353 0.10087 0.17925 0.0
C423 C 0.53105 0.1103 0.14168 0.0
C424 C 0.56848 0.11871 0.24137 0.0
C425 C 0.64037 0.12612 0.24325 0.0
N426 N 0.54685 0.11762 0.17137 0.0
N427 N 0.6245 0.11409 0.21413 0.0
H428 H 0.4423 0.58552 0.27081 0.0
H429 H 0.45451 0.59106 0.47129 0.0
H430 H 0.36787 0.63251 0.33672 0.0
H431 H 0.46296 0.48463 0.41786 0.0
H432 H 0.43241 0.61557 0.42014 0.0
H433 H 0.46055 0.55666 0.3226 0.0
C434 C 0.42988 0.58972 0.29619 0.0
C435 C 0.40349 0.61113 0.29966 0.0
C436 C 0.43896 0.58677 0.4198 0.0
C437 C 0.42461 0.57927 0.35849 0.0
C438 C 0.45159 0.57278 0.44887 0.0
C439 C 0.46036 0.53564 0.44888 0.0
C440 C 0.43619 0.56407 0.39015 0.0
C441 C 0.45625 0.5133 0.419 0.0
C442 C 0.44012 0.57316 0.32554 0.0
C443 C 0.38813 0.61589 0.33301 0.0
N444 N 0.44491 0.52812 0.39056 0.0
N445 N 0.39925 0.60049 0.36126 0.0
H446 H 0.20299 0.37529 0.85864 0.0
H447 H 0.04946 0.493 0.88648 0.0
H448 H 0.11372 0.35782 0.79838 0.0
H449 H 0.12218 0.48657 0.96221 0.0
H450 H 0.07907 0.4524 0.84844 0.0
H451 H 0.1789 0.42388 0.89258 0.0
C452 C 0.1783 0.38165 0.85268 0.0
C453 C 0.16014 0.36237 0.82601 0.0
C454 C 0.08865 0.46009 0.87333 0.0
C455 C 0.13281 0.41802 0.86405 0.0
C456 C 0.07198 0.48351 0.89488 0.0
C457 C 0.08308 0.49252 0.92775 0.0
C458 C 0.11677 0.44599 0.88468 0.0
C459 C 0.11229 0.47943 0.93743 0.0
C460 C 0.16463 0.40936 0.87191 0.0
C461 C 0.12842 0.37176 0.81897 0.0
N462 N 0.12805 0.45662 0.91606 0.0
N463 N 0.11576 0.39899 0.83789 0.0
H464 H 0.74644 0.91264 0.80259 0.0
H465 H 0.59095 0.89533 0.95425 0.0
H466 H 0.69232 0.8008 0.85509 0.0
H467 H 0.62376 -0.00435 0.88092 0.0
H468 H 0.63127 0.86178 0.92138 0.0
H469 H 0.70432 0.94488 0.8336 0.0
C470 C 0.72544 0.89467 0.82027 0.0
C471 C 0.7229 0.85379 0.82606 0.0
C472 C 0.62957 0.8911 0.91248 0.0
C473 C 0.67511 0.89098 0.86241 0.0
C474 C 0.60672 0.91035 0.93131 0.0
C475 C 0.60406 0.94836 0.9203 0.0
C476 C 0.65015 0.91018 0.88268 0.0
C477 C 0.62495 0.96634 0.8903 0.0
C478 C 0.70154 0.91324 0.83817 0.0
C479 C 0.69561 0.83243 0.85007 0.0
N480 N 0.64725 0.94715 0.8726 0.0
N481 N 0.67287 0.85132 0.86749 0.0
H482 H 0.74842 0.09076 0.37192 0.0
H483 H 0.92667 0.14434 0.46636 0.0
H484 H 0.7952 0.2082 0.40472 0.0
H485 H 0.8746 0.02417 0.44438 0.0
H486 H 0.87982 0.16837 0.44174 0.0
H487 H 0.79543 0.06584 0.39602 0.0
C488 C 0.76862 0.11131 0.3841 0.0
C489 C 0.76799 0.15166 0.38631 0.0
C490 C 0.87858 0.13672 0.44232 0.0
C491 C 0.82179 0.12339 0.41393 0.0
C492 C 0.90539 0.12296 0.45639 0.0
C493 C 0.90464 0.08213 0.45753 0.0
C494 C 0.85074 0.10955 0.42908 0.0
C495 C 0.87629 0.0559 0.44414 0.0
C496 C 0.79541 0.09707 0.39793 0.0
C497 C 0.79475 0.1769 0.40247 0.0
N498 N 0.85055 0.07004 0.43044 0.0
N499 N 0.82053 0.16241 0.41559 0.0
H500 H 0.27582 0.58557 0.18168 0.0
H501 H 0.0873 0.6106 0.1384 0.0
H502 H 0.24347 0.69486 0.20154 0.0
H503 H 0.14843 0.54376 0.07568 0.0
H504 H 0.1386 0.6348 0.17099 0.0
H505 H 0.22205 0.56111 0.15305 0.0
C506 C 0.25701 0.60404 0.18055 0.0
C507 C 0.26388 0.64218 0.19388 0.0
C508 C 0.14064 0.61498 0.14996 0.0
C509 C 0.20276 0.61466 0.16125 0.0
C510 C 0.11153 0.60125 0.13139 0.0
C511 C 0.11376 0.5754 0.10419 0.0
C512 C 0.17168 0.60184 0.14178 0.0
C513 C 0.14568 0.564 0.09621 0.0
C514 C 0.22662 0.5903 0.16397 0.0
C515 C 0.23898 0.66528 0.19143 0.0
N516 N 0.17327 0.57698 0.11515 0.0
N517 N 0.20937 0.65112 0.17541 0.0
H518 H 0.2386 0.33791 0.63482 0.0
H519 H 0.43125 0.46064 0.66674 0.0
H520 H 0.28118 0.33536 0.73344 0.0
H521 H 0.39347 0.44435 0.56562 0.0
H522 H 0.377 0.41464 0.692 0.0
H523 H 0.29563 0.3766 0.6093 0.0
C524 C 0.2601 0.345 0.65106 0.0
C525 C 0.25511 0.33309 0.68633 0.0
C526 C 0.38073 0.42095 0.66427 0.0
C527 C 0.32049 0.37842 0.6573 0.0
C528 C 0.41163 0.44725 0.64983 0.0
C529 C 0.41672 0.45656 0.61406 0.0
C530 C 0.3547 0.40413 0.64278 0.0
C531 C 0.39057 0.43817 0.59335 0.0
C532 C 0.29266 0.36736 0.63647 0.0
C533 C 0.28376 0.34421 0.70622 0.0
N534 N 0.36057 0.41305 0.60806 0.0
N535 N 0.31525 0.36643 0.69144 0.0
H536 H 0.82887 0.74579 0.88805 0.0
H537 H 0.99058 0.64074 0.89046 0.0
H538 H 0.87988 0.70566 0.79654 0.0
H539 H 0.92313 0.65441 0.98192 0.0
H540 H 0.95745 0.67626 0.85599 0.0
H541 H 0.86959 0.72262 0.92302 0.0
C542 C 0.84868 0.73213 0.87532 0.0
C543 C 0.85097 0.72726 0.83942 0.0
C544 C 0.95019 0.67185 0.88367 0.0
C545 C 0.89771 0.70116 0.87914 0.0
C546 C 0.96925 0.65188 0.9034 0.0
C547 C 0.95929 0.64427 0.93902 0.0
C548 C 0.92118 0.68443 0.89976 0.0
C549 C 0.93141 0.65928 0.95443 0.0
C550 C 0.87193 0.719 0.89528 0.0
C551 C 0.87718 0.7096 0.82423 0.0
N552 N 0.91312 0.6784 0.93465 0.0
N553 N 0.89957 0.6971 0.84419 0.0
H554 H 0.4234 0.72596 0.17338 0.0
H555 H 0.41238 0.93127 0.08154 0.0
H556 H 0.33358 0.77863 0.18791 0.0
H557 H 0.50666 0.88593 0.07145 0.0
H558 H 0.38417 0.87605 0.12207 0.0
H559 H 0.45594 0.78537 0.13851 0.0
C560 C 0.41074 0.75026 0.16966 0.0
C561 C 0.37562 0.74721 0.1832 0.0
C562 C 0.41107 0.87812 0.11111 0.0
C563 C 0.41236 0.8148 0.14309 0.0
C564 C 0.42717 0.90963 0.0878 0.0
C565 C 0.4619 0.91314 0.07289 0.0
C566 C 0.42965 0.8496 0.11957 0.0
C567 C 0.4798 0.88432 0.08226 0.0
C568 C 0.42921 0.78401 0.14959 0.0
C569 C 0.36039 0.77943 0.17741 0.0
N570 N 0.46341 0.85361 0.1049 0.0
N571 N 0.37873 0.81167 0.15763 0.0
H572 H 0.16032 0.27286 0.62583 0.0
H573 H 0.0313 0.05985 0.60881 0.0
H574 H 0.11603 0.19332 0.71424 0.0
H575 H 0.11076 0.11896 0.52806 0.0
H576 H 0.04964 0.11626 0.64586 0.0
H577 H 0.1292 0.22393 0.58808 0.0
C578 C 0.14395 0.24511 0.63732 0.0
C579 C 0.14146 0.23665 0.67313 0.0
C580 C 0.06268 0.11695 0.61987 0.0
C581 C 0.10532 0.18104 0.63013 0.0
C582 C 0.05219 0.08498 0.59871 0.0
C583 C 0.06991 0.08472 0.56555 0.0
C584 C 0.09057 0.14894 0.60743 0.0
C585 C 0.09678 0.11787 0.55366 0.0
C586 C 0.12609 0.21737 0.61578 0.0
C587 C 0.11886 0.20088 0.68675 0.0
N588 N 0.10639 0.14866 0.57466 0.0
N589 N 0.10187 0.17408 0.66513 0.0
H590 H 0.61212 0.2585 0.32754 0.0
H591 H 0.5827 0.35083 0.5118 0.0
H592 H 0.63367 0.2062 0.42273 0.0
H593 H 0.53065 0.37666 0.42384 0.0
H594 H 0.60513 0.30081 0.47871 0.0
H595 H 0.58589 0.30521 0.36134 0.0
C596 C 0.61119 0.25655 0.35552 0.0
C597 C 0.62517 0.22804 0.37218 0.0
C598 C 0.5886 0.3172 0.46671 0.0
C599 C 0.59565 0.28228 0.41105 0.0
C600 C 0.57579 0.3458 0.48557 0.0
C601 C 0.55474 0.36798 0.47058 0.0
C602 C 0.58082 0.31105 0.43233 0.0
C603 C 0.54663 0.36012 0.43649 0.0
C604 C 0.59628 0.28341 0.37479 0.0
C605 C 0.62383 0.22789 0.40856 0.0
N606 N 0.55995 0.33256 0.4184 0.0
N607 N 0.60948 0.25461 0.4267 0.0
loop_
_geom_bond_atom_site_label_1
_geom_bond_atom_site_label_2
_geom_bond_distance
_geom_bond_site_symmetry_2
_ccdc_geom_bond_type
H0 C5 0.930 . S
H1 C8 0.930 . S
H2 C10 0.930 . S
H3 C4 1.016 . S
C4 H3 1.016 . S
C4 N11 1.286 . S
C5 H0 0.930 . S
C5 C6 1.397 . S
C5 C7 1.361 . S
C6 C5 1.397 . S
C6 C10 1.390 . S
C7 C5 1.361 . S
C7 C8 1.393 . S
C7 N11 1.413 . S
C8 H1 0.930 . S
C8 C7 1.393 . S
C8 C9 1.399 . S
C9 C8 1.399 . S
C9 C10 1.381 . S
C10 H2 0.930 . S
C10 C6 1.390 . S
C10 C9 1.381 . S
N11 C4 1.286 . S
N11 C7 1.413 . S
H12 C17 0.930 . S
H13 C20 0.930 . S
H14 C22 0.930 . S
H15 C16 1.016 . S
C16 H15 1.016 . S
C16 N23 1.286 . S
C17 H12 0.930 . S
C17 C18 1.397 . S
C17 C19 1.361 . S
C18 C17 1.397 . S
C18 C22 1.390 . S
C19 C17 1.361 . S
C19 C20 1.393 . S
C19 N23 1.413 . S
C20 H13 0.930 . S
C20 C19 1.393 . S
C20 C21 1.399 . S
C21 C20 1.399 . S
C21 C22 1.381 . S
C22 H14 0.930 . S
C22 C18 1.390 . S
C22 C21 1.381 . S
N23 C16 1.286 . S
N23 C19 1.413 . S
H24 C29 0.930 . S
H25 C32 0.930 . S
H26 C34 0.930 . S
H27 C28 1.016 . S
C28 H27 1.016 . S
C28 N35 1.286 . S
C29 H24 0.930 . S
C29 C30 1.397 . S
C29 C31 1.361 . S
C30 C29 1.397 . S
C30 C34 1.390 . S
C31 C29 1.361 . S
C31 C32 1.393 . S
C31 N35 1.413 . S
C32 H25 0.930 . S
C32 C31 1.393 . S
C32 C33 1.399 . S
C33 C32 1.399 . S
C33 C34 1.381 . S
C34 H26 0.930 . S
C34 C30 1.390 . S
C34 C33 1.381 . S
N35 C28 1.286 . S
N35 C31 1.413 . S
H36 C41 0.930 . S
H37 C44 0.930 . S
H38 C46 0.930 . S
H39 C40 1.016 . S
C40 H39 1.016 . S
C40 N47 1.286 . S
C41 H36 0.930 . S
C41 C42 1.397 . S
C41 C43 1.361 . S
C42 C41 1.397 . S
C42 C46 1.390 . S
C43 C41 1.361 . S
C43 C44 1.393 . S
C43 N47 1.413 . S
C44 H37 0.930 . S
C44 C43 1.393 . S
C44 C45 1.399 . S
C45 C44 1.399 . S
C45 C46 1.381 . S
C46 H38 0.930 . S
C46 C42 1.390 . S
C46 C45 1.381 . S
N47 C40 1.286 . S
N47 C43 1.413 . S
H48 C53 0.930 . S
H49 C56 0.930 . S
H50 C58 0.930 . S
H51 C52 1.016 . S
C52 H51 1.016 . S
C52 N59 1.286 . S
C53 H48 0.930 . S
C53 C54 1.397 . S
C53 C55 1.361 . S
C54 C53 1.397 . S
C54 C58 1.390 . S
C55 C53 1.361 . S
C55 C56 1.393 . S
C55 N59 1.413 . S
C56 H49 0.930 . S
C56 C55 1.393 . S
C56 C57 1.399 . S
C57 C56 1.399 . S
C57 C58 1.381 . S
C58 H50 0.930 . S
C58 C54 1.390 . S
C58 C57 1.381 . S
N59 C52 1.286 . S
N59 C55 1.413 . S
H60 C65 0.930 . S
H61 C68 0.930 . S
H62 C70 0.930 . S
H63 C64 1.016 . S
C64 H63 1.016 . S
C64 N71 1.286 . S
C65 H60 0.930 . S
C65 C66 1.397 . S
C65 C67 1.361 . S
C66 C65 1.397 . S
C66 C70 1.390 . S
C67 C65 1.361 . S
C67 C68 1.393 . S
C67 N71 1.413 . S
C68 H61 0.930 . S
C68 C67 1.393 . S
C68 C69 1.399 . S
C69 C68 1.399 . S
C69 C70 1.381 . S
C70 H62 0.930 . S
C70 C66 1.390 . S
C70 C69 1.381 . S
N71 C64 1.286 . S
N71 C67 1.413 . S
H72 C77 0.930 . S
H73 C80 0.930 . S
H74 C82 0.930 . S
H75 C76 1.016 . S
C76 H75 1.016 . S
C76 N83 1.286 . S
C77 H72 0.930 . S
C77 C78 1.397 . S
C77 C79 1.361 . S
C78 C77 1.397 . S
C78 C82 1.390 . S
C79 C77 1.361 . S
C79 C80 1.393 . S
C79 N83 1.413 . S
C80 H73 0.930 . S
C80 C79 1.393 . S
C80 C81 1.399 . S
C81 C80 1.399 . S
C81 C82 1.381 . S
C82 H74 0.930 . S
C82 C78 1.390 . S
C82 C81 1.381 . S
N83 C76 1.286 . S
N83 C79 1.413 . S
H84 C89 0.930 . S
H85 C92 0.930 . S
H86 C94 0.930 . S
H87 C88 1.016 . S
C88 H87 1.016 . S
C88 N95 1.286 . S
C89 H84 0.930 . S
C89 C90 1.397 . S
C89 C91 1.361 . S
C90 C89 1.397 . S
C90 C94 1.390 . S
C91 C89 1.361 . S
C91 C92 1.393 . S
C91 N95 1.413 . S
C92 H85 0.930 . S
C92 C91 1.393 . S
C92 C93 1.399 . S
C93 C92 1.399 . S
C93 C94 1.381 . S
C94 H86 0.930 . S
C94 C90 1.390 . S
C94 C93 1.381 . S
N95 C88 1.286 . S
N95 C91 1.413 . S
Zn96 O102 1.969 1_545 S
Zn96 O103 1.965 1_545 S
Zn96 O107 2.024 . S
Zn96 O112 1.969 . S
Zn97 O104 1.969 . S
Zn97 O110 1.969 1_565 S
Zn97 O111 1.965 1_665 S
Zn97 O113 2.024 . S
C98 O99 1.229 . S
C98 O107 1.058 . S
O99 C98 1.229 . S
C100 O101 1.229 . S
C100 O113 1.058 . S
O101 C100 1.229 . S
O102 Zn96 1.969 1_565 S
O102 C105 1.267 . S
O103 Zn96 1.965 1_565 S
O103 C114 1.260 1_455 S
O104 Zn97 1.969 . S
O104 C114 1.258 . S
C105 O102 1.267 . S
C105 O106 1.228 . S
O106 C105 1.228 . S
O107 Zn96 2.024 . S
O107 C98 1.058 . S
C108 O109 1.228 . S
C108 O110 1.267 . S
O109 C108 1.228 . S
O110 Zn97 1.969 1_545 S
O110 C108 1.267 . S
O111 Zn97 1.965 1_445 S
O111 C115 1.260 . S
O112 Zn96 1.969 . S
O112 C115 1.258 . S
O113 Zn97 2.024 . S
O113 C100 1.058 . S
C114 O103 1.260 1_655 S
C114 O104 1.258 . S
C115 O111 1.260 . S
C115 O112 1.258 . S
Zn116 O122 1.969 . S
Zn116 O123 1.965 1_565 S
Zn116 O127 2.024 . S
Zn116 O132 1.969 1_556 S
Zn117 O124 1.969 . S
Zn117 O130 1.969 . S
Zn117 O131 1.965 1_545 S
Zn117 O133 2.024 . S
C118 O119 1.229 . S
C118 O127 1.058 . S
O119 C118 1.229 . S
C120 O121 1.229 . S
C120 O133 1.058 . S
O121 C120 1.229 . S
O122 Zn116 1.969 . S
O122 C125 1.267 . S
O123 Zn116 1.965 1_545 S
O123 C134 1.260 . S
O124 Zn117 1.969 . S
O124 C134 1.258 1_554 S
C125 O122 1.267 . S
C125 O126 1.228 . S
O126 C125 1.228 . S
O127 Zn116 2.024 . S
O127 C118 1.058 . S
C128 O129 1.228 . S
C128 O130 1.267 . S
O129 C128 1.228 . S
O130 Zn117 1.969 . S
O130 C128 1.267 . S
O131 Zn117 1.965 1_565 S
O131 C135 1.260 . S
O132 Zn116 1.969 1_554 S
O132 C135 1.258 . S
O133 Zn117 2.024 . S
O133 C120 1.058 . S
C134 O123 1.260 . S
C134 O124 1.258 1_556 S
C135 O131 1.260 . S
C135 O132 1.258 . S
Zn136 O142 1.969 . S
Zn136 O143 1.965 . S
Zn136 O147 2.024 . S
Zn136 O152 1.969 . S
Zn137 O144 1.969 . S
Zn137 O150 1.969 . S
Zn137 O151 1.965 . S
Zn137 O153 2.024 . S
C138 O139 1.229 . S
C138 O147 1.058 . S
O139 C138 1.229 . S
C140 O141 1.229 . S
C140 O153 1.058 . S
O141 C140 1.229 . S
O142 Zn136 1.969 . S
O142 C145 1.267 . S
O143 Zn136 1.965 . S
O143 C154 1.260 . S
O144 Zn137 1.969 . S
O144 C154 1.258 . S
C145 O142 1.267 . S
C145 O146 1.228 . S
O146 C145 1.228 . S
O147 Zn136 2.024 . S
O147 C138 1.058 . S
C148 O149 1.228 . S
C148 O150 1.267 . S
O149 C148 1.228 . S
O150 Zn137 1.969 . S
O150 C148 1.267 . S
O151 Zn137 1.965 . S
O151 C155 1.260 . S
O152 Zn136 1.969 . S
O152 C155 1.258 . S
O153 Zn137 2.024 . S
O153 C140 1.058 . S
C154 O143 1.260 . S
C154 O144 1.258 . S
C155 O151 1.260 . S
C155 O152 1.258 . S
Zn156 O162 1.969 . S
Zn156 O163 1.965 1_556 S
Zn156 O167 2.024 . S
Zn156 O172 1.969 1_655 S
Zn157 O164 1.969 . S
Zn157 O170 1.969 . S
Zn157 O171 1.936 1_554 S
Zn157 O173 2.024 . S
C158 O159 1.229 . S
C158 O167 1.058 . S
O159 C158 1.229 . S
C160 O161 1.229 . S
C160 O173 1.058 . S
O161 C160 1.229 . S
O162 Zn156 1.969 . S
O162 C165 1.267 . S
O163 Zn156 1.965 1_554 S
O163 C174 1.260 . S
O164 Zn157 1.969 . S
O164 C174 1.258 1_455 S
C165 O162 1.267 . S
C165 O166 1.228 . S
O166 C165 1.228 . S
O167 Zn156 2.024 . S
O167 C158 1.058 . S
C168 O169 1.228 . S
C168 O170 1.267 . S
O169 C168 1.228 . S
O170 Zn157 1.969 . S
O170 C168 1.267 . S
O171 Zn157 1.936 1_556 S
O171 C175 1.291 . S
O172 Zn156 1.969 1_455 S
O172 C175 1.258 . S
O173 Zn157 2.024 . S
O173 C160 1.058 . S
C174 O163 1.260 . S
C174 O164 1.258 1_655 S
C175 O171 1.291 . S
C175 O172 1.258 . S
H176 C182 0.930 . S
H177 C186 0.930 . S
H178 C191 0.929 . S
H179 C189 0.929 . S
H180 C184 0.929 . S
H181 C190 0.929 . S
C182 H176 0.930 . S
C182 C183 1.367 . S
C182 C190 1.378 . S
C183 C182 1.367 . S
C183 C191 1.433 . S
C184 H180 0.929 . S
C184 C186 1.378 . S
C184 C188 1.350 . S
C185 C188 1.463 . S
C185 C190 1.350 . S
C185 N193 1.427 . S
C186 H177 0.930 . S
C186 C184 1.378 . S
C186 C187 1.367 . S
C187 C186 1.367 . S
C187 C189 1.433 . S
C188 C184 1.350 . S
C188 C185 1.463 . S
C188 N192 1.427 . S
C189 H179 0.929 . S
C189 C187 1.433 . S
C189 N192 1.384 . S
C190 H181 0.929 . S
C190 C182 1.378 . S
C190 C185 1.350 . S
C191 H178 0.929 . S
C191 C183 1.433 . S
C191 N193 1.384 . S
N192 C188 1.427 . S
N192 C189 1.384 . S
N193 C185 1.427 . S
N193 C191 1.384 . S
H194 C200 0.930 . S
H195 C204 0.930 . S
H196 C209 0.929 . S
H197 C207 0.929 . S
H198 C202 0.929 . S
H199 C208 0.929 . S
C200 H194 0.930 . S
C200 C201 1.367 . S
C200 C208 1.378 . S
C201 C200 1.367 . S
C201 C209 1.433 . S
C202 H198 0.929 . S
C202 C204 1.378 . S
C202 C206 1.350 . S
C203 C206 1.463 . S
C203 C208 1.350 . S
C203 N211 1.427 . S
C204 H195 0.930 . S
C204 C202 1.378 . S
C204 C205 1.367 . S
C205 C204 1.367 . S
C205 C207 1.433 . S
C206 C202 1.350 . S
C206 C203 1.463 . S
C206 N210 1.427 . S
C207 H197 0.929 . S
C207 C205 1.433 . S
C207 N210 1.384 . S
C208 H199 0.929 . S
C208 C200 1.378 . S
C208 C203 1.350 . S
C209 H196 0.929 . S
C209 C201 1.433 . S
C209 N211 1.384 . S
N210 C206 1.427 . S
N210 C207 1.384 . S
N211 C203 1.427 . S
N211 C209 1.384 . S
H212 C218 0.930 . S
H213 C222 0.930 . S
H214 C227 0.929 . S
H215 C225 0.929 . S
H216 C220 0.929 . S
H217 C226 0.929 . S
C218 H212 0.930 . S
C218 C219 1.367 . S
C218 C226 1.378 . S
C219 C218 1.367 . S
C219 C227 1.433 . S
C220 H216 0.929 . S
C220 C222 1.378 . S
C220 C224 1.350 . S
C221 C224 1.463 . S
C221 C226 1.350 . S
C221 N229 1.427 . S
C222 H213 0.930 . S
C222 C220 1.378 . S
C222 C223 1.367 . S
C223 C222 1.367 . S
C223 C225 1.433 . S
C224 C220 1.350 . S
C224 C221 1.463 . S
C224 N228 1.427 . S
C225 H215 0.929 . S
C225 C223 1.433 . S
C225 N228 1.384 . S
C226 H217 0.929 . S
C226 C218 1.378 . S
C226 C221 1.350 . S
C227 H214 0.929 . S
C227 C219 1.433 . S
C227 N229 1.384 . S
N228 C224 1.427 . S
N228 C225 1.384 . S
N229 C221 1.427 . S
N229 C227 1.384 . S
H230 C236 0.930 . S
H231 C240 0.930 1_455 S
H232 C245 0.929 . S
H233 C243 0.929 . S
H234 C238 0.929 . S
H235 C244 0.929 . S
C236 H230 0.930 . S
C236 C237 1.367 . S
C236 C244 1.378 . S
C237 C236 1.367 . S
C237 C245 1.433 . S
C238 H234 0.929 . S
C238 C240 1.378 . S
C238 C242 1.350 . S
C239 C242 1.463 . S
C239 C244 1.350 . S
C239 N247 1.427 . S
C240 H231 0.930 1_655 S
C240 C238 1.378 . S
C240 C241 1.367 . S
C241 C240 1.367 . S
C241 C243 1.433 . S
C242 C238 1.350 . S
C242 C239 1.463 . S
C242 N246 1.427 . S
C243 H233 0.929 . S
C243 C241 1.433 . S
C243 N246 1.384 . S
C244 H235 0.929 . S
C244 C236 1.378 . S
C244 C239 1.350 . S
C245 H232 0.929 . S
C245 C237 1.433 . S
C245 N247 1.384 . S
N246 C242 1.427 . S
N246 C243 1.384 . S
N247 C239 1.427 . S
N247 C245 1.384 . S
H248 C254 0.930 . S
H249 C258 0.930 . S
H250 C263 0.929 . S
H251 C261 0.929 . S
H252 C256 0.929 . S
H253 C262 0.929 . S
C254 H248 0.930 . S
C254 C255 1.367 . S
C254 C262 1.378 . S
C255 C254 1.367 . S
C255 C263 1.433 . S
C256 H252 0.929 . S
C256 C258 1.378 . S
C256 C260 1.350 . S
C257 C260 1.463 . S
C257 C262 1.350 . S
C257 N265 1.427 . S
C258 H249 0.930 . S
C258 C256 1.378 . S
C258 C259 1.367 . S
C259 C258 1.367 . S
C259 C261 1.433 . S
C260 C256 1.350 . S
C260 C257 1.463 . S
C260 N264 1.427 . S
C261 H251 0.929 . S
C261 C259 1.433 . S
C261 N264 1.384 . S
C262 H253 0.929 . S
C262 C254 1.378 . S
C262 C257 1.350 . S
C263 H250 0.929 . S
C263 C255 1.433 . S
C263 N265 1.384 . S
N264 C260 1.427 . S
N264 C261 1.384 . S
N265 C257 1.427 . S
N265 C263 1.384 . S
H266 C272 0.930 . S
H267 C276 0.930 1_545 S
H268 C281 0.929 . S
H269 C279 0.929 . S
H270 C274 0.929 . S
H271 C280 0.929 . S
C272 H266 0.930 . S
C272 C273 1.367 . S
C272 C280 1.378 . S
C273 C272 1.367 . S
C273 C281 1.433 . S
C274 H270 0.929 . S
C274 C276 1.378 . S
C274 C278 1.350 . S
C275 C278 1.463 . S
C275 C280 1.350 . S
C275 N283 1.427 . S
C276 H267 0.930 1_565 S
C276 C274 1.378 . S
C276 C277 1.367 . S
C277 C276 1.367 . S
C277 C279 1.433 . S
C278 C274 1.350 . S
C278 C275 1.463 . S
C278 N282 1.427 . S
C279 H269 0.929 . S
C279 C277 1.433 . S
C279 N282 1.384 . S
C280 H271 0.929 . S
C280 C272 1.378 . S
C280 C275 1.350 . S
C281 H268 0.929 . S
C281 C273 1.433 . S
C281 N283 1.384 . S
N282 C278 1.427 . S
N282 C279 1.384 . S
N283 C275 1.427 . S
N283 C281 1.384 . S
H284 C290 0.930 . S
H285 C294 0.930 . S
H286 C299 0.929 . S
H287 C297 0.929 . S
H288 C292 0.929 . S
H289 C298 0.929 . S
C290 H284 0.930 . S
C290 C291 1.367 . S
C290 C298 1.378 . S
C291 C290 1.367 . S
C291 C299 1.433 . S
C292 H288 0.929 . S
C292 C294 1.378 . S
C292 C296 1.350 . S
C293 C296 1.463 . S
C293 C298 1.350 . S
C293 N301 1.427 . S
C294 H285 0.930 . S
C294 C292 1.378 . S
C294 C295 1.367 . S
C295 C294 1.367 . S
C295 C297 1.433 . S
C296 C292 1.350 . S
C296 C293 1.463 . S
C296 N300 1.427 . S
C297 H287 0.929 . S
C297 C295 1.433 . S
C297 N300 1.384 . S
C298 H289 0.929 . S
C298 C290 1.378 . S
C298 C293 1.350 . S
C299 H286 0.929 . S
C299 C291 1.433 . S
C299 N301 1.384 . S
N300 C296 1.427 . S
N300 C297 1.384 . S
N301 C293 1.427 . S
N301 C299 1.384 . S
H302 C308 0.930 . S
H303 C312 0.930 . S
H304 C317 0.929 . S
H305 C315 0.929 . S
H306 C310 0.929 . S
H307 C316 0.929 . S
C308 H302 0.930 . S
C308 C309 1.367 . S
C308 C316 1.378 . S
C309 C308 1.367 . S
C309 C317 1.433 . S
C310 H306 0.929 . S
C310 C312 1.378 . S
C310 C314 1.350 . S
C311 C314 1.463 . S
C311 C316 1.350 . S
C311 N319 1.427 . S
C312 H303 0.930 . S
C312 C310 1.378 . S
C312 C313 1.367 . S
C313 C312 1.367 . S
C313 C315 1.433 . S
C314 C310 1.350 . S
C314 C311 1.463 . S
C314 N318 1.427 . S
C315 H305 0.929 . S
C315 C313 1.433 . S
C315 N318 1.384 . S
C316 H307 0.929 . S
C316 C308 1.378 . S
C316 C311 1.350 . S
C317 H304 0.929 . S
C317 C309 1.433 . S
C317 N319 1.384 . S
N318 C314 1.427 . S
N318 C315 1.384 . S
N319 C311 1.427 . S
N319 C317 1.384 . S
H320 C326 0.930 . S
H321 C330 0.930 . S
H322 C335 0.929 . S
H323 C333 0.929 . S
H324 C328 0.929 . S
H325 C334 0.929 . S
C326 H320 0.930 . S
C326 C327 1.367 . S
C326 C334 1.378 . S
C327 C326 1.367 . S
C327 C335 1.433 . S
C328 H324 0.929 . S
C328 C330 1.378 . S
C328 C332 1.350 . S
C329 C332 1.463 . S
C329 C334 1.350 . S
C329 N337 1.427 . S
C330 H321 0.930 . S
C330 C328 1.378 . S
C330 C331 1.367 . S
C331 C330 1.367 . S
C331 C333 1.433 . S
C332 C328 1.350 . S
C332 C329 1.463 . S
C332 N336 1.427 . S
C333 H323 0.929 . S
C333 C331 1.433 . S
C333 N336 1.384 . S
C334 H325 0.929 . S
C334 C326 1.378 . S
C334 C329 1.350 . S
C335 H322 0.929 . S
C335 C327 1.433 . S
C335 N337 1.384 . S
N336 C332 1.427 . S
N336 C333 1.384 . S
N337 C329 1.427 . S
N337 C335 1.384 . S
H338 C344 0.930 . S
H339 C348 0.930 . S
H340 C353 0.929 . S
H341 C351 0.929 . S
H342 C346 0.929 . S
H343 C352 0.929 . S
C344 H338 0.930 . S
C344 C345 1.367 . S
C344 C352 1.378 . S
C345 C344 1.367 . S
C345 C353 1.433 . S
C346 H342 0.929 . S
C346 C348 1.378 . S
C346 C350 1.350 . S
C347 C350 1.463 . S
C347 C352 1.350 . S
C347 N355 1.427 . S
C348 H339 0.930 . S
C348 C346 1.378 . S
C348 C349 1.367 . S
C349 C348 1.367 . S
C349 C351 1.433 . S
C350 C346 1.350 . S
C350 C347 1.463 . S
C350 N354 1.427 . S
C351 H341 0.929 . S
C351 C349 1.433 . S
C351 N354 1.384 . S
C352 H343 0.929 . S
C352 C344 1.378 . S
C352 C347 1.350 . S
C353 H340 0.929 . S
C353 C345 1.433 . S
C353 N355 1.384 . S
N354 C350 1.427 . S
N354 C351 1.384 . S
N355 C347 1.427 . S
N355 C353 1.384 . S
H356 C362 0.930 . S
H357 C366 0.930 . S
H358 C371 0.929 . S
H359 C369 0.929 . S
H360 C364 0.929 . S
H361 C370 0.929 . S
C362 H356 0.930 . S
C362 C363 1.367 . S
C362 C370 1.378 . S
C363 C362 1.367 . S
C363 C371 1.433 . S
C364 H360 0.929 . S
C364 C366 1.378 . S
C364 C368 1.350 . S
C365 C368 1.463 . S
C365 C370 1.350 . S
C365 N373 1.427 . S
C366 H357 0.930 . S
C366 C364 1.378 . S
C366 C367 1.367 . S
C367 C366 1.367 . S
C367 C369 1.433 . S
C368 C364 1.350 . S
C368 C365 1.463 . S
C368 N372 1.427 . S
C369 H359 0.929 . S
C369 C367 1.433 . S
C369 N372 1.384 . S
C370 H361 0.929 . S
C370 C362 1.378 . S
C370 C365 1.350 . S
C371 H358 0.929 . S
C371 C363 1.433 . S
C371 N373 1.384 . S
N372 C368 1.427 . S
N372 C369 1.384 . S
N373 C365 1.427 . S
N373 C371 1.384 . S
H374 C380 0.930 . S
H375 C384 0.930 . S
H376 C389 0.929 . S
H377 C387 0.929 . S
H378 C382 0.929 . S
H379 C388 0.929 . S
C380 H374 0.930 . S
C380 C381 1.367 . S
C380 C388 1.378 . S
C381 C380 1.367 . S
C381 C389 1.433 . S
C382 H378 0.929 . S
C382 C384 1.378 . S
C382 C386 1.350 . S
C383 C386 1.463 . S
C383 C388 1.350 . S
C383 N391 1.427 . S
C384 H375 0.930 . S
C384 C382 1.378 . S
C384 C385 1.367 . S
C385 C384 1.367 . S
C385 C387 1.433 . S
C386 C382 1.350 . S
C386 C383 1.463 . S
C386 N390 1.427 . S
C387 H377 0.929 . S
C387 C385 1.433 . S
C387 N390 1.384 . S
C388 H379 0.929 . S
C388 C380 1.378 . S
C388 C383 1.350 . S
C389 H376 0.929 . S
C389 C381 1.433 . S
C389 N391 1.384 . S
N390 C386 1.427 . S
N390 C387 1.384 . S
N391 C383 1.427 . S
N391 C389 1.384 . S
H392 C398 0.930 . S
H393 C402 0.930 . S
H394 C407 0.929 . S
H395 C405 0.929 . S
H396 C400 0.929 . S
H397 C406 0.929 . S
C398 H392 0.930 . S
C398 C399 1.367 . S
C398 C406 1.378 . S
C399 C398 1.367 . S
C399 C407 1.433 . S
C400 H396 0.929 . S
C400 C402 1.378 . S
C400 C404 1.350 . S
C401 C404 1.463 . S
C401 C406 1.350 . S
C401 N409 1.427 . S
C402 H393 0.930 . S
C402 C400 1.378 . S
C402 C403 1.367 . S
C403 C402 1.367 . S
C403 C405 1.433 . S
C404 C400 1.350 . S
C404 C401 1.463 . S
C404 N408 1.427 . S
C405 H395 0.929 . S
C405 C403 1.433 . S
C405 N408 1.384 . S
C406 H397 0.929 . S
C406 C398 1.378 . S
C406 C401 1.350 . S
C407 H394 0.929 . S
C407 C399 1.433 . S
C407 N409 1.384 . S
N408 C404 1.427 . S
N408 C405 1.384 . S
N409 C401 1.427 . S
N409 C407 1.384 . S
H410 C416 0.930 . S
H411 C420 0.930 . S
H412 C425 0.929 . S
H413 C423 0.929 . S
H414 C418 0.929 . S
H415 C424 0.929 . S
C416 H410 0.930 . S
C416 C417 1.367 . S
C416 C424 1.378 . S
C417 C416 1.367 . S
C417 C425 1.433 . S
C418 H414 0.929 . S
C418 C420 1.378 . S
C418 C422 1.350 . S
C419 C422 1.463 . S
C419 C424 1.350 . S
C419 N427 1.427 . S
C420 H411 0.930 . S
C420 C418 1.378 . S
C420 C421 1.367 . S
C421 C420 1.367 . S
C421 C423 1.433 . S
C422 C418 1.350 . S
C422 C419 1.463 . S
C422 N426 1.427 . S
C423 H413 0.929 . S
C423 C421 1.433 . S
C423 N426 1.384 . S
C424 H415 0.929 . S
C424 C416 1.378 . S
C424 C419 1.350 . S
C425 H412 0.929 . S
C425 C417 1.433 . S
C425 N427 1.384 . S
N426 C422 1.427 . S
N426 C423 1.384 . S
N427 C419 1.427 . S
N427 C425 1.384 . S
H428 C434 0.930 . S
H429 C438 0.930 . S
H430 C443 0.929 . S
H431 C441 0.929 . S
H432 C436 0.929 . S
H433 C442 0.929 . S
C434 H428 0.930 . S
C434 C435 1.367 . S
C434 C442 1.378 . S
C435 C434 1.367 . S
C435 C443 1.433 . S
C436 H432 0.929 . S
C436 C438 1.378 . S
C436 C440 1.350 . S
C437 C440 1.463 . S
C437 C442 1.350 . S
C437 N445 1.427 . S
C438 H429 0.930 . S
C438 C436 1.378 . S
C438 C439 1.367 . S
C439 C438 1.367 . S
C439 C441 1.433 . S
C440 C436 1.350 . S
C440 C437 1.463 . S
C440 N444 1.427 . S
C441 H431 0.929 . S
C441 C439 1.433 . S
C441 N444 1.384 . S
C442 H433 0.929 . S
C442 C434 1.378 . S
C442 C437 1.350 . S
C443 H430 0.929 . S
C443 C435 1.433 . S
C443 N445 1.384 . S
N444 C440 1.427 . S
N444 C441 1.384 . S
N445 C437 1.427 . S
N445 C443 1.384 . S
H446 C452 0.930 . S
H447 C456 0.930 . S
H448 C461 0.929 . S
H449 C459 0.929 . S
H450 C454 0.929 . S
H451 C460 0.929 . S
C452 H446 0.930 . S
C452 C453 1.367 . S
C452 C460 1.378 . S
C453 C452 1.367 . S
C453 C461 1.433 . S
C454 H450 0.929 . S
C454 C456 1.378 . S
C454 C458 1.350 . S
C455 C458 1.463 . S
C455 C460 1.350 . S
C455 N463 1.427 . S
C456 H447 0.930 . S
C456 C454 1.378 . S
C456 C457 1.367 . S
C457 C456 1.367 . S
C457 C459 1.433 . S
C458 C454 1.350 . S
C458 C455 1.463 . S
C458 N462 1.427 . S
C459 H449 0.929 . S
C459 C457 1.433 . S
C459 N462 1.384 . S
C460 H451 0.929 . S
C460 C452 1.378 . S
C460 C455 1.350 . S
C461 H448 0.929 . S
C461 C453 1.433 . S
C461 N463 1.384 . S
N462 C458 1.427 . S
N462 C459 1.384 . S
N463 C455 1.427 . S
N463 C461 1.384 . S
H464 C470 0.930 . S
H465 C474 0.930 . S
H466 C479 0.929 . S
H467 C477 0.929 . S
H468 C472 0.929 . S
H469 C478 0.929 . S
C470 H464 0.930 . S
C470 C471 1.367 . S
C470 C478 1.378 . S
C471 C470 1.367 . S
C471 C479 1.433 . S
C472 H468 0.929 . S
C472 C474 1.378 . S
C472 C476 1.350 . S
C473 C476 1.463 . S
C473 C478 1.350 . S
C473 N481 1.427 . S
C474 H465 0.930 . S
C474 C472 1.378 . S
C474 C475 1.367 . S
C475 C474 1.367 . S
C475 C477 1.433 . S
C476 C472 1.350 . S
C476 C473 1.463 . S
C476 N480 1.427 . S
C477 H467 0.929 . S
C477 C475 1.433 . S
C477 N480 1.384 . S
C478 H469 0.929 . S
C478 C470 1.378 . S
C478 C473 1.350 . S
C479 H466 0.929 . S
C479 C471 1.433 . S
C479 N481 1.384 . S
N480 C476 1.427 . S
N480 C477 1.384 . S
N481 C473 1.427 . S
N481 C479 1.384 . S
H482 C488 0.930 . S
H483 C492 0.930 . S
H484 C497 0.929 . S
H485 C495 0.929 . S
H486 C490 0.929 . S
H487 C496 0.929 . S
C488 H482 0.930 . S
C488 C489 1.367 . S
C488 C496 1.378 . S
C489 C488 1.367 . S
C489 C497 1.433 . S
C490 H486 0.929 . S
C490 C492 1.378 . S
C490 C494 1.350 . S
C491 C494 1.463 . S
C491 C496 1.350 . S
C491 N499 1.427 . S
C492 H483 0.930 . S
C492 C490 1.378 . S
C492 C493 1.367 . S
C493 C492 1.367 . S
C493 C495 1.433 . S
C494 C490 1.350 . S
C494 C491 1.463 . S
C494 N498 1.427 . S
C495 H485 0.929 . S
C495 C493 1.433 . S
C495 N498 1.384 . S
C496 H487 0.929 . S
C496 C488 1.378 . S
C496 C491 1.350 . S
C497 H484 0.929 . S
C497 C489 1.433 . S
C497 N499 1.384 . S
N498 C494 1.427 . S
N498 C495 1.384 . S
N499 C491 1.427 . S
N499 C497 1.384 . S
H500 C506 0.930 . S
H501 C510 0.930 . S
H502 C515 0.929 . S
H503 C513 0.929 . S
H504 C508 0.929 . S
H505 C514 0.929 . S
C506 H500 0.930 . S
C506 C507 1.367 . S
C506 C514 1.378 . S
C507 C506 1.367 . S
C507 C515 1.433 . S
C508 H504 0.929 . S
C508 C510 1.378 . S
C508 C512 1.350 . S
C509 C512 1.463 . S
C509 C514 1.350 . S
C509 N517 1.427 . S
C510 H501 0.930 . S
C510 C508 1.378 . S
C510 C511 1.367 . S
C511 C510 1.367 . S
C511 C513 1.433 . S
C512 C508 1.350 . S
C512 C509 1.463 . S
C512 N516 1.427 . S
C513 H503 0.929 . S
C513 C511 1.433 . S
C513 N516 1.384 . S
C514 H505 0.929 . S
C514 C506 1.378 . S
C514 C509 1.350 . S
C515 H502 0.929 . S
C515 C507 1.433 . S
C515 N517 1.384 . S
N516 C512 1.427 . S
N516 C513 1.384 . S
N517 C509 1.427 . S
N517 C515 1.384 . S
H518 C524 0.930 . S
H519 C528 0.930 . S
H520 C533 0.929 . S
H521 C531 0.929 . S
H522 C526 0.929 . S
H523 C532 0.929 . S
C524 H518 0.930 . S
C524 C525 1.367 . S
C524 C532 1.378 . S
C525 C524 1.367 . S
C525 C533 1.433 . S
C526 H522 0.929 . S
C526 C528 1.378 . S
C526 C530 1.350 . S
C527 C530 1.463 . S
C527 C532 1.350 . S
C527 N535 1.427 . S
C528 H519 0.930 . S
C528 C526 1.378 . S
C528 C529 1.367 . S
C529 C528 1.367 . S
C529 C531 1.433 . S
C530 C526 1.350 . S
C530 C527 1.463 . S
C530 N534 1.427 . S
C531 H521 0.929 . S
C531 C529 1.433 . S
C531 N534 1.384 . S
C532 H523 0.929 . S
C532 C524 1.378 . S
C532 C527 1.350 . S
C533 H520 0.929 . S
C533 C525 1.433 . S
C533 N535 1.384 . S
N534 C530 1.427 . S
N534 C531 1.384 . S
N535 C527 1.427 . S
N535 C533 1.384 . S
H536 C542 0.930 . S
H537 C546 0.930 . S
H538 C551 0.929 . S
H539 C549 0.929 . S
H540 C544 0.929 . S
H541 C550 0.929 . S
C542 H536 0.930 . S
C542 C543 1.367 . S
C542 C550 1.378 . S
C543 C542 1.367 . S
C543 C551 1.433 . S
C544 H540 0.929 . S
C544 C546 1.378 . S
C544 C548 1.350 . S
C545 C548 1.463 . S
C545 C550 1.350 . S
C545 N553 1.427 . S
C546 H537 0.930 . S
C546 C544 1.378 . S
C546 C547 1.367 . S
C547 C546 1.367 . S
C547 C549 1.433 . S
C548 C544 1.350 . S
C548 C545 1.463 . S
C548 N552 1.427 . S
C549 H539 0.929 . S
C549 C547 1.433 . S
C549 N552 1.384 . S
C550 H541 0.929 . S
C550 C542 1.378 . S
C550 C545 1.350 . S
C551 H538 0.929 . S
C551 C543 1.433 . S
C551 N553 1.384 . S
N552 C548 1.427 . S
N552 C549 1.384 . S
N553 C545 1.427 . S
N553 C551 1.384 . S
H554 C560 0.930 . S
H555 C564 0.930 . S
H556 C569 0.929 . S
H557 C567 0.929 . S
H558 C562 0.929 . S
H559 C568 0.929 . S
C560 H554 0.930 . S
C560 C561 1.367 . S
C560 C568 1.378 . S
C561 C560 1.367 . S
C561 C569 1.433 . S
C562 H558 0.929 . S
C562 C564 1.378 . S
C562 C566 1.350 . S
C563 C566 1.463 . S
C563 C568 1.350 . S
C563 N571 1.427 . S
C564 H555 0.930 . S
C564 C562 1.378 . S
C564 C565 1.367 . S
C565 C564 1.367 . S
C565 C567 1.433 . S
C566 C562 1.350 . S
C566 C563 1.463 . S
C566 N570 1.427 . S
C567 H557 0.929 . S
C567 C565 1.433 . S
C567 N570 1.384 . S
C568 H559 0.929 . S
C568 C560 1.378 . S
C568 C563 1.350 . S
C569 H556 0.929 . S
C569 C561 1.433 . S
C569 N571 1.384 . S
N570 C566 1.427 . S
N570 C567 1.384 . S
N571 C563 1.427 . S
N571 C569 1.384 . S
H572 C578 0.930 . S
H573 C582 0.930 . S
H574 C587 0.929 . S
H575 C585 0.929 . S
H576 C580 0.929 . S
H577 C586 0.929 . S
C578 H572 0.930 . S
C578 C579 1.367 . S
C578 C586 1.378 . S
C579 C578 1.367 . S
C579 C587 1.433 . S
C580 H576 0.929 . S
C580 C582 1.378 . S
C580 C584 1.350 . S
C581 C584 1.463 . S
C581 C586 1.350 . S
C581 N589 1.427 . S
C582 H573 0.930 . S
C582 C580 1.378 . S
C582 C583 1.367 . S
C583 C582 1.367 . S
C583 C585 1.433 . S
C584 C580 1.350 . S
C584 C581 1.463 . S
C584 N588 1.427 . S
C585 H575 0.929 . S
C585 C583 1.433 . S
C585 N588 1.384 . S
C586 H577 0.929 . S
C586 C578 1.378 . S
C586 C581 1.350 . S
C587 H574 0.929 . S
C587 C579 1.433 . S
C587 N589 1.384 . S
N588 C584 1.427 . S
N588 C585 1.384 . S
N589 C581 1.427 . S
N589 C587 1.384 . S
H590 C596 0.930 . S
H591 C600 0.930 . S
H592 C605 0.929 . S
H593 C603 0.929 . S
H594 C598 0.929 . S
H595 C604 0.929 . S
C596 H590 0.930 . S
C596 C597 1.367 . S
C596 C604 1.378 . S
C597 C596 1.367 . S
C597 C605 1.433 . S
C598 H594 0.929 . S
C598 C600 1.378 . S
C598 C602 1.350 . S
C599 C602 1.463 . S
C599 C604 1.350 . S
C599 N607 1.427 . S
C600 H591 0.930 . S
C600 C598 1.378 . S
C600 C601 1.367 . S
C601 C600 1.367 . S
C601 C603 1.433 . S
C602 C598 1.350 . S
C602 C599 1.463 . S
C602 N606 1.427 . S
C603 H593 0.929 . S
C603 C601 1.433 . S
C603 N606 1.384 . S
C604 H595 0.929 . S
C604 C596 1.378 . S
C604 C599 1.350 . S
C605 H592 0.929 . S
C605 C597 1.433 . S
C605 N607 1.384 . S
N606 C602 1.427 . S
N606 C603 1.384 . S
N607 C599 1.427 . S
N607 C605 1.384 . S
C183 C6 1.580 . S
C187 C115 1.577 . S
C201 C18 1.551 . S
C205 C118 1.482 . S
C223 C154 1.806 . S
C219 C28 1.814 . S
C237 C40 1.138 . S
C241 C174 1.118 . S
C259 C128 1.912 . S
C255 C9 1.933 . S
C277 C105 1.447 . S
C273 C16 1.471 . S
C295 C158 1.480 . S
C291 C30 1.598 . S
C313 C138 1.134 . S
C309 C42 1.178 . S
C327 C4 1.368 . S
C331 C168 1.281 . S
C349 C134 1.756 . S
C345 C33 1.764 . S
C363 C45 1.467 . S
C367 C100 1.417 . S
C381 C21 1.547 . S
C385 C148 1.505 . S
C403 C114 1.608 . S
C399 C57 1.616 . S
C417 C66 1.527 . S
C421 C120 1.479 . S
C435 C76 1.836 . S
C439 C155 1.823 . S
C453 C88 1.073 . S
C457 C175 1.060 . S
C471 C54 1.911 . S
C475 C125 1.896 . S
C493 C108 1.503 . S
C489 C64 1.526 . S
C511 C160 1.397 . S
C507 C78 1.531 . S
C529 C140 1.183 . S
C525 C93 1.220 . S
C543 C52 1.342 . S
C547 C165 1.262 . S
C565 C135 1.752 . S
C561 C81 1.764 . S
C583 C98 1.373 . S
C579 C90 1.434 . S
C597 C69 1.567 . S
C601 C145 1.528 . S
