# Generated by pormake.
# Topology pyr, (3,6)-cn, num edge types: 1
# Building blocks:
#     Node 0, Type 0, BuildingBlock: BETDAH_clean_linker_0, # of connection points: 3
#     Node 1, Type 0, BuildingBlock: BETDAH_clean_linker_0, # of connection points: 3
#     Node 2, Type 0, BuildingBlock: BETDAH_clean_linker_0, # of connection points: 3
#     Node 3, Type 0, BuildingBlock: BETDAH_clean_linker_0, # of connection points: 3
#     Node 4, Type 0, BuildingBlock: BETDAH_clean_linker_0, # of connection points: 3
#     Node 5, Type 0, BuildingBlock: BETDAH_clean_linker_0, # of connection points: 3
#     Node 6, Type 0, BuildingBlock: BETDAH_clean_linker_0, # of connection points: 3
#     Node 7, Type 0, BuildingBlock: BETDAH_clean_linker_0, # of connection points: 3
#     Node 8, Type 1, BuildingBlock: BETFAJ_clean_sbu_0, # of connection points: 6
#     Node 9, Type 1, BuildingBlock: BETFAJ_clean_sbu_0, # of connection points: 6
#     Node 10, Type 1, BuildingBlock: BETFAJ_clean_sbu_0, # of connection points: 6
#     Node 11, Type 1, BuildingBlock: BETFAJ_clean_sbu_0, # of connection points: 6
#     Edge 12, Type (0, 1), BuildingBlock: XIVTED_clean_linker_0, # of connection points: 2
#     Edge 13, Type (0, 1), BuildingBlock: XIVTED_clean_linker_0, # of connection points: 2
#     Edge 14, Type (0, 1), BuildingBlock: XIVTED_clean_linker_0, # of connection points: 2
#     Edge 15, Type (0, 1), BuildingBlock: XIVTED_clean_linker_0, # of connection points: 2
#     Edge 16, Type (0, 1), BuildingBlock: XIVTED_clean_linker_0, # of connection points: 2
#     Edge 17, Type (0, 1), BuildingBlock: XIVTED_clean_linker_0, # of connection points: 2
#     Edge 18, Type (0, 1), BuildingBlock: XIVTED_clean_linker_0, # of connection points: 2
#     Edge 19, Type (0, 1), BuildingBlock: XIVTED_clean_linker_0, # of connection points: 2
#     Edge 20, Type (0, 1), BuildingBlock: XIVTED_clean_linker_0, # of connection points: 2
#     Edge 21, Type (0, 1), BuildingBlock: XIVTED_clean_linker_0, # of connection points: 2
#     Edge 22, Type (0, 1), BuildingBlock: XIVTED_clean_linker_0, # of connection points: 2
#     Edge 23, Type (0, 1), BuildingBlock: XIVTED_clean_linker_0, # of connection points: 2
#     Edge 24, Type (0, 1), BuildingBlock: XIVTED_clean_linker_0, # of connection points: 2
#     Edge 25, Type (0, 1), BuildingBlock: XIVTED_clean_linker_0, # of connection points: 2
#     Edge 26, Type (0, 1), BuildingBlock: XIVTED_clean_linker_0, # of connection points: 2
#     Edge 27, Type (0, 1), BuildingBlock: XIVTED_clean_linker_0, # of connection points: 2
#     Edge 28, Type (0, 1), BuildingBlock: XIVTED_clean_linker_0, # of connection points: 2
#     Edge 29, Type (0, 1), BuildingBlock: XIVTED_clean_linker_0, # of connection points: 2
#     Edge 30, Type (0, 1), BuildingBlock: XIVTED_clean_linker_0, # of connection points: 2
#     Edge 31, Type (0, 1), BuildingBlock: XIVTED_clean_linker_0, # of connection points: 2
#     Edge 32, Type (0, 1), BuildingBlock: XIVTED_clean_linker_0, # of connection points: 2
#     Edge 33, Type (0, 1), BuildingBlock: XIVTED_clean_linker_0, # of connection points: 2
#     Edge 34, Type (0, 1), BuildingBlock: XIVTED_clean_linker_0, # of connection points: 2
#     Edge 35, Type (0, 1), BuildingBlock: XIVTED_clean_linker_0, # of connection points: 2
# Relax obj value: 0.146
# Max RMSD: 0.193
# Mean RMSD: 0.140
data_MOF--net-pyr--node1-BETFAJ_clean_sbu_0--node2-BETDAH_clean_linker_0--edge1-XIVTED_clean_linker_0
_symmetry_space_group_name_H-M    P1
_symmetry_Int_Tables_number       1
_symmetry_cell_setting            triclinic
loop_
_symmetry_equiv_pos_as_xyz
'x, y, z'
_cell_length_a     37.409582
_cell_length_b     41.471678
_cell_length_c     38.862572
_cell_angle_alpha  92.144907
_cell_angle_beta   89.428558
_cell_angle_gamma 106.19076
loop_
_atom_site_label
_atom_site_type_symbol
_atom_site_fract_x
_atom_site_fract_y
_atom_site_fract_z
_atom_type_partial_charge
H0 H 0.38477 0.24647 0.2738 0.0
H1 H 0.41923 0.31882 0.19584 0.0
H2 H 0.34284 0.33343 0.27439 0.0
C3 C 0.38385 0.27001 0.26311 0.0
C4 C 0.36086 0.28843 0.27777 0.0
C5 C 0.40375 0.28015 0.23309 0.0
C6 C 0.40395 0.3109 0.21931 0.0
C7 C 0.38271 0.33063 0.23463 0.0
C8 C 0.36064 0.31906 0.26358 0.0
N9 N 0.38322 0.36142 0.21966 0.0
C10 C 0.35313 0.37495 0.22043 0.0
H11 H 0.29547 0.836 0.69916 0.0
H12 H 0.28211 0.93521 0.6905 0.0
H13 H 0.29051 0.87611 0.59991 0.0
C14 C 0.28984 0.85529 0.68369 0.0
C15 C 0.29294 0.85265 0.64797 0.0
C16 C 0.28792 0.88566 0.69941 0.0
C17 C 0.28336 0.91131 0.67901 0.0
C18 C 0.28335 0.90714 0.64323 0.0
C19 C 0.28772 0.87785 0.62767 0.0
N20 N 0.277 0.93181 0.62265 0.0
C21 C 0.24062 0.93222 0.62101 0.0
H22 H 0.71665 0.34477 0.94817 0.0
H23 H 0.7069 0.42425 0.88206 0.0
H24 H 0.61849 0.33247 0.88811 0.0
C25 C 0.70142 0.35512 0.93009 0.0
C26 C 0.6659 0.33513 0.92016 0.0
C27 C 0.71684 0.38799 0.91774 0.0
C28 C 0.6963 0.39945 0.89216 0.0
C29 C 0.66091 0.37915 0.88075 0.0
C30 C 0.646 0.34763 0.89579 0.0
N31 N 0.63755 0.38912 0.8562 0.0
C32 C 0.6439 0.41525 0.83252 0.0
H33 H 0.83926 0.7491 0.45197 0.0
H34 H 0.91141 0.7508 0.36376 0.0
H35 H 0.8169 0.66515 0.38032 0.0
C36 C 0.84736 0.73695 0.42919 0.0
C37 C 0.82517 0.70496 0.41899 0.0
C38 C 0.87914 0.75377 0.41033 0.0
C39 C 0.88805 0.73786 0.37936 0.0
C40 C 0.86563 0.70536 0.36845 0.0
C41 C 0.83472 0.68944 0.38889 0.0
N42 N 0.86855 0.68929 0.33539 0.0
C43 C 0.89889 0.68844 0.31385 0.0
H44 H 0.73987 0.77441 0.81784 0.0
H45 H 0.66582 0.75028 0.90456 0.0
H46 H 0.65367 0.82332 0.83322 0.0
C47 C 0.71559 0.77656 0.83221 0.0
C48 C 0.69656 0.79903 0.82133 0.0
C49 C 0.70572 0.75937 0.86272 0.0
C50 C 0.67479 0.76388 0.88132 0.0
C51 C 0.65616 0.78708 0.87105 0.0
C52 C 0.66756 0.80513 0.84121 0.0
N53 N 0.62563 0.7912 0.8909 0.0
C54 C 0.61992 0.82224 0.8997 0.0
H55 H 0.75592 0.15989 0.45639 0.0
H56 H 0.81665 0.24374 0.52044 0.0
H57 H 0.74257 0.2583 0.44327 0.0
C58 C 0.7608 0.1858 0.46557 0.0
C59 C 0.7445 0.20706 0.44837 0.0
C60 C 0.78765 0.19917 0.49086 0.0
C61 C 0.79566 0.2331 0.50098 0.0
C62 C 0.77976 0.25421 0.48352 0.0
C63 C 0.75408 0.24141 0.45732 0.0
N64 N 0.79097 0.28874 0.49154 0.0
C65 C 0.77294 0.30051 0.51805 0.0
H66 H 0.3371 0.77315 0.19528 0.0
H67 H 0.33994 0.69293 0.26236 0.0
H68 H 0.42797 0.7861 0.26527 0.0
C69 C 0.3512 0.76299 0.21455 0.0
C70 C 0.38507 0.78341 0.22772 0.0
C71 C 0.33483 0.72994 0.22527 0.0
C72 C 0.35182 0.71811 0.25352 0.0
C73 C 0.38554 0.73892 0.26883 0.0
C74 C 0.40157 0.77098 0.25495 0.0
N75 N 0.40756 0.7292 0.29516 0.0
C76 C 0.40186 0.70478 0.32091 0.0
H77 H 0.21646 0.36227 0.66779 0.0
H78 H 0.20633 0.44009 0.74184 0.0
H79 H 0.11978 0.34665 0.73204 0.0
C80 C 0.20106 0.37144 0.68783 0.0
C81 C 0.16635 0.35038 0.69788 0.0
C82 C 0.21586 0.40421 0.7028 0.0
C83 C 0.19561 0.41527 0.72995 0.0
C84 C 0.16073 0.39438 0.74073 0.0
C85 C 0.14653 0.36252 0.724 0.0
N86 N 0.1378 0.40347 0.76735 0.0
C87 C 0.14327 0.43133 0.79069 0.0
Sm88 Sm 0.0389 0.06703 0.51731 0.0
Sm89 Sm 1.00064 0.04207 0.58453 0.0
C90 C 0.06268 0.09306 0.45841 0.0
C91 C 0.09745 0.11798 0.44997 0.0
C92 C 0.09635 0.14686 0.43299 0.0
C93 C 0.12936 0.17066 0.42467 0.0
C94 C 0.16376 0.1657 0.43329 0.0
C95 C 0.16468 0.13775 0.45212 0.0
C96 C 0.13178 0.11406 0.46045 0.0
C97 C 0.08031 0.04377 0.56278 0.0
C98 C 0.05568 0.11743 0.58618 0.0
C99 C 0.96652 1.00886 0.63699 0.0
C100 C 0.93835 0.97667 0.64114 0.0
C101 C 0.94779 0.95064 0.65745 0.0
C102 C 0.91996 0.92244 0.66705 0.0
C103 C 0.88247 0.9202 0.66059 0.0
C104 C 0.87338 0.94463 0.64127 0.0
C105 C 0.90113 0.97272 0.6316 0.0
C106 C 0.96818 0.0797 0.547 0.0
C107 C 0.98578 0.98927 0.51525 0.0
O108 O 0.03982 0.10446 0.478 0.0
O109 O 0.06563 0.06362 0.46701 0.0
O110 O 0.0469 0.03185 0.5557 0.0
O111 O 0.09534 0.06796 0.54248 0.0
O112 O 0.04957 0.11551 0.55253 0.0
O113 O 0.04583 0.08994 0.60446 0.0
O114 O 1.00005 1.00808 0.62765 0.0
O115 O 0.95513 0.03186 0.62202 0.0
O116 O 0.9801 0.05639 0.5349 0.0
O117 O 0.97217 0.08365 0.58001 0.0
O118 O 0.98002 0.99377 0.54871 0.0
O119 O 1.00563 1.01421 0.49676 0.0
H120 H 0.07 0.15063 0.42557 0.0
H121 H 0.12796 0.19195 0.40996 0.0
H122 H 0.19092 0.13368 0.45944 0.0
H123 H 0.13337 0.09249 0.4746 0.0
H124 H 0.97635 0.95299 0.6646 0.0
H125 H 0.92742 0.90364 0.68183 0.0
H126 H 0.8446 0.9436 0.63636 0.0
H127 H 0.89295 0.9922 0.61857 0.0
Sm128 Sm 0.55273 0.06039 0.08933 0.0
Sm129 Sm 0.49459 0.05413 0.05148 0.0
C130 C 0.6158 0.07483 0.12278 0.0
C131 C 0.62276 0.08981 0.15757 0.0
C132 C 0.62395 0.1237 0.16381 0.0
C133 C 0.62748 0.13723 0.19712 0.0
C134 C 0.63027 0.11723 0.22465 0.0
C135 C 0.62766 0.08311 0.21874 0.0
C136 C 0.62399 0.06947 0.18533 0.0
C137 C 0.49561 1.00934 0.11645 0.0
C138 C 0.49444 0.0972 0.11934 0.0
C139 C 0.43617 0.03913 1.01101 0.0
C140 C 0.42576 1.01733 0.98037 0.0
C141 C 0.41222 0.98226 0.98251 0.0
C142 C 0.4009 0.96249 0.95275 0.0
C143 C 0.40327 0.97782 0.92106 0.0
C144 C 0.41903 1.01239 0.91863 0.0
C145 C 0.43002 0.0321 0.94816 0.0
C146 C 0.54439 0.11657 0.04005 0.0
C147 C 0.55045 1.0119 0.02321 0.0
O148 O 0.60885 0.09422 0.09955 0.0
O149 O 0.59344 0.04444 0.1208 0.0
O150 O 0.50347 1.01274 0.08471 0.0
O151 O 0.51545 0.03511 0.13416 0.0
O152 O 0.53032 0.10126 0.11601 0.0
O153 O 0.47173 0.07349 0.10058 0.0
O154 O 0.4362 0.02491 0.04044 0.0
O155 O 0.4649 0.06493 1.00694 0.0
O156 O 0.55277 0.08887 0.03989 0.0
O157 O 0.5103 0.11189 0.04985 0.0
O158 O 0.5203 0.02058 1.01576 0.0
O159 O 0.56922 0.0243 0.05112 0.0
H160 H 0.62211 0.1399 0.14307 0.0
H161 H 0.62909 0.16358 0.2013 0.0
H162 H 0.63011 0.06736 0.23971 0.0
H163 H 0.62223 0.04309 0.18118 0.0
H164 H 0.40926 0.97028 1.00707 0.0
H165 H 0.38835 0.9357 0.95464 0.0
H166 H 0.42077 0.02431 0.89407 0.0
H167 H 0.44084 0.05904 0.94586 0.0
Sm168 Sm 0.52491 0.53765 0.55822 0.0
Sm169 Sm 0.53128 0.59662 0.60332 0.0
C170 C 0.5407 0.4876 0.52404 0.0
C171 C 0.56497 0.46774 0.53491 0.0
C172 C 0.59487 0.48224 0.55728 0.0
C173 C 0.61587 0.46267 0.57046 0.0
C174 C 0.60767 0.42837 0.5611 0.0
C175 C 0.57756 0.41393 0.53882 0.0
C176 C 0.55626 0.43351 0.52595 0.0
C177 C 0.45885 0.53375 0.5919 0.0
C178 C 0.56138 0.53794 0.63728 0.0
C179 C 0.51343 0.64021 0.64622 0.0
C180 C 0.49589 0.66702 0.64014 0.0
C181 C 0.457 0.65902 0.63746 0.0
C182 C 0.4401 0.68287 0.62737 0.0
C183 C 0.46163 0.71533 0.62 0.0
C184 C 0.50046 0.72393 0.62387 0.0
C185 C 0.51754 0.69987 0.63389 0.0
C186 C 0.59647 0.61188 0.56477 0.0
C187 C 0.4966 0.59751 0.52398 0.0
O188 O 0.55735 0.51906 0.51805 0.0
O189 O 0.51036 0.4837 0.54223 0.0
O190 O 0.49103 0.54363 0.60574 0.0
O191 O 0.46173 0.52758 0.55909 0.0
O192 O 0.55183 0.5219 0.60714 0.0
O193 O 0.55682 0.5682 0.64264 0.0
O194 O 0.49221 0.60965 0.64042 0.0
O195 O 0.5472 0.64454 0.6344 0.0
O196 O 0.57051 0.58492 0.56237 0.0
O197 O 0.58838 0.63196 0.58784 0.0
O198 O 0.49961 0.6106 0.55599 0.0
O199 O 0.50746 0.57012 0.51721 0.0
H200 H 0.60184 0.50866 0.56487 0.0
H201 H 0.63859 0.47443 0.58787 0.0
H202 H 0.57098 0.38769 0.53064 0.0
H203 H 0.53295 0.42195 0.5091 0.0
H204 H 0.43946 0.63408 0.64252 0.0
H205 H 0.41 0.67594 0.62587 0.0
H206 H 0.51757 0.74903 0.61878 0.0
H207 H 0.54759 0.70676 0.63602 0.0
Sm208 Sm 0.03827 0.54094 0.06776 0.0
Sm209 Sm 0.02893 0.60616 0.03092 0.0
C210 C 0.07155 0.49423 0.07944 0.0
C211 C 0.10266 0.49068 0.10083 0.0
C212 C 0.13728 0.49271 0.08522 0.0
C213 C 0.16595 0.48599 0.10375 0.0
C214 C 0.16063 0.47718 0.13824 0.0
C215 C 0.12694 0.47693 0.15458 0.0
C216 C 0.09808 0.48366 0.13599 0.0
C217 C 1.00702 0.57824 0.11483 0.0
C218 C 0.10135 0.61496 0.08365 0.0
C219 C 0.99844 0.65425 1.01549 0.0
C220 C 0.967 0.65772 0.99408 0.0
C221 C 0.93003 0.64501 1.00535 0.0
C222 C 0.90062 0.6513 0.98751 0.0
C223 C 0.90716 0.67056 0.95793 0.0
C224 C 0.94386 0.68183 0.94549 0.0
C225 C 0.97352 0.6756 0.9635 0.0
C226 C 0.05871 0.56749 0.98361 0.0
C227 C 0.96332 0.53128 0.02075 0.0
O228 O 0.08105 0.51539 0.05458 0.0
O229 O 0.04017 0.49491 0.09457 0.0
O230 O 0.01639 0.58507 0.08372 0.0
O231 O 0.01303 0.54954 0.12098 0.0
O232 O 0.08998 0.58208 0.08722 0.0
O233 O 0.08347 0.63074 0.06337 0.0
O234 O 0.98946 0.63584 0.04257 0.0
O235 O 0.02834 0.65041 0.99991 0.0
O236 O 0.04991 0.56172 1.01495 0.0
O237 O 0.05278 0.59605 0.97705 0.0
O238 O 0.97415 0.56428 1.01632 0.0
O239 O 0.98341 0.51591 0.03862 0.0
H240 H 0.14175 0.49817 0.05821 0.0
H241 H 0.19166 0.48596 0.09066 0.0
H242 H 0.12224 0.46971 0.1811 0.0
H243 H 0.07185 0.4821 0.14881 0.0
H244 H 0.92367 0.6309 0.02859 0.0
H245 H 0.87264 0.64162 0.99741 0.0
H246 H 0.94987 0.69676 0.92276 0.0
H247 H 1.00164 0.68566 0.9541 0.0
H248 H 0.33563 0.31982 0.33348 0.0
H249 H 0.21831 0.14389 0.40275 0.0
H250 H 0.3241 0.22236 0.28367 0.0
H251 H 0.18681 0.23445 0.42862 0.0
H252 H 0.2706 0.17652 0.37037 0.0
H253 H 0.29081 0.29224 0.37747 0.0
C254 C 0.32405 0.2928 0.33184 0.0
C255 C 0.33442 0.27335 0.30518 0.0
C256 C 0.25256 0.18941 0.38347 0.0
C257 C 0.28456 0.24213 0.35544 0.0
C258 C 0.22294 0.17085 0.4023 0.0
C259 C 0.19825 0.18658 0.41827 0.0
C260 C 0.2574 0.2239 0.38025 0.0
C261 C 0.20515 0.2215 0.41619 0.0
C262 C 0.29878 0.2772 0.35699 0.0
C263 C 0.31843 0.23845 0.30432 0.0
N264 N 0.23411 0.23916 0.39707 0.0
N265 N 0.2946 0.22406 0.32916 0.0
H266 H 0.34594 0.87086 0.7299 0.0
H267 H 0.34136 0.98689 0.89504 0.0
H268 H 0.25977 0.92036 0.74914 0.0
H269 H 0.41984 0.92859 0.88113 0.0
H270 H 0.30909 0.96046 0.84281 0.0
H271 H 0.37111 0.88904 0.78661 0.0
C272 C 0.3316 0.88475 0.7465 0.0
C273 C 0.30011 0.89346 0.73521 0.0
C274 C 0.33308 0.9531 0.85125 0.0
C275 C 0.32983 0.91546 0.79963 0.0
C276 C 0.35137 0.96813 0.88086 0.0
C277 C 0.38291 0.95958 0.8917 0.0
C278 C 0.34677 0.92961 0.8325 0.0
C279 C 0.39535 0.93542 0.87315 0.0
C280 C 0.34633 0.89546 0.77875 0.0
C281 C 0.28387 0.91291 0.75711 0.0
N282 N 0.37725 0.92129 0.84397 0.0
N283 N 0.29913 0.92348 0.7884 0.0
H284 H 0.64297 0.48181 0.8343 0.0
H285 H 0.57269 0.47461 0.63656 0.0
H286 H 0.62724 0.39519 0.76566 0.0
H287 H 0.58369 0.56151 0.70427 0.0
H288 H 0.5948 0.44663 0.68297 0.0
H289 H 0.6244 0.5125 0.78738 0.0
C290 C 0.63626 0.46938 0.80923 0.0
C291 C 0.63754 0.43592 0.80394 0.0
C292 C 0.59254 0.47186 0.68782 0.0
C293 C 0.6151 0.4709 0.74978 0.0
C294 C 0.57987 0.48805 0.66107 0.0
C295 C 0.57618 0.52086 0.66589 0.0
C296 C 0.60191 0.48821 0.72032 0.0
C297 C 0.58599 0.53638 0.69883 0.0
C298 C 0.62532 0.48689 0.7824 0.0
C299 C 0.62748 0.42107 0.77095 0.0
N300 N 0.59824 0.52007 0.72449 0.0
N301 N 0.61679 0.43845 0.74546 0.0
H302 H 0.9297 0.63632 0.31408 0.0
H303 H 0.98795 0.63992 0.11216 0.0
H304 H 0.91391 0.71252 0.24851 0.0
H305 H 0.99163 0.56203 0.18123 0.0
H306 H 0.96386 0.6691 0.16016 0.0
H307 H 0.9562 0.61166 0.26526 0.0
C308 C 0.93259 0.64839 0.28956 0.0
C309 C 0.92031 0.67713 0.28587 0.0
C310 C 0.96999 0.6456 0.1647 0.0
C311 C 0.95007 0.64815 0.22862 0.0
C312 C 0.98375 0.62884 0.13716 0.0
C313 C 0.99194 0.59811 0.1422 0.0
C314 C 0.9646 0.6318 0.19775 0.0
C315 C 0.98584 0.58543 0.1756 0.0
C316 C 0.94745 0.63404 0.26138 0.0
C317 C 0.92376 0.69083 0.25288 0.0
N318 N 0.97283 0.60212 0.20162 0.0
N319 N 0.93822 0.67633 0.22569 0.0
H320 H 0.36619 0.23165 0.18842 0.0
H321 H 0.53348 0.14724 0.16336 0.0
H322 H 0.47338 0.27122 0.23662 0.0
H323 H 0.42402 0.10512 0.11965 0.0
H324 H 0.51206 0.1925 0.19074 0.0
H325 H 0.38722 0.18549 0.16221 0.0
C326 C 0.3945 0.23084 0.19279 0.0
C327 C 0.41855 0.25548 0.21382 0.0
C328 C 0.49265 0.17326 0.17534 0.0
C329 C 0.44258 0.20251 0.18486 0.0
C330 C 0.50482 0.14732 0.1598 0.0
C331 C 0.48051 0.12232 0.13923 0.0
C332 C 0.45594 0.17441 0.17007 0.0
C333 C 0.4437 0.12375 0.13545 0.0
C334 C 0.40638 0.20439 0.17818 0.0
C335 C 0.45447 0.253 0.21982 0.0
N336 N 0.43261 0.14947 0.15055 0.0
N337 N 0.46548 0.22694 0.20534 0.0
H338 H 0.20442 0.95339 0.67295 0.0
H339 H 0.09203 0.9922 0.52686 0.0
H340 H 0.18986 0.90307 0.57303 0.0
H341 H 0.10242 0.04003 0.62793 0.0
H342 H 0.10671 0.94402 0.55052 0.0
H343 H 0.14405 0.9645 0.66699 0.0
C344 C 0.18781 0.94407 0.65011 0.0
C345 C 0.20221 0.92958 0.62229 0.0
C346 C 0.10619 0.96509 0.56766 0.0
C347 C 0.13521 0.94291 0.61477 0.0
C348 C 0.09911 0.99293 0.55393 0.0
C349 C 0.09915 0.0208 0.57527 0.0
C350 C 0.11482 0.96577 0.60278 0.0
C351 C 0.10498 0.01978 0.61052 0.0
C352 C 0.15338 0.95009 0.64676 0.0
C353 C 0.17985 0.91616 0.59401 0.0
N354 N 0.11355 0.99289 0.62321 0.0
N355 N 0.14743 0.92398 0.59042 0.0
H356 H 0.74877 0.3854 0.98202 0.0
H357 H 0.92295 0.54769 0.96813 0.0
H358 H 0.77017 0.44227 0.88934 0.0
H359 H 0.92078 0.46757 0.03638 0.0
H360 H 0.86425 0.51344 0.94223 0.0
H361 H 0.80822 0.41844 1.00477 0.0
C362 C 0.76579 0.40433 0.96583 0.0
C363 C 0.75363 0.40988 0.93274 0.0
C364 C 0.87665 0.50336 0.96284 0.0
C365 C 0.82264 0.44987 0.9606 0.0
C366 C 0.91019 0.52298 0.97783 0.0
C367 C 0.9272 0.51071 1.00471 0.0
C368 C 0.85922 0.47129 0.97512 0.0
C369 C 0.90906 0.47827 1.0158 0.0
C370 C 0.80001 0.42365 0.97938 0.0
C371 C 0.77741 0.43659 0.91482 0.0
N372 N 0.87615 0.45997 1.00125 0.0
N373 N 0.81039 0.45551 0.92896 0.0
H374 H 0.7641 0.72798 0.42819 0.0
H375 H 0.65255 0.58144 0.55181 0.0
H376 H 0.80759 0.64651 0.45525 0.0
H377 H 0.61457 0.66604 0.52462 0.0
H378 H 0.70841 0.6027 0.51578 0.0
H379 H 0.70807 0.70358 0.46185 0.0
C380 C 0.76177 0.70486 0.44127 0.0
C381 C 0.79048 0.68918 0.43872 0.0
C382 C 0.68766 0.6164 0.51741 0.0
C383 C 0.72626 0.66107 0.47808 0.0
C384 C 0.65572 0.60419 0.53783 0.0
C385 C 0.6289 0.62203 0.5411 0.0
C386 C 0.69245 0.64638 0.49971 0.0
C387 C 0.63464 0.65162 0.52292 0.0
C388 C 0.72975 0.69089 0.46057 0.0
C389 C 0.78592 0.65921 0.45623 0.0
N390 N 0.66552 0.66272 0.50302 0.0
N391 N 0.75457 0.64622 0.47529 0.0
H392 H 0.34921 0.43746 0.23969 0.0
H393 H 0.16716 0.41523 0.12522 0.0
H394 H 0.28828 0.34447 0.18916 0.0
H395 H 0.21418 0.50501 0.18733 0.0
H396 H 0.21167 0.3893 0.14971 0.0
H397 H 0.30004 0.46299 0.22324 0.0
C398 C 0.32509 0.42236 0.22563 0.0
C399 C 0.3224 0.38896 0.21569 0.0
C400 C 0.21229 0.41458 0.15832 0.0
C401 C 0.26688 0.4178 0.19635 0.0
C402 C 0.18693 0.42933 0.14428 0.0
C403 C 0.18713 0.46204 0.15451 0.0
C404 C 0.23846 0.43281 0.18261 0.0
C405 C 0.21324 0.47956 0.17908 0.0
C406 C 0.2972 0.43689 0.21616 0.0
C407 C 0.2911 0.37033 0.19732 0.0
N408 N 0.23818 0.46476 0.19224 0.0
N409 N 0.26468 0.38507 0.188 0.0
H410 H 0.68777 0.27653 0.91507 0.0
H411 H 0.52997 0.17712 0.04601 0.0
H412 H 0.60588 0.31806 0.96377 0.0
H413 H 0.60633 0.12973 0.99584 0.0
H414 H 0.55951 0.22892 1.017 0.0
H415 H 0.66022 0.22319 0.94393 0.0
C416 C 0.66399 0.27445 0.93183 0.0
C417 C 0.64898 0.3019 0.9367 0.0
C418 C 0.57007 0.20738 1.01221 0.0
C419 C 0.6176 0.24084 0.97059 0.0
C420 C 0.55317 0.17758 0.02895 0.0
C421 C 0.56554 0.1487 0.02362 0.0
C422 C 0.59987 0.20892 0.98942 0.0
C423 C 0.5959 0.15127 1.00107 0.0
C424 C 0.64829 0.24395 0.94837 0.0
C425 C 0.61816 0.2976 0.95882 0.0
N426 N 0.61187 0.1807 0.98476 0.0
N427 N 0.60377 0.26797 0.9749 0.0
H428 H 0.9006 0.77321 0.47687 0.0
H429 H 0.98075 0.97114 0.44575 0.0
H430 H 0.90667 0.81345 0.37564 0.0
H431 H 0.95757 0.9284 0.54576 0.0
H432 H 0.95812 0.91448 0.41896 0.0
H433 H 0.92659 0.82981 0.50129 0.0
C434 C 0.90771 0.79395 0.45959 0.0
C435 C 0.90106 0.78817 0.42394 0.0
C436 C 0.95795 0.9175 0.44675 0.0
C437 C 0.93127 0.85413 0.45228 0.0
C438 C 0.97086 0.94994 0.46217 0.0
C439 C 0.97091 0.95493 0.49826 0.0
C440 C 0.94534 0.88944 0.46745 0.0
C441 C 0.95781 0.92617 0.51792 0.0
C442 C 0.92254 0.82647 0.4737 0.0
C443 C 0.91145 0.8164 0.40314 0.0
N444 N 0.94579 0.89494 0.50236 0.0
N445 N 0.92578 0.84805 0.41758 0.0
H446 H 0.366 0.87576 0.65131 0.0
H447 H 0.40284 0.70756 0.57625 0.0
H448 H 0.27784 0.79027 0.61544 0.0
H449 H 0.47671 0.77986 0.64485 0.0
H450 H 0.36221 0.74458 0.57435 0.0
H451 H 0.41173 0.84707 0.63298 0.0
C452 C 0.35656 0.85085 0.63919 0.0
C453 C 0.31865 0.83482 0.63493 0.0
C454 C 0.38773 0.75248 0.58918 0.0
C455 C 0.37026 0.80206 0.61419 0.0
C456 C 0.41085 0.73153 0.59031 0.0
C457 C 0.44264 0.74048 0.61136 0.0
C458 C 0.39695 0.78253 0.60891 0.0
C459 C 0.45244 0.77201 0.62837 0.0
C460 C 0.38248 0.83462 0.62872 0.0
C461 C 0.30712 0.8029 0.61916 0.0
N462 N 0.42928 0.79176 0.62716 0.0
N463 N 0.33312 0.78714 0.60952 0.0
H464 H 0.69814 0.77673 0.75487 0.0
H465 H 0.88285 0.91213 0.72887 0.0
H466 H 0.73143 0.86524 0.82173 0.0
H467 H 0.81493 0.87953 0.63802 0.0
H468 H 0.83027 0.88414 0.76436 0.0
H469 H 0.74122 0.80624 0.71064 0.0
C470 C 0.71343 0.80283 0.75952 0.0
C471 C 0.71133 0.81895 0.79153 0.0
C472 C 0.82702 0.88296 0.73662 0.0
C473 C 0.76104 0.85163 0.74255 0.0
C474 C 0.85709 0.89828 0.71636 0.0
C475 C 0.85311 0.89771 0.68056 0.0
C476 C 0.79294 0.86673 0.72095 0.0
C477 C 0.81886 0.88022 0.66563 0.0
C478 C 0.73801 0.81941 0.73457 0.0
C479 C 0.73213 0.85234 0.79709 0.0
N480 N 0.78977 0.86511 0.68604 0.0
N481 N 0.75696 0.86743 0.77304 0.0
H482 H 0.68386 0.15264 0.44001 0.0
H483 H 0.68458 0.17434 0.23757 0.0
H484 H 0.75969 0.23232 0.38556 0.0
H485 H 0.60302 0.0953 0.28789 0.0
H486 H 0.70968 0.19726 0.29302 0.0
H487 H 0.65181 0.13127 0.38545 0.0
C488 C 0.6933 0.16573 0.41655 0.0
C489 C 0.72352 0.19464 0.41695 0.0
C490 C 0.68601 0.17513 0.29218 0.0
C491 C 0.688 0.17056 0.35538 0.0
C492 C 0.67142 0.16226 0.2605 0.0
C493 C 0.64165 0.13309 0.25842 0.0
C494 C 0.67086 0.15858 0.32199 0.0
C495 C 0.62622 0.11781 0.28874 0.0
C496 C 0.67519 0.15364 0.38565 0.0
C497 C 0.73564 0.21056 0.38623 0.0
N498 N 0.64124 0.13071 0.31957 0.0
N499 N 0.7178 0.19823 0.3566 0.0
H500 H 0.40935 0.64029 0.32385 0.0
H501 H 0.47935 0.65915 0.52333 0.0
H502 H 0.41702 0.72901 0.38754 0.0
H503 H 0.477 0.57295 0.45714 0.0
H504 H 0.45477 0.68416 0.47549 0.0
H505 H 0.4311 0.6145 0.37283 0.0
C506 C 0.41491 0.65422 0.34826 0.0
C507 C 0.41029 0.68681 0.35133 0.0
C508 C 0.4595 0.65971 0.47135 0.0
C509 C 0.43662 0.65734 0.40831 0.0
C510 C 0.47362 0.64525 0.49891 0.0
C511 C 0.48064 0.61353 0.49491 0.0
C512 C 0.45171 0.64254 0.43897 0.0
C513 C 0.47243 0.59734 0.46203 0.0
C514 C 0.42773 0.6395 0.37636 0.0
C515 C 0.41921 0.70364 0.38378 0.0
N516 N 0.45857 0.61181 0.43583 0.0
N517 N 0.43177 0.68891 0.41061 0.0
H518 H 0.16262 0.43367 0.85884 0.0
H519 H 0.0549 0.57155 0.91428 0.0
H520 H 0.10548 0.47886 0.78754 0.0
H521 H 0.09306 0.51488 0.98933 0.0
H522 H 0.0771 0.54034 0.86829 0.0
H523 H 0.14273 0.4657 0.90662 0.0
C524 C 0.14651 0.45084 0.85311 0.0
C525 C 0.13651 0.45404 0.81884 0.0
C526 C 0.08072 0.53453 0.89473 0.0
C527 C 0.11256 0.49044 0.87391 0.0
C528 C 0.06796 0.55247 0.92129 0.0
C529 C 0.07174 0.5461 0.95627 0.0
C530 C 0.0983 0.50981 0.90253 0.0
C531 C 0.089 0.52076 0.96309 0.0
C532 C 0.13478 0.46891 0.88053 0.0
C533 C 0.11466 0.47604 0.81331 0.0
N534 N 0.10175 0.50382 0.93664 0.0
N535 N 0.10359 0.49324 0.84029 0.0
H536 H 0.62389 0.83826 0.96688 0.0
H537 H 0.5332 0.9908 0.95564 0.0
H538 H 0.59733 0.87184 0.8693 0.0
H539 H 0.59311 0.97293 0.04396 0.0
H540 H 0.55158 0.94556 0.9235 0.0
H541 H 0.60742 0.8854 0.99595 0.0
C542 C 0.61491 0.85592 0.95161 0.0
C543 C 0.61219 0.85156 0.91582 0.0
C544 C 0.56078 0.95177 0.94986 0.0
C545 C 0.59293 0.90543 0.94873 0.0
C546 C 0.55026 0.97747 0.96818 0.0
C547 C 0.56186 0.9858 1.0024 0.0
C548 C 0.58231 0.93391 0.96623 0.0
C549 C 0.58386 0.9677 0.0175 0.0
C550 C 0.60546 0.88279 0.96815 0.0
C551 C 0.59993 0.87467 0.89705 0.0
N552 N 0.59308 0.94256 0.99945 0.0
N553 N 0.59058 0.9007 0.91377 0.0
H554 H 0.86207 0.22188 0.48662 0.0
H555 H 0.89628 0.0487 0.53462 0.0
H556 H 0.77302 0.13411 0.51081 0.0
H557 H 0.98308 0.14046 0.52034 0.0
H558 H 0.85011 0.07634 0.51616 0.0
H559 H 0.90646 0.18985 0.49199 0.0
C560 C 0.85201 0.19594 0.49394 0.0
C561 C 0.81409 0.18063 0.49913 0.0
C562 C 0.8793 0.09022 0.5164 0.0
C563 C 0.86456 0.14355 0.50414 0.0
C564 C 0.90539 0.07446 0.52658 0.0
C565 C 0.94273 0.09288 0.52886 0.0
C566 C 0.89126 0.12437 0.50888 0.0
C567 C 0.95411 0.12596 0.51879 0.0
C568 C 0.87729 0.17752 0.49639 0.0
C569 C 0.80224 0.14669 0.50709 0.0
N570 N 0.9282 0.14094 0.50944 0.0
N571 N 0.82761 0.12912 0.50953 0.0
H572 H 0.32303 0.72896 0.15516 0.0
H573 H 0.12063 0.59852 0.14682 0.0
H574 H 0.26847 0.68367 0.24683 0.0
H575 H 0.15869 0.67347 0.07075 0.0
H576 H 0.176 0.62484 0.18153 0.0
H577 H 0.26627 0.70417 0.12244 0.0
C578 C 0.29916 0.71381 0.16873 0.0
C579 C 0.30102 0.70937 0.20459 0.0
C580 C 0.17231 0.63571 0.15738 0.0
C581 C 0.23489 0.67944 0.16579 0.0
C582 C 0.14057 0.62064 0.1373 0.0
C583 C 0.13453 0.6336 0.10545 0.0
C584 C 0.19935 0.66385 0.14557 0.0
C585 C 0.1617 0.66252 0.09502 0.0
C586 C 0.26652 0.69957 0.14968 0.0
C587 C 0.26894 0.68815 0.21956 0.0
N588 N 0.19294 0.67631 0.11472 0.0
N589 N 0.23744 0.67407 0.2002 0.0
H590 H 0.27562 0.4489 0.73755 0.0
H591 H 0.3921 0.50129 0.5632 0.0
H592 H 0.23877 0.41095 0.6353 0.0
H593 H 0.44316 0.53007 0.6628 0.0
H594 H 0.33441 0.47216 0.591 0.0
H595 H 0.33482 0.48244 0.71278 0.0
C596 C 0.27972 0.44765 0.70997 0.0
C597 C 0.25184 0.42653 0.68871 0.0
C598 C 0.35799 0.48488 0.60705 0.0
C599 C 0.31992 0.46503 0.66011 0.0
C600 C 0.39122 0.50177 0.59107 0.0
C601 C 0.42297 0.51835 0.61047 0.0
C602 C 0.3556 0.48435 0.64314 0.0
C603 C 0.41953 0.51773 0.64666 0.0
C604 C 0.31372 0.46669 0.69587 0.0
C605 C 0.25927 0.4261 0.6531 0.0
N606 N 0.38653 0.50103 0.66181 0.0
N607 N 0.2922 0.44484 0.64017 0.0
H608 H 0.72373 0.75456 0.93012 0.0
H609 H 0.89032 0.67288 0.88896 0.0
H610 H 0.7457 0.72147 0.82734 0.0
H611 H 0.85318 0.69224 0.99113 0.0
H612 H 0.83847 0.69064 0.86492 0.0
H613 H 0.77049 0.73029 0.95225 0.0
C614 C 0.73778 0.74165 0.91217 0.0
C615 C 0.73054 0.7403 0.87671 0.0
C616 C 0.84161 0.69074 0.8926 0.0
C617 C 0.78567 0.71326 0.90201 0.0
C618 C 0.87132 0.68082 0.9063 0.0
C619 C 0.87601 0.68081 0.94215 0.0
C620 C 0.81674 0.70108 0.91494 0.0
C621 C 0.8504 0.69121 0.96339 0.0
C622 C 0.76497 0.72808 0.92484 0.0
C623 C 0.75067 0.72378 0.85482 0.0
N624 N 0.82212 0.70097 0.9495 0.0
N625 N 0.77754 0.71123 0.86777 0.0
H626 H 0.42908 0.84316 0.25847 0.0
H627 H 0.45358 0.94974 0.08546 0.0
H628 H 0.38289 0.80154 0.15981 0.0
H629 H 0.49714 0.99278 0.18423 0.0
H630 H 0.42741 0.89538 0.11235 0.0
H631 H 0.45537 0.89746 0.23184 0.0
C632 C 0.4244 0.84514 0.23129 0.0
C633 C 0.40297 0.81716 0.21185 0.0
C634 C 0.44268 0.9167 0.1282 0.0
C635 C 0.43299 0.88023 0.18094 0.0
C636 C 0.45758 0.94786 0.1128 0.0
C637 C 0.47761 0.97618 0.13248 0.0
C638 C 0.44799 0.91342 0.16366 0.0
C639 C 0.48179 0.97189 0.16791 0.0
C640 C 0.43929 0.87644 0.21608 0.0
C641 C 0.39811 0.8221 0.17654 0.0
N642 N 0.46736 0.94132 0.1822 0.0
N643 N 0.41274 0.8527 0.16248 0.0
H644 H 0.20047 0.29957 0.68709 0.0
H645 H 0.03987 0.1763 0.57266 0.0
H646 H 0.09641 0.32189 0.67009 0.0
H647 H 0.10792 0.13667 0.63868 0.0
H648 H 0.06621 0.23235 0.59984 0.0
H649 H 0.17366 0.24286 0.66113 0.0
C650 C 0.17205 0.29268 0.67779 0.0
C651 C 0.15069 0.31576 0.68114 0.0
C652 C 0.07543 0.21143 0.6084 0.0
C653 C 0.11992 0.25065 0.65064 0.0
C654 C 0.06048 0.17937 0.59281 0.0
C655 C 0.07152 0.1515 0.60339 0.0
C656 C 0.10274 0.21628 0.63417 0.0
C657 C 0.09831 0.15724 0.62981 0.0
C658 C 0.15671 0.26017 0.66313 0.0
C659 C 0.11392 0.30505 0.66849 0.0
N660 N 0.1133 0.18892 0.64391 0.0
N661 N 0.09994 0.27363 0.6536 0.0
H662 H 0.70049 0.27244 0.53011 0.0
H663 H 0.6833 0.44879 0.56505 0.0
H664 H 0.79452 0.35541 0.55938 0.0
H665 H 0.58896 0.36267 0.58052 0.0
H666 H 0.72455 0.41393 0.57239 0.0
H667 H 0.6589 0.30158 0.55835 0.0
C668 C 0.71227 0.29634 0.54367 0.0
C669 C 0.75041 0.31224 0.54232 0.0
C670 C 0.69489 0.4027 0.5752 0.0
C671 C 0.7038 0.34566 0.57355 0.0
C672 C 0.67122 0.42271 0.57105 0.0
C673 C 0.63257 0.40851 0.5717 0.0
C674 C 0.67986 0.36808 0.57922 0.0
C675 C 0.61862 0.37437 0.5789 0.0
C676 C 0.68869 0.31291 0.55976 0.0
C677 C 0.76495 0.34291 0.55984 0.0
N678 N 0.64229 0.35503 0.58161 0.0
N679 N 0.74144 0.35914 0.57422 0.0
loop_
_geom_bond_atom_site_label_1
_geom_bond_atom_site_label_2
_geom_bond_distance
_geom_bond_site_symmetry_2
_ccdc_geom_bond_type
H0 C3 0.929 . S
H1 C6 0.929 . S
H2 C8 0.930 . S
C3 H0 0.929 . S
C3 C4 1.398 . S
C3 C5 1.396 . S
C4 C3 1.398 . S
C4 C8 1.407 . S
C5 C3 1.396 . S
C5 C6 1.394 . S
C6 H1 0.929 . S
C6 C5 1.394 . S
C6 C7 1.382 . S
C7 C6 1.382 . S
C7 C8 1.392 . S
C7 N9 1.420 . S
C8 H2 0.930 . S
C8 C4 1.407 . S
C8 C7 1.392 . S
N9 C7 1.420 . S
N9 C10 1.244 . S
C10 N9 1.244 . S
H11 C14 0.929 . S
H12 C17 0.929 . S
H13 C19 0.930 . S
C14 H11 0.929 . S
C14 C15 1.398 . S
C14 C16 1.396 . S
C15 C14 1.398 . S
C15 C19 1.407 . S
C16 C14 1.396 . S
C16 C17 1.394 . S
C17 H12 0.929 . S
C17 C16 1.394 . S
C17 C18 1.382 . S
C18 C17 1.382 . S
C18 C19 1.392 . S
C18 N20 1.420 . S
C19 H13 0.930 . S
C19 C15 1.407 . S
C19 C18 1.392 . S
N20 C18 1.420 . S
N20 C21 1.244 . S
C21 N20 1.244 . S
H22 C25 0.929 . S
H23 C28 0.929 . S
H24 C30 0.930 . S
C25 H22 0.929 . S
C25 C26 1.398 . S
C25 C27 1.396 . S
C26 C25 1.398 . S
C26 C30 1.407 . S
C27 C25 1.396 . S
C27 C28 1.394 . S
C28 H23 0.929 . S
C28 C27 1.394 . S
C28 C29 1.382 . S
C29 C28 1.382 . S
C29 C30 1.392 . S
C29 N31 1.420 . S
C30 H24 0.930 . S
C30 C26 1.407 . S
C30 C29 1.392 . S
N31 C29 1.420 . S
N31 C32 1.244 . S
C32 N31 1.244 . S
H33 C36 0.929 . S
H34 C39 0.929 . S
H35 C41 0.930 . S
C36 H33 0.929 . S
C36 C37 1.398 . S
C36 C38 1.396 . S
C37 C36 1.398 . S
C37 C41 1.407 . S
C38 C36 1.396 . S
C38 C39 1.394 . S
C39 H34 0.929 . S
C39 C38 1.394 . S
C39 C40 1.382 . S
C40 C39 1.382 . S
C40 C41 1.392 . S
C40 N42 1.420 . S
C41 H35 0.930 . S
C41 C37 1.407 . S
C41 C40 1.392 . S
N42 C40 1.420 . S
N42 C43 1.244 . S
C43 N42 1.244 . S
H44 C47 0.929 . S
H45 C50 0.929 . S
H46 C52 0.930 . S
C47 H44 0.929 . S
C47 C48 1.398 . S
C47 C49 1.396 . S
C48 C47 1.398 . S
C48 C52 1.407 . S
C49 C47 1.396 . S
C49 C50 1.394 . S
C50 H45 0.929 . S
C50 C49 1.394 . S
C50 C51 1.382 . S
C51 C50 1.382 . S
C51 C52 1.392 . S
C51 N53 1.420 . S
C52 H46 0.930 . S
C52 C48 1.407 . S
C52 C51 1.392 . S
N53 C51 1.420 . S
N53 C54 1.244 . S
C54 N53 1.244 . S
H55 C58 0.929 . S
H56 C61 0.929 . S
H57 C63 0.930 . S
C58 H55 0.929 . S
C58 C59 1.398 . S
C58 C60 1.396 . S
C59 C58 1.398 . S
C59 C63 1.407 . S
C60 C58 1.396 . S
C60 C61 1.394 . S
C61 H56 0.929 . S
C61 C60 1.394 . S
C61 C62 1.382 . S
C62 C61 1.382 . S
C62 C63 1.392 . S
C62 N64 1.420 . S
C63 H57 0.930 . S
C63 C59 1.407 . S
C63 C62 1.392 . S
N64 C62 1.420 . S
N64 C65 1.244 . S
C65 N64 1.244 . S
H66 C69 0.929 . S
H67 C72 0.929 . S
H68 C74 0.930 . S
C69 H66 0.929 . S
C69 C70 1.398 . S
C69 C71 1.396 . S
C70 C69 1.398 . S
C70 C74 1.407 . S
C71 C69 1.396 . S
C71 C72 1.394 . S
C72 H67 0.929 . S
C72 C71 1.394 . S
C72 C73 1.382 . S
C73 C72 1.382 . S
C73 C74 1.392 . S
C73 N75 1.420 . S
C74 H68 0.930 . S
C74 C70 1.407 . S
C74 C73 1.392 . S
N75 C73 1.420 . S
N75 C76 1.244 . S
C76 N75 1.244 . S
H77 C80 0.929 . S
H78 C83 0.929 . S
H79 C85 0.930 . S
C80 H77 0.929 . S
C80 C81 1.398 . S
C80 C82 1.396 . S
C81 C80 1.398 . S
C81 C85 1.407 . S
C82 C80 1.396 . S
C82 C83 1.394 . S
C83 H78 0.929 . S
C83 C82 1.394 . S
C83 C84 1.382 . S
C84 C83 1.382 . S
C84 C85 1.392 . S
C84 N86 1.420 . S
C85 H79 0.930 . S
C85 C81 1.407 . S
C85 C84 1.392 . S
N86 C84 1.420 . S
N86 C87 1.244 . S
C87 N86 1.244 . S
Sm88 C90 2.846 . S
Sm88 O108 2.543 . S
Sm88 O109 2.450 . S
Sm88 O110 2.681 . S
Sm88 O111 2.464 . S
Sm88 O112 2.396 . S
Sm88 O116 2.386 1_455 S
Sm88 O119 2.408 1_445 S
Sm89 C99 2.846 1_545 S
Sm89 O110 2.386 1_655 S
Sm89 O113 2.408 1_655 S
Sm89 O114 2.543 1_545 S
Sm89 O115 2.450 1_545 S
Sm89 O116 2.681 . S
Sm89 O117 2.464 . S
Sm89 O118 2.396 1_545 S
C90 Sm88 2.846 . S
C90 C91 1.506 . S
C90 O108 1.261 . S
C90 O109 1.242 . S
C91 C90 1.506 . S
C91 C92 1.358 . S
C91 C96 1.382 . S
C92 C91 1.358 . S
C92 C93 1.385 . S
C92 H120 0.930 . S
C93 C92 1.385 . S
C93 C94 1.395 . S
C93 H121 0.929 . S
C94 C93 1.395 . S
C94 C95 1.335 . S
C95 C94 1.335 . S
C95 C96 1.398 . S
C95 H122 0.930 . S
C96 C91 1.382 . S
C96 C95 1.398 . S
C96 H123 0.929 . S
C97 O110 1.271 1_565 S
C97 O111 1.251 1_565 S
C98 O112 1.252 . S
C98 O113 1.272 . S
C99 Sm89 2.846 1_565 S
C99 C100 1.506 . S
C99 O114 1.261 . S
C99 O115 1.242 . S
C100 C99 1.506 . S
C100 C101 1.358 . S
C100 C105 1.382 . S
C101 C100 1.358 . S
C101 C102 1.385 . S
C101 H124 0.930 . S
C102 C101 1.385 . S
C102 C103 1.395 . S
C102 H125 0.929 . S
C103 C102 1.395 . S
C103 C104 1.335 . S
C104 C103 1.335 . S
C104 C105 1.398 . S
C104 H126 0.930 . S
C105 C100 1.382 . S
C105 C104 1.398 . S
C105 H127 0.929 . S
C106 O116 1.271 . S
C106 O117 1.251 . S
C107 O118 1.252 . S
C107 O119 1.272 . S
O108 Sm88 2.543 . S
O108 C90 1.261 . S
O109 Sm88 2.450 . S
O109 C90 1.242 . S
O110 Sm88 2.681 . S
O110 Sm89 2.386 1_455 S
O110 C97 1.271 1_545 S
O111 Sm88 2.464 . S
O111 C97 1.251 1_545 S
O112 Sm88 2.396 . S
O112 C98 1.252 . S
O113 Sm89 2.408 1_455 S
O113 C98 1.272 . S
O114 Sm89 2.543 1_565 S
O114 C99 1.261 . S
O115 Sm89 2.450 1_565 S
O115 C99 1.242 . S
O116 Sm88 2.386 1_655 S
O116 Sm89 2.681 . S
O116 C106 1.271 . S
O117 Sm89 2.464 . S
O117 C106 1.251 . S
O118 Sm89 2.396 1_565 S
O118 C107 1.252 . S
O119 Sm88 2.408 1_665 S
O119 C107 1.272 . S
H120 C92 0.930 . S
H121 C93 0.929 . S
H122 C95 0.930 . S
H123 C96 0.929 . S
H124 C101 0.930 . S
H125 C102 0.929 . S
H126 C104 0.930 . S
H127 C105 0.929 . S
Sm128 C130 2.846 . S
Sm128 O148 2.543 . S
Sm128 O149 2.450 . S
Sm128 O150 2.681 1_545 S
Sm128 O151 2.464 1_545 S
Sm128 O152 2.396 . S
Sm128 O156 2.386 . S
Sm128 O159 2.408 1_545 S
Sm129 C139 2.846 1_544 S
Sm129 O150 2.386 1_545 S
Sm129 O153 2.408 . S
Sm129 O154 2.543 1_544 S
Sm129 O155 2.450 1_554 S
Sm129 O156 2.681 . S
Sm129 O157 2.464 . S
Sm129 O158 2.396 . S
C130 Sm128 2.846 . S
C130 C131 1.506 . S
C130 O148 1.261 . S
C130 O149 1.242 . S
C131 C130 1.506 . S
C131 C132 1.358 . S
C131 C136 1.382 . S
C132 C131 1.358 . S
C132 C133 1.385 . S
C132 H160 0.930 . S
C133 C132 1.385 . S
C133 C134 1.395 . S
C133 H161 0.929 . S
C134 C133 1.395 . S
C134 C135 1.335 . S
C135 C134 1.335 . S
C135 C136 1.398 . S
C135 H162 0.930 . S
C136 C131 1.382 . S
C136 C135 1.398 . S
C136 H163 0.929 . S
C137 O150 1.271 . S
C137 O151 1.251 . S
C138 O152 1.252 . S
C138 O153 1.272 . S
C139 Sm129 2.846 1_566 S
C139 C140 1.506 . S
C139 O154 1.261 . S
C139 O155 1.242 1_565 S
C140 C139 1.506 . S
C140 C141 1.358 . S
C140 C145 1.382 . S
C141 C140 1.358 . S
C141 C142 1.385 . S
C141 H164 0.930 . S
C142 C141 1.385 . S
C142 C143 1.395 . S
C142 H165 0.929 . S
C143 C142 1.395 . S
C143 C144 1.335 . S
C144 C143 1.335 . S
C144 C145 1.398 . S
C144 H166 0.930 . S
C145 C140 1.382 . S
C145 C144 1.398 . S
C145 H167 0.909 1_565 S
C146 O156 1.271 . S
C146 O157 1.251 . S
C147 O158 1.252 1_565 S
C147 O159 1.272 . S
O148 Sm128 2.543 . S
O148 C130 1.261 . S
O149 Sm128 2.450 . S
O149 C130 1.242 . S
O150 Sm128 2.681 1_565 S
O150 Sm129 2.386 1_565 S
O150 C137 1.271 . S
O151 Sm128 2.464 1_565 S
O151 C137 1.251 . S
O152 Sm128 2.396 . S
O152 C138 1.252 . S
O153 Sm129 2.408 . S
O153 C138 1.272 . S
O154 Sm129 2.543 1_566 S
O154 C139 1.261 . S
O155 Sm129 2.450 1_556 S
O155 C139 1.242 1_545 S
O156 Sm128 2.386 . S
O156 Sm129 2.681 . S
O156 C146 1.271 . S
O157 Sm129 2.464 . S
O157 C146 1.251 . S
O158 Sm129 2.396 . S
O158 C147 1.252 1_545 S
O159 Sm128 2.408 1_565 S
O159 C147 1.272 . S
H160 C132 0.930 . S
H161 C133 0.929 . S
H162 C135 0.930 . S
H163 C136 0.929 . S
H164 C141 0.930 . S
H165 C142 0.929 . S
H166 C144 0.930 . S
H167 C145 0.909 1_545 S
Sm168 C170 2.846 . S
Sm168 O188 2.543 . S
Sm168 O189 2.450 . S
Sm168 O190 2.681 . S
Sm168 O191 2.464 . S
Sm168 O192 2.396 . S
Sm168 O196 2.386 . S
Sm168 O199 2.408 . S
Sm169 C179 2.846 . S
Sm169 O190 2.386 . S
Sm169 O193 2.408 . S
Sm169 O194 2.543 . S
Sm169 O195 2.450 . S
Sm169 O196 2.681 . S
Sm169 O197 2.464 . S
Sm169 O198 2.396 . S
C170 Sm168 2.846 . S
C170 C171 1.506 . S
C170 O188 1.261 . S
C170 O189 1.242 . S
C171 C170 1.506 . S
C171 C172 1.358 . S
C171 C176 1.382 . S
C172 C171 1.358 . S
C172 C173 1.385 . S
C172 H200 0.930 . S
C173 C172 1.385 . S
C173 C174 1.395 . S
C173 H201 0.929 . S
C174 C173 1.395 . S
C174 C175 1.335 . S
C175 C174 1.335 . S
C175 C176 1.398 . S
C175 H202 0.930 . S
C176 C171 1.382 . S
C176 C175 1.398 . S
C176 H203 0.929 . S
C177 O190 1.271 . S
C177 O191 1.251 . S
C178 O192 1.252 . S
C178 O193 1.272 . S
C179 Sm169 2.846 . S
C179 C180 1.506 . S
C179 O194 1.261 . S
C179 O195 1.242 . S
C180 C179 1.506 . S
C180 C181 1.358 . S
C180 C185 1.382 . S
C181 C180 1.358 . S
C181 C182 1.385 . S
C181 H204 0.930 . S
C182 C181 1.385 . S
C182 C183 1.395 . S
C182 H205 0.929 . S
C183 C182 1.395 . S
C183 C184 1.335 . S
C184 C183 1.335 . S
C184 C185 1.398 . S
C184 H206 0.930 . S
C185 C180 1.382 . S
C185 C184 1.398 . S
C185 H207 0.929 . S
C186 O196 1.271 . S
C186 O197 1.251 . S
C187 O198 1.252 . S
C187 O199 1.272 . S
O188 Sm168 2.543 . S
O188 C170 1.261 . S
O189 Sm168 2.450 . S
O189 C170 1.242 . S
O190 Sm168 2.681 . S
O190 Sm169 2.386 . S
O190 C177 1.271 . S
O191 Sm168 2.464 . S
O191 C177 1.251 . S
O192 Sm168 2.396 . S
O192 C178 1.252 . S
O193 Sm169 2.408 . S
O193 C178 1.272 . S
O194 Sm169 2.543 . S
O194 C179 1.261 . S
O195 Sm169 2.450 . S
O195 C179 1.242 . S
O196 Sm168 2.386 . S
O196 Sm169 2.681 . S
O196 C186 1.271 . S
O197 Sm169 2.464 . S
O197 C186 1.251 . S
O198 Sm169 2.396 . S
O198 C187 1.252 . S
O199 Sm168 2.408 . S
O199 C187 1.272 . S
H200 C172 0.930 . S
H201 C173 0.929 . S
H202 C175 0.930 . S
H203 C176 0.929 . S
H204 C181 0.930 . S
H205 C182 0.929 . S
H206 C184 0.930 . S
H207 C185 0.929 . S
Sm208 C210 2.846 . S
Sm208 O228 2.543 . S
Sm208 O229 2.450 . S
Sm208 O230 2.681 . S
Sm208 O231 2.464 . S
Sm208 O232 2.396 . S
Sm208 O236 2.386 1_554 S
Sm208 O239 2.408 1_455 S
Sm209 C219 2.834 1_454 S
Sm209 O230 2.408 . S
Sm209 O233 2.422 . S
Sm209 O234 2.541 1_454 S
Sm209 O235 2.430 1_454 S
Sm209 O236 2.682 1_554 S
Sm209 O237 2.444 1_554 S
Sm209 O238 2.389 1_454 S
C210 Sm208 2.846 . S
C210 C211 1.506 . S
C210 O228 1.261 . S
C210 O229 1.242 . S
C211 C210 1.506 . S
C211 C212 1.358 . S
C211 C216 1.382 . S
C212 C211 1.358 . S
C212 C213 1.385 . S
C212 H240 0.930 . S
C213 C212 1.385 . S
C213 C214 1.395 . S
C213 H241 0.929 . S
C214 C213 1.395 . S
C214 C215 1.335 . S
C215 C214 1.335 . S
C215 C216 1.398 . S
C215 H242 0.930 . S
C216 C211 1.382 . S
C216 C215 1.398 . S
C216 H243 0.929 . S
C217 O230 1.271 1_655 S
C217 O231 1.251 1_655 S
C218 O232 1.252 . S
C218 O233 1.272 . S
C219 Sm209 2.834 1_656 S
C219 C220 1.506 . S
C219 O234 1.285 . S
C219 O235 1.242 . S
C220 C219 1.506 . S
C220 C221 1.358 . S
C220 C225 1.382 . S
C221 C220 1.358 . S
C221 C222 1.385 . S
C221 H244 0.930 . S
C222 C221 1.385 . S
C222 C223 1.395 . S
C222 H245 0.929 . S
C223 C222 1.395 . S
C223 C224 1.335 . S
C224 C223 1.335 . S
C224 C225 1.398 . S
C224 H246 0.930 . S
C225 C220 1.382 . S
C225 C224 1.398 . S
C225 H247 0.929 . S
C226 O236 1.271 . S
C226 O237 1.251 . S
C227 O238 1.252 . S
C227 O239 1.272 1_556 S
O228 Sm208 2.543 . S
O228 C210 1.261 . S
O229 Sm208 2.450 . S
O229 C210 1.242 . S
O230 Sm208 2.681 . S
O230 Sm209 2.408 . S
O230 C217 1.271 1_455 S
O231 Sm208 2.464 . S
O231 C217 1.251 1_455 S
O232 Sm208 2.396 . S
O232 C218 1.252 . S
O233 Sm209 2.422 . S
O233 C218 1.272 . S
O234 Sm209 2.541 1_656 S
O234 C219 1.285 . S
O235 Sm209 2.430 1_656 S
O235 C219 1.242 . S
O236 Sm208 2.386 1_556 S
O236 Sm209 2.682 1_556 S
O236 C226 1.271 . S
O237 Sm209 2.444 1_556 S
O237 C226 1.251 . S
O238 Sm209 2.389 1_656 S
O238 C227 1.252 . S
O239 Sm208 2.408 1_655 S
O239 C227 1.272 1_554 S
H240 C212 0.930 . S
H241 C213 0.929 . S
H242 C215 0.930 . S
H243 C216 0.929 . S
H244 C221 0.930 . S
H245 C222 0.929 . S
H246 C224 0.930 . S
H247 C225 0.929 . S
H248 C254 0.930 . S
H249 C258 0.930 . S
H250 C263 0.929 . S
H251 C261 0.929 . S
H252 C256 0.929 . S
H253 C262 0.929 . S
C254 H248 0.930 . S
C254 C255 1.367 . S
C254 C262 1.378 . S
C255 C254 1.367 . S
C255 C263 1.433 . S
C256 H252 0.929 . S
C256 C258 1.378 . S
C256 C260 1.350 . S
C257 C260 1.463 . S
C257 C262 1.350 . S
C257 N265 1.427 . S
C258 H249 0.930 . S
C258 C256 1.378 . S
C258 C259 1.367 . S
C259 C258 1.367 . S
C259 C261 1.433 . S
C260 C256 1.350 . S
C260 C257 1.463 . S
C260 N264 1.427 . S
C261 H251 0.929 . S
C261 C259 1.433 . S
C261 N264 1.384 . S
C262 H253 0.929 . S
C262 C254 1.378 . S
C262 C257 1.350 . S
C263 H250 0.929 . S
C263 C255 1.433 . S
C263 N265 1.384 . S
N264 C260 1.427 . S
N264 C261 1.384 . S
N265 C257 1.427 . S
N265 C263 1.384 . S
H266 C272 0.930 . S
H267 C276 0.930 . S
H268 C281 0.929 . S
H269 C279 0.929 . S
H270 C274 0.929 . S
H271 C280 0.929 . S
C272 H266 0.930 . S
C272 C273 1.367 . S
C272 C280 1.378 . S
C273 C272 1.367 . S
C273 C281 1.433 . S
C274 H270 0.929 . S
C274 C276 1.378 . S
C274 C278 1.350 . S
C275 C278 1.463 . S
C275 C280 1.350 . S
C275 N283 1.427 . S
C276 H267 0.930 . S
C276 C274 1.378 . S
C276 C277 1.367 . S
C277 C276 1.367 . S
C277 C279 1.433 . S
C278 C274 1.350 . S
C278 C275 1.463 . S
C278 N282 1.427 . S
C279 H269 0.929 . S
C279 C277 1.433 . S
C279 N282 1.384 . S
C280 H271 0.929 . S
C280 C272 1.378 . S
C280 C275 1.350 . S
C281 H268 0.929 . S
C281 C273 1.433 . S
C281 N283 1.384 . S
N282 C278 1.427 . S
N282 C279 1.384 . S
N283 C275 1.427 . S
N283 C281 1.384 . S
H284 C290 0.930 . S
H285 C294 0.930 . S
H286 C299 0.929 . S
H287 C297 0.929 . S
H288 C292 0.929 . S
H289 C298 0.929 . S
C290 H284 0.930 . S
C290 C291 1.367 . S
C290 C298 1.378 . S
C291 C290 1.367 . S
C291 C299 1.433 . S
C292 H288 0.929 . S
C292 C294 1.378 . S
C292 C296 1.350 . S
C293 C296 1.463 . S
C293 C298 1.350 . S
C293 N301 1.427 . S
C294 H285 0.930 . S
C294 C292 1.378 . S
C294 C295 1.367 . S
C295 C294 1.367 . S
C295 C297 1.433 . S
C296 C292 1.350 . S
C296 C293 1.463 . S
C296 N300 1.427 . S
C297 H287 0.929 . S
C297 C295 1.433 . S
C297 N300 1.384 . S
C298 H289 0.929 . S
C298 C290 1.378 . S
C298 C293 1.350 . S
C299 H286 0.929 . S
C299 C291 1.433 . S
C299 N301 1.384 . S
N300 C296 1.427 . S
N300 C297 1.384 . S
N301 C293 1.427 . S
N301 C299 1.384 . S
H302 C308 0.930 . S
H303 C312 0.930 . S
H304 C317 0.929 . S
H305 C315 0.929 . S
H306 C310 0.929 . S
H307 C316 0.929 . S
C308 H302 0.930 . S
C308 C309 1.367 . S
C308 C316 1.378 . S
C309 C308 1.367 . S
C309 C317 1.433 . S
C310 H306 0.929 . S
C310 C312 1.378 . S
C310 C314 1.350 . S
C311 C314 1.463 . S
C311 C316 1.350 . S
C311 N319 1.427 . S
C312 H303 0.930 . S
C312 C310 1.378 . S
C312 C313 1.367 . S
C313 C312 1.367 . S
C313 C315 1.433 . S
C314 C310 1.350 . S
C314 C311 1.463 . S
C314 N318 1.427 . S
C315 H305 0.929 . S
C315 C313 1.433 . S
C315 N318 1.384 . S
C316 H307 0.929 . S
C316 C308 1.378 . S
C316 C311 1.350 . S
C317 H304 0.929 . S
C317 C309 1.433 . S
C317 N319 1.384 . S
N318 C314 1.427 . S
N318 C315 1.384 . S
N319 C311 1.427 . S
N319 C317 1.384 . S
H320 C326 0.930 . S
H321 C330 0.930 . S
H322 C335 0.929 . S
H323 C333 0.929 . S
H324 C328 0.929 . S
H325 C334 0.929 . S
C326 H320 0.930 . S
C326 C327 1.367 . S
C326 C334 1.378 . S
C327 C326 1.367 . S
C327 C335 1.433 . S
C328 H324 0.929 . S
C328 C330 1.378 . S
C328 C332 1.350 . S
C329 C332 1.463 . S
C329 C334 1.350 . S
C329 N337 1.427 . S
C330 H321 0.930 . S
C330 C328 1.378 . S
C330 C331 1.367 . S
C331 C330 1.367 . S
C331 C333 1.433 . S
C332 C328 1.350 . S
C332 C329 1.463 . S
C332 N336 1.427 . S
C333 H323 0.929 . S
C333 C331 1.433 . S
C333 N336 1.384 . S
C334 H325 0.929 . S
C334 C326 1.378 . S
C334 C329 1.350 . S
C335 H322 0.929 . S
C335 C327 1.433 . S
C335 N337 1.384 . S
N336 C332 1.427 . S
N336 C333 1.384 . S
N337 C329 1.427 . S
N337 C335 1.384 . S
H338 C344 0.930 . S
H339 C348 0.930 . S
H340 C353 0.929 . S
H341 C351 0.927 1_545 S
H342 C346 0.929 . S
H343 C352 0.929 . S
C344 H338 0.930 . S
C344 C345 1.367 . S
C344 C352 1.378 . S
C345 C344 1.367 . S
C345 C353 1.433 . S
C346 H342 0.929 . S
C346 C348 1.378 . S
C346 C350 1.350 . S
C347 C350 1.463 . S
C347 C352 1.350 . S
C347 N355 1.427 . S
C348 H339 0.930 . S
C348 C346 1.378 . S
C348 C349 1.367 . S
C349 C348 1.367 . S
C349 C351 1.434 . S
C350 C346 1.350 . S
C350 C347 1.463 . S
C350 N354 1.427 . S
C351 H341 0.927 1_565 S
C351 C349 1.434 . S
C351 N354 1.386 . S
C352 H343 0.929 . S
C352 C344 1.378 . S
C352 C347 1.350 . S
C353 H340 0.929 . S
C353 C345 1.433 . S
C353 N355 1.384 . S
N354 C350 1.427 . S
N354 C351 1.386 . S
N355 C347 1.427 . S
N355 C353 1.384 . S
H356 C362 0.930 . S
H357 C366 0.930 . S
H358 C371 0.929 . S
H359 C369 0.929 1_554 S
H360 C364 0.929 . S
H361 C370 0.929 . S
C362 H356 0.930 . S
C362 C363 1.367 . S
C362 C370 1.378 . S
C363 C362 1.367 . S
C363 C371 1.433 . S
C364 H360 0.929 . S
C364 C366 1.378 . S
C364 C368 1.350 . S
C365 C368 1.463 . S
C365 C370 1.350 . S
C365 N373 1.427 . S
C366 H357 0.930 . S
C366 C364 1.378 . S
C366 C367 1.367 . S
C367 C366 1.367 . S
C367 C369 1.433 . S
C368 C364 1.350 . S
C368 C365 1.463 . S
C368 N372 1.427 . S
C369 H359 0.929 1_556 S
C369 C367 1.433 . S
C369 N372 1.384 . S
C370 H361 0.929 . S
C370 C362 1.378 . S
C370 C365 1.350 . S
C371 H358 0.929 . S
C371 C363 1.433 . S
C371 N373 1.384 . S
N372 C368 1.427 . S
N372 C369 1.384 . S
N373 C365 1.427 . S
N373 C371 1.384 . S
H374 C380 0.930 . S
H375 C384 0.930 . S
H376 C389 0.929 . S
H377 C387 0.929 . S
H378 C382 0.929 . S
H379 C388 0.929 . S
C380 H374 0.930 . S
C380 C381 1.367 . S
C380 C388 1.378 . S
C381 C380 1.367 . S
C381 C389 1.433 . S
C382 H378 0.929 . S
C382 C384 1.378 . S
C382 C386 1.350 . S
C383 C386 1.463 . S
C383 C388 1.350 . S
C383 N391 1.427 . S
C384 H375 0.930 . S
C384 C382 1.378 . S
C384 C385 1.367 . S
C385 C384 1.367 . S
C385 C387 1.433 . S
C386 C382 1.350 . S
C386 C383 1.463 . S
C386 N390 1.427 . S
C387 H377 0.929 . S
C387 C385 1.433 . S
C387 N390 1.384 . S
C388 H379 0.929 . S
C388 C380 1.378 . S
C388 C383 1.350 . S
C389 H376 0.929 . S
C389 C381 1.433 . S
C389 N391 1.384 . S
N390 C386 1.427 . S
N390 C387 1.384 . S
N391 C383 1.427 . S
N391 C389 1.384 . S
H392 C398 0.930 . S
H393 C402 0.930 . S
H394 C407 0.929 . S
H395 C405 0.929 . S
H396 C400 0.929 . S
H397 C406 0.929 . S
C398 H392 0.930 . S
C398 C399 1.367 . S
C398 C406 1.378 . S
C399 C398 1.367 . S
C399 C407 1.433 . S
C400 H396 0.929 . S
C400 C402 1.378 . S
C400 C404 1.350 . S
C401 C404 1.463 . S
C401 C406 1.350 . S
C401 N409 1.427 . S
C402 H393 0.930 . S
C402 C400 1.378 . S
C402 C403 1.367 . S
C403 C402 1.367 . S
C403 C405 1.433 . S
C404 C400 1.350 . S
C404 C401 1.463 . S
C404 N408 1.427 . S
C405 H395 0.929 . S
C405 C403 1.433 . S
C405 N408 1.384 . S
C406 H397 0.929 . S
C406 C398 1.378 . S
C406 C401 1.350 . S
C407 H394 0.929 . S
C407 C399 1.433 . S
C407 N409 1.384 . S
N408 C404 1.427 . S
N408 C405 1.384 . S
N409 C401 1.427 . S
N409 C407 1.384 . S
H410 C416 0.930 . S
H411 C420 0.930 . S
H412 C425 0.929 . S
H413 C423 0.929 . S
H414 C418 0.929 1_554 S
H415 C424 0.929 . S
C416 H410 0.930 . S
C416 C417 1.367 . S
C416 C424 1.378 . S
C417 C416 1.367 . S
C417 C425 1.433 . S
C418 H414 0.929 1_556 S
C418 C420 1.378 1_556 S
C418 C422 1.350 . S
C419 C422 1.463 . S
C419 C424 1.350 . S
C419 N427 1.427 . S
C420 H411 0.930 . S
C420 C418 1.378 1_554 S
C420 C421 1.367 . S
C421 C420 1.367 . S
C421 C423 1.433 1_554 S
C422 C418 1.350 . S
C422 C419 1.463 . S
C422 N426 1.427 . S
C423 H413 0.929 . S
C423 C421 1.433 1_556 S
C423 N426 1.384 . S
C424 H415 0.929 . S
C424 C416 1.378 . S
C424 C419 1.350 . S
C425 H412 0.929 . S
C425 C417 1.433 . S
C425 N427 1.384 . S
N426 C422 1.427 . S
N426 C423 1.384 . S
N427 C419 1.427 . S
N427 C425 1.384 . S
H428 C434 0.930 . S
H429 C438 0.930 . S
H430 C443 0.929 . S
H431 C441 0.929 . S
H432 C436 0.929 . S
H433 C442 0.929 . S
C434 H428 0.930 . S
C434 C435 1.367 . S
C434 C442 1.378 . S
C435 C434 1.367 . S
C435 C443 1.433 . S
C436 H432 0.929 . S
C436 C438 1.378 . S
C436 C440 1.350 . S
C437 C440 1.463 . S
C437 C442 1.350 . S
C437 N445 1.427 . S
C438 H429 0.930 . S
C438 C436 1.378 . S
C438 C439 1.367 . S
C439 C438 1.367 . S
C439 C441 1.433 . S
C440 C436 1.350 . S
C440 C437 1.463 . S
C440 N444 1.427 . S
C441 H431 0.929 . S
C441 C439 1.433 . S
C441 N444 1.384 . S
C442 H433 0.929 . S
C442 C434 1.378 . S
C442 C437 1.350 . S
C443 H430 0.929 . S
C443 C435 1.433 . S
C443 N445 1.384 . S
N444 C440 1.427 . S
N444 C441 1.384 . S
N445 C437 1.427 . S
N445 C443 1.384 . S
H446 C452 0.930 . S
H447 C456 0.930 . S
H448 C461 0.929 . S
H449 C459 0.929 . S
H450 C454 0.929 . S
H451 C460 0.929 . S
C452 H446 0.930 . S
C452 C453 1.367 . S
C452 C460 1.378 . S
C453 C452 1.367 . S
C453 C461 1.433 . S
C454 H450 0.929 . S
C454 C456 1.378 . S
C454 C458 1.350 . S
C455 C458 1.463 . S
C455 C460 1.350 . S
C455 N463 1.427 . S
C456 H447 0.930 . S
C456 C454 1.378 . S
C456 C457 1.367 . S
C457 C456 1.367 . S
C457 C459 1.433 . S
C458 C454 1.350 . S
C458 C455 1.463 . S
C458 N462 1.427 . S
C459 H449 0.929 . S
C459 C457 1.433 . S
C459 N462 1.384 . S
C460 H451 0.929 . S
C460 C452 1.378 . S
C460 C455 1.350 . S
C461 H448 0.929 . S
C461 C453 1.433 . S
C461 N463 1.384 . S
N462 C458 1.427 . S
N462 C459 1.384 . S
N463 C455 1.427 . S
N463 C461 1.384 . S
H464 C470 0.930 . S
H465 C474 0.930 . S
H466 C479 0.929 . S
H467 C477 0.929 . S
H468 C472 0.929 . S
H469 C478 0.929 . S
C470 H464 0.930 . S
C470 C471 1.367 . S
C470 C478 1.378 . S
C471 C470 1.367 . S
C471 C479 1.433 . S
C472 H468 0.929 . S
C472 C474 1.378 . S
C472 C476 1.350 . S
C473 C476 1.463 . S
C473 C478 1.350 . S
C473 N481 1.427 . S
C474 H465 0.930 . S
C474 C472 1.378 . S
C474 C475 1.367 . S
C475 C474 1.367 . S
C475 C477 1.433 . S
C476 C472 1.350 . S
C476 C473 1.463 . S
C476 N480 1.427 . S
C477 H467 0.929 . S
C477 C475 1.433 . S
C477 N480 1.384 . S
C478 H469 0.929 . S
C478 C470 1.378 . S
C478 C473 1.350 . S
C479 H466 0.929 . S
C479 C471 1.433 . S
C479 N481 1.384 . S
N480 C476 1.427 . S
N480 C477 1.384 . S
N481 C473 1.427 . S
N481 C479 1.384 . S
H482 C488 0.930 . S
H483 C492 0.930 . S
H484 C497 0.929 . S
H485 C495 0.929 . S
H486 C490 0.929 . S
H487 C496 0.929 . S
C488 H482 0.930 . S
C488 C489 1.367 . S
C488 C496 1.378 . S
C489 C488 1.367 . S
C489 C497 1.433 . S
C490 H486 0.929 . S
C490 C492 1.378 . S
C490 C494 1.350 . S
C491 C494 1.463 . S
C491 C496 1.350 . S
C491 N499 1.427 . S
C492 H483 0.930 . S
C492 C490 1.378 . S
C492 C493 1.367 . S
C493 C492 1.367 . S
C493 C495 1.433 . S
C494 C490 1.350 . S
C494 C491 1.463 . S
C494 N498 1.427 . S
C495 H485 0.929 . S
C495 C493 1.433 . S
C495 N498 1.384 . S
C496 H487 0.929 . S
C496 C488 1.378 . S
C496 C491 1.350 . S
C497 H484 0.929 . S
C497 C489 1.433 . S
C497 N499 1.384 . S
N498 C494 1.427 . S
N498 C495 1.384 . S
N499 C491 1.427 . S
N499 C497 1.384 . S
H500 C506 0.930 . S
H501 C510 0.930 . S
H502 C515 0.929 . S
H503 C513 0.929 . S
H504 C508 0.929 . S
H505 C514 0.929 . S
C506 H500 0.930 . S
C506 C507 1.367 . S
C506 C514 1.378 . S
C507 C506 1.367 . S
C507 C515 1.433 . S
C508 H504 0.929 . S
C508 C510 1.378 . S
C508 C512 1.350 . S
C509 C512 1.463 . S
C509 C514 1.350 . S
C509 N517 1.427 . S
C510 H501 0.930 . S
C510 C508 1.378 . S
C510 C511 1.367 . S
C511 C510 1.367 . S
C511 C513 1.433 . S
C512 C508 1.350 . S
C512 C509 1.463 . S
C512 N516 1.427 . S
C513 H503 0.929 . S
C513 C511 1.433 . S
C513 N516 1.384 . S
C514 H505 0.929 . S
C514 C506 1.378 . S
C514 C509 1.350 . S
C515 H502 0.929 . S
C515 C507 1.433 . S
C515 N517 1.384 . S
N516 C512 1.427 . S
N516 C513 1.384 . S
N517 C509 1.427 . S
N517 C515 1.384 . S
H518 C524 0.930 . S
H519 C528 0.930 . S
H520 C533 0.929 . S
H521 C531 0.929 . S
H522 C526 0.929 . S
H523 C532 0.929 . S
C524 H518 0.930 . S
C524 C525 1.367 . S
C524 C532 1.378 . S
C525 C524 1.367 . S
C525 C533 1.433 . S
C526 H522 0.929 . S
C526 C528 1.378 . S
C526 C530 1.350 . S
C527 C530 1.463 . S
C527 C532 1.350 . S
C527 N535 1.427 . S
C528 H519 0.930 . S
C528 C526 1.378 . S
C528 C529 1.367 . S
C529 C528 1.367 . S
C529 C531 1.433 . S
C530 C526 1.350 . S
C530 C527 1.463 . S
C530 N534 1.427 . S
C531 H521 0.929 . S
C531 C529 1.433 . S
C531 N534 1.384 . S
C532 H523 0.929 . S
C532 C524 1.378 . S
C532 C527 1.350 . S
C533 H520 0.929 . S
C533 C525 1.433 . S
C533 N535 1.384 . S
N534 C530 1.427 . S
N534 C531 1.384 . S
N535 C527 1.427 . S
N535 C533 1.384 . S
H536 C542 0.930 . S
H537 C546 0.930 . S
H538 C551 0.929 . S
H539 C549 0.929 . S
H540 C544 0.929 . S
H541 C550 0.929 . S
C542 H536 0.930 . S
C542 C543 1.367 . S
C542 C550 1.378 . S
C543 C542 1.367 . S
C543 C551 1.433 . S
C544 H540 0.929 . S
C544 C546 1.378 . S
C544 C548 1.350 . S
C545 C548 1.463 . S
C545 C550 1.350 . S
C545 N553 1.427 . S
C546 H537 0.930 . S
C546 C544 1.378 . S
C546 C547 1.367 . S
C547 C546 1.367 . S
C547 C549 1.433 1_556 S
C548 C544 1.350 . S
C548 C545 1.463 . S
C548 N552 1.427 . S
C549 H539 0.929 . S
C549 C547 1.433 1_554 S
C549 N552 1.384 1_554 S
C550 H541 0.929 . S
C550 C542 1.378 . S
C550 C545 1.350 . S
C551 H538 0.929 . S
C551 C543 1.433 . S
C551 N553 1.384 . S
N552 C548 1.427 . S
N552 C549 1.384 1_556 S
N553 C545 1.427 . S
N553 C551 1.384 . S
H554 C560 0.930 . S
H555 C564 0.930 . S
H556 C569 0.929 . S
H557 C567 0.929 . S
H558 C562 0.929 . S
H559 C568 0.929 . S
C560 H554 0.930 . S
C560 C561 1.367 . S
C560 C568 1.378 . S
C561 C560 1.367 . S
C561 C569 1.433 . S
C562 H558 0.929 . S
C562 C564 1.378 . S
C562 C566 1.350 . S
C563 C566 1.463 . S
C563 C568 1.350 . S
C563 N571 1.427 . S
C564 H555 0.930 . S
C564 C562 1.378 . S
C564 C565 1.367 . S
C565 C564 1.367 . S
C565 C567 1.433 . S
C566 C562 1.350 . S
C566 C563 1.463 . S
C566 N570 1.427 . S
C567 H557 0.929 . S
C567 C565 1.433 . S
C567 N570 1.384 . S
C568 H559 0.929 . S
C568 C560 1.378 . S
C568 C563 1.350 . S
C569 H556 0.929 . S
C569 C561 1.433 . S
C569 N571 1.384 . S
N570 C566 1.427 . S
N570 C567 1.384 . S
N571 C563 1.427 . S
N571 C569 1.384 . S
H572 C578 0.930 . S
H573 C582 0.930 . S
H574 C587 0.929 . S
H575 C585 0.929 . S
H576 C580 0.929 . S
H577 C586 0.929 . S
C578 H572 0.930 . S
C578 C579 1.367 . S
C578 C586 1.378 . S
C579 C578 1.367 . S
C579 C587 1.433 . S
C580 H576 0.929 . S
C580 C582 1.378 . S
C580 C584 1.350 . S
C581 C584 1.463 . S
C581 C586 1.350 . S
C581 N589 1.427 . S
C582 H573 0.930 . S
C582 C580 1.378 . S
C582 C583 1.367 . S
C583 C582 1.367 . S
C583 C585 1.433 . S
C584 C580 1.350 . S
C584 C581 1.463 . S
C584 N588 1.427 . S
C585 H575 0.929 . S
C585 C583 1.433 . S
C585 N588 1.384 . S
C586 H577 0.929 . S
C586 C578 1.378 . S
C586 C581 1.350 . S
C587 H574 0.929 . S
C587 C579 1.433 . S
C587 N589 1.384 . S
N588 C584 1.427 . S
N588 C585 1.384 . S
N589 C581 1.427 . S
N589 C587 1.384 . S
H590 C596 0.930 . S
H591 C600 0.930 . S
H592 C605 0.929 . S
H593 C603 0.929 . S
H594 C598 0.929 . S
H595 C604 0.929 . S
C596 H590 0.930 . S
C596 C597 1.367 . S
C596 C604 1.378 . S
C597 C596 1.367 . S
C597 C605 1.433 . S
C598 H594 0.929 . S
C598 C600 1.378 . S
C598 C602 1.350 . S
C599 C602 1.463 . S
C599 C604 1.350 . S
C599 N607 1.427 . S
C600 H591 0.930 . S
C600 C598 1.378 . S
C600 C601 1.367 . S
C601 C600 1.367 . S
C601 C603 1.433 . S
C602 C598 1.350 . S
C602 C599 1.463 . S
C602 N606 1.427 . S
C603 H593 0.929 . S
C603 C601 1.433 . S
C603 N606 1.384 . S
C604 H595 0.929 . S
C604 C596 1.378 . S
C604 C599 1.350 . S
C605 H592 0.929 . S
C605 C597 1.433 . S
C605 N607 1.384 . S
N606 C602 1.427 . S
N606 C603 1.384 . S
N607 C599 1.427 . S
N607 C605 1.384 . S
H608 C614 0.930 . S
H609 C618 0.930 . S
H610 C623 0.929 . S
H611 C621 0.929 . S
H612 C616 0.929 . S
H613 C622 0.929 . S
C614 H608 0.930 . S
C614 C615 1.367 . S
C614 C622 1.378 . S
C615 C614 1.367 . S
C615 C623 1.433 . S
C616 H612 0.929 . S
C616 C618 1.378 . S
C616 C620 1.350 . S
C617 C620 1.463 . S
C617 C622 1.350 . S
C617 N625 1.427 . S
C618 H609 0.930 . S
C618 C616 1.378 . S
C618 C619 1.367 . S
C619 C618 1.367 . S
C619 C621 1.433 . S
C620 C616 1.350 . S
C620 C617 1.463 . S
C620 N624 1.427 . S
C621 H611 0.929 . S
C621 C619 1.433 . S
C621 N624 1.384 . S
C622 H613 0.929 . S
C622 C614 1.378 . S
C622 C617 1.350 . S
C623 H610 0.929 . S
C623 C615 1.433 . S
C623 N625 1.384 . S
N624 C620 1.427 . S
N624 C621 1.384 . S
N625 C617 1.427 . S
N625 C623 1.384 . S
H626 C632 0.930 . S
H627 C636 0.930 . S
H628 C641 0.929 . S
H629 C639 0.929 . S
H630 C634 0.929 . S
H631 C640 0.929 . S
C632 H626 0.930 . S
C632 C633 1.367 . S
C632 C640 1.378 . S
C633 C632 1.367 . S
C633 C641 1.433 . S
C634 H630 0.929 . S
C634 C636 1.378 . S
C634 C638 1.350 . S
C635 C638 1.463 . S
C635 C640 1.350 . S
C635 N643 1.427 . S
C636 H627 0.930 . S
C636 C634 1.378 . S
C636 C637 1.367 . S
C637 C636 1.367 . S
C637 C639 1.433 . S
C638 C634 1.350 . S
C638 C635 1.463 . S
C638 N642 1.427 . S
C639 H629 0.929 . S
C639 C637 1.433 . S
C639 N642 1.384 . S
C640 H631 0.929 . S
C640 C632 1.378 . S
C640 C635 1.350 . S
C641 H628 0.929 . S
C641 C633 1.433 . S
C641 N643 1.384 . S
N642 C638 1.427 . S
N642 C639 1.384 . S
N643 C635 1.427 . S
N643 C641 1.384 . S
H644 C650 0.930 . S
H645 C654 0.930 . S
H646 C659 0.929 . S
H647 C657 0.929 . S
H648 C652 0.929 . S
H649 C658 0.929 . S
C650 H644 0.930 . S
C650 C651 1.367 . S
C650 C658 1.378 . S
C651 C650 1.367 . S
C651 C659 1.433 . S
C652 H648 0.929 . S
C652 C654 1.378 . S
C652 C656 1.350 . S
C653 C656 1.463 . S
C653 C658 1.350 . S
C653 N661 1.427 . S
C654 H645 0.930 . S
C654 C652 1.378 . S
C654 C655 1.367 . S
C655 C654 1.367 . S
C655 C657 1.433 . S
C656 C652 1.350 . S
C656 C653 1.463 . S
C656 N660 1.427 . S
C657 H647 0.929 . S
C657 C655 1.433 . S
C657 N660 1.384 . S
C658 H649 0.929 . S
C658 C650 1.378 . S
C658 C653 1.350 . S
C659 H646 0.929 . S
C659 C651 1.433 . S
C659 N661 1.384 . S
N660 C656 1.427 . S
N660 C657 1.384 . S
N661 C653 1.427 . S
N661 C659 1.384 . S
H662 C668 0.930 . S
H663 C672 0.930 . S
H664 C677 0.929 . S
H665 C675 0.929 . S
H666 C670 0.929 . S
H667 C676 0.929 . S
C668 H662 0.930 . S
C668 C669 1.367 . S
C668 C676 1.378 . S
C669 C668 1.367 . S
C669 C677 1.433 . S
C670 H666 0.929 . S
C670 C672 1.378 . S
C670 C674 1.350 . S
C671 C674 1.463 . S
C671 C676 1.350 . S
C671 N679 1.427 . S
C672 H663 0.930 . S
C672 C670 1.378 . S
C672 C673 1.367 . S
C673 C672 1.367 . S
C673 C675 1.433 . S
C674 C670 1.350 . S
C674 C671 1.463 . S
C674 N678 1.427 . S
C675 H665 0.929 . S
C675 C673 1.433 . S
C675 N678 1.384 . S
C676 H667 0.929 . S
C676 C668 1.378 . S
C676 C671 1.350 . S
C677 H664 0.929 . S
C677 C669 1.433 . S
C677 N679 1.384 . S
N678 C674 1.427 . S
N678 C675 1.384 . S
N679 C671 1.427 . S
N679 C677 1.384 . S
C255 C4 1.093 . S
C259 C94 1.109 . S
C273 C16 1.235 . S
C277 C143 1.244 . S
C295 C178 2.056 . S
C291 C32 2.084 . S
C309 C43 2.286 . S
C313 C217 2.235 . S
C331 C138 2.642 . S
C327 C5 2.528 . S
C349 C97 0.463 . S
C345 C21 0.435 . S
C367 C227 1.887 . S
C363 C27 1.928 . S
C385 C186 1.597 . S
C381 C37 1.601 . S
C399 C10 1.458 . S
C403 C214 1.476 . S
C421 C146 2.508 . S
C417 C26 2.598 . S
C435 C38 2.087 . S
C439 C107 2.083 . S
C453 C15 1.024 . S
C457 C183 1.035 . S
C475 C103 1.271 . S
C471 C48 1.265 . S
C489 C59 1.058 . S
C493 C134 1.058 . S
C507 C76 2.473 . S
C511 C187 2.433 . S
C525 C87 2.116 . S
C529 C226 2.095 . S
C543 C54 1.908 . S
C547 C147 1.999 1_556 S
C565 C106 1.387 . S
C561 C60 1.441 . S
C583 C218 1.761 . S
C579 C71 1.795 . S
C601 C177 1.549 . S
C597 C82 1.611 . S
C615 C49 1.713 . S
C619 C223 1.801 . S
C637 C137 1.979 . S
C633 C70 2.054 . S
C655 C98 2.535 . S
C651 C81 2.546 . S
C669 C65 0.865 . S
C673 C174 0.866 . S
