# Generated by pormake.
# Topology anh, (6,3)-cn, num edge types: 1
# Building blocks:
#     Node 0, Type 0, BuildingBlock: BETDEL_clean_sbu_0, # of connection points: 6
#     Node 1, Type 0, BuildingBlock: BETDEL_clean_sbu_0, # of connection points: 6
#     Node 2, Type 0, BuildingBlock: BETDEL_clean_sbu_0, # of connection points: 6
#     Node 3, Type 1, BuildingBlock: KAKCAD_clean_linker_0, # of connection points: 3
#     Node 4, Type 1, BuildingBlock: KAKCAD_clean_linker_0, # of connection points: 3
#     Node 5, Type 1, BuildingBlock: KAKCAD_clean_linker_0, # of connection points: 3
#     Node 6, Type 1, BuildingBlock: KAKCAD_clean_linker_0, # of connection points: 3
#     Node 7, Type 1, BuildingBlock: KAKCAD_clean_linker_0, # of connection points: 3
#     Node 8, Type 1, BuildingBlock: KAKCAD_clean_linker_0, # of connection points: 3
#     Edge 9, Type (0, 1), BuildingBlock: EZIPEK_clean_linker_0, # of connection points: 2
#     Edge 10, Type (0, 1), BuildingBlock: EZIPEK_clean_linker_0, # of connection points: 2
#     Edge 11, Type (0, 1), BuildingBlock: EZIPEK_clean_linker_0, # of connection points: 2
#     Edge 12, Type (0, 1), BuildingBlock: EZIPEK_clean_linker_0, # of connection points: 2
#     Edge 13, Type (0, 1), BuildingBlock: EZIPEK_clean_linker_0, # of connection points: 2
#     Edge 14, Type (0, 1), BuildingBlock: EZIPEK_clean_linker_0, # of connection points: 2
#     Edge 15, Type (0, 1), BuildingBlock: EZIPEK_clean_linker_0, # of connection points: 2
#     Edge 16, Type (0, 1), BuildingBlock: EZIPEK_clean_linker_0, # of connection points: 2
#     Edge 17, Type (0, 1), BuildingBlock: EZIPEK_clean_linker_0, # of connection points: 2
#     Edge 18, Type (0, 1), BuildingBlock: EZIPEK_clean_linker_0, # of connection points: 2
#     Edge 19, Type (0, 1), BuildingBlock: EZIPEK_clean_linker_0, # of connection points: 2
#     Edge 20, Type (0, 1), BuildingBlock: EZIPEK_clean_linker_0, # of connection points: 2
#     Edge 21, Type (0, 1), BuildingBlock: EZIPEK_clean_linker_0, # of connection points: 2
#     Edge 22, Type (0, 1), BuildingBlock: EZIPEK_clean_linker_0, # of connection points: 2
#     Edge 23, Type (0, 1), BuildingBlock: EZIPEK_clean_linker_0, # of connection points: 2
#     Edge 24, Type (0, 1), BuildingBlock: EZIPEK_clean_linker_0, # of connection points: 2
#     Edge 25, Type (0, 1), BuildingBlock: EZIPEK_clean_linker_0, # of connection points: 2
#     Edge 26, Type (0, 1), BuildingBlock: EZIPEK_clean_linker_0, # of connection points: 2
# Relax obj value: 0.148
# Max RMSD: 0.167
# Mean RMSD: 0.136
data_MOF--net-anh--node1-BETDEL_clean_sbu_0--node2-KAKCAD_clean_linker_0--edge1-EZIPEK_clean_linker_0
_symmetry_space_group_name_H-M    P1
_symmetry_Int_Tables_number       1
_symmetry_cell_setting            triclinic
loop_
_symmetry_equiv_pos_as_xyz
'x, y, z'
_cell_length_a     28.535082
_cell_length_b     28.462903
_cell_length_c     50.302014
_cell_angle_alpha  90.113099
_cell_angle_beta   90.021951
_cell_angle_gamma 119.99576
loop_
_atom_site_label
_atom_site_type_symbol
_atom_site_fract_x
_atom_site_fract_y
_atom_site_fract_z
_atom_type_partial_charge
Dy0 Dy 0.07011 0.4842 0.16683 0.0
C1 C 0.94075 0.58699 0.17722 0.0
C2 C 0.14181 0.45269 0.15381 0.0
Dy3 Dy 1.00053 0.53942 0.16576 0.0
O4 O 0.10253 0.42732 0.17058 0.0
O5 O 0.13989 0.49307 0.1432 0.0
O6 O 0.07749 0.4786 0.21152 0.0
O7 O 0.0335 0.51121 0.19531 0.0
C8 C 0.04762 0.49986 0.21677 0.0
C9 C 0.01682 0.5074 0.11771 0.0
O10 O 0.08422 0.61453 0.17096 0.0
O11 O 0.13653 0.57256 0.17004 0.0
O12 O 0.969 0.59483 0.15572 0.0
O13 O 0.9465 0.55354 0.19256 0.0
O14 O 0.97341 0.50845 0.12441 0.0
O15 O 0.05024 0.52686 0.13666 0.0
O16 O 0.98626 0.41103 0.15918 0.0
O17 O 0.93574 0.45118 0.17136 0.0
C18 C 0.13233 0.61712 0.1715 0.0
C19 C 0.93905 0.40726 0.16554 0.0
Dy20 Dy 0.4606 0.01009 0.50018 0.0
C21 C 0.68133 0.15167 0.50608 0.0
C22 C 0.352 0.94558 0.49689 0.0
Dy23 Dy 0.57752 0.07689 0.49618 0.0
O24 O 0.3768 0.98022 0.51583 0.0
O25 O 0.38617 0.9487 0.47907 0.0
O26 O 0.4705 0.98107 0.54 0.0
O27 O 0.5228 0.06128 0.5292 0.0
C28 C 0.51207 0.02651 0.54709 0.0
C29 C 0.5445 0.05347 0.44543 0.0
O30 O 0.57143 0.99501 0.50452 0.0
O31 O 0.48093 0.94328 0.49418 0.0
O32 O 0.64719 0.16039 0.4933 0.0
O33 O 0.65966 0.10131 0.51338 0.0
O34 O 0.59451 0.07962 0.45294 0.0
O35 O 0.51355 0.03747 0.46553 0.0
O36 O 0.46327 0.0911 0.49617 0.0
O37 O 0.55553 0.14295 0.50208 0.0
C38 C 0.52792 0.94677 0.49996 0.0
C39 C 0.50746 0.13924 0.49964 0.0
Dy40 Dy 0.59265 0.61858 0.83241 0.0
C41 C 0.50716 0.39873 0.83551 0.0
C42 C 0.63952 0.72801 0.82944 0.0
Dy43 Dy 0.53919 0.50473 0.82835 0.0
O44 O 0.65082 0.70259 0.8474 0.0
O45 O 0.60604 0.69397 0.81224 0.0
O46 O 0.55352 0.61146 0.87207 0.0
O47 O 0.5784 0.55662 0.86214 0.0
C48 C 0.55527 0.5691 0.8797 0.0
C49 C 0.54178 0.54887 0.78076 0.0
O50 O 0.46657 0.51407 0.83903 0.0
O51 O 0.50712 0.60078 0.82367 0.0
O52 O 0.53153 0.42674 0.81464 0.0
O53 O 0.49773 0.42772 0.85221 0.0
O54 O 0.50045 0.50559 0.79017 0.0
O55 O 0.58062 0.56717 0.79734 0.0
O56 O 0.66997 0.61387 0.83275 0.0
O57 O 0.62583 0.52105 0.82852 0.0
C58 C 0.46293 0.55712 0.83217 0.0
C59 C 0.67163 0.56802 0.83137 0.0
C60 C 0.50294 0.0565 0.31446 0.0
C61 C 0.51794 0.02655 0.33108 0.0
C62 C 0.50665 0.05393 0.28679 0.0
C63 C 0.52465 0.02078 0.27531 0.0
C64 C 0.53816 0.98963 0.29185 0.0
C65 C 0.53515 0.99274 0.31955 0.0
C66 C 0.52898 0.01847 0.24608 0.0
C67 C 0.57196 0.06105 0.23249 0.0
C68 C 0.5771 0.06032 0.20462 0.0
C69 C 0.53609 0.01402 0.19034 0.0
C70 C 0.49167 0.97015 0.2042 0.0
C71 C 0.48972 0.97372 0.23202 0.0
C72 C 0.44552 0.91938 0.1916 0.0
C73 C 0.40611 0.92129 0.17537 0.0
C74 C 0.43346 0.86783 0.20119 0.0
C75 C 0.38344 0.82066 0.19586 0.0
C76 C 0.34315 0.82284 0.18068 0.0
C77 C 0.62613 0.10921 0.19222 0.0
C78 C 0.64111 0.16223 0.20096 0.0
C79 C 0.66308 0.10424 0.17538 0.0
C80 C 0.71377 0.15019 0.16863 0.0
C81 C 0.72931 0.20259 0.17856 0.0
C82 C 0.69147 0.2077 0.19439 0.0
C83 C 0.35582 0.87375 0.16993 0.0
H84 H 0.48975 0.08294 0.32297 0.0
H85 H 0.49569 0.07794 0.27432 0.0
H86 H 0.55197 0.9637 0.28332 0.0
H87 H 0.54724 0.96962 0.33201 0.0
H88 H 0.60234 0.09485 0.24401 0.0
H89 H 0.45648 0.94149 0.24298 0.0
H90 H 0.5386 0.01222 0.16892 0.0
H91 H 0.41283 0.95999 0.16817 0.0
H92 H 0.46198 0.86444 0.21412 0.0
H93 H 0.37552 0.78247 0.20439 0.0
H94 H 0.61426 0.16846 0.21383 0.0
H95 H 0.65397 0.06453 0.16844 0.0
H96 H 0.32592 0.87712 0.15811 0.0
H97 H 0.70141 0.2471 0.20221 0.0
H98 H 0.7416 0.14452 0.15625 0.0
C99 C 0.50913 0.56919 0.65276 0.0
C100 C 0.54799 0.56036 0.66534 0.0
C101 C 0.50446 0.56703 0.62501 0.0
C102 C 0.53815 0.55535 0.60927 0.0
C103 C 0.57744 0.54709 0.62191 0.0
C104 C 0.58259 0.55 0.64964 0.0
C105 C 0.53194 0.55139 0.57978 0.0
C106 C 0.52684 0.59091 0.56562 0.0
C107 C 0.52028 0.58835 0.53783 0.0
C108 C 0.51877 0.54343 0.52396 0.0
C109 C 0.52396 0.50249 0.53816 0.0
C110 C 0.53059 0.50788 0.56597 0.0
C111 C 0.52282 0.45307 0.5257 0.0
C112 C 0.47807 0.41372 0.51104 0.0
C113 C 0.56293 0.43999 0.5328 0.0
C114 C 0.5577 0.38923 0.52657 0.0
C115 C 0.51211 0.3491 0.51293 0.0
C116 C 0.51543 0.63424 0.52513 0.0
C117 C 0.47862 0.64878 0.53588 0.0
C118 C 0.55379 0.67055 0.50676 0.0
C119 C 0.55664 0.72058 0.50043 0.0
C120 C 0.52131 0.73587 0.51232 0.0
C121 C 0.48155 0.69847 0.52966 0.0
C122 C 0.47284 0.36258 0.50472 0.0
H123 H 0.48188 0.577 0.66448 0.0
H124 H 0.47358 0.57323 0.61589 0.0
H125 H 0.60434 0.53859 0.61032 0.0
H126 H 0.61287 0.5431 0.65894 0.0
H127 H 0.52907 0.62497 0.57645 0.0
H128 H 0.53342 0.47691 0.5772 0.0
H129 H 0.51368 0.54042 0.50258 0.0
H130 H 0.44578 0.42138 0.50559 0.0
H131 H 0.5979 0.46868 0.54419 0.0
H132 H 0.58895 0.38079 0.53303 0.0
H133 H 0.44883 0.62254 0.5503 0.0
H134 H 0.58359 0.66178 0.49846 0.0
H135 H 0.43727 0.33287 0.49406 0.0
H136 H 0.45363 0.70854 0.53915 0.0
H137 H 0.58785 0.7483 0.487 0.0
C138 C 0.10467 0.56121 0.99158 0.0
C139 C 0.05471 0.52963 0.00426 0.0
C140 C 0.10724 0.56675 0.96386 0.0
C141 C 0.05982 0.541 0.9483 0.0
C142 C 0.00992 0.50894 0.96119 0.0
C143 C 1.00744 0.50331 0.98887 0.0
C144 C 0.06215 0.54766 0.91877 0.0
C145 C 0.10285 0.54623 0.90407 0.0
C146 C 0.10817 0.55521 0.87638 0.0
C147 C 0.06529 0.55846 0.86278 0.0
C148 C 0.02094 0.55685 0.87743 0.0
C149 C 0.02356 0.55541 0.90548 0.0
C150 C 0.97081 0.55633 0.86553 0.0
C151 C 0.96999 0.57998 0.84091 0.0
C152 C 0.92203 0.53339 0.88039 0.0
C153 C 0.87742 0.53836 0.87275 0.0
C154 C 0.87635 0.56245 0.84857 0.0
C155 C 0.16008 0.56149 0.86393 0.0
C156 C 0.20862 0.58684 0.87899 0.0
C157 C 0.16212 0.53818 0.83942 0.0
C158 C 0.21 0.53815 0.83122 0.0
C159 C 0.2569 0.56007 0.84758 0.0
C160 C 0.25494 0.58481 0.87144 0.0
C161 C 0.92326 0.58207 0.83238 0.0
H162 H 0.14151 0.58218 0.00319 0.0
H163 H 0.14624 0.59216 0.95465 0.0
H164 H 0.97273 0.48801 0.94984 0.0
H165 H 0.9685 0.47898 0.99835 0.0
H166 H 0.13126 0.53827 0.91462 0.0
H167 H 0.99518 0.56059 0.91762 0.0
H168 H 0.06665 0.56246 0.84137 0.0
H169 H 1.00554 0.5976 0.82839 0.0
H170 H 0.91756 0.5112 0.89852 0.0
H171 H 0.84272 0.52208 0.88587 0.0
H172 H 0.21059 0.60731 0.89748 0.0
H173 H 0.12637 0.51844 0.82701 0.0
H174 H 0.92417 0.59985 0.81324 0.0
H175 H 0.28976 0.60283 0.88455 0.0
H176 H 0.20988 0.51967 0.81237 0.0
C177 C 0.97752 0.53325 0.33923 0.0
C178 C 0.01939 0.52818 0.32746 0.0
C179 C 0.97435 0.53537 0.36688 0.0
C180 C 0.01382 0.53392 0.38292 0.0
C181 C 0.05614 0.52979 0.37115 0.0
C182 C 0.0586 0.52638 0.34359 0.0
C183 C 0.01176 0.53793 0.41196 0.0
C184 C 0.96948 0.49662 0.42649 0.0
C185 C 0.96867 0.49981 0.45438 0.0
C186 C 0.00939 0.54563 0.46738 0.0
C187 C 0.05167 0.58694 0.45294 0.0
C188 C 0.05308 0.58268 0.42523 0.0
C189 C 0.09337 0.63559 0.46663 0.0
C190 C 0.07816 0.66314 0.48478 0.0
C191 C 0.14815 0.65688 0.46023 0.0
C192 C 0.18681 0.7068 0.47053 0.0
C193 C 0.17088 0.73578 0.48718 0.0
C194 C 0.92803 0.45354 0.47001 0.0
C195 C 0.8742 0.42366 0.46121 0.0
C196 C 0.94405 0.43634 0.49276 0.0
C197 C 0.9078 0.38825 0.50542 0.0
C198 C 0.85546 0.35675 0.4953 0.0
C199 C 0.83814 0.37536 0.47376 0.0
C200 C 0.11684 0.71324 0.49497 0.0
H201 H 0.94714 0.53496 0.32701 0.0
H202 H 0.94167 0.53894 0.37575 0.0
H203 H 0.08693 0.52872 0.38332 0.0
H204 H 0.09118 0.52254 0.3348 0.0
H205 H 0.93873 0.46109 0.41612 0.0
H206 H 0.08551 0.61484 0.41386 0.0
H207 H 0.00865 0.54888 0.48884 0.0
H208 H 0.03606 0.64741 0.48993 0.0
H209 H 0.16074 0.63575 0.44661 0.0
H210 H 0.22867 0.72409 0.46449 0.0
H211 H 0.86056 0.43662 0.4441 0.0
H212 H 0.98541 0.45828 0.49987 0.0
H213 H 0.10438 0.7356 0.50781 0.0
H214 H 0.79748 0.35122 0.46594 0.0
H215 H 0.92141 0.37396 0.52203 0.0
C216 C 0.51554 0.01147 0.67504 0.0
C217 C 0.54705 0.05833 0.66003 0.0
C218 C 0.52077 0.01292 0.70265 0.0
C219 C 0.55738 0.06139 0.71561 0.0
C220 C 0.58865 0.1084 0.70046 0.0
C221 C 0.58361 0.10683 0.67281 0.0
C222 C 0.56298 0.06282 0.74488 0.0
C223 C 0.56736 0.02193 0.75813 0.0
C224 C 0.57306 0.0233 0.78588 0.0
C225 C 0.57369 0.06557 0.80044 0.0
C226 C 0.56887 0.10642 0.78748 0.0
C227 C 0.56383 0.10499 0.75967 0.0
C228 C 0.56584 0.14889 0.80295 0.0
C229 C 0.53267 0.13496 0.82561 0.0
C230 C 0.59199 0.20263 0.79377 0.0
C231 C 0.58139 0.24057 0.8056 0.0
C232 C 0.54493 0.22525 0.82681 0.0
C233 C 0.58126 0.98209 0.7994 0.0
C234 C 0.55002 0.92717 0.79225 0.0
C235 C 0.6233 0.99808 0.81805 0.0
C236 C 0.63623 0.96032 0.828 0.0
C237 C 0.60708 0.90631 0.81948 0.0
C238 C 0.56291 0.88945 0.80226 0.0
C239 C 0.52238 0.17311 0.83755 0.0
H240 H 0.48704 0.97382 0.66534 0.0
H241 H 0.4958 0.97631 0.71389 0.0
H242 H 0.61749 0.14612 0.70998 0.0
H243 H 0.60822 0.14325 0.66137 0.0
H244 H 0.56819 0.99 0.74672 0.0
H245 H 0.55864 0.13569 0.74955 0.0
H246 H 0.57789 0.06661 0.82189 0.0
H247 H 0.51188 0.09377 0.83305 0.0
H248 H 0.61868 0.21465 0.77672 0.0
H249 H 0.59921 0.281 0.79727 0.0
H250 H 0.51685 0.9138 0.77827 0.0
H251 H 0.64808 0.04023 0.82379 0.0
H252 H 0.49402 0.161 0.85391 0.0
H253 H 0.54009 0.84764 0.79563 0.0
H254 H 0.67051 0.9736 0.84126 0.0
C255 C 0.57327 0.49788 0.00404 0.0
C256 C 0.56169 0.53556 0.99229 0.0
C257 C 0.57154 0.49222 0.03168 0.0
C258 C 0.55804 0.5241 0.0478 0.0
C259 C 0.54755 0.56254 0.03585 0.0
C260 C 0.54928 0.56814 0.0083 0.0
C261 C 0.55247 0.51589 0.07691 0.0
C262 C 0.59121 0.51075 0.09186 0.0
C263 C 0.58585 0.5043 0.11963 0.0
C264 C 0.54075 0.50133 0.13219 0.0
C265 C 0.5024 0.50688 0.1175 0.0
C266 C 0.50823 0.51403 0.08995 0.0
C267 C 0.45502 0.50342 0.13068 0.0
C268 C 0.42272 0.45897 0.14708 0.0
C269 C 0.43906 0.54159 0.1249 0.0
C270 C 0.38913 0.53292 0.13358 0.0
C271 C 0.355 0.48596 0.14794 0.0
C272 C 0.63025 0.50735 0.13587 0.0
C273 C 0.65842 0.48112 0.12772 0.0
C274 C 0.64834 0.54169 0.15824 0.0
C275 C 0.69649 0.55357 0.1707 0.0
C276 C 0.72701 0.53131 0.16094 0.0
C277 C 0.70672 0.49305 0.14027 0.0
C278 C 0.3726 0.4501 0.1556 0.0
H279 H 0.58291 0.47249 0.99181 0.0
H280 H 0.57934 0.46201 0.04038 0.0
H281 H 0.53779 0.58817 0.04781 0.0
H282 H 0.54057 0.5976 -0.00058 0.0
H283 H 0.62675 0.51451 0.08207 0.0
H284 H 0.47743 0.51681 0.07855 0.0
H285 H 0.53612 0.49605 0.15357 0.0
H286 H 0.43453 0.42919 0.15176 0.0
H287 H 0.46403 0.57661 0.11263 0.0
H288 H 0.37564 0.56083 0.12766 0.0
H289 H 0.64466 0.45378 0.11082 0.0
H290 H 0.62763 0.56275 0.16486 0.0
H291 H 0.3462 0.4137 0.16668 0.0
H292 H 0.73025 0.47572 0.13258 0.0
H293 H 0.71211 0.58346 0.18653 0.0
C294 C 0.20879 0.43624 0.13082 0.0
C295 C 0.19202 0.4508 0.15436 0.0
C296 C 0.28025 0.48153 0.17521 0.0
C297 C 0.29796 0.47023 0.15108 0.0
N298 N 0.27936 0.42891 0.10755 0.0
N299 N 0.21208 0.49307 0.19792 0.0
C300 C 0.26221 0.44512 0.12932 0.0
C301 C 0.22739 0.474 0.17654 0.0
N302 N 0.17417 0.41629 0.10959 0.0
N303 N 0.31404 0.49923 0.19679 0.0
H304 H 0.17382 0.48866 0.19999 0.0
H305 H 0.23827 0.51673 0.213 0.0
H306 H 0.35394 0.50733 0.19609 0.0
H307 H 0.30177 0.50221 0.21589 0.0
H308 H 0.18524 0.41077 0.09066 0.0
H309 H 0.13382 0.40673 0.11065 0.0
H310 H 0.25449 0.40638 0.09187 0.0
H311 H 0.31845 0.4351 0.10569 0.0
C312 C 0.77753 0.20471 0.49391 0.0
C313 C 0.73596 0.1954 0.51196 0.0
C314 C 0.78145 0.29078 0.52472 0.0
C315 C 0.8205 0.30108 0.50483 0.0
N316 N 0.86485 0.26876 0.47523 0.0
N317 N 0.70423 0.22299 0.54969 0.0
C318 C 0.82189 0.25807 0.49122 0.0
C319 C 0.74049 0.23645 0.52937 0.0
N320 N 0.77207 0.16328 0.478 0.0
N321 N 0.78193 0.33309 0.53788 0.0
H322 H 0.67411 0.18287 0.55312 0.0
H323 H 0.70653 0.2501 0.56423 0.0
H324 H 0.81259 0.37324 0.53532 0.0
H325 H 0.75124 0.32891 0.55052 0.0
H326 H 0.79709 0.16829 0.46193 0.0
H327 H 0.74079 0.12339 0.48058 0.0
H328 H 0.87039 0.23889 0.46632 0.0
H329 H 0.8974 0.3078 0.47233 0.0
C330 C 0.61712 0.79225 0.85205 0.0
C331 C 0.64717 0.78284 0.83223 0.0
C332 C 0.66076 0.86238 0.80735 0.0
C333 C 0.62653 0.86848 0.82578 0.0
N334 N 0.58231 0.84936 0.86831 0.0
N335 N 0.70248 0.80996 0.79308 0.0
C336 C 0.60825 0.83677 0.84911 0.0
C337 C 0.67137 0.81904 0.81073 0.0
N338 N 0.59332 0.75618 0.87242 0.0
N339 N 0.68251 0.89799 0.78661 0.0
H340 H 0.71275 0.77993 0.79611 0.0
H341 H 0.71862 0.83161 0.77565 0.0
H342 H 0.67547 0.93021 0.78368 0.0
H343 H 0.70899 0.89747 0.77262 0.0
H344 H 0.56428 0.7558 0.88505 0.0
H345 H 0.60096 0.72482 0.87643 0.0
H346 H 0.57257 0.8316 0.88704 0.0
H347 H 0.57381 0.88081 0.86626 0.0
C348 C 0.85532 0.56822 0.19912 0.0
C349 C 0.89365 0.59543 0.17883 0.0
C350 C 0.82383 0.59576 0.15095 0.0
C351 C 0.78441 0.55675 0.16839 0.0
N352 N 0.76113 0.50712 0.20967 0.0
N353 N 0.91928 0.65199 0.14009 0.0
C354 C 0.7996 0.54406 0.19296 0.0
C355 C 0.87941 0.61519 0.15626 0.0
N356 N 0.8727 0.56636 0.22416 0.0
N357 N 0.80777 0.61395 0.12955 0.0
H358 H 0.95982 0.67205 0.14596 0.0
H359 H 0.91286 0.66409 0.12162 0.0
H360 H 0.76734 0.60118 0.12537 0.0
H361 H 0.83397 0.64335 0.11632 0.0
H362 H 0.8469 0.5501 0.2404 0.0
H363 H 0.91378 0.58713 0.22907 0.0
H364 H 0.77032 0.49203 0.22651 0.0
H365 H 0.71976 0.48884 0.20574 0.0
C366 C 0.25934 0.88745 0.47989 0.0
C367 C 0.29853 0.89713 0.49952 0.0
C368 C 0.24413 0.80424 0.51593 0.0
C369 C 0.21004 0.7925 0.49359 0.0
N370 N 0.18422 0.82081 0.45364 0.0
N371 N 0.33114 0.86471 0.53562 0.0
C372 C 0.21679 0.8337 0.47557 0.0
C373 C 0.29128 0.85594 0.51783 0.0
N374 N 0.26321 0.92986 0.46545 0.0
N375 N 0.23167 0.76566 0.53504 0.0
H376 H 0.36609 0.90205 0.53826 0.0
H377 H 0.3313 0.83404 0.54679 0.0
H378 H 0.19786 0.72686 0.53376 0.0
H379 H 0.25195 0.7734 0.55315 0.0
H380 H 0.23346 0.92648 0.45232 0.0
H381 H 0.29421 0.96975 0.4685 0.0
H382 H 0.1914 0.84755 0.43805 0.0
H383 H 0.15139 0.78211 0.4502 0.0
C384 C 0.53686 0.34142 0.85883 0.0
C385 C 0.50109 0.34526 0.84054 0.0
C386 C 0.4813 0.25964 0.8199 0.0
C387 C 0.52445 0.26145 0.83475 0.0
N388 N 0.59365 0.30234 0.86831 0.0
N389 N 0.43652 0.30822 0.80489 0.0
C390 C 0.55171 0.30128 0.85462 0.0
C391 C 0.47163 0.30371 0.82178 0.0
N392 N 0.55745 0.37683 0.87972 0.0
N393 N 0.45045 0.21625 0.80371 0.0
H394 H 0.42619 0.33842 0.80709 0.0
H395 H 0.41903 0.28357 0.78833 0.0
H396 H 0.45738 0.18383 0.80131 0.0
H397 H 0.41554 0.21016 0.7941 0.0
H398 H 0.58059 0.37365 0.89485 0.0
H399 H 0.54731 0.40667 0.88335 0.0
H400 H 0.61979 0.33418 0.88063 0.0
H401 H 0.60415 0.27227 0.86623 0.0
C402 C 0.5146 0.85721 0.48072 0.0
C403 C 0.53049 0.89453 0.50239 0.0
C404 C 0.54914 0.83166 0.52856 0.0
C405 C 0.52713 0.79172 0.50807 0.0
N406 N 0.48229 0.76457 0.46566 0.0
N407 N 0.55367 0.91132 0.54886 0.0
C408 C 0.50814 0.80412 0.4844 0.0
C409 C 0.54569 0.88025 0.52676 0.0
N410 N 0.50781 0.87332 0.45617 0.0
N411 N 0.57437 0.82365 0.54971 0.0
H412 H 0.54909 0.94535 0.54871 0.0
H413 H 0.55925 0.90034 0.56783 0.0
H414 H 0.57755 0.78888 0.55179 0.0
H415 H 0.59645 0.8535 0.56382 0.0
H416 H 0.50117 0.8504 0.43897 0.0
H417 H 0.51459 0.91227 0.45257 0.0
H418 H 0.46185 0.76863 0.44946 0.0
H419 H 0.47766 0.72596 0.46741 0.0
C420 C 0.7761 0.61148 0.82567 0.0
C421 C 0.7252 0.56777 0.83449 0.0
C422 C 0.77308 0.51745 0.84466 0.0
C423 C 0.82494 0.56432 0.84093 0.0
N424 N 0.87337 0.661 0.83274 0.0
N425 N 0.68286 0.48577 0.86109 0.0
C426 C 0.82582 0.61282 0.8327 0.0
C427 C 0.72578 0.52252 0.84637 0.0
N428 N 0.77762 0.65085 0.80965 0.0
N429 N 0.76829 0.46736 0.84614 0.0
H430 H 0.65048 0.4911 0.86626 0.0
H431 H 0.68351 0.45439 0.87146 0.0
H432 H 0.80107 0.46126 0.84322 0.0
H433 H 0.73082 0.43176 0.84697 0.0
H434 H 0.81327 0.68085 0.801 0.0
H435 H 0.7429 0.64964 0.80232 0.0
H436 H 0.87525 0.69801 0.82928 0.0
H437 H 0.90985 0.66476 0.83906 0.0
C438 C 0.19389 0.71062 0.19341 0.0
C439 C 0.1846 0.67222 0.17283 0.0
C440 C 0.27909 0.7327 0.15731 0.0
C441 C 0.28755 0.77207 0.17708 0.0
N442 N 0.24965 0.80176 0.2115 0.0
N443 N 0.21524 0.65426 0.13141 0.0
C444 C 0.24376 0.76194 0.19428 0.0
C445 C 0.22651 0.68543 0.1538 0.0
N446 N 0.15622 0.69713 0.21303 0.0
N447 N 0.32171 0.74003 0.14197 0.0
H448 H 0.17708 0.62111 0.12744 0.0
H449 H 0.24176 0.66443 0.11545 0.0
H450 H 0.35973 0.77493 0.14296 0.0
H451 H 0.32051 0.71008 0.12959 0.0
H452 H 0.163 0.7197 0.23036 0.0
H453 H 0.11933 0.66097 0.21311 0.0
H454 H 0.21785 0.80021 0.22234 0.0
H455 H 0.28574 0.83852 0.21353 0.0
C456 C 0.47524 0.1989 0.52275 0.0
C457 C 0.50394 0.1911 0.50156 0.0
C458 C 0.53559 0.28595 0.4869 0.0
C459 C 0.50615 0.29332 0.50781 0.0
N460 N 0.44158 0.25401 0.54333 0.0
N461 N 0.55526 0.2249 0.46131 0.0
C462 C 0.47389 0.24874 0.52492 0.0
C463 C 0.53251 0.23423 0.48311 0.0
N464 N 0.45176 0.15978 0.54182 0.0
N465 N 0.56685 0.32886 0.47066 0.0
H466 H 0.55211 0.18742 0.45765 0.0
H467 H 0.57363 0.25217 0.44582 0.0
H468 H 0.56734 0.3657 0.47179 0.0
H469 H 0.59396 0.32928 0.45673 0.0
H470 H 0.43569 0.16473 0.55946 0.0
H471 H 0.4518 0.12324 0.54101 0.0
H472 H 0.41228 0.22185 0.55437 0.0
H473 H 0.4413 0.29012 0.54634 0.0
C474 C 0.35857 0.51095 0.82835 0.0
C475 C 0.4095 0.55759 0.83464 0.0
C476 C 0.35993 0.60754 0.84195 0.0
C477 C 0.30876 0.55893 0.84048 0.0
N478 N 0.26186 0.46116 0.83682 0.0
N479 N 0.45411 0.64761 0.8542 0.0
C480 C 0.30876 0.50972 0.83483 0.0
C481 C 0.40892 0.60522 0.84321 0.0
N482 N 0.35716 0.46836 0.81511 0.0
N483 N 0.36223 0.65662 0.84152 0.0
H484 H 0.48962 0.64685 0.85772 0.0
H485 H 0.45401 0.68081 0.86294 0.0
H486 H 0.32786 0.6603 0.83924 0.0
H487 H 0.39855 0.69331 0.84022 0.0
H488 H 0.32142 0.43574 0.80787 0.0
H489 H 0.3919 0.46861 0.80854 0.0
H490 H 0.26064 0.42401 0.83548 0.0
H491 H 0.22523 0.4578 0.84252 0.0
C492 C 0.88132 0.31256 0.18621 0.0
C493 C 0.88741 0.35183 0.16685 0.0
C494 C 0.79082 0.29211 0.15419 0.0
C495 C 0.78496 0.25229 0.17313 0.0
N496 N 0.82746 0.22146 0.20446 0.0
N497 N 0.85065 0.37313 0.12877 0.0
C498 C 0.83126 0.2616 0.18818 0.0
C499 C 0.84275 0.33984 0.14988 0.0
N500 N 0.92257 0.32504 0.20374 0.0
N501 N 0.74626 0.28472 0.1405 0.0
H502 H 0.88796 0.40732 0.12471 0.0
H503 H 0.8221 0.36444 0.11388 0.0
H504 H 0.70874 0.24929 0.14182 0.0
H505 H 0.74548 0.31467 0.12899 0.0
H506 H 0.91895 0.302 0.22046 0.0
H507 H 0.95985 0.36072 0.20266 0.0
H508 H 0.86057 0.22232 0.21364 0.0
H509 H 0.79142 0.18511 0.20741 0.0
C510 C 0.04323 0.56402 0.07644 0.0
C511 C 0.03445 0.51603 0.08945 0.0
C512 C 0.05021 0.4822 0.04733 0.0
C513 C 0.05118 0.5265 0.03384 0.0
N514 N 0.04491 0.60789 0.03492 0.0
N515 N 0.03001 0.42944 0.08804 0.0
C516 C 0.04707 0.56717 0.04826 0.0
C517 C 0.03861 0.47529 0.07514 0.0
N518 N 0.04941 0.60725 0.09115 0.0
N519 N 0.06108 0.44731 0.03355 0.0
H520 H 0.02394 0.42452 0.10853 0.0
H521 H 0.02651 0.39538 0.07848 0.0
H522 H 0.06889 0.45095 0.01317 0.0
H523 H 0.06622 0.41721 0.04243 0.0
H524 H 0.06149 0.6453 0.08311 0.0
H525 H 0.04769 0.60687 0.11186 0.0
H526 H 0.03512 0.6348 0.04396 0.0
H527 H 0.04916 0.61262 0.01435 0.0
C528 C 0.48942 0.99671 0.40547 0.0
C529 C 0.52877 0.04726 0.41666 0.0
C530 C 0.55998 0.08358 0.37179 0.0
C531 C 0.51985 0.03397 0.36053 0.0
N532 N 0.43912 0.94724 0.36613 0.0
N533 N 0.58858 0.14329 0.40983 0.0
C534 C 0.48224 0.9917 0.37725 0.0
C535 C 0.55996 0.09202 0.39957 0.0
N536 N 0.46061 0.9528 0.42147 0.0
N537 N 0.59996 0.12198 0.35615 0.0
H538 H 0.58865 0.1517 0.42998 0.0
H539 H 0.60722 0.17799 0.39807 0.0
H540 H 0.6023 0.11742 0.33571 0.0
H541 H 0.63374 0.15614 0.36385 0.0
H542 H 0.43683 0.91344 0.41429 0.0
H543 H 0.46277 0.95491 0.44209 0.0
H544 H 0.40717 0.91756 0.37715 0.0
H545 H 0.43294 0.94231 0.34563 0.0
C546 C 0.54423 0.51049 0.73611 0.0
C547 C 0.55008 0.55514 0.75139 0.0
C548 C 0.56526 0.6069 0.71014 0.0
C549 C 0.55054 0.55928 0.69499 0.0
N550 N 0.51553 0.46246 0.69427 0.0
N551 N 0.55898 0.64381 0.75261 0.0
C552 C 0.53722 0.51012 0.70817 0.0
C553 C 0.55902 0.60305 0.73832 0.0
N554 N 0.54719 0.46909 0.74815 0.0
N555 N 0.58622 0.65592 0.6977 0.0
H556 H 0.55259 0.64118 0.77305 0.0
H557 H 0.56017 0.67758 0.74391 0.0
H558 H 0.59199 0.66028 0.67717 0.0
H559 H 0.60254 0.69264 0.70794 0.0
H560 H 0.54775 0.43781 0.73762 0.0
H561 H 0.55583 0.46968 0.76831 0.0
H562 H 0.49988 0.42479 0.70346 0.0
H563 H 0.50806 0.45986 0.67387 0.0
C564 C 0.57176 0.045 0.58688 0.0
C565 C 0.52447 0.04108 0.5755 0.0
C566 C 0.49819 0.05953 0.61901 0.0
C567 C 0.54155 0.05617 0.63076 0.0
N568 N 0.61758 0.04168 0.62681 0.0
N569 N 0.44097 0.04248 0.58044 0.0
C570 C 0.57813 0.04828 0.61493 0.0
C571 C 0.4873 0.04806 0.59147 0.0
N572 N 0.61084 0.04612 0.57082 0.0
N573 N 0.46819 0.07476 0.63416 0.0
H574 H 0.43284 0.03712 0.56012 0.0
H575 H 0.40911 0.04027 0.5915 0.0
H576 H 0.47482 0.0829 0.65447 0.0
H577 H 0.43977 0.08369 0.62635 0.0
H578 H 0.64897 0.05511 0.57752 0.0
H579 H 0.60637 0.04194 0.55031 0.0
H580 H 0.64134 0.02928 0.61665 0.0
H581 H 0.62426 0.04495 0.64729 0.0
C582 C 0.60665 0.59129 0.92258 0.0
C583 C 0.5581 0.55817 0.90819 0.0
C584 C 0.51393 0.50686 0.94852 0.0
C585 C 0.56183 0.54087 0.96304 0.0
N586 N 0.65309 0.61595 0.96528 0.0
N587 N 0.46946 0.47887 0.90563 0.0
C588 C 0.60825 0.58298 0.95038 0.0
C589 C 0.51285 0.5143 0.92065 0.0
N590 N 0.65156 0.62954 0.9094 0.0
N591 N 0.4687 0.46917 0.96168 0.0
H592 H 0.46677 0.48395 0.88533 0.0
H593 H 0.43779 0.44246 0.91269 0.0
H594 H 0.46837 0.46145 0.98197 0.0
H595 H 0.43053 0.44754 0.95305 0.0
H596 H 0.68974 0.65198 0.91787 0.0
H597 H 0.65178 0.63738 0.88916 0.0
H598 H 0.68653 0.65103 0.9583 0.0
H599 H 0.65641 0.60933 0.98541 0.0
C600 C 0.07799 0.55647 0.25799 0.0
C601 C 0.03657 0.51216 0.24372 0.0
C602 C 0.98269 0.47846 0.28425 0.0
C603 C 0.02268 0.5246 0.29819 0.0
N604 N 0.10118 0.61428 0.29682 0.0
N605 N 0.94485 0.43774 0.24156 0.0
C606 C 0.06812 0.56583 0.28455 0.0
C607 C 0.98719 0.47559 0.25628 0.0
N608 N 0.12737 0.58851 0.24653 0.0
N609 N 0.9424 0.43583 0.29784 0.0
H610 H 0.94726 0.43424 0.22108 0.0
H611 H 0.90613 0.4134 0.24921 0.0
H612 H 0.93839 0.43542 0.31844 0.0
H613 H 0.91581 0.39878 0.28897 0.0
H614 H 0.16093 0.6175 0.25704 0.0
H615 H 0.13584 0.58374 0.22687 0.0
H616 H 0.1319 0.64764 0.28697 0.0
H617 H 0.09442 0.62288 0.31615 0.0
loop_
_geom_bond_atom_site_label_1
_geom_bond_atom_site_label_2
_geom_bond_distance
_geom_bond_site_symmetry_2
_ccdc_geom_bond_type
Dy0 O4 2.398 . S
Dy0 O5 2.491 . S
Dy0 O6 2.403 . S
Dy0 O7 2.664 . S
Dy0 O11 2.326 . S
Dy0 O15 2.310 . S
Dy0 O16 2.351 1_455 S
C1 O12 1.185 . S
C1 O13 1.355 . S
C2 O4 1.185 . S
C2 O5 1.355 . S
Dy3 O7 2.310 1_655 S
Dy3 O10 2.351 1_655 S
Dy3 O12 2.398 . S
Dy3 O13 2.491 . S
Dy3 O14 2.401 1_655 S
Dy3 O15 2.664 1_655 S
Dy3 O17 2.326 . S
O4 Dy0 2.398 . S
O4 C2 1.185 . S
O5 Dy0 2.491 . S
O5 C2 1.355 . S
O6 Dy0 2.403 . S
O6 C8 1.254 . S
O7 Dy0 2.664 . S
O7 Dy3 2.310 1_455 S
O7 C8 1.268 . S
C8 O6 1.254 . S
C8 O7 1.268 . S
C9 O14 1.267 . S
C9 O15 1.268 . S
O10 Dy3 2.351 1_455 S
O10 C18 1.249 . S
O11 Dy0 2.326 . S
O11 C18 1.267 . S
O12 C1 1.185 . S
O12 Dy3 2.398 . S
O13 C1 1.355 . S
O13 Dy3 2.491 . S
O14 Dy3 2.401 1_455 S
O14 C9 1.267 . S
O15 Dy0 2.310 . S
O15 Dy3 2.664 1_455 S
O15 C9 1.268 . S
O16 Dy0 2.351 1_655 S
O16 C19 1.249 . S
O17 Dy3 2.326 . S
O17 C19 1.267 . S
C18 O10 1.249 . S
C18 O11 1.267 . S
C19 O16 1.249 . S
C19 O17 1.267 . S
Dy20 O24 2.398 . S
Dy20 O25 2.491 . S
Dy20 O26 2.403 1_565 S
Dy20 O27 2.664 1_565 S
Dy20 O31 2.326 . S
Dy20 O35 2.310 1_565 S
Dy20 O36 2.351 1_565 S
C21 O32 1.185 . S
C21 O33 1.355 . S
C22 O24 1.185 . S
C22 O25 1.355 . S
Dy23 O27 2.310 . S
Dy23 O30 2.351 1_545 S
Dy23 O32 2.398 . S
Dy23 O33 2.491 . S
Dy23 O34 2.403 . S
Dy23 O35 2.664 . S
Dy23 O37 2.326 . S
O24 Dy20 2.398 . S
O24 C22 1.185 . S
O25 Dy20 2.491 . S
O25 C22 1.355 . S
O26 Dy20 2.403 1_545 S
O26 C28 1.254 . S
O27 Dy20 2.664 1_545 S
O27 Dy23 2.310 . S
O27 C28 1.268 . S
C28 O26 1.254 . S
C28 O27 1.268 . S
C29 O34 1.254 . S
C29 O35 1.268 . S
O30 Dy23 2.351 1_565 S
O30 C38 1.249 . S
O31 Dy20 2.326 . S
O31 C38 1.267 . S
O32 C21 1.185 . S
O32 Dy23 2.398 . S
O33 C21 1.355 . S
O33 Dy23 2.491 . S
O34 Dy23 2.403 . S
O34 C29 1.254 . S
O35 Dy20 2.310 1_545 S
O35 Dy23 2.664 . S
O35 C29 1.268 . S
O36 Dy20 2.351 1_545 S
O36 C39 1.249 . S
O37 Dy23 2.326 . S
O37 C39 1.267 . S
C38 O30 1.249 . S
C38 O31 1.267 . S
C39 O36 1.249 . S
C39 O37 1.267 . S
Dy40 O44 2.398 . S
Dy40 O45 2.491 . S
Dy40 O46 2.403 . S
Dy40 O47 2.664 . S
Dy40 O51 2.326 . S
Dy40 O55 2.310 . S
Dy40 O56 2.351 . S
C41 O52 1.185 . S
C41 O53 1.355 . S
C42 O44 1.185 . S
C42 O45 1.355 . S
Dy43 O47 2.310 . S
Dy43 O50 2.351 . S
Dy43 O52 2.398 . S
Dy43 O53 2.491 . S
Dy43 O54 2.403 . S
Dy43 O55 2.664 . S
Dy43 O57 2.326 . S
O44 Dy40 2.398 . S
O44 C42 1.185 . S
O45 Dy40 2.491 . S
O45 C42 1.355 . S
O46 Dy40 2.403 . S
O46 C48 1.254 . S
O47 Dy40 2.664 . S
O47 Dy43 2.310 . S
O47 C48 1.268 . S
C48 O46 1.254 . S
C48 O47 1.268 . S
C49 O54 1.254 . S
C49 O55 1.268 . S
O50 Dy43 2.351 . S
O50 C58 1.249 . S
O51 Dy40 2.326 . S
O51 C58 1.267 . S
O52 C41 1.185 . S
O52 Dy43 2.398 . S
O53 C41 1.355 . S
O53 Dy43 2.491 . S
O54 Dy43 2.403 . S
O54 C49 1.254 . S
O55 Dy40 2.310 . S
O55 Dy43 2.664 . S
O55 C49 1.268 . S
O56 Dy40 2.351 . S
O56 C59 1.249 . S
O57 Dy43 2.326 . S
O57 C59 1.267 . S
C58 O50 1.249 . S
C58 O51 1.267 . S
C59 O56 1.249 . S
C59 O57 1.267 . S
C60 C61 1.386 . S
C60 C62 1.397 . S
C60 H84 0.931 . S
C61 C60 1.386 . S
C61 C65 1.397 1_545 S
C62 C60 1.397 . S
C62 C63 1.384 . S
C62 H85 0.930 . S
C63 C62 1.384 . S
C63 C64 1.377 1_545 S
C63 C66 1.481 . S
C64 C63 1.377 1_565 S
C64 C65 1.389 . S
C64 H86 0.929 . S
C65 C61 1.397 1_565 S
C65 C64 1.389 . S
C65 H87 0.931 . S
C66 C63 1.481 . S
C66 C67 1.387 . S
C66 C71 1.390 1_545 S
C67 C66 1.387 . S
C67 C68 1.401 . S
C67 H88 0.930 . S
C68 C67 1.401 . S
C68 C69 1.376 . S
C68 C77 1.511 . S
C69 C68 1.376 . S
C69 C70 1.392 1_545 S
C69 H90 0.931 . S
C70 C69 1.392 1_565 S
C70 C71 1.361 . S
C70 C72 1.500 . S
C71 C66 1.390 1_565 S
C71 C70 1.361 . S
C71 H89 0.931 . S
C72 C70 1.500 . S
C72 C73 1.371 . S
C72 C74 1.365 . S
C73 C72 1.371 . S
C73 C83 1.386 . S
C73 H91 0.931 . S
C74 C72 1.365 . S
C74 C75 1.409 . S
C74 H92 0.929 . S
C75 C74 1.409 . S
C75 C76 1.380 . S
C75 H93 0.930 . S
C76 C75 1.380 . S
C76 C83 1.357 . S
C77 C68 1.511 . S
C77 C78 1.341 . S
C77 C79 1.371 . S
C78 C77 1.341 . S
C78 C82 1.394 . S
C78 H94 0.930 . S
C79 C77 1.371 . S
C79 C80 1.392 . S
C79 H95 0.931 . S
C80 C79 1.392 . S
C80 C81 1.331 . S
C80 H98 0.932 . S
C81 C80 1.331 . S
C81 C82 1.336 . S
C82 C78 1.394 . S
C82 C81 1.336 . S
C82 H97 0.929 . S
C83 C73 1.386 . S
C83 C76 1.357 . S
C83 H96 0.928 . S
H84 C60 0.931 . S
H85 C62 0.930 . S
H86 C64 0.929 . S
H87 C65 0.931 . S
H88 C67 0.930 . S
H89 C71 0.931 . S
H90 C69 0.931 . S
H91 C73 0.931 . S
H92 C74 0.929 . S
H93 C75 0.930 . S
H94 C78 0.930 . S
H95 C79 0.931 . S
H96 C83 0.928 . S
H97 C82 0.929 . S
H98 C80 0.932 . S
C99 C100 1.386 . S
C99 C101 1.397 . S
C99 H123 0.931 . S
C100 C99 1.386 . S
C100 C104 1.397 . S
C101 C99 1.397 . S
C101 C102 1.384 . S
C101 H124 0.930 . S
C102 C101 1.384 . S
C102 C103 1.377 . S
C102 C105 1.481 . S
C103 C102 1.377 . S
C103 C104 1.389 . S
C103 H125 0.929 . S
C104 C100 1.397 . S
C104 C103 1.389 . S
C104 H126 0.931 . S
C105 C102 1.481 . S
C105 C106 1.387 . S
C105 C110 1.390 . S
C106 C105 1.387 . S
C106 C107 1.401 . S
C106 H127 0.930 . S
C107 C106 1.401 . S
C107 C108 1.376 . S
C107 C116 1.511 . S
C108 C107 1.376 . S
C108 C109 1.392 . S
C108 H129 0.931 . S
C109 C108 1.392 . S
C109 C110 1.361 . S
C109 C111 1.500 . S
C110 C105 1.390 . S
C110 C109 1.361 . S
C110 H128 0.931 . S
C111 C109 1.500 . S
C111 C112 1.371 . S
C111 C113 1.365 . S
C112 C111 1.371 . S
C112 C122 1.386 . S
C112 H130 0.931 . S
C113 C111 1.365 . S
C113 C114 1.409 . S
C113 H131 0.929 . S
C114 C113 1.409 . S
C114 C115 1.380 . S
C114 H132 0.930 . S
C115 C114 1.380 . S
C115 C122 1.357 . S
C116 C107 1.511 . S
C116 C117 1.341 . S
C116 C118 1.371 . S
C117 C116 1.341 . S
C117 C121 1.394 . S
C117 H133 0.930 . S
C118 C116 1.371 . S
C118 C119 1.392 . S
C118 H134 0.931 . S
C119 C118 1.392 . S
C119 C120 1.331 . S
C119 H137 0.932 . S
C120 C119 1.331 . S
C120 C121 1.336 . S
C121 C117 1.394 . S
C121 C120 1.336 . S
C121 H136 0.929 . S
C122 C112 1.386 . S
C122 C115 1.357 . S
C122 H135 0.928 . S
H123 C99 0.931 . S
H124 C101 0.930 . S
H125 C103 0.929 . S
H126 C104 0.931 . S
H127 C106 0.930 . S
H128 C110 0.931 . S
H129 C108 0.931 . S
H130 C112 0.931 . S
H131 C113 0.929 . S
H132 C114 0.930 . S
H133 C117 0.930 . S
H134 C118 0.931 . S
H135 C122 0.928 . S
H136 C121 0.929 . S
H137 C119 0.932 . S
C138 C139 1.386 1_556 S
C138 C140 1.397 . S
C138 H162 0.930 1_556 S
C139 C138 1.386 1_554 S
C139 C143 1.397 1_554 S
C140 C138 1.397 . S
C140 C141 1.384 . S
C140 H163 0.930 . S
C141 C140 1.384 . S
C141 C142 1.377 . S
C141 C144 1.481 . S
C142 C141 1.377 . S
C142 C143 1.389 . S
C142 H164 0.929 1_455 S
C143 C139 1.397 1_556 S
C143 C142 1.389 . S
C143 H165 0.931 1_455 S
C144 C141 1.481 . S
C144 C145 1.387 . S
C144 C149 1.390 . S
C145 C144 1.387 . S
C145 C146 1.401 . S
C145 H166 0.930 . S
C146 C145 1.401 . S
C146 C147 1.376 . S
C146 C155 1.511 . S
C147 C146 1.376 . S
C147 C148 1.392 . S
C147 H168 0.931 . S
C148 C147 1.392 . S
C148 C149 1.361 . S
C148 C150 1.500 1_455 S
C149 C144 1.390 . S
C149 C148 1.361 . S
C149 H167 0.931 1_455 S
C150 C148 1.500 1_655 S
C150 C151 1.371 . S
C150 C152 1.365 . S
C151 C150 1.371 . S
C151 C161 1.386 . S
C151 H169 0.931 1_655 S
C152 C150 1.365 . S
C152 C153 1.409 . S
C152 H170 0.929 . S
C153 C152 1.409 . S
C153 C154 1.380 . S
C153 H171 0.930 . S
C154 C153 1.380 . S
C154 C161 1.357 . S
C155 C146 1.511 . S
C155 C156 1.341 . S
C155 C157 1.371 . S
C156 C155 1.341 . S
C156 C160 1.394 . S
C156 H172 0.930 . S
C157 C155 1.371 . S
C157 C158 1.392 . S
C157 H173 0.931 . S
C158 C157 1.392 . S
C158 C159 1.331 . S
C158 H176 0.932 . S
C159 C158 1.331 . S
C159 C160 1.336 . S
C160 C156 1.394 . S
C160 C159 1.336 . S
C160 H175 0.929 . S
C161 C151 1.386 . S
C161 C154 1.357 . S
C161 H174 0.928 . S
H162 C138 0.930 1_554 S
H163 C140 0.930 . S
H164 C142 0.929 1_655 S
H165 C143 0.931 1_655 S
H166 C145 0.930 . S
H167 C149 0.931 1_655 S
H168 C147 0.931 . S
H169 C151 0.931 1_455 S
H170 C152 0.929 . S
H171 C153 0.930 . S
H172 C156 0.930 . S
H173 C157 0.931 . S
H174 C161 0.928 . S
H175 C160 0.929 . S
H176 C158 0.932 . S
C177 C178 1.386 1_655 S
C177 C179 1.397 . S
C177 H201 0.931 . S
C178 C177 1.386 1_455 S
C178 C182 1.397 . S
C179 C177 1.397 . S
C179 C180 1.384 1_655 S
C179 H202 0.930 . S
C180 C179 1.384 1_455 S
C180 C181 1.377 . S
C180 C183 1.481 . S
C181 C180 1.377 . S
C181 C182 1.389 . S
C181 H203 0.929 . S
C182 C178 1.397 . S
C182 C181 1.389 . S
C182 H204 0.931 . S
C183 C180 1.481 . S
C183 C184 1.387 1_455 S
C183 C188 1.390 . S
C184 C183 1.387 1_655 S
C184 C185 1.401 . S
C184 H205 0.930 . S
C185 C184 1.401 . S
C185 C186 1.376 1_655 S
C185 C194 1.511 . S
C186 C185 1.376 1_455 S
C186 C187 1.392 . S
C186 H207 0.931 . S
C187 C186 1.392 . S
C187 C188 1.361 . S
C187 C189 1.500 . S
C188 C183 1.390 . S
C188 C187 1.361 . S
C188 H206 0.931 . S
C189 C187 1.500 . S
C189 C190 1.371 . S
C189 C191 1.365 . S
C190 C189 1.371 . S
C190 C200 1.386 . S
C190 H208 0.931 . S
C191 C189 1.365 . S
C191 C192 1.409 . S
C191 H209 0.929 . S
C192 C191 1.409 . S
C192 C193 1.380 . S
C192 H210 0.930 . S
C193 C192 1.380 . S
C193 C200 1.357 . S
C194 C185 1.511 . S
C194 C195 1.341 . S
C194 C196 1.371 . S
C195 C194 1.341 . S
C195 C199 1.394 . S
C195 H211 0.930 . S
C196 C194 1.371 . S
C196 C197 1.392 . S
C196 H212 0.931 . S
C197 C196 1.392 . S
C197 C198 1.331 . S
C197 H215 0.932 . S
C198 C197 1.331 . S
C198 C199 1.336 . S
C199 C195 1.394 . S
C199 C198 1.336 . S
C199 H214 0.929 . S
C200 C190 1.386 . S
C200 C193 1.357 . S
C200 H213 0.928 . S
H201 C177 0.931 . S
H202 C179 0.930 . S
H203 C181 0.929 . S
H204 C182 0.931 . S
H205 C184 0.930 . S
H206 C188 0.931 . S
H207 C186 0.931 . S
H208 C190 0.931 . S
H209 C191 0.929 . S
H210 C192 0.930 . S
H211 C195 0.930 . S
H212 C196 0.931 . S
H213 C200 0.928 . S
H214 C199 0.929 . S
H215 C197 0.932 . S
C216 C217 1.386 . S
C216 C218 1.397 . S
C216 H240 0.931 1_545 S
C217 C216 1.386 . S
C217 C221 1.397 . S
C218 C216 1.397 . S
C218 C219 1.384 . S
C218 H241 0.930 1_545 S
C219 C218 1.384 . S
C219 C220 1.377 . S
C219 C222 1.481 . S
C220 C219 1.377 . S
C220 C221 1.389 . S
C220 H242 0.929 . S
C221 C217 1.397 . S
C221 C220 1.389 . S
C221 H243 0.931 . S
C222 C219 1.481 . S
C222 C223 1.387 . S
C222 C227 1.390 . S
C223 C222 1.387 . S
C223 C224 1.401 . S
C223 H244 0.930 1_545 S
C224 C223 1.401 . S
C224 C225 1.376 . S
C224 C233 1.511 1_545 S
C225 C224 1.376 . S
C225 C226 1.392 . S
C225 H246 0.931 . S
C226 C225 1.392 . S
C226 C227 1.361 . S
C226 C228 1.500 . S
C227 C222 1.390 . S
C227 C226 1.361 . S
C227 H245 0.931 . S
C228 C226 1.500 . S
C228 C229 1.371 . S
C228 C230 1.365 . S
C229 C228 1.371 . S
C229 C239 1.386 . S
C229 H247 0.931 . S
C230 C228 1.365 . S
C230 C231 1.409 . S
C230 H248 0.929 . S
C231 C230 1.409 . S
C231 C232 1.380 . S
C231 H249 0.930 . S
C232 C231 1.380 . S
C232 C239 1.357 . S
C233 C224 1.511 1_565 S
C233 C234 1.341 . S
C233 C235 1.371 . S
C234 C233 1.341 . S
C234 C238 1.394 . S
C234 H250 0.930 . S
C235 C233 1.371 . S
C235 C236 1.392 . S
C235 H251 0.931 1_565 S
C236 C235 1.392 . S
C236 C237 1.331 . S
C236 H254 0.932 . S
C237 C236 1.331 . S
C237 C238 1.336 . S
C238 C234 1.394 . S
C238 C237 1.336 . S
C238 H253 0.929 . S
C239 C229 1.386 . S
C239 C232 1.357 . S
C239 H252 0.928 . S
H240 C216 0.931 1_565 S
H241 C218 0.930 1_565 S
H242 C220 0.929 . S
H243 C221 0.931 . S
H244 C223 0.930 1_565 S
H245 C227 0.931 . S
H246 C225 0.931 . S
H247 C229 0.931 . S
H248 C230 0.929 . S
H249 C231 0.930 . S
H250 C234 0.930 . S
H251 C235 0.931 1_545 S
H252 C239 0.928 . S
H253 C238 0.929 . S
H254 C236 0.932 . S
C255 C256 1.386 1_554 S
C255 C257 1.397 . S
C255 H279 0.931 1_554 S
C256 C255 1.386 1_556 S
C256 C260 1.397 1_556 S
C257 C255 1.397 . S
C257 C258 1.384 . S
C257 H280 0.930 . S
C258 C257 1.384 . S
C258 C259 1.377 . S
C258 C261 1.481 . S
C259 C258 1.377 . S
C259 C260 1.389 . S
C259 H281 0.929 . S
C260 C256 1.397 1_554 S
C260 C259 1.389 . S
C260 H282 0.931 . S
C261 C258 1.481 . S
C261 C262 1.387 . S
C261 C266 1.390 . S
C262 C261 1.387 . S
C262 C263 1.401 . S
C262 H283 0.930 . S
C263 C262 1.401 . S
C263 C264 1.376 . S
C263 C272 1.511 . S
C264 C263 1.376 . S
C264 C265 1.392 . S
C264 H285 0.931 . S
C265 C264 1.392 . S
C265 C266 1.361 . S
C265 C267 1.500 . S
C266 C261 1.390 . S
C266 C265 1.361 . S
C266 H284 0.931 . S
C267 C265 1.500 . S
C267 C268 1.371 . S
C267 C269 1.365 . S
C268 C267 1.371 . S
C268 C278 1.386 . S
C268 H286 0.931 . S
C269 C267 1.365 . S
C269 C270 1.409 . S
C269 H287 0.929 . S
C270 C269 1.409 . S
C270 C271 1.380 . S
C270 H288 0.930 . S
C271 C270 1.380 . S
C271 C278 1.357 . S
C272 C263 1.511 . S
C272 C273 1.341 . S
C272 C274 1.371 . S
C273 C272 1.341 . S
C273 C277 1.394 . S
C273 H289 0.930 . S
C274 C272 1.371 . S
C274 C275 1.392 . S
C274 H290 0.931 . S
C275 C274 1.392 . S
C275 C276 1.331 . S
C275 H293 0.932 . S
C276 C275 1.331 . S
C276 C277 1.336 . S
C277 C273 1.394 . S
C277 C276 1.336 . S
C277 H292 0.929 . S
C278 C268 1.386 . S
C278 C271 1.357 . S
C278 H291 0.928 . S
H279 C255 0.931 1_556 S
H280 C257 0.930 . S
H281 C259 0.929 . S
H282 C260 0.931 . S
H283 C262 0.930 . S
H284 C266 0.931 . S
H285 C264 0.931 . S
H286 C268 0.931 . S
H287 C269 0.929 . S
H288 C270 0.930 . S
H289 C273 0.930 . S
H290 C274 0.931 . S
H291 C278 0.928 . S
H292 C277 0.929 . S
H293 C275 0.932 . S
C294 C295 1.363 . S
C294 C300 1.379 . S
C294 N302 1.356 . S
C295 C294 1.363 . S
C295 C301 1.363 . S
C296 C297 1.363 . S
C296 C301 1.379 . S
C296 N303 1.356 . S
C297 C296 1.363 . S
C297 C300 1.363 . S
N298 C300 1.356 . S
N298 H310 0.984 . S
N298 H311 0.985 . S
N299 C301 1.356 . S
N299 H304 0.984 . S
N299 H305 0.985 . S
C300 C294 1.379 . S
C300 C297 1.363 . S
C300 N298 1.356 . S
C301 C295 1.363 . S
C301 C296 1.379 . S
C301 N299 1.356 . S
N302 C294 1.356 . S
N302 H308 0.984 . S
N302 H309 0.984 . S
N303 C296 1.356 . S
N303 H306 0.984 . S
N303 H307 0.985 . S
H304 N299 0.984 . S
H305 N299 0.985 . S
H306 N303 0.984 . S
H307 N303 0.985 . S
H308 N302 0.984 . S
H309 N302 0.984 . S
H310 N298 0.984 . S
H311 N298 0.985 . S
C312 C313 1.363 . S
C312 C318 1.379 . S
C312 N320 1.356 . S
C313 C312 1.363 . S
C313 C319 1.363 . S
C314 C315 1.363 . S
C314 C319 1.379 . S
C314 N321 1.356 . S
C315 C314 1.363 . S
C315 C318 1.363 . S
N316 C318 1.356 . S
N316 H328 0.984 . S
N316 H329 0.985 . S
N317 C319 1.356 . S
N317 H322 0.984 . S
N317 H323 0.985 . S
C318 C312 1.379 . S
C318 C315 1.363 . S
C318 N316 1.356 . S
C319 C313 1.363 . S
C319 C314 1.379 . S
C319 N317 1.356 . S
N320 C312 1.356 . S
N320 H326 0.984 . S
N320 H327 0.984 . S
N321 C314 1.356 . S
N321 H324 0.984 . S
N321 H325 0.985 . S
H322 N317 0.984 . S
H323 N317 0.985 . S
H324 N321 0.984 . S
H325 N321 0.985 . S
H326 N320 0.984 . S
H327 N320 0.984 . S
H328 N316 0.984 . S
H329 N316 0.985 . S
C330 C331 1.363 . S
C330 C336 1.379 . S
C330 N338 1.356 . S
C331 C330 1.363 . S
C331 C337 1.363 . S
C332 C333 1.363 . S
C332 C337 1.379 . S
C332 N339 1.356 . S
C333 C332 1.363 . S
C333 C336 1.363 . S
N334 C336 1.356 . S
N334 H346 0.984 . S
N334 H347 0.985 . S
N335 C337 1.356 . S
N335 H340 0.984 . S
N335 H341 0.985 . S
C336 C330 1.379 . S
C336 C333 1.363 . S
C336 N334 1.356 . S
C337 C331 1.363 . S
C337 C332 1.379 . S
C337 N335 1.356 . S
N338 C330 1.356 . S
N338 H344 0.984 . S
N338 H345 0.984 . S
N339 C332 1.356 . S
N339 H342 0.984 . S
N339 H343 0.985 . S
H340 N335 0.984 . S
H341 N335 0.985 . S
H342 N339 0.984 . S
H343 N339 0.985 . S
H344 N338 0.984 . S
H345 N338 0.984 . S
H346 N334 0.984 . S
H347 N334 0.985 . S
C348 C349 1.363 . S
C348 C354 1.379 . S
C348 N356 1.356 . S
C349 C348 1.363 . S
C349 C355 1.363 . S
C350 C351 1.363 . S
C350 C355 1.379 . S
C350 N357 1.356 . S
C351 C350 1.363 . S
C351 C354 1.363 . S
N352 C354 1.356 . S
N352 H364 0.984 . S
N352 H365 0.985 . S
N353 C355 1.356 . S
N353 H358 0.984 . S
N353 H359 0.985 . S
C354 C348 1.379 . S
C354 C351 1.363 . S
C354 N352 1.356 . S
C355 C349 1.363 . S
C355 C350 1.379 . S
C355 N353 1.356 . S
N356 C348 1.356 . S
N356 H362 0.984 . S
N356 H363 0.984 . S
N357 C350 1.356 . S
N357 H360 0.984 . S
N357 H361 0.985 . S
H358 N353 0.984 . S
H359 N353 0.985 . S
H360 N357 0.984 . S
H361 N357 0.985 . S
H362 N356 0.984 . S
H363 N356 0.984 . S
H364 N352 0.984 . S
H365 N352 0.985 . S
C366 C367 1.363 . S
C366 C372 1.379 . S
C366 N374 1.356 . S
C367 C366 1.363 . S
C367 C373 1.363 . S
C368 C369 1.363 . S
C368 C373 1.379 . S
C368 N375 1.356 . S
C369 C368 1.363 . S
C369 C372 1.363 . S
N370 C372 1.356 . S
N370 H382 0.984 . S
N370 H383 0.985 . S
N371 C373 1.356 . S
N371 H376 0.984 . S
N371 H377 0.985 . S
C372 C366 1.379 . S
C372 C369 1.363 . S
C372 N370 1.356 . S
C373 C367 1.363 . S
C373 C368 1.379 . S
C373 N371 1.356 . S
N374 C366 1.356 . S
N374 H380 0.984 . S
N374 H381 0.984 . S
N375 C368 1.356 . S
N375 H378 0.984 . S
N375 H379 0.985 . S
H376 N371 0.984 . S
H377 N371 0.985 . S
H378 N375 0.984 . S
H379 N375 0.985 . S
H380 N374 0.984 . S
H381 N374 0.984 . S
H382 N370 0.984 . S
H383 N370 0.985 . S
C384 C385 1.363 . S
C384 C390 1.379 . S
C384 N392 1.356 . S
C385 C384 1.363 . S
C385 C391 1.363 . S
C386 C387 1.363 . S
C386 C391 1.379 . S
C386 N393 1.356 . S
C387 C386 1.363 . S
C387 C390 1.363 . S
N388 C390 1.356 . S
N388 H400 0.984 . S
N388 H401 0.985 . S
N389 C391 1.356 . S
N389 H394 0.984 . S
N389 H395 0.985 . S
C390 C384 1.379 . S
C390 C387 1.363 . S
C390 N388 1.356 . S
C391 C385 1.363 . S
C391 C386 1.379 . S
C391 N389 1.356 . S
N392 C384 1.356 . S
N392 H398 0.984 . S
N392 H399 0.984 . S
N393 C386 1.356 . S
N393 H396 0.984 . S
N393 H397 0.985 . S
H394 N389 0.984 . S
H395 N389 0.985 . S
H396 N393 0.984 . S
H397 N393 0.985 . S
H398 N392 0.984 . S
H399 N392 0.984 . S
H400 N388 0.984 . S
H401 N388 0.985 . S
C402 C403 1.363 . S
C402 C408 1.379 . S
C402 N410 1.356 . S
C403 C402 1.363 . S
C403 C409 1.363 . S
C404 C405 1.363 . S
C404 C409 1.379 . S
C404 N411 1.356 . S
C405 C404 1.363 . S
C405 C408 1.363 . S
N406 C408 1.356 . S
N406 H418 0.984 . S
N406 H419 0.985 . S
N407 C409 1.356 . S
N407 H412 0.984 . S
N407 H413 0.985 . S
C408 C402 1.379 . S
C408 C405 1.363 . S
C408 N406 1.356 . S
C409 C403 1.363 . S
C409 C404 1.379 . S
C409 N407 1.356 . S
N410 C402 1.356 . S
N410 H416 0.984 . S
N410 H417 0.984 . S
N411 C404 1.356 . S
N411 H414 0.984 . S
N411 H415 0.985 . S
H412 N407 0.984 . S
H413 N407 0.985 . S
H414 N411 0.984 . S
H415 N411 0.985 . S
H416 N410 0.984 . S
H417 N410 0.984 . S
H418 N406 0.984 . S
H419 N406 0.985 . S
C420 C421 1.363 . S
C420 C426 1.379 . S
C420 N428 1.356 . S
C421 C420 1.363 . S
C421 C427 1.363 . S
C422 C423 1.363 . S
C422 C427 1.379 . S
C422 N429 1.356 . S
C423 C422 1.363 . S
C423 C426 1.363 . S
N424 C426 1.356 . S
N424 H436 0.984 . S
N424 H437 0.985 . S
N425 C427 1.356 . S
N425 H430 0.984 . S
N425 H431 0.985 . S
C426 C420 1.379 . S
C426 C423 1.363 . S
C426 N424 1.356 . S
C427 C421 1.363 . S
C427 C422 1.379 . S
C427 N425 1.356 . S
N428 C420 1.356 . S
N428 H434 0.984 . S
N428 H435 0.984 . S
N429 C422 1.356 . S
N429 H432 0.984 . S
N429 H433 0.985 . S
H430 N425 0.984 . S
H431 N425 0.985 . S
H432 N429 0.984 . S
H433 N429 0.985 . S
H434 N428 0.984 . S
H435 N428 0.984 . S
H436 N424 0.984 . S
H437 N424 0.985 . S
C438 C439 1.363 . S
C438 C444 1.379 . S
C438 N446 1.356 . S
C439 C438 1.363 . S
C439 C445 1.363 . S
C440 C441 1.363 . S
C440 C445 1.379 . S
C440 N447 1.356 . S
C441 C440 1.363 . S
C441 C444 1.363 . S
N442 C444 1.356 . S
N442 H454 0.984 . S
N442 H455 0.985 . S
N443 C445 1.356 . S
N443 H448 0.984 . S
N443 H449 0.985 . S
C444 C438 1.379 . S
C444 C441 1.363 . S
C444 N442 1.356 . S
C445 C439 1.363 . S
C445 C440 1.379 . S
C445 N443 1.356 . S
N446 C438 1.356 . S
N446 H452 0.984 . S
N446 H453 0.984 . S
N447 C440 1.356 . S
N447 H450 0.984 . S
N447 H451 0.985 . S
H448 N443 0.984 . S
H449 N443 0.985 . S
H450 N447 0.984 . S
H451 N447 0.985 . S
H452 N446 0.984 . S
H453 N446 0.984 . S
H454 N442 0.984 . S
H455 N442 0.985 . S
C456 C457 1.363 . S
C456 C462 1.379 . S
C456 N464 1.356 . S
C457 C456 1.363 . S
C457 C463 1.363 . S
C458 C459 1.363 . S
C458 C463 1.379 . S
C458 N465 1.356 . S
C459 C458 1.363 . S
C459 C462 1.363 . S
N460 C462 1.356 . S
N460 H472 0.984 . S
N460 H473 0.985 . S
N461 C463 1.356 . S
N461 H466 0.984 . S
N461 H467 0.985 . S
C462 C456 1.379 . S
C462 C459 1.363 . S
C462 N460 1.356 . S
C463 C457 1.363 . S
C463 C458 1.379 . S
C463 N461 1.356 . S
N464 C456 1.356 . S
N464 H470 0.984 . S
N464 H471 0.984 . S
N465 C458 1.356 . S
N465 H468 0.984 . S
N465 H469 0.985 . S
H466 N461 0.984 . S
H467 N461 0.985 . S
H468 N465 0.984 . S
H469 N465 0.985 . S
H470 N464 0.984 . S
H471 N464 0.984 . S
H472 N460 0.984 . S
H473 N460 0.985 . S
C474 C475 1.363 . S
C474 C480 1.379 . S
C474 N482 1.356 . S
C475 C474 1.363 . S
C475 C481 1.363 . S
C476 C477 1.363 . S
C476 C481 1.379 . S
C476 N483 1.356 . S
C477 C476 1.363 . S
C477 C480 1.363 . S
N478 C480 1.356 . S
N478 H490 0.984 . S
N478 H491 0.985 . S
N479 C481 1.356 . S
N479 H484 0.984 . S
N479 H485 0.985 . S
C480 C474 1.379 . S
C480 C477 1.363 . S
C480 N478 1.356 . S
C481 C475 1.363 . S
C481 C476 1.379 . S
C481 N479 1.356 . S
N482 C474 1.356 . S
N482 H488 0.984 . S
N482 H489 0.984 . S
N483 C476 1.356 . S
N483 H486 0.984 . S
N483 H487 0.985 . S
H484 N479 0.984 . S
H485 N479 0.985 . S
H486 N483 0.984 . S
H487 N483 0.985 . S
H488 N482 0.984 . S
H489 N482 0.984 . S
H490 N478 0.984 . S
H491 N478 0.985 . S
C492 C493 1.363 . S
C492 C498 1.379 . S
C492 N500 1.356 . S
C493 C492 1.363 . S
C493 C499 1.363 . S
C494 C495 1.363 . S
C494 C499 1.379 . S
C494 N501 1.356 . S
C495 C494 1.363 . S
C495 C498 1.363 . S
N496 C498 1.356 . S
N496 H508 0.984 . S
N496 H509 0.985 . S
N497 C499 1.356 . S
N497 H502 0.984 . S
N497 H503 0.985 . S
C498 C492 1.379 . S
C498 C495 1.363 . S
C498 N496 1.356 . S
C499 C493 1.363 . S
C499 C494 1.379 . S
C499 N497 1.356 . S
N500 C492 1.356 . S
N500 H506 0.984 . S
N500 H507 0.984 . S
N501 C494 1.356 . S
N501 H504 0.984 . S
N501 H505 0.985 . S
H502 N497 0.984 . S
H503 N497 0.985 . S
H504 N501 0.984 . S
H505 N501 0.985 . S
H506 N500 0.984 . S
H507 N500 0.984 . S
H508 N496 0.984 . S
H509 N496 0.985 . S
C510 C511 1.363 . S
C510 C516 1.379 . S
C510 N518 1.356 . S
C511 C510 1.363 . S
C511 C517 1.363 . S
C512 C513 1.363 . S
C512 C517 1.379 . S
C512 N519 1.356 . S
C513 C512 1.363 . S
C513 C516 1.363 . S
N514 C516 1.356 . S
N514 H526 0.984 . S
N514 H527 0.985 . S
N515 C517 1.356 . S
N515 H520 0.984 . S
N515 H521 0.985 . S
C516 C510 1.379 . S
C516 C513 1.363 . S
C516 N514 1.356 . S
C517 C511 1.363 . S
C517 C512 1.379 . S
C517 N515 1.356 . S
N518 C510 1.356 . S
N518 H524 0.984 . S
N518 H525 0.984 . S
N519 C512 1.356 . S
N519 H522 0.984 . S
N519 H523 0.985 . S
H520 N515 0.984 . S
H521 N515 0.985 . S
H522 N519 0.984 . S
H523 N519 0.985 . S
H524 N518 0.984 . S
H525 N518 0.984 . S
H526 N514 0.984 . S
H527 N514 0.985 . S
C528 C529 1.363 1_565 S
C528 C534 1.379 . S
C528 N536 1.356 . S
C529 C528 1.363 1_545 S
C529 C535 1.363 . S
C530 C531 1.363 . S
C530 C535 1.379 . S
C530 N537 1.356 . S
C531 C530 1.363 . S
C531 C534 1.363 1_545 S
N532 C534 1.356 . S
N532 H544 0.984 . S
N532 H545 0.985 . S
N533 C535 1.356 . S
N533 H538 0.984 . S
N533 H539 0.985 . S
C534 C528 1.379 . S
C534 C531 1.363 1_565 S
C534 N532 1.356 . S
C535 C529 1.363 . S
C535 C530 1.379 . S
C535 N533 1.356 . S
N536 C528 1.356 . S
N536 H542 0.984 . S
N536 H543 0.984 . S
N537 C530 1.356 . S
N537 H540 0.984 . S
N537 H541 0.985 . S
H538 N533 0.984 . S
H539 N533 0.985 . S
H540 N537 0.984 . S
H541 N537 0.985 . S
H542 N536 0.984 . S
H543 N536 0.984 . S
H544 N532 0.984 . S
H545 N532 0.985 . S
C546 C547 1.363 . S
C546 C552 1.379 . S
C546 N554 1.356 . S
C547 C546 1.363 . S
C547 C553 1.363 . S
C548 C549 1.363 . S
C548 C553 1.379 . S
C548 N555 1.356 . S
C549 C548 1.363 . S
C549 C552 1.363 . S
N550 C552 1.356 . S
N550 H562 0.984 . S
N550 H563 0.985 . S
N551 C553 1.356 . S
N551 H556 0.984 . S
N551 H557 0.985 . S
C552 C546 1.379 . S
C552 C549 1.363 . S
C552 N550 1.356 . S
C553 C547 1.363 . S
C553 C548 1.379 . S
C553 N551 1.356 . S
N554 C546 1.356 . S
N554 H560 0.984 . S
N554 H561 0.984 . S
N555 C548 1.356 . S
N555 H558 0.984 . S
N555 H559 0.985 . S
H556 N551 0.984 . S
H557 N551 0.985 . S
H558 N555 0.984 . S
H559 N555 0.985 . S
H560 N554 0.984 . S
H561 N554 0.984 . S
H562 N550 0.984 . S
H563 N550 0.985 . S
C564 C565 1.363 . S
C564 C570 1.379 . S
C564 N572 1.356 . S
C565 C564 1.363 . S
C565 C571 1.363 . S
C566 C567 1.363 . S
C566 C571 1.379 . S
C566 N573 1.356 . S
C567 C566 1.363 . S
C567 C570 1.363 . S
N568 C570 1.356 . S
N568 H580 0.984 . S
N568 H581 0.985 . S
N569 C571 1.356 . S
N569 H574 0.984 . S
N569 H575 0.985 . S
C570 C564 1.379 . S
C570 C567 1.363 . S
C570 N568 1.356 . S
C571 C565 1.363 . S
C571 C566 1.379 . S
C571 N569 1.356 . S
N572 C564 1.356 . S
N572 H578 0.984 . S
N572 H579 0.984 . S
N573 C566 1.356 . S
N573 H576 0.984 . S
N573 H577 0.985 . S
H574 N569 0.984 . S
H575 N569 0.985 . S
H576 N573 0.984 . S
H577 N573 0.985 . S
H578 N572 0.984 . S
H579 N572 0.984 . S
H580 N568 0.984 . S
H581 N568 0.985 . S
C582 C583 1.363 . S
C582 C588 1.379 . S
C582 N590 1.356 . S
C583 C582 1.363 . S
C583 C589 1.363 . S
C584 C585 1.363 . S
C584 C589 1.379 . S
C584 N591 1.356 . S
C585 C584 1.363 . S
C585 C588 1.363 . S
N586 C588 1.356 . S
N586 H598 0.984 . S
N586 H599 0.985 . S
N587 C589 1.356 . S
N587 H592 0.984 . S
N587 H593 0.985 . S
C588 C582 1.379 . S
C588 C585 1.363 . S
C588 N586 1.356 . S
C589 C583 1.363 . S
C589 C584 1.379 . S
C589 N587 1.356 . S
N590 C582 1.356 . S
N590 H596 0.984 . S
N590 H597 0.984 . S
N591 C584 1.356 . S
N591 H594 0.984 . S
N591 H595 0.985 . S
H592 N587 0.984 . S
H593 N587 0.985 . S
H594 N591 0.984 . S
H595 N591 0.985 . S
H596 N590 0.984 . S
H597 N590 0.984 . S
H598 N586 0.984 . S
H599 N586 0.985 . S
C600 C601 1.363 . S
C600 C606 1.379 . S
C600 N608 1.356 . S
C601 C600 1.363 . S
C601 C607 1.363 1_455 S
C602 C603 1.363 1_655 S
C602 C607 1.379 . S
C602 N609 1.356 . S
C603 C602 1.363 1_455 S
C603 C606 1.363 . S
N604 C606 1.356 . S
N604 H616 0.984 . S
N604 H617 0.985 . S
N605 C607 1.356 . S
N605 H610 0.984 . S
N605 H611 0.985 . S
C606 C600 1.379 . S
C606 C603 1.363 . S
C606 N604 1.356 . S
C607 C601 1.363 1_655 S
C607 C602 1.379 . S
C607 N605 1.356 . S
N608 C600 1.356 . S
N608 H614 0.984 . S
N608 H615 0.984 . S
N609 C602 1.356 . S
N609 H612 0.984 . S
N609 H613 0.985 . S
H610 N605 0.984 . S
H611 N605 0.985 . S
H612 N609 0.984 . S
H613 N609 0.985 . S
H614 N608 0.984 . S
H615 N608 0.984 . S
H616 N604 0.984 . S
H617 N604 0.985 . S
C295 C2 1.165 . S
C297 C271 1.145 . S
C313 C21 1.125 . S
C315 C198 1.104 . S
C331 C42 1.171 . S
C333 C237 1.150 . S
C349 C1 1.117 . S
C351 C276 1.093 . S
C369 C193 1.132 . S
C367 C22 1.155 . S
C387 C232 1.088 . S
C385 C41 1.110 . S
C403 C38 2.031 . S
C405 C120 1.959 . S
C421 C59 2.061 . S
C423 C154 2.001 . S
C439 C18 2.017 . S
C441 C76 1.943 . S
C459 C115 1.988 . S
C457 C39 2.050 . S
C477 C159 1.947 . S
C475 C58 2.021 . S
C493 C19 2.063 . S
C495 C81 2.005 . S
C513 C139 1.577 . S
C511 C9 1.506 . S
C529 C29 1.509 . S
C531 C61 1.579 . S
C547 C49 1.508 . S
C549 C100 1.576 . S
C567 C217 1.391 . S
C565 C28 1.368 . S
C585 C256 1.391 . S
C583 C48 1.367 . S
C601 C8 1.364 . S
C603 C178 1.389 . S
