# Generated by pormake.
# Topology pts, (4,4)-cn, num edge types: 1
# Building blocks:
#     Node 0, Type 0, BuildingBlock: AZAVOO_clean_linker_0, # of connection points: 4
#     Node 1, Type 0, BuildingBlock: AZAVOO_clean_linker_0, # of connection points: 4
#     Node 2, Type 1, BuildingBlock: UXUYUI_clean_sbu_0, # of connection points: 4
#     Node 3, Type 1, BuildingBlock: UXUYUI_clean_sbu_0, # of connection points: 4
#     Edge 4, Type (0, 1), BuildingBlock: TEMPAE_clean_linker_10, # of connection points: 2
#     Edge 5, Type (0, 1), BuildingBlock: TEMPAE_clean_linker_10, # of connection points: 2
#     Edge 6, Type (0, 1), BuildingBlock: TEMPAE_clean_linker_10, # of connection points: 2
#     Edge 7, Type (0, 1), BuildingBlock: TEMPAE_clean_linker_10, # of connection points: 2
#     Edge 8, Type (0, 1), BuildingBlock: TEMPAE_clean_linker_10, # of connection points: 2
#     Edge 9, Type (0, 1), BuildingBlock: TEMPAE_clean_linker_10, # of connection points: 2
#     Edge 10, Type (0, 1), BuildingBlock: TEMPAE_clean_linker_10, # of connection points: 2
#     Edge 11, Type (0, 1), BuildingBlock: TEMPAE_clean_linker_10, # of connection points: 2
# Relax obj value: 0.120
# Max RMSD: 0.231
# Mean RMSD: 0.163
data_MOF--net-pts--node1-UXUYUI_clean_sbu_0--node2-AZAVOO_clean_linker_0--edge1-TEMPAE_clean_linker_10
_symmetry_space_group_name_H-M    P1
_symmetry_Int_Tables_number       1
_symmetry_cell_setting            triclinic
loop_
_symmetry_equiv_pos_as_xyz
'x, y, z'
_cell_length_a     32.621031
_cell_length_b     32.632936
_cell_length_c     56.277144
_cell_angle_alpha  91.458898
_cell_angle_beta   91.466848
_cell_angle_gamma 90.046433
loop_
_atom_site_label
_atom_site_type_symbol
_atom_site_fract_x
_atom_site_fract_y
_atom_site_fract_z
_atom_type_partial_charge
H0 H 0.48226 0.1134 0.85925 0.0
H1 H 0.79718 0.9595 0.05624 0.0
H2 H 0.48423 0.13233 0.98483 0.0
H3 H 0.42058 0.14296 0.96183 0.0
H4 H 0.37998 0.02152 0.97896 0.0
H5 H 0.4442 0.01069 0.00154 0.0
H6 H 0.55871 0.11732 0.95448 0.0
H7 H 0.53377 0.12594 0.91351 0.0
H8 H 0.46941 0.01028 0.91608 0.0
H9 H 0.49509 0.00177 0.95688 0.0
H10 H 0.63997 0.10266 0.98004 0.0
H11 H 0.68917 0.09877 0.94801 0.0
H12 H 0.64355 0.97806 0.92769 0.0
H13 H 0.59356 0.98298 0.95939 0.0
H14 H 0.64907 0.09562 0.03487 0.0
H15 H 0.71746 0.07998 0.05104 0.0
H16 H 0.70306 0.95404 0.02642 0.0
H17 H 0.63447 0.97006 0.01058 0.0
H18 H 0.57787 0.10575 0.06554 0.0
H19 H 0.62093 0.0996 0.10144 0.0
H20 H 0.62285 0.96798 0.09076 0.0
H21 H 0.58048 0.97464 0.05458 0.0
H22 H 0.48177 0.12238 0.04168 0.0
H23 H 0.42737 0.12569 0.07095 0.0
H24 H 0.43898 0.99526 0.08087 0.0
H25 H 0.49266 0.99217 0.05128 0.0
O26 O 0.49276 0.10884 0.8752 0.0
O27 O 0.46046 0.04908 0.87742 0.0
O28 O 0.77678 0.032 0.06139 0.0
O29 O 0.77088 0.96684 0.04923 0.0
C30 C 0.51149 0.06012 0.00184 0.0
C31 C 0.54114 0.05526 0.98406 0.0
C32 C 0.58222 0.04674 0.9905 0.0
C33 C 0.59357 0.04237 0.0146 0.0
C34 C 0.56358 0.04558 0.03228 0.0
C35 C 0.52253 0.05455 0.02595 0.0
C36 C 0.46888 0.07061 0.99461 0.0
C37 C 0.46098 0.10857 0.98429 0.0
C38 C 0.42483 0.11453 0.9711 0.0
C39 C 0.39582 0.08286 0.96847 0.0
C40 C 0.40191 0.04642 0.98085 0.0
C41 C 0.43841 0.04025 0.9938 0.0
C42 C 0.52878 0.05889 0.95859 0.0
C43 C 0.53973 0.09362 0.94602 0.0
C44 C 0.52522 0.09857 0.92268 0.0
C45 C 0.49944 0.06888 0.91155 0.0
C46 C 0.48915 0.03375 0.92412 0.0
C47 C 0.50382 0.02878 0.9474 0.0
C48 C 0.61341 0.04308 0.97197 0.0
C49 C 0.64087 0.07533 0.96872 0.0
C50 C 0.66901 0.07294 0.95049 0.0
C51 C 0.67032 0.03806 0.93528 0.0
C52 C 0.64295 0.00556 0.93885 0.0
C53 C 0.61464 0.00813 0.95703 0.0
C54 C 0.63691 0.03396 0.02159 0.0
C55 C 0.66097 0.06479 0.03276 0.0
C56 C 0.69995 0.05574 0.04204 0.0
C57 C 0.71565 0.01567 0.04015 0.0
C58 C 0.69187 0.98516 0.02825 0.0
C59 C 0.65281 0.99426 0.01904 0.0
C60 C 0.57647 0.04068 0.05744 0.0
C61 C 0.58614 0.07551 0.07155 0.0
C62 C 0.61085 0.0719 0.09202 0.0
C63 C 0.62594 0.03334 0.09863 0.0
C64 C 0.61232 0.99813 0.08583 0.0
C65 C 0.58776 0.0018 0.06534 0.0
C66 C 0.49103 0.05705 0.0444 0.0
C67 C 0.47257 0.09461 0.05026 0.0
C68 C 0.44173 0.09646 0.06704 0.0
C69 C 0.42886 0.0607 0.07815 0.0
C70 C 0.4479 0.02322 0.0724 0.0
C71 C 0.47873 0.02143 0.05567 0.0
C72 C 0.48303 0.07481 0.88704 0.0
C73 C 0.75632 0.00553 0.05087 0.0
H74 H 0.0194 0.47106 0.3594 0.0
H75 H 0.06915 0.79878 0.57959 0.0
H76 H 0.99578 0.45274 0.50264 0.0
H77 H 0.9943 0.38687 0.48071 0.0
H78 H 0.12048 0.40491 0.46163 0.0
H79 H 0.12193 0.46982 0.48418 0.0
H80 H 0.99172 0.51234 0.45946 0.0
H81 H 0.99108 0.49228 0.41724 0.0
H82 H 0.11928 0.52507 0.41401 0.0
H83 H 0.11956 0.5445 0.45632 0.0
H84 H 0.98795 0.61706 0.47271 0.0
H85 H 0.98832 0.66903 0.44187 0.0
H86 H 0.12074 0.67096 0.4456 0.0
H87 H 0.12005 0.61959 0.47669 0.0
H88 H 0.98333 0.63873 0.52127 0.0
H89 H 0.97694 0.70727 0.53953 0.0
H90 H 0.10775 0.70965 0.55411 0.0
H91 H 0.11368 0.64129 0.53556 0.0
H92 H 0.98423 0.57758 0.5604 0.0
H93 H 0.98199 0.61881 0.59723 0.0
H94 H 0.11423 0.61404 0.60347 0.0
H95 H 0.11595 0.57187 0.56696 0.0
H96 H 0.99409 0.49499 0.55653 0.0
H97 H 0.99619 0.44059 0.58565 0.0
H98 H 0.12121 0.4133 0.56703 0.0
H99 H 0.11927 0.46894 0.53868 0.0
O100 O 0.02025 0.47949 0.37602 0.0
O101 O 0.0859 0.49769 0.37515 0.0
O102 O 0.00468 0.77162 0.56135 0.0
O103 O 0.07108 0.77249 0.57135 0.0
C104 C 0.05711 0.50913 0.50346 0.0
C105 C 0.05606 0.54062 0.48666 0.0
C106 C 0.05392 0.58194 0.49437 0.0
C107 C 0.05186 0.59183 0.51877 0.0
C108 C 0.05229 0.56032 0.53557 0.0
C109 C 0.05523 0.51894 0.52799 0.0
C110 C 0.0589 0.46596 0.49485 0.0
C111 C 0.02342 0.44171 0.49434 0.0
C112 C 0.02252 0.4044 0.48161 0.0
C113 C 0.05711 0.39096 0.46917 0.0
C114 C 0.09345 0.41415 0.47116 0.0
C115 C 0.09434 0.4513 0.48396 0.0
C116 C 0.05559 0.5301 0.46083 0.0
C117 C 0.01955 0.5153 0.44954 0.0
C118 C 0.01931 0.50383 0.42545 0.0
C119 C 0.05513 0.50711 0.41223 0.0
C120 C 0.09115 0.52224 0.42365 0.0
C121 C 0.09137 0.53355 0.44777 0.0
C122 C 0.05397 0.61478 0.4768 0.0
C123 C 0.01693 0.62909 0.46699 0.0
C124 C 0.01721 0.65863 0.44946 0.0
C125 C 0.05458 0.67368 0.44134 0.0
C126 C 0.09159 0.65947 0.45141 0.0
C127 C 0.09125 0.63042 0.46917 0.0
C128 C 0.04897 0.63527 0.52701 0.0
C129 C 0.01063 0.65449 0.52801 0.0
C130 C 0.00706 0.69348 0.53859 0.0
C131 C 0.04183 0.71385 0.54841 0.0
C132 C 0.08036 0.69481 0.54679 0.0
C133 C 0.0839 0.6559 0.53609 0.0
C134 C 0.05025 0.57194 0.56108 0.0
C135 C 0.01251 0.58382 0.57036 0.0
C136 C 0.01136 0.60778 0.5912 0.0
C137 C 0.048 0.62039 0.60291 0.0
C138 C 0.08549 0.60471 0.5949 0.0
C139 C 0.08657 0.58051 0.57409 0.0
C140 C 0.05659 0.48601 0.54563 0.0
C141 C 0.02203 0.47751 0.55896 0.0
C142 C 0.02318 0.44616 0.57539 0.0
C143 C 0.05887 0.42255 0.57865 0.0
C144 C 0.09345 0.43125 0.56521 0.0
C145 C 0.09233 0.46278 0.54888 0.0
C146 C 0.05485 0.49455 0.38669 0.0
C147 C 0.03793 0.75442 0.56067 0.0
Li148 Li 0.04629 0.07878 0.27559 0.0
Li149 Li 0.05014 0.00503 0.26981 0.0
Li150 Li 0.08157 0.04887 0.2401 0.0
Li151 Li 0.00915 0.04212 0.24339 0.0
C152 C 0.1311 0.0653 0.28043 0.0
N153 N 0.20214 0.10845 0.29173 0.0
C154 C 0.16288 0.04679 0.29333 0.0
C155 C 0.13538 0.10578 0.27331 0.0
C156 C 0.19858 0.06912 0.29886 0.0
C157 C 0.17155 0.12706 0.27918 0.0
C158 C 0.98293 0.01463 0.29376 0.0
C159 C 0.94658 0.95271 0.30275 0.0
N160 N 0.94789 0.96387 0.32621 0.0
C161 C 0.98341 0.02572 0.31792 0.0
C162 C 0.9639 0.97807 0.28607 0.0
C163 C 0.9657 -0.00043 0.33405 0.0
C164 C 0.03734 0.15965 0.2956 0.0
N165 N 0.04862 0.1203 0.29961 0.0
C166 C 0.06408 0.13644 0.34046 0.0
C167 C 0.06246 0.10847 0.32134 0.0
C168 C 0.05172 0.1771 0.33707 0.0
C169 C 0.03864 0.18878 0.31423 0.0
H170 H 0.02719 0.16837 0.27802 0.0
H171 H 0.07186 0.07706 0.32384 0.0
C172 C 0.05087 0.91913 0.27879 0.0
N173 N 0.05735 0.95757 0.28796 0.0
C174 C 0.05329 0.88546 0.29362 0.0
C175 C 0.06969 0.9318 0.32675 0.0
C176 C 0.06732 0.96438 0.31129 0.0
C177 C 0.06233 0.89166 0.31803 0.0
H178 H 0.04316 0.91471 0.26011 0.0
H179 H 0.07217 0.99541 0.318 0.0
C180 C 0.01582 0.11725 0.22803 0.0
N181 N 0.96134 0.1613 0.20033 0.0
C182 C 0.02386 0.12367 0.20414 0.0
C183 C 0.98016 0.13333 0.23787 0.0
C184 C 0.99593 0.14605 0.19043 0.0
C185 C 0.95296 0.15545 0.22356 0.0
C186 C 0.03297 0.98064 0.21445 0.0
C187 C 0.04792 0.99163 0.19243 0.0
C188 C 0.00172 0.95143 0.21536 0.0
C189 C 0.03094 0.97357 0.17166 0.0
C190 C 0.98547 0.93417 0.19418 0.0
N191 N 0.00028 0.94551 0.17295 0.0
C192 C 0.15057 0.02085 0.2163 0.0
C193 C 0.13744 0.09176 0.21193 0.0
C194 C 0.18472 0.0232 0.20198 0.0
N195 N 0.12762 0.05475 0.22076 0.0
C196 C 0.17135 0.09553 0.1975 0.0
C197 C 0.19538 0.06089 0.19227 0.0
H198 H 0.14199 0.99189 0.22369 0.0
H199 H 0.119 0.11835 0.21616 0.0
C200 C 0.92286 0.03874 0.23783 0.0
N201 N 0.95811 0.04143 0.22557 0.0
C202 C 0.8849 0.03803 0.22583 0.0
C203 C 0.92 0.04402 0.18879 0.0
C204 C 0.95727 0.04447 0.2015 0.0
C205 C 0.88319 0.04057 0.20097 0.0
H206 H 0.9241 0.03753 0.25698 0.0
H207 H 0.98549 0.04751 0.19212 0.0
O208 O 0.09605 0.0437 0.2749 0.0
O209 O 0.00106 0.0393 0.27772 0.0
O210 O 0.04242 0.09485 0.24165 0.0
O211 O 0.04931 0.9979 0.235 0.0
H212 H 0.15997 0.01549 0.299 0.0
H213 H 0.11108 0.12066 0.26337 0.0
H214 H 0.22346 0.05518 0.30883 0.0
H215 H 0.17529 0.15839 0.27377 0.0
H216 H 0.93216 0.92413 0.29705 0.0
H217 H 0.99735 0.05415 0.32418 0.0
H218 H 0.96291 0.96919 0.26745 0.0
H219 H 0.96612 0.00767 0.35282 0.0
H220 H 0.07506 0.12642 0.35768 0.0
H221 H 0.0288 0.21985 0.31091 0.0
H222 H 0.04796 0.85501 0.28608 0.0
H223 H 0.07604 0.9382 0.34545 0.0
H224 H 0.05103 0.111 0.19615 0.0
H225 H 0.97321 0.12812 0.25626 0.0
H226 H 0.00163 0.15108 0.17188 0.0
H227 H 0.9251 0.16781 0.23088 0.0
H228 H 0.07194 0.01428 0.19132 0.0
H229 H 0.99 0.94226 0.2322 0.0
H230 H 0.04201 0.98201 0.1545 0.0
H231 H 0.9611 0.91172 0.19463 0.0
H232 H 0.20213 0.99566 0.19819 0.0
H233 H 0.17887 0.12526 0.19065 0.0
H234 H 0.85717 0.03609 0.23592 0.0
H235 H 0.92006 0.04587 0.1696 0.0
Li236 Li 0.00735 0.04282 0.76957 0.0
Li237 Li 0.08198 0.04524 0.77698 0.0
Li238 Li 0.0508 0.07611 0.74197 0.0
Li239 Li 0.05256 0.00402 0.74513 0.0
C240 C 0.03923 0.10865 0.79812 0.0
N241 N 0.03231 0.14194 0.84349 0.0
C242 C 0.03324 0.08316 0.81734 0.0
C243 C 0.04174 0.15105 0.802 0.0
C244 C 0.02981 0.10059 0.84013 0.0
C245 C 0.03814 0.1673 0.82506 0.0
C246 C 0.05685 0.95871 0.78292 0.0
C247 C 0.1105 0.90786 0.78391 0.0
N248 N 0.08204 0.87839 0.78762 0.0
C249 C 0.02816 0.92793 0.78683 0.0
C250 C 0.09839 0.94862 0.78148 0.0
C251 C 0.0415 0.88751 0.78912 0.0
C252 C 0.93438 0.0071 0.7841 0.0
N253 N 0.95519 0.04315 0.78397 0.0
C254 C 0.904 0.07613 0.8072 0.0
C255 C 0.93996 0.07775 0.7944 0.0
C256 C 0.88305 0.0387 0.80889 0.0
C257 C 0.89808 0.00412 0.79654 0.0
H258 H 0.94638 0.98051 0.77483 0.0
H259 H 0.9562 0.10646 0.79336 0.0
C260 C 0.15165 0.08131 0.7995 0.0
N261 N 0.12302 0.05132 0.80121 0.0
C262 C 0.18108 0.08763 0.8177 0.0
C263 C 0.15106 0.03188 0.83885 0.0
C264 C 0.1219 0.02706 0.82046 0.0
C265 C 0.18104 0.0625 0.83757 0.0
H266 H 0.15131 0.10049 0.78409 0.0
H267 H 0.09807 0.00427 0.8217 0.0
C268 C 0.97151 0.0578 0.72619 0.0
N269 N 0.90365 0.09955 0.70916 0.0
C270 C 0.94621 0.04002 0.70836 0.0
C271 C 0.9623 0.09686 0.73537 0.0
C272 C 0.91204 0.06161 0.69999 0.0
C273 C 0.92786 0.11745 0.72652 0.0
C274 C 0.11868 0.03965 0.72214 0.0
C275 C 0.0954 0.02986 0.70157 0.0
C276 C 0.16043 0.0483 0.72041 0.0
C277 C 0.11433 0.0289 0.67958 0.0
C278 C 0.17825 0.04702 0.69809 0.0
N279 N 0.15502 0.03743 0.67831 0.0
C280 C 0.07142 0.15655 0.72982 0.0
C281 C 0.04113 0.11665 0.69823 0.0
C282 C 0.07425 0.19031 0.71518 0.0
N283 N 0.05491 0.12078 0.72117 0.0
C284 C 0.04362 0.14945 0.68294 0.0
C285 C 0.06023 0.18692 0.6914 0.0
H286 H 0.08233 0.15882 0.74812 0.0
H287 H 0.02792 0.08794 0.69182 0.0
C288 C 0.02057 0.93363 0.7226 0.0
N289 N 0.05646 0.95282 0.72855 0.0
C290 C 0.02074 0.89522 0.71118 0.0
C291 C 0.0949 0.89704 0.71229 0.0
C292 C 0.09328 0.93547 0.72369 0.0
C293 C 0.05827 0.87641 0.7059 0.0
H294 H 0.9918 0.94818 0.72687 0.0
H295 H 0.12137 0.95122 0.72895 0.0
O296 O 0.04325 0.0924 0.77564 0.0
O297 O 0.04439 -0.00164 0.77996 0.0
O298 O 0.00505 0.03679 0.73444 0.0
O299 O 0.10096 0.04106 0.74392 0.0
H300 H 0.03107 0.0503 0.81474 0.0
H301 H 0.0464 0.17121 0.78733 0.0
H302 H 0.02513 0.08122 0.85514 0.0
H303 H 0.04 0.20007 0.82831 0.0
H304 H 0.14251 0.89963 0.78268 0.0
H305 H 0.99595 0.93504 0.78807 0.0
H306 H 0.12097 0.97191 0.77807 0.0
H307 H 0.0196 0.86337 0.79209 0.0
H308 H 0.89372 0.1036 0.81645 0.0
H309 H 0.88233 0.97491 0.7968 0.0
H310 H 0.20385 0.11153 0.81616 0.0
H311 H 0.14977 0.01236 0.8541 0.0
H312 H 0.95295 0.00982 0.70107 0.0
H313 H 0.98149 0.11129 0.74909 0.0
H314 H 0.8922 0.0482 0.68618 0.0
H315 H 0.9204 0.14768 0.73345 0.0
H316 H 0.06305 0.02307 0.70252 0.0
H317 H 0.17886 0.05598 0.73618 0.0
H318 H 0.09666 0.0214 0.66353 0.0
H319 H 0.21054 0.05366 0.69649 0.0
H320 H 0.08758 0.21859 0.7223 0.0
H321 H 0.03201 0.14577 0.66481 0.0
H322 H 0.9918 0.88065 0.70628 0.0
H323 H 0.12447 0.88341 0.70879 0.0
C324 C 0.36416 0.03238 0.09414 0.0
C325 C 0.39513 0.06224 0.09534 0.0
C326 C 0.33203 0.03326 0.11021 0.0
C327 C 0.33086 0.06476 0.12794 0.0
C328 C 0.36198 0.09506 0.12924 0.0
C329 C 0.39375 0.09347 0.11288 0.0
C330 C 0.29928 0.00052 0.10818 0.0
C331 C 0.36179 0.12901 0.14798 0.0
C332 C 0.22769 0.08583 0.15541 0.0
C333 C 0.23089 0.06371 0.17642 0.0
C334 C 0.26032 0.08712 0.13968 0.0
C335 C 0.29701 0.0658 0.14512 0.0
C336 C 0.30075 0.04413 0.16653 0.0
C337 C 0.26763 0.04333 0.18192 0.0
C338 C 0.25518 0.11048 0.11697 0.0
C339 C 0.33949 0.02118 0.17298 0.0
H340 H 0.36478 0.00853 0.08038 0.0
H341 H 0.41785 0.11638 0.11402 0.0
H342 H 0.29814 0.9836 0.125 0.0
H343 H 0.26879 0.01484 0.10529 0.0
H344 H 0.30466 0.97819 0.09336 0.0
H345 H 0.38815 0.1503 0.14651 0.0
H346 H 0.33296 0.14686 0.14642 0.0
H347 H 0.36285 0.11578 0.16595 0.0
H348 H 0.19922 0.10126 0.15093 0.0
H349 H 0.27048 0.02669 0.19831 0.0
H350 H 0.25702 0.089 0.10143 0.0
H351 H 0.28034 0.1331 0.11557 0.0
H352 H 0.22541 0.12692 0.11589 0.0
H353 H 0.34487 0.9965 0.15949 0.0
H354 H 0.33807 0.0072 0.19073 0.0
H355 H 0.36627 0.04215 0.17293 0.0
C356 C 0.02596 0.36253 0.59755 0.0
C357 C 0.05986 0.38867 0.59581 0.0
C358 C 0.02651 0.33022 0.61352 0.0
C359 C 0.06193 0.32369 0.62798 0.0
C360 C 0.09625 0.34993 0.62634 0.0
C361 C 0.09475 0.38219 0.61032 0.0
C362 C 0.98929 0.30289 0.6148 0.0
C363 C 0.13458 0.34383 0.64144 0.0
C364 C 0.04962 0.26132 0.6834 0.0
C365 C 0.0623 0.22237 0.67551 0.0
C366 C 0.04975 0.29473 0.66819 0.0
C367 C 0.06314 0.28903 0.6446 0.0
C368 C 0.07671 0.24994 0.63668 0.0
C369 C 0.07599 0.21703 0.65222 0.0
C370 C 0.03478 0.33591 0.67719 0.0
C371 C 0.09158 0.24279 0.61173 0.0
H372 H -0.00086 0.36693 0.58615 0.0
H373 H 0.12084 0.40261 0.60932 0.0
H374 H 0.9976 0.27086 0.60993 0.0
H375 H 0.97813 0.30288 0.63325 0.0
H376 H 0.96382 0.31272 0.60276 0.0
H377 H 0.15864 0.36688 0.63799 0.0
H378 H 0.12712 0.34583 0.66056 0.0
H379 H 0.14726 0.31278 0.63793 0.0
H380 H 0.03861 0.26544 0.70131 0.0
H381 H 0.0863 0.18706 0.64617 0.0
H382 H 0.00744 0.34531 0.66654 0.0
H383 H 0.05873 0.35957 0.67503 0.0
H384 H 0.02651 0.3355 0.69621 0.0
H385 H 0.06651 0.24926 0.59867 0.0
H386 H 0.10229 0.21084 0.60859 0.0
H387 H 0.11715 0.26408 0.60824 0.0
C388 C 0.6606 0.0547 0.13733 0.0
C389 C 0.66018 0.03057 0.11636 0.0
C390 C 0.69523 0.05578 0.15268 0.0
C391 C 0.73015 0.03221 0.14683 0.0
C392 C 0.72938 0.00682 0.12607 0.0
C393 C 0.69448 0.00641 0.11106 0.0
C394 C 0.69499 0.08319 0.17469 0.0
C395 C 0.76605 0.98134 0.11915 0.0
C396 C 0.83558 0.06653 0.16922 0.0
C397 C 0.84325 0.03951 0.18778 0.0
C398 C 0.79849 0.06502 0.15608 0.0
C399 C 0.7684 0.03572 0.16163 0.0
C400 C 0.77567 0.00878 0.18058 0.0
C401 C 0.81303 0.01103 0.19347 0.0
C402 C 0.79175 0.0944 0.13604 0.0
C403 C 0.74442 0.97692 0.18685 0.0
H404 H 0.6341 0.0733 0.14152 0.0
H405 H 0.69476 0.98841 0.09461 0.0
H406 H 0.70357 0.06546 0.19062 0.0
H407 H 0.71817 0.10785 0.17321 0.0
H408 H 0.66458 0.09758 0.17747 0.0
H409 H 0.75915 0.96052 0.10363 0.0
H410 H 0.79168 0.00183 0.11457 0.0
H411 H 0.77679 0.96267 0.13428 0.0
H412 H 0.85862 0.08899 0.16501 0.0
H413 H 0.81901 0.9898 0.20764 0.0
H414 H 0.76313 0.11207 0.13873 0.0
H415 H 0.788 0.07702 0.11892 0.0
H416 H 0.81761 0.11629 0.13458 0.0
H417 H 0.71441 0.99167 0.19018 0.0
H418 H 0.75394 0.95962 0.20281 0.0
H419 H 0.73976 0.95487 0.17168 0.0
C420 C 0.02372 0.68921 0.61648 0.0
C421 C 0.04758 0.65435 0.6209 0.0
C422 C 0.02567 0.72363 0.63181 0.0
C423 C 0.05235 0.72334 0.65203 0.0
C424 C 0.07592 0.68798 0.65691 0.0
C425 C 0.07331 0.65384 0.64123 0.0
C426 C 0.00021 0.76083 0.62588 0.0
C427 C 0.1047 0.68666 0.67831 0.0
C428 C 0.08608 0.82865 0.67476 0.0
C429 C 0.059 0.83588 0.69336 0.0
C430 C 0.08525 0.79147 0.66171 0.0
C431 C 0.05659 0.76085 0.66738 0.0
C432 C 0.03005 0.76742 0.68659 0.0
C433 C 0.0316 0.80487 0.69938 0.0
C434 C 0.11404 0.78553 0.64131 0.0
C435 C -0.00093 0.73547 0.69312 0.0
H436 H 0.00456 0.69024 0.60048 0.0
H437 H 0.09177 0.62693 0.64469 0.0
H438 H 0.98234 0.77097 0.64147 0.0
H439 H 0.02068 0.78651 0.62139 0.0
H440 H 0.97859 0.75484 0.61061 0.0
H441 H 0.11918 0.65609 0.6803 0.0
H442 H 0.12926 0.70989 0.6767 0.0
H443 H 0.08798 0.69448 0.69474 0.0
H444 H 0.10704 0.85262 0.66987 0.0
H445 H 0.01108 0.81004 0.714 0.0
H446 H 0.09615 0.78301 0.62431 0.0
H447 H 0.13144 0.75656 0.64325 0.0
H448 H 0.13619 0.81124 0.64017 0.0
H449 H 0.97613 0.73118 0.67836 0.0
H450 H 0.98267 0.74415 0.70955 0.0
H451 H 0.01437 0.70552 0.69573 0.0
C452 C 0.32203 0.07651 0.95566 0.0
C453 C 0.36266 0.08538 0.95023 0.0
C454 C 0.29121 0.07553 0.93778 0.0
C455 C 0.30166 0.08265 0.91395 0.0
C456 C 0.34263 0.09223 0.90851 0.0
C457 C 0.3726 0.09373 0.92677 0.0
C458 C 0.24771 0.06585 0.94428 0.0
C459 C 0.35519 0.09917 0.88327 0.0
C460 C 0.23435 0.03417 0.86505 0.0
C461 C 0.21208 0.06798 0.85698 0.0
C462 C 0.26369 0.0386 0.88356 0.0
C463 C 0.27034 0.07768 0.89449 0.0
C464 C 0.24768 0.1119 0.88652 0.0
C465 C 0.219 0.10669 0.86766 0.0
C466 C 0.28782 0.00153 0.89127 0.0
C467 C 0.25362 0.15389 0.89798 0.0
H468 H 0.31452 0.07003 0.97384 0.0
H469 H 0.40425 0.09983 0.92254 0.0
H470 H 0.22647 0.08943 0.93724 0.0
H471 H 0.23828 0.03596 0.93603 0.0
H472 H 0.24411 0.06432 0.96382 0.0
H473 H 0.3877 0.10902 0.88229 0.0
H474 H 0.35106 0.07038 0.87255 0.0
H475 H 0.33543 0.12277 0.87498 0.0
H476 H 0.22916 0.0043 0.85662 0.0
H477 H 0.20143 0.13274 0.86153 0.0
H478 H 0.28275 0.99589 0.91032 0.0
H479 H 0.32111 0.00717 0.88934 0.0
H480 H 0.27919 0.97343 0.88075 0.0
H481 H 0.24799 0.15262 0.91731 0.0
H482 H 0.23283 0.1771 0.89007 0.0
H483 H 0.28576 0.16414 0.89604 0.0
C484 C 0.01995 0.35108 0.43682 0.0
C485 C 0.05425 0.35544 0.45223 0.0
C486 C 0.01852 0.32049 0.41888 0.0
C487 C 0.05234 0.29381 0.41618 0.0
C488 C 0.08653 0.2972 0.43211 0.0
C489 C 0.08704 0.32795 0.45 0.0
C490 C 0.98144 0.31771 0.40228 0.0
C491 C 0.12313 0.26922 0.42978 0.0
C492 C 0.03695 0.19574 0.37937 0.0
C493 C 0.05211 0.20696 0.35736 0.0
C494 C 0.03697 0.22364 0.39874 0.0
C495 C 0.05266 0.26362 0.39601 0.0
C496 C 0.06816 0.27509 0.37386 0.0
C497 C 0.0676 0.24662 0.35476 0.0
C498 C 0.01984 0.21049 0.42203 0.0
C499 C 0.08534 0.31743 0.37034 0.0
H500 H 0.99481 0.37265 0.43814 0.0
H501 H 0.11344 0.33094 0.46201 0.0
H502 H 0.99037 0.32539 0.38403 0.0
H503 H 0.96924 0.28594 0.40148 0.0
H504 H 0.95655 0.33883 0.40782 0.0
H505 H 0.14639 0.27457 0.44429 0.0
H506 H 0.11322 0.2367 0.42991 0.0
H507 H 0.13781 0.27409 0.4125 0.0
H508 H 0.02446 0.16526 0.38135 0.0
H509 H 0.07977 0.25522 0.33785 0.0
H510 H 0.99354 0.23032 0.42681 0.0
H511 H 0.04343 0.21424 0.43648 0.0
H512 H 0.00937 0.17807 0.42132 0.0
H513 H 0.06142 0.34084 0.37375 0.0
H514 H 0.09668 0.3213 0.35208 0.0
H515 H 0.11102 0.3236 0.38325 0.0
C516 C 0.74001 0.0507 0.9193 0.0
C517 C 0.69991 0.03588 0.91567 0.0
C518 C 0.76801 0.04993 0.90082 0.0
C519 C 0.75578 0.0335 0.87822 0.0
C520 C 0.71557 0.01798 0.87447 0.0
C521 C 0.68802 0.01955 0.89322 0.0
C522 C 0.81066 0.06687 0.90548 0.0
C523 C 0.70162 -6e-05 0.85065 0.0
C524 C 0.81911 0.06752 0.82671 0.0
C525 C 0.84746 0.03537 0.82469 0.0
C526 C 0.78822 0.06673 0.84357 0.0
C527 C 0.78533 0.03276 0.85858 0.0
C528 C 0.81254 -0.00067 0.85588 0.0
C529 C 0.84343 0.00114 0.83907 0.0
C530 C 0.75975 0.10299 0.84597 0.0
C531 C 0.81013 0.9624 0.87143 0.0
H532 H 0.74965 0.06272 0.93668 0.0
H533 H 0.65692 0.00854 0.89018 0.0
H534 H 0.83376 0.04259 0.9022 0.0
H535 H 0.81672 0.09192 0.89307 0.0
H536 H 0.81514 0.07899 0.92399 0.0
H537 H 0.66963 0.98826 0.85082 0.0
H538 H 0.70354 0.02346 0.83683 0.0
H539 H 0.72214 0.97438 0.84535 0.0
H540 H 0.82153 0.09372 0.81538 0.0
H541 H 0.86545 0.97638 0.83789 0.0
H542 H 0.76498 0.11837 0.86361 0.0
H543 H 0.72734 0.09265 0.84503 0.0
H544 H 0.76439 0.12581 0.83197 0.0
H545 H 0.81854 0.97143 0.89006 0.0
H546 H 0.83096 0.9374 0.86558 0.0
H547 H 0.77832 0.95034 0.87135 0.0
C548 C 0.07963 0.69728 0.40246 0.0
C549 C 0.05508 0.70393 0.42225 0.0
C550 C 0.08092 0.72598 0.38437 0.0
C551 C 0.05757 0.76238 0.38638 0.0
C552 C 0.03255 0.7691 0.4063 0.0
C553 C 0.03137 0.73958 0.42395 0.0
C554 C 0.1074 0.71747 0.36319 0.0
C555 C 0.00768 0.80784 0.40921 0.0
C556 C 0.09161 0.8559 0.35349 0.0
C557 C 0.06279 0.85689 0.33457 0.0
C558 C 0.09048 0.82507 0.37035 0.0
C559 C 0.0602 0.79407 0.36802 0.0
C560 C 0.03184 0.79405 0.34857 0.0
C561 C 0.03329 0.82563 0.33216 0.0
C562 C 0.12113 0.82621 0.39094 0.0
C563 C -0.00058 0.76117 0.34539 0.0
H564 H 0.09759 0.66942 0.40107 0.0
H565 H 0.01261 0.74476 0.43936 0.0
H566 H 0.08863 0.71895 0.34651 0.0
H567 H 0.13158 0.74127 0.36236 0.0
H568 H 0.12235 0.68694 0.36388 0.0
H569 H 0.9894 0.80809 0.42561 0.0
H570 H 0.02838 0.83487 0.40994 0.0
H571 H 0.9865 0.81135 0.39367 0.0
H572 H 0.11499 0.87947 0.35524 0.0
H573 H 0.01055 0.82641 0.31779 0.0
H574 H 0.1388 0.79719 0.3913 0.0
H575 H 0.10478 0.82899 0.40795 0.0
H576 H 0.14302 0.85218 0.39 0.0
H577 H 0.01382 0.73038 0.34557 0.0
H578 H 0.98136 0.7641 0.32852 0.0
H579 H 0.97807 0.76293 0.36042 0.0
loop_
_geom_bond_atom_site_label_1
_geom_bond_atom_site_label_2
_geom_bond_distance
_geom_bond_site_symmetry_2
_ccdc_geom_bond_type
H0 O26 0.856 . S
H1 O29 0.854 . S
H2 C37 0.930 . S
H3 C38 0.930 . S
H4 C40 0.930 . S
H5 C41 0.930 1_565 S
H6 C43 0.931 . S
H7 C44 0.930 . S
H8 C46 0.930 1_565 S
H9 C47 0.929 1_565 S
H10 C49 0.930 . S
H11 C50 0.931 . S
H12 C52 0.930 . S
H13 C53 0.924 1_565 S
H14 C55 0.931 . S
H15 C56 0.930 . S
H16 C58 0.930 1_565 S
H17 C59 0.932 1_565 S
H18 C61 0.930 . S
H19 C62 0.929 . S
H20 C64 0.931 . S
H21 C65 0.916 1_565 S
H22 C67 0.929 . S
H23 C68 0.931 . S
H24 C70 0.930 1_565 S
H25 C71 0.929 1_565 S
O26 H0 0.856 . S
O26 C72 1.300 . S
O27 C72 1.209 . S
O28 C73 1.199 . S
O29 H1 0.854 . S
O29 C73 1.297 . S
C30 C31 1.404 . S
C30 C35 1.397 1_556 S
C30 C36 1.492 . S
C31 C30 1.404 . S
C31 C32 1.396 . S
C31 C42 1.492 . S
C32 C31 1.396 . S
C32 C33 1.397 1_556 S
C32 C48 1.509 . S
C33 C32 1.397 1_554 S
C33 C34 1.412 . S
C33 C54 1.485 . S
C34 C33 1.412 . S
C34 C35 1.388 . S
C34 C60 1.490 . S
C35 C30 1.397 1_554 S
C35 C34 1.388 . S
C35 C66 1.519 . S
C36 C30 1.492 . S
C36 C37 1.363 . S
C36 C41 1.390 . S
C37 H2 0.930 . S
C37 C36 1.363 . S
C37 C38 1.372 . S
C38 H3 0.930 . S
C38 C37 1.372 . S
C38 C39 1.383 . S
C39 C38 1.383 . S
C39 C40 1.395 . S
C40 H4 0.930 . S
C40 C39 1.395 . S
C40 C41 1.362 . S
C41 H5 0.930 1_545 S
C41 C36 1.390 . S
C41 C40 1.362 . S
C42 C31 1.492 . S
C42 C43 1.377 . S
C42 C47 1.397 . S
C43 H6 0.931 . S
C43 C42 1.377 . S
C43 C44 1.376 . S
C44 H7 0.930 . S
C44 C43 1.376 . S
C44 C45 1.376 . S
C45 C44 1.376 . S
C45 C46 1.378 . S
C45 C72 1.486 . S
C46 H8 0.930 1_545 S
C46 C45 1.378 . S
C46 C47 1.376 . S
C47 H9 0.929 1_545 S
C47 C42 1.397 . S
C47 C46 1.376 . S
C48 C32 1.509 . S
C48 C49 1.391 . S
C48 C53 1.391 . S
C49 H10 0.930 . S
C49 C48 1.391 . S
C49 C50 1.375 . S
C50 H11 0.931 . S
C50 C49 1.375 . S
C50 C51 1.375 . S
C51 C50 1.375 . S
C51 C52 1.361 1_545 S
C52 H12 0.930 . S
C52 C51 1.361 1_565 S
C52 C53 1.399 1_565 S
C53 H13 0.924 1_545 S
C53 C48 1.391 . S
C53 C52 1.399 1_545 S
C54 C33 1.485 . S
C54 C55 1.394 . S
C54 C59 1.360 . S
C55 H14 0.931 . S
C55 C54 1.394 . S
C55 C56 1.372 . S
C56 H15 0.930 . S
C56 C55 1.372 . S
C56 C57 1.397 . S
C57 C56 1.397 . S
C57 C58 1.390 . S
C57 C73 1.476 . S
C58 H16 0.930 1_545 S
C58 C57 1.390 . S
C58 C59 1.366 . S
C59 H17 0.932 1_545 S
C59 C54 1.360 . S
C59 C58 1.366 . S
C60 C34 1.490 . S
C60 C61 1.380 . S
C60 C65 1.386 . S
C61 H18 0.930 . S
C61 C60 1.380 . S
C61 C62 1.381 . S
C62 H19 0.929 . S
C62 C61 1.381 . S
C62 C63 1.371 . S
C63 C62 1.371 . S
C63 C64 1.380 . S
C64 H20 0.931 . S
C64 C63 1.380 . S
C64 C65 1.387 . S
C65 H21 0.916 1_545 S
C65 C60 1.386 . S
C65 C64 1.387 . S
C66 C35 1.519 . S
C66 C67 1.377 . S
C66 C71 1.361 . S
C67 H22 0.929 . S
C67 C66 1.377 . S
C67 C68 1.386 . S
C68 H23 0.931 . S
C68 C67 1.386 . S
C68 C69 1.363 . S
C69 C68 1.363 . S
C69 C70 1.385 . S
C70 H24 0.930 1_545 S
C70 C69 1.385 . S
C70 C71 1.396 . S
C71 H25 0.929 1_545 S
C71 C66 1.361 . S
C71 C70 1.396 . S
C72 O26 1.300 . S
C72 O27 1.209 . S
C72 C45 1.486 . S
C73 O28 1.199 . S
C73 O29 1.297 . S
C73 C57 1.476 . S
H74 O100 0.856 . S
H75 O103 0.854 . S
H76 C111 0.930 1_655 S
H77 C112 0.930 1_655 S
H78 C114 0.930 . S
H79 C115 0.930 . S
H80 C117 0.931 . S
H81 C118 0.930 . S
H82 C120 0.930 . S
H83 C121 0.929 . S
H84 C123 0.930 . S
H85 C124 0.931 . S
H86 C126 0.930 . S
H87 C127 0.929 . S
H88 C129 0.931 . S
H89 C130 0.930 . S
H90 C132 0.930 . S
H91 C133 0.932 . S
H92 C135 0.930 1_655 S
H93 C136 0.929 1_655 S
H94 C138 0.931 . S
H95 C139 0.930 . S
H96 C141 0.929 1_655 S
H97 C142 0.931 . S
H98 C144 0.930 . S
H99 C145 0.929 . S
O100 H74 0.856 . S
O100 C146 1.300 . S
O101 C146 1.209 . S
O102 C147 1.199 . S
O103 H75 0.854 . S
O103 C147 1.297 . S
C104 C105 1.404 . S
C104 C109 1.397 . S
C104 C110 1.492 . S
C105 C104 1.404 . S
C105 C106 1.396 . S
C105 C116 1.492 . S
C106 C105 1.396 . S
C106 C107 1.397 . S
C106 C122 1.509 . S
C107 C106 1.397 . S
C107 C108 1.412 . S
C107 C128 1.485 . S
C108 C107 1.412 . S
C108 C109 1.388 . S
C108 C134 1.490 . S
C109 C104 1.397 . S
C109 C108 1.388 . S
C109 C140 1.519 . S
C110 C104 1.492 . S
C110 C111 1.363 . S
C110 C115 1.390 . S
C111 H76 0.930 1_455 S
C111 C110 1.363 . S
C111 C112 1.372 . S
C112 H77 0.930 1_455 S
C112 C111 1.372 . S
C112 C113 1.383 . S
C113 C112 1.383 . S
C113 C114 1.395 . S
C114 H78 0.930 . S
C114 C113 1.395 . S
C114 C115 1.362 . S
C115 H79 0.930 . S
C115 C110 1.390 . S
C115 C114 1.362 . S
C116 C105 1.492 . S
C116 C117 1.377 . S
C116 C121 1.397 . S
C117 H80 0.931 . S
C117 C116 1.377 . S
C117 C118 1.376 . S
C118 H81 0.930 . S
C118 C117 1.376 . S
C118 C119 1.376 . S
C119 C118 1.376 . S
C119 C120 1.378 . S
C119 C146 1.486 . S
C120 H82 0.930 . S
C120 C119 1.378 . S
C120 C121 1.376 . S
C121 H83 0.929 . S
C121 C116 1.397 . S
C121 C120 1.376 . S
C122 C106 1.509 . S
C122 C123 1.391 . S
C122 C127 1.386 . S
C123 H84 0.930 . S
C123 C122 1.391 . S
C123 C124 1.375 . S
C124 H85 0.931 . S
C124 C123 1.375 . S
C124 C125 1.375 . S
C125 C124 1.375 . S
C125 C126 1.361 . S
C126 H86 0.930 . S
C126 C125 1.361 . S
C126 C127 1.399 . S
C127 H87 0.929 . S
C127 C122 1.386 . S
C127 C126 1.399 . S
C128 C107 1.485 . S
C128 C129 1.394 . S
C128 C133 1.360 . S
C129 H88 0.931 . S
C129 C128 1.394 . S
C129 C130 1.372 . S
C130 H89 0.930 . S
C130 C129 1.372 . S
C130 C131 1.397 . S
C131 C130 1.397 . S
C131 C132 1.390 . S
C131 C147 1.476 . S
C132 H90 0.930 . S
C132 C131 1.390 . S
C132 C133 1.366 . S
C133 H91 0.932 . S
C133 C128 1.360 . S
C133 C132 1.366 . S
C134 C108 1.490 . S
C134 C135 1.380 . S
C134 C139 1.386 . S
C135 H92 0.930 1_455 S
C135 C134 1.380 . S
C135 C136 1.381 . S
C136 H93 0.929 1_455 S
C136 C135 1.381 . S
C136 C137 1.371 . S
C137 C136 1.371 . S
C137 C138 1.380 . S
C138 H94 0.931 . S
C138 C137 1.380 . S
C138 C139 1.387 . S
C139 H95 0.930 . S
C139 C134 1.386 . S
C139 C138 1.387 . S
C140 C109 1.519 . S
C140 C141 1.377 . S
C140 C145 1.361 . S
C141 H96 0.929 1_455 S
C141 C140 1.377 . S
C141 C142 1.386 . S
C142 H97 0.931 . S
C142 C141 1.386 . S
C142 C143 1.363 . S
C143 C142 1.363 . S
C143 C144 1.385 . S
C144 H98 0.930 . S
C144 C143 1.385 . S
C144 C145 1.396 . S
C145 H99 0.929 . S
C145 C140 1.361 . S
C145 C144 1.396 . S
C146 O100 1.300 . S
C146 O101 1.209 . S
C146 C119 1.486 . S
C147 O102 1.199 . S
C147 O103 1.297 . S
C147 C131 1.476 . S
Li148 N165 1.990 . S
Li148 O208 1.956 . S
Li148 O209 1.970 1_455 S
Li148 O210 1.961 . S
Li149 N173 1.990 1_545 S
Li149 O208 1.970 . S
Li149 O209 1.956 1_455 S
Li149 O211 1.961 . S
Li150 N195 1.990 . S
Li150 O208 1.961 . S
Li150 O210 1.956 . S
Li150 O211 1.970 . S
Li151 N201 1.990 . S
Li151 O209 1.961 . S
Li151 O210 1.970 1_655 S
Li151 O211 1.956 1_655 S
C152 C154 1.348 . S
C152 C155 1.356 . S
C152 O208 1.325 . S
N153 C156 1.314 . S
N153 C157 1.279 . S
C154 C152 1.348 . S
C154 C156 1.353 . S
C154 H212 0.929 . S
C155 C152 1.356 . S
C155 C157 1.358 . S
C155 H213 0.930 . S
C156 N153 1.314 . S
C156 C154 1.353 . S
C156 H214 0.930 . S
C157 N153 1.279 . S
C157 C155 1.358 . S
C157 H215 0.930 . S
C158 C161 1.348 . S
C158 C162 1.356 . S
C158 O209 1.325 . S
C159 N160 1.279 . S
C159 C162 1.358 . S
C159 H216 0.930 . S
N160 C159 1.279 . S
N160 C163 1.314 . S
C161 C158 1.348 . S
C161 C163 1.353 . S
C161 H217 0.929 . S
C162 C158 1.356 . S
C162 C159 1.358 . S
C162 H218 0.930 . S
C163 N160 1.314 . S
C163 C161 1.353 . S
C163 H219 0.930 . S
C164 N165 1.314 . S
C164 C169 1.353 . S
C164 H170 0.930 1_455 S
N165 Li148 1.990 . S
N165 C164 1.314 . S
N165 C167 1.279 . S
C166 C167 1.358 . S
C166 C168 1.356 . S
C166 H220 0.930 . S
C167 N165 1.279 . S
C167 C166 1.358 . S
C167 H171 0.930 . S
C168 C166 1.356 . S
C168 C169 1.348 . S
C169 C164 1.353 . S
C169 C168 1.348 . S
C169 H221 0.929 1_455 S
H170 C164 0.930 1_655 S
H171 C167 0.930 . S
C172 N173 1.314 . S
C172 C174 1.353 . S
C172 H178 0.930 . S
N173 Li149 1.990 1_565 S
N173 C172 1.314 . S
N173 C176 1.279 . S
C174 C172 1.353 . S
C174 C177 1.348 . S
C174 H222 0.929 . S
C175 C176 1.358 . S
C175 C177 1.356 . S
C175 H223 0.930 1_455 S
C176 N173 1.279 . S
C176 C175 1.358 . S
C176 H179 0.930 1_455 S
C177 C174 1.348 . S
C177 C175 1.356 . S
H178 C172 0.930 . S
H179 C176 0.930 1_655 S
C180 C182 1.348 . S
C180 C183 1.356 . S
C180 O210 1.325 . S
N181 C184 1.314 . S
N181 C185 1.279 . S
C182 C180 1.348 . S
C182 C184 1.353 . S
C182 H224 0.929 1_455 S
C183 C180 1.356 . S
C183 C185 1.358 . S
C183 H225 0.930 . S
C184 N181 1.314 . S
C184 C182 1.353 . S
C184 H226 0.930 1_455 S
C185 N181 1.279 . S
C185 C183 1.358 . S
C185 H227 0.930 . S
C186 C187 1.348 . S
C186 C188 1.356 . S
C186 O211 1.325 1_565 S
C187 C186 1.348 . S
C187 C189 1.353 . S
C187 H228 0.929 . S
C188 C186 1.356 . S
C188 C190 1.358 . S
C188 H229 0.930 1_455 S
C189 C187 1.353 . S
C189 N191 1.314 . S
C189 H230 0.930 . S
C190 C188 1.358 . S
C190 N191 1.279 . S
C190 H231 0.930 1_455 S
N191 C189 1.314 . S
N191 C190 1.279 . S
C192 C194 1.353 . S
C192 N195 1.314 . S
C192 H198 0.930 . S
C193 N195 1.279 . S
C193 C196 1.358 . S
C193 H199 0.930 . S
C194 C192 1.353 . S
C194 C197 1.348 . S
C194 H232 0.929 . S
N195 Li150 1.990 . S
N195 C192 1.314 . S
N195 C193 1.279 . S
C196 C193 1.358 . S
C196 C197 1.356 . S
C196 H233 0.930 . S
C197 C194 1.348 . S
C197 C196 1.356 . S
H198 C192 0.930 . S
H199 C193 0.930 . S
C200 N201 1.314 . S
C200 C202 1.353 . S
C200 H206 0.930 . S
N201 Li151 1.990 . S
N201 C200 1.314 . S
N201 C204 1.279 . S
C202 C200 1.353 . S
C202 C205 1.348 . S
C202 H234 0.929 . S
C203 C204 1.358 . S
C203 C205 1.356 . S
C203 H235 0.930 . S
C204 N201 1.279 . S
C204 C203 1.358 . S
C204 H207 0.930 . S
C205 C202 1.348 . S
C205 C203 1.356 . S
H206 C200 0.930 . S
H207 C204 0.930 . S
O208 Li148 1.956 . S
O208 Li149 1.970 . S
O208 Li150 1.961 . S
O208 C152 1.325 . S
O209 Li148 1.970 1_655 S
O209 Li149 1.956 1_655 S
O209 Li151 1.961 . S
O209 C158 1.325 . S
O210 Li148 1.961 . S
O210 Li150 1.956 . S
O210 Li151 1.970 1_455 S
O210 C180 1.325 . S
O211 Li149 1.961 . S
O211 Li150 1.970 . S
O211 Li151 1.956 1_455 S
O211 C186 1.325 1_545 S
H212 C154 0.929 . S
H213 C155 0.930 . S
H214 C156 0.930 . S
H215 C157 0.930 . S
H216 C159 0.930 . S
H217 C161 0.929 . S
H218 C162 0.930 . S
H219 C163 0.930 . S
H220 C166 0.930 . S
H221 C169 0.929 1_655 S
H222 C174 0.929 . S
H223 C175 0.930 1_655 S
H224 C182 0.929 1_655 S
H225 C183 0.930 . S
H226 C184 0.930 1_655 S
H227 C185 0.930 . S
H228 C187 0.929 . S
H229 C188 0.930 1_655 S
H230 C189 0.930 . S
H231 C190 0.930 1_655 S
H232 C194 0.929 . S
H233 C196 0.930 . S
H234 C202 0.929 . S
H235 C203 0.930 . S
Li236 N253 1.990 1_455 S
Li236 O296 1.956 . S
Li236 O297 1.970 1_545 S
Li236 O298 1.961 . S
Li237 N261 1.990 . S
Li237 O296 1.970 . S
Li237 O297 1.956 1_545 S
Li237 O299 1.961 . S
Li238 N283 1.990 . S
Li238 O296 1.961 . S
Li238 O298 1.956 . S
Li238 O299 1.970 . S
Li239 N289 1.990 . S
Li239 O297 1.961 . S
Li239 O298 1.970 1_565 S
Li239 O299 1.956 1_565 S
C240 C242 1.348 . S
C240 C243 1.356 . S
C240 O296 1.325 . S
N241 C244 1.314 . S
N241 C245 1.279 . S
C242 C240 1.348 . S
C242 C244 1.353 . S
C242 H300 0.929 . S
C243 C240 1.356 . S
C243 C245 1.358 . S
C243 H301 0.930 . S
C244 N241 1.314 . S
C244 C242 1.353 . S
C244 H302 0.930 . S
C245 N241 1.279 . S
C245 C243 1.358 . S
C245 H303 0.930 . S
C246 C249 1.348 . S
C246 C250 1.356 . S
C246 O297 1.325 . S
C247 N248 1.279 . S
C247 C250 1.358 . S
C247 H304 0.930 . S
N248 C247 1.279 . S
N248 C251 1.314 . S
C249 C246 1.348 . S
C249 C251 1.353 . S
C249 H305 0.929 . S
C250 C246 1.356 . S
C250 C247 1.358 . S
C250 H306 0.930 . S
C251 N248 1.314 . S
C251 C249 1.353 . S
C251 H307 0.930 . S
C252 N253 1.314 . S
C252 C257 1.353 . S
C252 H258 0.930 1_545 S
N253 Li236 1.990 1_655 S
N253 C252 1.314 . S
N253 C255 1.279 . S
C254 C255 1.358 . S
C254 C256 1.356 . S
C254 H308 0.930 . S
C255 N253 1.279 . S
C255 C254 1.358 . S
C255 H259 0.930 . S
C256 C254 1.356 . S
C256 C257 1.348 . S
C257 C252 1.353 . S
C257 C256 1.348 . S
C257 H309 0.929 1_545 S
H258 C252 0.930 1_565 S
H259 C255 0.930 . S
C260 N261 1.314 . S
C260 C262 1.353 . S
C260 H266 0.930 . S
N261 Li237 1.990 . S
N261 C260 1.314 . S
N261 C264 1.279 . S
C262 C260 1.353 . S
C262 C265 1.348 . S
C262 H310 0.929 . S
C263 C264 1.358 . S
C263 C265 1.356 . S
C263 H311 0.930 1_545 S
C264 N261 1.279 . S
C264 C263 1.358 . S
C264 H267 0.930 1_545 S
C265 C262 1.348 . S
C265 C263 1.356 . S
H266 C260 0.930 . S
H267 C264 0.930 1_565 S
C268 C270 1.348 . S
C268 C271 1.356 . S
C268 O298 1.325 1_655 S
N269 C272 1.314 . S
N269 C273 1.279 . S
C270 C268 1.348 . S
C270 C272 1.353 . S
C270 H312 0.929 1_545 S
C271 C268 1.356 . S
C271 C273 1.358 . S
C271 H313 0.930 . S
C272 N269 1.314 . S
C272 C270 1.353 . S
C272 H314 0.930 1_545 S
C273 N269 1.279 . S
C273 C271 1.358 . S
C273 H315 0.930 . S
C274 C275 1.348 . S
C274 C276 1.356 . S
C274 O299 1.325 . S
C275 C274 1.348 . S
C275 C277 1.353 . S
C275 H316 0.929 . S
C276 C274 1.356 . S
C276 C278 1.358 . S
C276 H317 0.930 1_545 S
C277 C275 1.353 . S
C277 N279 1.314 . S
C277 H318 0.930 . S
C278 C276 1.358 . S
C278 N279 1.279 . S
C278 H319 0.930 1_545 S
N279 C277 1.314 . S
N279 C278 1.279 . S
C280 C282 1.353 . S
C280 N283 1.314 . S
C280 H286 0.930 . S
C281 N283 1.279 . S
C281 C284 1.358 . S
C281 H287 0.930 . S
C282 C280 1.353 . S
C282 C285 1.348 . S
C282 H320 0.929 . S
N283 Li238 1.990 . S
N283 C280 1.314 . S
N283 C281 1.279 . S
C284 C281 1.358 . S
C284 C285 1.356 . S
C284 H321 0.930 . S
C285 C282 1.348 . S
C285 C284 1.356 . S
H286 C280 0.930 . S
H287 C281 0.930 . S
C288 N289 1.314 . S
C288 C290 1.353 . S
C288 H294 0.930 . S
N289 Li239 1.990 . S
N289 C288 1.314 . S
N289 C292 1.279 . S
C290 C288 1.353 . S
C290 C293 1.348 . S
C290 H322 0.929 . S
C291 C292 1.358 . S
C291 C293 1.356 . S
C291 H323 0.930 . S
C292 N289 1.279 . S
C292 C291 1.358 . S
C292 H295 0.930 . S
C293 C290 1.348 . S
C293 C291 1.356 . S
H294 C288 0.930 . S
H295 C292 0.930 . S
O296 Li236 1.956 . S
O296 Li237 1.970 . S
O296 Li238 1.961 . S
O296 C240 1.325 . S
O297 Li236 1.970 1_565 S
O297 Li237 1.956 1_565 S
O297 Li239 1.961 . S
O297 C246 1.325 . S
O298 Li236 1.961 . S
O298 Li238 1.956 . S
O298 Li239 1.970 1_545 S
O298 C268 1.325 1_455 S
O299 Li237 1.961 . S
O299 Li238 1.970 . S
O299 Li239 1.956 1_545 S
O299 C274 1.325 . S
H300 C242 0.929 . S
H301 C243 0.930 . S
H302 C244 0.930 . S
H303 C245 0.930 . S
H304 C247 0.930 . S
H305 C249 0.929 . S
H306 C250 0.930 . S
H307 C251 0.930 . S
H308 C254 0.930 . S
H309 C257 0.929 1_565 S
H310 C262 0.929 . S
H311 C263 0.930 1_565 S
H312 C270 0.929 1_565 S
H313 C271 0.930 . S
H314 C272 0.930 1_565 S
H315 C273 0.930 . S
H316 C275 0.929 . S
H317 C276 0.930 1_565 S
H318 C277 0.930 . S
H319 C278 0.930 1_565 S
H320 C282 0.929 . S
H321 C284 0.930 . S
H322 C290 0.929 . S
H323 C291 0.930 . S
C324 C325 1.391 . S
C324 C326 1.394 . S
C324 H340 0.931 1_545 S
C325 C324 1.391 . S
C325 C329 1.376 . S
C326 C324 1.394 . S
C326 C327 1.369 . S
C326 C330 1.531 1_545 S
C327 C326 1.369 . S
C327 C328 1.410 . S
C327 C335 1.503 . S
C328 C327 1.410 . S
C328 C329 1.392 . S
C328 C331 1.511 . S
C329 C325 1.376 . S
C329 C328 1.392 . S
C329 H341 0.929 . S
C330 C326 1.531 1_565 S
C330 H342 0.960 . S
C330 H343 0.962 . S
C330 H344 0.960 . S
C331 C328 1.511 . S
C331 H345 0.961 . S
C331 H346 0.961 . S
C331 H347 0.961 . S
C332 C333 1.370 . S
C332 C334 1.363 . S
C332 H348 0.931 . S
C333 C332 1.370 . S
C333 C337 1.408 . S
C334 C332 1.363 . S
C334 C335 1.370 . S
C334 C338 1.524 . S
C335 C327 1.503 . S
C335 C334 1.370 . S
C335 C336 1.403 . S
C336 C335 1.403 . S
C336 C337 1.404 . S
C336 C339 1.539 1_545 S
C337 C333 1.408 . S
C337 C336 1.404 . S
C337 H349 0.930 . S
C338 C334 1.524 . S
C338 H350 0.956 . S
C338 H351 0.961 . S
C338 H352 0.961 . S
C339 C336 1.539 1_565 S
C339 H353 0.958 . S
C339 H354 0.961 . S
C339 H355 0.960 . S
H340 C324 0.931 1_565 S
H341 C329 0.929 . S
H342 C330 0.960 . S
H343 C330 0.962 . S
H344 C330 0.960 . S
H345 C331 0.961 . S
H346 C331 0.961 . S
H347 C331 0.961 . S
H348 C332 0.931 . S
H349 C337 0.930 . S
H350 C338 0.956 . S
H351 C338 0.961 . S
H352 C338 0.961 . S
H353 C339 0.958 . S
H354 C339 0.961 . S
H355 C339 0.960 . S
C356 C357 1.391 . S
C356 C358 1.394 . S
C356 H372 0.931 . S
C357 C356 1.391 . S
C357 C361 1.376 . S
C358 C356 1.394 . S
C358 C359 1.369 . S
C358 C362 1.531 . S
C359 C358 1.369 . S
C359 C360 1.410 . S
C359 C367 1.503 . S
C360 C359 1.410 . S
C360 C361 1.392 . S
C360 C363 1.511 . S
C361 C357 1.376 . S
C361 C360 1.392 . S
C361 H373 0.929 . S
C362 C358 1.531 . S
C362 H374 0.960 . S
C362 H375 0.962 1_455 S
C362 H376 0.960 1_455 S
C363 C360 1.511 . S
C363 H377 0.961 . S
C363 H378 0.961 . S
C363 H379 0.961 . S
C364 C365 1.370 . S
C364 C366 1.363 . S
C364 H380 0.931 . S
C365 C364 1.370 . S
C365 C369 1.408 . S
C366 C364 1.363 . S
C366 C367 1.370 . S
C366 C370 1.524 . S
C367 C359 1.503 . S
C367 C366 1.370 . S
C367 C368 1.403 . S
C368 C367 1.403 . S
C368 C369 1.404 . S
C368 C371 1.539 . S
C369 C365 1.408 . S
C369 C368 1.404 . S
C369 H381 0.930 . S
C370 C366 1.524 . S
C370 H382 0.956 1_455 S
C370 H383 0.961 . S
C370 H384 0.961 . S
C371 C368 1.539 . S
C371 H385 0.958 . S
C371 H386 0.961 . S
C371 H387 0.960 . S
H372 C356 0.931 . S
H373 C361 0.929 . S
H374 C362 0.960 . S
H375 C362 0.962 1_655 S
H376 C362 0.960 1_655 S
H377 C363 0.961 . S
H378 C363 0.961 . S
H379 C363 0.961 . S
H380 C364 0.931 . S
H381 C369 0.930 . S
H382 C370 0.956 1_655 S
H383 C370 0.961 . S
H384 C370 0.961 . S
H385 C371 0.958 . S
H386 C371 0.961 . S
H387 C371 0.960 . S
C388 C389 1.391 . S
C388 C390 1.394 . S
C388 H404 0.931 . S
C389 C388 1.391 . S
C389 C393 1.376 . S
C390 C388 1.394 . S
C390 C391 1.369 . S
C390 C394 1.531 . S
C391 C390 1.369 . S
C391 C392 1.410 . S
C391 C399 1.503 . S
C392 C391 1.410 . S
C392 C393 1.392 . S
C392 C395 1.511 . S
C393 C389 1.376 . S
C393 C392 1.392 . S
C393 H405 0.929 . S
C394 C390 1.531 . S
C394 H406 0.960 . S
C394 H407 0.962 . S
C394 H408 0.960 . S
C395 C392 1.511 . S
C395 H409 0.961 . S
C395 H410 0.961 . S
C395 H411 0.961 1_545 S
C396 C397 1.370 . S
C396 C398 1.363 . S
C396 H412 0.931 . S
C397 C396 1.370 . S
C397 C401 1.408 . S
C398 C396 1.363 . S
C398 C399 1.370 . S
C398 C402 1.524 . S
C399 C391 1.503 . S
C399 C398 1.370 . S
C399 C400 1.403 . S
C400 C399 1.403 . S
C400 C401 1.404 . S
C400 C403 1.539 1_545 S
C401 C397 1.408 . S
C401 C400 1.404 . S
C401 H413 0.930 1_545 S
C402 C398 1.524 . S
C402 H414 0.956 . S
C402 H415 0.961 . S
C402 H416 0.961 . S
C403 C400 1.539 1_565 S
C403 H417 0.958 . S
C403 H418 0.961 . S
C403 H419 0.960 . S
H404 C388 0.931 . S
H405 C393 0.929 . S
H406 C394 0.960 . S
H407 C394 0.962 . S
H408 C394 0.960 . S
H409 C395 0.961 . S
H410 C395 0.961 . S
H411 C395 0.961 1_565 S
H412 C396 0.931 . S
H413 C401 0.930 1_565 S
H414 C402 0.956 . S
H415 C402 0.961 . S
H416 C402 0.961 . S
H417 C403 0.958 . S
H418 C403 0.961 . S
H419 C403 0.960 . S
C420 C421 1.391 . S
C420 C422 1.394 . S
C420 H436 0.931 1_455 S
C421 C420 1.391 . S
C421 C425 1.376 . S
C422 C420 1.394 . S
C422 C423 1.369 . S
C422 C426 1.531 1_455 S
C423 C422 1.369 . S
C423 C424 1.410 . S
C423 C431 1.503 . S
C424 C423 1.410 . S
C424 C425 1.392 . S
C424 C427 1.511 . S
C425 C421 1.376 . S
C425 C424 1.392 . S
C425 H437 0.929 . S
C426 C422 1.531 1_655 S
C426 H438 0.960 . S
C426 H439 0.962 . S
C426 H440 0.960 . S
C427 C424 1.511 . S
C427 H441 0.961 . S
C427 H442 0.961 . S
C427 H443 0.961 . S
C428 C429 1.370 . S
C428 C430 1.363 . S
C428 H444 0.931 . S
C429 C428 1.370 . S
C429 C433 1.408 . S
C430 C428 1.363 . S
C430 C431 1.370 . S
C430 C434 1.524 . S
C431 C423 1.503 . S
C431 C430 1.370 . S
C431 C432 1.403 . S
C432 C431 1.403 . S
C432 C433 1.404 . S
C432 C435 1.539 1_455 S
C433 C429 1.408 . S
C433 C432 1.404 . S
C433 H445 0.930 . S
C434 C430 1.524 . S
C434 H446 0.956 . S
C434 H447 0.961 . S
C434 H448 0.961 . S
C435 C432 1.539 1_655 S
C435 H449 0.958 . S
C435 H450 0.964 . S
C435 H451 0.960 1_655 S
H436 C420 0.931 1_655 S
H437 C425 0.929 . S
H438 C426 0.960 . S
H439 C426 0.962 . S
H440 C426 0.960 . S
H441 C427 0.961 . S
H442 C427 0.961 . S
H443 C427 0.961 . S
H444 C428 0.931 . S
H445 C433 0.930 . S
H446 C434 0.956 . S
H447 C434 0.961 . S
H448 C434 0.961 . S
H449 C435 0.958 . S
H450 C435 0.964 . S
H451 C435 0.960 1_455 S
C452 C453 1.391 . S
C452 C454 1.394 . S
C452 H468 0.931 . S
C453 C452 1.391 . S
C453 C457 1.376 . S
C454 C452 1.394 . S
C454 C455 1.369 . S
C454 C458 1.531 . S
C455 C454 1.369 . S
C455 C456 1.410 . S
C455 C463 1.503 . S
C456 C455 1.410 . S
C456 C457 1.392 . S
C456 C459 1.511 . S
C457 C453 1.376 . S
C457 C456 1.392 . S
C457 H469 0.929 . S
C458 C454 1.531 . S
C458 H470 0.960 . S
C458 H471 0.962 1_545 S
C458 H472 0.960 . S
C459 C456 1.511 . S
C459 H473 0.961 . S
C459 H474 0.961 . S
C459 H475 0.961 . S
C460 C461 1.370 . S
C460 C462 1.363 . S
C460 H476 0.931 1_545 S
C461 C460 1.370 . S
C461 C465 1.408 . S
C462 C460 1.363 . S
C462 C463 1.370 . S
C462 C466 1.524 1_545 S
C463 C455 1.503 . S
C463 C462 1.370 . S
C463 C464 1.403 . S
C464 C463 1.403 . S
C464 C465 1.404 . S
C464 C467 1.539 . S
C465 C461 1.408 . S
C465 C464 1.404 . S
C465 H477 0.930 . S
C466 C462 1.524 1_565 S
C466 H478 0.956 . S
C466 H479 0.966 . S
C466 H480 0.961 . S
C467 C464 1.539 . S
C467 H481 0.958 . S
C467 H482 0.961 . S
C467 H483 0.960 . S
H468 C452 0.931 . S
H469 C457 0.929 . S
H470 C458 0.960 . S
H471 C458 0.962 1_565 S
H472 C458 0.960 . S
H473 C459 0.961 . S
H474 C459 0.961 . S
H475 C459 0.961 . S
H476 C460 0.931 1_565 S
H477 C465 0.930 . S
H478 C466 0.956 . S
H479 C466 0.966 . S
H480 C466 0.961 . S
H481 C467 0.958 . S
H482 C467 0.961 . S
H483 C467 0.960 . S
C484 C485 1.391 . S
C484 C486 1.394 . S
C484 H500 0.931 1_455 S
C485 C484 1.391 . S
C485 C489 1.376 . S
C486 C484 1.394 . S
C486 C487 1.369 . S
C486 C490 1.531 1_455 S
C487 C486 1.369 . S
C487 C488 1.410 . S
C487 C495 1.503 . S
C488 C487 1.410 . S
C488 C489 1.392 . S
C488 C491 1.511 . S
C489 C485 1.376 . S
C489 C488 1.392 . S
C489 H501 0.929 . S
C490 C486 1.531 1_655 S
C490 H502 0.960 . S
C490 H503 0.962 . S
C490 H504 0.960 . S
C491 C488 1.511 . S
C491 H505 0.961 . S
C491 H506 0.961 . S
C491 H507 0.961 . S
C492 C493 1.370 . S
C492 C494 1.363 . S
C492 H508 0.931 . S
C493 C492 1.370 . S
C493 C497 1.408 . S
C494 C492 1.363 . S
C494 C495 1.370 . S
C494 C498 1.520 1_455 S
C495 C487 1.503 . S
C495 C494 1.370 . S
C495 C496 1.403 . S
C496 C495 1.403 . S
C496 C497 1.404 . S
C496 C499 1.539 . S
C497 C493 1.408 . S
C497 C496 1.404 . S
C497 H509 0.930 . S
C498 C494 1.520 1_655 S
C498 H510 0.964 . S
C498 H511 0.954 1_655 S
C498 H512 0.963 . S
C499 C496 1.539 . S
C499 H513 0.958 . S
C499 H514 0.961 . S
C499 H515 0.960 . S
H500 C484 0.931 1_655 S
H501 C489 0.929 . S
H502 C490 0.960 . S
H503 C490 0.962 . S
H504 C490 0.960 . S
H505 C491 0.961 . S
H506 C491 0.961 . S
H507 C491 0.961 . S
H508 C492 0.931 . S
H509 C497 0.930 . S
H510 C498 0.964 . S
H511 C498 0.954 1_455 S
H512 C498 0.963 . S
H513 C499 0.958 . S
H514 C499 0.961 . S
H515 C499 0.960 . S
C516 C517 1.391 . S
C516 C518 1.394 . S
C516 H532 0.931 . S
C517 C516 1.391 . S
C517 C521 1.376 . S
C518 C516 1.394 . S
C518 C519 1.369 . S
C518 C522 1.531 . S
C519 C518 1.369 . S
C519 C520 1.410 . S
C519 C527 1.503 . S
C520 C519 1.410 . S
C520 C521 1.392 . S
C520 C523 1.511 1_545 S
C521 C517 1.376 . S
C521 C520 1.392 . S
C521 H533 0.929 1_545 S
C522 C518 1.531 . S
C522 H534 0.960 . S
C522 H535 0.962 . S
C522 H536 0.960 . S
C523 C520 1.511 1_565 S
C523 H537 0.961 . S
C523 H538 0.961 . S
C523 H539 0.961 . S
C524 C525 1.370 . S
C524 C526 1.363 . S
C524 H540 0.931 . S
C525 C524 1.370 . S
C525 C529 1.408 1_545 S
C526 C524 1.363 . S
C526 C527 1.370 . S
C526 C530 1.524 . S
C527 C519 1.503 . S
C527 C526 1.370 . S
C527 C528 1.403 1_545 S
C528 C527 1.403 1_565 S
C528 C529 1.404 . S
C528 C531 1.539 . S
C529 C525 1.408 1_565 S
C529 C528 1.404 . S
C529 H541 0.930 . S
C530 C526 1.524 . S
C530 H542 0.956 . S
C530 H543 0.961 . S
C530 H544 0.961 . S
C531 C528 1.539 . S
C531 H545 0.958 . S
C531 H546 0.961 . S
C531 H547 0.960 . S
H532 C516 0.931 . S
H533 C521 0.929 1_565 S
H534 C522 0.960 . S
H535 C522 0.962 . S
H536 C522 0.960 . S
H537 C523 0.961 . S
H538 C523 0.961 . S
H539 C523 0.961 . S
H540 C524 0.931 . S
H541 C529 0.930 . S
H542 C530 0.956 . S
H543 C530 0.961 . S
H544 C530 0.961 . S
H545 C531 0.958 . S
H546 C531 0.961 . S
H547 C531 0.960 . S
C548 C549 1.391 . S
C548 C550 1.394 . S
C548 H564 0.931 . S
C549 C548 1.391 . S
C549 C553 1.376 . S
C550 C548 1.394 . S
C550 C551 1.369 . S
C550 C554 1.531 . S
C551 C550 1.369 . S
C551 C552 1.410 . S
C551 C559 1.503 . S
C552 C551 1.410 . S
C552 C553 1.392 . S
C552 C555 1.511 1_455 S
C553 C549 1.376 . S
C553 C552 1.392 . S
C553 H565 0.929 . S
C554 C550 1.531 . S
C554 H566 0.960 . S
C554 H567 0.962 . S
C554 H568 0.960 . S
C555 C552 1.511 1_655 S
C555 H569 0.961 . S
C555 H570 0.965 . S
C555 H571 0.961 . S
C556 C557 1.370 . S
C556 C558 1.363 . S
C556 H572 0.931 . S
C557 C556 1.370 . S
C557 C561 1.408 . S
C558 C556 1.363 . S
C558 C559 1.370 . S
C558 C562 1.524 . S
C559 C551 1.503 . S
C559 C558 1.370 . S
C559 C560 1.403 . S
C560 C559 1.403 . S
C560 C561 1.404 . S
C560 C563 1.539 1_455 S
C561 C557 1.408 . S
C561 C560 1.404 . S
C561 H573 0.930 1_455 S
C562 C558 1.524 . S
C562 H574 0.956 . S
C562 H575 0.961 . S
C562 H576 0.961 . S
C563 C560 1.539 1_655 S
C563 H577 0.958 . S
C563 H578 0.961 . S
C563 H579 0.960 . S
H564 C548 0.931 . S
H565 C553 0.929 . S
H566 C554 0.960 . S
H567 C554 0.962 . S
H568 C554 0.960 . S
H569 C555 0.961 . S
H570 C555 0.965 . S
H571 C555 0.961 . S
H572 C556 0.931 . S
H573 C561 0.930 1_655 S
H574 C562 0.956 . S
H575 C562 0.961 . S
H576 C562 0.961 . S
H577 C563 0.958 . S
H578 C563 0.961 . S
H579 C563 0.960 . S
C333 C197 2.237 . S
C325 C69 2.232 . S
C365 C285 2.245 . S
C357 C143 2.240 . S
C397 C205 1.496 . S
C389 C63 1.394 . S
C429 C293 1.478 . S
C421 C137 1.419 . S
C461 C265 1.422 . S
C453 C39 1.381 . S
C493 C168 1.410 . S
C485 C113 1.291 . S
C525 C256 0.681 . S
C517 C51 0.698 . S
C549 C125 0.707 . S
C557 C177 0.727 . S
