# Generated by pormake.
# Topology anh, (6,3)-cn, num edge types: 1
# Building blocks:
#     Node 0, Type 0, BuildingBlock: VOLQOD_clean_sbu_1, # of connection points: 6
#     Node 1, Type 0, BuildingBlock: VOLQOD_clean_sbu_1, # of connection points: 6
#     Node 2, Type 0, BuildingBlock: VOLQOD_clean_sbu_1, # of connection points: 6
#     Node 3, Type 1, BuildingBlock: PAMTOO_clean_linker_0, # of connection points: 3
#     Node 4, Type 1, BuildingBlock: PAMTOO_clean_linker_0, # of connection points: 3
#     Node 5, Type 1, BuildingBlock: PAMTOO_clean_linker_0, # of connection points: 3
#     Node 6, Type 1, BuildingBlock: PAMTOO_clean_linker_0, # of connection points: 3
#     Node 7, Type 1, BuildingBlock: PAMTOO_clean_linker_0, # of connection points: 3
#     Node 8, Type 1, BuildingBlock: PAMTOO_clean_linker_0, # of connection points: 3
#     Edge 9, Type (0, 1), BuildingBlock: UVAHIK_clean_linker_0, # of connection points: 2
#     Edge 10, Type (0, 1), BuildingBlock: UVAHIK_clean_linker_0, # of connection points: 2
#     Edge 11, Type (0, 1), BuildingBlock: UVAHIK_clean_linker_0, # of connection points: 2
#     Edge 12, Type (0, 1), BuildingBlock: UVAHIK_clean_linker_0, # of connection points: 2
#     Edge 13, Type (0, 1), BuildingBlock: UVAHIK_clean_linker_0, # of connection points: 2
#     Edge 14, Type (0, 1), BuildingBlock: UVAHIK_clean_linker_0, # of connection points: 2
#     Edge 15, Type (0, 1), BuildingBlock: UVAHIK_clean_linker_0, # of connection points: 2
#     Edge 16, Type (0, 1), BuildingBlock: UVAHIK_clean_linker_0, # of connection points: 2
#     Edge 17, Type (0, 1), BuildingBlock: UVAHIK_clean_linker_0, # of connection points: 2
#     Edge 18, Type (0, 1), BuildingBlock: UVAHIK_clean_linker_0, # of connection points: 2
#     Edge 19, Type (0, 1), BuildingBlock: UVAHIK_clean_linker_0, # of connection points: 2
#     Edge 20, Type (0, 1), BuildingBlock: UVAHIK_clean_linker_0, # of connection points: 2
#     Edge 21, Type (0, 1), BuildingBlock: UVAHIK_clean_linker_0, # of connection points: 2
#     Edge 22, Type (0, 1), BuildingBlock: UVAHIK_clean_linker_0, # of connection points: 2
#     Edge 23, Type (0, 1), BuildingBlock: UVAHIK_clean_linker_0, # of connection points: 2
#     Edge 24, Type (0, 1), BuildingBlock: UVAHIK_clean_linker_0, # of connection points: 2
#     Edge 25, Type (0, 1), BuildingBlock: UVAHIK_clean_linker_0, # of connection points: 2
#     Edge 26, Type (0, 1), BuildingBlock: UVAHIK_clean_linker_0, # of connection points: 2
# Relax obj value: 0.158
# Max RMSD: 0.218
# Mean RMSD: 0.140
data_MOF--net-anh--node1-VOLQOD_clean_sbu_1--node2-PAMTOO_clean_linker_0--edge1-UVAHIK_clean_linker_0
_symmetry_space_group_name_H-M    P1
_symmetry_Int_Tables_number       1
_symmetry_cell_setting            triclinic
loop_
_symmetry_equiv_pos_as_xyz
'x, y, z'
_cell_length_a     37.631104
_cell_length_b     37.656187
_cell_length_c     72.756888
_cell_angle_alpha  84.968052
_cell_angle_beta   92.510107
_cell_angle_gamma 120.28323
loop_
_atom_site_label
_atom_site_type_symbol
_atom_site_fract_x
_atom_site_fract_y
_atom_site_fract_z
_atom_type_partial_charge
O0 O 0.05529 0.54165 0.2048 0.0
Zn1 Zn 0.05668 0.55353 0.17715 0.0
O2 O 0.06711 0.51577 0.16449 0.0
Zn3 Zn 0.02322 0.4868 0.14706 0.0
Zn4 Zn 0.06878 0.47531 0.18261 0.0
Zn5 Zn 0.11922 0.54644 0.15106 0.0
O6 O 0.04441 0.49526 0.12137 0.0
O7 O 0.11116 0.5399 0.12364 0.0
O8 O 0.00339 0.55071 0.16869 0.0
O9 O 0.98357 0.50733 0.14661 0.0
O10 O 0.99075 0.42593 0.15408 0.0
O11 O 0.01949 0.41884 0.18039 0.0
O12 O 0.11964 0.47173 0.17945 0.0
O13 O 0.10291 0.61191 0.17226 0.0
O14 O 0.15676 0.52461 0.15928 0.0
O15 O 0.14746 0.60695 0.15514 0.0
C16 C 0.06203 0.51655 0.21513 0.0
C17 C 0.07974 0.51765 0.11401 0.0
C18 C 0.99201 0.40367 0.16801 0.0
C19 C 0.97843 0.53144 0.15594 0.0
C20 C 0.1524 0.49416 0.17008 0.0
C21 C 0.13702 0.62845 0.16366 0.0
O22 O 0.06877 0.49047 0.20834 0.0
O23 O 0.58867 0.0422 0.45477 0.0
Zn24 Zn 0.57658 0.04042 0.48158 0.0
O25 O 0.61731 0.03479 0.49738 0.0
Zn26 Zn 0.64601 0.08206 0.51203 0.0
Zn27 Zn 0.65722 0.03183 0.48208 0.0
Zn28 Zn 0.58967 0.98537 0.51423 0.0
O29 O 0.6408 0.06577 0.53912 0.0
O30 O 0.59781 -0.00173 0.54093 0.0
O31 O 0.57395 0.09118 0.4863 0.0
O32 O 0.62138 0.11811 0.50807 0.0
O33 O 0.70588 0.11555 0.50565 0.0
O34 O 0.71442 0.08028 0.48509 0.0
O35 O 0.659 0.97967 0.48881 0.0
O36 O 0.52 0.99133 0.48629 0.0
O37 O 0.6118 0.94799 0.51087 0.0
O38 O 0.52893 0.95374 0.50927 0.0
C39 C 0.61478 0.03744 0.44636 0.0
C40 C 0.61978 0.03176 0.54864 0.0
C41 C 0.72888 0.11106 0.49489 0.0
C42 C 0.59351 0.11855 0.49769 0.0
C43 C 0.63889 0.94925 0.50052 0.0
C44 C 0.50569 0.95963 0.4977 0.0
O45 O 0.64214 0.03236 0.45514 0.0
O46 O 0.60822 0.54419 0.78753 0.0
Zn47 Zn 0.58861 0.52566 0.81364 0.0
O48 O 0.62904 0.56283 0.83059 0.0
Zn49 Zn 0.60376 0.58571 0.84474 0.0
Zn50 Zn 0.67632 0.6073 0.81662 0.0
Zn51 Zn 0.64676 0.53212 0.8477 0.0
O52 O 0.59685 0.56502 0.87157 0.0
O53 O 0.62637 0.52667 0.87341 0.0
O54 O 0.53405 0.52271 0.81548 0.0
O55 O 0.54748 0.57017 0.83499 0.0
O56 O 0.63735 0.6471 0.84306 0.0
O57 O 0.68378 0.66286 0.82131 0.0
O58 O 0.72876 0.60846 0.82484 0.0
O59 O 0.58024 0.4688 0.81816 0.0
O60 O 0.70829 0.56097 0.84859 0.0
O61 O 0.6251 0.47448 0.8402 0.0
C62 C 0.64063 0.57357 0.77977 0.0
C63 C 0.60719 0.54143 0.88089 0.0
C64 C 0.66713 0.67365 0.83286 0.0
C65 C 0.52317 0.54378 0.82401 0.0
C66 C 0.73655 0.5895 0.83832 0.0
C67 C 0.59768 0.45325 0.82863 0.0
O68 O 0.66972 0.60034 0.78917 0.0
H69 H 0.64603 0.05911 0.24634 0.0
H70 H 0.5137 0.98351 0.24687 0.0
H71 H 0.57797 0.03528 0.19548 0.0
H72 H 0.50039 0.03265 0.19475 0.0
C73 C 0.48378 0.00802 0.20591 0.0
O74 O 0.50594 0.98871 0.21105 0.0
H75 H 0.48017 0.02248 0.21787 0.0
C76 C 0.61692 0.04374 0.2391 0.0
C77 C 0.61642 0.04948 0.2198 0.0
C78 C 0.58005 0.0204 0.24912 0.0
C79 C 0.54252 0.0021 0.23949 0.0
C80 C 0.54196 0.00737 0.22021 0.0
C81 C 0.57878 0.03112 0.21039 0.0
H82 H 0.68046 0.6263 0.57806 0.0
H83 H 0.63336 0.49536 0.58406 0.0
H84 H 0.64843 0.55616 0.53016 0.0
H85 H 0.57017 0.48237 0.53561 0.0
C86 C 0.57875 0.46409 0.54579 0.0
O87 O 0.62063 0.48547 0.54888 0.0
H88 H 0.56185 0.45878 0.55885 0.0
C89 C 0.67068 0.59761 0.57189 0.0
C90 C 0.66678 0.5963 0.55258 0.0
C91 C 0.65908 0.56153 0.58345 0.0
C92 C 0.64318 0.52375 0.57548 0.0
C93 C 0.63896 0.52215 0.55635 0.0
C94 C 0.65175 0.55828 0.54495 0.0
H95 H 0.06806 0.56227 0.91823 0.0
H96 H 0.15266 0.51914 0.91166 0.0
H97 H 0.11928 0.57336 0.86476 0.0
H98 H 0.12288 0.50544 0.85533 0.0
C99 C 0.14471 0.50389 0.86572 0.0
O100 O 0.16117 0.53785 0.87599 0.0
H101 H 0.12786 0.47529 0.87502 0.0
C102 C 0.08796 0.55802 0.90945 0.0
C103 C 0.0908 0.57038 0.89052 0.0
C104 C 0.11046 0.54001 0.91727 0.0
C105 C 0.1354 0.53342 0.9059 0.0
C106 C 0.1378 0.54488 0.88697 0.0
C107 C 0.11628 0.56397 0.87938 0.0
H108 H 0.06113 0.46047 0.41468 0.0
H109 H 0.13524 0.59255 0.41497 0.0
H110 H 0.1 0.51771 0.46611 0.0
H111 H 0.09776 0.59341 0.46764 0.0
C112 C 0.1208 0.61315 0.45676 0.0
O113 O 0.13962 0.59286 0.45087 0.0
H114 H 0.10448 0.61996 0.44507 0.0
C115 C 0.07839 0.48786 0.42218 0.0
C116 C 0.07848 0.48406 0.44156 0.0
C117 C 0.09872 0.52675 0.41237 0.0
C118 C 0.11911 0.56222 0.42221 0.0
C119 C 0.11929 0.55872 0.44152 0.0
C120 C 0.09927 0.51984 0.45116 0.0
H121 H 0.64204 0.99558 0.74992 0.0
H122 H 0.60301 0.08575 0.74713 0.0
H123 H 0.62682 0.04043 0.79959 0.0
H124 H 0.55629 0.04857 0.80113 0.0
C125 C 0.56192 0.0714 0.78921 0.0
O126 O 0.60156 0.0879 0.78285 0.0
H127 H 0.53936 0.0552 0.77818 0.0
C128 C 0.6348 0.0158 0.7566 0.0
C129 C 0.63637 0.01549 0.77589 0.0
C130 C 0.62333 0.04139 0.74594 0.0
C131 C 0.61228 0.06594 0.75497 0.0
C132 C 0.61345 0.06533 0.77425 0.0
C133 C 0.62633 0.04088 0.78467 0.0
H134 H 0.60856 0.48092 0.07577 0.0
H135 H 0.48056 0.44203 0.08157 0.0
H136 H 0.55617 0.46109 0.12977 0.0
H137 H 0.47461 0.39255 0.13554 0.0
C138 C 0.45719 0.40166 0.12532 0.0
O139 O 0.4827 0.44102 0.11762 0.0
H140 H 0.44523 0.37932 0.11445 0.0
C141 C 0.58225 0.47155 0.08454 0.0
C142 C 0.58725 0.47179 0.10379 0.0
C143 C 0.54399 0.46065 0.07636 0.0
C144 C 0.51033 0.45038 0.08762 0.0
C145 C 0.51496 0.45049 0.10684 0.0
C146 C 0.55327 0.46139 0.11488 0.0
C147 C 0.17787 0.44517 0.17938 0.0
C148 C 0.18509 0.48321 0.17084 0.0
C149 C 0.20734 0.4332 0.1785 0.0
C150 C 0.31689 0.47232 0.16853 0.0
H151 H 0.2776 0.36399 0.15129 0.0
C152 C 0.42864 0.41726 0.15208 0.0
C153 C 0.42241 0.40137 0.13475 0.0
C154 C 0.3984 0.42246 0.15983 0.0
C155 C 0.28898 0.39422 0.1562 0.0
H156 H 0.22968 0.53929 0.15539 0.0
H157 H 0.28096 0.5184 0.15389 0.0
H158 H 0.2282 0.38425 0.15914 0.0
H159 H 0.38016 0.37845 0.11186 0.0
H160 H 0.32708 0.38731 0.12538 0.0
H161 H 0.37767 0.48298 0.16486 0.0
C162 C 0.25259 0.49788 0.16131 0.0
C163 C 0.26073 0.40568 0.16086 0.0
C164 C 0.22306 0.50972 0.16206 0.0
C165 C 0.38521 0.38998 0.12542 0.0
C166 C 0.35489 0.39498 0.13318 0.0
C167 C 0.34512 0.46079 0.16397 0.0
C168 C 0.24474 0.45921 0.16922 0.0
C169 C 0.27445 0.44521 0.16664 0.0
C170 C 0.3615 0.41201 0.15031 0.0
C171 C 0.33146 0.42198 0.15736 0.0
H172 H 0.14896 0.42405 0.18628 0.0
H173 H 0.20066 0.40337 0.18486 0.0
H174 H 0.32829 0.50284 0.17311 0.0
H175 H 0.45744 0.42682 0.15936 0.0
H176 H 0.40424 0.43548 0.17308 0.0
C177 C 0.7882 0.17925 0.50265 0.0
C178 C 0.77283 0.14331 0.49321 0.0
C179 C 0.8286 0.21139 0.49989 0.0
C180 C 0.90889 0.25521 0.46451 0.0
H181 H 0.97266 0.32955 0.50205 0.0
C182 C 0.0548 0.40853 0.44525 0.0
C183 C 0.05476 0.44277 0.45153 0.0
C184 C 0.02791 0.36878 0.45288 0.0
C185 C 0.95526 0.30896 0.49145 0.0
H186 H 0.78868 0.11204 0.47425 0.0
H187 H 0.85949 0.16809 0.4696 0.0
H188 H 0.91097 0.26395 0.51086 0.0
H189 H 0.02818 0.4624 0.47142 0.0
H190 H 0.98127 0.39305 0.48474 0.0
H191 H 0.95227 0.30062 0.44503 0.0
C192 C 0.83995 0.17164 0.47888 0.0
C193 C 0.91993 0.27147 0.49647 0.0
C194 C 0.7994 0.13948 0.48159 0.0
C195 C 0.02916 0.43668 0.46638 0.0
C196 C 0.00231 0.39692 0.47403 0.0
C197 C 0.94426 0.29253 0.45951 0.0
C198 C 0.85472 0.20833 0.4877 0.0
C199 C 0.89566 0.24475 0.48297 0.0
C200 C 0.00053 0.36248 0.46697 0.0
C201 C 0.96715 0.32032 0.47285 0.0
H202 H 0.76866 0.18324 0.51175 0.0
H203 H 0.83871 0.23939 0.5067 0.0
H204 H 0.89068 0.2357 0.45371 0.0
H205 H 0.0748 0.41237 0.43406 0.0
H206 H 0.02766 0.34285 0.44737 0.0
C207 C 0.7021 0.7465 0.81889 0.0
C208 C 0.67997 0.71761 0.83354 0.0
C209 C 0.70738 0.7861 0.818 0.0
C210 C 0.64921 0.83207 0.8316 0.0
H211 H 0.73753 0.93199 0.80738 0.0
C212 C 0.67863 0.00055 0.79942 0.0
C213 C 0.64585 0.98648 0.7868 0.0
C214 C 0.68807 0.97261 0.80915 0.0
C215 C 0.71296 0.90454 0.81447 0.0
H216 H 0.65012 0.70891 0.85976 0.0
H217 H 0.65972 0.77804 0.85824 0.0
H218 H 0.74924 0.87514 0.81816 0.0
H219 H 0.59657 0.93282 0.7747 0.0
H220 H 0.61243 0.88392 0.79195 0.0
H221 H 0.61233 0.86047 0.82706 0.0
C222 C 0.67207 0.76981 0.84724 0.0
C223 C 0.71953 0.872 0.8205 0.0
C224 C 0.66656 0.73022 0.84808 0.0
C225 C 0.6221 0.94425 0.78432 0.0
C226 C 0.631 0.91638 0.79424 0.0
C227 C 0.6426 0.86433 0.82545 0.0
C228 C 0.69084 0.79749 0.83179 0.0
C229 C 0.68728 0.83497 0.82862 0.0
C230 C 0.66416 0.93031 0.80665 0.0
C231 C 0.67395 0.90021 0.8163 0.0
H232 H 0.71301 0.73777 0.80754 0.0
H233 H 0.72179 0.80667 0.80585 0.0
H234 H 0.62355 0.80383 0.83759 0.0
H235 H 0.69733 0.03312 0.80145 0.0
H236 H 0.71381 0.9839 0.81864 0.0
C237 C 0.91958 0.52141 0.13564 0.0
C238 C 0.94221 0.53628 0.15182 0.0
C239 C 0.88427 0.52379 0.13185 0.0
C240 C 0.80091 0.5263 0.15397 0.0
H241 H 0.77616 0.54763 0.10328 0.0
C242 C 0.64365 0.50842 0.12683 0.0
C243 C 0.6281 0.48309 0.11197 0.0
C244 C 0.68357 0.52138 0.13341 0.0
C245 C 0.7828 0.54191 0.11752 0.0
H246 H 0.94578 0.56594 0.17664 0.0
H247 H 0.8833 0.56986 0.16998 0.0
H248 H 0.84541 0.56188 0.11142 0.0
H249 H 0.64132 0.44945 0.09321 0.0
H250 H 0.71097 0.47295 0.10432 0.0
H251 H 0.73756 0.50521 0.15983 0.0
C252 C 0.89323 0.55637 0.16029 0.0
C253 C 0.82232 0.54998 0.12217 0.0
C254 C 0.929 0.55428 0.16404 0.0
C255 C 0.65271 0.46988 0.10431 0.0
C256 C 0.69254 0.48321 0.11069 0.0
C257 C 0.76124 0.51848 0.1493 0.0
C258 C 0.87051 0.54103 0.14415 0.0
C259 C 0.83135 0.54063 0.14027 0.0
C260 C 0.70856 0.50958 0.12506 0.0
C261 C 0.75159 0.52473 0.13089 0.0
H262 H 0.92886 0.50744 0.12589 0.0
H263 H 0.86705 0.511 0.11947 0.0
H264 H 0.80699 0.51869 0.16802 0.0
H265 H 0.62552 0.51927 0.13298 0.0
H266 H 0.69536 0.54161 0.14458 0.0
C267 C 0.437 0.92925 0.48205 0.0
C268 C 0.46156 0.92795 0.49692 0.0
C269 C 0.39634 0.89742 0.48046 0.0
C270 C 0.33006 0.7875 0.49506 0.0
H271 H 0.24362 0.80496 0.47329 0.0
C272 C 0.16857 0.65142 0.48225 0.0
C273 C 0.15325 0.65239 0.46439 0.0
C274 C 0.20248 0.68667 0.48858 0.0
C275 C 0.2675 0.79967 0.47938 0.0
H276 H 0.46199 0.89324 0.52229 0.0
H277 H 0.39085 0.83817 0.51969 0.0
H278 H 0.31007 0.86428 0.48046 0.0
H279 H 0.16098 0.69046 0.43912 0.0
H280 H 0.22026 0.75231 0.45018 0.0
H281 H 0.28781 0.72302 0.49373 0.0
C282 C 0.40331 0.8633 0.50902 0.0
C283 C 0.30555 0.83359 0.48345 0.0
C284 C 0.44405 0.89498 0.51055 0.0
C285 C 0.17183 0.6893 0.45308 0.0
C286 C 0.20563 0.72462 0.45943 0.0
C287 C 0.292 0.75366 0.4911 0.0
C288 C 0.37924 0.86371 0.49376 0.0
C289 C 0.33751 0.8279 0.49105 0.0
C290 C 0.22178 0.72344 0.47712 0.0
C291 C 0.26055 0.75939 0.48295 0.0
H292 H 0.44953 0.95418 0.47129 0.0
H293 H 0.37888 0.89851 0.46841 0.0
H294 H 0.35415 0.78194 0.50059 0.0
H295 H 0.155 0.62304 0.49107 0.0
H296 H 0.21414 0.68493 0.50231 0.0
C297 C 0.6057 0.39189 0.83786 0.0
C298 C 0.58688 0.41017 0.8267 0.0
C299 C 0.59731 0.35211 0.83514 0.0
C300 C 0.56478 0.28076 0.79884 0.0
H301 H 0.55005 0.19947 0.8389 0.0
C302 C 0.53476 0.12052 0.78441 0.0
C303 C 0.55682 0.10558 0.79528 0.0
C304 C 0.53326 0.15476 0.7893 0.0
C305 C 0.55439 0.22197 0.82758 0.0
H306 H 0.54333 0.40034 0.80438 0.0
H307 H 0.5288 0.33108 0.79971 0.0
H308 H 0.55724 0.2652 0.84574 0.0
H309 H 0.59452 0.11415 0.81964 0.0
H310 H 0.59271 0.17463 0.82808 0.0
H311 H 0.56315 0.2384 0.7807 0.0
C312 C 0.55036 0.34771 0.8104 0.0
C313 C 0.55845 0.25952 0.8315 0.0
C314 C 0.55861 0.38735 0.81315 0.0
C315 C 0.57692 0.12499 0.81123 0.0
C316 C 0.57566 0.1594 0.81607 0.0
C317 C 0.56095 0.24341 0.79493 0.0
C318 C 0.57007 0.32994 0.82117 0.0
C319 C 0.5639 0.28934 0.81716 0.0
C320 C 0.55428 0.17502 0.80501 0.0
C321 C 0.55595 0.21366 0.80925 0.0
H322 H 0.62755 0.40857 0.84845 0.0
H323 H 0.61319 0.33926 0.84355 0.0
H324 H 0.56966 0.30346 0.78753 0.0
H325 H 0.51925 0.10613 0.77198 0.0
H326 H 0.51606 0.16569 0.78064 0.0
C327 C 0.6234 0.88015 0.51465 0.0
C328 C 0.64648 0.91421 0.5021 0.0
C329 C 0.62954 0.84654 0.51606 0.0
C330 C 0.70396 0.81441 0.50805 0.0
H331 H 0.60697 0.70579 0.51451 0.0
C332 C 0.7044 0.67321 0.54513 0.0
C333 C 0.67385 0.63352 0.5407 0.0
C334 C 0.70618 0.7082 0.5359 0.0
C335 C 0.6345 0.73568 0.51234 0.0
H336 H 0.6946 0.93985 0.48133 0.0
H337 H 0.70526 0.88061 0.48385 0.0
H338 H 0.59911 0.76536 0.50692 0.0
H339 H 0.62327 0.59989 0.52196 0.0
H340 H 0.62793 0.66063 0.50533 0.0
H341 H 0.73935 0.78449 0.51366 0.0
C342 C 0.68248 0.88026 0.49258 0.0
C343 C 0.62991 0.76994 0.50825 0.0
C344 C 0.67625 0.91404 0.49111 0.0
C345 C 0.64741 0.6298 0.52578 0.0
C346 C 0.64966 0.66473 0.51636 0.0
C347 C 0.70861 0.77995 0.51211 0.0
C348 C 0.65886 0.84605 0.50496 0.0
C349 C 0.66449 0.80973 0.50664 0.0
C350 C 0.67778 0.70424 0.52186 0.0
C351 C 0.67385 0.7403 0.51477 0.0
H352 H 0.60038 0.87926 0.52341 0.0
H353 H 0.61147 0.82099 0.52601 0.0
H354 H 0.73116 0.84479 0.50687 0.0
H355 H 0.72592 0.67728 0.55625 0.0
H356 H 0.72823 0.73815 0.54053 0.0
C357 C 0.79347 0.60595 0.86061 0.0
C358 C 0.77934 0.6008 0.84238 0.0
C359 C 0.83307 0.61366 0.8649 0.0
C360 C 0.93236 0.63561 0.84397 0.0
H361 H 0.94016 0.58225 0.8908 0.0
C362 C 0.04579 0.57629 0.86532 0.0
C363 C 0.06549 0.58794 0.88245 0.0
C364 C 0.01725 0.58795 0.85904 0.0
C365 C 0.93854 0.59774 0.87779 0.0
H366 H 0.79513 0.60056 0.81418 0.0
H367 H 0.86345 0.61105 0.82172 0.0
H368 H 0.87695 0.58207 0.88282 0.0
H369 H 0.07346 0.62421 0.90552 0.0
H370 H 0.02207 0.64272 0.8949 0.0
H371 H 0.99356 0.64817 0.83865 0.0
C372 C 0.8449 0.61091 0.83271 0.0
C373 C 0.90238 0.598 0.87321 0.0
C374 C 0.80565 0.60455 0.82836 0.0
C375 C 0.05799 0.61372 0.89254 0.0
C376 C 0.02899 0.62473 0.88641 0.0
C377 C 0.96832 0.63441 0.84842 0.0
C378 C 0.85886 0.61476 0.85113 0.0
C379 C 0.89862 0.61685 0.85622 0.0
C380 C 0.00766 0.61099 0.86988 0.0
C381 C 0.97151 0.61541 0.86536 0.0
H382 H 0.77376 0.60383 0.87158 0.0
H383 H 0.84306 0.61795 0.87911 0.0
H384 H 0.931 0.65099 0.8309 0.0
H385 H 0.05054 0.5562 0.85726 0.0
H386 H 0.00075 0.57672 0.84633 0.0
C387 C 0.20328 0.69275 0.15461 0.0
C388 C 0.16628 0.6731 0.16467 0.0
C389 C 0.23275 0.7338 0.15703 0.0
C390 C 0.26909 0.80676 0.19245 0.0
H391 H 0.33561 0.88656 0.15308 0.0
C392 C 0.40652 0.96374 0.20883 0.0
C393 C 0.44261 0.97656 0.19885 0.0
C394 C 0.36897 0.93138 0.20315 0.0
C395 C 0.31745 0.86456 0.16424 0.0
H396 H 0.13046 0.68189 0.18453 0.0
H397 H 0.18208 0.75342 0.18879 0.0
H398 H 0.27634 0.82078 0.14554 0.0
H399 H 0.46804 0.96665 0.17504 0.0
H400 H 0.40282 0.90935 0.16533 0.0
H401 H 0.31091 0.84928 0.21119 0.0
C402 C 0.18829 0.7369 0.17913 0.0
C403 C 0.28347 0.82699 0.15991 0.0
C404 C 0.1587 0.69596 0.17662 0.0
C405 C 0.44043 0.95735 0.18284 0.0
C406 C 0.40302 0.92476 0.17725 0.0
C407 C 0.3032 0.8441 0.19679 0.0
C408 C 0.22594 0.75595 0.16964 0.0
C409 C 0.25935 0.79748 0.17399 0.0
C410 C 0.36693 0.91086 0.18752 0.0
C411 C 0.32823 0.8732 0.18275 0.0
H412 H 0.21003 0.67612 0.14523 0.0
H413 H 0.26163 0.74759 0.14963 0.0
H414 H 0.25143 0.78437 0.20361 0.0
H415 H 0.40749 0.97812 0.22124 0.0
H416 H 0.34169 0.92193 0.21121 0.0
C417 C 0.56257 0.16177 0.48586 0.0
C418 C 0.58217 0.1501 0.5 0.0
C419 C 0.55218 0.19185 0.48849 0.0
C420 C 0.52948 0.23922 0.5244 0.0
H421 H 0.58225 0.34165 0.49348 0.0
C422 C 0.56762 0.39256 0.55094 0.0
C423 C 0.56709 0.42332 0.53882 0.0
C424 C 0.56 0.35564 0.54442 0.0
C425 C 0.56637 0.31297 0.502 0.0
H426 H 0.60529 0.15984 0.52807 0.0
H427 H 0.58649 0.2114 0.53269 0.0
H428 H 0.58501 0.28196 0.4847 0.0
H429 H 0.55806 0.44001 0.51048 0.0
H430 H 0.54382 0.37487 0.49902 0.0
H431 H 0.51153 0.27009 0.54195 0.0
C432 C 0.57942 0.19762 0.51958 0.0
C433 C 0.56803 0.27887 0.49696 0.0
C434 C 0.59051 0.1684 0.51685 0.0
C435 C 0.55829 0.41646 0.52009 0.0
C436 C 0.55041 0.37936 0.51354 0.0
C437 C 0.52738 0.27306 0.52933 0.0
C438 C 0.56031 0.2097 0.50545 0.0
C439 C 0.55095 0.24231 0.5085 0.0
C440 C 0.55164 0.3487 0.52561 0.0
C441 C 0.54725 0.31084 0.5186 0.0
H442 H 0.55582 0.14812 0.47274 0.0
H443 H 0.53761 0.20096 0.47739 0.0
H444 H 0.51574 0.21109 0.5334 0.0
H445 H 0.57494 0.39759 0.56539 0.0
H446 H 0.56216 0.33316 0.55403 0.0
C447 C 0.47259 0.56783 0.82501 0.0
C448 C 0.481 0.53659 0.82174 0.0
C449 C 0.43227 0.56021 0.82432 0.0
C450 C 0.33035 0.47974 0.83521 0.0
H451 H 0.29715 0.55421 0.81084 0.0
C452 C 0.1765 0.46578 0.85328 0.0
C453 C 0.17856 0.50331 0.85577 0.0
C454 C 0.20873 0.46537 0.84465 0.0
C455 C 0.30595 0.53321 0.81783 0.0
H456 H 0.45415 0.47327 0.81473 0.0
H457 H 0.38314 0.45956 0.81418 0.0
H458 H 0.36395 0.56271 0.80375 0.0
H459 H 0.21393 0.56955 0.84973 0.0
H460 H 0.27104 0.56924 0.83564 0.0
H461 H 0.27421 0.4521 0.85037 0.0
C462 C 0.40798 0.49003 0.81697 0.0
C463 C 0.34401 0.53792 0.81362 0.0
C464 C 0.44848 0.49791 0.81726 0.0
C465 C 0.21214 0.54024 0.84846 0.0
C466 C 0.24459 0.53993 0.8401 0.0
C467 C 0.29262 0.47545 0.83967 0.0
C468 C 0.3996 0.52103 0.82069 0.0
C469 C 0.35689 0.51187 0.82263 0.0
C470 C 0.24369 0.50254 0.83837 0.0
C471 C 0.28047 0.50291 0.83143 0.0
H472 H 0.49711 0.59799 0.82838 0.0
H473 H 0.42645 0.58445 0.82742 0.0
H474 H 0.33988 0.45953 0.84246 0.0
H475 H 0.15027 0.43682 0.85831 0.0
H476 H 0.20649 0.43596 0.84315 0.0
C477 C 0.94832 0.34012 0.18825 0.0
C478 C 0.95908 0.36008 0.17048 0.0
C479 C 0.91409 0.30064 0.1909 0.0
C480 C 0.81661 0.23045 0.16769 0.0
H481 H 0.80664 0.15808 0.21086 0.0
C482 C 0.68872 0.07063 0.21189 0.0
C483 C 0.65516 0.0771 0.20973 0.0
C484 C 0.72673 0.09935 0.20395 0.0
C485 C 0.80885 0.17725 0.19848 0.0
H486 H 0.9442 0.35348 0.14142 0.0
H487 H 0.88562 0.28372 0.14589 0.0
H488 H 0.87317 0.21715 0.20265 0.0
H489 H 0.63425 0.11776 0.19744 0.0
H490 H 0.70075 0.16895 0.18434 0.0
H491 H 0.75261 0.1897 0.16313 0.0
C492 C 0.90251 0.29907 0.15791 0.0
C493 C 0.84709 0.21177 0.19396 0.0
C494 C 0.93627 0.33896 0.1553 0.0
C495 C 0.65972 0.11201 0.1991 0.0
C496 C 0.69788 0.14118 0.1915 0.0
C497 C 0.77856 0.19541 0.17198 0.0
C498 C 0.89026 0.27978 0.17579 0.0
C499 C 0.85121 0.23968 0.1789 0.0
C500 C 0.73216 0.13565 0.19408 0.0
C501 C 0.7738 0.16914 0.18782 0.0
H502 H 0.96517 0.35576 0.20023 0.0
H503 H 0.9054 0.28739 0.20491 0.0
H504 H 0.81824 0.25115 0.15603 0.0
H505 H 0.68567 0.04365 0.21997 0.0
H506 H 0.75202 0.09343 0.20589 0.0
C507 C 0.04901 0.49585 0.08295 0.0
C508 C 0.08409 0.51743 0.0939 0.0
C509 C 0.05271 0.49558 0.06398 0.0
C510 C 0.125 0.51124 0.02754 0.0
H511 H 0.04991 0.5302 0.99571 0.0
C512 C 0.14414 0.54397 0.94806 0.0
C513 C 0.10814 0.5292 0.93739 0.0
C514 C 0.14173 0.53897 0.96733 0.0
C515 C 0.07069 0.52415 0.00438 0.0
H516 H 0.1507 0.55523 0.09347 0.0
H517 H 0.15708 0.55477 0.06021 0.0
H518 H 0.04506 0.52934 0.02895 0.0
H519 H 0.04154 0.49507 0.93827 0.0
H520 H 0.03718 0.48535 0.97184 0.0
H521 H 0.15061 0.506 0.00287 0.0
C522 C 0.12676 0.53792 0.06642 0.0
C523 C 0.06798 0.52382 0.02344 0.0
C524 C 0.12305 0.5384 0.08543 0.0
C525 C 0.06974 0.50727 0.94624 0.0
C526 C 0.06731 0.50195 0.96544 0.0
C527 C 0.1276 0.51136 0.00841 0.0
C528 C 0.09157 0.51673 0.05549 0.0
C529 C 0.09502 0.5173 0.03524 0.0
C530 C 0.10324 0.51884 0.97624 0.0
C531 C 0.10037 0.51771 0.99661 0.0
H532 H 0.01851 0.47923 0.08899 0.0
H533 H 0.02508 0.47856 0.05595 0.0
H534 H 0.14601 0.50577 0.03633 0.0
H535 H 0.17412 0.56121 0.94154 0.0
H536 H 0.17001 0.55256 0.97523 0.0
C537 C 0.63954 0.0294 0.41636 0.0
C538 C 0.61218 0.03616 0.42603 0.0
C539 C 0.63583 0.02638 0.39729 0.0
C540 C 0.56092 0.00373 0.3593 0.0
H541 H 0.65797 0.0566 0.32817 0.0
C542 C 0.55296 0.02165 0.27981 0.0
C543 C 0.58097 0.01694 0.26959 0.0
C544 C 0.55585 0.02161 0.29902 0.0
C545 C 0.63059 0.04117 0.3367 0.0
H546 H 0.55985 0.0457 0.4231 0.0
H547 H 0.55376 0.04088 0.38985 0.0
H548 H 0.66553 0.06231 0.3614 0.0
H549 H 0.63283 0.0067 0.27157 0.0
H550 H 0.63778 0.00648 0.30512 0.0
H551 H 0.52597 0.98276 0.33458 0.0
C552 C 0.57768 0.03729 0.39707 0.0
C553 C 0.63494 0.0445 0.35574 0.0
C554 C 0.58139 0.04035 0.41613 0.0
C555 C 0.61121 0.01106 0.27904 0.0
C556 C 0.61409 0.011 0.29824 0.0
C557 C 0.55658 0.00039 0.34026 0.0
C558 C 0.60467 0.03 0.38745 0.0
C559 C 0.60014 0.02597 0.36725 0.0
C560 C 0.58679 0.01682 0.30843 0.0
C561 C 0.59136 0.01921 0.32874 0.0
H562 H 0.66356 0.02592 0.42354 0.0
H563 H 0.65688 0.02038 0.3903 0.0
H564 H 0.53354 0.98851 0.36783 0.0
H565 H 0.52967 0.02681 0.27292 0.0
H566 H 0.53465 0.02666 0.30644 0.0
C567 C 0.61338 0.54486 0.74924 0.0
C568 C 0.64489 0.57527 0.7595 0.0
C569 C 0.61782 0.54476 0.73032 0.0
C570 C 0.6744 0.6099 0.6892 0.0
H571 H 0.63851 0.50455 0.66947 0.0
C572 C 0.69484 0.59526 0.61228 0.0
C573 C 0.66097 0.56304 0.60382 0.0
C574 C 0.69576 0.59744 0.63139 0.0
C575 C 0.64837 0.53417 0.67473 0.0
H576 H 0.70557 0.63 0.75775 0.0
H577 H 0.71328 0.62975 0.72457 0.0
H578 H 0.63465 0.50781 0.70255 0.0
H579 H 0.60128 0.50817 0.6088 0.0
H580 H 0.6029 0.51191 0.64207 0.0
H581 H 0.68762 0.63615 0.66129 0.0
C582 C 0.68508 0.60608 0.73126 0.0
C583 C 0.64617 0.53604 0.69368 0.0
C584 C 0.68069 0.60613 0.75027 0.0
C585 C 0.6282 0.53292 0.61491 0.0
C586 C 0.62911 0.5351 0.63399 0.0
C587 C 0.67655 0.60802 0.67019 0.0
C588 C 0.65386 0.57508 0.72114 0.0
C589 C 0.65861 0.57381 0.70111 0.0
C590 C 0.66282 0.56744 0.64246 0.0
C591 C 0.66304 0.57002 0.66272 0.0
H592 H 0.58527 0.52072 0.75583 0.0
H593 H 0.59288 0.52092 0.72286 0.0
H594 H 0.68392 0.63941 0.6945 0.0
H595 H 0.72075 0.6187 0.60411 0.0
H596 H 0.72239 0.62245 0.63752 0.0
C597 C 0.59972 0.99444 0.5801 0.0
C598 C 0.61985 0.03166 0.56898 0.0
C599 C 0.59892 0.99473 0.59928 0.0
C600 C 0.60842 0.06063 0.63577 0.0
H601 H 0.63216 0.98691 0.66752 0.0
C602 C 0.59024 0.04239 0.71526 0.0
C603 C 0.62246 0.04168 0.72552 0.0
C604 C 0.58878 0.04088 0.6961 0.0
C605 C 0.62558 0.00775 0.65881 0.0
H606 H 0.65512 0.09838 0.56934 0.0
H607 H 0.65367 0.09873 0.60272 0.0
H608 H 0.63194 0.98453 0.63408 0.0
H609 H 0.67916 0.04035 0.72359 0.0
H610 H 0.6763 0.03726 0.69023 0.0
H611 H 0.60258 0.08421 0.6605 0.0
C612 C 0.63825 0.06939 0.59659 0.0
C613 C 0.62508 0.00611 0.6397 0.0
C614 C 0.63932 0.06912 0.57747 0.0
C615 C 0.65347 0.04009 0.71615 0.0
C616 C 0.65187 0.03833 0.69705 0.0
C617 C 0.60862 0.06206 0.65489 0.0
C618 C 0.61794 0.03223 0.60769 0.0
C619 C 0.61687 0.0328 0.62798 0.0
C620 C 0.61939 0.03842 0.68684 0.0
C621 C 0.61759 0.0359 0.66659 0.0
H622 H 0.58441 0.96506 0.57401 0.0
H623 H 0.58283 0.96563 0.60751 0.0
H624 H 0.60159 0.08128 0.62706 0.0
H625 H 0.56561 0.0431 0.72208 0.0
H626 H 0.56321 0.04069 0.68857 0.0
C627 C 0.57544 0.54643 0.90952 0.0
C628 C 0.59661 0.53071 0.90074 0.0
C629 C 0.56586 0.53639 0.92831 0.0
C630 C 0.59887 0.50103 0.97092 0.0
H631 H 0.49304 0.47451 0.99016 0.0
C632 C 0.55719 0.44248 0.04626 0.0
C633 C 0.54032 0.46103 0.05602 0.0
C634 C 0.5595 0.4477 0.02706 0.0
C635 C 0.52282 0.48215 0.98499 0.0
H636 H 0.62368 0.49152 0.90483 0.0
H637 H 0.60677 0.47393 0.93745 0.0
H638 H 0.50675 0.49107 0.95701 0.0
H639 H 0.51064 0.49776 0.05342 0.0
H640 H 0.51497 0.50731 0.01969 0.0
H641 H 0.61524 0.49257 -0.00126 0.0
C642 C 0.59806 0.49445 0.92988 0.0
C643 C 0.53069 0.49167 0.96603 0.0
C644 C 0.6076 0.50443 0.91114 0.0
C645 C 0.52364 0.48301 0.04618 0.0
C646 C 0.52614 0.48845 0.0269 0.0
C647 C 0.59104 0.49157 0.98978 0.0
C648 C 0.57734 0.51052 0.93871 0.0
C649 C 0.56875 0.50097 0.9588 0.0
C650 C 0.54522 0.47184 0.01719 0.0
C651 C 0.55286 0.48174 0.99704 0.0
H652 H 0.56647 0.56673 0.90192 0.0
H653 H 0.55021 0.54956 0.93476 0.0
H654 H 0.62881 0.50894 0.96584 0.0
H655 H 0.56967 0.42482 0.05353 0.0
H656 H 0.57341 0.43362 0.01997 0.0
C657 C 0.07022 0.49044 0.24693 0.0
C658 C 0.0632 0.51827 0.23542 0.0
C659 C 0.07271 0.49265 0.26601 0.0
C660 C 0.09404 0.5635 0.30207 0.0
H661 H 0.04479 0.46241 0.33402 0.0
C662 C 0.08988 0.559 0.38207 0.0
C663 C 0.09763 0.52977 0.39191 0.0
C664 C 0.08566 0.55943 0.36287 0.0
C665 C 0.05904 0.4909 0.32528 0.0
H666 H 0.0529 0.57011 0.23503 0.0
H667 H 0.05692 0.57368 0.26847 0.0
H668 H 0.03569 0.45904 0.30076 0.0
H669 H 0.10925 0.47959 0.38927 0.0
H670 H 0.10194 0.48034 0.35585 0.0
H671 H 0.11751 0.59529 0.3267 0.0
C672 C 0.06092 0.55043 0.26263 0.0
C673 C 0.05379 0.48897 0.30623 0.0
C674 C 0.05837 0.5482 0.24349 0.0
C675 C 0.10244 0.50193 0.38211 0.0
C676 C 0.0982 0.50232 0.36298 0.0
C677 C 0.09925 0.56543 0.32118 0.0
C678 C 0.0682 0.5227 0.27409 0.0
C679 C 0.07168 0.52519 0.29439 0.0
C680 C 0.08909 0.5306 0.35317 0.0
C681 C 0.08226 0.52909 0.33295 0.0
H682 H 0.07422 0.46707 0.24122 0.0
H683 H 0.07896 0.47122 0.27443 0.0
H684 H 0.10854 0.59193 0.29329 0.0
H685 H 0.08568 0.58062 0.38927 0.0
H686 H 0.07844 0.58144 0.35568 0.0
loop_
_geom_bond_atom_site_label_1
_geom_bond_atom_site_label_2
_geom_bond_distance
_geom_bond_site_symmetry_2
_ccdc_geom_bond_type
O0 Zn1 1.953 . S
O0 C16 1.225 . S
Zn1 O0 1.953 . S
Zn1 O2 1.949 . S
Zn1 O8 1.919 1_455 S
Zn1 O13 1.924 . S
O2 Zn1 1.949 . S
O2 Zn3 1.923 . S
O2 Zn4 1.950 . S
O2 Zn5 1.945 . S
Zn3 O2 1.923 . S
Zn3 O6 1.933 . S
Zn3 O9 1.941 1_455 S
Zn3 O10 1.965 1_455 S
Zn4 O2 1.950 . S
Zn4 O11 1.938 . S
Zn4 O12 1.906 . S
Zn4 O22 1.953 . S
Zn5 O2 1.945 . S
Zn5 O7 1.932 . S
Zn5 O14 1.977 . S
Zn5 O15 1.910 . S
O6 Zn3 1.933 . S
O6 C17 1.226 . S
O7 Zn5 1.932 . S
O7 C17 1.307 . S
O8 Zn1 1.919 1_655 S
O8 C19 1.253 . S
O9 Zn3 1.941 1_655 S
O9 C19 1.283 . S
O10 Zn3 1.965 1_655 S
O10 C18 1.303 . S
O11 Zn4 1.938 . S
O11 C18 1.247 1_455 S
O12 Zn4 1.906 . S
O12 C20 1.304 . S
O13 Zn1 1.924 . S
O13 C21 1.311 . S
O14 Zn5 1.977 . S
O14 C20 1.272 . S
O15 Zn5 1.910 . S
O15 C21 1.231 . S
C16 O0 1.225 . S
C16 O22 1.298 . S
C17 O6 1.226 . S
C17 O7 1.307 . S
C18 O10 1.303 . S
C18 O11 1.247 1_655 S
C19 O8 1.253 . S
C19 O9 1.283 . S
C20 O12 1.304 . S
C20 O14 1.272 . S
C21 O13 1.311 . S
C21 O15 1.231 . S
O22 Zn4 1.953 . S
O22 C16 1.298 . S
O23 Zn24 1.953 . S
O23 C39 1.225 . S
Zn24 O23 1.953 . S
Zn24 O25 1.949 . S
Zn24 O31 1.919 . S
Zn24 O36 1.924 1_545 S
O25 Zn24 1.949 . S
O25 Zn26 1.923 . S
O25 Zn27 1.950 . S
O25 Zn28 1.945 1_545 S
Zn26 O25 1.923 . S
Zn26 O29 1.933 . S
Zn26 O32 1.941 . S
Zn26 O33 1.965 . S
Zn27 O25 1.950 . S
Zn27 O34 1.938 . S
Zn27 O35 1.906 1_545 S
Zn27 O45 1.953 . S
Zn28 O25 1.945 1_565 S
Zn28 O30 1.932 . S
Zn28 O37 1.977 . S
Zn28 O38 1.910 . S
O29 Zn26 1.933 . S
O29 C40 1.226 . S
O30 Zn28 1.932 . S
O30 C40 1.307 1_565 S
O31 Zn24 1.919 . S
O31 C42 1.253 . S
O32 Zn26 1.941 . S
O32 C42 1.283 . S
O33 Zn26 1.965 . S
O33 C41 1.303 . S
O34 Zn27 1.938 . S
O34 C41 1.247 . S
O35 Zn27 1.906 1_565 S
O35 C43 1.304 . S
O36 Zn24 1.924 1_565 S
O36 C44 1.311 . S
O37 Zn28 1.977 . S
O37 C43 1.272 . S
O38 Zn28 1.910 . S
O38 C44 1.231 . S
C39 O23 1.225 . S
C39 O45 1.298 . S
C40 O29 1.226 . S
C40 O30 1.307 1_545 S
C41 O33 1.303 . S
C41 O34 1.247 . S
C42 O31 1.253 . S
C42 O32 1.283 . S
C43 O35 1.304 . S
C43 O37 1.272 . S
C44 O36 1.311 . S
C44 O38 1.231 . S
O45 Zn27 1.953 . S
O45 C39 1.298 . S
O46 Zn47 1.953 . S
O46 C62 1.225 . S
Zn47 O46 1.953 . S
Zn47 O48 1.949 . S
Zn47 O54 1.919 . S
Zn47 O59 1.924 . S
O48 Zn47 1.949 . S
O48 Zn49 1.923 . S
O48 Zn50 1.950 . S
O48 Zn51 1.945 . S
Zn49 O48 1.923 . S
Zn49 O52 1.933 . S
Zn49 O55 1.941 . S
Zn49 O56 1.965 . S
Zn50 O48 1.950 . S
Zn50 O57 1.938 . S
Zn50 O58 1.906 . S
Zn50 O68 1.953 . S
Zn51 O48 1.945 . S
Zn51 O53 1.932 . S
Zn51 O60 1.977 . S
Zn51 O61 1.910 . S
O52 Zn49 1.933 . S
O52 C63 1.226 . S
O53 Zn51 1.932 . S
O53 C63 1.307 . S
O54 Zn47 1.919 . S
O54 C65 1.253 . S
O55 Zn49 1.941 . S
O55 C65 1.283 . S
O56 Zn49 1.965 . S
O56 C64 1.303 . S
O57 Zn50 1.938 . S
O57 C64 1.247 . S
O58 Zn50 1.906 . S
O58 C66 1.304 . S
O59 Zn47 1.924 . S
O59 C67 1.311 . S
O60 Zn51 1.977 . S
O60 C66 1.272 . S
O61 Zn51 1.910 . S
O61 C67 1.231 . S
C62 O46 1.225 . S
C62 O68 1.298 . S
C63 O52 1.226 . S
C63 O53 1.307 . S
C64 O56 1.303 . S
C64 O57 1.247 . S
C65 O54 1.253 . S
C65 O55 1.283 . S
C66 O58 1.304 . S
C66 O60 1.272 . S
C67 O59 1.311 . S
C67 O61 1.231 . S
O68 Zn50 1.953 . S
O68 C62 1.298 . S
H69 C76 0.929 . S
H70 C79 0.918 1_565 S
H71 C81 0.929 . S
H72 C73 0.969 . S
C73 H72 0.969 . S
C73 O74 1.550 . S
C73 H75 0.973 . S
O74 C73 1.550 . S
O74 C80 1.412 1_565 S
H75 C73 0.973 . S
C76 H69 0.929 . S
C76 C77 1.400 . S
C76 C78 1.364 . S
C77 C76 1.400 . S
C77 C81 1.377 . S
C78 C76 1.364 . S
C78 C79 1.386 . S
C79 H70 0.918 1_545 S
C79 C78 1.386 . S
C79 C80 1.385 . S
C80 O74 1.412 1_545 S
C80 C79 1.385 . S
C80 C81 1.394 . S
C81 H71 0.929 . S
C81 C77 1.377 . S
C81 C80 1.394 . S
H82 C89 0.929 . S
H83 C92 0.930 . S
H84 C94 0.929 . S
H85 C86 0.969 . S
C86 H85 0.969 . S
C86 O87 1.550 . S
C86 H88 0.973 . S
O87 C86 1.550 . S
O87 C93 1.412 . S
H88 C86 0.973 . S
C89 H82 0.929 . S
C89 C90 1.400 . S
C89 C91 1.364 . S
C90 C89 1.400 . S
C90 C94 1.377 . S
C91 C89 1.364 . S
C91 C92 1.374 . S
C92 H83 0.930 . S
C92 C91 1.374 . S
C92 C93 1.383 . S
C93 O87 1.412 . S
C93 C92 1.383 . S
C93 C94 1.394 . S
C94 H84 0.929 . S
C94 C90 1.377 . S
C94 C93 1.394 . S
H95 C102 0.929 . S
H96 C105 0.930 . S
H97 C107 0.929 . S
H98 C99 0.969 . S
C99 H98 0.969 . S
C99 O100 1.550 . S
C99 H101 0.973 . S
O100 C99 1.550 . S
O100 C106 1.412 . S
H101 C99 0.973 . S
C102 H95 0.929 . S
C102 C103 1.400 . S
C102 C104 1.364 . S
C103 C102 1.400 . S
C103 C107 1.377 . S
C104 C102 1.364 . S
C104 C105 1.374 . S
C105 H96 0.930 . S
C105 C104 1.374 . S
C105 C106 1.383 . S
C106 O100 1.412 . S
C106 C105 1.383 . S
C106 C107 1.394 . S
C107 H97 0.929 . S
C107 C103 1.377 . S
C107 C106 1.394 . S
H108 C115 0.929 . S
H109 C118 0.930 . S
H110 C120 0.929 . S
H111 C112 0.969 . S
C112 H111 0.969 . S
C112 O113 1.550 . S
C112 H114 0.973 . S
O113 C112 1.550 . S
O113 C119 1.412 . S
H114 C112 0.973 . S
C115 H108 0.929 . S
C115 C116 1.400 . S
C115 C117 1.364 . S
C116 C115 1.400 . S
C116 C120 1.377 . S
C117 C115 1.364 . S
C117 C118 1.374 . S
C118 H109 0.930 . S
C118 C117 1.374 . S
C118 C119 1.383 . S
C119 O113 1.412 . S
C119 C118 1.383 . S
C119 C120 1.394 . S
C120 H110 0.929 . S
C120 C116 1.377 . S
C120 C119 1.394 . S
H121 C128 0.929 1_565 S
H122 C131 0.930 . S
H123 C133 0.929 . S
H124 C125 0.969 . S
C125 H124 0.969 . S
C125 O126 1.550 . S
C125 H127 0.973 . S
O126 C125 1.550 . S
O126 C132 1.412 . S
H127 C125 0.973 . S
C128 H121 0.929 1_545 S
C128 C129 1.400 1_545 S
C128 C130 1.364 . S
C129 C128 1.400 1_565 S
C129 C133 1.377 1_565 S
C130 C128 1.364 . S
C130 C131 1.374 . S
C131 H122 0.930 . S
C131 C130 1.374 . S
C131 C132 1.383 . S
C132 O126 1.412 . S
C132 C131 1.383 . S
C132 C133 1.394 . S
C133 H123 0.929 . S
C133 C129 1.377 1_545 S
C133 C132 1.394 . S
H134 C141 0.929 . S
H135 C144 0.930 . S
H136 C146 0.929 . S
H137 C138 0.969 . S
C138 H137 0.969 . S
C138 O139 1.550 . S
C138 H140 0.973 . S
O139 C138 1.550 . S
O139 C145 1.412 . S
H140 C138 0.973 . S
C141 H134 0.929 . S
C141 C142 1.400 . S
C141 C143 1.364 . S
C142 C141 1.400 . S
C142 C146 1.377 . S
C143 C141 1.364 . S
C143 C144 1.374 . S
C144 H135 0.930 . S
C144 C143 1.374 . S
C144 C145 1.383 . S
C145 O139 1.412 . S
C145 C144 1.383 . S
C145 C146 1.394 . S
C146 H136 0.929 . S
C146 C142 1.377 . S
C146 C145 1.394 . S
C147 C148 1.349 . S
C147 C149 1.327 . S
C147 H172 0.950 . S
C148 C147 1.349 . S
C148 C164 1.349 . S
C149 C147 1.327 . S
C149 C168 1.429 . S
C149 H173 0.950 . S
C150 C167 1.574 . S
C150 C169 1.368 . S
C150 H174 0.949 . S
H151 C155 0.949 . S
C152 C153 1.349 . S
C152 C154 1.327 . S
C152 H175 0.950 . S
C153 C152 1.349 . S
C153 C165 1.349 . S
C154 C152 1.327 . S
C154 C170 1.429 . S
C154 H176 0.950 . S
C155 H151 0.949 . S
C155 C163 1.574 . S
C155 C171 1.368 . S
H156 C164 0.950 . S
H157 C162 0.950 . S
H158 C163 0.949 . S
H159 C165 0.950 . S
H160 C166 0.950 . S
H161 C167 0.949 . S
C162 H157 0.950 . S
C162 C164 1.327 . S
C162 C168 1.429 . S
C163 C155 1.574 . S
C163 H158 0.949 . S
C163 C169 1.368 . S
C164 C148 1.349 . S
C164 H156 0.950 . S
C164 C162 1.327 . S
C165 C153 1.349 . S
C165 H159 0.950 . S
C165 C166 1.327 . S
C166 H160 0.950 . S
C166 C165 1.327 . S
C166 C170 1.429 . S
C167 C150 1.574 . S
C167 H161 0.949 . S
C167 C171 1.368 . S
C168 C149 1.429 . S
C168 C162 1.429 . S
C168 C169 1.523 . S
C169 C150 1.368 . S
C169 C163 1.368 . S
C169 C168 1.523 . S
C170 C154 1.429 . S
C170 C166 1.429 . S
C170 C171 1.523 . S
C171 C155 1.368 . S
C171 C167 1.368 . S
C171 C170 1.523 . S
H172 C147 0.950 . S
H173 C149 0.950 . S
H174 C150 0.949 . S
H175 C152 0.950 . S
H176 C154 0.950 . S
C177 C178 1.349 . S
C177 C179 1.327 . S
C177 H202 0.950 . S
C178 C177 1.349 . S
C178 C194 1.349 . S
C179 C177 1.327 . S
C179 C198 1.429 . S
C179 H203 0.950 . S
C180 C197 1.574 . S
C180 C199 1.368 . S
C180 H204 0.949 . S
H181 C185 0.949 . S
C182 C183 1.349 . S
C182 C184 1.327 1_455 S
C182 H205 0.950 . S
C183 C182 1.349 . S
C183 C195 1.349 . S
C184 C182 1.327 1_655 S
C184 C200 1.429 . S
C184 H206 0.950 . S
C185 H181 0.949 . S
C185 C193 1.574 . S
C185 C201 1.368 . S
H186 C194 0.950 . S
H187 C192 0.950 . S
H188 C193 0.949 . S
H189 C195 0.950 . S
H190 C196 0.950 . S
H191 C197 0.949 . S
C192 H187 0.950 . S
C192 C194 1.327 . S
C192 C198 1.429 . S
C193 C185 1.574 . S
C193 H188 0.949 . S
C193 C199 1.368 . S
C194 C178 1.349 . S
C194 H186 0.950 . S
C194 C192 1.327 . S
C195 C183 1.349 . S
C195 H189 0.950 . S
C195 C196 1.327 1_455 S
C196 H190 0.950 . S
C196 C195 1.327 1_655 S
C196 C200 1.429 . S
C197 C180 1.574 . S
C197 H191 0.949 . S
C197 C201 1.368 . S
C198 C179 1.429 . S
C198 C192 1.429 . S
C198 C199 1.523 . S
C199 C180 1.368 . S
C199 C193 1.368 . S
C199 C198 1.523 . S
C200 C184 1.429 . S
C200 C196 1.429 . S
C200 C201 1.523 . S
C201 C185 1.368 . S
C201 C197 1.368 . S
C201 C200 1.523 . S
H202 C177 0.950 . S
H203 C179 0.950 . S
H204 C180 0.949 . S
H205 C182 0.950 . S
H206 C184 0.950 . S
C207 C208 1.349 . S
C207 C209 1.327 . S
C207 H232 0.950 . S
C208 C207 1.349 . S
C208 C224 1.349 . S
C209 C207 1.327 . S
C209 C228 1.429 . S
C209 H233 0.950 . S
C210 C227 1.574 . S
C210 C229 1.368 . S
C210 H234 0.949 . S
H211 C215 0.949 . S
C212 C213 1.349 . S
C212 C214 1.327 . S
C212 H235 0.950 . S
C213 C212 1.349 . S
C213 C225 1.349 . S
C214 C212 1.327 . S
C214 C230 1.429 . S
C214 H236 0.950 . S
C215 H211 0.949 . S
C215 C223 1.574 . S
C215 C231 1.368 . S
H216 C224 0.950 . S
H217 C222 0.950 . S
H218 C223 0.949 . S
H219 C225 0.950 . S
H220 C226 0.950 . S
H221 C227 0.949 . S
C222 H217 0.950 . S
C222 C224 1.327 . S
C222 C228 1.429 . S
C223 C215 1.574 . S
C223 H218 0.949 . S
C223 C229 1.368 . S
C224 C208 1.349 . S
C224 H216 0.950 . S
C224 C222 1.327 . S
C225 C213 1.349 . S
C225 H219 0.950 . S
C225 C226 1.327 . S
C226 H220 0.950 . S
C226 C225 1.327 . S
C226 C230 1.429 . S
C227 C210 1.574 . S
C227 H221 0.949 . S
C227 C231 1.368 . S
C228 C209 1.429 . S
C228 C222 1.429 . S
C228 C229 1.523 . S
C229 C210 1.368 . S
C229 C223 1.368 . S
C229 C228 1.523 . S
C230 C214 1.429 . S
C230 C226 1.429 . S
C230 C231 1.523 . S
C231 C215 1.368 . S
C231 C227 1.368 . S
C231 C230 1.523 . S
H232 C207 0.950 . S
H233 C209 0.950 . S
H234 C210 0.949 . S
H235 C212 0.950 . S
H236 C214 0.950 . S
C237 C238 1.349 . S
C237 C239 1.327 . S
C237 H262 0.950 . S
C238 C237 1.349 . S
C238 C254 1.349 . S
C239 C237 1.327 . S
C239 C258 1.429 . S
C239 H263 0.950 . S
C240 C257 1.574 . S
C240 C259 1.368 . S
C240 H264 0.949 . S
H241 C245 0.949 . S
C242 C243 1.349 . S
C242 C244 1.327 . S
C242 H265 0.950 . S
C243 C242 1.349 . S
C243 C255 1.349 . S
C244 C242 1.327 . S
C244 C260 1.429 . S
C244 H266 0.950 . S
C245 H241 0.949 . S
C245 C253 1.574 . S
C245 C261 1.368 . S
H246 C254 0.950 . S
H247 C252 0.950 . S
H248 C253 0.949 . S
H249 C255 0.950 . S
H250 C256 0.950 . S
H251 C257 0.949 . S
C252 H247 0.950 . S
C252 C254 1.327 . S
C252 C258 1.429 . S
C253 C245 1.574 . S
C253 H248 0.949 . S
C253 C259 1.368 . S
C254 C238 1.349 . S
C254 H246 0.950 . S
C254 C252 1.327 . S
C255 C243 1.349 . S
C255 H249 0.950 . S
C255 C256 1.327 . S
C256 H250 0.950 . S
C256 C255 1.327 . S
C256 C260 1.429 . S
C257 C240 1.574 . S
C257 H251 0.949 . S
C257 C261 1.368 . S
C258 C239 1.429 . S
C258 C252 1.429 . S
C258 C259 1.523 . S
C259 C240 1.368 . S
C259 C253 1.368 . S
C259 C258 1.523 . S
C260 C244 1.429 . S
C260 C256 1.429 . S
C260 C261 1.523 . S
C261 C245 1.368 . S
C261 C257 1.368 . S
C261 C260 1.523 . S
H262 C237 0.950 . S
H263 C239 0.950 . S
H264 C240 0.949 . S
H265 C242 0.950 . S
H266 C244 0.950 . S
C267 C268 1.349 . S
C267 C269 1.327 . S
C267 H292 0.950 . S
C268 C267 1.349 . S
C268 C284 1.349 . S
C269 C267 1.327 . S
C269 C288 1.429 . S
C269 H293 0.950 . S
C270 C287 1.574 . S
C270 C289 1.368 . S
C270 H294 0.949 . S
H271 C275 0.949 . S
C272 C273 1.349 . S
C272 C274 1.327 . S
C272 H295 0.950 . S
C273 C272 1.349 . S
C273 C285 1.349 . S
C274 C272 1.327 . S
C274 C290 1.429 . S
C274 H296 0.950 . S
C275 H271 0.949 . S
C275 C283 1.574 . S
C275 C291 1.368 . S
H276 C284 0.950 . S
H277 C282 0.950 . S
H278 C283 0.949 . S
H279 C285 0.950 . S
H280 C286 0.950 . S
H281 C287 0.949 . S
C282 H277 0.950 . S
C282 C284 1.327 . S
C282 C288 1.429 . S
C283 C275 1.574 . S
C283 H278 0.949 . S
C283 C289 1.368 . S
C284 C268 1.349 . S
C284 H276 0.950 . S
C284 C282 1.327 . S
C285 C273 1.349 . S
C285 H279 0.950 . S
C285 C286 1.327 . S
C286 H280 0.950 . S
C286 C285 1.327 . S
C286 C290 1.429 . S
C287 C270 1.574 . S
C287 H281 0.949 . S
C287 C291 1.368 . S
C288 C269 1.429 . S
C288 C282 1.429 . S
C288 C289 1.523 . S
C289 C270 1.368 . S
C289 C283 1.368 . S
C289 C288 1.523 . S
C290 C274 1.429 . S
C290 C286 1.429 . S
C290 C291 1.523 . S
C291 C275 1.368 . S
C291 C287 1.368 . S
C291 C290 1.523 . S
H292 C267 0.950 . S
H293 C269 0.950 . S
H294 C270 0.949 . S
H295 C272 0.950 . S
H296 C274 0.950 . S
C297 C298 1.349 . S
C297 C299 1.327 . S
C297 H322 0.950 . S
C298 C297 1.349 . S
C298 C314 1.349 . S
C299 C297 1.327 . S
C299 C318 1.429 . S
C299 H323 0.950 . S
C300 C317 1.574 . S
C300 C319 1.368 . S
C300 H324 0.949 . S
H301 C305 0.949 . S
C302 C303 1.349 . S
C302 C304 1.327 . S
C302 H325 0.950 . S
C303 C302 1.349 . S
C303 C315 1.349 . S
C304 C302 1.327 . S
C304 C320 1.429 . S
C304 H326 0.950 . S
C305 H301 0.949 . S
C305 C313 1.574 . S
C305 C321 1.368 . S
H306 C314 0.950 . S
H307 C312 0.950 . S
H308 C313 0.949 . S
H309 C315 0.950 . S
H310 C316 0.950 . S
H311 C317 0.949 . S
C312 H307 0.950 . S
C312 C314 1.327 . S
C312 C318 1.429 . S
C313 C305 1.574 . S
C313 H308 0.949 . S
C313 C319 1.368 . S
C314 C298 1.349 . S
C314 H306 0.950 . S
C314 C312 1.327 . S
C315 C303 1.349 . S
C315 H309 0.950 . S
C315 C316 1.327 . S
C316 H310 0.950 . S
C316 C315 1.327 . S
C316 C320 1.429 . S
C317 C300 1.574 . S
C317 H311 0.949 . S
C317 C321 1.368 . S
C318 C299 1.429 . S
C318 C312 1.429 . S
C318 C319 1.523 . S
C319 C300 1.368 . S
C319 C313 1.368 . S
C319 C318 1.523 . S
C320 C304 1.429 . S
C320 C316 1.429 . S
C320 C321 1.523 . S
C321 C305 1.368 . S
C321 C317 1.368 . S
C321 C320 1.523 . S
H322 C297 0.950 . S
H323 C299 0.950 . S
H324 C300 0.949 . S
H325 C302 0.950 . S
H326 C304 0.950 . S
C327 C328 1.349 . S
C327 C329 1.327 . S
C327 H352 0.950 . S
C328 C327 1.349 . S
C328 C344 1.349 . S
C329 C327 1.327 . S
C329 C348 1.429 . S
C329 H353 0.950 . S
C330 C347 1.574 . S
C330 C349 1.368 . S
C330 H354 0.949 . S
H331 C335 0.949 . S
C332 C333 1.349 . S
C332 C334 1.327 . S
C332 H355 0.950 . S
C333 C332 1.349 . S
C333 C345 1.349 . S
C334 C332 1.327 . S
C334 C350 1.429 . S
C334 H356 0.950 . S
C335 H331 0.949 . S
C335 C343 1.574 . S
C335 C351 1.368 . S
H336 C344 0.950 . S
H337 C342 0.950 . S
H338 C343 0.949 . S
H339 C345 0.950 . S
H340 C346 0.950 . S
H341 C347 0.949 . S
C342 H337 0.950 . S
C342 C344 1.327 . S
C342 C348 1.429 . S
C343 C335 1.574 . S
C343 H338 0.949 . S
C343 C349 1.368 . S
C344 C328 1.349 . S
C344 H336 0.950 . S
C344 C342 1.327 . S
C345 C333 1.349 . S
C345 H339 0.950 . S
C345 C346 1.327 . S
C346 H340 0.950 . S
C346 C345 1.327 . S
C346 C350 1.429 . S
C347 C330 1.574 . S
C347 H341 0.949 . S
C347 C351 1.368 . S
C348 C329 1.429 . S
C348 C342 1.429 . S
C348 C349 1.523 . S
C349 C330 1.368 . S
C349 C343 1.368 . S
C349 C348 1.523 . S
C350 C334 1.429 . S
C350 C346 1.429 . S
C350 C351 1.523 . S
C351 C335 1.368 . S
C351 C347 1.368 . S
C351 C350 1.523 . S
H352 C327 0.950 . S
H353 C329 0.950 . S
H354 C330 0.949 . S
H355 C332 0.950 . S
H356 C334 0.950 . S
C357 C358 1.349 . S
C357 C359 1.327 . S
C357 H382 0.950 . S
C358 C357 1.349 . S
C358 C374 1.349 . S
C359 C357 1.327 . S
C359 C378 1.429 . S
C359 H383 0.950 . S
C360 C377 1.574 . S
C360 C379 1.368 . S
C360 H384 0.949 . S
H361 C365 0.949 . S
C362 C363 1.349 . S
C362 C364 1.350 . S
C362 H385 0.950 . S
C363 C362 1.349 . S
C363 C375 1.349 . S
C364 C362 1.350 . S
C364 C380 1.412 1_455 S
C364 H386 0.944 1_455 S
C365 H361 0.949 . S
C365 C373 1.574 . S
C365 C381 1.368 . S
H366 C374 0.950 . S
H367 C372 0.950 . S
H368 C373 0.949 . S
H369 C375 0.950 . S
H370 C376 0.950 . S
H371 C377 0.949 . S
C372 H367 0.950 . S
C372 C374 1.327 . S
C372 C378 1.429 . S
C373 C365 1.574 . S
C373 H368 0.949 . S
C373 C379 1.368 . S
C374 C358 1.349 . S
C374 H366 0.950 . S
C374 C372 1.327 . S
C375 C363 1.349 . S
C375 H369 0.950 . S
C375 C376 1.327 1_455 S
C376 H370 0.950 . S
C376 C375 1.327 1_655 S
C376 C380 1.429 . S
C377 C360 1.574 . S
C377 H371 0.949 . S
C377 C381 1.368 . S
C378 C359 1.429 . S
C378 C372 1.429 . S
C378 C379 1.523 . S
C379 C360 1.368 . S
C379 C373 1.368 . S
C379 C378 1.523 . S
C380 C364 1.412 1_655 S
C380 C376 1.429 . S
C380 C381 1.523 . S
C381 C365 1.368 . S
C381 C377 1.368 . S
C381 C380 1.523 . S
H382 C357 0.950 . S
H383 C359 0.950 . S
H384 C360 0.949 . S
H385 C362 0.950 . S
H386 C364 0.944 1_655 S
C387 C388 1.349 . S
C387 C389 1.327 . S
C387 H412 0.950 . S
C388 C387 1.349 . S
C388 C404 1.349 . S
C389 C387 1.327 . S
C389 C408 1.429 . S
C389 H413 0.950 . S
C390 C407 1.574 . S
C390 C409 1.368 . S
C390 H414 0.949 . S
H391 C395 0.949 . S
C392 C393 1.349 . S
C392 C394 1.327 . S
C392 H415 0.950 . S
C393 C392 1.349 . S
C393 C405 1.349 . S
C394 C392 1.327 . S
C394 C410 1.429 . S
C394 H416 0.950 . S
C395 H391 0.949 . S
C395 C403 1.574 . S
C395 C411 1.368 . S
H396 C404 0.950 . S
H397 C402 0.950 . S
H398 C403 0.949 . S
H399 C405 0.950 . S
H400 C406 0.950 . S
H401 C407 0.949 . S
C402 H397 0.950 . S
C402 C404 1.327 . S
C402 C408 1.429 . S
C403 C395 1.574 . S
C403 H398 0.949 . S
C403 C409 1.368 . S
C404 C388 1.349 . S
C404 H396 0.950 . S
C404 C402 1.327 . S
C405 C393 1.349 . S
C405 H399 0.950 . S
C405 C406 1.327 . S
C406 H400 0.950 . S
C406 C405 1.327 . S
C406 C410 1.429 . S
C407 C390 1.574 . S
C407 H401 0.949 . S
C407 C411 1.368 . S
C408 C389 1.429 . S
C408 C402 1.429 . S
C408 C409 1.523 . S
C409 C390 1.368 . S
C409 C403 1.368 . S
C409 C408 1.523 . S
C410 C394 1.429 . S
C410 C406 1.429 . S
C410 C411 1.523 . S
C411 C395 1.368 . S
C411 C407 1.368 . S
C411 C410 1.523 . S
H412 C387 0.950 . S
H413 C389 0.950 . S
H414 C390 0.949 . S
H415 C392 0.950 . S
H416 C394 0.950 . S
C417 C418 1.349 . S
C417 C419 1.327 . S
C417 H442 0.950 . S
C418 C417 1.349 . S
C418 C434 1.349 . S
C419 C417 1.327 . S
C419 C438 1.429 . S
C419 H443 0.950 . S
C420 C437 1.574 . S
C420 C439 1.368 . S
C420 H444 0.949 . S
H421 C425 0.949 . S
C422 C423 1.349 . S
C422 C424 1.327 . S
C422 H445 0.950 . S
C423 C422 1.349 . S
C423 C435 1.349 . S
C424 C422 1.327 . S
C424 C440 1.429 . S
C424 H446 0.950 . S
C425 H421 0.949 . S
C425 C433 1.574 . S
C425 C441 1.368 . S
H426 C434 0.950 . S
H427 C432 0.950 . S
H428 C433 0.949 . S
H429 C435 0.950 . S
H430 C436 0.950 . S
H431 C437 0.949 . S
C432 H427 0.950 . S
C432 C434 1.327 . S
C432 C438 1.429 . S
C433 C425 1.574 . S
C433 H428 0.949 . S
C433 C439 1.368 . S
C434 C418 1.349 . S
C434 H426 0.950 . S
C434 C432 1.327 . S
C435 C423 1.349 . S
C435 H429 0.950 . S
C435 C436 1.327 . S
C436 H430 0.950 . S
C436 C435 1.327 . S
C436 C440 1.429 . S
C437 C420 1.574 . S
C437 H431 0.949 . S
C437 C441 1.368 . S
C438 C419 1.429 . S
C438 C432 1.429 . S
C438 C439 1.523 . S
C439 C420 1.368 . S
C439 C433 1.368 . S
C439 C438 1.523 . S
C440 C424 1.429 . S
C440 C436 1.429 . S
C440 C441 1.523 . S
C441 C425 1.368 . S
C441 C437 1.368 . S
C441 C440 1.523 . S
H442 C417 0.950 . S
H443 C419 0.950 . S
H444 C420 0.949 . S
H445 C422 0.950 . S
H446 C424 0.950 . S
C447 C448 1.349 . S
C447 C449 1.327 . S
C447 H472 0.950 . S
C448 C447 1.349 . S
C448 C464 1.349 . S
C449 C447 1.327 . S
C449 C468 1.429 . S
C449 H473 0.950 . S
C450 C467 1.574 . S
C450 C469 1.368 . S
C450 H474 0.949 . S
H451 C455 0.949 . S
C452 C453 1.349 . S
C452 C454 1.327 . S
C452 H475 0.950 . S
C453 C452 1.349 . S
C453 C465 1.349 . S
C454 C452 1.327 . S
C454 C470 1.429 . S
C454 H476 0.950 . S
C455 H451 0.949 . S
C455 C463 1.574 . S
C455 C471 1.368 . S
H456 C464 0.950 . S
H457 C462 0.950 . S
H458 C463 0.949 . S
H459 C465 0.950 . S
H460 C466 0.950 . S
H461 C467 0.949 . S
C462 H457 0.950 . S
C462 C464 1.327 . S
C462 C468 1.429 . S
C463 C455 1.574 . S
C463 H458 0.949 . S
C463 C469 1.368 . S
C464 C448 1.349 . S
C464 H456 0.950 . S
C464 C462 1.327 . S
C465 C453 1.349 . S
C465 H459 0.950 . S
C465 C466 1.327 . S
C466 H460 0.950 . S
C466 C465 1.327 . S
C466 C470 1.429 . S
C467 C450 1.574 . S
C467 H461 0.949 . S
C467 C471 1.368 . S
C468 C449 1.429 . S
C468 C462 1.429 . S
C468 C469 1.523 . S
C469 C450 1.368 . S
C469 C463 1.368 . S
C469 C468 1.523 . S
C470 C454 1.429 . S
C470 C466 1.429 . S
C470 C471 1.523 . S
C471 C455 1.368 . S
C471 C467 1.368 . S
C471 C470 1.523 . S
H472 C447 0.950 . S
H473 C449 0.950 . S
H474 C450 0.949 . S
H475 C452 0.950 . S
H476 C454 0.950 . S
C477 C478 1.349 . S
C477 C479 1.327 . S
C477 H502 0.950 . S
C478 C477 1.349 . S
C478 C494 1.349 . S
C479 C477 1.327 . S
C479 C498 1.429 . S
C479 H503 0.950 . S
C480 C497 1.574 . S
C480 C499 1.368 . S
C480 H504 0.949 . S
H481 C485 0.949 . S
C482 C483 1.349 . S
C482 C484 1.327 . S
C482 H505 0.950 . S
C483 C482 1.349 . S
C483 C495 1.349 . S
C484 C482 1.327 . S
C484 C500 1.429 . S
C484 H506 0.950 . S
C485 H481 0.949 . S
C485 C493 1.574 . S
C485 C501 1.368 . S
H486 C494 0.950 . S
H487 C492 0.950 . S
H488 C493 0.949 . S
H489 C495 0.950 . S
H490 C496 0.950 . S
H491 C497 0.949 . S
C492 H487 0.950 . S
C492 C494 1.327 . S
C492 C498 1.429 . S
C493 C485 1.574 . S
C493 H488 0.949 . S
C493 C499 1.368 . S
C494 C478 1.349 . S
C494 H486 0.950 . S
C494 C492 1.327 . S
C495 C483 1.349 . S
C495 H489 0.950 . S
C495 C496 1.327 . S
C496 H490 0.950 . S
C496 C495 1.327 . S
C496 C500 1.429 . S
C497 C480 1.574 . S
C497 H491 0.949 . S
C497 C501 1.368 . S
C498 C479 1.429 . S
C498 C492 1.429 . S
C498 C499 1.523 . S
C499 C480 1.368 . S
C499 C493 1.368 . S
C499 C498 1.523 . S
C500 C484 1.429 . S
C500 C496 1.429 . S
C500 C501 1.523 . S
C501 C485 1.368 . S
C501 C497 1.368 . S
C501 C500 1.523 . S
H502 C477 0.950 . S
H503 C479 0.950 . S
H504 C480 0.949 . S
H505 C482 0.950 . S
H506 C484 0.950 . S
C507 C508 1.349 . S
C507 C509 1.327 . S
C507 H532 0.950 1_455 S
C508 C507 1.349 . S
C508 C524 1.349 . S
C509 C507 1.327 . S
C509 C528 1.429 . S
C509 H533 0.950 . S
C510 C527 1.574 . S
C510 C529 1.368 . S
C510 H534 0.949 . S
H511 C515 0.949 1_556 S
C512 C513 1.349 . S
C512 C514 1.327 . S
C512 H535 0.950 . S
C513 C512 1.349 . S
C513 C525 1.349 . S
C514 C512 1.327 . S
C514 C530 1.429 . S
C514 H536 0.950 . S
C515 H511 0.949 1_554 S
C515 C523 1.574 . S
C515 C531 1.381 . S
H516 C524 0.950 . S
H517 C522 0.950 . S
H518 C523 0.949 . S
H519 C525 0.950 . S
H520 C526 0.950 . S
H521 C527 0.949 . S
C522 H517 0.950 . S
C522 C524 1.327 . S
C522 C528 1.429 . S
C523 C515 1.574 . S
C523 H518 0.949 . S
C523 C529 1.368 . S
C524 C508 1.349 . S
C524 H516 0.950 . S
C524 C522 1.327 . S
C525 C513 1.349 . S
C525 H519 0.950 . S
C525 C526 1.327 . S
C526 H520 0.950 . S
C526 C525 1.327 . S
C526 C530 1.429 . S
C527 C510 1.574 . S
C527 H521 0.949 . S
C527 C531 1.391 . S
C528 C509 1.429 . S
C528 C522 1.429 . S
C528 C529 1.523 . S
C529 C510 1.368 . S
C529 C523 1.368 . S
C529 C528 1.523 . S
C530 C514 1.429 . S
C530 C526 1.429 . S
C530 C531 1.479 1_556 S
C531 C515 1.381 . S
C531 C527 1.391 . S
C531 C530 1.479 1_554 S
H532 C507 0.950 1_655 S
H533 C509 0.950 . S
H534 C510 0.949 . S
H535 C512 0.950 . S
H536 C514 0.950 . S
C537 C538 1.349 . S
C537 C539 1.327 . S
C537 H562 0.950 . S
C538 C537 1.349 . S
C538 C554 1.349 . S
C539 C537 1.327 . S
C539 C558 1.429 . S
C539 H563 0.950 . S
C540 C557 1.574 . S
C540 C559 1.368 . S
C540 H564 0.949 1_545 S
H541 C545 0.949 . S
C542 C543 1.349 1_565 S
C542 C544 1.328 . S
C542 H565 0.950 . S
C543 C542 1.349 1_545 S
C543 C555 1.349 . S
C544 C542 1.328 . S
C544 C560 1.421 1_565 S
C544 H566 0.958 . S
C545 H541 0.949 . S
C545 C553 1.574 . S
C545 C561 1.368 . S
H546 C554 0.950 1_565 S
H547 C552 0.950 1_565 S
H548 C553 0.949 . S
H549 C555 0.950 . S
H550 C556 0.950 . S
H551 C557 0.945 1_565 S
C552 H547 0.950 1_545 S
C552 C554 1.327 . S
C552 C558 1.429 . S
C553 C545 1.574 . S
C553 H548 0.949 . S
C553 C559 1.368 . S
C554 C538 1.349 . S
C554 H546 0.950 1_545 S
C554 C552 1.327 . S
C555 C543 1.349 . S
C555 H549 0.950 . S
C555 C556 1.327 . S
C556 H550 0.950 . S
C556 C555 1.327 . S
C556 C560 1.429 . S
C557 C540 1.574 . S
C557 H551 0.945 1_545 S
C557 C561 1.373 . S
C558 C539 1.429 . S
C558 C552 1.429 . S
C558 C559 1.523 . S
C559 C540 1.368 . S
C559 C553 1.368 . S
C559 C558 1.523 . S
C560 C544 1.421 1_545 S
C560 C556 1.429 . S
C560 C561 1.523 . S
C561 C545 1.368 . S
C561 C557 1.373 . S
C561 C560 1.523 . S
H562 C537 0.950 . S
H563 C539 0.950 . S
H564 C540 0.949 1_565 S
H565 C542 0.950 . S
H566 C544 0.958 . S
C567 C568 1.349 . S
C567 C569 1.327 . S
C567 H592 0.950 . S
C568 C567 1.349 . S
C568 C584 1.349 . S
C569 C567 1.327 . S
C569 C588 1.429 . S
C569 H593 0.950 . S
C570 C587 1.574 . S
C570 C589 1.368 . S
C570 H594 0.949 . S
H571 C575 0.949 . S
C572 C573 1.349 . S
C572 C574 1.327 . S
C572 H595 0.950 . S
C573 C572 1.349 . S
C573 C585 1.349 . S
C574 C572 1.327 . S
C574 C590 1.429 . S
C574 H596 0.950 . S
C575 H571 0.949 . S
C575 C583 1.574 . S
C575 C591 1.368 . S
H576 C584 0.950 . S
H577 C582 0.950 . S
H578 C583 0.949 . S
H579 C585 0.950 . S
H580 C586 0.950 . S
H581 C587 0.949 . S
C582 H577 0.950 . S
C582 C584 1.327 . S
C582 C588 1.429 . S
C583 C575 1.574 . S
C583 H578 0.949 . S
C583 C589 1.368 . S
C584 C568 1.349 . S
C584 H576 0.950 . S
C584 C582 1.327 . S
C585 C573 1.349 . S
C585 H579 0.950 . S
C585 C586 1.327 . S
C586 H580 0.950 . S
C586 C585 1.327 . S
C586 C590 1.429 . S
C587 C570 1.574 . S
C587 H581 0.949 . S
C587 C591 1.368 . S
C588 C569 1.429 . S
C588 C582 1.429 . S
C588 C589 1.523 . S
C589 C570 1.368 . S
C589 C583 1.368 . S
C589 C588 1.523 . S
C590 C574 1.429 . S
C590 C586 1.429 . S
C590 C591 1.523 . S
C591 C575 1.368 . S
C591 C587 1.368 . S
C591 C590 1.523 . S
H592 C567 0.950 . S
H593 C569 0.950 . S
H594 C570 0.949 . S
H595 C572 0.950 . S
H596 C574 0.950 . S
C597 C598 1.354 . S
C597 C599 1.326 . S
C597 H622 0.944 1_545 S
C598 C597 1.354 . S
C598 C614 1.349 . S
C599 C597 1.326 . S
C599 C618 1.442 . S
C599 H623 0.938 1_545 S
C600 C617 1.574 . S
C600 C619 1.368 . S
C600 H624 0.949 . S
H601 C605 0.949 1_565 S
C602 C603 1.349 . S
C602 C604 1.327 . S
C602 H625 0.950 . S
C603 C602 1.349 . S
C603 C615 1.349 . S
C604 C602 1.327 . S
C604 C620 1.429 . S
C604 H626 0.950 . S
C605 H601 0.949 1_545 S
C605 C613 1.574 . S
C605 C621 1.368 . S
H606 C614 0.950 . S
H607 C612 0.950 . S
H608 C613 0.949 1_565 S
H609 C615 0.950 1_565 S
H610 C616 0.950 1_565 S
H611 C617 0.949 . S
C612 H607 0.950 . S
C612 C614 1.327 . S
C612 C618 1.429 . S
C613 C605 1.574 . S
C613 H608 0.949 1_545 S
C613 C619 1.368 . S
C614 C598 1.349 . S
C614 H606 0.950 . S
C614 C612 1.327 . S
C615 C603 1.349 . S
C615 H609 0.950 1_545 S
C615 C616 1.327 . S
C616 H610 0.950 1_545 S
C616 C615 1.327 . S
C616 C620 1.429 . S
C617 C600 1.574 . S
C617 H611 0.949 . S
C617 C621 1.368 . S
C618 C599 1.442 . S
C618 C612 1.429 . S
C618 C619 1.523 . S
C619 C600 1.368 . S
C619 C613 1.368 . S
C619 C618 1.523 . S
C620 C604 1.429 . S
C620 C616 1.429 . S
C620 C621 1.523 . S
C621 C605 1.368 . S
C621 C617 1.368 . S
C621 C620 1.523 . S
H622 C597 0.944 1_565 S
H623 C599 0.938 1_565 S
H624 C600 0.949 . S
H625 C602 0.950 . S
H626 C604 0.950 . S
C627 C628 1.349 . S
C627 C629 1.327 . S
C627 H652 0.950 . S
C628 C627 1.349 . S
C628 C644 1.349 . S
C629 C627 1.327 . S
C629 C648 1.429 . S
C629 H653 0.950 . S
C630 C647 1.574 . S
C630 C649 1.368 . S
C630 H654 0.949 . S
H631 C635 0.949 . S
C632 C633 1.349 . S
C632 C634 1.327 . S
C632 H655 0.950 . S
C633 C632 1.349 . S
C633 C645 1.349 . S
C634 C632 1.327 . S
C634 C650 1.429 . S
C634 H656 0.950 . S
C635 H631 0.949 . S
C635 C643 1.574 . S
C635 C651 1.368 . S
H636 C644 0.950 . S
H637 C642 0.950 . S
H638 C643 0.949 . S
H639 C645 0.950 . S
H640 C646 0.950 . S
H641 C647 0.950 . S
C642 H637 0.950 . S
C642 C644 1.327 . S
C642 C648 1.429 . S
C643 C635 1.574 . S
C643 H638 0.949 . S
C643 C649 1.368 . S
C644 C628 1.349 . S
C644 H636 0.950 . S
C644 C642 1.327 . S
C645 C633 1.349 . S
C645 H639 0.950 . S
C645 C646 1.327 . S
C646 H640 0.950 . S
C646 C645 1.327 . S
C646 C650 1.429 . S
C647 C630 1.574 . S
C647 H641 0.950 . S
C647 C651 1.368 . S
C648 C629 1.429 . S
C648 C642 1.429 . S
C648 C649 1.523 . S
C649 C630 1.368 . S
C649 C643 1.368 . S
C649 C648 1.523 . S
C650 C634 1.429 . S
C650 C646 1.429 . S
C650 C651 1.523 1_554 S
C651 C635 1.368 . S
C651 C647 1.368 . S
C651 C650 1.523 1_556 S
H652 C627 0.950 . S
H653 C629 0.950 . S
H654 C630 0.949 . S
H655 C632 0.950 . S
H656 C634 0.950 . S
C657 C658 1.349 . S
C657 C659 1.327 . S
C657 H682 0.950 . S
C658 C657 1.349 . S
C658 C674 1.349 . S
C659 C657 1.327 . S
C659 C678 1.429 . S
C659 H683 0.950 . S
C660 C677 1.574 . S
C660 C679 1.368 . S
C660 H684 0.949 . S
H661 C665 0.949 . S
C662 C663 1.349 . S
C662 C664 1.327 . S
C662 H685 0.950 . S
C663 C662 1.349 . S
C663 C675 1.349 . S
C664 C662 1.327 . S
C664 C680 1.429 . S
C664 H686 0.950 . S
C665 H661 0.949 . S
C665 C673 1.574 . S
C665 C681 1.368 . S
H666 C674 0.950 . S
H667 C672 0.950 . S
H668 C673 0.949 . S
H669 C675 0.950 . S
H670 C676 0.950 . S
H671 C677 0.949 . S
C672 H667 0.950 . S
C672 C674 1.327 . S
C672 C678 1.429 . S
C673 C665 1.574 . S
C673 H668 0.949 . S
C673 C679 1.368 . S
C674 C658 1.349 . S
C674 H666 0.950 . S
C674 C672 1.327 . S
C675 C663 1.349 . S
C675 H669 0.950 . S
C675 C676 1.327 . S
C676 H670 0.950 . S
C676 C675 1.327 . S
C676 C680 1.429 . S
C677 C660 1.574 . S
C677 H671 0.949 . S
C677 C681 1.368 . S
C678 C659 1.429 . S
C678 C672 1.429 . S
C678 C679 1.523 . S
C679 C660 1.368 . S
C679 C673 1.368 . S
C679 C678 1.523 . S
C680 C664 1.429 . S
C680 C676 1.429 . S
C680 C681 1.523 . S
C681 C665 1.368 . S
C681 C677 1.368 . S
C681 C680 1.523 . S
H682 C657 0.950 . S
H683 C659 0.950 . S
H684 C660 0.949 . S
H685 C662 0.950 . S
H686 C664 0.950 . S
C148 C20 1.193 . S
C153 C138 1.154 . S
C178 C41 1.193 . S
C183 C116 1.188 . S
C208 C64 1.217 . S
C213 C129 1.212 . S
C238 C19 1.144 . S
C243 C142 1.179 . S
C273 C112 1.177 . S
C268 C44 1.244 . S
C303 C125 1.172 . S
C298 C67 1.239 . S
C328 C43 1.112 . S
C333 C90 1.150 . S
C358 C66 1.107 . S
C363 C103 1.144 . S
C388 C21 1.234 . S
C393 C73 1.167 . S
C423 C86 1.171 . S
C418 C42 1.217 . S
C453 C99 1.171 . S
C448 C65 1.217 . S
C478 C18 1.165 . S
C483 C77 1.160 . S
C513 C104 1.517 . S
C508 C17 1.520 . S
C538 C39 1.531 . S
C543 C78 1.531 . S
C568 C62 1.543 . S
C573 C91 1.542 . S
C603 C130 1.510 . S
C598 C40 1.516 . S
C633 C143 1.539 . S
C628 C63 1.545 . S
C658 C16 1.521 . S
C663 C117 1.517 . S
