# Generated by pormake.
# Topology hwx, (6,3)-cn, num edge types: 1
# Building blocks:
#     Node 0, Type 0, BuildingBlock: IZENUY_clean_sbu_0, # of connection points: 6
#     Node 1, Type 0, BuildingBlock: IZENUY_clean_sbu_0, # of connection points: 6
#     Node 2, Type 0, BuildingBlock: IZENUY_clean_sbu_0, # of connection points: 6
#     Node 3, Type 0, BuildingBlock: IZENUY_clean_sbu_0, # of connection points: 6
#     Node 4, Type 1, BuildingBlock: ESEHIV_clean_linker_0, # of connection points: 3
#     Node 5, Type 1, BuildingBlock: ESEHIV_clean_linker_0, # of connection points: 3
#     Node 6, Type 1, BuildingBlock: ESEHIV_clean_linker_0, # of connection points: 3
#     Node 7, Type 1, BuildingBlock: ESEHIV_clean_linker_0, # of connection points: 3
#     Node 8, Type 1, BuildingBlock: ESEHIV_clean_linker_0, # of connection points: 3
#     Node 9, Type 1, BuildingBlock: ESEHIV_clean_linker_0, # of connection points: 3
#     Node 10, Type 1, BuildingBlock: ESEHIV_clean_linker_0, # of connection points: 3
#     Node 11, Type 1, BuildingBlock: ESEHIV_clean_linker_0, # of connection points: 3
#     Edge 12, Type (0, 1), BuildingBlock: UVAHIK_clean_linker_0, # of connection points: 2
#     Edge 13, Type (0, 1), BuildingBlock: UVAHIK_clean_linker_0, # of connection points: 2
#     Edge 14, Type (0, 1), BuildingBlock: UVAHIK_clean_linker_0, # of connection points: 2
#     Edge 15, Type (0, 1), BuildingBlock: UVAHIK_clean_linker_0, # of connection points: 2
#     Edge 16, Type (0, 1), BuildingBlock: UVAHIK_clean_linker_0, # of connection points: 2
#     Edge 17, Type (0, 1), BuildingBlock: UVAHIK_clean_linker_0, # of connection points: 2
#     Edge 18, Type (0, 1), BuildingBlock: UVAHIK_clean_linker_0, # of connection points: 2
#     Edge 19, Type (0, 1), BuildingBlock: UVAHIK_clean_linker_0, # of connection points: 2
#     Edge 20, Type (0, 1), BuildingBlock: UVAHIK_clean_linker_0, # of connection points: 2
#     Edge 21, Type (0, 1), BuildingBlock: UVAHIK_clean_linker_0, # of connection points: 2
#     Edge 22, Type (0, 1), BuildingBlock: UVAHIK_clean_linker_0, # of connection points: 2
#     Edge 23, Type (0, 1), BuildingBlock: UVAHIK_clean_linker_0, # of connection points: 2
#     Edge 24, Type (0, 1), BuildingBlock: UVAHIK_clean_linker_0, # of connection points: 2
#     Edge 25, Type (0, 1), BuildingBlock: UVAHIK_clean_linker_0, # of connection points: 2
#     Edge 26, Type (0, 1), BuildingBlock: UVAHIK_clean_linker_0, # of connection points: 2
#     Edge 27, Type (0, 1), BuildingBlock: UVAHIK_clean_linker_0, # of connection points: 2
#     Edge 28, Type (0, 1), BuildingBlock: UVAHIK_clean_linker_0, # of connection points: 2
#     Edge 29, Type (0, 1), BuildingBlock: UVAHIK_clean_linker_0, # of connection points: 2
#     Edge 30, Type (0, 1), BuildingBlock: UVAHIK_clean_linker_0, # of connection points: 2
#     Edge 31, Type (0, 1), BuildingBlock: UVAHIK_clean_linker_0, # of connection points: 2
#     Edge 32, Type (0, 1), BuildingBlock: UVAHIK_clean_linker_0, # of connection points: 2
#     Edge 33, Type (0, 1), BuildingBlock: UVAHIK_clean_linker_0, # of connection points: 2
#     Edge 34, Type (0, 1), BuildingBlock: UVAHIK_clean_linker_0, # of connection points: 2
#     Edge 35, Type (0, 1), BuildingBlock: UVAHIK_clean_linker_0, # of connection points: 2
# Relax obj value: 0.051
# Max RMSD: 0.076
# Mean RMSD: 0.067
data_MOF--net-hwx--node1-IZENUY_clean_sbu_0--node2-ESEHIV_clean_linker_0--edge1-UVAHIK_clean_linker_0
_symmetry_space_group_name_H-M    P1
_symmetry_Int_Tables_number       1
_symmetry_cell_setting            triclinic
loop_
_symmetry_equiv_pos_as_xyz
'x, y, z'
_cell_length_a     58.345786
_cell_length_b     58.175817
_cell_length_c     28.261734
_cell_angle_alpha  89.929766
_cell_angle_beta   90.063076
_cell_angle_gamma 90.007146
loop_
_atom_site_label
_atom_site_type_symbol
_atom_site_fract_x
_atom_site_fract_y
_atom_site_fract_z
_atom_type_partial_charge
Fe0 Fe 0.23355 0.20623 0.04915 0.0
Fe1 Fe 0.23537 0.20636 0.94054 0.0
O2 O 0.22843 0.19233 0.99438 0.0
Fe3 Fe 0.2163 0.16435 0.99335 0.0
O4 O 0.19894 0.16829 0.04684 0.0
O5 O 0.20352 0.20467 0.06504 0.0
O6 O 0.22761 0.23521 0.0268 0.0
C7 C 0.2169 0.24209 0.99047 0.0
C8 C 0.24636 0.15992 0.06704 0.0
O9 O 0.21626 0.23015 0.95328 0.0
C10 C 0.24955 0.16277 0.92026 0.0
O11 O 0.26394 0.20891 0.03711 0.0
O12 O 0.26017 0.22179 0.96434 0.0
O13 O 0.23995 0.15258 0.02717 0.0
O14 O 0.24043 0.17967 0.08142 0.0
C15 C 0.19321 0.18416 0.91983 0.0
O16 O 0.25503 0.18364 0.92401 0.0
O17 O 0.23152 0.15517 0.93974 0.0
C18 C 0.27233 0.21815 0.00067 0.0
O19 O 0.21184 0.19338 0.90684 0.0
O20 O 0.19173 0.17422 0.9594 0.0
C21 C 0.19208 0.18635 0.06733 0.0
Fe22 Fe 0.26082 0.70595 0.55799 0.0
Fe23 Fe 0.28096 0.6649 0.50378 0.0
O24 O 0.26858 0.69271 0.50392 0.0
Fe25 Fe 0.26406 0.70733 0.44971 0.0
O26 O 0.26825 0.73613 0.47413 0.0
O27 O 0.27972 0.73031 0.54708 0.0
O28 O 0.28421 0.69304 0.59221 0.0
C29 C 0.30295 0.6839 0.57976 0.0
C30 C 0.22434 0.71745 0.49604 0.0
O31 O 0.30491 0.67434 0.53994 0.0
C32 C 0.25279 0.66122 0.42719 0.0
O33 O 0.2414 0.6827 0.57299 0.0
O34 O 0.2651 0.65462 0.5556 0.0
O35 O 0.23342 0.70876 0.45971 0.0
O36 O 0.23593 0.72101 0.53326 0.0
C37 C 0.30618 0.68875 0.43352 0.0
O38 O 0.25785 0.65348 0.46757 0.0
O39 O 0.25895 0.68122 0.41497 0.0
C40 C 0.24694 0.66178 0.57515 0.0
O41 O 0.29911 0.67019 0.45189 0.0
O42 O 0.29447 0.70691 0.43643 0.0
C43 C 0.2785 0.743 0.51092 0.0
Fe44 Fe 0.76239 0.80503 0.94319 0.0
Fe45 Fe 0.76473 0.80373 0.05169 0.0
O46 O 0.76918 0.81851 0.99765 0.0
Fe47 Fe 0.78044 0.84685 0.99826 0.0
O48 O 0.76489 0.85647 0.94528 0.0
O49 O 0.74229 0.82756 0.92769 0.0
O50 O 0.73785 0.78902 0.96655 0.0
C51 C 0.72585 0.79202 0.0033 0.0
C52 C 0.80409 0.8283 0.924 0.0
O53 O 0.73431 0.8008 0.04018 0.0
C54 C 0.80565 0.82428 0.07056 0.0
O55 O 0.78187 0.78131 0.95456 0.0
O56 O 0.77079 0.77515 0.02777 0.0
O57 O 0.80515 0.83823 0.96362 0.0
O58 O 0.78573 0.81877 0.91023 0.0
C59 C 0.75102 0.84938 0.07301 0.0
O60 O 0.79485 0.80562 0.06667 0.0
O61 O 0.79812 0.84249 0.05144 0.0
C62 C 0.78137 0.7688 0.99101 0.0
O63 O 0.75785 0.82966 0.08578 0.0
O64 O 0.75646 0.85738 0.03303 0.0
C65 C 0.74712 0.84863 0.92524 0.0
Fe66 Fe 0.71693 0.34694 0.50481 0.0
Fe67 Fe 0.73578 0.3051 0.55878 0.0
O68 O 0.72817 0.31861 0.50474 0.0
Fe69 Fe 0.73179 0.30384 0.45048 0.0
O70 O 0.73815 0.32975 0.41582 0.0
O71 O 0.74034 0.35745 0.46834 0.0
O72 O 0.7334 0.35652 0.55657 0.0
C73 C 0.75145 0.34865 0.57551 0.0
C74 C 0.69049 0.32437 0.43465 0.0
O75 O 0.75621 0.32756 0.57281 0.0
C76 C 0.71591 0.269 0.5123 0.0
O77 O 0.69278 0.33836 0.54126 0.0
O78 O 0.71311 0.319 0.59335 0.0
O79 O 0.70144 0.30574 0.43745 0.0
O80 O 0.69837 0.34258 0.45303 0.0
C81 C 0.77136 0.29206 0.49646 0.0
O82 O 0.716 0.28147 0.54879 0.0
O83 O 0.72606 0.2753 0.47496 0.0
C84 C 0.6946 0.32872 0.58111 0.0
O85 O 0.75983 0.28898 0.53384 0.0
O86 O 0.76239 0.30087 0.46005 0.0
C87 C 0.74519 0.34946 0.42809 0.0
H88 H 0.17531 0.55104 0.99262 0.0
H89 H 0.16612 0.48576 0.92385 0.0
H90 H 0.17871 0.48847 0.07346 0.0
C91 C 0.17386 0.5325 0.99457 0.0
C92 C 0.17688 0.52143 0.03841 0.0
C93 C 0.1703 0.51985 0.95285 0.0
C94 C 0.16866 0.49577 0.95574 0.0
C95 C 0.17168 0.4844 0.99914 0.0
C96 C 0.1757 0.49732 0.04027 0.0
H97 H 0.93503 0.83736 0.50706 0.0
H98 H 0.99221 0.81348 0.4252 0.0
H99 H -0.0012 0.82041 0.57593 0.0
C100 C 0.95285 0.83218 0.50528 0.0
C101 C 0.96574 0.82981 0.54712 0.0
C102 C 0.9623 0.82631 0.46126 0.0
C103 C 0.98488 0.81819 0.45908 0.0
C104 C 0.99813 0.81624 0.50026 0.0
C105 C 0.98861 0.8223 0.54407 0.0
H106 H 0.82249 0.45843 0.99363 0.0
H107 H 0.81504 0.52165 0.07115 0.0
H108 H 0.82698 0.52325 0.9212 0.0
C109 C 0.82241 0.47704 0.99466 0.0
C110 C 0.82504 0.4894 0.95228 0.0
C111 C 0.81872 0.4884 0.03793 0.0
C112 C 0.81834 0.51257 0.0384 0.0
C113 C 0.82161 0.52522 0.99653 0.0
C114 C 0.82504 0.51353 0.95371 0.0
H115 H 0.06156 0.17345 0.48879 0.0
H116 H 0.00385 0.19614 0.57156 0.0
H117 H 0.00159 0.19985 0.41959 0.0
C118 C 0.04429 0.18024 0.49099 0.0
C119 C 0.03268 0.186 0.4492 0.0
C120 C 0.03429 0.18422 0.53549 0.0
C121 C 0.01176 0.19274 0.5376 0.0
C122 C -8e-05 0.19838 0.49583 0.0
C123 C 0.01058 0.19525 0.45184 0.0
H124 H 0.67514 0.95878 0.50592 0.0
H125 H 0.67091 0.02338 0.57879 0.0
H126 H 0.6818 0.02222 0.42849 0.0
C127 C 0.67515 0.97739 0.50496 0.0
C128 C 0.67851 0.98886 0.46164 0.0
C129 C 0.67278 0.98964 0.54748 0.0
C130 C 0.67266 0.01376 0.54617 0.0
C131 C 0.67572 0.02558 0.50331 0.0
C132 C 0.67877 0.01305 0.46128 0.0
H133 H 0.56175 0.33845 0.01226 0.0
H134 H 0.50162 0.31057 0.07818 0.0
H135 H 0.50521 0.31518 0.92647 0.0
C136 C 0.54463 0.33135 0.00915 0.0
C137 C 0.53512 0.32744 0.96412 0.0
C138 C 0.53274 0.32516 0.05029 0.0
C139 C 0.51084 0.31552 0.04646 0.0
C140 C 0.50065 0.31245 0.00193 0.0
C141 C 0.51277 0.31853 0.96083 0.0
H142 H 0.32127 0.05182 0.49373 0.0
H143 H 0.32778 0.98706 0.42167 0.0
H144 H 0.32581 0.9893 0.5737 0.0
C145 C 0.32383 0.03338 0.49462 0.0
C146 C 0.32461 0.02214 0.5386 0.0
C147 C 0.32466 0.02093 0.45205 0.0
C148 C 0.32665 0.99684 0.45416 0.0
C149 C 0.32671 0.98518 0.49783 0.0
C150 C 0.32602 0.99805 0.53986 0.0
H151 H 0.43521 0.67512 0.0117 0.0
H152 H 0.49235 0.69706 0.92626 0.0
H153 H 0.49549 0.70253 0.07789 0.0
C154 C 0.45243 0.68195 0.00867 0.0
C155 C 0.46427 0.68824 0.04981 0.0
C156 C 0.46215 0.68546 0.96372 0.0
C157 C 0.48464 0.69402 0.96058 0.0
C158 C 0.4967 0.70015 0.00172 0.0
C159 C 0.48632 0.69752 0.04613 0.0
C160 C 0.16379 0.1637 0.11474 0.0
C161 C 0.17209 0.18513 0.09933 0.0
C162 C 0.1461 0.16248 0.14783 0.0
C163 C 0.0983 0.194 0.20059 0.0
H164 H 0.11172 0.15797 0.31275 0.0
C165 C 0.04645 0.20298 0.37323 0.0
C166 C 0.04446 0.18384 0.40318 0.0
C167 C 0.05974 0.20175 0.33224 0.0
C168 C 0.10736 0.16771 0.28134 0.0
H169 H 0.16764 0.22205 0.1049 0.0
H170 H 0.13641 0.21984 0.16239 0.0
H171 H 0.13877 0.15833 0.24744 0.0
H172 H 0.05363 0.14811 0.41292 0.0
H173 H 0.07607 0.14554 0.3403 0.0
H174 H 0.06677 0.20322 0.23409 0.0
C175 C 0.14376 0.20405 0.14895 0.0
C176 C 0.12298 0.16799 0.24401 0.0
C177 C 0.16171 0.2053 0.11633 0.0
C178 C 0.05513 0.16315 0.39049 0.0
C179 C 0.0681 0.16178 0.34909 0.0
C180 C 0.08247 0.19345 0.23768 0.0
C181 C 0.13611 0.18263 0.16562 0.0
C182 C 0.11873 0.18134 0.20358 0.0
C183 C 0.07105 0.18123 0.32001 0.0
C184 C 0.08694 0.18053 0.27884 0.0
H185 H 0.1714 0.14784 0.10231 0.0
H186 H 0.14036 0.14576 0.15994 0.0
H187 H 0.09458 0.20428 0.16953 0.0
H188 H 0.03855 0.2192 0.38262 0.0
H189 H 0.06185 0.21718 0.31126 0.0
C190 C 0.23878 0.6222 0.60519 0.0
C191 C 0.23382 0.64584 0.60579 0.0
C192 C 0.22823 0.60729 0.63712 0.0
C193 C 0.18065 0.60127 0.72321 0.0
H194 H 0.22279 0.55897 0.784 0.0
C195 C 0.16186 0.55368 0.89975 0.0
C196 C 0.17133 0.53164 0.90609 0.0
C197 C 0.16623 0.56624 0.85848 0.0
C198 C 0.21063 0.57033 0.76686 0.0
H199 H 0.21297 0.67216 0.63892 0.0
H200 H 0.19478 0.64608 0.69536 0.0
H201 H 0.23636 0.58353 0.72061 0.0
H202 H 0.19177 0.50508 0.87251 0.0
H203 H 0.1986 0.52655 0.8002 0.0
H204 H 0.15501 0.58819 0.77048 0.0
C205 C 0.20672 0.63909 0.66983 0.0
C206 C 0.21845 0.58447 0.73046 0.0
C207 C 0.21723 0.65406 0.63765 0.0
C208 C 0.18401 0.5219 0.86888 0.0
C209 C 0.18824 0.53438 0.8276 0.0
C210 C 0.17278 0.58703 0.75978 0.0
C211 C 0.21253 0.61563 0.67065 0.0
C212 C 0.2036 0.60014 0.70822 0.0
C213 C 0.18009 0.55699 0.82257 0.0
C214 C 0.18773 0.57142 0.78208 0.0
H215 H 0.2512 0.61522 0.58064 0.0
H216 H 0.23271 0.58923 0.63612 0.0
H217 H 0.16876 0.61306 0.70654 0.0
H218 H 0.15171 0.56156 0.92739 0.0
H219 H 0.1597 0.58362 0.85581 0.0
C220 C 0.83184 0.84704 0.12264 0.0
C221 C 0.82503 0.82567 0.10414 0.0
C222 C 0.84854 0.84822 0.15798 0.0
C223 C 0.89634 0.81762 0.21316 0.0
H224 H 0.87861 0.85022 0.32699 0.0
C225 C 0.94678 0.80844 0.38752 0.0
C226 C 0.94817 0.82748 0.41785 0.0
C227 C 0.93296 0.80921 0.3472 0.0
C228 C 0.8841 0.84142 0.29523 0.0
H229 H 0.83117 0.78891 0.10651 0.0
H230 H 0.86071 0.79108 0.16782 0.0
H231 H 0.85309 0.8501 0.25881 0.0
H232 H 0.93676 0.86241 0.42949 0.0
H233 H 0.91318 0.86416 0.35817 0.0
H234 H 0.9275 0.80918 0.24902 0.0
C235 C 0.85294 0.80684 0.15512 0.0
C236 C 0.8694 0.84129 0.25625 0.0
C237 C 0.83599 0.80561 0.12025 0.0
C238 C 0.93577 0.84744 0.40682 0.0
C239 C 0.9222 0.84835 0.36609 0.0
C240 C 0.91124 0.81802 0.25191 0.0
C241 C 0.85901 0.82812 0.17496 0.0
C242 C 0.87528 0.8292 0.21506 0.0
C243 C 0.92045 0.82917 0.33594 0.0
C244 C 0.90519 0.82971 0.29369 0.0
H245 H 0.82374 0.86282 0.11102 0.0
H246 H 0.85308 0.86484 0.17248 0.0
H247 H 0.90133 0.80834 0.18158 0.0
H248 H 0.95598 0.79274 0.39562 0.0
H249 H 0.93171 0.79394 0.32549 0.0
C250 C 0.75979 0.38717 0.61104 0.0
C251 C 0.76544 0.3638 0.60622 0.0
C252 C 0.77166 0.40112 0.64291 0.0
C253 C 0.80426 0.39717 0.75345 0.0
H254 H 0.81589 0.46181 0.72985 0.0
C255 C 0.83767 0.45634 0.90121 0.0
C256 C 0.8254 0.47699 0.90632 0.0
C257 C 0.83534 0.44308 0.86024 0.0
C258 C 0.81274 0.44379 0.73698 0.0
H259 H 0.78878 0.33704 0.62965 0.0
H260 H 0.80955 0.36147 0.68523 0.0
H261 H 0.80265 0.43724 0.66537 0.0
H262 H 0.80168 0.50027 0.87161 0.0
H263 H 0.79766 0.47726 0.80036 0.0
H264 H 0.8136 0.40379 0.82531 0.0
C265 C 0.7957 0.36889 0.66473 0.0
C266 C 0.80515 0.42972 0.70007 0.0
C267 C 0.78385 0.35492 0.63273 0.0
C268 C 0.81164 0.48463 0.86859 0.0
C269 C 0.80933 0.4714 0.82766 0.0
C270 C 0.81184 0.41122 0.79033 0.0
C271 C 0.78948 0.39206 0.67075 0.0
C272 C 0.80032 0.40637 0.70815 0.0
C273 C 0.8207 0.4502 0.82347 0.0
C274 C 0.81566 0.4348 0.78281 0.0
H275 H 0.74578 0.39462 0.59106 0.0
H276 H 0.76624 0.41881 0.64703 0.0
H277 H 0.80042 0.37933 0.76106 0.0
H278 H 0.84867 0.45016 0.92937 0.0
H279 H 0.84462 0.42701 0.85777 0.0
C280 C 0.65942 0.30564 0.38695 0.0
C281 C 0.67012 0.32573 0.40358 0.0
C282 C 0.64138 0.30702 0.35448 0.0
C283 C 0.62111 0.34334 0.25915 0.0
H284 H 0.56499 0.30784 0.26695 0.0
C285 C 0.55435 0.3481 0.11033 0.0
C286 C 0.54404 0.32732 0.09691 0.0
C287 C 0.56691 0.34949 0.15231 0.0
C288 C 0.58066 0.31771 0.26398 0.0
H289 H 0.66973 0.36303 0.40045 0.0
H290 H 0.6385 0.36532 0.34324 0.0
H291 H 0.59239 0.30677 0.3324 0.0
H292 H 0.53828 0.29186 0.11686 0.0
H293 H 0.56085 0.29394 0.18932 0.0
H294 H 0.61024 0.35347 0.19017 0.0
C295 C 0.6441 0.34856 0.35539 0.0
C296 C 0.59626 0.31715 0.30157 0.0
C297 C 0.66191 0.34722 0.38826 0.0
C298 C 0.54592 0.30814 0.12677 0.0
C299 C 0.55878 0.3094 0.16839 0.0
C300 C 0.60572 0.34366 0.22136 0.0
C301 C 0.63391 0.32848 0.33766 0.0
C302 C 0.61667 0.32988 0.29934 0.0
C303 C 0.56978 0.33 0.18132 0.0
C304 C 0.58535 0.33073 0.22308 0.0
H305 H 0.66526 0.28884 0.39831 0.0
H306 H 0.63387 0.29127 0.34112 0.0
H307 H 0.63689 0.35305 0.25624 0.0
H308 H 0.55292 0.36318 0.088 0.0
H309 H 0.57465 0.36579 0.16163 0.0
C310 C 0.25605 0.1246 0.88173 0.0
C311 C 0.26252 0.14769 0.88766 0.0
C312 C 0.26698 0.11078 0.84832 0.0
C313 C 0.29846 0.11512 0.73653 0.0
H314 H 0.30939 0.05013 0.75734 0.0
C315 C 0.33363 0.05661 0.5888 0.0
C316 C 0.32211 0.03557 0.583 0.0
C317 C 0.32998 0.07001 0.62911 0.0
C318 C 0.30636 0.06824 0.75095 0.0
H319 H 0.28631 0.17408 0.86441 0.0
H320 H 0.30546 0.14985 0.80614 0.0
H321 H 0.29676 0.07421 0.82299 0.0
H322 H 0.29786 0.01204 0.61525 0.0
H323 H 0.29152 0.03535 0.68545 0.0
H324 H 0.30749 0.10908 0.66429 0.0
C325 C 0.29168 0.14257 0.82698 0.0
C326 C 0.29914 0.08202 0.78854 0.0
C327 C 0.28077 0.15641 0.86053 0.0
C328 C 0.3073 0.02797 0.61896 0.0
C329 C 0.30367 0.04135 0.65924 0.0
C330 C 0.30568 0.10133 0.69896 0.0
C331 C 0.28467 0.1197 0.82002 0.0
C332 C 0.29469 0.10554 0.78155 0.0
C333 C 0.31473 0.06266 0.66452 0.0
C334 C 0.30931 0.07765 0.70553 0.0
H335 H 0.24213 0.11728 0.90212 0.0
H336 H 0.26097 0.09332 0.8435 0.0
H337 H 0.29489 0.13309 0.72978 0.0
H338 H 0.34537 0.06279 0.56197 0.0
H339 H 0.33899 0.08621 0.63242 0.0
C340 C 0.33616 0.70856 0.38459 0.0
C341 C 0.32644 0.68815 0.40217 0.0
C342 C 0.35412 0.70771 0.3519 0.0
C343 C 0.37532 0.67159 0.25765 0.0
H344 H 0.43086 0.70803 0.26451 0.0
C345 C 0.44255 0.6659 0.11051 0.0
C346 C 0.4528 0.68656 0.09622 0.0
C347 C 0.42983 0.66493 0.15227 0.0
C348 C 0.41534 0.69791 0.26179 0.0
H349 H 0.32852 0.65087 0.4005 0.0
H350 H 0.35953 0.64951 0.34296 0.0
H351 H 0.40335 0.70923 0.32967 0.0
H352 H 0.45827 0.72229 0.11428 0.0
H353 H 0.43535 0.72095 0.18627 0.0
H354 H 0.38642 0.66103 0.18923 0.0
C355 C 0.35325 0.6661 0.35453 0.0
C356 C 0.39968 0.69856 0.2992 0.0
C357 C 0.33555 0.66693 0.38758 0.0
C358 C 0.45067 0.7061 0.12492 0.0
C359 C 0.43761 0.70526 0.16627 0.0
C360 C 0.39074 0.6712 0.22002 0.0
C361 C 0.36244 0.68646 0.33585 0.0
C362 C 0.37953 0.68541 0.29735 0.0
C363 C 0.42668 0.68475 0.18007 0.0
C364 C 0.41094 0.68439 0.22148 0.0
H365 H 0.32961 0.72517 0.39537 0.0
H366 H 0.36089 0.72365 0.33778 0.0
H367 H 0.35972 0.66156 0.25508 0.0
H368 H 0.44418 0.65057 0.08905 0.0
H369 H 0.42217 0.64869 0.16232 0.0
C370 C 0.73934 0.88713 0.88879 0.0
C371 C 0.73348 0.86382 0.89389 0.0
C372 C 0.72765 0.90111 0.85663 0.0
C373 C 0.69492 0.8973 0.74616 0.0
H374 H 0.6834 0.96194 0.76957 0.0
C375 C 0.66066 0.95643 0.59885 0.0
C376 C 0.67282 0.97713 0.59339 0.0
C377 C 0.66329 0.94315 0.63978 0.0
C378 C 0.68653 0.94392 0.76249 0.0
H379 H 0.70997 0.8372 0.87057 0.0
H380 H 0.68951 0.86169 0.81453 0.0
H381 H 0.69685 0.93739 0.83399 0.0
H382 H 0.6967 1.00045 0.6274 0.0
H383 H 0.70124 0.97741 0.69858 0.0
H384 H 0.68532 0.90391 0.67441 0.0
C385 C 0.70339 0.86903 0.83501 0.0
C386 C 0.69425 0.92987 0.79936 0.0
C387 C 0.71507 0.85503 0.86727 0.0
C388 C 0.68681 0.98478 0.63072 0.0
C389 C 0.68943 0.97153 0.67159 0.0
C390 C 0.68722 0.91134 0.70931 0.0
C391 C 0.70979 0.89214 0.8288 0.0
C392 C 0.69901 0.9065 0.79136 0.0
C393 C 0.67813 0.9503 0.67614 0.0
C394 C 0.68341 0.93493 0.71678 0.0
H395 H 0.75336 0.8945 0.90883 0.0
H396 H 0.7332 0.91876 0.85236 0.0
H397 H 0.6987 0.87945 0.7386 0.0
H398 H 0.64949 0.95024 0.57101 0.0
H399 H 0.65407 0.92705 0.64254 0.0
C400 C 0.8431 0.84302 0.90093 0.0
C401 C 0.82387 0.8292 0.89125 0.0
C402 C 0.86142 0.84401 0.86899 0.0
C403 C 0.88792 0.81187 0.77081 0.0
H404 H 0.91262 0.87088 0.73224 0.0
C405 C 0.95851 0.81709 0.63059 0.0
C406 C 0.95457 0.83297 0.59392 0.0
C407 C 0.94587 0.81815 0.67246 0.0
C408 C 0.90592 0.85428 0.74275 0.0
H409 H 0.80899 0.80537 0.84072 0.0
H410 H 0.84075 0.80716 0.7854 0.0
H411 H 0.88367 0.86915 0.79474 0.0
H412 H 0.93525 0.8633 0.5738 0.0
H413 H 0.91279 0.86481 0.64648 0.0
H414 H 0.90935 0.797 0.71789 0.0
C415 C 0.84179 0.81712 0.81771 0.0
C416 C 0.88952 0.85327 0.7788 0.0
C417 C 0.82349 0.81623 0.84932 0.0
C418 C 0.93848 0.85062 0.60111 0.0
C419 C 0.92579 0.85165 0.643 0.0
C420 C 0.90432 0.81286 0.735 0.0
C421 C 0.86093 0.83103 0.82709 0.0
C422 C 0.88002 0.83208 0.79249 0.0
C423 C 0.92893 0.83504 0.67862 0.0
C424 C 0.91324 0.8341 0.71996 0.0
H425 H 0.84394 0.8532 0.93293 0.0
H426 H 0.87602 0.85478 0.87724 0.0
H427 H 0.88112 0.79526 0.781 0.0
H428 H 0.9706 0.80314 0.62618 0.0
H429 H 0.94894 0.8053 0.69951 0.0
C430 C 0.75769 0.357 0.345 0.0
C431 C 0.75667 0.36418 0.39241 0.0
C432 C 0.76751 0.371 0.31048 0.0
C433 C 0.78281 0.43151 0.28519 0.0
H434 H 0.81325 0.40351 0.17779 0.0
C435 C 0.82212 0.48244 0.1263 0.0
C436 C 0.81409 0.47494 0.08188 0.0
C437 C 0.81753 0.46971 0.16732 0.0
C438 C 0.80483 0.41155 0.20765 0.0
H439 H 0.76574 0.39158 0.44089 0.0
H440 H 0.78346 0.41593 0.38054 0.0
H441 H 0.80192 0.3797 0.24476 0.0
H442 H 0.79424 0.44837 0.04656 0.0
H443 H 0.7872 0.42588 0.11755 0.0
H444 H 0.78599 0.46345 0.24759 0.0
C445 C 0.77619 0.3996 0.36998 0.0
C446 C 0.7982 0.39792 0.24594 0.0
C447 C 0.76614 0.3856 0.40463 0.0
C448 C 0.80133 0.45442 0.0797 0.0
C449 C 0.79713 0.44155 0.12044 0.0
C450 C 0.78977 0.44522 0.24706 0.0
C451 C 0.77687 0.39251 0.32238 0.0
C452 C 0.78649 0.40759 0.28462 0.0
C453 C 0.80517 0.44904 0.1646 0.0
C454 C 0.8003 0.43523 0.20745 0.0
H455 H 0.75046 0.34069 0.33414 0.0
H456 H 0.7672 0.36513 0.27415 0.0
H457 H 0.77368 0.43955 0.31411 0.0
H458 H 0.83219 0.498 0.12938 0.0
H459 H 0.82395 0.47579 0.20103 0.0
C460 C 0.17732 0.19073 0.83895 0.0
C461 C 0.17415 0.18254 0.8853 0.0
C462 C 0.16022 0.18809 0.80501 0.0
C463 C 0.09901 0.18046 0.78591 0.0
H464 H 0.11925 0.15933 0.66271 0.0
C465 C 0.03899 0.17182 0.62071 0.0
C466 C 0.04827 0.18133 0.57911 0.0
C467 C 0.05263 0.16922 0.66127 0.0
C468 C 0.11332 0.16526 0.69689 0.0
H469 H 0.15007 0.16586 0.9327 0.0
H470 H 0.11986 0.16148 0.87284 0.0
H471 H 0.14619 0.16005 0.72851 0.0
H472 H 0.07877 0.19663 0.54842 0.0
H473 H 0.10238 0.19185 0.6183 0.0
H474 H 0.06622 0.18635 0.75348 0.0
C475 C 0.13579 0.16979 0.86312 0.0
C476 C 0.12873 0.16566 0.73453 0.0
C477 C 0.15309 0.17225 0.89724 0.0
C478 C 0.07125 0.18857 0.57927 0.0
C479 C 0.0848 0.18588 0.61943 0.0
C480 C 0.0835 0.18011 0.74799 0.0
C481 C 0.13942 0.17733 0.81647 0.0
C482 C 0.12196 0.17394 0.77901 0.0
C483 C 0.07576 0.176 0.66074 0.0
C484 C 0.09076 0.17319 0.70276 0.0
H485 H 0.19321 0.19889 0.82845 0.0
H486 H 0.16331 0.19449 0.76956 0.0
H487 H 0.09338 0.18692 0.8199 0.0
H488 H 0.02134 0.16608 0.62168 0.0
H489 H 0.04523 0.16157 0.69269 0.0
C490 C 0.24417 0.65182 0.34292 0.0
C491 C 0.24282 0.64577 0.39102 0.0
C492 C 0.23626 0.63688 0.30805 0.0
C493 C 0.19697 0.59063 0.28145 0.0
H494 H 0.23977 0.57682 0.1805 0.0
C495 C 0.17484 0.5288 0.1263 0.0
C496 C 0.18321 0.53488 0.08131 0.0
C497 C 0.18169 0.54098 0.16663 0.0
C498 C 0.22746 0.58069 0.20801 0.0
H499 H 0.23133 0.61958 0.44028 0.0
H500 H 0.21694 0.5935 0.3787 0.0
H501 H 0.25194 0.60075 0.24643 0.0
H502 H 0.20553 0.55857 0.04382 0.0
H503 H 0.21643 0.58035 0.11317 0.0
H504 H 0.17216 0.57132 0.24213 0.0
C505 C 0.22441 0.60981 0.36842 0.0
C506 C 0.23453 0.59428 0.24592 0.0
C507 C 0.23269 0.62467 0.40351 0.0
C508 C 0.19836 0.55359 0.07763 0.0
C509 C 0.20499 0.56586 0.11771 0.0
C510 C 0.18975 0.57724 0.24304 0.0
C511 C 0.22652 0.61567 0.32039 0.0
C512 C 0.21928 0.59965 0.2826 0.0
C513 C 0.19699 0.55958 0.16284 0.0
C514 C 0.20483 0.57244 0.20543 0.0
H515 H 0.25185 0.66792 0.33196 0.0
H516 H 0.23785 0.64188 0.27125 0.0
H517 H 0.18489 0.59465 0.30931 0.0
H518 H 0.16298 0.51462 0.13041 0.0
H519 H 0.17528 0.53556 0.20081 0.0
C520 C 0.31826 0.69006 0.66126 0.0
C521 C 0.32176 0.68219 0.61483 0.0
C522 C 0.33524 0.68748 0.69549 0.0
C523 C 0.39663 0.68045 0.7147 0.0
H524 H 0.37659 0.65953 0.8383 0.0
C525 C 0.45704 0.67236 0.87914 0.0
C526 C 0.44792 0.68209 0.92061 0.0
C527 C 0.44324 0.66949 0.83892 0.0
C528 C 0.38247 0.6654 0.804 0.0
H529 H 0.34628 0.66606 0.56764 0.0
H530 H 0.37623 0.66173 0.62798 0.0
H531 H 0.34956 0.66005 0.77263 0.0
H532 H 0.41749 0.69743 0.95146 0.0
H533 H 0.39359 0.69216 0.88218 0.0
H534 H 0.42945 0.68644 0.74682 0.0
C535 C 0.36015 0.66977 0.63756 0.0
C536 C 0.367 0.6657 0.76644 0.0
C537 C 0.34299 0.6722 0.60315 0.0
C538 C 0.4249 0.6892 0.92072 0.0
C539 C 0.41118 0.68624 0.8809 0.0
C540 C 0.41219 0.68019 0.75251 0.0
C541 C 0.35625 0.67707 0.68423 0.0
C542 C 0.3737 0.67389 0.72179 0.0
C543 C 0.4201 0.67622 0.83968 0.0
C544 C 0.40501 0.67333 0.79786 0.0
H545 H 0.30222 0.69797 0.67155 0.0
H546 H 0.33193 0.69368 0.73096 0.0
H547 H 0.40223 0.68685 0.68061 0.0
H548 H 0.47471 0.66669 0.87797 0.0
H549 H 0.45053 0.66173 0.80755 0.0
C550 C 0.73765 0.85698 0.15545 0.0
C551 C 0.73927 0.86418 0.10808 0.0
C552 C 0.72775 0.87112 0.18954 0.0
C553 C 0.71347 0.93191 0.21412 0.0
H554 H 0.68214 0.90444 0.32117 0.0
C555 C 0.67466 0.9831 0.37328 0.0
C556 C 0.68291 0.97551 0.41751 0.0
C557 C 0.67899 0.97042 0.33213 0.0
C558 C 0.69078 0.91233 0.29137 0.0
H559 H 0.73111 0.89177 0.0592 0.0
H560 H 0.71322 0.91636 0.1188 0.0
H561 H 0.69314 0.88047 0.25432 0.0
H562 H 0.70294 0.94885 0.45226 0.0
H563 H 0.70946 0.92643 0.3811 0.0
H564 H 0.71084 0.96387 0.25171 0.0
C565 C 0.7201 0.8999 0.12966 0.0
C566 C 0.69723 0.89861 0.25317 0.0
C567 C 0.73024 0.88575 0.09545 0.0
C568 C 0.69565 0.95497 0.41933 0.0
C569 C 0.69957 0.94214 0.37848 0.0
C570 C 0.70667 0.94572 0.25215 0.0
C571 C 0.71888 0.8928 0.17726 0.0
C572 C 0.70931 0.90806 0.21468 0.0
C573 C 0.69129 0.94972 0.33455 0.0
C574 C 0.69584 0.9359 0.29163 0.0
H575 H 0.74453 0.84055 0.16663 0.0
H576 H 0.72765 0.86522 0.22588 0.0
H577 H 0.72289 0.93978 0.18536 0.0
H578 H 0.6646 0.99868 0.37046 0.0
H579 H 0.6724 0.97656 0.29857 0.0
C580 C 0.65466 0.34072 0.6044 0.0
C581 C 0.67594 0.33089 0.61634 0.0
C582 C 0.63753 0.34328 0.63874 0.0
C583 C 0.63053 0.34772 0.76764 0.0
H584 H 0.56834 0.32623 0.74768 0.0
C585 C 0.57256 0.32412 0.92181 0.0
C586 C 0.54942 0.33083 0.92116 0.0
C587 C 0.58635 0.32713 0.88214 0.0
C588 C 0.58552 0.33269 0.75347 0.0
H589 H 0.69568 0.31569 0.6736 0.0
H590 H 0.66603 0.32021 0.73292 0.0
H591 H 0.59565 0.32599 0.68177 0.0
H592 H 0.52252 0.34559 0.87768 0.0
H593 H 0.54681 0.35064 0.80756 0.0
H594 H 0.62076 0.35393 0.83933 0.0
C595 C 0.66263 0.32616 0.69726 0.0
C596 C 0.60113 0.33253 0.71582 0.0
C597 C 0.67958 0.32344 0.66308 0.0
C598 C 0.54028 0.34023 0.87928 0.0
C599 C 0.55415 0.34314 0.83922 0.0
C600 C 0.615 0.34792 0.80505 0.0
C601 C 0.64152 0.33629 0.68565 0.0
C602 C 0.62398 0.33938 0.72303 0.0
C603 C 0.5774 0.3368 0.84051 0.0
C604 C 0.59256 0.33973 0.79881 0.0
H605 H 0.65127 0.34654 0.56865 0.0
H606 H 0.62138 0.35112 0.62888 0.0
H607 H 0.64789 0.35358 0.77393 0.0
H608 H 0.58002 0.31616 0.95289 0.0
H609 H 0.60404 0.3215 0.88386 0.0
C610 C 0.25774 0.12037 0.09359 0.0
C611 C 0.25858 0.14433 0.09988 0.0
C612 C 0.26767 0.10565 0.12696 0.0
C613 C 0.31003 0.10205 0.22273 0.0
H614 H 0.26954 0.05588 0.2756 0.0
C615 C 0.32988 0.05532 0.39865 0.0
C616 C 0.3214 0.03295 0.40582 0.0
C617 C 0.32456 0.06754 0.35744 0.0
C618 C 0.28135 0.06827 0.26069 0.0
H619 H 0.27144 0.17164 0.14486 0.0
H620 H 0.28914 0.14588 0.20266 0.0
H621 H 0.2565 0.07946 0.20983 0.0
H622 H 0.30129 0.00565 0.37371 0.0
H623 H 0.29328 0.0263 0.30108 0.0
H624 H 0.33503 0.09078 0.27309 0.0
C625 C 0.28063 0.13854 0.17211 0.0
C626 C 0.27377 0.08187 0.22306 0.0
C627 C 0.27037 0.15325 0.1392 0.0
C628 C 0.30839 0.02273 0.36953 0.0
C629 C 0.3034 0.03479 0.32801 0.0
C630 C 0.31779 0.08818 0.25994 0.0
C631 C 0.27901 0.1146 0.16677 0.0
C632 C 0.2879 0.09909 0.20414 0.0
C633 C 0.31089 0.05759 0.32187 0.0
C634 C 0.30343 0.0713 0.27991 0.0
H635 H 0.24878 0.11295 0.06369 0.0
H636 H 0.26631 0.08724 0.12192 0.0
H637 H 0.32133 0.1151 0.20848 0.0
H638 H 0.34031 0.06365 0.42532 0.0
H639 H 0.33053 0.0851 0.35437 0.0
C640 C 0.20622 0.27865 0.94886 0.0
C641 C 0.20722 0.26554 0.99055 0.0
C642 C 0.19925 0.30165 0.95033 0.0
C643 C 0.19378 0.34985 0.03592 0.0
H644 H 0.16504 0.38042 0.92938 0.0
C645 C 0.19181 0.44822 0.02219 0.0
C646 C 0.17298 0.45898 0.00063 0.0
C647 C 0.19389 0.42433 0.02176 0.0
C648 C 0.17275 0.37213 0.9598 0.0
H649 H 0.20029 0.26562 0.06583 0.0
H650 H 0.18709 0.30526 0.06818 0.0
H651 H 0.17087 0.33902 0.92716 0.0
H652 H 0.14137 0.45328 0.96223 0.0
H653 H 0.14449 0.41135 0.96284 0.0
H654 H 0.19491 0.38269 0.06935 0.0
C655 C 0.19262 0.29827 0.0346 0.0
C656 C 0.17644 0.34837 0.95821 0.0
C657 C 0.20003 0.27547 0.03326 0.0
C658 C 0.15609 0.44536 0.97899 0.0
C659 C 0.15799 0.42137 0.97912 0.0
C660 C 0.18979 0.37347 0.03779 0.0
C661 C 0.19272 0.31191 0.99341 0.0
C662 C 0.1873 0.33694 0.996 0.0
C663 C 0.17701 0.41054 0.00031 0.0
C664 C 0.17961 0.38504 0.99945 0.0
H665 H 0.21176 0.27143 0.91545 0.0
H666 H 0.19985 0.31158 0.91794 0.0
H667 H 0.2025 0.34187 0.0655 0.0
H668 H 0.20531 0.45834 0.03831 0.0
H669 H 0.20906 0.41676 0.03739 0.0
C670 C 0.19079 0.73311 0.45101 0.0
C671 C 0.20058 0.72602 0.49401 0.0
C672 C 0.16891 0.74293 0.45019 0.0
C673 C 0.12627 0.77043 0.53018 0.0
H674 H 0.08549 0.76151 0.4235 0.0
C675 C 0.04012 0.81847 0.51756 0.0
C676 C 0.02152 0.80664 0.49769 0.0
C677 C 0.06219 0.80921 0.51518 0.0
C678 C 0.09653 0.76399 0.45389 0.0
H679 H 0.19489 0.72255 0.56943 0.0
H680 H 0.15643 0.73858 0.56784 0.0
H681 H 0.12276 0.74295 0.42388 0.0
H682 H 0.01108 0.77585 0.46056 0.0
H683 H 0.04933 0.75914 0.45809 0.0
H684 H 0.09962 0.79039 0.56142 0.0
C685 C 0.16585 0.73755 0.53494 0.0
C686 C 0.11812 0.75361 0.45375 0.0
C687 C 0.18784 0.72816 0.53585 0.0
C688 C 0.02526 0.78538 0.47565 0.0
C689 C 0.04722 0.77592 0.474 0.0
C690 C 0.10456 0.78048 0.53068 0.0
C691 C 0.15624 0.74547 0.49225 0.0
C692 C 0.13327 0.75663 0.49197 0.0
C693 C 0.06601 0.78771 0.49368 0.0
C694 C 0.08936 0.77739 0.49258 0.0
H695 H 0.20032 0.73179 0.41826 0.0
H696 H 0.16224 0.74907 0.41673 0.0
H697 H 0.13759 0.77359 0.55986 0.0
H698 H 0.03761 0.835 0.53439 0.0
H699 H 0.07624 0.81903 0.52991 0.0
C700 C 0.79794 0.73462 0.03164 0.0
C701 C 0.79068 0.74521 0.98958 0.0
C702 C 0.80443 0.71153 0.03195 0.0
C703 C 0.81779 0.66141 0.95383 0.0
H704 H 0.79882 0.62713 0.06477 0.0
C705 C 0.83678 0.56416 0.97462 0.0
C706 C 0.82001 0.55065 0.99692 0.0
C707 C 0.83491 0.58814 0.97419 0.0
C708 C 0.80404 0.63632 0.03325 0.0
H709 H 0.78519 0.74023 0.91449 0.0
H710 H 0.7956 0.6996 0.91517 0.0
H711 H 0.79258 0.66821 0.06173 0.0
H712 H 0.78792 0.55146 0.03524 0.0
H713 H 0.7842 0.59311 0.03336 0.0
H714 H 0.82803 0.62916 0.92432 0.0
C715 C 0.79689 0.70921 0.94784 0.0
C716 C 0.80084 0.66008 0.03183 0.0
C717 C 0.79082 0.7325 0.94739 0.0
C718 C 0.80129 0.56151 0.01851 0.0
C719 C 0.79924 0.58542 0.01753 0.0
C720 C 0.82071 0.63753 0.95498 0.0
C721 C 0.80333 0.69828 0.99037 0.0
C722 C 0.80762 0.673 0.9921 0.0
C723 C 0.81606 0.5991 0.99551 0.0
C724 C 0.81374 0.62464 0.99463 0.0
H725 H 0.79832 0.74414 0.06457 0.0
H726 H 0.80997 0.70401 0.0651 0.0
H727 H 0.8235 0.67074 0.92284 0.0
H728 H 0.85146 0.55617 0.95792 0.0
H729 H 0.84839 0.59805 0.95755 0.0
C730 C 0.8079 0.28212 0.53707 0.0
C731 C 0.79515 0.28356 0.49503 0.0
C732 C 0.83015 0.27338 0.53676 0.0
C733 C 0.87844 0.25846 0.45636 0.0
H734 H 0.89882 0.22399 0.56607 0.0
C735 C 0.97228 0.22956 0.47566 0.0
C736 C 0.97673 0.20845 0.49781 0.0
C737 C 0.95022 0.23881 0.47587 0.0
C738 C 0.89338 0.23328 0.53481 0.0
H739 H 0.79562 0.27708 0.41959 0.0
H740 H 0.83418 0.26083 0.41913 0.0
H741 H 0.86013 0.23906 0.56378 0.0
H742 H 0.96191 0.18029 0.53734 0.0
H743 H 0.92304 0.19585 0.53614 0.0
H744 H 0.91127 0.25157 0.42627 0.0
C745 C 0.8273 0.26707 0.45227 0.0
C746 C 0.87123 0.24234 0.53385 0.0
C747 C 0.80515 0.27628 0.45247 0.0
C748 C 0.95883 0.19672 0.52039 0.0
C749 C 0.93662 0.20574 0.51983 0.0
C750 C 0.90047 0.24906 0.45696 0.0
C751 C 0.84006 0.2654 0.49451 0.0
C752 C 0.86351 0.25525 0.49481 0.0
C753 C 0.932 0.2269 0.49744 0.0
C754 C 0.90832 0.2365 0.49638 0.0
H755 H 0.80071 0.28794 0.57031 0.0
H756 H 0.83958 0.27302 0.56976 0.0
H757 H 0.87329 0.2685 0.42587 0.0
H758 H 0.98595 0.23898 0.45841 0.0
H759 H 0.94753 0.25538 0.45931 0.0
C760 C 0.70709 0.23246 0.55591 0.0
C761 C 0.70641 0.24549 0.51409 0.0
C762 C 0.70097 0.20918 0.55532 0.0
C763 C 0.6956 0.16078 0.47025 0.0
H764 H 0.67022 0.12883 0.57854 0.0
C765 C 0.69558 0.06209 0.48075 0.0
C766 C 0.67717 0.05102 0.50312 0.0
C767 C 0.69758 0.086 0.48221 0.0
C768 C 0.67703 0.1375 0.54769 0.0
H769 H 0.69723 0.24502 0.43982 0.0
H770 H 0.68552 0.20491 0.43915 0.0
H771 H 0.67475 0.17042 0.58112 0.0
H772 H 0.6462 0.0562 0.54389 0.0
H773 H 0.64921 0.09808 0.54521 0.0
H774 H 0.69715 0.12812 0.43612 0.0
C775 C 0.69172 0.21218 0.47201 0.0
C776 C 0.67994 0.16137 0.54944 0.0
C777 C 0.69824 0.23525 0.47243 0.0
C778 C 0.66065 0.06434 0.52659 0.0
C779 C 0.66248 0.08831 0.52756 0.0
C780 C 0.69242 0.13703 0.46828 0.0
C781 C 0.69369 0.1986 0.51305 0.0
C782 C 0.68945 0.17332 0.51086 0.0
C783 C 0.68104 0.09947 0.50556 0.0
C784 C 0.68336 0.12499 0.50714 0.0
H785 H 0.71343 0.23993 0.58848 0.0
H786 H 0.70291 0.1993 0.58756 0.0
H787 H 0.70335 0.1692 0.44006 0.0
H788 H 0.70877 0.0522 0.4631 0.0
H789 H 0.7124 0.09385 0.46577 0.0
C790 C 0.30683 0.23299 0.04369 0.0
C791 C 0.29617 0.22657 0.00118 0.0
C792 C 0.32903 0.24205 0.04337 0.0
C793 C 0.37218 0.2679 0.96161 0.0
H794 H 0.41313 0.25677 0.06714 0.0
C795 C 0.4596 0.31386 0.97694 0.0
C796 C 0.47767 0.30201 0.99872 0.0
C797 C 0.43752 0.30452 0.97673 0.0
C798 C 0.40209 0.25981 0.03696 0.0
H799 H 0.30057 0.22366 0.92531 0.0
H800 H 0.33958 0.2383 0.92484 0.0
H801 H 0.37519 0.23982 0.06744 0.0
H802 H 0.48736 0.27093 0.03576 0.0
H803 H 0.44918 0.25398 0.0334 0.0
H804 H 0.39951 0.28682 0.92991 0.0
C805 C 0.33062 0.23735 0.95831 0.0
C806 C 0.38008 0.25039 0.03756 0.0
C807 C 0.30829 0.22877 0.95855 0.0
C808 C 0.47355 0.28043 0.01913 0.0
C809 C 0.45162 0.27087 0.01812 0.0
C810 C 0.39434 0.27696 0.9606 0.0
C811 C 0.34122 0.24442 0.00062 0.0
C812 C 0.36477 0.25435 -5e-05 0.0
C813 C 0.4332 0.28292 0.99753 0.0
C814 C 0.4096 0.2731 0.99832 0.0
H815 H 0.29779 0.23161 0.07703 0.0
H816 H 0.3364 0.24761 0.0766 0.0
H817 H 0.36082 0.27173 0.93233 0.0
H818 H 0.46244 0.33064 0.96132 0.0
H819 H 0.42379 0.31453 0.96123 0.0
C820 C 0.28113 0.7821 0.47497 0.0
C821 C 0.28636 0.76722 0.51274 0.0
C822 C 0.28712 0.80524 0.47682 0.0
C823 C 0.32579 0.84727 0.52866 0.0
H824 H 0.27725 0.89009 0.49646 0.0
C825 C 0.33643 0.94692 0.53518 0.0
C826 C 0.32524 0.95962 0.49955 0.0
C827 C 0.33305 0.92316 0.53918 0.0
C828 C 0.2911 0.8784 0.50496 0.0
H829 H 0.30283 0.76497 0.58146 0.0
H830 H 0.31363 0.80578 0.58431 0.0
H831 H 0.26905 0.84916 0.49994 0.0
H832 H 0.3021 0.95699 0.43957 0.0
H833 H 0.29706 0.91574 0.44527 0.0
H834 H 0.34801 0.87659 0.53246 0.0
C835 C 0.30469 0.79928 0.5535 0.0
C836 C 0.28635 0.85495 0.50723 0.0
C837 C 0.29844 0.776 0.55191 0.0
C838 C 0.31125 0.94783 0.46711 0.0
C839 C 0.30802 0.92415 0.4709 0.0
C840 C 0.33064 0.87084 0.52599 0.0
C841 C 0.29869 0.81416 0.51625 0.0
C842 C 0.30369 0.83911 0.5183 0.0
C843 C 0.31846 0.91157 0.50757 0.0
C844 C 0.31341 0.88664 0.51324 0.0
H845 H 0.27198 0.776 0.44406 0.0
H846 H 0.2826 0.81625 0.44729 0.0
H847 H 0.33947 0.83537 0.53712 0.0
H848 H 0.34756 0.95538 0.56042 0.0
H849 H 0.34134 0.91401 0.56788 0.0
C850 C 0.68986 0.7817 0.96092 0.0
C851 C 0.70206 0.78348 0.00359 0.0
C852 C 0.66753 0.77314 0.96045 0.0
C853 C 0.61815 0.75994 0.03926 0.0
H854 H 0.5983 0.72436 0.9308 0.0
C855 C 0.52428 0.73172 0.01906 0.0
C856 C 0.51984 0.71022 0.99866 0.0
C857 C 0.54637 0.74088 0.01838 0.0
C858 C 0.60359 0.734 0.96168 0.0
H859 H 0.70059 0.77769 0.07925 0.0
H860 H 0.66194 0.76177 0.07838 0.0
H861 H 0.63719 0.73896 0.93375 0.0
H862 H 0.53465 0.68134 0.96155 0.0
H863 H 0.57358 0.6968 0.96194 0.0
H864 H 0.58497 0.75388 0.06843 0.0
C865 C 0.66928 0.76763 0.04534 0.0
C866 C 0.62586 0.74275 0.96302 0.0
C867 C 0.69149 0.77664 0.04589 0.0
C868 C 0.53774 0.69807 0.97715 0.0
C869 C 0.55998 0.70702 0.97724 0.0
C870 C 0.59601 0.75084 0.0383 0.0
C871 C 0.65701 0.76573 0.00256 0.0
C872 C 0.6334 0.756 0.00166 0.0
C873 C 0.56461 0.72851 0.99811 0.0
C874 C 0.58835 0.7379 0.99933 0.0
H875 H 0.69751 0.78715 0.92783 0.0
H876 H 0.65849 0.77253 0.927 0.0
H877 H 0.62316 0.77028 0.06936 0.0
H878 H 0.5106 0.74146 0.03546 0.0
H879 H 0.54908 0.75771 0.03369 0.0
loop_
_geom_bond_atom_site_label_1
_geom_bond_atom_site_label_2
_geom_bond_distance
_geom_bond_site_symmetry_2
_ccdc_geom_bond_type
Fe0 O2 1.929 . S
Fe0 O5 1.997 . S
Fe0 O6 2.002 . S
Fe0 O11 1.976 . S
Fe0 O14 1.996 . S
Fe1 O2 1.907 1_556 S
Fe1 O9 1.997 . S
Fe1 O12 1.996 . S
Fe1 O16 1.976 . S
Fe1 O19 2.002 . S
O2 Fe0 1.929 . S
O2 Fe1 1.907 1_554 S
O2 Fe3 1.918 . S
Fe3 O2 1.918 . S
Fe3 O4 2.003 . S
Fe3 O13 1.976 . S
Fe3 O17 1.995 1_554 S
Fe3 O20 1.996 1_554 S
O4 Fe3 2.003 . S
O4 C21 1.295 . S
O5 Fe0 1.997 . S
O5 C21 1.235 . S
O6 Fe0 2.002 . S
O6 C7 1.295 . S
C7 O6 1.295 . S
C7 O9 1.235 1_554 S
C8 O13 1.287 . S
C8 O14 1.255 . S
O9 Fe1 1.997 . S
O9 C7 1.235 1_556 S
C10 O16 1.287 . S
C10 O17 1.255 . S
O11 Fe0 1.976 . S
O11 C18 1.269 1_554 S
O12 Fe1 1.996 . S
O12 C18 1.273 . S
O13 Fe3 1.976 . S
O13 C8 1.287 . S
O14 Fe0 1.996 . S
O14 C8 1.255 . S
C15 O19 1.295 . S
C15 O20 1.235 . S
O16 Fe1 1.976 . S
O16 C10 1.287 . S
O17 Fe3 1.995 1_556 S
O17 C10 1.255 . S
C18 O11 1.269 1_556 S
C18 O12 1.273 . S
O19 Fe1 2.002 . S
O19 C15 1.295 . S
O20 Fe3 1.996 1_556 S
O20 C15 1.235 . S
C21 O4 1.295 . S
C21 O5 1.235 . S
Fe22 O24 1.918 . S
Fe22 O27 1.997 . S
Fe22 O28 2.002 . S
Fe22 O33 1.976 . S
Fe22 O36 1.996 . S
Fe23 O24 1.918 . S
Fe23 O31 1.997 . S
Fe23 O34 1.996 . S
Fe23 O38 1.976 . S
Fe23 O41 2.002 . S
O24 Fe22 1.918 . S
O24 Fe23 1.918 . S
O24 Fe25 1.918 . S
Fe25 O24 1.918 . S
Fe25 O26 2.002 . S
Fe25 O35 1.976 . S
Fe25 O39 1.996 . S
Fe25 O42 1.997 . S
O26 Fe25 2.002 . S
O26 C43 1.295 . S
O27 Fe22 1.997 . S
O27 C43 1.235 . S
O28 Fe22 2.002 . S
O28 C29 1.295 . S
C29 O28 1.295 . S
C29 O31 1.235 . S
C30 O35 1.287 . S
C30 O36 1.255 . S
O31 Fe23 1.997 . S
O31 C29 1.235 . S
C32 O38 1.287 . S
C32 O39 1.255 . S
O33 Fe22 1.976 . S
O33 C40 1.287 . S
O34 Fe23 1.996 . S
O34 C40 1.255 . S
O35 Fe25 1.976 . S
O35 C30 1.287 . S
O36 Fe22 1.996 . S
O36 C30 1.255 . S
C37 O41 1.295 . S
C37 O42 1.235 . S
O38 Fe23 1.976 . S
O38 C32 1.287 . S
O39 Fe25 1.996 . S
O39 C32 1.255 . S
C40 O33 1.287 . S
C40 O34 1.255 . S
O41 Fe23 2.002 . S
O41 C37 1.295 . S
O42 Fe25 1.997 . S
O42 C37 1.235 . S
C43 O26 1.295 . S
C43 O27 1.235 . S
Fe44 O46 1.911 1_556 S
Fe44 O49 1.997 . S
Fe44 O50 2.002 . S
Fe44 O55 1.976 . S
Fe44 O58 1.996 . S
Fe45 O46 1.925 . S
Fe45 O53 1.997 . S
Fe45 O56 1.996 . S
Fe45 O60 1.976 . S
Fe45 O63 2.002 . S
O46 Fe44 1.911 1_554 S
O46 Fe45 1.925 . S
O46 Fe47 1.918 . S
Fe47 O46 1.918 . S
Fe47 O48 1.989 1_554 S
Fe47 O57 1.961 1_554 S
Fe47 O61 2.010 . S
Fe47 O64 2.011 . S
O48 Fe47 1.989 1_556 S
O48 C65 1.295 . S
O49 Fe44 1.997 . S
O49 C65 1.235 . S
O50 Fe44 2.002 . S
O50 C51 1.314 . S
C51 O50 1.314 . S
C51 O53 1.217 1_556 S
C52 O57 1.287 . S
C52 O58 1.255 . S
O53 Fe45 1.997 . S
O53 C51 1.217 1_554 S
C54 O60 1.287 . S
C54 O61 1.255 . S
O55 Fe44 1.976 . S
O55 C62 1.287 1_556 S
O56 Fe45 1.996 . S
O56 C62 1.255 . S
O57 Fe47 1.961 1_556 S
O57 C52 1.287 . S
O58 Fe44 1.996 . S
O58 C52 1.255 . S
C59 O63 1.295 . S
C59 O64 1.235 . S
O60 Fe45 1.976 . S
O60 C54 1.287 . S
O61 Fe47 2.010 . S
O61 C54 1.255 . S
C62 O55 1.287 1_554 S
C62 O56 1.255 . S
O63 Fe45 2.002 . S
O63 C59 1.295 . S
O64 Fe47 2.011 . S
O64 C59 1.235 . S
C65 O48 1.295 . S
C65 O49 1.235 . S
Fe66 O68 1.918 . S
Fe66 O71 1.997 . S
Fe66 O72 2.002 . S
Fe66 O77 1.976 . S
Fe66 O80 1.996 . S
Fe67 O68 1.918 . S
Fe67 O75 1.997 . S
Fe67 O78 1.996 . S
Fe67 O82 1.976 . S
Fe67 O85 2.002 . S
O68 Fe66 1.918 . S
O68 Fe67 1.918 . S
O68 Fe69 1.918 . S
Fe69 O68 1.918 . S
Fe69 O70 2.002 . S
Fe69 O79 1.976 . S
Fe69 O83 1.996 . S
Fe69 O86 1.997 . S
O70 Fe69 2.002 . S
O70 C87 1.295 . S
O71 Fe66 1.997 . S
O71 C87 1.235 . S
O72 Fe66 2.002 . S
O72 C73 1.295 . S
C73 O72 1.295 . S
C73 O75 1.235 . S
C74 O79 1.287 . S
C74 O80 1.255 . S
O75 Fe67 1.997 . S
O75 C73 1.235 . S
C76 O82 1.287 . S
C76 O83 1.255 . S
O77 Fe66 1.976 . S
O77 C84 1.287 . S
O78 Fe67 1.996 . S
O78 C84 1.255 . S
O79 Fe69 1.976 . S
O79 C74 1.287 . S
O80 Fe66 1.996 . S
O80 C74 1.255 . S
C81 O85 1.295 . S
C81 O86 1.235 . S
O82 Fe67 1.976 . S
O82 C76 1.287 . S
O83 Fe69 1.996 . S
O83 C76 1.255 . S
C84 O77 1.287 . S
C84 O78 1.255 . S
O85 Fe67 2.002 . S
O85 C81 1.295 . S
O86 Fe69 1.997 . S
O86 C81 1.235 . S
C87 O70 1.295 . S
C87 O71 1.235 . S
H88 C91 0.931 . S
H89 C94 0.928 . S
H90 C96 0.930 . S
C91 H88 0.931 . S
C91 C92 1.404 1_556 S
C91 C93 1.369 . S
C92 C91 1.404 1_554 S
C92 C96 1.429 . S
C93 C91 1.369 . S
C93 C94 1.372 . S
C94 H89 0.928 . S
C94 C93 1.372 . S
C94 C95 1.406 1_556 S
C95 C94 1.406 1_554 S
C95 C96 1.388 . S
C96 H90 0.930 . S
C96 C92 1.429 . S
C96 C95 1.388 . S
H97 C100 0.931 . S
H98 C103 0.947 . S
H99 C105 0.930 1_455 S
C100 H97 0.931 . S
C100 C101 1.413 . S
C100 C102 1.360 . S
C101 C100 1.413 . S
C101 C105 1.429 . S
C102 C100 1.360 . S
C102 C103 1.372 . S
C103 H98 0.947 . S
C103 C102 1.372 . S
C103 C104 1.404 1_655 S
C104 C103 1.404 1_455 S
C104 C105 1.391 1_455 S
C105 H99 0.930 1_655 S
C105 C101 1.429 . S
C105 C104 1.391 1_655 S
H106 C109 0.931 . S
H107 C112 0.928 . S
H108 C114 0.930 . S
C109 H106 0.931 . S
C109 C110 1.413 1_554 S
C109 C111 1.360 . S
C110 C109 1.413 1_556 S
C110 C114 1.429 . S
C111 C109 1.360 . S
C111 C112 1.372 . S
C112 H107 0.928 . S
C112 C111 1.372 . S
C112 C113 1.423 . S
C113 C112 1.423 . S
C113 C114 1.371 1_554 S
C114 H108 0.930 . S
C114 C110 1.429 . S
C114 C113 1.371 1_556 S
H115 C118 0.931 . S
H116 C121 0.928 . S
H117 C123 0.940 . S
C118 H115 0.931 . S
C118 C119 1.413 . S
C118 C120 1.360 . S
C119 C118 1.413 . S
C119 C123 1.429 . S
C120 C118 1.360 . S
C120 C121 1.372 . S
C121 H116 0.928 . S
C121 C120 1.372 . S
C121 C122 1.404 1_455 S
C122 C121 1.404 1_655 S
C122 C123 1.391 1_655 S
C123 H117 0.940 . S
C123 C119 1.429 . S
C123 C122 1.391 1_455 S
H124 C127 0.931 . S
H125 C130 0.928 . S
H126 C132 0.930 . S
C127 H124 0.931 . S
C127 C128 1.413 . S
C127 C129 1.360 . S
C128 C127 1.413 . S
C128 C132 1.429 1_565 S
C129 C127 1.360 . S
C129 C130 1.372 1_565 S
C130 H125 0.928 . S
C130 C129 1.372 1_545 S
C130 C131 1.404 . S
C131 C130 1.404 . S
C131 C132 1.391 . S
C132 H126 0.930 . S
C132 C128 1.429 1_545 S
C132 C131 1.391 . S
H133 C136 0.931 . S
H134 C139 0.928 . S
H135 C141 0.930 . S
C136 H133 0.931 . S
C136 C137 1.413 1_554 S
C136 C138 1.360 . S
C137 C136 1.413 1_556 S
C137 C141 1.429 . S
C138 C136 1.360 . S
C138 C139 1.372 . S
C139 H134 0.928 . S
C139 C138 1.372 . S
C139 C140 1.418 . S
C140 C139 1.418 . S
C140 C141 1.376 1_554 S
C141 H135 0.930 . S
C141 C137 1.429 . S
C141 C140 1.376 1_556 S
H142 C145 0.931 . S
H143 C148 0.928 1_565 S
H144 C150 0.914 1_565 S
C145 H142 0.931 . S
C145 C146 1.413 . S
C145 C147 1.360 . S
C146 C145 1.413 . S
C146 C150 1.463 . S
C147 C145 1.360 . S
C147 C148 1.372 . S
C148 H143 0.928 1_545 S
C148 C147 1.372 . S
C148 C149 1.404 1_545 S
C149 C148 1.404 1_565 S
C149 C150 1.375 1_565 S
C150 H144 0.914 1_545 S
C150 C146 1.463 . S
C150 C149 1.375 1_545 S
H151 C154 0.931 . S
H152 C157 0.928 . S
H153 C159 0.930 . S
C154 H151 0.931 . S
C154 C155 1.411 1_556 S
C154 C156 1.363 . S
C155 C154 1.411 1_554 S
C155 C159 1.429 . S
C156 C154 1.363 . S
C156 C157 1.372 . S
C157 H152 0.928 . S
C157 C156 1.372 . S
C157 C158 1.399 1_556 S
C158 C157 1.399 1_554 S
C158 C159 1.395 . S
C159 H153 0.930 . S
C159 C155 1.429 . S
C159 C158 1.395 . S
C160 C161 1.349 . S
C160 C162 1.327 . S
C160 H185 0.950 . S
C161 C160 1.349 . S
C161 C177 1.349 . S
C162 C160 1.327 . S
C162 C181 1.429 . S
C162 H186 0.950 . S
C163 C180 1.574 . S
C163 C182 1.368 . S
C163 H187 0.949 . S
H164 C168 0.949 . S
C165 C166 1.349 . S
C165 C167 1.327 . S
C165 H188 0.950 . S
C166 C165 1.349 . S
C166 C178 1.349 . S
C167 C165 1.327 . S
C167 C183 1.429 . S
C167 H189 0.950 . S
C168 H164 0.949 . S
C168 C176 1.574 . S
C168 C184 1.368 . S
H169 C177 0.950 . S
H170 C175 0.950 . S
H171 C176 0.949 . S
H172 C178 0.950 . S
H173 C179 0.950 . S
H174 C180 0.949 . S
C175 H170 0.950 . S
C175 C177 1.327 . S
C175 C181 1.429 . S
C176 C168 1.574 . S
C176 H171 0.949 . S
C176 C182 1.368 . S
C177 C161 1.349 . S
C177 H169 0.950 . S
C177 C175 1.327 . S
C178 C166 1.349 . S
C178 H172 0.950 . S
C178 C179 1.327 . S
C179 H173 0.950 . S
C179 C178 1.327 . S
C179 C183 1.429 . S
C180 C163 1.574 . S
C180 H174 0.949 . S
C180 C184 1.368 . S
C181 C162 1.429 . S
C181 C175 1.429 . S
C181 C182 1.523 . S
C182 C163 1.368 . S
C182 C176 1.368 . S
C182 C181 1.523 . S
C183 C167 1.429 . S
C183 C179 1.429 . S
C183 C184 1.523 . S
C184 C168 1.368 . S
C184 C180 1.368 . S
C184 C183 1.523 . S
H185 C160 0.950 . S
H186 C162 0.950 . S
H187 C163 0.949 . S
H188 C165 0.950 . S
H189 C167 0.950 . S
C190 C191 1.349 . S
C190 C192 1.327 . S
C190 H215 0.950 . S
C191 C190 1.349 . S
C191 C207 1.349 . S
C192 C190 1.327 . S
C192 C211 1.429 . S
C192 H216 0.950 . S
C193 C210 1.574 . S
C193 C212 1.368 . S
C193 H217 0.949 . S
H194 C198 0.949 . S
C195 C196 1.349 . S
C195 C197 1.327 . S
C195 H218 0.950 . S
C196 C195 1.349 . S
C196 C208 1.349 . S
C197 C195 1.327 . S
C197 C213 1.429 . S
C197 H219 0.950 . S
C198 H194 0.949 . S
C198 C206 1.574 . S
C198 C214 1.368 . S
H199 C207 0.950 . S
H200 C205 0.950 . S
H201 C206 0.949 . S
H202 C208 0.950 . S
H203 C209 0.950 . S
H204 C210 0.949 . S
C205 H200 0.950 . S
C205 C207 1.327 . S
C205 C211 1.429 . S
C206 C198 1.574 . S
C206 H201 0.949 . S
C206 C212 1.368 . S
C207 C191 1.349 . S
C207 H199 0.950 . S
C207 C205 1.327 . S
C208 C196 1.349 . S
C208 H202 0.950 . S
C208 C209 1.327 . S
C209 H203 0.950 . S
C209 C208 1.327 . S
C209 C213 1.429 . S
C210 C193 1.574 . S
C210 H204 0.949 . S
C210 C214 1.368 . S
C211 C192 1.429 . S
C211 C205 1.429 . S
C211 C212 1.523 . S
C212 C193 1.368 . S
C212 C206 1.368 . S
C212 C211 1.523 . S
C213 C197 1.429 . S
C213 C209 1.429 . S
C213 C214 1.523 . S
C214 C198 1.368 . S
C214 C210 1.368 . S
C214 C213 1.523 . S
H215 C190 0.950 . S
H216 C192 0.950 . S
H217 C193 0.949 . S
H218 C195 0.950 . S
H219 C197 0.950 . S
C220 C221 1.349 . S
C220 C222 1.327 . S
C220 H245 0.950 . S
C221 C220 1.349 . S
C221 C237 1.349 . S
C222 C220 1.327 . S
C222 C241 1.429 . S
C222 H246 0.950 . S
C223 C240 1.574 . S
C223 C242 1.368 . S
C223 H247 0.949 . S
H224 C228 0.949 . S
C225 C226 1.349 . S
C225 C227 1.327 . S
C225 H248 0.950 . S
C226 C225 1.349 . S
C226 C238 1.349 . S
C227 C225 1.327 . S
C227 C243 1.429 . S
C227 H249 0.950 . S
C228 H224 0.949 . S
C228 C236 1.574 . S
C228 C244 1.368 . S
H229 C237 0.950 . S
H230 C235 0.950 . S
H231 C236 0.949 . S
H232 C238 0.950 . S
H233 C239 0.950 . S
H234 C240 0.949 . S
C235 H230 0.950 . S
C235 C237 1.327 . S
C235 C241 1.429 . S
C236 C228 1.574 . S
C236 H231 0.949 . S
C236 C242 1.368 . S
C237 C221 1.349 . S
C237 H229 0.950 . S
C237 C235 1.327 . S
C238 C226 1.349 . S
C238 H232 0.950 . S
C238 C239 1.327 . S
C239 H233 0.950 . S
C239 C238 1.327 . S
C239 C243 1.429 . S
C240 C223 1.574 . S
C240 H234 0.949 . S
C240 C244 1.368 . S
C241 C222 1.429 . S
C241 C235 1.429 . S
C241 C242 1.523 . S
C242 C223 1.368 . S
C242 C236 1.368 . S
C242 C241 1.523 . S
C243 C227 1.429 . S
C243 C239 1.429 . S
C243 C244 1.523 . S
C244 C228 1.368 . S
C244 C240 1.368 . S
C244 C243 1.523 . S
H245 C220 0.950 . S
H246 C222 0.950 . S
H247 C223 0.949 . S
H248 C225 0.950 . S
H249 C227 0.950 . S
C250 C251 1.349 . S
C250 C252 1.327 . S
C250 H275 0.950 . S
C251 C250 1.349 . S
C251 C267 1.349 . S
C252 C250 1.327 . S
C252 C271 1.429 . S
C252 H276 0.950 . S
C253 C270 1.574 . S
C253 C272 1.368 . S
C253 H277 0.949 . S
H254 C258 0.949 . S
C255 C256 1.349 . S
C255 C257 1.327 . S
C255 H278 0.950 . S
C256 C255 1.349 . S
C256 C268 1.349 . S
C257 C255 1.327 . S
C257 C273 1.429 . S
C257 H279 0.950 . S
C258 H254 0.949 . S
C258 C266 1.574 . S
C258 C274 1.368 . S
H259 C267 0.950 . S
H260 C265 0.950 . S
H261 C266 0.949 . S
H262 C268 0.950 . S
H263 C269 0.950 . S
H264 C270 0.949 . S
C265 H260 0.950 . S
C265 C267 1.327 . S
C265 C271 1.429 . S
C266 C258 1.574 . S
C266 H261 0.949 . S
C266 C272 1.368 . S
C267 C251 1.349 . S
C267 H259 0.950 . S
C267 C265 1.327 . S
C268 C256 1.349 . S
C268 H262 0.950 . S
C268 C269 1.327 . S
C269 H263 0.950 . S
C269 C268 1.327 . S
C269 C273 1.429 . S
C270 C253 1.574 . S
C270 H264 0.949 . S
C270 C274 1.368 . S
C271 C252 1.429 . S
C271 C265 1.429 . S
C271 C272 1.523 . S
C272 C253 1.368 . S
C272 C266 1.368 . S
C272 C271 1.523 . S
C273 C257 1.429 . S
C273 C269 1.429 . S
C273 C274 1.523 . S
C274 C258 1.368 . S
C274 C270 1.368 . S
C274 C273 1.523 . S
H275 C250 0.950 . S
H276 C252 0.950 . S
H277 C253 0.949 . S
H278 C255 0.950 . S
H279 C257 0.950 . S
C280 C281 1.349 . S
C280 C282 1.327 . S
C280 H305 0.950 . S
C281 C280 1.349 . S
C281 C297 1.349 . S
C282 C280 1.327 . S
C282 C301 1.429 . S
C282 H306 0.950 . S
C283 C300 1.574 . S
C283 C302 1.368 . S
C283 H307 0.949 . S
H284 C288 0.949 . S
C285 C286 1.349 . S
C285 C287 1.327 . S
C285 H308 0.950 . S
C286 C285 1.349 . S
C286 C298 1.349 . S
C287 C285 1.327 . S
C287 C303 1.429 . S
C287 H309 0.950 . S
C288 H284 0.949 . S
C288 C296 1.574 . S
C288 C304 1.368 . S
H289 C297 0.950 . S
H290 C295 0.950 . S
H291 C296 0.949 . S
H292 C298 0.950 . S
H293 C299 0.950 . S
H294 C300 0.949 . S
C295 H290 0.950 . S
C295 C297 1.327 . S
C295 C301 1.429 . S
C296 C288 1.574 . S
C296 H291 0.949 . S
C296 C302 1.368 . S
C297 C281 1.349 . S
C297 H289 0.950 . S
C297 C295 1.327 . S
C298 C286 1.349 . S
C298 H292 0.950 . S
C298 C299 1.327 . S
C299 H293 0.950 . S
C299 C298 1.327 . S
C299 C303 1.429 . S
C300 C283 1.574 . S
C300 H294 0.949 . S
C300 C304 1.368 . S
C301 C282 1.429 . S
C301 C295 1.429 . S
C301 C302 1.523 . S
C302 C283 1.368 . S
C302 C296 1.368 . S
C302 C301 1.523 . S
C303 C287 1.429 . S
C303 C299 1.429 . S
C303 C304 1.523 . S
C304 C288 1.368 . S
C304 C300 1.368 . S
C304 C303 1.523 . S
H305 C280 0.950 . S
H306 C282 0.950 . S
H307 C283 0.949 . S
H308 C285 0.950 . S
H309 C287 0.950 . S
C310 C311 1.349 . S
C310 C312 1.327 . S
C310 H335 0.950 . S
C311 C310 1.349 . S
C311 C327 1.349 . S
C312 C310 1.327 . S
C312 C331 1.429 . S
C312 H336 0.950 . S
C313 C330 1.574 . S
C313 C332 1.368 . S
C313 H337 0.949 . S
H314 C318 0.949 . S
C315 C316 1.349 . S
C315 C317 1.327 . S
C315 H338 0.950 . S
C316 C315 1.349 . S
C316 C328 1.349 . S
C317 C315 1.327 . S
C317 C333 1.429 . S
C317 H339 0.950 . S
C318 H314 0.949 . S
C318 C326 1.574 . S
C318 C334 1.368 . S
H319 C327 0.950 . S
H320 C325 0.950 . S
H321 C326 0.949 . S
H322 C328 0.950 . S
H323 C329 0.950 . S
H324 C330 0.949 . S
C325 H320 0.950 . S
C325 C327 1.327 . S
C325 C331 1.429 . S
C326 C318 1.574 . S
C326 H321 0.949 . S
C326 C332 1.368 . S
C327 C311 1.349 . S
C327 H319 0.950 . S
C327 C325 1.327 . S
C328 C316 1.349 . S
C328 H322 0.950 . S
C328 C329 1.327 . S
C329 H323 0.950 . S
C329 C328 1.327 . S
C329 C333 1.429 . S
C330 C313 1.574 . S
C330 H324 0.949 . S
C330 C334 1.368 . S
C331 C312 1.429 . S
C331 C325 1.429 . S
C331 C332 1.523 . S
C332 C313 1.368 . S
C332 C326 1.368 . S
C332 C331 1.523 . S
C333 C317 1.429 . S
C333 C329 1.429 . S
C333 C334 1.523 . S
C334 C318 1.368 . S
C334 C330 1.368 . S
C334 C333 1.523 . S
H335 C310 0.950 . S
H336 C312 0.950 . S
H337 C313 0.949 . S
H338 C315 0.950 . S
H339 C317 0.950 . S
C340 C341 1.349 . S
C340 C342 1.327 . S
C340 H365 0.950 . S
C341 C340 1.349 . S
C341 C357 1.349 . S
C342 C340 1.327 . S
C342 C361 1.429 . S
C342 H366 0.950 . S
C343 C360 1.574 . S
C343 C362 1.368 . S
C343 H367 0.949 . S
H344 C348 0.949 . S
C345 C346 1.349 . S
C345 C347 1.327 . S
C345 H368 0.950 . S
C346 C345 1.349 . S
C346 C358 1.349 . S
C347 C345 1.327 . S
C347 C363 1.429 . S
C347 H369 0.950 . S
C348 H344 0.949 . S
C348 C356 1.574 . S
C348 C364 1.368 . S
H349 C357 0.950 . S
H350 C355 0.950 . S
H351 C356 0.949 . S
H352 C358 0.950 . S
H353 C359 0.950 . S
H354 C360 0.949 . S
C355 H350 0.950 . S
C355 C357 1.327 . S
C355 C361 1.429 . S
C356 C348 1.574 . S
C356 H351 0.949 . S
C356 C362 1.368 . S
C357 C341 1.349 . S
C357 H349 0.950 . S
C357 C355 1.327 . S
C358 C346 1.349 . S
C358 H352 0.950 . S
C358 C359 1.327 . S
C359 H353 0.950 . S
C359 C358 1.327 . S
C359 C363 1.429 . S
C360 C343 1.574 . S
C360 H354 0.949 . S
C360 C364 1.368 . S
C361 C342 1.429 . S
C361 C355 1.429 . S
C361 C362 1.523 . S
C362 C343 1.368 . S
C362 C356 1.368 . S
C362 C361 1.523 . S
C363 C347 1.429 . S
C363 C359 1.429 . S
C363 C364 1.523 . S
C364 C348 1.368 . S
C364 C360 1.368 . S
C364 C363 1.523 . S
H365 C340 0.950 . S
H366 C342 0.950 . S
H367 C343 0.949 . S
H368 C345 0.950 . S
H369 C347 0.950 . S
C370 C371 1.349 . S
C370 C372 1.327 . S
C370 H395 0.950 . S
C371 C370 1.349 . S
C371 C387 1.349 . S
C372 C370 1.327 . S
C372 C391 1.429 . S
C372 H396 0.950 . S
C373 C390 1.574 . S
C373 C392 1.368 . S
C373 H397 0.949 . S
H374 C378 0.949 . S
C375 C376 1.349 . S
C375 C377 1.327 . S
C375 H398 0.950 . S
C376 C375 1.349 . S
C376 C388 1.349 . S
C377 C375 1.327 . S
C377 C393 1.429 . S
C377 H399 0.950 . S
C378 H374 0.949 . S
C378 C386 1.574 . S
C378 C394 1.368 . S
H379 C387 0.950 . S
H380 C385 0.950 . S
H381 C386 0.949 . S
H382 C388 0.950 . S
H383 C389 0.950 . S
H384 C390 0.949 . S
C385 H380 0.950 . S
C385 C387 1.327 . S
C385 C391 1.429 . S
C386 C378 1.574 . S
C386 H381 0.949 . S
C386 C392 1.368 . S
C387 C371 1.349 . S
C387 H379 0.950 . S
C387 C385 1.327 . S
C388 C376 1.349 . S
C388 H382 0.950 . S
C388 C389 1.327 . S
C389 H383 0.950 . S
C389 C388 1.327 . S
C389 C393 1.429 . S
C390 C373 1.574 . S
C390 H384 0.949 . S
C390 C394 1.368 . S
C391 C372 1.429 . S
C391 C385 1.429 . S
C391 C392 1.523 . S
C392 C373 1.368 . S
C392 C386 1.368 . S
C392 C391 1.523 . S
C393 C377 1.429 . S
C393 C389 1.429 . S
C393 C394 1.523 . S
C394 C378 1.368 . S
C394 C390 1.368 . S
C394 C393 1.523 . S
H395 C370 0.950 . S
H396 C372 0.950 . S
H397 C373 0.949 . S
H398 C375 0.950 . S
H399 C377 0.950 . S
C400 C401 1.349 . S
C400 C402 1.327 . S
C400 H425 0.950 . S
C401 C400 1.349 . S
C401 C417 1.349 . S
C402 C400 1.327 . S
C402 C421 1.429 . S
C402 H426 0.950 . S
C403 C420 1.574 . S
C403 C422 1.368 . S
C403 H427 0.949 . S
H404 C408 0.949 . S
C405 C406 1.349 . S
C405 C407 1.327 . S
C405 H428 0.950 . S
C406 C405 1.349 . S
C406 C418 1.349 . S
C407 C405 1.327 . S
C407 C423 1.429 . S
C407 H429 0.950 . S
C408 H404 0.949 . S
C408 C416 1.574 . S
C408 C424 1.368 . S
H409 C417 0.950 . S
H410 C415 0.950 . S
H411 C416 0.949 . S
H412 C418 0.950 . S
H413 C419 0.950 . S
H414 C420 0.949 . S
C415 H410 0.950 . S
C415 C417 1.327 . S
C415 C421 1.429 . S
C416 C408 1.574 . S
C416 H411 0.949 . S
C416 C422 1.368 . S
C417 C401 1.349 . S
C417 H409 0.950 . S
C417 C415 1.327 . S
C418 C406 1.349 . S
C418 H412 0.950 . S
C418 C419 1.327 . S
C419 H413 0.950 . S
C419 C418 1.327 . S
C419 C423 1.429 . S
C420 C403 1.574 . S
C420 H414 0.949 . S
C420 C424 1.368 . S
C421 C402 1.429 . S
C421 C415 1.429 . S
C421 C422 1.523 . S
C422 C403 1.368 . S
C422 C416 1.368 . S
C422 C421 1.523 . S
C423 C407 1.429 . S
C423 C419 1.429 . S
C423 C424 1.523 . S
C424 C408 1.368 . S
C424 C420 1.368 . S
C424 C423 1.523 . S
H425 C400 0.950 . S
H426 C402 0.950 . S
H427 C403 0.949 . S
H428 C405 0.950 . S
H429 C407 0.950 . S
C430 C431 1.349 . S
C430 C432 1.327 . S
C430 H455 0.950 . S
C431 C430 1.349 . S
C431 C447 1.349 . S
C432 C430 1.327 . S
C432 C451 1.429 . S
C432 H456 0.950 . S
C433 C450 1.574 . S
C433 C452 1.368 . S
C433 H457 0.949 . S
H434 C438 0.949 . S
C435 C436 1.349 . S
C435 C437 1.327 . S
C435 H458 0.950 . S
C436 C435 1.349 . S
C436 C448 1.349 . S
C437 C435 1.327 . S
C437 C453 1.429 . S
C437 H459 0.950 . S
C438 H434 0.949 . S
C438 C446 1.574 . S
C438 C454 1.368 . S
H439 C447 0.950 . S
H440 C445 0.950 . S
H441 C446 0.949 . S
H442 C448 0.950 . S
H443 C449 0.950 . S
H444 C450 0.949 . S
C445 H440 0.950 . S
C445 C447 1.327 . S
C445 C451 1.429 . S
C446 C438 1.574 . S
C446 H441 0.949 . S
C446 C452 1.368 . S
C447 C431 1.349 . S
C447 H439 0.950 . S
C447 C445 1.327 . S
C448 C436 1.349 . S
C448 H442 0.950 . S
C448 C449 1.327 . S
C449 H443 0.950 . S
C449 C448 1.327 . S
C449 C453 1.429 . S
C450 C433 1.574 . S
C450 H444 0.949 . S
C450 C454 1.368 . S
C451 C432 1.429 . S
C451 C445 1.429 . S
C451 C452 1.523 . S
C452 C433 1.368 . S
C452 C446 1.368 . S
C452 C451 1.523 . S
C453 C437 1.429 . S
C453 C449 1.429 . S
C453 C454 1.523 . S
C454 C438 1.368 . S
C454 C450 1.368 . S
C454 C453 1.523 . S
H455 C430 0.950 . S
H456 C432 0.950 . S
H457 C433 0.949 . S
H458 C435 0.950 . S
H459 C437 0.950 . S
C460 C461 1.349 . S
C460 C462 1.327 . S
C460 H485 0.950 . S
C461 C460 1.349 . S
C461 C477 1.349 . S
C462 C460 1.327 . S
C462 C481 1.429 . S
C462 H486 0.950 . S
C463 C480 1.574 . S
C463 C482 1.368 . S
C463 H487 0.949 . S
H464 C468 0.949 . S
C465 C466 1.349 . S
C465 C467 1.327 . S
C465 H488 0.950 . S
C466 C465 1.349 . S
C466 C478 1.349 . S
C467 C465 1.327 . S
C467 C483 1.429 . S
C467 H489 0.950 . S
C468 H464 0.949 . S
C468 C476 1.574 . S
C468 C484 1.368 . S
H469 C477 0.950 . S
H470 C475 0.950 . S
H471 C476 0.949 . S
H472 C478 0.950 . S
H473 C479 0.950 . S
H474 C480 0.949 . S
C475 H470 0.950 . S
C475 C477 1.327 . S
C475 C481 1.429 . S
C476 C468 1.574 . S
C476 H471 0.949 . S
C476 C482 1.368 . S
C477 C461 1.349 . S
C477 H469 0.950 . S
C477 C475 1.327 . S
C478 C466 1.349 . S
C478 H472 0.950 . S
C478 C479 1.327 . S
C479 H473 0.950 . S
C479 C478 1.327 . S
C479 C483 1.429 . S
C480 C463 1.574 . S
C480 H474 0.949 . S
C480 C484 1.368 . S
C481 C462 1.429 . S
C481 C475 1.429 . S
C481 C482 1.523 . S
C482 C463 1.368 . S
C482 C476 1.368 . S
C482 C481 1.523 . S
C483 C467 1.429 . S
C483 C479 1.429 . S
C483 C484 1.523 . S
C484 C468 1.368 . S
C484 C480 1.368 . S
C484 C483 1.523 . S
H485 C460 0.950 . S
H486 C462 0.950 . S
H487 C463 0.949 . S
H488 C465 0.950 . S
H489 C467 0.950 . S
C490 C491 1.349 . S
C490 C492 1.327 . S
C490 H515 0.950 . S
C491 C490 1.349 . S
C491 C507 1.349 . S
C492 C490 1.327 . S
C492 C511 1.429 . S
C492 H516 0.950 . S
C493 C510 1.574 . S
C493 C512 1.368 . S
C493 H517 0.949 . S
H494 C498 0.949 . S
C495 C496 1.349 . S
C495 C497 1.327 . S
C495 H518 0.950 . S
C496 C495 1.349 . S
C496 C508 1.349 . S
C497 C495 1.327 . S
C497 C513 1.429 . S
C497 H519 0.950 . S
C498 H494 0.949 . S
C498 C506 1.574 . S
C498 C514 1.368 . S
H499 C507 0.950 . S
H500 C505 0.950 . S
H501 C506 0.949 . S
H502 C508 0.950 . S
H503 C509 0.950 . S
H504 C510 0.949 . S
C505 H500 0.950 . S
C505 C507 1.327 . S
C505 C511 1.429 . S
C506 C498 1.574 . S
C506 H501 0.949 . S
C506 C512 1.368 . S
C507 C491 1.349 . S
C507 H499 0.950 . S
C507 C505 1.327 . S
C508 C496 1.349 . S
C508 H502 0.950 . S
C508 C509 1.327 . S
C509 H503 0.950 . S
C509 C508 1.327 . S
C509 C513 1.429 . S
C510 C493 1.574 . S
C510 H504 0.949 . S
C510 C514 1.368 . S
C511 C492 1.429 . S
C511 C505 1.429 . S
C511 C512 1.523 . S
C512 C493 1.368 . S
C512 C506 1.368 . S
C512 C511 1.523 . S
C513 C497 1.429 . S
C513 C509 1.429 . S
C513 C514 1.523 . S
C514 C498 1.368 . S
C514 C510 1.368 . S
C514 C513 1.523 . S
H515 C490 0.950 . S
H516 C492 0.950 . S
H517 C493 0.949 . S
H518 C495 0.950 . S
H519 C497 0.950 . S
C520 C521 1.349 . S
C520 C522 1.327 . S
C520 H545 0.950 . S
C521 C520 1.349 . S
C521 C537 1.349 . S
C522 C520 1.327 . S
C522 C541 1.429 . S
C522 H546 0.950 . S
C523 C540 1.574 . S
C523 C542 1.368 . S
C523 H547 0.949 . S
H524 C528 0.949 . S
C525 C526 1.349 . S
C525 C527 1.327 . S
C525 H548 0.950 . S
C526 C525 1.349 . S
C526 C538 1.349 . S
C527 C525 1.327 . S
C527 C543 1.429 . S
C527 H549 0.950 . S
C528 H524 0.949 . S
C528 C536 1.574 . S
C528 C544 1.368 . S
H529 C537 0.950 . S
H530 C535 0.950 . S
H531 C536 0.949 . S
H532 C538 0.950 . S
H533 C539 0.950 . S
H534 C540 0.949 . S
C535 H530 0.950 . S
C535 C537 1.327 . S
C535 C541 1.429 . S
C536 C528 1.574 . S
C536 H531 0.949 . S
C536 C542 1.368 . S
C537 C521 1.349 . S
C537 H529 0.950 . S
C537 C535 1.327 . S
C538 C526 1.349 . S
C538 H532 0.950 . S
C538 C539 1.327 . S
C539 H533 0.950 . S
C539 C538 1.327 . S
C539 C543 1.429 . S
C540 C523 1.574 . S
C540 H534 0.949 . S
C540 C544 1.368 . S
C541 C522 1.429 . S
C541 C535 1.429 . S
C541 C542 1.523 . S
C542 C523 1.368 . S
C542 C536 1.368 . S
C542 C541 1.523 . S
C543 C527 1.429 . S
C543 C539 1.429 . S
C543 C544 1.523 . S
C544 C528 1.368 . S
C544 C540 1.368 . S
C544 C543 1.523 . S
H545 C520 0.950 . S
H546 C522 0.950 . S
H547 C523 0.949 . S
H548 C525 0.950 . S
H549 C527 0.950 . S
C550 C551 1.349 . S
C550 C552 1.327 . S
C550 H575 0.950 . S
C551 C550 1.349 . S
C551 C567 1.349 . S
C552 C550 1.327 . S
C552 C571 1.429 . S
C552 H576 0.950 . S
C553 C570 1.574 . S
C553 C572 1.368 . S
C553 H577 0.949 . S
H554 C558 0.949 . S
C555 C556 1.349 . S
C555 C557 1.327 . S
C555 H578 0.950 . S
C556 C555 1.349 . S
C556 C568 1.349 . S
C557 C555 1.327 . S
C557 C573 1.429 . S
C557 H579 0.950 . S
C558 H554 0.949 . S
C558 C566 1.574 . S
C558 C574 1.368 . S
H559 C567 0.950 . S
H560 C565 0.950 . S
H561 C566 0.949 . S
H562 C568 0.950 . S
H563 C569 0.950 . S
H564 C570 0.949 . S
C565 H560 0.950 . S
C565 C567 1.327 . S
C565 C571 1.429 . S
C566 C558 1.574 . S
C566 H561 0.949 . S
C566 C572 1.368 . S
C567 C551 1.349 . S
C567 H559 0.950 . S
C567 C565 1.327 . S
C568 C556 1.349 . S
C568 H562 0.950 . S
C568 C569 1.327 . S
C569 H563 0.950 . S
C569 C568 1.327 . S
C569 C573 1.429 . S
C570 C553 1.574 . S
C570 H564 0.949 . S
C570 C574 1.368 . S
C571 C552 1.429 . S
C571 C565 1.429 . S
C571 C572 1.523 . S
C572 C553 1.368 . S
C572 C566 1.368 . S
C572 C571 1.523 . S
C573 C557 1.429 . S
C573 C569 1.429 . S
C573 C574 1.523 . S
C574 C558 1.368 . S
C574 C570 1.368 . S
C574 C573 1.523 . S
H575 C550 0.950 . S
H576 C552 0.950 . S
H577 C553 0.949 . S
H578 C555 0.950 . S
H579 C557 0.950 . S
C580 C581 1.349 . S
C580 C582 1.327 . S
C580 H605 0.950 . S
C581 C580 1.349 . S
C581 C597 1.349 . S
C582 C580 1.327 . S
C582 C601 1.429 . S
C582 H606 0.950 . S
C583 C600 1.574 . S
C583 C602 1.368 . S
C583 H607 0.949 . S
H584 C588 0.949 . S
C585 C586 1.349 . S
C585 C587 1.327 . S
C585 H608 0.950 . S
C586 C585 1.349 . S
C586 C598 1.349 . S
C587 C585 1.327 . S
C587 C603 1.429 . S
C587 H609 0.950 . S
C588 H584 0.949 . S
C588 C596 1.574 . S
C588 C604 1.368 . S
H589 C597 0.950 . S
H590 C595 0.950 . S
H591 C596 0.949 . S
H592 C598 0.950 . S
H593 C599 0.950 . S
H594 C600 0.949 . S
C595 H590 0.950 . S
C595 C597 1.327 . S
C595 C601 1.429 . S
C596 C588 1.574 . S
C596 H591 0.949 . S
C596 C602 1.368 . S
C597 C581 1.349 . S
C597 H589 0.950 . S
C597 C595 1.327 . S
C598 C586 1.349 . S
C598 H592 0.950 . S
C598 C599 1.327 . S
C599 H593 0.950 . S
C599 C598 1.327 . S
C599 C603 1.429 . S
C600 C583 1.574 . S
C600 H594 0.949 . S
C600 C604 1.368 . S
C601 C582 1.429 . S
C601 C595 1.429 . S
C601 C602 1.523 . S
C602 C583 1.368 . S
C602 C596 1.368 . S
C602 C601 1.523 . S
C603 C587 1.429 . S
C603 C599 1.429 . S
C603 C604 1.523 . S
C604 C588 1.368 . S
C604 C600 1.368 . S
C604 C603 1.523 . S
H605 C580 0.950 . S
H606 C582 0.950 . S
H607 C583 0.949 . S
H608 C585 0.950 . S
H609 C587 0.950 . S
C610 C611 1.349 . S
C610 C612 1.327 . S
C610 H635 0.950 . S
C611 C610 1.349 . S
C611 C627 1.349 . S
C612 C610 1.327 . S
C612 C631 1.429 . S
C612 H636 0.950 . S
C613 C630 1.574 . S
C613 C632 1.368 . S
C613 H637 0.949 . S
H614 C618 0.949 . S
C615 C616 1.349 . S
C615 C617 1.327 . S
C615 H638 0.950 . S
C616 C615 1.349 . S
C616 C628 1.349 . S
C617 C615 1.327 . S
C617 C633 1.429 . S
C617 H639 0.950 . S
C618 H614 0.949 . S
C618 C626 1.574 . S
C618 C634 1.368 . S
H619 C627 0.950 . S
H620 C625 0.950 . S
H621 C626 0.949 . S
H622 C628 0.950 . S
H623 C629 0.950 . S
H624 C630 0.949 . S
C625 H620 0.950 . S
C625 C627 1.327 . S
C625 C631 1.429 . S
C626 C618 1.574 . S
C626 H621 0.949 . S
C626 C632 1.368 . S
C627 C611 1.349 . S
C627 H619 0.950 . S
C627 C625 1.327 . S
C628 C616 1.349 . S
C628 H622 0.950 . S
C628 C629 1.327 . S
C629 H623 0.950 . S
C629 C628 1.327 . S
C629 C633 1.429 . S
C630 C613 1.574 . S
C630 H624 0.949 . S
C630 C634 1.368 . S
C631 C612 1.429 . S
C631 C625 1.429 . S
C631 C632 1.523 . S
C632 C613 1.368 . S
C632 C626 1.368 . S
C632 C631 1.523 . S
C633 C617 1.429 . S
C633 C629 1.429 . S
C633 C634 1.523 . S
C634 C618 1.368 . S
C634 C630 1.368 . S
C634 C633 1.523 . S
H635 C610 0.950 . S
H636 C612 0.950 . S
H637 C613 0.949 . S
H638 C615 0.950 . S
H639 C617 0.950 . S
C640 C641 1.333 1_556 S
C640 C642 1.327 . S
C640 H665 0.950 . S
C641 C640 1.333 1_554 S
C641 C657 1.365 . S
C642 C640 1.327 . S
C642 C661 1.415 1_556 S
C642 H666 0.950 . S
C643 C660 1.574 . S
C643 C662 1.382 . S
C643 H667 0.949 . S
H644 C648 0.949 . S
C645 C646 1.357 . S
C645 C647 1.327 . S
C645 H668 0.950 . S
C646 C645 1.357 . S
C646 C658 1.341 1_554 S
C647 C645 1.327 . S
C647 C663 1.438 . S
C647 H669 0.950 . S
C648 H644 0.949 . S
C648 C656 1.574 . S
C648 C664 1.357 1_556 S
H649 C657 0.950 . S
H650 C655 0.950 . S
H651 C656 0.949 . S
H652 C658 0.950 . S
H653 C659 0.950 . S
H654 C660 0.949 . S
C655 H650 0.950 . S
C655 C657 1.327 . S
C655 C661 1.442 . S
C656 C648 1.574 . S
C656 H651 0.949 . S
C656 C662 1.355 1_556 S
C657 C641 1.365 . S
C657 H649 0.950 . S
C657 C655 1.327 . S
C658 C646 1.341 1_556 S
C658 H652 0.950 . S
C658 C659 1.327 . S
C659 H653 0.950 . S
C659 C658 1.327 . S
C659 C663 1.419 1_556 S
C660 C643 1.574 . S
C660 H654 0.949 . S
C660 C664 1.380 . S
C661 C642 1.415 1_554 S
C661 C655 1.442 . S
C661 C662 1.523 . S
C662 C643 1.382 . S
C662 C656 1.355 1_554 S
C662 C661 1.523 . S
C663 C647 1.438 . S
C663 C659 1.419 1_554 S
C663 C664 1.523 . S
C664 C648 1.357 1_554 S
C664 C660 1.380 . S
C664 C663 1.523 . S
H665 C640 0.950 . S
H666 C642 0.950 . S
H667 C643 0.949 . S
H668 C645 0.950 . S
H669 C647 0.950 . S
C670 C671 1.349 . S
C670 C672 1.327 . S
C670 H695 0.950 . S
C671 C670 1.349 . S
C671 C687 1.349 . S
C672 C670 1.327 . S
C672 C691 1.429 . S
C672 H696 0.950 . S
C673 C690 1.574 . S
C673 C692 1.368 . S
C673 H697 0.949 . S
H674 C678 0.949 . S
C675 C676 1.349 . S
C675 C677 1.327 . S
C675 H698 0.950 . S
C676 C675 1.349 . S
C676 C688 1.349 . S
C677 C675 1.327 . S
C677 C693 1.429 . S
C677 H699 0.950 . S
C678 H674 0.949 . S
C678 C686 1.574 . S
C678 C694 1.368 . S
H679 C687 0.950 . S
H680 C685 0.950 . S
H681 C686 0.949 . S
H682 C688 0.950 . S
H683 C689 0.950 . S
H684 C690 0.949 . S
C685 H680 0.950 . S
C685 C687 1.327 . S
C685 C691 1.429 . S
C686 C678 1.574 . S
C686 H681 0.949 . S
C686 C692 1.368 . S
C687 C671 1.349 . S
C687 H679 0.950 . S
C687 C685 1.327 . S
C688 C676 1.349 . S
C688 H682 0.950 . S
C688 C689 1.327 . S
C689 H683 0.950 . S
C689 C688 1.327 . S
C689 C693 1.429 . S
C690 C673 1.574 . S
C690 H684 0.949 . S
C690 C694 1.368 . S
C691 C672 1.429 . S
C691 C685 1.429 . S
C691 C692 1.523 . S
C692 C673 1.368 . S
C692 C686 1.368 . S
C692 C691 1.523 . S
C693 C677 1.429 . S
C693 C689 1.429 . S
C693 C694 1.523 . S
C694 C678 1.368 . S
C694 C690 1.368 . S
C694 C693 1.523 . S
H695 C670 0.950 . S
H696 C672 0.950 . S
H697 C673 0.949 . S
H698 C675 0.950 . S
H699 C677 0.950 . S
C700 C701 1.366 . S
C700 C702 1.327 . S
C700 H725 0.950 . S
C701 C700 1.366 . S
C701 C717 1.332 1_554 S
C702 C700 1.327 . S
C702 C721 1.443 . S
C702 H726 0.950 . S
C703 C720 1.574 . S
C703 C722 1.354 1_556 S
C703 H727 0.949 . S
H704 C708 0.949 . S
C705 C706 1.341 1_556 S
C705 C707 1.327 . S
C705 H728 0.950 . S
C706 C705 1.341 1_554 S
C706 C718 1.356 . S
C707 C705 1.327 . S
C707 C723 1.419 1_556 S
C707 H729 0.950 . S
C708 H704 0.949 . S
C708 C716 1.574 . S
C708 C724 1.380 . S
H709 C717 0.950 . S
H710 C715 0.950 . S
H711 C716 0.949 . S
H712 C718 0.950 . S
H713 C719 0.950 . S
H714 C720 0.949 . S
C715 H710 0.950 . S
C715 C717 1.327 . S
C715 C721 1.415 1_556 S
C716 C708 1.574 . S
C716 H711 0.949 . S
C716 C722 1.382 . S
C717 C701 1.332 1_556 S
C717 H709 0.950 . S
C717 C715 1.327 . S
C718 C706 1.356 . S
C718 H712 0.950 . S
C718 C719 1.327 . S
C719 H713 0.950 . S
C719 C718 1.327 . S
C719 C723 1.438 . S
C720 C703 1.574 . S
C720 H714 0.949 . S
C720 C724 1.357 1_556 S
C721 C702 1.443 . S
C721 C715 1.415 1_554 S
C721 C722 1.523 . S
C722 C703 1.354 1_554 S
C722 C716 1.382 . S
C722 C721 1.523 . S
C723 C707 1.419 1_554 S
C723 C719 1.438 . S
C723 C724 1.523 . S
C724 C708 1.380 . S
C724 C720 1.357 1_554 S
C724 C723 1.523 . S
H725 C700 0.950 . S
H726 C702 0.950 . S
H727 C703 0.949 . S
H728 C705 0.950 . S
H729 C707 0.950 . S
C730 C731 1.349 . S
C730 C732 1.327 . S
C730 H755 0.950 . S
C731 C730 1.349 . S
C731 C747 1.349 . S
C732 C730 1.327 . S
C732 C751 1.429 . S
C732 H756 0.950 . S
C733 C750 1.574 . S
C733 C752 1.368 . S
C733 H757 0.949 . S
H734 C738 0.949 . S
C735 C736 1.349 . S
C735 C737 1.327 . S
C735 H758 0.950 . S
C736 C735 1.349 . S
C736 C748 1.349 . S
C737 C735 1.327 . S
C737 C753 1.429 . S
C737 H759 0.950 . S
C738 H734 0.949 . S
C738 C746 1.574 . S
C738 C754 1.368 . S
H739 C747 0.950 . S
H740 C745 0.950 . S
H741 C746 0.949 . S
H742 C748 0.950 . S
H743 C749 0.950 . S
H744 C750 0.949 . S
C745 H740 0.950 . S
C745 C747 1.327 . S
C745 C751 1.429 . S
C746 C738 1.574 . S
C746 H741 0.949 . S
C746 C752 1.368 . S
C747 C731 1.349 . S
C747 H739 0.950 . S
C747 C745 1.327 . S
C748 C736 1.349 . S
C748 H742 0.950 . S
C748 C749 1.327 . S
C749 H743 0.950 . S
C749 C748 1.327 . S
C749 C753 1.429 . S
C750 C733 1.574 . S
C750 H744 0.949 . S
C750 C754 1.368 . S
C751 C732 1.429 . S
C751 C745 1.429 . S
C751 C752 1.523 . S
C752 C733 1.368 . S
C752 C746 1.368 . S
C752 C751 1.523 . S
C753 C737 1.429 . S
C753 C749 1.429 . S
C753 C754 1.523 . S
C754 C738 1.368 . S
C754 C750 1.368 . S
C754 C753 1.523 . S
H755 C730 0.950 . S
H756 C732 0.950 . S
H757 C733 0.949 . S
H758 C735 0.950 . S
H759 C737 0.950 . S
C760 C761 1.349 . S
C760 C762 1.327 . S
C760 H785 0.950 . S
C761 C760 1.349 . S
C761 C777 1.349 . S
C762 C760 1.327 . S
C762 C781 1.429 . S
C762 H786 0.950 . S
C763 C780 1.574 . S
C763 C782 1.368 . S
C763 H787 0.949 . S
H764 C768 0.949 . S
C765 C766 1.349 . S
C765 C767 1.327 . S
C765 H788 0.950 . S
C766 C765 1.349 . S
C766 C778 1.349 . S
C767 C765 1.327 . S
C767 C783 1.429 . S
C767 H789 0.950 . S
C768 H764 0.949 . S
C768 C776 1.574 . S
C768 C784 1.368 . S
H769 C777 0.950 . S
H770 C775 0.950 . S
H771 C776 0.949 . S
H772 C778 0.950 . S
H773 C779 0.950 . S
H774 C780 0.949 . S
C775 H770 0.950 . S
C775 C777 1.327 . S
C775 C781 1.429 . S
C776 C768 1.574 . S
C776 H771 0.949 . S
C776 C782 1.368 . S
C777 C761 1.349 . S
C777 H769 0.950 . S
C777 C775 1.327 . S
C778 C766 1.349 . S
C778 H772 0.950 . S
C778 C779 1.327 . S
C779 H773 0.950 . S
C779 C778 1.327 . S
C779 C783 1.429 . S
C780 C763 1.574 . S
C780 H774 0.949 . S
C780 C784 1.368 . S
C781 C762 1.429 . S
C781 C775 1.429 . S
C781 C782 1.523 . S
C782 C763 1.368 . S
C782 C776 1.368 . S
C782 C781 1.523 . S
C783 C767 1.429 . S
C783 C779 1.429 . S
C783 C784 1.523 . S
C784 C768 1.368 . S
C784 C780 1.368 . S
C784 C783 1.523 . S
H785 C760 0.950 . S
H786 C762 0.950 . S
H787 C763 0.949 . S
H788 C765 0.950 . S
H789 C767 0.950 . S
C790 C791 1.349 . S
C790 C792 1.327 . S
C790 H815 0.950 . S
C791 C790 1.349 . S
C791 C807 1.349 1_554 S
C792 C790 1.327 . S
C792 C811 1.429 . S
C792 H816 0.950 . S
C793 C810 1.574 . S
C793 C812 1.368 1_556 S
C793 H817 0.949 . S
H794 C798 0.949 . S
C795 C796 1.348 1_556 S
C795 C797 1.327 . S
C795 H818 0.950 . S
C796 C795 1.348 1_554 S
C796 C808 1.350 . S
C797 C795 1.327 . S
C797 C813 1.428 1_556 S
C797 H819 0.950 . S
C798 H794 0.949 . S
C798 C806 1.574 . S
C798 C814 1.369 . S
H799 C807 0.950 . S
H800 C805 0.950 . S
H801 C806 0.949 . S
H802 C808 0.950 . S
H803 C809 0.950 . S
H804 C810 0.949 . S
C805 H800 0.950 . S
C805 C807 1.327 . S
C805 C811 1.429 1_556 S
C806 C798 1.574 . S
C806 H801 0.949 . S
C806 C812 1.369 . S
C807 C791 1.349 1_556 S
C807 H799 0.950 . S
C807 C805 1.327 . S
C808 C796 1.350 . S
C808 H802 0.950 . S
C808 C809 1.327 . S
C809 H803 0.950 . S
C809 C808 1.327 . S
C809 C813 1.429 . S
C810 C793 1.574 . S
C810 H804 0.949 . S
C810 C814 1.368 1_556 S
C811 C792 1.429 . S
C811 C805 1.429 1_554 S
C811 C812 1.523 . S
C812 C793 1.368 1_554 S
C812 C806 1.369 . S
C812 C811 1.523 . S
C813 C797 1.428 1_554 S
C813 C809 1.429 . S
C813 C814 1.523 . S
C814 C798 1.369 . S
C814 C810 1.368 1_554 S
C814 C813 1.523 . S
H815 C790 0.950 . S
H816 C792 0.950 . S
H817 C793 0.949 . S
H818 C795 0.950 . S
H819 C797 0.950 . S
C820 C821 1.349 . S
C820 C822 1.327 . S
C820 H845 0.950 . S
C821 C820 1.349 . S
C821 C837 1.349 . S
C822 C820 1.327 . S
C822 C841 1.429 . S
C822 H846 0.950 . S
C823 C840 1.574 . S
C823 C842 1.368 . S
C823 H847 0.949 . S
H824 C828 0.949 . S
C825 C826 1.349 . S
C825 C827 1.327 . S
C825 H848 0.950 . S
C826 C825 1.349 . S
C826 C838 1.349 . S
C827 C825 1.327 . S
C827 C843 1.429 . S
C827 H849 0.950 . S
C828 H824 0.949 . S
C828 C836 1.574 . S
C828 C844 1.368 . S
H829 C837 0.950 . S
H830 C835 0.950 . S
H831 C836 0.949 . S
H832 C838 0.950 . S
H833 C839 0.950 . S
H834 C840 0.949 . S
C835 H830 0.950 . S
C835 C837 1.327 . S
C835 C841 1.429 . S
C836 C828 1.574 . S
C836 H831 0.949 . S
C836 C842 1.368 . S
C837 C821 1.349 . S
C837 H829 0.950 . S
C837 C835 1.327 . S
C838 C826 1.349 . S
C838 H832 0.950 . S
C838 C839 1.327 . S
C839 H833 0.950 . S
C839 C838 1.327 . S
C839 C843 1.429 . S
C840 C823 1.574 . S
C840 H834 0.949 . S
C840 C844 1.368 . S
C841 C822 1.429 . S
C841 C835 1.429 . S
C841 C842 1.523 . S
C842 C823 1.368 . S
C842 C836 1.368 . S
C842 C841 1.523 . S
C843 C827 1.429 . S
C843 C839 1.429 . S
C843 C844 1.523 . S
C844 C828 1.368 . S
C844 C840 1.368 . S
C844 C843 1.523 . S
H845 C820 0.950 . S
H846 C822 0.950 . S
H847 C823 0.949 . S
H848 C825 0.950 . S
H849 C827 0.950 . S
C850 C851 1.348 . S
C850 C852 1.327 . S
C850 H875 0.950 . S
C851 C850 1.348 . S
C851 C867 1.350 1_556 S
C852 C850 1.327 . S
C852 C871 1.428 1_556 S
C852 H876 0.950 . S
C853 C870 1.574 . S
C853 C872 1.371 . S
C853 H877 0.949 . S
H854 C858 0.949 . S
C855 C856 1.361 . S
C855 C857 1.327 . S
C855 H878 0.950 . S
C856 C855 1.361 . S
C856 C868 1.337 1_554 S
C857 C855 1.327 . S
C857 C873 1.437 . S
C857 H879 0.950 . S
C858 H854 0.949 . S
C858 C866 1.574 . S
C858 C874 1.362 1_556 S
H859 C867 0.950 . S
H860 C865 0.950 . S
H861 C866 0.949 . S
H862 C868 0.950 . S
H863 C869 0.950 . S
H864 C870 0.949 . S
C865 H860 0.950 . S
C865 C867 1.327 . S
C865 C871 1.429 . S
C866 C858 1.574 . S
C866 H861 0.949 . S
C866 C872 1.365 1_556 S
C867 C851 1.350 1_554 S
C867 H859 0.950 . S
C867 C865 1.327 . S
C868 C856 1.337 1_556 S
C868 H862 0.950 . S
C868 C869 1.327 . S
C869 H863 0.950 . S
C869 C868 1.327 . S
C869 C873 1.421 1_556 S
C870 C853 1.574 . S
C870 H864 0.949 . S
C870 C874 1.375 . S
C871 C852 1.428 1_554 S
C871 C865 1.429 . S
C871 C872 1.523 . S
C872 C853 1.371 . S
C872 C866 1.365 1_554 S
C872 C871 1.523 . S
C873 C857 1.437 . S
C873 C869 1.421 1_554 S
C873 C874 1.523 . S
C874 C858 1.362 1_554 S
C874 C870 1.375 . S
C874 C873 1.523 . S
H875 C850 0.950 . S
H876 C852 0.950 . S
H877 C853 0.949 . S
H878 C855 0.950 . S
H879 C857 0.950 . S
C161 C21 1.494 . S
C166 C119 1.501 . S
C191 C40 1.529 . S
C196 C93 1.511 . S
C226 C102 1.440 . S
C221 C54 1.452 . S
C251 C73 1.562 . S
C256 C110 1.552 . S
C286 C138 1.440 . S
C281 C74 1.451 . S
C316 C146 1.506 . S
C311 C10 1.529 . S
C346 C155 1.502 . S
C341 C37 1.494 . S
C376 C129 1.557 . S
C371 C65 1.562 . S
C401 C52 1.450 . S
C406 C101 1.440 . S
C431 C87 1.559 . S
C436 C111 1.549 . S
C461 C15 1.492 . S
C466 C120 1.502 . S
C496 C92 1.508 . S
C491 C32 1.525 . S
C521 C29 1.493 . S
C526 C156 1.502 . S
C556 C128 1.554 . S
C551 C59 1.559 . S
C586 C137 1.440 . S
C581 C84 1.451 . S
C611 C8 1.525 . S
C616 C147 1.503 . S
C646 C95 1.647 . S
C641 C7 1.661 . S
C676 C104 1.563 . S
C671 C30 1.576 . S
C701 C62 1.678 . S
C706 C113 1.649 . S
C731 C81 1.577 . S
C736 C122 1.581 . S
C766 C131 1.655 . S
C761 C76 1.677 . S
C791 C18 1.576 1_554 S
C796 C140 1.563 . S
C821 C43 1.660 . S
C826 C149 1.641 . S
C851 C51 1.577 . S
C856 C158 1.581 . S
