# Generated by pormake.
# Topology rtl, (3,6)-cn, num edge types: 1
# Building blocks:
#     Node 0, Type 0, BuildingBlock: KAKCAD_clean_linker_0, # of connection points: 3
#     Node 1, Type 0, BuildingBlock: KAKCAD_clean_linker_0, # of connection points: 3
#     Node 2, Type 0, BuildingBlock: KAKCAD_clean_linker_0, # of connection points: 3
#     Node 3, Type 0, BuildingBlock: KAKCAD_clean_linker_0, # of connection points: 3
#     Node 4, Type 1, BuildingBlock: CIFDUS_clean_sbu_1, # of connection points: 6
#     Node 5, Type 1, BuildingBlock: CIFDUS_clean_sbu_1, # of connection points: 6
#     Edge 6, Type (0, 1), BuildingBlock: ZUJKAS_clean_linker_0, # of connection points: 2
#     Edge 7, Type (0, 1), BuildingBlock: ZUJKAS_clean_linker_0, # of connection points: 2
#     Edge 8, Type (0, 1), BuildingBlock: ZUJKAS_clean_linker_0, # of connection points: 2
#     Edge 9, Type (0, 1), BuildingBlock: ZUJKAS_clean_linker_0, # of connection points: 2
#     Edge 10, Type (0, 1), BuildingBlock: ZUJKAS_clean_linker_0, # of connection points: 2
#     Edge 11, Type (0, 1), BuildingBlock: ZUJKAS_clean_linker_0, # of connection points: 2
#     Edge 12, Type (0, 1), BuildingBlock: ZUJKAS_clean_linker_0, # of connection points: 2
#     Edge 13, Type (0, 1), BuildingBlock: ZUJKAS_clean_linker_0, # of connection points: 2
#     Edge 14, Type (0, 1), BuildingBlock: ZUJKAS_clean_linker_0, # of connection points: 2
#     Edge 15, Type (0, 1), BuildingBlock: ZUJKAS_clean_linker_0, # of connection points: 2
#     Edge 16, Type (0, 1), BuildingBlock: ZUJKAS_clean_linker_0, # of connection points: 2
#     Edge 17, Type (0, 1), BuildingBlock: ZUJKAS_clean_linker_0, # of connection points: 2
# Relax obj value: 0.028
# Max RMSD: 0.063
# Mean RMSD: 0.048
data_MOF--net-rtl--node1-CIFDUS_clean_sbu_1--node2-KAKCAD_clean_linker_0--edge1-ZUJKAS_clean_linker_0
_symmetry_space_group_name_H-M    P1
_symmetry_Int_Tables_number       1
_symmetry_cell_setting            triclinic
loop_
_symmetry_equiv_pos_as_xyz
'x, y, z'
_cell_length_a     46.570505
_cell_length_b     53.012613
_cell_length_c     36.745542
_cell_angle_alpha  89.970593
_cell_angle_beta   97.674276
_cell_angle_gamma 90.005547
loop_
_atom_site_label
_atom_site_type_symbol
_atom_site_fract_x
_atom_site_fract_y
_atom_site_fract_z
_atom_type_partial_charge
C0 C 0.23776 0.90997 0.95795 0.0
C1 C 0.22739 0.9348 0.9544 0.0
C2 C 0.25159 0.90113 0.9916 0.0
C3 C 0.25612 0.91706 0.02255 0.0
C4 C 0.24636 0.94224 0.01854 0.0
C5 C 0.23183 0.9509 0.98496 0.0
C6 C 0.26963 0.90692 0.05897 0.0
C7 C 0.28994 0.88711 0.06081 0.0
C8 C 0.29998 0.87514 0.09425 0.0
C9 C 0.29069 0.8841 0.12675 0.0
C10 C 0.27106 0.90437 0.12585 0.0
C11 C 0.26065 0.91557 0.09191 0.0
C12 C 0.25943 0.91263 0.15977 0.0
C13 C 0.24887 0.89482 0.18303 0.0
C14 C 0.2573 0.93842 0.16802 0.0
C15 C 0.24449 0.94623 0.19854 0.0
C16 C 0.23313 0.92842 0.22115 0.0
C17 C 0.31794 0.85184 0.09442 0.0
C18 C 0.30997 0.83276 0.06844 0.0
C19 C 0.34236 0.84799 0.12081 0.0
C20 C 0.35828 0.82547 0.12128 0.0
C21 C 0.34975 0.80618 0.09582 0.0
C22 C 0.32558 0.81022 0.06923 0.0
C23 C 0.23571 0.90263 0.21322 0.0
H24 H 0.23424 0.89708 0.93492 0.0
H25 H 0.25788 0.88147 0.9934 0.0
H26 H 0.24979 0.9553 0.04133 0.0
H27 H 0.22413 0.9702 0.9828 0.0
H28 H 0.29776 0.88056 0.03601 0.0
H29 H 0.24427 0.93012 0.09113 0.0
H30 H 0.29804 0.87482 0.15261 0.0
H31 H 0.24996 0.87484 0.17723 0.0
H32 H 0.26534 0.95257 0.15066 0.0
H33 H 0.24269 0.96622 0.20382 0.0
H34 H 0.29113 0.83499 0.04796 0.0
H35 H 0.34912 0.86239 0.14106 0.0
H36 H 0.22739 0.88845 0.23031 0.0
H37 H 0.31862 0.79583 0.04904 0.0
H38 H 0.37678 0.82284 0.14216 0.0
C39 C 0.70686 0.63832 0.70498 0.0
C40 C 0.70669 0.61235 0.7127 0.0
C41 C 0.71922 0.64738 0.67478 0.0
C42 C 0.73109 0.63061 0.65119 0.0
C43 C 0.73108 0.60464 0.65905 0.0
C44 C 0.71929 0.59564 0.68972 0.0
C45 C 0.74204 0.64007 0.61746 0.0
C46 C 0.76202 0.66008 0.61927 0.0
C47 C 0.7713 0.67004 0.58715 0.0
C48 C 0.76008 0.6594 0.553 0.0
C49 C 0.74001 0.63936 0.55056 0.0
C50 C 0.73137 0.62975 0.58311 0.0
C51 C 0.72696 0.62931 0.51399 0.0
C52 C 0.72008 0.64565 0.48387 0.0
C53 C 0.72043 0.60347 0.50907 0.0
C54 C 0.70695 0.59438 0.47523 0.0
C55 C 0.69995 0.61083 0.44534 0.0
C56 C 0.79182 0.69203 0.589 0.0
C57 C 0.79116 0.711 0.61574 0.0
C58 C 0.81171 0.69473 0.56346 0.0
C59 C 0.82976 0.71595 0.56411 0.0
C60 C 0.82888 0.73484 0.59076 0.0
C61 C 0.80957 0.73196 0.61677 0.0
C62 C 0.70691 0.63651 0.45 0.0
H63 H 0.69736 0.65162 0.72231 0.0
H64 H 0.71874 0.66746 0.66921 0.0
H65 H 0.7401 0.5913 0.64134 0.0
H66 H 0.71929 0.57552 0.6949 0.0
H67 H 0.77052 0.66763 0.64593 0.0
H68 H 0.71525 0.61491 0.58173 0.0
H69 H 0.7666 0.66701 0.52803 0.0
H70 H 0.72411 0.66571 0.48662 0.0
H71 H 0.72579 0.5902 0.53136 0.0
H72 H 0.70212 0.57443 0.4724 0.0
H73 H 0.77588 0.7101 0.63547 0.0
H74 H 0.81353 0.68039 0.54293 0.0
H75 H 0.70138 0.64975 0.4277 0.0
H76 H 0.8081 0.74633 0.63739 0.0
H77 H 0.84464 0.71746 0.54394 0.0
C78 C 0.78013 0.11881 0.13617 0.0
C79 C 0.80929 0.11119 0.14128 0.0
C80 C 0.76712 0.12747 0.10184 0.0
C81 C 0.78313 0.12907 0.07198 0.0
C82 C 0.81234 0.12133 0.07735 0.0
C83 C 0.82514 0.11231 0.11141 0.0
C84 C 0.76986 0.13921 0.03558 0.0
C85 C 0.7499 0.15928 0.03322 0.0
C86 C 0.73839 0.16973 0.99901 0.0
C87 C 0.7477 0.15989 0.9668 0.0
C88 C 0.76826 0.14031 0.96871 0.0
C89 C 0.77841 0.12968 1.00301 0.0
C90 C 0.78083 0.13175 0.93554 0.0
C91 C 0.76332 0.12689 0.90206 0.0
C92 C 0.81091 0.12809 0.93761 0.0
C93 C 0.82316 0.11924 0.90738 0.0
C94 C 0.8057 0.11371 0.8741 0.0
C95 C 0.71807 0.19181 0.99741 0.0
C96 C 0.69822 0.19435 0.02301 0.0
C97 C 0.71912 0.21111 0.97125 0.0
C98 C 0.70126 0.23239 0.97105 0.0
C99 C 0.68216 0.2352 0.99731 0.0
C100 C 0.68071 0.21585 0.02316 0.0
C101 C 0.77562 0.11791 0.87168 0.0
H102 H 0.76737 0.11798 0.15873 0.0
H103 H 0.74449 0.13284 0.09873 0.0
H104 H 0.82571 0.12281 0.05551 0.0
H105 H 0.84779 0.10696 0.11469 0.0
H106 H 0.7443 0.16754 0.05828 0.0
H107 H 0.7933 0.11391 0.00424 0.0
H108 H 0.73954 0.16781 0.94027 0.0
H109 H 0.74007 0.12945 0.89962 0.0
H110 H 0.82512 0.1322 0.96272 0.0
H111 H 0.84645 0.1169 0.91009 0.0
H112 H 0.69618 0.17974 0.04311 0.0
H113 H 0.73438 0.21028 0.95151 0.0
H114 H 0.76148 0.11371 0.84657 0.0
H115 H 0.66594 0.21731 0.04348 0.0
H116 H 0.70314 0.2471 0.95102 0.0
C117 C 0.25042 0.42079 0.36402 0.0
C118 C 0.27962 0.42846 0.36785 0.0
C119 C 0.23782 0.41259 0.39467 0.0
C120 C 0.25423 0.4117 0.42974 0.0
C121 C 0.28366 0.41868 0.43307 0.0
C122 C 0.29607 0.42708 0.40271 0.0
C123 C 0.24121 0.40381 0.46311 0.0
C124 C 0.22158 0.38347 0.46226 0.0
C125 C 0.21192 0.37461 0.49484 0.0
C126 C 0.22202 0.38665 0.52836 0.0
C127 C 0.24172 0.40682 0.52977 0.0
C128 C 0.25034 0.41569 0.49691 0.0
C129 C 0.25596 0.41678 0.56569 0.0
C130 C 0.2403 0.42093 0.59535 0.0
C131 C 0.28607 0.42092 0.57099 0.0
C132 C 0.30029 0.42829 0.60517 0.0
C133 C 0.28487 0.43171 0.63514 0.0
C134 C 0.19331 0.35155 0.49455 0.0
C135 C 0.17031 0.34721 0.46629 0.0
C136 C 0.19888 0.33331 0.52247 0.0
C137 C 0.18212 0.31139 0.52212 0.0
C138 C 0.15923 0.3069 0.4938 0.0
C139 C 0.15347 0.3252 0.46594 0.0
C140 C 0.25459 0.42846 0.62969 0.0
H141 H 0.23716 0.42167 0.33749 0.0
H142 H 0.21511 0.40744 0.39102 0.0
H143 H 0.29736 0.4175 0.45926 0.0
H144 H 0.31878 0.43226 0.40648 0.0
H145 H 0.21508 0.37365 0.43664 0.0
H146 H 0.26489 0.4317 0.49788 0.0
H147 H 0.21537 0.37969 0.55367 0.0
H148 H 0.21706 0.41811 0.59211 0.0
H149 H 0.29893 0.41765 0.54896 0.0
H150 H 0.32354 0.431 0.60826 0.0
H151 H 0.16516 0.36094 0.44455 0.0
H152 H 0.21676 0.33563 0.54428 0.0
H153 H 0.24209 0.43091 0.65227 0.0
H154 H 0.13581 0.3226 0.44391 0.0
H155 H 0.18768 0.2976 0.54366 0.0
O156 O 0.98995 0.03192 0.50022 0.0
Mn157 Mn 0.01396 0.01397 0.54652 0.0
O158 O 0.96462 0.00132 0.46919 0.0
Mn159 Mn 0.98776 0.97694 0.49225 0.0
O160 O 0.03931 0.99663 0.59288 0.0
O161 O 0.03778 0.04684 0.55491 0.0
Mn162 Mn 0.0415 0.04905 0.60401 0.0
O163 O 0.98242 0.02578 0.57843 0.0
O164 O 0.07018 0.02625 0.61788 0.0
O165 O 0.04538 0.0021 0.51305 0.0
O166 O 0.02274 0.97309 0.47565 0.0
O167 O 0.04294 0.0812 0.58808 0.0
O168 O 0.00875 0.04353 0.62652 0.0
C169 C 0.97605 0.95863 0.53671 0.0
C170 C 0.97115 0.02434 0.47358 0.0
C171 C 0.06244 0.00332 0.61433 0.0
C172 C 0.03714 0.07151 0.55561 0.0
C173 C 0.98485 0.03517 0.61073 0.0
C174 C 0.04497 0.98622 0.48641 0.0
O175 O 0.99072 0.98005 0.54054 0.0
O176 O 0.97004 0.9491 0.50406 0.0
O177 O 0.52334 0.52986 0.08543 0.0
Mn178 Mn 0.49596 0.51478 0.04086 0.0
O179 O 0.52108 0.49911 0.12659 0.0
Mn180 Mn 0.50574 0.47501 0.09284 0.0
O181 O 0.46777 0.49844 0.99668 0.0
O182 O 0.47803 0.5501 0.03341 0.0
Mn183 Mn 0.4704 0.55343 0.98535 0.0
O184 O 0.52689 0.52311 0.00492 0.0
O185 O 0.44258 0.53043 0.96848 0.0
O186 O 0.46295 0.50862 0.07511 0.0
O187 O 0.46699 0.46872 0.0902 0.0
O188 O 0.45886 0.5832 1.00234 0.0
O189 O 0.50447 0.55148 0.96529 0.0
C190 C 0.52932 0.45752 0.05746 0.0
C191 C 0.52874 0.52119 0.11829 0.0
C192 C 0.44669 0.50702 0.97366 0.0
C193 C 0.4672 0.57284 0.03393 0.0
C194 C 0.52608 0.53747 0.97635 0.0
C195 C 0.4521 0.48849 0.08705 0.0
O196 O 0.51709 0.47965 0.04869 0.0
O197 O 0.52684 0.44767 0.08921 0.0
H198 H 0.13892 0.27765 0.434 0.0
H199 H 0.11382 0.23707 0.4333 0.0
H200 H 0.1173 0.24022 0.55105 0.0
H201 H 0.14124 0.28122 0.55183 0.0
H202 H 0.13284 0.19334 0.46365 0.0
H203 H 0.03403 0.22077 0.52197 0.0
H204 H 0.05822 0.24371 0.50624 0.0
H205 H 0.06629 0.22989 0.55123 0.0
C206 C 0.13379 0.27002 0.4597 0.0
C207 C 0.14222 0.28285 0.49298 0.0
C208 C 0.11962 0.24664 0.45928 0.0
C209 C 0.1133 0.23555 0.49206 0.0
C210 C 0.12134 0.24847 0.52526 0.0
H211 H 0.09185 0.07908 0.54326 0.0
H212 H 0.10975 0.11869 0.5219 0.0
C213 C 0.13544 0.27185 0.5257 0.0
C214 C 0.09982 0.20992 0.4918 0.0
H215 H 0.04505 0.17663 0.5226 0.0
C216 C 0.11339 0.18973 0.4761 0.0
C217 C 0.07416 0.20511 0.50742 0.0
C218 C 0.05715 0.22607 0.5223 0.0
C219 C 0.10268 0.16489 0.47667 0.0
C220 C 0.07803 0.15976 0.49441 0.0
C221 C 0.06394 0.18018 0.50903 0.0
C222 C 0.06747 0.13349 0.50042 0.0
C223 C 0.11798 0.1446 0.45784 0.0
C224 C 0.0376 0.12784 0.49528 0.0
C225 C 0.02724 0.10518 0.50857 0.0
C226 C 0.04657 0.0874 0.52642 0.0
C227 C 0.07648 0.09193 0.52824 0.0
C228 C 0.08678 0.11484 0.51612 0.0
H229 H 0.12761 0.15242 0.43416 0.0
H230 H 0.13604 0.13688 0.47746 0.0
H231 H 0.10312 0.12898 0.44783 0.0
H232 H 0.02208 0.14173 0.48327 0.0
H233 H 0.00409 0.10261 0.50785 0.0
H234 H 0.32568 0.75936 0.09424 0.0
H235 H 0.35004 0.71852 0.09516 0.0
H236 H 0.4327 0.75607 0.10081 0.0
H237 H 0.40829 0.79715 0.10089 0.0
H238 H 0.38152 0.69955 0.04615 0.0
H239 H 0.45088 0.70466 0.18113 0.0
H240 H 0.42206 0.72692 0.16775 0.0
H241 H 0.45615 0.72995 0.15022 0.0
C242 C 0.34907 0.75892 0.09587 0.0
C243 C 0.36507 0.78147 0.09755 0.0
C244 C 0.363 0.73555 0.09649 0.0
C245 C 0.3933 0.73407 0.09864 0.0
C246 C 0.4094 0.7566 0.1002 0.0
H247 H 0.50439 0.60773 0.06602 0.0
H248 H 0.48698 0.64757 0.08854 0.0
C249 C 0.39544 0.78008 0.10005 0.0
C250 C 0.40745 0.70887 0.09732 0.0
H251 H 0.4574 0.66904 0.14392 0.0
C252 C 0.39796 0.69287 0.06771 0.0
C253 C 0.42924 0.70018 0.12516 0.0
C254 C 0.44006 0.71621 0.15804 0.0
C255 C 0.40949 0.66856 0.0651 0.0
C256 C 0.43074 0.65959 0.09339 0.0
C257 C 0.44075 0.67573 0.12265 0.0
C258 C 0.44359 0.63395 0.09157 0.0
C259 C 0.39925 0.65294 0.03149 0.0
C260 C 0.42588 0.61238 0.08927 0.0
C261 C 0.43602 0.58946 0.07689 0.0
C262 C 0.46398 0.5878 0.06676 0.0
C263 C 0.48293 0.60832 0.07434 0.0
C264 C 0.47281 0.63128 0.08661 0.0
H265 H 0.3887 0.66474 0.0085 0.0
H266 H 0.41754 0.64257 0.02189 0.0
H267 H 0.38311 0.63894 0.03841 0.0
H268 H 0.40341 0.61385 0.09369 0.0
H269 H 0.42075 0.57414 0.0706 0.0
H270 H 0.86186 0.7567 0.64965 0.0
H271 H 0.8901 0.79586 0.65078 0.0
H272 H 0.86623 0.80408 0.534 0.0
H273 H 0.83785 0.76495 0.53264 0.0
H274 H 0.93192 0.81158 0.57094 0.0
H275 H 0.84673 0.86856 0.62539 0.0
H276 H 0.85402 0.837 0.64264 0.0
H277 H 0.83797 0.84156 0.59604 0.0
C278 C 0.86263 0.76685 0.62421 0.0
C279 C 0.84749 0.75778 0.59109 0.0
C280 C 0.87885 0.78915 0.62489 0.0
C281 C 0.88014 0.80292 0.59253 0.0
C282 C 0.86561 0.79368 0.55927 0.0
H283 H 0.92002 0.95462 0.54368 0.0
H284 H 0.89844 0.91608 0.56314 0.0
C285 C 0.84947 0.77129 0.55853 0.0
C286 C 0.89581 0.82743 0.59364 0.0
H287 H 0.88939 0.88952 0.61581 0.0
C288 C 0.92282 0.82868 0.58087 0.0
C289 C 0.88366 0.84965 0.60625 0.0
C290 C 0.85395 0.84942 0.61831 0.0
C291 C 0.93783 0.85171 0.57968 0.0
C292 C 0.92588 0.87414 0.59282 0.0
C293 C 0.89896 0.87254 0.6062 0.0
C294 C 0.93886 0.89978 0.58868 0.0
C295 C 0.96555 0.85175 0.56255 0.0
C296 C 0.96857 0.90486 0.59903 0.0
C297 C 0.98111 0.92706 0.58718 0.0
C298 C 0.96393 0.94494 0.56608 0.0
C299 C 0.93375 0.94146 0.5606 0.0
C300 C 0.92141 0.91908 0.5713 0.0
H301 H 0.96755 0.83462 0.54565 0.0
H302 H 0.96683 0.86855 0.54481 0.0
H303 H 0.98432 0.85197 0.58458 0.0
H304 H 0.98247 0.89095 0.61401 0.0
H305 H 0.00448 0.92896 0.59125 0.0
H306 H 0.67528 0.26421 0.05715 0.0
H307 H 0.64911 0.30435 0.05836 0.0
H308 H 0.62349 0.29955 0.9415 0.0
H309 H 0.64978 0.25946 0.93998 0.0
H310 H 0.66009 0.34994 1.00129 0.0
H311 H 0.54776 0.3138 1.00156 0.0
H312 H 0.5789 0.29596 0.02194 0.0
H313 H 0.57149 0.29886 0.97303 0.0
C314 C 0.66378 0.27154 0.03177 0.0
C315 C 0.66466 0.25869 0.99844 0.0
C316 C 0.64896 0.29452 0.0325 0.0
C317 C 0.63439 0.30489 1.00002 0.0
C318 C 0.63462 0.29185 0.96684 0.0
H319 H 0.51669 0.43487 0.98989 0.0
H320 H 0.5444 0.39956 0.96843 0.0
C321 C 0.64971 0.26902 0.96602 0.0
C322 C 0.61993 0.32985 1.00063 0.0
H323 H 0.55428 0.35774 0.00403 0.0
C324 C 0.63692 0.35174 1.00164 0.0
C325 C 0.58972 0.3321 1.00054 0.0
C326 C 0.57068 0.30902 0.99928 0.0
C327 C 0.62454 0.37588 1.00305 0.0
C328 C 0.59436 0.37824 0.00461 0.0
C329 C 0.57732 0.3562 1.00263 0.0
C330 C 0.58046 0.40288 0.01202 0.0
C331 C 0.64412 0.39852 1.00253 0.0
C332 C 0.5919 0.41736 0.04253 0.0
C333 C 0.57659 0.4379 0.05386 0.0
C334 C 0.54906 0.44426 0.03564 0.0
C335 C 0.53823 0.43092 1.00374 0.0
C336 C 0.55388 0.41043 0.99195 0.0
H337 H 0.66222 0.39453 0.9865 0.0
H338 H 0.63219 0.41535 0.99057 0.0
H339 H 0.65389 0.40294 0.03103 0.0
H340 H 0.61168 0.4117 0.05944 0.0
H341 H 0.58505 0.44735 0.0792 0.0
H342 H 0.18115 0.9116 0.23808 0.0
H343 H 0.15547 0.925 0.2886 0.0
H344 H 0.22473 0.97682 0.32532 0.0
H345 H 0.25019 0.96388 0.27408 0.0
H346 H 0.17103 0.9212 0.36083 0.0
H347 H 0.15587 0.02257 0.32486 0.0
H348 H 0.16791 0.99984 0.29366 0.0
H349 H 0.19291 0.01225 0.33088 0.0
C350 C 0.19092 0.92585 0.25693 0.0
C351 C 0.2177 0.93667 0.25209 0.0
C352 C 0.17619 0.93357 0.28576 0.0
C353 C 0.18791 0.95221 0.31061 0.0
C354 C 0.21482 0.96291 0.30605 0.0
H355 H 0.10131 0.00542 0.49989 0.0
H356 H 0.14065 0.99877 0.46176 0.0
C357 C 0.22944 0.9554 0.27686 0.0
C358 C 0.17218 0.95958 0.34179 0.0
H359 H 0.13891 0.00895 0.37935 0.0
C360 C 0.16433 0.94046 0.36503 0.0
C361 C 0.16345 0.98474 0.34754 0.0
C362 C 0.17021 0.00603 0.32276 0.0
C363 C 0.14729 0.94559 0.3929 0.0
C364 C 0.13775 0.97054 0.39785 0.0
C365 C 0.1466 0.98991 0.37581 0.0
C366 C 0.11474 0.97575 0.42121 0.0
C367 C 0.1387 0.92403 0.41602 0.0
C368 C 0.08726 0.96552 0.41062 0.0
C369 C 0.0652 0.9691 0.43205 0.0
C370 C 0.06972 0.98324 0.46486 0.0
C371 C 0.09715 0.99422 0.47511 0.0
C372 C 0.11956 0.99049 0.45334 0.0
H373 H 0.15415 0.90803 0.41651 0.0
H374 H 0.1375 0.9302 0.44466 0.0
H375 H 0.11698 0.91706 0.40415 0.0
H376 H 0.08284 0.95457 0.38559 0.0
H377 H 0.04437 0.96068 0.42247 0.0
H378 H 0.65174 0.62172 0.72715 0.0
H379 H 0.62746 0.60427 0.77695 0.0
H380 H 0.70514 0.56361 0.81828 0.0
H381 H 0.72946 0.58075 0.76812 0.0
H382 H 0.63091 0.54186 0.79478 0.0
H383 H 0.66821 0.61153 0.90454 0.0
H384 H 0.66301 0.62079 0.85677 0.0
H385 H 0.6925 0.60043 0.87358 0.0
C386 C 0.66371 0.60925 0.74707 0.0
C387 C 0.69249 0.6026 0.74382 0.0
C388 C 0.64982 0.59926 0.7754 0.0
C389 C 0.66457 0.58276 0.80134 0.0
C390 C 0.69343 0.57635 0.79854 0.0
H391 H 0.5856 0.53076 0.99567 0.0
H392 H 0.6234 0.53743 0.95526 0.0
C393 C 0.70723 0.58607 0.76988 0.0
C394 C 0.64927 0.57154 0.83041 0.0
H395 H 0.63379 0.58139 0.91761 0.0
C396 C 0.6318 0.55028 0.82182 0.0
C397 C 0.6508 0.58235 0.86575 0.0
C398 C 0.6696 0.60506 0.87608 0.0
C399 C 0.61498 0.54004 0.84725 0.0
C400 C 0.61508 0.55175 0.88198 0.0
C401 C 0.63369 0.57233 0.89115 0.0
C402 C 0.5931 0.5453 0.90655 0.0
C403 C 0.59686 0.517 0.8363 0.0
C404 C 0.5637 0.54741 0.89272 0.0
C405 C 0.54245 0.54356 0.91539 0.0
C406 C 0.54979 0.53781 0.95291 0.0
C407 C 0.57924 0.53498 0.96688 0.0
C408 C 0.60079 0.53894 0.94387 0.0
H409 H 0.60712 0.5051 0.81674 0.0
H410 H 0.59352 0.50537 0.86052 0.0
H411 H 0.57538 0.52302 0.8222 0.0
H412 H 0.55706 0.55288 0.86444 0.0
H413 H 0.52001 0.54577 0.9035 0.0
H414 H 0.84317 0.06962 0.15823 0.0
H415 H 0.87092 0.05889 0.21764 0.0
H416 H 0.83714 0.12491 0.26586 0.0
H417 H 0.80881 0.13529 0.20677 0.0
H418 H 0.91345 0.08671 0.2548 0.0
H419 H 0.8266 0.0727 0.34241 0.0
H420 H 0.81931 0.07414 0.29298 0.0
H421 H 0.82473 0.10267 0.31951 0.0
C422 C 0.84139 0.08162 0.18168 0.0
C423 C 0.82381 0.10326 0.17794 0.0
C424 C 0.85724 0.07549 0.21559 0.0
C425 C 0.85594 0.09095 0.24639 0.0
C426 C 0.83797 0.11233 0.24281 0.0
H427 H 0.94643 0.07227 0.47239 0.0
H428 H 0.92105 0.09353 0.41723 0.0
C429 C 0.82185 0.1183 0.209 0.0
C430 C 0.87495 0.08566 0.2814 0.0
H431 H 0.87475 0.07391 0.37282 0.0
C432 C 0.90495 0.08398 0.28062 0.0
C433 C 0.86395 0.08231 0.31519 0.0
C434 C 0.83187 0.0828 0.31764 0.0
C435 C 0.92421 0.07886 0.31249 0.0
C436 C 0.91319 0.07496 0.34618 0.0
C437 C 0.88326 0.07728 0.34718 0.0
C438 C 0.93161 0.06484 0.37915 0.0
C439 C 0.95619 0.07749 0.30947 0.0
C440 C 0.94625 0.04207 0.37597 0.0
C441 C 0.9608 0.03036 0.40684 0.0
C442 C 0.9606 0.04068 0.44205 0.0
C443 C 0.94706 0.06405 0.44553 0.0
C444 C 0.93244 0.07602 0.41413 0.0
H445 H 0.96191 0.09011 0.28739 0.0
H446 H 0.96961 0.0827 0.33566 0.0
H447 H 0.96177 0.05796 0.30212 0.0
H448 H 0.94533 0.03259 0.34974 0.0
H449 H 0.97114 0.01237 0.40328 0.0
H450 H 0.27078 0.46586 0.68638 0.0
H451 H 0.29784 0.47491 0.74705 0.0
H452 H 0.36144 0.41897 0.72828 0.0
H453 H 0.33475 0.40996 0.66796 0.0
H454 H 0.31259 0.44252 0.80677 0.0
H455 H 0.41169 0.48034 0.75782 0.0
H456 H 0.37799 0.47639 0.72786 0.0
H457 H 0.40126 0.44975 0.73979 0.0
C458 C 0.29051 0.45549 0.69526 0.0
C459 C 0.30076 0.43737 0.67217 0.0
C460 C 0.30599 0.46073 0.72985 0.0
C461 C 0.33198 0.44795 0.74195 0.0
C462 C 0.34191 0.42956 0.71919 0.0
H463 H 0.46133 0.46459 0.93704 0.0
H464 H 0.43225 0.44584 0.88285 0.0
C465 C 0.32657 0.42442 0.68468 0.0
C466 C 0.34843 0.45324 0.7787 0.0
H467 H 0.41439 0.47249 0.82165 0.0
C468 C 0.33484 0.44911 0.81005 0.0
C469 C 0.37753 0.46169 0.78298 0.0
C470 C 0.39294 0.46754 0.75035 0.0
C471 C 0.34962 0.45292 0.84556 0.0
C472 C 0.37868 0.46156 0.8499 0.0
C473 C 0.3923 0.46551 0.81848 0.0
C474 C 0.39443 0.46907 0.88628 0.0
C475 C 0.33394 0.44736 0.87804 0.0
C476 C 0.3826 0.4877 0.9069 0.0
C477 C 0.39892 0.49803 0.93787 0.0
C478 C 0.42768 0.49032 0.94878 0.0
C479 C 0.43906 0.47056 0.92966 0.0
C480 C 0.42257 0.46009 0.89846 0.0
H481 H 0.31708 0.43265 0.87126 0.0
H482 H 0.34908 0.441 0.9022 0.0
H483 H 0.32283 0.46474 0.88561 0.0
H484 H 0.36137 0.49548 0.89777 0.0
H485 H 0.38967 0.51341 0.95188 0.0
H486 H 0.65325 0.57905 0.43418 0.0
H487 H 0.62568 0.56641 0.37548 0.0
H488 H 0.68367 0.6094 0.31737 0.0
H489 H 0.71147 0.62198 0.37593 0.0
H490 H 0.59853 0.60211 0.32056 0.0
H491 H 0.67791 0.5386 0.26627 0.0
H492 H 0.6797 0.546 0.31451 0.0
H493 H 0.69141 0.56873 0.28342 0.0
C494 C 0.66042 0.58547 0.40889 0.0
C495 C 0.68452 0.60156 0.40972 0.0
C496 C 0.64455 0.57836 0.37539 0.0
C497 C 0.65271 0.58687 0.34207 0.0
C498 C 0.67715 0.60243 0.34274 0.0
H499 H 0.57266 0.55572 0.11503 0.0
H500 H 0.60283 0.57544 0.16769 0.0
C501 C 0.69288 0.60975 0.37622 0.0
C502 C 0.63474 0.58058 0.30675 0.0
H503 H 0.63462 0.54726 0.22713 0.0
C504 C 0.60644 0.59018 0.30007 0.0
C505 C 0.64519 0.56519 0.27995 0.0
C506 C 0.67513 0.55382 0.28628 0.0
C507 C 0.58822 0.58465 0.26741 0.0
C508 C 0.5984 0.56877 0.24096 0.0
C509 C 0.62694 0.55962 0.24727 0.0
C510 C 0.57885 0.55927 0.20859 0.0
C511 C 0.55816 0.59581 0.26155 0.0
C512 C 0.55532 0.54392 0.21412 0.0
C513 C 0.53839 0.53263 0.1844 0.0
C514 C 0.54449 0.53644 0.14833 0.0
C515 C 0.56733 0.55264 0.14249 0.0
C516 C 0.58463 0.56376 0.17252 0.0
H517 H 0.55681 0.61319 0.27813 0.0
H518 H 0.55141 0.6004 0.23216 0.0
H519 H 0.54259 0.5819 0.2702 0.0
H520 H 0.55067 0.53988 0.24164 0.0
H521 H 0.52087 0.52031 0.18977 0.0
H522 H 0.79253 0.12506 0.8006 0.0
H523 H 0.81571 0.10865 0.74934 0.0
H524 H 0.87308 0.06353 0.82493 0.0
H525 H 0.84942 0.07897 0.87587 0.0
H526 H 0.87234 0.11298 0.73755 0.0
H527 H 0.84464 0.01198 0.74755 0.0
H528 H 0.82712 0.03629 0.77103 0.0
H529 H 0.86205 0.02431 0.79032 0.0
C530 C 0.80972 0.11129 0.80623 0.0
C531 C 0.81904 0.10336 0.84246 0.0
C532 C 0.82308 0.10205 0.7769 0.0
C533 C 0.84583 0.08451 0.78313 0.0
C534 C 0.85515 0.07659 0.81923 0.0
H535 H 0.98386 0.0252 0.68253 0.0
H536 H 0.94593 0.03591 0.71985 0.0
C537 C 0.84183 0.08575 0.84847 0.0
C538 C 0.8609 0.07536 0.75235 0.0
H539 H 0.88374 0.02174 0.71318 0.0
C540 C 0.87435 0.09306 0.73172 0.0
C541 C 0.86354 0.04933 0.74467 0.0
C542 C 0.84832 0.0294 0.76432 0.0
C543 C 0.89156 0.0854 0.70503 0.0
C544 C 0.89513 0.05936 0.69847 0.0
C545 C 0.88089 0.04169 0.71816 0.0
C546 C 0.9161 0.05018 0.67436 0.0
C547 C 0.90705 0.10512 0.68532 0.0
C548 C 0.91147 0.05378 0.63609 0.0
C549 C 0.93306 0.04723 0.61448 0.0
C550 C 0.95963 0.03737 0.63106 0.0
C551 C 0.96357 0.0328 0.66908 0.0
C552 C 0.94195 0.03893 0.69044 0.0
H553 H 0.90488 0.12431 0.69679 0.0
H554 H 0.93045 0.10046 0.68703 0.0
H555 H 0.8979 0.1054 0.65585 0.0
H556 H 0.89155 0.06231 0.62314 0.0
H557 H 0.92964 0.05119 0.5853 0.0
H558 H 0.27627 0.4083 0.29853 0.0
H559 H 0.30206 0.42227 0.24804 0.0
H560 H 0.339 0.48424 0.31448 0.0
H561 H 0.31385 0.47008 0.36508 0.0
H562 H 0.3015 0.46511 0.20811 0.0
H563 H 0.41097 0.45252 0.28584 0.0
H564 H 0.37873 0.4408 0.30235 0.0
H565 H 0.38876 0.47348 0.30829 0.0
C566 C 0.28975 0.42499 0.30223 0.0
C567 C 0.29329 0.43789 0.33598 0.0
C568 C 0.30456 0.43293 0.2734 0.0
C569 C 0.3231 0.45399 0.27766 0.0
C570 C 0.32562 0.46749 0.31081 0.0
H571 H 0.43655 0.52455 0.1341 0.0
H572 H 0.40248 0.51877 0.1792 0.0
C573 C 0.31111 0.45943 0.3397 0.0
C574 C 0.33988 0.46177 0.2476 0.0
H575 H 0.40856 0.47326 0.22823 0.0
C576 C 0.3249 0.46686 0.21256 0.0
C577 C 0.37051 0.46397 0.25321 0.0
C578 C 0.38823 0.45716 0.28933 0.0
C579 C 0.33963 0.47428 0.18324 0.0
C580 C 0.37013 0.47672 0.18901 0.0
C581 C 0.38512 0.4718 0.22402 0.0
C582 C 0.38719 0.48229 0.15849 0.0
C583 C 0.32254 0.47951 0.1462 0.0
C584 C 0.38935 0.46403 0.13139 0.0
C585 C 0.4088 0.46725 0.10587 0.0
C586 C 0.42631 0.48891 0.10665 0.0
C587 C 0.42286 0.50796 0.13231 0.0
C588 C 0.40365 0.50453 0.15832 0.0
H589 H 0.29911 0.48214 0.14804 0.0
H590 H 0.33091 0.4966 0.13363 0.0
H591 H 0.3249 0.46333 0.12768 0.0
H592 H 0.37719 0.4466 0.13126 0.0
H593 H 0.41135 0.4521 0.08677 0.0
H594 H 0.17283 0.95455 0.94297 0.0
H595 H 0.14326 0.96298 0.88379 0.0
H596 H 0.21566 0.94317 0.82746 0.0
H597 H 0.24469 0.9336 0.88646 0.0
H598 H 0.14602 0.99406 0.82845 0.0
H599 H 0.1561 0.89684 0.77679 0.0
H600 H 0.16849 0.90544 0.82373 0.0
H601 H 0.19071 0.91167 0.78816 0.0
C602 C 0.1824 0.95219 0.91789 0.0
C603 C 0.21087 0.94316 0.91914 0.0
C604 C 0.16551 0.95693 0.88409 0.0
C605 C 0.17687 0.95294 0.85097 0.0
C606 C 0.20596 0.94543 0.85245 0.0
H607 H 0.11939 0.99126 0.62598 0.0
H608 H 0.14584 0.97583 0.68392 0.0
C609 C 0.22265 0.94022 0.88615 0.0
C610 C 0.15828 0.95637 0.81498 0.0
H611 H 0.13587 0.92739 0.73281 0.0
C612 C 0.14361 0.97937 0.80774 0.0
C613 C 0.15482 0.93713 0.7879 0.0
C614 C 0.16812 0.9113 0.79466 0.0
C615 C 0.12639 0.98388 0.77392 0.0
C616 C 0.12375 0.96493 0.74659 0.0
C617 C 0.13802 0.94186 0.75385 0.0
C618 C 0.10738 0.96945 0.70969 0.0
C619 C 0.11154 0.00907 0.7672 0.0
C620 C 0.07695 0.96965 0.7044 0.0
C621 C 0.06177 0.97779 0.67091 0.0
C622 C 0.07689 0.98611 0.6425 0.0
C623 C 0.10726 0.98437 0.64714 0.0
C624 C 0.12237 0.97585 0.68033 0.0
H625 H 0.11814 0.0227 0.78973 0.0
H626 H 0.1165 0.01729 0.74095 0.0
H627 H 0.08772 0.00638 0.76478 0.0
H628 H 0.06502 0.96482 0.72681 0.0
H629 H 0.03843 0.97972 0.66843 0.0
loop_
_geom_bond_atom_site_label_1
_geom_bond_atom_site_label_2
_geom_bond_distance
_geom_bond_site_symmetry_2
_ccdc_geom_bond_type
C0 C1 1.386 . S
C0 C2 1.397 . S
C0 H24 0.931 . S
C1 C0 1.386 . S
C1 C5 1.397 . S
C2 C0 1.397 . S
C2 C3 1.384 1_556 S
C2 H25 0.930 . S
C3 C2 1.384 1_554 S
C3 C4 1.377 . S
C3 C6 1.481 . S
C4 C3 1.377 . S
C4 C5 1.389 1_554 S
C4 H26 0.929 . S
C5 C1 1.397 . S
C5 C4 1.389 1_556 S
C5 H27 0.931 . S
C6 C3 1.481 . S
C6 C7 1.387 . S
C6 C11 1.390 . S
C7 C6 1.387 . S
C7 C8 1.401 . S
C7 H28 0.930 . S
C8 C7 1.401 . S
C8 C9 1.376 . S
C8 C17 1.511 . S
C9 C8 1.376 . S
C9 C10 1.392 . S
C9 H30 0.931 . S
C10 C9 1.392 . S
C10 C11 1.361 . S
C10 C12 1.500 . S
C11 C6 1.390 . S
C11 C10 1.361 . S
C11 H29 0.931 . S
C12 C10 1.500 . S
C12 C13 1.371 . S
C12 C14 1.365 . S
C13 C12 1.371 . S
C13 C23 1.386 . S
C13 H31 0.931 . S
C14 C12 1.365 . S
C14 C15 1.409 . S
C14 H32 0.929 . S
C15 C14 1.409 . S
C15 C16 1.380 . S
C15 H33 0.930 . S
C16 C15 1.380 . S
C16 C23 1.357 . S
C17 C8 1.511 . S
C17 C18 1.341 . S
C17 C19 1.371 . S
C18 C17 1.341 . S
C18 C22 1.394 . S
C18 H34 0.930 . S
C19 C17 1.371 . S
C19 C20 1.392 . S
C19 H35 0.931 . S
C20 C19 1.392 . S
C20 C21 1.331 . S
C20 H38 0.932 . S
C21 C20 1.331 . S
C21 C22 1.336 . S
C22 C18 1.394 . S
C22 C21 1.336 . S
C22 H37 0.929 . S
C23 C13 1.386 . S
C23 C16 1.357 . S
C23 H36 0.928 . S
H24 C0 0.931 . S
H25 C2 0.930 . S
H26 C4 0.929 . S
H27 C5 0.931 . S
H28 C7 0.930 . S
H29 C11 0.931 . S
H30 C9 0.931 . S
H31 C13 0.931 . S
H32 C14 0.929 . S
H33 C15 0.930 . S
H34 C18 0.930 . S
H35 C19 0.931 . S
H36 C23 0.928 . S
H37 C22 0.929 . S
H38 C20 0.932 . S
C39 C40 1.386 . S
C39 C41 1.397 . S
C39 H63 0.931 . S
C40 C39 1.386 . S
C40 C44 1.397 . S
C41 C39 1.397 . S
C41 C42 1.384 . S
C41 H64 0.930 . S
C42 C41 1.384 . S
C42 C43 1.377 . S
C42 C45 1.481 . S
C43 C42 1.377 . S
C43 C44 1.389 . S
C43 H65 0.929 . S
C44 C40 1.397 . S
C44 C43 1.389 . S
C44 H66 0.931 . S
C45 C42 1.481 . S
C45 C46 1.387 . S
C45 C50 1.390 . S
C46 C45 1.387 . S
C46 C47 1.401 . S
C46 H67 0.930 . S
C47 C46 1.401 . S
C47 C48 1.376 . S
C47 C56 1.511 . S
C48 C47 1.376 . S
C48 C49 1.392 . S
C48 H69 0.931 . S
C49 C48 1.392 . S
C49 C50 1.361 . S
C49 C51 1.500 . S
C50 C45 1.390 . S
C50 C49 1.361 . S
C50 H68 0.931 . S
C51 C49 1.500 . S
C51 C52 1.371 . S
C51 C53 1.365 . S
C52 C51 1.371 . S
C52 C62 1.386 . S
C52 H70 0.931 . S
C53 C51 1.365 . S
C53 C54 1.409 . S
C53 H71 0.929 . S
C54 C53 1.409 . S
C54 C55 1.380 . S
C54 H72 0.930 . S
C55 C54 1.380 . S
C55 C62 1.357 . S
C56 C47 1.511 . S
C56 C57 1.341 . S
C56 C58 1.371 . S
C57 C56 1.341 . S
C57 C61 1.394 . S
C57 H73 0.930 . S
C58 C56 1.371 . S
C58 C59 1.392 . S
C58 H74 0.931 . S
C59 C58 1.392 . S
C59 C60 1.331 . S
C59 H77 0.932 . S
C60 C59 1.331 . S
C60 C61 1.336 . S
C61 C57 1.394 . S
C61 C60 1.336 . S
C61 H76 0.929 . S
C62 C52 1.386 . S
C62 C55 1.357 . S
C62 H75 0.928 . S
H63 C39 0.931 . S
H64 C41 0.930 . S
H65 C43 0.929 . S
H66 C44 0.931 . S
H67 C46 0.930 . S
H68 C50 0.931 . S
H69 C48 0.931 . S
H70 C52 0.931 . S
H71 C53 0.929 . S
H72 C54 0.930 . S
H73 C57 0.930 . S
H74 C58 0.931 . S
H75 C62 0.928 . S
H76 C61 0.929 . S
H77 C59 0.932 . S
C78 C79 1.386 . S
C78 C80 1.397 . S
C78 H102 0.931 . S
C79 C78 1.386 . S
C79 C83 1.397 . S
C80 C78 1.397 . S
C80 C81 1.384 . S
C80 H103 0.930 . S
C81 C80 1.384 . S
C81 C82 1.377 . S
C81 C84 1.481 . S
C82 C81 1.377 . S
C82 C83 1.389 . S
C82 H104 0.929 . S
C83 C79 1.397 . S
C83 C82 1.389 . S
C83 H105 0.931 . S
C84 C81 1.481 . S
C84 C85 1.387 . S
C84 C89 1.390 . S
C85 C84 1.387 . S
C85 C86 1.401 1_554 S
C85 H106 0.930 . S
C86 C85 1.401 1_556 S
C86 C87 1.376 . S
C86 C95 1.511 . S
C87 C86 1.376 . S
C87 C88 1.392 . S
C87 H108 0.931 . S
C88 C87 1.392 . S
C88 C89 1.361 1_556 S
C88 C90 1.500 . S
C89 C84 1.390 . S
C89 C88 1.361 1_554 S
C89 H107 0.931 . S
C90 C88 1.500 . S
C90 C91 1.371 . S
C90 C92 1.365 . S
C91 C90 1.371 . S
C91 C101 1.386 . S
C91 H109 0.931 . S
C92 C90 1.365 . S
C92 C93 1.409 . S
C92 H110 0.929 . S
C93 C92 1.409 . S
C93 C94 1.380 . S
C93 H111 0.930 . S
C94 C93 1.380 . S
C94 C101 1.357 . S
C95 C86 1.511 . S
C95 C96 1.341 1_556 S
C95 C97 1.371 . S
C96 C95 1.341 1_554 S
C96 C100 1.394 . S
C96 H112 0.930 . S
C97 C95 1.371 . S
C97 C98 1.392 . S
C97 H113 0.931 . S
C98 C97 1.392 . S
C98 C99 1.331 . S
C98 H116 0.932 . S
C99 C98 1.331 . S
C99 C100 1.336 1_556 S
C100 C96 1.394 . S
C100 C99 1.336 1_554 S
C100 H115 0.929 . S
C101 C91 1.386 . S
C101 C94 1.357 . S
C101 H114 0.928 . S
H102 C78 0.931 . S
H103 C80 0.930 . S
H104 C82 0.929 . S
H105 C83 0.931 . S
H106 C85 0.930 . S
H107 C89 0.931 . S
H108 C87 0.931 . S
H109 C91 0.931 . S
H110 C92 0.929 . S
H111 C93 0.930 . S
H112 C96 0.930 . S
H113 C97 0.931 . S
H114 C101 0.928 . S
H115 C100 0.929 . S
H116 C98 0.932 . S
C117 C118 1.386 . S
C117 C119 1.397 . S
C117 H141 0.931 . S
C118 C117 1.386 . S
C118 C122 1.397 . S
C119 C117 1.397 . S
C119 C120 1.384 . S
C119 H142 0.930 . S
C120 C119 1.384 . S
C120 C121 1.377 . S
C120 C123 1.481 . S
C121 C120 1.377 . S
C121 C122 1.389 . S
C121 H143 0.929 . S
C122 C118 1.397 . S
C122 C121 1.389 . S
C122 H144 0.931 . S
C123 C120 1.481 . S
C123 C124 1.387 . S
C123 C128 1.390 . S
C124 C123 1.387 . S
C124 C125 1.401 . S
C124 H145 0.930 . S
C125 C124 1.401 . S
C125 C126 1.376 . S
C125 C134 1.511 . S
C126 C125 1.376 . S
C126 C127 1.392 . S
C126 H147 0.931 . S
C127 C126 1.392 . S
C127 C128 1.361 . S
C127 C129 1.500 . S
C128 C123 1.390 . S
C128 C127 1.361 . S
C128 H146 0.931 . S
C129 C127 1.500 . S
C129 C130 1.371 . S
C129 C131 1.365 . S
C130 C129 1.371 . S
C130 C140 1.386 . S
C130 H148 0.931 . S
C131 C129 1.365 . S
C131 C132 1.409 . S
C131 H149 0.929 . S
C132 C131 1.409 . S
C132 C133 1.380 . S
C132 H150 0.930 . S
C133 C132 1.380 . S
C133 C140 1.357 . S
C134 C125 1.511 . S
C134 C135 1.341 . S
C134 C136 1.371 . S
C135 C134 1.341 . S
C135 C139 1.394 . S
C135 H151 0.930 . S
C136 C134 1.371 . S
C136 C137 1.392 . S
C136 H152 0.931 . S
C137 C136 1.392 . S
C137 C138 1.331 . S
C137 H155 0.932 . S
C138 C137 1.331 . S
C138 C139 1.336 . S
C139 C135 1.394 . S
C139 C138 1.336 . S
C139 H154 0.929 . S
C140 C130 1.386 . S
C140 C133 1.357 . S
C140 H153 0.928 . S
H141 C117 0.931 . S
H142 C119 0.930 . S
H143 C121 0.929 . S
H144 C122 0.931 . S
H145 C124 0.930 . S
H146 C128 0.931 . S
H147 C126 0.931 . S
H148 C130 0.931 . S
H149 C131 0.929 . S
H150 C132 0.930 . S
H151 C135 0.930 . S
H152 C136 0.931 . S
H153 C140 0.928 . S
H154 C139 0.929 . S
H155 C137 0.932 . S
O156 Mn157 2.163 1_655 S
O156 C170 1.244 . S
Mn157 O156 2.163 1_455 S
Mn157 O160 2.160 1_545 S
Mn157 O161 2.221 . S
Mn157 O163 2.163 1_455 S
Mn157 O165 2.164 . S
Mn157 O175 2.221 1_445 S
O158 Mn159 2.087 1_545 S
O158 C170 1.256 . S
Mn159 O158 2.087 1_565 S
Mn159 O166 2.089 1_655 S
Mn159 O175 2.290 . S
Mn159 O176 2.251 . S
O160 Mn157 2.160 1_565 S
O160 C171 1.239 . S
O161 Mn157 2.221 . S
O161 Mn162 2.290 . S
O161 C172 1.278 . S
Mn162 O161 2.290 . S
Mn162 O164 2.089 . S
Mn162 O167 2.251 . S
Mn162 O168 2.087 1_455 S
O163 Mn157 2.163 1_655 S
O163 C173 1.244 . S
O164 Mn162 2.089 . S
O164 C171 1.257 1_545 S
O165 Mn157 2.164 . S
O165 C174 1.233 1_545 S
O166 Mn159 2.089 1_455 S
O166 C174 1.256 . S
O167 Mn162 2.251 . S
O167 C172 1.241 . S
O168 Mn162 2.087 1_655 S
O168 C173 1.256 . S
C169 O175 1.278 . S
C169 O176 1.241 . S
C170 O156 1.244 . S
C170 O158 1.256 . S
C171 O160 1.239 . S
C171 O164 1.257 1_565 S
C172 O161 1.278 . S
C172 O167 1.241 . S
C173 O163 1.244 . S
C173 O168 1.256 . S
C174 O165 1.233 1_565 S
C174 O166 1.256 . S
O175 Mn157 2.221 1_665 S
O175 Mn159 2.290 . S
O175 C169 1.278 . S
O176 Mn159 2.251 . S
O176 C169 1.241 . S
O177 Mn178 2.163 . S
O177 C191 1.244 . S
Mn178 O177 2.163 . S
Mn178 O181 2.160 1_554 S
Mn178 O182 2.221 . S
Mn178 O184 2.163 . S
Mn178 O186 2.160 . S
Mn178 O196 2.221 . S
O179 Mn180 2.087 . S
O179 C191 1.256 . S
Mn180 O179 2.087 . S
Mn180 O187 2.089 . S
Mn180 O196 2.290 . S
Mn180 O197 2.251 . S
O181 Mn178 2.160 1_556 S
O181 C192 1.239 . S
O182 Mn178 2.221 . S
O182 Mn183 2.290 1_554 S
O182 C193 1.278 . S
Mn183 O182 2.290 1_556 S
Mn183 O185 2.089 . S
Mn183 O188 2.251 1_556 S
Mn183 O189 2.087 . S
O184 Mn178 2.163 . S
O184 C194 1.244 1_554 S
O185 Mn183 2.089 . S
O185 C192 1.256 . S
O186 Mn178 2.160 . S
O186 C195 1.239 . S
O187 Mn180 2.089 . S
O187 C195 1.256 . S
O188 Mn183 2.251 1_554 S
O188 C193 1.241 . S
O189 Mn183 2.087 . S
O189 C194 1.256 . S
C190 O196 1.278 . S
C190 O197 1.241 . S
C191 O177 1.244 . S
C191 O179 1.256 . S
C192 O181 1.239 . S
C192 O185 1.256 . S
C193 O182 1.278 . S
C193 O188 1.241 . S
C194 O184 1.244 1_556 S
C194 O189 1.256 . S
C195 O186 1.239 . S
C195 O187 1.256 . S
O196 Mn178 2.221 . S
O196 Mn180 2.290 . S
O196 C190 1.278 . S
O197 Mn180 2.251 . S
O197 C190 1.241 . S
H198 C206 0.929 . S
H199 C208 0.930 . S
H200 C210 0.930 . S
H201 C213 0.929 . S
H202 C216 0.930 . S
H203 C218 0.960 . S
H204 C218 0.960 . S
H205 C218 0.960 . S
C206 H198 0.929 . S
C206 C207 1.377 . S
C206 C208 1.384 . S
C207 C206 1.377 . S
C207 C213 1.390 . S
C208 H199 0.930 . S
C208 C206 1.384 . S
C208 C209 1.372 . S
C209 C208 1.372 . S
C209 C210 1.400 . S
C209 C214 1.490 . S
C210 H200 0.930 . S
C210 C209 1.400 . S
C210 C213 1.386 . S
H211 C227 0.930 . S
H212 C228 0.931 . S
C213 H201 0.929 . S
C213 C207 1.390 . S
C213 C210 1.386 . S
C214 C209 1.490 . S
C214 C216 1.395 . S
C214 C217 1.403 . S
H215 C221 0.930 . S
C216 H202 0.930 . S
C216 C214 1.395 . S
C216 C219 1.403 . S
C217 C214 1.403 . S
C217 C218 1.524 . S
C217 C221 1.400 . S
C218 H203 0.960 . S
C218 H204 0.960 . S
C218 H205 0.960 . S
C218 C217 1.524 . S
C219 C216 1.403 . S
C219 C220 1.392 . S
C219 C223 1.495 . S
C220 C219 1.392 . S
C220 C221 1.385 . S
C220 C222 1.478 . S
C221 H215 0.930 . S
C221 C217 1.400 . S
C221 C220 1.385 . S
C222 C220 1.478 . S
C222 C224 1.381 . S
C222 C228 1.383 . S
C223 C219 1.495 . S
C223 H229 0.959 . S
C223 H230 0.961 . S
C223 H231 0.960 . S
C224 C222 1.381 . S
C224 C225 1.394 . S
C224 H232 0.930 . S
C225 C224 1.394 . S
C225 C226 1.383 . S
C225 H233 0.929 . S
C226 C225 1.383 . S
C226 C227 1.377 . S
C227 H211 0.930 . S
C227 C226 1.377 . S
C227 C228 1.379 . S
C228 H212 0.931 . S
C228 C222 1.383 . S
C228 C227 1.379 . S
H229 C223 0.959 . S
H230 C223 0.961 . S
H231 C223 0.960 . S
H232 C224 0.930 . S
H233 C225 0.929 . S
H234 C242 0.929 . S
H235 C244 0.930 . S
H236 C246 0.930 . S
H237 C249 0.929 . S
H238 C252 0.930 . S
H239 C254 0.960 . S
H240 C254 0.960 . S
H241 C254 0.960 . S
C242 H234 0.929 . S
C242 C243 1.377 . S
C242 C244 1.384 . S
C243 C242 1.377 . S
C243 C249 1.390 . S
C244 H235 0.930 . S
C244 C242 1.384 . S
C244 C245 1.372 . S
C245 C244 1.372 . S
C245 C246 1.400 . S
C245 C250 1.490 . S
C246 H236 0.930 . S
C246 C245 1.400 . S
C246 C249 1.386 . S
H247 C263 0.930 . S
H248 C264 0.931 . S
C249 H237 0.929 . S
C249 C243 1.390 . S
C249 C246 1.386 . S
C250 C245 1.490 . S
C250 C252 1.395 . S
C250 C253 1.403 . S
H251 C257 0.930 . S
C252 H238 0.930 . S
C252 C250 1.395 . S
C252 C255 1.403 . S
C253 C250 1.403 . S
C253 C254 1.524 . S
C253 C257 1.400 . S
C254 H239 0.960 . S
C254 H240 0.960 . S
C254 H241 0.960 . S
C254 C253 1.524 . S
C255 C252 1.403 . S
C255 C256 1.392 . S
C255 C259 1.495 . S
C256 C255 1.392 . S
C256 C257 1.385 . S
C256 C258 1.478 . S
C257 H251 0.930 . S
C257 C253 1.400 . S
C257 C256 1.385 . S
C258 C256 1.478 . S
C258 C260 1.381 . S
C258 C264 1.383 . S
C259 C255 1.495 . S
C259 H265 0.959 1_554 S
C259 H266 0.961 1_554 S
C259 H267 0.960 . S
C260 C258 1.381 . S
C260 C261 1.394 . S
C260 H268 0.930 . S
C261 C260 1.394 . S
C261 C262 1.383 . S
C261 H269 0.929 . S
C262 C261 1.383 . S
C262 C263 1.377 . S
C263 H247 0.930 . S
C263 C262 1.377 . S
C263 C264 1.379 . S
C264 H248 0.931 . S
C264 C258 1.383 . S
C264 C263 1.379 . S
H265 C259 0.959 1_556 S
H266 C259 0.961 1_556 S
H267 C259 0.960 . S
H268 C260 0.930 . S
H269 C261 0.929 . S
H270 C278 0.929 . S
H271 C280 0.930 . S
H272 C282 0.930 . S
H273 C285 0.929 . S
H274 C288 0.930 . S
H275 C290 0.960 . S
H276 C290 0.960 . S
H277 C290 0.960 . S
C278 H270 0.929 . S
C278 C279 1.377 . S
C278 C280 1.384 . S
C279 C278 1.377 . S
C279 C285 1.390 . S
C280 H271 0.930 . S
C280 C278 1.384 . S
C280 C281 1.372 . S
C281 C280 1.372 . S
C281 C282 1.400 . S
C281 C286 1.490 . S
C282 H272 0.930 . S
C282 C281 1.400 . S
C282 C285 1.386 . S
H283 C299 0.930 . S
H284 C300 0.931 . S
C285 H273 0.929 . S
C285 C279 1.390 . S
C285 C282 1.386 . S
C286 C281 1.490 . S
C286 C288 1.395 . S
C286 C289 1.403 . S
H287 C293 0.930 . S
C288 H274 0.930 . S
C288 C286 1.395 . S
C288 C291 1.403 . S
C289 C286 1.403 . S
C289 C290 1.524 . S
C289 C293 1.400 . S
C290 H275 0.960 . S
C290 H276 0.960 . S
C290 H277 0.960 . S
C290 C289 1.524 . S
C291 C288 1.403 . S
C291 C292 1.392 . S
C291 C295 1.495 . S
C292 C291 1.392 . S
C292 C293 1.385 . S
C292 C294 1.478 . S
C293 H287 0.930 . S
C293 C289 1.400 . S
C293 C292 1.385 . S
C294 C292 1.478 . S
C294 C296 1.381 . S
C294 C300 1.383 . S
C295 C291 1.495 . S
C295 H301 0.959 . S
C295 H302 0.961 . S
C295 H303 0.960 . S
C296 C294 1.381 . S
C296 C297 1.394 . S
C296 H304 0.930 . S
C297 C296 1.394 . S
C297 C298 1.383 . S
C297 H305 0.929 . S
C298 C297 1.383 . S
C298 C299 1.377 . S
C299 H283 0.930 . S
C299 C298 1.377 . S
C299 C300 1.379 . S
C300 H284 0.931 . S
C300 C294 1.383 . S
C300 C299 1.379 . S
H301 C295 0.959 . S
H302 C295 0.961 . S
H303 C295 0.960 . S
H304 C296 0.930 . S
H305 C297 0.929 . S
H306 C314 0.929 . S
H307 C316 0.930 . S
H308 C318 0.930 . S
H309 C321 0.929 . S
H310 C324 0.930 . S
H311 C326 0.960 . S
H312 C326 0.960 . S
H313 C326 0.960 1_556 S
C314 H306 0.929 . S
C314 C315 1.377 1_554 S
C314 C316 1.384 . S
C315 C314 1.377 1_556 S
C315 C321 1.390 . S
C316 H307 0.930 . S
C316 C314 1.384 . S
C316 C317 1.372 . S
C317 C316 1.372 . S
C317 C318 1.400 1_554 S
C317 C322 1.490 . S
C318 H308 0.930 . S
C318 C317 1.400 1_556 S
C318 C321 1.386 . S
H319 C335 0.930 . S
H320 C336 0.931 . S
C321 H309 0.929 . S
C321 C315 1.390 . S
C321 C318 1.386 . S
C322 C317 1.490 . S
C322 C324 1.395 . S
C322 C325 1.403 . S
H323 C329 0.930 . S
C324 H310 0.930 . S
C324 C322 1.395 . S
C324 C327 1.403 . S
C325 C322 1.403 . S
C325 C326 1.524 . S
C325 C329 1.400 . S
C326 H311 0.960 . S
C326 H312 0.960 . S
C326 H313 0.960 1_554 S
C326 C325 1.524 . S
C327 C324 1.403 . S
C327 C328 1.392 . S
C327 C331 1.495 . S
C328 C327 1.392 . S
C328 C329 1.385 . S
C328 C330 1.478 . S
C329 H323 0.930 . S
C329 C325 1.400 . S
C329 C328 1.385 . S
C330 C328 1.478 . S
C330 C332 1.381 . S
C330 C336 1.383 1_554 S
C331 C327 1.495 . S
C331 H337 0.959 . S
C331 H338 0.961 . S
C331 H339 0.960 . S
C332 C330 1.381 . S
C332 C333 1.394 . S
C332 H340 0.930 . S
C333 C332 1.394 . S
C333 C334 1.383 . S
C333 H341 0.929 . S
C334 C333 1.383 . S
C334 C335 1.377 1_554 S
C335 H319 0.930 . S
C335 C334 1.377 1_556 S
C335 C336 1.379 . S
C336 H320 0.931 . S
C336 C330 1.383 1_556 S
C336 C335 1.379 . S
H337 C331 0.959 . S
H338 C331 0.961 . S
H339 C331 0.960 . S
H340 C332 0.930 . S
H341 C333 0.929 . S
H342 C350 0.929 . S
H343 C352 0.930 . S
H344 C354 0.930 . S
H345 C357 0.929 . S
H346 C360 0.930 . S
H347 C362 0.960 . S
H348 C362 0.960 . S
H349 C362 0.960 . S
C350 H342 0.929 . S
C350 C351 1.377 . S
C350 C352 1.384 . S
C351 C350 1.377 . S
C351 C357 1.390 . S
C352 H343 0.930 . S
C352 C350 1.384 . S
C352 C353 1.372 . S
C353 C352 1.372 . S
C353 C354 1.400 . S
C353 C358 1.490 . S
C354 H344 0.930 . S
C354 C353 1.400 . S
C354 C357 1.386 . S
H355 C371 0.930 1_545 S
H356 C372 0.931 . S
C357 H345 0.929 . S
C357 C351 1.390 . S
C357 C354 1.386 . S
C358 C353 1.490 . S
C358 C360 1.395 . S
C358 C361 1.403 . S
H359 C365 0.915 1_545 S
C360 H346 0.930 . S
C360 C358 1.395 . S
C360 C363 1.403 . S
C361 C358 1.403 . S
C361 C362 1.524 1_565 S
C361 C365 1.400 . S
C362 H347 0.960 . S
C362 H348 0.960 . S
C362 H349 0.960 . S
C362 C361 1.524 1_545 S
C363 C360 1.403 . S
C363 C364 1.392 . S
C363 C367 1.495 . S
C364 C363 1.392 . S
C364 C365 1.385 . S
C364 C366 1.478 . S
C365 H359 0.915 1_565 S
C365 C361 1.400 . S
C365 C364 1.385 . S
C366 C364 1.478 . S
C366 C368 1.381 . S
C366 C372 1.383 . S
C367 C363 1.495 . S
C367 H373 0.959 . S
C367 H374 0.961 . S
C367 H375 0.960 . S
C368 C366 1.381 . S
C368 C369 1.394 . S
C368 H376 0.930 . S
C369 C368 1.394 . S
C369 C370 1.383 . S
C369 H377 0.929 . S
C370 C369 1.383 . S
C370 C371 1.377 . S
C371 H355 0.930 1_565 S
C371 C370 1.377 . S
C371 C372 1.379 . S
C372 H356 0.931 . S
C372 C366 1.383 . S
C372 C371 1.379 . S
H373 C367 0.959 . S
H374 C367 0.961 . S
H375 C367 0.960 . S
H376 C368 0.930 . S
H377 C369 0.929 . S
H378 C386 0.929 . S
H379 C388 0.930 . S
H380 C390 0.930 . S
H381 C393 0.929 . S
H382 C396 0.930 . S
H383 C398 0.960 . S
H384 C398 0.960 . S
H385 C398 0.960 . S
C386 H378 0.929 . S
C386 C387 1.377 . S
C386 C388 1.384 . S
C387 C386 1.377 . S
C387 C393 1.390 . S
C388 H379 0.930 . S
C388 C386 1.384 . S
C388 C389 1.372 . S
C389 C388 1.372 . S
C389 C390 1.400 . S
C389 C394 1.490 . S
C390 H380 0.930 . S
C390 C389 1.400 . S
C390 C393 1.386 . S
H391 C407 0.930 . S
H392 C408 0.931 . S
C393 H381 0.929 . S
C393 C387 1.390 . S
C393 C390 1.386 . S
C394 C389 1.490 . S
C394 C396 1.395 . S
C394 C397 1.403 . S
H395 C401 0.930 . S
C396 H382 0.930 . S
C396 C394 1.395 . S
C396 C399 1.403 . S
C397 C394 1.403 . S
C397 C398 1.524 . S
C397 C401 1.400 . S
C398 H383 0.960 . S
C398 H384 0.960 . S
C398 H385 0.960 . S
C398 C397 1.524 . S
C399 C396 1.403 . S
C399 C400 1.392 . S
C399 C403 1.495 . S
C400 C399 1.392 . S
C400 C401 1.385 . S
C400 C402 1.478 . S
C401 H395 0.930 . S
C401 C397 1.400 . S
C401 C400 1.385 . S
C402 C400 1.478 . S
C402 C404 1.381 . S
C402 C408 1.383 . S
C403 C399 1.495 . S
C403 H409 0.959 . S
C403 H410 0.961 . S
C403 H411 0.960 . S
C404 C402 1.381 . S
C404 C405 1.394 . S
C404 H412 0.930 . S
C405 C404 1.394 . S
C405 C406 1.383 . S
C405 H413 0.929 . S
C406 C405 1.383 . S
C406 C407 1.377 . S
C407 H391 0.930 . S
C407 C406 1.377 . S
C407 C408 1.379 . S
C408 H392 0.931 . S
C408 C402 1.383 . S
C408 C407 1.379 . S
H409 C403 0.959 . S
H410 C403 0.961 . S
H411 C403 0.960 . S
H412 C404 0.930 . S
H413 C405 0.929 . S
H414 C422 0.929 . S
H415 C424 0.930 . S
H416 C426 0.930 . S
H417 C429 0.929 . S
H418 C432 0.930 . S
H419 C434 0.960 . S
H420 C434 0.960 . S
H421 C434 0.960 . S
C422 H414 0.929 . S
C422 C423 1.377 . S
C422 C424 1.384 . S
C423 C422 1.377 . S
C423 C429 1.390 . S
C424 H415 0.930 . S
C424 C422 1.384 . S
C424 C425 1.372 . S
C425 C424 1.372 . S
C425 C426 1.400 . S
C425 C430 1.490 . S
C426 H416 0.930 . S
C426 C425 1.400 . S
C426 C429 1.386 . S
H427 C443 0.930 . S
H428 C444 0.931 . S
C429 H417 0.929 . S
C429 C423 1.390 . S
C429 C426 1.386 . S
C430 C425 1.490 . S
C430 C432 1.395 . S
C430 C433 1.403 . S
H431 C437 0.930 . S
C432 H418 0.930 . S
C432 C430 1.395 . S
C432 C435 1.403 . S
C433 C430 1.403 . S
C433 C434 1.524 . S
C433 C437 1.400 . S
C434 H419 0.960 . S
C434 H420 0.960 . S
C434 H421 0.960 . S
C434 C433 1.524 . S
C435 C432 1.403 . S
C435 C436 1.392 . S
C435 C439 1.495 . S
C436 C435 1.392 . S
C436 C437 1.385 . S
C436 C438 1.478 . S
C437 H431 0.930 . S
C437 C433 1.400 . S
C437 C436 1.385 . S
C438 C436 1.478 . S
C438 C440 1.381 . S
C438 C444 1.383 . S
C439 C435 1.495 . S
C439 H445 0.959 . S
C439 H446 0.961 . S
C439 H447 0.960 . S
C440 C438 1.381 . S
C440 C441 1.394 . S
C440 H448 0.930 . S
C441 C440 1.394 . S
C441 C442 1.383 . S
C441 H449 0.929 . S
C442 C441 1.383 . S
C442 C443 1.377 . S
C443 H427 0.930 . S
C443 C442 1.377 . S
C443 C444 1.379 . S
C444 H428 0.931 . S
C444 C438 1.383 . S
C444 C443 1.379 . S
H445 C439 0.959 . S
H446 C439 0.961 . S
H447 C439 0.960 . S
H448 C440 0.930 . S
H449 C441 0.929 . S
H450 C458 0.929 . S
H451 C460 0.930 . S
H452 C462 0.930 . S
H453 C465 0.929 . S
H454 C468 0.930 . S
H455 C470 0.960 . S
H456 C470 0.960 . S
H457 C470 0.960 . S
C458 H450 0.929 . S
C458 C459 1.377 . S
C458 C460 1.384 . S
C459 C458 1.377 . S
C459 C465 1.390 . S
C460 H451 0.930 . S
C460 C458 1.384 . S
C460 C461 1.372 . S
C461 C460 1.372 . S
C461 C462 1.400 . S
C461 C466 1.490 . S
C462 H452 0.930 . S
C462 C461 1.400 . S
C462 C465 1.386 . S
H463 C479 0.930 . S
H464 C480 0.931 . S
C465 H453 0.929 . S
C465 C459 1.390 . S
C465 C462 1.386 . S
C466 C461 1.490 . S
C466 C468 1.395 . S
C466 C469 1.403 . S
H467 C473 0.930 . S
C468 H454 0.930 . S
C468 C466 1.395 . S
C468 C471 1.403 . S
C469 C466 1.403 . S
C469 C470 1.524 . S
C469 C473 1.400 . S
C470 H455 0.960 . S
C470 H456 0.960 . S
C470 H457 0.960 . S
C470 C469 1.524 . S
C471 C468 1.403 . S
C471 C472 1.392 . S
C471 C475 1.495 . S
C472 C471 1.392 . S
C472 C473 1.385 . S
C472 C474 1.478 . S
C473 H467 0.930 . S
C473 C469 1.400 . S
C473 C472 1.385 . S
C474 C472 1.478 . S
C474 C476 1.381 . S
C474 C480 1.383 . S
C475 C471 1.495 . S
C475 H481 0.959 . S
C475 H482 0.961 . S
C475 H483 0.960 . S
C476 C474 1.381 . S
C476 C477 1.394 . S
C476 H484 0.930 . S
C477 C476 1.394 . S
C477 C478 1.383 . S
C477 H485 0.929 . S
C478 C477 1.383 . S
C478 C479 1.377 . S
C479 H463 0.930 . S
C479 C478 1.377 . S
C479 C480 1.379 . S
C480 H464 0.931 . S
C480 C474 1.383 . S
C480 C479 1.379 . S
H481 C475 0.959 . S
H482 C475 0.961 . S
H483 C475 0.960 . S
H484 C476 0.930 . S
H485 C477 0.929 . S
H486 C494 0.929 . S
H487 C496 0.930 . S
H488 C498 0.930 . S
H489 C501 0.929 . S
H490 C504 0.930 . S
H491 C506 0.960 . S
H492 C506 0.960 . S
H493 C506 0.960 . S
C494 H486 0.929 . S
C494 C495 1.377 . S
C494 C496 1.384 . S
C495 C494 1.377 . S
C495 C501 1.390 . S
C496 H487 0.930 . S
C496 C494 1.384 . S
C496 C497 1.372 . S
C497 C496 1.372 . S
C497 C498 1.400 . S
C497 C502 1.490 . S
C498 H488 0.930 . S
C498 C497 1.400 . S
C498 C501 1.386 . S
H499 C515 0.930 . S
H500 C516 0.931 . S
C501 H489 0.929 . S
C501 C495 1.390 . S
C501 C498 1.386 . S
C502 C497 1.490 . S
C502 C504 1.395 . S
C502 C505 1.403 . S
H503 C509 0.930 . S
C504 H490 0.930 . S
C504 C502 1.395 . S
C504 C507 1.403 . S
C505 C502 1.403 . S
C505 C506 1.524 . S
C505 C509 1.400 . S
C506 H491 0.960 . S
C506 H492 0.960 . S
C506 H493 0.960 . S
C506 C505 1.524 . S
C507 C504 1.403 . S
C507 C508 1.392 . S
C507 C511 1.495 . S
C508 C507 1.392 . S
C508 C509 1.385 . S
C508 C510 1.478 . S
C509 H503 0.930 . S
C509 C505 1.400 . S
C509 C508 1.385 . S
C510 C508 1.478 . S
C510 C512 1.381 . S
C510 C516 1.383 . S
C511 C507 1.495 . S
C511 H517 0.959 . S
C511 H518 0.961 . S
C511 H519 0.960 . S
C512 C510 1.381 . S
C512 C513 1.394 . S
C512 H520 0.930 . S
C513 C512 1.394 . S
C513 C514 1.383 . S
C513 H521 0.929 . S
C514 C513 1.383 . S
C514 C515 1.377 . S
C515 H499 0.930 . S
C515 C514 1.377 . S
C515 C516 1.379 . S
C516 H500 0.931 . S
C516 C510 1.383 . S
C516 C515 1.379 . S
H517 C511 0.959 . S
H518 C511 0.961 . S
H519 C511 0.960 . S
H520 C512 0.930 . S
H521 C513 0.929 . S
H522 C530 0.929 . S
H523 C532 0.930 . S
H524 C534 0.930 . S
H525 C537 0.929 . S
H526 C540 0.930 . S
H527 C542 0.960 . S
H528 C542 0.960 . S
H529 C542 0.960 . S
C530 H522 0.929 . S
C530 C531 1.377 . S
C530 C532 1.384 . S
C531 C530 1.377 . S
C531 C537 1.390 . S
C532 H523 0.930 . S
C532 C530 1.384 . S
C532 C533 1.372 . S
C533 C532 1.372 . S
C533 C534 1.400 . S
C533 C538 1.490 . S
C534 H524 0.930 . S
C534 C533 1.400 . S
C534 C537 1.386 . S
H535 C551 0.930 . S
H536 C552 0.931 . S
C537 H525 0.929 . S
C537 C531 1.390 . S
C537 C534 1.386 . S
C538 C533 1.490 . S
C538 C540 1.395 . S
C538 C541 1.403 . S
H539 C545 0.930 . S
C540 H526 0.930 . S
C540 C538 1.395 . S
C540 C543 1.403 . S
C541 C538 1.403 . S
C541 C542 1.524 . S
C541 C545 1.400 . S
C542 H527 0.960 . S
C542 H528 0.960 . S
C542 H529 0.960 . S
C542 C541 1.524 . S
C543 C540 1.403 . S
C543 C544 1.392 . S
C543 C547 1.495 . S
C544 C543 1.392 . S
C544 C545 1.385 . S
C544 C546 1.478 . S
C545 H539 0.930 . S
C545 C541 1.400 . S
C545 C544 1.385 . S
C546 C544 1.478 . S
C546 C548 1.381 . S
C546 C552 1.383 . S
C547 C543 1.495 . S
C547 H553 0.959 . S
C547 H554 0.961 . S
C547 H555 0.960 . S
C548 C546 1.381 . S
C548 C549 1.394 . S
C548 H556 0.930 . S
C549 C548 1.394 . S
C549 C550 1.383 . S
C549 H557 0.929 . S
C550 C549 1.383 . S
C550 C551 1.377 . S
C551 H535 0.930 . S
C551 C550 1.377 . S
C551 C552 1.379 . S
C552 H536 0.931 . S
C552 C546 1.383 . S
C552 C551 1.379 . S
H553 C547 0.959 . S
H554 C547 0.961 . S
H555 C547 0.960 . S
H556 C548 0.930 . S
H557 C549 0.929 . S
H558 C566 0.929 . S
H559 C568 0.930 . S
H560 C570 0.930 . S
H561 C573 0.929 . S
H562 C576 0.930 . S
H563 C578 0.960 . S
H564 C578 0.960 . S
H565 C578 0.960 . S
C566 H558 0.929 . S
C566 C567 1.377 . S
C566 C568 1.384 . S
C567 C566 1.377 . S
C567 C573 1.390 . S
C568 H559 0.930 . S
C568 C566 1.384 . S
C568 C569 1.372 . S
C569 C568 1.372 . S
C569 C570 1.400 . S
C569 C574 1.490 . S
C570 H560 0.930 . S
C570 C569 1.400 . S
C570 C573 1.386 . S
H571 C587 0.930 . S
H572 C588 0.931 . S
C573 H561 0.929 . S
C573 C567 1.390 . S
C573 C570 1.386 . S
C574 C569 1.490 . S
C574 C576 1.395 . S
C574 C577 1.403 . S
H575 C581 0.930 . S
C576 H562 0.930 . S
C576 C574 1.395 . S
C576 C579 1.403 . S
C577 C574 1.403 . S
C577 C578 1.524 . S
C577 C581 1.400 . S
C578 H563 0.960 . S
C578 H564 0.960 . S
C578 H565 0.960 . S
C578 C577 1.524 . S
C579 C576 1.403 . S
C579 C580 1.392 . S
C579 C583 1.495 . S
C580 C579 1.392 . S
C580 C581 1.385 . S
C580 C582 1.478 . S
C581 H575 0.930 . S
C581 C577 1.400 . S
C581 C580 1.385 . S
C582 C580 1.478 . S
C582 C584 1.381 . S
C582 C588 1.383 . S
C583 C579 1.495 . S
C583 H589 0.959 . S
C583 H590 0.961 . S
C583 H591 0.960 . S
C584 C582 1.381 . S
C584 C585 1.394 . S
C584 H592 0.930 . S
C585 C584 1.394 . S
C585 C586 1.383 . S
C585 H593 0.929 . S
C586 C585 1.383 . S
C586 C587 1.377 . S
C587 H571 0.930 . S
C587 C586 1.377 . S
C587 C588 1.379 . S
C588 H572 0.931 . S
C588 C582 1.383 . S
C588 C587 1.379 . S
H589 C583 0.959 . S
H590 C583 0.961 . S
H591 C583 0.960 . S
H592 C584 0.930 . S
H593 C585 0.929 . S
H594 C602 0.929 . S
H595 C604 0.930 . S
H596 C606 0.930 . S
H597 C609 0.929 . S
H598 C612 0.930 . S
H599 C614 0.960 . S
H600 C614 0.960 . S
H601 C614 0.960 . S
C602 H594 0.929 . S
C602 C603 1.377 . S
C602 C604 1.384 . S
C603 C602 1.377 . S
C603 C609 1.390 . S
C604 H595 0.930 . S
C604 C602 1.384 . S
C604 C605 1.372 . S
C605 C604 1.372 . S
C605 C606 1.400 . S
C605 C610 1.490 . S
C606 H596 0.930 . S
C606 C605 1.400 . S
C606 C609 1.386 . S
H607 C623 0.930 . S
H608 C624 0.931 . S
C609 H597 0.929 . S
C609 C603 1.390 . S
C609 C606 1.386 . S
C610 C605 1.490 . S
C610 C612 1.395 . S
C610 C613 1.403 . S
H611 C617 0.930 . S
C612 H598 0.930 . S
C612 C610 1.395 . S
C612 C615 1.403 . S
C613 C610 1.403 . S
C613 C614 1.524 . S
C613 C617 1.400 . S
C614 H599 0.960 . S
C614 H600 0.960 . S
C614 H601 0.960 . S
C614 C613 1.524 . S
C615 C612 1.403 . S
C615 C616 1.392 . S
C615 C619 1.495 1_565 S
C616 C615 1.392 . S
C616 C617 1.385 . S
C616 C618 1.478 . S
C617 H611 0.930 . S
C617 C613 1.400 . S
C617 C616 1.385 . S
C618 C616 1.478 . S
C618 C620 1.381 . S
C618 C624 1.383 . S
C619 C615 1.495 1_545 S
C619 H625 0.959 . S
C619 H626 0.961 . S
C619 H627 0.960 . S
C620 C618 1.381 . S
C620 C621 1.394 . S
C620 H628 0.930 . S
C621 C620 1.394 . S
C621 C622 1.383 . S
C621 H629 0.929 . S
C622 C621 1.383 . S
C622 C623 1.377 . S
C623 H607 0.930 . S
C623 C622 1.377 . S
C623 C624 1.379 . S
C624 H608 0.931 . S
C624 C618 1.383 . S
C624 C623 1.379 . S
H625 C619 0.959 . S
H626 C619 0.961 . S
H627 C619 0.960 . S
H628 C620 0.930 . S
H629 C621 0.929 . S
C226 C172 1.339 . S
C207 C138 1.491 . S
C243 C21 1.479 . S
C262 C193 1.271 . S
C279 C60 1.682 . S
C298 C169 1.461 . S
C315 C99 1.692 . S
C334 C190 1.483 . S
C370 C174 1.606 . S
C351 C16 1.624 . S
C406 C194 1.562 . S
C387 C40 1.589 . S
C423 C79 1.569 . S
C442 C170 1.508 . S
C459 C133 1.612 . S
C478 C192 1.557 . S
C514 C191 1.526 . S
C495 C55 1.567 . S
C550 C173 1.534 . S
C531 C94 1.593 . S
C586 C195 1.631 . S
C567 C118 1.626 . S
C603 C1 1.606 . S
C622 C171 1.520 . S
