# Generated by pormake.
# Topology zzz, (3,6)-cn, num edge types: 1
# Building blocks:
#     Node 0, Type 0, BuildingBlock: BELTOD_clean_linker_0, # of connection points: 3
#     Node 1, Type 0, BuildingBlock: BELTOD_clean_linker_0, # of connection points: 3
#     Node 2, Type 0, BuildingBlock: BELTOD_clean_linker_0, # of connection points: 3
#     Node 3, Type 0, BuildingBlock: BELTOD_clean_linker_0, # of connection points: 3
#     Node 4, Type 0, BuildingBlock: BELTOD_clean_linker_0, # of connection points: 3
#     Node 5, Type 0, BuildingBlock: BELTOD_clean_linker_0, # of connection points: 3
#     Node 6, Type 0, BuildingBlock: BELTOD_clean_linker_0, # of connection points: 3
#     Node 7, Type 0, BuildingBlock: BELTOD_clean_linker_0, # of connection points: 3
#     Node 8, Type 1, BuildingBlock: BETFAJ_clean_sbu_0, # of connection points: 6
#     Node 9, Type 1, BuildingBlock: BETFAJ_clean_sbu_0, # of connection points: 6
#     Node 10, Type 1, BuildingBlock: BETFAJ_clean_sbu_0, # of connection points: 6
#     Node 11, Type 1, BuildingBlock: BETFAJ_clean_sbu_0, # of connection points: 6
#     Edge 12, Type (0, 1), BuildingBlock: XIVTED_clean_linker_0, # of connection points: 2
#     Edge 13, Type (0, 1), BuildingBlock: XIVTED_clean_linker_0, # of connection points: 2
#     Edge 14, Type (0, 1), BuildingBlock: XIVTED_clean_linker_0, # of connection points: 2
#     Edge 15, Type (0, 1), BuildingBlock: XIVTED_clean_linker_0, # of connection points: 2
#     Edge 16, Type (0, 1), BuildingBlock: XIVTED_clean_linker_0, # of connection points: 2
#     Edge 17, Type (0, 1), BuildingBlock: XIVTED_clean_linker_0, # of connection points: 2
#     Edge 18, Type (0, 1), BuildingBlock: XIVTED_clean_linker_0, # of connection points: 2
#     Edge 19, Type (0, 1), BuildingBlock: XIVTED_clean_linker_0, # of connection points: 2
#     Edge 20, Type (0, 1), BuildingBlock: XIVTED_clean_linker_0, # of connection points: 2
#     Edge 21, Type (0, 1), BuildingBlock: XIVTED_clean_linker_0, # of connection points: 2
#     Edge 22, Type (0, 1), BuildingBlock: XIVTED_clean_linker_0, # of connection points: 2
#     Edge 23, Type (0, 1), BuildingBlock: XIVTED_clean_linker_0, # of connection points: 2
#     Edge 24, Type (0, 1), BuildingBlock: XIVTED_clean_linker_0, # of connection points: 2
#     Edge 25, Type (0, 1), BuildingBlock: XIVTED_clean_linker_0, # of connection points: 2
#     Edge 26, Type (0, 1), BuildingBlock: XIVTED_clean_linker_0, # of connection points: 2
#     Edge 27, Type (0, 1), BuildingBlock: XIVTED_clean_linker_0, # of connection points: 2
#     Edge 28, Type (0, 1), BuildingBlock: XIVTED_clean_linker_0, # of connection points: 2
#     Edge 29, Type (0, 1), BuildingBlock: XIVTED_clean_linker_0, # of connection points: 2
#     Edge 30, Type (0, 1), BuildingBlock: XIVTED_clean_linker_0, # of connection points: 2
#     Edge 31, Type (0, 1), BuildingBlock: XIVTED_clean_linker_0, # of connection points: 2
#     Edge 32, Type (0, 1), BuildingBlock: XIVTED_clean_linker_0, # of connection points: 2
#     Edge 33, Type (0, 1), BuildingBlock: XIVTED_clean_linker_0, # of connection points: 2
#     Edge 34, Type (0, 1), BuildingBlock: XIVTED_clean_linker_0, # of connection points: 2
#     Edge 35, Type (0, 1), BuildingBlock: XIVTED_clean_linker_0, # of connection points: 2
# Relax obj value: 0.437
# Max RMSD: 0.258
# Mean RMSD: 0.245
data_MOF--net-zzz--node1-BETFAJ_clean_sbu_0--node2-BELTOD_clean_linker_0--edge1-XIVTED_clean_linker_0
_symmetry_space_group_name_H-M    P1
_symmetry_Int_Tables_number       1
_symmetry_cell_setting            triclinic
loop_
_symmetry_equiv_pos_as_xyz
'x, y, z'
_cell_length_a     55.765306
_cell_length_b     55.806815
_cell_length_c     17.053228
_cell_angle_alpha  89.861896
_cell_angle_beta   90.049362
_cell_angle_gamma 90.066169
loop_
_atom_site_label
_atom_site_type_symbol
_atom_site_fract_x
_atom_site_fract_y
_atom_site_fract_z
_atom_type_partial_charge
P0 P 0.72017 0.47635 0.41607 0.0
H1 H 0.73858 0.48027 0.57599 0.0
H2 H 0.77777 0.49154 0.6249 0.0
H3 H 0.79533 0.52167 0.39815 0.0
H4 H 0.75677 0.50841 0.34812 0.0
H5 H 0.67141 0.4626 0.38093 0.0
H6 H 0.64259 0.47563 0.28269 0.0
H7 H 0.69011 0.53319 0.21492 0.0
H8 H 0.71888 0.52026 0.31508 0.0
H9 H 0.74599 0.43261 0.45507 0.0
H10 H 0.73132 0.47473 0.24819 0.0
O11 O 0.70626 0.46142 0.4878 0.0
H12 H 0.77697 0.4107 0.38373 0.0
H13 H 0.76236 0.45355 0.17764 0.0
C14 C 0.74421 0.49392 0.45852 0.0
C15 C 0.75048 0.49002 0.53726 0.0
C16 C 0.77317 0.49652 0.56541 0.0
C17 C 0.79022 0.50728 0.51554 0.0
C18 C 0.7831 0.5129 0.43823 0.0
C19 C 0.76056 0.50595 0.4098 0.0
C20 C 0.69732 0.49051 0.35634 0.0
C21 C 0.67541 0.47851 0.34684 0.0
C22 C 0.65888 0.48597 0.29029 0.0
C23 C 0.66403 0.50543 0.24066 0.0
C24 C 0.68568 0.51801 0.25186 0.0
C25 C 0.70213 0.51069 0.30954 0.0
C26 C 0.73614 0.45513 0.35684 0.0
C27 C 0.74877 0.43652 0.39349 0.0
C28 C 0.76664 0.42418 0.35287 0.0
C29 C 0.77234 0.43053 0.2752 0.0
C30 C 0.75828 0.44791 0.23696 0.0
C31 C 0.74044 0.46017 0.27757 0.0
P32 P 0.04078 0.72196 0.42026 0.0
H33 H 0.02901 0.74014 0.57661 0.0
H34 H 0.01622 0.7796 0.61879 0.0
H35 H 0.99854 0.79778 0.37897 0.0
H36 H 0.01313 0.75885 0.33683 0.0
H37 H 0.05368 0.6722 0.39712 0.0
H38 H 0.04224 0.64257 0.29956 0.0
H39 H 0.98795 0.69076 0.21101 0.0
H40 H 0.99968 0.72047 0.30894 0.0
H41 H 0.07205 0.76169 0.45877 0.0
H42 H 0.05946 0.71635 0.25833 0.0
O43 O 0.05389 0.70922 0.49785 0.0
H44 H 0.09341 0.78999 0.37645 0.0
H45 H 0.08224 0.74377 0.17624 0.0
C46 C 0.02169 0.74614 0.45349 0.0
C47 C 0.0216 0.75226 0.53326 0.0
C48 C 0.01425 0.77506 0.55746 0.0
C49 C 1.00664 0.79232 0.50237 0.0
C50 C 1.00481 0.78533 0.42319 0.0
C51 C 0.01252 0.76264 0.39899 0.0
C52 C 0.02742 0.69855 0.36128 0.0
C53 C 0.03881 0.67618 0.35835 0.0
C54 C 0.03224 0.65917 0.30222 0.0
C55 C 0.01422 0.66424 0.2469 0.0
C56 C 1.00212 0.68635 0.25202 0.0
C57 C 1.0087 0.70336 0.30856 0.0
C58 C 0.06358 0.73725 0.36455 0.0
C59 C 0.0747 0.75736 0.3975 0.0
C60 C 0.08715 0.77351 0.35007 0.0
C61 C 0.08911 0.76957 0.26879 0.0
C62 C 0.08039 0.74784 0.23797 0.0
C63 C 0.06746 0.73195 0.28525 0.0
P64 P 0.79985 0.04191 0.41852 0.0
H65 H 0.78113 0.038 0.57788 0.0
H66 H 0.74213 0.0259 0.6261 0.0
H67 H 0.72574 0.99486 0.40012 0.0
H68 H 0.76426 1.00874 0.35078 0.0
H69 H 0.84754 0.05784 0.37999 0.0
H70 H 0.87707 0.04494 0.28458 0.0
H71 H 0.83296 0.98369 0.22777 0.0
H72 H 0.80329 0.99678 0.3247 0.0
H73 H 0.77483 0.08658 0.45176 0.0
H74 H 0.78777 0.04132 0.25166 0.0
O75 O 0.81317 0.0574 0.49002 0.0
H76 H 0.74434 0.10843 0.37752 0.0
H77 H 0.75711 0.06237 0.17835 0.0
C78 C 0.77609 0.02393 0.46085 0.0
C79 C 0.76955 0.02788 0.5392 0.0
C80 C 0.74698 0.0209 0.56695 0.0
C81 C 0.73031 0.00962 0.51704 0.0
C82 C 0.73771 1.004 0.44016 0.0
C83 C 0.76018 0.01136 0.41215 0.0
C84 C 0.82325 0.02819 0.36054 0.0
C85 C 0.84445 0.04123 0.34885 0.0
C86 C 0.86141 0.0338 0.29394 0.0
C87 C 0.85747 0.01323 0.2483 0.0
C88 C 0.83648 0.99972 0.26154 0.0
C89 C 0.81953 1.00711 0.31741 0.0
C90 C 0.7838 0.06253 0.35699 0.0
C91 C 0.77174 0.08191 0.39098 0.0
C92 C 0.75414 0.09422 0.3487 0.0
C93 C 0.74808 0.08703 0.27216 0.0
C94 C 0.76149 0.0687 0.2366 0.0
C95 C 0.7791 0.05652 0.27878 0.0
P96 P 0.47427 0.79775 0.41878 0.0
H97 H 0.48401 0.78043 0.5775 0.0
H98 H 0.4981 0.74184 0.62411 0.0
H99 H 0.52075 0.72396 0.389 0.0
H100 H 0.50509 0.76205 0.34213 0.0
H101 H 0.45629 0.84427 0.37414 0.0
H102 H 0.46809 0.87347 0.2751 0.0
H103 H 0.52983 0.83028 0.21775 0.0
H104 H 0.518 0.80112 0.31825 0.0
H105 H 0.43205 0.77165 0.47169 0.0
H106 H 0.46899 0.78463 0.25367 0.0
O107 O 0.46112 0.81164 0.4939 0.0
H108 H 0.40945 0.73914 0.41046 0.0
H109 H 0.44707 0.75199 0.19281 0.0
C110 C 0.49385 0.77457 0.45632 0.0
C111 C 0.49278 0.76863 0.53624 0.0
C112 C 0.50088 0.74633 0.56301 0.0
C113 C 0.51032 0.72938 0.51037 0.0
C114 C 0.51313 0.73621 0.43126 0.0
C115 C 0.50472 0.75841 0.40445 0.0
C116 C 0.48631 0.82054 0.35432 0.0
C117 C 0.4727 0.8413 0.34165 0.0
C118 C 0.47949 0.85805 0.28488 0.0
C119 C 0.49993 0.85427 0.23841 0.0
C120 C 0.51388 0.83364 0.2522 0.0
C121 C 0.50716 0.81695 0.3099 0.0
C122 C 0.45197 0.78076 0.36703 0.0
C123 C 0.4346 0.76815 0.40981 0.0
C124 C 0.42189 0.74939 0.37496 0.0
C125 C 0.42664 0.74275 0.29697 0.0
C126 C 0.44268 0.75675 0.25261 0.0
C127 C 0.45531 0.77552 0.2875 0.0
P128 P 0.30067 0.46245 0.03577 0.0
H129 H 0.28366 0.46803 0.87471 0.0
H130 H 0.24574 0.48378 0.82735 0.0
H131 H 0.23474 0.51912 0.04951 0.0
H132 H 0.27269 0.50283 0.09701 0.0
H133 H 0.33516 0.43576 0.126 0.0
H134 H 0.36553 0.44666 0.22185 0.0
H135 H 0.34921 0.52158 0.18493 0.0
H136 H 0.31817 0.51024 0.0896 0.0
H137 H 0.26426 0.42782 0.99018 0.0
H138 H 0.28711 0.46368 0.20131 0.0
O139 O 0.31251 0.44442 0.96819 0.0
H140 H 0.22403 0.42325 0.04506 0.0
H141 H 0.24718 0.45893 0.25601 0.0
C142 C 0.28136 0.48437 0.98936 0.0
C143 C 0.27378 0.48016 0.91208 0.0
C144 C 0.2518 0.48909 0.88509 0.0
C145 C 0.23678 0.50237 0.935 0.0
C146 C 0.24555 0.50856 0.00981 0.0
C147 C 0.26762 0.49968 0.03659 0.0
C148 C 0.32443 0.47215 0.10056 0.0
C149 C 0.33827 0.45457 0.1379 0.0
C150 C 0.3558 0.46089 0.19258 0.0
C151 C 0.36007 0.48507 0.21128 0.0
C152 C 0.34631 0.50277 0.17275 0.0
C153 C 0.32862 0.49635 0.11782 0.0
C154 C 0.2787 0.44616 0.0914 0.0
C155 C 0.26114 0.43323 0.05027 0.0
C156 C 0.23809 0.43073 0.08143 0.0
C157 C 0.23258 0.44112 0.15398 0.0
C158 C 0.25109 0.45089 0.19968 0.0
C159 C 0.27404 0.45341 0.16853 0.0
P160 P 0.06933 0.30051 0.02855 0.0
H161 H 0.05768 0.28449 0.86997 0.0
H162 H 0.04199 0.24615 0.8268 0.0
H163 H 0.01707 0.2315 0.06189 0.0
H164 H 0.03335 0.26992 0.10504 0.0
H165 H 0.09738 0.33871 0.09483 0.0
H166 H 0.08974 0.36884 0.19493 0.0
H167 H 0.01631 0.34471 0.21231 0.0
H168 H 0.02414 0.31447 0.11062 0.0
H169 H 0.1024 0.26417 0.97277 0.0
H170 H 0.07527 0.28891 0.19502 0.0
O171 O 0.08476 0.31244 0.95425 0.0
H172 H 0.11263 0.22567 0.0324 0.0
H173 H 0.08527 0.25081 0.25443 0.0
C174 C 0.04661 0.28039 0.99083 0.0
C175 C 0.04781 0.27366 0.91167 0.0
C176 C 0.03892 0.25144 0.88699 0.0
C177 C 0.02868 0.23533 0.9411 0.0
C178 C 0.0253 0.24317 0.0188 0.0
C179 C 0.03413 0.26548 0.04331 0.0
C180 C 0.06134 0.32441 0.09493 0.0
C181 C 0.07951 0.3401 0.11926 0.0
C182 C 0.07518 0.3572 0.1771 0.0
C183 C 0.05248 0.35906 0.2123 0.0
C184 C 0.03397 0.34381 0.18609 0.0
C185 C 0.03842 0.32647 0.12812 0.0
C186 C 0.08811 0.27945 0.07933 0.0
C187 C 0.0999 0.26185 0.03531 0.0
C188 C 0.10544 0.23972 0.06922 0.0
C189 C 0.09933 0.23502 0.14771 0.0
C190 C 0.09037 0.25383 0.19394 0.0
C191 C 0.08468 0.27582 0.15987 0.0
P192 P 0.21638 0.05247 0.02809 0.0
H193 H 0.23291 0.04373 0.86746 0.0
H194 H 0.27157 0.02979 0.82014 0.0
H195 H 0.28873 1.00394 0.05252 0.0
H196 H 0.25046 0.01886 0.09996 0.0
H197 H 0.1705 0.07205 0.07441 0.0
H198 H 0.14129 0.06074 0.17407 0.0
H199 H 0.18126 0.99601 0.22096 0.0
H200 H 0.21043 1.00744 0.12034 0.0
H201 H 0.25334 0.08664 0.98478 0.0
H202 H 0.22282 0.05851 0.19845 0.0
O203 O 0.20411 0.06872 0.95625 0.0
H204 H 0.2911 0.09388 0.0528 0.0
H205 H 0.26025 0.06621 0.26661 0.0
C206 C 0.23833 0.03205 0.98723 0.0
C207 C 0.24447 0.03413 0.90768 0.0
C208 C 0.26683 0.02622 0.8806 0.0
C209 C 0.28364 0.01607 0.93263 0.0
C210 C 0.27653 0.01208 0.01085 0.0
C211 C 0.25422 0.02007 0.03783 0.0
C212 C 0.19259 0.04054 0.08904 0.0
C213 C 0.17267 0.05508 0.10451 0.0
C214 C 0.15593 0.04858 0.16179 0.0
C215 C 0.15891 0.02748 0.20593 0.0
C216 C 0.17854 0.01252 0.18866 0.0
C217 C 0.19521 0.01897 0.13065 0.0
C218 C 0.23542 0.07151 0.08588 0.0
C219 C 0.25417 0.08352 0.04745 0.0
C220 C 0.27585 0.08761 0.08639 0.0
C221 C 0.27872 0.0799 0.16422 0.0
C222 C 0.25854 0.07187 0.20603 0.0
C223 C 0.23702 0.06756 0.16693 0.0
P224 P 0.45298 0.22092 0.02699 0.0
H225 H 0.46754 0.23775 0.87183 0.0
H226 H 0.48464 0.27608 0.83365 0.0
H227 H 0.50514 0.28917 0.07411 0.0
H228 H 0.48764 0.25068 0.11206 0.0
H229 H 0.42336 0.18506 0.10059 0.0
H230 H 0.43054 0.15473 0.2011 0.0
H231 H 0.50541 0.17456 0.20748 0.0
H232 H 0.49803 0.20497 0.10557 0.0
H233 H 0.42071 0.25691 0.96276 0.0
H234 H 0.44391 0.23296 0.19109 0.0
O235 O 0.43932 0.20872 0.94965 0.0
H236 H 0.40889 0.2954 0.01864 0.0
H237 H 0.43255 0.27097 0.24672 0.0
C238 C 0.47643 0.24106 0.99483 0.0
C239 C 0.47677 0.24822 0.91591 0.0
C240 C 0.48645 0.2704 0.89413 0.0
C241 C 0.49588 0.28604 0.95101 0.0
C242 C 0.49762 0.27781 0.02893 0.0
C243 C 0.48806 0.2555 0.05052 0.0
C244 C 0.46011 0.1973 0.09578 0.0
C245 C 0.44139 0.18275 0.12305 0.0
C246 C 0.44548 0.16553 0.181 0.0
C247 C 0.4685 0.16236 0.21302 0.0
C248 C 0.48749 0.17649 0.18382 0.0
C249 C 0.4833 0.19394 0.12581 0.0
C250 C 0.4331 0.24198 0.07268 0.0
C251 C 0.42204 0.2594 0.02559 0.0
C252 C 0.41561 0.28155 0.05742 0.0
C253 C 0.4202 0.28649 0.13684 0.0
C254 C 0.42853 0.26785 0.18545 0.0
C255 C 0.43503 0.24585 0.15353 0.0
Sm256 Sm 0.02325 1.00428 0.81081 0.0
Sm257 Sm 0.99443 0.02141 0.65637 0.0
C258 C 0.03524 0.98723 0.94953 0.0
C259 C 0.05031 0.96709 0.97395 0.0
C260 C 0.06229 0.9534 0.91734 0.0
C261 C 0.0748 0.93281 0.93931 0.0
C262 C 0.07546 0.92553 0.01826 0.0
C263 C 0.0642 0.93989 0.07516 0.0
C264 C 0.05167 0.96051 0.05305 0.0
C265 C 0.05373 1.00793 0.68175 0.0
C266 C 1.00389 0.96428 0.6823 0.0
C267 C 0.98406 0.04243 0.52206 0.0
C268 C 0.99885 0.05962 0.47845 0.0
C269 C 0.0218 0.06514 0.50676 0.0
C270 C 0.03648 0.08115 0.46652 0.0
C271 C 0.02834 0.09239 0.39769 0.0
C272 C 1.00528 0.08673 0.36911 0.0
C273 C 0.99065 0.07037 0.40923 0.0
C274 C 0.9668 1.00883 0.78374 0.0
C275 C 0.01661 0.06156 0.78042 0.0
O276 O 0.01536 0.98118 0.91326 0.0
O277 O 0.04654 1.00517 0.91609 0.0
O278 O 0.03172 0.01204 0.68607 0.0
O279 O 0.06109 1.00151 0.75089 0.0
O280 O 0.00949 0.96884 0.7564 0.0
O281 O 1.00019 0.98148 0.63004 0.0
O282 O 0.9931 0.02083 0.5265 0.0
O283 O 0.97586 0.05013 0.58942 0.0
O284 O 0.98661 0.01972 0.78564 0.0
O285 O 0.95963 1.00617 0.71152 0.0
O286 O 0.01069 0.05647 0.70697 0.0
O287 O 0.01969 0.04465 0.834 0.0
H288 H 0.06138 0.9583 0.85587 0.0
H289 H 0.08347 0.92227 0.89427 0.0
H290 H 0.06409 0.93459 0.1363 0.0
H291 H 0.04243 0.97088 0.09732 0.0
H292 H 0.02844 0.057 0.56021 0.0
H293 H 0.05424 0.08469 0.48951 0.0
H294 H 0.99835 0.0953 0.31678 0.0
H295 H 0.97294 0.06629 0.38668 0.0
Sm296 Sm 0.51179 0.02367 0.79288 0.0
Sm297 Sm 0.49995 0.99249 0.64247 0.0
C298 C 0.52748 0.0439 0.92347 0.0
C299 C 0.54975 0.05427 0.95397 0.0
C300 C 0.57212 0.04705 0.92504 0.0
C301 C 0.59314 0.05728 0.95447 0.0
C302 C 0.5921 0.07498 0.01305 0.0
C303 C 0.56955 0.08243 0.0407 0.0
C304 C 0.54856 0.07213 0.01135 0.0
C305 C 0.49595 0.04832 0.66243 0.0
C306 C 0.55636 1.00456 0.67798 0.0
C307 C 0.48648 0.98332 0.49723 0.0
C308 C 0.47085 0.99681 0.44423 0.0
C309 C 0.4598 0.01779 0.47108 0.0
C310 C 0.44327 0.02981 0.42407 0.0
C311 C 0.43727 0.02084 0.34968 0.0
C312 C 0.4492 1.00034 0.32162 0.0
C313 C 0.46593 0.9884 0.36869 0.0
C314 C 0.50743 0.96235 0.76915 0.0
C315 C 0.4573 1.00747 0.76646 0.0
O316 O 0.52714 0.02068 0.91259 0.0
O317 O 0.51725 0.05586 0.86669 0.0
O318 O 0.51036 0.03098 0.66281 0.0
O319 O 0.48962 0.05373 0.73344 0.0
O320 O 0.54978 0.01672 0.74135 0.0
O321 O 0.5408 0.99369 0.63143 0.0
O322 O 0.50683 0.99375 0.51441 0.0
O323 O 0.47573 0.97418 0.55867 0.0
O324 O 0.50827 0.98484 0.76771 0.0
O325 O 0.5034 0.9545 0.69859 0.0
O326 O 0.46306 1.00512 0.69134 0.0
O327 O 0.47393 0.01052 0.82074 0.0
H328 H 0.57333 0.03339 0.88027 0.0
H329 H 0.6102 0.05087 0.93271 0.0
H330 H 0.56812 0.09621 0.08503 0.0
H331 H 0.53138 0.0781 0.03357 0.0
H332 H 0.46328 0.02433 0.52971 0.0
H333 H 0.43417 0.0453 0.44794 0.0
H334 H 0.44505 0.99313 0.26427 0.0
H335 H 0.47442 0.97226 0.34715 0.0
Sm336 Sm 0.49532 0.51665 0.80885 0.0
Sm337 Sm 0.52315 0.49928 0.65349 0.0
C338 C 0.47757 0.52746 0.9478 0.0
C339 C 0.46351 0.5473 0.98017 0.0
C340 C 0.46331 0.56967 0.94261 0.0
C341 C 0.4511 0.58892 0.97599 0.0
C342 C 0.43869 0.58611 0.04729 0.0
C343 C 0.43819 0.56333 0.08303 0.0
C344 C 0.45057 0.5441 0.04974 0.0
C345 C 0.46862 0.51318 0.67359 0.0
C346 C 0.51531 0.55721 0.68727 0.0
C347 C 0.52928 0.48324 0.50955 0.0
C348 C 0.51656 0.46414 0.46746 0.0
C349 C 0.50271 0.44775 0.51012 0.0
C350 C 0.48876 0.43076 0.47182 0.0
C351 C 0.48898 0.42905 0.38954 0.0
C352 C 0.5033 0.44531 0.34667 0.0
C353 C 0.51683 0.46288 0.38543 0.0
C354 C 0.55536 0.50988 0.77288 0.0
C355 C 0.50795 0.45913 0.78506 0.0
O356 O 0.49952 0.53279 0.92638 0.0
O357 O 0.46638 0.51362 0.89772 0.0
O358 O 0.48472 0.49868 0.69529 0.0
O359 O 0.46528 0.52969 0.72601 0.0
O360 O 0.50937 0.55264 0.76113 0.0
O361 O 0.51876 0.54005 0.63474 0.0
O362 O 0.51629 0.50219 0.52555 0.0
O363 O 0.54239 0.4761 0.56909 0.0
O364 O 0.53294 0.51122 0.7732 0.0
O365 O 0.5622 0.50321 0.70334 0.0
O366 O 0.51336 0.4633 0.71081 0.0
O367 O 0.50286 0.4766 0.83482 0.0
H368 H 0.47311 0.5724 0.88844 0.0
H369 H 0.45222 0.60623 0.94738 0.0
H370 H 0.42854 0.56044 0.1373 0.0
H371 H 0.45035 0.52684 0.07898 0.0
H372 H 0.50208 0.4485 0.57343 0.0
H373 H 0.47754 0.4192 0.50727 0.0
H374 H 0.50428 0.44439 0.28337 0.0
H375 H 0.52741 0.47545 0.3515 0.0
Sm376 Sm 1.00899 0.49395 0.79913 0.0
Sm377 Sm 0.01924 0.52627 0.6507 0.0
C378 C 0.99467 0.47197 0.92871 0.0
C379 C 0.97241 0.46262 0.96261 0.0
C380 C 0.95003 0.47098 0.93704 0.0
C381 C 0.92898 0.46141 0.96853 0.0
C382 C 0.93 0.44324 0.02588 0.0
C383 C 0.95253 0.4348 0.05065 0.0
C384 C 0.97355 0.44443 0.01917 0.0
C385 C 0.02507 0.47061 0.6667 0.0
C386 C 0.96332 0.5127 0.68815 0.0
C387 C 0.03134 0.53663 0.50493 0.0
C388 C 0.04559 0.52316 0.44813 0.0
C389 C 0.05819 0.50279 0.47296 0.0
C390 C 0.07302 0.49054 0.42103 0.0
C391 C 0.07564 0.49858 0.3433 0.0
C392 C 0.0621 0.51843 0.31774 0.0
C393 C 0.04716 0.53064 0.36994 0.0
C394 C 0.01139 0.55574 0.77829 0.0
C395 C 0.06302 0.5114 0.7711 0.0
O396 O 0.99663 0.49529 0.92277 0.0
O397 O 1.00246 0.46064 0.86686 0.0
O398 O 0.01004 0.4874 0.66867 0.0
O399 O 0.03212 0.46517 0.73709 0.0
O400 O 0.97045 0.50076 0.75151 0.0
O401 O 0.97845 0.52378 0.64067 0.0
O402 O 0.01076 0.52691 0.52355 0.0
O403 O 0.04324 0.54449 0.56592 0.0
O404 O 0.01111 0.5332 0.77693 0.0
O405 O 0.01513 0.56384 0.7078 0.0
O406 O 0.05672 0.51429 0.6966 0.0
O407 O 0.04683 0.5074 0.82607 0.0
H408 H 0.94885 0.48495 0.89303 0.0
H409 H 0.91194 0.46857 0.94906 0.0
H410 H 0.95392 0.42066 0.09401 0.0
H411 H 0.99073 0.43761 0.03881 0.0
H412 H 0.05715 0.49682 0.53334 0.0
H413 H 0.08339 0.47558 0.44314 0.0
H414 H 0.06356 0.52489 0.258 0.0
H415 H 0.03733 0.54622 0.34983 0.0
H416 H 0.10982 0.03263 0.21298 0.0
H417 H 0.10227 1.00353 0.67282 0.0
H418 H 0.17054 0.0106 0.35245 0.0
H419 H 0.03986 0.01537 0.529 0.0
H420 H 0.12752 1.00657 0.55598 0.0
H421 H 0.08386 0.027 0.32734 0.0
C422 C 0.1177 0.02652 0.26752 0.0
C423 C 0.14248 0.02212 0.27288 0.0
C424 C 0.1083 1.00855 0.54976 0.0
C425 C 0.11277 0.01565 0.4044 0.0
C426 C 0.09387 1.00685 0.61653 0.0
C427 C 0.06894 0.00958 0.6107 0.0
C428 C 0.09776 0.01308 0.47631 0.0
C429 C 0.05902 0.01368 0.53625 0.0
C430 C 0.10284 0.02323 0.33277 0.0
C431 C 0.15156 0.01397 0.34505 0.0
N432 N 0.07344 0.01542 0.472 0.0
N433 N 0.13678 0.01116 0.40789 0.0
H434 H 0.4401 0.15514 0.34166 0.0
H435 H 0.51711 0.04644 0.51757 0.0
H436 H 0.50523 0.12985 0.23368 0.0
H437 H 0.46355 0.08477 0.64928 0.0
H438 H 0.51011 0.07338 0.40592 0.0
H439 H 0.4457 0.1262 0.4477 0.0
C440 C 0.45554 0.1434 0.34 0.0
C441 C 0.47219 0.14493 0.2784 0.0
C442 C 0.49989 0.07587 0.45922 0.0
C443 C 0.47879 0.11169 0.40041 0.0
C444 C 0.5038 0.06047 0.52283 0.0
C445 C 0.49098 0.0635 0.59295 0.0
C446 C 0.4829 0.09435 0.46557 0.0
C447 C 0.47392 0.0819 0.5965 0.0
C448 C 0.45879 0.12695 0.40088 0.0
C449 C 0.49205 0.12945 0.28023 0.0
N450 N 0.47038 0.09661 0.5338 0.0
N451 N 0.49475 0.11342 0.34006 0.0
H452 H 0.40369 0.46368 0.24094 0.0
H453 H 0.4351 0.54433 0.61563 0.0
H454 H 0.35799 0.5208 0.32278 0.0
H455 H 0.46823 0.47626 0.569 0.0
H456 H 0.41004 0.53925 0.49853 0.0
H457 H 0.43102 0.47147 0.34983 0.0
C458 C 0.39932 0.47787 0.28167 0.0
C459 C 0.37818 0.49136 0.27278 0.0
C460 C 0.42293 0.52548 0.51352 0.0
C461 C 0.40984 0.50063 0.39757 0.0
C462 C 0.43725 0.52837 0.58031 0.0
C463 C 0.45397 0.51071 0.60147 0.0
C464 C 0.42543 0.50483 0.46724 0.0
C465 C 0.45594 0.49042 0.55371 0.0
C466 C 0.41505 0.48236 0.3438 0.0
C467 C 0.37404 0.50998 0.32658 0.0
N468 N 0.44189 0.48801 0.48887 0.0
N469 N 0.38963 0.51397 0.38673 0.0
H470 H 0.08217 0.36754 0.33695 0.0
H471 H 1.00286 0.47249 0.5234 0.0
H472 H 0.01444 0.38966 0.2383 0.0
H473 H 0.05856 0.43529 0.64983 0.0
H474 H 0.00979 0.44621 0.41044 0.0
H475 H 0.07655 0.39598 0.44394 0.0
C476 C 0.06614 0.37848 0.33753 0.0
C477 C 0.04877 0.3762 0.27826 0.0
C478 C 0.02049 0.44382 0.46288 0.0
C479 C 0.04218 0.40888 0.4014 0.0
C480 C 0.01662 0.45885 0.52724 0.0
C481 C 0.03005 0.45592 0.5963 0.0
C482 C 0.03808 0.42585 0.46735 0.0
C483 C 0.04771 0.43805 0.59794 0.0
C484 C 0.0629 0.39464 0.39897 0.0
C485 C 0.0282 0.39066 0.28298 0.0
N486 N 0.05121 0.42372 0.53452 0.0
N487 N 0.02552 0.40645 0.34327 0.0
H488 H 0.90671 0.01522 0.25031 0.0
H489 H 0.92062 0.9921 0.78859 0.0
H490 H 0.84721 0.99795 0.09862 0.0
H491 H 0.97789 0.01717 0.93747 0.0
H492 H 0.89449 0.98913 0.90381 0.0
H493 H 0.93395 0.01082 0.13923 0.0
C494 C 0.89936 0.01035 0.19373 0.0
C495 C 0.87453 1.00722 0.18385 0.0
C496 C 0.91282 0.99511 0.91138 0.0
C497 C 0.90577 1.0021 0.05587 0.0
C498 C 0.92775 0.99678 0.84564 0.0
C499 C 0.95141 1.00504 0.85344 0.0
C500 C 0.92163 1.00171 0.98555 0.0
C501 C 0.95974 0.0108 0.92875 0.0
C502 C 0.91496 1.0078 0.13026 0.0
C503 C 0.86618 1.00044 0.1093 0.0
N504 N 0.94486 0.00914 0.99172 0.0
N505 N 0.88172 0.99833 0.04811 0.0
H506 H 0.49834 0.90352 0.23822 0.0
H507 H 0.51281 0.91395 0.77317 0.0
H508 H 0.51372 0.8433 0.08835 0.0
H509 H 0.50773 0.97554 0.92423 0.0
H510 H 0.51445 0.88801 0.88872 0.0
H511 H 0.50306 0.93038 0.12559 0.0
C512 C 0.50287 0.89595 0.18172 0.0
C513 C 0.5055 0.87106 0.17276 0.0
C514 C 0.51319 0.9072 0.89686 0.0
C515 C 0.51087 0.90177 0.04328 0.0
C516 C 0.51223 0.92202 0.83084 0.0
C517 C 0.51016 0.94692 0.83923 0.0
C518 C 0.51178 0.9173 0.97211 0.0
C519 C 0.50947 0.95644 0.91527 0.0
C520 C 0.50564 0.91132 0.11746 0.0
C521 C 0.51169 0.86234 0.09829 0.0
N522 N 0.51008 0.9416 0.97882 0.0
N523 N 0.51392 0.87763 0.03642 0.0
H524 H 0.61481 0.50763 0.24109 0.0
H525 H 0.6042 0.51267 0.77358 0.0
H526 H 0.67582 0.51553 0.08785 0.0
H527 H 0.54303 0.51426 0.9276 0.0
H528 H 0.6307 0.51532 0.88787 0.0
H529 H 0.58819 0.51183 0.12777 0.0
C530 C 0.62261 0.51044 0.18365 0.0
C531 C 0.64762 0.5111 0.17405 0.0
C532 C 0.61147 0.51535 0.89679 0.0
C533 C 0.61719 0.51578 0.0436 0.0
C534 C 0.59635 0.51382 0.83152 0.0
C535 C 0.57138 0.51334 0.84121 0.0
C536 C 0.60158 0.51613 0.97254 0.0
C537 C 0.56215 0.51481 0.91754 0.0
C538 C 0.60739 0.51289 0.11893 0.0
C539 C 0.65668 0.51507 0.09825 0.0
N540 N 0.57723 0.51595 0.98028 0.0
N541 N 0.6415 0.517 0.03595 0.0
H542 H 0.01285 0.61478 0.24927 0.0
H543 H 1.00632 0.60409 0.78144 0.0
H544 H 1.00574 0.67517 0.09238 0.0
H545 H 0.01003 0.54251 0.93401 0.0
H546 H 1.0039 0.63004 0.89607 0.0
H547 H 0.00971 0.58778 0.13669 0.0
C548 C 0.0105 0.62239 0.1913 0.0
C549 C 0.00966 0.64738 0.18057 0.0
C550 C 1.00508 0.61086 0.90483 0.0
C551 C 1.00601 0.61646 0.05119 0.0
C552 C 1.00646 0.59601 0.83926 0.0
C553 C 1.00838 0.5711 0.84825 0.0
C554 C 1.00581 0.60081 0.98042 0.0
C555 C 1.00847 0.56162 0.92455 0.0
C556 C 1.00862 0.60693 0.12704 0.0
C557 C 1.00623 0.6561 0.10401 0.0
N558 N 1.00737 0.57649 0.98779 0.0
N559 N 1.00471 0.64071 0.04249 0.0
H560 H 0.08228 0.19596 0.06914 0.0
H561 H 0.05713 0.1262 0.46605 0.0
H562 H 0.11075 0.21744 0.29374 0.0
H563 H 0.0343 0.10035 0.2394 0.0
H564 H 0.08088 0.15697 0.40152 0.0
H565 H 0.0696 0.15803 0.12662 0.0
C566 C 0.08656 0.19242 0.13004 0.0
C567 C 0.0974 0.21005 0.17696 0.0
C568 C 0.07089 0.14445 0.36571 0.0
C569 C 0.08223 0.16685 0.24371 0.0
C570 C 0.05734 0.12675 0.40258 0.0
C571 C 0.04357 0.11063 0.35817 0.0
C572 C 0.07052 0.14634 0.28367 0.0
C573 C 0.04428 0.11263 0.27609 0.0
C574 C 0.07904 0.17081 0.16306 0.0
C575 C 0.10209 0.20453 0.25578 0.0
N576 N 0.05737 0.13029 0.2415 0.0
N577 N 0.09415 0.18356 0.28696 0.0
H578 H 0.31949 0.10817 0.16733 0.0
H579 H 0.40154 0.99613 0.27732 0.0
H580 H 0.29318 0.03732 0.22188 0.0
H581 H 0.42504 0.06824 0.32755 0.0
H582 H 0.36402 0.01204 0.22663 0.0
H583 H 0.36032 0.09484 0.20292 0.0
C584 C 0.32228 0.09 0.18779 0.0
C585 C 0.30294 0.07396 0.19347 0.0
C586 C 0.37747 0.02442 0.24811 0.0
C587 C 0.34915 0.05852 0.23088 0.0
C588 C 0.39904 0.01537 0.2761 0.0
C589 C 0.4164 0.03087 0.3071 0.0
C590 C 0.37313 0.04916 0.25093 0.0
C591 C 0.41194 0.05567 0.30508 0.0
C592 C 0.34546 0.08241 0.20762 0.0
C593 C 0.30745 0.05047 0.21877 0.0
N594 N 0.3906 0.06411 0.2779 0.0
N595 N 0.33006 0.04345 0.23602 0.0
H596 H 0.43629 0.32648 0.05916 0.0
H597 H 0.47874 0.38379 0.44351 0.0
H598 H 0.40728 0.30356 0.28187 0.0
H599 H 0.46665 0.43036 0.24424 0.0
H600 H 0.45477 0.35314 0.38069 0.0
H601 H 0.44819 0.36439 0.11891 0.0
C602 C 0.43163 0.32967 0.11988 0.0
C603 C 0.42108 0.31155 0.16594 0.0
C604 C 0.45711 0.37019 0.35119 0.0
C605 C 0.43546 0.35456 0.23472 0.0
C606 C 0.47078 0.38786 0.38713 0.0
C607 C 0.47463 0.41004 0.34989 0.0
C608 C 0.44772 0.37424 0.2762 0.0
C609 C 0.46452 0.41352 0.27502 0.0
C610 C 0.43863 0.35129 0.15397 0.0
C611 C 0.41591 0.31672 0.24464 0.0
N612 N 0.45176 0.39566 0.24009 0.0
N613 N 0.42369 0.33751 0.27705 0.0
H614 H 0.19354 0.41118 0.17281 0.0
H615 H 0.10646 0.52258 0.24691 0.0
H616 H 0.21488 0.48546 0.17268 0.0
H617 H 0.08889 0.45122 0.32728 0.0
H618 H 0.14251 0.5069 0.18582 0.0
H619 H 0.152 0.4237 0.20199 0.0
C620 C 0.18942 0.43004 0.17912 0.0
C621 C 0.20755 0.44734 0.17252 0.0
C622 C 0.13063 0.4946 0.21606 0.0
C623 C 0.16059 0.46169 0.20281 0.0
C624 C 0.10984 0.50349 0.25019 0.0
C625 C 0.09476 0.48826 0.29331 0.0
C626 C 0.13653 0.47032 0.22536 0.0
C627 C 0.10033 0.46369 0.29607 0.0
C628 C 0.16586 0.43716 0.19534 0.0
C629 C 0.20145 0.47158 0.17954 0.0
N630 N 0.12099 0.45549 0.26344 0.0
N631 N 0.17852 0.47801 0.1943 0.0
H632 H 0.1227 0.80535 0.29408 0.0
H633 H 0.07067 0.88311 0.94019 0.0
H634 H 0.07143 0.78018 0.12262 0.0
H635 H 0.10293 0.91392 0.14696 0.0
H636 H 0.082 0.84337 0.98654 0.0
H637 H 0.12611 0.84294 0.22074 0.0
C638 C 0.11246 0.80746 0.24056 0.0
C639 C 0.09631 0.78962 0.21587 0.0
C640 C 0.08694 0.85885 0.02119 0.0
C641 C 0.10056 0.83241 0.13112 0.0
C642 C 0.08063 0.88159 0.99453 0.0
C643 C 0.0856 0.90188 0.04029 0.0
C644 C 0.09826 0.85631 0.09425 0.0
C645 C 0.09832 0.89871 0.11066 0.0
C646 C 0.11452 0.82891 0.19865 0.0
C647 C 0.08416 0.79319 0.14449 0.0
N648 N 0.10398 0.8763 0.13601 0.0
N649 N 0.0863 0.81426 0.10537 0.0
H650 H 0.70489 0.09586 0.34222 0.0
H651 H 0.63418 0.08707 0.93892 0.0
H652 H 0.73961 0.09663 0.11594 0.0
H653 H 0.60108 0.08459 0.16758 0.0
H654 H 0.67219 0.09806 1.00082 0.0
H655 H 0.66636 0.10058 0.27768 0.0
C656 C 0.70455 0.09769 0.279 0.0
C657 C 0.72559 0.09547 0.23443 0.0
C658 C 0.65652 0.09544 0.0373 0.0
C659 C 0.68119 0.10003 0.15981 0.0
C660 C 0.63486 0.08901 1.00206 0.0
C661 C 0.61448 0.08455 0.04821 0.0
C662 C 0.65784 0.09732 0.1193 0.0
C663 C 0.61626 0.08789 0.12956 0.0
C664 C 0.68241 0.10011 0.24203 0.0
C665 C 0.7238 0.09767 0.15255 0.0
N666 N 0.63762 0.09378 0.16251 0.0
N667 N 0.70194 0.09941 0.11776 0.0
H668 H 0.42398 0.70006 0.37535 0.0
H669 H 0.41499 0.62445 0.98116 0.0
H670 H 0.41126 0.73166 0.14772 0.0
H671 H 0.43871 0.5964 0.20434 0.0
H672 H 0.40413 0.66197 0.04577 0.0
H673 H 0.41892 0.66048 0.31839 0.0
C674 C 0.41945 0.69876 0.31374 0.0
C675 C 0.41834 0.7193 0.26607 0.0
C676 C 0.41137 0.64744 0.08068 0.0
C677 C 0.41324 0.67378 0.19994 0.0
C678 C 0.4177 0.62605 0.04382 0.0
C679 C 0.4282 0.60733 0.08704 0.0
C680 C 0.41554 0.65013 0.16136 0.0
C681 C 0.43065 0.61023 0.16844 0.0
C682 C 0.41683 0.67606 0.28104 0.0
C683 C 0.41276 0.71631 0.18634 0.0
N684 N 0.42466 0.63132 0.20269 0.0
N685 N 0.41078 0.69395 0.1555 0.0
H686 H 0.78088 0.41866 0.12102 0.0
H687 H 0.92189 0.4325 0.18037 0.0
H688 H 0.81596 0.42487 0.3459 0.0
H689 H 0.88714 0.43283 0.95402 0.0
H690 H 0.88398 0.42108 0.24087 0.0
H691 H 0.82019 0.41509 0.05864 0.0
C692 C 0.7968 0.41882 0.15744 0.0
C693 C 0.79509 0.42245 0.23871 0.0
C694 C 0.88468 0.42338 0.17784 0.0
C695 C 0.84007 0.41846 0.16778 0.0
C696 C 0.90638 0.42979 0.14315 0.0
C697 C 0.90764 0.43395 0.06205 0.0
C698 C 0.86401 0.42122 0.13127 0.0
C699 C 0.88686 0.43036 0.01699 0.0
C700 C 0.81923 0.41678 0.1218 0.0
C701 C 0.8163 0.42204 0.28315 0.0
N702 N 0.86583 0.42445 0.05231 0.0
N703 N 0.8379 0.42049 0.24697 0.0
H704 H 0.01133 0.21742 0.80102 0.0
H705 H 0.02879 0.07962 0.9249 0.0
H706 H 0.03648 0.19462 0.02874 0.0
H707 H 1.00877 0.10209 0.69144 0.0
H708 H 0.03028 0.12159 0.96494 0.0
H709 H 1.00841 0.17538 0.76156 0.0
C710 C 0.01615 0.20364 0.84294 0.0
C711 C 0.02419 0.20978 0.91849 0.0
C712 C 0.02559 0.11737 0.9049 0.0
C713 C 0.02085 0.16137 0.87339 0.0
C714 C 0.02478 0.09334 0.88182 0.0
C715 C 0.01866 0.08716 0.80448 0.0
C716 C 0.02017 0.13554 0.8505 0.0
C717 C 0.01362 0.10589 0.75163 0.0
C718 C 0.01445 0.17958 0.8203 0.0
C719 C 0.02986 0.19094 0.97032 0.0
N720 N 0.01444 0.12916 0.77563 0.0
N721 N 0.02818 0.16771 0.94674 0.0
H722 H 0.30095 1.00042 0.78933 0.0
H723 H 0.43908 0.01415 0.91389 0.0
H724 H 0.32483 0.02337 0.01813 0.0
H725 H 0.4168 1.00065 0.67554 0.0
H726 H 0.39719 0.01455 0.95408 0.0
H727 H 0.34293 0.99748 0.74796 0.0
C728 C 0.31493 1.00477 0.83107 0.0
C729 C 0.30911 0.0121 0.90765 0.0
C730 C 0.40139 0.01148 0.89294 0.0
C731 C 0.35739 1.00861 0.86043 0.0
C732 C 0.42541 0.01123 0.86978 0.0
C733 C 0.43164 1.00742 0.79094 0.0
C734 C 0.38321 1.00782 0.83717 0.0
C735 C 0.41293 1.00371 0.73689 0.0
C736 C 0.33893 1.00302 0.80733 0.0
C737 C 0.3282 0.01719 0.95907 0.0
N738 N 0.3896 1.00401 0.76097 0.0
N739 N 0.35133 0.0154 0.93451 0.0
H740 H 0.51705 0.30401 0.81707 0.0
H741 H 0.4957 0.44188 0.93124 0.0
H742 H 0.48615 0.32654 0.03685 0.0
H743 H 0.51936 0.41843 0.70296 0.0
H744 H 0.49493 0.40005 0.97477 0.0
H745 H 0.52114 0.34606 0.77865 0.0
C746 C 0.51125 0.31776 0.85752 0.0
C747 C 0.5012 0.31157 0.93037 0.0
C748 C 0.50033 0.40407 0.91521 0.0
C749 C 0.50586 0.35998 0.88654 0.0
C750 C 0.50078 0.428 0.89022 0.0
C751 C 0.50754 0.43382 0.8131 0.0
C752 C 0.50679 0.38573 0.86292 0.0
C753 C 0.51395 0.41493 0.76285 0.0
C754 C 0.51362 0.34182 0.83553 0.0
C755 C 0.49431 0.33032 0.98059 0.0
N756 N 0.5134 0.39183 0.78859 0.0
N757 N 0.49665 0.35359 0.95759 0.0
H758 H 0.19671 0.50031 0.02846 0.0
H759 H 0.10265 0.51781 0.67648 0.0
H760 H 0.21818 0.5145 0.78968 0.0
H761 H 0.08248 0.50612 0.91791 0.0
H762 H 0.14492 0.51785 0.71632 0.0
H763 H 0.15488 0.50418 0.98921 0.0
C764 C 0.19273 0.50466 0.96796 0.0
C765 C 0.21124 0.50714 0.91252 0.0
C766 C 0.13122 0.51534 0.76056 0.0
C767 C 0.16288 0.51105 0.86642 0.0
C768 C 0.10705 0.5153 0.73783 0.0
C769 C 0.08885 0.51189 0.79375 0.0
C770 C 0.13734 0.51192 0.83986 0.0
C771 C 0.09577 0.50875 0.87245 0.0
C772 C 0.16871 0.50663 0.94535 0.0
C773 C 0.20464 0.51218 0.83449 0.0
N774 N 0.11936 0.50879 0.89296 0.0
N775 N 0.18108 0.51387 0.81379 0.0
H776 H 0.01637 0.83324 0.41707 0.0
H777 H 1.00097 0.92367 0.77359 0.0
H778 H 0.98947 0.81046 0.64289 0.0
H779 H 1.00297 0.94684 0.53199 0.0
H780 H 0.99931 0.88198 0.72916 0.0
H781 H 0.01352 0.87471 0.45957 0.0
C782 C 1.00945 0.83681 0.47515 0.0
C783 C 1.00308 0.81796 0.5261 0.0
C784 C 0.99996 0.89621 0.68594 0.0
C785 C 1.00061 0.86593 0.57622 0.0
C786 C 1.00101 0.92004 0.71122 0.0
C787 C 1.00213 0.93888 0.6565 0.0
C788 C 1.00042 0.89108 0.60532 0.0
C789 C 1.00206 0.93298 0.57641 0.0
C790 C 1.00806 0.86064 0.49962 0.0
C791 C 0.99498 0.82415 0.60162 0.0
N792 N 1.00142 0.90965 0.55335 0.0
N793 N 0.99417 0.84752 0.62451 0.0
H794 H 0.71265 0.99966 0.66584 0.0
H795 H 0.57536 0.99413 0.53444 0.0
H796 H 0.68913 0.01173 0.42742 0.0
H797 H 0.59622 0.01303 0.77013 0.0
H798 H 0.61756 0.99353 0.49661 0.0
H799 H 0.67064 0.99785 0.70692 0.0
C800 C 0.69882 1.0019 0.62188 0.0
C801 C 0.7048 1.00595 0.54267 0.0
C802 C 0.61292 0.99777 0.55665 0.0
C803 C 0.65648 1.00331 0.58976 0.0
C804 C 0.5888 0.99803 0.57852 0.0
C805 C 0.58213 1.00371 0.65572 0.0
C806 C 0.6307 1.00286 0.61245 0.0
C807 C 0.60047 1.00872 0.70991 0.0
C808 C 0.6748 1.00078 0.64561 0.0
C809 C 0.68576 1.00812 0.48876 0.0
N810 N 0.62393 1.00807 0.68736 0.0
N811 N 0.66259 1.00675 0.51326 0.0
H812 H 0.52656 0.71272 0.65421 0.0
H813 H 0.51807 0.5742 0.53671 0.0
H814 H 0.50365 0.6878 0.42638 0.0
H815 H 0.51682 0.59819 0.77721 0.0
H816 H 0.51942 0.6159 0.49346 0.0
H817 H 0.5294 0.67101 0.69801 0.0
C818 C 0.5222 0.69861 0.61313 0.0
C819 C 0.51477 0.70407 0.53621 0.0
C820 C 0.51893 0.61205 0.55571 0.0
C821 C 0.51843 0.65612 0.58611 0.0
C822 C 0.51825 0.5882 0.58061 0.0
C823 C 0.51725 0.58257 0.6609 0.0
C824 C 0.51887 0.63056 0.6113 0.0
C825 C 0.51746 0.60162 0.71475 0.0
C826 C 0.52391 0.67476 0.6383 0.0
C827 C 0.50987 0.68476 0.48566 0.0
N828 N 0.51827 0.62475 0.689 0.0
N829 N 0.51176 0.66177 0.5115 0.0
H830 H 0.83137 0.50421 0.42651 0.0
H831 H 0.92389 0.50321 0.78145 0.0
H832 H 0.80807 0.5167 0.66465 0.0
H833 H 0.94369 0.5228 0.54518 0.0
H834 H 0.88149 0.50347 0.74136 0.0
H835 H 0.87277 0.5069 0.47013 0.0
C836 C 0.83476 0.50792 0.48778 0.0
C837 C 0.81578 0.51041 0.54153 0.0
C838 C 0.89518 0.50781 0.69862 0.0
C839 C 0.86378 0.51254 0.5925 0.0
C840 C 0.91938 0.50756 0.72132 0.0
C841 C 0.93745 0.51302 0.66672 0.0
C842 C 0.88908 0.51309 0.62044 0.0
C843 C 0.93046 0.5186 0.58957 0.0
C844 C 0.85858 0.5092 0.51276 0.0
C845 C 0.82185 0.51431 0.6208 0.0
N846 N 0.90693 0.51829 0.56872 0.0
N847 N 0.84526 0.51507 0.64392 0.0
loop_
_geom_bond_atom_site_label_1
_geom_bond_atom_site_label_2
_geom_bond_distance
_geom_bond_site_symmetry_2
_ccdc_geom_bond_type
P0 O11 1.490 . S
P0 C14 1.812 . S
P0 C20 1.803 . S
P0 C26 1.819 . S
H1 C15 0.941 . S
H2 C16 0.939 . S
H3 C18 0.940 . S
H4 C19 0.940 . S
H5 C21 0.939 . S
H6 C22 0.942 . S
H7 C24 0.940 . S
H8 C25 0.939 . S
H9 C27 0.941 . S
H10 C31 0.939 . S
O11 P0 1.490 . S
H12 C28 0.939 . S
H13 C30 0.940 . S
C14 P0 1.812 . S
C14 C15 1.389 . S
C14 C19 1.391 . S
C15 H1 0.941 . S
C15 C14 1.389 . S
C15 C16 1.397 . S
C16 H2 0.939 . S
C16 C15 1.397 . S
C16 C17 1.378 . S
C17 C16 1.378 . S
C17 C18 1.378 . S
C18 H3 0.940 . S
C18 C17 1.378 . S
C18 C19 1.396 . S
C19 H4 0.940 . S
C19 C14 1.391 . S
C19 C18 1.396 . S
C20 P0 1.803 . S
C20 C21 1.378 . S
C20 C25 1.400 . S
C21 H5 0.939 . S
C21 C20 1.378 . S
C21 C22 1.361 . S
C22 H6 0.942 . S
C22 C21 1.361 . S
C22 C23 1.369 . S
C23 C22 1.369 . S
C23 C24 1.404 . S
C24 H7 0.940 . S
C24 C23 1.404 . S
C24 C25 1.389 . S
C25 H8 0.939 . S
C25 C20 1.400 . S
C25 C24 1.389 . S
C26 P0 1.819 . S
C26 C27 1.391 . S
C26 C31 1.391 . S
C27 H9 0.941 . S
C27 C26 1.391 . S
C27 C28 1.396 . S
C28 H12 0.939 . S
C28 C27 1.396 . S
C28 C29 1.397 . S
C29 C28 1.397 . S
C29 C30 1.385 . S
C30 H13 0.940 . S
C30 C29 1.385 . S
C30 C31 1.388 . S
C31 H10 0.939 . S
C31 C26 1.391 . S
C31 C30 1.388 . S
P32 O43 1.490 . S
P32 C46 1.812 . S
P32 C52 1.803 . S
P32 C58 1.819 . S
H33 C47 0.941 . S
H34 C48 0.939 . S
H35 C50 0.940 . S
H36 C51 0.950 . S
H37 C53 0.939 . S
H38 C54 0.942 . S
H39 C56 0.940 . S
H40 C57 0.959 . S
H41 C59 0.941 . S
H42 C63 0.929 1_655 S
O43 P32 1.490 . S
H44 C60 0.939 . S
H45 C62 0.940 . S
C46 P32 1.812 . S
C46 C47 1.389 . S
C46 C51 1.375 1_455 S
C47 H33 0.941 . S
C47 C46 1.389 . S
C47 C48 1.397 . S
C48 H34 0.939 . S
C48 C47 1.397 . S
C48 C49 1.378 . S
C49 C48 1.378 . S
C49 C50 1.378 1_455 S
C50 H35 0.940 . S
C50 C49 1.378 1_655 S
C50 C51 1.403 . S
C51 H36 0.950 . S
C51 C46 1.375 1_655 S
C51 C50 1.403 . S
C52 P32 1.803 . S
C52 C53 1.378 . S
C52 C57 1.368 1_455 S
C53 H37 0.939 . S
C53 C52 1.378 . S
C53 C54 1.361 . S
C54 H38 0.942 . S
C54 C53 1.361 . S
C54 C55 1.369 . S
C55 C54 1.369 . S
C55 C56 1.404 1_455 S
C56 H39 0.940 . S
C56 C55 1.404 1_655 S
C56 C57 1.402 . S
C57 H40 0.959 . S
C57 C52 1.368 1_655 S
C57 C56 1.402 . S
C58 P32 1.819 . S
C58 C59 1.391 . S
C58 C63 1.391 . S
C59 H41 0.941 . S
C59 C58 1.391 . S
C59 C60 1.396 . S
C60 H44 0.939 . S
C60 C59 1.396 . S
C60 C61 1.397 . S
C61 C60 1.397 . S
C61 C62 1.385 1_455 S
C62 H45 0.940 . S
C62 C61 1.385 1_655 S
C62 C63 1.388 1_655 S
C63 H42 0.929 1_455 S
C63 C58 1.391 . S
C63 C62 1.388 1_455 S
P64 O75 1.490 . S
P64 C78 1.812 . S
P64 C84 1.803 . S
P64 C90 1.819 . S
H65 C79 0.941 . S
H66 C80 0.939 . S
H67 C82 0.940 . S
H68 C83 0.950 . S
H69 C85 0.939 . S
H70 C86 0.942 . S
H71 C88 0.940 . S
H72 C89 0.959 . S
H73 C91 0.941 . S
H74 C95 0.929 1_565 S
O75 P64 1.490 . S
H76 C92 0.939 . S
H77 C94 0.940 . S
C78 P64 1.812 . S
C78 C79 1.389 . S
C78 C83 1.375 1_545 S
C79 H65 0.941 . S
C79 C78 1.389 . S
C79 C80 1.397 . S
C80 H66 0.939 . S
C80 C79 1.397 . S
C80 C81 1.378 . S
C81 C80 1.378 . S
C81 C82 1.378 1_545 S
C82 H67 0.940 . S
C82 C81 1.378 1_565 S
C82 C83 1.403 . S
C83 H68 0.950 . S
C83 C78 1.375 1_565 S
C83 C82 1.403 . S
C84 P64 1.803 . S
C84 C85 1.378 . S
C84 C89 1.368 1_545 S
C85 H69 0.939 . S
C85 C84 1.378 . S
C85 C86 1.361 . S
C86 H70 0.942 . S
C86 C85 1.361 . S
C86 C87 1.369 . S
C87 C86 1.369 . S
C87 C88 1.404 1_545 S
C88 H71 0.940 . S
C88 C87 1.404 1_565 S
C88 C89 1.402 . S
C89 H72 0.959 . S
C89 C84 1.368 1_565 S
C89 C88 1.402 . S
C90 P64 1.819 . S
C90 C91 1.391 . S
C90 C95 1.391 . S
C91 H73 0.941 . S
C91 C90 1.391 . S
C91 C92 1.396 . S
C92 H76 0.939 . S
C92 C91 1.396 . S
C92 C93 1.397 . S
C93 C92 1.397 . S
C93 C94 1.385 1_545 S
C94 H77 0.940 . S
C94 C93 1.385 1_565 S
C94 C95 1.388 1_565 S
C95 H74 0.929 1_545 S
C95 C90 1.391 . S
C95 C94 1.388 1_545 S
P96 O107 1.490 . S
P96 C110 1.812 . S
P96 C116 1.803 . S
P96 C122 1.819 . S
H97 C111 0.941 . S
H98 C112 0.939 . S
H99 C114 0.940 . S
H100 C115 0.940 . S
H101 C117 0.939 . S
H102 C118 0.942 . S
H103 C120 0.940 . S
H104 C121 0.939 . S
H105 C123 0.941 . S
H106 C127 0.939 . S
O107 P96 1.490 . S
H108 C124 0.939 . S
H109 C126 0.940 . S
C110 P96 1.812 . S
C110 C111 1.389 . S
C110 C115 1.391 . S
C111 H97 0.941 . S
C111 C110 1.389 . S
C111 C112 1.397 . S
C112 H98 0.939 . S
C112 C111 1.397 . S
C112 C113 1.378 . S
C113 C112 1.378 . S
C113 C114 1.378 . S
C114 H99 0.940 . S
C114 C113 1.378 . S
C114 C115 1.396 . S
C115 H100 0.940 . S
C115 C110 1.391 . S
C115 C114 1.396 . S
C116 P96 1.803 . S
C116 C117 1.378 . S
C116 C121 1.400 . S
C117 H101 0.939 . S
C117 C116 1.378 . S
C117 C118 1.361 . S
C118 H102 0.942 . S
C118 C117 1.361 . S
C118 C119 1.369 . S
C119 C118 1.369 . S
C119 C120 1.404 . S
C120 H103 0.940 . S
C120 C119 1.404 . S
C120 C121 1.389 . S
C121 H104 0.939 . S
C121 C116 1.400 . S
C121 C120 1.389 . S
C122 P96 1.819 . S
C122 C123 1.391 . S
C122 C127 1.391 . S
C123 H105 0.941 . S
C123 C122 1.391 . S
C123 C124 1.396 . S
C124 H108 0.939 . S
C124 C123 1.396 . S
C124 C125 1.397 . S
C125 C124 1.397 . S
C125 C126 1.385 . S
C126 H109 0.940 . S
C126 C125 1.385 . S
C126 C127 1.388 . S
C127 H106 0.939 . S
C127 C122 1.391 . S
C127 C126 1.388 . S
P128 O139 1.490 . S
P128 C142 1.812 1_554 S
P128 C148 1.803 . S
P128 C154 1.819 . S
H129 C143 0.941 . S
H130 C144 0.939 . S
H131 C146 0.940 . S
H132 C147 0.940 . S
H133 C149 0.939 . S
H134 C150 0.942 . S
H135 C152 0.940 . S
H136 C153 0.939 . S
H137 C155 0.941 . S
H138 C159 0.939 . S
O139 P128 1.490 . S
H140 C156 0.939 . S
H141 C158 0.940 . S
C142 P128 1.812 1_556 S
C142 C143 1.389 . S
C142 C147 1.391 . S
C143 H129 0.941 . S
C143 C142 1.389 . S
C143 C144 1.397 . S
C144 H130 0.939 . S
C144 C143 1.397 . S
C144 C145 1.378 . S
C145 C144 1.378 . S
C145 C146 1.378 . S
C146 H131 0.940 . S
C146 C145 1.378 . S
C146 C147 1.396 . S
C147 H132 0.940 . S
C147 C142 1.391 . S
C147 C146 1.396 . S
C148 P128 1.803 . S
C148 C149 1.378 . S
C148 C153 1.400 . S
C149 H133 0.939 . S
C149 C148 1.378 . S
C149 C150 1.361 . S
C150 H134 0.942 . S
C150 C149 1.361 . S
C150 C151 1.369 . S
C151 C150 1.369 . S
C151 C152 1.404 . S
C152 H135 0.940 . S
C152 C151 1.404 . S
C152 C153 1.389 . S
C153 H136 0.939 . S
C153 C148 1.400 . S
C153 C152 1.389 . S
C154 P128 1.819 . S
C154 C155 1.391 . S
C154 C159 1.391 . S
C155 H137 0.941 . S
C155 C154 1.391 . S
C155 C156 1.396 . S
C156 H140 0.939 . S
C156 C155 1.396 . S
C156 C157 1.397 . S
C157 C156 1.397 . S
C157 C158 1.385 . S
C158 H141 0.940 . S
C158 C157 1.385 . S
C158 C159 1.388 . S
C159 H138 0.939 . S
C159 C154 1.391 . S
C159 C158 1.388 . S
P160 O171 1.490 . S
P160 C174 1.812 1_554 S
P160 C180 1.803 . S
P160 C186 1.819 . S
H161 C175 0.941 . S
H162 C176 0.939 . S
H163 C178 0.940 . S
H164 C179 0.944 . S
H165 C181 0.939 . S
H166 C182 0.942 . S
H167 C184 0.940 . S
H168 C185 0.953 . S
H169 C187 0.941 . S
H170 C191 0.933 1_655 S
O171 P160 1.490 . S
H172 C188 0.939 . S
H173 C190 0.940 . S
C174 P160 1.812 1_556 S
C174 C175 1.389 . S
C174 C179 1.385 1_455 S
C175 H161 0.941 . S
C175 C174 1.389 . S
C175 C176 1.397 . S
C176 H162 0.939 . S
C176 C175 1.397 . S
C176 C177 1.378 . S
C177 C176 1.378 . S
C177 C178 1.378 1_455 S
C178 H163 0.940 . S
C178 C177 1.378 1_655 S
C178 C179 1.399 . S
C179 H164 0.944 . S
C179 C174 1.385 1_655 S
C179 C178 1.399 . S
C180 P160 1.803 . S
C180 C181 1.378 . S
C180 C185 1.379 1_455 S
C181 H165 0.939 . S
C181 C180 1.378 . S
C181 C182 1.361 . S
C182 H166 0.942 . S
C182 C181 1.361 . S
C182 C183 1.369 . S
C183 C182 1.369 . S
C183 C184 1.404 1_455 S
C184 H167 0.940 . S
C184 C183 1.404 1_655 S
C184 C185 1.398 . S
C185 H168 0.953 . S
C185 C180 1.379 1_655 S
C185 C184 1.398 . S
C186 P160 1.819 . S
C186 C187 1.391 . S
C186 C191 1.391 . S
C187 H169 0.941 . S
C187 C186 1.391 . S
C187 C188 1.396 . S
C188 H172 0.939 . S
C188 C187 1.396 . S
C188 C189 1.397 . S
C189 C188 1.397 . S
C189 C190 1.385 1_455 S
C190 H173 0.940 . S
C190 C189 1.385 1_655 S
C190 C191 1.388 1_655 S
C191 H170 0.933 1_455 S
C191 C186 1.391 . S
C191 C190 1.388 1_455 S
P192 O203 1.490 . S
P192 C206 1.812 1_554 S
P192 C212 1.803 . S
P192 C218 1.819 . S
H193 C207 0.941 . S
H194 C208 0.939 . S
H195 C210 0.940 . S
H196 C211 0.944 . S
H197 C213 0.939 . S
H198 C214 0.942 . S
H199 C216 0.940 . S
H200 C217 0.953 . S
H201 C219 0.941 . S
H202 C223 0.933 1_565 S
O203 P192 1.490 . S
H204 C220 0.939 . S
H205 C222 0.940 . S
C206 P192 1.812 1_556 S
C206 C207 1.389 . S
C206 C211 1.385 1_545 S
C207 H193 0.941 . S
C207 C206 1.389 . S
C207 C208 1.397 . S
C208 H194 0.939 . S
C208 C207 1.397 . S
C208 C209 1.378 . S
C209 C208 1.378 . S
C209 C210 1.378 1_545 S
C210 H195 0.940 . S
C210 C209 1.378 1_565 S
C210 C211 1.399 . S
C211 H196 0.944 . S
C211 C206 1.385 1_565 S
C211 C210 1.399 . S
C212 P192 1.803 . S
C212 C213 1.378 . S
C212 C217 1.379 1_545 S
C213 H197 0.939 . S
C213 C212 1.378 . S
C213 C214 1.361 . S
C214 H198 0.942 . S
C214 C213 1.361 . S
C214 C215 1.369 . S
C215 C214 1.369 . S
C215 C216 1.404 1_545 S
C216 H199 0.940 . S
C216 C215 1.404 1_565 S
C216 C217 1.398 . S
C217 H200 0.953 . S
C217 C212 1.379 1_565 S
C217 C216 1.398 . S
C218 P192 1.819 . S
C218 C219 1.391 . S
C218 C223 1.391 . S
C219 H201 0.941 . S
C219 C218 1.391 . S
C219 C220 1.396 . S
C220 H204 0.939 . S
C220 C219 1.396 . S
C220 C221 1.397 . S
C221 C220 1.397 . S
C221 C222 1.385 1_545 S
C222 H205 0.940 . S
C222 C221 1.385 1_565 S
C222 C223 1.388 1_565 S
C223 H202 0.933 1_545 S
C223 C218 1.391 . S
C223 C222 1.388 1_545 S
P224 O235 1.490 . S
P224 C238 1.812 1_554 S
P224 C244 1.803 . S
P224 C250 1.819 . S
H225 C239 0.941 . S
H226 C240 0.939 . S
H227 C242 0.940 . S
H228 C243 0.940 . S
H229 C245 0.939 . S
H230 C246 0.942 . S
H231 C248 0.940 . S
H232 C249 0.939 . S
H233 C251 0.941 . S
H234 C255 0.939 . S
O235 P224 1.490 . S
H236 C252 0.939 . S
H237 C254 0.940 . S
C238 P224 1.812 1_556 S
C238 C239 1.389 . S
C238 C243 1.391 . S
C239 H225 0.941 . S
C239 C238 1.389 . S
C239 C240 1.397 . S
C240 H226 0.939 . S
C240 C239 1.397 . S
C240 C241 1.378 . S
C241 C240 1.378 . S
C241 C242 1.378 . S
C242 H227 0.940 . S
C242 C241 1.378 . S
C242 C243 1.396 . S
C243 H228 0.940 . S
C243 C238 1.391 . S
C243 C242 1.396 . S
C244 P224 1.803 . S
C244 C245 1.378 . S
C244 C249 1.400 . S
C245 H229 0.939 . S
C245 C244 1.378 . S
C245 C246 1.361 . S
C246 H230 0.942 . S
C246 C245 1.361 . S
C246 C247 1.369 . S
C247 C246 1.369 . S
C247 C248 1.404 . S
C248 H231 0.940 . S
C248 C247 1.404 . S
C248 C249 1.389 . S
C249 H232 0.939 . S
C249 C244 1.400 . S
C249 C248 1.389 . S
C250 P224 1.819 . S
C250 C251 1.391 . S
C250 C255 1.391 . S
C251 H233 0.941 . S
C251 C250 1.391 . S
C251 C252 1.396 . S
C252 H236 0.939 . S
C252 C251 1.396 . S
C252 C253 1.397 . S
C253 C252 1.397 . S
C253 C254 1.385 . S
C254 H237 0.940 . S
C254 C253 1.385 . S
C254 C255 1.388 . S
C255 H234 0.939 . S
C255 C250 1.391 . S
C255 C254 1.388 . S
Sm256 C258 2.846 . S
Sm256 O276 2.543 . S
Sm256 O277 2.450 . S
Sm256 O278 2.681 1_565 S
Sm256 O279 2.464 . S
Sm256 O280 2.396 . S
Sm256 O284 2.386 1_455 S
Sm256 O287 2.408 1_565 S
Sm257 C267 2.846 . S
Sm257 O278 2.386 1_655 S
Sm257 O281 2.408 1_545 S
Sm257 O282 2.543 . S
Sm257 O283 2.450 . S
Sm257 O284 2.681 1_545 S
Sm257 O285 2.464 . S
Sm257 O286 2.396 . S
C258 Sm256 2.846 . S
C258 C259 1.506 . S
C258 O276 1.261 . S
C258 O277 1.242 . S
C259 C258 1.506 . S
C259 C260 1.358 . S
C259 C264 1.382 . S
C260 C259 1.358 . S
C260 C261 1.385 . S
C260 H288 0.930 1_455 S
C261 C260 1.385 . S
C261 C262 1.395 . S
C261 H289 0.913 1_455 S
C262 C261 1.395 . S
C262 C263 1.335 . S
C263 C262 1.335 . S
C263 C264 1.398 . S
C263 H290 0.930 . S
C264 C259 1.382 . S
C264 C263 1.398 . S
C264 H291 0.929 . S
C265 O278 1.271 1_565 S
C265 O279 1.251 . S
C266 O280 1.252 1_655 S
C266 O281 1.272 . S
C267 Sm257 2.846 . S
C267 C268 1.506 . S
C267 O282 1.261 . S
C267 O283 1.242 . S
C268 C267 1.506 . S
C268 C269 1.358 . S
C268 C273 1.382 . S
C269 C268 1.358 . S
C269 C270 1.385 . S
C269 H292 0.930 1_655 S
C270 C269 1.385 . S
C270 C271 1.395 . S
C270 H293 0.904 1_655 S
C271 C270 1.395 . S
C271 C272 1.335 . S
C272 C271 1.335 . S
C272 C273 1.398 . S
C272 H294 0.930 . S
C273 C268 1.382 . S
C273 C272 1.398 . S
C273 H295 0.929 . S
C274 O284 1.271 1_545 S
C274 O285 1.251 . S
C275 O286 1.252 1_455 S
C275 O287 1.272 . S
O276 Sm256 2.543 . S
O276 C258 1.261 . S
O277 Sm256 2.450 . S
O277 C258 1.242 . S
O278 Sm256 2.681 1_545 S
O278 Sm257 2.386 1_455 S
O278 C265 1.271 1_545 S
O279 Sm256 2.464 . S
O279 C265 1.251 . S
O280 Sm256 2.396 . S
O280 C266 1.252 1_455 S
O281 Sm257 2.408 1_565 S
O281 C266 1.272 . S
O282 Sm257 2.543 . S
O282 C267 1.261 . S
O283 Sm257 2.450 . S
O283 C267 1.242 . S
O284 Sm256 2.386 1_655 S
O284 Sm257 2.681 1_565 S
O284 C274 1.271 1_565 S
O285 Sm257 2.464 . S
O285 C274 1.251 . S
O286 Sm257 2.396 . S
O286 C275 1.252 1_655 S
O287 Sm256 2.408 1_545 S
O287 C275 1.272 . S
H288 C260 0.930 1_655 S
H289 C261 0.913 1_655 S
H290 C263 0.930 . S
H291 C264 0.929 . S
H292 C269 0.930 1_455 S
H293 C270 0.904 1_455 S
H294 C272 0.930 . S
H295 C273 0.929 . S
Sm296 C298 2.846 . S
Sm296 O316 2.543 . S
Sm296 O317 2.450 . S
Sm296 O318 2.681 . S
Sm296 O319 2.464 . S
Sm296 O320 2.396 . S
Sm296 O324 2.386 1_545 S
Sm296 O327 2.408 . S
Sm297 C307 2.846 . S
Sm297 O318 2.386 1_565 S
Sm297 O321 2.408 . S
Sm297 O322 2.543 . S
Sm297 O323 2.450 . S
Sm297 O324 2.681 . S
Sm297 O325 2.464 . S
Sm297 O326 2.396 . S
C298 Sm296 2.846 . S
C298 C299 1.506 . S
C298 O316 1.261 . S
C298 O317 1.242 . S
C299 C298 1.506 . S
C299 C300 1.358 . S
C299 C304 1.382 . S
C300 C299 1.358 . S
C300 C301 1.385 . S
C300 H328 0.930 1_545 S
C301 C300 1.385 . S
C301 C302 1.395 . S
C301 H329 0.929 1_545 S
C302 C301 1.395 . S
C302 C303 1.335 . S
C303 C302 1.335 . S
C303 C304 1.398 . S
C303 H330 0.930 . S
C304 C299 1.382 . S
C304 C303 1.398 . S
C304 H331 0.929 . S
C305 O318 1.271 . S
C305 O319 1.251 . S
C306 O320 1.252 1_565 S
C306 O321 1.272 . S
C307 Sm297 2.846 . S
C307 C308 1.506 . S
C307 O322 1.261 . S
C307 O323 1.242 . S
C308 C307 1.506 . S
C308 C309 1.358 . S
C308 C313 1.382 . S
C309 C308 1.358 . S
C309 C310 1.385 . S
C309 H332 0.930 1_565 S
C310 C309 1.385 . S
C310 C311 1.395 . S
C310 H333 0.929 1_565 S
C311 C310 1.395 . S
C311 C312 1.335 . S
C312 C311 1.335 . S
C312 C313 1.398 . S
C312 H334 0.930 . S
C313 C308 1.382 . S
C313 C312 1.398 . S
C313 H335 0.929 . S
C314 O324 1.271 . S
C314 O325 1.251 . S
C315 O326 1.252 1_545 S
C315 O327 1.272 . S
O316 Sm296 2.543 . S
O316 C298 1.261 . S
O317 Sm296 2.450 . S
O317 C298 1.242 . S
O318 Sm296 2.681 . S
O318 Sm297 2.386 1_545 S
O318 C305 1.271 . S
O319 Sm296 2.464 . S
O319 C305 1.251 . S
O320 Sm296 2.396 . S
O320 C306 1.252 1_545 S
O321 Sm297 2.408 . S
O321 C306 1.272 . S
O322 Sm297 2.543 . S
O322 C307 1.261 . S
O323 Sm297 2.450 . S
O323 C307 1.242 . S
O324 Sm296 2.386 1_565 S
O324 Sm297 2.681 . S
O324 C314 1.271 . S
O325 Sm297 2.464 . S
O325 C314 1.251 . S
O326 Sm297 2.396 . S
O326 C315 1.252 1_565 S
O327 Sm296 2.408 . S
O327 C315 1.272 . S
H328 C300 0.930 1_565 S
H329 C301 0.929 1_565 S
H330 C303 0.930 . S
H331 C304 0.929 . S
H332 C309 0.930 1_545 S
H333 C310 0.929 1_545 S
H334 C312 0.930 . S
H335 C313 0.929 . S
Sm336 C338 2.846 . S
Sm336 O356 2.543 . S
Sm336 O357 2.450 . S
Sm336 O358 2.681 . S
Sm336 O359 2.464 . S
Sm336 O360 2.396 . S
Sm336 O364 2.386 . S
Sm336 O367 2.408 . S
Sm337 C347 2.846 . S
Sm337 O358 2.386 . S
Sm337 O361 2.408 . S
Sm337 O362 2.543 . S
Sm337 O363 2.450 . S
Sm337 O364 2.681 . S
Sm337 O365 2.464 . S
Sm337 O366 2.396 . S
C338 Sm336 2.846 . S
C338 C339 1.506 . S
C338 O356 1.261 . S
C338 O357 1.242 . S
C339 C338 1.506 . S
C339 C340 1.358 . S
C339 C344 1.382 . S
C340 C339 1.358 . S
C340 C341 1.385 . S
C340 H368 0.930 . S
C341 C340 1.385 . S
C341 C342 1.395 . S
C341 H369 0.929 . S
C342 C341 1.395 . S
C342 C343 1.335 . S
C343 C342 1.335 . S
C343 C344 1.398 . S
C343 H370 0.930 . S
C344 C339 1.382 . S
C344 C343 1.398 . S
C344 H371 0.929 . S
C345 O358 1.271 . S
C345 O359 1.251 . S
C346 O360 1.252 . S
C346 O361 1.272 . S
C347 Sm337 2.846 . S
C347 C348 1.506 . S
C347 O362 1.261 . S
C347 O363 1.242 . S
C348 C347 1.506 . S
C348 C349 1.358 . S
C348 C353 1.382 . S
C349 C348 1.358 . S
C349 C350 1.385 . S
C349 H372 0.930 . S
C350 C349 1.385 . S
C350 C351 1.395 . S
C350 H373 0.929 . S
C351 C350 1.395 . S
C351 C352 1.335 . S
C352 C351 1.335 . S
C352 C353 1.398 . S
C352 H374 0.930 . S
C353 C348 1.382 . S
C353 C352 1.398 . S
C353 H375 0.929 . S
C354 O364 1.271 . S
C354 O365 1.251 . S
C355 O366 1.252 . S
C355 O367 1.272 . S
O356 Sm336 2.543 . S
O356 C338 1.261 . S
O357 Sm336 2.450 . S
O357 C338 1.242 . S
O358 Sm336 2.681 . S
O358 Sm337 2.386 . S
O358 C345 1.271 . S
O359 Sm336 2.464 . S
O359 C345 1.251 . S
O360 Sm336 2.396 . S
O360 C346 1.252 . S
O361 Sm337 2.408 . S
O361 C346 1.272 . S
O362 Sm337 2.543 . S
O362 C347 1.261 . S
O363 Sm337 2.450 . S
O363 C347 1.242 . S
O364 Sm336 2.386 . S
O364 Sm337 2.681 . S
O364 C354 1.271 . S
O365 Sm337 2.464 . S
O365 C354 1.251 . S
O366 Sm337 2.396 . S
O366 C355 1.252 . S
O367 Sm336 2.408 . S
O367 C355 1.272 . S
H368 C340 0.930 . S
H369 C341 0.929 . S
H370 C343 0.930 . S
H371 C344 0.929 . S
H372 C349 0.930 . S
H373 C350 0.929 . S
H374 C352 0.930 . S
H375 C353 0.929 . S
Sm376 C378 2.846 . S
Sm376 O396 2.543 . S
Sm376 O397 2.450 . S
Sm376 O398 2.681 1_655 S
Sm376 O399 2.464 . S
Sm376 O400 2.396 . S
Sm376 O404 2.386 . S
Sm376 O407 2.408 1_655 S
Sm377 C387 2.846 . S
Sm377 O398 2.386 . S
Sm377 O401 2.408 1_455 S
Sm377 O402 2.543 . S
Sm377 O403 2.450 . S
Sm377 O404 2.681 1_455 S
Sm377 O405 2.464 . S
Sm377 O406 2.396 . S
C378 Sm376 2.846 . S
C378 C379 1.506 . S
C378 O396 1.261 . S
C378 O397 1.242 . S
C379 C378 1.506 . S
C379 C380 1.358 . S
C379 C384 1.382 . S
C380 C379 1.358 . S
C380 C381 1.385 . S
C380 H408 0.930 . S
C381 C380 1.385 . S
C381 C382 1.395 . S
C381 H409 0.929 . S
C382 C381 1.395 . S
C382 C383 1.335 . S
C383 C382 1.335 . S
C383 C384 1.398 . S
C383 H410 0.930 . S
C384 C379 1.382 . S
C384 C383 1.398 . S
C384 H411 0.929 . S
C385 O398 1.262 1_655 S
C385 O399 1.267 . S
C386 O400 1.252 . S
C386 O401 1.272 . S
C387 Sm377 2.846 . S
C387 C388 1.506 . S
C387 O402 1.261 . S
C387 O403 1.242 . S
C388 C387 1.506 . S
C388 C389 1.358 . S
C388 C393 1.382 . S
C389 C388 1.358 . S
C389 C390 1.385 . S
C389 H412 0.930 . S
C390 C389 1.385 . S
C390 C391 1.395 . S
C390 H413 0.929 . S
C391 C390 1.395 . S
C391 C392 1.335 . S
C392 C391 1.335 . S
C392 C393 1.398 . S
C392 H414 0.930 . S
C393 C388 1.382 . S
C393 C392 1.398 . S
C393 H415 0.929 . S
C394 O404 1.259 1_455 S
C394 O405 1.273 . S
C395 O406 1.252 . S
C395 O407 1.272 . S
O396 Sm376 2.543 . S
O396 C378 1.261 . S
O397 Sm376 2.450 . S
O397 C378 1.242 . S
O398 Sm376 2.681 1_455 S
O398 Sm377 2.386 . S
O398 C385 1.262 1_455 S
O399 Sm376 2.464 . S
O399 C385 1.267 . S
O400 Sm376 2.396 . S
O400 C386 1.252 . S
O401 Sm377 2.408 1_655 S
O401 C386 1.272 . S
O402 Sm377 2.543 . S
O402 C387 1.261 . S
O403 Sm377 2.450 . S
O403 C387 1.242 . S
O404 Sm376 2.386 . S
O404 Sm377 2.681 1_655 S
O404 C394 1.259 1_655 S
O405 Sm377 2.464 . S
O405 C394 1.273 . S
O406 Sm377 2.396 . S
O406 C395 1.252 . S
O407 Sm376 2.408 1_455 S
O407 C395 1.272 . S
H408 C380 0.930 . S
H409 C381 0.929 . S
H410 C383 0.930 . S
H411 C384 0.929 . S
H412 C389 0.930 . S
H413 C390 0.929 . S
H414 C392 0.930 . S
H415 C393 0.929 . S
H416 C422 0.930 . S
H417 C426 0.930 . S
H418 C431 0.929 . S
H419 C429 0.929 . S
H420 C424 0.929 . S
H421 C430 0.929 . S
C422 H416 0.930 . S
C422 C423 1.391 . S
C422 C430 1.378 . S
C423 C422 1.391 . S
C423 C431 1.409 1_545 S
C424 H420 0.929 . S
C424 C426 1.378 . S
C424 C428 1.345 1_565 S
C425 C428 1.463 . S
C425 C430 1.350 . S
C425 N433 1.427 1_545 S
C426 H417 0.930 . S
C426 C424 1.378 . S
C426 C427 1.341 1_565 S
C427 C426 1.341 1_545 S
C427 C429 1.460 . S
C428 C424 1.345 1_545 S
C428 C425 1.463 . S
C428 N432 1.432 . S
C429 H419 0.929 . S
C429 C427 1.460 . S
C429 N432 1.384 . S
C430 H421 0.929 . S
C430 C422 1.378 . S
C430 C425 1.350 . S
C431 H418 0.929 . S
C431 C423 1.409 1_565 S
C431 N433 1.384 . S
N432 C428 1.432 . S
N432 C429 1.384 . S
N433 C425 1.427 1_565 S
N433 C431 1.384 . S
H434 C440 0.930 . S
H435 C444 0.930 . S
H436 C449 0.929 . S
H437 C447 0.929 . S
H438 C442 0.929 . S
H439 C448 0.929 . S
C440 H434 0.930 . S
C440 C441 1.367 . S
C440 C448 1.378 . S
C441 C440 1.367 . S
C441 C449 1.433 . S
C442 H438 0.929 . S
C442 C444 1.378 . S
C442 C446 1.350 . S
C443 C446 1.463 . S
C443 C448 1.350 . S
C443 N451 1.427 . S
C444 H435 0.930 . S
C444 C442 1.378 . S
C444 C445 1.367 . S
C445 C444 1.367 . S
C445 C447 1.433 . S
C446 C442 1.350 . S
C446 C443 1.463 . S
C446 N450 1.427 . S
C447 H437 0.929 . S
C447 C445 1.433 . S
C447 N450 1.384 . S
C448 H439 0.929 . S
C448 C440 1.378 . S
C448 C443 1.350 . S
C449 H436 0.929 . S
C449 C441 1.433 . S
C449 N451 1.384 . S
N450 C446 1.427 . S
N450 C447 1.384 . S
N451 C443 1.427 . S
N451 C449 1.384 . S
H452 C458 0.930 . S
H453 C462 0.930 . S
H454 C467 0.929 . S
H455 C465 0.929 . S
H456 C460 0.929 . S
H457 C466 0.929 . S
C458 H452 0.930 . S
C458 C459 1.367 . S
C458 C466 1.378 . S
C459 C458 1.367 . S
C459 C467 1.433 . S
C460 H456 0.929 . S
C460 C462 1.378 . S
C460 C464 1.350 . S
C461 C464 1.463 . S
C461 C466 1.350 . S
C461 N469 1.427 . S
C462 H453 0.930 . S
C462 C460 1.378 . S
C462 C463 1.367 . S
C463 C462 1.367 . S
C463 C465 1.433 . S
C464 C460 1.350 . S
C464 C461 1.463 . S
C464 N468 1.427 . S
C465 H455 0.929 . S
C465 C463 1.433 . S
C465 N468 1.384 . S
C466 H457 0.929 . S
C466 C458 1.378 . S
C466 C461 1.350 . S
C467 H454 0.929 . S
C467 C459 1.433 . S
C467 N469 1.384 . S
N468 C464 1.427 . S
N468 C465 1.384 . S
N469 C461 1.427 . S
N469 C467 1.384 . S
H470 C476 0.930 . S
H471 C480 0.930 . S
H472 C485 0.929 . S
H473 C483 0.929 . S
H474 C478 0.929 . S
H475 C484 0.929 . S
C476 H470 0.930 . S
C476 C477 1.384 . S
C476 C484 1.378 . S
C477 C476 1.384 . S
C477 C485 1.416 1_455 S
C478 H474 0.929 . S
C478 C480 1.378 . S
C478 C482 1.333 1_655 S
C479 C482 1.464 . S
C479 C484 1.350 . S
C479 N487 1.427 1_455 S
C480 H471 0.930 . S
C480 C478 1.378 . S
C480 C481 1.367 1_655 S
C481 C480 1.367 1_455 S
C481 C483 1.433 . S
C482 C478 1.333 1_455 S
C482 C479 1.464 . S
C482 N486 1.446 . S
C483 H473 0.929 . S
C483 C481 1.433 . S
C483 N486 1.384 . S
C484 H475 0.929 . S
C484 C476 1.378 . S
C484 C479 1.350 . S
C485 H472 0.929 . S
C485 C477 1.416 1_655 S
C485 N487 1.384 . S
N486 C482 1.446 . S
N486 C483 1.384 . S
N487 C479 1.427 1_655 S
N487 C485 1.384 . S
H488 C494 0.930 . S
H489 C498 0.930 . S
H490 C503 0.929 . S
H491 C501 0.929 . S
H492 C496 0.929 . S
H493 C502 0.929 . S
C494 H488 0.930 . S
C494 C495 1.374 . S
C494 C502 1.378 . S
C495 C494 1.374 . S
C495 C503 1.427 1_565 S
C496 H492 0.929 . S
C496 C498 1.378 . S
C496 C500 1.347 1_546 S
C497 C500 1.462 . S
C497 C502 1.369 . S
C497 N505 1.408 1_565 S
C498 H489 0.930 . S
C498 C496 1.378 . S
C498 C499 1.352 1_545 S
C499 C498 1.352 1_565 S
C499 C501 1.449 . S
C500 C496 1.347 1_564 S
C500 C497 1.462 . S
C500 N504 1.431 . S
C501 H491 0.929 . S
C501 C499 1.449 . S
C501 N504 1.384 1_556 S
C502 H493 0.929 . S
C502 C494 1.378 . S
C502 C497 1.369 . S
C503 H490 0.929 . S
C503 C495 1.427 1_545 S
C503 N505 1.384 . S
N504 C500 1.431 . S
N504 C501 1.384 1_554 S
N505 C497 1.408 1_545 S
N505 C503 1.384 . S
H506 C512 0.930 . S
H507 C516 0.930 . S
H508 C521 0.929 . S
H509 C519 0.929 . S
H510 C514 0.929 . S
H511 C520 0.929 . S
C512 H506 0.930 . S
C512 C513 1.367 . S
C512 C520 1.378 . S
C513 C512 1.367 . S
C513 C521 1.433 . S
C514 H510 0.929 . S
C514 C516 1.378 . S
C514 C518 1.350 1_556 S
C515 C518 1.463 . S
C515 C520 1.350 . S
C515 N523 1.427 . S
C516 H507 0.930 . S
C516 C514 1.378 . S
C516 C517 1.367 . S
C517 C516 1.367 . S
C517 C519 1.433 . S
C518 C514 1.350 1_554 S
C518 C515 1.463 . S
C518 N522 1.427 . S
C519 H509 0.929 . S
C519 C517 1.433 . S
C519 N522 1.384 1_556 S
C520 H511 0.929 . S
C520 C512 1.378 . S
C520 C515 1.350 . S
C521 H508 0.929 . S
C521 C513 1.433 . S
C521 N523 1.384 . S
N522 C518 1.427 . S
N522 C519 1.384 1_554 S
N523 C515 1.427 . S
N523 C521 1.384 . S
H524 C530 0.930 . S
H525 C534 0.930 . S
H526 C539 0.929 . S
H527 C537 0.929 . S
H528 C532 0.929 1_554 S
H529 C538 0.929 . S
C530 H524 0.930 . S
C530 C531 1.367 . S
C530 C538 1.378 . S
C531 C530 1.367 . S
C531 C539 1.433 . S
C532 H528 0.929 1_556 S
C532 C534 1.378 . S
C532 C536 1.350 1_556 S
C533 C536 1.463 . S
C533 C538 1.350 . S
C533 N541 1.427 . S
C534 H525 0.930 . S
C534 C532 1.378 . S
C534 C535 1.367 . S
C535 C534 1.367 . S
C535 C537 1.433 . S
C536 C532 1.350 1_554 S
C536 C533 1.463 . S
C536 N540 1.427 1_554 S
C537 H527 0.929 . S
C537 C535 1.433 . S
C537 N540 1.384 . S
C538 H529 0.929 . S
C538 C530 1.378 . S
C538 C533 1.350 . S
C539 H526 0.929 . S
C539 C531 1.433 . S
C539 N541 1.384 . S
N540 C536 1.427 1_556 S
N540 C537 1.384 . S
N541 C533 1.427 . S
N541 C539 1.384 . S
H542 C548 0.930 . S
H543 C552 0.930 . S
H544 C557 0.929 . S
H545 C555 0.929 . S
H546 C550 0.929 1_554 S
H547 C556 0.929 . S
C548 H542 0.930 . S
C548 C549 1.368 . S
C548 C556 1.378 . S
C549 C548 1.368 . S
C549 C557 1.432 1_455 S
C550 H546 0.929 1_556 S
C550 C552 1.378 . S
C550 C554 1.350 1_556 S
C551 C554 1.463 . S
C551 C556 1.348 1_655 S
C551 N559 1.429 . S
C552 H543 0.930 . S
C552 C550 1.378 . S
C552 C553 1.367 . S
C553 C552 1.367 . S
C553 C555 1.433 1_655 S
C554 C550 1.350 1_554 S
C554 C551 1.463 . S
C554 N558 1.427 1_654 S
C555 H545 0.929 . S
C555 C553 1.433 1_455 S
C555 N558 1.384 . S
C556 H547 0.929 . S
C556 C548 1.378 . S
C556 C551 1.348 1_455 S
C557 H544 0.929 . S
C557 C549 1.432 1_655 S
C557 N559 1.384 . S
N558 C554 1.427 1_456 S
N558 C555 1.384 . S
N559 C551 1.429 . S
N559 C557 1.384 . S
H560 C566 0.930 . S
H561 C570 0.930 . S
H562 C575 0.929 . S
H563 C573 0.929 . S
H564 C568 0.929 . S
H565 C574 0.929 . S
C566 H560 0.930 . S
C566 C567 1.367 1_655 S
C566 C574 1.378 . S
C567 C566 1.367 1_455 S
C567 C575 1.433 . S
C568 H564 0.929 . S
C568 C570 1.378 . S
C568 C572 1.350 . S
C569 C572 1.463 . S
C569 C574 1.350 . S
C569 N577 1.427 1_655 S
C570 H561 0.930 . S
C570 C568 1.378 . S
C570 C571 1.367 . S
C571 C570 1.367 . S
C571 C573 1.433 . S
C572 C568 1.350 . S
C572 C569 1.463 . S
C572 N576 1.427 . S
C573 H563 0.929 . S
C573 C571 1.433 . S
C573 N576 1.384 . S
C574 H565 0.929 . S
C574 C566 1.378 . S
C574 C569 1.350 . S
C575 H562 0.929 . S
C575 C567 1.433 . S
C575 N577 1.384 . S
N576 C572 1.427 . S
N576 C573 1.384 . S
N577 C569 1.427 1_455 S
N577 C575 1.384 . S
H578 C584 0.930 . S
H579 C588 0.930 . S
H580 C593 0.929 . S
H581 C591 0.929 . S
H582 C586 0.929 . S
H583 C592 0.929 . S
C584 H578 0.930 . S
C584 C585 1.367 . S
C584 C592 1.378 . S
C585 C584 1.367 . S
C585 C593 1.433 1_545 S
C586 H582 0.929 . S
C586 C588 1.378 . S
C586 C590 1.350 . S
C587 C590 1.463 . S
C587 C592 1.350 1_565 S
C587 N595 1.427 . S
C588 H579 0.930 . S
C588 C586 1.378 . S
C588 C589 1.367 . S
C589 C588 1.367 . S
C589 C591 1.433 . S
C590 C586 1.350 . S
C590 C587 1.463 . S
C590 N594 1.427 . S
C591 H581 0.929 . S
C591 C589 1.433 . S
C591 N594 1.384 . S
C592 H583 0.929 . S
C592 C584 1.378 . S
C592 C587 1.350 1_545 S
C593 H580 0.929 . S
C593 C585 1.433 1_565 S
C593 N595 1.384 . S
N594 C590 1.427 . S
N594 C591 1.384 . S
N595 C587 1.427 . S
N595 C593 1.384 . S
H596 C602 0.930 . S
H597 C606 0.930 . S
H598 C611 0.929 . S
H599 C609 0.929 . S
H600 C604 0.929 . S
H601 C610 0.929 . S
C602 H596 0.930 . S
C602 C603 1.367 . S
C602 C610 1.378 . S
C603 C602 1.367 . S
C603 C611 1.433 . S
C604 H600 0.929 . S
C604 C606 1.378 . S
C604 C608 1.350 . S
C605 C608 1.463 . S
C605 C610 1.350 . S
C605 N613 1.427 . S
C606 H597 0.930 . S
C606 C604 1.378 . S
C606 C607 1.367 . S
C607 C606 1.367 . S
C607 C609 1.433 . S
C608 C604 1.350 . S
C608 C605 1.463 . S
C608 N612 1.427 . S
C609 H599 0.929 . S
C609 C607 1.433 . S
C609 N612 1.384 . S
C610 H601 0.929 . S
C610 C602 1.378 . S
C610 C605 1.350 . S
C611 H598 0.929 . S
C611 C603 1.433 . S
C611 N613 1.384 . S
N612 C608 1.427 . S
N612 C609 1.384 . S
N613 C605 1.427 . S
N613 C611 1.384 . S
H614 C620 0.930 . S
H615 C624 0.930 . S
H616 C629 0.929 . S
H617 C627 0.929 . S
H618 C622 0.929 . S
H619 C628 0.929 . S
C620 H614 0.930 . S
C620 C621 1.367 . S
C620 C628 1.378 . S
C621 C620 1.367 . S
C621 C629 1.433 . S
C622 H618 0.929 . S
C622 C624 1.378 . S
C622 C626 1.350 . S
C623 C626 1.463 . S
C623 C628 1.350 . S
C623 N631 1.427 . S
C624 H615 0.930 . S
C624 C622 1.378 . S
C624 C625 1.367 . S
C625 C624 1.367 . S
C625 C627 1.433 . S
C626 C622 1.350 . S
C626 C623 1.463 . S
C626 N630 1.427 . S
C627 H617 0.929 . S
C627 C625 1.433 . S
C627 N630 1.384 . S
C628 H619 0.929 . S
C628 C620 1.378 . S
C628 C623 1.350 . S
C629 H616 0.929 . S
C629 C621 1.433 . S
C629 N631 1.384 . S
N630 C626 1.427 . S
N630 C627 1.384 . S
N631 C623 1.427 . S
N631 C629 1.384 . S
H632 C638 0.930 . S
H633 C642 0.930 . S
H634 C647 0.929 . S
H635 C645 0.929 . S
H636 C640 0.912 1_655 S
H637 C646 0.929 . S
C638 H632 0.930 . S
C638 C639 1.367 1_455 S
C638 C646 1.378 . S
C639 C638 1.367 1_655 S
C639 C647 1.433 . S
C640 H636 0.912 1_455 S
C640 C642 1.378 . S
C640 C644 1.350 . S
C641 C644 1.463 . S
C641 C646 1.350 . S
C641 N649 1.427 1_455 S
C642 H633 0.930 . S
C642 C640 1.378 . S
C642 C643 1.367 1_554 S
C643 C642 1.367 1_556 S
C643 C645 1.433 . S
C644 C640 1.350 . S
C644 C641 1.463 . S
C644 N648 1.427 . S
C645 H635 0.929 . S
C645 C643 1.433 . S
C645 N648 1.384 1_556 S
C646 H637 0.929 . S
C646 C638 1.378 . S
C646 C641 1.350 . S
C647 H634 0.929 . S
C647 C639 1.433 . S
C647 N649 1.384 . S
N648 C644 1.427 . S
N648 C645 1.384 1_554 S
N649 C641 1.427 1_655 S
N649 C647 1.384 . S
H650 C656 0.930 . S
H651 C660 0.930 . S
H652 C665 0.929 . S
H653 C663 0.929 . S
H654 C658 0.929 1_566 S
H655 C664 0.929 . S
C656 H650 0.930 . S
C656 C657 1.367 1_545 S
C656 C664 1.378 . S
C657 C656 1.367 1_565 S
C657 C665 1.433 . S
C658 H654 0.929 1_544 S
C658 C660 1.378 1_554 S
C658 C662 1.349 . S
C659 C662 1.463 . S
C659 C664 1.350 . S
C659 N667 1.427 1_545 S
C660 H651 0.930 . S
C660 C658 1.378 1_556 S
C660 C661 1.367 . S
C661 C660 1.367 . S
C661 C663 1.433 1_556 S
C662 C658 1.349 . S
C662 C659 1.463 . S
C662 N666 1.427 . S
C663 H653 0.929 . S
C663 C661 1.433 1_554 S
C663 N666 1.384 . S
C664 H655 0.929 . S
C664 C656 1.378 . S
C664 C659 1.350 . S
C665 H652 0.929 . S
C665 C657 1.433 . S
C665 N667 1.384 . S
N666 C662 1.427 . S
N666 C663 1.384 . S
N667 C659 1.427 1_565 S
N667 C665 1.384 . S
H668 C674 0.930 . S
H669 C678 0.930 . S
H670 C683 0.929 . S
H671 C681 0.929 . S
H672 C676 0.929 . S
H673 C682 0.929 . S
C674 H668 0.930 . S
C674 C675 1.367 . S
C674 C682 1.378 . S
C675 C674 1.367 . S
C675 C683 1.433 . S
C676 H672 0.929 . S
C676 C678 1.378 . S
C676 C680 1.350 1_556 S
C677 C680 1.463 . S
C677 C682 1.350 . S
C677 N685 1.427 . S
C678 H669 0.930 . S
C678 C676 1.378 . S
C678 C679 1.367 . S
C679 C678 1.367 . S
C679 C681 1.433 1_556 S
C680 C676 1.350 1_554 S
C680 C677 1.463 . S
C680 N684 1.427 . S
C681 H671 0.929 . S
C681 C679 1.433 1_554 S
C681 N684 1.384 . S
C682 H673 0.929 . S
C682 C674 1.378 . S
C682 C677 1.350 . S
C683 H670 0.929 . S
C683 C675 1.433 . S
C683 N685 1.384 . S
N684 C680 1.427 . S
N684 C681 1.384 . S
N685 C677 1.427 . S
N685 C683 1.384 . S
H686 C692 0.930 . S
H687 C696 0.930 . S
H688 C701 0.929 . S
H689 C699 0.929 . S
H690 C694 0.929 . S
H691 C700 0.929 . S
C692 H686 0.930 . S
C692 C693 1.367 . S
C692 C700 1.378 . S
C693 C692 1.367 . S
C693 C701 1.433 . S
C694 H690 0.929 . S
C694 C696 1.378 . S
C694 C698 1.350 . S
C695 C698 1.463 . S
C695 C700 1.350 . S
C695 N703 1.427 . S
C696 H687 0.930 . S
C696 C694 1.378 . S
C696 C697 1.367 1_554 S
C697 C696 1.367 1_556 S
C697 C699 1.433 . S
C698 C694 1.350 . S
C698 C695 1.463 . S
C698 N702 1.427 1_554 S
C699 H689 0.929 . S
C699 C697 1.433 . S
C699 N702 1.384 . S
C700 H691 0.929 . S
C700 C692 1.378 . S
C700 C695 1.350 . S
C701 H688 0.929 . S
C701 C693 1.433 . S
C701 N703 1.384 . S
N702 C698 1.427 1_556 S
N702 C699 1.384 . S
N703 C695 1.427 . S
N703 C701 1.384 . S
H704 C710 0.930 . S
H705 C714 0.930 . S
H706 C719 0.929 . S
H707 C717 0.929 . S
H708 C712 0.929 . S
H709 C718 0.929 . S
C710 H704 0.930 . S
C710 C711 1.367 . S
C710 C718 1.378 . S
C711 C710 1.367 . S
C711 C719 1.433 1_455 S
C712 H708 0.929 . S
C712 C714 1.378 . S
C712 C716 1.350 1_655 S
C713 C716 1.463 . S
C713 C718 1.350 . S
C713 N721 1.427 1_455 S
C714 H705 0.930 . S
C714 C712 1.378 . S
C714 C715 1.367 1_655 S
C715 C714 1.367 1_455 S
C715 C717 1.433 . S
C716 C712 1.350 1_455 S
C716 C713 1.463 . S
C716 N720 1.427 . S
C717 H707 0.929 . S
C717 C715 1.433 . S
C717 N720 1.384 . S
C718 H709 0.929 . S
C718 C710 1.378 . S
C718 C713 1.350 . S
C719 H706 0.929 . S
C719 C711 1.433 1_655 S
C719 N721 1.384 . S
N720 C716 1.427 . S
N720 C717 1.384 . S
N721 C713 1.427 1_655 S
N721 C719 1.384 . S
H722 C728 0.930 . S
H723 C732 0.930 . S
H724 C737 0.929 . S
H725 C735 0.929 . S
H726 C730 0.929 . S
H727 C736 0.929 . S
C728 H722 0.930 . S
C728 C729 1.367 1_565 S
C728 C736 1.378 . S
C729 C728 1.367 1_545 S
C729 C737 1.433 . S
C730 H726 0.929 . S
C730 C732 1.378 . S
C730 C734 1.350 . S
C731 C734 1.463 . S
C731 C736 1.350 1_545 S
C731 N739 1.427 . S
C732 H723 0.930 . S
C732 C730 1.378 . S
C732 C733 1.367 . S
C733 C732 1.367 . S
C733 C735 1.433 1_545 S
C734 C730 1.350 . S
C734 C731 1.463 . S
C734 N738 1.427 1_545 S
C735 H725 0.929 . S
C735 C733 1.433 1_565 S
C735 N738 1.384 . S
C736 H727 0.929 . S
C736 C728 1.378 . S
C736 C731 1.350 1_565 S
C737 H724 0.929 . S
C737 C729 1.433 . S
C737 N739 1.384 . S
N738 C734 1.427 1_565 S
N738 C735 1.384 . S
N739 C731 1.427 . S
N739 C737 1.384 . S
H740 C746 0.930 . S
H741 C750 0.930 . S
H742 C755 0.929 . S
H743 C753 0.929 . S
H744 C748 0.929 . S
H745 C754 0.929 . S
C746 H740 0.930 . S
C746 C747 1.367 . S
C746 C754 1.378 . S
C747 C746 1.367 . S
C747 C755 1.433 . S
C748 H744 0.929 . S
C748 C750 1.378 . S
C748 C752 1.350 . S
C749 C752 1.463 . S
C749 C754 1.350 . S
C749 N757 1.427 . S
C750 H741 0.930 . S
C750 C748 1.378 . S
C750 C751 1.367 . S
C751 C750 1.367 . S
C751 C753 1.433 . S
C752 C748 1.350 . S
C752 C749 1.463 . S
C752 N756 1.427 . S
C753 H743 0.929 . S
C753 C751 1.433 . S
C753 N756 1.384 . S
C754 H745 0.929 . S
C754 C746 1.378 . S
C754 C749 1.350 . S
C755 H742 0.929 . S
C755 C747 1.433 . S
C755 N757 1.384 . S
N756 C752 1.427 . S
N756 C753 1.384 . S
N757 C749 1.427 . S
N757 C755 1.384 . S
H758 C764 0.930 . S
H759 C768 0.930 . S
H760 C773 0.929 . S
H761 C771 0.929 . S
H762 C766 0.929 . S
H763 C772 0.929 . S
C764 H758 0.930 . S
C764 C765 1.367 . S
C764 C772 1.378 . S
C765 C764 1.367 . S
C765 C773 1.433 . S
C766 H762 0.929 . S
C766 C768 1.378 . S
C766 C770 1.350 . S
C767 C770 1.463 . S
C767 C772 1.350 . S
C767 N775 1.427 . S
C768 H759 0.930 . S
C768 C766 1.378 . S
C768 C769 1.367 . S
C769 C768 1.367 . S
C769 C771 1.433 . S
C770 C766 1.350 . S
C770 C767 1.463 . S
C770 N774 1.427 . S
C771 H761 0.929 . S
C771 C769 1.433 . S
C771 N774 1.384 . S
C772 H763 0.929 . S
C772 C764 1.378 . S
C772 C767 1.350 . S
C773 H760 0.929 . S
C773 C765 1.433 . S
C773 N775 1.384 . S
N774 C770 1.427 . S
N774 C771 1.384 . S
N775 C767 1.427 . S
N775 C773 1.384 . S
H776 C782 0.930 . S
H777 C786 0.930 . S
H778 C791 0.929 . S
H779 C789 0.929 . S
H780 C784 0.929 . S
H781 C790 0.929 . S
C782 H776 0.930 . S
C782 C783 1.367 . S
C782 C790 1.378 . S
C783 C782 1.367 . S
C783 C791 1.433 1_655 S
C784 H780 0.929 . S
C784 C786 1.378 . S
C784 C788 1.350 1_455 S
C785 C788 1.463 . S
C785 C790 1.350 . S
C785 N793 1.427 1_655 S
C786 H777 0.930 . S
C786 C784 1.378 . S
C786 C787 1.367 1_455 S
C787 C786 1.367 1_655 S
C787 C789 1.433 . S
C788 C784 1.350 1_655 S
C788 C785 1.463 . S
C788 N792 1.427 . S
C789 H779 0.929 . S
C789 C787 1.433 . S
C789 N792 1.384 . S
C790 H781 0.929 . S
C790 C782 1.378 . S
C790 C785 1.350 . S
C791 H778 0.929 . S
C791 C783 1.433 1_455 S
C791 N793 1.384 . S
N792 C788 1.427 . S
N792 C789 1.384 . S
N793 C785 1.427 1_455 S
N793 C791 1.384 . S
H794 C800 0.930 . S
H795 C804 0.930 . S
H796 C809 0.929 . S
H797 C807 0.929 . S
H798 C802 0.929 . S
H799 C808 0.929 . S
C800 H794 0.930 . S
C800 C801 1.367 1_545 S
C800 C808 1.378 . S
C801 C800 1.367 1_565 S
C801 C809 1.433 . S
C802 H798 0.929 . S
C802 C804 1.378 . S
C802 C806 1.350 . S
C803 C806 1.463 . S
C803 C808 1.350 1_565 S
C803 N811 1.427 . S
C804 H795 0.930 . S
C804 C802 1.378 . S
C804 C805 1.367 . S
C805 C804 1.367 . S
C805 C807 1.433 1_565 S
C806 C802 1.350 . S
C806 C803 1.463 . S
C806 N810 1.427 1_565 S
C807 H797 0.929 . S
C807 C805 1.433 1_545 S
C807 N810 1.384 . S
C808 H799 0.929 . S
C808 C800 1.378 . S
C808 C803 1.350 1_545 S
C809 H796 0.929 . S
C809 C801 1.433 . S
C809 N811 1.384 . S
N810 C806 1.427 1_545 S
N810 C807 1.384 . S
N811 C803 1.427 . S
N811 C809 1.384 . S
H812 C818 0.930 . S
H813 C822 0.930 . S
H814 C827 0.929 . S
H815 C825 0.929 . S
H816 C820 0.929 . S
H817 C826 0.929 . S
C818 H812 0.930 . S
C818 C819 1.367 . S
C818 C826 1.378 . S
C819 C818 1.367 . S
C819 C827 1.433 . S
C820 H816 0.929 . S
C820 C822 1.378 . S
C820 C824 1.350 . S
C821 C824 1.463 . S
C821 C826 1.350 . S
C821 N829 1.427 . S
C822 H813 0.930 . S
C822 C820 1.378 . S
C822 C823 1.367 . S
C823 C822 1.367 . S
C823 C825 1.433 . S
C824 C820 1.350 . S
C824 C821 1.463 . S
C824 N828 1.427 . S
C825 H815 0.929 . S
C825 C823 1.433 . S
C825 N828 1.384 . S
C826 H817 0.929 . S
C826 C818 1.378 . S
C826 C821 1.350 . S
C827 H814 0.929 . S
C827 C819 1.433 . S
C827 N829 1.384 . S
N828 C824 1.427 . S
N828 C825 1.384 . S
N829 C821 1.427 . S
N829 C827 1.384 . S
H830 C836 0.930 . S
H831 C840 0.930 . S
H832 C845 0.929 . S
H833 C843 0.929 . S
H834 C838 0.929 . S
H835 C844 0.929 . S
C836 H830 0.930 . S
C836 C837 1.367 . S
C836 C844 1.378 . S
C837 C836 1.367 . S
C837 C845 1.433 . S
C838 H834 0.929 . S
C838 C840 1.378 . S
C838 C842 1.350 . S
C839 C842 1.463 . S
C839 C844 1.350 . S
C839 N847 1.427 . S
C840 H831 0.930 . S
C840 C838 1.378 . S
C840 C841 1.367 . S
C841 C840 1.367 . S
C841 C843 1.433 . S
C842 C838 1.350 . S
C842 C839 1.463 . S
C842 N846 1.427 . S
C843 H833 0.929 . S
C843 C841 1.433 . S
C843 N846 1.384 . S
C844 H835 0.929 . S
C844 C836 1.378 . S
C844 C839 1.350 . S
C845 H832 0.929 . S
C845 C837 1.433 . S
C845 N847 1.384 . S
N846 C842 1.427 . S
N846 C843 1.384 . S
N847 C839 1.427 . S
N847 C845 1.384 . S
C423 C215 2.009 . S
C427 C265 2.166 1_545 S
C445 C305 2.179 . S
C441 C247 1.997 . S
C463 C345 2.183 . S
C459 C151 2.011 . S
C481 C385 2.172 1_455 S
C477 C183 2.004 . S
C499 C274 2.170 1_565 S
C495 C87 2.015 1_565 S
C513 C119 2.030 . S
C517 C314 2.183 . S
C531 C23 2.023 . S
C535 C354 2.186 . S
C549 C55 2.007 . S
C553 C394 2.175 1_655 S
C571 C271 0.461 . S
C567 C189 0.394 . S
C589 C311 0.492 . S
C585 C221 0.403 . S
C607 C351 0.484 . S
C603 C253 0.402 . S
C621 C157 0.395 . S
C625 C391 0.483 . S
C639 C61 0.542 1_655 S
C643 C262 0.454 . S
C661 C302 0.459 . S
C657 C93 0.524 1_565 S
C679 C342 0.458 . S
C675 C125 0.526 . S
C693 C29 0.567 . S
C697 C382 0.484 . S
C711 C177 2.511 . S
C715 C275 2.817 . S
C729 C209 2.494 . S
C733 C315 2.805 . S
C751 C355 2.791 . S
C747 C241 2.477 . S
C769 C395 2.812 . S
C765 C145 2.485 . S
C783 C49 2.533 1_655 S
C787 C266 2.827 . S
C805 C306 2.805 . S
C801 C81 2.519 1_565 S
C823 C346 2.792 . S
C819 C113 2.520 . S
C837 C17 2.526 . S
C841 C386 2.820 . S
