# Generated by pormake.
# Topology zzz, (3,6)-cn, num edge types: 1
# Building blocks:
#     Node 0, Type 0, BuildingBlock: PAMTOO_clean_linker_0, # of connection points: 3
#     Node 1, Type 0, BuildingBlock: PAMTOO_clean_linker_0, # of connection points: 3
#     Node 2, Type 0, BuildingBlock: PAMTOO_clean_linker_0, # of connection points: 3
#     Node 3, Type 0, BuildingBlock: PAMTOO_clean_linker_0, # of connection points: 3
#     Node 4, Type 0, BuildingBlock: PAMTOO_clean_linker_0, # of connection points: 3
#     Node 5, Type 0, BuildingBlock: PAMTOO_clean_linker_0, # of connection points: 3
#     Node 6, Type 0, BuildingBlock: PAMTOO_clean_linker_0, # of connection points: 3
#     Node 7, Type 0, BuildingBlock: PAMTOO_clean_linker_0, # of connection points: 3
#     Node 8, Type 1, BuildingBlock: PAMTOO_clean_sbu_0, # of connection points: 6
#     Node 9, Type 1, BuildingBlock: PAMTOO_clean_sbu_0, # of connection points: 6
#     Node 10, Type 1, BuildingBlock: PAMTOO_clean_sbu_0, # of connection points: 6
#     Node 11, Type 1, BuildingBlock: PAMTOO_clean_sbu_0, # of connection points: 6
#     Edge 12, Type (0, 1), BuildingBlock: MIFKUJ_clean_linker_0, # of connection points: 2
#     Edge 13, Type (0, 1), BuildingBlock: MIFKUJ_clean_linker_0, # of connection points: 2
#     Edge 14, Type (0, 1), BuildingBlock: MIFKUJ_clean_linker_0, # of connection points: 2
#     Edge 15, Type (0, 1), BuildingBlock: MIFKUJ_clean_linker_0, # of connection points: 2
#     Edge 16, Type (0, 1), BuildingBlock: MIFKUJ_clean_linker_0, # of connection points: 2
#     Edge 17, Type (0, 1), BuildingBlock: MIFKUJ_clean_linker_0, # of connection points: 2
#     Edge 18, Type (0, 1), BuildingBlock: MIFKUJ_clean_linker_0, # of connection points: 2
#     Edge 19, Type (0, 1), BuildingBlock: MIFKUJ_clean_linker_0, # of connection points: 2
#     Edge 20, Type (0, 1), BuildingBlock: MIFKUJ_clean_linker_0, # of connection points: 2
#     Edge 21, Type (0, 1), BuildingBlock: MIFKUJ_clean_linker_0, # of connection points: 2
#     Edge 22, Type (0, 1), BuildingBlock: MIFKUJ_clean_linker_0, # of connection points: 2
#     Edge 23, Type (0, 1), BuildingBlock: MIFKUJ_clean_linker_0, # of connection points: 2
#     Edge 24, Type (0, 1), BuildingBlock: MIFKUJ_clean_linker_0, # of connection points: 2
#     Edge 25, Type (0, 1), BuildingBlock: MIFKUJ_clean_linker_0, # of connection points: 2
#     Edge 26, Type (0, 1), BuildingBlock: MIFKUJ_clean_linker_0, # of connection points: 2
#     Edge 27, Type (0, 1), BuildingBlock: MIFKUJ_clean_linker_0, # of connection points: 2
#     Edge 28, Type (0, 1), BuildingBlock: MIFKUJ_clean_linker_0, # of connection points: 2
#     Edge 29, Type (0, 1), BuildingBlock: MIFKUJ_clean_linker_0, # of connection points: 2
#     Edge 30, Type (0, 1), BuildingBlock: MIFKUJ_clean_linker_0, # of connection points: 2
#     Edge 31, Type (0, 1), BuildingBlock: MIFKUJ_clean_linker_0, # of connection points: 2
#     Edge 32, Type (0, 1), BuildingBlock: MIFKUJ_clean_linker_0, # of connection points: 2
#     Edge 33, Type (0, 1), BuildingBlock: MIFKUJ_clean_linker_0, # of connection points: 2
#     Edge 34, Type (0, 1), BuildingBlock: MIFKUJ_clean_linker_0, # of connection points: 2
#     Edge 35, Type (0, 1), BuildingBlock: MIFKUJ_clean_linker_0, # of connection points: 2
# Relax obj value: 0.185
# Max RMSD: 0.230
# Mean RMSD: 0.118
data_MOF--net-zzz--node1-PAMTOO_clean_sbu_0--node2-PAMTOO_clean_linker_0--edge1-MIFKUJ_clean_linker_0
_symmetry_space_group_name_H-M    P1
_symmetry_Int_Tables_number       1
_symmetry_cell_setting            triclinic
loop_
_symmetry_equiv_pos_as_xyz
'x, y, z'
_cell_length_a     73.068656
_cell_length_b     64.480374
_cell_length_c     20.377981
_cell_angle_alpha  90.760221
_cell_angle_beta   81.749155
_cell_angle_gamma 86.143375
loop_
_atom_site_label
_atom_site_type_symbol
_atom_site_fract_x
_atom_site_fract_y
_atom_site_fract_z
_atom_type_partial_charge
H0 H 0.82193 0.5462 0.35647 0.0
H1 H 0.76745 0.53739 0.31108 0.0
H2 H 0.78563 0.50796 0.48104 0.0
H3 H 0.74639 0.48619 0.41493 0.0
C4 C 0.75265 0.49695 0.37736 0.0
O5 O 0.75741 0.51436 0.41043 0.0
H6 H 0.76531 0.48838 0.35033 0.0
C7 C 0.80867 0.5396 0.36948 0.0
C8 C 0.80585 0.52662 0.4246 0.0
C9 C 0.79508 0.5432 0.32803 0.0
C10 C 0.77791 0.53484 0.34343 0.0
C11 C 0.77434 0.52229 0.39834 0.0
C12 C 0.7883 0.51809 0.4393 0.0
H13 H 0.01995 0.78779 0.30253 0.0
H14 H 1.00457 0.73081 0.21918 0.0
H15 H 0.98017 0.75119 0.41565 0.0
H16 H 0.97625 0.69692 0.3751 0.0
C17 C 0.98658 0.70253 0.33514 0.0
O18 O 0.98071 0.72256 0.31991 0.0
H19 H 1.00003 0.70246 0.35499 0.0
C20 C 0.01252 0.77377 0.30739 0.0
C21 C 1.00053 0.77095 0.36639 0.0
C22 C 0.01407 0.75956 0.25345 0.0
C23 C 1.0036 0.74205 0.25972 0.0
C24 C 0.99151 0.73891 0.31781 0.0
C25 C 0.98984 0.75344 0.37121 0.0
H26 H 0.71223 0.00441 0.24615 0.0
H27 H 0.7681 0.9996 0.14395 0.0
H28 H 0.75797 0.99582 0.35721 0.0
H29 H 0.79942 0.01429 0.29458 0.0
C30 C 0.79607 0.01085 0.24424 0.0
O31 O 0.78421 0.99473 0.24868 0.0
H32 H 0.78898 0.02537 0.2283 0.0
C33 C 0.72703 0.00229 0.2476 0.0
C34 C 0.7333 1.00012 0.30904 0.0
C35 C 0.73936 0.00207 0.18818 0.0
C36 C 0.7585 0.99981 0.18977 0.0
C37 C 0.76544 0.99764 0.25014 0.0
C38 C 0.75276 0.99766 0.31036 0.0
H39 H 0.51888 0.68699 0.2105 0.0
H40 H 0.51917 0.74185 0.09283 0.0
H41 H 0.53255 0.74492 0.29189 0.0
H42 H 0.51278 0.78594 0.25104 0.0
C43 C 0.51438 0.78172 0.19734 0.0
O44 O 0.52868 0.76639 0.18365 0.0
H45 H 0.50107 0.77586 0.18694 0.0
C46 C 0.52093 0.70344 0.20526 0.0
C47 C 0.52587 0.71469 0.2584 0.0
C48 C 0.51859 0.71301 0.14549 0.0
C49 C 0.52097 0.73431 0.1389 0.0
C50 C 0.52602 0.74589 0.19151 0.0
C51 C 0.52862 0.73602 0.25133 0.0
H52 H 0.20808 0.45726 0.07846 0.0
H53 H 0.2598 0.46581 0.1483 0.0
H54 H 0.24604 0.49861 0.97721 0.0
H55 H 0.26298 0.51106 0.1395 0.0
C56 C 0.27475 0.50822 0.09846 0.0
O57 O 0.27184 0.49148 0.05827 0.0
H58 H 0.27518 0.52233 0.06771 0.0
C59 C 0.22151 0.46381 0.07192 0.0
C60 C 0.22566 0.4777 0.02037 0.0
C61 C 0.23353 0.45977 0.11876 0.0
C62 C 0.25054 0.46881 0.11198 0.0
C63 C 0.25523 0.48278 0.06149 0.0
C64 C 0.24261 0.48757 0.01587 0.0
H65 H 0.05498 0.22589 0.1 0.0
H66 H 0.0455 0.28383 0.2103 0.0
H67 H 0.0206 0.27573 0.03343 0.0
H68 H 0.02599 0.32766 0.07539 0.0
C69 C 0.03329 0.31992 0.11362 0.0
O70 O 0.02463 0.30195 0.13202 0.0
H71 H 0.04794 0.31612 0.09068 0.0
C72 C 0.04943 0.24197 0.10434 0.0
C73 C 0.03803 0.24934 0.05878 0.0
C74 C 0.05211 0.25414 0.15929 0.0
C75 C 0.04389 0.27444 0.16727 0.0
C76 C 0.03299 0.28251 0.12115 0.0
C77 C 0.02975 0.26983 0.06731 0.0
H78 H 0.3102 0.99431 0.24537 0.0
H79 H 0.25382 0.99692 0.34136 0.0
H80 H 0.26621 0.01744 0.14006 0.0
H81 H 0.22576 0.03971 0.23169 0.0
C82 C 0.22822 0.02852 0.27101 0.0
O83 O 0.23897 0.0113 0.24147 0.0
H84 H 0.23589 0.03678 0.30572 0.0
C85 C 0.29558 0.99798 0.2434 0.0
C86 C 0.29012 0.00599 0.18504 0.0
C87 C 0.28272 0.99469 0.29953 0.0
C88 C 0.26384 0.99975 0.29838 0.0
C89 C 0.25767 0.0081 0.24162 0.0
C90 C 0.2709 0.01145 0.18461 0.0
H91 H 0.50663 0.31623 0.24718 0.0
H92 H 0.50894 0.26174 0.36606 0.0
H93 H 0.48921 0.25866 0.17685 0.0
H94 H 0.47054 0.22771 0.27784 0.0
C95 C 0.48022 0.22995 0.31437 0.0
O96 O 0.49639 0.23724 0.28185 0.0
H97 H 0.47317 0.24155 0.35236 0.0
C98 C 0.50458 0.29985 0.25418 0.0
C99 C 0.49747 0.28872 0.20544 0.0
C100 C 0.50885 0.29035 0.31196 0.0
C101 C 0.50572 0.26929 0.32149 0.0
C102 C 0.49868 0.25777 0.27287 0.0
C103 C 0.49458 0.26751 0.21449 0.0
Dy104 Dy 1.00119 0.0163 0.68347 0.0
Dy105 Dy 0.02211 0.998 0.80179 0.0
C106 C 0.04591 0.0108 0.66625 0.0
O107 O 0.99439 0.98301 0.68989 0.0
O108 O 0.02068 0.97158 0.72984 0.0
O109 O 0.99633 0.01398 0.58162 0.0
O110 O 0.98359 0.03991 0.64451 0.0
O111 O 0.99169 0.99624 0.8421 0.0
O112 O 0.97759 0.01574 0.76734 0.0
O113 O 0.01715 0.0318 0.83072 0.0
O114 O 0.01237 0.04392 0.72862 0.0
O115 O 0.02233 0.98418 0.89785 0.0
O116 O 0.04807 0.98754 0.83364 0.0
C117 C 1.00639 0.9678 0.7003 0.0
O118 O 0.03105 0.00867 0.63781 0.0
O119 O 0.04448 0.01159 0.7312 0.0
C120 C 0.99678 0.04753 0.53735 0.0
C121 C 0.01456 0.08051 0.47259 0.0
C122 C 0.02496 0.06259 0.4879 0.0
C123 C 0.01615 0.0463 0.52015 0.0
C124 C 0.98627 0.06491 0.51912 0.0
C125 C 0.9951 0.08129 0.48683 0.0
C126 C 0.98811 0.03265 0.5839 0.0
C127 C 0.97673 0.00564 0.82336 0.0
C128 C 0.01535 0.04723 0.78998 0.0
C129 C 0.04521 0.95636 0.88936 0.0
C130 C 0.05657 0.91369 0.88652 0.0
C131 C 0.04008 0.92059 0.86299 0.0
C132 C 0.03452 0.94171 0.86406 0.0
C133 C 0.06174 0.94965 0.91231 0.0
C134 C 0.06738 0.92847 0.91097 0.0
C135 C 0.04 0.97866 0.88579 0.0
H136 H 0.03998 0.06163 0.47831 0.0
H137 H 0.02459 0.03322 0.5347 0.0
H138 H 0.97134 0.06625 0.53268 0.0
H139 H 0.98674 0.09484 0.47477 0.0
H140 H 0.03122 0.90965 0.84505 0.0
H141 H 0.02186 0.9466 0.84498 0.0
H142 H 0.07035 0.96081 0.93065 0.0
H143 H 0.08023 0.92368 0.92891 0.0
Dy144 Dy 0.5051 0.98978 0.68265 0.0
Dy145 Dy 0.51727 0.01716 0.80294 0.0
C146 C 0.50432 0.03963 0.67432 0.0
O147 O 0.53465 0.99553 0.64228 0.0
O148 O 0.54411 0.00524 0.74023 0.0
O149 O 0.49976 0.98371 0.58272 0.0
O150 O 0.495 0.96045 0.65774 0.0
O151 O 0.51028 0.98596 0.84181 0.0
O152 O 0.52004 0.96814 0.74553 0.0
O153 O 0.48616 0.02114 0.82744 0.0
O154 O 0.47879 0.99618 0.75541 0.0
O155 O 0.52689 0.01689 0.89816 0.0
O156 O 0.52469 0.04574 0.84643 0.0
C157 C 0.54789 1.00007 0.67663 0.0
O158 O 0.4973 0.0225 0.65686 0.0
O159 O 0.51418 0.04015 0.72332 0.0
C160 C 0.47262 0.96559 0.58814 0.0
C161 C 0.43447 0.96231 0.58572 0.0
C162 C 0.4411 0.98124 0.60365 0.0
C163 C 0.45997 0.98283 0.60517 0.0
C164 C 0.46618 0.94677 0.56908 0.0
C165 C 0.44724 0.94514 0.56769 0.0
C166 C 0.49194 0.96655 0.59938 0.0
C167 C 0.51622 0.96845 0.81031 0.0
C168 C 0.47394 0.0098 0.80485 0.0
C169 C 0.55132 0.0387 0.89698 0.0
C170 C 0.58923 0.04396 0.89811 0.0
C171 C 0.58363 0.02636 0.86724 0.0
C172 C 0.5649 0.02373 0.8669 0.0
C173 C 0.55679 0.05641 0.92744 0.0
C174 C 0.57564 0.05898 0.92836 0.0
C175 C 0.53164 0.03598 0.89373 0.0
H176 H 0.43171 0.99487 0.61661 0.0
H177 H 0.46463 0.99742 0.62122 0.0
H178 H 0.47571 0.9332 0.55716 0.0
H179 H 0.44255 0.9303 0.55415 0.0
H180 H 0.59373 0.01431 0.84471 0.0
H181 H 0.56104 0.00986 0.84336 0.0
H182 H 0.54652 0.0682 0.95046 0.0
H183 H 0.57961 0.07271 0.95249 0.0
Dy184 Dy 0.53297 0.50552 0.77509 0.0
Dy185 Dy 0.49307 0.50114 0.70132 0.0
C186 C 0.50388 0.47023 0.81726 0.0
O187 O 0.53609 0.47695 0.71054 0.0
O188 O 0.51843 0.48927 0.63372 0.0
O189 O 0.56317 0.50429 0.7737 0.0
O190 O 0.54409 0.51057 0.86619 0.0
O191 O 0.50528 0.53007 0.66202 0.0
O192 O 0.53508 0.52818 0.691 0.0
O193 O 0.48492 0.51892 0.79732 0.0
O194 O 0.51295 0.53234 0.80746 0.0
O195 O 0.46589 0.51284 0.68099 0.0
O196 O 0.47754 0.48276 0.64112 0.0
C197 C 0.53034 0.47524 0.65265 0.0
O198 O 0.5158 0.48294 0.83496 0.0
O199 O 0.49527 0.47336 0.76535 0.0
C200 C 0.57712 0.50947 0.87689 0.0
C201 C 0.60688 0.51075 0.95421 0.0
C202 C 0.58823 0.51413 0.98374 0.0
C203 C 0.57364 0.5135 0.94582 0.0
C204 C 0.59571 0.50624 0.84695 0.0
C205 C 0.61036 0.50685 0.88498 0.0
C206 C 0.56131 0.50792 0.83783 0.0
C207 C 0.52195 0.53702 0.65987 0.0
C208 C 0.49481 0.5329 0.82047 0.0
C209 C 0.45241 0.49891 0.58889 0.0
C210 C 0.42634 0.49982 0.49616 0.0
C211 C 0.44004 0.48328 0.49548 0.0
C212 C 0.45284 0.48283 0.54105 0.0
C213 C 0.43908 0.51572 0.58841 0.0
C214 C 0.42634 0.51622 0.54269 0.0
C215 C 0.46348 0.49656 0.64534 0.0
H216 H 0.58478 0.51684 0.03675 0.0
H217 H 0.55954 0.51595 0.97096 0.0
H218 H 0.59896 0.50307 0.79408 0.0
H219 H 0.62445 0.50441 0.85985 0.0
H220 H 0.44079 0.47047 0.46007 0.0
H221 H 0.46274 0.46952 0.54004 0.0
H222 H 0.43798 0.52819 0.62519 0.0
H223 H 0.41596 0.52913 0.5458 0.0
Dy224 Dy 0.02138 0.52394 0.67927 0.0
Dy225 Dy 1.00668 0.49185 0.79055 0.0
C226 C 0.02297 0.47569 0.643 0.0
O227 O 0.99297 0.51738 0.65761 0.0
O228 O 0.98097 0.50855 0.76205 0.0
O229 O 0.02435 0.53421 0.57814 0.0
O230 O 0.03629 0.55112 0.6518 0.0
O231 O 0.00986 0.52198 0.84273 0.0
O232 O 1.00483 0.5441 0.76006 0.0
O233 O 0.03766 0.48591 0.78251 0.0
O234 O 0.04445 0.51775 0.7409 0.0
O235 O 1.00208 0.48257 0.893 0.0
O236 O 0.99162 0.46479 0.81789 0.0
C237 C 0.97861 0.5137 0.70149 0.0
O238 O 0.03217 0.49252 0.6361 0.0
O239 O 0.01031 0.47374 0.69465 0.0
C240 C 0.05528 0.54234 0.54989 0.0
C241 C 0.08845 0.51986 0.49632 0.0
C242 C 0.08772 0.53207 0.55421 0.0
C243 C 0.07127 0.54326 0.58081 0.0
C244 C 0.05677 0.53213 0.4878 0.0
C245 C 0.07318 0.52081 0.46153 0.0
C246 C 0.03673 0.54706 0.58865 0.0
C247 C 1.00553 0.54075 0.82306 0.0
C248 C 0.04936 0.50053 0.76991 0.0
C249 C 0.97034 0.47584 0.91139 0.0
C250 C 0.93521 0.4976 0.93277 0.0
C251 C 0.94939 0.5035 0.96736 0.0
C252 C 0.96675 0.49266 0.95713 0.0
C253 C 0.95551 0.46858 0.88249 0.0
C254 C 0.93809 0.47943 0.89294 0.0
C255 C 0.98965 0.47 0.88066 0.0
H256 H 0.09938 0.53169 0.58167 0.0
H257 H 0.0707 0.55113 0.62843 0.0
H258 H 0.04477 0.53133 0.46244 0.0
H259 H 0.07361 0.51186 0.41587 0.0
H260 H 0.94728 0.51705 0.00031 0.0
H261 H 0.97773 0.49856 0.98104 0.0
H262 H 0.95777 0.4556 0.84729 0.0
H263 H 0.92727 0.47438 0.86647 0.0
H264 H 0.22002 0.01689 0.40153 0.0
H265 H 0.18957 0.01282 0.46664 0.0
H266 H 0.16357 0.02374 0.29204 0.0
H267 H 0.19405 0.0282 0.22733 0.0
H268 H 0.14404 0.04539 0.39142 0.0
H269 H 0.16798 0.97407 0.36648 0.0
H270 H 0.19072 0.94438 0.37294 0.0
H271 H 0.18631 0.9542 0.58361 0.0
H272 H 0.16372 0.98412 0.57829 0.0
H273 H 0.05438 0.01434 0.53022 0.0
H274 H 0.08486 0.01631 0.46345 0.0
H275 H 0.1108 0.01124 0.64005 0.0
H276 H 0.08033 0.00961 0.7073 0.0
H277 H 0.13007 0.98636 0.53959 0.0
H278 H 0.10751 0.05731 0.56687 0.0
H279 H 0.08503 0.08747 0.56488 0.0
H280 H 0.08702 0.07891 0.35464 0.0
H281 H 0.10942 0.04848 0.35545 0.0
C282 C 0.20784 0.01807 0.37679 0.0
C283 C 0.20958 0.02286 0.30902 0.0
C284 C 0.19032 0.01574 0.41416 0.0
C285 C 0.17394 0.01784 0.38484 0.0
C286 C 0.17577 0.02209 0.31658 0.0
C287 C 0.19329 0.02446 0.27925 0.0
C288 C 0.15499 0.01623 0.42539 0.0
C289 C 0.14098 0.03225 0.42281 0.0
C290 C 0.15079 0.9995 0.4685 0.0
C291 C 0.16429 0.98145 0.47188 0.0
C292 C 0.17196 0.96998 0.41412 0.0
C293 C 0.1848 0.9531 0.41758 0.0
C294 C 0.18999 0.94744 0.47862 0.0
C295 C 0.1823 0.95862 0.53635 0.0
C296 C 0.16945 0.97552 0.53315 0.0
C297 C 0.0665 0.01378 0.55518 0.0
C298 C 0.06464 0.01199 0.62471 0.0
C299 C 0.08404 0.01491 0.51668 0.0
C300 C 0.10037 0.01405 0.54625 0.0
C301 C 0.09858 0.01194 0.61552 0.0
C302 C 0.08102 0.0111 0.65414 0.0
C303 C 0.11921 0.01541 0.50516 0.0
C304 C 0.13315 0.9994 0.50779 0.0
C305 C 0.12339 0.03219 0.46244 0.0
C306 C 0.11001 0.05049 0.46133 0.0
C307 C 0.10305 0.06175 0.52026 0.0
C308 C 0.09035 0.07891 0.51936 0.0
C309 C 0.08459 0.08508 0.45973 0.0
C310 C 0.09151 0.0741 0.40081 0.0
C311 C 0.10423 0.0569 0.40143 0.0
H312 H 0.07483 0.09844 0.4593 0.0
H313 H 0.19995 0.93437 0.4812 0.0
H314 H 0.49245 0.22446 0.43444 0.0
H315 H 0.49701 0.19193 0.49307 0.0
H316 H 0.48195 0.15737 0.32849 0.0
H317 H 0.47712 0.18996 0.27041 0.0
H318 H 0.46457 0.14401 0.44288 0.0
H319 H 0.52738 0.15736 0.35887 0.0
H320 H 0.55469 0.17816 0.34045 0.0
H321 H 0.55495 0.18314 0.55064 0.0
H322 H 0.52747 0.16259 0.57037 0.0
H323 H 0.49161 0.04372 0.55424 0.0
H324 H 0.48814 0.07533 0.49094 0.0
H325 H 0.50662 0.11111 0.64626 0.0
H326 H 0.51074 0.07946 0.7086 0.0
H327 H 0.5224 0.12354 0.53382 0.0
H328 H 0.45934 0.11111 0.61892 0.0
H329 H 0.43184 0.09062 0.63865 0.0
H330 H 0.43167 0.08435 0.42871 0.0
H331 H 0.45932 0.10459 0.4077 0.0
C332 C 0.49024 0.20987 0.41078 0.0
C333 C 0.48427 0.20973 0.34822 0.0
C334 C 0.4929 0.19128 0.44415 0.0
C335 C 0.48991 0.17207 0.41525 0.0
C336 C 0.48428 0.17193 0.35209 0.0
C337 C 0.4816 0.19053 0.31877 0.0
C338 C 0.49222 0.15224 0.45143 0.0
C339 C 0.47732 0.1394 0.46193 0.0
C340 C 0.50867 0.14635 0.47787 0.0
C341 C 0.52527 0.15859 0.4661 0.0
C342 C 0.53318 0.16301 0.40118 0.0
C343 C 0.5487 0.17474 0.3905 0.0
C344 C 0.55652 0.18201 0.44434 0.0
C345 C 0.54887 0.17751 0.50898 0.0
C346 C 0.53333 0.16581 0.51994 0.0
C347 C 0.49485 0.05832 0.57515 0.0
C348 C 0.50141 0.05898 0.63675 0.0
C349 C 0.49278 0.07647 0.53892 0.0
C350 C 0.49686 0.09582 0.56396 0.0
C351 C 0.50338 0.09647 0.62555 0.0
C352 C 0.50567 0.07831 0.66137 0.0
C353 C 0.49469 0.11532 0.52576 0.0
C354 C 0.50963 0.12811 0.51479 0.0
C355 C 0.47824 0.1212 0.49919 0.0
C356 C 0.46151 0.1092 0.51174 0.0
C357 C 0.45351 0.10525 0.57696 0.0
C358 C 0.43789 0.0937 0.58837 0.0
C359 C 0.43004 0.08614 0.53496 0.0
C360 C 0.43777 0.09019 0.47003 0.0
C361 C 0.45341 0.10172 0.45834 0.0
H362 H 0.41796 0.07718 0.5439 0.0
H363 H 0.56854 0.19109 0.43597 0.0
H364 H 0.2918 0.47204 0.14386 0.0
H365 H 0.31822 0.46905 0.20596 0.0
H366 H 0.32352 0.53507 0.1909 0.0
H367 H 0.29733 0.538 0.12827 0.0
H368 H 0.35686 0.51626 0.17437 0.0
H369 H 0.30233 0.5116 0.33504 0.0
H370 H 0.27312 0.49715 0.38343 0.0
H371 H 0.30217 0.43781 0.40119 0.0
H372 H 0.33152 0.45185 0.35201 0.0
H373 H 0.41059 0.53285 0.43344 0.0
H374 H 0.38615 0.5327 0.3632 0.0
H375 H 0.38444 0.46639 0.38336 0.0
H376 H 0.40852 0.46649 0.45538 0.0
H377 H 0.35001 0.48358 0.39464 0.0
H378 H 0.40482 0.48876 0.23788 0.0
H379 H 0.43392 0.5033 0.18896 0.0
H380 H 0.4043 0.56178 0.16382 0.0
H381 H 0.37504 0.54767 0.21344 0.0
C382 C 0.29875 0.48587 0.15288 0.0
C383 C 0.29257 0.50522 0.12973 0.0
C384 C 0.31383 0.48418 0.18907 0.0
C385 C 0.32294 0.50187 0.20423 0.0
C386 C 0.31694 0.52111 0.18006 0.0
C387 C 0.30193 0.52277 0.14392 0.0
C388 C 0.33841 0.50061 0.24618 0.0
C389 C 0.35523 0.50929 0.22283 0.0
C390 C 0.33668 0.49114 0.3091 0.0
C391 C 0.31909 0.48271 0.33918 0.0
C392 C 0.30247 0.49543 0.34884 0.0
C393 C 0.28589 0.48732 0.37646 0.0
C394 C 0.28578 0.46656 0.39519 0.0
C395 C 0.30227 0.45388 0.38654 0.0
C396 C 0.31888 0.46191 0.35883 0.0
C397 C 0.40501 0.51819 0.42338 0.0
C398 C 0.41176 0.49967 0.45049 0.0
C399 C 0.39106 0.51811 0.38239 0.0
C400 C 0.38341 0.49949 0.36681 0.0
C401 C 0.39004 0.481 0.39404 0.0
C402 C 0.40403 0.48106 0.43492 0.0
C403 C 0.36841 0.49938 0.32301 0.0
C404 C 0.35168 0.49046 0.34605 0.0
C405 C 0.3702 0.50867 0.25983 0.0
C406 C 0.38776 0.51721 0.22997 0.0
C407 C 0.40453 0.50477 0.22241 0.0
C408 C 0.42105 0.51293 0.19446 0.0
C409 C 0.42097 0.53347 0.17345 0.0
C410 C 0.40435 0.54588 0.1802 0.0
C411 C 0.38779 0.5378 0.20817 0.0
H412 H 0.43377 0.53975 0.15181 0.0
H413 H 0.27293 0.4603 0.41655 0.0
H414 H 0.05148 0.35526 0.11404 0.0
H415 H 0.05085 0.38135 0.20284 0.0
H416 H 0.01375 0.34557 0.33247 0.0
H417 H 0.01402 0.31966 0.24323 0.0
H418 H 1.00219 0.38536 0.34366 0.0
H419 H 0.06128 0.34773 0.34515 0.0
H420 H 0.09246 0.33299 0.29786 0.0
H421 H 0.10894 0.39407 0.24677 0.0
H422 H 0.07775 0.40918 0.29274 0.0
H423 H 1.00766 0.43807 0.64455 0.0
H424 H 0.01053 0.41185 0.55571 0.0
H425 H 0.0475 0.44922 0.43133 0.0
H426 H 0.04496 0.4755 0.5209 0.0
H427 H 0.05943 0.40935 0.41569 0.0
H428 H 1.00136 0.44732 0.4114 0.0
H429 H 0.97039 0.46312 0.45694 0.0
H430 H 0.95219 0.40283 0.5098 0.0
H431 H 0.98315 0.38669 0.46549 0.0
C432 C 0.04331 0.35288 0.16172 0.0
C433 C 0.03306 0.33519 0.17154 0.0
C434 C 0.043 0.36779 0.21264 0.0
C435 C 0.0325 0.36538 0.27517 0.0
C436 C 0.02206 0.34781 0.28498 0.0
C437 C 0.0223 0.3329 0.23384 0.0
C438 C 0.03201 0.38143 0.32955 0.0
C439 C 0.01473 0.39033 0.36002 0.0
C440 C 0.04834 0.38862 0.3497 0.0
C441 C 0.06709 0.37955 0.32174 0.0
C442 C 0.07149 0.35801 0.32327 0.0
C443 C 0.08918 0.34959 0.29678 0.0
C444 C 0.10265 0.36259 0.26914 0.0
C445 C 0.09847 0.38403 0.26805 0.0
C446 C 0.08079 0.39253 0.29432 0.0
C447 C 0.01651 0.44074 0.59852 0.0
C448 C 0.02598 0.45906 0.59004 0.0
C449 C 0.01805 0.42572 0.5474 0.0
C450 C 0.02892 0.42864 0.48595 0.0
C451 C 0.03891 0.44658 0.47797 0.0
C452 C 0.03744 0.46164 0.52935 0.0
C453 C 0.02963 0.41306 0.43019 0.0
C454 C 0.04691 0.40433 0.39934 0.0
C455 C 0.01332 0.40617 0.40919 0.0
C456 C 0.99464 0.41581 0.43566 0.0
C457 C 0.9908 0.43744 0.43319 0.0
C458 C 0.97324 0.44646 0.45872 0.0
C459 C 0.95934 0.434 0.48637 0.0
C460 C 0.96297 0.41247 0.48843 0.0
C461 C 0.98052 0.40338 0.46307 0.0
H462 H 0.94575 0.44101 0.50607 0.0
H463 H 0.11635 0.35604 0.24872 0.0
H464 H 0.82884 0.99042 0.26911 0.0
H465 H 0.85904 0.98712 0.19789 0.0
H466 H 0.83463 0.01751 0.0409 0.0
H467 H 0.80436 0.02036 0.11175 0.0
H468 H 0.85931 0.98871 0.98682 0.0
H469 H 0.86103 0.04328 0.14799 0.0
H470 H 0.85841 0.05904 0.26019 0.0
H471 H 0.90115 0.01515 0.30753 0.0
H472 H 0.90386 0.99896 0.19584 0.0
H473 H 0.94227 0.02083 0.79803 0.0
H474 H 0.91217 0.01944 0.86731 0.0
H475 H 0.93842 0.98688 0.01604 0.0
H476 H 0.96869 0.98837 0.94702 0.0
H477 H 0.91318 0.01556 0.07508 0.0
H478 H 0.91229 0.96192 0.91159 0.0
H479 H 0.91507 0.94666 0.7987 0.0
H480 H 0.87091 0.98923 0.75498 0.0
H481 H 0.86803 0.00495 0.86737 0.0
C482 C 0.82985 0.99608 0.21901 0.0
C483 C 0.81413 0.00581 0.19652 0.0
C484 C 0.84724 0.99441 0.17832 0.0
C485 C 0.84951 0.00254 0.11391 0.0
C486 C 0.83354 0.01122 0.09021 0.0
C487 C 0.81614 0.01282 0.13084 0.0
C488 C 0.86845 0.00255 0.07209 0.0
C489 C 0.87098 0.99483 0.00616 0.0
C490 C 0.88409 0.01006 0.09671 0.0
C491 C 0.8825 0.01977 0.16383 0.0
C492 C 0.86977 0.03689 0.18251 0.0
C493 C 0.86829 0.04592 0.24598 0.0
C494 C 0.87957 0.03806 0.29103 0.0
C495 C 0.8924 0.0212 0.27263 0.0
C496 C 0.89392 0.0121 0.20924 0.0
C497 C 0.94174 0.01331 0.84539 0.0
C498 C 0.95815 0.00466 0.86631 0.0
C499 C 0.92437 0.01243 0.88512 0.0
C500 C 0.92271 0.00281 0.9472 0.0
C501 C 0.93909 0.99437 0.96858 0.0
C502 C 0.9565 0.99518 0.92871 0.0
C503 C 0.90401 0.0018 0.98982 0.0
C504 C 0.90152 0.00937 0.05585 0.0
C505 C 0.88842 0.9942 0.96523 0.0
C506 C 0.89007 0.98474 0.8977 0.0
C507 C 0.90326 0.96813 0.87774 0.0
C508 C 0.90484 0.95939 0.81387 0.0
C509 C 0.89321 0.96701 0.76964 0.0
C510 C 0.87993 0.98336 0.78927 0.0
C511 C 0.87831 0.99218 0.85307 0.0
H512 H 0.89445 0.96021 0.72021 0.0
H513 H 0.87841 0.04507 0.34013 0.0
H514 H 0.51094 0.82271 0.23769 0.0
H515 H 0.51318 0.8536 0.16923 0.0
H516 H 0.52715 0.81453 0.99337 0.0
H517 H 0.52493 0.78347 0.06215 0.0
H518 H 0.54813 0.84927 0.98855 0.0
H519 H 0.48403 0.83501 0.03242 0.0
H520 H 0.45479 0.8278 0.10217 0.0
H521 H 0.45423 0.88647 0.20492 0.0
H522 H 0.48362 0.8939 0.13638 0.0
H523 H 0.52719 0.92882 0.76197 0.0
H524 H 0.52879 0.89677 0.82475 0.0
H525 H 0.51079 0.93182 0.00695 0.0
H526 H 0.50895 0.96379 0.94466 0.0
H527 H 0.49212 0.89809 0.0048 0.0
H528 H 0.55622 0.91247 0.9623 0.0
H529 H 0.5855 0.91991 0.8932 0.0
H530 H 0.58627 0.86154 0.78861 0.0
H531 H 0.55684 0.85388 0.85648 0.0
C532 C 0.5148 0.8207 0.18455 0.0
C533 C 0.51803 0.80066 0.15539 0.0
C534 C 0.51597 0.83837 0.14537 0.0
C535 C 0.52019 0.83645 0.07596 0.0
C536 C 0.52393 0.81645 0.04676 0.0
C537 C 0.52269 0.79872 0.08604 0.0
C538 C 0.51979 0.85529 0.03415 0.0
C539 C 0.53582 0.8598 0.99139 0.0
C540 C 0.50384 0.86929 0.03857 0.0
C541 C 0.48612 0.86492 0.07969 0.0
C542 C 0.47775 0.8463 0.07024 0.0
C543 C 0.46114 0.84219 0.1095 0.0
C544 C 0.45268 0.85665 0.15806 0.0
C545 C 0.46081 0.87527 0.16735 0.0
C546 C 0.47744 0.87945 0.12827 0.0
C547 C 0.52366 0.92974 0.81544 0.0
C548 C 0.51794 0.94896 0.84813 0.0
C549 C 0.52466 0.91137 0.85138 0.0
C550 C 0.52005 0.91181 0.92086 0.0
C551 C 0.51441 0.931 0.95348 0.0
C552 C 0.51341 0.94933 0.91767 0.0
C553 C 0.52055 0.89229 0.95963 0.0
C554 C 0.50448 0.88759 0.00178 0.0
C555 C 0.53647 0.87819 0.95466 0.0
C556 C 0.55422 0.88271 0.914 0.0
C557 C 0.56255 0.9013 0.9242 0.0
C558 C 0.57919 0.90554 0.88532 0.0
C559 C 0.58771 0.89124 0.83641 0.0
C560 C 0.57964 0.87262 0.82644 0.0
C561 C 0.56299 0.86831 0.86513 0.0
H562 H 0.60059 0.89455 0.80636 0.0
H563 H 0.43982 0.85343 0.1884 0.0
H564 H 0.72185 0.52547 0.39303 0.0
H565 H 0.69776 0.5303 0.32083 0.0
H566 H 0.72685 0.48324 0.1851 0.0
H567 H 0.75109 0.47894 0.25595 0.0
H568 H 0.71375 0.51201 0.11501 0.0
H569 H 0.68679 0.47489 0.30435 0.0
H570 H 0.67677 0.46914 0.42313 0.0
H571 H 0.641 0.52513 0.43613 0.0
H572 H 0.651 0.53135 0.31756 0.0
H573 H 0.6399 0.48631 0.94031 0.0
H574 H 0.66465 0.48627 0.00934 0.0
H575 H 0.63416 0.5355 0.13252 0.0
H576 H 0.60943 0.53575 0.06349 0.0
H577 H 0.64773 0.50757 0.2092 0.0
H578 H 0.67372 0.54367 0.01791 0.0
H579 H 0.68361 0.549 0.89882 0.0
H580 H 0.72111 0.49448 0.88914 0.0
H581 H 0.71126 0.48866 0.00801 0.0
C582 C 0.72327 0.51648 0.34711 0.0
C583 C 0.73866 0.50212 0.32976 0.0
C584 C 0.70933 0.51904 0.30605 0.0
C585 C 0.71015 0.50694 0.24731 0.0
C586 C 0.72572 0.49288 0.22963 0.0
C587 C 0.73966 0.49044 0.2703 0.0
C588 C 0.69481 0.50847 0.20472 0.0
C589 C 0.69935 0.51079 0.13579 0.0
C590 C 0.67581 0.5074 0.23106 0.0
C591 C 0.6698 0.5037 0.3023 0.0
C592 C 0.6769 0.48605 0.33267 0.0
C593 C 0.6712 0.4827 0.39993 0.0
C594 C 0.6583 0.4968 0.4372 0.0
C595 C 0.65103 0.51425 0.40724 0.0
C596 C 0.65669 0.51769 0.34001 0.0
C597 C 0.6385 0.49737 0.98145 0.0
C598 C 0.62246 0.51105 0.99568 0.0
C599 C 0.65275 0.4973 0.02124 0.0
C600 C 0.65155 0.51103 0.07633 0.0
C601 C 0.63556 0.52467 0.09071 0.0
C602 C 0.62131 0.52474 0.05101 0.0
C603 C 0.66671 0.51092 0.11952 0.0
C604 C 0.66213 0.50886 0.1885 0.0
C605 C 0.68567 0.51217 0.09321 0.0
C606 C 0.69162 0.51562 0.02173 0.0
C607 C 0.68397 0.53273 0.99027 0.0
C608 C 0.68959 0.53585 0.92282 0.0
C609 C 0.70295 0.52206 0.8864 0.0
C610 C 0.71075 0.50514 0.91739 0.0
C611 C 0.70516 0.50192 0.98481 0.0
H612 H 0.70728 0.52451 0.8342 0.0
H613 H 0.65391 0.49417 0.48926 0.0
H614 H 1.00469 0.66423 0.32286 0.0
H615 H 1.00706 0.63838 0.23267 0.0
H616 H 0.97464 0.68036 0.12441 0.0
H617 H 0.97177 0.70608 0.21582 0.0
H618 H 0.96396 0.64241 0.112 0.0
H619 H 0.02256 0.67158 0.0814 0.0
H620 H 0.0516 0.68338 0.11264 0.0
H621 H 0.06798 0.62103 0.16242 0.0
H622 H 0.0389 0.60889 0.13239 0.0
H623 H 0.99096 0.58074 0.80867 0.0
H624 H 0.98702 0.6096 0.89063 0.0
H625 H 0.00998 0.5696 0.03051 0.0
H626 H 0.01372 0.54076 0.94975 0.0
H627 H 0.02539 0.60863 0.01907 0.0
H628 H 0.96545 0.58019 0.04452 0.0
H629 H 0.93736 0.56971 0.00276 0.0
H630 H 0.92369 0.63295 0.95469 0.0
H631 H 0.95215 0.64371 0.99353 0.0
C632 C 0.99822 0.66803 0.27951 0.0
C633 C 0.98848 0.68745 0.276 0.0
C634 C 0.9996 0.65324 0.22779 0.0
C635 C 0.99138 0.65746 0.17063 0.0
C636 C 0.98126 0.6767 0.16752 0.0
C637 C 0.97975 0.6915 0.21971 0.0
C638 C 0.99338 0.6417 0.11475 0.0
C639 C 0.97744 0.63529 0.09103 0.0
C640 C 0.01092 0.63216 0.08722 0.0
C641 C 0.02847 0.63936 0.10517 0.0
C642 C 0.03229 0.66041 0.09947 0.0
C643 C 0.04877 0.66716 0.11689 0.0
C644 C 0.06161 0.65297 0.13964 0.0
C645 C 0.05802 0.632 0.14485 0.0
C646 C 0.04154 0.62517 0.12758 0.0
C647 C 0.99512 0.57808 0.85695 0.0
C648 C 1.00263 0.55837 0.87249 0.0
C649 C 0.99283 0.59459 0.9038 0.0
C650 C 0.99819 0.59179 0.96689 0.0
C651 C 1.00578 0.57218 0.98223 0.0
C652 C 1.00782 0.55565 0.93593 0.0
C653 C 0.99601 0.60918 0.01722 0.0
C654 C 0.01194 0.61588 0.03985 0.0
C655 C 0.97851 0.61915 0.04281 0.0
C656 C 0.96112 0.61273 0.02111 0.0
C657 C 0.95661 0.59184 0.02424 0.0
C658 C 0.94063 0.58584 0.00092 0.0
C659 C 0.92877 0.60065 0.97595 0.0
C660 C 0.93291 0.62149 0.97397 0.0
C661 C 0.94901 0.62754 0.99636 0.0
H662 H 0.91633 0.59601 0.95836 0.0
H663 H 0.07436 0.65822 0.15309 0.0
H664 H 0.03744 0.25343 0.28931 0.0
H665 H 0.04319 0.22497 0.36244 0.0
H666 H 0.09058 0.2019 0.22345 0.0
H667 H 0.08484 0.23048 0.14989 0.0
H668 H 0.06128 0.17821 0.22812 0.0
H669 H 0.0949 0.20715 0.38507 0.0
H670 H 0.1025 0.23297 0.46539 0.0
H671 H 0.05094 0.22521 0.58999 0.0
H672 H 0.04285 0.19961 0.50998 0.0
H673 H 0.04467 0.0813 0.37597 0.0
H674 H 0.06091 0.11166 0.33597 0.0
H675 H 0.02224 0.1513 0.47038 0.0
H676 H 1.00643 0.12097 0.51226 0.0
H677 H 0.05566 0.1638 0.46813 0.0
H678 H 0.0181 0.14357 0.30775 0.0
H679 H 1.0063 0.12189 0.22492 0.0
H680 H 0.05974 0.11812 0.10464 0.0
H681 H 0.07205 0.1393 0.18776 0.0
C682 C 0.04976 0.24307 0.27619 0.0
C683 C 0.06043 0.24377 0.2133 0.0
C684 C 0.05307 0.22675 0.31821 0.0
C685 C 0.06712 0.21111 0.29774 0.0
C686 C 0.07961 0.21376 0.2399 0.0
C687 C 0.0763 0.23006 0.19786 0.0
C688 C 0.06502 0.19004 0.32431 0.0
C689 C 0.06062 0.17481 0.28038 0.0
C690 C 0.06345 0.18602 0.39278 0.0
C691 C 0.06823 0.20148 0.44116 0.0
C692 C 0.08509 0.21107 0.42928 0.0
C693 C 0.0895 0.22565 0.47486 0.0
C694 C 0.0772 0.23075 0.53271 0.0
C695 C 0.06046 0.22124 0.54516 0.0
C696 C 0.05597 0.20666 0.49973 0.0
C697 C 0.03971 0.09649 0.39715 0.0
C698 C 0.02411 0.09883 0.44648 0.0
C699 C 0.04896 0.1138 0.37418 0.0
C700 C 0.04268 0.13374 0.3998 0.0
C701 C 0.02734 0.13605 0.44997 0.0
C702 C 0.01814 0.11876 0.47308 0.0
C703 C 0.05133 0.15241 0.37203 0.0
C704 C 0.05686 0.16706 0.41565 0.0
C705 C 0.05329 0.15633 0.30331 0.0
C706 C 0.04613 0.14268 0.25482 0.0
C707 C 0.02748 0.13774 0.26443 0.0
C708 C 0.02067 0.12557 0.21729 0.0
C709 C 0.03228 0.11853 0.15973 0.0
C710 C 0.05077 0.12351 0.14941 0.0
C711 C 0.05769 0.13553 0.19664 0.0
H712 H 0.02693 0.10931 0.12295 0.0
H713 H 0.08065 0.24204 0.56793 0.0
H714 H 0.30539 0.95994 0.30474 0.0
H715 H 0.32294 0.95032 0.39362 0.0
H716 H 0.29331 1.00005 0.51776 0.0
H717 H 0.27597 0.01014 0.42706 0.0
H718 H 0.32842 0.00403 0.50821 0.0
H719 H 0.29248 0.94792 0.56738 0.0
H720 H 0.27461 0.91748 0.55353 0.0
H721 H 0.32397 0.88305 0.45955 0.0
H722 H 0.34211 0.91336 0.47181 0.0
H723 H 0.40547 0.97889 0.6757 0.0
H724 H 0.37243 0.98014 0.66565 0.0
H725 H 0.3849 0.94327 0.48462 0.0
H726 H 0.41789 0.94226 0.49349 0.0
H727 H 0.35168 0.93343 0.56497 0.0
H728 H 0.38298 0.99465 0.47569 0.0
H729 H 0.40082 0.02525 0.48864 0.0
H730 H 0.3586 0.04976 0.64397 0.0
H731 H 0.34063 0.01914 0.63239 0.0
C732 C 0.30226 0.96845 0.35167 0.0
C733 C 0.28956 0.98594 0.35892 0.0
C734 C 0.31216 0.9628 0.40289 0.0
C735 C 0.30942 0.97437 0.4628 0.0
C736 C 0.29562 0.99086 0.47207 0.0
C737 C 0.28568 0.99656 0.42047 0.0
C738 C 0.32326 0.97145 0.50918 0.0
C739 C 0.33304 0.98865 0.5228 0.0
C740 C 0.32947 0.95141 0.52801 0.0
C741 C 0.31868 0.93299 0.52056 0.0
C742 C 0.29952 0.9339 0.54342 0.0
C743 C 0.28934 0.91665 0.53588 0.0
C744 C 0.29815 0.89834 0.50569 0.0
C745 C 0.31717 0.89724 0.48304 0.0
C746 C 0.32742 0.91444 0.49044 0.0
C747 C 0.40115 0.97093 0.63396 0.0
C748 C 0.41433 0.96077 0.58471 0.0
C749 C 0.38227 0.97149 0.62873 0.0
C750 C 0.37628 0.96191 0.5742 0.0
C751 C 0.38926 0.95064 0.52734 0.0
C752 C 0.40813 0.95011 0.53241 0.0
C753 C 0.35704 0.9658 0.56038 0.0
C754 C 0.34642 0.94883 0.55289 0.0
C755 C 0.34993 0.98604 0.54754 0.0
C756 C 0.36059 0.00455 0.55371 0.0
C757 C 0.37757 0.00653 0.51283 0.0
C758 C 0.38769 0.02386 0.5199 0.0
C759 C 0.38087 0.03941 0.56724 0.0
C760 C 0.36388 0.03768 0.60743 0.0
C761 C 0.35372 0.02035 0.60064 0.0
H762 H 0.38873 0.05281 0.57267 0.0
H763 H 0.29023 0.88501 0.49987 0.0
H764 H 0.5378 0.31477 0.29078 0.0
H765 H 0.54511 0.34216 0.36425 0.0
H766 H 0.50334 0.32288 0.51877 0.0
H767 H 0.49566 0.29556 0.44409 0.0
H768 H 0.49795 0.36274 0.49776 0.0
H769 H 0.54936 0.31938 0.53956 0.0
H770 H 0.57715 0.29516 0.5145 0.0
H771 H 0.60574 0.34185 0.40087 0.0
H772 H 0.57804 0.36628 0.42442 0.0
H773 H 0.54912 0.43997 0.68796 0.0
H774 H 0.54908 0.40513 0.64009 0.0
H775 H 0.51967 0.42992 0.48629 0.0
H776 H 0.51939 0.46483 0.53426 0.0
H777 H 0.56013 0.38387 0.5306 0.0
H778 H 0.48597 0.39885 0.45912 0.0
H779 H 0.4577 0.42164 0.49474 0.0
H780 H 0.47354 0.42868 0.68821 0.0
H781 H 0.5018 0.40586 0.65415 0.0
C782 C 0.53052 0.31603 0.34104 0.0
C783 C 0.51611 0.30317 0.3618 0.0
C784 C 0.53477 0.33162 0.38316 0.0
C785 C 0.52482 0.33456 0.44716 0.0
C786 C 0.5112 0.32086 0.46957 0.0
C787 C 0.50693 0.30517 0.42722 0.0
C788 C 0.52714 0.35348 0.48648 0.0
C789 C 0.51153 0.36726 0.5055 0.0
C790 C 0.5448 0.35923 0.49781 0.0
C791 C 0.56156 0.34464 0.48352 0.0
C792 C 0.56153 0.32445 0.50883 0.0
C793 C 0.57728 0.31068 0.49496 0.0
C794 C 0.59319 0.31695 0.45605 0.0
C795 C 0.5934 0.33702 0.43102 0.0
C796 C 0.57769 0.35084 0.44472 0.0
C797 C 0.54292 0.43811 0.64322 0.0
C798 C 0.53395 0.45516 0.61562 0.0
C799 C 0.54286 0.41812 0.61609 0.0
C800 C 0.53378 0.41483 0.56114 0.0
C801 C 0.52627 0.43205 0.52999 0.0
C802 C 0.52624 0.45203 0.55721 0.0
C803 C 0.53105 0.3934 0.53901 0.0
C804 C 0.54655 0.37921 0.52346 0.0
C805 C 0.5132 0.38705 0.53244 0.0
C806 C 0.49607 0.40063 0.55388 0.0
C807 C 0.48337 0.40514 0.50941 0.0
C808 C 0.46736 0.41811 0.52932 0.0
C809 C 0.46383 0.42657 0.59373 0.0
C810 C 0.4763 0.42211 0.63837 0.0
C811 C 0.49233 0.40916 0.61876 0.0
H812 H 0.45143 0.43661 0.60904 0.0
H813 H 0.60537 0.30627 0.44535 0.0
H814 H 0.2336 0.47469 0.24315 0.0
H815 H 0.21149 0.46731 0.33808 0.0
H816 H 0.19478 0.41493 0.2322 0.0
H817 H 0.21657 0.42312 0.13482 0.0
H818 H 0.16791 0.44082 0.25311 0.0
H819 H 0.20482 0.41207 0.40194 0.0
H820 H 0.2318 0.40598 0.46087 0.0
H821 H 0.22178 0.46714 0.54996 0.0
H822 H 0.19494 0.47379 0.49085 0.0
H823 H 0.08714 0.47888 0.46616 0.0
H824 H 0.11326 0.45351 0.43068 0.0
H825 H 0.1514 0.50091 0.44755 0.0
H826 H 0.12532 0.52633 0.48341 0.0
H827 H 0.16407 0.46176 0.48988 0.0
H828 H 0.13683 0.49212 0.30199 0.0
H829 H 0.11092 0.49925 0.23825 0.0
H830 H 0.10426 0.43382 0.22172 0.0
H831 H 0.12999 0.42633 0.28632 0.0
C832 C 0.22594 0.46092 0.24111 0.0
C833 C 0.22641 0.44978 0.18123 0.0
C834 C 0.21328 0.45655 0.29607 0.0
C835 C 0.20114 0.44069 0.2924 0.0
C836 C 0.20381 0.42742 0.236 0.0
C837 C 0.21624 0.43209 0.18035 0.0
C838 C 0.18306 0.44232 0.33662 0.0
C839 C 0.16705 0.44447 0.30564 0.0
C840 C 0.18171 0.44731 0.40515 0.0
C841 C 0.19776 0.4434 0.44186 0.0
C842 C 0.20839 0.42427 0.43388 0.0
C843 C 0.22368 0.42072 0.46735 0.0
C844 C 0.22849 0.43616 0.50915 0.0
C845 C 0.218 0.45517 0.51769 0.0
C846 C 0.20269 0.45882 0.48435 0.0
C847 C 0.10112 0.48386 0.46214 0.0
C848 C 0.10429 0.50462 0.47601 0.0
C849 C 0.11598 0.46932 0.44274 0.0
C850 C 0.13419 0.4754 0.43634 0.0
C851 C 0.13741 0.49592 0.45271 0.0
C852 C 0.12255 0.51045 0.47246 0.0
C853 C 0.14982 0.46134 0.40462 0.0
C854 C 0.16504 0.45694 0.43824 0.0
C855 C 0.15056 0.45419 0.33844 0.0
C856 C 0.13512 0.45869 0.29969 0.0
C857 C 0.12972 0.47927 0.28528 0.0
C858 C 0.11509 0.48337 0.24896 0.0
C859 C 0.10592 0.46699 0.22613 0.0
C860 C 0.11136 0.44648 0.23957 0.0
C861 C 0.12595 0.4423 0.27606 0.0
H862 H 0.09463 0.4702 0.19788 0.0
H863 H 0.24036 0.43339 0.53492 0.0
H864 H 1.00643 0.75197 0.12728 0.0
H865 H 0.02203 0.76492 0.02393 0.0
H866 H 0.06152 0.79244 0.13123 0.0
H867 H 0.0472 0.77779 0.2331 0.0
H868 H 0.0212 0.80159 0.99582 0.0
H869 H 0.09859 0.80697 0.04638 0.0
H870 H 0.12335 0.78347 0.08033 0.0
H871 H 0.09668 0.73056 0.01985 0.0
H872 H 0.07189 0.75371 0.98442 0.0
H873 H 0.07049 0.89337 0.98706 0.0
H874 H 0.07216 0.85616 0.00496 0.0
H875 H 0.05492 0.84526 0.81443 0.0
H876 H 0.05352 0.88272 0.79536 0.0
H877 H 0.08712 0.81741 0.94335 0.0
H878 H 0.02023 0.8115 0.8479 0.0
H879 H 0.99592 0.83358 0.80443 0.0
H880 H 1.00205 0.88232 0.94368 0.0
H881 H 0.02628 0.86045 0.988 0.0
C882 C 0.01894 0.75996 0.12858 0.0
C883 C 0.02533 0.76416 0.18908 0.0
C884 C 0.02778 0.76753 0.06921 0.0
C885 C 0.04299 0.77975 0.06917 0.0
C886 C 0.0501 0.78274 0.12891 0.0
C887 C 0.04157 0.77474 0.18787 0.0
C888 C 0.0493 0.79249 0.01092 0.0
C889 C 0.03573 0.80438 0.98266 0.0
C890 C 0.06823 0.79613 0.99214 0.0
C891 C 0.08332 0.78214 0.01268 0.0
C892 C 0.09807 0.79034 0.03963 0.0
C893 C 0.1121 0.77707 0.05935 0.0
C894 C 0.11158 0.75554 0.05228 0.0
C895 C 0.09704 0.74724 0.02541 0.0
C896 C 0.08298 0.76044 0.00558 0.0
C897 C 0.06776 0.8831 0.94767 0.0
C898 C 0.06149 0.89106 0.89039 0.0
C899 C 0.06878 0.86175 0.95793 0.0
C900 C 0.06344 0.84801 0.91141 0.0
C901 C 0.05898 0.85566 0.85113 0.0
C902 C 0.05798 0.87707 0.84073 0.0
C903 C 0.05894 0.82693 0.93311 0.0
C904 C 0.07278 0.81363 0.95436 0.0
C905 C 0.04033 0.82153 0.94401 0.0
C906 C 0.02517 0.83447 0.92045 0.0
C907 C 0.01631 0.82691 0.86921 0.0
C908 C 1.00257 0.83938 0.84445 0.0
C909 C 0.99749 0.85937 0.87111 0.0
C910 C 1.00602 0.86686 0.92297 0.0
C911 C 0.01975 0.85443 0.94794 0.0
H912 H 0.98692 0.86903 0.8517 0.0
H913 H 0.12245 0.7453 0.06764 0.0
H914 H 0.71184 0.98159 0.14579 0.0
H915 H 0.69446 0.99146 0.05654 0.0
H916 H 0.73212 0.03896 0.99873 0.0
H917 H 0.74935 0.02941 0.09009 0.0
H918 H 0.69836 0.05529 0.01853 0.0
H919 H 0.72728 0.99884 0.88861 0.0
H920 H 0.74055 0.96318 0.85979 0.0
H921 H 0.68666 0.93991 0.90713 0.0
H922 H 0.67308 0.97534 0.93735 0.0
H923 H 0.61873 0.03664 0.79944 0.0
H924 H 0.65168 0.0345 0.81129 0.0
H925 H 0.63739 0.05175 0.01869 0.0
H926 H 0.60466 0.05436 0.0067 0.0
H927 H 0.66811 0.00819 0.87978 0.0
H928 H 0.66974 0.07334 0.08204 0.0
H929 H 0.65749 0.10968 0.1045 0.0
H930 H 0.65308 0.11716 0.89819 0.0
H931 H 0.66556 0.08096 0.87421 0.0
C932 C 0.71668 0.99381 0.11303 0.0
C933 C 0.73178 0.00491 0.12516 0.0
C934 C 0.70685 0.99931 0.06149 0.0
C935 C 0.71204 0.01588 0.02049 0.0
C936 C 0.72793 0.02607 0.02961 0.0
C937 C 0.7378 0.02055 0.08149 0.0
C938 C 0.69906 0.02437 0.97631 0.0
C939 C 0.69196 0.0451 0.98711 0.0
C940 C 0.69112 0.01131 0.93341 0.0
C941 C 0.69916 0.98984 0.91535 0.0
C942 C 0.71826 0.98612 0.8933 0.0
C943 C 0.72584 0.96593 0.87667 0.0
C944 C 0.71445 0.94929 0.88163 0.0
C945 C 0.69546 0.95282 0.90321 0.0
C946 C 0.6878 0.97297 0.91997 0.0
C947 C 0.6227 0.0404 0.8472 0.0
C948 C 0.60914 0.04568 0.90225 0.0
C949 C 0.64151 0.03919 0.85385 0.0
C950 C 0.64707 0.04316 0.91567 0.0
C951 C 0.63354 0.04917 0.97 0.0
C952 C 0.61478 0.05059 0.96322 0.0
C953 C 0.66659 0.03857 0.92633 0.0
C954 C 0.6749 0.0186 0.90916 0.0
C955 C 0.67585 0.05244 0.9623 0.0
C956 C 0.66859 0.07438 0.97633 0.0
C957 C 0.66632 0.08277 0.04131 0.0
C958 C 0.65929 0.10335 0.05435 0.0
C959 C 0.6545 0.11572 0.00282 0.0
C960 C 0.65676 0.10755 0.93809 0.0
C961 C 0.6638 0.08699 0.92475 0.0
H962 H 0.64904 0.13164 0.01304 0.0
H963 H 0.72035 0.93367 0.86873 0.0
H964 H 0.48785 0.71742 0.08305 0.0
H965 H 0.47726 0.69136 0.01019 0.0
H966 H 0.52781 0.65316 0.01612 0.0
H967 H 0.53834 0.67909 0.08773 0.0
H968 H 0.51766 0.65056 0.89695 0.0
H969 H 0.48905 0.64702 0.12648 0.0
H970 H 0.46994 0.6612 0.22893 0.0
H971 H 0.42307 0.67068 0.12477 0.0
H972 H 0.44202 0.6568 0.02142 0.0
H973 H 0.49038 0.5439 0.95071 0.0
H974 H 0.48638 0.57977 0.99439 0.0
H975 H 0.47758 0.60159 0.80142 0.0
H976 H 0.48109 0.56564 0.7583 0.0
H977 H 0.46194 0.61656 -0.0003 0.0
H978 H 0.51222 0.63842 0.76837 0.0
H979 H 0.53681 0.62239 0.68345 0.0
H980 H 0.54572 0.5716 0.81181 0.0
H981 H 0.52173 0.58765 0.89824 0.0
C982 C 0.49686 0.70373 0.06684 0.0
C983 C 0.51384 0.7001 0.09085 0.0
C984 C 0.49077 0.68882 0.02578 0.0
C985 C 0.50165 0.6702 0.00844 0.0
C986 C 0.51919 0.6674 0.02872 0.0
C987 C 0.5252 0.68217 0.06971 0.0
C988 C 0.49439 0.65256 0.97512 0.0
C989 C 0.5052 0.64343 0.91835 0.0
C990 C 0.47839 0.64296 0.00409 0.0
C991 C 0.46699 0.65115 0.06615 0.0
C992 C 0.4747 0.65227 0.12537 0.0
C993 C 0.46391 0.66023 0.18358 0.0
C994 C 0.44532 0.6669 0.18331 0.0
C995 C 0.43748 0.66556 0.12486 0.0
C996 C 0.44824 0.65766 0.06645 0.0
C997 C 0.48651 0.55628 0.91888 0.0
C998 C 0.48568 0.55215 0.85174 0.0
C999 C 0.48431 0.57675 0.94364 0.0
C1000 C 0.48183 0.5933 0.90093 0.0
C1001 C 0.47941 0.58902 0.83514 0.0
C1002 C 0.48128 0.56851 0.81073 0.0
C1003 C 0.48531 0.61457 0.9219 0.0
C1004 C 0.47388 0.62424 0.9764 0.0
C1005 C 0.50114 0.62434 0.89232 0.0
C1006 C 0.51489 0.61404 0.83921 0.0
C1007 C 0.51934 0.62377 0.77824 0.0
C1008 C 0.53323 0.61473 0.72998 0.0
C1009 C 0.54275 0.59597 0.74221 0.0
C1010 C 0.53829 0.58609 0.80238 0.0
C1011 C 0.52455 0.59516 0.851 0.0
H1012 H 0.55375 0.58921 0.70545 0.0
H1013 H 0.43698 0.67305 0.22843 0.0
H1014 H 0.80883 0.58107 0.29958 0.0
H1015 H 0.82581 0.59053 0.19286 0.0
H1016 H 0.81184 0.53327 0.10544 0.0
H1017 H 0.79393 0.5249 0.20951 0.0
H1018 H 0.85481 0.57109 0.15571 0.0
H1019 H 0.82247 0.52536 0.95059 0.0
H1020 H 0.79252 0.52546 0.90861 0.0
H1021 H 0.77741 0.58686 0.99123 0.0
H1022 H 0.80742 0.58735 0.03283 0.0
H1023 H 0.89982 0.48536 0.95205 0.0
H1024 H 0.87131 0.50777 0.97883 0.0
H1025 H 0.90264 0.56206 0.94922 0.0
H1026 H 0.93125 0.5397 0.92199 0.0
H1027 H 0.85109 0.5426 0.93132 0.0
H1028 H 0.88725 0.59267 0.09651 0.0
H1029 H 0.91622 0.59359 0.14537 0.0
H1030 H 0.92137 0.52686 0.14575 0.0
H1031 H 0.89211 0.52559 0.09918 0.0
C1032 C 0.80868 0.57116 0.25633 0.0
C1033 C 0.80031 0.5522 0.26244 0.0
C1034 C 0.81837 0.57652 0.19539 0.0
C1035 C 0.82039 0.56258 0.1406 0.0
C1036 C 0.81032 0.54468 0.14562 0.0
C1037 C 0.80018 0.5397 0.20577 0.0
C1038 C 0.83633 0.56341 0.08651 0.0
C1039 C 0.8538 0.56583 0.10567 0.0
C1040 C 0.83533 0.55657 0.02077 0.0
C1041 C 0.81731 0.55641 0.99484 0.0
C1042 C 0.8129 0.53901 0.95923 0.0
C1043 C 0.79585 0.53893 0.93567 0.0
C1044 C 0.78307 0.55615 0.94724 0.0
C1045 C 0.78732 0.57351 0.98238 0.0
C1046 C 0.80434 0.57369 0.00606 0.0
C1047 C 0.90056 0.50206 0.94939 0.0
C1048 C 0.91774 0.51084 0.93723 0.0
C1049 C 0.88427 0.51485 0.96412 0.0
C1050 C 0.88498 0.53655 0.96699 0.0
C1051 C 0.90189 0.54536 0.94797 0.0
C1052 C 0.91819 0.53258 0.93337 0.0
C1053 C 0.86895 0.54915 0.00298 0.0
C1054 C 0.85174 0.54916 0.98012 0.0
C1055 C 0.87009 0.5586 0.06515 0.0
C1056 C 0.88773 0.55906 0.09299 0.0
C1057 C 0.89457 0.57821 0.10715 0.0
C1058 C 0.91096 0.57879 0.13488 0.0
C1059 C 0.92069 0.56029 0.14832 0.0
C1060 C 0.91389 0.54118 0.13494 0.0
C1061 C 0.89737 0.54052 0.10807 0.0
H1062 H 0.93346 0.56078 0.1692 0.0
H1063 H 0.76987 0.55604 0.929 0.0
H1064 H 1.00436 0.2349 0.04537 0.0
H1065 H 0.99916 0.20248 0.98824 0.0
H1066 H 0.05709 0.19556 0.90671 0.0
H1067 H 0.06225 0.22789 0.96355 0.0
H1068 H 0.03574 0.18043 0.81908 0.0
H1069 H 0.04261 0.17372 0.04833 0.0
H1070 H 0.03466 0.18341 0.16687 0.0
H1071 H 0.9798 0.16342 0.16693 0.0
H1072 H 0.98721 0.15426 0.04764 0.0
H1073 H 0.03109 0.06077 0.89632 0.0
H1074 H 0.03442 0.09665 0.93113 0.0
H1075 H 1.0057 0.11909 0.77244 0.0
H1076 H 1.00321 0.08335 0.73563 0.0
H1077 H 0.01304 0.12707 0.9782 0.0
H1078 H 0.01758 0.16696 0.72325 0.0
H1079 H 0.02816 0.15834 0.60488 0.0
H1080 H 0.06627 0.11007 0.65847 0.0
H1081 H 0.05613 0.11859 0.77698 0.0
C1082 C 0.01579 0.22693 0.01294 0.0
C1083 C 0.03368 0.23406 0.00852 0.0
C1084 C 0.01287 0.20824 0.98089 0.0
C1085 C 0.02779 0.1963 0.94385 0.0
C1086 C 0.04534 0.20438 0.93485 0.0
C1087 C 0.04827 0.22294 0.96716 0.0
C1088 C 0.02569 0.17447 0.92107 0.0
C1089 C 0.03062 0.16879 0.8537 0.0
C1090 C 0.0196 0.15901 0.9664 0.0
C1091 C 0.01538 0.16358 0.03879 0.0
C1092 C 0.0288 0.17153 0.07347 0.0
C1093 C 0.02438 0.17698 0.14075 0.0
C1094 C 1.0067 0.17417 0.1743 0.0
C1095 C 0.99345 0.16572 0.14073 0.0
C1096 C 0.99774 0.16043 0.07324 0.0
C1097 C 0.02556 0.07335 0.86864 0.0
C1098 C 0.01703 0.06908 0.81276 0.0
C1099 C 0.02743 0.09395 0.88872 0.0
C1100 C 0.02063 0.11087 0.85398 0.0
C1101 C 0.01162 0.10655 0.79924 0.0
C1102 C 0.01008 0.08598 0.77839 0.0
C1103 C 0.02278 0.1329 0.87553 0.0
C1104 C 0.01797 0.13865 0.94304 0.0
C1105 C 0.02943 0.14827 0.83039 0.0
C1106 C 0.03592 0.14327 0.7591 0.0
C1107 C 0.02828 0.15457 0.70976 0.0
C1108 C 0.03419 0.14969 0.64262 0.0
C1109 C 0.04782 0.1336 0.62415 0.0
C1110 C 0.05565 0.12246 0.67279 0.0
C1111 C 0.04982 0.1273 0.73997 0.0
H1112 H 0.05233 0.12981 0.57217 0.0
H1113 H 1.00333 0.17835 0.22645 0.0
H1114 H 0.30043 0.04021 0.10999 0.0
H1115 H 0.32943 0.04302 0.03308 0.0
H1116 H 0.34421 0.97803 0.0584 0.0
H1117 H 0.31519 0.9751 0.13146 0.0
H1118 H 0.36317 0.04089 0.0467 0.0
H1119 H 0.37466 0.95557 0.93924 0.0
H1120 H 0.35629 0.92865 0.89885 0.0
H1121 H 0.31453 0.97549 0.86282 0.0
H1122 H 0.33274 0.00272 0.90217 0.0
H1123 H 0.45961 0.02124 0.93396 0.0
H1124 H 0.42738 0.02212 0.98749 0.0
H1125 H 0.41044 0.00466 0.80119 0.0
H1126 H 0.44282 0.00231 0.74919 0.0
H1127 H 0.39053 0.98634 0.88107 0.0
H1128 H 0.40245 0.05749 0.88677 0.0
H1129 H 0.41871 0.08862 0.90843 0.0
H1130 H 0.40993 0.0771 0.11727 0.0
H1131 H 0.39381 0.04575 0.09679 0.0
C1132 C 0.30956 0.02639 0.09697 0.0
C1133 C 0.30524 0.00737 0.12658 0.0
C1134 C 0.32638 0.02803 0.05365 0.0
C1135 C 0.33934 0.01071 0.03862 0.0
C1136 C 0.3346 0.99164 0.06681 0.0
C1137 C 0.31785 0.98997 0.10919 0.0
C1138 C 0.3582 0.01254 0.99725 0.0
C1139 C 0.36905 0.02895 0.01032 0.0
C1140 C 0.36608 0.9975 0.94769 0.0
C1141 C 0.355 0.98117 0.9243 0.0
C1142 C 0.36158 0.96013 0.92253 0.0
C1143 C 0.35119 0.94482 0.89984 0.0
C1144 C 0.33423 0.95035 0.87848 0.0
C1145 C 0.32764 0.97122 0.87964 0.0
C1146 C 0.33797 0.98659 0.90225 0.0
C1147 C 0.449 0.01772 0.90428 0.0
C1148 C 0.45397 0.01178 0.83697 0.0
C1149 C 0.43037 0.01839 0.93496 0.0
C1150 C 0.41591 0.0139 0.89888 0.0
C1151 C 0.42097 0.00818 0.83123 0.0
C1152 C 0.43963 0.00693 0.80109 0.0
C1153 C 0.39578 0.01441 0.93168 0.0
C1154 C 0.38468 0.99838 0.91713 0.0
C1155 C 0.3874 0.03034 0.9775 0.0
C1156 C 0.39707 0.04917 0.99016 0.0
C1157 C 0.40409 0.06153 0.93728 0.0
C1158 C 0.41327 0.07922 0.94935 0.0
C1159 C 0.41539 0.08481 0.01417 0.0
C1160 C 0.4083 0.07274 0.06708 0.0
C1161 C 0.39912 0.05502 0.05528 0.0
H1162 H 0.4225 0.09851 0.02341 0.0
H1163 H 0.32621 0.93847 0.8609 0.0
H1164 H 0.52019 0.29194 0.08884 0.0
H1165 H 0.51869 0.32085 0.01227 0.0
H1166 H 0.46509 0.34227 0.11711 0.0
H1167 H 0.46672 0.31348 0.19385 0.0
H1168 H 0.49688 0.33922 0.92757 0.0
H1169 H 0.46607 0.39444 0.14858 0.0
H1170 H 0.46441 0.39593 0.27044 0.0
H1171 H 0.51453 0.35633 0.25678 0.0
H1172 H 0.51663 0.35486 0.13492 0.0
H1173 H 0.47996 0.4401 0.79988 0.0
H1174 H 0.47684 0.40714 0.85691 0.0
H1175 H 0.51852 0.42277 0.97563 0.0
H1176 H 0.52148 0.45585 0.91976 0.0
H1177 H 0.49266 0.40653 0.05159 0.0
H1178 H 0.52808 0.38579 0.84268 0.0
H1179 H 0.53651 0.38139 0.72154 0.0
H1180 H 0.48643 0.3512 0.71022 0.0
H1181 H 0.47775 0.35526 0.83161 0.0
C1182 C 0.5077 0.30222 0.09326 0.0
C1183 C 0.49342 0.3003 0.14639 0.0
C1184 C 0.5069 0.31886 0.0499 0.0
C1185 C 0.49192 0.33397 0.05958 0.0
C1186 C 0.47688 0.33094 0.10901 0.0
C1187 C 0.47769 0.31433 0.1523 0.0
C1188 C 0.49311 0.35405 0.0242 0.0
C1189 C 0.49575 0.35397 0.9546 0.0
C1190 C 0.49235 0.37328 0.05936 0.0
C1191 C 0.49136 0.37435 0.13265 0.0
C1192 C 0.47676 0.38611 0.17159 0.0
C1193 C 0.47575 0.38694 0.24066 0.0
C1194 C 0.48932 0.37616 0.27134 0.0
C1195 C 0.50399 0.36461 0.23299 0.0
C1196 C 0.50508 0.36375 0.16392 0.0
C1197 C 0.48842 0.4366 0.83833 0.0
C1198 C 0.50098 0.45076 0.85503 0.0
C1199 C 0.48671 0.41761 0.87066 0.0
C1200 C 0.49762 0.4122 0.92019 0.0
C1201 C 0.50991 0.42648 0.93772 0.0
C1202 C 0.51158 0.44548 0.90561 0.0
C1203 C 0.49611 0.39187 0.95448 0.0
C1204 C 0.49347 0.39188 0.02421 0.0
C1205 C 0.49753 0.37255 0.91932 0.0
C1206 C 0.50219 0.37101 0.84609 0.0
C1207 C 0.51876 0.37842 0.81427 0.0
C1208 C 0.52362 0.37591 0.7456 0.0
C1209 C 0.51201 0.36605 0.70819 0.0
C1210 C 0.49543 0.3588 0.73931 0.0
C1211 C 0.49056 0.36114 0.80806 0.0
H1212 H 0.51588 0.36397 0.65514 0.0
H1213 H 0.48849 0.37681 0.32481 0.0
H1214 H 0.20684 0.51503 -0.0004 0.0
H1215 H 0.17813 0.51999 0.94986 0.0
H1216 H 0.18198 0.45476 0.89645 0.0
H1217 H 0.2106 0.4499 0.94545 0.0
H1218 H 0.16828 0.4756 0.802 0.0
H1219 H 0.15423 0.47402 0.03657 0.0
H1220 H 0.15576 0.48407 0.15265 0.0
H1221 H 0.13369 0.54579 0.11883 0.0
H1222 H 0.13236 0.5362 0.002 0.0
H1223 H 0.06994 0.46471 0.79563 0.0
H1224 H 0.10097 0.46174 0.82992 0.0
H1225 H 0.10229 0.52841 0.82967 0.0
H1226 H 0.07169 0.53148 0.79345 0.0
H1227 H 0.11327 0.50721 0.94944 0.0
H1228 H 0.12572 0.50497 0.71028 0.0
H1229 H 0.12255 0.49096 0.59988 0.0
H1230 H 0.14663 0.4316 0.64855 0.0
H1231 H 0.14935 0.44505 0.76041 0.0
C1232 C 0.20189 0.50192 0.97525 0.0
C1233 C 0.21117 0.4821 0.97602 0.0
C1234 C 0.18527 0.50468 0.94759 0.0
C1235 C 0.1775 0.48768 0.92008 0.0
C1236 C 0.18747 0.46818 0.91718 0.0
C1237 C 0.20395 0.46542 0.94507 0.0
C1238 C 0.15858 0.48981 0.89808 0.0
C1239 C 0.15628 0.48241 0.8346 0.0
C1240 C 0.14267 0.49859 0.94012 0.0
C1241 C 0.14343 0.50447 0.01027 0.0
C1242 C 0.14987 0.4898 0.05368 0.0
C1243 C 0.15069 0.4954 0.11963 0.0
C1244 C 0.14489 0.51558 0.14303 0.0
C1245 C 0.13823 0.53018 0.10055 0.0
C1246 C 0.13745 0.52467 0.03444 0.0
C1247 C 0.07684 0.47875 0.80278 0.0
C1248 C 0.06822 0.49833 0.79148 0.0
C1249 C 0.09462 0.47703 0.82237 0.0
C1250 C 0.10408 0.49486 0.8326 0.0
C1251 C 0.09537 0.51441 0.82236 0.0
C1252 C 0.07783 0.51611 0.80129 0.0
C1253 C 0.12308 0.49322 0.85336 0.0
C1254 C 0.12534 0.50059 0.91676 0.0
C1255 C 0.13884 0.48396 0.81184 0.0
C1256 C 0.1375 0.47595 0.74417 0.0
C1257 C 0.13015 0.48886 0.69782 0.0
C1258 C 0.12846 0.48102 0.63485 0.0
C1259 C 0.13436 0.46039 0.61717 0.0
C1260 C 0.14202 0.44756 0.66239 0.0
C1261 C 0.1436 0.45528 0.72565 0.0
H1262 H 0.133 0.45433 0.56847 0.0
H1263 H 0.14549 0.51988 0.19417 0.0
H1264 H 0.02795 0.78506 0.42924 0.0
H1265 H 0.02657 0.81637 0.49983 0.0
H1266 H 0.9681 0.82647 0.49036 0.0
H1267 H 0.96942 0.79486 0.42035 0.0
H1268 H 0.98812 0.86093 0.45327 0.0
H1269 H 0.98223 0.8139 0.63434 0.0
H1270 H 0.9908 0.78365 0.69908 0.0
H1271 H 0.04303 0.80836 0.71679 0.0
H1272 H 0.03491 0.83862 0.65134 0.0
H1273 H 0.97646 0.9529 0.65217 0.0
H1274 H 0.97333 0.91803 0.60874 0.0
H1275 H 0.02845 0.89904 0.64741 0.0
H1276 H 0.03133 0.93369 0.69354 0.0
H1277 H 1.00834 0.86835 0.67403 0.0
H1278 H 0.01737 0.91228 0.48649 0.0
H1279 H 0.01123 0.94249 0.41792 0.0
H1280 H 0.95656 0.92348 0.40614 0.0
H1281 H 0.9623 0.89328 0.47541 0.0
C1282 C 0.01469 0.79364 0.44383 0.0
C1283 C 0.99875 0.78739 0.41972 0.0
C1284 C 0.01392 0.81157 0.48417 0.0
C1285 C 0.99723 0.82387 0.50072 0.0
C1286 C 0.98113 0.81725 0.47856 0.0
C1287 C 0.98185 0.79909 0.439 0.0
C1288 C 0.99702 0.8445 0.5356 0.0
C1289 C 0.9922 0.86251 0.50213 0.0
C1290 C 1.00305 0.84672 0.59828 0.0
C1291 C 1.00804 0.82841 0.63712 0.0
C1292 C 0.99564 0.81277 0.65133 0.0
C1293 C 1.0004 0.79564 0.68831 0.0
C1294 C 0.0175 0.79402 0.71166 0.0
C1295 C 0.02984 0.80957 0.6983 0.0
C1296 C 0.02515 0.82674 0.66138 0.0
C1297 C 0.98792 0.94132 0.65163 0.0
C1298 C 1.00424 0.94628 0.67572 0.0
C1299 C 0.98615 0.92132 0.62634 0.0
C1300 C 1.00081 0.90582 0.62299 0.0
C1301 C 0.01692 0.9106 0.64885 0.0
C1302 C 0.0186 0.93053 0.67504 0.0
C1303 C 0.9995 0.88485 0.59153 0.0
C1304 C 1.00412 0.86679 0.62539 0.0
C1305 C 0.99369 0.88254 0.52844 0.0
C1306 C 0.99019 0.90066 0.48673 0.0
C1307 C 1.00399 0.91463 0.46967 0.0
C1308 C 1.00059 0.93173 0.43063 0.0
C1309 C 0.9835 0.93493 0.40785 0.0
C1310 C 0.96978 0.921 0.42393 0.0
C1311 C 0.97311 0.90388 0.46304 0.0
H1312 H 0.98089 0.94818 0.37762 0.0
H1313 H 0.02113 0.78078 0.74045 0.0
H1314 H 0.72135 0.96786 0.38791 0.0
H1315 H 0.69115 0.96712 0.45912 0.0
H1316 H 0.68045 0.03263 0.4301 0.0
H1317 H 0.71045 0.03333 0.35935 0.0
H1318 H 0.67087 0.98722 0.57393 0.0
H1319 H 0.63591 0.04062 0.39569 0.0
H1320 H 0.64171 0.05107 0.27888 0.0
H1321 H 0.67291 0.99297 0.22583 0.0
H1322 H 0.66694 0.98199 0.34195 0.0
H1323 H 0.57791 0.01568 0.72314 0.0
H1324 H 0.60999 0.01534 0.66937 0.0
H1325 H 0.59565 0.98251 0.5003 0.0
H1326 H 0.56328 0.98343 0.55339 0.0
H1327 H 0.61836 0.009 0.45484 0.0
H1328 H 0.62115 0.95884 0.62592 0.0
H1329 H 0.61579 0.94636 0.74055 0.0
H1330 H 0.64902 0.99318 0.80325 0.0
H1331 H 0.65441 0.00614 0.68917 0.0
C1332 C 0.71292 0.98227 0.39924 0.0
C1333 C 0.71858 1.00075 0.36888 0.0
C1334 C 0.6955 0.98182 0.43951 0.0
C1335 C 0.68319 0.99976 0.44962 0.0
C1336 C 0.68944 0.01848 0.42296 0.0
C1337 C 0.70678 0.01894 0.38307 0.0
C1338 C 0.66332 0.99868 0.48214 0.0
C1339 C 0.65941 0.99205 0.54788 0.0
C1340 C 0.64813 0.00451 0.4483 0.0
C1341 C 0.65111 0.01059 0.37773 0.0
C1342 C 0.64387 0.03001 0.35901 0.0
C1343 C 0.6472 0.03603 0.29291 0.0
C1344 C 0.65772 0.02272 0.245 0.0
C1345 C 0.6648 0.00329 0.26299 0.0
C1346 C 0.66143 0.99716 0.32894 0.0
C1347 C 0.58152 0.00822 0.67474 0.0
C1348 C 0.56779 0.9994 0.64332 0.0
C1349 C 0.60007 0.00796 0.64381 0.0
C1350 C 0.60571 0.99852 0.58067 0.0
C1351 C 0.59196 0.98988 0.5489 0.0
C1352 C 0.57333 0.99034 0.57958 0.0
C1353 C 0.62575 0.99794 0.54753 0.0
C1354 C 0.62973 0.00423 0.48131 0.0
C1355 C 0.64098 0.9915 0.58069 0.0
C1356 C 0.63808 0.98353 0.64906 0.0
C1357 C 0.62726 0.96652 0.66422 0.0
C1358 C 0.62421 0.95938 0.72909 0.0
C1359 C 0.63203 0.96902 0.77917 0.0
C1360 C 0.64297 0.98577 0.76441 0.0
C1361 C 0.64605 0.993 0.69964 0.0
H1362 H 0.62964 0.96349 0.82938 0.0
H1363 H 0.66035 0.02745 0.19393 0.0
H1364 H 0.49853 0.69952 0.34401 0.0
H1365 H 0.5019 0.67262 0.42551 0.0
H1366 H 0.56133 0.67533 0.3888 0.0
H1367 H 0.55785 0.70229 0.30619 0.0
H1368 H 0.55246 0.63638 0.37916 0.0
H1369 H 0.53608 0.6901 0.54186 0.0
H1370 H 0.51838 0.72072 0.59863 0.0
H1371 H 0.46976 0.6863 0.63399 0.0
H1372 H 0.48707 0.65555 0.57656 0.0
H1373 H 0.55533 0.55355 0.61488 0.0
H1374 H 0.55998 0.5866 0.55813 0.0
H1375 H 0.50082 0.59771 0.56625 0.0
H1376 H 0.4961 0.56522 0.6231 0.0
H1377 H 0.51486 0.63192 0.60061 0.0
H1378 H 0.53066 0.58046 0.42156 0.0
H1379 H 0.54851 0.54996 0.36435 0.0
H1380 H 0.59894 0.58069 0.36197 0.0
H1381 H 0.58139 0.6113 0.41987 0.0
C1382 C 0.51225 0.69496 0.35536 0.0
C1383 C 0.5279 0.70327 0.31993 0.0
C1384 C 0.51421 0.6795 0.40183 0.0
C1385 C 0.53188 0.67193 0.41396 0.0
C1386 C 0.54754 0.68093 0.38066 0.0
C1387 C 0.54556 0.69651 0.33414 0.0
C1388 C 0.53383 0.65332 0.4561 0.0
C1389 C 0.54459 0.6356 0.42833 0.0
C1390 C 0.5234 0.65205 0.51995 0.0
C1391 C 0.51287 0.67053 0.55445 0.0
C1392 C 0.52157 0.68909 0.56126 0.0
C1393 C 0.51161 0.70647 0.59365 0.0
C1394 C 0.49295 0.70547 0.6198 0.0
C1395 C 0.48421 0.68706 0.6137 0.0
C1396 C 0.49411 0.66964 0.5813 0.0
C1397 C 0.54334 0.56301 0.60423 0.0
C1398 C 0.52536 0.55658 0.62329 0.0
C1399 C 0.54601 0.58188 0.57153 0.0
C1400 C 0.53075 0.5947 0.55741 0.0
C1401 C 0.51285 0.58824 0.5766 0.0
C1402 C 0.51019 0.56946 0.60878 0.0
C1403 C 0.53305 0.61488 0.52289 0.0
C1404 C 0.52305 0.63287 0.55209 0.0
C1405 C 0.54424 0.61641 0.46056 0.0
C1406 C 0.55475 0.59804 0.42573 0.0
C1407 C 0.54558 0.58064 0.40928 0.0
C1408 C 0.55563 0.56335 0.37665 0.0
C1409 C 0.57485 0.56336 0.35973 0.0
C1410 C 0.58405 0.58069 0.37523 0.0
C1411 C 0.57406 0.59801 0.40792 0.0
H1412 H 0.58262 0.54996 0.33447 0.0
H1413 H 0.48526 0.71894 0.64488 0.0
H1414 H 0.8424 0.51809 0.37369 0.0
H1415 H 0.86918 0.5146 0.43123 0.0
H1416 H 0.83345 0.51887 0.61938 0.0
H1417 H 0.80621 0.52379 0.56097 0.0
H1418 H 0.86186 0.54002 0.63161 0.0
H1419 H 0.85823 0.47155 0.55206 0.0
H1420 H 0.85514 0.4431 0.47322 0.0
H1421 H 0.90543 0.45817 0.35268 0.0
H1422 H 0.90869 0.48692 0.43022 0.0
H1423 H 0.94468 0.51128 0.78028 0.0
H1424 H 0.91389 0.51126 0.74525 0.0
H1425 H 0.93853 0.51779 0.54199 0.0
H1426 H 0.9692 0.51781 0.57648 0.0
H1427 H 0.91367 0.48792 0.55284 0.0
H1428 H 0.9148 0.55868 0.63664 0.0
H1429 H 0.91794 0.58438 0.72434 0.0
H1430 H 0.87145 0.5614 0.84799 0.0
H1431 H 0.86829 0.53516 0.76176 0.0
C1432 C 0.84006 0.51843 0.42739 0.0
C1433 C 0.82192 0.52155 0.46229 0.0
C1434 C 0.85556 0.51609 0.46058 0.0
C1435 C 0.85365 0.51611 0.53024 0.0
C1436 C 0.83552 0.51874 0.56568 0.0
C1437 C 0.81986 0.52133 0.53217 0.0
C1438 C 0.87071 0.51393 0.56462 0.0
C1439 C 0.87299 0.52834 0.61501 0.0
C1440 C 0.88553 0.49876 0.54384 0.0
C1441 C 0.88362 0.48152 0.49678 0.0
C1442 C 0.86855 0.46891 0.50848 0.0
C1443 C 0.86678 0.45271 0.46404 0.0
C1444 C 0.88005 0.44886 0.40791 0.0
C1445 C 0.89515 0.46118 0.39616 0.0
C1446 C 0.89698 0.47742 0.44038 0.0
C1447 C 0.94355 0.51282 0.72813 0.0
C1448 C 0.95957 0.51463 0.68137 0.0
C1449 C 0.92586 0.51285 0.7081 0.0
C1450 C 0.92369 0.51463 0.64072 0.0
C1451 C 0.93968 0.51639 0.59419 0.0
C1452 C 0.95729 0.51652 0.61416 0.0
C1453 C 0.90499 0.51439 0.61772 0.0
C1454 C 0.90241 0.49946 0.56962 0.0
C1455 C 0.88984 0.52874 0.64174 0.0
C1456 C 0.89144 0.54482 0.69296 0.0
C1457 C 0.90533 0.559 0.68275 0.0
C1458 C 0.90713 0.57363 0.73225 0.0
C1459 C 0.89497 0.57442 0.7919 0.0
C1460 C 0.88092 0.56065 0.80198 0.0
C1461 C 0.87912 0.54589 0.75281 0.0
H1462 H 0.89639 0.58573 0.83024 0.0
H1463 H 0.87866 0.43631 0.37359 0.0
loop_
_geom_bond_atom_site_label_1
_geom_bond_atom_site_label_2
_geom_bond_distance
_geom_bond_site_symmetry_2
_ccdc_geom_bond_type
H0 C7 0.929 . S
H1 C10 0.930 . S
H2 C12 0.929 . S
H3 C4 0.969 . S
C4 H3 0.969 . S
C4 O5 1.550 . S
C4 H6 0.973 . S
O5 C4 1.550 . S
O5 C11 1.412 . S
H6 C4 0.973 . S
C7 H0 0.929 . S
C7 C8 1.400 . S
C7 C9 1.364 . S
C8 C7 1.400 . S
C8 C12 1.377 . S
C9 C7 1.364 . S
C9 C10 1.374 . S
C10 H1 0.930 . S
C10 C9 1.374 . S
C10 C11 1.383 . S
C11 O5 1.412 . S
C11 C10 1.383 . S
C11 C12 1.394 . S
C12 H2 0.929 . S
C12 C8 1.377 . S
C12 C11 1.394 . S
H13 C20 0.929 . S
H14 C23 0.930 . S
H15 C25 0.929 . S
H16 C17 0.969 1_455 S
C17 H16 0.969 1_655 S
C17 O18 1.550 . S
C17 H19 0.973 . S
O18 C17 1.550 . S
O18 C24 1.412 . S
H19 C17 0.973 . S
C20 H13 0.929 . S
C20 C21 1.400 . S
C20 C22 1.364 . S
C21 C20 1.400 . S
C21 C25 1.377 . S
C22 C20 1.364 . S
C22 C23 1.374 . S
C23 H14 0.930 . S
C23 C22 1.374 . S
C23 C24 1.383 . S
C24 O18 1.412 . S
C24 C23 1.383 . S
C24 C25 1.394 . S
C25 H15 0.929 . S
C25 C21 1.377 . S
C25 C24 1.394 . S
H26 C33 0.929 . S
H27 C36 0.930 . S
H28 C38 0.929 . S
H29 C30 0.969 . S
C30 H29 0.969 . S
C30 O31 1.550 1_545 S
C30 H32 0.973 1_545 S
O31 C30 1.550 1_565 S
O31 C37 1.420 . S
H32 C30 0.973 1_565 S
C33 H26 0.929 . S
C33 C34 1.402 . S
C33 C35 1.364 . S
C34 C33 1.402 . S
C34 C38 1.375 . S
C35 C33 1.364 . S
C35 C36 1.374 . S
C36 H27 0.930 . S
C36 C35 1.374 . S
C36 C37 1.385 . S
C37 O31 1.420 . S
C37 C36 1.385 . S
C37 C38 1.397 . S
C38 H28 0.929 . S
C38 C34 1.375 . S
C38 C37 1.397 . S
H39 C46 0.929 . S
H40 C49 0.930 . S
H41 C51 0.929 . S
H42 C43 0.969 . S
C43 H42 0.969 . S
C43 O44 1.550 . S
C43 H45 0.973 . S
O44 C43 1.550 . S
O44 C50 1.412 . S
H45 C43 0.973 . S
C46 H39 0.929 . S
C46 C47 1.400 . S
C46 C48 1.364 . S
C47 C46 1.400 . S
C47 C51 1.377 . S
C48 C46 1.364 . S
C48 C49 1.374 . S
C49 H40 0.930 . S
C49 C48 1.374 . S
C49 C50 1.383 . S
C50 O44 1.412 . S
C50 C49 1.383 . S
C50 C51 1.394 . S
C51 H41 0.929 . S
C51 C47 1.377 . S
C51 C50 1.394 . S
H52 C59 0.929 . S
H53 C62 0.930 . S
H54 C64 0.929 . S
H55 C56 0.969 . S
C56 H55 0.969 . S
C56 O57 1.550 1_554 S
C56 H58 0.973 . S
O57 C56 1.550 1_556 S
O57 C63 1.412 . S
H58 C56 0.973 . S
C59 H52 0.929 . S
C59 C60 1.400 . S
C59 C61 1.364 1_556 S
C60 C59 1.400 . S
C60 C64 1.377 . S
C61 C59 1.364 1_554 S
C61 C62 1.374 . S
C62 H53 0.930 . S
C62 C61 1.374 . S
C62 C63 1.383 1_554 S
C63 O57 1.412 . S
C63 C62 1.383 1_556 S
C63 C64 1.394 . S
C64 H54 0.929 . S
C64 C60 1.377 . S
C64 C63 1.394 . S
H65 C72 0.929 . S
H66 C75 0.930 . S
H67 C77 0.929 . S
H68 C69 0.969 . S
C69 H68 0.969 . S
C69 O70 1.550 . S
C69 H71 0.973 . S
O70 C69 1.550 . S
O70 C76 1.412 . S
H71 C69 0.973 . S
C72 H65 0.929 . S
C72 C73 1.400 . S
C72 C74 1.364 . S
C73 C72 1.400 . S
C73 C77 1.377 . S
C74 C72 1.364 . S
C74 C75 1.374 . S
C75 H66 0.930 . S
C75 C74 1.374 . S
C75 C76 1.383 . S
C76 O70 1.412 . S
C76 C75 1.383 . S
C76 C77 1.394 . S
C77 H67 0.929 . S
C77 C73 1.377 . S
C77 C76 1.394 . S
H78 C85 0.929 . S
H79 C88 0.930 . S
H80 C90 0.929 . S
H81 C82 0.969 . S
C82 H81 0.969 . S
C82 O83 1.550 . S
C82 H84 0.973 . S
O83 C82 1.550 . S
O83 C89 1.412 . S
H84 C82 0.973 . S
C85 H78 0.929 . S
C85 C86 1.400 . S
C85 C87 1.364 . S
C86 C85 1.400 . S
C86 C90 1.377 . S
C87 C85 1.364 . S
C87 C88 1.374 . S
C88 H79 0.930 . S
C88 C87 1.374 . S
C88 C89 1.383 . S
C89 O83 1.412 . S
C89 C88 1.383 . S
C89 C90 1.394 . S
C90 H80 0.929 . S
C90 C86 1.377 . S
C90 C89 1.394 . S
H91 C98 0.929 . S
H92 C101 0.930 . S
H93 C103 0.929 . S
H94 C95 0.969 . S
C95 H94 0.969 . S
C95 O96 1.550 . S
C95 H97 0.973 . S
O96 C95 1.550 . S
O96 C102 1.412 . S
H97 C95 0.973 . S
C98 H91 0.929 . S
C98 C99 1.400 . S
C98 C100 1.364 . S
C99 C98 1.400 . S
C99 C103 1.377 . S
C100 C98 1.364 . S
C100 C101 1.374 . S
C101 H92 0.930 . S
C101 C100 1.374 . S
C101 C102 1.383 . S
C102 O96 1.412 . S
C102 C101 1.383 . S
C102 C103 1.394 . S
C103 H93 0.929 . S
C103 C99 1.377 . S
C103 C102 1.394 . S
Dy104 O107 2.307 1_545 S
Dy104 O109 2.395 1_655 S
Dy104 O110 2.379 . S
Dy104 O112 2.339 . S
Dy104 O114 2.298 1_655 S
Dy104 O118 2.275 1_655 S
Dy104 C126 2.738 . S
Dy105 O108 2.298 . S
Dy105 O111 2.277 1_465 S
Dy105 O113 2.307 1_565 S
Dy105 O115 2.412 . S
Dy105 O116 2.379 . S
Dy105 O119 2.339 . S
Dy105 C135 2.738 . S
C106 O118 1.261 . S
C106 O119 1.241 1_545 S
O107 Dy104 2.307 1_565 S
O107 C117 1.266 1_655 S
O108 Dy105 2.298 . S
O108 C117 1.236 . S
O109 Dy104 2.395 1_455 S
O109 C126 1.255 1_455 S
O110 Dy104 2.379 . S
O110 C126 1.249 . S
O111 Dy105 2.277 1_645 S
O111 C127 1.253 . S
O112 Dy104 2.339 . S
O112 C127 1.257 . S
O113 Dy105 2.307 1_545 S
O113 C128 1.266 . S
O114 Dy104 2.298 1_455 S
O114 C128 1.236 . S
O115 Dy105 2.412 . S
O115 C135 1.288 . S
O116 Dy105 2.379 . S
O116 C135 1.249 . S
C117 O107 1.266 1_455 S
C117 O108 1.236 . S
O118 Dy104 2.275 1_455 S
O118 C106 1.261 . S
O119 Dy105 2.339 . S
O119 C106 1.241 1_565 S
C120 C123 1.344 1_655 S
C120 C124 1.328 . S
C120 C126 1.516 . S
C121 C122 1.304 1_655 S
C121 C125 1.323 . S
C122 C121 1.304 1_455 S
C122 C123 1.371 . S
C122 H136 0.930 . S
C123 C120 1.344 1_455 S
C123 C122 1.371 . S
C123 H137 0.931 . S
C124 C120 1.328 . S
C124 C125 1.433 . S
C124 H138 0.931 . S
C125 C121 1.323 . S
C125 C124 1.433 . S
C125 H139 0.933 . S
C126 Dy104 2.738 . S
C126 O109 1.255 1_655 S
C126 O110 1.249 . S
C126 C120 1.516 . S
C127 O111 1.253 . S
C127 O112 1.257 . S
C128 O113 1.266 . S
C128 O114 1.236 . S
C129 C132 1.336 1_455 S
C129 C133 1.328 . S
C129 C135 1.516 . S
C130 C131 1.292 1_455 S
C130 C134 1.323 . S
C131 C130 1.292 1_655 S
C131 C132 1.371 . S
C131 H140 0.943 . S
C132 C129 1.336 1_655 S
C132 C131 1.371 . S
C132 H141 0.939 . S
C133 C129 1.328 . S
C133 C134 1.433 . S
C133 H142 0.931 . S
C134 C130 1.323 . S
C134 C133 1.433 . S
C134 H143 0.933 . S
C135 Dy105 2.738 . S
C135 O115 1.288 . S
C135 O116 1.249 . S
C135 C129 1.516 . S
H136 C122 0.930 . S
H137 C123 0.931 . S
H138 C124 0.931 . S
H139 C125 0.933 . S
H140 C131 0.943 . S
H141 C132 0.939 . S
H142 C133 0.931 . S
H143 C134 0.933 . S
Dy144 O147 2.307 . S
Dy144 O149 2.395 1_565 S
Dy144 O150 2.379 . S
Dy144 O152 2.339 . S
Dy144 O154 2.298 . S
Dy144 O158 2.275 1_565 S
Dy144 C166 2.738 . S
Dy145 O148 2.298 . S
Dy145 O151 2.275 1_545 S
Dy145 O153 2.307 . S
Dy145 O155 2.395 1_545 S
Dy145 O156 2.379 . S
Dy145 O159 2.339 . S
Dy145 C175 2.738 . S
C146 O158 1.254 . S
C146 O159 1.257 . S
O147 Dy144 2.307 . S
O147 C157 1.266 . S
O148 Dy145 2.298 . S
O148 C157 1.236 1_545 S
O149 Dy144 2.395 1_545 S
O149 C166 1.255 1_545 S
O150 Dy144 2.379 . S
O150 C166 1.249 . S
O151 Dy145 2.275 1_565 S
O151 C167 1.254 . S
O152 Dy144 2.339 . S
O152 C167 1.257 . S
O153 Dy145 2.307 . S
O153 C168 1.266 . S
O154 Dy144 2.298 . S
O154 C168 1.236 1_565 S
O155 Dy145 2.395 1_565 S
O155 C175 1.255 1_565 S
O156 Dy145 2.379 . S
O156 C175 1.249 . S
C157 O147 1.266 . S
C157 O148 1.236 1_565 S
O158 Dy144 2.275 1_545 S
O158 C146 1.254 . S
O159 Dy145 2.339 . S
O159 C146 1.257 . S
C160 C163 1.344 1_565 S
C160 C164 1.328 . S
C160 C166 1.516 . S
C161 C162 1.304 1_565 S
C161 C165 1.323 . S
C162 C161 1.304 1_545 S
C162 C163 1.371 . S
C162 H176 0.930 . S
C163 C160 1.344 1_545 S
C163 C162 1.371 . S
C163 H177 0.931 . S
C164 C160 1.328 . S
C164 C165 1.433 . S
C164 H178 0.931 . S
C165 C161 1.323 . S
C165 C164 1.433 . S
C165 H179 0.933 . S
C166 Dy144 2.738 . S
C166 O149 1.255 1_565 S
C166 O150 1.249 . S
C166 C160 1.516 . S
C167 O151 1.254 . S
C167 O152 1.257 . S
C168 O153 1.266 . S
C168 O154 1.236 1_545 S
C169 C172 1.344 1_545 S
C169 C173 1.328 . S
C169 C175 1.516 . S
C170 C171 1.280 1_545 S
C170 C174 1.323 . S
C171 C170 1.280 1_565 S
C171 C172 1.373 . S
C171 H180 0.954 . S
C172 C169 1.344 1_565 S
C172 C171 1.373 . S
C172 H181 0.931 . S
C173 C169 1.328 . S
C173 C174 1.433 . S
C173 H182 0.931 . S
C174 C170 1.323 . S
C174 C173 1.433 . S
C174 H183 0.933 . S
C175 Dy145 2.738 . S
C175 O155 1.255 1_545 S
C175 O156 1.249 . S
C175 C169 1.516 . S
H176 C162 0.930 . S
H177 C163 0.931 . S
H178 C164 0.931 . S
H179 C165 0.933 . S
H180 C171 0.954 . S
H181 C172 0.931 . S
H182 C173 0.931 . S
H183 C174 0.933 . S
Dy184 O187 2.307 . S
Dy184 O189 2.395 . S
Dy184 O190 2.379 . S
Dy184 O192 2.339 . S
Dy184 O194 2.298 . S
Dy184 O198 2.275 . S
Dy184 C206 2.738 . S
Dy185 O188 2.298 . S
Dy185 O191 2.275 . S
Dy185 O193 2.307 . S
Dy185 O195 2.395 . S
Dy185 O196 2.379 . S
Dy185 O199 2.339 . S
Dy185 C215 2.738 . S
C186 O198 1.254 . S
C186 O199 1.257 . S
O187 Dy184 2.307 . S
O187 C197 1.266 . S
O188 Dy185 2.298 . S
O188 C197 1.236 . S
O189 Dy184 2.395 . S
O189 C206 1.255 . S
O190 Dy184 2.379 . S
O190 C206 1.249 . S
O191 Dy185 2.275 . S
O191 C207 1.254 . S
O192 Dy184 2.339 . S
O192 C207 1.257 . S
O193 Dy185 2.307 . S
O193 C208 1.266 . S
O194 Dy184 2.298 . S
O194 C208 1.236 . S
O195 Dy185 2.395 . S
O195 C215 1.255 . S
O196 Dy185 2.379 . S
O196 C215 1.249 . S
C197 O187 1.266 . S
C197 O188 1.236 . S
O198 Dy184 2.275 . S
O198 C186 1.254 . S
O199 Dy185 2.339 . S
O199 C186 1.257 . S
C200 C203 1.344 . S
C200 C204 1.328 . S
C200 C206 1.516 . S
C201 C202 1.304 . S
C201 C205 1.323 . S
C202 C201 1.304 . S
C202 C203 1.371 . S
C202 H216 0.930 . S
C203 C200 1.344 . S
C203 C202 1.371 . S
C203 H217 0.931 . S
C204 C200 1.328 . S
C204 C205 1.433 . S
C204 H218 0.931 . S
C205 C201 1.323 . S
C205 C204 1.433 . S
C205 H219 0.933 . S
C206 Dy184 2.738 . S
C206 O189 1.255 . S
C206 O190 1.249 . S
C206 C200 1.516 . S
C207 O191 1.254 . S
C207 O192 1.257 . S
C208 O193 1.266 . S
C208 O194 1.236 . S
C209 C212 1.344 . S
C209 C213 1.328 . S
C209 C215 1.516 . S
C210 C211 1.304 . S
C210 C214 1.323 . S
C211 C210 1.304 . S
C211 C212 1.371 . S
C211 H220 0.930 . S
C212 C209 1.344 . S
C212 C211 1.371 . S
C212 H221 0.931 . S
C213 C209 1.328 . S
C213 C214 1.433 . S
C213 H222 0.931 . S
C214 C210 1.323 . S
C214 C213 1.433 . S
C214 H223 0.933 . S
C215 Dy185 2.738 . S
C215 O195 1.255 . S
C215 O196 1.249 . S
C215 C209 1.516 . S
H216 C202 0.930 . S
H217 C203 0.931 . S
H218 C204 0.931 . S
H219 C205 0.933 . S
H220 C211 0.930 . S
H221 C212 0.931 . S
H222 C213 0.931 . S
H223 C214 0.933 . S
Dy224 O227 2.307 1_455 S
Dy224 O229 2.395 . S
Dy224 O230 2.379 . S
Dy224 O232 2.339 . S
Dy224 O234 2.298 . S
Dy224 O238 2.275 . S
Dy224 C246 2.738 . S
Dy225 O228 2.298 . S
Dy225 O231 2.275 1_655 S
Dy225 O233 2.307 1_655 S
Dy225 O235 2.395 . S
Dy225 O236 2.379 . S
Dy225 O239 2.339 . S
Dy225 C255 2.738 . S
C226 O238 1.254 . S
C226 O239 1.257 1_455 S
O227 Dy224 2.307 1_655 S
O227 C237 1.266 . S
O228 Dy225 2.298 . S
O228 C237 1.236 . S
O229 Dy224 2.395 . S
O229 C246 1.255 . S
O230 Dy224 2.379 . S
O230 C246 1.249 . S
O231 Dy225 2.275 1_455 S
O231 C247 1.254 . S
O232 Dy224 2.339 . S
O232 C247 1.257 . S
O233 Dy225 2.307 1_455 S
O233 C248 1.266 . S
O234 Dy224 2.298 . S
O234 C248 1.236 . S
O235 Dy225 2.395 . S
O235 C255 1.255 . S
O236 Dy225 2.379 . S
O236 C255 1.249 . S
C237 O227 1.266 . S
C237 O228 1.236 . S
O238 Dy224 2.275 . S
O238 C226 1.254 . S
O239 Dy225 2.339 . S
O239 C226 1.257 1_655 S
C240 C243 1.344 . S
C240 C244 1.328 . S
C240 C246 1.516 . S
C241 C242 1.304 . S
C241 C245 1.323 . S
C242 C241 1.304 . S
C242 C243 1.371 . S
C242 H256 0.930 . S
C243 C240 1.344 . S
C243 C242 1.371 . S
C243 H257 0.931 . S
C244 C240 1.328 . S
C244 C245 1.433 . S
C244 H258 0.931 . S
C245 C241 1.323 . S
C245 C244 1.433 . S
C245 H259 0.933 . S
C246 Dy224 2.738 . S
C246 O229 1.255 . S
C246 O230 1.249 . S
C246 C240 1.516 . S
C247 O231 1.254 . S
C247 O232 1.257 . S
C248 O233 1.266 . S
C248 O234 1.236 . S
C249 C252 1.344 . S
C249 C253 1.328 . S
C249 C255 1.516 . S
C250 C251 1.304 1_554 S
C250 C254 1.323 1_554 S
C251 C250 1.304 1_556 S
C251 C252 1.371 . S
C251 H260 0.930 1_556 S
C252 C249 1.344 . S
C252 C251 1.371 . S
C252 H261 0.931 . S
C253 C249 1.328 . S
C253 C254 1.433 . S
C253 H262 0.931 . S
C254 C250 1.323 1_556 S
C254 C253 1.433 . S
C254 H263 0.933 . S
C255 Dy225 2.738 . S
C255 O235 1.255 . S
C255 O236 1.249 . S
C255 C249 1.516 . S
H256 C242 0.930 . S
H257 C243 0.931 . S
H258 C244 0.931 . S
H259 C245 0.933 . S
H260 C251 0.930 1_554 S
H261 C252 0.931 . S
H262 C253 0.931 . S
H263 C254 0.933 . S
H264 C282 0.951 . S
H265 C284 0.951 . S
H266 C286 0.950 . S
H267 C287 0.950 . S
H268 C289 0.950 . S
H269 C292 0.950 . S
H270 C293 0.950 . S
H271 C295 0.950 . S
H272 C296 0.950 1_545 S
H273 C297 0.951 . S
H274 C299 0.951 . S
H275 C301 0.950 . S
H276 C302 0.950 . S
H277 C304 0.946 1_565 S
H278 C307 0.950 . S
H279 C308 0.950 . S
H280 C310 0.950 . S
H281 C311 0.950 . S
C282 H264 0.951 . S
C282 C283 1.366 . S
C282 C284 1.388 . S
C283 C282 1.366 . S
C283 C287 1.385 1_545 S
C284 H265 0.951 . S
C284 C282 1.388 . S
C284 C285 1.366 . S
C285 C284 1.366 . S
C285 C286 1.414 1_545 S
C285 C288 1.499 . S
C286 H266 0.950 . S
C286 C285 1.414 1_565 S
C286 C287 1.374 . S
C287 H267 0.950 . S
C287 C283 1.385 1_565 S
C287 C286 1.374 . S
C288 C285 1.499 . S
C288 C289 1.373 . S
C288 C290 1.377 1_545 S
C289 H268 0.950 . S
C289 C288 1.373 . S
C289 C305 1.377 . S
C290 C288 1.377 1_565 S
C290 C291 1.541 . S
C290 C304 1.379 1_565 S
C291 C290 1.541 . S
C291 C292 1.397 . S
C291 C296 1.363 . S
C292 H269 0.950 . S
C292 C291 1.397 . S
C292 C293 1.334 . S
C293 H270 0.950 . S
C293 C292 1.334 . S
C293 C294 1.287 . S
C294 C293 1.287 . S
C294 C295 1.524 . S
C294 H313 0.913 . S
C295 H271 0.950 . S
C295 C294 1.524 . S
C295 C296 1.415 . S
C296 H272 0.950 1_565 S
C296 C291 1.363 . S
C296 C295 1.415 . S
C297 H273 0.951 . S
C297 C298 1.366 1_565 S
C297 C299 1.388 . S
C298 C297 1.366 1_545 S
C298 C302 1.385 . S
C299 H274 0.951 . S
C299 C297 1.388 . S
C299 C300 1.366 1_565 S
C300 C299 1.366 1_545 S
C300 C301 1.414 . S
C300 C303 1.499 . S
C301 H275 0.950 . S
C301 C300 1.414 . S
C301 C302 1.374 . S
C302 H276 0.950 . S
C302 C298 1.385 . S
C302 C301 1.374 . S
C303 C300 1.499 . S
C303 C304 1.377 . S
C303 C305 1.389 . S
C304 H277 0.946 1_545 S
C304 C290 1.379 1_545 S
C304 C303 1.377 . S
C305 C289 1.377 . S
C305 C303 1.389 . S
C305 C306 1.524 . S
C306 C305 1.524 . S
C306 C307 1.397 . S
C306 C311 1.363 . S
C307 H278 0.950 . S
C307 C306 1.397 . S
C307 C308 1.334 . S
C308 H279 0.950 . S
C308 C307 1.334 . S
C308 C309 1.287 . S
C309 C308 1.287 . S
C309 C310 1.524 . S
C309 H312 0.999 . S
C310 H280 0.950 . S
C310 C309 1.524 . S
C310 C311 1.415 . S
C311 H281 0.950 . S
C311 C306 1.363 . S
C311 C310 1.415 . S
H312 C309 0.999 . S
H313 C294 0.913 . S
H314 C332 0.951 . S
H315 C334 0.951 . S
H316 C336 0.950 . S
H317 C337 0.950 . S
H318 C339 0.950 . S
H319 C342 0.950 . S
H320 C343 0.950 . S
H321 C345 0.950 . S
H322 C346 0.950 . S
H323 C347 0.951 . S
H324 C349 0.951 . S
H325 C351 0.950 . S
H326 C352 0.950 . S
H327 C354 0.950 . S
H328 C357 0.950 . S
H329 C358 0.950 . S
H330 C360 0.950 . S
H331 C361 0.950 . S
C332 H314 0.951 . S
C332 C333 1.366 . S
C332 C334 1.388 . S
C333 C332 1.366 . S
C333 C337 1.385 . S
C334 H315 0.951 . S
C334 C332 1.388 . S
C334 C335 1.366 . S
C335 C334 1.366 . S
C335 C336 1.414 . S
C335 C338 1.499 . S
C336 H316 0.950 . S
C336 C335 1.414 . S
C336 C337 1.374 . S
C337 H317 0.950 . S
C337 C333 1.385 . S
C337 C336 1.374 . S
C338 C335 1.499 . S
C338 C339 1.373 . S
C338 C340 1.389 . S
C339 H318 0.950 . S
C339 C338 1.373 . S
C339 C355 1.377 . S
C340 C338 1.389 . S
C340 C341 1.524 . S
C340 C354 1.377 . S
C341 C340 1.524 . S
C341 C342 1.397 . S
C341 C346 1.363 . S
C342 H319 0.950 . S
C342 C341 1.397 . S
C342 C343 1.334 . S
C343 H320 0.950 . S
C343 C342 1.334 . S
C343 C344 1.287 . S
C344 C343 1.287 . S
C344 C345 1.524 . S
C344 H363 0.913 . S
C345 H321 0.950 . S
C345 C344 1.524 . S
C345 C346 1.415 . S
C346 H322 0.950 . S
C346 C341 1.363 . S
C346 C345 1.415 . S
C347 H323 0.951 . S
C347 C348 1.366 . S
C347 C349 1.388 . S
C348 C347 1.366 . S
C348 C352 1.385 . S
C349 H324 0.951 . S
C349 C347 1.388 . S
C349 C350 1.366 . S
C350 C349 1.366 . S
C350 C351 1.414 . S
C350 C353 1.499 . S
C351 H325 0.950 . S
C351 C350 1.414 . S
C351 C352 1.374 . S
C352 H326 0.950 . S
C352 C348 1.385 . S
C352 C351 1.374 . S
C353 C350 1.499 . S
C353 C354 1.373 . S
C353 C355 1.389 . S
C354 H327 0.950 . S
C354 C340 1.377 . S
C354 C353 1.373 . S
C355 C339 1.377 . S
C355 C353 1.389 . S
C355 C356 1.524 . S
C356 C355 1.524 . S
C356 C357 1.397 . S
C356 C361 1.363 . S
C357 H328 0.950 . S
C357 C356 1.397 . S
C357 C358 1.334 . S
C358 H329 0.950 . S
C358 C357 1.334 . S
C358 C359 1.287 . S
C359 C358 1.287 . S
C359 C360 1.524 . S
C359 H362 0.999 . S
C360 H330 0.950 . S
C360 C359 1.524 . S
C360 C361 1.415 . S
C361 H331 0.950 . S
C361 C356 1.363 . S
C361 C360 1.415 . S
H362 C359 0.999 . S
H363 C344 0.913 . S
H364 C382 0.951 . S
H365 C384 0.951 . S
H366 C386 0.950 . S
H367 C387 0.950 . S
H368 C389 0.950 . S
H369 C392 0.950 . S
H370 C393 0.950 . S
H371 C395 0.950 . S
H372 C396 0.950 . S
H373 C397 0.951 . S
H374 C399 0.951 . S
H375 C401 0.950 . S
H376 C402 0.950 . S
H377 C404 0.950 . S
H378 C407 0.950 . S
H379 C408 0.950 . S
H380 C410 0.950 . S
H381 C411 0.950 . S
C382 H364 0.951 . S
C382 C383 1.366 . S
C382 C384 1.388 . S
C383 C382 1.366 . S
C383 C387 1.385 . S
C384 H365 0.951 . S
C384 C382 1.388 . S
C384 C385 1.366 . S
C385 C384 1.366 . S
C385 C386 1.414 . S
C385 C388 1.499 . S
C386 H366 0.950 . S
C386 C385 1.414 . S
C386 C387 1.374 . S
C387 H367 0.950 . S
C387 C383 1.385 . S
C387 C386 1.374 . S
C388 C385 1.499 . S
C388 C389 1.373 . S
C388 C390 1.389 . S
C389 H368 0.950 . S
C389 C388 1.373 . S
C389 C405 1.377 . S
C390 C388 1.389 . S
C390 C391 1.524 . S
C390 C404 1.377 . S
C391 C390 1.524 . S
C391 C392 1.397 . S
C391 C396 1.363 . S
C392 H369 0.950 . S
C392 C391 1.397 . S
C392 C393 1.334 . S
C393 H370 0.950 . S
C393 C392 1.334 . S
C393 C394 1.287 . S
C394 C393 1.287 . S
C394 C395 1.524 . S
C394 H413 0.913 . S
C395 H371 0.950 . S
C395 C394 1.524 . S
C395 C396 1.415 . S
C396 H372 0.950 . S
C396 C391 1.363 . S
C396 C395 1.415 . S
C397 H373 0.951 . S
C397 C398 1.366 . S
C397 C399 1.388 . S
C398 C397 1.366 . S
C398 C402 1.385 . S
C399 H374 0.951 . S
C399 C397 1.388 . S
C399 C400 1.366 . S
C400 C399 1.366 . S
C400 C401 1.414 . S
C400 C403 1.499 . S
C401 H375 0.950 . S
C401 C400 1.414 . S
C401 C402 1.374 . S
C402 H376 0.950 . S
C402 C398 1.385 . S
C402 C401 1.374 . S
C403 C400 1.499 . S
C403 C404 1.373 . S
C403 C405 1.389 . S
C404 H377 0.950 . S
C404 C390 1.377 . S
C404 C403 1.373 . S
C405 C389 1.377 . S
C405 C403 1.389 . S
C405 C406 1.524 . S
C406 C405 1.524 . S
C406 C407 1.397 . S
C406 C411 1.363 . S
C407 H378 0.950 . S
C407 C406 1.397 . S
C407 C408 1.334 . S
C408 H379 0.950 . S
C408 C407 1.334 . S
C408 C409 1.287 . S
C409 C408 1.287 . S
C409 C410 1.524 . S
C409 H412 0.999 . S
C410 H380 0.950 . S
C410 C409 1.524 . S
C410 C411 1.415 . S
C411 H381 0.950 . S
C411 C406 1.363 . S
C411 C410 1.415 . S
H412 C409 0.999 . S
H413 C394 0.913 . S
H414 C432 0.951 . S
H415 C434 0.951 . S
H416 C436 0.950 . S
H417 C437 0.950 . S
H418 C439 0.950 1_655 S
H419 C442 0.950 . S
H420 C443 0.950 . S
H421 C445 0.950 . S
H422 C446 0.950 . S
H423 C447 0.951 . S
H424 C449 0.951 . S
H425 C451 0.950 . S
H426 C452 0.950 . S
H427 C454 0.950 . S
H428 C457 0.950 . S
H429 C458 0.950 . S
H430 C460 0.950 . S
H431 C461 0.950 . S
C432 H414 0.951 . S
C432 C433 1.366 . S
C432 C434 1.388 . S
C433 C432 1.366 . S
C433 C437 1.385 . S
C434 H415 0.951 . S
C434 C432 1.388 . S
C434 C435 1.366 . S
C435 C434 1.366 . S
C435 C436 1.414 . S
C435 C438 1.499 . S
C436 H416 0.950 . S
C436 C435 1.414 . S
C436 C437 1.374 . S
C437 H417 0.950 . S
C437 C433 1.385 . S
C437 C436 1.374 . S
C438 C435 1.499 . S
C438 C439 1.373 . S
C438 C440 1.389 . S
C439 H418 0.950 1_455 S
C439 C438 1.373 . S
C439 C455 1.376 . S
C440 C438 1.389 . S
C440 C441 1.524 . S
C440 C454 1.377 . S
C441 C440 1.524 . S
C441 C442 1.397 . S
C441 C446 1.363 . S
C442 H419 0.950 . S
C442 C441 1.397 . S
C442 C443 1.334 . S
C443 H420 0.950 . S
C443 C442 1.334 . S
C443 C444 1.287 . S
C444 C443 1.287 . S
C444 C445 1.524 . S
C444 H463 0.913 . S
C445 H421 0.950 . S
C445 C444 1.524 . S
C445 C446 1.415 . S
C446 H422 0.950 . S
C446 C441 1.363 . S
C446 C445 1.415 . S
C447 H423 0.951 . S
C447 C448 1.366 . S
C447 C449 1.388 . S
C448 C447 1.366 . S
C448 C452 1.385 . S
C449 H424 0.951 . S
C449 C447 1.388 . S
C449 C450 1.366 . S
C450 C449 1.366 . S
C450 C451 1.414 . S
C450 C453 1.499 . S
C451 H425 0.950 . S
C451 C450 1.414 . S
C451 C452 1.374 . S
C452 H426 0.950 . S
C452 C448 1.385 . S
C452 C451 1.374 . S
C453 C450 1.499 . S
C453 C454 1.373 . S
C453 C455 1.428 . S
C454 H427 0.950 . S
C454 C440 1.377 . S
C454 C453 1.373 . S
C455 C439 1.376 . S
C455 C453 1.428 . S
C455 C456 1.485 1_455 S
C456 C455 1.485 1_655 S
C456 C457 1.397 . S
C456 C461 1.363 . S
C457 H428 0.950 . S
C457 C456 1.397 . S
C457 C458 1.334 . S
C458 H429 0.950 . S
C458 C457 1.334 . S
C458 C459 1.287 . S
C459 C458 1.287 . S
C459 C460 1.524 . S
C459 H462 0.999 . S
C460 H430 0.950 . S
C460 C459 1.524 . S
C460 C461 1.415 . S
C461 H431 0.950 . S
C461 C456 1.363 . S
C461 C460 1.415 . S
H462 C459 0.999 . S
H463 C444 0.913 . S
H464 C482 0.951 . S
H465 C484 0.951 . S
H466 C486 0.950 . S
H467 C487 0.950 . S
H468 C489 0.950 . S
H469 C492 0.950 . S
H470 C493 0.950 . S
H471 C495 0.950 . S
H472 C496 0.950 . S
H473 C497 0.951 . S
H474 C499 0.951 . S
H475 C501 0.950 . S
H476 C502 0.950 . S
H477 C504 0.950 . S
H478 C507 0.950 . S
H479 C508 0.950 . S
H480 C510 0.950 . S
H481 C511 0.950 . S
C482 H464 0.951 . S
C482 C483 1.366 . S
C482 C484 1.388 . S
C483 C482 1.366 . S
C483 C487 1.385 1_565 S
C484 H465 0.951 . S
C484 C482 1.388 . S
C484 C485 1.352 1_565 S
C485 C484 1.352 1_545 S
C485 C486 1.424 . S
C485 C488 1.503 . S
C486 H466 0.950 . S
C486 C485 1.424 . S
C486 C487 1.374 . S
C487 H467 0.950 . S
C487 C483 1.385 1_545 S
C487 C486 1.374 . S
C488 C485 1.503 . S
C488 C489 1.373 1_544 S
C488 C490 1.389 . S
C489 H468 0.950 . S
C489 C488 1.373 1_566 S
C489 C505 1.377 . S
C490 C488 1.389 . S
C490 C491 1.524 . S
C490 C504 1.377 . S
C491 C490 1.524 . S
C491 C492 1.397 . S
C491 C496 1.363 . S
C492 H469 0.950 . S
C492 C491 1.397 . S
C492 C493 1.334 . S
C493 H470 0.950 . S
C493 C492 1.334 . S
C493 C494 1.287 . S
C494 C493 1.287 . S
C494 C495 1.524 . S
C494 H513 0.913 . S
C495 H471 0.950 . S
C495 C494 1.524 . S
C495 C496 1.415 . S
C496 H472 0.950 . S
C496 C491 1.363 . S
C496 C495 1.415 . S
C497 H473 0.951 . S
C497 C498 1.366 . S
C497 C499 1.388 . S
C498 C497 1.366 . S
C498 C502 1.385 1_545 S
C499 H474 0.951 . S
C499 C497 1.388 . S
C499 C500 1.367 1_545 S
C500 C499 1.367 1_565 S
C500 C501 1.413 . S
C500 C503 1.495 . S
C501 H475 0.950 . S
C501 C500 1.413 . S
C501 C502 1.374 . S
C502 H476 0.950 . S
C502 C498 1.385 1_565 S
C502 C501 1.374 . S
C503 C500 1.495 . S
C503 C504 1.358 1_566 S
C503 C505 1.407 . S
C504 H477 0.950 . S
C504 C490 1.377 . S
C504 C503 1.358 1_544 S
C505 C489 1.377 . S
C505 C503 1.407 . S
C505 C506 1.524 . S
C506 C505 1.524 . S
C506 C507 1.397 . S
C506 C511 1.363 . S
C507 H478 0.950 . S
C507 C506 1.397 . S
C507 C508 1.334 . S
C508 H479 0.950 . S
C508 C507 1.334 . S
C508 C509 1.287 . S
C509 C508 1.287 . S
C509 C510 1.524 . S
C509 H512 0.999 . S
C510 H480 0.950 . S
C510 C509 1.524 . S
C510 C511 1.415 . S
C511 H481 0.950 . S
C511 C506 1.363 . S
C511 C510 1.415 . S
H512 C509 0.999 . S
H513 C494 0.913 . S
H514 C532 0.951 . S
H515 C534 0.951 . S
H516 C536 0.950 . S
H517 C537 0.950 . S
H518 C539 0.950 . S
H519 C542 0.950 . S
H520 C543 0.950 . S
H521 C545 0.950 . S
H522 C546 0.950 . S
H523 C547 0.951 . S
H524 C549 0.951 . S
H525 C551 0.950 . S
H526 C552 0.950 . S
H527 C554 0.950 . S
H528 C557 0.950 . S
H529 C558 0.950 . S
H530 C560 0.950 . S
H531 C561 0.950 . S
C532 H514 0.951 . S
C532 C533 1.366 . S
C532 C534 1.388 . S
C533 C532 1.366 . S
C533 C537 1.385 1_554 S
C534 H515 0.951 . S
C534 C532 1.388 . S
C534 C535 1.366 1_554 S
C535 C534 1.366 1_556 S
C535 C536 1.414 . S
C535 C538 1.499 . S
C536 H516 0.950 . S
C536 C535 1.414 . S
C536 C537 1.374 . S
C537 H517 0.950 . S
C537 C533 1.385 1_556 S
C537 C536 1.374 . S
C538 C535 1.499 . S
C538 C539 1.373 . S
C538 C540 1.389 . S
C539 H518 0.950 . S
C539 C538 1.373 . S
C539 C555 1.377 . S
C540 C538 1.389 . S
C540 C541 1.524 . S
C540 C554 1.377 . S
C541 C540 1.524 . S
C541 C542 1.397 . S
C541 C546 1.363 . S
C542 H519 0.950 . S
C542 C541 1.397 . S
C542 C543 1.334 . S
C543 H520 0.950 . S
C543 C542 1.334 . S
C543 C544 1.287 . S
C544 C543 1.287 . S
C544 C545 1.524 . S
C544 H563 0.913 . S
C545 H521 0.950 . S
C545 C544 1.524 . S
C545 C546 1.415 . S
C546 H522 0.950 . S
C546 C541 1.363 . S
C546 C545 1.415 . S
C547 H523 0.951 . S
C547 C548 1.366 . S
C547 C549 1.388 . S
C548 C547 1.366 . S
C548 C552 1.385 . S
C549 H524 0.951 . S
C549 C547 1.388 . S
C549 C550 1.366 . S
C550 C549 1.366 . S
C550 C551 1.414 . S
C550 C553 1.499 . S
C551 H525 0.950 . S
C551 C550 1.414 . S
C551 C552 1.374 . S
C552 H526 0.950 . S
C552 C548 1.385 . S
C552 C551 1.374 . S
C553 C550 1.499 . S
C553 C554 1.373 . S
C553 C555 1.389 . S
C554 H527 0.950 . S
C554 C540 1.377 . S
C554 C553 1.373 . S
C555 C539 1.377 . S
C555 C553 1.389 . S
C555 C556 1.524 . S
C556 C555 1.524 . S
C556 C557 1.397 . S
C556 C561 1.363 . S
C557 H528 0.950 . S
C557 C556 1.397 . S
C557 C558 1.334 . S
C558 H529 0.950 . S
C558 C557 1.334 . S
C558 C559 1.287 . S
C559 C558 1.287 . S
C559 C560 1.524 . S
C559 H562 0.999 . S
C560 H530 0.950 . S
C560 C559 1.524 . S
C560 C561 1.415 . S
C561 H531 0.950 . S
C561 C556 1.363 . S
C561 C560 1.415 . S
H562 C559 0.999 . S
H563 C544 0.913 . S
H564 C582 0.951 . S
H565 C584 0.951 . S
H566 C586 0.950 . S
H567 C587 0.950 . S
H568 C589 0.950 . S
H569 C592 0.950 . S
H570 C593 0.950 . S
H571 C595 0.950 . S
H572 C596 0.950 . S
H573 C597 0.951 . S
H574 C599 0.951 . S
H575 C601 0.950 . S
H576 C602 0.950 . S
H577 C604 0.950 . S
H578 C607 0.950 1_554 S
H579 C608 0.950 . S
H580 C610 0.950 . S
H581 C611 0.950 . S
C582 H564 0.951 . S
C582 C583 1.366 . S
C582 C584 1.388 . S
C583 C582 1.366 . S
C583 C587 1.385 . S
C584 H565 0.951 . S
C584 C582 1.388 . S
C584 C585 1.366 . S
C585 C584 1.366 . S
C585 C586 1.414 . S
C585 C588 1.499 . S
C586 H566 0.950 . S
C586 C585 1.414 . S
C586 C587 1.374 . S
C587 H567 0.950 . S
C587 C583 1.385 . S
C587 C586 1.374 . S
C588 C585 1.499 . S
C588 C589 1.373 . S
C588 C590 1.389 . S
C589 H568 0.950 . S
C589 C588 1.373 . S
C589 C605 1.377 . S
C590 C588 1.389 . S
C590 C591 1.524 . S
C590 C604 1.377 . S
C591 C590 1.524 . S
C591 C592 1.397 . S
C591 C596 1.363 . S
C592 H569 0.950 . S
C592 C591 1.397 . S
C592 C593 1.334 . S
C593 H570 0.950 . S
C593 C592 1.334 . S
C593 C594 1.287 . S
C594 C593 1.287 . S
C594 C595 1.524 . S
C594 H613 0.913 . S
C595 H571 0.950 . S
C595 C594 1.524 . S
C595 C596 1.415 . S
C596 H572 0.950 . S
C596 C591 1.363 . S
C596 C595 1.415 . S
C597 H573 0.951 . S
C597 C598 1.366 . S
C597 C599 1.388 1_556 S
C598 C597 1.366 . S
C598 C602 1.385 1_556 S
C599 H574 0.951 . S
C599 C597 1.388 1_554 S
C599 C600 1.366 . S
C600 C599 1.366 . S
C600 C601 1.414 . S
C600 C603 1.499 . S
C601 H575 0.950 . S
C601 C600 1.414 . S
C601 C602 1.374 . S
C602 H576 0.950 . S
C602 C598 1.385 1_554 S
C602 C601 1.374 . S
C603 C600 1.499 . S
C603 C604 1.373 . S
C603 C605 1.389 . S
C604 H577 0.950 . S
C604 C590 1.377 . S
C604 C603 1.373 . S
C605 C589 1.377 . S
C605 C603 1.389 . S
C605 C606 1.524 . S
C606 C605 1.524 . S
C606 C607 1.397 1_554 S
C606 C611 1.363 . S
C607 H578 0.950 1_556 S
C607 C606 1.397 1_556 S
C607 C608 1.334 . S
C608 H579 0.950 . S
C608 C607 1.334 . S
C608 C609 1.287 . S
C609 C608 1.287 . S
C609 C610 1.524 . S
C609 H612 0.999 . S
C610 H580 0.950 . S
C610 C609 1.524 . S
C610 C611 1.415 1_556 S
C611 H581 0.950 . S
C611 C606 1.363 . S
C611 C610 1.415 1_554 S
H612 C609 0.999 . S
H613 C594 0.913 . S
H614 C632 0.951 . S
H615 C634 0.951 . S
H616 C636 0.950 . S
H617 C637 0.950 . S
H618 C639 0.950 . S
H619 C642 0.950 . S
H620 C643 0.950 . S
H621 C645 0.950 . S
H622 C646 0.950 . S
H623 C647 0.951 . S
H624 C649 0.951 . S
H625 C651 0.950 . S
H626 C652 0.950 . S
H627 C654 0.950 1_556 S
H628 C657 0.950 . S
H629 C658 0.950 . S
H630 C660 0.950 . S
H631 C661 0.950 . S
C632 H614 0.951 . S
C632 C633 1.366 1_455 S
C632 C634 1.388 . S
C633 C632 1.366 1_655 S
C633 C637 1.385 . S
C634 H615 0.951 . S
C634 C632 1.388 . S
C634 C635 1.366 1_455 S
C635 C634 1.366 1_655 S
C635 C636 1.414 . S
C635 C638 1.499 . S
C636 H616 0.950 . S
C636 C635 1.414 . S
C636 C637 1.374 . S
C637 H617 0.950 . S
C637 C633 1.385 . S
C637 C636 1.374 . S
C638 C635 1.499 . S
C638 C639 1.373 . S
C638 C640 1.389 1_655 S
C639 H618 0.950 . S
C639 C638 1.373 . S
C639 C655 1.377 . S
C640 C638 1.389 1_455 S
C640 C641 1.524 . S
C640 C654 1.377 . S
C641 C640 1.524 . S
C641 C642 1.397 . S
C641 C646 1.363 . S
C642 H619 0.950 . S
C642 C641 1.397 . S
C642 C643 1.334 . S
C643 H620 0.950 . S
C643 C642 1.334 . S
C643 C644 1.287 . S
C644 C643 1.287 . S
C644 C645 1.524 . S
C644 H663 0.913 . S
C645 H621 0.950 . S
C645 C644 1.524 . S
C645 C646 1.415 . S
C646 H622 0.950 . S
C646 C641 1.363 . S
C646 C645 1.415 . S
C647 H623 0.951 . S
C647 C648 1.366 1_655 S
C647 C649 1.388 . S
C648 C647 1.366 1_455 S
C648 C652 1.385 . S
C649 H624 0.951 . S
C649 C647 1.388 . S
C649 C650 1.394 . S
C650 C649 1.394 . S
C650 C651 1.389 1_655 S
C650 C653 1.495 1_556 S
C651 H625 0.950 . S
C651 C650 1.389 1_455 S
C651 C652 1.374 . S
C652 H626 0.950 . S
C652 C648 1.385 . S
C652 C651 1.374 . S
C653 C650 1.495 1_554 S
C653 C654 1.373 1_655 S
C653 C655 1.389 . S
C654 H627 0.950 1_554 S
C654 C640 1.377 . S
C654 C653 1.373 1_455 S
C655 C639 1.377 . S
C655 C653 1.389 . S
C655 C656 1.524 . S
C656 C655 1.524 . S
C656 C657 1.397 . S
C656 C661 1.363 . S
C657 H628 0.950 . S
C657 C656 1.397 . S
C657 C658 1.334 . S
C658 H629 0.950 . S
C658 C657 1.334 . S
C658 C659 1.287 . S
C659 C658 1.287 . S
C659 C660 1.524 . S
C659 H662 0.999 . S
C660 H630 0.950 . S
C660 C659 1.524 . S
C660 C661 1.415 . S
C661 H631 0.950 . S
C661 C656 1.363 . S
C661 C660 1.415 . S
H662 C659 0.999 . S
H663 C644 0.913 . S
H664 C682 0.951 1_655 S
H665 C684 0.951 1_655 S
H666 C686 0.950 . S
H667 C687 0.950 . S
H668 C689 0.950 . S
H669 C692 0.950 . S
H670 C693 0.950 . S
H671 C695 0.950 . S
H672 C696 0.950 . S
H673 C697 0.951 . S
H674 C699 0.951 . S
H675 C701 0.950 . S
H676 C702 0.950 . S
H677 C704 0.938 1_655 S
H678 C707 0.981 . S
H679 C708 0.937 1_655 S
H680 C710 0.950 . S
H681 C711 0.950 . S
C682 H664 0.951 1_455 S
C682 C683 1.366 . S
C682 C684 1.388 . S
C683 C682 1.366 . S
C683 C687 1.385 . S
C684 H665 0.951 1_455 S
C684 C682 1.388 . S
C684 C685 1.366 . S
C685 C684 1.366 . S
C685 C686 1.414 . S
C685 C688 1.499 . S
C686 H666 0.950 . S
C686 C685 1.414 . S
C686 C687 1.374 . S
C687 H667 0.950 . S
C687 C683 1.385 . S
C687 C686 1.374 . S
C688 C685 1.499 . S
C688 C689 1.373 . S
C688 C690 1.389 . S
C689 H668 0.950 . S
C689 C688 1.373 . S
C689 C705 1.377 . S
C690 C688 1.389 . S
C690 C691 1.524 . S
C690 C704 1.387 . S
C691 C690 1.524 . S
C691 C692 1.397 . S
C691 C696 1.363 1_455 S
C692 H669 0.950 . S
C692 C691 1.397 . S
C692 C693 1.334 . S
C693 H670 0.950 . S
C693 C692 1.334 . S
C693 C694 1.287 . S
C694 C693 1.287 . S
C694 C695 1.524 1_455 S
C694 H713 0.912 . S
C695 H671 0.950 . S
C695 C694 1.524 1_655 S
C695 C696 1.415 . S
C696 H672 0.950 . S
C696 C691 1.363 1_655 S
C696 C695 1.415 . S
C697 H673 0.951 . S
C697 C698 1.366 1_455 S
C697 C699 1.388 . S
C698 C697 1.366 1_655 S
C698 C702 1.385 . S
C699 H674 0.951 . S
C699 C697 1.388 . S
C699 C700 1.366 . S
C700 C699 1.366 . S
C700 C701 1.414 1_455 S
C700 C703 1.499 . S
C701 H675 0.950 . S
C701 C700 1.414 1_655 S
C701 C702 1.374 . S
C702 H676 0.950 . S
C702 C698 1.385 . S
C702 C701 1.374 . S
C703 C700 1.499 . S
C703 C704 1.377 . S
C703 C705 1.389 . S
C704 H677 0.938 1_455 S
C704 C690 1.387 . S
C704 C703 1.377 . S
C705 C689 1.377 . S
C705 C703 1.389 . S
C705 C706 1.524 . S
C706 C705 1.524 . S
C706 C707 1.363 1_455 S
C706 C711 1.363 . S
C707 H678 0.981 . S
C707 C706 1.363 1_655 S
C707 C708 1.340 1_655 S
C708 H679 0.937 1_455 S
C708 C707 1.340 1_455 S
C708 C709 1.300 . S
C709 C708 1.300 . S
C709 C710 1.524 . S
C709 H712 0.999 . S
C710 H680 0.950 . S
C710 C709 1.524 . S
C710 C711 1.415 . S
C711 H681 0.950 . S
C711 C706 1.363 . S
C711 C710 1.415 . S
H712 C709 0.999 . S
H713 C694 0.912 . S
H714 C732 0.951 . S
H715 C734 0.952 . S
H716 C736 0.950 . S
H717 C737 0.950 . S
H718 C739 0.950 . S
H719 C742 0.950 . S
H720 C743 0.950 . S
H721 C745 0.950 . S
H722 C746 0.950 . S
H723 C747 0.951 . S
H724 C749 0.951 . S
H725 C751 0.950 . S
H726 C752 0.950 . S
H727 C754 0.950 . S
H728 C757 0.950 . S
H729 C758 0.950 . S
H730 C760 0.950 . S
H731 C761 0.950 . S
C732 H714 0.951 . S
C732 C733 1.366 . S
C732 C734 1.388 . S
C733 C732 1.366 . S
C733 C737 1.385 . S
C734 H715 0.952 . S
C734 C732 1.388 . S
C734 C735 1.366 . S
C735 C734 1.366 . S
C735 C736 1.414 . S
C735 C738 1.499 1_545 S
C736 H716 0.950 . S
C736 C735 1.414 . S
C736 C737 1.374 . S
C737 H717 0.950 . S
C737 C733 1.385 . S
C737 C736 1.374 . S
C738 C735 1.499 1_565 S
C738 C739 1.373 1_565 S
C738 C740 1.389 . S
C739 H718 0.950 . S
C739 C738 1.373 1_545 S
C739 C755 1.377 . S
C740 C738 1.389 . S
C740 C741 1.524 . S
C740 C754 1.377 . S
C741 C740 1.524 . S
C741 C742 1.397 . S
C741 C746 1.363 . S
C742 H719 0.950 . S
C742 C741 1.397 . S
C742 C743 1.334 . S
C743 H720 0.950 . S
C743 C742 1.334 . S
C743 C744 1.287 . S
C744 C743 1.287 . S
C744 C745 1.524 . S
C744 H763 0.913 . S
C745 H721 0.950 . S
C745 C744 1.524 . S
C745 C746 1.415 . S
C746 H722 0.950 . S
C746 C741 1.363 . S
C746 C745 1.415 . S
C747 H723 0.951 . S
C747 C748 1.366 . S
C747 C749 1.388 . S
C748 C747 1.366 . S
C748 C752 1.385 . S
C749 H724 0.951 . S
C749 C747 1.388 . S
C749 C750 1.366 . S
C750 C749 1.366 . S
C750 C751 1.414 . S
C750 C753 1.499 . S
C751 H725 0.950 . S
C751 C750 1.414 . S
C751 C752 1.374 . S
C752 H726 0.950 . S
C752 C748 1.385 . S
C752 C751 1.374 . S
C753 C750 1.499 . S
C753 C754 1.373 . S
C753 C755 1.389 1_565 S
C754 H727 0.950 . S
C754 C740 1.377 . S
C754 C753 1.373 . S
C755 C739 1.377 . S
C755 C753 1.389 1_545 S
C755 C756 1.524 . S
C756 C755 1.524 . S
C756 C757 1.397 . S
C756 C761 1.363 . S
C757 H728 0.950 . S
C757 C756 1.397 . S
C757 C758 1.334 . S
C758 H729 0.950 . S
C758 C757 1.334 . S
C758 C759 1.287 . S
C759 C758 1.287 . S
C759 C760 1.524 . S
C759 H762 0.999 . S
C760 H730 0.950 . S
C760 C759 1.524 . S
C760 C761 1.415 . S
C761 H731 0.950 . S
C761 C756 1.363 . S
C761 C760 1.415 . S
H762 C759 0.999 . S
H763 C744 0.913 . S
H764 C782 0.951 . S
H765 C784 0.951 . S
H766 C786 0.950 . S
H767 C787 0.950 . S
H768 C789 0.950 . S
H769 C792 0.950 . S
H770 C793 0.950 . S
H771 C795 0.950 . S
H772 C796 0.950 . S
H773 C797 0.951 . S
H774 C799 0.951 . S
H775 C801 0.950 . S
H776 C802 0.950 . S
H777 C804 0.950 . S
H778 C807 0.950 . S
H779 C808 0.950 . S
H780 C810 0.950 . S
H781 C811 0.950 . S
C782 H764 0.951 . S
C782 C783 1.366 . S
C782 C784 1.388 . S
C783 C782 1.366 . S
C783 C787 1.385 . S
C784 H765 0.951 . S
C784 C782 1.388 . S
C784 C785 1.366 . S
C785 C784 1.366 . S
C785 C786 1.414 . S
C785 C788 1.499 . S
C786 H766 0.950 . S
C786 C785 1.414 . S
C786 C787 1.374 . S
C787 H767 0.950 . S
C787 C783 1.385 . S
C787 C786 1.374 . S
C788 C785 1.499 . S
C788 C789 1.373 . S
C788 C790 1.389 . S
C789 H768 0.950 . S
C789 C788 1.373 . S
C789 C805 1.377 . S
C790 C788 1.389 . S
C790 C791 1.524 . S
C790 C804 1.377 . S
C791 C790 1.524 . S
C791 C792 1.397 . S
C791 C796 1.363 . S
C792 H769 0.950 . S
C792 C791 1.397 . S
C792 C793 1.334 . S
C793 H770 0.950 . S
C793 C792 1.334 . S
C793 C794 1.287 . S
C794 C793 1.287 . S
C794 C795 1.524 . S
C794 H813 0.913 . S
C795 H771 0.950 . S
C795 C794 1.524 . S
C795 C796 1.415 . S
C796 H772 0.950 . S
C796 C791 1.363 . S
C796 C795 1.415 . S
C797 H773 0.951 . S
C797 C798 1.366 . S
C797 C799 1.388 . S
C798 C797 1.366 . S
C798 C802 1.385 . S
C799 H774 0.951 . S
C799 C797 1.388 . S
C799 C800 1.366 . S
C800 C799 1.366 . S
C800 C801 1.414 . S
C800 C803 1.499 . S
C801 H775 0.950 . S
C801 C800 1.414 . S
C801 C802 1.374 . S
C802 H776 0.950 . S
C802 C798 1.385 . S
C802 C801 1.374 . S
C803 C800 1.499 . S
C803 C804 1.373 . S
C803 C805 1.389 . S
C804 H777 0.950 . S
C804 C790 1.377 . S
C804 C803 1.373 . S
C805 C789 1.377 . S
C805 C803 1.389 . S
C805 C806 1.524 . S
C806 C805 1.524 . S
C806 C807 1.397 . S
C806 C811 1.363 . S
C807 H778 0.950 . S
C807 C806 1.397 . S
C807 C808 1.334 . S
C808 H779 0.950 . S
C808 C807 1.334 . S
C808 C809 1.287 . S
C809 C808 1.287 . S
C809 C810 1.524 . S
C809 H812 0.999 . S
C810 H780 0.950 . S
C810 C809 1.524 . S
C810 C811 1.415 . S
C811 H781 0.950 . S
C811 C806 1.363 . S
C811 C810 1.415 . S
H812 C809 0.999 . S
H813 C794 0.913 . S
H814 C832 0.951 . S
H815 C834 0.951 . S
H816 C836 0.950 . S
H817 C837 0.950 . S
H818 C839 0.950 . S
H819 C842 0.950 . S
H820 C843 0.950 . S
H821 C845 0.950 . S
H822 C846 0.950 . S
H823 C847 0.951 . S
H824 C849 0.951 . S
H825 C851 0.950 . S
H826 C852 0.950 . S
H827 C854 0.950 . S
H828 C857 0.950 . S
H829 C858 0.950 . S
H830 C860 0.950 . S
H831 C861 0.950 . S
C832 H814 0.951 . S
C832 C833 1.366 . S
C832 C834 1.388 . S
C833 C832 1.366 . S
C833 C837 1.385 . S
C834 H815 0.951 . S
C834 C832 1.388 . S
C834 C835 1.366 . S
C835 C834 1.366 . S
C835 C836 1.414 . S
C835 C838 1.499 . S
C836 H816 0.950 . S
C836 C835 1.414 . S
C836 C837 1.374 . S
C837 H817 0.950 . S
C837 C833 1.385 . S
C837 C836 1.374 . S
C838 C835 1.499 . S
C838 C839 1.373 . S
C838 C840 1.389 . S
C839 H818 0.950 . S
C839 C838 1.373 . S
C839 C855 1.377 . S
C840 C838 1.389 . S
C840 C841 1.524 . S
C840 C854 1.377 . S
C841 C840 1.524 . S
C841 C842 1.397 . S
C841 C846 1.363 . S
C842 H819 0.950 . S
C842 C841 1.397 . S
C842 C843 1.334 . S
C843 H820 0.950 . S
C843 C842 1.334 . S
C843 C844 1.287 . S
C844 C843 1.287 . S
C844 C845 1.524 . S
C844 H863 0.913 . S
C845 H821 0.950 . S
C845 C844 1.524 . S
C845 C846 1.415 . S
C846 H822 0.950 . S
C846 C841 1.363 . S
C846 C845 1.415 . S
C847 H823 0.951 . S
C847 C848 1.366 . S
C847 C849 1.388 . S
C848 C847 1.366 . S
C848 C852 1.385 . S
C849 H824 0.951 . S
C849 C847 1.388 . S
C849 C850 1.366 . S
C850 C849 1.366 . S
C850 C851 1.414 . S
C850 C853 1.499 . S
C851 H825 0.950 . S
C851 C850 1.414 . S
C851 C852 1.374 . S
C852 H826 0.950 . S
C852 C848 1.385 . S
C852 C851 1.374 . S
C853 C850 1.499 . S
C853 C854 1.373 . S
C853 C855 1.389 . S
C854 H827 0.950 . S
C854 C840 1.377 . S
C854 C853 1.373 . S
C855 C839 1.377 . S
C855 C853 1.389 . S
C855 C856 1.524 . S
C856 C855 1.524 . S
C856 C857 1.397 . S
C856 C861 1.363 . S
C857 H828 0.950 . S
C857 C856 1.397 . S
C857 C858 1.334 . S
C858 H829 0.950 . S
C858 C857 1.334 . S
C858 C859 1.287 . S
C859 C858 1.287 . S
C859 C860 1.524 . S
C859 H862 0.999 . S
C860 H830 0.950 . S
C860 C859 1.524 . S
C860 C861 1.415 . S
C861 H831 0.950 . S
C861 C856 1.363 . S
C861 C860 1.415 . S
H862 C859 0.999 . S
H863 C844 0.913 . S
H864 C882 0.951 . S
H865 C884 0.951 . S
H866 C886 0.950 . S
H867 C887 0.934 1_455 S
H868 C889 0.950 . S
H869 C892 0.950 . S
H870 C893 0.950 . S
H871 C895 0.950 . S
H872 C896 0.950 1_556 S
H873 C897 0.951 . S
H874 C899 0.951 . S
H875 C901 0.950 . S
H876 C902 0.950 . S
H877 C904 0.950 . S
H878 C907 0.950 . S
H879 C908 0.950 . S
H880 C910 0.950 . S
H881 C911 0.995 . S
C882 H864 0.951 . S
C882 C883 1.366 . S
C882 C884 1.388 . S
C883 C882 1.366 . S
C883 C887 1.385 . S
C884 H865 0.951 . S
C884 C882 1.388 . S
C884 C885 1.366 . S
C885 C884 1.366 . S
C885 C886 1.414 1_655 S
C885 C888 1.499 1_655 S
C886 H866 0.950 . S
C886 C885 1.414 1_455 S
C886 C887 1.374 1_455 S
C887 H867 0.934 1_655 S
C887 C883 1.385 . S
C887 C886 1.374 1_655 S
C888 C885 1.499 1_455 S
C888 C889 1.373 1_455 S
C888 C890 1.389 . S
C889 H868 0.950 . S
C889 C888 1.373 1_655 S
C889 C905 1.377 . S
C890 C888 1.389 . S
C890 C891 1.524 . S
C890 C904 1.377 . S
C891 C890 1.524 . S
C891 C892 1.397 . S
C891 C896 1.363 . S
C892 H869 0.950 . S
C892 C891 1.397 . S
C892 C893 1.334 . S
C893 H870 0.950 . S
C893 C892 1.334 . S
C893 C894 1.287 . S
C894 C893 1.287 . S
C894 C895 1.524 1_554 S
C894 H913 0.913 . S
C895 H871 0.950 . S
C895 C894 1.524 1_556 S
C895 C896 1.415 1_556 S
C896 H872 0.950 1_554 S
C896 C891 1.363 . S
C896 C895 1.415 1_554 S
C897 H873 0.951 . S
C897 C898 1.366 1_554 S
C897 C899 1.388 . S
C898 C897 1.366 1_556 S
C898 C902 1.385 . S
C899 H874 0.951 . S
C899 C897 1.388 . S
C899 C900 1.366 . S
C900 C899 1.366 . S
C900 C901 1.414 1_554 S
C900 C903 1.499 . S
C901 H875 0.950 . S
C901 C900 1.414 1_556 S
C901 C902 1.374 . S
C902 H876 0.950 . S
C902 C898 1.385 . S
C902 C901 1.374 . S
C903 C900 1.499 . S
C903 C904 1.373 . S
C903 C905 1.389 1_455 S
C904 H877 0.950 . S
C904 C890 1.377 . S
C904 C903 1.373 . S
C905 C889 1.377 . S
C905 C903 1.389 1_655 S
C905 C906 1.524 . S
C906 C905 1.524 . S
C906 C907 1.397 . S
C906 C911 1.363 . S
C907 H878 0.950 . S
C907 C906 1.397 . S
C907 C908 1.334 . S
C908 H879 0.950 . S
C908 C907 1.334 . S
C908 C909 1.287 . S
C909 C908 1.287 . S
C909 C910 1.524 . S
C909 H912 0.999 . S
C910 H880 0.950 . S
C910 C909 1.524 . S
C910 C911 1.415 . S
C911 H881 0.995 . S
C911 C906 1.363 . S
C911 C910 1.415 . S
H912 C909 0.999 . S
H913 C894 0.913 . S
H914 C932 0.951 . S
H915 C934 0.951 . S
H916 C936 0.950 . S
H917 C937 0.950 . S
H918 C939 0.950 . S
H919 C942 0.950 . S
H920 C943 0.950 . S
H921 C945 0.950 . S
H922 C946 0.950 . S
H923 C947 0.951 . S
H924 C949 0.951 . S
H925 C951 0.950 . S
H926 C952 0.950 . S
H927 C954 0.950 . S
H928 C957 0.950 . S
H929 C958 0.950 . S
H930 C960 0.950 . S
H931 C961 0.950 . S
C932 H914 0.951 . S
C932 C933 1.366 . S
C932 C934 1.388 . S
C933 C932 1.366 . S
C933 C937 1.385 1_565 S
C934 H915 0.951 . S
C934 C932 1.388 . S
C934 C935 1.366 1_565 S
C935 C934 1.366 1_545 S
C935 C936 1.414 . S
C935 C938 1.499 . S
C936 H916 0.950 . S
C936 C935 1.414 . S
C936 C937 1.374 . S
C937 H917 0.950 . S
C937 C933 1.385 1_545 S
C937 C936 1.374 . S
C938 C935 1.499 . S
C938 C939 1.373 . S
C938 C940 1.389 1_545 S
C939 H918 0.950 . S
C939 C938 1.373 . S
C939 C955 1.377 . S
C940 C938 1.389 1_565 S
C940 C941 1.524 . S
C940 C954 1.377 . S
C941 C940 1.524 . S
C941 C942 1.397 . S
C941 C946 1.363 . S
C942 H919 0.950 . S
C942 C941 1.397 . S
C942 C943 1.334 . S
C943 H920 0.950 . S
C943 C942 1.334 . S
C943 C944 1.287 . S
C944 C943 1.287 . S
C944 C945 1.524 . S
C944 H963 0.913 . S
C945 H921 0.950 . S
C945 C944 1.524 . S
C945 C946 1.415 . S
C946 H922 0.950 . S
C946 C941 1.363 . S
C946 C945 1.415 . S
C947 H923 0.951 . S
C947 C948 1.366 . S
C947 C949 1.388 . S
C948 C947 1.366 . S
C948 C952 1.385 1_556 S
C949 H924 0.951 . S
C949 C947 1.388 . S
C949 C950 1.366 1_556 S
C950 C949 1.366 1_554 S
C950 C951 1.414 . S
C950 C953 1.499 . S
C951 H925 0.950 . S
C951 C950 1.414 . S
C951 C952 1.374 . S
C952 H926 0.950 . S
C952 C948 1.385 1_554 S
C952 C951 1.374 . S
C953 C950 1.499 . S
C953 C954 1.373 1_545 S
C953 C955 1.389 . S
C954 H927 0.950 . S
C954 C940 1.377 . S
C954 C953 1.373 1_565 S
C955 C939 1.377 . S
C955 C953 1.389 . S
C955 C956 1.524 . S
C956 C955 1.524 . S
C956 C957 1.397 . S
C956 C961 1.363 1_554 S
C957 H928 0.950 . S
C957 C956 1.397 . S
C957 C958 1.334 . S
C958 H929 0.950 . S
C958 C957 1.334 . S
C958 C959 1.287 1_554 S
C959 C958 1.287 1_556 S
C959 C960 1.524 . S
C959 H962 0.999 . S
C960 H930 0.950 . S
C960 C959 1.524 . S
C960 C961 1.415 . S
C961 H931 0.950 . S
C961 C956 1.363 1_556 S
C961 C960 1.415 . S
H962 C959 0.999 . S
H963 C944 0.913 . S
H964 C982 0.951 . S
H965 C984 0.951 . S
H966 C986 0.950 . S
H967 C987 0.950 . S
H968 C989 0.950 . S
H969 C992 0.950 . S
H970 C993 0.950 . S
H971 C995 0.950 . S
H972 C996 0.950 . S
H973 C997 0.951 . S
H974 C999 0.951 . S
H975 C1001 0.950 . S
H976 C1002 0.950 . S
H977 C1004 0.950 . S
H978 C1007 0.950 . S
H979 C1008 0.950 . S
H980 C1010 0.950 . S
H981 C1011 0.950 . S
C982 H964 0.951 . S
C982 C983 1.366 . S
C982 C984 1.388 . S
C983 C982 1.366 . S
C983 C987 1.385 . S
C984 H965 0.951 . S
C984 C982 1.388 . S
C984 C985 1.366 . S
C985 C984 1.366 . S
C985 C986 1.414 . S
C985 C988 1.499 1_554 S
C986 H966 0.950 . S
C986 C985 1.414 . S
C986 C987 1.374 . S
C987 H967 0.950 . S
C987 C983 1.385 . S
C987 C986 1.374 . S
C988 C985 1.499 1_556 S
C988 C989 1.373 . S
C988 C990 1.388 1_556 S
C989 H968 0.950 . S
C989 C988 1.373 . S
C989 C1005 1.377 . S
C990 C988 1.388 1_554 S
C990 C991 1.529 . S
C990 C1004 1.374 1_554 S
C991 C990 1.529 . S
C991 C992 1.397 . S
C991 C996 1.363 . S
C992 H969 0.950 . S
C992 C991 1.397 . S
C992 C993 1.334 . S
C993 H970 0.950 . S
C993 C992 1.334 . S
C993 C994 1.287 . S
C994 C993 1.287 . S
C994 C995 1.524 . S
C994 H1013 0.913 . S
C995 H971 0.950 . S
C995 C994 1.524 . S
C995 C996 1.415 . S
C996 H972 0.950 . S
C996 C991 1.363 . S
C996 C995 1.415 . S
C997 H973 0.951 . S
C997 C998 1.366 . S
C997 C999 1.388 . S
C998 C997 1.366 . S
C998 C1002 1.385 . S
C999 H974 0.951 . S
C999 C997 1.388 . S
C999 C1000 1.366 . S
C1000 C999 1.366 . S
C1000 C1001 1.414 . S
C1000 C1003 1.499 . S
C1001 H975 0.950 . S
C1001 C1000 1.414 . S
C1001 C1002 1.374 . S
C1002 H976 0.950 . S
C1002 C998 1.385 . S
C1002 C1001 1.374 . S
C1003 C1000 1.499 . S
C1003 C1004 1.373 . S
C1003 C1005 1.389 . S
C1004 H977 0.950 . S
C1004 C990 1.374 1_556 S
C1004 C1003 1.373 . S
C1005 C989 1.377 . S
C1005 C1003 1.389 . S
C1005 C1006 1.524 . S
C1006 C1005 1.524 . S
C1006 C1007 1.397 . S
C1006 C1011 1.363 . S
C1007 H978 0.950 . S
C1007 C1006 1.397 . S
C1007 C1008 1.334 . S
C1008 H979 0.950 . S
C1008 C1007 1.334 . S
C1008 C1009 1.287 . S
C1009 C1008 1.287 . S
C1009 C1010 1.524 . S
C1009 H1012 0.999 . S
C1010 H980 0.950 . S
C1010 C1009 1.524 . S
C1010 C1011 1.415 . S
C1011 H981 0.950 . S
C1011 C1006 1.363 . S
C1011 C1010 1.415 . S
H1012 C1009 0.999 . S
H1013 C994 0.913 . S
H1014 C1032 0.951 . S
H1015 C1034 0.951 . S
H1016 C1036 0.950 . S
H1017 C1037 0.950 . S
H1018 C1039 0.950 . S
H1019 C1042 0.950 . S
H1020 C1043 0.950 . S
H1021 C1045 0.950 . S
H1022 C1046 0.950 . S
H1023 C1047 0.951 . S
H1024 C1049 0.951 . S
H1025 C1051 0.950 . S
H1026 C1052 0.950 1_556 S
H1027 C1054 0.950 . S
H1028 C1057 0.950 . S
H1029 C1058 0.950 . S
H1030 C1060 0.950 . S
H1031 C1061 0.950 . S
C1032 H1014 0.951 . S
C1032 C1033 1.366 . S
C1032 C1034 1.388 . S
C1033 C1032 1.366 . S
C1033 C1037 1.385 . S
C1034 H1015 0.951 . S
C1034 C1032 1.388 . S
C1034 C1035 1.366 . S
C1035 C1034 1.366 . S
C1035 C1036 1.414 . S
C1035 C1038 1.499 . S
C1036 H1016 0.950 . S
C1036 C1035 1.414 . S
C1036 C1037 1.374 . S
C1037 H1017 0.950 . S
C1037 C1033 1.385 . S
C1037 C1036 1.374 . S
C1038 C1035 1.499 . S
C1038 C1039 1.373 . S
C1038 C1040 1.389 . S
C1039 H1018 0.950 . S
C1039 C1038 1.373 . S
C1039 C1055 1.377 . S
C1040 C1038 1.389 . S
C1040 C1041 1.524 . S
C1040 C1054 1.377 . S
C1041 C1040 1.524 . S
C1041 C1042 1.397 . S
C1041 C1046 1.363 . S
C1042 H1019 0.950 . S
C1042 C1041 1.397 . S
C1042 C1043 1.334 . S
C1043 H1020 0.950 . S
C1043 C1042 1.334 . S
C1043 C1044 1.287 . S
C1044 C1043 1.287 . S
C1044 C1045 1.524 . S
C1044 H1063 0.913 . S
C1045 H1021 0.950 . S
C1045 C1044 1.524 . S
C1045 C1046 1.415 . S
C1046 H1022 0.950 . S
C1046 C1041 1.363 . S
C1046 C1045 1.415 . S
C1047 H1023 0.951 . S
C1047 C1048 1.366 . S
C1047 C1049 1.388 . S
C1048 C1047 1.366 . S
C1048 C1052 1.385 . S
C1049 H1024 0.951 . S
C1049 C1047 1.388 . S
C1049 C1050 1.366 . S
C1050 C1049 1.366 . S
C1050 C1051 1.414 . S
C1050 C1053 1.499 . S
C1051 H1025 0.950 . S
C1051 C1050 1.414 . S
C1051 C1052 1.374 . S
C1052 H1026 0.950 1_554 S
C1052 C1048 1.385 . S
C1052 C1051 1.374 . S
C1053 C1050 1.499 . S
C1053 C1054 1.373 . S
C1053 C1055 1.389 . S
C1054 H1027 0.950 . S
C1054 C1040 1.377 . S
C1054 C1053 1.373 . S
C1055 C1039 1.377 . S
C1055 C1053 1.389 . S
C1055 C1056 1.524 . S
C1056 C1055 1.524 . S
C1056 C1057 1.397 . S
C1056 C1061 1.363 . S
C1057 H1028 0.950 . S
C1057 C1056 1.397 . S
C1057 C1058 1.334 . S
C1058 H1029 0.950 . S
C1058 C1057 1.334 . S
C1058 C1059 1.287 . S
C1059 C1058 1.287 . S
C1059 C1060 1.524 . S
C1059 H1062 0.999 . S
C1060 H1030 0.950 . S
C1060 C1059 1.524 . S
C1060 C1061 1.415 . S
C1061 H1031 0.950 . S
C1061 C1056 1.363 . S
C1061 C1060 1.415 . S
H1062 C1059 0.999 . S
H1063 C1044 0.913 . S
H1064 C1082 0.917 1_655 S
H1065 C1084 0.951 1_655 S
H1066 C1086 0.950 . S
H1067 C1087 0.950 . S
H1068 C1089 0.950 . S
H1069 C1092 0.950 . S
H1070 C1093 0.950 . S
H1071 C1095 0.950 . S
H1072 C1096 0.950 . S
H1073 C1097 0.951 . S
H1074 C1099 0.951 . S
H1075 C1101 0.950 1_655 S
H1076 C1102 0.950 1_655 S
H1077 C1104 0.950 1_655 S
H1078 C1107 0.950 . S
H1079 C1108 0.950 . S
H1080 C1110 0.950 . S
H1081 C1111 0.950 . S
C1082 H1064 0.917 1_455 S
C1082 C1083 1.366 . S
C1082 C1084 1.388 . S
C1083 C1082 1.366 . S
C1083 C1087 1.385 1_556 S
C1084 H1065 0.951 1_455 S
C1084 C1082 1.388 . S
C1084 C1085 1.366 . S
C1085 C1084 1.366 . S
C1085 C1086 1.414 . S
C1085 C1088 1.499 . S
C1086 H1066 0.950 . S
C1086 C1085 1.414 . S
C1086 C1087 1.374 1_556 S
C1087 H1067 0.950 . S
C1087 C1083 1.385 1_554 S
C1087 C1086 1.374 1_554 S
C1088 C1085 1.499 . S
C1088 C1089 1.373 . S
C1088 C1090 1.389 . S
C1089 H1068 0.950 . S
C1089 C1088 1.373 . S
C1089 C1105 1.377 . S
C1090 C1088 1.389 . S
C1090 C1091 1.524 1_455 S
C1090 C1104 1.377 . S
C1091 C1090 1.524 1_655 S
C1091 C1092 1.397 1_556 S
C1091 C1096 1.363 . S
C1092 H1069 0.950 . S
C1092 C1091 1.397 1_554 S
C1092 C1093 1.334 . S
C1093 H1070 0.950 . S
C1093 C1092 1.334 . S
C1093 C1094 1.287 . S
C1094 C1093 1.287 . S
C1094 C1095 1.524 1_554 S
C1094 H1113 0.913 . S
C1095 H1071 0.950 . S
C1095 C1094 1.524 1_556 S
C1095 C1096 1.415 . S
C1096 H1072 0.950 . S
C1096 C1091 1.363 . S
C1096 C1095 1.415 . S
C1097 H1073 0.951 . S
C1097 C1098 1.366 . S
C1097 C1099 1.388 . S
C1098 C1097 1.366 . S
C1098 C1102 1.385 . S
C1099 H1074 0.951 . S
C1099 C1097 1.388 . S
C1099 C1100 1.366 . S
C1100 C1099 1.366 . S
C1100 C1101 1.414 . S
C1100 C1103 1.499 . S
C1101 H1075 0.950 1_455 S
C1101 C1100 1.414 . S
C1101 C1102 1.374 . S
C1102 H1076 0.950 1_455 S
C1102 C1098 1.385 . S
C1102 C1101 1.374 . S
C1103 C1100 1.499 . S
C1103 C1104 1.373 . S
C1103 C1105 1.389 . S
C1104 H1077 0.950 1_455 S
C1104 C1090 1.377 . S
C1104 C1103 1.373 . S
C1105 C1089 1.377 . S
C1105 C1103 1.389 . S
C1105 C1106 1.524 . S
C1106 C1105 1.524 . S
C1106 C1107 1.397 . S
C1106 C1111 1.363 . S
C1107 H1078 0.950 . S
C1107 C1106 1.397 . S
C1107 C1108 1.334 . S
C1108 H1079 0.950 . S
C1108 C1107 1.334 . S
C1108 C1109 1.287 . S
C1109 C1108 1.287 . S
C1109 C1110 1.524 . S
C1109 H1112 0.999 . S
C1110 H1080 0.950 . S
C1110 C1109 1.524 . S
C1110 C1111 1.415 . S
C1111 H1081 0.950 . S
C1111 C1106 1.363 . S
C1111 C1110 1.415 . S
H1112 C1109 0.999 . S
H1113 C1094 0.913 . S
H1114 C1132 0.951 . S
H1115 C1134 0.951 . S
H1116 C1136 0.954 . S
H1117 C1137 0.949 . S
H1118 C1139 0.950 . S
H1119 C1142 0.950 . S
H1120 C1143 0.950 . S
H1121 C1145 0.950 . S
H1122 C1146 0.950 . S
H1123 C1147 0.951 . S
H1124 C1149 0.951 . S
H1125 C1151 0.950 . S
H1126 C1152 0.950 . S
H1127 C1154 0.975 . S
H1128 C1157 0.950 . S
H1129 C1158 0.950 1_556 S
H1130 C1160 0.950 . S
H1131 C1161 0.950 . S
C1132 H1114 0.951 . S
C1132 C1133 1.366 1_556 S
C1132 C1134 1.388 . S
C1133 C1132 1.366 1_554 S
C1133 C1137 1.385 . S
C1134 H1115 0.951 . S
C1134 C1132 1.388 . S
C1134 C1135 1.366 1_556 S
C1135 C1134 1.366 1_554 S
C1135 C1136 1.414 . S
C1135 C1138 1.499 1_554 S
C1136 H1116 0.954 . S
C1136 C1135 1.414 . S
C1136 C1137 1.374 . S
C1137 H1117 0.949 . S
C1137 C1133 1.385 . S
C1137 C1136 1.374 . S
C1138 C1135 1.499 1_556 S
C1138 C1139 1.373 1_556 S
C1138 C1140 1.389 1_545 S
C1139 H1118 0.950 . S
C1139 C1138 1.373 1_554 S
C1139 C1155 1.377 1_554 S
C1140 C1138 1.389 1_565 S
C1140 C1141 1.524 . S
C1140 C1154 1.386 . S
C1141 C1140 1.524 . S
C1141 C1142 1.397 . S
C1141 C1146 1.363 . S
C1142 H1119 0.950 . S
C1142 C1141 1.397 . S
C1142 C1143 1.334 . S
C1143 H1120 0.950 . S
C1143 C1142 1.334 . S
C1143 C1144 1.287 . S
C1144 C1143 1.287 . S
C1144 C1145 1.524 . S
C1144 H1163 0.913 . S
C1145 H1121 0.950 . S
C1145 C1144 1.524 . S
C1145 C1146 1.415 . S
C1146 H1122 0.950 . S
C1146 C1141 1.363 . S
C1146 C1145 1.415 . S
C1147 H1123 0.951 . S
C1147 C1148 1.366 . S
C1147 C1149 1.388 . S
C1148 C1147 1.366 . S
C1148 C1152 1.385 . S
C1149 H1124 0.951 . S
C1149 C1147 1.388 . S
C1149 C1150 1.366 . S
C1150 C1149 1.366 . S
C1150 C1151 1.414 . S
C1150 C1153 1.499 . S
C1151 H1125 0.950 . S
C1151 C1150 1.414 . S
C1151 C1152 1.374 . S
C1152 H1126 0.950 . S
C1152 C1148 1.385 . S
C1152 C1151 1.374 . S
C1153 C1150 1.499 . S
C1153 C1154 1.342 1_545 S
C1153 C1155 1.389 . S
C1154 H1127 0.975 . S
C1154 C1140 1.386 . S
C1154 C1153 1.342 1_565 S
C1155 C1139 1.377 1_556 S
C1155 C1153 1.389 . S
C1155 C1156 1.524 1_556 S
C1156 C1155 1.524 1_554 S
C1156 C1157 1.397 1_554 S
C1156 C1161 1.363 . S
C1157 H1128 0.950 . S
C1157 C1156 1.397 1_556 S
C1157 C1158 1.334 1_556 S
C1158 H1129 0.950 1_554 S
C1158 C1157 1.334 1_554 S
C1158 C1159 1.287 . S
C1159 C1158 1.287 . S
C1159 C1160 1.524 . S
C1159 H1162 0.999 . S
C1160 H1130 0.950 . S
C1160 C1159 1.524 . S
C1160 C1161 1.415 . S
C1161 H1131 0.950 . S
C1161 C1156 1.363 . S
C1161 C1160 1.415 . S
H1162 C1159 0.999 . S
H1163 C1144 0.913 . S
H1164 C1182 0.951 . S
H1165 C1184 0.951 . S
H1166 C1186 0.950 . S
H1167 C1187 0.950 . S
H1168 C1189 0.950 . S
H1169 C1192 0.950 . S
H1170 C1193 0.950 . S
H1171 C1195 0.950 . S
H1172 C1196 0.950 . S
H1173 C1197 0.951 . S
H1174 C1199 0.951 . S
H1175 C1201 0.950 . S
H1176 C1202 0.950 . S
H1177 C1204 0.950 . S
H1178 C1207 0.950 . S
H1179 C1208 0.950 . S
H1180 C1210 0.950 . S
H1181 C1211 0.950 . S
C1182 H1164 0.951 . S
C1182 C1183 1.366 . S
C1182 C1184 1.388 . S
C1183 C1182 1.366 . S
C1183 C1187 1.385 . S
C1184 H1165 0.951 . S
C1184 C1182 1.388 . S
C1184 C1185 1.366 . S
C1185 C1184 1.366 . S
C1185 C1186 1.414 . S
C1185 C1188 1.499 . S
C1186 H1166 0.950 . S
C1186 C1185 1.414 . S
C1186 C1187 1.374 . S
C1187 H1167 0.950 . S
C1187 C1183 1.385 . S
C1187 C1186 1.374 . S
C1188 C1185 1.499 . S
C1188 C1189 1.373 . S
C1188 C1190 1.389 . S
C1189 H1168 0.950 . S
C1189 C1188 1.373 . S
C1189 C1205 1.377 1_554 S
C1190 C1188 1.389 . S
C1190 C1191 1.524 . S
C1190 C1204 1.377 . S
C1191 C1190 1.524 . S
C1191 C1192 1.397 . S
C1191 C1196 1.363 . S
C1192 H1169 0.950 . S
C1192 C1191 1.397 . S
C1192 C1193 1.334 . S
C1193 H1170 0.950 . S
C1193 C1192 1.334 . S
C1193 C1194 1.287 . S
C1194 C1193 1.287 . S
C1194 C1195 1.524 . S
C1194 H1213 0.913 . S
C1195 H1171 0.950 . S
C1195 C1194 1.524 . S
C1195 C1196 1.415 . S
C1196 H1172 0.950 . S
C1196 C1191 1.363 . S
C1196 C1195 1.415 . S
C1197 H1173 0.951 . S
C1197 C1198 1.366 . S
C1197 C1199 1.388 . S
C1198 C1197 1.366 . S
C1198 C1202 1.385 . S
C1199 H1174 0.951 . S
C1199 C1197 1.388 . S
C1199 C1200 1.366 . S
C1200 C1199 1.366 . S
C1200 C1201 1.414 . S
C1200 C1203 1.499 1_556 S
C1201 H1175 0.950 . S
C1201 C1200 1.414 . S
C1201 C1202 1.374 . S
C1202 H1176 0.950 . S
C1202 C1198 1.385 . S
C1202 C1201 1.374 . S
C1203 C1200 1.499 1_554 S
C1203 C1204 1.373 . S
C1203 C1205 1.389 1_554 S
C1204 H1177 0.950 . S
C1204 C1190 1.377 . S
C1204 C1203 1.373 . S
C1205 C1189 1.377 1_556 S
C1205 C1203 1.389 1_556 S
C1205 C1206 1.524 . S
C1206 C1205 1.524 . S
C1206 C1207 1.397 . S
C1206 C1211 1.363 . S
C1207 H1178 0.950 . S
C1207 C1206 1.397 . S
C1207 C1208 1.334 . S
C1208 H1179 0.950 . S
C1208 C1207 1.334 . S
C1208 C1209 1.287 . S
C1209 C1208 1.287 . S
C1209 C1210 1.524 . S
C1209 H1212 0.999 . S
C1210 H1180 0.950 . S
C1210 C1209 1.524 . S
C1210 C1211 1.415 . S
C1211 H1181 0.950 . S
C1211 C1206 1.363 . S
C1211 C1210 1.415 . S
H1212 C1209 0.999 . S
H1213 C1194 0.913 . S
H1214 C1232 0.951 . S
H1215 C1234 0.951 . S
H1216 C1236 0.950 . S
H1217 C1237 0.950 . S
H1218 C1239 0.950 . S
H1219 C1242 0.950 . S
H1220 C1243 0.950 . S
H1221 C1245 0.950 . S
H1222 C1246 0.946 1_556 S
H1223 C1247 0.951 . S
H1224 C1249 0.951 . S
H1225 C1251 0.950 . S
H1226 C1252 0.950 . S
H1227 C1254 0.950 . S
H1228 C1257 0.950 . S
H1229 C1258 0.950 . S
H1230 C1260 0.950 . S
H1231 C1261 0.950 . S
C1232 H1214 0.951 . S
C1232 C1233 1.366 . S
C1232 C1234 1.388 . S
C1233 C1232 1.366 . S
C1233 C1237 1.385 . S
C1234 H1215 0.951 . S
C1234 C1232 1.388 . S
C1234 C1235 1.366 . S
C1235 C1234 1.366 . S
C1235 C1236 1.414 . S
C1235 C1238 1.499 . S
C1236 H1216 0.950 . S
C1236 C1235 1.414 . S
C1236 C1237 1.374 . S
C1237 H1217 0.950 . S
C1237 C1233 1.385 . S
C1237 C1236 1.374 . S
C1238 C1235 1.499 . S
C1238 C1239 1.373 . S
C1238 C1240 1.389 . S
C1239 H1218 0.950 . S
C1239 C1238 1.373 . S
C1239 C1255 1.377 . S
C1240 C1238 1.389 . S
C1240 C1241 1.524 . S
C1240 C1254 1.377 . S
C1241 C1240 1.524 . S
C1241 C1242 1.397 . S
C1241 C1246 1.359 1_556 S
C1242 H1219 0.950 . S
C1242 C1241 1.397 . S
C1242 C1243 1.334 1_556 S
C1243 H1220 0.950 . S
C1243 C1242 1.334 1_554 S
C1243 C1244 1.287 . S
C1244 C1243 1.287 . S
C1244 C1245 1.524 . S
C1244 H1263 0.913 . S
C1245 H1221 0.950 . S
C1245 C1244 1.524 . S
C1245 C1246 1.423 . S
C1246 H1222 0.946 1_554 S
C1246 C1241 1.359 1_554 S
C1246 C1245 1.423 . S
C1247 H1223 0.951 . S
C1247 C1248 1.366 . S
C1247 C1249 1.388 . S
C1248 C1247 1.366 . S
C1248 C1252 1.385 . S
C1249 H1224 0.951 . S
C1249 C1247 1.388 . S
C1249 C1250 1.366 . S
C1250 C1249 1.366 . S
C1250 C1251 1.414 . S
C1250 C1253 1.499 . S
C1251 H1225 0.950 . S
C1251 C1250 1.414 . S
C1251 C1252 1.374 . S
C1252 H1226 0.950 . S
C1252 C1248 1.385 . S
C1252 C1251 1.374 . S
C1253 C1250 1.499 . S
C1253 C1254 1.373 . S
C1253 C1255 1.389 . S
C1254 H1227 0.950 . S
C1254 C1240 1.377 . S
C1254 C1253 1.373 . S
C1255 C1239 1.377 . S
C1255 C1253 1.389 . S
C1255 C1256 1.524 . S
C1256 C1255 1.524 . S
C1256 C1257 1.397 . S
C1256 C1261 1.363 . S
C1257 H1228 0.950 . S
C1257 C1256 1.397 . S
C1257 C1258 1.334 . S
C1258 H1229 0.950 . S
C1258 C1257 1.334 . S
C1258 C1259 1.287 . S
C1259 C1258 1.287 . S
C1259 C1260 1.524 . S
C1259 H1262 0.999 . S
C1260 H1230 0.950 . S
C1260 C1259 1.524 . S
C1260 C1261 1.415 . S
C1261 H1231 0.950 . S
C1261 C1256 1.363 . S
C1261 C1260 1.415 . S
H1262 C1259 0.999 . S
H1263 C1244 0.913 . S
H1264 C1282 0.951 . S
H1265 C1284 0.951 . S
H1266 C1286 0.950 . S
H1267 C1287 0.950 . S
H1268 C1289 0.950 . S
H1269 C1292 0.950 . S
H1270 C1293 0.950 . S
H1271 C1295 0.950 . S
H1272 C1296 0.950 . S
H1273 C1297 0.951 . S
H1274 C1299 0.951 . S
H1275 C1301 0.950 . S
H1276 C1302 0.950 . S
H1277 C1304 0.950 . S
H1278 C1307 0.950 1_455 S
H1279 C1308 0.952 . S
H1280 C1310 0.950 . S
H1281 C1311 0.950 . S
C1282 H1264 0.951 . S
C1282 C1283 1.366 1_455 S
C1282 C1284 1.388 . S
C1283 C1282 1.366 1_655 S
C1283 C1287 1.385 . S
C1284 H1265 0.951 . S
C1284 C1282 1.388 . S
C1284 C1285 1.366 1_455 S
C1285 C1284 1.366 1_655 S
C1285 C1286 1.414 . S
C1285 C1288 1.499 . S
C1286 H1266 0.950 . S
C1286 C1285 1.414 . S
C1286 C1287 1.374 . S
C1287 H1267 0.950 . S
C1287 C1283 1.385 . S
C1287 C1286 1.374 . S
C1288 C1285 1.499 . S
C1288 C1289 1.373 . S
C1288 C1290 1.389 1_655 S
C1289 H1268 0.950 . S
C1289 C1288 1.373 . S
C1289 C1305 1.377 . S
C1290 C1288 1.389 1_455 S
C1290 C1291 1.524 . S
C1290 C1304 1.377 . S
C1291 C1290 1.524 . S
C1291 C1292 1.397 1_455 S
C1291 C1296 1.363 . S
C1292 H1269 0.950 . S
C1292 C1291 1.397 1_655 S
C1292 C1293 1.334 . S
C1293 H1270 0.950 . S
C1293 C1292 1.334 . S
C1293 C1294 1.287 1_655 S
C1294 C1293 1.287 1_455 S
C1294 C1295 1.524 . S
C1294 H1313 0.913 . S
C1295 H1271 0.950 . S
C1295 C1294 1.524 . S
C1295 C1296 1.415 . S
C1296 H1272 0.950 . S
C1296 C1291 1.363 . S
C1296 C1295 1.415 . S
C1297 H1273 0.951 . S
C1297 C1298 1.366 . S
C1297 C1299 1.388 . S
C1298 C1297 1.366 . S
C1298 C1302 1.385 1_655 S
C1299 H1274 0.951 . S
C1299 C1297 1.388 . S
C1299 C1300 1.366 . S
C1300 C1299 1.366 . S
C1300 C1301 1.414 1_655 S
C1300 C1303 1.499 . S
C1301 H1275 0.950 . S
C1301 C1300 1.414 1_455 S
C1301 C1302 1.374 . S
C1302 H1276 0.950 . S
C1302 C1298 1.385 1_455 S
C1302 C1301 1.374 . S
C1303 C1300 1.499 . S
C1303 C1304 1.373 1_655 S
C1303 C1305 1.389 . S
C1304 H1277 0.950 . S
C1304 C1290 1.377 . S
C1304 C1303 1.373 1_455 S
C1305 C1289 1.377 . S
C1305 C1303 1.389 . S
C1305 C1306 1.524 . S
C1306 C1305 1.524 . S
C1306 C1307 1.397 . S
C1306 C1311 1.363 . S
C1307 H1278 0.950 1_655 S
C1307 C1306 1.397 . S
C1307 C1308 1.334 . S
C1308 H1279 0.952 . S
C1308 C1307 1.334 . S
C1308 C1309 1.287 . S
C1309 C1308 1.287 . S
C1309 C1310 1.524 . S
C1309 H1312 0.999 . S
C1310 H1280 0.950 . S
C1310 C1309 1.524 . S
C1310 C1311 1.415 . S
C1311 H1281 0.950 . S
C1311 C1306 1.363 . S
C1311 C1310 1.415 . S
H1312 C1309 0.999 . S
H1313 C1294 0.913 . S
H1314 C1332 0.951 . S
H1315 C1334 0.951 . S
H1316 C1336 0.951 . S
H1317 C1337 0.952 . S
H1318 C1339 0.950 . S
H1319 C1342 0.950 . S
H1320 C1343 0.950 . S
H1321 C1345 0.950 . S
H1322 C1346 0.950 . S
H1323 C1347 0.951 . S
H1324 C1349 0.951 . S
H1325 C1351 0.950 . S
H1326 C1352 0.950 . S
H1327 C1354 0.950 . S
H1328 C1357 0.950 . S
H1329 C1358 0.950 . S
H1330 C1360 0.950 . S
H1331 C1361 0.950 . S
C1332 H1314 0.951 . S
C1332 C1333 1.366 . S
C1332 C1334 1.388 . S
C1333 C1332 1.366 . S
C1333 C1337 1.384 1_565 S
C1334 H1315 0.951 . S
C1334 C1332 1.388 . S
C1334 C1335 1.366 . S
C1335 C1334 1.366 . S
C1335 C1336 1.413 1_565 S
C1335 C1338 1.499 . S
C1336 H1316 0.951 . S
C1336 C1335 1.413 1_545 S
C1336 C1337 1.374 . S
C1337 H1317 0.952 . S
C1337 C1333 1.384 1_545 S
C1337 C1336 1.374 . S
C1338 C1335 1.499 . S
C1338 C1339 1.373 . S
C1338 C1340 1.389 1_565 S
C1339 H1318 0.950 . S
C1339 C1338 1.373 . S
C1339 C1355 1.377 . S
C1340 C1338 1.389 1_545 S
C1340 C1341 1.524 . S
C1340 C1354 1.377 . S
C1341 C1340 1.524 . S
C1341 C1342 1.397 . S
C1341 C1346 1.363 . S
C1342 H1319 0.950 . S
C1342 C1341 1.397 . S
C1342 C1343 1.334 . S
C1343 H1320 0.950 . S
C1343 C1342 1.334 . S
C1343 C1344 1.287 . S
C1344 C1343 1.287 . S
C1344 C1345 1.524 . S
C1344 H1363 0.913 . S
C1345 H1321 0.950 . S
C1345 C1344 1.524 . S
C1345 C1346 1.415 . S
C1346 H1322 0.950 . S
C1346 C1341 1.363 . S
C1346 C1345 1.415 . S
C1347 H1323 0.951 . S
C1347 C1348 1.366 . S
C1347 C1349 1.388 . S
C1348 C1347 1.366 . S
C1348 C1352 1.385 . S
C1349 H1324 0.951 . S
C1349 C1347 1.388 . S
C1349 C1350 1.366 . S
C1350 C1349 1.366 . S
C1350 C1351 1.414 . S
C1350 C1353 1.499 . S
C1351 H1325 0.950 . S
C1351 C1350 1.414 . S
C1351 C1352 1.374 . S
C1352 H1326 0.950 . S
C1352 C1348 1.385 . S
C1352 C1351 1.374 . S
C1353 C1350 1.499 . S
C1353 C1354 1.373 1_565 S
C1353 C1355 1.389 . S
C1354 H1327 0.950 . S
C1354 C1340 1.377 . S
C1354 C1353 1.373 1_545 S
C1355 C1339 1.377 . S
C1355 C1353 1.389 . S
C1355 C1356 1.524 . S
C1356 C1355 1.524 . S
C1356 C1357 1.397 . S
C1356 C1361 1.363 . S
C1357 H1328 0.950 . S
C1357 C1356 1.397 . S
C1357 C1358 1.334 . S
C1358 H1329 0.950 . S
C1358 C1357 1.334 . S
C1358 C1359 1.287 . S
C1359 C1358 1.287 . S
C1359 C1360 1.524 . S
C1359 H1362 0.999 . S
C1360 H1330 0.950 . S
C1360 C1359 1.524 . S
C1360 C1361 1.415 . S
C1361 H1331 0.950 . S
C1361 C1356 1.363 . S
C1361 C1360 1.415 . S
H1362 C1359 0.999 . S
H1363 C1344 0.913 . S
H1364 C1382 0.951 . S
H1365 C1384 0.951 . S
H1366 C1386 0.950 . S
H1367 C1387 0.950 . S
H1368 C1389 0.950 . S
H1369 C1392 0.950 . S
H1370 C1393 0.950 . S
H1371 C1395 0.950 . S
H1372 C1396 0.950 . S
H1373 C1397 0.951 . S
H1374 C1399 0.951 . S
H1375 C1401 0.950 . S
H1376 C1402 0.950 . S
H1377 C1404 0.950 . S
H1378 C1407 0.950 . S
H1379 C1408 0.950 . S
H1380 C1410 0.950 . S
H1381 C1411 0.950 . S
C1382 H1364 0.951 . S
C1382 C1383 1.366 . S
C1382 C1384 1.388 . S
C1383 C1382 1.366 . S
C1383 C1387 1.385 . S
C1384 H1365 0.951 . S
C1384 C1382 1.388 . S
C1384 C1385 1.366 . S
C1385 C1384 1.366 . S
C1385 C1386 1.414 . S
C1385 C1388 1.499 . S
C1386 H1366 0.950 . S
C1386 C1385 1.414 . S
C1386 C1387 1.374 . S
C1387 H1367 0.950 . S
C1387 C1383 1.385 . S
C1387 C1386 1.374 . S
C1388 C1385 1.499 . S
C1388 C1389 1.373 . S
C1388 C1390 1.389 . S
C1389 H1368 0.950 . S
C1389 C1388 1.373 . S
C1389 C1405 1.377 . S
C1390 C1388 1.389 . S
C1390 C1391 1.524 . S
C1390 C1404 1.377 . S
C1391 C1390 1.524 . S
C1391 C1392 1.397 . S
C1391 C1396 1.363 . S
C1392 H1369 0.950 . S
C1392 C1391 1.397 . S
C1392 C1393 1.334 . S
C1393 H1370 0.950 . S
C1393 C1392 1.334 . S
C1393 C1394 1.287 . S
C1394 C1393 1.287 . S
C1394 C1395 1.524 . S
C1394 H1413 0.913 . S
C1395 H1371 0.950 . S
C1395 C1394 1.524 . S
C1395 C1396 1.415 . S
C1396 H1372 0.950 . S
C1396 C1391 1.363 . S
C1396 C1395 1.415 . S
C1397 H1373 0.951 . S
C1397 C1398 1.366 . S
C1397 C1399 1.388 . S
C1398 C1397 1.366 . S
C1398 C1402 1.385 . S
C1399 H1374 0.951 . S
C1399 C1397 1.388 . S
C1399 C1400 1.366 . S
C1400 C1399 1.366 . S
C1400 C1401 1.414 . S
C1400 C1403 1.499 . S
C1401 H1375 0.950 . S
C1401 C1400 1.414 . S
C1401 C1402 1.374 . S
C1402 H1376 0.950 . S
C1402 C1398 1.385 . S
C1402 C1401 1.374 . S
C1403 C1400 1.499 . S
C1403 C1404 1.373 . S
C1403 C1405 1.389 . S
C1404 H1377 0.950 . S
C1404 C1390 1.377 . S
C1404 C1403 1.373 . S
C1405 C1389 1.377 . S
C1405 C1403 1.389 . S
C1405 C1406 1.524 . S
C1406 C1405 1.524 . S
C1406 C1407 1.397 . S
C1406 C1411 1.363 . S
C1407 H1378 0.950 . S
C1407 C1406 1.397 . S
C1407 C1408 1.334 . S
C1408 H1379 0.950 . S
C1408 C1407 1.334 . S
C1408 C1409 1.287 . S
C1409 C1408 1.287 . S
C1409 C1410 1.524 . S
C1409 H1412 0.999 . S
C1410 H1380 0.950 . S
C1410 C1409 1.524 . S
C1410 C1411 1.415 . S
C1411 H1381 0.950 . S
C1411 C1406 1.363 . S
C1411 C1410 1.415 . S
H1412 C1409 0.999 . S
H1413 C1394 0.913 . S
H1414 C1432 0.951 . S
H1415 C1434 0.951 . S
H1416 C1436 0.950 . S
H1417 C1437 0.950 . S
H1418 C1439 0.950 . S
H1419 C1442 0.950 . S
H1420 C1443 0.950 . S
H1421 C1445 0.950 . S
H1422 C1446 0.950 . S
H1423 C1447 0.951 . S
H1424 C1449 0.951 . S
H1425 C1451 0.950 . S
H1426 C1452 0.950 . S
H1427 C1454 0.950 . S
H1428 C1457 0.950 . S
H1429 C1458 0.950 . S
H1430 C1460 0.950 . S
H1431 C1461 0.950 . S
C1432 H1414 0.951 . S
C1432 C1433 1.366 . S
C1432 C1434 1.388 . S
C1433 C1432 1.366 . S
C1433 C1437 1.385 . S
C1434 H1415 0.951 . S
C1434 C1432 1.388 . S
C1434 C1435 1.366 . S
C1435 C1434 1.366 . S
C1435 C1436 1.414 . S
C1435 C1438 1.499 . S
C1436 H1416 0.950 . S
C1436 C1435 1.414 . S
C1436 C1437 1.374 . S
C1437 H1417 0.950 . S
C1437 C1433 1.385 . S
C1437 C1436 1.374 . S
C1438 C1435 1.499 . S
C1438 C1439 1.373 . S
C1438 C1440 1.389 . S
C1439 H1418 0.950 . S
C1439 C1438 1.373 . S
C1439 C1455 1.377 . S
C1440 C1438 1.389 . S
C1440 C1441 1.524 . S
C1440 C1454 1.377 . S
C1441 C1440 1.524 . S
C1441 C1442 1.397 . S
C1441 C1446 1.363 . S
C1442 H1419 0.950 . S
C1442 C1441 1.397 . S
C1442 C1443 1.334 . S
C1443 H1420 0.950 . S
C1443 C1442 1.334 . S
C1443 C1444 1.287 . S
C1444 C1443 1.287 . S
C1444 C1445 1.524 . S
C1444 H1463 0.913 . S
C1445 H1421 0.950 . S
C1445 C1444 1.524 . S
C1445 C1446 1.415 . S
C1446 H1422 0.950 . S
C1446 C1441 1.363 . S
C1446 C1445 1.415 . S
C1447 H1423 0.951 . S
C1447 C1448 1.366 . S
C1447 C1449 1.388 . S
C1448 C1447 1.366 . S
C1448 C1452 1.385 . S
C1449 H1424 0.951 . S
C1449 C1447 1.388 . S
C1449 C1450 1.366 . S
C1450 C1449 1.366 . S
C1450 C1451 1.414 . S
C1450 C1453 1.499 . S
C1451 H1425 0.950 . S
C1451 C1450 1.414 . S
C1451 C1452 1.374 . S
C1452 H1426 0.950 . S
C1452 C1448 1.385 . S
C1452 C1451 1.374 . S
C1453 C1450 1.499 . S
C1453 C1454 1.373 . S
C1453 C1455 1.389 . S
C1454 H1427 0.950 . S
C1454 C1440 1.377 . S
C1454 C1453 1.373 . S
C1455 C1439 1.377 . S
C1455 C1453 1.389 . S
C1455 C1456 1.524 . S
C1456 C1455 1.524 . S
C1456 C1457 1.397 . S
C1456 C1461 1.363 . S
C1457 H1428 0.950 . S
C1457 C1456 1.397 . S
C1457 C1458 1.334 . S
C1458 H1429 0.950 . S
C1458 C1457 1.334 . S
C1458 C1459 1.287 . S
C1459 C1458 1.287 . S
C1459 C1460 1.524 . S
C1459 H1462 0.999 . S
C1460 H1430 0.950 . S
C1460 C1459 1.524 . S
C1460 C1461 1.415 . S
C1461 H1431 0.950 . S
C1461 C1456 1.363 . S
C1461 C1460 1.415 . S
H1462 C1459 0.999 . S
H1463 C1444 0.913 . S
C283 C82 1.751 . S
C298 C106 1.906 . S
C348 C146 2.061 . S
C333 C95 1.970 . S
C398 C210 1.833 . S
C383 C56 1.630 . S
C448 C226 1.450 . S
C433 C69 1.250 . S
C498 C127 1.899 . S
C483 C30 1.747 1_565 S
C533 C43 1.926 . S
C548 C167 2.061 . S
C583 C4 1.591 . S
C598 C201 1.832 . S
C633 C17 1.237 . S
C648 C247 1.450 . S
C698 C121 0.294 . S
C683 C74 0.301 . S
C748 C161 0.581 . S
C733 C87 0.593 . S
C798 C197 0.439 . S
C783 C100 0.450 . S
C833 C61 0.404 . S
C848 C241 0.457 . S
C883 C22 0.309 . S
C898 C130 0.296 . S
C948 C170 0.579 . S
C933 C35 0.592 . S
C998 C208 0.440 . S
C983 C48 0.456 . S
C1033 C9 0.413 . S
C1048 C250 0.459 . S
C1083 C73 1.799 1_556 S
C1098 C128 1.950 . S
C1133 C86 1.771 . S
C1148 C168 1.892 . S
C1198 C186 1.485 . S
C1183 C99 1.478 . S
C1248 C248 2.295 . S
C1233 C60 2.108 . S
C1283 C21 1.797 . S
C1298 C117 1.950 1_655 S
C1348 C157 1.891 . S
C1333 C34 1.777 . S
C1398 C207 1.485 . S
C1383 C47 1.474 . S
C1433 C8 2.104 . S
C1448 C237 2.294 . S
