# Generated by pormake.
# Topology pto, (3,4)-cn, num edge types: 1
# Building blocks:
#     Node 0, Type 0, BuildingBlock: VETTIZ_charged_linker_0, # of connection points: 3
#     Node 1, Type 0, BuildingBlock: VETTIZ_charged_linker_0, # of connection points: 3
#     Node 2, Type 0, BuildingBlock: VETTIZ_charged_linker_0, # of connection points: 3
#     Node 3, Type 0, BuildingBlock: VETTIZ_charged_linker_0, # of connection points: 3
#     Node 4, Type 0, BuildingBlock: VETTIZ_charged_linker_0, # of connection points: 3
#     Node 5, Type 0, BuildingBlock: VETTIZ_charged_linker_0, # of connection points: 3
#     Node 6, Type 0, BuildingBlock: VETTIZ_charged_linker_0, # of connection points: 3
#     Node 7, Type 0, BuildingBlock: VETTIZ_charged_linker_0, # of connection points: 3
#     Node 8, Type 1, BuildingBlock: KOZSID_clean_sbu_0, # of connection points: 4
#     Node 9, Type 1, BuildingBlock: KOZSID_clean_sbu_0, # of connection points: 4
#     Node 10, Type 1, BuildingBlock: KOZSID_clean_sbu_0, # of connection points: 4
#     Node 11, Type 1, BuildingBlock: KOZSID_clean_sbu_0, # of connection points: 4
#     Node 12, Type 1, BuildingBlock: KOZSID_clean_sbu_0, # of connection points: 4
#     Node 13, Type 1, BuildingBlock: KOZSID_clean_sbu_0, # of connection points: 4
#     Edge 14, Type (0, 1), BuildingBlock: CIFDUS_clean_linker_0, # of connection points: 2
#     Edge 15, Type (0, 1), BuildingBlock: CIFDUS_clean_linker_0, # of connection points: 2
#     Edge 16, Type (0, 1), BuildingBlock: CIFDUS_clean_linker_0, # of connection points: 2
#     Edge 17, Type (0, 1), BuildingBlock: CIFDUS_clean_linker_0, # of connection points: 2
#     Edge 18, Type (0, 1), BuildingBlock: CIFDUS_clean_linker_0, # of connection points: 2
#     Edge 19, Type (0, 1), BuildingBlock: CIFDUS_clean_linker_0, # of connection points: 2
#     Edge 20, Type (0, 1), BuildingBlock: CIFDUS_clean_linker_0, # of connection points: 2
#     Edge 21, Type (0, 1), BuildingBlock: CIFDUS_clean_linker_0, # of connection points: 2
#     Edge 22, Type (0, 1), BuildingBlock: CIFDUS_clean_linker_0, # of connection points: 2
#     Edge 23, Type (0, 1), BuildingBlock: CIFDUS_clean_linker_0, # of connection points: 2
#     Edge 24, Type (0, 1), BuildingBlock: CIFDUS_clean_linker_0, # of connection points: 2
#     Edge 25, Type (0, 1), BuildingBlock: CIFDUS_clean_linker_0, # of connection points: 2
#     Edge 26, Type (0, 1), BuildingBlock: CIFDUS_clean_linker_0, # of connection points: 2
#     Edge 27, Type (0, 1), BuildingBlock: CIFDUS_clean_linker_0, # of connection points: 2
#     Edge 28, Type (0, 1), BuildingBlock: CIFDUS_clean_linker_0, # of connection points: 2
#     Edge 29, Type (0, 1), BuildingBlock: CIFDUS_clean_linker_0, # of connection points: 2
#     Edge 30, Type (0, 1), BuildingBlock: CIFDUS_clean_linker_0, # of connection points: 2
#     Edge 31, Type (0, 1), BuildingBlock: CIFDUS_clean_linker_0, # of connection points: 2
#     Edge 32, Type (0, 1), BuildingBlock: CIFDUS_clean_linker_0, # of connection points: 2
#     Edge 33, Type (0, 1), BuildingBlock: CIFDUS_clean_linker_0, # of connection points: 2
#     Edge 34, Type (0, 1), BuildingBlock: CIFDUS_clean_linker_0, # of connection points: 2
#     Edge 35, Type (0, 1), BuildingBlock: CIFDUS_clean_linker_0, # of connection points: 2
#     Edge 36, Type (0, 1), BuildingBlock: CIFDUS_clean_linker_0, # of connection points: 2
#     Edge 37, Type (0, 1), BuildingBlock: CIFDUS_clean_linker_0, # of connection points: 2
# Relax obj value: 0.000
# Max RMSD: 0.024
# Mean RMSD: 0.010
data_MOF--net-pto--node1-KOZSID_clean_sbu_0--node2-VETTIZ_charged_linker_0--edge1-CIFDUS_clean_linker_0
_symmetry_space_group_name_H-M    P1
_symmetry_Int_Tables_number       1
_symmetry_cell_setting            triclinic
loop_
_symmetry_equiv_pos_as_xyz
'x, y, z'
_cell_length_a     42.159122
_cell_length_b     56.589728
_cell_length_c     49.532188
_cell_angle_alpha  87.476809
_cell_angle_beta   87.064679
_cell_angle_gamma 92.806726
loop_
_atom_site_label
_atom_site_type_symbol
_atom_site_fract_x
_atom_site_fract_y
_atom_site_fract_z
_atom_type_partial_charge
C0 C 0.24565 0.19076 0.37294 0.0
C1 C 0.25691 0.16831 0.36664 0.0
C2 C 0.26833 0.16527 0.33971 0.0
C3 C 0.26219 0.20651 0.32772 0.0
C4 C 0.24781 0.20937 0.35291 0.0
C5 C 0.23433 0.23362 0.35461 0.0
H6 H 0.20986 0.33966 0.28977 0.0
C7 C 0.26228 0.22907 0.31177 0.0
C8 C 0.24514 0.24503 0.32693 0.0
H9 H 0.17215 0.31467 0.36912 0.0
H10 H 0.20175 0.27898 0.36569 0.0
H11 H 0.20403 0.291 0.25939 0.0
H12 H 0.28013 0.32498 0.30026 0.0
H13 H 0.29837 0.30991 0.27398 0.0
H14 H 0.27233 0.33337 0.26601 0.0
H15 H 0.22471 0.31825 0.24735 0.0
H16 H 0.23947 0.29003 0.23901 0.0
C17 C 0.19769 0.23018 0.35816 0.0
C18 C 0.24972 0.24656 0.37784 0.0
C19 C 0.33364 0.23998 0.2261 0.0
C20 C 0.34104 0.2593 0.20774 0.0
C21 C 0.3245 0.28018 0.21054 0.0
C22 C 0.30173 0.28202 0.23196 0.0
C23 C 0.29533 0.26275 0.25071 0.0
C24 C 0.31087 0.24207 0.24731 0.0
C25 C 0.30057 0.22315 0.2686 0.0
C26 C 0.27789 0.23647 0.28654 0.0
C27 C 0.2747 0.25952 0.27585 0.0
C28 C 0.28328 0.20247 0.25466 0.0
C29 C 0.33031 0.21594 0.28347 0.0
C30 C 0.20782 0.3264 0.30631 0.0
C31 C 0.18823 0.32965 0.32948 0.0
C32 C 0.18692 0.31238 0.35098 0.0
C33 C 0.20381 0.29162 0.34881 0.0
C34 C 0.2223 0.28819 0.32495 0.0
C35 C 0.22469 0.30579 0.30454 0.0
C36 C 0.2468 0.29998 0.28131 0.0
C37 C 0.25554 0.27527 0.29013 0.0
C38 C 0.24114 0.26828 0.31573 0.0
C39 C 0.22801 0.29991 0.25524 0.0
C40 C 0.27588 0.31798 0.28004 0.0
H41 H 0.28101 0.18057 0.30088 0.0
H42 H 0.23561 0.19404 0.39285 0.0
H43 H 0.27582 0.24435 0.37709 0.0
H44 H 0.24672 0.26583 0.37656 0.0
H45 H 0.23968 0.23931 0.39785 0.0
H46 H 0.18881 0.21535 0.34609 0.0
H47 H 0.18998 0.22594 0.37968 0.0
H48 H 0.18531 0.24571 0.35077 0.0
H49 H 0.34545 0.22353 0.22402 0.0
H50 H 0.3298 0.29529 0.19658 0.0
H51 H 0.29018 0.29845 0.23322 0.0
H52 H 0.27691 0.2076 0.23376 0.0
H53 H 0.29838 0.18699 0.25314 0.0
H54 H 0.2603 0.19675 0.26547 0.0
H55 H 0.34389 0.23193 0.28982 0.0
H56 H 0.32456 0.20473 0.30197 0.0
H57 H 0.34639 0.20612 0.27004 0.0
H58 H 0.27485 0.14819 0.33294 0.0
C59 C 0.27146 0.18416 0.32059 0.0
C60 C 0.19866 0.69347 0.74439 0.0
C61 C 0.17734 0.68901 0.72406 0.0
C62 C 0.17166 0.70755 0.70519 0.0
C63 C 0.2084 0.73412 0.7269 0.0
C64 C 0.2138 0.71597 0.74542 0.0
C65 C 0.23706 0.72341 0.76582 0.0
H66 H 0.33363 0.80836 0.81494 0.0
C67 C 0.22795 0.75529 0.73374 0.0
C68 C 0.24472 0.74907 0.75659 0.0
H69 H 0.3178 0.73516 0.84358 0.0
H70 H 0.28086 0.72853 0.80899 0.0
H71 H 0.26115 0.81796 0.80387 0.0
H72 H 0.33875 0.79694 0.75198 0.0
H73 H 0.31804 0.81759 0.7332 0.0
H74 H 0.33653 0.82648 0.76345 0.0
H75 H 0.29359 0.83813 0.79209 0.0
H76 H 0.25898 0.83353 0.77261 0.0
C77 C 0.21968 0.72118 0.79423 0.0
C78 C 0.26649 0.70816 0.76267 0.0
C79 C 0.22679 0.83215 0.67624 0.0
C80 C 0.24238 0.8546 0.67789 0.0
C81 C 0.26253 0.85839 0.69933 0.0
C82 C 0.26729 0.84021 0.7186 0.0
C83 C 0.25179 0.81786 0.71654 0.0
C84 C 0.23177 0.81415 0.69573 0.0
C85 C 0.21705 0.78928 0.69704 0.0
C86 C 0.23189 0.77866 0.72182 0.0
C87 C 0.25228 0.7955 0.7331 0.0
C88 C 0.18056 0.79066 0.70146 0.0
C89 C 0.22776 0.7772 0.67088 0.0
C90 C 0.32239 0.79085 0.81368 0.0
C91 C 0.32861 0.77233 0.83231 0.0
C92 C 0.31309 0.74991 0.82995 0.0
C93 C 0.29176 0.74601 0.80964 0.0
C94 C 0.28585 0.76467 0.79122 0.0
C95 C 0.30112 0.78661 0.79337 0.0
C96 C 0.2923 0.8042 0.77168 0.0
C97 C 0.26916 0.78919 0.75625 0.0
C98 C 0.26544 0.76609 0.76784 0.0
C99 C 0.27582 0.82469 0.78558 0.0
C100 C 0.32287 0.81196 0.75415 0.0
H101 H 0.18185 0.74332 0.69147 0.0
H102 H 0.20326 0.67979 0.75947 0.0
H103 H 0.27099 0.70358 0.74124 0.0
H104 H 0.28875 0.71753 0.768 0.0
H105 H 0.26304 0.69129 0.77505 0.0
H106 H 0.19461 0.72631 0.79319 0.0
H107 H 0.21923 0.70268 0.80278 0.0
H108 H 0.23022 0.73311 0.80876 0.0
H109 H 0.21088 0.8287 0.66022 0.0
H110 H 0.27518 0.87536 0.70092 0.0
H111 H 0.28306 0.84426 0.73426 0.0
H112 H 0.1746 0.80535 0.71473 0.0
H113 H 0.16928 0.79391 0.68195 0.0
H114 H 0.1691 0.7746 0.71194 0.0
H115 H 0.25308 0.78228 0.66498 0.0
H116 H 0.22666 0.7577 0.67326 0.0
H117 H 0.21326 0.78257 0.65376 0.0
H118 H 0.1556 0.70458 0.68916 0.0
C119 C 0.18707 0.73002 0.70648 0.0
C120 C 0.8558 0.71071 0.32621 0.0
C121 C 0.85723 0.69237 0.30794 0.0
C122 C 0.8374 0.69262 0.28591 0.0
C123 C 0.81533 0.72907 0.30027 0.0
C124 C 0.83494 0.72899 0.32182 0.0
C125 C 0.83152 0.75065 0.33823 0.0
H126 H 0.75559 0.85181 0.36087 0.0
C127 C 0.79675 0.75055 0.30112 0.0
C128 C 0.80622 0.7634 0.32327 0.0
H129 H 0.83282 0.82423 0.40448 0.0
H130 H 0.83501 0.79108 0.37501 0.0
H131 H 0.71735 0.80134 0.35256 0.0
H132 H 0.78661 0.84512 0.30422 0.0
H133 H 0.76185 0.83196 0.28114 0.0
H134 H 0.74527 0.85129 0.30564 0.0
H135 H 0.7093 0.82963 0.33728 0.0
H136 H 0.70469 0.80282 0.31926 0.0
C137 C 0.81969 0.74243 0.36735 0.0
C138 C 0.86382 0.76507 0.33644 0.0
C139 C 0.71416 0.76493 0.23134 0.0
C140 C 0.69341 0.78335 0.22697 0.0
C141 C 0.6939 0.8024 0.24443 0.0
C142 C 0.7142 0.80299 0.26591 0.0
C143 C 0.73458 0.78443 0.27009 0.0
C144 C 0.73452 0.7659 0.25287 0.0
C145 C 0.75844 0.74806 0.26012 0.0
C146 C 0.77273 0.75897 0.28457 0.0
C147 C 0.75848 0.78017 0.29035 0.0
C148 C 0.74012 0.72411 0.26778 0.0
C149 C 0.78321 0.74728 0.23596 0.0
C150 C 0.77277 0.83849 0.36417 0.0
C151 C 0.79378 0.84036 0.38512 0.0
C152 C 0.81637 0.82304 0.38844 0.0
C153 C 0.81754 0.80385 0.37135 0.0
C154 C 0.79621 0.80218 0.35047 0.0
C155 C 0.77462 0.81955 0.34702 0.0
C156 C 0.75496 0.81583 0.323 0.0
C157 C 0.76785 0.79314 0.31276 0.0
C158 C 0.79178 0.78498 0.32903 0.0
C159 C 0.71964 0.81235 0.33331 0.0
C160 C 0.76221 0.83713 0.3024 0.0
H161 H 0.80195 0.70984 0.2649 0.0
H162 H 0.87114 0.71112 0.34309 0.0
H163 H 0.87662 0.7633 0.31647 0.0
H164 H 0.86111 0.7843 0.33791 0.0
H165 H 0.8795 0.75885 0.35235 0.0
H166 H 0.80019 0.72849 0.36697 0.0
H167 H 0.83921 0.73487 0.37866 0.0
H168 H 0.8097 0.75676 0.37897 0.0
H169 H 0.71439 0.74994 0.2185 0.0
H170 H 0.6788 0.81711 0.24132 0.0
H171 H 0.71323 0.81797 0.27839 0.0
H172 H 0.71777 0.72692 0.27989 0.0
H173 H 0.73355 0.71484 0.2494 0.0
H174 H 0.75349 0.71214 0.28062 0.0
H175 H 0.78638 0.76476 0.22469 0.0
H176 H 0.80725 0.74353 0.2424 0.0
H177 H 0.7757 0.73399 0.22141 0.0
H178 H 0.83805 0.67863 0.27167 0.0
C179 C 0.81642 0.71075 0.28205 0.0
C180 C 0.70568 0.26987 0.83388 0.0
C181 C 0.68651 0.24914 0.84019 0.0
C182 C 0.68795 0.23025 0.82261 0.0
C183 C 0.7276 0.25268 0.79337 0.0
C184 C 0.72584 0.27128 0.81044 0.0
C185 C 0.7472 0.29227 0.80054 0.0
H186 H 0.85508 0.34326 0.7071 0.0
C187 C 0.75122 0.25979 0.77099 0.0
C188 C 0.76271 0.28297 0.77505 0.0
H189 H 0.8112 0.37406 0.77721 0.0
H190 H 0.78186 0.33731 0.78917 0.0
H191 H 0.7905 0.31431 0.68912 0.0
H192 H 0.86777 0.29343 0.73717 0.0
H193 H 0.85647 0.26912 0.71836 0.0
H194 H 0.87204 0.29628 0.70093 0.0
H195 H 0.83066 0.31279 0.67556 0.0
H196 H 0.80382 0.28702 0.67837 0.0
C197 C 0.72604 0.3133 0.79422 0.0
C198 C 0.77169 0.297 0.8222 0.0
C199 C 0.77711 0.20165 0.69884 0.0
C200 C 0.79996 0.20217 0.67718 0.0
C201 C 0.82037 0.2225 0.67201 0.0
C202 C 0.81776 0.24223 0.68805 0.0
C203 C 0.79477 0.24148 0.70972 0.0
C204 C 0.77523 0.22127 0.715 0.0
C205 C 0.75376 0.22291 0.73994 0.0
C206 C 0.76317 0.24757 0.74852 0.0
C207 C 0.78691 0.25854 0.73057 0.0
C208 C 0.71888 0.22104 0.7315 0.0
C209 C 0.7623 0.20343 0.76098 0.0
C210 C 0.83925 0.34198 0.72508 0.0
C211 C 0.8352 0.36173 0.74105 0.0
C212 C 0.81429 0.35932 0.76426 0.0
C213 C 0.79735 0.33788 0.77127 0.0
C214 C 0.80116 0.31846 0.75494 0.0
C215 C 0.82188 0.32061 0.73231 0.0
C216 C 0.82254 0.29797 0.71737 0.0
C217 C 0.79827 0.28218 0.73445 0.0
C218 C 0.78606 0.2943 0.75651 0.0
C219 C 0.8115 0.30314 0.68848 0.0
C220 C 0.85644 0.28865 0.71822 0.0
H221 H 0.70849 0.21687 0.78681 0.0
H222 H 0.70466 0.28487 0.84669 0.0
H223 H 0.77996 0.28004 0.83086 0.0
H224 H 0.79349 0.30694 0.81397 0.0
H225 H 0.76105 0.30674 0.83913 0.0
H226 H 0.70197 0.30699 0.78855 0.0
H227 H 0.72283 0.32438 0.81201 0.0
H228 H 0.73552 0.32465 0.77661 0.0
H229 H 0.7616 0.18601 0.70354 0.0
H230 H 0.83823 0.22312 0.65543 0.0
H231 H 0.83384 0.25725 0.68307 0.0
H232 H 0.71649 0.23064 0.71168 0.0
H233 H 0.71071 0.20228 0.72942 0.0
H234 H 0.70222 0.2293 0.74573 0.0
H235 H 0.78809 0.20006 0.75917 0.0
H236 H 0.75811 0.20847 0.7821 0.0
H237 H 0.74889 0.18642 0.75806 0.0
H238 H 0.6735 0.21406 0.8271 0.0
C239 C 0.70841 0.23188 0.7993 0.0
C240 C 0.78867 0.84399 0.67475 0.0
C241 C 0.77311 0.86512 0.6785 0.0
C242 C 0.75447 0.86733 0.70266 0.0
C243 C 0.76689 0.82774 0.71845 0.0
C244 C 0.78535 0.82571 0.69486 0.0
C245 C 0.80079 0.80234 0.69401 0.0
H246 H 0.83165 0.69792 0.75645 0.0
C247 C 0.76868 0.80553 0.73524 0.0
C248 C 0.78869 0.79065 0.72099 0.0
H249 H 0.86372 0.72461 0.67589 0.0
H250 H 0.83452 0.75963 0.68189 0.0
H251 H 0.83803 0.74671 0.78612 0.0
H252 H 0.75998 0.71084 0.74976 0.0
H253 H 0.74351 0.72413 0.77819 0.0
H254 H 0.77236 0.7019 0.78261 0.0
H255 H 0.81801 0.72011 0.80077 0.0
H256 H 0.8041 0.74893 0.80783 0.0
C257 C 0.83732 0.80732 0.69266 0.0
C258 C 0.78817 0.78889 0.66981 0.0
C259 C 0.707 0.794 0.82677 0.0
C260 C 0.7052 0.77547 0.84686 0.0
C261 C 0.72289 0.75533 0.84254 0.0
C262 C 0.74205 0.75363 0.81886 0.0
C263 C 0.74376 0.77225 0.79906 0.0
C264 C 0.7265 0.79206 0.80315 0.0
C265 C 0.73196 0.81025 0.77996 0.0
C266 C 0.75474 0.79782 0.76114 0.0
C267 C 0.76152 0.77558 0.77253 0.0
C268 C 0.74772 0.83294 0.7909 0.0
C269 C 0.69974 0.81399 0.76721 0.0
C270 C 0.8322 0.7111 0.7399 0.0
C271 C 0.85054 0.70837 0.71574 0.0
C272 C 0.85056 0.72632 0.69499 0.0
C273 C 0.83333 0.74666 0.69842 0.0
C274 C 0.81554 0.7492 0.7228 0.0
C275 C 0.81481 0.73141 0.74286 0.0
C276 C 0.79357 0.73665 0.76696 0.0
C277 C 0.78216 0.76075 0.75829 0.0
C278 C 0.79535 0.76811 0.73253 0.0
C279 C 0.81423 0.73805 0.79189 0.0
C280 C 0.76596 0.7174 0.76984 0.0
H281 H 0.73651 0.85147 0.7404 0.0
H282 H 0.80351 0.84179 0.65662 0.0
H283 H 0.76326 0.79323 0.66611 0.0
H284 H 0.78709 0.76945 0.67346 0.0
H285 H 0.80284 0.79364 0.65091 0.0
H286 H 0.84394 0.82192 0.70595 0.0
H287 H 0.84638 0.81268 0.67172 0.0
H288 H 0.85042 0.7921 0.69995 0.0
H289 H 0.69396 0.80981 0.82958 0.0
H290 H 0.72164 0.74068 0.85745 0.0
H291 H 0.75483 0.73782 0.81693 0.0
H292 H 0.76391 0.82846 0.80721 0.0
H293 H 0.72956 0.84449 0.79948 0.0
H294 H 0.76298 0.84327 0.77539 0.0
H295 H 0.68624 0.79675 0.76568 0.0
H296 H 0.7024 0.82179 0.74636 0.0
H297 H 0.68481 0.82544 0.77971 0.0
H298 H 0.74198 0.88331 0.70598 0.0
C299 C 0.7512 0.84876 0.72258 0.0
C300 C 0.8118 0.20267 0.3759 0.0
C301 C 0.7963 0.1808 0.37075 0.0
C302 C 0.77519 0.17995 0.34959 0.0
C303 C 0.78544 0.22192 0.33893 0.0
C304 C 0.80618 0.22292 0.35965 0.0
C305 C 0.82128 0.2475 0.36159 0.0
H306 H 0.83398 0.36257 0.31447 0.0
C307 C 0.78482 0.24585 0.32576 0.0
C308 C 0.80586 0.26101 0.33889 0.0
H309 H 0.88477 0.33067 0.37911 0.0
H310 H 0.85795 0.29261 0.37249 0.0
H311 H 0.76676 0.33731 0.33126 0.0
H312 H 0.84202 0.3209 0.27441 0.0
H313 H 0.80624 0.31485 0.25884 0.0
H314 H 0.8162 0.34462 0.26831 0.0
H315 H 0.77409 0.35329 0.29929 0.0
H316 H 0.7483 0.32681 0.30287 0.0
C317 C 0.81166 0.25658 0.38969 0.0
C318 C 0.85761 0.2463 0.35598 0.0
C319 C 0.71303 0.26004 0.24744 0.0
C320 C 0.70678 0.28047 0.23172 0.0
C321 C 0.72272 0.30214 0.23694 0.0
C322 C 0.74439 0.30351 0.25739 0.0
C323 C 0.75032 0.28301 0.27299 0.0
C324 C 0.73471 0.26175 0.26796 0.0
C325 C 0.74375 0.24191 0.28688 0.0
C326 C 0.76746 0.25477 0.30397 0.0
C327 C 0.77122 0.2788 0.29566 0.0
C328 C 0.71344 0.23262 0.30388 0.0
C329 C 0.75964 0.22306 0.26969 0.0
C330 C 0.83914 0.34748 0.32743 0.0
C331 C 0.86134 0.34974 0.3475 0.0
C332 C 0.86786 0.32942 0.36344 0.0
C333 C 0.85217 0.30736 0.35962 0.0
C334 C 0.82987 0.3055 0.3395 0.0
C335 C 0.8239 0.32543 0.32378 0.0
C336 C 0.80003 0.32039 0.30304 0.0
C337 C 0.79246 0.29415 0.30882 0.0
C338 C 0.80985 0.28539 0.33025 0.0
C339 C 0.77076 0.33526 0.30912 0.0
C340 C 0.81667 0.32556 0.27459 0.0
H341 H 0.75331 0.19832 0.31805 0.0
H342 H 0.82836 0.20388 0.39185 0.0
H343 H 0.86292 0.23354 0.34009 0.0
H344 H 0.86907 0.26333 0.34805 0.0
H345 H 0.86935 0.2404 0.3745 0.0
H346 H 0.78611 0.25193 0.3951 0.0
H347 H 0.82583 0.24849 0.40565 0.0
H348 H 0.81428 0.27602 0.39043 0.0
H349 H 0.70097 0.24315 0.24414 0.0
H350 H 0.71869 0.31808 0.22494 0.0
H351 H 0.75572 0.32055 0.26021 0.0
H352 H 0.6978 0.24736 0.30852 0.0
H353 H 0.69939 0.21943 0.29282 0.0
H354 H 0.71863 0.22473 0.32385 0.0
H355 H 0.77384 0.23157 0.252 0.0
H356 H 0.77683 0.21286 0.28088 0.0
H357 H 0.74155 0.2106 0.2618 0.0
H358 H 0.76261 0.16347 0.34541 0.0
C359 C 0.76967 0.20028 0.33376 0.0
C360 C 0.25656 0.19683 0.70326 0.0
C361 C 0.23238 0.19462 0.68488 0.0
C362 C 0.2119 0.21336 0.68138 0.0
C363 C 0.24052 0.2363 0.7135 0.0
C364 C 0.26003 0.21763 0.71744 0.0
C365 C 0.28373 0.22241 0.7385 0.0
H366 H 0.34801 0.29788 0.82573 0.0
C367 C 0.2511 0.25562 0.73072 0.0
C368 C 0.27644 0.24752 0.74543 0.0
H369 H 0.3679 0.22448 0.81614 0.0
H370 H 0.33071 0.22205 0.78055 0.0
H371 H 0.2719 0.28963 0.8232 0.0
H372 H 0.3467 0.3132 0.76472 0.0
H373 H 0.31308 0.3277 0.75465 0.0
H374 H 0.32879 0.33331 0.78718 0.0
H375 H 0.29474 0.31718 0.82418 0.0
H376 H 0.25952 0.31483 0.80537 0.0
C377 C 0.2762 0.20451 0.76289 0.0
C378 C 0.31759 0.22119 0.72519 0.0
C379 C 0.19599 0.33415 0.73037 0.0
C380 C 0.20268 0.35563 0.74294 0.0
C381 C 0.23055 0.35785 0.75748 0.0
C382 C 0.25011 0.33885 0.76094 0.0
C383 C 0.24223 0.31725 0.74956 0.0
C384 C 0.21628 0.31533 0.73372 0.0
C385 C 0.2135 0.29142 0.72141 0.0
C386 C 0.24114 0.27911 0.73361 0.0
C387 C 0.25744 0.29431 0.75043 0.0
C388 C 0.18104 0.27919 0.73111 0.0
C389 C 0.21833 0.29529 0.6903 0.0
C390 C 0.3446 0.28137 0.81573 0.0
C391 C 0.36093 0.26137 0.82362 0.0
C392 C 0.35542 0.24007 0.81047 0.0
C393 C 0.33382 0.23871 0.78986 0.0
C394 C 0.31718 0.25877 0.78254 0.0
C395 C 0.32272 0.2796 0.79548 0.0
C396 C 0.30191 0.29881 0.78612 0.0
C397 C 0.28259 0.28599 0.76567 0.0
C398 C 0.29183 0.26264 0.76343 0.0
C399 C 0.28093 0.30571 0.81089 0.0
C400 C 0.32354 0.31946 0.7726 0.0
H401 H 0.1997 0.24787 0.69184 0.0
H402 H 0.2722 0.18251 0.70678 0.0
H403 H 0.31942 0.23088 0.70508 0.0
H404 H 0.33615 0.22953 0.73708 0.0
H405 H 0.32346 0.20255 0.72207 0.0
H406 H 0.25073 0.1982 0.76423 0.0
H407 H 0.29064 0.18869 0.76123 0.0
H408 H 0.27996 0.21248 0.78255 0.0
H409 H 0.17514 0.33176 0.71872 0.0
H410 H 0.23733 0.37436 0.76639 0.0
H411 H 0.27052 0.34171 0.77264 0.0
H412 H 0.1756 0.28223 0.75286 0.0
H413 H 0.16151 0.28627 0.71943 0.0
H414 H 0.18053 0.25977 0.7297 0.0
H415 H 0.23614 0.31011 0.68484 0.0
H416 H 0.22793 0.27986 0.68042 0.0
H417 H 0.19576 0.29975 0.68112 0.0
H418 H 0.19308 0.21201 0.66735 0.0
C419 C 0.21592 0.2342 0.69548 0.0
C420 C 0.19072 0.70464 0.33468 0.0
C421 C 0.19103 0.68414 0.31949 0.0
C422 C 0.21278 0.68375 0.29691 0.0
C423 C 0.23336 0.72343 0.30509 0.0
C424 C 0.21203 0.72396 0.32717 0.0
C425 C 0.21499 0.74707 0.34111 0.0
H426 H 0.29294 0.85397 0.35174 0.0
C427 C 0.25238 0.7462 0.3028 0.0
C428 C 0.2418 0.76016 0.32391 0.0
H429 H 0.21195 0.82413 0.40086 0.0
H430 H 0.21036 0.78946 0.37392 0.0
H431 H 0.26463 0.84092 0.296 0.0
H432 H 0.33022 0.80539 0.34556 0.0
H433 H 0.34492 0.80514 0.31169 0.0
H434 H 0.34015 0.83305 0.3272 0.0
H435 H 0.30556 0.85104 0.2967 0.0
H436 H 0.29269 0.82899 0.27379 0.0
C437 C 0.18319 0.7595 0.33916 0.0
C438 C 0.22456 0.74166 0.37041 0.0
C439 C 0.3384 0.7608 0.22702 0.0
C440 C 0.36044 0.77987 0.22004 0.0
C441 C 0.36044 0.79987 0.23609 0.0
C442 C 0.3391 0.80086 0.25862 0.0
C443 C 0.31732 0.78165 0.26537 0.0
C444 C 0.31721 0.76206 0.24966 0.0
C445 C 0.29254 0.74326 0.26003 0.0
C446 C 0.27762 0.75493 0.28432 0.0
C447 C 0.29227 0.7774 0.28737 0.0
C448 C 0.26857 0.73952 0.23773 0.0
C449 C 0.30995 0.72081 0.2685 0.0
C450 C 0.27502 0.83986 0.35676 0.0
C451 C 0.25272 0.84164 0.37859 0.0
C452 C 0.22933 0.82315 0.38412 0.0
C453 C 0.22854 0.80301 0.36851 0.0
C454 C 0.2512 0.80137 0.3469 0.0
C455 C 0.27362 0.8198 0.34111 0.0
C456 C 0.2948 0.81562 0.31658 0.0
C457 C 0.28189 0.79143 0.30892 0.0
C458 C 0.25655 0.78301 0.32691 0.0
C459 C 0.2895 0.83516 0.29456 0.0
C460 C 0.32945 0.81488 0.32546 0.0
H461 H 0.24966 0.70169 0.27224 0.0
H462 H 0.17449 0.70556 0.35222 0.0
H463 H 0.24294 0.72821 0.37073 0.0
H464 H 0.23529 0.75723 0.3798 0.0
H465 H 0.20375 0.73455 0.38345 0.0
H466 H 0.17182 0.75557 0.31996 0.0
H467 H 0.16607 0.75346 0.35615 0.0
H468 H 0.18636 0.77901 0.33869 0.0
H469 H 0.33793 0.74504 0.21538 0.0
H470 H 0.37679 0.81496 0.23103 0.0
H471 H 0.34041 0.81659 0.26992 0.0
H472 H 0.26408 0.75665 0.22706 0.0
H473 H 0.2778 0.72751 0.22235 0.0
H474 H 0.24493 0.73248 0.24581 0.0
H475 H 0.33344 0.72562 0.27657 0.0
H476 H 0.29704 0.71005 0.28509 0.0
H477 H 0.31425 0.70954 0.25101 0.0
H478 H 0.21323 0.66848 0.28449 0.0
C479 C 0.23385 0.70319 0.28967 0.0
C480 C 0.0786 0.55077 0.36735 0.0
C481 C 0.09012 0.55879 0.39123 0.0
C482 C 0.07307 0.54646 0.41189 0.0
C483 C 0.05231 0.53158 0.39951 0.0
N484 N 0.05518 0.53355 0.37217 0.0
Co485 Co 0.02954 0.51527 0.34628 0.0
N486 N 0.00293 0.49844 0.37667 0.0
C487 C 0.00397 0.50235 0.40335 0.0
C488 C 0.9835 0.48752 0.41941 0.0
C489 C 0.96887 0.47303 0.40198 0.0
C490 C 0.98139 0.47986 0.37623 0.0
N491 N 0.0047 0.49631 0.32045 0.0
C492 C 0.98358 0.47758 0.32544 0.0
C493 C 0.97355 0.46826 0.30168 0.0
C494 C 0.98937 0.48126 0.28089 0.0
C495 C 0.00812 0.49765 0.29312 0.0
N496 N 0.05544 0.53263 0.31581 0.0
C497 C 0.05202 0.53044 0.28901 0.0
C498 C 0.0719 0.54557 0.27286 0.0
C499 C 0.08879 0.55847 0.29036 0.0
C500 C 0.07828 0.55034 0.3163 0.0
N501 N 0.06034 0.48977 0.34757 0.0
C502 C 0.09873 0.45014 0.34911 0.0
C503 C 0.09294 0.46202 0.32459 0.0
C504 C 0.07383 0.48155 0.32428 0.0
C505 C 0.0859 0.45916 0.37291 0.0
C506 C 0.06722 0.47891 0.37171 0.0
N507 N 0.99855 0.54083 0.345 0.0
C508 C 0.96504 0.5663 0.3196 0.0
C509 C 0.95827 0.57944 0.34228 0.0
C510 C 0.97142 0.57241 0.36653 0.0
C511 C 0.99104 0.55318 0.36747 0.0
C512 C 0.98504 0.54733 0.32137 0.0
H513 H 1.00017 0.54891 0.3866 0.0
H514 H 0.98936 0.53837 0.30322 0.0
H515 H 0.0699 0.4895 0.3049 0.0
H516 H 0.05803 0.48477 0.39058 0.0
C517 C 0.02777 0.51738 0.41287 0.0
C518 C 0.08999 0.56059 0.34068 0.0
C519 C 0.97366 0.46727 0.3522 0.0
C520 C 0.03009 0.51387 0.27961 0.0
H521 H 0.10849 0.57251 0.39347 0.0
H522 H 0.0749 0.54863 0.43337 0.0
H523 H 0.98082 0.48648 0.44129 0.0
H524 H 0.95181 0.45851 0.40761 0.0
H525 H 0.95711 0.45323 0.29961 0.0
H526 H 0.98809 0.47862 0.25946 0.0
H527 H 0.07366 0.5472 0.25098 0.0
H528 H 0.10651 0.57252 0.28464 0.0
H529 H 0.10299 0.45628 0.30556 0.0
H530 H 0.08943 0.4507 0.39249 0.0
H531 H 0.95489 0.5705 0.30043 0.0
H532 H 0.96723 0.58196 0.38473 0.0
C533 C 0.0556 0.55845 0.74229 0.0
C534 C 0.06516 0.56545 0.76725 0.0
C535 C 0.04862 0.55098 0.78636 0.0
C536 C 0.02995 0.53606 0.77206 0.0
N537 N 0.03393 0.53985 0.74492 0.0
Co538 Co 0.01049 0.52301 0.71655 0.0
N539 N 0.98326 0.50377 0.74479 0.0
C540 C 0.98396 0.50505 0.77199 0.0
C541 C 0.96324 0.48909 0.78616 0.0
C542 C 0.94873 0.47659 0.76692 0.0
C543 C 0.96148 0.48573 0.742 0.0
N544 N 0.9873 0.506 0.6882 0.0
C545 C 0.96556 0.48746 0.69084 0.0
C546 C 0.95639 0.48016 0.6659 0.0
C547 C 0.9734 0.4943 0.64675 0.0
C548 C 0.99186 0.50938 0.66104 0.0
N549 N 0.03747 0.54246 0.68836 0.0
C550 C 0.03675 0.54128 0.66117 0.0
C551 C 0.05703 0.55761 0.64705 0.0
C552 C 0.07113 0.57032 0.66634 0.0
C553 C 0.05851 0.56096 0.69119 0.0
N554 N 0.04209 0.49795 0.71655 0.0
C555 C 0.08334 0.45988 0.71657 0.0
C556 C 0.07718 0.47238 0.69253 0.0
C557 C 0.0565 0.49101 0.69295 0.0
C558 C 0.06872 0.46719 0.7406 0.0
C559 C 0.04894 0.48625 0.74017 0.0
N560 N 0.97889 0.54801 0.71658 0.0
C561 C 0.95012 0.57774 0.69273 0.0
C562 C 0.93723 0.58549 0.71711 0.0
C563 C 0.94502 0.57395 0.74114 0.0
C564 C 0.96592 0.55558 0.74044 0.0
C565 C 0.97039 0.55887 0.69291 0.0
H566 H 0.97159 0.54805 0.75952 0.0
H567 H 0.97914 0.55355 0.67368 0.0
H568 H 0.05238 0.49937 0.67387 0.0
H569 H 0.03912 0.49093 0.75926 0.0
C570 C 0.00629 0.52002 0.78357 0.0
C571 C 0.0661 0.57099 0.7168 0.0
C572 C 0.9538 0.47565 0.71639 0.0
C573 C 0.01512 0.52577 0.64958 0.0
H574 H 0.08161 0.57999 0.77127 0.0
H575 H 0.04914 0.55189 0.80812 0.0
H576 H 0.95997 0.48626 0.8079 0.0
H577 H 0.93147 0.4619 0.77087 0.0
H578 H 0.93964 0.46576 0.66199 0.0
H579 H 0.97306 0.49325 0.625 0.0
H580 H 0.06036 0.56045 0.62531 0.0
H581 H 0.08816 0.58519 0.6626 0.0
H582 H 0.08826 0.46797 0.67334 0.0
H583 H 0.07192 0.45807 0.75985 0.0
H584 H 0.9444 0.58609 0.67361 0.0
H585 H 0.93569 0.57952 0.7605 0.0
C586 C 0.26288 0.98106 0.57116 0.0
C587 C 0.29171 0.97191 0.57745 0.0
C588 C 0.31463 0.98416 0.56129 0.0
C589 C 0.29855 0.99995 0.54609 0.0
N590 N 0.26681 0.99879 0.55177 0.0
Co591 Co 0.23454 0.01724 0.53265 0.0
N592 N 0.26837 0.03635 0.51014 0.0
C593 C 0.30012 0.0352 0.51219 0.0
C594 C 0.31765 0.05294 0.49783 0.0
C595 C 0.29581 0.06647 0.48609 0.0
C596 C 0.26599 0.05582 0.49343 0.0
N597 N 0.20223 0.03438 0.51216 0.0
C598 C 0.20601 0.05179 0.49237 0.0
C599 C 0.17707 0.05699 0.48187 0.0
C600 C 0.15421 0.04314 0.49632 0.0
C601 C 0.1704 0.02998 0.51439 0.0
N602 N 0.20074 0.99963 0.5567 0.0
C603 C 0.16909 1.00243 0.55662 0.0
C604 C 0.15172 0.9885 0.57595 0.0
C605 C 0.17361 0.97606 0.58922 0.0
C606 C 0.20316 0.98309 0.57706 0.0
N607 N 0.23624 0.04236 0.55942 0.0
C608 C 0.24086 0.08119 0.59337 0.0
C609 C 0.2125 0.07523 0.58112 0.0
C610 C 0.21059 0.05574 0.5647 0.0
C611 C 0.26634 0.06656 0.58915 0.0
C612 C 0.26365 0.04758 0.57215 0.0
N613 N 0.23295 0.99204 0.50571 0.0
C614 C 0.20486 0.9591 0.48615 0.0
C615 C 0.23152 0.95452 0.46956 0.0
C616 C 0.25881 0.96942 0.47119 0.0
C617 C 0.25906 0.98779 0.48927 0.0
C618 C 0.20596 0.97783 0.50362 0.0
H619 H 0.2808 0.99823 0.48963 0.0
H620 H 0.18461 0.98022 0.51541 0.0
H621 H 0.18825 0.0521 0.55604 0.0
H622 H 0.28431 0.03761 0.5693 0.0
C623 C 0.31271 0.01753 0.52826 0.0
C624 C 0.23256 0.97256 0.58447 0.0
C625 C 0.23612 0.06473 0.48404 0.0
C626 C 0.1563 0.01586 0.53595 0.0
H627 H 0.29578 0.95797 0.59235 0.0
H628 H 0.34003 0.98209 0.56102 0.0
H629 H 0.34323 0.05605 0.49663 0.0
H630 H 0.30148 0.08259 0.47393 0.0
H631 H 0.17272 0.0699 0.46591 0.0
H632 H 0.12874 0.04332 0.49455 0.0
H633 H 0.12612 0.98689 0.57931 0.0
H634 H 0.16835 0.96281 0.60547 0.0
H635 H 0.19197 0.08585 0.58348 0.0
H636 H 0.28854 0.06971 0.59877 0.0
H637 H 0.18317 0.94804 0.48617 0.0
H638 H 0.27998 0.9671 0.45848 0.0
C639 C 0.47122 0.79495 0.06639 0.0
C640 C 0.45895 0.81605 0.07434 0.0
C641 C 0.47456 0.83374 0.05856 0.0
C642 C 0.49516 0.8225 0.04179 0.0
N643 N 0.49368 0.79867 0.04583 0.0
Co644 Co 0.51853 0.77554 0.02487 0.0
N645 N 0.54275 0.80173 0.0028 0.0
C646 C 0.54113 0.82524 0.0061 0.0
C647 C 0.56106 0.83898 0.98842 0.0
C648 C 0.57626 0.82332 0.97278 0.0
C649 C 0.56448 0.80085 0.98174 0.0
N650 N 0.54218 0.7524 0.0029 0.0
C651 C 0.56288 0.75614 0.98104 0.0
C652 C 0.57198 0.73495 0.97066 0.0
C653 C 0.55659 0.71721 0.98651 0.0
C654 C 0.53882 0.7285 0.00545 0.0
N655 N 0.4954 0.74939 0.04786 0.0
C656 C 0.49982 0.72593 0.04671 0.0
C657 C 0.48202 0.71227 0.06598 0.0
C658 C 0.46541 0.72793 0.08054 0.0
C659 C 0.4739 0.75034 0.06911 0.0
N660 N 0.48483 0.77463 0.99829 0.0
C661 C 0.43788 0.77295 0.95979 0.0
C662 C 0.44622 0.7524 0.97375 0.0
C663 C 0.46963 0.7536 0.99264 0.0
C664 C 0.45334 0.79441 0.96549 0.0
C665 C 0.4764 0.79488 0.98481 0.0
N666 N 0.55223 0.77637 0.05158 0.0
C667 C 0.5907 0.75631 0.07775 0.0
C668 C 0.59661 0.77646 0.0923 0.0
C669 C 0.58068 0.79679 0.08563 0.0
C670 C 0.55905 0.79645 0.06517 0.0
C671 C 0.5685 0.75659 0.05776 0.0
H672 H 0.54795 0.81261 0.06092 0.0
H673 H 0.56464 0.74045 0.04791 0.0
H674 H 0.47514 0.73723 0.00228 0.0
H675 H 0.48711 0.81182 0.98846 0.0
C676 C 0.51815 0.83388 0.02381 0.0
C677 C 0.46128 0.77196 0.07945 0.0
C678 C 0.57407 0.77932 0.96911 0.0
C679 C 0.51959 0.71721 0.02641 0.0
H680 H 0.44092 0.81845 0.09018 0.0
H681 H 0.47175 0.85259 0.05963 0.0
H682 H 0.56348 0.85812 0.98654 0.0
H683 H 0.59361 0.82794 0.95629 0.0
H684 H 0.58795 0.73252 0.95331 0.0
H685 H 0.55809 0.69833 0.98444 0.0
H686 H 0.48112 0.69318 0.06902 0.0
H687 H 0.44899 0.72335 0.09769 0.0
H688 H 0.43513 0.73531 0.96977 0.0
H689 H 0.44741 0.81083 0.95533 0.0
H690 H 0.60249 0.74012 0.0823 0.0
H691 H 0.58495 0.81295 0.09612 0.0
C692 C 0.82397 0.99404 0.57247 0.0
C693 C 0.85204 0.98904 0.58452 0.0
C694 C 0.87586 1.00214 0.57028 0.0
C695 C 0.86108 0.01439 0.55045 0.0
N696 N 0.82923 0.00989 0.55114 0.0
Co697 Co 0.79864 0.02439 0.52631 0.0
N698 N 0.83389 0.04268 0.50457 0.0
C699 C 0.86546 0.04086 0.50711 0.0
C700 C 0.88387 0.05596 0.48965 0.0
C701 C 0.86279 0.06837 0.47536 0.0
C702 C 0.83264 0.06014 0.48504 0.0
N703 N 0.7679 0.04008 0.50255 0.0
C704 C 0.77284 0.05851 0.48411 0.0
C705 C 0.74459 0.06547 0.47378 0.0
C706 C 0.72084 0.05124 0.48654 0.0
C707 C 0.7359 0.03654 0.5039 0.0
N708 N 0.76347 0.00517 0.54706 0.0
C709 C 0.73226 0.00443 0.54185 0.0
C710 C 0.71382 0.98889 0.5587 0.0
C711 C 0.73452 0.97883 0.5755 0.0
C712 C 0.76454 0.98886 0.56786 0.0
N713 N 0.79455 0.05079 0.55114 0.0
C714 C 0.78862 0.09006 0.58414 0.0
C715 C 0.76225 0.07503 0.57942 0.0
C716 C 0.76563 0.05586 0.56278 0.0
C717 C 0.81809 0.08464 0.57228 0.0
C718 C 0.82057 0.06494 0.55646 0.0
N719 N 0.80284 0.99783 0.50138 0.0
C720 C 0.77981 0.97025 0.47082 0.0
C721 C 0.80798 0.95819 0.46869 0.0
C722 C 0.83366 0.96672 0.48285 0.0
C723 C 0.83071 0.98642 0.49866 0.0
C724 C 0.77774 0.98975 0.48715 0.0
H725 H 0.85134 0.99182 0.50872 0.0
H726 H 0.75548 0.99787 0.48801 0.0
H727 H 0.74448 0.04547 0.55947 0.0
H728 H 0.84383 0.06171 0.54844 0.0
C729 C 0.87667 0.02817 0.52919 0.0
C730 C 0.79323 0.98233 0.58108 0.0
C731 C 0.8036 0.07051 0.4765 0.0
C732 C 0.72075 0.01958 0.52207 0.0
H733 H 0.85511 0.97674 0.60142 0.0
H734 H 0.90107 1.00212 0.57345 0.0
H735 H 0.90951 0.05867 0.4886 0.0
H736 H 0.86886 0.08254 0.46031 0.0
H737 H 0.74146 0.07967 0.45895 0.0
H738 H 0.69556 0.0519 0.48395 0.0
H739 H 0.68832 0.98545 0.55892 0.0
H740 H 0.72821 0.96564 0.59161 0.0
H741 H 0.73893 0.07788 0.58849 0.0
H742 H 0.83933 0.09571 0.57467 0.0
H743 H 0.75934 0.9648 0.45984 0.0
H744 H 0.85597 0.95801 0.48227 0.0
C745 C 0.47772 0.2806 0.06682 0.0
C746 C 0.46846 0.30284 0.07387 0.0
C747 C 0.48822 0.31902 0.05934 0.0
C748 C 0.50848 0.30585 0.04449 0.0
N749 N 0.50289 0.28218 0.04854 0.0
Co750 Co 0.52795 0.25665 0.03207 0.0
N751 N 0.55635 0.28059 0.01009 0.0
C752 C 0.55472 0.30442 0.0096 0.0
C753 C 0.57611 0.31623 0.99142 0.0
C754 C 0.59219 0.29892 0.97928 0.0
C755 C 0.57977 0.27744 0.99098 0.0
N756 N 0.55344 0.23117 0.01604 0.0
C757 C 0.57766 0.23274 0.99686 0.0
C758 C 0.58891 0.21067 0.99159 0.0
C759 C 0.57079 0.19451 0.00768 0.0
C760 C 0.54972 0.20758 0.02191 0.0
N761 N 0.49898 0.23269 0.05347 0.0
C762 C 0.50011 0.20882 0.0534 0.0
C763 C 0.47653 0.19695 0.06943 0.0
C764 C 0.45926 0.21423 0.08045 0.0
C765 C 0.47352 0.23576 0.07061 0.0
N766 N 0.49903 0.25522 1.00168 0.0
C767 C 0.45912 0.25279 0.95767 0.0
C768 C 0.47034 0.23231 0.96986 0.0
C769 C 0.4899 0.23391 0.99165 0.0
C770 C 0.46825 0.27457 0.96802 0.0
C771 C 0.48807 0.27538 0.98983 0.0
N772 N 0.55704 0.25798 0.06253 0.0
C773 C 0.58413 0.23811 0.09832 0.0
C774 C 0.59873 0.25945 0.10546 0.0
C775 C 0.59186 0.28011 0.09085 0.0
C776 C 0.57117 0.27899 0.06966 0.0
C777 C 0.56361 0.23779 0.07706 0.0
H778 H 0.5671 0.29535 0.05932 0.0
H779 H 0.55336 0.22092 0.07289 0.0
H780 H 0.49752 0.2176 0.99992 0.0
H781 H 0.49427 0.29249 0.99677 0.0
C782 C 0.53241 0.31519 0.02605 0.0
C783 C 0.46211 0.25858 0.07834 0.0
C784 C 0.5902 0.25456 0.98257 0.0
C785 C 0.52434 0.19811 0.03888 0.0
H786 H 0.44947 0.30702 0.08812 0.0
H787 H 0.48784 0.33813 0.05957 0.0
H788 H 0.57921 0.33515 0.98715 0.0
H789 H 0.6106 0.30184 0.96329 0.0
H790 H 0.60787 0.20665 0.97721 0.0
H791 H 0.57216 0.17545 0.00832 0.0
H792 H 0.47253 0.178 0.07287 0.0
H793 H 0.43858 0.2113 0.09427 0.0
H794 H 0.46447 0.21501 0.96242 0.0
H795 H 0.45989 0.29097 0.95957 0.0
H796 H 0.58818 0.22164 0.10927 0.0
H797 H 0.60279 0.2971 0.0954 0.0
H798 H 0.18536 0.36262 0.36809 0.0
H799 H 0.14703 0.34367 0.29252 0.0
H800 H 0.11563 0.37885 0.29212 0.0
H801 H 0.09937 0.41505 0.31292 0.0
H802 H 0.14026 0.43582 0.38701 0.0
H803 H 0.1698 0.39981 0.38853 0.0
C804 C 0.16993 0.36619 0.35169 0.0
C805 C 0.16842 0.35061 0.33039 0.0
C806 C 0.15238 0.38677 0.35131 0.0
C807 C 0.14864 0.3555 0.30907 0.0
C808 C 0.13068 0.37559 0.30884 0.0
C809 C 0.11506 0.41198 0.32924 0.0
C810 C 0.11742 0.42833 0.34979 0.0
C811 C 0.13255 0.39145 0.32973 0.0
C812 C 0.13745 0.42352 0.37107 0.0
C813 C 0.15458 0.40294 0.37189 0.0
H814 H 0.11535 0.67831 0.71389 0.0
H815 H 0.2031 0.64593 0.7312 0.0
H816 H 0.17653 0.60667 0.73069 0.0
H817 H 0.12807 0.58131 0.72562 0.0
H818 H 0.04066 0.61346 0.70775 0.0
H819 H 0.0673 0.653 0.70781 0.0
C820 C 0.12875 0.66266 0.71724 0.0
C821 C 0.16117 0.66513 0.72269 0.0
C822 C 0.11333 0.64008 0.71684 0.0
C823 C 0.17803 0.64461 0.72736 0.0
C824 C 0.1629 0.62212 0.72694 0.0
C825 C 0.11504 0.59707 0.72178 0.0
C826 C 0.0826 0.59476 0.71685 0.0
C827 C 0.13054 0.61963 0.72185 0.0
C828 C 0.0657 0.61507 0.71169 0.0
C829 C 0.08091 0.63758 0.71172 0.0
H830 H 0.86327 0.66285 0.35216 0.0
H831 H 0.90106 0.6787 0.27053 0.0
H832 H 0.93619 0.64571 0.27413 0.0
H833 H 0.95544 0.61198 0.30009 0.0
H834 H 0.91513 0.59421 0.38076 0.0
H835 H 0.88226 0.62844 0.37809 0.0
C836 C 0.87945 0.65914 0.33531 0.0
C837 C 0.87968 0.67316 0.31113 0.0
C838 C 0.89912 0.63978 0.33734 0.0
C839 C 0.90043 0.66807 0.28929 0.0
C840 C 0.92049 0.64922 0.29135 0.0
C841 C 0.93921 0.61533 0.31702 0.0
C842 C 0.93794 0.60034 0.34058 0.0
C843 C 0.91981 0.6348 0.31517 0.0
C844 C 0.91713 0.6055 0.36247 0.0
C845 C 0.89809 0.62504 0.36092 0.0
H846 H 0.89776 0.36998 0.72462 0.0
H847 H 0.81122 0.40556 0.7415 0.0
H848 H 0.83991 0.44396 0.73388 0.0
H849 H 0.89028 0.46759 0.72501 0.0
H850 H 0.97692 0.43243 0.70858 0.0
H851 H 0.94765 0.39374 0.71297 0.0
C852 C 0.88512 0.38614 0.72621 0.0
C853 C 0.85246 0.38489 0.7339 0.0
C854 C 0.90185 0.40824 0.72194 0.0
C855 C 0.83647 0.40602 0.73608 0.0
C856 C 0.85282 0.428 0.73163 0.0
C857 C 0.9025 0.45138 0.72212 0.0
C858 C 0.93549 0.45257 0.71658 0.0
C859 C 0.88558 0.42934 0.725 0.0
C860 C 0.95142 0.43168 0.71286 0.0
C861 C 0.93473 0.40966 0.71545 0.0
H862 H 0.21998 0.1599 0.41478 0.0
H863 H 0.29596 0.1305 0.36672 0.0
H864 H 0.29299 0.0955 0.39627 0.0
H865 H 0.26894 0.07238 0.43552 0.0
H866 H 0.20339 0.10502 0.49017 0.0
H867 H 0.20225 0.13944 0.45839 0.0
C868 C 0.23636 0.14619 0.41076 0.0
C869 C 0.257 0.14791 0.38724 0.0
C870 C 0.23639 0.12641 0.42916 0.0
C871 C 0.27812 0.12956 0.38325 0.0
C872 C 0.27697 0.10944 0.40054 0.0
C873 C 0.2549 0.08724 0.44076 0.0
C874 C 0.23631 0.08614 0.46515 0.0
C875 C 0.25603 0.10755 0.42338 0.0
C876 C 0.21778 0.10538 0.47138 0.0
C877 C 0.21725 0.12509 0.45329 0.0
H878 H 0.32361 0.75468 0.88456 0.0
H879 H 0.38528 0.79853 0.82855 0.0
H880 H 0.42358 0.80369 0.86341 0.0
H881 H 0.4408 0.79422 0.90926 0.0
H882 H 0.38004 0.74898 0.96443 0.0
H883 H 0.3405 0.7455 0.93027 0.0
C884 C 0.34554 0.76521 0.87985 0.0
C885 C 0.35149 0.77612 0.85386 0.0
C886 C 0.36777 0.76773 0.89982 0.0
C887 C 0.37979 0.79014 0.84842 0.0
C888 C 0.40186 0.79296 0.86831 0.0
C889 C 0.41874 0.78381 0.91386 0.0
C890 C 0.41339 0.77183 0.93931 0.0
C891 C 0.39622 0.7817 0.89402 0.0
C892 C 0.38487 0.75817 0.94489 0.0
C893 C 0.36221 0.75623 0.92541 0.0
H894 H 0.84097 0.87278 0.39494 0.0
H895 H 0.74224 0.85328 0.41502 0.0
H896 H 0.73793 0.88768 0.44302 0.0
H897 H 0.76209 0.92345 0.46137 0.0
H898 H 0.8599 0.94472 0.43837 0.0
H899 H 0.8648 0.90941 0.41237 0.0
C900 C 0.81866 0.87602 0.40569 0.0
C901 C 0.79202 0.86052 0.40315 0.0
C902 C 0.81617 0.89616 0.42121 0.0
C903 C 0.76304 0.86502 0.41676 0.0
C904 C 0.76058 0.88468 0.43272 0.0
C905 C 0.7844 0.92062 0.45042 0.0
C906 C 0.81059 0.93686 0.45209 0.0
C907 C 0.78692 0.90049 0.43492 0.0
C908 C 0.83943 0.93243 0.43802 0.0
C909 C 0.84225 0.91227 0.42293 0.0
H910 H 0.70018 0.26141 0.89086 0.0
H911 H 0.62436 0.23281 0.8448 0.0
H912 H 0.58814 0.23111 0.8851 0.0
H913 H 0.5775 0.23921 0.9332 0.0
H914 H 0.65328 0.26752 0.97922 0.0
H915 H 0.69015 0.26802 0.93921 0.0
C916 C 0.67569 0.25488 0.88966 0.0
C917 C 0.6649 0.24736 0.86488 0.0
C918 C 0.65505 0.25396 0.91288 0.0
C919 C 0.63327 0.23855 0.8637 0.0
C920 C 0.61252 0.23768 0.88668 0.0
C921 C 0.60218 0.2453 0.93434 0.0
C922 C 0.61286 0.25348 0.95879 0.0
C923 C 0.62309 0.24549 0.91132 0.0
C924 C 0.64476 0.26129 0.96039 0.0
C925 C 0.66572 0.26159 0.93759 0.0
H926 H 0.23448 0.90133 0.68597 0.0
H927 H 0.24158 0.85121 0.62302 0.0
H928 H 0.23792 0.88313 0.58862 0.0
H929 H 0.235 0.92573 0.57626 0.0
H930 H 0.22862 0.97578 0.63903 0.0
H931 H 0.23 0.94358 0.67374 0.0
C932 C 0.23534 0.8974 0.66472 0.0
C933 C 0.23844 0.8739 0.65711 0.0
C934 C 0.23347 0.91587 0.64504 0.0
C935 C 0.23891 0.86908 0.62948 0.0
C936 C 0.23703 0.88735 0.60977 0.0
C937 C 0.23372 0.9294 0.59759 0.0
C938 C 0.23172 0.95286 0.60533 0.0
C939 C 0.2346 0.91083 0.61729 0.0
C940 C 0.23011 0.95772 0.63286 0.0
C941 C 0.23095 0.93936 0.65259 0.0
H942 H 0.70457 0.76827 0.17572 0.0
H943 H 0.63219 0.7974 0.22744 0.0
H944 H 0.59662 0.79862 0.19025 0.0
H945 H 0.58574 0.79136 0.14302 0.0
H946 H 0.65665 0.76036 0.0918 0.0
H947 H 0.69285 0.7595 0.12892 0.0
C948 C 0.68089 0.7746 0.17901 0.0
C949 C 0.67133 0.78295 0.20439 0.0
C950 C 0.66023 0.77491 0.15759 0.0
C951 C 0.64058 0.79134 0.20804 0.0
C952 C 0.62007 0.79191 0.1868 0.0
C953 C 0.60922 0.78457 0.13998 0.0
C954 C 0.61864 0.7761 0.11471 0.0
C955 C 0.62969 0.78387 0.16146 0.0
C956 C 0.64888 0.76693 0.11113 0.0
C957 C 0.66957 0.76649 0.13231 0.0
H958 H 0.75479 0.18124 0.64797 0.0
H959 H 0.85201 0.17634 0.66959 0.0
H960 H 0.85673 0.14061 0.64376 0.0
H961 H 0.83283 0.11058 0.61594 0.0
H962 H 0.73723 0.11804 0.59012 0.0
H963 H 0.73198 0.15246 0.61739 0.0
C964 C 0.77697 0.1723 0.64689 0.0
C965 C 0.80302 0.18123 0.66059 0.0
C966 C 0.77967 0.1521 0.63157 0.0
C967 C 0.83176 0.16975 0.65902 0.0
C968 C 0.83438 0.14932 0.64437 0.0
C969 C 0.81097 0.11985 0.61572 0.0
C970 C 0.78546 0.11132 0.60088 0.0
C971 C 0.80847 0.14033 0.63058 0.0
C972 C 0.75713 0.12357 0.60172 0.0
C973 C 0.75415 0.14353 0.61711 0.0
H974 H 0.33939 0.2715 0.15401 0.0
H975 H 0.40025 0.24358 0.21376 0.0
H976 H 0.44289 0.24057 0.17899 0.0
H977 H 0.46319 0.24625 0.13156 0.0
H978 H 0.40234 0.27316 0.07145 0.0
H979 H 0.35935 0.27632 0.10625 0.0
C980 C 0.36206 0.26489 0.15936 0.0
C981 C 0.36671 0.25778 0.18636 0.0
C982 C 0.3864 0.263 0.13919 0.0
C983 C 0.39605 0.24897 0.19304 0.0
C984 C 0.42046 0.2473 0.1732 0.0
C985 C 0.44039 0.25265 0.12621 0.0
C986 C 0.43568 0.25951 0.09922 0.0
C987 C 0.4159 0.25424 0.14623 0.0
C988 C 0.40624 0.26784 0.09225 0.0
C989 C 0.38179 0.26965 0.11209 0.0
H990 H 0.83598 0.66267 0.73468 0.0
H991 H 0.90903 0.70609 0.68916 0.0
H992 H 0.94091 0.6717 0.68385 0.0
H993 H 0.94937 0.62948 0.69373 0.0
H994 H 0.87854 0.58693 0.74238 0.0
H995 H 0.84482 0.62084 0.74532 0.0
C996 C 0.85901 0.66477 0.72385 0.0
C997 C 0.86984 0.68712 0.7123 0.0
C998 C 0.87777 0.64502 0.72151 0.0
C999 C 0.8996 0.68915 0.69787 0.0
C1000 C 0.91808 0.66948 0.69499 0.0
C1001 C 0.9264 0.62765 0.70473 0.0
C1002 C 0.9163 0.60578 0.7177 0.0
C1003 C 0.9075 0.64736 0.70684 0.0
C1004 C 0.88675 0.60365 0.73228 0.0
C1005 C 0.86751 0.62301 0.73394 0.0
H1006 H 0.92436 0.35989 0.35476 0.0
H1007 H 0.83452 0.39259 0.34869 0.0
H1008 H 0.86104 0.43172 0.35077 0.0
H1009 H 0.91026 0.457 0.35196 0.0
H1010 H 1.00012 0.42471 0.35763 0.0
H1011 H 0.97331 0.38515 0.35839 0.0
C1012 C 0.91056 0.37556 0.35432 0.0
C1013 C 0.87752 0.37328 0.35135 0.0
C1014 C 0.92603 0.39812 0.35536 0.0
C1015 C 0.86003 0.39383 0.35054 0.0
C1016 C 0.87516 0.41624 0.35181 0.0
C1017 C 0.92375 0.44121 0.35365 0.0
C1018 C 0.95692 0.4435 0.3548 0.0
C1019 C 0.90818 0.41864 0.35382 0.0
C1020 C 0.97447 0.42313 0.35682 0.0
C1021 C 0.95917 0.4006 0.35718 0.0
H1022 H 0.16633 0.37015 0.70112 0.0
H1023 H 0.1888 0.38604 0.78276 0.0
H1024 H 0.1561 0.42007 0.78092 0.0
H1025 H 0.12186 0.44574 0.75643 0.0
H1026 H 0.09316 0.42756 0.67712 0.0
H1027 H 0.1279 0.39437 0.67778 0.0
C1028 C 0.1638 0.38083 0.71866 0.0
C1029 C 0.18079 0.37562 0.74181 0.0
C1030 C 0.144 0.4002 0.71788 0.0
C1031 C 0.17708 0.3899 0.76425 0.0
C1032 C 0.15807 0.40935 0.76337 0.0
C1033 C 0.12249 0.43436 0.7394 0.0
C1034 C 0.10464 0.43945 0.71677 0.0
C1035 C 0.14156 0.41473 0.74028 0.0
C1036 C 0.10693 0.42461 0.69469 0.0
C1037 C 0.12661 0.40537 0.69513 0.0
H1038 H 0.20334 0.63725 0.31875 0.0
H1039 H 0.12806 0.68415 0.33638 0.0
H1040 H 0.09062 0.65011 0.34595 0.0
H1041 H 0.07853 0.6068 0.34712 0.0
H1042 H 0.1534 0.56019 0.32819 0.0
H1043 H 0.19171 0.59422 0.32104 0.0
C1044 C 0.17871 0.64007 0.32454 0.0
C1045 C 0.16859 0.66332 0.32667 0.0
C1046 C 0.1572 0.62041 0.32969 0.0
C1047 C 0.13667 0.66652 0.3348 0.0
C1048 C 0.11515 0.64704 0.34011 0.0
C1049 C 0.10333 0.60425 0.34165 0.0
C1050 C 0.11337 0.58122 0.33814 0.0
C1051 C 0.12506 0.62391 0.33736 0.0
C1052 C 0.14539 0.57787 0.33098 0.0
C1053 C 0.16717 0.59728 0.32686 0.0
H1054 H 0.78296 0.9126 0.68496 0.0
H1055 H 0.77022 0.86137 0.62392 0.0
H1056 H 0.77607 0.89292 0.58851 0.0
H1057 H 0.78438 0.93528 0.57472 0.0
H1058 H 0.79695 0.9866 0.63537 0.0
H1059 H 0.79152 0.95497 0.67113 0.0
C1060 C 0.78122 0.90838 0.66393 0.0
C1061 C 0.77618 0.88462 0.65715 0.0
C1062 C 0.78467 0.92665 0.6436 0.0
C1063 C 0.77444 0.87945 0.62972 0.0
C1064 C 0.77765 0.89749 0.60944 0.0
C1065 C 0.78602 0.93938 0.5958 0.0
C1066 C 0.79112 0.96304 0.6026 0.0
C1067 C 0.78281 0.92114 0.61612 0.0
C1068 C 0.79316 0.9684 0.62986 0.0
C1069 C 0.78997 0.95036 0.65022 0.0
H1070 H 0.70088 0.24722 0.19383 0.0
H1071 H 0.66106 0.31151 0.22063 0.0
H1072 H 0.62445 0.31084 0.18399 0.0
H1073 H 0.60364 0.29202 0.14431 0.0
H1074 H 0.64397 0.22801 0.11708 0.0
H1075 H 0.67997 0.22835 0.15411 0.0
C1076 C 0.68397 0.26095 0.1918 0.0
C1077 C 0.68379 0.27941 0.20992 0.0
C1078 C 0.663 0.26051 0.1706 0.0
C1079 C 0.66199 0.29724 0.20678 0.0
C1080 C 0.64095 0.29684 0.18588 0.0
C1081 C 0.6205 0.27826 0.14631 0.0
C1082 C 0.62097 0.26 0.1279 0.0
C1083 C 0.64135 0.27863 0.16758 0.0
C1084 C 0.64271 0.24212 0.13113 0.0
C1085 C 0.66347 0.24235 0.15224 0.0
H1086 H 0.27793 0.17374 0.65505 0.0
H1087 H 0.17829 0.167 0.67978 0.0
H1088 H 0.17213 0.13101 0.65439 0.0
H1089 H 0.19529 0.10132 0.62555 0.0
H1090 H 0.29424 0.11031 0.59782 0.0
H1091 H 0.3005 0.14507 0.62451 0.0
C1092 C 0.25492 0.16429 0.65493 0.0
C1093 C 0.22863 0.1729 0.66933 0.0
C1094 C 0.25146 0.14388 0.63993 0.0
C1095 C 0.19883 0.16073 0.66874 0.0
C1096 C 0.19534 0.14014 0.6543 0.0
C1097 C 0.21818 0.11096 0.62497 0.0
C1098 C 0.24428 0.10274 0.60973 0.0
C1099 C 0.2215 0.13155 0.63977 0.0
C1100 C 0.2738 0.11557 0.6098 0.0
C1101 C 0.27741 0.13571 0.62489 0.0
H1102 H 0.34946 0.7635 0.17006 0.0
H1103 H 0.42338 0.79434 0.2166 0.0
H1104 H 0.46099 0.79435 0.17747 0.0
H1105 H 0.47293 0.7861 0.12965 0.0
H1106 H 0.39946 0.75528 0.08303 0.0
H1107 H 0.36173 0.75439 0.12254 0.0
C1108 C 0.37388 0.76998 0.17173 0.0
C1109 C 0.38346 0.77902 0.19626 0.0
C1110 C 0.39549 0.7699 0.14911 0.0
C1111 C 0.41516 0.78763 0.1979 0.0
C1112 C 0.43678 0.78753 0.17556 0.0
C1113 C 0.44865 0.77914 0.12833 0.0
C1114 C 0.43879 0.77072 0.1037 0.0
C1115 C 0.42718 0.77884 0.15103 0.0
C1116 C 0.40739 0.76175 0.10194 0.0
C1117 C 0.3859 0.7613 0.12447 0.0
H1118 H 0.79735 0.17463 0.42579 0.0
H1119 H 0.80742 0.13726 0.35204 0.0
H1120 H 0.81191 0.10007 0.37811 0.0
H1121 H 0.81035 0.0776 0.42202 0.0
H1122 H 0.79935 0.11444 0.49581 0.0
H1123 H 0.79808 0.15234 0.46983 0.0
C1124 C 0.80098 0.15839 0.41547 0.0
C1125 C 0.80183 0.15873 0.38699 0.0
C1126 C 0.80323 0.13693 0.43065 0.0
C1127 C 0.80625 0.13746 0.37393 0.0
C1128 C 0.80889 0.11617 0.38882 0.0
C1129 C 0.80799 0.09403 0.43226 0.0
C1130 C 0.80505 0.09348 0.46062 0.0
C1131 C 0.80697 0.11561 0.41717 0.0
C1132 C 0.80176 0.11467 0.47391 0.0
C1133 C 0.80098 0.13625 0.45907 0.0
H1134 H 0.36203 0.23096 0.86744 0.0
H1135 H 0.40808 0.29497 0.83061 0.0
H1136 H 0.44249 0.29809 0.86876 0.0
H1137 H 0.45944 0.28255 0.91259 0.0
H1138 H 0.41136 0.21951 0.95033 0.0
H1139 H 0.3782 0.21593 0.91171 0.0
C1140 C 0.37984 0.24544 0.86768 0.0
C1141 C 0.38268 0.26263 0.84621 0.0
C1142 C 0.39918 0.2473 0.88985 0.0
C1143 C 0.40543 0.28155 0.84697 0.0
C1144 C 0.4251 0.28333 0.86875 0.0
C1145 C 0.44148 0.26818 0.91255 0.0
C1146 C 0.43816 0.25126 0.93438 0.0
C1147 C 0.42208 0.26637 0.89039 0.0
C1148 C 0.41496 0.23257 0.93367 0.0
C1149 C 0.39579 0.23056 0.91163 0.0
H1150 H 0.20452 0.86975 0.39257 0.0
H1151 H 0.30413 0.8605 0.40276 0.0
H1152 H 0.30657 0.89448 0.43165 0.0
H1153 H 0.28003 0.92616 0.45492 0.0
H1154 H 0.18115 0.93713 0.44189 0.0
H1155 H 0.17875 0.90301 0.41372 0.0
C1156 C 0.22671 0.87519 0.4012 0.0
C1157 C 0.25406 0.86258 0.39569 0.0
C1158 C 0.22805 0.89498 0.41744 0.0
C1159 C 0.28279 0.86999 0.40665 0.0
C1160 C 0.28416 0.88937 0.42322 0.0
C1161 C 0.25803 0.92142 0.44563 0.0
C1162 C 0.23074 0.93429 0.451 0.0
C1163 C 0.25692 0.902 0.4288 0.0
C1164 C 0.20241 0.92739 0.43888 0.0
C1165 C 0.20103 0.90791 0.4225 0.0
H1166 H 0.64424 0.78954 0.85281 0.0
H1167 H 0.72133 0.76417 0.89825 0.0
H1168 H 0.68785 0.76342 0.94 0.0
H1169 H 0.63603 0.76884 0.96364 0.0
H1170 H 0.55872 0.79384 0.9186 0.0
H1171 H 0.59277 0.79611 0.87675 0.0
C1172 C 0.65379 0.78414 0.87191 0.0
C1173 C 0.68519 0.77679 0.87235 0.0
C1174 C 0.63428 0.78359 0.8959 0.0
C1175 C 0.69711 0.76961 0.89726 0.0
C1176 C 0.67802 0.76923 0.92118 0.0
C1177 C 0.62682 0.77479 0.94459 0.0
C1178 C 0.59506 0.78104 0.94394 0.0
C1179 C 0.64648 0.77592 0.92072 0.0
C1180 C 0.58317 0.78888 0.91935 0.0
C1181 C 0.60261 0.79017 0.89551 0.0
loop_
_geom_bond_atom_site_label_1
_geom_bond_atom_site_label_2
_geom_bond_distance
_geom_bond_site_symmetry_2
_ccdc_geom_bond_type
C0 C1 1.391 . S
C0 C4 1.391 . S
C0 H42 0.948 . S
C1 C0 1.391 . S
C1 C2 1.391 . S
C2 C1 1.391 . S
C2 H58 0.947 . S
C2 C59 1.392 . S
C3 C4 1.391 . S
C3 C7 1.397 . S
C3 C59 1.419 . S
C4 C0 1.391 . S
C4 C3 1.391 . S
C4 C5 1.399 . S
C5 C4 1.399 . S
C5 C8 1.396 . S
C5 C17 1.453 . S
C5 C18 1.684 . S
H6 C30 0.948 . S
C7 C3 1.397 . S
C7 C8 1.394 . S
C7 C26 1.723 . S
C8 C5 1.396 . S
C8 C7 1.394 . S
C8 C38 1.723 . S
H9 C32 0.947 . S
H10 C33 0.948 . S
H11 C39 0.982 . S
H12 C40 0.979 . S
H13 C40 0.980 . S
H14 C40 0.983 . S
H15 C39 0.979 . S
H16 C39 0.977 . S
C17 C5 1.453 . S
C17 H46 0.982 . S
C17 H47 0.979 . S
C17 H48 0.977 . S
C18 C5 1.684 . S
C18 H43 0.979 . S
C18 H44 0.980 . S
C18 H45 0.983 . S
C19 C20 1.391 . S
C19 C24 1.391 . S
C19 H49 0.948 . S
C20 C19 1.391 . S
C20 C21 1.391 . S
C21 C20 1.391 . S
C21 C22 1.392 . S
C21 H50 0.947 . S
C22 C21 1.392 . S
C22 C23 1.419 . S
C22 H51 0.948 . S
C23 C22 1.419 . S
C23 C24 1.391 . S
C23 C27 1.397 . S
C24 C19 1.391 . S
C24 C23 1.391 . S
C24 C25 1.399 . S
C25 C24 1.399 . S
C25 C26 1.396 . S
C25 C28 1.453 . S
C25 C29 1.684 . S
C26 C7 1.723 . S
C26 C25 1.396 . S
C26 C27 1.394 . S
C27 C23 1.397 . S
C27 C26 1.394 . S
C27 C37 1.723 . S
C28 C25 1.453 . S
C28 H52 0.982 . S
C28 H53 0.979 . S
C28 H54 0.977 . S
C29 C25 1.684 . S
C29 H55 0.979 . S
C29 H56 0.980 . S
C29 H57 0.983 . S
C30 H6 0.948 . S
C30 C31 1.391 . S
C30 C35 1.391 . S
C31 C30 1.391 . S
C31 C32 1.391 . S
C32 H9 0.947 . S
C32 C31 1.391 . S
C32 C33 1.392 . S
C33 H10 0.948 . S
C33 C32 1.392 . S
C33 C34 1.419 . S
C34 C33 1.419 . S
C34 C35 1.391 . S
C34 C38 1.397 . S
C35 C30 1.391 . S
C35 C34 1.391 . S
C35 C36 1.399 . S
C36 C35 1.399 . S
C36 C37 1.396 . S
C36 C39 1.453 . S
C36 C40 1.684 . S
C37 C27 1.723 . S
C37 C36 1.396 . S
C37 C38 1.394 . S
C38 C8 1.723 . S
C38 C34 1.397 . S
C38 C37 1.394 . S
C39 H11 0.982 . S
C39 H15 0.979 . S
C39 H16 0.977 . S
C39 C36 1.453 . S
C40 H12 0.979 . S
C40 H13 0.980 . S
C40 H14 0.983 . S
C40 C36 1.684 . S
H41 C59 0.948 . S
H42 C0 0.948 . S
H43 C18 0.979 . S
H44 C18 0.980 . S
H45 C18 0.983 . S
H46 C17 0.982 . S
H47 C17 0.979 . S
H48 C17 0.977 . S
H49 C19 0.948 . S
H50 C21 0.947 . S
H51 C22 0.948 . S
H52 C28 0.982 . S
H53 C28 0.979 . S
H54 C28 0.977 . S
H55 C29 0.979 . S
H56 C29 0.980 . S
H57 C29 0.983 . S
H58 C2 0.947 . S
C59 C2 1.392 . S
C59 C3 1.419 . S
C59 H41 0.948 . S
C60 C61 1.391 . S
C60 C64 1.391 . S
C60 H102 0.948 . S
C61 C60 1.391 . S
C61 C62 1.391 . S
C62 C61 1.391 . S
C62 H118 0.947 . S
C62 C119 1.392 . S
C63 C64 1.391 . S
C63 C67 1.397 . S
C63 C119 1.419 . S
C64 C60 1.391 . S
C64 C63 1.391 . S
C64 C65 1.399 . S
C65 C64 1.399 . S
C65 C68 1.396 . S
C65 C77 1.453 . S
C65 C78 1.684 . S
H66 C90 0.948 . S
C67 C63 1.397 . S
C67 C68 1.394 . S
C67 C86 1.723 . S
C68 C65 1.396 . S
C68 C67 1.394 . S
C68 C98 1.723 . S
H69 C92 0.947 . S
H70 C93 0.948 . S
H71 C99 0.982 . S
H72 C100 0.979 . S
H73 C100 0.980 . S
H74 C100 0.983 . S
H75 C99 0.979 . S
H76 C99 0.977 . S
C77 C65 1.453 . S
C77 H106 0.982 . S
C77 H107 0.979 . S
C77 H108 0.977 . S
C78 C65 1.684 . S
C78 H103 0.979 . S
C78 H104 0.980 . S
C78 H105 0.983 . S
C79 C80 1.391 . S
C79 C84 1.391 . S
C79 H109 0.948 . S
C80 C79 1.391 . S
C80 C81 1.391 . S
C81 C80 1.391 . S
C81 C82 1.392 . S
C81 H110 0.947 . S
C82 C81 1.392 . S
C82 C83 1.419 . S
C82 H111 0.948 . S
C83 C82 1.419 . S
C83 C84 1.391 . S
C83 C87 1.397 . S
C84 C79 1.391 . S
C84 C83 1.391 . S
C84 C85 1.399 . S
C85 C84 1.399 . S
C85 C86 1.396 . S
C85 C88 1.453 . S
C85 C89 1.684 . S
C86 C67 1.723 . S
C86 C85 1.396 . S
C86 C87 1.394 . S
C87 C83 1.397 . S
C87 C86 1.394 . S
C87 C97 1.723 . S
C88 C85 1.453 . S
C88 H112 0.982 . S
C88 H113 0.979 . S
C88 H114 0.977 . S
C89 C85 1.684 . S
C89 H115 0.979 . S
C89 H116 0.980 . S
C89 H117 0.983 . S
C90 H66 0.948 . S
C90 C91 1.391 . S
C90 C95 1.391 . S
C91 C90 1.391 . S
C91 C92 1.391 . S
C92 H69 0.947 . S
C92 C91 1.391 . S
C92 C93 1.392 . S
C93 H70 0.948 . S
C93 C92 1.392 . S
C93 C94 1.419 . S
C94 C93 1.419 . S
C94 C95 1.391 . S
C94 C98 1.397 . S
C95 C90 1.391 . S
C95 C94 1.391 . S
C95 C96 1.399 . S
C96 C95 1.399 . S
C96 C97 1.396 . S
C96 C99 1.453 . S
C96 C100 1.684 . S
C97 C87 1.723 . S
C97 C96 1.396 . S
C97 C98 1.394 . S
C98 C68 1.723 . S
C98 C94 1.397 . S
C98 C97 1.394 . S
C99 H71 0.982 . S
C99 H75 0.979 . S
C99 H76 0.977 . S
C99 C96 1.453 . S
C100 H72 0.979 . S
C100 H73 0.980 . S
C100 H74 0.983 . S
C100 C96 1.684 . S
H101 C119 0.948 . S
H102 C60 0.948 . S
H103 C78 0.979 . S
H104 C78 0.980 . S
H105 C78 0.983 . S
H106 C77 0.982 . S
H107 C77 0.979 . S
H108 C77 0.977 . S
H109 C79 0.948 . S
H110 C81 0.947 . S
H111 C82 0.948 . S
H112 C88 0.982 . S
H113 C88 0.979 . S
H114 C88 0.977 . S
H115 C89 0.979 . S
H116 C89 0.980 . S
H117 C89 0.983 . S
H118 C62 0.947 . S
C119 C62 1.392 . S
C119 C63 1.419 . S
C119 H101 0.948 . S
C120 C121 1.391 . S
C120 C124 1.391 . S
C120 H162 0.948 . S
C121 C120 1.391 . S
C121 C122 1.391 . S
C122 C121 1.391 . S
C122 H178 0.947 . S
C122 C179 1.392 . S
C123 C124 1.391 . S
C123 C127 1.397 . S
C123 C179 1.419 . S
C124 C120 1.391 . S
C124 C123 1.391 . S
C124 C125 1.399 . S
C125 C124 1.399 . S
C125 C128 1.396 . S
C125 C137 1.453 . S
C125 C138 1.684 . S
H126 C150 0.948 . S
C127 C123 1.397 . S
C127 C128 1.394 . S
C127 C146 1.723 . S
C128 C125 1.396 . S
C128 C127 1.394 . S
C128 C158 1.723 . S
H129 C152 0.947 . S
H130 C153 0.948 . S
H131 C159 0.982 . S
H132 C160 0.979 . S
H133 C160 0.980 . S
H134 C160 0.983 . S
H135 C159 0.979 . S
H136 C159 0.977 . S
C137 C125 1.453 . S
C137 H166 0.982 . S
C137 H167 0.979 . S
C137 H168 0.977 . S
C138 C125 1.684 . S
C138 H163 0.979 . S
C138 H164 0.980 . S
C138 H165 0.983 . S
C139 C140 1.391 . S
C139 C144 1.391 . S
C139 H169 0.948 . S
C140 C139 1.391 . S
C140 C141 1.391 . S
C141 C140 1.391 . S
C141 C142 1.392 . S
C141 H170 0.947 . S
C142 C141 1.392 . S
C142 C143 1.419 . S
C142 H171 0.948 . S
C143 C142 1.419 . S
C143 C144 1.391 . S
C143 C147 1.397 . S
C144 C139 1.391 . S
C144 C143 1.391 . S
C144 C145 1.399 . S
C145 C144 1.399 . S
C145 C146 1.396 . S
C145 C148 1.453 . S
C145 C149 1.684 . S
C146 C127 1.723 . S
C146 C145 1.396 . S
C146 C147 1.394 . S
C147 C143 1.397 . S
C147 C146 1.394 . S
C147 C157 1.723 . S
C148 C145 1.453 . S
C148 H172 0.982 . S
C148 H173 0.979 . S
C148 H174 0.977 . S
C149 C145 1.684 . S
C149 H175 0.979 . S
C149 H176 0.980 . S
C149 H177 0.983 . S
C150 H126 0.948 . S
C150 C151 1.391 . S
C150 C155 1.391 . S
C151 C150 1.391 . S
C151 C152 1.391 . S
C152 H129 0.947 . S
C152 C151 1.391 . S
C152 C153 1.392 . S
C153 H130 0.948 . S
C153 C152 1.392 . S
C153 C154 1.419 . S
C154 C153 1.419 . S
C154 C155 1.391 . S
C154 C158 1.397 . S
C155 C150 1.391 . S
C155 C154 1.391 . S
C155 C156 1.399 . S
C156 C155 1.399 . S
C156 C157 1.396 . S
C156 C159 1.453 . S
C156 C160 1.684 . S
C157 C147 1.723 . S
C157 C156 1.396 . S
C157 C158 1.394 . S
C158 C128 1.723 . S
C158 C154 1.397 . S
C158 C157 1.394 . S
C159 H131 0.982 . S
C159 H135 0.979 . S
C159 H136 0.977 . S
C159 C156 1.453 . S
C160 H132 0.979 . S
C160 H133 0.980 . S
C160 H134 0.983 . S
C160 C156 1.684 . S
H161 C179 0.948 . S
H162 C120 0.948 . S
H163 C138 0.979 . S
H164 C138 0.980 . S
H165 C138 0.983 . S
H166 C137 0.982 . S
H167 C137 0.979 . S
H168 C137 0.977 . S
H169 C139 0.948 . S
H170 C141 0.947 . S
H171 C142 0.948 . S
H172 C148 0.982 . S
H173 C148 0.979 . S
H174 C148 0.977 . S
H175 C149 0.979 . S
H176 C149 0.980 . S
H177 C149 0.983 . S
H178 C122 0.947 . S
C179 C122 1.392 . S
C179 C123 1.419 . S
C179 H161 0.948 . S
C180 C181 1.391 . S
C180 C184 1.391 . S
C180 H222 0.948 . S
C181 C180 1.391 . S
C181 C182 1.391 . S
C182 C181 1.391 . S
C182 H238 0.947 . S
C182 C239 1.392 . S
C183 C184 1.391 . S
C183 C187 1.397 . S
C183 C239 1.419 . S
C184 C180 1.391 . S
C184 C183 1.391 . S
C184 C185 1.399 . S
C185 C184 1.399 . S
C185 C188 1.396 . S
C185 C197 1.453 . S
C185 C198 1.684 . S
H186 C210 0.948 . S
C187 C183 1.397 . S
C187 C188 1.394 . S
C187 C206 1.723 . S
C188 C185 1.396 . S
C188 C187 1.394 . S
C188 C218 1.723 . S
H189 C212 0.947 . S
H190 C213 0.948 . S
H191 C219 0.982 . S
H192 C220 0.979 . S
H193 C220 0.980 . S
H194 C220 0.983 . S
H195 C219 0.979 . S
H196 C219 0.977 . S
C197 C185 1.453 . S
C197 H226 0.982 . S
C197 H227 0.979 . S
C197 H228 0.977 . S
C198 C185 1.684 . S
C198 H223 0.979 . S
C198 H224 0.980 . S
C198 H225 0.983 . S
C199 C200 1.391 . S
C199 C204 1.391 . S
C199 H229 0.948 . S
C200 C199 1.391 . S
C200 C201 1.391 . S
C201 C200 1.391 . S
C201 C202 1.392 . S
C201 H230 0.947 . S
C202 C201 1.392 . S
C202 C203 1.419 . S
C202 H231 0.948 . S
C203 C202 1.419 . S
C203 C204 1.391 . S
C203 C207 1.397 . S
C204 C199 1.391 . S
C204 C203 1.391 . S
C204 C205 1.399 . S
C205 C204 1.399 . S
C205 C206 1.396 . S
C205 C208 1.453 . S
C205 C209 1.684 . S
C206 C187 1.723 . S
C206 C205 1.396 . S
C206 C207 1.394 . S
C207 C203 1.397 . S
C207 C206 1.394 . S
C207 C217 1.723 . S
C208 C205 1.453 . S
C208 H232 0.982 . S
C208 H233 0.979 . S
C208 H234 0.977 . S
C209 C205 1.684 . S
C209 H235 0.979 . S
C209 H236 0.980 . S
C209 H237 0.983 . S
C210 H186 0.948 . S
C210 C211 1.391 . S
C210 C215 1.391 . S
C211 C210 1.391 . S
C211 C212 1.391 . S
C212 H189 0.947 . S
C212 C211 1.391 . S
C212 C213 1.392 . S
C213 H190 0.948 . S
C213 C212 1.392 . S
C213 C214 1.419 . S
C214 C213 1.419 . S
C214 C215 1.391 . S
C214 C218 1.397 . S
C215 C210 1.391 . S
C215 C214 1.391 . S
C215 C216 1.399 . S
C216 C215 1.399 . S
C216 C217 1.396 . S
C216 C219 1.453 . S
C216 C220 1.684 . S
C217 C207 1.723 . S
C217 C216 1.396 . S
C217 C218 1.394 . S
C218 C188 1.723 . S
C218 C214 1.397 . S
C218 C217 1.394 . S
C219 H191 0.982 . S
C219 H195 0.979 . S
C219 H196 0.977 . S
C219 C216 1.453 . S
C220 H192 0.979 . S
C220 H193 0.980 . S
C220 H194 0.983 . S
C220 C216 1.684 . S
H221 C239 0.948 . S
H222 C180 0.948 . S
H223 C198 0.979 . S
H224 C198 0.980 . S
H225 C198 0.983 . S
H226 C197 0.982 . S
H227 C197 0.979 . S
H228 C197 0.977 . S
H229 C199 0.948 . S
H230 C201 0.947 . S
H231 C202 0.948 . S
H232 C208 0.982 . S
H233 C208 0.979 . S
H234 C208 0.977 . S
H235 C209 0.979 . S
H236 C209 0.980 . S
H237 C209 0.983 . S
H238 C182 0.947 . S
C239 C182 1.392 . S
C239 C183 1.419 . S
C239 H221 0.948 . S
C240 C241 1.391 . S
C240 C244 1.391 . S
C240 H282 0.948 . S
C241 C240 1.391 . S
C241 C242 1.391 . S
C242 C241 1.391 . S
C242 H298 0.947 . S
C242 C299 1.392 . S
C243 C244 1.391 . S
C243 C247 1.397 . S
C243 C299 1.419 . S
C244 C240 1.391 . S
C244 C243 1.391 . S
C244 C245 1.399 . S
C245 C244 1.399 . S
C245 C248 1.396 . S
C245 C257 1.453 . S
C245 C258 1.684 . S
H246 C270 0.948 . S
C247 C243 1.397 . S
C247 C248 1.394 . S
C247 C266 1.723 . S
C248 C245 1.396 . S
C248 C247 1.394 . S
C248 C278 1.723 . S
H249 C272 0.947 . S
H250 C273 0.948 . S
H251 C279 0.982 . S
H252 C280 0.979 . S
H253 C280 0.980 . S
H254 C280 0.983 . S
H255 C279 0.979 . S
H256 C279 0.977 . S
C257 C245 1.453 . S
C257 H286 0.982 . S
C257 H287 0.979 . S
C257 H288 0.977 . S
C258 C245 1.684 . S
C258 H283 0.979 . S
C258 H284 0.980 . S
C258 H285 0.983 . S
C259 C260 1.391 . S
C259 C264 1.391 . S
C259 H289 0.948 . S
C260 C259 1.391 . S
C260 C261 1.391 . S
C261 C260 1.391 . S
C261 C262 1.392 . S
C261 H290 0.947 . S
C262 C261 1.392 . S
C262 C263 1.419 . S
C262 H291 0.948 . S
C263 C262 1.419 . S
C263 C264 1.391 . S
C263 C267 1.397 . S
C264 C259 1.391 . S
C264 C263 1.391 . S
C264 C265 1.399 . S
C265 C264 1.399 . S
C265 C266 1.396 . S
C265 C268 1.453 . S
C265 C269 1.684 . S
C266 C247 1.723 . S
C266 C265 1.396 . S
C266 C267 1.394 . S
C267 C263 1.397 . S
C267 C266 1.394 . S
C267 C277 1.723 . S
C268 C265 1.453 . S
C268 H292 0.982 . S
C268 H293 0.979 . S
C268 H294 0.977 . S
C269 C265 1.684 . S
C269 H295 0.979 . S
C269 H296 0.980 . S
C269 H297 0.983 . S
C270 H246 0.948 . S
C270 C271 1.391 . S
C270 C275 1.391 . S
C271 C270 1.391 . S
C271 C272 1.391 . S
C272 H249 0.947 . S
C272 C271 1.391 . S
C272 C273 1.392 . S
C273 H250 0.948 . S
C273 C272 1.392 . S
C273 C274 1.419 . S
C274 C273 1.419 . S
C274 C275 1.391 . S
C274 C278 1.397 . S
C275 C270 1.391 . S
C275 C274 1.391 . S
C275 C276 1.399 . S
C276 C275 1.399 . S
C276 C277 1.396 . S
C276 C279 1.453 . S
C276 C280 1.684 . S
C277 C267 1.723 . S
C277 C276 1.396 . S
C277 C278 1.394 . S
C278 C248 1.723 . S
C278 C274 1.397 . S
C278 C277 1.394 . S
C279 H251 0.982 . S
C279 H255 0.979 . S
C279 H256 0.977 . S
C279 C276 1.453 . S
C280 H252 0.979 . S
C280 H253 0.980 . S
C280 H254 0.983 . S
C280 C276 1.684 . S
H281 C299 0.948 . S
H282 C240 0.948 . S
H283 C258 0.979 . S
H284 C258 0.980 . S
H285 C258 0.983 . S
H286 C257 0.982 . S
H287 C257 0.979 . S
H288 C257 0.977 . S
H289 C259 0.948 . S
H290 C261 0.947 . S
H291 C262 0.948 . S
H292 C268 0.982 . S
H293 C268 0.979 . S
H294 C268 0.977 . S
H295 C269 0.979 . S
H296 C269 0.980 . S
H297 C269 0.983 . S
H298 C242 0.947 . S
C299 C242 1.392 . S
C299 C243 1.419 . S
C299 H281 0.948 . S
C300 C301 1.391 . S
C300 C304 1.391 . S
C300 H342 0.948 . S
C301 C300 1.391 . S
C301 C302 1.391 . S
C302 C301 1.391 . S
C302 H358 0.947 . S
C302 C359 1.392 . S
C303 C304 1.391 . S
C303 C307 1.397 . S
C303 C359 1.419 . S
C304 C300 1.391 . S
C304 C303 1.391 . S
C304 C305 1.399 . S
C305 C304 1.399 . S
C305 C308 1.396 . S
C305 C317 1.453 . S
C305 C318 1.684 . S
H306 C330 0.948 . S
C307 C303 1.397 . S
C307 C308 1.394 . S
C307 C326 1.723 . S
C308 C305 1.396 . S
C308 C307 1.394 . S
C308 C338 1.723 . S
H309 C332 0.947 . S
H310 C333 0.948 . S
H311 C339 0.982 . S
H312 C340 0.979 . S
H313 C340 0.980 . S
H314 C340 0.983 . S
H315 C339 0.979 . S
H316 C339 0.977 . S
C317 C305 1.453 . S
C317 H346 0.982 . S
C317 H347 0.979 . S
C317 H348 0.977 . S
C318 C305 1.684 . S
C318 H343 0.979 . S
C318 H344 0.980 . S
C318 H345 0.983 . S
C319 C320 1.391 . S
C319 C324 1.391 . S
C319 H349 0.948 . S
C320 C319 1.391 . S
C320 C321 1.391 . S
C321 C320 1.391 . S
C321 C322 1.392 . S
C321 H350 0.947 . S
C322 C321 1.392 . S
C322 C323 1.419 . S
C322 H351 0.948 . S
C323 C322 1.419 . S
C323 C324 1.391 . S
C323 C327 1.397 . S
C324 C319 1.391 . S
C324 C323 1.391 . S
C324 C325 1.399 . S
C325 C324 1.399 . S
C325 C326 1.396 . S
C325 C328 1.453 . S
C325 C329 1.684 . S
C326 C307 1.723 . S
C326 C325 1.396 . S
C326 C327 1.394 . S
C327 C323 1.397 . S
C327 C326 1.394 . S
C327 C337 1.723 . S
C328 C325 1.453 . S
C328 H352 0.982 . S
C328 H353 0.979 . S
C328 H354 0.977 . S
C329 C325 1.684 . S
C329 H355 0.979 . S
C329 H356 0.980 . S
C329 H357 0.983 . S
C330 H306 0.948 . S
C330 C331 1.391 . S
C330 C335 1.391 . S
C331 C330 1.391 . S
C331 C332 1.391 . S
C332 H309 0.947 . S
C332 C331 1.391 . S
C332 C333 1.392 . S
C333 H310 0.948 . S
C333 C332 1.392 . S
C333 C334 1.419 . S
C334 C333 1.419 . S
C334 C335 1.391 . S
C334 C338 1.397 . S
C335 C330 1.391 . S
C335 C334 1.391 . S
C335 C336 1.399 . S
C336 C335 1.399 . S
C336 C337 1.396 . S
C336 C339 1.453 . S
C336 C340 1.684 . S
C337 C327 1.723 . S
C337 C336 1.396 . S
C337 C338 1.394 . S
C338 C308 1.723 . S
C338 C334 1.397 . S
C338 C337 1.394 . S
C339 H311 0.982 . S
C339 H315 0.979 . S
C339 H316 0.977 . S
C339 C336 1.453 . S
C340 H312 0.979 . S
C340 H313 0.980 . S
C340 H314 0.983 . S
C340 C336 1.684 . S
H341 C359 0.948 . S
H342 C300 0.948 . S
H343 C318 0.979 . S
H344 C318 0.980 . S
H345 C318 0.983 . S
H346 C317 0.982 . S
H347 C317 0.979 . S
H348 C317 0.977 . S
H349 C319 0.948 . S
H350 C321 0.947 . S
H351 C322 0.948 . S
H352 C328 0.982 . S
H353 C328 0.979 . S
H354 C328 0.977 . S
H355 C329 0.979 . S
H356 C329 0.980 . S
H357 C329 0.983 . S
H358 C302 0.947 . S
C359 C302 1.392 . S
C359 C303 1.419 . S
C359 H341 0.948 . S
C360 C361 1.391 . S
C360 C364 1.391 . S
C360 H402 0.948 . S
C361 C360 1.391 . S
C361 C362 1.391 . S
C362 C361 1.391 . S
C362 H418 0.947 . S
C362 C419 1.392 . S
C363 C364 1.391 . S
C363 C367 1.397 . S
C363 C419 1.419 . S
C364 C360 1.391 . S
C364 C363 1.391 . S
C364 C365 1.399 . S
C365 C364 1.399 . S
C365 C368 1.396 . S
C365 C377 1.453 . S
C365 C378 1.684 . S
H366 C390 0.948 . S
C367 C363 1.397 . S
C367 C368 1.394 . S
C367 C386 1.723 . S
C368 C365 1.396 . S
C368 C367 1.394 . S
C368 C398 1.723 . S
H369 C392 0.947 . S
H370 C393 0.948 . S
H371 C399 0.982 . S
H372 C400 0.979 . S
H373 C400 0.980 . S
H374 C400 0.983 . S
H375 C399 0.979 . S
H376 C399 0.977 . S
C377 C365 1.453 . S
C377 H406 0.982 . S
C377 H407 0.979 . S
C377 H408 0.977 . S
C378 C365 1.684 . S
C378 H403 0.979 . S
C378 H404 0.980 . S
C378 H405 0.983 . S
C379 C380 1.391 . S
C379 C384 1.391 . S
C379 H409 0.948 . S
C380 C379 1.391 . S
C380 C381 1.391 . S
C381 C380 1.391 . S
C381 C382 1.392 . S
C381 H410 0.947 . S
C382 C381 1.392 . S
C382 C383 1.419 . S
C382 H411 0.948 . S
C383 C382 1.419 . S
C383 C384 1.391 . S
C383 C387 1.397 . S
C384 C379 1.391 . S
C384 C383 1.391 . S
C384 C385 1.399 . S
C385 C384 1.399 . S
C385 C386 1.396 . S
C385 C388 1.453 . S
C385 C389 1.684 . S
C386 C367 1.723 . S
C386 C385 1.396 . S
C386 C387 1.394 . S
C387 C383 1.397 . S
C387 C386 1.394 . S
C387 C397 1.723 . S
C388 C385 1.453 . S
C388 H412 0.982 . S
C388 H413 0.979 . S
C388 H414 0.977 . S
C389 C385 1.684 . S
C389 H415 0.979 . S
C389 H416 0.980 . S
C389 H417 0.983 . S
C390 H366 0.948 . S
C390 C391 1.391 . S
C390 C395 1.391 . S
C391 C390 1.391 . S
C391 C392 1.391 . S
C392 H369 0.947 . S
C392 C391 1.391 . S
C392 C393 1.392 . S
C393 H370 0.948 . S
C393 C392 1.392 . S
C393 C394 1.419 . S
C394 C393 1.419 . S
C394 C395 1.391 . S
C394 C398 1.397 . S
C395 C390 1.391 . S
C395 C394 1.391 . S
C395 C396 1.399 . S
C396 C395 1.399 . S
C396 C397 1.396 . S
C396 C399 1.453 . S
C396 C400 1.684 . S
C397 C387 1.723 . S
C397 C396 1.396 . S
C397 C398 1.394 . S
C398 C368 1.723 . S
C398 C394 1.397 . S
C398 C397 1.394 . S
C399 H371 0.982 . S
C399 H375 0.979 . S
C399 H376 0.977 . S
C399 C396 1.453 . S
C400 H372 0.979 . S
C400 H373 0.980 . S
C400 H374 0.983 . S
C400 C396 1.684 . S
H401 C419 0.948 . S
H402 C360 0.948 . S
H403 C378 0.979 . S
H404 C378 0.980 . S
H405 C378 0.983 . S
H406 C377 0.982 . S
H407 C377 0.979 . S
H408 C377 0.977 . S
H409 C379 0.948 . S
H410 C381 0.947 . S
H411 C382 0.948 . S
H412 C388 0.982 . S
H413 C388 0.979 . S
H414 C388 0.977 . S
H415 C389 0.979 . S
H416 C389 0.980 . S
H417 C389 0.983 . S
H418 C362 0.947 . S
C419 C362 1.392 . S
C419 C363 1.419 . S
C419 H401 0.948 . S
C420 C421 1.391 . S
C420 C424 1.391 . S
C420 H462 0.948 . S
C421 C420 1.391 . S
C421 C422 1.391 . S
C422 C421 1.391 . S
C422 H478 0.947 . S
C422 C479 1.392 . S
C423 C424 1.391 . S
C423 C427 1.397 . S
C423 C479 1.419 . S
C424 C420 1.391 . S
C424 C423 1.391 . S
C424 C425 1.399 . S
C425 C424 1.399 . S
C425 C428 1.396 . S
C425 C437 1.453 . S
C425 C438 1.684 . S
H426 C450 0.948 . S
C427 C423 1.397 . S
C427 C428 1.394 . S
C427 C446 1.723 . S
C428 C425 1.396 . S
C428 C427 1.394 . S
C428 C458 1.723 . S
H429 C452 0.947 . S
H430 C453 0.948 . S
H431 C459 0.982 . S
H432 C460 0.979 . S
H433 C460 0.980 . S
H434 C460 0.983 . S
H435 C459 0.979 . S
H436 C459 0.977 . S
C437 C425 1.453 . S
C437 H466 0.982 . S
C437 H467 0.979 . S
C437 H468 0.977 . S
C438 C425 1.684 . S
C438 H463 0.979 . S
C438 H464 0.980 . S
C438 H465 0.983 . S
C439 C440 1.391 . S
C439 C444 1.391 . S
C439 H469 0.948 . S
C440 C439 1.391 . S
C440 C441 1.391 . S
C441 C440 1.391 . S
C441 C442 1.392 . S
C441 H470 0.947 . S
C442 C441 1.392 . S
C442 C443 1.419 . S
C442 H471 0.948 . S
C443 C442 1.419 . S
C443 C444 1.391 . S
C443 C447 1.397 . S
C444 C439 1.391 . S
C444 C443 1.391 . S
C444 C445 1.399 . S
C445 C444 1.399 . S
C445 C446 1.396 . S
C445 C448 1.453 . S
C445 C449 1.684 . S
C446 C427 1.723 . S
C446 C445 1.396 . S
C446 C447 1.394 . S
C447 C443 1.397 . S
C447 C446 1.394 . S
C447 C457 1.723 . S
C448 C445 1.453 . S
C448 H472 0.982 . S
C448 H473 0.979 . S
C448 H474 0.977 . S
C449 C445 1.684 . S
C449 H475 0.979 . S
C449 H476 0.980 . S
C449 H477 0.983 . S
C450 H426 0.948 . S
C450 C451 1.391 . S
C450 C455 1.391 . S
C451 C450 1.391 . S
C451 C452 1.391 . S
C452 H429 0.947 . S
C452 C451 1.391 . S
C452 C453 1.392 . S
C453 H430 0.948 . S
C453 C452 1.392 . S
C453 C454 1.419 . S
C454 C453 1.419 . S
C454 C455 1.391 . S
C454 C458 1.397 . S
C455 C450 1.391 . S
C455 C454 1.391 . S
C455 C456 1.399 . S
C456 C455 1.399 . S
C456 C457 1.396 . S
C456 C459 1.453 . S
C456 C460 1.684 . S
C457 C447 1.723 . S
C457 C456 1.396 . S
C457 C458 1.394 . S
C458 C428 1.723 . S
C458 C454 1.397 . S
C458 C457 1.394 . S
C459 H431 0.982 . S
C459 H435 0.979 . S
C459 H436 0.977 . S
C459 C456 1.453 . S
C460 H432 0.979 . S
C460 H433 0.980 . S
C460 H434 0.983 . S
C460 C456 1.684 . S
H461 C479 0.948 . S
H462 C420 0.948 . S
H463 C438 0.979 . S
H464 C438 0.980 . S
H465 C438 0.983 . S
H466 C437 0.982 . S
H467 C437 0.979 . S
H468 C437 0.977 . S
H469 C439 0.948 . S
H470 C441 0.947 . S
H471 C442 0.948 . S
H472 C448 0.982 . S
H473 C448 0.979 . S
H474 C448 0.977 . S
H475 C449 0.979 . S
H476 C449 0.980 . S
H477 C449 0.983 . S
H478 C422 0.947 . S
C479 C422 1.392 . S
C479 C423 1.419 . S
C479 H461 0.948 . S
C480 C481 1.443 . S
C480 N484 1.376 . S
C480 C518 1.389 . S
C481 C480 1.443 . S
C481 C482 1.340 . S
C481 H521 0.951 . S
C482 C481 1.340 . S
C482 C483 1.439 . S
C482 H522 0.950 . S
C483 C482 1.439 . S
C483 N484 1.374 . S
C483 C517 1.395 . S
N484 C480 1.376 . S
N484 C483 1.374 . S
N484 Co485 2.008 . S
Co485 N484 2.008 . S
Co485 N486 1.995 1_455 S
Co485 N491 2.008 . S
Co485 N496 1.995 . S
Co485 N501 2.282 . S
Co485 N507 2.282 1_455 S
N486 Co485 1.995 1_655 S
N486 C487 1.376 . S
N486 C490 1.383 . S
C487 N486 1.376 . S
C487 C488 1.446 . S
C487 C517 1.391 1_655 S
C488 C487 1.446 . S
C488 C489 1.339 . S
C488 H523 0.949 . S
C489 C488 1.339 . S
C489 C490 1.439 . S
C489 H524 0.950 . S
C490 N486 1.383 . S
C490 C489 1.439 . S
C490 C519 1.392 . S
N491 Co485 2.008 . S
N491 C492 1.376 1_455 S
N491 C495 1.374 . S
C492 N491 1.376 1_655 S
C492 C493 1.443 . S
C492 C519 1.389 . S
C493 C492 1.443 . S
C493 C494 1.340 . S
C493 H525 0.951 . S
C494 C493 1.340 . S
C494 C495 1.439 1_655 S
C494 H526 0.950 . S
C495 N491 1.374 . S
C495 C494 1.439 1_455 S
C495 C520 1.395 . S
N496 Co485 1.995 . S
N496 C497 1.376 . S
N496 C500 1.383 . S
C497 N496 1.376 . S
C497 C498 1.446 . S
C497 C520 1.391 . S
C498 C497 1.446 . S
C498 C499 1.339 . S
C498 H527 0.949 . S
C499 C498 1.339 . S
C499 C500 1.439 . S
C499 H528 0.950 . S
C500 N496 1.383 . S
C500 C499 1.439 . S
C500 C518 1.392 . S
N501 Co485 2.282 . S
N501 C504 1.332 . S
N501 C506 1.332 . S
C502 C503 1.386 . S
C502 C505 1.388 . S
C503 C502 1.386 . S
C503 C504 1.382 . S
C503 H529 0.950 . S
C504 N501 1.332 . S
C504 C503 1.382 . S
C504 H515 0.952 . S
C505 C502 1.388 . S
C505 C506 1.382 . S
C505 H530 0.950 . S
C506 N501 1.332 . S
C506 C505 1.382 . S
C506 H516 0.948 . S
N507 Co485 2.282 1_655 S
N507 C511 1.332 . S
N507 C512 1.332 . S
C508 C509 1.388 . S
C508 C512 1.382 . S
C508 H531 0.950 . S
C509 C508 1.388 . S
C509 C510 1.386 . S
C510 C509 1.386 . S
C510 C511 1.382 . S
C510 H532 0.950 . S
C511 N507 1.332 . S
C511 C510 1.382 . S
C511 H513 0.952 . S
C512 N507 1.332 . S
C512 C508 1.382 . S
C512 H514 0.948 . S
H513 C511 0.952 . S
H514 C512 0.948 . S
H515 C504 0.952 . S
H516 C506 0.948 . S
C517 C483 1.395 . S
C517 C487 1.391 1_455 S
C518 C480 1.389 . S
C518 C500 1.392 . S
C519 C490 1.392 . S
C519 C492 1.389 . S
C520 C495 1.395 . S
C520 C497 1.391 . S
H521 C481 0.951 . S
H522 C482 0.950 . S
H523 C488 0.949 . S
H524 C489 0.950 . S
H525 C493 0.951 . S
H526 C494 0.950 . S
H527 C498 0.949 . S
H528 C499 0.950 . S
H529 C503 0.950 . S
H530 C505 0.950 . S
H531 C508 0.950 . S
H532 C510 0.950 . S
C533 C534 1.443 . S
C533 N537 1.376 . S
C533 C571 1.389 . S
C534 C533 1.443 . S
C534 C535 1.340 . S
C534 H574 0.951 . S
C535 C534 1.340 . S
C535 C536 1.439 . S
C535 H575 0.950 . S
C536 C535 1.439 . S
C536 N537 1.374 . S
C536 C570 1.395 . S
N537 C533 1.376 . S
N537 C536 1.374 . S
N537 Co538 2.008 . S
Co538 N537 2.008 . S
Co538 N539 1.995 1_455 S
Co538 N544 2.008 1_455 S
Co538 N549 1.995 . S
Co538 N554 2.282 . S
Co538 N560 2.282 1_455 S
N539 Co538 1.995 1_655 S
N539 C540 1.376 . S
N539 C543 1.383 . S
C540 N539 1.376 . S
C540 C541 1.446 . S
C540 C570 1.391 1_655 S
C541 C540 1.446 . S
C541 C542 1.339 . S
C541 H576 0.949 . S
C542 C541 1.339 . S
C542 C543 1.439 . S
C542 H577 0.950 . S
C543 N539 1.383 . S
C543 C542 1.439 . S
C543 C572 1.392 . S
N544 Co538 2.008 1_655 S
N544 C545 1.376 . S
N544 C548 1.374 1_655 S
C545 N544 1.376 . S
C545 C546 1.443 . S
C545 C572 1.389 . S
C546 C545 1.443 . S
C546 C547 1.340 . S
C546 H578 0.951 . S
C547 C546 1.340 . S
C547 C548 1.439 1_655 S
C547 H579 0.950 . S
C548 N544 1.374 1_455 S
C548 C547 1.439 1_455 S
C548 C573 1.395 . S
N549 Co538 1.995 . S
N549 C550 1.376 . S
N549 C553 1.383 . S
C550 N549 1.376 . S
C550 C551 1.446 . S
C550 C573 1.391 . S
C551 C550 1.446 . S
C551 C552 1.339 . S
C551 H580 0.949 . S
C552 C551 1.339 . S
C552 C553 1.439 . S
C552 H581 0.950 . S
C553 N549 1.383 . S
C553 C552 1.439 . S
C553 C571 1.392 . S
N554 Co538 2.282 . S
N554 C557 1.332 . S
N554 C559 1.332 . S
C555 C556 1.386 . S
C555 C558 1.388 . S
C556 C555 1.386 . S
C556 C557 1.382 . S
C556 H582 0.950 . S
C557 N554 1.332 . S
C557 C556 1.382 . S
C557 H568 0.952 . S
C558 C555 1.388 . S
C558 C559 1.382 . S
C558 H583 0.950 . S
C559 N554 1.332 . S
C559 C558 1.382 . S
C559 H569 0.948 . S
N560 Co538 2.282 1_655 S
N560 C564 1.332 . S
N560 C565 1.332 . S
C561 C562 1.388 . S
C561 C565 1.382 . S
C561 H584 0.950 . S
C562 C561 1.388 . S
C562 C563 1.386 . S
C563 C562 1.386 . S
C563 C564 1.382 . S
C563 H585 0.950 . S
C564 N560 1.332 . S
C564 C563 1.382 . S
C564 H566 0.952 . S
C565 N560 1.332 . S
C565 C561 1.382 . S
C565 H567 0.948 . S
H566 C564 0.952 . S
H567 C565 0.948 . S
H568 C557 0.952 . S
H569 C559 0.948 . S
C570 C536 1.395 . S
C570 C540 1.391 1_455 S
C571 C533 1.389 . S
C571 C553 1.392 . S
C572 C543 1.392 . S
C572 C545 1.389 . S
C573 C548 1.395 . S
C573 C550 1.391 . S
H574 C534 0.951 . S
H575 C535 0.950 . S
H576 C541 0.949 . S
H577 C542 0.950 . S
H578 C546 0.951 . S
H579 C547 0.950 . S
H580 C551 0.949 . S
H581 C552 0.950 . S
H582 C556 0.950 . S
H583 C558 0.950 . S
H584 C561 0.950 . S
H585 C563 0.950 . S
C586 C587 1.443 . S
C586 N590 1.376 . S
C586 C624 1.389 . S
C587 C586 1.443 . S
C587 C588 1.340 . S
C587 H627 0.951 . S
C588 C587 1.340 . S
C588 C589 1.439 . S
C588 H628 0.950 . S
C589 C588 1.439 . S
C589 N590 1.374 . S
C589 C623 1.395 1_565 S
N590 C586 1.376 . S
N590 C589 1.374 . S
N590 Co591 2.008 1_565 S
Co591 N590 2.008 1_545 S
Co591 N592 1.995 . S
Co591 N597 2.008 . S
Co591 N602 1.995 1_545 S
Co591 N607 2.282 . S
Co591 N613 2.282 1_545 S
N592 Co591 1.995 . S
N592 C593 1.376 . S
N592 C596 1.383 . S
C593 N592 1.376 . S
C593 C594 1.446 . S
C593 C623 1.391 . S
C594 C593 1.446 . S
C594 C595 1.339 . S
C594 H629 0.949 . S
C595 C594 1.339 . S
C595 C596 1.439 . S
C595 H630 0.950 . S
C596 N592 1.383 . S
C596 C595 1.439 . S
C596 C625 1.392 . S
N597 Co591 2.008 . S
N597 C598 1.376 . S
N597 C601 1.374 . S
C598 N597 1.376 . S
C598 C599 1.443 . S
C598 C625 1.389 . S
C599 C598 1.443 . S
C599 C600 1.340 . S
C599 H631 0.951 . S
C600 C599 1.340 . S
C600 C601 1.439 . S
C600 H632 0.950 . S
C601 N597 1.374 . S
C601 C600 1.439 . S
C601 C626 1.395 . S
N602 Co591 1.995 1_565 S
N602 C603 1.376 . S
N602 C606 1.383 . S
C603 N602 1.376 . S
C603 C604 1.446 . S
C603 C626 1.391 1_565 S
C604 C603 1.446 . S
C604 C605 1.339 . S
C604 H633 0.949 . S
C605 C604 1.339 . S
C605 C606 1.439 . S
C605 H634 0.950 . S
C606 N602 1.383 . S
C606 C605 1.439 . S
C606 C624 1.392 . S
N607 Co591 2.282 . S
N607 C610 1.332 . S
N607 C612 1.332 . S
C608 C609 1.386 . S
C608 C611 1.388 . S
C609 C608 1.386 . S
C609 C610 1.382 . S
C609 H635 0.950 . S
C610 N607 1.332 . S
C610 C609 1.382 . S
C610 H621 0.952 . S
C611 C608 1.388 . S
C611 C612 1.382 . S
C611 H636 0.950 . S
C612 N607 1.332 . S
C612 C611 1.382 . S
C612 H622 0.948 . S
N613 Co591 2.282 1_565 S
N613 C617 1.332 . S
N613 C618 1.332 . S
C614 C615 1.388 . S
C614 C618 1.382 . S
C614 H637 0.950 . S
C615 C614 1.388 . S
C615 C616 1.386 . S
C616 C615 1.386 . S
C616 C617 1.382 . S
C616 H638 0.950 . S
C617 N613 1.332 . S
C617 C616 1.382 . S
C617 H619 0.952 . S
C618 N613 1.332 . S
C618 C614 1.382 . S
C618 H620 0.948 . S
H619 C617 0.952 . S
H620 C618 0.948 . S
H621 C610 0.952 . S
H622 C612 0.948 . S
C623 C589 1.395 1_545 S
C623 C593 1.391 . S
C624 C586 1.389 . S
C624 C606 1.392 . S
C625 C596 1.392 . S
C625 C598 1.389 . S
C626 C601 1.395 . S
C626 C603 1.391 1_545 S
H627 C587 0.951 . S
H628 C588 0.950 . S
H629 C594 0.949 . S
H630 C595 0.950 . S
H631 C599 0.951 . S
H632 C600 0.950 . S
H633 C604 0.949 . S
H634 C605 0.950 . S
H635 C609 0.950 . S
H636 C611 0.950 . S
H637 C614 0.950 . S
H638 C616 0.950 . S
C639 C640 1.443 . S
C639 N643 1.376 . S
C639 C677 1.389 . S
C640 C639 1.443 . S
C640 C641 1.340 . S
C640 H680 0.951 . S
C641 C640 1.340 . S
C641 C642 1.439 . S
C641 H681 0.950 . S
C642 C641 1.439 . S
C642 N643 1.374 . S
C642 C676 1.395 . S
N643 C639 1.376 . S
N643 C642 1.374 . S
N643 Co644 2.008 . S
Co644 N643 2.008 . S
Co644 N645 1.993 . S
Co644 N650 2.008 1_554 S
Co644 N655 1.995 . S
Co644 N660 2.282 1_554 S
Co644 N666 2.282 . S
N645 Co644 1.993 . S
N645 C646 1.376 . S
N645 C649 1.386 1_554 S
C646 N645 1.376 . S
C646 C647 1.446 1_554 S
C646 C676 1.391 . S
C647 C646 1.446 1_556 S
C647 C648 1.339 . S
C647 H682 0.949 . S
C648 C647 1.339 . S
C648 C649 1.439 . S
C648 H683 0.950 . S
C649 N645 1.386 1_556 S
C649 C648 1.439 . S
C649 C678 1.392 . S
N650 Co644 2.008 1_556 S
N650 C651 1.376 . S
N650 C654 1.374 . S
C651 N650 1.376 . S
C651 C652 1.443 . S
C651 C678 1.389 . S
C652 C651 1.443 . S
C652 C653 1.340 . S
C652 H684 0.951 . S
C653 C652 1.340 . S
C653 C654 1.445 . S
C653 H685 0.950 . S
C654 N650 1.374 . S
C654 C653 1.445 . S
C654 C679 1.391 1_556 S
N655 Co644 1.995 . S
N655 C656 1.376 . S
N655 C659 1.383 . S
C656 N655 1.376 . S
C656 C657 1.446 . S
C656 C679 1.391 . S
C657 C656 1.446 . S
C657 C658 1.339 . S
C657 H686 0.949 . S
C658 C657 1.339 . S
C658 C659 1.439 . S
C658 H687 0.950 . S
C659 N655 1.383 . S
C659 C658 1.439 . S
C659 C677 1.392 . S
N660 Co644 2.282 1_556 S
N660 C663 1.332 . S
N660 C665 1.332 . S
C661 C662 1.386 . S
C661 C664 1.388 . S
C662 C661 1.386 . S
C662 C663 1.382 . S
C662 H688 0.950 . S
C663 N660 1.332 . S
C663 C662 1.382 . S
C663 H674 0.952 . S
C664 C661 1.388 . S
C664 C665 1.382 . S
C664 H689 0.950 . S
C665 N660 1.332 . S
C665 C664 1.382 . S
C665 H675 0.948 . S
N666 Co644 2.282 . S
N666 C670 1.332 . S
N666 C671 1.332 . S
C667 C668 1.388 . S
C667 C671 1.382 . S
C667 H690 0.950 . S
C668 C667 1.388 . S
C668 C669 1.386 . S
C669 C668 1.386 . S
C669 C670 1.382 . S
C669 H691 0.950 . S
C670 N666 1.332 . S
C670 C669 1.382 . S
C670 H672 0.952 . S
C671 N666 1.332 . S
C671 C667 1.382 . S
C671 H673 0.948 . S
H672 C670 0.952 . S
H673 C671 0.948 . S
H674 C663 0.952 . S
H675 C665 0.948 . S
C676 C642 1.395 . S
C676 C646 1.391 . S
C677 C639 1.389 . S
C677 C659 1.392 . S
C678 C649 1.392 . S
C678 C651 1.389 . S
C679 C654 1.391 1_554 S
C679 C656 1.391 . S
H680 C640 0.951 . S
H681 C641 0.950 . S
H682 C647 0.949 . S
H683 C648 0.950 . S
H684 C652 0.951 . S
H685 C653 0.950 . S
H686 C657 0.949 . S
H687 C658 0.950 . S
H688 C662 0.950 . S
H689 C664 0.950 . S
H690 C667 0.950 . S
H691 C669 0.950 . S
C692 C693 1.443 . S
C692 N696 1.376 1_565 S
C692 C730 1.389 . S
C693 C692 1.443 . S
C693 C694 1.340 . S
C693 H733 0.951 . S
C694 C693 1.340 . S
C694 C695 1.439 1_565 S
C694 H734 0.950 . S
C695 C694 1.439 1_545 S
C695 N696 1.374 . S
C695 C729 1.395 . S
N696 C692 1.376 1_545 S
N696 C695 1.374 . S
N696 Co697 2.008 . S
Co697 N696 2.008 . S
Co697 N698 1.995 . S
Co697 N703 2.008 . S
Co697 N708 1.995 . S
Co697 N713 2.282 . S
Co697 N719 2.282 1_545 S
N698 Co697 1.995 . S
N698 C699 1.376 . S
N698 C702 1.383 . S
C699 N698 1.376 . S
C699 C700 1.446 . S
C699 C729 1.391 . S
C700 C699 1.446 . S
C700 C701 1.339 . S
C700 H735 0.949 . S
C701 C700 1.339 . S
C701 C702 1.439 . S
C701 H736 0.950 . S
C702 N698 1.383 . S
C702 C701 1.439 . S
C702 C731 1.392 . S
N703 Co697 2.008 . S
N703 C704 1.376 . S
N703 C707 1.374 . S
C704 N703 1.376 . S
C704 C705 1.443 . S
C704 C731 1.389 . S
C705 C704 1.443 . S
C705 C706 1.340 . S
C705 H737 0.951 . S
C706 C705 1.340 . S
C706 C707 1.439 . S
C706 H738 0.950 . S
C707 N703 1.374 . S
C707 C706 1.439 . S
C707 C732 1.395 . S
N708 Co697 1.995 . S
N708 C709 1.376 . S
N708 C712 1.383 1_545 S
C709 N708 1.376 . S
C709 C710 1.446 1_545 S
C709 C732 1.391 . S
C710 C709 1.446 1_565 S
C710 C711 1.339 . S
C710 H739 0.949 . S
C711 C710 1.339 . S
C711 C712 1.439 . S
C711 H740 0.950 . S
C712 N708 1.383 1_565 S
C712 C711 1.439 . S
C712 C730 1.392 . S
N713 Co697 2.282 . S
N713 C716 1.332 . S
N713 C718 1.332 . S
C714 C715 1.386 . S
C714 C717 1.388 . S
C715 C714 1.386 . S
C715 C716 1.382 . S
C715 H741 0.950 . S
C716 N713 1.332 . S
C716 C715 1.382 . S
C716 H727 0.952 . S
C717 C714 1.388 . S
C717 C718 1.382 . S
C717 H742 0.950 . S
C718 N713 1.332 . S
C718 C717 1.382 . S
C718 H728 0.948 . S
N719 Co697 2.282 1_565 S
N719 C723 1.332 . S
N719 C724 1.332 . S
C720 C721 1.388 . S
C720 C724 1.382 . S
C720 H743 0.950 . S
C721 C720 1.388 . S
C721 C722 1.386 . S
C722 C721 1.386 . S
C722 C723 1.382 . S
C722 H744 0.950 . S
C723 N719 1.332 . S
C723 C722 1.382 . S
C723 H725 0.952 . S
C724 N719 1.332 . S
C724 C720 1.382 . S
C724 H726 0.948 . S
H725 C723 0.952 . S
H726 C724 0.948 . S
H727 C716 0.952 . S
H728 C718 0.948 . S
C729 C695 1.395 . S
C729 C699 1.391 . S
C730 C692 1.389 . S
C730 C712 1.392 . S
C731 C702 1.392 . S
C731 C704 1.389 . S
C732 C707 1.395 . S
C732 C709 1.391 . S
H733 C693 0.951 . S
H734 C694 0.950 . S
H735 C700 0.949 . S
H736 C701 0.950 . S
H737 C705 0.951 . S
H738 C706 0.950 . S
H739 C710 0.949 . S
H740 C711 0.950 . S
H741 C715 0.950 . S
H742 C717 0.950 . S
H743 C720 0.950 . S
H744 C722 0.950 . S
C745 C746 1.443 . S
C745 N749 1.376 . S
C745 C783 1.389 . S
C746 C745 1.443 . S
C746 C747 1.340 . S
C746 H786 0.951 . S
C747 C746 1.340 . S
C747 C748 1.439 . S
C747 H787 0.950 . S
C748 C747 1.439 . S
C748 N749 1.374 . S
C748 C782 1.395 . S
N749 C745 1.376 . S
N749 C748 1.374 . S
N749 Co750 2.008 . S
Co750 N749 2.008 . S
Co750 N751 1.995 . S
Co750 N756 2.008 . S
Co750 N761 1.995 . S
Co750 N766 2.294 . S
Co750 N772 2.282 . S
N751 Co750 1.995 . S
N751 C752 1.376 . S
N751 C755 1.383 1_554 S
C752 N751 1.376 . S
C752 C753 1.446 1_554 S
C752 C782 1.391 . S
C753 C752 1.446 1_556 S
C753 C754 1.339 . S
C753 H788 0.949 . S
C754 C753 1.339 . S
C754 C755 1.439 . S
C754 H789 0.950 . S
C755 N751 1.383 1_556 S
C755 C754 1.439 . S
C755 C784 1.392 . S
N756 Co750 2.008 . S
N756 C757 1.376 1_554 S
N756 C760 1.374 . S
C757 N756 1.376 1_556 S
C757 C758 1.443 . S
C757 C784 1.389 . S
C758 C757 1.443 . S
C758 C759 1.340 . S
C758 H790 0.951 . S
C759 C758 1.340 . S
C759 C760 1.439 1_556 S
C759 H791 0.950 . S
C760 N756 1.374 . S
C760 C759 1.439 1_554 S
C760 C785 1.395 . S
N761 Co750 1.995 . S
N761 C762 1.376 . S
N761 C765 1.383 . S
C762 N761 1.376 . S
C762 C763 1.446 . S
C762 C785 1.391 . S
C763 C762 1.446 . S
C763 C764 1.339 . S
C763 H792 0.949 . S
C764 C763 1.339 . S
C764 C765 1.439 . S
C764 H793 0.950 . S
C765 N761 1.383 . S
C765 C764 1.439 . S
C765 C783 1.392 . S
N766 Co750 2.294 . S
N766 C769 1.327 1_554 S
N766 C771 1.324 1_554 S
C767 C768 1.386 . S
C767 C770 1.388 . S
C768 C767 1.386 . S
C768 C769 1.382 . S
C768 H794 0.950 . S
C769 N766 1.327 1_556 S
C769 C768 1.382 . S
C769 H780 0.952 1_556 S
C770 C767 1.388 . S
C770 C771 1.382 . S
C770 H795 0.950 . S
C771 N766 1.324 1_556 S
C771 C770 1.382 . S
C771 H781 0.948 . S
N772 Co750 2.282 . S
N772 C776 1.332 . S
N772 C777 1.332 . S
C773 C774 1.388 . S
C773 C777 1.382 . S
C773 H796 0.950 . S
C774 C773 1.388 . S
C774 C775 1.386 . S
C775 C774 1.386 . S
C775 C776 1.382 . S
C775 H797 0.950 . S
C776 N772 1.332 . S
C776 C775 1.382 . S
C776 H778 0.952 . S
C777 N772 1.332 . S
C777 C773 1.382 . S
C777 H779 0.948 . S
H778 C776 0.952 . S
H779 C777 0.948 . S
H780 C769 0.952 1_554 S
H781 C771 0.948 . S
C782 C748 1.395 . S
C782 C752 1.391 . S
C783 C745 1.389 . S
C783 C765 1.392 . S
C784 C755 1.392 . S
C784 C757 1.389 . S
C785 C760 1.395 . S
C785 C762 1.391 . S
H786 C746 0.951 . S
H787 C747 0.950 . S
H788 C753 0.949 . S
H789 C754 0.950 . S
H790 C758 0.951 . S
H791 C759 0.950 . S
H792 C763 0.949 . S
H793 C764 0.950 . S
H794 C768 0.950 . S
H795 C770 0.950 . S
H796 C773 0.950 . S
H797 C775 0.950 . S
H798 C804 0.930 . S
H799 C807 0.930 . S
H800 C808 0.930 . S
H801 C809 0.930 . S
H802 C812 0.930 . S
H803 C813 0.930 . S
C804 H798 0.930 . S
C804 C805 1.355 . S
C804 C806 1.415 . S
C805 C804 1.355 . S
C805 C807 1.419 . S
C806 C804 1.415 . S
C806 C811 1.425 . S
C806 C813 1.409 . S
C807 H799 0.930 . S
C807 C805 1.419 . S
C807 C808 1.362 . S
C808 H800 0.930 . S
C808 C807 1.362 . S
C808 C811 1.409 . S
C809 H801 0.930 . S
C809 C810 1.355 . S
C809 C811 1.415 . S
C810 C809 1.355 . S
C810 C812 1.419 . S
C811 C806 1.425 . S
C811 C808 1.409 . S
C811 C809 1.415 . S
C812 H802 0.930 . S
C812 C810 1.419 . S
C812 C813 1.362 . S
C813 H803 0.930 . S
C813 C806 1.409 . S
C813 C812 1.362 . S
H814 C820 0.930 . S
H815 C823 0.930 . S
H816 C824 0.930 . S
H817 C825 0.930 . S
H818 C828 0.930 . S
H819 C829 0.930 . S
C820 H814 0.930 . S
C820 C821 1.355 . S
C820 C822 1.415 . S
C821 C820 1.355 . S
C821 C823 1.419 . S
C822 C820 1.415 . S
C822 C827 1.425 . S
C822 C829 1.409 . S
C823 H815 0.930 . S
C823 C821 1.419 . S
C823 C824 1.362 . S
C824 H816 0.930 . S
C824 C823 1.362 . S
C824 C827 1.409 . S
C825 H817 0.930 . S
C825 C826 1.355 . S
C825 C827 1.415 . S
C826 C825 1.355 . S
C826 C828 1.419 . S
C827 C822 1.425 . S
C827 C824 1.409 . S
C827 C825 1.415 . S
C828 H818 0.930 . S
C828 C826 1.419 . S
C828 C829 1.362 . S
C829 H819 0.930 . S
C829 C822 1.409 . S
C829 C828 1.362 . S
H830 C836 0.930 . S
H831 C839 0.930 . S
H832 C840 0.930 . S
H833 C841 0.930 . S
H834 C844 0.930 . S
H835 C845 0.930 . S
C836 H830 0.930 . S
C836 C837 1.355 . S
C836 C838 1.415 . S
C837 C836 1.355 . S
C837 C839 1.419 . S
C838 C836 1.415 . S
C838 C843 1.425 . S
C838 C845 1.409 . S
C839 H831 0.930 . S
C839 C837 1.419 . S
C839 C840 1.362 . S
C840 H832 0.930 . S
C840 C839 1.362 . S
C840 C843 1.409 . S
C841 H833 0.930 . S
C841 C842 1.355 . S
C841 C843 1.415 . S
C842 C841 1.355 . S
C842 C844 1.419 . S
C843 C838 1.425 . S
C843 C840 1.409 . S
C843 C841 1.415 . S
C844 H834 0.930 . S
C844 C842 1.419 . S
C844 C845 1.362 . S
C845 H835 0.930 . S
C845 C838 1.409 . S
C845 C844 1.362 . S
H846 C852 0.930 . S
H847 C855 0.930 . S
H848 C856 0.930 . S
H849 C857 0.930 . S
H850 C860 0.930 . S
H851 C861 0.930 . S
C852 H846 0.930 . S
C852 C853 1.355 . S
C852 C854 1.415 . S
C853 C852 1.355 . S
C853 C855 1.419 . S
C854 C852 1.415 . S
C854 C859 1.425 . S
C854 C861 1.409 . S
C855 H847 0.930 . S
C855 C853 1.419 . S
C855 C856 1.362 . S
C856 H848 0.930 . S
C856 C855 1.362 . S
C856 C859 1.409 . S
C857 H849 0.930 . S
C857 C858 1.355 . S
C857 C859 1.415 . S
C858 C857 1.355 . S
C858 C860 1.419 . S
C859 C854 1.425 . S
C859 C856 1.409 . S
C859 C857 1.415 . S
C860 H850 0.930 . S
C860 C858 1.419 . S
C860 C861 1.362 . S
C861 H851 0.930 . S
C861 C854 1.409 . S
C861 C860 1.362 . S
H862 C868 0.930 . S
H863 C871 0.930 . S
H864 C872 0.930 . S
H865 C873 0.930 . S
H866 C876 0.930 . S
H867 C877 0.930 . S
C868 H862 0.930 . S
C868 C869 1.355 . S
C868 C870 1.415 . S
C869 C868 1.355 . S
C869 C871 1.419 . S
C870 C868 1.415 . S
C870 C875 1.425 . S
C870 C877 1.409 . S
C871 H863 0.930 . S
C871 C869 1.419 . S
C871 C872 1.362 . S
C872 H864 0.930 . S
C872 C871 1.362 . S
C872 C875 1.409 . S
C873 H865 0.930 . S
C873 C874 1.355 . S
C873 C875 1.415 . S
C874 C873 1.355 . S
C874 C876 1.419 . S
C875 C870 1.425 . S
C875 C872 1.409 . S
C875 C873 1.415 . S
C876 H866 0.930 . S
C876 C874 1.419 . S
C876 C877 1.362 . S
C877 H867 0.930 . S
C877 C870 1.409 . S
C877 C876 1.362 . S
H878 C884 0.930 . S
H879 C887 0.930 . S
H880 C888 0.930 . S
H881 C889 0.930 . S
H882 C892 0.930 . S
H883 C893 0.930 . S
C884 H878 0.930 . S
C884 C885 1.355 . S
C884 C886 1.415 . S
C885 C884 1.355 . S
C885 C887 1.419 . S
C886 C884 1.415 . S
C886 C891 1.425 . S
C886 C893 1.409 . S
C887 H879 0.930 . S
C887 C885 1.419 . S
C887 C888 1.362 . S
C888 H880 0.930 . S
C888 C887 1.362 . S
C888 C891 1.409 . S
C889 H881 0.930 . S
C889 C890 1.355 . S
C889 C891 1.415 . S
C890 C889 1.355 . S
C890 C892 1.419 . S
C891 C886 1.425 . S
C891 C888 1.409 . S
C891 C889 1.415 . S
C892 H882 0.930 . S
C892 C890 1.419 . S
C892 C893 1.362 . S
C893 H883 0.930 . S
C893 C886 1.409 . S
C893 C892 1.362 . S
H894 C900 0.930 . S
H895 C903 0.930 . S
H896 C904 0.930 . S
H897 C905 0.930 . S
H898 C908 0.930 . S
H899 C909 0.930 . S
C900 H894 0.930 . S
C900 C901 1.355 . S
C900 C902 1.415 . S
C901 C900 1.355 . S
C901 C903 1.419 . S
C902 C900 1.415 . S
C902 C907 1.425 . S
C902 C909 1.409 . S
C903 H895 0.930 . S
C903 C901 1.419 . S
C903 C904 1.362 . S
C904 H896 0.930 . S
C904 C903 1.362 . S
C904 C907 1.409 . S
C905 H897 0.930 . S
C905 C906 1.355 . S
C905 C907 1.415 . S
C906 C905 1.355 . S
C906 C908 1.419 . S
C907 C902 1.425 . S
C907 C904 1.409 . S
C907 C905 1.415 . S
C908 H898 0.930 . S
C908 C906 1.419 . S
C908 C909 1.362 . S
C909 H899 0.930 . S
C909 C902 1.409 . S
C909 C908 1.362 . S
H910 C916 0.930 . S
H911 C919 0.930 . S
H912 C920 0.930 . S
H913 C921 0.930 . S
H914 C924 0.930 . S
H915 C925 0.930 . S
C916 H910 0.930 . S
C916 C917 1.355 . S
C916 C918 1.415 . S
C917 C916 1.355 . S
C917 C919 1.419 . S
C918 C916 1.415 . S
C918 C923 1.425 . S
C918 C925 1.409 . S
C919 H911 0.930 . S
C919 C917 1.419 . S
C919 C920 1.362 . S
C920 H912 0.930 . S
C920 C919 1.362 . S
C920 C923 1.409 . S
C921 H913 0.930 . S
C921 C922 1.355 . S
C921 C923 1.415 . S
C922 C921 1.355 . S
C922 C924 1.419 . S
C923 C918 1.425 . S
C923 C920 1.409 . S
C923 C921 1.415 . S
C924 H914 0.930 . S
C924 C922 1.419 . S
C924 C925 1.362 . S
C925 H915 0.930 . S
C925 C918 1.409 . S
C925 C924 1.362 . S
H926 C932 0.930 . S
H927 C935 0.930 . S
H928 C936 0.930 . S
H929 C937 0.930 . S
H930 C940 0.930 . S
H931 C941 0.930 . S
C932 H926 0.930 . S
C932 C933 1.355 . S
C932 C934 1.415 . S
C933 C932 1.355 . S
C933 C935 1.419 . S
C934 C932 1.415 . S
C934 C939 1.425 . S
C934 C941 1.409 . S
C935 H927 0.930 . S
C935 C933 1.419 . S
C935 C936 1.362 . S
C936 H928 0.930 . S
C936 C935 1.362 . S
C936 C939 1.409 . S
C937 H929 0.930 . S
C937 C938 1.355 . S
C937 C939 1.415 . S
C938 C937 1.355 . S
C938 C940 1.419 . S
C939 C934 1.425 . S
C939 C936 1.409 . S
C939 C937 1.415 . S
C940 H930 0.930 . S
C940 C938 1.419 . S
C940 C941 1.362 . S
C941 H931 0.930 . S
C941 C934 1.409 . S
C941 C940 1.362 . S
H942 C948 0.930 . S
H943 C951 0.930 . S
H944 C952 0.930 . S
H945 C953 0.930 . S
H946 C956 0.930 . S
H947 C957 0.930 . S
C948 H942 0.930 . S
C948 C949 1.355 . S
C948 C950 1.415 . S
C949 C948 1.355 . S
C949 C951 1.419 . S
C950 C948 1.415 . S
C950 C955 1.425 . S
C950 C957 1.409 . S
C951 H943 0.930 . S
C951 C949 1.419 . S
C951 C952 1.362 . S
C952 H944 0.930 . S
C952 C951 1.362 . S
C952 C955 1.409 . S
C953 H945 0.930 . S
C953 C954 1.355 . S
C953 C955 1.415 . S
C954 C953 1.355 . S
C954 C956 1.419 . S
C955 C950 1.425 . S
C955 C952 1.409 . S
C955 C953 1.415 . S
C956 H946 0.930 . S
C956 C954 1.419 . S
C956 C957 1.362 . S
C957 H947 0.930 . S
C957 C950 1.409 . S
C957 C956 1.362 . S
H958 C964 0.930 . S
H959 C967 0.930 . S
H960 C968 0.930 . S
H961 C969 0.930 . S
H962 C972 0.930 . S
H963 C973 0.930 . S
C964 H958 0.930 . S
C964 C965 1.355 . S
C964 C966 1.415 . S
C965 C964 1.355 . S
C965 C967 1.419 . S
C966 C964 1.415 . S
C966 C971 1.425 . S
C966 C973 1.409 . S
C967 H959 0.930 . S
C967 C965 1.419 . S
C967 C968 1.362 . S
C968 H960 0.930 . S
C968 C967 1.362 . S
C968 C971 1.409 . S
C969 H961 0.930 . S
C969 C970 1.355 . S
C969 C971 1.415 . S
C970 C969 1.355 . S
C970 C972 1.419 . S
C971 C966 1.425 . S
C971 C968 1.409 . S
C971 C969 1.415 . S
C972 H962 0.930 . S
C972 C970 1.419 . S
C972 C973 1.362 . S
C973 H963 0.930 . S
C973 C966 1.409 . S
C973 C972 1.362 . S
H974 C980 0.930 . S
H975 C983 0.930 . S
H976 C984 0.930 . S
H977 C985 0.930 . S
H978 C988 0.930 . S
H979 C989 0.930 . S
C980 H974 0.930 . S
C980 C981 1.355 . S
C980 C982 1.415 . S
C981 C980 1.355 . S
C981 C983 1.419 . S
C982 C980 1.415 . S
C982 C987 1.425 . S
C982 C989 1.409 . S
C983 H975 0.930 . S
C983 C981 1.419 . S
C983 C984 1.362 . S
C984 H976 0.930 . S
C984 C983 1.362 . S
C984 C987 1.409 . S
C985 H977 0.930 . S
C985 C986 1.355 . S
C985 C987 1.415 . S
C986 C985 1.355 . S
C986 C988 1.419 . S
C987 C982 1.425 . S
C987 C984 1.409 . S
C987 C985 1.415 . S
C988 H978 0.930 . S
C988 C986 1.419 . S
C988 C989 1.362 . S
C989 H979 0.930 . S
C989 C982 1.409 . S
C989 C988 1.362 . S
H990 C996 0.930 . S
H991 C999 0.930 . S
H992 C1000 0.930 . S
H993 C1001 0.930 . S
H994 C1004 0.930 . S
H995 C1005 0.930 . S
C996 H990 0.930 . S
C996 C997 1.355 . S
C996 C998 1.415 . S
C997 C996 1.355 . S
C997 C999 1.419 . S
C998 C996 1.415 . S
C998 C1003 1.425 . S
C998 C1005 1.409 . S
C999 H991 0.930 . S
C999 C997 1.419 . S
C999 C1000 1.362 . S
C1000 H992 0.930 . S
C1000 C999 1.362 . S
C1000 C1003 1.409 . S
C1001 H993 0.930 . S
C1001 C1002 1.355 . S
C1001 C1003 1.415 . S
C1002 C1001 1.355 . S
C1002 C1004 1.419 . S
C1003 C998 1.425 . S
C1003 C1000 1.409 . S
C1003 C1001 1.415 . S
C1004 H994 0.930 . S
C1004 C1002 1.419 . S
C1004 C1005 1.362 . S
C1005 H995 0.930 . S
C1005 C998 1.409 . S
C1005 C1004 1.362 . S
H1006 C1012 0.930 . S
H1007 C1015 0.930 . S
H1008 C1016 0.930 . S
H1009 C1017 0.930 . S
H1010 C1020 0.930 . S
H1011 C1021 0.930 . S
C1012 H1006 0.930 . S
C1012 C1013 1.355 . S
C1012 C1014 1.415 . S
C1013 C1012 1.355 . S
C1013 C1015 1.419 . S
C1014 C1012 1.415 . S
C1014 C1019 1.425 . S
C1014 C1021 1.409 . S
C1015 H1007 0.930 . S
C1015 C1013 1.419 . S
C1015 C1016 1.362 . S
C1016 H1008 0.930 . S
C1016 C1015 1.362 . S
C1016 C1019 1.409 . S
C1017 H1009 0.930 . S
C1017 C1018 1.355 . S
C1017 C1019 1.415 . S
C1018 C1017 1.355 . S
C1018 C1020 1.419 . S
C1019 C1014 1.425 . S
C1019 C1016 1.409 . S
C1019 C1017 1.415 . S
C1020 H1010 0.930 . S
C1020 C1018 1.419 . S
C1020 C1021 1.362 . S
C1021 H1011 0.930 . S
C1021 C1014 1.409 . S
C1021 C1020 1.362 . S
H1022 C1028 0.930 . S
H1023 C1031 0.930 . S
H1024 C1032 0.930 . S
H1025 C1033 0.930 . S
H1026 C1036 0.930 . S
H1027 C1037 0.930 . S
C1028 H1022 0.930 . S
C1028 C1029 1.355 . S
C1028 C1030 1.415 . S
C1029 C1028 1.355 . S
C1029 C1031 1.419 . S
C1030 C1028 1.415 . S
C1030 C1035 1.425 . S
C1030 C1037 1.409 . S
C1031 H1023 0.930 . S
C1031 C1029 1.419 . S
C1031 C1032 1.362 . S
C1032 H1024 0.930 . S
C1032 C1031 1.362 . S
C1032 C1035 1.409 . S
C1033 H1025 0.930 . S
C1033 C1034 1.355 . S
C1033 C1035 1.415 . S
C1034 C1033 1.355 . S
C1034 C1036 1.419 . S
C1035 C1030 1.425 . S
C1035 C1032 1.409 . S
C1035 C1033 1.415 . S
C1036 H1026 0.930 . S
C1036 C1034 1.419 . S
C1036 C1037 1.362 . S
C1037 H1027 0.930 . S
C1037 C1030 1.409 . S
C1037 C1036 1.362 . S
H1038 C1044 0.930 . S
H1039 C1047 0.930 . S
H1040 C1048 0.930 . S
H1041 C1049 0.930 . S
H1042 C1052 0.930 . S
H1043 C1053 0.930 . S
C1044 H1038 0.930 . S
C1044 C1045 1.355 . S
C1044 C1046 1.415 . S
C1045 C1044 1.355 . S
C1045 C1047 1.419 . S
C1046 C1044 1.415 . S
C1046 C1051 1.425 . S
C1046 C1053 1.409 . S
C1047 H1039 0.930 . S
C1047 C1045 1.419 . S
C1047 C1048 1.362 . S
C1048 H1040 0.930 . S
C1048 C1047 1.362 . S
C1048 C1051 1.409 . S
C1049 H1041 0.930 . S
C1049 C1050 1.355 . S
C1049 C1051 1.415 . S
C1050 C1049 1.355 . S
C1050 C1052 1.419 . S
C1051 C1046 1.425 . S
C1051 C1048 1.409 . S
C1051 C1049 1.415 . S
C1052 H1042 0.930 . S
C1052 C1050 1.419 . S
C1052 C1053 1.362 . S
C1053 H1043 0.930 . S
C1053 C1046 1.409 . S
C1053 C1052 1.362 . S
H1054 C1060 0.930 . S
H1055 C1063 0.930 . S
H1056 C1064 0.930 . S
H1057 C1065 0.930 . S
H1058 C1068 0.930 . S
H1059 C1069 0.930 . S
C1060 H1054 0.930 . S
C1060 C1061 1.355 . S
C1060 C1062 1.415 . S
C1061 C1060 1.355 . S
C1061 C1063 1.419 . S
C1062 C1060 1.415 . S
C1062 C1067 1.425 . S
C1062 C1069 1.409 . S
C1063 H1055 0.930 . S
C1063 C1061 1.419 . S
C1063 C1064 1.362 . S
C1064 H1056 0.930 . S
C1064 C1063 1.362 . S
C1064 C1067 1.409 . S
C1065 H1057 0.930 . S
C1065 C1066 1.355 . S
C1065 C1067 1.415 . S
C1066 C1065 1.355 . S
C1066 C1068 1.419 . S
C1067 C1062 1.425 . S
C1067 C1064 1.409 . S
C1067 C1065 1.415 . S
C1068 H1058 0.930 . S
C1068 C1066 1.419 . S
C1068 C1069 1.362 . S
C1069 H1059 0.930 . S
C1069 C1062 1.409 . S
C1069 C1068 1.362 . S
H1070 C1076 0.930 . S
H1071 C1079 0.930 . S
H1072 C1080 0.930 . S
H1073 C1081 0.930 . S
H1074 C1084 0.930 . S
H1075 C1085 0.930 . S
C1076 H1070 0.930 . S
C1076 C1077 1.355 . S
C1076 C1078 1.415 . S
C1077 C1076 1.355 . S
C1077 C1079 1.419 . S
C1078 C1076 1.415 . S
C1078 C1083 1.425 . S
C1078 C1085 1.409 . S
C1079 H1071 0.930 . S
C1079 C1077 1.419 . S
C1079 C1080 1.362 . S
C1080 H1072 0.930 . S
C1080 C1079 1.362 . S
C1080 C1083 1.409 . S
C1081 H1073 0.930 . S
C1081 C1082 1.355 . S
C1081 C1083 1.415 . S
C1082 C1081 1.355 . S
C1082 C1084 1.419 . S
C1083 C1078 1.425 . S
C1083 C1080 1.409 . S
C1083 C1081 1.415 . S
C1084 H1074 0.930 . S
C1084 C1082 1.419 . S
C1084 C1085 1.362 . S
C1085 H1075 0.930 . S
C1085 C1078 1.409 . S
C1085 C1084 1.362 . S
H1086 C1092 0.930 . S
H1087 C1095 0.930 . S
H1088 C1096 0.930 . S
H1089 C1097 0.930 . S
H1090 C1100 0.930 . S
H1091 C1101 0.930 . S
C1092 H1086 0.930 . S
C1092 C1093 1.355 . S
C1092 C1094 1.415 . S
C1093 C1092 1.355 . S
C1093 C1095 1.419 . S
C1094 C1092 1.415 . S
C1094 C1099 1.425 . S
C1094 C1101 1.409 . S
C1095 H1087 0.930 . S
C1095 C1093 1.419 . S
C1095 C1096 1.362 . S
C1096 H1088 0.930 . S
C1096 C1095 1.362 . S
C1096 C1099 1.409 . S
C1097 H1089 0.930 . S
C1097 C1098 1.355 . S
C1097 C1099 1.415 . S
C1098 C1097 1.355 . S
C1098 C1100 1.419 . S
C1099 C1094 1.425 . S
C1099 C1096 1.409 . S
C1099 C1097 1.415 . S
C1100 H1090 0.930 . S
C1100 C1098 1.419 . S
C1100 C1101 1.362 . S
C1101 H1091 0.930 . S
C1101 C1094 1.409 . S
C1101 C1100 1.362 . S
H1102 C1108 0.930 . S
H1103 C1111 0.930 . S
H1104 C1112 0.930 . S
H1105 C1113 0.930 . S
H1106 C1116 0.930 . S
H1107 C1117 0.930 . S
C1108 H1102 0.930 . S
C1108 C1109 1.355 . S
C1108 C1110 1.415 . S
C1109 C1108 1.355 . S
C1109 C1111 1.419 . S
C1110 C1108 1.415 . S
C1110 C1115 1.425 . S
C1110 C1117 1.409 . S
C1111 H1103 0.930 . S
C1111 C1109 1.419 . S
C1111 C1112 1.362 . S
C1112 H1104 0.930 . S
C1112 C1111 1.362 . S
C1112 C1115 1.409 . S
C1113 H1105 0.930 . S
C1113 C1114 1.355 . S
C1113 C1115 1.415 . S
C1114 C1113 1.355 . S
C1114 C1116 1.419 . S
C1115 C1110 1.425 . S
C1115 C1112 1.409 . S
C1115 C1113 1.415 . S
C1116 H1106 0.930 . S
C1116 C1114 1.419 . S
C1116 C1117 1.362 . S
C1117 H1107 0.930 . S
C1117 C1110 1.409 . S
C1117 C1116 1.362 . S
H1118 C1124 0.930 . S
H1119 C1127 0.930 . S
H1120 C1128 0.930 . S
H1121 C1129 0.930 . S
H1122 C1132 0.930 . S
H1123 C1133 0.930 . S
C1124 H1118 0.930 . S
C1124 C1125 1.355 . S
C1124 C1126 1.415 . S
C1125 C1124 1.355 . S
C1125 C1127 1.419 . S
C1126 C1124 1.415 . S
C1126 C1131 1.425 . S
C1126 C1133 1.409 . S
C1127 H1119 0.930 . S
C1127 C1125 1.419 . S
C1127 C1128 1.362 . S
C1128 H1120 0.930 . S
C1128 C1127 1.362 . S
C1128 C1131 1.409 . S
C1129 H1121 0.930 . S
C1129 C1130 1.355 . S
C1129 C1131 1.415 . S
C1130 C1129 1.355 . S
C1130 C1132 1.419 . S
C1131 C1126 1.425 . S
C1131 C1128 1.409 . S
C1131 C1129 1.415 . S
C1132 H1122 0.930 . S
C1132 C1130 1.419 . S
C1132 C1133 1.362 . S
C1133 H1123 0.930 . S
C1133 C1126 1.409 . S
C1133 C1132 1.362 . S
H1134 C1140 0.930 . S
H1135 C1143 0.930 . S
H1136 C1144 0.930 . S
H1137 C1145 0.930 . S
H1138 C1148 0.930 . S
H1139 C1149 0.930 . S
C1140 H1134 0.930 . S
C1140 C1141 1.355 . S
C1140 C1142 1.415 . S
C1141 C1140 1.355 . S
C1141 C1143 1.419 . S
C1142 C1140 1.415 . S
C1142 C1147 1.425 . S
C1142 C1149 1.409 . S
C1143 H1135 0.930 . S
C1143 C1141 1.419 . S
C1143 C1144 1.362 . S
C1144 H1136 0.930 . S
C1144 C1143 1.362 . S
C1144 C1147 1.409 . S
C1145 H1137 0.930 . S
C1145 C1146 1.355 . S
C1145 C1147 1.415 . S
C1146 C1145 1.355 . S
C1146 C1148 1.419 . S
C1147 C1142 1.425 . S
C1147 C1144 1.409 . S
C1147 C1145 1.415 . S
C1148 H1138 0.930 . S
C1148 C1146 1.419 . S
C1148 C1149 1.362 . S
C1149 H1139 0.930 . S
C1149 C1142 1.409 . S
C1149 C1148 1.362 . S
H1150 C1156 0.930 . S
H1151 C1159 0.930 . S
H1152 C1160 0.930 . S
H1153 C1161 0.930 . S
H1154 C1164 0.930 . S
H1155 C1165 0.930 . S
C1156 H1150 0.930 . S
C1156 C1157 1.355 . S
C1156 C1158 1.415 . S
C1157 C1156 1.355 . S
C1157 C1159 1.419 . S
C1158 C1156 1.415 . S
C1158 C1163 1.425 . S
C1158 C1165 1.409 . S
C1159 H1151 0.930 . S
C1159 C1157 1.419 . S
C1159 C1160 1.362 . S
C1160 H1152 0.930 . S
C1160 C1159 1.362 . S
C1160 C1163 1.409 . S
C1161 H1153 0.930 . S
C1161 C1162 1.355 . S
C1161 C1163 1.415 . S
C1162 C1161 1.355 . S
C1162 C1164 1.419 . S
C1163 C1158 1.425 . S
C1163 C1160 1.409 . S
C1163 C1161 1.415 . S
C1164 H1154 0.930 . S
C1164 C1162 1.419 . S
C1164 C1165 1.362 . S
C1165 H1155 0.930 . S
C1165 C1158 1.409 . S
C1165 C1164 1.362 . S
H1166 C1172 0.930 . S
H1167 C1175 0.930 . S
H1168 C1176 0.930 . S
H1169 C1177 0.930 . S
H1170 C1180 0.930 . S
H1171 C1181 0.930 . S
C1172 H1166 0.930 . S
C1172 C1173 1.355 . S
C1172 C1174 1.415 . S
C1173 C1172 1.355 . S
C1173 C1175 1.419 . S
C1174 C1172 1.415 . S
C1174 C1179 1.425 . S
C1174 C1181 1.409 . S
C1175 H1167 0.930 . S
C1175 C1173 1.419 . S
C1175 C1176 1.362 . S
C1176 H1168 0.930 . S
C1176 C1175 1.362 . S
C1176 C1179 1.409 . S
C1177 H1169 0.930 . S
C1177 C1178 1.355 . S
C1177 C1179 1.415 . S
C1178 C1177 1.355 . S
C1178 C1180 1.419 . S
C1179 C1174 1.425 . S
C1179 C1176 1.409 . S
C1179 C1177 1.415 . S
C1180 H1170 0.930 . S
C1180 C1178 1.419 . S
C1180 C1181 1.362 . S
C1181 H1171 0.930 . S
C1181 C1174 1.409 . S
C1181 C1180 1.362 . S
C810 C502 1.539 . S
C805 C31 1.511 . S
C826 C571 1.552 . S
C821 C61 1.542 . S
C842 C509 1.544 . S
C837 C121 1.521 . S
C858 C572 1.547 . S
C853 C211 1.524 . S
C874 C625 1.565 . S
C869 C1 1.535 . S
C890 C661 1.515 . S
C885 C91 1.518 . S
C901 C151 1.516 . S
C906 C721 1.551 . S
C922 C784 1.513 . S
C917 C181 1.466 . S
C938 C624 1.549 . S
C933 C80 1.541 . S
C949 C140 1.475 . S
C954 C668 1.515 . S
C970 C714 1.537 . S
C965 C200 1.482 . S
C986 C783 1.517 . S
C981 C20 1.527 . S
C997 C271 1.504 . S
C1002 C562 1.537 . S
C1018 C519 1.539 . S
C1013 C331 1.533 . S
C1029 C380 1.521 . S
C1034 C555 1.556 . S
C1045 C421 1.545 . S
C1050 C518 1.536 . S
C1066 C730 1.563 . S
C1061 C241 1.539 . S
C1082 C774 1.525 . S
C1077 C320 1.481 . S
C1098 C608 1.533 . S
C1093 C361 1.521 . S
C1109 C440 1.488 . S
C1114 C677 1.519 . S
C1130 C731 1.549 . S
C1125 C301 1.494 . S
C1146 C767 1.526 . S
C1141 C391 1.502 . S
C1162 C615 1.561 . S
C1157 C451 1.555 . S
C1173 C260 1.517 . S
C1178 C678 1.519 . S
