# Generated by pormake.
# Topology zzz, (3,6)-cn, num edge types: 1
# Building blocks:
#     Node 0, Type 0, BuildingBlock: MIDCAF_clean_linker_0, # of connection points: 3
#     Node 1, Type 0, BuildingBlock: MIDCAF_clean_linker_0, # of connection points: 3
#     Node 2, Type 0, BuildingBlock: MIDCAF_clean_linker_0, # of connection points: 3
#     Node 3, Type 0, BuildingBlock: MIDCAF_clean_linker_0, # of connection points: 3
#     Node 4, Type 0, BuildingBlock: MIDCAF_clean_linker_0, # of connection points: 3
#     Node 5, Type 0, BuildingBlock: MIDCAF_clean_linker_0, # of connection points: 3
#     Node 6, Type 0, BuildingBlock: MIDCAF_clean_linker_0, # of connection points: 3
#     Node 7, Type 0, BuildingBlock: MIDCAF_clean_linker_0, # of connection points: 3
#     Node 8, Type 1, BuildingBlock: BETDEL_clean_sbu_0, # of connection points: 6
#     Node 9, Type 1, BuildingBlock: BETDEL_clean_sbu_0, # of connection points: 6
#     Node 10, Type 1, BuildingBlock: BETDEL_clean_sbu_0, # of connection points: 6
#     Node 11, Type 1, BuildingBlock: BETDEL_clean_sbu_0, # of connection points: 6
#     Edge 12, Type (0, 1), BuildingBlock: KIFKEQ_clean_linker_1, # of connection points: 2
#     Edge 13, Type (0, 1), BuildingBlock: KIFKEQ_clean_linker_1, # of connection points: 2
#     Edge 14, Type (0, 1), BuildingBlock: KIFKEQ_clean_linker_1, # of connection points: 2
#     Edge 15, Type (0, 1), BuildingBlock: KIFKEQ_clean_linker_1, # of connection points: 2
#     Edge 16, Type (0, 1), BuildingBlock: KIFKEQ_clean_linker_1, # of connection points: 2
#     Edge 17, Type (0, 1), BuildingBlock: KIFKEQ_clean_linker_1, # of connection points: 2
#     Edge 18, Type (0, 1), BuildingBlock: KIFKEQ_clean_linker_1, # of connection points: 2
#     Edge 19, Type (0, 1), BuildingBlock: KIFKEQ_clean_linker_1, # of connection points: 2
#     Edge 20, Type (0, 1), BuildingBlock: KIFKEQ_clean_linker_1, # of connection points: 2
#     Edge 21, Type (0, 1), BuildingBlock: KIFKEQ_clean_linker_1, # of connection points: 2
#     Edge 22, Type (0, 1), BuildingBlock: KIFKEQ_clean_linker_1, # of connection points: 2
#     Edge 23, Type (0, 1), BuildingBlock: KIFKEQ_clean_linker_1, # of connection points: 2
#     Edge 24, Type (0, 1), BuildingBlock: KIFKEQ_clean_linker_1, # of connection points: 2
#     Edge 25, Type (0, 1), BuildingBlock: KIFKEQ_clean_linker_1, # of connection points: 2
#     Edge 26, Type (0, 1), BuildingBlock: KIFKEQ_clean_linker_1, # of connection points: 2
#     Edge 27, Type (0, 1), BuildingBlock: KIFKEQ_clean_linker_1, # of connection points: 2
#     Edge 28, Type (0, 1), BuildingBlock: KIFKEQ_clean_linker_1, # of connection points: 2
#     Edge 29, Type (0, 1), BuildingBlock: KIFKEQ_clean_linker_1, # of connection points: 2
#     Edge 30, Type (0, 1), BuildingBlock: KIFKEQ_clean_linker_1, # of connection points: 2
#     Edge 31, Type (0, 1), BuildingBlock: KIFKEQ_clean_linker_1, # of connection points: 2
#     Edge 32, Type (0, 1), BuildingBlock: KIFKEQ_clean_linker_1, # of connection points: 2
#     Edge 33, Type (0, 1), BuildingBlock: KIFKEQ_clean_linker_1, # of connection points: 2
#     Edge 34, Type (0, 1), BuildingBlock: KIFKEQ_clean_linker_1, # of connection points: 2
#     Edge 35, Type (0, 1), BuildingBlock: KIFKEQ_clean_linker_1, # of connection points: 2
# Relax obj value: 0.336
# Max RMSD: 0.229
# Mean RMSD: 0.210
data_MOF--net-zzz--node1-BETDEL_clean_sbu_0--node2-MIDCAF_clean_linker_0--edge1-KIFKEQ_clean_linker_1
_symmetry_space_group_name_H-M    P1
_symmetry_Int_Tables_number       1
_symmetry_cell_setting            triclinic
loop_
_symmetry_equiv_pos_as_xyz
'x, y, z'
_cell_length_a     57.125702
_cell_length_b     56.950443
_cell_length_c     20.194301
_cell_angle_alpha  91.058266
_cell_angle_beta   89.42858
_cell_angle_gamma 95.856902
loop_
_atom_site_label
_atom_site_type_symbol
_atom_site_fract_x
_atom_site_fract_y
_atom_site_fract_z
_atom_type_partial_charge
C0 C 0.80226 0.46373 0.25707 0.0
C1 C 0.81258 0.48724 0.25625 0.0
C2 C 0.8041 0.50268 0.21029 0.0
C3 C 0.78728 0.49424 0.16285 0.0
H4 H 0.72258 0.49886 0.01334 0.0
H5 H 0.68944 0.50961 0.947 0.0
H6 H 0.68301 0.44018 0.85552 0.0
H7 H 0.71549 0.42952 0.92072 0.0
H8 H 0.78019 0.42568 0.881 0.0
H9 H 0.81446 0.41082 0.83019 0.0
H10 H 0.83433 0.38519 0.01977 0.0
H11 H 0.80048 0.40123 0.07113 0.0
H12 H 0.77947 0.43674 0.20884 0.0
H13 H 0.80833 0.45112 0.29072 0.0
H14 H 0.81129 0.521 0.2088 0.0
H15 H 0.78256 0.50598 0.1247 0.0
N16 N 0.75004 0.4671 0.06693 0.0
N17 N 0.7543 0.43887 0.98193 0.0
N18 N 0.77958 0.44131 0.07218 0.0
C19 C 0.74249 0.45642 0.00852 0.0
C20 C 0.77278 0.4312 0.01355 0.0
C21 C 0.76853 0.45915 0.09925 0.0
C22 C 0.72177 0.46336 0.97236 0.0
C23 C 0.71391 0.48591 0.97942 0.0
C24 C 0.69508 0.4921 0.94114 0.0
C25 C 0.68354 0.4757 0.89619 0.0
C26 C 0.69128 0.45315 0.89016 0.0
C27 C 0.71009 0.4471 0.92742 0.0
C28 C 0.78809 0.41521 0.98027 0.0
C29 C 0.79139 0.41612 0.91141 0.0
C30 C 0.81111 0.40746 0.88219 0.0
C31 C 0.82765 0.39742 0.92128 0.0
C32 C 0.8224 0.39354 0.98863 0.0
C33 C 0.80292 0.4026 0.01802 0.0
C34 C 0.77871 0.47025 0.16061 0.0
C35 C 0.7856 0.4554 0.20995 0.0
C36 C 0.94199 0.78346 0.29829 0.0
C37 C 0.96053 0.78622 0.34413 0.0
C38 C 0.97667 0.76901 0.34378 0.0
C39 C 0.97631 0.75178 0.29305 0.0
H40 H 0.01847 0.70627 0.02935 0.0
H41 H 0.02241 0.67059 0.9638 0.0
H42 H 0.95527 0.63987 0.03837 0.0
H43 H 0.95168 0.67572 0.10588 0.0
H44 H 0.011 0.76246 0.96821 0.0
H45 H 0.02265 0.79837 0.90583 0.0
H46 H 0.96952 0.83381 0.00989 0.0
H47 H 0.95778 0.79825 0.07104 0.0
H48 H 0.92859 0.76633 0.20947 0.0
H49 H 0.92915 0.79613 0.29614 0.0
H50 H 0.99074 0.76996 0.37953 0.0
H51 H 0.99066 0.74076 0.28928 0.0
N52 N 0.97134 0.72177 0.15795 0.0
N53 N 0.98379 0.73559 0.05243 0.0
N54 N 0.96977 0.76147 0.13037 0.0
C55 C 0.97991 0.71755 0.09575 0.0
C56 C 0.97854 0.75755 0.06941 0.0
C57 C 0.96624 0.74402 0.17494 0.0
C58 C 0.98473 0.69377 0.07235 0.0
C59 C 0.0049 0.6916 0.03338 0.0
C60 C 0.00704 0.67124 0.99537 0.0
C61 C 0.98887 0.65263 0.99449 0.0
C62 C 0.96956 0.65391 0.03792 0.0
C63 C 0.96753 0.67437 0.07676 0.0
C64 C 0.98361 0.77764 0.02476 0.0
C65 C 1.00156 0.77781 0.97664 0.0
C66 C 0.00836 0.79838 0.94149 0.0
C67 C 0.99708 0.81888 0.95338 0.0
C68 C 0.97843 0.81824 0.99926 0.0
C69 C 0.9718 0.79788 0.0346 0.0
C70 C 0.95964 0.75133 0.24239 0.0
C71 C 0.94151 0.76613 0.24838 0.0
C72 C 0.71296 0.99438 0.23668 0.0
C73 C 0.70564 0.0112 0.28233 0.0
C74 C 0.71879 0.0334 0.28692 0.0
C75 C 0.73715 0.03954 0.24236 0.0
H76 H 0.80914 0.06052 0.95318 0.0
H77 H 0.84209 0.04892 0.889 0.0
H78 H 0.84139 0.98511 0.00108 0.0
H79 H 0.80757 0.9967 0.06658 0.0
H80 H 0.75165 0.06519 0.90811 0.0
H81 H 0.7216 0.0809 0.84319 0.0
H82 H 0.68719 0.10208 0.02318 0.0
H83 H 0.71679 0.0852 0.08826 0.0
H84 H 0.73515 0.98818 0.15269 0.0
H85 H 0.70313 0.97715 0.23185 0.0
H86 H 0.71382 0.04663 0.32217 0.0
H87 H 0.74547 0.05752 0.24324 0.0
N88 N 0.7744 0.02621 0.10462 0.0
N89 N 0.77103 0.05177 0.0156 0.0
N90 N 0.74277 0.04963 0.09972 0.0
C91 C 0.78317 0.0359 0.0467 0.0
C92 C 0.75091 0.05873 0.04165 0.0
C93 C 0.75421 0.03348 0.1315 0.0
C94 C 0.80525 0.02933 0.01452 0.0
C95 C 0.81584 0.04397 0.96483 0.0
C96 C 0.83483 0.03736 0.92775 0.0
C97 C 0.84405 0.01593 0.93909 0.0
C98 C 0.83453 1.00172 0.99116 0.0
C99 C 0.8152 0.00835 0.02858 0.0
C100 C 0.73626 0.07344 0.00328 0.0
C101 C 0.73801 0.07372 0.93389 0.0
C102 C 0.72077 0.08291 0.89654 0.0
C103 C 0.70159 0.09236 0.92784 0.0
C104 C 0.7013 0.09431 0.9974 0.0
C105 C 0.71833 0.08474 0.03474 0.0
C106 C 0.74293 0.02361 0.19239 0.0
C107 C 0.73145 1.00058 0.19179 0.0
C108 C 0.58534 0.68539 0.04468 0.0
C109 C 0.57798 0.68431 0.97846 0.0
C110 C 0.57531 0.7055 0.94593 0.0
C111 C 0.57733 0.72699 0.98097 0.0
H112 H 0.53979 0.7852 0.98538 0.0
H113 H 0.53261 0.81868 0.91884 0.0
H114 H 0.56177 0.86629 0.07287 0.0
H115 H 0.56828 0.83222 0.14113 0.0
H116 H 0.52357 0.75409 0.25189 0.0
H117 H 0.51378 0.7228 0.33178 0.0
H118 H 0.58781 0.71989 0.36806 0.0
H119 H 0.59731 0.75125 0.28934 0.0
H120 H 0.59183 0.7067 0.13159 0.0
H121 H 0.58761 0.6695 0.07147 0.0
H122 H 0.57036 0.70535 0.89427 0.0
H123 H 0.57343 0.74273 0.9557 0.0
N124 N 0.57081 0.76807 0.06345 0.0
N125 N 0.55994 0.78224 0.16872 0.0
N126 N 0.57564 0.74582 0.15687 0.0
C127 C 0.56245 0.7853 0.10183 0.0
C128 C 0.56697 0.76238 0.19623 0.0
C129 C 0.57756 0.74832 0.0907 0.0
C130 C 0.55482 0.80609 0.06819 0.0
C131 C 0.5444 0.80281 0.00557 0.0
C132 C 0.54048 0.82206 0.9671 0.0
C133 C 0.54722 0.84525 0.98951 0.0
C134 C 0.55642 0.84867 0.05395 0.0
C135 C 0.56011 0.82921 0.09313 0.0
C136 C 0.56119 0.75516 0.26463 0.0
C137 C 0.53762 0.74783 0.28028 0.0
C138 C 0.53206 0.72947 0.32494 0.0
C139 C 0.55002 0.71826 0.35491 0.0
C140 C 0.57347 0.72797 0.34607 0.0
C141 C 0.57896 0.74622 0.30136 0.0
C142 C 0.58219 0.72763 0.04907 0.0
C143 C 0.58759 0.70683 0.07944 0.0
C144 C 0.2198 0.5416 0.86437 0.0
C145 C 0.21048 0.51776 0.86491 0.0
C146 C 0.21998 0.50262 0.90979 0.0
C147 C 0.23698 0.51154 0.95621 0.0
H148 H 0.30234 0.50763 0.10272 0.0
H149 H 0.33563 0.49687 0.16834 0.0
H150 H 0.34501 0.56765 0.25087 0.0
H151 H 0.31243 0.57831 0.18608 0.0
H152 H 0.25748 0.59271 0.23198 0.0
H153 H 0.22608 0.60647 0.30023 0.0
H154 H 0.18197 0.60631 0.12758 0.0
H155 H 0.21342 0.59354 0.05934 0.0
H156 H 0.24207 0.56922 0.91165 0.0
H157 H 0.21289 0.55401 0.8316 0.0
H158 H 0.21353 0.48408 0.91107 0.0
H159 H 0.24263 0.49992 0.9934 0.0
N160 N 0.27492 0.53951 0.04826 0.0
N161 N 0.27195 0.56814 0.13295 0.0
N162 N 0.24478 0.56472 0.04725 0.0
C163 C 0.28345 0.55059 0.10514 0.0
C164 C 0.25258 0.57527 0.10447 0.0
C165 C 0.25566 0.54703 0.01867 0.0
C166 C 0.30466 0.54381 0.13917 0.0
C167 C 0.31176 0.52089 0.13429 0.0
C168 C 0.33067 0.51469 0.17226 0.0
C169 C 0.34302 0.53142 0.21476 0.0
C170 C 0.33614 0.55439 0.21815 0.0
C171 C 0.31727 0.56046 0.18115 0.0
C172 C 0.23757 0.591 0.14071 0.0
C173 C 0.24142 0.59649 0.20812 0.0
C174 C 0.22338 0.60433 0.24736 0.0
C175 C 0.2012 0.6066 0.21986 0.0
C176 C 0.1987 0.60457 0.15077 0.0
C177 C 0.21675 0.59692 0.11154 0.0
C178 C 0.24469 0.53575 0.95852 0.0
C179 C 0.23662 0.55042 0.91047 0.0
C180 C 0.03343 0.22655 0.77702 0.0
C181 C 0.05432 0.21761 0.75523 0.0
C182 C 0.07593 0.22917 0.77698 0.0
C183 C 0.07649 0.24679 0.82646 0.0
H184 H 0.03585 0.32362 0.98659 0.0
H185 H 0.0327 0.35874 0.05795 0.0
H186 H 0.07824 0.33127 0.20049 0.0
H187 H 0.08091 0.29644 0.1307 0.0
H188 H 0.02907 0.23826 0.1519 0.0
H189 H 0.0167 0.20155 0.20989 0.0
H190 H 0.05231 0.16222 0.0619 0.0
H191 H 0.06452 0.19861 0.00404 0.0
H192 H 0.01757 0.24853 0.84808 0.0
H193 H 0.01642 0.21818 0.76174 0.0
H194 H 0.09241 0.22321 0.76005 0.0
H195 H 0.09325 0.25312 0.84836 0.0
N196 N 0.0569 0.28088 0.95294 0.0
N197 N 0.05369 0.26435 0.05949 0.0
N198 N 0.05293 0.23971 0.96604 0.0
C199 C 0.05637 0.2837 0.02044 0.0
C200 C 0.052 0.24234 0.03244 0.0
C201 C 0.05532 0.25859 0.92609 0.0
C202 C 0.05836 0.3072 0.05361 0.0
C203 C 0.04562 0.3255 0.03241 0.0
C204 C 0.04379 0.34553 0.0733 0.0
C205 C 0.05476 0.34749 0.13564 0.0
C206 C 0.06904 0.33002 0.1537 0.0
C207 C 0.07069 0.31012 0.11349 0.0
C208 C 0.04761 0.2212 0.07336 0.0
C209 C 0.0346 0.22181 0.13262 0.0
C210 C 0.02736 0.20085 0.16536 0.0
C211 C 0.03341 0.17913 0.13989 0.0
C212 C 0.04747 0.17875 0.08263 0.0
C213 C 0.05438 0.19956 0.04947 0.0
C214 C 0.05549 0.25329 0.85464 0.0
C215 C 0.03405 0.24427 0.82615 0.0
C216 C 0.31356 0.96794 0.84704 0.0
C217 C 0.31886 0.99201 0.83303 0.0
C218 C 0.30515 0.00837 0.86437 0.0
C219 C 0.28782 1.00094 0.91176 0.0
H220 H 0.22111 0.01109 0.05959 0.0
H221 H 0.18517 0.02203 0.11562 0.0
H222 H 0.17093 0.95066 0.18506 0.0
H223 H 0.20614 0.93993 0.12948 0.0
H224 H 0.26095 0.93314 0.21388 0.0
H225 H 0.28726 0.91785 0.29316 0.0
H226 H 0.33956 0.91333 0.13852 0.0
H227 H 0.31321 0.92771 0.05941 0.0
H228 H 0.29382 0.94205 0.90572 0.0
H229 H 0.32373 0.95469 0.82533 0.0
H230 H 0.30837 0.02702 0.85419 0.0
H231 H 0.27866 0.01401 0.93825 0.0
N232 N 0.25023 0.97668 0.00959 0.0
N233 N 0.25076 0.9532 0.10455 0.0
N234 N 0.28171 0.95412 0.0285 0.0
C235 C 0.23971 0.9682 0.06684 0.0
C236 C 0.2718 0.94618 0.08591 0.0
C237 C 0.27126 0.96917 0.98993 0.0
C238 C 0.21648 0.97468 0.09029 0.0
C239 C 0.20992 0.99772 0.08561 0.0
C240 C 0.1895 0.004 0.11822 0.0
C241 C 0.17512 0.98723 0.15499 0.0
C242 C 0.18128 0.964 0.15666 0.0
C243 C 0.20164 0.95786 0.12504 0.0
C244 C 0.2852 0.93226 0.13062 0.0
C245 C 0.27781 0.92827 0.19644 0.0
C246 C 0.29293 0.91959 0.24199 0.0
C247 C 0.31571 0.91479 0.22258 0.0
C248 C 0.32215 0.91669 0.15539 0.0
C249 C 0.30705 0.92526 0.10995 0.0
C250 C 0.28395 0.97703 0.92858 0.0
C251 C 0.29638 0.96062 0.89377 0.0
C252 C 0.43546 0.3214 0.07262 0.0
C253 C 0.44197 0.32221 0.13956 0.0
C254 C 0.4435 0.30084 0.17243 0.0
C255 C 0.44135 0.27938 0.13718 0.0
H256 H 0.43267 0.20251 0.12853 0.0
H257 H 0.44043 0.16839 0.19122 0.0
H258 H 0.4931 0.15214 0.0473 0.0
H259 H 0.48545 0.18697 0.98401 0.0
H260 H 0.50188 0.25482 0.88155 0.0
H261 H 0.5132 0.2857 0.80147 0.0
H262 H 0.44042 0.28517 0.74471 0.0
H263 H 0.4295 0.25414 0.82344 0.0
H264 H 0.42968 0.30029 0.985 0.0
H265 H 0.43406 0.33742 0.04555 0.0
H266 H 0.44779 0.30082 0.22455 0.0
H267 H 0.44451 0.26347 0.16275 0.0
N268 N 0.44614 0.23753 0.05467 0.0
N269 N 0.46106 0.22402 0.95307 0.0
N270 N 0.44792 0.2617 0.9627 0.0
C271 C 0.45492 0.22007 0.018 0.0
C272 C 0.45699 0.24488 0.92525 0.0
C273 C 0.44261 0.25839 0.02728 0.0
C274 C 0.45854 0.19764 0.05126 0.0
C275 C 0.44584 0.19166 0.10965 0.0
C276 C 0.45014 0.17189 0.14553 0.0
C277 C 0.46737 0.15743 0.1244 0.0
C278 C 0.47981 0.16302 0.06518 0.0
C279 C 0.47532 0.18285 0.02865 0.0
C280 C 0.46485 0.25196 0.85825 0.0
C281 C 0.48861 0.26023 0.84873 0.0
C282 C 0.49497 0.27836 0.80392 0.0
C283 C 0.47764 0.28851 0.76793 0.0
C284 C 0.45431 0.27792 0.7713 0.0
C285 C 0.44802 0.25985 0.81604 0.0
C286 C 0.43753 0.27899 0.06855 0.0
C287 C 0.43311 0.3 0.03763 0.0
Dy288 Dy 0.02388 0.99314 0.61158 0.0
C289 C 0.9878 0.03191 0.38292 0.0
C290 C 0.03434 0.97023 0.72315 0.0
Dy291 Dy 0.99847 0.00883 0.49394 0.0
O292 O 0.04677 0.97113 0.66899 0.0
O293 O 0.01664 0.98257 0.71689 0.0
O294 O 0.05857 0.0076 0.56821 0.0
O295 O 0.03141 0.99337 0.5053 0.0
C296 C 0.05194 0.00399 0.50707 0.0
C297 C 0.97029 0.99743 0.5977 0.0
O298 O 0.99394 0.9704 0.46805 0.0
O299 O 0.00573 0.95888 0.57104 0.0
O300 O 0.9769 0.03288 0.43942 0.0
O301 O 1.00401 0.0176 0.3866 0.0
O302 O 0.9639 0.99397 0.53634 0.0
O303 O 0.99069 0.0084 0.60019 0.0
O304 O 0.0274 0.03144 0.63836 0.0
O305 O 0.01763 0.04282 0.53359 0.0
C306 C 0.99677 0.9538 0.5115 0.0
C307 C 0.02553 0.04803 0.59422 0.0
Dy308 Dy 0.49708 0.98427 0.52215 0.0
C309 C 0.56296 0.05194 0.65313 0.0
C310 C 0.46065 0.95522 0.47067 0.0
Dy311 Dy 0.52654 0.02398 0.59751 0.0
O312 O 0.47957 0.96282 0.43808 0.0
O313 O 0.46171 0.96351 0.53088 0.0
O314 O 0.5298 0.96773 0.49238 0.0
O315 O 0.53107 0.0045 0.50534 0.0
C316 C 0.54332 0.98756 0.49452 0.0
C317 C 0.48022 0.02143 0.62267 0.0
O318 O 0.52 0.04288 0.50435 0.0
O319 O 0.4886 0.01676 0.4685 0.0
O320 O 0.54084 0.05404 0.66445 0.0
O321 O 0.56511 0.03452 0.61201 0.0
O322 O 0.49415 0.0409 0.6279 0.0
O323 O 0.49225 0.00425 0.613 0.0
O324 O 0.50604 0.96376 0.6097 0.0
O325 O 0.53246 0.99243 0.65931 0.0
C326 C 0.5019 0.03726 0.46439 0.0
C327 C 0.52159 0.97066 0.65614 0.0
Dy328 Dy 0.50723 0.51225 0.62713 0.0
C329 C 0.5067 0.47061 0.37042 0.0
C330 C 0.51839 0.53511 0.74353 0.0
Dy331 Dy 0.51845 0.49349 0.48644 0.0
O332 O 0.49702 0.53092 0.72103 0.0
O333 O 0.53311 0.52635 0.70322 0.0
O334 O 0.4682 0.50693 0.6058 0.0
O335 O 0.49289 0.51489 0.52962 0.0
C336 C 0.47145 0.50908 0.54199 0.0
C337 C 0.55425 0.49695 0.57141 0.0
O338 O 0.525 0.53207 0.46495 0.0
O339 O 0.52338 0.54502 0.57486 0.0
O340 O 0.52813 0.47432 0.39279 0.0
O341 O 0.49229 0.47989 0.41059 0.0
O342 O 0.55748 0.49906 0.50754 0.0
O343 O 0.53284 0.49097 0.58377 0.0
O344 O 0.50093 0.47372 0.64892 0.0
O345 O 0.50266 0.46062 0.5392 0.0
C346 C 0.52753 0.54915 0.51088 0.0
C347 C 0.49856 0.45656 0.60326 0.0
Dy348 Dy 1.00075 0.48165 0.60589 0.0
C349 C 0.05136 0.542 0.42555 0.0
C350 C 0.97318 0.45474 0.69262 0.0
Dy351 Dy 0.02235 0.51701 0.51311 0.0
O352 O 0.98122 0.44728 0.63674 0.0
O353 O 0.98029 0.47695 0.70148 0.0
O354 O 0.02289 0.4552 0.56155 0.0
O355 O 0.00957 0.47992 0.49975 0.0
C356 C 0.02227 0.46304 0.50173 0.0
C357 C 1.00153 0.53591 0.61836 0.0
O358 O 0.988 0.50954 0.46143 0.0
O359 O 0.96913 0.49368 0.55448 0.0
O360 O 0.03808 0.5512 0.46926 0.0
O361 O 0.04834 0.51916 0.42873 0.0
O362 O 1.00128 0.54416 0.55891 0.0
O363 O 0.01382 0.51871 0.61929 0.0
O364 O 0.03534 0.48802 0.65719 0.0
O365 O 0.05405 0.50683 0.5679 0.0
C366 C 0.96845 0.50223 0.49391 0.0
C367 C 0.05476 0.49691 0.62667 0.0
H368 H 0.17209 0.02688 0.23308 0.0
H369 H 0.13191 0.96216 0.16999 0.0
H370 H 0.14088 0.03444 0.31185 0.0
H371 H 0.10133 0.96907 0.2504 0.0
H372 H 0.0426 0.9915 0.37778 0.0
H373 H 0.07046 0.99134 0.28533 0.0
H374 H 0.12668 0.01903 0.41544 0.0
H375 H 0.0986 0.01998 0.50688 0.0
C376 C 0.15644 0.01445 0.23518 0.0
C377 C 0.15466 0.99379 0.19553 0.0
C378 C 0.13865 0.01862 0.28107 0.0
C379 C 0.11861 0.00223 0.28843 0.0
C380 C 0.11633 0.98222 0.24617 0.0
C381 C 0.13405 0.9781 0.20035 0.0
C382 C 0.06085 0.9979 0.38627 0.0
C383 C 0.06841 0.00565 0.4497 0.0
C384 C 0.0769 0.99764 0.33337 0.0
C385 C 0.10097 0.00499 0.34268 0.0
C386 C 0.10831 0.0135 0.40585 0.0
C387 C 0.09222 0.01388 0.45859 0.0
H388 H 0.43625 0.12564 0.18853 0.0
H389 H 0.51064 0.14402 0.15621 0.0
H390 H 0.44487 0.09619 0.26816 0.0
H391 H 0.51932 0.11387 0.23431 0.0
H392 H 0.52513 0.08077 0.43922 0.0
H393 H 0.5172 0.10807 0.35275 0.0
H394 H 0.46002 0.05877 0.28218 0.0
H395 H 0.4676 0.03165 0.36956 0.0
C396 C 0.45447 0.12322 0.19793 0.0
C397 C 0.47275 0.13737 0.1663 0.0
C398 C 0.45943 0.10615 0.24323 0.0
C399 C 0.48281 0.1027 0.25821 0.0
C400 C 0.50111 0.11627 0.22481 0.0
C401 C 0.49613 0.13336 0.17932 0.0
C402 C 0.51083 0.07571 0.40537 0.0
C403 C 0.49695 0.05399 0.41176 0.0
C404 C 0.50642 0.09132 0.35528 0.0
C405 C 0.488 0.08565 0.31015 0.0
C406 C 0.47418 0.06388 0.31642 0.0
C407 C 0.47859 0.04826 0.36653 0.0
H408 H 0.34538 0.49206 0.29057 0.0
H409 H 0.38523 0.55735 0.23519 0.0
H410 H 0.3765 0.48448 0.36781 0.0
H411 H 0.41573 0.55026 0.31316 0.0
H412 H 0.4766 0.52342 0.41471 0.0
H413 H 0.44634 0.52573 0.33213 0.0
H414 H 0.39318 0.49984 0.47395 0.0
H415 H 0.42391 0.49668 0.55646 0.0
C416 C 0.36088 0.50464 0.29431 0.0
C417 C 0.36278 0.52535 0.25686 0.0
C418 C 0.37858 0.50045 0.33915 0.0
C419 C 0.39864 0.51679 0.34704 0.0
C420 C 0.40072 0.53713 0.30809 0.0
C421 C 0.38309 0.54132 0.26366 0.0
C422 C 0.4585 0.5179 0.42818 0.0
C423 C 0.45266 0.50977 0.49211 0.0
C424 C 0.44108 0.51943 0.38087 0.0
C425 C 0.41723 0.51315 0.39631 0.0
C426 C 0.41138 0.50461 0.46007 0.0
C427 C 0.42893 0.50298 0.50754 0.0
H428 H 0.05369 0.39539 0.11715 0.0
H429 H 0.04416 0.3417 0.26588 0.0
H430 H 0.0474 0.42565 0.20212 0.0
H431 H 0.03772 0.37143 0.34955 0.0
H432 H 0.0515 0.42855 0.50016 0.0
H433 H 0.0604 0.4027 0.4081 0.0
H434 H 0.01786 0.44026 0.27901 0.0
H435 H 0.0095 0.46675 0.37163 0.0
C436 C 0.05014 0.39005 0.16776 0.0
C437 C 0.0499 0.3662 0.18499 0.0
C438 C 0.04652 0.40735 0.2164 0.0
C439 C 0.04253 0.40106 0.28304 0.0
C440 C 0.0415 0.37709 0.29931 0.0
C441 C 0.04516 0.35997 0.25116 0.0
C442 C 0.04424 0.43146 0.45198 0.0
C443 C 0.02957 0.44944 0.44327 0.0
C444 C 0.04921 0.41655 0.3992 0.0
C445 C 0.03943 0.41903 0.33633 0.0
C446 C 0.02569 0.43784 0.3267 0.0
C447 C 0.02084 0.45296 0.37973 0.0
H448 H 0.843 0.01462 0.80508 0.0
H449 H 0.88697 1.00068 0.96932 0.0
H450 H 0.87427 0.00694 0.7278 0.0
H451 H 0.91863 0.99256 0.89114 0.0
H452 H 0.97626 0.01464 0.72528 0.0
H453 H 0.94603 0.01529 0.81227 0.0
H454 H 0.89591 0.9758 0.68333 0.0
H455 H 0.92584 0.97557 0.59665 0.0
C456 C 0.85935 0.00963 0.8246 0.0
C457 C 0.86257 0.00838 0.89329 0.0
C458 C 0.87726 0.00504 0.78022 0.0
C459 C 0.89903 0.99908 0.80308 0.0
C460 C 0.90214 0.99725 0.8719 0.0
C461 C 0.88398 1.00168 0.91661 0.0
C462 C 0.95885 0.00585 0.71604 0.0
C463 C 0.9533 0.99538 0.6538 0.0
C464 C 0.94156 0.00611 0.76596 0.0
C465 C 0.91841 0.99589 0.75452 0.0
C466 C 0.91338 0.98428 0.69343 0.0
C467 C 0.93057 0.98407 0.64375 0.0
H468 H 0.55743 0.84652 0.85723 0.0
H469 H 0.53384 0.88972 0.01771 0.0
H470 H 0.5521 0.87753 0.77954 0.0
H471 H 0.52894 0.92122 0.93917 0.0
H472 H 0.54463 0.97881 0.77491 0.0
H473 H 0.55198 0.94975 0.85842 0.0
H474 H 0.51675 0.89436 0.73599 0.0
H475 H 0.50943 0.92308 0.6531 0.0
C476 C 0.55097 0.8626 0.87604 0.0
C477 C 0.54557 0.86534 0.94375 0.0
C478 C 0.54801 0.88044 0.83137 0.0
C479 C 0.53979 0.90171 0.85299 0.0
C480 C 0.53535 0.90502 0.92104 0.0
C481 C 0.53816 0.88699 0.966 0.0
C482 C 0.53851 0.96042 0.7658 0.0
C483 C 0.52649 0.95331 0.70708 0.0
C484 C 0.54259 0.94382 0.81385 0.0
C485 C 0.53504 0.91975 0.80368 0.0
C486 C 0.52305 0.91272 0.74502 0.0
C487 C 0.51875 0.92926 0.69755 0.0
H488 H 0.68022 0.51551 0.82309 0.0
H489 H 0.64193 0.44899 0.87448 0.0
H490 H 0.6488 0.52291 0.74648 0.0
H491 H 0.61106 0.45599 0.7975 0.0
H492 H 0.54934 0.48261 0.69877 0.0
H493 H 0.5798 0.48052 0.78102 0.0
H494 H 0.63252 0.50725 0.63905 0.0
H495 H 0.60163 0.51003 0.55676 0.0
C496 C 0.66499 0.50263 0.81863 0.0
C497 C 0.6636 0.48163 0.8547 0.0
C498 C 0.64713 0.50673 0.77422 0.0
C499 C 0.6274 0.49002 0.76557 0.0
C500 C 0.62581 0.46938 0.80323 0.0
C501 C 0.64363 0.46526 0.84709 0.0
C502 C 0.56739 0.48834 0.6852 0.0
C503 C 0.57308 0.49654 0.62125 0.0
C504 C 0.58491 0.48696 0.73231 0.0
C505 C 0.60868 0.49355 0.71668 0.0
C506 C 0.61437 0.50223 0.653 0.0
C507 C 0.59673 0.50365 0.60568 0.0
H508 H 0.9774 0.60451 0.00668 0.0
H509 H 1.00023 0.65795 0.86443 0.0
H510 H 0.97758 0.57406 0.91868 0.0
H511 H 1.00086 0.62789 0.77805 0.0
H512 H 0.97794 0.57488 0.62175 0.0
H513 H 0.97245 0.60121 0.71578 0.0
H514 H 0.00661 0.55532 0.84321 0.0
H515 H 0.01184 0.52863 0.74857 0.0
C516 C 0.98246 0.60974 0.95684 0.0
C517 C 0.98903 0.63363 0.94276 0.0
C518 C 0.98269 0.59233 0.90662 0.0
C519 C 0.98909 0.59857 0.84125 0.0
C520 C 0.99552 0.62246 0.82754 0.0
C521 C 0.99547 0.6397 0.87742 0.0
C522 C 0.98403 0.57023 0.66996 0.0
C523 C 0.99562 0.54989 0.67762 0.0
C524 C 0.98097 0.58537 0.72383 0.0
C525 C 0.98946 0.58058 0.78679 0.0
C526 C 0.99985 0.55949 0.79538 0.0
C527 C 1.00293 0.54427 0.7412 0.0
H528 H 0.058 0.14255 0.17189 0.0
H529 H 0.98811 0.16509 0.17559 0.0
H530 H 0.04279 0.10497 0.21904 0.0
H531 H 0.97257 0.12713 0.22102 0.0
H532 H 0.96441 0.07107 0.38764 0.0
H533 H 0.97321 0.10613 0.32148 0.0
H534 H 0.01947 0.06864 0.19677 0.0
H535 H 0.01138 0.03384 0.2652 0.0
C536 C 0.03933 0.13931 0.18239 0.0
C537 C 0.02424 0.1567 0.17064 0.0
C538 C 0.03053 0.1177 0.20869 0.0
C539 C 0.00638 0.11289 0.22311 0.0
C540 C 0.99127 0.13032 0.211 0.0
C541 C 1.00015 0.15207 0.18528 0.0
C542 C 0.97593 0.07012 0.34492 0.0
C543 C 0.9875 0.04993 0.33195 0.0
C544 C 0.98098 0.09024 0.30688 0.0
C545 C 0.99749 0.09037 0.25476 0.0
C546 C 0.0072 0.06931 0.23783 0.0
C547 C 1.00236 0.04929 0.2764 0.0
H548 H 0.32204 0.93775 0.34166 0.0
H549 H 0.35136 0.88571 0.21588 0.0
H550 H 0.35683 0.94059 0.40985 0.0
H551 H 0.38663 0.8889 0.28428 0.0
H552 H 0.45452 0.93944 0.34325 0.0
H553 H 0.41792 0.92216 0.29295 0.0
H554 H 0.38325 0.92279 0.4841 0.0
H555 H 0.41979 0.94046 0.53402 0.0
C556 C 0.3355 0.92622 0.32987 0.0
C557 C 0.334 0.91173 0.27263 0.0
C558 C 0.35557 0.92792 0.36906 0.0
C559 C 0.37464 0.91522 0.35187 0.0
C560 C 0.37236 0.89921 0.29798 0.0
C561 C 0.35218 0.8974 0.25888 0.0
C562 C 0.43918 0.93544 0.37459 0.0
C563 C 0.43982 0.94153 0.44218 0.0
C564 C 0.41827 0.92537 0.34598 0.0
C565 C 0.39765 0.92125 0.38456 0.0
C566 C 0.39878 0.92601 0.45303 0.0
C567 C 0.41968 0.93608 0.48158 0.0
H568 H 0.47915 0.33168 0.22299 0.0
H569 H 0.42425 0.36502 0.12664 0.0
H570 H 0.49531 0.36966 0.26723 0.0
H571 H 0.44151 0.40339 0.16718 0.0
H572 H 0.46217 0.46098 0.32703 0.0
H573 H 0.44624 0.42597 0.26613 0.0
H574 H 0.51663 0.40593 0.23571 0.0
H575 H 0.53248 0.4407 0.29983 0.0
C576 C 0.47035 0.34707 0.21169 0.0
C577 C 0.45025 0.3452 0.17158 0.0
C578 C 0.48001 0.36899 0.23577 0.0
C579 C 0.46999 0.38968 0.2198 0.0
C580 C 0.44967 0.38782 0.18053 0.0
C581 C 0.43984 0.36582 0.15699 0.0
C582 C 0.4743 0.44936 0.30604 0.0
C583 C 0.49851 0.45329 0.31881 0.0
C584 C 0.46516 0.42929 0.27088 0.0
C585 C 0.4801 0.41285 0.24718 0.0
C586 C 0.50459 0.41793 0.25496 0.0
C587 C 0.51373 0.43798 0.29078 0.0
H588 H 0.19258 0.57977 0.32896 0.0
H589 H 0.16078 0.62882 0.20534 0.0
H590 H 0.15454 0.56778 0.37839 0.0
H591 H 0.12225 0.61617 0.25496 0.0
H592 H 0.0624 0.58986 0.42229 0.0
H593 H 0.09874 0.6108 0.37743 0.0
H594 H 0.12025 0.54456 0.30438 0.0
H595 H 0.08415 0.52376 0.34809 0.0
C596 C 0.1777 0.58872 0.31397 0.0
C597 C 0.17976 0.60511 0.26246 0.0
C598 C 0.15583 0.58155 0.34182 0.0
C599 C 0.13556 0.59068 0.31916 0.0
C600 C 0.13772 0.60879 0.27267 0.0
C601 C 0.15972 0.61594 0.24433 0.0
C602 C 0.07471 0.57992 0.39533 0.0
C603 C 0.07065 0.55521 0.38895 0.0
C604 C 0.09541 0.59187 0.36995 0.0
C605 C 0.11231 0.57915 0.33879 0.0
C606 C 0.10757 0.55465 0.32928 0.0
C607 C 0.08688 0.54279 0.35386 0.0
H608 H 0.97014 0.84988 0.89793 0.0
H609 H 0.04236 0.83873 0.93693 0.0
H610 H 0.98302 0.88863 0.85433 0.0
H611 H 0.05535 0.87774 0.89299 0.0
H612 H 0.0633 0.93516 0.72425 0.0
H613 H 0.05661 0.89869 0.78624 0.0
H614 H 1.0004 0.92737 0.89583 0.0
H615 H 0.00675 0.9636 0.83276 0.0
C616 C 0.98878 0.85578 0.89729 0.0
C617 C 0.00524 0.84137 0.92105 0.0
C618 C 0.99615 0.87803 0.87284 0.0
C619 C 0.02016 0.8864 0.87158 0.0
C620 C 0.03673 0.87174 0.89358 0.0
C621 C 0.02932 0.8494 0.91821 0.0
C622 C 0.05003 0.93393 0.76308 0.0
C623 C 0.03528 0.95197 0.77317 0.0
C624 C 0.04618 0.91304 0.79851 0.0
C625 C 0.02759 0.91 0.8446 0.0
C626 C 0.01446 0.92904 0.85931 0.0
C627 C 0.01825 0.94986 0.82377 0.0
H628 H 0.69968 0.11017 0.80212 0.0
H629 H 0.65541 0.08307 0.9642 0.0
H630 H 0.66529 0.10736 0.73031 0.0
H631 H 0.62136 0.08107 0.89338 0.0
H632 H 0.5611 0.08302 0.75694 0.0
H633 H 0.59434 0.10133 0.82172 0.0
H634 H 0.64249 0.06981 0.68891 0.0
H635 H 0.60939 0.05162 0.6245 0.0
C636 C 0.68263 0.10412 0.82291 0.0
C637 C 0.68048 0.09648 0.88879 0.0
C638 C 0.66295 0.10263 0.78184 0.0
C639 C 0.64072 0.09378 0.80613 0.0
C640 C 0.63822 0.08819 0.87338 0.0
C641 C 0.65786 0.08942 0.91417 0.0
C642 C 0.57883 0.08044 0.74102 0.0
C643 C 0.58276 0.06571 0.68643 0.0
C644 C 0.5978 0.09089 0.778 0.0
C645 C 0.62097 0.08694 0.76044 0.0
C646 C 0.62487 0.07342 0.70321 0.0
C647 C 0.60592 0.06282 0.6667 0.0
H648 H 0.5402 0.67346 0.89792 0.0
H649 H 0.59758 0.6424 0.98928 0.0
H650 H 0.52538 0.63516 0.85298 0.0
H651 H 0.58168 0.60363 0.94818 0.0
H652 H 0.56286 0.54654 0.78563 0.0
H653 H 0.57746 0.58162 0.84829 0.0
H654 H 0.50598 0.59789 0.88292 0.0
H655 H 0.49144 0.5631 0.81699 0.0
C656 C 0.5498 0.6585 0.90805 0.0
C657 C 0.57024 0.66111 0.94681 0.0
C658 C 0.54093 0.63637 0.88359 0.0
C659 C 0.55208 0.6162 0.89786 0.0
C660 C 0.57266 0.61879 0.93609 0.0
C661 C 0.58171 0.64102 0.95999 0.0
C662 C 0.55023 0.55734 0.80788 0.0
C663 C 0.52606 0.55239 0.79577 0.0
C664 C 0.55861 0.57744 0.84408 0.0
C665 C 0.54293 0.59287 0.86952 0.0
C666 C 0.51855 0.5867 0.86235 0.0
C667 C 0.51018 0.56664 0.82545 0.0
H668 H 0.84142 0.38424 0.79592 0.0
H669 H 0.8691 0.40772 0.98722 0.0
H670 H 0.88032 0.39338 0.74684 0.0
H671 H 0.908 0.41544 0.93888 0.0
H672 H 0.95427 0.40933 0.67276 0.0
H673 H 0.92208 0.38818 0.7353 0.0
H674 H 0.92114 0.44827 0.86897 0.0
H675 H 0.95343 0.46906 0.80728 0.0
C676 C 0.85588 0.39066 0.82789 0.0
C677 C 0.85189 0.39575 0.89524 0.0
C678 C 0.87826 0.39567 0.79987 0.0
C679 C 0.89712 0.40567 0.83881 0.0
C680 C 0.89369 0.40825 0.90735 0.0
C681 C 0.87133 0.40345 0.93524 0.0
C682 C 0.94742 0.41776 0.71633 0.0
C683 C 0.95612 0.44086 0.7351 0.0
C684 C 0.92897 0.4057 0.75191 0.0
C685 C 0.91901 0.41654 0.80696 0.0
C686 C 0.92863 0.43923 0.82745 0.0
C687 C 0.94701 0.45126 0.79186 0.0
H688 H 0.02359 0.1994 0.65803 0.0
H689 H 0.08218 0.18203 0.77497 0.0
H690 H 0.01799 0.15875 0.61625 0.0
H691 H 0.07726 0.14191 0.73095 0.0
H692 H 0.04095 0.06639 0.71443 0.0
H693 H 0.04962 0.10776 0.7465 0.0
H694 H 0.03356 0.12837 0.54858 0.0
H695 H 0.0244 0.08698 0.51678 0.0
C696 C 0.03554 0.18708 0.674 0.0
C697 C 0.0533 0.19416 0.72013 0.0
C698 C 0.03244 0.16376 0.64962 0.0
C699 C 0.04701 0.14689 0.67077 0.0
C700 C 0.06543 0.15426 0.71443 0.0
C701 C 0.06851 0.1775 0.73883 0.0
C702 C 0.03937 0.0797 0.67756 0.0
C703 C 0.03192 0.07325 0.61303 0.0
C704 C 0.0445 0.10349 0.69586 0.0
C705 C 0.04235 0.12151 0.65012 0.0
C706 C 0.03515 0.11504 0.58535 0.0
C707 C 0.03002 0.09123 0.56703 0.0
H708 H 0.33647 0.96917 0.72473 0.0
H709 H 0.34984 0.03224 0.84633 0.0
H710 H 0.37461 0.9772 0.67245 0.0
H711 H 0.38707 0.04165 0.7891 0.0
H712 H 0.46455 0.03659 0.74152 0.0
H713 H 0.42466 0.03142 0.78623 0.0
H714 H 0.40053 0.99728 0.60237 0.0
H715 H 0.4409 1.0014 0.56014 0.0
C716 C 0.34737 0.98499 0.73983 0.0
C717 C 0.34005 0.99969 0.79128 0.0
C718 C 0.3693 0.98986 0.70877 0.0
C719 C 0.38448 0.00996 0.72684 0.0
C720 C 0.3764 0.02559 0.77492 0.0
C721 C 0.35464 0.02043 0.80702 0.0
C722 C 0.45062 0.02796 0.71098 0.0
C723 C 0.45577 0.01899 0.64799 0.0
C724 C 0.4276 0.02517 0.73622 0.0
C725 C 0.40896 0.01387 0.69833 0.0
C726 C 0.41425 0.00553 0.63415 0.0
C727 C 0.43742 0.00787 0.60963 0.0
H728 H 0.50648 0.32652 0.81383 0.0
H729 H 0.46 0.30436 0.65194 0.0
H730 H 0.51121 0.36639 0.77163 0.0
H731 H 0.464 0.34469 0.61116 0.0
H732 H 0.49447 0.4163 0.52552 0.0
H733 H 0.49058 0.37544 0.56125 0.0
H734 H 0.48796 0.39925 0.76524 0.0
H735 H 0.49236 0.44011 0.72975 0.0
C736 C 0.49756 0.32999 0.76851 0.0
C737 C 0.4829 0.31203 0.73628 0.0
C738 C 0.49994 0.35306 0.74496 0.0
C739 C 0.4877 0.35895 0.68853 0.0
C740 C 0.47374 0.34085 0.6547 0.0
C741 C 0.47134 0.3177 0.67833 0.0
C742 C 0.49291 0.41287 0.57804 0.0
C743 C 0.49384 0.43163 0.62472 0.0
C744 C 0.4906 0.38936 0.59851 0.0
C745 C 0.4892 0.38395 0.66621 0.0
C746 C 0.48949 0.4027 0.71274 0.0
C747 C 0.49179 0.4262 0.69231 0.0
H748 H 0.20024 0.53141 0.7393 0.0
H749 H 0.17235 0.48638 0.89731 0.0
H750 H 0.16309 0.52456 0.68192 0.0
H751 H 0.13571 0.47789 0.83712 0.0
H752 H 0.0637 0.49315 0.75886 0.0
H753 H 0.10184 0.49522 0.81267 0.0
H754 H 0.13634 0.50043 0.62108 0.0
H755 H 0.09822 0.49971 0.56811 0.0
C756 C 0.18631 0.51972 0.76147 0.0
C757 C 0.18936 0.5098 0.82375 0.0
C758 C 0.16495 0.51548 0.72787 0.0
C759 C 0.14601 0.50081 0.75482 0.0
C760 C 0.14956 0.48975 0.81525 0.0
C761 C 0.17085 0.49427 0.84937 0.0
C762 C 0.07946 0.49463 0.72832 0.0
C763 C 0.07791 0.49648 0.65927 0.0
C764 C 0.10143 0.49564 0.75914 0.0
C765 C 0.12247 0.49811 0.7216 0.0
C766 C 0.12074 0.49912 0.65216 0.0
C767 C 0.0988 0.49855 0.62154 0.0
H768 H 0.92819 0.81459 0.3974 0.0
H769 H 1.00314 0.80994 0.37911 0.0
H770 H 0.93606 0.85485 0.44109 0.0
H771 H 0.01066 0.84949 0.42642 0.0
H772 H 0.01253 0.91505 0.56707 0.0
H773 H 1.0029 0.87357 0.53563 0.0
H774 H 0.9564 0.89381 0.38454 0.0
H775 H 0.96635 0.93548 0.41498 0.0
C776 C 0.94632 0.82188 0.40325 0.0
C777 C 0.96497 0.80878 0.38367 0.0
C778 C 0.95077 0.84497 0.42854 0.0
C779 C 0.97396 0.85535 0.43654 0.0
C780 C 0.99259 0.84188 0.42105 0.0
C781 C 0.98819 0.81901 0.39446 0.0
C782 C 1.00016 0.9107 0.5273 0.0
C783 C 0.99026 0.92861 0.49334 0.0
C784 C 0.99472 0.88694 0.50929 0.0
C785 C 0.97886 0.88048 0.45786 0.0
C786 C 0.96853 0.8983 0.4248 0.0
C787 C 0.97435 0.92214 0.4419 0.0
H788 H 0.68803 0.97263 0.35494 0.0
H789 H 0.67096 0.04036 0.28876 0.0
H790 H 0.64987 0.96662 0.41195 0.0
H791 H 0.63278 0.03414 0.34237 0.0
H792 H 0.57262 0.02835 0.48486 0.0
H793 H 0.6126 0.03343 0.44146 0.0
H794 H 0.60916 0.95845 0.39888 0.0
H795 H 0.56968 0.95332 0.44713 0.0
C796 C 0.6761 0.98618 0.3525 0.0
C797 C 0.68268 0.00712 0.31825 0.0
C798 C 0.65413 0.98273 0.38482 0.0
C799 C 0.63806 0.99997 0.38265 0.0
C800 C 0.64472 0.02071 0.34734 0.0
C801 C 0.6667 0.02428 0.31613 0.0
C802 C 0.58059 0.01289 0.46752 0.0
C803 C 0.56802 0.99043 0.46995 0.0
C804 C 0.60348 0.01582 0.4415 0.0
C805 C 0.6143 0.99641 0.41552 0.0
C806 C 0.60174 0.97383 0.41896 0.0
C807 C 0.57895 0.97088 0.4462 0.0
H808 H 0.57029 0.70072 0.46468 0.0
H809 H 0.51886 0.68154 0.31256 0.0
H810 H 0.56597 0.66004 0.50297 0.0
H811 H 0.51398 0.64128 0.35219 0.0
H812 H 0.53464 0.58886 0.59006 0.0
H813 H 0.53919 0.62995 0.55638 0.0
H814 H 0.53648 0.60738 0.35102 0.0
H815 H 0.5315 0.56626 0.38458 0.0
C816 C 0.55782 0.68795 0.43998 0.0
C817 C 0.54491 0.69455 0.38553 0.0
C818 C 0.55527 0.66462 0.46215 0.0
C819 C 0.53982 0.64725 0.4302 0.0
C820 C 0.52635 0.65405 0.37727 0.0
C821 C 0.52885 0.67733 0.35527 0.0
C822 C 0.53516 0.59259 0.53764 0.0
C823 C 0.5326 0.57412 0.49007 0.0
C824 C 0.53786 0.61623 0.51835 0.0
C825 C 0.53798 0.62206 0.45098 0.0
C826 C 0.53601 0.60358 0.4034 0.0
C827 C 0.53339 0.57994 0.42266 0.0
H828 H 0.85191 0.51698 0.22391 0.0
H829 H 0.82188 0.47345 0.38255 0.0
H830 H 0.88862 0.52393 0.28426 0.0
H831 H 0.85909 0.47875 0.44021 0.0
H832 H 0.92512 0.5013 0.55324 0.0
H833 H 0.88704 0.5019 0.50061 0.0
H834 H 0.92127 0.50459 0.30848 0.0
H835 H 0.95935 0.50526 0.36172 0.0
C836 C 0.85295 0.50911 0.27205 0.0
C837 C 0.8338 0.49442 0.29775 0.0
C838 C 0.87428 0.51273 0.30626 0.0
C839 C 0.87724 0.50156 0.36687 0.0
C840 C 0.8577 0.48782 0.39403 0.0
C841 C 0.83629 0.48449 0.36031 0.0
C842 C 0.92449 0.50216 0.49976 0.0
C843 C 0.94529 0.50316 0.46171 0.0
C844 C 0.90257 0.50237 0.46936 0.0
C845 C 0.90079 0.50316 0.39989 0.0
C846 C 0.92174 0.50442 0.36203 0.0
C847 C 0.94368 0.50462 0.39256 0.0
loop_
_geom_bond_atom_site_label_1
_geom_bond_atom_site_label_2
_geom_bond_distance
_geom_bond_site_symmetry_2
_ccdc_geom_bond_type
C0 C1 1.384 . S
C0 H13 0.947 . S
C0 C35 1.382 . S
C1 C0 1.384 . S
C1 C2 1.378 . S
C2 C1 1.378 . S
C2 C3 1.378 . S
C2 H14 0.952 . S
C3 C2 1.378 . S
C3 H15 0.950 . S
C3 C34 1.383 . S
H4 C23 0.947 . S
H5 C24 0.946 . S
H6 C26 0.953 . S
H7 C27 0.945 . S
H8 C29 0.952 . S
H9 C30 0.949 . S
H10 C32 0.950 . S
H11 C33 0.948 . S
H12 C35 0.951 . S
H13 C0 0.947 . S
H14 C2 0.952 . S
H15 C3 0.950 . S
N16 C19 1.382 . S
N16 C21 1.363 . S
N17 C19 1.371 1_556 S
N17 C20 1.372 . S
N18 C20 1.361 1_554 S
N18 C21 1.377 . S
C19 N16 1.382 . S
C19 N17 1.371 1_554 S
C19 C22 1.480 1_554 S
C20 N17 1.372 . S
C20 N18 1.361 1_556 S
C20 C28 1.457 . S
C21 N16 1.363 . S
C21 N18 1.377 . S
C21 C34 1.479 . S
C22 C19 1.480 1_556 S
C22 C23 1.383 1_556 S
C22 C27 1.385 . S
C23 H4 0.947 . S
C23 C22 1.383 1_554 S
C23 C24 1.388 . S
C24 H5 0.946 . S
C24 C23 1.388 . S
C24 C25 1.384 1_554 S
C25 C24 1.384 1_556 S
C25 C26 1.377 . S
C26 H6 0.953 . S
C26 C25 1.377 . S
C26 C27 1.369 . S
C27 H7 0.945 . S
C27 C22 1.385 . S
C27 C26 1.369 . S
C28 C20 1.457 . S
C28 C29 1.372 . S
C28 C33 1.364 . S
C29 H8 0.952 . S
C29 C28 1.372 . S
C29 C30 1.389 . S
C30 H9 0.949 . S
C30 C29 1.389 . S
C30 C31 1.387 . S
C31 C30 1.387 . S
C31 C32 1.372 . S
C32 H10 0.950 . S
C32 C31 1.372 . S
C32 C33 1.379 . S
C33 H11 0.948 . S
C33 C28 1.364 . S
C33 C32 1.379 . S
C34 C3 1.383 . S
C34 C21 1.479 . S
C34 C35 1.398 . S
C35 C0 1.382 . S
C35 H12 0.951 . S
C35 C34 1.398 . S
C36 C37 1.384 . S
C36 H49 0.947 . S
C36 C71 1.382 . S
C37 C36 1.384 . S
C37 C38 1.378 . S
C38 C37 1.378 . S
C38 C39 1.378 . S
C38 H50 0.952 . S
C39 C38 1.378 . S
C39 H51 0.950 . S
C39 C70 1.383 . S
H40 C59 0.947 . S
H41 C60 0.946 . S
H42 C62 0.953 . S
H43 C63 0.945 . S
H44 C65 0.952 . S
H45 C66 0.949 . S
H46 C68 0.950 . S
H47 C69 0.948 . S
H48 C71 0.951 . S
H49 C36 0.947 . S
H50 C38 0.952 . S
H51 C39 0.950 . S
N52 C55 1.382 1_554 S
N52 C57 1.363 . S
N53 C55 1.371 . S
N53 C56 1.372 . S
N54 C56 1.361 1_554 S
N54 C57 1.377 . S
C55 N52 1.382 1_556 S
C55 N53 1.371 . S
C55 C58 1.480 . S
C56 N53 1.372 . S
C56 N54 1.361 1_556 S
C56 C64 1.457 . S
C57 N52 1.363 . S
C57 N54 1.377 . S
C57 C70 1.479 . S
C58 C55 1.480 . S
C58 C59 1.383 1_556 S
C58 C63 1.385 . S
C59 H40 0.947 . S
C59 C58 1.383 1_554 S
C59 C60 1.388 . S
C60 H41 0.946 . S
C60 C59 1.388 . S
C60 C61 1.384 1_554 S
C61 C60 1.384 1_556 S
C61 C62 1.377 . S
C62 H42 0.953 . S
C62 C61 1.377 . S
C62 C63 1.369 . S
C63 H43 0.945 . S
C63 C58 1.385 . S
C63 C62 1.369 . S
C64 C56 1.457 . S
C64 C65 1.372 . S
C64 C69 1.364 . S
C65 H44 0.952 . S
C65 C64 1.372 . S
C65 C66 1.389 . S
C66 H45 0.949 . S
C66 C65 1.389 . S
C66 C67 1.387 . S
C67 C66 1.387 . S
C67 C68 1.372 . S
C68 H46 0.950 . S
C68 C67 1.372 . S
C68 C69 1.379 . S
C69 H47 0.948 . S
C69 C64 1.364 . S
C69 C68 1.379 . S
C70 C39 1.383 . S
C70 C57 1.479 . S
C70 C71 1.398 . S
C71 C36 1.382 . S
C71 H48 0.951 . S
C71 C70 1.398 . S
C72 C73 1.384 1_565 S
C72 H85 0.947 . S
C72 C107 1.382 1_565 S
C73 C72 1.384 1_545 S
C73 C74 1.378 . S
C74 C73 1.378 . S
C74 C75 1.378 . S
C74 H86 0.952 . S
C75 C74 1.378 . S
C75 H87 0.950 . S
C75 C106 1.383 . S
H76 C95 0.947 . S
H77 C96 0.954 . S
H78 C98 0.953 . S
H79 C99 0.945 . S
H80 C101 0.947 1_565 S
H81 C102 0.957 . S
H82 C104 0.950 . S
H83 C105 0.948 . S
H84 C107 0.951 1_565 S
H85 C72 0.947 . S
H86 C74 0.952 . S
H87 C75 0.950 . S
N88 C91 1.382 . S
N88 C93 1.363 . S
N89 C91 1.371 1_556 S
N89 C92 1.372 . S
N90 C92 1.361 1_554 S
N90 C93 1.377 . S
C91 N88 1.382 . S
C91 N89 1.371 1_554 S
C91 C94 1.480 1_554 S
C92 N89 1.372 . S
C92 N90 1.361 1_556 S
C92 C100 1.457 . S
C93 N88 1.363 . S
C93 N90 1.377 . S
C93 C106 1.479 . S
C94 C91 1.480 1_556 S
C94 C95 1.383 1_556 S
C94 C99 1.385 . S
C95 H76 0.947 . S
C95 C94 1.383 1_554 S
C95 C96 1.383 1_545 S
C96 H77 0.954 . S
C96 C95 1.383 1_565 S
C96 C97 1.382 1_564 S
C97 C96 1.382 1_546 S
C97 C98 1.377 . S
C98 H78 0.953 . S
C98 C97 1.377 . S
C98 C99 1.369 . S
C99 H79 0.945 . S
C99 C94 1.385 . S
C99 C98 1.369 . S
C100 C92 1.457 . S
C100 C101 1.377 . S
C100 C105 1.364 . S
C101 H80 0.947 1_545 S
C101 C100 1.377 . S
C101 C102 1.392 1_545 S
C102 H81 0.957 . S
C102 C101 1.392 1_565 S
C102 C103 1.379 1_565 S
C103 C102 1.379 1_545 S
C103 C104 1.372 . S
C104 H82 0.950 . S
C104 C103 1.372 . S
C104 C105 1.379 . S
C105 H83 0.948 . S
C105 C100 1.364 . S
C105 C104 1.379 . S
C106 C75 1.383 . S
C106 C93 1.479 . S
C106 C107 1.398 . S
C107 C72 1.382 1_545 S
C107 H84 0.951 1_545 S
C107 C106 1.398 . S
C108 C109 1.384 . S
C108 H121 0.947 . S
C108 C143 1.382 . S
C109 C108 1.384 . S
C109 C110 1.378 . S
C110 C109 1.378 . S
C110 C111 1.378 . S
C110 H122 0.952 . S
C111 C110 1.378 . S
C111 H123 0.950 . S
C111 C142 1.383 . S
H112 C131 0.947 . S
H113 C132 0.946 . S
H114 C134 0.953 . S
H115 C135 0.945 . S
H116 C137 0.952 . S
H117 C138 0.949 . S
H118 C140 0.950 . S
H119 C141 0.948 . S
H120 C143 0.951 1_554 S
H121 C108 0.947 . S
H122 C110 0.952 . S
H123 C111 0.950 . S
N124 C127 1.386 . S
N124 C129 1.364 . S
N125 C127 1.371 . S
N125 C128 1.372 . S
N126 C128 1.361 . S
N126 C129 1.377 . S
C127 N124 1.386 . S
C127 N125 1.371 . S
C127 C130 1.480 . S
C128 N125 1.372 . S
C128 N126 1.361 . S
C128 C136 1.457 . S
C129 N124 1.364 . S
C129 N126 1.377 . S
C129 C142 1.479 1_554 S
C130 C127 1.480 . S
C130 C131 1.383 1_554 S
C130 C135 1.385 . S
C131 H112 0.947 . S
C131 C130 1.383 1_556 S
C131 C132 1.388 . S
C132 H113 0.946 . S
C132 C131 1.388 . S
C132 C133 1.384 1_556 S
C133 C132 1.384 1_554 S
C133 C134 1.377 . S
C134 H114 0.953 . S
C134 C133 1.377 . S
C134 C135 1.369 . S
C135 H115 0.945 . S
C135 C130 1.385 . S
C135 C134 1.369 . S
C136 C128 1.457 . S
C136 C137 1.372 . S
C136 C141 1.364 . S
C137 H116 0.952 . S
C137 C136 1.372 . S
C137 C138 1.389 . S
C138 H117 0.949 . S
C138 C137 1.389 . S
C138 C139 1.387 . S
C139 C138 1.387 . S
C139 C140 1.372 . S
C140 H118 0.950 . S
C140 C139 1.372 . S
C140 C141 1.379 . S
C141 H119 0.948 . S
C141 C136 1.364 . S
C141 C140 1.379 . S
C142 C111 1.383 . S
C142 C129 1.479 1_556 S
C142 C143 1.398 . S
C143 C108 1.382 . S
C143 H120 0.951 1_556 S
C143 C142 1.398 . S
C144 C145 1.384 . S
C144 H157 0.947 . S
C144 C179 1.382 . S
C145 C144 1.384 . S
C145 C146 1.378 . S
C146 C145 1.378 . S
C146 C147 1.378 . S
C146 H158 0.952 . S
C147 C146 1.378 . S
C147 H159 0.950 . S
C147 C178 1.383 . S
H148 C167 0.947 . S
H149 C168 0.946 . S
H150 C170 0.953 . S
H151 C171 0.945 . S
H152 C173 0.952 . S
H153 C174 0.949 . S
H154 C176 0.950 . S
H155 C177 0.948 . S
H156 C179 0.951 . S
H157 C144 0.947 . S
H158 C146 0.952 . S
H159 C147 0.950 . S
N160 C163 1.382 . S
N160 C165 1.363 . S
N161 C163 1.371 . S
N161 C164 1.372 . S
N162 C164 1.361 . S
N162 C165 1.377 . S
C163 N160 1.382 . S
C163 N161 1.371 . S
C163 C166 1.480 . S
C164 N161 1.372 . S
C164 N162 1.361 . S
C164 C172 1.457 . S
C165 N160 1.363 . S
C165 N162 1.377 . S
C165 C178 1.479 1_554 S
C166 C163 1.480 . S
C166 C167 1.383 . S
C166 C171 1.385 . S
C167 H148 0.947 . S
C167 C166 1.383 . S
C167 C168 1.388 . S
C168 H149 0.946 . S
C168 C167 1.388 . S
C168 C169 1.384 . S
C169 C168 1.384 . S
C169 C170 1.377 . S
C170 H150 0.953 . S
C170 C169 1.377 . S
C170 C171 1.369 . S
C171 H151 0.945 . S
C171 C166 1.385 . S
C171 C170 1.369 . S
C172 C164 1.457 . S
C172 C173 1.372 . S
C172 C177 1.364 . S
C173 H152 0.952 . S
C173 C172 1.372 . S
C173 C174 1.389 . S
C174 H153 0.949 . S
C174 C173 1.389 . S
C174 C175 1.387 . S
C175 C174 1.387 . S
C175 C176 1.372 . S
C176 H154 0.950 . S
C176 C175 1.372 . S
C176 C177 1.379 . S
C177 H155 0.948 . S
C177 C172 1.364 . S
C177 C176 1.379 . S
C178 C147 1.383 . S
C178 C165 1.479 1_556 S
C178 C179 1.398 . S
C179 C144 1.382 . S
C179 H156 0.951 . S
C179 C178 1.398 . S
C180 C181 1.384 . S
C180 H193 0.947 . S
C180 C215 1.382 . S
C181 C180 1.384 . S
C181 C182 1.378 . S
C182 C181 1.378 . S
C182 C183 1.378 . S
C182 H194 0.952 . S
C183 C182 1.378 . S
C183 H195 0.950 . S
C183 C214 1.383 . S
H184 C203 0.947 . S
H185 C204 0.946 . S
H186 C206 0.953 . S
H187 C207 0.945 . S
H188 C209 0.952 . S
H189 C210 0.949 . S
H190 C212 0.950 . S
H191 C213 0.948 . S
H192 C215 0.951 . S
H193 C180 0.947 . S
H194 C182 0.952 . S
H195 C183 0.950 . S
N196 C199 1.382 . S
N196 C201 1.363 . S
N197 C199 1.371 . S
N197 C200 1.372 . S
N198 C200 1.361 . S
N198 C201 1.377 . S
C199 N196 1.382 . S
C199 N197 1.371 . S
C199 C202 1.480 . S
C200 N197 1.372 . S
C200 N198 1.361 . S
C200 C208 1.457 . S
C201 N196 1.363 . S
C201 N198 1.377 . S
C201 C214 1.479 1_554 S
C202 C199 1.480 . S
C202 C203 1.383 . S
C202 C207 1.385 . S
C203 H184 0.947 . S
C203 C202 1.383 . S
C203 C204 1.388 . S
C204 H185 0.946 . S
C204 C203 1.388 . S
C204 C205 1.384 . S
C205 C204 1.384 . S
C205 C206 1.377 . S
C206 H186 0.953 . S
C206 C205 1.377 . S
C206 C207 1.369 . S
C207 H187 0.945 . S
C207 C202 1.385 . S
C207 C206 1.369 . S
C208 C200 1.457 . S
C208 C209 1.372 . S
C208 C213 1.364 . S
C209 H188 0.952 . S
C209 C208 1.372 . S
C209 C210 1.389 . S
C210 H189 0.949 . S
C210 C209 1.389 . S
C210 C211 1.387 . S
C211 C210 1.387 . S
C211 C212 1.372 . S
C212 H190 0.950 . S
C212 C211 1.372 . S
C212 C213 1.379 . S
C213 H191 0.948 . S
C213 C208 1.364 . S
C213 C212 1.379 . S
C214 C183 1.383 . S
C214 C201 1.479 1_556 S
C214 C215 1.398 . S
C215 C180 1.382 . S
C215 H192 0.951 . S
C215 C214 1.398 . S
C216 C217 1.383 . S
C216 H229 0.948 1_545 S
C216 C251 1.381 . S
C217 C216 1.383 . S
C217 C218 1.378 . S
C218 C217 1.378 . S
C218 C219 1.378 . S
C218 H230 0.952 . S
C219 C218 1.378 . S
C219 H231 0.950 . S
C219 C250 1.383 . S
H220 C239 0.947 . S
H221 C240 0.948 . S
H222 C242 0.953 . S
H223 C243 0.945 . S
H224 C245 0.951 1_565 S
H225 C246 0.954 . S
H226 C248 0.950 . S
H227 C249 0.948 . S
H228 C251 0.949 1_565 S
H229 C216 0.948 1_565 S
H230 C218 0.952 . S
H231 C219 0.950 . S
N232 C235 1.382 . S
N232 C237 1.363 . S
N233 C235 1.371 . S
N233 C236 1.372 . S
N234 C236 1.361 . S
N234 C237 1.377 . S
C235 N232 1.382 . S
C235 N233 1.371 . S
C235 C238 1.480 . S
C236 N233 1.372 . S
C236 N234 1.361 . S
C236 C244 1.457 . S
C237 N232 1.363 . S
C237 N234 1.377 . S
C237 C250 1.479 1_554 S
C238 C235 1.480 . S
C238 C239 1.383 . S
C238 C243 1.385 . S
C239 H220 0.947 . S
C239 C238 1.383 . S
C239 C240 1.388 1_545 S
C240 H221 0.948 . S
C240 C239 1.388 1_565 S
C240 C241 1.382 1_565 S
C241 C240 1.382 1_545 S
C241 C242 1.377 . S
C242 H222 0.953 . S
C242 C241 1.377 . S
C242 C243 1.369 . S
C243 H223 0.945 . S
C243 C238 1.385 . S
C243 C242 1.369 . S
C244 C236 1.457 . S
C244 C245 1.378 . S
C244 C249 1.364 . S
C245 H224 0.951 1_545 S
C245 C244 1.378 . S
C245 C246 1.381 1_545 S
C246 H225 0.954 . S
C246 C245 1.381 1_565 S
C246 C247 1.387 1_565 S
C247 C246 1.387 1_545 S
C247 C248 1.372 . S
C248 H226 0.950 . S
C248 C247 1.372 . S
C248 C249 1.379 . S
C249 H227 0.948 . S
C249 C244 1.364 . S
C249 C248 1.379 . S
C250 C219 1.383 . S
C250 C237 1.479 1_556 S
C250 C251 1.400 . S
C251 C216 1.381 . S
C251 H228 0.949 1_545 S
C251 C250 1.400 . S
C252 C253 1.384 . S
C252 H265 0.947 . S
C252 C287 1.382 . S
C253 C252 1.384 . S
C253 C254 1.378 . S
C254 C253 1.378 . S
C254 C255 1.378 . S
C254 H266 0.952 . S
C255 C254 1.378 . S
C255 H267 0.950 . S
C255 C286 1.383 . S
H256 C275 0.947 . S
H257 C276 0.946 . S
H258 C278 0.953 . S
H259 C279 0.945 1_556 S
H260 C281 0.952 . S
H261 C282 0.949 . S
H262 C284 0.950 . S
H263 C285 0.948 . S
H264 C287 0.951 . S
H265 C252 0.947 . S
H266 C254 0.952 . S
H267 C255 0.950 . S
N268 C271 1.382 . S
N268 C273 1.363 . S
N269 C271 1.372 1_556 S
N269 C272 1.371 . S
N270 C272 1.361 1_554 S
N270 C273 1.377 . S
C271 N268 1.382 . S
C271 N269 1.372 1_554 S
C271 C274 1.480 . S
C272 N269 1.371 . S
C272 N270 1.361 1_556 S
C272 C280 1.457 . S
C273 N268 1.363 . S
C273 N270 1.377 . S
C273 C286 1.479 . S
C274 C271 1.480 . S
C274 C275 1.383 . S
C274 C279 1.385 . S
C275 H256 0.947 . S
C275 C274 1.383 . S
C275 C276 1.388 . S
C276 H257 0.946 . S
C276 C275 1.388 . S
C276 C277 1.384 . S
C277 C276 1.384 . S
C277 C278 1.377 . S
C278 H258 0.953 . S
C278 C277 1.377 . S
C278 C279 1.369 . S
C279 H259 0.945 1_554 S
C279 C274 1.385 . S
C279 C278 1.369 . S
C280 C272 1.457 . S
C280 C281 1.372 . S
C280 C285 1.364 . S
C281 H260 0.952 . S
C281 C280 1.372 . S
C281 C282 1.389 . S
C282 H261 0.949 . S
C282 C281 1.389 . S
C282 C283 1.387 . S
C283 C282 1.387 . S
C283 C284 1.372 . S
C284 H262 0.950 . S
C284 C283 1.372 . S
C284 C285 1.379 . S
C285 H263 0.948 . S
C285 C280 1.364 . S
C285 C284 1.379 . S
C286 C255 1.383 . S
C286 C273 1.479 . S
C286 C287 1.398 . S
C287 C252 1.382 . S
C287 H264 0.951 . S
C287 C286 1.398 . S
Dy288 O292 2.398 . S
Dy288 O293 2.491 1_455 S
Dy288 O294 2.403 . S
Dy288 O295 2.664 1_565 S
Dy288 O299 2.326 . S
Dy288 O303 2.310 1_455 S
Dy288 O304 2.351 1_565 S
C289 O300 1.185 1_455 S
C289 O301 1.355 . S
C290 O292 1.185 . S
C290 O293 1.355 1_455 S
Dy291 O295 2.310 1_655 S
Dy291 O298 2.351 1_545 S
Dy291 O300 2.398 . S
Dy291 O301 2.491 1_655 S
Dy291 O302 2.403 . S
Dy291 O303 2.664 1_545 S
Dy291 O305 2.326 1_655 S
O292 Dy288 2.398 . S
O292 C290 1.185 . S
O293 Dy288 2.491 1_655 S
O293 C290 1.355 1_655 S
O294 Dy288 2.403 . S
O294 C296 1.254 . S
O295 Dy288 2.664 1_545 S
O295 Dy291 2.310 1_455 S
O295 C296 1.268 1_545 S
C296 O294 1.254 . S
C296 O295 1.268 1_565 S
C297 O302 1.254 . S
C297 O303 1.268 1_545 S
O298 Dy291 2.351 1_565 S
O298 C306 1.249 . S
O299 Dy288 2.326 . S
O299 C306 1.267 1_455 S
O300 C289 1.185 1_655 S
O300 Dy291 2.398 . S
O301 C289 1.355 . S
O301 Dy291 2.491 1_455 S
O302 Dy291 2.403 . S
O302 C297 1.254 . S
O303 Dy288 2.310 1_655 S
O303 Dy291 2.664 1_565 S
O303 C297 1.268 1_565 S
O304 Dy288 2.351 1_545 S
O304 C307 1.249 . S
O305 Dy291 2.326 1_455 S
O305 C307 1.267 . S
C306 O298 1.249 . S
C306 O299 1.267 1_655 S
C307 O304 1.249 . S
C307 O305 1.267 . S
Dy308 O312 2.398 . S
Dy308 O313 2.491 . S
Dy308 O314 2.403 . S
Dy308 O315 2.664 . S
Dy308 O319 2.326 1_565 S
Dy308 O323 2.310 1_565 S
Dy308 O324 2.351 . S
C309 O320 1.185 . S
C309 O321 1.355 . S
C310 O312 1.185 . S
C310 O313 1.355 . S
Dy311 O315 2.310 1_545 S
Dy311 O318 2.351 . S
Dy311 O320 2.398 . S
Dy311 O321 2.491 . S
Dy311 O322 2.403 . S
Dy311 O323 2.664 . S
Dy311 O325 2.326 1_545 S
O312 Dy308 2.398 . S
O312 C310 1.185 . S
O313 Dy308 2.491 . S
O313 C310 1.355 . S
O314 Dy308 2.403 . S
O314 C316 1.254 . S
O315 Dy308 2.664 . S
O315 Dy311 2.310 1_565 S
O315 C316 1.268 . S
C316 O314 1.254 . S
C316 O315 1.268 . S
C317 O322 1.254 . S
C317 O323 1.268 . S
O318 Dy311 2.351 . S
O318 C326 1.249 . S
O319 Dy308 2.326 1_545 S
O319 C326 1.267 . S
O320 C309 1.185 . S
O320 Dy311 2.398 . S
O321 C309 1.355 . S
O321 Dy311 2.491 . S
O322 Dy311 2.403 . S
O322 C317 1.254 . S
O323 Dy308 2.310 1_545 S
O323 Dy311 2.664 . S
O323 C317 1.268 . S
O324 Dy308 2.351 . S
O324 C327 1.249 . S
O325 Dy311 2.326 1_565 S
O325 C327 1.267 . S
C326 O318 1.249 . S
C326 O319 1.267 . S
C327 O324 1.249 . S
C327 O325 1.267 . S
Dy328 O332 2.398 . S
Dy328 O333 2.491 . S
Dy328 O334 2.403 . S
Dy328 O335 2.664 . S
Dy328 O339 2.326 . S
Dy328 O343 2.310 . S
Dy328 O344 2.351 . S
C329 O340 1.185 . S
C329 O341 1.355 . S
C330 O332 1.185 . S
C330 O333 1.355 . S
Dy331 O335 2.310 . S
Dy331 O338 2.351 . S
Dy331 O340 2.398 . S
Dy331 O341 2.491 . S
Dy331 O342 2.403 . S
Dy331 O343 2.664 . S
Dy331 O345 2.326 . S
O332 Dy328 2.398 . S
O332 C330 1.185 . S
O333 Dy328 2.491 . S
O333 C330 1.355 . S
O334 Dy328 2.403 . S
O334 C336 1.254 . S
O335 Dy328 2.664 . S
O335 Dy331 2.310 . S
O335 C336 1.268 . S
C336 O334 1.254 . S
C336 O335 1.268 . S
C337 O342 1.254 . S
C337 O343 1.268 . S
O338 Dy331 2.351 . S
O338 C346 1.249 . S
O339 Dy328 2.326 . S
O339 C346 1.267 . S
O340 C329 1.185 . S
O340 Dy331 2.398 . S
O341 C329 1.355 . S
O341 Dy331 2.491 . S
O342 Dy331 2.403 . S
O342 C337 1.254 . S
O343 Dy328 2.310 . S
O343 Dy331 2.664 . S
O343 C337 1.268 . S
O344 Dy328 2.351 . S
O344 C347 1.249 . S
O345 Dy331 2.326 . S
O345 C347 1.267 . S
C346 O338 1.249 . S
C346 O339 1.267 . S
C347 O344 1.249 . S
C347 O345 1.267 . S
Dy348 O352 2.398 . S
Dy348 O353 2.491 . S
Dy348 O354 2.403 1_655 S
Dy348 O355 2.664 1_655 S
Dy348 O359 2.326 . S
Dy348 O363 2.310 . S
Dy348 O364 2.351 1_655 S
C349 O360 1.185 . S
C349 O361 1.355 . S
C350 O352 1.185 . S
C350 O353 1.355 . S
Dy351 O355 2.310 . S
Dy351 O358 2.351 1_455 S
Dy351 O360 2.398 . S
Dy351 O361 2.491 . S
Dy351 O362 2.403 . S
Dy351 O363 2.664 1_455 S
Dy351 O365 2.326 . S
O352 Dy348 2.398 . S
O352 C350 1.185 . S
O353 Dy348 2.491 . S
O353 C350 1.355 . S
O354 Dy348 2.403 1_455 S
O354 C356 1.254 . S
O355 Dy348 2.664 1_455 S
O355 Dy351 2.310 . S
O355 C356 1.268 . S
C356 O354 1.254 . S
C356 O355 1.268 . S
C357 O362 1.254 1_655 S
C357 O363 1.268 . S
O358 Dy351 2.351 1_655 S
O358 C366 1.249 . S
O359 Dy348 2.326 . S
O359 C366 1.267 . S
O360 C349 1.185 . S
O360 Dy351 2.398 . S
O361 C349 1.355 . S
O361 Dy351 2.491 . S
O362 Dy351 2.403 . S
O362 C357 1.254 1_455 S
O363 Dy348 2.310 . S
O363 Dy351 2.664 1_655 S
O363 C357 1.268 . S
O364 Dy348 2.351 1_455 S
O364 C367 1.249 . S
O365 Dy351 2.326 . S
O365 C367 1.267 . S
C366 O358 1.249 . S
C366 O359 1.267 . S
C367 O364 1.249 . S
C367 O365 1.267 . S
H368 C376 0.950 . S
H369 C381 0.950 . S
H370 C378 0.950 . S
H371 C380 0.950 . S
H372 C382 0.950 . S
H373 C384 0.950 . S
H374 C386 0.950 . S
H375 C387 0.950 . S
C376 H368 0.950 . S
C376 C377 1.389 . S
C376 C378 1.391 . S
C377 C376 1.389 . S
C377 C381 1.390 1_545 S
C378 H370 0.950 . S
C378 C376 1.391 . S
C378 C379 1.400 1_545 S
C379 C378 1.400 1_565 S
C379 C380 1.398 . S
C379 C385 1.491 . S
C380 H371 0.950 . S
C380 C379 1.398 . S
C380 C381 1.391 . S
C381 H369 0.950 . S
C381 C377 1.390 1_565 S
C381 C380 1.391 . S
C382 H372 0.950 . S
C382 C383 1.386 . S
C382 C384 1.391 . S
C383 C382 1.386 . S
C383 C387 1.393 1_565 S
C384 H373 0.950 . S
C384 C382 1.391 . S
C384 C385 1.400 . S
C385 C379 1.491 . S
C385 C384 1.400 . S
C385 C386 1.398 1_565 S
C386 H374 0.950 . S
C386 C385 1.398 1_545 S
C386 C387 1.391 . S
C387 H375 0.950 . S
C387 C383 1.393 1_545 S
C387 C386 1.391 . S
H388 C396 0.950 . S
H389 C401 0.950 . S
H390 C398 0.950 . S
H391 C400 0.950 . S
H392 C402 0.950 . S
H393 C404 0.950 . S
H394 C406 0.950 . S
H395 C407 0.950 . S
C396 H388 0.950 . S
C396 C397 1.386 . S
C396 C398 1.391 . S
C397 C396 1.386 . S
C397 C401 1.393 . S
C398 H390 0.950 . S
C398 C396 1.391 . S
C398 C399 1.400 . S
C399 C398 1.400 . S
C399 C400 1.398 . S
C399 C405 1.491 . S
C400 H391 0.950 . S
C400 C399 1.398 . S
C400 C401 1.391 . S
C401 H389 0.950 . S
C401 C397 1.393 . S
C401 C400 1.391 . S
C402 H392 0.950 . S
C402 C403 1.386 . S
C402 C404 1.391 . S
C403 C402 1.386 . S
C403 C407 1.393 . S
C404 H393 0.950 . S
C404 C402 1.391 . S
C404 C405 1.400 . S
C405 C399 1.491 . S
C405 C404 1.400 . S
C405 C406 1.398 . S
C406 H394 0.950 . S
C406 C405 1.398 . S
C406 C407 1.391 . S
C407 H395 0.950 . S
C407 C403 1.393 . S
C407 C406 1.391 . S
H408 C416 0.950 . S
H409 C421 0.950 . S
H410 C418 0.950 . S
H411 C420 0.950 . S
H412 C422 0.950 . S
H413 C424 0.950 . S
H414 C426 0.950 . S
H415 C427 0.950 . S
C416 H408 0.950 . S
C416 C417 1.386 . S
C416 C418 1.391 . S
C417 C416 1.386 . S
C417 C421 1.393 . S
C418 H410 0.950 . S
C418 C416 1.391 . S
C418 C419 1.400 . S
C419 C418 1.400 . S
C419 C420 1.398 . S
C419 C425 1.491 . S
C420 H411 0.950 . S
C420 C419 1.398 . S
C420 C421 1.391 . S
C421 H409 0.950 . S
C421 C417 1.393 . S
C421 C420 1.391 . S
C422 H412 0.950 . S
C422 C423 1.386 . S
C422 C424 1.391 . S
C423 C422 1.386 . S
C423 C427 1.393 . S
C424 H413 0.950 . S
C424 C422 1.391 . S
C424 C425 1.400 . S
C425 C419 1.491 . S
C425 C424 1.400 . S
C425 C426 1.398 . S
C426 H414 0.950 . S
C426 C425 1.398 . S
C426 C427 1.391 . S
C427 H415 0.950 . S
C427 C423 1.393 . S
C427 C426 1.391 . S
H428 C436 0.950 . S
H429 C441 0.950 . S
H430 C438 0.950 . S
H431 C440 0.950 . S
H432 C442 0.950 . S
H433 C444 0.950 . S
H434 C446 0.950 . S
H435 C447 0.950 . S
C436 H428 0.950 . S
C436 C437 1.386 . S
C436 C438 1.391 . S
C437 C436 1.386 . S
C437 C441 1.393 . S
C438 H430 0.950 . S
C438 C436 1.391 . S
C438 C439 1.400 . S
C439 C438 1.400 . S
C439 C440 1.398 . S
C439 C445 1.491 . S
C440 H431 0.950 . S
C440 C439 1.398 . S
C440 C441 1.391 . S
C441 H429 0.950 . S
C441 C437 1.393 . S
C441 C440 1.391 . S
C442 H432 0.950 . S
C442 C443 1.386 . S
C442 C444 1.391 . S
C443 C442 1.386 . S
C443 C447 1.393 . S
C444 H433 0.950 . S
C444 C442 1.391 . S
C444 C445 1.400 . S
C445 C439 1.491 . S
C445 C444 1.400 . S
C445 C446 1.398 . S
C446 H434 0.950 . S
C446 C445 1.398 . S
C446 C447 1.391 . S
C447 H435 0.950 . S
C447 C443 1.393 . S
C447 C446 1.391 . S
H448 C456 0.950 . S
H449 C461 0.950 . S
H450 C458 0.950 . S
H451 C460 0.950 . S
H452 C462 0.950 . S
H453 C464 0.950 . S
H454 C466 0.950 . S
H455 C467 0.950 . S
C456 H448 0.950 . S
C456 C457 1.386 . S
C456 C458 1.391 . S
C457 C456 1.386 . S
C457 C461 1.393 1_545 S
C458 H450 0.950 . S
C458 C456 1.391 . S
C458 C459 1.400 . S
C459 C458 1.400 . S
C459 C460 1.398 1_545 S
C459 C465 1.491 . S
C460 H451 0.950 . S
C460 C459 1.398 1_565 S
C460 C461 1.391 . S
C461 H449 0.950 . S
C461 C457 1.393 1_565 S
C461 C460 1.391 . S
C462 H452 0.950 . S
C462 C463 1.386 1_565 S
C462 C464 1.391 . S
C463 C462 1.386 1_545 S
C463 C467 1.393 . S
C464 H453 0.950 . S
C464 C462 1.391 . S
C464 C465 1.400 1_565 S
C465 C459 1.491 . S
C465 C464 1.400 1_545 S
C465 C466 1.398 . S
C466 H454 0.950 . S
C466 C465 1.398 . S
C466 C467 1.391 . S
C467 H455 0.950 . S
C467 C463 1.393 . S
C467 C466 1.391 . S
H468 C476 0.950 . S
H469 C481 0.954 . S
H470 C478 0.950 . S
H471 C480 0.950 . S
H472 C482 0.950 . S
H473 C484 0.950 . S
H474 C486 0.950 . S
H475 C487 0.950 . S
C476 H468 0.950 . S
C476 C477 1.386 . S
C476 C478 1.391 . S
C477 C476 1.386 . S
C477 C481 1.393 . S
C478 H470 0.950 . S
C478 C476 1.391 . S
C478 C479 1.400 . S
C479 C478 1.400 . S
C479 C480 1.398 . S
C479 C485 1.491 . S
C480 H471 0.950 . S
C480 C479 1.398 . S
C480 C481 1.391 . S
C481 H469 0.954 . S
C481 C477 1.393 . S
C481 C480 1.391 . S
C482 H472 0.950 . S
C482 C483 1.386 . S
C482 C484 1.391 . S
C483 C482 1.386 . S
C483 C487 1.393 . S
C484 H473 0.950 . S
C484 C482 1.391 . S
C484 C485 1.400 . S
C485 C479 1.491 . S
C485 C484 1.400 . S
C485 C486 1.398 . S
C486 H474 0.950 . S
C486 C485 1.398 . S
C486 C487 1.391 . S
C487 H475 0.950 . S
C487 C483 1.393 . S
C487 C486 1.391 . S
H488 C496 0.950 . S
H489 C501 0.950 . S
H490 C498 0.950 . S
H491 C500 0.950 . S
H492 C502 0.950 . S
H493 C504 0.950 . S
H494 C506 0.950 . S
H495 C507 0.950 . S
C496 H488 0.950 . S
C496 C497 1.386 . S
C496 C498 1.391 . S
C497 C496 1.386 . S
C497 C501 1.393 . S
C498 H490 0.950 . S
C498 C496 1.391 . S
C498 C499 1.400 . S
C499 C498 1.400 . S
C499 C500 1.398 . S
C499 C505 1.491 . S
C500 H491 0.950 . S
C500 C499 1.398 . S
C500 C501 1.391 . S
C501 H489 0.950 . S
C501 C497 1.393 . S
C501 C500 1.391 . S
C502 H492 0.950 . S
C502 C503 1.386 . S
C502 C504 1.391 . S
C503 C502 1.386 . S
C503 C507 1.393 . S
C504 H493 0.950 . S
C504 C502 1.391 . S
C504 C505 1.400 . S
C505 C499 1.491 . S
C505 C504 1.400 . S
C505 C506 1.398 . S
C506 H494 0.950 . S
C506 C505 1.398 . S
C506 C507 1.391 . S
C507 H495 0.950 . S
C507 C503 1.393 . S
C507 C506 1.391 . S
H508 C516 0.950 . S
H509 C521 0.950 . S
H510 C518 0.950 . S
H511 C520 0.950 . S
H512 C522 0.950 1_455 S
H513 C524 0.950 . S
H514 C526 0.950 . S
H515 C527 0.950 . S
C516 H508 0.950 . S
C516 C517 1.386 . S
C516 C518 1.391 . S
C517 C516 1.386 . S
C517 C521 1.393 . S
C518 H510 0.950 . S
C518 C516 1.391 . S
C518 C519 1.400 . S
C519 C518 1.400 . S
C519 C520 1.398 . S
C519 C525 1.491 . S
C520 H511 0.950 . S
C520 C519 1.398 . S
C520 C521 1.391 . S
C521 H509 0.950 . S
C521 C517 1.393 . S
C521 C520 1.391 . S
C522 H512 0.950 1_655 S
C522 C523 1.386 . S
C522 C524 1.391 . S
C523 C522 1.386 . S
C523 C527 1.393 . S
C524 H513 0.950 . S
C524 C522 1.391 . S
C524 C525 1.400 . S
C525 C519 1.491 . S
C525 C524 1.400 . S
C525 C526 1.398 . S
C526 H514 0.950 . S
C526 C525 1.398 . S
C526 C527 1.391 . S
C527 H515 0.950 . S
C527 C523 1.393 . S
C527 C526 1.391 . S
H528 C536 0.950 . S
H529 C541 0.950 . S
H530 C538 0.950 . S
H531 C540 0.950 . S
H532 C542 0.950 . S
H533 C544 0.950 . S
H534 C546 0.950 . S
H535 C547 0.950 . S
C536 H528 0.950 . S
C536 C537 1.386 . S
C536 C538 1.391 . S
C537 C536 1.386 . S
C537 C541 1.393 . S
C538 H530 0.950 . S
C538 C536 1.391 . S
C538 C539 1.400 . S
C539 C538 1.400 . S
C539 C540 1.398 . S
C539 C545 1.491 . S
C540 H531 0.950 . S
C540 C539 1.398 . S
C540 C541 1.391 . S
C541 H529 0.950 . S
C541 C537 1.393 . S
C541 C540 1.391 . S
C542 H532 0.950 . S
C542 C543 1.386 . S
C542 C544 1.391 . S
C543 C542 1.386 . S
C543 C547 1.393 . S
C544 H533 0.950 . S
C544 C542 1.391 . S
C544 C545 1.400 . S
C545 C539 1.491 . S
C545 C544 1.400 . S
C545 C546 1.398 . S
C546 H534 0.950 . S
C546 C545 1.398 . S
C546 C547 1.391 . S
C547 H535 0.950 . S
C547 C543 1.393 . S
C547 C546 1.391 . S
H548 C556 0.950 . S
H549 C561 0.950 . S
H550 C558 0.950 . S
H551 C560 0.950 . S
H552 C562 0.950 . S
H553 C564 0.950 . S
H554 C566 0.950 . S
H555 C567 0.964 . S
C556 H548 0.950 . S
C556 C557 1.392 . S
C556 C558 1.391 . S
C557 C556 1.392 . S
C557 C561 1.383 1_545 S
C558 H550 0.950 . S
C558 C556 1.391 . S
C558 C559 1.400 1_545 S
C559 C558 1.400 1_565 S
C559 C560 1.398 . S
C559 C565 1.491 . S
C560 H551 0.950 . S
C560 C559 1.398 . S
C560 C561 1.391 . S
C561 H549 0.950 . S
C561 C557 1.383 1_565 S
C561 C560 1.391 . S
C562 H552 0.950 . S
C562 C563 1.386 . S
C562 C564 1.391 . S
C563 C562 1.386 . S
C563 C567 1.371 1_565 S
C564 H553 0.950 . S
C564 C562 1.391 . S
C564 C565 1.400 . S
C565 C559 1.491 . S
C565 C564 1.400 . S
C565 C566 1.398 1_565 S
C566 H554 0.950 . S
C566 C565 1.398 1_545 S
C566 C567 1.400 . S
C567 H555 0.964 . S
C567 C563 1.371 1_545 S
C567 C566 1.400 . S
H568 C576 0.950 . S
H569 C581 0.950 . S
H570 C578 0.950 . S
H571 C580 0.950 . S
H572 C582 0.950 . S
H573 C584 0.950 . S
H574 C586 0.950 . S
H575 C587 0.950 . S
C576 H568 0.950 . S
C576 C577 1.386 . S
C576 C578 1.391 . S
C577 C576 1.386 . S
C577 C581 1.393 . S
C578 H570 0.950 . S
C578 C576 1.391 . S
C578 C579 1.400 . S
C579 C578 1.400 . S
C579 C580 1.398 . S
C579 C585 1.491 . S
C580 H571 0.950 . S
C580 C579 1.398 . S
C580 C581 1.391 . S
C581 H569 0.950 . S
C581 C577 1.393 . S
C581 C580 1.391 . S
C582 H572 0.950 . S
C582 C583 1.386 . S
C582 C584 1.391 . S
C583 C582 1.386 . S
C583 C587 1.393 . S
C584 H573 0.950 . S
C584 C582 1.391 . S
C584 C585 1.400 . S
C585 C579 1.491 . S
C585 C584 1.400 . S
C585 C586 1.398 . S
C586 H574 0.950 . S
C586 C585 1.398 . S
C586 C587 1.391 . S
C587 H575 0.950 . S
C587 C583 1.393 . S
C587 C586 1.391 . S
H588 C596 0.950 . S
H589 C601 0.950 . S
H590 C598 0.950 . S
H591 C600 0.950 . S
H592 C602 0.950 . S
H593 C604 0.950 . S
H594 C606 0.950 . S
H595 C607 0.950 . S
C596 H588 0.950 . S
C596 C597 1.386 . S
C596 C598 1.391 . S
C597 C596 1.386 . S
C597 C601 1.393 . S
C598 H590 0.950 . S
C598 C596 1.391 . S
C598 C599 1.400 . S
C599 C598 1.400 . S
C599 C600 1.398 . S
C599 C605 1.491 . S
C600 H591 0.950 . S
C600 C599 1.398 . S
C600 C601 1.391 . S
C601 H589 0.950 . S
C601 C597 1.393 . S
C601 C600 1.391 . S
C602 H592 0.950 . S
C602 C603 1.386 . S
C602 C604 1.391 . S
C603 C602 1.386 . S
C603 C607 1.393 . S
C604 H593 0.950 . S
C604 C602 1.391 . S
C604 C605 1.400 . S
C605 C599 1.491 . S
C605 C604 1.400 . S
C605 C606 1.398 . S
C606 H594 0.950 . S
C606 C605 1.398 . S
C606 C607 1.391 . S
C607 H595 0.950 . S
C607 C603 1.393 . S
C607 C606 1.391 . S
H608 C616 0.950 . S
H609 C621 0.950 . S
H610 C618 0.950 . S
H611 C620 0.950 . S
H612 C622 0.950 . S
H613 C624 0.950 . S
H614 C626 0.950 . S
H615 C627 0.950 . S
C616 H608 0.950 . S
C616 C617 1.386 . S
C616 C618 1.391 . S
C617 C616 1.386 . S
C617 C621 1.393 . S
C618 H610 0.950 . S
C618 C616 1.391 . S
C618 C619 1.400 . S
C619 C618 1.400 . S
C619 C620 1.398 . S
C619 C625 1.491 . S
C620 H611 0.950 . S
C620 C619 1.398 . S
C620 C621 1.391 . S
C621 H609 0.950 . S
C621 C617 1.393 . S
C621 C620 1.391 . S
C622 H612 0.950 . S
C622 C623 1.386 . S
C622 C624 1.391 . S
C623 C622 1.386 . S
C623 C627 1.393 . S
C624 H613 0.950 . S
C624 C622 1.391 . S
C624 C625 1.400 . S
C625 C619 1.491 . S
C625 C624 1.400 . S
C625 C626 1.398 . S
C626 H614 0.950 . S
C626 C625 1.398 . S
C626 C627 1.391 . S
C627 H615 0.950 . S
C627 C623 1.393 . S
C627 C626 1.391 . S
H628 C636 0.950 . S
H629 C641 0.950 . S
H630 C638 0.950 . S
H631 C640 0.950 . S
H632 C642 0.950 . S
H633 C644 0.950 . S
H634 C646 0.950 . S
H635 C647 0.950 . S
C636 H628 0.950 . S
C636 C637 1.386 1_545 S
C636 C638 1.391 . S
C637 C636 1.386 1_565 S
C637 C641 1.393 . S
C638 H630 0.950 . S
C638 C636 1.391 . S
C638 C639 1.400 . S
C639 C638 1.400 . S
C639 C640 1.398 1_545 S
C639 C645 1.491 . S
C640 H631 0.950 . S
C640 C639 1.398 1_565 S
C640 C641 1.391 . S
C641 H629 0.950 . S
C641 C637 1.393 . S
C641 C640 1.391 . S
C642 H632 0.950 . S
C642 C643 1.386 1_565 S
C642 C644 1.391 . S
C643 C642 1.386 1_545 S
C643 C647 1.393 . S
C644 H633 0.950 . S
C644 C642 1.391 . S
C644 C645 1.400 1_565 S
C645 C639 1.491 . S
C645 C644 1.400 1_545 S
C645 C646 1.398 . S
C646 H634 0.950 . S
C646 C645 1.398 . S
C646 C647 1.391 . S
C647 H635 0.950 . S
C647 C643 1.393 . S
C647 C646 1.391 . S
H648 C656 0.950 . S
H649 C661 0.950 . S
H650 C658 0.950 . S
H651 C660 0.950 . S
H652 C662 0.950 . S
H653 C664 0.950 . S
H654 C666 0.950 . S
H655 C667 0.950 . S
C656 H648 0.950 . S
C656 C657 1.386 . S
C656 C658 1.391 . S
C657 C656 1.386 . S
C657 C661 1.393 . S
C658 H650 0.950 . S
C658 C656 1.391 . S
C658 C659 1.400 . S
C659 C658 1.400 . S
C659 C660 1.398 . S
C659 C665 1.491 . S
C660 H651 0.950 . S
C660 C659 1.398 . S
C660 C661 1.391 . S
C661 H649 0.950 . S
C661 C657 1.393 . S
C661 C660 1.391 . S
C662 H652 0.950 . S
C662 C663 1.386 . S
C662 C664 1.391 . S
C663 C662 1.386 . S
C663 C667 1.393 . S
C664 H653 0.950 . S
C664 C662 1.391 . S
C664 C665 1.400 . S
C665 C659 1.491 . S
C665 C664 1.400 . S
C665 C666 1.398 . S
C666 H654 0.950 . S
C666 C665 1.398 . S
C666 C667 1.391 . S
C667 H655 0.950 . S
C667 C663 1.393 . S
C667 C666 1.391 . S
H668 C676 0.950 . S
H669 C681 0.950 . S
H670 C678 0.950 . S
H671 C680 0.950 . S
H672 C682 0.950 . S
H673 C684 0.950 . S
H674 C686 0.950 . S
H675 C687 0.950 . S
C676 H668 0.950 . S
C676 C677 1.386 . S
C676 C678 1.391 . S
C677 C676 1.386 . S
C677 C681 1.393 . S
C678 H670 0.950 . S
C678 C676 1.391 . S
C678 C679 1.400 . S
C679 C678 1.400 . S
C679 C680 1.398 . S
C679 C685 1.491 . S
C680 H671 0.950 . S
C680 C679 1.398 . S
C680 C681 1.391 . S
C681 H669 0.950 . S
C681 C677 1.393 . S
C681 C680 1.391 . S
C682 H672 0.950 . S
C682 C683 1.386 . S
C682 C684 1.391 . S
C683 C682 1.386 . S
C683 C687 1.393 . S
C684 H673 0.950 . S
C684 C682 1.391 . S
C684 C685 1.400 . S
C685 C679 1.491 . S
C685 C684 1.400 . S
C685 C686 1.398 . S
C686 H674 0.950 . S
C686 C685 1.398 . S
C686 C687 1.391 . S
C687 H675 0.950 . S
C687 C683 1.393 . S
C687 C686 1.391 . S
H688 C696 0.950 . S
H689 C701 0.950 . S
H690 C698 0.950 . S
H691 C700 0.950 . S
H692 C702 0.950 . S
H693 C704 0.950 . S
H694 C706 0.950 . S
H695 C707 0.950 . S
C696 H688 0.950 . S
C696 C697 1.386 . S
C696 C698 1.391 . S
C697 C696 1.386 . S
C697 C701 1.393 . S
C698 H690 0.950 . S
C698 C696 1.391 . S
C698 C699 1.400 . S
C699 C698 1.400 . S
C699 C700 1.398 . S
C699 C705 1.491 . S
C700 H691 0.950 . S
C700 C699 1.398 . S
C700 C701 1.391 . S
C701 H689 0.950 . S
C701 C697 1.393 . S
C701 C700 1.391 . S
C702 H692 0.950 . S
C702 C703 1.386 . S
C702 C704 1.391 . S
C703 C702 1.386 . S
C703 C707 1.393 . S
C704 H693 0.950 . S
C704 C702 1.391 . S
C704 C705 1.400 . S
C705 C699 1.491 . S
C705 C704 1.400 . S
C705 C706 1.398 . S
C706 H694 0.950 . S
C706 C705 1.398 . S
C706 C707 1.391 . S
C707 H695 0.950 . S
C707 C703 1.393 . S
C707 C706 1.391 . S
H708 C716 0.950 . S
H709 C721 0.950 . S
H710 C718 0.950 . S
H711 C720 0.950 . S
H712 C722 0.950 . S
H713 C724 0.950 . S
H714 C726 0.950 . S
H715 C727 0.950 . S
C716 H708 0.950 . S
C716 C717 1.386 1_565 S
C716 C718 1.391 . S
C717 C716 1.386 1_545 S
C717 C721 1.393 . S
C718 H710 0.950 . S
C718 C716 1.391 . S
C718 C719 1.400 1_565 S
C719 C718 1.400 1_545 S
C719 C720 1.398 . S
C719 C725 1.491 . S
C720 H711 0.950 . S
C720 C719 1.398 . S
C720 C721 1.391 . S
C721 H709 0.950 . S
C721 C717 1.393 . S
C721 C720 1.391 . S
C722 H712 0.950 . S
C722 C723 1.386 . S
C722 C724 1.391 . S
C723 C722 1.386 . S
C723 C727 1.393 1_545 S
C724 H713 0.950 . S
C724 C722 1.391 . S
C724 C725 1.400 . S
C725 C719 1.491 . S
C725 C724 1.400 . S
C725 C726 1.398 1_545 S
C726 H714 0.950 . S
C726 C725 1.398 1_565 S
C726 C727 1.391 . S
C727 H715 0.950 . S
C727 C723 1.393 1_565 S
C727 C726 1.391 . S
H728 C736 0.950 . S
H729 C741 0.950 . S
H730 C738 0.950 . S
H731 C740 0.950 . S
H732 C742 0.950 . S
H733 C744 0.950 . S
H734 C746 0.950 . S
H735 C747 0.950 . S
C736 H728 0.950 . S
C736 C737 1.386 . S
C736 C738 1.391 . S
C737 C736 1.386 . S
C737 C741 1.393 . S
C738 H730 0.950 . S
C738 C736 1.391 . S
C738 C739 1.400 . S
C739 C738 1.400 . S
C739 C740 1.398 . S
C739 C745 1.491 . S
C740 H731 0.950 . S
C740 C739 1.398 . S
C740 C741 1.391 . S
C741 H729 0.950 . S
C741 C737 1.393 . S
C741 C740 1.391 . S
C742 H732 0.950 . S
C742 C743 1.386 . S
C742 C744 1.391 . S
C743 C742 1.386 . S
C743 C747 1.393 . S
C744 H733 0.950 . S
C744 C742 1.391 . S
C744 C745 1.400 . S
C745 C739 1.491 . S
C745 C744 1.400 . S
C745 C746 1.398 . S
C746 H734 0.950 . S
C746 C745 1.398 . S
C746 C747 1.391 . S
C747 H735 0.950 . S
C747 C743 1.393 . S
C747 C746 1.391 . S
H748 C756 0.950 . S
H749 C761 0.950 . S
H750 C758 0.950 . S
H751 C760 0.950 . S
H752 C762 0.950 . S
H753 C764 0.950 . S
H754 C766 0.950 . S
H755 C767 0.950 . S
C756 H748 0.950 . S
C756 C757 1.386 . S
C756 C758 1.391 . S
C757 C756 1.386 . S
C757 C761 1.393 . S
C758 H750 0.950 . S
C758 C756 1.391 . S
C758 C759 1.400 . S
C759 C758 1.400 . S
C759 C760 1.398 . S
C759 C765 1.491 . S
C760 H751 0.950 . S
C760 C759 1.398 . S
C760 C761 1.391 . S
C761 H749 0.950 . S
C761 C757 1.393 . S
C761 C760 1.391 . S
C762 H752 0.950 . S
C762 C763 1.386 . S
C762 C764 1.391 . S
C763 C762 1.386 . S
C763 C767 1.393 . S
C764 H753 0.950 . S
C764 C762 1.391 . S
C764 C765 1.400 . S
C765 C759 1.491 . S
C765 C764 1.400 . S
C765 C766 1.398 . S
C766 H754 0.950 . S
C766 C765 1.398 . S
C766 C767 1.391 . S
C767 H755 0.950 . S
C767 C763 1.393 . S
C767 C766 1.391 . S
H768 C776 0.950 . S
H769 C781 0.950 . S
H770 C778 0.950 . S
H771 C780 0.950 . S
H772 C782 0.950 1_455 S
H773 C784 0.950 . S
H774 C786 0.950 . S
H775 C787 0.950 . S
C776 H768 0.950 . S
C776 C777 1.386 . S
C776 C778 1.391 . S
C777 C776 1.386 . S
C777 C781 1.393 . S
C778 H770 0.950 . S
C778 C776 1.391 . S
C778 C779 1.400 . S
C779 C778 1.400 . S
C779 C780 1.398 . S
C779 C785 1.491 . S
C780 H771 0.950 . S
C780 C779 1.398 . S
C780 C781 1.391 . S
C781 H769 0.950 . S
C781 C777 1.393 . S
C781 C780 1.391 . S
C782 H772 0.950 1_655 S
C782 C783 1.386 . S
C782 C784 1.391 . S
C783 C782 1.386 . S
C783 C787 1.393 . S
C784 H773 0.950 . S
C784 C782 1.391 . S
C784 C785 1.400 . S
C785 C779 1.491 . S
C785 C784 1.400 . S
C785 C786 1.398 . S
C786 H774 0.950 . S
C786 C785 1.398 . S
C786 C787 1.391 . S
C787 H775 0.950 . S
C787 C783 1.393 . S
C787 C786 1.391 . S
H788 C796 0.950 . S
H789 C801 0.950 . S
H790 C798 0.950 . S
H791 C800 0.950 . S
H792 C802 0.950 . S
H793 C804 0.950 . S
H794 C806 0.950 . S
H795 C807 0.950 . S
C796 H788 0.950 . S
C796 C797 1.411 . S
C796 C798 1.391 . S
C797 C796 1.411 . S
C797 C801 1.365 1_565 S
C798 H790 0.950 . S
C798 C796 1.391 . S
C798 C799 1.400 . S
C799 C798 1.400 . S
C799 C800 1.398 1_565 S
C799 C805 1.491 . S
C800 H791 0.950 . S
C800 C799 1.398 1_545 S
C800 C801 1.391 . S
C801 H789 0.950 . S
C801 C797 1.365 1_545 S
C801 C800 1.391 . S
C802 H792 0.950 . S
C802 C803 1.386 1_545 S
C802 C804 1.391 . S
C803 C802 1.386 1_565 S
C803 C807 1.393 . S
C804 H793 0.950 . S
C804 C802 1.391 . S
C804 C805 1.400 1_545 S
C805 C799 1.491 . S
C805 C804 1.400 1_565 S
C805 C806 1.398 . S
C806 H794 0.950 . S
C806 C805 1.398 . S
C806 C807 1.391 . S
C807 H795 0.950 . S
C807 C803 1.393 . S
C807 C806 1.391 . S
H808 C816 0.950 . S
H809 C821 0.950 . S
H810 C818 0.950 . S
H811 C820 0.950 . S
H812 C822 0.950 . S
H813 C824 0.950 . S
H814 C826 0.950 . S
H815 C827 0.950 . S
C816 H808 0.950 . S
C816 C817 1.386 . S
C816 C818 1.391 . S
C817 C816 1.386 . S
C817 C821 1.393 . S
C818 H810 0.950 . S
C818 C816 1.391 . S
C818 C819 1.400 . S
C819 C818 1.400 . S
C819 C820 1.398 . S
C819 C825 1.491 . S
C820 H811 0.950 . S
C820 C819 1.398 . S
C820 C821 1.391 . S
C821 H809 0.950 . S
C821 C817 1.393 . S
C821 C820 1.391 . S
C822 H812 0.950 . S
C822 C823 1.386 . S
C822 C824 1.391 . S
C823 C822 1.386 . S
C823 C827 1.393 . S
C824 H813 0.950 . S
C824 C822 1.391 . S
C824 C825 1.400 . S
C825 C819 1.491 . S
C825 C824 1.400 . S
C825 C826 1.398 . S
C826 H814 0.950 . S
C826 C825 1.398 . S
C826 C827 1.391 . S
C827 H815 0.950 . S
C827 C823 1.393 . S
C827 C826 1.391 . S
H828 C836 0.950 . S
H829 C841 0.950 . S
H830 C838 0.950 . S
H831 C840 0.950 . S
H832 C842 0.950 . S
H833 C844 0.950 . S
H834 C846 0.950 . S
H835 C847 0.950 . S
C836 H828 0.950 . S
C836 C837 1.386 . S
C836 C838 1.391 . S
C837 C836 1.386 . S
C837 C841 1.393 . S
C838 H830 0.950 . S
C838 C836 1.391 . S
C838 C839 1.400 . S
C839 C838 1.400 . S
C839 C840 1.398 . S
C839 C845 1.491 . S
C840 H831 0.950 . S
C840 C839 1.398 . S
C840 C841 1.391 . S
C841 H829 0.950 . S
C841 C837 1.393 . S
C841 C840 1.391 . S
C842 H832 0.950 . S
C842 C843 1.386 . S
C842 C844 1.391 . S
C843 C842 1.386 . S
C843 C847 1.393 . S
C844 H833 0.950 . S
C844 C842 1.391 . S
C844 C845 1.400 . S
C845 C839 1.491 . S
C845 C844 1.400 . S
C845 C846 1.398 . S
C846 H834 0.950 . S
C846 C845 1.398 . S
C846 C847 1.391 . S
C847 H835 0.950 . S
C847 C843 1.393 . S
C847 C846 1.391 . S
C377 C241 1.681 . S
C383 C296 1.772 . S
C403 C326 2.403 . S
C397 C277 2.255 . S
C423 C336 1.855 . S
C417 C169 1.729 . S
C443 C356 1.760 . S
C437 C205 1.635 . S
C463 C297 1.776 . S
C457 C97 1.674 . S
C477 C133 2.328 1_556 S
C483 C327 2.400 . S
C497 C25 1.763 . S
C503 C337 1.860 . S
C517 C61 1.571 . S
C523 C357 1.760 . S
C543 C289 0.798 . S
C537 C211 0.805 . S
C563 C310 0.331 . S
C557 C247 0.440 . S
C583 C329 1.080 . S
C577 C253 1.005 . S
C597 C175 0.583 . S
C603 C349 0.536 . S
C617 C67 0.748 . S
C623 C290 0.776 1_655 S
C643 C309 0.342 . S
C637 C103 0.487 1_565 S
C663 C330 1.060 . S
C657 C109 1.041 . S
C677 C31 0.553 . S
C683 C350 0.544 . S
C697 C181 2.303 . S
C703 C307 2.462 . S
C717 C217 1.802 . S
C723 C317 1.989 . S
C743 C347 2.669 . S
C737 C283 2.362 . S
C763 C367 2.526 . S
C757 C145 2.331 . S
C777 C37 2.272 . S
C783 C306 2.477 . S
C803 C316 1.988 . S
C797 C73 1.809 1_565 S
C823 C346 2.670 . S
C817 C139 2.426 . S
C837 C1 2.380 . S
C843 C366 2.530 . S
