# Generated by pormake.
# Topology zzz, (3,6)-cn, num edge types: 1
# Building blocks:
#     Node 0, Type 0, BuildingBlock: BETDIP_clean_linker_0, # of connection points: 3
#     Node 1, Type 0, BuildingBlock: BETDIP_clean_linker_0, # of connection points: 3
#     Node 2, Type 0, BuildingBlock: BETDIP_clean_linker_0, # of connection points: 3
#     Node 3, Type 0, BuildingBlock: BETDIP_clean_linker_0, # of connection points: 3
#     Node 4, Type 0, BuildingBlock: BETDIP_clean_linker_0, # of connection points: 3
#     Node 5, Type 0, BuildingBlock: BETDIP_clean_linker_0, # of connection points: 3
#     Node 6, Type 0, BuildingBlock: BETDIP_clean_linker_0, # of connection points: 3
#     Node 7, Type 0, BuildingBlock: BETDIP_clean_linker_0, # of connection points: 3
#     Node 8, Type 1, BuildingBlock: PAMTUU_clean_sbu_0, # of connection points: 6
#     Node 9, Type 1, BuildingBlock: PAMTUU_clean_sbu_0, # of connection points: 6
#     Node 10, Type 1, BuildingBlock: PAMTUU_clean_sbu_0, # of connection points: 6
#     Node 11, Type 1, BuildingBlock: PAMTUU_clean_sbu_0, # of connection points: 6
#     Edge 12, Type (0, 1), BuildingBlock: OJICUG_clean_linker_0, # of connection points: 2
#     Edge 13, Type (0, 1), BuildingBlock: OJICUG_clean_linker_0, # of connection points: 2
#     Edge 14, Type (0, 1), BuildingBlock: OJICUG_clean_linker_0, # of connection points: 2
#     Edge 15, Type (0, 1), BuildingBlock: OJICUG_clean_linker_0, # of connection points: 2
#     Edge 16, Type (0, 1), BuildingBlock: OJICUG_clean_linker_0, # of connection points: 2
#     Edge 17, Type (0, 1), BuildingBlock: OJICUG_clean_linker_0, # of connection points: 2
#     Edge 18, Type (0, 1), BuildingBlock: OJICUG_clean_linker_0, # of connection points: 2
#     Edge 19, Type (0, 1), BuildingBlock: OJICUG_clean_linker_0, # of connection points: 2
#     Edge 20, Type (0, 1), BuildingBlock: OJICUG_clean_linker_0, # of connection points: 2
#     Edge 21, Type (0, 1), BuildingBlock: OJICUG_clean_linker_0, # of connection points: 2
#     Edge 22, Type (0, 1), BuildingBlock: OJICUG_clean_linker_0, # of connection points: 2
#     Edge 23, Type (0, 1), BuildingBlock: OJICUG_clean_linker_0, # of connection points: 2
#     Edge 24, Type (0, 1), BuildingBlock: OJICUG_clean_linker_0, # of connection points: 2
#     Edge 25, Type (0, 1), BuildingBlock: OJICUG_clean_linker_0, # of connection points: 2
#     Edge 26, Type (0, 1), BuildingBlock: OJICUG_clean_linker_0, # of connection points: 2
#     Edge 27, Type (0, 1), BuildingBlock: OJICUG_clean_linker_0, # of connection points: 2
#     Edge 28, Type (0, 1), BuildingBlock: OJICUG_clean_linker_0, # of connection points: 2
#     Edge 29, Type (0, 1), BuildingBlock: OJICUG_clean_linker_0, # of connection points: 2
#     Edge 30, Type (0, 1), BuildingBlock: OJICUG_clean_linker_0, # of connection points: 2
#     Edge 31, Type (0, 1), BuildingBlock: OJICUG_clean_linker_0, # of connection points: 2
#     Edge 32, Type (0, 1), BuildingBlock: OJICUG_clean_linker_0, # of connection points: 2
#     Edge 33, Type (0, 1), BuildingBlock: OJICUG_clean_linker_0, # of connection points: 2
#     Edge 34, Type (0, 1), BuildingBlock: OJICUG_clean_linker_0, # of connection points: 2
#     Edge 35, Type (0, 1), BuildingBlock: OJICUG_clean_linker_0, # of connection points: 2
# Relax obj value: 0.281
# Max RMSD: 0.251
# Mean RMSD: 0.114
data_MOF--net-zzz--node1-PAMTUU_clean_sbu_0--node2-BETDIP_clean_linker_0--edge1-OJICUG_clean_linker_0
_symmetry_space_group_name_H-M    P1
_symmetry_Int_Tables_number       1
_symmetry_cell_setting            triclinic
loop_
_symmetry_equiv_pos_as_xyz
'x, y, z'
_cell_length_a     35.449874
_cell_length_b     40.031011
_cell_length_c     11.78383
_cell_angle_alpha  103.18542
_cell_angle_beta   89.729459
_cell_angle_gamma 90.22153
loop_
_atom_site_label
_atom_site_type_symbol
_atom_site_fract_x
_atom_site_fract_y
_atom_site_fract_z
_atom_type_partial_charge
H0 H 0.80815 0.50539 0.58046 0.0
H1 H 0.76746 0.59723 0.49108 0.0
H2 H 0.86678 0.60031 0.70208 0.0
H3 H 0.70678 0.56337 0.54683 0.0
C4 C 0.71561 0.5451 0.46828 0.0
C5 C 0.80992 0.53286 0.58895 0.0
C6 C 0.8395 0.55189 0.65443 0.0
C7 C 0.78239 0.54977 0.53535 0.0
C8 C 0.78678 0.585 0.53978 0.0
C9 C 0.81878 0.6031 0.59124 0.0
C10 C 0.84239 0.58698 0.65843 0.0
N11 N 0.75274 0.53113 0.46605 0.0
H12 H 1.04248 0.79199 0.46259 0.0
H13 H 0.12763 0.76738 0.19463 0.0
H14 H 0.13272 0.86278 0.45014 0.0
H15 H 0.0724 0.74649 0.08825 0.0
C16 C 0.06422 0.73061 0.14784 0.0
C17 C 0.06847 0.79833 0.42349 0.0
C18 C 0.08745 0.82923 0.47212 0.0
C19 C 0.08265 0.77609 0.322 0.0
C20 C 0.11625 0.78469 0.27127 0.0
C21 C 0.13442 0.81611 0.31526 0.0
C22 C 0.12017 0.83772 0.41738 0.0
N23 N 0.06273 0.74549 0.27003 0.0
H24 H 0.81623 0.03667 0.59265 0.0
H25 H 0.8531 0.94281 0.36261 0.0
H26 H 0.75156 0.94467 0.56421 0.0
H27 H 0.9151 0.96933 0.44813 0.0
C28 C 0.90805 0.99118 0.41197 0.0
C29 C 0.81334 1.00922 0.56014 0.0
C30 C 0.78135 0.99188 0.59184 0.0
C31 C 0.84113 0.99075 0.48335 0.0
C32 C 0.83439 0.95595 0.43118 0.0
C33 C 0.80033 0.93999 0.45081 0.0
C34 C 0.77725 0.95682 0.54343 0.0
N35 N 0.87261 1.00791 0.44442 0.0
H36 H 0.58437 0.79849 0.36403 0.0
H37 H 0.5174 0.75599 0.05886 0.0
H38 H 0.53417 0.69876 0.32016 0.0
H39 H 0.50616 0.8111 0.05979 0.0
C40 C 0.53189 0.82509 0.08961 0.0
C41 C 0.56623 0.77851 0.31527 0.0
C42 C 0.56022 0.74825 0.35507 0.0
C43 C 0.5489 0.78274 0.21138 0.0
C44 C 0.52788 0.75498 0.14406 0.0
C45 C 0.52201 0.72479 0.18419 0.0
C46 C 0.53711 0.72255 0.29127 0.0
N47 N 0.55485 0.81401 0.17355 0.0
H48 H 0.305 0.52912 0.24113 0.0
H49 H 0.34576 0.43459 0.31159 0.0
H50 H 0.24323 0.4358 0.11987 0.0
H51 H 0.34159 0.48014 0.49942 0.0
C52 C 0.36455 0.4934 0.46632 0.0
C53 C 0.30324 0.50148 0.22761 0.0
C54 C 0.27202 0.48358 0.16711 0.0
C55 C 0.33061 0.48356 0.27841 0.0
C56 C 0.32602 0.44803 0.26806 0.0
C57 C 0.29328 0.43094 0.21909 0.0
C58 C 0.26873 0.4483 0.15895 0.0
N59 N 0.35926 0.50135 0.35489 0.0
H60 H 1.04588 0.26388 0.23228 0.0
H61 H 0.95556 0.27914 0.48504 0.0
H62 H 0.96719 0.18279 0.23894 0.0
H63 H 0.96264 0.33461 0.47217 0.0
C64 C 0.99313 0.33592 0.48176 0.0
C65 C 1.02035 0.25492 0.26678 0.0
C66 C 1.00702 0.22145 0.22042 0.0
C67 C 1.00093 0.27658 0.35962 0.0
C68 C 0.96921 0.26371 0.4087 0.0
C69 C 0.95696 0.2298 0.36706 0.0
C70 C 0.97518 0.2095 0.26973 0.0
N71 N 1.01566 0.30979 0.41099 0.0
H72 H 0.30626 0.0432 0.2047 0.0
H73 H 0.27102 0.95415 0.32725 0.0
H74 H 0.37144 0.95056 0.12119 0.0
H75 H 0.21246 0.97491 0.29069 0.0
C76 C 0.2166 1.00078 0.34169 0.0
C77 C 0.30983 0.01651 0.20701 0.0
C78 C 0.34135 0.99791 0.15038 0.0
C79 C 0.28287 1.00021 0.26654 0.0
C80 C 0.28941 0.96611 0.27436 0.0
C81 C 0.32134 0.94812 0.22351 0.0
C82 C 0.34594 0.96377 0.15759 0.0
N83 N 0.25082 0.01839 0.32531 0.0
H84 H 0.50693 0.24038 0.48594 0.0
H85 H 0.57925 0.28108 0.78142 0.0
H86 H 0.54777 0.34373 0.54703 0.0
H87 H 0.558 0.23607 0.84681 0.0
C88 C 0.55176 0.21527 0.77245 0.0
C89 C 0.52392 0.26094 0.53678 0.0
C90 C 0.52568 0.29276 0.50527 0.0
C91 C 0.54351 0.25594 0.63606 0.0
C92 C 0.56451 0.28372 0.70387 0.0
C93 C 0.5667 0.31532 0.67016 0.0
C94 C 0.54764 0.31901 0.57057 0.0
N95 N 0.54154 0.22289 0.66381 0.0
Tb96 Tb 1.01763 0.02717 0.79463 0.0
Tb97 Tb 0.09261 0.02169 0.94657 0.0
C98 C 1.01157 0.01618 0.05109 0.0
C99 C 0.94745 0.06879 0.65162 0.0
C100 C 0.92451 0.1309 0.6015 0.0
C101 C 0.89787 0.10499 0.60372 0.0
C102 C 0.90926 0.07426 0.63111 0.0
C103 C 0.97381 0.09482 0.6502 0.0
C104 C 0.96246 0.12556 0.62596 0.0
C105 C 0.96021 0.03697 0.68039 0.0
O106 O 1.03897 0.0795 0.85227 0.0
O107 O 0.07349 0.0741 0.01175 0.0
O108 O 0.10996 0.04495 0.80464 0.0
O109 O 0.06638 0.01758 0.67593 0.0
O110 O 0.123 0.02417 0.10122 0.0
O111 O 0.15031 0.00993 0.93327 0.0
O112 O 0.08401 0.97158 0.83018 0.0
O113 O 1.02113 0.97242 0.78608 0.0
O114 O 0.99869 0.03248 0.97455 0.0
O115 O 1.04603 1.00354 0.04111 0.0
C116 C 0.05536 0.09306 0.95229 0.0
O117 O 0.99198 0.02482 0.63261 0.0
O118 O 0.9595 0.03722 0.79076 0.0
C119 C 0.09988 0.03186 0.69694 0.0
C120 C 0.1635 0.9765 0.06427 0.0
C121 C 0.1819 0.9106 0.09042 0.0
C122 C 0.21068 0.93326 0.07414 0.0
C123 C 0.20141 0.96608 0.05926 0.0
C124 C 0.13499 0.95326 0.07654 0.0
C125 C 0.14409 0.92078 0.0899 0.0
C126 C 0.15248 0.00978 0.04322 0.0
C127 C 0.05285 0.95572 0.78793 0.0
H128 H 0.86852 0.10851 0.58424 0.0
H129 H 0.88842 0.05484 0.63615 0.0
H130 H 1.00338 0.0913 0.66682 0.0
H131 H 0.98378 0.14476 0.62221 0.0
H132 H 0.24 0.92586 0.07527 0.0
H133 H 0.22369 0.98345 0.04638 0.0
H134 H 0.1055 0.96025 0.07642 0.0
H135 H 0.1214 0.90389 0.10371 0.0
Tb136 Tb 0.54565 0.99496 0.74257 0.0
Tb137 Tb 0.57548 0.02361 1.00423 0.0
C138 C 0.55781 0.94768 0.90976 0.0
C139 C 0.5005 0.93862 0.48661 0.0
C140 C 0.43775 0.89886 0.39293 0.0
C141 C 0.46248 0.91238 0.32028 0.0
C142 C 0.49351 0.9322 0.36706 0.0
C143 C 0.47878 0.92202 0.55717 0.0
C144 C 0.44785 0.9019 0.51029 0.0
C145 C 0.52861 0.96445 0.53785 0.0
O146 O 0.49217 1.00672 0.83741 0.0
O147 O 0.51394 0.02616 0.02566 0.0
O148 O 0.55954 0.07113 0.95481 0.0
O149 O 0.55328 0.04995 0.75559 0.0
O150 O 0.57014 0.01308 0.17039 0.0
O151 O 0.61204 0.04895 0.13689 0.0
O152 O 0.62552 0.03011 0.90369 0.0
O153 O 0.60769 0.99493 0.73053 0.0
O154 O 0.53279 0.95663 0.84188 0.0
O155 O 0.58579 0.96869 0.94397 0.0
C156 C 0.48605 0.01828 0.95028 0.0
O157 O 0.51538 0.99455 0.58949 0.0
O158 O 0.55459 0.95396 0.59941 0.0
C159 C 0.55523 0.07582 0.84794 0.0
C160 C 0.63195 1.00324 0.21739 0.0
C161 C 0.68262 0.94982 0.22967 0.0
C162 C 0.67803 0.96056 0.12536 0.0
C163 C 0.65347 0.98714 0.11996 0.0
C164 C 0.63468 0.9915 0.32016 0.0
C165 C 0.66013 0.96524 0.32678 0.0
C166 C 0.60256 0.02765 0.20152 0.0
C167 C 0.63339 0.01353 0.79714 0.0
H168 H 0.45594 0.91085 0.22958 0.0
H169 H 0.51053 0.94438 0.31118 0.0
H170 H 0.48438 0.92624 0.64968 0.0
H171 H 0.42998 0.89128 0.56814 0.0
H172 H 0.69394 0.9489 0.04788 0.0
H173 H 0.65094 0.99467 0.03807 0.0
H174 H 0.61721 1.00257 0.39482 0.0
H175 H 0.66305 0.95796 0.40928 0.0
Tb176 Tb 0.51898 0.5089 0.02525 0.0
Tb177 Tb 0.57995 0.53261 0.84553 0.0
C178 C 0.49711 0.51084 0.76841 0.0
C179 C 0.47705 0.45193 0.1967 0.0
C180 C 0.48093 0.38735 0.25703 0.0
C181 C 0.44591 0.40351 0.2517 0.0
C182 C 0.44402 0.43543 0.22145 0.0
C183 C 0.51196 0.43607 0.20274 0.0
C184 C 0.5139 0.40428 0.23267 0.0
C185 C 0.47495 0.48405 0.15519 0.0
O186 O 0.55829 0.46681 0.97464 0.0
O187 O 0.58225 0.47636 0.80239 0.0
O188 O 0.61394 0.52041 0.98546 0.0
O189 O 0.56818 0.53128 0.12707 0.0
O190 O 0.59939 0.53582 0.67915 0.0
O191 O 0.6265 0.56449 0.83466 0.0
O192 O 0.55758 0.57768 0.96286 0.0
O193 O 0.49998 0.5601 0.01613 0.0
O194 O 0.49724 0.49272 0.84835 0.0
O195 O 0.52422 0.5331 0.76498 0.0
C196 C 0.57546 0.45595 0.87413 0.0
O197 O 0.50038 0.5074 0.19429 0.0
O198 O 0.47072 0.4798 0.04336 0.0
C199 C 0.60395 0.52688 0.09606 0.0
C200 C 0.61743 0.59358 0.68475 0.0
C201 C 0.60757 0.65689 0.61858 0.0
C202 C 0.64375 0.64594 0.64284 0.0
C203 C 0.64855 0.61477 0.67668 0.0
C204 C 0.58132 0.60449 0.66096 0.0
C205 C 0.57645 0.63571 0.62847 0.0
C206 C 0.62244 0.56101 0.72287 0.0
C207 C 0.52257 0.58423 0.99589 0.0
H208 H 0.41991 0.39136 0.26974 0.0
H209 H 0.41673 0.44704 0.21605 0.0
H210 H 0.53785 0.44819 0.18354 0.0
H211 H 0.54148 0.39331 0.23879 0.0
H212 H 0.66832 0.66158 0.6365 0.0
H213 H 0.6766 0.60723 0.69674 0.0
H214 H 0.55673 0.58891 0.6678 0.0
H215 H 0.54825 0.64288 0.60848 0.0
Tb216 Tb 0.07197 0.51498 0.78673 0.0
Tb217 Tb 1.03713 0.51301 0.04075 0.0
C218 C 0.05489 0.58355 0.96915 0.0
C219 C 0.12559 0.47605 0.53292 0.0
C220 C 0.17595 0.42272 0.43581 0.0
C221 C 0.16837 0.43079 0.55614 0.0
C222 C 0.14375 0.45742 0.60426 0.0
C223 C 0.1308 0.4666 0.4123 0.0
C224 C 0.156 0.44037 0.36402 0.0
C225 C 0.09953 0.50375 0.58498 0.0
O226 O 0.12034 0.52274 0.9047 0.0
O227 O 0.09628 0.49742 0.0457 0.0
O228 O 1.0245 0.46378 0.92417 0.0
O229 O 0.07745 0.46407 0.8187 0.0
O230 O 1.0433 0.52681 0.22277 0.0
O231 O 0.99503 0.49779 0.14477 0.0
O232 O 0.99119 0.53279 0.9511 0.0
O233 O 1.01071 0.51052 0.76382 0.0
O234 O 0.05761 0.5688 0.85724 0.0
O235 O 0.05289 0.56574 0.04968 0.0
C236 C 0.12509 0.50984 0.99683 0.0
O237 O 0.06631 0.49309 0.60819 0.0
O238 O 0.11271 0.52707 0.67192 0.0
C239 C 1.04777 0.44779 0.84363 0.0
C240 C 0.9833 0.54444 0.30239 0.0
C241 C 0.93032 0.59717 0.37826 0.0
C242 C 0.91904 0.56251 0.35181 0.0
C243 C 0.94523 0.53646 0.31454 0.0
C244 C 0.99502 0.57904 0.33551 0.0
C245 C 0.96869 0.60524 0.37381 0.0
C246 C 1.00889 0.51738 0.23925 0.0
C247 C 0.98389 0.52296 0.83889 0.0
H248 H 0.1828 0.41762 0.61393 0.0
H249 H 0.13952 0.46394 0.69773 0.0
H250 H 0.11609 0.48007 0.35593 0.0
H251 H 0.16144 0.43545 0.27121 0.0
H252 H 0.88973 0.55551 0.35955 0.0
H253 H 0.93545 0.51011 0.29081 0.0
H254 H 1.02433 0.58601 0.32852 0.0
H255 H 0.97811 0.63169 0.39716 0.0
C256 C 0.19241 0.03811 0.53265 0.0
C257 C 0.18594 0.01427 0.42692 0.0
H258 H 0.17034 0.06234 0.70181 0.0
C259 C 0.15003 0.999 0.40739 0.0
H260 H 0.21989 0.04996 0.55096 0.0
C261 C 0.12161 1.00629 0.49226 0.0
C262 C 0.12843 0.02859 0.6009 0.0
H263 H 0.14425 0.9803 0.32726 0.0
H264 H 0.09483 0.99306 0.47445 0.0
C265 C 0.164 0.045 0.61919 0.0
C266 C 0.55854 0.17376 0.90207 0.0
C267 C 0.55173 0.17943 0.79038 0.0
H268 H 0.56478 0.13717 1.00845 0.0
C269 C 0.5455 0.1508 0.69815 0.0
H270 H 0.56346 0.19527 0.97505 0.0
C271 C 0.54639 0.11737 0.71713 0.0
C272 C 0.55337 0.1116 0.82899 0.0
H273 H 0.54021 0.15412 0.61096 0.0
H274 H 0.54168 0.09601 0.64355 0.0
C275 C 0.55925 0.14037 0.92127 0.0
C276 C 0.43167 0.51716 0.51318 0.0
C277 C 0.40003 0.49839 0.53681 0.0
H278 H 0.48734 0.53624 0.56807 0.0
C279 C 0.40145 0.48345 0.63363 0.0
H280 H 0.43159 0.52887 0.43894 0.0
C281 C 0.43305 0.48719 0.70579 0.0
C282 C 0.46458 0.50639 0.68499 0.0
H283 H 0.37775 0.46869 0.65434 0.0
H284 H 0.43232 0.47528 0.7796 0.0
C285 C 0.46358 0.52133 0.58721 0.0
C286 C 0.98428 0.37981 0.66592 0.0
C287 C 1.00888 0.36241 0.57877 0.0
H288 H 0.97743 0.41954 0.81992 0.0
C289 C 1.04737 0.37103 0.58545 0.0
H290 H 0.95451 0.37344 0.66316 0.0
C291 C 0.06059 0.39778 0.67524 0.0
C292 C 1.03564 0.4159 0.76077 0.0
H293 H 0.06696 0.35794 0.5195 0.0
H294 H 0.09011 0.4049 0.67584 0.0
C295 C 0.99752 0.40601 0.75644 0.0
C296 C 0.92576 0.02319 0.25554 0.0
C297 C 0.9352 1.00053 0.32607 0.0
H298 H 0.94212 0.04575 0.11387 0.0
C299 C 0.97071 0.98439 0.30916 0.0
H300 H 0.89872 0.03604 0.26584 0.0
C301 C 0.9958 0.99001 0.22248 0.0
C302 C 0.98599 0.01175 0.14892 0.0
H303 H 0.97893 0.9668 0.36214 0.0
H304 H 1.02255 0.97666 0.21149 0.0
C305 C 0.95074 0.0286 0.16788 0.0
C306 C 0.51574 0.8647 0.96129 0.0
C307 C 0.54015 0.85636 0.04434 0.0
H308 H 0.50223 0.89936 0.85345 0.0
C309 C 0.57129 0.87795 0.08141 0.0
H310 H 0.49149 0.84864 0.93088 0.0
C311 C 0.57754 0.90731 0.0366 0.0
C312 C 0.55286 0.91567 0.95361 0.0
H313 H 0.59063 0.87236 0.14542 0.0
H314 H 0.60146 0.92365 0.06801 0.0
C315 C 0.52197 0.89383 0.91657 0.0
C316 C 0.64973 0.54371 0.3953 0.0
C317 C 0.68801 0.53677 0.37007 0.0
H318 H 0.59372 0.5461 0.33166 0.0
C319 C 0.69879 0.52534 0.25256 0.0
H320 H 0.6405 0.55228 0.48432 0.0
C321 C 0.67171 0.52194 0.16286 0.0
C322 C 0.6333 0.52963 0.18906 0.0
H323 H 0.72815 0.52008 0.2298 0.0
H324 H 0.68092 0.5136 0.07314 0.0
C325 C 0.62281 0.54011 0.30695 0.0
C326 C 0.06537 0.67905 0.98112 0.0
C327 C 0.05891 0.69332 0.1003 0.0
H328 H 0.0692 0.63312 0.84504 0.0
C329 C 1.0492 0.67154 0.17345 0.0
H330 H 0.07287 0.69542 0.92282 0.0
C331 C 1.04711 0.63616 0.12923 0.0
C332 C 0.05476 0.62152 1.01073 0.0
H333 H 1.04381 0.68168 0.26539 0.0
H334 H 1.03997 0.62026 0.18912 0.0
C335 C 0.06329 0.64345 0.93655 0.0
C336 C 0.93884 0.21877 0.55998 0.0
C337 C 0.93224 0.21271 0.43932 0.0
H338 H 0.93982 0.19695 0.70933 0.0
C339 C 0.91012 0.18413 0.38639 0.0
H340 H 0.95534 0.24056 0.60484 0.0
C341 C 0.90193 0.15864 0.44656 0.0
C342 C 0.91512 0.16203 0.56063 0.0
H343 H 0.90334 0.17937 0.29455 0.0
H344 H 0.88985 0.13463 0.3991 0.0
C345 C 0.93007 0.19362 0.62037 0.0
C346 C 0.33784 0.92089 0.38492 0.0
C347 C 0.33524 0.91789 0.26411 0.0
H348 H 0.37361 0.91576 0.52358 0.0
C349 C 0.35813 0.89353 0.19023 0.0
H350 H 0.31985 0.93842 0.44501 0.0
C351 C 0.3896 0.88031 0.23592 0.0
C352 C 0.39797 0.89158 0.35517 0.0
H353 H 0.35557 0.88934 0.09645 0.0
H354 H 0.41027 0.86611 0.17599 0.0
C355 C 0.36918 0.90771 0.4305 0.0
C356 C 0.56753 0.36048 0.85396 0.0
C357 C 0.58311 0.34719 0.74348 0.0
H358 H 0.55304 0.40544 0.98221 0.0
C359 C 0.60393 0.36939 0.6893 0.0
H360 H 0.55119 0.34417 0.89759 0.0
C361 C 0.60386 0.40487 0.73544 0.0
C362 C 0.58393 0.41865 0.83849 0.0
H363 H 0.61643 0.35973 0.60408 0.0
H364 H 0.61708 0.42153 0.68616 0.0
C365 C 0.56808 0.39587 0.90128 0.0
C366 C 0.24616 0.384 0.21078 0.0
C367 C 0.27708 0.40262 0.26814 0.0
H368 H 0.18629 0.37748 0.22118 0.0
C369 C 0.27786 0.40799 0.39046 0.0
H370 H 0.24583 0.3762 0.11649 0.0
C371 C 0.24388 0.40892 0.45114 0.0
C372 C 0.20987 0.40231 0.38887 0.0
H373 H 0.3023 0.41916 0.4398 0.0
H374 H 0.2441 0.42041 0.54367 0.0
C375 C 0.2118 0.38516 0.27063 0.0
C376 C 0.15654 0.82484 0.1224 0.0
C377 C 0.16254 0.82992 0.24319 0.0
H378 H 0.16059 0.84704 0.97429 0.0
C379 C 0.18893 0.85501 0.29624 0.0
H380 H 0.13695 0.80561 0.07714 0.0
C381 C 0.2021 0.87919 0.23653 0.0
C382 C 0.18944 0.87793 0.12311 0.0
H383 H 0.19557 0.85865 0.38788 0.0
H384 H 0.21735 0.90144 0.28455 0.0
C385 C 0.17028 0.8486 0.06247 0.0
C386 C 0.78327 0.9248 0.24368 0.0
C387 C 0.78132 0.91563 0.35197 0.0
H388 H 0.75236 0.94611 0.12369 0.0
C389 C 0.74779 0.89937 0.37582 0.0
H390 H 0.80931 0.93402 0.21327 0.0
C391 C 0.71405 0.90702 0.32582 0.0
C392 C 0.71497 0.92742 0.24314 0.0
H393 H 0.74606 0.88834 0.45154 0.0
H394 H 0.6875 0.90056 0.36141 0.0
C395 C 0.74999 0.93215 0.19197 0.0
C396 C 0.48481 0.67018 0.15564 0.0
C397 C 0.50821 0.69223 0.10822 0.0
H398 H 0.47113 0.61795 0.15773 0.0
C399 C 0.52833 0.67852 1.00566 0.0
H400 H 0.46886 0.68018 0.23468 0.0
C401 C 0.5299 0.64305 0.96276 0.0
C402 C 0.51108 0.62069 0.02079 0.0
H403 H 0.54663 0.69469 0.9671 0.0
H404 H 0.54853 0.63306 0.88999 0.0
C405 C 0.48632 0.63454 0.11235 0.0
C406 C 0.8334 0.62672 0.42076 0.0
C407 C 0.83486 0.63184 0.54305 0.0
H408 H 0.86619 0.6091 0.26591 0.0
C409 C 0.86755 0.64846 0.59652 0.0
H410 H 0.80766 0.61848 0.37347 0.0
C411 C 0.90183 0.64203 0.53576 0.0
C412 C 0.90139 0.62369 0.41903 0.0
H413 H 0.86857 0.65741 0.69043 0.0
H414 H 0.92798 0.64611 0.58422 0.0
C415 C 0.86717 0.62118 0.35805 0.0
C416 C 0.0585 0.1787 0.17077 0.0
C417 C 1.02821 0.19586 0.1332 0.0
H418 H 0.09103 0.13254 0.14279 0.0
C419 C 1.01132 0.1814 0.02556 0.0
H420 H 0.07137 0.18899 0.25477 0.0
C421 C 1.02239 0.14904 0.96133 0.0
C422 C 1.05013 0.13023 1.00475 0.0
H423 H 0.98736 0.19384 0.99611 0.0
H424 H 1.00707 0.13772 0.88257 0.0
C425 C 0.06932 0.14613 0.10731 0.0
C426 C 0.38034 1.00054 0.97394 0.0
C427 C 0.37312 0.01303 0.09382 0.0
H428 H 0.4209 0.99265 0.83443 0.0
C429 C 0.40228 0.03082 0.16303 0.0
H430 H 0.35894 0.98574 0.91882 0.0
C431 C 0.43826 0.03419 0.11527 0.0
C432 C 0.4462 0.01986 0.99661 0.0
H433 H 0.39817 0.03975 0.25618 0.0
H434 H 0.46039 0.04655 0.17305 0.0
C435 C 0.41618 1.00415 0.92584 0.0
C436 C 0.52216 0.30477 0.30915 0.0
C437 C 0.50324 0.30219 0.41175 0.0
H438 H 0.52946 0.33339 0.17765 0.0
C439 C 0.47117 0.32264 0.44589 0.0
H440 H 0.54734 0.28976 0.28192 0.0
C441 C 0.4617 0.34862 0.38909 0.0
C442 C 0.48392 0.35436 0.29601 0.0
H443 H 0.4566 0.32173 0.5262 0.0
H444 H 0.43942 0.36627 0.42592 0.0
C445 C 0.5125 0.3305 0.25151 0.0
C446 C 0.23263 0.50287 0.01631 0.0
C447 C 0.23767 0.50042 0.13249 0.0
H448 H 0.19341 0.50803 0.88247 0.0
C449 C 0.20561 0.50362 0.20531 0.0
H450 H 0.25642 0.49919 0.95679 0.0
C451 C 0.16941 0.50745 0.16199 0.0
C452 C 0.16407 0.50846 0.04465 0.0
H453 H 0.20829 0.50066 0.29408 0.0
H454 H 0.1454 0.5088 0.21984 0.0
C455 C 0.19636 0.50734 0.97336 0.0
C456 C 1.03841 0.87252 0.56135 0.0
C457 C 0.07228 0.85537 0.57219 0.0
H458 H 1.00532 0.91798 0.62218 0.0
C459 C 0.09595 0.86868 0.66711 0.0
H460 H 1.01995 0.86304 0.48799 0.0
C461 C 0.08781 0.90006 0.74327 0.0
C462 C 0.05583 0.919 0.72608 0.0
H463 H 0.12228 0.85603 0.67721 0.0
H464 H 0.10792 0.91049 0.8112 0.0
C465 C 1.03019 0.90409 0.63789 0.0
C466 C 0.74131 0.01091 0.77278 0.0
C467 C 0.74704 1.00906 0.65316 0.0
H468 H 0.70114 0.01445 0.91284 0.0
C469 C 0.71527 0.01224 0.58499 0.0
H470 H 0.76486 1.00727 0.82688 0.0
C471 C 0.67871 0.01475 0.63278 0.0
C472 C 0.67272 0.01483 0.75078 0.0
H473 H 0.71845 0.00981 0.49194 0.0
H474 H 0.6549 0.01556 0.57638 0.0
C475 C 0.70465 0.0144 0.82148 0.0
C476 C 0.61506 0.72142 0.42788 0.0
C477 C 0.58072 0.73906 0.45302 0.0
H478 H 0.65036 0.68116 0.45948 0.0
C479 C 0.55961 0.73452 0.54966 0.0
H480 H 0.63137 0.72372 0.35201 0.0
C481 C 0.57013 0.70975 0.61041 0.0
C482 C 0.60199 0.68896 0.57574 0.0
H483 H 0.53266 0.74723 0.56954 0.0
H484 H 0.55175 0.70515 0.67898 0.0
C485 C 0.62562 0.69659 0.4886 0.0
C486 C 0.89993 0.51842 0.63186 0.0
C487 C 0.87179 0.53632 0.70548 0.0
H488 H 0.95709 0.50045 0.61516 0.0
C489 C 0.87999 0.54762 0.82507 0.0
H490 H 0.89506 0.51043 0.53888 0.0
C491 C 0.91575 0.54233 0.86914 0.0
C492 C 0.94465 0.52603 0.79451 0.0
H493 H 0.8593 0.56237 0.88351 0.0
H494 H 0.92118 0.55234 0.961 0.0
C495 C 0.93582 0.51333 0.67567 0.0
loop_
_geom_bond_atom_site_label_1
_geom_bond_atom_site_label_2
_geom_bond_distance
_geom_bond_site_symmetry_2
_ccdc_geom_bond_type
H0 C5 0.930 . S
H1 C8 0.930 . S
H2 C10 0.930 . S
H3 C4 1.016 . S
C4 H3 1.016 . S
C4 N11 1.286 . S
C5 H0 0.930 . S
C5 C6 1.397 . S
C5 C7 1.361 . S
C6 C5 1.397 . S
C6 C10 1.390 . S
C7 C5 1.361 . S
C7 C8 1.393 . S
C7 N11 1.413 . S
C8 H1 0.930 . S
C8 C7 1.393 . S
C8 C9 1.399 . S
C9 C8 1.399 . S
C9 C10 1.381 . S
C10 H2 0.930 . S
C10 C6 1.390 . S
C10 C9 1.381 . S
N11 C4 1.286 . S
N11 C7 1.413 . S
H12 C17 0.930 . S
H13 C20 0.930 . S
H14 C22 0.930 . S
H15 C16 1.016 . S
C16 H15 1.016 . S
C16 N23 1.286 1_655 S
C17 H12 0.930 . S
C17 C18 1.397 . S
C17 C19 1.361 . S
C18 C17 1.397 . S
C18 C22 1.390 1_455 S
C19 C17 1.361 . S
C19 C20 1.393 . S
C19 N23 1.413 . S
C20 H13 0.930 . S
C20 C19 1.393 . S
C20 C21 1.403 . S
C21 C20 1.403 . S
C21 C22 1.379 1_455 S
C22 H14 0.930 . S
C22 C18 1.390 1_655 S
C22 C21 1.379 1_655 S
N23 C16 1.286 1_455 S
N23 C19 1.413 . S
H24 C29 0.930 . S
H25 C32 0.930 . S
H26 C34 0.930 . S
H27 C28 1.016 . S
C28 H27 1.016 . S
C28 N35 1.286 1_565 S
C29 H24 0.930 . S
C29 C30 1.397 . S
C29 C31 1.361 . S
C30 C29 1.397 . S
C30 C34 1.390 1_545 S
C31 C29 1.361 . S
C31 C32 1.393 . S
C31 N35 1.413 . S
C32 H25 0.930 . S
C32 C31 1.393 . S
C32 C33 1.404 . S
C33 C32 1.404 . S
C33 C34 1.372 1_545 S
C34 H26 0.930 . S
C34 C30 1.390 1_565 S
C34 C33 1.372 1_565 S
N35 C28 1.286 1_545 S
N35 C31 1.413 . S
H36 C41 0.930 . S
H37 C44 0.930 . S
H38 C46 0.930 . S
H39 C40 1.016 . S
C40 H39 1.016 . S
C40 N47 1.286 1_556 S
C41 H36 0.930 . S
C41 C42 1.397 . S
C41 C43 1.361 . S
C42 C41 1.397 . S
C42 C46 1.390 . S
C43 C41 1.361 . S
C43 C44 1.393 1_554 S
C43 N47 1.413 . S
C44 H37 0.930 . S
C44 C43 1.393 1_556 S
C44 C45 1.399 . S
C45 C44 1.399 . S
C45 C46 1.381 1_556 S
C46 H38 0.930 . S
C46 C42 1.390 . S
C46 C45 1.381 1_554 S
N47 C40 1.286 1_554 S
N47 C43 1.413 . S
H48 C53 0.935 . S
H49 C56 0.930 . S
H50 C58 0.930 . S
H51 C52 1.016 . S
C52 H51 1.016 . S
C52 N59 1.286 . S
C53 H48 0.935 . S
C53 C54 1.397 . S
C53 C55 1.361 . S
C54 C53 1.397 . S
C54 C58 1.390 . S
C55 C53 1.361 . S
C55 C56 1.393 . S
C55 N59 1.413 . S
C56 H49 0.930 . S
C56 C55 1.393 . S
C56 C57 1.399 . S
C57 C56 1.399 . S
C57 C58 1.381 . S
C58 H50 0.930 . S
C58 C54 1.390 . S
C58 C57 1.381 . S
N59 C52 1.286 . S
N59 C55 1.413 . S
H60 C65 0.930 . S
H61 C68 0.930 . S
H62 C70 0.930 . S
H63 C64 1.027 . S
C64 H63 1.027 . S
C64 N71 1.272 1_655 S
C65 H60 0.930 . S
C65 C66 1.397 . S
C65 C67 1.361 . S
C66 C65 1.397 . S
C66 C70 1.390 1_455 S
C67 C65 1.361 . S
C67 C68 1.393 . S
C67 N71 1.413 . S
C68 H61 0.930 . S
C68 C67 1.393 . S
C68 C69 1.404 . S
C69 C68 1.404 . S
C69 C70 1.378 1_455 S
C70 H62 0.930 . S
C70 C66 1.390 1_655 S
C70 C69 1.378 1_655 S
N71 C64 1.272 1_455 S
N71 C67 1.413 . S
H72 C77 0.930 . S
H73 C80 0.930 . S
H74 C82 0.930 . S
H75 C76 1.035 . S
C76 H75 1.035 . S
C76 N83 1.265 1_565 S
C77 H72 0.930 . S
C77 C78 1.397 . S
C77 C79 1.361 . S
C78 C77 1.397 . S
C78 C82 1.390 1_545 S
C79 C77 1.361 . S
C79 C80 1.393 . S
C79 N83 1.413 . S
C80 H73 0.930 . S
C80 C79 1.393 . S
C80 C81 1.403 . S
C81 C80 1.403 . S
C81 C82 1.386 1_545 S
C82 H74 0.930 . S
C82 C78 1.390 1_565 S
C82 C81 1.386 1_565 S
N83 C76 1.265 1_545 S
N83 C79 1.413 . S
H84 C89 0.930 . S
H85 C92 0.930 . S
H86 C94 0.930 . S
H87 C88 1.016 . S
C88 H87 1.016 . S
C88 N95 1.286 . S
C89 H84 0.930 . S
C89 C90 1.397 . S
C89 C91 1.361 . S
C90 C89 1.397 . S
C90 C94 1.390 . S
C91 C89 1.361 . S
C91 C92 1.393 . S
C91 N95 1.413 . S
C92 H85 0.930 . S
C92 C91 1.393 . S
C92 C93 1.399 . S
C93 C92 1.399 . S
C93 C94 1.381 . S
C94 H86 0.930 . S
C94 C90 1.390 . S
C94 C93 1.381 . S
N95 C88 1.286 . S
N95 C91 1.413 . S
Tb96 C105 2.764 . S
Tb96 O106 2.325 . S
Tb96 O109 2.303 1_655 S
Tb96 O113 2.322 1_545 S
Tb96 O114 2.349 . S
Tb96 O117 2.415 . S
Tb96 O118 2.399 . S
Tb97 O107 2.322 1_566 S
Tb97 O108 2.349 . S
Tb97 O110 2.415 1_556 S
Tb97 O111 2.399 1_556 S
Tb97 O112 2.325 . S
Tb97 O115 2.303 1_455 S
Tb97 C126 2.764 1_556 S
C98 O114 1.261 . S
C98 O115 1.257 1_545 S
C99 C102 1.358 . S
C99 C103 1.332 . S
C99 C105 1.504 . S
C100 C101 1.373 . S
C100 C104 1.308 . S
C101 C100 1.373 . S
C101 C102 1.429 . S
C101 H128 0.932 . S
C102 C99 1.358 . S
C102 C101 1.429 . S
C102 H129 0.930 . S
C103 C99 1.332 . S
C103 C104 1.394 . S
C103 H130 0.932 1_655 S
C104 C100 1.308 . S
C104 C103 1.394 . S
C104 H131 0.929 . S
C105 Tb96 2.764 . S
C105 C99 1.504 . S
C105 O117 1.239 . S
C105 O118 1.263 . S
O106 Tb96 2.325 . S
O106 C116 1.236 1_655 S
O107 Tb97 2.322 1_544 S
O107 C116 1.257 1_554 S
O108 Tb97 2.349 . S
O108 C119 1.261 . S
O109 Tb96 2.303 1_455 S
O109 C119 1.257 1_545 S
O110 Tb97 2.415 1_554 S
O110 C126 1.239 . S
O111 Tb97 2.399 1_554 S
O111 C126 1.263 . S
O112 Tb97 2.325 . S
O112 C127 1.236 1_455 S
O113 Tb96 2.322 1_565 S
O113 C127 1.257 . S
O114 Tb96 2.349 . S
O114 C98 1.261 . S
O115 Tb97 2.303 1_655 S
O115 C98 1.257 1_565 S
C116 O106 1.236 1_455 S
C116 O107 1.257 1_556 S
O117 Tb96 2.415 . S
O117 C105 1.239 . S
O118 Tb96 2.399 . S
O118 C105 1.263 . S
C119 O108 1.261 . S
C119 O109 1.257 1_565 S
C120 C123 1.358 . S
C120 C124 1.332 . S
C120 C126 1.504 . S
C121 C122 1.373 . S
C121 C125 1.308 . S
C122 C121 1.373 . S
C122 C123 1.429 . S
C122 H132 0.932 . S
C123 C120 1.358 . S
C123 C122 1.429 . S
C123 H133 0.930 . S
C124 C120 1.332 . S
C124 C125 1.394 . S
C124 H134 0.932 1_455 S
C125 C121 1.308 . S
C125 C124 1.394 . S
C125 H135 0.929 . S
C126 Tb97 2.764 1_554 S
C126 O110 1.239 . S
C126 O111 1.263 . S
C126 C120 1.504 . S
C127 O112 1.236 1_655 S
C127 O113 1.257 . S
H128 C101 0.932 . S
H129 C102 0.930 . S
H130 C103 0.932 1_455 S
H131 C104 0.929 . S
H132 C122 0.932 . S
H133 C123 0.930 . S
H134 C124 0.932 1_655 S
H135 C125 0.929 . S
Tb136 C145 2.764 . S
Tb136 O146 2.325 . S
Tb136 O149 2.303 1_565 S
Tb136 O153 2.322 . S
Tb136 O154 2.349 . S
Tb136 O157 2.415 1_565 S
Tb136 O158 2.399 . S
Tb137 O147 2.322 . S
Tb137 O148 2.349 1_554 S
Tb137 O150 2.415 1_545 S
Tb137 O151 2.399 . S
Tb137 O152 2.325 1_554 S
Tb137 O155 2.303 1_544 S
Tb137 C166 2.764 . S
C138 O154 1.261 . S
C138 O155 1.257 . S
C139 C142 1.358 . S
C139 C143 1.332 1_565 S
C139 C145 1.504 . S
C140 C141 1.373 . S
C140 C144 1.308 1_565 S
C141 C140 1.373 . S
C141 C142 1.429 . S
C141 H168 0.932 . S
C142 C139 1.358 . S
C142 C141 1.429 . S
C142 H169 0.930 . S
C143 C139 1.332 1_545 S
C143 C144 1.394 . S
C143 H170 0.932 . S
C144 C140 1.308 1_545 S
C144 C143 1.394 . S
C144 H171 0.929 . S
C145 Tb136 2.764 . S
C145 C139 1.504 . S
C145 O157 1.239 1_565 S
C145 O158 1.263 . S
O146 Tb136 2.325 . S
O146 C156 1.236 1_565 S
O147 Tb137 2.322 . S
O147 C156 1.257 1_554 S
O148 Tb137 2.349 1_556 S
O148 C159 1.261 . S
O149 Tb136 2.303 1_545 S
O149 C159 1.257 . S
O150 Tb137 2.415 1_565 S
O150 C166 1.239 1_565 S
O151 Tb137 2.399 . S
O151 C166 1.263 . S
O152 Tb137 2.325 1_556 S
O152 C167 1.236 1_545 S
O153 Tb136 2.322 . S
O153 C167 1.257 . S
O154 Tb136 2.349 . S
O154 C138 1.261 . S
O155 Tb137 2.303 1_566 S
O155 C138 1.257 . S
C156 O146 1.236 1_545 S
C156 O147 1.257 1_556 S
O157 Tb136 2.415 1_545 S
O157 C145 1.239 1_545 S
O158 Tb136 2.399 . S
O158 C145 1.263 . S
C159 O148 1.261 . S
C159 O149 1.257 . S
C160 C163 1.358 . S
C160 C164 1.332 1_545 S
C160 C166 1.504 . S
C161 C162 1.373 . S
C161 C165 1.308 1_545 S
C162 C161 1.373 . S
C162 C163 1.429 . S
C162 H172 0.932 . S
C163 C160 1.358 . S
C163 C162 1.429 . S
C163 H173 0.930 . S
C164 C160 1.332 1_565 S
C164 C165 1.394 . S
C164 H174 0.932 . S
C165 C161 1.308 1_565 S
C165 C164 1.394 . S
C165 H175 0.929 . S
C166 Tb137 2.764 . S
C166 O150 1.239 1_545 S
C166 O151 1.263 . S
C166 C160 1.504 . S
C167 O152 1.236 1_565 S
C167 O153 1.257 . S
H168 C141 0.932 . S
H169 C142 0.930 . S
H170 C143 0.932 . S
H171 C144 0.929 . S
H172 C162 0.932 . S
H173 C163 0.930 . S
H174 C164 0.932 . S
H175 C165 0.929 . S
Tb176 C185 2.764 . S
Tb176 O186 2.325 1_554 S
Tb176 O189 2.303 1_554 S
Tb176 O193 2.322 1_554 S
Tb176 O194 2.349 1_554 S
Tb176 O197 2.415 . S
Tb176 O198 2.399 . S
Tb177 O187 2.322 . S
Tb177 O188 2.349 . S
Tb177 O190 2.415 . S
Tb177 O191 2.399 . S
Tb177 O192 2.325 . S
Tb177 O195 2.303 . S
Tb177 C206 2.764 . S
C178 O194 1.261 . S
C178 O195 1.257 . S
C179 C182 1.358 . S
C179 C183 1.332 . S
C179 C185 1.504 . S
C180 C181 1.373 . S
C180 C184 1.308 . S
C181 C180 1.373 . S
C181 C182 1.429 . S
C181 H208 0.932 . S
C182 C179 1.358 . S
C182 C181 1.429 . S
C182 H209 0.930 . S
C183 C179 1.332 . S
C183 C184 1.394 . S
C183 H210 0.932 . S
C184 C180 1.308 . S
C184 C183 1.394 . S
C184 H211 0.929 . S
C185 Tb176 2.764 . S
C185 C179 1.504 . S
C185 O197 1.239 . S
C185 O198 1.263 . S
O186 Tb176 2.325 1_556 S
O186 C196 1.236 . S
O187 Tb177 2.322 . S
O187 C196 1.257 . S
O188 Tb177 2.349 . S
O188 C199 1.261 . S
O189 Tb176 2.303 1_556 S
O189 C199 1.257 . S
O190 Tb177 2.415 . S
O190 C206 1.239 . S
O191 Tb177 2.399 . S
O191 C206 1.263 . S
O192 Tb177 2.325 . S
O192 C207 1.236 . S
O193 Tb176 2.322 1_556 S
O193 C207 1.257 . S
O194 Tb176 2.349 1_556 S
O194 C178 1.261 . S
O195 Tb177 2.303 . S
O195 C178 1.257 . S
C196 O186 1.236 . S
C196 O187 1.257 . S
O197 Tb176 2.415 . S
O197 C185 1.239 . S
O198 Tb176 2.399 . S
O198 C185 1.263 . S
C199 O188 1.261 . S
C199 O189 1.257 . S
C200 C203 1.358 . S
C200 C204 1.332 . S
C200 C206 1.504 . S
C201 C202 1.373 . S
C201 C205 1.308 . S
C202 C201 1.373 . S
C202 C203 1.429 . S
C202 H212 0.932 . S
C203 C200 1.358 . S
C203 C202 1.429 . S
C203 H213 0.930 . S
C204 C200 1.332 . S
C204 C205 1.394 . S
C204 H214 0.932 . S
C205 C201 1.308 . S
C205 C204 1.394 . S
C205 H215 0.929 . S
C206 Tb177 2.764 . S
C206 O190 1.239 . S
C206 O191 1.263 . S
C206 C200 1.504 . S
C207 O192 1.236 . S
C207 O193 1.257 . S
H208 C181 0.932 . S
H209 C182 0.930 . S
H210 C183 0.932 . S
H211 C184 0.929 . S
H212 C202 0.932 . S
H213 C203 0.930 . S
H214 C204 0.932 . S
H215 C205 0.929 . S
Tb216 C225 2.764 . S
Tb216 O226 2.325 . S
Tb216 O229 2.303 . S
Tb216 O233 2.322 1_455 S
Tb216 O234 2.349 . S
Tb216 O237 2.415 . S
Tb216 O238 2.399 . S
Tb217 O227 2.322 1_655 S
Tb217 O228 2.349 . S
Tb217 O230 2.415 1_556 S
Tb217 O231 2.399 1_556 S
Tb217 O232 2.325 . S
Tb217 O235 2.303 . S
Tb217 C246 2.764 1_556 S
C218 O234 1.261 . S
C218 O235 1.257 1_455 S
C219 C222 1.358 . S
C219 C223 1.332 . S
C219 C225 1.504 . S
C220 C221 1.373 . S
C220 C224 1.308 . S
C221 C220 1.373 . S
C221 C222 1.429 . S
C221 H248 0.932 . S
C222 C219 1.358 . S
C222 C221 1.429 . S
C222 H249 0.930 . S
C223 C219 1.332 . S
C223 C224 1.394 . S
C223 H250 0.932 . S
C224 C220 1.308 . S
C224 C223 1.394 . S
C224 H251 0.929 . S
C225 Tb216 2.764 . S
C225 C219 1.504 . S
C225 O237 1.239 . S
C225 O238 1.263 . S
O226 Tb216 2.325 . S
O226 C236 1.236 . S
O227 Tb217 2.322 1_455 S
O227 C236 1.257 . S
O228 Tb217 2.349 . S
O228 C239 1.261 . S
O229 Tb216 2.303 . S
O229 C239 1.257 1_455 S
O230 Tb217 2.415 1_554 S
O230 C246 1.239 . S
O231 Tb217 2.399 1_554 S
O231 C246 1.263 . S
O232 Tb217 2.325 . S
O232 C247 1.236 . S
O233 Tb216 2.322 1_655 S
O233 C247 1.257 . S
O234 Tb216 2.349 . S
O234 C218 1.261 . S
O235 Tb217 2.303 . S
O235 C218 1.257 1_655 S
C236 O226 1.236 . S
C236 O227 1.257 . S
O237 Tb216 2.415 . S
O237 C225 1.239 . S
O238 Tb216 2.399 . S
O238 C225 1.263 . S
C239 O228 1.261 . S
C239 O229 1.257 1_655 S
C240 C243 1.358 . S
C240 C244 1.332 . S
C240 C246 1.504 . S
C241 C242 1.373 . S
C241 C245 1.308 . S
C242 C241 1.373 . S
C242 C243 1.429 . S
C242 H252 0.932 . S
C243 C240 1.358 . S
C243 C242 1.429 . S
C243 H253 0.930 . S
C244 C240 1.332 . S
C244 C245 1.394 . S
C244 H254 0.932 . S
C245 C241 1.308 . S
C245 C244 1.394 . S
C245 H255 0.929 . S
C246 Tb217 2.764 1_554 S
C246 O230 1.239 . S
C246 O231 1.263 . S
C246 C240 1.504 . S
C247 O232 1.236 . S
C247 O233 1.257 . S
H248 C221 0.932 . S
H249 C222 0.930 . S
H250 C223 0.932 . S
H251 C224 0.929 . S
H252 C242 0.932 . S
H253 C243 0.930 . S
H254 C244 0.932 . S
H255 C245 0.929 . S
C256 C257 1.405 . S
C256 H260 0.950 . S
C256 C265 1.390 . S
C257 C256 1.405 . S
C257 C259 1.364 1_545 S
H258 C265 0.950 . S
C259 C257 1.364 1_565 S
C259 C261 1.390 . S
C259 H263 0.950 . S
H260 C256 0.950 . S
C261 C259 1.390 . S
C261 C262 1.387 1_565 S
C261 H264 0.950 . S
C262 C261 1.387 1_545 S
C262 C265 1.387 . S
H263 C259 0.950 . S
H264 C261 0.950 . S
C265 C256 1.390 . S
C265 H258 0.950 . S
C265 C262 1.387 . S
C266 C267 1.387 . S
C266 H270 0.950 . S
C266 C275 1.390 . S
C267 C266 1.387 . S
C267 C269 1.387 . S
H268 C275 0.950 1_554 S
C269 C267 1.387 . S
C269 C271 1.390 . S
C269 H273 0.950 . S
H270 C266 0.950 . S
C271 C269 1.390 . S
C271 C272 1.387 . S
C271 H274 0.950 . S
C272 C271 1.387 . S
C272 C275 1.387 . S
H273 C269 0.950 . S
H274 C271 0.950 . S
C275 C266 1.390 . S
C275 H268 0.950 1_556 S
C275 C272 1.387 . S
C276 C277 1.387 . S
C276 H280 0.950 . S
C276 C285 1.390 . S
C277 C276 1.387 . S
C277 C279 1.387 . S
H278 C285 0.950 . S
C279 C277 1.387 . S
C279 C281 1.390 . S
C279 H283 0.950 . S
H280 C276 0.950 . S
C281 C279 1.390 . S
C281 C282 1.387 . S
C281 H284 0.950 . S
C282 C281 1.387 . S
C282 C285 1.387 . S
H283 C279 0.950 . S
H284 C281 0.950 . S
C285 C276 1.390 . S
C285 H278 0.950 . S
C285 C282 1.387 . S
C286 C287 1.381 1_655 S
C286 H290 0.950 . S
C286 C295 1.390 . S
C287 C286 1.381 1_455 S
C287 C289 1.394 . S
H288 C295 0.950 . S
C289 C287 1.394 . S
C289 C291 1.390 . S
C289 H293 0.950 . S
H290 C286 0.950 . S
C291 C289 1.390 . S
C291 C292 1.415 . S
C291 H294 0.950 . S
C292 C291 1.415 . S
C292 C295 1.360 1_455 S
H293 C289 0.950 . S
H294 C291 0.950 . S
C295 C286 1.390 . S
C295 H288 0.950 . S
C295 C292 1.360 1_655 S
C296 C297 1.401 . S
C296 H300 0.950 . S
C296 C305 1.390 . S
C297 C296 1.401 . S
C297 C299 1.369 1_565 S
H298 C305 0.950 . S
C299 C297 1.369 1_545 S
C299 C301 1.390 . S
C299 H303 0.950 . S
H300 C296 0.950 . S
C301 C299 1.390 . S
C301 C302 1.387 1_545 S
C301 H304 0.950 . S
C302 C301 1.387 1_565 S
C302 C305 1.387 . S
H303 C299 0.950 . S
H304 C301 0.950 . S
C305 C296 1.390 . S
C305 H298 0.950 . S
C305 C302 1.387 . S
C306 C307 1.387 . S
C306 H310 0.950 . S
C306 C315 1.390 . S
C307 C306 1.387 . S
C307 C309 1.387 1_556 S
H308 C315 0.950 . S
C309 C307 1.387 1_554 S
C309 C311 1.390 1_554 S
C309 H313 0.950 . S
H310 C306 0.950 . S
C311 C309 1.390 1_556 S
C311 C312 1.387 . S
C311 H314 0.950 1_556 S
C312 C311 1.387 . S
C312 C315 1.387 . S
H313 C309 0.950 . S
H314 C311 0.950 1_554 S
C315 C306 1.390 . S
C315 H308 0.950 . S
C315 C312 1.387 . S
C316 C317 1.387 . S
C316 H320 0.950 . S
C316 C325 1.390 . S
C317 C316 1.387 . S
C317 C319 1.387 . S
H318 C325 0.950 . S
C319 C317 1.387 . S
C319 C321 1.390 . S
C319 H323 0.950 . S
H320 C316 0.950 . S
C321 C319 1.390 . S
C321 C322 1.387 . S
C321 H324 0.950 . S
C322 C321 1.387 . S
C322 C325 1.387 . S
H323 C319 0.950 . S
H324 C321 0.950 . S
C325 C316 1.390 . S
C325 H318 0.950 . S
C325 C322 1.387 . S
C326 C327 1.394 . S
C326 H330 0.950 . S
C326 C335 1.390 . S
C327 C326 1.394 . S
C327 C329 1.381 1_655 S
H328 C335 0.950 . S
C329 C327 1.381 1_455 S
C329 C331 1.390 . S
C329 H333 0.950 . S
H330 C326 0.950 . S
C331 C329 1.390 . S
C331 C332 1.359 1_455 S
C331 H334 0.950 . S
C332 C331 1.359 1_655 S
C332 C335 1.415 . S
H333 C329 0.950 . S
H334 C331 0.950 . S
C335 C326 1.390 . S
C335 H328 0.950 . S
C335 C332 1.415 . S
C336 C337 1.387 . S
C336 H340 0.950 . S
C336 C345 1.390 . S
C337 C336 1.387 . S
C337 C339 1.387 . S
H338 C345 0.950 . S
C339 C337 1.387 . S
C339 C341 1.390 . S
C339 H343 0.950 . S
H340 C336 0.950 . S
C341 C339 1.390 . S
C341 C342 1.387 . S
C341 H344 0.950 . S
C342 C341 1.387 . S
C342 C345 1.387 . S
H343 C339 0.950 . S
H344 C341 0.950 . S
C345 C336 1.390 . S
C345 H338 0.950 . S
C345 C342 1.387 . S
C346 C347 1.387 . S
C346 H350 0.950 . S
C346 C355 1.390 1_545 S
C347 C346 1.387 . S
C347 C349 1.387 1_545 S
H348 C355 0.950 . S
C349 C347 1.387 1_565 S
C349 C351 1.390 . S
C349 H353 0.950 . S
H350 C346 0.950 . S
C351 C349 1.390 . S
C351 C352 1.387 . S
C351 H354 0.950 . S
C352 C351 1.387 . S
C352 C355 1.387 . S
H353 C349 0.950 . S
H354 C351 0.950 . S
C355 C346 1.390 1_565 S
C355 H348 0.950 . S
C355 C352 1.387 . S
C356 C357 1.387 . S
C356 H360 0.950 1_556 S
C356 C365 1.390 . S
C357 C356 1.387 . S
C357 C359 1.387 . S
H358 C365 0.950 1_554 S
C359 C357 1.387 . S
C359 C361 1.390 . S
C359 H363 0.950 . S
H360 C356 0.950 1_554 S
C361 C359 1.390 . S
C361 C362 1.387 . S
C361 H364 0.950 . S
C362 C361 1.387 . S
C362 C365 1.387 . S
H363 C359 0.950 . S
H364 C361 0.950 . S
C365 C356 1.390 . S
C365 H358 0.950 1_556 S
C365 C362 1.387 . S
C366 C367 1.387 . S
C366 H370 0.950 . S
C366 C375 1.390 . S
C367 C366 1.387 . S
C367 C369 1.387 . S
H368 C375 0.950 . S
C369 C367 1.387 . S
C369 C371 1.390 . S
C369 H373 0.950 . S
H370 C366 0.950 . S
C371 C369 1.390 . S
C371 C372 1.387 . S
C371 H374 0.950 . S
C372 C371 1.387 . S
C372 C375 1.387 . S
H373 C369 0.950 . S
H374 C371 0.950 . S
C375 C366 1.390 . S
C375 H368 0.950 . S
C375 C372 1.387 . S
C376 C377 1.388 . S
C376 H380 0.946 1_455 S
C376 C385 1.393 . S
C377 C376 1.388 . S
C377 C379 1.387 . S
H378 C385 0.950 . S
C379 C377 1.387 . S
C379 C381 1.390 . S
C379 H383 0.950 . S
H380 C376 0.946 1_655 S
C381 C379 1.390 . S
C381 C382 1.387 . S
C381 H384 0.950 . S
C382 C381 1.387 . S
C382 C385 1.387 . S
H383 C379 0.950 . S
H384 C381 0.950 . S
C385 C376 1.393 . S
C385 H378 0.950 . S
C385 C382 1.387 . S
C386 C387 1.387 1_545 S
C386 H390 0.950 . S
C386 C395 1.390 . S
C387 C386 1.387 1_565 S
C387 C389 1.387 . S
H388 C395 0.950 . S
C389 C387 1.387 . S
C389 C391 1.390 1_565 S
C389 H393 0.950 . S
H390 C386 0.950 . S
C391 C389 1.390 1_545 S
C391 C392 1.387 . S
C391 H394 0.950 1_545 S
C392 C391 1.387 . S
C392 C395 1.387 . S
H393 C389 0.950 . S
H394 C391 0.950 1_565 S
C395 C386 1.390 . S
C395 H388 0.950 . S
C395 C392 1.387 . S
C396 C397 1.387 . S
C396 H400 0.950 1_556 S
C396 C405 1.390 1_556 S
C397 C396 1.387 . S
C397 C399 1.387 . S
H398 C405 0.950 . S
C399 C397 1.387 . S
C399 C401 1.390 . S
C399 H403 0.950 . S
H400 C396 0.950 1_554 S
C401 C399 1.390 . S
C401 C402 1.387 . S
C401 H404 0.950 . S
C402 C401 1.387 . S
C402 C405 1.387 1_556 S
H403 C399 0.950 . S
H404 C401 0.950 . S
C405 C396 1.390 1_554 S
C405 H398 0.950 . S
C405 C402 1.387 1_554 S
C406 C407 1.387 . S
C406 H410 0.950 . S
C406 C415 1.390 . S
C407 C406 1.387 . S
C407 C409 1.387 . S
H408 C415 0.950 . S
C409 C407 1.387 . S
C409 C411 1.390 . S
C409 H413 0.950 . S
H410 C406 0.950 . S
C411 C409 1.390 . S
C411 C412 1.387 . S
C411 H414 0.950 . S
C412 C411 1.387 . S
C412 C415 1.387 . S
H413 C409 0.950 . S
H414 C411 0.950 . S
C415 C406 1.390 . S
C415 H408 0.950 . S
C415 C412 1.387 . S
C416 C417 1.387 . S
C416 H420 0.950 . S
C416 C425 1.390 . S
C417 C416 1.387 . S
C417 C419 1.387 1_454 S
H418 C425 0.950 . S
C419 C417 1.387 1_656 S
C419 C421 1.390 . S
C419 H423 0.950 . S
H420 C416 0.950 . S
C421 C419 1.390 . S
C421 C422 1.387 1_656 S
C421 H424 0.950 . S
C422 C421 1.387 1_454 S
C422 C425 1.387 . S
H423 C419 0.950 . S
H424 C421 0.950 . S
C425 C416 1.390 . S
C425 H418 0.950 . S
C425 C422 1.387 . S
C426 C427 1.387 1_566 S
C426 H430 0.950 . S
C426 C435 1.390 . S
C427 C426 1.387 1_544 S
C427 C429 1.387 . S
H428 C435 0.950 . S
C429 C427 1.387 . S
C429 C431 1.390 . S
C429 H433 0.950 . S
H430 C426 0.950 . S
C431 C429 1.390 . S
C431 C432 1.387 1_554 S
C431 H434 0.950 . S
C432 C431 1.387 1_556 S
C432 C435 1.387 1_545 S
H433 C429 0.950 . S
H434 C431 0.950 . S
C435 C426 1.390 . S
C435 H428 0.950 . S
C435 C432 1.387 1_565 S
C436 C437 1.387 . S
C436 H440 0.950 . S
C436 C445 1.390 . S
C437 C436 1.387 . S
C437 C439 1.387 . S
H438 C445 0.950 . S
C439 C437 1.387 . S
C439 C441 1.390 . S
C439 H443 0.950 . S
H440 C436 0.950 . S
C441 C439 1.390 . S
C441 C442 1.387 . S
C441 H444 0.950 . S
C442 C441 1.387 . S
C442 C445 1.387 . S
H443 C439 0.950 . S
H444 C441 0.950 . S
C445 C436 1.390 . S
C445 H438 0.950 . S
C445 C442 1.387 . S
C446 C447 1.387 . S
C446 H450 0.950 . S
C446 C455 1.390 . S
C447 C446 1.387 . S
C447 C449 1.387 1_556 S
H448 C455 0.950 . S
C449 C447 1.387 1_554 S
C449 C451 1.390 . S
C449 H453 0.950 . S
H450 C446 0.950 . S
C451 C449 1.390 . S
C451 C452 1.387 1_554 S
C451 H454 0.950 . S
C452 C451 1.387 1_556 S
C452 C455 1.387 . S
H453 C449 0.950 . S
H454 C451 0.950 . S
C455 C446 1.390 . S
C455 H448 0.950 . S
C455 C452 1.387 . S
C456 C457 1.387 . S
C456 H460 0.950 . S
C456 C465 1.390 . S
C457 C456 1.387 . S
C457 C459 1.387 1_655 S
H458 C465 0.950 . S
C459 C457 1.387 1_455 S
C459 C461 1.390 . S
C459 H463 0.950 . S
H460 C456 0.950 . S
C461 C459 1.390 . S
C461 C462 1.389 1_455 S
C461 H464 0.949 . S
C462 C461 1.389 1_655 S
C462 C465 1.387 . S
H463 C459 0.950 . S
H464 C461 0.949 . S
C465 C456 1.390 . S
C465 H458 0.950 . S
C465 C462 1.387 . S
C466 C467 1.387 . S
C466 H470 0.950 . S
C466 C475 1.390 . S
C467 C466 1.387 . S
C467 C469 1.387 1_565 S
H468 C475 0.950 . S
C469 C467 1.387 1_545 S
C469 C471 1.390 . S
C469 H473 0.950 . S
H470 C466 0.950 . S
C471 C469 1.390 . S
C471 C472 1.387 1_545 S
C471 H474 0.950 . S
C472 C471 1.387 1_565 S
C472 C475 1.387 . S
H473 C469 0.950 . S
H474 C471 0.950 . S
C475 C466 1.390 . S
C475 H468 0.950 . S
C475 C472 1.387 . S
C476 C477 1.387 . S
C476 H480 0.950 . S
C476 C485 1.390 . S
C477 C476 1.387 . S
C477 C479 1.387 . S
H478 C485 0.950 . S
C479 C477 1.387 . S
C479 C481 1.390 . S
C479 H483 0.950 . S
H480 C476 0.950 . S
C481 C479 1.390 . S
C481 C482 1.387 . S
C481 H484 0.950 . S
C482 C481 1.387 . S
C482 C485 1.387 . S
H483 C479 0.950 . S
H484 C481 0.950 . S
C485 C476 1.390 . S
C485 H478 0.950 . S
C485 C482 1.387 . S
C486 C487 1.387 . S
C486 H490 0.950 . S
C486 C495 1.390 . S
C487 C486 1.387 . S
C487 C489 1.387 . S
H488 C495 0.950 . S
C489 C487 1.387 . S
C489 C491 1.390 . S
C489 H493 0.950 . S
H490 C486 0.950 . S
C491 C489 1.390 . S
C491 C492 1.387 . S
C491 H494 0.950 . S
C492 C491 1.387 . S
C492 C495 1.387 . S
H493 C489 0.950 . S
H494 C491 0.950 . S
C495 C486 1.390 . S
C495 H488 0.950 . S
C495 C492 1.387 . S
C257 C76 2.005 1_545 S
C262 C119 2.283 1_545 S
C272 C159 1.816 . S
C267 C88 1.799 . S
C282 C178 2.295 . S
C277 C52 2.010 . S
C292 C239 1.581 1_455 S
C287 C64 1.394 1_455 S
C302 C98 2.285 1_564 S
C297 C28 2.005 . S
C307 C40 1.814 . S
C312 C138 1.818 . S
C317 C4 2.021 . S
C322 C199 2.295 1_554 S
C327 C16 1.394 . S
C332 C218 1.581 1_654 S
C342 C100 1.140 . S
C337 C69 1.202 1_655 S
C352 C140 0.596 . S
C347 C81 0.577 . S
C362 C196 1.369 . S
C357 C93 1.195 . S
C367 C57 0.706 . S
C372 C220 0.709 . S
C377 C21 1.208 . S
C382 C121 1.150 . S
C392 C161 0.595 . S
C387 C33 0.591 1_565 S
C402 C207 1.369 . S
C397 C45 1.179 . S
C407 C9 0.705 . S
C412 C241 0.707 . S
C417 C66 1.645 . S
C422 C116 1.864 1_554 S
C427 C78 2.329 . S
C432 C156 2.600 . S
C442 C180 1.644 . S
C437 C90 1.665 . S
C452 C236 2.592 . S
C447 C54 2.332 1_556 S
C457 C18 1.654 1_655 S
C462 C127 1.873 . S
C472 C167 2.600 . S
C467 C30 2.334 1_565 S
C482 C201 1.644 . S
C477 C42 1.691 . S
C487 C6 2.327 . S
C492 C247 2.594 . S
