# Generated by pormake.
# Topology llj, (12,3)-cn, num edge types: 1
# Building blocks:
#     Node 0, Type 0, BuildingBlock: QEWDON_clean_sbu_0, # of connection points: 12
#     Node 1, Type 0, BuildingBlock: QEWDON_clean_sbu_0, # of connection points: 12
#     Node 2, Type 1, BuildingBlock: MIDCAF_clean_linker_0, # of connection points: 3
#     Node 3, Type 1, BuildingBlock: MIDCAF_clean_linker_0, # of connection points: 3
#     Node 4, Type 1, BuildingBlock: MIDCAF_clean_linker_0, # of connection points: 3
#     Node 5, Type 1, BuildingBlock: MIDCAF_clean_linker_0, # of connection points: 3
#     Node 6, Type 1, BuildingBlock: MIDCAF_clean_linker_0, # of connection points: 3
#     Node 7, Type 1, BuildingBlock: MIDCAF_clean_linker_0, # of connection points: 3
#     Node 8, Type 1, BuildingBlock: MIDCAF_clean_linker_0, # of connection points: 3
#     Node 9, Type 1, BuildingBlock: MIDCAF_clean_linker_0, # of connection points: 3
#     Edge 10, Type (0, 1), None
#     Edge 11, Type (0, 1), None
#     Edge 12, Type (0, 1), None
#     Edge 13, Type (0, 1), None
#     Edge 14, Type (0, 1), None
#     Edge 15, Type (0, 1), None
#     Edge 16, Type (0, 1), None
#     Edge 17, Type (0, 1), None
#     Edge 18, Type (0, 1), None
#     Edge 19, Type (0, 1), None
#     Edge 20, Type (0, 1), None
#     Edge 21, Type (0, 1), None
#     Edge 22, Type (0, 1), None
#     Edge 23, Type (0, 1), None
#     Edge 24, Type (0, 1), None
#     Edge 25, Type (0, 1), None
#     Edge 26, Type (0, 1), None
#     Edge 27, Type (0, 1), None
#     Edge 28, Type (0, 1), None
#     Edge 29, Type (0, 1), None
#     Edge 30, Type (0, 1), None
#     Edge 31, Type (0, 1), None
#     Edge 32, Type (0, 1), None
#     Edge 33, Type (0, 1), None
# Relax obj value: 0.011
# Max RMSD: 0.064
# Mean RMSD: 0.058
data_MOF--net-llj--node1-QEWDON_clean_sbu_0--node2-MIDCAF_clean_linker_0--edge1-none
_symmetry_space_group_name_H-M    P1
_symmetry_Int_Tables_number       1
_symmetry_cell_setting            triclinic
loop_
_symmetry_equiv_pos_as_xyz
'x, y, z'
_cell_length_a     26.473499
_cell_length_b     26.443536
_cell_length_c     18.614137
_cell_angle_alpha  89.898017
_cell_angle_beta   90.006128
_cell_angle_gamma 90.001791
loop_
_atom_site_label
_atom_site_type_symbol
_atom_site_fract_x
_atom_site_fract_y
_atom_site_fract_z
_atom_type_partial_charge
Zn0 Zn 0.92001 0.09997 0.90876 0.0
Zn1 Zn 0.9208 0.09854 0.07759 0.0
O2 O 0.96607 0.08996 -0.00667 0.0
H3 H 0.99454 0.06726 -0.00922 0.0
C4 C 0.87972 0.99667 0.8135 0.0
O5 O 0.86261 0.01393 0.875 0.0
Zn6 Zn 0.08989 0.90501 0.07727 0.0
Zn7 Zn 0.09048 0.90382 0.90835 0.0
O8 O 0.0446 0.91388 -0.00699 0.0
H9 H 0.01604 0.9365 -0.00893 0.0
Zn10 Zn 0.90818 0.9166 0.90894 0.0
O11 O 0.9178 0.96274 -0.00656 0.0
Zn12 Zn 0.90896 0.91729 0.07763 0.0
H13 H 0.94049 0.99125 -0.00902 0.0
Zn14 Zn 0.10276 0.08705 0.90839 0.0
O15 O 0.09255 0.04112 -0.00682 0.0
H16 H 0.07021 0.01234 -0.00948 0.0
Zn17 Zn 0.10157 0.08628 0.07742 0.0
C18 C 0.13127 0.00691 0.81333 0.0
O19 O 0.14825 0.98954 0.87494 0.0
O20 O 0.85949 0.14571 0.93187 0.0
O21 O 0.86207 0.14573 0.05151 0.0
O22 O 0.15093 0.85795 0.93145 0.0
O23 O 0.1486 0.8578 0.05111 0.0
O24 O 0.862 0.85628 0.93181 0.0
O25 O 0.86152 0.85879 0.05144 0.0
C26 C 0.00958 0.12196 0.15991 0.0
O27 O 0.14886 0.14735 0.93146 0.0
O28 O 0.14896 0.14483 0.05113 0.0
O29 O 0.05343 0.89621 0.8116 0.0
C30 C 0.84229 0.16044 -0.00771 0.0
O31 O 0.95696 0.10764 0.81189 0.0
C32 C 0.00111 0.88143 0.15969 0.0
O33 O 0.90092 0.9536 0.81196 0.0
C34 C 0.16823 0.84313 -0.00815 0.0
O35 O 0.11018 0.05003 0.81159 0.0
C36 C 0.88563 0.00616 0.15997 0.0
O37 O 0.96161 0.12464 0.16151 0.0
O38 O 0.03086 0.10893 0.10163 0.0
C39 C 0.84692 0.83913 -0.00784 0.0
O40 O 0.04908 0.87873 0.16121 0.0
O41 O 0.97976 0.89457 0.10144 0.0
C42 C 0.12501 0.99724 0.15971 0.0
O43 O 0.88306 0.95812 0.16166 0.0
O44 O 0.89848 0.02755 0.1016 0.0
C45 C 0.16372 0.16451 -0.00814 0.0
O46 O 0.12757 0.04526 0.16132 0.0
O47 O 0.11225 0.97593 0.10133 0.0
C48 C 0.01037 0.87508 0.81331 0.0
O49 O 0.99303 0.85811 0.87494 0.0
C50 C 1.00008 0.12865 0.81351 0.0
O51 O 0.01751 0.14548 0.87508 0.0
Zn52 Zn 0.42002 0.59997 0.40876 0.0
Zn53 Zn 0.4208 0.59854 0.57759 0.0
O54 O 0.46607 0.58996 0.49333 0.0
H55 H 0.49454 0.56725 0.49078 0.0
C56 C 0.37972 0.49667 0.3135 0.0
O57 O 0.36261 0.51394 0.375 0.0
Zn58 Zn 0.58989 0.40501 0.57727 0.0
Zn59 Zn 0.59047 0.40381 0.40835 0.0
O60 O 0.5446 0.41388 0.49301 0.0
H61 H 0.51603 0.4365 0.49107 0.0
Zn62 Zn 0.40817 0.4166 0.40894 0.0
O63 O 0.4178 0.46275 0.49343 0.0
Zn64 Zn 0.40895 0.41729 0.57763 0.0
H65 H 0.44049 0.49125 0.49098 0.0
Zn66 Zn 0.60276 0.58705 0.40839 0.0
O67 O 0.59256 0.54111 0.49318 0.0
H68 H 0.57022 0.51234 0.49052 0.0
Zn69 Zn 0.60157 0.58627 0.57742 0.0
C70 C 0.63127 0.5069 0.31333 0.0
O71 O 0.64825 0.48954 0.37494 0.0
O72 O 0.35949 0.64572 0.43186 0.0
O73 O 0.36208 0.64574 0.55151 0.0
O74 O 0.65092 0.35794 0.43145 0.0
O75 O 0.64859 0.3578 0.55111 0.0
O76 O 0.36199 0.35628 0.43181 0.0
O77 O 0.36151 0.35879 0.55144 0.0
C78 C 0.50959 0.62196 0.65991 0.0
O79 O 0.64887 0.64735 0.43146 0.0
O80 O 0.64896 0.64482 0.55113 0.0
O81 O 0.55342 0.39621 0.3116 0.0
C82 C 0.3423 0.66045 0.49229 0.0
O83 O 0.45697 0.60764 0.31189 0.0
C84 C 0.5011 0.38143 0.65969 0.0
O85 O 0.40092 0.45361 0.31196 0.0
C86 C 0.66822 0.34312 0.49185 0.0
O87 O 0.61019 0.55002 0.31159 0.0
C88 C 0.38563 0.50616 0.65997 0.0
O89 O 0.46162 0.62464 0.66151 0.0
O90 O 0.53086 0.60893 0.60163 0.0
C91 C 0.34691 0.33913 0.49216 0.0
O92 O 0.54907 0.37873 0.66121 0.0
O93 O 0.47975 0.39457 0.60144 0.0
C94 C 0.62501 0.49723 0.65971 0.0
O95 O 0.38306 0.45813 0.66166 0.0
O96 O 0.39848 0.52755 0.6016 0.0
C97 C 0.66373 0.6645 0.49186 0.0
O98 O 0.62758 0.54525 0.66132 0.0
O99 O 0.61225 0.47593 0.60133 0.0
C100 C 0.51036 0.37508 0.31331 0.0
O101 O 0.49302 0.35811 0.37494 0.0
C102 C 0.50009 0.62865 0.31351 0.0
O103 O 0.51752 0.64548 0.37508 0.0
C104 C 0.49825 0.38851 0.18145 0.0
C105 C 0.48018 0.36959 0.2471 0.0
C106 C 0.433 0.34528 0.24893 0.0
C107 C 0.4049 0.33909 0.18608 0.0
H108 H 0.27985 0.26769 0.10774 0.0
H109 H 0.21058 0.20719 0.10837 0.0
H110 H 0.2032 0.21505 0.87658 0.0
H111 H 0.27233 0.27531 0.87581 0.0
H112 H 0.35838 0.33355 0.78818 0.0
H113 H 0.40438 0.34666 0.67585 0.0
H114 H 0.53319 0.40103 0.7948 0.0
H115 H 0.48806 0.38808 0.90668 0.0
H116 H 0.48577 0.39672 0.06879 0.0
H117 H 0.53429 0.40776 0.17839 0.0
H118 H 0.41786 0.33059 0.29883 0.0
H119 H 0.36904 0.31951 0.1893 0.0
N120 N 0.35176 0.32054 0.05292 0.0
N121 N 0.34962 0.32193 0.92691 0.0
N122 N 0.41657 0.36019 -0.0115 0.0
C123 C 0.32821 0.30817 -0.00952 0.0
C124 C 0.39379 0.34811 0.92557 0.0
C125 C 0.39587 0.34677 0.05234 0.0
C126 C 0.28229 0.27597 -0.00839 0.0
C127 C 0.26315 0.25699 0.05688 0.0
C128 C 0.22332 0.22224 0.05733 0.0
C129 C 0.20171 0.2057 -0.00748 0.0
C130 C 0.21922 0.22656 0.92755 0.0
C131 C 0.259 0.26123 0.92709 0.0
C132 C 0.41948 0.35955 0.85669 0.0
C133 C 0.39635 0.3487 0.7904 0.0
C134 C 0.42252 0.35636 0.72598 0.0
C135 C 0.47221 0.37479 0.72671 0.0
C136 C 0.49501 0.38636 0.7927 0.0
C137 C 0.4689 0.37916 0.85688 0.0
C138 C 0.42351 0.35689 0.11998 0.0
C139 C 0.47026 0.38225 0.11858 0.0
C140 C 0.61763 0.49466 0.18156 0.0
C141 C 0.63669 0.47666 0.24719 0.0
C142 C 0.66107 0.42948 0.24907 0.0
C143 C 0.66719 0.4013 0.18632 0.0
H144 H 0.73883 0.27629 0.10827 0.0
H145 H 0.79964 0.20726 0.10887 0.0
H146 H 0.7913 0.1995 0.87717 0.0
H147 H 0.73074 0.26837 0.87644 0.0
H148 H 0.6729 0.35446 0.78867 0.0
H149 H 0.66 0.40049 0.67617 0.0
H150 H 0.60456 0.5291 0.79463 0.0
H151 H 0.6173 0.48393 0.90666 0.0
H152 H 0.60926 0.48203 0.069 0.0
H153 H 0.59832 0.53069 0.17846 0.0
H154 H 0.67587 0.4144 0.29895 0.0
H155 H 0.68681 0.36544 0.1896 0.0
N156 N 0.68561 0.34799 0.05337 0.0
N157 N 0.6841 0.34568 0.92738 0.0
N158 N 0.64578 0.4127 -0.01121 0.0
C159 C 0.69796 0.32436 -0.009 0.0
C160 C 0.65783 0.38983 0.92592 0.0
C161 C 0.6593 0.39208 0.05269 0.0
C162 C 0.7303 0.27852 -0.00781 0.0
C163 C 0.7495 0.25954 0.05743 0.0
C164 C 0.78442 0.21985 0.05786 0.0
C165 C 0.80092 0.19823 -0.00694 0.0
C166 C 0.77983 0.21554 0.92813 0.0
C167 C 0.74499 0.25518 0.9277 0.0
C168 C 0.64637 0.41546 0.85694 0.0
C169 C 0.65755 0.39239 0.79074 0.0
C170 C 0.65001 0.41858 0.72622 0.0
C171 C 0.63138 0.46823 0.72678 0.0
C172 C 0.61941 0.49095 0.79267 0.0
C173 C 0.6265 0.46481 0.85694 0.0
C174 C 0.64925 0.41983 0.12024 0.0
C175 C 0.62384 0.46658 0.11878 0.0
C176 C 0.51574 0.61702 0.79294 0.0
C177 C 0.53854 0.62855 0.72688 0.0
C178 C 0.58824 0.64697 0.72607 0.0
C179 C 0.61439 0.65471 0.79048 0.0
H180 H 0.73824 0.72872 0.8759 0.0
H181 H 0.80741 0.78895 0.87679 0.0
H182 H 0.79993 0.79618 0.10857 0.0
H183 H 0.73064 0.73571 0.10782 0.0
H184 H 0.64147 0.68407 0.1893 0.0
H185 H 0.59262 0.67304 0.29884 0.0
H186 H 0.47611 0.59604 0.1787 0.0
H187 H 0.52465 0.60704 0.06906 0.0
H188 H 0.52265 0.6154 0.90693 0.0
H189 H 0.47756 0.60234 0.79512 0.0
H190 H 0.60639 0.65663 0.67589 0.0
H191 H 0.65236 0.66987 0.7882 0.0
N192 N 0.66102 0.68171 0.92697 0.0
N193 N 0.65873 0.68313 0.05298 0.0
N194 N 0.59403 0.6434 -0.01136 0.0
C195 C 0.68234 0.69551 -0.00947 0.0
C196 C 0.61465 0.65687 0.05246 0.0
C197 C 0.61687 0.65547 0.92568 0.0
C198 C 0.72824 0.72774 -0.00832 0.0
C199 C 0.75156 0.74266 0.9272 0.0
C200 C 0.79137 0.77731 0.92773 0.0
C201 C 0.80887 0.79798 -0.00725 0.0
C202 C 0.78721 0.78129 0.0575 0.0
C203 C 0.74737 0.74655 0.05698 0.0
C204 C 0.58696 0.64678 0.12011 0.0
C205 C 0.60558 0.66455 0.18614 0.0
C206 C 0.57747 0.65838 0.249 0.0
C207 C 0.53026 0.63413 0.24726 0.0
C208 C 0.51217 0.61524 0.18169 0.0
C209 C 0.54018 0.62149 0.1188 0.0
C210 C 0.59124 0.64393 0.85683 0.0
C211 C 0.54184 0.62428 0.85709 0.0
C212 C 0.39101 0.51241 0.79294 0.0
C213 C 0.37907 0.5351 0.7269 0.0
C214 C 0.36032 0.58472 0.72606 0.0
C215 C 0.35269 0.61092 0.79041 0.0
H216 H 0.27918 0.73498 0.87574 0.0
H217 H 0.2187 0.80393 0.87655 0.0
H218 H 0.21129 0.79628 0.10835 0.0
H219 H 0.27202 0.7272 0.10768 0.0
H220 H 0.32391 0.63806 0.18917 0.0
H221 H 0.33502 0.58912 0.29875 0.0
H222 H 0.41265 0.47294 0.17874 0.0
H223 H 0.40154 0.52158 0.06904 0.0
H224 H 0.39305 0.51947 0.90688 0.0
H225 H 0.40594 0.47429 0.79512 0.0
H226 H 0.35032 0.60277 0.6759 0.0
H227 H 0.33728 0.64882 0.7881 0.0
N228 N 0.32617 0.6577 0.92686 0.0
N229 N 0.32494 0.65547 0.05287 0.0
N230 N 0.36469 0.59077 -0.01145 0.0
C231 C 0.31243 0.67905 -0.00959 0.0
C232 C 0.35129 0.61141 0.05236 0.0
C233 C 0.35248 0.61357 0.92558 0.0
C234 C 0.28008 0.7249 -0.00846 0.0
C235 C 0.26515 0.74822 0.92703 0.0
C236 C 0.23035 0.7879 0.92752 0.0
C237 C 0.20955 0.80528 -0.00749 0.0
C238 C 0.22628 0.78365 0.0573 0.0
C239 C 0.26116 0.74393 0.05682 0.0
C240 C 0.36149 0.58371 0.12003 0.0
C241 C 0.34359 0.60222 0.18604 0.0
C242 C 0.3498 0.57406 0.24892 0.0
C243 C 0.37425 0.52692 0.24724 0.0
C244 C 0.39329 0.50895 0.18168 0.0
C245 C 0.38698 0.53701 0.11877 0.0
C246 C 0.3639 0.5879 0.85675 0.0
C247 C 0.38384 0.53856 0.85705 0.0
C248 C 0.99826 0.88851 0.68145 0.0
C249 C 0.98019 0.86959 0.7471 0.0
C250 C 0.93301 0.84527 0.74893 0.0
C251 C 0.90491 0.83908 0.68608 0.0
H252 H 0.77986 0.76768 0.60774 0.0
H253 H 0.71059 0.70719 0.60837 0.0
H254 H 0.70321 0.71504 0.37658 0.0
H255 H 0.77234 0.7753 0.37581 0.0
H256 H 0.85839 0.83355 0.28818 0.0
H257 H 0.90439 0.84665 0.17585 0.0
H258 H 0.0332 0.90103 0.2948 0.0
H259 H 0.98807 0.88807 0.40668 0.0
H260 H 0.98578 0.89672 0.56879 0.0
H261 H 0.03429 0.90776 0.67839 0.0
H262 H 0.91787 0.83059 0.79883 0.0
H263 H 0.86905 0.81951 0.6893 0.0
N264 N 0.85177 0.82053 0.55293 0.0
N265 N 0.84963 0.82192 0.42691 0.0
N266 N 0.91658 0.86018 0.4885 0.0
C267 C 0.82822 0.80816 0.49048 0.0
C268 C 0.8938 0.8481 0.42557 0.0
C269 C 0.89588 0.84677 0.55234 0.0
C270 C 0.7823 0.77596 0.49161 0.0
C271 C 0.76316 0.75698 0.55688 0.0
C272 C 0.72333 0.72223 0.55733 0.0
C273 C 0.70172 0.70569 0.49253 0.0
C274 C 0.71923 0.72655 0.42755 0.0
C275 C 0.75901 0.76122 0.42709 0.0
C276 C 0.91948 0.85954 0.35669 0.0
C277 C 0.89636 0.84869 0.2904 0.0
C278 C 0.92253 0.85636 0.22598 0.0
C279 C 0.97222 0.87479 0.22671 0.0
C280 C 0.99502 0.88636 0.2927 0.0
C281 C 0.9689 0.87915 0.35688 0.0
C282 C 0.92352 0.85689 0.61998 0.0
C283 C 0.97027 0.88224 0.61858 0.0
C284 C 0.11764 0.99466 0.68156 0.0
C285 C 0.13669 0.97667 0.74719 0.0
C286 C 0.16108 0.92949 0.74907 0.0
C287 C 0.1672 0.90131 0.68632 0.0
H288 H 0.23885 0.7763 0.60827 0.0
H289 H 0.29965 0.70727 0.60887 0.0
H290 H 0.29131 0.69951 0.37717 0.0
H291 H 0.23075 0.76838 0.37644 0.0
H292 H 0.17291 0.85446 0.28867 0.0
H293 H 0.16 0.90049 0.17617 0.0
H294 H 0.10455 0.02911 0.29463 0.0
H295 H 0.1173 0.98394 0.40666 0.0
H296 H 0.10927 0.98204 0.56899 0.0
H297 H 0.09832 0.0307 0.67846 0.0
H298 H 0.17588 0.91441 0.79895 0.0
H299 H 0.18682 0.86545 0.6896 0.0
N300 N 0.18562 0.848 0.55337 0.0
N301 N 0.18411 0.84569 0.42738 0.0
N302 N 0.14578 0.9127 0.48879 0.0
C303 C 0.19797 0.82437 0.491 0.0
C304 C 0.15784 0.88984 0.42592 0.0
C305 C 0.15931 0.89209 0.55269 0.0
C306 C 0.23031 0.77853 0.49218 0.0
C307 C 0.24951 0.75955 0.55743 0.0
C308 C 0.28443 0.71986 0.55786 0.0
C309 C 0.30093 0.69823 0.49306 0.0
C310 C 0.27984 0.71555 0.42813 0.0
C311 C 0.245 0.75519 0.4277 0.0
C312 C 0.14638 0.91547 0.35694 0.0
C313 C 0.15756 0.8924 0.29074 0.0
C314 C 0.15002 0.91858 0.22622 0.0
C315 C 0.13138 0.96824 0.22678 0.0
C316 C 0.11941 0.99096 0.29267 0.0
C317 C 0.1265 0.96482 0.35694 0.0
C318 C 0.14926 0.91984 0.62024 0.0
C319 C 0.12384 0.96659 0.61878 0.0
C320 C 0.01573 0.11702 0.29294 0.0
C321 C 0.03853 0.12855 0.22688 0.0
C322 C 0.08823 0.14697 0.22607 0.0
C323 C 0.11438 0.15472 0.29048 0.0
H324 H 0.23824 0.22872 0.3759 0.0
H325 H 0.30741 0.28896 0.37679 0.0
H326 H 0.29992 0.29618 0.60857 0.0
H327 H 0.23063 0.23572 0.60783 0.0
H328 H 0.14147 0.18407 0.6893 0.0
H329 H 0.09262 0.17304 0.79884 0.0
H330 H 0.9761 0.09604 0.6787 0.0
H331 H 0.02465 0.10704 0.56906 0.0
H332 H 0.02264 0.1154 0.40693 0.0
H333 H 0.97755 0.10235 0.29512 0.0
H334 H 0.10639 0.15663 0.17589 0.0
H335 H 0.15235 0.16988 0.2882 0.0
N336 N 0.16101 0.18171 0.42697 0.0
N337 N 0.15872 0.18314 0.55298 0.0
N338 N 0.09403 0.1434 0.48864 0.0
C339 C 0.18233 0.19552 0.49054 0.0
C340 C 0.11464 0.15687 0.55246 0.0
C341 C 0.11686 0.15547 0.42569 0.0
C342 C 0.22824 0.22775 0.49168 0.0
C343 C 0.25156 0.24266 0.4272 0.0
C344 C 0.29136 0.27731 0.42773 0.0
C345 C 0.30886 0.29798 0.49275 0.0
C346 C 0.2872 0.28129 0.5575 0.0
C347 C 0.24736 0.24656 0.55698 0.0
C348 C 0.08695 0.14678 0.62011 0.0
C349 C 0.10557 0.16455 0.68614 0.0
C350 C 0.07746 0.15838 0.749 0.0
C351 C 0.03025 0.13413 0.74726 0.0
C352 C 0.01216 0.11524 0.68169 0.0
C353 C 0.04017 0.12149 0.6188 0.0
C354 C 0.09124 0.14393 0.35683 0.0
C355 C 0.04183 0.12429 0.35709 0.0
C356 C 0.89101 0.01241 0.29294 0.0
C357 C 0.87907 0.0351 0.2269 0.0
C358 C 0.86031 0.08471 0.22606 0.0
C359 C 0.85268 0.11091 0.29041 0.0
H360 H 0.77917 0.23497 0.37574 0.0
H361 H 0.71868 0.30392 0.37655 0.0
H362 H 0.71128 0.29627 0.60835 0.0
H363 H 0.77201 0.22719 0.60768 0.0
H364 H 0.8239 0.13805 0.68917 0.0
H365 H 0.83501 0.08911 0.79875 0.0
H366 H 0.91265 0.97294 0.67874 0.0
H367 H 0.90154 0.02157 0.56904 0.0
H368 H 0.89305 0.01947 0.40688 0.0
H369 H 0.90595 0.97429 0.29512 0.0
H370 H 0.85031 0.10276 0.1759 0.0
H371 H 0.83727 0.14882 0.2881 0.0
N372 N 0.82616 0.15769 0.42686 0.0
N373 N 0.82493 0.15547 0.55287 0.0
N374 N 0.86469 0.09076 0.48855 0.0
C375 C 0.81242 0.17904 0.49041 0.0
C376 C 0.85128 0.1114 0.55236 0.0
C377 C 0.85247 0.11356 0.42558 0.0
C378 C 0.78007 0.22489 0.49154 0.0
C379 C 0.76514 0.24821 0.42703 0.0
C380 C 0.73034 0.28789 0.42752 0.0
C381 C 0.70954 0.30527 0.49251 0.0
C382 C 0.72627 0.28364 0.5573 0.0
C383 C 0.76115 0.24392 0.55682 0.0
C384 C 0.86148 0.08371 0.62003 0.0
C385 C 0.84358 0.10222 0.68604 0.0
C386 C 0.84979 0.07405 0.74892 0.0
C387 C 0.87425 0.02691 0.74724 0.0
C388 C 0.89329 0.00894 0.68168 0.0
C389 C 0.88698 0.037 0.61877 0.0
C390 C 0.86389 0.08789 0.35675 0.0
C391 C 0.88384 0.03856 0.35705 0.0
loop_
_geom_bond_atom_site_label_1
_geom_bond_atom_site_label_2
_geom_bond_distance
_geom_bond_site_symmetry_2
_ccdc_geom_bond_type
Zn0 O2 1.933 1_556 S
Zn0 O20 1.985 . S
Zn0 O31 1.955 . S
Zn1 O2 1.911 . S
Zn1 O21 1.970 . S
Zn1 O37 1.945 . S
Zn1 O44 1.981 . S
O2 Zn0 1.933 1_554 S
O2 Zn1 1.911 . S
O2 H3 0.843 1_655 S
H3 O2 0.843 1_455 S
C4 O5 1.246 . S
C4 O33 1.276 1_545 S
O5 C4 1.246 . S
Zn6 O8 1.911 . S
Zn6 O23 1.970 . S
Zn6 O40 1.945 . S
Zn6 O47 1.981 . S
Zn7 O8 1.933 1_556 S
Zn7 O22 1.985 . S
Zn7 O29 1.955 . S
O8 Zn6 1.911 . S
O8 Zn7 1.933 1_554 S
O8 H9 0.841 1_455 S
H9 O8 0.841 1_655 S
Zn10 O11 1.933 1_556 S
Zn10 O24 1.985 . S
Zn10 O33 1.955 . S
O11 Zn10 1.933 1_554 S
O11 Zn12 1.911 . S
O11 H13 0.843 1_565 S
Zn12 O11 1.911 . S
Zn12 O25 1.970 . S
Zn12 O41 1.981 . S
Zn12 O43 1.945 . S
H13 O11 0.843 1_545 S
Zn14 O15 1.933 1_556 S
Zn14 O27 1.985 . S
Zn14 O35 1.955 . S
O15 Zn14 1.933 1_554 S
O15 H16 0.841 1_545 S
O15 Zn17 1.911 . S
H16 O15 0.841 1_565 S
Zn17 O15 1.911 . S
Zn17 O28 1.970 . S
Zn17 O38 1.981 . S
Zn17 O46 1.945 . S
C18 O19 1.246 . S
C18 O35 1.276 1_565 S
O19 C18 1.246 . S
O20 Zn0 1.985 . S
O20 C30 1.245 1_556 S
O21 Zn1 1.970 . S
O21 C30 1.263 . S
O22 Zn7 1.985 . S
O22 C34 1.245 1_556 S
O23 Zn6 1.970 . S
O23 C34 1.263 . S
O24 Zn10 1.985 . S
O24 C39 1.245 1_556 S
O25 Zn12 1.970 . S
O25 C39 1.263 . S
C26 O37 1.262 1_455 S
C26 O38 1.245 . S
O27 Zn14 1.985 . S
O27 C45 1.245 1_556 S
O28 Zn17 1.970 . S
O28 C45 1.263 . S
O29 Zn7 1.955 . S
O29 C48 1.276 1_455 S
C30 O20 1.245 1_554 S
C30 O21 1.263 . S
O31 Zn0 1.955 . S
O31 C50 1.276 1_655 S
C32 O40 1.262 1_655 S
C32 O41 1.245 . S
O33 C4 1.276 1_565 S
O33 Zn10 1.955 . S
C34 O22 1.245 1_554 S
C34 O23 1.263 . S
O35 Zn14 1.955 . S
O35 C18 1.276 1_545 S
C36 O43 1.262 1_545 S
C36 O44 1.245 . S
O37 Zn1 1.945 . S
O37 C26 1.262 1_655 S
O38 Zn17 1.981 . S
O38 C26 1.245 . S
C39 O24 1.245 1_554 S
C39 O25 1.263 . S
O40 Zn6 1.945 . S
O40 C32 1.262 1_455 S
O41 Zn12 1.981 . S
O41 C32 1.245 . S
C42 O46 1.262 1_565 S
C42 O47 1.245 . S
O43 Zn12 1.945 . S
O43 C36 1.262 1_565 S
O44 Zn1 1.981 . S
O44 C36 1.245 . S
C45 O27 1.245 1_554 S
C45 O28 1.263 . S
O46 Zn17 1.945 . S
O46 C42 1.262 1_545 S
O47 Zn6 1.981 . S
O47 C42 1.245 . S
C48 O29 1.276 1_655 S
C48 O49 1.246 . S
O49 C48 1.246 . S
C50 O31 1.276 1_455 S
C50 O51 1.246 . S
O51 C50 1.246 . S
Zn52 O54 1.933 . S
Zn52 O72 1.985 . S
Zn52 O83 1.955 . S
Zn53 O54 1.911 . S
Zn53 O73 1.970 . S
Zn53 O89 1.945 . S
Zn53 O96 1.981 . S
O54 Zn52 1.933 . S
O54 Zn53 1.911 . S
O54 H55 0.841 . S
H55 O54 0.841 . S
C56 O57 1.246 . S
C56 O85 1.276 . S
O57 C56 1.246 . S
Zn58 O60 1.911 . S
Zn58 O75 1.970 . S
Zn58 O92 1.945 . S
Zn58 O99 1.981 . S
Zn59 O60 1.933 . S
Zn59 O74 1.985 . S
Zn59 O81 1.955 . S
O60 Zn58 1.911 . S
O60 Zn59 1.933 . S
O60 H61 0.841 . S
H61 O60 0.841 . S
Zn62 O63 1.933 . S
Zn62 O76 1.985 . S
Zn62 O85 1.955 . S
O63 Zn62 1.933 . S
O63 Zn64 1.911 . S
O63 H65 0.841 . S
Zn64 O63 1.911 . S
Zn64 O77 1.970 . S
Zn64 O93 1.981 . S
Zn64 O95 1.945 . S
H65 O63 0.841 . S
Zn66 O67 1.933 . S
Zn66 O79 1.985 . S
Zn66 O87 1.955 . S
O67 Zn66 1.933 . S
O67 H68 0.841 . S
O67 Zn69 1.911 . S
H68 O67 0.841 . S
Zn69 O67 1.911 . S
Zn69 O80 1.970 . S
Zn69 O90 1.981 . S
Zn69 O98 1.945 . S
C70 O71 1.246 . S
C70 O87 1.276 . S
O71 C70 1.246 . S
O72 Zn52 1.985 . S
O72 C82 1.245 . S
O73 Zn53 1.970 . S
O73 C82 1.263 . S
O74 Zn59 1.985 . S
O74 C86 1.245 . S
O75 Zn58 1.970 . S
O75 C86 1.263 . S
O76 Zn62 1.985 . S
O76 C91 1.245 . S
O77 Zn64 1.970 . S
O77 C91 1.263 . S
C78 O89 1.262 . S
C78 O90 1.245 . S
O79 Zn66 1.985 . S
O79 C97 1.245 . S
O80 Zn69 1.970 . S
O80 C97 1.263 . S
O81 Zn59 1.955 . S
O81 C100 1.276 . S
C82 O72 1.245 . S
C82 O73 1.263 . S
O83 Zn52 1.955 . S
O83 C102 1.276 . S
C84 O92 1.262 . S
C84 O93 1.245 . S
O85 C56 1.276 . S
O85 Zn62 1.955 . S
C86 O74 1.245 . S
C86 O75 1.263 . S
O87 Zn66 1.955 . S
O87 C70 1.276 . S
C88 O95 1.262 . S
C88 O96 1.245 . S
O89 Zn53 1.945 . S
O89 C78 1.262 . S
O90 Zn69 1.981 . S
O90 C78 1.245 . S
C91 O76 1.245 . S
C91 O77 1.263 . S
O92 Zn58 1.945 . S
O92 C84 1.262 . S
O93 Zn64 1.981 . S
O93 C84 1.245 . S
C94 O98 1.262 . S
C94 O99 1.245 . S
O95 Zn64 1.945 . S
O95 C88 1.262 . S
O96 Zn53 1.981 . S
O96 C88 1.245 . S
C97 O79 1.245 . S
C97 O80 1.263 . S
O98 Zn69 1.945 . S
O98 C94 1.262 . S
O99 Zn58 1.981 . S
O99 C94 1.245 . S
C100 O81 1.276 . S
C100 O101 1.246 . S
O101 C100 1.246 . S
C102 O83 1.276 . S
C102 O103 1.246 . S
O103 C102 1.246 . S
C104 C105 1.384 . S
C104 H117 0.947 . S
C104 C139 1.382 . S
C105 C104 1.384 . S
C105 C106 1.378 . S
C106 C105 1.378 . S
C106 C107 1.378 . S
C106 H118 0.952 . S
C107 C106 1.378 . S
C107 H119 0.950 . S
C107 C138 1.383 . S
H108 C127 0.947 . S
H109 C128 0.946 . S
H110 C130 0.953 . S
H111 C131 0.945 . S
H112 C133 0.952 . S
H113 C134 0.949 . S
H114 C136 0.950 . S
H115 C137 0.948 . S
H116 C139 0.951 . S
H117 C104 0.947 . S
H118 C106 0.952 . S
H119 C107 0.950 . S
N120 C123 1.382 . S
N120 C125 1.363 . S
N121 C123 1.371 1_556 S
N121 C124 1.372 . S
N122 C124 1.361 . S
N122 C125 1.377 1_556 S
C123 N120 1.382 . S
C123 N121 1.371 1_554 S
C123 C126 1.480 1_554 S
C124 N121 1.372 . S
C124 N122 1.361 . S
C124 C132 1.457 . S
C125 N120 1.363 . S
C125 N122 1.377 1_554 S
C125 C138 1.479 . S
C126 C123 1.480 1_556 S
C126 C127 1.380 1_556 S
C126 C131 1.388 . S
C127 H108 0.947 . S
C127 C126 1.380 1_554 S
C127 C128 1.388 . S
C128 H109 0.946 . S
C128 C127 1.388 . S
C128 C129 1.384 1_554 S
C129 C128 1.384 1_556 S
C129 C130 1.376 . S
C130 H110 0.953 . S
C130 C129 1.376 . S
C130 C131 1.369 . S
C131 H111 0.945 . S
C131 C126 1.388 . S
C131 C130 1.369 . S
C132 C124 1.457 . S
C132 C133 1.372 . S
C132 C137 1.364 . S
C133 H112 0.952 . S
C133 C132 1.372 . S
C133 C134 1.389 . S
C134 H113 0.949 . S
C134 C133 1.389 . S
C134 C135 1.387 . S
C135 C134 1.387 . S
C135 C136 1.372 . S
C136 H114 0.950 . S
C136 C135 1.372 . S
C136 C137 1.379 . S
C137 H115 0.948 . S
C137 C132 1.364 . S
C137 C136 1.379 . S
C138 C107 1.383 . S
C138 C125 1.479 . S
C138 C139 1.398 . S
C139 C104 1.382 . S
C139 H116 0.951 . S
C139 C138 1.398 . S
C140 C141 1.384 . S
C140 H153 0.947 . S
C140 C175 1.382 . S
C141 C140 1.384 . S
C141 C142 1.378 . S
C142 C141 1.378 . S
C142 C143 1.378 . S
C142 H154 0.952 . S
C143 C142 1.378 . S
C143 H155 0.950 . S
C143 C174 1.383 . S
H144 C163 0.947 . S
H145 C164 0.946 . S
H146 C166 0.953 . S
H147 C167 0.945 . S
H148 C169 0.952 . S
H149 C170 0.949 . S
H150 C172 0.950 . S
H151 C173 0.948 . S
H152 C175 0.951 . S
H153 C140 0.947 . S
H154 C142 0.952 . S
H155 C143 0.950 . S
N156 C159 1.394 . S
N156 C161 1.363 . S
N157 C159 1.359 1_556 S
N157 C160 1.372 . S
N158 C160 1.361 . S
N158 C161 1.377 1_556 S
C159 N156 1.394 . S
C159 N157 1.359 1_554 S
C159 C162 1.479 1_554 S
C160 N157 1.372 . S
C160 N158 1.361 . S
C160 C168 1.457 . S
C161 N156 1.363 . S
C161 N158 1.377 1_554 S
C161 C174 1.479 . S
C162 C159 1.479 1_556 S
C162 C163 1.370 1_556 S
C162 C167 1.397 . S
C163 H144 0.947 . S
C163 C162 1.370 1_554 S
C163 C164 1.388 . S
C164 H145 0.946 . S
C164 C163 1.388 . S
C164 C165 1.376 1_554 S
C165 C164 1.376 1_556 S
C165 C166 1.384 . S
C166 H146 0.953 . S
C166 C165 1.384 . S
C166 C167 1.369 . S
C167 H147 0.945 . S
C167 C162 1.397 . S
C167 C166 1.369 . S
C168 C160 1.457 . S
C168 C169 1.372 . S
C168 C173 1.364 . S
C169 H148 0.952 . S
C169 C168 1.372 . S
C169 C170 1.389 . S
C170 H149 0.949 . S
C170 C169 1.389 . S
C170 C171 1.387 . S
C171 C170 1.387 . S
C171 C172 1.372 . S
C172 H150 0.950 . S
C172 C171 1.372 . S
C172 C173 1.379 . S
C173 H151 0.948 . S
C173 C168 1.364 . S
C173 C172 1.379 . S
C174 C143 1.383 . S
C174 C161 1.479 . S
C174 C175 1.398 . S
C175 C140 1.382 . S
C175 H152 0.951 . S
C175 C174 1.398 . S
C176 C177 1.384 . S
C176 H189 0.947 . S
C176 C211 1.382 . S
C177 C176 1.384 . S
C177 C178 1.378 . S
C178 C177 1.378 . S
C178 C179 1.378 . S
C178 H190 0.952 . S
C179 C178 1.378 . S
C179 H191 0.950 . S
C179 C210 1.383 . S
H180 C199 0.947 . S
H181 C200 0.946 . S
H182 C202 0.953 . S
H183 C203 0.945 . S
H184 C205 0.952 . S
H185 C206 0.949 . S
H186 C208 0.950 . S
H187 C209 0.948 . S
H188 C211 0.951 . S
H189 C176 0.947 . S
H190 C178 0.952 . S
H191 C179 0.950 . S
N192 C195 1.382 1_556 S
N192 C197 1.363 . S
N193 C195 1.371 . S
N193 C196 1.372 . S
N194 C196 1.361 . S
N194 C197 1.377 1_554 S
C195 N192 1.382 1_554 S
C195 N193 1.371 . S
C195 C198 1.480 . S
C196 N193 1.372 . S
C196 N194 1.361 . S
C196 C204 1.457 . S
C197 N192 1.363 . S
C197 N194 1.377 1_556 S
C197 C210 1.479 . S
C198 C195 1.480 . S
C198 C199 1.383 1_554 S
C198 C203 1.385 . S
C199 H180 0.947 . S
C199 C198 1.383 1_556 S
C199 C200 1.388 . S
C200 H181 0.946 . S
C200 C199 1.388 . S
C200 C201 1.384 1_556 S
C201 C200 1.384 1_554 S
C201 C202 1.377 . S
C202 H182 0.953 . S
C202 C201 1.377 . S
C202 C203 1.369 . S
C203 H183 0.945 . S
C203 C198 1.385 . S
C203 C202 1.369 . S
C204 C196 1.457 . S
C204 C205 1.372 . S
C204 C209 1.364 . S
C205 H184 0.952 . S
C205 C204 1.372 . S
C205 C206 1.389 . S
C206 H185 0.949 . S
C206 C205 1.389 . S
C206 C207 1.387 . S
C207 C206 1.387 . S
C207 C208 1.372 . S
C208 H186 0.950 . S
C208 C207 1.372 . S
C208 C209 1.379 . S
C209 H187 0.948 . S
C209 C204 1.364 . S
C209 C208 1.379 . S
C210 C179 1.383 . S
C210 C197 1.479 . S
C210 C211 1.398 . S
C211 C176 1.382 . S
C211 H188 0.951 . S
C211 C210 1.398 . S
C212 C213 1.384 . S
C212 H225 0.947 . S
C212 C247 1.382 . S
C213 C212 1.384 . S
C213 C214 1.378 . S
C214 C213 1.378 . S
C214 C215 1.378 . S
C214 H226 0.952 . S
C215 C214 1.378 . S
C215 H227 0.950 . S
C215 C246 1.383 . S
H216 C235 0.947 . S
H217 C236 0.946 . S
H218 C238 0.953 . S
H219 C239 0.945 . S
H220 C241 0.952 . S
H221 C242 0.949 . S
H222 C244 0.950 . S
H223 C245 0.948 . S
H224 C247 0.951 . S
H225 C212 0.947 . S
H226 C214 0.952 . S
H227 C215 0.950 . S
N228 C231 1.382 1_556 S
N228 C233 1.363 . S
N229 C231 1.371 . S
N229 C232 1.372 . S
N230 C232 1.361 . S
N230 C233 1.377 1_554 S
C231 N228 1.382 1_554 S
C231 N229 1.371 . S
C231 C234 1.480 . S
C232 N229 1.372 . S
C232 N230 1.361 . S
C232 C240 1.457 . S
C233 N228 1.363 . S
C233 N230 1.377 1_556 S
C233 C246 1.479 . S
C234 C231 1.480 . S
C234 C235 1.383 1_554 S
C234 C239 1.385 . S
C235 H216 0.947 . S
C235 C234 1.383 1_556 S
C235 C236 1.388 . S
C236 H217 0.946 . S
C236 C235 1.388 . S
C236 C237 1.384 1_556 S
C237 C236 1.384 1_554 S
C237 C238 1.377 . S
C238 H218 0.953 . S
C238 C237 1.377 . S
C238 C239 1.369 . S
C239 H219 0.945 . S
C239 C234 1.385 . S
C239 C238 1.369 . S
C240 C232 1.457 . S
C240 C241 1.372 . S
C240 C245 1.364 . S
C241 H220 0.952 . S
C241 C240 1.372 . S
C241 C242 1.389 . S
C242 H221 0.949 . S
C242 C241 1.389 . S
C242 C243 1.387 . S
C243 C242 1.387 . S
C243 C244 1.372 . S
C244 H222 0.950 . S
C244 C243 1.372 . S
C244 C245 1.379 . S
C245 H223 0.948 . S
C245 C240 1.364 . S
C245 C244 1.379 . S
C246 C215 1.383 . S
C246 C233 1.479 . S
C246 C247 1.398 . S
C247 C212 1.382 . S
C247 H224 0.951 . S
C247 C246 1.398 . S
C248 C249 1.384 . S
C248 H261 0.947 1_655 S
C248 C283 1.382 . S
C249 C248 1.384 . S
C249 C250 1.378 . S
C250 C249 1.378 . S
C250 C251 1.378 . S
C250 H262 0.952 . S
C251 C250 1.378 . S
C251 H263 0.950 . S
C251 C282 1.383 . S
H252 C271 0.947 . S
H253 C272 0.946 . S
H254 C274 0.953 . S
H255 C275 0.945 . S
H256 C277 0.952 . S
H257 C278 0.949 . S
H258 C280 0.950 1_455 S
H259 C281 0.948 . S
H260 C283 0.951 . S
H261 C248 0.947 1_455 S
H262 C250 0.952 . S
H263 C251 0.950 . S
N264 C267 1.382 . S
N264 C269 1.363 . S
N265 C267 1.371 . S
N265 C268 1.372 . S
N266 C268 1.361 . S
N266 C269 1.377 . S
C267 N264 1.382 . S
C267 N265 1.371 . S
C267 C270 1.480 . S
C268 N265 1.372 . S
C268 N266 1.361 . S
C268 C276 1.457 . S
C269 N264 1.363 . S
C269 N266 1.377 . S
C269 C282 1.479 . S
C270 C267 1.480 . S
C270 C271 1.383 . S
C270 C275 1.385 . S
C271 H252 0.947 . S
C271 C270 1.383 . S
C271 C272 1.388 . S
C272 H253 0.946 . S
C272 C271 1.388 . S
C272 C273 1.384 . S
C273 C272 1.384 . S
C273 C274 1.377 . S
C274 H254 0.953 . S
C274 C273 1.377 . S
C274 C275 1.369 . S
C275 H255 0.945 . S
C275 C270 1.385 . S
C275 C274 1.369 . S
C276 C268 1.457 . S
C276 C277 1.372 . S
C276 C281 1.364 . S
C277 H256 0.952 . S
C277 C276 1.372 . S
C277 C278 1.389 . S
C278 H257 0.949 . S
C278 C277 1.389 . S
C278 C279 1.387 . S
C279 C278 1.387 . S
C279 C280 1.372 . S
C280 H258 0.950 1_655 S
C280 C279 1.372 . S
C280 C281 1.379 . S
C281 H259 0.948 . S
C281 C276 1.364 . S
C281 C280 1.379 . S
C282 C251 1.383 . S
C282 C269 1.479 . S
C282 C283 1.398 . S
C283 C248 1.382 . S
C283 H260 0.951 . S
C283 C282 1.398 . S
C284 C285 1.384 . S
C284 H297 0.947 1_565 S
C284 C319 1.382 . S
C285 C284 1.384 . S
C285 C286 1.378 . S
C286 C285 1.378 . S
C286 C287 1.378 . S
C286 H298 0.952 . S
C287 C286 1.378 . S
C287 H299 0.950 . S
C287 C318 1.383 . S
H288 C307 0.947 . S
H289 C308 0.946 . S
H290 C310 0.953 . S
H291 C311 0.945 . S
H292 C313 0.952 . S
H293 C314 0.949 . S
H294 C316 0.950 1_545 S
H295 C317 0.948 . S
H296 C319 0.951 . S
H297 C284 0.947 1_545 S
H298 C286 0.952 . S
H299 C287 0.950 . S
N300 C303 1.382 . S
N300 C305 1.363 . S
N301 C303 1.371 . S
N301 C304 1.372 . S
N302 C304 1.361 . S
N302 C305 1.377 . S
C303 N300 1.382 . S
C303 N301 1.371 . S
C303 C306 1.480 . S
C304 N301 1.372 . S
C304 N302 1.361 . S
C304 C312 1.457 . S
C305 N300 1.363 . S
C305 N302 1.377 . S
C305 C318 1.479 . S
C306 C303 1.480 . S
C306 C307 1.383 . S
C306 C311 1.385 . S
C307 H288 0.947 . S
C307 C306 1.383 . S
C307 C308 1.388 . S
C308 H289 0.946 . S
C308 C307 1.388 . S
C308 C309 1.384 . S
C309 C308 1.384 . S
C309 C310 1.377 . S
C310 H290 0.953 . S
C310 C309 1.377 . S
C310 C311 1.369 . S
C311 H291 0.945 . S
C311 C306 1.385 . S
C311 C310 1.369 . S
C312 C304 1.457 . S
C312 C313 1.372 . S
C312 C317 1.364 . S
C313 H292 0.952 . S
C313 C312 1.372 . S
C313 C314 1.389 . S
C314 H293 0.949 . S
C314 C313 1.389 . S
C314 C315 1.387 . S
C315 C314 1.387 . S
C315 C316 1.372 . S
C316 H294 0.950 1_565 S
C316 C315 1.372 . S
C316 C317 1.379 . S
C317 H295 0.948 . S
C317 C312 1.364 . S
C317 C316 1.379 . S
C318 C287 1.383 . S
C318 C305 1.479 . S
C318 C319 1.398 . S
C319 C284 1.382 . S
C319 H296 0.951 . S
C319 C318 1.398 . S
C320 C321 1.384 . S
C320 H333 0.947 1_455 S
C320 C355 1.382 . S
C321 C320 1.384 . S
C321 C322 1.378 . S
C322 C321 1.378 . S
C322 C323 1.378 . S
C322 H334 0.952 . S
C323 C322 1.378 . S
C323 H335 0.950 . S
C323 C354 1.383 . S
H324 C343 0.947 . S
H325 C344 0.946 . S
H326 C346 0.953 . S
H327 C347 0.945 . S
H328 C349 0.952 . S
H329 C350 0.949 . S
H330 C352 0.957 . S
H331 C353 0.948 . S
H332 C355 0.951 . S
H333 C320 0.947 1_655 S
H334 C322 0.952 . S
H335 C323 0.950 . S
N336 C339 1.382 . S
N336 C341 1.363 . S
N337 C339 1.371 . S
N337 C340 1.372 . S
N338 C340 1.361 . S
N338 C341 1.377 . S
C339 N336 1.382 . S
C339 N337 1.371 . S
C339 C342 1.480 . S
C340 N337 1.372 . S
C340 N338 1.361 . S
C340 C348 1.457 . S
C341 N336 1.363 . S
C341 N338 1.377 . S
C341 C354 1.479 . S
C342 C339 1.480 . S
C342 C343 1.383 . S
C342 C347 1.385 . S
C343 H324 0.947 . S
C343 C342 1.383 . S
C343 C344 1.388 . S
C344 H325 0.946 . S
C344 C343 1.388 . S
C344 C345 1.384 . S
C345 C344 1.384 . S
C345 C346 1.377 . S
C346 H326 0.953 . S
C346 C345 1.377 . S
C346 C347 1.369 . S
C347 H327 0.945 . S
C347 C342 1.385 . S
C347 C346 1.369 . S
C348 C340 1.457 . S
C348 C349 1.372 . S
C348 C353 1.364 . S
C349 H328 0.952 . S
C349 C348 1.372 . S
C349 C350 1.389 . S
C350 H329 0.949 . S
C350 C349 1.389 . S
C350 C351 1.387 . S
C351 C350 1.387 . S
C351 C352 1.372 . S
C352 H330 0.957 . S
C352 C351 1.372 . S
C352 C353 1.379 . S
C353 H331 0.948 . S
C353 C348 1.364 . S
C353 C352 1.379 . S
C354 C323 1.383 . S
C354 C341 1.479 . S
C354 C355 1.398 . S
C355 C320 1.382 . S
C355 H332 0.951 . S
C355 C354 1.398 . S
C356 C357 1.384 . S
C356 H369 0.947 1_545 S
C356 C391 1.382 . S
C357 C356 1.384 . S
C357 C358 1.378 . S
C358 C357 1.378 . S
C358 C359 1.378 . S
C358 H370 0.952 . S
C359 C358 1.378 . S
C359 H371 0.950 . S
C359 C390 1.383 . S
H360 C379 0.947 . S
H361 C380 0.946 . S
H362 C382 0.953 . S
H363 C383 0.945 . S
H364 C385 0.952 . S
H365 C386 0.949 . S
H366 C388 0.950 . S
H367 C389 0.948 . S
H368 C391 0.951 . S
H369 C356 0.947 1_565 S
H370 C358 0.952 . S
H371 C359 0.950 . S
N372 C375 1.382 . S
N372 C377 1.363 . S
N373 C375 1.371 . S
N373 C376 1.372 . S
N374 C376 1.361 . S
N374 C377 1.377 . S
C375 N372 1.382 . S
C375 N373 1.371 . S
C375 C378 1.480 . S
C376 N373 1.372 . S
C376 N374 1.361 . S
C376 C384 1.457 . S
C377 N372 1.363 . S
C377 N374 1.377 . S
C377 C390 1.479 . S
C378 C375 1.480 . S
C378 C379 1.383 . S
C378 C383 1.385 . S
C379 H360 0.947 . S
C379 C378 1.383 . S
C379 C380 1.388 . S
C380 H361 0.946 . S
C380 C379 1.388 . S
C380 C381 1.384 . S
C381 C380 1.384 . S
C381 C382 1.377 . S
C382 H362 0.953 . S
C382 C381 1.377 . S
C382 C383 1.369 . S
C383 H363 0.945 . S
C383 C378 1.385 . S
C383 C382 1.369 . S
C384 C376 1.457 . S
C384 C385 1.372 . S
C384 C389 1.364 . S
C385 H364 0.952 . S
C385 C384 1.372 . S
C385 C386 1.389 . S
C386 H365 0.949 . S
C386 C385 1.389 . S
C386 C387 1.387 . S
C387 C386 1.387 . S
C387 C388 1.372 . S
C388 H366 0.950 . S
C388 C387 1.372 . S
C388 C389 1.379 . S
C389 H367 0.948 . S
C389 C384 1.364 . S
C389 C388 1.379 . S
C390 C359 1.383 . S
C390 C377 1.479 . S
C390 C391 1.398 . S
C391 C356 1.382 . S
C391 H368 0.951 . S
C391 C390 1.398 . S
C45 C129 1.951 1_554 S
C30 C165 1.950 1_554 S
C39 C201 1.809 . S
C237 C34 1.809 . S
C97 C273 1.951 . S
C309 C82 1.950 . S
C345 C91 1.809 . S
C381 C86 1.809 . S
C321 C26 1.624 . S
C357 C36 1.622 . S
C279 C32 1.723 . S
C315 C42 1.726 . S
C18 C285 1.914 . S
C351 C50 1.779 . S
C4 C387 1.782 . S
C48 C249 1.918 . S
C177 C78 1.624 . S
C88 C213 1.621 . S
C135 C84 1.723 . S
C171 C94 1.725 . S
C141 C70 1.915 . S
C207 C102 1.780 . S
C56 C243 1.782 . S
C100 C105 1.918 . S
