# Generated by pormake.
# Topology csq, (4,8)-cn, num edge types: 1
# Building blocks:
#     Node 0, Type 0, BuildingBlock: NAHDIM_clean_linker_0, # of connection points: 4
#     Node 1, Type 0, BuildingBlock: NAHDIM_clean_linker_0, # of connection points: 4
#     Node 2, Type 0, BuildingBlock: NAHDIM_clean_linker_0, # of connection points: 4
#     Node 3, Type 0, BuildingBlock: NAHDIM_clean_linker_0, # of connection points: 4
#     Node 4, Type 0, BuildingBlock: NAHDIM_clean_linker_0, # of connection points: 4
#     Node 5, Type 0, BuildingBlock: NAHDIM_clean_linker_0, # of connection points: 4
#     Node 6, Type 1, BuildingBlock: TAGTUT_clean_sbu_1, # of connection points: 8
#     Node 7, Type 1, BuildingBlock: TAGTUT_clean_sbu_1, # of connection points: 8
#     Node 8, Type 1, BuildingBlock: TAGTUT_clean_sbu_1, # of connection points: 8
#     Edge 9, Type (0, 1), BuildingBlock: XIVTED_clean_linker_0, # of connection points: 2
#     Edge 10, Type (0, 1), BuildingBlock: XIVTED_clean_linker_0, # of connection points: 2
#     Edge 11, Type (0, 1), BuildingBlock: XIVTED_clean_linker_0, # of connection points: 2
#     Edge 12, Type (0, 1), BuildingBlock: XIVTED_clean_linker_0, # of connection points: 2
#     Edge 13, Type (0, 1), BuildingBlock: XIVTED_clean_linker_0, # of connection points: 2
#     Edge 14, Type (0, 1), BuildingBlock: XIVTED_clean_linker_0, # of connection points: 2
#     Edge 15, Type (0, 1), BuildingBlock: XIVTED_clean_linker_0, # of connection points: 2
#     Edge 16, Type (0, 1), BuildingBlock: XIVTED_clean_linker_0, # of connection points: 2
#     Edge 17, Type (0, 1), BuildingBlock: XIVTED_clean_linker_0, # of connection points: 2
#     Edge 18, Type (0, 1), BuildingBlock: XIVTED_clean_linker_0, # of connection points: 2
#     Edge 19, Type (0, 1), BuildingBlock: XIVTED_clean_linker_0, # of connection points: 2
#     Edge 20, Type (0, 1), BuildingBlock: XIVTED_clean_linker_0, # of connection points: 2
#     Edge 21, Type (0, 1), BuildingBlock: XIVTED_clean_linker_0, # of connection points: 2
#     Edge 22, Type (0, 1), BuildingBlock: XIVTED_clean_linker_0, # of connection points: 2
#     Edge 23, Type (0, 1), BuildingBlock: XIVTED_clean_linker_0, # of connection points: 2
#     Edge 24, Type (0, 1), BuildingBlock: XIVTED_clean_linker_0, # of connection points: 2
#     Edge 25, Type (0, 1), BuildingBlock: XIVTED_clean_linker_0, # of connection points: 2
#     Edge 26, Type (0, 1), BuildingBlock: XIVTED_clean_linker_0, # of connection points: 2
#     Edge 27, Type (0, 1), BuildingBlock: XIVTED_clean_linker_0, # of connection points: 2
#     Edge 28, Type (0, 1), BuildingBlock: XIVTED_clean_linker_0, # of connection points: 2
#     Edge 29, Type (0, 1), BuildingBlock: XIVTED_clean_linker_0, # of connection points: 2
#     Edge 30, Type (0, 1), BuildingBlock: XIVTED_clean_linker_0, # of connection points: 2
#     Edge 31, Type (0, 1), BuildingBlock: XIVTED_clean_linker_0, # of connection points: 2
#     Edge 32, Type (0, 1), BuildingBlock: XIVTED_clean_linker_0, # of connection points: 2
# Relax obj value: 0.050
# Max RMSD: 0.134
# Mean RMSD: 0.089
data_MOF--net-csq--node1-TAGTUT_clean_sbu_1--node2-NAHDIM_clean_linker_0--edge1-XIVTED_clean_linker_0
_symmetry_space_group_name_H-M    P1
_symmetry_Int_Tables_number       1
_symmetry_cell_setting            triclinic
loop_
_symmetry_equiv_pos_as_xyz
'x, y, z'
_cell_length_a     68.104903
_cell_length_b     66.853325
_cell_length_c     26.961395
_cell_angle_alpha  92.362959
_cell_angle_beta   92.057311
_cell_angle_gamma 119.93127
loop_
_atom_site_label
_atom_site_type_symbol
_atom_site_fract_x
_atom_site_fract_y
_atom_site_fract_z
_atom_type_partial_charge
C0 C 0.32058 0.52016 0.51989 0.0
C1 C 0.31927 0.50337 0.47789 0.0
C2 C 0.30372 0.49953 0.39206 0.0
C3 C 0.29465 0.47555 0.38349 0.0
C4 C 0.27882 0.46329 0.34321 0.0
C5 C 0.27204 0.47525 0.31102 0.0
C6 C 0.28238 0.49962 0.31773 0.0
C7 C 0.29829 0.51144 0.35794 0.0
C8 C 0.26856 0.4374 0.33633 0.0
C9 C 0.27562 0.51303 0.28426 0.0
C10 C 0.15443 0.42001 0.48913 0.0
C11 C 0.15277 0.43559 0.45109 0.0
C12 C 0.15722 0.42737 0.36568 0.0
C13 C 0.16873 0.4495 0.34792 0.0
C14 C 0.18466 0.45464 0.31194 0.0
C15 C 0.18932 0.43732 0.29405 0.0
C16 C 0.17642 0.41451 0.30923 0.0
C17 C 0.16023 0.40974 0.34456 0.0
C18 C 0.19758 0.47899 0.29563 0.0
C19 C 0.18091 0.39562 0.29095 0.0
C20 C 0.15299 0.4105 0.96023 0.0
C21 C 0.16375 0.43334 0.98118 0.0
C22 C 0.18355 0.44215 0.01264 0.0
C23 C 0.19248 0.42765 0.02405 0.0
C24 C 0.18194 0.40479 0.002 0.0
C25 C 0.16248 0.39664 0.96972 0.0
C26 C 0.19489 0.46694 0.03367 0.0
C27 C 0.1911 0.38889 0.0128 0.0
C28 C 0.35124 0.45344 0.97729 0.0
C29 C 0.33665 0.45701 0.93785 0.0
C30 C 0.31222 0.46697 0.9856 0.0
C31 C 0.30725 0.48443 0.99771 0.0
C32 C 0.28869 0.48012 0.02571 0.0
C33 C 0.27488 0.45779 0.04237 0.0
C34 C 0.28015 0.44019 0.03154 0.0
C35 C 0.29867 0.4449 0.00318 0.0
C36 C 0.28353 0.49928 0.03667 0.0
C37 C 0.26588 0.41622 0.04915 0.0
C38 C 0.2515 0.46219 0.27657 0.0
C39 C 0.23062 0.45424 0.29734 0.0
C40 C 0.21033 0.44416 0.26779 0.0
C41 C 0.21074 0.44184 0.21557 0.0
C42 C 0.19074 0.43242 0.1845 0.0
C43 C 0.1914 0.43048 0.13304 0.0
C44 C 0.21211 0.43801 0.11075 0.0
C45 C 0.21302 0.4365 0.05847 0.0
C46 C 0.23379 0.44353 0.03771 0.0
C47 C 0.25389 0.45219 0.06763 0.0
C48 C 0.25349 0.4545 0.11992 0.0
C49 C 0.27349 0.46376 0.15112 0.0
C50 C 0.27291 0.46628 0.20253 0.0
C51 C 0.25228 0.45933 0.2246 0.0
C52 C 0.23181 0.44937 0.19393 0.0
C53 C 0.23247 0.44728 0.1415 0.0
C54 C 0.09336 0.38407 0.93155 0.0
C55 C 0.11632 0.40651 0.93674 0.0
O56 O 0.31747 0.51181 0.43284 0.0
O57 O 0.33004 0.47217 0.95695 0.0
O58 O 0.13343 0.40131 0.93097 0.0
O59 O 0.14437 0.4232 0.40538 0.0
H60 H 0.30382 0.48642 0.48271 0.0
H61 H 0.3052 0.52191 0.51708 0.0
H62 H 0.3358 0.53752 0.51754 0.0
H63 H 0.32141 0.51363 0.55671 0.0
H64 H 0.29956 0.46631 0.40847 0.0
H65 H 0.30577 0.53 0.36438 0.0
H66 H 0.2509 0.42884 0.34824 0.0
H67 H 0.27831 0.43123 0.35852 0.0
H68 H 0.26781 0.43201 0.29645 0.0
H69 H 0.28539 0.53194 0.29435 0.0
H70 H 0.25725 0.50696 0.28648 0.0
H71 H 0.27839 0.50992 0.24506 0.0
H72 H 0.17049 0.45017 0.44892 0.0
H73 H 0.15973 0.42918 0.52671 0.0
H74 H 0.16733 0.41538 0.47837 0.0
H75 H 0.13799 0.4037 0.49061 0.0
H76 H 0.16586 0.46292 0.36366 0.0
H77 H 0.15099 0.39263 0.35827 0.0
H78 H 0.19977 0.47884 0.25502 0.0
H79 H 0.21472 0.48812 0.31521 0.0
H80 H 0.18888 0.4889 0.30443 0.0
H81 H 0.16859 0.37853 0.30414 0.0
H82 H 0.19831 0.40001 0.30425 0.0
H83 H 0.18003 0.39427 0.24968 0.0
H84 H 0.11773 0.41416 0.97516 0.0
H85 H 0.15683 0.44437 0.97266 0.0
H86 H 0.15418 0.37912 0.95282 0.0
H87 H 0.19299 0.46733 0.07435 0.0
H88 H 0.18746 0.4767 0.01645 0.0
H89 H 0.21335 0.47589 0.0279 0.0
H90 H 0.17939 0.37084 0.99772 0.0
H91 H 0.19416 0.3889 0.05355 0.0
H92 H 0.20761 0.39526 0.99578 0.0
H93 H 0.32138 0.44001 0.92633 0.0
H94 H 0.35673 0.44149 0.96176 0.0
H95 H 0.34148 0.44578 0.01016 0.0
H96 H 0.36653 0.47019 0.99005 0.0
H97 H 0.3178 0.50143 0.98438 0.0
H98 H 0.30224 0.43113 0.99483 0.0
H99 H 0.28289 0.5018 0.07742 0.0
H100 H 0.26657 0.49435 0.01921 0.0
H101 H 0.29636 0.51593 0.02262 0.0
H102 H 0.2731 0.40487 0.0407 0.0
H103 H 0.24851 0.40808 0.0309 0.0
H104 H 0.26434 0.41726 0.08991 0.0
H105 H 0.23021 0.45656 0.33733 0.0
H106 H 0.17437 0.42651 0.1997 0.0
H107 H 0.17546 0.42305 0.11092 0.0
H108 H 0.23429 0.44204 0.99759 0.0
H109 H 0.28982 0.46938 0.13605 0.0
H110 H 0.28879 0.47368 0.22489 0.0
H111 H 0.09084 0.37468 0.89479 0.0
H112 H 0.07933 0.38785 0.93573 0.0
H113 H 0.09258 0.37262 0.96106 0.0
C114 C 0.84583 0.33956 0.43755 0.0
C115 C 0.86062 0.33745 0.39857 0.0
C116 C 0.84006 0.31501 0.32257 0.0
C117 C 0.8505 0.30174 0.31424 0.0
C118 C 0.83897 0.28044 0.28621 0.0
C119 C 0.81655 0.27229 0.26635 0.0
C120 C 0.8062 0.28593 0.27384 0.0
C121 C 0.81828 0.30735 0.30131 0.0
C122 C 0.85069 0.26659 0.2779 0.0
C123 C 0.78228 0.27772 0.25341 0.0
C124 C 0.75899 0.13507 0.45905 0.0
C125 C 0.74636 0.1445 0.42864 0.0
C126 C 0.75348 0.15443 0.34312 0.0
C127 C 0.74364 0.16825 0.33659 0.0
C128 C 0.75112 0.18466 0.30061 0.0
C129 C 0.76937 0.18779 0.27184 0.0
C130 C 0.77908 0.17352 0.27811 0.0
C131 C 0.77049 0.15653 0.31279 0.0
C132 C 0.7399 0.19907 0.29444 0.0
C133 C 0.7991 0.17673 0.24987 0.0
C134 C 0.73428 0.13482 0.94 0.0
C135 C 0.72387 0.14667 0.95989 0.0
C136 C 0.73661 0.16752 0.98917 0.0
C137 C 0.76017 0.17651 0.99932 0.0
C138 C 0.77072 0.16467 0.97892 0.0
C139 C 0.75764 0.14411 0.94891 0.0
C140 C 0.72494 0.18012 0.00868 0.0
C141 C 0.7958 0.17375 0.98876 0.0
C142 C 0.85753 0.36104 0.99403 0.0
C143 C 0.86575 0.34499 0.97365 0.0
C144 C 0.83626 0.30473 0.96013 0.0
C145 C 0.81262 0.29367 0.95892 0.0
C146 C 0.80001 0.27199 0.97841 0.0
C147 C 0.81145 0.261 0.99809 0.0
C148 C 0.83524 0.27126 0.99512 0.0
C149 C 0.84746 0.29322 0.97662 0.0
C150 C 0.77465 0.26142 0.98038 0.0
C151 C 0.84787 0.25956 0.01373 0.0
C152 C 0.80387 0.24948 0.23782 0.0
C153 C 0.79284 0.22974 0.26437 0.0
C154 C 0.77998 0.20772 0.24002 0.0
C155 C 0.77801 0.20526 0.18731 0.0
C156 C 0.76475 0.18355 0.16122 0.0
C157 C 0.76348 0.18136 0.10934 0.0
C158 C 0.77515 0.20085 0.08156 0.0
C159 C 0.77402 0.19894 0.02883 0.0
C160 C 0.78611 0.21873 0.00265 0.0
C161 C 0.79911 0.24053 0.02757 0.0
C162 C 0.80013 0.24285 0.08008 0.0
C163 C 0.81267 0.26468 0.10614 0.0
C164 C 0.81397 0.26685 0.15771 0.0
C165 C 0.8026 0.24734 0.18536 0.0
C166 C 0.78963 0.22516 0.15998 0.0
C167 C 0.7883 0.22294 0.10717 0.0
C168 C 0.69899 0.07401 0.91815 0.0
C169 C 0.70024 0.09752 0.9185 0.0
O170 O 0.85056 0.3351 0.35151 0.0
O171 O 0.84792 0.32659 0.94564 0.0
O172 O 0.72234 0.11453 0.91184 0.0
O173 O 0.74692 0.13904 0.37872 0.0
H174 H 0.86147 0.32166 0.40656 0.0
H175 H 0.82901 0.32347 0.43546 0.0
H176 H 0.84309 0.35431 0.4311 0.0
H177 H 0.85393 0.34203 0.47554 0.0
H178 H 0.86766 0.3081 0.3296 0.0
H179 H 0.81051 0.31788 0.30769 0.0
H180 H 0.84152 0.25002 0.29606 0.0
H181 H 0.86865 0.276 0.29309 0.0
H182 H 0.85022 0.2623 0.23748 0.0
H183 H 0.77616 0.28967 0.26525 0.0
H184 H 0.77057 0.26028 0.26593 0.0
H185 H 0.78154 0.27622 0.21214 0.0
H186 H 0.75551 0.16365 0.4366 0.0
H187 H 0.76041 0.14031 0.49923 0.0
H188 H 0.77646 0.14208 0.4465 0.0
H189 H 0.75005 0.11587 0.45403 0.0
H190 H 0.73013 0.16618 0.35968 0.0
H191 H 0.77781 0.14556 0.31812 0.0
H192 H 0.73768 0.20143 0.2545 0.0
H193 H 0.75085 0.21643 0.31369 0.0
H194 H 0.72307 0.1911 0.31064 0.0
H195 H 0.80704 0.16712 0.26542 0.0
H196 H 0.81221 0.19533 0.2505 0.0
H197 H 0.79341 0.17031 0.21046 0.0
H198 H 0.69525 0.1002 0.95606 0.0
H199 H 0.70589 0.1399 0.95189 0.0
H200 H 0.76555 0.13494 0.93301 0.0
H201 H 0.72567 0.18066 0.04993 0.0
H202 H 0.70686 0.17171 0.99457 0.0
H203 H 0.73389 0.19827 0.99783 0.0
H204 H 0.80094 0.16129 0.9747 0.0
H205 H 0.8005 0.17764 0.0293 0.0
H206 H 0.80555 0.19014 0.97029 0.0
H207 H 0.87136 0.33883 0.00607 0.0
H208 H 0.87119 0.37563 0.018 0.0
H209 H 0.84282 0.35128 0.01689 0.0
H210 H 0.85214 0.36808 0.96306 0.0
H211 H 0.80419 0.30263 0.94505 0.0
H212 H 0.86576 0.30157 0.97567 0.0
H213 H 0.77001 0.2592 0.01966 0.0
H214 H 0.76589 0.24401 0.96044 0.0
H215 H 0.76834 0.2722 0.96344 0.0
H216 H 0.86526 0.26747 0.00031 0.0
H217 H 0.83845 0.24084 0.00162 0.0
H218 H 0.84931 0.2611 0.05502 0.0
H219 H 0.79428 0.23156 0.30473 0.0
H220 H 0.75528 0.168 0.18069 0.0
H221 H 0.75323 0.1642 0.09124 0.0
H222 H 0.78528 0.21716 0.96231 0.0
H223 H 0.82171 0.28041 0.08706 0.0
H224 H 0.82405 0.28408 0.17562 0.0
H225 H 0.68127 0.06003 0.92227 0.0
H226 H 0.70989 0.07399 0.94978 0.0
H227 H 0.70504 0.07028 0.88314 0.0
C228 C 0.49416 0.81739 0.33614 0.0
C229 C 0.51593 0.83088 0.30912 0.0
C230 C 0.52216 0.81801 0.22881 0.0
C231 C 0.54586 0.82813 0.23354 0.0
C232 C 0.55697 0.81966 0.20378 0.0
C233 C 0.54402 0.80049 0.1692 0.0
C234 C 0.52009 0.79042 0.16414 0.0
C235 C 0.50954 0.79971 0.19334 0.0
C236 C 0.5825 0.83113 0.2094 0.0
C237 C 0.50557 0.76965 0.1285 0.0
C238 C 0.6217 0.69449 0.1931 0.0
C239 C 0.60386 0.69508 0.22507 0.0
C240 C 0.58315 0.71207 0.18485 0.0
C241 C 0.56154 0.70656 0.16617 0.0
C242 C 0.55692 0.72382 0.15232 0.0
C243 C 0.5745 0.74722 0.15703 0.0
C244 C 0.59628 0.75307 0.17737 0.0
C245 C 0.60049 0.7354 0.19065 0.0
C246 C 0.53349 0.71696 0.13063 0.0
C247 C 0.61536 0.77787 0.18258 0.0
C248 C 0.60322 0.73296 0.86356 0.0
C249 C 0.5805 0.72264 0.87544 0.0
C250 C 0.5712 0.73629 0.89075 0.0
C251 C 0.58526 0.76069 0.89622 0.0
C252 C 0.6077 0.77111 0.88068 0.0
C253 C 0.61627 0.75701 0.86365 0.0
C254 C 0.54682 0.72451 0.90443 0.0
C255 C 0.62308 0.79701 0.88533 0.0
C256 C 0.50788 0.86297 0.95627 0.0
C257 C 0.52655 0.87084 0.91942 0.0
C258 C 0.53264 0.84 0.88747 0.0
C259 C 0.51959 0.8159 0.88313 0.0
C260 C 0.52951 0.80229 0.89247 0.0
C261 C 0.55308 0.81324 0.90561 0.0
C262 C 0.56673 0.8375 0.90408 0.0
C263 C 0.55633 0.8507 0.8951 0.0
C264 C 0.51455 0.7764 0.89246 0.0
C265 C 0.59203 0.8496 0.91599 0.0
C266 C 0.55541 0.79072 0.13882 0.0
C267 C 0.5616 0.77597 0.16115 0.0
C268 C 0.57089 0.7649 0.13369 0.0
C269 C 0.57441 0.76876 0.08285 0.0
C270 C 0.58403 0.75811 0.05451 0.0
C271 C 0.58603 0.76071 0.00387 0.0
C272 C 0.57799 0.77362 0.97917 0.0
C273 C 0.57803 0.77459 0.92681 0.0
C274 C 0.57022 0.78787 0.90347 0.0
C275 C 0.56228 0.8002 0.9314 0.0
C276 C 0.56185 0.79914 0.98374 0.0
C277 C 0.55372 0.81112 0.01291 0.0
C278 C 0.55227 0.80899 0.06391 0.0
C279 C 0.55851 0.7945 0.08772 0.0
C280 C 0.56769 0.78315 0.05951 0.0
C281 C 0.56938 0.78549 0.00749 0.0
C282 C 0.63424 0.70409 0.88665 0.0
C283 C 0.6108 0.70181 0.87931 0.0
O284 O 0.51099 0.82532 0.25845 0.0
O285 O 0.5219 0.85246 0.88595 0.0
O286 O 0.61308 0.72014 0.8528 0.0
O287 O 0.58656 0.69428 0.19501 0.0
H288 H 0.52783 0.82521 0.32331 0.0
H289 H 0.48737 0.79852 0.32892 0.0
H290 H 0.48098 0.82146 0.32297 0.0
H291 H 0.4977 0.82166 0.37693 0.0
H292 H 0.55565 0.8427 0.26031 0.0
H293 H 0.49126 0.79217 0.18989 0.0
H294 H 0.58734 0.81902 0.22535 0.0
H295 H 0.59024 0.84729 0.23406 0.0
H296 H 0.5897 0.83526 0.17241 0.0
H297 H 0.48723 0.76166 0.13505 0.0
H298 H 0.5107 0.75637 0.13191 0.0
H299 H 0.50794 0.77501 0.08976 0.0
H300 H 0.61247 0.71132 0.24961 0.0
H301 H 0.63515 0.69418 0.21709 0.0
H302 H 0.62977 0.71022 0.17179 0.0
H303 H 0.61392 0.67908 0.16621 0.0
H304 H 0.54833 0.68853 0.16172 0.0
H305 H 0.6175 0.73994 0.20376 0.0
H306 H 0.53439 0.72115 0.09105 0.0
H307 H 0.52687 0.72697 0.15073 0.0
H308 H 0.5213 0.6982 0.13263 0.0
H309 H 0.63049 0.77989 0.2043 0.0
H310 H 0.60958 0.78901 0.20106 0.0
H311 H 0.62041 0.78412 0.14506 0.0
H312 H 0.60498 0.70279 0.917 0.0
H313 H 0.57017 0.70396 0.87368 0.0
H314 H 0.63368 0.76474 0.85332 0.0
H315 H 0.54627 0.72309 0.94528 0.0
H316 H 0.53681 0.70679 0.88611 0.0
H317 H 0.53867 0.7347 0.89387 0.0
H318 H 0.63985 0.80245 0.87016 0.0
H319 H 0.62584 0.80336 0.9251 0.0
H320 H 0.61492 0.80541 0.86526 0.0
H321 H 0.54264 0.87665 0.94235 0.0
H322 H 0.51068 0.87784 0.98158 0.0
H323 H 0.50827 0.84972 0.97919 0.0
H324 H 0.4908 0.85516 0.93666 0.0
H325 H 0.50137 0.80783 0.87578 0.0
H326 H 0.56658 0.86937 0.89581 0.0
H327 H 0.51324 0.77116 0.93131 0.0
H328 H 0.52216 0.76761 0.87144 0.0
H329 H 0.49717 0.77035 0.87585 0.0
H330 H 0.60068 0.8677 0.90476 0.0
H331 H 0.59942 0.84005 0.89702 0.0
H332 H 0.59545 0.84993 0.95668 0.0
H333 H 0.55847 0.77247 0.19988 0.0
H334 H 0.58998 0.74744 0.07099 0.0
H335 H 0.5936 0.75206 0.98431 0.0
H336 H 0.57 0.78834 0.8633 0.0
H337 H 0.5481 0.82209 0.99671 0.0
H338 H 0.54574 0.81849 0.08426 0.0
H339 H 0.63357 0.69057 0.91029 0.0
H340 H 0.64641 0.72125 0.90549 0.0
H341 H 0.64064 0.70253 0.85019 0.0
C342 C 0.91106 0.60161 0.33654 0.0
C343 C 0.89073 0.58321 0.36237 0.0
C344 C 0.85994 0.56719 0.29578 0.0
C345 C 0.84613 0.54759 0.2642 0.0
C346 C 0.82987 0.5471 0.23008 0.0
C347 C 0.82775 0.567 0.22687 0.0
C348 C 0.84171 0.58699 0.25862 0.0
C349 C 0.85753 0.58683 0.29318 0.0
C350 C 0.81486 0.52524 0.19779 0.0
C351 C 0.83981 0.60849 0.25625 0.0
C352 C 0.67736 0.54451 0.3636 0.0
C353 C 0.69823 0.55438 0.33582 0.0
C354 C 0.71473 0.5458 0.26497 0.0
C355 C 0.73211 0.56879 0.26125 0.0
C356 C 0.75011 0.57398 0.23073 0.0
C357 C 0.75097 0.55584 0.20384 0.0
C358 C 0.733 0.53278 0.20581 0.0
C359 C 0.71496 0.52812 0.23595 0.0
C360 C 0.76871 0.59882 0.2288 0.0
C361 C 0.73338 0.51296 0.17792 0.0
C362 C 0.72836 0.55977 0.8714 0.0
C363 C 0.74697 0.58198 0.88395 0.0
C364 C 0.76474 0.5851 0.91725 0.0
C365 C 0.76423 0.56558 0.937 0.0
C366 C 0.74612 0.54312 0.92225 0.0
C367 C 0.72833 0.54056 0.88993 0.0
C368 C 0.78398 0.60929 0.93157 0.0
C369 C 0.74544 0.52182 0.94095 0.0
C370 C 0.93574 0.60202 0.9335 0.0
C371 C 0.91425 0.581 0.90939 0.0
C372 C 0.88049 0.58439 0.91383 0.0
C373 C 0.87665 0.60289 0.92161 0.0
C374 C 0.85763 0.60013 0.94585 0.0
C375 C 0.84174 0.5781 0.96129 0.0
C376 C 0.8452 0.5591 0.95196 0.0
C377 C 0.86464 0.5625 0.92857 0.0
C378 C 0.8545 0.62076 0.95485 0.0
C379 C 0.82824 0.53518 0.96617 0.0
C380 C 0.81025 0.56652 0.19174 0.0
C381 C 0.78978 0.56217 0.21063 0.0
C382 C 0.77208 0.56062 0.17982 0.0
C383 C 0.77477 0.5633 0.12826 0.0
C384 C 0.75742 0.56195 0.09602 0.0
C385 C 0.76007 0.56397 0.04513 0.0
C386 C 0.78015 0.56735 0.02458 0.0
C387 C 0.78271 0.56859 0.97276 0.0
C388 C 0.80292 0.57215 0.95366 0.0
C389 C 0.82095 0.57468 0.98487 0.0
C390 C 0.81874 0.57348 0.03684 0.0
C391 C 0.83656 0.57614 0.06952 0.0
C392 C 0.83393 0.57414 0.12036 0.0
C393 C 0.81338 0.56942 0.14046 0.0
C394 C 0.79545 0.56748 0.1085 0.0
C395 C 0.79814 0.5695 0.05662 0.0
C396 C 0.69895 0.5832 0.8717 0.0
C397 C 0.70423 0.57202 0.82697 0.0
O398 O 0.87527 0.56624 0.32772 0.0
O399 O 0.89946 0.58801 0.89154 0.0
O400 O 0.71002 0.55596 0.84213 0.0
O401 O 0.69787 0.54001 0.29674 0.0
H402 H 0.88237 0.59141 0.38285 0.0
H403 H 0.90557 0.61025 0.30966 0.0
H404 H 0.91957 0.59362 0.31599 0.0
H405 H 0.92355 0.6151 0.36444 0.0
H406 H 0.84807 0.53251 0.26668 0.0
H407 H 0.86789 0.60208 0.31775 0.0
H408 H 0.79673 0.52008 0.20076 0.0
H409 H 0.81725 0.51064 0.2081 0.0
H410 H 0.81873 0.52841 0.15829 0.0
H411 H 0.8537 0.62346 0.27892 0.0
H412 H 0.82334 0.60502 0.27025 0.0
H413 H 0.84011 0.61318 0.21713 0.0
H414 H 0.71456 0.56329 0.35914 0.0
H415 H 0.68291 0.54342 0.40287 0.0
H416 H 0.66809 0.52519 0.35439 0.0
H417 H 0.66258 0.56693 0.34627 0.0
H418 H 0.73194 0.58276 0.28264 0.0
H419 H 0.70139 0.51047 0.23857 0.0
H420 H 0.77314 0.60283 0.1898 0.0
H421 H 0.78415 0.6015 0.25023 0.0
H422 H 0.7638 0.61115 0.24482 0.0
H423 H 0.71796 0.49606 0.18271 0.0
H424 H 0.74855 0.5121 0.1912 0.0
H425 H 0.73473 0.51588 0.13765 0.0
H426 H 0.7184 0.58559 0.8073 0.0
H427 H 0.74765 0.59695 0.86837 0.0
H428 H 0.71407 0.52348 0.87935 0.0
H429 H 0.78702 0.61208 0.97267 0.0
H430 H 0.78059 0.62274 0.91751 0.0
H431 H 0.79976 0.61151 0.916 0.0
H432 H 0.73173 0.50565 0.92116 0.0
H433 H 0.74252 0.52104 0.98123 0.0
H434 H 0.76196 0.52262 0.93638 0.0
H435 H 0.90667 0.56887 0.93933 0.0
H436 H 0.94801 0.59682 0.94726 0.0
H437 H 0.9313 0.60959 0.96564 0.0
H438 H 0.94398 0.61555 0.90663 0.0
H439 H 0.88889 0.61966 0.90954 0.0
H440 H 0.86729 0.54801 0.92103 0.0
H441 H 0.85061 0.62214 0.99408 0.0
H442 H 0.83989 0.61846 0.93067 0.0
H443 H 0.86977 0.6372 0.94666 0.0
H444 H 0.83239 0.52191 0.95244 0.0
H445 H 0.81094 0.53028 0.95093 0.0
H446 H 0.82789 0.53507 0.00728 0.0
H447 H 0.78752 0.5598 0.25004 0.0
H448 H 0.74156 0.55914 0.10979 0.0
H449 H 0.7461 0.56267 0.02203 0.0
H450 H 0.8046 0.57282 0.91379 0.0
H451 H 0.85269 0.57962 0.05608 0.0
H452 H 0.84817 0.57618 0.14372 0.0
H453 H 0.69316 0.5951 0.85883 0.0
H454 H 0.71417 0.59349 0.89744 0.0
H455 H 0.68544 0.56972 0.89283 0.0
C456 C 0.3059 0.83277 0.79729 0.0
C457 C 0.31669 0.85638 0.82641 0.0
C458 C 0.30701 0.84542 0.91061 0.0
C459 C 0.29204 0.85355 0.92041 0.0
C460 C 0.27496 0.84266 0.95365 0.0
C461 C 0.27273 0.82314 0.97714 0.0
C462 C 0.2887 0.8158 0.96949 0.0
C463 C 0.30591 0.82733 0.9368 0.0
C464 C 0.25862 0.85134 0.96184 0.0
C465 C 0.28676 0.79493 0.99343 0.0
C466 C 0.12928 0.71154 0.76356 0.0
C467 C 0.14126 0.70886 0.80974 0.0
C468 C 0.15677 0.73427 0.88535 0.0
C469 C 0.17297 0.72806 0.89944 0.0
C470 C 0.1908 0.74194 0.93479 0.0
C471 C 0.19253 0.76248 0.95615 0.0
C472 C 0.17594 0.7685 0.94284 0.0
C473 C 0.15803 0.75405 0.90807 0.0
C474 C 0.20794 0.73478 0.94897 0.0
C475 C 0.17737 0.79038 0.96463 0.0
C476 C 0.14109 0.72873 0.25003 0.0
C477 C 0.15666 0.7213 0.24058 0.0
C478 C 0.17862 0.73699 0.22716 0.0
C479 C 0.18499 0.76047 0.22284 0.0
C480 C 0.16975 0.76819 0.23526 0.0
C481 C 0.14804 0.7522 0.24929 0.0
C482 C 0.19472 0.72833 0.21572 0.0
C483 C 0.17606 0.79314 0.23169 0.0
C484 C 0.33809 0.90448 0.31268 0.0
C485 C 0.33064 0.88951 0.35763 0.0
C486 C 0.30311 0.85226 0.31292 0.0
C487 C 0.30055 0.83135 0.29343 0.0
C488 C 0.28192 0.81631 0.2608 0.0
C489 C 0.26549 0.82248 0.24718 0.0
C490 C 0.26764 0.84336 0.26771 0.0
C491 C 0.2863 0.85794 0.30081 0.0
C492 C 0.2799 0.79394 0.24051 0.0
C493 C 0.25028 0.85033 0.25437 0.0
C494 C 0.25171 0.80823 0.00233 0.0
C495 C 0.23249 0.79315 0.97162 0.0
C496 C 0.21203 0.77797 0.99141 0.0
C497 C 0.21053 0.77751 0.04344 0.0
C498 C 0.19024 0.76213 0.0644 0.0
C499 C 0.18883 0.76183 0.11562 0.0
C500 C 0.20775 0.77672 0.14797 0.0
C501 C 0.20646 0.77632 0.20018 0.0
C502 C 0.22552 0.79136 0.23134 0.0
C503 C 0.24598 0.80701 0.21173 0.0
C504 C 0.2476 0.8077 0.15951 0.0
C505 C 0.26784 0.82331 0.13836 0.0
C506 C 0.26926 0.82361 0.08687 0.0
C507 C 0.25049 0.80837 0.05465 0.0
C508 C 0.22981 0.79279 0.07521 0.0
C509 C 0.2284 0.7924 0.12761 0.0
C510 C 0.08359 0.68735 0.21875 0.0
C511 C 0.10617 0.691 0.24121 0.0
O512 O 0.32227 0.85434 0.87527 0.0
O513 O 0.32208 0.86637 0.34269 0.0
O514 O 0.11927 0.71384 0.25981 0.0
O515 O 0.13993 0.72176 0.84962 0.0
H516 H 0.30418 0.86247 0.82534 0.0
H517 H 0.28994 0.82036 0.81385 0.0
H518 H 0.31764 0.82574 0.79826 0.0
H519 H 0.30167 0.83429 0.75794 0.0
H520 H 0.29349 0.86819 0.90161 0.0
H521 H 0.31781 0.82145 0.92943 0.0
H522 H 0.2421 0.83934 0.94135 0.0
H523 H 0.26497 0.86891 0.94849 0.0
H524 H 0.25553 0.85177 0.00194 0.0
H525 H 0.30066 0.79159 0.98405 0.0
H526 H 0.27025 0.77939 0.98104 0.0
H527 H 0.28713 0.79745 0.03446 0.0
H528 H 0.15933 0.71584 0.80104 0.0
H529 H 0.13016 0.70137 0.73092 0.0
H530 H 0.13774 0.73003 0.75504 0.0
H531 H 0.11119 0.70559 0.76965 0.0
H532 H 0.17171 0.7124 0.88296 0.0
H533 H 0.14531 0.75854 0.8972 0.0
H534 H 0.20992 0.73495 0.99008 0.0
H535 H 0.22472 0.74738 0.9359 0.0
H536 H 0.20302 0.71726 0.93258 0.0
H537 H 0.16394 0.79332 0.94797 0.0
H538 H 0.19423 0.8055 0.95872 0.0
H539 H 0.17566 0.78942 0.00537 0.0
H540 H 0.11453 0.68709 0.21052 0.0
H541 H 0.15166 0.70328 0.24328 0.0
H542 H 0.13601 0.7578 0.2577 0.0
H543 H 0.19678 0.72828 0.17506 0.0
H544 H 0.18848 0.71051 0.2274 0.0
H545 H 0.21172 0.74004 0.23462 0.0
H546 H 0.16227 0.79638 0.24268 0.0
H547 H 0.18001 0.79811 0.19295 0.0
H548 H 0.19155 0.80446 0.25609 0.0
H549 H 0.31743 0.89158 0.37647 0.0
H550 H 0.34565 0.92306 0.32504 0.0
H551 H 0.32348 0.89991 0.286 0.0
H552 H 0.35087 0.90207 0.29283 0.0
H553 H 0.31344 0.82698 0.30343 0.0
H554 H 0.28769 0.87374 0.31673 0.0
H555 H 0.28119 0.79421 0.19959 0.0
H556 H 0.26302 0.77916 0.24772 0.0
H557 H 0.29331 0.79098 0.25721 0.0
H558 H 0.25516 0.86783 0.27081 0.0
H559 H 0.23364 0.83764 0.26789 0.0
H560 H 0.24802 0.8501 0.21331 0.0
H561 H 0.2335 0.79314 0.93152 0.0
H562 H 0.17516 0.75014 0.04143 0.0
H563 H 0.17268 0.74969 0.12944 0.0
H564 H 0.2244 0.79095 0.27137 0.0
H565 H 0.28283 0.83542 0.16139 0.0
H566 H 0.28524 0.83591 0.07255 0.0
H567 H 0.07282 0.66928 0.20269 0.0
H568 H 0.08677 0.69921 0.18851 0.0
H569 H 0.07427 0.69098 0.24748 0.0
C570 C 0.41383 0.29694 0.47752 0.0
C571 C 0.43289 0.3036 0.44211 0.0
C572 C 0.4334 0.2803 0.37051 0.0
C573 C 0.45691 0.28868 0.37343 0.0
C574 C 0.46605 0.27724 0.3464 0.0
C575 C 0.45143 0.25714 0.31558 0.0
C576 C 0.42782 0.24895 0.31173 0.0
C577 C 0.41914 0.2608 0.33902 0.0
C578 C 0.49137 0.28665 0.35057 0.0
C579 C 0.41182 0.22769 0.27881 0.0
C580 C 0.4746 0.10418 0.36692 0.0
C581 C 0.46779 0.11902 0.34106 0.0
C582 C 0.47601 0.1591 0.34342 0.0
C583 C 0.45924 0.15526 0.30625 0.0
C584 C 0.45741 0.17373 0.28855 0.0
C585 C 0.47318 0.19664 0.30701 0.0
C586 C 0.48986 0.20058 0.34493 0.0
C587 C 0.49087 0.18168 0.36302 0.0
C588 C 0.43885 0.1687 0.2493 0.0
C589 C 0.50696 0.22476 0.3654 0.0
C590 C 0.53449 0.20454 0.02733 0.0
C591 C 0.51078 0.19273 0.02834 0.0
C592 C 0.49952 0.2043 0.04472 0.0
C593 C 0.5124 0.22793 0.06204 0.0
C594 C 0.53622 0.24012 0.05833 0.0
C595 C 0.54691 0.22828 0.04007 0.0
C596 C 0.47398 0.19098 0.04557 0.0
C597 C 0.55051 0.26535 0.07583 0.0
C598 C 0.45827 0.35021 0.05685 0.0
C599 C 0.47644 0.35348 0.02106 0.0
C600 C 0.4764 0.31678 0.02027 0.0
C601 C 0.46068 0.29322 0.0116 0.0
C602 C 0.46425 0.27648 0.03331 0.0
C603 C 0.48434 0.28359 0.0635 0.0
C604 C 0.50086 0.30735 0.07044 0.0
C605 C 0.49671 0.32374 0.0488 0.0
C606 C 0.44634 0.25127 0.02505 0.0
C607 C 0.52274 0.31542 0.10134 0.0
C608 C 0.461 0.24507 0.28653 0.0
C609 C 0.46329 0.22772 0.30867 0.0
C610 C 0.47305 0.21638 0.28394 0.0
C611 C 0.48122 0.22284 0.23637 0.0
C612 C 0.49248 0.21288 0.21188 0.0
C613 C 0.49954 0.21854 0.16422 0.0
C614 C 0.49529 0.23409 0.13875 0.0
C615 C 0.5014 0.23907 0.08924 0.0
C616 C 0.49739 0.25502 0.06547 0.0
C617 C 0.48756 0.26634 0.09006 0.0
C618 C 0.48113 0.26139 0.13936 0.0
C619 C 0.47112 0.2724 0.1651 0.0
C620 C 0.46477 0.26732 0.2135 0.0
C621 C 0.46786 0.25078 0.23778 0.0
C622 C 0.47801 0.2396 0.21265 0.0
C623 C 0.48482 0.24504 0.16354 0.0
C624 C 0.56373 0.17431 0.05055 0.0
C625 C 0.54132 0.17228 0.03166 0.0
O626 O 0.4239 0.29051 0.39743 0.0
O627 O 0.47157 0.33214 0.9996 0.0
O628 O 0.54585 0.19342 0.01498 0.0
O629 O 0.47841 0.14166 0.3613 0.0
H630 H 0.4451 0.29935 0.46076 0.0
H631 H 0.40632 0.2784 0.48504 0.0
H632 H 0.40015 0.29956 0.4611 0.0
H633 H 0.4206 0.30746 0.51349 0.0
H634 H 0.46819 0.30423 0.39642 0.0
H635 H 0.40107 0.25463 0.33661 0.0
H636 H 0.49498 0.27329 0.36416 0.0
H637 H 0.50045 0.30245 0.37625 0.0
H638 H 0.49821 0.29086 0.31328 0.0
H639 H 0.39383 0.22323 0.28079 0.0
H640 H 0.41345 0.21274 0.28984 0.0
H641 H 0.41645 0.23057 0.23963 0.0
H642 H 0.44914 0.11094 0.3326 0.0
H643 H 0.49344 0.09604 0.3107 0.0
H644 H 0.45858 0.09046 0.38249 0.0
H645 H 0.48282 0.11323 0.40453 0.0
H646 H 0.44748 0.13794 0.29067 0.0
H647 H 0.50366 0.1845 0.39186 0.0
H648 H 0.44626 0.17322 0.21263 0.0
H649 H 0.43085 0.17932 0.25767 0.0
H650 H 0.42545 0.15015 0.24625 0.0
H651 H 0.51968 0.22499 0.39276 0.0
H652 H 0.49804 0.2328 0.38388 0.0
H653 H 0.51599 0.23556 0.33457 0.0
H654 H 0.53031 0.16789 0.06375 0.0
H655 H 0.50113 0.17446 0.01681 0.0
H656 H 0.56519 0.23725 0.03817 0.0
H657 H 0.46922 0.18593 0.08392 0.0
H658 H 0.46631 0.17497 0.02045 0.0
H659 H 0.46664 0.20182 0.03445 0.0
H660 H 0.56894 0.27196 0.07287 0.0
H661 H 0.5475 0.26797 0.11517 0.0
H662 H 0.54551 0.27578 0.05318 0.0
H663 H 0.49314 0.3621 0.04249 0.0
H664 H 0.46184 0.36723 0.0738 0.0
H665 H 0.45827 0.33948 0.08723 0.0
H666 H 0.44116 0.34141 0.03705 0.0
H667 H 0.44524 0.28801 0.98883 0.0
H668 H 0.50955 0.34182 0.0538 0.0
H669 H 0.44002 0.24413 0.06133 0.0
H670 H 0.45387 0.24137 0.00844 0.0
H671 H 0.43173 0.24855 0.00021 0.0
H672 H 0.53458 0.33431 0.10023 0.0
H673 H 0.53133 0.30601 0.0879 0.0
H674 H 0.51896 0.31143 0.14061 0.0
H675 H 0.45725 0.22287 0.3454 0.0
H676 H 0.49598 0.20059 0.2293 0.0
H677 H 0.50818 0.21034 0.14753 0.0
H678 H 0.50216 0.25882 0.02757 0.0
H679 H 0.46805 0.28507 0.14814 0.0
H680 H 0.45714 0.27634 0.2314 0.0
H681 H 0.57538 0.17839 0.01994 0.0
H682 H 0.5607 0.15792 0.06598 0.0
H683 H 0.57206 0.18838 0.08061 0.0
C684 C 0.99316 0.44748 0.76778 0.0
C685 C 0.06126 0.48062 0.71882 0.0
C686 C 0.05178 0.55625 0.70981 0.0
Mg687 Mg 0.01393 0.45885 0.66515 0.0
O688 O 0.01194 0.48533 0.68043 0.0
Mg689 Mg 0.02783 0.5035 0.74463 0.0
Mg690 Mg 0.02404 0.51047 0.63387 0.0
O691 O 0.0364 0.53568 0.5871 0.0
Mg692 Mg 0.03335 0.56144 0.60312 0.0
Mg693 Mg 0.01971 0.51711 0.52369 0.0
C694 C 0.99604 0.46438 0.55806 0.0
C695 C 0.05657 0.50238 0.55939 0.0
O696 O 0.00485 0.46911 0.78231 0.0
O697 O 0.99365 0.43981 0.72373 0.0
O698 O 0.05616 0.49407 0.74306 0.0
O699 O 0.04802 0.46647 0.68354 0.0
O700 O 0.00016 0.45224 0.58802 0.0
O701 O 0.00067 0.48515 0.57033 0.0
C702 C 0.99093 0.51803 0.70782 0.0
O703 O 0.99713 0.51921 0.66305 0.0
O704 O -0.00013 0.51235 0.74307 0.0
O705 O 0.0408 0.55166 0.48437 0.0
O706 O 0.05105 0.581 0.54228 0.0
O707 O 0.99068 0.52529 0.52883 0.0
C708 C 0.0511 0.57344 0.49781 0.0
O709 O 0.99849 0.55206 0.59012 0.0
O710 O 0.04767 0.56823 0.6794 0.0
C711 C 0.98508 0.53773 0.55532 0.0
O712 O 0.04754 0.53556 0.69809 0.0
O713 O 0.0503 0.5015 0.60406 0.0
O714 O 0.04819 0.50849 0.52367 0.0
C715 C 0.49638 0.04895 0.75989 0.0
C716 C 0.45876 0.97915 0.68971 0.0
C717 C 0.54046 0.98595 0.68104 0.0
Mg718 Mg 0.48521 0.02802 0.65117 0.0
O719 O 0.51276 0.02868 0.66405 0.0
Mg720 Mg 0.51469 0.01227 0.72317 0.0
Mg721 Mg 0.52443 0.01531 0.61334 0.0
O722 O 0.53606 0.00183 0.56325 0.0
Mg723 Mg 0.56391 0.00353 0.5789 0.0
Mg724 Mg 0.534 0.01754 0.50316 0.0
C725 C 0.50689 0.04283 0.54504 0.0
C726 C 0.4829 0.98102 0.5326 0.0
O727 O 0.50486 0.03594 0.76903 0.0
O728 O 0.48863 0.0496 0.71627 0.0
O729 O 0.47721 0.98373 0.71367 0.0
O730 O 0.4579 0.99342 0.66092 0.0
O731 O 0.49175 0.03987 0.57577 0.0
O732 O 0.52304 0.03861 0.55521 0.0
C733 C 0.56595 0.04871 0.69528 0.0
O734 O 0.5605 0.04233 0.64876 0.0
O735 O 0.55154 0.04012 0.72849 0.0
O736 O 0.54371 0.9931 0.45912 0.0
O737 O 0.56253 0.98308 0.51398 0.0
O738 O 0.57196 0.04599 0.51121 0.0
C739 C 0.55381 0.98176 0.47016 0.0
O740 O 0.59038 0.03845 0.571 0.0
O741 O 0.55631 0.98928 0.65213 0.0
C742 C 0.59003 0.05145 0.53807 0.0
O743 O 0.52557 0.99182 0.67029 0.0
O744 O 0.48852 0.98793 0.5788 0.0
O745 O 0.49709 0.98954 0.49894 0.0
C746 C 0.53894 0.56498 0.45026 0.0
C747 C 0.56927 0.52742 0.50577 0.0
C748 C 0.48349 0.45976 0.53339 0.0
Mg749 Mg 0.5504 0.55572 0.55598 0.0
O750 O 0.52056 0.53161 0.54543 0.0
Mg751 Mg 0.51327 0.50994 0.48505 0.0
Mg752 Mg 0.50891 0.50937 0.59805 0.0
O753 O 0.4973 0.48707 0.6511 0.0
Mg754 Mg 0.4677 0.46192 0.64376 0.0
Mg755 Mg 0.5052 0.50911 0.71105 0.0
C756 C 0.53374 0.55912 0.66311 0.0
C757 C 0.55189 0.5157 0.66778 0.0
O758 O 0.52617 0.54309 0.43897 0.0
O759 O 0.54907 0.5732 0.49335 0.0
O760 O 0.54956 0.51491 0.48358 0.0
O761 O 0.57303 0.54308 0.53954 0.0
O762 O 0.54825 0.56831 0.63009 0.0
O763 O 0.51654 0.53855 0.65672 0.0
C764 C 0.46633 0.50376 0.52744 0.0
O765 O 0.47382 0.5041 0.57213 0.0
O766 O 0.47811 0.50578 0.48993 0.0
O767 O 0.49377 0.47688 0.75764 0.0
O768 O 0.47049 0.44511 0.70791 0.0
O769 O 0.46904 0.5039 0.71338 0.0
C770 C 0.48143 0.45477 0.74979 0.0
O771 O 0.4448 0.4741 0.66154 0.0
O772 O 0.46942 0.45062 0.56744 0.0
C773 C 0.44904 0.49069 0.69326 0.0
O774 O 0.50112 0.48012 0.53962 0.0
O775 O 0.54427 0.51513 0.62319 0.0
O776 O 0.54024 0.51357 0.70546 0.0
H777 H 0.1092 0.41277 0.48449 0.0
H778 H 0.0909 0.52097 0.49665 0.0
H779 H 0.16241 0.48065 0.45219 0.0
H780 H 0.05752 0.46489 0.59218 0.0
H781 H 0.11475 0.50499 0.47041 0.0
H782 H 0.08691 0.4299 0.51385 0.0
C783 C 0.1163 0.43128 0.48395 0.0
C784 C 0.13805 0.44543 0.46736 0.0
C785 C 0.10239 0.49637 0.49759 0.0
C786 C 0.11228 0.46494 0.49927 0.0
C787 C 0.08884 0.50546 0.51255 0.0
C788 C 0.07257 0.49441 0.54729 0.0
C789 C 0.09914 0.47575 0.51648 0.0
C790 C 0.07031 0.47423 0.56641 0.0
C791 C 0.10355 0.44102 0.50065 0.0
C792 C 0.14593 0.4692 0.46565 0.0
N793 N 0.08329 0.46538 0.55035 0.0
N794 N 0.13306 0.47823 0.48138 0.0
H795 H 0.73258 0.15215 0.51794 0.0
H796 H 0.59995 0.07158 0.44947 0.0
H797 H 0.70512 0.11448 0.37512 0.0
H798 H 0.62998 0.0755 0.59591 0.0
H799 H 0.63775 0.09798 0.42237 0.0
H800 H 0.69401 0.13382 0.54683 0.0
C801 C 0.71846 0.14018 0.49258 0.0
C802 C 0.72222 0.13461 0.44433 0.0
C803 C 0.63594 0.09334 0.46063 0.0
C804 C 0.67815 0.11423 0.47665 0.0
C805 C 0.61439 0.07845 0.47633 0.0
C806 C 0.61183 0.07113 0.52496 0.0
C807 C 0.65499 0.10131 0.49403 0.0
C808 C 0.63122 0.08052 0.55799 0.0
C809 C 0.69653 0.12982 0.50907 0.0
C810 C 0.70322 0.11923 0.41274 0.0
N811 N 0.65204 0.09507 0.54184 0.0
N812 N 0.68201 0.1096 0.42949 0.0
H813 H 0.60411 0.69603 0.32679 0.0
H814 H 0.53859 0.55937 0.34804 0.0
H815 H 0.57927 0.64831 0.19665 0.0
H816 H 0.54993 0.60957 0.46786 0.0
H817 H 0.55312 0.59064 0.29049 0.0
H818 H 0.5853 0.66357 0.37879 0.0
C819 C 0.59485 0.67866 0.30921 0.0
C820 C 0.59353 0.67483 0.25743 0.0
C821 C 0.55212 0.59465 0.32932 0.0
C822 C 0.57162 0.63746 0.3167 0.0
C823 C 0.5437 0.57683 0.36199 0.0
C824 C 0.54339 0.58198 0.41282 0.0
C825 C 0.56024 0.61758 0.348 0.0
C826 C 0.55027 0.60487 0.42911 0.0
C827 C 0.58395 0.66011 0.33885 0.0
C828 C 0.58101 0.65194 0.23656 0.0
N829 N 0.5586 0.6218 0.39696 0.0
N830 N 0.57059 0.63405 0.26631 0.0
H831 H 0.90434 0.59626 0.46136 0.0
H832 H 0.95171 0.50912 0.4849 0.0
H833 H 0.89716 0.54591 0.3461 0.0
H834 H 0.97116 0.56766 0.58939 0.0
H835 H 0.92333 0.51627 0.4451 0.0
H836 H 0.92157 0.58068 0.51814 0.0
C837 C 0.90598 0.58165 0.4484 0.0
C838 C 0.89902 0.57217 0.39923 0.0
C839 C 0.93358 0.52736 0.47719 0.0
C840 C 0.9188 0.55442 0.4635 0.0
C841 C 0.94974 0.52322 0.50012 0.0
C842 C 0.96428 0.5382 0.53971 0.0
C843 C 0.93201 0.54667 0.49377 0.0
C844 C 0.96061 0.55592 0.55836 0.0
C845 C 0.91581 0.57279 0.48069 0.0
C846 C 0.90193 0.55353 0.38389 0.0
N847 N 0.94511 0.55995 0.5346 0.0
N848 N 0.91163 0.54534 0.41585 0.0
H849 H 0.36204 0.87477 0.36226 0.0
H850 H 0.47057 0.94935 0.45511 0.0
H851 H 0.34631 0.92355 0.43377 0.0
H852 H 0.44233 0.97164 0.571 0.0
H853 H 0.43263 0.923 0.41906 0.0
H854 H 0.39749 0.89183 0.4134 0.0
C855 C 0.36592 0.88892 0.38922 0.0
C856 C 0.35108 0.89766 0.39397 0.0
C857 C 0.43446 0.93298 0.45327 0.0
C858 C 0.39256 0.91839 0.45056 0.0
C859 C 0.45625 0.94831 0.47361 0.0
C860 C 0.4596 0.96272 0.51612 0.0
C861 C 0.41568 0.93204 0.47535 0.0
C862 C 0.44045 0.96067 0.53848 0.0
C863 C 0.3864 0.89894 0.41792 0.0
C864 C 0.35723 0.91623 0.42919 0.0
N865 N 0.41924 0.94587 0.51728 0.0
N866 N 0.37761 0.92614 0.45585 0.0
H867 H 0.47654 0.33758 0.47104 0.0
H868 H 0.44547 0.43375 0.47307 0.0
H869 H 0.41531 0.32761 0.39458 0.0
H870 H 0.5144 0.44891 0.49998 0.0
H871 H 0.4361 0.3971 0.42921 0.0
H872 H 0.49284 0.37942 0.46961 0.0
C873 C 0.46668 0.34424 0.4532 0.0
C874 C 0.44438 0.32917 0.43384 0.0
C875 C 0.45349 0.40872 0.44308 0.0
C876 C 0.46276 0.37703 0.43259 0.0
C877 C 0.45887 0.42976 0.4677 0.0
C878 C 0.48066 0.44417 0.49033 0.0
C879 C 0.46987 0.4018 0.44271 0.0
C880 C 0.49739 0.4382 0.48291 0.0
C881 C 0.47601 0.36813 0.45216 0.0
C882 C 0.43242 0.33869 0.41072 0.0
N883 N 0.49149 0.41707 0.46108 0.0
N884 N 0.44156 0.36202 0.41169 0.0
H885 H 0.56454 0.91307 0.91045 0.0
H886 H 0.50251 0.95972 0.73092 0.0
H887 H 0.49341 0.87344 0.86243 0.0
H888 H 0.57429 0.98362 0.73298 0.0
H889 H 0.4989 0.93386 0.79622 0.0
H890 H 0.56817 0.94445 0.86073 0.0
C891 C 0.54963 0.91112 0.89002 0.0
C892 C 0.52857 0.89077 0.89116 0.0
C893 C 0.51546 0.94502 0.78275 0.0
C894 C 0.53261 0.92651 0.83439 0.0
C895 C 0.51758 0.95989 0.74585 0.0
C896 C 0.53869 0.97359 0.72618 0.0
C897 C 0.53465 0.94414 0.80041 0.0
C898 C 0.55765 0.97308 0.7467 0.0
C899 C 0.55172 0.92899 0.86168 0.0
C900 C 0.50985 0.88899 0.86336 0.0
N901 N 0.55516 0.95847 0.78254 0.0
N902 N 0.51231 0.90666 0.83616 0.0
H903 H 0.6672 0.52849 0.83139 0.0
H904 H 0.591 0.54673 0.62682 0.0
H905 H 0.69309 0.58834 0.74468 0.0
H906 H 0.56514 0.49439 0.73289 0.0
H907 H 0.62983 0.55734 0.65526 0.0
H908 H 0.63131 0.51115 0.78163 0.0
C909 C 0.66548 0.53777 0.80109 0.0
C910 C 0.68324 0.55979 0.79175 0.0
C911 C 0.61563 0.54323 0.67159 0.0
C912 C 0.64185 0.54032 0.7355 0.0
C913 C 0.59351 0.537 0.6549 0.0
C914 C 0.57496 0.51964 0.67747 0.0
C915 C 0.61904 0.53194 0.71099 0.0
C916 C 0.57906 0.50798 0.71481 0.0
C917 C 0.64492 0.52792 0.77285 0.0
C918 C 0.67987 0.57124 0.7527 0.0
N919 N 0.60065 0.51445 0.73064 0.0
N920 N 0.65947 0.56145 0.72622 0.0
H921 H 0.15806 0.67953 0.79427 0.0
H922 H 0.03636 0.5728 0.78258 0.0
H923 H 0.10003 0.68098 0.84874 0.0
H924 H 0.09511 0.56953 0.74057 0.0
H925 H 0.06102 0.60871 0.83259 0.0
H926 H 0.13777 0.63748 0.79723 0.0
C927 C 0.14119 0.67097 0.80783 0.0
C928 C 0.13054 0.68364 0.82054 0.0
C929 C 0.0686 0.59978 0.81406 0.0
C930 C 0.10702 0.63549 0.82325 0.0
C931 C 0.05445 0.57906 0.78614 0.0
C932 C 0.06384 0.56848 0.75718 0.0
C933 C 0.09225 0.61019 0.81155 0.0
C934 C 0.08731 0.57731 0.76241 0.0
C935 C 0.12961 0.64697 0.80967 0.0
C936 C 0.10872 0.67177 0.83811 0.0
N937 N 0.10084 0.59815 0.78766 0.0
N938 N 0.09751 0.64832 0.83804 0.0
H939 H 0.51677 0.12581 0.04194 0.0
H940 H 0.49488 0.08879 0.751 0.0
H941 H 0.54052 0.17505 0.92884 0.0
H942 H 0.50109 0.04658 0.86051 0.0
H943 H 0.50197 0.11812 0.81742 0.0
H944 H 0.50161 0.09423 0.97654 0.0
C945 C 0.51844 0.12993 0.00333 0.0
C946 C 0.52978 0.15306 0.99086 0.0
C947 C 0.50153 0.10231 0.82683 0.0
C948 C 0.51252 0.11717 0.91615 0.0
C949 C 0.49736 0.0855 0.78907 0.0
C950 C 0.49761 0.06529 0.8002 0.0
C951 C 0.50562 0.09872 0.87611 0.0
C952 C 0.50098 0.06201 0.85022 0.0
C953 C 0.50989 0.11197 0.96618 0.0
C954 C 0.53174 0.15752 0.94026 0.0
N955 N 0.50492 0.0786 0.88636 0.0
N956 N 0.52317 0.13971 0.90474 0.0
H957 H 0.37265 0.50079 0.92659 0.0
H958 H 0.40336 0.46161 0.67117 0.0
H959 H 0.33141 0.43434 0.84665 0.0
H960 H 0.45066 0.52182 0.76532 0.0
H961 H 0.37292 0.45705 0.723 0.0
H962 H 0.39743 0.51359 0.85703 0.0
C963 C 0.36859 0.48907 0.89397 0.0
C964 C 0.35002 0.46644 0.89245 0.0
C965 C 0.38989 0.4715 0.73177 0.0
C966 C 0.37827 0.48088 0.81296 0.0
C967 C 0.40731 0.47423 0.70197 0.0
C968 C 0.42979 0.49177 0.71464 0.0
C969 C 0.39498 0.48643 0.77448 0.0
C970 C 0.4337 0.50775 0.75465 0.0
C971 C 0.38272 0.49635 0.85436 0.0
C972 C 0.34555 0.45191 0.8494 0.0
N973 N 0.41655 0.50444 0.7837 0.0
N974 N 0.35967 0.4593 0.8116 0.0
H975 H 0.86719 0.34517 0.87057 0.0
H976 H 0.99025 0.4539 0.86822 0.0
H977 H 0.90977 0.37547 0.00614 0.0
H978 H 0.95861 0.4035 0.74314 0.0
H979 H 0.96037 0.42739 0.91975 0.0
H980 H 0.89978 0.36857 0.8228 0.0
C981 C 0.88345 0.35652 0.89037 0.0
C982 C 0.88585 0.35811 0.94256 0.0
C983 C 0.9602 0.42212 0.88114 0.0
C984 C 0.92309 0.38546 0.88787 0.0
C985 C 0.97719 0.43723 0.85171 0.0
C986 C 0.97689 0.43099 0.80119 0.0
C987 C 0.94262 0.40089 0.85957 0.0
C988 C 0.95957 0.40911 0.78184 0.0
C989 C 0.90206 0.3699 0.863 0.0
C990 C 0.9073 0.37358 0.96596 0.0
N991 N 0.94299 0.395 0.81087 0.0
N992 N 0.92509 0.38683 0.93849 0.0
H993 H 0.93282 0.59781 0.81994 0.0
H994 H 0.95565 0.49327 0.76338 0.0
H995 H 0.90889 0.53748 0.90455 0.0
H996 H 0.98692 0.55568 0.68522 0.0
H997 H 0.93181 0.50612 0.80259 0.0
H998 H 0.9467 0.58006 0.75928 0.0
C999 C 0.93024 0.58072 0.82536 0.0
C1000 C 0.92003 0.56924 0.86777 0.0
C1001 C 0.94357 0.51692 0.77627 0.0
C1002 C 0.93564 0.54883 0.79857 0.0
C1003 C 0.95709 0.50951 0.75367 0.0
C1004 C 0.97325 0.52348 0.72118 0.0
C1005 C 0.94653 0.53876 0.76723 0.0
C1006 C 0.9745 0.54435 0.70978 0.0
C1007 C 0.93815 0.57062 0.79079 0.0
C1008 C 0.91688 0.54705 0.87275 0.0
N1009 N 0.96157 0.5516 0.73354 0.0
N1010 N 0.92481 0.5377 0.83889 0.0
H1011 H 0.3206 0.88821 0.76055 0.0
H1012 H 0.45445 0.94323 0.74256 0.0
H1013 H 0.36002 0.86264 0.83457 0.0
H1014 H 0.4147 0.9668 0.66194 0.0
H1015 H 0.41962 0.91172 0.77113 0.0
H1016 H 0.35442 0.9156 0.71997 0.0
C1017 C 0.33646 0.88852 0.76852 0.0
C1018 C 0.3377 0.87363 0.80206 0.0
C1019 C 0.41847 0.92364 0.74683 0.0
C1020 C 0.37637 0.90459 0.75511 0.0
C1021 C 0.43838 0.94165 0.73034 0.0
C1022 C 0.43757 0.95793 0.70029 0.0
C1023 C 0.39753 0.9219 0.7335 0.0
C1024 C 0.41619 0.95478 0.68534 0.0
C1025 C 0.35571 0.90404 0.74513 0.0
C1026 C 0.35849 0.87425 0.80996 0.0
N1027 N 0.39704 0.9373 0.70259 0.0
N1028 N 0.37703 0.8896 0.78698 0.0
H1029 H 0.50543 0.40013 0.01677 0.0
H1030 H 0.45418 0.40778 0.75114 0.0
H1031 H 0.4485 0.34201 0.93536 0.0
H1032 H 0.50543 0.46757 0.84065 0.0
H1033 H 0.45256 0.38332 0.8173 0.0
H1034 H 0.50635 0.42507 0.95183 0.0
C1035 C 0.49323 0.39263 0.98498 0.0
C1036 C 0.47722 0.3689 0.9808 0.0
C1037 C 0.46412 0.4018 0.82254 0.0
C1038 C 0.47795 0.39731 0.90672 0.0
C1039 C 0.46509 0.41581 0.7847 0.0
C1040 C 0.48 0.43982 0.79021 0.0
C1041 C 0.47823 0.4118 0.86624 0.0
C1042 C 0.49366 0.44917 0.8347 0.0
C1043 C 0.4937 0.40685 0.94806 0.0
C1044 C 0.46144 0.36012 0.93947 0.0
N1045 N 0.4925 0.43513 0.87091 0.0
N1046 N 0.46229 0.3743 0.9039 0.0
H1047 H 0.11703 0.40234 0.83447 0.0
H1048 H 0.09107 0.50472 0.79896 0.0
H1049 H 0.11753 0.44792 0.953 0.0
H1050 H 0.07433 0.44969 0.68664 0.0
H1051 H 0.11285 0.49157 0.84744 0.0
H1052 H 0.11247 0.42631 0.77367 0.0
C1053 C 0.11656 0.41762 0.84759 0.0
C1054 C 0.11726 0.42297 0.89876 0.0
C1055 C 0.10479 0.48265 0.8117 0.0
C1056 C 0.11222 0.45046 0.82975 0.0
C1057 C 0.09243 0.49024 0.78376 0.0
C1058 C 0.08017 0.47782 0.73936 0.0
C1059 C 0.10488 0.46251 0.7952 0.0
C1060 C 0.08302 0.45947 0.72125 0.0
C1061 C 0.11399 0.43127 0.81298 0.0
C1062 C 0.11679 0.44304 0.9139 0.0
N1063 N 0.09465 0.45202 0.74979 0.0
N1064 N 0.11407 0.45591 0.87958 0.0
H1065 H 0.66473 0.10528 0.93038 0.0
H1066 H 0.60468 0.04999 0.66558 0.0
H1067 H 0.69887 0.08994 0.81602 0.0
H1068 H 0.58072 0.08242 0.76943 0.0
H1069 H 0.6414 0.06852 0.7138 0.0
H1070 H 0.63583 0.10076 0.86787 0.0
C1071 C 0.66624 0.10116 0.89193 0.0
C1072 C 0.68396 0.0975 0.87858 0.0
C1073 C 0.62833 0.07212 0.72522 0.0
C1074 C 0.65066 0.09193 0.80651 0.0
C1075 C 0.60747 0.06177 0.69728 0.0
C1076 C 0.58969 0.06469 0.71361 0.0
C1077 C 0.63116 0.08516 0.76996 0.0
C1078 C 0.59398 0.07961 0.75582 0.0
C1079 C 0.64974 0.09861 0.85612 0.0
C1080 C 0.6852 0.09244 0.82803 0.0
N1081 N 0.6141 0.08896 0.78294 0.0
N1082 N 0.66852 0.08936 0.79392 0.0
H1083 H 0.59341 0.65889 0.9153 0.0
H1084 H 0.52125 0.59125 0.66343 0.0
H1085 H 0.59015 0.69174 0.78313 0.0
H1086 H 0.55304 0.56322 0.7565 0.0
H1087 H 0.53557 0.62496 0.72283 0.0
H1088 H 0.56894 0.62093 0.87077 0.0
C1089 C 0.58737 0.65812 0.87717 0.0
C1090 C 0.59405 0.67856 0.85289 0.0
C1091 C 0.53889 0.61115 0.73097 0.0
C1092 C 0.56568 0.63539 0.80254 0.0
C1093 C 0.53052 0.59185 0.69751 0.0
C1094 C 0.53584 0.57451 0.70569 0.0
C1095 C 0.55277 0.6131 0.77273 0.0
C1096 C 0.54837 0.57619 0.74956 0.0
C1097 C 0.57343 0.63653 0.85199 0.0
C1098 C 0.5856 0.67658 0.80354 0.0
N1099 N 0.55668 0.59539 0.78146 0.0
N1100 N 0.57186 0.65539 0.78009 0.0
H1101 H 0.44525 0.07627 0.27065 0.0
H1102 H 0.46794 0.02635 0.4878 0.0
H1103 H 0.52078 0.14634 0.34224 0.0
H1104 H 0.53947 0.0762 0.49168 0.0
H1105 H 0.46175 0.04303 0.41449 0.0
H1106 H 0.45668 0.0491 0.33283 0.0
C1107 C 0.46157 0.08375 0.29119 0.0
C1108 C 0.4802 0.11538 0.30532 0.0
C1109 C 0.47892 0.04995 0.43015 0.0
C1110 C 0.49345 0.08198 0.37292 0.0
C1111 C 0.48242 0.04052 0.47228 0.0
C1112 C 0.50422 0.05 0.49562 0.0
C1113 C 0.4973 0.06925 0.41173 0.0
C1114 C 0.52243 0.06838 0.47438 0.0
C1115 C 0.46819 0.0675 0.33216 0.0
C1116 C 0.50908 0.12791 0.33686 0.0
N1117 N 0.51849 0.07781 0.43404 0.0
N1118 N 0.51155 0.10969 0.37122 0.0
H1119 H 0.3277 0.47635 0.53869 0.0
H1120 H 0.44985 0.51317 0.44323 0.0
H1121 H 0.35879 0.52576 0.42779 0.0
H1122 H 0.43162 0.49021 0.59054 0.0
H1123 H 0.41338 0.51127 0.42901 0.0
H1124 H 0.36285 0.47481 0.55034 0.0
C1125 C 0.3418 0.48658 0.51633 0.0
C1126 C 0.34017 0.50089 0.4817 0.0
C1127 C 0.41736 0.50658 0.4644 0.0
C1128 C 0.38025 0.49929 0.49487 0.0
C1129 C 0.43814 0.50756 0.47257 0.0
C1130 C 0.44388 0.50187 0.51834 0.0
C1131 C 0.40201 0.49956 0.50196 0.0
C1132 C 0.42798 0.49483 0.55489 0.0
C1133 C 0.36182 0.4858 0.5232 0.0
C1134 C 0.35907 0.51416 0.45427 0.0
N1135 N 0.40771 0.49379 0.54589 0.0
N1136 N 0.37827 0.51293 0.46128 0.0
H1137 H 0.9007 0.33866 0.42182 0.0
H1138 H 0.00068 0.4339 0.49685 0.0
H1139 H 0.87436 0.38344 0.38607 0.0
H1140 H 0.96032 0.46659 0.51489 0.0
H1141 H 0.9712 0.40478 0.43807 0.0
H1142 H 0.93783 0.37234 0.44195 0.0
C1143 C 0.90291 0.35567 0.41722 0.0
C1144 C 0.88435 0.35827 0.40316 0.0
C1145 C 0.96869 0.41828 0.45469 0.0
C1146 C 0.92718 0.39732 0.4254 0.0
C1147 C 0.98574 0.43515 0.48753 0.0
C1148 C 0.98262 0.45228 0.51145 0.0
C1149 C 0.94808 0.41812 0.44717 0.0
C1150 C 0.96321 0.45346 0.49754 0.0
C1151 C 0.92428 0.37504 0.42821 0.0
C1152 C 0.8882 0.38073 0.39759 0.0
N1153 N 0.94635 0.4362 0.46721 0.0
N1154 N 0.90909 0.39943 0.40976 0.0
H1155 H 0.55477 0.86048 0.36621 0.0
H1156 H 0.52601 0.96225 0.38472 0.0
H1157 H 0.49997 0.85949 0.27889 0.0
H1158 H 0.58004 0.96147 0.47183 0.0
H1159 H 0.52045 0.92825 0.33442 0.0
H1160 H 0.56832 0.90069 0.39414 0.0
C1161 C 0.54578 0.86888 0.3524 0.0
C1162 C 0.52612 0.85662 0.32061 0.0
C1163 C 0.53376 0.93577 0.36403 0.0
C1164 C 0.54126 0.90258 0.35304 0.0
C1165 C 0.53703 0.95526 0.3926 0.0
C1166 C 0.55325 0.96448 0.43313 0.0
C1167 C 0.54682 0.92549 0.37614 0.0
C1168 C 0.56705 0.95471 0.44155 0.0
C1169 C 0.55348 0.89184 0.36838 0.0
C1170 C 0.51512 0.86834 0.30371 0.0
N1171 N 0.56332 0.93561 0.41376 0.0
N1172 N 0.52267 0.8906 0.32066 0.0
H1173 H 0.65912 0.53926 0.25294 0.0
H1174 H 0.61387 0.55114 0.54201 0.0
H1175 H 0.70783 0.59628 0.40098 0.0
H1176 H 0.57008 0.50423 0.42003 0.0
H1177 H 0.64676 0.55947 0.49486 0.0
H1178 H 0.62308 0.51995 0.32091 0.0
C1179 C 0.66106 0.54699 0.29014 0.0
C1180 C 0.68917 0.56806 0.32196 0.0
C1181 C 0.62997 0.54704 0.47881 0.0
C1182 C 0.64553 0.54582 0.39672 0.0
C1183 C 0.61114 0.54215 0.50585 0.0
C1184 C 0.58906 0.52732 0.48461 0.0
C1185 C 0.6267 0.53715 0.43017 0.0
C1186 C 0.58671 0.51601 0.43775 0.0
C1187 C 0.63963 0.53427 0.3333 0.0
C1188 C 0.69173 0.58305 0.38338 0.0
N1189 N 0.60529 0.52152 0.41165 0.0
N1190 N 0.66979 0.56868 0.41576 0.0
H1191 H 0.10212 0.69756 0.34149 0.0
H1192 H 0.0555 0.56578 0.39858 0.0
H1193 H 0.09898 0.64681 0.23253 0.0
H1194 H 0.07252 0.62059 0.51176 0.0
H1195 H 0.07167 0.59485 0.33703 0.0
H1196 H 0.09154 0.66935 0.40445 0.0
C1197 C 0.0996 0.68058 0.33104 0.0
C1198 C 0.10189 0.67464 0.28193 0.0
C1199 C 0.072 0.60046 0.37546 0.0
C1200 C 0.08906 0.64196 0.35354 0.0
C1201 C 0.06276 0.58388 0.41063 0.0
C1202 C 0.06245 0.59067 0.46046 0.0
C1203 C 0.08082 0.62396 0.39018 0.0
C1204 C 0.07221 0.61443 0.47382 0.0
C1205 C 0.09346 0.66442 0.36695 0.0
C1206 C 0.09775 0.65215 0.27019 0.0
N1207 N 0.08079 0.63013 0.43888 0.0
N1208 N 0.09141 0.63657 0.30566 0.0
loop_
_geom_bond_atom_site_label_1
_geom_bond_atom_site_label_2
_geom_bond_distance
_geom_bond_site_symmetry_2
_ccdc_geom_bond_type
C0 C1 1.560 . S
C0 H61 0.959 . S
C0 H62 0.959 . S
C0 H63 0.960 . S
C1 C0 1.560 . S
C1 O56 1.426 . S
C1 H60 0.980 . S
C2 C3 1.407 . S
C2 C7 1.418 . S
C2 O56 1.334 . S
C3 C2 1.407 . S
C3 C4 1.360 . S
C3 H64 0.929 . S
C4 C3 1.360 . S
C4 C5 1.401 . S
C4 C8 1.527 . S
C5 C4 1.401 . S
C5 C6 1.405 . S
C5 C38 1.587 . S
C6 C5 1.405 . S
C6 C7 1.332 . S
C6 C9 1.496 . S
C7 C2 1.418 . S
C7 C6 1.332 . S
C7 H65 0.929 . S
C8 C4 1.527 . S
C8 H66 0.959 . S
C8 H67 0.961 . S
C8 H68 0.961 . S
C9 C6 1.496 . S
C9 H69 0.960 . S
C9 H70 0.960 . S
C9 H71 0.961 . S
C10 C11 1.517 . S
C10 H73 0.961 . S
C10 H74 0.960 . S
C10 H75 0.959 . S
C11 C10 1.517 . S
C11 O59 1.468 . S
C11 H72 0.980 . S
C12 C13 1.349 . S
C12 C17 1.367 . S
C12 O59 1.408 . S
C13 C12 1.349 . S
C13 C14 1.407 . S
C13 H76 0.930 . S
C14 C13 1.407 . S
C14 C15 1.449 . S
C14 C18 1.535 . S
C15 C14 1.449 . S
C15 C16 1.384 . S
C15 C40 1.553 . S
C16 C15 1.384 . S
C16 C17 1.364 . S
C16 C19 1.450 . S
C17 C12 1.367 . S
C17 C16 1.364 . S
C17 H77 0.931 . S
C18 C14 1.535 . S
C18 H78 0.959 . S
C18 H79 0.961 . S
C18 H80 0.959 . S
C19 C16 1.450 . S
C19 H81 0.960 . S
C19 H82 0.960 . S
C19 H83 0.960 . S
C20 C21 1.309 1_556 S
C20 C25 1.304 . S
C20 O58 1.435 . S
C21 C20 1.309 1_554 S
C21 C22 1.476 . S
C21 H85 0.930 . S
C22 C21 1.476 . S
C22 C23 1.400 . S
C22 C26 1.567 . S
C23 C22 1.400 . S
C23 C24 1.373 . S
C23 C45 1.432 . S
C24 C23 1.373 . S
C24 C25 1.339 1_554 S
C24 C27 1.530 . S
C25 C20 1.304 . S
C25 C24 1.339 1_556 S
C25 H86 0.930 . S
C26 C22 1.567 . S
C26 H87 0.961 . S
C26 H88 0.960 . S
C26 H89 0.958 . S
C27 C24 1.530 . S
C27 H90 0.961 . S
C27 H91 0.960 . S
C27 H92 0.960 . S
C28 C29 1.530 . S
C28 H94 0.961 . S
C28 H95 0.961 . S
C28 H96 0.959 . S
C29 C28 1.530 . S
C29 O57 1.412 . S
C29 H93 0.980 . S
C30 C31 1.288 1_556 S
C30 C35 1.377 . S
C30 O57 1.393 . S
C31 C30 1.288 1_554 S
C31 C32 1.369 . S
C31 H97 0.932 1_554 S
C32 C31 1.369 . S
C32 C33 1.398 . S
C32 C36 1.527 . S
C33 C32 1.398 . S
C33 C34 1.380 . S
C33 C47 1.497 . S
C34 C33 1.380 . S
C34 C35 1.383 1_554 S
C34 C37 1.603 . S
C35 C30 1.377 . S
C35 C34 1.383 1_556 S
C35 H98 0.929 . S
C36 C32 1.527 . S
C36 H99 0.961 . S
C36 H100 0.959 . S
C36 H101 0.959 . S
C37 C34 1.603 . S
C37 H102 0.960 . S
C37 H103 0.962 . S
C37 H104 0.961 . S
C38 C5 1.587 . S
C38 C39 1.360 . S
C38 C51 1.412 . S
C39 C38 1.360 . S
C39 C40 1.365 . S
C39 H105 0.929 . S
C40 C15 1.553 . S
C40 C39 1.365 . S
C40 C41 1.404 . S
C41 C40 1.404 . S
C41 C42 1.395 . S
C41 C52 1.451 . S
C42 C41 1.395 . S
C42 C43 1.322 . S
C42 H106 0.930 . S
C43 C42 1.322 . S
C43 C44 1.459 . S
C43 H107 0.929 . S
C44 C43 1.459 . S
C44 C45 1.445 . S
C44 C53 1.395 . S
C45 C23 1.432 . S
C45 C44 1.445 . S
C45 C46 1.370 . S
C46 C45 1.370 . S
C46 C47 1.438 . S
C46 H108 0.930 . S
C47 C33 1.497 . S
C47 C46 1.438 . S
C47 C48 1.360 . S
C48 C47 1.360 . S
C48 C49 1.401 . S
C48 C53 1.446 . S
C49 C48 1.401 . S
C49 C50 1.347 . S
C49 H109 0.929 . S
C50 C49 1.347 . S
C50 C51 1.455 . S
C50 H110 0.930 . S
C51 C38 1.412 . S
C51 C50 1.455 . S
C51 C52 1.331 . S
C52 C41 1.451 . S
C52 C51 1.331 . S
C52 C53 1.497 . S
C53 C44 1.395 . S
C53 C48 1.446 . S
C53 C52 1.497 . S
C54 C55 1.582 . S
C54 H111 0.962 . S
C54 H112 0.959 . S
C54 H113 0.958 . S
C55 C54 1.582 . S
C55 O58 1.458 . S
C55 H84 0.980 . S
O56 C1 1.426 . S
O56 C2 1.334 . S
O57 C29 1.412 . S
O57 C30 1.393 . S
O58 C20 1.435 . S
O58 C55 1.458 . S
O59 C11 1.468 . S
O59 C12 1.408 . S
H60 C1 0.980 . S
H61 C0 0.959 . S
H62 C0 0.959 . S
H63 C0 0.960 . S
H64 C3 0.929 . S
H65 C7 0.929 . S
H66 C8 0.959 . S
H67 C8 0.961 . S
H68 C8 0.961 . S
H69 C9 0.960 . S
H70 C9 0.960 . S
H71 C9 0.961 . S
H72 C11 0.980 . S
H73 C10 0.961 . S
H74 C10 0.960 . S
H75 C10 0.959 . S
H76 C13 0.930 . S
H77 C17 0.931 . S
H78 C18 0.959 . S
H79 C18 0.961 . S
H80 C18 0.959 . S
H81 C19 0.960 . S
H82 C19 0.960 . S
H83 C19 0.960 . S
H84 C55 0.980 . S
H85 C21 0.930 . S
H86 C25 0.930 . S
H87 C26 0.961 . S
H88 C26 0.960 . S
H89 C26 0.958 . S
H90 C27 0.961 . S
H91 C27 0.960 . S
H92 C27 0.960 . S
H93 C29 0.980 . S
H94 C28 0.961 . S
H95 C28 0.961 . S
H96 C28 0.959 . S
H97 C31 0.932 1_556 S
H98 C35 0.929 . S
H99 C36 0.961 . S
H100 C36 0.959 . S
H101 C36 0.959 . S
H102 C37 0.960 . S
H103 C37 0.962 . S
H104 C37 0.961 . S
H105 C39 0.929 . S
H106 C42 0.930 . S
H107 C43 0.929 . S
H108 C46 0.930 . S
H109 C49 0.929 . S
H110 C50 0.930 . S
H111 C54 0.962 . S
H112 C54 0.959 . S
H113 C54 0.958 . S
C114 C115 1.560 . S
C114 H175 0.959 . S
C114 H176 0.959 . S
C114 H177 0.960 . S
C115 C114 1.560 . S
C115 O170 1.426 . S
C115 H174 0.980 . S
C116 C117 1.407 . S
C116 C121 1.418 . S
C116 O170 1.334 . S
C117 C116 1.407 . S
C117 C118 1.360 . S
C117 H178 0.929 . S
C118 C117 1.360 . S
C118 C119 1.401 . S
C118 C122 1.527 . S
C119 C118 1.401 . S
C119 C120 1.405 . S
C119 C152 1.587 . S
C120 C119 1.405 . S
C120 C121 1.332 . S
C120 C123 1.496 . S
C121 C116 1.418 . S
C121 C120 1.332 . S
C121 H179 0.929 . S
C122 C118 1.527 . S
C122 H180 0.959 . S
C122 H181 0.961 . S
C122 H182 0.961 . S
C123 C120 1.496 . S
C123 H183 0.960 . S
C123 H184 0.960 . S
C123 H185 0.961 . S
C124 C125 1.517 . S
C124 H187 0.961 . S
C124 H188 0.960 . S
C124 H189 0.959 . S
C125 C124 1.517 . S
C125 O173 1.468 . S
C125 H186 0.980 . S
C126 C127 1.349 . S
C126 C131 1.367 . S
C126 O173 1.408 . S
C127 C126 1.349 . S
C127 C128 1.407 . S
C127 H190 0.930 . S
C128 C127 1.407 . S
C128 C129 1.449 . S
C128 C132 1.535 . S
C129 C128 1.449 . S
C129 C130 1.384 . S
C129 C154 1.553 . S
C130 C129 1.384 . S
C130 C131 1.364 . S
C130 C133 1.450 . S
C131 C126 1.367 . S
C131 C130 1.364 . S
C131 H191 0.931 . S
C132 C128 1.535 . S
C132 H192 0.959 . S
C132 H193 0.961 . S
C132 H194 0.959 . S
C133 C130 1.450 . S
C133 H195 0.960 . S
C133 H196 0.960 . S
C133 H197 0.960 . S
C134 C135 1.309 . S
C134 C139 1.304 . S
C134 O172 1.435 . S
C135 C134 1.309 . S
C135 C136 1.476 1_556 S
C135 H199 0.930 . S
C136 C135 1.476 1_554 S
C136 C137 1.400 . S
C136 C140 1.567 . S
C137 C136 1.400 . S
C137 C138 1.373 1_554 S
C137 C159 1.432 . S
C138 C137 1.373 1_556 S
C138 C139 1.339 . S
C138 C141 1.530 1_556 S
C139 C134 1.304 . S
C139 C138 1.339 . S
C139 H200 0.930 . S
C140 C136 1.567 . S
C140 H201 0.961 . S
C140 H202 0.960 . S
C140 H203 0.958 . S
C141 C138 1.530 1_554 S
C141 H204 0.961 1_554 S
C141 H205 0.960 . S
C141 H206 0.960 1_554 S
C142 C143 1.530 . S
C142 H208 0.961 . S
C142 H209 0.961 . S
C142 H210 0.959 . S
C143 C142 1.530 . S
C143 O171 1.412 . S
C143 H207 0.980 . S
C144 C145 1.288 . S
C144 C149 1.377 . S
C144 O171 1.393 . S
C145 C144 1.288 . S
C145 C146 1.369 1_556 S
C145 H211 0.932 . S
C146 C145 1.369 1_554 S
C146 C147 1.398 . S
C146 C150 1.527 . S
C147 C146 1.398 . S
C147 C148 1.380 . S
C147 C161 1.497 . S
C148 C147 1.380 . S
C148 C149 1.383 1_554 S
C148 C151 1.603 . S
C149 C144 1.377 . S
C149 C148 1.383 1_556 S
C149 H212 0.929 . S
C150 C146 1.527 . S
C150 H213 0.961 . S
C150 H214 0.950 1_554 S
C150 H215 0.959 . S
C151 C148 1.603 . S
C151 H216 0.960 1_554 S
C151 H217 0.962 . S
C151 H218 0.961 . S
C152 C119 1.587 . S
C152 C153 1.360 . S
C152 C165 1.412 . S
C153 C152 1.360 . S
C153 C154 1.365 . S
C153 H219 0.929 . S
C154 C129 1.553 . S
C154 C153 1.365 . S
C154 C155 1.404 . S
C155 C154 1.404 . S
C155 C156 1.395 . S
C155 C166 1.451 . S
C156 C155 1.395 . S
C156 C157 1.322 . S
C156 H220 0.930 . S
C157 C156 1.322 . S
C157 C158 1.459 . S
C157 H221 0.929 . S
C158 C157 1.459 . S
C158 C159 1.445 . S
C158 C167 1.395 . S
C159 C137 1.432 . S
C159 C158 1.445 . S
C159 C160 1.370 . S
C160 C159 1.370 . S
C160 C161 1.438 . S
C160 H222 0.930 1_554 S
C161 C147 1.497 . S
C161 C160 1.438 . S
C161 C162 1.360 . S
C162 C161 1.360 . S
C162 C163 1.401 . S
C162 C167 1.446 . S
C163 C162 1.401 . S
C163 C164 1.347 . S
C163 H223 0.929 . S
C164 C163 1.347 . S
C164 C165 1.455 . S
C164 H224 0.930 . S
C165 C152 1.412 . S
C165 C164 1.455 . S
C165 C166 1.331 . S
C166 C155 1.451 . S
C166 C165 1.331 . S
C166 C167 1.497 . S
C167 C158 1.395 . S
C167 C162 1.446 . S
C167 C166 1.497 . S
C168 C169 1.582 . S
C168 H225 0.962 . S
C168 H226 0.959 . S
C168 H227 0.958 . S
C169 C168 1.582 . S
C169 O172 1.458 . S
C169 H198 0.980 . S
O170 C115 1.426 . S
O170 C116 1.334 . S
O171 C143 1.412 . S
O171 C144 1.393 . S
O172 C134 1.435 . S
O172 C169 1.458 . S
O173 C125 1.468 . S
O173 C126 1.408 . S
H174 C115 0.980 . S
H175 C114 0.959 . S
H176 C114 0.959 . S
H177 C114 0.960 . S
H178 C117 0.929 . S
H179 C121 0.929 . S
H180 C122 0.959 . S
H181 C122 0.961 . S
H182 C122 0.961 . S
H183 C123 0.960 . S
H184 C123 0.960 . S
H185 C123 0.961 . S
H186 C125 0.980 . S
H187 C124 0.961 . S
H188 C124 0.960 . S
H189 C124 0.959 . S
H190 C127 0.930 . S
H191 C131 0.931 . S
H192 C132 0.959 . S
H193 C132 0.961 . S
H194 C132 0.959 . S
H195 C133 0.960 . S
H196 C133 0.960 . S
H197 C133 0.960 . S
H198 C169 0.980 . S
H199 C135 0.930 . S
H200 C139 0.930 . S
H201 C140 0.961 . S
H202 C140 0.960 . S
H203 C140 0.958 . S
H204 C141 0.961 1_556 S
H205 C141 0.960 . S
H206 C141 0.960 1_556 S
H207 C143 0.980 . S
H208 C142 0.961 . S
H209 C142 0.961 . S
H210 C142 0.959 . S
H211 C145 0.932 . S
H212 C149 0.929 . S
H213 C150 0.961 . S
H214 C150 0.950 1_556 S
H215 C150 0.959 . S
H216 C151 0.960 1_556 S
H217 C151 0.962 . S
H218 C151 0.961 . S
H219 C153 0.929 . S
H220 C156 0.930 . S
H221 C157 0.929 . S
H222 C160 0.930 1_556 S
H223 C163 0.929 . S
H224 C164 0.930 . S
H225 C168 0.962 . S
H226 C168 0.959 . S
H227 C168 0.958 . S
C228 C229 1.560 . S
C228 H289 0.959 . S
C228 H290 0.959 . S
C228 H291 0.960 . S
C229 C228 1.560 . S
C229 O284 1.426 . S
C229 H288 0.980 . S
C230 C231 1.407 . S
C230 C235 1.418 . S
C230 O284 1.334 . S
C231 C230 1.407 . S
C231 C232 1.360 . S
C231 H292 0.929 . S
C232 C231 1.360 . S
C232 C233 1.401 . S
C232 C236 1.527 . S
C233 C232 1.401 . S
C233 C234 1.405 . S
C233 C266 1.587 . S
C234 C233 1.405 . S
C234 C235 1.332 . S
C234 C237 1.496 . S
C235 C230 1.418 . S
C235 C234 1.332 . S
C235 H293 0.929 . S
C236 C232 1.527 . S
C236 H294 0.959 . S
C236 H295 0.961 . S
C236 H296 0.961 . S
C237 C234 1.496 . S
C237 H297 0.960 . S
C237 H298 0.960 . S
C237 H299 0.961 . S
C238 C239 1.517 . S
C238 H301 0.961 . S
C238 H302 0.960 . S
C238 H303 0.959 . S
C239 C238 1.517 . S
C239 O287 1.468 . S
C239 H300 0.980 . S
C240 C241 1.349 . S
C240 C245 1.367 . S
C240 O287 1.408 . S
C241 C240 1.349 . S
C241 C242 1.407 . S
C241 H304 0.930 . S
C242 C241 1.407 . S
C242 C243 1.449 . S
C242 C246 1.535 . S
C243 C242 1.449 . S
C243 C244 1.384 . S
C243 C268 1.553 . S
C244 C243 1.384 . S
C244 C245 1.364 . S
C244 C247 1.450 . S
C245 C240 1.367 . S
C245 C244 1.364 . S
C245 H305 0.931 . S
C246 C242 1.535 . S
C246 H306 0.959 . S
C246 H307 0.961 . S
C246 H308 0.959 . S
C247 C244 1.450 . S
C247 H309 0.960 . S
C247 H310 0.960 . S
C247 H311 0.960 . S
C248 C249 1.309 . S
C248 C253 1.304 . S
C248 O286 1.435 . S
C249 C248 1.309 . S
C249 C250 1.476 . S
C249 H313 0.930 . S
C250 C249 1.476 . S
C250 C251 1.400 . S
C250 C254 1.567 . S
C251 C250 1.400 . S
C251 C252 1.373 . S
C251 C273 1.432 . S
C252 C251 1.373 . S
C252 C253 1.339 . S
C252 C255 1.530 . S
C253 C248 1.304 . S
C253 C252 1.339 . S
C253 H314 0.930 . S
C254 C250 1.567 . S
C254 H315 0.961 . S
C254 H316 0.960 . S
C254 H317 0.958 . S
C255 C252 1.530 . S
C255 H318 0.961 . S
C255 H319 0.960 . S
C255 H320 0.960 . S
C256 C257 1.530 . S
C256 H322 0.961 . S
C256 H323 0.961 . S
C256 H324 0.959 . S
C257 C256 1.530 . S
C257 O285 1.412 . S
C257 H321 0.980 . S
C258 C259 1.288 . S
C258 C263 1.377 . S
C258 O285 1.393 . S
C259 C258 1.288 . S
C259 C260 1.369 . S
C259 H325 0.932 . S
C260 C259 1.369 . S
C260 C261 1.398 . S
C260 C264 1.527 . S
C261 C260 1.398 . S
C261 C262 1.380 . S
C261 C275 1.497 . S
C262 C261 1.380 . S
C262 C263 1.383 . S
C262 C265 1.603 . S
C263 C258 1.377 . S
C263 C262 1.383 . S
C263 H326 0.929 . S
C264 C260 1.527 . S
C264 H327 0.961 . S
C264 H328 0.959 . S
C264 H329 0.959 . S
C265 C262 1.603 . S
C265 H330 0.960 . S
C265 H331 0.962 . S
C265 H332 0.961 . S
C266 C233 1.587 . S
C266 C267 1.360 . S
C266 C279 1.412 . S
C267 C266 1.360 . S
C267 C268 1.365 . S
C267 H333 0.929 . S
C268 C243 1.553 . S
C268 C267 1.365 . S
C268 C269 1.404 . S
C269 C268 1.404 . S
C269 C270 1.395 . S
C269 C280 1.451 . S
C270 C269 1.395 . S
C270 C271 1.322 . S
C270 H334 0.930 . S
C271 C270 1.322 . S
C271 C272 1.459 1_554 S
C271 H335 0.929 . S
C272 C271 1.459 1_556 S
C272 C273 1.445 . S
C272 C281 1.395 1_556 S
C273 C251 1.432 . S
C273 C272 1.445 . S
C273 C274 1.370 . S
C274 C273 1.370 . S
C274 C275 1.438 . S
C274 H336 0.930 . S
C275 C261 1.497 . S
C275 C274 1.438 . S
C275 C276 1.360 . S
C276 C275 1.360 . S
C276 C277 1.401 1_556 S
C276 C281 1.446 1_556 S
C277 C276 1.401 1_554 S
C277 C278 1.347 . S
C277 H337 0.929 1_554 S
C278 C277 1.347 . S
C278 C279 1.455 . S
C278 H338 0.930 . S
C279 C266 1.412 . S
C279 C278 1.455 . S
C279 C280 1.331 . S
C280 C269 1.451 . S
C280 C279 1.331 . S
C280 C281 1.497 . S
C281 C272 1.395 1_554 S
C281 C276 1.446 1_554 S
C281 C280 1.497 . S
C282 C283 1.582 . S
C282 H339 0.962 . S
C282 H340 0.959 . S
C282 H341 0.958 . S
C283 C282 1.582 . S
C283 O286 1.458 . S
C283 H312 0.980 . S
O284 C229 1.426 . S
O284 C230 1.334 . S
O285 C257 1.412 . S
O285 C258 1.393 . S
O286 C248 1.435 . S
O286 C283 1.458 . S
O287 C239 1.468 . S
O287 C240 1.408 . S
H288 C229 0.980 . S
H289 C228 0.959 . S
H290 C228 0.959 . S
H291 C228 0.960 . S
H292 C231 0.929 . S
H293 C235 0.929 . S
H294 C236 0.959 . S
H295 C236 0.961 . S
H296 C236 0.961 . S
H297 C237 0.960 . S
H298 C237 0.960 . S
H299 C237 0.961 . S
H300 C239 0.980 . S
H301 C238 0.961 . S
H302 C238 0.960 . S
H303 C238 0.959 . S
H304 C241 0.930 . S
H305 C245 0.931 . S
H306 C246 0.959 . S
H307 C246 0.961 . S
H308 C246 0.959 . S
H309 C247 0.960 . S
H310 C247 0.960 . S
H311 C247 0.960 . S
H312 C283 0.980 . S
H313 C249 0.930 . S
H314 C253 0.930 . S
H315 C254 0.961 . S
H316 C254 0.960 . S
H317 C254 0.958 . S
H318 C255 0.961 . S
H319 C255 0.960 . S
H320 C255 0.960 . S
H321 C257 0.980 . S
H322 C256 0.961 . S
H323 C256 0.961 . S
H324 C256 0.959 . S
H325 C259 0.932 . S
H326 C263 0.929 . S
H327 C264 0.961 . S
H328 C264 0.959 . S
H329 C264 0.959 . S
H330 C265 0.960 . S
H331 C265 0.962 . S
H332 C265 0.961 . S
H333 C267 0.929 . S
H334 C270 0.930 . S
H335 C271 0.929 . S
H336 C274 0.930 . S
H337 C277 0.929 1_556 S
H338 C278 0.930 . S
H339 C282 0.962 . S
H340 C282 0.959 . S
H341 C282 0.958 . S
C342 C343 1.560 . S
C342 H403 0.959 . S
C342 H404 0.959 . S
C342 H405 0.960 . S
C343 C342 1.560 . S
C343 O398 1.426 . S
C343 H402 0.980 . S
C344 C345 1.407 . S
C344 C349 1.418 . S
C344 O398 1.334 . S
C345 C344 1.407 . S
C345 C346 1.360 . S
C345 H406 0.929 . S
C346 C345 1.360 . S
C346 C347 1.401 . S
C346 C350 1.527 . S
C347 C346 1.401 . S
C347 C348 1.405 . S
C347 C380 1.587 . S
C348 C347 1.405 . S
C348 C349 1.332 . S
C348 C351 1.496 . S
C349 C344 1.418 . S
C349 C348 1.332 . S
C349 H407 0.929 . S
C350 C346 1.527 . S
C350 H408 0.959 . S
C350 H409 0.961 . S
C350 H410 0.961 . S
C351 C348 1.496 . S
C351 H411 0.960 . S
C351 H412 0.960 . S
C351 H413 0.961 . S
C352 C353 1.517 . S
C352 H415 0.961 . S
C352 H416 0.960 . S
C352 H417 0.959 . S
C353 C352 1.517 . S
C353 O401 1.468 . S
C353 H414 0.980 . S
C354 C355 1.349 . S
C354 C359 1.367 . S
C354 O401 1.408 . S
C355 C354 1.349 . S
C355 C356 1.407 . S
C355 H418 0.930 . S
C356 C355 1.407 . S
C356 C357 1.449 . S
C356 C360 1.535 . S
C357 C356 1.449 . S
C357 C358 1.384 . S
C357 C382 1.553 . S
C358 C357 1.384 . S
C358 C359 1.364 . S
C358 C361 1.450 . S
C359 C354 1.367 . S
C359 C358 1.364 . S
C359 H419 0.931 . S
C360 C356 1.535 . S
C360 H420 0.959 . S
C360 H421 0.961 . S
C360 H422 0.959 . S
C361 C358 1.450 . S
C361 H423 0.960 . S
C361 H424 0.960 . S
C361 H425 0.960 . S
C362 C363 1.309 . S
C362 C367 1.304 . S
C362 O400 1.435 . S
C363 C362 1.309 . S
C363 C364 1.476 . S
C363 H427 0.930 . S
C364 C363 1.476 . S
C364 C365 1.400 . S
C364 C368 1.567 . S
C365 C364 1.400 . S
C365 C366 1.373 . S
C365 C387 1.432 . S
C366 C365 1.373 . S
C366 C367 1.339 . S
C366 C369 1.530 . S
C367 C362 1.304 . S
C367 C366 1.339 . S
C367 H428 0.930 . S
C368 C364 1.567 . S
C368 H429 0.971 . S
C368 H430 0.960 . S
C368 H431 0.958 . S
C369 C366 1.530 . S
C369 H432 0.961 . S
C369 H433 0.960 . S
C369 H434 0.960 . S
C370 C371 1.530 . S
C370 H436 0.961 . S
C370 H437 0.961 . S
C370 H438 0.959 . S
C371 C370 1.530 . S
C371 O399 1.412 . S
C371 H435 0.980 . S
C372 C373 1.288 . S
C372 C377 1.377 . S
C372 O399 1.393 . S
C373 C372 1.288 . S
C373 C374 1.369 . S
C373 H439 0.932 . S
C374 C373 1.369 . S
C374 C375 1.398 . S
C374 C378 1.527 . S
C375 C374 1.398 . S
C375 C376 1.380 . S
C375 C389 1.497 . S
C376 C375 1.380 . S
C376 C377 1.383 . S
C376 C379 1.603 . S
C377 C372 1.377 . S
C377 C376 1.383 . S
C377 H440 0.929 . S
C378 C374 1.527 . S
C378 H441 0.961 . S
C378 H442 0.959 . S
C378 H443 0.959 . S
C379 C376 1.603 . S
C379 H444 0.960 . S
C379 H445 0.962 . S
C379 H446 0.961 . S
C380 C347 1.587 . S
C380 C381 1.360 . S
C380 C393 1.412 . S
C381 C380 1.360 . S
C381 C382 1.365 . S
C381 H447 0.929 . S
C382 C357 1.553 . S
C382 C381 1.365 . S
C382 C383 1.404 . S
C383 C382 1.404 . S
C383 C384 1.395 . S
C383 C394 1.451 . S
C384 C383 1.395 . S
C384 C385 1.322 . S
C384 H448 0.930 . S
C385 C384 1.322 . S
C385 C386 1.459 . S
C385 H449 0.929 . S
C386 C385 1.459 . S
C386 C387 1.445 1_554 S
C386 C395 1.395 . S
C387 C365 1.432 . S
C387 C386 1.445 1_556 S
C387 C388 1.370 . S
C388 C387 1.370 . S
C388 C389 1.438 . S
C388 H450 0.930 . S
C389 C375 1.497 . S
C389 C388 1.438 . S
C389 C390 1.360 1_556 S
C390 C389 1.360 1_554 S
C390 C391 1.401 . S
C390 C395 1.446 . S
C391 C390 1.401 . S
C391 C392 1.347 . S
C391 H451 0.929 . S
C392 C391 1.347 . S
C392 C393 1.455 . S
C392 H452 0.930 . S
C393 C380 1.412 . S
C393 C392 1.455 . S
C393 C394 1.331 . S
C394 C383 1.451 . S
C394 C393 1.331 . S
C394 C395 1.497 . S
C395 C386 1.395 . S
C395 C390 1.446 . S
C395 C394 1.497 . S
C396 C397 1.582 . S
C396 H453 0.962 . S
C396 H454 0.959 . S
C396 H455 0.958 . S
C397 C396 1.582 . S
C397 O400 1.458 . S
C397 H426 0.980 . S
O398 C343 1.426 . S
O398 C344 1.334 . S
O399 C371 1.412 . S
O399 C372 1.393 . S
O400 C362 1.435 . S
O400 C397 1.458 . S
O401 C353 1.468 . S
O401 C354 1.408 . S
H402 C343 0.980 . S
H403 C342 0.959 . S
H404 C342 0.959 . S
H405 C342 0.960 . S
H406 C345 0.929 . S
H407 C349 0.929 . S
H408 C350 0.959 . S
H409 C350 0.961 . S
H410 C350 0.961 . S
H411 C351 0.960 . S
H412 C351 0.960 . S
H413 C351 0.961 . S
H414 C353 0.980 . S
H415 C352 0.961 . S
H416 C352 0.960 . S
H417 C352 0.959 . S
H418 C355 0.930 . S
H419 C359 0.931 . S
H420 C360 0.959 . S
H421 C360 0.961 . S
H422 C360 0.959 . S
H423 C361 0.960 . S
H424 C361 0.960 . S
H425 C361 0.960 . S
H426 C397 0.980 . S
H427 C363 0.930 . S
H428 C367 0.930 . S
H429 C368 0.971 . S
H430 C368 0.960 . S
H431 C368 0.958 . S
H432 C369 0.961 . S
H433 C369 0.960 . S
H434 C369 0.960 . S
H435 C371 0.980 . S
H436 C370 0.961 . S
H437 C370 0.961 . S
H438 C370 0.959 . S
H439 C373 0.932 . S
H440 C377 0.929 . S
H441 C378 0.961 . S
H442 C378 0.959 . S
H443 C378 0.959 . S
H444 C379 0.960 . S
H445 C379 0.962 . S
H446 C379 0.961 . S
H447 C381 0.929 . S
H448 C384 0.930 . S
H449 C385 0.929 . S
H450 C388 0.930 . S
H451 C391 0.929 . S
H452 C392 0.930 . S
H453 C396 0.962 . S
H454 C396 0.959 . S
H455 C396 0.958 . S
C456 C457 1.560 . S
C456 H517 0.959 . S
C456 H518 0.959 . S
C456 H519 0.960 . S
C457 C456 1.560 . S
C457 O512 1.426 . S
C457 H516 0.980 . S
C458 C459 1.407 . S
C458 C463 1.418 . S
C458 O512 1.334 . S
C459 C458 1.407 . S
C459 C460 1.360 . S
C459 H520 0.929 . S
C460 C459 1.360 . S
C460 C461 1.401 . S
C460 C464 1.527 . S
C461 C460 1.401 . S
C461 C462 1.405 . S
C461 C494 1.587 . S
C462 C461 1.405 . S
C462 C463 1.332 . S
C462 C465 1.496 . S
C463 C458 1.418 . S
C463 C462 1.332 . S
C463 H521 0.929 . S
C464 C460 1.527 . S
C464 H522 0.959 . S
C464 H523 0.961 . S
C464 H524 0.961 . S
C465 C462 1.496 . S
C465 H525 0.960 . S
C465 H526 0.960 . S
C465 H527 0.961 1_556 S
C466 C467 1.517 . S
C466 H529 0.961 . S
C466 H530 0.960 . S
C466 H531 0.959 . S
C467 C466 1.517 . S
C467 O515 1.468 . S
C467 H528 0.980 . S
C468 C469 1.349 . S
C468 C473 1.367 . S
C468 O515 1.408 . S
C469 C468 1.349 . S
C469 C470 1.407 . S
C469 H532 0.930 . S
C470 C469 1.407 . S
C470 C471 1.449 . S
C470 C474 1.535 . S
C471 C470 1.449 . S
C471 C472 1.384 . S
C471 C496 1.553 . S
C472 C471 1.384 . S
C472 C473 1.364 . S
C472 C475 1.450 . S
C473 C468 1.367 . S
C473 C472 1.364 . S
C473 H533 0.931 . S
C474 C470 1.535 . S
C474 H534 0.959 . S
C474 H535 0.961 . S
C474 H536 0.959 . S
C475 C472 1.450 . S
C475 H537 0.960 . S
C475 H538 0.960 . S
C475 H539 0.960 1_556 S
C476 C477 1.309 . S
C476 C481 1.304 . S
C476 O514 1.435 . S
C477 C476 1.309 . S
C477 C478 1.476 . S
C477 H541 0.930 . S
C478 C477 1.476 . S
C478 C479 1.400 . S
C478 C482 1.567 . S
C479 C478 1.400 . S
C479 C480 1.373 . S
C479 C501 1.432 . S
C480 C479 1.373 . S
C480 C481 1.339 . S
C480 C483 1.530 . S
C481 C476 1.304 . S
C481 C480 1.339 . S
C481 H542 0.930 . S
C482 C478 1.567 . S
C482 H543 0.961 . S
C482 H544 0.960 . S
C482 H545 0.958 . S
C483 C480 1.530 . S
C483 H546 0.961 . S
C483 H547 0.960 . S
C483 H548 0.960 . S
C484 C485 1.530 . S
C484 H550 0.961 . S
C484 H551 0.961 . S
C484 H552 0.959 . S
C485 C484 1.530 . S
C485 O513 1.412 . S
C485 H549 0.980 . S
C486 C487 1.288 . S
C486 C491 1.377 . S
C486 O513 1.393 . S
C487 C486 1.288 . S
C487 C488 1.369 . S
C487 H553 0.932 . S
C488 C487 1.369 . S
C488 C489 1.398 . S
C488 C492 1.527 . S
C489 C488 1.398 . S
C489 C490 1.380 . S
C489 C503 1.497 . S
C490 C489 1.380 . S
C490 C491 1.383 . S
C490 C493 1.603 . S
C491 C486 1.377 . S
C491 C490 1.383 . S
C491 H554 0.929 . S
C492 C488 1.527 . S
C492 H555 0.961 . S
C492 H556 0.959 . S
C492 H557 0.959 . S
C493 C490 1.603 . S
C493 H558 0.960 . S
C493 H559 0.962 . S
C493 H560 0.961 . S
C494 C461 1.587 . S
C494 C495 1.360 . S
C494 C507 1.412 1_556 S
C495 C494 1.360 . S
C495 C496 1.365 . S
C495 H561 0.929 . S
C496 C471 1.553 . S
C496 C495 1.365 . S
C496 C497 1.404 1_556 S
C497 C496 1.404 1_554 S
C497 C498 1.395 . S
C497 C508 1.451 . S
C498 C497 1.395 . S
C498 C499 1.322 . S
C498 H562 0.930 . S
C499 C498 1.322 . S
C499 C500 1.459 . S
C499 H563 0.929 . S
C500 C499 1.459 . S
C500 C501 1.445 . S
C500 C509 1.395 . S
C501 C479 1.432 . S
C501 C500 1.445 . S
C501 C502 1.370 . S
C502 C501 1.370 . S
C502 C503 1.438 . S
C502 H564 0.930 . S
C503 C489 1.497 . S
C503 C502 1.438 . S
C503 C504 1.360 . S
C504 C503 1.360 . S
C504 C505 1.401 . S
C504 C509 1.446 . S
C505 C504 1.401 . S
C505 C506 1.347 . S
C505 H565 0.929 . S
C506 C505 1.347 . S
C506 C507 1.455 . S
C506 H566 0.930 . S
C507 C494 1.412 1_554 S
C507 C506 1.455 . S
C507 C508 1.331 . S
C508 C497 1.451 . S
C508 C507 1.331 . S
C508 C509 1.497 . S
C509 C500 1.395 . S
C509 C504 1.446 . S
C509 C508 1.497 . S
C510 C511 1.582 . S
C510 H567 0.962 . S
C510 H568 0.959 . S
C510 H569 0.958 . S
C511 C510 1.582 . S
C511 O514 1.458 . S
C511 H540 0.980 . S
O512 C457 1.426 . S
O512 C458 1.334 . S
O513 C485 1.412 . S
O513 C486 1.393 . S
O514 C476 1.435 . S
O514 C511 1.458 . S
O515 C467 1.468 . S
O515 C468 1.408 . S
H516 C457 0.980 . S
H517 C456 0.959 . S
H518 C456 0.959 . S
H519 C456 0.960 . S
H520 C459 0.929 . S
H521 C463 0.929 . S
H522 C464 0.959 . S
H523 C464 0.961 . S
H524 C464 0.961 . S
H525 C465 0.960 . S
H526 C465 0.960 . S
H527 C465 0.961 1_554 S
H528 C467 0.980 . S
H529 C466 0.961 . S
H530 C466 0.960 . S
H531 C466 0.959 . S
H532 C469 0.930 . S
H533 C473 0.931 . S
H534 C474 0.959 . S
H535 C474 0.961 . S
H536 C474 0.959 . S
H537 C475 0.960 . S
H538 C475 0.960 . S
H539 C475 0.960 1_554 S
H540 C511 0.980 . S
H541 C477 0.930 . S
H542 C481 0.930 . S
H543 C482 0.961 . S
H544 C482 0.960 . S
H545 C482 0.958 . S
H546 C483 0.961 . S
H547 C483 0.960 . S
H548 C483 0.960 . S
H549 C485 0.980 . S
H550 C484 0.961 . S
H551 C484 0.961 . S
H552 C484 0.959 . S
H553 C487 0.932 . S
H554 C491 0.929 . S
H555 C492 0.961 . S
H556 C492 0.959 . S
H557 C492 0.959 . S
H558 C493 0.960 . S
H559 C493 0.962 . S
H560 C493 0.961 . S
H561 C495 0.929 . S
H562 C498 0.930 . S
H563 C499 0.929 . S
H564 C502 0.930 . S
H565 C505 0.929 . S
H566 C506 0.930 . S
H567 C510 0.962 . S
H568 C510 0.959 . S
H569 C510 0.958 . S
C570 C571 1.560 . S
C570 H631 0.959 . S
C570 H632 0.959 . S
C570 H633 0.960 . S
C571 C570 1.560 . S
C571 O626 1.426 . S
C571 H630 0.980 . S
C572 C573 1.407 . S
C572 C577 1.418 . S
C572 O626 1.334 . S
C573 C572 1.407 . S
C573 C574 1.360 . S
C573 H634 0.929 . S
C574 C573 1.360 . S
C574 C575 1.401 . S
C574 C578 1.527 . S
C575 C574 1.401 . S
C575 C576 1.405 . S
C575 C608 1.587 . S
C576 C575 1.405 . S
C576 C577 1.332 . S
C576 C579 1.496 . S
C577 C572 1.418 . S
C577 C576 1.332 . S
C577 H635 0.929 . S
C578 C574 1.527 . S
C578 H636 0.959 . S
C578 H637 0.961 . S
C578 H638 0.961 . S
C579 C576 1.496 . S
C579 H639 0.960 . S
C579 H640 0.960 . S
C579 H641 0.961 . S
C580 C581 1.517 . S
C580 H643 0.961 . S
C580 H644 0.960 . S
C580 H645 0.959 . S
C581 C580 1.517 . S
C581 O629 1.468 . S
C581 H642 0.980 . S
C582 C583 1.349 . S
C582 C587 1.367 . S
C582 O629 1.408 . S
C583 C582 1.349 . S
C583 C584 1.407 . S
C583 H646 0.930 . S
C584 C583 1.407 . S
C584 C585 1.449 . S
C584 C588 1.535 . S
C585 C584 1.449 . S
C585 C586 1.384 . S
C585 C610 1.553 . S
C586 C585 1.384 . S
C586 C587 1.364 . S
C586 C589 1.450 . S
C587 C582 1.367 . S
C587 C586 1.364 . S
C587 H647 0.931 . S
C588 C584 1.535 . S
C588 H648 0.959 . S
C588 H649 0.961 . S
C588 H650 0.959 . S
C589 C586 1.450 . S
C589 H651 0.960 . S
C589 H652 0.960 . S
C589 H653 0.960 . S
C590 C591 1.309 . S
C590 C595 1.304 . S
C590 O628 1.435 . S
C591 C590 1.309 . S
C591 C592 1.476 . S
C591 H655 0.930 . S
C592 C591 1.476 . S
C592 C593 1.400 . S
C592 C596 1.567 . S
C593 C592 1.400 . S
C593 C594 1.373 . S
C593 C615 1.432 . S
C594 C593 1.373 . S
C594 C595 1.339 . S
C594 C597 1.530 . S
C595 C590 1.304 . S
C595 C594 1.339 . S
C595 H656 0.930 . S
C596 C592 1.567 . S
C596 H657 0.961 . S
C596 H658 0.960 . S
C596 H659 0.958 . S
C597 C594 1.530 . S
C597 H660 0.961 . S
C597 H661 0.960 . S
C597 H662 0.960 . S
C598 C599 1.530 . S
C598 H664 0.961 . S
C598 H665 0.979 . S
C598 H666 0.959 . S
C599 C598 1.530 . S
C599 O627 1.412 . S
C599 H663 0.980 1_556 S
C600 C601 1.288 . S
C600 C605 1.377 . S
C600 O627 1.393 1_554 S
C601 C600 1.288 . S
C601 C602 1.369 . S
C601 H667 0.932 . S
C602 C601 1.369 . S
C602 C603 1.398 . S
C602 C606 1.527 . S
C603 C602 1.398 . S
C603 C604 1.380 . S
C603 C617 1.497 . S
C604 C603 1.380 . S
C604 C605 1.383 . S
C604 C607 1.603 . S
C605 C600 1.377 . S
C605 C604 1.383 . S
C605 H668 0.929 . S
C606 C602 1.527 . S
C606 H669 0.961 . S
C606 H670 0.959 . S
C606 H671 0.959 . S
C607 C604 1.603 . S
C607 H672 0.960 . S
C607 H673 0.962 . S
C607 H674 0.961 . S
C608 C575 1.587 . S
C608 C609 1.360 . S
C608 C621 1.412 . S
C609 C608 1.360 . S
C609 C610 1.365 . S
C609 H675 0.929 . S
C610 C585 1.553 . S
C610 C609 1.365 . S
C610 C611 1.404 . S
C611 C610 1.404 . S
C611 C612 1.395 . S
C611 C622 1.451 . S
C612 C611 1.395 . S
C612 C613 1.322 . S
C612 H676 0.930 . S
C613 C612 1.322 . S
C613 C614 1.459 . S
C613 H677 0.929 . S
C614 C613 1.459 . S
C614 C615 1.445 . S
C614 C623 1.395 . S
C615 C593 1.432 . S
C615 C614 1.445 . S
C615 C616 1.370 . S
C616 C615 1.370 . S
C616 C617 1.438 . S
C616 H678 0.930 . S
C617 C603 1.497 . S
C617 C616 1.438 . S
C617 C618 1.360 . S
C618 C617 1.360 . S
C618 C619 1.401 . S
C618 C623 1.446 . S
C619 C618 1.401 . S
C619 C620 1.347 . S
C619 H679 0.929 . S
C620 C619 1.347 . S
C620 C621 1.455 . S
C620 H680 0.930 . S
C621 C608 1.412 . S
C621 C620 1.455 . S
C621 C622 1.331 . S
C622 C611 1.451 . S
C622 C621 1.331 . S
C622 C623 1.497 . S
C623 C614 1.395 . S
C623 C618 1.446 . S
C623 C622 1.497 . S
C624 C625 1.582 . S
C624 H681 0.962 . S
C624 H682 0.959 . S
C624 H683 0.958 . S
C625 C624 1.582 . S
C625 O628 1.458 1_556 S
C625 H654 0.980 1_556 S
O626 C571 1.426 . S
O626 C572 1.334 . S
O627 C599 1.412 . S
O627 C600 1.393 1_556 S
O628 C590 1.435 . S
O628 C625 1.458 1_554 S
O629 C581 1.468 . S
O629 C582 1.408 . S
H630 C571 0.980 . S
H631 C570 0.959 . S
H632 C570 0.959 . S
H633 C570 0.960 . S
H634 C573 0.929 . S
H635 C577 0.929 . S
H636 C578 0.959 . S
H637 C578 0.961 . S
H638 C578 0.961 . S
H639 C579 0.960 . S
H640 C579 0.960 . S
H641 C579 0.961 . S
H642 C581 0.980 . S
H643 C580 0.961 . S
H644 C580 0.960 . S
H645 C580 0.959 . S
H646 C583 0.930 . S
H647 C587 0.931 . S
H648 C588 0.959 . S
H649 C588 0.961 . S
H650 C588 0.959 . S
H651 C589 0.960 . S
H652 C589 0.960 . S
H653 C589 0.960 . S
H654 C625 0.980 1_554 S
H655 C591 0.930 . S
H656 C595 0.930 . S
H657 C596 0.961 . S
H658 C596 0.960 . S
H659 C596 0.958 . S
H660 C597 0.961 . S
H661 C597 0.960 . S
H662 C597 0.960 . S
H663 C599 0.980 1_554 S
H664 C598 0.961 . S
H665 C598 0.979 . S
H666 C598 0.959 . S
H667 C601 0.932 . S
H668 C605 0.929 . S
H669 C606 0.961 . S
H670 C606 0.959 . S
H671 C606 0.959 . S
H672 C607 0.960 . S
H673 C607 0.962 . S
H674 C607 0.961 . S
H675 C609 0.929 . S
H676 C612 0.930 . S
H677 C613 0.929 . S
H678 C616 0.930 . S
H679 C619 0.929 . S
H680 C620 0.930 . S
H681 C624 0.962 . S
H682 C624 0.959 . S
H683 C624 0.958 . S
C684 O696 1.241 . S
C684 O697 1.280 . S
C685 O698 1.277 . S
C685 O699 1.245 . S
C686 O710 1.247 . S
C686 O712 1.289 . S
Mg687 O688 1.926 . S
Mg687 O697 1.984 1_455 S
Mg687 O699 1.988 . S
Mg687 O700 2.061 1_455 S
O688 Mg687 1.926 . S
O688 Mg689 1.986 . S
O688 Mg690 1.917 . S
Mg689 O688 1.986 . S
Mg689 O696 2.042 1_455 S
Mg689 O698 2.041 . S
Mg689 O704 2.038 1_455 S
Mg689 O712 2.238 . S
Mg690 O688 1.917 . S
Mg690 O691 1.917 . S
Mg690 O701 2.106 1_455 S
Mg690 O703 2.079 1_455 S
Mg690 O712 2.106 . S
Mg690 O713 2.079 . S
O691 Mg690 1.917 . S
O691 Mg692 1.926 . S
O691 Mg693 1.986 . S
Mg692 O691 1.926 . S
Mg692 O706 1.984 . S
Mg692 O709 1.988 1_455 S
Mg692 O710 2.061 . S
Mg693 O691 1.986 . S
Mg693 O701 2.238 1_455 S
Mg693 O705 2.042 . S
Mg693 O707 2.041 1_455 S
Mg693 O714 2.038 . S
C694 O700 1.247 . S
C694 O701 1.289 . S
C695 O713 1.245 . S
C695 O714 1.274 . S
O696 C684 1.241 . S
O696 Mg689 2.042 1_655 S
O697 C684 1.280 . S
O697 Mg687 1.984 1_655 S
O698 C685 1.277 . S
O698 Mg689 2.041 . S
O699 C685 1.245 . S
O699 Mg687 1.988 . S
O700 Mg687 2.061 1_655 S
O700 C694 1.247 . S
O701 Mg690 2.106 1_655 S
O701 Mg693 2.238 1_655 S
O701 C694 1.289 . S
C702 O703 1.245 . S
C702 O704 1.274 . S
O703 Mg690 2.079 1_655 S
O703 C702 1.245 . S
O704 Mg689 2.038 1_655 S
O704 C702 1.274 . S
O705 Mg693 2.042 . S
O705 C708 1.241 . S
O706 Mg692 1.984 . S
O706 C708 1.280 . S
O707 Mg693 2.041 1_655 S
O707 C711 1.277 . S
C708 O705 1.241 . S
C708 O706 1.280 . S
O709 Mg692 1.988 1_655 S
O709 C711 1.245 . S
O710 C686 1.247 . S
O710 Mg692 2.061 . S
C711 O707 1.277 . S
C711 O709 1.245 . S
O712 C686 1.289 . S
O712 Mg689 2.238 . S
O712 Mg690 2.106 . S
O713 Mg690 2.079 . S
O713 C695 1.245 . S
O714 Mg693 2.038 . S
O714 C695 1.274 . S
C715 O727 1.241 . S
C715 O728 1.280 . S
C716 O729 1.277 . S
C716 O730 1.245 . S
C717 O741 1.247 . S
C717 O743 1.289 . S
Mg718 O719 1.926 . S
Mg718 O728 1.984 . S
Mg718 O730 1.988 1_545 S
Mg718 O731 2.061 . S
O719 Mg718 1.926 . S
O719 Mg720 1.986 . S
O719 Mg721 1.917 . S
Mg720 O719 1.986 . S
Mg720 O727 2.042 . S
Mg720 O729 2.041 1_545 S
Mg720 O735 2.038 . S
Mg720 O743 2.238 1_545 S
Mg721 O719 1.917 . S
Mg721 O722 1.917 . S
Mg721 O732 2.106 . S
Mg721 O734 2.079 . S
Mg721 O743 2.106 1_545 S
Mg721 O744 2.079 1_545 S
O722 Mg721 1.917 . S
O722 Mg723 1.896 1_545 S
O722 Mg724 1.986 . S
Mg723 O722 1.896 1_565 S
Mg723 O737 2.013 . S
Mg723 O740 1.949 1_565 S
Mg723 O741 2.080 . S
Mg724 O722 1.986 . S
Mg724 O732 2.238 . S
Mg724 O736 2.042 1_545 S
Mg724 O738 2.041 . S
Mg724 O745 2.038 1_545 S
C725 O731 1.247 . S
C725 O732 1.289 . S
C726 O744 1.245 . S
C726 O745 1.274 . S
O727 C715 1.241 . S
O727 Mg720 2.042 . S
O728 C715 1.280 . S
O728 Mg718 1.984 . S
O729 C716 1.277 . S
O729 Mg720 2.041 1_565 S
O730 C716 1.245 . S
O730 Mg718 1.988 1_565 S
O731 Mg718 2.061 . S
O731 C725 1.247 . S
O732 Mg721 2.106 . S
O732 Mg724 2.238 . S
O732 C725 1.289 . S
C733 O734 1.245 . S
C733 O735 1.274 . S
O734 Mg721 2.079 . S
O734 C733 1.245 . S
O735 Mg720 2.038 . S
O735 C733 1.274 . S
O736 Mg724 2.042 1_565 S
O736 C739 1.241 . S
O737 Mg723 2.013 . S
O737 C739 1.280 . S
O738 Mg724 2.041 . S
O738 C742 1.277 . S
C739 O736 1.241 . S
C739 O737 1.280 . S
O740 Mg723 1.949 1_545 S
O740 C742 1.245 . S
O741 C717 1.247 . S
O741 Mg723 2.080 . S
C742 O738 1.277 . S
C742 O740 1.245 . S
O743 C717 1.289 . S
O743 Mg720 2.238 1_565 S
O743 Mg721 2.106 1_565 S
O744 Mg721 2.079 1_565 S
O744 C726 1.245 . S
O745 Mg724 2.038 1_565 S
O745 C726 1.274 . S
C746 O758 1.241 . S
C746 O759 1.280 . S
C747 O760 1.277 . S
C747 O761 1.245 . S
C748 O772 1.247 . S
C748 O774 1.289 . S
Mg749 O750 1.926 . S
Mg749 O759 1.984 . S
Mg749 O761 1.988 . S
Mg749 O762 2.061 . S
O750 Mg749 1.926 . S
O750 Mg751 1.986 . S
O750 Mg752 1.917 . S
Mg751 O750 1.986 . S
Mg751 O758 2.042 . S
Mg751 O760 2.041 . S
Mg751 O766 2.038 . S
Mg751 O774 2.238 . S
Mg752 O750 1.917 . S
Mg752 O753 1.917 . S
Mg752 O763 2.106 . S
Mg752 O765 2.079 . S
Mg752 O774 2.106 . S
Mg752 O775 2.079 . S
O753 Mg752 1.917 . S
O753 Mg754 1.926 . S
O753 Mg755 1.986 . S
Mg754 O753 1.926 . S
Mg754 O768 1.984 . S
Mg754 O771 1.988 . S
Mg754 O772 2.061 . S
Mg755 O753 1.986 . S
Mg755 O763 2.238 . S
Mg755 O767 2.042 . S
Mg755 O769 2.041 . S
Mg755 O776 2.038 . S
C756 O762 1.247 . S
C756 O763 1.289 . S
C757 O775 1.245 . S
C757 O776 1.274 . S
O758 C746 1.241 . S
O758 Mg751 2.042 . S
O759 C746 1.280 . S
O759 Mg749 1.984 . S
O760 C747 1.277 . S
O760 Mg751 2.041 . S
O761 C747 1.245 . S
O761 Mg749 1.988 . S
O762 Mg749 2.061 . S
O762 C756 1.247 . S
O763 Mg752 2.106 . S
O763 Mg755 2.238 . S
O763 C756 1.289 . S
C764 O765 1.245 . S
C764 O766 1.274 . S
O765 Mg752 2.079 . S
O765 C764 1.245 . S
O766 Mg751 2.038 . S
O766 C764 1.274 . S
O767 Mg755 2.042 . S
O767 C770 1.241 . S
O768 Mg754 1.984 . S
O768 C770 1.280 . S
O769 Mg755 2.041 . S
O769 C773 1.277 . S
C770 O767 1.241 . S
C770 O768 1.280 . S
O771 Mg754 1.988 . S
O771 C773 1.245 . S
O772 C748 1.247 . S
O772 Mg754 2.061 . S
C773 O769 1.277 . S
C773 O771 1.245 . S
O774 C748 1.289 . S
O774 Mg751 2.238 . S
O774 Mg752 2.106 . S
O775 Mg752 2.079 . S
O775 C757 1.245 . S
O776 Mg755 2.038 . S
O776 C757 1.274 . S
H777 C783 0.930 . S
H778 C787 0.930 . S
H779 C792 0.929 . S
H780 C790 0.929 . S
H781 C785 0.929 . S
H782 C791 0.929 . S
C783 H777 0.930 . S
C783 C784 1.367 . S
C783 C791 1.378 . S
C784 C783 1.367 . S
C784 C792 1.433 . S
C785 H781 0.929 . S
C785 C787 1.378 . S
C785 C789 1.350 . S
C786 C789 1.463 . S
C786 C791 1.350 . S
C786 N794 1.427 . S
C787 H778 0.930 . S
C787 C785 1.378 . S
C787 C788 1.367 . S
C788 C787 1.367 . S
C788 C790 1.433 . S
C789 C785 1.350 . S
C789 C786 1.463 . S
C789 N793 1.427 . S
C790 H780 0.929 . S
C790 C788 1.433 . S
C790 N793 1.384 . S
C791 H782 0.929 . S
C791 C783 1.378 . S
C791 C786 1.350 . S
C792 H779 0.929 . S
C792 C784 1.433 . S
C792 N794 1.384 . S
N793 C789 1.427 . S
N793 C790 1.384 . S
N794 C786 1.427 . S
N794 C792 1.384 . S
H795 C801 0.930 . S
H796 C805 0.930 . S
H797 C810 0.929 . S
H798 C808 0.929 . S
H799 C803 0.929 . S
H800 C809 0.929 . S
C801 H795 0.930 . S
C801 C802 1.367 . S
C801 C809 1.378 . S
C802 C801 1.367 . S
C802 C810 1.433 . S
C803 H799 0.929 . S
C803 C805 1.378 . S
C803 C807 1.350 . S
C804 C807 1.463 . S
C804 C809 1.350 . S
C804 N812 1.427 . S
C805 H796 0.930 . S
C805 C803 1.378 . S
C805 C806 1.367 . S
C806 C805 1.367 . S
C806 C808 1.433 . S
C807 C803 1.350 . S
C807 C804 1.463 . S
C807 N811 1.427 . S
C808 H798 0.929 . S
C808 C806 1.433 . S
C808 N811 1.384 . S
C809 H800 0.929 . S
C809 C801 1.378 . S
C809 C804 1.350 . S
C810 H797 0.929 . S
C810 C802 1.433 . S
C810 N812 1.384 . S
N811 C807 1.427 . S
N811 C808 1.384 . S
N812 C804 1.427 . S
N812 C810 1.384 . S
H813 C819 0.930 . S
H814 C823 0.930 . S
H815 C828 0.929 . S
H816 C826 0.929 . S
H817 C821 0.929 . S
H818 C827 0.929 . S
C819 H813 0.930 . S
C819 C820 1.367 . S
C819 C827 1.378 . S
C820 C819 1.367 . S
C820 C828 1.433 . S
C821 H817 0.929 . S
C821 C823 1.378 . S
C821 C825 1.350 . S
C822 C825 1.463 . S
C822 C827 1.350 . S
C822 N830 1.427 . S
C823 H814 0.930 . S
C823 C821 1.378 . S
C823 C824 1.367 . S
C824 C823 1.367 . S
C824 C826 1.433 . S
C825 C821 1.350 . S
C825 C822 1.463 . S
C825 N829 1.427 . S
C826 H816 0.929 . S
C826 C824 1.433 . S
C826 N829 1.384 . S
C827 H818 0.929 . S
C827 C819 1.378 . S
C827 C822 1.350 . S
C828 H815 0.929 . S
C828 C820 1.433 . S
C828 N830 1.384 . S
N829 C825 1.427 . S
N829 C826 1.384 . S
N830 C822 1.427 . S
N830 C828 1.384 . S
H831 C837 0.930 . S
H832 C841 0.930 . S
H833 C846 0.929 . S
H834 C844 0.929 . S
H835 C839 0.929 . S
H836 C845 0.929 . S
C837 H831 0.930 . S
C837 C838 1.367 . S
C837 C845 1.378 . S
C838 C837 1.367 . S
C838 C846 1.433 . S
C839 H835 0.929 . S
C839 C841 1.378 . S
C839 C843 1.350 . S
C840 C843 1.463 . S
C840 C845 1.350 . S
C840 N848 1.427 . S
C841 H832 0.930 . S
C841 C839 1.378 . S
C841 C842 1.367 . S
C842 C841 1.367 . S
C842 C844 1.433 . S
C843 C839 1.350 . S
C843 C840 1.463 . S
C843 N847 1.427 . S
C844 H834 0.929 . S
C844 C842 1.433 . S
C844 N847 1.384 . S
C845 H836 0.929 . S
C845 C837 1.378 . S
C845 C840 1.350 . S
C846 H833 0.929 . S
C846 C838 1.433 . S
C846 N848 1.384 . S
N847 C843 1.427 . S
N847 C844 1.384 . S
N848 C840 1.427 . S
N848 C846 1.384 . S
H849 C855 0.930 . S
H850 C859 0.930 . S
H851 C864 0.929 . S
H852 C862 0.929 . S
H853 C857 0.929 . S
H854 C863 0.929 . S
C855 H849 0.930 . S
C855 C856 1.367 . S
C855 C863 1.378 . S
C856 C855 1.367 . S
C856 C864 1.433 . S
C857 H853 0.929 . S
C857 C859 1.378 . S
C857 C861 1.350 . S
C858 C861 1.463 . S
C858 C863 1.350 . S
C858 N866 1.427 . S
C859 H850 0.930 . S
C859 C857 1.378 . S
C859 C860 1.367 . S
C860 C859 1.367 . S
C860 C862 1.433 . S
C861 C857 1.350 . S
C861 C858 1.463 . S
C861 N865 1.427 . S
C862 H852 0.929 . S
C862 C860 1.433 . S
C862 N865 1.384 . S
C863 H854 0.929 . S
C863 C855 1.378 . S
C863 C858 1.350 . S
C864 H851 0.929 . S
C864 C856 1.433 . S
C864 N866 1.384 . S
N865 C861 1.427 . S
N865 C862 1.384 . S
N866 C858 1.427 . S
N866 C864 1.384 . S
H867 C873 0.930 . S
H868 C877 0.930 . S
H869 C882 0.929 . S
H870 C880 0.929 . S
H871 C875 0.929 . S
H872 C881 0.929 . S
C873 H867 0.930 . S
C873 C874 1.367 . S
C873 C881 1.378 . S
C874 C873 1.367 . S
C874 C882 1.433 . S
C875 H871 0.929 . S
C875 C877 1.378 . S
C875 C879 1.350 . S
C876 C879 1.463 . S
C876 C881 1.350 . S
C876 N884 1.427 . S
C877 H868 0.930 . S
C877 C875 1.378 . S
C877 C878 1.367 . S
C878 C877 1.367 . S
C878 C880 1.433 . S
C879 C875 1.350 . S
C879 C876 1.463 . S
C879 N883 1.427 . S
C880 H870 0.929 . S
C880 C878 1.433 . S
C880 N883 1.384 . S
C881 H872 0.929 . S
C881 C873 1.378 . S
C881 C876 1.350 . S
C882 H869 0.929 . S
C882 C874 1.433 . S
C882 N884 1.384 . S
N883 C879 1.427 . S
N883 C880 1.384 . S
N884 C876 1.427 . S
N884 C882 1.384 . S
H885 C891 0.930 . S
H886 C895 0.930 . S
H887 C900 0.929 . S
H888 C898 0.929 . S
H889 C893 0.929 . S
H890 C899 0.929 . S
C891 H885 0.930 . S
C891 C892 1.367 . S
C891 C899 1.378 . S
C892 C891 1.367 . S
C892 C900 1.433 . S
C893 H889 0.929 . S
C893 C895 1.378 . S
C893 C897 1.350 . S
C894 C897 1.463 . S
C894 C899 1.350 . S
C894 N902 1.427 . S
C895 H886 0.930 . S
C895 C893 1.378 . S
C895 C896 1.367 . S
C896 C895 1.367 . S
C896 C898 1.433 . S
C897 C893 1.350 . S
C897 C894 1.463 . S
C897 N901 1.427 . S
C898 H888 0.929 . S
C898 C896 1.433 . S
C898 N901 1.384 . S
C899 H890 0.929 . S
C899 C891 1.378 . S
C899 C894 1.350 . S
C900 H887 0.929 . S
C900 C892 1.433 . S
C900 N902 1.384 . S
N901 C897 1.427 . S
N901 C898 1.384 . S
N902 C894 1.427 . S
N902 C900 1.384 . S
H903 C909 0.930 . S
H904 C913 0.930 . S
H905 C918 0.929 . S
H906 C916 0.929 . S
H907 C911 0.929 . S
H908 C917 0.929 . S
C909 H903 0.930 . S
C909 C910 1.367 . S
C909 C917 1.378 . S
C910 C909 1.367 . S
C910 C918 1.433 . S
C911 H907 0.929 . S
C911 C913 1.378 . S
C911 C915 1.350 . S
C912 C915 1.463 . S
C912 C917 1.350 . S
C912 N920 1.427 . S
C913 H904 0.930 . S
C913 C911 1.378 . S
C913 C914 1.367 . S
C914 C913 1.367 . S
C914 C916 1.433 . S
C915 C911 1.350 . S
C915 C912 1.463 . S
C915 N919 1.427 . S
C916 H906 0.929 . S
C916 C914 1.433 . S
C916 N919 1.384 . S
C917 H908 0.929 . S
C917 C909 1.378 . S
C917 C912 1.350 . S
C918 H905 0.929 . S
C918 C910 1.433 . S
C918 N920 1.384 . S
N919 C915 1.427 . S
N919 C916 1.384 . S
N920 C912 1.427 . S
N920 C918 1.384 . S
H921 C927 0.930 . S
H922 C931 0.930 . S
H923 C936 0.929 . S
H924 C934 0.929 . S
H925 C929 0.929 . S
H926 C935 0.929 . S
C927 H921 0.930 . S
C927 C928 1.367 . S
C927 C935 1.378 . S
C928 C927 1.367 . S
C928 C936 1.433 . S
C929 H925 0.929 . S
C929 C931 1.378 . S
C929 C933 1.350 . S
C930 C933 1.463 . S
C930 C935 1.350 . S
C930 N938 1.427 . S
C931 H922 0.930 . S
C931 C929 1.378 . S
C931 C932 1.367 . S
C932 C931 1.367 . S
C932 C934 1.433 . S
C933 C929 1.350 . S
C933 C930 1.463 . S
C933 N937 1.427 . S
C934 H924 0.929 . S
C934 C932 1.433 . S
C934 N937 1.384 . S
C935 H926 0.929 . S
C935 C927 1.378 . S
C935 C930 1.350 . S
C936 H923 0.929 . S
C936 C928 1.433 . S
C936 N938 1.384 . S
N937 C933 1.427 . S
N937 C934 1.384 . S
N938 C930 1.427 . S
N938 C936 1.384 . S
H939 C945 0.930 . S
H940 C949 0.930 . S
H941 C954 0.929 . S
H942 C952 0.929 . S
H943 C947 0.929 . S
H944 C953 0.929 . S
C945 H939 0.930 . S
C945 C946 1.367 . S
C945 C953 1.378 . S
C946 C945 1.367 . S
C946 C954 1.433 . S
C947 H943 0.929 . S
C947 C949 1.378 . S
C947 C951 1.350 . S
C948 C951 1.463 . S
C948 C953 1.350 . S
C948 N956 1.427 . S
C949 H940 0.930 . S
C949 C947 1.378 . S
C949 C950 1.367 . S
C950 C949 1.367 . S
C950 C952 1.433 . S
C951 C947 1.350 . S
C951 C948 1.463 . S
C951 N955 1.427 . S
C952 H942 0.929 . S
C952 C950 1.433 . S
C952 N955 1.384 . S
C953 H944 0.929 . S
C953 C945 1.378 . S
C953 C948 1.350 . S
C954 H941 0.929 . S
C954 C946 1.433 . S
C954 N956 1.384 . S
N955 C951 1.427 . S
N955 C952 1.384 . S
N956 C948 1.427 . S
N956 C954 1.384 . S
H957 C963 0.930 . S
H958 C967 0.930 . S
H959 C972 0.929 . S
H960 C970 0.929 . S
H961 C965 0.929 . S
H962 C971 0.929 . S
C963 H957 0.930 . S
C963 C964 1.367 . S
C963 C971 1.378 . S
C964 C963 1.367 . S
C964 C972 1.433 . S
C965 H961 0.929 . S
C965 C967 1.378 . S
C965 C969 1.350 . S
C966 C969 1.463 . S
C966 C971 1.350 . S
C966 N974 1.427 . S
C967 H958 0.930 . S
C967 C965 1.378 . S
C967 C968 1.367 . S
C968 C967 1.367 . S
C968 C970 1.433 . S
C969 C965 1.350 . S
C969 C966 1.463 . S
C969 N973 1.427 . S
C970 H960 0.929 . S
C970 C968 1.433 . S
C970 N973 1.384 . S
C971 H962 0.929 . S
C971 C963 1.378 . S
C971 C966 1.350 . S
C972 H959 0.929 . S
C972 C964 1.433 . S
C972 N974 1.384 . S
N973 C969 1.427 . S
N973 C970 1.384 . S
N974 C966 1.427 . S
N974 C972 1.384 . S
H975 C981 0.930 . S
H976 C985 0.930 . S
H977 C990 0.929 . S
H978 C988 0.929 . S
H979 C983 0.929 . S
H980 C989 0.929 . S
C981 H975 0.930 . S
C981 C982 1.367 . S
C981 C989 1.378 . S
C982 C981 1.367 . S
C982 C990 1.433 . S
C983 H979 0.929 . S
C983 C985 1.378 . S
C983 C987 1.350 . S
C984 C987 1.463 . S
C984 C989 1.350 . S
C984 N992 1.427 . S
C985 H976 0.930 . S
C985 C983 1.378 . S
C985 C986 1.367 . S
C986 C985 1.367 . S
C986 C988 1.433 . S
C987 C983 1.350 . S
C987 C984 1.463 . S
C987 N991 1.427 . S
C988 H978 0.929 . S
C988 C986 1.433 . S
C988 N991 1.384 . S
C989 H980 0.929 . S
C989 C981 1.378 . S
C989 C984 1.350 . S
C990 H977 0.929 . S
C990 C982 1.433 . S
C990 N992 1.384 . S
N991 C987 1.427 . S
N991 C988 1.384 . S
N992 C984 1.427 . S
N992 C990 1.384 . S
H993 C999 0.930 . S
H994 C1003 0.930 . S
H995 C1008 0.929 . S
H996 C1006 0.929 . S
H997 C1001 0.929 . S
H998 C1007 0.929 . S
C999 H993 0.930 . S
C999 C1000 1.367 . S
C999 C1007 1.378 . S
C1000 C999 1.367 . S
C1000 C1008 1.433 . S
C1001 H997 0.929 . S
C1001 C1003 1.378 . S
C1001 C1005 1.350 . S
C1002 C1005 1.463 . S
C1002 C1007 1.350 . S
C1002 N1010 1.427 . S
C1003 H994 0.930 . S
C1003 C1001 1.378 . S
C1003 C1004 1.367 . S
C1004 C1003 1.367 . S
C1004 C1006 1.433 . S
C1005 C1001 1.350 . S
C1005 C1002 1.463 . S
C1005 N1009 1.427 . S
C1006 H996 0.929 . S
C1006 C1004 1.433 . S
C1006 N1009 1.384 . S
C1007 H998 0.929 . S
C1007 C999 1.378 . S
C1007 C1002 1.350 . S
C1008 H995 0.929 . S
C1008 C1000 1.433 . S
C1008 N1010 1.384 . S
N1009 C1005 1.427 . S
N1009 C1006 1.384 . S
N1010 C1002 1.427 . S
N1010 C1008 1.384 . S
H1011 C1017 0.930 . S
H1012 C1021 0.930 . S
H1013 C1026 0.929 . S
H1014 C1024 0.929 . S
H1015 C1019 0.929 . S
H1016 C1025 0.929 . S
C1017 H1011 0.930 . S
C1017 C1018 1.367 . S
C1017 C1025 1.378 . S
C1018 C1017 1.367 . S
C1018 C1026 1.433 . S
C1019 H1015 0.929 . S
C1019 C1021 1.378 . S
C1019 C1023 1.350 . S
C1020 C1023 1.463 . S
C1020 C1025 1.350 . S
C1020 N1028 1.427 . S
C1021 H1012 0.930 . S
C1021 C1019 1.378 . S
C1021 C1022 1.367 . S
C1022 C1021 1.367 . S
C1022 C1024 1.433 . S
C1023 C1019 1.350 . S
C1023 C1020 1.463 . S
C1023 N1027 1.427 . S
C1024 H1014 0.929 . S
C1024 C1022 1.433 . S
C1024 N1027 1.384 . S
C1025 H1016 0.929 . S
C1025 C1017 1.378 . S
C1025 C1020 1.350 . S
C1026 H1013 0.929 . S
C1026 C1018 1.433 . S
C1026 N1028 1.384 . S
N1027 C1023 1.427 . S
N1027 C1024 1.384 . S
N1028 C1020 1.427 . S
N1028 C1026 1.384 . S
H1029 C1035 0.930 . S
H1030 C1039 0.930 . S
H1031 C1044 0.929 . S
H1032 C1042 0.929 . S
H1033 C1037 0.929 . S
H1034 C1043 0.929 . S
C1035 H1029 0.930 . S
C1035 C1036 1.367 . S
C1035 C1043 1.378 . S
C1036 C1035 1.367 . S
C1036 C1044 1.433 . S
C1037 H1033 0.929 . S
C1037 C1039 1.378 . S
C1037 C1041 1.350 . S
C1038 C1041 1.463 . S
C1038 C1043 1.350 . S
C1038 N1046 1.427 . S
C1039 H1030 0.930 . S
C1039 C1037 1.378 . S
C1039 C1040 1.367 . S
C1040 C1039 1.367 . S
C1040 C1042 1.433 . S
C1041 C1037 1.350 . S
C1041 C1038 1.463 . S
C1041 N1045 1.427 . S
C1042 H1032 0.929 . S
C1042 C1040 1.433 . S
C1042 N1045 1.384 . S
C1043 H1034 0.929 . S
C1043 C1035 1.378 . S
C1043 C1038 1.350 . S
C1044 H1031 0.929 . S
C1044 C1036 1.433 . S
C1044 N1046 1.384 . S
N1045 C1041 1.427 . S
N1045 C1042 1.384 . S
N1046 C1038 1.427 . S
N1046 C1044 1.384 . S
H1047 C1053 0.930 . S
H1048 C1057 0.930 . S
H1049 C1062 0.929 . S
H1050 C1060 0.929 . S
H1051 C1055 0.929 . S
H1052 C1061 0.929 . S
C1053 H1047 0.930 . S
C1053 C1054 1.367 . S
C1053 C1061 1.378 . S
C1054 C1053 1.367 . S
C1054 C1062 1.433 . S
C1055 H1051 0.929 . S
C1055 C1057 1.378 . S
C1055 C1059 1.350 . S
C1056 C1059 1.463 . S
C1056 C1061 1.350 . S
C1056 N1064 1.427 . S
C1057 H1048 0.930 . S
C1057 C1055 1.378 . S
C1057 C1058 1.367 . S
C1058 C1057 1.367 . S
C1058 C1060 1.433 . S
C1059 C1055 1.350 . S
C1059 C1056 1.463 . S
C1059 N1063 1.427 . S
C1060 H1050 0.929 . S
C1060 C1058 1.433 . S
C1060 N1063 1.384 . S
C1061 H1052 0.929 . S
C1061 C1053 1.378 . S
C1061 C1056 1.350 . S
C1062 H1049 0.929 . S
C1062 C1054 1.433 . S
C1062 N1064 1.384 . S
N1063 C1059 1.427 . S
N1063 C1060 1.384 . S
N1064 C1056 1.427 . S
N1064 C1062 1.384 . S
H1065 C1071 0.930 . S
H1066 C1075 0.930 . S
H1067 C1080 0.929 . S
H1068 C1078 0.929 . S
H1069 C1073 0.929 . S
H1070 C1079 0.929 . S
C1071 H1065 0.930 . S
C1071 C1072 1.367 . S
C1071 C1079 1.378 . S
C1072 C1071 1.367 . S
C1072 C1080 1.433 . S
C1073 H1069 0.929 . S
C1073 C1075 1.378 . S
C1073 C1077 1.350 . S
C1074 C1077 1.463 . S
C1074 C1079 1.350 . S
C1074 N1082 1.427 . S
C1075 H1066 0.930 . S
C1075 C1073 1.378 . S
C1075 C1076 1.367 . S
C1076 C1075 1.367 . S
C1076 C1078 1.433 . S
C1077 C1073 1.350 . S
C1077 C1074 1.463 . S
C1077 N1081 1.427 . S
C1078 H1068 0.929 . S
C1078 C1076 1.433 . S
C1078 N1081 1.384 . S
C1079 H1070 0.929 . S
C1079 C1071 1.378 . S
C1079 C1074 1.350 . S
C1080 H1067 0.929 . S
C1080 C1072 1.433 . S
C1080 N1082 1.384 . S
N1081 C1077 1.427 . S
N1081 C1078 1.384 . S
N1082 C1074 1.427 . S
N1082 C1080 1.384 . S
H1083 C1089 0.930 . S
H1084 C1093 0.930 . S
H1085 C1098 0.929 . S
H1086 C1096 0.929 . S
H1087 C1091 0.929 . S
H1088 C1097 0.929 . S
C1089 H1083 0.930 . S
C1089 C1090 1.367 . S
C1089 C1097 1.378 . S
C1090 C1089 1.367 . S
C1090 C1098 1.433 . S
C1091 H1087 0.929 . S
C1091 C1093 1.378 . S
C1091 C1095 1.350 . S
C1092 C1095 1.463 . S
C1092 C1097 1.350 . S
C1092 N1100 1.427 . S
C1093 H1084 0.930 . S
C1093 C1091 1.378 . S
C1093 C1094 1.367 . S
C1094 C1093 1.367 . S
C1094 C1096 1.433 . S
C1095 C1091 1.350 . S
C1095 C1092 1.463 . S
C1095 N1099 1.427 . S
C1096 H1086 0.929 . S
C1096 C1094 1.433 . S
C1096 N1099 1.384 . S
C1097 H1088 0.929 . S
C1097 C1089 1.378 . S
C1097 C1092 1.350 . S
C1098 H1085 0.929 . S
C1098 C1090 1.433 . S
C1098 N1100 1.384 . S
N1099 C1095 1.427 . S
N1099 C1096 1.384 . S
N1100 C1092 1.427 . S
N1100 C1098 1.384 . S
H1101 C1107 0.930 . S
H1102 C1111 0.930 . S
H1103 C1116 0.929 . S
H1104 C1114 0.929 . S
H1105 C1109 0.929 . S
H1106 C1115 0.929 . S
C1107 H1101 0.930 . S
C1107 C1108 1.367 . S
C1107 C1115 1.378 . S
C1108 C1107 1.367 . S
C1108 C1116 1.433 . S
C1109 H1105 0.929 . S
C1109 C1111 1.378 . S
C1109 C1113 1.350 . S
C1110 C1113 1.463 . S
C1110 C1115 1.350 . S
C1110 N1118 1.427 . S
C1111 H1102 0.930 . S
C1111 C1109 1.378 . S
C1111 C1112 1.367 . S
C1112 C1111 1.367 . S
C1112 C1114 1.433 . S
C1113 C1109 1.350 . S
C1113 C1110 1.463 . S
C1113 N1117 1.427 . S
C1114 H1104 0.929 . S
C1114 C1112 1.433 . S
C1114 N1117 1.384 . S
C1115 H1106 0.929 . S
C1115 C1107 1.378 . S
C1115 C1110 1.350 . S
C1116 H1103 0.929 . S
C1116 C1108 1.433 . S
C1116 N1118 1.384 . S
N1117 C1113 1.427 . S
N1117 C1114 1.384 . S
N1118 C1110 1.427 . S
N1118 C1116 1.384 . S
H1119 C1125 0.930 . S
H1120 C1129 0.930 . S
H1121 C1134 0.929 . S
H1122 C1132 0.929 . S
H1123 C1127 0.929 . S
H1124 C1133 0.929 . S
C1125 H1119 0.930 . S
C1125 C1126 1.367 . S
C1125 C1133 1.378 . S
C1126 C1125 1.367 . S
C1126 C1134 1.433 . S
C1127 H1123 0.929 . S
C1127 C1129 1.378 . S
C1127 C1131 1.350 . S
C1128 C1131 1.463 . S
C1128 C1133 1.350 . S
C1128 N1136 1.427 . S
C1129 H1120 0.930 . S
C1129 C1127 1.378 . S
C1129 C1130 1.367 . S
C1130 C1129 1.367 . S
C1130 C1132 1.433 . S
C1131 C1127 1.350 . S
C1131 C1128 1.463 . S
C1131 N1135 1.427 . S
C1132 H1122 0.929 . S
C1132 C1130 1.433 . S
C1132 N1135 1.384 . S
C1133 H1124 0.929 . S
C1133 C1125 1.378 . S
C1133 C1128 1.350 . S
C1134 H1121 0.929 . S
C1134 C1126 1.433 . S
C1134 N1136 1.384 . S
N1135 C1131 1.427 . S
N1135 C1132 1.384 . S
N1136 C1128 1.427 . S
N1136 C1134 1.384 . S
H1137 C1143 0.930 . S
H1138 C1147 0.930 . S
H1139 C1152 0.929 . S
H1140 C1150 0.929 . S
H1141 C1145 0.929 . S
H1142 C1151 0.929 . S
C1143 H1137 0.930 . S
C1143 C1144 1.367 . S
C1143 C1151 1.378 . S
C1144 C1143 1.367 . S
C1144 C1152 1.433 . S
C1145 H1141 0.929 . S
C1145 C1147 1.378 . S
C1145 C1149 1.350 . S
C1146 C1149 1.463 . S
C1146 C1151 1.350 . S
C1146 N1154 1.427 . S
C1147 H1138 0.930 . S
C1147 C1145 1.378 . S
C1147 C1148 1.367 . S
C1148 C1147 1.367 . S
C1148 C1150 1.433 . S
C1149 C1145 1.350 . S
C1149 C1146 1.463 . S
C1149 N1153 1.427 . S
C1150 H1140 0.929 . S
C1150 C1148 1.433 . S
C1150 N1153 1.384 . S
C1151 H1142 0.929 . S
C1151 C1143 1.378 . S
C1151 C1146 1.350 . S
C1152 H1139 0.929 . S
C1152 C1144 1.433 . S
C1152 N1154 1.384 . S
N1153 C1149 1.427 . S
N1153 C1150 1.384 . S
N1154 C1146 1.427 . S
N1154 C1152 1.384 . S
H1155 C1161 0.930 . S
H1156 C1165 0.930 . S
H1157 C1170 0.929 . S
H1158 C1168 0.929 . S
H1159 C1163 0.929 . S
H1160 C1169 0.929 . S
C1161 H1155 0.930 . S
C1161 C1162 1.367 . S
C1161 C1169 1.378 . S
C1162 C1161 1.367 . S
C1162 C1170 1.433 . S
C1163 H1159 0.929 . S
C1163 C1165 1.378 . S
C1163 C1167 1.350 . S
C1164 C1167 1.463 . S
C1164 C1169 1.350 . S
C1164 N1172 1.427 . S
C1165 H1156 0.930 . S
C1165 C1163 1.378 . S
C1165 C1166 1.367 . S
C1166 C1165 1.367 . S
C1166 C1168 1.433 . S
C1167 C1163 1.350 . S
C1167 C1164 1.463 . S
C1167 N1171 1.427 . S
C1168 H1158 0.929 . S
C1168 C1166 1.433 . S
C1168 N1171 1.384 . S
C1169 H1160 0.929 . S
C1169 C1161 1.378 . S
C1169 C1164 1.350 . S
C1170 H1157 0.929 . S
C1170 C1162 1.433 . S
C1170 N1172 1.384 . S
N1171 C1167 1.427 . S
N1171 C1168 1.384 . S
N1172 C1164 1.427 . S
N1172 C1170 1.384 . S
H1173 C1179 0.930 . S
H1174 C1183 0.930 . S
H1175 C1188 0.929 . S
H1176 C1186 0.929 . S
H1177 C1181 0.929 . S
H1178 C1187 0.929 . S
C1179 H1173 0.930 . S
C1179 C1180 1.367 . S
C1179 C1187 1.378 . S
C1180 C1179 1.367 . S
C1180 C1188 1.433 . S
C1181 H1177 0.929 . S
C1181 C1183 1.378 . S
C1181 C1185 1.350 . S
C1182 C1185 1.463 . S
C1182 C1187 1.350 . S
C1182 N1190 1.427 . S
C1183 H1174 0.930 . S
C1183 C1181 1.378 . S
C1183 C1184 1.367 . S
C1184 C1183 1.367 . S
C1184 C1186 1.433 . S
C1185 C1181 1.350 . S
C1185 C1182 1.463 . S
C1185 N1189 1.427 . S
C1186 H1176 0.929 . S
C1186 C1184 1.433 . S
C1186 N1189 1.384 . S
C1187 H1178 0.929 . S
C1187 C1179 1.378 . S
C1187 C1182 1.350 . S
C1188 H1175 0.929 . S
C1188 C1180 1.433 . S
C1188 N1190 1.384 . S
N1189 C1185 1.427 . S
N1189 C1186 1.384 . S
N1190 C1182 1.427 . S
N1190 C1188 1.384 . S
H1191 C1197 0.930 . S
H1192 C1201 0.930 . S
H1193 C1206 0.929 . S
H1194 C1204 0.929 . S
H1195 C1199 0.929 . S
H1196 C1205 0.929 . S
C1197 H1191 0.930 . S
C1197 C1198 1.367 . S
C1197 C1205 1.378 . S
C1198 C1197 1.367 . S
C1198 C1206 1.433 . S
C1199 H1195 0.929 . S
C1199 C1201 1.378 . S
C1199 C1203 1.350 . S
C1200 C1203 1.463 . S
C1200 C1205 1.350 . S
C1200 N1208 1.427 . S
C1201 H1192 0.930 . S
C1201 C1199 1.378 . S
C1201 C1202 1.367 . S
C1202 C1201 1.367 . S
C1202 C1204 1.433 . S
C1203 C1199 1.350 . S
C1203 C1200 1.463 . S
C1203 N1207 1.427 . S
C1204 H1194 0.929 . S
C1204 C1202 1.433 . S
C1204 N1207 1.384 . S
C1205 H1196 0.929 . S
C1205 C1197 1.378 . S
C1205 C1200 1.350 . S
C1206 H1193 0.929 . S
C1206 C1198 1.433 . S
C1206 N1208 1.384 . S
N1207 C1203 1.427 . S
N1207 C1204 1.384 . S
N1208 C1200 1.427 . S
N1208 C1206 1.384 . S
C784 C11 1.545 . S
C788 C695 1.939 . S
C802 C125 1.221 . S
C806 C742 1.665 . S
C824 C746 1.947 . S
C820 C239 1.381 . S
C842 C711 1.433 . S
C838 C343 1.215 . S
C856 C485 1.416 . S
C860 C726 1.836 . S
C878 C748 0.859 . S
C874 C571 0.841 . S
C896 C717 1.453 . S
C892 C257 1.039 . S
C910 C397 0.903 . S
C914 C757 1.506 . S
C932 C686 1.408 . S
C928 C467 1.094 . S
C946 C625 1.081 . S
C950 C715 1.535 . S
C964 C29 1.587 . S
C968 C773 2.003 . S
C986 C684 1.557 . S
C982 C143 1.155 . S
C1004 C702 1.847 . S
C1000 C371 1.615 . S
C1022 C716 1.442 . S
C1018 C457 1.142 . S
C1040 C770 1.804 . S
C1036 C599 1.615 . S
C1058 C685 1.561 . S
C1054 C55 1.312 . S
C1076 C733 1.805 . S
C1072 C169 1.598 . S
C1090 C283 0.805 . S
C1094 C756 0.920 . S
C1112 C725 1.344 . S
C1108 C581 0.865 . S
C1130 C764 1.222 . S
C1126 C1 0.988 . S
C1148 C694 1.139 . S
C1144 C115 0.903 . S
C1166 C739 1.238 . S
C1162 C229 0.947 . S
C1180 C353 1.213 . S
C1184 C747 1.983 . S
C1198 C511 1.251 . S
C1202 C708 1.534 . S
