# Generated by pormake.
# Topology zzz, (3,6)-cn, num edge types: 1
# Building blocks:
#     Node 0, Type 0, BuildingBlock: BELTOD_clean_linker_0, # of connection points: 3
#     Node 1, Type 0, BuildingBlock: BELTOD_clean_linker_0, # of connection points: 3
#     Node 2, Type 0, BuildingBlock: BELTOD_clean_linker_0, # of connection points: 3
#     Node 3, Type 0, BuildingBlock: BELTOD_clean_linker_0, # of connection points: 3
#     Node 4, Type 0, BuildingBlock: BELTOD_clean_linker_0, # of connection points: 3
#     Node 5, Type 0, BuildingBlock: BELTOD_clean_linker_0, # of connection points: 3
#     Node 6, Type 0, BuildingBlock: BELTOD_clean_linker_0, # of connection points: 3
#     Node 7, Type 0, BuildingBlock: BELTOD_clean_linker_0, # of connection points: 3
#     Node 8, Type 1, BuildingBlock: BETFEN_clean_sbu_0, # of connection points: 6
#     Node 9, Type 1, BuildingBlock: BETFEN_clean_sbu_0, # of connection points: 6
#     Node 10, Type 1, BuildingBlock: BETFEN_clean_sbu_0, # of connection points: 6
#     Node 11, Type 1, BuildingBlock: BETFEN_clean_sbu_0, # of connection points: 6
#     Edge 12, Type (0, 1), BuildingBlock: XUDNAN_clean_linker_2, # of connection points: 2
#     Edge 13, Type (0, 1), BuildingBlock: XUDNAN_clean_linker_2, # of connection points: 2
#     Edge 14, Type (0, 1), BuildingBlock: XUDNAN_clean_linker_2, # of connection points: 2
#     Edge 15, Type (0, 1), BuildingBlock: XUDNAN_clean_linker_2, # of connection points: 2
#     Edge 16, Type (0, 1), BuildingBlock: XUDNAN_clean_linker_2, # of connection points: 2
#     Edge 17, Type (0, 1), BuildingBlock: XUDNAN_clean_linker_2, # of connection points: 2
#     Edge 18, Type (0, 1), BuildingBlock: XUDNAN_clean_linker_2, # of connection points: 2
#     Edge 19, Type (0, 1), BuildingBlock: XUDNAN_clean_linker_2, # of connection points: 2
#     Edge 20, Type (0, 1), BuildingBlock: XUDNAN_clean_linker_2, # of connection points: 2
#     Edge 21, Type (0, 1), BuildingBlock: XUDNAN_clean_linker_2, # of connection points: 2
#     Edge 22, Type (0, 1), BuildingBlock: XUDNAN_clean_linker_2, # of connection points: 2
#     Edge 23, Type (0, 1), BuildingBlock: XUDNAN_clean_linker_2, # of connection points: 2
#     Edge 24, Type (0, 1), BuildingBlock: XUDNAN_clean_linker_2, # of connection points: 2
#     Edge 25, Type (0, 1), BuildingBlock: XUDNAN_clean_linker_2, # of connection points: 2
#     Edge 26, Type (0, 1), BuildingBlock: XUDNAN_clean_linker_2, # of connection points: 2
#     Edge 27, Type (0, 1), BuildingBlock: XUDNAN_clean_linker_2, # of connection points: 2
#     Edge 28, Type (0, 1), BuildingBlock: XUDNAN_clean_linker_2, # of connection points: 2
#     Edge 29, Type (0, 1), BuildingBlock: XUDNAN_clean_linker_2, # of connection points: 2
#     Edge 30, Type (0, 1), BuildingBlock: XUDNAN_clean_linker_2, # of connection points: 2
#     Edge 31, Type (0, 1), BuildingBlock: XUDNAN_clean_linker_2, # of connection points: 2
#     Edge 32, Type (0, 1), BuildingBlock: XUDNAN_clean_linker_2, # of connection points: 2
#     Edge 33, Type (0, 1), BuildingBlock: XUDNAN_clean_linker_2, # of connection points: 2
#     Edge 34, Type (0, 1), BuildingBlock: XUDNAN_clean_linker_2, # of connection points: 2
#     Edge 35, Type (0, 1), BuildingBlock: XUDNAN_clean_linker_2, # of connection points: 2
# Relax obj value: 0.440
# Max RMSD: 0.257
# Mean RMSD: 0.245
data_MOF--net-zzz--node1-BETFEN_clean_sbu_0--node2-BELTOD_clean_linker_0--edge1-XUDNAN_clean_linker_2
_symmetry_space_group_name_H-M    P1
_symmetry_Int_Tables_number       1
_symmetry_cell_setting            triclinic
loop_
_symmetry_equiv_pos_as_xyz
'x, y, z'
_cell_length_a     55.952279
_cell_length_b     56.022209
_cell_length_c     17.091852
_cell_angle_alpha  89.976592
_cell_angle_beta   90.021844
_cell_angle_gamma 90.00372
loop_
_atom_site_label
_atom_site_type_symbol
_atom_site_fract_x
_atom_site_fract_y
_atom_site_fract_z
_atom_type_partial_charge
P0 P 0.73478 0.46881 0.36414 0.0
H1 H 0.74297 0.48659 0.52267 0.0
H2 H 0.77888 0.50118 0.58627 0.0
H3 H 0.81369 0.50708 0.36144 0.0
H4 H 0.77742 0.49194 0.29796 0.0
H5 H 0.70841 0.4438 0.24297 0.0
H6 H 0.68106 0.45664 0.14033 0.0
H7 H 0.69128 0.53001 0.20965 0.0
H8 H 0.71954 0.51695 0.31185 0.0
H9 H 0.75677 0.43106 0.45568 0.0
H10 H 0.75378 0.45239 0.2133 0.0
O11 O 0.71588 0.46046 0.43452 0.0
H12 H 0.78971 0.40373 0.42511 0.0
H13 H 0.78555 0.42433 0.18232 0.0
C14 C 0.75724 0.48844 0.4052 0.0
C15 C 0.75793 0.49185 0.48643 0.0
C16 C 0.77871 0.50015 0.52302 0.0
C17 C 0.79945 0.50518 0.47934 0.0
C18 C 0.79824 0.50309 0.39724 0.0
C19 C 0.77732 0.49484 0.3606 0.0
C20 C 0.71683 0.47947 0.28318 0.0
C21 C 0.70542 0.46274 0.23478 0.0
C22 C 0.68967 0.47008 0.17614 0.0
C23 C 0.68422 0.49436 0.16611 0.0
C24 C 0.69527 0.51118 0.21564 0.0
C25 C 0.71152 0.50378 0.27365 0.0
C26 C 0.75229 0.44327 0.33645 0.0
C27 C 0.76225 0.42891 0.39531 0.0
C28 C 0.78103 0.41334 0.37799 0.0
C29 C 0.78975 0.41169 0.30126 0.0
C30 C 0.77864 0.42482 0.24152 0.0
C31 C 0.76036 0.44083 0.25922 0.0
P32 P 0.03544 0.72495 0.38925 0.0
H33 H 0.03231 0.74715 0.54311 0.0
H34 H 0.02243 0.78797 0.57847 0.0
H35 H 0.98916 0.79786 0.35264 0.0
H36 H 1.00064 0.75763 0.31586 0.0
H37 H 0.05744 0.68293 0.32392 0.0
H38 H 0.04619 0.6549 0.22104 0.0
H39 H 0.9783 0.69074 0.19622 0.0
H40 H 0.98947 0.71845 0.30114 0.0
H41 H 0.07983 0.74672 0.44442 0.0
H42 H 0.03868 0.74392 0.23149 0.0
O43 O 0.04781 0.71019 0.46383 0.0
H44 H 0.10092 0.78189 0.39608 0.0
H45 H 0.0584 0.77955 0.18467 0.0
C46 C 0.01681 0.74877 0.42716 0.0
C47 C 0.0219 0.75766 0.50229 0.0
C48 C 0.01634 0.78128 0.5225 0.0
C49 C 1.00546 0.79663 0.46794 0.0
C50 C 0.99813 0.78688 0.39572 0.0
C51 C 1.00405 0.7634 0.37518 0.0
C52 C 0.02443 0.70298 0.32013 0.0
C53 C 0.03992 0.68454 0.29743 0.0
C54 C 0.03344 0.66843 0.23862 0.0
C55 C 0.01136 0.67057 0.20009 0.0
C56 C 0.99555 0.68874 0.22422 0.0
C57 C 1.00196 0.70471 0.28413 0.0
C58 C 0.05788 0.74254 0.34118 0.0
C59 C 0.07605 0.75305 0.38583 0.0
C60 C 0.08778 0.77347 0.35863 0.0
C61 C 0.08107 0.78401 0.28711 0.0
C62 C 0.06439 0.77199 0.23955 0.0
C63 C 0.05301 0.75141 0.26629 0.0
P64 P 0.78431 0.04898 0.34591 0.0
H65 H 0.75914 0.04869 0.4941 0.0
H66 H 0.71911 0.03612 0.52842 0.0
H67 H 0.71373 0.99819 0.30864 0.0
H68 H 0.75351 0.01249 0.27273 0.0
H69 H 0.7986 0.99927 0.30306 0.0
H70 H 0.82836 0.98402 0.20871 0.0
H71 H 0.84709 0.05639 0.14755 0.0
H72 H 0.81818 0.07134 0.24206 0.0
H73 H 0.76005 0.09128 0.40609 0.0
H74 H 0.77228 0.05806 0.18194 0.0
O75 O 0.79963 0.05977 0.42182 0.0
H76 H 0.73074 0.11814 0.3455 0.0
H77 H 0.74413 0.08537 0.12133 0.0
C78 C 0.75971 0.03109 0.38151 0.0
C79 C 0.74974 0.03692 0.45436 0.0
C80 C 0.72657 0.02969 0.47397 0.0
C81 C 0.71267 0.01626 0.42125 0.0
C82 C 0.72345 0.009 0.35035 0.0
C83 C 0.74655 0.01667 0.33022 0.0
C84 C 0.80566 0.03645 0.27781 0.0
C85 C 0.80905 0.01177 0.26897 0.0
C86 C 0.82608 1.0031 0.21538 0.0
C87 C 0.8397 0.01905 0.16975 0.0
C88 C 0.83652 0.04367 0.18049 0.0
C89 C 0.81998 0.05222 0.23463 0.0
C90 C 0.76888 0.07309 0.29827 0.0
C91 C 0.75733 0.09052 0.34341 0.0
C92 C 0.74063 0.10583 0.30892 0.0
C93 C 0.73556 0.10405 0.22866 0.0
C94 C 0.74823 0.08756 0.18289 0.0
C95 C 0.76441 0.07192 0.21765 0.0
P96 P 0.47094 0.78699 0.34561 0.0
H97 H 0.46941 0.76061 0.49194 0.0
H98 H 0.48346 0.72106 0.52623 0.0
H99 H 0.52636 0.71967 0.31574 0.0
H100 H 0.51047 0.75861 0.27904 0.0
H101 H 0.44889 0.82484 0.25725 0.0
H102 H 0.46373 0.85491 0.16685 0.0
H103 H 0.53607 0.83134 0.21082 0.0
H104 H 0.5208 0.80076 0.3009 0.0
H105 H 0.42909 0.7588 0.38795 0.0
H106 H 0.46752 0.77734 0.17776 0.0
O107 O 0.45672 0.80028 0.41949 0.0
H108 H 0.40696 0.72823 0.31536 0.0
H109 H 0.44528 0.74738 0.10526 0.0
C110 C 0.48935 0.76308 0.38382 0.0
C111 C 0.48252 0.7522 0.45439 0.0
C112 C 0.4906 0.72931 0.474 0.0
C113 C 0.50592 0.71662 0.4236 0.0
C114 C 0.5141 0.72838 0.35548 0.0
C115 C 0.50554 0.75111 0.33513 0.0
C116 C 0.48366 0.81024 0.28483 0.0
C117 C 0.46799 0.82621 0.24788 0.0
C118 C 0.47656 0.84361 0.19646 0.0
C119 C 0.50116 0.84568 0.18101 0.0
C120 C 0.51698 0.83007 0.22021 0.0
C121 C 0.5083 0.81255 0.27191 0.0
C122 C 0.4496 0.7707 0.288 0.0
C123 C 0.43201 0.75704 0.32558 0.0
C124 C 0.41947 0.73954 0.28424 0.0
C125 C 0.42431 0.73555 0.20464 0.0
C126 C 0.44079 0.75038 0.16611 0.0
C127 C 0.45354 0.76759 0.20768 0.0
P128 P 0.29959 0.45445 0.04072 0.0
H129 H 0.27528 0.46069 0.89059 0.0
H130 H 0.23517 0.47451 0.86243 0.0
H131 H 0.23198 0.5075 0.09082 0.0
H132 H 0.27092 0.49136 0.12127 0.0
H133 H 0.34833 0.43678 0.04629 0.0
H134 H 0.38264 0.44539 0.12936 0.0
H135 H 0.34283 0.50141 0.24338 0.0
H136 H 0.30857 0.49304 0.15896 0.0
H137 H 0.26241 0.42082 1.00023 0.0
H138 H 0.29627 0.44611 0.2112 0.0
O139 O 0.30925 0.43908 0.96325 0.0
H140 H 0.22753 0.40898 0.07496 0.0
H141 H 0.26202 0.43299 0.28725 0.0
C142 C 0.27681 0.4753 0.00777 0.0
C143 C 0.26641 0.47168 0.93378 0.0
C144 C 0.24314 0.47961 0.91763 0.0
C145 C 0.22969 0.4917 0.97486 0.0
C146 C 0.24122 0.49756 0.04578 0.0
C147 C 0.2642 0.48902 0.0626 0.0
C148 C 0.32575 0.46448 0.09473 0.0
C149 C 0.34702 0.45134 0.08769 0.0
C150 C 0.3667 0.4562 0.13561 0.0
C151 C 0.36549 0.47407 0.19312 0.0
C152 C 0.34427 0.48741 0.19995 0.0
C153 C 0.32465 0.48275 0.15095 0.0
C154 C 0.28179 0.43474 0.09971 0.0
C155 C 0.26293 0.42258 0.06333 0.0
C156 C 0.24288 0.41578 0.10643 0.0
C157 C 0.24162 0.42074 0.18696 0.0
C158 C 0.2621 0.42967 0.22484 0.0
C159 C 0.28191 0.43696 0.18134 0.0
P160 P 0.06113 0.28929 0.10541 0.0
H161 H 0.04267 0.28149 0.94639 0.0
H162 H 0.02668 0.24602 0.8821 0.0
H163 H 0.02295 0.21002 0.10513 0.0
H164 H 0.03894 0.24572 0.16935 0.0
H165 H 0.08291 0.32615 0.19973 0.0
H166 H 0.06827 0.35274 0.30121 0.0
H167 H 0.99648 0.32649 0.26233 0.0
H168 H 0.01187 0.29874 0.1636 0.0
H169 H 0.10031 0.26069 0.04503 0.0
H170 H 0.0709 0.27865 0.27077 0.0
O171 O 0.07377 0.30503 0.03359 0.0
H172 H 0.12067 0.22639 0.10335 0.0
H173 H 0.09142 0.24502 0.32885 0.0
C174 C 0.04198 0.26647 0.06297 0.0
C175 C 0.03776 0.26628 0.98204 0.0
C176 C 0.0287 0.24583 0.94511 0.0
C177 C 0.02383 0.22492 0.98813 0.0
C178 C 0.02691 0.22559 0.06989 0.0
C179 C 0.03572 0.24619 0.10691 0.0
C180 C 0.04854 0.31028 0.17466 0.0
C181 C 0.06397 0.32618 0.21295 0.0
C182 C 0.05546 0.34162 0.27084 0.0
C183 C 0.03107 0.34197 0.2911 0.0
C184 C 0.01546 0.3265 0.25016 0.0
C185 C 0.02415 0.3107 0.19291 0.0
C186 C 0.0841 0.27226 0.15337 0.0
C187 C 0.09936 0.25813 0.10778 0.0
C188 C 0.11103 0.23857 0.14112 0.0
C189 C 0.10749 0.23298 0.22045 0.0
C190 C 0.09476 0.24903 0.2678 0.0
C191 C 0.08286 0.26835 0.23429 0.0
P192 P 0.22108 0.06258 0.07163 0.0
H193 H 0.24819 0.07414 0.93025 0.0
H194 H 0.28657 0.05952 0.88335 0.0
H195 H 0.2824 1.00065 0.04608 0.0
H196 H 0.24425 0.01583 0.09418 0.0
H197 H 0.17012 0.06502 0.03227 0.0
H198 H 0.13499 0.05441 0.10885 0.0
H199 H 0.17971 0.01511 0.26979 0.0
H200 H 0.21465 0.02504 0.19102 0.0
H201 H 0.27153 0.07382 0.10386 0.0
H202 H 0.20454 0.07754 0.22846 0.0
O203 O 0.21188 0.08601 0.01932 0.0
H204 H 0.29304 0.07533 0.2262 0.0
H205 H 0.22623 0.07893 0.35256 0.0
C206 C 0.24305 0.04602 0.01554 0.0
C207 C 0.25498 0.05752 0.95376 0.0
C208 C 0.27713 0.04916 0.92701 0.0
C209 C 0.28795 0.02912 0.9618 0.0
C210 C 0.27492 0.01645 0.01897 0.0
C211 C 0.25279 0.02488 0.0458 0.0
C212 C 0.19518 0.04615 0.10617 0.0
C213 C 0.17233 0.05331 0.08214 0.0
C214 C 0.1522 0.04747 0.12686 0.0
C215 C 0.15454 0.03459 0.19731 0.0
C216 C 0.17712 0.0251 0.21621 0.0
C217 C 0.19722 0.03068 0.17063 0.0
C218 C 0.23638 0.0737 0.15725 0.0
C219 C 0.26135 0.07546 0.15736 0.0
C220 C 0.27374 0.07671 0.22791 0.0
C221 C 0.26129 0.07648 0.29944 0.0
C222 C 0.23626 0.07848 0.29839 0.0
C223 C 0.22388 0.07749 0.22741 0.0
P224 P 0.44691 0.23436 0.07151 0.0
H225 H 0.46888 0.23951 0.91656 0.0
H226 H 0.48861 0.27333 0.85421 0.0
H227 H 0.49274 0.30924 0.07736 0.0
H228 H 0.47306 0.27518 0.13961 0.0
H229 H 0.42486 0.18889 0.10387 0.0
H230 H 0.43487 0.1554 0.18798 0.0
H231 H 0.49901 0.1918 0.26252 0.0
H232 H 0.48856 0.22584 0.17732 0.0
H233 H 0.41028 0.26684 0.01703 0.0
H234 H 0.44035 0.24533 0.23844 0.0
O235 O 0.4321 0.2228 0.99565 0.0
H236 H 0.39439 0.30293 0.07765 0.0
H237 H 0.42438 0.28136 0.29924 0.0
C238 C 0.46926 0.25471 0.03288 0.0
C239 C 0.47469 0.25427 0.95276 0.0
C240 C 0.48594 0.27378 0.91694 0.0
C241 C 0.49192 0.2943 0.96038 0.0
C242 C 0.48796 0.29398 0.04174 0.0
C243 C 0.47695 0.27431 0.07766 0.0
C244 C 0.45628 0.20962 0.13248 0.0
C245 C 0.44128 0.18964 0.13735 0.0
C246 C 0.44706 0.1704 0.18564 0.0
C247 C 0.46798 0.17062 0.23128 0.0
C248 C 0.4828 0.19099 0.228 0.0
C249 C 0.47698 0.21036 0.1789 0.0
C250 C 0.42648 0.25341 0.1232 0.0
C251 C 0.41229 0.26917 0.07959 0.0
C252 C 0.40321 0.28981 0.11421 0.0
C253 C 0.40827 0.29492 0.19289 0.0
C254 C 0.41995 0.27767 0.23872 0.0
C255 C 0.42918 0.25706 0.20386 0.0
Pr256 Pr 0.01767 1.00533 0.77805 0.0
Pr257 Pr 0.98814 0.02335 0.62551 0.0
C258 C 0.03401 0.99527 0.92242 0.0
C259 C 0.04604 0.97674 0.96876 0.0
C260 C 0.06411 0.96238 0.93681 0.0
C261 C 0.07477 0.9445 0.98213 0.0
C262 C 0.06742 0.94063 0.05991 0.0
C263 C 0.04949 0.95533 0.09161 0.0
C264 C 0.03896 0.97322 0.04646 0.0
C265 C 0.04408 0.01446 0.6432 0.0
C266 C 1.00283 0.96527 0.64475 0.0
C267 C 0.98177 0.04144 0.48271 0.0
C268 C 0.99491 0.06157 0.44765 0.0
C269 C 0.99892 0.08237 0.49177 0.0
C270 C 0.01592 0.099 0.46804 0.0
C271 C 0.02925 0.09524 0.39967 0.0
C272 C 0.02414 0.07529 0.35263 0.0
C273 C 1.00717 0.05848 0.37677 0.0
C274 C 0.95638 0.00874 0.74375 0.0
C275 C 1.00314 0.06381 0.75802 0.0
O276 O 0.01211 0.99066 0.89999 0.0
O277 O 0.04672 1.00654 0.86967 0.0
O278 O 0.02681 0.02678 0.66849 0.0
O279 O 0.04925 0.99701 0.69073 0.0
O280 O 0.99694 0.9833 0.59833 0.0
O281 O 0.00843 0.96826 0.71963 0.0
O282 O 0.99475 0.0223 0.49507 0.0
O283 O 0.96753 0.04667 0.54131 0.0
O284 O 0.97881 0.00839 0.74448 0.0
O285 O 0.94905 0.01681 0.67642 0.0
O286 O 0.01038 0.04642 0.80532 0.0
O287 O 0.99617 0.05969 0.68554 0.0
H288 H 0.06983 0.96482 0.87678 0.0
H289 H 0.08866 0.93364 0.95613 0.0
H290 H 0.04301 0.95257 0.15062 0.0
H291 H 0.02497 0.98411 0.07194 0.0
H292 H 0.98988 0.08526 0.54697 0.0
H293 H 0.01917 0.11447 0.50457 0.0
H294 H 0.03426 0.07194 0.29975 0.0
H295 H 1.00463 0.04242 0.34244 0.0
Pr296 Pr 0.51277 0.02215 0.77275 0.0
Pr297 Pr 0.49082 0.98965 0.64084 0.0
C298 C 0.53423 0.0384 0.90255 0.0
C299 C 0.55201 0.05626 0.92633 0.0
C300 C 0.54862 0.0689 0.99615 0.0
C301 C 0.56603 0.08483 0.02261 0.0
C302 C 0.5872 0.08829 0.97977 0.0
C303 C 0.59006 0.07628 0.90804 0.0
C304 C 0.57257 0.06046 0.88141 0.0
C305 C 0.4997 0.05133 0.64476 0.0
C306 C 0.54714 1.00474 0.62288 0.0
C307 C 0.46298 0.96891 0.53315 0.0
C308 C 0.43738 0.9729 0.51681 0.0
C309 C 0.41995 0.96738 0.57339 0.0
C310 C 0.39674 0.97618 0.56608 0.0
C311 C 0.3906 0.99084 0.5026 0.0
C312 C 0.40746 0.99465 0.44287 0.0
C313 C 0.43063 0.9857 0.44983 0.0
C314 C 0.51315 0.96527 0.76365 0.0
C315 C 0.45488 0.01115 0.77878 0.0
O316 O 0.54208 0.01992 0.86283 0.0
O317 O 0.51366 0.04664 0.87781 0.0
O318 O 0.49741 0.02914 0.6515 0.0
O319 O 0.50911 0.0598 0.70834 0.0
O320 O 0.52757 0.99872 0.58424 0.0
O321 O 0.54658 0.01077 0.69797 0.0
O322 O 0.47711 0.98687 0.51665 0.0
O323 O 0.46812 0.95873 0.60003 0.0
O324 O 0.49946 0.98307 0.77122 0.0
O325 O 0.51584 0.9597 0.69033 0.0
O326 O 0.47413 0.01587 0.82066 0.0
O327 O 0.45643 1.00436 0.70495 0.0
H328 H 0.53272 0.06605 0.03112 0.0
H329 H 0.56316 0.09403 0.07754 0.0
H330 H 0.60628 0.07824 0.87408 0.0
H331 H 0.57543 0.05104 0.82685 0.0
H332 H 0.42449 0.95743 0.62565 0.0
H333 H 0.38407 0.97259 0.61246 0.0
H334 H 0.403 1.0053 0.392 0.0
H335 H 0.44364 0.99001 0.40505 0.0
Pr336 Pr 0.50994 0.51154 0.75114 0.0
Pr337 Pr 0.54219 0.49192 0.59649 0.0
C338 C 0.49685 0.52965 0.88998 0.0
C339 C 0.47993 0.54723 0.92122 0.0
C340 C 0.45799 0.55173 0.88417 0.0
C341 C 0.44301 0.56987 0.91166 0.0
C342 C 0.44985 0.58391 0.97617 0.0
C343 C 0.47169 0.57891 0.01377 0.0
C344 C 0.48652 0.56071 0.98662 0.0
C345 C 0.48132 0.49962 0.62105 0.0
C346 C 0.52616 0.54975 0.60691 0.0
C347 C 0.54873 0.47047 0.45952 0.0
C348 C 0.5308 0.45447 0.42387 0.0
C349 C 0.52022 0.43654 0.4699 0.0
C350 C 0.49962 0.42496 0.44495 0.0
C351 C 0.48911 0.43079 0.37297 0.0
C352 C 0.50041 0.44767 0.32446 0.0
C353 C 0.52099 0.45962 0.35014 0.0
C354 C 0.57131 0.50317 0.72563 0.0
C355 C 0.52185 0.45371 0.73125 0.0
O356 O 0.51451 0.53837 0.84845 0.0
O357 O 0.48782 0.50987 0.86138 0.0
O358 O 0.50354 0.4979 0.6297 0.0
O359 O 0.47219 0.50791 0.68571 0.0
O360 O 0.53572 0.53206 0.56577 0.0
O361 O 0.51704 0.54696 0.67838 0.0
O362 O 0.54239 0.49297 0.46378 0.0
O363 O 0.55887 0.46263 0.52388 0.0
O364 O 0.54896 0.50488 0.71974 0.0
O365 O 0.58004 0.49589 0.65898 0.0
O366 O 0.51792 0.47126 0.7818 0.0
O367 O 0.52692 0.45763 0.65673 0.0
H368 H 0.45267 0.54155 0.83317 0.0
H369 H 0.42626 0.57312 0.88174 0.0
H370 H 0.47785 0.58966 0.0624 0.0
H371 H 0.5035 0.5576 0.01543 0.0
H372 H 0.52727 0.43196 0.52693 0.0
H373 H 0.49188 0.4114 0.48239 0.0
H374 H 0.49279 0.45233 0.26823 0.0
H375 H 0.52858 0.47361 0.31409 0.0
Pr376 Pr 1.00108 0.49173 0.83949 0.0
Pr377 Pr 0.0198 0.51194 0.67851 0.0
C378 C 0.99119 0.47757 0.98632 0.0
C379 C 0.97494 0.46044 0.02317 0.0
C380 C 0.97787 0.45433 0.10206 0.0
C381 C 0.96192 0.43854 0.13793 0.0
C382 C 0.94282 0.42865 0.09522 0.0
C383 C 0.94047 0.43437 0.01538 0.0
C384 C 0.95644 0.45008 0.97965 0.0
C385 C 1.00228 0.45864 0.71696 0.0
C386 C 0.96103 0.50945 0.71226 0.0
C387 C 0.03622 0.51376 0.53106 0.0
C388 C 0.05526 0.50077 0.49044 0.0
C389 C 0.07335 0.48962 0.53403 0.0
C390 C 0.09141 0.47699 0.49633 0.0
C391 C 0.09135 0.47483 0.41465 0.0
C392 C 0.07314 0.48574 0.37083 0.0
C393 C 0.05525 0.49886 0.40863 0.0
C394 C 0.01024 0.55062 0.77955 0.0
C395 C 0.05926 0.50267 0.81823 0.0
O396 O 0.98115 0.49619 0.95344 0.0
O397 O 0.00835 0.46825 0.94428 0.0
O398 O 0.01846 0.47394 0.73057 0.0
O399 O 0.98556 0.4596 0.76938 0.0
O400 O 0.97814 0.50842 0.65876 0.0
O401 O 0.96561 0.50732 0.78794 0.0
O402 O 0.01755 0.50103 0.55112 0.0
O403 O 0.04343 0.52831 0.58622 0.0
O404 O 1.00773 0.5288 0.79403 0.0
O405 O 0.01704 0.55334 0.7075 0.0
O406 O 0.0408 0.5018 0.86612 0.0
O407 O 0.05632 0.50342 0.74153 0.0
H408 H 0.99227 0.46203 0.13613 0.0
H409 H 0.96431 0.43434 0.1993 0.0
H410 H 0.92574 0.42748 0.98105 0.0
H411 H 0.95406 0.45454 0.91842 0.0
H412 H 0.07353 0.4907 0.59728 0.0
H413 H 0.10534 0.46868 0.53099 0.0
H414 H 0.07296 0.48435 0.30762 0.0
H415 H 0.04131 0.50726 0.37428 0.0
H416 H 0.14073 0.998 0.29853 0.0
H417 H 0.1235 0.0708 0.231 0.0
H418 H 0.09269 0.07236 0.33295 0.0
H419 H 0.07907 0.98015 0.34786 0.0
H420 H 0.08813 0.96226 0.43036 0.0
H421 H 0.10794 0.96587 0.34804 0.0
H422 H 0.14107 0.98153 0.44064 0.0
H423 H 0.12138 0.97804 0.52318 0.0
H424 H 0.1349 1.00663 0.50348 0.0
H425 H 0.06679 0.06783 0.44838 0.0
H426 H 0.04294 0.05636 0.56369 0.0
H427 H 0.07667 0.98659 0.56239 0.0
C428 C 0.13034 0.01418 0.30473 0.0
C429 C 0.1345 0.03416 0.2554 0.0
C430 C 0.12042 0.055 0.26605 0.0
C431 C 0.10295 0.05618 0.32455 0.0
C432 C 0.09958 0.03639 0.37249 0.0
C433 C 0.11264 0.01567 0.36306 0.0
C434 C 0.10554 0.99723 0.42427 0.0
C435 C 0.09452 0.97507 0.3853 0.0
C436 C 0.127 0.99047 0.47595 0.0
C437 C 0.08688 0.0111 0.47037 0.0
C438 C 0.08378 0.03358 0.43894 0.0
C439 C 0.06827 0.0501 0.47213 0.0
C440 C 0.05501 0.04343 0.53802 0.0
C441 C 0.0578 0.02055 0.57175 0.0
C442 C 0.07406 1.00418 0.53753 0.0
H443 H 0.4853 0.16972 0.38352 0.0
H444 H 0.46382 0.12343 0.19241 0.0
H445 H 0.46974 0.08824 0.27669 0.0
H446 H 0.53153 0.12971 0.4621 0.0
H447 H 0.52502 0.13721 0.56241 0.0
H448 H 0.51996 0.15884 0.48611 0.0
H449 H 0.47591 0.16307 0.53059 0.0
H450 H 0.48078 0.14132 0.60655 0.0
H451 H 0.45726 0.13688 0.53595 0.0
H452 H 0.47595 0.05794 0.3833 0.0
H453 H 0.48427 0.03469 0.50324 0.0
H454 H 0.5027 0.09999 0.62535 0.0
C455 C 0.48223 0.15216 0.35903 0.0
C456 C 0.47387 0.14946 0.28123 0.0
C457 C 0.46983 0.12609 0.25201 0.0
C458 C 0.47324 0.10592 0.29939 0.0
C459 C 0.4809 0.10923 0.37614 0.0
C460 C 0.48558 0.13172 0.40571 0.0
C461 C 0.49333 0.13021 0.49079 0.0
C462 C 0.51898 0.13954 0.50093 0.0
C463 C 0.47577 0.14367 0.5441 0.0
C464 C 0.49203 0.10343 0.50444 0.0
C465 C 0.4848 0.09168 0.43747 0.0
C466 C 0.48179 0.06695 0.43594 0.0
C467 C 0.48648 0.05387 0.50441 0.0
C468 C 0.49415 0.06547 0.57354 0.0
C469 C 0.49691 0.0906 0.5733 0.0
H470 H 0.36523 0.47932 0.35354 0.0
H471 H 0.41271 0.47788 0.15304 0.0
H472 H 0.44739 0.48373 0.24066 0.0
H473 H 0.39641 0.52416 0.46456 0.0
H474 H 0.39146 0.50982 0.55757 0.0
H475 H 0.37039 0.5057 0.47905 0.0
H476 H 0.37544 0.45983 0.49029 0.0
H477 H 0.39662 0.4638 0.56863 0.0
H478 H 0.40489 0.44695 0.48297 0.0
H479 H 0.47661 0.49195 0.34937 0.0
H480 H 0.49888 0.49781 0.47274 0.0
H481 H 0.43294 0.49288 0.60371 0.0
C482 C 0.3829 0.48051 0.32806 0.0
C483 C 0.38623 0.47833 0.24624 0.0
C484 C 0.40972 0.47946 0.21542 0.0
C485 C 0.42952 0.48285 0.26472 0.0
C486 C 0.42562 0.48493 0.34498 0.0
C487 C 0.40293 0.48361 0.3766 0.0
C488 C 0.40378 0.48572 0.46514 0.0
C489 C 0.38967 0.50766 0.49321 0.0
C490 C 0.39464 0.4627 0.50404 0.0
C491 C 0.43042 0.48888 0.47824 0.0
C492 C 0.44266 0.48837 0.40807 0.0
C493 C 0.46732 0.49161 0.40482 0.0
C494 C 0.47987 0.49488 0.47512 0.0
C495 C 0.46783 0.49526 0.54772 0.0
C496 C 0.4427 0.49239 0.54905 0.0
H497 H 0.04802 0.38652 0.33837 0.0
H498 H 0.99453 0.33293 0.39531 0.0
H499 H 0.98101 0.35759 0.50567 0.0
H500 H 0.06436 0.39958 0.53665 0.0
H501 H 0.0686 0.43103 0.51997 0.0
H502 H 0.07328 0.41012 0.44143 0.0
H503 H 0.04341 0.4336 0.35693 0.0
H504 H 0.03683 0.45405 0.43544 0.0
H505 H 0.01307 0.43753 0.39015 0.0
H506 H 0.97343 0.38759 0.61129 0.0
H507 H 0.97304 0.42024 0.70748 0.0
H508 H 0.03329 0.45347 0.5903 0.0
C509 C 0.03357 0.37973 0.37408 0.0
C510 C 0.02232 0.35759 0.35669 0.0
C511 C 1.00319 0.34993 0.40516 0.0
C512 C 0.99548 0.36376 0.46886 0.0
C513 C 1.00714 0.38521 0.48448 0.0
C514 C 0.02585 0.39313 0.43882 0.0
C515 C 0.03563 0.41664 0.46967 0.0
C516 C 0.06204 0.4142 0.49329 0.0
C517 C 0.03205 0.43662 0.40928 0.0
C518 C 0.01979 0.4205 0.54073 0.0
C519 C 1.00328 0.40225 0.54729 0.0
C520 C 0.98635 0.40191 0.60686 0.0
C521 C 0.98629 0.42061 0.66132 0.0
C522 C 1.00321 0.43942 0.65693 0.0
C523 C 0.02022 0.43931 0.59557 0.0
H524 H 0.84385 0.03275 0.01698 0.0
H525 H 0.87616 0.98693 0.19176 0.0
H526 H 0.9088 0.97708 0.09892 0.0
H527 H 0.85915 0.99537 0.84628 0.0
H528 H 0.86441 0.02099 0.78478 0.0
H529 H 0.84292 0.02269 0.86309 0.0
H530 H 0.86513 0.05945 0.91958 0.0
H531 H 0.88675 0.05776 0.84189 0.0
H532 H 0.89651 0.05714 0.94238 0.0
H533 H 0.94036 0.97613 0.99061 0.0
H534 H 0.96596 0.98149 0.8734 0.0
H535 H 0.91168 0.02642 0.76854 0.0
C536 C 0.85761 0.02034 0.03521 0.0
C537 C 0.85753 0.01057 0.11148 0.0
C538 C 0.8758 0.9944 0.13332 0.0
C539 C 0.89443 0.98882 0.08108 0.0
C540 C 0.89428 0.99924 0.00682 0.0
C541 C 0.87607 0.01435 0.98357 0.0
C542 C 0.88025 0.02374 0.90158 0.0
C543 C 0.86051 0.01518 0.84563 0.0
C544 C 0.88229 0.05114 0.90141 0.0
C545 C 0.90397 0.01209 0.88278 0.0
C546 C 0.91187 0.99805 0.94414 0.0
C547 C 0.93413 0.98679 0.94188 0.0
C548 C 0.94862 0.99003 0.8754 0.0
C549 C 0.94073 1.00423 0.81198 0.0
C550 C 0.918 0.01512 0.81565 0.0
H551 H 0.48459 0.8914 0.15159 0.0
H552 H 0.5369 0.83949 0.07258 0.0
H553 H 0.5486 0.86662 0.96557 0.0
H554 H 0.46453 0.90801 0.96515 0.0
H555 H 0.46031 0.93913 0.98814 0.0
H556 H 0.45807 0.91702 0.06417 0.0
H557 H 0.49048 0.93923 0.1443 0.0
H558 H 0.49282 0.96143 0.06831 0.0
H559 H 0.51906 0.94547 0.10014 0.0
H560 H 0.55151 0.89725 0.85835 0.0
H561 H 0.54578 0.92931 0.7607 0.0
H562 H 0.49176 0.96163 0.90843 0.0
C563 C 0.49868 0.88577 0.11232 0.0
C564 C 0.50987 0.8632 0.1212 0.0
C565 C 0.52831 0.85676 0.06839 0.0
C566 C 0.53501 0.87204 0.00696 0.0
C567 C 0.52326 0.89386 0.99905 0.0
C568 C 0.50558 0.90081 0.05061 0.0
C569 C 0.49476 0.92457 0.02638 0.0
C570 C 0.46783 0.92202 0.00997 0.0
C571 C 0.49957 0.94381 0.08849 0.0
C572 C 0.50862 0.92956 0.95185 0.0
C573 C 0.52511 0.9117 0.93753 0.0
C574 C 0.53892 0.91151 0.86964 0.0
C575 C 0.53554 0.92978 0.81446 0.0
C576 C 0.51854 0.94807 0.8273 0.0
C577 C 0.50524 0.94815 0.89772 0.0
H578 H 0.68159 0.48043 0.01241 0.0
H579 H 0.64566 0.52401 0.18576 0.0
H580 H 0.61329 0.53246 0.09072 0.0
H581 H 0.66612 0.5177 0.84298 0.0
H582 H 0.66249 0.49233 0.77926 0.0
H583 H 0.68322 0.49091 0.8598 0.0
H584 H 0.66189 0.45299 0.91146 0.0
H585 H 0.64101 0.45437 0.83144 0.0
H586 H 0.63023 0.45395 0.93079 0.0
H587 H 0.58281 0.53284 0.97934 0.0
H588 H 0.55898 0.52802 0.8581 0.0
H589 H 0.6159 0.48589 0.7563 0.0
C590 C 0.66703 0.49197 0.03005 0.0
C591 C 0.66614 0.50159 0.10652 0.0
C592 C 0.64684 0.51667 0.12727 0.0
C593 C 0.62831 0.52144 0.07379 0.0
C594 C 0.62951 0.5113 0.9993 0.0
C595 C 0.6486 0.49718 0.97711 0.0
C596 C 0.64559 0.4882 0.89402 0.0
C597 C 0.66554 0.49787 0.84088 0.0
C598 C 0.64462 0.46075 0.89185 0.0
C599 C 0.62161 0.49906 0.87327 0.0
C600 C 0.61252 0.51224 0.9348 0.0
C601 C 0.58996 0.52284 0.93052 0.0
C602 C 0.57647 0.51994 0.86163 0.0
C603 C 0.58563 0.50678 0.79772 0.0
C604 C 0.60856 0.49638 0.80379 0.0
H605 H 0.01794 0.62181 0.18512 0.0
H606 H 0.99304 0.68422 0.05872 0.0
H607 H 0.98766 0.65967 0.94008 0.0
H608 H 0.05121 0.59627 0.03142 0.0
H609 H 0.04343 0.56576 0.05327 0.0
H610 H 0.04372 0.58772 0.13013 0.0
H611 H 0.99984 0.57742 0.16431 0.0
H612 H 0.99943 0.55535 0.08763 0.0
H613 H 0.97732 0.57874 0.08896 0.0
H614 H 0.98951 0.62962 0.83138 0.0
H615 H 0.99502 0.5952 0.74274 0.0
H616 H 0.01609 0.55119 0.93966 0.0
C617 C 0.01107 0.63024 0.13269 0.0
C618 C 1.00582 0.655 0.13144 0.0
C619 C 0.99686 0.66529 0.06162 0.0
C620 C 0.99387 0.65149 0.99373 0.0
C621 C 0.99958 0.62728 0.99658 0.0
C622 C 1.00764 0.61661 0.06454 0.0
C623 C 0.01293 0.5903 0.05117 0.0
C624 C 0.03939 0.58469 0.06746 0.0
C625 C 0.99639 0.57452 0.10098 0.0
C626 C 1.00714 0.58799 0.96466 0.0
C627 C 0.99958 0.60961 0.93436 0.0
C628 C 0.99495 0.61251 0.85476 0.0
C629 C 0.99818 0.59289 0.80482 0.0
C630 C 1.00558 0.57051 0.83456 0.0
C631 C 0.00985 0.56798 0.91574 0.0
H632 H 0.09027 0.19428 0.14791 0.0
H633 H 0.12706 0.21655 0.35832 0.0
H634 H 0.11729 0.17783 0.42021 0.0
H635 H 0.04392 0.17661 0.24476 0.0
H636 H 0.03458 0.15207 0.18471 0.0
H637 H 0.05165 0.17605 0.14272 0.0
H638 H 0.0852 0.14783 0.0947 0.0
H639 H 0.06799 0.1228 0.13004 0.0
H640 H 0.0984 0.12686 0.16194 0.0
H641 H 0.09483 0.1423 0.46914 0.0
H642 H 0.06356 0.11255 0.49891 0.0
H643 H 0.03973 0.11487 0.25775 0.0
C644 C 0.09777 0.19034 0.20492 0.0
C645 C 0.10996 0.20807 0.24767 0.0
C646 C 0.11814 0.20292 0.32415 0.0
C647 C 0.11261 0.18099 0.35965 0.0
C648 C 0.09885 0.16457 0.3178 0.0
C649 C 0.0918 0.16893 0.24156 0.0
C650 C 0.07276 0.15156 0.21523 0.0
C651 C 0.04936 0.16482 0.19554 0.0
C652 C 0.0816 0.13635 0.14635 0.0
C653 C 0.06991 0.13682 0.2883 0.0
C654 C 0.08518 0.14444 0.34688 0.0
C655 C 0.0833 0.13577 0.42303 0.0
C656 C 0.06528 0.11914 0.43959 0.0
C657 C 0.04931 0.11143 0.38034 0.0
C658 C 0.05208 0.12001 0.30356 0.0
H659 H 0.30521 0.09102 0.35151 0.0
H660 H 0.24688 0.04273 0.40389 0.0
H661 H 0.27331 0.0193 0.48892 0.0
H662 H 0.34444 0.05092 0.31536 0.0
H663 H 0.37068 0.0644 0.35775 0.0
H664 H 0.34631 0.08288 0.3268 0.0
H665 H 0.34264 0.10126 0.46532 0.0
H666 H 0.3677 0.08337 0.4965 0.0
H667 H 0.33985 0.08194 0.54923 0.0
H668 H 0.30753 0.99452 0.5309 0.0
H669 H 0.34614 0.9733 0.54005 0.0
H670 H 0.38282 0.03718 0.46176 0.0
C671 C 0.29777 0.07626 0.38436 0.0
C672 C 0.27405 0.06873 0.3711 0.0
C673 C 0.26488 0.04914 0.41408 0.0
C674 C 0.27985 0.03558 0.46235 0.0
C675 C 0.30381 0.04209 0.46815 0.0
C676 C 0.3126 0.06245 0.43222 0.0
C677 C 0.33962 0.06335 0.43626 0.0
C678 C 0.35089 0.06549 0.35419 0.0
C679 C 0.34794 0.08369 0.49006 0.0
C680 C 0.34467 0.03929 0.47274 0.0
C681 C 0.32384 0.02756 0.49287 0.0
C682 C 0.32399 1.00385 0.51801 0.0
C683 C 0.34596 0.99187 0.52245 0.0
C684 C 0.36742 1.00358 0.50119 0.0
C685 C 0.36667 0.02773 0.47786 0.0
H686 H 0.43013 0.33155 0.12278 0.0
H687 H 0.38868 0.31349 0.32801 0.0
H688 H 0.3978 0.35323 0.38473 0.0
H689 H 0.47468 0.35055 0.22639 0.0
H690 H 0.48565 0.37411 0.16508 0.0
H691 H 0.46946 0.34965 0.12247 0.0
H692 H 0.43664 0.37655 0.06242 0.0
H693 H 0.45365 0.40208 0.0951 0.0
H694 H 0.42265 0.39911 0.12169 0.0
H695 H 0.41787 0.39119 0.42855 0.0
H696 H 0.4493 0.42059 0.46076 0.0
H697 H 0.48007 0.4114 0.23017 0.0
C698 C 0.42172 0.33657 0.17747 0.0
C699 C 0.40798 0.31995 0.2199 0.0
C700 C 0.39869 0.32635 0.29387 0.0
C701 C 0.40375 0.34888 0.32621 0.0
C702 C 0.41835 0.36454 0.28408 0.0
C703 C 0.42721 0.35852 0.21118 0.0
C704 C 0.44685 0.37529 0.18563 0.0
C705 C 0.47052 0.36161 0.17408 0.0
C706 C 0.43954 0.38909 0.11177 0.0
C707 C 0.44811 0.39155 0.2557 0.0
C708 C 0.43119 0.38549 0.31132 0.0
C709 C 0.43089 0.39627 0.38479 0.0
C710 C 0.4489 0.41282 0.40274 0.0
C711 C 0.46719 0.41806 0.34794 0.0
C712 C 0.46606 0.40809 0.27252 0.0
H713 H 0.22568 0.45417 0.29038 0.0
H714 H 0.20354 0.38959 0.17003 0.0
H715 H 0.16221 0.39583 0.21724 0.0
H716 H 0.18682 0.44699 0.4627 0.0
H717 H 0.18165 0.47869 0.4688 0.0
H718 H 0.20955 0.46762 0.43077 0.0
H719 H 0.20288 0.49224 0.30408 0.0
H720 H 0.17473 0.50298 0.34072 0.0
H721 H 0.17599 0.48778 0.24787 0.0
H722 H 0.12233 0.41214 0.26579 0.0
H723 H 0.08848 0.43458 0.32449 0.0
H724 H 0.13816 0.48658 0.41779 0.0
C725 C 0.2125 0.4407 0.27627 0.0
C726 C 0.21801 0.42125 0.22682 0.0
C727 C 0.19977 0.40469 0.20755 0.0
C728 C 0.17625 0.40807 0.23416 0.0
C729 C 0.17138 0.42793 0.28061 0.0
C730 C 0.18915 0.44368 0.30265 0.0
C731 C 0.17933 0.46421 0.35001 0.0
C732 C 0.18996 0.46437 0.433 0.0
C733 C 0.18348 0.48821 0.30814 0.0
C734 C 0.15317 0.45769 0.35096 0.0
C735 C 0.14879 0.43685 0.31006 0.0
C736 C 0.12562 0.42823 0.2991 0.0
C737 C 0.10656 0.44108 0.33205 0.0
C738 C 0.11097 0.46201 0.37594 0.0
C739 C 0.1345 0.47039 0.38521 0.0
H740 H 0.08904 0.80357 0.14133 0.0
H741 H 0.08763 0.82145 0.38857 0.0
H742 H 0.09141 0.86392 0.35563 0.0
H743 H 0.12756 0.85445 0.07236 0.0
H744 H 0.10962 0.85824 0.98561 0.0
H745 H 0.11317 0.829 0.02824 0.0
H746 H 0.06711 0.82467 0.03696 0.0
H747 H 0.06344 0.85382 0.99491 0.0
H748 H 0.05006 0.84704 0.08825 0.0
H749 H 0.08855 0.90459 0.29685 0.0
H750 H 0.07831 0.93981 0.21691 0.0
H751 H 0.07769 0.89544 0.00872 0.0
C752 C 0.09013 0.81632 0.18876 0.0
C753 C 0.0883 0.80892 0.26763 0.0
C754 C 0.08971 0.82636 0.3277 0.0
C755 C 0.09171 0.85067 0.30956 0.0
C756 C 0.09229 0.85737 0.23113 0.0
C757 C 0.09164 0.84068 0.17164 0.0
C758 C 0.0889 0.85253 0.09252 0.0
C759 C 0.11114 0.8483 0.04169 0.0
C760 C 0.06602 0.84402 0.05078 0.0
C761 C 0.08703 0.8784 0.11711 0.0
C762 C 0.08962 0.8809 0.19709 0.0
C763 C 0.08682 0.90289 0.23402 0.0
C764 C 0.08077 0.92276 0.18819 0.0
C765 C 0.07715 0.92042 0.10642 0.0
C766 C 0.08087 0.89799 0.07063 0.0
H767 H 0.69056 0.09985 0.28238 0.0
H768 H 0.7323 0.13102 0.09545 0.0
H769 H 0.69525 0.13918 0.02126 0.0
H770 H 0.65693 0.06714 0.16927 0.0
H771 H 0.6293 0.06919 0.22306 0.0
H772 H 0.65717 0.07336 0.27279 0.0
H773 H 0.64339 0.11489 0.32175 0.0
H774 H 0.61512 0.11072 0.27287 0.0
H775 H 0.63293 0.13681 0.2525 0.0
H776 H 0.65592 0.13501 0.95558 0.0
H777 H 0.61812 0.11868 0.90372 0.0
H778 H 0.60252 0.08807 0.13115 0.0
C779 C 0.69168 0.10973 0.22801 0.0
C780 C 0.71406 0.11538 0.19519 0.0
C781 C 0.71517 0.12706 0.12195 0.0
C782 C 0.69422 0.13176 0.07963 0.0
C783 C 0.67239 0.12462 0.11148 0.0
C784 C 0.67098 0.11405 0.18461 0.0
C785 C 0.64636 0.10379 0.1994 0.0
C786 C 0.64754 0.07679 0.21706 0.0
C787 C 0.6337 0.11737 0.26555 0.0
C788 C 0.63467 0.10873 0.12129 0.0
C789 C 0.64966 0.12142 0.07222 0.0
C790 C 0.6438 0.12559 0.99409 0.0
C791 C 0.6224 0.11605 0.96492 0.0
C792 C 0.60731 0.10217 0.01348 0.0
C793 C 0.61328 0.09919 0.09316 0.0
H794 H 0.42645 0.6904 0.26093 0.0
H795 H 0.40533 0.73134 0.05731 0.0
H796 H 0.40132 0.69402 0.98136 0.0
H797 H 0.46391 0.65476 0.16948 0.0
H798 H 0.45809 0.62772 0.22337 0.0
H799 H 0.45248 0.65613 0.26801 0.0
H800 H 0.40848 0.64424 0.29444 0.0
H801 H 0.41401 0.61545 0.25092 0.0
H802 H 0.39002 0.6339 0.21491 0.0
H803 H 0.40871 0.65439 0.92122 0.0
H804 H 0.42634 0.61594 0.88214 0.0
H805 H 0.44189 0.6001 0.12547 0.0
C806 C 0.41968 0.69137 0.20164 0.0
C807 C 0.41581 0.71364 0.16517 0.0
C808 C 0.40812 0.71438 0.08635 0.0
C809 C 0.40572 0.69327 0.04297 0.0
C810 C 0.41093 0.67162 0.07952 0.0
C811 C 0.41743 0.67049 0.15756 0.0
C812 C 0.42582 0.64571 0.1798 0.0
C813 C 0.45159 0.64613 0.21197 0.0
C814 C 0.40854 0.63414 0.23848 0.0
C815 C 0.42454 0.63349 0.10102 0.0
C816 C 0.41536 0.64852 0.04431 0.0
C817 C 0.41521 0.64218 0.96546 0.0
C818 C 0.42524 0.62022 0.9438 0.0
C819 C 0.43545 0.6049 1.00074 0.0
C820 C 0.43424 0.61138 0.08052 0.0
H821 H 0.83143 0.42494 0.36547 0.0
H822 H 0.80073 0.37675 0.19536 0.0
H823 H 0.84112 0.36784 0.1443 0.0
H824 H 0.86631 0.4526 0.24044 0.0
H825 H 0.89109 0.45807 0.3055 0.0
H826 H 0.86169 0.45393 0.34462 0.0
H827 H 0.87776 0.41887 0.43164 0.0
H828 H 0.90716 0.42378 0.39139 0.0
H829 H 0.89363 0.39462 0.38599 0.0
H830 H 0.88217 0.37163 0.09237 0.0
H831 H 0.91938 0.38896 0.03995 0.0
H832 H 0.92274 0.43723 0.23795 0.0
C833 C 0.8335 0.41141 0.3207 0.0
C834 C 0.81328 0.40093 0.28562 0.0
C835 C 0.81621 0.3844 0.22402 0.0
C836 C 0.83907 0.37926 0.19491 0.0
C837 C 0.85868 0.39098 0.22779 0.0
C838 C 0.85611 0.40666 0.28983 0.0
C839 C 0.87877 0.4208 0.30383 0.0
C840 C 0.87418 0.44792 0.29819 0.0
C841 C 0.89 0.41412 0.3829 0.0
C842 C 0.8939 0.41193 0.23656 0.0
C843 C 0.88238 0.3941 0.19517 0.0
C844 C 0.8916 0.38518 0.1253 0.0
C845 C 0.91263 0.3953 0.09556 0.0
C846 C 0.92395 0.41447 0.13484 0.0
C847 C 0.91489 0.42218 0.20766 0.0
H848 H 0.03952 0.17875 0.0145 0.0
H849 H 0.9919 0.22006 0.86703 0.0
H850 H 0.98125 0.18347 0.7944 0.0
H851 H 0.06084 0.13911 0.86562 0.0
H852 H 0.06206 0.11354 0.92958 0.0
H853 H 0.06545 0.14315 0.969 0.0
H854 H 0.03025 0.13445 0.06441 0.0
H855 H 0.0269 0.10509 0.02343 0.0
H856 H 1.00178 0.12527 0.02581 0.0
H857 H 0.97675 0.14266 0.73479 0.0
H858 H 0.97775 0.10054 0.69433 0.0
H859 H 0.02721 0.08465 0.88314 0.0
C860 C 0.02643 0.18003 0.96826 0.0
C861 C 0.01643 0.20241 0.9472 0.0
C862 C 0.99996 0.20329 0.8842 0.0
C863 C 0.99371 0.18253 0.84274 0.0
C864 C 1.004 0.16087 0.86482 0.0
C865 C 0.01992 0.15941 0.92636 0.0
C866 C 0.0287 0.1339 0.93701 0.0
C867 C 0.05588 0.13233 0.92457 0.0
C868 C 0.02145 0.12408 0.01745 0.0
C869 C 0.01527 0.12125 0.87197 0.0
C870 C 1.00119 0.13721 0.83091 0.0
C871 C 0.98759 0.13002 0.76693 0.0
C872 C 0.98836 0.10596 0.74429 0.0
C873 C 1.00249 0.08908 0.78561 0.0
C874 C 0.01603 0.09695 0.85074 0.0
H875 H 0.31275 0.0308 0.82047 0.0
H876 H 0.32187 0.0153 0.06777 0.0
H877 H 0.36474 0.00841 0.0462 0.0
H878 H 0.35609 0.98739 0.7469 0.0
H879 H 0.36652 0.00723 0.67117 0.0
H880 H 0.33624 0.00945 0.70563 0.0
H881 H 0.34379 0.05426 0.73413 0.0
H882 H 0.37419 0.05138 0.70092 0.0
H883 H 0.36811 0.06272 0.79759 0.0
H884 H 0.40693 1.00562 1.00117 0.0
H885 H 0.44573 1.00437 0.9332 0.0
H886 H 0.41037 0.02035 0.71318 0.0
C887 C 0.32372 0.02582 0.87004 0.0
C888 C 0.31363 0.0233 0.94583 0.0
C889 C 0.32881 0.01677 0.00884 0.0
C890 C 0.35334 0.01304 0.99736 0.0
C891 C 0.36266 0.01585 0.92241 0.0
C892 C 0.34838 0.02193 0.85958 0.0
C893 C 0.3632 0.02406 0.78527 0.0
C894 C 0.35499 1.00589 0.72368 0.0
C895 C 0.36226 0.04963 0.7526 0.0
C896 C 0.38799 0.01806 0.81624 0.0
C897 C 0.38719 0.0137 0.8958 0.0
C898 C 0.40777 0.0088 0.93877 0.0
C899 C 0.42977 0.00823 0.89961 0.0
C900 C 0.43116 0.0122 0.81787 0.0
C901 C 0.40988 0.01704 0.77559 0.0
H902 H 0.47931 0.34126 0.98732 0.0
H903 H 0.52451 0.29717 0.84031 0.0
H904 H 0.53729 0.33304 0.76742 0.0
H905 H 0.46048 0.38205 0.83597 0.0
H906 H 0.46028 0.40728 0.90141 0.0
H907 H 0.45525 0.37763 0.93871 0.0
H908 H 0.49073 0.38462 0.03625 0.0
H909 H 0.49548 0.41387 0.99572 0.0
H910 H 0.51966 0.39256 0.99852 0.0
H911 H 0.54373 0.37357 0.70639 0.0
H912 H 0.54488 0.41579 0.66579 0.0
H913 H 0.49692 0.43423 0.85588 0.0
C914 C 0.49229 0.33918 0.94097 0.0
C915 C 0.50097 0.31626 0.92004 0.0
C916 C 0.51743 0.31439 0.85728 0.0
C917 C 0.52487 0.33472 0.81564 0.0
C918 C 0.51578 0.35693 0.83733 0.0
C919 C 0.49996 0.35932 0.8988 0.0
C920 C 0.49254 0.38523 0.90907 0.0
C921 C 0.46554 0.38824 0.89553 0.0
C922 C 0.50008 0.39466 0.98969 0.0
C923 C 0.50678 0.39707 0.84441 0.0
C924 C 0.51989 0.38036 0.80321 0.0
C925 C 0.53369 0.3868 0.73877 0.0
C926 C 0.53415 0.41087 0.716 0.0
C927 C 0.52111 0.42843 0.75789 0.0
C928 C 0.50734 0.42134 0.82329 0.0
H929 H 0.20344 0.49977 0.83753 0.0
H930 H 0.19508 0.49102 0.0891 0.0
H931 H 0.15181 0.49519 0.07499 0.0
H932 H 0.15441 0.54161 0.80688 0.0
H933 H 0.14491 0.52812 0.71632 0.0
H934 H 0.17583 0.52659 0.74542 0.0
H935 H 0.17462 0.48053 0.73397 0.0
H936 H 0.1437 0.48193 0.70495 0.0
H937 H 0.15239 0.46401 0.78782 0.0
H938 H 0.10948 0.49881 0.03588 0.0
H939 H 0.07011 0.50044 0.97346 0.0
H940 H 0.10389 0.50427 0.74474 0.0
C941 C 0.19262 0.4988 0.88988 0.0
C942 C 0.20324 0.49562 0.96487 0.0
C943 C 0.18799 0.4944 0.03125 0.0
C944 C 0.16314 0.49646 0.02385 0.0
C945 C 0.15343 0.49944 0.94955 0.0
C946 C 0.16757 0.50048 0.88352 0.0
C947 C 0.15216 0.50255 0.81025 0.0
C948 C 0.15713 0.52612 0.76718 0.0
C949 C 0.15595 0.48097 0.75606 0.0
C950 C 0.12721 0.50239 0.84576 0.0
C951 C 0.12855 0.50075 0.92631 0.0
C952 C 0.10819 0.50012 0.97285 0.0
C953 C 0.0858 0.50105 0.93645 0.0
C954 C 0.08366 0.50247 0.85379 0.0
C955 C 0.1048 0.50323 0.80793 0.0
H956 H 0.99791 0.82157 0.6076 0.0
H957 H 0.0125 0.83209 0.36011 0.0
H958 H 0.01307 0.87539 0.38023 0.0
H959 H 0.96035 0.87363 0.6349 0.0
H960 H 0.97223 0.88081 0.73006 0.0
H961 H 0.97194 0.85029 0.69687 0.0
H962 H 0.01754 0.8474 0.72056 0.0
H963 H 0.018 0.87794 0.7536 0.0
H964 H 0.03718 0.8687 0.67452 0.0
H965 H 0.01227 0.91728 0.42454 0.0
H966 H 0.01061 0.956 0.49134 0.0
H967 H 0.99866 0.9201 0.71328 0.0
C968 C 1.00118 0.83294 0.55754 0.0
C969 C 1.0046 0.82309 0.48169 0.0
C970 C 0.00893 0.83887 0.41823 0.0
C971 C 0.00959 0.86363 0.42918 0.0
C972 C 1.00614 0.87264 0.50418 0.0
C973 C 1.00209 0.8579 0.56751 0.0
C974 C 0.99946 0.87254 0.64217 0.0
C975 C 0.97451 0.86911 0.67811 0.0
C976 C 0.01922 0.86627 0.7012 0.0
C977 C 1.00259 0.89776 0.61052 0.0
C978 C 1.00635 0.89721 0.53061 0.0
C979 C 0.00934 0.91796 0.48708 0.0
C980 C 0.00827 0.93993 0.52579 0.0
C981 C 1.00439 0.94124 0.60771 0.0
C982 C 1.00176 0.91974 0.65077 0.0
H983 H 0.68956 0.0101 0.5645 0.0
H984 H 0.67586 0.01368 0.31425 0.0
H985 H 0.6329 0.00922 0.3392 0.0
H986 H 0.64239 0.96848 0.61554 0.0
H987 H 0.63486 0.98368 0.70513 0.0
H988 H 0.66496 0.98499 0.66792 0.0
H989 H 0.66321 0.03118 0.66962 0.0
H990 H 0.63309 0.03002 0.70663 0.0
H991 H 0.6395 0.04628 0.61806 0.0
H992 H 0.59111 1.00549 0.39039 0.0
H993 H 0.5534 1.00421 0.46445 0.0
H994 H 0.59327 1.00622 0.68245 0.0
C995 C 0.67766 0.00995 0.51461 0.0
C996 C 0.68658 0.0119 0.437 0.0
C997 C 0.66998 0.01146 0.3741 0.0
C998 C 0.64534 0.00918 0.38768 0.0
C999 C 0.63729 0.00761 0.46461 0.0
C1000 C 0.6529 0.00809 0.52712 0.0
C1001 C 0.63939 0.00736 0.60427 0.0
C1002 C 0.64578 0.98478 0.65096 0.0
C1003 C 0.64408 0.03006 0.65247 0.0
C1004 C 0.61374 1.00648 0.57524 0.0
C1005 C 0.61301 1.00641 0.49442 0.0
C1006 C 0.59147 1.00554 0.45369 0.0
C1007 C 0.5701 1.00476 0.49649 0.0
C1008 C 0.57024 1.00511 0.57948 0.0
C1009 C 0.59247 1.00601 0.61915 0.0
H1010 H 0.50994 0.69221 0.5659 0.0
H1011 H 0.51318 0.68128 0.31411 0.0
H1012 H 0.52031 0.63862 0.33545 0.0
H1013 H 0.55385 0.64788 0.62216 0.0
H1014 H 0.53735 0.63791 0.70663 0.0
H1015 H 0.53431 0.66824 0.67289 0.0
H1016 H 0.48848 0.66268 0.66249 0.0
H1017 H 0.49138 0.63234 0.69616 0.0
H1018 H 0.47666 0.63852 0.60454 0.0
H1019 H 0.52652 0.59705 0.38203 0.0
H1020 H 0.52957 0.55868 0.45073 0.0
H1021 H 0.51918 0.59474 0.67318 0.0
C1022 C 0.51211 0.68097 0.51495 0.0
C1023 C 0.51141 0.69068 0.43803 0.0
C1024 C 0.51446 0.67491 0.37371 0.0
C1025 C 0.51826 0.65041 0.38514 0.0
C1026 C 0.51871 0.64158 0.46127 0.0
C1027 C 0.51555 0.65627 0.52519 0.0
C1028 C 0.5157 0.64182 0.60069 0.0
C1029 C 0.53655 0.64942 0.65372 0.0
C1030 C 0.49162 0.64397 0.64348 0.0
C1031 C 0.51942 0.61673 0.56896 0.0
C1032 C 0.52133 0.61718 0.48835 0.0
C1033 C 0.52505 0.59648 0.44514 0.0
C1034 C 0.52685 0.5747 0.48503 0.0
C1035 C 0.52471 0.57352 0.5677 0.0
C1036 C 0.52086 0.59495 0.61007 0.0
H1037 H 0.84539 0.49061 0.44168 0.0
H1038 H 0.80577 0.53271 0.61101 0.0
H1039 H 0.84273 0.53887 0.68684 0.0
H1040 H 0.88409 0.4618 0.57754 0.0
H1041 H 0.90976 0.46258 0.51381 0.0
H1042 H 0.8801 0.46209 0.47305 0.0
H1043 H 0.88992 0.50061 0.39499 0.0
H1044 H 0.91941 0.50127 0.43732 0.0
H1045 H 0.89998 0.52678 0.44684 0.0
H1046 H 0.88329 0.5377 0.75059 0.0
H1047 H 0.92537 0.53234 0.79118 0.0
H1048 H 0.93968 0.49365 0.5765 0.0
C1049 C 0.84451 0.50159 0.49371 0.0
C1050 C 0.82243 0.51105 0.52027 0.0
C1051 C 0.82223 0.5249 0.58977 0.0
C1052 C 0.84321 0.52862 0.6332 0.0
C1053 C 0.86448 0.51863 0.60628 0.0
C1054 C 0.86538 0.50566 0.53762 0.0
C1055 C 0.89056 0.49658 0.52244 0.0
C1056 C 0.89117 0.46913 0.5217 0.0
C1057 C 0.90056 0.50694 0.44585 0.0
C1058 C 0.90363 0.50646 0.59331 0.0
C1059 C 0.88815 0.51889 0.64138 0.0
C1060 C 0.89564 0.52834 0.7128 0.0
C1061 C 0.91956 0.52511 0.73557 0.0
C1062 C 0.93588 0.51286 0.68667 0.0
C1063 C 0.92774 0.50353 0.61439 0.0
loop_
_geom_bond_atom_site_label_1
_geom_bond_atom_site_label_2
_geom_bond_distance
_geom_bond_site_symmetry_2
_ccdc_geom_bond_type
P0 O11 1.490 . S
P0 C14 1.812 . S
P0 C20 1.803 . S
P0 C26 1.819 . S
H1 C15 0.941 . S
H2 C16 0.939 . S
H3 C18 0.940 . S
H4 C19 0.940 . S
H5 C21 0.939 . S
H6 C22 0.942 . S
H7 C24 0.940 . S
H8 C25 0.939 . S
H9 C27 0.941 . S
H10 C31 0.939 . S
O11 P0 1.490 . S
H12 C28 0.939 . S
H13 C30 0.940 . S
C14 P0 1.812 . S
C14 C15 1.389 . S
C14 C19 1.391 . S
C15 H1 0.941 . S
C15 C14 1.389 . S
C15 C16 1.397 . S
C16 H2 0.939 . S
C16 C15 1.397 . S
C16 C17 1.378 . S
C17 C16 1.378 . S
C17 C18 1.378 . S
C18 H3 0.940 . S
C18 C17 1.378 . S
C18 C19 1.396 . S
C19 H4 0.940 . S
C19 C14 1.391 . S
C19 C18 1.396 . S
C20 P0 1.803 . S
C20 C21 1.378 . S
C20 C25 1.400 . S
C21 H5 0.939 . S
C21 C20 1.378 . S
C21 C22 1.361 . S
C22 H6 0.942 . S
C22 C21 1.361 . S
C22 C23 1.369 . S
C23 C22 1.369 . S
C23 C24 1.404 . S
C24 H7 0.940 . S
C24 C23 1.404 . S
C24 C25 1.389 . S
C25 H8 0.939 . S
C25 C20 1.400 . S
C25 C24 1.389 . S
C26 P0 1.819 . S
C26 C27 1.391 . S
C26 C31 1.391 . S
C27 H9 0.941 . S
C27 C26 1.391 . S
C27 C28 1.396 . S
C28 H12 0.939 . S
C28 C27 1.396 . S
C28 C29 1.397 . S
C29 C28 1.397 . S
C29 C30 1.385 . S
C30 H13 0.940 . S
C30 C29 1.385 . S
C30 C31 1.388 . S
C31 H10 0.939 . S
C31 C26 1.391 . S
C31 C30 1.388 . S
P32 O43 1.490 . S
P32 C46 1.812 . S
P32 C52 1.803 . S
P32 C58 1.819 . S
H33 C47 0.941 . S
H34 C48 0.939 . S
H35 C50 0.940 . S
H36 C51 0.950 . S
H37 C53 0.939 . S
H38 C54 0.942 . S
H39 C56 0.940 . S
H40 C57 0.959 . S
H41 C59 0.941 . S
H42 C63 0.929 1_655 S
O43 P32 1.490 . S
H44 C60 0.939 . S
H45 C62 0.940 . S
C46 P32 1.812 . S
C46 C47 1.389 . S
C46 C51 1.375 1_455 S
C47 H33 0.941 . S
C47 C46 1.389 . S
C47 C48 1.397 . S
C48 H34 0.939 . S
C48 C47 1.397 . S
C48 C49 1.378 . S
C49 C48 1.378 . S
C49 C50 1.378 1_455 S
C50 H35 0.940 . S
C50 C49 1.378 1_655 S
C50 C51 1.403 . S
C51 H36 0.950 . S
C51 C46 1.375 1_655 S
C51 C50 1.403 . S
C52 P32 1.803 . S
C52 C53 1.378 . S
C52 C57 1.368 1_455 S
C53 H37 0.939 . S
C53 C52 1.378 . S
C53 C54 1.361 . S
C54 H38 0.942 . S
C54 C53 1.361 . S
C54 C55 1.369 . S
C55 C54 1.369 . S
C55 C56 1.404 1_455 S
C56 H39 0.940 . S
C56 C55 1.404 1_655 S
C56 C57 1.402 . S
C57 H40 0.959 . S
C57 C52 1.368 1_655 S
C57 C56 1.402 . S
C58 P32 1.819 . S
C58 C59 1.391 . S
C58 C63 1.391 . S
C59 H41 0.941 . S
C59 C58 1.391 . S
C59 C60 1.396 . S
C60 H44 0.939 . S
C60 C59 1.396 . S
C60 C61 1.397 . S
C61 C60 1.397 . S
C61 C62 1.385 1_455 S
C62 H45 0.940 . S
C62 C61 1.385 1_655 S
C62 C63 1.388 1_655 S
C63 H42 0.929 1_455 S
C63 C58 1.391 . S
C63 C62 1.388 1_455 S
P64 O75 1.490 . S
P64 C78 1.812 . S
P64 C84 1.803 . S
P64 C90 1.819 . S
H65 C79 0.941 . S
H66 C80 0.939 . S
H67 C82 0.940 . S
H68 C83 0.950 . S
H69 C85 0.939 . S
H70 C86 0.942 . S
H71 C88 0.940 . S
H72 C89 0.959 . S
H73 C91 0.941 . S
H74 C95 0.929 1_565 S
O75 P64 1.490 . S
H76 C92 0.939 . S
H77 C94 0.940 . S
C78 P64 1.812 . S
C78 C79 1.389 . S
C78 C83 1.375 1_545 S
C79 H65 0.941 . S
C79 C78 1.389 . S
C79 C80 1.397 . S
C80 H66 0.939 . S
C80 C79 1.397 . S
C80 C81 1.378 . S
C81 C80 1.378 . S
C81 C82 1.378 1_545 S
C82 H67 0.940 . S
C82 C81 1.378 1_565 S
C82 C83 1.403 . S
C83 H68 0.950 . S
C83 C78 1.375 1_565 S
C83 C82 1.403 . S
C84 P64 1.803 . S
C84 C85 1.378 . S
C84 C89 1.368 1_545 S
C85 H69 0.939 . S
C85 C84 1.378 . S
C85 C86 1.361 . S
C86 H70 0.942 . S
C86 C85 1.361 . S
C86 C87 1.369 . S
C87 C86 1.369 . S
C87 C88 1.404 1_545 S
C88 H71 0.940 . S
C88 C87 1.404 1_565 S
C88 C89 1.402 . S
C89 H72 0.959 . S
C89 C84 1.368 1_565 S
C89 C88 1.402 . S
C90 P64 1.819 . S
C90 C91 1.391 . S
C90 C95 1.391 . S
C91 H73 0.941 . S
C91 C90 1.391 . S
C91 C92 1.396 . S
C92 H76 0.939 . S
C92 C91 1.396 . S
C92 C93 1.397 . S
C93 C92 1.397 . S
C93 C94 1.385 1_545 S
C94 H77 0.940 . S
C94 C93 1.385 1_565 S
C94 C95 1.388 1_565 S
C95 H74 0.929 1_545 S
C95 C90 1.391 . S
C95 C94 1.388 1_545 S
P96 O107 1.490 . S
P96 C110 1.812 . S
P96 C116 1.803 . S
P96 C122 1.819 . S
H97 C111 0.941 . S
H98 C112 0.939 . S
H99 C114 0.940 . S
H100 C115 0.940 . S
H101 C117 0.939 . S
H102 C118 0.942 . S
H103 C120 0.940 . S
H104 C121 0.939 . S
H105 C123 0.941 . S
H106 C127 0.939 . S
O107 P96 1.490 . S
H108 C124 0.939 . S
H109 C126 0.940 . S
C110 P96 1.812 . S
C110 C111 1.389 . S
C110 C115 1.391 . S
C111 H97 0.941 . S
C111 C110 1.389 . S
C111 C112 1.397 . S
C112 H98 0.939 . S
C112 C111 1.397 . S
C112 C113 1.378 . S
C113 C112 1.378 . S
C113 C114 1.378 . S
C114 H99 0.940 . S
C114 C113 1.378 . S
C114 C115 1.396 . S
C115 H100 0.940 . S
C115 C110 1.391 . S
C115 C114 1.396 . S
C116 P96 1.803 . S
C116 C117 1.378 . S
C116 C121 1.400 . S
C117 H101 0.939 . S
C117 C116 1.378 . S
C117 C118 1.361 . S
C118 H102 0.942 . S
C118 C117 1.361 . S
C118 C119 1.369 . S
C119 C118 1.369 . S
C119 C120 1.404 . S
C120 H103 0.940 . S
C120 C119 1.404 . S
C120 C121 1.389 . S
C121 H104 0.939 . S
C121 C116 1.400 . S
C121 C120 1.389 . S
C122 P96 1.819 . S
C122 C123 1.391 . S
C122 C127 1.391 . S
C123 H105 0.941 . S
C123 C122 1.391 . S
C123 C124 1.396 . S
C124 H108 0.939 . S
C124 C123 1.396 . S
C124 C125 1.397 . S
C125 C124 1.397 . S
C125 C126 1.385 . S
C126 H109 0.940 . S
C126 C125 1.385 . S
C126 C127 1.388 . S
C127 H106 0.939 . S
C127 C122 1.391 . S
C127 C126 1.388 . S
P128 O139 1.490 . S
P128 C142 1.812 1_554 S
P128 C148 1.803 . S
P128 C154 1.819 . S
H129 C143 0.941 . S
H130 C144 0.939 . S
H131 C146 0.940 . S
H132 C147 0.940 . S
H133 C149 0.939 . S
H134 C150 0.942 . S
H135 C152 0.940 . S
H136 C153 0.939 . S
H137 C155 0.941 . S
H138 C159 0.939 . S
O139 P128 1.490 . S
H140 C156 0.939 . S
H141 C158 0.940 . S
C142 P128 1.812 1_556 S
C142 C143 1.389 . S
C142 C147 1.391 . S
C143 H129 0.941 . S
C143 C142 1.389 . S
C143 C144 1.397 . S
C144 H130 0.939 . S
C144 C143 1.397 . S
C144 C145 1.378 . S
C145 C144 1.378 . S
C145 C146 1.378 . S
C146 H131 0.940 . S
C146 C145 1.378 . S
C146 C147 1.396 . S
C147 H132 0.940 . S
C147 C142 1.391 . S
C147 C146 1.396 . S
C148 P128 1.803 . S
C148 C149 1.378 . S
C148 C153 1.400 . S
C149 H133 0.939 . S
C149 C148 1.378 . S
C149 C150 1.361 . S
C150 H134 0.942 . S
C150 C149 1.361 . S
C150 C151 1.369 . S
C151 C150 1.369 . S
C151 C152 1.404 . S
C152 H135 0.940 . S
C152 C151 1.404 . S
C152 C153 1.389 . S
C153 H136 0.939 . S
C153 C148 1.400 . S
C153 C152 1.389 . S
C154 P128 1.819 . S
C154 C155 1.391 . S
C154 C159 1.391 . S
C155 H137 0.941 . S
C155 C154 1.391 . S
C155 C156 1.396 . S
C156 H140 0.939 . S
C156 C155 1.396 . S
C156 C157 1.397 . S
C157 C156 1.397 . S
C157 C158 1.385 . S
C158 H141 0.940 . S
C158 C157 1.385 . S
C158 C159 1.388 . S
C159 H138 0.939 . S
C159 C154 1.391 . S
C159 C158 1.388 . S
P160 O171 1.490 . S
P160 C174 1.812 1_554 S
P160 C180 1.803 . S
P160 C186 1.819 . S
H161 C175 0.941 . S
H162 C176 0.939 . S
H163 C178 0.940 . S
H164 C179 0.944 . S
H165 C181 0.939 . S
H166 C182 0.942 . S
H167 C184 0.940 . S
H168 C185 0.953 . S
H169 C187 0.941 . S
H170 C191 0.933 1_655 S
O171 P160 1.490 . S
H172 C188 0.939 . S
H173 C190 0.940 . S
C174 P160 1.812 1_556 S
C174 C175 1.389 . S
C174 C179 1.385 1_455 S
C175 H161 0.941 . S
C175 C174 1.389 . S
C175 C176 1.397 . S
C176 H162 0.939 . S
C176 C175 1.397 . S
C176 C177 1.378 . S
C177 C176 1.378 . S
C177 C178 1.378 1_455 S
C178 H163 0.940 . S
C178 C177 1.378 1_655 S
C178 C179 1.399 . S
C179 H164 0.944 . S
C179 C174 1.385 1_655 S
C179 C178 1.399 . S
C180 P160 1.803 . S
C180 C181 1.378 . S
C180 C185 1.379 1_455 S
C181 H165 0.939 . S
C181 C180 1.378 . S
C181 C182 1.361 . S
C182 H166 0.942 . S
C182 C181 1.361 . S
C182 C183 1.369 . S
C183 C182 1.369 . S
C183 C184 1.404 1_455 S
C184 H167 0.940 . S
C184 C183 1.404 1_655 S
C184 C185 1.398 . S
C185 H168 0.953 . S
C185 C180 1.379 1_655 S
C185 C184 1.398 . S
C186 P160 1.819 . S
C186 C187 1.391 . S
C186 C191 1.391 . S
C187 H169 0.941 . S
C187 C186 1.391 . S
C187 C188 1.396 . S
C188 H172 0.939 . S
C188 C187 1.396 . S
C188 C189 1.397 . S
C189 C188 1.397 . S
C189 C190 1.385 1_455 S
C190 H173 0.940 . S
C190 C189 1.385 1_655 S
C190 C191 1.388 1_655 S
C191 H170 0.933 1_455 S
C191 C186 1.391 . S
C191 C190 1.388 1_455 S
P192 O203 1.490 . S
P192 C206 1.812 1_554 S
P192 C212 1.803 . S
P192 C218 1.819 . S
H193 C207 0.941 . S
H194 C208 0.939 . S
H195 C210 0.940 . S
H196 C211 0.944 . S
H197 C213 0.939 . S
H198 C214 0.942 . S
H199 C216 0.940 . S
H200 C217 0.953 . S
H201 C219 0.941 . S
H202 C223 0.933 1_565 S
O203 P192 1.490 . S
H204 C220 0.939 . S
H205 C222 0.940 . S
C206 P192 1.812 1_556 S
C206 C207 1.389 . S
C206 C211 1.385 1_545 S
C207 H193 0.941 . S
C207 C206 1.389 . S
C207 C208 1.397 . S
C208 H194 0.939 . S
C208 C207 1.397 . S
C208 C209 1.378 . S
C209 C208 1.378 . S
C209 C210 1.378 1_545 S
C210 H195 0.940 . S
C210 C209 1.378 1_565 S
C210 C211 1.399 . S
C211 H196 0.944 . S
C211 C206 1.385 1_565 S
C211 C210 1.399 . S
C212 P192 1.803 . S
C212 C213 1.378 . S
C212 C217 1.379 1_545 S
C213 H197 0.939 . S
C213 C212 1.378 . S
C213 C214 1.361 . S
C214 H198 0.942 . S
C214 C213 1.361 . S
C214 C215 1.369 . S
C215 C214 1.369 . S
C215 C216 1.404 1_545 S
C216 H199 0.940 . S
C216 C215 1.404 1_565 S
C216 C217 1.398 . S
C217 H200 0.953 . S
C217 C212 1.379 1_565 S
C217 C216 1.398 . S
C218 P192 1.819 . S
C218 C219 1.391 . S
C218 C223 1.391 . S
C219 H201 0.941 . S
C219 C218 1.391 . S
C219 C220 1.396 . S
C220 H204 0.939 . S
C220 C219 1.396 . S
C220 C221 1.397 . S
C221 C220 1.397 . S
C221 C222 1.385 1_545 S
C222 H205 0.940 . S
C222 C221 1.385 1_565 S
C222 C223 1.388 1_565 S
C223 H202 0.933 1_545 S
C223 C218 1.391 . S
C223 C222 1.388 1_545 S
P224 O235 1.490 . S
P224 C238 1.812 1_554 S
P224 C244 1.803 . S
P224 C250 1.819 . S
H225 C239 0.941 . S
H226 C240 0.939 . S
H227 C242 0.940 . S
H228 C243 0.940 . S
H229 C245 0.939 . S
H230 C246 0.942 . S
H231 C248 0.940 . S
H232 C249 0.939 . S
H233 C251 0.941 . S
H234 C255 0.939 . S
O235 P224 1.490 . S
H236 C252 0.939 . S
H237 C254 0.940 . S
C238 P224 1.812 1_556 S
C238 C239 1.389 . S
C238 C243 1.391 . S
C239 H225 0.941 . S
C239 C238 1.389 . S
C239 C240 1.397 . S
C240 H226 0.939 . S
C240 C239 1.397 . S
C240 C241 1.378 . S
C241 C240 1.378 . S
C241 C242 1.378 . S
C242 H227 0.940 . S
C242 C241 1.378 . S
C242 C243 1.396 . S
C243 H228 0.940 . S
C243 C238 1.391 . S
C243 C242 1.396 . S
C244 P224 1.803 . S
C244 C245 1.378 . S
C244 C249 1.400 . S
C245 H229 0.939 . S
C245 C244 1.378 . S
C245 C246 1.361 . S
C246 H230 0.942 . S
C246 C245 1.361 . S
C246 C247 1.369 . S
C247 C246 1.369 . S
C247 C248 1.404 . S
C248 H231 0.940 . S
C248 C247 1.404 . S
C248 C249 1.389 . S
C249 H232 0.939 . S
C249 C244 1.400 . S
C249 C248 1.389 . S
C250 P224 1.819 . S
C250 C251 1.391 . S
C250 C255 1.391 . S
C251 H233 0.941 . S
C251 C250 1.391 . S
C251 C252 1.396 . S
C252 H236 0.939 . S
C252 C251 1.396 . S
C252 C253 1.397 . S
C253 C252 1.397 . S
C253 C254 1.385 . S
C254 H237 0.940 . S
C254 C253 1.385 . S
C254 C255 1.388 . S
C255 H234 0.939 . S
C255 C250 1.391 . S
C255 C254 1.388 . S
Pr256 C258 2.880 . S
Pr256 O276 2.562 . S
Pr256 O277 2.490 . S
Pr256 O278 2.695 1_565 S
Pr256 O279 2.512 . S
Pr256 O281 2.437 . S
Pr256 O284 2.436 1_455 S
Pr256 O286 2.438 1_565 S
Pr257 C267 2.880 . S
Pr257 O278 2.436 1_655 S
Pr257 O280 2.438 1_545 S
Pr257 O282 2.562 . S
Pr257 O283 2.490 . S
Pr257 O284 2.695 1_545 S
Pr257 O285 2.512 . S
Pr257 O287 2.437 . S
C258 Pr256 2.880 . S
C258 C259 1.491 . S
C258 O276 1.254 . S
C258 O277 1.225 . S
C259 C258 1.491 . S
C259 C260 1.392 . S
C259 C264 1.356 . S
C260 C259 1.392 . S
C260 C261 1.368 . S
C260 H288 0.929 . S
C261 C260 1.368 . S
C261 C262 1.386 . S
C261 H289 0.929 . S
C262 C261 1.386 . S
C262 C263 1.373 . S
C263 C262 1.373 . S
C263 C264 1.409 . S
C263 H290 0.932 . S
C264 C259 1.356 . S
C264 C263 1.409 . S
C264 H291 0.930 1_455 S
C265 O278 1.270 1_565 S
C265 O279 1.248 . S
C266 O280 1.267 . S
C266 O281 1.278 1_655 S
C267 Pr257 2.880 . S
C267 C268 1.491 . S
C267 O282 1.254 . S
C267 O283 1.225 . S
C268 C267 1.491 . S
C268 C269 1.392 . S
C268 C273 1.356 . S
C269 C268 1.392 . S
C269 C270 1.368 . S
C269 H292 0.929 . S
C270 C269 1.368 . S
C270 C271 1.386 . S
C270 H293 0.929 . S
C271 C270 1.386 . S
C271 C272 1.373 . S
C272 C271 1.373 . S
C272 C273 1.409 . S
C272 H294 0.932 1_655 S
C273 C268 1.356 . S
C273 C272 1.409 . S
C273 H295 0.930 1_655 S
C274 O284 1.270 1_545 S
C274 O285 1.248 . S
C275 O286 1.267 . S
C275 O287 1.278 1_455 S
O276 Pr256 2.562 . S
O276 C258 1.254 . S
O277 Pr256 2.490 . S
O277 C258 1.225 . S
O278 Pr256 2.695 1_545 S
O278 Pr257 2.436 1_455 S
O278 C265 1.270 1_545 S
O279 Pr256 2.512 . S
O279 C265 1.248 . S
O280 Pr257 2.438 1_565 S
O280 C266 1.267 . S
O281 Pr256 2.437 . S
O281 C266 1.278 1_455 S
O282 Pr257 2.562 . S
O282 C267 1.254 . S
O283 Pr257 2.490 . S
O283 C267 1.225 . S
O284 Pr256 2.436 1_655 S
O284 Pr257 2.695 1_565 S
O284 C274 1.270 1_565 S
O285 Pr257 2.512 . S
O285 C274 1.248 . S
O286 Pr256 2.438 1_545 S
O286 C275 1.267 . S
O287 Pr257 2.437 . S
O287 C275 1.278 1_655 S
H288 C260 0.929 . S
H289 C261 0.929 . S
H290 C263 0.932 . S
H291 C264 0.930 1_655 S
H292 C269 0.929 . S
H293 C270 0.929 . S
H294 C272 0.932 1_455 S
H295 C273 0.930 1_455 S
Pr296 C298 2.880 . S
Pr296 O316 2.562 . S
Pr296 O317 2.490 . S
Pr296 O318 2.695 . S
Pr296 O319 2.512 . S
Pr296 O321 2.437 . S
Pr296 O324 2.436 1_545 S
Pr296 O326 2.438 . S
Pr297 C307 2.880 . S
Pr297 O318 2.436 1_565 S
Pr297 O320 2.438 . S
Pr297 O322 2.562 . S
Pr297 O323 2.490 . S
Pr297 O324 2.695 . S
Pr297 O325 2.512 . S
Pr297 O327 2.437 . S
C298 Pr296 2.880 . S
C298 C299 1.491 . S
C298 O316 1.254 . S
C298 O317 1.225 . S
C299 C298 1.491 . S
C299 C300 1.392 . S
C299 C304 1.356 . S
C300 C299 1.392 . S
C300 C301 1.368 . S
C300 H328 0.929 . S
C301 C300 1.368 . S
C301 C302 1.386 . S
C301 H329 0.929 . S
C302 C301 1.386 . S
C302 C303 1.373 . S
C303 C302 1.373 . S
C303 C304 1.409 . S
C303 H330 0.908 1_545 S
C304 C299 1.356 . S
C304 C303 1.409 . S
C304 H331 0.930 1_545 S
C305 O318 1.270 . S
C305 O319 1.248 . S
C306 O320 1.267 . S
C306 O321 1.278 1_565 S
C307 Pr297 2.880 . S
C307 C308 1.491 . S
C307 O322 1.254 . S
C307 O323 1.225 . S
C308 C307 1.491 . S
C308 C309 1.392 . S
C308 C313 1.356 . S
C309 C308 1.392 . S
C309 C310 1.368 . S
C309 H332 0.929 . S
C310 C309 1.368 . S
C310 C311 1.386 . S
C310 H333 0.929 . S
C311 C310 1.386 . S
C311 C312 1.373 . S
C312 C311 1.373 . S
C312 C313 1.409 . S
C312 H334 0.900 1_565 S
C313 C308 1.356 . S
C313 C312 1.409 . S
C313 H335 0.930 1_565 S
C314 O324 1.270 . S
C314 O325 1.248 . S
C315 O326 1.267 . S
C315 O327 1.278 1_545 S
O316 Pr296 2.562 . S
O316 C298 1.254 . S
O317 Pr296 2.490 . S
O317 C298 1.225 . S
O318 Pr296 2.695 . S
O318 Pr297 2.436 1_545 S
O318 C305 1.270 . S
O319 Pr296 2.512 . S
O319 C305 1.248 . S
O320 Pr297 2.438 . S
O320 C306 1.267 . S
O321 Pr296 2.437 . S
O321 C306 1.278 1_545 S
O322 Pr297 2.562 . S
O322 C307 1.254 . S
O323 Pr297 2.490 . S
O323 C307 1.225 . S
O324 Pr296 2.436 1_565 S
O324 Pr297 2.695 . S
O324 C314 1.270 . S
O325 Pr297 2.512 . S
O325 C314 1.248 . S
O326 Pr296 2.438 . S
O326 C315 1.267 . S
O327 Pr297 2.437 . S
O327 C315 1.278 1_565 S
H328 C300 0.929 . S
H329 C301 0.929 . S
H330 C303 0.908 1_565 S
H331 C304 0.930 1_565 S
H332 C309 0.929 . S
H333 C310 0.929 . S
H334 C312 0.900 1_545 S
H335 C313 0.930 1_545 S
Pr336 C338 2.880 . S
Pr336 O356 2.562 . S
Pr336 O357 2.490 . S
Pr336 O358 2.695 . S
Pr336 O359 2.512 . S
Pr336 O361 2.437 . S
Pr336 O364 2.436 . S
Pr336 O366 2.438 . S
Pr337 C347 2.880 . S
Pr337 O358 2.436 . S
Pr337 O360 2.438 . S
Pr337 O362 2.562 . S
Pr337 O363 2.490 . S
Pr337 O364 2.695 . S
Pr337 O365 2.512 . S
Pr337 O367 2.437 . S
C338 Pr336 2.880 . S
C338 C339 1.491 . S
C338 O356 1.254 . S
C338 O357 1.225 . S
C339 C338 1.491 . S
C339 C340 1.392 . S
C339 C344 1.356 . S
C340 C339 1.392 . S
C340 C341 1.368 . S
C340 H368 0.929 . S
C341 C340 1.368 . S
C341 C342 1.386 . S
C341 H369 0.929 . S
C342 C341 1.386 . S
C342 C343 1.373 . S
C343 C342 1.373 . S
C343 C344 1.409 . S
C343 H370 0.931 . S
C344 C339 1.356 . S
C344 C343 1.409 . S
C344 H371 0.930 . S
C345 O358 1.270 . S
C345 O359 1.248 . S
C346 O360 1.267 . S
C346 O361 1.278 . S
C347 Pr337 2.880 . S
C347 C348 1.491 . S
C347 O362 1.254 . S
C347 O363 1.225 . S
C348 C347 1.491 . S
C348 C349 1.392 . S
C348 C353 1.356 . S
C349 C348 1.392 . S
C349 C350 1.368 . S
C349 H372 0.929 . S
C350 C349 1.368 . S
C350 C351 1.386 . S
C350 H373 0.929 . S
C351 C350 1.386 . S
C351 C352 1.373 . S
C352 C351 1.373 . S
C352 C353 1.409 . S
C352 H374 0.931 . S
C353 C348 1.356 . S
C353 C352 1.409 . S
C353 H375 0.930 . S
C354 O364 1.270 . S
C354 O365 1.248 . S
C355 O366 1.267 . S
C355 O367 1.278 . S
O356 Pr336 2.562 . S
O356 C338 1.254 . S
O357 Pr336 2.490 . S
O357 C338 1.225 . S
O358 Pr336 2.695 . S
O358 Pr337 2.436 . S
O358 C345 1.270 . S
O359 Pr336 2.512 . S
O359 C345 1.248 . S
O360 Pr337 2.438 . S
O360 C346 1.267 . S
O361 Pr336 2.437 . S
O361 C346 1.278 . S
O362 Pr337 2.562 . S
O362 C347 1.254 . S
O363 Pr337 2.490 . S
O363 C347 1.225 . S
O364 Pr336 2.436 . S
O364 Pr337 2.695 . S
O364 C354 1.270 . S
O365 Pr337 2.512 . S
O365 C354 1.248 . S
O366 Pr336 2.438 . S
O366 C355 1.267 . S
O367 Pr337 2.437 . S
O367 C355 1.278 . S
H368 C340 0.929 . S
H369 C341 0.929 . S
H370 C343 0.931 . S
H371 C344 0.930 . S
H372 C349 0.929 . S
H373 C350 0.929 . S
H374 C352 0.931 . S
H375 C353 0.930 . S
Pr376 C378 2.880 . S
Pr376 O396 2.562 . S
Pr376 O397 2.490 . S
Pr376 O398 2.695 1_655 S
Pr376 O399 2.512 . S
Pr376 O401 2.437 . S
Pr376 O404 2.436 . S
Pr376 O406 2.438 1_655 S
Pr377 C387 2.880 . S
Pr377 O398 2.436 . S
Pr377 O400 2.438 1_455 S
Pr377 O402 2.562 . S
Pr377 O403 2.490 . S
Pr377 O404 2.695 1_455 S
Pr377 O405 2.512 . S
Pr377 O407 2.437 . S
C378 Pr376 2.880 . S
C378 C379 1.491 . S
C378 O396 1.254 . S
C378 O397 1.225 . S
C379 C378 1.491 . S
C379 C380 1.392 . S
C379 C384 1.356 . S
C380 C379 1.392 . S
C380 C381 1.368 . S
C380 H408 0.929 . S
C381 C380 1.368 . S
C381 C382 1.386 . S
C381 H409 0.929 . S
C382 C381 1.386 . S
C382 C383 1.373 . S
C383 C382 1.373 . S
C383 C384 1.409 . S
C383 H410 0.931 . S
C384 C379 1.356 . S
C384 C383 1.409 . S
C384 H411 0.930 . S
C385 O398 1.261 1_655 S
C385 O399 1.265 . S
C386 O400 1.267 . S
C386 O401 1.278 . S
C387 Pr377 2.880 . S
C387 C388 1.491 . S
C387 O402 1.254 . S
C387 O403 1.225 . S
C388 C387 1.491 . S
C388 C389 1.392 . S
C388 C393 1.356 . S
C389 C388 1.392 . S
C389 C390 1.368 . S
C389 H412 0.929 . S
C390 C389 1.368 . S
C390 C391 1.386 . S
C390 H413 0.929 . S
C391 C390 1.386 . S
C391 C392 1.373 . S
C392 C391 1.373 . S
C392 C393 1.409 . S
C392 H414 0.931 . S
C393 C388 1.356 . S
C393 C392 1.409 . S
C393 H415 0.930 . S
C394 O404 1.257 1_455 S
C394 O405 1.271 . S
C395 O406 1.267 . S
C395 O407 1.278 . S
O396 Pr376 2.562 . S
O396 C378 1.254 . S
O397 Pr376 2.490 . S
O397 C378 1.225 . S
O398 Pr376 2.695 1_455 S
O398 Pr377 2.436 . S
O398 C385 1.261 1_455 S
O399 Pr376 2.512 . S
O399 C385 1.265 . S
O400 Pr377 2.438 1_655 S
O400 C386 1.267 . S
O401 Pr376 2.437 . S
O401 C386 1.278 . S
O402 Pr377 2.562 . S
O402 C387 1.254 . S
O403 Pr377 2.490 . S
O403 C387 1.225 . S
O404 Pr376 2.436 . S
O404 Pr377 2.695 1_655 S
O404 C394 1.257 1_655 S
O405 Pr377 2.512 . S
O405 C394 1.271 . S
O406 Pr376 2.438 1_455 S
O406 C395 1.267 . S
O407 Pr377 2.437 . S
O407 C395 1.278 . S
H408 C380 0.929 . S
H409 C381 0.929 . S
H410 C383 0.931 . S
H411 C384 0.930 . S
H412 C389 0.929 . S
H413 C390 0.929 . S
H414 C392 0.931 . S
H415 C393 0.930 . S
H416 C428 0.930 . S
H417 C430 0.930 . S
H418 C431 0.930 . S
H419 C435 0.959 . S
H420 C435 0.959 . S
H421 C435 0.961 . S
H422 C436 0.960 . S
H423 C436 0.961 . S
H424 C436 0.959 . S
H425 C439 0.929 . S
H426 C440 0.931 . S
H427 C442 0.930 . S
C428 H416 0.930 . S
C428 C429 1.399 1_565 S
C428 C433 1.399 . S
C429 C428 1.399 1_545 S
C429 C430 1.376 . S
C430 H417 0.930 . S
C430 C429 1.376 . S
C430 C431 1.388 . S
C431 H418 0.930 . S
C431 C430 1.388 . S
C431 C432 1.390 . S
C432 C431 1.390 . S
C432 C433 1.394 1_545 S
C432 C438 1.465 . S
C433 C428 1.399 . S
C433 C432 1.394 1_565 S
C433 C434 1.516 . S
C434 C433 1.516 . S
C434 C435 1.502 . S
C434 C436 1.561 . S
C434 C437 1.526 . S
C435 H419 0.959 . S
C435 H420 0.959 . S
C435 H421 0.961 . S
C435 C434 1.502 . S
C436 H422 0.960 . S
C436 H423 0.961 . S
C436 H424 0.959 . S
C436 C434 1.561 . S
C437 C434 1.526 . S
C437 C438 1.396 1_565 S
C437 C442 1.390 . S
C438 C432 1.465 . S
C438 C437 1.396 1_545 S
C438 C439 1.399 . S
C439 H425 0.929 . S
C439 C438 1.399 . S
C439 C440 1.385 . S
C440 H426 0.931 . S
C440 C439 1.385 . S
C440 C441 1.389 . S
C441 C440 1.389 . S
C441 C442 1.387 1_545 S
C442 H427 0.930 . S
C442 C437 1.390 . S
C442 C441 1.387 1_565 S
H443 C455 0.930 . S
H444 C457 0.930 . S
H445 C458 0.930 . S
H446 C462 0.959 . S
H447 C462 0.959 . S
H448 C462 0.961 . S
H449 C463 0.960 . S
H450 C463 0.961 . S
H451 C463 0.959 . S
H452 C466 0.929 . S
H453 C467 0.931 . S
H454 C469 0.930 . S
C455 H443 0.930 . S
C455 C456 1.399 . S
C455 C460 1.399 . S
C456 C455 1.399 . S
C456 C457 1.376 . S
C457 H444 0.930 . S
C457 C456 1.376 . S
C457 C458 1.388 . S
C458 H445 0.930 . S
C458 C457 1.388 . S
C458 C459 1.390 . S
C459 C458 1.390 . S
C459 C460 1.394 . S
C459 C465 1.465 . S
C460 C455 1.399 . S
C460 C459 1.394 . S
C460 C461 1.516 . S
C461 C460 1.516 . S
C461 C462 1.502 . S
C461 C463 1.561 . S
C461 C464 1.526 . S
C462 H446 0.959 . S
C462 H447 0.959 . S
C462 H448 0.961 . S
C462 C461 1.502 . S
C463 H449 0.960 . S
C463 H450 0.961 . S
C463 H451 0.959 . S
C463 C461 1.561 . S
C464 C461 1.526 . S
C464 C465 1.396 . S
C464 C469 1.390 . S
C465 C459 1.465 . S
C465 C464 1.396 . S
C465 C466 1.399 . S
C466 H452 0.929 . S
C466 C465 1.399 . S
C466 C467 1.385 . S
C467 H453 0.931 . S
C467 C466 1.385 . S
C467 C468 1.389 . S
C468 C467 1.389 . S
C468 C469 1.387 . S
C469 H454 0.930 . S
C469 C464 1.390 . S
C469 C468 1.387 . S
H470 C482 0.930 . S
H471 C484 0.930 . S
H472 C485 0.930 . S
H473 C489 0.959 . S
H474 C489 0.959 . S
H475 C489 0.961 . S
H476 C490 0.960 . S
H477 C490 0.961 . S
H478 C490 0.959 . S
H479 C493 0.929 . S
H480 C494 0.931 . S
H481 C496 0.930 . S
C482 H470 0.930 . S
C482 C483 1.399 . S
C482 C487 1.399 . S
C483 C482 1.399 . S
C483 C484 1.376 . S
C484 H471 0.930 . S
C484 C483 1.376 . S
C484 C485 1.388 . S
C485 H472 0.930 . S
C485 C484 1.388 . S
C485 C486 1.390 . S
C486 C485 1.390 . S
C486 C487 1.394 . S
C486 C492 1.465 . S
C487 C482 1.399 . S
C487 C486 1.394 . S
C487 C488 1.516 . S
C488 C487 1.516 . S
C488 C489 1.502 . S
C488 C490 1.561 . S
C488 C491 1.526 . S
C489 H473 0.959 . S
C489 H474 0.959 . S
C489 H475 0.961 . S
C489 C488 1.502 . S
C490 H476 0.960 . S
C490 H477 0.961 . S
C490 H478 0.959 . S
C490 C488 1.561 . S
C491 C488 1.526 . S
C491 C492 1.396 . S
C491 C496 1.390 . S
C492 C486 1.465 . S
C492 C491 1.396 . S
C492 C493 1.399 . S
C493 H479 0.929 . S
C493 C492 1.399 . S
C493 C494 1.385 . S
C494 H480 0.931 . S
C494 C493 1.385 . S
C494 C495 1.389 . S
C495 C494 1.389 . S
C495 C496 1.387 . S
C496 H481 0.930 . S
C496 C491 1.390 . S
C496 C495 1.387 . S
H497 C509 0.930 . S
H498 C511 0.930 . S
H499 C512 0.930 . S
H500 C516 0.959 . S
H501 C516 0.959 . S
H502 C516 0.961 . S
H503 C517 0.960 . S
H504 C517 0.961 . S
H505 C517 0.959 1_655 S
H506 C520 0.929 . S
H507 C521 0.931 . S
H508 C523 0.930 . S
C509 H497 0.930 . S
C509 C510 1.399 1_455 S
C509 C514 1.399 . S
C510 C509 1.399 1_655 S
C510 C511 1.376 . S
C511 H498 0.930 . S
C511 C510 1.376 . S
C511 C512 1.388 . S
C512 H499 0.930 . S
C512 C511 1.388 . S
C512 C513 1.390 . S
C513 C512 1.390 . S
C513 C514 1.394 1_655 S
C513 C519 1.465 . S
C514 C509 1.399 . S
C514 C513 1.394 1_455 S
C514 C515 1.516 . S
C515 C514 1.516 . S
C515 C516 1.502 . S
C515 C517 1.561 . S
C515 C518 1.526 . S
C516 H500 0.959 . S
C516 H501 0.959 . S
C516 H502 0.961 . S
C516 C515 1.502 . S
C517 H503 0.960 . S
C517 H504 0.961 . S
C517 H505 0.959 1_455 S
C517 C515 1.561 . S
C518 C515 1.526 . S
C518 C519 1.396 1_455 S
C518 C523 1.390 . S
C519 C513 1.465 . S
C519 C518 1.396 1_655 S
C519 C520 1.399 . S
C520 H506 0.929 . S
C520 C519 1.399 . S
C520 C521 1.385 . S
C521 H507 0.931 . S
C521 C520 1.385 . S
C521 C522 1.389 . S
C522 C521 1.389 . S
C522 C523 1.387 1_655 S
C523 H508 0.930 . S
C523 C518 1.390 . S
C523 C522 1.387 1_455 S
H524 C536 0.930 . S
H525 C538 0.930 . S
H526 C539 0.930 . S
H527 C543 0.959 . S
H528 C543 0.959 . S
H529 C543 0.961 . S
H530 C544 0.960 . S
H531 C544 0.961 . S
H532 C544 0.959 . S
H533 C547 0.929 . S
H534 C548 0.931 . S
H535 C550 0.930 . S
C536 H524 0.930 . S
C536 C537 1.399 1_565 S
C536 C541 1.399 . S
C537 C536 1.399 1_545 S
C537 C538 1.376 . S
C538 H525 0.930 . S
C538 C537 1.376 . S
C538 C539 1.388 . S
C539 H526 0.930 . S
C539 C538 1.388 . S
C539 C540 1.390 . S
C540 C539 1.390 . S
C540 C541 1.394 1_545 S
C540 C546 1.465 . S
C541 C536 1.399 . S
C541 C540 1.394 1_565 S
C541 C542 1.516 . S
C542 C541 1.516 . S
C542 C543 1.502 . S
C542 C544 1.561 . S
C542 C545 1.526 . S
C543 H527 0.959 . S
C543 H528 0.959 . S
C543 H529 0.961 . S
C543 C542 1.502 . S
C544 H530 0.960 . S
C544 H531 0.961 . S
C544 H532 0.959 . S
C544 C542 1.561 . S
C545 C542 1.526 . S
C545 C546 1.396 1_565 S
C545 C550 1.390 1_554 S
C546 C540 1.465 . S
C546 C545 1.396 1_545 S
C546 C547 1.399 1_554 S
C547 H533 0.929 . S
C547 C546 1.399 1_556 S
C547 C548 1.385 . S
C548 H534 0.931 . S
C548 C547 1.385 . S
C548 C549 1.389 . S
C549 C548 1.389 . S
C549 C550 1.387 1_545 S
C550 H535 0.930 . S
C550 C545 1.390 1_556 S
C550 C549 1.387 1_565 S
H551 C563 0.930 . S
H552 C565 0.930 . S
H553 C566 0.930 . S
H554 C570 0.959 . S
H555 C570 0.959 . S
H556 C570 0.961 . S
H557 C571 0.960 . S
H558 C571 0.961 . S
H559 C571 0.959 . S
H560 C574 0.929 . S
H561 C575 0.931 . S
H562 C577 0.930 . S
C563 H551 0.930 . S
C563 C564 1.399 . S
C563 C568 1.399 . S
C564 C563 1.399 . S
C564 C565 1.376 . S
C565 H552 0.930 . S
C565 C564 1.376 . S
C565 C566 1.388 . S
C566 H553 0.930 . S
C566 C565 1.388 . S
C566 C567 1.390 . S
C567 C566 1.390 . S
C567 C568 1.394 . S
C567 C573 1.465 . S
C568 C563 1.399 . S
C568 C567 1.394 . S
C568 C569 1.516 . S
C569 C568 1.516 . S
C569 C570 1.502 . S
C569 C571 1.561 . S
C569 C572 1.526 . S
C570 H554 0.959 . S
C570 H555 0.959 . S
C570 H556 0.961 . S
C570 C569 1.502 . S
C571 H557 0.960 . S
C571 H558 0.961 . S
C571 H559 0.959 . S
C571 C569 1.561 . S
C572 C569 1.526 . S
C572 C573 1.396 . S
C572 C577 1.390 1_554 S
C573 C567 1.465 . S
C573 C572 1.396 . S
C573 C574 1.399 1_554 S
C574 H560 0.929 . S
C574 C573 1.399 1_556 S
C574 C575 1.385 . S
C575 H561 0.931 . S
C575 C574 1.385 . S
C575 C576 1.389 . S
C576 C575 1.389 . S
C576 C577 1.387 . S
C577 H562 0.930 . S
C577 C572 1.390 1_556 S
C577 C576 1.387 . S
H578 C590 0.930 . S
H579 C592 0.930 . S
H580 C593 0.930 . S
H581 C597 0.959 1_556 S
H582 C597 0.959 1_556 S
H583 C597 0.961 . S
H584 C598 0.960 . S
H585 C598 0.961 . S
H586 C598 0.959 . S
H587 C601 0.929 1_554 S
H588 C602 0.931 . S
H589 C604 0.930 . S
C590 H578 0.930 . S
C590 C591 1.399 . S
C590 C595 1.399 . S
C591 C590 1.399 . S
C591 C592 1.376 . S
C592 H579 0.930 . S
C592 C591 1.376 . S
C592 C593 1.388 . S
C593 H580 0.930 . S
C593 C592 1.388 . S
C593 C594 1.390 . S
C594 C593 1.390 . S
C594 C595 1.394 . S
C594 C600 1.465 . S
C595 C590 1.399 . S
C595 C594 1.394 . S
C595 C596 1.516 . S
C596 C595 1.516 . S
C596 C597 1.502 . S
C596 C598 1.561 . S
C596 C599 1.526 1_554 S
C597 H581 0.959 1_554 S
C597 H582 0.959 1_554 S
C597 H583 0.961 . S
C597 C596 1.502 . S
C598 H584 0.960 . S
C598 H585 0.961 . S
C598 H586 0.959 . S
C598 C596 1.561 . S
C599 C596 1.526 1_556 S
C599 C600 1.396 1_556 S
C599 C604 1.390 . S
C600 C594 1.465 . S
C600 C599 1.396 1_554 S
C600 C601 1.399 1_554 S
C601 H587 0.929 1_556 S
C601 C600 1.399 1_556 S
C601 C602 1.385 . S
C602 H588 0.931 . S
C602 C601 1.385 . S
C602 C603 1.389 . S
C603 C602 1.389 . S
C603 C604 1.387 . S
C604 H589 0.930 . S
C604 C599 1.390 . S
C604 C603 1.387 . S
H605 C617 0.930 . S
H606 C619 0.930 . S
H607 C620 0.930 . S
H608 C624 0.959 . S
H609 C624 0.959 . S
H610 C624 0.961 . S
H611 C625 0.960 . S
H612 C625 0.953 1_455 S
H613 C625 0.959 . S
H614 C628 0.929 . S
H615 C629 0.931 . S
H616 C631 0.930 . S
C617 H605 0.930 . S
C617 C618 1.399 1_455 S
C617 C622 1.399 . S
C618 C617 1.399 1_655 S
C618 C619 1.376 . S
C619 H606 0.930 . S
C619 C618 1.376 . S
C619 C620 1.388 . S
C620 H607 0.930 . S
C620 C619 1.388 . S
C620 C621 1.390 . S
C621 C620 1.390 . S
C621 C622 1.394 1_655 S
C621 C627 1.465 . S
C622 C617 1.399 . S
C622 C621 1.394 1_455 S
C622 C623 1.516 . S
C623 C622 1.516 . S
C623 C624 1.502 . S
C623 C625 1.561 1_455 S
C623 C626 1.526 . S
C624 H608 0.959 . S
C624 H609 0.959 . S
C624 H610 0.961 . S
C624 C623 1.502 . S
C625 H611 0.960 . S
C625 H612 0.953 1_655 S
C625 H613 0.959 . S
C625 C623 1.561 1_655 S
C626 C623 1.526 . S
C626 C627 1.396 1_455 S
C626 C631 1.390 1_554 S
C627 C621 1.465 . S
C627 C626 1.396 1_655 S
C627 C628 1.399 1_554 S
C628 H614 0.929 . S
C628 C627 1.399 1_556 S
C628 C629 1.385 . S
C629 H615 0.931 . S
C629 C628 1.385 . S
C629 C630 1.389 . S
C630 C629 1.389 . S
C630 C631 1.387 1_655 S
C631 H616 0.930 . S
C631 C626 1.390 1_556 S
C631 C630 1.387 1_455 S
H632 C644 0.930 . S
H633 C646 0.930 . S
H634 C647 0.930 . S
H635 C651 0.959 . S
H636 C651 0.959 . S
H637 C651 0.961 . S
H638 C652 0.960 . S
H639 C652 0.961 . S
H640 C652 0.959 . S
H641 C655 0.929 . S
H642 C656 0.931 . S
H643 C658 0.930 . S
C644 H632 0.930 . S
C644 C645 1.399 . S
C644 C649 1.399 1_455 S
C645 C644 1.399 . S
C645 C646 1.376 1_455 S
C646 H633 0.930 . S
C646 C645 1.376 1_655 S
C646 C647 1.388 . S
C647 H634 0.930 . S
C647 C646 1.388 . S
C647 C648 1.390 . S
C648 C647 1.390 . S
C648 C649 1.394 . S
C648 C654 1.465 . S
C649 C644 1.399 1_655 S
C649 C648 1.394 . S
C649 C650 1.516 . S
C650 C649 1.516 . S
C650 C651 1.502 . S
C650 C652 1.561 1_655 S
C650 C653 1.526 . S
C651 H635 0.959 . S
C651 H636 0.959 . S
C651 H637 0.961 . S
C651 C650 1.502 . S
C652 H638 0.960 . S
C652 H639 0.961 . S
C652 H640 0.959 . S
C652 C650 1.561 1_455 S
C653 C650 1.526 . S
C653 C654 1.396 . S
C653 C658 1.390 . S
C654 C648 1.465 . S
C654 C653 1.396 . S
C654 C655 1.399 . S
C655 H641 0.929 . S
C655 C654 1.399 . S
C655 C656 1.385 . S
C656 H642 0.931 . S
C656 C655 1.385 . S
C656 C657 1.389 . S
C657 C656 1.389 . S
C657 C658 1.387 . S
C658 H643 0.930 . S
C658 C653 1.390 . S
C658 C657 1.387 . S
H659 C671 0.930 . S
H660 C673 0.930 . S
H661 C674 0.930 . S
H662 C678 0.959 . S
H663 C678 0.959 . S
H664 C678 0.961 . S
H665 C679 0.960 . S
H666 C679 0.961 . S
H667 C679 0.925 1_565 S
H668 C682 0.929 . S
H669 C683 0.931 . S
H670 C685 0.930 . S
C671 H659 0.930 . S
C671 C672 1.400 1_545 S
C671 C676 1.399 1_545 S
C672 C671 1.400 1_565 S
C672 C673 1.376 . S
C673 H660 0.930 . S
C673 C672 1.376 . S
C673 C674 1.388 . S
C674 H661 0.930 . S
C674 C673 1.388 . S
C674 C675 1.390 . S
C675 C674 1.390 . S
C675 C676 1.394 . S
C675 C681 1.465 . S
C676 C671 1.399 1_565 S
C676 C675 1.394 . S
C676 C677 1.516 1_565 S
C677 C676 1.516 1_545 S
C677 C678 1.502 . S
C677 C679 1.561 . S
C677 C680 1.526 1_545 S
C678 H662 0.959 . S
C678 H663 0.959 . S
C678 H664 0.961 . S
C678 C677 1.502 . S
C679 H665 0.960 . S
C679 H666 0.961 . S
C679 H667 0.925 1_545 S
C679 C677 1.561 . S
C680 C677 1.526 1_565 S
C680 C681 1.396 . S
C680 C685 1.390 . S
C681 C675 1.465 . S
C681 C680 1.396 . S
C681 C682 1.399 . S
C682 H668 0.929 . S
C682 C681 1.399 . S
C682 C683 1.385 . S
C683 H669 0.931 . S
C683 C682 1.385 . S
C683 C684 1.389 . S
C684 C683 1.389 . S
C684 C685 1.387 . S
C685 H670 0.930 . S
C685 C680 1.390 . S
C685 C684 1.387 . S
H686 C698 0.930 . S
H687 C700 0.930 . S
H688 C701 0.930 . S
H689 C705 0.959 . S
H690 C705 0.959 . S
H691 C705 0.961 . S
H692 C706 0.960 . S
H693 C706 0.961 . S
H694 C706 0.959 . S
H695 C709 0.929 . S
H696 C710 0.931 . S
H697 C712 0.930 . S
C698 H686 0.930 . S
C698 C699 1.399 . S
C698 C703 1.399 . S
C699 C698 1.399 . S
C699 C700 1.376 . S
C700 H687 0.930 . S
C700 C699 1.376 . S
C700 C701 1.388 . S
C701 H688 0.930 . S
C701 C700 1.388 . S
C701 C702 1.390 . S
C702 C701 1.390 . S
C702 C703 1.394 . S
C702 C708 1.465 . S
C703 C698 1.399 . S
C703 C702 1.394 . S
C703 C704 1.516 . S
C704 C703 1.516 . S
C704 C705 1.502 . S
C704 C706 1.561 . S
C704 C707 1.526 . S
C705 H689 0.959 . S
C705 H690 0.959 . S
C705 H691 0.961 . S
C705 C704 1.502 . S
C706 H692 0.960 . S
C706 H693 0.961 . S
C706 H694 0.959 . S
C706 C704 1.561 . S
C707 C704 1.526 . S
C707 C708 1.396 . S
C707 C712 1.390 . S
C708 C702 1.465 . S
C708 C707 1.396 . S
C708 C709 1.399 . S
C709 H695 0.929 . S
C709 C708 1.399 . S
C709 C710 1.385 . S
C710 H696 0.931 . S
C710 C709 1.385 . S
C710 C711 1.389 . S
C711 C710 1.389 . S
C711 C712 1.387 . S
C712 H697 0.930 . S
C712 C707 1.390 . S
C712 C711 1.387 . S
H713 C725 0.930 . S
H714 C727 0.930 . S
H715 C728 0.930 . S
H716 C732 0.959 . S
H717 C732 0.959 . S
H718 C732 0.961 . S
H719 C733 0.960 . S
H720 C733 0.961 . S
H721 C733 0.959 . S
H722 C736 0.929 . S
H723 C737 0.931 . S
H724 C739 0.930 . S
C725 H713 0.930 . S
C725 C726 1.399 . S
C725 C730 1.399 . S
C726 C725 1.399 . S
C726 C727 1.376 . S
C727 H714 0.930 . S
C727 C726 1.376 . S
C727 C728 1.388 . S
C728 H715 0.930 . S
C728 C727 1.388 . S
C728 C729 1.390 . S
C729 C728 1.390 . S
C729 C730 1.394 . S
C729 C735 1.465 . S
C730 C725 1.399 . S
C730 C729 1.394 . S
C730 C731 1.516 . S
C731 C730 1.516 . S
C731 C732 1.502 . S
C731 C733 1.561 . S
C731 C734 1.526 . S
C732 H716 0.959 . S
C732 H717 0.959 . S
C732 H718 0.961 . S
C732 C731 1.502 . S
C733 H719 0.960 . S
C733 H720 0.961 . S
C733 H721 0.959 . S
C733 C731 1.561 . S
C734 C731 1.526 . S
C734 C735 1.396 . S
C734 C739 1.390 . S
C735 C729 1.465 . S
C735 C734 1.396 . S
C735 C736 1.399 . S
C736 H722 0.929 . S
C736 C735 1.399 . S
C736 C737 1.385 . S
C737 H723 0.931 . S
C737 C736 1.385 . S
C737 C738 1.389 . S
C738 C737 1.389 . S
C738 C739 1.387 . S
C739 H724 0.930 . S
C739 C734 1.390 . S
C739 C738 1.387 . S
H740 C752 0.930 . S
H741 C754 0.930 . S
H742 C755 0.930 . S
H743 C759 0.959 . S
H744 C759 0.959 1_556 S
H745 C759 0.961 . S
H746 C760 0.960 . S
H747 C760 0.961 . S
H748 C760 0.959 . S
H749 C763 0.929 1_655 S
H750 C764 0.931 . S
H751 C766 0.930 . S
C752 H740 0.930 . S
C752 C753 1.399 1_455 S
C752 C757 1.399 . S
C753 C752 1.399 1_655 S
C753 C754 1.376 . S
C754 H741 0.930 . S
C754 C753 1.376 . S
C754 C755 1.388 . S
C755 H742 0.930 . S
C755 C754 1.388 . S
C755 C756 1.390 1_655 S
C756 C755 1.390 1_455 S
C756 C757 1.394 . S
C756 C762 1.465 . S
C757 C752 1.399 . S
C757 C756 1.394 . S
C757 C758 1.516 . S
C758 C757 1.516 . S
C758 C759 1.502 . S
C758 C760 1.561 1_554 S
C758 C761 1.526 . S
C759 H743 0.959 . S
C759 H744 0.959 1_554 S
C759 H745 0.961 . S
C759 C758 1.502 . S
C760 H746 0.960 . S
C760 H747 0.961 . S
C760 H748 0.959 . S
C760 C758 1.561 1_556 S
C761 C758 1.526 . S
C761 C762 1.396 . S
C761 C766 1.390 1_554 S
C762 C756 1.465 . S
C762 C761 1.396 . S
C762 C763 1.399 . S
C763 H749 0.929 1_455 S
C763 C762 1.399 . S
C763 C764 1.385 . S
C764 H750 0.931 . S
C764 C763 1.385 . S
C764 C765 1.389 1_554 S
C765 C764 1.389 1_556 S
C765 C766 1.387 . S
C766 H751 0.930 . S
C766 C761 1.390 1_556 S
C766 C765 1.387 . S
H767 C779 0.930 . S
H768 C781 0.930 . S
H769 C782 0.930 . S
H770 C786 0.959 . S
H771 C786 0.959 . S
H772 C786 0.961 . S
H773 C787 0.960 . S
H774 C787 0.961 . S
H775 C787 0.959 . S
H776 C790 0.929 1_565 S
H777 C791 0.931 . S
H778 C793 0.930 . S
C779 H767 0.930 . S
C779 C780 1.399 1_545 S
C779 C784 1.399 . S
C780 C779 1.399 1_565 S
C780 C781 1.376 . S
C781 H768 0.930 . S
C781 C780 1.376 . S
C781 C782 1.388 . S
C782 H769 0.930 . S
C782 C781 1.388 . S
C782 C783 1.390 1_565 S
C783 C782 1.390 1_545 S
C783 C784 1.394 . S
C783 C789 1.465 . S
C784 C779 1.399 . S
C784 C783 1.394 . S
C784 C785 1.516 . S
C785 C784 1.516 . S
C785 C786 1.502 . S
C785 C787 1.561 . S
C785 C788 1.526 . S
C786 H770 0.959 . S
C786 H771 0.959 . S
C786 H772 0.961 . S
C786 C785 1.502 . S
C787 H773 0.960 . S
C787 H774 0.961 . S
C787 H775 0.959 . S
C787 C785 1.561 . S
C788 C785 1.526 . S
C788 C789 1.396 . S
C788 C793 1.390 . S
C789 C783 1.465 . S
C789 C788 1.396 . S
C789 C790 1.399 1_554 S
C790 H776 0.929 1_545 S
C790 C789 1.399 1_556 S
C790 C791 1.385 . S
C791 H777 0.931 . S
C791 C790 1.385 . S
C791 C792 1.389 . S
C792 C791 1.389 . S
C792 C793 1.387 1_556 S
C793 H778 0.930 . S
C793 C788 1.390 . S
C793 C792 1.387 1_554 S
H794 C806 0.930 . S
H795 C808 0.930 . S
H796 C809 0.930 . S
H797 C813 0.959 . S
H798 C813 0.959 . S
H799 C813 0.961 . S
H800 C814 0.960 . S
H801 C814 0.961 . S
H802 C814 0.959 . S
H803 C817 0.929 1_556 S
H804 C818 0.931 . S
H805 C820 0.930 . S
C806 H794 0.930 . S
C806 C807 1.399 . S
C806 C811 1.399 . S
C807 C806 1.399 . S
C807 C808 1.376 . S
C808 H795 0.930 . S
C808 C807 1.376 . S
C808 C809 1.388 . S
C809 H796 0.930 . S
C809 C808 1.388 . S
C809 C810 1.390 . S
C810 C809 1.390 . S
C810 C811 1.394 . S
C810 C816 1.465 . S
C811 C806 1.399 . S
C811 C810 1.394 . S
C811 C812 1.516 . S
C812 C811 1.516 . S
C812 C813 1.502 . S
C812 C814 1.561 . S
C812 C815 1.526 . S
C813 H797 0.959 . S
C813 H798 0.959 . S
C813 H799 0.961 . S
C813 C812 1.502 . S
C814 H800 0.960 . S
C814 H801 0.961 . S
C814 H802 0.959 . S
C814 C812 1.561 . S
C815 C812 1.526 . S
C815 C816 1.396 . S
C815 C820 1.390 . S
C816 C810 1.465 . S
C816 C815 1.396 . S
C816 C817 1.399 . S
C817 H803 0.929 1_554 S
C817 C816 1.399 . S
C817 C818 1.385 1_554 S
C818 H804 0.931 . S
C818 C817 1.385 1_556 S
C818 C819 1.389 . S
C819 C818 1.389 . S
C819 C820 1.387 1_556 S
C820 H805 0.930 . S
C820 C815 1.390 . S
C820 C819 1.387 1_554 S
H821 C833 0.930 . S
H822 C835 0.930 . S
H823 C836 0.930 1_556 S
H824 C840 0.959 . S
H825 C840 0.959 . S
H826 C840 0.961 . S
H827 C841 0.960 . S
H828 C841 0.961 . S
H829 C841 0.959 . S
H830 C844 0.929 . S
H831 C845 0.931 . S
H832 C847 0.930 . S
C833 H821 0.930 . S
C833 C834 1.399 . S
C833 C838 1.399 . S
C834 C833 1.399 . S
C834 C835 1.376 . S
C835 H822 0.930 . S
C835 C834 1.376 . S
C835 C836 1.388 . S
C836 H823 0.930 1_554 S
C836 C835 1.388 . S
C836 C837 1.390 . S
C837 C836 1.390 . S
C837 C838 1.394 . S
C837 C843 1.465 . S
C838 C833 1.399 . S
C838 C837 1.394 . S
C838 C839 1.516 . S
C839 C838 1.516 . S
C839 C840 1.502 . S
C839 C841 1.561 . S
C839 C842 1.526 . S
C840 H824 0.959 . S
C840 H825 0.959 . S
C840 H826 0.961 . S
C840 C839 1.502 . S
C841 H827 0.960 . S
C841 H828 0.961 . S
C841 H829 0.959 . S
C841 C839 1.561 . S
C842 C839 1.526 . S
C842 C843 1.396 . S
C842 C847 1.390 . S
C843 C837 1.465 . S
C843 C842 1.396 . S
C843 C844 1.399 1_554 S
C844 H830 0.929 . S
C844 C843 1.399 1_556 S
C844 C845 1.385 . S
C845 H831 0.931 . S
C845 C844 1.385 . S
C845 C846 1.389 . S
C846 C845 1.389 . S
C846 C847 1.387 1_556 S
C847 H832 0.930 . S
C847 C842 1.390 . S
C847 C846 1.387 1_554 S
H848 C860 0.930 . S
H849 C862 0.930 . S
H850 C863 0.930 . S
H851 C867 0.959 . S
H852 C867 0.959 . S
H853 C867 0.961 . S
H854 C868 0.960 . S
H855 C868 0.961 . S
H856 C868 0.959 . S
H857 C871 0.929 . S
H858 C872 0.926 1_655 S
H859 C874 0.930 . S
C860 H848 0.930 . S
C860 C861 1.411 . S
C860 C865 1.399 . S
C861 C860 1.411 . S
C861 C862 1.364 1_455 S
C862 H849 0.930 . S
C862 C861 1.364 1_655 S
C862 C863 1.388 . S
C863 H850 0.930 . S
C863 C862 1.388 . S
C863 C864 1.403 . S
C864 C863 1.403 . S
C864 C865 1.381 1_655 S
C864 C870 1.462 1_655 S
C865 C860 1.399 . S
C865 C864 1.381 1_455 S
C865 C866 1.516 . S
C866 C865 1.516 . S
C866 C867 1.502 . S
C866 C868 1.561 1_455 S
C866 C869 1.526 . S
C867 H851 0.959 . S
C867 H852 0.959 . S
C867 H853 0.961 . S
C867 C866 1.502 . S
C868 H854 0.960 . S
C868 H855 0.961 . S
C868 H856 0.959 . S
C868 C866 1.561 1_655 S
C869 C866 1.526 . S
C869 C870 1.396 . S
C869 C874 1.390 . S
C870 C864 1.462 1_455 S
C870 C869 1.396 . S
C870 C871 1.399 1_455 S
C871 H857 0.929 . S
C871 C870 1.399 1_655 S
C871 C872 1.380 1_655 S
C872 H858 0.926 1_455 S
C872 C871 1.380 1_455 S
C872 C873 1.400 . S
C873 C872 1.400 . S
C873 C874 1.387 . S
C874 H859 0.930 . S
C874 C869 1.390 . S
C874 C873 1.387 . S
H875 C887 0.931 . S
H876 C889 0.930 . S
H877 C890 0.930 . S
H878 C894 0.959 . S
H879 C894 0.959 . S
H880 C894 0.961 . S
H881 C895 0.960 . S
H882 C895 0.961 . S
H883 C895 0.959 . S
H884 C898 0.929 . S
H885 C899 0.931 . S
H886 C901 0.930 . S
C887 H875 0.931 . S
C887 C888 1.399 . S
C887 C892 1.399 . S
C888 C887 1.399 . S
C888 C889 1.376 . S
C889 H876 0.930 . S
C889 C888 1.376 . S
C889 C890 1.388 . S
C890 H877 0.930 . S
C890 C889 1.388 . S
C890 C891 1.390 . S
C891 C890 1.390 . S
C891 C892 1.394 . S
C891 C897 1.465 . S
C892 C887 1.399 . S
C892 C891 1.394 . S
C892 C893 1.516 . S
C893 C892 1.516 . S
C893 C894 1.502 1_545 S
C893 C895 1.561 . S
C893 C896 1.526 . S
C894 H878 0.959 . S
C894 H879 0.959 . S
C894 H880 0.961 . S
C894 C893 1.502 1_565 S
C895 H881 0.960 . S
C895 H882 0.961 . S
C895 H883 0.959 . S
C895 C893 1.561 . S
C896 C893 1.526 . S
C896 C897 1.396 . S
C896 C901 1.390 . S
C897 C891 1.465 . S
C897 C896 1.396 . S
C897 C898 1.399 . S
C898 H884 0.929 . S
C898 C897 1.399 . S
C898 C899 1.385 . S
C899 H885 0.931 . S
C899 C898 1.385 . S
C899 C900 1.389 . S
C900 C899 1.389 . S
C900 C901 1.387 . S
C901 H886 0.930 . S
C901 C896 1.390 . S
C901 C900 1.387 . S
H902 C914 0.930 . S
H903 C916 0.930 . S
H904 C917 0.930 . S
H905 C921 0.959 . S
H906 C921 0.959 . S
H907 C921 0.961 . S
H908 C922 0.960 . S
H909 C922 0.961 . S
H910 C922 0.959 . S
H911 C925 0.929 . S
H912 C926 0.931 . S
H913 C928 0.930 . S
C914 H902 0.930 . S
C914 C915 1.399 . S
C914 C919 1.399 . S
C915 C914 1.399 . S
C915 C916 1.376 . S
C916 H903 0.930 . S
C916 C915 1.376 . S
C916 C917 1.388 . S
C917 H904 0.930 . S
C917 C916 1.388 . S
C917 C918 1.390 . S
C918 C917 1.390 . S
C918 C919 1.394 . S
C918 C924 1.465 . S
C919 C914 1.399 . S
C919 C918 1.394 . S
C919 C920 1.516 . S
C920 C919 1.516 . S
C920 C921 1.502 . S
C920 C922 1.561 . S
C920 C923 1.526 . S
C921 H905 0.959 . S
C921 H906 0.959 . S
C921 H907 0.961 . S
C921 C920 1.502 . S
C922 H908 0.960 . S
C922 H909 0.961 . S
C922 H910 0.959 . S
C922 C920 1.561 . S
C923 C920 1.526 . S
C923 C924 1.396 . S
C923 C928 1.390 . S
C924 C918 1.465 . S
C924 C923 1.396 . S
C924 C925 1.399 . S
C925 H911 0.929 . S
C925 C924 1.399 . S
C925 C926 1.385 . S
C926 H912 0.931 . S
C926 C925 1.385 . S
C926 C927 1.389 . S
C927 C926 1.389 . S
C927 C928 1.387 . S
C928 H913 0.930 . S
C928 C923 1.390 . S
C928 C927 1.387 . S
H929 C941 0.930 . S
H930 C943 0.930 . S
H931 C944 0.930 . S
H932 C948 0.959 . S
H933 C948 0.959 . S
H934 C948 0.961 . S
H935 C949 0.960 . S
H936 C949 0.961 . S
H937 C949 0.959 . S
H938 C952 0.929 . S
H939 C953 0.931 . S
H940 C955 0.930 . S
C941 H929 0.930 . S
C941 C942 1.399 . S
C941 C946 1.399 . S
C942 C941 1.399 . S
C942 C943 1.376 . S
C943 H930 0.930 . S
C943 C942 1.376 . S
C943 C944 1.388 . S
C944 H931 0.930 . S
C944 C943 1.388 . S
C944 C945 1.390 . S
C945 C944 1.390 . S
C945 C946 1.394 . S
C945 C951 1.465 . S
C946 C941 1.399 . S
C946 C945 1.394 . S
C946 C947 1.516 . S
C947 C946 1.516 . S
C947 C948 1.502 . S
C947 C949 1.561 . S
C947 C950 1.526 . S
C948 H932 0.959 . S
C948 H933 0.959 . S
C948 H934 0.961 . S
C948 C947 1.502 . S
C949 H935 0.960 . S
C949 H936 0.961 . S
C949 H937 0.959 . S
C949 C947 1.561 . S
C950 C947 1.526 . S
C950 C951 1.396 . S
C950 C955 1.390 . S
C951 C945 1.465 . S
C951 C950 1.396 . S
C951 C952 1.399 . S
C952 H938 0.929 . S
C952 C951 1.399 . S
C952 C953 1.385 . S
C953 H939 0.931 . S
C953 C952 1.385 . S
C953 C954 1.389 . S
C954 C953 1.389 . S
C954 C955 1.387 . S
C955 H940 0.930 . S
C955 C950 1.390 . S
C955 C954 1.387 . S
H956 C968 0.930 . S
H957 C970 0.930 . S
H958 C971 0.930 . S
H959 C975 0.959 . S
H960 C975 0.959 . S
H961 C975 0.961 . S
H962 C976 0.960 . S
H963 C976 0.961 1_655 S
H964 C976 0.959 . S
H965 C979 0.929 . S
H966 C980 0.944 . S
H967 C982 0.930 . S
C968 H956 0.930 . S
C968 C969 1.411 . S
C968 C973 1.399 . S
C969 C968 1.411 . S
C969 C970 1.364 1_655 S
C970 H957 0.930 . S
C970 C969 1.364 1_455 S
C970 C971 1.388 . S
C971 H958 0.930 . S
C971 C970 1.388 . S
C971 C972 1.390 . S
C972 C971 1.390 . S
C972 C973 1.394 1_455 S
C972 C978 1.463 1_455 S
C973 C968 1.399 . S
C973 C972 1.394 1_655 S
C973 C974 1.516 . S
C974 C973 1.516 . S
C974 C975 1.502 . S
C974 C976 1.561 1_655 S
C974 C977 1.526 . S
C975 H959 0.959 . S
C975 H960 0.959 . S
C975 H961 0.961 . S
C975 C974 1.502 . S
C976 H962 0.960 . S
C976 H963 0.961 1_455 S
C976 H964 0.959 . S
C976 C974 1.561 1_455 S
C977 C974 1.526 . S
C977 C978 1.408 . S
C977 C982 1.390 . S
C978 C972 1.463 1_655 S
C978 C977 1.408 . S
C978 C979 1.392 1_655 S
C979 H965 0.929 . S
C979 C978 1.392 1_455 S
C979 C980 1.396 . S
C980 H966 0.944 . S
C980 C979 1.396 . S
C980 C981 1.369 1_455 S
C981 C980 1.369 1_655 S
C981 C982 1.387 . S
C982 H967 0.930 . S
C982 C977 1.390 . S
C982 C981 1.387 . S
H983 C995 0.930 . S
H984 C997 0.930 . S
H985 C998 0.930 . S
H986 C1002 0.959 . S
H987 C1002 0.959 . S
H988 C1002 0.961 . S
H989 C1003 0.960 . S
H990 C1003 0.961 . S
H991 C1003 0.959 . S
H992 C1006 0.924 1_545 S
H993 C1007 0.931 . S
H994 C1009 0.930 . S
C995 H983 0.930 . S
C995 C996 1.409 . S
C995 C1000 1.399 . S
C996 C995 1.409 . S
C996 C997 1.367 1_565 S
C997 H984 0.930 . S
C997 C996 1.367 1_545 S
C997 C998 1.388 . S
C998 H985 0.930 . S
C998 C997 1.388 . S
C998 C999 1.383 1_545 S
C999 C998 1.383 1_565 S
C999 C1000 1.401 . S
C999 C1005 1.469 . S
C1000 C995 1.399 . S
C1000 C999 1.401 . S
C1000 C1001 1.516 . S
C1001 C1000 1.516 . S
C1001 C1002 1.502 . S
C1001 C1003 1.561 1_565 S
C1001 C1004 1.526 . S
C1002 H986 0.959 . S
C1002 H987 0.959 . S
C1002 H988 0.961 . S
C1002 C1001 1.502 . S
C1003 H989 0.960 . S
C1003 H990 0.961 . S
C1003 H991 0.959 . S
C1003 C1001 1.561 1_545 S
C1004 C1001 1.526 . S
C1004 C1005 1.396 . S
C1004 C1009 1.390 . S
C1005 C999 1.469 . S
C1005 C1004 1.396 . S
C1005 C1006 1.401 . S
C1006 H992 0.924 1_565 S
C1006 C1005 1.401 . S
C1006 C1007 1.389 . S
C1007 H993 0.931 . S
C1007 C1006 1.389 . S
C1007 C1008 1.389 . S
C1008 C1007 1.389 . S
C1008 C1009 1.387 . S
C1009 H994 0.930 . S
C1009 C1004 1.390 . S
C1009 C1008 1.387 . S
H1010 C1022 0.930 . S
H1011 C1024 0.930 . S
H1012 C1025 0.930 . S
H1013 C1029 0.959 . S
H1014 C1029 0.959 . S
H1015 C1029 0.961 . S
H1016 C1030 0.960 . S
H1017 C1030 0.961 . S
H1018 C1030 0.959 . S
H1019 C1033 0.929 . S
H1020 C1034 0.931 . S
H1021 C1036 0.930 . S
C1022 H1010 0.930 . S
C1022 C1023 1.399 . S
C1022 C1027 1.399 . S
C1023 C1022 1.399 . S
C1023 C1024 1.376 . S
C1024 H1011 0.930 . S
C1024 C1023 1.376 . S
C1024 C1025 1.388 . S
C1025 H1012 0.930 . S
C1025 C1024 1.388 . S
C1025 C1026 1.390 . S
C1026 C1025 1.390 . S
C1026 C1027 1.394 . S
C1026 C1032 1.465 . S
C1027 C1022 1.399 . S
C1027 C1026 1.394 . S
C1027 C1028 1.516 . S
C1028 C1027 1.516 . S
C1028 C1029 1.502 . S
C1028 C1030 1.561 . S
C1028 C1031 1.526 . S
C1029 H1013 0.959 . S
C1029 H1014 0.959 . S
C1029 H1015 0.961 . S
C1029 C1028 1.502 . S
C1030 H1016 0.960 . S
C1030 H1017 0.961 . S
C1030 H1018 0.959 . S
C1030 C1028 1.561 . S
C1031 C1028 1.526 . S
C1031 C1032 1.396 . S
C1031 C1036 1.390 . S
C1032 C1026 1.465 . S
C1032 C1031 1.396 . S
C1032 C1033 1.399 . S
C1033 H1019 0.929 . S
C1033 C1032 1.399 . S
C1033 C1034 1.385 . S
C1034 H1020 0.931 . S
C1034 C1033 1.385 . S
C1034 C1035 1.389 . S
C1035 C1034 1.389 . S
C1035 C1036 1.387 . S
C1036 H1021 0.930 . S
C1036 C1031 1.390 . S
C1036 C1035 1.387 . S
H1037 C1049 0.930 . S
H1038 C1051 0.930 . S
H1039 C1052 0.930 . S
H1040 C1056 0.959 . S
H1041 C1056 0.959 . S
H1042 C1056 0.961 . S
H1043 C1057 0.960 . S
H1044 C1057 0.961 . S
H1045 C1057 0.959 . S
H1046 C1060 0.929 . S
H1047 C1061 0.931 . S
H1048 C1063 0.930 . S
C1049 H1037 0.930 . S
C1049 C1050 1.399 . S
C1049 C1054 1.399 . S
C1050 C1049 1.399 . S
C1050 C1051 1.376 . S
C1051 H1038 0.930 . S
C1051 C1050 1.376 . S
C1051 C1052 1.388 . S
C1052 H1039 0.930 . S
C1052 C1051 1.388 . S
C1052 C1053 1.390 . S
C1053 C1052 1.390 . S
C1053 C1054 1.394 . S
C1053 C1059 1.465 . S
C1054 C1049 1.399 . S
C1054 C1053 1.394 . S
C1054 C1055 1.516 . S
C1055 C1054 1.516 . S
C1055 C1056 1.502 . S
C1055 C1057 1.561 . S
C1055 C1058 1.526 . S
C1056 H1040 0.959 . S
C1056 H1041 0.959 . S
C1056 H1042 0.961 . S
C1056 C1055 1.502 . S
C1057 H1043 0.960 . S
C1057 H1044 0.961 . S
C1057 H1045 0.959 . S
C1057 C1055 1.561 . S
C1058 C1055 1.526 . S
C1058 C1059 1.396 . S
C1058 C1063 1.390 . S
C1059 C1053 1.465 . S
C1059 C1058 1.396 . S
C1059 C1060 1.399 . S
C1060 H1046 0.929 . S
C1060 C1059 1.399 . S
C1060 C1061 1.385 . S
C1061 H1047 0.931 . S
C1061 C1060 1.385 . S
C1061 C1062 1.389 . S
C1062 C1061 1.389 . S
C1062 C1063 1.387 . S
C1063 H1048 0.930 . S
C1063 C1058 1.390 . S
C1063 C1062 1.387 . S
C429 C215 1.957 . S
C441 C265 2.174 1_545 S
C468 C305 2.176 . S
C456 C247 2.028 . S
C495 C345 2.172 . S
C483 C151 2.050 . S
C522 C385 2.166 . S
C510 C183 2.002 1_655 S
C549 C274 2.160 . S
C537 C87 1.963 . S
C564 C119 2.016 . S
C576 C314 2.190 . S
C591 C23 2.062 . S
C603 C354 2.191 . S
C618 C55 2.002 1_655 S
C630 C394 2.176 1_655 S
C657 C271 0.509 . S
C645 C189 0.454 . S
C684 C311 0.589 . S
C672 C221 0.448 1_565 S
C711 C351 0.454 . S
C699 C253 0.447 . S
C726 C157 0.366 . S
C738 C391 0.353 . S
C753 C61 0.669 1_655 S
C765 C262 0.393 . S
C792 C302 0.415 . S
C780 C93 0.640 1_565 S
C819 C342 0.569 . S
C807 C125 0.428 . S
C834 C29 0.604 . S
C846 C382 0.445 . S
C861 C177 2.543 . S
C873 C275 2.805 . S
C888 C209 2.437 . S
C900 C315 2.801 . S
C927 C355 2.773 . S
C915 C241 2.498 . S
C954 C395 2.825 . S
C942 C145 2.468 . S
C969 C49 2.493 1_655 S
C981 C266 2.820 . S
C1008 C306 2.792 . S
C996 C81 2.462 1_565 S
C1035 C346 2.779 . S
C1023 C113 2.469 . S
C1050 C17 2.560 . S
C1062 C386 2.821 . S
