# Generated by pormake.
# Topology nom, (4,4)-cn, num edge types: 1
# Building blocks:
#     Node 0, Type 0, BuildingBlock: KUFVIS_clean_linker_0, # of connection points: 4
#     Node 1, Type 0, BuildingBlock: KUFVIS_clean_linker_0, # of connection points: 4
#     Node 2, Type 0, BuildingBlock: KUFVIS_clean_linker_0, # of connection points: 4
#     Node 3, Type 0, BuildingBlock: KUFVIS_clean_linker_0, # of connection points: 4
#     Node 4, Type 0, BuildingBlock: KUFVIS_clean_linker_0, # of connection points: 4
#     Node 5, Type 0, BuildingBlock: KUFVIS_clean_linker_0, # of connection points: 4
#     Node 6, Type 1, BuildingBlock: AZAVOO_clean_sbu_0, # of connection points: 4
#     Node 7, Type 1, BuildingBlock: AZAVOO_clean_sbu_0, # of connection points: 4
#     Node 8, Type 1, BuildingBlock: AZAVOO_clean_sbu_0, # of connection points: 4
#     Node 9, Type 1, BuildingBlock: AZAVOO_clean_sbu_0, # of connection points: 4
#     Node 10, Type 1, BuildingBlock: AZAVOO_clean_sbu_0, # of connection points: 4
#     Node 11, Type 1, BuildingBlock: AZAVOO_clean_sbu_0, # of connection points: 4
#     Edge 12, Type (0, 1), BuildingBlock: MIFKUJ_clean_linker_0, # of connection points: 2
#     Edge 13, Type (0, 1), BuildingBlock: MIFKUJ_clean_linker_0, # of connection points: 2
#     Edge 14, Type (0, 1), BuildingBlock: MIFKUJ_clean_linker_0, # of connection points: 2
#     Edge 15, Type (0, 1), BuildingBlock: MIFKUJ_clean_linker_0, # of connection points: 2
#     Edge 16, Type (0, 1), BuildingBlock: MIFKUJ_clean_linker_0, # of connection points: 2
#     Edge 17, Type (0, 1), BuildingBlock: MIFKUJ_clean_linker_0, # of connection points: 2
#     Edge 18, Type (0, 1), BuildingBlock: MIFKUJ_clean_linker_0, # of connection points: 2
#     Edge 19, Type (0, 1), BuildingBlock: MIFKUJ_clean_linker_0, # of connection points: 2
#     Edge 20, Type (0, 1), BuildingBlock: MIFKUJ_clean_linker_0, # of connection points: 2
#     Edge 21, Type (0, 1), BuildingBlock: MIFKUJ_clean_linker_0, # of connection points: 2
#     Edge 22, Type (0, 1), BuildingBlock: MIFKUJ_clean_linker_0, # of connection points: 2
#     Edge 23, Type (0, 1), BuildingBlock: MIFKUJ_clean_linker_0, # of connection points: 2
#     Edge 24, Type (0, 1), BuildingBlock: MIFKUJ_clean_linker_0, # of connection points: 2
#     Edge 25, Type (0, 1), BuildingBlock: MIFKUJ_clean_linker_0, # of connection points: 2
#     Edge 26, Type (0, 1), BuildingBlock: MIFKUJ_clean_linker_0, # of connection points: 2
#     Edge 27, Type (0, 1), BuildingBlock: MIFKUJ_clean_linker_0, # of connection points: 2
#     Edge 28, Type (0, 1), BuildingBlock: MIFKUJ_clean_linker_0, # of connection points: 2
#     Edge 29, Type (0, 1), BuildingBlock: MIFKUJ_clean_linker_0, # of connection points: 2
#     Edge 30, Type (0, 1), BuildingBlock: MIFKUJ_clean_linker_0, # of connection points: 2
#     Edge 31, Type (0, 1), BuildingBlock: MIFKUJ_clean_linker_0, # of connection points: 2
#     Edge 32, Type (0, 1), BuildingBlock: MIFKUJ_clean_linker_0, # of connection points: 2
#     Edge 33, Type (0, 1), BuildingBlock: MIFKUJ_clean_linker_0, # of connection points: 2
#     Edge 34, Type (0, 1), BuildingBlock: MIFKUJ_clean_linker_0, # of connection points: 2
#     Edge 35, Type (0, 1), BuildingBlock: MIFKUJ_clean_linker_0, # of connection points: 2
# Relax obj value: 0.031
# Max RMSD: 0.157
# Mean RMSD: 0.093
data_MOF--net-nom--node1-AZAVOO_clean_sbu_0--node2-KUFVIS_clean_linker_0--edge1-MIFKUJ_clean_linker_0
_symmetry_space_group_name_H-M    P1
_symmetry_Int_Tables_number       1
_symmetry_cell_setting            triclinic
loop_
_symmetry_equiv_pos_as_xyz
'x, y, z'
_cell_length_a     59.577853
_cell_length_b     60.109611
_cell_length_c     57.637619
_cell_angle_alpha  91.103348
_cell_angle_beta   90.97683
_cell_angle_gamma 119.96953
loop_
_atom_site_label
_atom_site_type_symbol
_atom_site_fract_x
_atom_site_fract_y
_atom_site_fract_z
_atom_type_partial_charge
H0 H 0.09701 0.56037 0.34132 0.0
H1 H 0.03771 0.55203 0.293 0.0
H2 H 0.01835 0.522 0.36223 0.0
H3 H 0.98495 0.52773 0.35644 0.0
H4 H 0.92264 0.50074 0.30615 0.0
H5 H 0.99799 0.51893 0.28383 0.0
C6 C 0.0766 0.5528 0.33698 0.0
C7 C 0.05844 0.5411 0.35406 0.0
C8 C 0.06917 0.55646 0.31494 0.0
C9 C 0.04294 0.54802 0.30984 0.0
C10 C 0.02383 0.53487 0.32652 0.0
C11 C 0.03209 0.53171 0.34882 0.0
C12 C 0.99562 0.52512 0.32087 0.0
C13 C 0.97829 0.52254 0.33854 0.0
C14 C 0.95206 0.51365 0.33319 0.0
C15 C 0.94304 0.50795 0.31012 0.0
C16 C 0.95953 0.5101 0.29227 0.0
C17 C 0.98565 0.51817 0.29772 0.0
H18 H 0.53667 0.10082 0.50748 0.0
H19 H 0.48909 0.0422 0.45669 0.0
H20 H 0.50979 0.02223 0.52247 0.0
H21 H 0.47148 0.98594 0.51604 0.0
H22 H 0.44466 0.92779 0.46203 0.0
H23 H 0.4898 0.00671 0.44424 0.0
C24 C 0.52553 0.08065 0.50219 0.0
C25 C 0.5241 0.06224 0.51739 0.0
C26 C 0.51306 0.07358 0.48034 0.0
C27 C 0.49904 0.04743 0.47349 0.0
C28 C 0.49736 0.02828 0.48853 0.0
C29 C 0.51008 0.03613 0.51064 0.0
C30 C 0.48259 1.00032 0.48116 0.0
C31 C 0.47064 0.98098 0.49778 0.0
C32 C 0.45754 0.9549 0.49083 0.0
C33 C 0.4551 0.94799 0.46732 0.0
C34 C 0.46614 0.96657 0.45053 0.0
C35 C 0.48046 0.99264 0.45743 0.0
H36 H 0.5523 0.4529 0.62116 0.0
H37 H 0.51108 0.47464 0.66796 0.0
H38 H 0.52674 0.50438 0.59861 0.0
H39 H 0.48916 0.50485 0.60409 0.0
H40 H 0.47682 0.55283 0.65188 0.0
H41 H 0.51662 0.51433 0.67572 0.0
C42 C 0.5427 0.46387 0.62466 0.0
C43 C 0.54024 0.47842 0.60721 0.0
C44 C 0.53252 0.46275 0.64651 0.0
C45 C 0.51929 0.47613 0.65105 0.0
C46 C 0.51703 0.49153 0.63392 0.0
C47 C 0.52756 0.49234 0.61193 0.0
C48 C 0.50483 0.5076 0.63913 0.0
C49 C 0.49187 0.51329 0.62141 0.0
C50 C 0.48235 0.53002 0.62596 0.0
C51 C 0.48492 0.54051 0.64833 0.0
C52 C 0.49667 0.5344 0.66638 0.0
C53 C 0.50676 0.51813 0.66174 0.0
H54 H 0.10288 0.56371 0.79847 0.0
H55 H 0.04444 0.52228 0.84776 0.0
H56 H 0.02305 0.52736 0.77657 0.0
H57 H 0.98744 0.49056 0.78461 0.0
H58 H 0.92827 0.47746 0.8325 0.0
H59 H 0.00789 0.52318 0.85474 0.0
C60 C 0.08253 0.55263 0.80257 0.0
C61 C 0.06361 0.54585 0.78499 0.0
C62 C 0.07566 0.54431 0.82516 0.0
C63 C 0.04938 0.5291 0.83031 0.0
C64 C 0.02978 0.52304 0.81304 0.0
C65 C 0.03735 0.5314 0.79026 0.0
C66 C 1.00163 0.50906 0.8188 0.0
C67 C 0.98227 0.49392 0.80171 0.0
C68 C 0.95592 0.48321 0.8065 0.0
C69 C 0.9487 0.48648 0.82866 0.0
C70 C 0.96737 0.50021 0.84619 0.0
C71 C 0.99375 0.5117 0.8412 0.0
H72 H 0.465 0.93021 0.01698 0.0
H73 H 0.51095 0.98276 0.96515 0.0
H74 H 0.50106 0.01104 0.03172 0.0
H75 H 0.5411 0.04432 0.02327 0.0
H76 H 0.55936 0.09834 0.96933 0.0
H77 H 0.50875 0.01815 0.95361 0.0
C78 C 0.47654 0.94976 0.01122 0.0
C79 C 0.48214 0.9702 0.02663 0.0
C80 C 0.48674 0.9541 0.98904 0.0
C81 C 0.50269 0.97951 0.98219 0.0
C82 C 0.50777 1.00053 0.99726 0.0
C83 C 0.49754 0.99549 0.01969 0.0
C84 C 0.52294 0.02757 0.98947 0.0
C85 C 0.53868 0.04803 0.00536 0.0
C86 C 0.55164 0.0735 -0.0019 0.0
C87 C 0.54917 0.07865 0.97497 0.0
C88 C 0.53398 0.05869 0.95897 0.0
C89 C 0.52096 0.03326 0.96615 0.0
H90 H 0.48112 0.57841 0.12994 0.0
H91 H 0.51348 0.54725 0.17746 0.0
H92 H 0.50676 0.52767 0.10401 0.0
H93 H 0.54488 0.52671 0.11464 0.0
H94 H 0.55059 0.47321 0.15902 0.0
H95 H 0.50292 0.5048 0.17856 0.0
C96 C 0.48977 0.56652 0.13307 0.0
C97 C 0.49342 0.55353 0.11443 0.0
C98 C 0.49689 0.56419 0.15571 0.0
C99 C 0.50778 0.54862 0.15983 0.0
C100 C 0.51166 0.53527 0.14128 0.0
C101 C 0.50457 0.53811 0.11849 0.0
C102 C 0.52229 0.51787 0.14587 0.0
C103 C 0.53908 0.51554 0.13017 0.0
C104 C 0.54914 0.49934 0.13498 0.0
C105 C 0.5423 0.48527 0.1552 0.0
C106 C 0.52588 0.48738 0.171 0.0
C107 C 0.51587 0.50359 0.1663 0.0
Mg108 Mg 0.63614 0.3734 0.36913 0.0
O109 O 0.6277 0.39548 0.39796 0.0
O110 O 0.64199 0.435 0.38469 0.0
Mg111 Mg 0.6592 0.43876 0.34909 0.0
C112 C 0.63124 0.41829 0.40022 0.0
C113 C 0.62616 0.32059 0.38093 0.0
O114 O 0.63321 0.32369 0.3592 0.0
O115 O 0.67942 0.39501 0.38 0.0
O116 O 0.69146 0.43344 0.3655 0.0
O117 O 0.59769 0.36132 0.35174 0.0
O118 O 0.6338 0.39736 0.34487 0.0
C119 C 0.69685 0.41808 0.37598 0.0
C120 C 0.60909 0.38322 0.3418 0.0
O121 O 0.62668 0.33936 0.39202 0.0
Mg122 Mg 0.2821 0.64527 0.58292 0.0
O123 O 0.25382 0.62659 0.55117 0.0
O124 O 0.23047 0.58458 0.55826 0.0
Mg125 Mg 0.24132 0.57658 0.59399 0.0
C126 C 0.23631 0.60361 0.5453 0.0
C127 C 0.29907 0.69829 0.56163 0.0
O128 O 0.27534 0.69114 0.56778 0.0
O129 O 0.30672 0.62748 0.57158 0.0
O130 O 0.28147 0.58663 0.58121 0.0
O131 O 0.25327 0.65265 0.6005 0.0
O132 O 0.25462 0.61683 0.60369 0.0
C133 C 0.30265 0.6046 0.5735 0.0
C134 C 0.24308 0.62964 0.60817 0.0
O135 O 0.30753 0.68274 0.56411 0.0
Mg136 Mg 0.64154 0.26966 0.75482 0.0
O137 O 0.63418 0.24166 0.72352 0.0
O138 O 0.65331 0.2192 0.73377 0.0
Mg139 Mg 0.67228 0.23187 0.76982 0.0
C140 C 0.64006 0.2242 0.71931 0.0
C141 C 0.61511 0.30037 0.74727 0.0
O142 O 0.61151 0.29324 0.76893 0.0
O143 O 0.684 0.2954 0.74547 0.0
O144 O 0.70136 0.27177 0.75675 0.0
O145 O 0.60521 0.24013 0.77057 0.0
O146 O 0.64345 0.24346 0.7769 0.0
C147 C 0.70356 0.2923 0.74846 0.0
C148 C 0.61879 0.23106 0.77982 0.0
O149 O 0.6281 0.29356 0.73462 0.0
Mg150 Mg 0.39067 0.65088 0.87281 0.0
O151 O 0.40115 0.6341 0.90415 0.0
O152 O 0.38163 0.59153 0.89718 0.0
Mg153 Mg 0.36216 0.5816 0.86109 0.0
C154 C 0.39549 0.61152 0.91005 0.0
C155 C 0.42567 0.70663 0.89457 0.0
O156 O 0.44363 0.70294 0.8854 0.0
O157 O 0.34844 0.63327 0.88381 0.0
O158 O 0.33199 0.59185 0.87369 0.0
O159 O 0.42661 0.65749 0.85528 0.0
O160 O 0.38907 0.62145 0.85159 0.0
C161 C 0.3293 0.61034 0.88163 0.0
C162 C 0.41338 0.63408 0.84716 0.0
O163 O 0.40217 0.68857 0.89305 0.0
Mg164 Mg 0.75165 0.3897 0.05059 0.0
O165 O 0.77992 0.39945 0.08226 0.0
O166 O 0.8054 0.3832 0.07331 0.0
Mg167 Mg 0.79506 0.36475 0.03686 0.0
C168 C 0.79851 0.39529 0.08728 0.0
C169 C 0.70332 0.3937 0.06058 0.0
O170 O 0.69665 0.37936 0.04142 0.0
O171 O 0.72844 0.34716 0.06007 0.0
O172 O 0.75524 0.33348 0.04865 0.0
O173 O 0.77947 0.42663 0.03449 0.0
O174 O 0.77984 0.39035 0.02917 0.0
C175 C 0.7336 0.32912 0.05669 0.0
C176 C 0.79046 0.41461 0.02579 0.0
O177 O 0.72515 0.40032 0.0704 0.0
Mg178 Mg 0.3761 0.74811 0.2216 0.0
O179 O 0.3957 0.77882 0.25128 0.0
O180 O 0.43684 0.80417 0.24138 0.0
Mg181 Mg 0.44365 0.79088 0.20625 0.0
C182 C 0.41841 0.79808 0.25536 0.0
C183 C 0.32482 0.73154 0.24699 0.0
O184 O 0.33104 0.75477 0.24071 0.0
O185 O 0.397 0.7267 0.23347 0.0
O186 O 0.43688 0.75303 0.22125 0.0
O187 O 0.36564 0.77414 0.20308 0.0
O188 O 0.40209 0.77379 0.1982 0.0
C189 C 0.42042 0.73216 0.23049 0.0
C190 C 0.38811 0.7841 0.19381 0.0
O191 O 0.34052 0.72344 0.2431 0.0
H192 H 0.10393 0.54403 0.2986 0.0
H193 H 0.14623 0.57396 0.28325 0.0
H194 H 0.12477 0.63261 0.28072 0.0
H195 H 0.08224 0.60254 0.29616 0.0
H196 H 0.15806 0.63434 0.24399 0.0
H197 H 0.15311 0.63143 0.32687 0.0
H198 H 0.14167 0.60985 0.36432 0.0
H199 H 0.19306 0.58037 0.35244 0.0
H200 H 0.20436 0.60129 0.31463 0.0
H201 H 0.28522 0.74157 0.25223 0.0
H202 H 0.24034 0.71135 0.26139 0.0
H203 H 0.25936 0.65141 0.26923 0.0
H204 H 0.30446 0.68158 0.26008 0.0
H205 H 0.22673 0.65107 0.3032 0.0
H206 H 0.23117 0.65397 0.21991 0.0
H207 H 0.24167 0.6751 0.18223 0.0
H208 H 0.1911 0.70531 0.1954 0.0
H209 H 0.18059 0.68465 0.23334 0.0
C210 C 0.10788 0.56298 0.29385 0.0
C211 C 0.08997 0.57109 0.29857 0.0
C212 C 0.13207 0.5801 0.28526 0.0
C213 C 0.13876 0.60561 0.28135 0.0
C214 C 0.11994 0.61299 0.28373 0.0
C215 C 0.09563 0.5958 0.29238 0.0
C216 C 0.16622 0.62509 0.27782 0.0
C217 C 0.17306 0.63826 0.25701 0.0
C218 C 0.18575 0.62994 0.2948 0.0
C219 C 0.17938 0.61772 0.31777 0.0
C220 C 0.16181 0.62017 0.33213 0.0
C221 C 0.15536 0.60807 0.35344 0.0
C222 C 0.16659 0.5937 0.36073 0.0
C223 C 0.18434 0.59147 0.34675 0.0
C224 C 0.19078 0.60344 0.32537 0.0
C225 C 0.27999 0.72204 0.25614 0.0
C226 C 0.29843 0.71395 0.25525 0.0
C227 C 0.25427 0.70476 0.26127 0.0
C228 C 0.24642 0.67904 0.26561 0.0
C229 C 0.26499 0.67116 0.26581 0.0
C230 C 0.29075 0.68842 0.26057 0.0
C231 C 0.2187 0.66022 0.26922 0.0
C232 C 0.21178 0.64719 0.29014 0.0
C233 C 0.1991 0.65564 0.25241 0.0
C234 C 0.20531 0.66799 0.22957 0.0
C235 C 0.22246 0.6653 0.21486 0.0
C236 C 0.22838 0.67716 0.19344 0.0
C237 C 0.21711 0.6916 0.18645 0.0
C238 C 0.19984 0.69415 0.20085 0.0
C239 C 0.19388 0.68235 0.22231 0.0
H240 H 0.22172 0.70076 0.16986 0.0
H241 H 0.16157 0.58435 0.37723 0.0
H242 H 0.52969 0.08172 0.43569 0.0
H243 H 0.54505 0.1217 0.41467 0.0
H244 H 0.52018 0.15277 0.47019 0.0
H245 H 0.50422 0.11276 0.49075 0.0
H246 H 0.51428 0.17029 0.43026 0.0
H247 H 0.58224 0.1627 0.46926 0.0
H248 H 0.60809 0.14203 0.47805 0.0
H249 H 0.6305 0.14826 0.40699 0.0
H250 H 0.60444 0.16863 0.39771 0.0
H251 H 0.60109 0.30437 0.42204 0.0
H252 H 0.57897 0.26049 0.43622 0.0
H253 H 0.60323 0.23456 0.37646 0.0
H254 H 0.6255 0.27823 0.3623 0.0
H255 H 0.60851 0.21347 0.41585 0.0
H256 H 0.54218 0.22471 0.37832 0.0
H257 H 0.51688 0.24633 0.3713 0.0
H258 H 0.49224 0.23454 0.44179 0.0
H259 H 0.51769 0.21316 0.44932 0.0
C260 C 0.52669 0.09676 0.44293 0.0
C261 C 0.51606 0.09431 0.46493 0.0
C262 C 0.53573 0.11969 0.43108 0.0
C263 C 0.5344 0.14051 0.44115 0.0
C264 C 0.52163 0.13712 0.46213 0.0
C265 C 0.51255 0.11426 0.47389 0.0
C266 C 0.5484 0.16655 0.4313 0.0
C267 C 0.5349 0.17976 0.42721 0.0
C268 C 0.5753 0.17893 0.42715 0.0
C269 C 0.59117 0.16691 0.43274 0.0
C270 C 0.59254 0.1595 0.45548 0.0
C271 C 0.60724 0.14785 0.46055 0.0
C272 C 0.62088 0.14377 0.44307 0.0
C273 C 0.61989 0.15139 0.4205 0.0
C274 C 0.60516 0.16298 0.41532 0.0
C275 C 0.60196 0.28938 0.41206 0.0
C276 C 0.61496 0.29479 0.39098 0.0
C277 C 0.58915 0.26428 0.42009 0.0
C278 C 0.5891 0.24416 0.40719 0.0
C279 C 0.6029 0.24973 0.38663 0.0
C280 C 0.6156 0.27474 0.37856 0.0
C281 C 0.57441 0.21722 0.41489 0.0
C282 C 0.58783 0.2039 0.41866 0.0
C283 C 0.54752 0.20488 0.41898 0.0
C284 C 0.53203 0.21754 0.41443 0.0
C285 C 0.53151 0.22689 0.39237 0.0
C286 C 0.51712 0.23908 0.38829 0.0
C287 C 0.503 0.24186 0.4061 0.0
C288 C 0.5032 0.2324 0.42801 0.0
C289 C 0.51758 0.22022 0.43219 0.0
H290 H 0.49188 0.25131 0.40291 0.0
H291 H 0.63225 0.13475 0.44703 0.0
H292 H 0.50009 0.5755 0.60502 0.0
H293 H 0.47363 0.59029 0.58483 0.0
H294 H 0.40668 0.51454 0.58872 0.0
H295 H 0.43341 0.49962 0.60836 0.0
H296 H 0.40447 0.53904 0.54929 0.0
H297 H 0.42233 0.55807 0.63182 0.0
H298 H 0.45172 0.57666 0.66617 0.0
H299 H 0.48395 0.65192 0.63843 0.0
H300 H 0.45538 0.63369 0.60347 0.0
H301 H 0.2984 0.55735 0.56922 0.0
H302 H 0.33322 0.5474 0.5678 0.0
H303 H 0.38945 0.62821 0.56579 0.0
H304 H 0.35449 0.63845 0.56759 0.0
H305 H 0.40179 0.60589 0.59913 0.0
H306 H 0.37918 0.58737 0.51885 0.0
H307 H 0.35034 0.56846 0.48421 0.0
H308 H 0.32633 0.49265 0.50768 0.0
H309 H 0.35474 0.51108 0.54265 0.0
C310 C 0.47998 0.56181 0.60061 0.0
C311 C 0.4687 0.53645 0.60804 0.0
C312 C 0.46485 0.57027 0.58924 0.0
C313 C 0.43807 0.55365 0.5857 0.0
C314 C 0.42729 0.52769 0.59128 0.0
C315 C 0.44253 0.51915 0.60244 0.0
C316 C 0.42078 0.56401 0.57958 0.0
C317 C 0.4038 0.55362 0.56017 0.0
C318 C 0.42031 0.58344 0.59354 0.0
C319 C 0.43693 0.59448 0.61489 0.0
C320 C 0.43579 0.57857 0.63296 0.0
C321 C 0.4523 0.58903 0.65255 0.0
C322 C 0.46965 0.61543 0.65451 0.0
C323 C 0.47053 0.63145 0.63687 0.0
C324 C 0.45423 0.62107 0.61713 0.0
C325 C 0.31811 0.57308 0.56807 0.0
C326 C 0.32362 0.59875 0.5687 0.0
C327 C 0.33805 0.5673 0.56708 0.0
C328 C 0.36401 0.58702 0.56654 0.0
C329 C 0.36956 0.61266 0.56615 0.0
C330 C 0.34954 0.61848 0.56708 0.0
C331 C 0.38515 0.58077 0.5689 0.0
C332 C 0.40277 0.59177 0.58784 0.0
C333 C 0.3861 0.56187 0.55453 0.0
C334 C 0.36901 0.55064 0.53347 0.0
C335 C 0.36761 0.56667 0.51673 0.0
C336 C 0.35136 0.55603 0.49701 0.0
C337 C 0.33648 0.52937 0.49376 0.0
C338 C 0.33787 0.51329 0.51022 0.0
C339 C 0.35408 0.52383 0.52998 0.0
H340 H 0.32391 0.52117 0.47848 0.0
H341 H 0.4824 0.62347 0.6697 0.0
H342 H 0.92177 0.49542 0.78765 0.0
H343 H 0.8806 0.46589 0.7675 0.0
H344 H 0.90106 0.40643 0.76748 0.0
H345 H 0.94266 0.4363 0.78725 0.0
H346 H 0.87007 0.40245 0.72841 0.0
H347 H 0.87011 0.41107 0.81152 0.0
H348 H 0.87974 0.43569 0.84863 0.0
H349 H 0.83047 0.46519 0.82726 0.0
H350 H 0.82095 0.44112 0.7898 0.0
H351 H 0.74795 0.29004 0.74416 0.0
H352 H 0.79236 0.32591 0.7444 0.0
H353 H 0.764 0.37936 0.74471 0.0
H354 H 0.71931 0.34345 0.7445 0.0
H355 H 0.79891 0.38891 0.78026 0.0
H356 H 0.79477 0.37439 0.69812 0.0
H357 H 0.78612 0.34889 0.66168 0.0
H358 H 0.84275 0.32822 0.68222 0.0
H359 H 0.85149 0.35331 0.71896 0.0
C360 C 0.91785 0.47635 0.7825 0.0
C361 C 0.9352 0.468 0.78894 0.0
C362 C 0.89434 0.45948 0.77109 0.0
C363 C 0.88758 0.43383 0.76641 0.0
C364 C 0.90591 0.42613 0.77095 0.0
C365 C 0.92963 0.44316 0.78219 0.0
C366 C 0.86027 0.4144 0.76026 0.0
C367 C 0.85448 0.39935 0.73974 0.0
C368 C 0.83994 0.41058 0.77499 0.0
C369 C 0.84504 0.42451 0.79776 0.0
C370 C 0.86145 0.42293 0.81468 0.0
C371 C 0.86689 0.43678 0.83578 0.0
C372 C 0.85578 0.45205 0.84028 0.0
C373 C 0.83911 0.4534 0.82373 0.0
C374 C 0.83368 0.43965 0.80256 0.0
C375 C 0.75108 0.3094 0.74382 0.0
C376 C 0.73004 0.31386 0.74449 0.0
C377 C 0.77653 0.32991 0.74382 0.0
C378 C 0.78152 0.35533 0.74453 0.0
C379 C 0.76056 0.35987 0.74413 0.0
C380 C 0.73503 0.33932 0.74391 0.0
C381 C 0.8085 0.3769 0.74827 0.0
C382 C 0.81433 0.39224 0.76861 0.0
C383 C 0.82879 0.38066 0.73351 0.0
C384 C 0.82365 0.36559 0.7114 0.0
C385 C 0.80524 0.36425 0.69496 0.0
C386 C 0.80035 0.34989 0.67423 0.0
C387 C 0.81384 0.3369 0.66966 0.0
C388 C 0.8323 0.33829 0.68579 0.0
C389 C 0.83726 0.3526 0.70656 0.0
H390 H 0.81003 0.3258 0.6536 0.0
H391 H 0.86005 0.4628 0.85661 0.0
H392 H 0.43949 0.91312 0.97762 0.0
H393 H 0.43022 0.87205 0.95982 0.0
H394 H 0.51185 0.90234 0.94958 0.0
H395 H 0.52119 0.94376 0.96726 0.0
H396 H 0.48196 0.87065 0.91312 0.0
H397 H 0.48392 0.86734 0.99619 0.0
H398 H 0.4718 0.87239 0.03585 0.0
H399 H 0.39242 0.81631 0.01943 0.0
H400 H 0.40395 0.81122 0.97954 0.0
H401 H 0.47386 0.74925 0.89954 0.0
H402 H 0.48504 0.79199 0.91441 0.0
H403 H 0.40454 0.76492 0.9276 0.0
H404 H 0.39319 0.72194 0.913 0.0
H405 H 0.43539 0.79545 0.96301 0.0
H406 H 0.43294 0.79982 0.87989 0.0
H407 H 0.44453 0.79525 0.83991 0.0
H408 H 0.52453 0.8493 0.8565 0.0
H409 H 0.51345 0.85392 0.89669 0.0
C410 C 0.4554 0.91116 0.97114 0.0
C411 C 0.48107 0.93151 0.97395 0.0
C412 C 0.45011 0.88766 0.96111 0.0
C413 C 0.47039 0.88391 0.95392 0.0
C414 C 0.49592 0.90476 0.95519 0.0
C415 C 0.50124 0.92843 0.96516 0.0
C416 C 0.46495 0.85786 0.94635 0.0
C417 C 0.47212 0.85427 0.92414 0.0
C418 C 0.45169 0.83638 0.96062 0.0
C419 C 0.44478 0.83909 0.98476 0.0
C420 C 0.46385 0.85621 0.00097 0.0
C421 C 0.45709 0.85907 0.0235 0.0
C422 C 0.43134 0.84476 0.0301 0.0
C423 C 0.41234 0.82743 0.01425 0.0
C424 C 0.41898 0.82454 0.99169 0.0
C425 C 0.4585 0.7523 0.90571 0.0
C426 C 0.43258 0.73215 0.90494 0.0
C427 C 0.46494 0.77682 0.91411 0.0
C428 C 0.44559 0.7818 0.92179 0.0
C429 C 0.41979 0.76157 0.92169 0.0
C430 C 0.41333 0.737 0.9133 0.0
C431 C 0.4522 0.80817 0.92967 0.0
C432 C 0.4453 0.81183 0.952 0.0
C433 C 0.4657 0.8297 0.91553 0.0
C434 C 0.4724 0.82701 0.89136 0.0
C435 C 0.45303 0.81057 0.87506 0.0
C436 C 0.4595 0.808 0.85235 0.0
C437 C 0.48526 0.82192 0.84568 0.0
C438 C 0.50459 0.8385 0.8617 0.0
C439 C 0.49822 0.84111 0.88444 0.0
H440 H 0.49023 0.81991 0.8281 0.0
H441 H 0.42611 0.84709 0.0475 0.0
H442 H 0.53826 0.4697 0.09565 0.0
H443 H 0.56626 0.45479 0.07895 0.0
H444 H 0.6289 0.50671 0.12566 0.0
H445 H 0.60097 0.52172 0.14212 0.0
H446 H 0.64715 0.50053 0.08397 0.0
H447 H 0.58921 0.44807 0.14197 0.0
H448 H 0.54656 0.42289 0.15955 0.0
H449 H 0.5193 0.37068 0.10033 0.0
H450 H 0.56168 0.39588 0.08218 0.0
H451 H 0.71572 0.43203 0.0935 0.0
H452 H 0.69038 0.45257 0.10356 0.0
H453 H 0.62916 0.40068 0.05572 0.0
H454 H 0.65426 0.38004 0.04561 0.0
H455 H 0.6104 0.40741 0.09693 0.0
H456 H 0.67094 0.46064 0.04001 0.0
H457 H 0.71435 0.48684 0.02406 0.0
H458 H 0.73796 0.53811 0.08383 0.0
H459 H 0.69477 0.512 0.10029 0.0
C460 C 0.55837 0.47873 0.10151 0.0
C461 C 0.56766 0.49701 0.11991 0.0
C462 C 0.57426 0.47003 0.09219 0.0
C463 C 0.59953 0.47932 0.10137 0.0
C464 C 0.60951 0.49929 0.11831 0.0
C465 C 0.59362 0.50795 0.12762 0.0
C466 C 0.61423 0.46605 0.09567 0.0
C467 C 0.63919 0.48021 0.08692 0.0
C468 C 0.60386 0.43952 0.09954 0.0
C469 C 0.57853 0.42401 0.1106 0.0
C470 C 0.57407 0.43131 0.13263 0.0
C471 C 0.54995 0.41704 0.1427 0.0
C472 C 0.53021 0.39523 0.13104 0.0
C473 C 0.5346 0.38761 0.10931 0.0
C474 C 0.55866 0.40188 0.09912 0.0
C475 C 0.69674 0.4248 0.08532 0.0
C476 C 0.68708 0.40446 0.06867 0.0
C477 C 0.68235 0.43667 0.09097 0.0
C478 C 0.65803 0.4284 0.08013 0.0
C479 C 0.64792 0.40746 0.06421 0.0
C480 C 0.66233 0.3957 0.05845 0.0
C481 C 0.64326 0.44181 0.08499 0.0
C482 C 0.6183 0.42768 0.09377 0.0
C483 C 0.6538 0.46842 0.08143 0.0
C484 C 0.67971 0.48423 0.07148 0.0
C485 C 0.68545 0.47739 0.04983 0.0
C486 C 0.71 0.49225 0.04068 0.0
C487 C 0.72892 0.51409 0.05295 0.0
C488 C 0.7233 0.52117 0.07436 0.0
C489 C 0.69878 0.50636 0.0836 0.0
H490 H 0.74792 0.52556 0.04583 0.0
H491 H 0.51155 0.3842 0.13885 0.0
H492 H 0.41264 0.9373 0.51412 0.0
H493 H 0.38808 0.89475 0.53101 0.0
H494 H 0.452 0.88165 0.51957 0.0
H495 H 0.47633 0.92399 0.50259 0.0
H496 H 0.40795 0.84461 0.49907 0.0
H497 H 0.43392 0.88591 0.57429 0.0
H498 H 0.43991 0.91735 0.60534 0.0
H499 H 0.35765 0.88713 0.60611 0.0
H500 H 0.35118 0.85572 0.57481 0.0
H501 H 0.34975 0.72052 0.54857 0.0
H502 H 0.37888 0.76567 0.53989 0.0
H503 H 0.3169 0.78187 0.55045 0.0
H504 H 0.28776 0.73696 0.55917 0.0
H505 H 0.36134 0.81749 0.57282 0.0
H506 H 0.33538 0.77824 0.49662 0.0
H507 H 0.32875 0.74753 0.46463 0.0
H508 H 0.41049 0.77464 0.46497 0.0
H509 H 0.41757 0.80529 0.49722 0.0
C510 C 0.42178 0.92573 0.51622 0.0
C511 C 0.44643 0.93391 0.50743 0.0
C512 C 0.40772 0.90138 0.5257 0.0
C513 C 0.41817 0.88494 0.52647 0.0
C514 C 0.44354 0.89394 0.51912 0.0
C515 C 0.45753 0.9182 0.50967 0.0
C516 C 0.40171 0.85748 0.53223 0.0
C517 C 0.39817 0.83868 0.5154 0.0
C518 C 0.38827 0.84976 0.5532 0.0
C519 C 0.39208 0.86861 0.57203 0.0
C520 C 0.41712 0.88611 0.58093 0.0
C521 C 0.4206 0.9039 0.59861 0.0
C522 C 0.39918 0.90428 0.60765 0.0
C523 C 0.37423 0.88683 0.59907 0.0
C524 C 0.37064 0.86901 0.58137 0.0
C525 C 0.34226 0.73364 0.54884 0.0
C526 C 0.31639 0.72507 0.55454 0.0
C527 C 0.35894 0.75945 0.54388 0.0
C528 C 0.35006 0.77717 0.54451 0.0
C529 C 0.32421 0.76859 0.54997 0.0
C530 C 0.30753 0.74283 0.55481 0.0
C531 C 0.36772 0.80469 0.53968 0.0
C532 C 0.37136 0.82347 0.5566 0.0
C533 C 0.38119 0.81246 0.51873 0.0
C534 C 0.37696 0.79384 0.49953 0.0
C535 C 0.35191 0.77747 0.49005 0.0
C536 C 0.34808 0.76011 0.47183 0.0
C537 C 0.36917 0.75908 0.46282 0.0
C538 C 0.39416 0.77543 0.472 0.0
C539 C 0.39809 0.7928 0.49024 0.0
H540 H 0.36617 0.74566 0.44869 0.0
H541 H 0.40192 0.91807 0.62135 0.0
H542 H 0.4972 0.41616 0.66277 0.0
H543 H 0.50694 0.38705 0.6846 0.0
H544 H 0.58762 0.44588 0.68984 0.0
H545 H 0.57782 0.47478 0.66823 0.0
H546 H 0.53771 0.36918 0.66983 0.0
H547 H 0.61616 0.4384 0.73782 0.0
H548 H 0.62539 0.47591 0.7629 0.0
H549 H 0.54444 0.45237 0.7619 0.0
H550 H 0.53467 0.41453 0.73711 0.0
H551 H 0.62071 0.32135 0.70423 0.0
H552 H 0.60296 0.34794 0.69043 0.0
H553 H 0.56686 0.34108 0.75618 0.0
H554 H 0.5848 0.31504 0.77017 0.0
H555 H 0.58918 0.3889 0.74358 0.0
H556 H 0.53128 0.30697 0.70736 0.0
H557 H 0.5191 0.26773 0.6837 0.0
H558 H 0.553 0.31326 0.62412 0.0
H559 H 0.56569 0.35281 0.6475 0.0
C560 C 0.51678 0.42305 0.66938 0.0
C561 C 0.53673 0.44772 0.66424 0.0
C562 C 0.5224 0.40639 0.68158 0.0
C563 C 0.54801 0.4143 0.68892 0.0
C564 C 0.56768 0.43945 0.6847 0.0
C565 C 0.56209 0.45598 0.67244 0.0
C566 C 0.55479 0.39578 0.69905 0.0
C567 C 0.54881 0.3734 0.68604 0.0
C568 C 0.56907 0.40115 0.7203 0.0
C569 C 0.57473 0.42373 0.73544 0.0
C570 C 0.60031 0.44116 0.74304 0.0
C571 C 0.60564 0.46249 0.75719 0.0
C572 C 0.58552 0.46656 0.76393 0.0
C573 C 0.56002 0.44925 0.7566 0.0
C574 C 0.55458 0.42787 0.74246 0.0
C575 C 0.60894 0.32547 0.71571 0.0
C576 C 0.60419 0.31606 0.7383 0.0
C577 C 0.59871 0.34059 0.70778 0.0
C578 C 0.58338 0.34636 0.72222 0.0
C579 C 0.57866 0.33696 0.74474 0.0
C580 C 0.58891 0.32198 0.75268 0.0
C581 C 0.57256 0.36255 0.71412 0.0
C582 C 0.57789 0.38456 0.72746 0.0
C583 C 0.55731 0.35661 0.69338 0.0
C584 C 0.54963 0.33286 0.67924 0.0
C585 C 0.5363 0.30863 0.68925 0.0
C586 C 0.52928 0.28633 0.67588 0.0
C587 C 0.53533 0.288 0.65243 0.0
C588 C 0.54835 0.31199 0.64229 0.0
C589 C 0.55544 0.33435 0.65559 0.0
H590 H 0.52988 0.27072 0.64211 0.0
H591 H 0.58969 0.48309 0.77488 0.0
H592 H 0.09048 0.51296 0.84543 0.0
H593 H 0.13217 0.52659 0.86554 0.0
H594 H 0.15039 0.60563 0.86343 0.0
H595 H 0.10912 0.59196 0.84271 0.0
H596 H 0.18677 0.60081 0.84457 0.0
H597 H 0.14286 0.57384 0.91575 0.0
H598 H 0.10961 0.54461 0.94226 0.0
H599 H 0.1358 0.4902 0.93373 0.0
H600 H 0.16899 0.51894 0.90689 0.0
H601 H 0.31294 0.64515 0.88978 0.0
H602 H 0.26812 0.63621 0.89055 0.0
H603 H 0.24052 0.55493 0.88406 0.0
H604 H 0.28508 0.56359 0.88357 0.0
H605 H 0.20931 0.56483 0.91192 0.0
H606 H 0.24732 0.58825 0.83637 0.0
H607 H 0.28004 0.61643 0.8089 0.0
H608 H 0.26369 0.67677 0.82542 0.0
H609 H 0.23109 0.64902 0.85323 0.0
C610 C 0.10303 0.53311 0.85009 0.0
C611 C 0.09669 0.55145 0.84272 0.0
C612 C 0.12686 0.54093 0.86158 0.0
C613 C 0.14451 0.5672 0.86606 0.0
C614 C 0.13718 0.5853 0.86015 0.0
C615 C 0.11356 0.5775 0.84847 0.0
C616 C 0.17177 0.57601 0.87368 0.0
C617 C 0.19164 0.5934 0.85969 0.0
C618 C 0.17824 0.56585 0.89299 0.0
C619 C 0.15832 0.5485 0.90916 0.0
C620 C 0.14141 0.55556 0.91938 0.0
C621 C 0.12259 0.53909 0.93449 0.0
C622 C 0.12056 0.51554 0.93964 0.0
C623 C 0.13739 0.50844 0.92972 0.0
C624 C 0.15624 0.52484 0.91457 0.0
C625 C 0.29737 0.62534 0.88905 0.0
C626 C 0.30266 0.60512 0.88623 0.0
C627 C 0.27174 0.62027 0.88944 0.0
C628 C 0.25096 0.59491 0.88699 0.0
C629 C 0.25622 0.57464 0.88593 0.0
C630 C 0.28177 0.57967 0.88549 0.0
C631 C 0.224 0.58953 0.8828 0.0
C632 C 0.20428 0.57264 0.89721 0.0
C633 C 0.21752 0.60005 0.86382 0.0
C634 C 0.23704 0.6167 0.84707 0.0
C635 C 0.25086 0.6076 0.83427 0.0
C636 C 0.26935 0.62348 0.81862 0.0
C637 C 0.274 0.64841 0.81548 0.0
C638 C 0.26011 0.65748 0.82792 0.0
C639 C 0.24163 0.64169 0.84362 0.0
H640 H 0.28832 0.66067 0.80335 0.0
H641 H 0.10597 0.50282 0.95135 0.0
H642 H 0.60388 0.0981 0.0037 0.0
H643 H 0.6316 0.13961 0.02387 0.0
H644 H 0.56365 0.14065 0.04715 0.0
H645 H 0.53594 0.09897 0.02693 0.0
H646 H 0.59656 0.18408 0.0249 0.0
H647 H 0.60356 0.13609 0.08654 0.0
H648 H 0.61079 0.10321 0.1045 0.0
H649 H 0.68875 0.14064 0.08057 0.0
H650 H 0.68189 0.17355 0.06215 0.0
H651 H 0.68321 0.30991 0.07041 0.0
H652 H 0.649 0.26468 0.0706 0.0
H653 H 0.70385 0.24174 0.04962 0.0
H654 H 0.73804 0.2864 0.05017 0.0
H655 H 0.67212 0.20838 0.07812 0.0
H656 H 0.66248 0.24958 0.00999 0.0
H657 H 0.65605 0.28176 0.98956 0.0
H658 H 0.58396 0.25625 0.02348 0.0
H659 H 0.59014 0.2241 0.04432 0.0
C660 C 0.59499 0.10685 0.01382 0.0
C661 C 0.56792 0.09531 0.01422 0.0
C662 C 0.61076 0.13054 0.02529 0.0
C663 C 0.59971 0.14318 0.03719 0.0
C664 C 0.57259 0.13117 0.03822 0.0
C665 C 0.5568 0.10735 0.02686 0.0
C666 C 0.61647 0.16999 0.04629 0.0
C667 C 0.61271 0.18934 0.03701 0.0
C668 C 0.63786 0.17692 0.06168 0.0
C669 C 0.64214 0.15723 0.07285 0.0
C670 C 0.62219 0.13722 0.08496 0.0
C671 C 0.62624 0.11859 0.09525 0.0
C672 C 0.6502 0.11982 0.09365 0.0
C673 C 0.6702 0.13972 0.0818 0.0
C674 C 0.66625 0.15839 0.07146 0.0
C675 C 0.68807 0.2952 0.06625 0.0
C676 C 0.71337 0.30192 0.06 0.0
C677 C 0.66845 0.26933 0.06624 0.0
C678 C 0.67368 0.24975 0.05967 0.0
C679 C 0.69921 0.2564 0.0547 0.0
C680 C 0.7188 0.2821 0.05491 0.0
C681 C 0.65262 0.2225 0.05621 0.0
C682 C 0.6556 0.20306 0.06647 0.0
C683 C 0.63067 0.21545 0.04145 0.0
C684 C 0.62693 0.2347 0.02892 0.0
C685 C 0.64535 0.25098 0.0132 0.0
C686 C 0.64174 0.26918 0.00154 0.0
C687 C 0.61965 0.27111 0.00528 0.0
C688 C 0.60109 0.25478 0.02065 0.0
C689 C 0.60463 0.23657 0.03238 0.0
H690 H 0.61689 0.28522 0.99623 0.0
H691 H 0.65329 0.10537 0.10163 0.0
H692 H 0.52191 0.61547 0.16485 0.0
H693 H 0.50831 0.63887 0.19096 0.0
H694 H 0.44597 0.56698 0.21418 0.0
H695 H 0.45993 0.54352 0.18819 0.0
H696 H 0.4297 0.59939 0.19656 0.0
H697 H 0.49121 0.60483 0.2531 0.0
H698 H 0.53358 0.61256 0.26811 0.0
H699 H 0.5689 0.69161 0.24958 0.0
H700 H 0.52683 0.6843 0.23412 0.0
H701 H 0.39074 0.68286 0.24596 0.0
H702 H 0.40266 0.64931 0.24662 0.0
H703 H 0.47952 0.70392 0.22505 0.0
H704 H 0.46824 0.73746 0.2253 0.0
H705 H 0.48319 0.672 0.2519 0.0
H706 H 0.42711 0.66358 0.18555 0.0
H707 H 0.3866 0.65723 0.16697 0.0
H708 H 0.34334 0.58537 0.20068 0.0
H709 H 0.3836 0.59147 0.21964 0.0
C710 C 0.50587 0.60475 0.17615 0.0
C711 C 0.49207 0.57782 0.1748 0.0
C712 C 0.49811 0.61807 0.19105 0.0
C713 C 0.47622 0.60466 0.20464 0.0
C714 C 0.46303 0.57767 0.20399 0.0
C715 C 0.47105 0.56432 0.18928 0.0
C716 C 0.46539 0.61899 0.21686 0.0
C717 C 0.44106 0.6148 0.20921 0.0
C718 C 0.48044 0.63939 0.23297 0.0
C719 C 0.50582 0.64397 0.24236 0.0
C720 C 0.50803 0.62383 0.25208 0.0
C721 C 0.532 0.62814 0.26069 0.0
C722 C 0.55392 0.65255 0.25979 0.0
C723 C 0.5519 0.67272 0.25029 0.0
C724 C 0.52798 0.6685 0.24163 0.0
C725 C 0.41036 0.68784 0.24191 0.0
C726 C 0.42835 0.7128 0.23516 0.0
C727 C 0.41712 0.66859 0.24217 0.0
C728 C 0.44182 0.67388 0.23531 0.0
C729 C 0.4603 0.69922 0.23031 0.0
C730 C 0.45371 0.71844 0.23032 0.0
C731 C 0.44799 0.65306 0.23083 0.0
C732 C 0.47145 0.65606 0.23987 0.0
C733 C 0.4324 0.63181 0.2156 0.0
C734 C 0.40825 0.62814 0.20423 0.0
C735 C 0.40892 0.64652 0.1891 0.0
C736 C 0.38602 0.64295 0.17849 0.0
C737 C 0.3624 0.62095 0.18271 0.0
C738 C 0.36164 0.60243 0.19748 0.0
C739 C 0.38448 0.60593 0.20816 0.0
H740 H 0.34469 0.61822 0.17448 0.0
H741 H 0.57246 0.65585 0.26646 0.0
H742 H 0.92311 0.53647 0.33923 0.0
H743 H 0.88334 0.51973 0.361 0.0
H744 H 0.89668 0.46079 0.38816 0.0
H745 H 0.93677 0.47778 0.36636 0.0
H746 H 0.85035 0.4411 0.36491 0.0
H747 H 0.89364 0.50305 0.42573 0.0
H748 H 0.92288 0.54583 0.44364 0.0
H749 H 0.87582 0.57448 0.41444 0.0
H750 H 0.84649 0.53198 0.39605 0.0
H751 H 0.71865 0.39145 0.39573 0.0
H752 H 0.76498 0.40667 0.40225 0.0
H753 H 0.78363 0.48072 0.3765 0.0
H754 H 0.73792 0.46612 0.37066 0.0
H755 H 0.81588 0.48746 0.41076 0.0
H756 H 0.78236 0.43119 0.3413 0.0
H757 H 0.75398 0.38996 0.32034 0.0
H758 H 0.78369 0.35248 0.36349 0.0
H759 H 0.81206 0.39349 0.38485 0.0
C760 C 0.91809 0.52063 0.35064 0.0
C761 C 0.93298 0.50849 0.35133 0.0
C762 C 0.89537 0.51104 0.36308 0.0
C763 C 0.88703 0.48902 0.37629 0.0
C764 C 0.90283 0.47788 0.37819 0.0
C765 C 0.92578 0.48768 0.36591 0.0
C766 C 0.86014 0.47567 0.38477 0.0
C767 C 0.84294 0.45093 0.37557 0.0
C768 C 0.85038 0.48864 0.39831 0.0
C769 C 0.86787 0.51427 0.40945 0.0
C770 C 0.88959 0.5185 0.423 0.0
C771 C 0.90618 0.54271 0.43326 0.0
C772 C 0.90122 0.56286 0.43017 0.0
C773 C 0.87963 0.55884 0.41684 0.0
C774 C 0.86298 0.53467 0.40653 0.0
C775 C 0.73263 0.41109 0.3918 0.0
C776 C 0.72448 0.42741 0.38238 0.0
C777 C 0.75912 0.41975 0.39548 0.0
C778 C 0.77788 0.44477 0.38956 0.0
C779 C 0.76964 0.46137 0.38125 0.0
C780 C 0.74335 0.45286 0.37774 0.0
C781 C 0.80607 0.45346 0.38999 0.0
C782 C 0.82346 0.4773 0.40082 0.0
C783 C 0.81605 0.43986 0.37766 0.0
C784 C 0.79902 0.41527 0.36485 0.0
C785 C 0.78268 0.4141 0.34641 0.0
C786 C 0.76663 0.39079 0.33445 0.0
C787 C 0.76696 0.36859 0.34064 0.0
C788 C 0.7834 0.36967 0.35876 0.0
C789 C 0.79947 0.39293 0.37079 0.0
H790 H 0.75452 0.35056 0.33136 0.0
H791 H 0.91409 0.5816 0.43812 0.0
H792 H 0.07697 0.51128 0.37081 0.0
H793 H 0.10511 0.52099 0.40559 0.0
H794 H 0.09342 0.58435 0.42368 0.0
H795 H 0.06482 0.57425 0.38919 0.0
H796 H 0.14688 0.59669 0.41822 0.0
H797 H 0.06984 0.538 0.45789 0.0
H798 H 0.02996 0.4966 0.46324 0.0
H799 H 0.07435 0.4582 0.46538 0.0
H800 H 0.11448 0.49933 0.45971 0.0
H801 H 0.22261 0.63565 0.52413 0.0
H802 H 0.19072 0.62439 0.49225 0.0
H803 H 0.18282 0.5491 0.48574 0.0
H804 H 0.21365 0.5599 0.51826 0.0
H805 H 0.13779 0.54309 0.48564 0.0
H806 H 0.21383 0.59846 0.44441 0.0
H807 H 0.25463 0.63798 0.43633 0.0
H808 H 0.21426 0.6804 0.43371 0.0
H809 H 0.17326 0.64119 0.44208 0.0
C810 C 0.07952 0.5265 0.38284 0.0
C811 C 0.06836 0.54167 0.37777 0.0
C812 C 0.09574 0.53219 0.40252 0.0
C813 C 0.10135 0.55342 0.41712 0.0
C814 C 0.08923 0.56785 0.41263 0.0
C815 C 0.07268 0.5619 0.39317 0.0
C816 C 0.12168 0.56193 0.43569 0.0
C817 C 0.14483 0.58524 0.43322 0.0
C818 C 0.11924 0.54645 0.45465 0.0
C819 C 0.09514 0.52172 0.45816 0.0
C820 C 0.07108 0.52069 0.45929 0.0
C821 C 0.04843 0.49728 0.46243 0.0
C822 C 0.04961 0.47478 0.46459 0.0
C823 C 0.07346 0.47565 0.46368 0.0
C824 C 0.09616 0.49901 0.46053 0.0
C825 C 0.21441 0.61689 0.51558 0.0
C826 C 0.22057 0.59864 0.52369 0.0
C827 C 0.19618 0.61045 0.49731 0.0
C828 C 0.18432 0.58587 0.48643 0.0
C829 C 0.19145 0.56809 0.49391 0.0
C830 C 0.2092 0.57433 0.51243 0.0
C831 C 0.16337 0.57799 0.46828 0.0
C832 C 0.14003 0.55473 0.47076 0.0
C833 C 0.16587 0.59329 0.44902 0.0
C834 C 0.19053 0.61695 0.44416 0.0
C835 C 0.21369 0.61627 0.44233 0.0
C836 C 0.23685 0.6386 0.43765 0.0
C837 C 0.23705 0.66171 0.43458 0.0
C838 C 0.21408 0.66251 0.43613 0.0
C839 C 0.19088 0.64023 0.44083 0.0
H840 H 0.255 0.67898 0.43095 0.0
H841 H 0.03206 0.45667 0.46702 0.0
H842 H 0.57571 0.09113 0.52638 0.0
H843 H 0.59688 0.11579 0.56226 0.0
H844 H 0.52293 0.08075 0.59526 0.0
H845 H 0.5019 0.05556 0.55942 0.0
H846 H 0.58891 0.15139 0.57988 0.0
H847 H 0.53231 0.0846 0.65429 0.0
H848 H 0.51067 0.0386 0.66322 0.0
H849 H 0.56017 0.02774 0.6167 0.0
H850 H 0.58233 0.07372 0.60773 0.0
H851 H 0.60701 0.22425 0.68527 0.0
H852 H 0.58804 0.19447 0.65163 0.0
H853 H 0.6309 0.15705 0.67129 0.0
H854 H 0.64973 0.18638 0.70479 0.0
H855 H 0.58138 0.12223 0.66073 0.0
H856 H 0.6498 0.19726 0.62655 0.0
H857 H 0.67453 0.24311 0.61725 0.0
H858 H 0.60722 0.23696 0.58254 0.0
H859 H 0.58198 0.19112 0.59191 0.0
C860 C 0.56422 0.08803 0.54162 0.0
C861 C 0.5373 0.0713 0.54036 0.0
C862 C 0.57623 0.1023 0.562 0.0
C863 C 0.56152 0.10027 0.58145 0.0
C864 C 0.53477 0.08244 0.58061 0.0
C865 C 0.52276 0.06795 0.56021 0.0
C866 C 0.5738 0.11848 0.60165 0.0
C867 C 0.58726 0.14495 0.59755 0.0
C868 C 0.57178 0.11019 0.62472 0.0
C869 C 0.55879 0.08256 0.63017 0.0
C870 C 0.53863 0.07241 0.64603 0.0
C871 C 0.52627 0.04634 0.65109 0.0
C872 C 0.53398 0.03024 0.64047 0.0
C873 C 0.55414 0.04021 0.62484 0.0
C874 C 0.56658 0.06626 0.61974 0.0
C875 C 0.61257 0.20984 0.68232 0.0
C876 C 0.62992 0.20778 0.6978 0.0
C877 C 0.60169 0.1928 0.6631 0.0
C878 C 0.60804 0.1735 0.65897 0.0
C879 C 0.62557 0.17165 0.67421 0.0
C880 C 0.63644 0.18861 0.69333 0.0
C881 C 0.59643 0.15503 0.63889 0.0
C882 C 0.58296 0.12858 0.64304 0.0
C883 C 0.59882 0.16329 0.61581 0.0
C884 C 0.61394 0.19084 0.61015 0.0
C885 C 0.64022 0.20574 0.6171 0.0
C886 C 0.65434 0.23172 0.61179 0.0
C887 C 0.64243 0.24296 0.59937 0.0
C888 C 0.6164 0.22824 0.59219 0.0
C889 C 0.60219 0.20225 0.59749 0.0
H890 H 0.6534 0.26307 0.59526 0.0
H891 H 0.52437 0.01006 0.6444 0.0
H892 H 0.47752 0.50657 0.70515 0.0
H893 H 0.46844 0.52158 0.74184 0.0
H894 H 0.50587 0.59898 0.71741 0.0
H895 H 0.51469 0.58403 0.68069 0.0
H896 H 0.51436 0.59431 0.76714 0.0
H897 H 0.44558 0.5666 0.70743 0.0
H898 H 0.41372 0.53482 0.67889 0.0
H899 H 0.37782 0.4812 0.73305 0.0
H900 H 0.40972 0.51254 0.76178 0.0
H901 H 0.45735 0.65884 0.82256 0.0
H902 H 0.47601 0.63983 0.7971 0.0
H903 H 0.41685 0.564 0.81588 0.0
H904 H 0.39749 0.58298 0.84046 0.0
H905 H 0.42036 0.56365 0.7725 0.0
H906 H 0.48382 0.59258 0.83379 0.0
H907 H 0.5157 0.6228 0.86304 0.0
H908 H 0.56181 0.67161 0.80904 0.0
H909 H 0.53002 0.64186 0.77945 0.0
C910 C 0.48454 0.52689 0.70797 0.0
C911 C 0.49673 0.54417 0.69016 0.0
C912 C 0.47927 0.53542 0.72884 0.0
C913 C 0.48637 0.56135 0.73222 0.0
C914 C 0.50035 0.57893 0.71516 0.0
C915 C 0.50531 0.57038 0.69421 0.0
C916 C 0.47636 0.56963 0.75193 0.0
C917 C 0.49385 0.58772 0.76841 0.0
C918 C 0.44953 0.56045 0.75382 0.0
C919 C 0.43019 0.54175 0.73664 0.0
C920 C 0.43101 0.54794 0.71316 0.0
C921 C 0.41295 0.53005 0.69698 0.0
C922 C 0.39383 0.50599 0.70415 0.0
C923 C 0.39268 0.49982 0.72752 0.0
C924 C 0.41074 0.51763 0.74375 0.0
C925 C 0.44849 0.63811 0.82144 0.0
C926 C 0.42583 0.62241 0.83341 0.0
C927 C 0.4593 0.62723 0.807 0.0
C928 C 0.44811 0.6004 0.80473 0.0
C929 C 0.42587 0.58473 0.81724 0.0
C930 C 0.41475 0.59561 0.83131 0.0
C931 C 0.45835 0.58871 0.78798 0.0
C932 C 0.44088 0.57001 0.7718 0.0
C933 C 0.48517 0.5971 0.78667 0.0
C934 C 0.50441 0.61505 0.80439 0.0
C935 C 0.50066 0.60984 0.82815 0.0
C936 C 0.51874 0.62688 0.84479 0.0
C937 C 0.54074 0.64914 0.83791 0.0
C938 C 0.54475 0.65437 0.81435 0.0
C939 C 0.52672 0.63741 0.79763 0.0
H940 H 0.55471 0.66231 0.85082 0.0
H941 H 0.37986 0.49216 0.69161 0.0
H942 H 0.93383 0.51596 0.85958 0.0
H943 H 0.91203 0.508 0.89665 0.0
H944 H 0.9581 0.47636 0.92277 0.0
H945 H 0.98025 0.48465 0.88571 0.0
H946 H 0.90337 0.44281 0.92241 0.0
H947 H 0.96623 0.52782 0.94891 0.0
H948 H 0.99283 0.57488 0.94646 0.0
H949 H 0.92395 0.58077 0.94269 0.0
H950 H 0.89691 0.5337 0.94478 0.0
H951 H 0.83035 0.40457 0.02316 0.0
H952 H 0.86792 0.42506 -0.00144 0.0
H953 H 0.84164 0.4756 0.97334 0.0
H954 H 0.80459 0.4558 -0.00123 0.0
H955 H 0.89165 0.50105 0.97666 0.0
H956 H 0.82915 0.41855 0.94312 0.0
H957 H 0.80019 0.37154 0.94222 0.0
H958 H 0.86543 0.36099 0.95511 0.0
H959 H 0.89474 0.40799 0.95637 0.0
C960 C 0.93985 0.50808 0.87353 0.0
C961 C 0.95868 0.50092 0.86991 0.0
C962 C 0.92745 0.50358 0.89467 0.0
C963 C 0.93352 0.49164 0.91242 0.0
C964 C 0.95331 0.48574 0.90929 0.0
C965 C 0.96601 0.49059 0.88823 0.0
C966 C 0.91671 0.48217 0.93269 0.0
C967 C 0.90124 0.45553 0.93467 0.0
C968 C 0.91333 0.49883 0.94802 0.0
C969 C 0.92953 0.52718 0.94684 0.0
C970 C 0.95674 0.53912 0.94737 0.0
C971 C 0.9719 0.56581 0.94608 0.0
C972 C 0.96009 0.5808 0.94438 0.0
C973 C 0.93308 0.56913 0.94401 0.0
C974 C 0.91782 0.54245 0.94527 0.0
C975 C 0.83261 0.42007 0.01243 0.0
C976 C 0.81431 0.42826 0.0125 0.0
C977 C 0.85413 0.43181 -0.00163 0.0
C978 C 0.8573 0.45145 0.98361 0.0
C979 C 0.83961 0.46043 0.98449 0.0
C980 C 0.8184 0.44906 -0.00105 0.0
C981 C 0.87807 0.46159 0.96629 0.0
C982 C 0.89412 0.48831 0.96473 0.0
C983 C 0.88164 0.44501 0.95091 0.0
C984 C 0.86407 0.41676 0.95012 0.0
C985 C 0.83728 0.4062 0.94592 0.0
C986 C 0.82081 0.37956 0.94533 0.0
C987 C 0.83095 0.36329 0.94868 0.0
C988 C 0.8576 0.37362 0.95257 0.0
C989 C 0.87414 0.40025 0.95322 0.0
H990 H 0.81817 0.34268 0.94821 0.0
H991 H 0.97186 0.60146 0.94338 0.0
H992 H 0.43292 0.94933 0.04138 0.0
H993 H 0.41695 0.92522 0.07697 0.0
H994 H 0.49556 0.95048 0.09981 0.0
H995 H 0.51157 0.9752 0.06458 0.0
H996 H 0.45038 0.8912 0.082 0.0
H997 H 0.47852 0.96445 0.136 0.0
H998 H 0.47902 0.00358 0.15041 0.0
H999 H 0.39652 0.96074 0.15779 0.0
H1000 H 0.39549 0.9214 0.14305 0.0
H1001 H 0.43425 0.80888 0.17197 0.0
H1002 H 0.45019 0.84651 0.14818 0.0
H1003 H 0.3797 0.8486 0.1585 0.0
H1004 H 0.36398 0.81139 0.18327 0.0
H1005 H 0.41964 0.8959 0.16041 0.0
H1006 H 0.38927 0.82386 0.10781 0.0
H1007 H 0.38448 0.78411 0.08981 0.0
H1008 H 0.46572 0.82307 0.07588 0.0
H1009 H 0.47107 0.86298 0.09408 0.0
C1010 C 0.44674 0.9509 0.05468 0.0
C1011 C 0.47339 0.96418 0.05055 0.0
C1012 C 0.43766 0.93714 0.07492 0.0
C1013 C 0.45514 0.93632 0.09098 0.0
C1014 C 0.48187 0.95137 0.08778 0.0
C1015 C 0.49099 0.96548 0.06773 0.0
C1016 C 0.44556 0.91515 0.10728 0.0
C1017 C 0.44407 0.89228 0.09934 0.0
C1018 C 0.43629 0.91647 0.12931 0.0
C1019 C 0.43689 0.94008 0.13811 0.0
C1020 C 0.46044 0.96344 0.14039 0.0
C1021 C 0.46084 0.98564 0.14871 0.0
C1022 C 0.43781 0.98467 0.15493 0.0
C1023 C 0.41434 0.96147 0.15292 0.0
C1024 C 0.41385 0.93922 0.1446 0.0
C1025 C 0.42223 0.81747 0.16949 0.0
C1026 C 0.39787 0.80716 0.17961 0.0
C1027 C 0.43129 0.8389 0.15568 0.0
C1028 C 0.41598 0.85015 0.15127 0.0
C1029 C 0.39182 0.8402 0.16166 0.0
C1030 C 0.38283 0.81887 0.17571 0.0
C1031 C 0.42507 0.87192 0.13541 0.0
C1032 C 0.42617 0.89478 0.1432 0.0
C1033 C 0.4336 0.87051 0.11292 0.0
C1034 C 0.43062 0.84633 0.10259 0.0
C1035 C 0.40617 0.82387 0.10117 0.0
C1036 C 0.40335 0.80133 0.09087 0.0
C1037 C 0.4248 0.80104 0.08179 0.0
C1038 C 0.44914 0.82329 0.08301 0.0
C1039 C 0.45208 0.84588 0.09331 0.0
H1040 H 0.42255 0.78359 0.07375 0.0
H1041 H 0.43815 1.00188 0.16137 0.0
H1042 H 0.50896 0.43674 0.17749 0.0
H1043 H 0.51361 0.41797 0.21327 0.0
H1044 H 0.53957 0.4902 0.25026 0.0
H1045 H 0.53477 0.50901 0.21446 0.0
H1046 H 0.57564 0.47338 0.24929 0.0
H1047 H 0.48687 0.4399 0.26771 0.0
H1048 H 0.43959 0.41646 0.2602 0.0
H1049 H 0.44112 0.34674 0.24673 0.0
H1050 H 0.48848 0.36983 0.25382 0.0
H1051 H 0.61384 0.43047 0.34566 0.0
H1052 H 0.59108 0.44718 0.32268 0.0
H1053 H 0.5482 0.37402 0.28566 0.0
H1054 H 0.57009 0.35685 0.30973 0.0
H1055 H 0.5182 0.39358 0.29026 0.0
H1056 H 0.60508 0.42609 0.26438 0.0
H1057 H 0.65274 0.44785 0.26855 0.0
H1058 H 0.65514 0.51739 0.29158 0.0
H1059 H 0.60744 0.49592 0.28783 0.0
C1060 C 0.51471 0.44828 0.19347 0.0
C1061 C 0.52163 0.47431 0.1933 0.0
C1062 C 0.51728 0.43754 0.21389 0.0
C1063 C 0.52696 0.45273 0.23437 0.0
C1064 C 0.53195 0.47817 0.23462 0.0
C1065 C 0.52909 0.48885 0.21424 0.0
C1066 C 0.53623 0.44352 0.2539 0.0
C1067 C 0.563 0.4563 0.2587 0.0
C1068 C 0.51981 0.42065 0.26538 0.0
C1069 C 0.49129 0.40666 0.26115 0.0
C1070 C 0.47717 0.41962 0.26295 0.0
C1071 C 0.45034 0.40638 0.25882 0.0
C1072 C 0.43736 0.38014 0.25296 0.0
C1073 C 0.45119 0.36707 0.25127 0.0
C1074 C 0.47803 0.38022 0.25538 0.0
C1075 C 0.59953 0.41797 0.33267 0.0
C1076 C 0.5941 0.39262 0.329 0.0
C1077 C 0.58647 0.42749 0.31956 0.0
C1078 C 0.56846 0.41211 0.30194 0.0
C1079 C 0.56213 0.38632 0.29905 0.0
C1080 C 0.5747 0.37657 0.31266 0.0
C1081 C 0.55768 0.42341 0.28556 0.0
C1082 C 0.53075 0.41094 0.28119 0.0
C1083 C 0.574 0.44632 0.27396 0.0
C1084 C 0.6027 0.45932 0.27608 0.0
C1085 C 0.61577 0.44597 0.27048 0.0
C1086 C 0.64279 0.45826 0.27275 0.0
C1087 C 0.65695 0.48397 0.28039 0.0
C1088 C 0.64414 0.49747 0.28571 0.0
C1089 C 0.61712 0.48526 0.2835 0.0
H1090 H 0.67787 0.49344 0.28215 0.0
H1091 H 0.41659 0.36992 0.24976 0.0
H1092 H 0.50306 0.97138 0.42033 0.0
H1093 H 0.49521 0.94578 0.38422 0.0
H1094 H 0.41284 0.9146 0.39039 0.0
H1095 H 0.42068 0.93994 0.42639 0.0
H1096 H 0.42563 0.8774 0.38788 0.0
H1097 H 0.44473 0.95307 0.34617 0.0
H1098 H 0.4709 0.99845 0.33574 0.0
H1099 H 0.53259 0.98565 0.31522 0.0
H1100 H 0.50692 0.94025 0.32584 0.0
H1101 H 0.3829 0.79986 0.28396 0.0
H1102 H 0.3914 0.83109 0.31556 0.0
H1103 H 0.47359 0.86622 0.30511 0.0
H1104 H 0.46526 0.83554 0.27326 0.0
H1105 H 0.46117 0.90211 0.30944 0.0
H1106 H 0.44408 0.82787 0.35187 0.0
H1107 H 0.41975 0.78279 0.36359 0.0
H1108 H 0.35654 0.7931 0.38419 0.0
H1109 H 0.38033 0.83817 0.37227 0.0
C1110 C 0.48341 0.95982 0.4134 0.0
C1111 C 0.46245 0.9576 0.42598 0.0
C1112 C 0.4789 0.9451 0.39288 0.0
C1113 C 0.4534 0.92813 0.38471 0.0
C1114 C 0.43263 0.92744 0.39644 0.0
C1115 C 0.43712 0.94204 0.41687 0.0
C1116 C 0.44807 0.90897 0.36568 0.0
C1117 C 0.43303 0.88281 0.37059 0.0
C1118 C 0.45853 0.91602 0.34343 0.0
C1119 C 0.47399 0.94331 0.33702 0.0
C1120 C 0.46396 0.95998 0.33963 0.0
C1121 C 0.47869 0.9857 0.33364 0.0
C1122 C 0.50342 0.99494 0.32488 0.0
C1123 C 0.51344 0.97847 0.32204 0.0
C1124 C 0.4988 0.95273 0.32801 0.0
C1125 C 0.4028 0.81403 0.28857 0.0
C1126 C 0.42338 0.81517 0.27605 0.0
C1127 C 0.40765 0.8319 0.30666 0.0
C1128 C 0.43318 0.85098 0.31281 0.0
C1129 C 0.45374 0.8518 0.30063 0.0
C1130 C 0.44891 0.83412 0.28246 0.0
C1131 C 0.43851 0.87049 0.33157 0.0
C1132 C 0.45364 0.89669 0.32668 0.0
C1133 C 0.42836 0.8635 0.35397 0.0
C1134 C 0.41388 0.83632 0.36093 0.0
C1135 C 0.42488 0.82046 0.35868 0.0
C1136 C 0.41121 0.79492 0.36541 0.0
C1137 C 0.38658 0.78506 0.37457 0.0
C1138 C 0.37559 0.80074 0.37705 0.0
C1139 C 0.38917 0.82629 0.37032 0.0
H1140 H 0.37605 0.7653 0.37979 0.0
H1141 H 0.51479 0.01486 0.32025 0.0
H1142 H 0.58761 0.48446 0.59787 0.0
H1143 H 0.60236 0.47735 0.56073 0.0
H1144 H 0.53175 0.46531 0.52701 0.0
H1145 H 0.51647 0.47165 0.56451 0.0
H1146 H 0.54114 0.42802 0.51476 0.0
H1147 H 0.58992 0.51933 0.51748 0.0
H1148 H 0.61899 0.56263 0.53453 0.0
H1149 H 0.68041 0.54517 0.54109 0.0
H1150 H 0.65159 0.50163 0.52437 0.0
H1151 H 0.62929 0.46225 0.40737 0.0
H1152 H 0.61292 0.47457 0.44061 0.0
H1153 H 0.59585 0.40428 0.47374 0.0
H1154 H 0.61171 0.39137 0.44004 0.0
H1155 H 0.62814 0.48492 0.4837 0.0
H1156 H 0.5434 0.38524 0.50753 0.0
H1157 H 0.51261 0.34371 0.48817 0.0
H1158 H 0.51974 0.38149 0.42399 0.0
H1159 H 0.55028 0.42327 0.44303 0.0
C1160 C 0.57532 0.48055 0.5825 0.0
C1161 C 0.5508 0.47842 0.58409 0.0
C1162 C 0.58385 0.47666 0.56124 0.0
C1163 C 0.5682 0.47087 0.54105 0.0
C1164 C 0.54412 0.46973 0.54239 0.0
C1165 C 0.53552 0.4736 0.56375 0.0
C1166 C 0.57646 0.46448 0.51896 0.0
C1167 C 0.56011 0.44053 0.50788 0.0
C1168 C 0.60106 0.48091 0.5098 0.0
C1169 C 0.61852 0.50713 0.51981 0.0
C1170 C 0.60957 0.52465 0.52271 0.0
C1171 C 0.62601 0.54925 0.53229 0.0
C1172 C 0.65151 0.55663 0.53893 0.0
C1173 C 0.66064 0.53943 0.53595 0.0
C1174 C 0.64427 0.51479 0.52639 0.0
C1175 C 0.6221 0.44932 0.42168 0.0
C1176 C 0.62182 0.42575 0.42098 0.0
C1177 C 0.61276 0.45647 0.44074 0.0
C1178 C 0.60295 0.44031 0.45961 0.0
C1179 C 0.60293 0.41689 0.45919 0.0
C1180 C 0.61213 0.40958 0.43997 0.0
C1181 C 0.59301 0.44826 0.47972 0.0
C1182 C 0.60911 0.47247 0.49048 0.0
C1183 C 0.56793 0.43232 0.48822 0.0
C1184 C 0.54932 0.40733 0.47667 0.0
C1185 C 0.53831 0.38469 0.48931 0.0
C1186 C 0.52092 0.36111 0.47839 0.0
C1187 C 0.51429 0.35996 0.45485 0.0
C1188 C 0.52496 0.3824 0.4422 0.0
C1189 C 0.54234 0.40603 0.45304 0.0
H1190 H 0.50084 0.34168 0.44642 0.0
H1191 H 0.66421 0.57568 0.54635 0.0
H1192 H 0.09476 0.59363 0.76892 0.0
H1193 H 0.11622 0.60416 0.7316 0.0
H1194 H 0.07405 0.52402 0.71023 0.0
H1195 H 0.0522 0.51349 0.7475 0.0
H1196 H 0.12866 0.54706 0.71055 0.0
H1197 H 0.0631 0.56273 0.68008 0.0
H1198 H 0.03422 0.58109 0.67983 0.0
H1199 H 0.10023 0.6573 0.68117 0.0
H1200 H 0.12955 0.63943 0.68178 0.0
H1201 H 0.20619 0.57891 0.61193 0.0
H1202 H 0.1676 0.56117 0.63538 0.0
H1203 H 0.18734 0.63786 0.65803 0.0
H1204 H 0.22529 0.65566 0.63375 0.0
H1205 H 0.13772 0.6108 0.65262 0.0
H1206 H 0.20243 0.59742 0.69106 0.0
H1207 H 0.23331 0.58153 0.69456 0.0
H1208 H 0.17127 0.5041 0.68199 0.0
H1209 H 0.14007 0.51959 0.67814 0.0
C1210 C 0.08949 0.57843 0.75591 0.0
C1211 C 0.07189 0.5528 0.76094 0.0
C1212 C 0.10168 0.58443 0.73464 0.0
C1213 C 0.09667 0.56485 0.71819 0.0
C1214 C 0.07803 0.53938 0.72268 0.0
C1215 C 0.06551 0.53342 0.74386 0.0
C1216 C 0.11359 0.5707 0.69805 0.0
C1217 C 0.13021 0.56049 0.69748 0.0
C1218 C 0.11611 0.58885 0.68158 0.0
C1219 C 0.09854 0.59971 0.68112 0.0
C1220 C 0.07148 0.58341 0.68051 0.0
C1221 C 0.05502 0.59373 0.68027 0.0
C1222 C 0.06538 0.62034 0.68052 0.0
C1223 C 0.09223 0.63669 0.68097 0.0
C1224 C 0.10878 0.62647 0.68123 0.0
C1225 C 0.20229 0.59197 0.62186 0.0
C1226 C 0.21899 0.61865 0.62131 0.0
C1227 C 0.18019 0.58182 0.63527 0.0
C1228 C 0.17481 0.59813 0.64891 0.0
C1229 C 0.19103 0.62484 0.6477 0.0
C1230 C 0.2128 0.635 0.63391 0.0
C1231 C 0.1532 0.58755 0.66538 0.0
C1232 C 0.13581 0.59694 0.66535 0.0
C1233 C 0.15028 0.56902 0.6817 0.0
C1234 C 0.169 0.55968 0.68403 0.0
C1235 C 0.19542 0.57703 0.68887 0.0
C1236 C 0.21297 0.56809 0.69095 0.0
C1237 C 0.20427 0.54184 0.68842 0.0
C1238 C 0.17799 0.52444 0.68389 0.0
C1239 C 0.16037 0.53328 0.68177 0.0
H1240 H 0.21789 0.53496 0.69003 0.0
H1241 H 0.05261 0.6283 0.68033 0.0
H1242 H 0.55399 0.04703 0.92189 0.0
H1243 H 0.56221 0.06736 0.88404 0.0
H1244 H 0.52022 0.10559 0.90402 0.0
H1245 H 0.51248 0.08572 0.94198 0.0
H1246 H 0.51608 0.08984 0.85353 0.0
H1247 H 0.57777 0.13608 0.91808 0.0
H1248 H 0.60694 0.13827 0.95004 0.0
H1249 H 0.65095 0.12143 0.90173 0.0
H1250 H 0.62164 0.1186 0.86955 0.0
H1251 H 0.57235 0.21023 0.80071 0.0
H1252 H 0.55288 0.17275 0.82502 0.0
H1253 H 0.61671 0.15983 0.81213 0.0
H1254 H 0.63674 0.19792 0.78867 0.0
H1255 H 0.60908 0.1571 0.85535 0.0
H1256 H 0.55248 0.11885 0.7893 0.0
H1257 H 0.52272 0.11499 0.75721 0.0
H1258 H 0.46924 0.11503 0.80618 0.0
H1259 H 0.49883 0.11926 0.83857 0.0
C1260 C 0.54571 0.059 0.91776 0.0
C1261 C 0.53271 0.06499 0.93463 0.0
C1262 C 0.55038 0.07055 0.89623 0.0
C1263 C 0.54187 0.08799 0.89138 0.0
C1264 C 0.52674 0.09203 0.90743 0.0
C1265 C 0.52243 0.0808 0.92906 0.0
C1266 C 0.55278 0.10562 0.87198 0.0
C1267 C 0.53638 0.10459 0.85377 0.0
C1268 C 0.57936 0.12444 0.87225 0.0
C1269 C 0.59736 0.12683 0.89148 0.0
C1270 C 0.59355 0.13265 0.91431 0.0
C1271 C 0.61011 0.13402 0.93246 0.0
C1272 C 0.63075 0.12993 0.92792 0.0
C1273 C 0.63492 0.12454 0.90522 0.0
C1274 C 0.61834 0.12304 0.88702 0.0
C1275 C 0.5821 0.19923 0.80287 0.0
C1276 C 0.60621 0.20717 0.79293 0.0
C1277 C 0.57083 0.17765 0.81663 0.0
C1278 C 0.58312 0.16317 0.8202 0.0
C1279 C 0.60685 0.17067 0.80968 0.0
C1280 C 0.61835 0.19254 0.79628 0.0
C1281 C 0.57242 0.14167 0.83654 0.0
C1282 C 0.58888 0.14209 0.85449 0.0
C1283 C 0.54593 0.1222 0.83581 0.0
C1284 C 0.52799 0.11955 0.81638 0.0
C1285 C 0.53446 0.11821 0.79323 0.0
C1286 C 0.5176 0.11593 0.77498 0.0
C1287 C 0.49413 0.1148 0.77965 0.0
C1288 C 0.48743 0.1159 0.80259 0.0
C1289 C 0.50422 0.11821 0.8209 0.0
H1290 H 0.48111 0.11304 0.7655 0.0
H1291 H 0.64355 0.13099 0.94199 0.0
H1292 H 0.44442 0.53901 0.10005 0.0
H1293 H 0.43031 0.54821 0.06308 0.0
H1294 H 0.50881 0.58401 0.03958 0.0
H1295 H 0.52292 0.57436 0.07661 0.0
H1296 H 0.48339 0.61453 0.03635 0.0
H1297 H 0.46856 0.53051 0.01443 0.0
H1298 H 0.45123 0.48416 0.0195 0.0
H1299 H 0.37374 0.47177 0.0194 0.0
H1300 H 0.39063 0.51811 0.01467 0.0
H1301 H 0.44596 0.63725 0.92491 0.0
H1302 H 0.46521 0.62709 0.95799 0.0
H1303 H 0.38888 0.56848 0.97749 0.0
H1304 H 0.37004 0.57733 0.94333 0.0
H1305 H 0.41725 0.5496 0.98122 0.0
H1306 H 0.42939 0.63147 0.00762 0.0
H1307 H 0.44429 0.67773 0.00551 0.0
H1308 H 0.52303 0.69441 0.00077 0.0
H1309 H 0.50855 0.64821 0.00258 0.0
C1310 C 0.45851 0.54836 0.08676 0.0
C1311 C 0.48466 0.55587 0.09096 0.0
C1312 C 0.45048 0.55363 0.06573 0.0
C1313 C 0.46853 0.56676 0.04864 0.0
C1314 C 0.49462 0.57382 0.05258 0.0
C1315 C 0.50261 0.56816 0.07356 0.0
C1316 C 0.46013 0.57427 0.0273 0.0
C1317 C 0.46927 0.60043 0.02399 0.0
C1318 C 0.4411 0.55576 0.01174 0.0
C1319 C 0.43089 0.52783 0.01435 0.0
C1320 C 0.44784 0.51793 0.01566 0.0
C1321 C 0.43809 0.49165 0.01844 0.0
C1322 C 0.41141 0.47504 0.01981 0.0
C1323 C 0.3944 0.48466 0.01834 0.0
C1324 C 0.40405 0.51093 0.01558 0.0
C1325 C 0.43337 0.62249 0.93654 0.0
C1326 C 0.40657 0.60817 0.93181 0.0
C1327 C 0.44433 0.61672 0.95551 0.0
C1328 C 0.42854 0.5972 0.97059 0.0
C1329 C 0.40159 0.58352 0.96615 0.0
C1330 C 0.39077 0.5887 0.94677 0.0
C1331 C 0.43997 0.59007 0.99034 0.0
C1332 C 0.43146 0.56389 0.99339 0.0
C1333 C 0.45912 0.60859 0.006 0.0
C1334 C 0.46786 0.63637 0.00499 0.0
C1335 C 0.44986 0.645 0.00597 0.0
C1336 C 0.45823 0.67121 0.00485 0.0
C1337 C 0.48458 0.68899 0.00294 0.0
C1338 C 0.50262 0.68061 0.00221 0.0
C1339 C 0.49435 0.65442 0.00331 0.0
H1340 H 0.49102 0.70927 0.00206 0.0
H1341 H 0.4039 0.4547 0.02197 0.0
H1342 H 0.96254 0.47634 0.26158 0.0
H1343 H 0.93703 0.45832 0.22524 0.0
H1344 H 0.90539 0.50873 0.23302 0.0
H1345 H 0.93062 0.52654 0.26927 0.0
H1346 H 0.86769 0.46018 0.22617 0.0
H1347 H 0.94807 0.51681 0.19029 0.0
H1348 H 0.99459 0.5355 0.18279 0.0
H1349 H 0.9814 0.46154 0.15942 0.0
H1350 H 0.93483 0.44233 0.16707 0.0
H1351 H 0.79914 0.43181 0.11717 0.0
H1352 H 0.82793 0.45244 0.15118 0.0
H1353 H 0.86163 0.4041 0.1411 0.0
H1354 H 0.83343 0.38385 0.10691 0.0
H1355 H 0.89863 0.45168 0.14899 0.0
H1356 H 0.81902 0.39468 0.18532 0.0
H1357 H 0.77252 0.3751 0.19333 0.0
H1358 H 0.78426 0.44858 0.21653 0.0
H1359 H 0.8308 0.46866 0.20836 0.0
C1360 C 0.95068 0.48401 0.25515 0.0
C1361 C 0.94845 0.50274 0.26824 0.0
C1362 C 0.93604 0.47367 0.23444 0.0
C1363 C 0.91918 0.4821 0.22644 0.0
C1364 C 0.91807 0.50178 0.23892 0.0
C1365 C 0.93257 0.512 0.25957 0.0
C1366 C 0.90123 0.46925 0.20609 0.0
C1367 C 0.8745 0.45866 0.20919 0.0
C1368 C 0.91001 0.46655 0.18413 0.0
C1369 C 0.938 0.47809 0.17947 0.0
C1370 C 0.95512 0.50449 0.18373 0.0
C1371 C 0.98149 0.51518 0.17942 0.0
C1372 C 0.99096 0.4997 0.17069 0.0
C1373 C 0.97405 0.4735 0.1662 0.0
C1374 C 0.94766 0.46271 0.1705 0.0
C1375 C 0.81245 0.42535 0.12235 0.0
C1376 C 0.81394 0.40617 0.10926 0.0
C1377 C 0.82892 0.43717 0.14183 0.0
C1378 C 0.84692 0.42977 0.14881 0.0
C1379 C 0.84804 0.41026 0.13603 0.0
C1380 C 0.83177 0.39861 0.1165 0.0
C1381 C 0.86508 0.44272 0.16903 0.0
C1382 C 0.89182 0.45325 0.16594 0.0
C1383 C 0.85632 0.44525 0.19107 0.0
C1384 C 0.82835 0.43321 0.196 0.0
C1385 C 0.81165 0.4067 0.19195 0.0
C1386 C 0.78529 0.3955 0.19655 0.0
C1387 C 0.77543 0.4106 0.20537 0.0
C1388 C 0.79192 0.43691 0.20967 0.0
C1389 C 0.81829 0.44821 0.20507 0.0
H1390 H 0.75502 0.40189 0.20893 0.0
H1391 H 0.01138 0.50802 0.16736 0.0
loop_
_geom_bond_atom_site_label_1
_geom_bond_atom_site_label_2
_geom_bond_distance
_geom_bond_site_symmetry_2
_ccdc_geom_bond_type
H0 C6 0.930 . S
H1 C9 0.931 . S
H2 C11 0.931 . S
H3 C13 0.930 . S
H4 C15 0.930 . S
H5 C17 0.931 . S
C6 H0 0.930 . S
C6 C7 1.380 . S
C6 C8 1.394 . S
C7 C6 1.380 . S
C7 C11 1.382 . S
C8 C6 1.394 . S
C8 C9 1.400 . S
C9 H1 0.931 . S
C9 C8 1.400 . S
C9 C10 1.375 . S
C10 C9 1.375 . S
C10 C11 1.415 . S
C10 C12 1.501 1_455 S
C11 H2 0.931 . S
C11 C7 1.382 . S
C11 C10 1.415 . S
C12 C10 1.501 1_655 S
C12 C13 1.384 . S
C12 C17 1.408 . S
C13 H3 0.930 . S
C13 C12 1.384 . S
C13 C14 1.389 . S
C14 C13 1.389 . S
C14 C15 1.405 . S
C15 H4 0.930 . S
C15 C14 1.405 . S
C15 C16 1.364 . S
C16 C15 1.364 . S
C16 C17 1.400 . S
C17 H5 0.931 . S
C17 C12 1.408 . S
C17 C16 1.400 . S
H18 C24 0.930 . S
H19 C27 0.931 . S
H20 C29 0.931 . S
H21 C31 0.930 . S
H22 C33 0.930 . S
H23 C35 0.931 1_545 S
C24 H18 0.930 . S
C24 C25 1.380 . S
C24 C26 1.394 . S
C25 C24 1.380 . S
C25 C29 1.382 . S
C26 C24 1.394 . S
C26 C27 1.400 . S
C27 H19 0.931 . S
C27 C26 1.400 . S
C27 C28 1.375 . S
C28 C27 1.375 . S
C28 C29 1.415 . S
C28 C30 1.501 1_545 S
C29 H20 0.931 . S
C29 C25 1.382 . S
C29 C28 1.415 . S
C30 C28 1.501 1_565 S
C30 C31 1.384 . S
C30 C35 1.408 . S
C31 H21 0.930 . S
C31 C30 1.384 . S
C31 C32 1.389 . S
C32 C31 1.389 . S
C32 C33 1.405 . S
C33 H22 0.930 . S
C33 C32 1.405 . S
C33 C34 1.364 . S
C34 C33 1.364 . S
C34 C35 1.400 . S
C35 H23 0.931 1_565 S
C35 C30 1.408 . S
C35 C34 1.400 . S
H36 C42 0.930 . S
H37 C45 0.931 . S
H38 C47 0.931 . S
H39 C49 0.930 . S
H40 C51 0.930 . S
H41 C53 0.931 . S
C42 H36 0.930 . S
C42 C43 1.380 . S
C42 C44 1.394 . S
C43 C42 1.380 . S
C43 C47 1.382 . S
C44 C42 1.394 . S
C44 C45 1.400 . S
C45 H37 0.931 . S
C45 C44 1.400 . S
C45 C46 1.375 . S
C46 C45 1.375 . S
C46 C47 1.415 . S
C46 C48 1.501 . S
C47 H38 0.931 . S
C47 C43 1.382 . S
C47 C46 1.415 . S
C48 C46 1.501 . S
C48 C49 1.384 . S
C48 C53 1.408 . S
C49 H39 0.930 . S
C49 C48 1.384 . S
C49 C50 1.389 . S
C50 C49 1.389 . S
C50 C51 1.405 . S
C51 H40 0.930 . S
C51 C50 1.405 . S
C51 C52 1.364 . S
C52 C51 1.364 . S
C52 C53 1.400 . S
C53 H41 0.931 . S
C53 C48 1.408 . S
C53 C52 1.400 . S
H54 C60 0.930 . S
H55 C63 0.931 . S
H56 C65 0.931 . S
H57 C67 0.930 . S
H58 C69 0.930 . S
H59 C71 0.931 1_455 S
C60 H54 0.930 . S
C60 C61 1.380 . S
C60 C62 1.394 . S
C61 C60 1.380 . S
C61 C65 1.382 . S
C62 C60 1.394 . S
C62 C63 1.400 . S
C63 H55 0.931 . S
C63 C62 1.400 . S
C63 C64 1.375 . S
C64 C63 1.375 . S
C64 C65 1.415 . S
C64 C66 1.501 1_455 S
C65 H56 0.931 . S
C65 C61 1.382 . S
C65 C64 1.415 . S
C66 C64 1.501 1_655 S
C66 C67 1.384 . S
C66 C71 1.408 . S
C67 H57 0.930 . S
C67 C66 1.384 . S
C67 C68 1.389 . S
C68 C67 1.389 . S
C68 C69 1.405 . S
C69 H58 0.930 . S
C69 C68 1.405 . S
C69 C70 1.364 . S
C70 C69 1.364 . S
C70 C71 1.400 . S
C71 H59 0.931 1_655 S
C71 C66 1.408 . S
C71 C70 1.400 . S
H72 C78 0.930 . S
H73 C81 0.931 . S
H74 C83 0.931 1_545 S
H75 C85 0.930 . S
H76 C87 0.930 . S
H77 C89 0.931 . S
C78 H72 0.930 . S
C78 C79 1.380 . S
C78 C80 1.394 1_554 S
C79 C78 1.380 . S
C79 C83 1.382 . S
C80 C78 1.394 1_556 S
C80 C81 1.400 . S
C81 H73 0.931 . S
C81 C80 1.400 . S
C81 C82 1.371 1_565 S
C82 C81 1.371 1_545 S
C82 C83 1.414 1_546 S
C82 C84 1.505 . S
C83 H74 0.931 1_565 S
C83 C79 1.382 . S
C83 C82 1.414 1_564 S
C84 C82 1.505 . S
C84 C85 1.384 1_556 S
C84 C89 1.408 . S
C85 H75 0.930 . S
C85 C84 1.384 1_554 S
C85 C86 1.389 1_554 S
C86 C85 1.389 1_556 S
C86 C87 1.405 . S
C87 H76 0.930 . S
C87 C86 1.405 . S
C87 C88 1.364 . S
C88 C87 1.364 . S
C88 C89 1.400 . S
C89 H77 0.931 . S
C89 C84 1.408 . S
C89 C88 1.400 . S
H90 C96 0.930 . S
H91 C99 0.931 . S
H92 C101 0.931 . S
H93 C103 0.930 . S
H94 C105 0.930 . S
H95 C107 0.931 . S
C96 H90 0.930 . S
C96 C97 1.380 . S
C96 C98 1.394 . S
C97 C96 1.380 . S
C97 C101 1.382 . S
C98 C96 1.394 . S
C98 C99 1.400 . S
C99 H91 0.931 . S
C99 C98 1.400 . S
C99 C100 1.375 . S
C100 C99 1.375 . S
C100 C101 1.415 . S
C100 C102 1.501 . S
C101 H92 0.931 . S
C101 C97 1.382 . S
C101 C100 1.415 . S
C102 C100 1.501 . S
C102 C103 1.384 . S
C102 C107 1.408 . S
C103 H93 0.930 . S
C103 C102 1.384 . S
C103 C104 1.389 . S
C104 C103 1.389 . S
C104 C105 1.405 . S
C105 H94 0.930 . S
C105 C104 1.405 . S
C105 C106 1.364 . S
C106 C105 1.364 . S
C106 C107 1.400 . S
C107 H95 0.931 . S
C107 C102 1.408 . S
C107 C106 1.400 . S
Mg108 O109 2.028 . S
Mg108 O115 1.986 . S
Mg108 O117 2.114 . S
Mg108 O118 2.251 . S
Mg108 O121 2.010 . S
O109 Mg108 2.028 . S
O109 C112 1.250 . S
O110 Mg111 2.028 . S
O110 C112 1.248 . S
Mg111 O110 2.028 . S
Mg111 O116 2.032 . S
Mg111 O118 2.079 . S
C112 O109 1.250 . S
C112 O110 1.248 . S
C113 O114 1.264 . S
C113 O121 1.249 . S
O114 C113 1.264 . S
O115 Mg108 1.986 . S
O115 C119 1.246 . S
O116 Mg111 2.032 . S
O116 C119 1.259 . S
O117 Mg108 2.114 . S
O117 C120 1.252 . S
O118 Mg108 2.251 . S
O118 Mg111 2.079 . S
O118 C120 1.273 . S
C119 O115 1.246 . S
C119 O116 1.259 . S
C120 O117 1.252 . S
C120 O118 1.273 . S
O121 Mg108 2.010 . S
O121 C113 1.249 . S
Mg122 O123 2.028 . S
Mg122 O129 1.986 . S
Mg122 O131 2.114 . S
Mg122 O132 2.251 . S
Mg122 O135 2.010 . S
O123 Mg122 2.028 . S
O123 C126 1.250 . S
O124 Mg125 2.028 . S
O124 C126 1.248 . S
Mg125 O124 2.028 . S
Mg125 O130 2.032 . S
Mg125 O132 2.079 . S
C126 O123 1.250 . S
C126 O124 1.248 . S
C127 O128 1.264 . S
C127 O135 1.249 . S
O128 C127 1.264 . S
O129 Mg122 1.986 . S
O129 C133 1.246 . S
O130 Mg125 2.032 . S
O130 C133 1.259 . S
O131 Mg122 2.114 . S
O131 C134 1.252 . S
O132 Mg122 2.251 . S
O132 Mg125 2.079 . S
O132 C134 1.273 . S
C133 O129 1.246 . S
C133 O130 1.259 . S
C134 O131 1.252 . S
C134 O132 1.273 . S
O135 Mg122 2.010 . S
O135 C127 1.249 . S
Mg136 O137 2.028 . S
Mg136 O143 1.986 . S
Mg136 O145 2.114 . S
Mg136 O146 2.251 . S
Mg136 O149 2.010 . S
O137 Mg136 2.028 . S
O137 C140 1.250 . S
O138 Mg139 2.028 . S
O138 C140 1.248 . S
Mg139 O138 2.028 . S
Mg139 O144 2.032 . S
Mg139 O146 2.079 . S
C140 O137 1.250 . S
C140 O138 1.248 . S
C141 O142 1.264 . S
C141 O149 1.249 . S
O142 C141 1.264 . S
O143 Mg136 1.986 . S
O143 C147 1.246 . S
O144 Mg139 2.032 . S
O144 C147 1.259 . S
O145 Mg136 2.114 . S
O145 C148 1.252 . S
O146 Mg136 2.251 . S
O146 Mg139 2.079 . S
O146 C148 1.273 . S
C147 O143 1.246 . S
C147 O144 1.259 . S
C148 O145 1.252 . S
C148 O146 1.273 . S
O149 Mg136 2.010 . S
O149 C141 1.249 . S
Mg150 O151 2.028 . S
Mg150 O157 1.986 . S
Mg150 O159 2.114 . S
Mg150 O160 2.251 . S
Mg150 O163 2.010 . S
O151 Mg150 2.028 . S
O151 C154 1.250 . S
O152 Mg153 2.028 . S
O152 C154 1.248 . S
Mg153 O152 2.028 . S
Mg153 O158 2.032 . S
Mg153 O160 2.079 . S
C154 O151 1.250 . S
C154 O152 1.248 . S
C155 O156 1.264 . S
C155 O163 1.249 . S
O156 C155 1.264 . S
O157 Mg150 1.986 . S
O157 C161 1.246 . S
O158 Mg153 2.032 . S
O158 C161 1.259 . S
O159 Mg150 2.114 . S
O159 C162 1.252 . S
O160 Mg150 2.251 . S
O160 Mg153 2.079 . S
O160 C162 1.273 . S
C161 O157 1.246 . S
C161 O158 1.259 . S
C162 O159 1.252 . S
C162 O160 1.273 . S
O163 Mg150 2.010 . S
O163 C155 1.249 . S
Mg164 O165 2.028 . S
Mg164 O171 1.986 . S
Mg164 O173 2.114 . S
Mg164 O174 2.251 . S
Mg164 O177 2.010 . S
O165 Mg164 2.028 . S
O165 C168 1.250 . S
O166 Mg167 2.028 . S
O166 C168 1.248 . S
Mg167 O166 2.028 . S
Mg167 O172 2.032 . S
Mg167 O174 2.079 . S
C168 O165 1.250 . S
C168 O166 1.248 . S
C169 O170 1.264 . S
C169 O177 1.249 . S
O170 C169 1.264 . S
O171 Mg164 1.986 . S
O171 C175 1.246 . S
O172 Mg167 2.032 . S
O172 C175 1.259 . S
O173 Mg164 2.114 . S
O173 C176 1.252 . S
O174 Mg164 2.251 . S
O174 Mg167 2.079 . S
O174 C176 1.273 . S
C175 O171 1.246 . S
C175 O172 1.259 . S
C176 O173 1.252 . S
C176 O174 1.273 . S
O177 Mg164 2.010 . S
O177 C169 1.249 . S
Mg178 O179 2.028 . S
Mg178 O185 1.986 . S
Mg178 O187 2.114 . S
Mg178 O188 2.251 . S
Mg178 O191 2.010 . S
O179 Mg178 2.028 . S
O179 C182 1.250 . S
O180 Mg181 2.028 . S
O180 C182 1.248 . S
Mg181 O180 2.028 . S
Mg181 O186 2.032 . S
Mg181 O188 2.079 . S
C182 O179 1.250 . S
C182 O180 1.248 . S
C183 O184 1.264 . S
C183 O191 1.249 . S
O184 C183 1.264 . S
O185 Mg178 1.986 . S
O185 C189 1.246 . S
O186 Mg181 2.032 . S
O186 C189 1.259 . S
O187 Mg178 2.114 . S
O187 C190 1.252 . S
O188 Mg178 2.251 . S
O188 Mg181 2.079 . S
O188 C190 1.273 . S
C189 O185 1.246 . S
C189 O186 1.259 . S
C190 O187 1.252 . S
C190 O188 1.273 . S
O191 Mg178 2.010 . S
O191 C183 1.249 . S
H192 C210 0.951 . S
H193 C212 0.951 . S
H194 C214 0.950 . S
H195 C215 0.950 . S
H196 C217 0.950 . S
H197 C220 0.950 . S
H198 C221 0.950 . S
H199 C223 0.950 . S
H200 C224 0.950 . S
H201 C225 0.951 . S
H202 C227 0.951 . S
H203 C229 0.950 . S
H204 C230 0.950 . S
H205 C232 0.950 . S
H206 C235 0.950 . S
H207 C236 0.950 . S
H208 C238 0.950 . S
H209 C239 0.950 . S
C210 H192 0.951 . S
C210 C211 1.366 . S
C210 C212 1.388 . S
C211 C210 1.366 . S
C211 C215 1.385 . S
C212 H193 0.951 . S
C212 C210 1.388 . S
C212 C213 1.366 . S
C213 C212 1.366 . S
C213 C214 1.414 . S
C213 C216 1.499 . S
C214 H194 0.950 . S
C214 C213 1.414 . S
C214 C215 1.374 . S
C215 H195 0.950 . S
C215 C211 1.385 . S
C215 C214 1.374 . S
C216 C213 1.499 . S
C216 C217 1.373 . S
C216 C218 1.389 . S
C217 H196 0.950 . S
C217 C216 1.373 . S
C217 C233 1.377 . S
C218 C216 1.389 . S
C218 C219 1.524 . S
C218 C232 1.377 . S
C219 C218 1.524 . S
C219 C220 1.397 . S
C219 C224 1.363 . S
C220 H197 0.950 . S
C220 C219 1.397 . S
C220 C221 1.334 . S
C221 H198 0.950 . S
C221 C220 1.334 . S
C221 C222 1.287 . S
C222 C221 1.287 . S
C222 C223 1.524 . S
C222 H241 0.913 . S
C223 H199 0.950 . S
C223 C222 1.524 . S
C223 C224 1.415 . S
C224 H200 0.950 . S
C224 C219 1.363 . S
C224 C223 1.415 . S
C225 H201 0.951 . S
C225 C226 1.366 . S
C225 C227 1.388 . S
C226 C225 1.366 . S
C226 C230 1.385 . S
C227 H202 0.951 . S
C227 C225 1.388 . S
C227 C228 1.366 . S
C228 C227 1.366 . S
C228 C229 1.414 . S
C228 C231 1.499 . S
C229 H203 0.950 . S
C229 C228 1.414 . S
C229 C230 1.374 . S
C230 H204 0.950 . S
C230 C226 1.385 . S
C230 C229 1.374 . S
C231 C228 1.499 . S
C231 C232 1.373 . S
C231 C233 1.389 . S
C232 H205 0.950 . S
C232 C218 1.377 . S
C232 C231 1.373 . S
C233 C217 1.377 . S
C233 C231 1.389 . S
C233 C234 1.524 . S
C234 C233 1.524 . S
C234 C235 1.397 . S
C234 C239 1.363 . S
C235 H206 0.950 . S
C235 C234 1.397 . S
C235 C236 1.334 . S
C236 H207 0.950 . S
C236 C235 1.334 . S
C236 C237 1.287 . S
C237 C236 1.287 . S
C237 C238 1.524 . S
C237 H240 0.999 . S
C238 H208 0.950 . S
C238 C237 1.524 . S
C238 C239 1.415 . S
C239 H209 0.950 . S
C239 C234 1.363 . S
C239 C238 1.415 . S
H240 C237 0.999 . S
H241 C222 0.913 . S
H242 C260 0.951 . S
H243 C262 0.951 . S
H244 C264 0.950 . S
H245 C265 0.950 . S
H246 C267 0.950 . S
H247 C270 0.950 . S
H248 C271 0.950 . S
H249 C273 0.950 . S
H250 C274 0.950 . S
H251 C275 0.951 . S
H252 C277 0.951 . S
H253 C279 0.950 . S
H254 C280 0.950 . S
H255 C282 0.950 . S
H256 C285 0.950 . S
H257 C286 0.950 . S
H258 C288 0.950 . S
H259 C289 0.950 . S
C260 H242 0.951 . S
C260 C261 1.366 . S
C260 C262 1.388 . S
C261 C260 1.366 . S
C261 C265 1.385 . S
C262 H243 0.951 . S
C262 C260 1.388 . S
C262 C263 1.366 . S
C263 C262 1.366 . S
C263 C264 1.414 . S
C263 C266 1.499 . S
C264 H244 0.950 . S
C264 C263 1.414 . S
C264 C265 1.374 . S
C265 H245 0.950 . S
C265 C261 1.385 . S
C265 C264 1.374 . S
C266 C263 1.499 . S
C266 C267 1.373 . S
C266 C268 1.389 . S
C267 H246 0.950 . S
C267 C266 1.373 . S
C267 C283 1.377 . S
C268 C266 1.389 . S
C268 C269 1.524 . S
C268 C282 1.377 . S
C269 C268 1.524 . S
C269 C270 1.397 . S
C269 C274 1.363 . S
C270 H247 0.950 . S
C270 C269 1.397 . S
C270 C271 1.334 . S
C271 H248 0.950 . S
C271 C270 1.334 . S
C271 C272 1.287 . S
C272 C271 1.287 . S
C272 C273 1.524 . S
C272 H291 0.913 . S
C273 H249 0.950 . S
C273 C272 1.524 . S
C273 C274 1.415 . S
C274 H250 0.950 . S
C274 C269 1.363 . S
C274 C273 1.415 . S
C275 H251 0.951 . S
C275 C276 1.366 . S
C275 C277 1.388 . S
C276 C275 1.366 . S
C276 C280 1.385 . S
C277 H252 0.951 . S
C277 C275 1.388 . S
C277 C278 1.366 . S
C278 C277 1.366 . S
C278 C279 1.414 . S
C278 C281 1.499 . S
C279 H253 0.950 . S
C279 C278 1.414 . S
C279 C280 1.374 . S
C280 H254 0.950 . S
C280 C276 1.385 . S
C280 C279 1.374 . S
C281 C278 1.499 . S
C281 C282 1.373 . S
C281 C283 1.389 . S
C282 H255 0.950 . S
C282 C268 1.377 . S
C282 C281 1.373 . S
C283 C267 1.377 . S
C283 C281 1.389 . S
C283 C284 1.524 . S
C284 C283 1.524 . S
C284 C285 1.397 . S
C284 C289 1.363 . S
C285 H256 0.950 . S
C285 C284 1.397 . S
C285 C286 1.334 . S
C286 H257 0.950 . S
C286 C285 1.334 . S
C286 C287 1.287 . S
C287 C286 1.287 . S
C287 C288 1.524 . S
C287 H290 0.999 . S
C288 H258 0.950 . S
C288 C287 1.524 . S
C288 C289 1.415 . S
C289 H259 0.950 . S
C289 C284 1.363 . S
C289 C288 1.415 . S
H290 C287 0.999 . S
H291 C272 0.913 . S
H292 C310 0.951 . S
H293 C312 0.951 . S
H294 C314 0.950 . S
H295 C315 0.950 . S
H296 C317 0.950 . S
H297 C320 0.950 . S
H298 C321 0.950 . S
H299 C323 0.950 . S
H300 C324 0.950 . S
H301 C325 0.951 . S
H302 C327 0.951 . S
H303 C329 0.950 . S
H304 C330 0.950 . S
H305 C332 0.950 . S
H306 C335 0.950 . S
H307 C336 0.950 . S
H308 C338 0.950 . S
H309 C339 0.950 . S
C310 H292 0.951 . S
C310 C311 1.366 . S
C310 C312 1.388 . S
C311 C310 1.366 . S
C311 C315 1.385 . S
C312 H293 0.951 . S
C312 C310 1.388 . S
C312 C313 1.366 . S
C313 C312 1.366 . S
C313 C314 1.414 . S
C313 C316 1.499 . S
C314 H294 0.950 . S
C314 C313 1.414 . S
C314 C315 1.374 . S
C315 H295 0.950 . S
C315 C311 1.385 . S
C315 C314 1.374 . S
C316 C313 1.499 . S
C316 C317 1.373 . S
C316 C318 1.389 . S
C317 H296 0.950 . S
C317 C316 1.373 . S
C317 C333 1.377 . S
C318 C316 1.389 . S
C318 C319 1.524 . S
C318 C332 1.377 . S
C319 C318 1.524 . S
C319 C320 1.397 . S
C319 C324 1.363 . S
C320 H297 0.950 . S
C320 C319 1.397 . S
C320 C321 1.334 . S
C321 H298 0.950 . S
C321 C320 1.334 . S
C321 C322 1.287 . S
C322 C321 1.287 . S
C322 C323 1.524 . S
C322 H341 0.913 . S
C323 H299 0.950 . S
C323 C322 1.524 . S
C323 C324 1.415 . S
C324 H300 0.950 . S
C324 C319 1.363 . S
C324 C323 1.415 . S
C325 H301 0.951 . S
C325 C326 1.366 . S
C325 C327 1.388 . S
C326 C325 1.366 . S
C326 C330 1.385 . S
C327 H302 0.951 . S
C327 C325 1.388 . S
C327 C328 1.366 . S
C328 C327 1.366 . S
C328 C329 1.414 . S
C328 C331 1.499 . S
C329 H303 0.950 . S
C329 C328 1.414 . S
C329 C330 1.374 . S
C330 H304 0.950 . S
C330 C326 1.385 . S
C330 C329 1.374 . S
C331 C328 1.499 . S
C331 C332 1.373 . S
C331 C333 1.389 . S
C332 H305 0.950 . S
C332 C318 1.377 . S
C332 C331 1.373 . S
C333 C317 1.377 . S
C333 C331 1.389 . S
C333 C334 1.524 . S
C334 C333 1.524 . S
C334 C335 1.397 . S
C334 C339 1.363 . S
C335 H306 0.950 . S
C335 C334 1.397 . S
C335 C336 1.334 . S
C336 H307 0.950 . S
C336 C335 1.334 . S
C336 C337 1.287 . S
C337 C336 1.287 . S
C337 C338 1.524 . S
C337 H340 0.999 . S
C338 H308 0.950 . S
C338 C337 1.524 . S
C338 C339 1.415 . S
C339 H309 0.950 . S
C339 C334 1.363 . S
C339 C338 1.415 . S
H340 C337 0.999 . S
H341 C322 0.913 . S
H342 C360 0.951 . S
H343 C362 0.951 . S
H344 C364 0.950 . S
H345 C365 0.950 . S
H346 C367 0.950 . S
H347 C370 0.950 . S
H348 C371 0.950 . S
H349 C373 0.950 . S
H350 C374 0.950 . S
H351 C375 0.951 . S
H352 C377 0.951 . S
H353 C379 0.950 . S
H354 C380 0.950 . S
H355 C382 0.950 . S
H356 C385 0.950 . S
H357 C386 0.950 . S
H358 C388 0.950 . S
H359 C389 0.950 . S
C360 H342 0.951 . S
C360 C361 1.366 . S
C360 C362 1.388 . S
C361 C360 1.366 . S
C361 C365 1.385 . S
C362 H343 0.951 . S
C362 C360 1.388 . S
C362 C363 1.366 . S
C363 C362 1.366 . S
C363 C364 1.414 . S
C363 C366 1.499 . S
C364 H344 0.950 . S
C364 C363 1.414 . S
C364 C365 1.374 . S
C365 H345 0.950 . S
C365 C361 1.385 . S
C365 C364 1.374 . S
C366 C363 1.499 . S
C366 C367 1.373 . S
C366 C368 1.389 . S
C367 H346 0.950 . S
C367 C366 1.373 . S
C367 C383 1.377 . S
C368 C366 1.389 . S
C368 C369 1.524 . S
C368 C382 1.377 . S
C369 C368 1.524 . S
C369 C370 1.397 . S
C369 C374 1.363 . S
C370 H347 0.950 . S
C370 C369 1.397 . S
C370 C371 1.334 . S
C371 H348 0.950 . S
C371 C370 1.334 . S
C371 C372 1.287 . S
C372 C371 1.287 . S
C372 C373 1.524 . S
C372 H391 0.913 . S
C373 H349 0.950 . S
C373 C372 1.524 . S
C373 C374 1.415 . S
C374 H350 0.950 . S
C374 C369 1.363 . S
C374 C373 1.415 . S
C375 H351 0.951 . S
C375 C376 1.366 . S
C375 C377 1.388 . S
C376 C375 1.366 . S
C376 C380 1.385 . S
C377 H352 0.951 . S
C377 C375 1.388 . S
C377 C378 1.366 . S
C378 C377 1.366 . S
C378 C379 1.414 . S
C378 C381 1.499 . S
C379 H353 0.950 . S
C379 C378 1.414 . S
C379 C380 1.374 . S
C380 H354 0.950 . S
C380 C376 1.385 . S
C380 C379 1.374 . S
C381 C378 1.499 . S
C381 C382 1.373 . S
C381 C383 1.389 . S
C382 H355 0.950 . S
C382 C368 1.377 . S
C382 C381 1.373 . S
C383 C367 1.377 . S
C383 C381 1.389 . S
C383 C384 1.524 . S
C384 C383 1.524 . S
C384 C385 1.397 . S
C384 C389 1.363 . S
C385 H356 0.950 . S
C385 C384 1.397 . S
C385 C386 1.334 . S
C386 H357 0.950 . S
C386 C385 1.334 . S
C386 C387 1.287 . S
C387 C386 1.287 . S
C387 C388 1.524 . S
C387 H390 0.999 . S
C388 H358 0.950 . S
C388 C387 1.524 . S
C388 C389 1.415 . S
C389 H359 0.950 . S
C389 C384 1.363 . S
C389 C388 1.415 . S
H390 C387 0.999 . S
H391 C372 0.913 . S
H392 C410 0.951 . S
H393 C412 0.951 . S
H394 C414 0.950 . S
H395 C415 0.950 . S
H396 C417 0.950 . S
H397 C420 0.950 1_556 S
H398 C421 0.950 . S
H399 C423 0.950 . S
H400 C424 0.950 . S
H401 C425 0.951 . S
H402 C427 0.951 . S
H403 C429 0.950 . S
H404 C430 0.950 . S
H405 C432 0.950 . S
H406 C435 0.950 . S
H407 C436 0.950 . S
H408 C438 0.950 . S
H409 C439 0.950 . S
C410 H392 0.951 . S
C410 C411 1.366 . S
C410 C412 1.388 . S
C411 C410 1.366 . S
C411 C415 1.385 . S
C412 H393 0.951 . S
C412 C410 1.388 . S
C412 C413 1.366 . S
C413 C412 1.366 . S
C413 C414 1.414 . S
C413 C416 1.499 . S
C414 H394 0.950 . S
C414 C413 1.414 . S
C414 C415 1.374 . S
C415 H395 0.950 . S
C415 C411 1.385 . S
C415 C414 1.374 . S
C416 C413 1.499 . S
C416 C417 1.373 . S
C416 C418 1.389 . S
C417 H396 0.950 . S
C417 C416 1.373 . S
C417 C433 1.377 . S
C418 C416 1.389 . S
C418 C419 1.524 . S
C418 C432 1.377 . S
C419 C418 1.524 . S
C419 C420 1.397 1_556 S
C419 C424 1.363 . S
C420 H397 0.950 1_554 S
C420 C419 1.397 1_554 S
C420 C421 1.334 . S
C421 H398 0.950 . S
C421 C420 1.334 . S
C421 C422 1.287 . S
C422 C421 1.287 . S
C422 C423 1.524 . S
C422 H441 0.913 . S
C423 H399 0.950 . S
C423 C422 1.524 . S
C423 C424 1.415 1_554 S
C424 H400 0.950 . S
C424 C419 1.363 . S
C424 C423 1.415 1_556 S
C425 H401 0.951 . S
C425 C426 1.366 . S
C425 C427 1.388 . S
C426 C425 1.366 . S
C426 C430 1.385 . S
C427 H402 0.951 . S
C427 C425 1.388 . S
C427 C428 1.366 . S
C428 C427 1.366 . S
C428 C429 1.414 . S
C428 C431 1.499 . S
C429 H403 0.950 . S
C429 C428 1.414 . S
C429 C430 1.374 . S
C430 H404 0.950 . S
C430 C426 1.385 . S
C430 C429 1.374 . S
C431 C428 1.499 . S
C431 C432 1.373 . S
C431 C433 1.389 . S
C432 H405 0.950 . S
C432 C418 1.377 . S
C432 C431 1.373 . S
C433 C417 1.377 . S
C433 C431 1.389 . S
C433 C434 1.524 . S
C434 C433 1.524 . S
C434 C435 1.397 . S
C434 C439 1.363 . S
C435 H406 0.950 . S
C435 C434 1.397 . S
C435 C436 1.334 . S
C436 H407 0.950 . S
C436 C435 1.334 . S
C436 C437 1.287 . S
C437 C436 1.287 . S
C437 C438 1.524 . S
C437 H440 0.999 . S
C438 H408 0.950 . S
C438 C437 1.524 . S
C438 C439 1.415 . S
C439 H409 0.950 . S
C439 C434 1.363 . S
C439 C438 1.415 . S
H440 C437 0.999 . S
H441 C422 0.913 . S
H442 C460 0.951 . S
H443 C462 0.951 . S
H444 C464 0.950 . S
H445 C465 0.950 . S
H446 C467 0.950 . S
H447 C470 0.950 . S
H448 C471 0.950 . S
H449 C473 0.950 . S
H450 C474 0.950 . S
H451 C475 0.951 . S
H452 C477 0.951 . S
H453 C479 0.950 . S
H454 C480 0.950 . S
H455 C482 0.950 . S
H456 C485 0.950 . S
H457 C486 0.950 . S
H458 C488 0.950 . S
H459 C489 0.950 . S
C460 H442 0.951 . S
C460 C461 1.366 . S
C460 C462 1.388 . S
C461 C460 1.366 . S
C461 C465 1.385 . S
C462 H443 0.951 . S
C462 C460 1.388 . S
C462 C463 1.366 . S
C463 C462 1.366 . S
C463 C464 1.414 . S
C463 C466 1.499 . S
C464 H444 0.950 . S
C464 C463 1.414 . S
C464 C465 1.374 . S
C465 H445 0.950 . S
C465 C461 1.385 . S
C465 C464 1.374 . S
C466 C463 1.499 . S
C466 C467 1.373 . S
C466 C468 1.389 . S
C467 H446 0.950 . S
C467 C466 1.373 . S
C467 C483 1.377 . S
C468 C466 1.389 . S
C468 C469 1.524 . S
C468 C482 1.377 . S
C469 C468 1.524 . S
C469 C470 1.397 . S
C469 C474 1.363 . S
C470 H447 0.950 . S
C470 C469 1.397 . S
C470 C471 1.334 . S
C471 H448 0.950 . S
C471 C470 1.334 . S
C471 C472 1.287 . S
C472 C471 1.287 . S
C472 C473 1.524 . S
C472 H491 0.913 . S
C473 H449 0.950 . S
C473 C472 1.524 . S
C473 C474 1.415 . S
C474 H450 0.950 . S
C474 C469 1.363 . S
C474 C473 1.415 . S
C475 H451 0.951 . S
C475 C476 1.366 . S
C475 C477 1.388 . S
C476 C475 1.366 . S
C476 C480 1.385 . S
C477 H452 0.951 . S
C477 C475 1.388 . S
C477 C478 1.366 . S
C478 C477 1.366 . S
C478 C479 1.414 . S
C478 C481 1.499 . S
C479 H453 0.950 . S
C479 C478 1.414 . S
C479 C480 1.374 . S
C480 H454 0.950 . S
C480 C476 1.385 . S
C480 C479 1.374 . S
C481 C478 1.499 . S
C481 C482 1.373 . S
C481 C483 1.389 . S
C482 H455 0.950 . S
C482 C468 1.377 . S
C482 C481 1.373 . S
C483 C467 1.377 . S
C483 C481 1.389 . S
C483 C484 1.524 . S
C484 C483 1.524 . S
C484 C485 1.397 . S
C484 C489 1.363 . S
C485 H456 0.950 . S
C485 C484 1.397 . S
C485 C486 1.334 . S
C486 H457 0.950 . S
C486 C485 1.334 . S
C486 C487 1.287 . S
C487 C486 1.287 . S
C487 C488 1.524 . S
C487 H490 0.999 . S
C488 H458 0.950 . S
C488 C487 1.524 . S
C488 C489 1.415 . S
C489 H459 0.950 . S
C489 C484 1.363 . S
C489 C488 1.415 . S
H490 C487 0.999 . S
H491 C472 0.913 . S
H492 C510 0.951 . S
H493 C512 0.951 . S
H494 C514 0.950 . S
H495 C515 0.950 . S
H496 C517 0.950 . S
H497 C520 0.950 . S
H498 C521 0.950 . S
H499 C523 0.950 . S
H500 C524 0.950 . S
H501 C525 0.951 . S
H502 C527 0.951 . S
H503 C529 0.950 . S
H504 C530 0.950 . S
H505 C532 0.950 . S
H506 C535 0.950 . S
H507 C536 0.950 . S
H508 C538 0.950 . S
H509 C539 0.950 . S
C510 H492 0.951 . S
C510 C511 1.366 . S
C510 C512 1.388 . S
C511 C510 1.366 . S
C511 C515 1.385 . S
C512 H493 0.951 . S
C512 C510 1.388 . S
C512 C513 1.366 . S
C513 C512 1.366 . S
C513 C514 1.414 . S
C513 C516 1.499 . S
C514 H494 0.950 . S
C514 C513 1.414 . S
C514 C515 1.374 . S
C515 H495 0.950 . S
C515 C511 1.385 . S
C515 C514 1.374 . S
C516 C513 1.499 . S
C516 C517 1.373 . S
C516 C518 1.389 . S
C517 H496 0.950 . S
C517 C516 1.373 . S
C517 C533 1.377 . S
C518 C516 1.389 . S
C518 C519 1.524 . S
C518 C532 1.377 . S
C519 C518 1.524 . S
C519 C520 1.397 . S
C519 C524 1.363 . S
C520 H497 0.950 . S
C520 C519 1.397 . S
C520 C521 1.334 . S
C521 H498 0.950 . S
C521 C520 1.334 . S
C521 C522 1.287 . S
C522 C521 1.287 . S
C522 C523 1.524 . S
C522 H541 0.913 . S
C523 H499 0.950 . S
C523 C522 1.524 . S
C523 C524 1.415 . S
C524 H500 0.950 . S
C524 C519 1.363 . S
C524 C523 1.415 . S
C525 H501 0.951 . S
C525 C526 1.366 . S
C525 C527 1.388 . S
C526 C525 1.366 . S
C526 C530 1.385 . S
C527 H502 0.951 . S
C527 C525 1.388 . S
C527 C528 1.366 . S
C528 C527 1.366 . S
C528 C529 1.414 . S
C528 C531 1.499 . S
C529 H503 0.950 . S
C529 C528 1.414 . S
C529 C530 1.374 . S
C530 H504 0.950 . S
C530 C526 1.385 . S
C530 C529 1.374 . S
C531 C528 1.499 . S
C531 C532 1.373 . S
C531 C533 1.389 . S
C532 H505 0.950 . S
C532 C518 1.377 . S
C532 C531 1.373 . S
C533 C517 1.377 . S
C533 C531 1.389 . S
C533 C534 1.524 . S
C534 C533 1.524 . S
C534 C535 1.397 . S
C534 C539 1.363 . S
C535 H506 0.950 . S
C535 C534 1.397 . S
C535 C536 1.334 . S
C536 H507 0.950 . S
C536 C535 1.334 . S
C536 C537 1.287 . S
C537 C536 1.287 . S
C537 C538 1.524 . S
C537 H540 0.999 . S
C538 H508 0.950 . S
C538 C537 1.524 . S
C538 C539 1.415 . S
C539 H509 0.950 . S
C539 C534 1.363 . S
C539 C538 1.415 . S
H540 C537 0.999 . S
H541 C522 0.913 . S
H542 C560 0.951 . S
H543 C562 0.951 . S
H544 C564 0.950 . S
H545 C565 0.950 . S
H546 C567 0.950 . S
H547 C570 0.950 . S
H548 C571 0.950 . S
H549 C573 0.950 . S
H550 C574 0.950 . S
H551 C575 0.951 . S
H552 C577 0.951 . S
H553 C579 0.950 . S
H554 C580 0.950 . S
H555 C582 0.950 . S
H556 C585 0.950 . S
H557 C586 0.950 . S
H558 C588 0.950 . S
H559 C589 0.950 . S
C560 H542 0.951 . S
C560 C561 1.366 . S
C560 C562 1.388 . S
C561 C560 1.366 . S
C561 C565 1.385 . S
C562 H543 0.951 . S
C562 C560 1.388 . S
C562 C563 1.366 . S
C563 C562 1.366 . S
C563 C564 1.414 . S
C563 C566 1.499 . S
C564 H544 0.950 . S
C564 C563 1.414 . S
C564 C565 1.374 . S
C565 H545 0.950 . S
C565 C561 1.385 . S
C565 C564 1.374 . S
C566 C563 1.499 . S
C566 C567 1.373 . S
C566 C568 1.389 . S
C567 H546 0.950 . S
C567 C566 1.373 . S
C567 C583 1.377 . S
C568 C566 1.389 . S
C568 C569 1.524 . S
C568 C582 1.377 . S
C569 C568 1.524 . S
C569 C570 1.397 . S
C569 C574 1.363 . S
C570 H547 0.950 . S
C570 C569 1.397 . S
C570 C571 1.334 . S
C571 H548 0.950 . S
C571 C570 1.334 . S
C571 C572 1.287 . S
C572 C571 1.287 . S
C572 C573 1.524 . S
C572 H591 0.913 . S
C573 H549 0.950 . S
C573 C572 1.524 . S
C573 C574 1.415 . S
C574 H550 0.950 . S
C574 C569 1.363 . S
C574 C573 1.415 . S
C575 H551 0.951 . S
C575 C576 1.366 . S
C575 C577 1.388 . S
C576 C575 1.366 . S
C576 C580 1.385 . S
C577 H552 0.951 . S
C577 C575 1.388 . S
C577 C578 1.366 . S
C578 C577 1.366 . S
C578 C579 1.414 . S
C578 C581 1.499 . S
C579 H553 0.950 . S
C579 C578 1.414 . S
C579 C580 1.374 . S
C580 H554 0.950 . S
C580 C576 1.385 . S
C580 C579 1.374 . S
C581 C578 1.499 . S
C581 C582 1.373 . S
C581 C583 1.389 . S
C582 H555 0.950 . S
C582 C568 1.377 . S
C582 C581 1.373 . S
C583 C567 1.377 . S
C583 C581 1.389 . S
C583 C584 1.524 . S
C584 C583 1.524 . S
C584 C585 1.397 . S
C584 C589 1.363 . S
C585 H556 0.950 . S
C585 C584 1.397 . S
C585 C586 1.334 . S
C586 H557 0.950 . S
C586 C585 1.334 . S
C586 C587 1.287 . S
C587 C586 1.287 . S
C587 C588 1.524 . S
C587 H590 0.999 . S
C588 H558 0.950 . S
C588 C587 1.524 . S
C588 C589 1.415 . S
C589 H559 0.950 . S
C589 C584 1.363 . S
C589 C588 1.415 . S
H590 C587 0.999 . S
H591 C572 0.913 . S
H592 C610 0.951 . S
H593 C612 0.951 . S
H594 C614 0.950 . S
H595 C615 0.950 . S
H596 C617 0.950 . S
H597 C620 0.950 . S
H598 C621 0.950 . S
H599 C623 0.950 . S
H600 C624 0.950 . S
H601 C625 0.951 . S
H602 C627 0.951 . S
H603 C629 0.950 . S
H604 C630 0.950 . S
H605 C632 0.950 . S
H606 C635 0.950 . S
H607 C636 0.950 . S
H608 C638 0.950 . S
H609 C639 0.950 . S
C610 H592 0.951 . S
C610 C611 1.366 . S
C610 C612 1.388 . S
C611 C610 1.366 . S
C611 C615 1.385 . S
C612 H593 0.951 . S
C612 C610 1.388 . S
C612 C613 1.366 . S
C613 C612 1.366 . S
C613 C614 1.414 . S
C613 C616 1.499 . S
C614 H594 0.950 . S
C614 C613 1.414 . S
C614 C615 1.374 . S
C615 H595 0.950 . S
C615 C611 1.385 . S
C615 C614 1.374 . S
C616 C613 1.499 . S
C616 C617 1.373 . S
C616 C618 1.389 . S
C617 H596 0.950 . S
C617 C616 1.373 . S
C617 C633 1.377 . S
C618 C616 1.389 . S
C618 C619 1.524 . S
C618 C632 1.377 . S
C619 C618 1.524 . S
C619 C620 1.397 . S
C619 C624 1.363 . S
C620 H597 0.950 . S
C620 C619 1.397 . S
C620 C621 1.334 . S
C621 H598 0.950 . S
C621 C620 1.334 . S
C621 C622 1.287 . S
C622 C621 1.287 . S
C622 C623 1.524 . S
C622 H641 0.913 . S
C623 H599 0.950 . S
C623 C622 1.524 . S
C623 C624 1.415 . S
C624 H600 0.950 . S
C624 C619 1.363 . S
C624 C623 1.415 . S
C625 H601 0.951 . S
C625 C626 1.366 . S
C625 C627 1.388 . S
C626 C625 1.366 . S
C626 C630 1.385 . S
C627 H602 0.951 . S
C627 C625 1.388 . S
C627 C628 1.366 . S
C628 C627 1.366 . S
C628 C629 1.414 . S
C628 C631 1.499 . S
C629 H603 0.950 . S
C629 C628 1.414 . S
C629 C630 1.374 . S
C630 H604 0.950 . S
C630 C626 1.385 . S
C630 C629 1.374 . S
C631 C628 1.499 . S
C631 C632 1.373 . S
C631 C633 1.389 . S
C632 H605 0.950 . S
C632 C618 1.377 . S
C632 C631 1.373 . S
C633 C617 1.377 . S
C633 C631 1.389 . S
C633 C634 1.524 . S
C634 C633 1.524 . S
C634 C635 1.397 . S
C634 C639 1.363 . S
C635 H606 0.950 . S
C635 C634 1.397 . S
C635 C636 1.334 . S
C636 H607 0.950 . S
C636 C635 1.334 . S
C636 C637 1.287 . S
C637 C636 1.287 . S
C637 C638 1.524 . S
C637 H640 0.999 . S
C638 H608 0.950 . S
C638 C637 1.524 . S
C638 C639 1.415 . S
C639 H609 0.950 . S
C639 C634 1.363 . S
C639 C638 1.415 . S
H640 C637 0.999 . S
H641 C622 0.913 . S
H642 C660 0.937 1_556 S
H643 C662 0.951 . S
H644 C664 0.950 . S
H645 C665 0.950 . S
H646 C667 0.950 . S
H647 C670 0.950 . S
H648 C671 0.950 . S
H649 C673 0.950 . S
H650 C674 0.950 . S
H651 C675 0.951 . S
H652 C677 0.951 . S
H653 C679 0.950 . S
H654 C680 0.950 . S
H655 C682 0.950 . S
H656 C685 0.950 . S
H657 C686 0.950 . S
H658 C688 0.950 . S
H659 C689 0.950 . S
C660 H642 0.937 1_554 S
C660 C661 1.374 . S
C660 C662 1.394 . S
C661 C660 1.374 . S
C661 C665 1.385 . S
C662 H643 0.951 . S
C662 C660 1.394 . S
C662 C663 1.366 . S
C663 C662 1.366 . S
C663 C664 1.414 . S
C663 C666 1.499 . S
C664 H644 0.950 . S
C664 C663 1.414 . S
C664 C665 1.374 . S
C665 H645 0.950 . S
C665 C661 1.385 . S
C665 C664 1.374 . S
C666 C663 1.499 . S
C666 C667 1.373 . S
C666 C668 1.389 . S
C667 H646 0.950 . S
C667 C666 1.373 . S
C667 C683 1.377 . S
C668 C666 1.389 . S
C668 C669 1.524 . S
C668 C682 1.377 . S
C669 C668 1.524 . S
C669 C670 1.397 . S
C669 C674 1.363 . S
C670 H647 0.950 . S
C670 C669 1.397 . S
C670 C671 1.334 . S
C671 H648 0.950 . S
C671 C670 1.334 . S
C671 C672 1.287 . S
C672 C671 1.287 . S
C672 C673 1.524 . S
C672 H691 0.913 . S
C673 H649 0.950 . S
C673 C672 1.524 . S
C673 C674 1.415 . S
C674 H650 0.950 . S
C674 C669 1.363 . S
C674 C673 1.415 . S
C675 H651 0.951 . S
C675 C676 1.366 . S
C675 C677 1.388 . S
C676 C675 1.366 . S
C676 C680 1.385 . S
C677 H652 0.951 . S
C677 C675 1.388 . S
C677 C678 1.366 . S
C678 C677 1.366 . S
C678 C679 1.414 . S
C678 C681 1.499 . S
C679 H653 0.950 . S
C679 C678 1.414 . S
C679 C680 1.374 . S
C680 H654 0.950 . S
C680 C676 1.385 . S
C680 C679 1.374 . S
C681 C678 1.499 . S
C681 C682 1.373 . S
C681 C683 1.389 . S
C682 H655 0.950 . S
C682 C668 1.377 . S
C682 C681 1.373 . S
C683 C667 1.377 . S
C683 C681 1.389 . S
C683 C684 1.524 . S
C684 C683 1.524 . S
C684 C685 1.397 . S
C684 C689 1.363 . S
C685 H656 0.950 . S
C685 C684 1.397 . S
C685 C686 1.334 1_554 S
C686 H657 0.950 . S
C686 C685 1.334 1_556 S
C686 C687 1.287 1_556 S
C687 C686 1.287 1_554 S
C687 C688 1.524 . S
C687 H690 1.000 1_554 S
C688 H658 0.950 . S
C688 C687 1.524 . S
C688 C689 1.415 . S
C689 H659 0.950 . S
C689 C684 1.363 . S
C689 C688 1.415 . S
H690 C687 1.000 1_556 S
H691 C672 0.913 . S
H692 C710 0.951 . S
H693 C712 0.951 . S
H694 C714 0.950 . S
H695 C715 0.950 . S
H696 C717 0.950 . S
H697 C720 0.950 . S
H698 C721 0.950 . S
H699 C723 0.950 . S
H700 C724 0.950 . S
H701 C725 0.951 . S
H702 C727 0.951 . S
H703 C729 0.950 . S
H704 C730 0.950 . S
H705 C732 0.950 . S
H706 C735 0.950 . S
H707 C736 0.950 . S
H708 C738 0.950 . S
H709 C739 0.950 . S
C710 H692 0.951 . S
C710 C711 1.366 . S
C710 C712 1.388 . S
C711 C710 1.366 . S
C711 C715 1.385 . S
C712 H693 0.951 . S
C712 C710 1.388 . S
C712 C713 1.366 . S
C713 C712 1.366 . S
C713 C714 1.414 . S
C713 C716 1.499 . S
C714 H694 0.950 . S
C714 C713 1.414 . S
C714 C715 1.374 . S
C715 H695 0.950 . S
C715 C711 1.385 . S
C715 C714 1.374 . S
C716 C713 1.499 . S
C716 C717 1.373 . S
C716 C718 1.389 . S
C717 H696 0.950 . S
C717 C716 1.373 . S
C717 C733 1.377 . S
C718 C716 1.389 . S
C718 C719 1.524 . S
C718 C732 1.377 . S
C719 C718 1.524 . S
C719 C720 1.397 . S
C719 C724 1.363 . S
C720 H697 0.950 . S
C720 C719 1.397 . S
C720 C721 1.334 . S
C721 H698 0.950 . S
C721 C720 1.334 . S
C721 C722 1.287 . S
C722 C721 1.287 . S
C722 C723 1.524 . S
C722 H741 0.913 . S
C723 H699 0.950 . S
C723 C722 1.524 . S
C723 C724 1.415 . S
C724 H700 0.950 . S
C724 C719 1.363 . S
C724 C723 1.415 . S
C725 H701 0.951 . S
C725 C726 1.366 . S
C725 C727 1.388 . S
C726 C725 1.366 . S
C726 C730 1.385 . S
C727 H702 0.951 . S
C727 C725 1.388 . S
C727 C728 1.366 . S
C728 C727 1.366 . S
C728 C729 1.414 . S
C728 C731 1.499 . S
C729 H703 0.950 . S
C729 C728 1.414 . S
C729 C730 1.374 . S
C730 H704 0.950 . S
C730 C726 1.385 . S
C730 C729 1.374 . S
C731 C728 1.499 . S
C731 C732 1.373 . S
C731 C733 1.389 . S
C732 H705 0.950 . S
C732 C718 1.377 . S
C732 C731 1.373 . S
C733 C717 1.377 . S
C733 C731 1.389 . S
C733 C734 1.524 . S
C734 C733 1.524 . S
C734 C735 1.397 . S
C734 C739 1.363 . S
C735 H706 0.950 . S
C735 C734 1.397 . S
C735 C736 1.334 . S
C736 H707 0.950 . S
C736 C735 1.334 . S
C736 C737 1.287 . S
C737 C736 1.287 . S
C737 C738 1.524 . S
C737 H740 0.999 . S
C738 H708 0.950 . S
C738 C737 1.524 . S
C738 C739 1.415 . S
C739 H709 0.950 . S
C739 C734 1.363 . S
C739 C738 1.415 . S
H740 C737 0.999 . S
H741 C722 0.913 . S
H742 C760 0.951 . S
H743 C762 0.951 . S
H744 C764 0.950 . S
H745 C765 0.950 . S
H746 C767 0.950 . S
H747 C770 0.950 . S
H748 C771 0.950 . S
H749 C773 0.950 . S
H750 C774 0.950 . S
H751 C775 0.951 . S
H752 C777 0.951 . S
H753 C779 0.950 . S
H754 C780 0.950 . S
H755 C782 0.950 . S
H756 C785 0.950 . S
H757 C786 0.950 . S
H758 C788 0.950 . S
H759 C789 0.950 . S
C760 H742 0.951 . S
C760 C761 1.366 . S
C760 C762 1.388 . S
C761 C760 1.366 . S
C761 C765 1.385 . S
C762 H743 0.951 . S
C762 C760 1.388 . S
C762 C763 1.366 . S
C763 C762 1.366 . S
C763 C764 1.414 . S
C763 C766 1.499 . S
C764 H744 0.950 . S
C764 C763 1.414 . S
C764 C765 1.374 . S
C765 H745 0.950 . S
C765 C761 1.385 . S
C765 C764 1.374 . S
C766 C763 1.499 . S
C766 C767 1.373 . S
C766 C768 1.389 . S
C767 H746 0.950 . S
C767 C766 1.373 . S
C767 C783 1.377 . S
C768 C766 1.389 . S
C768 C769 1.524 . S
C768 C782 1.377 . S
C769 C768 1.524 . S
C769 C770 1.397 . S
C769 C774 1.363 . S
C770 H747 0.950 . S
C770 C769 1.397 . S
C770 C771 1.334 . S
C771 H748 0.950 . S
C771 C770 1.334 . S
C771 C772 1.287 . S
C772 C771 1.287 . S
C772 C773 1.524 . S
C772 H791 0.913 . S
C773 H749 0.950 . S
C773 C772 1.524 . S
C773 C774 1.415 . S
C774 H750 0.950 . S
C774 C769 1.363 . S
C774 C773 1.415 . S
C775 H751 0.951 . S
C775 C776 1.366 . S
C775 C777 1.388 . S
C776 C775 1.366 . S
C776 C780 1.385 . S
C777 H752 0.951 . S
C777 C775 1.388 . S
C777 C778 1.366 . S
C778 C777 1.366 . S
C778 C779 1.414 . S
C778 C781 1.499 . S
C779 H753 0.950 . S
C779 C778 1.414 . S
C779 C780 1.374 . S
C780 H754 0.950 . S
C780 C776 1.385 . S
C780 C779 1.374 . S
C781 C778 1.499 . S
C781 C782 1.373 . S
C781 C783 1.389 . S
C782 H755 0.950 . S
C782 C768 1.377 . S
C782 C781 1.373 . S
C783 C767 1.377 . S
C783 C781 1.389 . S
C783 C784 1.524 . S
C784 C783 1.524 . S
C784 C785 1.397 . S
C784 C789 1.363 . S
C785 H756 0.950 . S
C785 C784 1.397 . S
C785 C786 1.334 . S
C786 H757 0.950 . S
C786 C785 1.334 . S
C786 C787 1.287 . S
C787 C786 1.287 . S
C787 C788 1.524 . S
C787 H790 0.999 . S
C788 H758 0.950 . S
C788 C787 1.524 . S
C788 C789 1.415 . S
C789 H759 0.950 . S
C789 C784 1.363 . S
C789 C788 1.415 . S
H790 C787 0.999 . S
H791 C772 0.913 . S
H792 C810 0.951 . S
H793 C812 0.951 . S
H794 C814 0.950 . S
H795 C815 0.950 . S
H796 C817 0.950 . S
H797 C820 0.950 . S
H798 C821 0.950 . S
H799 C823 0.950 . S
H800 C824 0.950 . S
H801 C825 0.951 . S
H802 C827 0.951 . S
H803 C829 0.950 . S
H804 C830 0.950 . S
H805 C832 0.950 . S
H806 C835 0.950 . S
H807 C836 0.950 . S
H808 C838 0.950 . S
H809 C839 0.950 . S
C810 H792 0.951 . S
C810 C811 1.366 . S
C810 C812 1.388 . S
C811 C810 1.366 . S
C811 C815 1.385 . S
C812 H793 0.951 . S
C812 C810 1.388 . S
C812 C813 1.366 . S
C813 C812 1.366 . S
C813 C814 1.414 . S
C813 C816 1.499 . S
C814 H794 0.950 . S
C814 C813 1.414 . S
C814 C815 1.374 . S
C815 H795 0.950 . S
C815 C811 1.385 . S
C815 C814 1.374 . S
C816 C813 1.499 . S
C816 C817 1.373 . S
C816 C818 1.389 . S
C817 H796 0.950 . S
C817 C816 1.373 . S
C817 C833 1.377 . S
C818 C816 1.389 . S
C818 C819 1.524 . S
C818 C832 1.377 . S
C819 C818 1.524 . S
C819 C820 1.397 . S
C819 C824 1.363 . S
C820 H797 0.950 . S
C820 C819 1.397 . S
C820 C821 1.334 . S
C821 H798 0.950 . S
C821 C820 1.334 . S
C821 C822 1.287 . S
C822 C821 1.287 . S
C822 C823 1.524 . S
C822 H841 0.913 . S
C823 H799 0.950 . S
C823 C822 1.524 . S
C823 C824 1.415 . S
C824 H800 0.950 . S
C824 C819 1.363 . S
C824 C823 1.415 . S
C825 H801 0.951 . S
C825 C826 1.366 . S
C825 C827 1.388 . S
C826 C825 1.366 . S
C826 C830 1.385 . S
C827 H802 0.951 . S
C827 C825 1.388 . S
C827 C828 1.366 . S
C828 C827 1.366 . S
C828 C829 1.414 . S
C828 C831 1.499 . S
C829 H803 0.950 . S
C829 C828 1.414 . S
C829 C830 1.374 . S
C830 H804 0.950 . S
C830 C826 1.385 . S
C830 C829 1.374 . S
C831 C828 1.499 . S
C831 C832 1.373 . S
C831 C833 1.389 . S
C832 H805 0.950 . S
C832 C818 1.377 . S
C832 C831 1.373 . S
C833 C817 1.377 . S
C833 C831 1.389 . S
C833 C834 1.524 . S
C834 C833 1.524 . S
C834 C835 1.397 . S
C834 C839 1.363 . S
C835 H806 0.950 . S
C835 C834 1.397 . S
C835 C836 1.334 . S
C836 H807 0.950 . S
C836 C835 1.334 . S
C836 C837 1.287 . S
C837 C836 1.287 . S
C837 C838 1.524 . S
C837 H840 0.999 . S
C838 H808 0.950 . S
C838 C837 1.524 . S
C838 C839 1.415 . S
C839 H809 0.950 . S
C839 C834 1.363 . S
C839 C838 1.415 . S
H840 C837 0.999 . S
H841 C822 0.913 . S
H842 C860 0.951 . S
H843 C862 0.951 . S
H844 C864 0.950 . S
H845 C865 0.950 . S
H846 C867 0.950 . S
H847 C870 0.950 . S
H848 C871 0.950 . S
H849 C873 0.950 . S
H850 C874 0.950 . S
H851 C875 0.951 . S
H852 C877 0.951 . S
H853 C879 0.950 . S
H854 C880 0.950 . S
H855 C882 0.950 . S
H856 C885 0.950 . S
H857 C886 0.950 . S
H858 C888 0.950 . S
H859 C889 0.950 . S
C860 H842 0.951 . S
C860 C861 1.366 . S
C860 C862 1.388 . S
C861 C860 1.366 . S
C861 C865 1.385 . S
C862 H843 0.951 . S
C862 C860 1.388 . S
C862 C863 1.366 . S
C863 C862 1.366 . S
C863 C864 1.414 . S
C863 C866 1.499 . S
C864 H844 0.950 . S
C864 C863 1.414 . S
C864 C865 1.374 . S
C865 H845 0.950 . S
C865 C861 1.385 . S
C865 C864 1.374 . S
C866 C863 1.499 . S
C866 C867 1.373 . S
C866 C868 1.389 . S
C867 H846 0.950 . S
C867 C866 1.373 . S
C867 C883 1.377 . S
C868 C866 1.389 . S
C868 C869 1.524 . S
C868 C882 1.377 . S
C869 C868 1.524 . S
C869 C870 1.397 . S
C869 C874 1.363 . S
C870 H847 0.950 . S
C870 C869 1.397 . S
C870 C871 1.334 . S
C871 H848 0.950 . S
C871 C870 1.334 . S
C871 C872 1.287 . S
C872 C871 1.287 . S
C872 C873 1.524 . S
C872 H891 0.913 . S
C873 H849 0.950 . S
C873 C872 1.524 . S
C873 C874 1.415 . S
C874 H850 0.950 . S
C874 C869 1.363 . S
C874 C873 1.415 . S
C875 H851 0.951 . S
C875 C876 1.366 . S
C875 C877 1.388 . S
C876 C875 1.366 . S
C876 C880 1.385 . S
C877 H852 0.951 . S
C877 C875 1.388 . S
C877 C878 1.366 . S
C878 C877 1.366 . S
C878 C879 1.414 . S
C878 C881 1.499 . S
C879 H853 0.950 . S
C879 C878 1.414 . S
C879 C880 1.374 . S
C880 H854 0.950 . S
C880 C876 1.385 . S
C880 C879 1.374 . S
C881 C878 1.499 . S
C881 C882 1.373 . S
C881 C883 1.389 . S
C882 H855 0.950 . S
C882 C868 1.377 . S
C882 C881 1.373 . S
C883 C867 1.377 . S
C883 C881 1.389 . S
C883 C884 1.524 . S
C884 C883 1.524 . S
C884 C885 1.397 . S
C884 C889 1.363 . S
C885 H856 0.950 . S
C885 C884 1.397 . S
C885 C886 1.334 . S
C886 H857 0.950 . S
C886 C885 1.334 . S
C886 C887 1.287 . S
C887 C886 1.287 . S
C887 C888 1.524 . S
C887 H890 0.999 . S
C888 H858 0.950 . S
C888 C887 1.524 . S
C888 C889 1.415 . S
C889 H859 0.950 . S
C889 C884 1.363 . S
C889 C888 1.415 . S
H890 C887 0.999 . S
H891 C872 0.913 . S
H892 C910 0.951 . S
H893 C912 0.951 . S
H894 C914 0.950 . S
H895 C915 0.950 . S
H896 C917 0.950 . S
H897 C920 0.950 . S
H898 C921 0.950 . S
H899 C923 0.950 . S
H900 C924 0.950 . S
H901 C925 0.951 . S
H902 C927 0.951 . S
H903 C929 0.950 . S
H904 C930 0.950 . S
H905 C932 0.950 . S
H906 C935 0.950 . S
H907 C936 0.950 . S
H908 C938 0.950 . S
H909 C939 0.950 . S
C910 H892 0.951 . S
C910 C911 1.366 . S
C910 C912 1.388 . S
C911 C910 1.366 . S
C911 C915 1.385 . S
C912 H893 0.951 . S
C912 C910 1.388 . S
C912 C913 1.366 . S
C913 C912 1.366 . S
C913 C914 1.414 . S
C913 C916 1.499 . S
C914 H894 0.950 . S
C914 C913 1.414 . S
C914 C915 1.374 . S
C915 H895 0.950 . S
C915 C911 1.385 . S
C915 C914 1.374 . S
C916 C913 1.499 . S
C916 C917 1.373 . S
C916 C918 1.389 . S
C917 H896 0.950 . S
C917 C916 1.373 . S
C917 C933 1.377 . S
C918 C916 1.389 . S
C918 C919 1.524 . S
C918 C932 1.377 . S
C919 C918 1.524 . S
C919 C920 1.397 . S
C919 C924 1.363 . S
C920 H897 0.950 . S
C920 C919 1.397 . S
C920 C921 1.334 . S
C921 H898 0.950 . S
C921 C920 1.334 . S
C921 C922 1.287 . S
C922 C921 1.287 . S
C922 C923 1.524 . S
C922 H941 0.913 . S
C923 H899 0.950 . S
C923 C922 1.524 . S
C923 C924 1.415 . S
C924 H900 0.950 . S
C924 C919 1.363 . S
C924 C923 1.415 . S
C925 H901 0.951 . S
C925 C926 1.366 . S
C925 C927 1.388 . S
C926 C925 1.366 . S
C926 C930 1.385 . S
C927 H902 0.951 . S
C927 C925 1.388 . S
C927 C928 1.366 . S
C928 C927 1.366 . S
C928 C929 1.414 . S
C928 C931 1.499 . S
C929 H903 0.950 . S
C929 C928 1.414 . S
C929 C930 1.374 . S
C930 H904 0.950 . S
C930 C926 1.385 . S
C930 C929 1.374 . S
C931 C928 1.499 . S
C931 C932 1.373 . S
C931 C933 1.389 . S
C932 H905 0.950 . S
C932 C918 1.377 . S
C932 C931 1.373 . S
C933 C917 1.377 . S
C933 C931 1.389 . S
C933 C934 1.524 . S
C934 C933 1.524 . S
C934 C935 1.397 . S
C934 C939 1.363 . S
C935 H906 0.950 . S
C935 C934 1.397 . S
C935 C936 1.334 . S
C936 H907 0.950 . S
C936 C935 1.334 . S
C936 C937 1.287 . S
C937 C936 1.287 . S
C937 C938 1.524 . S
C937 H940 0.999 . S
C938 H908 0.950 . S
C938 C937 1.524 . S
C938 C939 1.415 . S
C939 H909 0.950 . S
C939 C934 1.363 . S
C939 C938 1.415 . S
H940 C937 0.999 . S
H941 C922 0.913 . S
H942 C960 0.951 . S
H943 C962 0.951 . S
H944 C964 0.950 . S
H945 C965 0.950 . S
H946 C967 0.950 . S
H947 C970 0.950 . S
H948 C971 0.950 . S
H949 C973 0.950 . S
H950 C974 0.950 . S
H951 C975 0.951 . S
H952 C977 0.951 . S
H953 C979 0.950 . S
H954 C980 0.950 . S
H955 C982 0.950 . S
H956 C985 0.950 . S
H957 C986 0.950 . S
H958 C988 0.950 . S
H959 C989 0.950 . S
C960 H942 0.951 . S
C960 C961 1.366 . S
C960 C962 1.388 . S
C961 C960 1.366 . S
C961 C965 1.385 . S
C962 H943 0.951 . S
C962 C960 1.388 . S
C962 C963 1.366 . S
C963 C962 1.366 . S
C963 C964 1.414 . S
C963 C966 1.499 . S
C964 H944 0.950 . S
C964 C963 1.414 . S
C964 C965 1.374 . S
C965 H945 0.950 . S
C965 C961 1.385 . S
C965 C964 1.374 . S
C966 C963 1.499 . S
C966 C967 1.373 . S
C966 C968 1.389 . S
C967 H946 0.950 . S
C967 C966 1.373 . S
C967 C983 1.377 . S
C968 C966 1.389 . S
C968 C969 1.524 . S
C968 C982 1.377 . S
C969 C968 1.524 . S
C969 C970 1.397 . S
C969 C974 1.363 . S
C970 H947 0.950 . S
C970 C969 1.397 . S
C970 C971 1.334 . S
C971 H948 0.950 . S
C971 C970 1.334 . S
C971 C972 1.287 . S
C972 C971 1.287 . S
C972 C973 1.524 . S
C972 H991 0.913 . S
C973 H949 0.950 . S
C973 C972 1.524 . S
C973 C974 1.415 . S
C974 H950 0.950 . S
C974 C969 1.363 . S
C974 C973 1.415 . S
C975 H951 0.951 . S
C975 C976 1.366 . S
C975 C977 1.388 1_554 S
C976 C975 1.366 . S
C976 C980 1.385 1_554 S
C977 H952 0.951 . S
C977 C975 1.388 1_556 S
C977 C978 1.366 . S
C978 C977 1.366 . S
C978 C979 1.414 . S
C978 C981 1.499 . S
C979 H953 0.950 . S
C979 C978 1.414 . S
C979 C980 1.374 . S
C980 H954 0.950 . S
C980 C976 1.385 1_556 S
C980 C979 1.374 . S
C981 C978 1.499 . S
C981 C982 1.373 . S
C981 C983 1.389 . S
C982 H955 0.950 . S
C982 C968 1.377 . S
C982 C981 1.373 . S
C983 C967 1.377 . S
C983 C981 1.389 . S
C983 C984 1.524 . S
C984 C983 1.524 . S
C984 C985 1.397 . S
C984 C989 1.363 . S
C985 H956 0.950 . S
C985 C984 1.397 . S
C985 C986 1.334 . S
C986 H957 0.950 . S
C986 C985 1.334 . S
C986 C987 1.287 . S
C987 C986 1.287 . S
C987 C988 1.524 . S
C987 H990 0.999 . S
C988 H958 0.950 . S
C988 C987 1.524 . S
C988 C989 1.415 . S
C989 H959 0.950 . S
C989 C984 1.363 . S
C989 C988 1.415 . S
H990 C987 0.999 . S
H991 C972 0.913 . S
H992 C1010 0.951 . S
H993 C1012 0.951 . S
H994 C1014 0.950 . S
H995 C1015 0.950 . S
H996 C1017 0.950 . S
H997 C1020 0.950 . S
H998 C1021 0.950 . S
H999 C1023 0.950 . S
H1000 C1024 0.950 . S
H1001 C1025 0.951 . S
H1002 C1027 0.951 . S
H1003 C1029 0.950 . S
H1004 C1030 0.950 . S
H1005 C1032 0.950 . S
H1006 C1035 0.950 . S
H1007 C1036 0.950 . S
H1008 C1038 0.950 . S
H1009 C1039 0.950 . S
C1010 H992 0.951 . S
C1010 C1011 1.366 . S
C1010 C1012 1.388 . S
C1011 C1010 1.366 . S
C1011 C1015 1.385 . S
C1012 H993 0.951 . S
C1012 C1010 1.388 . S
C1012 C1013 1.366 . S
C1013 C1012 1.366 . S
C1013 C1014 1.414 . S
C1013 C1016 1.499 . S
C1014 H994 0.950 . S
C1014 C1013 1.414 . S
C1014 C1015 1.374 . S
C1015 H995 0.950 . S
C1015 C1011 1.385 . S
C1015 C1014 1.374 . S
C1016 C1013 1.499 . S
C1016 C1017 1.373 . S
C1016 C1018 1.389 . S
C1017 H996 0.950 . S
C1017 C1016 1.373 . S
C1017 C1033 1.377 . S
C1018 C1016 1.389 . S
C1018 C1019 1.524 . S
C1018 C1032 1.377 . S
C1019 C1018 1.524 . S
C1019 C1020 1.397 . S
C1019 C1024 1.363 . S
C1020 H997 0.950 . S
C1020 C1019 1.397 . S
C1020 C1021 1.334 . S
C1021 H998 0.950 . S
C1021 C1020 1.334 . S
C1021 C1022 1.287 . S
C1022 C1021 1.287 . S
C1022 C1023 1.524 . S
C1022 H1041 0.913 . S
C1023 H999 0.950 . S
C1023 C1022 1.524 . S
C1023 C1024 1.415 . S
C1024 H1000 0.950 . S
C1024 C1019 1.363 . S
C1024 C1023 1.415 . S
C1025 H1001 0.951 . S
C1025 C1026 1.366 . S
C1025 C1027 1.388 . S
C1026 C1025 1.366 . S
C1026 C1030 1.385 . S
C1027 H1002 0.951 . S
C1027 C1025 1.388 . S
C1027 C1028 1.366 . S
C1028 C1027 1.366 . S
C1028 C1029 1.414 . S
C1028 C1031 1.499 . S
C1029 H1003 0.950 . S
C1029 C1028 1.414 . S
C1029 C1030 1.374 . S
C1030 H1004 0.950 . S
C1030 C1026 1.385 . S
C1030 C1029 1.374 . S
C1031 C1028 1.499 . S
C1031 C1032 1.373 . S
C1031 C1033 1.389 . S
C1032 H1005 0.950 . S
C1032 C1018 1.377 . S
C1032 C1031 1.373 . S
C1033 C1017 1.377 . S
C1033 C1031 1.389 . S
C1033 C1034 1.524 . S
C1034 C1033 1.524 . S
C1034 C1035 1.397 . S
C1034 C1039 1.363 . S
C1035 H1006 0.950 . S
C1035 C1034 1.397 . S
C1035 C1036 1.334 . S
C1036 H1007 0.950 . S
C1036 C1035 1.334 . S
C1036 C1037 1.287 . S
C1037 C1036 1.287 . S
C1037 C1038 1.524 . S
C1037 H1040 0.999 . S
C1038 H1008 0.950 . S
C1038 C1037 1.524 . S
C1038 C1039 1.415 . S
C1039 H1009 0.950 . S
C1039 C1034 1.363 . S
C1039 C1038 1.415 . S
H1040 C1037 0.999 . S
H1041 C1022 0.913 . S
H1042 C1060 0.951 . S
H1043 C1062 0.951 . S
H1044 C1064 0.950 . S
H1045 C1065 0.950 . S
H1046 C1067 0.950 . S
H1047 C1070 0.950 . S
H1048 C1071 0.950 . S
H1049 C1073 0.950 . S
H1050 C1074 0.950 . S
H1051 C1075 0.951 . S
H1052 C1077 0.951 . S
H1053 C1079 0.950 . S
H1054 C1080 0.950 . S
H1055 C1082 0.950 . S
H1056 C1085 0.950 . S
H1057 C1086 0.950 . S
H1058 C1088 0.950 . S
H1059 C1089 0.950 . S
C1060 H1042 0.951 . S
C1060 C1061 1.366 . S
C1060 C1062 1.388 . S
C1061 C1060 1.366 . S
C1061 C1065 1.385 . S
C1062 H1043 0.951 . S
C1062 C1060 1.388 . S
C1062 C1063 1.366 . S
C1063 C1062 1.366 . S
C1063 C1064 1.414 . S
C1063 C1066 1.499 . S
C1064 H1044 0.950 . S
C1064 C1063 1.414 . S
C1064 C1065 1.374 . S
C1065 H1045 0.950 . S
C1065 C1061 1.385 . S
C1065 C1064 1.374 . S
C1066 C1063 1.499 . S
C1066 C1067 1.373 . S
C1066 C1068 1.389 . S
C1067 H1046 0.950 . S
C1067 C1066 1.373 . S
C1067 C1083 1.377 . S
C1068 C1066 1.389 . S
C1068 C1069 1.524 . S
C1068 C1082 1.377 . S
C1069 C1068 1.524 . S
C1069 C1070 1.397 . S
C1069 C1074 1.363 . S
C1070 H1047 0.950 . S
C1070 C1069 1.397 . S
C1070 C1071 1.334 . S
C1071 H1048 0.950 . S
C1071 C1070 1.334 . S
C1071 C1072 1.287 . S
C1072 C1071 1.287 . S
C1072 C1073 1.524 . S
C1072 H1091 0.913 . S
C1073 H1049 0.950 . S
C1073 C1072 1.524 . S
C1073 C1074 1.415 . S
C1074 H1050 0.950 . S
C1074 C1069 1.363 . S
C1074 C1073 1.415 . S
C1075 H1051 0.951 . S
C1075 C1076 1.366 . S
C1075 C1077 1.388 . S
C1076 C1075 1.366 . S
C1076 C1080 1.385 . S
C1077 H1052 0.951 . S
C1077 C1075 1.388 . S
C1077 C1078 1.366 . S
C1078 C1077 1.366 . S
C1078 C1079 1.414 . S
C1078 C1081 1.499 . S
C1079 H1053 0.950 . S
C1079 C1078 1.414 . S
C1079 C1080 1.374 . S
C1080 H1054 0.950 . S
C1080 C1076 1.385 . S
C1080 C1079 1.374 . S
C1081 C1078 1.499 . S
C1081 C1082 1.373 . S
C1081 C1083 1.389 . S
C1082 H1055 0.950 . S
C1082 C1068 1.377 . S
C1082 C1081 1.373 . S
C1083 C1067 1.377 . S
C1083 C1081 1.389 . S
C1083 C1084 1.524 . S
C1084 C1083 1.524 . S
C1084 C1085 1.397 . S
C1084 C1089 1.363 . S
C1085 H1056 0.950 . S
C1085 C1084 1.397 . S
C1085 C1086 1.334 . S
C1086 H1057 0.950 . S
C1086 C1085 1.334 . S
C1086 C1087 1.287 . S
C1087 C1086 1.287 . S
C1087 C1088 1.524 . S
C1087 H1090 0.999 . S
C1088 H1058 0.950 . S
C1088 C1087 1.524 . S
C1088 C1089 1.415 . S
C1089 H1059 0.950 . S
C1089 C1084 1.363 . S
C1089 C1088 1.415 . S
H1090 C1087 0.999 . S
H1091 C1072 0.913 . S
H1092 C1110 0.951 . S
H1093 C1112 0.951 . S
H1094 C1114 0.950 . S
H1095 C1115 0.950 . S
H1096 C1117 0.950 . S
H1097 C1120 0.950 . S
H1098 C1121 0.950 . S
H1099 C1123 0.950 . S
H1100 C1124 0.950 . S
H1101 C1125 0.951 . S
H1102 C1127 0.951 . S
H1103 C1129 0.950 . S
H1104 C1130 0.950 . S
H1105 C1132 0.950 . S
H1106 C1135 0.950 . S
H1107 C1136 0.950 . S
H1108 C1138 0.950 . S
H1109 C1139 0.950 . S
C1110 H1092 0.951 . S
C1110 C1111 1.366 . S
C1110 C1112 1.388 . S
C1111 C1110 1.366 . S
C1111 C1115 1.385 . S
C1112 H1093 0.951 . S
C1112 C1110 1.388 . S
C1112 C1113 1.366 . S
C1113 C1112 1.366 . S
C1113 C1114 1.414 . S
C1113 C1116 1.499 . S
C1114 H1094 0.950 . S
C1114 C1113 1.414 . S
C1114 C1115 1.374 . S
C1115 H1095 0.950 . S
C1115 C1111 1.385 . S
C1115 C1114 1.374 . S
C1116 C1113 1.499 . S
C1116 C1117 1.373 . S
C1116 C1118 1.389 . S
C1117 H1096 0.950 . S
C1117 C1116 1.373 . S
C1117 C1133 1.377 . S
C1118 C1116 1.389 . S
C1118 C1119 1.524 . S
C1118 C1132 1.377 . S
C1119 C1118 1.524 . S
C1119 C1120 1.397 . S
C1119 C1124 1.363 . S
C1120 H1097 0.950 . S
C1120 C1119 1.397 . S
C1120 C1121 1.334 . S
C1121 H1098 0.950 . S
C1121 C1120 1.334 . S
C1121 C1122 1.287 . S
C1122 C1121 1.287 . S
C1122 C1123 1.524 . S
C1122 H1141 0.913 . S
C1123 H1099 0.950 . S
C1123 C1122 1.524 . S
C1123 C1124 1.415 . S
C1124 H1100 0.950 . S
C1124 C1119 1.363 . S
C1124 C1123 1.415 . S
C1125 H1101 0.951 . S
C1125 C1126 1.366 . S
C1125 C1127 1.388 . S
C1126 C1125 1.366 . S
C1126 C1130 1.385 . S
C1127 H1102 0.951 . S
C1127 C1125 1.388 . S
C1127 C1128 1.366 . S
C1128 C1127 1.366 . S
C1128 C1129 1.414 . S
C1128 C1131 1.499 . S
C1129 H1103 0.950 . S
C1129 C1128 1.414 . S
C1129 C1130 1.374 . S
C1130 H1104 0.950 . S
C1130 C1126 1.385 . S
C1130 C1129 1.374 . S
C1131 C1128 1.499 . S
C1131 C1132 1.373 . S
C1131 C1133 1.389 . S
C1132 H1105 0.950 . S
C1132 C1118 1.377 . S
C1132 C1131 1.373 . S
C1133 C1117 1.377 . S
C1133 C1131 1.389 . S
C1133 C1134 1.524 . S
C1134 C1133 1.524 . S
C1134 C1135 1.397 . S
C1134 C1139 1.363 . S
C1135 H1106 0.950 . S
C1135 C1134 1.397 . S
C1135 C1136 1.334 . S
C1136 H1107 0.950 . S
C1136 C1135 1.334 . S
C1136 C1137 1.287 . S
C1137 C1136 1.287 . S
C1137 C1138 1.524 . S
C1137 H1140 0.999 . S
C1138 H1108 0.950 . S
C1138 C1137 1.524 . S
C1138 C1139 1.415 . S
C1139 H1109 0.950 . S
C1139 C1134 1.363 . S
C1139 C1138 1.415 . S
H1140 C1137 0.999 . S
H1141 C1122 0.913 . S
H1142 C1160 0.951 . S
H1143 C1162 0.951 . S
H1144 C1164 0.950 . S
H1145 C1165 0.950 . S
H1146 C1167 0.950 . S
H1147 C1170 0.950 . S
H1148 C1171 0.950 . S
H1149 C1173 0.950 . S
H1150 C1174 0.950 . S
H1151 C1175 0.951 . S
H1152 C1177 0.951 . S
H1153 C1179 0.950 . S
H1154 C1180 0.950 . S
H1155 C1182 0.950 . S
H1156 C1185 0.950 . S
H1157 C1186 0.950 . S
H1158 C1188 0.950 . S
H1159 C1189 0.950 . S
C1160 H1142 0.951 . S
C1160 C1161 1.366 . S
C1160 C1162 1.388 . S
C1161 C1160 1.366 . S
C1161 C1165 1.385 . S
C1162 H1143 0.951 . S
C1162 C1160 1.388 . S
C1162 C1163 1.366 . S
C1163 C1162 1.366 . S
C1163 C1164 1.414 . S
C1163 C1166 1.499 . S
C1164 H1144 0.950 . S
C1164 C1163 1.414 . S
C1164 C1165 1.374 . S
C1165 H1145 0.950 . S
C1165 C1161 1.385 . S
C1165 C1164 1.374 . S
C1166 C1163 1.499 . S
C1166 C1167 1.373 . S
C1166 C1168 1.389 . S
C1167 H1146 0.950 . S
C1167 C1166 1.373 . S
C1167 C1183 1.377 . S
C1168 C1166 1.389 . S
C1168 C1169 1.524 . S
C1168 C1182 1.377 . S
C1169 C1168 1.524 . S
C1169 C1170 1.397 . S
C1169 C1174 1.363 . S
C1170 H1147 0.950 . S
C1170 C1169 1.397 . S
C1170 C1171 1.334 . S
C1171 H1148 0.950 . S
C1171 C1170 1.334 . S
C1171 C1172 1.287 . S
C1172 C1171 1.287 . S
C1172 C1173 1.524 . S
C1172 H1191 0.913 . S
C1173 H1149 0.950 . S
C1173 C1172 1.524 . S
C1173 C1174 1.415 . S
C1174 H1150 0.950 . S
C1174 C1169 1.363 . S
C1174 C1173 1.415 . S
C1175 H1151 0.951 . S
C1175 C1176 1.366 . S
C1175 C1177 1.388 . S
C1176 C1175 1.366 . S
C1176 C1180 1.385 . S
C1177 H1152 0.951 . S
C1177 C1175 1.388 . S
C1177 C1178 1.366 . S
C1178 C1177 1.366 . S
C1178 C1179 1.414 . S
C1178 C1181 1.499 . S
C1179 H1153 0.950 . S
C1179 C1178 1.414 . S
C1179 C1180 1.374 . S
C1180 H1154 0.950 . S
C1180 C1176 1.385 . S
C1180 C1179 1.374 . S
C1181 C1178 1.499 . S
C1181 C1182 1.373 . S
C1181 C1183 1.389 . S
C1182 H1155 0.950 . S
C1182 C1168 1.377 . S
C1182 C1181 1.373 . S
C1183 C1167 1.377 . S
C1183 C1181 1.389 . S
C1183 C1184 1.524 . S
C1184 C1183 1.524 . S
C1184 C1185 1.397 . S
C1184 C1189 1.363 . S
C1185 H1156 0.950 . S
C1185 C1184 1.397 . S
C1185 C1186 1.334 . S
C1186 H1157 0.950 . S
C1186 C1185 1.334 . S
C1186 C1187 1.287 . S
C1187 C1186 1.287 . S
C1187 C1188 1.524 . S
C1187 H1190 0.999 . S
C1188 H1158 0.950 . S
C1188 C1187 1.524 . S
C1188 C1189 1.415 . S
C1189 H1159 0.950 . S
C1189 C1184 1.363 . S
C1189 C1188 1.415 . S
H1190 C1187 0.999 . S
H1191 C1172 0.913 . S
H1192 C1210 0.951 . S
H1193 C1212 0.951 . S
H1194 C1214 0.950 . S
H1195 C1215 0.950 . S
H1196 C1217 0.950 . S
H1197 C1220 0.950 . S
H1198 C1221 0.950 . S
H1199 C1223 0.950 . S
H1200 C1224 0.950 . S
H1201 C1225 0.951 . S
H1202 C1227 0.951 . S
H1203 C1229 0.950 . S
H1204 C1230 0.950 . S
H1205 C1232 0.950 . S
H1206 C1235 0.950 . S
H1207 C1236 0.950 . S
H1208 C1238 0.950 . S
H1209 C1239 0.950 . S
C1210 H1192 0.951 . S
C1210 C1211 1.366 . S
C1210 C1212 1.388 . S
C1211 C1210 1.366 . S
C1211 C1215 1.385 . S
C1212 H1193 0.951 . S
C1212 C1210 1.388 . S
C1212 C1213 1.366 . S
C1213 C1212 1.366 . S
C1213 C1214 1.414 . S
C1213 C1216 1.499 . S
C1214 H1194 0.950 . S
C1214 C1213 1.414 . S
C1214 C1215 1.374 . S
C1215 H1195 0.950 . S
C1215 C1211 1.385 . S
C1215 C1214 1.374 . S
C1216 C1213 1.499 . S
C1216 C1217 1.373 . S
C1216 C1218 1.389 . S
C1217 H1196 0.950 . S
C1217 C1216 1.373 . S
C1217 C1233 1.377 . S
C1218 C1216 1.389 . S
C1218 C1219 1.524 . S
C1218 C1232 1.377 . S
C1219 C1218 1.524 . S
C1219 C1220 1.397 . S
C1219 C1224 1.363 . S
C1220 H1197 0.950 . S
C1220 C1219 1.397 . S
C1220 C1221 1.334 . S
C1221 H1198 0.950 . S
C1221 C1220 1.334 . S
C1221 C1222 1.287 . S
C1222 C1221 1.287 . S
C1222 C1223 1.524 . S
C1222 H1241 0.913 . S
C1223 H1199 0.950 . S
C1223 C1222 1.524 . S
C1223 C1224 1.415 . S
C1224 H1200 0.950 . S
C1224 C1219 1.363 . S
C1224 C1223 1.415 . S
C1225 H1201 0.951 . S
C1225 C1226 1.366 . S
C1225 C1227 1.388 . S
C1226 C1225 1.366 . S
C1226 C1230 1.385 . S
C1227 H1202 0.951 . S
C1227 C1225 1.388 . S
C1227 C1228 1.366 . S
C1228 C1227 1.366 . S
C1228 C1229 1.414 . S
C1228 C1231 1.499 . S
C1229 H1203 0.950 . S
C1229 C1228 1.414 . S
C1229 C1230 1.374 . S
C1230 H1204 0.950 . S
C1230 C1226 1.385 . S
C1230 C1229 1.374 . S
C1231 C1228 1.499 . S
C1231 C1232 1.373 . S
C1231 C1233 1.389 . S
C1232 H1205 0.950 . S
C1232 C1218 1.377 . S
C1232 C1231 1.373 . S
C1233 C1217 1.377 . S
C1233 C1231 1.389 . S
C1233 C1234 1.524 . S
C1234 C1233 1.524 . S
C1234 C1235 1.397 . S
C1234 C1239 1.363 . S
C1235 H1206 0.950 . S
C1235 C1234 1.397 . S
C1235 C1236 1.334 . S
C1236 H1207 0.950 . S
C1236 C1235 1.334 . S
C1236 C1237 1.287 . S
C1237 C1236 1.287 . S
C1237 C1238 1.524 . S
C1237 H1240 0.999 . S
C1238 H1208 0.950 . S
C1238 C1237 1.524 . S
C1238 C1239 1.415 . S
C1239 H1209 0.950 . S
C1239 C1234 1.363 . S
C1239 C1238 1.415 . S
H1240 C1237 0.999 . S
H1241 C1222 0.913 . S
H1242 C1260 0.951 . S
H1243 C1262 0.951 . S
H1244 C1264 0.950 . S
H1245 C1265 0.950 . S
H1246 C1267 0.950 . S
H1247 C1270 0.950 . S
H1248 C1271 0.950 . S
H1249 C1273 0.950 . S
H1250 C1274 0.950 . S
H1251 C1275 0.951 . S
H1252 C1277 0.951 . S
H1253 C1279 0.950 . S
H1254 C1280 0.950 . S
H1255 C1282 0.950 . S
H1256 C1285 0.950 . S
H1257 C1286 0.950 . S
H1258 C1288 0.950 . S
H1259 C1289 0.950 . S
C1260 H1242 0.951 . S
C1260 C1261 1.366 . S
C1260 C1262 1.388 . S
C1261 C1260 1.366 . S
C1261 C1265 1.385 . S
C1262 H1243 0.951 . S
C1262 C1260 1.388 . S
C1262 C1263 1.366 . S
C1263 C1262 1.366 . S
C1263 C1264 1.414 . S
C1263 C1266 1.499 . S
C1264 H1244 0.950 . S
C1264 C1263 1.414 . S
C1264 C1265 1.374 . S
C1265 H1245 0.950 . S
C1265 C1261 1.385 . S
C1265 C1264 1.374 . S
C1266 C1263 1.499 . S
C1266 C1267 1.373 . S
C1266 C1268 1.389 . S
C1267 H1246 0.950 . S
C1267 C1266 1.373 . S
C1267 C1283 1.377 . S
C1268 C1266 1.389 . S
C1268 C1269 1.524 . S
C1268 C1282 1.377 . S
C1269 C1268 1.524 . S
C1269 C1270 1.397 . S
C1269 C1274 1.363 . S
C1270 H1247 0.950 . S
C1270 C1269 1.397 . S
C1270 C1271 1.334 . S
C1271 H1248 0.950 . S
C1271 C1270 1.334 . S
C1271 C1272 1.287 . S
C1272 C1271 1.287 . S
C1272 C1273 1.524 . S
C1272 H1291 0.913 . S
C1273 H1249 0.950 . S
C1273 C1272 1.524 . S
C1273 C1274 1.415 . S
C1274 H1250 0.950 . S
C1274 C1269 1.363 . S
C1274 C1273 1.415 . S
C1275 H1251 0.951 . S
C1275 C1276 1.366 . S
C1275 C1277 1.388 . S
C1276 C1275 1.366 . S
C1276 C1280 1.385 . S
C1277 H1252 0.951 . S
C1277 C1275 1.388 . S
C1277 C1278 1.366 . S
C1278 C1277 1.366 . S
C1278 C1279 1.414 . S
C1278 C1281 1.499 . S
C1279 H1253 0.950 . S
C1279 C1278 1.414 . S
C1279 C1280 1.374 . S
C1280 H1254 0.950 . S
C1280 C1276 1.385 . S
C1280 C1279 1.374 . S
C1281 C1278 1.499 . S
C1281 C1282 1.373 . S
C1281 C1283 1.389 . S
C1282 H1255 0.950 . S
C1282 C1268 1.377 . S
C1282 C1281 1.373 . S
C1283 C1267 1.377 . S
C1283 C1281 1.389 . S
C1283 C1284 1.524 . S
C1284 C1283 1.524 . S
C1284 C1285 1.397 . S
C1284 C1289 1.363 . S
C1285 H1256 0.950 . S
C1285 C1284 1.397 . S
C1285 C1286 1.334 . S
C1286 H1257 0.950 . S
C1286 C1285 1.334 . S
C1286 C1287 1.287 . S
C1287 C1286 1.287 . S
C1287 C1288 1.524 . S
C1287 H1290 0.999 . S
C1288 H1258 0.950 . S
C1288 C1287 1.524 . S
C1288 C1289 1.415 . S
C1289 H1259 0.950 . S
C1289 C1284 1.363 . S
C1289 C1288 1.415 . S
H1290 C1287 0.999 . S
H1291 C1272 0.913 . S
H1292 C1310 0.951 . S
H1293 C1312 0.951 . S
H1294 C1314 0.950 . S
H1295 C1315 0.950 . S
H1296 C1317 0.950 . S
H1297 C1320 0.950 . S
H1298 C1321 0.950 . S
H1299 C1323 0.950 . S
H1300 C1324 0.950 . S
H1301 C1325 0.951 . S
H1302 C1327 0.951 . S
H1303 C1329 0.950 1_554 S
H1304 C1330 0.950 . S
H1305 C1332 0.950 . S
H1306 C1335 0.950 . S
H1307 C1336 0.950 . S
H1308 C1338 0.950 . S
H1309 C1339 0.950 . S
C1310 H1292 0.951 . S
C1310 C1311 1.366 . S
C1310 C1312 1.388 . S
C1311 C1310 1.366 . S
C1311 C1315 1.385 . S
C1312 H1293 0.951 . S
C1312 C1310 1.388 . S
C1312 C1313 1.366 . S
C1313 C1312 1.366 . S
C1313 C1314 1.414 . S
C1313 C1316 1.499 . S
C1314 H1294 0.950 . S
C1314 C1313 1.414 . S
C1314 C1315 1.374 . S
C1315 H1295 0.950 . S
C1315 C1311 1.385 . S
C1315 C1314 1.374 . S
C1316 C1313 1.499 . S
C1316 C1317 1.373 . S
C1316 C1318 1.389 . S
C1317 H1296 0.950 . S
C1317 C1316 1.373 . S
C1317 C1333 1.377 . S
C1318 C1316 1.389 . S
C1318 C1319 1.524 . S
C1318 C1332 1.377 . S
C1319 C1318 1.524 . S
C1319 C1320 1.397 . S
C1319 C1324 1.363 . S
C1320 H1297 0.950 . S
C1320 C1319 1.397 . S
C1320 C1321 1.334 . S
C1321 H1298 0.950 . S
C1321 C1320 1.334 . S
C1321 C1322 1.287 . S
C1322 C1321 1.287 . S
C1322 C1323 1.524 . S
C1322 H1341 0.913 . S
C1323 H1299 0.950 . S
C1323 C1322 1.524 . S
C1323 C1324 1.415 . S
C1324 H1300 0.950 . S
C1324 C1319 1.363 . S
C1324 C1323 1.415 . S
C1325 H1301 0.951 . S
C1325 C1326 1.366 . S
C1325 C1327 1.388 . S
C1326 C1325 1.366 . S
C1326 C1330 1.385 . S
C1327 H1302 0.951 . S
C1327 C1325 1.388 . S
C1327 C1328 1.366 . S
C1328 C1327 1.366 . S
C1328 C1329 1.414 . S
C1328 C1331 1.499 1_556 S
C1329 H1303 0.950 1_556 S
C1329 C1328 1.414 . S
C1329 C1330 1.374 . S
C1330 H1304 0.950 . S
C1330 C1326 1.385 . S
C1330 C1329 1.374 . S
C1331 C1328 1.499 1_554 S
C1331 C1332 1.373 . S
C1331 C1333 1.389 . S
C1332 H1305 0.950 . S
C1332 C1318 1.377 . S
C1332 C1331 1.373 . S
C1333 C1317 1.377 . S
C1333 C1331 1.389 . S
C1333 C1334 1.524 . S
C1334 C1333 1.524 . S
C1334 C1335 1.397 . S
C1334 C1339 1.363 1_554 S
C1335 H1306 0.950 . S
C1335 C1334 1.397 . S
C1335 C1336 1.334 1_554 S
C1336 H1307 0.950 . S
C1336 C1335 1.334 1_556 S
C1336 C1337 1.287 . S
C1337 C1336 1.287 . S
C1337 C1338 1.524 . S
C1337 H1340 0.999 . S
C1338 H1308 0.950 . S
C1338 C1337 1.524 . S
C1338 C1339 1.415 . S
C1339 H1309 0.950 . S
C1339 C1334 1.363 1_556 S
C1339 C1338 1.415 . S
H1340 C1337 0.999 . S
H1341 C1322 0.913 . S
H1342 C1360 0.951 . S
H1343 C1362 0.951 . S
H1344 C1364 0.950 . S
H1345 C1365 0.950 . S
H1346 C1367 0.950 . S
H1347 C1370 0.950 . S
H1348 C1371 0.950 . S
H1349 C1373 0.950 . S
H1350 C1374 0.950 . S
H1351 C1375 0.951 . S
H1352 C1377 0.951 . S
H1353 C1379 0.950 . S
H1354 C1380 0.950 . S
H1355 C1382 0.950 . S
H1356 C1385 0.950 . S
H1357 C1386 0.950 . S
H1358 C1388 0.950 . S
H1359 C1389 0.950 . S
C1360 H1342 0.951 . S
C1360 C1361 1.366 . S
C1360 C1362 1.388 . S
C1361 C1360 1.366 . S
C1361 C1365 1.385 . S
C1362 H1343 0.951 . S
C1362 C1360 1.388 . S
C1362 C1363 1.366 . S
C1363 C1362 1.366 . S
C1363 C1364 1.414 . S
C1363 C1366 1.499 . S
C1364 H1344 0.950 . S
C1364 C1363 1.414 . S
C1364 C1365 1.374 . S
C1365 H1345 0.950 . S
C1365 C1361 1.385 . S
C1365 C1364 1.374 . S
C1366 C1363 1.499 . S
C1366 C1367 1.373 . S
C1366 C1368 1.389 . S
C1367 H1346 0.950 . S
C1367 C1366 1.373 . S
C1367 C1383 1.377 . S
C1368 C1366 1.389 . S
C1368 C1369 1.524 . S
C1368 C1382 1.377 . S
C1369 C1368 1.524 . S
C1369 C1370 1.397 . S
C1369 C1374 1.363 . S
C1370 H1347 0.950 . S
C1370 C1369 1.397 . S
C1370 C1371 1.334 . S
C1371 H1348 0.950 . S
C1371 C1370 1.334 . S
C1371 C1372 1.287 . S
C1372 C1371 1.287 . S
C1372 C1373 1.524 . S
C1372 H1391 0.913 . S
C1373 H1349 0.950 . S
C1373 C1372 1.524 . S
C1373 C1374 1.415 . S
C1374 H1350 0.950 . S
C1374 C1369 1.363 . S
C1374 C1373 1.415 . S
C1375 H1351 0.951 . S
C1375 C1376 1.366 . S
C1375 C1377 1.388 . S
C1376 C1375 1.366 . S
C1376 C1380 1.385 . S
C1377 H1352 0.951 . S
C1377 C1375 1.388 . S
C1377 C1378 1.366 . S
C1378 C1377 1.366 . S
C1378 C1379 1.414 . S
C1378 C1381 1.499 . S
C1379 H1353 0.950 . S
C1379 C1378 1.414 . S
C1379 C1380 1.374 . S
C1380 H1354 0.950 . S
C1380 C1376 1.385 . S
C1380 C1379 1.374 . S
C1381 C1378 1.499 . S
C1381 C1382 1.373 . S
C1381 C1383 1.389 . S
C1382 H1355 0.950 . S
C1382 C1368 1.377 . S
C1382 C1381 1.373 . S
C1383 C1367 1.377 . S
C1383 C1381 1.389 . S
C1383 C1384 1.524 . S
C1384 C1383 1.524 . S
C1384 C1385 1.397 . S
C1384 C1389 1.363 . S
C1385 H1356 0.950 . S
C1385 C1384 1.397 . S
C1385 C1386 1.334 . S
C1386 H1357 0.950 . S
C1386 C1385 1.334 . S
C1386 C1387 1.287 . S
C1387 C1386 1.287 . S
C1387 C1388 1.524 . S
C1387 H1390 0.999 . S
C1388 H1358 0.950 . S
C1388 C1387 1.524 . S
C1388 C1389 1.415 . S
C1389 H1359 0.950 . S
C1389 C1384 1.363 . S
C1389 C1388 1.415 . S
H1390 C1387 0.999 . S
H1391 C1372 0.913 . S
C226 C183 1.266 . S
C211 C8 1.443 . S
C261 C26 1.474 . S
C276 C113 1.295 . S
C311 C50 1.440 . S
C326 C133 1.482 . S
C361 C68 1.381 . S
C376 C147 1.416 . S
C426 C155 1.242 . S
C411 C80 1.419 . S
C461 C104 1.435 . S
C476 C169 1.261 . S
C511 C32 1.467 . S
C526 C127 1.291 . S
C561 C44 1.415 . S
C576 C141 1.237 . S
C611 C62 1.367 . S
C626 C161 1.401 . S
C676 C175 1.441 . S
C661 C86 1.400 1_554 S
C726 C189 1.438 . S
C711 C98 1.407 . S
C776 C119 1.465 . S
C761 C14 1.428 . S
C811 C7 1.421 . S
C826 C126 1.441 . S
C861 C25 1.438 . S
C876 C140 1.456 . S
C926 C162 1.471 . S
C911 C52 1.421 . S
C961 C70 1.425 . S
C976 C176 1.479 . S
C1026 C190 1.442 . S
C1011 C79 1.387 . S
C1076 C120 1.426 . S
C1061 C106 1.373 . S
C1126 C182 1.434 . S
C1111 C34 1.419 . S
C1161 C43 1.419 . S
C1176 C112 1.437 . S
C1226 C134 1.462 . S
C1211 C61 1.407 . S
C1261 C88 1.423 . S
C1276 C148 1.472 . S
C1311 C97 1.472 . S
C1326 C154 1.487 . S
C1361 C16 1.456 . S
C1376 C168 1.470 . S
