# Generated by pormake.
# Topology nom, (4,4)-cn, num edge types: 1
# Building blocks:
#     Node 0, Type 0, BuildingBlock: MUDLON_clean_linker_0, # of connection points: 4
#     Node 1, Type 0, BuildingBlock: MUDLON_clean_linker_0, # of connection points: 4
#     Node 2, Type 0, BuildingBlock: MUDLON_clean_linker_0, # of connection points: 4
#     Node 3, Type 0, BuildingBlock: MUDLON_clean_linker_0, # of connection points: 4
#     Node 4, Type 0, BuildingBlock: MUDLON_clean_linker_0, # of connection points: 4
#     Node 5, Type 0, BuildingBlock: MUDLON_clean_linker_0, # of connection points: 4
#     Node 6, Type 1, BuildingBlock: CEKHIL_clean_sbu_0, # of connection points: 4
#     Node 7, Type 1, BuildingBlock: CEKHIL_clean_sbu_0, # of connection points: 4
#     Node 8, Type 1, BuildingBlock: CEKHIL_clean_sbu_0, # of connection points: 4
#     Node 9, Type 1, BuildingBlock: CEKHIL_clean_sbu_0, # of connection points: 4
#     Node 10, Type 1, BuildingBlock: CEKHIL_clean_sbu_0, # of connection points: 4
#     Node 11, Type 1, BuildingBlock: CEKHIL_clean_sbu_0, # of connection points: 4
#     Edge 12, Type (0, 1), BuildingBlock: TEMPAE_clean_linker_10, # of connection points: 2
#     Edge 13, Type (0, 1), BuildingBlock: TEMPAE_clean_linker_10, # of connection points: 2
#     Edge 14, Type (0, 1), BuildingBlock: TEMPAE_clean_linker_10, # of connection points: 2
#     Edge 15, Type (0, 1), BuildingBlock: TEMPAE_clean_linker_10, # of connection points: 2
#     Edge 16, Type (0, 1), BuildingBlock: TEMPAE_clean_linker_10, # of connection points: 2
#     Edge 17, Type (0, 1), BuildingBlock: TEMPAE_clean_linker_10, # of connection points: 2
#     Edge 18, Type (0, 1), BuildingBlock: TEMPAE_clean_linker_10, # of connection points: 2
#     Edge 19, Type (0, 1), BuildingBlock: TEMPAE_clean_linker_10, # of connection points: 2
#     Edge 20, Type (0, 1), BuildingBlock: TEMPAE_clean_linker_10, # of connection points: 2
#     Edge 21, Type (0, 1), BuildingBlock: TEMPAE_clean_linker_10, # of connection points: 2
#     Edge 22, Type (0, 1), BuildingBlock: TEMPAE_clean_linker_10, # of connection points: 2
#     Edge 23, Type (0, 1), BuildingBlock: TEMPAE_clean_linker_10, # of connection points: 2
#     Edge 24, Type (0, 1), BuildingBlock: TEMPAE_clean_linker_10, # of connection points: 2
#     Edge 25, Type (0, 1), BuildingBlock: TEMPAE_clean_linker_10, # of connection points: 2
#     Edge 26, Type (0, 1), BuildingBlock: TEMPAE_clean_linker_10, # of connection points: 2
#     Edge 27, Type (0, 1), BuildingBlock: TEMPAE_clean_linker_10, # of connection points: 2
#     Edge 28, Type (0, 1), BuildingBlock: TEMPAE_clean_linker_10, # of connection points: 2
#     Edge 29, Type (0, 1), BuildingBlock: TEMPAE_clean_linker_10, # of connection points: 2
#     Edge 30, Type (0, 1), BuildingBlock: TEMPAE_clean_linker_10, # of connection points: 2
#     Edge 31, Type (0, 1), BuildingBlock: TEMPAE_clean_linker_10, # of connection points: 2
#     Edge 32, Type (0, 1), BuildingBlock: TEMPAE_clean_linker_10, # of connection points: 2
#     Edge 33, Type (0, 1), BuildingBlock: TEMPAE_clean_linker_10, # of connection points: 2
#     Edge 34, Type (0, 1), BuildingBlock: TEMPAE_clean_linker_10, # of connection points: 2
#     Edge 35, Type (0, 1), BuildingBlock: TEMPAE_clean_linker_10, # of connection points: 2
# Relax obj value: 0.008
# Max RMSD: 0.105
# Mean RMSD: 0.066
data_MOF--net-nom--node1-CEKHIL_clean_sbu_0--node2-MUDLON_clean_linker_0--edge1-TEMPAE_clean_linker_10
_symmetry_space_group_name_H-M    P1
_symmetry_Int_Tables_number       1
_symmetry_cell_setting            triclinic
loop_
_symmetry_equiv_pos_as_xyz
'x, y, z'
_cell_length_a     61.404668
_cell_length_b     61.795331
_cell_length_c     61.393599
_cell_angle_alpha  90.324616
_cell_angle_beta   89.816084
_cell_angle_gamma 121.55887
loop_
_atom_site_label
_atom_site_type_symbol
_atom_site_fract_x
_atom_site_fract_y
_atom_site_fract_z
_atom_type_partial_charge
H0 H 0.13871 0.53838 0.32317 0.0
N1 N 0.10319 0.54667 0.33822 0.0
H2 H 0.17542 0.56653 0.30021 0.0
H3 H 0.11047 0.5889 0.31703 0.0
H4 H 0.14721 0.61724 0.29422 0.0
H5 H 0.11929 0.59368 0.35576 0.0
H6 H 0.14015 0.60947 0.39086 0.0
H7 H 0.10669 0.51973 0.37012 0.0
H8 H 0.12769 0.53556 0.40557 0.0
H9 H 0.07231 0.50477 0.31614 0.0
H10 H 0.07513 0.56888 0.34734 0.0
H11 H 0.02803 0.48842 0.30533 0.0
H12 H 0.03082 0.55255 0.33672 0.0
H13 H 0.90035 0.42594 0.2727 0.0
H14 H 0.88296 0.42031 0.23576 0.0
H15 H 0.90311 0.4985 0.23561 0.0
H16 H 0.92169 0.5044 0.27213 0.0
H17 H 0.91449 0.50734 0.30889 0.0
H18 H 0.87786 0.50458 0.32771 0.0
H19 H 0.8456 0.42415 0.33704 0.0
H20 H 0.88216 0.42713 0.31816 0.0
H21 H 0.95949 0.47884 0.27095 0.0
H22 H 0.00435 0.50079 0.28043 0.0
H23 H 0.98677 0.51378 0.34546 0.0
N24 N 0.91948 0.46705 0.29772 0.0
H25 H 0.94172 0.49185 0.33625 0.0
C26 C 0.122 0.56155 0.3219 0.0
C27 C 0.14019 0.55526 0.31645 0.0
C28 C 0.16107 0.57133 0.30334 0.0
C29 C 0.16423 0.59415 0.29558 0.0
C30 C 0.14535 0.59989 0.3002 0.0
C31 C 0.12431 0.58365 0.31315 0.0
C32 C 0.11143 0.55539 0.36022 0.0
C33 C 0.12051 0.58063 0.36659 0.0
C34 C 0.13264 0.58974 0.38664 0.0
C35 C 0.13582 0.57383 0.40079 0.0
C36 C 0.12542 0.54823 0.395 0.0
C37 C 0.11341 0.53915 0.37482 0.0
C38 C 0.07702 0.53782 0.33269 0.0
C39 C 0.06334 0.51526 0.32068 0.0
C40 C 0.03815 0.50609 0.3144 0.0
C41 C 0.02602 0.5193 0.3201 0.0
C42 C 0.03967 0.54192 0.33222 0.0
C43 C 0.06505 0.55126 0.33831 0.0
C44 C 0.91189 0.46536 0.27525 0.0
C45 C 0.90144 0.44195 0.26451 0.0
C46 C 0.8916 0.43881 0.2435 0.0
C47 C 0.89167 0.45898 0.23304 0.0
C48 C 0.90278 0.48269 0.24349 0.0
C49 C 0.9132 0.486 0.26436 0.0
C50 C 0.90089 0.46729 0.31203 0.0
C51 C 0.89966 0.4892 0.3152 0.0
C52 C 0.87872 0.4876 0.32594 0.0
C53 C 0.85877 0.46413 0.33376 0.0
C54 C 0.86078 0.44258 0.33148 0.0
C55 C 0.8816 0.44419 0.32069 0.0
C56 C 0.94652 0.48431 0.30239 0.0
C57 C 0.96501 0.4871 0.28707 0.0
C58 C 0.99084 0.49942 0.29257 0.0
C59 C 0.99906 0.50902 0.31366 0.0
C60 C 0.98101 0.50693 0.32894 0.0
C61 C 0.95506 0.49442 0.32351 0.0
H62 H 0.45329 0.9 0.46049 0.0
N63 N 0.43093 0.92482 0.44365 0.0
H64 H 0.43264 0.86251 0.48335 0.0
H65 H 0.38561 0.90455 0.46278 0.0
H66 H 0.36475 0.86691 0.48613 0.0
H67 H 0.3978 0.9125 0.41152 0.0
H68 H 0.39707 0.89271 0.3766 0.0
H69 H 0.46957 0.91963 0.42745 0.0
H70 H 0.46838 0.89874 0.39294 0.0
H71 H 0.47757 0.94343 0.46332 0.0
H72 H 0.42555 0.96417 0.43823 0.0
H73 H 0.50645 0.98702 0.47544 0.0
H74 H 0.45491 0.00822 0.4493 0.0
H75 H 0.58713 0.11115 0.52165 0.0
H76 H 0.59338 0.12665 0.55928 0.0
H77 H 0.52036 0.1212 0.55739 0.0
H78 H 0.51449 0.10629 0.51996 0.0
H79 H 0.51652 0.11837 0.48415 0.0
H80 H 0.52781 0.15848 0.46718 0.0
H81 H 0.60525 0.17618 0.45841 0.0
H82 H 0.59385 0.13596 0.4758 0.0
H83 H 0.56341 0.07265 0.47722 0.0
H84 H 0.53547 0.02932 0.4635 0.0
H85 H 0.46946 0.03327 0.48138 0.0
N86 N 0.54992 0.10316 0.49478 0.0
H87 H 0.49731 0.07646 0.4941 0.0
C88 C 0.42095 0.9052 0.4599 0.0
C89 C 0.43422 0.8934 0.46632 0.0
C90 C 0.42236 0.87186 0.4795 0.0
C91 C 0.39699 0.86163 0.48643 0.0
C92 C 0.38419 0.87415 0.4808 0.0
C93 C 0.39611 0.89573 0.46766 0.0
C94 C 0.43343 0.91711 0.42213 0.0
C95 C 0.41358 0.91015 0.40727 0.0
C96 C 0.41322 0.8989 0.38742 0.0
C97 C 0.4326 0.89411 0.38225 0.0
C98 C 0.45315 0.90212 0.3967 0.0
C99 C 0.45377 0.91392 0.41642 0.0
C100 C 0.44912 0.95048 0.4502 0.0
C101 C 0.47236 0.95735 0.46033 0.0
C102 C 0.48904 0.98244 0.46706 0.0
C103 C 0.48295 0.00118 0.46353 0.0
C104 C 0.45999 0.99425 0.45278 0.0
C105 C 0.44326 0.96916 0.44629 0.0
C106 C 0.55046 0.10751 0.51789 0.0
C107 C 0.57221 0.11267 0.5296 0.0
C108 C 0.57568 0.12145 0.55108 0.0
C109 C 0.55739 0.12528 0.56121 0.0
C110 C 0.53488 0.11867 0.5499 0.0
C111 C 0.53143 0.1099 0.52843 0.0
C112 C 0.55448 0.1242 0.48141 0.0
C113 C 0.53582 0.13057 0.47838 0.0
C114 C 0.54231 0.15362 0.46872 0.0
C115 C 0.56745 0.17055 0.46169 0.0
C116 C 0.58569 0.16346 0.46359 0.0
C117 C 0.57923 0.14053 0.47347 0.0
C118 C 0.53263 0.07787 0.48674 0.0
C119 C 0.54288 0.06409 0.47803 0.0
C120 C 0.52688 0.0393 0.47037 0.0
C121 C 0.50016 0.02772 0.47135 0.0
C122 C 0.48993 0.04166 0.48004 0.0
C123 C 0.50596 0.0665 0.48756 0.0
H124 H 0.47418 0.58903 0.63805 0.0
N125 N 0.46193 0.549 0.66253 0.0
H126 H 0.44469 0.59659 0.61771 0.0
H127 H 0.41301 0.51279 0.65191 0.0
H128 H 0.3835 0.51966 0.63087 0.0
H129 H 0.42625 0.51264 0.68921 0.0
H130 H 0.41289 0.52011 0.72486 0.0
H131 H 0.48496 0.59178 0.68533 0.0
H132 H 0.47254 0.59938 0.72109 0.0
H133 H 0.51163 0.56914 0.66786 0.0
H134 H 0.44296 0.5003 0.6482 0.0
H135 H 0.53626 0.54898 0.66223 0.0
H136 H 0.46761 0.48029 0.64092 0.0
H137 H 0.61217 0.48265 0.62238 0.0
H138 H 0.6223 0.47365 0.58605 0.0
H139 H 0.54311 0.43951 0.56748 0.0
H140 H 0.53324 0.44873 0.60372 0.0
H141 H 0.53508 0.41808 0.63113 0.0
H142 H 0.53577 0.38484 0.65125 0.0
H143 H 0.58723 0.44055 0.6983 0.0
H144 H 0.58809 0.4741 0.67669 0.0
H145 H 0.57974 0.51709 0.63179 0.0
H146 H 0.55357 0.5358 0.63598 0.0
H147 H 0.48977 0.46283 0.65596 0.0
N148 N 0.56644 0.46935 0.63803 0.0
H149 H 0.51559 0.44397 0.65003 0.0
C150 C 0.44589 0.55038 0.64631 0.0
C151 C 0.45458 0.57359 0.63589 0.0
C152 C 0.43765 0.57783 0.62428 0.0
C153 C 0.41159 0.5588 0.62282 0.0
C154 C 0.40333 0.53487 0.63198 0.0
C155 C 0.42029 0.53075 0.64375 0.0
C156 C 0.45641 0.5518 0.68471 0.0
C157 C 0.43649 0.53151 0.69626 0.0
C158 C 0.42897 0.5358 0.7166 0.0
C159 C 0.44135 0.56044 0.72558 0.0
C160 C 0.4622 0.58032 0.71438 0.0
C161 C 0.46954 0.57602 0.69412 0.0
C162 C 0.47563 0.53641 0.6582 0.0
C163 C 0.50198 0.54973 0.66197 0.0
C164 C 0.51605 0.53816 0.65852 0.0
C165 C 0.50412 0.51299 0.65077 0.0
C166 C 0.47752 0.49959 0.64707 0.0
C167 C 0.46335 0.51111 0.65098 0.0
C168 C 0.57209 0.46649 0.61573 0.0
C169 C 0.59715 0.47364 0.6103 0.0
C170 C 0.60283 0.46832 0.58964 0.0
C171 C 0.58347 0.45576 0.57397 0.0
C172 C 0.55849 0.44946 0.57914 0.0
C173 C 0.5528 0.45469 0.59985 0.0
C174 C 0.56224 0.44879 0.65205 0.0
C175 C 0.54647 0.42319 0.64578 0.0
C176 C 0.54663 0.40403 0.6576 0.0
C177 C 0.56197 0.40987 0.67632 0.0
C178 C 0.57584 0.4353 0.68361 0.0
C179 C 0.57615 0.45453 0.67145 0.0
C180 C 0.54995 0.47932 0.64092 0.0
C181 C 0.56006 0.50516 0.63699 0.0
C182 C 0.54505 0.51585 0.63962 0.0
C183 C 0.51953 0.50101 0.64673 0.0
C184 C 0.50922 0.4749 0.65031 0.0
C185 C 0.52415 0.46408 0.64719 0.0
H186 H 0.1173 0.55185 0.81751 0.0
N187 N 0.09595 0.51035 0.79049 0.0
H188 H 0.15727 0.56835 0.83772 0.0
H189 H 0.1197 0.48586 0.79885 0.0
H190 H 0.1588 0.50132 0.82003 0.0
H191 H 0.09389 0.48622 0.75384 0.0
H192 H 0.11601 0.50529 0.7195 0.0
H193 H 0.12018 0.56087 0.77993 0.0
H194 H 0.1413 0.57985 0.74573 0.0
H195 H 0.07776 0.54289 0.78882 0.0
H196 H 0.05998 0.46911 0.81044 0.0
H197 H 0.03593 0.53348 0.80042 0.0
H198 H 0.01843 0.46005 0.82347 0.0
H199 H 0.90138 0.49368 0.85989 0.0
H200 H 0.88301 0.48142 0.8966 0.0
H201 H 0.91068 0.43025 0.90126 0.0
H202 H 0.92964 0.44304 0.86498 0.0
H203 H 0.89285 0.42104 0.83994 0.0
H204 H 0.85473 0.39319 0.8195 0.0
H205 H 0.86775 0.4564 0.7796 0.0
H206 H 0.90525 0.4849 0.80174 0.0
H207 H 0.96613 0.51784 0.8391 0.0
H208 H 0.00919 0.52796 0.82975 0.0
H209 H 0.97843 0.44966 0.81083 0.0
N210 N 0.92271 0.47314 0.83664 0.0
H211 H 0.93607 0.43954 0.82147 0.0
C212 C 0.11587 0.51782 0.80636 0.0
C213 C 0.12614 0.54064 0.8182 0.0
C214 C 0.14892 0.54995 0.82989 0.0
C215 C 0.16157 0.53641 0.83013 0.0
C216 C 0.14999 0.5126 0.81969 0.0
C217 C 0.12749 0.50354 0.80782 0.0
C218 C 0.10511 0.52193 0.76944 0.0
C219 C 0.10376 0.50663 0.75193 0.0
C220 C 0.11642 0.51757 0.73236 0.0
C221 C 0.1307 0.54413 0.72998 0.0
C222 C 0.13091 0.55936 0.74717 0.0
C223 C 0.11846 0.54844 0.76673 0.0
C224 C 0.07196 0.50641 0.79835 0.0
C225 C 0.06504 0.5247 0.7962 0.0
C226 C 0.04099 0.51936 0.80313 0.0
C227 C 0.02351 0.49586 0.81277 0.0
C228 C 0.03098 0.47807 0.81562 0.0
C229 C 0.05483 0.48327 0.80837 0.0
C230 C 0.91672 0.46924 0.8596 0.0
C231 C 0.90416 0.48043 0.86913 0.0
C232 C 0.89368 0.47341 0.89 0.0
C233 C 0.89531 0.45476 0.90153 0.0
C234 C 0.90912 0.44458 0.89256 0.0
C235 C 0.92003 0.45198 0.87187 0.0
C236 C 0.90178 0.45544 0.82279 0.0
C237 C 0.88762 0.42917 0.82696 0.0
C238 C 0.86581 0.41298 0.81487 0.0
C239 C 0.85785 0.42239 0.79783 0.0
C240 C 0.87284 0.44847 0.7929 0.0
C241 C 0.89446 0.4648 0.80537 0.0
C242 C 0.94774 0.47812 0.83077 0.0
C243 C 0.9688 0.50291 0.833 0.0
C244 C 0.99338 0.50866 0.82747 0.0
C245 C 0.99744 0.48969 0.81936 0.0
C246 C 0.97625 0.46475 0.81731 0.0
C247 C 0.95176 0.45895 0.82316 0.0
H248 H 0.57897 0.12671 0.95147 0.0
N249 N 0.60082 0.09772 0.95046 0.0
H250 H 0.59478 0.16615 0.97212 0.0
H251 H 0.63464 0.11484 0.98283 0.0
H252 H 0.64989 0.15405 0.00415 0.0
H253 H 0.64327 0.12332 0.92727 0.0
H254 H 0.64823 0.14238 0.89153 0.0
H255 H 0.56161 0.08889 0.92315 0.0
H256 H 0.56619 0.10691 0.8869 0.0
H257 H 0.55383 0.08291 0.96828 0.0
H258 H 0.60156 0.05553 0.94532 0.0
H259 H 0.5212 0.04009 0.97906 0.0
H260 H 0.56831 0.01221 0.95478 0.0
H261 H 0.41821 0.88645 0.00595 0.0
H262 H 0.40666 0.86813 0.04215 0.0
H263 H 0.48267 0.92338 0.06501 0.0
H264 H 0.49452 0.94032 0.02852 0.0
H265 H 0.48735 0.89501 0.00481 0.0
H266 H 0.48191 0.85669 0.98834 0.0
H267 H 0.44134 0.86471 0.93451 0.0
H268 H 0.44506 0.90198 0.95229 0.0
H269 H 0.45728 0.95682 0.97711 0.0
H270 H 0.48981 -2e-05 0.96634 0.0
H271 H 0.54884 0.98509 0.98427 0.0
N272 N 0.46432 0.92054 0.99152 0.0
H273 H 0.51612 0.94169 0.99374 0.0
C274 C 0.60598 0.118 0.96539 0.0
C275 C 0.59416 0.13222 0.96315 0.0
C276 C 0.60309 0.15468 0.97497 0.0
C277 C 0.62347 0.1629 0.98956 0.0
C278 C 0.63402 0.14784 0.99302 0.0
C279 C 0.62537 0.12556 0.98091 0.0
C280 C 0.6022 0.10461 0.92785 0.0
C281 C 0.62636 0.11925 0.9183 0.0
C282 C 0.6291 0.13006 0.89782 0.0
C283 C 0.6076 0.12627 0.88629 0.0
C284 C 0.58319 0.11054 0.89545 0.0
C285 C 0.5805 0.09992 0.91609 0.0
C286 C 0.58047 0.07252 0.95631 0.0
C287 C 0.55731 0.06769 0.96547 0.0
C288 C 0.53845 0.043 0.97143 0.0
C289 C 0.54207 0.02254 0.96796 0.0
C290 C 0.56501 0.02746 0.95824 0.0
C291 C 0.58398 0.05217 0.95262 0.0
C292 C 0.45717 0.91464 0.01419 0.0
C293 C 0.4322 0.89493 0.0189 0.0
C294 C 0.42564 0.88452 0.03973 0.0
C295 C 0.44381 0.89402 0.05664 0.0
C296 C 0.46835 0.91506 0.05231 0.0
C297 C 0.47509 0.92507 0.0313 0.0
C298 C 0.46594 0.90098 0.98002 0.0
C299 C 0.47742 0.88863 0.9894 0.0
C300 C 0.47448 0.86673 0.97977 0.0
C301 C 0.46069 0.85711 0.96021 0.0
C302 C 0.45128 0.87093 0.94994 0.0
C303 C 0.45367 0.89246 0.95988 0.0
C304 C 0.48422 0.94615 0.98632 0.0
C305 C 0.47728 0.96301 0.9787 0.0
C306 C 0.49595 0.98772 0.9727 0.0
C307 C 0.52209 0.9962 0.97444 0.0
C308 C 0.52897 0.97921 0.9823 0.0
C309 C 0.51026 0.95438 0.98795 0.0
H310 H 0.54956 0.43048 0.13204 0.0
N311 N 0.55661 0.46491 0.16165 0.0
H312 H 0.58257 0.4279 0.11209 0.0
H313 H 0.60662 0.50324 0.15822 0.0
H314 H 0.63975 0.50144 0.13768 0.0
H315 H 0.58464 0.50159 0.19194 0.0
H316 H 0.59626 0.49453 0.22837 0.0
H317 H 0.53913 0.42081 0.18123 0.0
H318 H 0.5499 0.41345 0.21763 0.0
H319 H 0.50752 0.44654 0.16872 0.0
H320 H 0.57613 0.51337 0.14594 0.0
H321 H 0.48332 0.46694 0.16212 0.0
H322 H 0.55185 0.53336 0.13786 0.0
H323 H 0.41038 0.52786 0.10788 0.0
H324 H 0.40494 0.53892 0.07072 0.0
H325 H 0.48673 0.58085 0.06193 0.0
H326 H 0.49206 0.56901 0.09868 0.0
H327 H 0.48633 0.59618 0.12401 0.0
H328 H 0.48266 0.6287 0.1423 0.0
H329 H 0.42557 0.57205 0.18544 0.0
H330 H 0.42749 0.539 0.16508 0.0
H331 H 0.44052 0.49638 0.12626 0.0
H332 H 0.46628 0.47786 0.13375 0.0
H333 H 0.52984 0.55215 0.15161 0.0
N334 N 0.45412 0.54456 0.12901 0.0
H335 H 0.50433 0.57064 0.14262 0.0
C336 C 0.57554 0.46699 0.14649 0.0
C337 C 0.56912 0.44633 0.13279 0.0
C338 C 0.58807 0.44496 0.12137 0.0
C339 C 0.61393 0.46439 0.1234 0.0
C340 C 0.6201 0.48595 0.13603 0.0
C341 C 0.60111 0.48717 0.1476 0.0
C342 C 0.56118 0.46162 0.18397 0.0
C343 C 0.57692 0.48236 0.1976 0.0
C344 C 0.58343 0.47828 0.21837 0.0
C345 C 0.57431 0.45343 0.22572 0.0
C346 C 0.5577 0.43282 0.21228 0.0
C347 C 0.55131 0.43692 0.19161 0.0
C348 C 0.54348 0.47815 0.1576 0.0
C349 C 0.51729 0.46557 0.16209 0.0
C350 C 0.50346 0.47723 0.15809 0.0
C351 C 0.51545 0.50172 0.14906 0.0
C352 C 0.54193 0.51458 0.14495 0.0
C353 C 0.55589 0.50301 0.14938 0.0
C354 C 0.45152 0.54777 0.1061 0.0
C355 C 0.42704 0.5388 0.09768 0.0
C356 C 0.42397 0.54511 0.07656 0.0
C357 C 0.44546 0.56081 0.06371 0.0
C358 C 0.46994 0.56874 0.07167 0.0
C359 C 0.47296 0.56197 0.09261 0.0
C360 C 0.45641 0.56483 0.14262 0.0
C361 C 0.4729 0.59057 0.13729 0.0
C362 C 0.47106 0.60944 0.14817 0.0
C363 C 0.45338 0.60322 0.16524 0.0
C364 C 0.43871 0.57764 0.17187 0.0
C365 C 0.44002 0.55868 0.16049 0.0
C366 C 0.47021 0.53471 0.13418 0.0
C367 C 0.46002 0.50861 0.13179 0.0
C368 C 0.47478 0.49807 0.13628 0.0
C369 C 0.50014 0.51339 0.14366 0.0
C370 C 0.51049 0.53973 0.14583 0.0
C371 C 0.49577 0.55035 0.14093 0.0
Co372 Co 0.6417 0.38702 0.39679 0.0
O373 O 0.66363 0.38616 0.37477 0.0
O374 O 0.67447 0.41848 0.39714 0.0
C375 C 0.6282 0.34798 0.40999 0.0
O376 O 0.62532 0.39472 0.4222 0.0
Co377 Co 0.58323 0.34919 0.39737 0.0
O378 O 0.58509 0.36228 0.42726 0.0
C379 C 0.60582 0.39137 0.36568 0.0
C380 C 0.68102 0.40862 0.3816 0.0
C381 C 0.60451 0.38324 0.43338 0.0
O382 O 0.62775 0.40109 0.37505 0.0
O383 O 0.58633 0.37002 0.37126 0.0
O384 O 0.6499 0.36743 0.41624 0.0
O385 O 0.61628 0.3524 0.39505 0.0
Co386 Co 0.28208 0.64801 0.56744 0.0
O387 O 0.30684 0.64892 0.58723 0.0
O388 O 0.28332 0.61758 0.56414 0.0
C389 C 0.30701 0.68802 0.55509 0.0
O390 O 0.25579 0.6405 0.54382 0.0
Co391 Co 0.26078 0.68356 0.5725 0.0
O392 O 0.24537 0.67035 0.54347 0.0
C393 C 0.24177 0.63897 0.60126 0.0
C394 C 0.30106 0.62715 0.57895 0.0
C395 C 0.24418 0.65074 0.53534 0.0
O396 O 0.25449 0.63134 0.59035 0.0
O397 O 0.24323 0.66007 0.59758 0.0
O398 O 0.30927 0.66976 0.54713 0.0
O399 O 0.29144 0.68197 0.57129 0.0
Co400 Co 0.6414 0.27429 0.72686 0.0
O401 O 0.63828 0.2975 0.70839 0.0
O402 O 0.6088 0.2714 0.7319 0.0
C403 C 0.6813 0.30261 0.73839 0.0
O404 O 0.63817 0.24834 0.749 0.0
Co405 Co 0.68285 0.26088 0.71803 0.0
O406 O 0.6727 0.24458 0.74709 0.0
C407 C 0.63716 0.23974 0.68991 0.0
C408 C 0.61619 0.28921 0.71743 0.0
C409 C 0.65195 0.23983 0.75609 0.0
O410 O 0.62651 0.24758 0.70325 0.0
O411 O 0.66028 0.24524 0.69184 0.0
O412 O 0.6617 0.30143 0.74774 0.0
O413 O 0.67637 0.28814 0.72157 0.0
Co414 Co 0.38374 0.63922 0.89716 0.0
O415 O 0.36048 0.64118 0.87744 0.0
O416 O 0.35016 0.60907 0.89962 0.0
C417 C 0.4012 0.67905 0.9103 0.0
O418 O 0.40131 0.63054 0.92058 0.0
Co419 Co 0.44246 0.67379 0.89333 0.0
O420 O 0.44373 0.65825 0.92102 0.0
C421 C 0.41443 0.63034 0.86315 0.0
C422 C 0.34299 0.61926 0.88505 0.0
C423 C 0.42363 0.63918 0.92879 0.0
O424 O 0.3935 0.62274 0.87371 0.0
O425 O 0.43535 0.65104 0.86756 0.0
O426 O 0.37973 0.66072 0.91809 0.0
O427 O 0.41057 0.67321 0.89403 0.0
Co428 Co 0.74568 0.37913 0.06549 0.0
O429 O 0.72087 0.37821 0.0853 0.0
O430 O 0.74534 0.41011 0.06318 0.0
C431 C 0.72032 0.33963 0.05206 0.0
O432 O 0.77227 0.38661 0.0421 0.0
Co433 Co 0.76572 0.3425 0.07034 0.0
O434 O 0.78456 0.35812 0.04296 0.0
C435 C 0.78154 0.38441 0.10157 0.0
C436 C 0.7273 0.40037 0.07774 0.0
C437 C 0.78523 0.37727 0.03456 0.0
O438 O 0.77277 0.3946 0.08888 0.0
O439 O 0.77807 0.36235 0.09825 0.0
O440 O 0.71854 0.35832 0.04469 0.0
O441 O 0.73559 0.34494 0.06834 0.0
Co442 Co 0.37755 0.74257 0.21973 0.0
O443 O 0.37839 0.71954 0.19893 0.0
O444 O 0.40956 0.74393 0.22203 0.0
C445 C 0.33806 0.71472 0.23241 0.0
O446 O 0.38379 0.76774 0.24405 0.0
Co447 Co 0.33796 0.75922 0.21824 0.0
O448 O 0.34929 0.77094 0.24848 0.0
C449 C 0.38275 0.78303 0.18867 0.0
C450 C 0.40068 0.72651 0.20697 0.0
C451 C 0.37098 0.77534 0.25479 0.0
O452 O 0.3918 0.77041 0.19728 0.0
O453 O 0.36142 0.78056 0.19412 0.0
O454 O 0.35779 0.71455 0.23973 0.0
O455 O 0.34249 0.7305 0.21683 0.0
C456 C 0.20172 0.63823 0.29107 0.0
C457 C 0.18818 0.61275 0.28431 0.0
C458 C 0.22571 0.65561 0.28218 0.0
C459 C 0.23629 0.64733 0.26605 0.0
C460 C 0.22231 0.62184 0.25863 0.0
C461 C 0.19845 0.6048 0.26795 0.0
C462 C 0.24014 0.68259 0.29063 0.0
C463 C 0.23285 0.6124 0.24125 0.0
C464 C 0.29098 0.69678 0.23142 0.0
C465 C 0.31214 0.69805 0.24138 0.0
C466 C 0.26614 0.68036 0.23927 0.0
C467 C 0.26246 0.66505 0.25762 0.0
C468 C 0.28381 0.66653 0.26793 0.0
C469 C 0.3084 0.68295 0.25961 0.0
C470 C 0.24382 0.67918 0.2278 0.0
C471 C 0.28065 0.65066 0.28767 0.0
H472 H 0.19398 0.64435 0.30394 0.0
H473 H 0.18791 0.58515 0.26259 0.0
H474 H 0.25794 0.6865 0.29881 0.0
H475 H 0.24582 0.69615 0.27694 0.0
H476 H 0.22869 0.68632 0.30242 0.0
H477 H 0.21894 0.59245 0.23637 0.0
H478 H 0.23822 0.62461 0.2266 0.0
H479 H 0.25044 0.61356 0.24729 0.0
H480 H 0.29377 0.70838 0.21727 0.0
H481 H 0.32471 0.68393 0.2674 0.0
H482 H 0.23297 0.68387 0.23938 0.0
H483 H 0.23053 0.6596 0.22174 0.0
H484 H 0.24995 0.69245 0.21381 0.0
H485 H 0.27069 0.65454 0.30082 0.0
H486 H 0.29924 0.65445 0.29405 0.0
H487 H 0.26861 0.63019 0.28349 0.0
C488 C 0.56814 0.21119 0.46549 0.0
C489 C 0.57508 0.19619 0.45372 0.0
C490 C 0.57627 0.236 0.45891 0.0
C491 C 0.59153 0.24595 0.43999 0.0
C492 C 0.59833 0.23077 0.42788 0.0
C493 C 0.59012 0.20609 0.43496 0.0
C494 C 0.56885 0.25169 0.47236 0.0
C495 C 0.61437 0.24066 0.4075 0.0
C496 C 0.59461 0.30186 0.41148 0.0
C497 C 0.61828 0.32216 0.41858 0.0
C498 C 0.58554 0.27698 0.4185 0.0
C499 C 0.60054 0.27232 0.43294 0.0
C500 C 0.62428 0.29281 0.44044 0.0
C501 C 0.63286 0.31751 0.43318 0.0
C502 C 0.56008 0.25564 0.41022 0.0
C503 C 0.64078 0.28858 0.45589 0.0
H504 H 0.55685 0.20371 0.48021 0.0
H505 H 0.59538 0.19447 0.42578 0.0
H506 H 0.58628 0.26899 0.47851 0.0
H507 H 0.5584 0.25804 0.46213 0.0
H508 H 0.55664 0.24102 0.48649 0.0
H509 H 0.61765 0.22631 0.39976 0.0
H510 H 0.60488 0.24642 0.39551 0.0
H511 H 0.63317 0.25778 0.41143 0.0
H512 H 0.58323 0.30534 0.40022 0.0
H513 H 0.65119 0.33314 0.4387 0.0
H514 H 0.5472 0.24544 0.42411 0.0
H515 H 0.56279 0.24169 0.40107 0.0
H516 H 0.55053 0.26252 0.39939 0.0
H517 H 0.62988 0.27906 0.47088 0.0
H518 H 0.65845 0.3066 0.46057 0.0
H519 H 0.64629 0.27583 0.4482 0.0
C520 C 0.3695 0.55626 0.62468 0.0
C521 C 0.39285 0.56488 0.61394 0.0
C522 C 0.35292 0.56428 0.61826 0.0
C523 C 0.35994 0.58155 0.60081 0.0
C524 C 0.38298 0.58959 0.58936 0.0
C525 C 0.3991 0.58108 0.596 0.0
C526 C 0.32846 0.55516 0.63083 0.0
C527 C 0.39113 0.608 0.57065 0.0
C528 C 0.31001 0.59212 0.57497 0.0
C529 C 0.31509 0.61463 0.58527 0.0
C530 C 0.32431 0.58098 0.57996 0.0
C531 C 0.34413 0.59265 0.5956 0.0
C532 C 0.34906 0.61515 0.60627 0.0
C533 C 0.33449 0.62585 0.60099 0.0
C534 C 0.31843 0.55693 0.56831 0.0
C535 C 0.37 0.62814 0.62309 0.0
H536 H 0.36462 0.54409 0.63878 0.0
H537 H 0.41691 0.58755 0.58741 0.0
H538 H 0.32966 0.57128 0.63998 0.0
H539 H 0.31201 0.54787 0.61951 0.0
H540 H 0.32461 0.53994 0.64258 0.0
H541 H 0.4087 0.61105 0.56251 0.0
H542 H 0.37562 0.601 0.55838 0.0
H543 H 0.39483 0.62659 0.57672 0.0
H544 H 0.29507 0.58337 0.56278 0.0
H545 H 0.33854 0.64324 0.60902 0.0
H546 H 0.31407 0.54183 0.58033 0.0
H547 H 0.3354 0.56034 0.55892 0.0
H548 H 0.302 0.54989 0.55696 0.0
H549 H 0.36669 0.61484 0.63654 0.0
H550 H 0.37119 0.64535 0.63009 0.0
H551 H 0.38871 0.63377 0.61564 0.0
C552 C 0.82475 0.37941 0.78306 0.0
C553 C 0.83329 0.4052 0.78624 0.0
C554 C 0.80035 0.36236 0.77465 0.0
C555 C 0.78436 0.37142 0.7685 0.0
C556 C 0.79331 0.3976 0.77049 0.0
C557 C 0.81747 0.4141 0.77962 0.0
C558 C 0.79134 0.33449 0.77309 0.0
C559 C 0.77707 0.4081 0.76352 0.0
C560 C 0.72806 0.32951 0.7315 0.0
C561 C 0.70761 0.31966 0.74621 0.0
C562 C 0.75315 0.34665 0.73846 0.0
C563 C 0.7579 0.35336 0.76078 0.0
C564 C 0.73731 0.34292 0.77578 0.0
C565 C 0.71231 0.32649 0.76823 0.0
C566 C 0.77448 0.35795 0.72189 0.0
C567 C 0.7417 0.34902 0.79981 0.0
H568 H 0.83697 0.37235 0.78749 0.0
H569 H 0.82354 0.43383 0.7822 0.0
H570 H 0.77419 0.32335 0.78349 0.0
H571 H 0.78566 0.32759 0.75613 0.0
H572 H 0.80623 0.33055 0.77831 0.0
H573 H 0.78774 0.42918 0.76414 0.0
H574 H 0.76992 0.4018 0.74669 0.0
H575 H 0.76015 0.4007 0.77433 0.0
H576 H 0.72435 0.32435 0.71442 0.0
H577 H 0.69646 0.31868 0.77961 0.0
H578 H 0.78916 0.35337 0.72613 0.0
H579 H 0.78402 0.37895 0.72204 0.0
H580 H 0.76752 0.35092 0.70512 0.0
H581 H 0.75572 0.34442 0.80611 0.0
H582 H 0.72379 0.33836 0.80944 0.0
H583 H 0.74989 0.36963 0.80248 0.0
C584 C 0.47137 0.82323 0.95429 0.0
C585 C 0.45443 0.83184 0.95157 0.0
C586 C 0.46452 0.79855 0.94802 0.0
C587 C 0.44045 0.78232 0.93819 0.0
C588 C 0.42362 0.79113 0.93468 0.0
C589 C 0.43063 0.81556 0.94169 0.0
C590 C 0.48278 0.78965 0.95235 0.0
C591 C 0.39797 0.77456 0.92385 0.0
C592 C 0.42891 0.72565 0.90441 0.0
C593 C 0.41307 0.70542 0.91824 0.0
C594 C 0.43841 0.75087 0.91084 0.0
C595 C 0.43248 0.75593 0.93184 0.0
C596 C 0.41749 0.73557 0.94625 0.0
C597 C 0.40763 0.71049 0.93914 0.0
C598 C 0.45376 0.77198 0.89481 0.0
C599 C 0.41135 0.74026 0.96898 0.0
H600 H 0.48998 0.83568 0.96152 0.0
H601 H 0.41704 0.82158 0.93991 0.0
H602 H 0.47353 0.77281 0.96315 0.0
H603 H 0.48759 0.78369 0.93691 0.0
H604 H 0.50078 0.8046 0.96015 0.0
H605 H 0.3879 0.78487 0.92094 0.0
H606 H 0.40041 0.76734 0.90801 0.0
H607 H 0.38565 0.75784 0.9342 0.0
H608 H 0.43301 0.72174 0.88817 0.0
H609 H 0.39555 0.69484 0.94991 0.0
H610 H 0.47216 0.78667 0.90218 0.0
H611 H 0.44309 0.78135 0.89061 0.0
H612 H 0.45782 0.76498 0.87955 0.0
H613 H 0.4291 0.75451 0.97751 0.0
H614 H 0.40162 0.72262 0.97884 0.0
H615 H 0.39873 0.74809 0.96813 0.0
C616 C 0.65614 0.46745 0.12687 0.0
C617 C 0.63433 0.46071 0.1144 0.0
C618 C 0.67372 0.46074 0.12021 0.0
C619 C 0.66924 0.44666 0.10074 0.0
C620 C 0.64805 0.44098 0.08748 0.0
C621 C 0.63093 0.4482 0.0944 0.0
C622 C 0.69624 0.46741 0.13469 0.0
C623 C 0.64261 0.42598 0.06659 0.0
C624 C 0.7209 0.43724 0.07662 0.0
C625 C 0.71358 0.4131 0.08452 0.0
C626 C 0.70692 0.44868 0.08201 0.0
C627 C 0.68504 0.43554 0.09545 0.0
C628 C 0.67783 0.41134 0.10373 0.0
C629 C 0.69224 0.40048 0.09824 0.0
C630 C 0.71535 0.47464 0.07312 0.0
C631 C 0.65457 0.39666 0.11808 0.0
H632 H 0.65885 0.47682 0.14247 0.0
H633 H 0.61441 0.44333 0.08446 0.0
H634 H 0.69326 0.44994 0.14257 0.0
H635 H 0.71406 0.47552 0.12495 0.0
H636 H 0.69893 0.48122 0.14764 0.0
H637 H 0.62677 0.42515 0.05717 0.0
H638 H 0.65992 0.43442 0.05618 0.0
H639 H 0.63734 0.40629 0.07042 0.0
H640 H 0.73741 0.44711 0.06603 0.0
H641 H 0.68643 0.3818 0.10439 0.0
H642 H 0.71813 0.48784 0.08664 0.0
H643 H 0.70027 0.47345 0.06237 0.0
H644 H 0.73341 0.48281 0.06367 0.0
H645 H 0.65641 0.40797 0.13281 0.0
H646 H 0.65169 0.37816 0.12332 0.0
H647 H 0.63724 0.39303 0.10921 0.0
C648 C 0.35857 0.81818 0.49177 0.0
C649 C 0.3834 0.83697 0.49807 0.0
C650 C 0.34603 0.79413 0.50148 0.0
C651 C 0.35861 0.78873 0.51789 0.0
C652 C 0.3835 0.80773 0.5246 0.0
C653 C 0.39563 0.83164 0.51458 0.0
C654 C 0.31951 0.77433 0.49384 0.0
C655 C 0.39745 0.8027 0.54215 0.0
C656 C 0.31753 0.73289 0.55503 0.0
C657 C 0.32047 0.7138 0.54569 0.0
C658 C 0.33006 0.75745 0.54629 0.0
C659 C 0.34583 0.76301 0.52774 0.0
C660 C 0.34897 0.74384 0.5183 0.0
C661 C 0.33625 0.71945 0.52742 0.0
C662 C 0.32628 0.77741 0.55681 0.0
C663 C 0.3656 0.74907 0.49847 0.0
H664 H 0.34919 0.82203 0.47877 0.0
H665 H 0.41473 0.84617 0.51963 0.0
H666 H 0.31969 0.75783 0.48682 0.0
H667 H 0.30608 0.76725 0.50782 0.0
H668 H 0.31211 0.78179 0.48134 0.0
H669 H 0.41644 0.81971 0.54591 0.0
H670 H 0.38588 0.79648 0.5573 0.0
H671 H 0.4002 0.78707 0.53696 0.0
H672 H 0.30539 0.72865 0.5692 0.0
H673 H 0.3386 0.70476 0.52015 0.0
H674 H 0.31758 0.78418 0.54496 0.0
H675 H 0.34502 0.79406 0.56166 0.0
H676 H 0.31381 0.77015 0.57143 0.0
H677 H 0.35827 0.75503 0.48472 0.0
H678 H 0.36632 0.73219 0.49329 0.0
H679 H 0.38536 0.76492 0.5019 0.0
C680 C 0.58954 0.39658 0.69489 0.0
C681 C 0.5655 0.39007 0.6867 0.0
C682 C 0.59432 0.37795 0.70204 0.0
C683 C 0.57484 0.352 0.70045 0.0
C684 C 0.55021 0.34524 0.69317 0.0
C685 C 0.54575 0.36436 0.68666 0.0
C686 C 0.62073 0.38603 0.71016 0.0
C687 C 0.52901 0.31778 0.69104 0.0
C688 C 0.60279 0.31072 0.6915 0.0
C689 C 0.60145 0.30123 0.71242 0.0
C690 C 0.59247 0.32579 0.68708 0.0
C691 C 0.58129 0.3322 0.70419 0.0
C692 C 0.57888 0.3217 0.72516 0.0
C693 C 0.58873 0.30601 0.72897 0.0
C694 C 0.59481 0.33599 0.66433 0.0
C695 C 0.5676 0.32849 0.74393 0.0
H696 H 0.60517 0.41619 0.69477 0.0
H697 H 0.52691 0.35902 0.68092 0.0
H698 H 0.61951 0.37611 0.72554 0.0
H699 H 0.63054 0.38074 0.69796 0.0
H700 H 0.63266 0.40684 0.71305 0.0
H701 H 0.51028 0.31572 0.68752 0.0
H702 H 0.5336 0.30874 0.67758 0.0
H703 H 0.52726 0.30721 0.70613 0.0
H704 H 0.61252 0.30689 0.67868 0.0
H705 H 0.58795 0.29885 0.74522 0.0
H706 H 0.60898 0.35671 0.66425 0.0
H707 H 0.57626 0.33313 0.65889 0.0
H708 H 0.60105 0.32673 0.65238 0.0
H709 H 0.58112 0.34849 0.74887 0.0
H710 H 0.56385 0.31614 0.75828 0.0
H711 H 0.5495 0.32703 0.73905 0.0
C712 C 0.19436 0.56216 0.85895 0.0
C713 C 0.18764 0.54784 0.83963 0.0
C714 C 0.21932 0.57383 0.86733 0.0
C715 C 0.23792 0.571 0.85618 0.0
C716 C 0.23118 0.55638 0.83682 0.0
C717 C 0.20623 0.54514 0.82873 0.0
C718 C 0.22588 0.58943 0.88797 0.0
C719 C 0.25045 0.55291 0.82442 0.0
C720 C 0.30861 0.61955 0.86362 0.0
C721 C 0.31606 0.60692 0.87787 0.0
C722 C 0.28312 0.6083 0.85682 0.0
C723 C 0.26465 0.58376 0.86436 0.0
C724 C 0.27201 0.57098 0.87887 0.0
C725 C 0.29763 0.58275 0.88549 0.0
C726 C 0.27601 0.62258 0.8414 0.0
C727 C 0.25287 0.54473 0.88713 0.0
H728 H 0.18011 0.5642 0.86757 0.0
H729 H 0.20146 0.53466 0.81351 0.0
H730 H 0.23319 0.58186 0.90042 0.0
H731 H 0.24131 0.60931 0.88467 0.0
H732 H 0.20917 0.58953 0.89482 0.0
H733 H 0.2419 0.5402 0.81005 0.0
H734 H 0.26636 0.5716 0.81875 0.0
H735 H 0.25881 0.54482 0.83527 0.0
H736 H 0.32271 0.6383 0.85776 0.0
H737 H 0.30324 0.57291 0.89656 0.0
H738 H 0.26034 0.62433 0.84846 0.0
H739 H 0.26886 0.6119 0.82586 0.0
H740 H 0.29243 0.64191 0.83775 0.0
H741 H 0.23669 0.54475 0.8952 0.0
H742 H 0.26148 0.5377 0.89887 0.0
H743 H 0.24487 0.53121 0.87324 0.0
C744 C 0.6511 0.20951 0.98566 0.0
C745 C 0.63583 0.18861 -0.00101 0.0
C746 C 0.66436 0.23419 0.99428 0.0
C747 C 0.6618 0.23798 0.01668 0.0
C748 C 0.64581 0.21687 0.0301 0.0
C749 C 0.63322 0.19228 0.02111 0.0
C750 C 0.68161 0.2561 0.97954 0.0
C751 C 0.64218 0.22025 0.05394 0.0
C752 C 0.71501 0.29764 0.04382 0.0
C753 C 0.70548 0.31383 0.0428 0.0
C754 C 0.70103 0.27293 0.03526 0.0
C755 C 0.67658 0.26399 0.02613 0.0
C756 C 0.66668 0.28015 0.02544 0.0
C757 C 0.68148 0.30508 0.03348 0.0
C758 C 0.71256 0.25653 0.03569 0.0
C759 C 0.64042 0.27105 0.01638 0.0
H760 H 0.65311 0.20641 0.96855 0.0
H761 H 0.62133 0.17595 0.03129 0.0
H762 H 0.67567 0.27024 0.97954 0.0
H763 H 0.70153 0.26587 0.98571 0.0
H764 H 0.6814 0.24988 0.96249 0.0
H765 H 0.62786 0.20209 0.06177 0.0
H766 H 0.66061 0.22811 0.06268 0.0
H767 H 0.63594 0.23406 0.05592 0.0
H768 H 0.73365 0.30447 0.05095 0.0
H769 H 0.674 0.31755 0.03293 0.0
H770 H 0.71382 0.25058 0.01888 0.0
H771 H 0.70015 0.23902 0.04514 0.0
H772 H 0.73198 0.26652 0.04301 0.0
H773 H 0.63966 0.26604 -0.00109 0.0
H774 H 0.63505 0.28559 0.01797 0.0
H775 H 0.62595 0.2536 0.02498 0.0
C776 C 0.42413 0.61622 0.18136 0.0
C777 C 0.44877 0.62291 0.17459 0.0
C778 C 0.41877 0.6347 0.18802 0.0
C779 C 0.43822 0.66069 0.18711 0.0
C780 C 0.46325 0.66767 0.18085 0.0
C781 C 0.46834 0.6487 0.17512 0.0
C782 C 0.39198 0.62639 0.19529 0.0
C783 C 0.48438 0.69522 0.17924 0.0
C784 C 0.41169 0.7035 0.17996 0.0
C785 C 0.41369 0.71293 0.2011 0.0
C786 C 0.42114 0.68774 0.17488 0.0
C787 C 0.43183 0.68042 0.1916 0.0
C788 C 0.43445 0.69045 0.21289 0.0
C789 C 0.42574 0.70699 0.21729 0.0
C790 C 0.41881 0.67817 0.15181 0.0
C791 C 0.44487 0.68243 0.23132 0.0
H792 H 0.4086 0.59659 0.18074 0.0
H793 H 0.48763 0.65426 0.17059 0.0
H794 H 0.39249 0.63585 0.21086 0.0
H795 H 0.38275 0.63207 0.18297 0.0
H796 H 0.37992 0.6055 0.19754 0.0
H797 H 0.50307 0.69749 0.17498 0.0
H798 H 0.47945 0.70471 0.16658 0.0
H799 H 0.48646 0.70523 0.19485 0.0
H800 H 0.4024 0.70819 0.16746 0.0
H801 H 0.42693 0.71402 0.23373 0.0
H802 H 0.40432 0.65755 0.15112 0.0
H803 H 0.43725 0.68077 0.14628 0.0
H804 H 0.41303 0.68807 0.14029 0.0
H805 H 0.43131 0.66206 0.23494 0.0
H806 H 0.44776 0.69363 0.24641 0.0
H807 H 0.46331 0.68446 0.22667 0.0
C808 C 0.82285 0.44589 0.36076 0.0
C809 C 0.83495 0.46144 0.34269 0.0
C810 C 0.79859 0.44027 0.3675 0.0
C811 C 0.78612 0.45047 0.35589 0.0
C812 C 0.7988 0.46728 0.33836 0.0
C813 C 0.82307 0.47255 0.33195 0.0
C814 C 0.78578 0.42238 0.38636 0.0
C815 C 0.78618 0.4786 0.32563 0.0
C816 C 0.71379 0.40951 0.35689 0.0
C817 C 0.70755 0.4212 0.37332 0.0
C818 C 0.73924 0.41941 0.35055 0.0
C819 C 0.75897 0.44159 0.36087 0.0
C820 C 0.75272 0.45414 0.37679 0.0
C821 C 0.72704 0.44378 0.38285 0.0
C822 C 0.74508 0.40552 0.33341 0.0
C823 C 0.77322 0.47793 0.38802 0.0
H824 H 0.83211 0.43756 0.36931 0.0
H825 H 0.83219 0.48439 0.31784 0.0
H826 H 0.7788 0.43082 0.39841 0.0
H827 H 0.76891 0.40445 0.38039 0.0
H828 H 0.79882 0.41773 0.39475 0.0
H829 H 0.79969 0.49362 0.31427 0.0
H830 H 0.77007 0.46346 0.31601 0.0
H831 H 0.77813 0.48682 0.33682 0.0
H832 H 0.69883 0.39213 0.34936 0.0
H833 H 0.72235 0.45294 0.39554 0.0
H834 H 0.75626 0.39799 0.34077 0.0
H835 H 0.75692 0.41874 0.32025 0.0
H836 H 0.72747 0.38943 0.32604 0.0
H837 H 0.78505 0.47331 0.39833 0.0
H838 H 0.7651 0.48671 0.3985 0.0
H839 H 0.78613 0.49208 0.37584 0.0
C840 C 0.14287 0.57185 0.44077 0.0
C841 C 0.15144 0.58441 0.42079 0.0
C842 C 0.1577 0.5819 0.45971 0.0
C843 C 0.18177 0.60485 0.45851 0.0
C844 C 0.19066 0.61737 0.43829 0.0
C845 C 0.17533 0.60706 0.4197 0.0
C846 C 0.1475 0.56815 0.48104 0.0
C847 C 0.21635 0.64169 0.43628 0.0
C848 C 0.21043 0.64535 0.50924 0.0
C849 C 0.22822 0.63889 0.51569 0.0
C850 C 0.19493 0.6341 0.49087 0.0
C851 C 0.19746 0.61616 0.47846 0.0
C852 C 0.2154 0.60958 0.48481 0.0
C853 C 0.23046 0.62091 0.50343 0.0
C854 C 0.17586 0.64144 0.48471 0.0
C855 C 0.21886 0.59078 0.4718 0.0
H856 H 0.12437 0.55438 0.44164 0.0
H857 H 0.18221 0.61657 0.40418 0.0
H858 H 0.16109 0.56338 0.48807 0.0
H859 H 0.14563 0.58069 0.49292 0.0
H860 H 0.12857 0.55037 0.47917 0.0
H861 H 0.22076 0.64865 0.41924 0.0
H862 H 0.21682 0.65669 0.44664 0.0
H863 H 0.23166 0.63872 0.44218 0.0
H864 H 0.20841 0.65907 0.51868 0.0
H865 H 0.24421 0.61587 0.50823 0.0
H866 H 0.15636 0.62428 0.48391 0.0
H867 H 0.1804 0.65016 0.46829 0.0
H868 H 0.17571 0.65511 0.49645 0.0
H869 H 0.20049 0.57232 0.47077 0.0
H870 H 0.23349 0.58755 0.47901 0.0
H871 H 0.22469 0.59774 0.4549 0.0
C872 C 0.57454 0.13296 0.59931 0.0
C873 C 0.56319 0.13881 0.58242 0.0
C874 C 0.58339 0.14804 0.61818 0.0
C875 C 0.58109 0.16962 0.62004 0.0
C876 C 0.56839 0.17479 0.60357 0.0
C877 C 0.55954 0.15927 0.58497 0.0
C878 C 0.59647 0.1417 0.63558 0.0
C879 C 0.56572 0.19771 0.60485 0.0
C880 C 0.59607 0.20457 0.67432 0.0
C881 C 0.62204 0.22298 0.67168 0.0
C882 C 0.58231 0.18701 0.65762 0.0
C883 C 0.59474 0.18843 0.63774 0.0
C884 C 0.62071 0.20766 0.63477 0.0
C885 C 0.63411 0.22447 0.65188 0.0
C886 C 0.55478 0.1665 0.66148 0.0
C887 C 0.63449 0.21023 0.6136 0.0
H888 H 0.5771 0.11697 0.59749 0.0
H889 H 0.55105 0.16406 0.57186 0.0
H890 H 0.61725 0.15608 0.63552 0.0
H891 H 0.58901 0.14225 0.65192 0.0
H892 H 0.59386 0.12266 0.63302 0.0
H893 H 0.55263 0.19726 0.59216 0.0
H894 H 0.5585 0.19901 0.62108 0.0
H895 H 0.58476 0.2152 0.60264 0.0
H896 H 0.5868 0.20329 0.68973 0.0
H897 H 0.65415 0.23886 0.64978 0.0
H898 H 0.55293 0.14764 0.66117 0.0
H899 H 0.54247 0.16648 0.6483 0.0
H900 H 0.54752 0.16883 0.67737 0.0
H901 H 0.63546 0.19302 0.61073 0.0
H902 H 0.65425 0.22708 0.61354 0.0
H903 H 0.62382 0.21184 0.59978 0.0
C904 C 0.43084 0.58789 0.74757 0.0
C905 C 0.4322 0.56597 0.74607 0.0
C906 C 0.4246 0.59497 0.76721 0.0
C907 C 0.41935 0.57963 0.78585 0.0
C908 C 0.4192 0.55668 0.78419 0.0
C909 C 0.42569 0.55012 0.76427 0.0
C910 C 0.42494 0.61958 0.76825 0.0
C911 C 0.41346 0.53974 0.80367 0.0
C912 C 0.43811 0.61818 0.83788 0.0
C913 C 0.41475 0.6148 0.84484 0.0
C914 C 0.43955 0.60563 0.81939 0.0
C915 C 0.41708 0.58938 0.80741 0.0
C916 C 0.3932 0.58484 0.81492 0.0
C917 C 0.39229 0.59756 0.83365 0.0
C918 C 0.46538 0.61083 0.81208 0.0
C919 C 0.36884 0.56757 0.80258 0.0
H920 H 0.43517 0.59986 0.73339 0.0
H921 H 0.42665 0.53312 0.7632 0.0
H922 H 0.40697 0.6164 0.77559 0.0
H923 H 0.44093 0.63337 0.7788 0.0
H924 H 0.42734 0.62823 0.75193 0.0
H925 H 0.41049 0.52097 0.79902 0.0
H926 H 0.42963 0.54904 0.81532 0.0
H927 H 0.39618 0.5367 0.8123 0.0
H928 H 0.45551 0.63111 0.84666 0.0
H929 H 0.37416 0.59479 0.839 0.0
H930 H 0.47072 0.62137 0.79647 0.0
H931 H 0.46466 0.59274 0.80915 0.0
H932 H 0.48061 0.6222 0.82421 0.0
H933 H 0.36893 0.57672 0.78706 0.0
H934 H 0.3516 0.56339 0.81201 0.0
H935 H 0.36747 0.54941 0.79839 0.0
C936 C 0.88382 0.45975 0.9396 0.0
C937 C 0.88043 0.44408 0.92175 0.0
C938 C 0.86906 0.44964 0.95855 0.0
C939 C 0.85004 0.42344 0.95931 0.0
C940 C 0.84644 0.40765 0.94118 0.0
C941 C 0.86191 0.41813 0.92271 0.0
C942 C 0.87384 0.46694 0.97776 0.0
C943 C 0.82598 0.37976 0.94113 0.0
C944 C 0.82467 0.38947 0.01323 0.0
C945 C 0.80197 0.38951 0.01553 0.0
C946 C 0.84088 0.40112 0.99533 0.0
C947 C 0.83383 0.41243 0.97903 0.0
C948 C 0.81085 0.41242 0.98123 0.0
C949 C 0.79537 0.40127 -0.00037 0.0
C950 C 0.86551 0.40128 0.99382 0.0
C951 C 0.80235 0.42369 0.96391 0.0
H952 H 0.89818 0.47984 0.93876 0.0
H953 H 0.8591 0.40614 0.90871 0.0
H954 H 0.85642 0.46746 0.98139 0.0
H955 H 0.8782 0.45949 0.99244 0.0
H956 H 0.88993 0.48665 0.97482 0.0
H957 H 0.82528 0.37026 0.92551 0.0
H958 H 0.82942 0.36995 0.95453 0.0
H959 H 0.807 0.37739 0.94405 0.0
H960 H 0.82996 0.38063 0.02563 0.0
H961 H 0.77774 0.40119 0.00132 0.0
H962 H 0.88189 0.42102 0.9918 0.0
H963 H 0.86511 0.39031 0.9793 0.0
H964 H 0.86891 0.39296 0.00847 0.0
H965 H 0.81711 0.444 0.9615 0.0
H966 H 0.78397 0.42215 0.96808 0.0
H967 H 0.80004 0.41383 0.94814 0.0
C968 C 0.4127 0.86874 0.08649 0.0
C969 C 0.43765 0.88079 0.07808 0.0
C970 C 0.40592 0.85375 0.10527 0.0
C971 C 0.42472 0.85142 0.11645 0.0
C972 C 0.45021 0.86454 0.10878 0.0
C973 C 0.45628 0.87872 0.08952 0.0
C974 C 0.37842 0.83978 0.11279 0.0
C975 C 0.47094 0.86313 0.12063 0.0
C976 C 0.40554 0.8268 0.17404 0.0
C977 C 0.39716 0.80111 0.17124 0.0
C978 C 0.41613 0.84381 0.1566 0.0
C979 C 0.41735 0.83458 0.13576 0.0
C980 C 0.40955 0.8087 0.13306 0.0
C981 C 0.39984 0.79229 0.151 0.0
C982 C 0.42508 0.87142 0.16031 0.0
C983 C 0.40998 0.798 0.11101 0.0
H984 H 0.39826 0.87065 0.0782 0.0
H985 H 0.47553 0.88753 0.08314 0.0
H986 H 0.37074 0.81905 0.11309 0.0
H987 H 0.3772 0.84567 0.12962 0.0
H988 H 0.36605 0.84331 0.10209 0.0
H989 H 0.49022 0.87648 0.11384 0.0
H990 H 0.47089 0.8675 0.13818 0.0
H991 H 0.46727 0.84358 0.11946 0.0
H992 H 0.40335 0.83345 0.1898 0.0
H993 H 0.393 0.77228 0.14893 0.0
H994 H 0.4118 0.87591 0.15222 0.0
H995 H 0.44427 0.88382 0.15301 0.0
H996 H 0.426 0.87613 0.1779 0.0
H997 H 0.39648 0.79932 0.09993 0.0
H998 H 0.40453 0.77781 0.11189 0.0
H999 H 0.42927 0.80923 0.10364 0.0
C1000 C 0.5831 0.46191 0.26582 0.0
C1001 C 0.5825 0.44867 0.24697 0.0
C1002 C 0.58899 0.45596 0.28619 0.0
C1003 C 0.59432 0.43631 0.28766 0.0
C1004 C 0.59477 0.42366 0.26854 0.0
C1005 C 0.58895 0.43005 0.24846 0.0
C1006 C 0.58848 0.46996 0.30622 0.0
C1007 C 0.60042 0.40264 0.26937 0.0
C1008 C 0.62434 0.42561 0.33726 0.0
C1009 C 0.60293 0.40492 0.34708 0.0
C1010 C 0.62178 0.43691 0.31841 0.0
C1011 C 0.59724 0.42727 0.30922 0.0
C1012 C 0.57548 0.40719 0.31962 0.0
C1013 C 0.57858 0.39628 0.33838 0.0
C1014 C 0.6454 0.45839 0.30781 0.0
C1015 C 0.54896 0.3964 0.31038 0.0
H1016 H 0.57811 0.47629 0.26477 0.0
H1017 H 0.58912 0.42018 0.23386 0.0
H1018 H 0.57199 0.45687 0.31661 0.0
H1019 H 0.60604 0.47668 0.31604 0.0
H1020 H 0.58682 0.48651 0.30208 0.0
H1021 H 0.60156 0.39579 0.25288 0.0
H1022 H 0.61874 0.40925 0.27796 0.0
H1023 H 0.58519 0.38636 0.27868 0.0
H1024 H 0.64323 0.43251 0.34387 0.0
H1025 H 0.56185 0.38051 0.34595 0.0
H1026 H 0.64264 0.47434 0.3041 0.0
H1027 H 0.64896 0.45175 0.29213 0.0
H1028 H 0.66262 0.46557 0.31824 0.0
H1029 H 0.54513 0.41181 0.30748 0.0
H1030 H 0.53388 0.38213 0.32132 0.0
H1031 H 0.54753 0.38719 0.29444 0.0
C1032 C 0.4248 0.88516 0.34245 0.0
C1033 C 0.42979 0.87863 0.36282 0.0
C1034 C 0.41815 0.86863 0.32459 0.0
C1035 C 0.41589 0.84479 0.32738 0.0
C1036 C 0.42205 0.83863 0.34771 0.0
C1037 C 0.42914 0.85577 0.36518 0.0
C1038 C 0.41229 0.87613 0.30304 0.0
C1039 C 0.41954 0.81328 0.35142 0.0
C1040 C 0.36704 0.79296 0.29024 0.0
C1041 C 0.3826 0.79145 0.27432 0.0
C1042 C 0.37773 0.80958 0.30803 0.0
C1043 C 0.40464 0.82546 0.30969 0.0
C1044 C 0.42049 0.82363 0.29394 0.0
C1045 C 0.40926 0.80643 0.27653 0.0
C1046 C 0.36018 0.81058 0.32476 0.0
C1047 C 0.44922 0.84051 0.29502 0.0
H1048 H 0.42542 0.90292 0.34067 0.0
H1049 H 0.43275 0.85064 0.38104 0.0
H1050 H 0.42244 0.87292 0.28962 0.0
H1051 H 0.3915 0.86413 0.29966 0.0
H1052 H 0.41781 0.89636 0.30288 0.0
H1053 H 0.42767 0.81254 0.36733 0.0
H1054 H 0.39903 0.79805 0.35105 0.0
H1055 H 0.42923 0.8091 0.33826 0.0
H1056 H 0.34643 0.78122 0.28872 0.0
H1057 H 0.42138 0.80544 0.26418 0.0
H1058 H 0.36208 0.82944 0.32432 0.0
H1059 H 0.36564 0.80811 0.34136 0.0
H1060 H 0.33982 0.79573 0.32194 0.0
H1061 H 0.45484 0.8606 0.29284 0.0
H1062 H 0.45888 0.83561 0.28231 0.0
H1063 H 0.45628 0.8391 0.31124 0.0
C1064 C 0.60334 0.43611 0.55227 0.0
C1065 C 0.58894 0.44777 0.55283 0.0
C1066 C 0.60724 0.4268 0.5327 0.0
C1067 C 0.59656 0.42929 0.51318 0.0
C1068 C 0.58261 0.44168 0.51351 0.0
C1069 C 0.57887 0.45068 0.53336 0.0
C1070 C 0.62206 0.41354 0.53304 0.0
C1071 C 0.57114 0.4449 0.49298 0.0
C1072 C 0.62162 0.42015 0.45934 0.0
C1073 C 0.60275 0.39509 0.45388 0.0
C1074 C 0.61981 0.43163 0.47852 0.0
C1075 C 0.59875 0.41764 0.49266 0.0
C1076 C 0.57976 0.39231 0.48733 0.0
C1077 C 0.58194 0.38139 0.468 0.0
C1078 C 0.64036 0.45873 0.48362 0.0
C1079 C 0.55713 0.3767 0.5021 0.0
H1080 H 0.61088 0.43351 0.56731 0.0
H1081 H 0.56796 0.45991 0.53369 0.0
H1082 H 0.60932 0.39331 0.52837 0.0
H1083 H 0.63782 0.42222 0.52097 0.0
H1084 H 0.63029 0.41439 0.54934 0.0
H1085 H 0.56219 0.45633 0.49577 0.0
H1086 H 0.58605 0.45426 0.48024 0.0
H1087 H 0.55637 0.426 0.48654 0.0
H1088 H 0.63773 0.43095 0.44852 0.0
H1089 H 0.56731 0.36198 0.46403 0.0
H1090 H 0.64951 0.45962 0.49942 0.0
H1091 H 0.63176 0.4706 0.48528 0.0
H1092 H 0.65537 0.46709 0.47084 0.0
H1093 H 0.56384 0.37523 0.51848 0.0
H1094 H 0.5441 0.35721 0.49567 0.0
H1095 H 0.54611 0.38617 0.50421 0.0
C1096 C 0.1713 0.5775 0.71239 0.0
C1097 C 0.14657 0.55609 0.71025 0.0
C1098 C 0.18654 0.58944 0.69409 0.0
C1099 C 0.17694 0.57966 0.67307 0.0
C1100 C 0.15225 0.55771 0.67075 0.0
C1101 C 0.13732 0.54618 0.68939 0.0
C1102 C 0.21277 0.61283 0.69725 0.0
C1103 C 0.14139 0.54675 0.64858 0.0
C1104 C 0.20621 0.62769 0.62749 0.0
C1105 C 0.22437 0.62271 0.61886 0.0
C1106 C 0.19013 0.61326 0.64464 0.0
C1107 C 0.19229 0.59341 0.65356 0.0
C1108 C 0.21014 0.58785 0.64465 0.0
C1109 C 0.22593 0.60252 0.62733 0.0
C1110 C 0.17123 0.6197 0.65359 0.0
C1111 C 0.21303 0.56686 0.65381 0.0
H1112 H 0.17885 0.58492 0.72847 0.0
H1113 H 0.1182 0.52972 0.6876 0.0
H1114 H 0.22745 0.6101 0.68937 0.0
H1115 H 0.21363 0.62936 0.68934 0.0
H1116 H 0.21777 0.61745 0.71473 0.0
H1117 H 0.12256 0.52873 0.64963 0.0
H1118 H 0.13906 0.56062 0.63907 0.0
H1119 H 0.15478 0.54314 0.6394 0.0
H1120 H 0.2046 0.64303 0.62091 0.0
H1121 H 0.23988 0.59852 0.62077 0.0
H1122 H 0.17618 0.62631 0.67071 0.0
H1123 H 0.1517 0.60256 0.65365 0.0
H1124 H 0.17093 0.63475 0.64403 0.0
H1125 H 0.21999 0.57151 0.67085 0.0
H1126 H 0.22664 0.56391 0.64421 0.0
H1127 H 0.19424 0.54879 0.65417 0.0
C1128 C 0.63018 0.14426 0.85075 0.0
C1129 C 0.61097 0.14018 0.8656 0.0
C1130 C 0.63546 0.15969 0.83241 0.0
C1131 C 0.62094 0.17108 0.82862 0.0
C1132 C 0.60081 0.1662 0.84298 0.0
C1133 C 0.59617 0.15095 0.86136 0.0
C1134 C 0.65708 0.16442 0.81745 0.0
C1135 C 0.58475 0.1778 0.83936 0.0
C1136 C 0.65361 0.23173 0.79539 0.0
C1137 C 0.64279 0.22273 0.77485 0.0
C1138 C 0.6461 0.2152 0.81321 0.0
C1139 C 0.62769 0.18904 0.81019 0.0
C1140 C 0.61652 0.18 0.78941 0.0
C1141 C 0.62414 0.19705 0.77196 0.0
C1142 C 0.65821 0.22562 0.83517 0.0
C1143 C 0.59702 0.15225 0.78551 0.0
H1144 H 0.64141 0.13565 0.85363 0.0
H1145 H 0.58151 0.14825 0.87284 0.0
H1146 H 0.6501 0.15939 0.80045 0.0
H1147 H 0.67211 0.18491 0.81769 0.0
H1148 H 0.66589 0.15337 0.82221 0.0
H1149 H 0.56858 0.17056 0.85104 0.0
H1150 H 0.59682 0.19874 0.84117 0.0
H1151 H 0.57696 0.17377 0.82255 0.0
H1152 H 0.66808 0.25167 0.79743 0.0
H1153 H 0.61599 0.19025 0.75591 0.0
H1154 H 0.66914 0.21682 0.8403 0.0
H1155 H 0.6432 0.22073 0.84761 0.0
H1156 H 0.67134 0.24658 0.83498 0.0
H1157 H 0.6058 0.14077 0.78854 0.0
H1158 H 0.58943 0.14848 0.76861 0.0
H1159 H 0.58083 0.14563 0.79705 0.0
C1160 C 0.42869 0.55508 0.02573 0.0
C1161 C 0.44248 0.57116 0.04312 0.0
C1162 C 0.42529 0.56499 0.00637 0.0
C1163 C 0.43529 0.59144 0.00479 0.0
C1164 C 0.449 0.60764 0.02251 0.0
C1165 C 0.4527 0.59731 0.04137 0.0
C1166 C 0.41112 0.54724 0.98762 0.0
C1167 C 0.45941 0.63584 0.02168 0.0
C1168 C 0.44792 0.62458 0.95029 0.0
C1169 C 0.42614 0.62621 0.94785 0.0
C1170 C 0.45066 0.6124 0.96835 0.0
C1171 C 0.43153 0.60235 0.98466 0.0
C1172 C 0.40946 0.60391 0.98224 0.0
C1173 C 0.40685 0.6155 0.96366 0.0
C1174 C 0.47412 0.61048 0.97007 0.0
C1175 C 0.38899 0.59404 -0.00042 0.0
H1176 H 0.4208 0.53483 0.02724 0.0
H1177 H 0.46308 0.6096 0.05504 0.0
H1178 H 0.39376 0.54772 0.98376 0.0
H1179 H 0.42334 0.55353 0.97284 0.0
H1180 H 0.40532 0.52732 0.99122 0.0
H1181 H 0.46896 0.64565 0.03711 0.0
H1182 H 0.4734 0.64456 0.00819 0.0
H1183 H 0.44369 0.63923 0.01835 0.0
H1184 H 0.46269 0.63258 0.93791 0.0
H1185 H 0.39005 0.61686 0.96181 0.0
H1186 H 0.46844 0.59045 0.97281 0.0
H1187 H 0.48579 0.6217 0.98425 0.0
H1188 H 0.48622 0.61752 0.95522 0.0
H1189 H 0.38142 0.57363 0.00259 0.0
H1190 H 0.37283 0.59636 0.99505 0.0
H1191 H 0.39731 0.60431 0.01512 0.0
C1192 C 0.88524 0.44486 0.19425 0.0
C1193 C 0.87842 0.45443 0.21196 0.0
C1194 C 0.87048 0.43697 0.17518 0.0
C1195 C 0.84802 0.43805 0.17415 0.0
C1196 C 0.84174 0.44881 0.19167 0.0
C1197 C 0.85721 0.45712 0.21034 0.0
C1198 C 0.87815 0.42617 0.15665 0.0
C1199 C 0.81773 0.44986 0.19138 0.0
C1200 C 0.81403 0.42515 0.11958 0.0
C1201 C 0.797 0.39882 0.12064 0.0
C1202 C 0.83064 0.4384 0.137 0.0
C1203 C 0.82961 0.42503 0.15602 0.0
C1204 C 0.81158 0.39863 0.15748 0.0
C1205 C 0.79575 0.38581 0.13966 0.0
C1206 C 0.84997 0.46643 0.1347 0.0
C1207 C 0.8094 0.38376 0.17768 0.0
H1208 H 0.90174 0.44291 0.19557 0.0
H1209 H 0.85189 0.46434 0.2242 0.0
H1210 H 0.86466 0.40533 0.15567 0.0
H1211 H 0.87718 0.43436 0.14091 0.0
H1212 H 0.89779 0.42987 0.15876 0.0
H1213 H 0.81716 0.46143 0.20504 0.0
H1214 H 0.81603 0.45784 0.1758 0.0
H1215 H 0.80081 0.43031 0.1927 0.0
H1216 H 0.81512 0.43518 0.10479 0.0
H1217 H 0.7824 0.36548 0.14056 0.0
H1218 H 0.86952 0.46964 0.13457 0.0
H1219 H 0.84883 0.47707 0.14882 0.0
H1220 H 0.84718 0.47436 0.11951 0.0
H1221 H 0.82722 0.38359 0.17995 0.0
H1222 H 0.79308 0.3638 0.1768 0.0
H1223 H 0.80696 0.39295 0.19229 0.0
loop_
_geom_bond_atom_site_label_1
_geom_bond_atom_site_label_2
_geom_bond_distance
_geom_bond_site_symmetry_2
_ccdc_geom_bond_type
H0 C27 0.929 . S
N1 C26 1.433 . S
N1 C32 1.435 . S
N1 C38 1.423 . S
H2 C28 0.930 . S
H3 C31 0.931 . S
H4 C30 0.929 . S
H5 C33 0.930 . S
H6 C34 0.932 . S
H7 C37 0.929 . S
H8 C36 0.931 . S
H9 C39 0.929 . S
H10 C43 0.932 . S
H11 C40 0.931 . S
H12 C42 0.929 . S
H13 C45 0.929 . S
H14 C46 0.930 . S
H15 C48 0.929 . S
H16 C49 0.931 . S
H17 C51 0.930 . S
H18 C52 0.932 . S
H19 C54 0.931 . S
H20 C55 0.929 . S
H21 C57 0.929 . S
H22 C58 0.931 . S
H23 C60 0.929 . S
N24 C44 1.433 . S
N24 C50 1.435 . S
N24 C56 1.423 . S
H25 C61 0.932 . S
C26 N1 1.433 . S
C26 C27 1.363 . S
C26 C31 1.370 . S
C27 H0 0.929 . S
C27 C26 1.363 . S
C27 C28 1.385 . S
C28 H2 0.930 . S
C28 C27 1.385 . S
C28 C29 1.357 . S
C29 C28 1.357 . S
C29 C30 1.406 . S
C30 H4 0.929 . S
C30 C29 1.406 . S
C30 C31 1.391 . S
C31 H3 0.931 . S
C31 C26 1.370 . S
C31 C30 1.391 . S
C32 N1 1.435 . S
C32 C33 1.358 . S
C32 C37 1.371 . S
C33 H5 0.930 . S
C33 C32 1.358 . S
C33 C34 1.405 . S
C34 H6 0.932 . S
C34 C33 1.405 . S
C34 C35 1.383 . S
C35 C34 1.383 . S
C35 C36 1.393 . S
C36 H8 0.931 . S
C36 C35 1.393 . S
C36 C37 1.382 . S
C37 H7 0.929 . S
C37 C32 1.371 . S
C37 C36 1.382 . S
C38 N1 1.423 . S
C38 C39 1.362 . S
C38 C43 1.388 . S
C39 H9 0.929 . S
C39 C38 1.362 . S
C39 C40 1.376 . S
C40 H11 0.931 . S
C40 C39 1.376 . S
C40 C41 1.396 . S
C41 C40 1.396 . S
C41 C42 1.348 . S
C41 C59 1.472 1_455 S
C42 H12 0.929 . S
C42 C41 1.348 . S
C42 C43 1.443 . S
C43 H10 0.932 . S
C43 C38 1.388 . S
C43 C42 1.443 . S
C44 N24 1.433 . S
C44 C45 1.363 . S
C44 C49 1.370 . S
C45 H13 0.929 . S
C45 C44 1.363 . S
C45 C46 1.385 . S
C46 H14 0.930 . S
C46 C45 1.385 . S
C46 C47 1.357 . S
C47 C46 1.357 . S
C47 C48 1.406 . S
C48 H15 0.929 . S
C48 C47 1.406 . S
C48 C49 1.391 . S
C49 H16 0.931 . S
C49 C44 1.370 . S
C49 C48 1.391 . S
C50 N24 1.435 . S
C50 C51 1.358 . S
C50 C55 1.371 . S
C51 H17 0.930 . S
C51 C50 1.358 . S
C51 C52 1.405 . S
C52 H18 0.932 . S
C52 C51 1.405 . S
C52 C53 1.383 . S
C53 C52 1.383 . S
C53 C54 1.393 . S
C54 H19 0.931 . S
C54 C53 1.393 . S
C54 C55 1.382 . S
C55 H20 0.929 . S
C55 C50 1.371 . S
C55 C54 1.382 . S
C56 N24 1.423 . S
C56 C57 1.362 . S
C56 C61 1.388 . S
C57 H21 0.929 . S
C57 C56 1.362 . S
C57 C58 1.376 . S
C58 H22 0.931 . S
C58 C57 1.376 . S
C58 C59 1.396 . S
C59 C41 1.472 1_655 S
C59 C58 1.396 . S
C59 C60 1.348 . S
C60 H23 0.929 . S
C60 C59 1.348 . S
C60 C61 1.443 . S
C61 H25 0.932 . S
C61 C56 1.388 . S
C61 C60 1.443 . S
H62 C89 0.929 . S
N63 C88 1.433 . S
N63 C94 1.435 . S
N63 C100 1.423 . S
H64 C90 0.930 . S
H65 C93 0.931 . S
H66 C92 0.929 . S
H67 C95 0.930 . S
H68 C96 0.932 . S
H69 C99 0.929 . S
H70 C98 0.931 . S
H71 C101 0.929 . S
H72 C105 0.932 . S
H73 C102 0.931 . S
H74 C104 0.929 1_545 S
H75 C107 0.929 . S
H76 C108 0.930 . S
H77 C110 0.929 . S
H78 C111 0.931 . S
H79 C113 0.930 . S
H80 C114 0.932 . S
H81 C116 0.931 . S
H82 C117 0.929 . S
H83 C119 0.929 . S
H84 C120 0.931 . S
H85 C122 0.929 . S
N86 C106 1.433 . S
N86 C112 1.435 . S
N86 C118 1.423 . S
H87 C123 0.932 . S
C88 N63 1.433 . S
C88 C89 1.363 . S
C88 C93 1.370 . S
C89 H62 0.929 . S
C89 C88 1.363 . S
C89 C90 1.385 . S
C90 H64 0.930 . S
C90 C89 1.385 . S
C90 C91 1.357 . S
C91 C90 1.357 . S
C91 C92 1.406 . S
C92 H66 0.929 . S
C92 C91 1.406 . S
C92 C93 1.391 . S
C93 H65 0.931 . S
C93 C88 1.370 . S
C93 C92 1.391 . S
C94 N63 1.435 . S
C94 C95 1.358 . S
C94 C99 1.371 . S
C95 H67 0.930 . S
C95 C94 1.358 . S
C95 C96 1.405 . S
C96 H68 0.932 . S
C96 C95 1.405 . S
C96 C97 1.383 . S
C97 C96 1.383 . S
C97 C98 1.393 . S
C98 H70 0.931 . S
C98 C97 1.393 . S
C98 C99 1.382 . S
C99 H69 0.929 . S
C99 C94 1.371 . S
C99 C98 1.382 . S
C100 N63 1.423 . S
C100 C101 1.362 . S
C100 C105 1.388 . S
C101 H71 0.929 . S
C101 C100 1.362 . S
C101 C102 1.376 . S
C102 H73 0.931 . S
C102 C101 1.376 . S
C102 C103 1.396 1_565 S
C103 C102 1.396 1_545 S
C103 C104 1.348 1_545 S
C103 C121 1.472 . S
C104 H74 0.929 1_565 S
C104 C103 1.348 1_565 S
C104 C105 1.443 . S
C105 H72 0.932 . S
C105 C100 1.388 . S
C105 C104 1.443 . S
C106 N86 1.433 . S
C106 C107 1.363 . S
C106 C111 1.370 . S
C107 H75 0.929 . S
C107 C106 1.363 . S
C107 C108 1.385 . S
C108 H76 0.930 . S
C108 C107 1.385 . S
C108 C109 1.357 . S
C109 C108 1.357 . S
C109 C110 1.406 . S
C110 H77 0.929 . S
C110 C109 1.406 . S
C110 C111 1.391 . S
C111 H78 0.931 . S
C111 C106 1.370 . S
C111 C110 1.391 . S
C112 N86 1.435 . S
C112 C113 1.358 . S
C112 C117 1.371 . S
C113 H79 0.930 . S
C113 C112 1.358 . S
C113 C114 1.405 . S
C114 H80 0.932 . S
C114 C113 1.405 . S
C114 C115 1.383 . S
C115 C114 1.383 . S
C115 C116 1.393 . S
C116 H81 0.931 . S
C116 C115 1.393 . S
C116 C117 1.382 . S
C117 H82 0.929 . S
C117 C112 1.371 . S
C117 C116 1.382 . S
C118 N86 1.423 . S
C118 C119 1.362 . S
C118 C123 1.388 . S
C119 H83 0.929 . S
C119 C118 1.362 . S
C119 C120 1.376 . S
C120 H84 0.931 . S
C120 C119 1.376 . S
C120 C121 1.396 . S
C121 C103 1.472 . S
C121 C120 1.396 . S
C121 C122 1.348 . S
C122 H85 0.929 . S
C122 C121 1.348 . S
C122 C123 1.443 . S
C123 H87 0.932 . S
C123 C118 1.388 . S
C123 C122 1.443 . S
H124 C151 0.929 . S
N125 C150 1.433 . S
N125 C156 1.435 . S
N125 C162 1.423 . S
H126 C152 0.930 . S
H127 C155 0.931 . S
H128 C154 0.929 . S
H129 C157 0.930 . S
H130 C158 0.932 . S
H131 C161 0.929 . S
H132 C160 0.931 . S
H133 C163 0.929 . S
H134 C167 0.932 . S
H135 C164 0.931 . S
H136 C166 0.929 . S
H137 C169 0.929 . S
H138 C170 0.930 . S
H139 C172 0.929 . S
H140 C173 0.931 . S
H141 C175 0.930 . S
H142 C176 0.932 . S
H143 C178 0.931 . S
H144 C179 0.929 . S
H145 C181 0.929 . S
H146 C182 0.931 . S
H147 C184 0.929 . S
N148 C168 1.433 . S
N148 C174 1.435 . S
N148 C180 1.423 . S
H149 C185 0.932 . S
C150 N125 1.433 . S
C150 C151 1.363 . S
C150 C155 1.370 . S
C151 H124 0.929 . S
C151 C150 1.363 . S
C151 C152 1.385 . S
C152 H126 0.930 . S
C152 C151 1.385 . S
C152 C153 1.357 . S
C153 C152 1.357 . S
C153 C154 1.406 . S
C154 H128 0.929 . S
C154 C153 1.406 . S
C154 C155 1.391 . S
C155 H127 0.931 . S
C155 C150 1.370 . S
C155 C154 1.391 . S
C156 N125 1.435 . S
C156 C157 1.358 . S
C156 C161 1.371 . S
C157 H129 0.930 . S
C157 C156 1.358 . S
C157 C158 1.405 . S
C158 H130 0.932 . S
C158 C157 1.405 . S
C158 C159 1.383 . S
C159 C158 1.383 . S
C159 C160 1.393 . S
C160 H132 0.931 . S
C160 C159 1.393 . S
C160 C161 1.382 . S
C161 H131 0.929 . S
C161 C156 1.371 . S
C161 C160 1.382 . S
C162 N125 1.423 . S
C162 C163 1.362 . S
C162 C167 1.388 . S
C163 H133 0.929 . S
C163 C162 1.362 . S
C163 C164 1.376 . S
C164 H135 0.931 . S
C164 C163 1.376 . S
C164 C165 1.396 . S
C165 C164 1.396 . S
C165 C166 1.348 . S
C165 C183 1.472 . S
C166 H136 0.929 . S
C166 C165 1.348 . S
C166 C167 1.443 . S
C167 H134 0.932 . S
C167 C162 1.388 . S
C167 C166 1.443 . S
C168 N148 1.433 . S
C168 C169 1.363 . S
C168 C173 1.370 . S
C169 H137 0.929 . S
C169 C168 1.363 . S
C169 C170 1.385 . S
C170 H138 0.930 . S
C170 C169 1.385 . S
C170 C171 1.357 . S
C171 C170 1.357 . S
C171 C172 1.406 . S
C172 H139 0.929 . S
C172 C171 1.406 . S
C172 C173 1.391 . S
C173 H140 0.931 . S
C173 C168 1.370 . S
C173 C172 1.391 . S
C174 N148 1.435 . S
C174 C175 1.358 . S
C174 C179 1.371 . S
C175 H141 0.930 . S
C175 C174 1.358 . S
C175 C176 1.405 . S
C176 H142 0.932 . S
C176 C175 1.405 . S
C176 C177 1.383 . S
C177 C176 1.383 . S
C177 C178 1.393 . S
C178 H143 0.931 . S
C178 C177 1.393 . S
C178 C179 1.382 . S
C179 H144 0.929 . S
C179 C174 1.371 . S
C179 C178 1.382 . S
C180 N148 1.423 . S
C180 C181 1.362 . S
C180 C185 1.388 . S
C181 H145 0.929 . S
C181 C180 1.362 . S
C181 C182 1.376 . S
C182 H146 0.931 . S
C182 C181 1.376 . S
C182 C183 1.396 . S
C183 C165 1.472 . S
C183 C182 1.396 . S
C183 C184 1.348 . S
C184 H147 0.929 . S
C184 C183 1.348 . S
C184 C185 1.443 . S
C185 H149 0.932 . S
C185 C180 1.388 . S
C185 C184 1.443 . S
H186 C213 0.929 . S
N187 C212 1.433 . S
N187 C218 1.435 . S
N187 C224 1.423 . S
H188 C214 0.930 . S
H189 C217 0.931 . S
H190 C216 0.929 . S
H191 C219 0.930 . S
H192 C220 0.932 . S
H193 C223 0.929 . S
H194 C222 0.931 . S
H195 C225 0.929 . S
H196 C229 0.932 . S
H197 C226 0.931 . S
H198 C228 0.929 . S
H199 C231 0.929 . S
H200 C232 0.930 . S
H201 C234 0.929 . S
H202 C235 0.931 . S
H203 C237 0.930 . S
H204 C238 0.932 . S
H205 C240 0.931 . S
H206 C241 0.929 . S
H207 C243 0.929 . S
H208 C244 0.931 . S
H209 C246 0.929 . S
N210 C230 1.433 . S
N210 C236 1.435 . S
N210 C242 1.423 . S
H211 C247 0.932 . S
C212 N187 1.433 . S
C212 C213 1.363 . S
C212 C217 1.370 . S
C213 H186 0.929 . S
C213 C212 1.363 . S
C213 C214 1.385 . S
C214 H188 0.930 . S
C214 C213 1.385 . S
C214 C215 1.357 . S
C215 C214 1.357 . S
C215 C216 1.406 . S
C216 H190 0.929 . S
C216 C215 1.406 . S
C216 C217 1.391 . S
C217 H189 0.931 . S
C217 C212 1.370 . S
C217 C216 1.391 . S
C218 N187 1.435 . S
C218 C219 1.358 . S
C218 C223 1.371 . S
C219 H191 0.930 . S
C219 C218 1.358 . S
C219 C220 1.405 . S
C220 H192 0.932 . S
C220 C219 1.405 . S
C220 C221 1.383 . S
C221 C220 1.383 . S
C221 C222 1.393 . S
C222 H194 0.931 . S
C222 C221 1.393 . S
C222 C223 1.382 . S
C223 H193 0.929 . S
C223 C218 1.371 . S
C223 C222 1.382 . S
C224 N187 1.423 . S
C224 C225 1.362 . S
C224 C229 1.388 . S
C225 H195 0.929 . S
C225 C224 1.362 . S
C225 C226 1.376 . S
C226 H197 0.931 . S
C226 C225 1.376 . S
C226 C227 1.396 . S
C227 C226 1.396 . S
C227 C228 1.348 . S
C227 C245 1.472 1_455 S
C228 H198 0.929 . S
C228 C227 1.348 . S
C228 C229 1.443 . S
C229 H196 0.932 . S
C229 C224 1.388 . S
C229 C228 1.443 . S
C230 N210 1.433 . S
C230 C231 1.363 . S
C230 C235 1.370 . S
C231 H199 0.929 . S
C231 C230 1.363 . S
C231 C232 1.385 . S
C232 H200 0.930 . S
C232 C231 1.385 . S
C232 C233 1.357 . S
C233 C232 1.357 . S
C233 C234 1.406 . S
C234 H201 0.929 . S
C234 C233 1.406 . S
C234 C235 1.391 . S
C235 H202 0.931 . S
C235 C230 1.370 . S
C235 C234 1.391 . S
C236 N210 1.435 . S
C236 C237 1.358 . S
C236 C241 1.371 . S
C237 H203 0.930 . S
C237 C236 1.358 . S
C237 C238 1.405 . S
C238 H204 0.932 . S
C238 C237 1.405 . S
C238 C239 1.383 . S
C239 C238 1.383 . S
C239 C240 1.393 . S
C240 H205 0.931 . S
C240 C239 1.393 . S
C240 C241 1.382 . S
C241 H206 0.929 . S
C241 C236 1.371 . S
C241 C240 1.382 . S
C242 N210 1.423 . S
C242 C243 1.362 . S
C242 C247 1.388 . S
C243 H207 0.929 . S
C243 C242 1.362 . S
C243 C244 1.376 . S
C244 H208 0.931 . S
C244 C243 1.376 . S
C244 C245 1.396 . S
C245 C227 1.472 1_655 S
C245 C244 1.396 . S
C245 C246 1.348 . S
C246 H209 0.929 . S
C246 C245 1.348 . S
C246 C247 1.443 . S
C247 H211 0.932 . S
C247 C242 1.388 . S
C247 C246 1.443 . S
H248 C275 0.929 . S
N249 C274 1.433 . S
N249 C280 1.435 . S
N249 C286 1.423 . S
H250 C276 0.930 . S
H251 C279 0.931 . S
H252 C278 0.929 . S
H253 C281 0.930 . S
H254 C282 0.932 . S
H255 C285 0.929 . S
H256 C284 0.931 . S
H257 C287 0.929 . S
H258 C291 0.932 . S
H259 C288 0.931 . S
H260 C290 0.929 . S
H261 C293 0.929 . S
H262 C294 0.930 . S
H263 C296 0.929 . S
H264 C297 0.931 . S
H265 C299 0.930 1_554 S
H266 C300 0.932 . S
H267 C302 0.931 . S
H268 C303 0.929 . S
H269 C305 0.929 . S
H270 C306 0.931 1_554 S
H271 C308 0.929 . S
N272 C292 1.433 . S
N272 C298 1.435 1_554 S
N272 C304 1.423 1_554 S
H273 C309 0.932 . S
C274 N249 1.433 . S
C274 C275 1.363 . S
C274 C279 1.370 . S
C275 H248 0.929 . S
C275 C274 1.363 . S
C275 C276 1.385 . S
C276 H250 0.930 . S
C276 C275 1.385 . S
C276 C277 1.357 1_556 S
C277 C276 1.357 1_554 S
C277 C278 1.406 . S
C278 H252 0.929 . S
C278 C277 1.406 . S
C278 C279 1.391 1_554 S
C279 H251 0.931 . S
C279 C274 1.370 . S
C279 C278 1.391 1_556 S
C280 N249 1.435 . S
C280 C281 1.358 . S
C280 C285 1.371 . S
C281 H253 0.930 . S
C281 C280 1.358 . S
C281 C282 1.405 . S
C282 H254 0.932 . S
C282 C281 1.405 . S
C282 C283 1.383 . S
C283 C282 1.383 . S
C283 C284 1.393 . S
C284 H256 0.931 . S
C284 C283 1.393 . S
C284 C285 1.382 . S
C285 H255 0.929 . S
C285 C280 1.371 . S
C285 C284 1.382 . S
C286 N249 1.423 . S
C286 C287 1.362 . S
C286 C291 1.388 . S
C287 H257 0.929 . S
C287 C286 1.362 . S
C287 C288 1.376 . S
C288 H259 0.931 . S
C288 C287 1.376 . S
C288 C289 1.396 . S
C289 C288 1.396 . S
C289 C290 1.348 . S
C289 C307 1.472 1_545 S
C290 H260 0.929 . S
C290 C289 1.348 . S
C290 C291 1.443 . S
C291 H258 0.932 . S
C291 C286 1.388 . S
C291 C290 1.443 . S
C292 N272 1.433 . S
C292 C293 1.363 . S
C292 C297 1.370 . S
C293 H261 0.929 . S
C293 C292 1.363 . S
C293 C294 1.385 . S
C294 H262 0.930 . S
C294 C293 1.385 . S
C294 C295 1.357 . S
C295 C294 1.357 . S
C295 C296 1.406 . S
C296 H263 0.929 . S
C296 C295 1.406 . S
C296 C297 1.391 . S
C297 H264 0.931 . S
C297 C292 1.370 . S
C297 C296 1.391 . S
C298 N272 1.435 1_556 S
C298 C299 1.358 . S
C298 C303 1.371 . S
C299 H265 0.930 1_556 S
C299 C298 1.358 . S
C299 C300 1.405 . S
C300 H266 0.932 . S
C300 C299 1.405 . S
C300 C301 1.383 . S
C301 C300 1.383 . S
C301 C302 1.393 . S
C302 H267 0.931 . S
C302 C301 1.393 . S
C302 C303 1.382 . S
C303 H268 0.929 . S
C303 C298 1.371 . S
C303 C302 1.382 . S
C304 N272 1.423 1_556 S
C304 C305 1.362 1_556 S
C304 C309 1.388 . S
C305 H269 0.929 . S
C305 C304 1.362 1_554 S
C305 C306 1.376 1_554 S
C306 H270 0.931 1_556 S
C306 C305 1.376 1_556 S
C306 C307 1.396 . S
C307 C289 1.472 1_565 S
C307 C306 1.396 . S
C307 C308 1.348 . S
C308 H271 0.929 . S
C308 C307 1.348 . S
C308 C309 1.443 . S
C309 H273 0.932 . S
C309 C304 1.388 . S
C309 C308 1.443 . S
H310 C337 0.929 . S
N311 C336 1.433 . S
N311 C342 1.435 . S
N311 C348 1.423 . S
H312 C338 0.930 . S
H313 C341 0.931 . S
H314 C340 0.929 . S
H315 C343 0.930 . S
H316 C344 0.932 . S
H317 C347 0.929 . S
H318 C346 0.931 . S
H319 C349 0.929 . S
H320 C353 0.932 . S
H321 C350 0.931 . S
H322 C352 0.929 . S
H323 C355 0.929 . S
H324 C356 0.930 . S
H325 C358 0.929 . S
H326 C359 0.931 . S
H327 C361 0.930 . S
H328 C362 0.932 . S
H329 C364 0.931 . S
H330 C365 0.929 . S
H331 C367 0.929 . S
H332 C368 0.931 . S
H333 C370 0.929 . S
N334 C354 1.433 . S
N334 C360 1.435 . S
N334 C366 1.423 . S
H335 C371 0.932 . S
C336 N311 1.433 . S
C336 C337 1.363 . S
C336 C341 1.370 . S
C337 H310 0.929 . S
C337 C336 1.363 . S
C337 C338 1.385 . S
C338 H312 0.930 . S
C338 C337 1.385 . S
C338 C339 1.357 . S
C339 C338 1.357 . S
C339 C340 1.406 . S
C340 H314 0.929 . S
C340 C339 1.406 . S
C340 C341 1.391 . S
C341 H313 0.931 . S
C341 C336 1.370 . S
C341 C340 1.391 . S
C342 N311 1.435 . S
C342 C343 1.358 . S
C342 C347 1.371 . S
C343 H315 0.930 . S
C343 C342 1.358 . S
C343 C344 1.405 . S
C344 H316 0.932 . S
C344 C343 1.405 . S
C344 C345 1.383 . S
C345 C344 1.383 . S
C345 C346 1.393 . S
C346 H318 0.931 . S
C346 C345 1.393 . S
C346 C347 1.382 . S
C347 H317 0.929 . S
C347 C342 1.371 . S
C347 C346 1.382 . S
C348 N311 1.423 . S
C348 C349 1.362 . S
C348 C353 1.388 . S
C349 H319 0.929 . S
C349 C348 1.362 . S
C349 C350 1.376 . S
C350 H321 0.931 . S
C350 C349 1.376 . S
C350 C351 1.396 . S
C351 C350 1.396 . S
C351 C352 1.348 . S
C351 C369 1.472 . S
C352 H322 0.929 . S
C352 C351 1.348 . S
C352 C353 1.443 . S
C353 H320 0.932 . S
C353 C348 1.388 . S
C353 C352 1.443 . S
C354 N334 1.433 . S
C354 C355 1.363 . S
C354 C359 1.370 . S
C355 H323 0.929 . S
C355 C354 1.363 . S
C355 C356 1.385 . S
C356 H324 0.930 . S
C356 C355 1.385 . S
C356 C357 1.357 . S
C357 C356 1.357 . S
C357 C358 1.406 . S
C358 H325 0.929 . S
C358 C357 1.406 . S
C358 C359 1.391 . S
C359 H326 0.931 . S
C359 C354 1.370 . S
C359 C358 1.391 . S
C360 N334 1.435 . S
C360 C361 1.358 . S
C360 C365 1.371 . S
C361 H327 0.930 . S
C361 C360 1.358 . S
C361 C362 1.405 . S
C362 H328 0.932 . S
C362 C361 1.405 . S
C362 C363 1.383 . S
C363 C362 1.383 . S
C363 C364 1.393 . S
C364 H329 0.931 . S
C364 C363 1.393 . S
C364 C365 1.382 . S
C365 H330 0.929 . S
C365 C360 1.371 . S
C365 C364 1.382 . S
C366 N334 1.423 . S
C366 C367 1.362 . S
C366 C371 1.388 . S
C367 H331 0.929 . S
C367 C366 1.362 . S
C367 C368 1.376 . S
C368 H332 0.931 . S
C368 C367 1.376 . S
C368 C369 1.396 . S
C369 C351 1.472 . S
C369 C368 1.396 . S
C369 C370 1.348 . S
C370 H333 0.929 . S
C370 C369 1.348 . S
C370 C371 1.443 . S
C371 H335 0.932 . S
C371 C366 1.388 . S
C371 C370 1.443 . S
Co372 O373 2.216 . S
Co372 O374 2.091 . S
Co372 O376 2.004 . S
Co372 O382 2.021 . S
Co372 O384 2.137 . S
Co372 O385 2.244 . S
O373 Co372 2.216 . S
O373 C380 1.247 . S
O374 Co372 2.091 . S
O374 C380 1.261 . S
C375 O384 1.247 . S
C375 O385 1.272 . S
O376 Co372 2.004 . S
O376 C381 1.259 . S
Co377 O378 2.061 . S
Co377 O383 2.052 . S
Co377 O385 2.135 . S
O378 Co377 2.061 . S
O378 C381 1.235 . S
C379 O382 1.238 . S
C379 O383 1.241 . S
C380 O373 1.247 . S
C380 O374 1.261 . S
C381 O376 1.259 . S
C381 O378 1.235 . S
O382 Co372 2.021 . S
O382 C379 1.238 . S
O383 Co377 2.052 . S
O383 C379 1.241 . S
O384 Co372 2.137 . S
O384 C375 1.247 . S
O385 Co372 2.244 . S
O385 C375 1.272 . S
O385 Co377 2.135 . S
Co386 O387 2.216 . S
Co386 O388 2.091 . S
Co386 O390 2.004 . S
Co386 O396 2.021 . S
Co386 O398 2.137 . S
Co386 O399 2.244 . S
O387 Co386 2.216 . S
O387 C394 1.247 . S
O388 Co386 2.091 . S
O388 C394 1.261 . S
C389 O398 1.247 . S
C389 O399 1.272 . S
O390 Co386 2.004 . S
O390 C395 1.259 . S
Co391 O392 2.061 . S
Co391 O397 2.052 . S
Co391 O399 2.135 . S
O392 Co391 2.061 . S
O392 C395 1.235 . S
C393 O396 1.238 . S
C393 O397 1.241 . S
C394 O387 1.247 . S
C394 O388 1.261 . S
C395 O390 1.259 . S
C395 O392 1.235 . S
O396 Co386 2.021 . S
O396 C393 1.238 . S
O397 Co391 2.052 . S
O397 C393 1.241 . S
O398 Co386 2.137 . S
O398 C389 1.247 . S
O399 Co386 2.244 . S
O399 C389 1.272 . S
O399 Co391 2.135 . S
Co400 O401 2.216 . S
Co400 O402 2.091 . S
Co400 O404 2.004 . S
Co400 O410 2.021 . S
Co400 O412 2.137 . S
Co400 O413 2.244 . S
O401 Co400 2.216 . S
O401 C408 1.247 . S
O402 Co400 2.091 . S
O402 C408 1.261 . S
C403 O412 1.247 . S
C403 O413 1.272 . S
O404 Co400 2.004 . S
O404 C409 1.259 . S
Co405 O406 2.061 . S
Co405 O411 2.052 . S
Co405 O413 2.135 . S
O406 Co405 2.061 . S
O406 C409 1.235 . S
C407 O410 1.238 . S
C407 O411 1.241 . S
C408 O401 1.247 . S
C408 O402 1.261 . S
C409 O404 1.259 . S
C409 O406 1.235 . S
O410 Co400 2.021 . S
O410 C407 1.238 . S
O411 Co405 2.052 . S
O411 C407 1.241 . S
O412 Co400 2.137 . S
O412 C403 1.247 . S
O413 Co400 2.244 . S
O413 C403 1.272 . S
O413 Co405 2.135 . S
Co414 O415 2.216 . S
Co414 O416 2.091 . S
Co414 O418 2.004 . S
Co414 O424 2.021 . S
Co414 O426 2.137 . S
Co414 O427 2.244 . S
O415 Co414 2.216 . S
O415 C422 1.247 . S
O416 Co414 2.091 . S
O416 C422 1.261 . S
C417 O426 1.247 . S
C417 O427 1.272 . S
O418 Co414 2.004 . S
O418 C423 1.259 . S
Co419 O420 2.061 . S
Co419 O425 2.052 . S
Co419 O427 2.135 . S
O420 Co419 2.061 . S
O420 C423 1.235 . S
C421 O424 1.238 . S
C421 O425 1.241 . S
C422 O415 1.247 . S
C422 O416 1.261 . S
C423 O418 1.259 . S
C423 O420 1.235 . S
O424 Co414 2.021 . S
O424 C421 1.238 . S
O425 Co419 2.052 . S
O425 C421 1.241 . S
O426 Co414 2.137 . S
O426 C417 1.247 . S
O427 Co414 2.244 . S
O427 C417 1.272 . S
O427 Co419 2.135 . S
Co428 O429 2.216 . S
Co428 O430 2.091 . S
Co428 O432 2.004 . S
Co428 O438 2.021 . S
Co428 O440 2.137 . S
Co428 O441 2.244 . S
O429 Co428 2.216 . S
O429 C436 1.247 . S
O430 Co428 2.091 . S
O430 C436 1.261 . S
C431 O440 1.247 . S
C431 O441 1.272 . S
O432 Co428 2.004 . S
O432 C437 1.259 . S
Co433 O434 2.061 . S
Co433 O439 2.052 . S
Co433 O441 2.135 . S
O434 Co433 2.061 . S
O434 C437 1.235 . S
C435 O438 1.238 . S
C435 O439 1.241 . S
C436 O429 1.247 . S
C436 O430 1.261 . S
C437 O432 1.259 . S
C437 O434 1.235 . S
O438 Co428 2.021 . S
O438 C435 1.238 . S
O439 Co433 2.052 . S
O439 C435 1.241 . S
O440 Co428 2.137 . S
O440 C431 1.247 . S
O441 Co428 2.244 . S
O441 C431 1.272 . S
O441 Co433 2.135 . S
Co442 O443 2.216 . S
Co442 O444 2.091 . S
Co442 O446 2.004 . S
Co442 O452 2.021 . S
Co442 O454 2.137 . S
Co442 O455 2.244 . S
O443 Co442 2.216 . S
O443 C450 1.247 . S
O444 Co442 2.091 . S
O444 C450 1.261 . S
C445 O454 1.247 . S
C445 O455 1.272 . S
O446 Co442 2.004 . S
O446 C451 1.259 . S
Co447 O448 2.061 . S
Co447 O453 2.052 . S
Co447 O455 2.135 . S
O448 Co447 2.061 . S
O448 C451 1.235 . S
C449 O452 1.238 . S
C449 O453 1.241 . S
C450 O443 1.247 . S
C450 O444 1.261 . S
C451 O446 1.259 . S
C451 O448 1.235 . S
O452 Co442 2.021 . S
O452 C449 1.238 . S
O453 Co447 2.052 . S
O453 C449 1.241 . S
O454 Co442 2.137 . S
O454 C445 1.247 . S
O455 Co442 2.244 . S
O455 C445 1.272 . S
O455 Co447 2.135 . S
C456 C457 1.391 . S
C456 C458 1.394 . S
C456 H472 0.931 . S
C457 C456 1.391 . S
C457 C461 1.376 . S
C458 C456 1.394 . S
C458 C459 1.369 . S
C458 C462 1.531 . S
C459 C458 1.369 . S
C459 C460 1.410 . S
C459 C467 1.503 . S
C460 C459 1.410 . S
C460 C461 1.392 . S
C460 C463 1.511 . S
C461 C457 1.376 . S
C461 C460 1.392 . S
C461 H473 0.929 . S
C462 C458 1.531 . S
C462 H474 0.960 . S
C462 H475 0.962 . S
C462 H476 0.960 . S
C463 C460 1.511 . S
C463 H477 0.961 . S
C463 H478 0.961 . S
C463 H479 0.961 . S
C464 C465 1.370 . S
C464 C466 1.363 . S
C464 H480 0.931 . S
C465 C464 1.370 . S
C465 C469 1.408 . S
C466 C464 1.363 . S
C466 C467 1.370 . S
C466 C470 1.524 . S
C467 C459 1.503 . S
C467 C466 1.370 . S
C467 C468 1.403 . S
C468 C467 1.403 . S
C468 C469 1.404 . S
C468 C471 1.539 . S
C469 C465 1.408 . S
C469 C468 1.404 . S
C469 H481 0.930 . S
C470 C466 1.524 . S
C470 H482 0.956 . S
C470 H483 0.961 . S
C470 H484 0.961 . S
C471 C468 1.539 . S
C471 H485 0.958 . S
C471 H486 0.961 . S
C471 H487 0.960 . S
H472 C456 0.931 . S
H473 C461 0.929 . S
H474 C462 0.960 . S
H475 C462 0.962 . S
H476 C462 0.960 . S
H477 C463 0.961 . S
H478 C463 0.961 . S
H479 C463 0.961 . S
H480 C464 0.931 . S
H481 C469 0.930 . S
H482 C470 0.956 . S
H483 C470 0.961 . S
H484 C470 0.961 . S
H485 C471 0.958 . S
H486 C471 0.961 . S
H487 C471 0.960 . S
C488 C489 1.391 . S
C488 C490 1.394 . S
C488 H504 0.931 . S
C489 C488 1.391 . S
C489 C493 1.376 . S
C490 C488 1.394 . S
C490 C491 1.369 . S
C490 C494 1.531 . S
C491 C490 1.369 . S
C491 C492 1.410 . S
C491 C499 1.503 . S
C492 C491 1.410 . S
C492 C493 1.392 . S
C492 C495 1.511 . S
C493 C489 1.376 . S
C493 C492 1.392 . S
C493 H505 0.929 . S
C494 C490 1.531 . S
C494 H506 0.960 . S
C494 H507 0.962 . S
C494 H508 0.960 . S
C495 C492 1.511 . S
C495 H509 0.961 . S
C495 H510 0.961 . S
C495 H511 0.961 . S
C496 C497 1.370 . S
C496 C498 1.363 . S
C496 H512 0.931 . S
C497 C496 1.370 . S
C497 C501 1.408 . S
C498 C496 1.363 . S
C498 C499 1.370 . S
C498 C502 1.524 . S
C499 C491 1.503 . S
C499 C498 1.370 . S
C499 C500 1.403 . S
C500 C499 1.403 . S
C500 C501 1.404 . S
C500 C503 1.539 . S
C501 C497 1.408 . S
C501 C500 1.404 . S
C501 H513 0.930 . S
C502 C498 1.524 . S
C502 H514 0.956 . S
C502 H515 0.961 . S
C502 H516 0.961 . S
C503 C500 1.539 . S
C503 H517 0.958 . S
C503 H518 0.961 . S
C503 H519 0.960 . S
H504 C488 0.931 . S
H505 C493 0.929 . S
H506 C494 0.960 . S
H507 C494 0.962 . S
H508 C494 0.960 . S
H509 C495 0.961 . S
H510 C495 0.961 . S
H511 C495 0.961 . S
H512 C496 0.931 . S
H513 C501 0.930 . S
H514 C502 0.956 . S
H515 C502 0.961 . S
H516 C502 0.961 . S
H517 C503 0.958 . S
H518 C503 0.961 . S
H519 C503 0.960 . S
C520 C521 1.391 . S
C520 C522 1.394 . S
C520 H536 0.931 . S
C521 C520 1.391 . S
C521 C525 1.376 . S
C522 C520 1.394 . S
C522 C523 1.369 . S
C522 C526 1.531 . S
C523 C522 1.369 . S
C523 C524 1.410 . S
C523 C531 1.503 . S
C524 C523 1.410 . S
C524 C525 1.392 . S
C524 C527 1.511 . S
C525 C521 1.376 . S
C525 C524 1.392 . S
C525 H537 0.929 . S
C526 C522 1.531 . S
C526 H538 0.960 . S
C526 H539 0.962 . S
C526 H540 0.960 . S
C527 C524 1.511 . S
C527 H541 0.961 . S
C527 H542 0.961 . S
C527 H543 0.961 . S
C528 C529 1.370 . S
C528 C530 1.363 . S
C528 H544 0.931 . S
C529 C528 1.370 . S
C529 C533 1.408 . S
C530 C528 1.363 . S
C530 C531 1.370 . S
C530 C534 1.524 . S
C531 C523 1.503 . S
C531 C530 1.370 . S
C531 C532 1.403 . S
C532 C531 1.403 . S
C532 C533 1.404 . S
C532 C535 1.539 . S
C533 C529 1.408 . S
C533 C532 1.404 . S
C533 H545 0.930 . S
C534 C530 1.524 . S
C534 H546 0.956 . S
C534 H547 0.961 . S
C534 H548 0.961 . S
C535 C532 1.539 . S
C535 H549 0.958 . S
C535 H550 0.961 . S
C535 H551 0.960 . S
H536 C520 0.931 . S
H537 C525 0.929 . S
H538 C526 0.960 . S
H539 C526 0.962 . S
H540 C526 0.960 . S
H541 C527 0.961 . S
H542 C527 0.961 . S
H543 C527 0.961 . S
H544 C528 0.931 . S
H545 C533 0.930 . S
H546 C534 0.956 . S
H547 C534 0.961 . S
H548 C534 0.961 . S
H549 C535 0.958 . S
H550 C535 0.961 . S
H551 C535 0.960 . S
C552 C553 1.391 . S
C552 C554 1.394 . S
C552 H568 0.931 . S
C553 C552 1.391 . S
C553 C557 1.376 . S
C554 C552 1.394 . S
C554 C555 1.369 . S
C554 C558 1.531 . S
C555 C554 1.369 . S
C555 C556 1.410 . S
C555 C563 1.503 . S
C556 C555 1.410 . S
C556 C557 1.392 . S
C556 C559 1.511 . S
C557 C553 1.376 . S
C557 C556 1.392 . S
C557 H569 0.929 . S
C558 C554 1.531 . S
C558 H570 0.960 . S
C558 H571 0.962 . S
C558 H572 0.960 . S
C559 C556 1.511 . S
C559 H573 0.961 . S
C559 H574 0.961 . S
C559 H575 0.961 . S
C560 C561 1.370 . S
C560 C562 1.363 . S
C560 H576 0.931 . S
C561 C560 1.370 . S
C561 C565 1.408 . S
C562 C560 1.363 . S
C562 C563 1.370 . S
C562 C566 1.524 . S
C563 C555 1.503 . S
C563 C562 1.370 . S
C563 C564 1.403 . S
C564 C563 1.403 . S
C564 C565 1.404 . S
C564 C567 1.539 . S
C565 C561 1.408 . S
C565 C564 1.404 . S
C565 H577 0.930 . S
C566 C562 1.524 . S
C566 H578 0.956 . S
C566 H579 0.961 . S
C566 H580 0.961 . S
C567 C564 1.539 . S
C567 H581 0.958 . S
C567 H582 0.961 . S
C567 H583 0.960 . S
H568 C552 0.931 . S
H569 C557 0.929 . S
H570 C558 0.960 . S
H571 C558 0.962 . S
H572 C558 0.960 . S
H573 C559 0.961 . S
H574 C559 0.961 . S
H575 C559 0.961 . S
H576 C560 0.931 . S
H577 C565 0.930 . S
H578 C566 0.956 . S
H579 C566 0.961 . S
H580 C566 0.961 . S
H581 C567 0.958 . S
H582 C567 0.961 . S
H583 C567 0.960 . S
C584 C585 1.391 . S
C584 C586 1.394 . S
C584 H600 0.931 . S
C585 C584 1.391 . S
C585 C589 1.376 . S
C586 C584 1.394 . S
C586 C587 1.369 . S
C586 C590 1.531 . S
C587 C586 1.369 . S
C587 C588 1.410 . S
C587 C595 1.503 . S
C588 C587 1.410 . S
C588 C589 1.392 . S
C588 C591 1.511 . S
C589 C585 1.376 . S
C589 C588 1.392 . S
C589 H601 0.929 . S
C590 C586 1.531 . S
C590 H602 0.960 . S
C590 H603 0.962 . S
C590 H604 0.960 . S
C591 C588 1.511 . S
C591 H605 0.961 . S
C591 H606 0.961 . S
C591 H607 0.961 . S
C592 C593 1.370 . S
C592 C594 1.363 . S
C592 H608 0.931 . S
C593 C592 1.370 . S
C593 C597 1.408 . S
C594 C592 1.363 . S
C594 C595 1.370 . S
C594 C598 1.524 . S
C595 C587 1.503 . S
C595 C594 1.370 . S
C595 C596 1.403 . S
C596 C595 1.403 . S
C596 C597 1.404 . S
C596 C599 1.539 . S
C597 C593 1.408 . S
C597 C596 1.404 . S
C597 H609 0.930 . S
C598 C594 1.524 . S
C598 H610 0.956 . S
C598 H611 0.961 . S
C598 H612 0.961 . S
C599 C596 1.539 . S
C599 H613 0.958 . S
C599 H614 0.961 . S
C599 H615 0.960 . S
H600 C584 0.931 . S
H601 C589 0.929 . S
H602 C590 0.960 . S
H603 C590 0.962 . S
H604 C590 0.960 . S
H605 C591 0.961 . S
H606 C591 0.961 . S
H607 C591 0.961 . S
H608 C592 0.931 . S
H609 C597 0.930 . S
H610 C598 0.956 . S
H611 C598 0.961 . S
H612 C598 0.961 . S
H613 C599 0.958 . S
H614 C599 0.961 . S
H615 C599 0.960 . S
C616 C617 1.391 . S
C616 C618 1.394 . S
C616 H632 0.931 . S
C617 C616 1.391 . S
C617 C621 1.376 . S
C618 C616 1.394 . S
C618 C619 1.369 . S
C618 C622 1.531 . S
C619 C618 1.369 . S
C619 C620 1.410 . S
C619 C627 1.503 . S
C620 C619 1.410 . S
C620 C621 1.392 . S
C620 C623 1.511 . S
C621 C617 1.376 . S
C621 C620 1.392 . S
C621 H633 0.929 . S
C622 C618 1.531 . S
C622 H634 0.960 . S
C622 H635 0.962 . S
C622 H636 0.960 . S
C623 C620 1.511 . S
C623 H637 0.961 . S
C623 H638 0.961 . S
C623 H639 0.961 . S
C624 C625 1.370 . S
C624 C626 1.363 . S
C624 H640 0.931 . S
C625 C624 1.370 . S
C625 C629 1.408 . S
C626 C624 1.363 . S
C626 C627 1.370 . S
C626 C630 1.524 . S
C627 C619 1.503 . S
C627 C626 1.370 . S
C627 C628 1.403 . S
C628 C627 1.403 . S
C628 C629 1.404 . S
C628 C631 1.539 . S
C629 C625 1.408 . S
C629 C628 1.404 . S
C629 H641 0.930 . S
C630 C626 1.524 . S
C630 H642 0.956 . S
C630 H643 0.961 . S
C630 H644 0.961 . S
C631 C628 1.539 . S
C631 H645 0.958 . S
C631 H646 0.961 . S
C631 H647 0.960 . S
H632 C616 0.931 . S
H633 C621 0.929 . S
H634 C622 0.960 . S
H635 C622 0.962 . S
H636 C622 0.960 . S
H637 C623 0.961 . S
H638 C623 0.961 . S
H639 C623 0.961 . S
H640 C624 0.931 . S
H641 C629 0.930 . S
H642 C630 0.956 . S
H643 C630 0.961 . S
H644 C630 0.961 . S
H645 C631 0.958 . S
H646 C631 0.961 . S
H647 C631 0.960 . S
C648 C649 1.391 . S
C648 C650 1.394 . S
C648 H664 0.931 . S
C649 C648 1.391 . S
C649 C653 1.376 . S
C650 C648 1.394 . S
C650 C651 1.369 . S
C650 C654 1.531 . S
C651 C650 1.369 . S
C651 C652 1.410 . S
C651 C659 1.503 . S
C652 C651 1.410 . S
C652 C653 1.392 . S
C652 C655 1.511 . S
C653 C649 1.376 . S
C653 C652 1.392 . S
C653 H665 0.929 . S
C654 C650 1.531 . S
C654 H666 0.960 . S
C654 H667 0.962 . S
C654 H668 0.960 . S
C655 C652 1.511 . S
C655 H669 0.961 . S
C655 H670 0.961 . S
C655 H671 0.961 . S
C656 C657 1.370 . S
C656 C658 1.363 . S
C656 H672 0.931 . S
C657 C656 1.370 . S
C657 C661 1.408 . S
C658 C656 1.363 . S
C658 C659 1.370 . S
C658 C662 1.524 . S
C659 C651 1.503 . S
C659 C658 1.370 . S
C659 C660 1.403 . S
C660 C659 1.403 . S
C660 C661 1.404 . S
C660 C663 1.539 . S
C661 C657 1.408 . S
C661 C660 1.404 . S
C661 H673 0.930 . S
C662 C658 1.524 . S
C662 H674 0.956 . S
C662 H675 0.961 . S
C662 H676 0.961 . S
C663 C660 1.539 . S
C663 H677 0.958 . S
C663 H678 0.961 . S
C663 H679 0.960 . S
H664 C648 0.931 . S
H665 C653 0.929 . S
H666 C654 0.960 . S
H667 C654 0.962 . S
H668 C654 0.960 . S
H669 C655 0.961 . S
H670 C655 0.961 . S
H671 C655 0.961 . S
H672 C656 0.931 . S
H673 C661 0.930 . S
H674 C662 0.956 . S
H675 C662 0.961 . S
H676 C662 0.961 . S
H677 C663 0.958 . S
H678 C663 0.961 . S
H679 C663 0.960 . S
C680 C681 1.391 . S
C680 C682 1.394 . S
C680 H696 0.931 . S
C681 C680 1.391 . S
C681 C685 1.376 . S
C682 C680 1.394 . S
C682 C683 1.369 . S
C682 C686 1.531 . S
C683 C682 1.369 . S
C683 C684 1.410 . S
C683 C691 1.503 . S
C684 C683 1.410 . S
C684 C685 1.392 . S
C684 C687 1.511 . S
C685 C681 1.376 . S
C685 C684 1.392 . S
C685 H697 0.929 . S
C686 C682 1.531 . S
C686 H698 0.960 . S
C686 H699 0.962 . S
C686 H700 0.960 . S
C687 C684 1.511 . S
C687 H701 0.961 . S
C687 H702 0.961 . S
C687 H703 0.961 . S
C688 C689 1.370 . S
C688 C690 1.363 . S
C688 H704 0.931 . S
C689 C688 1.370 . S
C689 C693 1.408 . S
C690 C688 1.363 . S
C690 C691 1.370 . S
C690 C694 1.524 . S
C691 C683 1.503 . S
C691 C690 1.370 . S
C691 C692 1.403 . S
C692 C691 1.403 . S
C692 C693 1.404 . S
C692 C695 1.539 . S
C693 C689 1.408 . S
C693 C692 1.404 . S
C693 H705 0.930 . S
C694 C690 1.524 . S
C694 H706 0.956 . S
C694 H707 0.961 . S
C694 H708 0.961 . S
C695 C692 1.539 . S
C695 H709 0.958 . S
C695 H710 0.961 . S
C695 H711 0.960 . S
H696 C680 0.931 . S
H697 C685 0.929 . S
H698 C686 0.960 . S
H699 C686 0.962 . S
H700 C686 0.960 . S
H701 C687 0.961 . S
H702 C687 0.961 . S
H703 C687 0.961 . S
H704 C688 0.931 . S
H705 C693 0.930 . S
H706 C694 0.956 . S
H707 C694 0.961 . S
H708 C694 0.961 . S
H709 C695 0.958 . S
H710 C695 0.961 . S
H711 C695 0.960 . S
C712 C713 1.391 . S
C712 C714 1.394 . S
C712 H728 0.931 . S
C713 C712 1.391 . S
C713 C717 1.376 . S
C714 C712 1.394 . S
C714 C715 1.369 . S
C714 C718 1.531 . S
C715 C714 1.369 . S
C715 C716 1.410 . S
C715 C723 1.503 . S
C716 C715 1.410 . S
C716 C717 1.392 . S
C716 C719 1.511 . S
C717 C713 1.376 . S
C717 C716 1.392 . S
C717 H729 0.929 . S
C718 C714 1.531 . S
C718 H730 0.960 . S
C718 H731 0.962 . S
C718 H732 0.960 . S
C719 C716 1.511 . S
C719 H733 0.961 . S
C719 H734 0.961 . S
C719 H735 0.961 . S
C720 C721 1.370 . S
C720 C722 1.363 . S
C720 H736 0.931 . S
C721 C720 1.370 . S
C721 C725 1.408 . S
C722 C720 1.363 . S
C722 C723 1.370 . S
C722 C726 1.524 . S
C723 C715 1.503 . S
C723 C722 1.370 . S
C723 C724 1.403 . S
C724 C723 1.403 . S
C724 C725 1.404 . S
C724 C727 1.539 . S
C725 C721 1.408 . S
C725 C724 1.404 . S
C725 H737 0.930 . S
C726 C722 1.524 . S
C726 H738 0.956 . S
C726 H739 0.961 . S
C726 H740 0.961 . S
C727 C724 1.539 . S
C727 H741 0.958 . S
C727 H742 0.961 . S
C727 H743 0.960 . S
H728 C712 0.931 . S
H729 C717 0.929 . S
H730 C718 0.960 . S
H731 C718 0.962 . S
H732 C718 0.960 . S
H733 C719 0.961 . S
H734 C719 0.961 . S
H735 C719 0.961 . S
H736 C720 0.931 . S
H737 C725 0.930 . S
H738 C726 0.956 . S
H739 C726 0.961 . S
H740 C726 0.961 . S
H741 C727 0.958 . S
H742 C727 0.961 . S
H743 C727 0.960 . S
C744 C745 1.391 . S
C744 C746 1.394 . S
C744 H760 0.931 1_554 S
C745 C744 1.391 . S
C745 C749 1.376 . S
C746 C744 1.394 . S
C746 C747 1.369 . S
C746 C750 1.531 1_554 S
C747 C746 1.369 . S
C747 C748 1.410 . S
C747 C755 1.503 . S
C748 C747 1.410 . S
C748 C749 1.392 . S
C748 C751 1.511 . S
C749 C745 1.376 . S
C749 C748 1.392 . S
C749 H761 0.929 . S
C750 C746 1.531 1_556 S
C750 H762 0.960 1_556 S
C750 H763 0.962 . S
C750 H764 0.960 . S
C751 C748 1.511 . S
C751 H765 0.961 . S
C751 H766 0.961 . S
C751 H767 0.961 . S
C752 C753 1.370 . S
C752 C754 1.363 . S
C752 H768 0.931 . S
C753 C752 1.370 . S
C753 C757 1.408 . S
C754 C752 1.363 . S
C754 C755 1.370 . S
C754 C758 1.524 . S
C755 C747 1.503 . S
C755 C754 1.370 . S
C755 C756 1.403 . S
C756 C755 1.403 . S
C756 C757 1.404 . S
C756 C759 1.539 . S
C757 C753 1.408 . S
C757 C756 1.404 . S
C757 H769 0.930 . S
C758 C754 1.524 . S
C758 H770 0.956 . S
C758 H771 0.961 . S
C758 H772 0.961 . S
C759 C756 1.539 . S
C759 H773 0.958 . S
C759 H774 0.961 . S
C759 H775 0.960 . S
H760 C744 0.931 1_556 S
H761 C749 0.929 . S
H762 C750 0.960 1_554 S
H763 C750 0.962 . S
H764 C750 0.960 . S
H765 C751 0.961 . S
H766 C751 0.961 . S
H767 C751 0.961 . S
H768 C752 0.931 . S
H769 C757 0.930 . S
H770 C758 0.956 . S
H771 C758 0.961 . S
H772 C758 0.961 . S
H773 C759 0.958 . S
H774 C759 0.961 . S
H775 C759 0.960 . S
C776 C777 1.391 . S
C776 C778 1.394 . S
C776 H792 0.931 . S
C777 C776 1.391 . S
C777 C781 1.376 . S
C778 C776 1.394 . S
C778 C779 1.369 . S
C778 C782 1.531 . S
C779 C778 1.369 . S
C779 C780 1.410 . S
C779 C787 1.503 . S
C780 C779 1.410 . S
C780 C781 1.392 . S
C780 C783 1.511 . S
C781 C777 1.376 . S
C781 C780 1.392 . S
C781 H793 0.929 . S
C782 C778 1.531 . S
C782 H794 0.960 . S
C782 H795 0.962 . S
C782 H796 0.960 . S
C783 C780 1.511 . S
C783 H797 0.961 . S
C783 H798 0.961 . S
C783 H799 0.961 . S
C784 C785 1.370 . S
C784 C786 1.363 . S
C784 H800 0.931 . S
C785 C784 1.370 . S
C785 C789 1.408 . S
C786 C784 1.363 . S
C786 C787 1.370 . S
C786 C790 1.524 . S
C787 C779 1.503 . S
C787 C786 1.370 . S
C787 C788 1.403 . S
C788 C787 1.403 . S
C788 C789 1.404 . S
C788 C791 1.539 . S
C789 C785 1.408 . S
C789 C788 1.404 . S
C789 H801 0.930 . S
C790 C786 1.524 . S
C790 H802 0.956 . S
C790 H803 0.961 . S
C790 H804 0.961 . S
C791 C788 1.539 . S
C791 H805 0.958 . S
C791 H806 0.961 . S
C791 H807 0.960 . S
H792 C776 0.931 . S
H793 C781 0.929 . S
H794 C782 0.960 . S
H795 C782 0.962 . S
H796 C782 0.960 . S
H797 C783 0.961 . S
H798 C783 0.961 . S
H799 C783 0.961 . S
H800 C784 0.931 . S
H801 C789 0.930 . S
H802 C790 0.956 . S
H803 C790 0.961 . S
H804 C790 0.961 . S
H805 C791 0.958 . S
H806 C791 0.961 . S
H807 C791 0.960 . S
C808 C809 1.391 . S
C808 C810 1.394 . S
C808 H824 0.931 . S
C809 C808 1.391 . S
C809 C813 1.376 . S
C810 C808 1.394 . S
C810 C811 1.369 . S
C810 C814 1.531 . S
C811 C810 1.369 . S
C811 C812 1.410 . S
C811 C819 1.503 . S
C812 C811 1.410 . S
C812 C813 1.392 . S
C812 C815 1.511 . S
C813 C809 1.376 . S
C813 C812 1.392 . S
C813 H825 0.929 . S
C814 C810 1.531 . S
C814 H826 0.960 . S
C814 H827 0.962 . S
C814 H828 0.960 . S
C815 C812 1.511 . S
C815 H829 0.961 . S
C815 H830 0.961 . S
C815 H831 0.961 . S
C816 C817 1.370 . S
C816 C818 1.363 . S
C816 H832 0.931 . S
C817 C816 1.370 . S
C817 C821 1.408 . S
C818 C816 1.363 . S
C818 C819 1.370 . S
C818 C822 1.524 . S
C819 C811 1.503 . S
C819 C818 1.370 . S
C819 C820 1.403 . S
C820 C819 1.403 . S
C820 C821 1.404 . S
C820 C823 1.539 . S
C821 C817 1.408 . S
C821 C820 1.404 . S
C821 H833 0.930 . S
C822 C818 1.524 . S
C822 H834 0.956 . S
C822 H835 0.961 . S
C822 H836 0.961 . S
C823 C820 1.539 . S
C823 H837 0.958 . S
C823 H838 0.961 . S
C823 H839 0.960 . S
H824 C808 0.931 . S
H825 C813 0.929 . S
H826 C814 0.960 . S
H827 C814 0.962 . S
H828 C814 0.960 . S
H829 C815 0.961 . S
H830 C815 0.961 . S
H831 C815 0.961 . S
H832 C816 0.931 . S
H833 C821 0.930 . S
H834 C822 0.956 . S
H835 C822 0.961 . S
H836 C822 0.961 . S
H837 C823 0.958 . S
H838 C823 0.961 . S
H839 C823 0.960 . S
C840 C841 1.391 . S
C840 C842 1.394 . S
C840 H856 0.931 . S
C841 C840 1.391 . S
C841 C845 1.376 . S
C842 C840 1.394 . S
C842 C843 1.369 . S
C842 C846 1.531 . S
C843 C842 1.369 . S
C843 C844 1.410 . S
C843 C851 1.503 . S
C844 C843 1.410 . S
C844 C845 1.392 . S
C844 C847 1.511 . S
C845 C841 1.376 . S
C845 C844 1.392 . S
C845 H857 0.929 . S
C846 C842 1.531 . S
C846 H858 0.960 . S
C846 H859 0.962 . S
C846 H860 0.960 . S
C847 C844 1.511 . S
C847 H861 0.961 . S
C847 H862 0.961 . S
C847 H863 0.961 . S
C848 C849 1.370 . S
C848 C850 1.363 . S
C848 H864 0.931 . S
C849 C848 1.370 . S
C849 C853 1.408 . S
C850 C848 1.363 . S
C850 C851 1.370 . S
C850 C854 1.524 . S
C851 C843 1.503 . S
C851 C850 1.370 . S
C851 C852 1.403 . S
C852 C851 1.403 . S
C852 C853 1.404 . S
C852 C855 1.539 . S
C853 C849 1.408 . S
C853 C852 1.404 . S
C853 H865 0.930 . S
C854 C850 1.524 . S
C854 H866 0.956 . S
C854 H867 0.961 . S
C854 H868 0.961 . S
C855 C852 1.539 . S
C855 H869 0.958 . S
C855 H870 0.961 . S
C855 H871 0.960 . S
H856 C840 0.931 . S
H857 C845 0.929 . S
H858 C846 0.960 . S
H859 C846 0.962 . S
H860 C846 0.960 . S
H861 C847 0.961 . S
H862 C847 0.961 . S
H863 C847 0.961 . S
H864 C848 0.931 . S
H865 C853 0.930 . S
H866 C854 0.956 . S
H867 C854 0.961 . S
H868 C854 0.961 . S
H869 C855 0.958 . S
H870 C855 0.961 . S
H871 C855 0.960 . S
C872 C873 1.391 . S
C872 C874 1.394 . S
C872 H888 0.931 . S
C873 C872 1.391 . S
C873 C877 1.376 . S
C874 C872 1.394 . S
C874 C875 1.369 . S
C874 C878 1.531 . S
C875 C874 1.369 . S
C875 C876 1.410 . S
C875 C883 1.503 . S
C876 C875 1.410 . S
C876 C877 1.392 . S
C876 C879 1.511 . S
C877 C873 1.376 . S
C877 C876 1.392 . S
C877 H889 0.929 . S
C878 C874 1.531 . S
C878 H890 0.960 . S
C878 H891 0.962 . S
C878 H892 0.960 . S
C879 C876 1.511 . S
C879 H893 0.961 . S
C879 H894 0.961 . S
C879 H895 0.961 . S
C880 C881 1.370 . S
C880 C882 1.363 . S
C880 H896 0.931 . S
C881 C880 1.370 . S
C881 C885 1.408 . S
C882 C880 1.363 . S
C882 C883 1.370 . S
C882 C886 1.524 . S
C883 C875 1.503 . S
C883 C882 1.370 . S
C883 C884 1.403 . S
C884 C883 1.403 . S
C884 C885 1.404 . S
C884 C887 1.539 . S
C885 C881 1.408 . S
C885 C884 1.404 . S
C885 H897 0.930 . S
C886 C882 1.524 . S
C886 H898 0.956 . S
C886 H899 0.961 . S
C886 H900 0.961 . S
C887 C884 1.539 . S
C887 H901 0.958 . S
C887 H902 0.961 . S
C887 H903 0.960 . S
H888 C872 0.931 . S
H889 C877 0.929 . S
H890 C878 0.960 . S
H891 C878 0.962 . S
H892 C878 0.960 . S
H893 C879 0.961 . S
H894 C879 0.961 . S
H895 C879 0.961 . S
H896 C880 0.931 . S
H897 C885 0.930 . S
H898 C886 0.956 . S
H899 C886 0.961 . S
H900 C886 0.961 . S
H901 C887 0.958 . S
H902 C887 0.961 . S
H903 C887 0.960 . S
C904 C905 1.391 . S
C904 C906 1.394 . S
C904 H920 0.931 . S
C905 C904 1.391 . S
C905 C909 1.376 . S
C906 C904 1.394 . S
C906 C907 1.369 . S
C906 C910 1.531 . S
C907 C906 1.369 . S
C907 C908 1.410 . S
C907 C915 1.503 . S
C908 C907 1.410 . S
C908 C909 1.392 . S
C908 C911 1.511 . S
C909 C905 1.376 . S
C909 C908 1.392 . S
C909 H921 0.929 . S
C910 C906 1.531 . S
C910 H922 0.960 . S
C910 H923 0.962 . S
C910 H924 0.960 . S
C911 C908 1.511 . S
C911 H925 0.961 . S
C911 H926 0.961 . S
C911 H927 0.961 . S
C912 C913 1.370 . S
C912 C914 1.363 . S
C912 H928 0.931 . S
C913 C912 1.370 . S
C913 C917 1.408 . S
C914 C912 1.363 . S
C914 C915 1.370 . S
C914 C918 1.524 . S
C915 C907 1.503 . S
C915 C914 1.370 . S
C915 C916 1.403 . S
C916 C915 1.403 . S
C916 C917 1.404 . S
C916 C919 1.539 . S
C917 C913 1.408 . S
C917 C916 1.404 . S
C917 H929 0.930 . S
C918 C914 1.524 . S
C918 H930 0.956 . S
C918 H931 0.961 . S
C918 H932 0.961 . S
C919 C916 1.539 . S
C919 H933 0.958 . S
C919 H934 0.961 . S
C919 H935 0.960 . S
H920 C904 0.931 . S
H921 C909 0.929 . S
H922 C910 0.960 . S
H923 C910 0.962 . S
H924 C910 0.960 . S
H925 C911 0.961 . S
H926 C911 0.961 . S
H927 C911 0.961 . S
H928 C912 0.931 . S
H929 C917 0.930 . S
H930 C918 0.956 . S
H931 C918 0.961 . S
H932 C918 0.961 . S
H933 C919 0.958 . S
H934 C919 0.961 . S
H935 C919 0.960 . S
C936 C937 1.391 . S
C936 C938 1.394 . S
C936 H952 0.931 . S
C937 C936 1.391 . S
C937 C941 1.376 . S
C938 C936 1.394 . S
C938 C939 1.369 . S
C938 C942 1.531 . S
C939 C938 1.369 . S
C939 C940 1.410 . S
C939 C947 1.503 . S
C940 C939 1.410 . S
C940 C941 1.392 . S
C940 C943 1.511 . S
C941 C937 1.376 . S
C941 C940 1.392 . S
C941 H953 0.929 . S
C942 C938 1.531 . S
C942 H954 0.960 . S
C942 H955 0.962 . S
C942 H956 0.960 . S
C943 C940 1.511 . S
C943 H957 0.961 . S
C943 H958 0.961 . S
C943 H959 0.961 . S
C944 C945 1.370 . S
C944 C946 1.363 1_554 S
C944 H960 0.931 . S
C945 C944 1.370 . S
C945 C949 1.408 1_554 S
C946 C944 1.363 1_556 S
C946 C947 1.370 . S
C946 C950 1.524 . S
C947 C939 1.503 . S
C947 C946 1.370 . S
C947 C948 1.403 . S
C948 C947 1.403 . S
C948 C949 1.404 . S
C948 C951 1.539 . S
C949 C945 1.408 1_556 S
C949 C948 1.404 . S
C949 H961 0.930 . S
C950 C946 1.524 . S
C950 H962 0.956 . S
C950 H963 0.961 . S
C950 H964 0.961 1_556 S
C951 C948 1.539 . S
C951 H965 0.958 . S
C951 H966 0.961 . S
C951 H967 0.960 . S
H952 C936 0.931 . S
H953 C941 0.929 . S
H954 C942 0.960 . S
H955 C942 0.962 . S
H956 C942 0.960 . S
H957 C943 0.961 . S
H958 C943 0.961 . S
H959 C943 0.961 . S
H960 C944 0.931 . S
H961 C949 0.930 . S
H962 C950 0.956 . S
H963 C950 0.961 . S
H964 C950 0.961 1_554 S
H965 C951 0.958 . S
H966 C951 0.961 . S
H967 C951 0.960 . S
C968 C969 1.391 . S
C968 C970 1.394 . S
C968 H984 0.931 . S
C969 C968 1.391 . S
C969 C973 1.376 . S
C970 C968 1.394 . S
C970 C971 1.369 . S
C970 C974 1.531 . S
C971 C970 1.369 . S
C971 C972 1.410 . S
C971 C979 1.503 . S
C972 C971 1.410 . S
C972 C973 1.392 . S
C972 C975 1.511 . S
C973 C969 1.376 . S
C973 C972 1.392 . S
C973 H985 0.929 . S
C974 C970 1.531 . S
C974 H986 0.960 . S
C974 H987 0.962 . S
C974 H988 0.960 . S
C975 C972 1.511 . S
C975 H989 0.961 . S
C975 H990 0.961 . S
C975 H991 0.961 . S
C976 C977 1.370 . S
C976 C978 1.363 . S
C976 H992 0.931 . S
C977 C976 1.370 . S
C977 C981 1.408 . S
C978 C976 1.363 . S
C978 C979 1.370 . S
C978 C982 1.524 . S
C979 C971 1.503 . S
C979 C978 1.370 . S
C979 C980 1.403 . S
C980 C979 1.403 . S
C980 C981 1.404 . S
C980 C983 1.539 . S
C981 C977 1.408 . S
C981 C980 1.404 . S
C981 H993 0.930 . S
C982 C978 1.524 . S
C982 H994 0.956 . S
C982 H995 0.961 . S
C982 H996 0.961 . S
C983 C980 1.539 . S
C983 H997 0.958 . S
C983 H998 0.961 . S
C983 H999 0.960 . S
H984 C968 0.931 . S
H985 C973 0.929 . S
H986 C974 0.960 . S
H987 C974 0.962 . S
H988 C974 0.960 . S
H989 C975 0.961 . S
H990 C975 0.961 . S
H991 C975 0.961 . S
H992 C976 0.931 . S
H993 C981 0.930 . S
H994 C982 0.956 . S
H995 C982 0.961 . S
H996 C982 0.961 . S
H997 C983 0.958 . S
H998 C983 0.961 . S
H999 C983 0.960 . S
C1000 C1001 1.391 . S
C1000 C1002 1.394 . S
C1000 H1016 0.931 . S
C1001 C1000 1.391 . S
C1001 C1005 1.376 . S
C1002 C1000 1.394 . S
C1002 C1003 1.369 . S
C1002 C1006 1.531 . S
C1003 C1002 1.369 . S
C1003 C1004 1.410 . S
C1003 C1011 1.503 . S
C1004 C1003 1.410 . S
C1004 C1005 1.392 . S
C1004 C1007 1.511 . S
C1005 C1001 1.376 . S
C1005 C1004 1.392 . S
C1005 H1017 0.929 . S
C1006 C1002 1.531 . S
C1006 H1018 0.960 . S
C1006 H1019 0.962 . S
C1006 H1020 0.960 . S
C1007 C1004 1.511 . S
C1007 H1021 0.961 . S
C1007 H1022 0.961 . S
C1007 H1023 0.961 . S
C1008 C1009 1.370 . S
C1008 C1010 1.363 . S
C1008 H1024 0.931 . S
C1009 C1008 1.370 . S
C1009 C1013 1.408 . S
C1010 C1008 1.363 . S
C1010 C1011 1.370 . S
C1010 C1014 1.524 . S
C1011 C1003 1.503 . S
C1011 C1010 1.370 . S
C1011 C1012 1.403 . S
C1012 C1011 1.403 . S
C1012 C1013 1.404 . S
C1012 C1015 1.539 . S
C1013 C1009 1.408 . S
C1013 C1012 1.404 . S
C1013 H1025 0.930 . S
C1014 C1010 1.524 . S
C1014 H1026 0.956 . S
C1014 H1027 0.961 . S
C1014 H1028 0.961 . S
C1015 C1012 1.539 . S
C1015 H1029 0.958 . S
C1015 H1030 0.961 . S
C1015 H1031 0.960 . S
H1016 C1000 0.931 . S
H1017 C1005 0.929 . S
H1018 C1006 0.960 . S
H1019 C1006 0.962 . S
H1020 C1006 0.960 . S
H1021 C1007 0.961 . S
H1022 C1007 0.961 . S
H1023 C1007 0.961 . S
H1024 C1008 0.931 . S
H1025 C1013 0.930 . S
H1026 C1014 0.956 . S
H1027 C1014 0.961 . S
H1028 C1014 0.961 . S
H1029 C1015 0.958 . S
H1030 C1015 0.961 . S
H1031 C1015 0.960 . S
C1032 C1033 1.391 . S
C1032 C1034 1.394 . S
C1032 H1048 0.931 . S
C1033 C1032 1.391 . S
C1033 C1037 1.376 . S
C1034 C1032 1.394 . S
C1034 C1035 1.369 . S
C1034 C1038 1.531 . S
C1035 C1034 1.369 . S
C1035 C1036 1.410 . S
C1035 C1043 1.503 . S
C1036 C1035 1.410 . S
C1036 C1037 1.392 . S
C1036 C1039 1.511 . S
C1037 C1033 1.376 . S
C1037 C1036 1.392 . S
C1037 H1049 0.929 . S
C1038 C1034 1.531 . S
C1038 H1050 0.960 . S
C1038 H1051 0.962 . S
C1038 H1052 0.960 . S
C1039 C1036 1.511 . S
C1039 H1053 0.961 . S
C1039 H1054 0.961 . S
C1039 H1055 0.961 . S
C1040 C1041 1.370 . S
C1040 C1042 1.363 . S
C1040 H1056 0.931 . S
C1041 C1040 1.370 . S
C1041 C1045 1.408 . S
C1042 C1040 1.363 . S
C1042 C1043 1.370 . S
C1042 C1046 1.524 . S
C1043 C1035 1.503 . S
C1043 C1042 1.370 . S
C1043 C1044 1.403 . S
C1044 C1043 1.403 . S
C1044 C1045 1.404 . S
C1044 C1047 1.539 . S
C1045 C1041 1.408 . S
C1045 C1044 1.404 . S
C1045 H1057 0.930 . S
C1046 C1042 1.524 . S
C1046 H1058 0.956 . S
C1046 H1059 0.961 . S
C1046 H1060 0.961 . S
C1047 C1044 1.539 . S
C1047 H1061 0.958 . S
C1047 H1062 0.961 . S
C1047 H1063 0.960 . S
H1048 C1032 0.931 . S
H1049 C1037 0.929 . S
H1050 C1038 0.960 . S
H1051 C1038 0.962 . S
H1052 C1038 0.960 . S
H1053 C1039 0.961 . S
H1054 C1039 0.961 . S
H1055 C1039 0.961 . S
H1056 C1040 0.931 . S
H1057 C1045 0.930 . S
H1058 C1046 0.956 . S
H1059 C1046 0.961 . S
H1060 C1046 0.961 . S
H1061 C1047 0.958 . S
H1062 C1047 0.961 . S
H1063 C1047 0.960 . S
C1064 C1065 1.391 . S
C1064 C1066 1.394 . S
C1064 H1080 0.931 . S
C1065 C1064 1.391 . S
C1065 C1069 1.376 . S
C1066 C1064 1.394 . S
C1066 C1067 1.369 . S
C1066 C1070 1.531 . S
C1067 C1066 1.369 . S
C1067 C1068 1.410 . S
C1067 C1075 1.503 . S
C1068 C1067 1.410 . S
C1068 C1069 1.392 . S
C1068 C1071 1.511 . S
C1069 C1065 1.376 . S
C1069 C1068 1.392 . S
C1069 H1081 0.929 . S
C1070 C1066 1.531 . S
C1070 H1082 0.960 . S
C1070 H1083 0.962 . S
C1070 H1084 0.960 . S
C1071 C1068 1.511 . S
C1071 H1085 0.961 . S
C1071 H1086 0.961 . S
C1071 H1087 0.961 . S
C1072 C1073 1.370 . S
C1072 C1074 1.363 . S
C1072 H1088 0.931 . S
C1073 C1072 1.370 . S
C1073 C1077 1.408 . S
C1074 C1072 1.363 . S
C1074 C1075 1.370 . S
C1074 C1078 1.524 . S
C1075 C1067 1.503 . S
C1075 C1074 1.370 . S
C1075 C1076 1.403 . S
C1076 C1075 1.403 . S
C1076 C1077 1.404 . S
C1076 C1079 1.539 . S
C1077 C1073 1.408 . S
C1077 C1076 1.404 . S
C1077 H1089 0.930 . S
C1078 C1074 1.524 . S
C1078 H1090 0.956 . S
C1078 H1091 0.961 . S
C1078 H1092 0.961 . S
C1079 C1076 1.539 . S
C1079 H1093 0.958 . S
C1079 H1094 0.961 . S
C1079 H1095 0.960 . S
H1080 C1064 0.931 . S
H1081 C1069 0.929 . S
H1082 C1070 0.960 . S
H1083 C1070 0.962 . S
H1084 C1070 0.960 . S
H1085 C1071 0.961 . S
H1086 C1071 0.961 . S
H1087 C1071 0.961 . S
H1088 C1072 0.931 . S
H1089 C1077 0.930 . S
H1090 C1078 0.956 . S
H1091 C1078 0.961 . S
H1092 C1078 0.961 . S
H1093 C1079 0.958 . S
H1094 C1079 0.961 . S
H1095 C1079 0.960 . S
C1096 C1097 1.391 . S
C1096 C1098 1.394 . S
C1096 H1112 0.931 . S
C1097 C1096 1.391 . S
C1097 C1101 1.376 . S
C1098 C1096 1.394 . S
C1098 C1099 1.369 . S
C1098 C1102 1.531 . S
C1099 C1098 1.369 . S
C1099 C1100 1.410 . S
C1099 C1107 1.503 . S
C1100 C1099 1.410 . S
C1100 C1101 1.392 . S
C1100 C1103 1.511 . S
C1101 C1097 1.376 . S
C1101 C1100 1.392 . S
C1101 H1113 0.929 . S
C1102 C1098 1.531 . S
C1102 H1114 0.960 . S
C1102 H1115 0.962 . S
C1102 H1116 0.960 . S
C1103 C1100 1.511 . S
C1103 H1117 0.961 . S
C1103 H1118 0.961 . S
C1103 H1119 0.961 . S
C1104 C1105 1.370 . S
C1104 C1106 1.363 . S
C1104 H1120 0.931 . S
C1105 C1104 1.370 . S
C1105 C1109 1.408 . S
C1106 C1104 1.363 . S
C1106 C1107 1.370 . S
C1106 C1110 1.524 . S
C1107 C1099 1.503 . S
C1107 C1106 1.370 . S
C1107 C1108 1.403 . S
C1108 C1107 1.403 . S
C1108 C1109 1.404 . S
C1108 C1111 1.539 . S
C1109 C1105 1.408 . S
C1109 C1108 1.404 . S
C1109 H1121 0.930 . S
C1110 C1106 1.524 . S
C1110 H1122 0.956 . S
C1110 H1123 0.961 . S
C1110 H1124 0.961 . S
C1111 C1108 1.539 . S
C1111 H1125 0.958 . S
C1111 H1126 0.961 . S
C1111 H1127 0.960 . S
H1112 C1096 0.931 . S
H1113 C1101 0.929 . S
H1114 C1102 0.960 . S
H1115 C1102 0.962 . S
H1116 C1102 0.960 . S
H1117 C1103 0.961 . S
H1118 C1103 0.961 . S
H1119 C1103 0.961 . S
H1120 C1104 0.931 . S
H1121 C1109 0.930 . S
H1122 C1110 0.956 . S
H1123 C1110 0.961 . S
H1124 C1110 0.961 . S
H1125 C1111 0.958 . S
H1126 C1111 0.961 . S
H1127 C1111 0.960 . S
C1128 C1129 1.391 . S
C1128 C1130 1.394 . S
C1128 H1144 0.931 . S
C1129 C1128 1.391 . S
C1129 C1133 1.376 . S
C1130 C1128 1.394 . S
C1130 C1131 1.369 . S
C1130 C1134 1.531 . S
C1131 C1130 1.369 . S
C1131 C1132 1.410 . S
C1131 C1139 1.503 . S
C1132 C1131 1.410 . S
C1132 C1133 1.392 . S
C1132 C1135 1.511 . S
C1133 C1129 1.376 . S
C1133 C1132 1.392 . S
C1133 H1145 0.929 . S
C1134 C1130 1.531 . S
C1134 H1146 0.960 . S
C1134 H1147 0.962 . S
C1134 H1148 0.960 . S
C1135 C1132 1.511 . S
C1135 H1149 0.961 . S
C1135 H1150 0.961 . S
C1135 H1151 0.961 . S
C1136 C1137 1.370 . S
C1136 C1138 1.363 . S
C1136 H1152 0.931 . S
C1137 C1136 1.370 . S
C1137 C1141 1.408 . S
C1138 C1136 1.363 . S
C1138 C1139 1.370 . S
C1138 C1142 1.524 . S
C1139 C1131 1.503 . S
C1139 C1138 1.370 . S
C1139 C1140 1.403 . S
C1140 C1139 1.403 . S
C1140 C1141 1.404 . S
C1140 C1143 1.539 . S
C1141 C1137 1.408 . S
C1141 C1140 1.404 . S
C1141 H1153 0.930 . S
C1142 C1138 1.524 . S
C1142 H1154 0.956 . S
C1142 H1155 0.961 . S
C1142 H1156 0.961 . S
C1143 C1140 1.539 . S
C1143 H1157 0.958 . S
C1143 H1158 0.961 . S
C1143 H1159 0.960 . S
H1144 C1128 0.931 . S
H1145 C1133 0.929 . S
H1146 C1134 0.960 . S
H1147 C1134 0.962 . S
H1148 C1134 0.960 . S
H1149 C1135 0.961 . S
H1150 C1135 0.961 . S
H1151 C1135 0.961 . S
H1152 C1136 0.931 . S
H1153 C1141 0.930 . S
H1154 C1142 0.956 . S
H1155 C1142 0.961 . S
H1156 C1142 0.961 . S
H1157 C1143 0.958 . S
H1158 C1143 0.961 . S
H1159 C1143 0.960 . S
C1160 C1161 1.391 . S
C1160 C1162 1.394 . S
C1160 H1176 0.931 . S
C1161 C1160 1.391 . S
C1161 C1165 1.376 . S
C1162 C1160 1.394 . S
C1162 C1163 1.369 . S
C1162 C1166 1.531 . S
C1163 C1162 1.369 . S
C1163 C1164 1.410 . S
C1163 C1171 1.503 1_554 S
C1164 C1163 1.410 . S
C1164 C1165 1.392 . S
C1164 C1167 1.511 . S
C1165 C1161 1.376 . S
C1165 C1164 1.392 . S
C1165 H1177 0.929 . S
C1166 C1162 1.531 . S
C1166 H1178 0.960 . S
C1166 H1179 0.962 1_554 S
C1166 H1180 0.960 . S
C1167 C1164 1.511 . S
C1167 H1181 0.961 . S
C1167 H1182 0.961 1_554 S
C1167 H1183 0.961 . S
C1168 C1169 1.370 . S
C1168 C1170 1.363 . S
C1168 H1184 0.931 . S
C1169 C1168 1.370 . S
C1169 C1173 1.408 . S
C1170 C1168 1.363 . S
C1170 C1171 1.370 . S
C1170 C1174 1.524 . S
C1171 C1163 1.503 1_556 S
C1171 C1170 1.370 . S
C1171 C1172 1.403 . S
C1172 C1171 1.403 . S
C1172 C1173 1.404 . S
C1172 C1175 1.539 1_556 S
C1173 C1169 1.408 . S
C1173 C1172 1.404 . S
C1173 H1185 0.930 . S
C1174 C1170 1.524 . S
C1174 H1186 0.956 . S
C1174 H1187 0.961 . S
C1174 H1188 0.961 . S
C1175 C1172 1.539 1_554 S
C1175 H1189 0.958 . S
C1175 H1190 0.961 . S
C1175 H1191 0.960 . S
H1176 C1160 0.931 . S
H1177 C1165 0.929 . S
H1178 C1166 0.960 . S
H1179 C1166 0.962 1_556 S
H1180 C1166 0.960 . S
H1181 C1167 0.961 . S
H1182 C1167 0.961 1_556 S
H1183 C1167 0.961 . S
H1184 C1168 0.931 . S
H1185 C1173 0.930 . S
H1186 C1174 0.956 . S
H1187 C1174 0.961 . S
H1188 C1174 0.961 . S
H1189 C1175 0.958 . S
H1190 C1175 0.961 . S
H1191 C1175 0.960 . S
C1192 C1193 1.391 . S
C1192 C1194 1.394 . S
C1192 H1208 0.931 . S
C1193 C1192 1.391 . S
C1193 C1197 1.376 . S
C1194 C1192 1.394 . S
C1194 C1195 1.369 . S
C1194 C1198 1.531 . S
C1195 C1194 1.369 . S
C1195 C1196 1.410 . S
C1195 C1203 1.503 . S
C1196 C1195 1.410 . S
C1196 C1197 1.392 . S
C1196 C1199 1.511 . S
C1197 C1193 1.376 . S
C1197 C1196 1.392 . S
C1197 H1209 0.929 . S
C1198 C1194 1.531 . S
C1198 H1210 0.960 . S
C1198 H1211 0.962 . S
C1198 H1212 0.960 . S
C1199 C1196 1.511 . S
C1199 H1213 0.961 . S
C1199 H1214 0.961 . S
C1199 H1215 0.961 . S
C1200 C1201 1.370 . S
C1200 C1202 1.363 . S
C1200 H1216 0.931 . S
C1201 C1200 1.370 . S
C1201 C1205 1.408 . S
C1202 C1200 1.363 . S
C1202 C1203 1.370 . S
C1202 C1206 1.524 . S
C1203 C1195 1.503 . S
C1203 C1202 1.370 . S
C1203 C1204 1.403 . S
C1204 C1203 1.403 . S
C1204 C1205 1.404 . S
C1204 C1207 1.539 . S
C1205 C1201 1.408 . S
C1205 C1204 1.404 . S
C1205 H1217 0.930 . S
C1206 C1202 1.524 . S
C1206 H1218 0.956 . S
C1206 H1219 0.961 . S
C1206 H1220 0.961 . S
C1207 C1204 1.539 . S
C1207 H1221 0.958 . S
C1207 H1222 0.961 . S
C1207 H1223 0.960 . S
H1208 C1192 0.931 . S
H1209 C1197 0.929 . S
H1210 C1198 0.960 . S
H1211 C1198 0.962 . S
H1212 C1198 0.960 . S
H1213 C1199 0.961 . S
H1214 C1199 0.961 . S
H1215 C1199 0.961 . S
H1216 C1200 0.931 . S
H1217 C1205 0.930 . S
H1218 C1206 0.956 . S
H1219 C1206 0.961 . S
H1220 C1206 0.961 . S
H1221 C1207 0.958 . S
H1222 C1207 0.961 . S
H1223 C1207 0.960 . S
C465 C445 1.682 . S
C457 C29 1.540 . S
C489 C115 1.549 . S
C497 C375 1.561 . S
C521 C153 1.597 . S
C529 C394 1.712 . S
C553 C239 1.531 . S
C561 C403 1.558 . S
C593 C417 1.613 . S
C585 C301 1.570 . S
C617 C339 1.837 . S
C625 C436 1.962 . S
C649 C91 1.560 . S
C657 C389 1.672 . S
C681 C177 1.566 . S
C689 C408 1.579 . S
C713 C215 1.581 . S
C721 C422 1.685 . S
C753 C431 1.920 . S
C745 C277 1.806 . S
C785 C450 1.624 . S
C777 C363 1.613 . S
C817 C380 1.582 . S
C809 C53 1.555 . S
C841 C35 1.523 . S
C849 C395 1.564 . S
C873 C109 1.358 . S
C881 C407 1.494 . S
C913 C421 1.444 . S
C905 C159 1.432 . S
C937 C233 1.562 . S
C945 C437 1.709 . S
C977 C449 1.531 . S
C969 C295 1.376 . S
C1009 C379 1.392 . S
C1001 C345 1.412 . S
C1041 C451 1.473 . S
C1033 C97 1.463 . S
C1065 C171 1.414 . S
C1073 C381 1.525 . S
C1105 C393 1.568 . S
C1097 C221 1.534 . S
C1129 C283 1.427 . S
C1137 C409 1.413 . S
C1161 C357 1.383 . S
C1169 C423 1.551 . S
C1193 C47 1.569 . S
C1201 C435 1.704 . S
