# Generated by pormake.
# Topology pth, (4,4)-cn, num edge types: 1
# Building blocks:
#     Node 0, Type 0, BuildingBlock: UXUYUI_clean_sbu_0, # of connection points: 4
#     Node 1, Type 0, BuildingBlock: UXUYUI_clean_sbu_0, # of connection points: 4
#     Node 2, Type 0, BuildingBlock: UXUYUI_clean_sbu_0, # of connection points: 4
#     Node 3, Type 1, BuildingBlock: MIFKUJ_clean_linker_1, # of connection points: 4
#     Node 4, Type 1, BuildingBlock: MIFKUJ_clean_linker_1, # of connection points: 4
#     Node 5, Type 1, BuildingBlock: MIFKUJ_clean_linker_1, # of connection points: 4
#     Edge 6, Type (0, 1), BuildingBlock: KIFKEQ_clean_linker_1, # of connection points: 2
#     Edge 7, Type (0, 1), BuildingBlock: KIFKEQ_clean_linker_1, # of connection points: 2
#     Edge 8, Type (0, 1), BuildingBlock: KIFKEQ_clean_linker_1, # of connection points: 2
#     Edge 9, Type (0, 1), BuildingBlock: KIFKEQ_clean_linker_1, # of connection points: 2
#     Edge 10, Type (0, 1), BuildingBlock: KIFKEQ_clean_linker_1, # of connection points: 2
#     Edge 11, Type (0, 1), BuildingBlock: KIFKEQ_clean_linker_1, # of connection points: 2
#     Edge 12, Type (0, 1), BuildingBlock: KIFKEQ_clean_linker_1, # of connection points: 2
#     Edge 13, Type (0, 1), BuildingBlock: KIFKEQ_clean_linker_1, # of connection points: 2
#     Edge 14, Type (0, 1), BuildingBlock: KIFKEQ_clean_linker_1, # of connection points: 2
#     Edge 15, Type (0, 1), BuildingBlock: KIFKEQ_clean_linker_1, # of connection points: 2
#     Edge 16, Type (0, 1), BuildingBlock: KIFKEQ_clean_linker_1, # of connection points: 2
#     Edge 17, Type (0, 1), BuildingBlock: KIFKEQ_clean_linker_1, # of connection points: 2
# Relax obj value: 0.075
# Max RMSD: 0.209
# Mean RMSD: 0.121
data_MOF--net-pth--node1-UXUYUI_clean_sbu_0--node2-MIFKUJ_clean_linker_1--edge1-KIFKEQ_clean_linker_1
_symmetry_space_group_name_H-M    P1
_symmetry_Int_Tables_number       1
_symmetry_cell_setting            triclinic
loop_
_symmetry_equiv_pos_as_xyz
'x, y, z'
_cell_length_a     35.571361
_cell_length_b     35.565504
_cell_length_c     76.689235
_cell_angle_alpha  90.035754
_cell_angle_beta   89.974455
_cell_angle_gamma 119.99933
loop_
_atom_site_label
_atom_site_type_symbol
_atom_site_fract_x
_atom_site_fract_y
_atom_site_fract_z
_atom_type_partial_charge
Li0 Li 0.03809 0.03294 0.03303 0.0
Li1 Li 0.9868 0.02856 0.05539 0.0
Li2 Li 0.0096 0.97311 0.05427 0.0
Li3 Li 0.96249 0.97491 0.03212 0.0
C4 C 0.08033 0.06271 0.0683 0.0
N5 N 0.15152 0.11725 0.0884 0.0
C6 C 0.08796 0.10405 0.07279 0.0
C7 C 0.10868 0.04896 0.0742 0.0
C8 C 0.1242 0.13119 0.08291 0.0
C9 C 0.14455 0.07705 0.0843 0.0
C10 C 0.95239 0.04547 0.02542 0.0
C11 C 0.88019 0.03347 0.0302 0.0
N12 N 0.88513 0.05927 0.0163 0.0
C13 C 0.95674 0.0718 0.01117 0.0
C14 C 0.9138 0.02607 0.03502 0.0
C15 C 0.92237 0.07842 0.00677 0.0
C16 C 0.08914 0.06177 0.00252 0.0
N17 N 0.08561 0.0731 0.01912 0.0
C18 C 0.14511 0.14483 0.01466 0.0
C19 C 0.11282 0.11361 0.02533 0.0
C20 C 0.14913 0.13441 0.99733 0.0
C21 C 0.12097 0.092 0.99137 0.0
H22 H 0.06641 0.02958 0.99779 0.0
H23 H 0.10875 0.12216 0.0384 0.0
C24 C 0.96664 0.05273 0.08765 0.0
N25 N 0.97568 0.06407 0.07059 0.0
C26 C 0.96312 0.08081 0.09944 0.0
C27 C 0.97729 0.1311 0.07578 0.0
C28 C 0.98086 0.10227 0.0645 0.0
C29 C 0.96886 0.12078 0.09356 0.0
H30 H 0.96331 0.02238 0.09215 0.0
H31 H 0.98929 0.11108 0.05099 0.0
C32 C 0.04696 0.96097 0.02398 0.0
N33 N 0.11128 0.94254 0.01504 0.0
C34 C 0.038 0.92711 0.01242 0.0
C35 C 0.08865 0.98559 0.03092 0.0
C36 C 0.07094 0.91824 0.00809 0.0
C37 C 0.12072 0.97576 0.02626 0.0
C38 C 0.9219 0.92143 0.061 0.0
C39 C 0.92346 0.88928 0.05105 0.0
C40 C 0.89201 0.90951 0.07463 0.0
C41 C 0.89498 0.84565 0.05491 0.0
C42 C 0.86404 0.8655 0.07807 0.0
N43 N 0.8661 0.83475 0.06822 0.0
C44 C 0.02156 0.94235 0.08625 0.0
C45 C 0.02108 0.90093 0.06195 0.0
C46 C 0.02346 0.91285 0.09773 0.0
N47 N 0.02009 0.93574 0.06875 0.0
C48 C 0.02308 0.87072 0.07293 0.0
C49 C 0.02353 0.87602 0.0911 0.0
H50 H 0.01978 0.96984 0.0913 0.0
H51 H 0.01863 0.89557 0.04805 0.0
C52 C 0.92913 0.93367 0.00042 0.0
N53 N 0.91687 0.93959 0.01649 0.0
C54 C 0.8982 0.90516 0.9886 0.0
C55 C 0.84236 0.89014 0.00994 0.0
C56 C 0.87443 0.91917 0.02133 0.0
C57 C 0.85416 0.8823 0.99339 0.0
H58 H 0.96316 0.95056 0.99693 0.0
H59 H 0.86556 0.92446 0.03421 0.0
O60 O 0.04455 0.03531 0.05866 0.0
O61 O 0.98572 0.03852 0.02977 0.0
O62 O 0.01487 0.96978 0.02836 0.0
O63 O 0.94974 0.96442 0.05764 0.0
H64 H 0.06644 0.11529 0.06836 0.0
H65 H 0.10302 0.01687 0.07108 0.0
H66 H 0.13061 0.16335 0.08639 0.0
H67 H 0.16679 0.06685 0.08891 0.0
H68 H 0.85016 0.01868 0.03751 0.0
H69 H 0.9864 0.08695 0.00358 0.0
H70 H 0.90979 0.00554 0.04608 0.0
H71 H 0.92529 0.09875 0.99577 0.0
H72 H 0.16635 0.17696 0.01987 0.0
H73 H 0.12242 0.08271 0.97805 0.0
H74 H 0.95639 0.07156 0.11303 0.0
H75 H 0.98275 0.16189 0.07076 0.0
H76 H 0.00584 0.90775 0.00693 0.0
H77 H 0.09627 0.01223 0.03968 0.0
H78 H 0.06444 0.89204 0.9992 0.0
H79 H 0.15315 0.99459 0.03153 0.0
H80 H 0.94639 0.89785 0.04045 0.0
H81 H 0.8905 0.93404 0.08247 0.0
H82 H 0.89585 0.82045 0.04732 0.0
H83 H 0.84073 0.85579 0.08858 0.0
H84 H 0.02312 0.91795 0.11164 0.0
H85 H 0.0235 0.84307 0.06722 0.0
H86 H 0.90875 0.90082 0.97588 0.0
H87 H 0.80892 0.87298 0.01428 0.0
Li88 Li 0.99283 0.96512 0.36604 0.0
Li89 Li 0.0405 0.01393 0.38836 0.0
Li90 Li 0.96246 0.99148 0.3884 0.0
Li91 Li 0.01145 0.04212 0.36623 0.0
C92 C 0.99195 0.92013 0.39724 0.0
N93 N 0.99694 0.84899 0.40854 0.0
C94 C 0.03025 0.91879 0.39501 0.0
C95 C 0.95631 0.88548 0.40538 0.0
C96 C 0.03211 0.88251 0.40077 0.0
C97 C 0.95943 0.84974 0.41095 0.0
C98 C 0.0879 0.02368 0.35603 0.0
C99 C 0.15781 0.06971 0.3428 0.0
N100 N 0.16491 0.03555 0.34225 0.0
C101 C 0.09573 0.98892 0.35515 0.0
C102 C 0.119 0.06433 0.34963 0.0
C103 C 0.13491 0.99561 0.34821 0.0
C104 C 0.9985 0.93099 0.33419 0.0
N105 N 0.98304 0.919 0.35067 0.0
C106 C 0.96042 0.84488 0.34431 0.0
C107 C 0.96339 0.87678 0.35579 0.0
C108 C 0.97756 0.85654 0.32737 0.0
C109 C 0.99616 0.90021 0.32229 0.0
H110 H 0.0135 0.96476 0.33042 0.0
H111 H 0.95057 0.86781 0.36882 0.0
C112 C 0.07524 0.01104 0.42031 0.0
N113 N 0.08721 0.02539 0.4037 0.0
C114 C 0.10584 0.01334 0.43227 0.0
C115 C 0.16103 0.04676 0.41004 0.0
C116 C 0.1293 0.04383 0.39849 0.0
C117 C 0.14931 0.03065 0.42711 0.0
H118 H 0.04153 0.99669 0.4241 0.0
H119 H 0.13824 0.05541 0.3853 0.0
C120 C 0.91292 0.95645 0.35815 0.0
N121 N 0.83163 0.88985 0.34884 0.0
C122 C 0.8911 0.96141 0.34398 0.0
C123 C 0.89344 0.91763 0.36758 0.0
C124 C 0.85 0.92736 0.33949 0.0
C125 C 0.85232 0.88434 0.36267 0.0
C126 C 0.04284 0.09201 0.39689 0.0
C127 C 0.03192 0.11339 0.40945 0.0
C128 C 0.08408 0.11316 0.38933 0.0
C129 C 0.06257 0.15579 0.41423 0.0
C130 C 0.11384 0.15553 0.39446 0.0
N131 N 0.10256 0.1758 0.4067 0.0
C132 C 0.91177 0.96465 0.41912 0.0
C133 C 0.88586 0.99171 0.39669 0.0
C134 C 0.87897 0.96054 0.43035 0.0
N135 N 0.91467 0.98029 0.40271 0.0
C136 C 0.85251 0.98799 0.40744 0.0
C137 C 0.84908 0.97277 0.4246 0.0
H138 H 0.93558 0.9564 0.4236 0.0
H139 H 0.88954 0.00484 0.38368 0.0
C140 C 0.03402 0.09106 0.33524 0.0
N141 N 0.02053 0.08929 0.35196 0.0
C142 C 0.03685 0.12317 0.32394 0.0
C143 C 0.01235 0.15123 0.34737 0.0
C144 C 0.00986 0.11852 0.35818 0.0
C145 C 0.02547 0.15353 0.32993 0.0
H146 H 0.0416 0.06689 0.3306 0.0
H147 H 0.99821 0.11566 0.37141 0.0
O148 O 0.98928 0.95531 0.39173 0.0
O149 O 0.04964 0.01789 0.36268 0.0
O150 O 0.95326 0.98948 0.36262 0.0
O151 O 0.01306 0.0506 0.39203 0.0
H152 H 0.05838 0.94558 0.38905 0.0
H153 H 0.92647 0.88609 0.4073 0.0
H154 H 0.06156 0.88105 0.39911 0.0
H155 H 0.93203 0.8226 0.41719 0.0
H156 H 0.18224 0.10105 0.3379 0.0
H157 H 0.07169 0.95698 0.3596 0.0
H158 H 0.11332 0.0915 0.34996 0.0
H159 H 0.1414 0.969 0.34749 0.0
H160 H 0.94599 0.81169 0.34884 0.0
H161 H 0.00899 0.91058 0.30927 0.0
H162 H 0.09546 0.00124 0.44537 0.0
H163 H 0.19406 0.0601 0.40544 0.0
H164 H 0.90582 0.99127 0.33654 0.0
H165 H 0.9098 0.91319 0.37857 0.0
H166 H 0.83272 0.93074 0.32855 0.0
H167 H 0.83687 0.85413 0.36986 0.0
H168 H 5e-05 0.0974 0.41541 0.0
H169 H 0.09301 0.09704 0.37963 0.0
H170 H 0.05457 0.17278 0.42393 0.0
H171 H 0.1459 0.17228 0.38872 0.0
H172 H 0.8773 0.94836 0.44344 0.0
H173 H 0.83065 0.99846 0.40256 0.0
H174 H 0.0474 0.12396 0.31063 0.0
H175 H 0.00255 0.17346 0.35244 0.0
Li176 Li 0.0269 0.98982 0.69882 0.0
Li177 Li 0.03149 0.04028 0.72041 0.0
Li178 Li 0.9756 0.95927 0.72243 0.0
Li179 Li 0.97069 0.007 0.69913 0.0
C180 C 0.07572 0.98648 0.72612 0.0
N181 N 0.14954 0.98018 0.72993 0.0
C182 C 0.11584 0.02029 0.7205 0.0
C183 C 0.0731 0.94961 0.73378 0.0
C184 C 0.1528 0.01643 0.72251 0.0
C185 C 0.11082 0.94702 0.73557 0.0
C186 C 0.04089 0.08858 0.69091 0.0
C187 C 0.02292 0.14515 0.69447 0.0
N188 N 0.05628 0.17123 0.68371 0.0
C189 C 0.07496 0.11592 0.67986 0.0
C190 C 0.01465 0.1033 0.69828 0.0
C191 C 0.08224 0.1576 0.67639 0.0
C192 C 0.07382 0.00394 0.66816 0.0
N193 N 0.06272 0.97976 0.68296 0.0
C194 C 0.10674 0.94934 0.67466 0.0
C195 C 0.07756 0.95183 0.68616 0.0
C196 C 0.12021 0.97534 0.65958 0.0
C197 C 0.10242 0.0021 0.65622 0.0
H198 H 0.06071 0.02506 0.6657 0.0
H199 H 0.06741 0.932 0.69776 0.0
C200 C 0.05943 0.08875 0.75155 0.0
N201 N 0.06908 0.08871 0.7344 0.0
C202 C 0.08902 0.12131 0.76264 0.0
C203 C 0.13767 0.15327 0.73816 0.0
C204 C 0.10709 0.12025 0.72754 0.0
C205 C 0.12911 0.1537 0.75602 0.0
H206 H 0.02933 0.06268 0.75672 0.0
H207 H 0.11437 0.11897 0.71395 0.0
C208 C 0.96437 0.92204 0.68446 0.0
N209 N 0.97012 0.87127 0.65852 0.0
C210 C 0.9615 0.9312 0.66696 0.0
C211 C 0.96999 0.88701 0.6888 0.0
C212 C 0.96455 0.90516 0.65402 0.0
C213 C 0.97284 0.86172 0.67548 0.0
C214 C 0.93794 0.01613 0.73407 0.0
C215 C 0.89742 0.9799 0.73762 0.0
C216 C 0.94743 0.05694 0.74026 0.0
C217 C 0.86683 0.98519 0.74709 0.0
C218 C 0.91596 0.0609 0.74968 0.0
N219 N 0.87665 0.02525 0.75287 0.0
C220 C 0.94728 0.92321 0.75568 0.0
C221 C 0.91091 0.87492 0.73226 0.0
C222 C 0.91928 0.89249 0.76773 0.0
N223 N 0.94225 0.91406 0.73835 0.0
C224 C 0.88248 0.84311 0.74385 0.0
C225 C 0.88602 0.852 0.76182 0.0
H226 H 0.97212 0.95495 0.76007 0.0
H227 H 0.90696 0.869 0.71838 0.0
C228 C 0.94171 0.03176 0.66916 0.0
N229 N 0.92985 0.01371 0.68528 0.0
C230 C 0.91114 0.03296 0.65808 0.0
C231 C 0.85684 0.99739 0.68048 0.0
C232 C 0.88839 0.9967 0.69106 0.0
C233 C 0.86785 0.01512 0.66363 0.0
H234 H 0.97463 0.044 0.66467 0.0
H235 H 0.87939 0.98143 0.70368 0.0
O236 O 0.0391 0.9894 0.72419 0.0
O237 O 0.03385 0.04786 0.69453 0.0
O238 O 0.96259 0.94783 0.69728 0.0
O239 O 0.96871 0.01147 0.72513 0.0
H240 H 0.11828 0.04887 0.71443 0.0
H241 H 0.04219 0.92322 0.7382 0.0
H242 H 0.18405 0.0422 0.71812 0.0
H243 H 0.10931 0.91862 0.74141 0.0
H244 H 0.00276 0.15688 0.70006 0.0
H245 H 0.09576 0.10513 0.67412 0.0
H246 H 0.98795 0.08256 0.70669 0.0
H247 H 0.10856 0.17912 0.6679 0.0
H248 H 0.11955 0.92826 0.67786 0.0
H249 H 0.11072 0.02176 0.64455 0.0
H250 H 0.08136 0.12009 0.77637 0.0
H251 H 0.168 0.1778 0.73249 0.0
H252 H 0.9574 0.95836 0.6634 0.0
H253 H 0.97287 0.87987 0.70229 0.0
H254 H 0.96261 0.91198 0.64041 0.0
H255 H 0.97747 0.83466 0.67863 0.0
H256 H 0.88943 0.94807 0.73293 0.0
H257 H 0.9788 0.08529 0.73787 0.0
H258 H 0.83528 0.95746 0.74984 0.0
H259 H 0.92284 0.0923 0.7545 0.0
H260 H 0.92319 0.90051 0.78148 0.0
H261 H 0.85686 0.81259 0.73874 0.0
H262 H 0.92099 0.04629 0.6451 0.0
H263 H 0.82403 0.98365 0.6854 0.0
H264 H 0.05361 0.46771 0.17676 0.0
H265 H 0.04781 0.40698 0.15955 0.0
H266 H 0.92767 0.31988 0.18578 0.0
H267 H 0.93319 0.38076 0.20267 0.0
H268 H 0.00188 0.50214 0.17804 0.0
H269 H 0.05605 0.44107 0.21833 0.0
H270 H 0.06159 0.38744 0.23632 0.0
H271 H 0.94253 0.35836 0.2626 0.0
H272 H 0.93738 0.41238 0.24462 0.0
H273 H 0.92802 0.52254 0.2407 0.0
H274 H 0.92332 0.57771 0.25799 0.0
H275 H 0.04891 0.67505 0.23858 0.0
H276 H 0.05298 0.61964 0.22108 0.0
H277 H 0.9893 0.49702 0.24252 0.0
H278 H 0.94009 0.56429 0.19999 0.0
H279 H 0.94519 0.62476 0.18297 0.0
H280 H 0.0663 0.6467 0.16081 0.0
H281 H 0.06184 0.5874 0.17841 0.0
C282 C 0.99401 0.42873 0.19108 0.0
C283 C 0.02605 0.43551 0.17879 0.0
C284 C 0.02286 0.40075 0.16907 0.0
C285 C 0.98729 0.35863 0.17133 0.0
C286 C 0.95525 0.35198 0.18364 0.0
C287 C 0.95857 0.38668 0.1934 0.0
C288 C 0.9968 0.46563 0.2012 0.0
C289 C 0.99977 0.50133 0.19216 0.0
C290 C 0.99396 0.46454 0.2196 0.0
C291 C 0.99611 0.43052 0.23003 0.0
C292 C 0.03083 0.42274 0.22781 0.0
C293 C 0.03394 0.39203 0.2381 0.0
C294 C 0.00251 0.36861 0.25091 0.0
C295 C 0.9676 0.37626 0.25302 0.0
C296 C 0.96451 0.40699 0.24271 0.0
C297 C 0.99071 0.56703 0.22953 0.0
C298 C 0.95451 0.5558 0.24017 0.0
C299 C 0.95197 0.58736 0.2501 0.0
C300 C 0.98579 0.63083 0.24972 0.0
C301 C 0.02201 0.64202 0.23899 0.0
C302 C 0.02447 0.61038 0.22902 0.0
C303 C 0.99326 0.53295 0.21934 0.0
C304 C 0.99143 0.4978 0.2284 0.0
C305 C 0.99821 0.53515 0.20099 0.0
C306 C 0.00085 0.57163 0.19063 0.0
C307 C 0.968 0.5825 0.19164 0.0
C308 C 0.97076 0.61681 0.18175 0.0
C309 C 0.00622 0.64069 0.17053 0.0
C310 C 0.03892 0.62951 0.16951 0.0
C311 C 0.03621 0.59532 0.17944 0.0
H312 H 0.58755 0.0564 0.51031 0.0
H313 H 0.64246 0.05225 0.49253 0.0
H314 H 0.60973 0.93001 0.51685 0.0
H315 H 0.5552 0.93454 0.53465 0.0
H316 H 0.50284 0.00592 0.51131 0.0
H317 H 0.61548 0.05551 0.55253 0.0
H318 H 0.67434 0.05903 0.5702 0.0
H319 H 0.58413 0.93649 0.59409 0.0
H320 H 0.52547 0.93273 0.57611 0.0
H321 H 0.40217 0.92458 0.57159 0.0
H322 H 0.34246 0.92059 0.58898 0.0
H323 H 0.37998 0.05163 0.5737 0.0
H324 H 0.43974 0.05548 0.55638 0.0
H325 H 0.49212 0.9852 0.57546 0.0
H326 H 0.37834 0.94247 0.53172 0.0
H327 H 0.32475 0.95024 0.51452 0.0
H328 H 0.42548 0.07601 0.49671 0.0
H329 H 0.47888 0.06778 0.51382 0.0
C330 C 0.56749 0.99598 0.52391 0.0
C331 C 0.59231 0.02878 0.51183 0.0
C332 C 0.62357 0.02627 0.50164 0.0
C333 C 0.63046 0.99076 0.50326 0.0
C334 C 0.60574 0.95813 0.51547 0.0
C335 C 0.57451 0.96066 0.52565 0.0
C336 C 0.533 0.9976 0.53422 0.0
C337 C 0.50089 0.00202 0.52537 0.0
C338 C 0.53032 0.99247 0.55255 0.0
C339 C 0.56614 0.99366 0.56289 0.0
C340 C 0.60847 0.02914 0.56142 0.0
C341 C 0.64199 0.03132 0.57164 0.0
C342 C 0.63385 0.99807 0.58355 0.0
C343 C 0.5915 0.96238 0.5849 0.0
C344 C 0.55791 0.96033 0.57473 0.0
C345 C 0.42517 0.99023 0.56266 0.0
C346 C 0.39741 0.95238 0.57198 0.0
C347 C 0.36321 0.95004 0.58179 0.0
C348 C 0.35659 0.98579 0.58267 0.0
C349 C 0.38452 0.02371 0.57335 0.0
C350 C 0.41846 0.02587 0.56339 0.0
C351 C 0.46168 0.99263 0.55248 0.0
C352 C 0.49419 0.98906 0.56139 0.0
C353 C 0.46542 0.99992 0.53428 0.0
C354 C 0.43254 0.00469 0.52415 0.0
C355 C 0.38876 0.97187 0.52424 0.0
C356 C 0.35816 0.97641 0.51442 0.0
C357 C 0.37082 0.01378 0.50424 0.0
C358 C 0.41473 0.04658 0.50422 0.0
C359 C 0.44527 0.04201 0.51403 0.0
H360 H 0.47075 0.41761 0.84276 0.0
H361 H 0.41255 0.36316 0.8246 0.0
H362 H 0.32038 0.38942 0.85071 0.0
H363 H 0.37901 0.44508 0.8683 0.0
H364 H 0.50345 0.50095 0.84465 0.0
H365 H 0.43953 0.38626 0.88515 0.0
H366 H 0.38415 0.32713 0.9027 0.0
H367 H 0.35383 0.41757 0.9278 0.0
H368 H 0.40848 0.47639 0.90986 0.0
H369 H 0.52057 0.59696 0.9064 0.0
H370 H 0.57532 0.6572 0.92369 0.0
H371 H 0.67209 0.62545 0.90673 0.0
H372 H 0.61718 0.5657 0.88921 0.0
H373 H 0.49335 0.50921 0.9089 0.0
H374 H 0.56707 0.62561 0.8665 0.0
H375 H 0.62937 0.67939 0.84969 0.0
H376 H 0.64894 0.57734 0.82913 0.0
H377 H 0.58709 0.52383 0.84612 0.0
C378 C 0.42928 0.43525 0.857 0.0
C379 C 0.43801 0.41165 0.84456 0.0
C380 C 0.4046 0.38024 0.83429 0.0
C381 C 0.36173 0.37182 0.83621 0.0
C382 C 0.35306 0.39537 0.84875 0.0
C383 C 0.38651 0.42687 0.85898 0.0
C384 C 0.46506 0.46976 0.86746 0.0
C385 C 0.5015 0.50239 0.85873 0.0
C386 C 0.46256 0.47177 0.88583 0.0
C387 C 0.42788 0.4357 0.89607 0.0
C388 C 0.42054 0.39325 0.89426 0.0
C389 C 0.38919 0.35956 0.90443 0.0
C390 C 0.36464 0.36767 0.91666 0.0
C391 C 0.37184 0.41016 0.91835 0.0
C392 C 0.40327 0.44387 0.9082 0.0
C393 C 0.56489 0.57709 0.89644 0.0
C394 C 0.55361 0.60303 0.90643 0.0
C395 C 0.58492 0.63734 0.91636 0.0
C396 C 0.62815 0.64619 0.91662 0.0
C397 C 0.6393 0.62 0.90662 0.0
C398 C 0.60794 0.58573 0.89664 0.0
C399 C 0.53124 0.54065 0.88604 0.0
C400 C 0.4952 0.50766 0.89481 0.0
C401 C 0.53485 0.53763 0.86778 0.0
C402 C 0.57265 0.57069 0.85772 0.0
C403 C 0.58511 0.61488 0.85855 0.0
C404 C 0.62069 0.64558 0.84894 0.0
C405 C 0.64403 0.63255 0.8381 0.0
C406 C 0.63132 0.58829 0.83722 0.0
C407 C 0.59602 0.55771 0.84694 0.0
H408 H 0.00674 0.14403 0.12574 0.0
H409 H 0.93011 0.16993 0.08919 0.0
H410 H 0.00949 0.1996 0.14529 0.0
H411 H 0.93371 0.22615 0.10854 0.0
H412 H 0.91472 0.29517 0.15515 0.0
H413 H 0.90806 0.23526 0.13731 0.0
H414 H 0.0442 0.27979 0.1452 0.0
H415 H 0.05062 0.33914 0.16338 0.0
C416 C 0.9901 0.16127 0.12197 0.0
C417 C 0.96821 0.15261 0.10592 0.0
C418 C 0.9921 0.19342 0.13307 0.0
C419 C 0.97199 0.21739 0.12842 0.0
C420 C 0.94926 0.20803 0.11256 0.0
C421 C 0.9475 0.17609 0.10141 0.0
C422 C 0.94311 0.29189 0.15323 0.0
C423 C 0.98321 0.32188 0.16067 0.0
C424 C 0.93938 0.25782 0.14288 0.0
C425 C 0.97561 0.25282 0.13984 0.0
C426 C 0.0156 0.28253 0.14744 0.0
C427 C 0.01939 0.31677 0.1577 0.0
H428 H 0.76398 0.94625 0.41751 0.0
H429 H 0.85918 0.99767 0.45883 0.0
H430 H 0.71081 0.94915 0.43671 0.0
H431 H 0.80612 0.00076 0.478 0.0
H432 H 0.68757 0.96363 0.51242 0.0
H433 H 0.73879 0.95606 0.49365 0.0
H434 H 0.69814 0.00374 0.44994 0.0
H435 H 0.64575 0.0096 0.46851 0.0
C436 C 0.77356 0.95823 0.43069 0.0
C437 C 0.81583 0.97181 0.43662 0.0
C438 C 0.74314 0.95998 0.44168 0.0
C439 C 0.75428 0.97544 0.45886 0.0
C440 C 0.79629 0.98817 0.46491 0.0
C441 C 0.8267 0.98636 0.45392 0.0
C442 C 0.68929 0.97211 0.49877 0.0
C443 C 0.66255 0.98722 0.49197 0.0
C444 C 0.71896 0.96818 0.48805 0.0
C445 C 0.72253 0.97922 0.47028 0.0
C446 C 0.69584 0.99441 0.46351 0.0
C447 C 0.66621 0.99834 0.47422 0.0
H448 H 0.85424 0.76437 0.76301 0.0
H449 H 0.84421 0.86753 0.78828 0.0
H450 H 0.79776 0.71142 0.78213 0.0
H451 H 0.78715 0.81467 0.80716 0.0
H452 H 0.71032 0.712 0.84828 0.0
H453 H 0.77117 0.76486 0.83073 0.0
H454 H 0.72129 0.67891 0.78626 0.0
H455 H 0.66116 0.62596 0.80391 0.0
C456 C 0.83988 0.77568 0.77265 0.0
C457 C 0.85363 0.82007 0.77414 0.0
C458 C 0.8074 0.74536 0.78357 0.0
C459 C 0.78763 0.75869 0.79614 0.0
C460 C 0.80203 0.80325 0.79782 0.0
C461 C 0.83473 0.83359 0.78698 0.0
C462 C 0.71239 0.70456 0.83474 0.0
C463 C 0.68104 0.66482 0.82748 0.0
C464 C 0.7472 0.73484 0.82466 0.0
C465 C 0.75127 0.72616 0.80707 0.0
C466 C 0.71976 0.68637 0.79985 0.0
C467 C 0.68517 0.65604 0.80994 0.0
H468 H 0.06672 0.88748 0.12207 0.0
H469 H 0.97596 0.78787 0.08723 0.0
H470 H 0.06181 0.83158 0.14193 0.0
H471 H 0.9726 0.73224 0.10662 0.0
H472 H 0.94019 0.64294 0.15312 0.0
H473 H 0.94445 0.70071 0.13473 0.0
H474 H 0.08253 0.7764 0.14414 0.0
H475 H 0.07791 0.71942 0.1632 0.0
C476 C 0.0458 0.8537 0.11863 0.0
C477 C 0.02184 0.84221 0.10302 0.0
C478 C 0.04332 0.82165 0.12992 0.0
C479 C 0.01676 0.77739 0.12589 0.0
C480 C 0.99294 0.76598 0.11026 0.0
C481 C 0.99538 0.79795 0.099 0.0
C482 C 0.97136 0.67216 0.15149 0.0
C483 C 0.00871 0.67646 0.15963 0.0
C484 C 0.97391 0.70508 0.14076 0.0
C485 C 0.01389 0.74311 0.13785 0.0
C486 C 0.05115 0.74771 0.14619 0.0
C487 C 0.04859 0.71479 0.15696 0.0
H488 H 0.23437 0.09374 0.43185 0.0
H489 H 0.13775 0.96609 0.44959 0.0
H490 H 0.28799 0.09128 0.45095 0.0
H491 H 0.19118 0.96381 0.46871 0.0
H492 H 0.28761 0.9919 0.51296 0.0
H493 H 0.23424 0.99771 0.49493 0.0
H494 H 0.32768 0.0515 0.45306 0.0
H495 H 0.38093 0.04551 0.47102 0.0
C496 C 0.22459 0.06513 0.43978 0.0
C497 C 0.18173 0.03015 0.4392 0.0
C498 C 0.2553 0.06373 0.45073 0.0
C499 C 0.24384 0.02735 0.46135 0.0
C500 C 0.20089 0.9926 0.4609 0.0
C501 C 0.17024 0.99396 0.44995 0.0
C502 C 0.29667 0.00472 0.49987 0.0
C503 C 0.33853 0.01819 0.49343 0.0
C504 C 0.26611 0.0081 0.48955 0.0
C505 C 0.27672 0.02507 0.47256 0.0
C506 C 0.3187 0.03892 0.46619 0.0
C507 C 0.34922 0.03547 0.47649 0.0
H508 H 0.11829 0.19912 0.78256 0.0
H509 H 0.21587 0.18161 0.75626 0.0
H510 H 0.17365 0.2511 0.80245 0.0
H511 H 0.27121 0.23424 0.77579 0.0
H512 H 0.34837 0.29228 0.8259 0.0
H513 H 0.29176 0.23984 0.80671 0.0
H514 H 0.23823 0.32481 0.80191 0.0
H515 H 0.29509 0.37753 0.82096 0.0
C516 C 0.15154 0.20642 0.78102 0.0
C517 C 0.16272 0.18635 0.76781 0.0
C518 C 0.18328 0.23642 0.79231 0.0
C519 C 0.22679 0.24671 0.79071 0.0
C520 C 0.23791 0.22667 0.77748 0.0
C521 C 0.20628 0.19691 0.76615 0.0
C522 C 0.32474 0.29996 0.82066 0.0
C523 C 0.32639 0.3392 0.82494 0.0
C524 C 0.29227 0.26987 0.80967 0.0
C525 C 0.26059 0.27824 0.80275 0.0
C526 C 0.26185 0.31718 0.8072 0.0
C527 C 0.29443 0.34736 0.81814 0.0
H528 H 0.78433 0.94866 0.65962 0.0
H529 H 0.87471 0.07709 0.64047 0.0
H530 H 0.72859 0.9454 0.64033 0.0
H531 H 0.81943 0.07289 0.62047 0.0
H532 H 0.69506 0.06887 0.60138 0.0
H533 H 0.75198 0.07341 0.62047 0.0
H534 H 0.70971 0.93858 0.61003 0.0
H535 H 0.65241 0.93399 0.59115 0.0
C536 C 0.79231 0.97631 0.65134 0.0
C537 C 0.83399 0.01328 0.6517 0.0
C538 C 0.76048 0.97415 0.64006 0.0
C539 C 0.76952 0.0088 0.62878 0.0
C540 C 0.81121 0.04578 0.62911 0.0
C541 C 0.84307 0.048 0.64044 0.0
C542 C 0.69821 0.04033 0.60305 0.0
C543 C 0.66921 0.00104 0.59479 0.0
C544 C 0.73088 0.04293 0.61397 0.0
C545 C 0.73542 0.00635 0.61683 0.0
C546 C 0.70667 0.96719 0.60838 0.0
C547 C 0.67387 0.96454 0.59753 0.0
H548 H 0.86234 0.82426 0.97258 0.0
H549 H 0.77092 0.8651 0.98735 0.0
H550 H 0.80799 0.769 0.95358 0.0
H551 H 0.71629 0.80921 0.96846 0.0
H552 H 0.61836 0.67033 0.94948 0.0
H553 H 0.67274 0.72889 0.9674 0.0
H554 H 0.76752 0.76193 0.92644 0.0
H555 H 0.71299 0.70369 0.90837 0.0
C556 C 0.83085 0.82188 0.97162 0.0
C557 C 0.8211 0.84929 0.98148 0.0
C558 C 0.79966 0.7901 0.96074 0.0
C559 C 0.75786 0.78474 0.95952 0.0
C560 C 0.74807 0.8122 0.9693 0.0
C561 C 0.77936 0.84417 0.98013 0.0
C562 C 0.65062 0.69042 0.94418 0.0
C563 C 0.66127 0.68225 0.92747 0.0
C564 C 0.68179 0.72398 0.95447 0.0
C565 C 0.72442 0.75002 0.94834 0.0
C566 C 0.73508 0.74203 0.93161 0.0
C567 C 0.70385 0.7086 0.92128 0.0
H568 H 0.91296 0.77217 0.32244 0.0
H569 H 0.04187 0.86642 0.30501 0.0
H570 H 0.914 0.71782 0.30332 0.0
H571 H 0.04262 0.81225 0.2858 0.0
H572 H 0.01036 0.71489 0.24112 0.0
H573 H 0.00725 0.76952 0.25938 0.0
H574 H 0.9527 0.67662 0.30137 0.0
H575 H 0.95621 0.62219 0.28326 0.0
C576 C 0.94156 0.78128 0.31459 0.0
C577 C 0.97732 0.8237 0.31528 0.0
C578 C 0.94213 0.75015 0.30362 0.0
C579 C 0.9784 0.76074 0.29306 0.0
C580 C 0.01393 0.80325 0.29359 0.0
C581 C 0.01344 0.83432 0.30459 0.0
C582 C 0.99803 0.70622 0.2543 0.0
C583 C 0.98351 0.66412 0.26071 0.0
C584 C 0.99617 0.7375 0.26474 0.0
C585 C 0.97963 0.72736 0.2818 0.0
C586 C 0.96494 0.68524 0.28818 0.0
C587 C 0.96694 0.65404 0.27778 0.0
H588 H 0.13177 0.90718 0.65002 0.0
H589 H 0.18516 0.04508 0.64241 0.0
H590 H 0.18882 0.90947 0.63168 0.0
H591 H 0.24013 0.04675 0.62321 0.0
H592 H 0.36176 0.04638 0.60581 0.0
H593 H 0.30441 0.04295 0.62426 0.0
H594 H 0.21393 0.91758 0.60239 0.0
H595 H 0.27193 0.92068 0.5843 0.0
C596 C 0.15551 0.93795 0.64441 0.0
C597 C 0.15374 0.97593 0.64775 0.0
C598 C 0.18793 0.93916 0.63368 0.0
C599 C 0.21923 0.97832 0.62595 0.0
C600 C 0.21706 0.01612 0.62913 0.0
C601 C 0.18496 0.015 0.63995 0.0
C602 C 0.32953 0.01824 0.60488 0.0
C603 C 0.32127 0.98385 0.5936 0.0
C604 C 0.29656 0.01627 0.61542 0.0
C605 C 0.25436 0.98005 0.6148 0.0
C606 C 0.24614 0.94567 0.60343 0.0
C607 C 0.27928 0.94748 0.59301 0.0
H608 H 0.17003 0.21935 0.99477 0.0
H609 H 0.20025 0.12576 0.97269 0.0
H610 H 0.22208 0.27478 0.9752 0.0
H611 H 0.25114 0.18093 0.95256 0.0
H612 H 0.37325 0.3044 0.93333 0.0
H613 H 0.32118 0.2475 0.95252 0.0
H614 H 0.23093 0.29377 0.9446 0.0
H615 H 0.28311 0.3508 0.92547 0.0
C616 C 0.18792 0.21062 0.98579 0.0
C617 C 0.18112 0.16813 0.98537 0.0
C618 C 0.21734 0.24229 0.97439 0.0
C619 C 0.24066 0.23228 0.96225 0.0
C620 C 0.23397 0.18982 0.96185 0.0
C621 C 0.20449 0.15809 0.97327 0.0
C622 C 0.34209 0.30211 0.93553 0.0
C623 C 0.33234 0.33218 0.92791 0.0
C624 C 0.31224 0.26949 0.94653 0.0
C625 C 0.27193 0.26615 0.95015 0.0
C626 C 0.26199 0.2959 0.94234 0.0
C627 C 0.29186 0.32856 0.93136 0.0
H628 H 0.99655 0.14136 0.29624 0.0
H629 H 0.05325 0.23918 0.33646 0.0
H630 H 0.99214 0.19354 0.27701 0.0
H631 H 0.04904 0.2915 0.31719 0.0
H632 H 0.98725 0.35615 0.28598 0.0
H633 H 0.99402 0.30452 0.30468 0.0
H634 H 0.03604 0.25948 0.26049 0.0
H635 H 0.02751 0.30991 0.24163 0.0
C636 C 0.00871 0.17421 0.30088 0.0
C637 C 0.0252 0.18611 0.31789 0.0
C638 C 0.00614 0.20413 0.28986 0.0
C639 C 0.02006 0.24666 0.29558 0.0
C640 C 0.03731 0.25878 0.31248 0.0
C641 C 0.0398 0.22884 0.32351 0.0
C642 C 0.99745 0.33489 0.28021 0.0
C643 C 0.0067 0.33707 0.26229 0.0
C644 C 0.00191 0.30569 0.29098 0.0
C645 C 0.01575 0.27798 0.2841 0.0
C646 C 0.02496 0.28011 0.26618 0.0
C647 C 0.0205 0.30933 0.2554 0.0
loop_
_geom_bond_atom_site_label_1
_geom_bond_atom_site_label_2
_geom_bond_distance
_geom_bond_site_symmetry_2
_ccdc_geom_bond_type
Li0 N17 1.990 . S
Li0 O60 1.956 . S
Li0 O61 1.970 1_455 S
Li0 O62 1.961 1_545 S
Li1 N25 1.990 . S
Li1 O60 1.970 1_655 S
Li1 O61 1.956 . S
Li1 O63 1.961 1_545 S
Li2 N47 1.990 . S
Li2 O60 1.961 1_565 S
Li2 O62 1.956 . S
Li2 O63 1.970 1_455 S
Li3 N53 1.990 . S
Li3 O61 1.961 1_565 S
Li3 O62 1.970 1_655 S
Li3 O63 1.956 . S
C4 C6 1.348 . S
C4 C7 1.356 . S
C4 O60 1.325 . S
N5 C8 1.314 . S
N5 C9 1.279 . S
C6 C4 1.348 . S
C6 C8 1.353 . S
C6 H64 0.929 . S
C7 C4 1.356 . S
C7 C9 1.358 . S
C7 H65 0.930 . S
C8 N5 1.314 . S
C8 C6 1.353 . S
C8 H66 0.930 . S
C9 N5 1.279 . S
C9 C7 1.358 . S
C9 H67 0.930 . S
C10 C13 1.348 1_655 S
C10 C14 1.356 . S
C10 O61 1.325 . S
C11 N12 1.308 . S
C11 C14 1.358 . S
C11 H68 0.930 . S
N12 C11 1.308 . S
N12 C15 1.324 . S
C13 C10 1.348 1_455 S
C13 C15 1.353 1_455 S
C13 H69 0.929 . S
C14 C10 1.356 . S
C14 C11 1.358 . S
C14 H70 0.930 . S
C15 N12 1.324 . S
C15 C13 1.353 1_655 S
C15 H71 0.930 1_654 S
C16 N17 1.314 . S
C16 C21 1.353 1_554 S
C16 H22 0.930 1_554 S
N17 Li0 1.990 . S
N17 C16 1.314 . S
N17 C19 1.279 . S
C18 C19 1.358 . S
C18 C20 1.356 1_554 S
C18 H72 0.930 . S
C19 N17 1.279 . S
C19 C18 1.358 . S
C19 H23 0.930 . S
C20 C18 1.356 1_556 S
C20 C21 1.348 . S
C21 C16 1.353 1_556 S
C21 C20 1.348 . S
C21 H73 0.929 . S
H22 C16 0.930 1_556 S
H23 C19 0.930 . S
C24 N25 1.314 . S
C24 C26 1.353 . S
C24 H30 0.930 . S
N25 Li1 1.990 . S
N25 C24 1.314 . S
N25 C28 1.279 . S
C26 C24 1.353 . S
C26 C29 1.348 . S
C26 H74 0.929 . S
C27 C28 1.358 . S
C27 C29 1.356 . S
C27 H75 0.930 . S
C28 N25 1.279 . S
C28 C27 1.358 . S
C28 H31 0.930 . S
C29 C26 1.348 . S
C29 C27 1.356 . S
H30 C24 0.930 . S
H31 C28 0.930 . S
C32 C34 1.348 1_455 S
C32 C35 1.356 . S
C32 O62 1.325 . S
N33 C36 1.323 . S
N33 C37 1.308 . S
C34 C32 1.348 1_655 S
C34 C36 1.353 1_655 S
C34 H76 0.929 . S
C35 C32 1.356 . S
C35 C37 1.358 . S
C35 H77 0.930 . S
C36 N33 1.323 . S
C36 C34 1.353 1_455 S
C36 H78 0.930 1_454 S
C37 N33 1.308 . S
C37 C35 1.358 . S
C37 H79 0.930 . S
C38 C39 1.348 . S
C38 C40 1.356 . S
C38 O63 1.325 . S
C39 C38 1.348 . S
C39 C41 1.353 . S
C39 H80 0.929 . S
C40 C38 1.356 . S
C40 C42 1.358 . S
C40 H81 0.930 . S
C41 C39 1.353 . S
C41 N43 1.314 . S
C41 H82 0.930 . S
C42 C40 1.358 . S
C42 N43 1.279 . S
C42 H83 0.930 . S
N43 C41 1.314 . S
N43 C42 1.279 . S
C44 C46 1.353 . S
C44 N47 1.314 . S
C44 H50 0.930 . S
C45 N47 1.279 . S
C45 C48 1.358 . S
C45 H51 0.930 . S
C46 C44 1.353 . S
C46 C49 1.348 . S
C46 H84 0.929 . S
N47 Li2 1.990 . S
N47 C44 1.314 . S
N47 C45 1.279 . S
C48 C45 1.358 . S
C48 C49 1.356 . S
C48 H85 0.930 . S
C49 C46 1.348 . S
C49 C48 1.356 . S
H50 C44 0.930 . S
H51 C45 0.930 . S
C52 N53 1.314 . S
C52 C54 1.353 1_554 S
C52 H58 0.930 1_554 S
N53 Li3 1.990 . S
N53 C52 1.314 . S
N53 C56 1.279 . S
C54 C52 1.353 1_556 S
C54 C57 1.348 . S
C54 H86 0.929 . S
C55 C56 1.358 . S
C55 C57 1.356 1_554 S
C55 H87 0.930 . S
C56 N53 1.279 . S
C56 C55 1.358 . S
C56 H59 0.930 . S
C57 C54 1.348 . S
C57 C55 1.356 1_556 S
H58 C52 0.930 1_556 S
H59 C56 0.930 . S
O60 Li0 1.956 . S
O60 Li1 1.970 1_455 S
O60 Li2 1.961 1_545 S
O60 C4 1.325 . S
O61 Li0 1.970 1_655 S
O61 Li1 1.956 . S
O61 Li3 1.961 1_545 S
O61 C10 1.325 . S
O62 Li0 1.961 1_565 S
O62 Li2 1.956 . S
O62 Li3 1.970 1_455 S
O62 C32 1.325 . S
O63 Li1 1.961 1_565 S
O63 Li2 1.970 1_655 S
O63 Li3 1.956 . S
O63 C38 1.325 . S
H64 C6 0.929 . S
H65 C7 0.930 . S
H66 C8 0.930 . S
H67 C9 0.930 . S
H68 C11 0.930 . S
H69 C13 0.929 . S
H70 C14 0.930 . S
H71 C15 0.930 1_456 S
H72 C18 0.930 . S
H73 C21 0.929 . S
H74 C26 0.929 . S
H75 C27 0.930 . S
H76 C34 0.929 . S
H77 C35 0.930 . S
H78 C36 0.930 1_656 S
H79 C37 0.930 . S
H80 C39 0.929 . S
H81 C40 0.930 . S
H82 C41 0.930 . S
H83 C42 0.930 . S
H84 C46 0.929 . S
H85 C48 0.930 . S
H86 C54 0.929 . S
H87 C55 0.930 . S
Li88 N105 1.990 . S
Li88 O148 1.956 . S
Li88 O149 1.970 1_665 S
Li88 O150 1.961 . S
Li89 N113 1.990 . S
Li89 O148 1.970 1_445 S
Li89 O149 1.956 . S
Li89 O151 1.961 . S
Li90 N135 1.990 . S
Li90 O148 1.961 . S
Li90 O150 1.956 . S
Li90 O151 1.970 1_665 S
Li91 N141 1.990 . S
Li91 O149 1.961 . S
Li91 O150 1.970 1_445 S
Li91 O151 1.956 . S
C92 C94 1.348 1_655 S
C92 C95 1.356 . S
C92 O148 1.325 . S
N93 C96 1.314 . S
N93 C97 1.279 . S
C94 C92 1.348 1_455 S
C94 C96 1.353 1_455 S
C94 H152 0.929 . S
C95 C92 1.356 . S
C95 C97 1.358 . S
C95 H153 0.930 . S
C96 N93 1.314 . S
C96 C94 1.353 1_655 S
C96 H154 0.930 1_655 S
C97 N93 1.279 . S
C97 C95 1.358 . S
C97 H155 0.930 . S
C98 C101 1.348 1_545 S
C98 C102 1.356 . S
C98 O149 1.325 . S
C99 N100 1.279 . S
C99 C102 1.358 . S
C99 H156 0.930 . S
N100 C99 1.279 . S
N100 C103 1.314 . S
C101 C98 1.348 1_565 S
C101 C103 1.353 1_565 S
C101 H157 0.929 . S
C102 C98 1.356 . S
C102 C99 1.358 . S
C102 H158 0.930 . S
C103 N100 1.314 . S
C103 C101 1.353 1_545 S
C103 H159 0.930 1_545 S
C104 N105 1.314 . S
C104 C109 1.353 . S
C104 H110 0.930 . S
N105 Li88 1.990 . S
N105 C104 1.314 . S
N105 C107 1.279 . S
C106 C107 1.358 . S
C106 C108 1.356 . S
C106 H160 0.930 . S
C107 N105 1.279 . S
C107 C106 1.358 . S
C107 H111 0.930 . S
C108 C106 1.356 . S
C108 C109 1.348 . S
C109 C104 1.353 . S
C109 C108 1.348 . S
C109 H161 0.929 . S
H110 C104 0.930 . S
H111 C107 0.930 . S
C112 N113 1.314 . S
C112 C114 1.353 . S
C112 H118 0.930 . S
N113 Li89 1.990 . S
N113 C112 1.314 . S
N113 C116 1.279 . S
C114 C112 1.353 . S
C114 C117 1.348 . S
C114 H162 0.929 . S
C115 C116 1.358 . S
C115 C117 1.356 . S
C115 H163 0.930 . S
C116 N113 1.279 . S
C116 C115 1.358 . S
C116 H119 0.930 . S
C117 C114 1.348 . S
C117 C115 1.356 . S
H118 C112 0.930 . S
H119 C116 0.930 . S
C120 C122 1.348 1_565 S
C120 C123 1.356 . S
C120 O150 1.325 . S
N121 C124 1.314 . S
N121 C125 1.279 . S
C122 C120 1.348 1_545 S
C122 C124 1.353 1_545 S
C122 H164 0.929 . S
C123 C120 1.356 . S
C123 C125 1.358 . S
C123 H165 0.930 . S
C124 N121 1.314 . S
C124 C122 1.353 1_565 S
C124 H166 0.930 1_565 S
C125 N121 1.279 . S
C125 C123 1.358 . S
C125 H167 0.930 . S
C126 C127 1.348 1_455 S
C126 C128 1.356 . S
C126 O151 1.325 . S
C127 C126 1.348 1_655 S
C127 C129 1.353 1_655 S
C127 H168 0.929 . S
C128 C126 1.356 . S
C128 C130 1.358 . S
C128 H169 0.930 . S
C129 C127 1.353 1_455 S
C129 N131 1.314 . S
C129 H170 0.930 1_455 S
C130 C128 1.358 . S
C130 N131 1.279 . S
C130 H171 0.930 . S
N131 C129 1.314 . S
N131 C130 1.279 . S
C132 C134 1.353 . S
C132 N135 1.314 . S
C132 H138 0.930 . S
C133 N135 1.279 . S
C133 C136 1.358 . S
C133 H139 0.930 . S
C134 C132 1.353 . S
C134 C137 1.348 . S
C134 H172 0.929 . S
N135 Li90 1.990 . S
N135 C132 1.314 . S
N135 C133 1.279 . S
C136 C133 1.358 . S
C136 C137 1.356 . S
C136 H173 0.930 . S
C137 C134 1.348 . S
C137 C136 1.356 . S
H138 C132 0.930 . S
H139 C133 0.930 . S
C140 N141 1.314 . S
C140 C142 1.353 . S
C140 H146 0.930 . S
N141 Li91 1.990 . S
N141 C140 1.314 . S
N141 C144 1.279 . S
C142 C140 1.353 . S
C142 C145 1.348 . S
C142 H174 0.929 . S
C143 C144 1.358 . S
C143 C145 1.356 . S
C143 H175 0.930 . S
C144 N141 1.279 . S
C144 C143 1.358 . S
C144 H147 0.930 . S
C145 C142 1.348 . S
C145 C143 1.356 . S
H146 C140 0.930 . S
H147 C144 0.930 . S
O148 Li88 1.956 . S
O148 Li89 1.970 1_665 S
O148 Li90 1.961 . S
O148 C92 1.325 . S
O149 Li88 1.970 1_445 S
O149 Li89 1.956 . S
O149 Li91 1.961 . S
O149 C98 1.325 . S
O150 Li88 1.961 . S
O150 Li90 1.956 . S
O150 Li91 1.970 1_665 S
O150 C120 1.325 . S
O151 Li89 1.961 . S
O151 Li90 1.970 1_445 S
O151 Li91 1.956 . S
O151 C126 1.325 . S
H152 C94 0.929 . S
H153 C95 0.930 . S
H154 C96 0.930 1_455 S
H155 C97 0.930 . S
H156 C99 0.930 . S
H157 C101 0.929 . S
H158 C102 0.930 . S
H159 C103 0.930 1_565 S
H160 C106 0.930 . S
H161 C109 0.929 . S
H162 C114 0.929 . S
H163 C115 0.930 . S
H164 C122 0.929 . S
H165 C123 0.930 . S
H166 C124 0.930 1_545 S
H167 C125 0.930 . S
H168 C127 0.929 . S
H169 C128 0.930 . S
H170 C129 0.930 1_655 S
H171 C130 0.930 . S
H172 C134 0.929 . S
H173 C136 0.930 . S
H174 C142 0.929 . S
H175 C143 0.930 . S
Li176 N193 1.990 . S
Li176 O236 1.956 . S
Li176 O237 1.970 1_565 S
Li176 O238 1.961 1_455 S
Li177 N201 1.990 . S
Li177 O236 1.970 1_545 S
Li177 O237 1.956 . S
Li177 O239 1.961 1_455 S
Li178 N223 1.990 . S
Li178 O236 1.961 1_655 S
Li178 O238 1.956 . S
Li178 O239 1.970 1_565 S
Li179 N229 1.990 . S
Li179 O237 1.961 1_655 S
Li179 O238 1.970 1_545 S
Li179 O239 1.956 . S
C180 C182 1.348 1_565 S
C180 C183 1.356 . S
C180 O236 1.325 . S
N181 C184 1.314 . S
N181 C185 1.279 . S
C182 C180 1.348 1_545 S
C182 C184 1.353 1_545 S
C182 H240 0.929 . S
C183 C180 1.356 . S
C183 C185 1.358 . S
C183 H241 0.930 . S
C184 N181 1.314 . S
C184 C182 1.353 1_565 S
C184 H242 0.930 1_565 S
C185 N181 1.279 . S
C185 C183 1.358 . S
C185 H243 0.930 . S
C186 C189 1.348 . S
C186 C190 1.356 . S
C186 O237 1.325 . S
C187 N188 1.279 . S
C187 C190 1.358 . S
C187 H244 0.930 . S
N188 C187 1.279 . S
N188 C191 1.314 . S
C189 C186 1.348 . S
C189 C191 1.353 . S
C189 H245 0.929 . S
C190 C186 1.356 . S
C190 C187 1.358 . S
C190 H246 0.930 . S
C191 N188 1.314 . S
C191 C189 1.353 . S
C191 H247 0.930 . S
C192 N193 1.314 . S
C192 C197 1.353 . S
C192 H198 0.930 . S
N193 Li176 1.990 . S
N193 C192 1.314 . S
N193 C195 1.279 . S
C194 C195 1.358 . S
C194 C196 1.356 . S
C194 H248 0.930 . S
C195 N193 1.279 . S
C195 C194 1.358 . S
C195 H199 0.930 . S
C196 C194 1.356 . S
C196 C197 1.348 . S
C197 C192 1.353 . S
C197 C196 1.348 . S
C197 H249 0.929 . S
H198 C192 0.930 . S
H199 C195 0.930 . S
C200 N201 1.314 . S
C200 C202 1.353 . S
C200 H206 0.930 . S
N201 Li177 1.990 . S
N201 C200 1.314 . S
N201 C204 1.279 . S
C202 C200 1.353 . S
C202 C205 1.348 . S
C202 H250 0.929 . S
C203 C204 1.358 . S
C203 C205 1.356 . S
C203 H251 0.930 . S
C204 N201 1.279 . S
C204 C203 1.358 . S
C204 H207 0.930 . S
C205 C202 1.348 . S
C205 C203 1.356 . S
H206 C200 0.930 . S
H207 C204 0.930 . S
C208 C210 1.348 . S
C208 C211 1.356 . S
C208 O238 1.325 . S
N209 C212 1.314 . S
N209 C213 1.279 . S
C210 C208 1.348 . S
C210 C212 1.353 . S
C210 H252 0.929 . S
C211 C208 1.356 . S
C211 C213 1.358 . S
C211 H253 0.930 . S
C212 N209 1.314 . S
C212 C210 1.353 . S
C212 H254 0.930 . S
C213 N209 1.279 . S
C213 C211 1.358 . S
C213 H255 0.930 . S
C214 C215 1.348 1_545 S
C214 C216 1.356 . S
C214 O239 1.325 . S
C215 C214 1.348 1_565 S
C215 C217 1.353 1_565 S
C215 H256 0.929 . S
C216 C214 1.356 . S
C216 C218 1.358 . S
C216 H257 0.930 . S
C217 C215 1.353 1_545 S
C217 N219 1.314 . S
C217 H258 0.930 1_545 S
C218 C216 1.358 . S
C218 N219 1.279 . S
C218 H259 0.930 . S
N219 C217 1.314 . S
N219 C218 1.279 . S
C220 C222 1.353 . S
C220 N223 1.314 . S
C220 H226 0.930 . S
C221 N223 1.279 . S
C221 C224 1.358 . S
C221 H227 0.930 . S
C222 C220 1.353 . S
C222 C225 1.348 . S
C222 H260 0.929 . S
N223 Li178 1.990 . S
N223 C220 1.314 . S
N223 C221 1.279 . S
C224 C221 1.358 . S
C224 C225 1.356 . S
C224 H261 0.930 . S
C225 C222 1.348 . S
C225 C224 1.356 . S
H226 C220 0.930 . S
H227 C221 0.930 . S
C228 N229 1.314 . S
C228 C230 1.353 . S
C228 H234 0.930 . S
N229 Li179 1.990 . S
N229 C228 1.314 . S
N229 C232 1.279 . S
C230 C228 1.353 . S
C230 C233 1.348 . S
C230 H262 0.929 . S
C231 C232 1.358 . S
C231 C233 1.356 . S
C231 H263 0.930 . S
C232 N229 1.279 . S
C232 C231 1.358 . S
C232 H235 0.930 . S
C233 C230 1.348 . S
C233 C231 1.356 . S
H234 C228 0.930 . S
H235 C232 0.930 . S
O236 Li176 1.956 . S
O236 Li177 1.970 1_565 S
O236 Li178 1.961 1_455 S
O236 C180 1.325 . S
O237 Li176 1.970 1_545 S
O237 Li177 1.956 . S
O237 Li179 1.961 1_455 S
O237 C186 1.325 . S
O238 Li176 1.961 1_655 S
O238 Li178 1.956 . S
O238 Li179 1.970 1_565 S
O238 C208 1.325 . S
O239 Li177 1.961 1_655 S
O239 Li178 1.970 1_545 S
O239 Li179 1.956 . S
O239 C214 1.325 . S
H240 C182 0.929 . S
H241 C183 0.930 . S
H242 C184 0.930 1_545 S
H243 C185 0.930 . S
H244 C187 0.930 . S
H245 C189 0.929 . S
H246 C190 0.930 . S
H247 C191 0.930 . S
H248 C194 0.930 . S
H249 C197 0.929 . S
H250 C202 0.929 . S
H251 C203 0.930 . S
H252 C210 0.929 . S
H253 C211 0.930 . S
H254 C212 0.930 . S
H255 C213 0.930 . S
H256 C215 0.929 . S
H257 C216 0.930 . S
H258 C217 0.930 1_565 S
H259 C218 0.930 . S
H260 C222 0.929 . S
H261 C224 0.930 . S
H262 C230 0.929 . S
H263 C231 0.930 . S
H264 C283 0.949 . S
H265 C284 0.950 . S
H266 C286 0.950 . S
H267 C287 0.950 . S
H268 C289 0.950 . S
H269 C292 0.950 . S
H270 C293 0.950 . S
H271 C295 0.951 . S
H272 C296 0.949 . S
H273 C298 0.949 . S
H274 C299 0.950 . S
H275 C301 0.950 . S
H276 C302 0.950 . S
H277 C304 0.950 . S
H278 C307 0.950 . S
H279 C308 0.950 . S
H280 C310 0.951 . S
H281 C311 0.949 . S
C282 C283 1.376 . S
C282 C287 1.386 1_455 S
C282 C288 1.483 . S
C283 H264 0.949 . S
C283 C282 1.376 . S
C283 C284 1.397 . S
C284 H265 0.950 . S
C284 C283 1.397 . S
C284 C285 1.391 . S
C285 C284 1.391 . S
C285 C286 1.405 1_455 S
C286 H266 0.950 . S
C286 C285 1.405 1_655 S
C286 C287 1.367 . S
C287 H267 0.950 . S
C287 C282 1.386 1_655 S
C287 C286 1.367 . S
C288 C282 1.483 . S
C288 C289 1.382 . S
C288 C290 1.403 1_455 S
C289 H268 0.950 . S
C289 C288 1.382 . S
C289 C305 1.411 . S
C290 C288 1.403 1_655 S
C290 C291 1.489 . S
C290 C304 1.411 . S
C291 C290 1.489 . S
C291 C292 1.383 1_655 S
C291 C296 1.382 . S
C292 H269 0.950 . S
C292 C291 1.383 1_455 S
C292 C293 1.395 . S
C293 H270 0.950 . S
C293 C292 1.395 . S
C293 C294 1.288 1_455 S
C294 C293 1.288 1_655 S
C294 C295 1.392 . S
C295 H271 0.951 . S
C295 C294 1.392 . S
C295 C296 1.392 . S
C296 H272 0.949 . S
C296 C291 1.382 . S
C296 C295 1.392 . S
C297 C298 1.376 . S
C297 C302 1.386 1_655 S
C297 C303 1.483 . S
C298 H273 0.949 . S
C298 C297 1.376 . S
C298 C299 1.397 . S
C299 H274 0.950 . S
C299 C298 1.397 . S
C299 C300 1.399 . S
C300 C299 1.399 . S
C300 C301 1.390 1_655 S
C301 H275 0.950 . S
C301 C300 1.390 1_455 S
C301 C302 1.367 . S
C302 H276 0.950 . S
C302 C297 1.386 1_455 S
C302 C301 1.367 . S
C303 C297 1.483 . S
C303 C304 1.382 . S
C303 C305 1.403 1_655 S
C304 H277 0.950 . S
C304 C290 1.411 . S
C304 C303 1.382 . S
C305 C289 1.411 . S
C305 C303 1.403 1_455 S
C305 C306 1.489 . S
C306 C305 1.489 . S
C306 C307 1.383 1_455 S
C306 C311 1.382 . S
C307 H278 0.950 . S
C307 C306 1.383 1_655 S
C307 C308 1.395 . S
C308 H279 0.950 . S
C308 C307 1.395 . S
C308 C309 1.288 1_655 S
C309 C308 1.288 1_455 S
C309 C310 1.392 . S
C310 H280 0.951 . S
C310 C309 1.392 . S
C310 C311 1.392 . S
C311 H281 0.949 . S
C311 C306 1.382 . S
C311 C310 1.392 . S
H312 C331 0.949 . S
H313 C332 0.950 . S
H314 C334 0.950 . S
H315 C335 0.950 . S
H316 C337 0.950 . S
H317 C340 0.950 . S
H318 C341 0.950 . S
H319 C343 0.951 . S
H320 C344 0.949 . S
H321 C346 0.949 . S
H322 C347 0.950 . S
H323 C349 0.950 . S
H324 C350 0.950 . S
H325 C352 0.950 . S
H326 C355 0.950 . S
H327 C356 0.950 . S
H328 C358 0.951 . S
H329 C359 0.949 . S
C330 C331 1.376 . S
C330 C335 1.386 1_545 S
C330 C336 1.483 . S
C331 H312 0.949 . S
C331 C330 1.376 . S
C331 C332 1.397 . S
C332 H313 0.950 . S
C332 C331 1.397 . S
C332 C333 1.391 . S
C333 C332 1.391 . S
C333 C334 1.405 1_545 S
C334 H314 0.950 . S
C334 C333 1.405 1_565 S
C334 C335 1.367 . S
C335 H315 0.950 . S
C335 C330 1.386 1_565 S
C335 C334 1.367 . S
C336 C330 1.483 . S
C336 C337 1.382 . S
C336 C338 1.403 1_545 S
C337 H316 0.950 . S
C337 C336 1.382 . S
C337 C353 1.411 . S
C338 C336 1.403 1_565 S
C338 C339 1.489 . S
C338 C352 1.411 . S
C339 C338 1.489 . S
C339 C340 1.383 1_565 S
C339 C344 1.382 . S
C340 H317 0.950 . S
C340 C339 1.383 1_545 S
C340 C341 1.395 . S
C341 H318 0.950 . S
C341 C340 1.395 . S
C341 C342 1.288 1_545 S
C342 C341 1.288 1_565 S
C342 C343 1.392 . S
C343 H319 0.951 . S
C343 C342 1.392 . S
C343 C344 1.392 . S
C344 H320 0.949 . S
C344 C339 1.382 . S
C344 C343 1.392 . S
C345 C346 1.376 . S
C345 C350 1.386 1_565 S
C345 C351 1.483 . S
C346 H321 0.949 . S
C346 C345 1.376 . S
C346 C347 1.397 . S
C347 H322 0.950 . S
C347 C346 1.397 . S
C347 C348 1.412 . S
C348 C347 1.412 . S
C348 C349 1.394 1_565 S
C349 H323 0.950 . S
C349 C348 1.394 1_545 S
C349 C350 1.367 . S
C350 H324 0.950 . S
C350 C345 1.386 1_545 S
C350 C349 1.367 . S
C351 C345 1.483 . S
C351 C352 1.382 . S
C351 C353 1.403 1_565 S
C352 H325 0.950 . S
C352 C338 1.411 . S
C352 C351 1.382 . S
C353 C337 1.411 . S
C353 C351 1.403 1_545 S
C353 C354 1.489 . S
C354 C353 1.489 . S
C354 C355 1.383 1_545 S
C354 C359 1.382 . S
C355 H326 0.950 . S
C355 C354 1.383 1_565 S
C355 C356 1.395 . S
C356 H327 0.950 . S
C356 C355 1.395 . S
C356 C357 1.288 1_565 S
C357 C356 1.288 1_545 S
C357 C358 1.392 . S
C358 H328 0.951 . S
C358 C357 1.392 . S
C358 C359 1.392 . S
C359 H329 0.949 . S
C359 C354 1.382 . S
C359 C358 1.392 . S
H360 C379 0.949 . S
H361 C380 0.950 . S
H362 C382 0.950 . S
H363 C383 0.950 . S
H364 C385 0.950 . S
H365 C388 0.950 . S
H366 C389 0.950 . S
H367 C391 0.951 . S
H368 C392 0.949 . S
H369 C394 0.949 . S
H370 C395 0.950 . S
H371 C397 0.950 . S
H372 C398 0.950 . S
H373 C400 0.950 . S
H374 C403 0.950 . S
H375 C404 0.950 . S
H376 C406 0.951 . S
H377 C407 0.949 . S
C378 C379 1.376 . S
C378 C383 1.386 . S
C378 C384 1.483 . S
C379 H360 0.949 . S
C379 C378 1.376 . S
C379 C380 1.397 . S
C380 H361 0.950 . S
C380 C379 1.397 . S
C380 C381 1.391 . S
C381 C380 1.391 . S
C381 C382 1.405 . S
C382 H362 0.950 . S
C382 C381 1.405 . S
C382 C383 1.367 . S
C383 H363 0.950 . S
C383 C378 1.386 . S
C383 C382 1.367 . S
C384 C378 1.483 . S
C384 C385 1.382 . S
C384 C386 1.403 . S
C385 H364 0.950 . S
C385 C384 1.382 . S
C385 C401 1.411 . S
C386 C384 1.403 . S
C386 C387 1.489 . S
C386 C400 1.411 . S
C387 C386 1.489 . S
C387 C388 1.383 . S
C387 C392 1.382 . S
C388 H365 0.950 . S
C388 C387 1.383 . S
C388 C389 1.395 . S
C389 H366 0.950 . S
C389 C388 1.395 . S
C389 C390 1.288 . S
C390 C389 1.288 . S
C390 C391 1.392 . S
C391 H367 0.951 . S
C391 C390 1.392 . S
C391 C392 1.392 . S
C392 H368 0.949 . S
C392 C387 1.382 . S
C392 C391 1.392 . S
C393 C394 1.376 . S
C393 C398 1.386 . S
C393 C399 1.483 . S
C394 H369 0.949 . S
C394 C393 1.376 . S
C394 C395 1.397 . S
C395 H370 0.950 . S
C395 C394 1.397 . S
C395 C396 1.391 . S
C396 C395 1.391 . S
C396 C397 1.405 . S
C397 H371 0.950 . S
C397 C396 1.405 . S
C397 C398 1.367 . S
C398 H372 0.950 . S
C398 C393 1.386 . S
C398 C397 1.367 . S
C399 C393 1.483 . S
C399 C400 1.382 . S
C399 C401 1.403 . S
C400 H373 0.950 . S
C400 C386 1.411 . S
C400 C399 1.382 . S
C401 C385 1.411 . S
C401 C399 1.403 . S
C401 C402 1.489 . S
C402 C401 1.489 . S
C402 C403 1.383 . S
C402 C407 1.382 . S
C403 H374 0.950 . S
C403 C402 1.383 . S
C403 C404 1.395 . S
C404 H375 0.950 . S
C404 C403 1.395 . S
C404 C405 1.288 . S
C405 C404 1.288 . S
C405 C406 1.392 . S
C406 H376 0.951 . S
C406 C405 1.392 . S
C406 C407 1.392 . S
C407 H377 0.949 . S
C407 C402 1.382 . S
C407 C406 1.392 . S
H408 C416 0.950 1_455 S
H409 C421 0.950 . S
H410 C418 0.950 . S
H411 C420 0.950 . S
H412 C422 0.950 . S
H413 C424 0.950 . S
H414 C426 0.950 . S
H415 C427 0.950 . S
C416 H408 0.950 1_655 S
C416 C417 1.386 . S
C416 C418 1.391 1_655 S
C417 C416 1.386 . S
C417 C421 1.393 . S
C418 H410 0.950 . S
C418 C416 1.391 1_455 S
C418 C419 1.400 1_455 S
C419 C418 1.400 1_655 S
C419 C420 1.398 . S
C419 C425 1.491 . S
C420 H411 0.950 . S
C420 C419 1.398 . S
C420 C421 1.391 . S
C421 H409 0.950 . S
C421 C417 1.393 . S
C421 C420 1.391 . S
C422 H412 0.950 . S
C422 C423 1.386 . S
C422 C424 1.391 . S
C423 C422 1.386 . S
C423 C427 1.393 1_655 S
C424 H413 0.950 . S
C424 C422 1.391 . S
C424 C425 1.400 . S
C425 C419 1.491 . S
C425 C424 1.400 . S
C425 C426 1.398 1_655 S
C426 H414 0.950 . S
C426 C425 1.398 1_455 S
C426 C427 1.391 . S
C427 H415 0.950 . S
C427 C423 1.393 1_455 S
C427 C426 1.391 . S
H428 C436 0.950 . S
H429 C441 0.950 . S
H430 C438 0.950 . S
H431 C440 0.950 . S
H432 C442 0.950 . S
H433 C444 0.950 . S
H434 C446 0.950 . S
H435 C447 0.950 1_545 S
C436 H428 0.950 . S
C436 C437 1.386 . S
C436 C438 1.391 . S
C437 C436 1.386 . S
C437 C441 1.393 . S
C438 H430 0.950 . S
C438 C436 1.391 . S
C438 C439 1.400 . S
C439 C438 1.400 . S
C439 C440 1.398 . S
C439 C445 1.491 . S
C440 H431 0.950 . S
C440 C439 1.398 . S
C440 C441 1.391 . S
C441 H429 0.950 . S
C441 C437 1.393 . S
C441 C440 1.391 . S
C442 H432 0.950 . S
C442 C443 1.386 . S
C442 C444 1.391 . S
C443 C442 1.386 . S
C443 C447 1.393 . S
C444 H433 0.950 . S
C444 C442 1.391 . S
C444 C445 1.400 . S
C445 C439 1.491 . S
C445 C444 1.400 . S
C445 C446 1.398 . S
C446 H434 0.950 . S
C446 C445 1.398 . S
C446 C447 1.391 . S
C447 H435 0.950 1_565 S
C447 C443 1.393 . S
C447 C446 1.391 . S
H448 C456 0.950 . S
H449 C461 0.950 . S
H450 C458 0.950 . S
H451 C460 0.950 . S
H452 C462 0.950 . S
H453 C464 0.950 . S
H454 C466 0.950 . S
H455 C467 0.950 . S
C456 H448 0.950 . S
C456 C457 1.386 . S
C456 C458 1.391 . S
C457 C456 1.386 . S
C457 C461 1.393 . S
C458 H450 0.950 . S
C458 C456 1.391 . S
C458 C459 1.400 . S
C459 C458 1.400 . S
C459 C460 1.398 . S
C459 C465 1.491 . S
C460 H451 0.950 . S
C460 C459 1.398 . S
C460 C461 1.391 . S
C461 H449 0.950 . S
C461 C457 1.393 . S
C461 C460 1.391 . S
C462 H452 0.950 . S
C462 C463 1.386 . S
C462 C464 1.391 . S
C463 C462 1.386 . S
C463 C467 1.393 . S
C464 H453 0.950 . S
C464 C462 1.391 . S
C464 C465 1.400 . S
C465 C459 1.491 . S
C465 C464 1.400 . S
C465 C466 1.398 . S
C466 H454 0.950 . S
C466 C465 1.398 . S
C466 C467 1.391 . S
C467 H455 0.950 . S
C467 C463 1.393 . S
C467 C466 1.391 . S
H468 C476 0.950 . S
H469 C481 0.950 1_655 S
H470 C478 0.950 . S
H471 C480 0.952 . S
H472 C482 0.950 . S
H473 C484 0.950 . S
H474 C486 0.950 . S
H475 C487 0.950 . S
C476 H468 0.950 . S
C476 C477 1.386 . S
C476 C478 1.391 . S
C477 C476 1.386 . S
C477 C481 1.393 . S
C478 H470 0.950 . S
C478 C476 1.391 . S
C478 C479 1.400 . S
C479 C478 1.400 . S
C479 C480 1.396 1_455 S
C479 C485 1.491 . S
C480 H471 0.952 . S
C480 C479 1.396 1_655 S
C480 C481 1.391 1_655 S
C481 H469 0.950 1_455 S
C481 C477 1.393 . S
C481 C480 1.391 1_455 S
C482 H472 0.950 . S
C482 C483 1.386 1_655 S
C482 C484 1.391 . S
C483 C482 1.386 1_455 S
C483 C487 1.393 . S
C484 H473 0.950 . S
C484 C482 1.391 . S
C484 C485 1.400 1_655 S
C485 C479 1.491 . S
C485 C484 1.400 1_455 S
C485 C486 1.398 . S
C486 H474 0.950 . S
C486 C485 1.398 . S
C486 C487 1.391 . S
C487 H475 0.950 . S
C487 C483 1.393 . S
C487 C486 1.391 . S
H488 C496 0.950 . S
H489 C501 0.950 . S
H490 C498 0.950 . S
H491 C500 0.950 . S
H492 C502 0.950 . S
H493 C504 0.950 . S
H494 C506 0.950 . S
H495 C507 0.950 1_565 S
C496 H488 0.950 . S
C496 C497 1.386 . S
C496 C498 1.391 . S
C497 C496 1.386 . S
C497 C501 1.393 . S
C498 H490 0.950 . S
C498 C496 1.391 . S
C498 C499 1.400 . S
C499 C498 1.400 . S
C499 C500 1.398 . S
C499 C505 1.491 . S
C500 H491 0.950 . S
C500 C499 1.398 . S
C500 C501 1.391 . S
C501 H489 0.950 . S
C501 C497 1.393 . S
C501 C500 1.391 . S
C502 H492 0.950 . S
C502 C503 1.386 . S
C502 C504 1.391 . S
C503 C502 1.386 . S
C503 C507 1.393 . S
C504 H493 0.950 . S
C504 C502 1.391 . S
C504 C505 1.400 . S
C505 C499 1.491 . S
C505 C504 1.400 . S
C505 C506 1.398 . S
C506 H494 0.950 . S
C506 C505 1.398 . S
C506 C507 1.391 . S
C507 H495 0.950 1_545 S
C507 C503 1.393 . S
C507 C506 1.391 . S
H508 C516 0.950 . S
H509 C521 0.950 . S
H510 C518 0.950 . S
H511 C520 0.950 . S
H512 C522 0.950 . S
H513 C524 0.950 . S
H514 C526 0.950 . S
H515 C527 0.950 . S
C516 H508 0.950 . S
C516 C517 1.386 . S
C516 C518 1.391 . S
C517 C516 1.386 . S
C517 C521 1.393 . S
C518 H510 0.950 . S
C518 C516 1.391 . S
C518 C519 1.400 . S
C519 C518 1.400 . S
C519 C520 1.398 . S
C519 C525 1.491 . S
C520 H511 0.950 . S
C520 C519 1.398 . S
C520 C521 1.391 . S
C521 H509 0.950 . S
C521 C517 1.393 . S
C521 C520 1.391 . S
C522 H512 0.950 . S
C522 C523 1.386 . S
C522 C524 1.391 . S
C523 C522 1.386 . S
C523 C527 1.393 . S
C524 H513 0.950 . S
C524 C522 1.391 . S
C524 C525 1.400 . S
C525 C519 1.491 . S
C525 C524 1.400 . S
C525 C526 1.398 . S
C526 H514 0.950 . S
C526 C525 1.398 . S
C526 C527 1.391 . S
C527 H515 0.950 . S
C527 C523 1.393 . S
C527 C526 1.391 . S
H528 C536 0.950 1_565 S
H529 C541 0.950 . S
H530 C538 0.950 . S
H531 C540 0.950 . S
H532 C542 0.950 . S
H533 C544 0.950 . S
H534 C546 0.950 . S
H535 C547 0.950 . S
C536 H528 0.950 1_545 S
C536 C537 1.386 . S
C536 C538 1.391 1_545 S
C537 C536 1.386 . S
C537 C541 1.393 . S
C538 H530 0.950 . S
C538 C536 1.391 1_565 S
C538 C539 1.400 1_565 S
C539 C538 1.400 1_545 S
C539 C540 1.398 . S
C539 C545 1.491 . S
C540 H531 0.950 . S
C540 C539 1.398 . S
C540 C541 1.391 . S
C541 H529 0.950 . S
C541 C537 1.393 . S
C541 C540 1.391 . S
C542 H532 0.950 . S
C542 C543 1.386 . S
C542 C544 1.391 . S
C543 C542 1.386 . S
C543 C547 1.393 1_545 S
C544 H533 0.950 . S
C544 C542 1.391 . S
C544 C545 1.400 . S
C545 C539 1.491 . S
C545 C544 1.400 . S
C545 C546 1.398 1_545 S
C546 H534 0.950 . S
C546 C545 1.398 1_565 S
C546 C547 1.391 . S
C547 H535 0.950 . S
C547 C543 1.393 1_565 S
C547 C546 1.391 . S
H548 C556 0.950 . S
H549 C561 0.950 . S
H550 C558 0.950 . S
H551 C560 0.950 . S
H552 C562 0.950 . S
H553 C564 0.950 . S
H554 C566 0.950 . S
H555 C567 0.950 . S
C556 H548 0.950 . S
C556 C557 1.386 . S
C556 C558 1.391 . S
C557 C556 1.386 . S
C557 C561 1.393 . S
C558 H550 0.950 . S
C558 C556 1.391 . S
C558 C559 1.400 . S
C559 C558 1.400 . S
C559 C560 1.398 . S
C559 C565 1.491 . S
C560 H551 0.950 . S
C560 C559 1.398 . S
C560 C561 1.391 . S
C561 H549 0.950 . S
C561 C557 1.393 . S
C561 C560 1.391 . S
C562 H552 0.950 . S
C562 C563 1.386 . S
C562 C564 1.391 . S
C563 C562 1.386 . S
C563 C567 1.393 . S
C564 H553 0.950 . S
C564 C562 1.391 . S
C564 C565 1.400 . S
C565 C559 1.491 . S
C565 C564 1.400 . S
C565 C566 1.398 . S
C566 H554 0.950 . S
C566 C565 1.398 . S
C566 C567 1.391 . S
C567 H555 0.950 . S
C567 C563 1.393 . S
C567 C566 1.391 . S
H568 C576 0.950 . S
H569 C581 0.950 . S
H570 C578 0.950 . S
H571 C580 0.950 1_455 S
H572 C582 0.950 . S
H573 C584 0.950 . S
H574 C586 0.950 . S
H575 C587 0.950 . S
C576 H568 0.950 . S
C576 C577 1.386 . S
C576 C578 1.391 . S
C577 C576 1.386 . S
C577 C581 1.393 . S
C578 H570 0.950 . S
C578 C576 1.391 . S
C578 C579 1.400 . S
C579 C578 1.400 . S
C579 C580 1.398 . S
C579 C585 1.491 . S
C580 H571 0.950 1_655 S
C580 C579 1.398 . S
C580 C581 1.391 . S
C581 H569 0.950 . S
C581 C577 1.393 . S
C581 C580 1.391 . S
C582 H572 0.950 . S
C582 C583 1.386 1_455 S
C582 C584 1.391 . S
C583 C582 1.386 1_655 S
C583 C587 1.393 . S
C584 H573 0.950 . S
C584 C582 1.391 . S
C584 C585 1.400 1_455 S
C585 C579 1.491 . S
C585 C584 1.400 1_655 S
C585 C586 1.398 . S
C586 H574 0.950 . S
C586 C585 1.398 . S
C586 C587 1.391 . S
C587 H575 0.950 . S
C587 C583 1.393 . S
C587 C586 1.391 . S
H588 C596 0.950 . S
H589 C601 0.950 1_545 S
H590 C598 0.950 . S
H591 C600 0.950 . S
H592 C602 0.950 . S
H593 C604 0.950 . S
H594 C606 0.950 . S
H595 C607 0.950 . S
C596 H588 0.950 . S
C596 C597 1.386 . S
C596 C598 1.391 . S
C597 C596 1.386 . S
C597 C601 1.393 . S
C598 H590 0.950 . S
C598 C596 1.391 . S
C598 C599 1.400 . S
C599 C598 1.400 . S
C599 C600 1.398 1_565 S
C599 C605 1.491 . S
C600 H591 0.950 . S
C600 C599 1.398 1_545 S
C600 C601 1.391 1_545 S
C601 H589 0.950 1_565 S
C601 C597 1.393 . S
C601 C600 1.391 1_565 S
C602 H592 0.950 . S
C602 C603 1.386 1_545 S
C602 C604 1.391 . S
C603 C602 1.386 1_565 S
C603 C607 1.393 . S
C604 H593 0.950 . S
C604 C602 1.391 . S
C604 C605 1.400 1_545 S
C605 C599 1.491 . S
C605 C604 1.400 1_565 S
C605 C606 1.398 . S
C606 H594 0.950 . S
C606 C605 1.398 . S
C606 C607 1.391 . S
C607 H595 0.950 . S
C607 C603 1.393 . S
C607 C606 1.391 . S
H608 C616 0.950 . S
H609 C621 0.950 . S
H610 C618 0.950 . S
H611 C620 0.950 . S
H612 C622 0.950 . S
H613 C624 0.950 . S
H614 C626 0.950 . S
H615 C627 0.950 . S
C616 H608 0.950 . S
C616 C617 1.386 . S
C616 C618 1.391 . S
C617 C616 1.386 . S
C617 C621 1.393 . S
C618 H610 0.950 . S
C618 C616 1.391 . S
C618 C619 1.400 . S
C619 C618 1.400 . S
C619 C620 1.398 . S
C619 C625 1.491 . S
C620 H611 0.950 . S
C620 C619 1.398 . S
C620 C621 1.391 . S
C621 H609 0.950 . S
C621 C617 1.393 . S
C621 C620 1.391 . S
C622 H612 0.950 . S
C622 C623 1.386 . S
C622 C624 1.391 . S
C623 C622 1.386 . S
C623 C627 1.393 . S
C624 H613 0.950 . S
C624 C622 1.391 . S
C624 C625 1.400 . S
C625 C619 1.491 . S
C625 C624 1.400 . S
C625 C626 1.398 . S
C626 H614 0.950 . S
C626 C625 1.398 . S
C626 C627 1.391 . S
C627 H615 0.950 . S
C627 C623 1.393 . S
C627 C626 1.391 . S
H628 C636 0.950 . S
H629 C641 0.950 . S
H630 C638 0.950 . S
H631 C640 0.950 . S
H632 C642 0.950 . S
H633 C644 0.950 . S
H634 C646 0.950 . S
H635 C647 0.950 1_655 S
C636 H628 0.950 . S
C636 C637 1.386 . S
C636 C638 1.391 . S
C637 C636 1.386 . S
C637 C641 1.393 . S
C638 H630 0.950 . S
C638 C636 1.391 . S
C638 C639 1.400 . S
C639 C638 1.400 . S
C639 C640 1.398 . S
C639 C645 1.491 . S
C640 H631 0.950 . S
C640 C639 1.398 . S
C640 C641 1.391 . S
C641 H629 0.950 . S
C641 C637 1.393 . S
C641 C640 1.391 . S
C642 H632 0.950 . S
C642 C643 1.386 . S
C642 C644 1.391 . S
C643 C642 1.386 . S
C643 C647 1.393 . S
C644 H633 0.950 . S
C644 C642 1.391 . S
C644 C645 1.400 . S
C645 C639 1.491 . S
C645 C644 1.400 . S
C645 C646 1.398 . S
C646 H634 0.950 . S
C646 C645 1.398 . S
C646 C647 1.391 . S
C647 H635 0.950 1_455 S
C647 C643 1.393 . S
C647 C646 1.391 . S
C423 C285 1.472 1_655 S
C417 C29 1.449 . S
C437 C137 1.462 . S
C443 C333 1.477 1_565 S
C457 C225 1.461 . S
C463 C405 1.462 . S
C477 C49 1.447 . S
C483 C309 1.447 . S
C503 C357 1.462 . S
C497 C117 1.461 . S
C517 C205 1.451 . S
C523 C381 1.474 . S
C543 C342 1.477 1_545 S
C537 C233 1.454 . S
C557 C57 1.447 . S
C563 C396 1.462 . S
C583 C300 1.479 . S
C577 C108 1.459 . S
C603 C348 1.459 . S
C597 C196 1.453 . S
C623 C390 1.477 . S
C617 C20 1.453 . S
C637 C145 1.444 . S
C643 C294 1.475 1_455 S
