# Generated by pormake.
# Topology tsx, (6,3)-cn, num edge types: 1
# Building blocks:
#     Node 0, Type 0, BuildingBlock: JUFBIX_clean_sbu_0, # of connection points: 6
#     Node 1, Type 0, BuildingBlock: JUFBIX_clean_sbu_0, # of connection points: 6
#     Node 2, Type 1, BuildingBlock: CUQRIR_clean_linker_1, # of connection points: 3
#     Node 3, Type 1, BuildingBlock: CUQRIR_clean_linker_1, # of connection points: 3
#     Node 4, Type 1, BuildingBlock: CUQRIR_clean_linker_1, # of connection points: 3
#     Node 5, Type 1, BuildingBlock: CUQRIR_clean_linker_1, # of connection points: 3
#     Edge 6, Type (0, 1), BuildingBlock: XIVTED_clean_linker_0, # of connection points: 2
#     Edge 7, Type (0, 1), BuildingBlock: XIVTED_clean_linker_0, # of connection points: 2
#     Edge 8, Type (0, 1), BuildingBlock: XIVTED_clean_linker_0, # of connection points: 2
#     Edge 9, Type (0, 1), BuildingBlock: XIVTED_clean_linker_0, # of connection points: 2
#     Edge 10, Type (0, 1), BuildingBlock: XIVTED_clean_linker_0, # of connection points: 2
#     Edge 11, Type (0, 1), BuildingBlock: XIVTED_clean_linker_0, # of connection points: 2
#     Edge 12, Type (0, 1), BuildingBlock: XIVTED_clean_linker_0, # of connection points: 2
#     Edge 13, Type (0, 1), BuildingBlock: XIVTED_clean_linker_0, # of connection points: 2
#     Edge 14, Type (0, 1), BuildingBlock: XIVTED_clean_linker_0, # of connection points: 2
#     Edge 15, Type (0, 1), BuildingBlock: XIVTED_clean_linker_0, # of connection points: 2
#     Edge 16, Type (0, 1), BuildingBlock: XIVTED_clean_linker_0, # of connection points: 2
#     Edge 17, Type (0, 1), BuildingBlock: XIVTED_clean_linker_0, # of connection points: 2
# Relax obj value: 0.138
# Max RMSD: 0.160
# Mean RMSD: 0.147
data_MOF--net-tsx--node1-JUFBIX_clean_sbu_0--node2-CUQRIR_clean_linker_1--edge1-XIVTED_clean_linker_0
_symmetry_space_group_name_H-M    P1
_symmetry_Int_Tables_number       1
_symmetry_cell_setting            triclinic
loop_
_symmetry_equiv_pos_as_xyz
'x, y, z'
_cell_length_a     18.631616
_cell_length_b     22.154052
_cell_length_c     31.311228
_cell_angle_alpha  81.333748
_cell_angle_beta   89.59701
_cell_angle_gamma 100.08092
loop_
_atom_site_label
_atom_site_type_symbol
_atom_site_fract_x
_atom_site_fract_y
_atom_site_fract_z
_atom_type_partial_charge
Co0 Co 0.06831 0.93137 0.01283 0.0
C1 C 0.04529 0.98594 0.92951 0.0
Co2 Co 0.97879 0.98602 0.00855 0.0
C3 C 0.15616 0.83877 -0.00032 0.0
C4 C 0.20406 0.90011 0.04246 0.0
N5 N 0.14658 0.88923 0.01703 0.0
N6 N 0.21703 0.81747 0.01363 0.0
C7 C 0.24738 0.85639 0.04036 0.0
H8 H 0.11776 0.81682 0.9785 0.0
H9 H 0.21295 0.93655 0.06228 0.0
C10 C 1.00458 0.93311 0.09204 0.0
N11 N 0.89762 0.02552 0.0064 0.0
C12 C 0.88251 0.07798 0.98268 0.0
C13 C 0.83551 1.00043 0.02972 0.0
N14 N 0.81311 0.0857 0.99023 0.0
C15 C 0.78398 0.03699 0.01997 0.0
C16 C 0.936 0.85935 0.00362 0.0
O17 O 0.05456 0.91343 0.07346 0.0
O18 O 0.96463 0.9655 0.06946 0.0
O19 O 0.91567 0.91144 0.00156 0.0
O20 O 1.00313 0.85669 0.00794 0.0
O21 O 0.99527 1.00635 0.94793 0.0
H22 H 0.82762 0.95738 0.05209 0.0
H23 H 0.92082 0.10885 0.95962 0.0
O24 O 0.08231 0.95027 0.95188 0.0
O25 O 0.13197 1.00668 0.01839 0.0
O26 O 0.04285 0.06018 0.01599 0.0
C27 C 0.11035 0.05776 0.0198 0.0
H28 H 0.29723 0.85348 0.05745 0.0
H29 H 0.72919 0.02844 0.03399 0.0
Co30 Co 0.60016 0.57844 0.48137 0.0
C31 C 0.53388 0.6344 0.40861 0.0
Co32 Co 0.51167 0.62906 0.49486 0.0
C33 C 0.69346 0.48441 0.47559 0.0
C34 C 0.72552 0.57025 0.43294 0.0
N35 N 0.67447 0.54061 0.46335 0.0
N36 N 0.75498 0.47883 0.4543 0.0
C37 C 0.7748 0.53276 0.42745 0.0
H38 H 0.66363 0.44888 0.5 0.0
H39 H 0.72699 0.61663 0.41572 0.0
C40 C 0.58007 0.57116 0.56692 0.0
N41 N 0.44062 0.67145 0.51214 0.0
C42 C 0.39171 0.69901 0.48814 0.0
C43 C 0.43739 0.69127 0.5508 0.0
N44 N 0.35962 0.7356 0.51017 0.0
C45 C 0.38803 0.73064 0.54958 0.0
C46 C 0.46075 0.50483 0.49209 0.0
O47 O 0.62052 0.55536 0.53945 0.0
O48 O 0.53095 0.60235 0.55411 0.0
O49 O 0.44258 0.55643 0.49622 0.0
O50 O 0.52785 0.50287 0.48434 0.0
O51 O 0.49388 0.65318 0.43499 0.0
H52 H 0.47222 0.68161 0.57747 0.0
H53 H 0.38371 0.69634 0.45423 0.0
O54 O 0.58043 0.60175 0.42299 0.0
O55 O 0.66925 0.65406 0.47995 0.0
O56 O 0.5811 0.7023 0.49399 0.0
C57 C 0.64838 0.70349 0.48679 0.0
H58 H 0.82112 0.54395 0.40481 0.0
H59 H 0.37673 0.75636 0.57489 0.0
C60 C 0.05302 0.104 0.42413 0.0
N61 N 0.06055 0.05381 0.40573 0.0
N62 N 0.99745 0.13036 0.40629 0.0
C63 C 0.09989 0.12634 0.45946 0.0
C64 C 0.97306 0.09527 0.37575 0.0
N65 N 1.01098 0.04849 0.37564 0.0
C66 C 0.91709 0.11073 0.34333 0.0
H67 H 0.15762 0.13855 0.44789 0.0
H68 H 0.09611 0.08864 0.4875 0.0
H69 H 0.08544 0.16833 0.46946 0.0
H70 H 0.93268 0.10196 0.31086 0.0
H71 H 0.9108 0.15999 0.34093 0.0
H72 H 0.86371 0.0809 0.35359 0.0
C73 C 0.01891 0.11372 0.56113 0.0
N74 N 0.07225 0.13395 0.58749 0.0
N75 N 0.99772 0.05155 0.57059 0.0
C76 C 0.97931 0.1549 0.53112 0.0
C77 C 0.03731 0.03484 0.60489 0.0
N78 N 0.08256 0.08497 0.61542 0.0
C79 C 0.02447 0.97097 0.63144 0.0
H80 H 0.95578 0.12995 0.50507 0.0
H81 H 1.0146 0.1992 0.51743 0.0
H82 H 0.93356 0.16615 0.54951 0.0
H83 H 0.07421 0.95021 0.62958 0.0
H84 H 0.97775 0.93974 0.62015 0.0
H85 H 1.01333 0.97405 0.66583 0.0
C86 C 0.48239 0.43981 0.93778 0.0
N87 N 0.53269 0.42649 0.91076 0.0
N88 N 0.46975 0.4981 0.92517 0.0
C89 C 0.43762 0.39384 0.97212 0.0
C90 C 0.51349 0.51936 0.88951 0.0
N91 N 0.55149 0.47582 0.88051 0.0
C92 C 0.51514 0.58116 0.86149 0.0
H93 H 0.42276 0.4175 -0.00132 0.0
H94 H 0.46618 0.35553 0.98492 0.0
H95 H 0.38623 0.37356 0.95795 0.0
H96 H 0.49742 0.61519 0.88001 0.0
H97 H 0.47803 0.57476 0.83433 0.0
H98 H 0.57087 0.6003 0.84772 0.0
C99 C 0.52018 0.44794 0.08294 0.0
N100 N 0.54274 0.49987 0.10049 0.0
N101 N 0.45527 0.4173 0.10129 0.0
C102 C 0.56117 0.42893 0.0471 0.0
C103 C 0.44018 0.45196 0.1312 0.0
N104 N 0.49306 0.50264 0.13048 0.0
C105 C 0.3769 0.43294 0.16342 0.0
H106 H 0.61829 0.4278 0.05626 0.0
H107 H 0.56296 0.46379 0.01754 0.0
H108 H 0.53715 0.3825 0.04007 0.0
H109 H 0.3549 0.38255 0.16628 0.0
H110 H 0.33283 0.45889 0.15258 0.0
H111 H 0.39364 0.44371 0.19576 0.0
H112 H 0.25619 0.06506 0.03336 0.0
H113 H 0.31955 0.41869 0.07347 0.0
H114 H 0.08559 0.1751 0.02535 0.0
H115 H 0.48014 0.30099 0.09854 0.0
H116 H 0.23547 0.3323 0.05057 0.0
H117 H 0.34181 0.15352 0.0512 0.0
C118 C 0.23672 0.10794 0.03511 0.0
C119 C 0.16336 0.11253 0.02799 0.0
C120 C 0.28907 0.32521 0.06097 0.0
C121 C 0.26145 0.21411 0.04864 0.0
C122 C 0.3367 0.37432 0.07415 0.0
C123 C 0.40656 0.36658 0.08752 0.0
C124 C 0.31145 0.2678 0.06141 0.0
C125 C 0.42696 0.30867 0.08777 0.0
C126 C 0.28573 0.15842 0.04544 0.0
C127 C 0.14152 0.16937 0.03069 0.0
N128 N 0.37961 0.26138 0.07482 0.0
N129 N 0.19033 0.21789 0.0409 0.0
H130 H 0.19009 0.76136 0.94232 0.0
H131 H 0.47378 0.53269 0.00418 0.0
H132 H 0.30372 0.74917 0.06212 0.0
H133 H 0.35408 0.53869 0.88713 0.0
H134 H 0.40147 0.6033 0.02994 0.0
H135 H 0.24007 0.67288 0.92467 0.0
C136 C 0.22497 0.73986 0.96511 0.0
C137 C 0.2433 0.76347 0.00355 0.0
C138 C 0.39022 0.58866 -0.00116 0.0
C139 C 0.30126 0.66218 0.98339 0.0
C140 C 0.43099 0.54794 0.98445 0.0
C141 C 0.41952 0.53026 0.94363 0.0
C142 C 0.3383 0.61234 0.97184 0.0
C143 C 0.36432 0.55177 0.91876 0.0
C144 C 0.25371 0.68937 0.95495 0.0
C145 C 0.2893 0.73371 0.03167 0.0
N146 N 0.32627 0.59231 0.933 0.0
N147 N 0.31696 0.68499 0.02091 0.0
H148 H 0.95487 0.73837 0.02502 0.0
H149 H 0.52622 0.61438 0.06556 0.0
H150 H 0.78964 0.85057 -0.00733 0.0
H151 H 0.68792 0.4993 0.09641 0.0
H152 H 0.62251 0.70001 0.03417 0.0
H153 H 0.85856 0.64755 0.04475 0.0
C154 C 0.89846 0.74371 0.02127 0.0
C155 C 0.88028 0.80227 0.00756 0.0
C156 C 0.63721 0.656 0.04751 0.0
C157 C 0.77 0.69894 0.03073 0.0
C158 C 0.58235 0.60753 0.06553 0.0
C159 C 0.59971 0.55025 0.08306 0.0
C160 C 0.71012 0.6471 0.04745 0.0
C161 C 0.6728 0.54283 0.08246 0.0
C162 C 0.84349 0.69193 0.03283 0.0
C163 C 0.80626 0.80646 0.00342 0.0
N164 N 0.72559 0.59087 0.06503 0.0
N165 N 0.75393 0.75568 0.01537 0.0
H166 H 0.87124 0.20696 0.96202 0.0
H167 H 0.47739 0.30257 0.9212 0.0
H168 H 0.66881 0.07609 0.97546 0.0
H169 H 0.67762 0.43486 0.91368 0.0
H170 H 0.54765 0.21791 0.93558 0.0
H171 H 0.80306 0.29053 0.93754 0.0
C172 C 0.81269 0.19573 0.95933 0.0
C173 C 0.77565 0.1346 0.97138 0.0
C174 C 0.57637 0.26546 0.93072 0.0
C175 C 0.6971 0.22975 0.9438 0.0
C176 C 0.53616 0.31355 0.92281 0.0
C177 C 0.57196 0.37541 0.91726 0.0
C178 C 0.65291 0.27951 0.93276 0.0
C179 C 0.64833 0.38752 0.91822 0.0
C180 C 0.77365 0.24341 0.94564 0.0
C181 C 0.69951 0.1227 0.96745 0.0
N182 N 0.68628 0.34013 0.92614 0.0
N183 N 0.66287 0.16972 0.95428 0.0
H184 H 0.79747 0.72342 0.475 0.0
H185 H 0.8529 0.04887 0.56243 0.0
H186 H 0.62035 0.81452 0.50419 0.0
H187 H 0.03017 0.96202 0.52886 0.0
H188 H 0.76709 0.96977 0.53253 0.0
H189 H 0.88411 0.81583 0.48629 0.0
C190 C 0.77676 0.76301 0.48339 0.0
C191 C 0.70155 0.76089 0.48915 0.0
C192 C 0.82483 0.96832 0.53115 0.0
C193 C 0.80034 0.86666 0.50238 0.0
C194 C 0.87348 0.01356 0.548 0.0
C195 C 0.94795 0.01108 0.5482 0.0
C196 C 0.85117 0.9202 0.5148 0.0
C197 C 0.97269 0.96459 0.52947 0.0
C198 C 0.82624 0.81579 0.48983 0.0
C199 C 0.67785 0.81377 0.49976 0.0
N200 N 0.92434 0.92048 0.51392 0.0
N201 N 0.72704 0.86416 0.50644 0.0
H202 H 0.90016 0.48287 0.44649 0.0
H203 H 0.85753 0.12134 0.43175 0.0
H204 H 0.69514 0.35612 0.46818 0.0
H205 H 0.06123 0.24928 0.41 0.0
H206 H 0.79859 0.2045 0.45121 0.0
H207 H 0.96192 0.39596 0.44042 0.0
C208 C 0.86822 0.43649 0.45027 0.0
C209 C 0.79227 0.4267 0.45724 0.0
C210 C 0.85626 0.21448 0.44252 0.0
C211 C 0.86263 0.32673 0.45011 0.0
C212 C 0.88964 0.16721 0.43122 0.0
C213 C 0.96416 0.17879 0.41955 0.0
C214 C 0.89757 0.27411 0.44159 0.0
C215 C 1.00388 0.23859 0.41943 0.0
C216 C 0.90353 0.38685 0.44686 0.0
C217 C 0.75373 0.3656 0.46279 0.0
N218 N 0.97003 0.28416 0.43016 0.0
N219 N 0.78923 0.31792 0.45857 0.0
H220 H 0.47768 0.38189 0.50386 0.0
H221 H 0.05707 0.25521 0.57835 0.0
H222 H 0.3139 0.49799 0.50196 0.0
H223 H 0.21385 0.13563 0.57041 0.0
H224 H 0.15195 0.34542 0.55187 0.0
H225 H 0.38284 0.29075 0.52789 0.0
C226 C 0.42182 0.38819 0.50789 0.0
C227 C 0.40401 0.44783 0.50094 0.0
C228 C 0.16582 0.29948 0.55598 0.0
C229 C 0.29541 0.34398 0.52915 0.0
C230 C 0.11169 0.24825 0.57116 0.0
C231 C 0.12793 0.1883 0.57618 0.0
C232 C 0.23678 0.29057 0.54606 0.0
C233 C 0.19962 0.1814 0.56701 0.0
C234 C 0.36773 0.33622 0.52191 0.0
C235 C 0.33057 0.4531 0.50706 0.0
N236 N 0.25135 0.23179 0.55225 0.0
N237 N 0.27934 0.40212 0.52099 0.0
H238 H 0.24036 0.71711 0.4617 0.0
H239 H 0.20767 0.07297 0.41311 0.0
H240 H 0.38136 0.85619 0.51927 0.0
H241 H 1.01564 0.93066 0.42777 0.0
H242 H 0.2816 0.99417 0.4384 0.0
H243 H 0.16544 0.79537 0.43444 0.0
C244 C 0.25545 0.76418 0.46832 0.0
C245 C 0.31628 0.7805 0.49293 0.0
C246 C 0.22318 0.98035 0.4363 0.0
C247 C 0.23288 0.86955 0.46158 0.0
C248 C 0.18102 0.02532 0.42252 0.0
C249 C 0.10539 1.0083 0.41985 0.0
C250 C 0.18959 0.91784 0.44621 0.0
C251 C 0.07389 0.94532 0.42982 0.0
C252 C 0.21287 0.80848 0.45306 0.0
C253 C 0.33417 0.8419 0.50083 0.0
N254 N 0.11617 0.90211 0.44248 0.0
N255 N 0.29295 0.88439 0.48495 0.0
H256 H 0.09932 0.88932 0.1501 0.0
H257 H 0.12609 0.03194 0.32947 0.0
H258 H 0.89519 0.95681 0.14217 0.0
H259 H 0.89315 0.97669 0.34732 0.0
H260 H 0.12231 0.97891 0.26658 0.0
H261 H 0.09927 0.89435 0.22759 0.0
C262 C 0.05392 0.90425 0.16476 0.0
C263 C 0.99815 0.92436 0.13955 0.0
C264 C 0.07217 0.97647 0.28496 0.0
C265 C 0.99847 0.93095 0.22762 0.0
C266 C 0.0744 1.00688 0.32078 0.0
C267 C 1.00976 0.00898 0.34309 0.0
C268 C 1.0045 0.94904 0.27094 0.0
C269 C 0.94384 0.977 0.33016 0.0
C270 C 0.05425 0.90746 0.20886 0.0
C271 C 0.94013 0.94231 0.16031 0.0
N272 N 0.94254 0.94961 0.29409 0.0
N273 N 0.94223 0.94593 0.20317 0.0
H274 H 0.14133 0.94566 0.87818 0.0
H275 H 0.04673 0.16243 0.66657 0.0
H276 H 0.99259 0.0753 0.87523 0.0
H277 H 0.17087 0.01663 0.66272 0.0
H278 H 0.05241 0.14751 0.74518 0.0
H279 H 0.17223 0.98315 0.8015 0.0
C280 C 0.11514 0.98196 0.86143 0.0
C281 C 0.06352 1.00682 0.88301 0.0
C282 C 0.07959 0.11935 0.72726 0.0
C283 C 0.09965 0.05056 0.79562 0.0
C284 C 0.0773 0.12858 0.68236 0.0
C285 C 0.10683 0.08961 0.65851 0.0
C286 C 0.11142 0.07056 0.74838 0.0
C287 C 0.14591 0.04644 0.68033 0.0
C288 C 0.13316 1.00355 0.81776 0.0
C289 C 0.03191 0.05417 0.85982 0.0
N290 N 0.14569 0.03697 0.72428 0.0
N291 N 0.05032 0.07431 0.81741 0.0
H292 H 0.70364 0.55723 0.61157 0.0
H293 H 0.47968 0.40317 0.82872 0.0
H294 H 0.46986 0.53599 0.62694 0.0
H295 H 0.67175 0.54098 0.83438 0.0
H296 H 0.49637 0.41702 0.74991 0.0
H297 H 0.70997 0.52152 0.6899 0.0
C298 C 0.65385 0.5447 0.63142 0.0
C299 C 0.58616 0.54997 0.61324 0.0
C300 C 0.53598 0.44298 0.76854 0.0
C301 C 0.59289 0.50743 0.70116 0.0
C302 C 0.52691 0.43466 0.81324 0.0
C303 C 0.57407 0.47152 0.83738 0.0
C304 C 0.59311 0.48799 0.74813 0.0
C305 C 0.63421 0.51229 0.81632 0.0
C306 C 0.65757 0.52444 0.67575 0.0
C307 C 0.52309 0.53322 0.63996 0.0
N308 N 0.6417 0.52025 0.77245 0.0
N309 N 0.52793 0.51222 0.68258 0.0
H310 H 0.40842 0.63163 0.36248 0.0
H311 H 0.61518 0.53633 0.17263 0.0
H312 H 0.64275 0.66084 0.34809 0.0
H313 H 0.39274 0.5641 0.1601 0.0
H314 H 0.62728 0.59419 0.233 0.0
H315 H 0.39979 0.61995 0.28561 0.0
C316 C 0.45792 0.63782 0.34274 0.0
C317 C 0.52633 0.64618 0.3615 0.0
C318 C 0.57591 0.58866 0.21681 0.0
C319 C 0.51714 0.63187 0.27456 0.0
C320 C 0.5693 0.5559 0.18207 0.0
C321 C 0.50263 0.54465 0.16183 0.0
C322 C 0.51477 0.60904 0.23233 0.0
C323 C 0.44443 0.57027 0.17582 0.0
C324 C 0.45308 0.63079 0.29902 0.0
C325 C 0.58892 0.65339 0.33484 0.0
N326 N 0.45123 0.60014 0.21094 0.0
N327 N 0.58281 0.64502 0.29298 0.0
loop_
_geom_bond_atom_site_label_1
_geom_bond_atom_site_label_2
_geom_bond_distance
_geom_bond_site_symmetry_2
_ccdc_geom_bond_type
Co0 N5 2.057 . S
Co0 O17 2.021 . S
Co0 O20 2.062 1_455 S
Co0 O24 2.117 1_564 S
Co0 O25 2.020 1_565 S
C1 O21 1.259 1_455 S
C1 O24 1.258 . S
Co2 N11 2.057 . S
Co2 O18 2.117 . S
Co2 O19 2.020 1_545 S
Co2 O21 2.021 1_554 S
Co2 O26 2.063 1_654 S
C3 N5 1.316 . S
C3 N6 1.347 . S
C3 H8 0.931 . S
C4 N5 1.375 1_556 S
C4 C7 1.350 . S
C4 H9 0.930 . S
N5 Co0 2.057 . S
N5 C3 1.316 . S
N5 C4 1.375 1_554 S
N6 C3 1.347 . S
N6 C7 1.373 1_554 S
C7 C4 1.350 . S
C7 N6 1.373 1_556 S
C7 H28 0.931 . S
H8 C3 0.931 . S
H9 C4 0.930 . S
C10 O17 1.259 1_545 S
C10 O18 1.258 1_455 S
N11 Co2 2.057 . S
N11 C12 1.316 1_554 S
N11 C13 1.375 . S
C12 N11 1.316 1_556 S
C12 N14 1.347 1_556 S
C12 H23 0.931 . S
C13 N11 1.375 . S
C13 C15 1.350 . S
C13 H22 0.930 . S
N14 C12 1.347 1_554 S
N14 C15 1.373 . S
C15 C13 1.350 . S
C15 N14 1.373 . S
C15 H29 0.931 . S
C16 O19 1.256 . S
C16 O20 1.255 . S
O17 Co0 2.021 . S
O17 C10 1.259 1_565 S
O18 Co2 2.117 . S
O18 C10 1.258 1_655 S
O19 Co2 2.020 1_565 S
O19 C16 1.256 . S
O20 Co0 2.062 1_655 S
O20 C16 1.255 . S
O21 C1 1.259 1_655 S
O21 Co2 2.021 1_556 S
H22 C13 0.930 . S
H23 C12 0.931 . S
O24 Co0 2.117 1_546 S
O24 C1 1.258 . S
O25 Co0 2.020 1_545 S
O25 C27 1.256 . S
O26 Co2 2.063 1_456 S
O26 C27 1.253 1_556 S
C27 O25 1.256 . S
C27 O26 1.253 1_554 S
H28 C7 0.931 . S
H29 C15 0.931 . S
Co30 N35 2.057 . S
Co30 O47 2.021 . S
Co30 O50 2.062 . S
Co30 O54 2.117 . S
Co30 O55 2.020 . S
C31 O51 1.259 . S
C31 O54 1.258 . S
Co32 N41 2.057 . S
Co32 O48 2.117 . S
Co32 O49 2.020 . S
Co32 O51 2.021 . S
Co32 O56 2.062 . S
C33 N35 1.316 . S
C33 N36 1.347 . S
C33 H38 0.931 . S
C34 N35 1.375 . S
C34 C37 1.350 . S
C34 H39 0.930 . S
N35 Co30 2.057 . S
N35 C33 1.316 . S
N35 C34 1.375 . S
N36 C33 1.347 . S
N36 C37 1.373 . S
C37 C34 1.350 . S
C37 N36 1.373 . S
C37 H58 0.931 . S
H38 C33 0.931 . S
H39 C34 0.930 . S
C40 O47 1.259 . S
C40 O48 1.258 . S
N41 Co32 2.057 . S
N41 C42 1.316 . S
N41 C43 1.375 . S
C42 N41 1.316 . S
C42 N44 1.347 . S
C42 H53 0.931 . S
C43 N41 1.375 . S
C43 C45 1.350 . S
C43 H52 0.930 . S
N44 C42 1.347 . S
N44 C45 1.373 . S
C45 C43 1.350 . S
C45 N44 1.373 . S
C45 H59 0.931 . S
C46 O49 1.256 . S
C46 O50 1.255 . S
O47 Co30 2.021 . S
O47 C40 1.259 . S
O48 Co32 2.117 . S
O48 C40 1.258 . S
O49 Co32 2.020 . S
O49 C46 1.256 . S
O50 Co30 2.062 . S
O50 C46 1.255 . S
O51 C31 1.259 . S
O51 Co32 2.021 . S
H52 C43 0.930 . S
H53 C42 0.931 . S
O54 Co30 2.117 . S
O54 C31 1.258 . S
O55 Co30 2.020 . S
O55 C57 1.256 . S
O56 Co32 2.062 . S
O56 C57 1.255 . S
C57 O55 1.256 . S
C57 O56 1.255 . S
H58 C37 0.931 . S
H59 C45 0.931 . S
C60 N61 1.317 1_545 S
C60 N62 1.348 1_455 S
C60 C63 1.485 1_545 S
N61 C60 1.317 1_565 S
N61 N65 1.372 . S
N62 C60 1.348 1_655 S
N62 C64 1.346 . S
C63 C60 1.485 1_565 S
C63 H67 0.960 1_455 S
C63 H68 0.961 1_565 S
C63 H69 0.960 . S
C64 N62 1.346 . S
C64 N65 1.302 1_645 S
C64 C66 1.486 . S
N65 N61 1.372 . S
N65 C64 1.302 1_465 S
C66 C64 1.486 . S
C66 H70 0.960 . S
C66 H71 0.960 . S
C66 H72 0.959 . S
H67 C63 0.960 1_655 S
H68 C63 0.961 1_545 S
H69 C63 0.960 . S
H70 C66 0.960 . S
H71 C66 0.960 . S
H72 C66 0.959 . S
C73 N74 1.317 . S
C73 N75 1.348 1_445 S
C73 C76 1.485 . S
N74 C73 1.317 . S
N74 N78 1.370 . S
N75 C73 1.348 1_665 S
N75 C77 1.346 . S
C76 C73 1.485 . S
C76 H80 0.960 1_455 S
C76 H81 0.961 . S
C76 H82 0.960 . S
C77 N75 1.346 . S
C77 N78 1.307 1_665 S
C77 C79 1.486 . S
N78 N74 1.370 . S
N78 C77 1.307 1_445 S
C79 C77 1.486 . S
C79 H83 0.960 . S
C79 H84 0.960 . S
C79 H85 0.959 . S
H80 C76 0.960 1_655 S
H81 C76 0.961 . S
H82 C76 0.960 . S
H83 C79 0.960 . S
H84 C79 0.960 . S
H85 C79 0.959 . S
C86 N87 1.317 . S
C86 N88 1.348 . S
C86 C89 1.485 1_556 S
N87 C86 1.317 . S
N87 N91 1.370 . S
N88 C86 1.348 . S
N88 C90 1.346 . S
C89 C86 1.485 1_554 S
C89 H93 0.960 . S
C89 H94 0.961 . S
C89 H95 0.960 . S
C90 N88 1.346 . S
C90 N91 1.307 . S
C90 C92 1.486 . S
N91 N87 1.370 . S
N91 C90 1.307 . S
C92 C90 1.486 . S
C92 H96 0.960 . S
C92 H97 0.960 . S
C92 H98 0.959 . S
H93 C89 0.960 . S
H94 C89 0.961 . S
H95 C89 0.960 . S
H96 C92 0.960 . S
H97 C92 0.960 . S
H98 C92 0.959 . S
C99 N100 1.317 . S
C99 N101 1.348 . S
C99 C102 1.485 1_554 S
N100 C99 1.317 . S
N100 N104 1.370 . S
N101 C99 1.348 . S
N101 C103 1.346 . S
C102 C99 1.485 1_556 S
C102 H106 0.960 . S
C102 H107 0.961 . S
C102 H108 0.960 . S
C103 N101 1.346 . S
C103 N104 1.307 . S
C103 C105 1.486 . S
N104 N100 1.370 . S
N104 C103 1.307 . S
C105 C103 1.486 . S
C105 H109 0.960 . S
C105 H110 0.960 . S
C105 H111 0.959 . S
H106 C102 0.960 . S
H107 C102 0.961 . S
H108 C102 0.960 . S
H109 C105 0.960 . S
H110 C105 0.960 . S
H111 C105 0.959 . S
H112 C118 0.930 . S
H113 C122 0.930 . S
H114 C127 0.929 . S
H115 C125 0.929 . S
H116 C120 0.929 . S
H117 C126 0.929 . S
C118 H112 0.930 . S
C118 C119 1.367 . S
C118 C126 1.378 . S
C119 C118 1.367 . S
C119 C127 1.433 1_554 S
C120 H116 0.929 . S
C120 C122 1.378 . S
C120 C124 1.350 1_556 S
C121 C124 1.463 . S
C121 C126 1.350 . S
C121 N129 1.427 1_554 S
C122 H113 0.930 . S
C122 C120 1.378 . S
C122 C123 1.367 1_556 S
C123 C122 1.367 1_554 S
C123 C125 1.433 . S
C124 C120 1.350 1_554 S
C124 C121 1.463 . S
C124 N128 1.427 . S
C125 H115 0.929 . S
C125 C123 1.433 . S
C125 N128 1.384 . S
C126 H117 0.929 . S
C126 C118 1.378 . S
C126 C121 1.350 . S
C127 H114 0.929 . S
C127 C119 1.433 1_556 S
C127 N129 1.384 . S
N128 C124 1.427 . S
N128 C125 1.384 . S
N129 C121 1.427 1_556 S
N129 C127 1.384 . S
H130 C136 0.930 . S
H131 C140 0.930 . S
H132 C145 0.929 . S
H133 C143 0.929 . S
H134 C138 0.929 . S
H135 C144 0.929 . S
C136 H130 0.930 . S
C136 C137 1.367 1_556 S
C136 C144 1.378 . S
C137 C136 1.367 1_554 S
C137 C145 1.433 . S
C138 H134 0.929 . S
C138 C140 1.378 . S
C138 C142 1.350 1_554 S
C139 C142 1.463 1_554 S
C139 C144 1.350 1_554 S
C139 N147 1.427 . S
C140 H131 0.930 . S
C140 C138 1.378 . S
C140 C141 1.367 1_554 S
C141 C140 1.367 1_556 S
C141 C143 1.433 . S
C142 C138 1.350 1_556 S
C142 C139 1.463 1_556 S
C142 N146 1.427 . S
C143 H133 0.929 . S
C143 C141 1.433 . S
C143 N146 1.384 . S
C144 H135 0.929 . S
C144 C136 1.378 . S
C144 C139 1.350 1_556 S
C145 H132 0.929 . S
C145 C137 1.433 . S
C145 N147 1.384 . S
N146 C142 1.427 . S
N146 C143 1.384 . S
N147 C139 1.427 . S
N147 C145 1.384 . S
H148 C154 0.930 . S
H149 C158 0.930 . S
H150 C163 0.929 . S
H151 C161 0.929 . S
H152 C156 0.929 . S
H153 C162 0.925 1_556 S
C154 H148 0.930 . S
C154 C155 1.367 1_556 S
C154 C162 1.378 1_556 S
C155 C154 1.367 1_554 S
C155 C163 1.433 . S
C156 H152 0.929 . S
C156 C158 1.378 . S
C156 C160 1.350 . S
C157 C160 1.463 . S
C157 C162 1.354 . S
C157 N165 1.427 . S
C158 H149 0.930 . S
C158 C156 1.378 . S
C158 C159 1.367 . S
C159 C158 1.367 . S
C159 C161 1.433 . S
C160 C156 1.350 . S
C160 C157 1.463 . S
C160 N164 1.427 . S
C161 H151 0.929 . S
C161 C159 1.433 . S
C161 N164 1.384 . S
C162 H153 0.925 1_554 S
C162 C154 1.378 1_554 S
C162 C157 1.354 . S
C163 H150 0.929 . S
C163 C155 1.433 . S
C163 N165 1.384 . S
N164 C160 1.427 . S
N164 C161 1.384 . S
N165 C157 1.427 . S
N165 C163 1.384 . S
H166 C172 0.930 . S
H167 C176 0.930 . S
H168 C181 0.929 . S
H169 C179 0.924 1_554 S
H170 C174 0.929 . S
H171 C180 0.929 . S
C172 H166 0.930 . S
C172 C173 1.367 1_554 S
C172 C180 1.378 . S
C173 C172 1.367 1_556 S
C173 C181 1.433 . S
C174 H170 0.929 . S
C174 C176 1.378 . S
C174 C178 1.350 . S
C175 C178 1.463 . S
C175 C180 1.350 1_556 S
C175 N183 1.427 . S
C176 H167 0.930 . S
C176 C174 1.378 . S
C176 C177 1.367 . S
C177 C176 1.367 . S
C177 C179 1.439 . S
C178 C174 1.350 . S
C178 C175 1.463 . S
C178 N182 1.427 1_556 S
C179 H169 0.924 1_556 S
C179 C177 1.439 . S
C179 N182 1.383 1_556 S
C180 H171 0.929 . S
C180 C172 1.378 . S
C180 C175 1.350 1_554 S
C181 H168 0.929 . S
C181 C173 1.433 . S
C181 N183 1.384 . S
N182 C178 1.427 1_554 S
N182 C179 1.383 1_554 S
N183 C175 1.427 . S
N183 C181 1.384 . S
H184 C190 0.930 . S
H185 C194 0.930 . S
H186 C199 0.929 . S
H187 C197 0.929 . S
H188 C192 0.929 . S
H189 C198 0.929 . S
C190 H184 0.930 . S
C190 C191 1.367 . S
C190 C198 1.378 . S
C191 C190 1.367 . S
C191 C199 1.433 . S
C192 H188 0.929 . S
C192 C194 1.378 . S
C192 C196 1.350 . S
C193 C196 1.463 . S
C193 C198 1.350 . S
C193 N201 1.427 . S
C194 H185 0.930 . S
C194 C192 1.378 . S
C194 C195 1.367 . S
C195 C194 1.367 . S
C195 C197 1.433 . S
C196 C192 1.350 . S
C196 C193 1.463 . S
C196 N200 1.427 . S
C197 H187 0.929 . S
C197 C195 1.433 . S
C197 N200 1.384 . S
C198 H189 0.929 . S
C198 C190 1.378 . S
C198 C193 1.350 . S
C199 H186 0.929 . S
C199 C191 1.433 . S
C199 N201 1.384 . S
N200 C196 1.427 . S
N200 C197 1.384 . S
N201 C193 1.427 . S
N201 C199 1.384 . S
H202 C208 0.930 . S
H203 C212 0.930 . S
H204 C217 0.929 . S
H205 C215 0.929 . S
H206 C210 0.929 . S
H207 C216 0.929 . S
C208 H202 0.930 . S
C208 C209 1.367 . S
C208 C216 1.378 . S
C209 C208 1.367 . S
C209 C217 1.433 . S
C210 H206 0.929 . S
C210 C212 1.378 . S
C210 C214 1.350 . S
C211 C214 1.463 . S
C211 C216 1.350 . S
C211 N219 1.427 . S
C212 H203 0.930 . S
C212 C210 1.378 . S
C212 C213 1.367 . S
C213 C212 1.367 . S
C213 C215 1.433 . S
C214 C210 1.350 . S
C214 C211 1.463 . S
C214 N218 1.427 . S
C215 H205 0.929 . S
C215 C213 1.433 . S
C215 N218 1.384 . S
C216 H207 0.929 . S
C216 C208 1.378 . S
C216 C211 1.350 . S
C217 H204 0.929 . S
C217 C209 1.433 . S
C217 N219 1.384 . S
N218 C214 1.427 . S
N218 C215 1.384 . S
N219 C211 1.427 . S
N219 C217 1.384 . S
H220 C226 0.930 . S
H221 C230 0.930 . S
H222 C235 0.929 . S
H223 C233 0.929 . S
H224 C228 0.929 . S
H225 C234 0.929 . S
C226 H220 0.930 . S
C226 C227 1.367 . S
C226 C234 1.378 . S
C227 C226 1.367 . S
C227 C235 1.433 . S
C228 H224 0.929 . S
C228 C230 1.378 . S
C228 C232 1.350 . S
C229 C232 1.463 . S
C229 C234 1.350 . S
C229 N237 1.427 . S
C230 H221 0.930 . S
C230 C228 1.378 . S
C230 C231 1.367 . S
C231 C230 1.367 . S
C231 C233 1.433 . S
C232 C228 1.350 . S
C232 C229 1.463 . S
C232 N236 1.427 . S
C233 H223 0.929 . S
C233 C231 1.433 . S
C233 N236 1.384 . S
C234 H225 0.929 . S
C234 C226 1.378 . S
C234 C229 1.350 . S
C235 H222 0.929 . S
C235 C227 1.433 . S
C235 N237 1.384 . S
N236 C232 1.427 . S
N236 C233 1.384 . S
N237 C229 1.427 . S
N237 C235 1.384 . S
H238 C244 0.930 . S
H239 C248 0.930 . S
H240 C253 0.929 . S
H241 C251 0.929 . S
H242 C246 0.929 . S
H243 C252 0.929 . S
C244 H238 0.930 . S
C244 C245 1.367 . S
C244 C252 1.378 . S
C245 C244 1.367 . S
C245 C253 1.433 . S
C246 H242 0.929 . S
C246 C248 1.378 . S
C246 C250 1.350 . S
C247 C250 1.463 . S
C247 C252 1.350 . S
C247 N255 1.427 . S
C248 H239 0.930 . S
C248 C246 1.378 . S
C248 C249 1.367 . S
C249 C248 1.367 . S
C249 C251 1.433 . S
C250 C246 1.350 . S
C250 C247 1.463 . S
C250 N254 1.427 . S
C251 H241 0.929 . S
C251 C249 1.433 . S
C251 N254 1.384 . S
C252 H243 0.929 . S
C252 C244 1.378 . S
C252 C247 1.350 . S
C253 H240 0.929 . S
C253 C245 1.433 . S
C253 N255 1.384 . S
N254 C250 1.427 . S
N254 C251 1.384 . S
N255 C247 1.427 . S
N255 C253 1.384 . S
H256 C262 0.930 . S
H257 C266 0.932 . S
H258 C271 0.929 . S
H259 C269 0.929 . S
H260 C264 0.929 1_655 S
H261 C270 0.929 . S
C262 H256 0.930 . S
C262 C263 1.352 1_565 S
C262 C270 1.378 . S
C263 C262 1.352 1_545 S
C263 C271 1.451 . S
C264 H260 0.929 1_455 S
C264 C266 1.378 1_455 S
C264 C268 1.350 1_545 S
C265 C268 1.463 . S
C265 C270 1.350 . S
C265 N273 1.427 1_565 S
C266 H257 0.932 . S
C266 C264 1.378 1_655 S
C266 C267 1.366 1_645 S
C267 C266 1.366 1_465 S
C267 C269 1.433 . S
C268 C264 1.350 1_565 S
C268 C265 1.463 . S
C268 N272 1.427 . S
C269 H259 0.929 . S
C269 C267 1.433 . S
C269 N272 1.384 . S
C270 H261 0.929 . S
C270 C262 1.378 . S
C270 C265 1.350 . S
C271 H258 0.929 . S
C271 C263 1.451 . S
C271 N273 1.384 . S
N272 C268 1.427 . S
N272 C269 1.384 . S
N273 C265 1.427 1_545 S
N273 C271 1.384 . S
H274 C280 0.930 . S
H275 C284 0.930 . S
H276 C289 0.929 . S
H277 C287 0.929 . S
H278 C282 0.929 . S
H279 C288 0.929 . S
C280 H274 0.930 . S
C280 C281 1.367 1_565 S
C280 C288 1.378 . S
C281 C280 1.367 1_545 S
C281 C289 1.433 . S
C282 H278 0.929 . S
C282 C284 1.378 . S
C282 C286 1.350 . S
C283 C286 1.463 . S
C283 C288 1.350 1_545 S
C283 N291 1.427 . S
C284 H275 0.930 . S
C284 C282 1.378 . S
C284 C285 1.367 . S
C285 C284 1.367 . S
C285 C287 1.433 1_545 S
C286 C282 1.350 . S
C286 C283 1.463 . S
C286 N290 1.427 1_545 S
C287 H277 0.929 . S
C287 C285 1.433 1_565 S
C287 N290 1.384 . S
C288 H279 0.929 . S
C288 C280 1.378 . S
C288 C283 1.350 1_565 S
C289 H276 0.929 . S
C289 C281 1.433 . S
C289 N291 1.384 . S
N290 C286 1.427 1_565 S
N290 C287 1.384 . S
N291 C283 1.427 . S
N291 C289 1.384 . S
H292 C298 0.930 . S
H293 C302 0.930 . S
H294 C307 0.929 . S
H295 C305 0.929 . S
H296 C300 0.929 . S
H297 C306 0.929 . S
C298 H292 0.930 . S
C298 C299 1.367 . S
C298 C306 1.378 . S
C299 C298 1.367 . S
C299 C307 1.433 . S
C300 H296 0.929 . S
C300 C302 1.378 . S
C300 C304 1.350 . S
C301 C304 1.463 . S
C301 C306 1.350 . S
C301 N309 1.427 . S
C302 H293 0.930 . S
C302 C300 1.378 . S
C302 C303 1.367 . S
C303 C302 1.367 . S
C303 C305 1.433 . S
C304 C300 1.350 . S
C304 C301 1.463 . S
C304 N308 1.427 . S
C305 H295 0.929 . S
C305 C303 1.433 . S
C305 N308 1.384 . S
C306 H297 0.929 . S
C306 C298 1.378 . S
C306 C301 1.350 . S
C307 H294 0.929 . S
C307 C299 1.433 . S
C307 N309 1.384 . S
N308 C304 1.427 . S
N308 C305 1.384 . S
N309 C301 1.427 . S
N309 C307 1.384 . S
H310 C316 0.930 . S
H311 C320 0.930 . S
H312 C325 0.929 . S
H313 C323 0.929 . S
H314 C318 0.929 . S
H315 C324 0.929 . S
C316 H310 0.930 . S
C316 C317 1.367 . S
C316 C324 1.378 . S
C317 C316 1.367 . S
C317 C325 1.433 . S
C318 H314 0.929 . S
C318 C320 1.378 . S
C318 C322 1.350 . S
C319 C322 1.463 . S
C319 C324 1.350 . S
C319 N327 1.427 . S
C320 H311 0.930 . S
C320 C318 1.378 . S
C320 C321 1.367 . S
C321 C320 1.367 . S
C321 C323 1.433 . S
C322 C318 1.350 . S
C322 C319 1.463 . S
C322 N326 1.427 . S
C323 H313 0.929 . S
C323 C321 1.433 . S
C323 N326 1.384 . S
C324 H315 0.929 . S
C324 C316 1.378 . S
C324 C319 1.350 . S
C325 H312 0.929 . S
C325 C317 1.433 . S
C325 N327 1.384 . S
N326 C322 1.427 . S
N326 C323 1.384 . S
N327 C319 1.427 . S
N327 C325 1.384 . S
C123 N101 1.395 . S
C119 C27 1.402 . S
C137 N6 1.331 . S
C141 N88 1.392 . S
C155 C16 1.484 . S
C159 N100 1.482 . S
C173 N14 1.424 1_556 S
C177 N87 1.454 . S
C191 C57 1.406 . S
C195 N75 1.389 . S
C209 N36 1.329 . S
C213 N62 1.393 . S
C231 N74 1.482 . S
C227 C46 1.484 . S
C249 N61 1.451 . S
C245 N44 1.425 . S
C263 C10 1.470 . S
C267 N65 1.448 . S
C281 C1 1.556 . S
C285 N78 1.541 . S
C303 N91 1.450 . S
C299 C40 1.470 . S
C317 C31 1.554 . S
C321 N104 1.538 . S
