# Generated by pormake.
# Topology anh, (6,3)-cn, num edge types: 1
# Building blocks:
#     Node 0, Type 0, BuildingBlock: GEDQOX_clean_sbu_0, # of connection points: 6
#     Node 1, Type 0, BuildingBlock: GEDQOX_clean_sbu_0, # of connection points: 6
#     Node 2, Type 0, BuildingBlock: GEDQOX_clean_sbu_0, # of connection points: 6
#     Node 3, Type 1, BuildingBlock: ESEHIV_clean_linker_0, # of connection points: 3
#     Node 4, Type 1, BuildingBlock: ESEHIV_clean_linker_0, # of connection points: 3
#     Node 5, Type 1, BuildingBlock: ESEHIV_clean_linker_0, # of connection points: 3
#     Node 6, Type 1, BuildingBlock: ESEHIV_clean_linker_0, # of connection points: 3
#     Node 7, Type 1, BuildingBlock: ESEHIV_clean_linker_0, # of connection points: 3
#     Node 8, Type 1, BuildingBlock: ESEHIV_clean_linker_0, # of connection points: 3
#     Edge 9, Type (0, 1), BuildingBlock: OJICUG_clean_linker_0, # of connection points: 2
#     Edge 10, Type (0, 1), BuildingBlock: OJICUG_clean_linker_0, # of connection points: 2
#     Edge 11, Type (0, 1), BuildingBlock: OJICUG_clean_linker_0, # of connection points: 2
#     Edge 12, Type (0, 1), BuildingBlock: OJICUG_clean_linker_0, # of connection points: 2
#     Edge 13, Type (0, 1), BuildingBlock: OJICUG_clean_linker_0, # of connection points: 2
#     Edge 14, Type (0, 1), BuildingBlock: OJICUG_clean_linker_0, # of connection points: 2
#     Edge 15, Type (0, 1), BuildingBlock: OJICUG_clean_linker_0, # of connection points: 2
#     Edge 16, Type (0, 1), BuildingBlock: OJICUG_clean_linker_0, # of connection points: 2
#     Edge 17, Type (0, 1), BuildingBlock: OJICUG_clean_linker_0, # of connection points: 2
#     Edge 18, Type (0, 1), BuildingBlock: OJICUG_clean_linker_0, # of connection points: 2
#     Edge 19, Type (0, 1), BuildingBlock: OJICUG_clean_linker_0, # of connection points: 2
#     Edge 20, Type (0, 1), BuildingBlock: OJICUG_clean_linker_0, # of connection points: 2
#     Edge 21, Type (0, 1), BuildingBlock: OJICUG_clean_linker_0, # of connection points: 2
#     Edge 22, Type (0, 1), BuildingBlock: OJICUG_clean_linker_0, # of connection points: 2
#     Edge 23, Type (0, 1), BuildingBlock: OJICUG_clean_linker_0, # of connection points: 2
#     Edge 24, Type (0, 1), BuildingBlock: OJICUG_clean_linker_0, # of connection points: 2
#     Edge 25, Type (0, 1), BuildingBlock: OJICUG_clean_linker_0, # of connection points: 2
#     Edge 26, Type (0, 1), BuildingBlock: OJICUG_clean_linker_0, # of connection points: 2
# Relax obj value: 0.280
# Max RMSD: 0.261
# Mean RMSD: 0.182
data_MOF--net-anh--node1-GEDQOX_clean_sbu_0--node2-ESEHIV_clean_linker_0--edge1-OJICUG_clean_linker_0
_symmetry_space_group_name_H-M    P1
_symmetry_Int_Tables_number       1
_symmetry_cell_setting            triclinic
loop_
_symmetry_equiv_pos_as_xyz
'x, y, z'
_cell_length_a     19.659494
_cell_length_b     19.271893
_cell_length_c     37.882854
_cell_angle_alpha  91.382971
_cell_angle_beta   92.076168
_cell_angle_gamma 94.568321
loop_
_atom_site_label
_atom_site_type_symbol
_atom_site_fract_x
_atom_site_fract_y
_atom_site_fract_z
_atom_type_partial_charge
Nd0 Nd 1.1367 0.63067 0.12606 0.0
Nd1 Nd 1.12437 0.47437 0.13088 0.0
C2 C 0.1741 0.76167 0.11298 0.0
C3 C 0.2284 0.81027 0.12966 0.0
C4 C 0.2787 0.84316 0.10901 0.0
C5 C 0.33473 0.88275 0.12511 0.0
C6 C 0.34105 0.89041 0.16213 0.0
C7 C 0.28976 0.85867 0.18262 0.0
C8 C 0.23425 0.81888 0.16662 0.0
C9 C 1.12144 0.5852 0.19356 0.0
C10 C 0.27969 0.54531 0.12981 0.0
C11 C 1.09372 0.34323 0.14733 0.0
C12 C 1.03627 0.30043 0.16219 0.0
C13 C 1.03667 0.28691 0.19849 0.0
C14 C 0.98256 0.24696 0.21281 0.0
C15 C 0.92701 0.21913 0.19113 0.0
C16 C 0.92715 0.23154 0.15471 0.0
C17 C 0.98123 0.27168 0.14038 0.0
C18 C 0.147 0.52386 0.06491 0.0
C19 C 0.98336 0.55714 0.12122 0.0
O20 O 0.19521 0.70944 0.09484 0.0
O21 O 1.12251 0.743 0.13249 0.0
O22 O 1.09548 0.64003 0.18157 0.0
O23 O 0.15807 0.55898 0.17098 0.0
O24 O 0.25062 0.60408 0.12406 0.0
O25 O 0.24212 0.48721 0.13621 0.0
O26 O 1.12742 0.38907 0.1688 0.0
O27 O 1.08464 0.3666 0.11547 0.0
O28 O 0.17442 0.46974 0.07709 0.0
O29 O 1.10609 0.54663 0.08627 0.0
O30 O 1.01166 0.50405 0.13596 0.0
O31 O 1.02272 0.60963 0.10909 0.0
H32 H 0.27555 0.83669 0.0805 0.0
H33 H 0.37334 0.90685 0.10865 0.0
H34 H 0.29373 0.86242 0.21121 0.0
H35 H 0.19705 0.7932 0.18336 0.0
H36 H 1.07883 0.30734 0.21593 0.0
H37 H 0.98448 0.23741 0.24088 0.0
H38 H 0.88483 0.21128 0.13736 0.0
H39 H 0.9796 0.28047 0.11224 0.0
Nd40 Nd 0.57132 0.99173 0.52179 0.0
Nd41 Nd 0.71942 1.0045 0.50924 0.0
C42 C 0.44547 0.95367 0.53913 0.0
C43 C 0.39514 0.90282 0.52102 0.0
C44 C 0.36201 0.84898 0.53984 0.0
C45 C 0.32267 0.79452 0.52182 0.0
C46 C 0.31625 0.79306 0.48469 0.0
C47 C 0.34701 0.84872 0.46615 0.0
C48 C 0.3863 0.9027 0.48404 0.0
C49 C 0.59935 1.00993 0.45208 0.0
C50 C 0.65272 0.84803 0.51274 0.0
C51 C 0.84461 0.03617 0.48771 0.0
C52 C 0.88366 0.09693 0.47397 0.0
C53 C 0.85287 0.15916 0.46876 0.0
C54 C 0.89057 0.21726 0.45622 0.0
C55 C 0.95957 0.21373 0.44836 0.0
C56 C 0.99004 0.1509 0.45328 0.0
C57 C 0.95233 0.09296 0.46613 0.0
C58 C 0.68828 0.98409 0.57857 0.0
C59 C 0.63964 0.14551 0.52299 0.0
O60 O 0.49877 0.92734 0.55356 0.0
O61 O 0.4617 1.01057 0.52214 0.0
O62 O 0.54994 0.03697 0.46764 0.0
O63 O 0.6299 0.97106 0.47254 0.0
O64 O 0.59805 0.8772 0.52318 0.0
O65 O 0.70672 0.886 0.50244 0.0
O66 O 0.7947 1.008 0.46706 0.0
O67 O 0.82782 0.04131 0.52066 0.0
O68 O 0.73561 0.95334 0.5629 0.0
O69 O 0.66076 1.02537 0.55831 0.0
O70 O 0.68704 0.11773 0.50456 0.0
O71 O 0.59448 0.10506 0.53941 0.0
H72 H 0.36877 0.84767 0.56832 0.0
H73 H 0.29976 0.75218 0.5368 0.0
H74 H 0.34194 0.84985 0.4376 0.0
H75 H 0.41168 0.94307 0.46869 0.0
H76 H 0.79971 0.16267 0.4743 0.0
H77 H 0.86547 0.26465 0.4522 0.0
H78 H 1.04324 0.14689 0.44766 0.0
H79 H 0.97678 0.04514 0.47002 0.0
Nd80 Nd 0.5647 0.51472 0.80968 0.0
Nd81 Nd 0.70955 0.51495 0.83562 0.0
C82 C 0.45613 0.55648 0.77723 0.0
C83 C 0.42728 0.62209 0.78693 0.0
C84 C 0.40138 0.6659 0.76153 0.0
C85 C 0.37967 0.7309 0.77186 0.0
C86 C 0.38398 0.75309 0.80772 0.0
C87 C 0.41315 0.70937 0.83248 0.0
C88 C 0.4345 0.64542 0.82222 0.0
C89 C 0.58083 0.51015 0.88205 0.0
C90 C 0.65507 0.6659 0.82783 0.0
C91 C 0.82392 0.48461 0.8678 0.0
C92 C 0.87934 0.4434 0.85699 0.0
C93 C 0.93044 0.42973 0.88178 0.0
C94 C 0.99329 0.41119 0.87038 0.0
C95 C 1.00611 0.40825 0.83396 0.0
C96 C 0.95074 0.41019 0.80954 0.0
C97 C 0.88757 0.42815 0.82103 0.0
C98 C 0.69489 0.52127 0.76356 0.0
C99 C 0.61867 0.36408 0.81657 0.0
O100 O 0.51669 0.56487 0.76405 0.0
O101 O 0.45213 0.50826 0.80114 0.0
O102 O 0.53046 0.47649 0.86418 0.0
O103 O 0.61738 0.54729 0.86217 0.0
O104 O 0.60329 0.63141 0.81031 0.0
O105 O 0.70137 0.63244 0.84506 0.0
O106 O 0.76523 0.45042 0.87296 0.0
O107 O 0.81816 0.54148 0.85019 0.0
O108 O 0.74603 0.55245 0.78164 0.0
O109 O 0.65785 0.4837 0.783 0.0
O110 O 0.66898 0.39789 0.83578 0.0
O111 O 0.57392 0.39865 0.79876 0.0
H112 H 0.39773 0.64981 0.73389 0.0
H113 H 0.35769 0.76276 0.75198 0.0
H114 H 0.41726 0.72237 0.86045 0.0
H115 H 0.45686 0.61399 0.84224 0.0
H116 H 0.92431 0.44016 0.90967 0.0
H117 H 1.03432 0.40952 0.89013 0.0
H118 H 0.95872 0.40713 0.78141 0.0
H119 H 0.84766 0.4372 0.80158 0.0
H120 H 0.52979 0.97976 0.29038 0.0
H121 H 0.7338 0.07545 0.30472 0.0
H122 H 0.64011 0.04862 0.20002 0.0
C123 C 0.57556 1.00383 0.27916 0.0
C124 C 0.57858 1.01056 0.24244 0.0
C125 C 0.63125 1.02709 0.30167 0.0
C126 C 0.69094 0.05709 0.28723 0.0
C127 C 0.69468 0.06549 0.25052 0.0
C128 C 0.63846 0.04117 0.22825 0.0
H129 H 0.67643 0.62198 0.604 0.0
H130 H 0.65994 0.39923 0.61011 0.0
H131 H 0.64901 0.49466 0.5086 0.0
C132 C 0.67129 0.57094 0.59102 0.0
C133 C 0.66392 0.56554 0.55403 0.0
C134 C 0.66911 0.51121 0.6114 0.0
C135 C 0.6606 0.44564 0.59443 0.0
C136 C 0.65364 0.43882 0.55751 0.0
C137 C 0.65558 0.49919 0.53711 0.0
H138 H 0.18666 0.5278 0.91586 0.0
H139 H 0.22741 0.74695 0.93756 0.0
H140 H 0.22413 0.66458 0.83031 0.0
C141 C 0.20045 0.57931 0.90621 0.0
C142 C 0.20388 0.5895 0.86986 0.0
C143 C 0.20956 0.63525 0.93065 0.0
C144 C 0.22068 0.70356 0.91869 0.0
C145 C 0.22484 0.71516 0.88224 0.0
C146 C 0.21801 0.6573 0.8583 0.0
H147 H 1.07678 0.42668 0.33872 0.0
H148 H 0.19125 0.62497 0.35326 0.0
H149 H 0.14484 0.50067 0.44341 0.0
C150 C 1.10436 0.46555 0.35613 0.0
C151 C 1.10688 0.45631 0.39285 0.0
C152 C 1.13421 0.52657 0.3419 0.0
C153 C 0.1684 0.5777 0.36439 0.0
C154 C 0.17299 0.56861 0.40102 0.0
C155 C 1.14138 0.50812 0.41515 0.0
H156 H 0.63941 0.11002 0.72956 0.0
H157 H 0.68991 0.89829 0.74066 0.0
H158 H 0.63951 1.01825 0.83193 0.0
C159 C 0.64763 0.0659 0.7459 0.0
C160 C 0.63964 0.07275 0.7825 0.0
C161 C 0.66605 1.00358 0.73026 0.0
C162 C 0.67549 0.94686 0.75204 0.0
C163 C 0.6648 0.95098 0.78845 0.0
C164 C 0.64756 1.0145 0.80383 0.0
H165 H 0.50669 0.52455 0.04272 0.0
H166 H 0.72468 0.5312 0.03574 0.0
H167 H 0.63532 0.5502 0.13754 0.0
C168 C 0.55714 0.52793 0.05552 0.0
C169 C 0.5632 0.53629 0.09244 0.0
C170 C 0.61477 0.5264 0.03483 0.0
C171 C 0.67998 0.53312 0.05158 0.0
C172 C 0.6889 0.54175 0.08847 0.0
C173 C 0.62971 0.54288 0.10913 0.0
C174 C 0.39736 0.60579 0.12068 0.0
C175 C 0.356 0.54415 0.12656 0.0
H176 H 0.49572 0.65176 0.10646 0.0
C177 C 0.38783 0.48102 0.12652 0.0
H178 H 0.37533 0.65553 0.12038 0.0
C179 C 0.45741 0.4792 0.11879 0.0
C180 C 0.49775 0.54047 0.11143 0.0
H181 H 0.3582 0.43232 0.13072 0.0
H182 H 0.47871 0.42922 0.11653 0.0
C183 C 0.46694 0.60389 0.11314 0.0
C184 C 0.99457 0.34162 0.4505 0.0
C185 C 0.99933 0.27541 0.43488 0.0
H186 H 1.02496 0.45067 0.44945 0.0
C187 C 1.0413 0.26873 0.40595 0.0
H188 H 0.96309 0.34818 0.47304 0.0
C189 C 1.07683 0.32735 0.3925 0.0
C190 C 1.07151 0.39366 0.40791 0.0
H191 H 1.04554 0.21837 0.39325 0.0
H192 H 1.10848 0.32082 0.37003 0.0
C193 C 1.03048 0.40013 0.43723 0.0
C194 C 0.60068 0.77871 0.82442 0.0
C195 C 0.66048 0.74321 0.82638 0.0
H196 H 0.55568 0.87363 0.8123 0.0
C197 C 0.72351 0.781 0.82177 0.0
H198 H 0.5515 0.75102 0.82786 0.0
C199 C 0.72585 0.85129 0.81233 0.0
C200 C 0.66542 0.88548 0.8084 0.0
H201 H 0.77035 0.75496 0.82272 0.0
H202 H 0.77439 0.87775 0.806 0.0
C203 C 0.60312 0.84916 0.81585 0.0
C204 C 0.86235 0.50196 0.12951 0.0
C205 C 0.90653 0.55656 0.11685 0.0
H206 H 0.75899 0.4551 0.13145 0.0
C207 C 0.87634 0.60985 0.0986 0.0
H208 H 0.88316 0.45986 0.14371 0.0
C209 C 0.80529 0.60711 0.09181 0.0
C210 C 0.76137 0.5515 0.10333 0.0
H211 H 0.90787 0.6529 0.08841 0.0
H212 H 0.78471 0.64743 0.07616 0.0
C213 C 0.79082 0.49952 0.12288 0.0
C214 C 0.30924 0.70646 0.43426 0.0
C215 C 0.28068 0.73258 0.46485 0.0
H216 H 0.29805 0.63375 0.39055 0.0
C217 C 0.21798 0.70141 0.47562 0.0
H218 H 0.35834 0.72806 0.42576 0.0
C219 C 0.18347 0.64685 0.45541 0.0
C220 C 0.21111 0.62269 0.42412 0.0
H221 H 0.19468 0.72053 0.49903 0.0
H222 H 1.13425 0.62508 0.46364 0.0
C223 C 0.27483 0.65232 0.41412 0.0
C224 C 0.56933 0.2501 0.78881 0.0
C225 C 0.61686 0.28665 0.81248 0.0
H226 H 0.5383 0.15339 0.76149 0.0
C227 C 0.66582 0.24896 0.83017 0.0
H228 H 0.53061 0.27695 0.77487 0.0
C229 C 0.66979 0.17762 0.82267 0.0
C230 C 0.62516 0.14247 0.79718 0.0
H231 H 0.70307 0.27514 0.84875 0.0
H232 H 0.7105 0.15112 0.83512 0.0
C233 C 0.57355 0.17908 0.78122 0.0
C234 C 0.59452 0.72938 0.52145 0.0
C235 C 0.65486 0.77152 0.51599 0.0
H236 H 0.55041 0.62972 0.53688 0.0
C237 C 0.71755 0.74095 0.51758 0.0
H238 H 0.54533 0.75108 0.5203 0.0
C239 C 0.7202 0.67131 0.52711 0.0
C240 C 0.66016 0.63074 0.53452 0.0
H241 H 0.76499 0.77191 0.51369 0.0
H242 H 0.76943 0.65037 0.53075 0.0
C243 C 0.5972 0.6597 0.5306 0.0
C244 C 1.08357 0.49386 0.80529 0.0
C245 C 1.07615 0.43087 0.82331 0.0
H246 H 1.13085 0.59688 0.80699 0.0
C247 C 1.13237 0.41126 0.8436 0.0
H248 H 1.04283 0.50972 0.78803 0.0
C249 C 0.18457 0.46175 0.85423 0.0
C250 C 0.1799 0.53143 0.84461 0.0
H251 H 1.12978 0.36153 0.85642 0.0
H252 H 0.22203 0.44859 0.87412 0.0
C253 C 1.13465 0.54472 0.81645 0.0
C254 C 0.4682 0.917 0.16897 0.0
C255 C 0.4022 0.92817 0.17986 0.0
H256 H 0.57599 0.93406 0.18043 0.0
C257 C 0.39509 0.9715 0.20963 0.0
H258 H 0.47532 0.88337 0.1463 0.0
C259 C 0.45248 1.00017 0.22914 0.0
C260 C 0.51839 0.98624 0.21933 0.0
H261 H 0.34495 0.98216 0.21828 0.0
H262 H 0.44523 0.03238 0.25232 0.0
C263 C 0.52581 0.94586 0.18852 0.0
C264 C 0.5871 0.25076 0.54612 0.0
C265 C 0.63865 0.22242 0.52692 0.0
H266 H 0.55086 0.34197 0.56996 0.0
C267 C 0.69014 0.26817 0.51329 0.0
H268 H 0.54614 0.2175 0.55669 0.0
C269 C 0.6923 0.34014 0.52069 0.0
C270 C 0.64301 0.36737 0.54181 0.0
H271 H 0.73031 0.2483 0.49816 0.0
H272 H 0.73465 0.3738 0.51176 0.0
C273 C 0.58935 0.32223 0.5535 0.0
C274 C 0.3591 0.83472 0.85635 0.0
C275 C 0.34535 0.81175 0.82098 0.0
H276 H 0.32598 0.8134 0.90845 0.0
C277 C 0.27678 0.81074 0.80886 0.0
H278 H 0.41148 0.8458 0.86603 0.0
C279 C 0.22589 0.7982 0.83334 0.0
C280 C 0.24628 0.78483 0.86841 0.0
H281 H 0.26268 0.80213 0.78112 0.0
H282 H 0.17485 0.78085 0.82336 0.0
C283 C 0.30967 0.81658 0.88096 0.0
C284 C 0.83805 0.11771 0.18946 0.0
C285 C 0.86855 0.17851 0.20661 0.0
H286 H 0.7601 0.03352 0.19019 0.0
C287 C 0.84223 0.20097 0.23853 0.0
H288 H 0.85774 0.09859 0.16505 0.0
C289 C 0.7864 0.16387 0.25287 0.0
C290 C 0.7556 0.10325 0.23569 0.0
H291 H 0.86383 0.24822 0.25209 0.0
H292 H 0.76636 0.1837 0.27705 0.0
C293 C 0.7822 0.08044 0.20386 0.0
C294 C 1.1338 0.61548 0.01999 0.0
C295 C 0.16833 0.5595 0.03277 0.0
H296 H 1.12109 0.68506 0.9772 0.0
C297 C 0.22348 0.53702 0.01438 0.0
H298 H 1.09164 0.63431 0.03406 0.0
C299 C 0.24101 0.56683 0.98251 0.0
C300 C 0.20343 0.61932 0.96835 0.0
H301 H 0.25178 0.49489 0.02402 0.0
H302 H 0.28151 0.54609 0.96783 0.0
C303 C 0.15121 0.64521 0.98785 0.0
C304 C 0.66534 0.98721 0.39804 0.0
C305 C 0.60924 1.01449 0.4138 0.0
H306 H 0.71693 0.9707 0.34984 0.0
C307 C 0.56158 0.04668 0.39259 0.0
H308 H 0.7027 0.96201 0.41383 0.0
C309 C 0.5691 0.05064 0.35624 0.0
C310 C 0.62498 1.0234 0.34038 0.0
H311 H 0.5179 0.06833 0.40401 0.0
H312 H 0.53134 0.07545 0.34048 0.0
C313 C 0.67353 0.99226 0.36158 0.0
C314 C 0.73154 0.56343 0.70484 0.0
C315 C 0.68702 0.52091 0.72479 0.0
H316 H 0.76068 0.59375 0.65307 0.0
C317 C 0.63509 0.47742 0.70738 0.0
H318 H 0.77178 0.59771 0.71772 0.0
C319 C 0.62881 0.47513 0.67058 0.0
C320 C 0.67409 0.51659 0.65048 0.0
H321 H 0.59973 0.44455 0.72218 0.0
H322 H 0.58846 0.44083 0.65779 0.0
C323 C 0.72498 0.56147 0.66795 0.0
C324 C 0.66318 0.92908 0.63587 0.0
C325 C 0.68396 0.98819 0.61708 0.0
H326 H 0.63792 0.88789 0.68597 0.0
C327 C 0.70045 0.05173 0.63524 0.0
H328 H 0.64993 0.87965 0.6221 0.0
C329 C 0.69666 0.05619 0.67195 0.0
C330 C 0.67383 0.99763 0.69118 0.0
H331 H 0.71733 0.09777 0.62106 0.0
H332 H 0.71207 0.1057 0.68511 0.0
C333 C 0.65709 0.93392 0.67252 0.0
C334 C 0.64275 0.55642 0.93742 0.0
C335 C 0.58975 0.51262 0.92098 0.0
H336 H 0.69147 0.59603 0.98596 0.0
C337 C 0.54567 0.47214 0.94206 0.0
H338 H 0.67754 0.58831 0.92184 0.0
C339 C 0.55415 0.4759 0.97897 0.0
C340 C 0.60681 0.52037 -0.00447 0.0
H341 H 0.50461 0.43766 0.93007 0.0
H342 H 0.51965 0.44365 -0.00549 0.0
C343 C 0.65107 0.56041 0.97422 0.0
C344 C 1.09577 0.6128 0.25592 0.0
C345 C 1.12194 0.56753 0.23118 0.0
H346 H 1.07984 0.63521 0.31052 0.0
C347 C 0.14994 0.50694 0.24293 0.0
H348 H 1.07383 0.65985 0.24762 0.0
C349 C 0.15218 0.49225 0.27894 0.0
C350 C 1.12781 0.53877 0.30366 0.0
H351 H 0.17073 0.4714 0.2244 0.0
H352 H 0.17465 0.44571 0.28758 0.0
C353 C 1.09927 0.59887 0.29186 0.0
loop_
_geom_bond_atom_site_label_1
_geom_bond_atom_site_label_2
_geom_bond_distance
_geom_bond_site_symmetry_2
_ccdc_geom_bond_type
Nd0 C2 2.836 . S
Nd0 O20 2.500 . S
Nd0 O21 2.492 . S
Nd0 O22 2.487 . S
Nd0 O23 2.682 . S
Nd0 O24 2.410 . S
Nd0 O29 2.414 . S
Nd0 O31 2.424 1_455 S
Nd1 C11 2.836 . S
Nd1 O23 2.414 1_655 S
Nd1 O25 2.424 1_655 S
Nd1 O26 2.500 . S
Nd1 O27 2.492 . S
Nd1 O28 2.487 . S
Nd1 O29 2.682 1_655 S
Nd1 O30 2.410 . S
C2 Nd0 2.836 . S
C2 C3 1.498 . S
C2 O20 1.258 . S
C2 O21 1.239 . S
C3 C2 1.498 . S
C3 C4 1.366 . S
C3 C8 1.407 . S
C4 C3 1.366 . S
C4 C5 1.392 . S
C4 H32 0.930 . S
C5 C4 1.392 . S
C5 C6 1.398 . S
C5 H33 0.929 . S
C6 C5 1.398 . S
C6 C7 1.352 . S
C7 C6 1.352 . S
C7 C8 1.384 . S
C7 H34 0.930 . S
C8 C3 1.407 . S
C8 C7 1.384 . S
C8 H35 0.929 . S
C9 O22 1.241 . S
C9 O23 1.273 . S
C10 O24 1.251 . S
C10 O25 1.268 . S
C11 Nd1 2.836 . S
C11 C12 1.498 . S
C11 O26 1.258 . S
C11 O27 1.239 . S
C12 C11 1.498 . S
C12 C13 1.366 . S
C12 C17 1.407 . S
C13 C12 1.366 . S
C13 C14 1.392 . S
C13 H36 0.930 . S
C14 C13 1.392 . S
C14 C15 1.398 . S
C14 H37 0.929 . S
C15 C14 1.398 . S
C15 C16 1.352 . S
C16 C15 1.352 . S
C16 C17 1.384 . S
C16 H38 0.930 . S
C17 C12 1.407 . S
C17 C16 1.384 . S
C17 H39 0.929 . S
C18 O28 1.241 1_455 S
C18 O29 1.273 . S
C19 O30 1.251 . S
C19 O31 1.268 . S
O20 Nd0 2.500 . S
O20 C2 1.258 . S
O21 Nd0 2.492 . S
O21 C2 1.239 . S
O22 Nd0 2.487 . S
O22 C9 1.241 . S
O23 Nd0 2.682 . S
O23 Nd1 2.414 1_455 S
O23 C9 1.273 . S
O24 Nd0 2.410 . S
O24 C10 1.251 . S
O25 Nd1 2.424 1_455 S
O25 C10 1.268 . S
O26 Nd1 2.500 . S
O26 C11 1.258 . S
O27 Nd1 2.492 . S
O27 C11 1.239 . S
O28 Nd1 2.487 . S
O28 C18 1.241 1_655 S
O29 Nd0 2.414 . S
O29 Nd1 2.682 1_455 S
O29 C18 1.273 . S
O30 Nd1 2.410 . S
O30 C19 1.251 . S
O31 Nd0 2.424 1_655 S
O31 C19 1.268 . S
H32 C4 0.930 . S
H33 C5 0.929 . S
H34 C7 0.930 . S
H35 C8 0.929 . S
H36 C13 0.930 . S
H37 C14 0.929 . S
H38 C16 0.930 . S
H39 C17 0.929 . S
Nd40 C42 2.834 1_545 S
Nd40 O60 2.497 1_545 S
Nd40 O61 2.490 1_545 S
Nd40 O62 2.487 1_545 S
Nd40 O63 2.682 . S
Nd40 O64 2.406 1_545 S
Nd40 O69 2.414 . S
Nd40 O71 2.428 . S
Nd41 C51 2.836 . S
Nd41 O63 2.414 . S
Nd41 O65 2.424 1_545 S
Nd41 O66 2.500 . S
Nd41 O67 2.492 . S
Nd41 O68 2.487 . S
Nd41 O69 2.682 . S
Nd41 O70 2.410 . S
C42 Nd40 2.834 1_565 S
C42 C43 1.498 . S
C42 O60 1.258 . S
C42 O61 1.239 . S
C43 C42 1.498 . S
C43 C44 1.366 . S
C43 C48 1.407 . S
C44 C43 1.366 . S
C44 C45 1.392 . S
C44 H72 0.930 . S
C45 C44 1.392 . S
C45 C46 1.398 . S
C45 H73 0.929 . S
C46 C45 1.398 . S
C46 C47 1.352 . S
C47 C46 1.352 . S
C47 C48 1.384 . S
C47 H74 0.930 . S
C48 C43 1.407 . S
C48 C47 1.384 . S
C48 H75 0.929 . S
C49 O62 1.241 1_545 S
C49 O63 1.273 . S
C50 O64 1.251 . S
C50 O65 1.268 . S
C51 Nd41 2.836 . S
C51 C52 1.498 . S
C51 O66 1.258 . S
C51 O67 1.239 . S
C52 C51 1.498 . S
C52 C53 1.366 . S
C52 C57 1.407 . S
C53 C52 1.366 . S
C53 C54 1.392 . S
C53 H76 0.930 . S
C54 C53 1.392 . S
C54 C55 1.398 . S
C54 H77 0.929 . S
C55 C54 1.398 . S
C55 C56 1.352 . S
C56 C55 1.352 . S
C56 C57 1.384 . S
C56 H78 0.930 . S
C57 C52 1.407 . S
C57 C56 1.384 . S
C57 H79 0.929 . S
C58 O68 1.241 . S
C58 O69 1.273 . S
C59 O70 1.251 . S
C59 O71 1.268 . S
O60 Nd40 2.497 1_565 S
O60 C42 1.258 . S
O61 Nd40 2.490 1_565 S
O61 C42 1.239 . S
O62 Nd40 2.487 1_565 S
O62 C49 1.241 1_565 S
O63 Nd40 2.682 . S
O63 Nd41 2.414 . S
O63 C49 1.273 . S
O64 Nd40 2.406 1_565 S
O64 C50 1.251 . S
O65 Nd41 2.424 1_565 S
O65 C50 1.268 . S
O66 Nd41 2.500 . S
O66 C51 1.258 . S
O67 Nd41 2.492 . S
O67 C51 1.239 . S
O68 Nd41 2.487 . S
O68 C58 1.241 . S
O69 Nd40 2.414 . S
O69 Nd41 2.682 . S
O69 C58 1.273 . S
O70 Nd41 2.410 . S
O70 C59 1.251 . S
O71 Nd40 2.428 . S
O71 C59 1.268 . S
H72 C44 0.930 . S
H73 C45 0.929 . S
H74 C47 0.930 . S
H75 C48 0.929 . S
H76 C53 0.930 . S
H77 C54 0.929 . S
H78 C56 0.930 . S
H79 C57 0.929 . S
Nd80 C82 2.836 . S
Nd80 O100 2.500 . S
Nd80 O101 2.492 . S
Nd80 O102 2.487 . S
Nd80 O103 2.682 . S
Nd80 O104 2.410 . S
Nd80 O109 2.414 . S
Nd80 O111 2.424 . S
Nd81 C91 2.836 . S
Nd81 O103 2.414 . S
Nd81 O105 2.424 . S
Nd81 O106 2.500 . S
Nd81 O107 2.492 . S
Nd81 O108 2.487 . S
Nd81 O109 2.682 . S
Nd81 O110 2.410 . S
C82 Nd80 2.836 . S
C82 C83 1.498 . S
C82 O100 1.258 . S
C82 O101 1.239 . S
C83 C82 1.498 . S
C83 C84 1.366 . S
C83 C88 1.407 . S
C84 C83 1.366 . S
C84 C85 1.392 . S
C84 H112 0.930 . S
C85 C84 1.392 . S
C85 C86 1.398 . S
C85 H113 0.929 . S
C86 C85 1.398 . S
C86 C87 1.352 . S
C87 C86 1.352 . S
C87 C88 1.384 . S
C87 H114 0.930 . S
C88 C83 1.407 . S
C88 C87 1.384 . S
C88 H115 0.929 . S
C89 O102 1.241 . S
C89 O103 1.273 . S
C90 O104 1.251 . S
C90 O105 1.268 . S
C91 Nd81 2.836 . S
C91 C92 1.498 . S
C91 O106 1.258 . S
C91 O107 1.239 . S
C92 C91 1.498 . S
C92 C93 1.366 . S
C92 C97 1.407 . S
C93 C92 1.366 . S
C93 C94 1.392 . S
C93 H116 0.930 . S
C94 C93 1.392 . S
C94 C95 1.398 . S
C94 H117 0.929 . S
C95 C94 1.398 . S
C95 C96 1.352 . S
C96 C95 1.352 . S
C96 C97 1.384 . S
C96 H118 0.930 . S
C97 C92 1.407 . S
C97 C96 1.384 . S
C97 H119 0.929 . S
C98 O108 1.241 . S
C98 O109 1.273 . S
C99 O110 1.251 . S
C99 O111 1.268 . S
O100 Nd80 2.500 . S
O100 C82 1.258 . S
O101 Nd80 2.492 . S
O101 C82 1.239 . S
O102 Nd80 2.487 . S
O102 C89 1.241 . S
O103 Nd80 2.682 . S
O103 Nd81 2.414 . S
O103 C89 1.273 . S
O104 Nd80 2.410 . S
O104 C90 1.251 . S
O105 Nd81 2.424 . S
O105 C90 1.268 . S
O106 Nd81 2.500 . S
O106 C91 1.258 . S
O107 Nd81 2.492 . S
O107 C91 1.239 . S
O108 Nd81 2.487 . S
O108 C98 1.241 . S
O109 Nd80 2.414 . S
O109 Nd81 2.682 . S
O109 C98 1.273 . S
O110 Nd81 2.410 . S
O110 C99 1.251 . S
O111 Nd80 2.424 . S
O111 C99 1.268 . S
H112 C84 0.930 . S
H113 C85 0.929 . S
H114 C87 0.930 . S
H115 C88 0.929 . S
H116 C93 0.930 . S
H117 C94 0.929 . S
H118 C96 0.930 . S
H119 C97 0.929 . S
H120 C123 0.931 . S
H121 C126 0.928 . S
H122 C128 0.930 . S
C123 H120 0.931 . S
C123 C124 1.413 . S
C123 C125 1.360 1_565 S
C124 C123 1.413 . S
C124 C128 1.429 1_565 S
C125 C123 1.360 1_545 S
C125 C126 1.372 . S
C126 H121 0.928 . S
C126 C125 1.372 . S
C126 C127 1.404 . S
C127 C126 1.404 . S
C127 C128 1.391 . S
C128 H122 0.930 . S
C128 C124 1.429 1_545 S
C128 C127 1.391 . S
H129 C132 0.931 . S
H130 C135 0.928 . S
H131 C137 0.930 . S
C132 H129 0.931 . S
C132 C133 1.413 . S
C132 C134 1.360 . S
C133 C132 1.413 . S
C133 C137 1.429 . S
C134 C132 1.360 . S
C134 C135 1.372 . S
C135 H130 0.928 . S
C135 C134 1.372 . S
C135 C136 1.404 . S
C136 C135 1.404 . S
C136 C137 1.391 . S
C137 H131 0.930 . S
C137 C133 1.429 . S
C137 C136 1.391 . S
H138 C141 0.931 . S
H139 C144 0.928 . S
H140 C146 0.930 . S
C141 H138 0.931 . S
C141 C142 1.413 . S
C141 C143 1.360 1_655 S
C142 C141 1.413 . S
C142 C146 1.429 1_655 S
C143 C141 1.360 1_455 S
C143 C144 1.372 . S
C144 H139 0.928 . S
C144 C143 1.372 . S
C144 C145 1.404 . S
C145 C144 1.404 . S
C145 C146 1.391 . S
C146 H140 0.930 . S
C146 C142 1.429 1_455 S
C146 C145 1.391 . S
H147 C150 0.931 . S
H148 C153 0.928 . S
H149 C155 0.930 . S
C150 H147 0.931 . S
C150 C151 1.413 . S
C150 C152 1.360 1_655 S
C151 C150 1.413 . S
C151 C155 1.429 1_655 S
C152 C150 1.360 1_455 S
C152 C153 1.372 . S
C153 H148 0.928 . S
C153 C152 1.372 . S
C153 C154 1.404 . S
C154 C153 1.404 . S
C154 C155 1.391 . S
C155 H149 0.930 . S
C155 C151 1.429 1_455 S
C155 C154 1.391 . S
H156 C159 0.931 . S
H157 C162 0.928 . S
H158 C164 0.930 . S
C159 H156 0.931 . S
C159 C160 1.413 . S
C159 C161 1.363 . S
C160 C159 1.413 . S
C160 C164 1.429 . S
C161 C159 1.363 . S
C161 C162 1.369 1_545 S
C162 H157 0.928 . S
C162 C161 1.369 1_565 S
C162 C163 1.404 . S
C163 C162 1.404 . S
C163 C164 1.391 1_565 S
C164 H158 0.930 . S
C164 C160 1.429 . S
C164 C163 1.391 1_545 S
H165 C168 0.931 . S
H166 C171 0.928 . S
H167 C173 0.930 . S
C168 H165 0.931 . S
C168 C169 1.413 . S
C168 C170 1.360 . S
C169 C168 1.413 . S
C169 C173 1.429 . S
C170 C168 1.360 . S
C170 C171 1.372 . S
C171 H166 0.928 . S
C171 C170 1.372 . S
C171 C172 1.404 . S
C172 C171 1.404 . S
C172 C173 1.391 . S
C173 H167 0.930 . S
C173 C169 1.429 . S
C173 C172 1.391 . S
C174 C175 1.387 . S
C174 H178 0.950 . S
C174 C183 1.390 . S
C175 C174 1.387 . S
C175 C177 1.387 . S
H176 C183 0.950 . S
C177 C175 1.387 . S
C177 C179 1.390 . S
C177 H181 0.950 . S
H178 C174 0.950 . S
C179 C177 1.390 . S
C179 C180 1.387 . S
C179 H182 0.950 . S
C180 C179 1.387 . S
C180 C183 1.387 . S
H181 C177 0.950 . S
H182 C179 0.950 . S
C183 C174 1.390 . S
C183 H176 0.950 . S
C183 C180 1.387 . S
C184 C185 1.387 . S
C184 H188 0.950 . S
C184 C193 1.390 . S
C185 C184 1.387 . S
C185 C187 1.387 . S
H186 C193 0.950 . S
C187 C185 1.387 . S
C187 C189 1.390 . S
C187 H191 0.950 . S
H188 C184 0.950 . S
C189 C187 1.390 . S
C189 C190 1.387 . S
C189 H192 0.950 . S
C190 C189 1.387 . S
C190 C193 1.387 . S
H191 C187 0.950 . S
H192 C189 0.950 . S
C193 C184 1.390 . S
C193 H186 0.950 . S
C193 C190 1.387 . S
C194 C195 1.387 . S
C194 H198 0.950 . S
C194 C203 1.390 . S
C195 C194 1.387 . S
C195 C197 1.387 . S
H196 C203 0.950 . S
C197 C195 1.387 . S
C197 C199 1.390 . S
C197 H201 0.950 . S
H198 C194 0.950 . S
C199 C197 1.390 . S
C199 C200 1.387 . S
C199 H202 0.950 . S
C200 C199 1.387 . S
C200 C203 1.387 . S
H201 C197 0.950 . S
H202 C199 0.950 . S
C203 C194 1.390 . S
C203 H196 0.950 . S
C203 C200 1.387 . S
C204 C205 1.387 . S
C204 H208 0.950 . S
C204 C213 1.390 . S
C205 C204 1.387 . S
C205 C207 1.387 . S
H206 C213 0.950 . S
C207 C205 1.387 . S
C207 C209 1.390 . S
C207 H211 0.950 . S
H208 C204 0.950 . S
C209 C207 1.390 . S
C209 C210 1.387 . S
C209 H212 0.950 . S
C210 C209 1.387 . S
C210 C213 1.387 . S
H211 C207 0.950 . S
H212 C209 0.950 . S
C213 C204 1.390 . S
C213 H206 0.950 . S
C213 C210 1.387 . S
C214 C215 1.387 . S
C214 H218 0.950 . S
C214 C223 1.390 . S
C215 C214 1.387 . S
C215 C217 1.387 . S
H216 C223 0.950 . S
C217 C215 1.387 . S
C217 C219 1.390 . S
C217 H221 0.950 . S
H218 C214 0.950 . S
C219 C217 1.390 . S
C219 C220 1.387 . S
C219 H222 0.950 . S
C220 C219 1.387 . S
C220 C223 1.387 . S
H221 C217 0.950 . S
H222 C219 0.950 . S
C223 C214 1.390 . S
C223 H216 0.950 . S
C223 C220 1.387 . S
C224 C225 1.387 . S
C224 H228 0.950 . S
C224 C233 1.390 . S
C225 C224 1.387 . S
C225 C227 1.387 . S
H226 C233 0.950 . S
C227 C225 1.387 . S
C227 C229 1.390 . S
C227 H231 0.950 . S
H228 C224 0.950 . S
C229 C227 1.390 . S
C229 C230 1.387 . S
C229 H232 0.950 . S
C230 C229 1.387 . S
C230 C233 1.387 . S
H231 C227 0.950 . S
H232 C229 0.950 . S
C233 C224 1.390 . S
C233 H226 0.950 . S
C233 C230 1.387 . S
C234 C235 1.387 . S
C234 H238 0.950 . S
C234 C243 1.390 . S
C235 C234 1.387 . S
C235 C237 1.387 . S
H236 C243 0.950 . S
C237 C235 1.387 . S
C237 C239 1.390 . S
C237 H241 0.950 . S
H238 C234 0.950 . S
C239 C237 1.390 . S
C239 C240 1.387 . S
C239 H242 0.950 . S
C240 C239 1.387 . S
C240 C243 1.387 . S
H241 C237 0.950 . S
H242 C239 0.950 . S
C243 C234 1.390 . S
C243 H236 0.950 . S
C243 C240 1.387 . S
C244 C245 1.387 . S
C244 H248 0.950 . S
C244 C253 1.390 . S
C245 C244 1.387 . S
C245 C247 1.387 . S
H246 C253 0.950 . S
C247 C245 1.387 . S
C247 C249 1.390 . S
C247 H251 0.950 . S
H248 C244 0.950 . S
C249 C247 1.390 . S
C249 C250 1.387 . S
C249 H252 0.950 . S
C250 C249 1.387 . S
C250 C253 1.387 . S
H251 C247 0.950 . S
H252 C249 0.950 . S
C253 C244 1.390 . S
C253 H246 0.950 . S
C253 C250 1.387 . S
C254 C255 1.387 . S
C254 H258 0.950 . S
C254 C263 1.390 . S
C255 C254 1.387 . S
C255 C257 1.387 . S
H256 C263 0.950 . S
C257 C255 1.387 . S
C257 C259 1.390 . S
C257 H261 0.950 . S
H258 C254 0.950 . S
C259 C257 1.390 . S
C259 C260 1.387 . S
C259 H262 0.950 . S
C260 C259 1.387 . S
C260 C263 1.387 . S
H261 C257 0.950 . S
H262 C259 0.950 . S
C263 C254 1.390 . S
C263 H256 0.950 . S
C263 C260 1.387 . S
C264 C265 1.387 . S
C264 H268 0.950 . S
C264 C273 1.390 . S
C265 C264 1.387 . S
C265 C267 1.387 . S
H266 C273 0.950 . S
C267 C265 1.387 . S
C267 C269 1.390 . S
C267 H271 0.950 . S
H268 C264 0.950 . S
C269 C267 1.390 . S
C269 C270 1.387 . S
C269 H272 0.950 . S
C270 C269 1.387 . S
C270 C273 1.387 . S
H271 C267 0.950 . S
H272 C269 0.950 . S
C273 C264 1.390 . S
C273 H266 0.950 . S
C273 C270 1.387 . S
C274 C275 1.387 . S
C274 H278 0.950 . S
C274 C283 1.390 . S
C275 C274 1.387 . S
C275 C277 1.387 . S
H276 C283 0.950 . S
C277 C275 1.387 . S
C277 C279 1.390 . S
C277 H281 0.950 . S
H278 C274 0.950 . S
C279 C277 1.390 . S
C279 C280 1.387 . S
C279 H282 0.950 . S
C280 C279 1.387 . S
C280 C283 1.387 . S
H281 C277 0.950 . S
H282 C279 0.950 . S
C283 C274 1.390 . S
C283 H276 0.950 . S
C283 C280 1.387 . S
C284 C285 1.387 . S
C284 H288 0.950 . S
C284 C293 1.390 . S
C285 C284 1.387 . S
C285 C287 1.387 . S
H286 C293 0.950 . S
C287 C285 1.387 . S
C287 C289 1.390 . S
C287 H291 0.950 . S
H288 C284 0.950 . S
C289 C287 1.390 . S
C289 C290 1.387 . S
C289 H292 0.950 . S
C290 C289 1.387 . S
C290 C293 1.387 . S
H291 C287 0.950 . S
H292 C289 0.950 . S
C293 C284 1.390 . S
C293 H286 0.950 . S
C293 C290 1.387 . S
C294 C295 1.387 . S
C294 H298 0.950 . S
C294 C303 1.390 . S
C295 C294 1.387 . S
C295 C297 1.387 1_455 S
H296 C303 0.950 . S
C297 C295 1.387 1_655 S
C297 C299 1.390 1_554 S
C297 H301 0.950 . S
H298 C294 0.950 . S
C299 C297 1.390 1_556 S
C299 C300 1.387 1_655 S
C299 H302 0.950 . S
C300 C299 1.387 1_455 S
C300 C303 1.387 1_556 S
H301 C297 0.950 . S
H302 C299 0.950 . S
C303 C294 1.390 . S
C303 H296 0.950 . S
C303 C300 1.387 1_554 S
C304 C305 1.387 . S
C304 H308 0.950 . S
C304 C313 1.390 . S
C305 C304 1.387 . S
C305 C307 1.387 . S
H306 C313 0.950 . S
C307 C305 1.387 . S
C307 C309 1.390 . S
C307 H311 0.950 . S
H308 C304 0.950 . S
C309 C307 1.390 . S
C309 C310 1.387 . S
C309 H312 0.950 . S
C310 C309 1.387 . S
C310 C313 1.387 . S
H311 C307 0.950 . S
H312 C309 0.950 . S
C313 C304 1.390 . S
C313 H306 0.950 . S
C313 C310 1.387 . S
C314 C315 1.387 . S
C314 H318 0.950 . S
C314 C323 1.390 . S
C315 C314 1.387 . S
C315 C317 1.387 . S
H316 C323 0.950 . S
C317 C315 1.387 . S
C317 C319 1.390 . S
C317 H321 0.950 . S
H318 C314 0.950 . S
C319 C317 1.390 . S
C319 C320 1.387 . S
C319 H322 0.950 . S
C320 C319 1.387 . S
C320 C323 1.387 . S
H321 C317 0.950 . S
H322 C319 0.950 . S
C323 C314 1.390 . S
C323 H316 0.950 . S
C323 C320 1.387 . S
C324 C325 1.387 1_565 S
C324 H328 0.950 . S
C324 C333 1.390 . S
C325 C324 1.387 1_545 S
C325 C327 1.387 . S
H326 C333 0.950 . S
C327 C325 1.387 . S
C327 C329 1.390 . S
C327 H331 0.950 . S
H328 C324 0.950 . S
C329 C327 1.390 . S
C329 C330 1.387 . S
C329 H332 0.950 . S
C330 C329 1.387 . S
C330 C333 1.387 1_545 S
H331 C327 0.950 . S
H332 C329 0.950 . S
C333 C324 1.390 . S
C333 H326 0.950 . S
C333 C330 1.387 1_565 S
C334 C335 1.387 . S
C334 H338 0.950 . S
C334 C343 1.390 . S
C335 C334 1.387 . S
C335 C337 1.387 . S
H336 C343 0.950 1_554 S
C337 C335 1.387 . S
C337 C339 1.390 . S
C337 H341 0.950 . S
H338 C334 0.950 . S
C339 C337 1.390 . S
C339 C340 1.387 1_556 S
C339 H342 0.950 . S
C340 C339 1.387 1_554 S
C340 C343 1.387 1_554 S
H341 C337 0.950 . S
H342 C339 0.950 . S
C343 C334 1.390 . S
C343 H336 0.950 1_556 S
C343 C340 1.387 1_556 S
C344 C345 1.387 . S
C344 H348 0.950 . S
C344 C353 1.390 . S
C345 C344 1.387 . S
C345 C347 1.387 1_455 S
H346 C353 0.950 . S
C347 C345 1.387 1_655 S
C347 C349 1.390 . S
C347 H351 0.950 . S
H348 C344 0.950 . S
C349 C347 1.390 . S
C349 C350 1.387 1_655 S
C349 H352 0.950 . S
C350 C349 1.387 1_455 S
C350 C353 1.387 . S
H351 C347 0.950 . S
H352 C349 0.950 . S
C353 C344 1.390 . S
C353 H346 0.950 . S
C353 C350 1.387 . S
C175 C10 3.039 . S
C180 C169 3.001 . S
C185 C55 1.485 . S
C190 C151 1.587 . S
C195 C90 1.874 . S
C200 C163 1.870 . S
C205 C19 2.978 . S
C210 C172 2.992 . S
C220 C154 1.633 . S
C215 C46 1.502 . S
C230 C160 1.949 . S
C225 C99 1.934 . S
C235 C50 1.873 . S
C240 C133 1.848 . S
C245 C95 1.239 . S
C250 C142 1.444 . S
C255 C6 1.470 . S
C260 C124 1.563 . S
C270 C136 1.868 . S
C265 C59 1.895 . S
C280 C145 1.126 . S
C275 C86 0.955 . S
C285 C15 1.704 . S
C290 C127 1.834 . S
C300 C143 1.017 . S
C295 C18 1.026 . S
C305 C49 1.423 . S
C310 C125 1.467 . S
C315 C98 1.281 . S
C320 C134 1.313 . S
C330 C161 1.339 . S
C325 C58 1.292 . S
C340 C170 1.811 . S
C335 C89 1.739 . S
C345 C9 1.425 . S
C350 C152 1.496 . S
