# Generated by pormake.
# Topology tsx, (6,3)-cn, num edge types: 1
# Building blocks:
#     Node 0, Type 0, BuildingBlock: JUFBIX_clean_sbu_0, # of connection points: 6
#     Node 1, Type 0, BuildingBlock: JUFBIX_clean_sbu_0, # of connection points: 6
#     Node 2, Type 1, BuildingBlock: QEWDON_clean_linker_0, # of connection points: 3
#     Node 3, Type 1, BuildingBlock: QEWDON_clean_linker_0, # of connection points: 3
#     Node 4, Type 1, BuildingBlock: QEWDON_clean_linker_0, # of connection points: 3
#     Node 5, Type 1, BuildingBlock: QEWDON_clean_linker_0, # of connection points: 3
#     Edge 6, Type (0, 1), BuildingBlock: ZUJKAS_clean_linker_0, # of connection points: 2
#     Edge 7, Type (0, 1), BuildingBlock: ZUJKAS_clean_linker_0, # of connection points: 2
#     Edge 8, Type (0, 1), BuildingBlock: ZUJKAS_clean_linker_0, # of connection points: 2
#     Edge 9, Type (0, 1), BuildingBlock: ZUJKAS_clean_linker_0, # of connection points: 2
#     Edge 10, Type (0, 1), BuildingBlock: ZUJKAS_clean_linker_0, # of connection points: 2
#     Edge 11, Type (0, 1), BuildingBlock: ZUJKAS_clean_linker_0, # of connection points: 2
#     Edge 12, Type (0, 1), BuildingBlock: ZUJKAS_clean_linker_0, # of connection points: 2
#     Edge 13, Type (0, 1), BuildingBlock: ZUJKAS_clean_linker_0, # of connection points: 2
#     Edge 14, Type (0, 1), BuildingBlock: ZUJKAS_clean_linker_0, # of connection points: 2
#     Edge 15, Type (0, 1), BuildingBlock: ZUJKAS_clean_linker_0, # of connection points: 2
#     Edge 16, Type (0, 1), BuildingBlock: ZUJKAS_clean_linker_0, # of connection points: 2
#     Edge 17, Type (0, 1), BuildingBlock: ZUJKAS_clean_linker_0, # of connection points: 2
# Relax obj value: 0.110
# Max RMSD: 0.172
# Mean RMSD: 0.148
data_MOF--net-tsx--node1-JUFBIX_clean_sbu_0--node2-QEWDON_clean_linker_0--edge1-ZUJKAS_clean_linker_0
_symmetry_space_group_name_H-M    P1
_symmetry_Int_Tables_number       1
_symmetry_cell_setting            triclinic
loop_
_symmetry_equiv_pos_as_xyz
'x, y, z'
_cell_length_a     27.571794
_cell_length_b     32.429507
_cell_length_c     41.802365
_cell_angle_alpha  91.701741
_cell_angle_beta   104.46676
_cell_angle_gamma 97.174843
loop_
_atom_site_label
_atom_site_type_symbol
_atom_site_fract_x
_atom_site_fract_y
_atom_site_fract_z
_atom_type_partial_charge
Co0 Co 0.05543 0.97863 0.00483 0.0
C1 C 0.00325 0.00481 0.94342 0.0
Co2 Co 0.99142 0.013 0.00578 0.0
C3 C 0.12437 0.91596 0.01067 0.0
C4 C 0.1423 0.96729 0.98263 0.0
N5 N 0.10988 0.95273 0.0004 0.0
N6 N 0.16412 0.90701 -0.00047 0.0
C7 C 0.1755 0.93934 0.98202 0.0
H8 H 0.1051 0.89555 0.02497 0.0
H9 H 0.14112 -0.00393 0.9702 0.0
C10 C 0.04352 0.9876 0.06733 0.0
N11 N 0.93724 0.0392 0.01016 0.0
C12 C 0.92713 0.07789 0.00244 0.0
C13 C 0.90187 0.02431 0.0256 0.0
N14 N 0.88703 0.08789 0.01273 0.0
C15 C 0.87104 0.05402 0.0272 0.0
C16 C 0.96597 0.92676 0.99491 0.0
O17 O 0.07152 0.97222 0.05141 0.0
O18 O 0.00753 0.00602 0.05179 0.0
O19 O 0.94943 0.96114 -0.00217 0.0
O20 O 0.01286 0.92668 -0.00254 0.0
O21 O 0.97574 0.0201 0.95968 0.0
H22 H 0.89987 0.99435 0.03627 0.0
H23 H 0.94953 0.09852 0.99013 0.0
O24 O 0.03867 0.98541 0.95846 0.0
O25 O 0.09743 0.03083 0.0119 0.0
O26 O 0.03384 0.06454 0.01328 0.0
C27 C 0.0803 0.06503 0.01437 0.0
H28 H 0.20562 0.94246 0.96952 0.0
H29 H 0.84064 0.05137 0.03944 0.0
Co30 Co 0.55089 0.47743 0.50136 0.0
C31 C 0.50107 0.50291 0.43928 0.0
Co32 Co 0.48412 0.50922 0.50054 0.0
C33 C 0.62288 0.41682 0.50909 0.0
C34 C 0.64166 0.46963 0.48276 0.0
N35 N 0.60768 0.45341 0.49886 0.0
N36 N 0.66462 0.40959 0.49953 0.0
C37 C 0.67651 0.44287 0.4831 0.0
H38 H 0.60274 0.39528 0.52215 0.0
H39 H 0.64044 0.4987 0.47074 0.0
C40 C 0.53378 0.4845 0.56274 0.0
N41 N 0.42748 0.53368 0.50277 0.0
C42 C 0.41891 0.57341 0.49784 0.0
C43 C 0.38727 0.51572 0.51267 0.0
N44 N 0.37511 0.58086 0.50434 0.0
C45 C 0.35497 0.54453 0.51349 0.0
C46 C 0.46267 0.42273 0.48905 0.0
O47 O 0.56432 0.47126 0.54779 0.0
O48 O 0.49685 0.50139 0.54643 0.0
O49 O 0.44421 0.45639 0.49102 0.0
O50 O 0.51017 0.42414 0.4932 0.0
O51 O 0.47178 0.51704 0.45472 0.0
H52 H 0.38246 0.48406 0.51998 0.0
H53 H 0.44461 0.59663 0.49007 0.0
O54 O 0.53671 0.48417 0.45498 0.0
O55 O 0.59093 0.53087 0.50945 0.0
O56 O 0.5248 0.56174 0.50965 0.0
C57 C 0.57182 0.56412 0.5119 0.0
H58 H 0.70804 0.44741 0.47191 0.0
H59 H 0.32043 0.53958 0.52156 0.0
H60 H 0.0573 0.02549 0.4234 0.0
C61 C 0.07792 0.00171 0.43586 0.0
C62 C 0.09283 0.9712 0.41715 0.0
C63 C 0.09055 0.00225 0.47063 0.0
H64 H 0.13131 0.91689 0.41966 0.0
C65 C 0.11906 0.94044 0.43366 0.0
C66 C 0.13161 0.94052 0.46825 0.0
C67 C 0.11822 0.97194 0.4868 0.0
C68 C 0.07518 0.03487 0.4898 0.0
H69 H 0.12802 0.97201 0.51359 0.0
C70 C 0.01546 0.04746 0.47693 0.0
C71 C 0.00329 0.10959 0.51499 0.0
C72 C 0.11777 0.06053 0.52312 0.0
H73 H 0.15487 0.05067 0.52927 0.0
C74 C 0.11016 0.10063 0.54791 0.0
H75 H 0.99027 0.02964 0.45512 0.0
C76 C 0.05809 0.12447 0.54511 0.0
H77 H 0.05977 0.14998 0.56279 0.0
H78 H 0.14278 0.11256 0.56778 0.0
H79 H 0.9892 0.04577 0.5844 0.0
C80 C 0.95952 0.02052 0.57332 0.0
C81 C 0.93552 -0.00358 0.59366 0.0
C82 C 0.94487 0.01252 0.53875 0.0
H83 H 0.87818 0.94547 0.59483 0.0
C84 C 0.8967 0.96428 0.57915 0.0
C85 C 0.8816 0.95585 0.54474 0.0
C86 C 0.90586 0.98013 0.52451 0.0
C87 C 0.9698 0.03899 0.51788 0.0
H88 H 0.89458 0.97371 0.4979 0.0
C89 C 0.03362 0.05283 0.53035 0.0
C90 C 0.06392 0.1064 0.49088 0.0
C91 C 0.93428 0.05845 0.48397 0.0
H92 H 0.89398 0.0484 0.47822 0.0
C93 C 0.95358 0.09303 0.45825 0.0
H94 H 0.05387 0.03912 0.55258 0.0
C95 C 0.013 0.11618 0.46047 0.0
H96 H 0.01875 0.1379 0.44218 0.0
H97 H 0.92415 0.10152 0.43815 0.0
H98 H 0.56357 0.53069 0.92192 0.0
C99 C 0.5867 0.50824 0.9342 0.0
C100 C 0.60815 0.48239 0.91554 0.0
C101 C 0.59803 0.5074 0.96889 0.0
H102 H 0.65515 0.43355 0.91786 0.0
C103 C 0.63947 0.45458 0.93196 0.0
C104 C 0.65031 0.45291 0.9664 0.0
C105 C 0.62964 0.4794 0.98491 0.0
C106 C 0.58 0.53811 0.98827 0.0
H107 H 0.63849 0.47842 0.01162 0.0
C108 C 0.51961 0.5491 0.97486 0.0
C109 C 0.50445 0.61059 0.01236 0.0
C110 C 0.62135 0.56473 0.0217 0.0
H111 H 0.65909 0.55614 0.02808 0.0
C112 C 0.61177 0.60438 0.04609 0.0
H113 H 0.49533 0.53087 0.95294 0.0
C114 C 0.55855 0.62674 0.04272 0.0
H115 H 0.55901 0.65213 0.06022 0.0
H116 H 0.64385 0.6171 0.06606 0.0
H117 H 0.4906 0.54556 0.08189 0.0
C118 C 0.46197 0.5198 0.07034 0.0
C119 C 0.43759 0.49475 0.09001 0.0
C120 C 0.44892 0.51208 0.03578 0.0
H121 H 0.38115 0.4423 0.08972 0.0
C122 C 0.40018 0.46188 0.07473 0.0
C123 C 0.38731 0.45364 0.04033 0.0
C124 C 0.41169 0.47891 0.02085 0.0
C125 C 0.47336 0.53949 0.01537 0.0
H126 H 0.40193 0.47258 0.99424 0.0
C127 C 0.53683 0.55484 0.02825 0.0
C128 C 0.56591 0.60899 0.98879 0.0
C129 C 0.43741 0.55802 0.98116 0.0
H130 H 0.39733 0.54695 0.97512 0.0
C131 C 0.45595 0.59298 0.95548 0.0
H132 H 0.55736 0.54156 0.05061 0.0
C133 C 0.51482 0.6175 0.95801 0.0
H134 H 0.52011 0.63925 0.93965 0.0
H135 H 0.42635 0.6007 0.93513 0.0
H136 H 0.05851 0.1435 0.02456 0.0
H137 H 0.11001 0.2094 0.02097 0.0
H138 H 0.22587 0.14253 0.00057 0.0
H139 H 0.17537 0.07655 0.00506 0.0
H140 H 0.26492 0.20654 0.0451 0.0
H141 H 0.13095 0.26058 0.93775 0.0
H142 H 0.10261 0.24889 0.97122 0.0
H143 H 0.12375 0.20791 0.95039 0.0
C144 C 0.0951 0.14285 0.01952 0.0
C145 C 0.11288 0.10487 0.01506 0.0
C146 C 0.12418 0.18049 0.01707 0.0
C147 C 0.17108 0.18075 0.00959 0.0
C148 C 0.1895 0.14294 0.006 0.0
H149 H 0.39901 0.39058 -0.00037 0.0
H150 H 0.34468 0.32318 0.98529 0.0
C151 C 0.16069 0.1053 0.00874 0.0
C152 C 0.20188 0.22055 0.00683 0.0
H153 H 0.19811 0.31209 0.96851 0.0
C154 C 0.25064 0.22934 0.02799 0.0
C155 C 0.1832 0.25007 0.98427 0.0
C156 C 0.13246 0.24124 0.95938 0.0
C157 C 0.2804 0.2677 0.0283 0.0
C158 C 0.26084 0.29781 0.00678 0.0
C159 C 0.21276 0.28872 0.98491 0.0
C160 C 0.28829 0.34018 0.0092 0.0
C161 C 0.33176 0.27653 0.05256 0.0
C162 C 0.27312 0.37217 0.02609 0.0
C163 C 0.30394 0.41036 0.03433 0.0
C164 C 0.35014 0.41708 0.02558 0.0
C165 C 0.36338 0.3861 0.00644 0.0
C166 C 0.33263 0.3477 -0.0016 0.0
H167 H 0.33923 0.25131 0.0698 0.0
H168 H 0.36148 0.2799 0.03878 0.0
H169 H 0.33503 0.30629 0.06729 0.0
H170 H 0.23895 0.36673 0.03459 0.0
H171 H 0.29292 0.43397 0.04893 0.0
H172 H 0.1835 0.86265 0.05422 0.0
H173 H 0.2341 0.80452 0.06292 0.0
H174 H 0.251 0.81093 0.96333 0.0
H175 H 0.20081 0.86849 0.95459 0.0
H176 H 0.22699 0.72578 0.98713 0.0
H177 H 0.39218 0.8283 0.06816 0.0
H178 H 0.33128 0.82727 0.07691 0.0
H179 H 0.34165 0.84938 0.03999 0.0
C180 C 0.19743 0.85109 0.03412 0.0
C181 C 0.18887 0.8703 0.00389 0.0
C182 C 0.22639 0.81814 0.03913 0.0
C183 C 0.24651 0.8038 0.01381 0.0
C184 C 0.2359 0.82167 0.98317 0.0
H185 H 0.4924 0.68672 0.98777 0.0
H186 H 0.42768 0.73068 0.99118 0.0
C187 C 0.20756 0.85469 0.9783 0.0
C188 C 0.28141 0.7721 0.01935 0.0
H189 H 0.40521 0.76131 0.05244 0.0
C190 C 0.26571 0.7331 0.00191 0.0
C191 C 0.33197 0.78218 0.03832 0.0
C192 C 0.35073 0.82406 0.05689 0.0
C193 C 0.29981 0.70426 0.00222 0.0
C194 C 0.35073 0.71488 0.02039 0.0
C195 C 0.36604 0.75336 0.03862 0.0
C196 C 0.38955 0.68788 0.01862 0.0
C197 C 0.28193 0.66346 0.98191 0.0
C198 C 0.39008 0.64973 0.03351 0.0
C199 C 0.42687 0.62447 0.03139 0.0
C200 C 0.46269 0.63638 0.01344 0.0
C201 C 0.46343 0.67556 -2e-05 0.0
C202 C 0.42689 0.70089 0.00225 0.0
H203 H 0.24275 0.66207 0.96612 0.0
H204 H 0.30751 0.65849 0.96583 0.0
H205 H 0.28293 0.63752 -0.00132 0.0
H206 H 0.36242 0.63975 0.04709 0.0
H207 H 0.4273 0.59584 0.04393 0.0
H208 H 0.98769 0.84657 0.99191 0.0
H209 H 0.92745 0.78218 0.98294 0.0
H210 H 0.80454 0.85466 0.97513 0.0
H211 H 0.86375 0.91863 0.98384 0.0
H212 H 0.86164 0.75805 0.02327 0.0
H213 H 0.7539 0.77152 0.89412 0.0
H214 H 0.81578 0.80053 0.91172 0.0
H215 H 0.76031 0.81856 0.91941 0.0
C216 C 0.94776 0.8487 0.98795 0.0
C217 C 0.93046 0.88765 0.98856 0.0
C218 C 0.9135 0.81197 0.98278 0.0
C219 C 0.86157 0.81382 0.97773 0.0
C220 C 0.84434 0.85263 0.97815 0.0
H221 H 0.6019 0.68901 0.01386 0.0
H222 H 0.67879 0.73223 0.0093 0.0
C223 C 0.87837 0.88917 0.98344 0.0
C224 C 0.82513 0.77559 0.97474 0.0
H225 H 0.71033 0.72924 0.928 0.0
C226 C 0.8292 0.75102 0.0021 0.0
C227 C 0.78307 0.76638 0.94698 0.0
C228 C 0.77821 0.79041 0.91625 0.0
C229 C 0.79021 0.71946 0.00343 0.0
C230 C 0.74647 0.7126 0.97682 0.0
C231 C 0.74395 0.73501 0.94846 0.0
C232 C 0.70088 0.6857 0.97969 0.0
C233 C 0.79467 0.69493 0.03387 0.0
C234 C 0.68762 0.64577 0.96386 0.0
C235 C 0.64417 0.62074 0.96698 0.0
C236 C 0.61414 0.63506 0.9865 0.0
C237 C 0.62614 0.67606 0.00062 0.0
C238 C 0.66966 0.70092 -0.00227 0.0
H239 H 0.83398 0.69905 0.04982 0.0
H240 H 0.76953 0.70548 0.04854 0.0
H241 H 0.78224 0.66127 0.02674 0.0
H242 H 0.71077 0.63407 0.94914 0.0
H243 H 0.63411 0.59038 0.95404 0.0
H244 H 0.9356 0.16388 0.00457 0.0
H245 H 0.90233 0.23043 0.00285 0.0
H246 H 0.7618 0.1688 0.01646 0.0
H247 H 0.79379 0.10199 0.01717 0.0
H248 H 0.80635 0.24712 0.95653 0.0
H249 H 0.80989 0.26892 0.08959 0.0
H250 H 0.84899 0.23579 0.07499 0.0
H251 H 0.78291 0.21839 0.06962 0.0
C252 C 0.89745 0.16423 0.00688 0.0
C253 C 0.86751 0.12731 0.01111 0.0
C254 C 0.87872 0.20242 0.00621 0.0
C255 C 0.83004 0.20447 0.01013 0.0
C256 C 0.79991 0.16787 0.0141 0.0
H257 H 0.62513 0.38599 -0.00042 0.0
H258 H 0.67372 0.32756 0.01377 0.0
C259 C 0.81837 0.12967 0.01452 0.0
C260 C 0.80946 0.24451 0.00832 0.0
H261 H 0.76738 0.31538 0.05328 0.0
C262 C 0.79829 0.26238 0.9777 0.0
C263 C 0.79865 0.26386 0.03599 0.0
C264 C 0.81098 0.24605 0.06954 0.0
C265 C 0.77508 0.29863 0.9737 0.0
C266 C 0.76424 0.31818 0.0014 0.0
C267 C 0.77601 0.30049 0.03217 0.0
C268 C 0.73879 0.35603 -0.00169 0.0
C269 C 0.76057 0.31461 0.93951 0.0
C270 C 0.76036 0.39211 0.98658 0.0
C271 C 0.73254 0.42507 0.97819 0.0
C272 C 0.68325 0.42284 0.98219 0.0
C273 C 0.66326 0.38835 0.99656 0.0
C274 C 0.69088 0.35504 0.00453 0.0
H275 H 0.75932 0.2903 0.91991 0.0
H276 H 0.72305 0.32569 0.93466 0.0
H277 H 0.78906 0.34112 0.93752 0.0
H278 H 0.79777 0.39394 0.98241 0.0
H279 H 0.74858 0.45153 0.96718 0.0
H280 H 0.67373 0.58015 0.51862 0.0
H281 H 0.72436 0.64801 0.51964 0.0
H282 H 0.59168 0.70856 0.51195 0.0
H283 H 0.54061 0.64094 0.51094 0.0
H284 H 0.65501 0.73283 0.46561 0.0
H285 H 0.7614 0.73996 0.5982 0.0
H286 H 0.75954 0.69269 0.57402 0.0
H287 H 0.70236 0.70626 0.58203 0.0
C288 C 0.65536 0.60791 0.51744 0.0
C289 C 0.60318 0.60518 0.51486 0.0
C290 C 0.68434 0.6466 0.51799 0.0
C291 C 0.66165 0.68312 0.51593 0.0
C292 C 0.60973 0.6806 0.51351 0.0
H293 H 0.79 0.93882 0.55827 0.0
H294 H 0.73351 0.87274 0.54639 0.0
C295 C 0.58074 0.64197 0.51313 0.0
C296 C 0.6921 0.72405 0.51628 0.0
H297 H 0.78451 0.79415 0.56621 0.0
C298 C 0.68344 0.74629 0.48752 0.0
C299 C 0.72888 0.74138 0.54501 0.0
C300 C 0.73859 0.71912 0.57672 0.0
C301 C 0.71099 0.78557 0.48679 0.0
C302 C 0.7477 0.80278 0.5155 0.0
C303 C 0.75634 0.78056 0.54421 0.0
C304 C 0.7765 0.84461 0.51705 0.0
C305 C 0.70035 0.80892 0.4557 0.0
C306 C 0.81834 0.8509 0.50348 0.0
C307 C 0.85086 0.88864 0.51033 0.0
C308 C 0.84191 0.92026 0.53098 0.0
C309 C 0.79796 0.91476 0.54253 0.0
C310 C 0.76568 0.87715 0.53576 0.0
H311 H 0.66808 0.79252 0.43616 0.0
H312 H 0.69193 0.84052 0.46141 0.0
H313 H 0.73444 0.81283 0.44592 0.0
H314 H 0.82735 0.82587 0.48918 0.0
H315 H 0.88469 0.892 0.50137 0.0
H316 H 0.68078 0.36301 0.55312 0.0
H317 H 0.73228 0.30545 0.56216 0.0
H318 H 0.75813 0.31745 0.46511 0.0
H319 H 0.70715 0.3745 0.45606 0.0
H320 H 0.72978 0.22987 0.48693 0.0
H321 H 0.89347 0.33025 0.57136 0.0
H322 H 0.83119 0.33027 0.5778 0.0
H323 H 0.84538 0.35226 0.54183 0.0
C324 C 0.69694 0.35286 0.53364 0.0
C325 C 0.69051 0.37345 0.50405 0.0
C326 C 0.72642 0.32022 0.53885 0.0
C327 C 0.74917 0.30753 0.51434 0.0
C328 C 0.74099 0.32692 0.48433 0.0
H329 H 0.99473 0.18659 0.49128 0.0
H330 H 0.93134 0.23212 0.49426 0.0
C331 C 0.71216 0.35965 0.47929 0.0
C332 C 0.78376 0.27556 0.52006 0.0
H333 H 0.90669 0.26351 0.55497 0.0
C334 C 0.76818 0.23678 0.50228 0.0
C335 C 0.83394 0.2851 0.53979 0.0
C336 C 0.85247 0.32672 0.5588 0.0
C337 C 0.80202 0.20759 0.50308 0.0
C338 C 0.85259 0.21762 0.52208 0.0
C339 C 0.86779 0.25597 0.54054 0.0
C340 C 0.89115 0.19002 0.52104 0.0
C341 C 0.78427 0.16701 0.48245 0.0
C342 C 0.89021 0.15177 0.53582 0.0
C343 C 0.92629 0.12564 0.53398 0.0
C344 C 0.96283 0.13674 0.51639 0.0
C345 C 0.9652 0.17608 0.50321 0.0
C346 C 0.9294 0.2023 0.50523 0.0
H347 H 0.74559 0.16609 0.46604 0.0
H348 H 0.81064 0.16184 0.46698 0.0
H349 H 0.78405 0.14092 0.49903 0.0
H350 H 0.86183 0.14231 0.54896 0.0
H351 H 0.92543 0.09688 0.54631 0.0
H352 H 0.48796 0.34349 0.49593 0.0
H353 H 0.42958 0.27821 0.48975 0.0
H354 H 0.30269 0.34685 0.46256 0.0
H355 H 0.36011 0.41162 0.4686 0.0
H356 H 0.35674 0.26217 0.52661 0.0
H357 H 0.26516 0.24898 0.39227 0.0
H358 H 0.32504 0.28101 0.40998 0.0
H359 H 0.26666 0.3 0.41064 0.0
C360 C 0.44761 0.34448 0.48813 0.0
C361 C 0.42864 0.3827 0.48283 0.0
C362 C 0.41439 0.30724 0.48461 0.0
C363 C 0.36187 0.30768 0.47518 0.0
C364 C 0.34305 0.34568 0.46914 0.0
H365 H 0.10154 0.18623 0.51575 0.0
H366 H 0.17919 0.22832 0.51141 0.0
C367 C 0.37602 0.38276 0.4729 0.0
C368 C 0.32606 0.2695 0.47472 0.0
H369 H 0.21716 0.21393 0.42725 0.0
C370 C 0.32691 0.25092 0.50471 0.0
C371 C 0.28743 0.25462 0.44607 0.0
C372 C 0.28623 0.27193 0.41284 0.0
C373 C 0.28797 0.21997 0.50733 0.0
C374 C 0.24721 0.2076 0.47933 0.0
C375 C 0.24825 0.22388 0.44877 0.0
C376 C 0.20099 0.18114 0.48221 0.0
C377 C 0.28962 0.20182 0.54032 0.0
C378 C 0.18678 0.14118 0.46631 0.0
C379 C 0.14272 0.11674 0.46928 0.0
C380 C 0.11278 0.13172 0.4886 0.0
C381 C 0.12562 0.17273 0.50268 0.0
C382 C 0.16974 0.19695 0.49998 0.0
H383 H 0.32858 0.20639 0.5568 0.0
H384 H 0.26513 0.21752 0.55277 0.0
H385 H 0.27523 0.16801 0.53705 0.0
H386 H 0.20975 0.12895 0.4517 0.0
H387 H 0.13211 0.08629 0.45641 0.0
H388 H 0.27694 0.59242 0.49065 0.0
H389 H 0.24344 0.65851 0.49267 0.0
H390 H 0.39538 0.72401 0.52113 0.0
H391 H 0.42903 0.65791 0.51858 0.0
H392 H 0.25683 0.71501 0.54461 0.0
H393 H 0.33033 0.78839 0.44446 0.0
H394 H 0.33059 0.73381 0.4515 0.0
H395 H 0.37773 0.77211 0.47765 0.0
C396 C 0.30317 0.62092 0.49725 0.0
C397 C 0.35557 0.62002 0.50426 0.0
C398 C 0.28403 0.65865 0.4984 0.0
C399 C 0.31687 0.69626 0.5067 0.0
C400 C 0.36928 0.69549 0.51393 0.0
H401 H 0.22857 0.94787 0.50624 0.0
H402 H 0.27848 0.89051 0.52272 0.0
C403 C 0.38847 0.65772 0.51245 0.0
C404 C 0.29574 0.73597 0.50806 0.0
H405 H 0.28594 0.82872 0.47199 0.0
C406 C 0.26349 0.74 0.52889 0.0
C407 C 0.30467 0.76866 0.48766 0.0
C408 C 0.33734 0.76556 0.46383 0.0
C409 C 0.23888 0.7753 0.5292 0.0
C410 C 0.24664 0.80728 0.5081 0.0
C411 C 0.28043 0.80415 0.4883 0.0
C412 C 0.21578 0.84184 0.50321 0.0
C413 C 0.204 0.77786 0.5516 0.0
C414 C 0.16409 0.83327 0.4873 0.0
C415 C 0.13594 0.86574 0.47773 0.0
C416 C 0.15895 0.90726 0.48419 0.0
C417 C 0.21006 0.91599 0.50154 0.0
C418 C 0.23849 0.88339 0.51076 0.0
H419 H 0.21216 0.75677 0.57217 0.0
H420 H 0.2072 0.81021 0.56219 0.0
H421 H 0.16436 0.76849 0.53702 0.0
H422 H 0.14613 0.80144 0.48075 0.0
H423 H 0.09669 0.85846 0.46399 0.0
H424 H 0.11047 0.94465 0.10933 0.0
H425 H 0.11955 0.93803 0.16892 0.0
H426 H 0.004 0.01697 0.16624 0.0
H427 H 0.99416 0.02328 0.10722 0.0
H428 H 0.14407 -0.00034 0.22133 0.0
H429 H 0.95269 0.91399 0.20835 0.0
H430 H 0.98095 0.91998 0.1739 0.0
H431 H 0.95165 0.96149 0.1874 0.0
C432 C 0.08703 0.96054 0.12149 0.0
C433 C 0.05131 0.98418 0.10346 0.0
C434 C 0.09225 0.95673 0.15547 0.0
C435 C 0.06168 0.97634 0.1718 0.0
C436 C 0.02705 0.00074 0.15398 0.0
H437 H 0.10361 0.03896 0.38065 0.0
H438 H 0.09579 0.03925 0.32101 0.0
C439 C 0.02172 0.00447 0.1202 0.0
C440 C 0.06601 0.97208 0.20756 0.0
H441 H 0.9965 0.94376 0.26243 0.0
C442 C 0.112 0.98709 0.23036 0.0
C443 C 0.02426 0.95519 0.21925 0.0
C444 C 0.97475 0.93635 0.19595 0.0
C445 C 0.11688 0.98691 0.26462 0.0
C446 C 0.07432 0.97205 0.27628 0.0
C447 C 0.02885 0.95577 0.25345 0.0
C448 C 0.07639 0.9724 0.31209 0.0
C449 C 0.16767 0.00228 0.28799 0.0
C450 C 0.06569 0.935 0.32655 0.0
C451 C 0.06923 0.93483 0.36046 0.0
C452 C 0.0835 0.9721 0.38061 0.0
C453 C 0.09228 0.00976 0.36582 0.0
C454 C 0.08859 0.0099 0.33183 0.0
H455 H 0.19888 0.00161 0.27561 0.0
H456 H 0.1681 0.03497 0.29679 0.0
H457 H 0.17513 0.98323 0.30988 0.0
H458 H 0.05557 0.90578 0.3117 0.0
H459 H 0.0614 0.90539 0.37099 0.0
H460 H 0.93135 0.04418 0.90259 0.0
H461 H 0.91995 0.05274 0.84316 0.0
H462 H 0.04636 0.98637 0.84407 0.0
H463 H 0.05837 0.97798 0.90317 0.0
H464 H 0.04648 0.06087 0.80914 0.0
H465 H 0.86298 0.95614 0.77119 0.0
H466 H 0.86716 -0.00164 0.80106 0.0
H467 H 0.9049 0.95719 0.81207 0.0
C468 C 0.95665 0.03139 0.8901 0.0
C469 C 0.9955 0.01011 0.90755 0.0
C470 C 0.95006 0.03628 0.85619 0.0
C471 C 0.98212 0.01992 0.83927 0.0
C472 C 0.02128 -0.00074 0.85672 0.0
H473 H 0.95405 0.93965 0.6402 0.0
H474 H 0.96675 0.95085 0.69993 0.0
C475 C 0.02787 0.99431 0.89049 0.0
C476 C 0.97449 0.02299 0.80316 0.0
H477 H 0.89584 0.98477 0.72879 0.0
C478 C 0.01333 0.04467 0.79147 0.0
C479 C 0.93133 0.00151 0.78034 0.0
C480 C 0.88925 0.97669 0.79162 0.0
C481 C 0.01067 0.04457 0.75747 0.0
C482 C 0.96793 0.02244 0.73474 0.0
C483 C 0.9285 0.00177 0.74639 0.0
C484 C 0.96485 0.01729 0.69898 0.0
C485 C 0.0544 0.06656 0.74617 0.0
C486 C 0.96061 0.05117 0.67879 0.0
C487 C 0.95338 0.04484 0.64453 0.0
C488 C 0.94986 0.00449 0.6301 0.0
C489 C 0.95599 0.97099 0.65063 0.0
C490 C 0.96329 0.97733 0.68471 0.0
H491 H 0.08795 0.07655 0.76718 0.0
H492 H 0.0654 0.04598 0.72824 0.0
H493 H 0.04278 0.09463 0.73342 0.0
H494 H 0.96116 0.08219 0.68934 0.0
H495 H 0.94831 0.07111 0.6292 0.0
H496 H 0.61528 0.46187 0.60808 0.0
H497 H 0.62743 0.46066 0.66817 0.0
H498 H 0.48013 0.49832 0.65871 0.0
H499 H 0.46818 0.50053 0.59906 0.0
H500 H 0.55175 0.54437 0.70721 0.0
H501 H 0.56515 0.37622 0.72113 0.0
H502 H 0.60952 0.40168 0.70068 0.0
H503 H 0.54285 0.39711 0.68139 0.0
C504 C 0.58536 0.46955 0.61881 0.0
C505 C 0.54082 0.48131 0.5988 0.0
C506 C 0.59222 0.46863 0.65311 0.0
C507 C 0.55439 0.47891 0.66787 0.0
C508 C 0.50977 0.49022 0.64786 0.0
H509 H 0.51974 0.49089 0.86968 0.0
H510 H 0.50581 0.49165 0.80938 0.0
C511 C 0.50303 0.49142 0.61372 0.0
C512 C 0.56179 0.47964 0.70427 0.0
H513 H 0.58517 0.4197 0.77079 0.0
C514 C 0.55876 0.51704 0.72108 0.0
C515 C 0.57077 0.44391 0.7223 0.0
C516 C 0.5718 0.40234 0.70546 0.0
C517 C 0.56531 0.51983 0.7555 0.0
C518 C 0.57486 0.48428 0.77348 0.0
C519 C 0.57784 0.44688 0.75678 0.0
C520 C 0.58322 0.48555 0.80984 0.0
C521 C 0.56299 0.56092 0.77257 0.0
C522 C 0.6313 0.48204 0.82985 0.0
C523 C 0.63948 0.482 0.86415 0.0
C524 C 0.5995 0.48489 0.87913 0.0
C525 C 0.55139 0.48897 0.85897 0.0
C526 C 0.54332 0.48926 0.82456 0.0
H527 H 0.56321 0.58696 0.75591 0.0
H528 H 0.52777 0.55883 0.78107 0.0
H529 H 0.59545 0.56819 0.79471 0.0
H530 H 0.66257 0.47936 0.81889 0.0
H531 H 0.67724 0.47969 0.87895 0.0
H532 H 0.55993 0.47903 0.40038 0.0
H533 H 0.5499 0.48831 0.34151 0.0
H534 H 0.41894 0.54973 0.33841 0.0
H535 H 0.42833 0.5402 0.39749 0.0
H536 H 0.40333 0.4878 0.28856 0.0
H537 H 0.57959 0.59377 0.29454 0.0
H538 H 0.59067 0.54818 0.31712 0.0
H539 H 0.55468 0.58499 0.3302 0.0
C540 C 0.52907 0.49469 0.38728 0.0
C541 C 0.49486 0.50885 0.40362 0.0
C542 C 0.52372 0.50033 0.35368 0.0
C543 C 0.4843 0.52044 0.33578 0.0
C544 C 0.44994 0.53451 0.35192 0.0
H545 H 0.44971 0.56935 0.12567 0.0
H546 H 0.46111 0.58025 0.18569 0.0
C547 C 0.45529 0.52894 0.38562 0.0
C548 C 0.47718 0.52402 0.29974 0.0
H549 H 0.5384 0.55772 0.24172 0.0
C550 C 0.43254 0.50361 0.27831 0.0
C551 C 0.51506 0.54513 0.28644 0.0
C552 C 0.56248 0.56963 0.30827 0.0
C553 C 0.42586 0.5019 0.24392 0.0
C554 C 0.46515 0.52063 0.23074 0.0
C555 C 0.50867 0.54294 0.252 0.0
C556 C 0.46258 0.51512 0.1951 0.0
C557 C 0.37712 0.47946 0.22197 0.0
C558 C 0.46153 0.4752 0.18095 0.0
C559 C 0.45533 0.46895 0.14697 0.0
C560 C 0.45017 0.50256 0.12647 0.0
C561 C 0.45374 0.54292 0.14091 0.0
C562 C 0.45998 0.54916 0.17507 0.0
H563 H 0.34619 0.47681 0.23479 0.0
H564 H 0.36504 0.4957 0.19888 0.0
H565 H 0.38297 0.4475 0.21502 0.0
H566 H 0.46461 0.44871 0.19617 0.0
H567 H 0.45375 0.43764 0.13661 0.0
loop_
_geom_bond_atom_site_label_1
_geom_bond_atom_site_label_2
_geom_bond_distance
_geom_bond_site_symmetry_2
_ccdc_geom_bond_type
Co0 N5 2.057 . S
Co0 O17 2.021 . S
Co0 O20 2.062 . S
Co0 O24 2.117 1_554 S
Co0 O25 2.020 1_565 S
C1 O21 1.259 1_455 S
C1 O24 1.258 1_545 S
Co2 N11 2.056 . S
Co2 O18 2.114 1_655 S
Co2 O19 2.019 1_544 S
Co2 O21 2.024 1_554 S
Co2 O26 2.062 1_655 S
C3 N5 1.316 . S
C3 N6 1.347 . S
C3 H8 0.931 . S
C4 N5 1.375 1_556 S
C4 C7 1.350 . S
C4 H9 0.930 . S
N5 Co0 2.057 . S
N5 C3 1.316 . S
N5 C4 1.375 1_554 S
N6 C3 1.347 . S
N6 C7 1.373 1_554 S
C7 C4 1.350 . S
C7 N6 1.373 1_556 S
C7 H28 0.931 . S
H8 C3 0.931 . S
H9 C4 0.930 . S
C10 O17 1.261 1_545 S
C10 O18 1.257 . S
N11 Co2 2.056 . S
N11 C12 1.316 1_554 S
N11 C13 1.375 . S
C12 N11 1.316 1_556 S
C12 N14 1.344 1_556 S
C12 H23 0.931 . S
C13 N11 1.375 . S
C13 C15 1.350 . S
C13 H22 0.930 . S
N14 C12 1.344 1_554 S
N14 C15 1.378 . S
C15 C13 1.350 . S
C15 N14 1.378 . S
C15 H29 0.931 . S
C16 O19 1.256 1_554 S
C16 O20 1.255 1_655 S
O17 Co0 2.021 . S
O17 C10 1.261 1_565 S
O18 Co2 2.114 1_455 S
O18 C10 1.257 . S
O19 Co2 2.019 1_566 S
O19 C16 1.256 1_556 S
O20 Co0 2.062 . S
O20 C16 1.255 1_455 S
O21 C1 1.259 1_655 S
O21 Co2 2.024 1_556 S
H22 C13 0.930 . S
H23 C12 0.931 . S
O24 Co0 2.117 1_556 S
O24 C1 1.258 1_565 S
O25 Co0 2.020 1_545 S
O25 C27 1.256 . S
O26 Co2 2.062 1_455 S
O26 C27 1.255 . S
C27 O25 1.256 . S
C27 O26 1.255 . S
H28 C7 0.931 . S
H29 C15 0.931 . S
Co30 N35 2.057 . S
Co30 O47 2.021 . S
Co30 O50 2.062 . S
Co30 O54 2.117 . S
Co30 O55 2.020 . S
C31 O51 1.259 . S
C31 O54 1.258 . S
Co32 N41 2.057 . S
Co32 O48 2.117 . S
Co32 O49 2.020 . S
Co32 O51 2.021 . S
Co32 O56 2.062 . S
C33 N35 1.316 . S
C33 N36 1.347 . S
C33 H38 0.931 . S
C34 N35 1.375 . S
C34 C37 1.350 . S
C34 H39 0.930 . S
N35 Co30 2.057 . S
N35 C33 1.316 . S
N35 C34 1.375 . S
N36 C33 1.347 . S
N36 C37 1.373 . S
C37 C34 1.350 . S
C37 N36 1.373 . S
C37 H58 0.931 . S
H38 C33 0.931 . S
H39 C34 0.930 . S
C40 O47 1.259 . S
C40 O48 1.258 . S
N41 Co32 2.057 . S
N41 C42 1.316 . S
N41 C43 1.375 . S
C42 N41 1.316 . S
C42 N44 1.347 . S
C42 H53 0.931 . S
C43 N41 1.375 . S
C43 C45 1.350 . S
C43 H52 0.930 . S
N44 C42 1.347 . S
N44 C45 1.373 . S
C45 C43 1.350 . S
C45 N44 1.373 . S
C45 H59 0.931 . S
C46 O49 1.256 . S
C46 O50 1.255 . S
O47 Co30 2.021 . S
O47 C40 1.259 . S
O48 Co32 2.117 . S
O48 C40 1.258 . S
O49 Co32 2.020 . S
O49 C46 1.256 . S
O50 Co30 2.062 . S
O50 C46 1.255 . S
O51 C31 1.259 . S
O51 Co32 2.021 . S
H52 C43 0.930 . S
H53 C42 0.931 . S
O54 Co30 2.117 . S
O54 C31 1.258 . S
O55 Co30 2.020 . S
O55 C57 1.256 . S
O56 Co32 2.062 . S
O56 C57 1.255 . S
C57 O55 1.256 . S
C57 O56 1.255 . S
H58 C37 0.931 . S
H59 C45 0.931 . S
H60 C61 0.949 . S
C61 H60 0.949 . S
C61 C62 1.395 1_545 S
C61 C63 1.391 . S
C62 C61 1.395 1_565 S
C62 C65 1.390 . S
C63 C61 1.391 . S
C63 C67 1.387 1_545 S
C63 C68 1.491 . S
H64 C65 0.950 . S
C65 C62 1.390 . S
C65 H64 0.950 . S
C65 C66 1.378 . S
C66 C65 1.378 . S
C66 C67 1.409 . S
C67 C63 1.387 1_565 S
C67 C66 1.409 . S
C67 H69 0.951 . S
C68 C63 1.491 . S
C68 C70 1.378 1_455 S
C68 C72 1.404 . S
H69 C67 0.951 . S
C70 C68 1.378 1_655 S
C70 C71 1.392 . S
C70 H75 0.951 . S
C71 C70 1.392 . S
C71 C76 1.399 1_655 S
C72 C68 1.404 . S
C72 H73 0.950 . S
C72 C74 1.375 . S
H73 C72 0.950 . S
C74 C72 1.375 . S
C74 C76 1.382 . S
C74 H78 0.950 . S
H75 C70 0.951 . S
C76 C71 1.399 1_455 S
C76 C74 1.382 . S
C76 H77 0.952 . S
H77 C76 0.952 . S
H78 C74 0.950 . S
H79 C80 0.950 1_455 S
C80 H79 0.950 1_655 S
C80 C81 1.396 . S
C80 C82 1.391 . S
C81 C80 1.396 . S
C81 C84 1.387 1_545 S
C82 C80 1.391 . S
C82 C86 1.387 1_545 S
C82 C87 1.491 1_655 S
H83 C84 0.950 . S
C84 C81 1.387 1_565 S
C84 H83 0.950 . S
C84 C85 1.378 . S
C85 C84 1.378 . S
C85 C86 1.409 . S
C86 C82 1.387 1_565 S
C86 C85 1.409 . S
C86 H88 0.951 . S
C87 C82 1.491 1_455 S
C87 C89 1.382 . S
C87 C91 1.404 1_455 S
H88 C86 0.951 . S
C89 C87 1.382 . S
C89 C90 1.390 . S
C89 H94 0.949 . S
C90 C89 1.390 . S
C90 C95 1.399 . S
C91 C87 1.404 1_655 S
C91 H92 0.950 . S
C91 C93 1.375 . S
H92 C91 0.950 . S
C93 C91 1.375 . S
C93 C95 1.382 1_655 S
C93 H97 0.950 . S
H94 C89 0.949 . S
C95 C90 1.399 . S
C95 C93 1.382 1_455 S
C95 H96 0.952 . S
H96 C95 0.952 . S
H97 C93 0.950 . S
H98 C99 0.949 . S
C99 H98 0.949 . S
C99 C100 1.395 . S
C99 C101 1.391 . S
C100 C99 1.395 . S
C100 C103 1.390 . S
C101 C99 1.391 . S
C101 C105 1.387 . S
C101 C106 1.491 . S
H102 C103 0.950 . S
C103 C100 1.390 . S
C103 H102 0.950 . S
C103 C104 1.378 . S
C104 C103 1.378 . S
C104 C105 1.409 . S
C105 C101 1.387 . S
C105 C104 1.409 . S
C105 H107 0.951 1_556 S
C106 C101 1.491 . S
C106 C108 1.382 . S
C106 C110 1.404 1_556 S
H107 C105 0.951 1_554 S
C108 C106 1.382 . S
C108 C109 1.390 1_556 S
C108 H113 0.949 . S
C109 C108 1.390 1_554 S
C109 C114 1.399 . S
C110 C106 1.404 1_554 S
C110 H111 0.950 . S
C110 C112 1.375 . S
H111 C110 0.950 . S
C112 C110 1.375 . S
C112 C114 1.382 . S
C112 H116 0.950 . S
H113 C108 0.949 . S
C114 C109 1.399 . S
C114 C112 1.382 . S
C114 H115 0.952 . S
H115 C114 0.952 . S
H116 C112 0.950 . S
H117 C118 0.949 . S
C118 H117 0.949 . S
C118 C119 1.395 . S
C118 C120 1.391 . S
C119 C118 1.395 . S
C119 C122 1.390 . S
C120 C118 1.391 . S
C120 C124 1.387 . S
C120 C125 1.491 . S
H121 C122 0.950 . S
C122 C119 1.390 . S
C122 H121 0.950 . S
C122 C123 1.378 . S
C123 C122 1.378 . S
C123 C124 1.409 . S
C124 C120 1.387 . S
C124 C123 1.409 . S
C124 H126 0.936 1_554 S
C125 C120 1.491 . S
C125 C127 1.382 . S
C125 C129 1.404 1_554 S
H126 C124 0.936 1_556 S
C127 C125 1.382 . S
C127 C128 1.390 . S
C127 H132 0.949 . S
C128 C127 1.390 . S
C128 C133 1.399 1_554 S
C129 C125 1.404 1_556 S
C129 H130 0.950 . S
C129 C131 1.375 . S
H130 C129 0.950 . S
C131 C129 1.375 . S
C131 C133 1.382 . S
C131 H135 0.950 . S
H132 C127 0.949 . S
C133 C128 1.399 1_556 S
C133 C131 1.382 . S
C133 H134 0.952 . S
H134 C133 0.952 . S
H135 C131 0.950 . S
H136 C144 0.929 . S
H137 C146 0.930 . S
H138 C148 0.930 . S
H139 C151 0.929 . S
H140 C154 0.930 . S
H141 C156 0.960 . S
H142 C156 0.960 1_554 S
H143 C156 0.960 . S
C144 H136 0.929 . S
C144 C145 1.377 . S
C144 C146 1.384 . S
C145 C144 1.377 . S
C145 C151 1.390 1_554 S
C146 H137 0.930 . S
C146 C144 1.384 . S
C146 C147 1.372 . S
C147 C146 1.372 . S
C147 C148 1.400 1_554 S
C147 C152 1.490 . S
C148 H138 0.930 . S
C148 C147 1.400 1_556 S
C148 C151 1.386 . S
H149 C165 0.930 1_556 S
H150 C166 0.931 1_556 S
C151 H139 0.929 . S
C151 C145 1.390 1_556 S
C151 C148 1.386 . S
C152 C147 1.490 . S
C152 C154 1.395 . S
C152 C155 1.403 . S
H153 C159 0.930 . S
C154 H140 0.930 . S
C154 C152 1.395 . S
C154 C157 1.403 . S
C155 C152 1.403 . S
C155 C156 1.524 1_554 S
C155 C159 1.400 . S
C156 H141 0.960 . S
C156 H142 0.960 1_556 S
C156 H143 0.960 . S
C156 C155 1.524 1_556 S
C157 C154 1.403 . S
C157 C158 1.392 . S
C157 C161 1.495 . S
C158 C157 1.392 . S
C158 C159 1.385 . S
C158 C160 1.478 . S
C159 H153 0.930 . S
C159 C155 1.400 . S
C159 C158 1.385 . S
C160 C158 1.478 . S
C160 C162 1.381 . S
C160 C166 1.383 . S
C161 C157 1.495 . S
C161 H167 0.959 . S
C161 H168 0.961 . S
C161 H169 0.960 . S
C162 C160 1.381 . S
C162 C163 1.394 . S
C162 H170 0.930 . S
C163 C162 1.394 . S
C163 C164 1.383 . S
C163 H171 0.929 . S
C164 C163 1.383 . S
C164 C165 1.377 . S
C165 H149 0.930 1_554 S
C165 C164 1.377 . S
C165 C166 1.379 . S
C166 H150 0.931 1_554 S
C166 C160 1.383 . S
C166 C165 1.379 . S
H167 C161 0.959 . S
H168 C161 0.961 . S
H169 C161 0.960 . S
H170 C162 0.930 . S
H171 C163 0.929 . S
H172 C180 0.929 . S
H173 C182 0.930 . S
H174 C184 0.930 . S
H175 C187 0.929 . S
H176 C190 0.930 . S
H177 C192 0.960 . S
H178 C192 0.960 . S
H179 C192 0.960 1_556 S
C180 H172 0.929 . S
C180 C181 1.377 . S
C180 C182 1.384 . S
C181 C180 1.377 . S
C181 C187 1.390 1_554 S
C182 H173 0.930 . S
C182 C180 1.384 . S
C182 C183 1.372 . S
C183 C182 1.372 . S
C183 C184 1.400 1_554 S
C183 C188 1.490 . S
C184 H174 0.930 . S
C184 C183 1.400 1_556 S
C184 C187 1.386 . S
H185 C201 0.930 . S
H186 C202 0.931 . S
C187 H175 0.929 . S
C187 C181 1.390 1_556 S
C187 C184 1.386 . S
C188 C183 1.490 . S
C188 C190 1.395 . S
C188 C191 1.403 . S
H189 C195 0.930 . S
C190 H176 0.930 . S
C190 C188 1.395 . S
C190 C193 1.403 . S
C191 C188 1.403 . S
C191 C192 1.524 . S
C191 C195 1.400 . S
C192 H177 0.960 . S
C192 H178 0.960 . S
C192 H179 0.960 1_554 S
C192 C191 1.524 . S
C193 C190 1.403 . S
C193 C194 1.392 . S
C193 C197 1.495 . S
C194 C193 1.392 . S
C194 C195 1.385 . S
C194 C196 1.478 . S
C195 H189 0.930 . S
C195 C191 1.400 . S
C195 C194 1.385 . S
C196 C194 1.478 . S
C196 C198 1.381 . S
C196 C202 1.383 1_554 S
C197 C193 1.495 . S
C197 H203 0.959 . S
C197 H204 0.961 1_554 S
C197 H205 0.960 . S
C198 C196 1.381 . S
C198 C199 1.394 . S
C198 H206 0.930 . S
C199 C198 1.394 . S
C199 C200 1.383 . S
C199 H207 0.929 . S
C200 C199 1.383 . S
C200 C201 1.377 1_554 S
C201 H185 0.930 . S
C201 C200 1.377 1_556 S
C201 C202 1.379 . S
C202 H186 0.931 . S
C202 C196 1.383 1_556 S
C202 C201 1.379 . S
H203 C197 0.959 . S
H204 C197 0.961 1_556 S
H205 C197 0.960 . S
H206 C198 0.930 . S
H207 C199 0.929 . S
H208 C216 0.929 . S
H209 C218 0.930 . S
H210 C220 0.930 . S
H211 C223 0.929 . S
H212 C226 0.930 . S
H213 C228 0.960 . S
H214 C228 0.960 . S
H215 C228 0.975 . S
C216 H208 0.929 . S
C216 C217 1.377 1_556 S
C216 C218 1.384 . S
C217 C216 1.377 1_554 S
C217 C223 1.391 . S
C218 H209 0.930 . S
C218 C216 1.384 . S
C218 C219 1.372 1_556 S
C219 C218 1.372 1_554 S
C219 C220 1.400 . S
C219 C224 1.490 . S
C220 H210 0.930 . S
C220 C219 1.400 . S
C220 C223 1.386 . S
H221 C237 0.930 . S
H222 C238 0.931 . S
C223 H211 0.929 . S
C223 C217 1.391 . S
C223 C220 1.386 . S
C224 C219 1.490 . S
C224 C226 1.395 . S
C224 C227 1.403 1_554 S
H225 C231 0.930 . S
C226 H212 0.930 . S
C226 C224 1.395 . S
C226 C229 1.403 . S
C227 C224 1.403 1_556 S
C227 C228 1.524 . S
C227 C231 1.400 . S
C228 H213 0.960 . S
C228 H214 0.960 . S
C228 H215 0.975 . S
C228 C227 1.524 . S
C229 C226 1.403 . S
C229 C230 1.392 . S
C229 C233 1.495 . S
C230 C229 1.392 . S
C230 C231 1.385 1_554 S
C230 C232 1.478 . S
C231 H225 0.930 . S
C231 C227 1.400 . S
C231 C230 1.385 1_556 S
C232 C230 1.478 . S
C232 C234 1.381 1_554 S
C232 C238 1.383 . S
C233 C229 1.495 . S
C233 H239 0.959 . S
C233 H240 0.961 . S
C233 H241 0.960 . S
C234 C232 1.381 1_556 S
C234 C235 1.394 . S
C234 H242 0.930 . S
C235 C234 1.394 . S
C235 C236 1.383 1_556 S
C235 H243 0.929 . S
C236 C235 1.383 1_554 S
C236 C237 1.377 . S
C237 H221 0.930 . S
C237 C236 1.377 . S
C237 C238 1.379 . S
C238 H222 0.931 . S
C238 C232 1.383 . S
C238 C237 1.379 . S
H239 C233 0.959 . S
H240 C233 0.961 . S
H241 C233 0.960 . S
H242 C234 0.930 . S
H243 C235 0.929 . S
H244 C252 0.929 . S
H245 C254 0.930 . S
H246 C256 0.930 1_554 S
H247 C259 0.929 1_554 S
H248 C262 0.930 . S
H249 C264 0.960 . S
H250 C264 0.960 . S
H251 C264 0.960 . S
C252 H244 0.929 . S
C252 C253 1.377 . S
C252 C254 1.384 . S
C253 C252 1.377 . S
C253 C259 1.390 . S
C254 H245 0.930 . S
C254 C252 1.384 . S
C254 C255 1.372 . S
C255 C254 1.372 . S
C255 C256 1.400 . S
C255 C260 1.490 . S
C256 H246 0.930 1_556 S
C256 C255 1.400 . S
C256 C259 1.386 . S
H257 C273 0.930 . S
H258 C274 0.931 . S
C259 H247 0.929 1_556 S
C259 C253 1.390 . S
C259 C256 1.386 . S
C260 C255 1.490 . S
C260 C262 1.395 . S
C260 C263 1.403 1_556 S
H261 C267 0.930 . S
C262 H248 0.930 . S
C262 C260 1.395 . S
C262 C265 1.403 . S
C263 C260 1.403 1_554 S
C263 C264 1.524 . S
C263 C267 1.400 . S
C264 H249 0.960 . S
C264 H250 0.960 . S
C264 H251 0.960 . S
C264 C263 1.524 . S
C265 C262 1.403 . S
C265 C266 1.392 . S
C265 C269 1.495 . S
C266 C265 1.392 . S
C266 C267 1.385 1_556 S
C266 C268 1.478 . S
C267 H261 0.930 . S
C267 C263 1.400 . S
C267 C266 1.385 1_554 S
C268 C266 1.478 . S
C268 C270 1.381 . S
C268 C274 1.383 . S
C269 C265 1.495 . S
C269 H275 0.959 . S
C269 H276 0.961 . S
C269 H277 0.960 . S
C270 C268 1.381 . S
C270 C271 1.394 . S
C270 H278 0.930 . S
C271 C270 1.394 . S
C271 C272 1.383 . S
C271 H279 0.929 . S
C272 C271 1.383 . S
C272 C273 1.377 . S
C273 H257 0.930 . S
C273 C272 1.377 . S
C273 C274 1.379 . S
C274 H258 0.931 . S
C274 C268 1.383 . S
C274 C273 1.379 . S
H275 C269 0.959 . S
H276 C269 0.961 . S
H277 C269 0.960 . S
H278 C270 0.930 . S
H279 C271 0.929 . S
H280 C288 0.929 . S
H281 C290 0.930 . S
H282 C292 0.930 . S
H283 C295 0.929 . S
H284 C298 0.930 . S
H285 C300 0.960 . S
H286 C300 0.960 . S
H287 C300 0.960 . S
C288 H280 0.929 . S
C288 C289 1.377 . S
C288 C290 1.384 . S
C289 C288 1.377 . S
C289 C295 1.390 . S
C290 H281 0.930 . S
C290 C288 1.384 . S
C290 C291 1.372 . S
C291 C290 1.372 . S
C291 C292 1.400 . S
C291 C296 1.490 . S
C292 H282 0.930 . S
C292 C291 1.400 . S
C292 C295 1.386 . S
H293 C309 0.930 . S
H294 C310 0.931 . S
C295 H283 0.929 . S
C295 C289 1.390 . S
C295 C292 1.386 . S
C296 C291 1.490 . S
C296 C298 1.395 . S
C296 C299 1.403 . S
H297 C303 0.930 . S
C298 H284 0.930 . S
C298 C296 1.395 . S
C298 C301 1.403 . S
C299 C296 1.403 . S
C299 C300 1.524 . S
C299 C303 1.400 . S
C300 H285 0.960 . S
C300 H286 0.960 . S
C300 H287 0.960 . S
C300 C299 1.524 . S
C301 C298 1.403 . S
C301 C302 1.392 . S
C301 C305 1.495 . S
C302 C301 1.392 . S
C302 C303 1.385 . S
C302 C304 1.478 . S
C303 H297 0.930 . S
C303 C299 1.400 . S
C303 C302 1.385 . S
C304 C302 1.478 . S
C304 C306 1.381 . S
C304 C310 1.383 . S
C305 C301 1.495 . S
C305 H311 0.959 . S
C305 H312 0.961 . S
C305 H313 0.960 . S
C306 C304 1.381 . S
C306 C307 1.394 . S
C306 H314 0.930 . S
C307 C306 1.394 . S
C307 C308 1.383 . S
C307 H315 0.929 . S
C308 C307 1.383 . S
C308 C309 1.377 . S
C309 H293 0.930 . S
C309 C308 1.377 . S
C309 C310 1.379 . S
C310 H294 0.931 . S
C310 C304 1.383 . S
C310 C309 1.379 . S
H311 C305 0.959 . S
H312 C305 0.961 . S
H313 C305 0.960 . S
H314 C306 0.930 . S
H315 C307 0.929 . S
H316 C324 0.929 . S
H317 C326 0.930 . S
H318 C328 0.930 . S
H319 C331 0.929 . S
H320 C334 0.930 . S
H321 C336 0.960 . S
H322 C336 0.960 . S
H323 C336 0.960 . S
C324 H316 0.929 . S
C324 C325 1.377 . S
C324 C326 1.384 . S
C325 C324 1.377 . S
C325 C331 1.390 . S
C326 H317 0.930 . S
C326 C324 1.384 . S
C326 C327 1.372 . S
C327 C326 1.372 . S
C327 C328 1.400 . S
C327 C332 1.490 . S
C328 H318 0.930 . S
C328 C327 1.400 . S
C328 C331 1.386 . S
H329 C345 0.930 . S
H330 C346 0.931 . S
C331 H319 0.929 . S
C331 C325 1.390 . S
C331 C328 1.386 . S
C332 C327 1.490 . S
C332 C334 1.395 . S
C332 C335 1.403 . S
H333 C339 0.930 . S
C334 H320 0.930 . S
C334 C332 1.395 . S
C334 C337 1.403 . S
C335 C332 1.403 . S
C335 C336 1.524 . S
C335 C339 1.400 . S
C336 H321 0.960 . S
C336 H322 0.960 . S
C336 H323 0.960 . S
C336 C335 1.524 . S
C337 C334 1.403 . S
C337 C338 1.392 . S
C337 C341 1.495 . S
C338 C337 1.392 . S
C338 C339 1.385 . S
C338 C340 1.478 . S
C339 H333 0.930 . S
C339 C335 1.400 . S
C339 C338 1.385 . S
C340 C338 1.478 . S
C340 C342 1.381 . S
C340 C346 1.383 . S
C341 C337 1.495 . S
C341 H347 0.959 . S
C341 H348 0.961 . S
C341 H349 0.960 . S
C342 C340 1.381 . S
C342 C343 1.394 . S
C342 H350 0.930 . S
C343 C342 1.394 . S
C343 C344 1.383 . S
C343 H351 0.929 . S
C344 C343 1.383 . S
C344 C345 1.377 . S
C345 H329 0.930 . S
C345 C344 1.377 . S
C345 C346 1.379 . S
C346 H330 0.931 . S
C346 C340 1.383 . S
C346 C345 1.379 . S
H347 C341 0.959 . S
H348 C341 0.961 . S
H349 C341 0.960 . S
H350 C342 0.930 . S
H351 C343 0.929 . S
H352 C360 0.929 . S
H353 C362 0.930 . S
H354 C364 0.930 . S
H355 C367 0.929 . S
H356 C370 0.930 . S
H357 C372 0.960 . S
H358 C372 0.960 . S
H359 C372 0.960 . S
C360 H352 0.929 . S
C360 C361 1.377 . S
C360 C362 1.384 . S
C361 C360 1.377 . S
C361 C367 1.390 . S
C362 H353 0.930 . S
C362 C360 1.384 . S
C362 C363 1.372 . S
C363 C362 1.372 . S
C363 C364 1.400 . S
C363 C368 1.490 . S
C364 H354 0.930 . S
C364 C363 1.400 . S
C364 C367 1.386 . S
H365 C381 0.930 . S
H366 C382 0.931 . S
C367 H355 0.929 . S
C367 C361 1.390 . S
C367 C364 1.386 . S
C368 C363 1.490 . S
C368 C370 1.395 . S
C368 C371 1.403 . S
H369 C375 0.930 . S
C370 H356 0.930 . S
C370 C368 1.395 . S
C370 C373 1.403 . S
C371 C368 1.403 . S
C371 C372 1.524 . S
C371 C375 1.400 . S
C372 H357 0.960 . S
C372 H358 0.960 . S
C372 H359 0.960 . S
C372 C371 1.524 . S
C373 C370 1.403 . S
C373 C374 1.392 . S
C373 C377 1.495 . S
C374 C373 1.392 . S
C374 C375 1.385 . S
C374 C376 1.478 . S
C375 H369 0.930 . S
C375 C371 1.400 . S
C375 C374 1.385 . S
C376 C374 1.478 . S
C376 C378 1.381 . S
C376 C382 1.383 . S
C377 C373 1.495 . S
C377 H383 0.959 . S
C377 H384 0.961 . S
C377 H385 0.960 . S
C378 C376 1.381 . S
C378 C379 1.394 . S
C378 H386 0.930 . S
C379 C378 1.394 . S
C379 C380 1.383 . S
C379 H387 0.929 . S
C380 C379 1.383 . S
C380 C381 1.377 . S
C381 H365 0.930 . S
C381 C380 1.377 . S
C381 C382 1.379 . S
C382 H366 0.931 . S
C382 C376 1.383 . S
C382 C381 1.379 . S
H383 C377 0.959 . S
H384 C377 0.961 . S
H385 C377 0.960 . S
H386 C378 0.930 . S
H387 C379 0.929 . S
H388 C396 0.929 . S
H389 C398 0.930 . S
H390 C400 0.930 . S
H391 C403 0.929 . S
H392 C406 0.930 . S
H393 C408 0.960 . S
H394 C408 0.960 . S
H395 C408 0.960 . S
C396 H388 0.929 . S
C396 C397 1.377 . S
C396 C398 1.384 . S
C397 C396 1.377 . S
C397 C403 1.390 . S
C398 H389 0.930 . S
C398 C396 1.384 . S
C398 C399 1.372 . S
C399 C398 1.372 . S
C399 C400 1.400 . S
C399 C404 1.490 . S
C400 H390 0.930 . S
C400 C399 1.400 . S
C400 C403 1.386 . S
H401 C417 0.930 . S
H402 C418 0.931 . S
C403 H391 0.929 . S
C403 C397 1.390 . S
C403 C400 1.386 . S
C404 C399 1.490 . S
C404 C406 1.395 . S
C404 C407 1.403 . S
H405 C411 0.930 . S
C406 H392 0.930 . S
C406 C404 1.395 . S
C406 C409 1.403 . S
C407 C404 1.403 . S
C407 C408 1.524 . S
C407 C411 1.400 . S
C408 H393 0.960 . S
C408 H394 0.960 . S
C408 H395 0.960 . S
C408 C407 1.524 . S
C409 C406 1.403 . S
C409 C410 1.392 . S
C409 C413 1.495 . S
C410 C409 1.392 . S
C410 C411 1.385 . S
C410 C412 1.478 . S
C411 H405 0.930 . S
C411 C407 1.400 . S
C411 C410 1.385 . S
C412 C410 1.478 . S
C412 C414 1.381 . S
C412 C418 1.383 . S
C413 C409 1.495 . S
C413 H419 0.959 . S
C413 H420 0.961 . S
C413 H421 0.960 . S
C414 C412 1.381 . S
C414 C415 1.394 . S
C414 H422 0.930 . S
C415 C414 1.394 . S
C415 C416 1.383 . S
C415 H423 0.929 . S
C416 C415 1.383 . S
C416 C417 1.377 . S
C417 H401 0.930 . S
C417 C416 1.377 . S
C417 C418 1.379 . S
C418 H402 0.931 . S
C418 C412 1.383 . S
C418 C417 1.379 . S
H419 C413 0.959 . S
H420 C413 0.961 . S
H421 C413 0.960 . S
H422 C414 0.930 . S
H423 C415 0.929 . S
H424 C432 0.929 . S
H425 C434 0.930 . S
H426 C436 0.930 . S
H427 C439 0.929 . S
H428 C442 0.930 . S
H429 C444 0.960 . S
H430 C444 0.960 . S
H431 C444 0.960 . S
C432 H424 0.929 . S
C432 C433 1.367 1_565 S
C432 C434 1.384 . S
C433 C432 1.367 1_545 S
C433 C439 1.400 . S
C434 H425 0.930 . S
C434 C432 1.384 . S
C434 C435 1.372 . S
C435 C434 1.372 . S
C435 C436 1.400 1_565 S
C435 C440 1.490 . S
C436 H426 0.930 . S
C436 C435 1.400 1_545 S
C436 C439 1.386 . S
H437 C453 0.930 . S
H438 C454 0.931 . S
C439 H427 0.929 . S
C439 C433 1.400 . S
C439 C436 1.386 . S
C440 C435 1.490 . S
C440 C442 1.395 . S
C440 C443 1.403 1_565 S
H441 C447 0.930 . S
C442 H428 0.930 . S
C442 C440 1.395 . S
C442 C445 1.403 . S
C443 C440 1.403 1_545 S
C443 C444 1.524 1_455 S
C443 C447 1.400 . S
C444 H429 0.960 . S
C444 H430 0.960 . S
C444 H431 0.960 . S
C444 C443 1.524 1_655 S
C445 C442 1.403 . S
C445 C446 1.392 . S
C445 C449 1.495 . S
C446 C445 1.392 . S
C446 C447 1.385 1_565 S
C446 C448 1.478 . S
C447 H441 0.930 . S
C447 C443 1.400 . S
C447 C446 1.385 1_545 S
C448 C446 1.478 . S
C448 C450 1.381 . S
C448 C454 1.383 1_565 S
C449 C445 1.495 . S
C449 H455 0.959 . S
C449 H456 0.961 . S
C449 H457 0.960 . S
C450 C448 1.381 . S
C450 C451 1.394 . S
C450 H458 0.930 . S
C451 C450 1.394 . S
C451 C452 1.403 . S
C451 H459 0.929 . S
C452 C451 1.403 . S
C452 C453 1.358 1_565 S
C453 H437 0.930 . S
C453 C452 1.358 1_545 S
C453 C454 1.379 . S
C454 H438 0.931 . S
C454 C448 1.383 1_545 S
C454 C453 1.379 . S
H455 C449 0.959 . S
H456 C449 0.961 . S
H457 C449 0.960 . S
H458 C450 0.930 . S
H459 C451 0.929 . S
H460 C468 0.929 . S
H461 C470 0.930 . S
H462 C472 0.930 . S
H463 C475 0.929 . S
H464 C478 0.930 . S
H465 C480 0.960 . S
H466 C480 0.960 . S
H467 C480 0.960 . S
C468 H460 0.929 . S
C468 C469 1.377 1_655 S
C468 C470 1.384 . S
C469 C468 1.377 1_455 S
C469 C475 1.390 1_545 S
C470 H461 0.930 . S
C470 C468 1.384 . S
C470 C471 1.360 1_655 S
C471 C470 1.360 1_455 S
C471 C472 1.408 1_545 S
C471 C476 1.494 1_455 S
C472 H462 0.930 . S
C472 C471 1.408 1_565 S
C472 C475 1.386 . S
H473 C489 0.930 . S
H474 C490 0.931 . S
C475 H463 0.929 . S
C475 C469 1.390 1_565 S
C475 C472 1.386 . S
C476 C471 1.494 1_655 S
C476 C478 1.395 1_655 S
C476 C479 1.403 1_545 S
H477 C483 0.930 . S
C478 H464 0.930 . S
C478 C476 1.395 1_455 S
C478 C481 1.403 . S
C479 C476 1.403 1_565 S
C479 C480 1.524 . S
C479 C483 1.400 . S
C480 H465 0.960 . S
C480 H466 0.960 . S
C480 H467 0.960 . S
C480 C479 1.524 . S
C481 C478 1.403 . S
C481 C482 1.392 1_455 S
C481 C485 1.495 . S
C482 C481 1.392 1_655 S
C482 C483 1.385 1_545 S
C482 C484 1.478 . S
C483 H477 0.930 . S
C483 C479 1.400 . S
C483 C482 1.385 1_565 S
C484 C482 1.478 . S
C484 C486 1.381 . S
C484 C490 1.383 1_645 S
C485 C481 1.495 . S
C485 H491 0.959 . S
C485 H492 0.961 . S
C485 H493 0.960 . S
C486 C484 1.381 . S
C486 C487 1.394 . S
C486 H494 0.930 . S
C487 C486 1.394 . S
C487 C488 1.383 . S
C487 H495 0.929 . S
C488 C487 1.383 . S
C488 C489 1.377 1_645 S
C489 H473 0.930 . S
C489 C488 1.377 1_465 S
C489 C490 1.379 . S
C490 H474 0.931 . S
C490 C484 1.383 1_465 S
C490 C489 1.379 . S
H491 C485 0.959 . S
H492 C485 0.961 . S
H493 C485 0.960 . S
H494 C486 0.930 . S
H495 C487 0.929 . S
H496 C504 0.929 . S
H497 C506 0.930 . S
H498 C508 0.930 . S
H499 C511 0.929 . S
H500 C514 0.930 . S
H501 C516 0.960 . S
H502 C516 0.960 . S
H503 C516 0.960 . S
C504 H496 0.929 . S
C504 C505 1.377 . S
C504 C506 1.384 . S
C505 C504 1.377 . S
C505 C511 1.390 . S
C506 H497 0.930 . S
C506 C504 1.384 . S
C506 C507 1.372 . S
C507 C506 1.372 . S
C507 C508 1.400 . S
C507 C512 1.490 . S
C508 H498 0.930 . S
C508 C507 1.400 . S
C508 C511 1.386 . S
H509 C525 0.930 . S
H510 C526 0.931 . S
C511 H499 0.929 . S
C511 C505 1.390 . S
C511 C508 1.386 . S
C512 C507 1.490 . S
C512 C514 1.395 . S
C512 C515 1.403 . S
H513 C519 0.930 . S
C514 H500 0.930 . S
C514 C512 1.395 . S
C514 C517 1.403 . S
C515 C512 1.403 . S
C515 C516 1.524 . S
C515 C519 1.400 . S
C516 H501 0.960 . S
C516 H502 0.960 . S
C516 H503 0.960 . S
C516 C515 1.524 . S
C517 C514 1.403 . S
C517 C518 1.392 . S
C517 C521 1.495 . S
C518 C517 1.392 . S
C518 C519 1.385 . S
C518 C520 1.478 . S
C519 H513 0.930 . S
C519 C515 1.400 . S
C519 C518 1.385 . S
C520 C518 1.478 . S
C520 C522 1.381 . S
C520 C526 1.383 . S
C521 C517 1.495 . S
C521 H527 0.959 . S
C521 H528 0.961 . S
C521 H529 0.960 . S
C522 C520 1.381 . S
C522 C523 1.394 . S
C522 H530 0.930 . S
C523 C522 1.394 . S
C523 C524 1.383 . S
C523 H531 0.929 . S
C524 C523 1.383 . S
C524 C525 1.377 . S
C525 H509 0.930 . S
C525 C524 1.377 . S
C525 C526 1.379 . S
C526 H510 0.931 . S
C526 C520 1.383 . S
C526 C525 1.379 . S
H527 C521 0.959 . S
H528 C521 0.961 . S
H529 C521 0.960 . S
H530 C522 0.930 . S
H531 C523 0.929 . S
H532 C540 0.929 . S
H533 C542 0.930 . S
H534 C544 0.930 . S
H535 C547 0.929 . S
H536 C550 0.930 . S
H537 C552 0.960 . S
H538 C552 0.960 . S
H539 C552 0.960 . S
C540 H532 0.929 . S
C540 C541 1.377 . S
C540 C542 1.384 . S
C541 C540 1.377 . S
C541 C547 1.390 . S
C542 H533 0.930 . S
C542 C540 1.384 . S
C542 C543 1.372 . S
C543 C542 1.372 . S
C543 C544 1.400 . S
C543 C548 1.490 . S
C544 H534 0.930 . S
C544 C543 1.400 . S
C544 C547 1.386 . S
H545 C561 0.930 . S
H546 C562 0.931 . S
C547 H535 0.929 . S
C547 C541 1.390 . S
C547 C544 1.386 . S
C548 C543 1.490 . S
C548 C550 1.395 . S
C548 C551 1.403 . S
H549 C555 0.930 . S
C550 H536 0.930 . S
C550 C548 1.395 . S
C550 C553 1.403 . S
C551 C548 1.403 . S
C551 C552 1.524 . S
C551 C555 1.400 . S
C552 H537 0.960 . S
C552 H538 0.960 . S
C552 H539 0.960 . S
C552 C551 1.524 . S
C553 C550 1.403 . S
C553 C554 1.392 . S
C553 C557 1.495 . S
C554 C553 1.392 . S
C554 C555 1.385 . S
C554 C556 1.478 . S
C555 H549 0.930 . S
C555 C551 1.400 . S
C555 C554 1.385 . S
C556 C554 1.478 . S
C556 C558 1.381 . S
C556 C562 1.383 . S
C557 C553 1.495 . S
C557 H563 0.959 . S
C557 H564 0.961 . S
C557 H565 0.960 . S
C558 C556 1.381 . S
C558 C559 1.394 . S
C558 H566 0.930 . S
C559 C558 1.394 . S
C559 C560 1.383 . S
C559 H567 0.929 . S
C560 C559 1.383 . S
C560 C561 1.377 . S
C561 H545 0.930 . S
C561 C560 1.377 . S
C561 C562 1.379 . S
C562 H546 0.931 . S
C562 C556 1.383 . S
C562 C561 1.379 . S
H563 C557 0.959 . S
H564 C557 0.961 . S
H565 C557 0.960 . S
H566 C558 0.930 . S
H567 C559 0.929 . S
C164 C123 1.508 . S
C145 C27 1.543 . S
C181 N6 1.327 . S
C200 C109 1.356 . S
C217 C16 1.396 . S
C236 C128 1.380 . S
C253 N14 1.502 1_556 S
C272 C104 1.493 . S
C289 C57 1.544 . S
C308 C85 1.533 . S
C325 N36 1.326 . S
C344 C71 1.353 . S
C380 C90 1.376 . S
C361 C46 1.396 . S
C416 C66 1.521 . S
C397 N44 1.507 . S
C433 C10 1.524 . S
C452 C62 1.504 . S
C469 C1 1.561 . S
C488 C81 1.559 . S
C524 C100 1.521 . S
C505 C40 1.523 . S
C541 C31 1.562 . S
C560 C119 1.533 . S
