# Generated by pormake.
# Topology pts, (4,4)-cn, num edge types: 1
# Building blocks:
#     Node 0, Type 0, BuildingBlock: MUDLON_clean_linker_0, # of connection points: 4
#     Node 1, Type 0, BuildingBlock: MUDLON_clean_linker_0, # of connection points: 4
#     Node 2, Type 1, BuildingBlock: AZAVOO_clean_sbu_0, # of connection points: 4
#     Node 3, Type 1, BuildingBlock: AZAVOO_clean_sbu_0, # of connection points: 4
#     Edge 4, Type (0, 1), BuildingBlock: XIVTED_clean_linker_0, # of connection points: 2
#     Edge 5, Type (0, 1), BuildingBlock: XIVTED_clean_linker_0, # of connection points: 2
#     Edge 6, Type (0, 1), BuildingBlock: XIVTED_clean_linker_0, # of connection points: 2
#     Edge 7, Type (0, 1), BuildingBlock: XIVTED_clean_linker_0, # of connection points: 2
#     Edge 8, Type (0, 1), BuildingBlock: XIVTED_clean_linker_0, # of connection points: 2
#     Edge 9, Type (0, 1), BuildingBlock: XIVTED_clean_linker_0, # of connection points: 2
#     Edge 10, Type (0, 1), BuildingBlock: XIVTED_clean_linker_0, # of connection points: 2
#     Edge 11, Type (0, 1), BuildingBlock: XIVTED_clean_linker_0, # of connection points: 2
# Relax obj value: 0.017
# Max RMSD: 0.069
# Mean RMSD: 0.066
data_MOF--net-pts--node1-AZAVOO_clean_sbu_0--node2-MUDLON_clean_linker_0--edge1-XIVTED_clean_linker_0
_symmetry_space_group_name_H-M    P1
_symmetry_Int_Tables_number       1
_symmetry_cell_setting            triclinic
loop_
_symmetry_equiv_pos_as_xyz
'x, y, z'
_cell_length_a     33.664939
_cell_length_b     34.845719
_cell_length_c     44.647665
_cell_angle_alpha  89.815241
_cell_angle_beta   95.92557
_cell_angle_gamma 90.275221
loop_
_atom_site_label
_atom_site_type_symbol
_atom_site_fract_x
_atom_site_fract_y
_atom_site_fract_z
_atom_type_partial_charge
H0 H 0.71867 0.04433 0.01165 0.0
N1 N 0.66764 0.9847 0.99482 0.0
H2 H 0.7678 0.04599 0.05507 0.0
H3 H 0.67331 0.93643 0.04143 0.0
H4 H 0.72005 0.93952 0.08699 0.0
H5 H 0.71432 0.9376 0.96794 0.0
H6 H 0.75592 0.95299 0.92764 0.0
H7 H 0.66636 0.05219 0.96275 0.0
H8 H 0.70778 0.06777 0.92239 0.0
H9 H 0.63955 0.04972 0.02012 0.0
H10 H 0.60378 0.94897 0.9683 0.0
H11 H 0.56981 0.06777 0.0207 0.0
H12 H 0.53394 0.96799 0.96694 0.0
H13 H 0.33949 0.12116 0.01099 0.0
H14 H 0.29865 0.12189 0.05337 0.0
H15 H 0.3393 0.00773 0.07831 0.0
H16 H 0.37982 0.00718 0.03626 0.0
H17 H 0.33824 -0.00517 0.9881 0.0
H18 H 0.28893 0.97554 0.94699 0.0
H19 H 0.31421 0.07831 0.89797 0.0
H20 H 0.36335 0.09789 0.93961 0.0
H21 H 0.44312 0.10915 0.99254 0.0
H22 H 0.51334 0.09172 0.9924 0.0
H23 H 0.48057 0.97168 0.99579 0.0
N24 N 0.38048 0.06267 0.99218 0.0
H25 H 0.41063 0.98948 0.99385 0.0
C26 C 0.69289 0.98953 0.02278 0.0
C27 C 0.71882 0.02118 0.02783 0.0
C28 C 0.74678 0.02234 0.05317 0.0
C29 C 0.7487 0.99261 0.07474 0.0
C30 C 0.72071 0.96235 0.07057 0.0
C31 C 0.69346 0.96071 0.04473 0.0
C32 C 0.68709 0.99347 0.96824 0.0
C33 C 0.71226 0.96583 0.95769 0.0
C34 C 0.73624 0.97481 0.93493 0.0
C35 C 0.73539 0.01172 0.9221 0.0
C36 C 0.7089 0.03904 0.93175 0.0
C37 C 0.68509 0.0301 0.95476 0.0
C38 C 0.62685 -0.00255 0.99457 0.0
C39 C 0.61668 0.03151 0.00873 0.0
C40 C 0.5766 0.04205 0.00874 0.0
C41 C 0.54585 0.01926 0.99405 0.0
C42 C 0.55645 0.98581 0.9792 0.0
C43 C 0.59642 0.97501 0.97965 0.0
C44 C 0.3627 0.06427 0.02023 0.0
C45 C 0.34028 0.09671 0.02607 0.0
C46 C 0.31698 0.09705 0.05024 0.0
C47 C 0.31545 0.06467 0.06893 0.0
C48 C 0.33945 0.03288 0.064 0.0
C49 C 0.36296 0.03269 0.03998 0.0
C50 C 0.35431 0.04823 0.96707 0.0
C51 C 0.3335 0.01322 0.96855 0.0
C52 C 0.30514 0.00221 0.94504 0.0
C53 C 0.29753 0.02556 0.91942 0.0
C54 C 0.3196 0.05966 0.9174 0.0
C55 C 0.34759 0.0709 0.94111 0.0
C56 C 0.42164 0.05085 0.99353 0.0
C57 C 0.4513 0.07911 0.9933 0.0
C58 C 0.49147 0.06901 0.99344 0.0
C59 C 0.50298 0.03019 0.99417 0.0
C60 C 0.47304 0.00185 0.99471 0.0
C61 C 0.43282 0.01202 0.99406 0.0
H62 H 0.91526 0.68484 0.51269 0.0
N63 N 0.97302 0.64219 0.49404 0.0
H64 H 0.91824 0.72412 0.55826 0.0
H65 H 0.03235 0.64022 0.5419 0.0
H66 H 0.03497 0.67839 0.58719 0.0
H67 H 0.03961 0.68848 0.49725 0.0
H68 H 0.05666 0.73436 0.45938 0.0
H69 H 0.9356 0.65297 0.43921 0.0
H70 H 0.95278 0.69922 0.40087 0.0
H71 H 0.93041 0.57787 0.49176 0.0
H72 H 0.05132 0.62 0.49449 0.0
H73 H 0.95476 0.51195 0.49124 0.0
H74 H 0.07616 0.55486 0.49636 0.0
H75 H 0.013 0.32856 0.50739 0.0
H76 H 0.00625 0.28646 0.55018 0.0
H77 H 0.12207 0.32353 0.5909 0.0
H78 H 0.129 0.36518 0.54733 0.0
H79 H 0.12979 0.33082 0.47207 0.0
H80 H 0.11767 0.2934 0.42579 0.0
H81 H 0.99645 0.3356 0.41343 0.0
H82 H 0.00845 0.3715 0.46029 0.0
H83 H 0.01102 0.3999 0.52263 0.0
H84 H 0.98691 0.46513 0.52134 0.0
H85 H 0.08307 0.49932 0.46958 0.0
N86 N 0.07798 0.37334 0.49817 0.0
H87 H 0.10898 0.43407 0.47312 0.0
C88 C 0.97338 0.65957 0.52346 0.0
C89 C 0.94107 0.6827 0.52922 0.0
C90 C 0.94278 0.70499 0.55531 0.0
C91 C 0.97704 0.70458 0.57617 0.0
C92 C 0.00842 0.67972 0.57131 0.0
C93 C 0.00673 0.65753 0.54526 0.0
C94 C 0.98576 0.66759 0.47124 0.0
C95 C 0.0205 0.69029 0.47631 0.0
C96 C 0.03028 0.71658 0.45461 0.0
C97 C 0.00585 0.72053 0.42733 0.0
C98 C 0.97223 0.6966 0.42166 0.0
C99 C 0.96227 0.67043 0.44353 0.0
C100 C 0.98881 0.60384 0.49348 0.0
C101 C 0.96222 0.57281 0.49254 0.0
C102 C 0.97632 0.53519 0.49255 0.0
C103 C 0.01758 0.52783 0.49405 0.0
C104 C 0.04419 0.55916 0.4947 0.0
C105 C 0.02997 0.5967 0.49397 0.0
C106 C 0.07194 0.34971 0.52397 0.0
C107 C 0.03699 0.32772 0.52545 0.0
C108 C 0.03292 0.30396 0.55019 0.0
C109 C 0.06364 0.3016 0.57397 0.0
C110 C 0.09806 0.32439 0.5728 0.0
C111 C 0.10206 0.34823 0.54803 0.0
C112 C 0.07024 0.35387 0.46966 0.0
C113 C 0.10077 0.33213 0.45917 0.0
C114 C 0.09382 0.3111 0.43256 0.0
C115 C 0.05606 0.31152 0.41579 0.0
C116 C 0.02574 0.33425 0.42594 0.0
C117 C 0.03263 0.35502 0.45268 0.0
C118 C 0.06262 0.41198 0.49841 0.0
C119 C 0.02753 0.42129 0.51142 0.0
C120 C 0.01324 0.45884 0.51025 0.0
C121 C 0.0329 0.48779 0.49533 0.0
C122 C 0.06754 0.47818 0.48189 0.0
C123 C 0.08234 0.44082 0.48371 0.0
Mg124 Mg 0.0672 0.00542 0.2665 0.0
O125 O 0.00648 -0.0015 0.23801 0.0
O126 O 0.95974 0.98913 0.26956 0.0
Mg127 Mg 0.98914 -0.00506 0.31766 0.0
C128 C 0.97034 0.99204 0.24303 0.0
C129 C 0.12435 0.0482 0.22677 0.0
O130 O 0.13195 0.06716 0.25212 0.0
O131 O 0.05143 0.06739 0.27667 0.0
O132 O 0.00468 0.05772 0.30814 0.0
O133 O 0.07454 0.94127 0.27032 0.0
O134 O 0.04583 0.97717 0.30243 0.0
C135 C 0.02624 0.08006 0.29373 0.0
C136 C 0.05607 0.94366 0.29428 0.0
O137 O 0.09765 0.02213 0.225 0.0
Mg138 Mg 0.98381 0.00152 0.72779 0.0
O139 O 0.04388 0.99262 0.75697 0.0
O140 O 0.08904 0.97688 0.72578 0.0
Mg141 Mg 0.05883 0.97457 0.67779 0.0
C142 C 0.07957 0.98401 0.75215 0.0
C143 C 0.91968 0.03813 0.76243 0.0
O144 O 0.90247 0.03779 0.73464 0.0
O145 O 0.0064 0.0594 0.71172 0.0
O146 O 0.05016 0.03955 0.68064 0.0
O147 O 0.96765 0.93948 0.73097 0.0
O148 O 1.00148 0.96392 0.69559 0.0
C149 C 0.03197 0.0663 0.6931 0.0
C150 C 0.98654 0.93417 0.70753 0.0
O151 O 0.95585 0.02751 0.76731 0.0
H152 H 0.26546 0.00567 0.08013 0.0
H153 H 0.18014 0.10462 0.22107 0.0
H154 H 0.29969 0.11991 0.10989 0.0
H155 H 0.12691 0.00457 0.1761 0.0
H156 H 0.22594 0.11003 0.18208 0.0
H157 H 0.21717 0.00336 0.1173 0.0
C158 C 0.26303 0.03017 0.09469 0.0
C159 C 0.28683 0.06293 0.09207 0.0
C160 C 0.20404 0.08708 0.18066 0.0
C161 C 0.23122 0.06066 0.13451 0.0
C162 C 0.17787 0.08396 0.20289 0.0
C163 C 0.14972 0.05399 0.20193 0.0
C164 C 0.20236 0.05979 0.15748 0.0
C165 C 0.1481 0.02812 0.1778 0.0
C166 C 0.23518 0.02898 0.11572 0.0
C167 C 0.28184 0.09414 0.11112 0.0
N168 N 0.17427 0.03143 0.1567 0.0
N169 N 0.25472 0.09216 0.13168 0.0
H170 H 0.99849 0.28348 0.60387 0.0
H171 H 0.10067 0.09451 0.67459 0.0
H172 H 0.12243 0.25479 0.59999 0.0
H173 H 0.98157 0.12838 0.69047 0.0
H174 H 0.1109 0.15691 0.65195 0.0
H175 H 0.99291 0.23077 0.63962 0.0
C176 C 0.02461 0.26633 0.61074 0.0
C177 C 0.06088 0.27332 0.59864 0.0
C178 C 0.08265 0.15105 0.66069 0.0
C179 C 0.05473 0.21309 0.63957 0.0
C180 C 0.07678 0.11535 0.67361 0.0
C181 C 0.04004 0.10613 0.68406 0.0
C182 C 0.05128 0.17764 0.65764 0.0
C183 C 0.01031 0.13437 0.68258 0.0
C184 C 0.02146 0.2364 0.63128 0.0
C185 C 0.09393 0.25065 0.60878 0.0
N186 N 0.01633 0.16871 0.66907 0.0
N187 N 0.08991 0.22132 0.62833 0.0
H188 H 0.78646 0.05448 0.1045 0.0
H189 H 0.90641 0.94343 0.23662 0.0
H190 H 0.78508 0.93027 0.10446 0.0
H191 H 0.96292 0.03555 0.19186 0.0
H192 H 0.85217 0.94257 0.19528 0.0
H193 H 0.84227 0.05297 0.14394 0.0
C194 C 0.79772 0.02686 0.11248 0.0
C195 C 0.78078 0.99241 0.10057 0.0
C196 C 0.87662 0.96276 0.19454 0.0
C197 C 0.84379 0.99093 0.14677 0.0
C198 C 0.9074 0.96333 0.21802 0.0
C199 C 0.93912 0.98948 0.21743 0.0
C200 C 0.87701 0.98939 0.17098 0.0
C201 C 0.93911 0.01474 0.19292 0.0
C202 C 0.82949 0.02618 0.13516 0.0
C203 C 0.79627 0.95768 0.11301 0.0
N204 N 0.90814 0.01449 0.1708 0.0
N205 N 0.82666 0.95784 0.13556 0.0
H206 H 0.04307 0.74747 0.5942 0.0
H207 H 0.9386 0.87174 0.71396 0.0
H208 H 0.92201 0.72692 0.61418 0.0
H209 H 0.04065 0.90906 0.67033 0.0
H210 H 0.93874 0.81093 0.68637 0.0
H211 H 0.04909 0.79879 0.63133 0.0
C212 C 0.01795 0.75327 0.6068 0.0
C213 C 0.98191 0.73292 0.60101 0.0
C214 C 0.96129 0.83239 0.68315 0.0
C215 C 0.98847 0.79219 0.64327 0.0
C216 C 0.9614 0.86695 0.69896 0.0
C217 C 0.98941 0.89572 0.69416 0.0
C218 C 0.98978 0.82647 0.6628 0.0
C219 C 0.01817 0.88807 0.67443 0.0
C220 C 0.02132 0.78282 0.62782 0.0
C221 C 0.95016 0.74222 0.61771 0.0
N222 N 0.01754 0.85425 0.65943 0.0
N223 N 0.9541 0.77136 0.63803 0.0
H224 H 0.22123 0.00195 0.92579 0.0
H225 H 0.16009 0.97905 0.74901 0.0
H226 H 0.30112 0.02603 0.85845 0.0
H227 H 0.07299 0.99143 0.81288 0.0
H228 H 0.2133 0.98571 0.78999 0.0
H229 H 0.16789 0.98787 0.88563 0.0
C230 C 0.22762 0.00389 0.90254 0.0
C231 C 0.2656 0.01522 0.89538 0.0
C232 C 0.18255 0.98682 0.79505 0.0
C233 C 0.20486 -0.00078 0.84947 0.0
C234 C 0.15204 0.98284 0.77168 0.0
C235 C 0.11184 0.9849 0.77741 0.0
C236 C 0.17298 0.99259 0.82453 0.0
C237 C 0.1035 0.98987 0.80734 0.0
C238 C 0.19714 -0.00389 0.87968 0.0
C239 C 0.27216 0.01772 0.86492 0.0
N240 N 0.13383 0.9936 0.8298 0.0
N241 N 0.24212 0.00971 0.84309 0.0
H242 H 0.10495 0.29349 0.37204 0.0
H243 H 0.96432 0.11983 0.31293 0.0
H244 H 0.98778 0.27042 0.39938 0.0
H245 H 0.08498 0.13435 0.29015 0.0
H246 H 0.96722 0.18381 0.33484 0.0
H247 H 0.09347 0.24373 0.33352 0.0
C248 C 0.07668 0.27827 0.36979 0.0
C249 C 0.04755 0.28582 0.38936 0.0
C250 C 0.99291 0.17335 0.32466 0.0
C251 C 0.03411 0.22919 0.34511 0.0
C252 C 0.99123 0.13682 0.31207 0.0
C253 C 0.02474 0.1215 0.30026 0.0
C254 C 0.0286 0.19456 0.3259 0.0
C255 C 0.05858 0.14498 0.29928 0.0
C256 C 0.07007 0.25005 0.34766 0.0
C257 C 0.01112 0.26585 0.38484 0.0
N258 N 0.05996 0.18013 0.31255 0.0
N259 N 0.00567 0.2382 0.36347 0.0
H260 H 0.71942 0.05108 0.86883 0.0
H261 H 0.9418 0.02742 0.82272 0.0
H262 H 0.815 -0.00414 0.92451 0.0
H263 H 0.84162 0.0608 0.75997 0.0
H264 H 0.898 0.0268 0.86306 0.0
H265 H 0.76597 0.065 0.83136 0.0
C266 C 0.75025 0.04215 0.87325 0.0
C267 C 0.76327 0.02187 0.89962 0.0
C268 C 0.88568 0.03462 0.84051 0.0
C269 C 0.81661 0.03777 0.85703 0.0
C270 C 0.91074 0.0352 0.81748 0.0
C271 C 0.89527 0.04373 0.78781 0.0
C272 C 0.84488 0.04275 0.8339 0.0
C273 C 0.85476 0.05367 0.78244 0.0
C274 C 0.77675 0.04999 0.85185 0.0
C275 C 0.80352 0.0109 0.90421 0.0
N276 N 0.83089 0.0526 0.80521 0.0
N277 N 0.8287 0.0189 0.88311 0.0
H278 H 0.00653 0.71692 0.36576 0.0
H279 H 0.03096 0.94329 0.35002 0.0
H280 H 0.02237 0.79517 0.44077 0.0
H281 H 0.06061 0.86688 0.27978 0.0
H282 H 0.01822 0.88825 0.38104 0.0
H283 H 0.0181 0.77054 0.33157 0.0
C284 C 0.01248 0.74533 0.37497 0.0
C285 C 0.01376 0.75169 0.4061 0.0
C286 C 0.02746 0.88339 0.35884 0.0
C287 C 0.02645 0.81269 0.3674 0.0
C288 C 0.03448 0.91486 0.34096 0.0
C289 C 0.0468 0.90969 0.31219 0.0
C290 C 0.03252 0.84623 0.34797 0.0
C291 C 0.05122 0.87208 0.30187 0.0
C292 C 0.01922 0.77574 0.35554 0.0
C293 C 0.02166 0.78892 0.41698 0.0
N294 N 0.04398 0.8416 0.31978 0.0
N295 N 0.02748 0.81798 0.39766 0.0
loop_
_geom_bond_atom_site_label_1
_geom_bond_atom_site_label_2
_geom_bond_distance
_geom_bond_site_symmetry_2
_ccdc_geom_bond_type
H0 C27 0.929 . S
N1 C26 1.433 1_556 S
N1 C32 1.435 . S
N1 C38 1.423 . S
H2 C28 0.930 . S
H3 C31 0.931 1_565 S
H4 C30 0.929 . S
H5 C33 0.930 . S
H6 C34 0.932 . S
H7 C37 0.929 . S
H8 C36 0.931 . S
H9 C39 0.929 . S
H10 C43 0.932 1_565 S
H11 C40 0.931 . S
H12 C42 0.929 . S
H13 C45 0.929 . S
H14 C46 0.930 . S
H15 C48 0.929 . S
H16 C49 0.931 1_565 S
H17 C51 0.930 . S
H18 C52 0.932 . S
H19 C54 0.931 . S
H20 C55 0.929 . S
H21 C57 0.929 . S
H22 C58 0.931 . S
H23 C60 0.929 . S
N24 C44 1.433 1_556 S
N24 C50 1.435 . S
N24 C56 1.423 . S
H25 C61 0.932 1_565 S
C26 N1 1.433 1_554 S
C26 C27 1.363 . S
C26 C31 1.370 . S
C27 H0 0.929 . S
C27 C26 1.363 . S
C27 C28 1.385 . S
C28 H2 0.930 . S
C28 C27 1.385 . S
C28 C29 1.357 . S
C29 C28 1.357 . S
C29 C30 1.406 1_545 S
C30 H4 0.929 . S
C30 C29 1.406 1_565 S
C30 C31 1.391 1_565 S
C31 H3 0.931 1_545 S
C31 C26 1.370 . S
C31 C30 1.391 1_545 S
C32 N1 1.435 . S
C32 C33 1.358 1_545 S
C32 C37 1.371 . S
C33 H5 0.930 . S
C33 C32 1.358 1_565 S
C33 C34 1.405 . S
C34 H6 0.932 . S
C34 C33 1.405 . S
C34 C35 1.383 1_565 S
C35 C34 1.383 1_545 S
C35 C36 1.393 . S
C36 H8 0.931 . S
C36 C35 1.393 . S
C36 C37 1.382 . S
C37 H7 0.929 . S
C37 C32 1.371 . S
C37 C36 1.382 . S
C38 N1 1.423 . S
C38 C39 1.362 1_556 S
C38 C43 1.388 . S
C39 H9 0.929 . S
C39 C38 1.362 1_554 S
C39 C40 1.376 . S
C40 H11 0.931 . S
C40 C39 1.376 . S
C40 C41 1.396 1_554 S
C41 C40 1.396 1_556 S
C41 C42 1.348 . S
C41 C59 1.472 . S
C42 H12 0.929 . S
C42 C41 1.348 . S
C42 C43 1.443 . S
C43 H10 0.932 1_545 S
C43 C38 1.388 . S
C43 C42 1.443 . S
C44 N24 1.433 1_554 S
C44 C45 1.363 . S
C44 C49 1.370 . S
C45 H13 0.929 . S
C45 C44 1.363 . S
C45 C46 1.385 . S
C46 H14 0.930 . S
C46 C45 1.385 . S
C46 C47 1.357 . S
C47 C46 1.357 . S
C47 C48 1.406 1_545 S
C48 H15 0.929 . S
C48 C47 1.406 1_565 S
C48 C49 1.391 1_565 S
C49 H16 0.931 1_545 S
C49 C44 1.370 . S
C49 C48 1.391 1_545 S
C50 N24 1.435 . S
C50 C51 1.358 1_545 S
C50 C55 1.371 . S
C51 H17 0.930 . S
C51 C50 1.358 1_565 S
C51 C52 1.405 . S
C52 H18 0.932 . S
C52 C51 1.405 . S
C52 C53 1.383 1_565 S
C53 C52 1.383 1_545 S
C53 C54 1.393 . S
C54 H19 0.931 . S
C54 C53 1.393 . S
C54 C55 1.382 . S
C55 H20 0.929 . S
C55 C50 1.371 . S
C55 C54 1.382 . S
C56 N24 1.423 . S
C56 C57 1.362 1_556 S
C56 C61 1.388 . S
C57 H21 0.929 . S
C57 C56 1.362 1_554 S
C57 C58 1.376 . S
C58 H22 0.931 . S
C58 C57 1.376 . S
C58 C59 1.396 1_554 S
C59 C41 1.472 . S
C59 C58 1.396 1_556 S
C59 C60 1.348 . S
C60 H23 0.929 . S
C60 C59 1.348 . S
C60 C61 1.443 . S
C61 H25 0.932 1_545 S
C61 C56 1.388 . S
C61 C60 1.443 . S
H62 C89 0.929 . S
N63 C88 1.433 . S
N63 C94 1.435 . S
N63 C100 1.427 . S
H64 C90 0.930 . S
H65 C93 0.931 . S
H66 C92 0.929 . S
H67 C95 0.930 . S
H68 C96 0.932 . S
H69 C99 0.929 . S
H70 C98 0.924 1_655 S
H71 C101 0.929 . S
H72 C105 0.932 . S
H73 C102 0.931 . S
H74 C104 0.929 . S
H75 C107 0.929 . S
H76 C108 0.930 . S
H77 C110 0.929 . S
H78 C111 0.931 . S
H79 C113 0.930 . S
H80 C114 0.932 . S
H81 C116 0.924 1_655 S
H82 C117 0.929 . S
H83 C119 0.929 . S
H84 C120 0.931 . S
H85 C122 0.929 . S
N86 C106 1.433 . S
N86 C112 1.435 . S
N86 C118 1.427 . S
H87 C123 0.932 . S
C88 N63 1.433 . S
C88 C89 1.363 1_455 S
C88 C93 1.370 . S
C89 H62 0.929 . S
C89 C88 1.363 1_655 S
C89 C90 1.385 . S
C90 H64 0.930 . S
C90 C89 1.385 . S
C90 C91 1.357 1_655 S
C91 C90 1.357 1_455 S
C91 C92 1.406 . S
C92 H66 0.929 . S
C92 C91 1.406 . S
C92 C93 1.391 . S
C93 H65 0.931 . S
C93 C88 1.370 . S
C93 C92 1.391 . S
C94 N63 1.435 . S
C94 C95 1.358 . S
C94 C99 1.371 1_455 S
C95 H67 0.930 . S
C95 C94 1.358 . S
C95 C96 1.405 . S
C96 H68 0.932 . S
C96 C95 1.405 . S
C96 C97 1.383 . S
C97 C96 1.383 . S
C97 C98 1.405 . S
C98 H70 0.924 1_455 S
C98 C97 1.405 . S
C98 C99 1.378 1_455 S
C99 H69 0.929 . S
C99 C94 1.371 1_655 S
C99 C98 1.378 1_655 S
C100 N63 1.427 . S
C100 C101 1.343 1_455 S
C100 C105 1.406 . S
C101 H71 0.929 . S
C101 C100 1.343 1_655 S
C101 C102 1.376 . S
C102 H73 0.931 . S
C102 C101 1.376 . S
C102 C103 1.396 . S
C103 C102 1.396 . S
C103 C104 1.348 1_655 S
C103 C121 1.472 . S
C104 H74 0.929 . S
C104 C103 1.348 1_455 S
C104 C105 1.443 . S
C105 H72 0.932 . S
C105 C100 1.406 . S
C105 C104 1.443 . S
C106 N86 1.433 . S
C106 C107 1.363 1_455 S
C106 C111 1.370 . S
C107 H75 0.929 . S
C107 C106 1.363 1_655 S
C107 C108 1.385 . S
C108 H76 0.930 . S
C108 C107 1.385 . S
C108 C109 1.357 1_655 S
C109 C108 1.357 1_455 S
C109 C110 1.406 . S
C110 H77 0.929 . S
C110 C109 1.406 . S
C110 C111 1.391 . S
C111 H78 0.931 . S
C111 C106 1.370 . S
C111 C110 1.391 . S
C112 N86 1.435 . S
C112 C113 1.358 . S
C112 C117 1.371 1_455 S
C113 H79 0.930 . S
C113 C112 1.358 . S
C113 C114 1.405 . S
C114 H80 0.932 . S
C114 C113 1.405 . S
C114 C115 1.383 . S
C115 C114 1.383 . S
C115 C116 1.405 . S
C116 H81 0.924 1_455 S
C116 C115 1.405 . S
C116 C117 1.378 1_455 S
C117 H82 0.929 . S
C117 C112 1.371 1_655 S
C117 C116 1.378 1_655 S
C118 N86 1.427 . S
C118 C119 1.343 1_455 S
C118 C123 1.406 . S
C119 H83 0.929 . S
C119 C118 1.343 1_655 S
C119 C120 1.376 . S
C120 H84 0.931 . S
C120 C119 1.376 . S
C120 C121 1.396 . S
C121 C103 1.472 . S
C121 C120 1.396 . S
C121 C122 1.348 1_655 S
C122 H85 0.929 . S
C122 C121 1.348 1_455 S
C122 C123 1.443 . S
C123 H87 0.932 . S
C123 C118 1.406 . S
C123 C122 1.443 . S
Mg124 O125 2.028 . S
Mg124 O131 1.986 . S
Mg124 O133 2.114 1_545 S
Mg124 O134 2.251 1_545 S
Mg124 O137 2.010 . S
O125 Mg124 2.028 . S
O125 C128 1.250 1_455 S
O126 Mg127 2.028 . S
O126 C128 1.248 . S
Mg127 O126 2.028 . S
Mg127 O132 2.032 1_655 S
Mg127 O134 2.079 1_645 S
C128 O125 1.250 1_655 S
C128 O126 1.248 . S
C129 O130 1.264 . S
C129 O137 1.249 . S
O130 C129 1.264 . S
O131 Mg124 1.986 . S
O131 C135 1.246 . S
O132 Mg127 2.032 1_455 S
O132 C135 1.259 . S
O133 Mg124 2.114 1_565 S
O133 C136 1.252 . S
O134 Mg124 2.251 1_565 S
O134 Mg127 2.079 1_465 S
O134 C136 1.273 . S
C135 O131 1.246 . S
C135 O132 1.259 . S
C136 O133 1.252 . S
C136 O134 1.273 . S
O137 Mg124 2.010 . S
O137 C129 1.249 . S
Mg138 O139 2.028 1_655 S
Mg138 O145 1.986 . S
Mg138 O147 2.114 1_545 S
Mg138 O148 2.251 1_645 S
Mg138 O151 2.010 . S
O139 Mg138 2.028 1_455 S
O139 C142 1.250 . S
O140 Mg141 2.028 . S
O140 C142 1.248 . S
Mg141 O140 2.028 . S
Mg141 O146 2.032 . S
Mg141 O148 2.079 1_545 S
C142 O139 1.250 . S
C142 O140 1.248 . S
C143 O144 1.264 . S
C143 O151 1.249 . S
O144 C143 1.264 . S
O145 Mg138 1.986 . S
O145 C149 1.246 1_655 S
O146 Mg141 2.032 . S
O146 C149 1.259 . S
O147 Mg138 2.114 1_565 S
O147 C150 1.252 1_655 S
O148 Mg138 2.251 1_465 S
O148 Mg141 2.079 1_565 S
O148 C150 1.273 . S
C149 O145 1.246 1_455 S
C149 O146 1.259 . S
C150 O147 1.252 1_455 S
C150 O148 1.273 . S
O151 Mg138 2.010 . S
O151 C143 1.249 . S
H152 C158 0.930 1_565 S
H153 C162 0.930 . S
H154 C167 0.929 . S
H155 C165 0.929 . S
H156 C160 0.929 . S
H157 C166 0.929 . S
C158 H152 0.930 1_545 S
C158 C159 1.367 . S
C158 C166 1.378 . S
C159 C158 1.367 . S
C159 C167 1.433 . S
C160 H156 0.929 . S
C160 C162 1.378 . S
C160 C164 1.350 . S
C161 C164 1.463 . S
C161 C166 1.350 . S
C161 N169 1.427 . S
C162 H153 0.930 . S
C162 C160 1.378 . S
C162 C163 1.367 . S
C163 C162 1.367 . S
C163 C165 1.433 . S
C164 C160 1.350 . S
C164 C161 1.463 . S
C164 N168 1.427 . S
C165 H155 0.929 . S
C165 C163 1.433 . S
C165 N168 1.384 . S
C166 H157 0.929 . S
C166 C158 1.378 . S
C166 C161 1.350 . S
C167 H154 0.929 . S
C167 C159 1.433 . S
C167 N169 1.384 . S
N168 C164 1.427 . S
N168 C165 1.384 . S
N169 C161 1.427 . S
N169 C167 1.384 . S
H170 C176 0.930 . S
H171 C180 0.930 . S
H172 C185 0.929 . S
H173 C183 0.929 . S
H174 C178 0.929 . S
H175 C184 0.929 . S
C176 H170 0.930 . S
C176 C177 1.367 1_655 S
C176 C184 1.378 . S
C177 C176 1.367 1_455 S
C177 C185 1.433 . S
C178 H174 0.929 . S
C178 C180 1.378 . S
C178 C182 1.350 . S
C179 C182 1.463 . S
C179 C184 1.350 1_455 S
C179 N187 1.427 . S
C180 H171 0.930 . S
C180 C178 1.378 . S
C180 C181 1.367 . S
C181 C180 1.367 . S
C181 C183 1.433 1_455 S
C182 C178 1.350 . S
C182 C179 1.463 . S
C182 N186 1.427 1_455 S
C183 H173 0.929 . S
C183 C181 1.433 1_655 S
C183 N186 1.384 . S
C184 H175 0.929 . S
C184 C176 1.378 . S
C184 C179 1.350 1_655 S
C185 H172 0.929 . S
C185 C177 1.433 . S
C185 N187 1.384 . S
N186 C182 1.427 1_655 S
N186 C183 1.384 . S
N187 C179 1.427 . S
N187 C185 1.384 . S
H188 C194 0.930 . S
H189 C198 0.930 . S
H190 C203 0.929 . S
H191 C201 0.929 . S
H192 C196 0.929 . S
H193 C202 0.929 . S
C194 H188 0.930 . S
C194 C195 1.367 . S
C194 C202 1.378 . S
C195 C194 1.367 . S
C195 C203 1.433 1_545 S
C196 H192 0.929 . S
C196 C198 1.378 . S
C196 C200 1.350 1_565 S
C197 C200 1.463 . S
C197 C202 1.350 . S
C197 N205 1.427 1_545 S
C198 H189 0.930 . S
C198 C196 1.378 . S
C198 C199 1.367 1_565 S
C199 C198 1.367 1_545 S
C199 C201 1.433 . S
C200 C196 1.350 1_545 S
C200 C197 1.463 . S
C200 N204 1.427 . S
C201 H191 0.929 . S
C201 C199 1.433 . S
C201 N204 1.384 . S
C202 H193 0.929 . S
C202 C194 1.378 . S
C202 C197 1.350 . S
C203 H190 0.929 . S
C203 C195 1.433 1_565 S
C203 N205 1.384 . S
N204 C200 1.427 . S
N204 C201 1.384 . S
N205 C197 1.427 1_565 S
N205 C203 1.384 . S
H206 C212 0.930 . S
H207 C216 0.930 . S
H208 C221 0.929 . S
H209 C219 0.929 . S
H210 C214 0.929 . S
H211 C220 0.929 . S
C212 H206 0.930 . S
C212 C213 1.367 . S
C212 C220 1.378 . S
C213 C212 1.367 . S
C213 C221 1.433 1_455 S
C214 H210 0.929 . S
C214 C216 1.378 . S
C214 C218 1.350 1_655 S
C215 C218 1.463 . S
C215 C220 1.350 . S
C215 N223 1.427 1_455 S
C216 H207 0.930 . S
C216 C214 1.378 . S
C216 C217 1.367 1_655 S
C217 C216 1.367 1_455 S
C217 C219 1.433 . S
C218 C214 1.350 1_455 S
C218 C215 1.463 . S
C218 N222 1.427 . S
C219 H209 0.929 . S
C219 C217 1.433 . S
C219 N222 1.384 . S
C220 H211 0.929 . S
C220 C212 1.378 . S
C220 C215 1.350 . S
C221 H208 0.929 . S
C221 C213 1.433 1_655 S
C221 N223 1.384 . S
N222 C218 1.427 . S
N222 C219 1.384 . S
N223 C215 1.427 1_655 S
N223 C221 1.384 . S
H224 C230 0.930 1_565 S
H225 C234 0.930 . S
H226 C239 0.929 . S
H227 C237 0.929 . S
H228 C232 0.929 . S
H229 C238 0.929 . S
C230 H224 0.930 1_545 S
C230 C231 1.367 . S
C230 C238 1.378 . S
C231 C230 1.367 . S
C231 C239 1.433 . S
C232 H228 0.929 . S
C232 C234 1.378 . S
C232 C236 1.350 . S
C233 C236 1.463 . S
C233 C238 1.350 . S
C233 N241 1.427 . S
C234 H225 0.930 . S
C234 C232 1.378 . S
C234 C235 1.367 . S
C235 C234 1.367 . S
C235 C237 1.433 . S
C236 C232 1.350 . S
C236 C233 1.463 . S
C236 N240 1.427 . S
C237 H227 0.929 . S
C237 C235 1.433 . S
C237 N240 1.384 . S
C238 H229 0.929 . S
C238 C230 1.378 . S
C238 C233 1.350 . S
C239 H226 0.929 . S
C239 C231 1.433 . S
C239 N241 1.384 . S
N240 C236 1.427 . S
N240 C237 1.384 . S
N241 C233 1.427 . S
N241 C239 1.384 . S
H242 C248 0.930 . S
H243 C252 0.930 . S
H244 C257 0.929 1_655 S
H245 C255 0.929 . S
H246 C250 0.929 . S
H247 C256 0.929 . S
C248 H242 0.930 . S
C248 C249 1.367 . S
C248 C256 1.378 . S
C249 C248 1.367 . S
C249 C257 1.433 . S
C250 H246 0.929 . S
C250 C252 1.378 . S
C250 C254 1.350 . S
C251 C254 1.463 . S
C251 C256 1.350 . S
C251 N259 1.427 . S
C252 H243 0.930 . S
C252 C250 1.378 . S
C252 C253 1.367 . S
C253 C252 1.367 . S
C253 C255 1.433 . S
C254 C250 1.350 . S
C254 C251 1.463 . S
C254 N258 1.427 . S
C255 H245 0.929 . S
C255 C253 1.433 . S
C255 N258 1.384 . S
C256 H247 0.929 . S
C256 C248 1.378 . S
C256 C251 1.350 . S
C257 H244 0.929 1_455 S
C257 C249 1.433 . S
C257 N259 1.384 . S
N258 C254 1.427 . S
N258 C255 1.384 . S
N259 C251 1.427 . S
N259 C257 1.384 . S
H260 C266 0.930 . S
H261 C270 0.930 . S
H262 C275 0.929 . S
H263 C273 0.929 . S
H264 C268 0.929 . S
H265 C274 0.929 . S
C266 H260 0.930 . S
C266 C267 1.367 . S
C266 C274 1.378 . S
C267 C266 1.367 . S
C267 C275 1.433 1_545 S
C268 H264 0.929 . S
C268 C270 1.378 . S
C268 C272 1.350 1_565 S
C269 C272 1.463 . S
C269 C274 1.350 . S
C269 N277 1.427 1_545 S
C270 H261 0.930 . S
C270 C268 1.378 . S
C270 C271 1.367 1_565 S
C271 C270 1.367 1_545 S
C271 C273 1.433 . S
C272 C268 1.350 1_545 S
C272 C269 1.463 . S
C272 N276 1.427 . S
C273 H263 0.929 . S
C273 C271 1.433 . S
C273 N276 1.384 . S
C274 H265 0.929 . S
C274 C266 1.378 . S
C274 C269 1.350 . S
C275 H262 0.929 . S
C275 C267 1.433 1_565 S
C275 N277 1.384 . S
N276 C272 1.427 . S
N276 C273 1.384 . S
N277 C269 1.427 1_565 S
N277 C275 1.384 . S
H278 C284 0.930 1_655 S
H279 C288 0.930 . S
H280 C293 0.929 . S
H281 C291 0.925 1_655 S
H282 C286 0.929 . S
H283 C292 0.929 1_655 S
C284 H278 0.930 1_455 S
C284 C285 1.367 . S
C284 C292 1.378 . S
C285 C284 1.367 . S
C285 C293 1.433 . S
C286 H282 0.929 . S
C286 C288 1.378 . S
C286 C290 1.350 . S
C287 C290 1.463 . S
C287 C292 1.350 . S
C287 N295 1.427 . S
C288 H279 0.930 . S
C288 C286 1.378 . S
C288 C289 1.367 . S
C289 C288 1.367 . S
C289 C291 1.433 . S
C290 C286 1.350 . S
C290 C287 1.463 . S
C290 N294 1.427 . S
C291 H281 0.925 1_455 S
C291 C289 1.433 . S
C291 N294 1.384 . S
C292 H283 0.929 1_455 S
C292 C284 1.378 . S
C292 C287 1.350 . S
C293 H280 0.929 . S
C293 C285 1.433 . S
C293 N295 1.384 . S
N294 C290 1.427 . S
N294 C291 1.384 . S
N295 C287 1.427 . S
N295 C293 1.384 . S
C163 C129 1.414 . S
C159 C47 1.625 . S
C181 C149 1.724 . S
C177 C109 1.619 . S
C199 C128 1.672 . S
C195 C29 1.617 . S
C217 C150 1.748 . S
C213 C91 1.624 . S
C235 C142 1.369 . S
C231 C53 1.388 . S
C253 C135 1.364 . S
C249 C115 1.388 . S
C271 C143 1.222 . S
C267 C35 1.408 . S
C285 C97 1.391 . S
C289 C136 1.401 . S
