# Generated by pormake.
# Topology anh, (6,3)-cn, num edge types: 1
# Building blocks:
#     Node 0, Type 0, BuildingBlock: BETFEN_clean_sbu_0, # of connection points: 6
#     Node 1, Type 0, BuildingBlock: BETFEN_clean_sbu_0, # of connection points: 6
#     Node 2, Type 0, BuildingBlock: BETFEN_clean_sbu_0, # of connection points: 6
#     Node 3, Type 1, BuildingBlock: KAKCAD_clean_linker_0, # of connection points: 3
#     Node 4, Type 1, BuildingBlock: KAKCAD_clean_linker_0, # of connection points: 3
#     Node 5, Type 1, BuildingBlock: KAKCAD_clean_linker_0, # of connection points: 3
#     Node 6, Type 1, BuildingBlock: KAKCAD_clean_linker_0, # of connection points: 3
#     Node 7, Type 1, BuildingBlock: KAKCAD_clean_linker_0, # of connection points: 3
#     Node 8, Type 1, BuildingBlock: KAKCAD_clean_linker_0, # of connection points: 3
#     Edge 9, Type (0, 1), BuildingBlock: OJICUG_clean_linker_0, # of connection points: 2
#     Edge 10, Type (0, 1), BuildingBlock: OJICUG_clean_linker_0, # of connection points: 2
#     Edge 11, Type (0, 1), BuildingBlock: OJICUG_clean_linker_0, # of connection points: 2
#     Edge 12, Type (0, 1), BuildingBlock: OJICUG_clean_linker_0, # of connection points: 2
#     Edge 13, Type (0, 1), BuildingBlock: OJICUG_clean_linker_0, # of connection points: 2
#     Edge 14, Type (0, 1), BuildingBlock: OJICUG_clean_linker_0, # of connection points: 2
#     Edge 15, Type (0, 1), BuildingBlock: OJICUG_clean_linker_0, # of connection points: 2
#     Edge 16, Type (0, 1), BuildingBlock: OJICUG_clean_linker_0, # of connection points: 2
#     Edge 17, Type (0, 1), BuildingBlock: OJICUG_clean_linker_0, # of connection points: 2
#     Edge 18, Type (0, 1), BuildingBlock: OJICUG_clean_linker_0, # of connection points: 2
#     Edge 19, Type (0, 1), BuildingBlock: OJICUG_clean_linker_0, # of connection points: 2
#     Edge 20, Type (0, 1), BuildingBlock: OJICUG_clean_linker_0, # of connection points: 2
#     Edge 21, Type (0, 1), BuildingBlock: OJICUG_clean_linker_0, # of connection points: 2
#     Edge 22, Type (0, 1), BuildingBlock: OJICUG_clean_linker_0, # of connection points: 2
#     Edge 23, Type (0, 1), BuildingBlock: OJICUG_clean_linker_0, # of connection points: 2
#     Edge 24, Type (0, 1), BuildingBlock: OJICUG_clean_linker_0, # of connection points: 2
#     Edge 25, Type (0, 1), BuildingBlock: OJICUG_clean_linker_0, # of connection points: 2
#     Edge 26, Type (0, 1), BuildingBlock: OJICUG_clean_linker_0, # of connection points: 2
# Relax obj value: 0.214
# Max RMSD: 0.223
# Mean RMSD: 0.164
data_MOF--net-anh--node1-BETFEN_clean_sbu_0--node2-KAKCAD_clean_linker_0--edge1-OJICUG_clean_linker_0
_symmetry_space_group_name_H-M    P1
_symmetry_Int_Tables_number       1
_symmetry_cell_setting            triclinic
loop_
_symmetry_equiv_pos_as_xyz
'x, y, z'
_cell_length_a     27.692203
_cell_length_b     28.376664
_cell_length_c     52.860346
_cell_angle_alpha  91.484361
_cell_angle_beta   91.694263
_cell_angle_gamma 101.37175
loop_
_atom_site_label
_atom_site_type_symbol
_atom_site_fract_x
_atom_site_fract_y
_atom_site_fract_z
_atom_type_partial_charge
Pr0 Pr 0.06736 0.55747 0.14965 0.0
Pr1 Pr 0.08426 0.66338 0.1406 0.0
C2 C 1.03606 0.46766 0.16575 0.0
C3 C 0.98922 0.43671 0.17221 0.0
C4 C 0.97998 0.38785 0.16489 0.0
C5 C 0.93576 0.35775 0.17084 0.0
C6 C 0.90018 0.37602 0.18437 0.0
C7 C 0.90932 0.42516 0.19147 0.0
C8 C 0.95336 0.45535 0.18531 0.0
C9 C 0.08022 0.57937 0.09896 0.0
C10 C 0.9706 0.61009 0.14058 0.0
C11 C 0.11908 0.75437 0.12732 0.0
C12 C 0.1651 0.7875 0.13512 0.0
C13 C 0.19686 0.77321 0.15324 0.0
C14 C 0.24063 0.80413 0.16109 0.0
C15 C 0.2535 0.85013 0.15104 0.0
C16 C 0.22154 0.86435 0.13281 0.0
C17 C 0.17765 0.83314 0.12486 0.0
C18 C 0.07236 0.64053 0.1912 0.0
C19 C 0.18205 0.60975 0.14733 0.0
O20 O 0.05323 0.50452 0.18106 0.0
O21 O 0.04125 0.47748 0.14186 0.0
O22 O 0.0544 0.59904 0.1137 0.0
O23 O 0.09911 0.54655 0.11006 0.0
O24 O 1.00046 0.64553 0.12998 0.0
O25 O 0.98814 0.57618 0.15238 0.0
O26 O 0.12433 0.71689 0.11352 0.0
O27 O 0.08766 0.74343 0.14525 0.0
O28 O 0.0984 0.62193 0.17618 0.0
O29 O 0.05266 0.67308 0.18047 0.0
O30 O 0.15281 0.5707 0.15498 0.0
O31 O 0.16427 0.64691 0.13945 0.0
H32 H 1.00712 0.37292 0.15467 0.0
H33 H 0.92986 0.31996 0.16533 0.0
H34 H 0.88228 0.44026 0.20167 0.0
H35 H 0.95942 0.49314 0.19084 0.0
H36 H 0.18752 0.73819 0.16151 0.0
H37 H 0.26388 0.79233 0.17547 0.0
H38 H 0.2306 0.89944 0.12461 0.0
H39 H 0.15352 0.84464 0.11082 0.0
Pr40 Pr 0.60511 0.10066 0.51344 0.0
Pr41 Pr 0.48604 0.08046 0.51898 0.0
C42 C 0.69943 0.1323 0.50144 0.0
C43 C 0.73133 0.1768 0.4934 0.0
C44 C 0.78052 0.18811 0.5023 0.0
C45 C 0.81134 0.23064 0.49542 0.0
C46 C 0.7936 0.2627 0.47935 0.0
C47 C 0.74404 0.25121 0.47053 0.0
C48 C 0.71313 0.20876 0.47758 0.0
C49 C 0.56909 0.08014 0.56111 0.0
C50 C 0.54514 0.19487 0.51892 0.0
C51 C 0.39626 1.04856 0.53681 0.0
C52 C 0.35815 1.00478 0.53068 0.0
C53 C 0.31798 1.00689 0.51416 0.0
C54 C 0.28542 0.96478 0.50585 0.0
C55 C 0.29216 0.9196 0.51397 0.0
C56 C 0.33094 0.91777 0.53146 0.0
C57 C 0.36349 0.9598 0.53973 0.0
C58 C 0.50971 0.08052 0.46777 0.0
C59 C 0.54667 0.98689 0.5125 0.0
O60 O 0.66546 0.11003 0.48506 0.0
O61 O 0.68437 0.13294 0.52467 0.0
O62 O 0.55295 0.10666 0.54552 0.0
O63 O 0.60729 1.06494 0.55282 0.0
O64 O 0.5035 0.1651 0.52421 0.0
O65 O 0.58548 0.17882 0.51276 0.0
O66 O 0.43688 1.04184 0.54831 0.0
O67 O 0.4043 0.08085 0.51925 0.0
O68 O 0.53871 0.08621 0.48676 0.0
O69 O 0.46464 0.07487 0.47511 0.0
O70 O 0.58776 1.01655 0.50644 0.0
O71 O 0.5068 1.00294 0.51932 0.0
H72 H 0.79505 0.16412 0.51476 0.0
H73 H 0.84894 0.23864 0.50297 0.0
H74 H 0.72921 0.27468 0.45791 0.0
H75 H 0.67508 0.20091 0.47066 0.0
H76 H 0.31267 1.04097 0.50696 0.0
H77 H 0.25615 0.96753 0.49226 0.0
H78 H 0.33664 0.88371 0.5385 0.0
H79 H 0.39367 0.95671 0.55269 0.0
Pr80 Pr 0.55257 0.56263 0.81584 0.0
Pr81 Pr 0.57543 0.66581 0.83344 0.0
C82 C 0.55361 0.47611 0.79466 0.0
C83 C 0.57791 0.43648 0.80224 0.0
C84 C 0.55478 0.40214 0.81893 0.0
C85 C 0.57705 0.36452 0.82616 0.0
C86 C 0.6229 0.3599 0.81675 0.0
C87 C 0.64681 0.39491 0.80056 0.0
C88 C 0.62452 0.43293 0.79338 0.0
C89 C 0.55218 0.57424 0.8683 0.0
C90 C 0.67097 0.61799 0.82722 0.0
C91 C 0.57016 0.74817 0.85834 0.0
C92 C 0.52773 0.77181 0.86048 0.0
C93 C 0.49277 0.76688 0.84039 0.0
C94 C 0.44971 0.78455 0.8429 0.0
C95 C 0.44033 0.80739 0.86562 0.0
C96 C 0.47548 0.81265 0.88579 0.0
C97 C 0.51878 0.79453 0.88329 0.0
C98 C 0.57664 0.65207 0.78097 0.0
C99 C 0.45753 0.61111 0.82078 0.0
O100 O 0.58208 0.51548 0.78732 0.0
O101 O 0.51828 0.48443 0.80898 0.0
O102 O 0.58348 0.59795 0.85428 0.0
O103 O 0.52148 0.54125 0.85549 0.0
O104 O 0.65554 0.65357 0.8389 0.0
O105 O 0.63958 0.58278 0.81521 0.0
O106 O 0.56501 0.70695 0.86942 0.0
O107 O 0.58867 0.74715 0.83584 0.0
O108 O 0.54439 0.63021 0.79511 0.0
O109 O 0.60925 0.68397 0.79365 0.0
O110 O 0.47337 0.57674 0.80829 0.0
O111 O 0.48856 0.64519 0.8337 0.0
H112 H 0.51884 0.40363 0.82609 0.0
H113 H 0.5568 0.3375 0.83805 0.0
H114 H 0.68199 0.39208 0.79287 0.0
H115 H 0.64341 0.45903 0.78059 0.0
H116 H 0.49848 0.74888 0.82272 0.0
H117 H 0.42425 0.78137 0.8267 0.0
H118 H 0.4695 0.83081 0.90335 0.0
H119 H 0.54503 0.79792 0.89916 0.0
C120 C 0.55888 0.13712 0.35014 0.0
C121 C 0.5593 0.0944 0.36286 0.0
C122 C 0.56523 0.13884 0.32405 0.0
C123 C 0.57104 0.09755 0.31021 0.0
C124 C 0.57208 1.05495 0.32298 0.0
C125 C 0.56677 1.05353 0.3492 0.0
C126 C 0.57438 0.09877 0.28237 0.0
C127 C 0.60913 0.13423 0.27132 0.0
C128 C 0.61169 0.13654 0.24489 0.0
C129 C 0.57833 0.10344 0.22946 0.0
C130 C 0.54255 1.06825 0.24028 0.0
C131 C 0.54141 1.06575 0.2668 0.0
C132 C 0.50474 1.03564 0.2241 0.0
C133 C 0.48078 1.05368 0.20377 0.0
C134 C 0.4904 0.98683 0.2297 0.0
C135 C 0.45212 0.95704 0.21573 0.0
C136 C 0.4272 0.97537 0.19585 0.0
C137 C 0.64961 0.17348 0.23361 0.0
C138 C 0.65719 0.2216 0.24235 0.0
C139 C 0.67994 0.16052 0.21491 0.0
C140 C 0.71836 0.19475 0.20579 0.0
C141 C 0.72688 0.24278 0.215 0.0
C142 C 0.6952 0.25593 0.23305 0.0
C143 C 0.44237 1.02389 0.18983 0.0
H144 H 0.55298 0.16898 0.36037 0.0
H145 H 0.56408 0.172 0.31456 0.0
H146 H 0.57671 1.02276 0.31265 0.0
H147 H 0.56678 1.02013 0.35868 0.0
H148 H 0.63487 0.15952 0.28336 0.0
H149 H 0.51344 1.03945 0.27543 0.0
H150 H 0.57992 0.10545 0.20904 0.0
H151 H 0.49065 0.09122 0.19911 0.0
H152 H 0.50843 0.97177 0.24511 0.0
H153 H 0.44106 0.91995 0.22103 0.0
H154 H 0.63382 0.23263 0.25652 0.0
H155 H 0.67509 0.12354 0.20801 0.0
H156 H 0.42424 1.03898 0.17447 0.0
H157 H 0.6999 0.29274 0.24016 0.0
H158 H 0.74235 0.18311 0.19216 0.0
C159 C 0.52916 0.63057 0.65813 0.0
C160 C 0.5693 0.62014 0.67226 0.0
C161 C 0.52657 0.62461 0.63178 0.0
C162 C 0.56367 0.60735 0.619 0.0
C163 C 0.60346 0.59609 0.63311 0.0
C164 C 0.60651 0.60291 0.65951 0.0
C165 C 0.56117 0.60254 0.59095 0.0
C166 C 0.55389 0.64147 0.57664 0.0
C167 C 0.54965 0.63815 0.55008 0.0
C168 C 0.55232 0.59357 0.53766 0.0
C169 C 0.55974 0.55352 0.55203 0.0
C170 C 0.56469 0.55916 0.5786 0.0
C171 C 0.5612 0.50462 0.54063 0.0
C172 C 0.52014 0.4769 0.52726 0.0
C173 C 0.60059 0.48198 0.54713 0.0
C174 C 0.59843 0.43295 0.54131 0.0
C175 C 0.55649 0.40438 0.52898 0.0
C176 C 0.54229 0.68264 0.53679 0.0
C177 C 0.50495 0.70639 0.54471 0.0
C178 C 0.57754 0.70701 0.52057 0.0
C179 C 0.57681 0.75469 0.5136 0.0
C180 C 0.54084 0.77949 0.52271 0.0
C181 C 0.50427 0.75375 0.5379 0.0
C182 C 0.51771 0.42748 0.52162 0.0
H183 H 0.50011 0.64414 0.66746 0.0
H184 H 0.49542 0.63335 0.62134 0.0
H185 H 0.63262 0.58294 0.62367 0.0
H186 H 0.63769 0.59433 0.66999 0.0
H187 H 0.55218 0.6752 0.58639 0.0
H188 H 0.56956 0.52892 0.58986 0.0
H189 H 0.54851 0.59004 0.51722 0.0
H190 H 0.48878 0.4928 0.52231 0.0
H191 H 0.63254 0.50195 0.55772 0.0
H192 H 0.62894 0.41698 0.5476 0.0
H193 H 0.47753 0.68908 0.55748 0.0
H194 H 0.6073 0.69026 0.51442 0.0
H195 H 0.48498 0.40717 0.51184 0.0
H196 H 0.47624 0.77087 0.5458 0.0
H197 H 0.60525 0.77242 0.50152 0.0
C198 C 0.10001 0.63632 0.97857 0.0
C199 C 0.07332 0.5962 0.99047 0.0
C200 C 0.09878 0.63835 0.95216 0.0
C201 C 0.06997 0.60078 0.9373 0.0
C202 C 0.04256 0.5611 0.94924 0.0
C203 C 0.04465 0.55859 0.9756 0.0
C204 C 0.06859 0.60287 0.90938 0.0
C205 C 0.11236 0.60968 0.89616 0.0
C206 C 0.11159 0.61141 0.86958 0.0
C207 C 0.06597 0.60744 0.85625 0.0
C208 C 1.02175 0.60096 0.86946 0.0
C209 C 1.0235 0.59802 0.89594 0.0
C210 C 0.97327 0.59929 0.85638 0.0
C211 C 0.96449 0.63846 0.84249 0.0
C212 C 0.93362 0.56153 0.86083 0.0
C213 C 0.88576 0.56381 0.85254 0.0
C214 C 0.87636 0.60425 0.83992 0.0
C215 C 0.15892 0.61635 0.85634 0.0
C216 C 0.20017 0.65029 0.86543 0.0
C217 C 0.16482 0.58416 0.83654 0.0
C218 C 0.21162 0.58437 0.82695 0.0
C219 C 0.25331 0.61712 0.83682 0.0
C220 C 0.24666 0.65069 0.85582 0.0
C221 C 0.91639 0.6411 0.83449 0.0
H222 H 0.12253 0.6656 0.98969 0.0
H223 H 0.12 0.6694 0.94331 0.0
H224 H 1.02021 0.53168 0.93813 0.0
H225 H 1.02364 0.52738 0.98442 0.0
H226 H 0.1471 0.61225 0.90663 0.0
H227 H 0.98969 0.59356 0.90624 0.0
H228 H 0.06488 0.60952 0.83581 0.0
H229 H 0.9944 0.66824 0.83906 0.0
H230 H 0.93944 0.53104 0.87161 0.0
H231 H 0.85576 0.53501 0.85719 0.0
H232 H 0.19673 0.67572 0.88059 0.0
H233 H 0.13371 0.55742 0.82927 0.0
H234 H 0.91031 0.67252 0.82463 0.0
H235 H 0.27777 0.67612 0.86415 0.0
H236 H 0.21529 0.55838 0.81212 0.0
C237 C 1.0152 0.59671 0.3102 0.0
C238 C 0.06073 0.60711 0.2984 0.0
C239 C 1.01336 0.59266 0.33646 0.0
C240 C 0.05703 0.59934 0.35149 0.0
C241 C 0.10257 0.60917 0.33966 0.0
C242 C 0.1044 0.61278 0.31337 0.0
C243 C 0.05504 0.59691 0.37946 0.0
C244 C 1.02237 0.55976 0.39065 0.0
C245 C 1.02007 0.55732 0.41711 0.0
C246 C 0.05079 0.59288 0.43247 0.0
C247 C 0.08343 0.63069 0.42156 0.0
C248 C 0.08537 0.63218 0.39503 0.0
C249 C 0.11474 0.66947 0.43761 0.0
C250 C 0.09529 0.69016 0.45848 0.0
C251 C 0.16381 0.68759 0.43145 0.0
C252 C 0.19235 0.72623 0.44538 0.0
C253 C 0.17261 0.74772 0.46589 0.0
C254 C 0.98586 0.51709 0.42847 0.0
C255 C 0.937 0.50328 0.419 0.0
C256 C 1.00232 0.49094 0.44804 0.0
C257 C 0.97093 0.45091 0.45744 0.0
C258 C 0.92232 0.43657 0.44764 0.0
C259 C 0.90551 0.46358 0.42856 0.0
C260 C 0.12388 0.72891 0.47243 0.0
H261 H 0.98095 0.5918 0.29911 0.0
H262 H 0.97774 0.58533 0.34506 0.0
H263 H 0.1368 0.61406 0.35077 0.0
H264 H 0.14002 0.6212 0.30482 0.0
H265 H 0.9995 0.53195 0.37871 0.0
H266 H 0.10945 0.66177 0.3864 0.0
H267 H 0.04913 0.59118 0.45289 0.0
H268 H 0.0575 0.6773 0.46361 0.0
H269 H 0.18011 0.67213 0.41567 0.0
H270 H 0.22955 0.74005 0.43963 0.0
H271 H 0.92321 0.52302 0.40405 0.0
H272 H 1.03987 0.50061 0.45559 0.0
H273 H 0.10772 0.74426 0.48829 0.0
H274 H 0.86838 0.45324 0.4205 0.0
H275 H 0.98476 0.43101 0.4723 0.0
C276 C 0.43811 1.03395 0.66465 0.0
C277 C 0.48527 1.02827 0.65744 0.0
C278 C 0.42542 1.03128 0.6901 0.0
C279 C 0.45974 1.02301 0.7087 0.0
C280 C 0.50552 1.01428 0.70126 0.0
C281 C 0.51825 1.01713 0.67601 0.0
C282 C 0.45078 1.02838 0.73599 0.0
C283 C 0.40679 1.00537 0.74669 0.0
C284 C 0.4008 1.00936 0.77298 0.0
C285 C 0.4392 1.0369 0.78826 0.0
C286 C 0.48285 1.06051 0.77776 0.0
C287 C 0.48797 1.05645 0.75159 0.0
C288 C 0.52233 0.09132 0.79376 0.0
C289 C 0.50996 0.12171 0.81284 0.0
C290 C 0.57233 0.09464 0.7883 0.0
C291 C 0.6083 0.13149 0.79938 0.0
C292 C 0.59488 0.16531 0.81625 0.0
C293 C 0.35938 0.97873 0.78564 0.0
C294 C 0.34885 0.92912 0.78003 0.0
C295 C 0.34079 0.99591 0.80782 0.0
C296 C 0.32238 0.96395 0.82651 0.0
C297 C 0.3225 0.91471 0.82306 0.0
C298 C 0.33006 0.89721 0.7986 0.0
C299 C 0.5459 0.15815 0.82407 0.0
H300 H 0.41153 1.04179 0.65074 0.0
H301 H 0.38984 1.03807 0.69537 0.0
H302 H 0.53244 1.00717 0.71521 0.0
H303 H 0.55503 1.01304 0.67133 0.0
H304 H 0.37823 0.98308 0.73478 0.0
H305 H 0.5209 0.07592 0.74312 0.0
H306 H 0.43615 1.0382 0.80865 0.0
H307 H 0.47192 0.12021 0.81757 0.0
H308 H 0.58327 1.07062 0.77429 0.0
H309 H 0.64586 0.13582 0.79325 0.0
H310 H 0.36176 0.91464 0.76291 0.0
H311 H 0.34675 1.03418 0.81218 0.0
H312 H 0.53403 0.18377 0.83682 0.0
H313 H 0.32955 0.85939 0.79493 0.0
H314 H 0.31517 0.97839 0.84488 0.0
C315 C 0.5742 0.54966 0.99135 0.0
C316 C 0.56246 0.58761 0.97743 0.0
C317 C 0.57633 0.55251 0.01779 0.0
C318 C 0.5657 0.5929 0.03071 0.0
C319 C 0.55357 0.63069 0.01679 0.0
C320 C 0.55247 0.62829 0.99034 0.0
C321 C 0.56755 0.59577 0.05868 0.0
C322 C 0.61019 0.59043 0.07221 0.0
C323 C 0.61306 0.59474 0.09875 0.0
C324 C 0.57188 0.60327 0.1119 0.0
C325 C 0.52827 0.60769 0.09846 0.0
C326 C 0.52688 0.60437 0.07184 0.0
C327 C 0.48321 0.61453 0.11158 0.0
C328 C 0.4646 0.58498 0.13143 0.0
C329 C 0.45555 0.64737 0.10237 0.0
C330 C 0.40925 0.64885 0.11173 0.0
C331 C 0.38928 0.6177 0.13071 0.0
C332 C 0.66054 0.59262 0.11195 0.0
C333 C 0.68384 0.55386 0.10685 0.0
C334 C 0.68618 0.63232 0.12649 0.0
C335 C 0.73536 0.63449 0.1344 0.0
C336 C 0.75949 0.59669 0.1282 0.0
C337 C 0.73266 0.55571 0.11503 0.0
C338 C 0.41804 0.58645 0.14085 0.0
H339 H 0.58219 0.51803 0.98174 0.0
H340 H 0.58566 0.52293 0.02818 0.0
H341 H 0.5455 0.66228 0.02641 0.0
H342 H 0.54309 0.65784 0.97995 0.0
H343 H 0.64199 0.58463 0.06195 0.0
H344 H 0.4935 0.60717 0.06122 0.0
H345 H 0.57386 0.60657 0.1324 0.0
H346 H 0.48496 0.55916 0.13885 0.0
H347 H 0.46907 0.67095 0.08725 0.0
H348 H 0.38823 0.67305 0.10319 0.0
H349 H 0.66487 0.52295 0.09556 0.0
H350 H 0.66917 0.66285 0.13044 0.0
H351 H 0.40416 0.56241 0.15572 0.0
H352 H 0.75023 0.52616 0.1098 0.0
H353 H 0.75498 0.66635 0.14472 0.0
C354 C 0.25552 0.56984 0.14652 0.0
C355 C 0.23594 0.61191 0.14628 0.0
H356 H 0.31902 0.53846 0.14149 0.0
C357 C 0.2681 0.65625 0.14335 0.0
H358 H 0.23173 0.5351 0.1487 0.0
C359 C 0.31822 0.65831 0.13963 0.0
C360 C 0.3375 0.61603 0.13841 0.0
H361 H 0.25443 0.68948 0.14342 0.0
H362 H 0.34167 0.69311 0.13715 0.0
C363 C 0.30571 0.57184 0.14252 0.0
C364 C 0.8091 0.3506 0.46922 0.0
C365 C 0.82679 0.30767 0.47172 0.0
H366 H 0.82547 0.42501 0.45993 0.0
C367 C 0.87649 0.30797 0.46673 0.0
H368 H 0.77133 0.352 0.47335 0.0
C369 C 0.9076 0.34997 0.45936 0.0
C370 C 0.88971 0.39262 0.45658 0.0
H371 H 0.89125 0.27547 0.468 0.0
H372 H 0.94541 0.34874 0.45521 0.0
C373 C 0.84015 0.39252 0.46164 0.0
C374 C 0.35233 0.80852 0.85427 0.0
C375 C 0.39732 0.83119 0.86617 0.0
H376 H 0.28997 0.81831 0.8316 0.0
C377 C 0.40506 0.88059 0.87209 0.0
H378 H 0.34471 0.77011 0.85032 0.0
C379 C 0.37343 0.90814 0.86166 0.0
C380 C 0.33427 0.88653 0.84491 0.0
H381 H 0.43899 0.89898 0.88161 0.0
H382 H 0.38463 0.94689 0.8635 0.0
C383 C 0.32077 0.8361 0.84372 0.0
C384 C 0.89727 0.64665 0.13001 0.0
C385 C 0.91654 0.60758 0.13883 0.0
H386 H 0.83268 0.67395 0.11999 0.0
C387 C 0.88358 0.56576 0.14553 0.0
H388 H 0.92155 0.67948 0.12479 0.0
C389 C 0.83258 0.56258 0.1427 0.0
C390 C 0.81337 0.60136 0.13344 0.0
H391 H 0.89711 0.53501 0.15246 0.0
H392 H 0.80814 0.5296 0.14758 0.0
C393 C 0.84629 0.64366 0.12747 0.0
C394 C 0.28173 0.83481 0.49659 0.0
C395 C 0.26065 0.87447 0.50318 0.0
H396 H 0.27052 0.76365 0.48013 0.0
C397 C 0.20985 0.87122 0.49842 0.0
H398 H 0.32082 0.83619 0.49969 0.0
C399 C 0.18107 0.82973 0.48686 0.0
C400 C 0.20242 0.79052 0.47976 0.0
H401 H 0.19233 0.90089 0.50348 0.0
H402 H 0.14234 0.82895 0.48286 0.0
C403 C 0.25298 0.79338 0.48507 0.0
C404 C 0.63168 0.28986 0.84305 0.0
C405 C 0.63986 0.31405 0.8202 0.0
H406 H 0.61219 0.22137 0.86004 0.0
C407 C 0.65121 0.28869 0.79875 0.0
H408 H 0.62444 0.30889 0.86011 0.0
C409 C 0.64465 0.23872 0.79879 0.0
C410 C 0.62638 0.21372 0.82023 0.0
H411 H 0.6583 0.30631 0.78092 0.0
H412 H 0.64682 0.21978 0.78093 0.0
C413 C 0.62487 0.23979 0.84305 0.0
C414 C 0.58886 0.91482 0.51294 0.0
C415 C 0.54534 0.93356 0.51295 0.0
H416 H 0.62205 0.85291 0.51637 0.0
C417 C 0.50029 0.90072 0.51464 0.0
H418 H 0.62435 0.93874 0.51181 0.0
C419 C 0.49881 0.85112 0.51678 0.0
C420 C 0.54239 0.83229 0.51775 0.0
H421 H 0.46583 0.91334 0.51448 0.0
H422 H 0.46311 0.8276 0.51782 0.0
C423 C 0.58745 0.86515 0.51541 0.0
C424 C 0.73992 0.57347 0.82126 0.0
C425 C 0.72415 0.61586 0.82858 0.0
H426 H 0.80032 0.53665 0.81893 0.0
C427 C 0.75948 0.65539 0.83809 0.0
H428 H 0.71377 0.5423 0.81382 0.0
C429 C 0.80919 0.65221 0.8408 0.0
C430 C 0.82463 0.60926 0.83432 0.0
H431 H 0.74868 0.68863 0.84383 0.0
H432 H 0.83525 0.68283 0.84887 0.0
C433 C 0.78951 0.57012 0.82424 0.0
C434 C 0.34286 0.86601 0.165 0.0
C435 C 0.29934 0.88336 0.16033 0.0
H436 H 0.41752 0.88157 0.17944 0.0
C437 C 0.29925 0.93203 0.16595 0.0
H438 H 0.34441 0.82891 0.16046 0.0
C439 C 0.34119 0.96221 0.17682 0.0
C440 C 0.38415 0.94441 0.1823 0.0
H441 H 0.26618 0.94638 0.16286 0.0
H442 H 0.3393 0.99905 0.18182 0.0
C443 C 0.38474 0.89616 0.17588 0.0
C444 C 0.5055 0.26771 0.52607 0.0
C445 C 0.54737 0.24848 0.52047 0.0
H446 H 0.47525 0.3308 0.53309 0.0
C447 C 0.59177 0.28129 0.51674 0.0
H448 H 0.47055 0.24399 0.52907 0.0
C449 C 0.59445 0.33135 0.51902 0.0
C450 C 0.55278 0.35065 0.52497 0.0
H451 H 0.62491 0.26837 0.51228 0.0
H452 H 0.62944 0.355 0.51603 0.0
C453 C 0.50812 0.31784 0.5282 0.0
C454 C 0.36855 0.56917 0.82095 0.0
C455 C 0.40423 0.6119 0.82101 0.0
H456 H 0.29279 0.53711 0.82629 0.0
C457 C 0.38894 0.65603 0.82335 0.0
H458 H 0.37934 0.53459 0.81919 0.0
C459 C 0.33953 0.65763 0.82692 0.0
C460 C 0.30411 0.61503 0.82872 0.0
H461 H 0.41542 0.68942 0.82276 0.0
H462 H 0.32927 0.69237 0.82889 0.0
C463 C 0.31895 0.57069 0.82492 0.0
C464 C 0.82724 0.30969 0.17422 0.0
C465 C 0.85441 0.34351 0.19174 0.0
H466 H 0.76492 0.25235 0.16753 0.0
C467 C 0.83852 0.34508 0.21666 0.0
H468 H 0.83838 0.3081 0.15479 0.0
C469 C 0.79691 0.31281 0.22408 0.0
C470 C 0.76987 0.2785 0.20667 0.0
H471 H 0.85914 0.37036 0.23066 0.0
H472 H 0.78681 0.31396 0.24369 0.0
C473 C 0.78528 0.27769 0.18156 0.0
C474 C 0.06568 0.62496 0.06048 0.0
C475 C 0.07983 0.58485 0.07131 0.0
H476 H 0.05327 0.66033 0.02613 0.0
C477 C 0.09268 0.54915 0.05544 0.0
H478 H 0.05572 0.653 0.07235 0.0
C479 C 0.09035 0.55289 0.02917 0.0
C480 C 0.07618 0.59289 0.01831 0.0
H481 H 0.10367 0.51783 0.06329 0.0
H482 H 0.0999 0.52462 0.0173 0.0
C483 C 0.0644 0.62921 0.03415 0.0
C484 C 0.56972 0.07688 0.43353 0.0
C485 C 0.52375 0.08474 0.44119 0.0
H486 H 0.61683 1.07293 0.40222 0.0
C487 C 0.49017 0.09618 0.42307 0.0
H488 H 0.59599 1.06769 0.44719 0.0
C489 C 0.50236 0.10009 0.39772 0.0
C490 C 0.54791 0.09156 0.38992 0.0
H491 H 0.45451 0.10246 0.42853 0.0
H492 H 0.47585 0.10899 0.38407 0.0
C493 C 0.5815 0.07968 0.40793 0.0
C494 C 0.61638 0.66225 0.73891 0.0
C495 C 0.57538 0.6438 0.75323 0.0
H496 H 0.64682 0.66861 0.70196 0.0
C497 C 0.53292 0.61672 0.74084 0.0
H498 H 0.64966 0.68301 0.74802 0.0
C499 C 0.53111 0.60896 0.71459 0.0
C500 C 0.57203 0.6274 0.70021 0.0
H501 H 0.50081 0.6019 0.75141 0.0
H502 H 0.49776 0.58824 0.70551 0.0
C503 C 0.61487 0.65376 0.71264 0.0
C504 C 0.51068 0.08971 0.595 0.0
C505 C 0.54492 1.06478 0.58475 0.0
H506 H 0.46527 0.09806 0.62615 0.0
C507 C 0.55618 1.02524 0.59735 0.0
H508 H 0.50125 0.12024 0.58552 0.0
C509 C 0.5347 1.0117 0.62028 0.0
C510 C 0.50213 1.03797 0.6313 0.0
H511 H 0.58186 1.00492 0.58957 0.0
H512 H 0.54436 0.98114 0.62962 0.0
C513 C 0.48965 0.0766 0.61813 0.0
C514 C 0.52702 0.54182 0.91034 0.0
C515 C 0.55502 0.57793 0.89618 0.0
H516 H 0.50804 0.51646 0.9473 0.0
C517 C 0.58559 0.61734 0.90888 0.0
H518 H 0.50319 0.51102 0.90101 0.0
C519 C 0.58761 0.62084 0.93535 0.0
C520 C 0.55998 0.58443 0.94947 0.0
H521 H 0.60773 0.64552 0.89839 0.0
H522 H 0.61129 0.65159 0.9448 0.0
C523 C 0.52986 0.54481 0.93676 0.0
C524 C 0.09777 0.60125 0.22994 0.0
C525 C 0.06856 0.63035 0.21835 0.0
H526 H 0.11818 0.571 0.26449 0.0
C527 C 1.03591 0.65053 0.23304 0.0
H528 H 0.12313 0.58512 0.21901 0.0
C529 C 1.03286 0.64226 0.25891 0.0
C530 C 0.06269 0.61392 0.27069 0.0
H531 H 1.01286 0.67301 0.22456 0.0
H532 H 1.00793 0.65899 0.26983 0.0
C533 C 0.09508 0.59334 0.25593 0.0
loop_
_geom_bond_atom_site_label_1
_geom_bond_atom_site_label_2
_geom_bond_distance
_geom_bond_site_symmetry_2
_ccdc_geom_bond_type
Pr0 C2 2.880 . S
Pr0 O20 2.562 . S
Pr0 O21 2.490 . S
Pr0 O22 2.695 1_655 S
Pr0 O23 2.512 . S
Pr0 O25 2.437 . S
Pr0 O28 2.436 . S
Pr0 O30 2.438 1_655 S
Pr1 C11 2.880 . S
Pr1 O22 2.436 . S
Pr1 O24 2.438 1_455 S
Pr1 O26 2.562 . S
Pr1 O27 2.490 . S
Pr1 O28 2.695 1_455 S
Pr1 O29 2.512 . S
Pr1 O31 2.437 . S
C2 Pr0 2.880 . S
C2 C3 1.491 . S
C2 O20 1.254 . S
C2 O21 1.225 . S
C3 C2 1.491 . S
C3 C4 1.392 . S
C3 C8 1.356 . S
C4 C3 1.392 . S
C4 C5 1.368 . S
C4 H32 0.929 . S
C5 C4 1.368 . S
C5 C6 1.386 . S
C5 H33 0.929 . S
C6 C5 1.386 . S
C6 C7 1.373 . S
C7 C6 1.373 . S
C7 C8 1.409 . S
C7 H34 0.931 . S
C8 C3 1.356 . S
C8 C7 1.409 . S
C8 H35 0.930 . S
C9 O22 1.270 . S
C9 O23 1.248 1_455 S
C10 O24 1.267 . S
C10 O25 1.278 . S
C11 Pr1 2.880 . S
C11 C12 1.491 . S
C11 O26 1.254 . S
C11 O27 1.225 . S
C12 C11 1.491 . S
C12 C13 1.392 . S
C12 C17 1.356 . S
C13 C12 1.392 . S
C13 C14 1.368 . S
C13 H36 0.929 . S
C14 C13 1.368 . S
C14 C15 1.386 . S
C14 H37 0.929 . S
C15 C14 1.386 . S
C15 C16 1.373 . S
C16 C15 1.373 . S
C16 C17 1.409 . S
C16 H38 0.931 . S
C17 C12 1.356 . S
C17 C16 1.409 . S
C17 H39 0.930 . S
C18 O28 1.270 1_455 S
C18 O29 1.248 . S
C19 O30 1.267 . S
C19 O31 1.278 . S
O20 Pr0 2.562 . S
O20 C2 1.254 . S
O21 Pr0 2.490 . S
O21 C2 1.225 . S
O22 Pr0 2.695 1_455 S
O22 Pr1 2.436 . S
O22 C9 1.270 . S
O23 Pr0 2.512 . S
O23 C9 1.248 1_655 S
O24 Pr1 2.438 1_655 S
O24 C10 1.267 . S
O25 Pr0 2.437 . S
O25 C10 1.278 . S
O26 Pr1 2.562 . S
O26 C11 1.254 . S
O27 Pr1 2.490 . S
O27 C11 1.225 . S
O28 Pr0 2.436 . S
O28 Pr1 2.695 1_655 S
O28 C18 1.270 1_655 S
O29 Pr1 2.512 . S
O29 C18 1.248 . S
O30 Pr0 2.438 1_455 S
O30 C19 1.267 . S
O31 Pr1 2.437 . S
O31 C19 1.278 . S
H32 C4 0.929 . S
H33 C5 0.929 . S
H34 C7 0.931 . S
H35 C8 0.930 . S
H36 C13 0.929 . S
H37 C14 0.929 . S
H38 C16 0.931 . S
H39 C17 0.930 . S
Pr40 C42 2.880 . S
Pr40 O60 2.562 . S
Pr40 O61 2.490 . S
Pr40 O62 2.695 . S
Pr40 O63 2.512 . S
Pr40 O65 2.437 . S
Pr40 O68 2.436 . S
Pr40 O70 2.438 1_545 S
Pr41 C51 2.880 . S
Pr41 O62 2.436 1_565 S
Pr41 O64 2.438 1_565 S
Pr41 O66 2.562 . S
Pr41 O67 2.490 . S
Pr41 O68 2.695 1_565 S
Pr41 O69 2.512 . S
Pr41 O71 2.437 . S
C42 Pr40 2.880 . S
C42 C43 1.491 . S
C42 O60 1.254 . S
C42 O61 1.225 . S
C43 C42 1.491 . S
C43 C44 1.392 . S
C43 C48 1.356 . S
C44 C43 1.392 . S
C44 C45 1.368 . S
C44 H72 0.929 . S
C45 C44 1.368 . S
C45 C46 1.386 . S
C45 H73 0.929 . S
C46 C45 1.386 . S
C46 C47 1.373 . S
C47 C46 1.373 . S
C47 C48 1.409 . S
C47 H74 0.931 . S
C48 C43 1.356 . S
C48 C47 1.409 . S
C48 H75 0.930 . S
C49 O62 1.270 . S
C49 O63 1.248 . S
C50 O64 1.267 . S
C50 O65 1.278 . S
C51 Pr41 2.880 . S
C51 C52 1.491 . S
C51 O66 1.254 . S
C51 O67 1.225 . S
C52 C51 1.491 . S
C52 C53 1.392 . S
C52 C57 1.356 . S
C53 C52 1.392 . S
C53 C54 1.368 . S
C53 H76 0.929 . S
C54 C53 1.368 . S
C54 C55 1.386 . S
C54 H77 0.929 . S
C55 C54 1.386 . S
C55 C56 1.373 . S
C56 C55 1.373 . S
C56 C57 1.409 . S
C56 H78 0.931 . S
C57 C52 1.356 . S
C57 C56 1.409 . S
C57 H79 0.930 . S
C58 O68 1.270 . S
C58 O69 1.248 1_545 S
C59 O70 1.267 . S
C59 O71 1.278 . S
O60 Pr40 2.562 . S
O60 C42 1.254 . S
O61 Pr40 2.490 . S
O61 C42 1.225 . S
O62 Pr40 2.695 . S
O62 Pr41 2.436 1_545 S
O62 C49 1.270 . S
O63 Pr40 2.512 . S
O63 C49 1.248 . S
O64 Pr41 2.438 1_545 S
O64 C50 1.267 . S
O65 Pr40 2.437 . S
O65 C50 1.278 . S
O66 Pr41 2.562 . S
O66 C51 1.254 . S
O67 Pr41 2.490 . S
O67 C51 1.225 . S
O68 Pr40 2.436 . S
O68 Pr41 2.695 1_545 S
O68 C58 1.270 . S
O69 Pr41 2.512 . S
O69 C58 1.248 1_565 S
O70 Pr40 2.438 1_565 S
O70 C59 1.267 . S
O71 Pr41 2.437 . S
O71 C59 1.278 . S
H72 C44 0.929 . S
H73 C45 0.929 . S
H74 C47 0.931 . S
H75 C48 0.930 . S
H76 C53 0.929 . S
H77 C54 0.929 . S
H78 C56 0.931 . S
H79 C57 0.930 . S
Pr80 C82 2.880 . S
Pr80 O100 2.562 . S
Pr80 O101 2.490 . S
Pr80 O102 2.695 . S
Pr80 O103 2.512 . S
Pr80 O105 2.437 . S
Pr80 O108 2.436 . S
Pr80 O110 2.438 . S
Pr81 C91 2.880 . S
Pr81 O102 2.436 . S
Pr81 O104 2.438 . S
Pr81 O106 2.562 . S
Pr81 O107 2.490 . S
Pr81 O108 2.695 . S
Pr81 O109 2.512 . S
Pr81 O111 2.437 . S
C82 Pr80 2.880 . S
C82 C83 1.491 . S
C82 O100 1.254 . S
C82 O101 1.225 . S
C83 C82 1.491 . S
C83 C84 1.392 . S
C83 C88 1.356 . S
C84 C83 1.392 . S
C84 C85 1.368 . S
C84 H112 0.929 . S
C85 C84 1.368 . S
C85 C86 1.386 . S
C85 H113 0.929 . S
C86 C85 1.386 . S
C86 C87 1.373 . S
C87 C86 1.373 . S
C87 C88 1.409 . S
C87 H114 0.931 . S
C88 C83 1.356 . S
C88 C87 1.409 . S
C88 H115 0.930 . S
C89 O102 1.270 . S
C89 O103 1.248 . S
C90 O104 1.267 . S
C90 O105 1.278 . S
C91 Pr81 2.880 . S
C91 C92 1.491 . S
C91 O106 1.254 . S
C91 O107 1.225 . S
C92 C91 1.491 . S
C92 C93 1.392 . S
C92 C97 1.356 . S
C93 C92 1.392 . S
C93 C94 1.368 . S
C93 H116 0.929 . S
C94 C93 1.368 . S
C94 C95 1.386 . S
C94 H117 0.929 . S
C95 C94 1.386 . S
C95 C96 1.373 . S
C96 C95 1.373 . S
C96 C97 1.409 . S
C96 H118 0.931 . S
C97 C92 1.356 . S
C97 C96 1.409 . S
C97 H119 0.930 . S
C98 O108 1.270 . S
C98 O109 1.248 . S
C99 O110 1.267 . S
C99 O111 1.278 . S
O100 Pr80 2.562 . S
O100 C82 1.254 . S
O101 Pr80 2.490 . S
O101 C82 1.225 . S
O102 Pr80 2.695 . S
O102 Pr81 2.436 . S
O102 C89 1.270 . S
O103 Pr80 2.512 . S
O103 C89 1.248 . S
O104 Pr81 2.438 . S
O104 C90 1.267 . S
O105 Pr80 2.437 . S
O105 C90 1.278 . S
O106 Pr81 2.562 . S
O106 C91 1.254 . S
O107 Pr81 2.490 . S
O107 C91 1.225 . S
O108 Pr80 2.436 . S
O108 Pr81 2.695 . S
O108 C98 1.270 . S
O109 Pr81 2.512 . S
O109 C98 1.248 . S
O110 Pr80 2.438 . S
O110 C99 1.267 . S
O111 Pr81 2.437 . S
O111 C99 1.278 . S
H112 C84 0.929 . S
H113 C85 0.929 . S
H114 C87 0.931 . S
H115 C88 0.930 . S
H116 C93 0.929 . S
H117 C94 0.929 . S
H118 C96 0.931 . S
H119 C97 0.930 . S
C120 C121 1.386 . S
C120 C122 1.397 . S
C120 H144 0.931 . S
C121 C120 1.386 . S
C121 C125 1.397 1_545 S
C122 C120 1.397 . S
C122 C123 1.384 . S
C122 H145 0.930 . S
C123 C122 1.384 . S
C123 C124 1.377 1_545 S
C123 C126 1.481 . S
C124 C123 1.377 1_565 S
C124 C125 1.389 . S
C124 H146 0.929 . S
C125 C121 1.397 1_565 S
C125 C124 1.389 . S
C125 H147 0.931 . S
C126 C123 1.481 . S
C126 C127 1.387 . S
C126 C131 1.390 1_545 S
C127 C126 1.387 . S
C127 C128 1.401 . S
C127 H148 0.930 . S
C128 C127 1.401 . S
C128 C129 1.376 . S
C128 C137 1.511 . S
C129 C128 1.376 . S
C129 C130 1.392 1_545 S
C129 H150 0.931 . S
C130 C129 1.392 1_565 S
C130 C131 1.361 . S
C130 C132 1.500 . S
C131 C126 1.390 1_565 S
C131 C130 1.361 . S
C131 H149 0.931 . S
C132 C130 1.500 . S
C132 C133 1.371 . S
C132 C134 1.365 . S
C133 C132 1.371 . S
C133 C143 1.386 . S
C133 H151 0.931 . S
C134 C132 1.365 . S
C134 C135 1.409 . S
C134 H152 0.929 . S
C135 C134 1.409 . S
C135 C136 1.380 . S
C135 H153 0.930 . S
C136 C135 1.380 . S
C136 C143 1.357 . S
C137 C128 1.511 . S
C137 C138 1.341 . S
C137 C139 1.371 . S
C138 C137 1.341 . S
C138 C142 1.394 . S
C138 H154 0.930 . S
C139 C137 1.371 . S
C139 C140 1.392 . S
C139 H155 0.931 . S
C140 C139 1.392 . S
C140 C141 1.331 . S
C140 H158 0.932 . S
C141 C140 1.331 . S
C141 C142 1.336 . S
C142 C138 1.394 . S
C142 C141 1.336 . S
C142 H157 0.929 . S
C143 C133 1.386 . S
C143 C136 1.357 . S
C143 H156 0.928 . S
H144 C120 0.931 . S
H145 C122 0.930 . S
H146 C124 0.929 . S
H147 C125 0.931 . S
H148 C127 0.930 . S
H149 C131 0.931 . S
H150 C129 0.931 . S
H151 C133 0.931 . S
H152 C134 0.929 . S
H153 C135 0.930 . S
H154 C138 0.930 . S
H155 C139 0.931 . S
H156 C143 0.928 . S
H157 C142 0.929 . S
H158 C140 0.932 . S
C159 C160 1.386 . S
C159 C161 1.397 . S
C159 H183 0.931 . S
C160 C159 1.386 . S
C160 C164 1.397 . S
C161 C159 1.397 . S
C161 C162 1.384 . S
C161 H184 0.930 . S
C162 C161 1.384 . S
C162 C163 1.377 . S
C162 C165 1.481 . S
C163 C162 1.377 . S
C163 C164 1.389 . S
C163 H185 0.929 . S
C164 C160 1.397 . S
C164 C163 1.389 . S
C164 H186 0.931 . S
C165 C162 1.481 . S
C165 C166 1.387 . S
C165 C170 1.390 . S
C166 C165 1.387 . S
C166 C167 1.401 . S
C166 H187 0.930 . S
C167 C166 1.401 . S
C167 C168 1.376 . S
C167 C176 1.511 . S
C168 C167 1.376 . S
C168 C169 1.392 . S
C168 H189 0.931 . S
C169 C168 1.392 . S
C169 C170 1.361 . S
C169 C171 1.500 . S
C170 C165 1.390 . S
C170 C169 1.361 . S
C170 H188 0.931 . S
C171 C169 1.500 . S
C171 C172 1.371 . S
C171 C173 1.365 . S
C172 C171 1.371 . S
C172 C182 1.386 . S
C172 H190 0.931 . S
C173 C171 1.365 . S
C173 C174 1.409 . S
C173 H191 0.929 . S
C174 C173 1.409 . S
C174 C175 1.380 . S
C174 H192 0.930 . S
C175 C174 1.380 . S
C175 C182 1.357 . S
C176 C167 1.511 . S
C176 C177 1.341 . S
C176 C178 1.371 . S
C177 C176 1.341 . S
C177 C181 1.394 . S
C177 H193 0.930 . S
C178 C176 1.371 . S
C178 C179 1.392 . S
C178 H194 0.931 . S
C179 C178 1.392 . S
C179 C180 1.331 . S
C179 H197 0.932 . S
C180 C179 1.331 . S
C180 C181 1.336 . S
C181 C177 1.394 . S
C181 C180 1.336 . S
C181 H196 0.929 . S
C182 C172 1.386 . S
C182 C175 1.357 . S
C182 H195 0.928 . S
H183 C159 0.931 . S
H184 C161 0.930 . S
H185 C163 0.929 . S
H186 C164 0.931 . S
H187 C166 0.930 . S
H188 C170 0.931 . S
H189 C168 0.931 . S
H190 C172 0.931 . S
H191 C173 0.929 . S
H192 C174 0.930 . S
H193 C177 0.930 . S
H194 C178 0.931 . S
H195 C182 0.928 . S
H196 C181 0.929 . S
H197 C179 0.932 . S
C198 C199 1.386 1_556 S
C198 C200 1.397 . S
C198 H222 0.931 . S
C199 C198 1.386 1_554 S
C199 C203 1.397 1_454 S
C200 C198 1.397 . S
C200 C201 1.384 . S
C200 H223 0.930 . S
C201 C200 1.384 . S
C201 C202 1.377 1_455 S
C201 C204 1.481 . S
C202 C201 1.377 1_655 S
C202 C203 1.389 . S
C202 H224 0.929 . S
C203 C199 1.397 1_656 S
C203 C202 1.389 . S
C203 H225 0.931 . S
C204 C201 1.481 . S
C204 C205 1.387 . S
C204 C209 1.390 1_455 S
C205 C204 1.387 . S
C205 C206 1.401 . S
C205 H226 0.930 . S
C206 C205 1.401 . S
C206 C207 1.376 . S
C206 C215 1.511 . S
C207 C206 1.376 . S
C207 C208 1.392 1_455 S
C207 H228 0.931 . S
C208 C207 1.392 1_655 S
C208 C209 1.361 . S
C208 C210 1.500 . S
C209 C204 1.390 1_655 S
C209 C208 1.361 . S
C209 H227 0.931 . S
C210 C208 1.500 . S
C210 C211 1.371 . S
C210 C212 1.365 . S
C211 C210 1.371 . S
C211 C221 1.386 . S
C211 H229 0.931 . S
C212 C210 1.365 . S
C212 C213 1.409 . S
C212 H230 0.929 . S
C213 C212 1.409 . S
C213 C214 1.380 . S
C213 H231 0.930 . S
C214 C213 1.380 . S
C214 C221 1.357 . S
C215 C206 1.511 . S
C215 C216 1.341 . S
C215 C217 1.371 . S
C216 C215 1.341 . S
C216 C220 1.394 . S
C216 H232 0.930 . S
C217 C215 1.371 . S
C217 C218 1.392 . S
C217 H233 0.931 . S
C218 C217 1.392 . S
C218 C219 1.331 . S
C218 H236 0.932 . S
C219 C218 1.331 . S
C219 C220 1.336 . S
C220 C216 1.394 . S
C220 C219 1.336 . S
C220 H235 0.929 . S
C221 C211 1.386 . S
C221 C214 1.357 . S
C221 H234 0.928 . S
H222 C198 0.931 . S
H223 C200 0.930 . S
H224 C202 0.929 . S
H225 C203 0.931 . S
H226 C205 0.930 . S
H227 C209 0.931 . S
H228 C207 0.931 . S
H229 C211 0.931 . S
H230 C212 0.929 . S
H231 C213 0.930 . S
H232 C216 0.930 . S
H233 C217 0.931 . S
H234 C221 0.928 . S
H235 C220 0.929 . S
H236 C218 0.932 . S
C237 C238 1.386 . S
C237 C239 1.397 . S
C237 H261 0.931 . S
C238 C237 1.386 . S
C238 C242 1.397 1_655 S
C239 C237 1.397 . S
C239 C240 1.384 . S
C239 H262 0.930 . S
C240 C239 1.384 . S
C240 C241 1.377 1_655 S
C240 C243 1.481 . S
C241 C240 1.377 1_455 S
C241 C242 1.389 . S
C241 H263 0.929 . S
C242 C238 1.397 1_455 S
C242 C241 1.389 . S
C242 H264 0.931 . S
C243 C240 1.481 . S
C243 C244 1.387 . S
C243 C248 1.390 1_655 S
C244 C243 1.387 . S
C244 C245 1.401 . S
C244 H265 0.930 . S
C245 C244 1.401 . S
C245 C246 1.376 1_655 S
C245 C254 1.511 . S
C246 C245 1.376 1_455 S
C246 C247 1.392 . S
C246 H267 0.931 . S
C247 C246 1.392 . S
C247 C248 1.361 . S
C247 C249 1.500 . S
C248 C243 1.390 1_455 S
C248 C247 1.361 . S
C248 H266 0.931 . S
C249 C247 1.500 . S
C249 C250 1.371 . S
C249 C251 1.365 . S
C250 C249 1.371 . S
C250 C260 1.386 . S
C250 H268 0.931 . S
C251 C249 1.365 . S
C251 C252 1.409 . S
C251 H269 0.929 . S
C252 C251 1.409 . S
C252 C253 1.380 . S
C252 H270 0.930 . S
C253 C252 1.380 . S
C253 C260 1.357 . S
C254 C245 1.511 . S
C254 C255 1.341 . S
C254 C256 1.371 . S
C255 C254 1.341 . S
C255 C259 1.394 . S
C255 H271 0.930 . S
C256 C254 1.371 . S
C256 C257 1.392 . S
C256 H272 0.931 . S
C257 C256 1.392 . S
C257 C258 1.331 . S
C257 H275 0.932 . S
C258 C257 1.331 . S
C258 C259 1.336 . S
C259 C255 1.394 . S
C259 C258 1.336 . S
C259 H274 0.929 . S
C260 C250 1.386 . S
C260 C253 1.357 . S
C260 H273 0.928 . S
H261 C237 0.931 . S
H262 C239 0.930 . S
H263 C241 0.929 . S
H264 C242 0.931 . S
H265 C244 0.930 . S
H266 C248 0.931 . S
H267 C246 0.931 . S
H268 C250 0.931 . S
H269 C251 0.929 . S
H270 C252 0.930 . S
H271 C255 0.930 . S
H272 C256 0.931 . S
H273 C260 0.928 . S
H274 C259 0.929 . S
H275 C257 0.932 . S
C276 C277 1.386 1_565 S
C276 C278 1.397 . S
C276 H300 0.931 . S
C277 C276 1.386 1_545 S
C277 C281 1.397 . S
C278 C276 1.397 . S
C278 C279 1.384 1_565 S
C278 H301 0.930 . S
C279 C278 1.384 1_545 S
C279 C280 1.377 . S
C279 C282 1.481 . S
C280 C279 1.377 . S
C280 C281 1.389 . S
C280 H302 0.929 . S
C281 C277 1.397 . S
C281 C280 1.389 . S
C281 H303 0.931 . S
C282 C279 1.481 . S
C282 C283 1.387 1_545 S
C282 C287 1.390 . S
C283 C282 1.387 1_565 S
C283 C284 1.401 . S
C283 H304 0.930 . S
C284 C283 1.401 . S
C284 C285 1.376 1_565 S
C284 C293 1.511 . S
C285 C284 1.376 1_545 S
C285 C286 1.392 . S
C285 H306 0.931 . S
C286 C285 1.392 . S
C286 C287 1.361 . S
C286 C288 1.500 . S
C287 C282 1.390 . S
C287 C286 1.361 . S
C287 H305 0.931 . S
C288 C286 1.500 . S
C288 C289 1.371 . S
C288 C290 1.365 . S
C289 C288 1.371 . S
C289 C299 1.386 . S
C289 H307 0.931 . S
C290 C288 1.365 . S
C290 C291 1.409 . S
C290 H308 0.929 . S
C291 C290 1.409 . S
C291 C292 1.380 . S
C291 H309 0.930 . S
C292 C291 1.380 . S
C292 C299 1.357 . S
C293 C284 1.511 . S
C293 C294 1.341 . S
C293 C295 1.371 . S
C294 C293 1.341 . S
C294 C298 1.394 . S
C294 H310 0.930 . S
C295 C293 1.371 . S
C295 C296 1.392 . S
C295 H311 0.931 . S
C296 C295 1.392 . S
C296 C297 1.331 . S
C296 H314 0.932 . S
C297 C296 1.331 . S
C297 C298 1.336 . S
C298 C294 1.394 . S
C298 C297 1.336 . S
C298 H313 0.929 . S
C299 C289 1.386 . S
C299 C292 1.357 . S
C299 H312 0.928 . S
H300 C276 0.931 . S
H301 C278 0.930 . S
H302 C280 0.929 . S
H303 C281 0.931 . S
H304 C283 0.930 . S
H305 C287 0.931 . S
H306 C285 0.931 . S
H307 C289 0.931 . S
H308 C290 0.929 . S
H309 C291 0.930 . S
H310 C294 0.930 . S
H311 C295 0.931 . S
H312 C299 0.928 . S
H313 C298 0.929 . S
H314 C296 0.932 . S
C315 C316 1.402 . S
C315 C317 1.397 . S
C315 H339 0.931 . S
C316 C315 1.402 . S
C316 C320 1.414 . S
C317 C315 1.397 . S
C317 C318 1.384 . S
C317 H340 0.930 . S
C318 C317 1.384 . S
C318 C319 1.377 . S
C318 C321 1.481 . S
C319 C318 1.377 . S
C319 C320 1.389 . S
C319 H341 0.929 . S
C320 C316 1.414 . S
C320 C319 1.389 . S
C320 H342 0.931 . S
C321 C318 1.481 . S
C321 C322 1.387 . S
C321 C326 1.390 . S
C322 C321 1.387 . S
C322 C323 1.401 . S
C322 H343 0.930 . S
C323 C322 1.401 . S
C323 C324 1.376 . S
C323 C332 1.511 . S
C324 C323 1.376 . S
C324 C325 1.392 . S
C324 H345 0.931 . S
C325 C324 1.392 . S
C325 C326 1.361 . S
C325 C327 1.500 . S
C326 C321 1.390 . S
C326 C325 1.361 . S
C326 H344 0.931 . S
C327 C325 1.500 . S
C327 C328 1.371 . S
C327 C329 1.365 . S
C328 C327 1.371 . S
C328 C338 1.386 . S
C328 H346 0.931 . S
C329 C327 1.365 . S
C329 C330 1.409 . S
C329 H347 0.929 . S
C330 C329 1.409 . S
C330 C331 1.380 . S
C330 H348 0.930 . S
C331 C330 1.380 . S
C331 C338 1.357 . S
C332 C323 1.511 . S
C332 C333 1.341 . S
C332 C334 1.371 . S
C333 C332 1.341 . S
C333 C337 1.394 . S
C333 H349 0.930 . S
C334 C332 1.371 . S
C334 C335 1.392 . S
C334 H350 0.931 . S
C335 C334 1.392 . S
C335 C336 1.331 . S
C335 H353 0.932 . S
C336 C335 1.331 . S
C336 C337 1.336 . S
C337 C333 1.394 . S
C337 C336 1.336 . S
C337 H352 0.929 . S
C338 C328 1.386 . S
C338 C331 1.357 . S
C338 H351 0.928 . S
H339 C315 0.931 . S
H340 C317 0.930 . S
H341 C319 0.929 . S
H342 C320 0.931 . S
H343 C322 0.930 . S
H344 C326 0.931 . S
H345 C324 0.931 . S
H346 C328 0.931 . S
H347 C329 0.929 . S
H348 C330 0.930 . S
H349 C333 0.930 . S
H350 C334 0.931 . S
H351 C338 0.928 . S
H352 C337 0.929 . S
H353 C335 0.932 . S
C354 C355 1.387 . S
C354 H358 0.950 . S
C354 C363 1.390 . S
C355 C354 1.387 . S
C355 C357 1.387 . S
H356 C363 0.950 . S
C357 C355 1.387 . S
C357 C359 1.390 . S
C357 H361 0.950 . S
H358 C354 0.950 . S
C359 C357 1.390 . S
C359 C360 1.387 . S
C359 H362 0.950 . S
C360 C359 1.387 . S
C360 C363 1.387 . S
H361 C357 0.950 . S
H362 C359 0.950 . S
C363 C354 1.390 . S
C363 H356 0.950 . S
C363 C360 1.387 . S
C364 C365 1.387 . S
C364 H368 0.950 . S
C364 C373 1.390 . S
C365 C364 1.387 . S
C365 C367 1.387 . S
H366 C373 0.950 . S
C367 C365 1.387 . S
C367 C369 1.390 . S
C367 H371 0.950 . S
H368 C364 0.950 . S
C369 C367 1.390 . S
C369 C370 1.387 . S
C369 H372 0.950 . S
C370 C369 1.387 . S
C370 C373 1.387 . S
H371 C367 0.950 . S
H372 C369 0.950 . S
C373 C364 1.390 . S
C373 H366 0.950 . S
C373 C370 1.387 . S
C374 C375 1.387 . S
C374 H378 0.950 . S
C374 C383 1.390 . S
C375 C374 1.387 . S
C375 C377 1.387 . S
H376 C383 0.950 . S
C377 C375 1.387 . S
C377 C379 1.390 . S
C377 H381 0.950 . S
H378 C374 0.950 . S
C379 C377 1.390 . S
C379 C380 1.387 . S
C379 H382 0.950 . S
C380 C379 1.387 . S
C380 C383 1.387 . S
H381 C377 0.950 . S
H382 C379 0.950 . S
C383 C374 1.390 . S
C383 H376 0.950 . S
C383 C380 1.387 . S
C384 C385 1.387 . S
C384 H388 0.950 . S
C384 C393 1.390 . S
C385 C384 1.387 . S
C385 C387 1.387 . S
H386 C393 0.950 . S
C387 C385 1.387 . S
C387 C389 1.390 . S
C387 H391 0.950 . S
H388 C384 0.950 . S
C389 C387 1.390 . S
C389 C390 1.387 . S
C389 H392 0.950 . S
C390 C389 1.387 . S
C390 C393 1.387 . S
H391 C387 0.950 . S
H392 C389 0.950 . S
C393 C384 1.390 . S
C393 H386 0.950 . S
C393 C390 1.387 . S
C394 C395 1.387 . S
C394 H398 0.950 . S
C394 C403 1.390 . S
C395 C394 1.387 . S
C395 C397 1.387 . S
H396 C403 0.950 . S
C397 C395 1.387 . S
C397 C399 1.390 . S
C397 H401 0.950 . S
H398 C394 0.950 . S
C399 C397 1.390 . S
C399 C400 1.387 . S
C399 H402 0.950 . S
C400 C399 1.387 . S
C400 C403 1.387 . S
H401 C397 0.950 . S
H402 C399 0.950 . S
C403 C394 1.390 . S
C403 H396 0.950 . S
C403 C400 1.387 . S
C404 C405 1.387 . S
C404 H408 0.950 . S
C404 C413 1.390 . S
C405 C404 1.387 . S
C405 C407 1.387 . S
H406 C413 0.950 . S
C407 C405 1.387 . S
C407 C409 1.390 . S
C407 H411 0.950 . S
H408 C404 0.950 . S
C409 C407 1.390 . S
C409 C410 1.387 . S
C409 H412 0.950 . S
C410 C409 1.387 . S
C410 C413 1.387 . S
H411 C407 0.950 . S
H412 C409 0.950 . S
C413 C404 1.390 . S
C413 H406 0.950 . S
C413 C410 1.387 . S
C414 C415 1.387 . S
C414 H418 0.950 . S
C414 C423 1.390 . S
C415 C414 1.387 . S
C415 C417 1.387 . S
H416 C423 0.950 . S
C417 C415 1.387 . S
C417 C419 1.390 . S
C417 H421 0.950 . S
H418 C414 0.950 . S
C419 C417 1.390 . S
C419 C420 1.387 . S
C419 H422 0.950 . S
C420 C419 1.387 . S
C420 C423 1.387 . S
H421 C417 0.950 . S
H422 C419 0.950 . S
C423 C414 1.390 . S
C423 H416 0.950 . S
C423 C420 1.387 . S
C424 C425 1.387 . S
C424 H428 0.950 . S
C424 C433 1.390 . S
C425 C424 1.387 . S
C425 C427 1.387 . S
H426 C433 0.950 . S
C427 C425 1.387 . S
C427 C429 1.390 . S
C427 H431 0.950 . S
H428 C424 0.950 . S
C429 C427 1.390 . S
C429 C430 1.387 . S
C429 H432 0.950 . S
C430 C429 1.387 . S
C430 C433 1.387 . S
H431 C427 0.950 . S
H432 C429 0.950 . S
C433 C424 1.390 . S
C433 H426 0.950 . S
C433 C430 1.387 . S
C434 C435 1.387 . S
C434 H438 0.950 . S
C434 C443 1.390 . S
C435 C434 1.387 . S
C435 C437 1.387 . S
H436 C443 0.950 . S
C437 C435 1.387 . S
C437 C439 1.390 . S
C437 H441 0.950 . S
H438 C434 0.950 . S
C439 C437 1.390 . S
C439 C440 1.387 . S
C439 H442 0.950 . S
C440 C439 1.387 . S
C440 C443 1.387 . S
H441 C437 0.950 . S
H442 C439 0.950 . S
C443 C434 1.390 . S
C443 H436 0.950 . S
C443 C440 1.387 . S
C444 C445 1.387 . S
C444 H448 0.950 . S
C444 C453 1.390 . S
C445 C444 1.387 . S
C445 C447 1.387 . S
H446 C453 0.950 . S
C447 C445 1.387 . S
C447 C449 1.390 . S
C447 H451 0.950 . S
H448 C444 0.950 . S
C449 C447 1.390 . S
C449 C450 1.387 . S
C449 H452 0.950 . S
C450 C449 1.387 . S
C450 C453 1.387 . S
H451 C447 0.950 . S
H452 C449 0.950 . S
C453 C444 1.390 . S
C453 H446 0.950 . S
C453 C450 1.387 . S
C454 C455 1.387 . S
C454 H458 0.950 . S
C454 C463 1.390 . S
C455 C454 1.387 . S
C455 C457 1.387 . S
H456 C463 0.950 . S
C457 C455 1.387 . S
C457 C459 1.390 . S
C457 H461 0.950 . S
H458 C454 0.950 . S
C459 C457 1.390 . S
C459 C460 1.387 . S
C459 H462 0.950 . S
C460 C459 1.387 . S
C460 C463 1.387 . S
H461 C457 0.950 . S
H462 C459 0.950 . S
C463 C454 1.390 . S
C463 H456 0.950 . S
C463 C460 1.387 . S
C464 C465 1.387 . S
C464 H468 0.950 . S
C464 C473 1.390 . S
C465 C464 1.387 . S
C465 C467 1.387 . S
H466 C473 0.950 . S
C467 C465 1.387 . S
C467 C469 1.390 . S
C467 H471 0.950 . S
H468 C464 0.950 . S
C469 C467 1.390 . S
C469 C470 1.387 . S
C469 H472 0.950 . S
C470 C469 1.387 . S
C470 C473 1.387 . S
H471 C467 0.950 . S
H472 C469 0.950 . S
C473 C464 1.390 . S
C473 H466 0.950 . S
C473 C470 1.387 . S
C474 C475 1.387 . S
C474 H478 0.950 . S
C474 C483 1.390 . S
C475 C474 1.387 . S
C475 C477 1.387 1_455 S
H476 C483 0.950 . S
C477 C475 1.387 1_655 S
C477 C479 1.390 . S
C477 H481 0.950 . S
H478 C474 0.950 . S
C479 C477 1.390 . S
C479 C480 1.387 1_655 S
C479 H482 0.950 . S
C480 C479 1.387 1_455 S
C480 C483 1.387 . S
H481 C477 0.950 . S
H482 C479 0.950 . S
C483 C474 1.390 . S
C483 H476 0.950 . S
C483 C480 1.387 . S
C484 C485 1.387 . S
C484 H488 0.950 . S
C484 C493 1.390 . S
C485 C484 1.387 . S
C485 C487 1.387 . S
H486 C493 0.950 . S
C487 C485 1.387 . S
C487 C489 1.390 . S
C487 H491 0.950 . S
H488 C484 0.950 . S
C489 C487 1.390 . S
C489 C490 1.387 . S
C489 H492 0.950 . S
C490 C489 1.387 . S
C490 C493 1.387 . S
H491 C487 0.950 . S
H492 C489 0.950 . S
C493 C484 1.390 . S
C493 H486 0.950 . S
C493 C490 1.387 . S
C494 C495 1.387 . S
C494 H498 0.950 . S
C494 C503 1.390 . S
C495 C494 1.387 . S
C495 C497 1.387 . S
H496 C503 0.950 . S
C497 C495 1.387 . S
C497 C499 1.390 . S
C497 H501 0.950 . S
H498 C494 0.950 . S
C499 C497 1.390 . S
C499 C500 1.387 . S
C499 H502 0.950 . S
C500 C499 1.387 . S
C500 C503 1.387 . S
H501 C497 0.950 . S
H502 C499 0.950 . S
C503 C494 1.390 . S
C503 H496 0.950 . S
C503 C500 1.387 . S
C504 C505 1.387 . S
C504 H508 0.950 . S
C504 C513 1.390 . S
C505 C504 1.387 . S
C505 C507 1.387 1_545 S
H506 C513 0.950 . S
C507 C505 1.387 1_565 S
C507 C509 1.390 . S
C507 H511 0.950 . S
H508 C504 0.950 . S
C509 C507 1.390 . S
C509 C510 1.387 1_565 S
C509 H512 0.950 . S
C510 C509 1.387 1_545 S
C510 C513 1.387 . S
H511 C507 0.950 . S
H512 C509 0.950 . S
C513 C504 1.390 . S
C513 H506 0.950 . S
C513 C510 1.387 . S
C514 C515 1.387 . S
C514 H518 0.950 . S
C514 C523 1.390 . S
C515 C514 1.387 . S
C515 C517 1.387 . S
H516 C523 0.950 . S
C517 C515 1.387 . S
C517 C519 1.390 . S
C517 H521 0.950 . S
H518 C514 0.950 . S
C519 C517 1.390 . S
C519 C520 1.387 . S
C519 H522 0.950 . S
C520 C519 1.387 . S
C520 C523 1.387 . S
H521 C517 0.950 . S
H522 C519 0.950 . S
C523 C514 1.390 . S
C523 H516 0.950 . S
C523 C520 1.387 . S
C524 C525 1.387 . S
C524 H528 0.950 . S
C524 C533 1.390 . S
C525 C524 1.387 . S
C525 C527 1.387 1_455 S
H526 C533 0.950 . S
C527 C525 1.387 1_655 S
C527 C529 1.390 . S
C527 H531 0.950 . S
H528 C524 0.950 . S
C529 C527 1.390 . S
C529 C530 1.387 . S
C529 H532 0.950 . S
C530 C529 1.387 . S
C530 C533 1.387 1_655 S
H531 C527 0.950 . S
H532 C529 0.950 . S
C533 C524 1.390 . S
C533 H526 0.950 . S
C533 C530 1.387 1_455 S
C355 C19 2.029 . S
C360 C331 1.968 . S
C365 C46 1.351 . S
C370 C258 1.390 . S
C375 C95 0.656 . S
C380 C297 0.589 . S
C385 C10 2.160 . S
C390 C336 2.055 . S
C400 C253 1.382 . S
C395 C55 1.351 . S
C410 C292 0.936 . S
C405 C86 0.890 . S
C415 C59 3.192 . S
C420 C180 3.129 . S
C425 C90 2.190 . S
C430 C214 2.112 . S
C435 C15 1.345 . S
C440 C136 1.390 . S
C450 C175 3.056 . S
C445 C50 3.121 . S
C460 C219 1.979 . S
C455 C99 2.022 . S
C465 C6 1.292 . S
C470 C141 1.316 . S
C480 C199 1.368 . S
C475 C9 1.323 . S
C485 C58 1.450 . S
C490 C121 1.505 . S
C495 C98 1.720 . S
C500 C160 1.792 . S
C510 C277 1.070 . S
C505 C49 1.066 . S
C520 C316 1.323 1_556 S
C515 C89 1.318 . S
C525 C18 1.439 . S
C530 C238 1.485 . S
