# Generated by pormake.
# Topology tsx, (6,3)-cn, num edge types: 1
# Building blocks:
#     Node 0, Type 0, BuildingBlock: JUFBIX_clean_sbu_0, # of connection points: 6
#     Node 1, Type 0, BuildingBlock: JUFBIX_clean_sbu_0, # of connection points: 6
#     Node 2, Type 1, BuildingBlock: ESEHIV_clean_linker_0, # of connection points: 3
#     Node 3, Type 1, BuildingBlock: ESEHIV_clean_linker_0, # of connection points: 3
#     Node 4, Type 1, BuildingBlock: ESEHIV_clean_linker_0, # of connection points: 3
#     Node 5, Type 1, BuildingBlock: ESEHIV_clean_linker_0, # of connection points: 3
#     Edge 6, Type (0, 1), BuildingBlock: EZIPEK_clean_linker_0, # of connection points: 2
#     Edge 7, Type (0, 1), BuildingBlock: EZIPEK_clean_linker_0, # of connection points: 2
#     Edge 8, Type (0, 1), BuildingBlock: EZIPEK_clean_linker_0, # of connection points: 2
#     Edge 9, Type (0, 1), BuildingBlock: EZIPEK_clean_linker_0, # of connection points: 2
#     Edge 10, Type (0, 1), BuildingBlock: EZIPEK_clean_linker_0, # of connection points: 2
#     Edge 11, Type (0, 1), BuildingBlock: EZIPEK_clean_linker_0, # of connection points: 2
#     Edge 12, Type (0, 1), BuildingBlock: EZIPEK_clean_linker_0, # of connection points: 2
#     Edge 13, Type (0, 1), BuildingBlock: EZIPEK_clean_linker_0, # of connection points: 2
#     Edge 14, Type (0, 1), BuildingBlock: EZIPEK_clean_linker_0, # of connection points: 2
#     Edge 15, Type (0, 1), BuildingBlock: EZIPEK_clean_linker_0, # of connection points: 2
#     Edge 16, Type (0, 1), BuildingBlock: EZIPEK_clean_linker_0, # of connection points: 2
#     Edge 17, Type (0, 1), BuildingBlock: EZIPEK_clean_linker_0, # of connection points: 2
# Relax obj value: 0.162
# Max RMSD: 0.174
# Mean RMSD: 0.143
data_MOF--net-tsx--node1-JUFBIX_clean_sbu_0--node2-ESEHIV_clean_linker_0--edge1-EZIPEK_clean_linker_0
_symmetry_space_group_name_H-M    P1
_symmetry_Int_Tables_number       1
_symmetry_cell_setting            triclinic
loop_
_symmetry_equiv_pos_as_xyz
'x, y, z'
_cell_length_a     14.493957
_cell_length_b     14.754168
_cell_length_c     25.798253
_cell_angle_alpha  92.804103
_cell_angle_beta   89.563601
_cell_angle_gamma 103.73139
loop_
_atom_site_label
_atom_site_type_symbol
_atom_site_fract_x
_atom_site_fract_y
_atom_site_fract_z
_atom_type_partial_charge
Co0 Co 0.03635 0.99983 -0.01969 0.0
C1 C 0.98977 0.07439 0.88885 0.0
Co2 Co 0.9435 0.09839 -0.01027 0.0
C3 C 0.19465 0.90372 -0.02548 0.0
C4 C 0.07271 0.83874 0.92826 0.0
N5 N 0.10512 0.91006 0.9633 0.0
N6 N 0.21836 0.83188 0.94708 0.0
C7 C 0.14148 0.79096 0.91839 0.0
H8 H 0.24235 0.95222 0.00072 0.0
H9 H 0.00445 0.82417 0.90918 0.0
C10 C 0.99194 1.0195 0.07907 0.0
N11 N 0.8793 0.19173 0.00322 0.0
C12 C 0.84247 0.23908 -0.03169 0.0
C13 C 0.88401 0.24405 0.04808 0.0
N14 N 0.82732 0.31938 -0.01059 0.0
C15 C 0.85227 0.32255 0.03963 0.0
C16 C 0.83384 0.92123 -0.02023 0.0
O17 O 0.03686 0.97494 0.04922 0.0
O18 O 0.94879 0.07714 0.06142 0.0
O19 O 0.82967 1.00604 -0.01428 0.0
O20 O 0.91613 0.90474 -0.0267 0.0
O21 O 0.93912 0.1151 0.91744 0.0
H22 H 0.91352 0.22944 0.08416 0.0
H23 H 0.83046 0.21784 0.92772 0.0
O24 O 0.03735 1.02379 0.90925 0.0
O25 O 0.15174 0.09821 -0.00793 0.0
O26 O 0.05585 0.19256 -0.00394 0.0
C27 C 0.13901 0.18066 -1e-05 0.0
H28 H 0.13645 0.73158 0.89126 0.0
H29 H 0.84857 0.37832 0.06788 0.0
Co30 Co 0.55801 0.52723 0.48729 0.0
C31 C 0.48075 0.56831 0.39377 0.0
Co32 Co 0.43473 0.59346 0.49795 0.0
C33 C 0.66901 0.38305 0.46938 0.0
C34 C 0.74351 0.52072 0.45059 0.0
N35 N 0.66235 0.47365 0.47251 0.0
N36 N 0.75051 0.37291 0.44606 0.0
C37 C 0.79734 0.45963 0.43464 0.0
H38 H 0.61332 0.32504 0.48122 0.0
H39 H 0.76025 0.59418 0.44314 0.0
C40 C 0.51684 0.55169 0.58953 0.0
N41 N 0.32999 0.64898 0.50806 0.0
C42 C 0.28935 0.69346 0.47296 0.0
C43 C 0.28166 0.65746 0.55235 0.0
N44 N 0.21856 0.72921 0.49355 0.0
C45 C 0.214 0.70715 0.54367 0.0
C46 C 0.38329 0.39784 0.49511 0.0
O47 O 0.57027 0.51738 0.5589 0.0
O48 O 0.45308 0.58806 0.57113 0.0
O49 O 0.35154 0.47135 0.49847 0.0
O50 O 0.47105 0.40494 0.48485 0.0
O51 O 0.42106 0.59577 0.42339 0.0
H52 H 0.29531 0.6306 0.58903 0.0
H53 H 0.31241 0.70205 0.43316 0.0
O54 O 0.54594 0.53767 0.41427 0.0
O55 O 0.64162 0.65269 0.49468 0.0
O56 O 0.51906 0.71585 0.50111 0.0
C57 C 0.60859 0.72498 0.50301 0.0
H58 H 0.8643 0.47695 0.4142 0.0
H59 H 0.16576 0.72644 0.57205 0.0
H60 H 0.89549 0.10072 0.29295 0.0
H61 H 0.04355 0.88432 0.30991 0.0
H62 H 0.94615 1.01476 0.44467 0.0
C63 C 0.92219 0.05597 0.31824 0.0
C64 C 0.9119 0.06602 0.37168 0.0
C65 C 0.96796 0.99002 0.2968 0.0
C66 C 0.00639 0.93344 0.32781 0.0
C67 C 0.00314 0.94457 0.38168 0.0
C68 C 0.95248 1.00895 0.40351 0.0
H69 H 0.879 0.97502 0.66438 0.0
H70 H 0.1355 0.18208 0.65734 0.0
H71 H 0.97784 0.08567 0.5176 0.0
C72 C 0.92704 1.02322 0.64068 0.0
C73 C 0.90975 1.02735 0.58752 0.0
C74 C 0.00459 0.08267 0.66559 0.0
C75 C 0.07733 0.13545 0.63642 0.0
C76 C 0.07729 0.12575 0.58173 0.0
C77 C 0.98752 0.07959 0.55804 0.0
H78 H 0.4655 0.66979 0.8126 0.0
H79 H 0.66581 0.49979 0.82309 0.0
H80 H 0.59303 0.65061 0.9593 0.0
C81 C 0.51456 0.64307 0.83567 0.0
C82 C 0.52135 0.66392 0.88898 0.0
C83 C 0.56821 0.58594 0.81198 0.0
C84 C 0.62848 0.54775 0.84197 0.0
C85 C 0.64119 0.57133 0.8956 0.0
C86 C 0.58661 0.63061 0.91866 0.0
H87 H 0.37421 0.45157 0.15511 0.0
H88 H 0.59279 0.70599 0.16483 0.0
H89 H 0.45676 0.60957 0.01918 0.0
C90 C 0.41843 0.51024 0.13606 0.0
C91 C 0.41094 0.51572 0.0816 0.0
C92 C 0.47956 0.58093 0.16678 0.0
C93 C 0.54132 0.65438 0.14203 0.0
C94 C 0.53826 0.66053 0.08787 0.0
C95 C 0.46652 0.59634 0.05911 0.0
C96 C 0.18955 0.32092 0.06162 0.0
C97 C 0.21418 0.26303 0.02046 0.0
C98 C 0.3637 0.38109 0.00988 0.0
C99 C 0.33889 0.43855 0.05176 0.0
N100 N 0.21083 0.47658 0.10104 0.0
N101 N 0.33146 0.23251 0.9599 0.0
C102 C 0.24631 0.41224 0.07242 0.0
C103 C 0.30366 0.29109 -0.00373 0.0
N104 N 0.11562 0.28581 0.09363 0.0
N105 N 0.43724 0.41684 -0.02169 0.0
H106 H 0.28699 0.17067 0.9452 0.0
H107 H 0.40096 0.24131 0.94679 0.0
H108 H 0.4651 0.48762 -0.022 0.0
H109 H 0.45792 0.38196 0.9459 0.0
H110 H 0.10013 0.32147 0.1272 0.0
H111 H 0.07804 0.21641 0.09065 0.0
H112 H 0.14018 0.4646 0.11279 0.0
H113 H 0.24906 0.54569 0.10742 0.0
C114 C 0.38709 0.85324 0.92059 0.0
C115 C 0.30565 0.80092 0.94557 0.0
C116 C 0.36762 0.66088 0.9352 0.0
C117 C 0.45224 0.71361 0.91311 0.0
N118 N 0.54092 0.86327 0.88395 0.0
N119 N 0.23124 0.66321 -0.0105 0.0
C120 C 0.4623 0.81057 0.90644 0.0
C121 C 0.30124 0.70767 0.95762 0.0
N122 N 0.39231 0.94338 0.90875 0.0
N123 N 0.34536 0.56563 0.92987 0.0
H124 H 0.18185 0.69694 0.00629 0.0
H125 H 0.22881 0.59736 0.0032 0.0
H126 H 0.38745 0.52859 0.90895 0.0
H127 H 0.28032 0.52422 0.94113 0.0
H128 H 0.4509 0.98371 0.89003 0.0
H129 H 0.3383 0.97727 0.91742 0.0
H130 H 0.59994 0.8382 0.87259 0.0
H131 H 0.59994 0.8382 0.87259 0.0
C132 C 0.76422 0.76109 0.01318 0.0
C133 C 0.74846 0.84506 -0.0053 0.0
C134 C 0.58849 0.80579 0.03522 0.0
C135 C 0.61279 0.73074 0.06016 0.0
N136 N 0.7369 0.65443 0.08246 0.0
N137 N 0.63744 0.94103 -0.0177 0.0
C138 C 0.70498 0.71461 0.05257 0.0
C139 C 0.65777 0.86542 0.00401 0.0
N140 N 0.83155 0.72139 -0.0093 0.0
N141 N 0.49923 0.82008 0.04175 0.0
H142 H 0.67682 0.97412 0.95166 0.0
H143 H 0.58046 0.96929 -0.00696 0.0
H144 H 0.4495 0.78128 0.06652 0.0
H145 H 0.47298 0.86879 0.02238 0.0
H146 H 0.84229 0.65726 0.00113 0.0
H147 H 0.86461 0.74426 0.95612 0.0
H148 H 0.80706 0.64814 0.08133 0.0
H149 H 0.69611 0.61609 0.1109 0.0
C150 C 0.70041 0.40035 -0.01501 0.0
C151 C 0.78612 0.38591 -0.03485 0.0
C152 C 0.79294 0.51255 0.90557 0.0
C153 C 0.70507 0.5255 0.92621 0.0
N154 N 0.62235 0.52179 0.00647 0.0
N155 N 0.92607 0.43887 0.91399 0.0
C156 C 0.67164 0.48063 -0.02799 0.0
C157 C 0.8364 0.44516 0.92733 0.0
N158 N 0.64541 0.3369 0.01607 0.0
N159 N 0.83612 0.56752 0.8671 0.0
H160 H 0.95879 0.39104 0.93018 0.0
H161 H 0.97009 0.48384 0.88946 0.0
H162 H 0.81225 0.62517 0.85603 0.0
H163 H 0.89471 0.55653 0.84642 0.0
H164 H 0.57775 0.34174 0.02807 0.0
H165 H 0.66315 0.27492 0.02501 0.0
H166 H 0.60455 0.497 0.04334 0.0
H167 H 0.60455 0.497 0.04334 0.0
C168 C 0.67256 0.84201 0.57785 0.0
C169 C 0.67194 0.8155 0.52387 0.0
C170 C 0.78885 0.96362 0.51237 0.0
C171 C 0.8144 0.96856 0.56511 0.0
N172 N 0.71736 0.97113 0.64106 0.0
N173 N 0.71287 0.869 0.43813 0.0
C174 C 0.73834 0.92439 0.59722 0.0
C175 C 0.72574 0.88119 0.49047 0.0
N176 N 0.60865 0.79143 0.6106 0.0
N177 N 0.79688 1.04513 0.48908 0.0
H178 H 0.66455 0.81178 0.42081 0.0
H179 H 0.75333 0.91503 0.41262 0.0
H180 H 0.75201 1.04774 0.4583 0.0
H181 H 0.82954 0.10922 0.50745 0.0
H182 H 0.6144 0.80066 0.65088 0.0
H183 H 0.55088 0.73998 0.5973 0.0
H184 H 0.65706 0.94743 0.66342 0.0
H185 H 0.75353 1.03994 0.65061 0.0
C186 C 0.73366 0.2226 0.39359 0.0
C187 C 0.78234 0.28891 0.43191 0.0
C188 C 0.91842 0.2179 0.42408 0.0
C189 C 0.86584 0.14267 0.39225 0.0
N190 N 0.71557 0.0689 0.35104 0.0
N191 N 0.91382 0.33681 0.49121 0.0
C192 C 0.77119 0.1441 0.37778 0.0
C193 C 0.87205 0.28163 0.44982 0.0
N194 N 0.65444 0.23692 0.3703 0.0
N195 N 0.01455 0.23472 0.42526 0.0
H196 H 0.8806 0.3833 0.51133 0.0
H197 H 0.97622 0.32895 0.50837 0.0
H198 H 0.04966 0.19793 0.39974 0.0
H199 H 0.05756 0.29322 0.44448 0.0
H200 H 0.62179 0.19663 0.33825 0.0
H201 H 0.62627 0.2942 0.38003 0.0
H202 H 0.64337 0.06183 0.34435 0.0
H203 H 0.73924 1.0095 0.3398 0.0
C204 C 0.3307 0.27342 0.56094 0.0
C205 C 0.32049 0.30741 0.51117 0.0
C206 C 0.17668 0.18104 0.49847 0.0
C207 C 0.16978 0.17121 0.55288 0.0
N208 N 0.2789 0.14458 0.61714 0.0
N209 N 0.25146 0.27361 0.4264 0.0
C210 C 0.2585 0.19883 0.57948 0.0
C211 C 0.2481 0.25533 0.47786 0.0
N212 N 0.40916 0.31124 0.59049 0.0
N213 N 0.13101 0.10862 0.46699 0.0
H214 H 0.30536 0.32502 0.41089 0.0
H215 H 0.20286 0.2377 0.39885 0.0
H216 H 0.09934 1.0446 0.48226 0.0
H217 H 0.13978 0.10696 0.42711 0.0
H218 H 0.41434 0.29751 0.62948 0.0
H219 H 0.46792 0.35806 0.57622 0.0
H220 H 0.34536 0.15557 0.63472 0.0
H221 H 0.23281 0.08108 0.62546 0.0
C222 C 0.21077 0.86839 0.44516 0.0
C223 C 0.16362 0.78482 0.46797 0.0
C224 C 0.00995 0.8125 0.44087 0.0
C225 C 0.05803 0.8913 0.41345 0.0
N226 N 0.20804 0.97968 0.38021 0.0
N227 N 0.019 0.66859 0.4805 0.0
C228 C 0.15955 0.91457 0.41264 0.0
C229 C 0.06312 0.75495 0.46443 0.0
N230 N 0.3042 0.90647 0.45661 0.0
N231 N 0.91324 0.79074 0.44305 0.0
H232 H 0.05613 0.62325 0.49551 0.0
H233 H 0.94707 0.63839 0.47475 0.0
H234 H 0.8723 0.82411 0.42128 0.0
H235 H 0.87431 0.74318 0.46824 0.0
H236 H 0.34009 0.97251 0.44552 0.0
H237 H 0.3427 0.87677 0.48215 0.0
H238 H 0.28076 0.9902 0.37358 0.0
H239 H 0.17542 1.01924 0.35735 0.0
C240 C 0.07113 1.04429 0.16475 0.0
C241 C 0.98965 1.00408 0.13423 0.0
C242 C 0.90511 0.93398 0.20967 0.0
C243 C 0.98083 0.98578 0.24088 0.0
N244 N 0.13102 0.09923 0.25053 0.0
N245 N 0.82604 0.91734 0.12662 0.0
C246 C 0.06318 1.0428 0.21919 0.0
C247 C 0.90572 0.95025 0.15629 0.0
N248 N 0.1555 0.08415 0.14186 0.0
N249 N 0.83306 0.86973 0.23125 0.0
H250 H 0.82426 0.92776 0.08715 0.0
H251 H 0.75993 0.88595 0.14165 0.0
H252 H 0.8304 0.85725 0.27077 0.0
H253 H 0.78056 0.82321 0.20955 0.0
H254 H 0.21932 0.10578 0.16224 0.0
H255 H 0.16364 0.08912 0.10185 0.0
H256 H 0.18687 0.15032 0.23662 0.0
H257 H 0.1275 0.10047 0.29091 0.0
C258 C 0.00772 0.16707 0.80808 0.0
C259 C 0.99057 0.07986 0.83183 0.0
C260 C 0.00588 1.00133 0.74797 0.0
C261 C 0.00933 0.0855 0.72312 0.0
N262 N 0.99429 0.24556 0.72928 0.0
N263 N 0.94368 0.91147 0.82121 0.0
C264 C 0.005 0.16792 0.75303 0.0
C265 C 0.98129 0.99608 0.80089 0.0
N266 N 0.02998 0.24887 0.83753 0.0
N267 N 0.02669 0.92656 0.72115 0.0
H268 H 0.91609 0.90526 0.85868 0.0
H269 H 0.92865 0.84894 0.79881 0.0
H270 H 0.04819 0.92898 0.68244 0.0
H271 H 0.0323 0.86618 0.739 0.0
H272 H 0.05197 0.31397 0.82153 0.0
H273 H 0.03542 0.25158 0.87787 0.0
H274 H 0.98097 0.30382 0.74969 0.0
H275 H 0.98993 0.24867 0.68912 0.0
C276 C 0.62324 0.59885 0.66778 0.0
C277 C 0.53247 0.55399 0.64642 0.0
C278 C 0.47395 0.51229 0.73365 0.0
C279 C 0.56012 0.56712 0.75505 0.0
N280 N 0.71185 0.67451 0.74357 0.0
N281 N 0.36777 0.47579 0.65969 0.0
C282 C 0.63397 0.61276 0.72245 0.0
C283 C 0.45665 0.51304 0.67955 0.0
N284 N 0.69913 0.6305 0.6362 0.0
N285 N 0.40962 0.45771 0.76507 0.0
H286 H 0.35231 0.46919 0.62014 0.0
H287 H 0.30768 0.45593 0.68268 0.0
H288 H 0.42076 0.45505 0.80484 0.0
H289 H 0.34985 0.40865 0.75119 0.0
H290 H 0.76884 0.65107 0.64978 0.0
H291 H 0.69423 0.63291 0.59612 0.0
H292 H 0.76198 0.71929 0.72171 0.0
H293 H 0.72276 0.68715 0.78343 0.0
C294 C 0.46474 0.65232 0.31151 0.0
C295 C 0.47565 0.5708 0.33567 0.0
C296 C 0.50114 0.50119 0.24945 0.0
C297 C 0.4789 0.57768 0.22509 0.0
N298 N 0.41796 0.71648 0.23395 0.0
N299 N 0.48095 0.4083 0.32531 0.0
C300 C 0.45434 0.65048 0.25644 0.0
C301 C 0.48723 0.49251 0.30395 0.0
N302 N 0.46928 0.73332 0.34049 0.0
N303 N 0.53898 0.43835 0.22103 0.0
H304 H 0.46564 0.39708 0.36436 0.0
H305 H 0.48009 0.34709 0.30318 0.0
H306 H 0.55328 0.44384 0.18147 0.0
H307 H 0.56529 0.38668 0.23778 0.0
H308 H 0.47144 0.79692 0.32406 0.0
H309 H 0.48129 0.73964 0.38042 0.0
H310 H 0.39009 0.76543 0.25536 0.0
H311 H 0.40653 0.71641 0.19408 0.0
loop_
_geom_bond_atom_site_label_1
_geom_bond_atom_site_label_2
_geom_bond_distance
_geom_bond_site_symmetry_2
_ccdc_geom_bond_type
Co0 N5 2.057 . S
Co0 O17 2.021 . S
Co0 O20 2.062 1_455 S
Co0 O24 2.117 1_554 S
Co0 O25 2.020 1_565 S
C1 O21 1.257 1_455 S
C1 O24 1.260 1_545 S
Co2 N11 2.057 . S
Co2 O18 2.117 . S
Co2 O19 2.020 1_545 S
Co2 O21 2.021 1_554 S
Co2 O26 2.062 1_655 S
C3 N5 1.316 . S
C3 N6 1.347 . S
C3 H8 0.931 . S
C4 N5 1.375 1_556 S
C4 C7 1.350 . S
C4 H9 0.930 . S
N5 Co0 2.057 . S
N5 C3 1.316 . S
N5 C4 1.375 1_554 S
N6 C3 1.347 . S
N6 C7 1.373 1_554 S
C7 C4 1.350 . S
C7 N6 1.373 1_556 S
C7 H28 0.931 . S
H8 C3 0.931 . S
H9 C4 0.930 . S
C10 O17 1.259 1_545 S
C10 O18 1.258 1_455 S
N11 Co2 2.057 . S
N11 C12 1.316 . S
N11 C13 1.375 . S
C12 N11 1.316 . S
C12 N14 1.347 . S
C12 H23 0.931 1_554 S
C13 N11 1.375 . S
C13 C15 1.350 . S
C13 H22 0.930 . S
N14 C12 1.347 . S
N14 C15 1.373 . S
C15 C13 1.350 . S
C15 N14 1.373 . S
C15 H29 0.931 . S
C16 O19 1.256 . S
C16 O20 1.255 . S
O17 Co0 2.021 . S
O17 C10 1.259 1_565 S
O18 Co2 2.117 . S
O18 C10 1.258 1_655 S
O19 Co2 2.020 1_565 S
O19 C16 1.256 . S
O20 Co0 2.062 1_655 S
O20 C16 1.255 . S
O21 C1 1.257 1_655 S
O21 Co2 2.021 1_556 S
H22 C13 0.930 . S
H23 C12 0.931 1_556 S
O24 Co0 2.117 1_556 S
O24 C1 1.260 1_565 S
O25 Co0 2.020 1_545 S
O25 C27 1.256 . S
O26 Co2 2.062 1_455 S
O26 C27 1.255 . S
C27 O25 1.256 . S
C27 O26 1.255 . S
H28 C7 0.931 . S
H29 C15 0.931 . S
Co30 N35 2.057 . S
Co30 O47 2.021 . S
Co30 O50 2.062 . S
Co30 O54 2.117 . S
Co30 O55 2.020 . S
C31 O51 1.259 . S
C31 O54 1.258 . S
Co32 N41 2.057 . S
Co32 O48 2.117 . S
Co32 O49 2.020 . S
Co32 O51 2.021 . S
Co32 O56 2.062 . S
C33 N35 1.316 . S
C33 N36 1.347 . S
C33 H38 0.931 . S
C34 N35 1.375 . S
C34 C37 1.350 . S
C34 H39 0.930 . S
N35 Co30 2.057 . S
N35 C33 1.316 . S
N35 C34 1.375 . S
N36 C33 1.347 . S
N36 C37 1.373 . S
C37 C34 1.350 . S
C37 N36 1.373 . S
C37 H58 0.931 . S
H38 C33 0.931 . S
H39 C34 0.930 . S
C40 O47 1.259 . S
C40 O48 1.258 . S
N41 Co32 2.057 . S
N41 C42 1.316 . S
N41 C43 1.375 . S
C42 N41 1.316 . S
C42 N44 1.347 . S
C42 H53 0.931 . S
C43 N41 1.375 . S
C43 C45 1.350 . S
C43 H52 0.930 . S
N44 C42 1.347 . S
N44 C45 1.373 . S
C45 C43 1.350 . S
C45 N44 1.373 . S
C45 H59 0.931 . S
C46 O49 1.256 . S
C46 O50 1.255 . S
O47 Co30 2.021 . S
O47 C40 1.259 . S
O48 Co32 2.117 . S
O48 C40 1.258 . S
O49 Co32 2.020 . S
O49 C46 1.256 . S
O50 Co30 2.062 . S
O50 C46 1.255 . S
O51 C31 1.259 . S
O51 Co32 2.021 . S
H52 C43 0.930 . S
H53 C42 0.931 . S
O54 Co30 2.117 . S
O54 C31 1.258 . S
O55 Co30 2.020 . S
O55 C57 1.256 . S
O56 Co32 2.062 . S
O56 C57 1.255 . S
C57 O55 1.256 . S
C57 O56 1.255 . S
H58 C37 0.931 . S
H59 C45 0.931 . S
H60 C63 0.931 . S
H61 C66 0.928 . S
H62 C68 0.930 . S
C63 H60 0.931 . S
C63 C64 1.413 . S
C63 C65 1.364 . S
C64 C63 1.413 . S
C64 C68 1.429 1_655 S
C65 C63 1.364 . S
C65 C66 1.367 1_645 S
C66 H61 0.928 . S
C66 C65 1.367 1_465 S
C66 C67 1.404 . S
C67 C66 1.404 . S
C67 C68 1.391 1_565 S
C68 H62 0.930 . S
C68 C64 1.429 1_455 S
C68 C67 1.391 1_545 S
H69 C72 0.931 . S
H70 C75 0.928 . S
H71 C77 0.930 . S
C72 H69 0.931 . S
C72 C73 1.413 . S
C72 C74 1.360 1_665 S
C73 C72 1.413 . S
C73 C77 1.429 1_665 S
C74 C72 1.360 1_445 S
C74 C75 1.372 . S
C75 H70 0.928 . S
C75 C74 1.372 . S
C75 C76 1.404 . S
C76 C75 1.404 . S
C76 C77 1.391 . S
C77 H71 0.930 . S
C77 C73 1.429 1_445 S
C77 C76 1.391 . S
H78 C81 0.931 . S
H79 C84 0.928 . S
H80 C86 0.930 1_554 S
C81 H78 0.931 . S
C81 C82 1.413 . S
C81 C83 1.360 . S
C82 C81 1.413 . S
C82 C86 1.429 . S
C83 C81 1.360 . S
C83 C84 1.372 . S
C84 H79 0.928 . S
C84 C83 1.372 . S
C84 C85 1.404 . S
C85 C84 1.404 . S
C85 C86 1.391 . S
C86 H80 0.930 1_556 S
C86 C82 1.429 . S
C86 C85 1.391 . S
H87 C90 0.931 . S
H88 C93 0.928 . S
H89 C95 0.930 . S
C90 H87 0.931 . S
C90 C91 1.413 . S
C90 C92 1.360 . S
C91 C90 1.413 . S
C91 C95 1.429 . S
C92 C90 1.360 . S
C92 C93 1.372 . S
C93 H88 0.928 . S
C93 C92 1.372 . S
C93 C94 1.404 . S
C94 C93 1.404 . S
C94 C95 1.391 . S
C95 H89 0.930 . S
C95 C91 1.429 . S
C95 C94 1.391 . S
C96 C97 1.363 . S
C96 C102 1.379 . S
C96 N104 1.356 . S
C97 C96 1.363 . S
C97 C103 1.363 . S
C98 C99 1.363 . S
C98 C103 1.379 . S
C98 N105 1.356 . S
C99 C98 1.363 . S
C99 C102 1.363 . S
N100 C102 1.356 . S
N100 H112 0.984 . S
N100 H113 0.985 . S
N101 C103 1.356 1_556 S
N101 H106 0.984 . S
N101 H107 0.985 . S
C102 C96 1.379 . S
C102 C99 1.363 . S
C102 N100 1.356 . S
C103 C97 1.363 . S
C103 C98 1.379 . S
C103 N101 1.356 1_554 S
N104 C96 1.356 . S
N104 H110 0.984 . S
N104 H111 0.984 . S
N105 C98 1.356 . S
N105 H108 0.984 . S
N105 H109 0.985 1_554 S
H106 N101 0.984 . S
H107 N101 0.985 . S
H108 N105 0.984 . S
H109 N105 0.985 1_556 S
H110 N104 0.984 . S
H111 N104 0.984 . S
H112 N100 0.984 . S
H113 N100 0.985 . S
C114 C115 1.363 . S
C114 C120 1.379 . S
C114 N122 1.356 . S
C115 C114 1.363 . S
C115 C121 1.363 1_554 S
C116 C117 1.363 . S
C116 C121 1.379 . S
C116 N123 1.356 . S
C117 C116 1.363 . S
C117 C120 1.363 1_556 S
N118 C120 1.356 . S
N118 H130 0.984 . S
N118 H131 0.985 . S
N119 C121 1.356 . S
N119 H124 0.984 . S
N119 H125 0.985 . S
C120 C114 1.379 . S
C120 C117 1.363 1_554 S
C120 N118 1.356 . S
C121 C115 1.363 1_556 S
C121 C116 1.379 . S
C121 N119 1.356 . S
N122 C114 1.356 . S
N122 H128 0.984 . S
N122 H129 0.984 . S
N123 C116 1.356 . S
N123 H126 0.984 . S
N123 H127 0.985 . S
H124 N119 0.984 . S
H125 N119 0.985 . S
H126 N123 0.984 . S
H127 N123 0.985 . S
H128 N122 0.984 . S
H129 N122 0.984 . S
H130 N118 0.984 . S
H131 N118 0.985 . S
C132 C133 1.363 . S
C132 C138 1.379 . S
C132 N140 1.356 . S
C133 C132 1.363 . S
C133 C139 1.363 . S
C134 C135 1.363 . S
C134 C139 1.379 . S
C134 N141 1.356 . S
C135 C134 1.363 . S
C135 C138 1.363 . S
N136 C138 1.356 . S
N136 H148 0.984 . S
N136 H149 0.985 . S
N137 C139 1.356 . S
N137 H142 0.984 . S
N137 H143 0.985 . S
C138 C132 1.379 . S
C138 C135 1.363 . S
C138 N136 1.356 . S
C139 C133 1.363 . S
C139 C134 1.379 . S
C139 N137 1.356 . S
N140 C132 1.356 . S
N140 H146 0.984 . S
N140 H147 0.984 . S
N141 C134 1.356 . S
N141 H144 0.984 . S
N141 H145 0.985 . S
H142 N137 0.984 . S
H143 N137 0.985 . S
H144 N141 0.984 . S
H145 N141 0.985 . S
H146 N140 0.984 . S
H147 N140 0.984 . S
H148 N136 0.984 . S
H149 N136 0.985 . S
C150 C151 1.363 . S
C150 C156 1.379 . S
C150 N158 1.356 . S
C151 C150 1.363 . S
C151 C157 1.363 1_554 S
C152 C153 1.363 . S
C152 C157 1.379 . S
C152 N159 1.356 . S
C153 C152 1.363 . S
C153 C156 1.363 1_556 S
N154 C156 1.356 . S
N154 H166 0.984 . S
N154 H167 0.985 . S
N155 C157 1.356 . S
N155 H160 0.984 . S
N155 H161 0.985 . S
C156 C150 1.379 . S
C156 C153 1.363 1_554 S
C156 N154 1.356 . S
C157 C151 1.363 1_556 S
C157 C152 1.379 . S
C157 N155 1.356 . S
N158 C150 1.356 . S
N158 H164 0.984 . S
N158 H165 0.984 . S
N159 C152 1.356 . S
N159 H162 0.984 . S
N159 H163 0.985 . S
H160 N155 0.984 . S
H161 N155 0.985 . S
H162 N159 0.984 . S
H163 N159 0.985 . S
H164 N158 0.984 . S
H165 N158 0.984 . S
H166 N154 0.984 . S
H167 N154 0.985 . S
C168 C169 1.363 . S
C168 C174 1.379 . S
C168 N176 1.356 . S
C169 C168 1.363 . S
C169 C175 1.363 . S
C170 C171 1.363 . S
C170 C175 1.379 . S
C170 N177 1.356 . S
C171 C170 1.363 . S
C171 C174 1.363 . S
N172 C174 1.356 . S
N172 H184 0.984 . S
N172 H185 0.985 . S
N173 C175 1.356 . S
N173 H178 0.984 . S
N173 H179 0.985 . S
C174 C168 1.379 . S
C174 C171 1.363 . S
C174 N172 1.356 . S
C175 C169 1.363 . S
C175 C170 1.379 . S
C175 N173 1.356 . S
N176 C168 1.356 . S
N176 H182 0.984 . S
N176 H183 0.984 . S
N177 C170 1.356 . S
N177 H180 0.984 . S
N177 H181 0.985 . S
H178 N173 0.984 . S
H179 N173 0.985 . S
H180 N177 0.984 . S
H181 N177 0.985 . S
H182 N176 0.984 . S
H183 N176 0.984 . S
H184 N172 0.984 . S
H185 N172 0.985 . S
C186 C187 1.363 . S
C186 C192 1.379 . S
C186 N194 1.356 . S
C187 C186 1.363 . S
C187 C193 1.363 . S
C188 C189 1.363 . S
C188 C193 1.379 . S
C188 N195 1.356 . S
C189 C188 1.363 . S
C189 C192 1.363 . S
N190 C192 1.356 . S
N190 H202 0.984 . S
N190 H203 0.985 . S
N191 C193 1.356 . S
N191 H196 0.984 . S
N191 H197 0.985 . S
C192 C186 1.379 . S
C192 C189 1.363 . S
C192 N190 1.356 . S
C193 C187 1.363 . S
C193 C188 1.379 . S
C193 N191 1.356 . S
N194 C186 1.356 . S
N194 H200 0.984 . S
N194 H201 0.984 . S
N195 C188 1.356 . S
N195 H198 0.984 1_655 S
N195 H199 0.985 1_655 S
H196 N191 0.984 . S
H197 N191 0.985 . S
H198 N195 0.984 1_455 S
H199 N195 0.985 1_455 S
H200 N194 0.984 . S
H201 N194 0.984 . S
H202 N190 0.984 . S
H203 N190 0.985 . S
C204 C205 1.363 . S
C204 C210 1.379 . S
C204 N212 1.356 . S
C205 C204 1.363 . S
C205 C211 1.363 . S
C206 C207 1.363 . S
C206 C211 1.379 . S
C206 N213 1.356 . S
C207 C206 1.363 . S
C207 C210 1.363 . S
N208 C210 1.356 . S
N208 H220 0.984 . S
N208 H221 0.985 . S
N209 C211 1.356 . S
N209 H214 0.984 . S
N209 H215 0.985 . S
C210 C204 1.379 . S
C210 C207 1.363 . S
C210 N208 1.356 . S
C211 C205 1.363 . S
C211 C206 1.379 . S
C211 N209 1.356 . S
N212 C204 1.356 . S
N212 H218 0.984 . S
N212 H219 0.984 . S
N213 C206 1.356 . S
N213 H216 0.984 . S
N213 H217 0.985 . S
H214 N209 0.984 . S
H215 N209 0.985 . S
H216 N213 0.984 . S
H217 N213 0.985 . S
H218 N212 0.984 . S
H219 N212 0.984 . S
H220 N208 0.984 . S
H221 N208 0.985 . S
C222 C223 1.363 . S
C222 C228 1.379 . S
C222 N230 1.356 . S
C223 C222 1.363 . S
C223 C229 1.363 . S
C224 C225 1.363 . S
C224 C229 1.379 . S
C224 N231 1.356 . S
C225 C224 1.363 . S
C225 C228 1.363 . S
N226 C228 1.356 . S
N226 H238 0.984 . S
N226 H239 0.985 . S
N227 C229 1.356 . S
N227 H232 0.984 . S
N227 H233 0.985 . S
C228 C222 1.379 . S
C228 C225 1.363 . S
C228 N226 1.356 . S
C229 C223 1.363 . S
C229 C224 1.379 . S
C229 N227 1.356 . S
N230 C222 1.356 . S
N230 H236 0.984 . S
N230 H237 0.984 . S
N231 C224 1.356 . S
N231 H234 0.984 1_455 S
N231 H235 0.983 1_455 S
H232 N227 0.984 . S
H233 N227 0.985 . S
H234 N231 0.984 1_655 S
H235 N231 0.983 1_655 S
H236 N230 0.984 . S
H237 N230 0.984 . S
H238 N226 0.984 . S
H239 N226 0.985 . S
C240 C241 1.363 . S
C240 C246 1.379 . S
C240 N248 1.356 . S
C241 C240 1.363 . S
C241 C247 1.363 1_445 S
C242 C243 1.363 1_665 S
C242 C247 1.379 . S
C242 N249 1.356 . S
C243 C242 1.363 1_445 S
C243 C246 1.363 . S
N244 C246 1.356 . S
N244 H256 0.984 . S
N244 H257 0.985 . S
N245 C247 1.356 . S
N245 H250 0.984 . S
N245 H251 0.985 . S
C246 C240 1.379 . S
C246 C243 1.363 . S
C246 N244 1.356 . S
C247 C241 1.363 1_665 S
C247 C242 1.379 . S
C247 N245 1.356 . S
N248 C240 1.356 . S
N248 H254 0.984 . S
N248 H255 0.984 . S
N249 C242 1.356 . S
N249 H252 0.984 . S
N249 H253 0.985 . S
H250 N245 0.984 . S
H251 N245 0.985 . S
H252 N249 0.984 . S
H253 N249 0.985 . S
H254 N248 0.984 . S
H255 N248 0.984 . S
H256 N244 0.984 . S
H257 N244 0.985 . S
C258 C259 1.363 1_655 S
C258 C264 1.379 . S
C258 N266 1.356 . S
C259 C258 1.363 1_455 S
C259 C265 1.363 1_545 S
C260 C261 1.363 1_565 S
C260 C265 1.379 . S
C260 N267 1.356 . S
C261 C260 1.363 1_545 S
C261 C264 1.363 1_455 S
N262 C264 1.356 . S
N262 H274 0.984 . S
N262 H275 0.985 . S
N263 C265 1.356 . S
N263 H268 0.984 . S
N263 H269 0.985 . S
C264 C258 1.379 . S
C264 C261 1.363 1_655 S
C264 N262 1.356 . S
C265 C259 1.363 1_565 S
C265 C260 1.379 . S
C265 N263 1.356 . S
N266 C258 1.356 . S
N266 H272 0.984 . S
N266 H273 0.984 . S
N267 C260 1.356 . S
N267 H270 0.984 . S
N267 H271 0.985 . S
H268 N263 0.984 . S
H269 N263 0.985 . S
H270 N267 0.984 . S
H271 N267 0.985 . S
H272 N266 0.984 . S
H273 N266 0.984 . S
H274 N262 0.984 . S
H275 N262 0.985 . S
C276 C277 1.363 . S
C276 C282 1.379 . S
C276 N284 1.356 . S
C277 C276 1.363 . S
C277 C283 1.363 . S
C278 C279 1.363 . S
C278 C283 1.379 . S
C278 N285 1.356 . S
C279 C278 1.363 . S
C279 C282 1.363 . S
N280 C282 1.356 . S
N280 H292 0.984 . S
N280 H293 0.985 . S
N281 C283 1.356 . S
N281 H286 0.984 . S
N281 H287 0.985 . S
C282 C276 1.379 . S
C282 C279 1.363 . S
C282 N280 1.356 . S
C283 C277 1.363 . S
C283 C278 1.379 . S
C283 N281 1.356 . S
N284 C276 1.356 . S
N284 H290 0.984 . S
N284 H291 0.984 . S
N285 C278 1.356 . S
N285 H288 0.984 . S
N285 H289 0.985 . S
H286 N281 0.984 . S
H287 N281 0.985 . S
H288 N285 0.984 . S
H289 N285 0.985 . S
H290 N284 0.984 . S
H291 N284 0.984 . S
H292 N280 0.984 . S
H293 N280 0.985 . S
C294 C295 1.363 . S
C294 C300 1.379 . S
C294 N302 1.356 . S
C295 C294 1.363 . S
C295 C301 1.363 . S
C296 C297 1.363 . S
C296 C301 1.379 . S
C296 N303 1.356 . S
C297 C296 1.363 . S
C297 C300 1.363 . S
N298 C300 1.356 . S
N298 H310 0.984 . S
N298 H311 0.985 . S
N299 C301 1.356 . S
N299 H304 0.984 . S
N299 H305 0.985 . S
C300 C294 1.379 . S
C300 C297 1.363 . S
C300 N298 1.356 . S
C301 C295 1.363 . S
C301 C296 1.379 . S
C301 N299 1.356 . S
N302 C294 1.356 . S
N302 H308 0.984 . S
N302 H309 0.984 . S
N303 C296 1.356 . S
N303 H306 0.984 . S
N303 H307 0.985 . S
H304 N299 0.984 . S
H305 N299 0.985 . S
H306 N303 0.984 . S
H307 N303 0.985 . S
H308 N302 0.984 . S
H309 N302 0.984 . S
H310 N298 0.984 . S
H311 N298 0.985 . S
C99 C91 1.452 . S
C97 C27 1.456 . S
C115 N6 1.357 . S
C117 C82 1.444 . S
C133 C16 1.446 . S
C135 C94 1.445 . S
C151 N14 1.433 . S
C153 C85 1.435 . S
C169 C57 1.456 . S
C171 C73 1.452 . S
C187 N36 1.357 . S
C189 C64 1.445 . S
C207 C76 1.445 . S
C205 C46 1.446 . S
C225 C67 1.435 . S
C223 N44 1.432 . S
C241 C10 1.395 . S
C243 C65 1.399 1_455 S
C259 C1 1.543 . S
C261 C74 1.548 . S
C279 C83 1.399 . S
C277 C40 1.395 . S
C295 C31 1.543 . S
C297 C92 1.548 . S
