# Generated by pormake.
# Topology pyr, (3,6)-cn, num edge types: 1
# Building blocks:
#     Node 0, Type 0, BuildingBlock: QEWDON_clean_linker_0, # of connection points: 3
#     Node 1, Type 0, BuildingBlock: QEWDON_clean_linker_0, # of connection points: 3
#     Node 2, Type 0, BuildingBlock: QEWDON_clean_linker_0, # of connection points: 3
#     Node 3, Type 0, BuildingBlock: QEWDON_clean_linker_0, # of connection points: 3
#     Node 4, Type 0, BuildingBlock: QEWDON_clean_linker_0, # of connection points: 3
#     Node 5, Type 0, BuildingBlock: QEWDON_clean_linker_0, # of connection points: 3
#     Node 6, Type 0, BuildingBlock: QEWDON_clean_linker_0, # of connection points: 3
#     Node 7, Type 0, BuildingBlock: QEWDON_clean_linker_0, # of connection points: 3
#     Node 8, Type 1, BuildingBlock: JUFBIX_clean_sbu_0, # of connection points: 6
#     Node 9, Type 1, BuildingBlock: JUFBIX_clean_sbu_0, # of connection points: 6
#     Node 10, Type 1, BuildingBlock: JUFBIX_clean_sbu_0, # of connection points: 6
#     Node 11, Type 1, BuildingBlock: JUFBIX_clean_sbu_0, # of connection points: 6
#     Edge 12, Type (0, 1), BuildingBlock: XUDNAN_clean_linker_2, # of connection points: 2
#     Edge 13, Type (0, 1), BuildingBlock: XUDNAN_clean_linker_2, # of connection points: 2
#     Edge 14, Type (0, 1), BuildingBlock: XUDNAN_clean_linker_2, # of connection points: 2
#     Edge 15, Type (0, 1), BuildingBlock: XUDNAN_clean_linker_2, # of connection points: 2
#     Edge 16, Type (0, 1), BuildingBlock: XUDNAN_clean_linker_2, # of connection points: 2
#     Edge 17, Type (0, 1), BuildingBlock: XUDNAN_clean_linker_2, # of connection points: 2
#     Edge 18, Type (0, 1), BuildingBlock: XUDNAN_clean_linker_2, # of connection points: 2
#     Edge 19, Type (0, 1), BuildingBlock: XUDNAN_clean_linker_2, # of connection points: 2
#     Edge 20, Type (0, 1), BuildingBlock: XUDNAN_clean_linker_2, # of connection points: 2
#     Edge 21, Type (0, 1), BuildingBlock: XUDNAN_clean_linker_2, # of connection points: 2
#     Edge 22, Type (0, 1), BuildingBlock: XUDNAN_clean_linker_2, # of connection points: 2
#     Edge 23, Type (0, 1), BuildingBlock: XUDNAN_clean_linker_2, # of connection points: 2
#     Edge 24, Type (0, 1), BuildingBlock: XUDNAN_clean_linker_2, # of connection points: 2
#     Edge 25, Type (0, 1), BuildingBlock: XUDNAN_clean_linker_2, # of connection points: 2
#     Edge 26, Type (0, 1), BuildingBlock: XUDNAN_clean_linker_2, # of connection points: 2
#     Edge 27, Type (0, 1), BuildingBlock: XUDNAN_clean_linker_2, # of connection points: 2
#     Edge 28, Type (0, 1), BuildingBlock: XUDNAN_clean_linker_2, # of connection points: 2
#     Edge 29, Type (0, 1), BuildingBlock: XUDNAN_clean_linker_2, # of connection points: 2
#     Edge 30, Type (0, 1), BuildingBlock: XUDNAN_clean_linker_2, # of connection points: 2
#     Edge 31, Type (0, 1), BuildingBlock: XUDNAN_clean_linker_2, # of connection points: 2
#     Edge 32, Type (0, 1), BuildingBlock: XUDNAN_clean_linker_2, # of connection points: 2
#     Edge 33, Type (0, 1), BuildingBlock: XUDNAN_clean_linker_2, # of connection points: 2
#     Edge 34, Type (0, 1), BuildingBlock: XUDNAN_clean_linker_2, # of connection points: 2
#     Edge 35, Type (0, 1), BuildingBlock: XUDNAN_clean_linker_2, # of connection points: 2
# Relax obj value: 0.182
# Max RMSD: 0.286
# Mean RMSD: 0.183
data_MOF--net-pyr--node1-JUFBIX_clean_sbu_0--node2-QEWDON_clean_linker_0--edge1-XUDNAN_clean_linker_2
_symmetry_space_group_name_H-M    P1
_symmetry_Int_Tables_number       1
_symmetry_cell_setting            triclinic
loop_
_symmetry_equiv_pos_as_xyz
'x, y, z'
_cell_length_a     36.827754
_cell_length_b     35.256752
_cell_length_c     39.537471
_cell_angle_alpha  83.589664
_cell_angle_beta   88.566403
_cell_angle_gamma 99.129104
loop_
_atom_site_label
_atom_site_type_symbol
_atom_site_fract_x
_atom_site_fract_y
_atom_site_fract_z
_atom_type_partial_charge
H0 H 0.27879 0.252 0.17631 0.0
C1 C 0.26345 0.23835 0.19941 0.0
C2 C 0.27352 0.20422 0.21586 0.0
C3 C 0.23661 0.25732 0.21414 0.0
H4 H 0.26182 0.16132 0.25954 0.0
C5 C 0.25431 0.18754 0.24662 0.0
C6 C 0.2269 0.20486 0.26194 0.0
C7 C 0.21788 0.23966 0.24512 0.0
C8 C 0.23492 0.2989 0.20057 0.0
H9 H 0.1987 0.25457 0.25752 0.0
C10 C 0.2018 0.31456 0.1942 0.0
C11 C 0.20357 0.3539 0.17955 0.0
C12 C 0.2688 0.32384 0.19375 0.0
H13 H 0.29454 0.3137 0.19921 0.0
C14 C 0.2704 0.36216 0.18007 0.0
H15 H 0.17531 0.29626 0.19955 0.0
C16 C 0.23832 0.37692 0.17281 0.0
H17 H 0.24072 0.40697 0.16221 0.0
H18 H 0.29684 0.38062 0.17501 0.0
H19 H 0.36298 0.87078 0.8071 0.0
C20 C 0.38232 0.85409 0.79725 0.0
C21 C 0.42039 0.86469 0.80104 0.0
C22 C 0.36883 0.82131 0.78166 0.0
H23 H 0.47435 0.85057 0.78989 0.0
C24 C 0.44496 0.84316 0.78706 0.0
C25 C 0.43135 0.81061 0.77097 0.0
C26 C 0.39334 0.79957 0.76877 0.0
C27 C 0.32899 0.80936 0.77907 0.0
H28 H 0.38281 0.77413 0.75667 0.0
C29 C 0.30926 0.83149 0.75695 0.0
C30 C 0.27155 0.81927 0.75287 0.0
C31 C 0.31095 0.77505 0.79763 0.0
H32 H 0.32597 0.7576 0.8147 0.0
C33 C 0.27335 0.76317 0.7943 0.0
H34 H 0.32369 0.85737 0.74197 0.0
C35 C 0.2537 0.78503 0.77201 0.0
H36 H 0.22457 0.77517 0.76977 0.0
H37 H 0.25944 0.7368 0.80883 0.0
H38 H 0.74075 0.51841 0.94453 0.0
C39 C 0.72592 0.48901 0.94752 0.0
C40 C 0.73993 0.45983 0.96768 0.0
C41 C 0.69237 0.48062 0.93189 0.0
H42 H 0.7311 0.39965 0.98767 0.0
C43 C 0.72001 0.42212 0.97222 0.0
C44 C 0.68624 0.41328 0.95666 0.0
C45 C 0.67281 0.4428 0.9362 0.0
C46 C 0.67657 0.51185 0.91265 0.0
H47 H 0.64636 0.43688 0.92476 0.0
C48 C 0.67215 0.51214 0.87748 0.0
C49 C 0.65599 0.5413 0.85943 0.0
C50 C 0.66512 0.54104 0.92967 0.0
H51 H 0.66838 0.54118 0.95682 0.0
C52 C 0.64868 0.56982 0.91183 0.0
H53 H 0.68117 0.48972 0.86424 0.0
C54 C 0.64393 0.5699 0.8769 0.0
H55 H 0.63144 0.59264 0.86338 0.0
H56 H 0.63962 0.59212 0.92511 0.0
H57 H 1.02482 0.68915 0.46595 0.0
C58 C 1.00107 0.68522 0.48351 0.0
C59 C 0.99339 0.71621 0.50025 0.0
C60 C 0.97741 0.64951 0.48862 0.0
H61 H 0.95443 0.73686 0.53178 0.0
C62 C 0.96141 0.71173 0.52119 0.0
C63 C 0.93656 0.67681 0.52532 0.0
C64 C 0.94547 0.64528 0.50977 0.0
C65 C 0.98296 0.6184 0.46803 0.0
H66 H 0.92653 0.61814 0.51238 0.0
C67 C 0.97738 0.62324 0.43299 0.0
C68 C 0.97987 0.5931 0.413 0.0
C69 C 0.99168 0.58333 0.48325 0.0
H70 H 0.9957 0.57903 0.51038 0.0
C71 C 0.9953 0.55361 0.46339 0.0
H72 H 0.9705 0.65042 0.42145 0.0
C73 C 0.98942 0.55836 0.42845 0.0
H74 H 0.99146 0.5346 0.41373 0.0
H75 H 1.0022 0.52661 0.47518 0.0
H76 H 0.86476 0.87039 0.91383 0.0
C77 C 0.87767 0.88766 0.89104 0.0
C78 C 0.91117 0.87937 0.8773 0.0
C79 C 0.85875 0.91541 0.87361 0.0
H80 H 0.95071 0.89376 0.83432 0.0
C81 C 0.92557 0.90007 0.84554 0.0
C82 C 0.90676 0.92694 0.82692 0.0
C83 C 0.87405 0.93507 0.84209 0.0
C84 C 0.81843 0.91509 0.88136 0.0
H85 H 0.85873 0.95515 0.82827 0.0
C86 C 0.8037 0.93617 0.9059 0.0
C87 C 0.76479 0.93696 0.90874 0.0
C88 C 0.7941 0.89459 0.8606 0.0
H89 H 0.80438 0.87837 0.84174 0.0
C90 C 0.75663 0.89569 0.86274 0.0
H91 H 0.82233 0.95182 0.92216 0.0
C92 C 0.74228 0.91695 0.88587 0.0
H93 H 0.71319 0.91814 0.88491 0.0
H94 H 0.73853 0.88048 0.84575 0.0
H95 H 0.75408 0.26814 0.45549 0.0
C96 C 0.74368 0.26677 0.43016 0.0
C97 C 0.76429 0.25359 0.40497 0.0
C98 C 0.70939 0.27754 0.42303 0.0
H99 H 0.76538 0.239 0.35359 0.0
C100 C 0.75015 0.25076 0.37265 0.0
C101 C 0.71525 0.26016 0.36555 0.0
C102 C 0.6954 0.27471 0.39055 0.0
C103 C 0.68704 0.28866 0.45053 0.0
H104 H 0.66809 0.28123 0.38561 0.0
C105 C 0.67728 0.3257 0.44817 0.0
C106 C 0.65734 0.33683 0.47515 0.0
C107 C 0.67629 0.26241 0.47974 0.0
H108 H 0.68366 0.23371 0.48193 0.0
C109 C 0.65584 0.273 0.50627 0.0
H110 H 0.68574 0.34594 0.4256 0.0
C111 C 0.64649 0.31 0.50412 0.0
H112 H 0.63154 0.31789 0.52551 0.0
H113 H 0.64763 0.25266 0.52876 0.0
H114 H 0.41486 0.73755 0.23454 0.0
C115 C 0.39048 0.73373 0.21974 0.0
C116 C 0.3858 0.76255 0.19336 0.0
C117 C 0.3647 0.69941 0.22628 0.0
H118 H 0.35067 0.77836 0.15289 0.0
C119 C 0.35523 0.75628 0.17296 0.0
C120 C 0.32982 0.72198 0.17841 0.0
C121 C 0.33415 0.69403 0.20553 0.0
C122 C 0.37064 0.66867 0.25376 0.0
H123 H 0.314 0.66784 0.21 0.0
C124 C 0.3864 0.67833 0.28448 0.0
C125 C 0.39393 0.64939 0.30968 0.0
C126 C 0.36176 0.62937 0.24897 0.0
H127 H 0.35039 0.62076 0.22548 0.0
C128 C 0.36847 0.60057 0.27408 0.0
H129 H 0.39257 0.70839 0.28893 0.0
C130 C 0.38459 0.61039 0.30411 0.0
H131 H 0.39059 0.58737 0.32257 0.0
H132 H 0.3618 0.57046 0.26995 0.0
H133 H 0.19393 0.3967 0.73845 0.0
C134 C 0.17771 0.3837 0.71897 0.0
C135 C 0.1854 0.3981 0.68447 0.0
C136 C 0.15053 0.35122 0.72823 0.0
H137 H 0.17204 0.38959 0.6326 0.0
C138 C 0.16508 0.38017 0.65936 0.0
C139 C 0.1376 0.34816 0.66858 0.0
C140 C 0.13023 0.33399 0.70293 0.0
C141 C 0.1447 0.33376 0.76407 0.0
H142 H 0.10975 0.30838 0.70984 0.0
C143 C 0.13811 0.35658 0.78964 0.0
C144 C 0.13101 0.33993 0.82362 0.0
C145 C 0.14485 0.29403 0.77272 0.0
H146 H 0.15013 0.2759 0.75335 0.0
C147 C 0.13842 0.27744 0.80651 0.0
H148 H 0.13703 0.38702 0.78279 0.0
C149 C 0.13135 0.30018 0.83188 0.0
H150 H 0.12621 0.28673 0.85792 0.0
H151 H 0.13869 0.24685 0.81302 0.0
Co152 Co 0.0343 0.05893 0.52466 0.0
C153 C 0.05323 0.98772 0.51777 0.0
Co154 Co 0.08414 0.04934 0.55142 0.0
C155 C 0.98225 0.09907 0.48807 0.0
C156 C 0.95977 0.04034 0.50642 0.0
N157 N 0.99104 0.06637 0.50452 0.0
N158 N 0.94655 0.09457 0.48015 0.0
C159 C 0.93231 0.05766 0.49158 0.0
H160 H 1.00113 0.12617 0.48358 0.0
H161 H 0.95683 0.01104 0.5189 0.0
C162 C 0.06572 0.12076 0.55734 0.0
N163 N 0.12665 0.04026 0.57226 0.0
C164 C 0.1307 0.00612 0.58943 0.0
C165 C 0.15952 0.06313 0.5734 0.0
N166 N 0.16477 0.0063 0.60092 0.0
C167 C 0.1831 0.04226 0.59124 0.0
C168 C 0.09765 0.08386 0.48263 0.0
O169 O 0.03838 0.10811 0.54054 0.0
O170 O 0.08978 0.09946 0.56496 0.0
O171 O 0.11206 0.07016 0.50943 0.0
O172 O 0.06278 0.08234 0.48317 0.0
O173 O 0.07837 0.99901 0.53738 0.0
H174 H 0.16604 0.09274 0.56163 0.0
H175 H 0.10885 0.98142 0.59346 0.0
O176 O 0.03048 0.00984 0.50842 0.0
O177 O 1.00613 0.03573 0.5667 0.0
O178 O 0.05613 0.02898 0.59361 0.0
C179 C 1.02121 0.02539 0.59422 0.0
H180 H 0.90389 0.04444 0.48993 0.0
H181 H 0.21165 0.05237 0.59591 0.0
Co182 Co 0.52084 0.07847 0.05497 0.0
C183 C 0.51879 0.01905 0.10732 0.0
Co184 Co 0.55835 0.09302 0.09578 0.0
C185 C 0.49685 0.05537 0.98996 0.0
C186 C 0.4516 0.05918 0.02369 0.0
N187 N 0.48874 0.06551 1.02091 0.0
N188 N 0.46639 0.04234 0.97371 0.0
C189 C 0.43785 0.04503 0.9948 0.0
H190 H 0.52454 0.05516 0.98032 0.0
H191 H 0.43536 0.06261 0.04597 0.0
C192 C 0.56061 0.15235 0.04333 0.0
N193 N 0.59021 0.10477 0.12978 0.0
C194 C 0.59301 0.13447 0.14885 0.0
C195 C 0.6159 0.08377 0.14117 0.0
N196 N 0.61943 0.13273 0.17185 0.0
C197 C 0.63395 0.10089 0.16684 0.0
C198 C 0.59206 0.05998 0.04386 0.0
O199 O 0.53756 0.12783 0.03036 0.0
O200 O 0.57266 0.14319 0.07248 0.0
O201 O 0.59748 0.07556 0.07117 0.0
O202 O 0.55991 0.05713 0.03218 0.0
O203 O 0.54368 0.04262 0.11904 0.0
H204 H 0.62103 0.05747 0.13158 0.0
H205 H 0.57545 0.1564 0.14634 0.0
O206 O 0.50452 0.02924 0.07953 0.0
O207 O 0.48229 0.10001 0.07879 0.0
O208 O 0.51935 0.11061 0.1202 0.0
C209 C 0.48782 0.11172 0.10792 0.0
H210 H 0.40907 0.03597 0.9903 0.0
H211 H 0.6562 0.0906 0.18057 0.0
Co212 Co 0.57662 0.63647 0.5674 0.0
C213 C 0.5191 0.64228 0.52455 0.0
Co214 Co 0.52821 0.59154 0.58166 0.0
C215 C 0.65252 0.66556 0.55438 0.0
C216 C 0.62201 0.71224 0.55589 0.0
N217 N 0.61797 0.67341 0.55681 0.0
N218 N 0.67798 0.69766 0.5526 0.0
C219 C 0.65909 0.72725 0.55362 0.0
H220 H 0.65904 0.63652 0.55651 0.0
H221 H 0.59964 0.72833 0.55866 0.0
C222 C 0.58553 0.58566 0.62436 0.0
N223 N 0.48809 0.55342 0.59327 0.0
C224 C 0.45246 0.55679 0.59859 0.0
C225 C 0.48941 0.51544 0.60106 0.0
N226 N 0.43168 0.52243 0.60986 0.0
C227 C 0.45481 0.49635 0.61133 0.0
C228 C 0.57737 0.57022 0.53611 0.0
O229 O 0.60154 0.6144 0.60437 0.0
O230 O 0.55291 0.57067 0.61893 0.0
O231 O 0.54717 0.55939 0.55313 0.0
O232 O 0.59511 0.60379 0.53809 0.0
O233 O 0.50355 0.61287 0.5443 0.0
H234 H 0.51417 0.50262 0.60015 0.0
H235 H 0.44226 0.58408 0.59552 0.0
O236 O 0.55149 0.6582 0.53046 0.0
O237 O 0.55788 0.66858 0.59737 0.0
O238 O 0.50982 0.62339 0.61066 0.0
C239 C 0.52806 0.65608 0.6148 0.0
H240 H 0.67123 0.75725 0.55391 0.0
H241 H 0.44727 0.46569 0.61948 0.0
Co242 Co 0.05261 0.60437 0.02891 0.0
C243 C 0.97934 0.57145 0.04436 0.0
Co244 Co 0.02849 0.62235 0.0748 0.0
C245 C 0.06844 0.55085 0.98436 0.0
C246 C 0.09187 0.60862 0.96413 0.0
N247 N 0.07182 0.58787 0.99088 0.0
N248 N 0.08552 0.54737 0.9546 0.0
C249 C 0.10038 0.58374 0.94173 0.0
H250 H 0.05411 0.52685 1.0016 0.0
H251 H 0.09973 0.63974 0.96115 0.0
C252 C 0.10196 0.65414 0.06084 0.0
N253 N 1.00912 0.63929 0.1132 0.0
C254 C 0.99932 0.61944 0.14419 0.0
C255 C 1.00241 0.67541 0.116 0.0
N256 N 0.9865 0.6417 0.16584 0.0
C257 C 0.98827 0.67687 0.1482 0.0
C258 C 0.06244 0.55591 0.08862 0.0
O259 O 0.09868 0.63519 0.03525 0.0
O260 O 0.07405 0.65356 0.08052 0.0
O261 O 0.04524 0.57907 0.10286 0.0
O262 O 0.06804 0.56185 0.0565 0.0
O263 O 0.98324 0.59065 0.06969 0.0
H264 H 1.00802 0.69955 0.09618 0.0
H265 H 1.00141 0.58927 0.15084 0.0
O266 O 1.00618 0.57351 1.02302 0.0
O267 O 0.03748 0.64642 1.00113 0.0
O268 O 1.01183 0.66524 0.04528 0.0
C269 C 1.019 0.66975 1.01318 0.0
H270 H 0.11591 0.59193 0.91772 0.0
H271 H 0.98096 0.70212 0.15825 0.0
H272 H 0.15394 0.18873 0.28969 0.0
H273 H 0.26714 0.18472 0.31582 0.0
H274 H 0.24613 0.15446 0.37348 0.0
H275 H 0.12227 0.2095 0.37401 0.0
H276 H 0.07791 0.17945 0.37348 0.0
H277 H 0.10134 0.20208 0.33403 0.0
H278 H 0.09685 0.13521 0.31196 0.0
H279 H 0.07356 0.11239 0.35139 0.0
H280 H 0.11495 0.09689 0.33671 0.0
H281 H 0.21401 0.1227 0.42784 0.0
H282 H 0.17256 0.09296 0.47657 0.0
H283 H 0.07832 0.11622 0.41851 0.0
C284 C 0.17425 0.18181 0.3077 0.0
C285 C 0.21241 0.18891 0.2977 0.0
C286 C 0.23787 0.17915 0.32228 0.0
C287 C 0.22618 0.16201 0.35533 0.0
C288 C 0.18866 0.15461 0.36412 0.0
C289 C 0.16292 0.16431 0.34124 0.0
C290 C 0.12416 0.15239 0.35776 0.0
C291 C 0.1053 0.18798 0.35995 0.0
C292 C 0.10101 0.12244 0.33829 0.0
C293 C 0.13232 0.13438 0.39323 0.0
C294 C 0.16983 0.13616 0.39609 0.0
C295 C 0.18457 0.12128 0.4259 0.0
C296 C 0.16061 0.10427 0.45359 0.0
C297 C 0.12189 0.10194 0.45185 0.0
C298 C 0.10768 0.11738 0.42096 0.0
H299 H 0.38925 0.87937 0.86051 0.0
H300 H 0.48197 0.92111 0.78889 0.0
H301 H 0.50355 0.97302 0.8246 0.0
H302 H 0.37164 0.97294 0.87863 0.0
H303 H 0.35919 0.95656 0.92283 0.0
H304 H 0.35146 0.92322 0.89141 0.0
H305 H 0.38978 0.87746 0.92534 0.0
H306 H 0.39755 0.91058 0.95688 0.0
H307 H 0.43612 0.89596 0.93577 0.0
H308 H 0.5152 0.01969 0.86971 0.0
H309 H 0.51585 0.05629 0.91974 0.0
H310 H 0.41428 0.98359 0.95958 0.0
C311 C 0.41377 0.89977 0.85188 0.0
C312 C 0.43372 0.89639 0.8217 0.0
C313 C 0.46632 0.92304 0.81201 0.0
C314 C 0.47864 0.95272 0.83201 0.0
C315 C 0.458 0.95528 0.86151 0.0
C316 C 0.42624 0.92945 0.87131 0.0
C317 C 0.40917 0.93771 0.90427 0.0
C318 C 0.37058 0.94824 0.89895 0.0
C319 C 0.40812 0.90339 0.93221 0.0
C320 C 0.43631 0.97225 0.91172 0.0
C321 C 0.46436 0.98205 0.88689 0.0
C322 C 0.49323 0.01235 0.88916 0.0
C323 C 0.49344 0.03288 0.91767 0.0
C324 C 0.46494 0.02306 0.94341 0.0
C325 C 0.436 0.99248 0.94004 0.0
H326 H 0.59308 0.54115 0.82453 0.0
H327 H 0.71075 0.54475 0.81106 0.0
H328 H 0.70538 0.55198 0.74838 0.0
H329 H 0.56755 0.48589 0.75256 0.0
H330 H 0.53023 0.5118 0.74169 0.0
H331 H 0.54333 0.50497 0.78529 0.0
H332 H 0.55227 0.57912 0.78743 0.0
H333 H 0.53926 0.58615 0.74389 0.0
H334 H 0.58279 0.61067 0.75621 0.0
H335 H 0.68782 0.56704 0.68758 0.0
H336 H 0.65846 0.58257 0.63308 0.0
H337 H 0.55175 0.56291 0.68654 0.0
C338 C 0.61757 0.54302 0.80827 0.0
C339 C 0.65233 0.5425 0.82228 0.0
C340 C 0.68389 0.5449 0.80053 0.0
C341 C 0.68109 0.54907 0.76504 0.0
C342 C 0.64641 0.54996 0.75191 0.0
C343 C 0.61512 0.54637 0.77289 0.0
C344 C 0.58122 0.54877 0.75244 0.0
C345 C 0.55398 0.51058 0.75835 0.0
C346 C 0.56282 0.58322 0.76047 0.0
C347 C 0.59842 0.55527 0.71672 0.0
C348 C 0.63608 0.55614 0.71688 0.0
C349 C 0.65826 0.56545 0.68704 0.0
C350 C 0.64146 0.57426 0.6563 0.0
C351 C 0.6029 0.57293 0.65574 0.0
C352 C 0.58117 0.56283 0.68624 0.0
H353 H 1.01757 0.5723 0.35878 0.0
H354 H 0.92332 0.62509 0.38454 0.0
H355 H 0.91168 0.63799 0.32357 0.0
H356 H 0.04971 0.63756 0.28741 0.0
H357 H 0.06376 0.60235 0.26229 0.0
H358 H 0.0628 0.59382 0.30804 0.0
H359 H 1.0196 0.52848 0.30651 0.0
H360 H 1.02046 0.53682 0.26065 0.0
H361 H 0.97711 0.52748 0.28469 0.0
H362 H 0.91392 0.65133 0.2605 0.0
H363 H 0.92926 0.66278 0.19856 0.0
H364 H 1.02017 0.59915 0.21294 0.0
C365 C 0.99402 0.58579 0.35159 0.0
C366 C 0.97149 0.59791 0.3764 0.0
C367 C 0.94129 0.6161 0.36595 0.0
C368 C 0.93424 0.62324 0.3314 0.0
C369 C 0.95737 0.61164 0.30758 0.0
C370 C 0.98648 0.59303 0.31713 0.0
C371 C 1.00833 0.58562 0.28621 0.0
C372 C 0.04852 0.60607 0.28599 0.0
C373 C 1.00623 0.542 0.28442 0.0
C374 C 0.98754 0.60395 0.25789 0.0
C375 C 0.9581 0.61857 0.27084 0.0
C376 C 0.93646 0.63943 0.24997 0.0
C377 C 0.94541 0.64593 0.21496 0.0
C378 C 0.97553 0.63145 0.20119 0.0
C379 C 0.99644 0.60964 0.22286 0.0
H380 H 0.29628 0.19012 0.15025 0.0
H381 H 0.32908 0.18487 0.25511 0.0
H382 H 0.38572 0.1615 0.23858 0.0
H383 H 0.33097 0.10246 0.13188 0.0
H384 H 0.3467 0.12112 0.0888 0.0
H385 H 0.30847 0.13814 0.10823 0.0
H386 H 0.3423 0.20862 0.09553 0.0
H387 H 0.38065 0.19181 0.0761 0.0
H388 H 0.38798 0.22126 0.11053 0.0
H389 H 0.44016 0.14066 0.21128 0.0
H390 H 0.48725 0.11987 0.17562 0.0
H391 H 0.42065 0.1342 0.08745 0.0
C392 C 0.31539 0.18401 0.1697 0.0
C393 C 0.30762 0.1892 0.20427 0.0
C394 C 0.33365 0.18069 0.22871 0.0
C395 C 0.36622 0.16756 0.21949 0.0
C396 C 0.37292 0.16253 0.18553 0.0
C397 C 0.3482 0.17013 0.16094 0.0
C398 C 0.36229 0.16125 0.12638 0.0
C399 C 0.3355 0.12881 0.11303 0.0
C400 C 0.36868 0.19792 0.10061 0.0
C401 C 0.39875 0.1478 0.13545 0.0
C402 C 0.40423 0.14919 0.16977 0.0
C403 C 0.43599 0.13926 0.18442 0.0
C404 C 0.46279 0.12749 0.16377 0.0
C405 C 0.45809 0.12507 0.1285 0.0
C406 C 0.42527 0.13539 0.11427 0.0
H407 H 0.27641 0.8982 0.74003 0.0
H408 H 0.22162 0.7903 0.70839 0.0
H409 H 0.1894 0.8269 0.6652 0.0
H410 H 0.2004 0.95004 0.72991 0.0
H411 H 0.22867 0.99537 0.71397 0.0
H412 H 0.24728 0.96066 0.74258 0.0
H413 H 0.30081 0.9613 0.69859 0.0
H414 H 0.28226 0.99589 0.66976 0.0
H415 H 0.29053 0.95089 0.65592 0.0
H416 H 0.16347 0.87468 0.62557 0.0
H417 H 0.14387 0.93094 0.59275 0.0
H418 H 0.21598 0.00813 0.64934 0.0
C419 C 0.25779 0.88226 0.72389 0.0
C420 C 0.25141 0.84137 0.72767 0.0
C421 C 0.22648 0.82159 0.70633 0.0
C422 C 0.2083 0.84211 0.68155 0.0
C423 C 0.21542 0.88236 0.67838 0.0
C424 C 0.23947 0.90228 0.69897 0.0
C425 C 0.24196 0.94561 0.69043 0.0
C426 C 0.22878 0.96399 0.72105 0.0
C427 C 0.28123 0.96453 0.67793 0.0
C428 C 0.21542 0.94691 0.66186 0.0
C429 C 0.20051 0.91007 0.65532 0.0
C430 C 0.17487 0.90367 0.63049 0.0
C431 C 0.16378 0.9358 0.61213 0.0
C432 C 0.17825 0.97386 0.6187 0.0
C433 C 0.20476 0.9794 0.64361 0.0
H434 H 0.80674 0.4956 0.93923 0.0
H435 H 0.75074 0.44569 0.03549 0.0
H436 H 0.80753 0.46549 0.06563 0.0
H437 H 0.89662 0.46781 0.96018 0.0
H438 H 0.92205 0.51167 0.93773 0.0
H439 H 0.8776 0.49176 0.9237 0.0
H440 H 0.85486 0.55697 0.92842 0.0
H441 H 0.89915 0.57702 0.94251 0.0
H442 H 0.85815 0.57746 0.96824 0.0
H443 H 0.86784 0.49697 0.08552 0.0
H444 H 0.92965 0.53324 0.09357 0.0
H445 H 0.948 0.55835 0.98403 0.0
C446 C 0.80669 0.48856 0.96662 0.0
C447 C 0.77459 0.46924 0.9852 0.0
C448 C 0.77529 0.46028 1.02093 0.0
C449 C 0.80731 0.47147 0.03819 0.0
C450 C 0.83846 0.49091 1.01919 0.0
C451 C 0.8386 0.49887 0.98414 0.0
C452 C 0.87556 0.5206 0.96983 0.0
C453 C 0.89404 0.49651 0.94648 0.0
C454 C 0.87168 0.56036 0.95116 0.0
C455 C 0.89585 0.52457 1.00239 0.0
C456 C 0.8739 0.50737 0.03059 0.0
C457 C 0.88556 0.50987 0.06364 0.0
C458 C 0.92056 0.5306 0.06797 0.0
C459 C 0.94356 0.54798 0.0394 0.0
C460 C 0.93119 0.54451 1.00624 0.0
H461 H 0.87054 0.64246 0.50353 0.0
H462 H 0.91771 0.71105 0.5811 0.0
H463 H 0.85575 0.72281 0.59756 0.0
H464 H 0.80718 0.69814 0.47628 0.0
H465 H 0.77057 0.65924 0.47049 0.0
H466 H 0.81772 0.65196 0.46728 0.0
H467 H 0.80464 0.59332 0.51404 0.0
H468 H 0.7571 0.5997 0.5168 0.0
H469 H 0.78364 0.59888 0.55449 0.0
H470 H 0.79026 0.73537 0.59924 0.0
H471 H 0.72395 0.73849 0.59264 0.0
H472 H 0.71942 0.65798 0.5172 0.0
C473 C 0.86786 0.6586 0.52494 0.0
C474 C 0.89917 0.67605 0.54082 0.0
C475 C 0.89424 0.69784 0.56817 0.0
C476 C 0.85914 0.70461 0.57778 0.0
C477 C 0.82916 0.68865 0.56035 0.0
C478 C 0.83302 0.66514 0.5352 0.0
C479 C 0.7966 0.65257 0.51957 0.0
C480 C 0.79814 0.66632 0.48114 0.0
C481 C 0.7848 0.6085 0.52666 0.0
C482 C 0.77191 0.67374 0.53906 0.0
C483 C 0.79119 0.69457 0.56236 0.0
C484 C 0.7747 0.71856 0.58158 0.0
C485 C 0.73729 0.72055 0.57742 0.0
C486 C 0.71691 0.69839 0.55452 0.0
C487 C 0.73451 0.67484 0.53511 0.0
H488 H 0.18814 0.38943 0.11756 0.0
H489 H 0.14752 0.36627 0.22268 0.0
H490 H 0.10457 0.41347 0.21105 0.0
H491 H 0.18981 0.48851 0.10884 0.0
H492 H 0.17556 0.49278 0.06548 0.0
H493 H 0.19913 0.45376 0.08095 0.0
H494 H 0.14538 0.40375 0.06394 0.0
H495 H 0.12188 0.44269 0.04785 0.0
H496 H 0.09914 0.40494 0.07936 0.0
H497 H 0.07132 0.47099 0.18838 0.0
H498 H 0.04768 0.52609 0.15646 0.0
H499 H 0.10981 0.50998 0.06604 0.0
C500 C 0.16919 0.39317 0.13785 0.0
C501 C 0.17079 0.37333 0.17097 0.0
C502 C 0.14624 0.38012 0.19697 0.0
C503 C 0.12203 0.40734 0.1906 0.0
C504 C 0.12228 0.42753 0.15793 0.0
C505 C 0.14484 0.42003 0.13184 0.0
C506 C 0.14149 0.44659 0.09939 0.0
C507 C 0.17871 0.4719 0.08801 0.0
C508 C 0.12605 0.42309 0.07095 0.0
C509 C 0.11406 0.47083 0.11122 0.0
C510 C 0.10323 0.45961 0.14508 0.0
C511 C 0.07935 0.4794 0.16175 0.0
C512 C 0.0661 0.5109 0.14341 0.0
C513 C 0.07646 0.52255 0.10852 0.0
C514 C 0.10082 0.50186 0.09251 0.0
H515 H 0.67662 0.36473 1.01661 0.0
H516 H 0.64621 0.37231 0.91094 0.0
H517 H 0.60877 0.3072 0.92199 0.0
H518 H 0.68659 0.26442 0.02431 0.0
H519 H 0.66859 0.25487 0.06778 0.0
H520 H 0.69194 0.30248 0.05157 0.0
H521 H 0.63482 0.33158 0.06902 0.0
H522 H 0.61124 0.28401 0.08508 0.0
H523 H 0.59052 0.31366 0.05343 0.0
H524 H 0.57473 0.24092 0.9448 0.0
H525 H 0.5489 0.17777 0.97697 0.0
H526 H 0.60381 0.21349 0.06686 0.0
C527 C 0.66248 0.35263 0.99562 0.0
C528 C 0.66438 0.37374 0.96288 0.0
C529 C 0.6448 0.35696 0.93635 0.0
C530 C 0.62359 0.31992 0.94233 0.0
C531 C 0.62234 0.30001 0.97494 0.0
C532 C 0.64143 0.31572 1.00107 0.0
C533 C 0.63614 0.28815 0.03363 0.0
C534 C 0.673 0.27681 0.04497 0.0
C535 C 0.61704 0.30539 0.06195 0.0
C536 C 0.61116 0.25437 1.02172 0.0
C537 C 0.60329 0.2618 0.98787 0.0
C538 C 0.58072 0.23477 0.97132 0.0
C539 C 0.56612 0.19904 0.98981 0.0
C540 C 0.57438 0.19069 0.02439 0.0
C541 C 0.59703 0.21893 0.04045 0.0
H542 H 0.03099 0.75999 0.54438 0.0
H543 H 1.00037 0.7609 0.43934 0.0
H544 H 1.01998 0.83183 0.43004 0.0
H545 H 0.99777 0.83879 0.56126 0.0
H546 H 0.03377 0.85853 0.58743 0.0
H547 H 0.02533 0.80749 0.58425 0.0
H548 H 0.09312 0.80962 0.56398 0.0
H549 H 0.10213 0.8607 0.56785 0.0
H550 H 0.11248 0.84345 0.52805 0.0
H551 H 0.02806 0.90229 0.4364 0.0
H552 H 0.03433 0.96759 0.45525 0.0
H553 H 0.0648 0.92131 0.55479 0.0
C554 C 0.03026 0.77507 0.51905 0.0
C555 C 1.01486 0.75532 0.49237 0.0
C556 C 1.01295 0.77568 0.45976 0.0
C557 C 1.02381 0.81591 0.45436 0.0
C558 C 0.03723 0.83496 0.48167 0.0
C559 C 0.04165 0.81509 0.51313 0.0
C560 C 0.05365 0.84263 0.53903 0.0
C561 C 0.02597 0.83648 0.56978 0.0
C562 C 0.09267 0.83888 0.55038 0.0
C563 C 0.05316 0.88098 0.51781 0.0
C564 C 0.04367 0.87598 0.48479 0.0
C565 C 0.03678 0.90674 0.46179 0.0
C566 C 0.04003 0.94357 0.47276 0.0
C567 C 0.05054 0.94925 0.5062 0.0
C568 C 0.05764 0.9177 0.5288 0.0
H569 H 0.47339 0.82632 0.71182 0.0
H570 H 0.44093 0.73945 0.79809 0.0
H571 H 0.46912 0.69207 0.76908 0.0
H572 H 0.45102 0.76804 0.65049 0.0
H573 H 0.48878 0.78755 0.62045 0.0
H574 H 0.47357 0.81737 0.6502 0.0
H575 H 0.53923 0.83094 0.6727 0.0
H576 H 0.55496 0.80177 0.64246 0.0
H577 H 0.56221 0.791 0.68719 0.0
H578 H 0.48881 0.65176 0.72759 0.0
H579 H 0.50554 0.62138 0.67751 0.0
H580 H 0.52812 0.7339 0.61748 0.0
C581 C 0.47394 0.79783 0.72506 0.0
C582 C 0.45591 0.78642 0.75734 0.0
C583 C 0.45542 0.7486 0.77362 0.0
C584 C 0.47123 0.7216 0.75731 0.0
C585 C 0.4875 0.73309 0.72483 0.0
C586 C 0.48968 0.77047 0.70903 0.0
C587 C 0.50535 0.77401 0.67272 0.0
C588 C 0.47804 0.78753 0.64697 0.0
C589 C 0.54266 0.80103 0.66853 0.0
C590 C 0.5099 0.73243 0.67013 0.0
C591 C 0.49959 0.70948 0.70063 0.0
C592 C 0.49776 0.66951 0.70382 0.0
C593 C 0.50688 0.65251 0.67518 0.0
C594 C 0.51801 0.67544 0.64385 0.0
C595 C 0.52007 0.71595 0.64136 0.0
H596 H 0.9779 0.94861 0.7953 0.0
H597 H 0.86202 0.93993 0.77346 0.0
H598 H 0.87877 0.96415 0.71362 0.0
H599 H 1.01012 0.0358 0.73735 0.0
H600 H 0.05184 0.02005 0.72388 0.0
H601 H 0.03125 1.0029 0.76574 0.0
H602 H 0.02897 0.9322 0.75297 0.0
H603 H 0.04951 0.94916 0.71105 0.0
H604 H 1.00621 0.91665 0.71587 0.0
H605 H 0.90739 0.98889 0.65502 0.0
H606 H 0.94593 0.01228 0.60265 0.0
H607 H 0.0441 0.00414 0.65975 0.0
C608 C 0.95595 0.95175 0.77804 0.0
C609 C 0.91834 0.94279 0.79011 0.0
C610 C 0.89095 0.94753 0.76595 0.0
C611 C 0.9002 0.96098 0.73146 0.0
C612 C 0.9372 0.96962 0.72062 0.0
C613 C 0.96474 0.96518 0.74311 0.0
C614 C 1.00241 0.9763 0.72435 0.0
C615 C 0.02525 0.01082 0.73869 0.0
C616 C 1.02299 0.9415 0.72617 0.0
C617 C 0.99164 0.98761 0.68795 0.0
C618 C 0.95381 0.98349 0.68651 0.0
C619 C 0.93705 0.99218 0.65593 0.0
C620 C 0.95931 0.00551 0.62614 0.0
C621 C 0.99828 0.0102 0.62657 0.0
C622 C 1.01448 1.00091 0.6582 0.0
H623 H 0.7103 0.19074 0.34151 0.0
H624 H 0.67969 0.30439 0.31945 0.0
H625 H 0.65042 0.28425 0.26688 0.0
H626 H 0.73258 0.17596 0.25643 0.0
H627 H 0.7139 0.12511 0.26258 0.0
H628 H 0.73183 0.14896 0.29802 0.0
H629 H 0.6695 0.12604 0.33186 0.0
H630 H 0.65137 0.1021 0.29653 0.0
H631 H 0.62768 0.13734 0.31338 0.0
H632 H 0.62624 0.25087 0.21548 0.0
H633 H 0.60816 0.20756 0.17154 0.0
H634 H 0.65332 0.116 0.23055 0.0
C635 C 0.69776 0.21157 0.32543 0.0
C636 C 0.69768 0.24927 0.33405 0.0
C637 C 0.68013 0.2754 0.313 0.0
C638 C 0.66354 0.26422 0.2832 0.0
C639 C 0.66445 0.22674 0.2753 0.0
C640 C 0.68094 0.20083 0.29605 0.0
C641 C 0.678 0.16214 0.28256 0.0
C642 C 0.71636 0.1525 0.27441 0.0
C643 C 0.65528 0.13002 0.30757 0.0
C644 C 0.65773 0.1703 0.25058 0.0
C645 C 0.65004 0.2076 0.24665 0.0
C646 C 0.63194 0.22152 0.21848 0.0
C647 C 0.62161 0.19663 0.19372 0.0
C648 C 0.62938 0.15827 0.19738 0.0
C649 C 0.64743 0.14519 0.22645 0.0
H650 H 0.38143 0.61224 0.37498 0.0
H651 H 0.45053 0.70905 0.31521 0.0
H652 H 0.48572 0.72258 0.36598 0.0
H653 H 0.38189 0.65436 0.45634 0.0
H654 H 0.38418 0.60869 0.48103 0.0
H655 H 0.36133 0.60982 0.44124 0.0
H656 H 0.40328 0.56445 0.41935 0.0
H657 H 0.42616 0.56316 0.45902 0.0
H658 H 0.45258 0.57808 0.41945 0.0
H659 H 0.51763 0.72127 0.42162 0.0
H660 H 0.54377 0.70478 0.47728 0.0
H661 H 0.45443 0.6082 0.50024 0.0
C662 C 0.40373 0.63653 0.37257 0.0
C663 C 0.41301 0.65967 0.34101 0.0
C664 C 0.44234 0.6913 0.33916 0.0
C665 C 0.46264 0.69914 0.36787 0.0
C666 C 0.45321 0.67523 0.39834 0.0
C667 C 0.42434 0.64466 0.4009 0.0
C668 C 0.42152 0.62156 0.43581 0.0
C669 C 0.38506 0.62376 0.45472 0.0
C670 C 0.42618 0.57933 0.43323 0.0
C671 C 0.45397 0.64324 0.45219 0.0
C672 C 0.47166 0.67439 0.43034 0.0
C673 C 0.5037 0.69728 0.43912 0.0
C674 C 0.51835 0.68767 0.47079 0.0
C675 C 0.50107 0.65533 0.49325 0.0
C676 C 0.46807 0.63341 0.48392 0.0
H677 H 0.16467 0.4127 0.83309 0.0
H678 H 0.07529 0.3217 0.87256 0.0
H679 H 0.05556 0.36431 0.91254 0.0
H680 H 0.18448 0.45199 0.91405 0.0
H681 H 0.19405 0.50119 0.89394 0.0
H682 H 0.20299 0.46221 0.87076 0.0
H683 H 0.16179 0.48491 0.82286 0.0
H684 H 0.15242 0.52368 0.84601 0.0
H685 H 0.11489 0.48956 0.83335 0.0
H686 H 0.04234 0.41847 0.94413 0.0
H687 H 0.03826 0.47933 0.96776 0.0
H688 H 0.13701 0.53483 0.90826 0.0
C689 C 0.14116 0.40163 0.85039 0.0
C690 C 0.12151 0.36393 0.84985 0.0
C691 C 0.09101 0.35033 0.87294 0.0
C692 C 0.0795 0.37437 0.89556 0.0
C693 C 0.09898 0.41171 0.89485 0.0
C694 C 0.12937 0.42517 0.87313 0.0
C695 C 0.14462 0.46695 0.87653 0.0
C696 C 0.18386 0.47079 0.88961 0.0
C697 C 0.14333 0.49278 0.84267 0.0
C698 C 0.11753 0.47515 0.90305 0.0
C699 C 0.09154 0.44288 0.91336 0.0
C700 C 0.06289 0.44378 0.9367 0.0
C701 C 0.06093 0.47854 0.95009 0.0
C702 C 0.08754 0.51196 0.9402 0.0
C703 C 0.11614 0.51002 0.91629 0.0
H704 H 0.69211 0.92261 0.93587 0.0
H705 H 0.79466 1.00216 0.93947 0.0
H706 H 0.7626 0.04045 0.9757 0.0
H707 H 0.63581 0.99686 0.92417 0.0
H708 H 0.59684 0.96819 0.94831 0.0
H709 H 0.62872 0.94488 0.92607 0.0
H710 H 0.63938 0.90378 0.9823 0.0
H711 H 0.60752 0.92695 1.00473 0.0
H712 H 0.65373 0.92762 1.01891 0.0
H713 H 0.71749 0.07083 1.01219 0.0
H714 H 0.66497 0.09168 0.04124 0.0
H715 H 0.59061 0.99755 1.00616 0.0
C716 C 0.70829 0.9484 0.94339 0.0
C717 C 0.74655 0.95908 0.93369 0.0
C718 C 0.76579 0.99248 0.94627 0.0
C719 C 0.74756 0.01479 0.9668 0.0
C720 C 0.70971 1.00398 0.97448 0.0
C721 C 0.69034 0.97163 0.9628 0.0
C722 C 0.64946 0.96708 0.97275 0.0
C723 C 0.62635 0.96939 0.94093 0.0
C724 C 0.63679 0.9291 0.99606 0.0
C725 C 0.64858 1.00196 0.99198 0.0
C726 C 0.68373 0.02254 0.99325 0.0
C727 C 0.68997 0.05498 1.01091 0.0
C728 C 0.65985 0.06663 0.02743 0.0
C729 C 0.6234 0.04667 0.0258 0.0
C730 C 0.61792 0.0139 1.00756 0.0
H731 H 0.77249 0.19873 0.45669 0.0
H732 H 0.83178 0.2724 0.37134 0.0
H733 H 0.88718 0.24209 0.38341 0.0
H734 H 0.84982 0.19525 0.51292 0.0
H735 H 0.83453 0.14505 0.52841 0.0
H736 H 0.80143 0.1756 0.51507 0.0
H737 H 0.77604 0.12764 0.47287 0.0
H738 H 0.80921 0.09714 0.48584 0.0
H739 H 0.80702 0.11498 0.44153 0.0
H740 H 0.93525 0.20171 0.40414 0.0
H741 H 0.97064 0.15215 0.42964 0.0
H742 H 0.87783 0.10348 0.49897 0.0
C743 C 0.79746 0.20909 0.4411 0.0
C744 C 0.79835 0.23824 0.41351 0.0
C745 C 0.83094 0.25027 0.39281 0.0
C746 C 0.86241 0.23332 0.39952 0.0
C747 C 0.8605 0.20421 0.42677 0.0
C748 C 0.82876 0.19212 0.44711 0.0
C749 C 0.83269 0.15837 0.4731 0.0
C750 C 0.82944 0.16923 0.50953 0.0
C751 C 0.80458 0.12242 0.468 0.0
C752 C 0.87145 0.15296 0.46399 0.0
C753 C 0.88733 0.17998 0.43758 0.0
C754 C 0.92309 0.18045 0.42485 0.0
C755 C 0.94297 0.15237 0.43943 0.0
C756 C 0.9267 0.12398 0.46592 0.0
C757 C 0.89063 0.12455 0.47837 0.0
H758 H 0.25585 0.70091 0.19429 0.0
H759 H 0.33585 0.72805 0.10922 0.0
H760 H 0.28583 0.71749 0.06904 0.0
H761 H 0.19614 0.62592 0.15993 0.0
H762 H 0.1545 0.63926 0.17648 0.0
H763 H 0.19669 0.64937 0.19821 0.0
H764 H 0.18985 0.7218 0.19411 0.0
H765 H 0.14779 0.7119 0.17205 0.0
H766 H 0.18509 0.74794 0.15302 0.0
H767 H 0.22738 0.69987 0.03845 0.0
H768 H 0.16447 0.67824 1.01985 0.0
H769 H 0.12261 0.66704 0.12466 0.0
C770 C 0.26272 0.70452 0.1672 0.0
C771 C 0.29957 0.71519 0.15474 0.0
C772 C 0.30765 0.72005 0.11915 0.0
C773 C 0.27949 0.71411 0.09619 0.0
C774 C 0.24336 0.70382 0.10923 0.0
C775 C 0.23487 0.69929 0.14389 0.0
C776 C 0.19382 0.68806 0.15126 0.0
C777 C 0.18477 0.64829 0.17273 0.0
C778 C 0.17823 0.7193 0.16863 0.0
C779 C 0.18065 0.68641 0.11541 0.0
C780 C 0.20961 0.69545 0.09149 0.0
C781 C 0.20438 0.69333 0.05687 0.0
C782 C 0.16863 0.6811 0.04652 0.0
C783 C 0.13866 0.6717 0.0707 0.0
C784 C 0.14483 0.67505 0.10545 0.0
H785 H 0.25479 0.39939 0.70641 0.0
H786 H 0.18944 0.46255 0.63783 0.0
H787 H 0.24594 0.50691 0.61513 0.0
H788 H 0.32539 0.48313 0.72221 0.0
H789 H 0.36164 0.45426 0.7223 0.0
H790 H 0.31556 0.43212 0.73682 0.0
H791 H 0.31613 0.38239 0.6933 0.0
H792 H 0.3619 0.40454 0.67837 0.0
H793 H 0.32552 0.39946 0.64874 0.0
H794 H 0.31053 0.53995 0.59609 0.0
H795 H 0.37739 0.55708 0.58116 0.0
H796 H 0.39928 0.47057 0.66141 0.0
C797 C 0.25222 0.42343 0.68752 0.0
C798 C 0.21783 0.42806 0.67421 0.0
C799 C 0.21564 0.45885 0.64849 0.0
C800 C 0.2475 0.48419 0.63558 0.0
C801 C 0.2812 0.4782 0.64869 0.0
C802 C 0.28367 0.4486 0.67419 0.0
C803 C 0.32325 0.44552 0.68143 0.0
C804 C 0.33197 0.4543 0.71785 0.0
C805 C 0.3322 0.40563 0.67506 0.0
C806 C 0.34276 0.47717 0.65529 0.0
C807 C 0.31818 0.49627 0.63705 0.0
C808 C 0.33002 0.5255 0.6105 0.0
C809 C 0.36793 0.53508 0.60221 0.0
C810 C 0.39327 0.51496 0.62005 0.0
C811 C 0.38042 0.48614 0.64719 0.0
H812 H 0.91735 0.8527 0.94683 0.0
H813 H 0.94445 0.82824 0.8447 0.0
H814 H 0.97509 0.77532 0.86875 0.0
H815 H 1.00111 0.83024 0.98559 0.0
H816 H 0.97862 0.80674 0.02517 0.0
H817 H 0.95903 0.84409 1.00059 0.0
H818 H 0.89763 0.79721 0.99931 0.0
H819 H 0.91701 0.75975 0.02396 0.0
H820 H 0.89765 0.75115 0.98355 0.0
H821 H 1.00378 0.72531 0.90245 0.0
H822 H 0.02639 0.67869 0.94405 0.0
H823 H 0.97993 0.72996 0.02667 0.0
C824 C 0.92965 0.83621 0.92949 0.0
C825 C 0.92902 0.84609 0.89347 0.0
C826 C 0.94542 0.82303 0.87213 0.0
C827 C 0.96273 0.7923 0.88562 0.0
C828 C 0.9634 0.7839 0.92084 0.0
C829 C 0.94709 0.80482 0.94266 0.0
C830 C 0.95148 0.78855 0.97966 0.0
C831 C 0.97389 0.81924 0.99889 0.0
C832 C 0.91369 0.77326 0.99769 0.0
C833 C 0.97282 0.75544 0.97502 0.0
C834 C 0.97936 0.75371 0.9407 0.0
C835 C 0.99869 0.72632 0.92938 0.0
C836 C 1.01157 0.69982 0.95347 0.0
C837 C 1.0052 0.70012 0.98903 0.0
C838 C 0.98541 0.72864 0.99984 0.0
H839 H 0.40873 0.80474 0.13162 0.0
H840 H 0.42298 0.80423 0.24043 0.0
H841 H 0.46372 0.86738 0.22963 0.0
H842 H 0.49993 0.85547 0.10181 0.0
H843 H 0.48223 0.88291 0.06655 0.0
H844 H 0.45856 0.83528 0.08244 0.0
H845 H 0.39847 0.86321 0.09146 0.0
H846 H 0.42194 0.91084 0.07564 0.0
H847 H 0.39878 0.90241 0.11715 0.0
H848 H 0.49986 0.93276 0.20707 0.0
H849 H 0.52551 0.99609 0.175 0.0
H850 H 0.48254 0.95535 0.08202 0.0
C851 C 0.42031 0.81772 0.15332 0.0
C852 C 0.41253 0.79925 0.18693 0.0
C853 C 0.42895 0.81728 0.21438 0.0
C854 C 0.45201 0.85331 0.20852 0.0
C855 C 0.45824 0.87103 0.17512 0.0
C856 C 0.44272 0.85385 0.14802 0.0
C857 C 0.45107 0.88015 0.11489 0.0
C858 C 0.47434 0.86239 0.08996 0.0
C859 C 0.41545 0.88972 0.09886 0.0
C860 C 0.47311 0.9152 0.12767 0.0
C861 C 0.47759 0.90917 0.16236 0.0
C862 C 0.49664 0.93774 0.17988 0.0
C863 C 0.51112 0.97355 0.16148 0.0
C864 C 0.50583 0.98057 0.12611 0.0
C865 C 0.48685 0.95084 0.10908 0.0
H866 H 0.17188 0.3027 0.63313 0.0
H867 H 0.06633 0.33836 0.64943 0.0
H868 H 0.03705 0.2882 0.61492 0.0
H869 H 0.1571 0.27042 0.54601 0.0
H870 H 0.18042 0.22972 0.5567 0.0
H871 H 0.19399 0.27403 0.5752 0.0
H872 H 0.18399 0.2357 0.63547 0.0
H873 H 0.1698 0.19151 0.61731 0.0
H874 H 0.13976 0.20687 0.6479 0.0
H875 H 1.01856 0.22911 0.58517 0.0
H876 H 1.01165 0.16455 0.56485 0.0
H877 H 0.12903 0.16523 0.57271 0.0
C878 C 0.14294 0.30095 0.62798 0.0
C879 C 0.12131 0.32475 0.64272 0.0
C880 C 0.08321 0.32077 0.63733 0.0
C881 C 0.0665 0.29245 0.61787 0.0
C882 C 0.0884 0.26835 0.60451 0.0
C883 C 0.12586 0.27239 0.60932 0.0
C884 C 0.14232 0.23951 0.597 0.0
C885 C 0.1701 0.25431 0.56693 0.0
C886 C 0.15998 0.21709 0.62616 0.0
C887 C 0.10812 0.21554 0.58565 0.0
C888 C 0.07744 0.23305 0.58933 0.0
C889 C 0.04246 0.21536 0.58181 0.0
C890 C 0.03878 0.17872 0.57043 0.0
C891 C 0.0698 0.15999 0.56752 0.0
C892 C 0.10485 0.17888 0.5749 0.0
H893 H 0.59316 0.35943 0.49498 0.0
H894 H 0.70385 0.40446 0.45387 0.0
H895 H 0.69256 0.47106 0.45796 0.0
H896 H 0.54836 0.43999 0.456 0.0
H897 H 0.51882 0.43813 0.4934 0.0
H898 H 0.53378 0.39467 0.48229 0.0
H899 H 0.56011 0.38353 0.54217 0.0
H900 H 0.5453 0.42684 0.55339 0.0
H901 H 0.59293 0.42123 0.55666 0.0
H902 H 0.67199 0.53187 0.47386 0.0
H903 H 0.64356 0.58145 0.49968 0.0
H904 H 0.54656 0.49594 0.53008 0.0
C905 C 0.61483 0.38334 0.48634 0.0
C906 C 0.64931 0.37682 0.474 0.0
C907 C 0.677 0.40884 0.4629 0.0
C908 C 0.67087 0.44676 0.46521 0.0
C909 C 0.63682 0.45211 0.47832 0.0
C910 C 0.60916 0.42123 0.48843 0.0
C911 C 0.5762 0.4343 0.50428 0.0
C912 C 0.54229 0.4263 0.48269 0.0
C913 C 0.5682 0.41536 0.54131 0.0
C914 C 0.59013 0.47717 0.50271 0.0
C915 C 0.62494 0.48707 0.48728 0.0
C916 C 0.64445 0.5246 0.48539 0.0
C917 C 0.62811 0.55255 0.50015 0.0
C918 C 0.59278 0.54261 0.5167 0.0
C919 C 0.57342 0.50462 0.51725 0.0
loop_
_geom_bond_atom_site_label_1
_geom_bond_atom_site_label_2
_geom_bond_distance
_geom_bond_site_symmetry_2
_ccdc_geom_bond_type
H0 C1 0.949 . S
C1 H0 0.949 . S
C1 C2 1.395 . S
C1 C3 1.391 . S
C2 C1 1.395 . S
C2 C5 1.390 . S
C3 C1 1.391 . S
C3 C7 1.387 . S
C3 C8 1.491 . S
H4 C5 0.950 . S
C5 C2 1.390 . S
C5 H4 0.950 . S
C5 C6 1.378 . S
C6 C5 1.378 . S
C6 C7 1.409 . S
C7 C3 1.387 . S
C7 C6 1.409 . S
C7 H9 0.951 . S
C8 C3 1.491 . S
C8 C10 1.382 . S
C8 C12 1.404 . S
H9 C7 0.951 . S
C10 C8 1.382 . S
C10 C11 1.390 . S
C10 H15 0.949 . S
C11 C10 1.390 . S
C11 C16 1.399 . S
C12 C8 1.404 . S
C12 H13 0.950 . S
C12 C14 1.375 . S
H13 C12 0.950 . S
C14 C12 1.375 . S
C14 C16 1.382 . S
C14 H18 0.950 . S
H15 C10 0.949 . S
C16 C11 1.399 . S
C16 C14 1.382 . S
C16 H17 0.952 . S
H17 C16 0.952 . S
H18 C14 0.950 . S
H19 C20 0.949 . S
C20 H19 0.949 . S
C20 C21 1.395 . S
C20 C22 1.391 . S
C21 C20 1.395 . S
C21 C24 1.390 . S
C22 C20 1.391 . S
C22 C26 1.387 . S
C22 C27 1.491 . S
H23 C24 0.950 . S
C24 C21 1.390 . S
C24 H23 0.950 . S
C24 C25 1.378 . S
C25 C24 1.378 . S
C25 C26 1.409 . S
C26 C22 1.387 . S
C26 C25 1.409 . S
C26 H28 0.951 . S
C27 C22 1.491 . S
C27 C29 1.382 . S
C27 C31 1.404 . S
H28 C26 0.951 . S
C29 C27 1.382 . S
C29 C30 1.390 . S
C29 H34 0.949 . S
C30 C29 1.390 . S
C30 C35 1.399 . S
C31 C27 1.404 . S
C31 H32 0.950 . S
C31 C33 1.375 . S
H32 C31 0.950 . S
C33 C31 1.375 . S
C33 C35 1.382 . S
C33 H37 0.950 . S
H34 C29 0.949 . S
C35 C30 1.399 . S
C35 C33 1.382 . S
C35 H36 0.952 . S
H36 C35 0.952 . S
H37 C33 0.950 . S
H38 C39 0.949 . S
C39 H38 0.949 . S
C39 C40 1.395 . S
C39 C41 1.391 . S
C40 C39 1.395 . S
C40 C43 1.390 . S
C41 C39 1.391 . S
C41 C45 1.387 . S
C41 C46 1.491 . S
H42 C43 0.950 . S
C43 C40 1.390 . S
C43 H42 0.950 . S
C43 C44 1.378 . S
C44 C43 1.378 . S
C44 C45 1.409 . S
C45 C41 1.387 . S
C45 C44 1.409 . S
C45 H47 0.951 . S
C46 C41 1.491 . S
C46 C48 1.382 . S
C46 C50 1.404 . S
H47 C45 0.951 . S
C48 C46 1.382 . S
C48 C49 1.390 . S
C48 H53 0.949 . S
C49 C48 1.390 . S
C49 C54 1.399 . S
C50 C46 1.404 . S
C50 H51 0.950 . S
C50 C52 1.375 . S
H51 C50 0.950 . S
C52 C50 1.375 . S
C52 C54 1.382 . S
C52 H56 0.950 . S
H53 C48 0.949 . S
C54 C49 1.399 . S
C54 C52 1.382 . S
C54 H55 0.952 . S
H55 C54 0.952 . S
H56 C52 0.950 . S
H57 C58 0.949 . S
C58 H57 0.949 . S
C58 C59 1.395 . S
C58 C60 1.391 . S
C59 C58 1.395 . S
C59 C62 1.390 . S
C60 C58 1.391 . S
C60 C64 1.387 . S
C60 C65 1.491 . S
H61 C62 0.950 . S
C62 C59 1.390 . S
C62 H61 0.950 . S
C62 C63 1.378 . S
C63 C62 1.378 . S
C63 C64 1.409 . S
C64 C60 1.387 . S
C64 C63 1.409 . S
C64 H66 0.951 . S
C65 C60 1.491 . S
C65 C67 1.382 . S
C65 C69 1.404 . S
H66 C64 0.951 . S
C67 C65 1.382 . S
C67 C68 1.390 . S
C67 H72 0.949 . S
C68 C67 1.390 . S
C68 C73 1.399 . S
C69 C65 1.404 . S
C69 H70 0.950 . S
C69 C71 1.375 . S
H70 C69 0.950 . S
C71 C69 1.375 . S
C71 C73 1.382 . S
C71 H75 0.950 . S
H72 C67 0.949 . S
C73 C68 1.399 . S
C73 C71 1.382 . S
C73 H74 0.952 . S
H74 C73 0.952 . S
H75 C71 0.950 . S
H76 C77 0.949 . S
C77 H76 0.949 . S
C77 C78 1.395 . S
C77 C79 1.391 . S
C78 C77 1.395 . S
C78 C81 1.390 . S
C79 C77 1.391 . S
C79 C83 1.387 . S
C79 C84 1.491 . S
H80 C81 0.950 . S
C81 C78 1.390 . S
C81 H80 0.950 . S
C81 C82 1.378 . S
C82 C81 1.378 . S
C82 C83 1.409 . S
C83 C79 1.387 . S
C83 C82 1.409 . S
C83 H85 0.951 . S
C84 C79 1.491 . S
C84 C86 1.382 . S
C84 C88 1.404 . S
H85 C83 0.951 . S
C86 C84 1.382 . S
C86 C87 1.390 . S
C86 H91 0.949 . S
C87 C86 1.390 . S
C87 C92 1.399 . S
C88 C84 1.404 . S
C88 H89 0.950 . S
C88 C90 1.375 . S
H89 C88 0.950 . S
C90 C88 1.375 . S
C90 C92 1.382 . S
C90 H94 0.950 . S
H91 C86 0.949 . S
C92 C87 1.399 . S
C92 C90 1.382 . S
C92 H93 0.952 . S
H93 C92 0.952 . S
H94 C90 0.950 . S
H95 C96 0.949 . S
C96 H95 0.949 . S
C96 C97 1.395 . S
C96 C98 1.391 . S
C97 C96 1.395 . S
C97 C100 1.390 . S
C98 C96 1.391 . S
C98 C102 1.387 . S
C98 C103 1.491 . S
H99 C100 0.950 . S
C100 C97 1.390 . S
C100 H99 0.950 . S
C100 C101 1.378 . S
C101 C100 1.378 . S
C101 C102 1.409 . S
C102 C98 1.387 . S
C102 C101 1.409 . S
C102 H104 0.951 . S
C103 C98 1.491 . S
C103 C105 1.382 . S
C103 C107 1.404 . S
H104 C102 0.951 . S
C105 C103 1.382 . S
C105 C106 1.390 . S
C105 H110 0.949 . S
C106 C105 1.390 . S
C106 C111 1.399 . S
C107 C103 1.404 . S
C107 H108 0.950 . S
C107 C109 1.375 . S
H108 C107 0.950 . S
C109 C107 1.375 . S
C109 C111 1.382 . S
C109 H113 0.950 . S
H110 C105 0.949 . S
C111 C106 1.399 . S
C111 C109 1.382 . S
C111 H112 0.952 . S
H112 C111 0.952 . S
H113 C109 0.950 . S
H114 C115 0.949 . S
C115 H114 0.949 . S
C115 C116 1.395 . S
C115 C117 1.391 . S
C116 C115 1.395 . S
C116 C119 1.390 . S
C117 C115 1.391 . S
C117 C121 1.387 . S
C117 C122 1.491 . S
H118 C119 0.950 . S
C119 C116 1.390 . S
C119 H118 0.950 . S
C119 C120 1.378 . S
C120 C119 1.378 . S
C120 C121 1.409 . S
C121 C117 1.387 . S
C121 C120 1.409 . S
C121 H123 0.951 . S
C122 C117 1.491 . S
C122 C124 1.382 . S
C122 C126 1.404 . S
H123 C121 0.951 . S
C124 C122 1.382 . S
C124 C125 1.390 . S
C124 H129 0.949 . S
C125 C124 1.390 . S
C125 C130 1.399 . S
C126 C122 1.404 . S
C126 H127 0.950 . S
C126 C128 1.375 . S
H127 C126 0.950 . S
C128 C126 1.375 . S
C128 C130 1.382 . S
C128 H132 0.950 . S
H129 C124 0.949 . S
C130 C125 1.399 . S
C130 C128 1.382 . S
C130 H131 0.952 . S
H131 C130 0.952 . S
H132 C128 0.950 . S
H133 C134 0.949 . S
C134 H133 0.949 . S
C134 C135 1.395 . S
C134 C136 1.391 . S
C135 C134 1.395 . S
C135 C138 1.390 . S
C136 C134 1.391 . S
C136 C140 1.387 . S
C136 C141 1.491 . S
H137 C138 0.950 . S
C138 C135 1.390 . S
C138 H137 0.950 . S
C138 C139 1.378 . S
C139 C138 1.378 . S
C139 C140 1.409 . S
C140 C136 1.387 . S
C140 C139 1.409 . S
C140 H142 0.951 . S
C141 C136 1.491 . S
C141 C143 1.382 . S
C141 C145 1.404 . S
H142 C140 0.951 . S
C143 C141 1.382 . S
C143 C144 1.390 . S
C143 H148 0.949 . S
C144 C143 1.390 . S
C144 C149 1.399 . S
C145 C141 1.404 . S
C145 H146 0.950 . S
C145 C147 1.375 . S
H146 C145 0.950 . S
C147 C145 1.375 . S
C147 C149 1.382 . S
C147 H151 0.950 . S
H148 C143 0.949 . S
C149 C144 1.399 . S
C149 C147 1.382 . S
C149 H150 0.952 . S
H150 C149 0.952 . S
H151 C147 0.950 . S
Co152 N157 2.057 . S
Co152 O169 2.016 1_655 S
Co152 O172 2.062 1_655 S
Co152 O176 2.117 . S
Co152 O177 2.020 . S
C153 O173 1.259 1_655 S
C153 O176 1.258 1_565 S
Co154 N163 2.057 . S
Co154 O170 2.117 . S
Co154 O171 2.020 . S
Co154 O173 2.021 1_545 S
Co154 O178 2.062 . S
C155 N157 1.316 . S
C155 N158 1.347 . S
C155 H160 0.931 . S
C156 N157 1.375 . S
C156 C159 1.350 . S
C156 H161 0.930 . S
N157 Co152 2.057 . S
N157 C155 1.316 . S
N157 C156 1.375 . S
N158 C155 1.347 . S
N158 C159 1.373 . S
C159 C156 1.350 . S
C159 N158 1.373 . S
C159 H180 0.931 . S
H160 C155 0.931 . S
H161 C156 0.930 . S
C162 O169 1.288 . S
C162 O170 1.258 . S
N163 Co154 2.057 . S
N163 C164 1.316 . S
N163 C165 1.375 . S
C164 N163 1.316 . S
C164 N166 1.347 . S
C164 H175 0.931 1_545 S
C165 N163 1.375 . S
C165 C167 1.350 . S
C165 H174 0.930 . S
N166 C164 1.347 . S
N166 C167 1.373 . S
C167 C165 1.350 . S
C167 N166 1.373 . S
C167 H181 0.931 . S
C168 O171 1.256 . S
C168 O172 1.255 . S
O169 Co152 2.016 1_455 S
O169 C162 1.288 . S
O170 Co154 2.117 . S
O170 C162 1.258 . S
O171 Co154 2.020 . S
O171 C168 1.256 . S
O172 Co152 2.062 1_455 S
O172 C168 1.255 . S
O173 C153 1.259 1_455 S
O173 Co154 2.021 1_565 S
H174 C165 0.930 . S
H175 C164 0.931 1_565 S
O176 Co152 2.117 . S
O176 C153 1.258 1_545 S
O177 Co152 2.020 . S
O177 C179 1.256 . S
O178 Co154 2.062 . S
O178 C179 1.255 1_455 S
C179 O177 1.256 . S
C179 O178 1.255 1_655 S
H180 C159 0.931 . S
H181 C167 0.931 . S
Co182 N187 2.057 1_554 S
Co182 O199 2.021 . S
Co182 O202 2.062 . S
Co182 O206 2.117 1_545 S
Co182 O207 2.020 . S
C183 O203 1.259 . S
C183 O206 1.258 . S
Co184 N193 2.057 . S
Co184 O200 2.117 . S
Co184 O201 2.020 . S
Co184 O203 2.021 1_545 S
Co184 O208 2.062 . S
C185 N187 1.316 . S
C185 N188 1.347 1_545 S
C185 H190 0.931 . S
C186 N187 1.375 1_565 S
C186 C189 1.350 . S
C186 H191 0.930 1_556 S
N187 Co182 2.057 1_556 S
N187 C185 1.316 . S
N187 C186 1.375 1_545 S
N188 C185 1.347 1_565 S
N188 C189 1.373 . S
C189 C186 1.350 . S
C189 N188 1.373 . S
C189 H210 0.931 . S
H190 C185 0.931 . S
H191 C186 0.930 1_554 S
C192 O199 1.259 . S
C192 O200 1.258 . S
N193 Co184 2.057 . S
N193 C194 1.316 . S
N193 C195 1.375 . S
C194 N193 1.316 . S
C194 N196 1.347 . S
C194 H205 0.931 . S
C195 N193 1.375 . S
C195 C197 1.350 . S
C195 H204 0.930 . S
N196 C194 1.347 . S
N196 C197 1.373 . S
C197 C195 1.350 . S
C197 N196 1.373 . S
C197 H211 0.931 . S
C198 O201 1.256 . S
C198 O202 1.255 . S
O199 Co182 2.021 . S
O199 C192 1.259 . S
O200 Co184 2.117 . S
O200 C192 1.258 . S
O201 Co184 2.020 . S
O201 C198 1.256 . S
O202 Co182 2.062 . S
O202 C198 1.255 . S
O203 C183 1.259 . S
O203 Co184 2.021 1_565 S
H204 C195 0.930 . S
H205 C194 0.931 . S
O206 Co182 2.117 1_565 S
O206 C183 1.258 . S
O207 Co182 2.020 . S
O207 C209 1.256 . S
O208 Co184 2.062 . S
O208 C209 1.255 . S
C209 O207 1.256 . S
C209 O208 1.255 . S
H210 C189 0.931 . S
H211 C197 0.931 . S
Co212 N217 2.057 . S
Co212 O229 2.021 . S
Co212 O232 2.062 . S
Co212 O236 2.117 . S
Co212 O237 2.020 . S
C213 O233 1.259 . S
C213 O236 1.258 . S
Co214 N223 2.057 . S
Co214 O230 2.117 . S
Co214 O231 2.020 . S
Co214 O233 2.021 . S
Co214 O238 2.062 . S
C215 N217 1.316 . S
C215 N218 1.347 . S
C215 H220 0.931 . S
C216 N217 1.375 . S
C216 C219 1.350 . S
C216 H221 0.930 . S
N217 Co212 2.057 . S
N217 C215 1.316 . S
N217 C216 1.375 . S
N218 C215 1.347 . S
N218 C219 1.373 . S
C219 C216 1.350 . S
C219 N218 1.373 . S
C219 H240 0.931 . S
H220 C215 0.931 . S
H221 C216 0.930 . S
C222 O229 1.259 . S
C222 O230 1.258 . S
N223 Co214 2.057 . S
N223 C224 1.316 . S
N223 C225 1.375 . S
C224 N223 1.316 . S
C224 N226 1.347 . S
C224 H235 0.931 . S
C225 N223 1.375 . S
C225 C227 1.350 . S
C225 H234 0.930 . S
N226 C224 1.347 . S
N226 C227 1.373 . S
C227 C225 1.350 . S
C227 N226 1.373 . S
C227 H241 0.931 . S
C228 O231 1.256 . S
C228 O232 1.255 . S
O229 Co212 2.021 . S
O229 C222 1.259 . S
O230 Co214 2.117 . S
O230 C222 1.258 . S
O231 Co214 2.020 . S
O231 C228 1.256 . S
O232 Co212 2.062 . S
O232 C228 1.255 . S
O233 C213 1.259 . S
O233 Co214 2.021 . S
H234 C225 0.930 . S
H235 C224 0.931 . S
O236 Co212 2.117 . S
O236 C213 1.258 . S
O237 Co212 2.020 . S
O237 C239 1.256 . S
O238 Co214 2.062 . S
O238 C239 1.255 . S
C239 O237 1.256 . S
C239 O238 1.255 . S
H240 C219 0.931 . S
H241 C227 0.931 . S
Co242 N247 2.057 . S
Co242 O259 2.021 1_556 S
Co242 O262 2.062 1_556 S
Co242 O266 2.117 1_455 S
Co242 O267 2.020 . S
C243 O263 1.259 . S
C243 O266 1.258 1_554 S
Co244 N253 2.057 . S
Co244 O260 2.117 . S
Co244 O261 2.020 . S
Co244 O263 2.021 1_455 S
Co244 O268 2.062 . S
C245 N247 1.316 . S
C245 N248 1.347 . S
C245 H250 0.931 . S
C246 N247 1.375 . S
C246 C249 1.350 . S
C246 H251 0.930 1_455 S
N247 Co242 2.057 . S
N247 C245 1.316 . S
N247 C246 1.375 . S
N248 C245 1.347 . S
N248 C249 1.373 . S
C249 C246 1.350 . S
C249 N248 1.373 . S
C249 H270 0.931 . S
H250 C245 0.931 . S
H251 C246 0.930 1_655 S
C252 O259 1.259 . S
C252 O260 1.258 . S
N253 Co244 2.057 . S
N253 C254 1.316 1_455 S
N253 C255 1.375 . S
C254 N253 1.316 1_655 S
C254 N256 1.347 . S
C254 H265 0.931 . S
C255 N253 1.375 . S
C255 C257 1.350 . S
C255 H264 0.930 . S
N256 C254 1.347 . S
N256 C257 1.373 1_655 S
C257 C255 1.350 . S
C257 N256 1.373 1_455 S
C257 H271 0.931 . S
C258 O261 1.256 . S
C258 O262 1.255 . S
O259 Co242 2.021 1_554 S
O259 C252 1.259 . S
O260 Co244 2.117 . S
O260 C252 1.258 . S
O261 Co244 2.020 . S
O261 C258 1.256 . S
O262 Co242 2.062 1_554 S
O262 C258 1.255 . S
O263 C243 1.259 . S
O263 Co244 2.021 1_655 S
H264 C255 0.930 . S
H265 C254 0.931 . S
O266 Co242 2.117 1_655 S
O266 C243 1.258 1_556 S
O267 Co242 2.020 . S
O267 C269 1.256 1_556 S
O268 Co244 2.062 . S
O268 C269 1.255 . S
C269 O267 1.256 1_554 S
C269 O268 1.255 . S
H270 C249 0.931 . S
H271 C257 0.931 . S
H272 C284 0.930 . S
H273 C286 0.930 . S
H274 C287 0.930 . S
H275 C291 0.959 . S
H276 C291 0.959 . S
H277 C291 0.961 . S
H278 C292 0.960 . S
H279 C292 0.961 . S
H280 C292 0.959 . S
H281 C295 0.929 . S
H282 C296 0.931 . S
H283 C298 0.930 . S
C284 H272 0.930 . S
C284 C285 1.399 . S
C284 C289 1.399 . S
C285 C284 1.399 . S
C285 C286 1.376 . S
C286 H273 0.930 . S
C286 C285 1.376 . S
C286 C287 1.388 . S
C287 H274 0.930 . S
C287 C286 1.388 . S
C287 C288 1.390 . S
C288 C287 1.390 . S
C288 C289 1.394 . S
C288 C294 1.465 . S
C289 C284 1.399 . S
C289 C288 1.394 . S
C289 C290 1.516 . S
C290 C289 1.516 . S
C290 C291 1.502 . S
C290 C292 1.561 . S
C290 C293 1.526 . S
C291 H275 0.959 . S
C291 H276 0.959 . S
C291 H277 0.961 . S
C291 C290 1.502 . S
C292 H278 0.960 . S
C292 H279 0.961 . S
C292 H280 0.959 . S
C292 C290 1.561 . S
C293 C290 1.526 . S
C293 C294 1.396 . S
C293 C298 1.390 . S
C294 C288 1.465 . S
C294 C293 1.396 . S
C294 C295 1.399 . S
C295 H281 0.929 . S
C295 C294 1.399 . S
C295 C296 1.385 . S
C296 H282 0.931 . S
C296 C295 1.385 . S
C296 C297 1.389 . S
C297 C296 1.389 . S
C297 C298 1.387 . S
C298 H283 0.930 . S
C298 C293 1.390 . S
C298 C297 1.387 . S
H299 C311 0.930 . S
H300 C313 0.930 1_545 S
H301 C314 0.930 . S
H302 C318 0.959 . S
H303 C318 0.959 . S
H304 C318 0.961 . S
H305 C319 0.960 . S
H306 C319 0.961 . S
H307 C319 0.959 . S
H308 C322 0.929 . S
H309 C323 0.931 . S
H310 C325 0.930 . S
C311 H299 0.930 . S
C311 C312 1.399 . S
C311 C316 1.399 . S
C312 C311 1.399 . S
C312 C313 1.376 . S
C313 H300 0.930 1_565 S
C313 C312 1.376 . S
C313 C314 1.388 1_565 S
C314 H301 0.930 . S
C314 C313 1.388 1_545 S
C314 C315 1.390 1_545 S
C315 C314 1.390 1_565 S
C315 C316 1.394 . S
C315 C321 1.465 . S
C316 C311 1.399 . S
C316 C315 1.394 . S
C316 C317 1.516 . S
C317 C316 1.516 . S
C317 C318 1.502 . S
C317 C319 1.561 . S
C317 C320 1.526 . S
C318 H302 0.959 . S
C318 H303 0.959 . S
C318 H304 0.961 . S
C318 C317 1.502 . S
C319 H305 0.960 . S
C319 H306 0.961 . S
C319 H307 0.959 . S
C319 C317 1.561 . S
C320 C317 1.526 . S
C320 C321 1.396 . S
C320 C325 1.390 . S
C321 C315 1.465 . S
C321 C320 1.396 . S
C321 C322 1.399 1_565 S
C322 H308 0.929 . S
C322 C321 1.399 1_545 S
C322 C323 1.385 . S
C323 H309 0.931 . S
C323 C322 1.385 . S
C323 C324 1.389 1_545 S
C324 C323 1.389 1_565 S
C324 C325 1.387 . S
C325 H310 0.930 . S
C325 C320 1.390 . S
C325 C324 1.387 . S
H326 C338 0.930 . S
H327 C340 0.930 . S
H328 C341 0.930 . S
H329 C345 0.959 . S
H330 C345 0.959 . S
H331 C345 0.961 . S
H332 C346 0.960 . S
H333 C346 0.961 . S
H334 C346 0.959 . S
H335 C349 0.929 . S
H336 C350 0.931 . S
H337 C352 0.930 . S
C338 H326 0.930 . S
C338 C339 1.399 . S
C338 C343 1.399 . S
C339 C338 1.399 . S
C339 C340 1.376 . S
C340 H327 0.930 . S
C340 C339 1.376 . S
C340 C341 1.388 . S
C341 H328 0.930 . S
C341 C340 1.388 . S
C341 C342 1.390 . S
C342 C341 1.390 . S
C342 C343 1.394 . S
C342 C348 1.465 . S
C343 C338 1.399 . S
C343 C342 1.394 . S
C343 C344 1.516 . S
C344 C343 1.516 . S
C344 C345 1.502 . S
C344 C346 1.561 . S
C344 C347 1.526 . S
C345 H329 0.959 . S
C345 H330 0.959 . S
C345 H331 0.961 . S
C345 C344 1.502 . S
C346 H332 0.960 . S
C346 H333 0.961 . S
C346 H334 0.959 . S
C346 C344 1.561 . S
C347 C344 1.526 . S
C347 C348 1.396 . S
C347 C352 1.390 . S
C348 C342 1.465 . S
C348 C347 1.396 . S
C348 C349 1.399 . S
C349 H335 0.929 . S
C349 C348 1.399 . S
C349 C350 1.385 . S
C350 H336 0.931 . S
C350 C349 1.385 . S
C350 C351 1.389 . S
C351 C350 1.389 . S
C351 C352 1.387 . S
C352 H337 0.930 . S
C352 C347 1.390 . S
C352 C351 1.387 . S
H353 C365 0.930 . S
H354 C367 0.930 . S
H355 C368 0.930 . S
H356 C372 0.959 . S
H357 C372 0.959 . S
H358 C372 0.961 . S
H359 C373 0.960 . S
H360 C373 0.961 . S
H361 C373 0.959 . S
H362 C376 0.929 . S
H363 C377 0.931 . S
H364 C379 0.930 . S
C365 H353 0.930 . S
C365 C366 1.399 . S
C365 C370 1.399 . S
C366 C365 1.399 . S
C366 C367 1.376 . S
C367 H354 0.930 . S
C367 C366 1.376 . S
C367 C368 1.388 . S
C368 H355 0.930 . S
C368 C367 1.388 . S
C368 C369 1.390 . S
C369 C368 1.390 . S
C369 C370 1.394 . S
C369 C375 1.465 . S
C370 C365 1.399 . S
C370 C369 1.394 . S
C370 C371 1.516 . S
C371 C370 1.516 . S
C371 C372 1.502 1_655 S
C371 C373 1.561 . S
C371 C374 1.526 . S
C372 H356 0.959 . S
C372 H357 0.959 . S
C372 H358 0.961 . S
C372 C371 1.502 1_455 S
C373 H359 0.960 . S
C373 H360 0.961 . S
C373 H361 0.959 . S
C373 C371 1.561 . S
C374 C371 1.526 . S
C374 C375 1.396 . S
C374 C379 1.390 . S
C375 C369 1.465 . S
C375 C374 1.396 . S
C375 C376 1.399 . S
C376 H362 0.929 . S
C376 C375 1.399 . S
C376 C377 1.385 . S
C377 H363 0.931 . S
C377 C376 1.385 . S
C377 C378 1.389 . S
C378 C377 1.389 . S
C378 C379 1.387 . S
C379 H364 0.930 . S
C379 C374 1.390 . S
C379 C378 1.387 . S
H380 C392 0.930 . S
H381 C394 0.930 . S
H382 C395 0.930 . S
H383 C399 0.959 . S
H384 C399 0.959 . S
H385 C399 0.961 . S
H386 C400 0.960 . S
H387 C400 0.961 . S
H388 C400 0.959 . S
H389 C403 0.929 . S
H390 C404 0.931 . S
H391 C406 0.930 . S
C392 H380 0.930 . S
C392 C393 1.399 . S
C392 C397 1.399 . S
C393 C392 1.399 . S
C393 C394 1.376 . S
C394 H381 0.930 . S
C394 C393 1.376 . S
C394 C395 1.388 . S
C395 H382 0.930 . S
C395 C394 1.388 . S
C395 C396 1.390 . S
C396 C395 1.390 . S
C396 C397 1.394 . S
C396 C402 1.465 . S
C397 C392 1.399 . S
C397 C396 1.394 . S
C397 C398 1.516 . S
C398 C397 1.516 . S
C398 C399 1.502 . S
C398 C400 1.561 . S
C398 C401 1.526 . S
C399 H383 0.959 . S
C399 H384 0.959 . S
C399 H385 0.961 . S
C399 C398 1.502 . S
C400 H386 0.960 . S
C400 H387 0.961 . S
C400 H388 0.959 . S
C400 C398 1.561 . S
C401 C398 1.526 . S
C401 C402 1.396 . S
C401 C406 1.390 . S
C402 C396 1.465 . S
C402 C401 1.396 . S
C402 C403 1.399 . S
C403 H389 0.929 . S
C403 C402 1.399 . S
C403 C404 1.385 . S
C404 H390 0.931 . S
C404 C403 1.385 . S
C404 C405 1.389 . S
C405 C404 1.389 . S
C405 C406 1.387 . S
C406 H391 0.930 . S
C406 C401 1.390 . S
C406 C405 1.387 . S
H407 C419 0.930 . S
H408 C421 0.930 . S
H409 C422 0.930 . S
H410 C426 0.959 1_565 S
H411 C426 0.959 . S
H412 C426 0.961 . S
H413 C427 0.960 . S
H414 C427 0.961 . S
H415 C427 0.959 . S
H416 C430 0.929 . S
H417 C431 0.931 . S
H418 C433 0.930 . S
C419 H407 0.930 . S
C419 C420 1.399 1_545 S
C419 C424 1.399 . S
C420 C419 1.399 1_565 S
C420 C421 1.376 . S
C421 H408 0.930 . S
C421 C420 1.376 . S
C421 C422 1.388 . S
C422 H409 0.930 . S
C422 C421 1.388 . S
C422 C423 1.390 . S
C423 C422 1.390 . S
C423 C424 1.394 1_565 S
C423 C429 1.465 . S
C424 C419 1.399 . S
C424 C423 1.394 1_545 S
C424 C425 1.516 . S
C425 C424 1.516 . S
C425 C426 1.502 . S
C425 C427 1.561 . S
C425 C428 1.526 . S
C426 H410 0.959 1_545 S
C426 H411 0.959 . S
C426 H412 0.961 . S
C426 C425 1.502 . S
C427 H413 0.960 . S
C427 H414 0.961 . S
C427 H415 0.959 . S
C427 C425 1.561 . S
C428 C425 1.526 . S
C428 C429 1.396 1_545 S
C428 C433 1.390 . S
C429 C423 1.465 . S
C429 C428 1.396 1_565 S
C429 C430 1.399 . S
C430 H416 0.929 . S
C430 C429 1.399 . S
C430 C431 1.385 . S
C431 H417 0.931 . S
C431 C430 1.385 . S
C431 C432 1.389 1_565 S
C432 C431 1.389 1_545 S
C432 C433 1.387 . S
C433 H418 0.930 . S
C433 C428 1.390 . S
C433 C432 1.387 . S
H434 C446 0.930 . S
H435 C448 0.947 . S
H436 C449 0.930 . S
H437 C453 0.959 . S
H438 C453 0.959 . S
H439 C453 0.961 . S
H440 C454 0.960 . S
H441 C454 0.961 . S
H442 C454 0.959 . S
H443 C457 0.929 . S
H444 C458 0.931 . S
H445 C460 0.930 . S
C446 H434 0.930 . S
C446 C447 1.399 . S
C446 C451 1.399 . S
C447 C446 1.399 . S
C447 C448 1.350 1_556 S
C448 H435 0.947 . S
C448 C447 1.350 1_554 S
C448 C449 1.399 . S
C449 H436 0.930 . S
C449 C448 1.399 . S
C449 C450 1.390 1_554 S
C450 C449 1.390 1_556 S
C450 C451 1.394 . S
C450 C456 1.465 1_556 S
C451 C446 1.399 . S
C451 C450 1.394 . S
C451 C452 1.516 . S
C452 C451 1.516 . S
C452 C453 1.502 . S
C452 C454 1.561 . S
C452 C455 1.526 . S
C453 H437 0.959 . S
C453 H438 0.959 . S
C453 H439 0.961 . S
C453 C452 1.502 . S
C454 H440 0.960 . S
C454 H441 0.961 . S
C454 H442 0.959 . S
C454 C452 1.561 . S
C455 C452 1.526 . S
C455 C456 1.396 1_556 S
C455 C460 1.390 . S
C456 C450 1.465 1_554 S
C456 C455 1.396 1_554 S
C456 C457 1.399 . S
C457 H443 0.929 . S
C457 C456 1.399 . S
C457 C458 1.385 . S
C458 H444 0.931 . S
C458 C457 1.385 . S
C458 C459 1.389 . S
C459 C458 1.389 . S
C459 C460 1.387 1_554 S
C460 H445 0.930 . S
C460 C455 1.390 . S
C460 C459 1.387 1_556 S
H461 C473 0.930 . S
H462 C475 0.930 . S
H463 C476 0.930 . S
H464 C480 0.959 . S
H465 C480 0.959 . S
H466 C480 0.961 . S
H467 C481 0.960 . S
H468 C481 0.961 . S
H469 C481 0.959 . S
H470 C484 0.929 . S
H471 C485 0.931 . S
H472 C487 0.930 . S
C473 H461 0.930 . S
C473 C474 1.399 . S
C473 C478 1.399 . S
C474 C473 1.399 . S
C474 C475 1.376 . S
C475 H462 0.930 . S
C475 C474 1.376 . S
C475 C476 1.388 . S
C476 H463 0.930 . S
C476 C475 1.388 . S
C476 C477 1.390 . S
C477 C476 1.390 . S
C477 C478 1.394 . S
C477 C483 1.465 . S
C478 C473 1.399 . S
C478 C477 1.394 . S
C478 C479 1.516 . S
C479 C478 1.516 . S
C479 C480 1.502 . S
C479 C481 1.561 . S
C479 C482 1.526 . S
C480 H464 0.959 . S
C480 H465 0.959 . S
C480 H466 0.961 . S
C480 C479 1.502 . S
C481 H467 0.960 . S
C481 H468 0.961 . S
C481 H469 0.959 . S
C481 C479 1.561 . S
C482 C479 1.526 . S
C482 C483 1.396 . S
C482 C487 1.390 . S
C483 C477 1.465 . S
C483 C482 1.396 . S
C483 C484 1.399 . S
C484 H470 0.929 . S
C484 C483 1.399 . S
C484 C485 1.385 . S
C485 H471 0.931 . S
C485 C484 1.385 . S
C485 C486 1.389 . S
C486 C485 1.389 . S
C486 C487 1.387 . S
C487 H472 0.930 . S
C487 C482 1.390 . S
C487 C486 1.387 . S
H488 C500 0.930 . S
H489 C502 0.930 . S
H490 C503 0.930 . S
H491 C507 0.959 . S
H492 C507 0.959 1_556 S
H493 C507 0.961 . S
H494 C508 0.960 1_556 S
H495 C508 0.961 1_556 S
H496 C508 0.959 . S
H497 C511 0.929 . S
H498 C512 0.931 . S
H499 C514 0.930 . S
C500 H488 0.930 . S
C500 C501 1.399 . S
C500 C505 1.399 . S
C501 C500 1.399 . S
C501 C502 1.376 . S
C502 H489 0.930 . S
C502 C501 1.376 . S
C502 C503 1.388 . S
C503 H490 0.930 . S
C503 C502 1.388 . S
C503 C504 1.390 . S
C504 C503 1.390 . S
C504 C505 1.394 . S
C504 C510 1.465 . S
C505 C500 1.399 . S
C505 C504 1.394 . S
C505 C506 1.516 . S
C506 C505 1.516 . S
C506 C507 1.502 . S
C506 C508 1.561 . S
C506 C509 1.526 . S
C507 H491 0.959 . S
C507 H492 0.959 1_554 S
C507 H493 0.961 . S
C507 C506 1.502 . S
C508 H494 0.960 1_554 S
C508 H495 0.961 1_554 S
C508 H496 0.959 . S
C508 C506 1.561 . S
C509 C506 1.526 . S
C509 C510 1.396 . S
C509 C514 1.390 . S
C510 C504 1.465 . S
C510 C509 1.396 . S
C510 C511 1.399 . S
C511 H497 0.929 . S
C511 C510 1.399 . S
C511 C512 1.385 . S
C512 H498 0.931 . S
C512 C511 1.385 . S
C512 C513 1.389 . S
C513 C512 1.389 . S
C513 C514 1.387 . S
C514 H499 0.930 . S
C514 C509 1.390 . S
C514 C513 1.387 . S
H515 C527 0.930 . S
H516 C529 0.930 . S
H517 C530 0.930 . S
H518 C534 0.959 . S
H519 C534 0.959 . S
H520 C534 0.961 . S
H521 C535 0.960 . S
H522 C535 0.961 . S
H523 C535 0.959 . S
H524 C538 0.929 . S
H525 C539 0.931 . S
H526 C541 0.930 . S
C527 H515 0.930 . S
C527 C528 1.399 1_554 S
C527 C532 1.399 . S
C528 C527 1.399 1_556 S
C528 C529 1.376 . S
C529 H516 0.930 . S
C529 C528 1.376 . S
C529 C530 1.388 . S
C530 H517 0.930 . S
C530 C529 1.388 . S
C530 C531 1.390 . S
C531 C530 1.390 . S
C531 C532 1.394 1_556 S
C531 C537 1.470 . S
C532 C527 1.399 . S
C532 C531 1.394 1_554 S
C532 C533 1.516 . S
C533 C532 1.516 . S
C533 C534 1.502 . S
C533 C535 1.561 . S
C533 C536 1.526 . S
C534 H518 0.959 . S
C534 H519 0.959 . S
C534 H520 0.961 . S
C534 C533 1.502 . S
C535 H521 0.960 . S
C535 H522 0.961 . S
C535 H523 0.959 . S
C535 C533 1.561 . S
C536 C533 1.526 . S
C536 C537 1.377 1_554 S
C536 C541 1.390 . S
C537 C531 1.470 . S
C537 C536 1.377 1_556 S
C537 C538 1.410 . S
C538 H524 0.929 . S
C538 C537 1.410 . S
C538 C539 1.385 . S
C539 H525 0.931 . S
C539 C538 1.385 . S
C539 C540 1.389 1_556 S
C540 C539 1.389 1_554 S
C540 C541 1.387 . S
C541 H526 0.930 . S
C541 C536 1.390 . S
C541 C540 1.387 . S
H542 C554 0.930 . S
H543 C556 0.930 . S
H544 C557 0.930 . S
H545 C561 0.959 . S
H546 C561 0.959 . S
H547 C561 0.961 . S
H548 C562 0.960 . S
H549 C562 0.961 . S
H550 C562 0.959 . S
H551 C565 0.929 . S
H552 C566 0.931 . S
H553 C568 0.930 . S
C554 H542 0.930 . S
C554 C555 1.399 . S
C554 C559 1.399 . S
C555 C554 1.399 . S
C555 C556 1.376 . S
C556 H543 0.930 . S
C556 C555 1.376 . S
C556 C557 1.388 . S
C557 H544 0.930 . S
C557 C556 1.388 . S
C557 C558 1.390 . S
C558 C557 1.390 . S
C558 C559 1.394 . S
C558 C564 1.465 . S
C559 C554 1.399 . S
C559 C558 1.394 . S
C559 C560 1.516 . S
C560 C559 1.516 . S
C560 C561 1.502 . S
C560 C562 1.561 1_655 S
C560 C563 1.526 . S
C561 H545 0.959 . S
C561 H546 0.959 . S
C561 H547 0.961 . S
C561 C560 1.502 . S
C562 H548 0.960 . S
C562 H549 0.961 . S
C562 H550 0.959 . S
C562 C560 1.561 1_455 S
C563 C560 1.526 . S
C563 C564 1.396 . S
C563 C568 1.390 . S
C564 C558 1.465 . S
C564 C563 1.396 . S
C564 C565 1.399 . S
C565 H551 0.929 . S
C565 C564 1.399 . S
C565 C566 1.385 . S
C566 H552 0.931 . S
C566 C565 1.385 . S
C566 C567 1.389 . S
C567 C566 1.389 . S
C567 C568 1.387 . S
C568 H553 0.930 . S
C568 C563 1.390 . S
C568 C567 1.387 . S
H569 C581 0.930 . S
H570 C583 0.930 . S
H571 C584 0.930 . S
H572 C588 0.959 . S
H573 C588 0.959 . S
H574 C588 0.961 . S
H575 C589 0.960 . S
H576 C589 0.961 . S
H577 C589 0.959 . S
H578 C592 0.929 . S
H579 C593 0.931 . S
H580 C595 0.930 . S
C581 H569 0.930 . S
C581 C582 1.399 . S
C581 C586 1.399 . S
C582 C581 1.399 . S
C582 C583 1.376 . S
C583 H570 0.930 . S
C583 C582 1.376 . S
C583 C584 1.388 . S
C584 H571 0.930 . S
C584 C583 1.388 . S
C584 C585 1.390 . S
C585 C584 1.390 . S
C585 C586 1.394 . S
C585 C591 1.465 . S
C586 C581 1.399 . S
C586 C585 1.394 . S
C586 C587 1.516 . S
C587 C586 1.516 . S
C587 C588 1.502 . S
C587 C589 1.561 . S
C587 C590 1.526 . S
C588 H572 0.959 . S
C588 H573 0.959 . S
C588 H574 0.961 . S
C588 C587 1.502 . S
C589 H575 0.960 . S
C589 H576 0.961 . S
C589 H577 0.959 . S
C589 C587 1.561 . S
C590 C587 1.526 . S
C590 C591 1.396 . S
C590 C595 1.390 . S
C591 C585 1.465 . S
C591 C590 1.396 . S
C591 C592 1.399 . S
C592 H578 0.929 . S
C592 C591 1.399 . S
C592 C593 1.385 . S
C593 H579 0.931 . S
C593 C592 1.385 . S
C593 C594 1.389 . S
C594 C593 1.389 . S
C594 C595 1.387 . S
C595 H580 0.930 . S
C595 C590 1.390 . S
C595 C594 1.387 . S
H596 C608 0.930 . S
H597 C610 0.930 . S
H598 C611 0.930 . S
H599 C615 0.959 . S
H600 C615 0.959 . S
H601 C615 0.961 . S
H602 C616 0.960 . S
H603 C616 0.961 . S
H604 C616 0.959 . S
H605 C619 0.929 . S
H606 C620 0.931 . S
H607 C622 0.930 1_455 S
C608 H596 0.930 . S
C608 C609 1.399 . S
C608 C613 1.399 . S
C609 C608 1.399 . S
C609 C610 1.376 1_565 S
C610 H597 0.930 . S
C610 C609 1.376 1_545 S
C610 C611 1.388 . S
C611 H598 0.930 . S
C611 C610 1.388 . S
C611 C612 1.390 . S
C612 C611 1.390 . S
C612 C613 1.394 1_545 S
C612 C618 1.465 . S
C613 C608 1.399 . S
C613 C612 1.394 1_565 S
C613 C614 1.516 . S
C614 C613 1.516 . S
C614 C615 1.502 1_655 S
C614 C616 1.561 . S
C614 C617 1.526 . S
C615 H599 0.959 . S
C615 H600 0.959 . S
C615 H601 0.961 . S
C615 C614 1.502 1_455 S
C616 H602 0.960 . S
C616 H603 0.961 . S
C616 H604 0.959 . S
C616 C614 1.561 . S
C617 C614 1.526 . S
C617 C618 1.396 1_565 S
C617 C622 1.390 . S
C618 C612 1.465 . S
C618 C617 1.396 1_545 S
C618 C619 1.399 . S
C619 H605 0.929 . S
C619 C618 1.399 . S
C619 C620 1.385 . S
C620 H606 0.931 . S
C620 C619 1.385 . S
C620 C621 1.389 . S
C621 C620 1.389 . S
C621 C622 1.387 1_545 S
C622 H607 0.930 1_655 S
C622 C617 1.390 . S
C622 C621 1.387 1_565 S
H623 C635 0.930 . S
H624 C637 0.930 . S
H625 C638 0.930 . S
H626 C642 0.959 . S
H627 C642 0.959 . S
H628 C642 0.961 . S
H629 C643 0.960 . S
H630 C643 0.961 . S
H631 C643 0.959 . S
H632 C646 0.929 . S
H633 C647 0.931 . S
H634 C649 0.930 . S
C635 H623 0.930 . S
C635 C636 1.399 . S
C635 C640 1.399 . S
C636 C635 1.399 . S
C636 C637 1.376 . S
C637 H624 0.930 . S
C637 C636 1.376 . S
C637 C638 1.388 . S
C638 H625 0.930 . S
C638 C637 1.388 . S
C638 C639 1.390 . S
C639 C638 1.390 . S
C639 C640 1.394 . S
C639 C645 1.465 . S
C640 C635 1.399 . S
C640 C639 1.394 . S
C640 C641 1.516 . S
C641 C640 1.516 . S
C641 C642 1.502 . S
C641 C643 1.561 . S
C641 C644 1.526 . S
C642 H626 0.959 . S
C642 H627 0.959 . S
C642 H628 0.961 . S
C642 C641 1.502 . S
C643 H629 0.960 . S
C643 H630 0.961 . S
C643 H631 0.959 . S
C643 C641 1.561 . S
C644 C641 1.526 . S
C644 C645 1.396 . S
C644 C649 1.390 . S
C645 C639 1.465 . S
C645 C644 1.396 . S
C645 C646 1.399 . S
C646 H632 0.929 . S
C646 C645 1.399 . S
C646 C647 1.385 . S
C647 H633 0.931 . S
C647 C646 1.385 . S
C647 C648 1.389 . S
C648 C647 1.389 . S
C648 C649 1.387 . S
C649 H634 0.930 . S
C649 C644 1.390 . S
C649 C648 1.387 . S
H650 C662 0.930 . S
H651 C664 0.930 . S
H652 C665 0.930 . S
H653 C669 0.959 . S
H654 C669 0.959 . S
H655 C669 0.961 . S
H656 C670 0.960 . S
H657 C670 0.961 . S
H658 C670 0.959 . S
H659 C673 0.929 . S
H660 C674 0.931 . S
H661 C676 0.930 . S
C662 H650 0.930 . S
C662 C663 1.399 . S
C662 C667 1.399 . S
C663 C662 1.399 . S
C663 C664 1.376 . S
C664 H651 0.930 . S
C664 C663 1.376 . S
C664 C665 1.388 . S
C665 H652 0.930 . S
C665 C664 1.388 . S
C665 C666 1.390 . S
C666 C665 1.390 . S
C666 C667 1.394 . S
C666 C672 1.465 . S
C667 C662 1.399 . S
C667 C666 1.394 . S
C667 C668 1.516 . S
C668 C667 1.516 . S
C668 C669 1.502 . S
C668 C670 1.561 . S
C668 C671 1.526 . S
C669 H653 0.959 . S
C669 H654 0.959 . S
C669 H655 0.961 . S
C669 C668 1.502 . S
C670 H656 0.960 . S
C670 H657 0.961 . S
C670 H658 0.959 . S
C670 C668 1.561 . S
C671 C668 1.526 . S
C671 C672 1.396 . S
C671 C676 1.390 . S
C672 C666 1.465 . S
C672 C671 1.396 . S
C672 C673 1.399 . S
C673 H659 0.929 . S
C673 C672 1.399 . S
C673 C674 1.385 . S
C674 H660 0.931 . S
C674 C673 1.385 . S
C674 C675 1.389 . S
C675 C674 1.389 . S
C675 C676 1.387 . S
C676 H661 0.930 . S
C676 C671 1.390 . S
C676 C675 1.387 . S
H677 C689 0.930 . S
H678 C691 0.930 . S
H679 C692 0.930 . S
H680 C696 0.959 . S
H681 C696 0.959 . S
H682 C696 0.961 . S
H683 C697 0.960 . S
H684 C697 0.961 . S
H685 C697 0.959 . S
H686 C700 0.929 . S
H687 C701 0.931 . S
H688 C703 0.930 . S
C689 H677 0.930 . S
C689 C690 1.399 . S
C689 C694 1.399 . S
C690 C689 1.399 . S
C690 C691 1.376 . S
C691 H678 0.930 . S
C691 C690 1.376 . S
C691 C692 1.388 . S
C692 H679 0.930 . S
C692 C691 1.388 . S
C692 C693 1.390 . S
C693 C692 1.390 . S
C693 C694 1.394 . S
C693 C699 1.465 . S
C694 C689 1.399 . S
C694 C693 1.394 . S
C694 C695 1.516 . S
C695 C694 1.516 . S
C695 C696 1.502 . S
C695 C697 1.561 . S
C695 C698 1.526 . S
C696 H680 0.959 . S
C696 H681 0.959 . S
C696 H682 0.961 . S
C696 C695 1.502 . S
C697 H683 0.960 . S
C697 H684 0.961 . S
C697 H685 0.959 . S
C697 C695 1.561 . S
C698 C695 1.526 . S
C698 C699 1.396 . S
C698 C703 1.390 . S
C699 C693 1.465 . S
C699 C698 1.396 . S
C699 C700 1.399 . S
C700 H686 0.929 . S
C700 C699 1.399 . S
C700 C701 1.385 . S
C701 H687 0.931 . S
C701 C700 1.385 . S
C701 C702 1.389 . S
C702 C701 1.389 . S
C702 C703 1.387 . S
C703 H688 0.930 . S
C703 C698 1.390 . S
C703 C702 1.387 . S
H704 C716 0.930 . S
H705 C718 0.930 . S
H706 C719 0.930 . S
H707 C723 0.959 . S
H708 C723 0.959 1_554 S
H709 C723 0.961 . S
H710 C724 0.960 . S
H711 C724 0.961 . S
H712 C724 0.959 . S
H713 C727 0.929 . S
H714 C728 0.931 . S
H715 C730 0.930 . S
C716 H704 0.930 . S
C716 C717 1.399 . S
C716 C721 1.399 1_556 S
C717 C716 1.399 . S
C717 C718 1.376 1_565 S
C718 H705 0.930 . S
C718 C717 1.376 1_545 S
C718 C719 1.388 . S
C719 H706 0.930 . S
C719 C718 1.388 . S
C719 C720 1.390 1_556 S
C720 C719 1.390 1_554 S
C720 C721 1.394 1_545 S
C720 C726 1.465 . S
C721 C716 1.399 1_554 S
C721 C720 1.394 1_565 S
C721 C722 1.516 . S
C722 C721 1.516 . S
C722 C723 1.502 1_554 S
C722 C724 1.561 . S
C722 C725 1.526 . S
C723 H707 0.959 . S
C723 H708 0.959 1_556 S
C723 H709 0.961 . S
C723 C722 1.502 1_556 S
C724 H710 0.960 . S
C724 H711 0.961 . S
C724 H712 0.959 . S
C724 C722 1.561 . S
C725 C722 1.526 . S
C725 C726 1.396 1_565 S
C725 C730 1.390 . S
C726 C720 1.465 . S
C726 C725 1.396 1_545 S
C726 C727 1.399 . S
C727 H713 0.929 . S
C727 C726 1.399 . S
C727 C728 1.385 . S
C728 H714 0.931 . S
C728 C727 1.385 . S
C728 C729 1.389 . S
C729 C728 1.389 . S
C729 C730 1.387 1_545 S
C730 H715 0.930 . S
C730 C725 1.390 . S
C730 C729 1.387 1_565 S
H731 C743 0.930 . S
H732 C745 0.930 . S
H733 C746 0.930 . S
H734 C750 0.959 . S
H735 C750 0.959 . S
H736 C750 0.961 . S
H737 C751 0.960 . S
H738 C751 0.961 . S
H739 C751 0.959 . S
H740 C754 0.929 . S
H741 C755 0.931 . S
H742 C757 0.930 . S
C743 H731 0.930 . S
C743 C744 1.399 . S
C743 C748 1.399 . S
C744 C743 1.399 . S
C744 C745 1.376 . S
C745 H732 0.930 . S
C745 C744 1.376 . S
C745 C746 1.388 . S
C746 H733 0.930 . S
C746 C745 1.388 . S
C746 C747 1.390 . S
C747 C746 1.390 . S
C747 C748 1.394 . S
C747 C753 1.465 . S
C748 C743 1.399 . S
C748 C747 1.394 . S
C748 C749 1.516 . S
C749 C748 1.516 . S
C749 C750 1.502 . S
C749 C751 1.561 . S
C749 C752 1.526 . S
C750 H734 0.959 . S
C750 H735 0.959 . S
C750 H736 0.961 . S
C750 C749 1.502 . S
C751 H737 0.960 . S
C751 H738 0.961 . S
C751 H739 0.959 . S
C751 C749 1.561 . S
C752 C749 1.526 . S
C752 C753 1.396 . S
C752 C757 1.390 . S
C753 C747 1.465 . S
C753 C752 1.396 . S
C753 C754 1.399 . S
C754 H740 0.929 . S
C754 C753 1.399 . S
C754 C755 1.385 . S
C755 H741 0.931 . S
C755 C754 1.385 . S
C755 C756 1.389 . S
C756 C755 1.389 . S
C756 C757 1.387 . S
C757 H742 0.930 . S
C757 C752 1.390 . S
C757 C756 1.387 . S
H758 C770 0.930 . S
H759 C772 0.930 . S
H760 C773 0.930 . S
H761 C777 0.959 . S
H762 C777 0.959 . S
H763 C777 0.961 . S
H764 C778 0.960 . S
H765 C778 0.961 . S
H766 C778 0.959 . S
H767 C781 0.929 . S
H768 C782 0.931 . S
H769 C784 0.930 . S
C770 H758 0.930 . S
C770 C771 1.399 . S
C770 C775 1.399 . S
C771 C770 1.399 . S
C771 C772 1.376 . S
C772 H759 0.930 . S
C772 C771 1.376 . S
C772 C773 1.388 . S
C773 H760 0.930 . S
C773 C772 1.388 . S
C773 C774 1.390 . S
C774 C773 1.390 . S
C774 C775 1.394 . S
C774 C780 1.465 . S
C775 C770 1.399 . S
C775 C774 1.394 . S
C775 C776 1.516 . S
C776 C775 1.516 . S
C776 C777 1.502 . S
C776 C778 1.561 . S
C776 C779 1.526 . S
C777 H761 0.959 . S
C777 H762 0.959 . S
C777 H763 0.961 . S
C777 C776 1.502 . S
C778 H764 0.960 . S
C778 H765 0.961 . S
C778 H766 0.959 . S
C778 C776 1.561 . S
C779 C776 1.526 . S
C779 C780 1.396 . S
C779 C784 1.390 . S
C780 C774 1.465 . S
C780 C779 1.396 . S
C780 C781 1.399 . S
C781 H767 0.929 . S
C781 C780 1.399 . S
C781 C782 1.385 . S
C782 H768 0.931 . S
C782 C781 1.385 . S
C782 C783 1.389 . S
C783 C782 1.389 . S
C783 C784 1.387 . S
C784 H769 0.930 . S
C784 C779 1.390 . S
C784 C783 1.387 . S
H785 C797 0.930 . S
H786 C799 0.930 . S
H787 C800 0.930 . S
H788 C804 0.959 . S
H789 C804 0.959 . S
H790 C804 0.961 . S
H791 C805 0.960 . S
H792 C805 0.961 . S
H793 C805 0.959 . S
H794 C808 0.929 . S
H795 C809 0.931 . S
H796 C811 0.930 . S
C797 H785 0.930 . S
C797 C798 1.399 . S
C797 C802 1.399 . S
C798 C797 1.399 . S
C798 C799 1.376 . S
C799 H786 0.930 . S
C799 C798 1.376 . S
C799 C800 1.388 . S
C800 H787 0.930 . S
C800 C799 1.388 . S
C800 C801 1.390 . S
C801 C800 1.390 . S
C801 C802 1.394 . S
C801 C807 1.465 . S
C802 C797 1.399 . S
C802 C801 1.394 . S
C802 C803 1.516 . S
C803 C802 1.516 . S
C803 C804 1.502 . S
C803 C805 1.561 . S
C803 C806 1.526 . S
C804 H788 0.959 . S
C804 H789 0.959 . S
C804 H790 0.961 . S
C804 C803 1.502 . S
C805 H791 0.960 . S
C805 H792 0.961 . S
C805 H793 0.959 . S
C805 C803 1.561 . S
C806 C803 1.526 . S
C806 C807 1.396 . S
C806 C811 1.390 . S
C807 C801 1.465 . S
C807 C806 1.396 . S
C807 C808 1.399 . S
C808 H794 0.929 . S
C808 C807 1.399 . S
C808 C809 1.385 . S
C809 H795 0.931 . S
C809 C808 1.385 . S
C809 C810 1.389 . S
C810 C809 1.389 . S
C810 C811 1.387 . S
C811 H796 0.930 . S
C811 C806 1.390 . S
C811 C810 1.387 . S
H812 C824 0.930 . S
H813 C826 0.930 . S
H814 C827 0.930 . S
H815 C831 0.959 . S
H816 C831 0.959 . S
H817 C831 0.961 . S
H818 C832 0.960 . S
H819 C832 0.961 . S
H820 C832 0.959 . S
H821 C835 0.929 . S
H822 C836 0.929 1_455 S
H823 C838 0.930 . S
C824 H812 0.930 . S
C824 C825 1.399 . S
C824 C829 1.399 . S
C825 C824 1.399 . S
C825 C826 1.376 . S
C826 H813 0.930 . S
C826 C825 1.376 . S
C826 C827 1.388 . S
C827 H814 0.930 . S
C827 C826 1.388 . S
C827 C828 1.390 . S
C828 C827 1.390 . S
C828 C829 1.394 . S
C828 C834 1.465 . S
C829 C824 1.399 . S
C829 C828 1.394 . S
C829 C830 1.516 1_556 S
C830 C829 1.516 1_554 S
C830 C831 1.502 1_655 S
C830 C832 1.561 . S
C830 C833 1.526 1_554 S
C831 H815 0.959 . S
C831 H816 0.959 . S
C831 H817 0.961 . S
C831 C830 1.502 1_455 S
C832 H818 0.960 . S
C832 H819 0.961 . S
C832 H820 0.959 . S
C832 C830 1.561 . S
C833 C830 1.526 1_556 S
C833 C834 1.396 . S
C833 C838 1.390 1_656 S
C834 C828 1.465 . S
C834 C833 1.396 . S
C834 C835 1.399 . S
C835 H821 0.929 . S
C835 C834 1.399 . S
C835 C836 1.385 . S
C836 H822 0.929 1_655 S
C836 C835 1.385 . S
C836 C837 1.389 1_655 S
C837 C836 1.389 1_455 S
C837 C838 1.387 1_556 S
C838 H823 0.930 . S
C838 C833 1.390 1_454 S
C838 C837 1.387 1_554 S
H839 C851 0.930 . S
H840 C853 0.930 . S
H841 C854 0.930 . S
H842 C858 0.959 . S
H843 C858 0.959 . S
H844 C858 0.961 . S
H845 C859 0.960 . S
H846 C859 0.961 . S
H847 C859 0.959 . S
H848 C862 0.929 . S
H849 C863 0.931 . S
H850 C865 0.930 . S
C851 H839 0.930 . S
C851 C852 1.399 . S
C851 C856 1.399 . S
C852 C851 1.399 . S
C852 C853 1.376 . S
C853 H840 0.930 . S
C853 C852 1.376 . S
C853 C854 1.388 . S
C854 H841 0.930 . S
C854 C853 1.388 . S
C854 C855 1.390 . S
C855 C854 1.390 . S
C855 C856 1.394 . S
C855 C861 1.465 . S
C856 C851 1.399 . S
C856 C855 1.394 . S
C856 C857 1.516 . S
C857 C856 1.516 . S
C857 C858 1.502 . S
C857 C859 1.561 . S
C857 C860 1.526 . S
C858 H842 0.959 . S
C858 H843 0.959 . S
C858 H844 0.961 . S
C858 C857 1.502 . S
C859 H845 0.960 . S
C859 H846 0.961 . S
C859 H847 0.959 . S
C859 C857 1.561 . S
C860 C857 1.526 . S
C860 C861 1.396 . S
C860 C865 1.390 . S
C861 C855 1.465 . S
C861 C860 1.396 . S
C861 C862 1.399 . S
C862 H848 0.929 . S
C862 C861 1.399 . S
C862 C863 1.385 . S
C863 H849 0.931 . S
C863 C862 1.385 . S
C863 C864 1.389 . S
C864 C863 1.389 . S
C864 C865 1.387 . S
C865 H850 0.930 . S
C865 C860 1.390 . S
C865 C864 1.387 . S
H866 C878 0.930 . S
H867 C880 0.930 . S
H868 C881 0.930 . S
H869 C885 0.959 . S
H870 C885 0.959 . S
H871 C885 0.961 . S
H872 C886 0.960 . S
H873 C886 0.961 . S
H874 C886 0.959 . S
H875 C889 0.929 . S
H876 C890 0.931 . S
H877 C892 0.930 . S
C878 H866 0.930 . S
C878 C879 1.399 . S
C878 C883 1.399 . S
C879 C878 1.399 . S
C879 C880 1.376 . S
C880 H867 0.930 . S
C880 C879 1.376 . S
C880 C881 1.388 . S
C881 H868 0.930 . S
C881 C880 1.388 . S
C881 C882 1.390 . S
C882 C881 1.390 . S
C882 C883 1.394 . S
C882 C888 1.465 . S
C883 C878 1.399 . S
C883 C882 1.394 . S
C883 C884 1.516 . S
C884 C883 1.516 . S
C884 C885 1.502 . S
C884 C886 1.561 . S
C884 C887 1.526 . S
C885 H869 0.959 . S
C885 H870 0.959 . S
C885 H871 0.961 . S
C885 C884 1.502 . S
C886 H872 0.960 . S
C886 H873 0.961 . S
C886 H874 0.959 . S
C886 C884 1.561 . S
C887 C884 1.526 . S
C887 C888 1.396 . S
C887 C892 1.390 . S
C888 C882 1.465 . S
C888 C887 1.396 . S
C888 C889 1.399 . S
C889 H875 0.929 . S
C889 C888 1.399 . S
C889 C890 1.385 . S
C890 H876 0.931 . S
C890 C889 1.385 . S
C890 C891 1.389 . S
C891 C890 1.389 . S
C891 C892 1.387 . S
C892 H877 0.930 . S
C892 C887 1.390 . S
C892 C891 1.387 . S
H893 C905 0.930 . S
H894 C907 0.930 . S
H895 C908 0.930 . S
H896 C912 0.959 . S
H897 C912 0.959 . S
H898 C912 0.961 . S
H899 C913 0.960 . S
H900 C913 0.961 . S
H901 C913 0.959 . S
H902 C916 0.929 . S
H903 C917 0.931 . S
H904 C919 0.930 . S
C905 H893 0.930 . S
C905 C906 1.399 . S
C905 C910 1.399 . S
C906 C905 1.399 . S
C906 C907 1.376 . S
C907 H894 0.930 . S
C907 C906 1.376 . S
C907 C908 1.388 . S
C908 H895 0.930 . S
C908 C907 1.388 . S
C908 C909 1.390 . S
C909 C908 1.390 . S
C909 C910 1.394 . S
C909 C915 1.465 . S
C910 C905 1.399 . S
C910 C909 1.394 . S
C910 C911 1.516 . S
C911 C910 1.516 . S
C911 C912 1.502 . S
C911 C913 1.561 . S
C911 C914 1.526 . S
C912 H896 0.959 . S
C912 H897 0.959 . S
C912 H898 0.961 . S
C912 C911 1.502 . S
C913 H899 0.960 . S
C913 H900 0.961 . S
C913 H901 0.959 . S
C913 C911 1.561 . S
C914 C911 1.526 . S
C914 C915 1.396 . S
C914 C919 1.390 . S
C915 C909 1.465 . S
C915 C914 1.396 . S
C915 C916 1.399 . S
C916 H902 0.929 . S
C916 C915 1.399 . S
C916 C917 1.385 . S
C917 H903 0.931 . S
C917 C916 1.385 . S
C917 C918 1.389 . S
C918 C917 1.389 . S
C918 C919 1.387 . S
C919 H904 0.930 . S
C919 C914 1.390 . S
C919 C918 1.387 . S
C285 C6 2.423 . S
C297 C168 2.440 . S
C312 C21 1.622 . S
C324 N188 1.623 . S
C351 C222 1.385 . S
C339 C49 1.299 . S
C366 C68 0.895 . S
C378 N256 1.114 . S
C405 C209 3.044 . S
C393 C2 3.007 . S
C432 N166 0.926 . S
C420 C30 0.849 . S
C459 C243 1.717 . S
C447 C40 1.735 . S
C486 N218 0.937 . S
C474 C63 0.930 . S
C501 C11 1.544 . S
C513 C258 1.852 . S
C540 C192 1.817 . S
C528 C44 1.791 . S
C555 C59 1.009 . S
C567 C153 1.011 . S
C582 C25 1.731 . S
C594 C239 1.744 . S
C621 C179 2.620 . S
C609 C82 2.595 . S
C636 C101 1.312 . S
C648 N196 1.273 . S
C663 C125 1.769 . S
C675 C213 1.811 . S
C690 C144 0.862 . S
C702 N248 0.798 . S
C717 C87 1.872 . S
C729 C198 2.052 . S
C756 N158 1.757 . S
C744 C97 1.716 . S
C783 C252 1.733 . S
C771 C120 1.753 . S
C810 N226 0.966 . S
C798 C135 0.976 . S
C825 C78 2.129 . S
C837 C269 2.153 1_556 S
C864 C183 1.312 . S
C852 C116 1.278 . S
C891 C162 1.561 . S
C879 C139 1.572 . S
C906 C106 1.331 . S
C918 C228 1.446 . S
