# Generated by pormake.
# Topology zzz, (3,6)-cn, num edge types: 1
# Building blocks:
#     Node 0, Type 0, BuildingBlock: PAMTOO_clean_linker_0, # of connection points: 3
#     Node 1, Type 0, BuildingBlock: PAMTOO_clean_linker_0, # of connection points: 3
#     Node 2, Type 0, BuildingBlock: PAMTOO_clean_linker_0, # of connection points: 3
#     Node 3, Type 0, BuildingBlock: PAMTOO_clean_linker_0, # of connection points: 3
#     Node 4, Type 0, BuildingBlock: PAMTOO_clean_linker_0, # of connection points: 3
#     Node 5, Type 0, BuildingBlock: PAMTOO_clean_linker_0, # of connection points: 3
#     Node 6, Type 0, BuildingBlock: PAMTOO_clean_linker_0, # of connection points: 3
#     Node 7, Type 0, BuildingBlock: PAMTOO_clean_linker_0, # of connection points: 3
#     Node 8, Type 1, BuildingBlock: NUHQIS_clean_sbu_0, # of connection points: 6
#     Node 9, Type 1, BuildingBlock: NUHQIS_clean_sbu_0, # of connection points: 6
#     Node 10, Type 1, BuildingBlock: NUHQIS_clean_sbu_0, # of connection points: 6
#     Node 11, Type 1, BuildingBlock: NUHQIS_clean_sbu_0, # of connection points: 6
#     Edge 12, Type (0, 1), BuildingBlock: TEMPAE_clean_linker_10, # of connection points: 2
#     Edge 13, Type (0, 1), BuildingBlock: TEMPAE_clean_linker_10, # of connection points: 2
#     Edge 14, Type (0, 1), BuildingBlock: TEMPAE_clean_linker_10, # of connection points: 2
#     Edge 15, Type (0, 1), BuildingBlock: TEMPAE_clean_linker_10, # of connection points: 2
#     Edge 16, Type (0, 1), BuildingBlock: TEMPAE_clean_linker_10, # of connection points: 2
#     Edge 17, Type (0, 1), BuildingBlock: TEMPAE_clean_linker_10, # of connection points: 2
#     Edge 18, Type (0, 1), BuildingBlock: TEMPAE_clean_linker_10, # of connection points: 2
#     Edge 19, Type (0, 1), BuildingBlock: TEMPAE_clean_linker_10, # of connection points: 2
#     Edge 20, Type (0, 1), BuildingBlock: TEMPAE_clean_linker_10, # of connection points: 2
#     Edge 21, Type (0, 1), BuildingBlock: TEMPAE_clean_linker_10, # of connection points: 2
#     Edge 22, Type (0, 1), BuildingBlock: TEMPAE_clean_linker_10, # of connection points: 2
#     Edge 23, Type (0, 1), BuildingBlock: TEMPAE_clean_linker_10, # of connection points: 2
#     Edge 24, Type (0, 1), BuildingBlock: TEMPAE_clean_linker_10, # of connection points: 2
#     Edge 25, Type (0, 1), BuildingBlock: TEMPAE_clean_linker_10, # of connection points: 2
#     Edge 26, Type (0, 1), BuildingBlock: TEMPAE_clean_linker_10, # of connection points: 2
#     Edge 27, Type (0, 1), BuildingBlock: TEMPAE_clean_linker_10, # of connection points: 2
#     Edge 28, Type (0, 1), BuildingBlock: TEMPAE_clean_linker_10, # of connection points: 2
#     Edge 29, Type (0, 1), BuildingBlock: TEMPAE_clean_linker_10, # of connection points: 2
#     Edge 30, Type (0, 1), BuildingBlock: TEMPAE_clean_linker_10, # of connection points: 2
#     Edge 31, Type (0, 1), BuildingBlock: TEMPAE_clean_linker_10, # of connection points: 2
#     Edge 32, Type (0, 1), BuildingBlock: TEMPAE_clean_linker_10, # of connection points: 2
#     Edge 33, Type (0, 1), BuildingBlock: TEMPAE_clean_linker_10, # of connection points: 2
#     Edge 34, Type (0, 1), BuildingBlock: TEMPAE_clean_linker_10, # of connection points: 2
#     Edge 35, Type (0, 1), BuildingBlock: TEMPAE_clean_linker_10, # of connection points: 2
# Relax obj value: 0.249
# Max RMSD: 0.156
# Mean RMSD: 0.136
data_MOF--net-zzz--node1-NUHQIS_clean_sbu_0--node2-PAMTOO_clean_linker_0--edge1-TEMPAE_clean_linker_10
_symmetry_space_group_name_H-M    P1
_symmetry_Int_Tables_number       1
_symmetry_cell_setting            triclinic
loop_
_symmetry_equiv_pos_as_xyz
'x, y, z'
_cell_length_a     52.669346
_cell_length_b     52.646846
_cell_length_c     14.153485
_cell_angle_alpha  89.63797
_cell_angle_beta   90.002245
_cell_angle_gamma 89.831034
loop_
_atom_site_label
_atom_site_type_symbol
_atom_site_fract_x
_atom_site_fract_y
_atom_site_fract_z
_atom_type_partial_charge
H0 H 0.81857 0.48692 0.27251 0.0
H1 H 0.74398 0.49127 0.15113 0.0
H2 H 0.75803 0.52264 0.42725 0.0
H3 H 0.72737 0.54676 0.21388 0.0
C4 C 0.71266 0.53617 0.25466 0.0
O5 O 0.72297 0.51418 0.29383 0.0
H6 H 0.70644 0.54877 0.3129 0.0
C7 C 0.79888 0.4929 0.27769 0.0
C8 C 0.79063 0.50503 0.3599 0.0
C9 C 0.78247 0.48815 0.20193 0.0
C10 C 0.75692 0.49522 0.20868 0.0
C11 C 0.74804 0.50798 0.28898 0.0
C12 C 0.76497 0.51314 0.3647 0.0
H13 H 0.06465 0.81412 0.35431 0.0
H14 H 0.05122 0.74435 0.20796 0.0
H15 H 0.99713 0.77096 0.41348 0.0
H16 H 0.99691 0.70532 0.38124 0.0
C17 C 1.01263 0.70946 0.33123 0.0
O18 O 1.00884 0.73356 0.29298 0.0
H19 H 0.03056 0.70887 0.37301 0.0
C20 C 0.05332 0.79714 0.34505 0.0
C21 C 0.02999 0.79518 0.39217 0.0
C22 C 0.06097 0.77921 0.27809 0.0
C23 C 0.04596 0.75776 0.26239 0.0
C24 C 0.02351 0.75405 0.31378 0.0
C25 C 1.01531 0.77294 0.37853 0.0
H26 H 0.71036 0.05938 0.30682 0.0
H27 H 0.78332 0.04274 0.18998 0.0
H28 H 0.76016 1.00656 0.45022 0.0
H29 H 0.82626 1.00762 0.41272 0.0
C30 C 0.81989 0.01964 0.35245 0.0
O31 O 0.79687 1.01028 0.31987 0.0
H32 H 0.81742 0.03929 0.37999 0.0
C33 C 0.7285 0.04984 0.31423 0.0
C34 C 0.73268 0.03311 0.39041 0.0
C35 C 0.74663 0.05364 0.24336 0.0
C36 C 0.76956 0.04037 0.24629 0.0
C37 C 0.77471 0.02364 0.32125 0.0
C38 C 0.75623 0.01985 0.39336 0.0
H39 H 0.55509 0.71498 0.36088 0.0
H40 H 0.55058 0.7892 0.23458 0.0
H41 H 0.51206 0.77357 0.49727 0.0
H42 H 0.4863 0.82002 0.36838 0.0
C43 C 0.50234 0.81802 0.31793 0.0
O44 O 0.52347 0.80953 0.36794 0.0
H45 H 0.49638 0.80376 0.26457 0.0
C46 C 0.54929 0.73474 0.36432 0.0
C47 C 0.53368 0.74215 0.43898 0.0
C48 C 0.55464 0.75115 0.2885 0.0
C49 C 0.54654 0.77645 0.29286 0.0
C50 C 0.53148 0.78488 0.36813 0.0
C51 C 0.52449 0.76748 0.44081 0.0
H52 H 0.20167 0.54543 0.20763 0.0
H53 H 0.27518 0.53929 0.33689 0.0
H54 H 0.2617 0.50574 0.06398 0.0
H55 H 0.30686 0.4772 0.1944 0.0
C56 C 0.30534 0.49284 0.24649 0.0
O57 O 0.29632 0.51428 0.19948 0.0
H58 H 0.29174 0.48662 0.30223 0.0
C59 C 0.22113 0.53862 0.20543 0.0
C60 C 0.22945 0.52529 0.12599 0.0
C61 C 0.23721 0.54335 0.28217 0.0
C62 C 0.26254 0.53538 0.27843 0.0
C63 C 0.27149 0.52156 0.20072 0.0
C64 C 0.25481 0.5162 0.12443 0.0
H65 H 0.97948 0.20965 0.21005 0.0
H66 H 0.98214 0.28374 0.33474 0.0
H67 H 1.01543 0.27114 0.0601 0.0
H68 H 0.04231 0.31746 0.18679 0.0
C69 C 0.02687 0.31564 0.2399 0.0
O70 O 1.0057 0.30569 0.19485 0.0
H71 H 0.03372 0.30248 0.29635 0.0
C72 C 0.98526 0.22941 0.20626 0.0
C73 C 0.99782 0.23813 0.12533 0.0
C74 C 0.97995 0.24545 0.2824 0.0
C75 C 0.98655 0.27113 0.27675 0.0
C76 C 0.99963 0.28054 0.19762 0.0
C77 C 1.00557 0.26391 0.12172 0.0
H78 H 0.31754 0.98431 0.21758 0.0
H79 H 0.24355 0.98816 0.34413 0.0
H80 H 0.25653 0.02173 0.06933 0.0
H81 H 0.21025 0.04897 0.19574 0.0
C82 C 0.21215 0.03356 0.24933 0.0
O83 O 0.2219 1.01225 0.2045 0.0
H84 H 0.22546 0.04037 0.30474 0.0
C85 C 0.29786 0.99045 0.21429 0.0
C86 C 0.2893 1.00338 0.13367 0.0
C87 C 0.28178 0.98531 0.29088 0.0
C88 C 0.2562 0.9924 0.28581 0.0
C89 C 0.24696 1.00578 0.20686 0.0
C90 C 0.26364 1.01159 0.1307 0.0
H91 H 0.56494 0.30706 0.13135 0.0
H92 H 0.55381 0.23512 0.26691 0.0
H93 H 0.50314 0.25918 0.04381 0.0
H94 H 0.47812 0.21837 0.2025 0.0
C95 C 0.4973 0.21651 0.23466 0.0
O96 O 0.51517 0.22136 0.16463 0.0
H97 H 0.49855 0.23085 0.29197 0.0
C98 C 0.55478 0.2892 0.13489 0.0
C99 C 0.53362 0.28551 0.07646 0.0
C100 C 0.562 0.27133 0.20343 0.0
C101 C 0.54845 0.24873 0.2128 0.0
C102 C 0.5274 0.244 0.15501 0.0
C103 C 0.51961 0.26265 0.08759 0.0
Tb104 Tb 0.02813 1.00905 0.85136 0.0
Eu105 Eu 0.99059 0.02346 0.6782 0.0
C106 C 0.05048 0.01819 0.64556 0.0
C107 C 1.01185 0.0665 0.81973 0.0
C108 C 0.07804 0.97699 0.9928 0.0
C109 C 0.10453 0.95239 0.09926 0.0
C110 C 0.0908 0.97448 0.07903 0.0
C111 C 0.08125 0.95844 0.92303 0.0
C112 C 0.09494 0.93629 0.9432 0.0
C113 C 0.10545 0.93248 0.03348 0.0
C114 C 0.05849 0.99665 0.98217 0.0
O115 O 0.98958 1.00238 0.90642 0.0
O116 O 0.96769 0.02964 0.81055 0.0
O117 O 0.98944 0.98056 0.69054 0.0
O118 O 0.0277 0.9747 0.76383 0.0
C119 C 0.96905 1.01585 0.88777 0.0
O120 O 0.95351 0.01913 0.61189 0.0
O121 O 0.98191 0.04318 0.54609 0.0
O122 O 0.02806 1.01364 0.60864 0.0
O123 O 0.05285 0.02237 0.73672 0.0
O124 O 0.01678 0.04827 0.88129 0.0
O125 O 1.00591 0.06111 0.73172 0.0
C126 C 1.00853 0.96574 0.7146 0.0
O127 O 0.06298 1.01466 0.92112 0.0
O128 O 0.03545 0.98804 0.97442 0.0
C129 C 0.93992 0.0578 0.54352 0.0
C130 C 0.91493 0.10521 0.54159 0.0
C131 C 0.91564 0.09043 0.62469 0.0
C132 C 0.92824 0.06702 0.62584 0.0
C133 C 0.93728 0.07131 0.45886 0.0
C134 C 0.925 0.09479 0.45779 0.0
C135 C 0.95804 0.03657 0.54825 0.0
H136 H 0.11263 0.94998 0.16914 0.0
H137 H 0.08861 0.98877 0.13308 0.0
H138 H 0.07158 0.96018 0.85576 0.0
H139 H 0.09515 0.92121 0.89147 0.0
H140 H 0.90779 0.09757 0.69008 0.0
H141 H 0.93008 0.05688 0.69232 0.0
H142 H 0.9463 0.06458 0.39487 0.0
H143 H 0.92536 0.10558 0.39245 0.0
Tb144 Tb 0.51764 0.03341 0.84774 0.0
Eu145 Eu 0.50219 0.9954 0.67638 0.0
C146 C 0.50909 0.05491 0.63707 0.0
C147 C 0.46009 0.01783 0.81885 0.0
C148 C 0.54994 0.0842 0.97472 0.0
C149 C 0.5773 0.11101 0.06824 0.0
C150 C 0.55432 0.09818 0.05675 0.0
C151 C 0.56741 0.08542 0.9001 0.0
C152 C 0.59054 0.0978 0.91205 0.0
C153 C 0.59639 0.10935 0.99867 0.0
C154 C 0.5296 0.06531 0.97254 0.0
O155 O 0.52431 0.99536 0.90762 0.0
O156 O 0.49797 0.9728 0.81159 0.0
O157 O 0.54513 0.9964 0.67112 0.0
O158 O 0.55329 0.03031 0.76843 0.0
C159 C 0.51144 0.97458 0.88917 0.0
O160 O 0.50568 0.95777 0.61424 0.0
O161 O 0.48103 0.98597 0.54907 0.0
O162 O 0.51146 0.03211 0.60103 0.0
O163 O 0.50657 0.05811 0.72884 0.0
O164 O 0.47851 0.02217 0.87947 0.0
O165 O 0.4652 1.01221 0.7304 0.0
C166 C 0.56082 1.01323 0.70676 0.0
O167 O 0.51175 0.06911 0.9105 0.0
O168 O 0.53754 0.04188 0.97169 0.0
C169 C 0.4664 0.94408 0.55316 0.0
C170 C 0.41924 0.91894 0.55865 0.0
C171 C 0.43418 0.92073 0.64072 0.0
C172 C 0.45749 0.93337 0.63812 0.0
C173 C 0.45263 0.94056 0.47003 0.0
C174 C 0.42931 0.92816 0.47257 0.0
C175 C 0.48765 0.96206 0.55286 0.0
H176 H 0.58098 0.12031 0.13488 0.0
H177 H 0.54082 0.09769 0.11437 0.0
H178 H 0.56411 0.07504 0.83554 0.0
H179 H 0.60469 0.09604 0.85692 0.0
H180 H 0.42726 0.91364 0.70789 0.0
H181 H 0.46781 0.93599 0.7035 0.0
H182 H 0.45908 0.94892 0.40414 0.0
H183 H 0.41836 0.92775 0.40788 0.0
Tb184 Tb 0.49479 0.51853 0.82498 0.0
Eu185 Eu 0.52964 0.5044 0.64551 0.0
C186 C 0.46954 0.50827 0.62795 0.0
C187 C 0.50983 0.46064 0.78884 0.0
C188 C 0.47124 0.5578 0.01008 0.0
C189 C 0.47393 0.60326 0.98252 0.0
C190 C 0.4637 0.57973 0.95986 0.0
C191 C 0.4863 0.5605 0.09146 0.0
C192 C 0.49647 0.58415 0.11422 0.0
C193 C 0.4915 0.60526 0.05619 0.0
C194 C 0.46927 0.5327 0.96486 0.0
O195 O 0.53356 0.53016 0.86105 0.0
O196 O 0.55372 0.49973 0.77651 0.0
O197 O 0.53032 0.54738 0.64701 0.0
O198 O 0.49823 0.55549 0.75265 0.0
C199 C 0.5537 0.51591 0.84643 0.0
O200 O 0.5663 0.50742 0.57504 0.0
O201 O 0.53574 0.48633 0.50951 0.0
O202 O 0.49099 0.51475 0.58744 0.0
O203 O 0.46908 0.50264 0.71869 0.0
O204 O 0.50463 0.47858 0.85036 0.0
O205 O 0.51572 0.46624 0.70072 0.0
C206 C 0.51475 0.56332 0.68888 0.0
O207 O 0.4604 0.53265 0.87879 0.0
O208 O 0.48954 0.51853 0.9721 0.0
C209 C 0.57692 0.47056 0.49172 0.0
C210 C 0.60201 0.42491 0.45046 0.0
C211 C 0.60062 0.4445 0.38251 0.0
C212 C 0.58797 0.46713 0.40292 0.0
C213 C 0.58016 0.45203 0.56238 0.0
C214 C 0.59268 0.42933 0.54193 0.0
C215 C 0.55984 0.49204 0.50734 0.0
H216 H 0.46929 0.61959 0.93902 0.0
H217 H 0.45176 0.57849 0.89776 0.0
H218 H 0.49219 0.54398 0.13201 0.0
H219 H 0.50978 0.58551 0.17234 0.0
H220 H 0.60779 0.44161 0.31163 0.0
H221 H 0.58556 0.48133 0.34792 0.0
H222 H 0.57166 0.45449 0.63149 0.0
H223 H 0.59317 0.41448 0.59528 0.0
Tb224 Tb 1.00127 0.5012 0.83351 0.0
Eu225 Eu 0.01796 0.5381 0.65848 0.0
C226 C 1.01051 0.4784 0.62704 0.0
C227 C 0.0591 0.51571 0.80667 0.0
C228 C 0.9676 0.45055 0.95802 0.0
C229 C 0.93646 0.42661 0.86837 0.0
C230 C 0.95922 0.44023 0.87219 0.0
C231 C 0.95406 0.44552 0.04079 0.0
C232 C 0.93122 0.43227 0.03696 0.0
C233 C 0.92146 0.42356 0.94998 0.0
C234 C 0.98735 0.47014 0.95937 0.0
O235 O 0.99628 0.53952 0.89143 0.0
O236 O 0.02182 0.56184 0.79017 0.0
O237 O 0.97512 0.53843 0.65336 0.0
O238 O 0.96628 0.50432 0.75022 0.0
C239 C 1.0089 0.56027 0.86926 0.0
O240 O 1.01471 0.57502 0.58903 0.0
O241 O 0.04016 0.54649 0.53207 0.0
O242 O 1.00794 0.50098 0.58811 0.0
O243 O 1.01325 0.47584 0.7191 0.0
O244 O 0.04041 0.51187 0.86682 0.0
O245 O 0.05443 0.52115 0.71744 0.0
C246 C 0.95913 0.52177 0.68861 0.0
O247 O 1.00698 0.4665 0.90511 0.0
O248 O 0.9787 0.49325 0.95197 0.0
C249 C 0.05432 0.58858 0.53068 0.0
C250 C 0.10131 0.61395 0.5372 0.0
C251 C 0.08615 0.612 0.61872 0.0
C252 C 0.06296 0.59919 0.61566 0.0
C253 C 0.06811 0.59255 0.4477 0.0
C254 C 0.09139 0.60505 0.45078 0.0
C255 C 0.03329 0.57035 0.53064 0.0
H256 H 0.92996 0.41983 0.80053 0.0
H257 H 0.96942 0.44402 0.80715 0.0
H258 H 0.96013 0.45353 0.10743 0.0
H259 H 0.92031 0.43092 0.10157 0.0
H260 H 0.09286 0.61897 0.68603 0.0
H261 H 0.05254 0.59633 0.68079 0.0
H262 H 0.06177 0.58443 0.38163 0.0
H263 H 0.10244 0.60568 0.38635 0.0
C264 C 0.18131 1.00571 0.34429 0.0
C265 C 0.18654 0.02862 0.29673 0.0
C266 C 0.15876 1.00254 0.39737 0.0
C267 C 0.14114 0.0229 0.40511 0.0
C268 C 0.14631 0.04597 0.35664 0.0
C269 C 0.16885 0.04854 0.3037 0.0
C270 C 0.1541 0.97757 0.44717 0.0
C271 C 0.12837 0.06831 0.36301 0.0
C272 C 0.07257 1.0119 0.48826 0.0
C273 C 0.07365 0.01899 0.5838 0.0
C274 C 0.09437 1.01255 0.43001 0.0
C275 C 0.11797 0.0207 0.46734 0.0
C276 C 0.1192 0.02772 0.56383 0.0
C277 C 0.09719 0.02669 0.62061 0.0
C278 C 0.0921 1.00464 0.32814 0.0
C279 C 0.14377 0.03667 0.60707 0.0
H280 H 0.19505 0.99039 0.34135 0.0
H281 H 0.17297 0.0665 0.26922 0.0
H282 H 0.15409 0.98047 0.52474 0.0
H283 H 0.13516 0.97005 0.42771 0.0
H284 H 0.16874 0.9631 0.42973 0.0
H285 H 0.13454 0.08457 0.31826 0.0
H286 H 0.10901 0.0626 0.34094 0.0
H287 H 0.1271 0.07477 0.43734 0.0
H288 H 0.05464 1.00573 0.45877 0.0
H289 H 0.09845 0.03219 0.69411 0.0
H290 H 0.1059 0.98925 0.31272 0.0
H291 H 0.0968 0.0209 0.28112 0.0
H292 H 0.07272 0.99787 0.31044 0.0
H293 H 0.15873 0.02199 0.59832 0.0
H294 H 0.1418 0.04093 0.68351 0.0
H295 H 0.15038 0.05407 0.57 0.0
C296 C 0.47903 0.17584 0.30353 0.0
C297 C 0.50056 0.19024 0.27987 0.0
C298 C 0.48096 0.15314 0.35658 0.0
C299 C 0.50503 0.14451 0.38843 0.0
C300 C 0.52694 0.15869 0.36327 0.0
C301 C 0.52443 0.18137 0.30997 0.0
C302 C 0.45704 0.13881 0.38113 0.0
C303 C 0.553 0.15031 0.39514 0.0
C304 C 0.50589 0.10233 0.61032 0.0
C305 C 0.50854 0.07777 0.57295 0.0
C306 C 0.50509 0.12405 0.55144 0.0
C307 C 0.507 0.12145 0.45198 0.0
C308 C 0.50999 0.09677 0.41375 0.0
C309 C 0.5107 0.07532 0.47434 0.0
C310 C 0.50196 0.14986 0.5959 0.0
C311 C 0.51224 0.093 0.30851 0.0
H312 H 0.46045 0.18272 0.28235 0.0
H313 H 0.54115 0.19245 0.29362 0.0
H314 H 0.45883 0.11868 0.35934 0.0
H315 H 0.45416 0.13892 0.45879 0.0
H316 H 0.43996 0.14715 0.34678 0.0
H317 H 0.56825 0.16254 0.36561 0.0
H318 H 0.5541 0.15085 0.47339 0.0
H319 H 0.55659 0.1304 0.37351 0.0
H320 H 0.50431 0.10467 0.68611 0.0
H321 H 0.51287 0.05658 0.44412 0.0
H322 H 0.48411 0.15885 0.57062 0.0
H323 H 0.51782 0.16245 0.5743 0.0
H324 H 0.50143 0.14883 0.67429 0.0
H325 H 0.49456 0.09951 0.27311 0.0
H326 H 0.51569 0.07282 0.28974 0.0
H327 H 0.52801 0.10468 0.28013 0.0
C328 C 0.34883 0.47747 0.29849 0.0
C329 C 0.33097 0.49731 0.29392 0.0
C330 C 0.37152 0.47975 0.35059 0.0
C331 C 0.37664 0.5024 0.40067 0.0
C332 C 0.35876 0.52262 0.39592 0.0
C333 C 0.33611 0.51976 0.34346 0.0
C334 C 0.38978 0.45759 0.35377 0.0
C335 C 0.36333 0.54713 0.4478 0.0
C336 C 0.42285 0.49821 0.60986 0.0
C337 C 0.44569 0.50699 0.57017 0.0
C338 C 0.40033 0.49685 0.55601 0.0
C339 C 0.40036 0.50458 0.45975 0.0
C340 C 0.42328 0.51369 0.41951 0.0
C341 C 0.44556 0.51472 0.47483 0.0
C342 C 0.37648 0.48686 0.60209 0.0
C343 C 0.42433 0.52225 0.31759 0.0
H344 H 0.34478 0.45983 0.26247 0.0
H345 H 0.32224 0.53499 0.34233 0.0
H346 H 0.40885 0.46372 0.32961 0.0
H347 H 0.39181 0.45066 0.42758 0.0
H348 H 0.38342 0.44156 0.30902 0.0
H349 H 0.34821 0.56143 0.43393 0.0
H350 H 0.36419 0.54337 0.52495 0.0
H351 H 0.38188 0.5553 0.42662 0.0
H352 H 0.42257 0.4922 0.68322 0.0
H353 H 0.46295 0.52166 0.44306 0.0
H354 H 0.36991 0.46963 0.56467 0.0
H355 H 0.36108 0.50122 0.59664 0.0
H356 H 0.37938 0.482 0.67781 0.0
H357 H 0.41948 0.50618 0.27066 0.0
H358 H 0.44336 0.52954 0.29735 0.0
H359 H 0.41006 0.53743 0.30476 0.0
C360 C 0.99832 0.34745 0.32738 0.0
C361 C 0.02178 0.34141 0.28566 0.0
C362 C 0.99491 0.37021 0.37867 0.0
C363 C 1.01557 0.38718 0.39087 0.0
C364 C 0.03922 0.38114 0.34858 0.0
C365 C 0.042 0.35846 0.29707 0.0
C366 C 0.96932 0.3758 0.42177 0.0
C367 C 0.06192 0.39828 0.36024 0.0
C368 C 1.00569 0.45635 0.469 0.0
C369 C 1.01115 0.45508 0.56624 0.0
C370 C 1.00643 0.43444 0.41167 0.0
C371 C 1.01303 0.41052 0.45173 0.0
C372 C 0.01833 0.40911 0.54992 0.0
C373 C 0.01721 0.43123 0.60565 0.0
C374 C 1.00032 0.43693 0.30781 0.0
C375 C 0.02566 0.38423 0.59614 0.0
H376 H 0.98272 0.3342 0.32122 0.0
H377 H 0.06036 0.35369 0.26727 0.0
H378 H 0.97087 0.37562 0.49994 0.0
H379 H 0.9628 0.39505 0.40036 0.0
H380 H 0.95473 0.36175 0.40057 0.0
H381 H 0.07872 0.39145 0.32018 0.0
H382 H 0.05722 0.41781 0.33596 0.0
H383 H 0.06709 0.39944 0.43609 0.0
H384 H 1.00079 0.47452 0.43742 0.0
H385 H 0.02142 0.4298 0.68045 0.0
H386 H 0.98491 0.42359 0.28866 0.0
H387 H 0.01721 0.43172 0.26522 0.0
H388 H 0.99437 0.45651 0.28801 0.0
H389 H 1.01071 0.36983 0.58383 0.0
H390 H 0.02861 0.38609 0.6735 0.0
H391 H 0.04344 0.37692 0.56403 0.0
C392 C 0.8604 0.03724 0.28144 0.0
C393 C 0.84064 0.01942 0.27691 0.0
C394 C 0.88113 0.03649 0.21842 0.0
C395 C 0.88249 0.01726 0.14886 0.0
C396 C 0.86264 0.99909 0.14413 0.0
C397 C 0.84215 1.00023 0.20856 0.0
C398 C 0.90179 0.05616 0.22725 0.0
C399 C 0.86318 0.97827 0.07139 0.0
C400 C 0.92467 0.02948 0.93266 0.0
C401 C 0.94688 1.01573 0.95456 0.0
C402 C 0.90365 0.02991 0.9944 0.0
C403 C 0.90459 0.0163 0.0811 0.0
C404 C 0.92689 1.0023 0.10365 0.0
C405 C 0.94766 1.00214 0.04035 0.0
C406 C 0.88044 0.04514 0.96698 0.0
C407 C 0.9289 0.98761 0.19526 0.0
H408 H 0.85979 0.05172 0.33552 0.0
H409 H 0.82739 0.98596 0.20589 0.0
H410 H 0.92008 0.04671 0.24447 0.0
H411 H 0.90436 0.06631 0.15901 0.0
H412 H 0.89756 0.07035 0.28287 0.0
H413 H 0.8462 0.96585 0.07564 0.0
H414 H 0.8642 0.98666 0.99938 0.0
H415 H 0.88041 0.96638 0.08129 0.0
H416 H 0.92365 0.04008 0.8669 0.0
H417 H 0.96461 0.99146 0.05851 0.0
H418 H 0.87691 0.06016 0.02008 0.0
H419 H 0.86348 0.03269 0.96623 0.0
H420 H 0.88241 0.05427 0.89638 0.0
H421 H 0.9271 1.00077 0.25582 0.0
H422 H 0.9472 0.9772 0.2017 0.0
H423 H 0.91313 0.97375 0.20078 0.0
C424 C 0.52493 0.84451 0.19217 0.0
C425 C 0.50724 0.84311 0.2662 0.0
C426 C 0.5272 0.86654 0.13534 0.0
C427 C 0.51116 0.88779 0.15165 0.0
C428 C 0.49368 0.8867 0.22787 0.0
C429 C 0.49201 0.86452 0.28413 0.0
C430 C 0.54614 0.8667 0.05537 0.0
C431 C 0.47609 0.90868 0.2482 0.0
C432 C 0.52708 0.95242 0.03826 0.0
C433 C 0.51157 0.95259 0.95738 0.0
C434 C 0.52722 0.93158 0.1019 0.0
C435 C 0.51138 0.9103 0.08508 0.0
C436 C 0.4956 0.91047 1.0039 0.0
C437 C 0.49593 0.93143 0.94141 0.0
C438 C 0.54442 0.93227 0.18706 0.0
C439 C 0.47819 0.88847 0.98297 0.0
H440 H 0.53647 0.82804 0.17658 0.0
H441 H 0.47812 0.86362 0.34054 0.0
H442 H 0.53594 0.8673 0.98681 0.0
H443 H 0.55817 0.88393 0.05888 0.0
H444 H 0.55864 0.84966 0.05657 0.0
H445 H 0.46305 0.90457 0.30797 0.0
H446 H 0.48735 0.92582 0.26531 0.0
H447 H 0.46455 0.91327 0.18473 0.0
H448 H 0.53926 0.96855 0.05176 0.0
H449 H 0.48373 0.9312 0.87978 0.0
H450 H 0.55756 0.91576 0.18607 0.0
H451 H 0.53298 0.93075 0.25264 0.0
H452 H 0.55581 0.94998 0.18993 0.0
H453 H 0.48945 0.87077 0.97522 0.0
H454 H 0.46694 0.89153 0.91746 0.0
H455 H 0.46488 0.8855 0.04278 0.0
C456 C 0.68694 0.54338 0.10496 0.0
C457 C 0.68979 0.53064 0.19186 0.0
C458 C 0.66485 0.54066 0.04969 0.0
C459 C 0.6448 0.52489 0.0818 0.0
C460 C 0.64763 0.51184 0.1693 0.0
C461 C 0.66994 0.51502 0.22345 0.0
C462 C 0.6628 0.55504 0.95736 0.0
C463 C 0.62694 0.49475 0.20641 0.0
C464 C 0.57829 0.53666 0.97884 0.0
C465 C 0.57671 0.51807 0.90827 0.0
C466 C 0.60011 0.53893 0.03625 0.0
C467 C 0.62098 0.52214 0.02369 0.0
C468 C 0.61933 0.50314 0.9534 0.0
C469 C 0.59738 0.50139 0.89671 0.0
C470 C 0.60094 0.55954 0.10981 0.0
C471 C 0.64091 0.48472 0.93744 0.0
H472 H 0.70194 0.55588 0.08069 0.0
H473 H 0.67173 0.50553 0.29132 0.0
H474 H 0.65958 0.5416 0.89852 0.0
H475 H 0.64624 0.5681 0.95945 0.0
H476 H 0.68011 0.56631 0.94164 0.0
H477 H 0.63219 0.48567 0.27473 0.0
H478 H 0.60922 0.50586 0.21635 0.0
H479 H 0.62276 0.47964 0.15442 0.0
H480 H 0.56253 0.54965 0.98881 0.0
H481 H 0.59648 0.48685 0.84298 0.0
H482 H 0.61693 0.57263 0.09467 0.0
H483 H 0.60438 0.55108 0.18065 0.0
H484 H 0.58306 0.57078 0.11221 0.0
H485 H 0.65822 0.49524 0.91603 0.0
H486 H 0.63645 0.47056 0.88205 0.0
H487 H 0.64542 0.47446 1.00409 0.0
C488 C 0.9935 0.687 0.18852 0.0
C489 C 1.01303 0.68885 0.25562 0.0
C490 C 0.99245 0.66652 0.12444 0.0
C491 C 1.01121 0.6471 0.12781 0.0
C492 C 0.03099 0.64892 0.19551 0.0
C493 C 0.0316 0.66962 0.25836 0.0
C494 C 0.97099 0.66547 0.05396 0.0
C495 C 0.05135 0.62875 0.2027 0.0
C496 C 0.99657 0.58152 0.02315 0.0
C497 C 1.00907 0.58251 0.93542 0.0
C498 C 0.99699 0.60232 0.08591 0.0
C499 C 1.01018 0.62487 0.06096 0.0
C500 C 0.02274 0.62601 0.97241 0.0
C501 C 0.02205 0.60496 0.91118 0.0
C502 C 0.9834 0.60008 0.17946 0.0
C503 C 0.03708 0.64949 0.94235 0.0
H504 H 0.97878 0.70144 0.18715 0.0
H505 H 0.04649 0.67055 0.31107 0.0
H506 H 0.97871 0.66449 0.98113 0.0
H507 H 0.95964 0.64803 0.0659 0.0
H508 H 0.95819 0.68222 0.05882 0.0
H509 H 0.0657 0.63313 0.25776 0.0
H510 H 0.04262 0.61013 0.21977 0.0
H511 H 0.06119 0.62674 0.13382 0.0
H512 H 0.9865 0.5644 0.04324 0.0
H513 H 0.03181 0.60617 0.84393 0.0
H514 H 0.96913 0.61551 0.1861 0.0
H515 H 0.99715 0.60231 0.23819 0.0
H516 H 0.97364 0.58153 0.188 0.0
H517 H 0.02417 0.66618 0.94205 0.0
H518 H 0.04561 0.64757 0.87095 0.0
H519 H 0.05246 0.65345 0.99373 0.0
C520 C 0.97679 0.21141 0.40251 0.0
C521 C 0.96743 0.23438 0.36648 0.0
C522 C 0.96168 0.19584 0.45921 0.0
C523 C 0.93684 0.20405 0.48391 0.0
C524 C 0.92893 0.22902 0.4599 0.0
C525 C 0.94423 0.24387 0.39975 0.0
C526 C 0.97146 0.1695 0.48323 0.0
C527 C 0.90373 0.23964 0.49147 0.0
C528 C 0.89979 0.14501 0.46207 0.0
C529 C 0.9085 0.13279 0.54427 0.0
C530 C 0.9052 0.1707 0.44593 0.0
C531 C 0.91843 0.18447 0.51598 0.0
C532 C 0.92093 0.17394 0.60748 0.0
C533 C 0.91668 0.14783 0.62027 0.0
C534 C 0.90041 0.18173 0.34884 0.0
C535 C 0.93159 0.18923 0.68782 0.0
H536 H 0.99516 0.20457 0.37891 0.0
H537 H 0.9372 0.26197 0.37364 0.0
H538 H 0.97172 0.16661 0.56079 0.0
H539 H 0.95883 0.1549 0.4523 0.0
H540 H 0.991 0.16615 0.45642 0.0
H541 H 0.90637 0.25923 0.5184 0.0
H542 H 0.89071 0.24104 0.43 0.0
H543 H 0.89469 0.22796 0.54756 0.0
H544 H 0.89168 0.13384 0.40556 0.0
H545 H 0.92251 0.13907 0.68627 0.0
H546 H 0.91876 0.18478 0.31191 0.0
H547 H 0.89077 0.20038 0.35471 0.0
H548 H 0.88847 0.16911 0.30474 0.0
H549 H 0.95248 0.18678 0.69084 0.0
H550 H 0.92366 0.1826 0.75636 0.0
H551 H 0.92734 0.20977 0.67855 0.0
C552 C 0.31593 0.98112 0.40964 0.0
C553 C 0.29265 0.97253 0.37506 0.0
C554 C 0.33083 0.96581 0.46842 0.0
C555 C 0.32163 0.9416 0.49688 0.0
C556 C 0.29645 0.93455 0.47358 0.0
C557 C 0.28229 0.95 0.41132 0.0
C558 C 0.35744 0.97471 0.49137 0.0
C559 C 0.28479 0.91014 0.5087 0.0
C560 C 0.37959 0.9026 0.48382 0.0
C561 C 0.39178 0.91236 0.56383 0.0
C562 C 0.354 0.90822 0.46652 0.0
C563 C 0.34033 0.92276 0.53338 0.0
C564 C 0.35067 0.92614 0.62445 0.0
C565 C 0.3767 0.92164 0.63821 0.0
C566 C 0.34305 0.90229 0.37064 0.0
C567 C 0.33534 0.93812 0.70228 0.0
H568 H 0.32345 0.99904 0.38398 0.0
H569 H 0.26394 0.94359 0.38641 0.0
H570 H 0.36005 0.97582 0.56887 0.0
H571 H 0.37164 0.96108 0.46338 0.0
H572 H 0.36164 0.99374 0.46095 0.0
H573 H 0.28276 0.89675 0.44895 0.0
H574 H 0.2961 0.90093 0.56557 0.0
H575 H 0.26537 0.91395 0.53586 0.0
H576 H 0.39078 0.89362 0.42902 0.0
H577 H 0.38542 0.92823 0.70286 0.0
H578 H 0.3406 0.92015 0.32941 0.0
H579 H 0.32414 0.89338 0.37853 0.0
H580 H 0.35545 0.88928 0.32967 0.0
H581 H 0.33828 0.95896 0.70164 0.0
H582 H 0.34155 0.93076 0.7723 0.0
H583 H 0.31475 0.93437 0.69312 0.0
C584 C 0.5713 0.28765 0.36155 0.0
C585 C 0.58067 0.27932 0.27462 0.0
C586 C 0.58332 0.30751 0.40917 0.0
C587 C 0.60533 0.3186 0.36883 0.0
C588 C 0.6177 0.30628 0.29313 0.0
C589 C 0.60488 0.28694 0.24515 0.0
C590 C 0.56974 0.31959 0.49147 0.0
C591 C 0.6422 0.31633 0.25287 0.0
C592 C 0.5956 0.38912 0.34104 0.0
C593 C 0.60783 0.39861 0.42105 0.0
C594 C 0.59592 0.36324 0.32086 0.0
C595 C 0.60922 0.34628 0.38166 0.0
C596 C 0.62326 0.35593 0.45872 0.0
C597 C 0.6222 0.3821 0.47817 0.0
C598 C 0.58045 0.35402 0.23778 0.0
C599 C 0.63898 0.33869 0.5212 0.0
H600 H 0.55265 0.28149 0.3846 0.0
H601 H 0.61228 0.28013 0.17841 0.0
H602 H 0.5834 0.32627 0.5454 0.0
H603 H 0.55883 0.33633 0.46576 0.0
H604 H 0.55624 0.30618 0.52549 0.0
H605 H 0.65278 0.30121 0.21501 0.0
H606 H 0.63798 0.33182 0.20164 0.0
H607 H 0.65443 0.3242 0.30936 0.0
H608 H 0.58418 0.40174 0.29747 0.0
H609 H 0.63196 0.38954 0.53944 0.0
H610 H 0.56546 0.34082 0.26266 0.0
H611 H 0.59278 0.3436 0.18769 0.0
H612 H 0.57112 0.36981 0.19842 0.0
H613 H 0.62815 0.32154 0.54238 0.0
H614 H 0.64564 0.3485 0.58586 0.0
H615 H 0.65584 0.33211 0.48112 0.0
C616 C 0.20298 0.54889 0.39953 0.0
C617 C 0.22659 0.55665 0.36504 0.0
C618 C 0.18842 0.56483 0.45639 0.0
C619 C 0.19832 0.58882 0.48305 0.0
C620 C 0.22378 0.595 0.46015 0.0
C621 C 0.23759 0.57893 0.39975 0.0
C622 C 0.16149 0.55684 0.47906 0.0
C623 C 0.23613 0.6191 0.49367 0.0
C624 C 0.14163 0.62945 0.46383 0.0
C625 C 0.12887 0.62012 0.54375 0.0
C626 C 0.16714 0.62313 0.44844 0.0
C627 C 0.18014 0.60836 0.51713 0.0
C628 C 0.16938 0.60552 0.60789 0.0
C629 C 0.14342 0.6107 0.6198 0.0
C630 C 0.17863 0.62856 0.35277 0.0
C631 C 0.18407 0.59329 0.6875 0.0
H632 H 0.19496 0.53114 0.37512 0.0
H633 H 0.2562 0.58468 0.37494 0.0
H634 H 0.15865 0.55595 0.55654 0.0
H635 H 0.14779 0.57084 0.44955 0.0
H636 H 0.15675 0.53789 0.4499 0.0
H637 H 0.25531 0.61472 0.52222 0.0
H638 H 0.23885 0.63222 0.43284 0.0
H639 H 0.22494 0.62888 0.5491 0.0
H640 H 0.13092 0.63861 0.40774 0.0
H641 H 0.13432 0.60447 0.68447 0.0
H642 H 0.18078 0.61056 0.31302 0.0
H643 H 0.19774 0.63699 0.36111 0.0
H644 H 0.16675 0.64181 0.31012 0.0
H645 H 0.18048 0.57255 0.68855 0.0
H646 H 0.17785 0.60104 0.75657 0.0
H647 H 0.2048 0.59637 0.67904 0.0
C648 C 0.07299 0.79576 0.12203 0.0
C649 C 0.08091 0.78704 0.21089 0.0
C650 C 0.08593 0.81564 0.07692 0.0
C651 C 0.10745 0.82632 0.1215 0.0
C652 C 0.11855 0.81356 0.19947 0.0
C653 C 0.10477 0.79429 0.24514 0.0
C654 C 0.07402 0.82793 0.99105 0.0
C655 C 0.14285 0.82289 0.24326 0.0
C656 C 0.12579 0.88959 0.0103 0.0
C657 C 0.11139 0.90631 0.06563 0.0
C658 C 0.12677 0.86348 0.03214 0.0
C659 C 0.11215 0.85396 0.10852 0.0
C660 C 0.0988 0.87114 0.16751 0.0
C661 C 0.09892 0.89705 0.14595 0.0
C662 C 0.14242 0.8463 0.97014 0.0
C663 C 0.08254 0.86214 0.24923 0.0
H664 H 0.05466 0.78987 0.09501 0.0
H665 H 0.11114 0.78717 0.31321 0.0
H666 H 0.06485 0.84609 0.01171 0.0
H667 H 0.0887 0.83233 0.93738 0.0
H668 H 0.0594 0.8156 0.9584 0.0
H669 H 0.15266 0.80738 0.28253 0.0
H670 H 0.15582 0.83064 0.18844 0.0
H671 H 0.1385 0.8383 0.29392 0.0
H672 H 0.13559 0.89676 0.94833 0.0
H673 H 0.08748 0.90984 0.18812 0.0
H674 H 0.13211 0.84298 0.90299 0.0
H675 H 0.14652 0.8277 1.0042 0.0
H676 H 0.16068 0.8556 0.95168 0.0
H677 H 0.07321 0.87806 0.28701 0.0
H678 H 0.09425 0.85146 0.30106 0.0
H679 H 0.06753 0.84921 0.2231 0.0
C680 C 0.72593 0.05847 0.08892 0.0
C681 C 0.73932 0.0698 0.1627 0.0
C682 C 0.70728 0.07221 0.03967 0.0
C683 C 0.7023 0.09772 0.06547 0.0
C684 C 0.71934 0.11039 0.12615 0.0
C685 C 0.73752 0.09608 0.1759 0.0
C686 C 0.69021 0.05821 0.97209 0.0
C687 C 0.71579 0.13803 0.14988 0.0
C688 C 0.64109 0.12212 0.95618 0.0
C689 C 0.62343 0.11366 0.02372 0.0
C690 C 0.66733 0.11928 0.97158 0.0
C691 C 0.6759 0.10738 0.0557 0.0
C692 C 0.65819 0.1011 0.12761 0.0
C693 C 0.63229 0.10445 0.1108 0.0
C694 C 0.68545 0.12737 0.89466 0.0
C695 C 0.66622 0.08829 0.21891 0.0
H696 H 0.7275 0.03812 0.07877 0.0
H697 H 0.74809 0.10483 0.23277 0.0
H698 H 0.67189 0.05392 0.00749 0.0
H699 H 0.68606 0.07009 0.909 0.0
H700 H 0.69883 0.04003 0.94861 0.0
H701 H 0.73383 0.14659 0.1747 0.0
H702 H 0.70871 0.1489 0.08771 0.0
H703 H 0.70156 0.13982 0.20731 0.0
H704 H 0.63442 0.1297 0.88922 0.0
H705 H 0.61893 0.09757 0.16319 0.0
H706 H 0.68659 0.11221 0.8407 0.0
H707 H 0.70484 0.13093 0.92216 0.0
H708 H 0.67843 0.14484 0.85868 0.0
H709 H 0.67368 0.06903 0.20344 0.0
H710 H 0.65025 0.08628 0.26972 0.0
H711 H 0.6815 0.09919 0.2538 0.0
C712 C 0.54367 0.74113 0.12449 0.0
C713 C 0.56163 0.73937 0.19739 0.0
C714 C 0.53772 0.71963 0.07122 0.0
C715 C 0.5505 0.69656 0.09136 0.0
C716 C 0.5729 0.69689 0.14644 0.0
C717 C 0.57859 0.71877 0.19807 0.0
C718 C 0.51464 0.72043 0.00823 0.0
C719 C 0.58805 0.67303 0.16488 0.0
C720 C 0.50585 0.64243 0.14858 0.0
C721 C 0.5067 0.62844 0.06543 0.0
C722 C 0.52019 0.6646 0.15761 0.0
C723 C 0.5363 0.67245 0.08226 0.0
C724 C 0.53791 0.6577 0.99943 0.0
C725 C 0.52272 0.636 0.99137 0.0
C726 C 0.51812 0.67947 0.2483 0.0
C727 C 0.55543 0.66477 0.91922 0.0
H728 H 0.53113 0.75749 0.12059 0.0
H729 H 0.59331 0.7179 0.2516 0.0
H730 H 0.51723 0.7081 0.94576 0.0
H731 H 0.49796 0.71334 0.04839 0.0
H732 H 0.51042 0.74009 0.98379 0.0
H733 H 0.60791 0.67758 0.185 0.0
H734 H 0.57925 0.66235 0.22423 0.0
H735 H 0.58825 0.66054 0.10206 0.0
H736 H 0.49364 0.6362 0.20587 0.0
H737 H 0.52363 0.62469 0.92769 0.0
H738 H 0.51402 0.69977 0.23329 0.0
H739 H 0.53641 0.67835 0.28684 0.0
H740 H 0.50297 0.67205 0.29547 0.0
H741 H 0.54614 0.67938 0.87424 0.0
H742 H 0.55985 0.64805 0.87456 0.0
H743 H 0.57349 0.67288 0.94544 0.0
C744 C 0.78328 0.45239 0.08528 0.0
C745 C 0.79307 0.47548 0.11764 0.0
C746 C 0.79789 0.43667 0.02612 0.0
C747 C 0.823 0.44401 1.00254 0.0
C748 C 0.83159 0.46869 0.02682 0.0
C749 C 0.81616 0.4843 0.08175 0.0
C750 C 0.78684 0.41171 0.99507 0.0
C751 C 0.85818 0.47779 1.00447 0.0
C752 C 0.88178 0.40645 0.02393 0.0
C753 C 0.89412 0.41622 0.94373 0.0
C754 C 0.85598 0.41153 0.03916 0.0
C755 C 0.84222 0.42528 0.96969 0.0
C756 C 0.85284 0.42831 0.87878 0.0
C757 C 0.87909 0.42461 0.86724 0.0
C758 C 0.84477 0.40586 0.13508 0.0
C759 C 0.83717 0.43898 0.79864 0.0
H760 H 0.7651 0.44575 0.11137 0.0
H761 H 0.82327 0.50256 0.10477 0.0
H762 H 0.79859 0.40209 0.94087 0.0
H763 H 0.78469 0.39895 0.05725 0.0
H764 H 0.76751 0.4149 0.96583 0.0
H765 H 0.86165 0.49747 0.02916 0.0
H766 H 0.87236 0.4651 0.03866 0.0
H767 H 0.86157 0.4774 0.92733 0.0
H768 H 0.89287 0.39786 0.08023 0.0
H769 H 0.88788 0.43106 0.80227 0.0
H770 H 0.82624 0.3962 0.12712 0.0
H771 H 0.84143 0.42388 0.17357 0.0
H772 H 0.8574 0.39359 0.17875 0.0
H773 H 0.81907 0.42832 0.7933 0.0
H774 H 0.84737 0.43795 0.73007 0.0
H775 H 0.83214 0.45907 0.81278 0.0
C776 C 0.98073 0.20612 0.01221 0.0
C777 C 1.00189 0.2191 0.04827 0.0
C778 C 0.9833 0.18288 0.96416 0.0
C779 C 1.00773 0.17213 0.95058 0.0
C780 C 0.02933 0.18619 0.97994 0.0
C781 C 0.02617 0.20937 0.02897 0.0
C782 C 0.95962 0.16884 0.93515 0.0
C783 C 0.05578 0.17591 0.96527 0.0
C784 C 1.01135 0.09934 0.949 0.0
C785 C 1.0118 0.09365 0.8521 0.0
C786 C 1.01036 0.12463 0.98139 0.0
C787 C 1.01027 0.14514 0.91576 0.0
C788 C 1.0112 0.13957 0.81777 0.0
C789 C 1.01174 0.11402 0.78722 0.0
C790 C 1.0088 0.12936 0.08636 0.0
C791 C 1.01161 0.16065 0.74508 0.0
H792 H 0.96188 0.21329 0.02786 0.0
H793 H 0.0426 0.21895 0.05785 0.0
H794 H 0.96145 0.16154 0.86215 0.0
H795 H 0.95688 0.15222 0.98266 0.0
H796 H 0.94241 0.18105 0.93905 0.0
H797 H 0.0705 0.19056 0.97805 0.0
H798 H 0.05915 0.15979 0.01459 0.0
H799 H 0.05798 0.1686 0.89235 0.0
H800 H 1.01122 0.08393 1.00012 0.0
H801 H 1.01222 0.11001 0.71223 0.0
H802 H 0.99096 0.13969 0.10297 0.0
H803 H 0.02481 0.14153 0.10906 0.0
H804 H 1.00928 0.11148 0.12838 0.0
H805 H 1.01164 0.15332 0.67164 0.0
H806 H 0.02878 0.17248 0.75538 0.0
H807 H 0.99491 0.17326 0.7542 0.0
C808 C 0.31755 0.03182 0.03492 0.0
C809 C 0.30835 1.00746 0.05627 0.0
C810 C 0.34058 0.03514 0.98463 0.0
C811 C 0.35497 1.01362 0.95597 0.0
C812 C 0.34473 0.98909 0.97164 0.0
C813 C 0.32165 0.98636 0.02092 0.0
C814 C 0.35034 0.06168 0.96778 0.0
C815 C 0.35915 0.9655 0.94329 0.0
C816 C 0.41254 0.01768 0.78909 0.0
C817 C 0.43305 0.01797 0.8528 0.0
C818 C 0.38709 0.01708 0.82114 0.0
C819 C 0.38179 0.01638 0.91949 0.0
C820 C 0.40244 0.0168 0.98394 0.0
C821 C 0.42761 0.01778 0.95004 0.0
C822 C 0.36584 0.01714 0.74965 0.0
C823 C 0.39798 1.01553 0.08927 0.0
H824 H 0.3077 0.04822 0.06308 0.0
H825 H 0.31482 0.96745 0.03787 0.0
H826 H 0.36653 0.06537 0.01585 0.0
H827 H 0.35739 0.06378 0.89428 0.0
H828 H 0.33547 0.07627 0.98063 0.0
H829 H 0.34741 0.94809 0.95012 0.0
H830 H 0.36593 0.96712 0.86933 0.0
H831 H 0.37612 0.9633 0.98909 0.0
H832 H 0.41635 0.01796 0.71385 0.0
H833 H 0.44314 0.01784 1.00029 0.0
H834 H 0.3532 1.00063 0.76156 0.0
H835 H 0.37298 0.01657 0.67583 0.0
H836 H 0.35411 0.03451 0.75848 0.0
H837 H 0.38554 0.03143 0.11153 0.0
H838 H 0.41594 0.01641 0.13024 0.0
H839 H 0.38807 0.99759 0.1077 0.0
C840 C 0.50192 0.31716 0.00732 0.0
C841 C 0.52656 0.3069 0.00994 0.0
C842 C 0.49692 0.34083 0.96254 0.0
C843 C 0.51707 0.35488 0.92059 0.0
C844 C 0.5416 0.3438 0.91819 0.0
C845 C 0.54589 0.31998 0.9612 0.0
C846 C 0.4703 0.35141 0.96443 0.0
C847 C 0.56386 0.35789 0.87598 0.0
C848 C 0.50757 0.41319 0.75871 0.0
C849 C 0.51038 0.43347 0.822 0.0
C850 C 0.50857 0.38761 0.79006 0.0
C851 C 0.51328 0.38194 0.88676 0.0
C852 C 0.51613 0.40238 0.95077 0.0
C853 C 0.5143 0.42771 0.91804 0.0
C854 C 0.50484 0.36663 0.71934 0.0
C855 C 0.52196 0.39754 0.0538 0.0
H856 H 0.48682 0.30744 0.04479 0.0
H857 H 0.56495 0.31215 0.96136 0.0
H858 H 0.46934 0.36743 0.01485 0.0
H859 H 0.46494 0.35894 0.89376 0.0
H860 H 0.4562 0.33687 0.98639 0.0
H861 H 0.58138 0.3461 0.87437 0.0
H862 H 0.55945 0.36423 0.80296 0.0
H863 H 0.56773 0.37515 0.9182 0.0
H864 H 0.5044 0.41731 0.6845 0.0
H865 H 0.51673 0.4431 0.96771 0.0
H866 H 0.4905 0.3529 0.74573 0.0
H867 H 0.52288 0.35603 0.70984 0.0
H868 H 0.49862 0.374 0.64934 0.0
H869 H 0.50698 0.38552 0.08595 0.0
H870 H 0.52342 0.41539 0.09484 0.0
H871 H 0.54017 0.387 0.06038 0.0
C872 C 0.20055 0.49769 0.02805 0.0
C873 C 0.21048 0.52175 0.04821 0.0
C874 C 0.17754 0.49507 0.97723 0.0
C875 C 0.16394 0.51702 0.94683 0.0
C876 C 0.17494 0.54122 0.96127 0.0
C877 C 0.19799 0.54325 0.0111 0.0
C878 C 0.16695 0.46886 0.96167 0.0
C879 C 0.16137 0.56524 0.93109 0.0
C880 C 0.10667 0.51455 0.77851 0.0
C881 C 0.08603 0.51495 0.8416 0.0
C882 C 0.13205 0.51445 0.81129 0.0
C883 C 0.13713 0.5151 0.90974 0.0
C884 C 0.11635 0.5154 0.97359 0.0
C885 C 0.09124 0.51511 0.93899 0.0
C886 C 0.15345 0.51371 0.74047 0.0
C887 C 0.12063 0.51666 0.07897 0.0
H888 H 0.20979 0.48101 0.05755 0.0
H889 H 0.2054 0.56193 0.02712 0.0
H890 H 0.15054 0.46575 0.00947 0.0
H891 H 0.15999 0.46691 0.88809 0.0
H892 H 0.1813 0.4538 0.97588 0.0
H893 H 0.17373 0.58223 0.93652 0.0
H894 H 0.15449 0.56372 0.85729 0.0
H895 H 0.1445 0.56816 0.97681 0.0
H896 H 0.10302 0.51429 0.70317 0.0
H897 H 0.0756 0.51557 0.98872 0.0
H898 H 0.16482 0.49616 0.75132 0.0
H899 H 0.16638 0.53002 0.75118 0.0
H900 H 0.14648 0.51417 0.66638 0.0
H901 H 0.13248 0.50038 0.10265 0.0
H902 H 0.10255 0.51643 0.11944 0.0
H903 H 0.13109 0.53428 0.09656 0.0
C904 C 0.02204 0.84209 0.39868 0.0
C905 C 0.02085 0.81829 0.4443 0.0
C906 C 0.0185 0.86496 0.44786 0.0
C907 C 1.01309 0.86442 0.54591 0.0
C908 C 1.01041 0.84043 0.5917 0.0
C909 C 1.01442 0.81765 0.54054 0.0
C910 C 0.02173 0.8898 0.39522 0.0
C911 C 1.0042 0.83882 0.69554 0.0
C912 C 0.03187 0.92472 0.67991 0.0
C913 C 1.00916 0.93883 0.67971 0.0
C914 C 0.03319 0.90022 0.63988 0.0
C915 C 1.0112 0.88909 0.59963 0.0
C916 C 0.98798 0.9028 0.60295 0.0
C917 C 0.9873 0.92745 0.64191 0.0
C918 C 0.05847 0.88666 0.63713 0.0
C919 C 0.96394 0.89175 0.56257 0.0
H920 H 0.02674 0.84283 0.32413 0.0
H921 H 1.0136 0.79947 0.57668 0.0
H922 H 1.00494 0.9022 0.40599 0.0
H923 H 0.0385 0.89999 0.42329 0.0
H924 H 0.02442 0.88702 0.31811 0.0
H925 H 1.00006 0.81905 0.71857 0.0
H926 H 0.02047 0.84597 0.73734 0.0
H927 H 0.98759 0.85102 0.71203 0.0
H928 H 0.04893 0.93318 0.70855 0.0
H929 H 0.96956 0.93795 0.64177 0.0
H930 H 0.06472 0.88462 0.56267 0.0
H931 H 0.05667 0.86726 0.66735 0.0
H932 H 0.07341 0.89699 0.67669 0.0
H933 H 0.96562 0.89046 0.48461 0.0
H934 H 0.94697 0.90342 0.57959 0.0
H935 H 0.96099 0.87219 0.59008 0.0
C936 C 0.70485 1.00525 0.49649 0.0
C937 C 0.71127 0.02935 0.4605 0.0
C938 C 0.68198 1.00134 0.54745 0.0
C939 C 0.66459 0.02175 0.56041 0.0
C940 C 0.67161 0.04627 0.5283 0.0
C941 C 0.69498 0.04983 0.4819 0.0
C942 C 0.676 0.97511 0.58449 0.0
C943 C 0.65375 0.06862 0.53768 0.0
C944 C 0.59326 1.00786 0.57762 0.0
C945 C 0.58768 1.01389 0.67187 0.0
C946 C 0.61812 1.01003 0.54116 0.0
C947 C 0.63839 0.01745 0.60104 0.0
C948 C 0.63301 0.0226 0.69745 0.0
C949 C 0.60773 0.02133 0.73099 0.0
C950 C 0.62246 1.00539 0.43723 0.0
C951 C 0.65388 0.02979 0.76523 0.0
H952 H 0.71709 0.9892 0.48151 0.0
H953 H 0.69995 0.0688 0.4583 0.0
H954 H 0.669 0.97614 0.65835 0.0
H955 H 0.66072 0.96656 0.54127 0.0
H956 H 0.69283 0.96237 0.58228 0.0
H957 H 0.66184 0.0864 0.50774 0.0
H958 H 0.63567 0.06453 0.50053 0.0
H959 H 0.6491 0.07187 0.613 0.0
H960 H 0.57791 1.00238 0.53101 0.0
H961 H 0.60369 0.02596 0.80401 0.0
H962 H 0.63682 0.9902 0.42751 0.0
H963 H 0.63003 0.02288 0.40335 0.0
H964 H 0.60479 0.99982 0.39996 0.0
H965 H 0.64761 0.02836 0.84003 0.0
H966 H 0.65985 0.04964 0.75147 0.0
H967 H 0.67076 0.01742 0.75527 0.0
C968 C 0.54402 0.71048 0.56559 0.0
C969 C 0.52578 0.72142 0.50545 0.0
C970 C 0.54101 0.68578 0.60321 0.0
C971 C 0.51927 0.67123 0.57955 0.0
C972 C 0.50014 0.68273 0.52275 0.0
C973 C 0.50363 0.70759 0.4865 0.0
C974 C 0.56241 0.67475 0.66137 0.0
C975 C 0.47681 0.66809 0.49429 0.0
C976 C 0.52765 0.59873 0.57738 0.0
C977 C 0.51564 0.591 0.66152 0.0
C978 C 0.52859 0.62452 0.54956 0.0
C979 C 0.51757 0.64349 0.60752 0.0
C980 C 0.50562 0.6359 0.693 0.0
C981 C 0.50455 0.60986 0.71841 0.0
C982 C 0.54137 0.63148 0.45753 0.0
C983 C 0.49421 0.65544 0.75802 0.0
H984 H 0.56164 0.72056 0.57773 0.0
H985 H 0.48992 0.71543 0.43708 0.0
H986 H 0.55597 0.65927 0.70887 0.0
H987 H 0.57701 0.66688 0.61311 0.0
H988 H 0.57161 0.6897 0.70446 0.0
H989 H 0.46303 0.68005 0.45446 0.0
H990 H 0.48243 0.65182 0.44933 0.0
H991 H 0.46723 0.66017 0.55768 0.0
H992 H 0.53616 0.58451 0.53219 0.0
H993 H 0.49531 0.60431 0.7837 0.0
H994 H 0.55705 0.64504 0.47059 0.0
H995 H 0.52754 0.64108 0.41011 0.0
H996 H 0.54919 0.61464 0.42052 0.0
H997 H 0.48708 0.64693 0.82469 0.0
H998 H 0.47822 0.66526 0.72202 0.0
H999 H 0.50854 0.67008 0.77542 0.0
C1000 C 0.81628 0.5325 0.47136 0.0
C1001 C 0.80988 0.50839 0.43714 0.0
C1002 C 0.83878 0.53622 0.52436 0.0
C1003 C 0.85555 0.5155 0.54191 0.0
C1004 C 0.84813 0.49089 0.51325 0.0
C1005 C 0.82539 0.48764 0.46266 0.0
C1006 C 0.8452 0.56255 0.55794 0.0
C1007 C 0.86512 0.46813 0.5298 0.0
C1008 C 0.9272 0.52704 0.5579 0.0
C1009 C 0.93239 0.52178 0.6533 0.0
C1010 C 0.90232 0.5255 0.52147 0.0
C1011 C 0.88173 0.51955 0.58242 0.0
C1012 C 0.88678 0.51543 0.6799 0.0
C1013 C 0.91203 0.51593 0.71356 0.0
C1014 C 0.89824 0.52923 0.4167 0.0
C1015 C 0.86575 0.50966 0.74887 0.0
H1016 H 0.80454 0.54866 0.45212 0.0
H1017 H 0.8205 0.46888 0.43735 0.0
H1018 H 0.8513 0.56192 0.63303 0.0
H1019 H 0.86128 0.57019 0.51599 0.0
H1020 H 0.82886 0.57581 0.55085 0.0
H1021 H 0.85598 0.45007 0.50835 0.0
H1022 H 0.88294 0.47047 0.48885 0.0
H1023 H 0.8704 0.46665 0.60543 0.0
H1024 H 0.94282 0.53137 0.51064 0.0
H1025 H 0.91581 0.51195 0.78752 0.0
H1026 H 0.88424 0.54464 0.40391 0.0
H1027 H 0.89034 0.51161 0.38583 0.0
H1028 H 0.9161 0.53403 0.3789 0.0
H1029 H 0.86256 0.48889 0.75047 0.0
H1030 H 0.84768 0.5191 0.72842 0.0
H1031 H 0.87091 0.51569 0.82145 0.0
loop_
_geom_bond_atom_site_label_1
_geom_bond_atom_site_label_2
_geom_bond_distance
_geom_bond_site_symmetry_2
_ccdc_geom_bond_type
H0 C7 0.929 . S
H1 C10 0.930 . S
H2 C12 0.929 . S
H3 C4 0.969 . S
C4 H3 0.969 . S
C4 O5 1.550 . S
C4 H6 0.973 . S
O5 C4 1.550 . S
O5 C11 1.412 . S
H6 C4 0.973 . S
C7 H0 0.929 . S
C7 C8 1.400 . S
C7 C9 1.364 . S
C8 C7 1.400 . S
C8 C12 1.377 . S
C9 C7 1.364 . S
C9 C10 1.374 . S
C10 H1 0.930 . S
C10 C9 1.374 . S
C10 C11 1.383 . S
C11 O5 1.412 . S
C11 C10 1.383 . S
C11 C12 1.394 . S
C12 H2 0.929 . S
C12 C8 1.377 . S
C12 C11 1.394 . S
H13 C20 0.928 1_655 S
H14 C23 0.930 . S
H15 C25 0.928 1_655 S
H16 C17 0.969 . S
C17 H16 0.969 . S
C17 O18 1.550 1_455 S
C17 H19 0.973 1_455 S
O18 C17 1.550 1_655 S
O18 C24 1.405 1_655 S
H19 C17 0.973 1_655 S
C20 H13 0.928 1_455 S
C20 C21 1.399 . S
C20 C22 1.364 . S
C21 C20 1.399 . S
C21 C25 1.377 . S
C22 C20 1.364 . S
C22 C23 1.374 1_455 S
C23 H14 0.930 . S
C23 C22 1.374 1_655 S
C23 C24 1.382 1_655 S
C24 O18 1.405 1_455 S
C24 C23 1.382 1_455 S
C24 C25 1.394 . S
C25 H15 0.928 1_455 S
C25 C21 1.377 . S
C25 C24 1.394 . S
H26 C33 0.928 1_565 S
H27 C36 0.930 . S
H28 C38 0.928 1_565 S
H29 C30 0.969 . S
C30 H29 0.969 . S
C30 O31 1.550 1_545 S
C30 H32 0.973 1_545 S
O31 C30 1.550 1_565 S
O31 C37 1.405 1_565 S
H32 C30 0.973 1_565 S
C33 H26 0.928 1_545 S
C33 C34 1.399 . S
C33 C35 1.364 . S
C34 C33 1.399 . S
C34 C38 1.377 . S
C35 C33 1.364 . S
C35 C36 1.374 1_545 S
C36 H27 0.930 . S
C36 C35 1.374 1_565 S
C36 C37 1.382 1_565 S
C37 O31 1.405 1_545 S
C37 C36 1.382 1_545 S
C37 C38 1.394 . S
C38 H28 0.928 1_545 S
C38 C34 1.377 . S
C38 C37 1.394 . S
H39 C46 0.929 . S
H40 C49 0.930 . S
H41 C51 0.929 . S
H42 C43 0.969 . S
C43 H42 0.969 . S
C43 O44 1.550 . S
C43 H45 0.973 . S
O44 C43 1.550 . S
O44 C50 1.412 . S
H45 C43 0.973 . S
C46 H39 0.929 . S
C46 C47 1.400 . S
C46 C48 1.364 . S
C47 C46 1.400 . S
C47 C51 1.377 . S
C48 C46 1.364 . S
C48 C49 1.374 . S
C49 H40 0.930 . S
C49 C48 1.374 . S
C49 C50 1.383 . S
C50 O44 1.412 . S
C50 C49 1.383 . S
C50 C51 1.394 . S
C51 H41 0.929 . S
C51 C47 1.377 . S
C51 C50 1.394 . S
H52 C59 0.929 . S
H53 C62 0.930 . S
H54 C64 0.929 . S
H55 C56 0.969 . S
C56 H55 0.969 . S
C56 O57 1.550 . S
C56 H58 0.973 . S
O57 C56 1.550 . S
O57 C63 1.412 . S
H58 C56 0.973 . S
C59 H52 0.929 . S
C59 C60 1.400 1_554 S
C59 C61 1.364 . S
C60 C59 1.400 1_556 S
C60 C64 1.377 . S
C61 C59 1.364 . S
C61 C62 1.374 . S
C62 H53 0.930 . S
C62 C61 1.374 . S
C62 C63 1.383 . S
C63 O57 1.412 . S
C63 C62 1.383 . S
C63 C64 1.394 1_554 S
C64 H54 0.929 . S
C64 C60 1.377 . S
C64 C63 1.394 1_556 S
H65 C72 0.928 1_655 S
H66 C75 0.930 . S
H67 C77 0.928 1_655 S
H68 C69 0.969 . S
C69 H68 0.969 . S
C69 O70 1.550 1_455 S
C69 H71 0.973 1_455 S
O70 C69 1.550 1_655 S
O70 C76 1.402 1_655 S
H71 C69 0.973 1_655 S
C72 H65 0.928 1_455 S
C72 C73 1.400 1_554 S
C72 C74 1.364 . S
C73 C72 1.400 1_556 S
C73 C77 1.377 . S
C74 C72 1.364 . S
C74 C75 1.374 1_455 S
C75 H66 0.930 . S
C75 C74 1.374 1_655 S
C75 C76 1.382 1_655 S
C76 O70 1.402 1_455 S
C76 C75 1.382 1_455 S
C76 C77 1.394 1_554 S
C77 H67 0.928 1_455 S
C77 C73 1.377 . S
C77 C76 1.394 1_556 S
H78 C85 0.928 1_565 S
H79 C88 0.930 . S
H80 C90 0.928 1_565 S
H81 C82 0.969 . S
C82 H81 0.969 . S
C82 O83 1.550 1_545 S
C82 H84 0.973 1_545 S
O83 C82 1.550 1_565 S
O83 C89 1.402 1_565 S
H84 C82 0.973 1_565 S
C85 H78 0.928 1_545 S
C85 C86 1.400 1_554 S
C85 C87 1.364 . S
C86 C85 1.400 1_556 S
C86 C90 1.377 . S
C87 C85 1.364 . S
C87 C88 1.374 1_545 S
C88 H79 0.930 . S
C88 C87 1.374 1_565 S
C88 C89 1.382 1_565 S
C89 O83 1.402 1_545 S
C89 C88 1.382 1_545 S
C89 C90 1.394 1_554 S
C90 H80 0.928 1_545 S
C90 C86 1.377 . S
C90 C89 1.394 1_556 S
H91 C98 0.929 . S
H92 C101 0.930 . S
H93 C103 0.929 . S
H94 C95 0.969 . S
C95 H94 0.969 . S
C95 O96 1.550 . S
C95 H97 0.973 . S
O96 C95 1.550 . S
O96 C102 1.412 . S
H97 C95 0.973 . S
C98 H91 0.929 . S
C98 C99 1.400 1_554 S
C98 C100 1.364 . S
C99 C98 1.400 1_556 S
C99 C103 1.377 . S
C100 C98 1.364 . S
C100 C101 1.374 . S
C101 H92 0.930 . S
C101 C100 1.374 . S
C101 C102 1.383 . S
C102 O96 1.412 . S
C102 C101 1.383 . S
C102 C103 1.394 1_554 S
C103 H93 0.929 . S
C103 C99 1.377 . S
C103 C102 1.394 1_556 S
Tb104 C114 2.825 . S
Tb104 O115 2.347 1_455 S
Tb104 O118 2.366 . S
Tb104 O123 2.418 . S
Tb104 O124 2.384 1_565 S
Tb104 O127 2.479 . S
Tb104 O128 2.471 . S
Eu105 O116 2.418 . S
Eu105 O117 2.384 1_545 S
Eu105 O120 2.479 . S
Eu105 O121 2.471 . S
Eu105 O122 2.347 1_655 S
Eu105 O125 2.366 . S
Eu105 C135 2.825 . S
C106 O122 1.259 1_565 S
C106 O123 1.265 . S
C107 O124 1.255 . S
C107 O125 1.265 1_455 S
C108 C110 1.380 . S
C108 C111 1.374 . S
C108 C114 1.507 1_554 S
C109 C110 1.384 . S
C109 C113 1.387 . S
C109 H136 0.930 . S
C110 C108 1.380 . S
C110 C109 1.384 . S
C110 H137 0.931 . S
C111 C108 1.374 . S
C111 C112 1.390 . S
C111 H138 0.930 1_455 S
C112 C111 1.390 . S
C112 C113 1.391 . S
C112 H139 0.930 1_455 S
C113 C109 1.387 . S
C113 C112 1.391 . S
C114 Tb104 2.825 . S
C114 C108 1.507 1_556 S
C114 O127 1.238 . S
C114 O128 1.247 . S
O115 Tb104 2.347 1_655 S
O115 C119 1.259 1_565 S
O116 Eu105 2.418 . S
O116 C119 1.265 . S
O117 Eu105 2.384 1_565 S
O117 C126 1.255 . S
O118 Tb104 2.366 . S
O118 C126 1.265 1_455 S
C119 O115 1.259 1_545 S
C119 O116 1.265 . S
O120 Eu105 2.479 . S
O120 C135 1.238 . S
O121 Eu105 2.471 . S
O121 C135 1.247 . S
O122 Eu105 2.347 1_455 S
O122 C106 1.259 1_545 S
O123 Tb104 2.418 . S
O123 C106 1.265 . S
O124 Tb104 2.384 1_545 S
O124 C107 1.255 . S
O125 Eu105 2.366 . S
O125 C107 1.265 1_655 S
C126 O117 1.255 . S
C126 O118 1.265 1_655 S
O127 Tb104 2.479 . S
O127 C114 1.238 . S
O128 Tb104 2.471 . S
O128 C114 1.247 . S
C129 C132 1.380 . S
C129 C133 1.374 . S
C129 C135 1.507 . S
C130 C131 1.387 . S
C130 C134 1.391 . S
C131 C130 1.387 . S
C131 C132 1.384 . S
C131 H140 0.930 . S
C132 C129 1.380 . S
C132 C131 1.384 . S
C132 H141 0.931 . S
C133 C129 1.374 . S
C133 C134 1.390 . S
C133 H142 0.930 1_655 S
C134 C130 1.391 . S
C134 C133 1.390 . S
C134 H143 0.930 1_655 S
C135 Eu105 2.825 . S
C135 O120 1.238 . S
C135 O121 1.247 . S
C135 C129 1.507 . S
H136 C109 0.930 . S
H137 C110 0.931 . S
H138 C111 0.930 1_655 S
H139 C112 0.930 1_655 S
H140 C131 0.930 . S
H141 C132 0.931 . S
H142 C133 0.930 1_455 S
H143 C134 0.930 1_455 S
Tb144 C154 2.825 . S
Tb144 O155 2.347 1_545 S
Tb144 O158 2.366 . S
Tb144 O163 2.418 . S
Tb144 O164 2.384 . S
Tb144 O167 2.479 . S
Tb144 O168 2.471 . S
Eu145 O156 2.418 . S
Eu145 O157 2.384 . S
Eu145 O160 2.479 . S
Eu145 O161 2.471 . S
Eu145 O162 2.347 1_565 S
Eu145 O165 2.366 . S
Eu145 C175 2.825 . S
C146 O162 1.259 . S
C146 O163 1.265 . S
C147 O164 1.255 . S
C147 O165 1.265 1_545 S
C148 C150 1.380 . S
C148 C151 1.374 . S
C148 C154 1.507 1_554 S
C149 C150 1.384 . S
C149 C153 1.387 . S
C149 H176 0.930 . S
C150 C148 1.380 . S
C150 C149 1.384 . S
C150 H177 0.931 . S
C151 C148 1.374 . S
C151 C152 1.390 . S
C151 H178 0.930 1_545 S
C152 C151 1.390 . S
C152 C153 1.391 . S
C152 H179 0.930 1_545 S
C153 C149 1.387 . S
C153 C152 1.391 . S
C154 Tb144 2.825 . S
C154 C148 1.507 1_556 S
C154 O167 1.238 . S
C154 O168 1.247 . S
O155 Tb144 2.347 1_565 S
O155 C159 1.259 . S
O156 Eu145 2.418 . S
O156 C159 1.265 . S
O157 Eu145 2.384 . S
O157 C166 1.255 . S
O158 Tb144 2.366 . S
O158 C166 1.265 1_545 S
C159 O155 1.259 . S
C159 O156 1.265 . S
O160 Eu145 2.479 . S
O160 C175 1.238 . S
O161 Eu145 2.471 . S
O161 C175 1.247 . S
O162 Eu145 2.347 1_545 S
O162 C146 1.259 . S
O163 Tb144 2.418 . S
O163 C146 1.265 . S
O164 Tb144 2.384 . S
O164 C147 1.255 . S
O165 Eu145 2.366 . S
O165 C147 1.265 1_565 S
C166 O157 1.255 . S
C166 O158 1.265 1_565 S
O167 Tb144 2.479 . S
O167 C154 1.238 . S
O168 Tb144 2.471 . S
O168 C154 1.247 . S
C169 C172 1.380 . S
C169 C173 1.374 . S
C169 C175 1.507 . S
C170 C171 1.387 . S
C170 C174 1.391 . S
C171 C170 1.387 . S
C171 C172 1.384 . S
C171 H180 0.930 . S
C172 C169 1.380 . S
C172 C171 1.384 . S
C172 H181 0.931 . S
C173 C169 1.374 . S
C173 C174 1.390 . S
C173 H182 0.930 1_565 S
C174 C170 1.391 . S
C174 C173 1.390 . S
C174 H183 0.930 1_565 S
C175 Eu145 2.825 . S
C175 O160 1.238 . S
C175 O161 1.247 . S
C175 C169 1.507 . S
H176 C149 0.930 . S
H177 C150 0.931 . S
H178 C151 0.930 1_565 S
H179 C152 0.930 1_565 S
H180 C171 0.930 . S
H181 C172 0.931 . S
H182 C173 0.930 1_545 S
H183 C174 0.930 1_545 S
Tb184 C194 2.825 . S
Tb184 O195 2.347 . S
Tb184 O198 2.366 . S
Tb184 O203 2.418 . S
Tb184 O204 2.384 . S
Tb184 O207 2.479 . S
Tb184 O208 2.471 . S
Eu185 O196 2.418 . S
Eu185 O197 2.384 . S
Eu185 O200 2.479 . S
Eu185 O201 2.471 . S
Eu185 O202 2.347 . S
Eu185 O205 2.366 . S
Eu185 C215 2.825 . S
C186 O202 1.259 . S
C186 O203 1.265 . S
C187 O204 1.255 . S
C187 O205 1.265 . S
C188 C190 1.380 . S
C188 C191 1.374 . S
C188 C194 1.507 1_554 S
C189 C190 1.384 . S
C189 C193 1.387 . S
C189 H216 0.930 . S
C190 C188 1.380 . S
C190 C189 1.384 . S
C190 H217 0.931 . S
C191 C188 1.374 . S
C191 C192 1.390 . S
C191 H218 0.930 . S
C192 C191 1.390 . S
C192 C193 1.391 . S
C192 H219 0.930 . S
C193 C189 1.387 . S
C193 C192 1.391 . S
C194 Tb184 2.825 . S
C194 C188 1.507 1_556 S
C194 O207 1.238 . S
C194 O208 1.247 . S
O195 Tb184 2.347 . S
O195 C199 1.259 . S
O196 Eu185 2.418 . S
O196 C199 1.265 . S
O197 Eu185 2.384 . S
O197 C206 1.255 . S
O198 Tb184 2.366 . S
O198 C206 1.265 . S
C199 O195 1.259 . S
C199 O196 1.265 . S
O200 Eu185 2.479 . S
O200 C215 1.238 . S
O201 Eu185 2.471 . S
O201 C215 1.247 . S
O202 Eu185 2.347 . S
O202 C186 1.259 . S
O203 Tb184 2.418 . S
O203 C186 1.265 . S
O204 Tb184 2.384 . S
O204 C187 1.255 . S
O205 Eu185 2.366 . S
O205 C187 1.265 . S
C206 O197 1.255 . S
C206 O198 1.265 . S
O207 Tb184 2.479 . S
O207 C194 1.238 . S
O208 Tb184 2.471 . S
O208 C194 1.247 . S
C209 C212 1.380 . S
C209 C213 1.374 . S
C209 C215 1.507 . S
C210 C211 1.387 . S
C210 C214 1.391 . S
C211 C210 1.387 . S
C211 C212 1.384 . S
C211 H220 0.930 . S
C212 C209 1.380 . S
C212 C211 1.384 . S
C212 H221 0.931 . S
C213 C209 1.374 . S
C213 C214 1.390 . S
C213 H222 0.930 . S
C214 C210 1.391 . S
C214 C213 1.390 . S
C214 H223 0.930 . S
C215 Eu185 2.825 . S
C215 O200 1.238 . S
C215 O201 1.247 . S
C215 C209 1.507 . S
H216 C189 0.930 . S
H217 C190 0.931 . S
H218 C191 0.930 . S
H219 C192 0.930 . S
H220 C211 0.930 . S
H221 C212 0.931 . S
H222 C213 0.930 . S
H223 C214 0.930 . S
Tb224 C234 2.825 . S
Tb224 O235 2.347 . S
Tb224 O238 2.366 . S
Tb224 O243 2.418 . S
Tb224 O244 2.384 1_655 S
Tb224 O247 2.479 . S
Tb224 O248 2.471 . S
Eu225 O236 2.418 . S
Eu225 O237 2.384 1_455 S
Eu225 O240 2.479 . S
Eu225 O241 2.471 . S
Eu225 O242 2.347 . S
Eu225 O245 2.366 . S
Eu225 C255 2.825 . S
C226 O242 1.259 1_655 S
C226 O243 1.265 . S
C227 O244 1.255 . S
C227 O245 1.265 . S
C228 C230 1.380 . S
C228 C231 1.374 . S
C228 C234 1.507 1_554 S
C229 C230 1.384 . S
C229 C233 1.387 . S
C229 H256 0.930 . S
C230 C228 1.380 . S
C230 C229 1.384 . S
C230 H257 0.931 . S
C231 C228 1.374 . S
C231 C232 1.390 . S
C231 H258 0.930 . S
C232 C231 1.390 . S
C232 C233 1.391 . S
C232 H259 0.930 . S
C233 C229 1.387 . S
C233 C232 1.391 . S
C234 Tb224 2.825 . S
C234 C228 1.507 1_556 S
C234 O247 1.238 . S
C234 O248 1.247 . S
O235 Tb224 2.347 . S
O235 C239 1.259 1_655 S
O236 Eu225 2.418 . S
O236 C239 1.265 . S
O237 Eu225 2.384 1_655 S
O237 C246 1.255 . S
O238 Tb224 2.366 . S
O238 C246 1.265 . S
C239 O235 1.259 1_455 S
C239 O236 1.265 . S
O240 Eu225 2.479 . S
O240 C255 1.238 . S
O241 Eu225 2.471 . S
O241 C255 1.247 . S
O242 Eu225 2.347 . S
O242 C226 1.259 1_455 S
O243 Tb224 2.418 . S
O243 C226 1.265 . S
O244 Tb224 2.384 1_455 S
O244 C227 1.255 . S
O245 Eu225 2.366 . S
O245 C227 1.265 . S
C246 O237 1.255 . S
C246 O238 1.265 . S
O247 Tb224 2.479 . S
O247 C234 1.238 . S
O248 Tb224 2.471 . S
O248 C234 1.247 . S
C249 C252 1.380 . S
C249 C253 1.374 . S
C249 C255 1.507 . S
C250 C251 1.387 . S
C250 C254 1.391 . S
C251 C250 1.387 . S
C251 C252 1.384 . S
C251 H260 0.930 . S
C252 C249 1.380 . S
C252 C251 1.384 . S
C252 H261 0.931 . S
C253 C249 1.374 . S
C253 C254 1.390 . S
C253 H262 0.930 . S
C254 C250 1.391 . S
C254 C253 1.390 . S
C254 H263 0.930 . S
C255 Eu225 2.825 . S
C255 O240 1.238 . S
C255 O241 1.247 . S
C255 C249 1.507 . S
H256 C229 0.930 . S
H257 C230 0.931 . S
H258 C231 0.930 . S
H259 C232 0.930 . S
H260 C251 0.930 . S
H261 C252 0.931 . S
H262 C253 0.930 . S
H263 C254 0.930 . S
C264 C265 1.391 . S
C264 C266 1.394 . S
C264 H280 0.931 . S
C265 C264 1.391 . S
C265 C269 1.376 1_565 S
C266 C264 1.394 . S
C266 C267 1.369 . S
C266 C270 1.531 . S
C267 C266 1.369 . S
C267 C268 1.410 1_565 S
C267 C275 1.503 . S
C268 C267 1.410 1_545 S
C268 C269 1.392 . S
C268 C271 1.511 . S
C269 C265 1.376 1_545 S
C269 C268 1.392 . S
C269 H281 0.929 . S
C270 C266 1.531 . S
C270 H282 0.960 . S
C270 H283 0.962 . S
C270 H284 0.960 . S
C271 C268 1.511 . S
C271 H285 0.961 . S
C271 H286 0.961 . S
C271 H287 0.961 1_545 S
C272 C273 1.354 1_545 S
C272 C274 1.363 . S
C272 H288 0.931 . S
C273 C272 1.354 1_565 S
C273 C277 1.426 . S
C274 C272 1.363 . S
C274 C275 1.370 1_545 S
C274 C278 1.524 . S
C275 C267 1.503 . S
C275 C274 1.370 1_565 S
C275 C276 1.403 . S
C276 C275 1.403 . S
C276 C277 1.404 . S
C276 C279 1.539 . S
C277 C273 1.426 . S
C277 C276 1.404 . S
C277 H289 0.930 . S
C278 C274 1.524 . S
C278 H290 0.956 . S
C278 H291 0.961 . S
C278 H292 0.961 . S
C279 C276 1.539 . S
C279 H293 0.958 . S
C279 H294 0.961 . S
C279 H295 0.960 . S
H280 C264 0.931 . S
H281 C269 0.929 . S
H282 C270 0.960 . S
H283 C270 0.962 . S
H284 C270 0.960 . S
H285 C271 0.961 . S
H286 C271 0.961 . S
H287 C271 0.961 1_565 S
H288 C272 0.931 . S
H289 C277 0.930 . S
H290 C278 0.956 . S
H291 C278 0.961 . S
H292 C278 0.961 . S
H293 C279 0.958 . S
H294 C279 0.961 . S
H295 C279 0.960 . S
C296 C297 1.391 . S
C296 C298 1.394 . S
C296 H312 0.931 . S
C297 C296 1.391 . S
C297 C301 1.376 . S
C298 C296 1.394 . S
C298 C299 1.369 . S
C298 C302 1.531 . S
C299 C298 1.369 . S
C299 C300 1.410 . S
C299 C307 1.503 . S
C300 C299 1.410 . S
C300 C301 1.392 . S
C300 C303 1.511 . S
C301 C297 1.376 . S
C301 C300 1.392 . S
C301 H313 0.929 . S
C302 C298 1.531 . S
C302 H314 0.960 . S
C302 H315 0.962 . S
C302 H316 0.960 . S
C303 C300 1.511 . S
C303 H317 0.961 . S
C303 H318 0.961 . S
C303 H319 0.961 . S
C304 C305 1.370 . S
C304 C306 1.363 . S
C304 H320 0.931 . S
C305 C304 1.370 . S
C305 C309 1.408 . S
C306 C304 1.363 . S
C306 C307 1.370 . S
C306 C310 1.524 . S
C307 C299 1.503 . S
C307 C306 1.370 . S
C307 C308 1.403 . S
C308 C307 1.403 . S
C308 C309 1.404 . S
C308 C311 1.539 . S
C309 C305 1.408 . S
C309 C308 1.404 . S
C309 H321 0.930 . S
C310 C306 1.524 . S
C310 H322 0.956 . S
C310 H323 0.961 . S
C310 H324 0.961 . S
C311 C308 1.539 . S
C311 H325 0.958 . S
C311 H326 0.961 . S
C311 H327 0.960 . S
H312 C296 0.931 . S
H313 C301 0.929 . S
H314 C302 0.960 . S
H315 C302 0.962 . S
H316 C302 0.960 . S
H317 C303 0.961 . S
H318 C303 0.961 . S
H319 C303 0.961 . S
H320 C304 0.931 . S
H321 C309 0.930 . S
H322 C310 0.956 . S
H323 C310 0.961 . S
H324 C310 0.961 . S
H325 C311 0.958 . S
H326 C311 0.961 . S
H327 C311 0.960 . S
C328 C329 1.391 . S
C328 C330 1.394 . S
C328 H344 0.931 . S
C329 C328 1.391 . S
C329 C333 1.376 . S
C330 C328 1.394 . S
C330 C331 1.369 . S
C330 C334 1.531 . S
C331 C330 1.369 . S
C331 C332 1.410 . S
C331 C339 1.503 . S
C332 C331 1.410 . S
C332 C333 1.392 . S
C332 C335 1.511 . S
C333 C329 1.376 . S
C333 C332 1.392 . S
C333 H345 0.929 . S
C334 C330 1.531 . S
C334 H346 0.960 . S
C334 H347 0.962 . S
C334 H348 0.960 . S
C335 C332 1.511 . S
C335 H349 0.961 . S
C335 H350 0.961 . S
C335 H351 0.961 . S
C336 C337 1.370 . S
C336 C338 1.363 . S
C336 H352 0.931 . S
C337 C336 1.370 . S
C337 C341 1.408 . S
C338 C336 1.363 . S
C338 C339 1.370 . S
C338 C342 1.524 . S
C339 C331 1.503 . S
C339 C338 1.370 . S
C339 C340 1.403 . S
C340 C339 1.403 . S
C340 C341 1.404 . S
C340 C343 1.539 . S
C341 C337 1.408 . S
C341 C340 1.404 . S
C341 H353 0.930 . S
C342 C338 1.524 . S
C342 H354 0.956 . S
C342 H355 0.961 . S
C342 H356 0.961 . S
C343 C340 1.539 . S
C343 H357 0.958 . S
C343 H358 0.961 . S
C343 H359 0.960 . S
H344 C328 0.931 . S
H345 C333 0.929 . S
H346 C334 0.960 . S
H347 C334 0.962 . S
H348 C334 0.960 . S
H349 C335 0.961 . S
H350 C335 0.961 . S
H351 C335 0.961 . S
H352 C336 0.931 . S
H353 C341 0.930 . S
H354 C342 0.956 . S
H355 C342 0.961 . S
H356 C342 0.961 . S
H357 C343 0.958 . S
H358 C343 0.961 . S
H359 C343 0.960 . S
C360 C361 1.391 1_655 S
C360 C362 1.394 . S
C360 H376 0.931 . S
C361 C360 1.391 1_455 S
C361 C365 1.376 . S
C362 C360 1.394 . S
C362 C363 1.369 1_655 S
C362 C366 1.531 . S
C363 C362 1.369 1_455 S
C363 C364 1.410 . S
C363 C371 1.503 . S
C364 C363 1.410 . S
C364 C365 1.392 . S
C364 C367 1.511 . S
C365 C361 1.376 . S
C365 C364 1.392 . S
C365 H377 0.929 . S
C366 C362 1.531 . S
C366 H378 0.960 . S
C366 H379 0.962 . S
C366 H380 0.960 . S
C367 C364 1.511 . S
C367 H381 0.961 . S
C367 H382 0.961 . S
C367 H383 0.961 . S
C368 C369 1.370 1_655 S
C368 C370 1.363 . S
C368 H384 0.931 . S
C369 C368 1.370 1_455 S
C369 C373 1.408 . S
C370 C368 1.363 . S
C370 C371 1.370 1_655 S
C370 C374 1.524 . S
C371 C363 1.503 . S
C371 C370 1.370 1_455 S
C371 C372 1.403 . S
C372 C371 1.403 . S
C372 C373 1.404 . S
C372 C375 1.539 . S
C373 C369 1.408 . S
C373 C372 1.404 . S
C373 H385 0.930 . S
C374 C370 1.524 . S
C374 H386 0.956 . S
C374 H387 0.961 . S
C374 H388 0.961 . S
C375 C372 1.539 . S
C375 H389 0.958 . S
C375 H390 0.961 . S
C375 H391 0.960 . S
H376 C360 0.931 . S
H377 C365 0.929 . S
H378 C366 0.960 . S
H379 C366 0.962 . S
H380 C366 0.960 . S
H381 C367 0.961 . S
H382 C367 0.961 . S
H383 C367 0.961 . S
H384 C368 0.931 . S
H385 C373 0.930 . S
H386 C374 0.956 . S
H387 C374 0.961 . S
H388 C374 0.961 . S
H389 C375 0.958 . S
H390 C375 0.961 . S
H391 C375 0.960 . S
C392 C393 1.391 1_545 S
C392 C394 1.394 . S
C392 H408 0.931 . S
C393 C392 1.391 1_565 S
C393 C397 1.376 . S
C394 C392 1.394 . S
C394 C395 1.369 1_545 S
C394 C398 1.531 . S
C395 C394 1.369 1_565 S
C395 C396 1.410 . S
C395 C403 1.503 . S
C396 C395 1.410 . S
C396 C397 1.392 . S
C396 C399 1.511 . S
C397 C393 1.376 . S
C397 C396 1.392 . S
C397 H409 0.929 . S
C398 C394 1.531 . S
C398 H410 0.960 . S
C398 H411 0.962 . S
C398 H412 0.960 . S
C399 C396 1.511 . S
C399 H413 0.961 . S
C399 H414 0.961 . S
C399 H415 0.961 . S
C400 C401 1.353 1_545 S
C400 C402 1.363 1_556 S
C400 H416 0.931 . S
C401 C400 1.353 1_565 S
C401 C405 1.427 1_556 S
C402 C400 1.363 1_554 S
C402 C403 1.370 1_545 S
C402 C406 1.524 . S
C403 C395 1.503 . S
C403 C402 1.370 1_565 S
C403 C404 1.403 . S
C404 C403 1.403 . S
C404 C405 1.404 . S
C404 C407 1.539 . S
C405 C401 1.427 1_554 S
C405 C404 1.404 . S
C405 H417 0.930 . S
C406 C402 1.524 . S
C406 H418 0.956 . S
C406 H419 0.961 . S
C406 H420 0.961 1_554 S
C407 C404 1.539 . S
C407 H421 0.958 . S
C407 H422 0.961 . S
C407 H423 0.960 . S
H408 C392 0.931 . S
H409 C397 0.929 . S
H410 C398 0.960 . S
H411 C398 0.962 . S
H412 C398 0.960 . S
H413 C399 0.961 . S
H414 C399 0.961 . S
H415 C399 0.961 . S
H416 C400 0.931 . S
H417 C405 0.930 . S
H418 C406 0.956 . S
H419 C406 0.961 . S
H420 C406 0.961 1_556 S
H421 C407 0.958 . S
H422 C407 0.961 . S
H423 C407 0.960 . S
C424 C425 1.391 . S
C424 C426 1.394 . S
C424 H440 0.931 . S
C425 C424 1.391 . S
C425 C429 1.376 . S
C426 C424 1.394 . S
C426 C427 1.369 . S
C426 C430 1.531 . S
C427 C426 1.369 . S
C427 C428 1.410 . S
C427 C435 1.503 . S
C428 C427 1.410 . S
C428 C429 1.392 . S
C428 C431 1.511 . S
C429 C425 1.376 . S
C429 C428 1.392 . S
C429 H441 0.929 . S
C430 C426 1.531 . S
C430 H442 0.960 . S
C430 H443 0.962 . S
C430 H444 0.960 . S
C431 C428 1.511 . S
C431 H445 0.961 . S
C431 H446 0.961 . S
C431 H447 0.961 . S
C432 C433 1.370 1_554 S
C432 C434 1.363 . S
C432 H448 0.931 . S
C433 C432 1.370 1_556 S
C433 C437 1.408 . S
C434 C432 1.363 . S
C434 C435 1.370 . S
C434 C438 1.524 . S
C435 C427 1.503 . S
C435 C434 1.370 . S
C435 C436 1.403 1_554 S
C436 C435 1.403 1_556 S
C436 C437 1.404 . S
C436 C439 1.539 . S
C437 C433 1.408 . S
C437 C436 1.404 . S
C437 H449 0.930 . S
C438 C434 1.524 . S
C438 H450 0.956 . S
C438 H451 0.961 . S
C438 H452 0.961 . S
C439 C436 1.539 . S
C439 H453 0.958 . S
C439 H454 0.961 . S
C439 H455 0.960 1_556 S
H440 C424 0.931 . S
H441 C429 0.929 . S
H442 C430 0.960 . S
H443 C430 0.962 . S
H444 C430 0.960 . S
H445 C431 0.961 . S
H446 C431 0.961 . S
H447 C431 0.961 . S
H448 C432 0.931 . S
H449 C437 0.930 . S
H450 C438 0.956 . S
H451 C438 0.961 . S
H452 C438 0.961 . S
H453 C439 0.958 . S
H454 C439 0.961 . S
H455 C439 0.960 1_554 S
C456 C457 1.391 . S
C456 C458 1.394 . S
C456 H472 0.931 . S
C457 C456 1.391 . S
C457 C461 1.376 . S
C458 C456 1.394 . S
C458 C459 1.369 . S
C458 C462 1.531 . S
C459 C458 1.369 . S
C459 C460 1.410 . S
C459 C467 1.503 . S
C460 C459 1.410 . S
C460 C461 1.392 . S
C460 C463 1.511 . S
C461 C457 1.376 . S
C461 C460 1.392 . S
C461 H473 0.929 . S
C462 C458 1.531 . S
C462 H474 0.960 . S
C462 H475 0.962 . S
C462 H476 0.960 . S
C463 C460 1.511 . S
C463 H477 0.961 . S
C463 H478 0.961 . S
C463 H479 0.961 . S
C464 C465 1.370 . S
C464 C466 1.363 1_556 S
C464 H480 0.931 . S
C465 C464 1.370 . S
C465 C469 1.408 . S
C466 C464 1.363 1_554 S
C466 C467 1.370 . S
C466 C470 1.524 . S
C467 C459 1.503 . S
C467 C466 1.370 . S
C467 C468 1.403 . S
C468 C467 1.403 . S
C468 C469 1.404 1_554 S
C468 C471 1.539 . S
C469 C465 1.408 . S
C469 C468 1.404 1_556 S
C469 H481 0.930 . S
C470 C466 1.524 . S
C470 H482 0.956 . S
C470 H483 0.961 . S
C470 H484 0.961 . S
C471 C468 1.539 . S
C471 H485 0.958 . S
C471 H486 0.961 . S
C471 H487 0.960 . S
H472 C456 0.931 . S
H473 C461 0.929 . S
H474 C462 0.960 . S
H475 C462 0.962 . S
H476 C462 0.960 . S
H477 C463 0.961 . S
H478 C463 0.961 . S
H479 C463 0.961 . S
H480 C464 0.931 . S
H481 C469 0.930 . S
H482 C470 0.956 . S
H483 C470 0.961 . S
H484 C470 0.961 . S
H485 C471 0.958 . S
H486 C471 0.961 . S
H487 C471 0.960 . S
C488 C489 1.391 1_655 S
C488 C490 1.394 . S
C488 H504 0.931 . S
C489 C488 1.391 1_455 S
C489 C493 1.376 . S
C490 C488 1.394 . S
C490 C491 1.369 1_655 S
C490 C494 1.531 . S
C491 C490 1.369 1_455 S
C491 C492 1.410 . S
C491 C499 1.503 . S
C492 C491 1.410 . S
C492 C493 1.392 . S
C492 C495 1.511 . S
C493 C489 1.376 . S
C493 C492 1.392 . S
C493 H505 0.929 . S
C494 C490 1.531 . S
C494 H506 0.960 . S
C494 H507 0.962 . S
C494 H508 0.960 . S
C495 C492 1.511 . S
C495 H509 0.961 . S
C495 H510 0.961 . S
C495 H511 0.961 . S
C496 C497 1.374 1_554 S
C496 C498 1.363 . S
C496 H512 0.931 . S
C497 C496 1.374 1_556 S
C497 C501 1.404 1_655 S
C498 C496 1.363 . S
C498 C499 1.370 1_655 S
C498 C502 1.524 . S
C499 C491 1.503 . S
C499 C498 1.370 1_455 S
C499 C500 1.403 1_554 S
C500 C499 1.403 1_556 S
C500 C501 1.404 . S
C500 C503 1.539 . S
C501 C497 1.404 1_455 S
C501 C500 1.404 . S
C501 H513 0.930 . S
C502 C498 1.524 . S
C502 H514 0.956 . S
C502 H515 0.961 . S
C502 H516 0.961 . S
C503 C500 1.539 . S
C503 H517 0.958 . S
C503 H518 0.961 . S
C503 H519 0.960 1_556 S
H504 C488 0.931 . S
H505 C493 0.929 . S
H506 C494 0.960 . S
H507 C494 0.962 . S
H508 C494 0.960 . S
H509 C495 0.961 . S
H510 C495 0.961 . S
H511 C495 0.961 . S
H512 C496 0.931 . S
H513 C501 0.930 . S
H514 C502 0.956 . S
H515 C502 0.961 . S
H516 C502 0.961 . S
H517 C503 0.958 . S
H518 C503 0.961 . S
H519 C503 0.960 1_554 S
C520 C521 1.391 . S
C520 C522 1.394 . S
C520 H536 0.931 . S
C521 C520 1.391 . S
C521 C525 1.376 1_455 S
C522 C520 1.394 . S
C522 C523 1.369 1_455 S
C522 C526 1.531 . S
C523 C522 1.369 1_655 S
C523 C524 1.410 . S
C523 C531 1.503 . S
C524 C523 1.410 . S
C524 C525 1.392 . S
C524 C527 1.511 . S
C525 C521 1.376 1_655 S
C525 C524 1.392 . S
C525 H537 0.929 . S
C526 C522 1.531 . S
C526 H538 0.960 . S
C526 H539 0.962 . S
C526 H540 0.960 . S
C527 C524 1.511 . S
C527 H541 0.961 . S
C527 H542 0.961 . S
C527 H543 0.961 . S
C528 C529 1.370 . S
C528 C530 1.363 . S
C528 H544 0.931 . S
C529 C528 1.370 . S
C529 C533 1.408 . S
C530 C528 1.363 . S
C530 C531 1.370 . S
C530 C534 1.524 . S
C531 C523 1.503 . S
C531 C530 1.370 . S
C531 C532 1.403 . S
C532 C531 1.403 . S
C532 C533 1.404 . S
C532 C535 1.539 . S
C533 C529 1.408 . S
C533 C532 1.404 . S
C533 H545 0.930 . S
C534 C530 1.524 . S
C534 H546 0.956 . S
C534 H547 0.961 . S
C534 H548 0.961 . S
C535 C532 1.539 . S
C535 H549 0.958 1_655 S
C535 H550 0.961 . S
C535 H551 0.960 . S
H536 C520 0.931 . S
H537 C525 0.929 . S
H538 C526 0.960 . S
H539 C526 0.962 . S
H540 C526 0.960 . S
H541 C527 0.961 . S
H542 C527 0.961 . S
H543 C527 0.961 . S
H544 C528 0.931 . S
H545 C533 0.930 . S
H546 C534 0.956 . S
H547 C534 0.961 . S
H548 C534 0.961 . S
H549 C535 0.958 1_455 S
H550 C535 0.961 . S
H551 C535 0.960 . S
C552 C553 1.391 . S
C552 C554 1.394 . S
C552 H568 0.931 . S
C553 C552 1.391 . S
C553 C557 1.376 1_545 S
C554 C552 1.394 . S
C554 C555 1.369 1_545 S
C554 C558 1.531 . S
C555 C554 1.369 1_565 S
C555 C556 1.410 . S
C555 C563 1.503 . S
C556 C555 1.410 . S
C556 C557 1.392 . S
C556 C559 1.511 . S
C557 C553 1.376 1_565 S
C557 C556 1.392 . S
C557 H569 0.929 . S
C558 C554 1.531 . S
C558 H570 0.960 . S
C558 H571 0.962 . S
C558 H572 0.960 . S
C559 C556 1.511 . S
C559 H573 0.961 . S
C559 H574 0.961 . S
C559 H575 0.961 . S
C560 C561 1.370 . S
C560 C562 1.363 . S
C560 H576 0.931 . S
C561 C560 1.370 . S
C561 C565 1.408 . S
C562 C560 1.363 . S
C562 C563 1.370 . S
C562 C566 1.524 . S
C563 C555 1.503 . S
C563 C562 1.370 . S
C563 C564 1.403 . S
C564 C563 1.403 . S
C564 C565 1.404 . S
C564 C567 1.539 . S
C565 C561 1.408 . S
C565 C564 1.404 . S
C565 H577 0.930 . S
C566 C562 1.524 . S
C566 H578 0.956 . S
C566 H579 0.961 . S
C566 H580 0.961 . S
C567 C564 1.539 . S
C567 H581 0.958 1_565 S
C567 H582 0.961 . S
C567 H583 0.960 . S
H568 C552 0.931 . S
H569 C557 0.929 . S
H570 C558 0.960 . S
H571 C558 0.962 . S
H572 C558 0.960 . S
H573 C559 0.961 . S
H574 C559 0.961 . S
H575 C559 0.961 . S
H576 C560 0.931 . S
H577 C565 0.930 . S
H578 C566 0.956 . S
H579 C566 0.961 . S
H580 C566 0.961 . S
H581 C567 0.958 1_545 S
H582 C567 0.961 . S
H583 C567 0.960 . S
C584 C585 1.391 . S
C584 C586 1.394 . S
C584 H600 0.931 . S
C585 C584 1.391 . S
C585 C589 1.376 . S
C586 C584 1.394 . S
C586 C587 1.369 . S
C586 C590 1.531 . S
C587 C586 1.369 . S
C587 C588 1.410 . S
C587 C595 1.503 . S
C588 C587 1.410 . S
C588 C589 1.392 . S
C588 C591 1.511 . S
C589 C585 1.376 . S
C589 C588 1.392 . S
C589 H601 0.929 . S
C590 C586 1.531 . S
C590 H602 0.960 . S
C590 H603 0.962 . S
C590 H604 0.960 . S
C591 C588 1.511 . S
C591 H605 0.961 . S
C591 H606 0.961 . S
C591 H607 0.961 . S
C592 C593 1.370 . S
C592 C594 1.363 . S
C592 H608 0.931 . S
C593 C592 1.370 . S
C593 C597 1.408 . S
C594 C592 1.363 . S
C594 C595 1.370 . S
C594 C598 1.524 . S
C595 C587 1.503 . S
C595 C594 1.370 . S
C595 C596 1.403 . S
C596 C595 1.403 . S
C596 C597 1.404 . S
C596 C599 1.539 . S
C597 C593 1.408 . S
C597 C596 1.404 . S
C597 H609 0.930 . S
C598 C594 1.524 . S
C598 H610 0.956 . S
C598 H611 0.961 . S
C598 H612 0.961 . S
C599 C596 1.539 . S
C599 H613 0.958 . S
C599 H614 0.961 . S
C599 H615 0.960 . S
H600 C584 0.931 . S
H601 C589 0.929 . S
H602 C590 0.960 . S
H603 C590 0.962 . S
H604 C590 0.960 . S
H605 C591 0.961 . S
H606 C591 0.961 . S
H607 C591 0.961 . S
H608 C592 0.931 . S
H609 C597 0.930 . S
H610 C598 0.956 . S
H611 C598 0.961 . S
H612 C598 0.961 . S
H613 C599 0.958 . S
H614 C599 0.961 . S
H615 C599 0.960 . S
C616 C617 1.391 . S
C616 C618 1.394 . S
C616 H632 0.931 . S
C617 C616 1.391 . S
C617 C621 1.376 . S
C618 C616 1.394 . S
C618 C619 1.369 . S
C618 C622 1.531 . S
C619 C618 1.369 . S
C619 C620 1.410 . S
C619 C627 1.503 . S
C620 C619 1.410 . S
C620 C621 1.392 . S
C620 C623 1.511 . S
C621 C617 1.376 . S
C621 C620 1.392 . S
C621 H633 0.929 . S
C622 C618 1.531 . S
C622 H634 0.960 . S
C622 H635 0.962 . S
C622 H636 0.960 . S
C623 C620 1.511 . S
C623 H637 0.961 . S
C623 H638 0.961 . S
C623 H639 0.961 . S
C624 C625 1.370 . S
C624 C626 1.363 . S
C624 H640 0.931 . S
C625 C624 1.370 . S
C625 C629 1.408 . S
C626 C624 1.363 . S
C626 C627 1.370 . S
C626 C630 1.524 . S
C627 C619 1.503 . S
C627 C626 1.370 . S
C627 C628 1.403 . S
C628 C627 1.403 . S
C628 C629 1.404 . S
C628 C631 1.539 . S
C629 C625 1.408 . S
C629 C628 1.404 . S
C629 H641 0.930 . S
C630 C626 1.524 . S
C630 H642 0.956 . S
C630 H643 0.961 . S
C630 H644 0.961 . S
C631 C628 1.539 . S
C631 H645 0.958 . S
C631 H646 0.961 . S
C631 H647 0.960 . S
H632 C616 0.931 . S
H633 C621 0.929 . S
H634 C622 0.960 . S
H635 C622 0.962 . S
H636 C622 0.960 . S
H637 C623 0.961 . S
H638 C623 0.961 . S
H639 C623 0.961 . S
H640 C624 0.931 . S
H641 C629 0.930 . S
H642 C630 0.956 . S
H643 C630 0.961 . S
H644 C630 0.961 . S
H645 C631 0.958 . S
H646 C631 0.961 . S
H647 C631 0.960 . S
C648 C649 1.391 . S
C648 C650 1.394 . S
C648 H664 0.931 . S
C649 C648 1.391 . S
C649 C653 1.376 1_655 S
C650 C648 1.394 . S
C650 C651 1.369 1_655 S
C650 C654 1.531 . S
C651 C650 1.369 1_455 S
C651 C652 1.410 . S
C651 C659 1.503 . S
C652 C651 1.410 . S
C652 C653 1.392 . S
C652 C655 1.511 . S
C653 C649 1.376 1_455 S
C653 C652 1.392 . S
C653 H665 0.929 . S
C654 C650 1.531 . S
C654 H666 0.960 . S
C654 H667 0.962 . S
C654 H668 0.960 . S
C655 C652 1.511 . S
C655 H669 0.961 . S
C655 H670 0.961 . S
C655 H671 0.961 . S
C656 C657 1.370 . S
C656 C658 1.363 . S
C656 H672 0.931 . S
C657 C656 1.370 . S
C657 C661 1.408 . S
C658 C656 1.363 . S
C658 C659 1.370 . S
C658 C662 1.524 . S
C659 C651 1.503 . S
C659 C658 1.370 . S
C659 C660 1.403 . S
C660 C659 1.403 . S
C660 C661 1.404 . S
C660 C663 1.539 . S
C661 C657 1.408 . S
C661 C660 1.404 . S
C661 H673 0.930 . S
C662 C658 1.524 . S
C662 H674 0.956 . S
C662 H675 0.961 . S
C662 H676 0.961 . S
C663 C660 1.539 . S
C663 H677 0.913 1_455 S
C663 H678 0.961 . S
C663 H679 0.960 . S
H664 C648 0.931 . S
H665 C653 0.929 . S
H666 C654 0.960 . S
H667 C654 0.962 . S
H668 C654 0.960 . S
H669 C655 0.961 . S
H670 C655 0.961 . S
H671 C655 0.961 . S
H672 C656 0.931 . S
H673 C661 0.930 . S
H674 C662 0.956 . S
H675 C662 0.961 . S
H676 C662 0.961 . S
H677 C663 0.913 1_655 S
H678 C663 0.961 . S
H679 C663 0.960 . S
C680 C681 1.393 . S
C680 C682 1.394 . S
C680 H696 0.931 1_545 S
C681 C680 1.393 . S
C681 C685 1.389 . S
C682 C680 1.394 . S
C682 C683 1.369 . S
C682 C686 1.531 . S
C683 C682 1.369 . S
C683 C684 1.410 . S
C683 C691 1.503 . S
C684 C683 1.410 . S
C684 C685 1.392 . S
C684 C687 1.511 . S
C685 C681 1.389 . S
C685 C684 1.392 . S
C685 H697 0.929 . S
C686 C682 1.531 . S
C686 H698 0.960 . S
C686 H699 0.962 1_545 S
C686 H700 0.960 . S
C687 C684 1.511 . S
C687 H701 0.961 . S
C687 H702 0.961 . S
C687 H703 0.961 . S
C688 C689 1.370 . S
C688 C690 1.363 . S
C688 H704 0.931 1_545 S
C689 C688 1.370 . S
C689 C693 1.408 . S
C690 C688 1.363 . S
C690 C691 1.370 . S
C690 C694 1.524 1_545 S
C691 C683 1.503 . S
C691 C690 1.370 . S
C691 C692 1.403 . S
C692 C691 1.403 . S
C692 C693 1.404 . S
C692 C695 1.539 . S
C693 C689 1.408 . S
C693 C692 1.404 . S
C693 H705 0.930 . S
C694 C690 1.524 1_565 S
C694 H706 0.956 . S
C694 H707 0.961 . S
C694 H708 0.961 . S
C695 C692 1.539 . S
C695 H709 0.958 . S
C695 H710 0.961 . S
C695 H711 0.960 . S
H696 C680 0.931 1_565 S
H697 C685 0.929 . S
H698 C686 0.960 . S
H699 C686 0.962 1_565 S
H700 C686 0.960 . S
H701 C687 0.961 . S
H702 C687 0.961 . S
H703 C687 0.961 . S
H704 C688 0.931 1_565 S
H705 C693 0.930 . S
H706 C694 0.956 . S
H707 C694 0.961 . S
H708 C694 0.961 . S
H709 C695 0.958 . S
H710 C695 0.961 . S
H711 C695 0.960 . S
C712 C713 1.391 . S
C712 C714 1.394 . S
C712 H728 0.931 . S
C713 C712 1.391 . S
C713 C717 1.376 . S
C714 C712 1.394 . S
C714 C715 1.369 . S
C714 C718 1.531 . S
C715 C714 1.369 . S
C715 C716 1.410 . S
C715 C723 1.503 . S
C716 C715 1.410 . S
C716 C717 1.392 . S
C716 C719 1.511 . S
C717 C713 1.376 . S
C717 C716 1.392 . S
C717 H729 0.929 . S
C718 C714 1.531 . S
C718 H730 0.960 . S
C718 H731 0.962 . S
C718 H732 0.960 . S
C719 C716 1.511 . S
C719 H733 0.961 . S
C719 H734 0.961 . S
C719 H735 0.961 . S
C720 C721 1.370 . S
C720 C722 1.363 . S
C720 H736 0.931 . S
C721 C720 1.370 . S
C721 C725 1.408 . S
C722 C720 1.363 . S
C722 C723 1.370 . S
C722 C726 1.524 . S
C723 C715 1.503 . S
C723 C722 1.370 . S
C723 C724 1.403 . S
C724 C723 1.403 . S
C724 C725 1.404 . S
C724 C727 1.539 . S
C725 C721 1.408 . S
C725 C724 1.404 . S
C725 H737 0.930 1_554 S
C726 C722 1.524 . S
C726 H738 0.956 . S
C726 H739 0.961 . S
C726 H740 0.961 . S
C727 C724 1.539 . S
C727 H741 0.958 . S
C727 H742 0.961 1_554 S
C727 H743 0.960 . S
H728 C712 0.931 . S
H729 C717 0.929 . S
H730 C718 0.960 . S
H731 C718 0.962 . S
H732 C718 0.960 . S
H733 C719 0.961 . S
H734 C719 0.961 . S
H735 C719 0.961 . S
H736 C720 0.931 . S
H737 C725 0.930 1_556 S
H738 C726 0.956 . S
H739 C726 0.961 . S
H740 C726 0.961 . S
H741 C727 0.958 . S
H742 C727 0.961 1_556 S
H743 C727 0.960 . S
C744 C745 1.391 . S
C744 C746 1.394 . S
C744 H760 0.931 . S
C745 C744 1.391 . S
C745 C749 1.376 . S
C746 C744 1.394 . S
C746 C747 1.369 . S
C746 C750 1.531 . S
C747 C746 1.369 . S
C747 C748 1.410 . S
C747 C755 1.503 . S
C748 C747 1.410 . S
C748 C749 1.392 . S
C748 C751 1.511 . S
C749 C745 1.376 . S
C749 C748 1.392 . S
C749 H761 0.929 . S
C750 C746 1.531 . S
C750 H762 0.960 . S
C750 H763 0.962 . S
C750 H764 0.960 . S
C751 C748 1.511 . S
C751 H765 0.961 . S
C751 H766 0.961 . S
C751 H767 0.961 . S
C752 C753 1.370 . S
C752 C754 1.363 . S
C752 H768 0.931 . S
C753 C752 1.370 . S
C753 C757 1.408 . S
C754 C752 1.363 . S
C754 C755 1.370 . S
C754 C758 1.524 . S
C755 C747 1.503 . S
C755 C754 1.370 . S
C755 C756 1.403 . S
C756 C755 1.403 . S
C756 C757 1.404 . S
C756 C759 1.539 . S
C757 C753 1.408 . S
C757 C756 1.404 . S
C757 H769 0.930 . S
C758 C754 1.524 . S
C758 H770 0.956 . S
C758 H771 0.961 . S
C758 H772 0.961 . S
C759 C756 1.539 . S
C759 H773 0.958 . S
C759 H774 0.961 1_554 S
C759 H775 0.960 . S
H760 C744 0.931 . S
H761 C749 0.929 . S
H762 C750 0.960 . S
H763 C750 0.962 . S
H764 C750 0.960 . S
H765 C751 0.961 . S
H766 C751 0.961 . S
H767 C751 0.961 . S
H768 C752 0.931 . S
H769 C757 0.930 . S
H770 C758 0.956 . S
H771 C758 0.961 . S
H772 C758 0.961 . S
H773 C759 0.958 . S
H774 C759 0.961 1_556 S
H775 C759 0.960 . S
C776 C777 1.391 1_655 S
C776 C778 1.394 . S
C776 H792 0.931 . S
C777 C776 1.391 1_455 S
C777 C781 1.376 . S
C778 C776 1.394 . S
C778 C779 1.369 1_655 S
C778 C782 1.531 . S
C779 C778 1.369 1_455 S
C779 C780 1.410 . S
C779 C787 1.503 . S
C780 C779 1.410 . S
C780 C781 1.392 . S
C780 C783 1.511 . S
C781 C777 1.376 . S
C781 C780 1.392 . S
C781 H793 0.929 . S
C782 C778 1.531 . S
C782 H794 0.960 . S
C782 H795 0.962 . S
C782 H796 0.960 . S
C783 C780 1.511 . S
C783 H797 0.961 1_556 S
C783 H798 0.961 . S
C783 H799 0.961 . S
C784 C785 1.370 1_655 S
C784 C786 1.363 . S
C784 H800 0.931 . S
C785 C784 1.370 1_455 S
C785 C789 1.408 . S
C786 C784 1.363 . S
C786 C787 1.370 1_655 S
C786 C790 1.524 . S
C787 C779 1.503 . S
C787 C786 1.370 1_455 S
C787 C788 1.403 . S
C788 C787 1.403 . S
C788 C789 1.404 . S
C788 C791 1.539 . S
C789 C785 1.408 . S
C789 C788 1.404 . S
C789 H801 0.930 . S
C790 C786 1.524 . S
C790 H802 0.956 . S
C790 H803 0.961 1_556 S
C790 H804 0.961 1_556 S
C791 C788 1.539 . S
C791 H805 0.958 . S
C791 H806 0.961 . S
C791 H807 0.960 . S
H792 C776 0.931 . S
H793 C781 0.929 . S
H794 C782 0.960 . S
H795 C782 0.962 . S
H796 C782 0.960 . S
H797 C783 0.961 1_554 S
H798 C783 0.961 . S
H799 C783 0.961 . S
H800 C784 0.931 . S
H801 C789 0.930 . S
H802 C790 0.956 . S
H803 C790 0.961 1_554 S
H804 C790 0.961 1_554 S
H805 C791 0.958 . S
H806 C791 0.961 . S
H807 C791 0.960 . S
C808 C809 1.391 . S
C808 C810 1.394 . S
C808 H824 0.931 . S
C809 C808 1.391 . S
C809 C813 1.376 1_545 S
C810 C808 1.394 . S
C810 C811 1.369 . S
C810 C814 1.531 . S
C811 C810 1.369 . S
C811 C812 1.410 1_545 S
C811 C819 1.503 . S
C812 C811 1.410 1_565 S
C812 C813 1.392 . S
C812 C815 1.511 . S
C813 C809 1.376 1_565 S
C813 C812 1.392 . S
C813 H825 0.929 . S
C814 C810 1.531 . S
C814 H826 0.960 . S
C814 H827 0.962 . S
C814 H828 0.960 . S
C815 C812 1.511 . S
C815 H829 0.961 . S
C815 H830 0.961 . S
C815 H831 0.961 1_556 S
C816 C817 1.370 1_565 S
C816 C818 1.363 . S
C816 H832 0.931 . S
C817 C816 1.370 1_545 S
C817 C821 1.408 . S
C818 C816 1.363 . S
C818 C819 1.370 1_565 S
C818 C822 1.524 . S
C819 C811 1.503 . S
C819 C818 1.370 1_545 S
C819 C820 1.403 . S
C820 C819 1.403 . S
C820 C821 1.404 . S
C820 C823 1.539 1_556 S
C821 C817 1.408 . S
C821 C820 1.404 . S
C821 H833 0.930 . S
C822 C818 1.524 . S
C822 H834 0.956 . S
C822 H835 0.961 . S
C822 H836 0.961 . S
C823 C820 1.539 1_554 S
C823 H837 0.958 . S
C823 H838 0.961 . S
C823 H839 0.960 . S
H824 C808 0.931 . S
H825 C813 0.929 . S
H826 C814 0.960 . S
H827 C814 0.962 . S
H828 C814 0.960 . S
H829 C815 0.961 . S
H830 C815 0.961 . S
H831 C815 0.961 1_554 S
H832 C816 0.931 . S
H833 C821 0.930 . S
H834 C822 0.956 . S
H835 C822 0.961 . S
H836 C822 0.961 . S
H837 C823 0.958 . S
H838 C823 0.961 . S
H839 C823 0.960 . S
C840 C841 1.391 . S
C840 C842 1.394 . S
C840 H856 0.931 . S
C841 C840 1.391 . S
C841 C845 1.376 . S
C842 C840 1.394 . S
C842 C843 1.369 . S
C842 C846 1.531 . S
C843 C842 1.369 . S
C843 C844 1.410 . S
C843 C851 1.503 . S
C844 C843 1.410 . S
C844 C845 1.392 . S
C844 C847 1.511 . S
C845 C841 1.376 . S
C845 C844 1.392 . S
C845 H857 0.929 . S
C846 C842 1.531 . S
C846 H858 0.960 1_556 S
C846 H859 0.962 . S
C846 H860 0.960 1_556 S
C847 C844 1.511 . S
C847 H861 0.961 . S
C847 H862 0.961 . S
C847 H863 0.961 . S
C848 C849 1.370 . S
C848 C850 1.363 . S
C848 H864 0.931 . S
C849 C848 1.370 . S
C849 C853 1.408 . S
C850 C848 1.363 . S
C850 C851 1.370 . S
C850 C854 1.524 . S
C851 C843 1.503 . S
C851 C850 1.370 . S
C851 C852 1.403 . S
C852 C851 1.403 . S
C852 C853 1.404 . S
C852 C855 1.539 1_556 S
C853 C849 1.408 . S
C853 C852 1.404 . S
C853 H865 0.930 . S
C854 C850 1.524 . S
C854 H866 0.956 . S
C854 H867 0.961 . S
C854 H868 0.961 . S
C855 C852 1.539 1_554 S
C855 H869 0.958 . S
C855 H870 0.961 . S
C855 H871 0.960 1_554 S
H856 C840 0.931 . S
H857 C845 0.929 . S
H858 C846 0.960 1_554 S
H859 C846 0.962 . S
H860 C846 0.960 1_554 S
H861 C847 0.961 . S
H862 C847 0.961 . S
H863 C847 0.961 . S
H864 C848 0.931 . S
H865 C853 0.930 . S
H866 C854 0.956 . S
H867 C854 0.961 . S
H868 C854 0.961 . S
H869 C855 0.958 . S
H870 C855 0.961 . S
H871 C855 0.960 1_556 S
C872 C873 1.391 . S
C872 C874 1.394 . S
C872 H888 0.931 . S
C873 C872 1.391 . S
C873 C877 1.376 . S
C874 C872 1.394 . S
C874 C875 1.369 . S
C874 C878 1.531 . S
C875 C874 1.369 . S
C875 C876 1.410 . S
C875 C883 1.503 . S
C876 C875 1.410 . S
C876 C877 1.392 . S
C876 C879 1.511 . S
C877 C873 1.376 . S
C877 C876 1.392 . S
C877 H889 0.929 . S
C878 C874 1.531 . S
C878 H890 0.960 . S
C878 H891 0.962 . S
C878 H892 0.960 1_556 S
C879 C876 1.511 . S
C879 H893 0.961 . S
C879 H894 0.961 . S
C879 H895 0.961 . S
C880 C881 1.370 . S
C880 C882 1.363 . S
C880 H896 0.931 . S
C881 C880 1.370 . S
C881 C885 1.408 . S
C882 C880 1.363 . S
C882 C883 1.370 . S
C882 C886 1.524 . S
C883 C875 1.503 . S
C883 C882 1.370 . S
C883 C884 1.403 . S
C884 C883 1.403 . S
C884 C885 1.404 . S
C884 C887 1.539 1_556 S
C885 C881 1.408 . S
C885 C884 1.404 . S
C885 H897 0.930 . S
C886 C882 1.524 . S
C886 H898 0.956 . S
C886 H899 0.961 . S
C886 H900 0.961 . S
C887 C884 1.539 1_554 S
C887 H901 0.958 . S
C887 H902 0.961 . S
C887 H903 0.960 . S
H888 C872 0.931 . S
H889 C877 0.929 . S
H890 C878 0.960 . S
H891 C878 0.962 . S
H892 C878 0.960 1_554 S
H893 C879 0.961 . S
H894 C879 0.961 . S
H895 C879 0.961 . S
H896 C880 0.931 . S
H897 C885 0.930 . S
H898 C886 0.956 . S
H899 C886 0.961 . S
H900 C886 0.961 . S
H901 C887 0.958 . S
H902 C887 0.961 . S
H903 C887 0.960 . S
C904 C905 1.391 . S
C904 C906 1.394 . S
C904 H920 0.931 . S
C905 C904 1.391 . S
C905 C909 1.376 . S
C906 C904 1.394 . S
C906 C907 1.369 . S
C906 C910 1.531 . S
C907 C906 1.369 . S
C907 C908 1.410 . S
C907 C915 1.503 . S
C908 C907 1.410 . S
C908 C909 1.392 . S
C908 C911 1.511 . S
C909 C905 1.376 . S
C909 C908 1.392 . S
C909 H921 0.928 1_655 S
C910 C906 1.531 . S
C910 H922 0.960 . S
C910 H923 0.962 . S
C910 H924 0.960 . S
C911 C908 1.511 . S
C911 H925 0.961 1_655 S
C911 H926 0.961 1_655 S
C911 H927 0.961 . S
C912 C913 1.370 1_455 S
C912 C914 1.363 . S
C912 H928 0.931 . S
C913 C912 1.370 1_655 S
C913 C917 1.408 . S
C914 C912 1.363 . S
C914 C915 1.370 1_455 S
C914 C918 1.524 . S
C915 C907 1.503 . S
C915 C914 1.370 1_655 S
C915 C916 1.403 . S
C916 C915 1.403 . S
C916 C917 1.404 . S
C916 C919 1.539 . S
C917 C913 1.408 . S
C917 C916 1.404 . S
C917 H929 0.930 . S
C918 C914 1.524 . S
C918 H930 0.956 . S
C918 H931 0.961 . S
C918 H932 0.961 . S
C919 C916 1.539 . S
C919 H933 0.958 . S
C919 H934 0.961 . S
C919 H935 0.960 . S
H920 C904 0.931 . S
H921 C909 0.928 1_455 S
H922 C910 0.960 . S
H923 C910 0.962 . S
H924 C910 0.960 . S
H925 C911 0.961 1_455 S
H926 C911 0.961 1_455 S
H927 C911 0.961 . S
H928 C912 0.931 . S
H929 C917 0.930 . S
H930 C918 0.956 . S
H931 C918 0.961 . S
H932 C918 0.961 . S
H933 C919 0.958 . S
H934 C919 0.961 . S
H935 C919 0.960 . S
C936 C937 1.391 . S
C936 C938 1.394 . S
C936 H952 0.931 . S
C937 C936 1.391 . S
C937 C941 1.376 1_565 S
C938 C936 1.394 . S
C938 C939 1.369 . S
C938 C942 1.531 . S
C939 C938 1.369 . S
C939 C940 1.410 1_565 S
C939 C947 1.503 . S
C940 C939 1.410 1_545 S
C940 C941 1.392 . S
C940 C943 1.511 . S
C941 C937 1.376 1_545 S
C941 C940 1.392 . S
C941 H953 0.929 . S
C942 C938 1.531 . S
C942 H954 0.960 . S
C942 H955 0.962 . S
C942 H956 0.960 . S
C943 C940 1.511 . S
C943 H957 0.961 . S
C943 H958 0.961 . S
C943 H959 0.961 . S
C944 C945 1.370 1_545 S
C944 C946 1.363 . S
C944 H960 0.931 . S
C945 C944 1.370 1_565 S
C945 C949 1.408 . S
C946 C944 1.363 . S
C946 C947 1.370 1_545 S
C946 C950 1.524 . S
C947 C939 1.503 . S
C947 C946 1.370 1_565 S
C947 C948 1.403 . S
C948 C947 1.403 . S
C948 C949 1.404 . S
C948 C951 1.539 . S
C949 C945 1.408 . S
C949 C948 1.404 . S
C949 H961 0.930 . S
C950 C946 1.524 . S
C950 H962 0.956 . S
C950 H963 0.961 . S
C950 H964 0.961 . S
C951 C948 1.539 . S
C951 H965 0.958 . S
C951 H966 0.961 . S
C951 H967 0.960 . S
H952 C936 0.931 . S
H953 C941 0.929 . S
H954 C942 0.960 . S
H955 C942 0.962 . S
H956 C942 0.960 . S
H957 C943 0.961 . S
H958 C943 0.961 . S
H959 C943 0.961 . S
H960 C944 0.931 . S
H961 C949 0.930 . S
H962 C950 0.956 . S
H963 C950 0.961 . S
H964 C950 0.961 . S
H965 C951 0.958 . S
H966 C951 0.961 . S
H967 C951 0.960 . S
C968 C969 1.391 . S
C968 C970 1.394 . S
C968 H984 0.931 . S
C969 C968 1.391 . S
C969 C973 1.376 . S
C970 C968 1.394 . S
C970 C971 1.369 . S
C970 C974 1.531 . S
C971 C970 1.369 . S
C971 C972 1.410 . S
C971 C979 1.503 . S
C972 C971 1.410 . S
C972 C973 1.392 . S
C972 C975 1.511 . S
C973 C969 1.376 . S
C973 C972 1.392 . S
C973 H985 0.929 . S
C974 C970 1.531 . S
C974 H986 0.960 . S
C974 H987 0.962 . S
C974 H988 0.960 . S
C975 C972 1.511 . S
C975 H989 0.961 . S
C975 H990 0.961 . S
C975 H991 0.961 . S
C976 C977 1.370 . S
C976 C978 1.363 . S
C976 H992 0.931 . S
C977 C976 1.370 . S
C977 C981 1.408 . S
C978 C976 1.363 . S
C978 C979 1.370 . S
C978 C982 1.524 . S
C979 C971 1.503 . S
C979 C978 1.370 . S
C979 C980 1.403 . S
C980 C979 1.403 . S
C980 C981 1.404 . S
C980 C983 1.539 . S
C981 C977 1.408 . S
C981 C980 1.404 . S
C981 H993 0.930 . S
C982 C978 1.524 . S
C982 H994 0.956 . S
C982 H995 0.961 . S
C982 H996 0.961 . S
C983 C980 1.539 . S
C983 H997 0.958 . S
C983 H998 0.961 . S
C983 H999 0.960 . S
H984 C968 0.931 . S
H985 C973 0.929 . S
H986 C974 0.960 . S
H987 C974 0.962 . S
H988 C974 0.960 . S
H989 C975 0.961 . S
H990 C975 0.961 . S
H991 C975 0.961 . S
H992 C976 0.931 . S
H993 C981 0.930 . S
H994 C982 0.956 . S
H995 C982 0.961 . S
H996 C982 0.961 . S
H997 C983 0.958 . S
H998 C983 0.961 . S
H999 C983 0.960 . S
C1000 C1001 1.391 . S
C1000 C1002 1.394 . S
C1000 H1016 0.931 . S
C1001 C1000 1.391 . S
C1001 C1005 1.376 . S
C1002 C1000 1.394 . S
C1002 C1003 1.369 . S
C1002 C1006 1.531 . S
C1003 C1002 1.369 . S
C1003 C1004 1.410 . S
C1003 C1011 1.503 . S
C1004 C1003 1.410 . S
C1004 C1005 1.392 . S
C1004 C1007 1.511 . S
C1005 C1001 1.376 . S
C1005 C1004 1.392 . S
C1005 H1017 0.929 . S
C1006 C1002 1.531 . S
C1006 H1018 0.960 . S
C1006 H1019 0.962 . S
C1006 H1020 0.960 . S
C1007 C1004 1.511 . S
C1007 H1021 0.961 . S
C1007 H1022 0.961 . S
C1007 H1023 0.961 . S
C1008 C1009 1.370 . S
C1008 C1010 1.363 . S
C1008 H1024 0.931 . S
C1009 C1008 1.370 . S
C1009 C1013 1.408 . S
C1010 C1008 1.363 . S
C1010 C1011 1.370 . S
C1010 C1014 1.524 . S
C1011 C1003 1.503 . S
C1011 C1010 1.370 . S
C1011 C1012 1.403 . S
C1012 C1011 1.403 . S
C1012 C1013 1.404 . S
C1012 C1015 1.539 . S
C1013 C1009 1.408 . S
C1013 C1012 1.404 . S
C1013 H1025 0.930 . S
C1014 C1010 1.524 . S
C1014 H1026 0.956 . S
C1014 H1027 0.961 . S
C1014 H1028 0.961 . S
C1015 C1012 1.539 . S
C1015 H1029 0.958 . S
C1015 H1030 0.961 . S
C1015 H1031 0.960 . S
H1016 C1000 0.931 . S
H1017 C1005 0.929 . S
H1018 C1006 0.960 . S
H1019 C1006 0.962 . S
H1020 C1006 0.960 . S
H1021 C1007 0.961 . S
H1022 C1007 0.961 . S
H1023 C1007 0.961 . S
H1024 C1008 0.931 . S
H1025 C1013 0.930 . S
H1026 C1014 0.956 . S
H1027 C1014 0.961 . S
H1028 C1014 0.961 . S
H1029 C1015 0.958 . S
H1030 C1015 0.961 . S
H1031 C1015 0.960 . S
C265 C82 1.679 1_565 S
C273 C106 1.958 . S
C305 C146 1.971 . S
C297 C95 1.717 . S
C337 C186 1.976 . S
C329 C56 1.713 . S
C369 C226 1.972 1_455 S
C361 C69 1.638 . S
C401 C119 1.965 1_565 S
C393 C30 1.727 1_565 S
C425 C43 1.644 . S
C433 C159 1.975 . S
C457 C4 1.683 . S
C465 C199 1.976 . S
C489 C17 1.642 . S
C497 C239 1.968 1_655 S
C529 C130 0.475 . S
C521 C74 0.571 . S
C561 C170 0.487 . S
C553 C87 0.579 . S
C593 C210 0.505 . S
C585 C100 0.541 . S
C617 C61 0.578 . S
C625 C250 0.468 . S
C649 C22 0.434 1_655 S
C657 C113 0.466 . S
C689 C153 0.500 . S
C681 C35 0.461 . S
C721 C193 0.479 . S
C713 C48 0.591 . S
C745 C9 0.549 . S
C753 C233 0.492 . S
C777 C73 2.066 . S
C785 C107 2.285 . S
C809 C86 1.982 . S
C817 C147 2.266 . S
C849 C187 2.249 . S
C841 C99 1.971 . S
C881 C227 2.277 . S
C873 C60 1.989 . S
C905 C21 2.046 1_655 S
C913 C126 2.298 . S
C945 C166 2.263 . S
C937 C34 2.034 1_565 S
C977 C206 2.245 . S
C969 C47 2.025 . S
C1001 C8 2.064 . S
C1009 C246 2.278 . S
