# Generated by pormake.
# Topology eea, (3,6)-cn, num edge types: 1
# Building blocks:
#     Node 0, Type 0, BuildingBlock: BETDIP_clean_linker_0, # of connection points: 3
#     Node 1, Type 0, BuildingBlock: BETDIP_clean_linker_0, # of connection points: 3
#     Node 2, Type 0, BuildingBlock: BETDIP_clean_linker_0, # of connection points: 3
#     Node 3, Type 0, BuildingBlock: BETDIP_clean_linker_0, # of connection points: 3
#     Node 4, Type 0, BuildingBlock: BETDIP_clean_linker_0, # of connection points: 3
#     Node 5, Type 0, BuildingBlock: BETDIP_clean_linker_0, # of connection points: 3
#     Node 6, Type 0, BuildingBlock: BETDIP_clean_linker_0, # of connection points: 3
#     Node 7, Type 0, BuildingBlock: BETDIP_clean_linker_0, # of connection points: 3
#     Node 8, Type 0, BuildingBlock: BETDIP_clean_linker_0, # of connection points: 3
#     Node 9, Type 0, BuildingBlock: BETDIP_clean_linker_0, # of connection points: 3
#     Node 10, Type 0, BuildingBlock: BETDIP_clean_linker_0, # of connection points: 3
#     Node 11, Type 0, BuildingBlock: BETDIP_clean_linker_0, # of connection points: 3
#     Node 12, Type 0, BuildingBlock: BETDIP_clean_linker_0, # of connection points: 3
#     Node 13, Type 0, BuildingBlock: BETDIP_clean_linker_0, # of connection points: 3
#     Node 14, Type 0, BuildingBlock: BETDIP_clean_linker_0, # of connection points: 3
#     Node 15, Type 0, BuildingBlock: BETDIP_clean_linker_0, # of connection points: 3
#     Node 16, Type 0, BuildingBlock: BETDIP_clean_linker_0, # of connection points: 3
#     Node 17, Type 0, BuildingBlock: BETDIP_clean_linker_0, # of connection points: 3
#     Node 18, Type 1, BuildingBlock: KUMBOL_clean_sbu_0, # of connection points: 6
#     Node 19, Type 1, BuildingBlock: KUMBOL_clean_sbu_0, # of connection points: 6
#     Node 20, Type 1, BuildingBlock: KUMBOL_clean_sbu_0, # of connection points: 6
#     Node 21, Type 1, BuildingBlock: KUMBOL_clean_sbu_0, # of connection points: 6
#     Node 22, Type 1, BuildingBlock: KUMBOL_clean_sbu_0, # of connection points: 6
#     Node 23, Type 1, BuildingBlock: KUMBOL_clean_sbu_0, # of connection points: 6
#     Node 24, Type 1, BuildingBlock: KUMBOL_clean_sbu_0, # of connection points: 6
#     Node 25, Type 1, BuildingBlock: KUMBOL_clean_sbu_0, # of connection points: 6
#     Node 26, Type 1, BuildingBlock: KUMBOL_clean_sbu_0, # of connection points: 6
#     Edge 27, Type (0, 1), BuildingBlock: UVAHIK_clean_linker_0, # of connection points: 2
#     Edge 28, Type (0, 1), BuildingBlock: UVAHIK_clean_linker_0, # of connection points: 2
#     Edge 29, Type (0, 1), BuildingBlock: UVAHIK_clean_linker_0, # of connection points: 2
#     Edge 30, Type (0, 1), BuildingBlock: UVAHIK_clean_linker_0, # of connection points: 2
#     Edge 31, Type (0, 1), BuildingBlock: UVAHIK_clean_linker_0, # of connection points: 2
#     Edge 32, Type (0, 1), BuildingBlock: UVAHIK_clean_linker_0, # of connection points: 2
#     Edge 33, Type (0, 1), BuildingBlock: UVAHIK_clean_linker_0, # of connection points: 2
#     Edge 34, Type (0, 1), BuildingBlock: UVAHIK_clean_linker_0, # of connection points: 2
#     Edge 35, Type (0, 1), BuildingBlock: UVAHIK_clean_linker_0, # of connection points: 2
#     Edge 36, Type (0, 1), BuildingBlock: UVAHIK_clean_linker_0, # of connection points: 2
#     Edge 37, Type (0, 1), BuildingBlock: UVAHIK_clean_linker_0, # of connection points: 2
#     Edge 38, Type (0, 1), BuildingBlock: UVAHIK_clean_linker_0, # of connection points: 2
#     Edge 39, Type (0, 1), BuildingBlock: UVAHIK_clean_linker_0, # of connection points: 2
#     Edge 40, Type (0, 1), BuildingBlock: UVAHIK_clean_linker_0, # of connection points: 2
#     Edge 41, Type (0, 1), BuildingBlock: UVAHIK_clean_linker_0, # of connection points: 2
#     Edge 42, Type (0, 1), BuildingBlock: UVAHIK_clean_linker_0, # of connection points: 2
#     Edge 43, Type (0, 1), BuildingBlock: UVAHIK_clean_linker_0, # of connection points: 2
#     Edge 44, Type (0, 1), BuildingBlock: UVAHIK_clean_linker_0, # of connection points: 2
#     Edge 45, Type (0, 1), BuildingBlock: UVAHIK_clean_linker_0, # of connection points: 2
#     Edge 46, Type (0, 1), BuildingBlock: UVAHIK_clean_linker_0, # of connection points: 2
#     Edge 47, Type (0, 1), BuildingBlock: UVAHIK_clean_linker_0, # of connection points: 2
#     Edge 48, Type (0, 1), BuildingBlock: UVAHIK_clean_linker_0, # of connection points: 2
#     Edge 49, Type (0, 1), BuildingBlock: UVAHIK_clean_linker_0, # of connection points: 2
#     Edge 50, Type (0, 1), BuildingBlock: UVAHIK_clean_linker_0, # of connection points: 2
#     Edge 51, Type (0, 1), BuildingBlock: UVAHIK_clean_linker_0, # of connection points: 2
#     Edge 52, Type (0, 1), BuildingBlock: UVAHIK_clean_linker_0, # of connection points: 2
#     Edge 53, Type (0, 1), BuildingBlock: UVAHIK_clean_linker_0, # of connection points: 2
#     Edge 54, Type (0, 1), BuildingBlock: UVAHIK_clean_linker_0, # of connection points: 2
#     Edge 55, Type (0, 1), BuildingBlock: UVAHIK_clean_linker_0, # of connection points: 2
#     Edge 56, Type (0, 1), BuildingBlock: UVAHIK_clean_linker_0, # of connection points: 2
#     Edge 57, Type (0, 1), BuildingBlock: UVAHIK_clean_linker_0, # of connection points: 2
#     Edge 58, Type (0, 1), BuildingBlock: UVAHIK_clean_linker_0, # of connection points: 2
#     Edge 59, Type (0, 1), BuildingBlock: UVAHIK_clean_linker_0, # of connection points: 2
#     Edge 60, Type (0, 1), BuildingBlock: UVAHIK_clean_linker_0, # of connection points: 2
#     Edge 61, Type (0, 1), BuildingBlock: UVAHIK_clean_linker_0, # of connection points: 2
#     Edge 62, Type (0, 1), BuildingBlock: UVAHIK_clean_linker_0, # of connection points: 2
#     Edge 63, Type (0, 1), BuildingBlock: UVAHIK_clean_linker_0, # of connection points: 2
#     Edge 64, Type (0, 1), BuildingBlock: UVAHIK_clean_linker_0, # of connection points: 2
#     Edge 65, Type (0, 1), BuildingBlock: UVAHIK_clean_linker_0, # of connection points: 2
#     Edge 66, Type (0, 1), BuildingBlock: UVAHIK_clean_linker_0, # of connection points: 2
#     Edge 67, Type (0, 1), BuildingBlock: UVAHIK_clean_linker_0, # of connection points: 2
#     Edge 68, Type (0, 1), BuildingBlock: UVAHIK_clean_linker_0, # of connection points: 2
#     Edge 69, Type (0, 1), BuildingBlock: UVAHIK_clean_linker_0, # of connection points: 2
#     Edge 70, Type (0, 1), BuildingBlock: UVAHIK_clean_linker_0, # of connection points: 2
#     Edge 71, Type (0, 1), BuildingBlock: UVAHIK_clean_linker_0, # of connection points: 2
#     Edge 72, Type (0, 1), BuildingBlock: UVAHIK_clean_linker_0, # of connection points: 2
#     Edge 73, Type (0, 1), BuildingBlock: UVAHIK_clean_linker_0, # of connection points: 2
#     Edge 74, Type (0, 1), BuildingBlock: UVAHIK_clean_linker_0, # of connection points: 2
#     Edge 75, Type (0, 1), BuildingBlock: UVAHIK_clean_linker_0, # of connection points: 2
#     Edge 76, Type (0, 1), BuildingBlock: UVAHIK_clean_linker_0, # of connection points: 2
#     Edge 77, Type (0, 1), BuildingBlock: UVAHIK_clean_linker_0, # of connection points: 2
#     Edge 78, Type (0, 1), BuildingBlock: UVAHIK_clean_linker_0, # of connection points: 2
#     Edge 79, Type (0, 1), BuildingBlock: UVAHIK_clean_linker_0, # of connection points: 2
#     Edge 80, Type (0, 1), BuildingBlock: UVAHIK_clean_linker_0, # of connection points: 2
# Relax obj value: 0.025
# Max RMSD: 0.154
# Mean RMSD: 0.114
data_MOF--net-eea--node1-KUMBOL_clean_sbu_0--node2-BETDIP_clean_linker_0--edge1-UVAHIK_clean_linker_0
_symmetry_space_group_name_H-M    P1
_symmetry_Int_Tables_number       1
_symmetry_cell_setting            triclinic
loop_
_symmetry_equiv_pos_as_xyz
'x, y, z'
_cell_length_a     70.943746
_cell_length_b     72.480599
_cell_length_c     82.588127
_cell_angle_alpha  90.125709
_cell_angle_beta   90.17459
_cell_angle_gamma 119.96622
loop_
_atom_site_label
_atom_site_type_symbol
_atom_site_fract_x
_atom_site_fract_y
_atom_site_fract_z
_atom_type_partial_charge
H0 H 0.23344 0.10816 0.38492 0.0
H1 H 0.26473 0.15216 0.42435 0.0
H2 H 0.25778 0.08988 0.42593 0.0
H3 H 0.27093 0.17645 0.40507 0.0
C4 C 0.25582 0.16903 0.3982 0.0
C5 C 0.24171 0.11193 0.39654 0.0
C6 C 0.24482 0.09665 0.40461 0.0
C7 C 0.24897 0.13205 0.40347 0.0
C8 C 0.25938 0.13684 0.41871 0.0
C9 C 0.26283 0.12177 0.42683 0.0
C10 C 0.25539 0.10171 0.4197 0.0
N11 N 0.24475 0.14675 0.39514 0.0
H12 H 0.92202 0.11957 0.3925 0.0
H13 H 0.87975 0.10306 0.43368 0.0
H14 H 0.9349 0.16583 0.4301 0.0
H15 H 0.87149 0.07048 0.42803 0.0
C16 C 0.87193 0.06964 0.41493 0.0
C17 C 0.91794 0.12387 0.40401 0.0
C18 C 0.93052 0.14475 0.4101 0.0
C19 C 0.8999 0.10848 0.41259 0.0
C20 C 0.89426 0.11426 0.4273 0.0
C21 C 0.90688 0.13482 0.43377 0.0
C22 C 0.9249 0.15001 0.42505 0.0
N23 N 0.8873 0.08759 0.40592 0.0
H24 H 0.89378 0.79884 0.3951 0.0
H25 H 0.91487 0.77323 0.43354 0.0
H26 H 0.8528 0.76975 0.43657 0.0
H27 H 0.92813 0.76428 0.41003 0.0
C28 C 0.93682 0.78031 0.40511 0.0
C29 C 0.89092 0.79112 0.40677 0.0
C30 C 0.87117 0.78467 0.41495 0.0
C31 C 0.90655 0.78658 0.41319 0.0
C32 C 0.90268 0.77626 0.42826 0.0
C33 C 0.88342 0.77033 0.43682 0.0
C34 C 0.86781 0.77459 0.43008 0.0
N35 N 0.92605 0.79244 0.40442 0.0
H36 H 0.09561 0.20513 0.63681 0.0
H37 H 0.1402 0.22692 0.59685 0.0
H38 H 0.08309 0.23311 0.59509 0.0
H39 H 0.16358 0.23962 0.62102 0.0
C40 C 0.15684 0.22357 0.62578 0.0
C41 C 0.10004 0.21209 0.62485 0.0
C42 C 0.08686 0.21867 0.61677 0.0
C43 C 0.11969 0.21569 0.61793 0.0
C44 C 0.12549 0.22487 0.60245 0.0
C45 C 0.11235 0.23109 0.59404 0.0
C46 C 0.09313 0.22798 0.60135 0.0
N47 N 0.13378 0.21048 0.62665 0.0
H48 H 0.78372 0.88389 0.6429 0.0
H49 H 0.76007 0.90388 0.60245 0.0
H50 H 0.76304 0.84631 0.59914 0.0
H51 H 0.7483 0.91671 0.62366 0.0
C52 C 0.76344 0.92447 0.63051 0.0
C53 C 0.77711 0.88117 0.63071 0.0
C54 C 0.77404 0.86331 0.62184 0.0
C55 C 0.77175 0.89565 0.62393 0.0
C56 C 0.76377 0.89251 0.60796 0.0
C57 C 0.76054 0.87471 0.59898 0.0
C58 C 0.7656 0.86013 0.60603 0.0
N59 N 0.77521 0.91363 0.63316 0.0
H60 H 0.12058 0.90061 0.63026 0.0
H61 H 0.10369 0.85592 0.59106 0.0
H62 H 0.16361 0.91567 0.5896 0.0
H63 H 0.08774 0.83276 0.61279 0.0
C64 C 0.07936 0.84026 0.61833 0.0
C65 C 0.12443 0.89649 0.61859 0.0
C66 C 0.14419 0.91046 0.61094 0.0
C67 C 0.10992 0.8767 0.61163 0.0
C68 C 0.11493 0.87108 0.59658 0.0
C69 C 0.1344 0.88496 0.58859 0.0
C70 C 0.14883 0.90463 0.59586 0.0
N71 N 0.09029 0.86282 0.6199 0.0
H72 H 0.89313 0.43996 0.72378 0.0
H73 H 0.92866 0.48724 0.76034 0.0
H74 H 0.92305 0.42565 0.76351 0.0
H75 H 0.93329 0.50979 0.74018 0.0
C76 C 0.91801 0.50203 0.73353 0.0
C77 C 0.90277 0.44469 0.7348 0.0
C78 C 0.9071 0.43018 0.7429 0.0
C79 C 0.91082 0.4654 0.74077 0.0
C80 C 0.92283 0.4715 0.75533 0.0
C81 C 0.92734 0.45722 0.76358 0.0
C82 C 0.91949 0.43667 0.75723 0.0
N83 N 0.90611 0.47949 0.73202 0.0
H84 H 0.58376 0.45608 0.71792 0.0
H85 H 0.5399 0.43531 0.75828 0.0
H86 H 0.5965 0.49782 0.75874 0.0
H87 H 0.51542 0.42175 0.73643 0.0
C88 C 0.52286 0.41369 0.73031 0.0
C89 C 0.57936 0.45907 0.72979 0.0
C90 C 0.59255 0.47872 0.73758 0.0
C91 C 0.55986 0.44371 0.73691 0.0
C92 C 0.55432 0.44759 0.75237 0.0
C93 C 0.56743 0.46701 0.76043 0.0
C94 C 0.58644 0.48258 0.75283 0.0
N95 N 0.54586 0.42455 0.72836 0.0
H96 H 0.56194 0.13909 0.72551 0.0
H97 H 0.58399 0.11901 0.767 0.0
H98 H 0.51928 0.10946 0.76604 0.0
H99 H 0.61628 0.14865 0.75962 0.0
C100 C 0.61605 0.14553 0.74672 0.0
C101 C 0.55896 0.13203 0.73745 0.0
C102 C 0.53843 0.12431 0.74474 0.0
C103 C 0.57569 0.13058 0.7455 0.0
C104 C 0.57153 0.12084 0.76084 0.0
C105 C 0.55128 0.11335 0.76835 0.0
C106 C 0.53493 0.11525 0.76026 0.0
N107 N 0.59632 0.13843 0.73785 0.0
H108 H 0.75914 0.53186 0.96525 0.0
H109 H 0.80259 0.55226 0.92457 0.0
H110 H 0.74912 0.56418 0.92523 0.0
H111 H 0.80232 0.52091 0.93147 0.0
C112 C 0.80602 0.52454 0.94426 0.0
C113 C 0.76383 0.53937 0.95349 0.0
C114 C 0.75178 0.54784 0.9462 0.0
C115 C 0.782 0.54061 0.94565 0.0
C116 C 0.78836 0.55082 0.93054 0.0
C117 C 0.77659 0.55934 0.92307 0.0
C118 C 0.75829 0.55766 0.93095 0.0
N119 N 0.79414 0.53214 0.95327 0.0
H120 H 0.45555 0.2183 0.96794 0.0
H121 H 0.42957 0.23498 0.92703 0.0
H122 H 0.43208 0.17704 0.92616 0.0
H123 H 0.4197 0.25023 0.9473 0.0
C124 C 0.43487 0.25811 0.95411 0.0
C125 C 0.44824 0.2146 0.95597 0.0
C126 C 0.44456 0.19598 0.94792 0.0
C127 C 0.44254 0.22854 0.94867 0.0
C128 C 0.43358 0.22408 0.93297 0.0
C129 C 0.42968 0.20548 0.92483 0.0
C130 C 0.43515 0.19147 0.93239 0.0
N131 N 0.44652 0.24723 0.95715 0.0
H132 H 0.7796 0.23776 0.96736 0.0
H133 H 0.76808 0.19286 0.92914 0.0
H134 H 0.82479 0.25516 0.92795 0.0
H135 H 0.74268 0.21671 0.97088 0.0
C136 C 0.73894 0.2007 0.96764 0.0
C137 C 0.78433 0.23384 0.956 0.0
C138 C 0.80371 0.24902 0.94845 0.0
C139 C 0.77133 0.2136 0.94888 0.0
C140 C 0.77796 0.20859 0.93436 0.0
C141 C 0.79715 0.22352 0.92665 0.0
C142 C 0.80987 0.24364 0.9338 0.0
N143 N 0.75185 0.19751 0.95607 0.0
H144 H 0.55758 0.76904 0.05815 0.0
H145 H 0.58684 0.81182 0.0985 0.0
H146 H 0.58785 0.75309 0.09657 0.0
H147 H 0.5919 0.83619 0.07961 0.0
C148 C 0.57679 0.82859 0.07274 0.0
C149 C 0.56617 0.77288 0.06963 0.0
C150 C 0.57239 0.75895 0.07637 0.0
C151 C 0.57179 0.79222 0.0773 0.0
C152 C 0.58288 0.79718 0.09226 0.0
C153 C 0.58892 0.78323 0.09927 0.0
C154 C 0.58365 0.76419 0.09117 0.0
N155 N 0.56599 0.8063 0.06974 0.0
H156 H 0.25844 0.78501 0.06088 0.0
H157 H 0.21427 0.76341 0.10106 0.0
H158 H 0.26862 0.82713 0.10102 0.0
H159 H 0.21397 0.732 0.09376 0.0
C160 C 0.21062 0.73243 0.08096 0.0
C161 C 0.25354 0.78815 0.0725 0.0
C162 C 0.26616 0.80804 0.08016 0.0
C163 C 0.23505 0.77187 0.0801 0.0
C164 C 0.2287 0.7758 0.09525 0.0
C165 C 0.24081 0.79564 0.10295 0.0
C166 C 0.25949 0.81162 0.09531 0.0
N167 N 0.22282 0.75175 0.07226 0.0
H168 H 0.22853 0.47274 0.05694 0.0
H169 H 0.25102 0.45184 0.09768 0.0
H170 H 0.18642 0.4426 0.09765 0.0
H171 H 0.28323 0.48175 0.09031 0.0
C172 C 0.28282 0.47862 0.0774 0.0
C173 C 0.22569 0.46547 0.06879 0.0
C174 C 0.20529 0.45774 0.0763 0.0
C175 C 0.24248 0.46378 0.07653 0.0
C176 C 0.2385 0.45382 0.09177 0.0
C177 C 0.21838 0.44629 0.09949 0.0
C178 C 0.20197 0.44842 0.09171 0.0
N179 N 0.26299 0.47164 0.06869 0.0
H180 H 0.42862 0.86419 0.30342 0.0
H181 H 0.47069 0.88546 0.26191 0.0
H182 H 0.41787 0.89829 0.26527 0.0
H183 H 0.4723 0.8553 0.26828 0.0
C184 C 0.47578 0.85831 0.28115 0.0
C185 C 0.4331 0.87215 0.29181 0.0
C186 C 0.421 0.88097 0.28526 0.0
C187 C 0.45104 0.87361 0.28344 0.0
C188 C 0.45682 0.8841 0.26839 0.0
C189 C 0.44489 0.89294 0.26162 0.0
C190 C 0.42711 0.89139 0.27024 0.0
N191 N 0.46349 0.86512 0.29052 0.0
H192 H 0.12113 0.55169 0.3039 0.0
H193 H 0.09282 0.571 0.26639 0.0
H194 H 0.09405 0.51266 0.26127 0.0
H195 H 0.08178 0.58219 0.28921 0.0
C196 C 0.09747 0.59039 0.29532 0.0
C197 C 0.11293 0.54858 0.29228 0.0
C198 C 0.1087 0.53049 0.28317 0.0
C199 C 0.10647 0.56274 0.28658 0.0
C200 C 0.09664 0.55939 0.27124 0.0
C201 C 0.09233 0.54148 0.26191 0.0
C202 C 0.09817 0.52698 0.26808 0.0
N203 N 0.11046 0.58056 0.29627 0.0
H204 H 0.4468 0.57778 0.29601 0.0
H205 H 0.42933 0.53225 0.25731 0.0
H206 H 0.49246 0.58841 0.25798 0.0
H207 H 0.39533 0.52788 0.26312 0.0
C208 C 0.39563 0.52715 0.27625 0.0
C209 C 0.45106 0.57279 0.2849 0.0
C210 C 0.47162 0.5856 0.27788 0.0
C211 C 0.43554 0.55384 0.27737 0.0
C212 C 0.44088 0.54727 0.26287 0.0
C213 C 0.46146 0.55965 0.25582 0.0
C214 C 0.47661 0.57877 0.2634 0.0
N215 N 0.41492 0.54141 0.28485 0.0
Gd216 Gd 0.50716 0.01696 0.03551 0.0
Gd217 Gd 0.48679 0.99226 0.9949 0.0
C218 C 0.42033 0.93256 0.988 0.0
C219 C 0.43028 0.9062 0.98019 0.0
C220 C 0.45832 0.94282 0.98551 0.0
C221 C 0.44258 0.94806 0.98913 0.0
C222 C 0.45237 0.92196 0.9806 0.0
C223 C 0.41428 0.91148 0.9839 0.0
C224 C 0.40486 0.93884 0.99057 0.0
C225 C 0.41176 0.96025 0.99359 0.0
N226 N 0.44903 0.9686 0.99291 0.0
C227 C 0.43403 0.97505 0.9945 0.0
H228 H 0.43908 0.9915 0.99694 0.0
C229 C 0.49541 0.9548 0.98034 0.0
N230 N 0.47945 0.95849 0.98588 0.0
C231 C 0.49036 0.93433 0.97545 0.0
C232 C 0.46877 0.91776 0.97579 0.0
H233 H 0.51214 0.96754 0.98016 0.0
H234 H 0.39728 0.8993 0.98315 0.0
H235 H 0.55512 0.01815 0.0342 0.0
H236 H 0.38761 0.92741 0.98988 0.0
H237 H 0.39994 0.96536 0.99529 0.0
H238 H 0.42538 0.89002 0.97661 0.0
H239 H 0.48102 0.04156 0.04906 0.0
H240 H 0.60605 0.08219 0.04234 0.0
H241 H 0.59413 0.04439 0.03666 0.0
H242 H 0.56748 0.11916 0.05438 0.0
H243 H 0.50312 0.93135 0.97146 0.0
H244 H 0.46488 0.90194 0.97194 0.0
H245 H 0.59595 0.11008 0.04869 0.0
H246 H 0.48956 0.07767 0.05751 0.0
N247 N 0.54482 0.0408 0.03811 0.0
C248 C 0.58885 0.0707 0.04132 0.0
C249 C 0.58218 0.04938 0.03814 0.0
C250 C 0.5732 0.07684 0.04353 0.0
C251 C 0.55102 0.06126 0.04197 0.0
C252 C 0.55998 0.03452 0.03677 0.0
N253 N 0.514 0.05065 0.04438 0.0
C254 C 0.53509 0.06637 0.04518 0.0
C255 C 0.50252 0.07473 0.05401 0.0
C256 C 0.5241 0.09132 0.05419 0.0
C257 C 0.49775 0.0543 0.04928 0.0
C258 C 0.54075 0.08719 0.04999 0.0
H259 H 0.52777 0.10711 0.05793 0.0
O260 O 0.49101 0.00817 0.05884 0.0
O261 O 0.48032 0.99136 0.02121 0.0
O262 O 0.47742 0.01727 0.00135 0.0
O263 O 0.50349 0.04035 0.01994 0.0
O264 O 0.47124 0.00469 0.03943 0.0
O265 O 0.51904 0.00449 0.05441 0.0
O266 O 0.50305 0.00142 0.97164 0.0
O267 O 0.51364 0.01763 0.00925 0.0
O268 O 0.51707 0.99244 0.02896 0.0
O269 O 0.49168 0.96916 0.01004 0.0
O270 O 0.52273 0.00477 0.99067 0.0
O271 O 0.47433 0.00398 0.97585 0.0
C272 C 0.46412 0.99026 0.02831 0.0
C273 C 0.56279 0.10301 0.05086 0.0
C274 C 0.579 0.09784 0.04763 0.0
C275 C 0.50487 0.00329 0.06501 0.0
C276 C 0.51333 0.01205 0.08122 0.0
C277 C 0.52953 0.03341 0.08315 0.0
C278 C 0.50471 0.99908 0.09495 0.0
C279 C 0.51207 0.00747 0.1106 0.0
C280 C 0.53697 0.0418 0.09859 0.0
C281 C 0.5283 0.02899 0.11224 0.0
C282 C 0.48839 0.03601 0.00879 0.0
C283 C 0.52985 0.01895 0.00199 0.0
C284 C 0.48876 0.00561 0.96533 0.0
C285 C 0.48063 0.99654 0.94914 0.0
C286 C 0.46444 0.97514 0.94732 0.0
C287 C 0.48978 0.00915 0.9353 0.0
C288 C 0.48307 0.00032 0.9197 0.0
C289 C 0.45763 0.96633 0.9319 0.0
C290 C 0.46693 0.97877 0.91816 0.0
C291 C 0.50683 0.97385 0.02124 0.0
H292 H 0.53637 0.04361 0.07277 0.0
H293 H 0.49203 0.98261 0.09347 0.0
H294 H 0.5495 0.05832 0.09999 0.0
H295 H 0.53449 0.03585 0.12408 0.0
H296 H 0.45716 0.96521 0.95779 0.0
H297 H 0.50243 0.02566 0.93668 0.0
H298 H 0.44515 0.94979 0.93059 0.0
H299 H 0.46134 0.97161 0.90632 0.0
Gd300 Gd 0.99122 0.49172 0.03175 0.0
Gd301 Gd 0.02056 0.49438 0.99387 0.0
C302 C 0.08033 0.48623 0.99416 0.0
C303 C 0.10919 0.52174 0.98708 0.0
C304 C 0.0718 0.51415 0.98902 0.0
C305 C 0.06514 0.49337 0.99336 0.0
C306 C 0.09382 0.52845 0.98547 0.0
C307 C 0.10246 0.50066 0.99141 0.0
C308 C 0.07274 0.46468 0.99725 0.0
C309 C 0.05043 0.45073 0.9989 0.0
N310 N 0.04359 0.47979 0.99577 0.0
C311 C 0.03599 0.45854 0.99794 0.0
H312 H 0.01881 0.44758 0.99931 0.0
C313 C 0.06178 0.53938 0.98094 0.0
N314 N 0.05649 0.52 0.98733 0.0
C315 C 0.08344 0.5542 0.9774 0.0
C316 C 0.09959 0.54881 0.97988 0.0
H317 H 0.04931 0.54359 0.97907 0.0
H318 H 0.1144 0.49554 0.99217 0.0
H319 H 0.99148 0.53771 0.02524 0.0
H320 H 0.08389 0.45859 0.99803 0.0
H321 H 0.04436 0.43396 1.001 0.0
H322 H 0.12623 0.53255 0.98456 0.0
H323 H 0.96438 0.44487 0.05026 0.0
H324 H 0.92592 0.52525 0.02636 0.0
H325 H 0.96526 0.55038 0.02289 0.0
H326 H 0.88553 0.45234 0.04301 0.0
H327 H 0.08766 0.56974 0.97275 0.0
H328 H 0.11634 0.56027 0.97703 0.0
H329 H 0.89614 0.4884 0.03346 0.0
H330 H 0.92663 0.41875 0.0581 0.0
N331 N 0.96733 0.50543 0.02954 0.0
C332 C 0.93738 0.51956 0.0274 0.0
C333 C 0.95957 0.53379 0.02549 0.0
C334 C 0.93034 0.4983 0.03122 0.0
C335 C 0.94594 0.49171 0.03236 0.0
C336 C 0.97442 0.52649 0.02683 0.0
N337 N 0.95581 0.4665 0.0399 0.0
C338 C 0.93997 0.47151 0.03767 0.0
C339 C 0.93012 0.43347 0.05225 0.0
C340 C 0.91336 0.43778 0.04906 0.0
C341 C 0.95145 0.44827 0.04784 0.0
C342 C 0.91825 0.45722 0.04204 0.0
H343 H 0.89687 0.42636 0.0526 0.0
O344 O 0.99762 0.48664 0.0566 0.0
O345 O 0.01862 0.49014 0.02043 0.0
O346 O 0.99306 0.46055 0.99867 0.0
O347 O 0.9692 0.46176 0.01778 0.0
O348 O 0.00361 0.46951 0.03927 0.0
O349 O 1.00173 0.51717 0.04947 0.0
O350 O 0.01647 0.50188 0.96913 0.0
O351 O 0.99259 0.49524 0.00499 0.0
O352 O 0.01759 0.52559 0.02537 0.0
O353 O 0.04288 0.52219 0.0096 0.0
O354 O 0.0085 0.51692 0.9868 0.0
O355 O 0.01133 0.4705 0.97499 0.0
C356 C 0.01923 0.47607 0.02896 0.0
C357 C 0.90237 0.46319 0.03993 0.0
C358 C 0.90841 0.48372 0.03451 0.0
C359 C 1.00141 0.5053 0.06142 0.0
C360 C 0.98987 0.50553 0.07609 0.0
C361 C 0.96858 0.50198 0.07523 0.0
C362 C 1.00014 0.50884 0.0912 0.0
C363 C 0.98917 0.50839 0.10552 0.0
C364 C 0.95755 0.50146 0.08932 0.0
C365 C 0.96769 0.50454 0.10438 0.0
C366 C 0.9742 0.45192 0.00647 0.0
C367 C 0.99224 0.50956 0.99659 0.0
C368 C 0.01284 0.48355 0.96353 0.0
C369 C 0.02537 0.48442 0.94912 0.0
C370 C 0.04587 0.4861 0.95056 0.0
C371 C 0.01685 0.48397 0.93369 0.0
C372 C 0.02877 0.48536 0.91968 0.0
C373 C 0.05788 0.48768 0.93678 0.0
C374 C 0.04947 0.48739 0.92143 0.0
C375 C 0.03749 0.53319 0.01946 0.0
H376 H 0.96047 0.49959 0.06372 0.0
H377 H 0.01675 0.51196 0.09173 0.0
H378 H 0.94104 0.49854 0.08857 0.0
H379 H 0.95859 0.50367 0.11514 0.0
H380 H 0.0526 0.48618 0.96228 0.0
H381 H 1.00081 0.48223 0.93265 0.0
H382 H 0.07377 0.48915 0.938 0.0
H383 H 0.05925 0.48888 0.91094 0.0
Gd384 Gd 0.50574 0.51727 0.98926 0.0
Gd385 Gd 0.52743 0.51129 0.02867 0.0
C386 C 0.59457 0.51751 0.03264 0.0
C387 C 0.5855 0.4813 0.0391 0.0
C388 C 0.55685 0.49007 0.03552 0.0
C389 C 0.57221 0.51095 0.03221 0.0
C390 C 0.56332 0.47512 0.03943 0.0
C391 C 0.6011 0.50246 0.03568 0.0
C392 C 0.60969 0.53909 0.03041 0.0
C393 C 0.60238 0.5536 0.02839 0.0
N394 N 0.56532 0.52509 0.02942 0.0
C395 C 0.58003 0.54633 0.02813 0.0
H396 H 0.57465 0.55773 0.02645 0.0
C397 C 0.52012 0.46514 0.04135 0.0
N398 N 0.53561 0.48471 0.03591 0.0
C399 C 0.5257 0.4497 0.04524 0.0
C400 C 0.54736 0.45461 0.04406 0.0
H401 H 0.50334 0.46128 0.04218 0.0
H402 H 0.61819 0.50714 0.03586 0.0
H403 H 0.45766 0.47169 0.99247 0.0
H404 H 0.62701 0.54476 0.03057 0.0
H405 H 0.61394 0.57038 0.02695 0.0
H406 H 0.59079 0.46999 0.04189 0.0
H407 H 0.52981 0.56504 0.97197 0.0
H408 H 0.4065 0.48634 0.98845 0.0
H409 H 0.41866 0.46009 0.99255 0.0
H410 H 0.44412 0.56012 0.97387 0.0
H411 H 0.51331 0.43404 0.04913 0.0
H412 H 0.55167 0.44266 0.04715 0.0
H413 H 0.41622 0.52391 0.98184 0.0
H414 H 0.5207 0.59236 0.96343 0.0
N415 N 0.46789 0.50446 0.98887 0.0
C416 C 0.42372 0.49157 0.98841 0.0
C417 C 0.43052 0.4767 0.99067 0.0
C418 C 0.43921 0.51285 0.9855 0.0
C419 C 0.46143 0.51882 0.98567 0.0
C420 C 0.45275 0.48339 0.9906 0.0
N421 N 0.49794 0.54356 0.98036 0.0
C422 C 0.47702 0.5391 0.98128 0.0
C423 C 0.50827 0.5775 0.96854 0.0
C424 C 0.48706 0.57371 0.9704 0.0
C425 C 0.51337 0.562 0.97336 0.0
C426 C 0.471 0.55411 0.9765 0.0
H427 H 0.48311 0.58567 0.96658 0.0
O428 O 0.52044 0.52352 0.96539 0.0
O429 O 0.53303 0.51725 0.00239 0.0
O430 O 0.53607 0.54565 0.02432 0.0
O431 O 0.51334 0.54642 0.00388 0.0
O432 O 0.5416 0.53962 0.98445 0.0
O433 O 0.49219 0.49295 0.97053 0.0
O434 O 0.51229 0.50271 0.05235 0.0
O435 O 0.50023 0.51194 0.01576 0.0
O436 O 0.49569 0.4829 0.99513 0.0
O437 O 0.52217 0.48406 0.01255 0.0
O438 O 0.49167 0.48863 0.0331 0.0
O439 O 0.54059 0.53388 0.0486 0.0
C440 C 0.54907 0.53191 0.99508 0.0
C441 C 0.44905 0.54872 0.97729 0.0
C442 C 0.43317 0.52811 0.98181 0.0
C443 C 0.50572 0.50525 0.9595 0.0
C444 C 0.49618 0.50597 0.94387 0.0
C445 C 0.47932 0.51073 0.94311 0.0
C446 C 0.50422 0.50211 0.92952 0.0
C447 C 0.49548 0.50297 0.91438 0.0
C448 C 0.47065 0.51172 0.92817 0.0
C449 C 0.47865 0.5079 0.91389 0.0
C450 C 0.52727 0.55521 0.01606 0.0
C451 C 0.48425 0.49702 0.023 0.0
C452 C 0.52673 0.52055 0.05905 0.0
C453 C 0.53568 0.51863 0.07462 0.0
C454 C 0.55208 0.51324 0.0752 0.0
C455 C 0.52736 0.52181 0.0891 0.0
C456 C 0.53524 0.51949 0.1042 0.0
C457 C 0.55993 0.5108 0.09007 0.0
C458 C 0.55156 0.51383 0.10448 0.0
C459 C 0.50641 0.47416 0.00176 0.0
H460 H 0.47286 0.51365 0.95401 0.0
H461 H 0.51706 0.49816 0.9302 0.0
H462 H 0.45771 0.51551 0.92766 0.0
H463 H 0.4718 0.50905 0.90245 0.0
H464 H 0.55878 0.51086 0.06421 0.0
H465 H 0.51492 0.52632 0.08855 0.0
H466 H 0.57249 0.50648 0.09044 0.0
H467 H 0.55774 0.5115 0.11585 0.0
Gd468 Gd 0.17314 0.35061 0.36666 0.0
Gd469 Gd 0.15466 0.32521 0.326 0.0
C470 C 0.08892 0.26492 0.31846 0.0
C471 C 0.09962 0.23882 0.31161 0.0
C472 C 0.12711 0.27561 0.31705 0.0
C473 C 0.11104 0.28064 0.31999 0.0
C474 C 0.12162 0.25478 0.31241 0.0
C475 C 0.08329 0.24388 0.31465 0.0
C476 C 0.07314 0.27094 0.32038 0.0
C477 C 0.07963 0.29231 0.32317 0.0
N478 N 0.11707 0.30116 0.32352 0.0
C479 C 0.10179 0.30734 0.3245 0.0
H480 H 0.10652 0.32375 0.32674 0.0
C481 C 0.16448 0.288 0.31271 0.0
N482 N 0.14815 0.29146 0.31773 0.0
C483 C 0.15988 0.26757 0.30813 0.0
C484 C 0.13837 0.25081 0.3082 0.0
H485 H 0.18113 0.30092 0.31273 0.0
H486 H 0.06638 0.23154 0.3136 0.0
H487 H 0.22205 0.35362 0.3649 0.0
H488 H 0.05597 0.25934 0.31937 0.0
H489 H 0.06758 0.29721 0.32438 0.0
H490 H 0.09506 0.22266 0.30823 0.0
H491 H 0.14684 0.37297 0.38349 0.0
H492 H 0.27162 0.41863 0.37107 0.0
H493 H 0.26078 0.38091 0.36623 0.0
H494 H 0.23134 0.45326 0.38502 0.0
H495 H 0.1729 0.26476 0.30457 0.0
H496 H 0.13483 0.23501 0.30458 0.0
H497 H 0.26044 0.44567 0.37775 0.0
H498 H 0.15438 0.40851 0.39277 0.0
N499 N 0.21073 0.37555 0.36846 0.0
C500 C 0.25452 0.40668 0.37049 0.0
C501 C 0.24846 0.3854 0.36782 0.0
C502 C 0.23843 0.41213 0.37303 0.0
C503 C 0.21641 0.39595 0.37205 0.0
C504 C 0.22639 0.36992 0.36709 0.0
N505 N 0.1794 0.38383 0.37618 0.0
C506 C 0.20015 0.40025 0.37604 0.0
C507 C 0.1674 0.40645 0.38798 0.0
C508 C 0.18848 0.42385 0.38693 0.0
C509 C 0.16319 0.38636 0.38276 0.0
C510 C 0.20528 0.42079 0.38124 0.0
H511 H 0.19173 0.43937 0.39105 0.0
O512 O 0.15704 0.34122 0.39002 0.0
O513 O 0.14732 0.32447 0.3521 0.0
O514 O 0.14461 0.35004 0.33071 0.0
O515 O 0.16582 0.37248 0.35201 0.0
O516 O 0.13692 0.33688 0.37014 0.0
O517 O 0.18568 0.33872 0.38549 0.0
O518 O 0.17179 0.33372 0.30305 0.0
O519 O 0.18031 0.35182 0.34038 0.0
O520 O 0.18443 0.32698 0.36067 0.0
O521 O 0.15984 0.30287 0.3418 0.0
O522 O 0.19084 0.33865 0.32292 0.0
O523 O 0.14252 0.33572 0.30594 0.0
C524 C 0.13062 0.32265 0.3589 0.0
C525 C 0.22707 0.43729 0.38127 0.0
C526 C 0.24363 0.43297 0.37714 0.0
C527 C 0.17146 0.33711 0.39618 0.0
C528 C 0.18011 0.34644 0.41222 0.0
C529 C 0.19575 0.36806 0.41373 0.0
C530 C 0.17268 0.33368 0.42615 0.0
C531 C 0.18092 0.34248 0.44158 0.0
C532 C 0.20384 0.37692 0.42894 0.0
C533 C 0.1965 0.36428 0.44277 0.0
C534 C 0.15263 0.36788 0.33936 0.0
C535 C 0.19703 0.3535 0.33367 0.0
C536 C 0.15756 0.3374 0.29599 0.0
C537 C 0.1503 0.32797 0.27979 0.0
C538 C 0.1351 0.30625 0.27795 0.0
C539 C 0.15917 0.34068 0.26596 0.0
C540 C 0.15318 0.33167 0.25035 0.0
C541 C 0.12903 0.29725 0.26253 0.0
C542 C 0.13805 0.3098 0.2488 0.0
C543 C 0.1749 0.30823 0.35318 0.0
H544 H 0.20175 0.37808 0.40319 0.0
H545 H 0.16077 0.31691 0.42493 0.0
H546 H 0.21583 0.39366 0.43001 0.0
H547 H 0.20288 0.37167 0.45444 0.0
H548 H 0.128 0.29626 0.28841 0.0
H549 H 0.17103 0.35745 0.26737 0.0
H550 H 0.11731 0.28046 0.26121 0.0
H551 H 0.13299 0.30247 0.23695 0.0
Gd552 Gd 0.66109 0.82346 0.36713 0.0
Gd553 Gd 0.69003 0.82673 0.32897 0.0
C554 C 0.75091 0.82042 0.32845 0.0
C555 C 0.77881 0.85594 0.32044 0.0
C556 C 0.7412 0.84746 0.32305 0.0
C557 C 0.73525 0.82697 0.32774 0.0
C558 C 0.76293 0.862 0.31888 0.0
C559 C 0.77281 0.83518 0.32524 0.0
C560 C 0.74396 0.79906 0.33183 0.0
C561 C 0.72179 0.7847 0.33376 0.0
N562 N 0.71389 0.81305 0.33051 0.0
C563 C 0.70687 0.79194 0.33284 0.0
H564 H 0.6898 0.78067 0.33443 0.0
C565 C 0.72986 0.87156 0.3146 0.0
N566 N 0.7254 0.85268 0.32147 0.0
C567 C 0.75118 0.88656 0.31032 0.0
C568 C 0.76786 0.88189 0.31271 0.0
H569 H 0.717 0.87525 0.31282 0.0
H570 H 0.78512 0.83052 0.32594 0.0
H571 H 0.66175 0.86981 0.36135 0.0
H572 H 0.75548 0.79341 0.33255 0.0
H573 H 0.71619 0.76805 0.33605 0.0
H574 H 0.79565 0.86696 0.31749 0.0
H575 H 0.63415 0.77639 0.38527 0.0
H576 H 0.59638 0.85782 0.36309 0.0
H577 H 0.63574 0.88277 0.35951 0.0
H578 H 0.55568 0.78474 0.37925 0.0
H579 H 0.75475 0.9017 0.30524 0.0
H580 H 0.78436 0.8935 0.30935 0.0
H581 H 0.56648 0.82097 0.37006 0.0
H582 H 0.59647 0.75048 0.39338 0.0
N583 N 0.63745 0.83752 0.36548 0.0
C584 C 0.60775 0.85199 0.36392 0.0
C585 C 0.62995 0.86612 0.36193 0.0
C586 C 0.60059 0.83066 0.36752 0.0
C587 C 0.61607 0.82388 0.36837 0.0
C588 C 0.64468 0.85865 0.36299 0.0
N589 N 0.62571 0.79833 0.37535 0.0
C590 C 0.60997 0.80355 0.37343 0.0
C591 C 0.6 0.76528 0.38767 0.0
C592 C 0.58332 0.7698 0.38476 0.0
C593 C 0.6213 0.77998 0.38309 0.0
C594 C 0.58827 0.78935 0.3779 0.0
H595 H 0.56685 0.75846 0.38839 0.0
O596 O 0.66757 0.81768 0.39178 0.0
O597 O 0.68862 0.8223 0.35555 0.0
O598 O 0.66315 0.79276 0.33407 0.0
O599 O 0.63888 0.79387 0.35278 0.0
O600 O 0.67321 0.80087 0.37392 0.0
O601 O 0.67183 0.84846 0.38526 0.0
O602 O 0.68418 0.83321 0.30436 0.0
O603 O 0.66216 0.82739 0.34046 0.0
O604 O 0.68754 0.8574 0.36113 0.0
O605 O 0.71257 0.85495 0.34429 0.0
O606 O 0.67771 0.84919 0.3223 0.0
O607 O 0.68088 0.80258 0.31031 0.0
C608 C 0.68905 0.80788 0.36378 0.0
C609 C 0.5725 0.79552 0.37609 0.0
C610 C 0.57865 0.81615 0.37088 0.0
C611 C 0.6716 0.83629 0.39695 0.0
C612 C 0.66039 0.83634 0.41185 0.0
C613 C 0.63891 0.83231 0.4114 0.0
C614 C 0.67122 0.8401 0.42676 0.0
C615 C 0.66065 0.83967 0.44128 0.0
C616 C 0.62826 0.83177 0.42571 0.0
C617 C 0.63898 0.83535 0.44057 0.0
C618 C 0.64402 0.78412 0.34148 0.0
C619 C 0.66165 0.84178 0.33226 0.0
C620 C 0.68108 0.81504 0.29884 0.0
C621 C 0.69302 0.81609 0.28404 0.0
C622 C 0.71426 0.81945 0.28482 0.0
C623 C 0.68317 0.81414 0.26891 0.0
C624 C 0.69448 0.81573 0.25452 0.0
C625 C 0.72565 0.82118 0.27064 0.0
C626 C 0.71591 0.81942 0.25558 0.0
C627 C 0.70725 0.86545 0.35474 0.0
H628 H 0.63037 0.82959 0.40005 0.0
H629 H 0.68796 0.84358 0.42698 0.0
H630 H 0.61161 0.8285 0.42528 0.0
H631 H 0.63021 0.8345 0.45151 0.0
H632 H 0.72203 0.82073 0.29631 0.0
H633 H 0.66659 0.81112 0.26842 0.0
H634 H 0.7421 0.82395 0.27134 0.0
H635 H 0.72524 0.82113 0.24477 0.0
Gd636 Gd 0.17448 0.84892 0.32888 0.0
Gd637 Gd 0.19749 0.84631 0.36858 0.0
C638 C 0.25931 0.90053 0.3917 0.0
C639 C 0.28717 0.89294 0.38232 0.0
C640 C 0.24923 0.86958 0.37491 0.0
C641 C 0.24349 0.88246 0.38322 0.0
C642 C 0.27105 0.87418 0.37488 0.0
C643 C 0.2813 0.90613 0.39073 0.0
C644 C 0.25239 0.91175 0.40152 0.0
C645 C 0.23015 0.90413 0.40339 0.0
N646 N 0.22207 0.87618 0.38417 0.0
C647 C 0.21512 0.88589 0.39491 0.0
H648 H 0.19796 0.87988 0.39662 0.0
C649 C 0.23749 0.83631 0.36244 0.0
N650 N 0.23314 0.8515 0.36813 0.0
C651 C 0.25884 0.84002 0.36221 0.0
C652 C 0.27579 0.85929 0.36808 0.0
H653 H 0.22462 0.8214 0.35774 0.0
H654 H 0.29375 0.92011 0.39698 0.0
H655 H 0.12349 0.8085 0.33352 0.0
H656 H 0.26401 0.92573 0.40823 0.0
H657 H 0.22455 0.91218 0.41143 0.0
H658 H 0.30407 0.89693 0.38222 0.0
H659 H 0.20432 0.89629 0.31069 0.0
H660 H 0.07936 0.83216 0.32851 0.0
H661 H 0.08608 0.80231 0.33358 0.0
H662 H 0.12567 0.90462 0.31242 0.0
H663 H 0.26222 0.82811 0.35733 0.0
H664 H 0.29231 0.86217 0.36782 0.0
H665 H 0.09438 0.87058 0.32099 0.0
H666 H 0.20053 0.92675 0.30199 0.0
N667 N 0.13813 0.84171 0.32881 0.0
C668 C 0.09587 0.83499 0.32845 0.0
C669 C 0.0996 0.8181 0.33127 0.0
C670 C 0.11346 0.85517 0.32504 0.0
C671 C 0.13462 0.85797 0.32514 0.0
C672 C 0.12091 0.82172 0.33126 0.0
N673 N 0.17183 0.87835 0.31941 0.0
C674 C 0.15209 0.87697 0.32027 0.0
C675 C 0.18679 0.91291 0.30723 0.0
C676 C 0.1669 0.91223 0.309 0.0
C677 C 0.18887 0.89557 0.3122 0.0
C678 C 0.14908 0.89392 0.31525 0.0
H679 H 0.16528 0.92561 0.30503 0.0
O680 O 0.18907 0.84855 0.30578 0.0
O681 O 0.20151 0.84767 0.34196 0.0
O682 O 0.20916 0.88086 0.36235 0.0
O683 O 0.18434 0.87939 0.34262 0.0
O684 O 0.21027 0.86942 0.32339 0.0
O685 O 0.15583 0.82505 0.31055 0.0
O686 O 0.19699 0.81968 0.381 0.0
O687 O 0.16762 0.83949 0.35463 0.0
O688 O 0.16023 0.81514 0.33802 0.0
O689 O 0.18884 0.81737 0.35289 0.0
O690 O 0.17123 0.85278 0.37739 0.0
O691 O 0.17941 0.834 0.39099 0.0
C692 C 0.21755 0.86203 0.33437 0.0
C693 C 0.12828 0.8917 0.31605 0.0
C694 C 0.11047 0.87233 0.32093 0.0
C695 C 0.1711 0.83328 0.29977 0.0
C696 C 0.16487 0.8373 0.28373 0.0
C697 C 0.15101 0.84582 0.28226 0.0
C698 C 0.1734 0.83323 0.26973 0.0
C699 C 0.16822 0.83771 0.25428 0.0
C700 C 0.14576 0.85025 0.26702 0.0
C701 C 0.1543 0.84626 0.2531 0.0
C702 C 0.19974 0.8895 0.35369 0.0
C703 C 0.15908 0.84626 0.3647 0.0
C704 C 0.18669 0.821 0.39351 0.0
C705 C 0.19629 0.82191 0.40966 0.0
C706 C 0.21261 0.81644 0.41149 0.0
C707 C 0.18911 0.82814 0.42342 0.0
C708 C 0.19822 0.82912 0.43881 0.0
C709 C 0.22164 0.81731 0.42669 0.0
C710 C 0.21454 0.82358 0.44026 0.0
C711 C 0.17101 0.80627 0.34413 0.0
H712 H 0.14425 0.84907 0.29288 0.0
H713 H 0.18436 0.82693 0.27089 0.0
H714 H 0.13503 0.85678 0.26598 0.0
H715 H 0.14979 0.84963 0.2414 0.0
H716 H 0.21843 0.81148 0.40119 0.0
H717 H 0.17664 0.83252 0.42211 0.0
H718 H 0.23416 0.81303 0.42798 0.0
H719 H 0.22163 0.82379 0.45193 0.0
Gd720 Gd 0.84181 0.68165 0.69717 0.0
Gd721 Gd 0.81893 0.65956 0.65653 0.0
C722 C 0.75632 0.6538 0.6356 0.0
C723 C 0.72911 0.61794 0.64343 0.0
C724 C 0.76724 0.63181 0.65028 0.0
C725 C 0.77248 0.65092 0.64321 0.0
C726 C 0.74558 0.61477 0.64997 0.0
C727 C 0.73447 0.63746 0.63626 0.0
C728 C 0.76275 0.67256 0.62691 0.0
C729 C 0.78489 0.68724 0.62521 0.0
N730 N 0.79375 0.66606 0.64253 0.0
C731 C 0.80027 0.68341 0.63277 0.0
H732 H 0.81737 0.6946 0.6312 0.0
C733 C 0.77976 0.60962 0.66076 0.0
N734 N 0.78365 0.62934 0.65624 0.0
C735 C 0.75858 0.59216 0.6606 0.0
C736 C 0.74132 0.59486 0.65554 0.0
H737 H 0.79285 0.60725 0.66481 0.0
H738 H 0.72176 0.63945 0.63068 0.0
H739 H 0.89263 0.69063 0.69235 0.0
H740 H 0.75085 0.67542 0.6209 0.0
H741 H 0.79012 0.70142 0.61799 0.0
H742 H 0.71233 0.60515 0.6433 0.0
H743 H 0.81221 0.69945 0.71638 0.0
H744 H 0.93737 0.75701 0.69924 0.0
H745 H 0.93019 0.7207 0.69284 0.0
H746 H 0.89167 0.78415 0.71721 0.0
H747 H 0.75557 0.5767 0.66455 0.0
H748 H 0.72493 0.58134 0.6555 0.0
H749 H 0.92276 0.7807 0.70802 0.0
H750 H 0.8164 0.73332 0.72643 0.0
N751 N 0.87833 0.70961 0.698 0.0
C752 C 0.92078 0.74383 0.69904 0.0
C753 C 0.9168 0.72336 0.69547 0.0
C754 C 0.90335 0.7469 0.70288 0.0
C755 C 0.88208 0.72919 0.70239 0.0
C756 C 0.8954 0.70632 0.69517 0.0
N757 N 0.84485 0.71332 0.70798 0.0
C758 C 0.86473 0.73112 0.70759 0.0
C759 C 0.83011 0.73297 0.72105 0.0
C760 C 0.85019 0.75166 0.71983 0.0
C761 C 0.82781 0.71377 0.71534 0.0
C762 C 0.86795 0.75082 0.71336 0.0
H763 H 0.85197 0.76649 0.72437 0.0
O764 O 0.82695 0.6665 0.72008 0.0
O765 O 0.81489 0.65515 0.68306 0.0
O766 O 0.80722 0.68203 0.66472 0.0
O767 O 0.83263 0.70371 0.68457 0.0
O768 O 0.80608 0.6671 0.7026 0.0
O769 O 0.85945 0.67356 0.71468 0.0
O770 O 0.82016 0.63525 0.64186 0.0
O771 O 0.84866 0.68043 0.67116 0.0
O772 O 0.85584 0.66216 0.6868 0.0
O773 O 0.82808 0.63797 0.67026 0.0
O774 O 0.84533 0.69238 0.6493 0.0
O775 O 0.8366 0.66771 0.63372 0.0
C776 C 0.79891 0.65351 0.69094 0.0
C777 C 0.88889 0.76882 0.713 0.0
C778 C 0.90658 0.76685 0.70776 0.0
C779 C 0.84439 0.66715 0.72562 0.0
C780 C 0.85142 0.6763 0.74196 0.0
C781 C 0.8659 0.69819 0.74394 0.0
C782 C 0.8435 0.6632 0.75571 0.0
C783 C 0.85025 0.6719 0.77138 0.0
C784 C 0.8725 0.70691 0.75939 0.0
C785 C 0.86479 0.69391 0.77301 0.0
C786 C 0.81704 0.69947 0.67384 0.0
C787 C 0.85746 0.69634 0.66189 0.0
C788 C 0.82996 0.64804 0.62986 0.0
C789 C 0.82034 0.64106 0.61347 0.0
C790 C 0.80229 0.62062 0.61098 0.0
C791 C 0.82944 0.65475 0.60008 0.0
C792 C 0.82079 0.64798 0.5844 0.0
C793 C 0.79363 0.61393 0.59547 0.0
C794 C 0.80285 0.62743 0.58226 0.0
C795 C 0.8454 0.64344 0.67946 0.0
H796 H 0.87214 0.70854 0.73356 0.0
H797 H 0.83239 0.64628 0.75419 0.0
H798 H 0.88362 0.72382 0.76081 0.0
H799 H 0.87002 0.70115 0.78487 0.0
H800 H 0.79484 0.60972 0.62097 0.0
H801 H 0.84343 0.6705 0.6018 0.0
H802 H 0.77974 0.59817 0.59369 0.0
H803 H 0.79578 0.62189 0.57035 0.0
Gd804 Gd 0.32386 0.15514 0.69617 0.0
Gd805 Gd 0.35401 0.15862 0.65858 0.0
C806 C 0.41529 0.15291 0.65884 0.0
C807 C 0.44326 0.18874 0.65157 0.0
C808 C 0.40545 0.17985 0.65346 0.0
C809 C 0.39953 0.15932 0.65793 0.0
C810 C 0.4273 0.19468 0.64986 0.0
C811 C 0.43726 0.16788 0.65604 0.0
C812 C 0.40841 0.13153 0.66204 0.0
C813 C 0.38624 0.11703 0.6637 0.0
N814 N 0.37814 0.14524 0.6604 0.0
C815 C 0.37122 0.12414 0.66264 0.0
H816 H 0.35416 0.11276 0.66403 0.0
C817 C 0.39419 0.20411 0.64531 0.0
N818 N 0.38959 0.18494 0.65172 0.0
C819 C 0.41565 0.21944 0.6417 0.0
C820 C 0.43233 0.21481 0.64418 0.0
H821 H 0.38133 0.20778 0.64346 0.0
H822 H 0.44964 0.16333 0.65689 0.0
H823 H 0.32289 0.20076 0.69201 0.0
H824 H 0.42001 0.12599 0.6629 0.0
H825 H 0.3807 0.10038 0.66589 0.0
H826 H 0.46018 0.19997 0.64902 0.0
H827 H 0.29722 0.10519 0.71001 0.0
H828 H 0.25687 0.18671 0.69492 0.0
H829 H 0.29598 0.21275 0.69148 0.0
H830 H 0.21774 0.11218 0.70713 0.0
H831 H 0.4193 0.23481 0.63701 0.0
H832 H 0.44893 0.22667 0.6413 0.0
H833 H 0.2277 0.14901 0.70038 0.0
H834 H 0.2595 0.07759 0.71643 0.0
N835 N 0.29933 0.16808 0.69535 0.0
C836 C 0.26863 0.18133 0.69517 0.0
C837 C 0.29069 0.19607 0.69326 0.0
C838 C 0.26207 0.15989 0.69778 0.0
C839 C 0.27805 0.15372 0.69797 0.0
C840 C 0.30592 0.18918 0.69356 0.0
N841 N 0.28852 0.12818 0.70296 0.0
C842 C 0.27246 0.13309 0.70187 0.0
C843 C 0.2629 0.09311 0.71229 0.0
C844 C 0.24602 0.09761 0.71051 0.0
C845 C 0.28424 0.10878 0.70869 0.0
C846 C 0.25073 0.11791 0.70551 0.0
H847 H 0.22952 0.08548 0.71339 0.0
O848 O 0.32964 0.14875 0.72079 0.0
O849 O 0.35183 0.15426 0.68514 0.0
O850 O 0.32743 0.1246 0.66441 0.0
O851 O 0.30177 0.12785 0.67987 0.0
O852 O 0.33617 0.13274 0.70336 0.0
O853 O 0.33352 0.17957 0.71468 0.0
O854 O 0.34894 0.16489 0.63372 0.0
O855 O 0.32638 0.15999 0.66966 0.0
O856 O 0.34987 0.18931 0.6902 0.0
O857 O 0.37569 0.1868 0.6743 0.0
O858 O 0.34177 0.18094 0.65101 0.0
O859 O 0.34423 0.1339 0.64031 0.0
C860 C 0.3523 0.13998 0.69347 0.0
C861 C 0.23456 0.12366 0.70452 0.0
C862 C 0.24023 0.14463 0.70068 0.0
C863 C 0.33328 0.16716 0.7262 0.0
C864 C 0.32184 0.16659 0.74113 0.0
C865 C 0.30018 0.16206 0.74079 0.0
C866 C 0.33256 0.1698 0.75604 0.0
C867 C 0.32166 0.16823 0.7706 0.0
C868 C 0.28927 0.16052 0.7552 0.0
C869 C 0.29988 0.16347 0.77006 0.0
C870 C 0.30738 0.11694 0.67008 0.0
C871 C 0.32597 0.1742 0.66117 0.0
C872 C 0.34525 0.14637 0.62856 0.0
C873 C 0.35735 0.14668 0.61406 0.0
C874 C 0.37798 0.14861 0.61532 0.0
C875 C 0.34832 0.14555 0.59872 0.0
C876 C 0.35983 0.14646 0.58459 0.0
C877 C 0.38954 0.14962 0.6014 0.0
C878 C 0.38061 0.14862 0.58613 0.0
C879 C 0.36978 0.19746 0.68412 0.0
H880 H 0.29168 0.15961 0.72944 0.0
H881 H 0.34924 0.17308 0.75631 0.0
H882 H 0.27253 0.15696 0.75485 0.0
H883 H 0.29116 0.16228 0.78111 0.0
H884 H 0.38516 0.14936 0.62699 0.0
H885 H 0.33222 0.1437 0.59783 0.0
H886 H 0.40552 0.15125 0.60247 0.0
H887 H 0.39006 0.14973 0.57553 0.0
Gd888 Gd 0.83932 0.18624 0.65875 0.0
Gd889 Gd 0.86222 0.18119 0.69792 0.0
C890 C 0.92967 0.18794 0.70099 0.0
C891 C 0.92103 0.15197 0.70785 0.0
C892 C 0.89211 0.16042 0.70454 0.0
C893 C 0.90727 0.18124 0.70086 0.0
C894 C 0.89884 0.14567 0.7085 0.0
C895 C 0.93643 0.17307 0.70408 0.0
C896 C 0.94461 0.20949 0.69843 0.0
C897 C 0.9371 0.22385 0.6964 0.0
N898 N 0.90017 0.1952 0.69804 0.0
C899 C 0.91472 0.21644 0.69643 0.0
H900 H 0.9092 0.22772 0.69475 0.0
C901 C 0.85563 0.1355 0.71105 0.0
N902 N 0.87087 0.15496 0.70525 0.0
C903 C 0.86146 0.12025 0.71501 0.0
C904 C 0.88312 0.12526 0.71351 0.0
H905 H 0.83885 0.13157 0.71212 0.0
H906 H 0.95355 0.17787 0.70402 0.0
H907 H 0.79129 0.14082 0.66274 0.0
H908 H 0.96195 0.21527 0.69836 0.0
H909 H 0.94854 0.24062 0.6947 0.0
H910 H 0.92651 0.14081 0.71068 0.0
H911 H 0.86324 0.23376 0.64108 0.0
H912 H 0.74013 0.15547 0.65874 0.0
H913 H 0.7523 0.12927 0.66308 0.0
H914 H 0.77758 0.22891 0.64322 0.0
H915 H 0.84926 0.10467 0.71919 0.0
H916 H 0.88762 0.11345 0.71665 0.0
H917 H 0.74979 0.1929 0.65168 0.0
H918 H 0.854 0.26087 0.63221 0.0
N919 N 0.80149 0.17351 0.65876 0.0
C920 C 0.75734 0.16067 0.65858 0.0
C921 C 0.76414 0.14584 0.66098 0.0
C922 C 0.77281 0.18189 0.6554 0.0
C923 C 0.79502 0.18782 0.65543 0.0
C924 C 0.78636 0.15249 0.66077 0.0
N925 N 0.83147 0.21244 0.64975 0.0
C926 C 0.81056 0.20801 0.65076 0.0
C927 C 0.84164 0.24613 0.63752 0.0
C928 C 0.82046 0.24238 0.63947 0.0
C929 C 0.84681 0.23074 0.64253 0.0
C930 C 0.80448 0.22292 0.64584 0.0
H931 H 0.81646 0.25426 0.63552 0.0
O932 O 0.85363 0.19199 0.63476 0.0
O933 O 0.86697 0.18646 0.67152 0.0
O934 O 0.87053 0.21536 0.69317 0.0
O935 O 0.84681 0.21544 0.67329 0.0
O936 O 0.87504 0.20852 0.6534 0.0
O937 O 0.82509 0.16173 0.64019 0.0
O938 O 0.84814 0.17308 0.72196 0.0
O939 O 0.83457 0.18133 0.68535 0.0
O940 O 0.82942 0.15196 0.66494 0.0
O941 O 0.85637 0.15354 0.68209 0.0
O942 O 0.82664 0.15862 0.70309 0.0
O943 O 0.87573 0.20445 0.71738 0.0
C944 C 0.88279 0.20098 0.66394 0.0
C945 C 0.78256 0.21758 0.64675 0.0
C946 C 0.76673 0.19708 0.65155 0.0
C947 C 0.83852 0.17381 0.62903 0.0
C948 C 0.82884 0.17467 0.61349 0.0
C949 C 0.81122 0.17833 0.61295 0.0
C950 C 0.83758 0.17212 0.599 0.0
C951 C 0.82876 0.17314 0.58395 0.0
C952 C 0.80246 0.17949 0.5981 0.0
C953 C 0.81113 0.17692 0.58367 0.0
C954 C 0.86112 0.22455 0.6852 0.0
C955 C 0.81886 0.1666 0.69293 0.0
C956 C 0.8626 0.19126 0.72822 0.0
C957 C 0.87253 0.19011 0.74355 0.0
C958 C 0.89003 0.18627 0.74369 0.0
C959 C 0.8642 0.19265 0.75826 0.0
C960 C 0.87325 0.19132 0.77313 0.0
C961 C 0.89902 0.18481 0.75834 0.0
C962 C 0.8907 0.18727 0.77298 0.0
C963 C 0.84021 0.14333 0.67165 0.0
H964 H 0.80422 0.18026 0.62396 0.0
H965 H 0.85104 0.16904 0.59949 0.0
H966 H 0.78891 0.1824 0.59776 0.0
H967 H 0.80417 0.17809 0.5723 0.0
H968 H 0.89676 0.18441 0.73252 0.0
H969 H 0.85088 0.19593 0.75808 0.0
H970 H 0.91245 0.18173 0.75836 0.0
H971 H 0.89781 0.18579 0.78417 0.0
C972 C 0.28752 0.82964 0.05602 0.0
C973 C 0.28647 0.82514 0.07267 0.0
C974 C 0.30627 0.84678 0.0494 0.0
C975 C 0.35287 0.8982 0.0616 0.0
H976 H 0.37934 0.89541 0.02133 0.0
C977 C 0.43994 0.95058 0.02806 0.0
C978 C 0.44252 0.97101 0.02971 0.0
C979 C 0.41982 0.93246 0.03119 0.0
C980 C 0.37209 0.89639 0.03259 0.0
H981 H 0.30484 0.83432 0.09517 0.0
H982 H 0.33724 0.86417 0.08371 0.0
H983 H 0.34649 0.86374 0.03111 0.0
H984 H 0.42639 0.98864 0.03605 0.0
H985 H 0.39122 0.95704 0.04153 0.0
H986 H 0.37846 0.93057 0.06334 0.0
C987 C 0.32346 0.85476 0.07582 0.0
C988 C 0.35324 0.87834 0.03812 0.0
C989 C 0.30486 0.83766 0.08239 0.0
C990 C 0.4247 0.97303 0.03453 0.0
C991 C 0.40464 0.95497 0.03772 0.0
C992 C 0.37152 0.9162 0.05604 0.0
C993 C 0.32427 0.85977 0.05932 0.0
C994 C 0.34361 0.879 0.05282 0.0
C995 C 0.40206 0.93448 0.03635 0.0
C996 C 0.38148 0.91549 0.04156 0.0
H997 H 0.27362 0.82037 0.0482 0.0
H998 H 0.30641 0.8503 0.03665 0.0
H999 H 0.34568 0.89931 0.07286 0.0
H1000 H 0.45357 0.94859 0.02479 0.0
H1001 H 0.41844 0.91693 0.03023 0.0
C1002 C 0.1905 0.47849 0.06174 0.0
C1003 C 0.18717 0.45926 0.06841 0.0
C1004 C 0.17279 0.48037 0.0562 0.0
C1005 C 0.11309 0.45528 0.062 0.0
H1006 H 0.11531 0.48853 0.02462 0.0
C1007 C 0.03646 0.45497 0.03771 0.0
C1008 C 0.0388 0.47434 0.03232 0.0
C1009 C 0.05478 0.45324 0.04148 0.0
C1010 C 0.1145 0.47934 0.03518 0.0
H1011 H 0.16285 0.42653 0.07343 0.0
H1012 H 0.13219 0.42964 0.06358 0.0
H1013 H 0.14699 0.48519 0.03166 0.0
H1014 H 0.06206 0.50757 0.02793 0.0
H1015 H 0.09407 0.50462 0.03441 0.0
H1016 H 0.08072 0.44945 0.06558 0.0
C1017 C 0.14831 0.44352 0.06307 0.0
C1018 C 0.13268 0.47743 0.03922 0.0
C1019 C 0.16592 0.44169 0.06865 0.0
C1020 C 0.05978 0.49222 0.03144 0.0
C1021 C 0.07813 0.49053 0.03521 0.0
C1022 C 0.09497 0.45716 0.05795 0.0
C1023 C 0.15138 0.46301 0.05714 0.0
C1024 C 0.13218 0.46528 0.05266 0.0
C1025 C 0.07588 0.47099 0.04023 0.0
C1026 C 0.09537 0.46915 0.04447 0.0
H1027 H 0.20666 0.49234 0.06147 0.0
H1028 H 0.1758 0.49565 0.05178 0.0
H1029 H 0.11221 0.44621 0.07265 0.0
H1030 H 0.02043 0.44105 0.03878 0.0
H1031 H 0.0524 0.43791 0.04522 0.0
C1032 C 0.58403 0.73396 0.06573 0.0
C1033 C 0.56748 0.73897 0.068 0.0
C1034 C 0.57935 0.71457 0.05877 0.0
C1035 C 0.53558 0.6599 0.05422 0.0
H1036 H 0.57239 0.65616 0.02125 0.0
C1037 C 0.53383 0.58149 0.03794 0.0
C1038 C 0.53266 0.57671 0.02136 0.0
C1039 C 0.53772 0.6015 0.04306 0.0
C1040 C 0.56193 0.65699 0.0304 0.0
H1041 H 0.53317 0.72789 0.06462 0.0
H1042 H 0.52486 0.69364 0.05258 0.0
H1043 H 0.57944 0.69111 0.03058 0.0
H1044 H 0.53584 0.58935 0.99721 0.0
H1045 H 0.54262 0.62429 0.00607 0.0
H1046 H 0.51827 0.62577 0.05421 0.0
C1047 C 0.54145 0.70481 0.05616 0.0
C1048 C 0.56602 0.67694 0.03578 0.0
C1049 C 0.54621 0.72439 0.06292 0.0
C1050 C 0.53606 0.59242 0.01001 0.0
C1051 C 0.54022 0.6125 0.0151 0.0
C1052 C 0.53166 0.63994 0.04898 0.0
C1053 C 0.55798 0.69968 0.05413 0.0
C1054 C 0.55293 0.67858 0.04778 0.0
C1055 C 0.54087 0.61716 0.03167 0.0
C1056 C 0.54485 0.6383 0.03707 0.0
H1057 H 0.60059 0.74502 0.06947 0.0
H1058 H 0.59236 0.71095 0.05745 0.0
H1059 H 0.52537 0.66073 0.06358 0.0
H1060 H 0.53124 0.56961 0.04695 0.0
H1061 H 0.5384 0.60477 0.05592 0.0
C1062 C 0.82314 0.27262 0.97246 0.0
C1063 C 0.81818 0.27036 0.95581 0.0
C1064 C 0.83906 0.29228 0.97882 0.0
C1065 C 0.88878 0.33986 0.96643 0.0
H1066 H 0.88207 0.36687 0.0048 0.0
C1067 C 0.9537 0.42516 0.98486 0.0
C1068 C 0.95714 0.43043 0.00137 0.0
C1069 C 0.9366 0.4054 0.97982 0.0
C1070 C 0.88439 0.3594 0.99422 0.0
H1071 H 0.82487 0.28743 0.93307 0.0
H1072 H 0.85287 0.32141 0.9441 0.0
H1073 H 0.8518 0.33287 0.99547 0.0
H1074 H 0.94627 0.41875 0.02556 0.0
H1075 H 0.91675 0.38409 0.01694 0.0
H1076 H 0.92141 0.36582 0.96528 0.0
C1077 C 0.84469 0.30794 0.95217 0.0
C1078 C 0.86697 0.33997 0.98885 0.0
C1079 C 0.82867 0.28845 0.94587 0.0
C1080 C 0.94358 0.41534 0.01277 0.0
C1081 C 0.92665 0.39545 0.00777 0.0
C1082 C 0.90627 0.35907 0.97191 0.0
C1083 C 0.85041 0.30995 0.96862 0.0
C1084 C 0.86893 0.33016 0.97479 0.0
C1085 C 0.92275 0.39026 0.9912 0.0
C1086 C 0.90428 0.36928 0.98577 0.0
H1087 H 0.81547 0.25901 0.98044 0.0
H1088 H 0.84318 0.29342 0.99157 0.0
H1089 H 0.89086 0.33244 0.9557 0.0
H1090 H 0.96382 0.4366 0.9758 0.0
H1091 H 0.93398 0.40224 0.96695 0.0
C1092 C 0.72928 0.56429 0.95426 0.0
C1093 C 0.73233 0.54655 0.95424 0.0
C1094 C 0.71017 0.56275 0.96033 0.0
C1095 C 0.66079 0.52926 0.98514 0.0
H1096 H 0.6371 0.5582 0.96006 0.0
C1097 C 0.57306 0.51552 0.99376 0.0
C1098 C 0.57057 0.53355 0.99287 0.0
C1099 C 0.59317 0.51709 0.99033 0.0
C1100 C 0.64359 0.55023 0.96735 0.0
H1101 H 0.71787 0.51342 0.96114 0.0
H1102 H 0.68429 0.51062 0.97164 0.0
H1103 H 0.67129 0.5609 0.95204 0.0
H1104 H 0.58685 0.56713 0.98722 0.0
H1105 H 0.62195 0.56999 0.98133 0.0
H1106 H 0.6327 0.51839 1.00034 0.0
C1107 C 0.69683 0.52583 0.96708 0.0
C1108 C 0.66328 0.5518 0.96275 0.0
C1109 C 0.71608 0.52741 0.96105 0.0
C1110 C 0.58843 0.55305 0.98821 0.0
C1111 C 0.60848 0.55464 0.98475 0.0
C1112 C 0.64097 0.52764 0.98974 0.0
C1113 C 0.69343 0.54338 0.9665 0.0
C1114 C 0.67228 0.54145 0.9716 0.0
C1115 C 0.61109 0.53664 0.98562 0.0
C1116 C 0.63217 0.5382 0.98092 0.0
H1117 H 0.74164 0.57939 0.94941 0.0
H1118 H 0.70846 0.57678 0.96006 0.0
H1119 H 0.66727 0.52122 0.99234 0.0
H1120 H 0.55941 0.50012 0.99682 0.0
H1121 H 0.59449 0.50285 0.99091 0.0
C1122 C 0.44393 0.17423 0.97167 0.0
C1123 C 0.45036 0.1811 0.95571 0.0
C1124 C 0.44855 0.15941 0.97872 0.0
C1125 C 0.48489 0.13715 0.97587 0.0
H1126 H 0.43793 0.08741 0.99648 0.0
C1127 C 0.49824 0.07431 0.00865 0.0
C1128 C 0.48366 0.05303 0.00434 0.0
C1129 C 0.49426 0.09054 0.00393 0.0
C1130 C 0.45118 0.10124 0.99077 0.0
H1131 H 0.46715 0.1784 0.93476 0.0
H1132 H 0.47536 0.1526 0.94711 0.0
H1133 H 0.43134 0.11521 0.9859 0.0
H1134 H 0.45327 0.03205 0.99197 0.0
H1135 H 0.4463 0.06045 0.9838 0.0
H1136 H 0.50466 0.12308 0.98056 0.0
C1137 C 0.46672 0.15863 0.95415 0.0
C1138 C 0.44747 0.11719 0.98485 0.0
C1139 C 0.46188 0.17324 0.94704 0.0
C1140 C 0.46484 0.04828 0.99545 0.0
C1141 C 0.46076 0.06451 0.99087 0.0
C1142 C 0.48866 0.12132 0.98196 0.0
C1143 C 0.45992 0.15142 0.96999 0.0
C1144 C 0.46422 0.13517 0.97717 0.0
C1145 C 0.47554 0.08581 0.99493 0.0
C1146 C 0.47178 0.1031 0.9893 0.0
H1147 H 0.43491 0.17997 0.97857 0.0
H1148 H 0.44325 0.1542 0.99099 0.0
H1149 H 0.49812 0.15092 0.9701 0.0
H1150 H 0.51297 0.07854 0.01541 0.0
H1151 H 0.50583 0.10682 0.00732 0.0
C1152 C 0.71403 0.16135 0.97069 0.0
C1153 C 0.71834 0.18226 0.97331 0.0
C1154 C 0.69412 0.14397 0.97526 0.0
C1155 C 0.64462 0.12805 1.00017 0.0
H1156 H 0.61949 0.07978 0.97073 0.0
C1157 C 0.55497 0.05847 0.00319 0.0
C1158 C 0.55178 0.03784 0.00124 0.0
C1159 C 0.57562 0.07631 0.00105 0.0
C1160 C 0.62638 0.09303 0.97917 0.0
H1161 H 0.70548 0.20141 0.98313 0.0
H1162 H 0.67036 0.17103 0.99078 0.0
H1163 H 0.6547 0.11048 0.96466 0.0
H1164 H 0.56728 0.0196 0.995 0.0
H1165 H 0.60338 0.05072 0.99119 0.0
H1166 H 0.61578 0.11052 0.01446 0.0
C1167 C 0.68248 0.16801 0.98542 0.0
C1168 C 0.64664 0.11066 0.97573 0.0
C1169 C 0.70254 0.18544 0.98097 0.0
C1170 C 0.56945 0.03535 0.99681 0.0
C1171 C 0.59003 0.05315 0.99457 0.0
C1172 C 0.62419 0.11042 0.00355 0.0
C1173 C 0.6779 0.14703 0.98242 0.0
C1174 C 0.65614 0.12837 0.98622 0.0
C1175 C 0.59332 0.07383 0.99654 0.0
C1176 C 0.61493 0.09267 0.99312 0.0
H1177 H 0.72598 0.15834 0.96503 0.0
H1178 H 0.69144 0.12809 0.97311 0.0
H1179 H 0.65149 0.14129 0.00862 0.0
H1180 H 0.54147 0.06086 0.00606 0.0
H1181 H 0.57758 0.09204 0.00244 0.0
C1182 C 0.83 0.52622 0.96773 0.0
C1183 C 0.82404 0.52224 0.9513 0.0
C1184 C 0.84775 0.52465 0.97366 0.0
C1185 C 0.89856 0.52751 0.95965 0.0
H1186 H 0.89675 0.4992 0.99988 0.0
C1187 C 0.95167 0.4934 0.99409 0.0
C1188 C 0.9727 0.51113 0.99278 0.0
C1189 C 0.93337 0.49501 0.98992 0.0
C1190 C 0.89746 0.5071 0.98859 0.0
H1191 H 0.83167 0.51317 0.9283 0.0
H1192 H 0.86246 0.5105 0.93853 0.0
H1193 H 0.86484 0.5014 0.99116 0.0
H1194 H 0.99118 0.54405 0.98532 0.0
H1195 H 0.95931 0.54694 0.97802 0.0
H1196 H 0.93097 0.53307 0.95693 0.0
C1197 C 0.85367 0.515 0.94686 0.0
C1198 C 0.87927 0.50854 0.98368 0.0
C1199 C 0.83593 0.51641 0.94101 0.0
C1200 C 0.97512 0.53025 0.98667 0.0
C1201 C 0.95688 0.53185 0.98244 0.0
C1202 C 0.91674 0.52626 0.96461 0.0
C1203 C 0.85997 0.51929 0.96321 0.0
C1204 C 0.87953 0.51857 0.96904 0.0
C1205 C 0.93576 0.51427 0.98404 0.0
C1206 C 0.91641 0.51592 0.97908 0.0
H1207 H 0.82113 0.53074 0.97596 0.0
H1208 H 0.85224 0.52813 0.98631 0.0
H1209 H 0.89943 0.53556 0.94841 0.0
H1210 H 0.94937 0.47827 0.99829 0.0
H1211 H 0.91738 0.48107 0.99104 0.0
C1212 C 0.43113 0.29029 0.95619 0.0
C1213 C 0.44296 0.28009 0.9599 0.0
C1214 C 0.4388 0.31134 0.96096 0.0
C1215 C 0.47573 0.35273 0.98966 0.0
H1216 H 0.47153 0.39084 0.95885 0.0
C1217 C 0.51295 0.4432 0.00154 0.0
C1218 C 0.5 0.45207 0.99715 0.0
C1219 C 0.50681 0.42231 0.99711 0.0
C1220 C 0.47263 0.38035 0.96765 0.0
H1221 H 0.47201 0.28373 0.97169 0.0
H1222 H 0.48552 0.32064 0.98 0.0
H1223 H 0.4592 0.35411 0.95107 0.0
H1224 H 0.47048 0.44592 0.98459 0.0
H1225 H 0.45977 0.40958 0.97698 0.0
H1226 H 0.48905 0.37902 0.00628 0.0
C1227 C 0.4702 0.31229 0.97349 0.0
C1228 C 0.46557 0.35931 0.96319 0.0
C1229 C 0.46252 0.2912 0.96868 0.0
C1230 C 0.48088 0.43965 0.98816 0.0
C1231 C 0.47477 0.41882 0.98372 0.0
C1232 C 0.48279 0.37382 0.99414 0.0
C1233 C 0.45851 0.32264 0.96956 0.0
C1234 C 0.46682 0.3452 0.9742 0.0
C1235 C 0.48768 0.40992 0.98811 0.0
C1236 C 0.48111 0.38779 0.98322 0.0
H1237 H 0.41597 0.28201 0.94947 0.0
H1238 H 0.42924 0.31875 0.95797 0.0
H1239 H 0.47673 0.34217 0.99845 0.0
H1240 H 0.52799 0.45245 0.00822 0.0
H1241 H 0.51724 0.41599 1.0005 0.0
C1242 C 0.18715 0.71233 0.05697 0.0
C1243 C 0.1932 0.71282 0.07325 0.0
C1244 C 0.16997 0.69369 0.05026 0.0
C1245 C 0.14105 0.64845 0.03716 0.0
H1246 H 0.09035 0.61451 0.06376 0.0
C1247 C 0.07667 0.56179 0.02103 0.0
C1248 C 0.05469 0.55488 0.02429 0.0
C1249 C 0.09305 0.58192 0.02603 0.0
C1250 C 0.10425 0.62389 0.05608 0.0
H1251 H 0.18637 0.6943 0.09518 0.0
H1252 H 0.15671 0.66177 0.0835 0.0
H1253 H 0.11976 0.64808 0.0742 0.0
H1254 H 0.03272 0.56391 0.03528 0.0
H1255 H 0.06132 0.59913 0.04393 0.0
H1256 H 0.12539 0.6243 0.01898 0.0
C1257 C 0.16487 0.67578 0.07595 0.0
C1258 C 0.12126 0.64303 0.06215 0.0
C1259 C 0.18198 0.69435 0.08261 0.0
C1260 C 0.04947 0.56868 0.0326 0.0
C1261 C 0.06589 0.58885 0.03761 0.0
C1262 C 0.12401 0.62928 0.03108 0.0
C1263 C 0.15852 0.67523 0.05973 0.0
C1264 C 0.13999 0.65543 0.05285 0.0
C1265 C 0.08789 0.59567 0.03448 0.0
C1266 C 0.10549 0.61666 0.04053 0.0
H1267 H 0.19547 0.72637 0.04946 0.0
H1268 H 0.16539 0.69385 0.03777 0.0
H1269 H 0.15527 0.65754 0.02971 0.0
H1270 H 0.08135 0.55147 0.01491 0.0
H1271 H 0.10982 0.58647 0.02365 0.0
C1272 C 0.32124 0.487 0.07968 0.0
C1273 C 0.30305 0.48148 0.06977 0.0
C1274 C 0.34033 0.48895 0.07323 0.0
C1275 C 0.37167 0.49738 0.03573 0.0
H1276 H 0.39882 0.47145 0.06053 0.0
C1277 C 0.45981 0.51293 0.02453 0.0
C1278 C 0.46274 0.49516 0.02557 0.0
C1279 C 0.43966 0.51106 0.02837 0.0
C1280 C 0.39141 0.47866 0.05337 0.0
H1281 H 0.29079 0.47415 0.04515 0.0
H1282 H 0.32443 0.47769 0.03376 0.0
H1283 H 0.36498 0.46854 0.06994 0.0
H1284 H 0.44719 0.46175 0.03171 0.0
H1285 H 0.41213 0.45844 0.03839 0.0
H1286 H 0.39836 0.50753 0.01915 0.0
C1287 C 0.32381 0.48051 0.04658 0.0
C1288 C 0.37208 0.47716 0.05886 0.0
C1289 C 0.30453 0.4784 0.0531 0.0
C1290 C 0.44528 0.47563 0.03065 0.0
C1291 C 0.42525 0.47377 0.03454 0.0
C1292 C 0.39122 0.49905 0.03028 0.0
C1293 C 0.34184 0.48552 0.05664 0.0
C1294 C 0.362 0.4866 0.05019 0.0
C1295 C 0.42221 0.4915 0.03363 0.0
C1296 C 0.40132 0.4897 0.03907 0.0
H1297 H 0.32061 0.48956 0.09255 0.0
H1298 H 0.35397 0.49315 0.08129 0.0
H1299 H 0.36438 0.5049 0.02881 0.0
H1300 H 0.47317 0.52831 0.02104 0.0
H1301 H 0.43795 0.52508 0.02771 0.0
C1302 C 0.58046 0.86416 0.06867 0.0
C1303 C 0.56875 0.84215 0.06578 0.0
C1304 C 0.57325 0.87738 0.06234 0.0
C1305 C 0.52438 0.8772 0.04701 0.0
H1306 H 0.56673 0.93274 0.03057 0.0
C1307 C 0.5006 0.9366 0.01971 0.0
C1308 C 0.51327 0.95781 0.02502 0.0
C1309 C 0.50686 0.92157 0.02332 0.0
C1310 C 0.55472 0.91732 0.0352 0.0
H1311 H 0.54024 0.81658 0.054 0.0
H1312 H 0.52766 0.83978 0.04279 0.0
H1313 H 0.57861 0.90805 0.03924 0.0
H1314 H 0.54235 0.97977 0.03843 0.0
H1315 H 0.55312 0.95364 0.04477 0.0
H1316 H 0.50054 0.88666 0.04309 0.0
C1317 C 0.54235 0.84679 0.05008 0.0
C1318 C 0.56152 0.90319 0.04018 0.0
C1319 C 0.54961 0.83353 0.05643 0.0
C1320 C 0.53224 0.96363 0.03408 0.0
C1321 C 0.53852 0.94867 0.03762 0.0
C1322 C 0.51756 0.89136 0.04198 0.0
C1323 C 0.55414 0.86888 0.05294 0.0
C1324 C 0.54651 0.88312 0.04643 0.0
C1325 C 0.52595 0.92749 0.03226 0.0
C1326 C 0.53274 0.91172 0.0363 0.0
H1327 H 0.59521 0.87116 0.07592 0.0
H1328 H 0.5825 0.89427 0.06502 0.0
H1329 H 0.51244 0.86192 0.05189 0.0
H1330 H 0.48574 0.93152 0.01288 0.0
H1331 H 0.49688 0.90537 0.019 0.0
C1332 C 0.95339 0.182 0.39975 0.0
C1333 C 0.94971 0.16112 0.40109 0.0
C1334 C 0.97212 0.19784 0.39225 0.0
C1335 C 0.02839 0.21211 0.38334 0.0
H1336 H 0.02771 0.25597 0.35695 0.0
C1337 C 0.10768 0.28285 0.3586 0.0
C1338 C 0.10935 0.30293 0.35992 0.0
C1339 C 0.08772 0.26428 0.36107 0.0
C1340 C 0.02819 0.2439 0.36436 0.0
H1341 H 0.96262 0.14041 0.39526 0.0
H1342 H 0.99539 0.16813 0.38206 0.0
H1343 H 0.99342 0.22561 0.36578 0.0
H1344 H 0.09185 0.31949 0.3654 0.0
H1345 H 0.05701 0.28716 0.36991 0.0
H1346 H 0.06312 0.23066 0.38235 0.0
C1347 C 0.98379 0.17223 0.38692 0.0
C1348 C 0.00854 0.2265 0.3694 0.0
C1349 C 0.96494 0.15632 0.39435 0.0
C1350 C 0.09082 0.30415 0.36398 0.0
C1351 C 0.07087 0.28562 0.36646 0.0
C1352 C 0.04804 0.22955 0.37834 0.0
C1353 C 0.9877 0.19323 0.38595 0.0
C1354 C 0.00842 0.21059 0.3792 0.0
C1355 C 0.06909 0.26544 0.36517 0.0
C1356 C 0.04819 0.24587 0.36905 0.0
H1357 H 0.94184 0.18615 0.40466 0.0
H1358 H 0.97471 0.21388 0.39186 0.0
H1359 H 0.0289 0.20028 0.39102 0.0
H1360 H 0.12184 0.28147 0.35593 0.0
H1361 H 0.08691 0.24902 0.35989 0.0
C1362 C 0.85783 0.80686 0.40056 0.0
C1363 C 0.85349 0.7875 0.40766 0.0
C1364 C 0.84074 0.80964 0.39481 0.0
C1365 C 0.78117 0.78717 0.40002 0.0
H1366 H 0.78515 0.8188 0.36115 0.0
C1367 C 0.706 0.78675 0.37295 0.0
C1368 C 0.70856 0.80609 0.36725 0.0
C1369 C 0.72414 0.78497 0.37718 0.0
C1370 C 0.78387 0.81009 0.37212 0.0
H1371 H 0.82789 0.75549 0.41331 0.0
H1372 H 0.79836 0.76019 0.40321 0.0
H1373 H 0.8161 0.81483 0.36949 0.0
H1374 H 0.73208 0.83911 0.3624 0.0
H1375 H 0.76387 0.83601 0.36964 0.0
H1376 H 0.74903 0.78235 0.40267 0.0
C1377 C 0.81481 0.77351 0.40251 0.0
C1378 C 0.80162 0.80783 0.37692 0.0
C1379 C 0.83179 0.77078 0.40829 0.0
C1380 C 0.72965 0.82381 0.36625 0.0
C1381 C 0.74785 0.82204 0.37045 0.0
C1382 C 0.76348 0.78938 0.39522 0.0
C1383 C 0.81895 0.79309 0.39597 0.0
C1384 C 0.80044 0.79617 0.39088 0.0
C1385 C 0.74531 0.8026 0.37604 0.0
C1386 C 0.7645 0.80073 0.38116 0.0
H1387 H 0.87435 0.82006 0.39993 0.0
H1388 H 0.84458 0.82497 0.38992 0.0
H1389 H 0.77977 0.77854 0.41105 0.0
H1390 H 0.6899 0.77293 0.37405 0.0
H1391 H 0.72156 0.76971 0.38131 0.0
C1392 C 0.22616 0.05709 0.407 0.0
C1393 C 0.23742 0.07537 0.39743 0.0
C1394 C 0.2215 0.03723 0.40107 0.0
C1395 C 0.21829 0.0069 0.36412 0.0
H1396 H 0.22926 0.97271 0.39467 0.0
C1397 C 0.21599 0.92793 0.3468 0.0
C1398 C 0.20512 0.91123 0.35781 0.0
C1399 C 0.22032 0.94847 0.35076 0.0
C1400 C 0.22597 0.98199 0.38603 0.0
H1401 H 0.25178 0.08717 0.37391 0.0
H1402 H 0.24376 0.0523 0.36349 0.0
H1403 H 0.23515 0.00742 0.40295 0.0
H1404 H 0.18911 0.90224 0.38103 0.0
H1405 H 0.19703 0.93807 0.3882 0.0
H1406 H 0.20912 0.98127 0.3472 0.0
C1407 C 0.23841 0.05334 0.37556 0.0
C1408 C 0.22928 0.00186 0.39078 0.0
C1409 C 0.24299 0.07328 0.38149 0.0
C1410 C 0.19829 0.91512 0.37266 0.0
C1411 C 0.20269 0.93557 0.37668 0.0
C1412 C 0.215 0.98695 0.35935 0.0
C1413 C 0.22811 0.03521 0.38545 0.0
C1414 C 0.22518 0.01441 0.37998 0.0
C1415 C 0.21382 0.9525 0.36581 0.0
C1416 C 0.21854 0.9742 0.37035 0.0
H1417 H 0.22134 0.05823 0.41923 0.0
H1418 H 0.21304 0.02348 0.40884 0.0
H1419 H 0.21493 0.01618 0.35555 0.0
H1420 H 0.2213 0.92513 0.33523 0.0
H1421 H 0.22899 0.96123 0.34218 0.0
C1422 C 0.50142 0.62374 0.2757 0.0
C1423 C 0.48806 0.60612 0.28547 0.0
C1424 C 0.51804 0.64248 0.28253 0.0
C1425 C 0.53674 0.67422 0.31956 0.0
H1426 H 0.59392 0.69764 0.30028 0.0
C1427 C 0.61177 0.74806 0.34677 0.0
C1428 C 0.62703 0.76279 0.33595 0.0
C1429 C 0.59507 0.72835 0.34126 0.0
C1430 C 0.57803 0.69154 0.3057 0.0
H1431 H 0.48131 0.59482 0.31025 0.0
H1432 H 0.51009 0.62796 0.32223 0.0
H1433 H 0.56372 0.66484 0.28949 0.0
H1434 H 0.63684 0.76845 0.3108 0.0
H1435 H 0.60747 0.73443 0.30105 0.0
H1436 H 0.55077 0.70122 0.33544 0.0
C1437 C 0.5077 0.62702 0.30923 0.0
C1438 C 0.56075 0.67267 0.29954 0.0
C1439 C 0.49118 0.60809 0.30236 0.0
C1440 C 0.62544 0.75732 0.31949 0.0
C1441 C 0.6086 0.73774 0.31391 0.0
C1442 C 0.55398 0.69329 0.3256 0.0
C1443 C 0.52153 0.64424 0.29933 0.0
C1444 C 0.53991 0.66389 0.30634 0.0
C1445 C 0.5931 0.72299 0.32471 0.0
C1446 C 0.57485 0.70229 0.31868 0.0
H1447 H 0.49914 0.62306 0.2627 0.0
H1448 H 0.5282 0.65567 0.27465 0.0
H1449 H 0.52079 0.66786 0.32494 0.0
H1450 H 0.6129 0.75158 0.35954 0.0
H1451 H 0.58381 0.71727 0.35002 0.0
C1452 C 0.40015 0.8975 0.29666 0.0
C1453 C 0.40169 0.87922 0.29372 0.0
C1454 C 0.38108 0.89585 0.30298 0.0
C1455 C 0.32728 0.85744 0.32183 0.0
H1456 H 0.31144 0.89829 0.30615 0.0
C1457 C 0.24029 0.84616 0.32639 0.0
C1458 C 0.23894 0.86358 0.33244 0.0
C1459 C 0.26056 0.84818 0.32292 0.0
C1460 C 0.31573 0.88688 0.31075 0.0
H1461 H 0.38461 0.84486 0.29531 0.0
H1462 H 0.35098 0.84175 0.30579 0.0
H1463 H 0.34578 0.90137 0.2979 0.0
H1464 H 0.25731 0.89705 0.33858 0.0
H1465 H 0.2929 0.90069 0.33249 0.0
H1466 H 0.29653 0.8425 0.33411 0.0
C1467 C 0.36465 0.85751 0.30369 0.0
C1468 C 0.33555 0.88868 0.30611 0.0
C1469 C 0.38393 0.85923 0.29763 0.0
C1470 C 0.25808 0.88327 0.33437 0.0
C1471 C 0.27835 0.88536 0.33078 0.0
C1472 C 0.30727 0.85545 0.32625 0.0
C1473 C 0.36279 0.8758 0.30623 0.0
C1474 C 0.34171 0.87401 0.31157 0.0
C1475 C 0.27982 0.86782 0.32504 0.0
C1476 C 0.30128 0.87015 0.32075 0.0
H1477 H 0.41368 0.91313 0.29387 0.0
H1478 H 0.38069 0.91039 0.30517 0.0
H1479 H 0.33145 0.84602 0.32657 0.0
H1480 H 0.22563 0.83102 0.32428 0.0
H1481 H 0.26114 0.8345 0.31826 0.0
C1482 C 0.11217 0.5093 0.30591 0.0
C1483 C 0.11477 0.51493 0.28943 0.0
C1484 C 0.11683 0.49385 0.31156 0.0
C1485 C 0.11919 0.44713 0.29803 0.0
H1486 H 0.15362 0.45573 0.3368 0.0
C1487 C 0.14634 0.38755 0.31729 0.0
C1488 C 0.14728 0.38406 0.3339 0.0
C1489 C 0.14239 0.40359 0.31197 0.0
C1490 C 0.14369 0.45292 0.32608 0.0
H1491 H 0.1252 0.5093 0.26616 0.0
H1492 H 0.1328 0.48199 0.27601 0.0
H1493 H 0.14702 0.48395 0.32749 0.0
H1494 H 0.14364 0.39374 0.3579 0.0
H1495 H 0.13636 0.42147 0.34877 0.0
H1496 H 0.11535 0.41599 0.29673 0.0
C1497 C 0.12697 0.48944 0.28447 0.0
C1498 C 0.14001 0.46913 0.32074 0.0
C1499 C 0.12255 0.50503 0.27884 0.0
C1500 C 0.14366 0.39651 0.34509 0.0
C1501 C 0.13945 0.4124 0.3398 0.0
C1502 C 0.12263 0.43082 0.30346 0.0
C1503 C 0.12398 0.48358 0.30085 0.0
C1504 C 0.12782 0.46642 0.30662 0.0
C1505 C 0.13897 0.41628 0.32317 0.0
C1506 C 0.13501 0.43353 0.31752 0.0
H1507 H 0.10594 0.51638 0.31436 0.0
H1508 H 0.11424 0.48949 0.32424 0.0
H1509 H 0.10945 0.44452 0.28722 0.0
H1510 H 0.14926 0.37827 0.30839 0.0
H1511 H 0.14247 0.4063 0.29908 0.0
C1512 C 0.37512 0.50892 0.30159 0.0
C1513 C 0.37545 0.51196 0.28477 0.0
C1514 C 0.35596 0.49381 0.30922 0.0
C1515 C 0.29617 0.46214 0.30363 0.0
H1516 H 0.29946 0.42263 0.33351 0.0
C1517 C 0.23657 0.37236 0.32771 0.0
C1518 C 0.218 0.37339 0.33198 0.0
C1519 C 0.25618 0.39096 0.32456 0.0
C1520 C 0.2983 0.4336 0.32524 0.0
H1521 H 0.35614 0.50189 0.26279 0.0
H1522 H 0.32276 0.47561 0.27604 0.0
H1523 H 0.33291 0.45228 0.32271 0.0
H1524 H 0.20504 0.39449 0.33583 0.0
H1525 H 0.23941 0.42714 0.33035 0.0
H1526 H 0.26156 0.44306 0.30571 0.0
C1527 C 0.33715 0.48495 0.28339 0.0
C1528 C 0.31746 0.45068 0.31916 0.0
C1529 C 0.35629 0.4999 0.27578 0.0
C1530 C 0.21928 0.39333 0.33291 0.0
C1531 C 0.23888 0.41196 0.32964 0.0
C1532 C 0.27704 0.44514 0.30978 0.0
C1533 C 0.33677 0.48162 0.30018 0.0
C1534 C 0.31659 0.46487 0.308 0.0
C1535 C 0.25751 0.41096 0.32528 0.0
C1536 C 0.27787 0.43041 0.32037 0.0
H1537 H 0.38967 0.51797 0.30884 0.0
H1538 H 0.35615 0.4917 0.32218 0.0
H1539 H 0.29497 0.47295 0.29522 0.0
H1540 H 0.23585 0.35712 0.32667 0.0
H1541 H 0.27011 0.38959 0.32097 0.0
C1542 C 0.49938 0.85899 0.30455 0.0
C1543 C 0.49369 0.85571 0.28804 0.0
C1544 C 0.51704 0.85717 0.31036 0.0
C1545 C 0.56803 0.86042 0.29619 0.0
H1546 H 0.5659 0.83126 0.33604 0.0
C1547 C 0.62102 0.8257 0.33007 0.0
C1548 C 0.64205 0.84342 0.32876 0.0
C1549 C 0.60271 0.82738 0.32605 0.0
C1550 C 0.5667 0.83939 0.32485 0.0
H1551 H 0.50169 0.84761 0.2648 0.0
H1552 H 0.53229 0.84446 0.27484 0.0
H1553 H 0.53406 0.83363 0.3274 0.0
H1554 H 0.66051 0.87643 0.32152 0.0
H1555 H 0.62865 0.87945 0.31452 0.0
H1556 H 0.60046 0.86602 0.29346 0.0
C1557 C 0.52338 0.84863 0.28331 0.0
C1558 C 0.54854 0.84093 0.31999 0.0
C1559 C 0.50575 0.85031 0.27757 0.0
C1560 C 0.64446 0.86262 0.32286 0.0
C1561 C 0.62621 0.8643 0.31879 0.0
C1562 C 0.58617 0.85904 0.30109 0.0
C1563 C 0.52943 0.85224 0.29974 0.0
C1564 C 0.54892 0.85129 0.30549 0.0
C1565 C 0.60508 0.84671 0.32033 0.0
C1566 C 0.58574 0.84841 0.31543 0.0
H1567 H 0.49039 0.86317 0.31292 0.0
H1568 H 0.52132 0.86014 0.32307 0.0
H1569 H 0.56902 0.86874 0.28506 0.0
H1570 H 0.61872 0.81052 0.33411 0.0
H1571 H 0.58671 0.81343 0.32714 0.0
C1572 C 0.12505 0.62327 0.31015 0.0
C1573 C 0.10501 0.61186 0.30202 0.0
C1574 C 0.13223 0.64401 0.31568 0.0
C1575 C 0.12535 0.69005 0.30755 0.0
H1576 H 0.15125 0.7097 0.35003 0.0
C1577 C 0.14339 0.7712 0.33241 0.0
C1578 C 0.16319 0.78357 0.34064 0.0
C1579 C 0.13635 0.75002 0.32845 0.0
C1580 C 0.14428 0.70452 0.33806 0.0
H1581 H 0.07658 0.61279 0.29357 0.0
H1582 H 0.08906 0.64894 0.30323 0.0
H1583 H 0.13895 0.67299 0.34175 0.0
H1584 H 0.19098 0.78329 0.35143 0.0
H1585 H 0.17881 0.74632 0.34427 0.0
H1586 H 0.13081 0.72147 0.30371 0.0
C1587 C 0.09933 0.64203 0.3052 0.0
C1588 C 0.13722 0.6835 0.33334 0.0
C1589 C 0.09213 0.62132 0.29976 0.0
C1590 C 0.17563 0.77417 0.34509 0.0
C1591 C 0.1686 0.75296 0.34106 0.0
C1592 C 0.13247 0.71102 0.31222 0.0
C1593 C 0.11955 0.65368 0.31306 0.0
C1594 C 0.12753 0.67603 0.31808 0.0
C1595 C 0.14898 0.74071 0.33254 0.0
C1596 C 0.14186 0.71847 0.32758 0.0
H1597 H 0.13532 0.61634 0.31207 0.0
H1598 H 0.14795 0.65267 0.32161 0.0
H1599 H 0.11834 0.68487 0.29558 0.0
H1600 H 0.13332 0.77788 0.32891 0.0
H1601 H 0.12095 0.74091 0.32217 0.0
C1602 C 0.83661 0.03584 0.41557 0.0
C1603 C 0.85543 0.04979 0.40697 0.0
C1604 C 0.82067 0.01691 0.40847 0.0
C1605 C 0.81226 0.97546 0.3811 0.0
H1606 H 0.75263 0.96333 0.37743 0.0
C1607 C 0.74546 0.89627 0.35347 0.0
C1608 C 0.7242 0.8873 0.35955 0.0
C1609 C 0.76148 0.9168 0.35799 0.0
C1610 C 0.76909 0.96623 0.37858 0.0
H1611 H 0.8726 0.05487 0.38429 0.0
H1612 H 0.84488 0.0211 0.37202 0.0
H1613 H 0.78066 0.99785 0.38773 0.0
H1614 H 0.70338 0.89278 0.37567 0.0
H1615 H 0.73151 0.92796 0.38428 0.0
H1616 H 0.80082 0.94362 0.37296 0.0
C1617 C 0.84241 0.02515 0.38416 0.0
C1618 C 0.78516 0.98612 0.38432 0.0
C1619 C 0.85817 0.04442 0.39114 0.0
C1620 C 0.7195 0.89923 0.37057 0.0
C1621 C 0.73566 0.9196 0.37539 0.0
C1622 C 0.79613 0.95538 0.3757 0.0
C1623 C 0.8235 0.01134 0.39277 0.0
C1624 C 0.80683 0.99085 0.38567 0.0
C1625 C 0.7569 0.92875 0.36912 0.0
C1626 C 0.77426 0.95041 0.37443 0.0
H1627 H 0.83416 0.03966 0.4278 0.0
H1628 H 0.80629 0.00642 0.41536 0.0
H1629 H 0.82886 0.97871 0.38223 0.0
H1630 H 0.74989 0.88743 0.34529 0.0
H1631 H 0.77746 0.92326 0.35266 0.0
C1632 C 0.97276 0.80943 0.39406 0.0
C1633 C 0.95928 0.78827 0.39906 0.0
C1634 C 0.99433 0.81652 0.38931 0.0
C1635 C 0.03781 0.80233 0.39388 0.0
H1636 H 0.06563 0.84152 0.35838 0.0
C1637 C 0.12042 0.81881 0.36891 0.0
C1638 C 0.13596 0.84005 0.36566 0.0
C1639 C 0.09885 0.81312 0.37218 0.0
C1640 C 0.05812 0.8307 0.36841 0.0
H1641 H 0.95752 0.75787 0.40254 0.0
H1642 H 0.99464 0.76993 0.39398 0.0
H1643 H 0.02799 0.83062 0.36552 0.0
H1644 H 0.14164 0.87219 0.36395 0.0
H1645 H 0.10369 0.86225 0.36936 0.0
H1646 H 0.06774 0.80224 0.39674 0.0
C1647 C 0.98897 0.78129 0.39406 0.0
C1648 C 0.03656 0.82448 0.37253 0.0
C1649 C 0.96758 0.7743 0.39885 0.0
C1650 C 0.1297 0.85561 0.36595 0.0
C1651 C 0.10803 0.8499 0.36907 0.0
C1652 C 0.05923 0.80844 0.38972 0.0
C1653 C 1.00281 0.80258 0.38945 0.0
C1654 C 0.02603 0.81003 0.38524 0.0
C1655 C 0.09239 0.82861 0.37243 0.0
C1656 C 0.06963 0.82256 0.37686 0.0
H1657 H 0.96683 0.8206 0.39413 0.0
H1658 H 0.00452 0.83304 0.38594 0.0
H1659 H 0.03054 0.79163 0.40401 0.0
H1660 H 0.12507 0.80666 0.36917 0.0
H1661 H 0.08722 0.79657 0.37458 0.0
C1662 C 0.25836 0.20435 0.39565 0.0
C1663 C 0.24723 0.18251 0.39205 0.0
C1664 C 0.25023 0.21733 0.3904 0.0
C1665 C 0.1996 0.21542 0.37719 0.0
H1666 H 0.23927 0.27255 0.36202 0.0
C1667 C 0.17061 0.27173 0.35187 0.0
C1668 C 0.18235 0.29302 0.35717 0.0
C1669 C 0.17809 0.2576 0.35533 0.0
C1670 C 0.22801 0.25669 0.36634 0.0
H1671 H 0.21892 0.15704 0.37999 0.0
H1672 H 0.20482 0.17978 0.37063 0.0
H1673 H 0.25331 0.24907 0.36922 0.0
H1674 H 0.2109 0.31599 0.3706 0.0
H1675 H 0.22377 0.29138 0.37672 0.0
H1676 H 0.17431 0.22316 0.37436 0.0
C1677 C 0.21971 0.18684 0.37769 0.0
C1678 C 0.23605 0.24324 0.37047 0.0
C1679 C 0.22786 0.17385 0.38297 0.0
C1680 C 0.20151 0.29977 0.36623 0.0
C1681 C 0.209 0.28569 0.36964 0.0
C1682 C 0.19154 0.22888 0.37301 0.0
C1683 C 0.23078 0.20872 0.38139 0.0
C1684 C 0.22199 0.22255 0.37614 0.0
C1685 C 0.19747 0.2645 0.36415 0.0
C1686 C 0.20571 0.24975 0.36774 0.0
H1687 H 0.27327 0.21137 0.40271 0.0
H1688 H 0.25898 0.23405 0.39367 0.0
H1689 H 0.18837 0.19965 0.38169 0.0
H1690 H 0.1556 0.26592 0.34509 0.0
H1691 H 0.16888 0.24137 0.35091 0.0
C1692 C 0.62929 0.49201 0.72512 0.0
C1693 C 0.6124 0.49565 0.72972 0.0
C1694 C 0.64878 0.50867 0.719 0.0
C1695 C 0.6804 0.56809 0.71788 0.0
H1696 H 0.71618 0.55861 0.68737 0.0
C1697 C 0.7587 0.63685 0.6901 0.0
C1698 C 0.77715 0.63466 0.69175 0.0
C1699 C 0.73798 0.61955 0.69311 0.0
C1700 C 0.70631 0.56143 0.6959 0.0
H1701 H 0.60201 0.51906 0.73081 0.0
H1702 H 0.63542 0.54785 0.71946 0.0
H1703 H 0.68073 0.5289 0.69514 0.0
H1704 H 0.78888 0.6134 0.69871 0.0
H1705 H 0.75253 0.58289 0.70373 0.0
H1706 H 0.70588 0.60071 0.71835 0.0
C1707 C 0.6342 0.53248 0.72114 0.0
C1708 C 0.68605 0.5444 0.70045 0.0
C1709 C 0.61495 0.51596 0.72752 0.0
C1710 C 0.77472 0.61513 0.69681 0.0
C1711 C 0.754 0.59777 0.69971 0.0
C1712 C 0.70043 0.58512 0.71312 0.0
C1713 C 0.65162 0.52925 0.71712 0.0
C1714 C 0.67286 0.54745 0.71163 0.0
C1715 C 0.73545 0.59987 0.698 0.0
C1716 C 0.71367 0.58193 0.70222 0.0
H1717 H 0.62771 0.47648 0.7268 0.0
H1718 H 0.66182 0.50553 0.71627 0.0
H1719 H 0.67109 0.57111 0.72679 0.0
H1720 H 0.76036 0.65202 0.68668 0.0
H1721 H 0.72393 0.62159 0.69178 0.0
C1722 C 0.52366 0.14455 0.72944 0.0
C1723 C 0.52036 0.12551 0.73647 0.0
C1724 C 0.50597 0.14613 0.72344 0.0
C1725 C 0.44615 0.12072 0.72848 0.0
H1726 H 0.44878 0.15303 0.69037 0.0
C1727 C 0.36967 0.11918 0.70263 0.0
C1728 C 0.37191 0.13846 0.69711 0.0
C1729 C 0.38803 0.11767 0.70668 0.0
C1730 C 0.44786 0.1441 0.70113 0.0
H1731 H 0.49615 0.09282 0.74169 0.0
H1732 H 0.46552 0.09542 0.73107 0.0
H1733 H 0.48052 0.15017 0.6982 0.0
H1734 H 0.39502 0.17169 0.69258 0.0
H1735 H 0.42712 0.16912 0.69957 0.0
H1736 H 0.41362 0.11467 0.73148 0.0
C1737 C 0.4816 0.10937 0.73061 0.0
C1738 C 0.46606 0.14246 0.70562 0.0
C1739 C 0.49918 0.10784 0.73664 0.0
C1740 C 0.39284 0.15644 0.69626 0.0
C1741 C 0.41123 0.15496 0.70031 0.0
C1742 C 0.42801 0.12232 0.72398 0.0
C1743 C 0.48462 0.12867 0.72429 0.0
C1744 C 0.46542 0.13065 0.71933 0.0
C1745 C 0.40907 0.13554 0.70556 0.0
C1746 C 0.42857 0.13397 0.71024 0.0
H1747 H 0.53977 0.15848 0.7292 0.0
H1748 H 0.50894 0.16128 0.71874 0.0
H1749 H 0.44516 0.11191 0.73932 0.0
H1750 H 0.35369 0.10517 0.70362 0.0
H1751 H 0.38574 0.10243 0.71058 0.0
C1752 C 0.90031 0.40506 0.71968 0.0
C1753 C 0.8993 0.40841 0.73636 0.0
C1754 C 0.89488 0.38488 0.7138 0.0
C1755 C 0.8945 0.33669 0.72643 0.0
H1756 H 0.85702 0.30998 0.68926 0.0
C1757 C 0.86846 0.25075 0.70729 0.0
C1758 C 0.86614 0.24588 0.69069 0.0
C1759 C 0.87211 0.27054 0.7127 0.0
C1760 C 0.8678 0.31734 0.69951 0.0
H1761 H 0.89046 0.39287 0.75978 0.0
H1762 H 0.88154 0.35786 0.74952 0.0
H1763 H 0.8635 0.3446 0.69878 0.0
H1764 H 0.86692 0.2582 0.66676 0.0
H1765 H 0.87372 0.29288 0.67603 0.0
H1766 H 0.8994 0.30993 0.72701 0.0
C1767 C 0.88677 0.37091 0.74106 0.0
C1768 C 0.87139 0.33711 0.70498 0.0
C1769 C 0.89195 0.39097 0.74692 0.0
C1770 C 0.86802 0.2613 0.6796 0.0
C1771 C 0.87194 0.2812 0.68496 0.0
C1772 C 0.89116 0.31709 0.72085 0.0
C1773 C 0.88853 0.36776 0.72449 0.0
C1774 C 0.88467 0.34688 0.71856 0.0
C1775 C 0.87386 0.28603 0.7016 0.0
C1776 C 0.87766 0.30709 0.70737 0.0
H1777 H 0.9061 0.41817 0.71124 0.0
H1778 H 0.89646 0.38286 0.70096 0.0
H1779 H 0.90511 0.34406 0.73678 0.0
H1780 H 0.86687 0.23904 0.71613 0.0
H1781 H 0.87314 0.27351 0.72562 0.0
C1782 C 0.15362 0.94394 0.6266 0.0
C1783 C 0.1603 0.93099 0.61868 0.0
C1784 C 0.16899 0.96355 0.63333 0.0
C1785 C 0.2269 0.99456 0.64657 0.0
H1786 H 0.21877 0.04321 0.64075 0.0
C1787 C 0.29585 0.08133 0.65733 0.0
C1788 C 0.29035 0.09519 0.66521 0.0
C1789 C 0.27964 0.06093 0.65257 0.0
C1790 C 0.22117 0.02973 0.64265 0.0
H1791 H 0.1884 0.92823 0.61215 0.0
H1792 H 0.21509 0.9625 0.62343 0.0
H1793 H 0.19097 0.00824 0.63106 0.0
H1794 H 0.26339 0.09848 0.6741 0.0
H1795 H 0.23527 0.06293 0.66595 0.0
H1796 H 0.25729 0.01619 0.65793 0.0
C1797 C 0.198 0.9575 0.62461 0.0
C1798 C 0.2052 0.00966 0.63712 0.0
C1799 C 0.18267 0.93794 0.61793 0.0
C1800 C 0.26827 0.08818 0.6682 0.0
C1801 C 0.25209 0.06785 0.66339 0.0
C1802 C 0.24291 0.01466 0.65204 0.0
C1803 C 0.1914 0.97064 0.63232 0.0
C1804 C 0.20792 0.99183 0.63891 0.0
C1805 C 0.25757 0.05399 0.65548 0.0
C1806 C 0.2403 0.03251 0.65005 0.0
H1807 H 0.13654 0.93913 0.62733 0.0
H1808 H 0.16331 0.97313 0.63935 0.0
H1809 H 0.22938 0.98114 0.64843 0.0
H1810 H 0.31267 0.08621 0.65481 0.0
H1811 H 0.28439 0.05073 0.64634 0.0
C1812 C 0.06329 0.23414 0.62396 0.0
C1813 C 0.06696 0.21679 0.62441 0.0
C1814 C 0.04387 0.23217 0.62969 0.0
C1815 C 0.99458 0.19857 0.65441 0.0
H1816 H 0.97027 0.22605 0.62824 0.0
C1817 C 0.90666 0.18448 0.66252 0.0
C1818 C 0.90418 0.20251 0.66145 0.0
C1819 C 0.92671 0.18596 0.65906 0.0
C1820 C 0.97692 0.21848 0.63582 0.0
H1821 H 0.05336 0.18397 0.63186 0.0
H1822 H 0.01912 0.18037 0.64177 0.0
H1823 H 0.00467 0.22894 0.62059 0.0
H1824 H 0.92037 0.23594 0.65532 0.0
H1825 H 0.95539 0.23864 0.64935 0.0
H1826 H 0.96644 0.18792 0.66953 0.0
C1827 C 0.03142 0.1956 0.63706 0.0
C1828 C 0.99673 0.22016 0.63144 0.0
C1829 C 0.05103 0.19763 0.63138 0.0
C1830 C 0.92195 0.22189 0.65647 0.0
C1831 C 0.94195 0.22337 0.65297 0.0
C1832 C 0.97463 0.19683 0.65878 0.0
C1833 C 0.02741 0.21275 0.63598 0.0
C1834 C 0.00598 0.2104 0.64072 0.0
C1835 C 0.94458 0.20541 0.65413 0.0
C1836 C 0.96564 0.2069 0.64958 0.0
H1837 H 0.07543 0.24927 0.61898 0.0
H1838 H 0.0417 0.24592 0.62907 0.0
H1839 H 1.00125 0.19098 0.66192 0.0
H1840 H 0.89305 0.16917 0.66581 0.0
H1841 H 0.92805 0.17175 0.65985 0.0
C1842 C 0.77258 0.83973 0.6446 0.0
C1843 C 0.77951 0.84782 0.62895 0.0
C1844 C 0.77635 0.82385 0.65071 0.0
C1845 C 0.78719 0.78182 0.63638 0.0
H1846 H 0.8048 0.78101 0.68077 0.0
C1847 C 0.82066 0.72827 0.65604 0.0
C1848 C 0.81232 0.71647 0.67022 0.0
C1849 C 0.81594 0.74416 0.65202 0.0
C1850 C 0.79963 0.78094 0.6684 0.0
H1851 H 0.79685 0.8466 0.6078 0.0
H1852 H 0.80369 0.8192 0.61847 0.0
H1853 H 0.7984 0.80965 0.67184 0.0
H1854 H 0.79347 0.71234 0.69182 0.0
H1855 H 0.78524 0.7406 0.68487 0.0
H1856 H 0.78875 0.75339 0.63282 0.0
C1857 C 0.79481 0.82461 0.62588 0.0
C1858 C 0.79598 0.7973 0.66329 0.0
C1859 C 0.79096 0.84034 0.61977 0.0
C1860 C 0.79986 0.72125 0.68074 0.0
C1861 C 0.79524 0.73736 0.67678 0.0
C1862 C 0.79093 0.7656 0.64145 0.0
C1863 C 0.78718 0.81587 0.64128 0.0
C1864 C 0.79005 0.79808 0.64714 0.0
C1865 C 0.80298 0.74873 0.66224 0.0
C1866 C 0.79751 0.76517 0.65742 0.0
H1867 H 0.7636 0.84515 0.65189 0.0
H1868 H 0.77017 0.81737 0.66258 0.0
H1869 H 0.78208 0.78162 0.62398 0.0
H1870 H 0.83096 0.72527 0.6481 0.0
H1871 H 0.82255 0.75301 0.64093 0.0
C1872 C 0.04829 0.80432 0.62445 0.0
C1873 C 0.05718 0.82648 0.62475 0.0
C1874 C 0.02711 0.79081 0.62982 0.0
C1875 C 0.98192 0.78908 0.65373 0.0
H1876 H 0.94729 0.73731 0.62892 0.0
C1877 C 0.88833 0.73361 0.66107 0.0
C1878 C 0.8808 0.71167 0.66097 0.0
C1879 C 0.91025 0.74814 0.65794 0.0
C1880 C 0.9568 0.75158 0.63609 0.0
H1881 H 0.05095 0.852 0.63107 0.0
H1882 H 0.01369 0.82836 0.64019 0.0
H1883 H 0.98456 0.76178 0.62093 0.0
H1884 H 0.8896 0.68744 0.65697 0.0
H1885 H 0.92792 0.71274 0.6515 0.0
H1886 H 0.95375 0.77881 0.66873 0.0
C1887 C 0.02323 0.82139 0.63605 0.0
C1888 C 0.97823 0.76563 0.63153 0.0
C1889 C 0.04455 0.83495 0.63075 0.0
C1890 C 0.89529 0.70437 0.65748 0.0
C1891 C 0.9171 0.71883 0.6542 0.0
C1892 C 0.96035 0.77502 0.65825 0.0
C1893 C 0.01416 0.79912 0.63549 0.0
C1894 C 0.99116 0.78449 0.64034 0.0
C1895 C 0.92479 0.74087 0.65422 0.0
C1896 C 0.94763 0.75604 0.64953 0.0
H1897 H 0.05774 0.79739 0.61998 0.0
H1898 H 0.02089 0.77379 0.62952 0.0
H1899 H 0.99144 0.80334 0.66089 0.0
H1900 H 0.87719 0.73945 0.66334 0.0
H1901 H 0.91564 0.765 0.65787 0.0
C1902 C 0.16546 0.1954 0.63556 0.0
C1903 C 0.17229 0.2164 0.63073 0.0
C1904 C 0.18086 0.18917 0.6392 0.0
C1905 C 0.23863 0.20541 0.63118 0.0
H1906 H 0.23298 0.1692 0.66748 0.0
C1907 C 0.31103 0.19765 0.65386 0.0
C1908 C 0.30726 0.17753 0.65859 0.0
C1909 C 0.29362 0.20097 0.65051 0.0
C1910 C 0.23468 0.17915 0.65719 0.0
H1911 H 0.20042 0.24738 0.62634 0.0
H1912 H 0.22706 0.23675 0.63287 0.0
H1913 H 0.20407 0.17746 0.66181 0.0
H1914 H 0.28239 0.1447 0.66249 0.0
H1915 H 0.25182 0.15049 0.65674 0.0
H1916 H 0.26921 0.20733 0.6266 0.0
C1917 C 0.20995 0.22489 0.63357 0.0
C1918 C 0.21809 0.18386 0.65393 0.0
C1919 C 0.19467 0.23105 0.62994 0.0
C1920 C 0.28573 0.16055 0.6594 0.0
C1921 C 0.26824 0.16386 0.65605 0.0
C1922 C 0.25515 0.20077 0.63446 0.0
C1923 C 0.20333 0.2038 0.63801 0.0
C1924 C 0.22004 0.19737 0.64103 0.0
C1925 C 0.27198 0.18414 0.65153 0.0
C1926 C 0.25359 0.18787 0.64764 0.0
H1927 H 0.1483 0.18374 0.63625 0.0
H1928 H 0.17517 0.17278 0.64253 0.0
H1929 H 0.24047 0.21539 0.62088 0.0
H1930 H 0.3275 0.2109 0.6529 0.0
H1931 H 0.29714 0.21683 0.64722 0.0
C1932 C 0.79145 0.95753 0.64488 0.0
C1933 C 0.77155 0.94635 0.63654 0.0
C1934 C 0.79922 0.97859 0.64982 0.0
C1935 C 0.78157 0.01791 0.65757 0.0
H1936 H 0.8422 0.05957 0.65018 0.0
C1937 C 0.81314 0.10789 0.66007 0.0
C1938 C 0.83313 0.12085 0.6679 0.0
C1939 C 0.80606 0.08646 0.657 0.0
C1940 C 0.8253 0.04808 0.65251 0.0
H1941 H 0.74412 0.94816 0.62691 0.0
H1942 H 0.75769 0.98495 0.63541 0.0
H1943 H 0.82887 0.02212 0.64387 0.0
H1944 H 0.86178 0.12166 0.67808 0.0
H1945 H 0.84922 0.08413 0.67295 0.0
H1946 H 0.77793 0.04386 0.66604 0.0
C1947 C 0.76719 0.97744 0.63834 0.0
C1948 C 0.81767 0.02663 0.64891 0.0
C1949 C 0.75946 0.95644 0.6334 0.0
C1950 C 0.84612 0.11202 0.67228 0.0
C1951 C 0.83904 0.09057 0.66919 0.0
C1952 C 0.78919 0.03932 0.66115 0.0
C1953 C 0.78721 0.9888 0.64652 0.0
C1954 C 0.79565 0.01136 0.65124 0.0
C1955 C 0.81885 0.07753 0.66162 0.0
C1956 C 0.81108 0.05467 0.65849 0.0
H1957 H 0.80113 0.95012 0.64747 0.0
H1958 H 0.8146 0.98686 0.65625 0.0
H1959 H 0.76461 0.00647 0.65977 0.0
H1960 H 0.80278 0.11418 0.65642 0.0
H1961 H 0.79061 0.07692 0.65087 0.0
C1962 C 0.51657 0.38004 0.71635 0.0
C1963 C 0.50843 0.39186 0.72411 0.0
C1964 C 0.50233 0.35919 0.71102 0.0
C1965 C 0.4442 0.3224 0.70098 0.0
H1966 H 0.45844 0.27798 0.70853 0.0
C1967 C 0.37995 0.23332 0.69569 0.0
C1968 C 0.38618 0.21976 0.68823 0.0
C1969 C 0.39542 0.25443 0.69934 0.0
C1970 C 0.45432 0.29024 0.70615 0.0
H1971 H 0.47923 0.3913 0.73242 0.0
H1972 H 0.45449 0.35506 0.7233 0.0
H1973 H 0.48468 0.31476 0.71582 0.0
H1974 H 0.41376 0.21767 0.67917 0.0
H1975 H 0.44064 0.25454 0.6853 0.0
H1976 H 0.41379 0.29792 0.69148 0.0
C1977 C 0.47173 0.36184 0.72106 0.0
C1978 C 0.46939 0.31134 0.71031 0.0
C1979 C 0.48591 0.38256 0.72638 0.0
C1980 C 0.40831 0.22774 0.6847 0.0
C1981 C 0.42379 0.24884 0.68838 0.0
C1982 C 0.42916 0.30135 0.69685 0.0
C1983 C 0.47972 0.34986 0.71331 0.0
C1984 C 0.46439 0.32763 0.70795 0.0
C1985 C 0.41752 0.26247 0.69569 0.0
C1986 C 0.43393 0.28497 0.69954 0.0
H1987 H 0.53388 0.38681 0.71446 0.0
H1988 H 0.509 0.35045 0.70498 0.0
H1989 H 0.43998 0.33461 0.6987 0.0
H1990 H 0.36308 0.2277 0.69865 0.0
H1991 H 0.39009 0.2644 0.70521 0.0
C1992 C 0.63811 0.14562 0.72257 0.0
C1993 C 0.63645 0.14867 0.73922 0.0
C1994 C 0.65756 0.14801 0.71616 0.0
C1995 C 0.70621 0.14553 0.72874 0.0
H1996 H 0.73228 0.17577 0.68895 0.0
C1997 C 0.79403 0.18206 0.69442 0.0
C1998 C 0.79725 0.16448 0.69557 0.0
C1999 C 0.77379 0.17996 0.69826 0.0
C2000 C 0.7252 0.16733 0.70011 0.0
H2001 H 0.65384 0.157 0.76207 0.0
H2002 H 0.6875 0.16108 0.751 0.0
H2003 H 0.69806 0.1727 0.69847 0.0
H2004 H 0.78216 0.13117 0.70194 0.0
H2005 H 0.74691 0.12744 0.70862 0.0
H2006 H 0.73325 0.14031 0.73058 0.0
C2007 C 0.67387 0.15668 0.74288 0.0
C2008 C 0.70552 0.16541 0.70548 0.0
C2009 C 0.65461 0.15444 0.74922 0.0
C2010 C 0.78001 0.1449 0.7008 0.0
C2011 C 0.75988 0.14281 0.70468 0.0
C2012 C 0.72568 0.14729 0.72333 0.0
C2013 C 0.67557 0.15328 0.72631 0.0
C2014 C 0.69592 0.15466 0.71997 0.0
C2015 C 0.75654 0.16034 0.70363 0.0
C2016 C 0.73552 0.15829 0.709 0.0
H2017 H 0.62439 0.14118 0.71455 0.0
H2018 H 0.65831 0.1452 0.70336 0.0
H2019 H 0.69916 0.13693 0.73985 0.0
H2020 H 0.80724 0.19748 0.69082 0.0
H2021 H 0.77185 0.19383 0.6975 0.0
C2022 C 0.89123 0.50635 0.71628 0.0
C2023 C 0.91047 0.5154 0.72553 0.0
C2024 C 0.88421 0.51933 0.70907 0.0
C2025 C 0.90342 0.57515 0.697 0.0
H2026 H 0.84246 0.55863 0.70018 0.0
C2027 C 0.87289 0.63467 0.69026 0.0
C2028 C 0.85326 0.62823 0.68191 0.0
C2029 C 0.87993 0.62018 0.6934 0.0
C2030 C 0.85946 0.5633 0.69895 0.0
H2031 H 0.93748 0.54492 0.73447 0.0
H2032 H 0.92514 0.5676 0.7221 0.0
H2033 H 0.85463 0.53453 0.70989 0.0
H2034 H 0.82583 0.60156 0.67003 0.0
H2035 H 0.83817 0.57616 0.6756 0.0
H2036 H 0.90832 0.60416 0.68645 0.0
C2037 C 0.91563 0.55055 0.72016 0.0
C2038 C 0.86645 0.5495 0.70451 0.0
C2039 C 0.92263 0.53759 0.72734 0.0
C2040 C 0.84101 0.60702 0.67651 0.0
C2041 C 0.84801 0.59245 0.67975 0.0
C2042 C 0.89645 0.58896 0.69149 0.0
C2043 C 0.8963 0.54158 0.71098 0.0
C2044 C 0.88857 0.55543 0.70386 0.0
C2045 C 0.86748 0.59887 0.68833 0.0
C2046 C 0.87447 0.58334 0.69266 0.0
H2047 H 0.88153 0.48926 0.71463 0.0
H2048 H 0.86938 0.51194 0.70194 0.0
H2049 H 0.9205 0.58001 0.69602 0.0
H2050 H 0.88275 0.65087 0.6946 0.0
H2051 H 0.89485 0.62554 0.70022 0.0
C2052 C 0.43474 0.90097 0.23431 0.0
C2053 C 0.45092 0.90368 0.24552 0.0
C2054 C 0.44036 0.91108 0.21925 0.0
C2055 C 0.48531 0.93571 0.18982 0.0
H2056 H 0.45466 0.96388 0.17397 0.0
C2057 C 0.50022 0.97343 0.12591 0.0
C2058 C 0.50295 0.99401 0.12526 0.0
C2059 C 0.49278 0.96131 0.14007 0.0
C2060 C 0.46339 0.95611 0.17823 0.0
H2061 H 0.4858 0.91943 0.2496 0.0
H2062 H 0.49556 0.93678 0.22325 0.0
H2063 H 0.44422 0.94508 0.19978 0.0
H2064 H 0.49929 0.01769 0.13878 0.0
H2065 H 0.48633 0.9966 0.16344 0.0
H2066 H 0.50468 0.94701 0.16837 0.0
C2067 C 0.4785 0.92666 0.22609 0.0
C2068 C 0.45729 0.94518 0.19296 0.0
C2069 C 0.47289 0.91667 0.2412 0.0
C2070 C 0.49757 0.00198 0.13894 0.0
C2071 C 0.48995 0.98981 0.15303 0.0
C2072 C 0.49129 0.94649 0.17502 0.0
C2073 C 0.46231 0.92404 0.21495 0.0
C2074 C 0.46831 0.93501 0.199 0.0
C2075 C 0.48767 0.96942 0.15383 0.0
C2076 C 0.48054 0.95699 0.16913 0.0
H2077 H 0.41767 0.89079 0.23707 0.0
H2078 H 0.42749 0.90851 0.21086 0.0
H2079 H 0.49398 0.92786 0.19406 0.0
H2080 H 0.50434 0.96689 0.1156 0.0
H2081 H 0.49102 0.94559 0.14026 0.0
C2082 C 0.08816 0.52967 0.23283 0.0
C2083 C 0.08171 0.53791 0.24575 0.0
C2084 C 0.07818 0.52631 0.21766 0.0
C2085 C 0.02865 0.52057 0.19752 0.0
H2086 H 0.06312 0.5318 0.15861 0.0
C2087 C 0.99657 0.52335 0.13379 0.0
C2088 C 1.00003 0.51184 0.12156 0.0
C2089 C 0.00656 0.5264 0.14892 0.0
C2090 C 0.05329 0.52846 0.16939 0.0
H2091 H 0.05952 0.5489 0.25281 0.0
H2092 H 0.0428 0.54391 0.22624 0.0
H2093 H 0.08061 0.53766 0.18507 0.0
H2094 H 0.01665 0.49435 0.1158 0.0
H2095 H 0.03453 0.50021 0.1421 0.0
H2096 H 1.00144 0.51185 0.18173 0.0
C2097 C 0.05527 0.53962 0.22789 0.0
C2098 C 0.06326 0.53173 0.18455 0.0
C2099 C 0.0651 0.54278 0.2431 0.0
C2100 C 0.0139 0.50362 0.12481 0.0
C2101 C 0.02409 0.50689 0.13989 0.0
C2102 C 0.01875 0.51755 0.18236 0.0
C2103 C 0.06164 0.53128 0.21499 0.0
C2104 C 0.05106 0.5278 0.19882 0.0
C2105 C 0.02043 0.51822 0.1521 0.0
C2106 C 0.03097 0.52144 0.16816 0.0
H2107 H 0.10109 0.52599 0.23436 0.0
H2108 H 0.08333 0.51961 0.20807 0.0
H2109 H 0.01865 0.51698 0.20822 0.0
H2110 H 0.98633 0.53026 0.13164 0.0
H2111 H 0.00369 0.53543 0.15807 0.0
C2112 C 0.45241 0.54444 0.22754 0.0
C2113 C 0.46732 0.55293 0.24048 0.0
C2114 C 0.45866 0.53976 0.21271 0.0
C2115 C 0.5074 0.5556 0.18826 0.0
H2116 H 0.47179 0.50333 0.1643 0.0
C2117 C 0.54065 0.53319 0.1328 0.0
C2118 C 0.52663 0.52306 0.1196 0.0
C2119 C 0.53267 0.53643 0.14732 0.0
C2120 C 0.4818 0.51815 0.17071 0.0
H2121 H 0.50007 0.56194 0.24825 0.0
H2122 H 0.51099 0.5541 0.22239 0.0
H2123 H 0.45887 0.50925 0.19013 0.0
H2124 H 0.49306 0.50826 0.11147 0.0
H2125 H 0.47926 0.51458 0.13663 0.0
H2126 H 0.53019 0.56477 0.16889 0.0
C2127 C 0.4946 0.55141 0.22362 0.0
C2128 C 0.4744 0.52149 0.18553 0.0
C2129 C 0.48834 0.55592 0.23842 0.0
C2130 C 0.50439 0.51634 0.1213 0.0
C2131 C 0.49641 0.5197 0.13583 0.0
C2132 C 0.5147 0.55237 0.17343 0.0
C2133 C 0.47996 0.54359 0.21052 0.0
C2134 C 0.48726 0.54015 0.19454 0.0
C2135 C 0.51046 0.52981 0.14903 0.0
C2136 C 0.50213 0.5335 0.16453 0.0
H2137 H 0.43615 0.54209 0.22867 0.0
H2138 H 0.44705 0.53382 0.2028 0.0
H2139 H 0.51748 0.57033 0.19478 0.0
H2140 H 0.55791 0.53883 0.1319 0.0
H2141 H 0.54395 0.54398 0.15728 0.0
C2142 C 0.93583 0.47445 0.79112 0.0
C2143 C 0.94003 0.46343 0.77892 0.0
C2144 C 0.94654 0.4786 0.80608 0.0
C2145 C 0.97238 0.45723 0.83253 0.0
H2146 H 0.9967 0.51135 0.85512 0.0
C2147 C 0.02257 0.47294 0.89077 0.0
C2148 C 0.0195 0.4843 0.90331 0.0
C2149 C 0.01353 0.47152 0.87547 0.0
C2150 C 0.98975 0.49606 0.84905 0.0
H2151 H 0.9597 0.4493 0.7725 0.0
H2152 H 0.97813 0.45631 0.79861 0.0
H2153 H 0.97985 0.50725 0.82849 0.0
H2154 H 0.00484 0.50346 0.90945 0.0
H2155 H 0.98841 0.50033 0.88289 0.0
H2156 H 0.98178 0.4458 0.85306 0.0
C2157 C 0.96632 0.46142 0.79671 0.0
C2158 C 0.98017 0.49375 0.8338 0.0
C2159 C 0.95574 0.45738 0.78177 0.0
C2160 C 0.00728 0.49434 0.90013 0.0
C2161 C 0.99811 0.49279 0.88483 0.0
C2162 C 0.98178 0.45947 0.84778 0.0
C2163 C 0.96155 0.47172 0.80911 0.0
C2164 C 0.97154 0.47435 0.82535 0.0
C2165 C 1.00102 0.48124 0.87234 0.0
C2166 C 0.99073 0.47894 0.85619 0.0
H2167 H 0.9237 0.47916 0.78934 0.0
H2168 H 0.94248 0.48647 0.81546 0.0
H2169 H 0.96548 0.44195 0.82643 0.0
H2170 H 0.03167 0.46481 0.89281 0.0
H2171 H 0.01639 0.46277 0.86607 0.0
C2172 C 0.53909 0.46414 0.78003 0.0
C2173 C 0.56103 0.471 0.77664 0.0
C2174 C 0.5329 0.46736 0.79533 0.0
C2175 C 0.55358 0.50038 0.83209 0.0
H2176 H 0.50154 0.45461 0.85154 0.0
C2177 C 0.52618 0.50659 0.89692 0.0
C2178 C 0.50378 0.49868 0.89914 0.0
C2179 C 0.53391 0.50283 0.88243 0.0
C2180 C 0.51599 0.46764 0.84622 0.0
H2181 H 0.59367 0.4867 0.78676 0.0
H2182 H 0.58283 0.49255 0.81348 0.0
H2183 H 0.51367 0.44905 0.82536 0.0
H2184 H 0.47195 0.48023 0.88796 0.0
H2185 H 0.48543 0.47417 0.86262 0.0
H2186 H 0.55572 0.51909 0.85285 0.0
C2187 C 0.57047 0.48476 0.80421 0.0
C2188 C 0.52295 0.46443 0.83122 0.0
C2189 C 0.57667 0.48145 0.7889 0.0
C2190 C 0.48932 0.48679 0.88659 0.0
C2191 C 0.49704 0.48307 0.87212 0.0
C2192 C 0.54656 0.50363 0.8471 0.0
C2193 C 0.54848 0.47762 0.80762 0.0
C2194 C 0.5417 0.48083 0.8239 0.0
C2195 C 0.51943 0.49107 0.86984 0.0
C2196 C 0.52755 0.48735 0.85427 0.0
H2197 H 0.52667 0.45644 0.77079 0.0
H2198 H 0.51589 0.46204 0.79748 0.0
H2199 H 0.56798 0.51339 0.8267 0.0
H2200 H 0.53779 0.51597 0.90627 0.0
H2201 H 0.55124 0.50905 0.88114 0.0
C2202 C 0.53741 0.10937 0.7968 0.0
C2203 C 0.54695 0.10324 0.78458 0.0
C2204 C 0.53245 0.09926 0.81186 0.0
C2205 C 0.5188 0.04867 0.83088 0.0
H2206 H 0.53266 0.08035 0.87123 0.0
C2207 C 0.49997 0.00549 0.89226 0.0
C2208 C 0.49283 0.01335 0.90497 0.0
C2209 C 0.50816 0.01718 0.87802 0.0
C2210 C 0.52838 0.0712 0.86009 0.0
H2211 H 0.55889 0.0818 0.77859 0.0
H2212 H 0.54997 0.0639 0.80489 0.0
H2213 H 0.54387 0.09944 0.84557 0.0
H2214 H 0.48882 0.0397 0.91281 0.0
H2215 H 0.50246 0.05988 0.88778 0.0
H2216 H 0.50265 0.02047 0.84515 0.0
C2217 C 0.54641 0.0766 0.8028 0.0
C2218 C 0.53492 0.08219 0.84539 0.0
C2219 C 0.55166 0.08693 0.78781 0.0
C2220 C 0.49438 0.03333 0.90325 0.0
C2221 C 0.50229 0.04492 0.8889 0.0
C2222 C 0.512 0.03769 0.84554 0.0
C2223 C 0.53665 0.08259 0.81496 0.0
C2224 C 0.53021 0.07103 0.83063 0.0
C2225 C 0.50913 0.03692 0.876 0.0
C2226 C 0.5167 0.04877 0.86038 0.0
H2227 H 0.53373 0.12199 0.79467 0.0
H2228 H 0.52482 0.10413 0.82095 0.0
H2229 H 0.51464 0.03964 0.81968 0.0
H2230 H 0.49925 0.99026 0.89335 0.0
H2231 H 0.51376 0.01068 0.86861 0.0
C2232 C 0.1409 0.2565 0.57477 0.0
C2233 C 0.11902 0.24142 0.57785 0.0
C2234 C 0.14716 0.26656 0.55974 0.0
C2235 C 0.12943 0.26214 0.51686 0.0
H2236 H 0.17242 0.32229 0.51611 0.0
C2237 C 0.15134 0.31404 0.45874 0.0
C2238 C 0.17343 0.32917 0.45647 0.0
C2239 C 0.14431 0.3025 0.47319 0.0
C2240 C 0.16057 0.30544 0.51608 0.0
H2241 H 0.08663 0.22484 0.56732 0.0
H2242 H 0.09748 0.24274 0.5412 0.0
H2243 H 0.16089 0.30393 0.54192 0.0
H2244 H 0.20556 0.34321 0.46735 0.0
H2245 H 0.19334 0.32321 0.49246 0.0
H2246 H 0.12908 0.2638 0.49095 0.0
C2247 C 0.10985 0.24663 0.55038 0.0
C2248 C 0.15397 0.29488 0.5309 0.0
C2249 C 0.10359 0.23654 0.56544 0.0
C2250 C 0.18837 0.33204 0.46882 0.0
C2251 C 0.18136 0.32057 0.48323 0.0
C2252 C 0.13602 0.27274 0.50201 0.0
C2253 C 0.13171 0.26186 0.54737 0.0
C2254 C 0.13841 0.27307 0.5315 0.0
C2255 C 0.15922 0.30585 0.4857 0.0
C2256 C 0.15179 0.2945 0.50144 0.0
H2257 H 0.15321 0.26084 0.58408 0.0
H2258 H 0.16419 0.27798 0.55779 0.0
H2259 H 0.1176 0.24529 0.51685 0.0
H2260 H 0.13937 0.31156 0.44954 0.0
H2261 H 0.12712 0.2914 0.47475 0.0
C2262 C 0.76028 0.88796 0.57104 0.0
C2263 C 0.75171 0.87126 0.58228 0.0
C2264 C 0.75172 0.88477 0.55537 0.0
C2265 C 0.71725 0.84222 0.52587 0.0
H2266 H 0.71109 0.88736 0.50603 0.0
C2267 C 0.66902 0.85554 0.46924 0.0
C2268 C 0.67214 0.84372 0.4571 0.0
C2269 C 0.67961 0.85918 0.48417 0.0
C2270 C 0.71252 0.87451 0.51144 0.0
H2271 H 0.72741 0.83819 0.58606 0.0
H2272 H 0.71209 0.83268 0.55884 0.0
H2273 H 0.72741 0.8928 0.5328 0.0
H2274 H 0.68889 0.82641 0.45121 0.0
H2275 H 0.70798 0.83344 0.47701 0.0
H2276 H 0.7015 0.8236 0.5048 0.0
C2277 C 0.72578 0.84812 0.56194 0.0
C2278 C 0.72219 0.87775 0.52671 0.0
C2279 C 0.73448 0.85127 0.57756 0.0
C2280 C 0.68628 0.83579 0.46021 0.0
C2281 C 0.69701 0.83958 0.4751 0.0
C2282 C 0.70742 0.83892 0.51065 0.0
C2283 C 0.73425 0.86484 0.55065 0.0
C2284 C 0.72458 0.86161 0.53416 0.0
C2285 C 0.69375 0.85126 0.48729 0.0
C2286 C 0.70482 0.85499 0.50328 0.0
H2287 H 0.77377 0.90346 0.57432 0.0
H2288 H 0.75891 0.89789 0.54692 0.0
H2289 H 0.71911 0.82954 0.53113 0.0
H2290 H 0.65848 0.86213 0.4672 0.0
H2291 H 0.67646 0.86799 0.49334 0.0
C2292 C 0.1614 0.88409 0.56941 0.0
C2293 C 0.13989 0.879 0.57273 0.0
C2294 C 0.1668 0.87907 0.55443 0.0
C2295 C 0.1439 0.84346 0.51924 0.0
H2296 H 0.19662 0.88566 0.49806 0.0
C2297 C 0.16862 0.82903 0.45569 0.0
C2298 C 0.19078 0.83585 0.45337 0.0
C2299 C 0.16167 0.83484 0.46966 0.0
C2300 C 0.18197 0.8736 0.50387 0.0
H2301 H 0.10719 0.8645 0.56279 0.0
H2302 H 0.11663 0.85539 0.53669 0.0
H2303 H 0.18586 0.89436 0.52366 0.0
H2304 H 0.22306 0.85468 0.46378 0.0
H2305 H 0.21095 0.86424 0.48826 0.0
H2306 H 0.14023 0.82252 0.49964 0.0
C2307 C 0.12926 0.86325 0.54576 0.0
C2308 C 0.17578 0.87861 0.51853 0.0
C2309 C 0.12386 0.86843 0.56074 0.0
C2310 C 0.20584 0.84887 0.46526 0.0
C2311 C 0.1989 0.85461 0.47922 0.0
C2312 C 0.15016 0.83838 0.5046 0.0
C2313 C 0.15083 0.86867 0.54241 0.0
C2314 C 0.1568 0.86355 0.52646 0.0
C2315 C 0.17672 0.84761 0.48165 0.0
C2316 C 0.1694 0.85332 0.4968 0.0
H2317 H 0.17409 0.89182 0.57845 0.0
H2318 H 0.18349 0.8831 0.55233 0.0
H2319 H 0.12929 0.83145 0.52513 0.0
H2320 H 0.15655 0.81884 0.44686 0.0
H2321 H 0.1445 0.82935 0.47103 0.0
C2322 C 0.61738 0.78364 0.11763 0.0
C2323 C 0.60063 0.78835 0.11506 0.0
C2324 C 0.62768 0.78738 0.13267 0.0
C2325 C 0.63939 0.81835 0.17017 0.0
H2326 H 0.64605 0.77274 0.18859 0.0
C2327 C 0.67014 0.82177 0.23568 0.0
C2328 C 0.68391 0.81332 0.23847 0.0
C2329 C 0.65995 0.81915 0.22066 0.0
C2330 C 0.64462 0.78577 0.18354 0.0
H2331 H 0.58182 0.80101 0.1263 0.0
H2332 H 0.6002 0.80794 0.15253 0.0
H2333 H 0.62879 0.76787 0.16219 0.0
H2334 H 0.69767 0.79543 0.22756 0.0
H2335 H 0.68065 0.79161 0.20127 0.0
H2336 H 0.65557 0.83643 0.19138 0.0
C2337 C 0.60529 0.80135 0.14283 0.0
C2338 C 0.63467 0.78293 0.16844 0.0
C2339 C 0.59483 0.79743 0.1278 0.0
C2340 C 0.68739 0.80238 0.22581 0.0
C2341 C 0.67735 0.79991 0.21078 0.0
C2342 C 0.64956 0.82128 0.18525 0.0
C2343 C 0.62162 0.7961 0.14546 0.0
C2344 C 0.63201 0.7992 0.16158 0.0
C2345 C 0.66339 0.80813 0.20803 0.0
C2346 C 0.65236 0.80504 0.1921 0.0
H2347 H 0.62258 0.77706 0.10799 0.0
H2348 H 0.64047 0.78351 0.13429 0.0
H2349 H 0.6377 0.83121 0.16509 0.0
H2350 H 0.66731 0.83054 0.24508 0.0
H2351 H 0.64914 0.82552 0.21904 0.0
C2352 C 0.24954 0.81105 0.13111 0.0
C2353 C 0.234 0.79967 0.11899 0.0
C2354 C 0.24315 0.81492 0.14615 0.0
C2355 C 0.19578 0.7958 0.17326 0.0
H2356 H 0.22874 0.85191 0.19272 0.0
C2357 C 0.17777 0.81447 0.23764 0.0
C2358 C 0.17725 0.83351 0.23941 0.0
C2359 C 0.18553 0.81024 0.22337 0.0
C2360 C 0.21933 0.83618 0.18742 0.0
H2361 H 0.19956 0.78366 0.11317 0.0
H2362 H 0.18843 0.79029 0.13944 0.0
H2363 H 0.24029 0.84462 0.16684 0.0
H2364 H 0.18506 0.86328 0.2278 0.0
H2365 H 0.1984 0.85581 0.20287 0.0
H2366 H 0.17458 0.78748 0.19368 0.0
C2367 C 0.20553 0.79599 0.13736 0.0
C2368 C 0.22607 0.83194 0.17267 0.0
C2369 C 0.21192 0.79218 0.12231 0.0
C2370 C 0.18502 0.84836 0.22673 0.0
C2371 C 0.19288 0.84418 0.21252 0.0
C2372 C 0.1891 0.8 0.18804 0.0
C2373 C 0.22108 0.80744 0.14945 0.0
C2374 C 0.21428 0.81175 0.16536 0.0
C2375 C 0.19308 0.82501 0.21062 0.0
C2376 C 0.20071 0.82029 0.19524 0.0
H2377 H 0.26664 0.81675 0.12906 0.0
H2378 H 0.2555 0.82355 0.15528 0.0
H2379 H 0.18648 0.78001 0.16802 0.0
H2380 H 0.17176 0.80265 0.24714 0.0
H2381 H 0.18567 0.7954 0.22233 0.0
C2382 C 0.21928 0.4198 0.11861 0.0
C2383 C 0.21427 0.43595 0.11563 0.0
C2384 C 0.21432 0.40932 0.13354 0.0
C2385 C 0.20284 0.41429 0.17632 0.0
H2386 H 0.17225 0.35257 0.17584 0.0
C2387 C 0.16318 0.36444 0.23393 0.0
C2388 C 0.16257 0.34487 0.23564 0.0
C2389 C 0.17081 0.37618 0.21962 0.0
C2390 C 0.18113 0.3698 0.17628 0.0
H2391 H 0.20078 0.45426 0.12612 0.0
H2392 H 0.19229 0.43609 0.15225 0.0
H2393 H 0.18366 0.37198 0.15043 0.0
H2394 H 0.17037 0.32272 0.22401 0.0
H2395 H 0.18428 0.3434 0.1993 0.0
H2396 H 0.20062 0.41221 0.20216 0.0
C2397 C 0.19998 0.43148 0.14302 0.0
C2398 C 0.1876 0.38092 0.16167 0.0
C2399 C 0.20468 0.44176 0.12803 0.0
C2400 C 0.17033 0.3376 0.22293 0.0
C2401 C 0.17821 0.34944 0.20872 0.0
C2402 C 0.19659 0.40317 0.19098 0.0
C2403 C 0.20451 0.41498 0.14588 0.0
C2404 C 0.19841 0.40328 0.1615 0.0
C2405 C 0.17826 0.36875 0.20674 0.0
C2406 C 0.18552 0.38075 0.19117 0.0
H2407 H 0.22656 0.41491 0.10925 0.0
H2408 H 0.21815 0.39677 0.13543 0.0
H2409 H 0.21134 0.43153 0.17658 0.0
H2410 H 0.15712 0.37035 0.24347 0.0
H2411 H 0.17028 0.3908 0.21851 0.0
C2412 C 0.76833 0.56647 0.89481 0.0
C2413 C 0.78362 0.57021 0.90711 0.0
C2414 C 0.77502 0.57669 0.87983 0.0
C2415 C 0.82042 0.62386 0.86048 0.0
H2416 H 0.79573 0.59309 0.82038 0.0
C2417 C 0.8567 0.66133 0.79886 0.0
C2418 C 0.84227 0.65832 0.7861 0.0
C2419 C 0.84916 0.64977 0.81321 0.0
C2420 C 0.80262 0.60199 0.83147 0.0
H2421 H 0.81793 0.58785 0.9133 0.0
H2422 H 0.8296 0.60546 0.88716 0.0
H2423 H 0.78318 0.57471 0.84625 0.0
H2424 H 0.8086 0.64039 0.7783 0.0
H2425 H 0.79534 0.62024 0.80345 0.0
H2426 H 0.83975 0.65115 0.84582 0.0
C2427 C 0.81241 0.59472 0.88912 0.0
C2428 C 0.79542 0.59144 0.8463 0.0
C2429 C 0.80574 0.58444 0.90405 0.0
C2430 C 0.82016 0.64298 0.78786 0.0
C2431 C 0.81257 0.63143 0.80228 0.0
C2432 C 0.82756 0.6344 0.84569 0.0
C2433 C 0.79714 0.59101 0.87682 0.0
C2434 C 0.80435 0.60222 0.86099 0.0
C2435 C 0.82695 0.63492 0.81524 0.0
C2436 C 0.81889 0.62359 0.83096 0.0
H2437 H 0.75118 0.55545 0.89672 0.0
H2438 H 0.76281 0.5736 0.87067 0.0
H2439 H 0.82734 0.63278 0.87155 0.0
H2440 H 0.8739 0.67272 0.79778 0.0
H2441 H 0.86081 0.65252 0.82274 0.0
C2442 C 0.42751 0.21613 0.89637 0.0
C2443 C 0.41952 0.20058 0.90855 0.0
C2444 C 0.41741 0.21176 0.8812 0.0
C2445 C 0.36496 0.17883 0.86155 0.0
H2446 H 0.39825 0.19295 0.82183 0.0
C2447 C 0.32301 0.1568 0.79896 0.0
C2448 C 0.33297 0.17139 0.78632 0.0
C2449 C 0.33379 0.15967 0.81373 0.0
C2450 C 0.38871 0.18918 0.83279 0.0
H2451 H 0.39483 0.16832 0.91447 0.0
H2452 H 0.37697 0.16073 0.88793 0.0
H2453 H 0.41688 0.19935 0.84786 0.0
H2454 H 0.3618 0.20057 0.77923 0.0
H2455 H 0.38042 0.206 0.80516 0.0
H2456 H 0.33688 0.16926 0.84666 0.0
C2457 C 0.39108 0.17625 0.89014 0.0
C2458 C 0.39941 0.19275 0.84769 0.0
C2459 C 0.40137 0.18052 0.90524 0.0
C2460 C 0.35387 0.18896 0.78874 0.0
C2461 C 0.36455 0.19199 0.80357 0.0
C2462 C 0.35429 0.17549 0.84668 0.0
C2463 C 0.39896 0.19186 0.878 0.0
C2464 C 0.38762 0.18762 0.86219 0.0
C2465 C 0.35468 0.17735 0.81626 0.0
C2466 C 0.36602 0.18064 0.8321 0.0
H2467 H 0.44157 0.23167 0.89861 0.0
H2468 H 0.42371 0.22411 0.87208 0.0
H2469 H 0.35553 0.17499 0.87258 0.0
H2470 H 0.30702 0.14296 0.79732 0.0
H2471 H 0.32584 0.14786 0.8231 0.0
C2472 C 0.78879 0.20747 0.89866 0.0
C2473 C 0.80401 0.21833 0.91109 0.0
C2474 C 0.79555 0.20379 0.88369 0.0
C2475 C 0.84396 0.22482 0.85773 0.0
H2476 H 0.81228 0.17071 0.83521 0.0
C2477 C 0.87895 0.2057 0.80152 0.0
C2478 C 0.86465 0.19425 0.78876 0.0
C2479 C 0.87098 0.20836 0.81625 0.0
C2480 C 0.82115 0.18601 0.84124 0.0
H2481 H 0.83811 0.23292 0.91775 0.0
H2482 H 0.84987 0.22666 0.89166 0.0
H2483 H 0.79926 0.17547 0.86138 0.0
H2484 H 0.83067 0.17651 0.78158 0.0
H2485 H 0.81679 0.18163 0.80718 0.0
H2486 H 0.86575 0.23549 0.83764 0.0
C2487 C 0.83278 0.22133 0.89338 0.0
C2488 C 0.81371 0.18871 0.85624 0.0
C2489 C 0.82603 0.22493 0.90833 0.0
C2490 C 0.84216 0.18561 0.79109 0.0
C2491 C 0.83418 0.18832 0.80584 0.0
C2492 C 0.85133 0.22217 0.84273 0.0
C2493 C 0.81767 0.21096 0.88082 0.0
C2494 C 0.82515 0.20809 0.86472 0.0
C2495 C 0.8485 0.19973 0.81861 0.0
C2496 C 0.84014 0.20268 0.83435 0.0
H2497 H 0.77175 0.20237 0.90033 0.0
H2498 H 0.78355 0.19589 0.87421 0.0
H2499 H 0.8529 0.24009 0.86381 0.0
H2500 H 0.89637 0.2128 0.80009 0.0
H2501 H 0.88247 0.21701 0.82588 0.0
C2502 C 0.2891 0.11994 0.44618 0.0
C2503 C 0.27405 0.12668 0.44279 0.0
C2504 C 0.29857 0.1231 0.4615 0.0
C2505 C 0.31128 0.15475 0.49877 0.0
H2506 H 0.31158 0.10619 0.51814 0.0
C2507 C 0.338 0.15512 0.56515 0.0
C2508 C 0.35013 0.14499 0.56833 0.0
C2509 C 0.32862 0.15341 0.54991 0.0
C2510 C 0.31191 0.12001 0.51284 0.0
H2511 H 0.2576 0.14256 0.45275 0.0
H2512 H 0.2745 0.14839 0.47954 0.0
H2513 H 0.2959 0.1028 0.4913 0.0
H2514 H 0.36184 0.12508 0.55792 0.0
H2515 H 0.34619 0.12273 0.53126 0.0
H2516 H 0.32762 0.17207 0.52023 0.0
C2517 C 0.2789 0.14064 0.47027 0.0
C2518 C 0.30286 0.11803 0.49748 0.0
C2519 C 0.26927 0.13735 0.45493 0.0
C2520 C 0.35281 0.13329 0.55586 0.0
C2521 C 0.34356 0.13168 0.54062 0.0
C2522 C 0.32051 0.15679 0.51413 0.0
C2523 C 0.29335 0.13322 0.47376 0.0
C2524 C 0.30257 0.1354 0.49024 0.0
C2525 C 0.33123 0.14161 0.53747 0.0
C2526 C 0.32104 0.13946 0.52131 0.0
H2527 H 0.29351 0.1121 0.43699 0.0
H2528 H 0.30998 0.11758 0.46376 0.0
H2529 H 0.3114 0.16844 0.49342 0.0
H2530 H 0.33584 0.16449 0.57441 0.0
H2531 H 0.31907 0.1611 0.54796 0.0
C2532 C 0.89479 0.12563 0.46255 0.0
C2533 C 0.9011 0.14018 0.4497 0.0
C2534 C 0.88819 0.12997 0.47729 0.0
C2535 C 0.88976 0.17316 0.50225 0.0
H2536 H 0.83894 0.1266 0.52233 0.0
C2537 C 0.82369 0.15776 0.55595 0.0
C2538 C 0.83772 0.17005 0.56858 0.0
C2539 C 0.832 0.15466 0.54154 0.0
C2540 C 0.85306 0.13982 0.51683 0.0
H2541 H 0.90585 0.1709 0.44235 0.0
H2542 H 0.89424 0.17849 0.46815 0.0
H2543 H 0.85255 0.12053 0.49704 0.0
H2544 H 0.87157 0.18898 0.57584 0.0
H2545 H 0.88609 0.18325 0.55075 0.0
H2546 H 0.88994 0.19255 0.52195 0.0
C2547 C 0.8946 0.1638 0.46684 0.0
C2548 C 0.86103 0.13627 0.50243 0.0
C2549 C 0.90123 0.15946 0.45207 0.0
C2550 C 0.8603 0.17925 0.56642 0.0
C2551 C 0.86863 0.17617 0.55197 0.0
C2552 C 0.88179 0.17671 0.5167 0.0
C2553 C 0.88772 0.14896 0.47955 0.0
C2554 C 0.87947 0.15289 0.49495 0.0
C2555 C 0.85457 0.16377 0.53939 0.0
C2556 C 0.8633 0.16008 0.52413 0.0
H2557 H 0.89493 0.11083 0.46122 0.0
H2558 H 0.88345 0.11841 0.48694 0.0
H2559 H 0.90409 0.18626 0.49686 0.0
H2560 H 0.80621 0.15028 0.55728 0.0
H2561 H 0.82072 0.14523 0.53202 0.0
C2562 C 0.87155 0.76555 0.46593 0.0
C2563 C 0.87927 0.75914 0.45262 0.0
C2564 C 0.86696 0.75455 0.48062 0.0
C2565 C 0.85091 0.70199 0.49713 0.0
H2566 H 0.87046 0.73116 0.53841 0.0
C2567 C 0.83528 0.65448 0.55612 0.0
C2568 C 0.8303 0.66211 0.57016 0.0
C2569 C 0.84279 0.66708 0.54224 0.0
C2570 C 0.86458 0.72273 0.52703 0.0
H2571 H 0.88823 0.7362 0.44431 0.0
H2572 H 0.87993 0.71681 0.46992 0.0
H2573 H 0.88036 0.75173 0.51337 0.0
H2574 H 0.82953 0.68904 0.58078 0.0
H2575 H 0.84195 0.71091 0.55639 0.0
H2576 H 0.83449 0.6731 0.51056 0.0
C2577 C 0.87754 0.73041 0.46899 0.0
C2578 C 0.87037 0.73455 0.51267 0.0
C2579 C 0.88244 0.74159 0.45438 0.0
C2580 C 0.83342 0.68283 0.57015 0.0
C2581 C 0.84061 0.69537 0.55615 0.0
C2582 C 0.84487 0.6902 0.51145 0.0
C2583 C 0.86966 0.73671 0.48225 0.0
C2584 C 0.86367 0.72429 0.49756 0.0
C2585 C 0.84515 0.68756 0.54191 0.0
C2586 C 0.8517 0.70035 0.52664 0.0
H2587 H 0.86908 0.7791 0.46496 0.0
H2588 H 0.86079 0.7597 0.4906 0.0
H2589 H 0.84519 0.69365 0.48568 0.0
H2590 H 0.83331 0.63866 0.55586 0.0
H2591 H 0.84666 0.66066 0.53174 0.0
loop_
_geom_bond_atom_site_label_1
_geom_bond_atom_site_label_2
_geom_bond_distance
_geom_bond_site_symmetry_2
_ccdc_geom_bond_type
H0 C5 0.930 . S
H1 C8 0.930 . S
H2 C10 0.930 . S
H3 C4 1.016 . S
C4 H3 1.016 . S
C4 N11 1.286 . S
C5 H0 0.930 . S
C5 C6 1.397 . S
C5 C7 1.361 . S
C6 C5 1.397 . S
C6 C10 1.390 . S
C7 C5 1.361 . S
C7 C8 1.393 . S
C7 N11 1.413 . S
C8 H1 0.930 . S
C8 C7 1.393 . S
C8 C9 1.399 . S
C9 C8 1.399 . S
C9 C10 1.381 . S
C10 H2 0.930 . S
C10 C6 1.390 . S
C10 C9 1.381 . S
N11 C4 1.286 . S
N11 C7 1.413 . S
H12 C17 0.930 . S
H13 C20 0.930 . S
H14 C22 0.930 . S
H15 C16 1.016 . S
C16 H15 1.016 . S
C16 N23 1.286 . S
C17 H12 0.930 . S
C17 C18 1.397 . S
C17 C19 1.361 . S
C18 C17 1.397 . S
C18 C22 1.390 . S
C19 C17 1.361 . S
C19 C20 1.393 . S
C19 N23 1.413 . S
C20 H13 0.930 . S
C20 C19 1.393 . S
C20 C21 1.399 . S
C21 C20 1.399 . S
C21 C22 1.381 . S
C22 H14 0.930 . S
C22 C18 1.390 . S
C22 C21 1.381 . S
N23 C16 1.286 . S
N23 C19 1.413 . S
H24 C29 0.930 . S
H25 C32 0.930 . S
H26 C34 0.930 . S
H27 C28 1.016 . S
C28 H27 1.016 . S
C28 N35 1.286 . S
C29 H24 0.930 . S
C29 C30 1.397 . S
C29 C31 1.361 . S
C30 C29 1.397 . S
C30 C34 1.390 . S
C31 C29 1.361 . S
C31 C32 1.393 . S
C31 N35 1.413 . S
C32 H25 0.930 . S
C32 C31 1.393 . S
C32 C33 1.399 . S
C33 C32 1.399 . S
C33 C34 1.381 . S
C34 H26 0.930 . S
C34 C30 1.390 . S
C34 C33 1.381 . S
N35 C28 1.286 . S
N35 C31 1.413 . S
H36 C41 0.930 . S
H37 C44 0.930 . S
H38 C46 0.930 . S
H39 C40 1.016 . S
C40 H39 1.016 . S
C40 N47 1.286 . S
C41 H36 0.930 . S
C41 C42 1.397 . S
C41 C43 1.361 . S
C42 C41 1.397 . S
C42 C46 1.390 . S
C43 C41 1.361 . S
C43 C44 1.393 . S
C43 N47 1.413 . S
C44 H37 0.930 . S
C44 C43 1.393 . S
C44 C45 1.399 . S
C45 C44 1.399 . S
C45 C46 1.381 . S
C46 H38 0.930 . S
C46 C42 1.390 . S
C46 C45 1.381 . S
N47 C40 1.286 . S
N47 C43 1.413 . S
H48 C53 0.930 . S
H49 C56 0.930 . S
H50 C58 0.930 . S
H51 C52 1.016 . S
C52 H51 1.016 . S
C52 N59 1.286 . S
C53 H48 0.930 . S
C53 C54 1.397 . S
C53 C55 1.361 . S
C54 C53 1.397 . S
C54 C58 1.390 . S
C55 C53 1.361 . S
C55 C56 1.393 . S
C55 N59 1.413 . S
C56 H49 0.930 . S
C56 C55 1.393 . S
C56 C57 1.399 . S
C57 C56 1.399 . S
C57 C58 1.381 . S
C58 H50 0.930 . S
C58 C54 1.390 . S
C58 C57 1.381 . S
N59 C52 1.286 . S
N59 C55 1.413 . S
H60 C65 0.930 . S
H61 C68 0.930 . S
H62 C70 0.930 . S
H63 C64 1.016 . S
C64 H63 1.016 . S
C64 N71 1.286 . S
C65 H60 0.930 . S
C65 C66 1.397 . S
C65 C67 1.361 . S
C66 C65 1.397 . S
C66 C70 1.390 . S
C67 C65 1.361 . S
C67 C68 1.393 . S
C67 N71 1.413 . S
C68 H61 0.930 . S
C68 C67 1.393 . S
C68 C69 1.399 . S
C69 C68 1.399 . S
C69 C70 1.381 . S
C70 H62 0.930 . S
C70 C66 1.390 . S
C70 C69 1.381 . S
N71 C64 1.286 . S
N71 C67 1.413 . S
H72 C77 0.930 . S
H73 C80 0.930 . S
H74 C82 0.930 . S
H75 C76 1.016 . S
C76 H75 1.016 . S
C76 N83 1.286 . S
C77 H72 0.930 . S
C77 C78 1.397 . S
C77 C79 1.361 . S
C78 C77 1.397 . S
C78 C82 1.390 . S
C79 C77 1.361 . S
C79 C80 1.393 . S
C79 N83 1.413 . S
C80 H73 0.930 . S
C80 C79 1.393 . S
C80 C81 1.399 . S
C81 C80 1.399 . S
C81 C82 1.381 . S
C82 H74 0.930 . S
C82 C78 1.390 . S
C82 C81 1.381 . S
N83 C76 1.286 . S
N83 C79 1.413 . S
H84 C89 0.930 . S
H85 C92 0.930 . S
H86 C94 0.930 . S
H87 C88 1.016 . S
C88 H87 1.016 . S
C88 N95 1.286 . S
C89 H84 0.930 . S
C89 C90 1.397 . S
C89 C91 1.361 . S
C90 C89 1.397 . S
C90 C94 1.390 . S
C91 C89 1.361 . S
C91 C92 1.393 . S
C91 N95 1.413 . S
C92 H85 0.930 . S
C92 C91 1.393 . S
C92 C93 1.399 . S
C93 C92 1.399 . S
C93 C94 1.381 . S
C94 H86 0.930 . S
C94 C90 1.390 . S
C94 C93 1.381 . S
N95 C88 1.286 . S
N95 C91 1.413 . S
H96 C101 0.930 . S
H97 C104 0.930 . S
H98 C106 0.930 . S
H99 C100 1.016 . S
C100 H99 1.016 . S
C100 N107 1.286 . S
C101 H96 0.930 . S
C101 C102 1.397 . S
C101 C103 1.361 . S
C102 C101 1.397 . S
C102 C106 1.390 . S
C103 C101 1.361 . S
C103 C104 1.393 . S
C103 N107 1.413 . S
C104 H97 0.930 . S
C104 C103 1.393 . S
C104 C105 1.399 . S
C105 C104 1.399 . S
C105 C106 1.381 . S
C106 H98 0.930 . S
C106 C102 1.390 . S
C106 C105 1.381 . S
N107 C100 1.286 . S
N107 C103 1.413 . S
H108 C113 0.930 . S
H109 C116 0.930 . S
H110 C118 0.930 . S
H111 C112 1.016 . S
C112 H111 1.016 . S
C112 N119 1.286 . S
C113 H108 0.930 . S
C113 C114 1.397 . S
C113 C115 1.361 . S
C114 C113 1.397 . S
C114 C118 1.390 . S
C115 C113 1.361 . S
C115 C116 1.393 . S
C115 N119 1.413 . S
C116 H109 0.930 . S
C116 C115 1.393 . S
C116 C117 1.399 . S
C117 C116 1.399 . S
C117 C118 1.381 . S
C118 H110 0.930 . S
C118 C114 1.390 . S
C118 C117 1.381 . S
N119 C112 1.286 . S
N119 C115 1.413 . S
H120 C125 0.930 . S
H121 C128 0.930 . S
H122 C130 0.930 . S
H123 C124 1.016 . S
C124 H123 1.016 . S
C124 N131 1.286 . S
C125 H120 0.930 . S
C125 C126 1.397 . S
C125 C127 1.361 . S
C126 C125 1.397 . S
C126 C130 1.390 . S
C127 C125 1.361 . S
C127 C128 1.393 . S
C127 N131 1.413 . S
C128 H121 0.930 . S
C128 C127 1.393 . S
C128 C129 1.399 . S
C129 C128 1.399 . S
C129 C130 1.381 . S
C130 H122 0.930 . S
C130 C126 1.390 . S
C130 C129 1.381 . S
N131 C124 1.286 . S
N131 C127 1.413 . S
H132 C137 0.930 . S
H133 C140 0.930 . S
H134 C142 0.930 . S
H135 C136 1.016 . S
C136 H135 1.016 . S
C136 N143 1.286 . S
C137 H132 0.930 . S
C137 C138 1.397 . S
C137 C139 1.361 . S
C138 C137 1.397 . S
C138 C142 1.390 . S
C139 C137 1.361 . S
C139 C140 1.393 . S
C139 N143 1.413 . S
C140 H133 0.930 . S
C140 C139 1.393 . S
C140 C141 1.399 . S
C141 C140 1.399 . S
C141 C142 1.381 . S
C142 H134 0.930 . S
C142 C138 1.390 . S
C142 C141 1.381 . S
N143 C136 1.286 . S
N143 C139 1.413 . S
H144 C149 0.930 . S
H145 C152 0.930 . S
H146 C154 0.930 . S
H147 C148 1.016 . S
C148 H147 1.016 . S
C148 N155 1.286 . S
C149 H144 0.930 . S
C149 C150 1.397 . S
C149 C151 1.361 . S
C150 C149 1.397 . S
C150 C154 1.390 . S
C151 C149 1.361 . S
C151 C152 1.393 . S
C151 N155 1.413 . S
C152 H145 0.930 . S
C152 C151 1.393 . S
C152 C153 1.399 . S
C153 C152 1.399 . S
C153 C154 1.381 . S
C154 H146 0.930 . S
C154 C150 1.390 . S
C154 C153 1.381 . S
N155 C148 1.286 . S
N155 C151 1.413 . S
H156 C161 0.930 . S
H157 C164 0.930 . S
H158 C166 0.930 . S
H159 C160 1.016 . S
C160 H159 1.016 . S
C160 N167 1.286 . S
C161 H156 0.930 . S
C161 C162 1.397 . S
C161 C163 1.361 . S
C162 C161 1.397 . S
C162 C166 1.390 . S
C163 C161 1.361 . S
C163 C164 1.393 . S
C163 N167 1.413 . S
C164 H157 0.930 . S
C164 C163 1.393 . S
C164 C165 1.399 . S
C165 C164 1.399 . S
C165 C166 1.381 . S
C166 H158 0.930 . S
C166 C162 1.390 . S
C166 C165 1.381 . S
N167 C160 1.286 . S
N167 C163 1.413 . S
H168 C173 0.930 . S
H169 C176 0.930 . S
H170 C178 0.930 . S
H171 C172 1.016 . S
C172 H171 1.016 . S
C172 N179 1.286 . S
C173 H168 0.930 . S
C173 C174 1.397 . S
C173 C175 1.361 . S
C174 C173 1.397 . S
C174 C178 1.390 . S
C175 C173 1.361 . S
C175 C176 1.393 . S
C175 N179 1.413 . S
C176 H169 0.930 . S
C176 C175 1.393 . S
C176 C177 1.399 . S
C177 C176 1.399 . S
C177 C178 1.381 . S
C178 H170 0.930 . S
C178 C174 1.390 . S
C178 C177 1.381 . S
N179 C172 1.286 . S
N179 C175 1.413 . S
H180 C185 0.930 . S
H181 C188 0.930 . S
H182 C190 0.930 . S
H183 C184 1.016 . S
C184 H183 1.016 . S
C184 N191 1.286 . S
C185 H180 0.930 . S
C185 C186 1.397 . S
C185 C187 1.361 . S
C186 C185 1.397 . S
C186 C190 1.390 . S
C187 C185 1.361 . S
C187 C188 1.393 . S
C187 N191 1.413 . S
C188 H181 0.930 . S
C188 C187 1.393 . S
C188 C189 1.399 . S
C189 C188 1.399 . S
C189 C190 1.381 . S
C190 H182 0.930 . S
C190 C186 1.390 . S
C190 C189 1.381 . S
N191 C184 1.286 . S
N191 C187 1.413 . S
H192 C197 0.930 . S
H193 C200 0.930 . S
H194 C202 0.930 . S
H195 C196 1.016 . S
C196 H195 1.016 . S
C196 N203 1.286 . S
C197 H192 0.930 . S
C197 C198 1.397 . S
C197 C199 1.361 . S
C198 C197 1.397 . S
C198 C202 1.390 . S
C199 C197 1.361 . S
C199 C200 1.393 . S
C199 N203 1.413 . S
C200 H193 0.930 . S
C200 C199 1.393 . S
C200 C201 1.399 . S
C201 C200 1.399 . S
C201 C202 1.381 . S
C202 H194 0.930 . S
C202 C198 1.390 . S
C202 C201 1.381 . S
N203 C196 1.286 . S
N203 C199 1.413 . S
H204 C209 0.930 . S
H205 C212 0.930 . S
H206 C214 0.930 . S
H207 C208 1.016 . S
C208 H207 1.016 . S
C208 N215 1.286 . S
C209 H204 0.930 . S
C209 C210 1.397 . S
C209 C211 1.361 . S
C210 C209 1.397 . S
C210 C214 1.390 . S
C211 C209 1.361 . S
C211 C212 1.393 . S
C211 N215 1.413 . S
C212 H205 0.930 . S
C212 C211 1.393 . S
C212 C213 1.399 . S
C213 C212 1.399 . S
C213 C214 1.381 . S
C214 H206 0.930 . S
C214 C210 1.390 . S
C214 C213 1.381 . S
N215 C208 1.286 . S
N215 C211 1.413 . S
Gd216 N247 2.661 . S
Gd216 N253 2.601 . S
Gd216 O260 2.545 . S
Gd216 O261 2.606 1_545 S
Gd216 O263 2.429 . S
Gd216 O264 2.545 1_545 S
Gd216 O265 2.391 1_545 S
Gd216 O267 2.362 . S
Gd216 O268 2.324 1_545 S
Gd216 C275 2.828 . S
Gd217 N226 2.661 . S
Gd217 N230 2.601 . S
Gd217 O261 2.362 1_556 S
Gd217 O262 2.324 1_565 S
Gd217 O266 2.545 . S
Gd217 O267 2.606 1_566 S
Gd217 O269 2.429 1_556 S
Gd217 O270 2.545 1_565 S
Gd217 O271 2.412 1_565 S
Gd217 C284 2.828 1_565 S
C218 C221 1.417 . S
C218 C223 1.431 . S
C218 C224 1.412 . S
C219 C222 1.437 . S
C219 C223 1.317 . S
C219 H238 0.929 . S
C220 C221 1.426 . S
C220 C222 1.413 . S
C220 N230 1.359 . S
C221 C218 1.417 . S
C221 C220 1.426 . S
C221 N226 1.350 . S
C222 C219 1.437 . S
C222 C220 1.413 . S
C222 C232 1.391 . S
C223 C218 1.431 . S
C223 C219 1.317 . S
C223 H234 0.930 . S
C224 C218 1.412 . S
C224 C225 1.355 . S
C224 H236 0.930 . S
C225 C224 1.355 . S
C225 C227 1.402 . S
C225 H237 0.930 . S
N226 Gd217 2.661 . S
N226 C221 1.350 . S
N226 C227 1.307 . S
C227 C225 1.402 . S
C227 N226 1.307 . S
C227 H228 0.929 1_565 S
H228 C227 0.929 1_545 S
C229 N230 1.334 . S
C229 C231 1.394 . S
C229 H233 0.930 . S
N230 Gd217 2.601 . S
N230 C220 1.359 . S
N230 C229 1.334 . S
C231 C229 1.394 . S
C231 C232 1.359 . S
C231 H243 0.930 . S
C232 C222 1.391 . S
C232 C231 1.359 . S
C232 H244 0.929 . S
H233 C229 0.930 . S
H234 C223 0.930 . S
H235 C252 0.930 . S
H236 C224 0.930 . S
H237 C225 0.930 . S
H238 C219 0.929 . S
H239 C257 0.930 . S
H240 C248 0.930 . S
H241 C249 0.930 . S
H242 C273 0.929 . S
H243 C231 0.930 . S
H244 C232 0.929 . S
H245 C274 0.930 . S
H246 C255 0.930 . S
N247 Gd216 2.661 . S
N247 C251 1.350 . S
N247 C252 1.307 . S
C248 H240 0.930 . S
C248 C249 1.355 . S
C248 C250 1.412 . S
C249 H241 0.930 . S
C249 C248 1.355 . S
C249 C252 1.402 . S
C250 C248 1.412 . S
C250 C251 1.417 . S
C250 C274 1.431 . S
C251 N247 1.350 . S
C251 C250 1.417 . S
C251 C254 1.426 . S
C252 H235 0.930 . S
C252 N247 1.307 . S
C252 C249 1.402 . S
N253 Gd216 2.601 . S
N253 C254 1.359 . S
N253 C257 1.334 . S
C254 C251 1.426 . S
C254 N253 1.359 . S
C254 C258 1.413 . S
C255 H246 0.930 . S
C255 C256 1.359 . S
C255 C257 1.394 . S
C256 C255 1.359 . S
C256 C258 1.391 . S
C256 H259 0.929 . S
C257 H239 0.930 . S
C257 N253 1.334 . S
C257 C255 1.394 . S
C258 C254 1.413 . S
C258 C256 1.391 . S
C258 C273 1.437 . S
H259 C256 0.929 . S
O260 Gd216 2.545 . S
O260 C275 1.258 . S
O261 Gd216 2.606 1_565 S
O261 Gd217 2.362 1_554 S
O261 C272 1.284 . S
O262 Gd217 2.324 1_545 S
O262 C282 1.254 1_556 S
O263 Gd216 2.429 . S
O263 C282 1.268 . S
O264 Gd216 2.545 1_565 S
O264 C272 1.250 . S
O265 Gd216 2.391 1_565 S
O265 C275 1.218 1_565 S
O266 Gd217 2.545 . S
O266 C284 1.258 1_565 S
O267 Gd216 2.362 . S
O267 Gd217 2.606 1_544 S
O267 C283 1.284 1_554 S
O268 Gd216 2.324 1_565 S
O268 C291 1.254 . S
O269 Gd217 2.429 1_554 S
O269 C291 1.268 . S
O270 Gd217 2.545 1_545 S
O270 C283 1.250 . S
O271 Gd217 2.412 1_545 S
O271 C284 1.252 . S
C272 O261 1.284 . S
C272 O264 1.250 . S
C273 H242 0.929 . S
C273 C258 1.437 . S
C273 C274 1.317 . S
C274 H245 0.930 . S
C274 C250 1.431 . S
C274 C273 1.317 . S
C275 Gd216 2.828 . S
C275 O260 1.258 . S
C275 O265 1.218 1_545 S
C275 C276 1.497 . S
C276 C275 1.497 . S
C276 C277 1.395 . S
C276 C278 1.380 1_545 S
C277 C276 1.395 . S
C277 C280 1.398 . S
C277 H292 0.930 . S
C278 C276 1.380 1_565 S
C278 C279 1.391 . S
C278 H293 0.930 . S
C279 C278 1.391 . S
C279 C281 1.387 . S
C280 C277 1.398 . S
C280 C281 1.380 1_545 S
C280 H294 0.930 . S
C281 C279 1.387 . S
C281 C280 1.380 1_565 S
C281 H295 0.930 . S
C282 O262 1.254 1_554 S
C282 O263 1.268 . S
C283 O267 1.284 1_556 S
C283 O270 1.250 . S
C284 Gd217 2.828 1_545 S
C284 O266 1.258 1_545 S
C284 O271 1.252 . S
C284 C285 1.497 . S
C285 C284 1.497 . S
C285 C286 1.395 1_545 S
C285 C287 1.380 . S
C286 C285 1.395 1_565 S
C286 C289 1.400 . S
C286 H296 0.930 . S
C287 C285 1.380 . S
C287 C288 1.391 . S
C287 H297 0.930 . S
C288 C287 1.391 . S
C288 C290 1.387 . S
C289 C286 1.400 . S
C289 C290 1.368 1_565 S
C289 H298 0.940 . S
C290 C288 1.387 . S
C290 C289 1.368 1_545 S
C290 H299 0.930 . S
C291 O268 1.254 . S
C291 O269 1.268 . S
H292 C277 0.930 . S
H293 C278 0.930 . S
H294 C280 0.930 . S
H295 C281 0.930 . S
H296 C286 0.930 . S
H297 C287 0.930 . S
H298 C289 0.940 . S
H299 C290 0.930 . S
Gd300 N331 2.661 . S
Gd300 N337 2.601 . S
Gd300 O344 2.545 . S
Gd300 O345 2.606 1_655 S
Gd300 O347 2.429 . S
Gd300 O348 2.545 1_655 S
Gd300 O349 2.412 1_655 S
Gd300 O351 2.362 . S
Gd300 O352 2.324 1_655 S
Gd300 C359 2.828 1_655 S
Gd301 N310 2.661 . S
Gd301 N314 2.601 . S
Gd301 O345 2.362 1_556 S
Gd301 O346 2.324 1_455 S
Gd301 O350 2.545 . S
Gd301 O351 2.606 1_456 S
Gd301 O353 2.429 1_556 S
Gd301 O354 2.545 1_455 S
Gd301 O355 2.412 . S
Gd301 C368 2.828 . S
C302 C305 1.417 . S
C302 C307 1.431 . S
C302 C308 1.412 . S
C303 C306 1.437 . S
C303 C307 1.317 . S
C303 H322 0.929 . S
C304 C305 1.426 . S
C304 C306 1.413 . S
C304 N314 1.359 . S
C305 C302 1.417 . S
C305 C304 1.426 . S
C305 N310 1.350 . S
C306 C303 1.437 . S
C306 C304 1.413 . S
C306 C316 1.391 . S
C307 C302 1.431 . S
C307 C303 1.317 . S
C307 H318 0.930 . S
C308 C302 1.412 . S
C308 C309 1.355 . S
C308 H320 0.930 . S
C309 C308 1.355 . S
C309 C311 1.402 . S
C309 H321 0.930 . S
N310 Gd301 2.661 . S
N310 C305 1.350 . S
N310 C311 1.307 . S
C311 C309 1.402 . S
C311 N310 1.307 . S
C311 H312 0.930 . S
H312 C311 0.930 . S
C313 N314 1.334 . S
C313 C315 1.394 . S
C313 H317 0.930 . S
N314 Gd301 2.601 . S
N314 C304 1.359 . S
N314 C313 1.334 . S
C315 C313 1.394 . S
C315 C316 1.359 . S
C315 H327 0.930 . S
C316 C306 1.391 . S
C316 C315 1.359 . S
C316 H328 0.929 . S
H317 C313 0.930 . S
H318 C307 0.930 . S
H319 C336 0.911 1_455 S
H320 C308 0.930 . S
H321 C309 0.930 . S
H322 C303 0.929 . S
H323 C341 0.930 . S
H324 C332 0.930 . S
H325 C333 0.930 . S
H326 C357 0.929 . S
H327 C315 0.930 . S
H328 C316 0.929 . S
H329 C358 0.930 . S
H330 C339 0.930 . S
N331 Gd300 2.661 . S
N331 C335 1.350 . S
N331 C336 1.307 . S
C332 H324 0.930 . S
C332 C333 1.355 . S
C332 C334 1.412 . S
C333 H325 0.930 . S
C333 C332 1.355 . S
C333 C336 1.402 . S
C334 C332 1.412 . S
C334 C335 1.417 . S
C334 C358 1.431 . S
C335 N331 1.350 . S
C335 C334 1.417 . S
C335 C338 1.426 . S
C336 H319 0.911 1_655 S
C336 N331 1.307 . S
C336 C333 1.402 . S
N337 Gd300 2.601 . S
N337 C338 1.359 . S
N337 C341 1.334 . S
C338 C335 1.426 . S
C338 N337 1.359 . S
C338 C342 1.413 . S
C339 H330 0.930 . S
C339 C340 1.359 . S
C339 C341 1.394 . S
C340 C339 1.359 . S
C340 C342 1.391 . S
C340 H343 0.929 . S
C341 H323 0.930 . S
C341 N337 1.334 . S
C341 C339 1.394 . S
C342 C338 1.413 . S
C342 C340 1.391 . S
C342 C357 1.437 . S
H343 C340 0.929 . S
O344 Gd300 2.545 . S
O344 C359 1.258 1_655 S
O345 Gd300 2.606 1_455 S
O345 Gd301 2.362 1_554 S
O345 C356 1.284 . S
O346 Gd301 2.324 1_655 S
O346 C366 1.254 1_556 S
O347 Gd300 2.429 . S
O347 C366 1.268 . S
O348 Gd300 2.545 1_455 S
O348 C356 1.250 . S
O349 Gd300 2.412 1_455 S
O349 C359 1.252 . S
O350 Gd301 2.545 . S
O350 C368 1.258 . S
O351 Gd300 2.362 . S
O351 Gd301 2.606 1_654 S
O351 C367 1.284 1_554 S
O352 Gd300 2.324 1_455 S
O352 C375 1.254 . S
O353 Gd301 2.429 1_554 S
O353 C375 1.268 . S
O354 Gd301 2.545 1_655 S
O354 C367 1.250 . S
O355 Gd301 2.412 . S
O355 C368 1.252 . S
C356 O345 1.284 . S
C356 O348 1.250 . S
C357 H326 0.929 . S
C357 C342 1.437 . S
C357 C358 1.317 . S
C358 H329 0.930 . S
C358 C334 1.431 . S
C358 C357 1.317 . S
C359 Gd300 2.828 1_455 S
C359 O344 1.258 1_455 S
C359 O349 1.252 . S
C359 C360 1.497 . S
C360 C359 1.497 . S
C360 C361 1.395 1_455 S
C360 C362 1.380 . S
C361 C360 1.395 1_655 S
C361 C364 1.398 . S
C361 H376 0.930 . S
C362 C360 1.380 . S
C362 C363 1.391 . S
C362 H377 0.930 . S
C363 C362 1.391 . S
C363 C365 1.387 . S
C364 C361 1.398 . S
C364 C365 1.380 1_655 S
C364 H378 0.930 . S
C365 C363 1.387 . S
C365 C364 1.380 1_455 S
C365 H379 0.930 . S
C366 O346 1.254 1_554 S
C366 O347 1.268 . S
C367 O351 1.284 1_556 S
C367 O354 1.250 . S
C368 Gd301 2.828 . S
C368 O350 1.258 . S
C368 O355 1.252 . S
C368 C369 1.497 . S
C369 C368 1.497 . S
C369 C370 1.395 . S
C369 C371 1.380 1_455 S
C370 C369 1.395 . S
C370 C373 1.398 . S
C370 H380 0.930 . S
C371 C369 1.380 1_655 S
C371 C372 1.391 . S
C371 H381 0.930 . S
C372 C371 1.391 . S
C372 C374 1.387 . S
C373 C370 1.398 . S
C373 C374 1.380 1_455 S
C373 H382 0.930 . S
C374 C372 1.387 . S
C374 C373 1.380 1_655 S
C374 H383 0.930 . S
C375 O352 1.254 . S
C375 O353 1.268 . S
H376 C361 0.930 . S
H377 C362 0.930 . S
H378 C364 0.930 . S
H379 C365 0.930 . S
H380 C370 0.930 . S
H381 C371 0.930 . S
H382 C373 0.930 . S
H383 C374 0.930 . S
Gd384 N415 2.661 . S
Gd384 N421 2.601 . S
Gd384 O428 2.545 . S
Gd384 O429 2.606 1_556 S
Gd384 O431 2.429 1_556 S
Gd384 O432 2.545 . S
Gd384 O433 2.412 . S
Gd384 O435 2.362 1_556 S
Gd384 O436 2.324 . S
Gd384 C443 2.828 . S
Gd385 N394 2.661 . S
Gd385 N398 2.601 . S
Gd385 O429 2.362 . S
Gd385 O430 2.324 . S
Gd385 O434 2.545 . S
Gd385 O435 2.606 . S
Gd385 O437 2.429 . S
Gd385 O438 2.545 . S
Gd385 O439 2.412 . S
Gd385 C452 2.828 . S
C386 C389 1.417 . S
C386 C391 1.431 . S
C386 C392 1.412 . S
C387 C390 1.437 . S
C387 C391 1.317 . S
C387 H406 0.929 . S
C388 C389 1.426 . S
C388 C390 1.413 . S
C388 N398 1.359 . S
C389 C386 1.417 . S
C389 C388 1.426 . S
C389 N394 1.350 . S
C390 C387 1.437 . S
C390 C388 1.413 . S
C390 C400 1.391 . S
C391 C386 1.431 . S
C391 C387 1.317 . S
C391 H402 0.930 . S
C392 C386 1.412 . S
C392 C393 1.355 . S
C392 H404 0.930 . S
C393 C392 1.355 . S
C393 C395 1.402 . S
C393 H405 0.930 . S
N394 Gd385 2.661 . S
N394 C389 1.350 . S
N394 C395 1.307 . S
C395 C393 1.402 . S
C395 N394 1.307 . S
C395 H396 0.930 . S
H396 C395 0.930 . S
C397 N398 1.334 . S
C397 C399 1.394 . S
C397 H401 0.930 . S
N398 Gd385 2.601 . S
N398 C388 1.359 . S
N398 C397 1.334 . S
C399 C397 1.394 . S
C399 C400 1.359 . S
C399 H411 0.930 . S
C400 C390 1.391 . S
C400 C399 1.359 . S
C400 H412 0.929 . S
H401 C397 0.930 . S
H402 C391 0.930 . S
H403 C420 0.930 . S
H404 C392 0.930 . S
H405 C393 0.930 . S
H406 C387 0.929 . S
H407 C425 0.930 . S
H408 C416 0.930 . S
H409 C417 0.930 . S
H410 C441 0.929 . S
H411 C399 0.930 . S
H412 C400 0.929 . S
H413 C442 0.930 . S
H414 C423 0.930 . S
N415 Gd384 2.661 . S
N415 C419 1.350 . S
N415 C420 1.307 . S
C416 H408 0.930 . S
C416 C417 1.355 . S
C416 C418 1.412 . S
C417 H409 0.930 . S
C417 C416 1.355 . S
C417 C420 1.402 . S
C418 C416 1.412 . S
C418 C419 1.417 . S
C418 C442 1.431 . S
C419 N415 1.350 . S
C419 C418 1.417 . S
C419 C422 1.426 . S
C420 H403 0.930 . S
C420 N415 1.307 . S
C420 C417 1.402 . S
N421 Gd384 2.601 . S
N421 C422 1.359 . S
N421 C425 1.334 . S
C422 C419 1.426 . S
C422 N421 1.359 . S
C422 C426 1.413 . S
C423 H414 0.930 . S
C423 C424 1.359 . S
C423 C425 1.394 . S
C424 C423 1.359 . S
C424 C426 1.391 . S
C424 H427 0.929 . S
C425 H407 0.930 . S
C425 N421 1.334 . S
C425 C423 1.394 . S
C426 C422 1.413 . S
C426 C424 1.391 . S
C426 C441 1.437 . S
H427 C424 0.929 . S
O428 Gd384 2.545 . S
O428 C443 1.258 . S
O429 Gd384 2.606 1_554 S
O429 Gd385 2.362 . S
O429 C440 1.284 1_554 S
O430 Gd385 2.324 . S
O430 C450 1.254 . S
O431 Gd384 2.429 1_554 S
O431 C450 1.268 . S
O432 Gd384 2.545 . S
O432 C440 1.250 . S
O433 Gd384 2.412 . S
O433 C443 1.252 . S
O434 Gd385 2.545 . S
O434 C452 1.258 . S
O435 Gd384 2.362 1_554 S
O435 Gd385 2.606 . S
O435 C451 1.284 . S
O436 Gd384 2.324 . S
O436 C459 1.254 1_556 S
O437 Gd385 2.429 . S
O437 C459 1.268 . S
O438 Gd385 2.545 . S
O438 C451 1.250 . S
O439 Gd385 2.412 . S
O439 C452 1.252 . S
C440 O429 1.284 1_556 S
C440 O432 1.250 . S
C441 H410 0.929 . S
C441 C426 1.437 . S
C441 C442 1.317 . S
C442 H413 0.930 . S
C442 C418 1.431 . S
C442 C441 1.317 . S
C443 Gd384 2.828 . S
C443 O428 1.258 . S
C443 O433 1.252 . S
C443 C444 1.497 . S
C444 C443 1.497 . S
C444 C445 1.395 . S
C444 C446 1.380 . S
C445 C444 1.395 . S
C445 C448 1.398 . S
C445 H460 0.930 . S
C446 C444 1.380 . S
C446 C447 1.391 . S
C446 H461 0.930 . S
C447 C446 1.391 . S
C447 C449 1.387 . S
C448 C445 1.398 . S
C448 C449 1.380 . S
C448 H462 0.930 . S
C449 C447 1.387 . S
C449 C448 1.380 . S
C449 H463 0.930 . S
C450 O430 1.254 . S
C450 O431 1.268 . S
C451 O435 1.284 . S
C451 O438 1.250 . S
C452 Gd385 2.828 . S
C452 O434 1.258 . S
C452 O439 1.252 . S
C452 C453 1.497 . S
C453 C452 1.497 . S
C453 C454 1.395 . S
C453 C455 1.380 . S
C454 C453 1.395 . S
C454 C457 1.398 . S
C454 H464 0.930 . S
C455 C453 1.380 . S
C455 C456 1.391 . S
C455 H465 0.930 . S
C456 C455 1.391 . S
C456 C458 1.387 . S
C457 C454 1.398 . S
C457 C458 1.380 . S
C457 H466 0.930 . S
C458 C456 1.387 . S
C458 C457 1.380 . S
C458 H467 0.930 . S
C459 O436 1.254 1_554 S
C459 O437 1.268 . S
H460 C445 0.930 . S
H461 C446 0.930 . S
H462 C448 0.930 . S
H463 C449 0.930 . S
H464 C454 0.930 . S
H465 C455 0.930 . S
H466 C457 0.930 . S
H467 C458 0.930 . S
Gd468 N499 2.661 . S
Gd468 N505 2.601 . S
Gd468 O512 2.545 . S
Gd468 O513 2.606 . S
Gd468 O515 2.429 . S
Gd468 O516 2.545 . S
Gd468 O517 2.412 . S
Gd468 O519 2.362 . S
Gd468 O520 2.324 . S
Gd468 C527 2.828 . S
Gd469 N478 2.661 . S
Gd469 N482 2.601 . S
Gd469 O513 2.362 . S
Gd469 O514 2.324 . S
Gd469 O518 2.545 . S
Gd469 O519 2.606 . S
Gd469 O521 2.429 . S
Gd469 O522 2.545 . S
Gd469 O523 2.412 . S
Gd469 C536 2.828 . S
C470 C473 1.417 . S
C470 C475 1.431 . S
C470 C476 1.412 . S
C471 C474 1.437 . S
C471 C475 1.317 . S
C471 H490 0.929 . S
C472 C473 1.426 . S
C472 C474 1.413 . S
C472 N482 1.359 . S
C473 C470 1.417 . S
C473 C472 1.426 . S
C473 N478 1.350 . S
C474 C471 1.437 . S
C474 C472 1.413 . S
C474 C484 1.391 . S
C475 C470 1.431 . S
C475 C471 1.317 . S
C475 H486 0.930 . S
C476 C470 1.412 . S
C476 C477 1.355 . S
C476 H488 0.930 . S
C477 C476 1.355 . S
C477 C479 1.402 . S
C477 H489 0.930 . S
N478 Gd469 2.661 . S
N478 C473 1.350 . S
N478 C479 1.307 . S
C479 C477 1.402 . S
C479 N478 1.307 . S
C479 H480 0.930 . S
H480 C479 0.930 . S
C481 N482 1.334 . S
C481 C483 1.394 . S
C481 H485 0.930 . S
N482 Gd469 2.601 . S
N482 C472 1.359 . S
N482 C481 1.334 . S
C483 C481 1.394 . S
C483 C484 1.359 . S
C483 H495 0.930 . S
C484 C474 1.391 . S
C484 C483 1.359 . S
C484 H496 0.929 . S
H485 C481 0.930 . S
H486 C475 0.930 . S
H487 C504 0.930 . S
H488 C476 0.930 . S
H489 C477 0.930 . S
H490 C471 0.929 . S
H491 C509 0.930 . S
H492 C500 0.930 . S
H493 C501 0.930 . S
H494 C525 0.929 . S
H495 C483 0.930 . S
H496 C484 0.929 . S
H497 C526 0.930 . S
H498 C507 0.930 . S
N499 Gd468 2.661 . S
N499 C503 1.350 . S
N499 C504 1.307 . S
C500 H492 0.930 . S
C500 C501 1.355 . S
C500 C502 1.412 . S
C501 H493 0.930 . S
C501 C500 1.355 . S
C501 C504 1.402 . S
C502 C500 1.412 . S
C502 C503 1.417 . S
C502 C526 1.431 . S
C503 N499 1.350 . S
C503 C502 1.417 . S
C503 C506 1.426 . S
C504 H487 0.930 . S
C504 N499 1.307 . S
C504 C501 1.402 . S
N505 Gd468 2.601 . S
N505 C506 1.359 . S
N505 C509 1.334 . S
C506 C503 1.426 . S
C506 N505 1.359 . S
C506 C510 1.413 . S
C507 H498 0.930 . S
C507 C508 1.359 . S
C507 C509 1.394 . S
C508 C507 1.359 . S
C508 C510 1.391 . S
C508 H511 0.929 . S
C509 H491 0.930 . S
C509 N505 1.334 . S
C509 C507 1.394 . S
C510 C506 1.413 . S
C510 C508 1.391 . S
C510 C525 1.437 . S
H511 C508 0.929 . S
O512 Gd468 2.545 . S
O512 C527 1.258 . S
O513 Gd468 2.606 . S
O513 Gd469 2.362 . S
O513 C524 1.284 . S
O514 Gd469 2.324 . S
O514 C534 1.254 . S
O515 Gd468 2.429 . S
O515 C534 1.268 . S
O516 Gd468 2.545 . S
O516 C524 1.250 . S
O517 Gd468 2.412 . S
O517 C527 1.252 . S
O518 Gd469 2.545 . S
O518 C536 1.258 . S
O519 Gd468 2.362 . S
O519 Gd469 2.606 . S
O519 C535 1.284 . S
O520 Gd468 2.324 . S
O520 C543 1.254 . S
O521 Gd469 2.429 . S
O521 C543 1.268 . S
O522 Gd469 2.545 . S
O522 C535 1.250 . S
O523 Gd469 2.412 . S
O523 C536 1.252 . S
C524 O513 1.284 . S
C524 O516 1.250 . S
C525 H494 0.929 . S
C525 C510 1.437 . S
C525 C526 1.317 . S
C526 H497 0.930 . S
C526 C502 1.431 . S
C526 C525 1.317 . S
C527 Gd468 2.828 . S
C527 O512 1.258 . S
C527 O517 1.252 . S
C527 C528 1.497 . S
C528 C527 1.497 . S
C528 C529 1.395 . S
C528 C530 1.380 . S
C529 C528 1.395 . S
C529 C532 1.398 . S
C529 H544 0.930 . S
C530 C528 1.380 . S
C530 C531 1.391 . S
C530 H545 0.930 . S
C531 C530 1.391 . S
C531 C533 1.387 . S
C532 C529 1.398 . S
C532 C533 1.380 . S
C532 H546 0.930 . S
C533 C531 1.387 . S
C533 C532 1.380 . S
C533 H547 0.930 . S
C534 O514 1.254 . S
C534 O515 1.268 . S
C535 O519 1.284 . S
C535 O522 1.250 . S
C536 Gd469 2.828 . S
C536 O518 1.258 . S
C536 O523 1.252 . S
C536 C537 1.497 . S
C537 C536 1.497 . S
C537 C538 1.395 . S
C537 C539 1.380 . S
C538 C537 1.395 . S
C538 C541 1.398 . S
C538 H548 0.930 . S
C539 C537 1.380 . S
C539 C540 1.391 . S
C539 H549 0.930 . S
C540 C539 1.391 . S
C540 C542 1.387 . S
C541 C538 1.398 . S
C541 C542 1.380 . S
C541 H550 0.930 . S
C542 C540 1.387 . S
C542 C541 1.380 . S
C542 H551 0.930 . S
C543 O520 1.254 . S
C543 O521 1.268 . S
H544 C529 0.930 . S
H545 C530 0.930 . S
H546 C532 0.930 . S
H547 C533 0.930 . S
H548 C538 0.930 . S
H549 C539 0.930 . S
H550 C541 0.930 . S
H551 C542 0.930 . S
Gd552 N583 2.661 . S
Gd552 N589 2.601 . S
Gd552 O596 2.545 . S
Gd552 O597 2.606 . S
Gd552 O599 2.429 . S
Gd552 O600 2.545 . S
Gd552 O601 2.412 . S
Gd552 O603 2.362 . S
Gd552 O604 2.324 . S
Gd552 C611 2.828 . S
Gd553 N562 2.661 . S
Gd553 N566 2.601 . S
Gd553 O597 2.362 . S
Gd553 O598 2.324 . S
Gd553 O602 2.545 . S
Gd553 O603 2.606 . S
Gd553 O605 2.429 . S
Gd553 O606 2.545 . S
Gd553 O607 2.412 . S
Gd553 C620 2.828 . S
C554 C557 1.417 . S
C554 C559 1.431 . S
C554 C560 1.412 . S
C555 C558 1.437 . S
C555 C559 1.317 . S
C555 H574 0.929 . S
C556 C557 1.426 . S
C556 C558 1.413 . S
C556 N566 1.359 . S
C557 C554 1.417 . S
C557 C556 1.426 . S
C557 N562 1.350 . S
C558 C555 1.437 . S
C558 C556 1.413 . S
C558 C568 1.391 . S
C559 C554 1.431 . S
C559 C555 1.317 . S
C559 H570 0.930 . S
C560 C554 1.412 . S
C560 C561 1.355 . S
C560 H572 0.930 . S
C561 C560 1.355 . S
C561 C563 1.402 . S
C561 H573 0.930 . S
N562 Gd553 2.661 . S
N562 C557 1.350 . S
N562 C563 1.307 . S
C563 C561 1.402 . S
C563 N562 1.307 . S
C563 H564 0.930 . S
H564 C563 0.930 . S
C565 N566 1.334 . S
C565 C567 1.394 . S
C565 H569 0.930 . S
N566 Gd553 2.601 . S
N566 C556 1.359 . S
N566 C565 1.334 . S
C567 C565 1.394 . S
C567 C568 1.359 . S
C567 H579 0.930 . S
C568 C558 1.391 . S
C568 C567 1.359 . S
C568 H580 0.929 . S
H569 C565 0.930 . S
H570 C559 0.930 . S
H571 C588 0.930 . S
H572 C560 0.930 . S
H573 C561 0.930 . S
H574 C555 0.929 . S
H575 C593 0.930 . S
H576 C584 0.930 . S
H577 C585 0.930 . S
H578 C609 0.929 . S
H579 C567 0.930 . S
H580 C568 0.929 . S
H581 C610 0.930 . S
H582 C591 0.930 . S
N583 Gd552 2.661 . S
N583 C587 1.350 . S
N583 C588 1.307 . S
C584 H576 0.930 . S
C584 C585 1.355 . S
C584 C586 1.412 . S
C585 H577 0.930 . S
C585 C584 1.355 . S
C585 C588 1.402 . S
C586 C584 1.412 . S
C586 C587 1.417 . S
C586 C610 1.431 . S
C587 N583 1.350 . S
C587 C586 1.417 . S
C587 C590 1.426 . S
C588 H571 0.930 . S
C588 N583 1.307 . S
C588 C585 1.402 . S
N589 Gd552 2.601 . S
N589 C590 1.359 . S
N589 C593 1.334 . S
C590 C587 1.426 . S
C590 N589 1.359 . S
C590 C594 1.413 . S
C591 H582 0.930 . S
C591 C592 1.359 . S
C591 C593 1.394 . S
C592 C591 1.359 . S
C592 C594 1.391 . S
C592 H595 0.929 . S
C593 H575 0.930 . S
C593 N589 1.334 . S
C593 C591 1.394 . S
C594 C590 1.413 . S
C594 C592 1.391 . S
C594 C609 1.437 . S
H595 C592 0.929 . S
O596 Gd552 2.545 . S
O596 C611 1.258 . S
O597 Gd552 2.606 . S
O597 Gd553 2.362 . S
O597 C608 1.284 . S
O598 Gd553 2.324 . S
O598 C618 1.254 . S
O599 Gd552 2.429 . S
O599 C618 1.268 . S
O600 Gd552 2.545 . S
O600 C608 1.250 . S
O601 Gd552 2.412 . S
O601 C611 1.252 . S
O602 Gd553 2.545 . S
O602 C620 1.258 . S
O603 Gd552 2.362 . S
O603 Gd553 2.606 . S
O603 C619 1.284 . S
O604 Gd552 2.324 . S
O604 C627 1.254 . S
O605 Gd553 2.429 . S
O605 C627 1.268 . S
O606 Gd553 2.545 . S
O606 C619 1.250 . S
O607 Gd553 2.412 . S
O607 C620 1.252 . S
C608 O597 1.284 . S
C608 O600 1.250 . S
C609 H578 0.929 . S
C609 C594 1.437 . S
C609 C610 1.317 . S
C610 H581 0.930 . S
C610 C586 1.431 . S
C610 C609 1.317 . S
C611 Gd552 2.828 . S
C611 O596 1.258 . S
C611 O601 1.252 . S
C611 C612 1.497 . S
C612 C611 1.497 . S
C612 C613 1.395 . S
C612 C614 1.380 . S
C613 C612 1.395 . S
C613 C616 1.398 . S
C613 H628 0.930 . S
C614 C612 1.380 . S
C614 C615 1.391 . S
C614 H629 0.930 . S
C615 C614 1.391 . S
C615 C617 1.387 . S
C616 C613 1.398 . S
C616 C617 1.380 . S
C616 H630 0.930 . S
C617 C615 1.387 . S
C617 C616 1.380 . S
C617 H631 0.930 . S
C618 O598 1.254 . S
C618 O599 1.268 . S
C619 O603 1.284 . S
C619 O606 1.250 . S
C620 Gd553 2.828 . S
C620 O602 1.258 . S
C620 O607 1.252 . S
C620 C621 1.497 . S
C621 C620 1.497 . S
C621 C622 1.395 . S
C621 C623 1.380 . S
C622 C621 1.395 . S
C622 C625 1.398 . S
C622 H632 0.930 . S
C623 C621 1.380 . S
C623 C624 1.391 . S
C623 H633 0.930 . S
C624 C623 1.391 . S
C624 C626 1.387 . S
C625 C622 1.398 . S
C625 C626 1.380 . S
C625 H634 0.930 . S
C626 C624 1.387 . S
C626 C625 1.380 . S
C626 H635 0.930 . S
C627 O604 1.254 . S
C627 O605 1.268 . S
H628 C613 0.930 . S
H629 C614 0.930 . S
H630 C616 0.930 . S
H631 C617 0.930 . S
H632 C622 0.930 . S
H633 C623 0.930 . S
H634 C625 0.930 . S
H635 C626 0.930 . S
Gd636 N667 2.661 . S
Gd636 N673 2.601 . S
Gd636 O680 2.545 . S
Gd636 O681 2.606 . S
Gd636 O683 2.429 . S
Gd636 O684 2.545 . S
Gd636 O685 2.412 . S
Gd636 O687 2.362 . S
Gd636 O688 2.324 . S
Gd636 C695 2.828 . S
Gd637 N646 2.661 . S
Gd637 N650 2.601 . S
Gd637 O681 2.362 . S
Gd637 O682 2.324 . S
Gd637 O686 2.545 . S
Gd637 O687 2.606 . S
Gd637 O689 2.429 . S
Gd637 O690 2.545 . S
Gd637 O691 2.412 . S
Gd637 C704 2.828 . S
C638 C641 1.417 . S
C638 C643 1.431 . S
C638 C644 1.412 . S
C639 C642 1.437 . S
C639 C643 1.317 . S
C639 H658 0.929 . S
C640 C641 1.426 . S
C640 C642 1.413 . S
C640 N650 1.359 . S
C641 C638 1.417 . S
C641 C640 1.426 . S
C641 N646 1.350 . S
C642 C639 1.437 . S
C642 C640 1.413 . S
C642 C652 1.391 . S
C643 C638 1.431 . S
C643 C639 1.317 . S
C643 H654 0.930 . S
C644 C638 1.412 . S
C644 C645 1.355 . S
C644 H656 0.930 . S
C645 C644 1.355 . S
C645 C647 1.402 . S
C645 H657 0.930 . S
N646 Gd637 2.661 . S
N646 C641 1.350 . S
N646 C647 1.307 . S
C647 C645 1.402 . S
C647 N646 1.307 . S
C647 H648 0.930 . S
H648 C647 0.930 . S
C649 N650 1.334 . S
C649 C651 1.394 . S
C649 H653 0.930 . S
N650 Gd637 2.601 . S
N650 C640 1.359 . S
N650 C649 1.334 . S
C651 C649 1.394 . S
C651 C652 1.359 . S
C651 H663 0.930 . S
C652 C642 1.391 . S
C652 C651 1.359 . S
C652 H664 0.929 . S
H653 C649 0.930 . S
H654 C643 0.930 . S
H655 C672 0.930 . S
H656 C644 0.930 . S
H657 C645 0.930 . S
H658 C639 0.929 . S
H659 C677 0.930 . S
H660 C668 0.930 . S
H661 C669 0.930 . S
H662 C693 0.929 . S
H663 C651 0.930 . S
H664 C652 0.929 . S
H665 C694 0.930 . S
H666 C675 0.930 . S
N667 Gd636 2.661 . S
N667 C671 1.350 . S
N667 C672 1.307 . S
C668 H660 0.930 . S
C668 C669 1.355 . S
C668 C670 1.412 . S
C669 H661 0.930 . S
C669 C668 1.355 . S
C669 C672 1.402 . S
C670 C668 1.412 . S
C670 C671 1.417 . S
C670 C694 1.431 . S
C671 N667 1.350 . S
C671 C670 1.417 . S
C671 C674 1.426 . S
C672 H655 0.930 . S
C672 N667 1.307 . S
C672 C669 1.402 . S
N673 Gd636 2.601 . S
N673 C674 1.359 . S
N673 C677 1.334 . S
C674 C671 1.426 . S
C674 N673 1.359 . S
C674 C678 1.413 . S
C675 H666 0.930 . S
C675 C676 1.359 . S
C675 C677 1.394 . S
C676 C675 1.359 . S
C676 C678 1.391 . S
C676 H679 0.929 . S
C677 H659 0.930 . S
C677 N673 1.334 . S
C677 C675 1.394 . S
C678 C674 1.413 . S
C678 C676 1.391 . S
C678 C693 1.437 . S
H679 C676 0.929 . S
O680 Gd636 2.545 . S
O680 C695 1.258 . S
O681 Gd636 2.606 . S
O681 Gd637 2.362 . S
O681 C692 1.284 . S
O682 Gd637 2.324 . S
O682 C702 1.254 . S
O683 Gd636 2.429 . S
O683 C702 1.268 . S
O684 Gd636 2.545 . S
O684 C692 1.250 . S
O685 Gd636 2.412 . S
O685 C695 1.252 . S
O686 Gd637 2.545 . S
O686 C704 1.258 . S
O687 Gd636 2.362 . S
O687 Gd637 2.606 . S
O687 C703 1.284 . S
O688 Gd636 2.324 . S
O688 C711 1.254 . S
O689 Gd637 2.429 . S
O689 C711 1.268 . S
O690 Gd637 2.545 . S
O690 C703 1.250 . S
O691 Gd637 2.412 . S
O691 C704 1.252 . S
C692 O681 1.284 . S
C692 O684 1.250 . S
C693 H662 0.929 . S
C693 C678 1.437 . S
C693 C694 1.317 . S
C694 H665 0.930 . S
C694 C670 1.431 . S
C694 C693 1.317 . S
C695 Gd636 2.828 . S
C695 O680 1.258 . S
C695 O685 1.252 . S
C695 C696 1.497 . S
C696 C695 1.497 . S
C696 C697 1.395 . S
C696 C698 1.380 . S
C697 C696 1.395 . S
C697 C700 1.398 . S
C697 H712 0.930 . S
C698 C696 1.380 . S
C698 C699 1.391 . S
C698 H713 0.930 . S
C699 C698 1.391 . S
C699 C701 1.387 . S
C700 C697 1.398 . S
C700 C701 1.380 . S
C700 H714 0.930 . S
C701 C699 1.387 . S
C701 C700 1.380 . S
C701 H715 0.930 . S
C702 O682 1.254 . S
C702 O683 1.268 . S
C703 O687 1.284 . S
C703 O690 1.250 . S
C704 Gd637 2.828 . S
C704 O686 1.258 . S
C704 O691 1.252 . S
C704 C705 1.497 . S
C705 C704 1.497 . S
C705 C706 1.395 . S
C705 C707 1.380 . S
C706 C705 1.395 . S
C706 C709 1.398 . S
C706 H716 0.930 . S
C707 C705 1.380 . S
C707 C708 1.391 . S
C707 H717 0.930 . S
C708 C707 1.391 . S
C708 C710 1.387 . S
C709 C706 1.398 . S
C709 C710 1.380 . S
C709 H718 0.930 . S
C710 C708 1.387 . S
C710 C709 1.380 . S
C710 H719 0.930 . S
C711 O688 1.254 . S
C711 O689 1.268 . S
H712 C697 0.930 . S
H713 C698 0.930 . S
H714 C700 0.930 . S
H715 C701 0.930 . S
H716 C706 0.930 . S
H717 C707 0.930 . S
H718 C709 0.930 . S
H719 C710 0.930 . S
Gd720 N751 2.661 . S
Gd720 N757 2.601 . S
Gd720 O764 2.545 . S
Gd720 O765 2.606 . S
Gd720 O767 2.429 . S
Gd720 O768 2.545 . S
Gd720 O769 2.412 . S
Gd720 O771 2.362 . S
Gd720 O772 2.324 . S
Gd720 C779 2.828 . S
Gd721 N730 2.661 . S
Gd721 N734 2.601 . S
Gd721 O765 2.362 . S
Gd721 O766 2.324 . S
Gd721 O770 2.545 . S
Gd721 O771 2.606 . S
Gd721 O773 2.429 . S
Gd721 O774 2.545 . S
Gd721 O775 2.412 . S
Gd721 C788 2.828 . S
C722 C725 1.417 . S
C722 C727 1.431 . S
C722 C728 1.412 . S
C723 C726 1.437 . S
C723 C727 1.317 . S
C723 H742 0.929 . S
C724 C725 1.426 . S
C724 C726 1.413 . S
C724 N734 1.359 . S
C725 C722 1.417 . S
C725 C724 1.426 . S
C725 N730 1.350 . S
C726 C723 1.437 . S
C726 C724 1.413 . S
C726 C736 1.391 . S
C727 C722 1.431 . S
C727 C723 1.317 . S
C727 H738 0.930 . S
C728 C722 1.412 . S
C728 C729 1.355 . S
C728 H740 0.930 . S
C729 C728 1.355 . S
C729 C731 1.402 . S
C729 H741 0.930 . S
N730 Gd721 2.661 . S
N730 C725 1.350 . S
N730 C731 1.307 . S
C731 C729 1.402 . S
C731 N730 1.307 . S
C731 H732 0.930 . S
H732 C731 0.930 . S
C733 N734 1.334 . S
C733 C735 1.394 . S
C733 H737 0.930 . S
N734 Gd721 2.601 . S
N734 C724 1.359 . S
N734 C733 1.334 . S
C735 C733 1.394 . S
C735 C736 1.359 . S
C735 H747 0.930 . S
C736 C726 1.391 . S
C736 C735 1.359 . S
C736 H748 0.929 . S
H737 C733 0.930 . S
H738 C727 0.930 . S
H739 C756 0.930 . S
H740 C728 0.930 . S
H741 C729 0.930 . S
H742 C723 0.929 . S
H743 C761 0.930 . S
H744 C752 0.930 . S
H745 C753 0.930 . S
H746 C777 0.929 . S
H747 C735 0.930 . S
H748 C736 0.929 . S
H749 C778 0.930 . S
H750 C759 0.930 . S
N751 Gd720 2.661 . S
N751 C755 1.350 . S
N751 C756 1.307 . S
C752 H744 0.930 . S
C752 C753 1.355 . S
C752 C754 1.412 . S
C753 H745 0.930 . S
C753 C752 1.355 . S
C753 C756 1.402 . S
C754 C752 1.412 . S
C754 C755 1.417 . S
C754 C778 1.431 . S
C755 N751 1.350 . S
C755 C754 1.417 . S
C755 C758 1.426 . S
C756 H739 0.930 . S
C756 N751 1.307 . S
C756 C753 1.402 . S
N757 Gd720 2.601 . S
N757 C758 1.359 . S
N757 C761 1.334 . S
C758 C755 1.426 . S
C758 N757 1.359 . S
C758 C762 1.413 . S
C759 H750 0.930 . S
C759 C760 1.359 . S
C759 C761 1.394 . S
C760 C759 1.359 . S
C760 C762 1.391 . S
C760 H763 0.929 . S
C761 H743 0.930 . S
C761 N757 1.334 . S
C761 C759 1.394 . S
C762 C758 1.413 . S
C762 C760 1.391 . S
C762 C777 1.437 . S
H763 C760 0.929 . S
O764 Gd720 2.545 . S
O764 C779 1.258 . S
O765 Gd720 2.606 . S
O765 Gd721 2.362 . S
O765 C776 1.284 . S
O766 Gd721 2.324 . S
O766 C786 1.254 . S
O767 Gd720 2.429 . S
O767 C786 1.268 . S
O768 Gd720 2.545 . S
O768 C776 1.250 . S
O769 Gd720 2.412 . S
O769 C779 1.252 . S
O770 Gd721 2.545 . S
O770 C788 1.258 . S
O771 Gd720 2.362 . S
O771 Gd721 2.606 . S
O771 C787 1.284 . S
O772 Gd720 2.324 . S
O772 C795 1.254 . S
O773 Gd721 2.429 . S
O773 C795 1.268 . S
O774 Gd721 2.545 . S
O774 C787 1.250 . S
O775 Gd721 2.412 . S
O775 C788 1.252 . S
C776 O765 1.284 . S
C776 O768 1.250 . S
C777 H746 0.929 . S
C777 C762 1.437 . S
C777 C778 1.317 . S
C778 H749 0.930 . S
C778 C754 1.431 . S
C778 C777 1.317 . S
C779 Gd720 2.828 . S
C779 O764 1.258 . S
C779 O769 1.252 . S
C779 C780 1.497 . S
C780 C779 1.497 . S
C780 C781 1.395 . S
C780 C782 1.380 . S
C781 C780 1.395 . S
C781 C784 1.398 . S
C781 H796 0.930 . S
C782 C780 1.380 . S
C782 C783 1.391 . S
C782 H797 0.930 . S
C783 C782 1.391 . S
C783 C785 1.387 . S
C784 C781 1.398 . S
C784 C785 1.380 . S
C784 H798 0.930 . S
C785 C783 1.387 . S
C785 C784 1.380 . S
C785 H799 0.930 . S
C786 O766 1.254 . S
C786 O767 1.268 . S
C787 O771 1.284 . S
C787 O774 1.250 . S
C788 Gd721 2.828 . S
C788 O770 1.258 . S
C788 O775 1.252 . S
C788 C789 1.497 . S
C789 C788 1.497 . S
C789 C790 1.395 . S
C789 C791 1.380 . S
C790 C789 1.395 . S
C790 C793 1.398 . S
C790 H800 0.930 . S
C791 C789 1.380 . S
C791 C792 1.391 . S
C791 H801 0.930 . S
C792 C791 1.391 . S
C792 C794 1.387 . S
C793 C790 1.398 . S
C793 C794 1.380 . S
C793 H802 0.930 . S
C794 C792 1.387 . S
C794 C793 1.380 . S
C794 H803 0.930 . S
C795 O772 1.254 . S
C795 O773 1.268 . S
H796 C781 0.930 . S
H797 C782 0.930 . S
H798 C784 0.930 . S
H799 C785 0.930 . S
H800 C790 0.930 . S
H801 C791 0.930 . S
H802 C793 0.930 . S
H803 C794 0.930 . S
Gd804 N835 2.661 . S
Gd804 N841 2.601 . S
Gd804 O848 2.545 . S
Gd804 O849 2.606 . S
Gd804 O851 2.429 . S
Gd804 O852 2.545 . S
Gd804 O853 2.412 . S
Gd804 O855 2.362 . S
Gd804 O856 2.324 . S
Gd804 C863 2.828 . S
Gd805 N814 2.661 . S
Gd805 N818 2.601 . S
Gd805 O849 2.362 . S
Gd805 O850 2.324 . S
Gd805 O854 2.545 . S
Gd805 O855 2.606 . S
Gd805 O857 2.429 . S
Gd805 O858 2.545 . S
Gd805 O859 2.412 . S
Gd805 C872 2.828 . S
C806 C809 1.417 . S
C806 C811 1.431 . S
C806 C812 1.412 . S
C807 C810 1.437 . S
C807 C811 1.317 . S
C807 H826 0.929 . S
C808 C809 1.426 . S
C808 C810 1.413 . S
C808 N818 1.359 . S
C809 C806 1.417 . S
C809 C808 1.426 . S
C809 N814 1.350 . S
C810 C807 1.437 . S
C810 C808 1.413 . S
C810 C820 1.391 . S
C811 C806 1.431 . S
C811 C807 1.317 . S
C811 H822 0.930 . S
C812 C806 1.412 . S
C812 C813 1.355 . S
C812 H824 0.930 . S
C813 C812 1.355 . S
C813 C815 1.402 . S
C813 H825 0.930 . S
N814 Gd805 2.661 . S
N814 C809 1.350 . S
N814 C815 1.307 . S
C815 C813 1.402 . S
C815 N814 1.307 . S
C815 H816 0.930 . S
H816 C815 0.930 . S
C817 N818 1.334 . S
C817 C819 1.394 . S
C817 H821 0.930 . S
N818 Gd805 2.601 . S
N818 C808 1.359 . S
N818 C817 1.334 . S
C819 C817 1.394 . S
C819 C820 1.359 . S
C819 H831 0.930 . S
C820 C810 1.391 . S
C820 C819 1.359 . S
C820 H832 0.929 . S
H821 C817 0.930 . S
H822 C811 0.930 . S
H823 C840 0.930 . S
H824 C812 0.930 . S
H825 C813 0.930 . S
H826 C807 0.929 . S
H827 C845 0.930 . S
H828 C836 0.930 . S
H829 C837 0.930 . S
H830 C861 0.929 . S
H831 C819 0.930 . S
H832 C820 0.929 . S
H833 C862 0.930 . S
H834 C843 0.930 . S
N835 Gd804 2.661 . S
N835 C839 1.350 . S
N835 C840 1.307 . S
C836 H828 0.930 . S
C836 C837 1.355 . S
C836 C838 1.412 . S
C837 H829 0.930 . S
C837 C836 1.355 . S
C837 C840 1.402 . S
C838 C836 1.412 . S
C838 C839 1.417 . S
C838 C862 1.431 . S
C839 N835 1.350 . S
C839 C838 1.417 . S
C839 C842 1.426 . S
C840 H823 0.930 . S
C840 N835 1.307 . S
C840 C837 1.402 . S
N841 Gd804 2.601 . S
N841 C842 1.359 . S
N841 C845 1.334 . S
C842 C839 1.426 . S
C842 N841 1.359 . S
C842 C846 1.413 . S
C843 H834 0.930 . S
C843 C844 1.359 . S
C843 C845 1.394 . S
C844 C843 1.359 . S
C844 C846 1.391 . S
C844 H847 0.929 . S
C845 H827 0.930 . S
C845 N841 1.334 . S
C845 C843 1.394 . S
C846 C842 1.413 . S
C846 C844 1.391 . S
C846 C861 1.437 . S
H847 C844 0.929 . S
O848 Gd804 2.545 . S
O848 C863 1.258 . S
O849 Gd804 2.606 . S
O849 Gd805 2.362 . S
O849 C860 1.284 . S
O850 Gd805 2.324 . S
O850 C870 1.254 . S
O851 Gd804 2.429 . S
O851 C870 1.268 . S
O852 Gd804 2.545 . S
O852 C860 1.250 . S
O853 Gd804 2.412 . S
O853 C863 1.252 . S
O854 Gd805 2.545 . S
O854 C872 1.258 . S
O855 Gd804 2.362 . S
O855 Gd805 2.606 . S
O855 C871 1.284 . S
O856 Gd804 2.324 . S
O856 C879 1.254 . S
O857 Gd805 2.429 . S
O857 C879 1.268 . S
O858 Gd805 2.545 . S
O858 C871 1.250 . S
O859 Gd805 2.412 . S
O859 C872 1.252 . S
C860 O849 1.284 . S
C860 O852 1.250 . S
C861 H830 0.929 . S
C861 C846 1.437 . S
C861 C862 1.317 . S
C862 H833 0.930 . S
C862 C838 1.431 . S
C862 C861 1.317 . S
C863 Gd804 2.828 . S
C863 O848 1.258 . S
C863 O853 1.252 . S
C863 C864 1.497 . S
C864 C863 1.497 . S
C864 C865 1.395 . S
C864 C866 1.380 . S
C865 C864 1.395 . S
C865 C868 1.398 . S
C865 H880 0.930 . S
C866 C864 1.380 . S
C866 C867 1.391 . S
C866 H881 0.930 . S
C867 C866 1.391 . S
C867 C869 1.387 . S
C868 C865 1.398 . S
C868 C869 1.380 . S
C868 H882 0.930 . S
C869 C867 1.387 . S
C869 C868 1.380 . S
C869 H883 0.930 . S
C870 O850 1.254 . S
C870 O851 1.268 . S
C871 O855 1.284 . S
C871 O858 1.250 . S
C872 Gd805 2.828 . S
C872 O854 1.258 . S
C872 O859 1.252 . S
C872 C873 1.497 . S
C873 C872 1.497 . S
C873 C874 1.395 . S
C873 C875 1.380 . S
C874 C873 1.395 . S
C874 C877 1.398 . S
C874 H884 0.930 . S
C875 C873 1.380 . S
C875 C876 1.391 . S
C875 H885 0.930 . S
C876 C875 1.391 . S
C876 C878 1.387 . S
C877 C874 1.398 . S
C877 C878 1.380 . S
C877 H886 0.930 . S
C878 C876 1.387 . S
C878 C877 1.380 . S
C878 H887 0.930 . S
C879 O856 1.254 . S
C879 O857 1.268 . S
H880 C865 0.930 . S
H881 C866 0.930 . S
H882 C868 0.930 . S
H883 C869 0.930 . S
H884 C874 0.930 . S
H885 C875 0.930 . S
H886 C877 0.930 . S
H887 C878 0.930 . S
Gd888 N919 2.661 . S
Gd888 N925 2.601 . S
Gd888 O932 2.545 . S
Gd888 O933 2.606 . S
Gd888 O935 2.429 . S
Gd888 O936 2.545 . S
Gd888 O937 2.412 . S
Gd888 O939 2.362 . S
Gd888 O940 2.324 . S
Gd888 C947 2.828 . S
Gd889 N898 2.661 . S
Gd889 N902 2.601 . S
Gd889 O933 2.362 . S
Gd889 O934 2.324 . S
Gd889 O938 2.545 . S
Gd889 O939 2.606 . S
Gd889 O941 2.429 . S
Gd889 O942 2.545 . S
Gd889 O943 2.412 . S
Gd889 C956 2.828 . S
C890 C893 1.417 . S
C890 C895 1.431 . S
C890 C896 1.412 . S
C891 C894 1.437 . S
C891 C895 1.317 . S
C891 H910 0.929 . S
C892 C893 1.426 . S
C892 C894 1.413 . S
C892 N902 1.359 . S
C893 C890 1.417 . S
C893 C892 1.426 . S
C893 N898 1.350 . S
C894 C891 1.437 . S
C894 C892 1.413 . S
C894 C904 1.391 . S
C895 C890 1.431 . S
C895 C891 1.317 . S
C895 H906 0.930 . S
C896 C890 1.412 . S
C896 C897 1.355 . S
C896 H908 0.930 . S
C897 C896 1.355 . S
C897 C899 1.402 . S
C897 H909 0.930 . S
N898 Gd889 2.661 . S
N898 C893 1.350 . S
N898 C899 1.307 . S
C899 C897 1.402 . S
C899 N898 1.307 . S
C899 H900 0.930 . S
H900 C899 0.930 . S
C901 N902 1.334 . S
C901 C903 1.394 . S
C901 H905 0.930 . S
N902 Gd889 2.601 . S
N902 C892 1.359 . S
N902 C901 1.334 . S
C903 C901 1.394 . S
C903 C904 1.359 . S
C903 H915 0.930 . S
C904 C894 1.391 . S
C904 C903 1.359 . S
C904 H916 0.929 . S
H905 C901 0.930 . S
H906 C895 0.930 . S
H907 C924 0.930 . S
H908 C896 0.930 . S
H909 C897 0.930 . S
H910 C891 0.929 . S
H911 C929 0.930 . S
H912 C920 0.930 . S
H913 C921 0.930 . S
H914 C945 0.929 . S
H915 C903 0.930 . S
H916 C904 0.929 . S
H917 C946 0.930 . S
H918 C927 0.930 . S
N919 Gd888 2.661 . S
N919 C923 1.350 . S
N919 C924 1.307 . S
C920 H912 0.930 . S
C920 C921 1.355 . S
C920 C922 1.412 . S
C921 H913 0.930 . S
C921 C920 1.355 . S
C921 C924 1.402 . S
C922 C920 1.412 . S
C922 C923 1.417 . S
C922 C946 1.431 . S
C923 N919 1.350 . S
C923 C922 1.417 . S
C923 C926 1.426 . S
C924 H907 0.930 . S
C924 N919 1.307 . S
C924 C921 1.402 . S
N925 Gd888 2.601 . S
N925 C926 1.359 . S
N925 C929 1.334 . S
C926 C923 1.426 . S
C926 N925 1.359 . S
C926 C930 1.413 . S
C927 H918 0.930 . S
C927 C928 1.359 . S
C927 C929 1.394 . S
C928 C927 1.359 . S
C928 C930 1.391 . S
C928 H931 0.929 . S
C929 H911 0.930 . S
C929 N925 1.334 . S
C929 C927 1.394 . S
C930 C926 1.413 . S
C930 C928 1.391 . S
C930 C945 1.437 . S
H931 C928 0.929 . S
O932 Gd888 2.545 . S
O932 C947 1.258 . S
O933 Gd888 2.606 . S
O933 Gd889 2.362 . S
O933 C944 1.284 . S
O934 Gd889 2.324 . S
O934 C954 1.254 . S
O935 Gd888 2.429 . S
O935 C954 1.268 . S
O936 Gd888 2.545 . S
O936 C944 1.250 . S
O937 Gd888 2.412 . S
O937 C947 1.252 . S
O938 Gd889 2.545 . S
O938 C956 1.258 . S
O939 Gd888 2.362 . S
O939 Gd889 2.606 . S
O939 C955 1.284 . S
O940 Gd888 2.324 . S
O940 C963 1.254 . S
O941 Gd889 2.429 . S
O941 C963 1.268 . S
O942 Gd889 2.545 . S
O942 C955 1.250 . S
O943 Gd889 2.412 . S
O943 C956 1.252 . S
C944 O933 1.284 . S
C944 O936 1.250 . S
C945 H914 0.929 . S
C945 C930 1.437 . S
C945 C946 1.317 . S
C946 H917 0.930 . S
C946 C922 1.431 . S
C946 C945 1.317 . S
C947 Gd888 2.828 . S
C947 O932 1.258 . S
C947 O937 1.252 . S
C947 C948 1.497 . S
C948 C947 1.497 . S
C948 C949 1.395 . S
C948 C950 1.380 . S
C949 C948 1.395 . S
C949 C952 1.398 . S
C949 H964 0.930 . S
C950 C948 1.380 . S
C950 C951 1.391 . S
C950 H965 0.930 . S
C951 C950 1.391 . S
C951 C953 1.387 . S
C952 C949 1.398 . S
C952 C953 1.380 . S
C952 H966 0.930 . S
C953 C951 1.387 . S
C953 C952 1.380 . S
C953 H967 0.930 . S
C954 O934 1.254 . S
C954 O935 1.268 . S
C955 O939 1.284 . S
C955 O942 1.250 . S
C956 Gd889 2.828 . S
C956 O938 1.258 . S
C956 O943 1.252 . S
C956 C957 1.497 . S
C957 C956 1.497 . S
C957 C958 1.395 . S
C957 C959 1.380 . S
C958 C957 1.395 . S
C958 C961 1.398 . S
C958 H968 0.930 . S
C959 C957 1.380 . S
C959 C960 1.391 . S
C959 H969 0.930 . S
C960 C959 1.391 . S
C960 C962 1.387 . S
C961 C958 1.398 . S
C961 C962 1.380 . S
C961 H970 0.930 . S
C962 C960 1.387 . S
C962 C961 1.380 . S
C962 H971 0.930 . S
C963 O940 1.254 . S
C963 O941 1.268 . S
H964 C949 0.930 . S
H965 C950 0.930 . S
H966 C952 0.930 . S
H967 C953 0.930 . S
H968 C958 0.930 . S
H969 C959 0.930 . S
H970 C961 0.930 . S
H971 C962 0.930 . S
C972 C973 1.349 . S
C972 C974 1.327 . S
C972 H997 0.950 . S
C973 C972 1.349 . S
C973 C989 1.349 . S
C974 C972 1.327 . S
C974 C993 1.429 . S
C974 H998 0.950 . S
C975 C992 1.574 . S
C975 C994 1.368 . S
C975 H999 0.949 . S
H976 C980 0.949 . S
C977 C978 1.349 . S
C977 C979 1.327 . S
C977 H1000 0.950 . S
C978 C977 1.349 . S
C978 C990 1.349 . S
C979 C977 1.327 . S
C979 C995 1.429 . S
C979 H1001 0.950 . S
C980 H976 0.949 . S
C980 C988 1.574 . S
C980 C996 1.368 . S
H981 C989 0.950 . S
H982 C987 0.950 . S
H983 C988 0.949 . S
H984 C990 0.950 . S
H985 C991 0.950 . S
H986 C992 0.949 . S
C987 H982 0.950 . S
C987 C989 1.327 . S
C987 C993 1.429 . S
C988 C980 1.574 . S
C988 H983 0.949 . S
C988 C994 1.368 . S
C989 C973 1.349 . S
C989 H981 0.950 . S
C989 C987 1.327 . S
C990 C978 1.349 . S
C990 H984 0.950 . S
C990 C991 1.327 . S
C991 H985 0.950 . S
C991 C990 1.327 . S
C991 C995 1.429 . S
C992 C975 1.574 . S
C992 H986 0.949 . S
C992 C996 1.368 . S
C993 C974 1.429 . S
C993 C987 1.429 . S
C993 C994 1.523 . S
C994 C975 1.368 . S
C994 C988 1.368 . S
C994 C993 1.523 . S
C995 C979 1.429 . S
C995 C991 1.429 . S
C995 C996 1.523 . S
C996 C980 1.368 . S
C996 C992 1.368 . S
C996 C995 1.523 . S
H997 C972 0.950 . S
H998 C974 0.950 . S
H999 C975 0.949 . S
H1000 C977 0.950 . S
H1001 C979 0.950 . S
C1002 C1003 1.349 . S
C1002 C1004 1.327 . S
C1002 H1027 0.950 . S
C1003 C1002 1.349 . S
C1003 C1019 1.349 . S
C1004 C1002 1.327 . S
C1004 C1023 1.429 . S
C1004 H1028 0.950 . S
C1005 C1022 1.574 . S
C1005 C1024 1.368 . S
C1005 H1029 0.949 . S
H1006 C1010 0.949 . S
C1007 C1008 1.349 . S
C1007 C1009 1.327 . S
C1007 H1030 0.950 . S
C1008 C1007 1.349 . S
C1008 C1020 1.349 . S
C1009 C1007 1.327 . S
C1009 C1025 1.429 . S
C1009 H1031 0.950 . S
C1010 H1006 0.949 . S
C1010 C1018 1.574 . S
C1010 C1026 1.368 . S
H1011 C1019 0.950 . S
H1012 C1017 0.950 . S
H1013 C1018 0.949 . S
H1014 C1020 0.950 . S
H1015 C1021 0.950 . S
H1016 C1022 0.949 . S
C1017 H1012 0.950 . S
C1017 C1019 1.327 . S
C1017 C1023 1.429 . S
C1018 C1010 1.574 . S
C1018 H1013 0.949 . S
C1018 C1024 1.368 . S
C1019 C1003 1.349 . S
C1019 H1011 0.950 . S
C1019 C1017 1.327 . S
C1020 C1008 1.349 . S
C1020 H1014 0.950 . S
C1020 C1021 1.327 . S
C1021 H1015 0.950 . S
C1021 C1020 1.327 . S
C1021 C1025 1.429 . S
C1022 C1005 1.574 . S
C1022 H1016 0.949 . S
C1022 C1026 1.368 . S
C1023 C1004 1.429 . S
C1023 C1017 1.429 . S
C1023 C1024 1.523 . S
C1024 C1005 1.368 . S
C1024 C1018 1.368 . S
C1024 C1023 1.523 . S
C1025 C1009 1.429 . S
C1025 C1021 1.429 . S
C1025 C1026 1.523 . S
C1026 C1010 1.368 . S
C1026 C1022 1.368 . S
C1026 C1025 1.523 . S
H1027 C1002 0.950 . S
H1028 C1004 0.950 . S
H1029 C1005 0.949 . S
H1030 C1007 0.950 . S
H1031 C1009 0.950 . S
C1032 C1033 1.349 . S
C1032 C1034 1.327 . S
C1032 H1057 0.950 . S
C1033 C1032 1.349 . S
C1033 C1049 1.349 . S
C1034 C1032 1.327 . S
C1034 C1053 1.429 . S
C1034 H1058 0.950 . S
C1035 C1052 1.574 . S
C1035 C1054 1.368 . S
C1035 H1059 0.949 . S
H1036 C1040 0.949 . S
C1037 C1038 1.349 . S
C1037 C1039 1.327 . S
C1037 H1060 0.950 . S
C1038 C1037 1.349 . S
C1038 C1050 1.349 . S
C1039 C1037 1.327 . S
C1039 C1055 1.429 . S
C1039 H1061 0.950 . S
C1040 H1036 0.949 . S
C1040 C1048 1.574 . S
C1040 C1056 1.368 . S
H1041 C1049 0.950 . S
H1042 C1047 0.950 . S
H1043 C1048 0.949 . S
H1044 C1050 0.950 . S
H1045 C1051 0.950 . S
H1046 C1052 0.949 . S
C1047 H1042 0.950 . S
C1047 C1049 1.327 . S
C1047 C1053 1.429 . S
C1048 C1040 1.574 . S
C1048 H1043 0.949 . S
C1048 C1054 1.368 . S
C1049 C1033 1.349 . S
C1049 H1041 0.950 . S
C1049 C1047 1.327 . S
C1050 C1038 1.349 . S
C1050 H1044 0.950 . S
C1050 C1051 1.327 . S
C1051 H1045 0.950 . S
C1051 C1050 1.327 . S
C1051 C1055 1.429 . S
C1052 C1035 1.574 . S
C1052 H1046 0.949 . S
C1052 C1056 1.368 . S
C1053 C1034 1.429 . S
C1053 C1047 1.429 . S
C1053 C1054 1.523 . S
C1054 C1035 1.368 . S
C1054 C1048 1.368 . S
C1054 C1053 1.523 . S
C1055 C1039 1.429 . S
C1055 C1051 1.429 . S
C1055 C1056 1.523 . S
C1056 C1040 1.368 . S
C1056 C1052 1.368 . S
C1056 C1055 1.523 . S
H1057 C1032 0.950 . S
H1058 C1034 0.950 . S
H1059 C1035 0.949 . S
H1060 C1037 0.950 . S
H1061 C1039 0.950 . S
C1062 C1063 1.349 . S
C1062 C1064 1.327 . S
C1062 H1087 0.950 . S
C1063 C1062 1.349 . S
C1063 C1079 1.349 . S
C1064 C1062 1.327 . S
C1064 C1083 1.429 . S
C1064 H1088 0.950 . S
C1065 C1082 1.574 . S
C1065 C1084 1.368 . S
C1065 H1089 0.949 . S
H1066 C1070 0.949 1_554 S
C1067 C1068 1.349 . S
C1067 C1069 1.327 . S
C1067 H1090 0.950 . S
C1068 C1067 1.349 . S
C1068 C1080 1.349 1_556 S
C1069 C1067 1.327 . S
C1069 C1085 1.429 . S
C1069 H1091 0.950 . S
C1070 H1066 0.949 1_556 S
C1070 C1078 1.574 . S
C1070 C1086 1.368 . S
H1071 C1079 0.950 . S
H1072 C1077 0.950 . S
H1073 C1078 0.949 . S
H1074 C1080 0.950 . S
H1075 C1081 0.950 . S
H1076 C1082 0.949 . S
C1077 H1072 0.950 . S
C1077 C1079 1.327 . S
C1077 C1083 1.429 . S
C1078 C1070 1.574 . S
C1078 H1073 0.949 . S
C1078 C1084 1.368 . S
C1079 C1063 1.349 . S
C1079 H1071 0.950 . S
C1079 C1077 1.327 . S
C1080 C1068 1.349 1_554 S
C1080 H1074 0.950 . S
C1080 C1081 1.327 . S
C1081 H1075 0.950 . S
C1081 C1080 1.327 . S
C1081 C1085 1.429 1_554 S
C1082 C1065 1.574 . S
C1082 H1076 0.949 . S
C1082 C1086 1.368 . S
C1083 C1064 1.429 . S
C1083 C1077 1.429 . S
C1083 C1084 1.523 . S
C1084 C1065 1.368 . S
C1084 C1078 1.368 . S
C1084 C1083 1.523 . S
C1085 C1069 1.429 . S
C1085 C1081 1.429 1_556 S
C1085 C1086 1.523 . S
C1086 C1070 1.368 . S
C1086 C1082 1.368 . S
C1086 C1085 1.523 . S
H1087 C1062 0.950 . S
H1088 C1064 0.950 . S
H1089 C1065 0.949 . S
H1090 C1067 0.950 . S
H1091 C1069 0.950 . S
C1092 C1093 1.349 . S
C1092 C1094 1.327 . S
C1092 H1117 0.950 . S
C1093 C1092 1.349 . S
C1093 C1109 1.349 . S
C1094 C1092 1.327 . S
C1094 C1113 1.429 . S
C1094 H1118 0.950 . S
C1095 C1112 1.574 . S
C1095 C1114 1.368 . S
C1095 H1119 0.949 . S
H1096 C1100 0.949 . S
C1097 C1098 1.349 1_554 S
C1097 C1099 1.308 1_554 S
C1097 H1120 0.950 . S
C1098 C1097 1.349 1_556 S
C1098 C1110 1.349 . S
C1099 C1097 1.308 1_556 S
C1099 C1115 1.472 . S
C1099 H1121 0.929 1_556 S
C1100 H1096 0.949 . S
C1100 C1108 1.574 . S
C1100 C1116 1.368 . S
H1101 C1109 0.950 . S
H1102 C1107 0.950 . S
H1103 C1108 0.949 . S
H1104 C1110 0.950 . S
H1105 C1111 0.950 . S
H1106 C1112 0.949 . S
C1107 H1102 0.950 . S
C1107 C1109 1.327 . S
C1107 C1113 1.429 . S
C1108 C1100 1.574 . S
C1108 H1103 0.949 . S
C1108 C1114 1.368 . S
C1109 C1093 1.349 . S
C1109 H1101 0.950 . S
C1109 C1107 1.327 . S
C1110 C1098 1.349 . S
C1110 H1104 0.950 . S
C1110 C1111 1.327 . S
C1111 H1105 0.950 . S
C1111 C1110 1.327 . S
C1111 C1115 1.429 . S
C1112 C1095 1.574 . S
C1112 H1106 0.949 . S
C1112 C1116 1.368 . S
C1113 C1094 1.429 . S
C1113 C1107 1.429 . S
C1113 C1114 1.523 . S
C1114 C1095 1.368 . S
C1114 C1108 1.368 . S
C1114 C1113 1.523 . S
C1115 C1099 1.472 . S
C1115 C1111 1.429 . S
C1115 C1116 1.523 . S
C1116 C1100 1.368 . S
C1116 C1112 1.368 . S
C1116 C1115 1.523 . S
H1117 C1092 0.950 . S
H1118 C1094 0.950 . S
H1119 C1095 0.949 . S
H1120 C1097 0.950 . S
H1121 C1099 0.929 1_554 S
C1122 C1123 1.349 . S
C1122 C1124 1.327 . S
C1122 H1147 0.950 . S
C1123 C1122 1.349 . S
C1123 C1139 1.349 . S
C1124 C1122 1.327 . S
C1124 C1143 1.429 . S
C1124 H1148 0.950 . S
C1125 C1142 1.574 . S
C1125 C1144 1.368 . S
C1125 H1149 0.949 . S
H1126 C1130 0.949 . S
C1127 C1128 1.349 . S
C1127 C1129 1.334 . S
C1127 H1150 0.943 1_556 S
C1128 C1127 1.349 . S
C1128 C1140 1.354 . S
C1129 C1127 1.334 . S
C1129 C1145 1.429 . S
C1129 H1151 0.950 . S
C1130 H1126 0.949 . S
C1130 C1138 1.574 . S
C1130 C1146 1.368 . S
H1131 C1139 0.950 . S
H1132 C1137 0.950 . S
H1133 C1138 0.949 . S
H1134 C1140 0.950 . S
H1135 C1141 0.950 . S
H1136 C1142 0.949 . S
C1137 H1132 0.950 . S
C1137 C1139 1.327 . S
C1137 C1143 1.429 . S
C1138 C1130 1.574 . S
C1138 H1133 0.949 . S
C1138 C1144 1.368 . S
C1139 C1123 1.349 . S
C1139 H1131 0.950 . S
C1139 C1137 1.327 . S
C1140 C1128 1.354 . S
C1140 H1134 0.950 . S
C1140 C1141 1.327 . S
C1141 H1135 0.950 . S
C1141 C1140 1.327 . S
C1141 C1145 1.429 . S
C1142 C1125 1.574 . S
C1142 H1136 0.949 . S
C1142 C1146 1.368 . S
C1143 C1124 1.429 . S
C1143 C1137 1.429 . S
C1143 C1144 1.523 . S
C1144 C1125 1.368 . S
C1144 C1138 1.368 . S
C1144 C1143 1.523 . S
C1145 C1129 1.429 . S
C1145 C1141 1.429 . S
C1145 C1146 1.523 . S
C1146 C1130 1.368 . S
C1146 C1142 1.368 . S
C1146 C1145 1.523 . S
H1147 C1122 0.950 . S
H1148 C1124 0.950 . S
H1149 C1125 0.949 . S
H1150 C1127 0.943 1_554 S
H1151 C1129 0.950 . S
C1152 C1153 1.349 . S
C1152 C1154 1.327 . S
C1152 H1177 0.950 . S
C1153 C1152 1.349 . S
C1153 C1169 1.349 . S
C1154 C1152 1.327 . S
C1154 C1173 1.429 . S
C1154 H1178 0.950 . S
C1155 C1172 1.574 . S
C1155 C1174 1.368 . S
C1155 H1179 0.949 . S
H1156 C1160 0.949 . S
C1157 C1158 1.349 1_554 S
C1157 C1159 1.324 1_554 S
C1157 H1180 0.950 . S
C1158 C1157 1.349 1_556 S
C1158 C1170 1.349 . S
C1159 C1157 1.324 1_556 S
C1159 C1175 1.436 . S
C1159 H1181 0.946 1_556 S
C1160 H1156 0.949 . S
C1160 C1168 1.574 . S
C1160 C1176 1.368 . S
H1161 C1169 0.950 . S
H1162 C1167 0.950 . S
H1163 C1168 0.949 . S
H1164 C1170 0.950 . S
H1165 C1171 0.950 . S
H1166 C1172 0.949 . S
C1167 H1162 0.950 . S
C1167 C1169 1.327 . S
C1167 C1173 1.429 . S
C1168 C1160 1.574 . S
C1168 H1163 0.949 . S
C1168 C1174 1.368 . S
C1169 C1153 1.349 . S
C1169 H1161 0.950 . S
C1169 C1167 1.327 . S
C1170 C1158 1.349 . S
C1170 H1164 0.950 . S
C1170 C1171 1.327 . S
C1171 H1165 0.950 . S
C1171 C1170 1.327 . S
C1171 C1175 1.429 . S
C1172 C1155 1.574 . S
C1172 H1166 0.949 . S
C1172 C1176 1.368 . S
C1173 C1154 1.429 . S
C1173 C1167 1.429 . S
C1173 C1174 1.523 . S
C1174 C1155 1.368 . S
C1174 C1168 1.368 . S
C1174 C1173 1.523 . S
C1175 C1159 1.436 . S
C1175 C1171 1.429 . S
C1175 C1176 1.523 . S
C1176 C1160 1.368 . S
C1176 C1172 1.368 . S
C1176 C1175 1.523 . S
H1177 C1152 0.950 . S
H1178 C1154 0.950 . S
H1179 C1155 0.949 . S
H1180 C1157 0.950 . S
H1181 C1159 0.946 1_554 S
C1182 C1183 1.349 . S
C1182 C1184 1.327 . S
C1182 H1207 0.950 . S
C1183 C1182 1.349 . S
C1183 C1199 1.349 . S
C1184 C1182 1.327 . S
C1184 C1203 1.429 . S
C1184 H1208 0.950 . S
C1185 C1202 1.574 . S
C1185 C1204 1.368 . S
C1185 H1209 0.949 . S
H1186 C1190 0.949 1_554 S
C1187 C1188 1.349 . S
C1187 C1189 1.327 . S
C1187 H1210 0.950 . S
C1188 C1187 1.349 . S
C1188 C1200 1.349 1_556 S
C1189 C1187 1.327 . S
C1189 C1205 1.429 . S
C1189 H1211 0.950 . S
C1190 H1186 0.949 1_556 S
C1190 C1198 1.574 . S
C1190 C1206 1.368 . S
H1191 C1199 0.950 . S
H1192 C1197 0.950 . S
H1193 C1198 0.949 . S
H1194 C1200 0.950 . S
H1195 C1201 0.950 . S
H1196 C1202 0.949 . S
C1197 H1192 0.950 . S
C1197 C1199 1.327 . S
C1197 C1203 1.429 . S
C1198 C1190 1.574 . S
C1198 H1193 0.949 . S
C1198 C1204 1.368 . S
C1199 C1183 1.349 . S
C1199 H1191 0.950 . S
C1199 C1197 1.327 . S
C1200 C1188 1.349 1_554 S
C1200 H1194 0.950 . S
C1200 C1201 1.327 . S
C1201 H1195 0.950 . S
C1201 C1200 1.327 . S
C1201 C1205 1.429 1_554 S
C1202 C1185 1.574 . S
C1202 H1196 0.949 . S
C1202 C1206 1.368 . S
C1203 C1184 1.429 . S
C1203 C1197 1.429 . S
C1203 C1204 1.523 . S
C1204 C1185 1.368 . S
C1204 C1198 1.368 . S
C1204 C1203 1.523 . S
C1205 C1189 1.429 . S
C1205 C1201 1.429 1_556 S
C1205 C1206 1.523 . S
C1206 C1190 1.368 . S
C1206 C1202 1.368 . S
C1206 C1205 1.523 . S
H1207 C1182 0.950 . S
H1208 C1184 0.950 . S
H1209 C1185 0.949 . S
H1210 C1187 0.950 . S
H1211 C1189 0.950 . S
C1212 C1213 1.349 . S
C1212 C1214 1.327 . S
C1212 H1237 0.950 . S
C1213 C1212 1.349 . S
C1213 C1229 1.349 . S
C1214 C1212 1.327 . S
C1214 C1233 1.429 . S
C1214 H1238 0.950 . S
C1215 C1232 1.574 1_556 S
C1215 C1234 1.368 . S
C1215 H1239 0.949 1_556 S
H1216 C1220 0.949 . S
C1217 C1218 1.349 . S
C1217 C1219 1.327 . S
C1217 H1240 0.950 . S
C1218 C1217 1.349 . S
C1218 C1230 1.348 1_554 S
C1219 C1217 1.327 . S
C1219 C1235 1.429 1_554 S
C1219 H1241 0.950 . S
C1220 H1216 0.949 . S
C1220 C1228 1.574 . S
C1220 C1236 1.368 . S
H1221 C1229 0.950 . S
H1222 C1227 0.950 . S
H1223 C1228 0.949 . S
H1224 C1230 0.950 . S
H1225 C1231 0.950 . S
H1226 C1232 0.949 . S
C1227 H1222 0.950 . S
C1227 C1229 1.327 . S
C1227 C1233 1.429 . S
C1228 C1220 1.574 . S
C1228 H1223 0.949 . S
C1228 C1234 1.368 . S
C1229 C1213 1.349 . S
C1229 H1221 0.950 . S
C1229 C1227 1.327 . S
C1230 C1218 1.348 1_556 S
C1230 H1224 0.950 . S
C1230 C1231 1.327 . S
C1231 H1225 0.950 . S
C1231 C1230 1.327 . S
C1231 C1235 1.429 . S
C1232 C1215 1.574 1_554 S
C1232 H1226 0.949 . S
C1232 C1236 1.368 1_554 S
C1233 C1214 1.429 . S
C1233 C1227 1.429 . S
C1233 C1234 1.523 . S
C1234 C1215 1.368 . S
C1234 C1228 1.368 . S
C1234 C1233 1.523 . S
C1235 C1219 1.429 1_556 S
C1235 C1231 1.429 . S
C1235 C1236 1.523 . S
C1236 C1220 1.368 . S
C1236 C1232 1.368 1_556 S
C1236 C1235 1.523 . S
H1237 C1212 0.950 . S
H1238 C1214 0.950 . S
H1239 C1215 0.949 1_554 S
H1240 C1217 0.950 . S
H1241 C1219 0.950 . S
C1242 C1243 1.349 . S
C1242 C1244 1.327 . S
C1242 H1267 0.950 . S
C1243 C1242 1.349 . S
C1243 C1259 1.349 . S
C1244 C1242 1.327 . S
C1244 C1263 1.429 . S
C1244 H1268 0.950 . S
C1245 C1262 1.574 . S
C1245 C1264 1.368 . S
C1245 H1269 0.949 . S
H1246 C1250 0.949 . S
C1247 C1248 1.349 . S
C1247 C1249 1.327 . S
C1247 H1270 0.950 . S
C1248 C1247 1.349 . S
C1248 C1260 1.349 . S
C1249 C1247 1.327 . S
C1249 C1265 1.429 . S
C1249 H1271 0.950 . S
C1250 H1246 0.949 . S
C1250 C1258 1.574 . S
C1250 C1266 1.368 . S
H1251 C1259 0.950 . S
H1252 C1257 0.950 . S
H1253 C1258 0.949 . S
H1254 C1260 0.950 . S
H1255 C1261 0.950 . S
H1256 C1262 0.949 . S
C1257 H1252 0.950 . S
C1257 C1259 1.327 . S
C1257 C1263 1.429 . S
C1258 C1250 1.574 . S
C1258 H1253 0.949 . S
C1258 C1264 1.368 . S
C1259 C1243 1.349 . S
C1259 H1251 0.950 . S
C1259 C1257 1.327 . S
C1260 C1248 1.349 . S
C1260 H1254 0.950 . S
C1260 C1261 1.327 . S
C1261 H1255 0.950 . S
C1261 C1260 1.327 . S
C1261 C1265 1.429 . S
C1262 C1245 1.574 . S
C1262 H1256 0.949 . S
C1262 C1266 1.368 . S
C1263 C1244 1.429 . S
C1263 C1257 1.429 . S
C1263 C1264 1.523 . S
C1264 C1245 1.368 . S
C1264 C1258 1.368 . S
C1264 C1263 1.523 . S
C1265 C1249 1.429 . S
C1265 C1261 1.429 . S
C1265 C1266 1.523 . S
C1266 C1250 1.368 . S
C1266 C1262 1.368 . S
C1266 C1265 1.523 . S
H1267 C1242 0.950 . S
H1268 C1244 0.950 . S
H1269 C1245 0.949 . S
H1270 C1247 0.950 . S
H1271 C1249 0.950 . S
C1272 C1273 1.349 . S
C1272 C1274 1.327 . S
C1272 H1297 0.950 . S
C1273 C1272 1.349 . S
C1273 C1289 1.349 . S
C1274 C1272 1.327 . S
C1274 C1293 1.429 . S
C1274 H1298 0.950 . S
C1275 C1292 1.574 . S
C1275 C1294 1.368 . S
C1275 H1299 0.949 . S
H1276 C1280 0.949 . S
C1277 C1278 1.349 . S
C1277 C1279 1.327 . S
C1277 H1300 0.950 . S
C1278 C1277 1.349 . S
C1278 C1290 1.349 . S
C1279 C1277 1.327 . S
C1279 C1295 1.429 . S
C1279 H1301 0.950 . S
C1280 H1276 0.949 . S
C1280 C1288 1.574 . S
C1280 C1296 1.368 . S
H1281 C1289 0.950 . S
H1282 C1287 0.950 . S
H1283 C1288 0.949 . S
H1284 C1290 0.950 . S
H1285 C1291 0.950 . S
H1286 C1292 0.949 . S
C1287 H1282 0.950 . S
C1287 C1289 1.327 . S
C1287 C1293 1.429 . S
C1288 C1280 1.574 . S
C1288 H1283 0.949 . S
C1288 C1294 1.368 . S
C1289 C1273 1.349 . S
C1289 H1281 0.950 . S
C1289 C1287 1.327 . S
C1290 C1278 1.349 . S
C1290 H1284 0.950 . S
C1290 C1291 1.327 . S
C1291 H1285 0.950 . S
C1291 C1290 1.327 . S
C1291 C1295 1.429 . S
C1292 C1275 1.574 . S
C1292 H1286 0.949 . S
C1292 C1296 1.368 . S
C1293 C1274 1.429 . S
C1293 C1287 1.429 . S
C1293 C1294 1.523 . S
C1294 C1275 1.368 . S
C1294 C1288 1.368 . S
C1294 C1293 1.523 . S
C1295 C1279 1.429 . S
C1295 C1291 1.429 . S
C1295 C1296 1.523 . S
C1296 C1280 1.368 . S
C1296 C1292 1.368 . S
C1296 C1295 1.523 . S
H1297 C1272 0.950 . S
H1298 C1274 0.950 . S
H1299 C1275 0.949 . S
H1300 C1277 0.950 . S
H1301 C1279 0.950 . S
C1302 C1303 1.349 . S
C1302 C1304 1.327 . S
C1302 H1327 0.950 . S
C1303 C1302 1.349 . S
C1303 C1319 1.349 . S
C1304 C1302 1.327 . S
C1304 C1323 1.429 . S
C1304 H1328 0.950 . S
C1305 C1322 1.574 . S
C1305 C1324 1.368 . S
C1305 H1329 0.949 . S
H1306 C1310 0.949 . S
C1307 C1308 1.349 . S
C1307 C1309 1.327 . S
C1307 H1330 0.950 . S
C1308 C1307 1.349 . S
C1308 C1320 1.349 . S
C1309 C1307 1.327 . S
C1309 C1325 1.429 . S
C1309 H1331 0.950 . S
C1310 H1306 0.949 . S
C1310 C1318 1.574 . S
C1310 C1326 1.368 . S
H1311 C1319 0.950 . S
H1312 C1317 0.950 . S
H1313 C1318 0.949 . S
H1314 C1320 0.950 . S
H1315 C1321 0.950 . S
H1316 C1322 0.949 . S
C1317 H1312 0.950 . S
C1317 C1319 1.327 . S
C1317 C1323 1.429 . S
C1318 C1310 1.574 . S
C1318 H1313 0.949 . S
C1318 C1324 1.368 . S
C1319 C1303 1.349 . S
C1319 H1311 0.950 . S
C1319 C1317 1.327 . S
C1320 C1308 1.349 . S
C1320 H1314 0.950 . S
C1320 C1321 1.327 . S
C1321 H1315 0.950 . S
C1321 C1320 1.327 . S
C1321 C1325 1.429 . S
C1322 C1305 1.574 . S
C1322 H1316 0.949 . S
C1322 C1326 1.368 . S
C1323 C1304 1.429 . S
C1323 C1317 1.429 . S
C1323 C1324 1.523 . S
C1324 C1305 1.368 . S
C1324 C1318 1.368 . S
C1324 C1323 1.523 . S
C1325 C1309 1.429 . S
C1325 C1321 1.429 . S
C1325 C1326 1.523 . S
C1326 C1310 1.368 . S
C1326 C1322 1.368 . S
C1326 C1325 1.523 . S
H1327 C1302 0.950 . S
H1328 C1304 0.950 . S
H1329 C1305 0.949 . S
H1330 C1307 0.950 . S
H1331 C1309 0.950 . S
C1332 C1333 1.349 . S
C1332 C1334 1.327 . S
C1332 H1357 0.950 . S
C1333 C1332 1.349 . S
C1333 C1349 1.349 . S
C1334 C1332 1.327 . S
C1334 C1353 1.429 . S
C1334 H1358 0.950 . S
C1335 C1352 1.574 . S
C1335 C1354 1.368 1_455 S
C1335 H1359 0.949 . S
H1336 C1340 0.949 . S
C1337 C1338 1.349 . S
C1337 C1339 1.327 . S
C1337 H1360 0.950 . S
C1338 C1337 1.349 . S
C1338 C1350 1.349 . S
C1339 C1337 1.327 . S
C1339 C1355 1.429 . S
C1339 H1361 0.950 . S
C1340 H1336 0.949 . S
C1340 C1348 1.574 1_455 S
C1340 C1356 1.368 . S
H1341 C1349 0.950 . S
H1342 C1347 0.950 . S
H1343 C1348 0.949 . S
H1344 C1350 0.950 . S
H1345 C1351 0.950 . S
H1346 C1352 0.949 . S
C1347 H1342 0.950 . S
C1347 C1349 1.327 . S
C1347 C1353 1.429 . S
C1348 C1340 1.574 1_655 S
C1348 H1343 0.949 . S
C1348 C1354 1.368 . S
C1349 C1333 1.349 . S
C1349 H1341 0.950 . S
C1349 C1347 1.327 . S
C1350 C1338 1.349 . S
C1350 H1344 0.950 . S
C1350 C1351 1.327 . S
C1351 H1345 0.950 . S
C1351 C1350 1.327 . S
C1351 C1355 1.429 . S
C1352 C1335 1.574 . S
C1352 H1346 0.949 . S
C1352 C1356 1.368 . S
C1353 C1334 1.429 . S
C1353 C1347 1.429 . S
C1353 C1354 1.523 . S
C1354 C1335 1.368 1_655 S
C1354 C1348 1.368 . S
C1354 C1353 1.523 . S
C1355 C1339 1.429 . S
C1355 C1351 1.429 . S
C1355 C1356 1.523 . S
C1356 C1340 1.368 . S
C1356 C1352 1.368 . S
C1356 C1355 1.523 . S
H1357 C1332 0.950 . S
H1358 C1334 0.950 . S
H1359 C1335 0.949 . S
H1360 C1337 0.950 . S
H1361 C1339 0.950 . S
C1362 C1363 1.349 . S
C1362 C1364 1.327 . S
C1362 H1387 0.950 . S
C1363 C1362 1.349 . S
C1363 C1379 1.349 . S
C1364 C1362 1.327 . S
C1364 C1383 1.429 . S
C1364 H1388 0.950 . S
C1365 C1382 1.574 . S
C1365 C1384 1.368 . S
C1365 H1389 0.949 . S
H1366 C1370 0.949 . S
C1367 C1368 1.349 . S
C1367 C1369 1.327 . S
C1367 H1390 0.950 . S
C1368 C1367 1.349 . S
C1368 C1380 1.349 . S
C1369 C1367 1.327 . S
C1369 C1385 1.429 . S
C1369 H1391 0.950 . S
C1370 H1366 0.949 . S
C1370 C1378 1.574 . S
C1370 C1386 1.368 . S
H1371 C1379 0.950 . S
H1372 C1377 0.950 . S
H1373 C1378 0.949 . S
H1374 C1380 0.950 . S
H1375 C1381 0.950 . S
H1376 C1382 0.949 . S
C1377 H1372 0.950 . S
C1377 C1379 1.327 . S
C1377 C1383 1.429 . S
C1378 C1370 1.574 . S
C1378 H1373 0.949 . S
C1378 C1384 1.368 . S
C1379 C1363 1.349 . S
C1379 H1371 0.950 . S
C1379 C1377 1.327 . S
C1380 C1368 1.349 . S
C1380 H1374 0.950 . S
C1380 C1381 1.327 . S
C1381 H1375 0.950 . S
C1381 C1380 1.327 . S
C1381 C1385 1.429 . S
C1382 C1365 1.574 . S
C1382 H1376 0.949 . S
C1382 C1386 1.368 . S
C1383 C1364 1.429 . S
C1383 C1377 1.429 . S
C1383 C1384 1.523 . S
C1384 C1365 1.368 . S
C1384 C1378 1.368 . S
C1384 C1383 1.523 . S
C1385 C1369 1.429 . S
C1385 C1381 1.429 . S
C1385 C1386 1.523 . S
C1386 C1370 1.368 . S
C1386 C1382 1.368 . S
C1386 C1385 1.523 . S
H1387 C1362 0.950 . S
H1388 C1364 0.950 . S
H1389 C1365 0.949 . S
H1390 C1367 0.950 . S
H1391 C1369 0.950 . S
C1392 C1393 1.349 . S
C1392 C1394 1.327 . S
C1392 H1417 0.950 . S
C1393 C1392 1.349 . S
C1393 C1409 1.349 . S
C1394 C1392 1.327 . S
C1394 C1413 1.429 . S
C1394 H1418 0.950 . S
C1395 C1412 1.574 . S
C1395 C1414 1.368 . S
C1395 H1419 0.949 . S
H1396 C1400 0.949 . S
C1397 C1398 1.349 . S
C1397 C1399 1.327 . S
C1397 H1420 0.950 . S
C1398 C1397 1.349 . S
C1398 C1410 1.349 . S
C1399 C1397 1.327 . S
C1399 C1415 1.429 . S
C1399 H1421 0.950 . S
C1400 H1396 0.949 . S
C1400 C1408 1.574 1_565 S
C1400 C1416 1.368 . S
H1401 C1409 0.950 . S
H1402 C1407 0.950 . S
H1403 C1408 0.949 . S
H1404 C1410 0.950 . S
H1405 C1411 0.950 . S
H1406 C1412 0.975 . S
C1407 H1402 0.950 . S
C1407 C1409 1.327 . S
C1407 C1413 1.429 . S
C1408 C1400 1.574 1_545 S
C1408 H1403 0.949 . S
C1408 C1414 1.368 . S
C1409 C1393 1.349 . S
C1409 H1401 0.950 . S
C1409 C1407 1.327 . S
C1410 C1398 1.349 . S
C1410 H1404 0.950 . S
C1410 C1411 1.327 . S
C1411 H1405 0.950 . S
C1411 C1410 1.327 . S
C1411 C1415 1.429 . S
C1412 C1395 1.574 . S
C1412 H1406 0.975 . S
C1412 C1416 1.368 1_545 S
C1413 C1394 1.429 . S
C1413 C1407 1.429 . S
C1413 C1414 1.523 . S
C1414 C1395 1.368 . S
C1414 C1408 1.368 . S
C1414 C1413 1.523 . S
C1415 C1399 1.429 . S
C1415 C1411 1.429 . S
C1415 C1416 1.523 . S
C1416 C1400 1.368 . S
C1416 C1412 1.368 1_565 S
C1416 C1415 1.523 . S
H1417 C1392 0.950 . S
H1418 C1394 0.950 . S
H1419 C1395 0.949 . S
H1420 C1397 0.950 . S
H1421 C1399 0.950 . S
C1422 C1423 1.349 . S
C1422 C1424 1.327 . S
C1422 H1447 0.950 . S
C1423 C1422 1.349 . S
C1423 C1439 1.349 . S
C1424 C1422 1.327 . S
C1424 C1443 1.429 . S
C1424 H1448 0.950 . S
C1425 C1442 1.574 . S
C1425 C1444 1.368 . S
C1425 H1449 0.949 . S
H1426 C1430 0.949 . S
C1427 C1428 1.349 . S
C1427 C1429 1.327 . S
C1427 H1450 0.950 . S
C1428 C1427 1.349 . S
C1428 C1440 1.349 . S
C1429 C1427 1.327 . S
C1429 C1445 1.429 . S
C1429 H1451 0.950 . S
C1430 H1426 0.949 . S
C1430 C1438 1.574 . S
C1430 C1446 1.368 . S
H1431 C1439 0.950 . S
H1432 C1437 0.950 . S
H1433 C1438 0.949 . S
H1434 C1440 0.950 . S
H1435 C1441 0.950 . S
H1436 C1442 0.949 . S
C1437 H1432 0.950 . S
C1437 C1439 1.327 . S
C1437 C1443 1.429 . S
C1438 C1430 1.574 . S
C1438 H1433 0.949 . S
C1438 C1444 1.368 . S
C1439 C1423 1.349 . S
C1439 H1431 0.950 . S
C1439 C1437 1.327 . S
C1440 C1428 1.349 . S
C1440 H1434 0.950 . S
C1440 C1441 1.327 . S
C1441 H1435 0.950 . S
C1441 C1440 1.327 . S
C1441 C1445 1.429 . S
C1442 C1425 1.574 . S
C1442 H1436 0.949 . S
C1442 C1446 1.368 . S
C1443 C1424 1.429 . S
C1443 C1437 1.429 . S
C1443 C1444 1.523 . S
C1444 C1425 1.368 . S
C1444 C1438 1.368 . S
C1444 C1443 1.523 . S
C1445 C1429 1.429 . S
C1445 C1441 1.429 . S
C1445 C1446 1.523 . S
C1446 C1430 1.368 . S
C1446 C1442 1.368 . S
C1446 C1445 1.523 . S
H1447 C1422 0.950 . S
H1448 C1424 0.950 . S
H1449 C1425 0.949 . S
H1450 C1427 0.950 . S
H1451 C1429 0.950 . S
C1452 C1453 1.349 . S
C1452 C1454 1.327 . S
C1452 H1477 0.950 . S
C1453 C1452 1.349 . S
C1453 C1469 1.349 . S
C1454 C1452 1.327 . S
C1454 C1473 1.429 . S
C1454 H1478 0.950 . S
C1455 C1472 1.574 . S
C1455 C1474 1.368 . S
C1455 H1479 0.949 . S
H1456 C1460 0.949 . S
C1457 C1458 1.349 . S
C1457 C1459 1.327 . S
C1457 H1480 0.950 . S
C1458 C1457 1.349 . S
C1458 C1470 1.349 . S
C1459 C1457 1.327 . S
C1459 C1475 1.429 . S
C1459 H1481 0.950 . S
C1460 H1456 0.949 . S
C1460 C1468 1.574 . S
C1460 C1476 1.368 . S
H1461 C1469 0.950 . S
H1462 C1467 0.950 . S
H1463 C1468 0.949 . S
H1464 C1470 0.950 . S
H1465 C1471 0.950 . S
H1466 C1472 0.949 . S
C1467 H1462 0.950 . S
C1467 C1469 1.327 . S
C1467 C1473 1.429 . S
C1468 C1460 1.574 . S
C1468 H1463 0.949 . S
C1468 C1474 1.368 . S
C1469 C1453 1.349 . S
C1469 H1461 0.950 . S
C1469 C1467 1.327 . S
C1470 C1458 1.349 . S
C1470 H1464 0.950 . S
C1470 C1471 1.327 . S
C1471 H1465 0.950 . S
C1471 C1470 1.327 . S
C1471 C1475 1.429 . S
C1472 C1455 1.574 . S
C1472 H1466 0.949 . S
C1472 C1476 1.368 . S
C1473 C1454 1.429 . S
C1473 C1467 1.429 . S
C1473 C1474 1.523 . S
C1474 C1455 1.368 . S
C1474 C1468 1.368 . S
C1474 C1473 1.523 . S
C1475 C1459 1.429 . S
C1475 C1471 1.429 . S
C1475 C1476 1.523 . S
C1476 C1460 1.368 . S
C1476 C1472 1.368 . S
C1476 C1475 1.523 . S
H1477 C1452 0.950 . S
H1478 C1454 0.950 . S
H1479 C1455 0.949 . S
H1480 C1457 0.950 . S
H1481 C1459 0.950 . S
C1482 C1483 1.349 . S
C1482 C1484 1.327 . S
C1482 H1507 0.950 . S
C1483 C1482 1.349 . S
C1483 C1499 1.349 . S
C1484 C1482 1.327 . S
C1484 C1503 1.429 . S
C1484 H1508 0.950 . S
C1485 C1502 1.574 . S
C1485 C1504 1.368 . S
C1485 H1509 0.949 . S
H1486 C1490 0.949 . S
C1487 C1488 1.349 . S
C1487 C1489 1.327 . S
C1487 H1510 0.950 . S
C1488 C1487 1.349 . S
C1488 C1500 1.349 . S
C1489 C1487 1.327 . S
C1489 C1505 1.429 . S
C1489 H1511 0.950 . S
C1490 H1486 0.949 . S
C1490 C1498 1.574 . S
C1490 C1506 1.368 . S
H1491 C1499 0.950 . S
H1492 C1497 0.950 . S
H1493 C1498 0.949 . S
H1494 C1500 0.950 . S
H1495 C1501 0.950 . S
H1496 C1502 0.949 . S
C1497 H1492 0.950 . S
C1497 C1499 1.327 . S
C1497 C1503 1.429 . S
C1498 C1490 1.574 . S
C1498 H1493 0.949 . S
C1498 C1504 1.368 . S
C1499 C1483 1.349 . S
C1499 H1491 0.950 . S
C1499 C1497 1.327 . S
C1500 C1488 1.349 . S
C1500 H1494 0.950 . S
C1500 C1501 1.327 . S
C1501 H1495 0.950 . S
C1501 C1500 1.327 . S
C1501 C1505 1.429 . S
C1502 C1485 1.574 . S
C1502 H1496 0.949 . S
C1502 C1506 1.368 . S
C1503 C1484 1.429 . S
C1503 C1497 1.429 . S
C1503 C1504 1.523 . S
C1504 C1485 1.368 . S
C1504 C1498 1.368 . S
C1504 C1503 1.523 . S
C1505 C1489 1.429 . S
C1505 C1501 1.429 . S
C1505 C1506 1.523 . S
C1506 C1490 1.368 . S
C1506 C1502 1.368 . S
C1506 C1505 1.523 . S
H1507 C1482 0.950 . S
H1508 C1484 0.950 . S
H1509 C1485 0.949 . S
H1510 C1487 0.950 . S
H1511 C1489 0.950 . S
C1512 C1513 1.349 . S
C1512 C1514 1.327 . S
C1512 H1537 0.950 . S
C1513 C1512 1.349 . S
C1513 C1529 1.349 . S
C1514 C1512 1.327 . S
C1514 C1533 1.429 . S
C1514 H1538 0.950 . S
C1515 C1532 1.574 . S
C1515 C1534 1.368 . S
C1515 H1539 0.949 . S
H1516 C1520 0.949 . S
C1517 C1518 1.349 . S
C1517 C1519 1.327 . S
C1517 H1540 0.950 . S
C1518 C1517 1.349 . S
C1518 C1530 1.349 . S
C1519 C1517 1.327 . S
C1519 C1535 1.429 . S
C1519 H1541 0.950 . S
C1520 H1516 0.949 . S
C1520 C1528 1.574 . S
C1520 C1536 1.368 . S
H1521 C1529 0.950 . S
H1522 C1527 0.950 . S
H1523 C1528 0.949 . S
H1524 C1530 0.950 . S
H1525 C1531 0.950 . S
H1526 C1532 0.949 . S
C1527 H1522 0.950 . S
C1527 C1529 1.327 . S
C1527 C1533 1.429 . S
C1528 C1520 1.574 . S
C1528 H1523 0.949 . S
C1528 C1534 1.368 . S
C1529 C1513 1.349 . S
C1529 H1521 0.950 . S
C1529 C1527 1.327 . S
C1530 C1518 1.349 . S
C1530 H1524 0.950 . S
C1530 C1531 1.327 . S
C1531 H1525 0.950 . S
C1531 C1530 1.327 . S
C1531 C1535 1.429 . S
C1532 C1515 1.574 . S
C1532 H1526 0.949 . S
C1532 C1536 1.368 . S
C1533 C1514 1.429 . S
C1533 C1527 1.429 . S
C1533 C1534 1.523 . S
C1534 C1515 1.368 . S
C1534 C1528 1.368 . S
C1534 C1533 1.523 . S
C1535 C1519 1.429 . S
C1535 C1531 1.429 . S
C1535 C1536 1.523 . S
C1536 C1520 1.368 . S
C1536 C1532 1.368 . S
C1536 C1535 1.523 . S
H1537 C1512 0.950 . S
H1538 C1514 0.950 . S
H1539 C1515 0.949 . S
H1540 C1517 0.950 . S
H1541 C1519 0.950 . S
C1542 C1543 1.349 . S
C1542 C1544 1.327 . S
C1542 H1567 0.950 . S
C1543 C1542 1.349 . S
C1543 C1559 1.349 . S
C1544 C1542 1.327 . S
C1544 C1563 1.429 . S
C1544 H1568 0.950 . S
C1545 C1562 1.574 . S
C1545 C1564 1.368 . S
C1545 H1569 0.949 . S
H1546 C1550 0.949 . S
C1547 C1548 1.349 . S
C1547 C1549 1.327 . S
C1547 H1570 0.950 . S
C1548 C1547 1.349 . S
C1548 C1560 1.349 . S
C1549 C1547 1.327 . S
C1549 C1565 1.429 . S
C1549 H1571 0.950 . S
C1550 H1546 0.949 . S
C1550 C1558 1.574 . S
C1550 C1566 1.368 . S
H1551 C1559 0.950 . S
H1552 C1557 0.950 . S
H1553 C1558 0.949 . S
H1554 C1560 0.950 . S
H1555 C1561 0.950 . S
H1556 C1562 0.949 . S
C1557 H1552 0.950 . S
C1557 C1559 1.327 . S
C1557 C1563 1.429 . S
C1558 C1550 1.574 . S
C1558 H1553 0.949 . S
C1558 C1564 1.368 . S
C1559 C1543 1.349 . S
C1559 H1551 0.950 . S
C1559 C1557 1.327 . S
C1560 C1548 1.349 . S
C1560 H1554 0.950 . S
C1560 C1561 1.327 . S
C1561 H1555 0.950 . S
C1561 C1560 1.327 . S
C1561 C1565 1.429 . S
C1562 C1545 1.574 . S
C1562 H1556 0.949 . S
C1562 C1566 1.368 . S
C1563 C1544 1.429 . S
C1563 C1557 1.429 . S
C1563 C1564 1.523 . S
C1564 C1545 1.368 . S
C1564 C1558 1.368 . S
C1564 C1563 1.523 . S
C1565 C1549 1.429 . S
C1565 C1561 1.429 . S
C1565 C1566 1.523 . S
C1566 C1550 1.368 . S
C1566 C1562 1.368 . S
C1566 C1565 1.523 . S
H1567 C1542 0.950 . S
H1568 C1544 0.950 . S
H1569 C1545 0.949 . S
H1570 C1547 0.950 . S
H1571 C1549 0.950 . S
C1572 C1573 1.349 . S
C1572 C1574 1.327 . S
C1572 H1597 0.950 . S
C1573 C1572 1.349 . S
C1573 C1589 1.349 . S
C1574 C1572 1.327 . S
C1574 C1593 1.429 . S
C1574 H1598 0.950 . S
C1575 C1592 1.574 . S
C1575 C1594 1.368 . S
C1575 H1599 0.949 . S
H1576 C1580 0.949 . S
C1577 C1578 1.349 . S
C1577 C1579 1.327 . S
C1577 H1600 0.950 . S
C1578 C1577 1.349 . S
C1578 C1590 1.349 . S
C1579 C1577 1.327 . S
C1579 C1595 1.429 . S
C1579 H1601 0.950 . S
C1580 H1576 0.949 . S
C1580 C1588 1.574 . S
C1580 C1596 1.368 . S
H1581 C1589 0.950 . S
H1582 C1587 0.950 . S
H1583 C1588 0.949 . S
H1584 C1590 0.950 . S
H1585 C1591 0.950 . S
H1586 C1592 0.949 . S
C1587 H1582 0.950 . S
C1587 C1589 1.327 . S
C1587 C1593 1.429 . S
C1588 C1580 1.574 . S
C1588 H1583 0.949 . S
C1588 C1594 1.368 . S
C1589 C1573 1.349 . S
C1589 H1581 0.950 . S
C1589 C1587 1.327 . S
C1590 C1578 1.349 . S
C1590 H1584 0.950 . S
C1590 C1591 1.327 . S
C1591 H1585 0.950 . S
C1591 C1590 1.327 . S
C1591 C1595 1.429 . S
C1592 C1575 1.574 . S
C1592 H1586 0.949 . S
C1592 C1596 1.368 . S
C1593 C1574 1.429 . S
C1593 C1587 1.429 . S
C1593 C1594 1.523 . S
C1594 C1575 1.368 . S
C1594 C1588 1.368 . S
C1594 C1593 1.523 . S
C1595 C1579 1.429 . S
C1595 C1591 1.429 . S
C1595 C1596 1.523 . S
C1596 C1580 1.368 . S
C1596 C1592 1.368 . S
C1596 C1595 1.523 . S
H1597 C1572 0.950 . S
H1598 C1574 0.950 . S
H1599 C1575 0.949 . S
H1600 C1577 0.950 . S
H1601 C1579 0.950 . S
C1602 C1603 1.349 . S
C1602 C1604 1.327 . S
C1602 H1627 0.950 . S
C1603 C1602 1.349 . S
C1603 C1619 1.349 . S
C1604 C1602 1.327 . S
C1604 C1623 1.429 1_545 S
C1604 H1628 0.950 1_545 S
C1605 C1622 1.574 . S
C1605 C1624 1.368 . S
C1605 H1629 0.949 . S
H1606 C1610 0.949 . S
C1607 C1608 1.349 . S
C1607 C1609 1.327 . S
C1607 H1630 0.950 . S
C1608 C1607 1.349 . S
C1608 C1620 1.349 . S
C1609 C1607 1.327 . S
C1609 C1625 1.429 . S
C1609 H1631 0.950 . S
C1610 H1606 0.949 . S
C1610 C1618 1.574 . S
C1610 C1626 1.368 . S
H1611 C1619 0.950 . S
H1612 C1617 0.950 . S
H1613 C1618 0.949 . S
H1614 C1620 0.950 . S
H1615 C1621 0.950 . S
H1616 C1622 0.949 . S
C1617 H1612 0.950 . S
C1617 C1619 1.327 . S
C1617 C1623 1.429 1_545 S
C1618 C1610 1.574 . S
C1618 H1613 0.949 . S
C1618 C1624 1.368 . S
C1619 C1603 1.349 . S
C1619 H1611 0.950 . S
C1619 C1617 1.327 . S
C1620 C1608 1.349 . S
C1620 H1614 0.950 . S
C1620 C1621 1.327 . S
C1621 H1615 0.950 . S
C1621 C1620 1.327 . S
C1621 C1625 1.429 . S
C1622 C1605 1.574 . S
C1622 H1616 0.949 . S
C1622 C1626 1.368 . S
C1623 C1604 1.429 1_565 S
C1623 C1617 1.429 1_565 S
C1623 C1624 1.523 . S
C1624 C1605 1.368 . S
C1624 C1618 1.368 . S
C1624 C1623 1.523 . S
C1625 C1609 1.429 . S
C1625 C1621 1.429 . S
C1625 C1626 1.523 . S
C1626 C1610 1.368 . S
C1626 C1622 1.368 . S
C1626 C1625 1.523 . S
H1627 C1602 0.950 . S
H1628 C1604 0.950 1_565 S
H1629 C1605 0.949 . S
H1630 C1607 0.950 . S
H1631 C1609 0.950 . S
C1632 C1633 1.349 . S
C1632 C1634 1.327 1_655 S
C1632 H1657 0.950 . S
C1633 C1632 1.349 . S
C1633 C1649 1.349 . S
C1634 C1632 1.327 1_455 S
C1634 C1653 1.429 . S
C1634 H1658 0.950 . S
C1635 C1652 1.574 . S
C1635 C1654 1.368 . S
C1635 H1659 0.949 . S
H1636 C1640 0.949 . S
C1637 C1638 1.349 . S
C1637 C1639 1.327 . S
C1637 H1660 0.950 . S
C1638 C1637 1.349 . S
C1638 C1650 1.349 . S
C1639 C1637 1.327 . S
C1639 C1655 1.429 . S
C1639 H1661 0.950 . S
C1640 H1636 0.949 . S
C1640 C1648 1.574 . S
C1640 C1656 1.368 . S
H1641 C1649 0.950 . S
H1642 C1647 0.950 . S
H1643 C1648 0.949 . S
H1644 C1650 0.950 . S
H1645 C1651 0.950 . S
H1646 C1652 0.949 . S
C1647 H1642 0.950 . S
C1647 C1649 1.327 1_455 S
C1647 C1653 1.429 . S
C1648 C1640 1.574 . S
C1648 H1643 0.949 . S
C1648 C1654 1.368 . S
C1649 C1633 1.349 . S
C1649 H1641 0.950 . S
C1649 C1647 1.327 1_655 S
C1650 C1638 1.349 . S
C1650 H1644 0.950 . S
C1650 C1651 1.327 . S
C1651 H1645 0.950 . S
C1651 C1650 1.327 . S
C1651 C1655 1.429 . S
C1652 C1635 1.574 . S
C1652 H1646 0.949 . S
C1652 C1656 1.368 . S
C1653 C1634 1.429 . S
C1653 C1647 1.429 . S
C1653 C1654 1.523 . S
C1654 C1635 1.368 . S
C1654 C1648 1.368 . S
C1654 C1653 1.523 . S
C1655 C1639 1.429 . S
C1655 C1651 1.429 . S
C1655 C1656 1.523 . S
C1656 C1640 1.368 . S
C1656 C1652 1.368 . S
C1656 C1655 1.523 . S
H1657 C1632 0.950 . S
H1658 C1634 0.950 . S
H1659 C1635 0.949 . S
H1660 C1637 0.950 . S
H1661 C1639 0.950 . S
C1662 C1663 1.349 . S
C1662 C1664 1.327 . S
C1662 H1687 0.950 . S
C1663 C1662 1.349 . S
C1663 C1679 1.349 . S
C1664 C1662 1.327 . S
C1664 C1683 1.429 . S
C1664 H1688 0.950 . S
C1665 C1682 1.574 . S
C1665 C1684 1.368 . S
C1665 H1689 0.949 . S
H1666 C1670 0.949 . S
C1667 C1668 1.349 . S
C1667 C1669 1.327 . S
C1667 H1690 0.950 . S
C1668 C1667 1.349 . S
C1668 C1680 1.349 . S
C1669 C1667 1.327 . S
C1669 C1685 1.429 . S
C1669 H1691 0.950 . S
C1670 H1666 0.949 . S
C1670 C1678 1.574 . S
C1670 C1686 1.368 . S
H1671 C1679 0.950 . S
H1672 C1677 0.950 . S
H1673 C1678 0.949 . S
H1674 C1680 0.950 . S
H1675 C1681 0.950 . S
H1676 C1682 0.949 . S
C1677 H1672 0.950 . S
C1677 C1679 1.327 . S
C1677 C1683 1.429 . S
C1678 C1670 1.574 . S
C1678 H1673 0.949 . S
C1678 C1684 1.368 . S
C1679 C1663 1.349 . S
C1679 H1671 0.950 . S
C1679 C1677 1.327 . S
C1680 C1668 1.349 . S
C1680 H1674 0.950 . S
C1680 C1681 1.327 . S
C1681 H1675 0.950 . S
C1681 C1680 1.327 . S
C1681 C1685 1.429 . S
C1682 C1665 1.574 . S
C1682 H1676 0.949 . S
C1682 C1686 1.368 . S
C1683 C1664 1.429 . S
C1683 C1677 1.429 . S
C1683 C1684 1.523 . S
C1684 C1665 1.368 . S
C1684 C1678 1.368 . S
C1684 C1683 1.523 . S
C1685 C1669 1.429 . S
C1685 C1681 1.429 . S
C1685 C1686 1.523 . S
C1686 C1670 1.368 . S
C1686 C1682 1.368 . S
C1686 C1685 1.523 . S
H1687 C1662 0.950 . S
H1688 C1664 0.950 . S
H1689 C1665 0.949 . S
H1690 C1667 0.950 . S
H1691 C1669 0.950 . S
C1692 C1693 1.349 . S
C1692 C1694 1.327 . S
C1692 H1717 0.950 . S
C1693 C1692 1.349 . S
C1693 C1709 1.349 . S
C1694 C1692 1.327 . S
C1694 C1713 1.429 . S
C1694 H1718 0.950 . S
C1695 C1712 1.574 . S
C1695 C1714 1.368 . S
C1695 H1719 0.949 . S
H1696 C1700 0.949 . S
C1697 C1698 1.349 . S
C1697 C1699 1.327 . S
C1697 H1720 0.950 . S
C1698 C1697 1.349 . S
C1698 C1710 1.349 . S
C1699 C1697 1.327 . S
C1699 C1715 1.429 . S
C1699 H1721 0.950 . S
C1700 H1696 0.949 . S
C1700 C1708 1.574 . S
C1700 C1716 1.368 . S
H1701 C1709 0.950 . S
H1702 C1707 0.950 . S
H1703 C1708 0.949 . S
H1704 C1710 0.950 . S
H1705 C1711 0.950 . S
H1706 C1712 0.949 . S
C1707 H1702 0.950 . S
C1707 C1709 1.327 . S
C1707 C1713 1.429 . S
C1708 C1700 1.574 . S
C1708 H1703 0.949 . S
C1708 C1714 1.368 . S
C1709 C1693 1.349 . S
C1709 H1701 0.950 . S
C1709 C1707 1.327 . S
C1710 C1698 1.349 . S
C1710 H1704 0.950 . S
C1710 C1711 1.327 . S
C1711 H1705 0.950 . S
C1711 C1710 1.327 . S
C1711 C1715 1.429 . S
C1712 C1695 1.574 . S
C1712 H1706 0.949 . S
C1712 C1716 1.368 . S
C1713 C1694 1.429 . S
C1713 C1707 1.429 . S
C1713 C1714 1.523 . S
C1714 C1695 1.368 . S
C1714 C1708 1.368 . S
C1714 C1713 1.523 . S
C1715 C1699 1.429 . S
C1715 C1711 1.429 . S
C1715 C1716 1.523 . S
C1716 C1700 1.368 . S
C1716 C1712 1.368 . S
C1716 C1715 1.523 . S
H1717 C1692 0.950 . S
H1718 C1694 0.950 . S
H1719 C1695 0.949 . S
H1720 C1697 0.950 . S
H1721 C1699 0.950 . S
C1722 C1723 1.349 . S
C1722 C1724 1.327 . S
C1722 H1747 0.950 . S
C1723 C1722 1.349 . S
C1723 C1739 1.349 . S
C1724 C1722 1.327 . S
C1724 C1743 1.429 . S
C1724 H1748 0.950 . S
C1725 C1742 1.574 . S
C1725 C1744 1.368 . S
C1725 H1749 0.949 . S
H1726 C1730 0.949 . S
C1727 C1728 1.349 . S
C1727 C1729 1.327 . S
C1727 H1750 0.950 . S
C1728 C1727 1.349 . S
C1728 C1740 1.349 . S
C1729 C1727 1.327 . S
C1729 C1745 1.429 . S
C1729 H1751 0.950 . S
C1730 H1726 0.949 . S
C1730 C1738 1.574 . S
C1730 C1746 1.368 . S
H1731 C1739 0.950 . S
H1732 C1737 0.950 . S
H1733 C1738 0.949 . S
H1734 C1740 0.950 . S
H1735 C1741 0.950 . S
H1736 C1742 0.949 . S
C1737 H1732 0.950 . S
C1737 C1739 1.327 . S
C1737 C1743 1.429 . S
C1738 C1730 1.574 . S
C1738 H1733 0.949 . S
C1738 C1744 1.368 . S
C1739 C1723 1.349 . S
C1739 H1731 0.950 . S
C1739 C1737 1.327 . S
C1740 C1728 1.349 . S
C1740 H1734 0.950 . S
C1740 C1741 1.327 . S
C1741 H1735 0.950 . S
C1741 C1740 1.327 . S
C1741 C1745 1.429 . S
C1742 C1725 1.574 . S
C1742 H1736 0.949 . S
C1742 C1746 1.368 . S
C1743 C1724 1.429 . S
C1743 C1737 1.429 . S
C1743 C1744 1.523 . S
C1744 C1725 1.368 . S
C1744 C1738 1.368 . S
C1744 C1743 1.523 . S
C1745 C1729 1.429 . S
C1745 C1741 1.429 . S
C1745 C1746 1.523 . S
C1746 C1730 1.368 . S
C1746 C1742 1.368 . S
C1746 C1745 1.523 . S
H1747 C1722 0.950 . S
H1748 C1724 0.950 . S
H1749 C1725 0.949 . S
H1750 C1727 0.950 . S
H1751 C1729 0.950 . S
C1752 C1753 1.349 . S
C1752 C1754 1.327 . S
C1752 H1777 0.950 . S
C1753 C1752 1.349 . S
C1753 C1769 1.349 . S
C1754 C1752 1.327 . S
C1754 C1773 1.429 . S
C1754 H1778 0.950 . S
C1755 C1772 1.574 . S
C1755 C1774 1.368 . S
C1755 H1779 0.949 . S
H1756 C1760 0.949 . S
C1757 C1758 1.349 . S
C1757 C1759 1.327 . S
C1757 H1780 0.950 . S
C1758 C1757 1.349 . S
C1758 C1770 1.349 . S
C1759 C1757 1.327 . S
C1759 C1775 1.429 . S
C1759 H1781 0.950 . S
C1760 H1756 0.949 . S
C1760 C1768 1.574 . S
C1760 C1776 1.368 . S
H1761 C1769 0.950 . S
H1762 C1767 0.950 . S
H1763 C1768 0.949 . S
H1764 C1770 0.950 . S
H1765 C1771 0.950 . S
H1766 C1772 0.949 . S
C1767 H1762 0.950 . S
C1767 C1769 1.327 . S
C1767 C1773 1.429 . S
C1768 C1760 1.574 . S
C1768 H1763 0.949 . S
C1768 C1774 1.368 . S
C1769 C1753 1.349 . S
C1769 H1761 0.950 . S
C1769 C1767 1.327 . S
C1770 C1758 1.349 . S
C1770 H1764 0.950 . S
C1770 C1771 1.327 . S
C1771 H1765 0.950 . S
C1771 C1770 1.327 . S
C1771 C1775 1.429 . S
C1772 C1755 1.574 . S
C1772 H1766 0.949 . S
C1772 C1776 1.368 . S
C1773 C1754 1.429 . S
C1773 C1767 1.429 . S
C1773 C1774 1.523 . S
C1774 C1755 1.368 . S
C1774 C1768 1.368 . S
C1774 C1773 1.523 . S
C1775 C1759 1.429 . S
C1775 C1771 1.429 . S
C1775 C1776 1.523 . S
C1776 C1760 1.368 . S
C1776 C1772 1.368 . S
C1776 C1775 1.523 . S
H1777 C1752 0.950 . S
H1778 C1754 0.950 . S
H1779 C1755 0.949 . S
H1780 C1757 0.950 . S
H1781 C1759 0.950 . S
C1782 C1783 1.349 . S
C1782 C1784 1.327 . S
C1782 H1807 0.950 . S
C1783 C1782 1.349 . S
C1783 C1799 1.349 . S
C1784 C1782 1.327 . S
C1784 C1803 1.429 . S
C1784 H1808 0.950 . S
C1785 C1802 1.574 1_565 S
C1785 C1804 1.368 . S
C1785 H1809 0.949 . S
H1786 C1790 0.949 . S
C1787 C1788 1.349 . S
C1787 C1789 1.327 . S
C1787 H1810 0.950 . S
C1788 C1787 1.349 . S
C1788 C1800 1.349 . S
C1789 C1787 1.327 . S
C1789 C1805 1.429 . S
C1789 H1811 0.950 . S
C1790 H1786 0.949 . S
C1790 C1798 1.574 . S
C1790 C1806 1.368 . S
H1791 C1799 0.950 . S
H1792 C1797 0.950 . S
H1793 C1798 0.949 . S
H1794 C1800 0.950 . S
H1795 C1801 0.950 . S
H1796 C1802 0.949 . S
C1797 H1792 0.950 . S
C1797 C1799 1.327 . S
C1797 C1803 1.429 . S
C1798 C1790 1.574 . S
C1798 H1793 0.949 . S
C1798 C1804 1.368 1_545 S
C1799 C1783 1.349 . S
C1799 H1791 0.950 . S
C1799 C1797 1.327 . S
C1800 C1788 1.349 . S
C1800 H1794 0.950 . S
C1800 C1801 1.327 . S
C1801 H1795 0.950 . S
C1801 C1800 1.327 . S
C1801 C1805 1.429 . S
C1802 C1785 1.574 1_545 S
C1802 H1796 0.949 . S
C1802 C1806 1.368 . S
C1803 C1784 1.429 . S
C1803 C1797 1.429 . S
C1803 C1804 1.523 . S
C1804 C1785 1.368 . S
C1804 C1798 1.368 1_565 S
C1804 C1803 1.523 . S
C1805 C1789 1.429 . S
C1805 C1801 1.429 . S
C1805 C1806 1.523 . S
C1806 C1790 1.368 . S
C1806 C1802 1.368 . S
C1806 C1805 1.523 . S
H1807 C1782 0.950 . S
H1808 C1784 0.950 . S
H1809 C1785 0.949 . S
H1810 C1787 0.950 . S
H1811 C1789 0.950 . S
C1812 C1813 1.349 . S
C1812 C1814 1.327 . S
C1812 H1837 0.950 . S
C1813 C1812 1.349 . S
C1813 C1829 1.349 . S
C1814 C1812 1.327 . S
C1814 C1833 1.429 . S
C1814 H1838 0.950 . S
C1815 C1832 1.574 1_455 S
C1815 C1834 1.368 . S
C1815 H1839 0.949 . S
H1816 C1820 0.949 . S
C1817 C1818 1.349 . S
C1817 C1819 1.327 . S
C1817 H1840 0.950 . S
C1818 C1817 1.349 . S
C1818 C1830 1.349 . S
C1819 C1817 1.327 . S
C1819 C1835 1.429 . S
C1819 H1841 0.950 . S
C1820 H1816 0.949 . S
C1820 C1828 1.574 1_655 S
C1820 C1836 1.368 . S
H1821 C1829 0.950 . S
H1822 C1827 0.950 . S
H1823 C1828 0.949 . S
H1824 C1830 0.950 . S
H1825 C1831 0.950 . S
H1826 C1832 0.949 . S
C1827 H1822 0.950 . S
C1827 C1829 1.327 . S
C1827 C1833 1.429 . S
C1828 C1820 1.574 1_455 S
C1828 H1823 0.949 . S
C1828 C1834 1.368 . S
C1829 C1813 1.349 . S
C1829 H1821 0.950 . S
C1829 C1827 1.327 . S
C1830 C1818 1.349 . S
C1830 H1824 0.950 . S
C1830 C1831 1.327 . S
C1831 H1825 0.950 . S
C1831 C1830 1.327 . S
C1831 C1835 1.429 . S
C1832 C1815 1.574 1_655 S
C1832 H1826 0.949 . S
C1832 C1836 1.368 . S
C1833 C1814 1.429 . S
C1833 C1827 1.429 . S
C1833 C1834 1.523 . S
C1834 C1815 1.368 . S
C1834 C1828 1.368 . S
C1834 C1833 1.523 . S
C1835 C1819 1.429 . S
C1835 C1831 1.429 . S
C1835 C1836 1.523 . S
C1836 C1820 1.368 . S
C1836 C1832 1.368 . S
C1836 C1835 1.523 . S
H1837 C1812 0.950 . S
H1838 C1814 0.950 . S
H1839 C1815 0.949 . S
H1840 C1817 0.950 . S
H1841 C1819 0.950 . S
C1842 C1843 1.349 . S
C1842 C1844 1.327 . S
C1842 H1867 0.950 . S
C1843 C1842 1.349 . S
C1843 C1859 1.349 . S
C1844 C1842 1.327 . S
C1844 C1863 1.429 . S
C1844 H1868 0.950 . S
C1845 C1862 1.574 . S
C1845 C1864 1.368 . S
C1845 H1869 0.949 . S
H1846 C1850 0.949 . S
C1847 C1848 1.349 . S
C1847 C1849 1.327 . S
C1847 H1870 0.950 . S
C1848 C1847 1.349 . S
C1848 C1860 1.349 . S
C1849 C1847 1.327 . S
C1849 C1865 1.429 . S
C1849 H1871 0.950 . S
C1850 H1846 0.949 . S
C1850 C1858 1.574 . S
C1850 C1866 1.368 . S
H1851 C1859 0.950 . S
H1852 C1857 0.950 . S
H1853 C1858 0.949 . S
H1854 C1860 0.950 . S
H1855 C1861 0.950 . S
H1856 C1862 0.949 . S
C1857 H1852 0.950 . S
C1857 C1859 1.327 . S
C1857 C1863 1.429 . S
C1858 C1850 1.574 . S
C1858 H1853 0.949 . S
C1858 C1864 1.368 . S
C1859 C1843 1.349 . S
C1859 H1851 0.950 . S
C1859 C1857 1.327 . S
C1860 C1848 1.349 . S
C1860 H1854 0.950 . S
C1860 C1861 1.327 . S
C1861 H1855 0.950 . S
C1861 C1860 1.327 . S
C1861 C1865 1.429 . S
C1862 C1845 1.574 . S
C1862 H1856 0.949 . S
C1862 C1866 1.368 . S
C1863 C1844 1.429 . S
C1863 C1857 1.429 . S
C1863 C1864 1.523 . S
C1864 C1845 1.368 . S
C1864 C1858 1.368 . S
C1864 C1863 1.523 . S
C1865 C1849 1.429 . S
C1865 C1861 1.429 . S
C1865 C1866 1.523 . S
C1866 C1850 1.368 . S
C1866 C1862 1.368 . S
C1866 C1865 1.523 . S
H1867 C1842 0.950 . S
H1868 C1844 0.950 . S
H1869 C1845 0.949 . S
H1870 C1847 0.950 . S
H1871 C1849 0.950 . S
C1872 C1873 1.349 . S
C1872 C1874 1.327 . S
C1872 H1897 0.950 . S
C1873 C1872 1.349 . S
C1873 C1889 1.349 . S
C1874 C1872 1.327 . S
C1874 C1893 1.429 1_455 S
C1874 H1898 0.950 1_455 S
C1875 C1892 1.574 . S
C1875 C1894 1.368 . S
C1875 H1899 0.949 . S
H1876 C1880 0.949 . S
C1877 C1878 1.349 . S
C1877 C1879 1.327 . S
C1877 H1900 0.950 . S
C1878 C1877 1.349 . S
C1878 C1890 1.349 . S
C1879 C1877 1.327 . S
C1879 C1895 1.429 . S
C1879 H1901 0.950 . S
C1880 H1876 0.949 . S
C1880 C1888 1.574 . S
C1880 C1896 1.368 . S
H1881 C1889 0.950 . S
H1882 C1887 0.950 1_655 S
H1883 C1888 0.949 . S
H1884 C1890 0.950 . S
H1885 C1891 0.950 . S
H1886 C1892 0.949 . S
C1887 H1882 0.950 1_455 S
C1887 C1889 1.327 . S
C1887 C1893 1.429 1_455 S
C1888 C1880 1.574 . S
C1888 H1883 0.949 . S
C1888 C1894 1.368 . S
C1889 C1873 1.349 . S
C1889 H1881 0.950 . S
C1889 C1887 1.327 . S
C1890 C1878 1.349 . S
C1890 H1884 0.950 . S
C1890 C1891 1.327 . S
C1891 H1885 0.950 . S
C1891 C1890 1.327 . S
C1891 C1895 1.429 . S
C1892 C1875 1.574 . S
C1892 H1886 0.949 . S
C1892 C1896 1.368 . S
C1893 C1874 1.429 1_655 S
C1893 C1887 1.429 1_655 S
C1893 C1894 1.523 . S
C1894 C1875 1.368 . S
C1894 C1888 1.368 . S
C1894 C1893 1.523 . S
C1895 C1879 1.429 . S
C1895 C1891 1.429 . S
C1895 C1896 1.523 . S
C1896 C1880 1.368 . S
C1896 C1892 1.368 . S
C1896 C1895 1.523 . S
H1897 C1872 0.950 . S
H1898 C1874 0.950 1_655 S
H1899 C1875 0.949 . S
H1900 C1877 0.950 . S
H1901 C1879 0.950 . S
C1902 C1903 1.349 . S
C1902 C1904 1.327 . S
C1902 H1927 0.950 . S
C1903 C1902 1.349 . S
C1903 C1919 1.349 . S
C1904 C1902 1.327 . S
C1904 C1923 1.429 . S
C1904 H1928 0.950 . S
C1905 C1922 1.574 . S
C1905 C1924 1.368 . S
C1905 H1929 0.949 . S
H1906 C1910 0.949 . S
C1907 C1908 1.349 . S
C1907 C1909 1.327 . S
C1907 H1930 0.950 . S
C1908 C1907 1.349 . S
C1908 C1920 1.349 . S
C1909 C1907 1.327 . S
C1909 C1925 1.429 . S
C1909 H1931 0.950 . S
C1910 H1906 0.949 . S
C1910 C1918 1.574 . S
C1910 C1926 1.368 . S
H1911 C1919 0.950 . S
H1912 C1917 0.950 . S
H1913 C1918 0.949 . S
H1914 C1920 0.950 . S
H1915 C1921 0.950 . S
H1916 C1922 0.949 . S
C1917 H1912 0.950 . S
C1917 C1919 1.327 . S
C1917 C1923 1.429 . S
C1918 C1910 1.574 . S
C1918 H1913 0.949 . S
C1918 C1924 1.368 . S
C1919 C1903 1.349 . S
C1919 H1911 0.950 . S
C1919 C1917 1.327 . S
C1920 C1908 1.349 . S
C1920 H1914 0.950 . S
C1920 C1921 1.327 . S
C1921 H1915 0.950 . S
C1921 C1920 1.327 . S
C1921 C1925 1.429 . S
C1922 C1905 1.574 . S
C1922 H1916 0.949 . S
C1922 C1926 1.368 . S
C1923 C1904 1.429 . S
C1923 C1917 1.429 . S
C1923 C1924 1.523 . S
C1924 C1905 1.368 . S
C1924 C1918 1.368 . S
C1924 C1923 1.523 . S
C1925 C1909 1.429 . S
C1925 C1921 1.429 . S
C1925 C1926 1.523 . S
C1926 C1910 1.368 . S
C1926 C1922 1.368 . S
C1926 C1925 1.523 . S
H1927 C1902 0.950 . S
H1928 C1904 0.950 . S
H1929 C1905 0.949 . S
H1930 C1907 0.950 . S
H1931 C1909 0.950 . S
C1932 C1933 1.349 . S
C1932 C1934 1.279 1_565 S
C1932 H1957 0.950 . S
C1933 C1932 1.349 . S
C1933 C1949 1.349 . S
C1934 C1932 1.279 1_545 S
C1934 C1953 1.472 . S
C1934 H1958 0.957 . S
C1935 C1952 1.574 . S
C1935 C1954 1.368 . S
C1935 H1959 0.949 . S
H1936 C1940 0.949 . S
C1937 C1938 1.349 . S
C1937 C1939 1.327 . S
C1937 H1960 0.950 . S
C1938 C1937 1.349 . S
C1938 C1950 1.349 . S
C1939 C1937 1.327 . S
C1939 C1955 1.429 . S
C1939 H1961 0.950 . S
C1940 H1936 0.949 . S
C1940 C1948 1.574 . S
C1940 C1956 1.368 . S
H1941 C1949 0.950 . S
H1942 C1947 0.970 . S
H1943 C1948 0.949 . S
H1944 C1950 0.950 . S
H1945 C1951 0.950 . S
H1946 C1952 0.949 . S
C1947 H1942 0.970 . S
C1947 C1949 1.302 1_545 S
C1947 C1953 1.434 . S
C1948 C1940 1.574 . S
C1948 H1943 0.949 . S
C1948 C1954 1.368 . S
C1949 C1933 1.349 . S
C1949 H1941 0.950 . S
C1949 C1947 1.302 1_565 S
C1950 C1938 1.349 . S
C1950 H1944 0.950 . S
C1950 C1951 1.327 . S
C1951 H1945 0.950 . S
C1951 C1950 1.327 . S
C1951 C1955 1.429 . S
C1952 C1935 1.574 . S
C1952 H1946 0.949 . S
C1952 C1956 1.368 . S
C1953 C1934 1.472 . S
C1953 C1947 1.434 . S
C1953 C1954 1.523 . S
C1954 C1935 1.368 . S
C1954 C1948 1.368 . S
C1954 C1953 1.523 . S
C1955 C1939 1.429 . S
C1955 C1951 1.429 . S
C1955 C1956 1.523 . S
C1956 C1940 1.368 . S
C1956 C1952 1.368 . S
C1956 C1955 1.523 . S
H1957 C1932 0.950 . S
H1958 C1934 0.957 . S
H1959 C1935 0.949 . S
H1960 C1937 0.950 . S
H1961 C1939 0.950 . S
C1962 C1963 1.349 . S
C1962 C1964 1.327 . S
C1962 H1987 0.950 . S
C1963 C1962 1.349 . S
C1963 C1979 1.349 . S
C1964 C1962 1.327 . S
C1964 C1983 1.429 . S
C1964 H1988 0.950 . S
C1965 C1982 1.574 . S
C1965 C1984 1.368 . S
C1965 H1989 0.949 . S
H1966 C1970 0.949 . S
C1967 C1968 1.349 . S
C1967 C1969 1.327 . S
C1967 H1990 0.950 . S
C1968 C1967 1.349 . S
C1968 C1980 1.349 . S
C1969 C1967 1.327 . S
C1969 C1985 1.429 . S
C1969 H1991 0.950 . S
C1970 H1966 0.949 . S
C1970 C1978 1.574 . S
C1970 C1986 1.368 . S
H1971 C1979 0.950 . S
H1972 C1977 0.950 . S
H1973 C1978 0.949 . S
H1974 C1980 0.950 . S
H1975 C1981 0.950 . S
H1976 C1982 0.949 . S
C1977 H1972 0.950 . S
C1977 C1979 1.327 . S
C1977 C1983 1.429 . S
C1978 C1970 1.574 . S
C1978 H1973 0.949 . S
C1978 C1984 1.368 . S
C1979 C1963 1.349 . S
C1979 H1971 0.950 . S
C1979 C1977 1.327 . S
C1980 C1968 1.349 . S
C1980 H1974 0.950 . S
C1980 C1981 1.327 . S
C1981 H1975 0.950 . S
C1981 C1980 1.327 . S
C1981 C1985 1.429 . S
C1982 C1965 1.574 . S
C1982 H1976 0.949 . S
C1982 C1986 1.368 . S
C1983 C1964 1.429 . S
C1983 C1977 1.429 . S
C1983 C1984 1.523 . S
C1984 C1965 1.368 . S
C1984 C1978 1.368 . S
C1984 C1983 1.523 . S
C1985 C1969 1.429 . S
C1985 C1981 1.429 . S
C1985 C1986 1.523 . S
C1986 C1970 1.368 . S
C1986 C1982 1.368 . S
C1986 C1985 1.523 . S
H1987 C1962 0.950 . S
H1988 C1964 0.950 . S
H1989 C1965 0.949 . S
H1990 C1967 0.950 . S
H1991 C1969 0.950 . S
C1992 C1993 1.349 . S
C1992 C1994 1.327 . S
C1992 H2017 0.950 . S
C1993 C1992 1.349 . S
C1993 C2009 1.349 . S
C1994 C1992 1.327 . S
C1994 C2013 1.429 . S
C1994 H2018 0.950 . S
C1995 C2012 1.574 . S
C1995 C2014 1.368 . S
C1995 H2019 0.949 . S
H1996 C2000 0.949 . S
C1997 C1998 1.349 . S
C1997 C1999 1.327 . S
C1997 H2020 0.950 . S
C1998 C1997 1.349 . S
C1998 C2010 1.349 . S
C1999 C1997 1.327 . S
C1999 C2015 1.429 . S
C1999 H2021 0.950 . S
C2000 H1996 0.949 . S
C2000 C2008 1.574 . S
C2000 C2016 1.368 . S
H2001 C2009 0.950 . S
H2002 C2007 0.950 . S
H2003 C2008 0.949 . S
H2004 C2010 0.950 . S
H2005 C2011 0.950 . S
H2006 C2012 0.949 . S
C2007 H2002 0.950 . S
C2007 C2009 1.327 . S
C2007 C2013 1.429 . S
C2008 C2000 1.574 . S
C2008 H2003 0.949 . S
C2008 C2014 1.368 . S
C2009 C1993 1.349 . S
C2009 H2001 0.950 . S
C2009 C2007 1.327 . S
C2010 C1998 1.349 . S
C2010 H2004 0.950 . S
C2010 C2011 1.327 . S
C2011 H2005 0.950 . S
C2011 C2010 1.327 . S
C2011 C2015 1.429 . S
C2012 C1995 1.574 . S
C2012 H2006 0.949 . S
C2012 C2016 1.368 . S
C2013 C1994 1.429 . S
C2013 C2007 1.429 . S
C2013 C2014 1.523 . S
C2014 C1995 1.368 . S
C2014 C2008 1.368 . S
C2014 C2013 1.523 . S
C2015 C1999 1.429 . S
C2015 C2011 1.429 . S
C2015 C2016 1.523 . S
C2016 C2000 1.368 . S
C2016 C2012 1.368 . S
C2016 C2015 1.523 . S
H2017 C1992 0.950 . S
H2018 C1994 0.950 . S
H2019 C1995 0.949 . S
H2020 C1997 0.950 . S
H2021 C1999 0.950 . S
C2022 C2023 1.349 . S
C2022 C2024 1.327 . S
C2022 H2047 0.950 . S
C2023 C2022 1.349 . S
C2023 C2039 1.349 . S
C2024 C2022 1.327 . S
C2024 C2043 1.429 . S
C2024 H2048 0.950 . S
C2025 C2042 1.574 . S
C2025 C2044 1.368 . S
C2025 H2049 0.949 . S
H2026 C2030 0.949 . S
C2027 C2028 1.349 . S
C2027 C2029 1.327 . S
C2027 H2050 0.950 . S
C2028 C2027 1.349 . S
C2028 C2040 1.349 . S
C2029 C2027 1.327 . S
C2029 C2045 1.429 . S
C2029 H2051 0.950 . S
C2030 H2026 0.949 . S
C2030 C2038 1.574 . S
C2030 C2046 1.368 . S
H2031 C2039 0.950 . S
H2032 C2037 0.950 . S
H2033 C2038 0.949 . S
H2034 C2040 0.950 . S
H2035 C2041 0.950 . S
H2036 C2042 0.949 . S
C2037 H2032 0.950 . S
C2037 C2039 1.327 . S
C2037 C2043 1.429 . S
C2038 C2030 1.574 . S
C2038 H2033 0.949 . S
C2038 C2044 1.368 . S
C2039 C2023 1.349 . S
C2039 H2031 0.950 . S
C2039 C2037 1.327 . S
C2040 C2028 1.349 . S
C2040 H2034 0.950 . S
C2040 C2041 1.327 . S
C2041 H2035 0.950 . S
C2041 C2040 1.327 . S
C2041 C2045 1.429 . S
C2042 C2025 1.574 . S
C2042 H2036 0.949 . S
C2042 C2046 1.368 . S
C2043 C2024 1.429 . S
C2043 C2037 1.429 . S
C2043 C2044 1.523 . S
C2044 C2025 1.368 . S
C2044 C2038 1.368 . S
C2044 C2043 1.523 . S
C2045 C2029 1.429 . S
C2045 C2041 1.429 . S
C2045 C2046 1.523 . S
C2046 C2030 1.368 . S
C2046 C2042 1.368 . S
C2046 C2045 1.523 . S
H2047 C2022 0.950 . S
H2048 C2024 0.950 . S
H2049 C2025 0.949 . S
H2050 C2027 0.950 . S
H2051 C2029 0.950 . S
C2052 C2053 1.349 . S
C2052 C2054 1.327 . S
C2052 H2077 0.950 . S
C2053 C2052 1.349 . S
C2053 C2069 1.349 . S
C2054 C2052 1.327 . S
C2054 C2073 1.429 . S
C2054 H2078 0.950 . S
C2055 C2072 1.574 . S
C2055 C2074 1.368 . S
C2055 H2079 0.949 . S
H2056 C2060 0.949 . S
C2057 C2058 1.349 . S
C2057 C2059 1.327 . S
C2057 H2080 0.950 . S
C2058 C2057 1.349 . S
C2058 C2070 1.349 . S
C2059 C2057 1.327 . S
C2059 C2075 1.429 . S
C2059 H2081 0.950 . S
C2060 H2056 0.949 . S
C2060 C2068 1.574 . S
C2060 C2076 1.368 . S
H2061 C2069 0.950 . S
H2062 C2067 0.950 . S
H2063 C2068 0.949 . S
H2064 C2070 0.950 . S
H2065 C2071 0.950 . S
H2066 C2072 0.949 . S
C2067 H2062 0.950 . S
C2067 C2069 1.327 . S
C2067 C2073 1.429 . S
C2068 C2060 1.574 . S
C2068 H2063 0.949 . S
C2068 C2074 1.368 . S
C2069 C2053 1.349 . S
C2069 H2061 0.950 . S
C2069 C2067 1.327 . S
C2070 C2058 1.349 . S
C2070 H2064 0.950 . S
C2070 C2071 1.327 . S
C2071 H2065 0.950 . S
C2071 C2070 1.327 . S
C2071 C2075 1.429 . S
C2072 C2055 1.574 . S
C2072 H2066 0.949 . S
C2072 C2076 1.368 . S
C2073 C2054 1.429 . S
C2073 C2067 1.429 . S
C2073 C2074 1.523 . S
C2074 C2055 1.368 . S
C2074 C2068 1.368 . S
C2074 C2073 1.523 . S
C2075 C2059 1.429 . S
C2075 C2071 1.429 . S
C2075 C2076 1.523 . S
C2076 C2060 1.368 . S
C2076 C2072 1.368 . S
C2076 C2075 1.523 . S
H2077 C2052 0.950 . S
H2078 C2054 0.950 . S
H2079 C2055 0.949 . S
H2080 C2057 0.950 . S
H2081 C2059 0.950 . S
C2082 C2083 1.349 . S
C2082 C2084 1.327 . S
C2082 H2107 0.950 . S
C2083 C2082 1.349 . S
C2083 C2099 1.349 . S
C2084 C2082 1.327 . S
C2084 C2103 1.429 . S
C2084 H2108 0.950 . S
C2085 C2102 1.574 . S
C2085 C2104 1.368 . S
C2085 H2109 0.949 . S
H2086 C2090 0.949 . S
C2087 C2088 1.349 . S
C2087 C2089 1.327 . S
C2087 H2110 0.950 . S
C2088 C2087 1.349 . S
C2088 C2100 1.349 . S
C2089 C2087 1.327 . S
C2089 C2105 1.429 . S
C2089 H2111 0.950 . S
C2090 H2086 0.949 . S
C2090 C2098 1.574 . S
C2090 C2106 1.368 . S
H2091 C2099 0.950 . S
H2092 C2097 0.950 . S
H2093 C2098 0.949 . S
H2094 C2100 0.950 . S
H2095 C2101 0.950 . S
H2096 C2102 0.949 . S
C2097 H2092 0.950 . S
C2097 C2099 1.327 . S
C2097 C2103 1.429 . S
C2098 C2090 1.574 . S
C2098 H2093 0.949 . S
C2098 C2104 1.368 . S
C2099 C2083 1.349 . S
C2099 H2091 0.950 . S
C2099 C2097 1.327 . S
C2100 C2088 1.349 . S
C2100 H2094 0.950 . S
C2100 C2101 1.327 . S
C2101 H2095 0.950 . S
C2101 C2100 1.327 . S
C2101 C2105 1.429 . S
C2102 C2085 1.574 . S
C2102 H2096 0.949 . S
C2102 C2106 1.368 . S
C2103 C2084 1.429 . S
C2103 C2097 1.429 . S
C2103 C2104 1.523 . S
C2104 C2085 1.368 . S
C2104 C2098 1.368 . S
C2104 C2103 1.523 . S
C2105 C2089 1.429 . S
C2105 C2101 1.429 . S
C2105 C2106 1.523 . S
C2106 C2090 1.368 . S
C2106 C2102 1.368 . S
C2106 C2105 1.523 . S
H2107 C2082 0.950 . S
H2108 C2084 0.950 . S
H2109 C2085 0.949 . S
H2110 C2087 0.950 . S
H2111 C2089 0.950 . S
C2112 C2113 1.349 . S
C2112 C2114 1.327 . S
C2112 H2137 0.950 . S
C2113 C2112 1.349 . S
C2113 C2129 1.349 . S
C2114 C2112 1.327 . S
C2114 C2133 1.429 . S
C2114 H2138 0.950 . S
C2115 C2132 1.574 . S
C2115 C2134 1.368 . S
C2115 H2139 0.949 . S
H2116 C2120 0.949 . S
C2117 C2118 1.349 . S
C2117 C2119 1.327 . S
C2117 H2140 0.950 . S
C2118 C2117 1.349 . S
C2118 C2130 1.349 . S
C2119 C2117 1.327 . S
C2119 C2135 1.429 . S
C2119 H2141 0.950 . S
C2120 H2116 0.949 . S
C2120 C2128 1.574 . S
C2120 C2136 1.368 . S
H2121 C2129 0.950 . S
H2122 C2127 0.950 . S
H2123 C2128 0.949 . S
H2124 C2130 0.950 . S
H2125 C2131 0.950 . S
H2126 C2132 0.949 . S
C2127 H2122 0.950 . S
C2127 C2129 1.327 . S
C2127 C2133 1.429 . S
C2128 C2120 1.574 . S
C2128 H2123 0.949 . S
C2128 C2134 1.368 . S
C2129 C2113 1.349 . S
C2129 H2121 0.950 . S
C2129 C2127 1.327 . S
C2130 C2118 1.349 . S
C2130 H2124 0.950 . S
C2130 C2131 1.327 . S
C2131 H2125 0.950 . S
C2131 C2130 1.327 . S
C2131 C2135 1.429 . S
C2132 C2115 1.574 . S
C2132 H2126 0.949 . S
C2132 C2136 1.368 . S
C2133 C2114 1.429 . S
C2133 C2127 1.429 . S
C2133 C2134 1.523 . S
C2134 C2115 1.368 . S
C2134 C2128 1.368 . S
C2134 C2133 1.523 . S
C2135 C2119 1.429 . S
C2135 C2131 1.429 . S
C2135 C2136 1.523 . S
C2136 C2120 1.368 . S
C2136 C2132 1.368 . S
C2136 C2135 1.523 . S
H2137 C2112 0.950 . S
H2138 C2114 0.950 . S
H2139 C2115 0.949 . S
H2140 C2117 0.950 . S
H2141 C2119 0.950 . S
C2142 C2143 1.349 . S
C2142 C2144 1.327 . S
C2142 H2167 0.950 . S
C2143 C2142 1.349 . S
C2143 C2159 1.349 . S
C2144 C2142 1.327 . S
C2144 C2163 1.429 . S
C2144 H2168 0.950 . S
C2145 C2162 1.574 . S
C2145 C2164 1.368 . S
C2145 H2169 0.949 . S
H2146 C2150 0.949 . S
C2147 C2148 1.349 . S
C2147 C2149 1.327 . S
C2147 H2170 0.950 . S
C2148 C2147 1.349 . S
C2148 C2160 1.349 . S
C2149 C2147 1.327 . S
C2149 C2165 1.429 . S
C2149 H2171 0.950 . S
C2150 H2146 0.949 . S
C2150 C2158 1.574 . S
C2150 C2166 1.368 . S
H2151 C2159 0.950 . S
H2152 C2157 0.950 . S
H2153 C2158 0.949 . S
H2154 C2160 0.950 . S
H2155 C2161 0.950 . S
H2156 C2162 0.949 . S
C2157 H2152 0.950 . S
C2157 C2159 1.327 . S
C2157 C2163 1.429 . S
C2158 C2150 1.574 . S
C2158 H2153 0.949 . S
C2158 C2164 1.368 . S
C2159 C2143 1.349 . S
C2159 H2151 0.950 . S
C2159 C2157 1.327 . S
C2160 C2148 1.349 . S
C2160 H2154 0.950 . S
C2160 C2161 1.327 . S
C2161 H2155 0.950 . S
C2161 C2160 1.327 . S
C2161 C2165 1.429 . S
C2162 C2145 1.574 . S
C2162 H2156 0.949 . S
C2162 C2166 1.368 . S
C2163 C2144 1.429 . S
C2163 C2157 1.429 . S
C2163 C2164 1.523 . S
C2164 C2145 1.368 . S
C2164 C2158 1.368 . S
C2164 C2163 1.523 . S
C2165 C2149 1.429 . S
C2165 C2161 1.429 . S
C2165 C2166 1.523 . S
C2166 C2150 1.368 . S
C2166 C2162 1.368 . S
C2166 C2165 1.523 . S
H2167 C2142 0.950 . S
H2168 C2144 0.950 . S
H2169 C2145 0.949 . S
H2170 C2147 0.950 . S
H2171 C2149 0.950 . S
C2172 C2173 1.349 . S
C2172 C2174 1.327 . S
C2172 H2197 0.950 . S
C2173 C2172 1.349 . S
C2173 C2189 1.349 . S
C2174 C2172 1.327 . S
C2174 C2193 1.429 . S
C2174 H2198 0.950 . S
C2175 C2192 1.574 . S
C2175 C2194 1.368 . S
C2175 H2199 0.949 . S
H2176 C2180 0.949 . S
C2177 C2178 1.349 . S
C2177 C2179 1.327 . S
C2177 H2200 0.950 . S
C2178 C2177 1.349 . S
C2178 C2190 1.349 . S
C2179 C2177 1.327 . S
C2179 C2195 1.429 . S
C2179 H2201 0.950 . S
C2180 H2176 0.949 . S
C2180 C2188 1.574 . S
C2180 C2196 1.368 . S
H2181 C2189 0.950 . S
H2182 C2187 0.950 . S
H2183 C2188 0.949 . S
H2184 C2190 0.950 . S
H2185 C2191 0.950 . S
H2186 C2192 0.949 . S
C2187 H2182 0.950 . S
C2187 C2189 1.327 . S
C2187 C2193 1.429 . S
C2188 C2180 1.574 . S
C2188 H2183 0.949 . S
C2188 C2194 1.368 . S
C2189 C2173 1.349 . S
C2189 H2181 0.950 . S
C2189 C2187 1.327 . S
C2190 C2178 1.349 . S
C2190 H2184 0.950 . S
C2190 C2191 1.327 . S
C2191 H2185 0.950 . S
C2191 C2190 1.327 . S
C2191 C2195 1.429 . S
C2192 C2175 1.574 . S
C2192 H2186 0.949 . S
C2192 C2196 1.368 . S
C2193 C2174 1.429 . S
C2193 C2187 1.429 . S
C2193 C2194 1.523 . S
C2194 C2175 1.368 . S
C2194 C2188 1.368 . S
C2194 C2193 1.523 . S
C2195 C2179 1.429 . S
C2195 C2191 1.429 . S
C2195 C2196 1.523 . S
C2196 C2180 1.368 . S
C2196 C2192 1.368 . S
C2196 C2195 1.523 . S
H2197 C2172 0.950 . S
H2198 C2174 0.950 . S
H2199 C2175 0.949 . S
H2200 C2177 0.950 . S
H2201 C2179 0.950 . S
C2202 C2203 1.349 . S
C2202 C2204 1.327 . S
C2202 H2227 0.950 . S
C2203 C2202 1.349 . S
C2203 C2219 1.349 . S
C2204 C2202 1.327 . S
C2204 C2223 1.429 . S
C2204 H2228 0.950 . S
C2205 C2222 1.574 . S
C2205 C2224 1.368 . S
C2205 H2229 0.949 . S
H2206 C2210 0.949 . S
C2207 C2208 1.349 . S
C2207 C2209 1.327 . S
C2207 H2230 0.950 . S
C2208 C2207 1.349 . S
C2208 C2220 1.349 . S
C2209 C2207 1.327 . S
C2209 C2225 1.429 . S
C2209 H2231 0.950 . S
C2210 H2206 0.949 . S
C2210 C2218 1.574 . S
C2210 C2226 1.368 . S
H2211 C2219 0.950 . S
H2212 C2217 0.950 . S
H2213 C2218 0.949 . S
H2214 C2220 0.950 . S
H2215 C2221 0.950 . S
H2216 C2222 0.949 . S
C2217 H2212 0.950 . S
C2217 C2219 1.327 . S
C2217 C2223 1.429 . S
C2218 C2210 1.574 . S
C2218 H2213 0.949 . S
C2218 C2224 1.368 . S
C2219 C2203 1.349 . S
C2219 H2211 0.950 . S
C2219 C2217 1.327 . S
C2220 C2208 1.349 . S
C2220 H2214 0.950 . S
C2220 C2221 1.327 . S
C2221 H2215 0.950 . S
C2221 C2220 1.327 . S
C2221 C2225 1.429 . S
C2222 C2205 1.574 . S
C2222 H2216 0.949 . S
C2222 C2226 1.368 . S
C2223 C2204 1.429 . S
C2223 C2217 1.429 . S
C2223 C2224 1.523 . S
C2224 C2205 1.368 . S
C2224 C2218 1.368 . S
C2224 C2223 1.523 . S
C2225 C2209 1.429 . S
C2225 C2221 1.429 . S
C2225 C2226 1.523 . S
C2226 C2210 1.368 . S
C2226 C2222 1.368 . S
C2226 C2225 1.523 . S
H2227 C2202 0.950 . S
H2228 C2204 0.950 . S
H2229 C2205 0.949 . S
H2230 C2207 0.950 . S
H2231 C2209 0.950 . S
C2232 C2233 1.349 . S
C2232 C2234 1.327 . S
C2232 H2257 0.950 . S
C2233 C2232 1.349 . S
C2233 C2249 1.349 . S
C2234 C2232 1.327 . S
C2234 C2253 1.429 . S
C2234 H2258 0.950 . S
C2235 C2252 1.574 . S
C2235 C2254 1.368 . S
C2235 H2259 0.949 . S
H2236 C2240 0.949 . S
C2237 C2238 1.349 . S
C2237 C2239 1.327 . S
C2237 H2260 0.950 . S
C2238 C2237 1.349 . S
C2238 C2250 1.349 . S
C2239 C2237 1.327 . S
C2239 C2255 1.429 . S
C2239 H2261 0.950 . S
C2240 H2236 0.949 . S
C2240 C2248 1.574 . S
C2240 C2256 1.368 . S
H2241 C2249 0.950 . S
H2242 C2247 0.950 . S
H2243 C2248 0.949 . S
H2244 C2250 0.950 . S
H2245 C2251 0.950 . S
H2246 C2252 0.949 . S
C2247 H2242 0.950 . S
C2247 C2249 1.327 . S
C2247 C2253 1.429 . S
C2248 C2240 1.574 . S
C2248 H2243 0.949 . S
C2248 C2254 1.368 . S
C2249 C2233 1.349 . S
C2249 H2241 0.950 . S
C2249 C2247 1.327 . S
C2250 C2238 1.349 . S
C2250 H2244 0.950 . S
C2250 C2251 1.327 . S
C2251 H2245 0.950 . S
C2251 C2250 1.327 . S
C2251 C2255 1.429 . S
C2252 C2235 1.574 . S
C2252 H2246 0.949 . S
C2252 C2256 1.368 . S
C2253 C2234 1.429 . S
C2253 C2247 1.429 . S
C2253 C2254 1.523 . S
C2254 C2235 1.368 . S
C2254 C2248 1.368 . S
C2254 C2253 1.523 . S
C2255 C2239 1.429 . S
C2255 C2251 1.429 . S
C2255 C2256 1.523 . S
C2256 C2240 1.368 . S
C2256 C2252 1.368 . S
C2256 C2255 1.523 . S
H2257 C2232 0.950 . S
H2258 C2234 0.950 . S
H2259 C2235 0.949 . S
H2260 C2237 0.950 . S
H2261 C2239 0.950 . S
C2262 C2263 1.349 . S
C2262 C2264 1.327 . S
C2262 H2287 0.950 . S
C2263 C2262 1.349 . S
C2263 C2279 1.349 . S
C2264 C2262 1.327 . S
C2264 C2283 1.429 . S
C2264 H2288 0.950 . S
C2265 C2282 1.574 . S
C2265 C2284 1.368 . S
C2265 H2289 0.949 . S
H2266 C2270 0.949 . S
C2267 C2268 1.349 . S
C2267 C2269 1.327 . S
C2267 H2290 0.950 . S
C2268 C2267 1.349 . S
C2268 C2280 1.349 . S
C2269 C2267 1.327 . S
C2269 C2285 1.429 . S
C2269 H2291 0.950 . S
C2270 H2266 0.949 . S
C2270 C2278 1.574 . S
C2270 C2286 1.368 . S
H2271 C2279 0.950 . S
H2272 C2277 0.950 . S
H2273 C2278 0.949 . S
H2274 C2280 0.950 . S
H2275 C2281 0.950 . S
H2276 C2282 0.949 . S
C2277 H2272 0.950 . S
C2277 C2279 1.327 . S
C2277 C2283 1.429 . S
C2278 C2270 1.574 . S
C2278 H2273 0.949 . S
C2278 C2284 1.368 . S
C2279 C2263 1.349 . S
C2279 H2271 0.950 . S
C2279 C2277 1.327 . S
C2280 C2268 1.349 . S
C2280 H2274 0.950 . S
C2280 C2281 1.327 . S
C2281 H2275 0.950 . S
C2281 C2280 1.327 . S
C2281 C2285 1.429 . S
C2282 C2265 1.574 . S
C2282 H2276 0.949 . S
C2282 C2286 1.368 . S
C2283 C2264 1.429 . S
C2283 C2277 1.429 . S
C2283 C2284 1.523 . S
C2284 C2265 1.368 . S
C2284 C2278 1.368 . S
C2284 C2283 1.523 . S
C2285 C2269 1.429 . S
C2285 C2281 1.429 . S
C2285 C2286 1.523 . S
C2286 C2270 1.368 . S
C2286 C2282 1.368 . S
C2286 C2285 1.523 . S
H2287 C2262 0.950 . S
H2288 C2264 0.950 . S
H2289 C2265 0.949 . S
H2290 C2267 0.950 . S
H2291 C2269 0.950 . S
C2292 C2293 1.349 . S
C2292 C2294 1.327 . S
C2292 H2317 0.950 . S
C2293 C2292 1.349 . S
C2293 C2309 1.349 . S
C2294 C2292 1.327 . S
C2294 C2313 1.429 . S
C2294 H2318 0.950 . S
C2295 C2312 1.574 . S
C2295 C2314 1.368 . S
C2295 H2319 0.949 . S
H2296 C2300 0.949 . S
C2297 C2298 1.349 . S
C2297 C2299 1.327 . S
C2297 H2320 0.950 . S
C2298 C2297 1.349 . S
C2298 C2310 1.349 . S
C2299 C2297 1.327 . S
C2299 C2315 1.429 . S
C2299 H2321 0.950 . S
C2300 H2296 0.949 . S
C2300 C2308 1.574 . S
C2300 C2316 1.368 . S
H2301 C2309 0.950 . S
H2302 C2307 0.950 . S
H2303 C2308 0.949 . S
H2304 C2310 0.950 . S
H2305 C2311 0.950 . S
H2306 C2312 0.949 . S
C2307 H2302 0.950 . S
C2307 C2309 1.327 . S
C2307 C2313 1.429 . S
C2308 C2300 1.574 . S
C2308 H2303 0.949 . S
C2308 C2314 1.368 . S
C2309 C2293 1.349 . S
C2309 H2301 0.950 . S
C2309 C2307 1.327 . S
C2310 C2298 1.349 . S
C2310 H2304 0.950 . S
C2310 C2311 1.327 . S
C2311 H2305 0.950 . S
C2311 C2310 1.327 . S
C2311 C2315 1.429 . S
C2312 C2295 1.574 . S
C2312 H2306 0.949 . S
C2312 C2316 1.368 . S
C2313 C2294 1.429 . S
C2313 C2307 1.429 . S
C2313 C2314 1.523 . S
C2314 C2295 1.368 . S
C2314 C2308 1.368 . S
C2314 C2313 1.523 . S
C2315 C2299 1.429 . S
C2315 C2311 1.429 . S
C2315 C2316 1.523 . S
C2316 C2300 1.368 . S
C2316 C2312 1.368 . S
C2316 C2315 1.523 . S
H2317 C2292 0.950 . S
H2318 C2294 0.950 . S
H2319 C2295 0.949 . S
H2320 C2297 0.950 . S
H2321 C2299 0.950 . S
C2322 C2323 1.349 . S
C2322 C2324 1.327 . S
C2322 H2347 0.950 . S
C2323 C2322 1.349 . S
C2323 C2339 1.349 . S
C2324 C2322 1.327 . S
C2324 C2343 1.429 . S
C2324 H2348 0.950 . S
C2325 C2342 1.574 . S
C2325 C2344 1.368 . S
C2325 H2349 0.949 . S
H2326 C2330 0.949 . S
C2327 C2328 1.349 . S
C2327 C2329 1.327 . S
C2327 H2350 0.950 . S
C2328 C2327 1.349 . S
C2328 C2340 1.349 . S
C2329 C2327 1.327 . S
C2329 C2345 1.429 . S
C2329 H2351 0.950 . S
C2330 H2326 0.949 . S
C2330 C2338 1.574 . S
C2330 C2346 1.368 . S
H2331 C2339 0.950 . S
H2332 C2337 0.950 . S
H2333 C2338 0.949 . S
H2334 C2340 0.950 . S
H2335 C2341 0.950 . S
H2336 C2342 0.949 . S
C2337 H2332 0.950 . S
C2337 C2339 1.327 . S
C2337 C2343 1.429 . S
C2338 C2330 1.574 . S
C2338 H2333 0.949 . S
C2338 C2344 1.368 . S
C2339 C2323 1.349 . S
C2339 H2331 0.950 . S
C2339 C2337 1.327 . S
C2340 C2328 1.349 . S
C2340 H2334 0.950 . S
C2340 C2341 1.327 . S
C2341 H2335 0.950 . S
C2341 C2340 1.327 . S
C2341 C2345 1.429 . S
C2342 C2325 1.574 . S
C2342 H2336 0.949 . S
C2342 C2346 1.368 . S
C2343 C2324 1.429 . S
C2343 C2337 1.429 . S
C2343 C2344 1.523 . S
C2344 C2325 1.368 . S
C2344 C2338 1.368 . S
C2344 C2343 1.523 . S
C2345 C2329 1.429 . S
C2345 C2341 1.429 . S
C2345 C2346 1.523 . S
C2346 C2330 1.368 . S
C2346 C2342 1.368 . S
C2346 C2345 1.523 . S
H2347 C2322 0.950 . S
H2348 C2324 0.950 . S
H2349 C2325 0.949 . S
H2350 C2327 0.950 . S
H2351 C2329 0.950 . S
C2352 C2353 1.349 . S
C2352 C2354 1.327 . S
C2352 H2377 0.950 . S
C2353 C2352 1.349 . S
C2353 C2369 1.349 . S
C2354 C2352 1.327 . S
C2354 C2373 1.429 . S
C2354 H2378 0.950 . S
C2355 C2372 1.574 . S
C2355 C2374 1.368 . S
C2355 H2379 0.949 . S
H2356 C2360 0.949 . S
C2357 C2358 1.349 . S
C2357 C2359 1.327 . S
C2357 H2380 0.950 . S
C2358 C2357 1.349 . S
C2358 C2370 1.349 . S
C2359 C2357 1.327 . S
C2359 C2375 1.429 . S
C2359 H2381 0.950 . S
C2360 H2356 0.949 . S
C2360 C2368 1.574 . S
C2360 C2376 1.368 . S
H2361 C2369 0.950 . S
H2362 C2367 0.950 . S
H2363 C2368 0.949 . S
H2364 C2370 0.950 . S
H2365 C2371 0.950 . S
H2366 C2372 0.949 . S
C2367 H2362 0.950 . S
C2367 C2369 1.327 . S
C2367 C2373 1.429 . S
C2368 C2360 1.574 . S
C2368 H2363 0.949 . S
C2368 C2374 1.368 . S
C2369 C2353 1.349 . S
C2369 H2361 0.950 . S
C2369 C2367 1.327 . S
C2370 C2358 1.349 . S
C2370 H2364 0.950 . S
C2370 C2371 1.327 . S
C2371 H2365 0.950 . S
C2371 C2370 1.327 . S
C2371 C2375 1.429 . S
C2372 C2355 1.574 . S
C2372 H2366 0.949 . S
C2372 C2376 1.368 . S
C2373 C2354 1.429 . S
C2373 C2367 1.429 . S
C2373 C2374 1.523 . S
C2374 C2355 1.368 . S
C2374 C2368 1.368 . S
C2374 C2373 1.523 . S
C2375 C2359 1.429 . S
C2375 C2371 1.429 . S
C2375 C2376 1.523 . S
C2376 C2360 1.368 . S
C2376 C2372 1.368 . S
C2376 C2375 1.523 . S
H2377 C2352 0.950 . S
H2378 C2354 0.950 . S
H2379 C2355 0.949 . S
H2380 C2357 0.950 . S
H2381 C2359 0.950 . S
C2382 C2383 1.349 . S
C2382 C2384 1.327 . S
C2382 H2407 0.950 . S
C2383 C2382 1.349 . S
C2383 C2399 1.349 . S
C2384 C2382 1.327 . S
C2384 C2403 1.429 . S
C2384 H2408 0.950 . S
C2385 C2402 1.574 . S
C2385 C2404 1.368 . S
C2385 H2409 0.949 . S
H2386 C2390 0.949 . S
C2387 C2388 1.349 . S
C2387 C2389 1.327 . S
C2387 H2410 0.950 . S
C2388 C2387 1.349 . S
C2388 C2400 1.349 . S
C2389 C2387 1.327 . S
C2389 C2405 1.429 . S
C2389 H2411 0.950 . S
C2390 H2386 0.949 . S
C2390 C2398 1.574 . S
C2390 C2406 1.368 . S
H2391 C2399 0.950 . S
H2392 C2397 0.950 . S
H2393 C2398 0.949 . S
H2394 C2400 0.950 . S
H2395 C2401 0.950 . S
H2396 C2402 0.949 . S
C2397 H2392 0.950 . S
C2397 C2399 1.327 . S
C2397 C2403 1.429 . S
C2398 C2390 1.574 . S
C2398 H2393 0.949 . S
C2398 C2404 1.368 . S
C2399 C2383 1.349 . S
C2399 H2391 0.950 . S
C2399 C2397 1.327 . S
C2400 C2388 1.349 . S
C2400 H2394 0.950 . S
C2400 C2401 1.327 . S
C2401 H2395 0.950 . S
C2401 C2400 1.327 . S
C2401 C2405 1.429 . S
C2402 C2385 1.574 . S
C2402 H2396 0.949 . S
C2402 C2406 1.368 . S
C2403 C2384 1.429 . S
C2403 C2397 1.429 . S
C2403 C2404 1.523 . S
C2404 C2385 1.368 . S
C2404 C2398 1.368 . S
C2404 C2403 1.523 . S
C2405 C2389 1.429 . S
C2405 C2401 1.429 . S
C2405 C2406 1.523 . S
C2406 C2390 1.368 . S
C2406 C2402 1.368 . S
C2406 C2405 1.523 . S
H2407 C2382 0.950 . S
H2408 C2384 0.950 . S
H2409 C2385 0.949 . S
H2410 C2387 0.950 . S
H2411 C2389 0.950 . S
C2412 C2413 1.349 . S
C2412 C2414 1.327 . S
C2412 H2437 0.950 . S
C2413 C2412 1.349 . S
C2413 C2429 1.349 . S
C2414 C2412 1.327 . S
C2414 C2433 1.429 . S
C2414 H2438 0.950 . S
C2415 C2432 1.574 . S
C2415 C2434 1.368 . S
C2415 H2439 0.949 . S
H2416 C2420 0.949 . S
C2417 C2418 1.349 . S
C2417 C2419 1.327 . S
C2417 H2440 0.950 . S
C2418 C2417 1.349 . S
C2418 C2430 1.349 . S
C2419 C2417 1.327 . S
C2419 C2435 1.429 . S
C2419 H2441 0.950 . S
C2420 H2416 0.949 . S
C2420 C2428 1.574 . S
C2420 C2436 1.368 . S
H2421 C2429 0.950 . S
H2422 C2427 0.950 . S
H2423 C2428 0.949 . S
H2424 C2430 0.950 . S
H2425 C2431 0.950 . S
H2426 C2432 0.949 . S
C2427 H2422 0.950 . S
C2427 C2429 1.327 . S
C2427 C2433 1.429 . S
C2428 C2420 1.574 . S
C2428 H2423 0.949 . S
C2428 C2434 1.368 . S
C2429 C2413 1.349 . S
C2429 H2421 0.950 . S
C2429 C2427 1.327 . S
C2430 C2418 1.349 . S
C2430 H2424 0.950 . S
C2430 C2431 1.327 . S
C2431 H2425 0.950 . S
C2431 C2430 1.327 . S
C2431 C2435 1.429 . S
C2432 C2415 1.574 . S
C2432 H2426 0.949 . S
C2432 C2436 1.368 . S
C2433 C2414 1.429 . S
C2433 C2427 1.429 . S
C2433 C2434 1.523 . S
C2434 C2415 1.368 . S
C2434 C2428 1.368 . S
C2434 C2433 1.523 . S
C2435 C2419 1.429 . S
C2435 C2431 1.429 . S
C2435 C2436 1.523 . S
C2436 C2420 1.368 . S
C2436 C2432 1.368 . S
C2436 C2435 1.523 . S
H2437 C2412 0.950 . S
H2438 C2414 0.950 . S
H2439 C2415 0.949 . S
H2440 C2417 0.950 . S
H2441 C2419 0.950 . S
C2442 C2443 1.349 . S
C2442 C2444 1.327 . S
C2442 H2467 0.950 . S
C2443 C2442 1.349 . S
C2443 C2459 1.349 . S
C2444 C2442 1.327 . S
C2444 C2463 1.429 . S
C2444 H2468 0.950 . S
C2445 C2462 1.574 . S
C2445 C2464 1.368 . S
C2445 H2469 0.949 . S
H2446 C2450 0.949 . S
C2447 C2448 1.349 . S
C2447 C2449 1.327 . S
C2447 H2470 0.950 . S
C2448 C2447 1.349 . S
C2448 C2460 1.349 . S
C2449 C2447 1.327 . S
C2449 C2465 1.429 . S
C2449 H2471 0.950 . S
C2450 H2446 0.949 . S
C2450 C2458 1.574 . S
C2450 C2466 1.368 . S
H2451 C2459 0.950 . S
H2452 C2457 0.950 . S
H2453 C2458 0.949 . S
H2454 C2460 0.950 . S
H2455 C2461 0.950 . S
H2456 C2462 0.949 . S
C2457 H2452 0.950 . S
C2457 C2459 1.327 . S
C2457 C2463 1.429 . S
C2458 C2450 1.574 . S
C2458 H2453 0.949 . S
C2458 C2464 1.368 . S
C2459 C2443 1.349 . S
C2459 H2451 0.950 . S
C2459 C2457 1.327 . S
C2460 C2448 1.349 . S
C2460 H2454 0.950 . S
C2460 C2461 1.327 . S
C2461 H2455 0.950 . S
C2461 C2460 1.327 . S
C2461 C2465 1.429 . S
C2462 C2445 1.574 . S
C2462 H2456 0.949 . S
C2462 C2466 1.368 . S
C2463 C2444 1.429 . S
C2463 C2457 1.429 . S
C2463 C2464 1.523 . S
C2464 C2445 1.368 . S
C2464 C2458 1.368 . S
C2464 C2463 1.523 . S
C2465 C2449 1.429 . S
C2465 C2461 1.429 . S
C2465 C2466 1.523 . S
C2466 C2450 1.368 . S
C2466 C2462 1.368 . S
C2466 C2465 1.523 . S
H2467 C2442 0.950 . S
H2468 C2444 0.950 . S
H2469 C2445 0.949 . S
H2470 C2447 0.950 . S
H2471 C2449 0.950 . S
C2472 C2473 1.349 . S
C2472 C2474 1.327 . S
C2472 H2497 0.950 . S
C2473 C2472 1.349 . S
C2473 C2489 1.349 . S
C2474 C2472 1.327 . S
C2474 C2493 1.429 . S
C2474 H2498 0.950 . S
C2475 C2492 1.574 . S
C2475 C2494 1.368 . S
C2475 H2499 0.949 . S
H2476 C2480 0.949 . S
C2477 C2478 1.349 . S
C2477 C2479 1.327 . S
C2477 H2500 0.950 . S
C2478 C2477 1.349 . S
C2478 C2490 1.349 . S
C2479 C2477 1.327 . S
C2479 C2495 1.429 . S
C2479 H2501 0.950 . S
C2480 H2476 0.949 . S
C2480 C2488 1.574 . S
C2480 C2496 1.368 . S
H2481 C2489 0.950 . S
H2482 C2487 0.950 . S
H2483 C2488 0.949 . S
H2484 C2490 0.950 . S
H2485 C2491 0.950 . S
H2486 C2492 0.949 . S
C2487 H2482 0.950 . S
C2487 C2489 1.327 . S
C2487 C2493 1.429 . S
C2488 C2480 1.574 . S
C2488 H2483 0.949 . S
C2488 C2494 1.368 . S
C2489 C2473 1.349 . S
C2489 H2481 0.950 . S
C2489 C2487 1.327 . S
C2490 C2478 1.349 . S
C2490 H2484 0.950 . S
C2490 C2491 1.327 . S
C2491 H2485 0.950 . S
C2491 C2490 1.327 . S
C2491 C2495 1.429 . S
C2492 C2475 1.574 . S
C2492 H2486 0.949 . S
C2492 C2496 1.368 . S
C2493 C2474 1.429 . S
C2493 C2487 1.429 . S
C2493 C2494 1.523 . S
C2494 C2475 1.368 . S
C2494 C2488 1.368 . S
C2494 C2493 1.523 . S
C2495 C2479 1.429 . S
C2495 C2491 1.429 . S
C2495 C2496 1.523 . S
C2496 C2480 1.368 . S
C2496 C2492 1.368 . S
C2496 C2495 1.523 . S
H2497 C2472 0.950 . S
H2498 C2474 0.950 . S
H2499 C2475 0.949 . S
H2500 C2477 0.950 . S
H2501 C2479 0.950 . S
C2502 C2503 1.349 . S
C2502 C2504 1.327 . S
C2502 H2527 0.950 . S
C2503 C2502 1.349 . S
C2503 C2519 1.349 . S
C2504 C2502 1.327 . S
C2504 C2523 1.429 . S
C2504 H2528 0.950 . S
C2505 C2522 1.574 . S
C2505 C2524 1.368 . S
C2505 H2529 0.949 . S
H2506 C2510 0.949 . S
C2507 C2508 1.349 . S
C2507 C2509 1.327 . S
C2507 H2530 0.950 . S
C2508 C2507 1.349 . S
C2508 C2520 1.349 . S
C2509 C2507 1.327 . S
C2509 C2525 1.429 . S
C2509 H2531 0.950 . S
C2510 H2506 0.949 . S
C2510 C2518 1.574 . S
C2510 C2526 1.368 . S
H2511 C2519 0.950 . S
H2512 C2517 0.950 . S
H2513 C2518 0.949 . S
H2514 C2520 0.950 . S
H2515 C2521 0.950 . S
H2516 C2522 0.949 . S
C2517 H2512 0.950 . S
C2517 C2519 1.327 . S
C2517 C2523 1.429 . S
C2518 C2510 1.574 . S
C2518 H2513 0.949 . S
C2518 C2524 1.368 . S
C2519 C2503 1.349 . S
C2519 H2511 0.950 . S
C2519 C2517 1.327 . S
C2520 C2508 1.349 . S
C2520 H2514 0.950 . S
C2520 C2521 1.327 . S
C2521 H2515 0.950 . S
C2521 C2520 1.327 . S
C2521 C2525 1.429 . S
C2522 C2505 1.574 . S
C2522 H2516 0.949 . S
C2522 C2526 1.368 . S
C2523 C2504 1.429 . S
C2523 C2517 1.429 . S
C2523 C2524 1.523 . S
C2524 C2505 1.368 . S
C2524 C2518 1.368 . S
C2524 C2523 1.523 . S
C2525 C2509 1.429 . S
C2525 C2521 1.429 . S
C2525 C2526 1.523 . S
C2526 C2510 1.368 . S
C2526 C2522 1.368 . S
C2526 C2525 1.523 . S
H2527 C2502 0.950 . S
H2528 C2504 0.950 . S
H2529 C2505 0.949 . S
H2530 C2507 0.950 . S
H2531 C2509 0.950 . S
C2532 C2533 1.349 . S
C2532 C2534 1.327 . S
C2532 H2557 0.950 . S
C2533 C2532 1.349 . S
C2533 C2549 1.349 . S
C2534 C2532 1.327 . S
C2534 C2553 1.429 . S
C2534 H2558 0.950 . S
C2535 C2552 1.574 . S
C2535 C2554 1.368 . S
C2535 H2559 0.949 . S
H2536 C2540 0.949 . S
C2537 C2538 1.349 . S
C2537 C2539 1.327 . S
C2537 H2560 0.950 . S
C2538 C2537 1.349 . S
C2538 C2550 1.349 . S
C2539 C2537 1.327 . S
C2539 C2555 1.429 . S
C2539 H2561 0.950 . S
C2540 H2536 0.949 . S
C2540 C2548 1.574 . S
C2540 C2556 1.368 . S
H2541 C2549 0.950 . S
H2542 C2547 0.950 . S
H2543 C2548 0.949 . S
H2544 C2550 0.950 . S
H2545 C2551 0.950 . S
H2546 C2552 0.949 . S
C2547 H2542 0.950 . S
C2547 C2549 1.327 . S
C2547 C2553 1.429 . S
C2548 C2540 1.574 . S
C2548 H2543 0.949 . S
C2548 C2554 1.368 . S
C2549 C2533 1.349 . S
C2549 H2541 0.950 . S
C2549 C2547 1.327 . S
C2550 C2538 1.349 . S
C2550 H2544 0.950 . S
C2550 C2551 1.327 . S
C2551 H2545 0.950 . S
C2551 C2550 1.327 . S
C2551 C2555 1.429 . S
C2552 C2535 1.574 . S
C2552 H2546 0.949 . S
C2552 C2556 1.368 . S
C2553 C2534 1.429 . S
C2553 C2547 1.429 . S
C2553 C2554 1.523 . S
C2554 C2535 1.368 . S
C2554 C2548 1.368 . S
C2554 C2553 1.523 . S
C2555 C2539 1.429 . S
C2555 C2551 1.429 . S
C2555 C2556 1.523 . S
C2556 C2540 1.368 . S
C2556 C2552 1.368 . S
C2556 C2555 1.523 . S
H2557 C2532 0.950 . S
H2558 C2534 0.950 . S
H2559 C2535 0.949 . S
H2560 C2537 0.950 . S
H2561 C2539 0.950 . S
C2562 C2563 1.349 . S
C2562 C2564 1.327 . S
C2562 H2587 0.950 . S
C2563 C2562 1.349 . S
C2563 C2579 1.349 . S
C2564 C2562 1.327 . S
C2564 C2583 1.429 . S
C2564 H2588 0.950 . S
C2565 C2582 1.574 . S
C2565 C2584 1.368 . S
C2565 H2589 0.949 . S
H2566 C2570 0.949 . S
C2567 C2568 1.349 . S
C2567 C2569 1.327 . S
C2567 H2590 0.950 . S
C2568 C2567 1.349 . S
C2568 C2580 1.349 . S
C2569 C2567 1.327 . S
C2569 C2585 1.429 . S
C2569 H2591 0.950 . S
C2570 H2566 0.949 . S
C2570 C2578 1.574 . S
C2570 C2586 1.368 . S
H2571 C2579 0.950 . S
H2572 C2577 0.950 . S
H2573 C2578 0.949 . S
H2574 C2580 0.950 . S
H2575 C2581 0.950 . S
H2576 C2582 0.949 . S
C2577 H2572 0.950 . S
C2577 C2579 1.327 . S
C2577 C2583 1.429 . S
C2578 C2570 1.574 . S
C2578 H2573 0.949 . S
C2578 C2584 1.368 . S
C2579 C2563 1.349 . S
C2579 H2571 0.950 . S
C2579 C2577 1.327 . S
C2580 C2568 1.349 . S
C2580 H2574 0.950 . S
C2580 C2581 1.327 . S
C2581 H2575 0.950 . S
C2581 C2580 1.327 . S
C2581 C2585 1.429 . S
C2582 C2565 1.574 . S
C2582 H2576 0.949 . S
C2582 C2586 1.368 . S
C2583 C2564 1.429 . S
C2583 C2577 1.429 . S
C2583 C2584 1.523 . S
C2584 C2565 1.368 . S
C2584 C2578 1.368 . S
C2584 C2583 1.523 . S
C2585 C2569 1.429 . S
C2585 C2581 1.429 . S
C2585 C2586 1.523 . S
C2586 C2570 1.368 . S
C2586 C2582 1.368 . S
C2586 C2585 1.523 . S
H2587 C2562 0.950 . S
H2588 C2564 0.950 . S
H2589 C2565 0.949 . S
H2590 C2567 0.950 . S
H2591 C2569 0.950 . S
C973 C162 1.430 . S
C978 C272 1.372 . S
C1003 C174 1.457 . S
C1008 C356 1.402 . S
C1033 C150 1.425 . S
C1038 C450 1.417 . S
C1063 C138 1.402 . S
C1068 C366 1.396 1_556 S
C1098 C440 1.351 . S
C1093 C114 1.409 . S
C1123 C126 1.377 . S
C1128 C282 1.363 1_556 S
C1158 C283 1.431 . S
C1153 C136 1.486 . S
C1188 C367 1.458 . S
C1183 C112 1.511 . S
C1213 C124 1.503 . S
C1218 C459 1.477 . S
C1243 C160 1.472 . S
C1248 C375 1.445 . S
C1273 C172 1.456 . S
C1278 C451 1.400 . S
C1308 C291 1.422 . S
C1303 C148 1.448 . S
C1338 C524 1.372 . S
C1333 C18 1.430 . S
C1363 C30 1.457 . S
C1368 C608 1.402 . S
C1393 C6 1.425 . S
C1398 C702 1.417 . S
C1423 C210 1.402 . S
C1428 C618 1.396 . S
C1453 C186 1.409 . S
C1458 C692 1.351 . S
C1483 C198 1.378 . S
C1488 C534 1.370 . S
C1513 C208 1.486 . S
C1518 C535 1.431 . S
C1543 C184 1.511 . S
C1548 C619 1.458 . S
C1578 C711 1.477 . S
C1573 C196 1.503 . S
C1603 C16 1.472 . S
C1608 C627 1.445 . S
C1638 C703 1.400 . S
C1633 C28 1.456 . S
C1663 C4 1.448 . S
C1668 C543 1.421 . S
C1698 C776 1.372 . S
C1693 C90 1.430 . S
C1723 C102 1.457 . S
C1728 C860 1.403 . S
C1758 C954 1.417 . S
C1753 C78 1.425 . S
C1788 C870 1.396 . S
C1783 C66 1.402 . S
C1818 C944 1.351 . S
C1813 C42 1.409 . S
C1843 C54 1.378 . S
C1848 C786 1.369 . S
C1873 C64 1.486 . S
C1878 C787 1.430 . S
C1903 C40 1.511 . S
C1908 C871 1.458 . S
C1938 C963 1.477 . S
C1933 C52 1.503 . S
C1963 C88 1.472 . S
C1968 C879 1.445 . S
C1993 C100 1.457 . S
C1998 C955 1.400 . S
C2023 C76 1.448 . S
C2028 C795 1.421 . S
C2053 C189 1.559 . S
C2058 C279 1.434 . S
C2088 C363 1.486 . S
C2083 C201 1.633 . S
C2113 C213 1.574 . S
C2118 C456 1.393 . S
C2143 C81 1.604 . S
C2148 C372 1.413 . S
C2173 C93 1.588 . S
C2178 C447 1.450 . S
C2208 C288 1.363 . S
C2203 C105 1.530 . S
C2233 C45 1.559 . S
C2238 C531 1.434 . S
C2263 C57 1.633 . S
C2268 C615 1.486 . S
C2293 C69 1.573 . S
C2298 C708 1.393 . S
C2323 C153 1.604 . S
C2328 C624 1.413 . S
C2358 C699 1.449 . S
C2353 C165 1.588 . S
C2383 C177 1.530 . S
C2388 C540 1.364 . S
C2413 C117 1.559 . S
C2418 C783 1.434 . S
C2443 C129 1.633 . S
C2448 C867 1.486 . S
C2478 C960 1.393 . S
C2473 C141 1.573 . S
C2503 C9 1.604 . S
C2508 C876 1.413 . S
C2533 C21 1.588 . S
C2538 C951 1.450 . S
C2563 C33 1.530 . S
C2568 C792 1.364 . S
