# Generated by pormake.
# Topology zzz, (3,6)-cn, num edge types: 1
# Building blocks:
#     Node 0, Type 0, BuildingBlock: KAKCAD_clean_linker_0, # of connection points: 3
#     Node 1, Type 0, BuildingBlock: KAKCAD_clean_linker_0, # of connection points: 3
#     Node 2, Type 0, BuildingBlock: KAKCAD_clean_linker_0, # of connection points: 3
#     Node 3, Type 0, BuildingBlock: KAKCAD_clean_linker_0, # of connection points: 3
#     Node 4, Type 0, BuildingBlock: KAKCAD_clean_linker_0, # of connection points: 3
#     Node 5, Type 0, BuildingBlock: KAKCAD_clean_linker_0, # of connection points: 3
#     Node 6, Type 0, BuildingBlock: KAKCAD_clean_linker_0, # of connection points: 3
#     Node 7, Type 0, BuildingBlock: KAKCAD_clean_linker_0, # of connection points: 3
#     Node 8, Type 1, BuildingBlock: BETDAH_clean_sbu_0, # of connection points: 6
#     Node 9, Type 1, BuildingBlock: BETDAH_clean_sbu_0, # of connection points: 6
#     Node 10, Type 1, BuildingBlock: BETDAH_clean_sbu_0, # of connection points: 6
#     Node 11, Type 1, BuildingBlock: BETDAH_clean_sbu_0, # of connection points: 6
#     Edge 12, Type (0, 1), BuildingBlock: TEMPAE_clean_linker_10, # of connection points: 2
#     Edge 13, Type (0, 1), BuildingBlock: TEMPAE_clean_linker_10, # of connection points: 2
#     Edge 14, Type (0, 1), BuildingBlock: TEMPAE_clean_linker_10, # of connection points: 2
#     Edge 15, Type (0, 1), BuildingBlock: TEMPAE_clean_linker_10, # of connection points: 2
#     Edge 16, Type (0, 1), BuildingBlock: TEMPAE_clean_linker_10, # of connection points: 2
#     Edge 17, Type (0, 1), BuildingBlock: TEMPAE_clean_linker_10, # of connection points: 2
#     Edge 18, Type (0, 1), BuildingBlock: TEMPAE_clean_linker_10, # of connection points: 2
#     Edge 19, Type (0, 1), BuildingBlock: TEMPAE_clean_linker_10, # of connection points: 2
#     Edge 20, Type (0, 1), BuildingBlock: TEMPAE_clean_linker_10, # of connection points: 2
#     Edge 21, Type (0, 1), BuildingBlock: TEMPAE_clean_linker_10, # of connection points: 2
#     Edge 22, Type (0, 1), BuildingBlock: TEMPAE_clean_linker_10, # of connection points: 2
#     Edge 23, Type (0, 1), BuildingBlock: TEMPAE_clean_linker_10, # of connection points: 2
#     Edge 24, Type (0, 1), BuildingBlock: TEMPAE_clean_linker_10, # of connection points: 2
#     Edge 25, Type (0, 1), BuildingBlock: TEMPAE_clean_linker_10, # of connection points: 2
#     Edge 26, Type (0, 1), BuildingBlock: TEMPAE_clean_linker_10, # of connection points: 2
#     Edge 27, Type (0, 1), BuildingBlock: TEMPAE_clean_linker_10, # of connection points: 2
#     Edge 28, Type (0, 1), BuildingBlock: TEMPAE_clean_linker_10, # of connection points: 2
#     Edge 29, Type (0, 1), BuildingBlock: TEMPAE_clean_linker_10, # of connection points: 2
#     Edge 30, Type (0, 1), BuildingBlock: TEMPAE_clean_linker_10, # of connection points: 2
#     Edge 31, Type (0, 1), BuildingBlock: TEMPAE_clean_linker_10, # of connection points: 2
#     Edge 32, Type (0, 1), BuildingBlock: TEMPAE_clean_linker_10, # of connection points: 2
#     Edge 33, Type (0, 1), BuildingBlock: TEMPAE_clean_linker_10, # of connection points: 2
#     Edge 34, Type (0, 1), BuildingBlock: TEMPAE_clean_linker_10, # of connection points: 2
#     Edge 35, Type (0, 1), BuildingBlock: TEMPAE_clean_linker_10, # of connection points: 2
# Relax obj value: 0.440
# Max RMSD: 0.273
# Mean RMSD: 0.255
data_MOF--net-zzz--node1-BETDAH_clean_sbu_0--node2-KAKCAD_clean_linker_0--edge1-TEMPAE_clean_linker_10
_symmetry_space_group_name_H-M    P1
_symmetry_Int_Tables_number       1
_symmetry_cell_setting            triclinic
loop_
_symmetry_equiv_pos_as_xyz
'x, y, z'
_cell_length_a     61.044766
_cell_length_b     60.989547
_cell_length_c     18.437625
_cell_angle_alpha  89.989254
_cell_angle_beta   90.027744
_cell_angle_gamma 90.012859
loop_
_atom_site_label
_atom_site_type_symbol
_atom_site_fract_x
_atom_site_fract_y
_atom_site_fract_z
_atom_type_partial_charge
C0 C 0.78162 0.48313 0.95661 0.0
C1 C 0.77209 0.46539 0.91943 0.0
C2 C 0.77352 0.48972 0.0238 0.0
C3 C 0.75557 0.47889 0.05469 0.0
C4 C 0.74527 0.4619 0.01601 0.0
C5 C 0.75361 0.45504 0.94913 0.0
C6 C 0.74797 0.48496 0.128 0.0
C7 C 0.72602 0.48997 0.13939 0.0
C8 C 0.71839 0.49602 0.2081 0.0
C9 C 0.73308 0.49633 0.26766 0.0
C10 C 0.75548 0.49078 0.25715 0.0
C11 C 0.76261 0.48566 0.18638 0.0
C12 C 0.77202 0.49008 0.31755 0.0
C13 C 0.77344 0.50666 0.3704 0.0
C14 C 0.78819 0.47361 0.31777 0.0
C15 C 0.80605 0.4745 0.36517 0.0
C16 C 0.80825 0.49162 0.41593 0.0
C17 C 0.69485 0.50191 0.21231 0.0
C18 C 0.68793 0.52108 0.17682 0.0
C19 C 0.67934 0.48545 0.22628 0.0
C20 C 0.6579 0.48723 0.19911 0.0
C21 C 0.65164 0.50536 0.15619 0.0
C22 C 0.66667 0.52277 0.1489 0.0
C23 C 0.79127 0.50739 0.41907 0.0
H24 H 0.79619 0.4911 0.93583 0.0
H25 H 0.78157 0.503 0.05237 0.0
H26 H 0.73136 0.45334 0.03899 0.0
H27 H 0.74615 0.44118 0.9219 0.0
H28 H 0.71475 0.48957 0.0938 0.0
H29 H 0.77972 0.482 0.17637 0.0
H30 H 0.72714 0.50062 0.32113 0.0
H31 H 0.7613 0.51959 0.37217 0.0
H32 H 0.7875 0.46025 0.27911 0.0
H33 H 0.81861 0.46212 0.3593 0.0
H34 H 0.69971 0.53377 0.16364 0.0
H35 H 0.68434 0.4703 0.25214 0.0
H36 H 0.79188 0.52059 0.45819 0.0
H37 H 0.66281 0.53694 0.11597 0.0
H38 H 0.64672 0.47371 0.20782 0.0
C39 C 0.90776 0.77601 0.0769 0.0
C40 C 0.92036 0.77828 0.01329 0.0
C41 C 0.91519 0.76288 0.13401 0.0
C42 C 0.93485 0.75118 0.12728 0.0
C43 C 0.94579 0.75105 0.06048 0.0
C44 C 0.93871 0.76454 0.00418 0.0
C45 C 0.94587 0.74186 0.1916 0.0
C46 C 0.95444 0.7207 0.18925 0.0
C47 C 0.96808 0.71287 0.24464 0.0
C48 C 0.9734 0.7268 0.30373 0.0
C49 C 0.96418 0.74816 0.30788 0.0
C50 C 0.95046 0.75529 0.25118 0.0
C51 C 0.96909 0.76414 0.36766 0.0
C52 C 0.95211 0.77728 0.39564 0.0
C53 C 0.99069 0.7689 0.38912 0.0
C54 C 0.99521 0.78719 0.43348 0.0
C55 C 0.97826 0.80126 0.45732 0.0
C56 C 0.97671 0.69025 0.23516 0.0
C57 C 0.96173 0.67277 0.23236 0.0
C58 C 0.99787 0.68698 0.20739 0.0
C59 C 1.00335 0.66722 0.17254 0.0
C60 C 0.9877 0.65035 0.16408 0.0
C61 C 0.96712 0.65312 0.19739 0.0
C62 C 0.95659 0.79556 0.43907 0.0
H63 H 0.89313 0.78573 0.08502 0.0
H64 H 0.90628 0.76286 0.18482 0.0
H65 H 0.96101 0.74213 0.05399 0.0
H66 H 0.94906 0.76573 0.95669 0.0
H67 H 0.95098 0.71042 0.14257 0.0
H68 H 0.94432 0.77198 0.25114 0.0
H69 H 0.98424 0.721 0.34611 0.0
H70 H 0.93524 0.77403 0.38086 0.0
H71 H 0.00419 0.75921 0.36851 0.0
H72 H 0.0121 0.79057 0.44743 0.0
H73 H 0.94513 0.67503 0.25175 0.0
H74 H 0.00959 0.70033 0.20736 0.0
H75 H 0.94297 0.80582 0.45501 0.0
H76 H 0.95446 0.6408 0.19176 0.0
H77 H 0.01952 0.66562 0.14906 0.0
C78 C 0.75261 0.06095 0.97395 0.0
C79 C 0.73842 0.07868 0.98689 0.0
C80 C 0.76224 0.04972 0.03186 0.0
C81 C 0.75801 0.05613 0.10378 0.0
C82 C 0.74549 0.07505 0.11624 0.0
C83 C 0.73575 0.08616 0.05856 0.0
C84 C 0.76521 0.04228 0.16559 0.0
C85 C 0.78586 0.03249 0.16546 0.0
C86 C 0.79242 0.01858 0.2219 0.0
C87 C 0.77806 0.01459 0.28074 0.0
C88 C 0.75716 0.02478 0.28246 0.0
C89 C 0.75098 0.03818 0.22369 0.0
C90 C 0.74108 0.02186 0.34332 0.0
C91 C 0.73638 1.00117 0.3732 0.0
C92 C 0.72834 0.03984 0.366 0.0
C93 C 0.71043 0.03706 0.41227 0.0
C94 C 0.70483 0.01623 0.43961 0.0
C95 C 0.81461 0.00892 0.21524 0.0
C96 C 0.81748 0.9902 0.1719 0.0
C97 C 0.83286 0.02224 0.22981 0.0
C98 C 0.85306 0.01805 0.1965 0.0
C99 C 0.85544 1.00049 0.14756 0.0
C100 C 0.83772 0.98594 0.13869 0.0
C101 C 0.71854 0.9984 0.42093 0.0
H102 H 0.75524 0.05494 0.91937 0.0
H103 H 0.77189 0.03524 0.02034 0.0
H104 H 0.74238 0.08073 0.17096 0.0
H105 H 0.72478 0.0996 0.07097 0.0
H106 H 0.79703 0.0357 0.12097 0.0
H107 H 0.73463 0.04507 0.22211 0.0
H108 H 0.7832 0.00404 0.32482 0.0
H109 H 0.74583 0.98694 0.35721 0.0
H110 H 0.73166 0.05614 0.34543 0.0
H111 H 0.70044 0.05129 0.42364 0.0
H112 H 0.80352 0.98004 0.15807 0.0
H113 H 0.83096 0.03707 0.26153 0.0
H114 H 0.71529 0.98215 0.44187 0.0
H115 H 0.83888 0.97235 0.10107 0.0
H116 H 0.86644 0.02942 0.20534 0.0
C117 C 0.48612 0.70792 0.42559 0.0
C118 C 0.50554 0.70219 0.46224 0.0
C119 C 0.48536 0.72618 0.37977 0.0
C120 C 0.50401 0.73925 0.36824 0.0
C121 C 0.52305 0.73459 0.40818 0.0
C122 C 0.52379 0.7163 0.45484 0.0
C123 C 0.50459 0.75402 0.30369 0.0
C124 C 0.50941 0.77672 0.30707 0.0
C125 C 0.50878 0.78951 0.2429 0.0
C126 C 0.50368 0.77952 0.17651 0.0
C127 C 0.49916 0.75713 0.17265 0.0
C128 C 0.49967 0.74458 0.23619 0.0
C129 C 0.49313 0.74673 0.10295 0.0
C130 C 0.47738 0.75627 0.05705 0.0
C131 C 0.50183 0.72619 0.08504 0.0
C132 C 0.49377 0.7146 0.02585 0.0
C133 C 0.47692 0.72337 0.98236 0.0
C134 C 0.51232 0.81353 0.24094 0.0
C135 C 0.49396 0.8274 0.24102 0.0
C136 C 0.53232 0.82169 0.2146 0.0
C137 C 0.53351 0.84267 0.18361 0.0
C138 C 0.51463 0.85579 0.17744 0.0
C139 C 0.4951 0.84831 0.20968 0.0
C140 C 0.46934 0.74467 0.99717 0.0
H141 H 0.47175 0.69757 0.42842 0.0
H142 H 0.47049 0.72925 0.34928 0.0
H143 H 0.53775 0.7442 0.39986 0.0
H144 H 0.53894 0.71281 0.4831 0.0
H145 H 0.51309 0.78437 0.35866 0.0
H146 H 0.49585 0.72723 0.23333 0.0
H147 H 0.50321 0.78932 0.1274 0.0
H148 H 0.47042 0.77215 0.06962 0.0
H149 H 0.51425 0.71862 0.11878 0.0
H150 H 0.49985 0.69813 0.01743 0.0
H151 H 0.47823 0.8213 0.25923 0.0
H152 H 0.54654 0.81109 0.21191 0.0
H153 H 0.45656 0.752 0.96443 0.0
H154 H 0.48032 0.85809 0.20669 0.0
H155 H 0.54878 0.84779 0.15895 0.0
C156 C 0.25563 0.55099 0.42699 0.0
C157 C 0.23722 0.54077 0.4576 0.0
C158 C 0.26377 0.54391 0.36011 0.0
C159 C 0.25334 0.52681 0.32232 0.0
C160 C 0.23546 0.5161 0.35411 0.0
C161 C 0.22756 0.52292 0.42132 0.0
C162 C 0.2608 0.5205 0.24906 0.0
C163 C 0.28278 0.51568 0.23733 0.0
C164 C 0.29035 0.50967 0.16857 0.0
C165 C 0.27555 0.50899 0.10936 0.0
C166 C 0.25314 0.51441 0.12012 0.0
C167 C 0.24606 0.51956 0.19095 0.0
C168 C 0.2366 0.51519 0.05969 0.0
C169 C 0.22041 0.53165 0.05969 0.0
C170 C 0.23534 0.49881 0.0061 0.0
C171 C 0.21767 0.49829 0.95674 0.0
C172 C 0.20071 0.51408 0.95987 0.0
C173 C 0.31398 0.50428 0.16401 0.0
C174 C 0.32919 0.52158 0.16604 0.0
C175 C 0.32082 0.48336 0.18639 0.0
C176 C 0.34159 0.48031 0.21737 0.0
C177 C 0.35595 0.49817 0.22686 0.0
C178 C 0.34998 0.51856 0.19691 0.0
C179 C 0.20272 0.53096 0.01155 0.0
H180 H 0.26317 0.56493 0.4535 0.0
H181 H 0.27762 0.5524 0.33644 0.0
H182 H 0.22732 0.50275 0.32623 0.0
H183 H 0.21304 0.51504 0.44284 0.0
H184 H 0.29412 0.51624 0.28269 0.0
H185 H 0.22895 0.52315 0.20116 0.0
H186 H 0.28147 0.50473 0.05583 0.0
H187 H 0.22099 0.54487 0.09887 0.0
H188 H 0.24749 0.48589 0.00411 0.0
H189 H 0.21717 0.48525 0.91699 0.0
H190 H 0.32414 0.53801 0.15116 0.0
H191 H 0.30927 0.46986 0.18713 0.0
H192 H 0.19016 0.54334 0.01743 0.0
H193 H 0.36049 0.53273 0.20345 0.0
H194 H 0.34577 0.4643 0.23862 0.0
C195 C 0.97684 0.25713 0.42225 0.0
C196 C 0.98678 0.23795 0.44858 0.0
C197 C 0.98263 0.26545 0.35425 0.0
C198 C 0.99833 0.25463 0.31138 0.0
C199 C 0.00917 0.23628 0.33948 0.0
C200 C 1.00351 0.22806 0.40734 0.0
C201 C 1.00259 0.2618 0.2361 0.0
C202 C 0.00576 0.28391 0.22111 0.0
C203 C 0.00877 0.29132 0.14999 0.0
C204 C 0.00857 0.27604 0.09193 0.0
C205 C 0.00521 0.25338 0.10645 0.0
C206 C 1.0026 0.24664 0.17904 0.0
C207 C 0.00371 0.2361 0.04858 0.0
C208 C 0.98717 0.22006 0.05305 0.0
C209 C 0.02 0.23349 0.99533 0.0
C210 C 0.02037 0.21466 0.95078 0.0
C211 C 0.00446 0.19793 0.95839 0.0
C212 C 0.01094 0.31543 0.14191 0.0
C213 C 0.99176 0.32814 0.14471 0.0
C214 C 0.03087 0.3253 0.16191 0.0
C215 C 0.03126 0.34652 0.19136 0.0
C216 C 0.01167 0.35828 0.20202 0.0
C217 C 0.9921 0.3493 0.1745 0.0
C218 C 0.98762 0.2013 0.0094 0.0
H219 H 0.96391 0.26508 0.45265 0.0
H220 H 0.97403 0.27969 0.33367 0.0
H221 H 0.02153 0.22784 0.30791 0.0
H222 H 0.01127 0.21301 0.42507 0.0
H223 H 0.0058 0.29562 0.26548 0.0
H224 H 1.00011 0.22943 0.1913 0.0
H225 H 0.01047 0.28171 0.03664 0.0
H226 H 0.97423 0.22156 0.09293 0.0
H227 H 0.03303 0.24545 0.99044 0.0
H228 H 0.0334 0.21305 0.91138 0.0
H229 H 0.97609 0.3208 0.13151 0.0
H230 H 0.0458 0.31569 0.16246 0.0
H231 H 0.97518 0.18896 0.01848 0.0
H232 H 0.97676 0.35801 0.18074 0.0
H233 H 0.04663 0.35282 0.21209 0.0
C234 C 0.27745 0.93319 0.38177 0.0
C235 C 0.27712 0.94483 0.44749 0.0
C236 C 0.26744 0.94189 0.32017 0.0
C237 C 0.25671 0.9622 0.32359 0.0
C238 C 0.2546 0.97283 0.39077 0.0
C239 C 0.26485 0.96426 0.45229 0.0
C240 C 0.24953 0.97316 0.25626 0.0
C241 C 0.22848 0.9817 0.25061 0.0
C242 C 0.22166 0.99259 0.18762 0.0
C243 C 0.23645 0.99513 0.12894 0.0
C244 C 0.25795 0.98632 0.1338 0.0
C245 C 0.26414 0.97567 0.19848 0.0
C246 C 0.27463 0.98789 0.07405 0.0
C247 C 0.2893 0.97041 0.06286 0.0
C248 C 0.27792 0.00722 0.03388 0.0
C249 C 0.29617 0.00938 0.98748 0.0
C250 C 0.31187 0.9924 0.98087 0.0
C251 C 0.19871 1.00053 0.18756 0.0
C252 C 0.18184 0.98487 0.18691 0.0
C253 C 0.1941 0.02163 0.21382 0.0
C254 C 0.17365 0.02632 0.2451 0.0
C255 C 0.15751 0.00987 0.25183 0.0
C256 C 0.16152 0.98944 0.21872 0.0
C257 C 0.30772 0.97274 0.01866 0.0
H258 H 0.28704 0.91834 0.37633 0.0
H259 H 0.26901 0.93328 0.26901 0.0
H260 H 0.24634 0.98851 0.39463 0.0
H261 H 0.26449 0.97356 0.50233 0.0
H262 H 0.21719 0.97976 0.29564 0.0
H263 H 0.28075 0.96972 0.20515 0.0
H264 H 0.23115 1.00342 0.08002 0.0
H265 H 0.2871 0.95497 0.09101 0.0
H266 H 0.26695 0.02103 0.04058 0.0
H267 H 0.2981 0.02461 0.95812 0.0
H268 H 0.18515 0.9683 0.16874 0.0
H269 H 0.20695 0.03386 0.2164 0.0
H270 H 0.31912 0.95919 0.01732 0.0
H271 H 0.14978 0.9762 0.22295 0.0
H272 H 0.17106 0.04243 0.2682 0.0
C273 C 0.50119 0.29066 0.97567 0.0
C274 C 0.5181 0.30377 0.94597 0.0
C275 C 0.50603 0.27245 0.02008 0.0
C276 C 0.52787 0.26676 0.03511 0.0
C277 C 0.5446 0.27872 1.00065 0.0
C278 C 0.53987 0.29704 0.95808 0.0
C279 C 0.53388 0.25111 0.09449 0.0
C280 C 0.52436 0.23007 0.10321 0.0
C281 C 0.53185 0.21603 0.15924 0.0
C282 C 0.54831 0.2233 0.20676 0.0
C283 C 0.55731 0.24425 0.20007 0.0
C284 C 0.54988 0.25797 0.14439 0.0
C285 C 0.5734 0.25271 0.2536 0.0
C286 C 0.57012 0.24957 0.32832 0.0
C287 C 0.59053 0.26643 0.23068 0.0
C288 C 0.60212 0.279 0.28076 0.0
C289 C 0.59704 0.27791 0.35513 0.0
C290 C 0.52307 0.19365 0.17205 0.0
C291 C 0.50259 0.19082 0.20548 0.0
C292 C 0.5376 0.17579 0.16951 0.0
C293 C 0.53263 0.15618 0.2052 0.0
C294 C 0.51299 0.15393 0.24424 0.0
C295 C 0.49753 0.17106 0.24104 0.0
C296 C 0.582 0.26192 0.3787 0.0
H297 H 0.48417 0.29472 0.96642 0.0
H298 H 0.49272 0.26359 0.04559 0.0
H299 H 0.56165 0.27465 0.01011 0.0
H300 H 0.55359 0.30648 0.9381 0.0
H301 H 0.51178 0.22451 0.0661 0.0
H302 H 0.55621 0.27454 0.14102 0.0
H303 H 0.55398 0.2126 0.24986 0.0
H304 H 0.55721 0.23892 0.34787 0.0
H305 H 0.59391 0.26866 0.17347 0.0
H306 H 0.61355 0.29102 0.25998 0.0
H307 H 0.4913 0.20447 0.20951 0.0
H308 H 0.55361 0.17765 0.14487 0.0
H309 H 0.57811 0.26018 0.43571 0.0
H310 H 0.48229 0.16984 0.27081 0.0
H311 H 0.54474 0.1432 0.20582 0.0
Ho312 Ho 0.01991 0.99115 0.76996 0.0
Ho313 Ho 0.99253 0.00787 0.62481 0.0
C314 C 1.00011 0.95639 0.64937 0.0
C315 C 0.02688 0.97015 0.88758 0.0
C316 C 0.01543 0.94969 0.9079 0.0
C317 C 0.99295 0.95008 0.92442 0.0
C318 C 0.98048 0.93098 0.92022 0.0
C319 C 0.99032 0.91105 0.90066 0.0
C320 C 0.01311 0.91024 0.89069 0.0
C321 C 0.02557 0.9294 0.89443 0.0
C322 C 0.04611 0.99979 0.65316 0.0
C323 C 0.00954 0.04302 0.75051 0.0
C324 C 0.98259 0.02727 0.50637 0.0
C325 C 0.9728 0.04916 0.49866 0.0
C326 C 0.98415 0.06511 0.45919 0.0
C327 C 0.97868 0.08717 0.46643 0.0
C328 C 0.96146 0.09374 0.51248 0.0
C329 C 0.94923 0.07757 0.54858 0.0
C330 C 0.95494 0.05548 0.54212 0.0
C331 C 0.96627 1.0004 0.74227 0.0
O332 O 0.0055 0.96055 0.71804 0.0
O333 O 0.99718 0.97211 0.60035 0.0
O334 O 0.03967 0.96831 0.83084 0.0
O335 O 0.01498 0.98808 0.88581 0.0
O336 O 0.05362 0.99422 0.71654 0.0
O337 O 0.02565 1.00046 0.65874 0.0
O338 O 1.0009 0.03929 0.68507 0.0
O339 O 0.0172 0.02728 0.79394 0.0
O340 O 0.97015 0.01194 0.53475 0.0
O341 O 1.00242 0.02751 0.53353 0.0
O342 O 0.95899 0.00681 0.67956 0.0
O343 O 0.98665 0.99832 0.73596 0.0
H344 H 0.98467 0.96531 0.93645 0.0
H345 H 0.96303 0.93189 0.93062 0.0
H346 H 0.02113 0.89501 0.87639 0.0
H347 H 0.04287 0.92855 0.88165 0.0
H348 H 0.99825 0.06066 0.42663 0.0
H349 H 0.9888 0.09913 0.43885 0.0
H350 H 0.9357 0.08201 0.58358 0.0
H351 H 0.94606 0.04354 0.57415 0.0
Ho352 Ho 0.5139 0.02153 0.7673 0.0
Ho353 Ho 0.50379 0.9899 0.65781 0.0
C354 C 0.5526 0.00526 0.65976 0.0
C355 C 0.53104 0.04636 0.86563 0.0
C356 C 0.55021 0.06074 0.86208 0.0
C357 C 0.56324 0.06091 0.79946 0.0
C358 C 0.58296 0.0724 0.79847 0.0
C359 C 0.58982 0.08427 0.85978 0.0
C360 C 0.57575 0.08548 0.9203 0.0
C361 C 0.55617 0.07361 0.92166 0.0
C362 C 0.50041 0.04022 0.64058 0.0
C363 C 0.46504 0.00579 0.76651 0.0
C364 C 0.48644 0.96617 0.55738 0.0
C365 C 0.46686 0.95222 0.55758 0.0
C366 C 0.45251 0.95317 0.49864 0.0
C367 C 0.43212 0.94298 0.50244 0.0
C368 C 0.42574 0.93137 0.56514 0.0
C369 C 0.44067 0.92959 0.62294 0.0
C370 C 0.461 0.94008 0.61944 0.0
C371 C 0.51733 0.97118 0.78419 0.0
O372 O 0.54774 0.01133 0.72667 0.0
O373 O 0.5368 0.99942 0.6151 0.0
O374 O 0.51456 0.05235 0.8253 0.0
O375 O 0.53527 0.02543 0.85992 0.0
O376 O 0.49428 0.04634 0.70445 0.0
O377 O 0.51354 0.0244 0.64674 0.0
O378 O 0.46989 0.99906 0.70022 0.0
O379 O 0.48083 0.0123 0.81032 0.0
O380 O 0.50285 0.95957 0.59725 0.0
O381 O 0.48254 0.98712 0.56448 0.0
O382 O 0.52337 0.96498 0.72021 0.0
O383 O 0.50417 0.98701 0.77839 0.0
H384 H 0.5586 0.05145 0.75226 0.0
H385 H 0.59337 0.07086 0.75119 0.0
H386 H 0.5803 0.09488 0.96781 0.0
H387 H 0.54605 0.07393 0.96992 0.0
H388 H 0.45663 0.96273 0.451 0.0
H389 H 0.42095 0.94528 0.45747 0.0
H390 H 0.43642 0.92065 0.6717 0.0
H391 H 0.47177 0.93935 0.6661 0.0
Ho392 Ho 0.48843 0.50871 0.75953 0.0
Ho393 Ho 0.51745 0.49476 0.62508 0.0
C394 C 0.50661 0.54593 0.65418 0.0
C395 C 0.46887 0.51853 0.87819 0.0
C396 C 0.45464 0.53733 0.89497 0.0
C397 C 0.46086 0.55158 0.95069 0.0
C398 C 0.45171 0.57245 0.95515 0.0
C399 C 0.43582 0.57941 0.90453 0.0
C400 C 0.42805 0.56422 0.85324 0.0
C401 C 0.43752 0.54342 0.84804 0.0
C402 C 0.4677 0.50783 0.62906 0.0
C403 C 0.50327 0.45758 0.74001 0.0
C404 C 0.53321 0.48084 0.50428 0.0
C405 C 0.54978 0.46376 0.49372 0.0
C406 C 0.55544 0.45023 0.55229 0.0
C407 C 0.56984 0.43279 0.54265 0.0
C408 C 0.57918 0.42867 0.47431 0.0
C409 C 0.57443 0.44311 0.41661 0.0
C410 C 0.55971 0.46048 0.42621 0.0
C411 C 0.54272 0.501 0.74664 0.0
O412 O 0.50219 0.54113 0.72284 0.0
O413 O 0.50936 0.53043 0.60437 0.0
O414 O 0.46111 0.504 0.83238 0.0
O415 O 0.48934 0.52381 0.86514 0.0
O416 O 0.46321 0.5214 0.68094 0.0
O417 O 0.48207 0.49444 0.65066 0.0
O418 O 0.51058 0.46163 0.67374 0.0
O419 O 0.49589 0.47313 0.78395 0.0
O420 O 0.54026 0.49865 0.53622 0.0
O421 O 0.51462 0.47383 0.53115 0.0
O422 O 0.55045 0.49508 0.68434 0.0
O423 O 0.5225 0.50308 0.73832 0.0
H424 H 0.47411 0.54726 0.98716 0.0
H425 H 0.45849 0.58361 0.99487 0.0
H426 H 0.41552 0.56878 0.81449 0.0
H427 H 0.43235 0.53272 0.8044 0.0
H428 H 0.54815 0.45272 0.60517 0.0
H429 H 0.57271 0.42191 0.58809 0.0
H430 H 0.58161 0.44064 0.36355 0.0
H431 H 0.55575 0.47101 0.38074 0.0
Ho432 Ho 1.00051 0.48627 0.73359 0.0
Ho433 Ho 0.00907 0.52103 0.63723 0.0
C434 C 0.96089 0.50461 0.63253 0.0
C435 C 0.98249 0.45838 0.82 0.0
C436 C 0.96128 0.44756 0.81004 0.0
C437 C 0.94954 0.44001 0.87008 0.0
C438 C 0.9274 0.43469 0.8628 0.0
C439 C 0.91662 0.43742 0.79572 0.0
C440 C 0.92896 0.44321 0.73446 0.0
C441 C 0.95118 0.44809 0.74154 0.0
C442 C 0.01468 0.47166 0.60222 0.0
C443 C 0.04871 0.50259 0.7383 0.0
C444 C 0.02707 0.54912 0.55159 0.0
C445 C 0.0483 0.55986 0.56226 0.0
C446 C 0.06038 0.56711 0.50254 0.0
C447 C 0.08254 0.57219 0.51069 0.0
C448 C 0.09301 0.56955 0.57834 0.0
C449 C 0.08035 0.56407 0.63921 0.0
C450 C 0.05811 0.5594 0.63124 0.0
C451 C 0.99492 0.5354 0.76876 0.0
O452 O 0.96635 0.49648 0.69645 0.0
O453 O 0.9762 0.51295 0.59048 0.0
O454 O 0.99765 0.45301 0.77348 0.0
O455 O 0.98118 0.47956 0.82932 0.0
O456 O 0.02173 0.46472 0.66426 0.0
O457 O 1.00076 0.48667 0.61253 0.0
O458 O 0.04326 0.51081 0.67445 0.0
O459 O 0.03338 0.49425 0.78025 0.0
O460 O 0.01187 0.55438 0.59808 0.0
O461 O 0.02836 0.52797 0.54157 0.0
O462 O 0.98754 0.54222 0.707 0.0
O463 O 0.00901 0.5206 0.75804 0.0
H464 H 0.95711 0.43946 0.92322 0.0
H465 H 0.91839 0.42974 0.91067 0.0
H466 H 0.92119 0.44559 0.6822 0.0
H467 H 0.9601 0.45372 0.6943 0.0
H468 H 0.05305 0.56757 0.44903 0.0
H469 H 0.09182 0.57688 0.46307 0.0
H470 H 0.08788 0.56176 0.69187 0.0
H471 H 0.04896 0.55394 0.6782 0.0
C472 C 0.11814 1.00205 0.28716 0.0
C473 C 0.13812 0.01276 0.30113 0.0
C474 C 0.10123 1.00154 0.33916 0.0
C475 C 0.10412 0.01224 0.4067 0.0
C476 C 0.12357 0.02433 0.4192 0.0
C477 C 0.14032 0.02431 0.36679 0.0
C478 C 0.08079 0.98845 0.3234 0.0
C479 C 0.1273 0.03623 0.48993 0.0
C480 C 0.05609 0.01984 0.53815 0.0
C481 C 0.05973 1.00274 0.5874 0.0
C482 C 0.07011 0.02301 0.47815 0.0
C483 C 0.08814 0.00869 0.46734 0.0
C484 C 0.09161 0.99122 0.51677 0.0
C485 C 0.07753 0.98864 0.5764 0.0
C486 C 0.06603 0.04208 0.42782 0.0
C487 C 0.11041 0.97539 0.50733 0.0
H488 H 0.11593 0.99344 0.23629 0.0
H489 H 0.15564 0.03242 0.37935 0.0
H490 H 0.08042 0.97372 0.35872 0.0
H491 H 0.06596 0.99825 0.33587 0.0
H492 H 0.07998 0.98303 0.26595 0.0
H493 H 0.14183 0.04719 0.48766 0.0
H494 H 0.11273 0.04617 0.50445 0.0
H495 H 0.12986 0.02412 0.53403 0.0
H496 H 0.04293 0.0313 0.54824 0.0
H497 H 0.08043 0.97546 0.6147 0.0
H498 H 0.06592 0.03648 0.37058 0.0
H499 H 0.07951 0.05417 0.43338 0.0
H500 H 0.05026 0.05045 0.43958 0.0
H501 H 0.10982 0.96791 0.4525 0.0
H502 H 0.11018 0.96204 0.54836 0.0
H503 H 0.1262 0.98428 0.51194 0.0
C504 C 0.52698 0.1298 0.3438 0.0
C505 C 0.51007 0.13516 0.29531 0.0
C506 C 0.52439 0.11322 0.396 0.0
C507 C 0.50448 0.10132 0.39946 0.0
C508 C 0.48752 0.10623 0.34935 0.0
C509 C 0.4904 0.12328 0.29848 0.0
C510 C 0.54275 0.10894 0.4491 0.0
C511 C 0.46623 0.09365 0.35014 0.0
C512 C 0.50771 0.04822 0.509 0.0
C513 C 0.49938 0.0549 0.57635 0.0
C514 C 0.50848 0.06281 0.44972 0.0
C515 C 0.50116 0.08473 0.4584 0.0
C516 C 0.49219 0.09132 0.52585 0.0
C517 C 0.49121 0.07629 0.5836 0.0
C518 C 0.51774 0.05495 0.37847 0.0
C519 C 0.48456 0.11457 0.53821 0.0
H520 H 0.54208 0.13914 0.34252 0.0
H521 H 0.47731 0.12729 0.26103 0.0
H522 H 0.53701 0.11225 0.50514 0.0
H523 H 0.54775 0.09148 0.44681 0.0
H524 H 0.55736 0.1193 0.43825 0.0
H525 H 0.45539 0.09824 0.30418 0.0
H526 H 0.46952 0.07577 0.34759 0.0
H527 H 0.45739 0.09684 0.40161 0.0
H528 H 0.51395 0.03168 0.50297 0.0
H529 H 0.48475 0.08159 0.63546 0.0
H530 H 0.53364 0.06318 0.36799 0.0
H531 H 0.50656 0.05934 0.33327 0.0
H532 H 0.52043 0.03694 0.37798 0.0
H533 H 0.49865 0.12596 0.53299 0.0
H534 H 0.47711 0.11685 0.59266 0.0
H535 H 0.47236 0.11931 0.49648 0.0
C536 C 0.39502 0.5074 0.26171 0.0
C537 C 0.37527 0.49647 0.27674 0.0
C538 C 0.41214 0.50813 0.31307 0.0
C539 C 0.40943 0.49792 0.38159 0.0
C540 C 0.38988 0.48617 0.39591 0.0
C541 C 0.37314 0.48555 0.3435 0.0
C542 C 0.43279 0.52059 0.29507 0.0
C543 C 0.3861 0.47521 0.46829 0.0
C544 C 0.4569 0.48829 0.51375 0.0
C545 C 0.4543 0.50587 0.56202 0.0
C546 C 0.44295 0.48584 0.45318 0.0
C547 C 0.4259 0.50124 0.44098 0.0
C548 C 0.42368 0.51932 0.48865 0.0
C549 C 0.43791 0.52143 0.54818 0.0
C550 C 0.44605 0.46646 0.40343 0.0
C551 C 0.40577 0.53612 0.47825 0.0
H552 H 0.39693 0.51575 0.21021 0.0
H553 H 0.35787 0.47739 0.35652 0.0
H554 H 0.43371 0.53562 0.32881 0.0
H555 H 0.44744 0.51053 0.30783 0.0
H556 H 0.43345 0.52546 0.23705 0.0
H557 H 0.37083 0.46529 0.46897 0.0
H558 H 0.40009 0.46439 0.48213 0.0
H559 H 0.38494 0.48786 0.51136 0.0
H560 H 0.46949 0.47618 0.52418 0.0
H561 H 0.43585 0.53513 0.58502 0.0
H562 H 0.44674 0.47197 0.34613 0.0
H563 H 0.43185 0.4552 0.40848 0.0
H564 H 0.46123 0.45716 0.4161 0.0
H565 H 0.40666 0.5432 0.42291 0.0
H566 H 0.4068 0.54969 0.51829 0.0
H567 H 0.38953 0.52812 0.48369 0.0
C568 C 0.02761 0.39415 0.24712 0.0
C569 C 0.01123 0.37799 0.25058 0.0
C570 C 0.02845 0.41142 0.29804 0.0
C571 C 0.01278 0.41241 0.35475 0.0
C572 C 0.99589 0.39648 0.35728 0.0
C573 C 0.99528 0.37962 0.30523 0.0
C574 C 0.04651 0.42822 0.29246 0.0
C575 C 0.979 0.39661 0.41712 0.0
C576 C 0.02789 0.4383 0.53637 0.0
C577 C 0.01588 0.45792 0.53552 0.0
C578 C 0.02747 0.42372 0.47727 0.0
C579 C 0.01492 0.42891 0.41486 0.0
C580 C 1.00346 0.44915 0.41242 0.0
C581 C 0.00398 0.46336 0.47288 0.0
C582 C 0.03979 0.40232 0.4829 0.0
C583 C 0.99013 0.4555 0.34679 0.0
H584 H 0.03995 0.39314 0.20502 0.0
H585 H 0.98278 0.36705 0.30946 0.0
H586 H 0.0396 0.44502 0.29502 0.0
H587 H 0.05788 0.42639 0.33904 0.0
H588 H 0.05605 0.42651 0.24148 0.0
H589 H 0.96621 0.38388 0.40917 0.0
H590 H 0.98716 0.39365 0.47003 0.0
H591 H 0.97093 0.41287 0.42031 0.0
H592 H 0.03717 0.43397 0.58441 0.0
H593 H 0.99468 0.47849 0.47169 0.0
H594 H 0.05106 0.40043 0.43616 0.0
H595 H 0.02807 0.38843 0.4811 0.0
H596 H 0.04948 0.40111 0.53377 0.0
H597 H 1.00017 0.45397 0.2969 0.0
H598 H 0.9838 0.47253 0.35057 0.0
H599 H 0.97601 0.44417 0.341 0.0
C600 C 0.88477 0.97907 0.08117 0.0
C601 C 0.87492 0.99922 0.09848 0.0
C602 C 0.9016 0.97775 0.02891 0.0
C603 C 0.90849 0.99695 0.99198 0.0
C604 C 0.89904 0.01739 0.01082 0.0
C605 C 0.88252 0.01827 0.06382 0.0
C606 C 0.9115 0.9557 0.01143 0.0
C607 C 0.90557 0.03825 0.97232 0.0
C608 C 0.96066 1.00033 0.87765 0.0
C609 C 0.95239 0.9974 0.80752 0.0
C610 C 0.94681 0.99919 0.93877 0.0
C611 C 0.92402 0.99561 0.92919 0.0
C612 C 0.91568 0.99243 0.85823 0.0
C613 C 0.92995 0.99334 0.79852 0.0
C614 C 0.95644 1.00246 0.01333 0.0
C615 C 0.89153 0.98887 0.84498 0.0
H616 H 0.87912 0.96429 0.10786 0.0
H617 H 0.8748 0.03387 0.07565 0.0
H618 H 0.90655 0.95064 0.956 0.0
H619 H 0.92965 0.95672 0.01207 0.0
H620 H 0.90621 0.9428 0.05022 0.0
H621 H 0.89774 0.05299 0.99642 0.0
H622 H 0.9236 0.04042 0.97413 0.0
H623 H 0.90076 0.03722 0.91437 0.0
H624 H 0.97776 0.00436 0.88461 0.0
H625 H 0.92342 0.99128 0.74425 0.0
H626 H 0.95127 0.98897 0.04988 0.0
H627 H 0.95023 0.01799 0.03692 0.0
H628 H 0.97463 1.00311 0.0122 0.0
H629 H 0.88555 0.97476 0.87735 0.0
H630 H 0.88779 0.98577 0.7869 0.0
H631 H 0.88221 1.00354 0.86278 0.0
C632 C 0.49775 0.87846 0.07845 0.0
C633 C 0.51461 0.87557 0.12943 0.0
C634 C 0.49847 0.89547 0.02699 0.0
C635 C 0.51641 0.91021 0.02648 0.0
C636 C 0.53309 0.90792 0.07952 0.0
C637 C 0.53209 0.89055 0.12991 0.0
C638 C 0.48046 0.89704 0.97105 0.0
C639 C 0.55232 0.92346 0.08172 0.0
C640 C 0.52938 0.93633 0.84366 0.0
C641 C 0.5188 0.95668 0.84884 0.0
C642 C 0.5292 0.92136 0.90167 0.0
C643 C 0.51837 0.9269 0.96713 0.0
C644 C 0.50837 0.9478 0.97369 0.0
C645 C 0.50861 0.96239 0.91437 0.0
C646 C 0.53993 0.89925 0.89182 0.0
C647 C 0.49687 0.95449 0.04264 0.0
H648 H 0.48437 0.86679 0.07662 0.0
H649 H 0.54513 0.88854 0.16929 0.0
H650 H 0.47339 0.91379 0.9706 0.0
H651 H 0.48732 0.89394 0.91627 0.0
H652 H 0.46706 0.88508 0.9811 0.0
H653 H 0.56283 0.92076 0.1301 0.0
H654 H 0.56247 0.92125 0.03237 0.0
H655 H 0.5465 0.94069 0.08193 0.0
H656 H 0.53733 0.9318 0.79328 0.0
H657 H 0.50045 0.97812 0.91883 0.0
H658 H 0.52737 0.88614 0.89547 0.0
H659 H 0.55201 0.8963 0.93571 0.0
H660 H 0.54842 0.89779 0.83876 0.0
H661 H 0.48226 0.94399 0.05111 0.0
H662 H 0.49151 0.9719 0.04136 0.0
H663 H 0.50784 0.95205 0.08996 0.0
C664 C 0.62381 0.4852 0.07963 0.0
C665 C 0.63107 0.50492 0.11115 0.0
C666 C 0.60685 0.48489 0.02788 0.0
C667 C 0.59701 0.50482 0.00553 0.0
C668 C 0.60332 0.52461 0.03993 0.0
C669 C 0.62006 0.5244 0.09261 0.0
C670 C 0.60046 0.46332 0.99368 0.0
C671 C 0.59336 0.54626 0.01782 0.0
C672 C 0.57859 0.50579 0.80829 0.0
C673 C 0.55582 0.50344 0.81393 0.0
C674 C 0.59195 0.50691 0.87018 0.0
C675 C 0.58243 0.5052 0.94003 0.0
C676 C 0.55934 0.50306 0.94619 0.0
C677 C 0.54626 0.50237 0.88296 0.0
C678 C 0.61639 0.50955 0.86059 0.0
C679 C 0.54853 0.50079 0.01935 0.0
H680 H 0.63216 0.47 0.09214 0.0
H681 H 0.62502 0.53971 0.11746 0.0
H682 H 0.58237 0.46172 0.99113 0.0
H683 H 0.60672 0.46269 0.93723 0.0
H684 H 0.60721 0.44909 0.02391 0.0
H685 H 0.59807 0.55976 0.05516 0.0
H686 H 0.59896 0.55056 0.96235 0.0
H687 H 0.57524 0.54507 0.0162 0.0
H688 H 0.58605 0.50668 0.755 0.0
H689 H 0.52868 0.50029 0.88748 0.0
H690 H 0.62497 0.49483 0.88171 0.0
H691 H 0.62232 0.52386 0.89215 0.0
H692 H 0.62108 0.51185 0.80288 0.0
H693 H 0.55372 0.48516 0.04492 0.0
H694 H 0.53037 0.50092 0.0154 0.0
H695 H 0.55378 0.51426 0.05584 0.0
C696 C 1.00328 0.63397 0.0492 0.0
C697 C 0.99173 0.63116 0.11453 0.0
C698 C 0.00492 0.61696 0.99778 0.0
C699 C 0.99456 0.59655 0.01105 0.0
C700 C 0.98359 0.59327 0.07789 0.0
C701 C 0.98241 0.61049 0.12879 0.0
C702 C 0.01698 0.6212 0.92769 0.0
C703 C 0.97228 0.57184 0.09446 0.0
C704 C 0.97717 0.56501 0.84174 0.0
C705 C 0.99375 0.54923 0.83513 0.0
C706 C 0.97689 0.57995 0.89988 0.0
C707 C 0.99379 0.57939 0.95263 0.0
C708 C 0.01031 0.56309 0.94727 0.0
C709 C 0.01001 0.54812 0.88889 0.0
C710 C 0.95877 0.59677 0.90368 0.0
C711 C 0.02875 0.56198 1.00165 0.0
H712 H 0.0103 0.64982 0.03645 0.0
H713 H 0.97377 0.60785 0.17935 0.0
H714 H 0.02889 0.60785 0.91693 0.0
H715 H 0.00516 0.62141 0.88196 0.0
H716 H 0.0259 0.63708 0.92836 0.0
H717 H 0.96585 0.57125 0.1508 0.0
H718 H 0.9584 0.56946 0.05637 0.0
H719 H 0.98372 0.55792 0.0865 0.0
H720 H 0.96453 0.56593 0.8005 0.0
H721 H 0.02297 0.53606 0.88392 0.0
H722 H 0.96574 0.61345 0.89708 0.0
H723 H 0.95071 0.59617 0.95757 0.0
H724 H 0.94614 0.5942 0.86112 0.0
H725 H 0.0388 0.57711 0.998 0.0
H726 H 0.03957 0.5476 0.99256 0.0
H727 H 0.02211 0.56116 0.05757 0.0
C728 C 0.95463 0.22151 0.51133 0.0
C729 C 0.97726 0.22559 0.51022 0.0
C730 C 0.94654 0.20205 0.5417 0.0
C731 C 0.9616 0.18641 0.56834 0.0
C732 C 0.98346 0.19291 0.58259 0.0
C733 C 0.99101 0.2128 0.55401 0.0
C734 C 0.92261 0.19659 0.53287 0.0
C735 C 0.99971 0.17749 0.61727 0.0
C736 C 0.95256 0.12539 0.59548 0.0
C737 C 0.95748 0.11744 0.52571 0.0
C738 C 0.95195 0.14804 0.60959 0.0
C739 C 0.95736 0.16288 0.5535 0.0
C740 C 0.96109 0.15491 0.48217 0.0
C741 C 0.9605 0.13239 0.46908 0.0
C742 C 0.94623 0.15592 0.68478 0.0
C743 C 0.96695 0.16997 0.41983 0.0
H744 H 0.9436 0.23177 0.48015 0.0
H745 H 0.00831 0.21672 0.55695 0.0
H746 H 0.91993 0.18888 0.47907 0.0
H747 H 0.91705 0.18491 0.57522 0.0
H748 H 0.91242 0.21166 0.53547 0.0
H749 H 0.01628 0.1849 0.62225 0.0
H750 H 0.99399 0.17302 0.6723 0.0
H751 H 1.00111 0.16219 0.58499 0.0
H752 H 0.95009 0.114 0.63984 0.0
H753 H 0.96338 0.12641 0.41456 0.0
H754 H 0.93698 0.17157 0.68283 0.0
H755 H 0.96142 0.15886 0.71615 0.0
H756 H 0.93634 0.14354 0.71453 0.0
H757 H 0.95333 0.18154 0.40911 0.0
H758 H 0.97034 0.16086 0.36887 0.0
H759 H 0.98171 0.17973 0.43353 0.0
C760 C 0.30917 0.95557 0.52074 0.0
C761 C 0.29368 0.93951 0.50313 0.0
C762 C 0.32928 0.94979 0.55143 0.0
C763 C 0.33365 0.92743 0.56669 0.0
C764 C 0.31676 0.9117 0.55937 0.0
C765 C 0.29702 0.91783 0.52591 0.0
C766 C 0.34672 0.96727 0.55892 0.0
C767 C 0.32003 0.88807 0.5808 0.0
C768 C 0.39147 0.91635 0.51019 0.0
C769 C 0.40279 0.92345 0.57203 0.0
C770 C 0.36859 0.91537 0.50954 0.0
C771 C 0.35684 0.9205 0.57358 0.0
C772 C 0.36832 0.92387 0.63919 0.0
C773 C 0.39122 0.92589 0.63748 0.0
C774 C 0.35706 0.91127 0.43825 0.0
C775 C 0.35643 0.92724 0.70996 0.0
H776 H 0.30659 0.97235 0.50319 0.0
H777 H 0.28484 0.90545 0.51343 0.0
H778 H 0.35341 0.96735 0.61476 0.0
H779 H 0.36047 0.96374 0.52131 0.0
H780 H 0.34037 0.98394 0.54671 0.0
H781 H 0.30453 0.88105 0.60221 0.0
H782 H 0.32466 0.87835 0.53234 0.0
H783 H 0.33304 0.88621 0.62243 0.0
H784 H 0.4004 0.91327 0.46043 0.0
H785 H 0.39969 0.93095 0.68634 0.0
H786 H 0.34779 0.92613 0.42186 0.0
H787 H 0.34516 0.89767 0.44403 0.0
H788 H 0.36866 0.90704 0.39398 0.0
H789 H 0.35403 0.94503 0.71952 0.0
H790 H 0.36624 0.92063 0.75573 0.0
H791 H 0.34013 0.91917 0.7099 0.0
C792 C 0.62313 0.30787 0.3917 0.0
C793 C 0.60344 0.29645 0.40323 0.0
C794 C 0.62555 0.32962 0.41537 0.0
C795 C 0.60798 0.33988 0.45199 0.0
C796 C 0.58975 0.32725 0.47428 0.0
C797 C 0.58763 0.3057 0.44928 0.0
C798 C 0.6457 0.34228 0.39345 0.0
C799 C 0.57099 0.33734 0.51597 0.0
C800 C 0.60438 0.39863 0.51695 0.0
C801 C 0.59133 0.40787 0.46198 0.0
C802 C 0.61163 0.37682 0.51244 0.0
C803 C 0.60583 0.36412 0.45126 0.0
C804 C 0.59461 0.37404 0.3925 0.0
C805 C 0.5874 0.39573 0.39878 0.0
C806 C 0.62387 0.36706 0.57577 0.0
C807 C 0.58841 0.36119 0.32544 0.0
H808 H 0.63586 0.30055 0.35869 0.0
H809 H 0.57239 0.29714 0.45953 0.0
H810 H 0.64221 0.35148 0.3428 0.0
H811 H 0.65038 0.35434 0.43576 0.0
H812 H 0.65977 0.33118 0.38308 0.0
H813 H 0.55997 0.32467 0.53935 0.0
H814 H 0.57718 0.34785 0.56057 0.0
H815 H 0.5612 0.34785 0.47899 0.0
H816 H 0.60803 0.40807 0.56526 0.0
H817 H 0.57726 0.40254 0.35612 0.0
H818 H 0.63541 0.35406 0.5582 0.0
H819 H 0.61195 0.35959 0.61389 0.0
H820 H 0.63313 0.37984 0.60583 0.0
H821 H 0.60281 0.35222 0.30394 0.0
H822 H 0.58184 0.37189 0.28178 0.0
H823 H 0.57571 0.34888 0.33949 0.0
C824 C 0.21626 0.53747 0.57303 0.0
C825 C 0.22534 0.55082 0.51897 0.0
C826 C 0.19745 0.54419 0.61049 0.0
C827 C 0.18749 0.56433 0.59136 0.0
C828 C 0.19922 0.57953 0.54826 0.0
C829 C 0.21819 0.57255 0.51231 0.0
C830 C 0.18625 0.52801 0.65991 0.0
C831 C 0.18965 0.60154 0.52849 0.0
C832 C 0.129 0.55826 0.52868 0.0
C833 C 0.11725 0.56918 0.58285 0.0
C834 C 0.15174 0.55648 0.53183 0.0
C835 C 0.16322 0.56569 0.59138 0.0
C836 C 0.15153 0.57643 0.64729 0.0
C837 C 0.12857 0.57804 0.64241 0.0
C838 C 0.16338 0.54456 0.47098 0.0
C839 C 0.16315 0.58587 0.71243 0.0
H840 H 0.22227 0.52087 0.57989 0.0
H841 H 0.22545 0.5831 0.47153 0.0
H842 H 0.17638 0.53643 0.70197 0.0
H843 H 0.17516 0.51754 0.62715 0.0
H844 H 0.19838 0.51715 0.68691 0.0
H845 H 0.20266 0.61328 0.5121 0.0
H846 H 0.17829 0.59945 0.48197 0.0
H847 H 0.18024 0.60865 0.5742 0.0
H848 H 0.12031 0.55063 0.48404 0.0
H849 H 0.1195 0.58623 0.68503 0.0
H850 H 0.17218 0.53008 0.49277 0.0
H851 H 0.17564 0.55549 0.44521 0.0
H852 H 0.15193 0.5388 0.42819 0.0
H853 H 0.17008 0.57235 0.74551 0.0
H854 H 0.15198 0.59565 0.74723 0.0
H855 H 0.17705 0.59637 0.69534 0.0
C856 C 0.92589 0.79789 0.89455 0.0
C857 C 0.91813 0.79808 0.96637 0.0
C858 C 0.93332 0.81728 0.86169 0.0
C859 C 0.93249 0.83708 0.90135 0.0
C860 C 0.92055 0.83796 0.96693 0.0
C861 C 0.9136 0.81839 0.99904 0.0
C862 C 0.94469 0.81603 0.78924 0.0
C863 C 0.91819 0.85906 0.00903 0.0
C864 C 0.9832 0.87151 0.92368 0.0
C865 C 0.97678 0.89118 0.89117 0.0
C866 C 0.96946 0.85317 0.92228 0.0
C867 C 0.9488 0.85458 0.88719 0.0
C868 C 0.94304 0.87385 0.84908 0.0
C869 C 0.95707 0.89205 0.85205 0.0
C870 C 0.97648 0.83279 0.96281 0.0
C871 C 0.92165 0.8759 0.80869 0.0
H872 H 0.92832 0.78239 0.86695 0.0
H873 H 0.90717 0.81909 0.0537 0.0
H874 H 0.94169 0.83108 0.75696 0.0
H875 H 0.96263 0.8146 0.79797 0.0
H876 H 0.93918 0.80153 0.75766 0.0
H877 H 0.9054 0.85779 0.05168 0.0
H878 H 0.93402 0.86305 0.03565 0.0
H879 H 0.91396 0.87283 0.97233 0.0
H880 H 0.99849 0.87079 0.95354 0.0
H881 H 0.95238 0.90714 0.82505 0.0
H882 H 0.97501 0.81816 0.92743 0.0
H883 H 0.96562 0.83023 0.01035 0.0
H884 H 0.99365 0.83388 0.98249 0.0
H885 H 0.9153 0.85976 0.79055 0.0
H886 H 0.92354 0.88672 0.76058 0.0
H887 H 0.90928 0.88351 0.84485 0.0
C888 C 0.71563 0.10824 0.92967 0.0
C889 C 0.72305 0.08645 0.92988 0.0
C890 C 0.69548 0.11368 0.89777 0.0
C891 C 0.6827 0.0969 0.86607 0.0
C892 C 0.69207 0.076 0.85413 0.0
C893 C 0.71217 0.07095 0.88664 0.0
C894 C 0.68659 0.13657 0.90702 0.0
C895 C 0.6794 0.05793 0.81702 0.0
C896 C 0.62459 0.08909 0.92845 0.0
C897 C 0.61274 0.09235 0.86428 0.0
C898 C 0.64724 0.09222 0.93068 0.0
C899 C 0.65847 0.09869 0.86686 0.0
C900 C 0.64647 0.10374 0.80339 0.0
C901 C 0.62368 0.10049 0.80281 0.0
C902 C 0.6593 0.08684 1.00016 0.0
C903 C 0.65758 0.11116 0.73459 0.0
H904 H 0.72446 0.12057 0.96036 0.0
H905 H 0.71787 0.05414 0.88509 0.0
H906 H 0.6764 0.14138 0.85974 0.0
H907 H 0.67607 0.13713 0.95607 0.0
H908 H 0.70001 0.14869 0.91402 0.0
H909 H 0.69019 0.04407 0.80109 0.0
H910 H 0.66667 0.05157 0.85452 0.0
H911 H 0.671 0.06421 0.76791 0.0
H912 H 0.61646 0.08255 0.97598 0.0
H913 H 0.61459 0.10349 0.75328 0.0
H914 H 0.67006 0.10067 0.01616 0.0
H915 H 0.66985 0.07224 0.99173 0.0
H916 H 0.64798 0.08333 0.04586 0.0
H917 H 0.67345 0.11942 0.74544 0.0
H918 H 0.64686 0.12252 0.70363 0.0
H919 H 0.66073 0.09669 0.69966 0.0
C920 C 0.44241 0.70834 0.92764 0.0
C921 C 0.46542 0.70873 0.93027 0.0
C922 C 0.4313 0.68985 0.90118 0.0
C923 C 0.44353 0.67119 0.8806 0.0
C924 C 0.46655 0.67293 0.87231 0.0
C925 C 0.47714 0.69205 0.89529 0.0
C926 C 0.40661 0.68953 0.90325 0.0
C927 C 0.48041 0.6536 0.84929 0.0
C928 C 0.43074 0.61623 0.96158 0.0
C929 C 0.43028 0.60313 0.89918 0.0
C930 C 0.43323 0.63896 0.95646 0.0
C931 C 0.43383 0.64897 0.88706 0.0
C932 C 0.42951 0.63629 0.82459 0.0
C933 C 0.42826 0.61337 0.83107 0.0
C934 C 0.43753 0.65183 0.02513 0.0
C935 C 0.42743 0.64683 0.75083 0.0
H936 H 0.433 0.7214 0.95238 0.0
H937 H 0.49487 0.69285 0.89336 0.0
H938 H 0.3997 0.67692 0.86639 0.0
H939 H 0.401 0.68605 0.95928 0.0
H940 H 0.39998 0.70584 0.88778 0.0
H941 H 0.49785 0.65818 0.84111 0.0
H942 H 0.47965 0.64065 0.89155 0.0
H943 H 0.47412 0.64642 0.79818 0.0
H944 H 0.43104 0.60854 0.01457 0.0
H945 H 0.42734 0.60357 0.7822 0.0
H946 H 0.42518 0.665 0.0312 0.0
H947 H 0.45391 0.6597 0.0224 0.0
H948 H 0.43696 0.64137 0.07445 0.0
H949 H 0.4131 0.65804 0.75093 0.0
H950 H 0.42521 0.63455 0.70695 0.0
H951 H 0.44201 0.65698 0.73833 0.0
C952 C 0.79339 0.46917 0.80483 0.0
C953 C 0.78414 0.45559 0.85793 0.0
C954 C 0.81225 0.46258 0.76745 0.0
C955 C 0.82207 0.44228 0.78553 0.0
C956 C 0.8102 0.42692 0.8276 0.0
C957 C 0.79121 0.43381 0.86361 0.0
C958 C 0.82365 0.47895 0.71924 0.0
C959 C 0.81962 0.40475 0.84608 0.0
C960 C 0.88091 0.42891 0.73252 0.0
C961 C 0.89235 0.43749 0.79229 0.0
C962 C 0.85793 0.43041 0.7284 0.0
C963 C 0.84632 0.44075 0.78532 0.0
C964 C 0.8579 0.44957 0.84531 0.0
C965 C 0.88066 0.44792 0.84768 0.0
C966 C 0.84621 0.42134 0.66287 0.0
C967 C 0.84633 0.46099 0.90734 0.0
H968 H 0.78745 0.48583 0.79873 0.0
H969 H 0.78383 0.42308 0.90365 0.0
H970 H 0.83525 0.48874 0.75244 0.0
H971 H 0.83306 0.47066 0.67576 0.0
H972 H 0.81174 0.49043 0.69408 0.0
H973 H 0.80654 0.393 0.86172 0.0
H974 H 0.829 0.39784 0.79994 0.0
H975 H 0.83099 0.40651 0.89274 0.0
H976 H 0.88991 0.42106 0.68903 0.0
H977 H 0.8894 0.45533 0.8926 0.0
H978 H 0.83982 0.43508 0.62964 0.0
H979 H 0.83196 0.41124 0.67937 0.0
H980 H 0.85721 0.41126 0.62836 0.0
H981 H 0.83745 0.47561 0.88691 0.0
H982 H 0.85784 0.46646 0.95038 0.0
H983 H 0.83414 0.44984 0.93243 0.0
C984 C 0.98674 0.16477 0.89885 0.0
C985 C 0.00584 0.17653 0.91721 0.0
C986 C 0.98772 0.14356 0.86857 0.0
C987 C 0.0083 0.13376 0.85411 0.0
C988 C 0.02763 0.14591 0.86864 0.0
C989 C 0.02619 0.16693 0.9005 0.0
C990 C 0.96664 0.13125 0.85528 0.0
C991 C 0.04992 0.13643 0.85238 0.0
C992 C 0.01163 0.071 0.85118 0.0
C993 C 0.01016 0.06624 0.77679 0.0
C994 C 0.01112 0.0928 0.87681 0.0
C995 C 0.00956 0.11048 0.82702 0.0
C996 C 0.00856 0.10577 0.75173 0.0
C997 C 0.0086 0.08381 0.72769 0.0
C998 C 0.01176 0.09687 0.95754 0.0
C999 C 0.00711 0.12393 0.69643 0.0
H1000 H 0.97084 0.17198 0.90923 0.0
H1001 H 0.04115 0.17548 0.91456 0.0
H1002 H 0.96657 0.12373 0.80053 0.0
H1003 H 0.9652 0.11771 0.89524 0.0
H1004 H 0.95202 0.14197 0.86053 0.0
H1005 H 0.06326 0.14858 0.86062 0.0
H1006 H 0.05302 0.12213 0.88812 0.0
H1007 H 0.05055 0.13048 0.79554 0.0
H1008 H 0.01262 0.05763 0.88976 0.0
H1009 H 0.0075 0.08043 0.67008 0.0
H1010 H 0.99673 0.10571 0.97457 0.0
H1011 H 0.02593 0.10746 0.97137 0.0
H1012 H 0.01301 0.08143 0.98922 0.0
H1013 H 0.00796 0.11772 0.63984 0.0
H1014 H 0.02053 0.13594 0.70498 0.0
H1015 H 0.99144 0.1328 0.70333 0.0
C1016 C 0.34259 0.01608 0.92926 0.0
C1017 C 0.33299 0.99525 0.93879 0.0
C1018 C 0.36324 0.01861 0.89583 0.0
C1019 C 0.37527 0.99987 0.87389 0.0
C1020 C 0.36567 0.9789 0.88208 0.0
C1021 C 0.34455 0.97692 0.91203 0.0
C1022 C 0.37246 0.04137 0.8858 0.0
C1023 C 0.37818 0.95837 0.8625 0.0
C1024 C 0.42429 1.0038 0.74488 0.0
C1025 C 0.44202 0.00472 0.79338 0.0
C1026 C 0.4025 1.00274 0.77012 0.0
C1027 C 0.39827 1.00202 0.84576 0.0
C1028 C 0.41615 1.00267 0.89483 0.0
C1029 C 0.4377 0.00429 0.86815 0.0
C1030 C 0.38398 1.00241 0.71583 0.0
C1031 C 0.41258 1.00117 0.97572 0.0
H1032 H 0.33438 0.03052 0.94971 0.0
H1033 H 0.33737 0.96074 0.91548 0.0
H1034 H 0.38665 0.04376 0.92254 0.0
H1035 H 0.37846 0.04351 0.82941 0.0
H1036 H 0.36015 0.05431 0.89746 0.0
H1037 H 0.36821 0.9433 0.86989 0.0
H1038 H 0.3839 0.95915 0.80551 0.0
H1039 H 0.39298 0.95705 0.89722 0.0
H1040 H 0.42743 0.00417 0.68704 0.0
H1041 H 0.45126 0.00474 0.9061 0.0
H1042 H 0.37244 0.01603 0.72725 0.0
H1043 H 0.37462 0.98689 0.72079 0.0
H1044 H 0.3899 1.00394 0.65908 0.0
H1045 H 0.40244 0.01515 0.99445 0.0
H1046 H 0.42822 1.00123 0.00655 0.0
H1047 H 0.4035 0.98592 0.98896 0.0
C1048 C 0.5285 0.33356 0.856 0.0
C1049 C 0.51352 0.32509 0.90699 0.0
C1050 C 0.52627 0.35482 0.8272 0.0
C1051 C 0.50794 0.36779 0.84633 0.0
C1052 C 0.49192 0.3589 0.89356 0.0
C1053 C 0.49509 0.33795 0.92432 0.0
C1054 C 0.54408 0.36372 0.77848 0.0
C1055 C 0.47163 0.37174 0.91314 0.0
C1056 C 0.51249 0.43023 0.83638 0.0
C1057 C 0.50401 0.43471 0.76731 0.0
C1058 C 0.51407 0.40857 0.86231 0.0
C1059 C 0.50609 0.39096 0.81945 0.0
C1060 C 0.49693 0.39554 0.75034 0.0
C1061 C 0.49647 0.41729 0.72444 0.0
C1062 C 0.52475 0.4045 0.93494 0.0
C1063 C 0.48741 0.37749 0.70403 0.0
H1064 H 0.54239 0.32378 0.83921 0.0
H1065 H 0.48336 0.33206 0.96376 0.0
H1066 H 0.53718 0.36831 0.72497 0.0
H1067 H 0.55113 0.37882 0.8027 0.0
H1068 H 0.55752 0.35173 0.76974 0.0
H1069 H 0.45941 0.36153 0.94236 0.0
H1070 H 0.47614 0.38578 0.94831 0.0
H1071 H 0.46385 0.37853 0.86357 0.0
H1072 H 0.51851 0.44368 0.86931 0.0
H1073 H 0.48977 0.42075 0.67119 0.0
H1074 H 0.53869 0.39299 0.92845 0.0
H1075 H 0.51289 0.39671 0.97251 0.0
H1076 H 0.53089 0.41984 0.96028 0.0
H1077 H 0.47938 0.38393 0.65431 0.0
H1078 H 0.47518 0.36801 0.73567 0.0
H1079 H 0.50049 0.36591 0.68759 0.0
C1080 C 0.16847 0.5314 0.89396 0.0
C1081 C 0.18036 0.51248 0.91342 0.0
C1082 C 0.14776 0.53005 0.8604 0.0
C1083 C 0.13884 0.5093 0.84271 0.0
C1084 C 0.15139 0.49022 0.85697 0.0
C1085 C 0.17173 0.49198 0.89294 0.0
C1086 C 0.13492 0.55085 0.84735 0.0
C1087 C 0.14296 0.46779 0.83652 0.0
C1088 C 0.07663 0.50215 0.83845 0.0
C1089 C 0.07182 0.50393 0.76425 0.0
C1090 C 0.09824 0.50413 0.86439 0.0
C1091 C 0.11574 0.50742 0.81494 0.0
C1092 C 0.111 0.50902 0.73976 0.0
C1093 C 0.08912 0.50758 0.71551 0.0
C1094 C 0.1023 0.50304 0.94511 0.0
C1095 C 0.12898 0.51229 0.68474 0.0
H1096 H 0.17506 0.54744 0.90653 0.0
H1097 H 0.18039 0.47713 0.90739 0.0
H1098 H 0.13014 0.55211 0.78952 0.0
H1099 H 0.11958 0.55047 0.87962 0.0
H1100 H 0.14431 0.56577 0.86244 0.0
H1101 H 0.15567 0.4549 0.84297 0.0
H1102 H 0.12876 0.46349 0.87123 0.0
H1103 H 0.1372 0.46778 0.77941 0.0
H1104 H 0.06338 0.49965 0.87671 0.0
H1105 H 0.08559 0.5091 0.6581 0.0
H1106 H 0.11088 0.5181 0.96342 0.0
H1107 H 0.11307 0.48892 0.95793 0.0
H1108 H 0.08688 0.50131 0.97659 0.0
H1109 H 0.12305 0.51011 0.62821 0.0
H1110 H 0.14259 0.50061 0.69479 0.0
H1111 H 0.13569 0.52909 0.68982 0.0
C1112 C 1.00182 0.83489 0.48019 0.0
C1113 C 0.98296 0.82254 0.49632 0.0
C1114 C 0.00531 0.85582 0.51064 0.0
C1115 C 0.98935 0.86516 0.55718 0.0
C1116 C 0.97067 0.85258 0.5758 0.0
C1117 C 0.96787 0.83143 0.54615 0.0
C1118 C 0.02594 0.86821 0.49167 0.0
C1119 C 0.9533 0.86167 0.62573 0.0
C1120 C 0.00384 0.91567 0.67175 0.0
C1121 C 0.99697 0.933 0.62685 0.0
C1122 C 1.00156 0.89358 0.65017 0.0
C1123 C 0.99165 0.88851 0.58257 0.0
C1124 C 0.98414 0.90593 0.538 0.0
C1125 C 0.98709 0.92784 0.56018 0.0
C1126 C 0.00972 0.87581 0.70036 0.0
C1127 C 0.9728 0.9014 0.46675 0.0
H1128 H 0.01363 0.82858 0.4417 0.0
H1129 H 0.95356 0.822 0.5614 0.0
H1130 H 0.02176 0.88289 0.45894 0.0
H1131 H 0.03413 0.87402 0.54188 0.0
H1132 H 0.03768 0.85801 0.46038 0.0
H1133 H 0.93895 0.85057 0.63065 0.0
H1134 H 0.96031 0.86427 0.68054 0.0
H1135 H 0.94756 0.87784 0.60567 0.0
H1136 H 0.01137 0.91932 0.72362 0.0
H1137 H 0.98144 0.94098 0.52528 0.0
H1138 H 0.01703 0.86197 0.66971 0.0
H1139 H 0.99576 0.86932 0.73239 0.0
H1140 H 0.02212 0.88218 0.73912 0.0
H1141 H 0.98419 0.89291 0.42926 0.0
H1142 H 0.96691 0.91663 0.44007 0.0
H1143 H 0.9586 0.89035 0.47563 0.0
C1144 C 0.67176 0.99379 0.47849 0.0
C1145 C 0.68409 0.01325 0.48321 0.0
C1146 C 0.65126 0.99169 0.51306 0.0
C1147 C 0.6423 0.00967 0.5517 0.0
C1148 C 0.65484 0.0291 0.55871 0.0
C1149 C 0.67564 0.03047 0.52584 0.0
C1150 C 0.63887 0.97037 0.50628 0.0
C1151 C 0.64592 0.04886 0.59835 0.0
C1152 C 0.57981 0.01222 0.56083 0.0
C1153 C 0.57557 0.00646 0.63311 0.0
C1154 C 0.60139 0.01379 0.53439 0.0
C1155 C 0.61928 0.00866 0.58047 0.0
C1156 C 0.61506 1.00256 0.65344 0.0
C1157 C 0.5933 1.00197 0.67924 0.0
C1158 C 0.60502 0.02118 0.45716 0.0
C1159 C 0.63349 0.99624 0.70388 0.0
H1160 H 0.6777 0.98034 0.44565 0.0
H1161 H 0.68507 0.04536 0.53263 0.0
H1162 H 0.63283 0.96498 0.56019 0.0
H1163 H 0.62436 0.97273 0.47092 0.0
H1164 H 0.64913 0.95711 0.4828 0.0
H1165 H 0.65772 0.06272 0.59929 0.0
H1166 H 0.63059 0.05446 0.57179 0.0
H1167 H 0.64174 0.0445 0.65504 0.0
H1168 H 0.56619 0.016 0.52515 0.0
H1169 H 0.5901 0.99744 0.73511 0.0
H1170 H 0.61295 0.0079 0.42562 0.0
H1171 H 0.61622 0.03552 0.45619 0.0
H1172 H 0.58948 0.02577 0.42965 0.0
H1173 H 0.64333 0.98286 0.67937 0.0
H1174 H 0.62742 0.99072 0.75767 0.0
H1175 H 0.64463 0.01038 0.71214 0.0
C1176 C 0.52637 0.66819 0.50122 0.0
C1177 C 0.50701 0.68071 0.50244 0.0
C1178 C 0.52719 0.64694 0.53135 0.0
C1179 C 0.5081 0.63759 0.56232 0.0
C1180 C 0.48875 0.65037 0.56619 0.0
C1181 C 0.48852 0.67175 0.53719 0.0
C1182 C 0.54835 0.6342 0.5279 0.0
C1183 C 0.46802 0.64116 0.59884 0.0
C1184 C 0.50319 0.57513 0.55872 0.0
C1185 C 0.5073 0.56939 0.6312 0.0
C1186 C 0.50321 0.59718 0.53605 0.0
C1187 C 0.50795 0.61407 0.58656 0.0
C1188 C 0.51227 0.60837 0.6598 0.0
C1189 C 0.5117 0.58617 0.68132 0.0
C1190 C 0.49787 0.60242 0.45797 0.0
C1191 C 0.51802 0.62564 0.71523 0.0
H1192 H 0.54076 0.67458 0.4742 0.0
H1193 H 0.4736 0.6813 0.54066 0.0
H1194 H 0.55246 0.6275 0.5822 0.0
H1195 H 0.54645 0.62008 0.49051 0.0
H1196 H 0.56225 0.64443 0.50872 0.0
H1197 H 0.45448 0.65333 0.59951 0.0
H1198 H 0.46263 0.62663 0.56732 0.0
H1199 H 0.47112 0.63559 0.65519 0.0
H1200 H 0.49952 0.56236 0.51968 0.0
H1201 H 0.51505 0.58193 0.73733 0.0
H1202 H 0.5119 0.61094 0.43216 0.0
H1203 H 0.48362 0.6137 0.45549 0.0
H1204 H 0.494 0.58751 0.42584 0.0
H1205 H 0.5172 0.6192 0.77153 0.0
H1206 H 0.50698 0.64001 0.71072 0.0
H1207 H 0.53494 0.63154 0.70497 0.0
C1208 C 0.84095 0.47474 0.4807 0.0
C1209 C 0.82882 0.49351 0.46124 0.0
C1210 C 0.86179 0.47634 0.5132 0.0
C1211 C 0.87062 0.49722 0.5299 0.0
C1212 C 0.85786 0.51615 0.51562 0.0
C1213 C 0.83739 0.51413 0.48061 0.0
C1214 C 0.87485 0.45568 0.52629 0.0
C1215 C 0.86617 0.5387 0.53517 0.0
C1216 C 0.92054 0.49954 0.65602 0.0
C1217 C 0.93774 0.50321 0.60691 0.0
C1218 C 0.89863 0.49791 0.63224 0.0
C1219 C 0.89375 0.49934 0.55712 0.0
C1220 C 0.91114 0.50269 0.50729 0.0
C1221 C 0.9328 0.50487 0.53278 0.0
C1222 C 0.88077 0.49459 0.68768 0.0
C1223 C 0.90694 0.5036 0.42663 0.0
H1224 H 0.83443 0.45861 0.46902 0.0
H1225 H 0.82856 0.52888 0.46612 0.0
H1226 H 0.89014 0.45617 0.49379 0.0
H1227 H 0.87972 0.45453 0.58406 0.0
H1228 H 0.86558 0.44065 0.51155 0.0
H1229 H 0.85336 0.55148 0.52864 0.0
H1230 H 0.87206 0.53891 0.59214 0.0
H1231 H 0.88027 0.543 0.5 0.0
H1232 H 0.92416 0.49812 0.7134 0.0
H1233 H 0.94596 0.50739 0.49425 0.0
H1234 H 0.87427 0.47768 0.68335 0.0
H1235 H 0.86698 0.50605 0.67747 0.0
H1236 H 0.88675 0.49703 0.74401 0.0
H1237 H 0.89846 0.48843 0.40879 0.0
H1238 H 0.92229 0.50541 0.39482 0.0
H1239 H 0.89601 0.5176 0.41373 0.0
loop_
_geom_bond_atom_site_label_1
_geom_bond_atom_site_label_2
_geom_bond_distance
_geom_bond_site_symmetry_2
_ccdc_geom_bond_type
C0 C1 1.386 . S
C0 C2 1.397 . S
C0 H24 0.931 . S
C1 C0 1.386 . S
C1 C5 1.397 . S
C2 C0 1.397 . S
C2 C3 1.384 . S
C2 H25 0.930 . S
C3 C2 1.384 . S
C3 C4 1.377 . S
C3 C6 1.481 . S
C4 C3 1.377 . S
C4 C5 1.389 . S
C4 H26 0.929 . S
C5 C1 1.397 . S
C5 C4 1.389 . S
C5 H27 0.931 . S
C6 C3 1.481 . S
C6 C7 1.387 . S
C6 C11 1.390 . S
C7 C6 1.387 . S
C7 C8 1.401 . S
C7 H28 0.930 . S
C8 C7 1.401 . S
C8 C9 1.376 . S
C8 C17 1.511 . S
C9 C8 1.376 . S
C9 C10 1.392 . S
C9 H30 0.931 . S
C10 C9 1.392 . S
C10 C11 1.361 . S
C10 C12 1.500 . S
C11 C6 1.390 . S
C11 C10 1.361 . S
C11 H29 0.931 . S
C12 C10 1.500 . S
C12 C13 1.371 . S
C12 C14 1.365 . S
C13 C12 1.371 . S
C13 C23 1.386 . S
C13 H31 0.931 . S
C14 C12 1.365 . S
C14 C15 1.409 . S
C14 H32 0.929 . S
C15 C14 1.409 . S
C15 C16 1.380 . S
C15 H33 0.930 . S
C16 C15 1.380 . S
C16 C23 1.357 . S
C17 C8 1.511 . S
C17 C18 1.341 . S
C17 C19 1.371 . S
C18 C17 1.341 . S
C18 C22 1.394 . S
C18 H34 0.930 . S
C19 C17 1.371 . S
C19 C20 1.392 . S
C19 H35 0.931 . S
C20 C19 1.392 . S
C20 C21 1.331 . S
C20 H38 0.932 . S
C21 C20 1.331 . S
C21 C22 1.336 . S
C22 C18 1.394 . S
C22 C21 1.336 . S
C22 H37 0.929 . S
C23 C13 1.386 . S
C23 C16 1.357 . S
C23 H36 0.928 . S
H24 C0 0.931 . S
H25 C2 0.930 . S
H26 C4 0.929 . S
H27 C5 0.931 . S
H28 C7 0.930 . S
H29 C11 0.931 . S
H30 C9 0.931 . S
H31 C13 0.931 . S
H32 C14 0.929 . S
H33 C15 0.930 . S
H34 C18 0.930 . S
H35 C19 0.931 . S
H36 C23 0.928 . S
H37 C22 0.929 . S
H38 C20 0.932 . S
C39 C40 1.394 . S
C39 C41 1.397 . S
C39 H63 0.931 . S
C40 C39 1.394 . S
C40 C44 1.389 1_655 S
C41 C39 1.397 . S
C41 C42 1.389 . S
C41 H64 0.930 . S
C42 C41 1.389 . S
C42 C43 1.372 1_655 S
C42 C45 1.480 . S
C43 C42 1.372 1_455 S
C43 C44 1.389 . S
C43 H65 0.929 . S
C44 C40 1.389 1_455 S
C44 C43 1.389 . S
C44 H66 0.931 . S
C45 C42 1.480 . S
C45 C46 1.388 . S
C45 C50 1.390 . S
C46 C45 1.388 . S
C46 C47 1.402 . S
C46 H67 0.930 . S
C47 C46 1.402 . S
C47 C48 1.376 . S
C47 C56 1.513 . S
C48 C47 1.376 . S
C48 C49 1.392 . S
C48 H69 0.934 . S
C49 C48 1.392 . S
C49 C50 1.361 . S
C49 C51 1.499 1_655 S
C50 C45 1.390 . S
C50 C49 1.361 . S
C50 H68 0.931 . S
C51 C49 1.499 1_455 S
C51 C52 1.362 1_455 S
C51 C53 1.374 . S
C52 C51 1.362 1_655 S
C52 C62 1.386 . S
C52 H70 0.931 . S
C53 C51 1.374 . S
C53 C54 1.409 . S
C53 H71 0.929 . S
C54 C53 1.409 . S
C54 C55 1.379 . S
C54 H72 0.930 . S
C55 C54 1.379 . S
C55 C62 1.359 1_455 S
C56 C47 1.513 . S
C56 C57 1.341 . S
C56 C58 1.371 1_655 S
C57 C56 1.341 . S
C57 C61 1.394 . S
C57 H73 0.930 . S
C58 C56 1.371 1_455 S
C58 C59 1.392 . S
C58 H74 0.931 . S
C59 C58 1.392 . S
C59 C60 1.322 1_455 S
C59 H77 0.932 . S
C60 C59 1.322 1_655 S
C60 C61 1.345 . S
C61 C57 1.394 . S
C61 C60 1.345 . S
C61 H76 0.929 . S
C62 C52 1.386 . S
C62 C55 1.359 1_655 S
C62 H75 0.928 . S
H63 C39 0.931 . S
H64 C41 0.930 . S
H65 C43 0.929 . S
H66 C44 0.931 . S
H67 C46 0.930 . S
H68 C50 0.931 . S
H69 C48 0.934 . S
H70 C52 0.931 . S
H71 C53 0.929 . S
H72 C54 0.930 . S
H73 C57 0.930 . S
H74 C58 0.931 . S
H75 C62 0.928 . S
H76 C61 0.929 . S
H77 C59 0.932 . S
C78 C79 1.394 . S
C78 C80 1.397 . S
C78 H102 0.931 . S
C79 C78 1.394 . S
C79 C83 1.389 1_565 S
C80 C78 1.397 . S
C80 C81 1.389 . S
C80 H103 0.930 . S
C81 C80 1.389 . S
C81 C82 1.373 1_565 S
C81 C84 1.480 . S
C82 C81 1.373 1_545 S
C82 C83 1.389 . S
C82 H104 0.929 . S
C83 C79 1.389 1_545 S
C83 C82 1.389 . S
C83 H105 0.931 . S
C84 C81 1.480 . S
C84 C85 1.388 . S
C84 C89 1.390 . S
C85 C84 1.388 . S
C85 C86 1.402 . S
C85 H106 0.930 . S
C86 C85 1.402 . S
C86 C87 1.376 . S
C86 C95 1.513 . S
C87 C86 1.376 . S
C87 C88 1.392 . S
C87 H108 0.934 . S
C88 C87 1.392 . S
C88 C89 1.361 . S
C88 C90 1.499 1_565 S
C89 C84 1.390 . S
C89 C88 1.361 . S
C89 H107 0.931 . S
C90 C88 1.499 1_545 S
C90 C91 1.362 1_545 S
C90 C92 1.374 . S
C91 C90 1.362 1_565 S
C91 C101 1.386 . S
C91 H109 0.931 . S
C92 C90 1.374 . S
C92 C93 1.409 . S
C92 H110 0.929 . S
C93 C92 1.409 . S
C93 C94 1.379 . S
C93 H111 0.930 . S
C94 C93 1.379 . S
C94 C101 1.359 1_545 S
C95 C86 1.513 . S
C95 C96 1.341 . S
C95 C97 1.371 1_565 S
C96 C95 1.341 . S
C96 C100 1.394 . S
C96 H112 0.930 . S
C97 C95 1.371 1_545 S
C97 C98 1.392 . S
C97 H113 0.931 . S
C98 C97 1.392 . S
C98 C99 1.322 1_545 S
C98 H116 0.932 . S
C99 C98 1.322 1_565 S
C99 C100 1.345 . S
C100 C96 1.394 . S
C100 C99 1.345 . S
C100 H115 0.929 . S
C101 C91 1.386 . S
C101 C94 1.359 1_565 S
C101 H114 0.928 . S
H102 C78 0.931 . S
H103 C80 0.930 . S
H104 C82 0.929 . S
H105 C83 0.931 . S
H106 C85 0.930 . S
H107 C89 0.931 . S
H108 C87 0.934 . S
H109 C91 0.931 . S
H110 C92 0.929 . S
H111 C93 0.930 . S
H112 C96 0.930 . S
H113 C97 0.931 . S
H114 C101 0.928 . S
H115 C100 0.929 . S
H116 C98 0.932 . S
C117 C118 1.386 . S
C117 C119 1.397 . S
C117 H141 0.931 . S
C118 C117 1.386 . S
C118 C122 1.397 . S
C119 C117 1.397 . S
C119 C120 1.384 . S
C119 H142 0.930 . S
C120 C119 1.384 . S
C120 C121 1.377 . S
C120 C123 1.481 . S
C121 C120 1.377 . S
C121 C122 1.389 . S
C121 H143 0.929 . S
C122 C118 1.397 . S
C122 C121 1.389 . S
C122 H144 0.931 . S
C123 C120 1.481 . S
C123 C124 1.387 . S
C123 C128 1.390 . S
C124 C123 1.387 . S
C124 C125 1.401 . S
C124 H145 0.930 . S
C125 C124 1.401 . S
C125 C126 1.376 . S
C125 C134 1.511 . S
C126 C125 1.376 . S
C126 C127 1.392 . S
C126 H147 0.931 . S
C127 C126 1.392 . S
C127 C128 1.361 . S
C127 C129 1.500 . S
C128 C123 1.390 . S
C128 C127 1.361 . S
C128 H146 0.931 . S
C129 C127 1.500 . S
C129 C130 1.371 . S
C129 C131 1.365 . S
C130 C129 1.371 . S
C130 C140 1.386 . S
C130 H148 0.931 . S
C131 C129 1.365 . S
C131 C132 1.409 . S
C131 H149 0.929 . S
C132 C131 1.409 . S
C132 C133 1.380 . S
C132 H150 0.930 . S
C133 C132 1.380 . S
C133 C140 1.357 . S
C134 C125 1.511 . S
C134 C135 1.341 . S
C134 C136 1.371 . S
C135 C134 1.341 . S
C135 C139 1.394 . S
C135 H151 0.930 . S
C136 C134 1.371 . S
C136 C137 1.392 . S
C136 H152 0.931 . S
C137 C136 1.392 . S
C137 C138 1.331 . S
C137 H155 0.932 . S
C138 C137 1.331 . S
C138 C139 1.336 . S
C139 C135 1.394 . S
C139 C138 1.336 . S
C139 H154 0.929 . S
C140 C130 1.386 . S
C140 C133 1.357 . S
C140 H153 0.928 . S
H141 C117 0.931 . S
H142 C119 0.930 . S
H143 C121 0.929 . S
H144 C122 0.931 . S
H145 C124 0.930 . S
H146 C128 0.931 . S
H147 C126 0.931 . S
H148 C130 0.931 . S
H149 C131 0.929 . S
H150 C132 0.930 . S
H151 C135 0.930 . S
H152 C136 0.931 . S
H153 C140 0.928 . S
H154 C139 0.929 . S
H155 C137 0.932 . S
C156 C157 1.386 . S
C156 C158 1.397 . S
C156 H180 0.931 . S
C157 C156 1.386 . S
C157 C161 1.397 . S
C158 C156 1.397 . S
C158 C159 1.384 . S
C158 H181 0.930 . S
C159 C158 1.384 . S
C159 C160 1.377 . S
C159 C162 1.481 . S
C160 C159 1.377 . S
C160 C161 1.389 . S
C160 H182 0.929 . S
C161 C157 1.397 . S
C161 C160 1.389 . S
C161 H183 0.931 . S
C162 C159 1.481 . S
C162 C163 1.387 . S
C162 C167 1.390 . S
C163 C162 1.387 . S
C163 C164 1.401 . S
C163 H184 0.930 . S
C164 C163 1.401 . S
C164 C165 1.376 1_554 S
C164 C173 1.511 . S
C165 C164 1.376 1_556 S
C165 C166 1.392 . S
C165 H186 0.931 . S
C166 C165 1.392 . S
C166 C167 1.361 1_556 S
C166 C168 1.500 . S
C167 C162 1.390 . S
C167 C166 1.361 1_554 S
C167 H185 0.931 . S
C168 C166 1.500 . S
C168 C169 1.371 . S
C168 C170 1.365 . S
C169 C168 1.371 . S
C169 C179 1.386 . S
C169 H187 0.931 . S
C170 C168 1.365 . S
C170 C171 1.409 . S
C170 H188 0.929 . S
C171 C170 1.409 . S
C171 C172 1.380 . S
C171 H189 0.930 . S
C172 C171 1.380 . S
C172 C179 1.357 . S
C173 C164 1.511 . S
C173 C174 1.341 . S
C173 C175 1.371 . S
C174 C173 1.341 . S
C174 C178 1.394 . S
C174 H190 0.930 . S
C175 C173 1.371 . S
C175 C176 1.392 . S
C175 H191 0.931 1_554 S
C176 C175 1.392 . S
C176 C177 1.331 . S
C176 H194 0.932 . S
C177 C176 1.331 . S
C177 C178 1.336 . S
C178 C174 1.394 . S
C178 C177 1.336 . S
C178 H193 0.929 . S
C179 C169 1.386 . S
C179 C172 1.357 . S
C179 H192 0.928 . S
H180 C156 0.931 . S
H181 C158 0.930 . S
H182 C160 0.929 . S
H183 C161 0.931 . S
H184 C163 0.930 . S
H185 C167 0.931 . S
H186 C165 0.931 . S
H187 C169 0.931 . S
H188 C170 0.929 . S
H189 C171 0.930 . S
H190 C174 0.930 . S
H191 C175 0.931 1_556 S
H192 C179 0.928 . S
H193 C178 0.929 . S
H194 C176 0.932 . S
C195 C196 1.387 . S
C195 C197 1.397 . S
C195 H219 0.931 . S
C196 C195 1.387 . S
C196 C200 1.396 1_655 S
C197 C195 1.397 . S
C197 C198 1.381 . S
C197 H220 0.930 . S
C198 C197 1.381 . S
C198 C199 1.380 1_655 S
C198 C201 1.480 . S
C199 C198 1.380 1_455 S
C199 C200 1.389 . S
C199 H221 0.929 . S
C200 C196 1.396 1_455 S
C200 C199 1.389 . S
C200 H222 0.931 . S
C201 C198 1.480 . S
C201 C202 1.388 . S
C201 C206 1.390 . S
C202 C201 1.388 . S
C202 C203 1.402 . S
C202 H223 0.930 . S
C203 C202 1.402 . S
C203 C204 1.376 1_554 S
C203 C212 1.512 . S
C204 C203 1.376 1_556 S
C204 C205 1.392 1_655 S
C204 H225 0.933 . S
C205 C204 1.392 1_455 S
C205 C206 1.361 1_456 S
C205 C207 1.499 . S
C206 C201 1.390 . S
C206 C205 1.361 1_654 S
C206 H224 0.931 . S
C207 C205 1.499 . S
C207 C208 1.357 1_455 S
C207 C209 1.380 . S
C208 C207 1.357 1_655 S
C208 C218 1.386 . S
C208 H226 0.931 . S
C209 C207 1.380 . S
C209 C210 1.409 . S
C209 H227 0.929 . S
C210 C209 1.409 . S
C210 C211 1.384 . S
C210 H228 0.930 . S
C211 C210 1.384 . S
C211 C218 1.353 1_455 S
C212 C203 1.512 . S
C212 C213 1.341 . S
C212 C214 1.371 1_655 S
C213 C212 1.341 . S
C213 C217 1.394 . S
C213 H229 0.930 . S
C214 C212 1.371 1_455 S
C214 C215 1.392 . S
C214 H230 0.931 1_554 S
C215 C214 1.392 . S
C215 C216 1.326 1_455 S
C215 H233 0.932 . S
C216 C215 1.326 1_655 S
C216 C217 1.341 . S
C217 C213 1.394 . S
C217 C216 1.341 . S
C217 H232 0.929 . S
C218 C208 1.386 . S
C218 C211 1.353 1_655 S
C218 H231 0.928 . S
H219 C195 0.931 . S
H220 C197 0.930 . S
H221 C199 0.929 . S
H222 C200 0.931 . S
H223 C202 0.930 . S
H224 C206 0.931 . S
H225 C204 0.933 . S
H226 C208 0.931 . S
H227 C209 0.929 . S
H228 C210 0.930 . S
H229 C213 0.930 . S
H230 C214 0.931 1_556 S
H231 C218 0.928 . S
H232 C217 0.929 . S
H233 C215 0.932 . S
C234 C235 1.387 . S
C234 C236 1.397 . S
C234 H258 0.931 . S
C235 C234 1.387 . S
C235 C239 1.396 1_565 S
C236 C234 1.397 . S
C236 C237 1.381 . S
C236 H259 0.930 . S
C237 C236 1.381 . S
C237 C238 1.380 1_565 S
C237 C240 1.480 . S
C238 C237 1.380 1_545 S
C238 C239 1.389 . S
C238 H260 0.929 . S
C239 C235 1.396 1_545 S
C239 C238 1.389 . S
C239 H261 0.931 . S
C240 C237 1.480 . S
C240 C241 1.388 . S
C240 C245 1.390 . S
C241 C240 1.388 . S
C241 C242 1.402 . S
C241 H262 0.930 . S
C242 C241 1.402 . S
C242 C243 1.376 1_554 S
C242 C251 1.512 . S
C243 C242 1.376 1_556 S
C243 C244 1.392 1_565 S
C243 H264 0.933 . S
C244 C243 1.392 1_545 S
C244 C245 1.361 1_546 S
C244 C246 1.499 . S
C245 C240 1.390 . S
C245 C244 1.361 1_564 S
C245 H263 0.931 . S
C246 C244 1.499 . S
C246 C247 1.357 1_545 S
C246 C248 1.380 . S
C247 C246 1.357 1_565 S
C247 C257 1.386 . S
C247 H265 0.931 . S
C248 C246 1.380 . S
C248 C249 1.409 . S
C248 H266 0.929 . S
C249 C248 1.409 . S
C249 C250 1.384 . S
C249 H267 0.930 . S
C250 C249 1.384 . S
C250 C257 1.353 1_545 S
C251 C242 1.512 . S
C251 C252 1.341 . S
C251 C253 1.371 1_565 S
C252 C251 1.341 . S
C252 C256 1.394 . S
C252 H268 0.930 . S
C253 C251 1.371 1_545 S
C253 C254 1.392 . S
C253 H269 0.931 1_554 S
C254 C253 1.392 . S
C254 C255 1.326 1_545 S
C254 H272 0.932 . S
C255 C254 1.326 1_565 S
C255 C256 1.341 . S
C256 C252 1.394 . S
C256 C255 1.341 . S
C256 H271 0.929 . S
C257 C247 1.386 . S
C257 C250 1.353 1_565 S
C257 H270 0.928 . S
H258 C234 0.931 . S
H259 C236 0.930 . S
H260 C238 0.929 . S
H261 C239 0.931 . S
H262 C241 0.930 . S
H263 C245 0.931 . S
H264 C243 0.933 . S
H265 C247 0.931 . S
H266 C248 0.929 . S
H267 C249 0.930 . S
H268 C252 0.930 . S
H269 C253 0.931 1_556 S
H270 C257 0.928 . S
H271 C256 0.929 . S
H272 C254 0.932 . S
C273 C274 1.386 . S
C273 C275 1.397 . S
C273 H297 0.931 . S
C274 C273 1.386 . S
C274 C278 1.397 . S
C275 C273 1.397 . S
C275 C276 1.384 . S
C275 H298 0.930 . S
C276 C275 1.384 . S
C276 C277 1.377 . S
C276 C279 1.481 . S
C277 C276 1.377 . S
C277 C278 1.389 . S
C277 H299 0.929 . S
C278 C274 1.397 . S
C278 C277 1.389 . S
C278 H300 0.931 . S
C279 C276 1.481 . S
C279 C280 1.387 . S
C279 C284 1.390 1_556 S
C280 C279 1.387 . S
C280 C281 1.401 1_556 S
C280 H301 0.930 . S
C281 C280 1.401 1_554 S
C281 C282 1.376 . S
C281 C290 1.511 . S
C282 C281 1.376 . S
C282 C283 1.392 . S
C282 H303 0.931 . S
C283 C282 1.392 . S
C283 C284 1.361 . S
C283 C285 1.500 . S
C284 C279 1.390 1_554 S
C284 C283 1.361 . S
C284 H302 0.931 . S
C285 C283 1.500 . S
C285 C286 1.371 . S
C285 C287 1.365 . S
C286 C285 1.371 . S
C286 C296 1.386 . S
C286 H304 0.931 . S
C287 C285 1.365 . S
C287 C288 1.409 . S
C287 H305 0.929 . S
C288 C287 1.409 . S
C288 C289 1.380 . S
C288 H306 0.930 . S
C289 C288 1.380 . S
C289 C296 1.357 . S
C290 C281 1.511 . S
C290 C291 1.341 . S
C290 C292 1.371 . S
C291 C290 1.341 . S
C291 C295 1.394 . S
C291 H307 0.930 1_554 S
C292 C290 1.371 . S
C292 C293 1.392 . S
C292 H308 0.931 . S
C293 C292 1.392 . S
C293 C294 1.331 . S
C293 H311 0.932 . S
C294 C293 1.331 . S
C294 C295 1.336 . S
C295 C291 1.394 . S
C295 C294 1.336 . S
C295 H310 0.929 . S
C296 C286 1.386 . S
C296 C289 1.357 . S
C296 H309 0.928 . S
H297 C273 0.931 . S
H298 C275 0.930 . S
H299 C277 0.929 . S
H300 C278 0.931 . S
H301 C280 0.930 . S
H302 C284 0.931 . S
H303 C282 0.931 . S
H304 C286 0.931 . S
H305 C287 0.929 . S
H306 C288 0.930 . S
H307 C291 0.930 1_556 S
H308 C292 0.931 . S
H309 C296 0.928 . S
H310 C295 0.929 . S
H311 C293 0.932 . S
Ho312 C315 2.811 . S
Ho312 O332 2.322 . S
Ho312 O334 2.378 . S
Ho312 O335 2.524 . S
Ho312 O336 2.381 . S
Ho312 O337 2.669 1_565 S
Ho312 O339 2.346 1_565 S
Ho312 O343 2.305 1_455 S
Ho313 C324 2.811 . S
Ho313 O333 2.346 1_545 S
Ho313 O337 2.305 1_655 S
Ho313 O338 2.322 . S
Ho313 O340 2.378 . S
Ho313 O341 2.524 . S
Ho313 O342 2.381 . S
Ho313 O343 2.669 1_545 S
C314 O332 1.259 1_655 S
C314 O333 1.268 . S
C315 Ho312 2.811 . S
C315 C316 1.488 . S
C315 O334 1.215 . S
C315 O335 1.289 . S
C316 C315 1.488 . S
C316 C317 1.348 . S
C316 C321 1.413 . S
C317 C316 1.348 . S
C317 C318 1.442 . S
C317 H344 0.930 1_455 S
C318 C317 1.442 . S
C318 C319 1.381 . S
C318 H345 0.931 1_455 S
C319 C318 1.381 . S
C319 C320 1.321 . S
C320 C319 1.321 . S
C320 C321 1.403 . S
C320 H346 0.934 . S
C321 C316 1.413 . S
C321 C320 1.403 . S
C321 H347 0.930 . S
C322 O336 1.295 . S
C322 O337 1.245 1_565 S
C323 O338 1.259 1_455 S
C323 O339 1.268 . S
C324 Ho313 2.811 . S
C324 C325 1.488 . S
C324 O340 1.215 . S
C324 O341 1.289 . S
C325 C324 1.488 . S
C325 C326 1.348 . S
C325 C330 1.413 . S
C326 C325 1.348 . S
C326 C327 1.442 . S
C326 H348 0.930 1_655 S
C327 C326 1.442 . S
C327 C328 1.381 . S
C327 H349 0.931 1_655 S
C328 C327 1.381 . S
C328 C329 1.321 . S
C329 C328 1.321 . S
C329 C330 1.403 . S
C329 H350 0.934 . S
C330 C325 1.413 . S
C330 C329 1.403 . S
C330 H351 0.930 . S
C331 O342 1.302 . S
C331 O343 1.241 1_545 S
O332 Ho312 2.322 . S
O332 C314 1.259 1_455 S
O333 Ho313 2.346 1_565 S
O333 C314 1.268 . S
O334 Ho312 2.378 . S
O334 C315 1.215 . S
O335 Ho312 2.524 . S
O335 C315 1.289 . S
O336 Ho312 2.381 . S
O336 C322 1.295 . S
O337 Ho312 2.669 1_545 S
O337 Ho313 2.305 1_455 S
O337 C322 1.245 1_545 S
O338 Ho313 2.322 . S
O338 C323 1.259 1_655 S
O339 Ho312 2.346 1_545 S
O339 C323 1.268 . S
O340 Ho313 2.378 . S
O340 C324 1.215 . S
O341 Ho313 2.524 . S
O341 C324 1.289 . S
O342 Ho313 2.381 . S
O342 C331 1.302 . S
O343 Ho312 2.305 1_655 S
O343 Ho313 2.669 1_565 S
O343 C331 1.241 1_565 S
H344 C317 0.930 1_655 S
H345 C318 0.931 1_655 S
H346 C320 0.934 . S
H347 C321 0.930 . S
H348 C326 0.930 1_455 S
H349 C327 0.931 1_455 S
H350 C329 0.934 . S
H351 C330 0.930 . S
Ho352 C355 2.811 . S
Ho352 O372 2.322 . S
Ho352 O374 2.378 . S
Ho352 O375 2.524 . S
Ho352 O376 2.381 . S
Ho352 O377 2.669 . S
Ho352 O379 2.346 . S
Ho352 O383 2.305 1_545 S
Ho353 C364 2.811 . S
Ho353 O373 2.346 . S
Ho353 O377 2.305 1_565 S
Ho353 O378 2.322 . S
Ho353 O380 2.378 . S
Ho353 O381 2.524 . S
Ho353 O382 2.381 . S
Ho353 O383 2.669 . S
C354 O372 1.259 1_565 S
C354 O373 1.268 . S
C355 Ho352 2.811 . S
C355 C356 1.488 . S
C355 O374 1.215 . S
C355 O375 1.289 . S
C356 C355 1.488 . S
C356 C357 1.348 . S
C356 C361 1.413 . S
C357 C356 1.348 . S
C357 C358 1.442 . S
C357 H384 0.930 1_545 S
C358 C357 1.442 . S
C358 C359 1.381 . S
C358 H385 0.931 1_545 S
C359 C358 1.381 . S
C359 C360 1.321 . S
C360 C359 1.321 . S
C360 C361 1.403 . S
C360 H386 0.934 . S
C361 C356 1.413 . S
C361 C360 1.403 . S
C361 H387 0.930 . S
C362 O376 1.275 . S
C362 O377 1.256 . S
C363 O378 1.259 1_545 S
C363 O379 1.268 . S
C364 Ho353 2.811 . S
C364 C365 1.488 . S
C364 O380 1.215 . S
C364 O381 1.289 . S
C365 C364 1.488 . S
C365 C366 1.348 . S
C365 C370 1.413 . S
C366 C365 1.348 . S
C366 C367 1.442 . S
C366 H388 0.930 1_565 S
C367 C366 1.442 . S
C367 C368 1.381 . S
C367 H389 0.931 1_565 S
C368 C367 1.381 . S
C368 C369 1.321 . S
C369 C368 1.321 . S
C369 C370 1.403 . S
C369 H390 0.934 . S
C370 C365 1.413 . S
C370 C369 1.403 . S
C370 H391 0.930 . S
C371 O382 1.275 . S
C371 O383 1.256 . S
O372 Ho352 2.322 . S
O372 C354 1.259 1_545 S
O373 Ho353 2.346 . S
O373 C354 1.268 . S
O374 Ho352 2.378 . S
O374 C355 1.215 . S
O375 Ho352 2.524 . S
O375 C355 1.289 . S
O376 Ho352 2.381 . S
O376 C362 1.275 . S
O377 Ho352 2.669 . S
O377 Ho353 2.305 1_545 S
O377 C362 1.256 . S
O378 Ho353 2.322 . S
O378 C363 1.259 1_565 S
O379 Ho352 2.346 . S
O379 C363 1.268 . S
O380 Ho353 2.378 . S
O380 C364 1.215 . S
O381 Ho353 2.524 . S
O381 C364 1.289 . S
O382 Ho353 2.381 . S
O382 C371 1.275 . S
O383 Ho352 2.305 1_565 S
O383 Ho353 2.669 . S
O383 C371 1.256 . S
H384 C357 0.930 1_565 S
H385 C358 0.931 1_565 S
H386 C360 0.934 . S
H387 C361 0.930 . S
H388 C366 0.930 1_545 S
H389 C367 0.931 1_545 S
H390 C369 0.934 . S
H391 C370 0.930 . S
Ho392 C395 2.811 . S
Ho392 O412 2.322 . S
Ho392 O414 2.378 . S
Ho392 O415 2.524 . S
Ho392 O416 2.381 . S
Ho392 O417 2.669 . S
Ho392 O419 2.346 . S
Ho392 O423 2.305 . S
Ho393 C404 2.811 . S
Ho393 O413 2.346 . S
Ho393 O417 2.305 . S
Ho393 O418 2.322 . S
Ho393 O420 2.378 . S
Ho393 O421 2.524 . S
Ho393 O422 2.381 . S
Ho393 O423 2.669 . S
C394 O412 1.259 . S
C394 O413 1.268 . S
C395 Ho392 2.811 . S
C395 C396 1.488 . S
C395 O414 1.215 . S
C395 O415 1.289 . S
C396 C395 1.488 . S
C396 C397 1.348 . S
C396 C401 1.413 . S
C397 C396 1.348 . S
C397 C398 1.442 . S
C397 H424 0.930 . S
C398 C397 1.442 . S
C398 C399 1.381 . S
C398 H425 0.931 . S
C399 C398 1.381 . S
C399 C400 1.321 . S
C400 C399 1.321 . S
C400 C401 1.403 . S
C400 H426 0.934 . S
C401 C396 1.413 . S
C401 C400 1.403 . S
C401 H427 0.930 . S
C402 O416 1.275 . S
C402 O417 1.256 . S
C403 O418 1.259 . S
C403 O419 1.268 . S
C404 Ho393 2.811 . S
C404 C405 1.488 . S
C404 O420 1.215 . S
C404 O421 1.289 . S
C405 C404 1.488 . S
C405 C406 1.348 . S
C405 C410 1.413 . S
C406 C405 1.348 . S
C406 C407 1.442 . S
C406 H428 0.930 . S
C407 C406 1.442 . S
C407 C408 1.381 . S
C407 H429 0.931 . S
C408 C407 1.381 . S
C408 C409 1.321 . S
C409 C408 1.321 . S
C409 C410 1.403 . S
C409 H430 0.934 . S
C410 C405 1.413 . S
C410 C409 1.403 . S
C410 H431 0.930 . S
C411 O422 1.275 . S
C411 O423 1.256 . S
O412 Ho392 2.322 . S
O412 C394 1.259 . S
O413 Ho393 2.346 . S
O413 C394 1.268 . S
O414 Ho392 2.378 . S
O414 C395 1.215 . S
O415 Ho392 2.524 . S
O415 C395 1.289 . S
O416 Ho392 2.381 . S
O416 C402 1.275 . S
O417 Ho392 2.669 . S
O417 Ho393 2.305 . S
O417 C402 1.256 . S
O418 Ho393 2.322 . S
O418 C403 1.259 . S
O419 Ho392 2.346 . S
O419 C403 1.268 . S
O420 Ho393 2.378 . S
O420 C404 1.215 . S
O421 Ho393 2.524 . S
O421 C404 1.289 . S
O422 Ho393 2.381 . S
O422 C411 1.275 . S
O423 Ho392 2.305 . S
O423 Ho393 2.669 . S
O423 C411 1.256 . S
H424 C397 0.930 . S
H425 C398 0.931 . S
H426 C400 0.934 . S
H427 C401 0.930 . S
H428 C406 0.930 . S
H429 C407 0.931 . S
H430 C409 0.934 . S
H431 C410 0.930 . S
Ho432 C435 2.811 . S
Ho432 O452 2.322 . S
Ho432 O454 2.378 . S
Ho432 O455 2.524 . S
Ho432 O456 2.381 . S
Ho432 O457 2.669 1_655 S
Ho432 O459 2.346 1_655 S
Ho432 O463 2.305 . S
Ho433 C444 2.811 . S
Ho433 O453 2.346 1_455 S
Ho433 O457 2.305 . S
Ho433 O458 2.322 . S
Ho433 O460 2.378 . S
Ho433 O461 2.524 . S
Ho433 O462 2.381 . S
Ho433 O463 2.669 1_455 S
C434 O452 1.259 . S
C434 O453 1.268 . S
C435 Ho432 2.811 . S
C435 C436 1.488 . S
C435 O454 1.215 . S
C435 O455 1.289 . S
C436 C435 1.488 . S
C436 C437 1.348 . S
C436 C441 1.413 . S
C437 C436 1.348 . S
C437 C438 1.442 . S
C437 H464 0.930 . S
C438 C437 1.442 . S
C438 C439 1.381 . S
C438 H465 0.931 . S
C439 C438 1.381 . S
C439 C440 1.321 . S
C440 C439 1.321 . S
C440 C441 1.403 . S
C440 H466 0.934 . S
C441 C436 1.413 . S
C441 C440 1.403 . S
C441 H467 0.930 . S
C442 O456 1.292 . S
C442 O457 1.246 1_655 S
C443 O458 1.259 . S
C443 O459 1.268 . S
C444 Ho433 2.811 . S
C444 C445 1.488 . S
C444 O460 1.215 . S
C444 O461 1.289 . S
C445 C444 1.488 . S
C445 C446 1.348 . S
C445 C450 1.413 . S
C446 C445 1.348 . S
C446 C447 1.442 . S
C446 H468 0.930 . S
C447 C446 1.442 . S
C447 C448 1.381 . S
C447 H469 0.931 . S
C448 C447 1.381 . S
C448 C449 1.321 . S
C449 C448 1.321 . S
C449 C450 1.403 . S
C449 H470 0.934 . S
C450 C445 1.413 . S
C450 C449 1.403 . S
C450 H471 0.930 . S
C451 O462 1.299 . S
C451 O463 1.243 1_455 S
O452 Ho432 2.322 . S
O452 C434 1.259 . S
O453 Ho433 2.346 1_655 S
O453 C434 1.268 . S
O454 Ho432 2.378 . S
O454 C435 1.215 . S
O455 Ho432 2.524 . S
O455 C435 1.289 . S
O456 Ho432 2.381 . S
O456 C442 1.292 . S
O457 Ho432 2.669 1_455 S
O457 Ho433 2.305 . S
O457 C442 1.246 1_455 S
O458 Ho433 2.322 . S
O458 C443 1.259 . S
O459 Ho432 2.346 1_455 S
O459 C443 1.268 . S
O460 Ho433 2.378 . S
O460 C444 1.215 . S
O461 Ho433 2.524 . S
O461 C444 1.289 . S
O462 Ho433 2.381 . S
O462 C451 1.299 . S
O463 Ho432 2.305 . S
O463 Ho433 2.669 1_655 S
O463 C451 1.243 1_655 S
H464 C437 0.930 . S
H465 C438 0.931 . S
H466 C440 0.934 . S
H467 C441 0.930 . S
H468 C446 0.930 . S
H469 C447 0.931 . S
H470 C449 0.934 . S
H471 C450 0.930 . S
C472 C473 1.425 . S
C472 C474 1.394 . S
C472 H488 0.931 . S
C473 C472 1.425 . S
C473 C477 1.346 1_565 S
C474 C472 1.394 . S
C474 C475 1.369 . S
C474 C478 1.531 . S
C475 C474 1.369 . S
C475 C476 1.410 1_565 S
C475 C483 1.503 . S
C476 C475 1.410 1_545 S
C476 C477 1.392 . S
C476 C479 1.511 . S
C477 C473 1.346 1_545 S
C477 C476 1.392 . S
C477 H489 0.929 . S
C478 C474 1.531 . S
C478 H490 0.960 . S
C478 H491 0.962 . S
C478 H492 0.960 . S
C479 C476 1.511 . S
C479 H493 0.961 . S
C479 H494 0.961 . S
C479 H495 0.961 . S
C480 C481 1.370 . S
C480 C482 1.363 . S
C480 H496 0.931 . S
C481 C480 1.370 . S
C481 C485 1.408 1_545 S
C482 C480 1.363 . S
C482 C483 1.370 1_545 S
C482 C486 1.524 . S
C483 C475 1.503 . S
C483 C482 1.370 1_565 S
C483 C484 1.403 . S
C484 C483 1.403 . S
C484 C485 1.404 . S
C484 C487 1.539 . S
C485 C481 1.408 1_565 S
C485 C484 1.404 . S
C485 H497 0.930 . S
C486 C482 1.524 . S
C486 H498 0.956 . S
C486 H499 0.961 . S
C486 H500 0.961 . S
C487 C484 1.539 . S
C487 H501 0.958 . S
C487 H502 0.961 . S
C487 H503 0.960 . S
H488 C472 0.931 . S
H489 C477 0.929 . S
H490 C478 0.960 . S
H491 C478 0.962 . S
H492 C478 0.960 . S
H493 C479 0.961 . S
H494 C479 0.961 . S
H495 C479 0.961 . S
H496 C480 0.931 . S
H497 C485 0.930 . S
H498 C486 0.956 . S
H499 C486 0.961 . S
H500 C486 0.961 . S
H501 C487 0.958 . S
H502 C487 0.961 . S
H503 C487 0.960 . S
C504 C505 1.391 . S
C504 C506 1.394 . S
C504 H520 0.931 . S
C505 C504 1.391 . S
C505 C509 1.376 . S
C506 C504 1.394 . S
C506 C507 1.369 . S
C506 C510 1.531 . S
C507 C506 1.369 . S
C507 C508 1.410 . S
C507 C515 1.503 . S
C508 C507 1.410 . S
C508 C509 1.392 . S
C508 C511 1.511 . S
C509 C505 1.376 . S
C509 C508 1.392 . S
C509 H521 0.929 . S
C510 C506 1.531 . S
C510 H522 0.960 . S
C510 H523 0.962 . S
C510 H524 0.960 . S
C511 C508 1.511 . S
C511 H525 0.961 . S
C511 H526 0.961 . S
C511 H527 0.961 . S
C512 C513 1.370 . S
C512 C514 1.363 . S
C512 H528 0.931 . S
C513 C512 1.370 . S
C513 C517 1.408 . S
C514 C512 1.363 . S
C514 C515 1.370 . S
C514 C518 1.524 . S
C515 C507 1.503 . S
C515 C514 1.370 . S
C515 C516 1.403 . S
C516 C515 1.403 . S
C516 C517 1.404 . S
C516 C519 1.539 . S
C517 C513 1.408 . S
C517 C516 1.404 . S
C517 H529 0.930 . S
C518 C514 1.524 . S
C518 H530 0.956 . S
C518 H531 0.961 . S
C518 H532 0.961 . S
C519 C516 1.539 . S
C519 H533 0.958 . S
C519 H534 0.961 . S
C519 H535 0.960 . S
H520 C504 0.931 . S
H521 C509 0.929 . S
H522 C510 0.960 . S
H523 C510 0.962 . S
H524 C510 0.960 . S
H525 C511 0.961 . S
H526 C511 0.961 . S
H527 C511 0.961 . S
H528 C512 0.931 . S
H529 C517 0.930 . S
H530 C518 0.956 . S
H531 C518 0.961 . S
H532 C518 0.961 . S
H533 C519 0.958 . S
H534 C519 0.961 . S
H535 C519 0.960 . S
C536 C537 1.391 . S
C536 C538 1.394 . S
C536 H552 0.931 . S
C537 C536 1.391 . S
C537 C541 1.376 . S
C538 C536 1.394 . S
C538 C539 1.369 . S
C538 C542 1.531 . S
C539 C538 1.369 . S
C539 C540 1.410 . S
C539 C547 1.503 . S
C540 C539 1.410 . S
C540 C541 1.392 . S
C540 C543 1.511 . S
C541 C537 1.376 . S
C541 C540 1.392 . S
C541 H553 0.929 . S
C542 C538 1.531 . S
C542 H554 0.960 . S
C542 H555 0.962 . S
C542 H556 0.960 . S
C543 C540 1.511 . S
C543 H557 0.961 . S
C543 H558 0.961 . S
C543 H559 0.961 . S
C544 C545 1.370 . S
C544 C546 1.363 . S
C544 H560 0.931 . S
C545 C544 1.370 . S
C545 C549 1.408 . S
C546 C544 1.363 . S
C546 C547 1.370 . S
C546 C550 1.524 . S
C547 C539 1.503 . S
C547 C546 1.370 . S
C547 C548 1.403 . S
C548 C547 1.403 . S
C548 C549 1.404 . S
C548 C551 1.539 . S
C549 C545 1.408 . S
C549 C548 1.404 . S
C549 H561 0.930 . S
C550 C546 1.524 . S
C550 H562 0.956 . S
C550 H563 0.961 . S
C550 H564 0.961 . S
C551 C548 1.539 . S
C551 H565 0.958 . S
C551 H566 0.961 . S
C551 H567 0.960 . S
H552 C536 0.931 . S
H553 C541 0.929 . S
H554 C542 0.960 . S
H555 C542 0.962 . S
H556 C542 0.960 . S
H557 C543 0.961 . S
H558 C543 0.961 . S
H559 C543 0.961 . S
H560 C544 0.931 . S
H561 C549 0.930 . S
H562 C550 0.956 . S
H563 C550 0.961 . S
H564 C550 0.961 . S
H565 C551 0.958 . S
H566 C551 0.961 . S
H567 C551 0.960 . S
C568 C569 1.391 1_455 S
C568 C570 1.394 . S
C568 H584 0.931 . S
C569 C568 1.391 1_655 S
C569 C573 1.376 . S
C570 C568 1.394 . S
C570 C571 1.369 1_455 S
C570 C574 1.531 . S
C571 C570 1.369 1_655 S
C571 C572 1.410 . S
C571 C579 1.503 . S
C572 C571 1.410 . S
C572 C573 1.392 . S
C572 C575 1.511 . S
C573 C569 1.376 . S
C573 C572 1.392 . S
C573 H585 0.929 . S
C574 C570 1.531 . S
C574 H586 0.960 . S
C574 H587 0.962 . S
C574 H588 0.960 . S
C575 C572 1.511 . S
C575 H589 0.961 . S
C575 H590 0.961 . S
C575 H591 0.961 . S
C576 C577 1.398 . S
C576 C578 1.363 . S
C576 H592 0.931 . S
C577 C576 1.398 . S
C577 C581 1.378 1_455 S
C578 C576 1.363 . S
C578 C579 1.370 1_455 S
C578 C582 1.524 . S
C579 C571 1.503 . S
C579 C578 1.370 1_655 S
C579 C580 1.403 . S
C580 C579 1.403 . S
C580 C581 1.404 . S
C580 C583 1.539 . S
C581 C577 1.378 1_655 S
C581 C580 1.404 . S
C581 H593 0.930 . S
C582 C578 1.524 . S
C582 H594 0.956 . S
C582 H595 0.961 . S
C582 H596 0.961 . S
C583 C580 1.539 . S
C583 H597 0.958 . S
C583 H598 0.961 . S
C583 H599 0.960 . S
H584 C568 0.931 . S
H585 C573 0.929 . S
H586 C574 0.960 . S
H587 C574 0.962 . S
H588 C574 0.960 . S
H589 C575 0.961 . S
H590 C575 0.961 . S
H591 C575 0.961 . S
H592 C576 0.931 . S
H593 C581 0.930 . S
H594 C582 0.956 . S
H595 C582 0.961 . S
H596 C582 0.961 . S
H597 C583 0.958 . S
H598 C583 0.961 . S
H599 C583 0.960 . S
C600 C601 1.394 . S
C600 C602 1.394 . S
C600 H616 0.931 . S
C601 C600 1.394 . S
C601 C605 1.373 1_565 S
C602 C600 1.394 . S
C602 C603 1.413 . S
C602 C606 1.531 . S
C603 C602 1.413 . S
C603 C604 1.364 1_565 S
C603 C611 1.503 1_554 S
C604 C603 1.364 1_545 S
C604 C605 1.392 . S
C604 C607 1.511 . S
C605 C601 1.373 1_545 S
C605 C604 1.392 . S
C605 H617 0.929 . S
C606 C602 1.531 . S
C606 H618 0.960 . S
C606 H619 0.962 . S
C606 H620 0.960 . S
C607 C604 1.511 . S
C607 H621 0.961 . S
C607 H622 0.961 . S
C607 H623 0.961 . S
C608 C609 1.370 . S
C608 C610 1.365 . S
C608 H624 0.931 . S
C609 C608 1.370 . S
C609 C613 1.408 . S
C610 C608 1.365 . S
C610 C611 1.370 . S
C610 C614 1.524 1_556 S
C611 C603 1.503 1_556 S
C611 C610 1.370 . S
C611 C612 1.405 . S
C612 C611 1.405 . S
C612 C613 1.404 . S
C612 C615 1.540 . S
C613 C609 1.408 . S
C613 C612 1.404 . S
C613 H625 0.930 . S
C614 C610 1.524 1_554 S
C614 H626 0.968 . S
C614 H627 0.950 1_565 S
C614 H628 0.959 1_565 S
C615 C612 1.540 . S
C615 H629 0.969 . S
C615 H630 0.955 1_565 S
C615 H631 0.954 1_565 S
H616 C600 0.931 . S
H617 C605 0.929 . S
H618 C606 0.960 . S
H619 C606 0.962 . S
H620 C606 0.960 . S
H621 C607 0.961 . S
H622 C607 0.961 . S
H623 C607 0.961 . S
H624 C608 0.931 . S
H625 C613 0.930 . S
H626 C614 0.968 . S
H627 C614 0.950 1_545 S
H628 C614 0.959 1_545 S
H629 C615 0.969 . S
H630 C615 0.955 1_545 S
H631 C615 0.954 1_545 S
C632 C633 1.391 . S
C632 C634 1.394 . S
C632 H648 0.931 . S
C633 C632 1.391 . S
C633 C637 1.376 . S
C634 C632 1.394 . S
C634 C635 1.369 . S
C634 C638 1.531 . S
C635 C634 1.369 . S
C635 C636 1.410 . S
C635 C643 1.503 . S
C636 C635 1.410 . S
C636 C637 1.392 . S
C636 C639 1.511 . S
C637 C633 1.376 . S
C637 C636 1.392 . S
C637 H649 0.929 . S
C638 C634 1.531 . S
C638 H650 0.966 . S
C638 H651 0.962 . S
C638 H652 0.960 . S
C639 C636 1.511 . S
C639 H653 0.961 . S
C639 H654 0.961 . S
C639 H655 0.961 . S
C640 C641 1.370 . S
C640 C642 1.363 . S
C640 H656 0.931 . S
C641 C640 1.370 . S
C641 C645 1.408 . S
C642 C640 1.363 . S
C642 C643 1.370 1_556 S
C642 C646 1.524 . S
C643 C635 1.503 . S
C643 C642 1.370 1_554 S
C643 C644 1.403 1_554 S
C644 C643 1.403 1_556 S
C644 C645 1.404 . S
C644 C647 1.539 1_556 S
C645 C641 1.408 . S
C645 C644 1.404 . S
C645 H657 0.930 . S
C646 C642 1.524 . S
C646 H658 0.956 . S
C646 H659 0.961 1_556 S
C646 H660 0.961 . S
C647 C644 1.539 1_554 S
C647 H661 0.958 . S
C647 H662 0.961 . S
C647 H663 0.960 . S
H648 C632 0.931 . S
H649 C637 0.929 . S
H650 C638 0.966 . S
H651 C638 0.962 . S
H652 C638 0.960 . S
H653 C639 0.961 . S
H654 C639 0.961 . S
H655 C639 0.961 . S
H656 C640 0.931 . S
H657 C645 0.930 . S
H658 C646 0.956 . S
H659 C646 0.961 1_554 S
H660 C646 0.961 . S
H661 C647 0.958 . S
H662 C647 0.961 . S
H663 C647 0.960 . S
C664 C665 1.391 . S
C664 C666 1.394 . S
C664 H680 0.931 . S
C665 C664 1.391 . S
C665 C669 1.376 . S
C666 C664 1.394 . S
C666 C667 1.369 . S
C666 C670 1.531 . S
C667 C666 1.369 . S
C667 C668 1.410 . S
C667 C675 1.503 . S
C668 C667 1.410 . S
C668 C669 1.392 . S
C668 C671 1.511 . S
C669 C665 1.376 . S
C669 C668 1.392 . S
C669 H681 0.929 . S
C670 C666 1.531 . S
C670 H682 0.960 . S
C670 H683 0.962 . S
C670 H684 0.960 . S
C671 C668 1.511 . S
C671 H685 0.961 . S
C671 H686 0.961 . S
C671 H687 0.961 . S
C672 C673 1.370 . S
C672 C674 1.363 . S
C672 H688 0.931 . S
C673 C672 1.370 . S
C673 C677 1.408 . S
C674 C672 1.363 . S
C674 C675 1.370 1_556 S
C674 C678 1.524 . S
C675 C667 1.503 . S
C675 C674 1.370 1_554 S
C675 C676 1.403 1_554 S
C676 C675 1.403 1_556 S
C676 C677 1.404 . S
C676 C679 1.539 1_556 S
C677 C673 1.408 . S
C677 C676 1.404 . S
C677 H689 0.930 . S
C678 C674 1.524 . S
C678 H690 0.956 . S
C678 H691 0.961 . S
C678 H692 0.961 . S
C679 C676 1.539 1_554 S
C679 H693 0.958 . S
C679 H694 0.961 . S
C679 H695 0.960 . S
H680 C664 0.931 . S
H681 C669 0.929 . S
H682 C670 0.960 . S
H683 C670 0.962 . S
H684 C670 0.960 . S
H685 C671 0.961 . S
H686 C671 0.961 . S
H687 C671 0.961 . S
H688 C672 0.931 . S
H689 C677 0.930 . S
H690 C678 0.956 . S
H691 C678 0.961 . S
H692 C678 0.961 . S
H693 C679 0.958 . S
H694 C679 0.961 . S
H695 C679 0.960 . S
C696 C697 1.414 . S
C696 C698 1.394 . S
C696 H712 0.931 . S
C697 C696 1.414 . S
C697 C701 1.354 1_455 S
C698 C696 1.394 . S
C698 C699 1.369 . S
C698 C702 1.531 . S
C699 C698 1.369 . S
C699 C700 1.410 1_455 S
C699 C707 1.506 . S
C700 C699 1.410 1_655 S
C700 C701 1.392 . S
C700 C703 1.511 . S
C701 C697 1.354 1_655 S
C701 C700 1.392 . S
C701 H713 0.929 . S
C702 C698 1.531 . S
C702 H714 0.960 . S
C702 H715 0.962 . S
C702 H716 0.960 . S
C703 C700 1.511 . S
C703 H717 0.961 . S
C703 H718 0.961 . S
C703 H719 0.961 . S
C704 C705 1.370 . S
C704 C706 1.363 . S
C704 H720 0.931 . S
C705 C704 1.370 . S
C705 C709 1.408 1_655 S
C706 C704 1.363 . S
C706 C707 1.348 1_656 S
C706 C710 1.524 . S
C707 C699 1.506 . S
C707 C706 1.348 1_454 S
C707 C708 1.425 1_554 S
C708 C707 1.425 1_556 S
C708 C709 1.404 . S
C708 C711 1.539 1_556 S
C709 C705 1.408 1_455 S
C709 C708 1.404 . S
C709 H721 0.930 . S
C710 C706 1.524 . S
C710 H722 0.956 . S
C710 H723 0.961 1_556 S
C710 H724 0.961 . S
C711 C708 1.539 1_554 S
C711 H725 0.958 . S
C711 H726 0.961 . S
C711 H727 0.960 . S
H712 C696 0.931 . S
H713 C701 0.929 . S
H714 C702 0.960 . S
H715 C702 0.962 . S
H716 C702 0.960 . S
H717 C703 0.961 . S
H718 C703 0.961 . S
H719 C703 0.961 . S
H720 C704 0.931 . S
H721 C709 0.930 . S
H722 C710 0.956 . S
H723 C710 0.961 1_554 S
H724 C710 0.961 . S
H725 C711 0.958 . S
H726 C711 0.961 . S
H727 C711 0.960 . S
C728 C729 1.391 1_655 S
C728 C730 1.394 . S
C728 H744 0.931 . S
C729 C728 1.391 1_455 S
C729 C733 1.376 . S
C730 C728 1.394 . S
C730 C731 1.369 . S
C730 C734 1.531 . S
C731 C730 1.369 . S
C731 C732 1.410 1_655 S
C731 C739 1.503 . S
C732 C731 1.410 1_455 S
C732 C733 1.392 . S
C732 C735 1.511 . S
C733 C729 1.376 . S
C733 C732 1.392 . S
C733 H745 0.929 . S
C734 C730 1.531 . S
C734 H746 0.960 . S
C734 H747 0.962 . S
C734 H748 0.960 . S
C735 C732 1.511 . S
C735 H749 0.961 . S
C735 H750 0.961 . S
C735 H751 0.961 . S
C736 C737 1.370 . S
C736 C738 1.363 . S
C736 H752 0.931 . S
C737 C736 1.370 . S
C737 C741 1.408 . S
C738 C736 1.363 . S
C738 C739 1.370 . S
C738 C742 1.524 . S
C739 C731 1.503 . S
C739 C738 1.370 . S
C739 C740 1.403 . S
C740 C739 1.403 . S
C740 C741 1.404 . S
C740 C743 1.539 . S
C741 C737 1.408 . S
C741 C740 1.404 . S
C741 H753 0.930 . S
C742 C738 1.524 . S
C742 H754 0.956 . S
C742 H755 0.961 1_655 S
C742 H756 0.961 . S
C743 C740 1.539 . S
C743 H757 0.958 . S
C743 H758 0.961 . S
C743 H759 0.960 . S
H744 C728 0.931 . S
H745 C733 0.929 . S
H746 C734 0.960 . S
H747 C734 0.962 . S
H748 C734 0.960 . S
H749 C735 0.961 . S
H750 C735 0.961 . S
H751 C735 0.961 . S
H752 C736 0.931 . S
H753 C741 0.930 . S
H754 C742 0.956 . S
H755 C742 0.961 1_455 S
H756 C742 0.961 . S
H757 C743 0.958 . S
H758 C743 0.961 . S
H759 C743 0.960 . S
C760 C761 1.391 . S
C760 C762 1.394 . S
C760 H776 0.931 . S
C761 C760 1.391 . S
C761 C765 1.376 1_545 S
C762 C760 1.394 . S
C762 C763 1.369 1_545 S
C762 C766 1.531 . S
C763 C762 1.369 1_565 S
C763 C764 1.410 . S
C763 C771 1.503 . S
C764 C763 1.410 . S
C764 C765 1.392 . S
C764 C767 1.511 . S
C765 C761 1.376 1_565 S
C765 C764 1.392 . S
C765 H777 0.929 . S
C766 C762 1.531 . S
C766 H778 0.960 . S
C766 H779 0.962 . S
C766 H780 0.960 . S
C767 C764 1.511 . S
C767 H781 0.961 . S
C767 H782 0.961 . S
C767 H783 0.961 . S
C768 C769 1.370 . S
C768 C770 1.363 . S
C768 H784 0.931 . S
C769 C768 1.370 . S
C769 C773 1.408 . S
C770 C768 1.363 . S
C770 C771 1.370 . S
C770 C774 1.524 . S
C771 C763 1.503 . S
C771 C770 1.370 . S
C771 C772 1.403 . S
C772 C771 1.403 . S
C772 C773 1.404 . S
C772 C775 1.539 1_565 S
C773 C769 1.408 . S
C773 C772 1.404 . S
C773 H785 0.930 . S
C774 C770 1.524 . S
C774 H786 0.956 . S
C774 H787 0.961 . S
C774 H788 0.961 . S
C775 C772 1.539 1_545 S
C775 H789 0.958 . S
C775 H790 0.961 . S
C775 H791 0.960 . S
H776 C760 0.931 . S
H777 C765 0.929 . S
H778 C766 0.960 . S
H779 C766 0.962 . S
H780 C766 0.960 . S
H781 C767 0.961 . S
H782 C767 0.961 . S
H783 C767 0.961 . S
H784 C768 0.931 . S
H785 C773 0.930 . S
H786 C774 0.956 . S
H787 C774 0.961 . S
H788 C774 0.961 . S
H789 C775 0.958 . S
H790 C775 0.961 . S
H791 C775 0.960 . S
C792 C793 1.391 . S
C792 C794 1.394 . S
C792 H808 0.931 . S
C793 C792 1.391 . S
C793 C797 1.376 . S
C794 C792 1.394 . S
C794 C795 1.369 . S
C794 C798 1.531 . S
C795 C794 1.369 . S
C795 C796 1.410 . S
C795 C803 1.503 . S
C796 C795 1.410 . S
C796 C797 1.392 . S
C796 C799 1.511 . S
C797 C793 1.376 . S
C797 C796 1.392 . S
C797 H809 0.929 . S
C798 C794 1.531 . S
C798 H810 0.960 . S
C798 H811 0.962 . S
C798 H812 0.960 . S
C799 C796 1.511 . S
C799 H813 0.961 . S
C799 H814 0.961 . S
C799 H815 0.961 . S
C800 C801 1.370 . S
C800 C802 1.363 . S
C800 H816 0.931 . S
C801 C800 1.370 . S
C801 C805 1.408 . S
C802 C800 1.363 . S
C802 C803 1.370 . S
C802 C806 1.524 . S
C803 C795 1.503 . S
C803 C802 1.370 . S
C803 C804 1.403 . S
C804 C803 1.403 . S
C804 C805 1.404 . S
C804 C807 1.539 . S
C805 C801 1.408 . S
C805 C804 1.404 . S
C805 H817 0.930 . S
C806 C802 1.524 . S
C806 H818 0.956 . S
C806 H819 0.961 . S
C806 H820 0.961 . S
C807 C804 1.539 . S
C807 H821 0.958 . S
C807 H822 0.961 . S
C807 H823 0.960 . S
H808 C792 0.931 . S
H809 C797 0.929 . S
H810 C798 0.960 . S
H811 C798 0.962 . S
H812 C798 0.960 . S
H813 C799 0.961 . S
H814 C799 0.961 . S
H815 C799 0.961 . S
H816 C800 0.931 . S
H817 C805 0.930 . S
H818 C806 0.956 . S
H819 C806 0.961 . S
H820 C806 0.961 . S
H821 C807 0.958 . S
H822 C807 0.961 . S
H823 C807 0.960 . S
C824 C825 1.391 . S
C824 C826 1.394 . S
C824 H840 0.931 . S
C825 C824 1.391 . S
C825 C829 1.376 . S
C826 C824 1.394 . S
C826 C827 1.369 . S
C826 C830 1.531 . S
C827 C826 1.369 . S
C827 C828 1.410 . S
C827 C835 1.503 . S
C828 C827 1.410 . S
C828 C829 1.392 . S
C828 C831 1.511 . S
C829 C825 1.376 . S
C829 C828 1.392 . S
C829 H841 0.929 . S
C830 C826 1.531 . S
C830 H842 0.960 . S
C830 H843 0.962 . S
C830 H844 0.960 . S
C831 C828 1.511 . S
C831 H845 0.961 . S
C831 H846 0.961 . S
C831 H847 0.961 . S
C832 C833 1.370 . S
C832 C834 1.363 . S
C832 H848 0.931 . S
C833 C832 1.370 . S
C833 C837 1.408 . S
C834 C832 1.363 . S
C834 C835 1.370 . S
C834 C838 1.524 . S
C835 C827 1.503 . S
C835 C834 1.370 . S
C835 C836 1.403 . S
C836 C835 1.403 . S
C836 C837 1.404 . S
C836 C839 1.539 . S
C837 C833 1.408 . S
C837 C836 1.404 . S
C837 H849 0.930 . S
C838 C834 1.524 . S
C838 H850 0.956 . S
C838 H851 0.961 . S
C838 H852 0.961 . S
C839 C836 1.539 . S
C839 H853 0.958 . S
C839 H854 0.961 . S
C839 H855 0.960 . S
H840 C824 0.931 . S
H841 C829 0.929 . S
H842 C830 0.960 . S
H843 C830 0.962 . S
H844 C830 0.960 . S
H845 C831 0.961 . S
H846 C831 0.961 . S
H847 C831 0.961 . S
H848 C832 0.931 . S
H849 C837 0.930 . S
H850 C838 0.956 . S
H851 C838 0.961 . S
H852 C838 0.961 . S
H853 C839 0.958 . S
H854 C839 0.961 . S
H855 C839 0.960 . S
C856 C857 1.391 1_455 S
C856 C858 1.394 . S
C856 H872 0.931 . S
C857 C856 1.391 1_655 S
C857 C861 1.376 . S
C858 C856 1.394 . S
C858 C859 1.369 . S
C858 C862 1.531 1_554 S
C859 C858 1.369 . S
C859 C860 1.410 1_455 S
C859 C867 1.503 . S
C860 C859 1.410 1_655 S
C860 C861 1.392 . S
C860 C863 1.511 . S
C861 C857 1.376 . S
C861 C860 1.392 . S
C861 H873 0.929 . S
C862 C858 1.531 1_556 S
C862 H874 0.960 . S
C862 H875 0.962 . S
C862 H876 0.960 . S
C863 C860 1.511 . S
C863 H877 0.961 . S
C863 H878 0.994 . S
C863 H879 0.961 . S
C864 C865 1.359 1_554 S
C864 C866 1.370 . S
C864 H880 0.936 . S
C865 C864 1.359 1_556 S
C865 C869 1.408 . S
C866 C864 1.370 . S
C866 C867 1.370 . S
C866 C870 1.524 . S
C867 C859 1.503 . S
C867 C866 1.370 . S
C867 C868 1.403 1_554 S
C868 C867 1.403 1_556 S
C868 C869 1.404 . S
C868 C871 1.539 1_455 S
C869 C865 1.408 . S
C869 C868 1.404 . S
C869 H881 0.930 . S
C870 C866 1.524 . S
C870 H882 0.956 . S
C870 H883 0.961 . S
C870 H884 0.961 . S
C871 C868 1.539 1_655 S
C871 H885 0.958 . S
C871 H886 0.961 . S
C871 H887 0.960 . S
H872 C856 0.931 . S
H873 C861 0.929 . S
H874 C862 0.960 . S
H875 C862 0.962 . S
H876 C862 0.960 . S
H877 C863 0.961 . S
H878 C863 0.994 . S
H879 C863 0.961 . S
H880 C864 0.936 . S
H881 C869 0.930 . S
H882 C870 0.956 . S
H883 C870 0.961 . S
H884 C870 0.961 . S
H885 C871 0.958 . S
H886 C871 0.961 . S
H887 C871 0.960 . S
C888 C889 1.391 1_545 S
C888 C890 1.394 . S
C888 H904 0.931 . S
C889 C888 1.391 1_565 S
C889 C893 1.376 . S
C890 C888 1.394 . S
C890 C891 1.369 . S
C890 C894 1.531 1_554 S
C891 C890 1.369 . S
C891 C892 1.410 1_545 S
C891 C899 1.503 . S
C892 C891 1.410 1_565 S
C892 C893 1.392 . S
C892 C895 1.511 . S
C893 C889 1.376 . S
C893 C892 1.392 . S
C893 H905 0.929 . S
C894 C890 1.531 1_556 S
C894 H906 0.960 . S
C894 H907 0.962 . S
C894 H908 0.960 . S
C895 C892 1.511 . S
C895 H909 0.961 . S
C895 H910 0.961 1_565 S
C895 H911 0.961 . S
C896 C897 1.370 . S
C896 C898 1.363 1_556 S
C896 H912 0.931 1_556 S
C897 C896 1.370 . S
C897 C901 1.408 . S
C898 C896 1.363 1_554 S
C898 C899 1.370 . S
C898 C902 1.524 . S
C899 C891 1.503 . S
C899 C898 1.370 . S
C899 C900 1.403 1_554 S
C900 C899 1.403 1_556 S
C900 C901 1.404 . S
C900 C903 1.539 1_545 S
C901 C897 1.408 . S
C901 C900 1.404 . S
C901 H913 0.930 . S
C902 C898 1.524 . S
C902 H914 0.956 . S
C902 H915 0.961 . S
C902 H916 0.961 . S
C903 C900 1.539 1_565 S
C903 H917 0.958 . S
C903 H918 0.961 . S
C903 H919 0.960 . S
H904 C888 0.931 . S
H905 C893 0.929 . S
H906 C894 0.960 . S
H907 C894 0.962 . S
H908 C894 0.960 . S
H909 C895 0.961 . S
H910 C895 0.961 1_545 S
H911 C895 0.961 . S
H912 C896 0.931 1_554 S
H913 C901 0.930 . S
H914 C902 0.956 . S
H915 C902 0.961 . S
H916 C902 0.961 . S
H917 C903 0.958 . S
H918 C903 0.961 . S
H919 C903 0.960 . S
C920 C921 1.391 . S
C920 C922 1.394 . S
C920 H936 0.931 . S
C921 C920 1.391 . S
C921 C925 1.376 . S
C922 C920 1.394 . S
C922 C923 1.369 . S
C922 C926 1.531 1_554 S
C923 C922 1.369 . S
C923 C924 1.410 . S
C923 C931 1.503 . S
C924 C923 1.410 . S
C924 C925 1.392 . S
C924 C927 1.511 . S
C925 C921 1.376 . S
C925 C924 1.392 . S
C925 H937 0.929 . S
C926 C922 1.531 1_556 S
C926 H938 0.960 . S
C926 H939 0.962 1_556 S
C926 H940 0.960 . S
C927 C924 1.511 . S
C927 H941 0.961 . S
C927 H942 0.961 . S
C927 H943 0.961 . S
C928 C929 1.370 1_554 S
C928 C930 1.363 . S
C928 H944 0.931 . S
C929 C928 1.370 1_556 S
C929 C933 1.408 . S
C930 C928 1.363 . S
C930 C931 1.370 . S
C930 C934 1.524 . S
C931 C923 1.503 . S
C931 C930 1.370 . S
C931 C932 1.403 1_554 S
C932 C931 1.403 1_556 S
C932 C933 1.404 . S
C932 C935 1.539 . S
C933 C929 1.408 . S
C933 C932 1.404 . S
C933 H945 0.930 . S
C934 C930 1.524 . S
C934 H946 0.956 . S
C934 H947 0.961 . S
C934 H948 0.961 . S
C935 C932 1.539 . S
C935 H949 0.958 . S
C935 H950 0.961 . S
C935 H951 0.960 . S
H936 C920 0.931 . S
H937 C925 0.929 . S
H938 C926 0.960 . S
H939 C926 0.962 1_554 S
H940 C926 0.960 . S
H941 C927 0.961 . S
H942 C927 0.961 . S
H943 C927 0.961 . S
H944 C928 0.931 . S
H945 C933 0.930 . S
H946 C934 0.956 . S
H947 C934 0.961 . S
H948 C934 0.961 . S
H949 C935 0.958 . S
H950 C935 0.961 . S
H951 C935 0.960 . S
C952 C953 1.391 . S
C952 C954 1.394 . S
C952 H968 0.931 . S
C953 C952 1.391 . S
C953 C957 1.376 . S
C954 C952 1.394 . S
C954 C955 1.369 . S
C954 C958 1.531 1_554 S
C955 C954 1.369 . S
C955 C956 1.410 . S
C955 C963 1.503 . S
C956 C955 1.410 . S
C956 C957 1.392 . S
C956 C959 1.511 . S
C957 C953 1.376 . S
C957 C956 1.392 . S
C957 H969 0.929 . S
C958 C954 1.531 1_556 S
C958 H970 0.960 . S
C958 H971 0.962 . S
C958 H972 0.960 . S
C959 C956 1.511 . S
C959 H973 0.961 . S
C959 H974 0.961 . S
C959 H975 0.961 . S
C960 C961 1.370 . S
C960 C962 1.363 1_556 S
C960 H976 0.931 . S
C961 C960 1.370 . S
C961 C965 1.408 . S
C962 C960 1.363 1_554 S
C962 C963 1.370 . S
C962 C966 1.524 . S
C963 C955 1.503 . S
C963 C962 1.370 . S
C963 C964 1.403 1_554 S
C964 C963 1.403 1_556 S
C964 C965 1.404 . S
C964 C967 1.539 . S
C965 C961 1.408 . S
C965 C964 1.404 . S
C965 H977 0.930 . S
C966 C962 1.524 . S
C966 H978 0.956 . S
C966 H979 0.961 . S
C966 H980 0.961 . S
C967 C964 1.539 . S
C967 H981 0.958 . S
C967 H982 0.961 . S
C967 H983 0.960 1_556 S
H968 C952 0.931 . S
H969 C957 0.929 . S
H970 C958 0.960 . S
H971 C958 0.962 . S
H972 C958 0.960 . S
H973 C959 0.961 . S
H974 C959 0.961 . S
H975 C959 0.961 . S
H976 C960 0.931 . S
H977 C965 0.930 . S
H978 C966 0.956 . S
H979 C966 0.961 . S
H980 C966 0.961 . S
H981 C967 0.958 . S
H982 C967 0.961 . S
H983 C967 0.960 1_554 S
C984 C985 1.391 1_655 S
C984 C986 1.394 . S
C984 H1000 0.931 . S
C985 C984 1.391 1_455 S
C985 C989 1.376 . S
C986 C984 1.394 . S
C986 C987 1.369 1_655 S
C986 C990 1.531 . S
C987 C986 1.369 1_455 S
C987 C988 1.410 . S
C987 C995 1.503 . S
C988 C987 1.410 . S
C988 C989 1.392 . S
C988 C991 1.511 . S
C989 C985 1.376 . S
C989 C988 1.392 . S
C989 H1001 0.929 . S
C990 C986 1.531 . S
C990 H1002 0.960 . S
C990 H1003 0.962 . S
C990 H1004 0.960 . S
C991 C988 1.511 . S
C991 H1005 0.961 . S
C991 H1006 0.961 . S
C991 H1007 0.961 . S
C992 C993 1.370 1_655 S
C992 C994 1.363 . S
C992 H1008 0.931 . S
C993 C992 1.370 1_455 S
C993 C997 1.408 . S
C994 C992 1.363 . S
C994 C995 1.370 1_655 S
C994 C998 1.524 . S
C995 C987 1.503 . S
C995 C994 1.370 1_455 S
C995 C996 1.403 . S
C996 C995 1.403 . S
C996 C997 1.404 . S
C996 C999 1.539 . S
C997 C993 1.408 . S
C997 C996 1.404 . S
C997 H1009 0.930 . S
C998 C994 1.524 . S
C998 H1010 0.956 . S
C998 H1011 0.961 . S
C998 H1012 0.961 . S
C999 C996 1.539 . S
C999 H1013 0.958 . S
C999 H1014 0.961 . S
C999 H1015 0.960 . S
H1000 C984 0.931 . S
H1001 C989 0.929 . S
H1002 C990 0.960 . S
H1003 C990 0.962 . S
H1004 C990 0.960 . S
H1005 C991 0.961 . S
H1006 C991 0.961 . S
H1007 C991 0.961 . S
H1008 C992 0.931 . S
H1009 C997 0.930 . S
H1010 C998 0.956 . S
H1011 C998 0.961 . S
H1012 C998 0.961 . S
H1013 C999 0.958 . S
H1014 C999 0.961 . S
H1015 C999 0.960 . S
C1016 C1017 1.391 . S
C1016 C1018 1.394 . S
C1016 H1032 0.931 . S
C1017 C1016 1.391 . S
C1017 C1021 1.376 1_545 S
C1018 C1016 1.394 . S
C1018 C1019 1.369 . S
C1018 C1022 1.531 . S
C1019 C1018 1.369 . S
C1019 C1020 1.410 1_545 S
C1019 C1027 1.503 . S
C1020 C1019 1.410 1_565 S
C1020 C1021 1.392 . S
C1020 C1023 1.511 . S
C1021 C1017 1.376 1_565 S
C1021 C1020 1.392 . S
C1021 H1033 0.929 . S
C1022 C1018 1.531 . S
C1022 H1034 0.960 . S
C1022 H1035 0.962 . S
C1022 H1036 0.960 . S
C1023 C1020 1.511 . S
C1023 H1037 0.961 . S
C1023 H1038 0.961 . S
C1023 H1039 0.961 . S
C1024 C1025 1.370 . S
C1024 C1026 1.363 . S
C1024 H1040 0.931 . S
C1025 C1024 1.370 . S
C1025 C1029 1.408 1_545 S
C1026 C1024 1.363 . S
C1026 C1027 1.370 . S
C1026 C1030 1.524 . S
C1027 C1019 1.503 . S
C1027 C1026 1.370 . S
C1027 C1028 1.403 1_545 S
C1028 C1027 1.403 1_565 S
C1028 C1029 1.404 . S
C1028 C1031 1.539 . S
C1029 C1025 1.408 1_565 S
C1029 C1028 1.404 . S
C1029 H1041 0.930 . S
C1030 C1026 1.524 . S
C1030 H1042 0.956 . S
C1030 H1043 0.961 . S
C1030 H1044 0.961 . S
C1031 C1028 1.539 . S
C1031 H1045 0.958 . S
C1031 H1046 0.961 . S
C1031 H1047 0.960 . S
H1032 C1016 0.931 . S
H1033 C1021 0.929 . S
H1034 C1022 0.960 . S
H1035 C1022 0.962 . S
H1036 C1022 0.960 . S
H1037 C1023 0.961 . S
H1038 C1023 0.961 . S
H1039 C1023 0.961 . S
H1040 C1024 0.931 . S
H1041 C1029 0.930 . S
H1042 C1030 0.956 . S
H1043 C1030 0.961 . S
H1044 C1030 0.961 . S
H1045 C1031 0.958 . S
H1046 C1031 0.961 . S
H1047 C1031 0.960 . S
C1048 C1049 1.391 . S
C1048 C1050 1.394 . S
C1048 H1064 0.931 . S
C1049 C1048 1.391 . S
C1049 C1053 1.376 . S
C1050 C1048 1.394 . S
C1050 C1051 1.369 . S
C1050 C1054 1.531 . S
C1051 C1050 1.369 . S
C1051 C1052 1.410 . S
C1051 C1059 1.503 . S
C1052 C1051 1.410 . S
C1052 C1053 1.392 . S
C1052 C1055 1.511 . S
C1053 C1049 1.376 . S
C1053 C1052 1.392 . S
C1053 H1065 0.929 . S
C1054 C1050 1.531 . S
C1054 H1066 0.960 . S
C1054 H1067 0.962 . S
C1054 H1068 0.960 . S
C1055 C1052 1.511 . S
C1055 H1069 0.961 . S
C1055 H1070 0.961 . S
C1055 H1071 0.961 . S
C1056 C1057 1.370 . S
C1056 C1058 1.363 . S
C1056 H1072 0.931 . S
C1057 C1056 1.370 . S
C1057 C1061 1.408 . S
C1058 C1056 1.363 . S
C1058 C1059 1.370 . S
C1058 C1062 1.524 . S
C1059 C1051 1.503 . S
C1059 C1058 1.370 . S
C1059 C1060 1.403 . S
C1060 C1059 1.403 . S
C1060 C1061 1.404 . S
C1060 C1063 1.539 . S
C1061 C1057 1.408 . S
C1061 C1060 1.404 . S
C1061 H1073 0.930 . S
C1062 C1058 1.524 . S
C1062 H1074 0.956 . S
C1062 H1075 0.961 . S
C1062 H1076 0.961 . S
C1063 C1060 1.539 . S
C1063 H1077 0.958 . S
C1063 H1078 0.961 . S
C1063 H1079 0.960 . S
H1064 C1048 0.931 . S
H1065 C1053 0.929 . S
H1066 C1054 0.960 . S
H1067 C1054 0.962 . S
H1068 C1054 0.960 . S
H1069 C1055 0.961 . S
H1070 C1055 0.961 . S
H1071 C1055 0.961 . S
H1072 C1056 0.931 . S
H1073 C1061 0.930 . S
H1074 C1062 0.956 . S
H1075 C1062 0.961 . S
H1076 C1062 0.961 . S
H1077 C1063 0.958 . S
H1078 C1063 0.961 . S
H1079 C1063 0.960 . S
C1080 C1081 1.391 . S
C1080 C1082 1.394 . S
C1080 H1096 0.931 . S
C1081 C1080 1.391 . S
C1081 C1085 1.376 . S
C1082 C1080 1.394 . S
C1082 C1083 1.369 . S
C1082 C1086 1.531 . S
C1083 C1082 1.369 . S
C1083 C1084 1.410 . S
C1083 C1091 1.503 . S
C1084 C1083 1.410 . S
C1084 C1085 1.392 . S
C1084 C1087 1.511 . S
C1085 C1081 1.376 . S
C1085 C1084 1.392 . S
C1085 H1097 0.929 . S
C1086 C1082 1.531 . S
C1086 H1098 0.960 . S
C1086 H1099 0.962 . S
C1086 H1100 0.960 . S
C1087 C1084 1.511 . S
C1087 H1101 0.961 . S
C1087 H1102 0.961 . S
C1087 H1103 0.961 . S
C1088 C1089 1.370 . S
C1088 C1090 1.363 . S
C1088 H1104 0.931 . S
C1089 C1088 1.370 . S
C1089 C1093 1.408 . S
C1090 C1088 1.363 . S
C1090 C1091 1.370 . S
C1090 C1094 1.524 . S
C1091 C1083 1.503 . S
C1091 C1090 1.370 . S
C1091 C1092 1.403 . S
C1092 C1091 1.403 . S
C1092 C1093 1.404 . S
C1092 C1095 1.539 . S
C1093 C1089 1.408 . S
C1093 C1092 1.404 . S
C1093 H1105 0.930 . S
C1094 C1090 1.524 . S
C1094 H1106 0.956 . S
C1094 H1107 0.961 . S
C1094 H1108 0.961 . S
C1095 C1092 1.539 . S
C1095 H1109 0.958 . S
C1095 H1110 0.961 . S
C1095 H1111 0.960 . S
H1096 C1080 0.931 . S
H1097 C1085 0.929 . S
H1098 C1086 0.960 . S
H1099 C1086 0.962 . S
H1100 C1086 0.960 . S
H1101 C1087 0.961 . S
H1102 C1087 0.961 . S
H1103 C1087 0.961 . S
H1104 C1088 0.931 . S
H1105 C1093 0.930 . S
H1106 C1094 0.956 . S
H1107 C1094 0.961 . S
H1108 C1094 0.961 . S
H1109 C1095 0.958 . S
H1110 C1095 0.961 . S
H1111 C1095 0.960 . S
C1112 C1113 1.391 1_455 S
C1112 C1114 1.394 . S
C1112 H1128 0.931 . S
C1113 C1112 1.391 1_655 S
C1113 C1117 1.376 . S
C1114 C1112 1.394 . S
C1114 C1115 1.369 1_455 S
C1114 C1118 1.531 . S
C1115 C1114 1.369 1_655 S
C1115 C1116 1.410 . S
C1115 C1123 1.503 . S
C1116 C1115 1.410 . S
C1116 C1117 1.392 . S
C1116 C1119 1.511 . S
C1117 C1113 1.376 . S
C1117 C1116 1.392 . S
C1117 H1129 0.929 . S
C1118 C1114 1.531 . S
C1118 H1130 0.960 . S
C1118 H1131 0.962 . S
C1118 H1132 0.960 . S
C1119 C1116 1.511 . S
C1119 H1133 0.961 . S
C1119 H1134 0.961 . S
C1119 H1135 0.961 . S
C1120 C1121 1.370 1_455 S
C1120 C1122 1.363 . S
C1120 H1136 0.931 . S
C1121 C1120 1.370 1_655 S
C1121 C1125 1.408 . S
C1122 C1120 1.363 . S
C1122 C1123 1.370 1_455 S
C1122 C1126 1.524 . S
C1123 C1115 1.503 . S
C1123 C1122 1.370 1_655 S
C1123 C1124 1.403 . S
C1124 C1123 1.403 . S
C1124 C1125 1.404 . S
C1124 C1127 1.539 . S
C1125 C1121 1.408 . S
C1125 C1124 1.404 . S
C1125 H1137 0.930 . S
C1126 C1122 1.524 . S
C1126 H1138 0.956 . S
C1126 H1139 0.961 . S
C1126 H1140 0.961 . S
C1127 C1124 1.539 . S
C1127 H1141 0.958 . S
C1127 H1142 0.961 . S
C1127 H1143 0.960 . S
H1128 C1112 0.931 . S
H1129 C1117 0.929 . S
H1130 C1118 0.960 . S
H1131 C1118 0.962 . S
H1132 C1118 0.960 . S
H1133 C1119 0.961 . S
H1134 C1119 0.961 . S
H1135 C1119 0.961 . S
H1136 C1120 0.931 . S
H1137 C1125 0.930 . S
H1138 C1126 0.956 . S
H1139 C1126 0.961 . S
H1140 C1126 0.961 . S
H1141 C1127 0.958 . S
H1142 C1127 0.961 . S
H1143 C1127 0.960 . S
C1144 C1145 1.391 . S
C1144 C1146 1.394 . S
C1144 H1160 0.931 . S
C1145 C1144 1.391 . S
C1145 C1149 1.375 . S
C1146 C1144 1.394 . S
C1146 C1147 1.369 . S
C1146 C1150 1.531 . S
C1147 C1146 1.369 . S
C1147 C1148 1.410 . S
C1147 C1155 1.503 . S
C1148 C1147 1.410 . S
C1148 C1149 1.392 . S
C1148 C1151 1.511 1_565 S
C1149 C1145 1.375 . S
C1149 C1148 1.392 . S
C1149 H1161 0.931 1_565 S
C1150 C1146 1.531 . S
C1150 H1162 0.960 . S
C1150 H1163 0.962 . S
C1150 H1164 0.960 . S
C1151 C1148 1.511 1_545 S
C1151 H1165 0.961 . S
C1151 H1166 0.961 . S
C1151 H1167 0.961 1_545 S
C1152 C1153 1.370 1_545 S
C1152 C1154 1.363 . S
C1152 H1168 0.931 . S
C1153 C1152 1.370 1_565 S
C1153 C1157 1.408 . S
C1154 C1152 1.363 . S
C1154 C1155 1.370 1_545 S
C1154 C1158 1.524 . S
C1155 C1147 1.503 . S
C1155 C1154 1.370 1_565 S
C1155 C1156 1.403 . S
C1156 C1155 1.403 . S
C1156 C1157 1.404 . S
C1156 C1159 1.539 . S
C1157 C1153 1.408 . S
C1157 C1156 1.404 . S
C1157 H1169 0.930 . S
C1158 C1154 1.524 . S
C1158 H1170 0.956 . S
C1158 H1171 0.961 . S
C1158 H1172 0.961 . S
C1159 C1156 1.539 . S
C1159 H1173 0.958 . S
C1159 H1174 0.961 . S
C1159 H1175 0.960 . S
H1160 C1144 0.931 . S
H1161 C1149 0.931 1_545 S
H1162 C1150 0.960 . S
H1163 C1150 0.962 . S
H1164 C1150 0.960 . S
H1165 C1151 0.961 . S
H1166 C1151 0.961 . S
H1167 C1151 0.961 1_565 S
H1168 C1152 0.931 . S
H1169 C1157 0.930 . S
H1170 C1158 0.956 . S
H1171 C1158 0.961 . S
H1172 C1158 0.961 . S
H1173 C1159 0.958 . S
H1174 C1159 0.961 . S
H1175 C1159 0.960 . S
C1176 C1177 1.391 . S
C1176 C1178 1.394 . S
C1176 H1192 0.931 . S
C1177 C1176 1.391 . S
C1177 C1181 1.376 . S
C1178 C1176 1.394 . S
C1178 C1179 1.369 . S
C1178 C1182 1.531 . S
C1179 C1178 1.369 . S
C1179 C1180 1.410 . S
C1179 C1187 1.503 . S
C1180 C1179 1.410 . S
C1180 C1181 1.392 . S
C1180 C1183 1.511 . S
C1181 C1177 1.376 . S
C1181 C1180 1.392 . S
C1181 H1193 0.929 . S
C1182 C1178 1.531 . S
C1182 H1194 0.960 . S
C1182 H1195 0.962 . S
C1182 H1196 0.960 . S
C1183 C1180 1.511 . S
C1183 H1197 0.961 . S
C1183 H1198 0.961 . S
C1183 H1199 0.961 . S
C1184 C1185 1.370 . S
C1184 C1186 1.363 . S
C1184 H1200 0.931 . S
C1185 C1184 1.370 . S
C1185 C1189 1.408 . S
C1186 C1184 1.363 . S
C1186 C1187 1.370 . S
C1186 C1190 1.524 . S
C1187 C1179 1.503 . S
C1187 C1186 1.370 . S
C1187 C1188 1.403 . S
C1188 C1187 1.403 . S
C1188 C1189 1.404 . S
C1188 C1191 1.539 . S
C1189 C1185 1.408 . S
C1189 C1188 1.404 . S
C1189 H1201 0.930 . S
C1190 C1186 1.524 . S
C1190 H1202 0.956 . S
C1190 H1203 0.961 . S
C1190 H1204 0.961 . S
C1191 C1188 1.539 . S
C1191 H1205 0.958 . S
C1191 H1206 0.961 . S
C1191 H1207 0.960 . S
H1192 C1176 0.931 . S
H1193 C1181 0.929 . S
H1194 C1182 0.960 . S
H1195 C1182 0.962 . S
H1196 C1182 0.960 . S
H1197 C1183 0.961 . S
H1198 C1183 0.961 . S
H1199 C1183 0.961 . S
H1200 C1184 0.931 . S
H1201 C1189 0.930 . S
H1202 C1190 0.956 . S
H1203 C1190 0.961 . S
H1204 C1190 0.961 . S
H1205 C1191 0.958 . S
H1206 C1191 0.961 . S
H1207 C1191 0.960 . S
C1208 C1209 1.391 . S
C1208 C1210 1.394 . S
C1208 H1224 0.931 . S
C1209 C1208 1.391 . S
C1209 C1213 1.376 . S
C1210 C1208 1.394 . S
C1210 C1211 1.369 . S
C1210 C1214 1.531 . S
C1211 C1210 1.369 . S
C1211 C1212 1.410 . S
C1211 C1219 1.503 . S
C1212 C1211 1.410 . S
C1212 C1213 1.392 . S
C1212 C1215 1.511 . S
C1213 C1209 1.376 . S
C1213 C1212 1.392 . S
C1213 H1225 0.929 . S
C1214 C1210 1.531 . S
C1214 H1226 0.960 . S
C1214 H1227 0.962 . S
C1214 H1228 0.960 . S
C1215 C1212 1.511 . S
C1215 H1229 0.961 . S
C1215 H1230 0.961 . S
C1215 H1231 0.961 . S
C1216 C1217 1.370 . S
C1216 C1218 1.363 . S
C1216 H1232 0.931 . S
C1217 C1216 1.370 . S
C1217 C1221 1.408 . S
C1218 C1216 1.363 . S
C1218 C1219 1.370 . S
C1218 C1222 1.524 . S
C1219 C1211 1.503 . S
C1219 C1218 1.370 . S
C1219 C1220 1.403 . S
C1220 C1219 1.403 . S
C1220 C1221 1.404 . S
C1220 C1223 1.539 . S
C1221 C1217 1.408 . S
C1221 C1220 1.404 . S
C1221 H1233 0.930 . S
C1222 C1218 1.524 . S
C1222 H1234 0.956 . S
C1222 H1235 0.961 . S
C1222 H1236 0.961 . S
C1223 C1220 1.539 . S
C1223 H1237 0.958 . S
C1223 H1238 0.961 . S
C1223 H1239 0.960 . S
H1224 C1208 0.931 . S
H1225 C1213 0.929 . S
H1226 C1214 0.960 . S
H1227 C1214 0.962 . S
H1228 C1214 0.960 . S
H1229 C1215 0.961 . S
H1230 C1215 0.961 . S
H1231 C1215 0.961 . S
H1232 C1216 0.931 . S
H1233 C1221 0.930 . S
H1234 C1222 0.956 . S
H1235 C1222 0.961 . S
H1236 C1222 0.961 . S
H1237 C1223 0.958 . S
H1238 C1223 0.961 . S
H1239 C1223 0.960 . S
C473 C255 2.131 . S
C481 C322 2.336 1_545 S
C513 C362 2.355 . S
C505 C294 2.129 . S
C545 C402 2.342 . S
C537 C177 2.135 . S
C577 C442 2.341 1_455 S
C569 C216 2.181 . S
C609 C331 2.340 1_565 S
C601 C99 2.128 . S
C633 C138 2.162 . S
C641 C371 2.351 . S
C665 C21 2.189 . S
C673 C411 2.340 . S
C697 C60 2.189 1_455 S
C705 C451 2.341 1_655 S
C737 C328 0.456 . S
C729 C196 0.346 1_455 S
C769 C368 0.414 . S
C761 C235 0.528 1_545 S
C801 C408 0.445 . S
C793 C289 0.354 . S
C825 C157 0.351 . S
C833 C448 0.477 . S
C857 C40 0.519 . S
C865 C319 0.400 . S
C897 C359 0.404 . S
C889 C79 0.513 . S
C929 C399 0.407 . S
C921 C133 0.517 . S
C953 C1 0.500 . S
C961 C439 0.406 . S
C985 C211 2.836 . S
C993 C323 3.221 . S
C1017 C250 2.780 . S
C1025 C363 3.211 . S
C1057 C403 3.219 . S
C1049 C274 2.839 . S
C1089 C443 3.216 . S
C1081 C172 2.830 . S
C1113 C55 2.797 1_655 S
C1121 C314 3.233 . S
C1153 C354 3.216 . S
C1145 C94 2.816 1_565 S
C1185 C394 3.219 . S
C1177 C118 2.836 . S
C1209 C16 2.778 . S
C1217 C434 3.221 . S
