# Generated by pormake.
# Topology ptr, (4,4)-cn, num edge types: 1
# Building blocks:
#     Node 0, Type 0, BuildingBlock: NAHDIM_clean_sbu_0, # of connection points: 4
#     Node 1, Type 0, BuildingBlock: NAHDIM_clean_sbu_0, # of connection points: 4
#     Node 2, Type 0, BuildingBlock: NAHDIM_clean_sbu_0, # of connection points: 4
#     Node 3, Type 0, BuildingBlock: NAHDIM_clean_sbu_0, # of connection points: 4
#     Node 4, Type 0, BuildingBlock: NAHDIM_clean_sbu_0, # of connection points: 4
#     Node 5, Type 0, BuildingBlock: NAHDIM_clean_sbu_0, # of connection points: 4
#     Node 6, Type 0, BuildingBlock: NAHDIM_clean_sbu_0, # of connection points: 4
#     Node 7, Type 0, BuildingBlock: NAHDIM_clean_sbu_0, # of connection points: 4
#     Node 8, Type 0, BuildingBlock: NAHDIM_clean_sbu_0, # of connection points: 4
#     Node 9, Type 0, BuildingBlock: NAHDIM_clean_sbu_0, # of connection points: 4
#     Node 10, Type 0, BuildingBlock: NAHDIM_clean_sbu_0, # of connection points: 4
#     Node 11, Type 0, BuildingBlock: NAHDIM_clean_sbu_0, # of connection points: 4
#     Node 12, Type 0, BuildingBlock: NAHDIM_clean_sbu_0, # of connection points: 4
#     Node 13, Type 0, BuildingBlock: NAHDIM_clean_sbu_0, # of connection points: 4
#     Node 14, Type 0, BuildingBlock: NAHDIM_clean_sbu_0, # of connection points: 4
#     Node 15, Type 0, BuildingBlock: NAHDIM_clean_sbu_0, # of connection points: 4
#     Node 16, Type 0, BuildingBlock: NAHDIM_clean_sbu_0, # of connection points: 4
#     Node 17, Type 0, BuildingBlock: NAHDIM_clean_sbu_0, # of connection points: 4
#     Node 18, Type 1, BuildingBlock: MUDLON_clean_linker_0, # of connection points: 4
#     Node 19, Type 1, BuildingBlock: MUDLON_clean_linker_0, # of connection points: 4
#     Node 20, Type 1, BuildingBlock: MUDLON_clean_linker_0, # of connection points: 4
#     Node 21, Type 1, BuildingBlock: MUDLON_clean_linker_0, # of connection points: 4
#     Node 22, Type 1, BuildingBlock: MUDLON_clean_linker_0, # of connection points: 4
#     Node 23, Type 1, BuildingBlock: MUDLON_clean_linker_0, # of connection points: 4
#     Node 24, Type 1, BuildingBlock: MUDLON_clean_linker_0, # of connection points: 4
#     Node 25, Type 1, BuildingBlock: MUDLON_clean_linker_0, # of connection points: 4
#     Node 26, Type 1, BuildingBlock: MUDLON_clean_linker_0, # of connection points: 4
#     Node 27, Type 1, BuildingBlock: MUDLON_clean_linker_0, # of connection points: 4
#     Node 28, Type 1, BuildingBlock: MUDLON_clean_linker_0, # of connection points: 4
#     Node 29, Type 1, BuildingBlock: MUDLON_clean_linker_0, # of connection points: 4
#     Node 30, Type 1, BuildingBlock: MUDLON_clean_linker_0, # of connection points: 4
#     Node 31, Type 1, BuildingBlock: MUDLON_clean_linker_0, # of connection points: 4
#     Node 32, Type 1, BuildingBlock: MUDLON_clean_linker_0, # of connection points: 4
#     Node 33, Type 1, BuildingBlock: MUDLON_clean_linker_0, # of connection points: 4
#     Node 34, Type 1, BuildingBlock: MUDLON_clean_linker_0, # of connection points: 4
#     Node 35, Type 1, BuildingBlock: MUDLON_clean_linker_0, # of connection points: 4
#     Edge 36, Type (0, 1), BuildingBlock: EZIPEK_clean_linker_0, # of connection points: 2
#     Edge 37, Type (0, 1), BuildingBlock: EZIPEK_clean_linker_0, # of connection points: 2
#     Edge 38, Type (0, 1), BuildingBlock: EZIPEK_clean_linker_0, # of connection points: 2
#     Edge 39, Type (0, 1), BuildingBlock: EZIPEK_clean_linker_0, # of connection points: 2
#     Edge 40, Type (0, 1), BuildingBlock: EZIPEK_clean_linker_0, # of connection points: 2
#     Edge 41, Type (0, 1), BuildingBlock: EZIPEK_clean_linker_0, # of connection points: 2
#     Edge 42, Type (0, 1), BuildingBlock: EZIPEK_clean_linker_0, # of connection points: 2
#     Edge 43, Type (0, 1), BuildingBlock: EZIPEK_clean_linker_0, # of connection points: 2
#     Edge 44, Type (0, 1), BuildingBlock: EZIPEK_clean_linker_0, # of connection points: 2
#     Edge 45, Type (0, 1), BuildingBlock: EZIPEK_clean_linker_0, # of connection points: 2
#     Edge 46, Type (0, 1), BuildingBlock: EZIPEK_clean_linker_0, # of connection points: 2
#     Edge 47, Type (0, 1), BuildingBlock: EZIPEK_clean_linker_0, # of connection points: 2
#     Edge 48, Type (0, 1), BuildingBlock: EZIPEK_clean_linker_0, # of connection points: 2
#     Edge 49, Type (0, 1), BuildingBlock: EZIPEK_clean_linker_0, # of connection points: 2
#     Edge 50, Type (0, 1), BuildingBlock: EZIPEK_clean_linker_0, # of connection points: 2
#     Edge 51, Type (0, 1), BuildingBlock: EZIPEK_clean_linker_0, # of connection points: 2
#     Edge 52, Type (0, 1), BuildingBlock: EZIPEK_clean_linker_0, # of connection points: 2
#     Edge 53, Type (0, 1), BuildingBlock: EZIPEK_clean_linker_0, # of connection points: 2
#     Edge 54, Type (0, 1), BuildingBlock: EZIPEK_clean_linker_0, # of connection points: 2
#     Edge 55, Type (0, 1), BuildingBlock: EZIPEK_clean_linker_0, # of connection points: 2
#     Edge 56, Type (0, 1), BuildingBlock: EZIPEK_clean_linker_0, # of connection points: 2
#     Edge 57, Type (0, 1), BuildingBlock: EZIPEK_clean_linker_0, # of connection points: 2
#     Edge 58, Type (0, 1), BuildingBlock: EZIPEK_clean_linker_0, # of connection points: 2
#     Edge 59, Type (0, 1), BuildingBlock: EZIPEK_clean_linker_0, # of connection points: 2
#     Edge 60, Type (0, 1), BuildingBlock: EZIPEK_clean_linker_0, # of connection points: 2
#     Edge 61, Type (0, 1), BuildingBlock: EZIPEK_clean_linker_0, # of connection points: 2
#     Edge 62, Type (0, 1), BuildingBlock: EZIPEK_clean_linker_0, # of connection points: 2
#     Edge 63, Type (0, 1), BuildingBlock: EZIPEK_clean_linker_0, # of connection points: 2
#     Edge 64, Type (0, 1), BuildingBlock: EZIPEK_clean_linker_0, # of connection points: 2
#     Edge 65, Type (0, 1), BuildingBlock: EZIPEK_clean_linker_0, # of connection points: 2
#     Edge 66, Type (0, 1), BuildingBlock: EZIPEK_clean_linker_0, # of connection points: 2
#     Edge 67, Type (0, 1), BuildingBlock: EZIPEK_clean_linker_0, # of connection points: 2
#     Edge 68, Type (0, 1), BuildingBlock: EZIPEK_clean_linker_0, # of connection points: 2
#     Edge 69, Type (0, 1), BuildingBlock: EZIPEK_clean_linker_0, # of connection points: 2
#     Edge 70, Type (0, 1), BuildingBlock: EZIPEK_clean_linker_0, # of connection points: 2
#     Edge 71, Type (0, 1), BuildingBlock: EZIPEK_clean_linker_0, # of connection points: 2
#     Edge 72, Type (0, 1), BuildingBlock: EZIPEK_clean_linker_0, # of connection points: 2
#     Edge 73, Type (0, 1), BuildingBlock: EZIPEK_clean_linker_0, # of connection points: 2
#     Edge 74, Type (0, 1), BuildingBlock: EZIPEK_clean_linker_0, # of connection points: 2
#     Edge 75, Type (0, 1), BuildingBlock: EZIPEK_clean_linker_0, # of connection points: 2
#     Edge 76, Type (0, 1), BuildingBlock: EZIPEK_clean_linker_0, # of connection points: 2
#     Edge 77, Type (0, 1), BuildingBlock: EZIPEK_clean_linker_0, # of connection points: 2
#     Edge 78, Type (0, 1), BuildingBlock: EZIPEK_clean_linker_0, # of connection points: 2
#     Edge 79, Type (0, 1), BuildingBlock: EZIPEK_clean_linker_0, # of connection points: 2
#     Edge 80, Type (0, 1), BuildingBlock: EZIPEK_clean_linker_0, # of connection points: 2
#     Edge 81, Type (0, 1), BuildingBlock: EZIPEK_clean_linker_0, # of connection points: 2
#     Edge 82, Type (0, 1), BuildingBlock: EZIPEK_clean_linker_0, # of connection points: 2
#     Edge 83, Type (0, 1), BuildingBlock: EZIPEK_clean_linker_0, # of connection points: 2
#     Edge 84, Type (0, 1), BuildingBlock: EZIPEK_clean_linker_0, # of connection points: 2
#     Edge 85, Type (0, 1), BuildingBlock: EZIPEK_clean_linker_0, # of connection points: 2
#     Edge 86, Type (0, 1), BuildingBlock: EZIPEK_clean_linker_0, # of connection points: 2
#     Edge 87, Type (0, 1), BuildingBlock: EZIPEK_clean_linker_0, # of connection points: 2
#     Edge 88, Type (0, 1), BuildingBlock: EZIPEK_clean_linker_0, # of connection points: 2
#     Edge 89, Type (0, 1), BuildingBlock: EZIPEK_clean_linker_0, # of connection points: 2
#     Edge 90, Type (0, 1), BuildingBlock: EZIPEK_clean_linker_0, # of connection points: 2
#     Edge 91, Type (0, 1), BuildingBlock: EZIPEK_clean_linker_0, # of connection points: 2
#     Edge 92, Type (0, 1), BuildingBlock: EZIPEK_clean_linker_0, # of connection points: 2
#     Edge 93, Type (0, 1), BuildingBlock: EZIPEK_clean_linker_0, # of connection points: 2
#     Edge 94, Type (0, 1), BuildingBlock: EZIPEK_clean_linker_0, # of connection points: 2
#     Edge 95, Type (0, 1), BuildingBlock: EZIPEK_clean_linker_0, # of connection points: 2
#     Edge 96, Type (0, 1), BuildingBlock: EZIPEK_clean_linker_0, # of connection points: 2
#     Edge 97, Type (0, 1), BuildingBlock: EZIPEK_clean_linker_0, # of connection points: 2
#     Edge 98, Type (0, 1), BuildingBlock: EZIPEK_clean_linker_0, # of connection points: 2
#     Edge 99, Type (0, 1), BuildingBlock: EZIPEK_clean_linker_0, # of connection points: 2
#     Edge 100, Type (0, 1), BuildingBlock: EZIPEK_clean_linker_0, # of connection points: 2
#     Edge 101, Type (0, 1), BuildingBlock: EZIPEK_clean_linker_0, # of connection points: 2
#     Edge 102, Type (0, 1), BuildingBlock: EZIPEK_clean_linker_0, # of connection points: 2
#     Edge 103, Type (0, 1), BuildingBlock: EZIPEK_clean_linker_0, # of connection points: 2
#     Edge 104, Type (0, 1), BuildingBlock: EZIPEK_clean_linker_0, # of connection points: 2
#     Edge 105, Type (0, 1), BuildingBlock: EZIPEK_clean_linker_0, # of connection points: 2
#     Edge 106, Type (0, 1), BuildingBlock: EZIPEK_clean_linker_0, # of connection points: 2
#     Edge 107, Type (0, 1), BuildingBlock: EZIPEK_clean_linker_0, # of connection points: 2
# Relax obj value: 0.062
# Max RMSD: 0.205
# Mean RMSD: 0.105
data_MOF--net-ptr--node1-NAHDIM_clean_sbu_0--node2-MUDLON_clean_linker_0--edge1-EZIPEK_clean_linker_0
_symmetry_space_group_name_H-M    P1
_symmetry_Int_Tables_number       1
_symmetry_cell_setting            triclinic
loop_
_symmetry_equiv_pos_as_xyz
'x, y, z'
_cell_length_a     85.916641
_cell_length_b     84.382414
_cell_length_c     48.965266
_cell_angle_alpha  91.75647
_cell_angle_beta   89.132365
_cell_angle_gamma 121.71883
loop_
_atom_site_label
_atom_site_type_symbol
_atom_site_fract_x
_atom_site_fract_y
_atom_site_fract_z
_atom_type_partial_charge
C0 C 0.02422 0.35801 0.04595 0.0
O1 O 0.00905 0.35087 0.06025 0.0
O2 O 0.98271 0.34297 0.00471 0.0
Zn3 Zn 0.00411 0.36857 0.01444 0.0
O4 O 0.99955 0.38092 0.04691 0.0
C5 C 0.99714 0.3853 0.97041 0.0
O6 O 0.98079 0.37659 0.98146 0.0
O7 O 0.02563 0.36648 0.02418 0.0
C8 C 0.98494 0.38042 0.05351 0.0
O9 O 0.97019 0.37095 0.03836 0.0
C10 C 0.97031 0.33121 0.02033 0.0
O11 O 0.9702 0.33537 0.04636 0.0
O12 O 0.00997 0.38439 0.98131 0.0
C13 C 0.6693 0.64471 0.98878 0.0
O14 O 0.65875 0.64527 0.97016 0.0
O15 O 0.64042 0.65842 0.03051 0.0
Zn16 Zn 0.63743 0.6338 0.01992 0.0
O17 O 0.62216 0.62341 0.98584 0.0
C18 C 0.634 0.61879 0.07302 0.0
O19 O 0.65102 0.63275 0.07548 0.0
O20 O 0.66293 0.63928 0.01255 0.0
C21 C 0.60486 0.61278 0.9858 0.0
O22 O 0.59585 0.60805 0.009 0.0
C23 C 0.62748 0.66125 0.035 0.0
O24 O 0.61038 0.64751 0.03241 0.0
O25 O 0.62545 0.61616 0.05079 0.0
C26 C 0.35783 0.02622 0.99129 0.0
O27 O 0.3477 0.00972 0.97944 0.0
O28 O 0.34473 0.98561 0.03288 0.0
Zn29 Zn 0.36951 0.00587 0.02046 0.0
O30 O 0.37766 0.99712 0.9875 0.0
C31 C 0.39718 0.0057 0.05331 0.0
O32 O 0.39862 0.99678 0.03195 0.0
O33 O 0.36865 0.0284 0.01043 0.0
C34 C 0.39203 0.00859 0.97465 0.0
O35 O 0.40174 0.02605 0.98329 0.0
C36 C 0.33514 0.96974 0.02107 0.0
O37 O 0.34085 0.96597 0.99818 0.0
O38 O 0.38628 0.01159 0.0525 0.0
C39 C 0.9727 0.64958 0.98246 0.0
O40 O 0.98881 0.65704 0.97073 0.0
O41 O 0.01046 0.65956 0.0235 0.0
Zn42 Zn 0.98899 0.63441 0.0125 0.0
O43 O 0.99493 0.62281 0.98069 0.0
C44 C 0.994 0.61574 0.05491 0.0
O45 O 0.01025 0.62372 0.04349 0.0
O46 O 0.96873 0.63825 0.00162 0.0
C47 C 0.98189 0.60705 0.97215 0.0
O48 O 0.96614 0.59913 0.98506 0.0
C49 C 0.02462 0.66954 0.00921 0.0
O50 O 0.02656 0.6633 0.98529 0.0
O51 O 0.98175 0.61798 0.04495 0.0
C52 C 0.32301 0.35586 0.01002 0.0
O53 O 0.32183 0.34448 0.99014 0.0
O54 O 0.35201 0.34029 0.99746 0.0
Zn55 Zn 0.36077 0.36656 0.0103 0.0
O56 O 0.37588 0.37337 0.04438 0.0
C57 C 0.39277 0.3886 0.97893 0.0
O58 O 0.3996 0.38309 0.99755 0.0
O59 O 0.33857 0.36774 0.02008 0.0
C60 C 0.38166 0.38953 0.05467 0.0
O61 O 0.37784 0.40079 0.04267 0.0
C62 C 0.36167 0.33296 0.99719 0.0
O63 O 0.37836 0.34232 0.00714 0.0
O64 O 0.37603 0.38371 0.98021 0.0
C65 C 0.6414 0.97218 0.02891 0.0
O66 O 0.64232 0.98405 0.0478 0.0
O67 O 0.64997 0.01481 0.9943 0.0
Zn68 Zn 0.6269 0.99017 0.00137 0.0
O69 O 0.61454 0.99119 0.036 0.0
C70 C 0.61208 0.97792 0.94675 0.0
O71 O 0.62662 0.97678 0.9428 0.0
O72 O 0.63465 0.97159 0.00572 0.0
C73 C 0.60472 0.99832 0.03766 0.0
O74 O 0.60288 0.00629 0.01635 0.0
C75 C 0.65015 0.02707 0.97967 0.0
O76 O 0.6348 0.02421 0.96953 0.0
O77 O 0.60927 0.98297 0.97005 0.0
C78 C 0.69873 0.70395 0.37766 0.0
O79 O 0.69365 0.71243 0.39525 0.0
O80 O 0.65084 0.67933 0.33115 0.0
Zn81 Zn 0.67214 0.70446 0.34254 0.0
O82 O 0.6655 0.71566 0.37425 0.0
C83 C 0.67476 0.73257 0.30702 0.0
O84 O 0.66513 0.73464 0.32628 0.0
O85 O 0.69201 0.69992 0.35371 0.0
C86 C 0.6528 0.70591 0.39105 0.0
O87 O 0.64284 0.68773 0.38752 0.0
C88 C 0.63533 0.67607 0.32358 0.0
O89 O 0.63206 0.68962 0.32359 0.0
O90 O 0.67976 0.72095 0.30988 0.0
C91 C 0.33653 0.98165 0.32749 0.0
O92 O 0.32939 0.98894 0.31261 0.0
O93 O 0.30807 0.99427 0.36609 0.0
Zn94 Zn 0.30307 0.9689 0.35468 0.0
O95 O 0.28824 0.95866 0.32014 0.0
C96 C 0.27922 0.95295 0.40062 0.0
O97 O 0.27576 0.96604 0.39599 0.0
O98 O 0.32752 0.97164 0.34751 0.0
C99 C 0.27156 0.9536 0.31746 0.0
O100 O 0.26273 0.95577 0.33792 0.0
C101 C 0.30867 0.00641 0.35064 0.0
O102 O 0.305 0.00259 0.3245 0.0
O103 O 0.29039 0.95124 0.38539 0.0
C104 C 0.02182 0.37332 0.35213 0.0
O105 O 0.01159 0.3631 0.37234 0.0
O106 O 0.01808 0.33027 0.36836 0.0
Zn107 Zn 0.04118 0.35353 0.3568 0.0
O108 O 0.05329 0.34833 0.32524 0.0
C109 C 0.05856 0.35327 0.4056 0.0
O110 O 0.04689 0.33529 0.40224 0.0
O111 O 0.0349 0.37169 0.34328 0.0
C112 C 0.06073 0.33872 0.32559 0.0
O113 O 0.06028 0.33023 0.34788 0.0
C114 C 0.00601 0.31826 0.35201 0.0
O115 O 0.00835 0.3205 0.32553 0.0
O116 O 0.05868 0.36447 0.38871 0.0
C117 C 0.63986 0.97947 0.32971 0.0
O118 O 0.64962 0.99374 0.34647 0.0
O119 O 0.68593 0.99925 0.34887 0.0
Zn120 Zn 0.6695 0.9727 0.33548 0.0
O121 O 0.68041 0.96706 0.30279 0.0
C122 C 0.68088 0.95718 0.37473 0.0
O123 O 0.69632 0.96741 0.36157 0.0
O124 O 0.6453 0.96847 0.32334 0.0
C125 C 0.67566 0.95032 0.29712 0.0
O126 O 0.66425 0.93694 0.31321 0.0
C127 C 0.70259 0.00956 0.34194 0.0
O128 O 0.70986 0.00325 0.32431 0.0
O129 O 0.66648 0.95634 0.36663 0.0
C130 C 0.99401 0.70121 0.37287 0.0
O131 O 0.00472 0.70042 0.39093 0.0
O132 O 0.02112 0.68682 0.32818 0.0
Zn133 Zn 0.02529 0.71187 0.34026 0.0
O134 O 0.04099 0.72245 0.37434 0.0
C135 C 0.04895 0.72997 0.29499 0.0
O136 O 0.05578 0.71999 0.30211 0.0
O137 O 5e-05 0.70666 0.34898 0.0
C138 C 0.05798 0.72869 0.37684 0.0
O139 O 0.06758 0.72907 0.3555 0.0
C140 C 0.0309 0.67992 0.33248 0.0
O141 O 0.04606 0.68946 0.34673 0.0
O142 O 0.03595 0.72927 0.30874 0.0
C143 C 0.30851 0.29321 0.33495 0.0
O144 O 0.30774 0.29349 0.30822 0.0
O145 O 0.31726 0.34228 0.32342 0.0
Zn146 Zn 0.295 0.31896 0.33677 0.0
O147 O 0.2833 0.32404 0.36887 0.0
C148 C 0.27251 0.31798 0.29517 0.0
O149 O 0.279 0.3348 0.3057 0.0
O150 O 0.30347 0.30233 0.34981 0.0
C151 C 0.28423 0.33927 0.37478 0.0
O152 O 0.29362 0.35376 0.35927 0.0
C153 C 0.33148 0.35152 0.33818 0.0
O154 O 0.33109 0.34695 0.36369 0.0
O155 O 0.27705 0.30738 0.30564 0.0
C156 C 0.37749 0.03791 0.69442 0.0
O157 O 0.38227 0.05531 0.69921 0.0
O158 O 0.32137 0.01137 0.66204 0.0
Zn159 Zn 0.34519 0.03479 0.67227 0.0
O160 O 0.34289 0.04813 0.7056 0.0
C161 C 0.34361 0.05246 0.62441 0.0
O162 O 0.32598 0.04179 0.62902 0.0
O163 O 0.36256 0.02678 0.68217 0.0
C164 C 0.33752 0.05958 0.70572 0.0
O165 O 0.33186 0.0628 0.68298 0.0
C166 C 0.30903 0.00111 0.679 0.0
O167 O 0.31088 0.00625 0.70492 0.0
O168 O 0.3549 0.05191 0.64022 0.0
C169 C 0.01555 0.31774 0.68532 0.0
O170 O 0.01316 0.32928 0.70075 0.0
O171 O 0.97616 0.31868 0.6949 0.0
Zn172 Zn 0.97599 0.29506 0.68622 0.0
O173 O 0.96135 0.2813 0.6526 0.0
C174 C 0.95064 0.27566 0.72811 0.0
O175 O 0.9421 0.28242 0.71544 0.0
O176 O 0.00183 0.30212 0.67778 0.0
C177 C 0.94719 0.28057 0.64366 0.0
O178 O 0.94026 0.28917 0.65704 0.0
C179 C 0.97608 0.32987 0.67818 0.0
O180 O 0.97464 0.32594 0.65185 0.0
O181 O 0.9659 0.27876 0.71896 0.0
C182 C 0.6898 0.69845 0.65989 0.0
O183 O 0.68178 0.68156 0.64895 0.0
O184 O 0.68213 0.66215 0.70466 0.0
Zn185 Zn 0.706 0.68326 0.6904 0.0
O186 O 0.71429 0.675 0.65701 0.0
C187 C 0.72677 0.68202 0.73416 0.0
O188 O 0.71771 0.66429 0.72683 0.0
O189 O 0.70145 0.70306 0.67885 0.0
C190 C 0.72914 0.67519 0.6548 0.0
O191 O 0.74041 0.68062 0.6756 0.0
C192 C 0.67217 0.64659 0.69219 0.0
O193 O 0.67757 0.64315 0.66872 0.0
O194 O 0.72446 0.69335 0.72096 0.0
C195 C 0.31092 0.31695 0.65583 0.0
O196 O 0.32817 0.32831 0.6494 0.0
O197 O 0.34967 0.32262 0.68858 0.0
Zn198 Zn 0.32644 0.29816 0.6793 0.0
O199 O 0.33048 0.28662 0.64558 0.0
C200 C 0.31025 0.26335 0.70898 0.0
O201 O 0.30416 0.25506 0.685 0.0
O202 O 0.30649 0.30284 0.67008 0.0
C203 C 0.34504 0.28652 0.64132 0.0
O204 O 0.35797 0.29355 0.65996 0.0
C205 C 0.35371 0.32794 0.71339 0.0
O206 O 0.34255 0.31758 0.73277 0.0
O207 O 0.31937 0.28103 0.71105 0.0
C208 C 0.64892 0.01628 0.66737 0.0
O209 O 0.65156 0.00748 0.647 0.0
O210 O 0.68943 0.01645 0.65837 0.0
Zn211 Zn 0.68837 0.03954 0.66743 0.0
O212 O 0.70394 0.05377 0.7001 0.0
C213 C 0.71246 0.06759 0.62971 0.0
O214 O 0.72491 0.06894 0.64646 0.0
O215 O 0.66249 0.03061 0.67846 0.0
C216 C 0.71787 0.05376 0.70837 0.0
O217 O 0.72354 0.04398 0.69506 0.0
C218 C 0.70031 0.0161 0.64086 0.0
O219 O 0.71199 0.03134 0.62817 0.0
O220 O 0.69564 0.05633 0.63495 0.0
C221 C 0.96605 0.62834 0.68417 0.0
O222 O 0.97656 0.63612 0.66286 0.0
O223 O 0.98214 0.67415 0.66337 0.0
Zn224 Zn 0.95687 0.65661 0.67853 0.0
O225 O 0.95108 0.66877 0.70976 0.0
C226 C 0.9388 0.65959 0.63211 0.0
O227 O 0.95168 0.67725 0.6352 0.0
O228 O 0.95636 0.63453 0.69373 0.0
C229 C 0.93527 0.66635 0.71296 0.0
O230 O 0.92237 0.65639 0.69488 0.0
C231 C 0.99038 0.69179 0.66594 0.0
O232 O 0.98244 0.69946 0.67911 0.0
O233 O 0.93794 0.64792 0.64878 0.0
H234 H 0.24223 0.34005 0.14817 0.0
N235 N 0.21116 0.31285 0.12162 0.0
H236 H 0.25442 0.33709 0.19103 0.0
H237 H 0.19666 0.28336 0.15369 0.0
H238 H 0.20899 0.28053 0.19725 0.0
H239 H 0.2211 0.29337 0.09055 0.0
H240 H 0.24776 0.30565 0.06017 0.0
H241 H 0.23226 0.34911 0.10502 0.0
H242 H 0.25883 0.3613 0.07462 0.0
H243 H 0.21418 0.34177 0.15381 0.0
H244 H 0.18094 0.30029 0.09222 0.0
H245 H 0.19244 0.35166 0.15697 0.0
H246 H 0.15949 0.31107 0.09385 0.0
H247 H 0.12509 0.37973 0.18254 0.0
H248 H 0.11045 0.37386 0.22773 0.0
H249 H 0.08814 0.31497 0.21514 0.0
H250 H 0.1026 0.32075 0.17017 0.0
H251 H 0.08945 0.32437 0.12918 0.0
H252 H 0.0666 0.32517 0.10097 0.0
H253 H 0.1041 0.38377 0.08837 0.0
H254 H 0.12703 0.383 0.11681 0.0
H255 H 0.15838 0.37642 0.14544 0.0
H256 H 0.18075 0.36744 0.13617 0.0
H257 H 0.13656 0.31055 0.12072 0.0
N258 N 0.12232 0.35471 0.14562 0.0
H259 H 0.11452 0.32008 0.12792 0.0
C260 C 0.21847 0.3118 0.14748 0.0
C261 C 0.23482 0.32694 0.15847 0.0
C262 C 0.2418 0.32531 0.18301 0.0
C263 C 0.2326 0.30861 0.19713 0.0
C264 C 0.21623 0.29352 0.18651 0.0
C265 C 0.20923 0.29514 0.16181 0.0
C266 C 0.22464 0.32021 0.10008 0.0
C267 C 0.22894 0.30813 0.08652 0.0
C268 C 0.2441 0.31512 0.06927 0.0
C269 C 0.25515 0.33433 0.06524 0.0
C270 C 0.25031 0.34641 0.07738 0.0
C271 C 0.23513 0.33941 0.09471 0.0
C272 C 0.19902 0.31988 0.12309 0.0
C273 C 0.20225 0.33478 0.14078 0.0
C274 C 0.18983 0.34068 0.14228 0.0
C275 C 0.17408 0.3322 0.12568 0.0
C276 C 0.17121 0.31771 0.10737 0.0
C277 C 0.18352 0.31159 0.10624 0.0
C278 C 0.11506 0.3508 0.17297 0.0
C279 C 0.11727 0.36561 0.18973 0.0
C280 C 0.10893 0.36226 0.21536 0.0
C281 C 0.09822 0.34399 0.22458 0.0
C282 C 0.09639 0.32915 0.20827 0.0
C283 C 0.1047 0.3325 0.18258 0.0
C284 C 0.10998 0.35372 0.12514 0.0
C285 C 0.09302 0.33728 0.1198 0.0
C286 C 0.07995 0.33772 0.10371 0.0
C287 C 0.08371 0.35454 0.09274 0.0
C288 C 0.10103 0.37067 0.09663 0.0
C289 C 0.11406 0.37023 0.11275 0.0
C290 C 0.13485 0.34894 0.13791 0.0
C291 C 0.15362 0.36208 0.13968 0.0
C292 C 0.16635 0.35684 0.13465 0.0
C293 C 0.16054 0.33815 0.12821 0.0
C294 C 0.14164 0.32508 0.12547 0.0
C295 C 0.12892 0.33047 0.12998 0.0
H296 H 0.71597 0.79478 0.1559 0.0
N297 N 0.68828 0.78655 0.12279 0.0
H298 H 0.71407 0.78325 0.2022 0.0
H299 H 0.65708 0.76622 0.15292 0.0
H300 H 0.65525 0.75527 0.19915 0.0
H301 H 0.70047 0.76538 0.10373 0.0
H302 H 0.6829 0.73518 0.07935 0.0
H303 H 0.65368 0.77144 0.10119 0.0
H304 H 0.63634 0.7415 0.07617 0.0
H305 H 0.71271 0.81537 0.09422 0.0
H306 H 0.66251 0.79483 0.1394 0.0
H307 H 0.71412 0.84472 0.08733 0.0
H308 H 0.66411 0.82411 0.13351 0.0
H309 H 0.71969 0.9413 0.13867 0.0
H310 H 0.71696 0.95261 0.1844 0.0
H311 H 0.6686 0.89911 0.19947 0.0
H312 H 0.67137 0.88775 0.15425 0.0
H313 H 0.66113 0.90067 0.11871 0.0
H314 H 0.6481 0.91496 0.0923 0.0
H315 H 0.69626 0.94091 0.04152 0.0
H316 H 0.70982 0.92722 0.06899 0.0
H317 H 0.72311 0.90158 0.11702 0.0
H318 H 0.72045 0.87129 0.11551 0.0
H319 H 0.66222 0.84429 0.10188 0.0
N320 N 0.69647 0.90847 0.11481 0.0
H321 H 0.66495 0.87456 0.10423 0.0
C322 C 0.68676 0.78155 0.15103 0.0
C323 C 0.70272 0.78644 0.16547 0.0
C324 C 0.70164 0.77989 0.19174 0.0
C325 C 0.68453 0.76849 0.204 0.0
C326 C 0.66857 0.76417 0.19003 0.0
C327 C 0.66964 0.77051 0.16369 0.0
C328 C 0.67852 0.77075 0.10423 0.0
C329 C 0.68661 0.76045 0.09726 0.0
C330 C 0.6766 0.74325 0.08353 0.0
C331 C 0.65833 0.73613 0.07626 0.0
C332 C 0.65043 0.74682 0.08173 0.0
C333 C 0.66039 0.76396 0.09591 0.0
C334 C 0.6877 0.80296 0.11751 0.0
C335 C 0.70196 0.81717 0.10252 0.0
C336 C 0.70279 0.83394 0.09878 0.0
C337 C 0.6893 0.83685 0.11007 0.0
C338 C 0.67463 0.82231 0.12429 0.0
C339 C 0.6738 0.80552 0.12792 0.0
C340 C 0.69583 0.91374 0.14296 0.0
C341 C 0.70875 0.93192 0.15209 0.0
C342 C 0.70719 0.93835 0.17803 0.0
C343 C 0.69256 0.92666 0.19508 0.0
C344 C 0.67999 0.90826 0.1865 0.0
C345 C 0.68163 0.9018 0.16068 0.0
C346 C 0.68676 0.91326 0.09623 0.0
C347 C 0.6689 0.90922 0.10178 0.0
C348 C 0.66137 0.91729 0.0866 0.0
C349 C 0.67134 0.9292 0.06528 0.0
C350 C 0.68843 0.93186 0.05807 0.0
C351 C 0.69613 0.92406 0.07364 0.0
C352 C 0.69435 0.89044 0.11069 0.0
C353 C 0.70983 0.88912 0.11332 0.0
C354 C 0.70827 0.87179 0.11231 0.0
C355 C 0.6911 0.85532 0.10859 0.0
C356 C 0.67561 0.85668 0.10511 0.0
C357 C 0.67719 0.87405 0.10621 0.0
H358 H 0.09468 0.7562 0.13698 0.0
N359 N 0.09953 0.78798 0.11484 0.0
H360 H 0.08193 0.74412 0.18196 0.0
H361 H 0.08793 0.80287 0.15256 0.0
H362 H 0.07522 0.79071 0.19799 0.0
H363 H 0.06657 0.77391 0.09327 0.0
H364 H 0.04993 0.74601 0.06347 0.0
H365 H 0.11474 0.77011 0.0865 0.0
H366 H 0.09814 0.74257 0.05707 0.0
H367 H 0.12618 0.78145 0.13047 0.0
H368 H 0.117 0.82364 0.10174 0.0
H369 H 0.15868 0.80398 0.13352 0.0
H370 H 0.14958 0.84696 0.10709 0.0
H371 H 0.25618 0.88582 0.18014 0.0
H372 H 0.26297 0.90391 0.22333 0.0
H373 H 0.22436 0.91955 0.20233 0.0
H374 H 0.21746 0.90132 0.15915 0.0
H375 H 0.23834 0.91395 0.11996 0.0
H376 H 0.26226 0.93385 0.0875 0.0
H377 H 0.27887 0.89376 0.08035 0.0
H378 H 0.25504 0.8739 0.11328 0.0
H379 H 0.21184 0.85081 0.16775 0.0
H380 H 0.17951 0.82811 0.16057 0.0
H381 H 0.17937 0.85946 0.09233 0.0
N382 N 0.23314 0.88183 0.14124 0.0
H383 H 0.21128 0.88285 0.10122 0.0
C384 C 0.09215 0.78047 0.14131 0.0
C385 C 0.09049 0.76388 0.15002 0.0
C386 C 0.08323 0.75697 0.17567 0.0
C387 C 0.07767 0.76656 0.19309 0.0
C388 C 0.07947 0.78318 0.18468 0.0
C389 C 0.08666 0.79006 0.15891 0.0
C390 C 0.09185 0.77419 0.09271 0.0
C391 C 0.07371 0.76745 0.08486 0.0
C392 C 0.06423 0.75156 0.06798 0.0
C393 C 0.07282 0.74222 0.05844 0.0
C394 C 0.09132 0.74961 0.06444 0.0
C395 C 0.10078 0.76544 0.08148 0.0
C396 C 0.11911 0.80077 0.11525 0.0
C397 C 0.13116 0.79559 0.12464 0.0
C398 C 0.14985 0.80868 0.12685 0.0
C399 C 0.15693 0.82749 0.12089 0.0
C400 C 0.14481 0.83261 0.11143 0.0
C401 C 0.12614 0.81933 0.10847 0.0
C402 C 0.23639 0.89226 0.16656 0.0
C403 C 0.24915 0.8931 0.18494 0.0
C404 C 0.25299 0.90336 0.20943 0.0
C405 C 0.24415 0.913 0.21582 0.0
C406 C 0.23128 0.91216 0.19759 0.0
C407 C 0.22739 0.90182 0.17306 0.0
C408 C 0.24507 0.89248 0.11923 0.0
C409 C 0.24693 0.90928 0.1112 0.0
C410 C 0.2605 0.9206 0.0926 0.0
C411 C 0.27229 0.91524 0.08171 0.0
C412 C 0.26982 0.89804 0.08856 0.0
C413 C 0.2563 0.88677 0.10725 0.0
C414 C 0.21415 0.86846 0.13505 0.0
C415 C 0.20478 0.85275 0.15126 0.0
C416 C 0.18629 0.83967 0.14687 0.0
C417 C 0.1767 0.84169 0.12555 0.0
C418 C 0.18615 0.85746 0.10915 0.0
C419 C 0.2046 0.87085 0.11405 0.0
H420 H 0.33954 0.24256 0.85973 0.0
N421 N 0.31314 0.21362 0.88996 0.0
H422 H 0.33564 0.25159 0.81481 0.0
H423 H 0.2832 0.19699 0.85871 0.0
H424 H 0.27937 0.20621 0.81313 0.0
H425 H 0.29384 0.22356 0.92094 0.0
H426 H 0.30567 0.2517 0.95044 0.0
H427 H 0.34914 0.23803 0.90371 0.0
H428 H 0.36088 0.26632 0.93247 0.0
H429 H 0.34104 0.21438 0.86007 0.0
H430 H 0.30168 0.18563 0.92391 0.0
H431 H 0.3515 0.19295 0.86293 0.0
H432 H 0.31301 0.1646 0.92824 0.0
H433 H 0.38121 0.1246 0.85412 0.0
H434 H 0.37558 0.10897 0.80892 0.0
H435 H 0.31844 0.09065 0.81528 0.0
H436 H 0.32391 0.10582 0.8604 0.0
H437 H 0.32667 0.09152 0.90214 0.0
H438 H 0.32681 0.06869 0.93168 0.0
H439 H 0.3838 0.10741 0.94997 0.0
H440 H 0.38367 0.13035 0.92035 0.0
H441 H 0.37756 0.16148 0.88442 0.0
H442 H 0.36805 0.1841 0.88847 0.0
H443 H 0.31289 0.13947 0.90647 0.0
N444 N 0.35682 0.12485 0.88776 0.0
H445 H 0.32294 0.11735 0.90436 0.0
C446 C 0.31155 0.21902 0.86285 0.0
C447 C 0.32631 0.23445 0.85001 0.0
C448 C 0.32415 0.23963 0.82424 0.0
C449 C 0.30724 0.22959 0.81082 0.0
C450 C 0.29252 0.21411 0.82331 0.0
C451 C 0.2947 0.20887 0.84916 0.0
C452 C 0.32052 0.22875 0.90997 0.0
C453 C 0.30847 0.23261 0.92392 0.0
C454 C 0.31518 0.24857 0.94068 0.0
C455 C 0.33411 0.26102 0.94342 0.0
C456 C 0.34623 0.25681 0.93055 0.0
C457 C 0.33951 0.24069 0.91411 0.0
C458 C 0.32018 0.20143 0.89147 0.0
C459 C 0.33462 0.20351 0.87484 0.0
C460 C 0.34085 0.1913 0.87682 0.0
C461 C 0.33318 0.17696 0.89589 0.0
C462 C 0.31906 0.17522 0.91297 0.0
C463 C 0.31262 0.18728 0.91065 0.0
C464 C 0.35312 0.11659 0.8606 0.0
C465 C 0.36752 0.11735 0.84563 0.0
C466 C 0.36431 0.10845 0.81999 0.0
C467 C 0.3466 0.0987 0.80891 0.0
C468 C 0.33219 0.09815 0.82358 0.0
C469 C 0.33538 0.1069 0.84933 0.0
C470 C 0.35524 0.11271 0.90907 0.0
C471 C 0.33904 0.0954 0.91315 0.0
C472 C 0.33911 0.08234 0.92996 0.0
C473 C 0.35532 0.08643 0.94287 0.0
C474 C 0.37115 0.10411 0.94024 0.0
C475 C 0.37107 0.11715 0.92345 0.0
C476 C 0.35098 0.13776 0.89363 0.0
C477 C 0.36351 0.15672 0.88976 0.0
C478 C 0.35795 0.16956 0.89174 0.0
C479 C 0.33956 0.16362 0.89717 0.0
C480 C 0.32718 0.14465 0.90236 0.0
C481 C 0.33287 0.13187 0.90088 0.0
H482 H 0.73324 0.12371 0.84465 0.0
N483 N 0.757 0.12831 0.88285 0.0
H484 H 0.72576 0.10501 0.80194 0.0
H485 H 0.77358 0.10998 0.86352 0.0
H486 H 0.76611 0.0913 0.82076 0.0
H487 H 0.75679 0.09913 0.90632 0.0
H488 H 0.73248 0.07573 0.93502 0.0
H489 H 0.72942 0.12971 0.90534 0.0
H490 H 0.70461 0.10583 0.93327 0.0
H491 H 0.77952 0.1576 0.85347 0.0
H492 H 0.77802 0.12978 0.92701 0.0
H493 H 0.81209 0.17957 0.86016 0.0
H494 H 0.81025 0.15211 0.9343 0.0
H495 H 0.89869 0.24993 0.8837 0.0
H496 H 0.91313 0.26241 0.83959 0.0
H497 H 0.91775 0.21448 0.82403 0.0
H498 H 0.90318 0.20186 0.8684 0.0
H499 H 0.92493 0.22986 0.9263 0.0
H500 H 0.94239 0.25657 0.95786 0.0
H501 H 0.89554 0.26218 0.96733 0.0
H502 H 0.87829 0.23609 0.93545 0.0
H503 H 0.86689 0.2259 0.88893 0.0
H504 H 0.83394 0.20489 0.88653 0.0
H505 H 0.83949 0.16058 0.91723 0.0
N506 N 0.892 0.21742 0.90564 0.0
H507 H 0.8726 0.18219 0.92089 0.0
C508 C 0.75393 0.11827 0.85714 0.0
C509 C 0.74058 0.11682 0.8394 0.0
C510 C 0.73633 0.10619 0.81519 0.0
C511 C 0.74543 0.09688 0.80836 0.0
C512 C 0.75902 0.09848 0.82579 0.0
C513 C 0.76324 0.10908 0.85011 0.0
C514 C 0.74505 0.11638 0.904 0.0
C515 C 0.74582 0.10109 0.91286 0.0
C516 C 0.7319 0.08768 0.92914 0.0
C517 C 0.71672 0.08902 0.93623 0.0
C518 C 0.71629 0.10463 0.92828 0.0
C519 C 0.73042 0.11824 0.91244 0.0
C520 C 0.7761 0.14163 0.88915 0.0
C521 C 0.78614 0.15628 0.87117 0.0
C522 C 0.80478 0.16897 0.87519 0.0
C523 C 0.81391 0.16764 0.89777 0.0
C524 C 0.80379 0.15333 0.91634 0.0
C525 C 0.78513 0.14045 0.91211 0.0
C526 C 0.89986 0.22489 0.87935 0.0
C527 C 0.90264 0.24199 0.87081 0.0
C528 C 0.91091 0.24914 0.8457 0.0
C529 C 0.91645 0.23933 0.8287 0.0
C530 C 0.9135 0.22218 0.83695 0.0
C531 C 0.90523 0.21502 0.86212 0.0
C532 C 0.90033 0.23086 0.92807 0.0
C533 C 0.9183 0.23661 0.93558 0.0
C534 C 0.92824 0.25182 0.95351 0.0
C535 C 0.92027 0.26141 0.96464 0.0
C536 C 0.90192 0.25498 0.95877 0.0
C537 C 0.89207 0.23997 0.94041 0.0
C538 C 0.87228 0.20563 0.90529 0.0
C539 C 0.86107 0.21175 0.89545 0.0
C540 C 0.84214 0.19961 0.89386 0.0
C541 C 0.83396 0.18093 0.90146 0.0
C542 C 0.84521 0.17491 0.91158 0.0
C543 C 0.86415 0.18719 0.91355 0.0
H544 H 0.78043 0.72605 0.89257 0.0
N545 N 0.7932 0.70549 0.91 0.0
H546 H 0.76544 0.72279 0.84854 0.0
H547 H 0.79236 0.68441 0.86513 0.0
H548 H 0.77778 0.68152 0.82146 0.0
H549 H 0.76578 0.66892 0.9017 0.0
H550 H 0.73659 0.65324 0.92595 0.0
H551 H 0.78606 0.71608 0.95783 0.0
H552 H 0.75692 0.69998 0.98281 0.0
H553 H 0.82699 0.73456 0.91514 0.0
H554 H 0.79601 0.67452 0.91093 0.0
H555 H 0.85546 0.73462 0.91538 0.0
H556 H 0.82426 0.67438 0.90967 0.0
H557 H 0.93827 0.72354 0.86467 0.0
H558 H 0.94442 0.71558 0.81864 0.0
H559 H 0.88971 0.66723 0.81512 0.0
H560 H 0.88346 0.67533 0.8609 0.0
H561 H 0.89301 0.66608 0.90019 0.0
H562 H 0.9063 0.65132 0.92511 0.0
H563 H 0.95027 0.70537 0.95296 0.0
H564 H 0.93663 0.72021 0.92854 0.0
H565 H 0.90098 0.72858 0.87751 0.0
H566 H 0.87307 0.72906 0.88395 0.0
H567 H 0.85062 0.68 0.93295 0.0
N568 N 0.90832 0.70372 0.89451 0.0
H569 H 0.87801 0.67909 0.92554 0.0
C570 C 0.78767 0.70566 0.88232 0.0
C571 C 0.78033 0.71668 0.87686 0.0
C572 C 0.77177 0.71479 0.8519 0.0
C573 C 0.7706 0.70194 0.83195 0.0
C574 C 0.77872 0.69159 0.83666 0.0
C575 C 0.78711 0.69334 0.86168 0.0
C576 C 0.77805 0.69392 0.92773 0.0
C577 C 0.76424 0.67566 0.91978 0.0
C578 C 0.74755 0.66666 0.93364 0.0
C579 C 0.74457 0.67558 0.95589 0.0
C580 C 0.75899 0.69293 0.96558 0.0
C581 C 0.77558 0.70208 0.95143 0.0
C582 C 0.80942 0.70465 0.91285 0.0
C583 C 0.82637 0.7214 0.91442 0.0
C584 C 0.8426 0.72138 0.91426 0.0
C585 C 0.84222 0.70451 0.91212 0.0
C586 C 0.82514 0.68764 0.9116 0.0
C587 C 0.80889 0.68769 0.91216 0.0
C588 C 0.91051 0.70004 0.86619 0.0
C589 C 0.9275 0.71148 0.85369 0.0
C590 C 0.93099 0.70695 0.82758 0.0
C591 C 0.9175 0.69084 0.8137 0.0
C592 C 0.90023 0.67974 0.82563 0.0
C593 C 0.8967 0.68434 0.8517 0.0
C594 C 0.91377 0.69436 0.91274 0.0
C595 C 0.90519 0.67479 0.91226 0.0
C596 C 0.91277 0.66633 0.92642 0.0
C597 C 0.9293 0.67729 0.94065 0.0
C598 C 0.93748 0.69671 0.9421 0.0
C599 C 0.9297 0.70515 0.92831 0.0
C600 C 0.89181 0.70379 0.90057 0.0
C601 C 0.89004 0.71794 0.88967 0.0
C602 C 0.87409 0.71827 0.89361 0.0
C603 C 0.85951 0.70455 0.90901 0.0
C604 C 0.86141 0.69059 0.92055 0.0
C605 C 0.8773 0.69013 0.9163 0.0
H606 H 0.72928 0.627 0.49578 0.0
N607 N 0.76024 0.64775 0.46856 0.0
H608 H 0.7219 0.63277 0.54239 0.0
H609 H 0.78399 0.67491 0.50489 0.0
H610 H 0.77658 0.68067 0.55124 0.0
H611 H 0.77279 0.68515 0.46747 0.0
H612 H 0.75929 0.69923 0.44138 0.0
H613 H 0.73615 0.63185 0.42812 0.0
H614 H 0.72269 0.6461 0.40176 0.0
H615 H 0.76317 0.61819 0.47117 0.0
H616 H 0.79443 0.67681 0.45425 0.0
H617 H 0.79073 0.61678 0.4661 0.0
H618 H 0.82191 0.67543 0.44818 0.0
H619 H 0.90287 0.6398 0.46833 0.0
H620 H 0.91636 0.64284 0.51284 0.0
H621 H 0.86909 0.63855 0.55195 0.0
H622 H 0.85569 0.63642 0.50748 0.0
H623 H 0.89919 0.6767 0.46422 0.0
H624 H 0.92765 0.6929 0.43821 0.0
H625 H 0.90643 0.64638 0.38079 0.0
H626 H 0.87798 0.62987 0.40734 0.0
H627 H 0.83972 0.61575 0.43521 0.0
H628 H 0.81256 0.61815 0.4342 0.0
H629 H 0.84295 0.67211 0.47533 0.0
N630 N 0.8722 0.64 0.45665 0.0
H631 H 0.87005 0.66975 0.47548 0.0
C632 C 0.75712 0.65043 0.49688 0.0
C633 C 0.73974 0.63854 0.50798 0.0
C634 C 0.73555 0.64182 0.53441 0.0
C635 C 0.74873 0.65712 0.55006 0.0
C636 C 0.7663 0.66877 0.53937 0.0
C637 C 0.7705 0.66545 0.51296 0.0
C638 C 0.75538 0.65731 0.4498 0.0
C639 C 0.76224 0.67656 0.45269 0.0
C640 C 0.75456 0.68465 0.43779 0.0
C641 C 0.74001 0.67366 0.41979 0.0
C642 C 0.73398 0.65477 0.41552 0.0
C643 C 0.74164 0.64668 0.43047 0.0
C644 C 0.77661 0.64747 0.46296 0.0
C645 C 0.77594 0.63067 0.46586 0.0
C646 C 0.7917 0.6299 0.4628 0.0
C647 C 0.80857 0.64599 0.45664 0.0
C648 C 0.80919 0.66282 0.45323 0.0
C649 C 0.79339 0.66359 0.45646 0.0
C650 C 0.87893 0.6397 0.48379 0.0
C651 C 0.89543 0.63998 0.48626 0.0
C652 C 0.90312 0.64149 0.51176 0.0
C653 C 0.89403 0.64162 0.53565 0.0
C654 C 0.8766 0.63913 0.53365 0.0
C655 C 0.86907 0.63813 0.50802 0.0
C656 C 0.88652 0.65189 0.43787 0.0
C657 C 0.90026 0.67027 0.44542 0.0
C658 C 0.91657 0.6795 0.43067 0.0
C659 C 0.91919 0.67068 0.40789 0.0
C660 C 0.90465 0.65332 0.39844 0.0
C661 C 0.88845 0.64394 0.41349 0.0
C662 C 0.85681 0.64244 0.45549 0.0
C663 C 0.84048 0.62814 0.44375 0.0
C664 C 0.82499 0.62951 0.44337 0.0
C665 C 0.8255 0.64526 0.4549 0.0
C666 C 0.8421 0.65989 0.46594 0.0
C667 C 0.85765 0.65856 0.4661 0.0
H668 H 0.3867 0.11378 0.47266 0.0
N669 N 0.36498 0.12537 0.45692 0.0
H670 H 0.38416 0.09717 0.51453 0.0
H671 H 0.343 0.12101 0.50137 0.0
H672 H 0.3407 0.10471 0.54289 0.0
H673 H 0.32938 0.09633 0.46081 0.0
H674 H 0.31472 0.0685 0.43083 0.0
H675 H 0.37673 0.12133 0.40828 0.0
H676 H 0.36172 0.09365 0.37765 0.0
H677 H 0.39295 0.15962 0.4496 0.0
H678 H 0.33446 0.12796 0.46009 0.0
H679 H 0.39251 0.18819 0.44703 0.0
H680 H 0.33392 0.15651 0.45995 0.0
H681 H 0.38459 0.27631 0.48197 0.0
H682 H 0.38025 0.28647 0.52758 0.0
H683 H 0.33176 0.23233 0.53876 0.0
H684 H 0.33622 0.22212 0.49333 0.0
H685 H 0.32748 0.2331 0.45372 0.0
H686 H 0.3145 0.24395 0.42027 0.0
H687 H 0.36626 0.27263 0.37818 0.0
H688 H 0.37949 0.26218 0.41229 0.0
H689 H 0.38975 0.23829 0.47352 0.0
H690 H 0.38971 0.20943 0.47352 0.0
H691 H 0.33635 0.18046 0.43503 0.0
N692 N 0.36351 0.24335 0.45715 0.0
H693 H 0.33597 0.20905 0.43722 0.0
C694 C 0.36521 0.1188 0.48372 0.0
C695 C 0.37696 0.11227 0.48823 0.0
C696 C 0.37548 0.10277 0.51196 0.0
C697 C 0.36223 0.09977 0.53161 0.0
C698 C 0.35104 0.10702 0.52789 0.0
C699 C 0.35244 0.11641 0.50411 0.0
C700 C 0.35438 0.11077 0.43698 0.0
C701 C 0.33643 0.09609 0.44246 0.0
C702 C 0.32801 0.08023 0.42532 0.0
C703 C 0.33725 0.07901 0.40227 0.0
C704 C 0.35443 0.09437 0.39543 0.0
C705 C 0.36296 0.1101 0.41281 0.0
C706 C 0.36389 0.14178 0.45555 0.0
C707 C 0.38005 0.15893 0.45174 0.0
C708 C 0.37974 0.17527 0.45054 0.0
C709 C 0.3632 0.17485 0.45372 0.0
C710 C 0.34691 0.15748 0.45714 0.0
C711 C 0.34721 0.14109 0.45764 0.0
C712 C 0.36079 0.24856 0.48431 0.0
C713 C 0.37312 0.26664 0.49436 0.0
C714 C 0.37065 0.27239 0.52024 0.0
C715 C 0.35571 0.26011 0.5364 0.0
C716 C 0.34339 0.24194 0.52653 0.0
C717 C 0.34592 0.23616 0.50067 0.0
C718 C 0.35465 0.24718 0.43577 0.0
C719 C 0.33606 0.24159 0.43728 0.0
C720 C 0.32859 0.24766 0.41808 0.0
C721 C 0.33948 0.25916 0.39695 0.0
C722 C 0.35768 0.26376 0.39441 0.0
C723 C 0.36521 0.25785 0.4138 0.0
C724 C 0.36307 0.22602 0.45513 0.0
C725 C 0.37808 0.22568 0.46505 0.0
C726 C 0.37806 0.20914 0.46478 0.0
C727 C 0.36309 0.19248 0.45399 0.0
C728 C 0.34803 0.19287 0.44385 0.0
C729 C 0.3479 0.20938 0.44475 0.0
H730 H 0.76751 0.09831 0.48081 0.0
N731 N 0.76995 0.12748 0.4534 0.0
H732 H 0.75229 0.08622 0.52426 0.0
H733 H 0.75374 0.14068 0.48566 0.0
H734 H 0.73807 0.12819 0.52951 0.0
H735 H 0.73968 0.11546 0.42438 0.0
H736 H 0.72428 0.08762 0.39405 0.0
H737 H 0.78402 0.10628 0.43575 0.0
H738 H 0.76863 0.07857 0.40559 0.0
H739 H 0.79659 0.12757 0.48478 0.0
H740 H 0.78809 0.15617 0.42055 0.0
H741 H 0.82906 0.14948 0.48294 0.0
H742 H 0.82121 0.17784 0.41743 0.0
H743 H 0.92937 0.21774 0.49296 0.0
H744 H 0.93854 0.2324 0.53887 0.0
H745 H 0.89927 0.24931 0.5343 0.0
H746 H 0.89021 0.23492 0.4887 0.0
H747 H 0.91133 0.25241 0.4509 0.0
H748 H 0.93492 0.27561 0.42108 0.0
H749 H 0.94739 0.23495 0.39106 0.0
H750 H 0.92417 0.21182 0.42182 0.0
H751 H 0.88796 0.18086 0.46209 0.0
H752 H 0.85521 0.15828 0.45726 0.0
H753 H 0.84653 0.20308 0.44017 0.0
N754 N 0.9051 0.21754 0.45973 0.0
H755 H 0.87946 0.22527 0.44316 0.0
C756 C 0.76188 0.12058 0.47988 0.0
C757 C 0.76132 0.10512 0.49118 0.0
C758 C 0.75264 0.09819 0.51607 0.0
C759 C 0.74417 0.10638 0.53008 0.0
C760 C 0.74469 0.12181 0.51903 0.0
C761 C 0.75358 0.1289 0.49413 0.0
C762 C 0.76295 0.11301 0.43233 0.0
C763 C 0.74628 0.10774 0.41979 0.0
C764 C 0.73753 0.09192 0.40259 0.0
C765 C 0.74538 0.08115 0.39772 0.0
C766 C 0.76247 0.08684 0.40909 0.0
C767 C 0.77124 0.10267 0.42626 0.0
C768 C 0.78958 0.1403 0.45301 0.0
C769 C 0.80156 0.1385 0.47015 0.0
C770 C 0.8204 0.15102 0.46879 0.0
C771 C 0.82791 0.16545 0.44989 0.0
C772 C 0.81596 0.16709 0.43252 0.0
C773 C 0.79703 0.15468 0.43417 0.0
C774 C 0.90908 0.22507 0.48736 0.0
C775 C 0.92259 0.22439 0.50203 0.0
C776 C 0.92779 0.23271 0.52809 0.0
C777 C 0.91947 0.2418 0.53983 0.0
C778 C 0.9057 0.24221 0.52553 0.0
C779 C 0.90054 0.23394 0.49946 0.0
C780 C 0.91623 0.23041 0.43893 0.0
C781 C 0.91891 0.24833 0.43773 0.0
C782 C 0.93235 0.26159 0.42065 0.0
C783 C 0.94302 0.25703 0.40417 0.0
C784 C 0.93935 0.23873 0.40378 0.0
C785 C 0.92613 0.22558 0.4212 0.0
C786 C 0.88609 0.20469 0.45344 0.0
C787 C 0.87896 0.18568 0.4568 0.0
C788 C 0.86021 0.17286 0.45436 0.0
C789 C 0.84808 0.17885 0.44899 0.0
C790 C 0.85539 0.19789 0.44426 0.0
C791 C 0.87426 0.21067 0.44621 0.0
H792 H 0.95962 0.56503 0.21417 0.0
N793 N 0.9836 0.55769 0.23453 0.0
H794 H 0.96075 0.57808 0.16942 0.0
H795 H 0.0073 0.56274 0.19255 0.0
H796 H 0.00808 0.57528 0.1478 0.0
H797 H 0.9689 0.56372 0.27879 0.0
H798 H 0.98135 0.59306 0.30565 0.0
H799 H 0.01837 0.58833 0.23081 0.0
H800 H 0.03084 0.61729 0.25788 0.0
H801 H 0.01676 0.56139 0.24681 0.0
H802 H 0.96005 0.52136 0.22812 0.0
H803 H 0.023 0.53659 0.24751 0.0
H804 H 0.96643 0.49631 0.22781 0.0
H805 H 0.03318 0.45207 0.19087 0.0
H806 H 0.0242 0.43317 0.14826 0.0
H807 H 0.96859 0.41934 0.15966 0.0
H808 H 0.97754 0.43811 0.20238 0.0
H809 H 0.98167 0.42575 0.24552 0.0
H810 H 0.98191 0.40548 0.28011 0.0
H811 H 0.04002 0.44308 0.2908 0.0
H812 H 0.03976 0.46351 0.2563 0.0
H813 H 0.03237 0.49187 0.21039 0.0
H814 H 0.02557 0.51653 0.21488 0.0
H815 H 0.97454 0.47838 0.25483 0.0
N816 N 0.01182 0.45687 0.22529 0.0
H817 H 0.98122 0.4537 0.24936 0.0
C818 C 0.98319 0.56273 0.20673 0.0
C819 C 0.97 0.56689 0.19956 0.0
C820 C 0.97067 0.57434 0.17418 0.0
C821 C 0.98447 0.57755 0.15546 0.0
C822 C 0.99728 0.57275 0.16202 0.0
C823 C 0.99676 0.56553 0.18755 0.0
C824 C 0.99265 0.57371 0.25295 0.0
C825 C 0.98261 0.57519 0.27464 0.0
C826 C 0.98968 0.59187 0.28987 0.0
C827 C 0.00698 0.60726 0.28365 0.0
C828 C 0.0175 0.6055 0.26301 0.0
C829 C 0.01037 0.58893 0.24763 0.0
C830 C 0.98776 0.5433 0.23749 0.0
C831 C 0.00554 0.54731 0.24304 0.0
C832 C 0.00919 0.53302 0.24319 0.0
C833 C 0.99527 0.51444 0.2375 0.0
C834 C 0.97744 0.51041 0.23261 0.0
C835 C 0.97378 0.52471 0.23266 0.0
C836 C 0.00613 0.44658 0.19966 0.0
C837 C 0.0191 0.44507 0.18404 0.0
C838 C 0.01398 0.4343 0.1599 0.0
C839 C 0.99575 0.42486 0.15101 0.0
C840 C 0.98272 0.42653 0.16633 0.0
C841 C 0.98785 0.43726 0.19062 0.0
C842 C 0.01079 0.4462 0.24838 0.0
C843 C 0.99438 0.42995 0.25578 0.0
C844 C 0.99449 0.41836 0.27548 0.0
C845 C 0.01099 0.42282 0.28783 0.0
C846 C 0.02717 0.43949 0.28149 0.0
C847 C 0.02703 0.4511 0.26191 0.0
C848 C 0.00746 0.47104 0.22964 0.0
C849 C 0.01978 0.48892 0.22024 0.0
C850 C 0.0159 0.503 0.22302 0.0
C851 C 0.99954 0.49949 0.2354 0.0
C852 C 0.98719 0.48152 0.24499 0.0
C853 C 0.99107 0.4674 0.24206 0.0
H854 H 0.599 0.55798 0.22478 0.0
N855 N 0.56586 0.55055 0.2385 0.0
H856 H 0.616 0.57279 0.18287 0.0
H857 H 0.55135 0.55539 0.19207 0.0
H858 H 0.56836 0.57036 0.15068 0.0
H859 H 0.55678 0.57676 0.23042 0.0
H860 H 0.5708 0.60715 0.25398 0.0
H861 H 0.58418 0.56016 0.28525 0.0
H862 H 0.59795 0.59059 0.30927 0.0
H863 H 0.55973 0.51775 0.25238 0.0
H864 H 0.53201 0.54567 0.23 0.0
H865 H 0.53039 0.48835 0.25508 0.0
H866 H 0.50274 0.51622 0.23085 0.0
H867 H 0.43592 0.39773 0.20727 0.0
H868 H 0.42096 0.38812 0.16222 0.0
H869 H 0.42457 0.44087 0.1569 0.0
H870 H 0.43955 0.45049 0.20181 0.0
H871 H 0.41998 0.43831 0.24278 0.0
H872 H 0.39277 0.42165 0.27155 0.0
H873 H 0.41332 0.38894 0.30305 0.0
H874 H 0.44058 0.40555 0.27404 0.0
H875 H 0.47913 0.43596 0.22371 0.0
H876 H 0.50807 0.46577 0.22574 0.0
H877 H 0.47986 0.49232 0.25768 0.0
N878 N 0.44609 0.42918 0.23519 0.0
H879 H 0.45089 0.46258 0.25414 0.0
C880 C 0.57394 0.55555 0.2117 0.0
C881 C 0.59207 0.5601 0.20831 0.0
C882 C 0.60175 0.56858 0.18456 0.0
C883 C 0.59339 0.57269 0.1639 0.0
C884 C 0.57497 0.56723 0.16648 0.0
C885 C 0.56526 0.55865 0.19016 0.0
C886 C 0.56961 0.5662 0.25598 0.0
C887 C 0.5652 0.5793 0.24813 0.0
C888 C 0.57318 0.59668 0.26158 0.0
C889 C 0.5854 0.60102 0.28322 0.0
C890 C 0.58844 0.58736 0.29269 0.0
C891 C 0.58061 0.57006 0.27906 0.0
C892 C 0.54813 0.53379 0.24059 0.0
C893 C 0.54727 0.51746 0.24787 0.0
C894 C 0.53049 0.50066 0.24917 0.0
C895 C 0.51413 0.49977 0.24278 0.0
C896 C 0.51499 0.51634 0.23611 0.0
C897 C 0.53182 0.53322 0.23524 0.0
C898 C 0.43888 0.42477 0.2078 0.0
C899 C 0.4337 0.40729 0.19618 0.0
C900 C 0.42519 0.40182 0.17065 0.0
C901 C 0.42171 0.41382 0.15643 0.0
C902 C 0.42722 0.4315 0.16767 0.0
C903 C 0.43576 0.43696 0.19322 0.0
C904 C 0.43233 0.42307 0.2562 0.0
C905 C 0.419 0.42801 0.25647 0.0
C906 C 0.40346 0.41853 0.2729 0.0
C907 C 0.4011 0.40409 0.2893 0.0
C908 C 0.41501 0.40014 0.29061 0.0
C909 C 0.43052 0.40959 0.27415 0.0
C910 C 0.46289 0.44691 0.239 0.0
C911 C 0.47927 0.44822 0.23135 0.0
C912 C 0.49582 0.46529 0.23271 0.0
C913 C 0.49641 0.48153 0.24209 0.0
C914 C 0.47994 0.48017 0.25007 0.0
C915 C 0.4633 0.46306 0.24835 0.0
H916 H 0.54274 0.94717 0.18005 0.0
N917 N 0.53897 0.96886 0.21661 0.0
H918 H 0.55869 0.95618 0.13587 0.0
H919 H 0.55504 0.00333 0.19408 0.0
H920 H 0.57103 0.01234 0.14995 0.0
H921 H 0.56994 0.00095 0.23433 0.0
H922 H 0.59335 0.00292 0.26461 0.0
H923 H 0.53675 0.94166 0.24577 0.0
H924 H 0.56024 0.94369 0.27644 0.0
H925 H 0.50865 0.95837 0.18877 0.0
H926 H 0.5396 0.99212 0.25883 0.0
H927 H 0.48715 0.96859 0.19532 0.0
H928 H 0.51753 0.00131 0.26657 0.0
H929 H 0.41812 0.98823 0.21632 0.0
H930 H 0.40643 0.98781 0.17118 0.0
H931 H 0.45882 0.03521 0.14925 0.0
H932 H 0.47034 0.03649 0.19552 0.0
H933 H 0.44264 0.03692 0.25759 0.0
H934 H 0.41528 0.02839 0.28497 0.0
H935 H 0.40445 0.97267 0.2915 0.0
H936 H 0.43155 0.98097 0.2645 0.0
H937 H 0.44328 0.97863 0.2215 0.0
H938 H 0.46353 0.96662 0.2206 0.0
H939 H 0.50789 0.02024 0.25026 0.0
N940 N 0.45234 0.014 0.2367 0.0
H941 H 0.48693 0.03156 0.25313 0.0
C942 C 0.54768 0.9745 0.19027 0.0
C943 C 0.54878 0.96137 0.17349 0.0
C944 C 0.55785 0.9665 0.14844 0.0
C945 C 0.56602 0.9849 0.13985 0.0
C946 C 0.56481 0.99808 0.15638 0.0
C947 C 0.55571 0.99294 0.18148 0.0
C948 C 0.55157 0.97106 0.23771 0.0
C949 C 0.56752 0.98842 0.2437 0.0
C950 C 0.58085 0.98957 0.26104 0.0
C951 C 0.57844 0.97345 0.27265 0.0
C952 C 0.56221 0.95627 0.26774 0.0
C953 C 0.54887 0.95512 0.25035 0.0
C954 C 0.52601 0.97454 0.22282 0.0
C955 C 0.5107 0.96779 0.20578 0.0
C956 C 0.49826 0.97352 0.20979 0.0
C957 C 0.50049 0.98584 0.23155 0.0
C958 C 0.51553 0.99216 0.24922 0.0
C959 C 0.52822 0.98673 0.24483 0.0
C960 C 0.44511 0.01278 0.20969 0.0
C961 C 0.42713 0.99879 0.20218 0.0
C962 C 0.42042 0.99844 0.17628 0.0
C963 C 0.4317 0.01158 0.15698 0.0
C964 C 0.44985 0.02509 0.16399 0.0
C965 C 0.4564 0.0258 0.19025 0.0
C966 C 0.43924 0.0097 0.25852 0.0
C967 C 0.43476 0.02306 0.26574 0.0
C968 C 0.41916 0.0182 0.28125 0.0
C969 C 0.40786 0.99988 0.28993 0.0
C970 C 0.41308 0.98688 0.28488 0.0
C971 C 0.42865 0.99171 0.26932 0.0
C972 C 0.46355 0.00596 0.23791 0.0
C973 C 0.45723 0.98763 0.22852 0.0
C974 C 0.46898 0.98088 0.22759 0.0
C975 C 0.48751 0.99246 0.23511 0.0
C976 C 0.49369 0.01073 0.24477 0.0
C977 C 0.48178 0.01731 0.24631 0.0
H978 H 0.41019 0.95136 0.83654 0.0
N979 N 0.42788 0.97517 0.79668 0.0
H980 H 0.40204 0.95832 0.88191 0.0
H981 H 0.43911 0.00991 0.81874 0.0
H982 H 0.43039 0.01663 0.86329 0.0
H983 H 0.45036 0.00786 0.7701 0.0
H984 H 0.4401 0.02404 0.74155 0.0
H985 H 0.39464 0.96173 0.77671 0.0
H986 H 0.38441 0.97802 0.74823 0.0
H987 H 0.42999 0.94842 0.77045 0.0
H988 H 0.46292 0.00112 0.81338 0.0
H989 H 0.45687 0.94579 0.76452 0.0
H990 H 0.48962 0.99827 0.80869 0.0
H991 H 0.54504 0.93783 0.80009 0.0
H992 H 0.56193 0.94037 0.84178 0.0
H993 H 0.56327 0.99064 0.86586 0.0
H994 H 0.54643 0.98813 0.82439 0.0
H995 H 0.56662 0.99815 0.78334 0.0
H996 H 0.59232 0.01088 0.75152 0.0
H997 H 0.56501 0.95973 0.70345 0.0
H998 H 0.53909 0.94677 0.73558 0.0
H999 H 0.50222 0.93607 0.78922 0.0
H1000 H 0.47583 0.93971 0.79149 0.0
H1001 H 0.51145 0.99865 0.7777 0.0
N1002 N 0.53705 0.96222 0.7826 0.0
H1003 H 0.53771 0.995 0.77661 0.0
C1004 C 0.42498 0.97997 0.82406 0.0
C1005 C 0.41488 0.96566 0.84247 0.0
C1006 C 0.41023 0.9696 0.8682 0.0
C1007 C 0.41545 0.98794 0.87563 0.0
C1008 C 0.42614 0.00239 0.85772 0.0
C1009 C 0.43105 0.9985 0.83225 0.0
C1010 C 0.42318 0.98348 0.77554 0.0
C1011 C 0.43603 0.00094 0.76477 0.0
C1012 C 0.43021 0.01022 0.74854 0.0
C1013 C 0.41154 0.00217 0.74294 0.0
C1014 C 0.39888 0.98435 0.75231 0.0
C1015 C 0.40469 0.97507 0.76842 0.0
C1016 C 0.44433 0.97476 0.79258 0.0
C1017 C 0.44303 0.9594 0.77861 0.0
C1018 C 0.45838 0.95787 0.77546 0.0
C1019 C 0.47541 0.97172 0.78641 0.0
C1020 C 0.47679 0.98742 0.79979 0.0
C1021 C 0.46144 0.98899 0.80273 0.0
C1022 C 0.54441 0.96268 0.80911 0.0
C1023 C 0.54861 0.94913 0.81469 0.0
C1024 C 0.55822 0.9506 0.83834 0.0
C1025 C 0.56379 0.96569 0.85673 0.0
C1026 C 0.55898 0.97887 0.85185 0.0
C1027 C 0.54934 0.9774 0.82822 0.0
C1028 C 0.55086 0.97137 0.76187 0.0
C1029 C 0.56583 0.98975 0.76569 0.0
C1030 C 0.58053 0.99707 0.74753 0.0
C1031 C 0.58048 0.98621 0.72526 0.0
C1032 C 0.56516 0.9683 0.72048 0.0
C1033 C 0.55045 0.96095 0.73872 0.0
C1034 C 0.52191 0.9651 0.78253 0.0
C1035 C 0.50426 0.94974 0.78657 0.0
C1036 C 0.48921 0.95186 0.78767 0.0
C1037 C 0.49147 0.96948 0.78461 0.0
C1038 C 0.5092 0.98491 0.78042 0.0
C1039 C 0.52429 0.98279 0.77953 0.0
H1040 H 0.93958 0.53714 0.8339 0.0
N1041 N 0.96158 0.53175 0.80162 0.0
H1042 H 0.94772 0.55628 0.87622 0.0
H1043 H 0.995 0.54956 0.82712 0.0
H1044 H 0.00307 0.56853 0.86968 0.0
H1045 H 0.993 0.56227 0.7831 0.0
H1046 H 0.99467 0.585 0.75131 0.0
H1047 H 0.93461 0.52832 0.77113 0.0
H1048 H 0.93627 0.55121 0.7394 0.0
H1049 H 0.95217 0.50266 0.83233 0.0
H1050 H 0.98459 0.53089 0.76156 0.0
H1051 H 0.96235 0.48069 0.82873 0.0
H1052 H 0.99392 0.50844 0.75705 0.0
H1053 H 0.97685 0.40975 0.81145 0.0
H1054 H 0.97649 0.39736 0.85622 0.0
H1055 H 0.02991 0.44537 0.87397 0.0
H1056 H 0.03037 0.45781 0.82887 0.0
H1057 H 0.02627 0.43045 0.77125 0.0
H1058 H 0.01791 0.40381 0.74016 0.0
H1059 H 0.96489 0.39644 0.72786 0.0
H1060 H 0.97286 0.42251 0.75935 0.0
H1061 H 0.97034 0.43405 0.80371 0.0
H1062 H 0.95946 0.45542 0.8038 0.0
H1063 H 0.01269 0.49931 0.77656 0.0
N1064 N 0.00482 0.44208 0.79013 0.0
H1065 H 0.02308 0.47731 0.77498 0.0
C1066 C 0.96659 0.54184 0.82751 0.0
C1067 C 0.9534 0.5438 0.84176 0.0
C1068 C 0.95804 0.55471 0.86573 0.0
C1069 C 0.97596 0.56376 0.87587 0.0
C1070 C 0.98917 0.56159 0.86204 0.0
C1071 C 0.98456 0.55077 0.83788 0.0
C1072 C 0.9636 0.54352 0.77938 0.0
C1073 C 0.98061 0.5595 0.77318 0.0
C1074 C 0.98158 0.57245 0.75506 0.0
C1075 C 0.96558 0.56975 0.74318 0.0
C1076 C 0.94875 0.55344 0.74833 0.0
C1077 C 0.9478 0.54041 0.76629 0.0
C1078 C 0.96769 0.51875 0.79771 0.0
C1079 C 0.96137 0.50407 0.81591 0.0
C1080 C 0.96708 0.49137 0.81362 0.0
C1081 C 0.97899 0.49271 0.79254 0.0
C1082 C 0.98504 0.50717 0.77388 0.0
C1083 C 0.97956 0.52009 0.77646 0.0
C1084 C 0.00375 0.43475 0.8168 0.0
C1085 C 0.98846 0.4177 0.82493 0.0
C1086 C 0.98825 0.41061 0.85041 0.0
C1087 C 0.00319 0.42047 0.86818 0.0
C1088 C 0.01829 0.43761 0.8604 0.0
C1089 C 0.01854 0.44468 0.83484 0.0
C1090 C 0.00033 0.42861 0.76797 0.0
C1091 C 0.01297 0.42333 0.76146 0.0
C1092 C 0.00819 0.40813 0.74384 0.0
C1093 C 0.99072 0.39807 0.73204 0.0
C1094 C 0.9784 0.40399 0.73699 0.0
C1095 C 0.98305 0.419 0.75505 0.0
C1096 C 0.99755 0.45405 0.78901 0.0
C1097 C 0.9796 0.44817 0.79734 0.0
C1098 C 0.97345 0.46053 0.79768 0.0
C1099 C 0.9852 0.47922 0.79039 0.0
C1100 C 0.00311 0.485 0.78188 0.0
C1101 C 0.00914 0.47249 0.78109 0.0
H1102 H 0.42856 0.43175 0.81709 0.0
N1103 N 0.4613 0.43482 0.80463 0.0
H1104 H 0.4127 0.42254 0.86101 0.0
H1105 H 0.47506 0.43306 0.85196 0.0
H1106 H 0.45942 0.42467 0.89645 0.0
H1107 H 0.44194 0.4404 0.76573 0.0
H1108 H 0.41675 0.41582 0.7381 0.0
H1109 H 0.45243 0.39983 0.79775 0.0
H1110 H 0.42695 0.3752 0.77063 0.0
H1111 H 0.49521 0.4482 0.78727 0.0
H1112 H 0.45591 0.46409 0.80514 0.0
H1113 H 0.51882 0.48084 0.77993 0.0
H1114 H 0.47947 0.49677 0.79868 0.0
H1115 H 0.58544 0.5711 0.82251 0.0
H1116 H 0.59498 0.58159 0.86968 0.0
H1117 H 0.55102 0.59175 0.88015 0.0
H1118 H 0.54133 0.58118 0.8325 0.0
H1119 H 0.56953 0.60234 0.77415 0.0
H1120 H 0.59711 0.61964 0.74595 0.0
H1121 H 0.6043 0.57279 0.74538 0.0
H1122 H 0.577 0.55558 0.77356 0.0
H1123 H 0.55897 0.54011 0.81381 0.0
H1124 H 0.53528 0.50734 0.81093 0.0
H1125 H 0.50049 0.52076 0.76732 0.0
N1126 N 0.55657 0.56934 0.79602 0.0
H1127 H 0.52441 0.55396 0.77085 0.0
C1128 C 0.45289 0.43263 0.83112 0.0
C1129 C 0.43552 0.43043 0.83426 0.0
C1130 C 0.42649 0.42529 0.85934 0.0
C1131 C 0.43488 0.42282 0.88177 0.0
C1132 C 0.45278 0.42652 0.87927 0.0
C1133 C 0.46165 0.43125 0.85401 0.0
C1134 C 0.44914 0.42192 0.78384 0.0
C1135 C 0.43922 0.42637 0.76628 0.0
C1136 C 0.42477 0.41234 0.75062 0.0
C1137 C 0.41989 0.39371 0.75268 0.0
C1138 C 0.43049 0.38949 0.76887 0.0
C1139 C 0.44503 0.4035 0.78419 0.0
C1140 C 0.47394 0.45376 0.797 0.0
C1141 C 0.49166 0.45875 0.78924 0.0
C1142 C 0.50512 0.47738 0.78528 0.0
C1143 C 0.50109 0.49144 0.78911 0.0
C1144 C 0.48301 0.48629 0.79541 0.0
C1145 C 0.46953 0.4676 0.79929 0.0
C1146 C 0.56263 0.57544 0.82384 0.0
C1147 C 0.57779 0.57557 0.83473 0.0
C1148 C 0.58325 0.58153 0.86169 0.0
C1149 C 0.5737 0.58744 0.87821 0.0
C1150 C 0.55853 0.58724 0.86756 0.0
C1151 C 0.55305 0.58126 0.84053 0.0
C1152 C 0.57106 0.57768 0.77602 0.0
C1153 C 0.57682 0.59566 0.76744 0.0
C1154 C 0.59252 0.60551 0.75148 0.0
C1155 C 0.60269 0.59746 0.74379 0.0
C1156 C 0.59656 0.57916 0.75117 0.0
C1157 C 0.58089 0.56933 0.76724 0.0
C1158 C 0.54345 0.54962 0.7926 0.0
C1159 C 0.54638 0.53613 0.80342 0.0
C1160 C 0.5328 0.51727 0.80155 0.0
C1161 C 0.51597 0.5114 0.78885 0.0
C1162 C 0.51323 0.52485 0.77745 0.0
C1163 C 0.52688 0.54377 0.7793 0.0
H1164 H 0.72573 0.93702 0.51319 0.0
N1165 N 0.70224 0.91181 0.54779 0.0
H1166 H 0.71863 0.94627 0.47018 0.0
H1167 H 0.66845 0.89596 0.52395 0.0
H1168 H 0.66134 0.90548 0.48128 0.0
H1169 H 0.67077 0.90822 0.56882 0.0
H1170 H 0.66916 0.93207 0.59633 0.0
H1171 H 0.72965 0.94065 0.57438 0.0
H1172 H 0.72801 0.96453 0.60202 0.0
H1173 H 0.70639 0.88919 0.51347 0.0
H1174 H 0.68283 0.88968 0.59195 0.0
H1175 H 0.69475 0.85624 0.51757 0.0
H1176 H 0.67182 0.8569 0.59644 0.0
H1177 H 0.68146 0.77257 0.53576 0.0
H1178 H 0.67885 0.7557 0.49312 0.0
H1179 H 0.62276 0.74062 0.4848 0.0
H1180 H 0.62547 0.75806 0.52763 0.0
H1181 H 0.63217 0.74404 0.58733 0.0
H1182 H 0.64133 0.72674 0.61562 0.0
H1183 H 0.69753 0.77198 0.61148 0.0
H1184 H 0.68858 0.78924 0.58347 0.0
H1185 H 0.68781 0.80253 0.54207 0.0
H1186 H 0.69961 0.8356 0.54155 0.0
H1187 H 0.64961 0.82633 0.57869 0.0
N1188 N 0.65415 0.77519 0.56124 0.0
H1189 H 0.63815 0.79295 0.58036 0.0
C1190 C 0.69769 0.91592 0.52175 0.0
C1191 C 0.71169 0.92995 0.50615 0.0
C1192 C 0.70766 0.9352 0.48177 0.0
C1193 C 0.68949 0.92652 0.47277 0.0
C1194 C 0.67543 0.91228 0.48805 0.0
C1195 C 0.67948 0.90693 0.51236 0.0
C1196 C 0.70043 0.9227 0.5695 0.0
C1197 C 0.68331 0.92016 0.57662 0.0
C1198 C 0.68237 0.93372 0.59236 0.0
C1199 C 0.69848 0.95003 0.60099 0.0
C1200 C 0.71546 0.95197 0.59561 0.0
C1201 C 0.71639 0.93836 0.57997 0.0
C1202 C 0.69501 0.89213 0.55167 0.0
C1203 C 0.69862 0.88225 0.53153 0.0
C1204 C 0.69214 0.86338 0.53408 0.0
C1205 C 0.68227 0.85384 0.55733 0.0
C1206 C 0.67902 0.86371 0.57797 0.0
C1207 C 0.68538 0.88265 0.5753 0.0
C1208 C 0.65363 0.76678 0.53485 0.0
C1209 C 0.6687 0.76611 0.52463 0.0
C1210 C 0.66722 0.75638 0.50031 0.0
C1211 C 0.65065 0.74701 0.48588 0.0
C1212 C 0.63569 0.7479 0.49565 0.0
C1213 C 0.63723 0.75781 0.51994 0.0
C1214 C 0.65954 0.76789 0.58302 0.0
C1215 C 0.64637 0.7505 0.59331 0.0
C1216 C 0.65158 0.74064 0.60931 0.0
C1217 C 0.67009 0.7481 0.61534 0.0
C1218 C 0.68317 0.76607 0.60695 0.0
C1219 C 0.67798 0.77593 0.59091 0.0
C1220 C 0.66197 0.79509 0.56137 0.0
C1221 C 0.67936 0.80745 0.55039 0.0
C1222 C 0.68609 0.8265 0.54987 0.0
C1223 C 0.67551 0.83368 0.5598 0.0
C1224 C 0.65823 0.82135 0.57113 0.0
C1225 C 0.6516 0.80226 0.57196 0.0
H1226 H 0.24607 0.87623 0.53558 0.0
N1227 N 0.229 0.88446 0.57392 0.0
H1228 H 0.25747 0.89125 0.49128 0.0
H1229 H 0.22221 0.90957 0.55144 0.0
H1230 H 0.23348 0.92442 0.50735 0.0
H1231 H 0.26253 0.89958 0.59339 0.0
H1232 H 0.27904 0.92743 0.62319 0.0
H1233 H 0.21362 0.90169 0.60163 0.0
H1234 H 0.23007 0.92943 0.63198 0.0
H1235 H 0.22122 0.85347 0.59804 0.0
H1236 H 0.19586 0.87961 0.55972 0.0
H1237 H 0.19138 0.82465 0.60176 0.0
H1238 H 0.16621 0.8507 0.56192 0.0
H1239 H 0.10506 0.73642 0.53632 0.0
H1240 H 0.09391 0.7282 0.48893 0.0
H1241 H 0.08924 0.77661 0.487 0.0
H1242 H 0.10108 0.7852 0.53383 0.0
H1243 H 0.08255 0.77368 0.57265 0.0
H1244 H 0.05457 0.75684 0.59959 0.0
H1245 H 0.07297 0.72229 0.63105 0.0
H1246 H 0.10114 0.73913 0.60377 0.0
H1247 H 0.14248 0.77104 0.56548 0.0
H1248 H 0.17129 0.80076 0.57094 0.0
H1249 H 0.14134 0.82808 0.58832 0.0
N1250 N 0.10898 0.76477 0.56701 0.0
H1251 H 0.11262 0.79833 0.58173 0.0
C1252 C 0.23329 0.8917 0.54674 0.0
C1253 C 0.24298 0.88646 0.52925 0.0
C1254 C 0.24947 0.89501 0.50414 0.0
C1255 C 0.24628 0.9089 0.49625 0.0
C1256 C 0.23598 0.91366 0.51317 0.0
C1257 C 0.22953 0.90515 0.53828 0.0
C1258 C 0.23692 0.89855 0.59537 0.0
C1259 C 0.25526 0.90577 0.60225 0.0
C1260 C 0.26465 0.92165 0.61908 0.0
C1261 C 0.2558 0.93055 0.62948 0.0
C1262 C 0.23712 0.92276 0.62398 0.0
C1263 C 0.22773 0.90691 0.60681 0.0
C1264 C 0.21089 0.86856 0.57821 0.0
C1265 C 0.20918 0.85298 0.59055 0.0
C1266 C 0.19213 0.8365 0.59241 0.0
C1267 C 0.17638 0.83518 0.58166 0.0
C1268 C 0.17798 0.85117 0.57054 0.0
C1269 C 0.19505 0.86775 0.569 0.0
C1270 C 0.1037 0.76123 0.53866 0.0
C1271 C 0.10186 0.74536 0.52549 0.0
C1272 C 0.09551 0.74069 0.49861 0.0
C1273 C 0.09064 0.75174 0.48463 0.0
C1274 C 0.09288 0.7679 0.49753 0.0
C1275 C 0.09953 0.77273 0.52428 0.0
C1276 C 0.09403 0.75764 0.58616 0.0
C1277 C 0.08092 0.76284 0.58574 0.0
C1278 C 0.06489 0.75322 0.60111 0.0
C1279 C 0.06177 0.73836 0.61718 0.0
C1280 C 0.07524 0.7338 0.61882 0.0
C1281 C 0.09125 0.7434 0.60337 0.0
C1282 C 0.12542 0.78236 0.57332 0.0
C1283 C 0.14219 0.78343 0.57082 0.0
C1284 C 0.15864 0.80045 0.57413 0.0
C1285 C 0.15871 0.8169 0.58021 0.0
C1286 C 0.14183 0.81575 0.58336 0.0
C1287 C 0.12532 0.79866 0.57981 0.0
H1288 H 0.20595 0.3047 0.50442 0.0
N1289 N 0.21809 0.32574 0.54985 0.0
H1290 H 0.22222 0.31006 0.46062 0.0
H1291 H 0.25047 0.35721 0.53613 0.0
H1292 H 0.26659 0.36253 0.49254 0.0
H1293 H 0.24241 0.35373 0.58448 0.0
H1294 H 0.26465 0.35236 0.61393 0.0
H1295 H 0.2186 0.29569 0.56211 0.0
H1296 H 0.24057 0.29422 0.59177 0.0
H1297 H 0.18749 0.30855 0.57873 0.0
H1298 H 0.2237 0.36033 0.53899 0.0
H1299 H 0.16646 0.31906 0.58939 0.0
H1300 H 0.20226 0.37029 0.5475 0.0
H1301 H 0.12296 0.39324 0.55809 0.0
H1302 H 0.10771 0.3939 0.51636 0.0
H1303 H 0.10526 0.34422 0.48581 0.0
H1304 H 0.12016 0.34333 0.52703 0.0
H1305 H 0.12706 0.38045 0.62152 0.0
H1306 H 0.1004 0.36825 0.6522 0.0
H1307 H 0.06991 0.32088 0.59742 0.0
H1308 H 0.09621 0.33299 0.56684 0.0
H1309 H 0.12222 0.33099 0.56967 0.0
H1310 H 0.14498 0.32243 0.5672 0.0
H1311 H 0.18781 0.3805 0.57695 0.0
N1312 N 0.12862 0.36659 0.57272 0.0
H1313 H 0.16464 0.38904 0.57749 0.0
C1314 C 0.22694 0.33045 0.52352 0.0
C1315 C 0.21902 0.31749 0.50175 0.0
C1316 C 0.22827 0.32054 0.4769 0.0
C1317 C 0.24557 0.33666 0.47353 0.0
C1318 C 0.25323 0.35003 0.49486 0.0
C1319 C 0.24402 0.34694 0.51972 0.0
C1320 C 0.22896 0.32476 0.57103 0.0
C1321 C 0.24169 0.34061 0.58644 0.0
C1322 C 0.25431 0.33983 0.60324 0.0
C1323 C 0.25418 0.32319 0.60489 0.0
C1324 C 0.24078 0.30714 0.59079 0.0
C1325 C 0.22828 0.30795 0.57397 0.0
C1326 C 0.20699 0.33335 0.5576 0.0
C1327 C 0.19088 0.32217 0.57227 0.0
C1328 C 0.17878 0.32816 0.57806 0.0
C1329 C 0.18237 0.3454 0.56881 0.0
C1330 C 0.19899 0.35698 0.55516 0.0
C1331 C 0.21128 0.35114 0.54992 0.0
C1332 C 0.12286 0.36836 0.54595 0.0
C1333 C 0.11958 0.38279 0.54207 0.0
C1334 C 0.11087 0.38315 0.51841 0.0
C1335 C 0.1054 0.36908 0.4982 0.0
C1336 C 0.10949 0.35521 0.50124 0.0
C1337 C 0.11809 0.35478 0.52491 0.0
C1338 C 0.11373 0.35772 0.59195 0.0
C1339 C 0.11476 0.36724 0.61649 0.0
C1340 C 0.09963 0.3603 0.63391 0.0
C1341 C 0.08331 0.34368 0.62698 0.0
C1342 C 0.08248 0.33367 0.60312 0.0
C1343 C 0.09754 0.34061 0.5857 0.0
C1344 C 0.14172 0.3608 0.57338 0.0
C1345 C 0.13644 0.34195 0.5713 0.0
C1346 C 0.14961 0.33702 0.5702 0.0
C1347 C 0.16838 0.35073 0.57183 0.0
C1348 C 0.17355 0.36954 0.57502 0.0
C1349 C 0.16035 0.37447 0.57557 0.0
C1350 C 0.99465 0.41123 0.07624 0.0
C1351 C 0.98517 0.39152 0.07763 0.0
C1352 C 0.98136 0.39348 0.12707 0.0
C1353 C 0.99051 0.41317 0.12557 0.0
N1354 N 0.00221 0.44052 0.0985 0.0
N1355 N 0.96627 0.36357 0.10278 0.0
C1356 C 0.99601 0.42196 0.10002 0.0
C1357 C 0.97738 0.38254 0.10255 0.0
N1358 N 0.00274 0.41969 0.05232 0.0
N1359 N 0.97736 0.38533 0.152 0.0
H1360 H 0.96343 0.35512 0.0853 0.0
H1361 H 0.95867 0.3563 0.11971 0.0
H1362 H 0.97994 0.39284 0.17042 0.0
H1363 H 0.97269 0.37133 0.15461 0.0
H1364 H 0.0117 0.43401 0.05075 0.0
H1365 H 0.00135 0.41226 0.03418 0.0
H1366 H 0.00473 0.44741 0.08018 0.0
H1367 H 0.0033 0.44875 0.11559 0.0
C1368 C 0.61706 0.58754 0.09479 0.0
C1369 C 0.6243 0.60703 0.09668 0.0
C1370 C 0.61308 0.60408 0.14371 0.0
C1371 C 0.60441 0.58443 0.1409 0.0
N1372 N 0.59626 0.55703 0.11328 0.0
N1373 N 0.62683 0.63359 0.12109 0.0
C1374 C 0.60586 0.57602 0.11627 0.0
C1375 C 0.62179 0.61528 0.12071 0.0
N1376 N 0.62147 0.58017 0.07294 0.0
N1377 N 0.61318 0.61207 0.16851 0.0
H1378 H 0.63315 0.64231 0.10466 0.0
H1379 H 0.62337 0.63981 0.13674 0.0
H1380 H 0.60643 0.60436 0.18567 0.0
H1381 H 0.6211 0.62635 0.1727 0.0
H1382 H 0.61822 0.56642 0.07165 0.0
H1383 H 0.6298 0.58822 0.05698 0.0
H1384 H 0.59503 0.55002 0.09481 0.0
H1385 H 0.5884 0.54819 0.12893 0.0
C1386 C 0.41642 0.02506 0.09348 0.0
C1387 C 0.4071 0.00767 0.07897 0.0
C1388 C 0.41765 0.99453 0.11268 0.0
C1389 C 0.42434 0.01087 0.12935 0.0
N1390 N 0.42691 0.04056 0.13764 0.0
N1391 N 0.39528 0.97451 0.07879 0.0
C1392 C 0.42291 0.02589 0.12032 0.0
C1393 C 0.40679 0.99201 0.08955 0.0
N1394 N 0.41963 0.04089 0.0814 0.0
N1395 N 0.42189 0.98152 0.11866 0.0
H1396 H 0.38602 0.97166 0.06312 0.0
H1397 H 0.3934 0.96254 0.08762 0.0
H1398 H 0.43028 0.98313 0.13504 0.0
H1399 H 0.41871 0.97019 0.10566 0.0
H1400 H 0.42785 0.05415 0.09024 0.0
H1401 H 0.41579 0.04101 0.06135 0.0
H1402 H 0.42428 0.05088 0.13284 0.0
H1403 H 0.43113 0.04148 0.15778 0.0
C1404 C 0.38587 0.99528 0.9267 0.0
C1405 C 0.39767 0.00242 0.94979 0.0
C1406 C 0.42119 -2e-05 0.92424 0.0
C1407 C 0.40906 0.99208 0.90166 0.0
N1408 N 0.37915 0.9799 0.88202 0.0
N1409 N 0.42526 0.00886 0.97237 0.0
C1410 C 0.39115 0.98895 0.90316 0.0
C1411 C 0.41501 0.00407 0.94905 0.0
N1412 N 0.37007 0.99551 0.92669 0.0
N1413 N 0.43872 0.00382 0.92178 0.0
H1414 H 0.42131 0.01209 0.99089 0.0
H1415 H 0.43699 0.00825 0.97408 0.0
H1416 H 0.44341 1e-05 0.90453 0.0
H1417 H 0.44896 0.01172 0.93609 0.0
H1418 H 0.36205 0.99277 0.9094 0.0
H1419 H 0.36555 0.99986 0.94349 0.0
H1420 H 0.36525 0.97505 0.88322 0.0
H1421 H 0.38277 0.97606 0.8637 0.0
C1422 C 0.99706 0.41025 0.94408 0.0
C1423 C 0.00017 0.39532 0.9447 0.0
C1424 C 0.00813 0.3991 0.89605 0.0
C1425 C 0.00305 0.41256 0.89485 0.0
N1426 N 0.9909 0.42979 0.91662 0.0
N1427 N 0.00597 0.37353 0.92058 0.0
C1428 C 0.99707 0.41787 0.91859 0.0
C1429 C 0.00514 0.38928 0.92055 0.0
N1430 N 0.99468 0.41753 0.96798 0.0
N1431 N 0.016 0.39586 0.87383 0.0
H1432 H 0.00357 0.3657 0.93793 0.0
H1433 H 0.00745 0.36725 0.90292 0.0
H1434 H 0.01809 0.40255 0.85535 0.0
H1435 H 0.02185 0.38775 0.87436 0.0
H1436 H 0.99429 0.42965 0.96921 0.0
H1437 H 0.99469 0.41236 0.98703 0.0
H1438 H 0.98435 0.4325 0.93249 0.0
H1439 H 0.99116 0.43605 0.89842 0.0
C1440 C 0.58477 0.58674 0.9527 0.0
C1441 C 0.59502 0.6061 0.95942 0.0
C1442 C 0.5907 0.61329 0.91305 0.0
C1443 C 0.57983 0.59393 0.90671 0.0
N1444 N 0.56323 0.56222 0.92164 0.0
N1445 N 0.60422 0.63753 0.94841 0.0
C1446 C 0.5758 0.58064 0.92697 0.0
C1447 C 0.59693 0.61931 0.94029 0.0
N1448 N 0.58446 0.57425 0.9702 0.0
N1449 N 0.59565 0.62591 0.89284 0.0
H1450 H 0.60861 0.64237 0.96837 0.0
H1451 H 0.60431 0.64746 0.93619 0.0
H1452 H 0.59111 0.62207 0.87271 0.0
H1453 H 0.60531 0.64007 0.89553 0.0
H1454 H 0.57899 0.56023 0.96506 0.0
H1455 H 0.59101 0.57812 0.98913 0.0
H1456 H 0.55828 0.5521 0.93647 0.0
H1457 H 0.55651 0.55728 0.9029 0.0
C1458 C 0.98085 0.57932 0.95062 0.0
C1459 C 0.98406 0.59748 0.94785 0.0
C1460 C 0.98683 0.59495 0.89818 0.0
C1461 C 0.98077 0.57586 0.90077 0.0
N1462 N 0.97153 0.54939 0.92889 0.0
N1463 N 0.98968 0.62275 0.91913 0.0
C1464 C 0.9778 0.56794 0.92687 0.0
C1465 C 0.98727 0.6055 0.9217 0.0
N1466 N 0.98127 0.57322 0.97599 0.0
N1467 N 0.99213 0.60295 0.87319 0.0
H1468 H 0.99066 0.6312 0.93577 0.0
H1469 H 0.98962 0.62831 0.90049 0.0
H1470 H 0.99148 0.59548 0.85541 0.0
H1471 H 0.99852 0.61721 0.87032 0.0
H1472 H 0.98067 0.56079 0.97935 0.0
H1473 H 0.98406 0.58153 0.99364 0.0
H1474 H 0.96696 0.54224 0.94706 0.0
H1475 H 0.96992 0.54083 0.91197 0.0
C1476 C 0.41128 0.41688 0.95068 0.0
C1477 C 0.40359 0.39753 0.95423 0.0
C1478 C 0.41697 0.395 0.91094 0.0
C1479 C 0.42412 0.41424 0.90684 0.0
N1480 N 0.42712 0.44334 0.92087 0.0
N1481 N 0.39763 0.36764 0.93764 0.0
C1482 C 0.42097 0.42515 0.92617 0.0
C1483 C 0.40612 0.38647 0.93439 0.0
N1484 N 0.40986 0.42739 0.97125 0.0
N1485 N 0.4207 0.38495 0.89242 0.0
H1486 H 0.39037 0.36101 0.95516 0.0
H1487 H 0.39686 0.35829 0.92259 0.0
H1488 H 0.42726 0.39016 0.87384 0.0
H1489 H 0.41807 0.37164 0.89572 0.0
H1490 H 0.41665 0.44186 0.97143 0.0
H1491 H 0.40267 0.42169 0.98927 0.0
H1492 H 0.42368 0.45159 0.93246 0.0
H1493 H 0.43504 0.45007 0.90383 0.0
C1494 C 0.58089 0.96026 0.9251 0.0
C1495 C 0.59965 0.9746 0.92371 0.0
C1496 C 0.59508 0.98173 0.87746 0.0
C1497 C 0.57605 0.9686 0.87985 0.0
N1498 N 0.55023 0.94712 0.907 0.0
N1499 N 0.62382 0.00151 0.90102 0.0
C1500 C 0.56876 0.95834 0.904 0.0
C1501 C 0.60657 0.98601 0.90052 0.0
N1502 N 0.57482 0.94803 0.94604 0.0
N1503 N 0.60226 0.98982 0.85296 0.0
H1504 H 0.63248 0.00547 0.91784 0.0
H1505 H 0.62888 0.01145 0.88592 0.0
H1506 H 0.59429 0.98721 0.83559 0.0
H1507 H 0.61626 0.99786 0.84918 0.0
H1508 H 0.56177 0.93613 0.94669 0.0
H1509 H 0.58334 0.94888 0.96172 0.0
H1510 H 0.54396 0.94087 0.92527 0.0
H1511 H 0.54099 0.9452 0.89177 0.0
C1512 C 0.57537 0.98668 0.06367 0.0
C1513 C 0.5948 0.99681 0.06339 0.0
C1514 C 0.59543 0.99962 0.1134 0.0
C1515 C 0.57606 0.99027 0.11355 0.0
N1516 N 0.54778 0.97846 0.08906 0.0
N1517 N 0.62339 0.01646 0.08708 0.0
C1518 C 0.56609 0.98496 0.0887 0.0
C1519 C 0.60486 0.00436 0.08803 0.0
N1520 N 0.56574 0.97774 0.04041 0.0
N1521 N 0.60478 0.00333 0.13744 0.0
H1522 H 0.6307 0.02047 0.06879 0.0
H1523 H 0.63126 0.02388 0.10411 0.0
H1524 H 0.59839 0.00032 0.15649 0.0
H1525 H 0.61867 0.00812 0.13845 0.0
H1526 H 0.55164 0.96842 0.04012 0.0
H1527 H 0.57193 0.97832 0.02169 0.0
H1528 H 0.54013 0.9762 0.07148 0.0
H1529 H 0.54053 0.9769 0.1071 0.0
C1530 C 0.00011 0.61637 0.10472 0.0
C1531 C 0.99074 0.60593 0.08082 0.0
C1532 C 0.97578 0.57706 0.10654 0.0
C1533 C 0.98637 0.58729 0.12978 0.0
N1534 N 0.00964 0.61627 0.15105 0.0
N1535 N 0.97085 0.57646 0.05771 0.0
C1536 C 0.99884 0.60684 0.12888 0.0
C1537 C 0.97878 0.5863 0.08141 0.0
N1538 N 0.00961 0.63543 0.10457 0.0
N1539 N 0.96275 0.55855 0.10865 0.0
H1540 H 0.97238 0.58282 0.03911 0.0
H1541 H 0.96369 0.56198 0.05595 0.0
H1542 H 0.96072 0.55118 0.12641 0.0
H1543 H 0.95316 0.55071 0.09349 0.0
H1544 H 0.01513 0.64391 0.12199 0.0
H1545 H 0.0107 0.64291 0.08732 0.0
H1546 H 0.02057 0.63001 0.15062 0.0
H1547 H 0.00843 0.61003 0.16967 0.0
C1548 C 0.4111 0.40872 0.08033 0.0
C1549 C 0.39201 0.39544 0.08058 0.0
C1550 C 0.39223 0.39522 0.13061 0.0
C1551 C 0.41152 0.40748 0.13025 0.0
N1552 N 0.43983 0.42399 0.10525 0.0
N1553 N 0.36449 0.37433 0.10512 0.0
C1554 C 0.42112 0.41374 0.10522 0.0
C1555 C 0.38261 0.38811 0.10549 0.0
N1556 N 0.41959 0.41666 0.05633 0.0
N1557 N 0.38306 0.39098 0.15497 0.0
H1558 H 0.35669 0.36945 0.08728 0.0
H1559 H 0.3574 0.36684 0.12222 0.0
H1560 H 0.38964 0.39584 0.17381 0.0
H1561 H 0.36887 0.38384 0.15657 0.0
H1562 H 0.43298 0.42797 0.05517 0.0
H1563 H 0.41289 0.41273 0.0375 0.0
H1564 H 0.44774 0.42729 0.08761 0.0
H1565 H 0.4476 0.42807 0.12313 0.0
C1566 C 0.65166 0.70983 0.44202 0.0
C1567 C 0.65013 0.71509 0.41539 0.0
C1568 C 0.64835 0.7412 0.43493 0.0
C1569 C 0.64887 0.73529 0.4615 0.0
N1570 N 0.64639 0.71145 0.49046 0.0
N1571 N 0.64251 0.73282 0.38676 0.0
C1572 C 0.64902 0.71875 0.46506 0.0
C1573 C 0.64711 0.72991 0.41191 0.0
N1574 N 0.65675 0.69715 0.44545 0.0
N1575 N 0.64974 0.75793 0.43159 0.0
H1576 H 0.64089 0.7244 0.36967 0.0
H1577 H 0.63848 0.74229 0.38346 0.0
H1578 H 0.65055 0.76653 0.44796 0.0
H1579 H 0.65152 0.76393 0.41263 0.0
H1580 H 0.66012 0.69445 0.46438 0.0
H1581 H 0.6593 0.69056 0.42924 0.0
H1582 H 0.64451 0.69843 0.49385 0.0
H1583 H 0.64429 0.71757 0.50783 0.0
C1584 C 0.28184 0.94453 0.44813 0.0
C1585 C 0.27098 0.94102 0.42453 0.0
C1586 C 0.24448 0.915 0.44691 0.0
C1587 C 0.25492 0.91953 0.47122 0.0
N1588 N 0.28266 0.9398 0.49657 0.0
N1589 N 0.24177 0.92426 0.40162 0.0
C1590 C 0.27341 0.93457 0.47223 0.0
C1591 C 0.25222 0.92662 0.42397 0.0
N1592 N 0.30023 0.95737 0.44746 0.0
N1593 N 0.22736 0.89932 0.44563 0.0
H1594 H 0.24716 0.93194 0.38398 0.0
H1595 H 0.2276 0.91549 0.40103 0.0
H1596 H 0.22124 0.89065 0.4622 0.0
H1597 H 0.21971 0.89407 0.42774 0.0
H1598 H 0.30928 0.95898 0.46275 0.0
H1599 H 0.30678 0.9657 0.43072 0.0
H1600 H 0.29537 0.95194 0.49948 0.0
H1601 H 0.27707 0.9327 0.51462 0.0
C1602 C 0.09022 0.36919 0.4258 0.0
C1603 C 0.07099 0.36016 0.4295 0.0
C1604 C 0.07452 0.35835 0.47865 0.0
C1605 C 0.09375 0.36762 0.47504 0.0
N1606 N 0.12033 0.38525 0.44686 0.0
N1607 N 0.04529 0.35039 0.45971 0.0
C1608 C 0.10174 0.37418 0.4491 0.0
C1609 C 0.06328 0.35605 0.45606 0.0
N1610 N 0.09737 0.37207 0.40001 0.0
N1611 N 0.06693 0.3511 0.50341 0.0
H1612 H 0.03675 0.34887 0.4436 0.0
H1613 H 0.03928 0.34895 0.47882 0.0
H1614 H 0.07468 0.35287 0.5207 0.0
H1615 H 0.05293 0.34223 0.50642 0.0
H1616 H 0.11096 0.37648 0.39585 0.0
H1617 H 0.08944 0.36886 0.38246 0.0
H1618 H 0.12698 0.39206 0.42909 0.0
H1619 H 0.12911 0.38892 0.46354 0.0
C1620 C 0.05982 0.33054 0.27596 0.0
C1621 C 0.06999 0.33743 0.30059 0.0
C1622 C 0.09792 0.3447 0.27582 0.0
C1623 C 0.08823 0.34044 0.25084 0.0
N1624 N 0.06032 0.33112 0.22654 0.0
N1625 N 0.09912 0.35276 0.32395 0.0
C1626 C 0.06923 0.33372 0.25072 0.0
C1627 C 0.08914 0.34477 0.30063 0.0
N1628 N 0.04113 0.32053 0.27682 0.0
N1629 N 0.11547 0.34846 0.27581 0.0
H1630 H 0.09327 0.35307 0.34258 0.0
H1631 H 0.11336 0.36031 0.32443 0.0
H1632 H 0.12232 0.34864 0.25793 0.0
H1633 H 0.12263 0.34978 0.29355 0.0
H1634 H 0.03292 0.3136 0.25985 0.0
H1635 H 0.03383 0.31752 0.2951 0.0
H1636 H 0.04701 0.32834 0.22536 0.0
H1637 H 0.06666 0.33319 0.20755 0.0
C1638 C 0.68736 0.76178 0.28014 0.0
C1639 C 0.67784 0.74203 0.28074 0.0
C1640 C 0.67553 0.74019 0.23086 0.0
C1641 C 0.68307 0.7597 0.23047 0.0
N1642 N 0.69386 0.7889 0.25492 0.0
N1643 N 0.65902 0.71235 0.25724 0.0
C1644 C 0.6884 0.7705 0.25517 0.0
C1645 C 0.67091 0.73118 0.25624 0.0
N1646 N 0.69587 0.7722 0.30317 0.0
N1647 N 0.67309 0.73029 0.20701 0.0
H1648 H 0.65437 0.70537 0.27555 0.0
H1649 H 0.65217 0.70402 0.24014 0.0
H1650 H 0.67656 0.73642 0.18793 0.0
H1651 H 0.66937 0.71637 0.20641 0.0
H1652 H 0.70458 0.78663 0.30329 0.0
H1653 H 0.69553 0.76628 0.32174 0.0
H1654 H 0.69601 0.79698 0.2726 0.0
H1655 H 0.69481 0.79576 0.23702 0.0
C1656 C 0.26772 0.95363 0.26703 0.0
C1657 C 0.26195 0.94389 0.29181 0.0
C1658 C 0.24087 0.91499 0.26644 0.0
C1659 C 0.24876 0.92415 0.24168 0.0
N1660 N 0.27033 0.95186 0.21781 0.0
N1661 N 0.24408 0.91498 0.3155 0.0
C1662 C 0.26224 0.94345 0.24176 0.0
C1663 C 0.24858 0.92451 0.29171 0.0
N1664 N 0.27816 0.97266 0.26775 0.0
N1665 N 0.226 0.8972 0.26571 0.0
H1666 H 0.2494 0.92138 0.33447 0.0
H1667 H 0.2361 0.90051 0.31628 0.0
H1668 H 0.22017 0.8898 0.24746 0.0
H1669 H 0.21846 0.89039 0.28295 0.0
H1670 H 0.28144 0.98074 0.2505 0.0
H1671 H 0.28203 0.98046 0.28602 0.0
H1672 H 0.28177 0.9653 0.21685 0.0
H1673 H 0.26632 0.94498 0.1988 0.0
C1674 C 0.67341 0.9468 0.2462 0.0
C1675 C 0.68113 0.94558 0.27088 0.0
C1676 C 0.69652 0.93201 0.2459 0.0
C1677 C 0.68946 0.93401 0.22111 0.0
N1678 N 0.6737 0.94589 0.19666 0.0
N1679 N 0.70238 0.94024 0.2942 0.0
C1680 C 0.67871 0.94226 0.22097 0.0
C1681 C 0.69337 0.93908 0.27073 0.0
N1682 N 0.66033 0.95141 0.24701 0.0
N1683 N 0.70589 0.92299 0.2457 0.0
H1684 H 0.70049 0.94555 0.31263 0.0
H1685 H 0.7128 0.93745 0.29502 0.0
H1686 H 0.70902 0.91826 0.22775 0.0
H1687 H 0.70958 0.91916 0.26332 0.0
H1688 H 0.65261 0.95042 0.23013 0.0
H1689 H 0.65609 0.95491 0.26505 0.0
H1690 H 0.66772 0.95382 0.19509 0.0
H1691 H 0.67675 0.94217 0.17773 0.0
C1692 C 0.07375 0.75636 0.26891 0.0
C1693 C 0.05557 0.74083 0.26986 0.0
C1694 C 0.05097 0.74488 0.22192 0.0
C1695 C 0.06978 0.75888 0.2201 0.0
N1696 N 0.09962 0.77736 0.24081 0.0
N1697 N 0.02728 0.71878 0.24693 0.0
C1698 C 0.08132 0.76457 0.24337 0.0
C1699 C 0.04418 0.73478 0.24636 0.0
N1700 N 0.0836 0.76349 0.29256 0.0
N1701 N 0.0396 0.74137 0.20031 0.0
H1702 H 0.02176 0.71095 0.26442 0.0
H1703 H 0.01925 0.71243 0.22961 0.0
H1704 H 0.0442 0.74831 0.18191 0.0
H1705 H 0.02542 0.73276 0.20132 0.0
H1706 H 0.09626 0.77589 0.29374 0.0
H1707 H 0.07839 0.7578 0.31161 0.0
H1708 H 0.10915 0.78049 0.25615 0.0
H1709 H 0.10554 0.78408 0.22261 0.0
C1710 C 0.24396 0.312 0.27271 0.0
C1711 C 0.26042 0.31193 0.27094 0.0
C1712 C 0.25521 0.3042 0.22195 0.0
C1713 C 0.24049 0.30725 0.22304 0.0
N1714 N 0.22102 0.31482 0.24885 0.0
N1715 N 0.28275 0.30947 0.24363 0.0
C1716 C 0.23475 0.31115 0.24832 0.0
C1717 C 0.2662 0.30812 0.24558 0.0
N1718 N 0.23699 0.31254 0.29778 0.0
N1719 N 0.25865 0.29757 0.19827 0.0
H1720 H 0.29133 0.31242 0.26032 0.0
H1721 H 0.28868 0.30906 0.22512 0.0
H1722 H 0.25092 0.29476 0.18054 0.0
H1723 H 0.268 0.29328 0.19685 0.0
H1724 H 0.22419 0.31087 0.3006 0.0
H1725 H 0.24331 0.3129 0.31603 0.0
H1726 H 0.21771 0.31998 0.26608 0.0
H1727 H 0.2136 0.31377 0.2315 0.0
C1728 C 0.26043 0.34321 0.39899 0.0
C1729 C 0.27549 0.34071 0.40019 0.0
C1730 C 0.27076 0.33533 0.44928 0.0
C1731 C 0.2563 0.33879 0.44842 0.0
N1732 N 0.23945 0.34938 0.42395 0.0
N1733 N 0.29765 0.33867 0.427 0.0
C1734 C 0.25178 0.34379 0.42369 0.0
C1735 C 0.28146 0.33806 0.42553 0.0
N1736 N 0.25383 0.34412 0.37423 0.0
N1737 N 0.27379 0.32869 0.47246 0.0
H1738 H 0.30601 0.34095 0.41005 0.0
H1739 H 0.30368 0.33876 0.44535 0.0
H1740 H 0.26628 0.32648 0.49038 0.0
H1741 H 0.28273 0.32389 0.47327 0.0
H1742 H 0.24163 0.34378 0.37187 0.0
H1743 H 0.25984 0.34382 0.3557 0.0
H1744 H 0.23697 0.35503 0.40718 0.0
H1745 H 0.23278 0.34982 0.44169 0.0
C1746 C 0.68347 0.93261 0.39784 0.0
C1747 C 0.68076 0.94781 0.39982 0.0
C1748 C 0.68265 0.94829 0.44981 0.0
C1749 C 0.68525 0.93302 0.44779 0.0
N1750 N 0.68531 0.90861 0.4211 0.0
N1751 N 0.67505 0.96854 0.42714 0.0
C1752 C 0.68477 0.92453 0.42212 0.0
C1753 C 0.67939 0.95509 0.42568 0.0
N1754 N 0.68511 0.92614 0.37267 0.0
N1755 N 0.68397 0.95669 0.47476 0.0
H1756 H 0.67346 0.97458 0.40999 0.0
H1757 H 0.67185 0.973 0.44522 0.0
H1758 H 0.68557 0.95163 0.49301 0.0
H1759 H 0.68449 0.96923 0.47748 0.0
H1760 H 0.68932 0.9167 0.36957 0.0
H1761 H 0.68295 0.93083 0.3545 0.0
H1762 H 0.68317 0.90057 0.40341 0.0
H1763 H 0.6867 0.9026 0.43848 0.0
C1764 C 0.08297 0.75221 0.40824 0.0
C1765 C 0.06664 0.73456 0.40423 0.0
C1766 C 0.06507 0.72931 0.45337 0.0
C1767 C 0.08243 0.74591 0.45688 0.0
N1768 N 0.10962 0.77134 0.43673 0.0
N1769 N 0.04467 0.70439 0.42218 0.0
C1770 C 0.09191 0.75685 0.43402 0.0
C1771 C 0.05837 0.72254 0.42658 0.0
N1772 N 0.08952 0.7649 0.38792 0.0
N1773 N 0.05466 0.7203 0.4756 0.0
H1774 H 0.03992 0.69852 0.40276 0.0
H1775 H 0.03945 0.69462 0.43755 0.0
H1776 H 0.05885 0.72502 0.49565 0.0
H1777 H 0.04113 0.70923 0.47406 0.0
H1778 H 0.10031 0.77863 0.39077 0.0
H1779 H 0.08305 0.76236 0.36905 0.0
H1780 H 0.11778 0.77856 0.42016 0.0
H1781 H 0.11671 0.77502 0.45522 0.0
C1782 C 0.34935 0.08954 0.73304 0.0
C1783 C 0.33845 0.06976 0.73147 0.0
C1784 C 0.3334 0.06893 0.78092 0.0
C1785 C 0.34313 0.0887 0.78212 0.0
N1786 N 0.35689 0.11774 0.75862 0.0
N1787 N 0.31648 0.04097 0.75263 0.0
C1788 C 0.35001 0.09899 0.75792 0.0
C1789 C 0.3294 0.05954 0.75507 0.0
N1790 N 0.35991 0.0993 0.71136 0.0
N1791 N 0.3286 0.05913 0.80447 0.0
H1792 H 0.31267 0.03384 0.73381 0.0
H1793 H 0.30818 0.03316 0.76873 0.0
H1794 H 0.33142 0.06547 0.82388 0.0
H1795 H 0.32327 0.04483 0.80477 0.0
H1796 H 0.36962 0.11354 0.71246 0.0
H1797 H 0.36027 0.09296 0.693 0.0
H1798 H 0.36034 0.12562 0.74111 0.0
H1799 H 0.35754 0.12512 0.7765 0.0
C1800 C 0.95229 0.27227 0.77861 0.0
C1801 C 0.94273 0.26521 0.75346 0.0
C1802 C 0.91588 0.24091 0.77759 0.0
C1803 C 0.92578 0.24739 0.8025 0.0
N1804 N 0.95444 0.26652 0.8262 0.0
N1805 N 0.91708 0.24069 0.72807 0.0
C1806 C 0.94434 0.26221 0.80281 0.0
C1807 C 0.92499 0.24888 0.75267 0.0
N1808 N 0.96843 0.2891 0.77971 0.0
N1809 N 0.89762 0.22762 0.77785 0.0
H1810 H 0.9235 0.246 0.70942 0.0
H1811 H 0.90498 0.22776 0.72612 0.0
H1812 H 0.89053 0.22125 0.79566 0.0
H1813 H 0.88918 0.22388 0.76079 0.0
H1814 H 0.97491 0.29593 0.79794 0.0
H1815 H 0.97464 0.29712 0.76259 0.0
H1816 H 0.96854 0.27584 0.82695 0.0
H1817 H 0.94902 0.25953 0.84439 0.0
C1818 C 0.75699 0.70177 0.75832 0.0
C1819 C 0.73794 0.68828 0.7594 0.0
C1820 C 0.7404 0.68388 0.80802 0.0
C1821 C 0.75928 0.69787 0.8072 0.0
N1822 N 0.78509 0.72234 0.7834 0.0
N1823 N 0.71073 0.6698 0.78625 0.0
C1824 C 0.76743 0.70753 0.78287 0.0
C1825 C 0.72942 0.68024 0.78454 0.0
N1826 N 0.76525 0.70846 0.73371 0.0
N1827 N 0.73306 0.67377 0.83108 0.0
H1828 H 0.70216 0.66725 0.76969 0.0
H1829 H 0.70366 0.66517 0.80459 0.0
H1830 H 0.74045 0.67645 0.84912 0.0
H1831 H 0.72 0.66189 0.83181 0.0
H1832 H 0.77936 0.71659 0.73112 0.0
H1833 H 0.75806 0.70486 0.71535 0.0
H1834 H 0.79126 0.73128 0.76718 0.0
H1835 H 0.79323 0.7266 0.80091 0.0
C1836 C 0.73627 0.68129 0.60508 0.0
C1837 C 0.7343 0.67057 0.62812 0.0
C1838 C 0.74344 0.65207 0.60046 0.0
C1839 C 0.74376 0.66168 0.577 0.0
N1840 N 0.73761 0.68326 0.55578 0.0
N1841 N 0.73315 0.64394 0.64718 0.0
C1842 C 0.73932 0.67566 0.57896 0.0
C1843 C 0.73716 0.65548 0.62571 0.0
N1844 N 0.73607 0.69734 0.60835 0.0
N1845 N 0.74949 0.63998 0.5987 0.0
H1846 H 0.72835 0.64588 0.6659 0.0
H1847 H 0.73307 0.63157 0.64576 0.0
H1848 H 0.75389 0.63693 0.58041 0.0
H1849 H 0.75151 0.6341 0.61563 0.0
H1850 H 0.73936 0.70676 0.59281 0.0
H1851 H 0.73431 0.70223 0.62725 0.0
H1852 H 0.73235 0.69192 0.55569 0.0
H1853 H 0.73999 0.67971 0.53623 0.0
C1854 C 0.344 0.05644 0.57398 0.0
C1855 C 0.35007 0.06462 0.60042 0.0
C1856 C 0.36689 0.09573 0.58076 0.0
C1857 C 0.35891 0.08764 0.55501 0.0
N1858 N 0.33845 0.0606 0.52713 0.0
N1859 N 0.36585 0.09211 0.62977 0.0
C1860 C 0.34712 0.06806 0.55158 0.0
C1861 C 0.36131 0.08429 0.60403 0.0
N1862 N 0.33582 0.03759 0.57013 0.0
N1863 N 0.37995 0.11429 0.58285 0.0
H1864 H 0.36213 0.08425 0.6473 0.0
H1865 H 0.37213 0.10635 0.63394 0.0
H1866 H 0.38408 0.1231 0.56626 0.0
H1867 H 0.38772 0.12067 0.60038 0.0
H1868 H 0.33278 0.03097 0.55095 0.0
H1869 H 0.33367 0.02866 0.58598 0.0
H1870 H 0.32802 0.04671 0.52436 0.0
H1871 H 0.34073 0.06856 0.50996 0.0
C1872 C 0.94964 0.27896 0.59277 0.0
C1873 C 0.93946 0.27112 0.617 0.0
C1874 C 0.91631 0.24369 0.59074 0.0
C1875 C 0.92606 0.25198 0.56643 0.0
N1876 N 0.95003 0.27866 0.54323 0.0
N1877 N 0.91217 0.24734 0.63922 0.0
C1878 C 0.94218 0.26996 0.56714 0.0
C1879 C 0.92243 0.25391 0.616 0.0
N1880 N 0.96658 0.2949 0.59427 0.0
N1881 N 0.9016 0.22579 0.58973 0.0
H1882 H 0.91661 0.25398 0.65831 0.0
H1883 H 0.89878 0.23598 0.6394 0.0
H1884 H 0.89661 0.21802 0.57152 0.0
H1885 H 0.89505 0.21812 0.60695 0.0
H1886 H 0.97566 0.29996 0.57791 0.0
H1887 H 0.97216 0.30258 0.61235 0.0
H1888 H 0.96054 0.29257 0.54224 0.0
H1889 H 0.94509 0.27244 0.52402 0.0
C1890 C 0.35196 0.26545 0.61339 0.0
C1891 C 0.34789 0.27973 0.61458 0.0
C1892 C 0.34681 0.27941 0.56458 0.0
C1893 C 0.35272 0.26656 0.56339 0.0
N1894 N 0.36384 0.24955 0.58641 0.0
N1895 N 0.34534 0.30314 0.59137 0.0
C1896 C 0.35613 0.26019 0.58774 0.0
C1897 C 0.34634 0.28749 0.59018 0.0
N1898 N 0.3511 0.25637 0.63654 0.0
N1899 N 0.34119 0.28354 0.54132 0.0
H1900 H 0.34571 0.31 0.60965 0.0
H1901 H 0.34605 0.31045 0.57416 0.0
H1902 H 0.34126 0.27785 0.52214 0.0
H1903 H 0.33487 0.29123 0.54143 0.0
H1904 H 0.35198 0.24452 0.63641 0.0
H1905 H 0.34783 0.25961 0.65565 0.0
H1906 H 0.36849 0.24621 0.60353 0.0
H1907 H 0.36704 0.24537 0.56799 0.0
C1908 C 0.71141 0.06938 0.57829 0.0
C1909 C 0.7183 0.07839 0.60419 0.0
C1910 C 0.74141 0.10679 0.58141 0.0
C1911 C 0.73409 0.09795 0.55571 0.0
N1912 N 0.70908 0.07304 0.52992 0.0
N1913 N 0.73622 0.10719 0.63012 0.0
C1914 C 0.71802 0.07997 0.55429 0.0
C1915 C 0.73218 0.09761 0.60565 0.0
N1916 N 0.69958 0.05052 0.57621 0.0
N1917 N 0.7576 0.12355 0.58277 0.0
H1918 H 0.72925 0.10106 0.64811 0.0
H1919 H 0.74504 0.12158 0.63201 0.0
H1920 H 0.76474 0.13078 0.56548 0.0
H1921 H 0.76464 0.12958 0.60099 0.0
H1922 H 0.69597 0.04311 0.55762 0.0
H1923 H 0.69464 0.04191 0.59292 0.0
H1924 H 0.6963 0.06078 0.52816 0.0
H1925 H 0.71355 0.08052 0.51195 0.0
C1926 C 0.9216 0.63798 0.59208 0.0
C1927 C 0.92549 0.65352 0.60931 0.0
C1928 C 0.9083 0.66115 0.57853 0.0
C1929 C 0.90322 0.64481 0.56253 0.0
N1930 N 0.90089 0.61508 0.55863 0.0
N1931 N 0.91772 0.67625 0.62311 0.0
C1932 C 0.90849 0.63235 0.57086 0.0
C1933 C 0.91732 0.66398 0.60385 0.0
N1934 N 0.93119 0.62934 0.59459 0.0
N1935 N 0.90546 0.6745 0.56904 0.0
H1936 H 0.92342 0.67806 0.64247 0.0
H1937 H 0.91054 0.68297 0.621 0.0
H1938 H 0.89949 0.67342 0.55017 0.0
H1939 H 0.9107 0.68748 0.57878 0.0
H1940 H 0.93005 0.61918 0.58067 0.0
H1941 H 0.94172 0.63358 0.60868 0.0
H1942 H 0.90301 0.60482 0.56564 0.0
H1943 H 0.89096 0.61038 0.54337 0.0
C1944 C 0.92569 0.68625 0.73795 0.0
C1945 C 0.93078 0.67277 0.73863 0.0
C1946 C 0.92847 0.67228 0.78858 0.0
C1947 C 0.92203 0.68468 0.78774 0.0
N1948 N 0.91227 0.70182 0.76203 0.0
N1949 N 0.93379 0.65032 0.76371 0.0
C1950 C 0.91998 0.6912 0.7625 0.0
C1951 C 0.93136 0.6651 0.76372 0.0
N1952 N 0.92697 0.69482 0.71403 0.0
N1953 N 0.93214 0.66764 0.81316 0.0
H1954 H 0.93568 0.6444 0.74593 0.0
H1955 H 0.93229 0.64278 0.78104 0.0
H1956 H 0.92969 0.67215 0.83191 0.0
H1957 H 0.93891 0.6605 0.81504 0.0
H1958 H 0.92532 0.70614 0.71268 0.0
H1959 H 0.93112 0.69155 0.69569 0.0
H1960 H 0.90854 0.70535 0.74414 0.0
H1961 H 0.90838 0.70607 0.77972 0.0
C1962 C 0.29759 0.2545 0.75618 0.0
C1963 C 0.30702 0.25235 0.73372 0.0
C1964 C 0.3122 0.23133 0.76023 0.0
C1965 C 0.30521 0.23572 0.78373 0.0
N1966 N 0.29236 0.25244 0.80509 0.0
N1967 N 0.325 0.24025 0.71488 0.0
C1968 C 0.29804 0.24744 0.78196 0.0
C1969 C 0.31458 0.24096 0.73571 0.0
N1970 N 0.28785 0.2629 0.75264 0.0
N1971 N 0.31649 0.2179 0.76141 0.0
H1972 H 0.32725 0.24721 0.69666 0.0
H1973 H 0.33263 0.23398 0.71644 0.0
H1974 H 0.31504 0.21072 0.77918 0.0
H1975 H 0.31989 0.21269 0.74431 0.0
H1976 H 0.27922 0.26328 0.76745 0.0
H1977 H 0.28703 0.26798 0.7339 0.0
H1978 H 0.28911 0.26272 0.80568 0.0
H1979 H 0.29204 0.24718 0.82423 0.0
C1980 C 0.74331 0.081 0.73408 0.0
C1981 C 0.72656 0.06356 0.73442 0.0
C1982 C 0.72462 0.06643 0.78416 0.0
C1983 C 0.74005 0.08485 0.78329 0.0
N1984 N 0.76389 0.11031 0.75801 0.0
N1985 N 0.70089 0.0394 0.75902 0.0
C1986 C 0.74949 0.09226 0.75844 0.0
C1987 C 0.71717 0.05613 0.75931 0.0
N1988 N 0.75323 0.08677 0.71046 0.0
N1989 N 0.71732 0.05875 0.80885 0.0
H1990 H 0.69559 0.0309 0.74149 0.0
H1991 H 0.69216 0.03425 0.77575 0.0
H1992 H 0.72234 0.06601 0.82743 0.0
H1993 H 0.70725 0.0448 0.81124 0.0
H1994 H 0.76639 0.09845 0.70934 0.0
H1995 H 0.74884 0.07905 0.69213 0.0
H1996 H 0.77008 0.11734 0.74018 0.0
H1997 H 0.7691 0.11875 0.7756 0.0
C1998 C 0.04723 0.36639 0.08285 0.0
C1999 C 0.04012 0.35789 0.05688 0.0
C2000 C 0.06313 0.34909 0.0529 0.0
C2001 C 0.06883 0.35578 0.08006 0.0
N2002 N 0.06433 0.36798 0.12272 0.0
N2003 N 0.03956 0.33906 0.01838 0.0
C2004 C 0.06033 0.36366 0.09556 0.0
C2005 C 0.04766 0.34874 0.0421 0.0
N2006 N 0.042 0.37771 0.09491 0.0
N2007 N 0.07274 0.3434 0.0373 0.0
H2008 H 0.02819 0.33845 0.00989 0.0
H2009 H 0.04317 0.33043 0.00823 0.0
H2010 H 0.08397 0.34325 0.04476 0.0
H2011 H 0.0705 0.34023 0.01648 0.0
H2012 H 0.04818 0.38585 0.11245 0.0
H2013 H 0.03277 0.38048 0.08595 0.0
H2014 H 0.05703 0.37175 0.13572 0.0
H2015 H 0.07388 0.36624 0.13292 0.0
C2016 C 0.62946 0.68332 0.07215 0.0
C2017 C 0.63201 0.68004 0.04433 0.0
C2018 C 0.64955 0.71362 0.03641 0.0
C2019 C 0.6474 0.71694 0.06439 0.0
N2020 N 0.63272 0.70545 0.10788 0.0
N2021 N 0.64072 0.69115 0.99863 0.0
C2022 C 0.63638 0.70191 0.08188 0.0
C2023 C 0.64089 0.69495 0.02601 0.0
N2024 N 0.62138 0.66875 0.0896 0.0
N2025 N 0.66035 0.72835 0.02008 0.0
H2026 H 0.63434 0.67757 0.99049 0.0
H2027 H 0.64551 0.7012 0.98373 0.0
H2028 H 0.66605 0.74219 0.02669 0.0
H2029 H 0.66436 0.72698 0.00043 0.0
H2030 H 0.62121 0.67031 0.11074 0.0
H2031 H 0.61561 0.65489 0.08309 0.0
H2032 H 0.6232 0.69521 0.12067 0.0
H2033 H 0.63827 0.71887 0.11623 0.0
C2034 C 0.30134 0.94622 0.02365 0.0
C2035 C 0.31905 0.95481 0.03542 0.0
C2036 C 0.30595 0.93807 0.07772 0.0
C2037 C 0.28838 0.92851 0.06537 0.0
N2038 N 0.26953 0.92098 0.02535 0.0
N2039 N 0.33872 0.95559 0.07084 0.0
C2040 C 0.28612 0.93183 0.03791 0.0
C2041 C 0.32151 0.94976 0.06166 0.0
N2042 N 0.29897 0.95235 0.99945 0.0
N2043 N 0.30774 0.93655 0.10508 0.0
H2044 H 0.3505 0.96378 0.05937 0.0
H2045 H 0.34121 0.95075 0.08856 0.0
H2046 H 0.29669 0.92819 0.11773 0.0
H2047 H 0.31995 0.94485 0.11573 0.0
H2048 H 0.28618 0.94809 0.99131 0.0
H2049 H 0.3098 0.96283 0.98843 0.0
H2050 H 0.26746 0.9214 0.00455 0.0
H2051 H 0.25809 0.91043 0.03531 0.0
C2052 C 0.366 0.04875 0.95395 0.0
C2053 C 0.35816 0.04246 0.98005 0.0
C2054 C 0.35025 0.06649 0.98326 0.0
C2055 C 0.35639 0.07142 0.95602 0.0
N2056 N 0.36767 0.0656 0.9138 0.0
N2057 N 0.34129 0.04384 0.01887 0.0
C2058 C 0.36361 0.0621 0.9409 0.0
C2059 C 0.34994 0.05099 0.99464 0.0
N2060 N 0.37632 0.04244 0.94206 0.0
N2061 N 0.34507 0.07686 0.99833 0.0
H2062 H 0.3411 0.03272 0.02798 0.0
H2063 H 0.3333 0.04805 0.02907 0.0
H2064 H 0.34484 0.08807 0.99038 0.0
H2065 H 0.34225 0.07526 0.01916 0.0
H2066 H 0.38399 0.04793 0.92438 0.0
H2067 H 0.37869 0.03294 0.95132 0.0
H2068 H 0.37093 0.0577 0.90096 0.0
H2069 H 0.36633 0.07545 0.90344 0.0
C2070 C 0.95261 0.29604 0.01876 0.0
C2071 C 0.95578 0.31306 0.0085 0.0
C2072 C 0.93592 0.29624 0.96935 0.0
C2073 C 0.93168 0.27909 0.98056 0.0
N2074 N 0.93273 0.26239 0.01885 0.0
N2075 N 0.94641 0.32867 0.97844 0.0
C2076 C 0.93899 0.2789 0.00625 0.0
C2077 C 0.94616 0.31294 0.98514 0.0
N2078 N 0.96326 0.29619 0.03935 0.0
N2079 N 0.93102 0.29678 0.94311 0.0
H2080 H 0.95314 0.34095 0.99028 0.0
H2081 H 0.93828 0.32888 0.96306 0.0
H2082 H 0.92397 0.28498 0.93038 0.0
H2083 H 0.93552 0.30918 0.93309 0.0
H2084 H 0.96285 0.28427 0.04551 0.0
H2085 H 0.97366 0.3084 0.04871 0.0
H2086 H 0.93624 0.26155 0.0388 0.0
H2087 H 0.92267 0.2496 0.01031 0.0
C2088 C 0.69912 0.67116 0.97246 0.0
C2089 C 0.68903 0.65297 0.98301 0.0
C2090 C 0.71656 0.65107 0.98058 0.0
C2091 C 0.72569 0.66803 0.96634 0.0
N2092 N 0.72415 0.69227 0.94369 0.0
N2093 N 0.68744 0.6245 0.99429 0.0
C2094 C 0.71658 0.67758 0.96093 0.0
C2095 C 0.69758 0.64262 0.98653 0.0
N2096 N 0.69232 0.68262 0.97433 0.0
N2097 N 0.7261 0.64324 0.98878 0.0
H2098 H 0.67348 0.61775 0.99852 0.0
H2099 H 0.69251 0.61568 0.99434 0.0
H2100 H 0.74002 0.64912 0.98475 0.0
H2101 H 0.72066 0.63189 0.00156 0.0
H2102 H 0.69995 0.69663 0.96932 0.0
H2103 H 0.67991 0.67877 0.98382 0.0
H2104 H 0.71711 0.69837 0.93688 0.0
H2105 H 0.73668 0.69716 0.93392 0.0
C2106 C 0.95298 0.66318 0.99088 0.0
C2107 C 0.95948 0.6544 0.97288 0.0
C2108 C 0.94647 0.66092 0.93385 0.0
C2109 C 0.93893 0.66861 0.95195 0.0
N2110 N 0.93157 0.67342 0.99796 0.0
N2111 N 0.95804 0.64034 0.92867 0.0
C2112 C 0.94109 0.66858 0.9806 0.0
C2113 C 0.95486 0.65186 0.94478 0.0
N2114 N 0.95891 0.66731 0.01737 0.0
N2115 N 0.94644 0.66303 0.90627 0.0
H2116 H 0.96344 0.63284 0.93639 0.0
H2117 H 0.95343 0.63661 0.90858 0.0
H2118 H 0.94087 0.67 0.89729 0.0
H2119 H 0.9535 0.65942 0.89249 0.0
H2120 H 0.95625 0.67557 0.03047 0.0
H2121 H 0.96778 0.66383 0.0257 0.0
H2122 H 0.93117 0.67187 0.01902 0.0
H2123 H 0.9227 0.67739 0.99106 0.0
C2124 C 0.35271 0.29947 0.99866 0.0
C2125 C 0.35458 0.31449 0.98359 0.0
C2126 C 0.34189 0.29404 0.94285 0.0
C2127 C 0.34121 0.2794 0.9574 0.0
N2128 N 0.34781 0.26836 0.99779 0.0
N2129 N 0.35347 0.32702 0.94043 0.0
C2130 C 0.34721 0.28219 0.98492 0.0
C2131 C 0.34976 0.31201 0.95546 0.0
N2132 N 0.35535 0.30146 0.02633 0.0
N2133 N 0.33481 0.29069 0.91699 0.0
H2134 H 0.35886 0.3404 0.94876 0.0
H2135 H 0.35255 0.32662 0.91922 0.0
H2136 H 0.32997 0.27808 0.90626 0.0
H2137 H 0.33262 0.29996 0.9067 0.0
H2138 H 0.35233 0.2905 0.03897 0.0
H2139 H 0.35915 0.31381 0.03715 0.0
H2140 H 0.354 0.2702 0.0167 0.0
H2141 H 0.34316 0.25527 0.98873 0.0
C2142 C 0.67597 0.04005 0.94637 0.0
C2143 C 0.66781 0.04275 0.96999 0.0
C2144 C 0.69342 0.07518 0.97442 0.0
C2145 C 0.70032 0.07303 0.94897 0.0
N2146 N 0.69706 0.05513 0.90863 0.0
N2147 N 0.66761 0.06299 0.0056 0.0
C2148 C 0.69123 0.05576 0.93446 0.0
C2149 C 0.67621 0.06037 0.9838 0.0
N2150 N 0.66948 0.02248 0.93582 0.0
N2151 N 0.70364 0.09105 0.98997 0.0
H2152 H 0.6553 0.05226 0.01351 0.0
H2153 H 0.67201 0.07599 0.01473 0.0
H2154 H 0.71648 0.10189 0.98387 0.0
H2155 H 0.7002 0.09281 0.00983 0.0
H2156 H 0.67614 0.0194 0.92056 0.0
H2157 H 0.65837 0.01064 0.94415 0.0
H2158 H 0.69048 0.04364 0.8952 0.0
H2159 H 0.69048 0.04364 0.8952 0.0
C2160 C 0.6678 0.97039 0.04504 0.0
C2161 C 0.64982 0.96109 0.03422 0.0
C2162 C 0.64805 0.93124 0.03752 0.0
C2163 C 0.66463 0.94032 0.05265 0.0
N2164 N 0.68866 0.96843 0.07514 0.0
N2165 N 0.62177 0.93219 0.02281 0.0
C2166 C 0.67416 0.9599 0.05747 0.0
C2167 C 0.63967 0.94137 0.03085 0.0
N2168 N 0.67903 0.98926 0.04285 0.0
N2169 N 0.64045 0.91302 0.0293 0.0
H2170 H 0.61498 0.93901 0.01819 0.0
H2171 H 0.61319 0.91775 0.02295 0.0
H2172 H 0.64636 0.90529 0.0337 0.0
H2173 H 0.62933 0.90616 0.01602 0.0
H2174 H 0.69284 0.99647 0.04816 0.0
H2175 H 0.67511 0.99736 0.03283 0.0
H2176 H 0.69474 0.98235 0.08148 0.0
H2177 H 0.69347 0.96129 0.08566 0.0
C2178 C 0.04309 0.70448 0.00574 0.0
C2179 C 0.03877 0.68822 0.01994 0.0
C2180 C 0.05668 0.7074 0.05935 0.0
C2181 C 0.06189 0.72368 0.04458 0.0
N2182 N 0.06317 0.73798 0.00211 0.0
N2183 N 0.04493 0.67428 0.05723 0.0
C2184 C 0.05608 0.72229 0.0172 0.0
C2185 C 0.04664 0.68972 0.04585 0.0
N2186 N 0.03406 0.70301 0.98214 0.0
N2187 N 0.06062 0.70875 0.0866 0.0
H2188 H 0.03807 0.66116 0.04754 0.0
H2189 H 0.05185 0.6748 0.07485 0.0
H2190 H 0.06789 0.72142 0.09742 0.0
H2191 H 0.05532 0.69724 0.09905 0.0
H2192 H 0.03512 0.71441 0.97265 0.0
H2193 H 0.02432 0.69028 0.97314 0.0
H2194 H 0.06093 0.73767 0.9812 0.0
H2195 H 0.0726 0.75124 0.01001 0.0
C2196 C 0.30366 0.34651 0.05222 0.0
C2197 C 0.30618 0.352 0.02456 0.0
C2198 C 0.27504 0.34618 0.02337 0.0
C2199 C 0.27306 0.34184 0.05143 0.0
N2200 N 0.28671 0.34191 0.09417 0.0
N2201 N 0.29571 0.36011 0.98502 0.0
C2202 C 0.28781 0.34337 0.06637 0.0
C2203 C 0.29226 0.35273 0.01045 0.0
N2204 N 0.31573 0.34303 0.0645 0.0
N2205 N 0.26032 0.34354 0.00895 0.0
H2206 H 0.30821 0.36509 0.9751 0.0
H2207 H 0.28681 0.36273 0.97471 0.0
H2208 H 0.24768 0.33925 0.01802 0.0
H2209 H 0.26024 0.34443 0.9878 0.0
H2210 H 0.31344 0.33704 0.08356 0.0
H2211 H 0.32716 0.34429 0.0547 0.0
H2212 H 0.29781 0.34497 0.10642 0.0
H2213 H 0.2752 0.33933 0.10532 0.0
C2214 C 0.72694 0.70191 0.37677 0.0
C2215 C 0.70926 0.69587 0.38734 0.0
C2216 C 0.71242 0.67643 0.42013 0.0
C2217 C 0.7295 0.68132 0.40826 0.0
N2218 N 0.75202 0.69649 0.37294 0.0
N2219 N 0.68336 0.67399 0.41416 0.0
C2220 C 0.7365 0.69344 0.38585 0.0
C2221 C 0.70148 0.68217 0.40766 0.0
N2222 N 0.73482 0.71615 0.35879 0.0
N2223 N 0.70689 0.66678 0.44384 0.0
H2224 H 0.67466 0.67726 0.40462 0.0
H2225 H 0.6765 0.66259 0.4268 0.0
H2226 H 0.71449 0.66229 0.45379 0.0
H2227 H 0.69556 0.66469 0.455 0.0
H2228 H 0.7484 0.72255 0.35255 0.0
H2229 H 0.72813 0.72253 0.35157 0.0
H2230 H 0.75681 0.70361 0.35478 0.0
H2231 H 0.75941 0.69064 0.37932 0.0
C2232 C 0.30621 0.03454 0.36048 0.0
C2233 C 0.31636 0.02565 0.36157 0.0
C2234 C 0.33941 0.05119 0.3904 0.0
C2235 C 0.33013 0.06085 0.38758 0.0
N2236 N 0.30651 0.06339 0.36608 0.0
N2237 N 0.34507 0.02809 0.3708 0.0
C2238 C 0.31405 0.05303 0.37141 0.0
C2239 C 0.33371 0.03475 0.37452 0.0
N2240 N 0.28883 0.02506 0.35014 0.0
N2241 N 0.35318 0.05721 0.40913 0.0
H2242 H 0.34174 0.01656 0.35817 0.0
H2243 H 0.35857 0.03522 0.37768 0.0
H2244 H 0.35753 0.06891 0.42191 0.0
H2245 H 0.35903 0.0495 0.41392 0.0
H2246 H 0.28006 0.03008 0.35151 0.0
H2247 H 0.28262 0.0115 0.34209 0.0
H2248 H 0.29587 0.05916 0.35222 0.0
H2249 H 0.31194 0.07696 0.37379 0.0
C2250 C 0.99218 0.2907 0.38216 0.0
C2251 C 0.98969 0.30153 0.36315 0.0
C2252 C 0.95641 0.28086 0.36734 0.0
C2253 C 0.95905 0.27185 0.3892 0.0
N2254 N 0.97972 0.27073 0.42096 0.0
N2255 N 0.96936 0.30871 0.34065 0.0
C2256 C 0.97701 0.27742 0.39757 0.0
C2257 C 0.97177 0.29704 0.35634 0.0
N2258 N 0.00892 0.29266 0.38489 0.0
N2259 N 0.9393 0.27377 0.35677 0.0
H2260 H 0.9802 0.32097 0.33278 0.0
H2261 H 0.95665 0.30714 0.33754 0.0
H2262 H 0.92777 0.26186 0.36422 0.0
H2263 H 0.93682 0.27865 0.33907 0.0
H2264 H 0.01106 0.28386 0.39659 0.0
H2265 H 0.02022 0.30171 0.37311 0.0
H2266 H 0.99262 0.27589 0.42943 0.0
H2267 H 0.96905 0.26138 0.43342 0.0
C2268 C 0.01183 0.38031 0.30901 0.0
C2269 C 0.01678 0.38485 0.33693 0.0
C2270 C 0.01417 0.41231 0.33378 0.0
C2271 C 0.01182 0.40914 0.30511 0.0
N2272 N 0.01079 0.3915 0.26462 0.0
N2273 N 0.02404 0.40576 0.37588 0.0
C2274 C 0.01118 0.39344 0.29249 0.0
C2275 C 0.01814 0.40092 0.34945 0.0
N2276 N 0.00727 0.36319 0.29848 0.0
N2277 N 0.01235 0.42604 0.34599 0.0
H2278 H 0.0269 0.39765 0.38803 0.0
H2279 H 0.02732 0.41839 0.38521 0.0
H2280 H 0.00955 0.43465 0.33499 0.0
H2281 H 0.0121 0.42789 0.36707 0.0
H2282 H 0.00175 0.35836 0.27903 0.0
H2283 H 0.00724 0.35304 0.31016 0.0
H2284 H 0.01249 0.38153 0.2543 0.0
H2285 H 0.01033 0.40079 0.25161 0.0
C2286 C 0.6047 0.64615 0.3255 0.0
C2287 C 0.62177 0.65736 0.31222 0.0
C2288 C 0.61473 0.63169 0.27988 0.0
C2289 C 0.59745 0.62066 0.29264 0.0
N2290 N 0.57453 0.61785 0.32439 0.0
N2291 N 0.64167 0.66231 0.27384 0.0
C2292 C 0.59196 0.62807 0.31446 0.0
C2293 C 0.6264 0.65054 0.28858 0.0
N2294 N 0.60105 0.65244 0.34936 0.0
N2295 N 0.62017 0.62398 0.25979 0.0
H2296 H 0.65077 0.67616 0.27968 0.0
H2297 H 0.64461 0.65889 0.25465 0.0
H2298 H 0.61171 0.61054 0.25165 0.0
H2299 H 0.63347 0.63043 0.25226 0.0
H2300 H 0.58982 0.6442 0.36171 0.0
H2301 H 0.60997 0.66563 0.35794 0.0
H2302 H 0.56897 0.62311 0.33828 0.0
H2303 H 0.56509 0.60438 0.31719 0.0
C2304 C 0.35639 0.97845 0.29299 0.0
C2305 C 0.35442 0.98427 0.3196 0.0
C2306 C 0.38706 0.99734 0.32846 0.0
C2307 C 0.38937 0.99371 0.30072 0.0
N2308 N 0.37677 0.98282 0.25542 0.0
N2309 N 0.36792 0.00054 0.36232 0.0
C2310 C 0.37416 0.98472 0.28267 0.0
C2311 C 0.36973 0.99389 0.33742 0.0
N2312 N 0.34118 0.96643 0.27789 0.0
N2313 N 0.4014 0.00387 0.34624 0.0
H2314 H 0.35544 0.99804 0.36985 0.0
H2315 H 0.37896 0.00957 0.37482 0.0
H2316 H 0.41432 0.00677 0.34015 0.0
H2317 H 0.40016 0.005 0.36729 0.0
H2318 H 0.34167 0.96018 0.2595 0.0
H2319 H 0.3279 0.9612 0.28507 0.0
H2320 H 0.36652 0.97843 0.24081 0.0
H2321 H 0.38954 0.98703 0.24693 0.0
C2322 C 0.6086 0.9752 0.33049 0.0
C2323 C 0.62392 0.97764 0.31538 0.0
C2324 C 0.60829 0.97497 0.27249 0.0
C2325 C 0.59377 0.97434 0.2876 0.0
N2326 N 0.58081 0.97611 0.33072 0.0
N2327 N 0.63996 0.98364 0.27232 0.0
C2328 C 0.59411 0.97508 0.31657 0.0
C2329 C 0.62419 0.97849 0.28644 0.0
N2330 N 0.60759 0.97229 0.35794 0.0
N2331 N 0.60673 0.97185 0.24481 0.0
H2332 H 0.65216 0.98697 0.28173 0.0
H2333 H 0.6415 0.98643 0.25156 0.0
H2334 H 0.59538 0.96945 0.23372 0.0
H2335 H 0.61593 0.97002 0.23315 0.0
H2336 H 0.59597 0.96848 0.3696 0.0
H2337 H 0.61789 0.97215 0.36875 0.0
H2338 H 0.58136 0.97875 0.3517 0.0
H2339 H 0.56981 0.97565 0.32115 0.0
C2340 C 0.02157 0.65814 0.29171 0.0
C2341 C 0.02544 0.66144 0.32013 0.0
C2342 C 0.01901 0.62961 0.32418 0.0
C2343 C 0.01325 0.62582 0.29651 0.0
N2344 N 0.0054 0.63528 0.25548 0.0
N2345 N 0.02462 0.64927 0.36451 0.0
C2346 C 0.01347 0.63974 0.28071 0.0
C2347 C 0.02336 0.64691 0.33671 0.0
N2348 N 0.02633 0.67266 0.27492 0.0
N2349 N 0.0207 0.61687 0.33829 0.0
H2350 H 0.02728 0.66151 0.37458 0.0
H2351 H 0.02134 0.6385 0.37772 0.0
H2352 H 0.01751 0.60402 0.32978 0.0
H2353 H 0.0267 0.61968 0.35757 0.0
H2354 H 0.02557 0.67125 0.25369 0.0
H2355 H 0.03286 0.68648 0.28189 0.0
H2356 H 0.00342 0.64443 0.24439 0.0
H2357 H 0.99905 0.62189 0.24672 0.0
C2358 C 0.35549 0.35995 0.3022 0.0
C2359 C 0.3491 0.36535 0.32547 0.0
C2360 C 0.37746 0.39615 0.32615 0.0
C2361 C 0.38299 0.39118 0.30159 0.0
N2362 N 0.37546 0.36996 0.26287 0.0
N2363 N 0.35247 0.38952 0.35697 0.0
C2364 C 0.37143 0.37357 0.28858 0.0
C2365 C 0.35968 0.38373 0.33679 0.0
N2366 N 0.34699 0.34163 0.29391 0.0
N2367 N 0.38936 0.41253 0.3396 0.0
H2368 H 0.33939 0.3809 0.36491 0.0
H2369 H 0.35875 0.40327 0.36414 0.0
H2370 H 0.40234 0.42205 0.33206 0.0
H2371 H 0.38692 0.41605 0.35908 0.0
H2372 H 0.35236 0.33674 0.27902 0.0
H2373 H 0.33563 0.33094 0.30372 0.0
H2374 H 0.36643 0.35815 0.25123 0.0
H2375 H 0.38703 0.37955 0.25205 0.0
C2376 C 0.33308 0.29575 0.3647 0.0
C2377 C 0.31747 0.28445 0.34809 0.0
C2378 C 0.31847 0.25691 0.35964 0.0
C2379 C 0.33233 0.26789 0.37922 0.0
N2380 N 0.35066 0.29728 0.40379 0.0
N2381 N 0.29404 0.25394 0.33142 0.0
C2382 C 0.3391 0.28721 0.38264 0.0
C2383 C 0.30987 0.26492 0.34579 0.0
N2384 N 0.34256 0.31469 0.36262 0.0
N2385 N 0.31379 0.23897 0.35396 0.0
H2386 H 0.28742 0.25932 0.32094 0.0
H2387 H 0.28675 0.23944 0.33153 0.0
H2388 H 0.31984 0.23274 0.36375 0.0
H2389 H 0.30511 0.23085 0.338 0.0
H2390 H 0.35506 0.32353 0.3723 0.0
H2391 H 0.33901 0.32139 0.34876 0.0
H2392 H 0.35435 0.3109 0.40892 0.0
H2393 H 0.35519 0.29156 0.41787 0.0
C2394 C 0.72258 0.04446 0.34055 0.0
C2395 C 0.71414 0.02793 0.35583 0.0
C2396 C 0.72523 0.04643 0.39847 0.0
C2397 C 0.7348 0.06287 0.3831 0.0
N2398 N 0.74501 0.07768 0.3397 0.0
N2399 N 0.71063 0.01289 0.39861 0.0
C2400 C 0.73421 0.06193 0.35415 0.0
C2401 C 0.71633 0.02883 0.38462 0.0
N2402 N 0.71885 0.04354 0.3133 0.0
N2403 N 0.72422 0.04766 0.42629 0.0
H2404 H 0.70448 0.99974 0.38913 0.0
H2405 H 0.71357 0.01284 0.41915 0.0
H2406 H 0.73075 0.06029 0.43733 0.0
H2407 H 0.71568 0.03628 0.43827 0.0
H2408 H 0.72297 0.05523 0.30166 0.0
H2409 H 0.71034 0.03102 0.30267 0.0
H2410 H 0.74671 0.0776 0.31861 0.0
H2411 H 0.75344 0.09074 0.34907 0.0
C2412 C 0.9643 0.67483 0.38957 0.0
C2413 C 0.97438 0.69308 0.37928 0.0
C2414 C 0.94702 0.69523 0.38292 0.0
C2415 C 0.93793 0.67817 0.39689 0.0
N2416 N 0.93955 0.65371 0.41871 0.0
N2417 N 0.97611 0.72177 0.369 0.0
C2418 C 0.94699 0.66847 0.40162 0.0
C2419 C 0.96593 0.70359 0.3765 0.0
N2420 N 0.97093 0.66326 0.38699 0.0
N2421 N 0.93752 0.70326 0.37545 0.0
H2422 H 0.99002 0.72845 0.36445 0.0
H2423 H 0.97114 0.73068 0.36948 0.0
H2424 H 0.92366 0.69745 0.37985 0.0
H2425 H 0.94291 0.71472 0.36288 0.0
H2426 H 0.96326 0.64921 0.39182 0.0
H2427 H 0.98322 0.66706 0.37712 0.0
H2428 H 0.9466 0.6475 0.425 0.0
H2429 H 0.92717 0.64886 0.42889 0.0
C2430 C 0.39607 0.02297 0.68947 0.0
C2431 C 0.38794 0.03049 0.70665 0.0
C2432 C 0.39863 0.02261 0.74717 0.0
C2433 C 0.4048 0.01313 0.73009 0.0
N2434 N 0.40845 0.00292 0.68531 0.0
N2435 N 0.37898 0.03509 0.7518 0.0
C2436 C 0.40336 0.01301 0.70128 0.0
C2437 C 0.38869 0.02986 0.73552 0.0
N2438 N 0.39721 0.02578 0.66198 0.0
N2439 N 0.40238 0.02478 0.77456 0.0
H2440 H 0.37124 0.04021 0.7442 0.0
H2441 H 0.37725 0.03285 0.77271 0.0
H2442 H 0.40931 0.01933 0.78399 0.0
H2443 H 0.40004 0.03332 0.78755 0.0
H2444 H 0.40454 0.02227 0.64862 0.0
H2445 H 0.39206 0.03308 0.65276 0.0
H2446 H 0.40583 0.00047 0.66443 0.0
H2447 H 0.41437 0.99597 0.69329 0.0
C2448 C 0.96675 0.34666 0.71092 0.0
C2449 C 0.97802 0.34745 0.6889 0.0
C2450 C 0.99416 0.38157 0.69106 0.0
C2451 C 0.9851 0.38067 0.71593 0.0
N2452 N 0.96457 0.36203 0.75194 0.0
N2453 N 0.00446 0.36599 0.66033 0.0
C2454 C 0.97176 0.36313 0.72647 0.0
C2455 C 0.99216 0.36499 0.67929 0.0
N2456 N 0.95103 0.33023 0.71666 0.0
N2457 N 0.00457 0.39826 0.67859 0.0
H2458 H 0.004 0.35433 0.65171 0.0
H2459 H 0.01617 0.37849 0.655 0.0
H2460 H 0.00618 0.41064 0.6866 0.0
H2461 H 0.01005 0.39946 0.65909 0.0
H2462 H 0.94145 0.32924 0.73092 0.0
H2463 H 0.94659 0.31802 0.70502 0.0
H2464 H 0.95632 0.34945 0.76167 0.0
H2465 H 0.96817 0.37367 0.76448 0.0
C2466 C 0.654 0.62636 0.73094 0.0
C2467 C 0.65439 0.63257 0.7042 0.0
C2468 C 0.62092 0.613 0.70182 0.0
C2469 C 0.6205 0.60879 0.72972 0.0
N2470 N 0.63648 0.61358 0.77225 0.0
N2471 N 0.63814 0.63397 0.6654 0.0
C2472 C 0.63701 0.616 0.74468 0.0
C2473 C 0.63783 0.62636 0.68981 0.0
N2474 N 0.66983 0.62986 0.74286 0.0
N2475 N 0.60517 0.60401 0.68673 0.0
H2476 H 0.65018 0.64402 0.65604 0.0
H2477 H 0.62639 0.63152 0.65553 0.0
H2478 H 0.59253 0.59422 0.69497 0.0
H2479 H 0.6049 0.60502 0.66562 0.0
H2480 H 0.67018 0.62413 0.76121 0.0
H2481 H 0.68247 0.63694 0.73304 0.0
H2482 H 0.64805 0.62034 0.78468 0.0
H2483 H 0.62432 0.60608 0.78319 0.0
C2484 C 0.67776 0.71975 0.66639 0.0
C2485 C 0.68582 0.71214 0.6492 0.0
C2486 C 0.68286 0.72754 0.60982 0.0
C2487 C 0.67597 0.73617 0.62732 0.0
N2488 N 0.66956 0.74312 0.67266 0.0
N2489 N 0.69966 0.71183 0.60611 0.0
C2490 C 0.67426 0.73309 0.65578 0.0
C2491 C 0.68941 0.71691 0.62133 0.0
N2492 N 0.67265 0.71358 0.69241 0.0
N2493 N 0.68257 0.72897 0.58209 0.0
H2494 H 0.70497 0.70428 0.61396 0.0
H2495 H 0.70439 0.71661 0.58655 0.0
H2496 H 0.67801 0.73674 0.57272 0.0
H2497 H 0.68541 0.7212 0.56824 0.0
H2498 H 0.66491 0.71707 0.70489 0.0
H2499 H 0.67485 0.70373 0.70087 0.0
H2500 H 0.66996 0.74297 0.69388 0.0
H2501 H 0.66665 0.75279 0.66543 0.0
C2502 C 0.28906 0.96608 0.68112 0.0
C2503 C 0.29312 0.98304 0.66934 0.0
C2504 C 0.27131 0.96551 0.63236 0.0
C2505 C 0.2667 0.94859 0.64478 0.0
N2506 N 0.2675 0.93284 0.68442 0.0
N2507 N 0.28435 0.99874 0.63848 0.0
C2508 C 0.27434 0.94893 0.67039 0.0
C2509 C 0.28301 0.98269 0.64645 0.0
N2510 N 0.29999 0.96613 0.70118 0.0
N2511 N 0.2654 0.9653 0.60651 0.0
H2512 H 0.29237 0.01147 0.64893 0.0
H2513 H 0.27604 0.99904 0.62348 0.0
H2514 H 0.25695 0.95307 0.59523 0.0
H2515 H 0.27011 0.97732 0.59537 0.0
H2516 H 0.29879 0.95402 0.70825 0.0
H2517 H 0.31137 0.97823 0.70906 0.0
H2518 H 0.27132 0.93251 0.70438 0.0
H2519 H 0.25665 0.92007 0.67706 0.0
C2520 C 0.04704 0.32281 0.68285 0.0
C2521 C 0.03315 0.32471 0.67108 0.0
C2522 C 0.05316 0.34119 0.63258 0.0
C2523 C 0.0664 0.33772 0.64295 0.0
N2524 N 0.07556 0.32368 0.67616 0.0
N2525 N 0.02169 0.3333 0.63318 0.0
C2526 C 0.06328 0.32816 0.66769 0.0
C2527 C 0.03585 0.33324 0.64549 0.0
N2528 N 0.04475 0.31611 0.70862 0.0
N2529 N 0.05737 0.35255 0.61081 0.0
H2530 H 0.00887 0.32797 0.6422 0.0
H2531 H 0.02215 0.33732 0.61315 0.0
H2532 H 0.06992 0.35864 0.6007 0.0
H2533 H 0.04909 0.3573 0.6042 0.0
H2534 H 0.05507 0.31615 0.71955 0.0
H2535 H 0.03281 0.31164 0.7199 0.0
H2536 H 0.07321 0.31501 0.69239 0.0
H2537 H 0.0877 0.32765 0.66573 0.0
C2538 C 0.29541 0.31881 0.61433 0.0
C2539 C 0.29658 0.31907 0.64324 0.0
C2540 C 0.26949 0.32165 0.64737 0.0
C2541 C 0.26931 0.3229 0.61857 0.0
N2542 N 0.28428 0.32667 0.57506 0.0
N2543 N 0.28675 0.32372 0.68754 0.0
C2544 C 0.28298 0.32274 0.60219 0.0
C2545 C 0.28416 0.32131 0.65989 0.0
N2546 N 0.30542 0.31377 0.5984 0.0
N2547 N 0.25539 0.32027 0.66262 0.0
H2548 H 0.2974 0.32365 0.69736 0.0
H2549 H 0.27931 0.32734 0.7005 0.0
H2550 H 0.24464 0.32086 0.65414 0.0
H2551 H 0.25366 0.31724 0.6833 0.0
H2552 H 0.30362 0.31141 0.57735 0.0
H2553 H 0.31419 0.31004 0.60639 0.0
H2554 H 0.29518 0.32873 0.5628 0.0
H2555 H 0.27541 0.32964 0.56533 0.0
C2556 C 0.70229 0.98796 0.6499 0.0
C2557 C 0.69819 0.99815 0.63189 0.0
C2558 C 0.69459 0.97697 0.59388 0.0
C2559 C 0.69776 0.96618 0.61207 0.0
N2560 N 0.70156 0.9593 0.65797 0.0
N2561 N 0.68557 0.99948 0.58899 0.0
C2562 C 0.70067 0.97104 0.64032 0.0
C2563 C 0.6929 0.9918 0.60452 0.0
N2564 N 0.70841 0.99482 0.67574 0.0
N2565 N 0.69384 0.97351 0.5663 0.0
H2566 H 0.68336 0.00982 0.59656 0.0
H2567 H 0.67981 0.99421 0.56978 0.0
H2568 H 0.69502 0.96277 0.55748 0.0
H2569 H 0.69366 0.98228 0.55197 0.0
H2570 H 0.7136 0.98919 0.68882 0.0
H2571 H 0.70945 0.00697 0.68356 0.0
H2572 H 0.70179 0.96103 0.67913 0.0
H2573 H 0.7006 0.94692 0.65148 0.0
C2574 C 0.01121 0.702 0.62512 0.0
C2575 C 0.00873 0.70366 0.6536 0.0
C2576 C 0.04087 0.72911 0.6579 0.0
C2577 C 0.04361 0.72636 0.62997 0.0
N2578 N 0.03244 0.70822 0.58794 0.0
N2579 N 0.02191 0.71633 0.69809 0.0
C2580 C 0.02908 0.7122 0.61387 0.0
C2581 C 0.02375 0.7166 0.67029 0.0
N2582 N 0.99639 0.69137 0.60854 0.0
N2583 N 0.05451 0.74388 0.67242 0.0
H2584 H 0.00974 0.70709 0.708 0.0
H2585 H 0.03283 0.72406 0.71146 0.0
H2586 H 0.06735 0.75306 0.66412 0.0
H2587 H 0.05269 0.74789 0.69194 0.0
H2588 H 0.99714 0.69136 0.58729 0.0
H2589 H 0.98301 0.68381 0.61577 0.0
H2590 H 0.02291 0.69663 0.5764 0.0
H2591 H 0.04527 0.7156 0.5787 0.0
C2592 C 0.96214 0.59662 0.6848 0.0
C2593 C 0.96668 0.61355 0.69868 0.0
C2594 C 0.96913 0.60113 0.74184 0.0
C2595 C 0.96618 0.58487 0.72761 0.0
N2596 N 0.96291 0.56829 0.68504 0.0
N2597 N 0.97874 0.63358 0.73895 0.0
C2598 C 0.96359 0.58295 0.69889 0.0
C2599 C 0.97138 0.61629 0.72681 0.0
N2600 N 0.95565 0.59323 0.65861 0.0
N2601 N 0.96915 0.60187 0.76979 0.0
H2602 H 0.98124 0.64526 0.72845 0.0
H2603 H 0.98416 0.63677 0.75865 0.0
H2604 H 0.96739 0.59101 0.7817 0.0
H2605 H 0.96921 0.61254 0.78116 0.0
H2606 H 0.95027 0.58036 0.64849 0.0
H2607 H 0.95414 0.60277 0.64772 0.0
H2608 H 0.96298 0.56717 0.66381 0.0
H2609 H 0.96384 0.55798 0.69477 0.0
C2610 C 0.38801 0.3496 0.71162 0.0
C2611 C 0.37063 0.34587 0.72069 0.0
C2612 C 0.38555 0.37388 0.75032 0.0
C2613 C 0.40285 0.37827 0.73989 0.0
N2614 N 0.42025 0.37273 0.70609 0.0
N2615 N 0.35286 0.35719 0.7427 0.0
C2616 C 0.40396 0.36691 0.719 0.0
C2617 C 0.3694 0.35887 0.73821 0.0
N2618 N 0.38947 0.33623 0.69747 0.0
N2619 N 0.38447 0.38336 0.77269 0.0
H2620 H 0.34079 0.34671 0.73343 0.0
H2621 H 0.35146 0.3673 0.75318 0.0
H2622 H 0.39592 0.39423 0.78269 0.0
H2623 H 0.37224 0.3793 0.78287 0.0
H2624 H 0.40196 0.33751 0.69292 0.0
H2625 H 0.37825 0.32308 0.69256 0.0
H2626 H 0.4215 0.3659 0.6889 0.0
H2627 H 0.43216 0.38541 0.71096 0.0
C2628 C 0.6284 0.99836 0.70594 0.0
C2629 C 0.6309 0.00754 0.68097 0.0
C2630 C 0.60007 0.0024 0.68452 0.0
C2631 C 0.59743 0.99281 0.7091 0.0
N2632 N 0.60744 0.97878 0.74107 0.0
N2633 N 0.61869 0.01604 0.6441 0.0
C2634 C 0.61114 0.98995 0.71918 0.0
C2635 C 0.61655 0.00881 0.66946 0.0
N2636 N 0.64266 0.99792 0.71719 0.0
N2637 N 0.58705 0.00586 0.67614 0.0
H2638 H 0.6308 0.02136 0.63295 0.0
H2639 H 0.60818 0.01567 0.63325 0.0
H2640 H 0.57465 0.00093 0.68635 0.0
H2641 H 0.58887 0.01449 0.66011 0.0
H2642 H 0.64257 0.99372 0.73698 0.0
H2643 H 0.65513 0.00272 0.70729 0.0
H2644 H 0.61599 0.97437 0.74759 0.0
H2645 H 0.59508 0.97265 0.75168 0.0
loop_
_geom_bond_atom_site_label_1
_geom_bond_atom_site_label_2
_geom_bond_distance
_geom_bond_site_symmetry_2
_ccdc_geom_bond_type
C0 O1 1.160 . S
C0 O7 1.185 . S
O1 C0 1.160 . S
O2 Zn3 1.899 1_656 S
O2 C10 1.284 1_556 S
Zn3 O2 1.899 1_454 S
Zn3 O4 2.032 . S
Zn3 O7 2.086 . S
Zn3 O12 1.977 1_554 S
O4 Zn3 2.032 . S
O4 C8 1.278 1_455 S
C5 O6 1.203 1_455 S
C5 O12 1.267 . S
O6 C5 1.203 1_655 S
O7 C0 1.185 . S
O7 Zn3 2.086 . S
C8 O4 1.278 1_655 S
C8 O9 1.211 . S
O9 C8 1.211 . S
C10 O2 1.284 1_554 S
C10 O11 1.273 . S
O11 C10 1.273 . S
O12 Zn3 1.977 1_556 S
O12 C5 1.267 . S
C13 O14 1.164 . S
C13 O20 1.179 1_556 S
O14 C13 1.164 . S
O15 Zn16 1.899 . S
O15 C23 1.284 . S
Zn16 O15 1.899 . S
Zn16 O17 2.032 1_554 S
Zn16 O20 2.086 . S
Zn16 O25 1.977 . S
O17 Zn16 2.032 1_556 S
O17 C21 1.278 . S
C18 O19 1.203 . S
C18 O25 1.267 . S
O19 C18 1.203 . S
O20 C13 1.179 1_554 S
O20 Zn16 2.086 . S
C21 O17 1.278 . S
C21 O22 1.211 . S
O22 C21 1.211 . S
C23 O15 1.284 . S
C23 O24 1.273 . S
O24 C23 1.273 . S
O25 Zn16 1.977 . S
O25 C18 1.267 . S
C26 O27 1.160 1_554 S
C26 O33 1.185 . S
O27 C26 1.160 1_556 S
O28 Zn29 1.899 1_565 S
O28 C36 1.284 . S
Zn29 O28 1.899 1_545 S
Zn29 O30 2.032 1_554 S
Zn29 O33 2.086 . S
Zn29 O38 1.977 . S
O30 Zn29 2.032 1_556 S
O30 C34 1.254 1_545 S
C31 O32 1.203 1_545 S
C31 O38 1.267 . S
O32 C31 1.203 1_565 S
O33 C26 1.185 . S
O33 Zn29 2.086 . S
C34 O30 1.254 1_565 S
C34 O35 1.230 . S
O35 C34 1.230 . S
C36 O28 1.284 . S
C36 O37 1.273 . S
O37 C36 1.273 . S
O38 Zn29 1.977 . S
O38 C31 1.267 . S
C39 O40 1.160 . S
C39 O46 1.185 1_556 S
O40 C39 1.160 . S
O41 Zn42 1.899 1_455 S
O41 C49 1.284 . S
Zn42 O41 1.899 1_655 S
Zn42 O43 2.032 1_554 S
Zn42 O46 2.086 . S
Zn42 O51 1.977 . S
O43 Zn42 2.032 1_556 S
O43 C47 1.278 1_655 S
C44 O45 1.203 1_655 S
C44 O51 1.267 . S
O45 C44 1.203 1_455 S
O46 C39 1.185 1_554 S
O46 Zn42 2.086 . S
C47 O43 1.278 1_455 S
C47 O48 1.211 . S
O48 C47 1.211 . S
C49 O41 1.284 . S
C49 O50 1.273 . S
O50 C49 1.273 . S
O51 Zn42 1.977 . S
O51 C44 1.267 . S
C52 O53 1.160 . S
C52 O59 1.185 . S
O53 C52 1.160 . S
O54 Zn55 1.899 1_556 S
O54 C62 1.284 . S
Zn55 O54 1.899 1_554 S
Zn55 O56 2.032 . S
Zn55 O59 2.086 . S
Zn55 O64 1.977 1_554 S
O56 Zn55 2.032 . S
O56 C60 1.278 . S
C57 O58 1.203 . S
C57 O64 1.267 . S
O58 C57 1.203 . S
O59 C52 1.185 . S
O59 Zn55 2.086 . S
C60 O56 1.278 . S
C60 O61 1.211 . S
O61 C60 1.211 . S
C62 O54 1.284 . S
C62 O63 1.273 1_556 S
O63 C62 1.273 1_554 S
O64 Zn55 1.977 1_556 S
O64 C57 1.267 . S
C65 O66 1.160 . S
C65 O72 1.185 . S
O66 C65 1.160 . S
O67 Zn68 1.899 1_546 S
O67 C75 1.283 1_556 S
Zn68 O67 1.899 1_564 S
Zn68 O69 2.032 . S
Zn68 O72 2.086 . S
Zn68 O77 1.977 1_554 S
O69 Zn68 2.032 . S
O69 C73 1.278 1_565 S
C70 O71 1.203 1_565 S
C70 O77 1.267 . S
O71 C70 1.203 1_545 S
O72 C65 1.185 . S
O72 Zn68 2.086 . S
C73 O69 1.278 1_545 S
C73 O74 1.211 . S
O74 C73 1.211 . S
C75 O67 1.283 1_554 S
C75 O76 1.276 . S
O76 C75 1.276 . S
O77 Zn68 1.977 1_556 S
O77 C70 1.267 . S
C78 O79 1.160 . S
C78 O85 1.185 . S
O79 C78 1.160 . S
O80 Zn81 1.899 . S
O80 C88 1.284 . S
Zn81 O80 1.899 . S
Zn81 O82 2.032 . S
Zn81 O85 2.086 . S
Zn81 O90 1.977 . S
O82 Zn81 2.032 . S
O82 C86 1.278 . S
C83 O84 1.203 . S
C83 O90 1.267 . S
O84 C83 1.203 . S
O85 C78 1.185 . S
O85 Zn81 2.086 . S
C86 O82 1.278 . S
C86 O87 1.211 . S
O87 C86 1.211 . S
C88 O80 1.284 . S
C88 O89 1.273 . S
O89 C88 1.273 . S
O90 Zn81 1.977 . S
O90 C83 1.267 . S
C91 O92 1.160 . S
C91 O98 1.185 . S
O92 C91 1.160 . S
O93 Zn94 1.899 . S
O93 C101 1.284 1_565 S
Zn94 O93 1.899 . S
Zn94 O95 2.032 . S
Zn94 O98 2.086 . S
Zn94 O103 1.977 . S
O95 Zn94 2.032 . S
O95 C99 1.278 . S
C96 O97 1.203 . S
C96 O103 1.267 . S
O97 C96 1.203 . S
O98 C91 1.185 . S
O98 Zn94 2.086 . S
C99 O95 1.278 . S
C99 O100 1.211 . S
O100 C99 1.211 . S
C101 O93 1.284 1_545 S
C101 O102 1.273 1_545 S
O102 C101 1.273 1_565 S
O103 Zn94 1.977 . S
O103 C96 1.267 . S
C104 O105 1.160 . S
C104 O111 1.185 . S
O105 C104 1.160 . S
O106 Zn107 1.899 . S
O106 C114 1.284 . S
Zn107 O106 1.899 . S
Zn107 O108 2.032 . S
Zn107 O111 2.086 . S
Zn107 O116 1.977 . S
O108 Zn107 2.032 . S
O108 C112 1.278 . S
C109 O110 1.203 . S
C109 O116 1.267 . S
O110 C109 1.203 . S
O111 C104 1.185 . S
O111 Zn107 2.086 . S
C112 O108 1.278 . S
C112 O113 1.211 . S
O113 C112 1.211 . S
C114 O106 1.284 . S
C114 O115 1.273 . S
O115 C114 1.273 . S
O116 Zn107 1.977 . S
O116 C109 1.267 . S
C117 O118 1.160 . S
C117 O124 1.185 . S
O118 C117 1.160 . S
O119 Zn120 1.899 . S
O119 C127 1.284 1_565 S
Zn120 O119 1.899 . S
Zn120 O121 2.032 . S
Zn120 O124 2.086 . S
Zn120 O129 1.977 . S
O121 Zn120 2.032 . S
O121 C125 1.278 . S
C122 O123 1.203 . S
C122 O129 1.267 . S
O123 C122 1.203 . S
O124 C117 1.185 . S
O124 Zn120 2.086 . S
C125 O121 1.278 . S
C125 O126 1.211 . S
O126 C125 1.211 . S
C127 O119 1.284 1_545 S
C127 O128 1.273 1_545 S
O128 C127 1.273 1_565 S
O129 Zn120 1.977 . S
O129 C122 1.267 . S
C130 O131 1.160 . S
C130 O137 1.185 . S
O131 C130 1.160 . S
O132 Zn133 1.899 . S
O132 C140 1.284 . S
Zn133 O132 1.899 . S
Zn133 O134 2.032 . S
Zn133 O137 2.086 1_455 S
Zn133 O142 1.977 . S
O134 Zn133 2.032 . S
O134 C138 1.278 . S
C135 O136 1.203 . S
C135 O142 1.267 . S
O136 C135 1.203 . S
O137 C130 1.185 . S
O137 Zn133 2.086 1_655 S
C138 O134 1.278 . S
C138 O139 1.211 . S
O139 C138 1.211 . S
C140 O132 1.284 . S
C140 O141 1.273 . S
O141 C140 1.273 . S
O142 Zn133 1.977 . S
O142 C135 1.267 . S
C143 O144 1.160 . S
C143 O150 1.185 . S
O144 C143 1.160 . S
O145 Zn146 1.899 . S
O145 C153 1.284 . S
Zn146 O145 1.899 . S
Zn146 O147 2.032 . S
Zn146 O150 2.086 . S
Zn146 O155 1.977 . S
O147 Zn146 2.032 . S
O147 C151 1.278 . S
C148 O149 1.203 . S
C148 O155 1.267 . S
O149 C148 1.203 . S
O150 C143 1.185 . S
O150 Zn146 2.086 . S
C151 O147 1.278 . S
C151 O152 1.211 . S
O152 C151 1.211 . S
C153 O145 1.284 . S
C153 O154 1.273 . S
O154 C153 1.273 . S
O155 Zn146 1.977 . S
O155 C148 1.267 . S
C156 O157 1.160 . S
C156 O163 1.185 . S
O157 C156 1.160 . S
O158 Zn159 1.899 . S
O158 C166 1.285 1_545 S
Zn159 O158 1.899 . S
Zn159 O160 2.032 . S
Zn159 O163 2.086 . S
Zn159 O168 1.977 . S
O160 Zn159 2.032 . S
O160 C164 1.278 . S
C161 O162 1.203 . S
C161 O168 1.267 . S
O162 C161 1.203 . S
O163 C156 1.185 . S
O163 Zn159 2.086 . S
C164 O160 1.278 . S
C164 O165 1.211 . S
O165 C164 1.211 . S
C166 O158 1.285 1_565 S
C166 O167 1.270 1_565 S
O167 C166 1.270 1_545 S
O168 Zn159 1.977 . S
O168 C161 1.267 . S
C169 O170 1.160 . S
C169 O176 1.185 . S
O170 C169 1.160 . S
O171 Zn172 1.899 . S
O171 C179 1.284 . S
Zn172 O171 1.899 . S
Zn172 O173 2.032 . S
Zn172 O176 2.086 1_655 S
Zn172 O181 1.977 . S
O173 Zn172 2.032 . S
O173 C177 1.278 . S
C174 O175 1.203 . S
C174 O181 1.267 . S
O175 C174 1.203 . S
O176 C169 1.185 . S
O176 Zn172 2.086 1_455 S
C177 O173 1.278 . S
C177 O178 1.211 . S
O178 C177 1.211 . S
C179 O171 1.284 . S
C179 O180 1.273 . S
O180 C179 1.273 . S
O181 Zn172 1.977 . S
O181 C174 1.267 . S
C182 O183 1.160 . S
C182 O189 1.185 . S
O183 C182 1.160 . S
O184 Zn185 1.899 . S
O184 C192 1.284 . S
Zn185 O184 1.899 . S
Zn185 O186 2.032 . S
Zn185 O189 2.086 . S
Zn185 O194 1.977 . S
O186 Zn185 2.032 . S
O186 C190 1.278 . S
C187 O188 1.203 . S
C187 O194 1.267 . S
O188 C187 1.203 . S
O189 C182 1.185 . S
O189 Zn185 2.086 . S
C190 O186 1.278 . S
C190 O191 1.211 . S
O191 C190 1.211 . S
C192 O184 1.284 . S
C192 O193 1.273 . S
O193 C192 1.273 . S
O194 Zn185 1.977 . S
O194 C187 1.267 . S
C195 O196 1.160 . S
C195 O202 1.185 . S
O196 C195 1.160 . S
O197 Zn198 1.899 . S
O197 C205 1.284 . S
Zn198 O197 1.899 . S
Zn198 O199 2.032 . S
Zn198 O202 2.086 . S
Zn198 O207 1.977 . S
O199 Zn198 2.032 . S
O199 C203 1.278 . S
C200 O201 1.203 . S
C200 O207 1.267 . S
O201 C200 1.203 . S
O202 C195 1.185 . S
O202 Zn198 2.086 . S
C203 O199 1.278 . S
C203 O204 1.211 . S
O204 C203 1.211 . S
C205 O197 1.284 . S
C205 O206 1.273 . S
O206 C205 1.273 . S
O207 Zn198 1.977 . S
O207 C200 1.267 . S
C208 O209 1.160 . S
C208 O215 1.185 . S
O209 C208 1.160 . S
O210 Zn211 1.899 . S
O210 C218 1.311 . S
Zn211 O210 1.899 . S
Zn211 O212 2.032 . S
Zn211 O215 2.086 . S
Zn211 O220 1.977 . S
O212 Zn211 2.032 . S
O212 C216 1.278 . S
C213 O214 1.203 . S
C213 O220 1.267 . S
O214 C213 1.203 . S
O215 C208 1.185 . S
O215 Zn211 2.086 . S
C216 O212 1.278 . S
C216 O217 1.211 . S
O217 C216 1.211 . S
C218 O210 1.311 . S
C218 O219 1.276 . S
O219 C218 1.276 . S
O220 Zn211 1.977 . S
O220 C213 1.267 . S
C221 O222 1.160 . S
C221 O228 1.185 . S
O222 C221 1.160 . S
O223 Zn224 1.899 . S
O223 C231 1.284 . S
Zn224 O223 1.899 . S
Zn224 O225 2.032 . S
Zn224 O228 2.086 . S
Zn224 O233 1.977 . S
O225 Zn224 2.032 . S
O225 C229 1.278 . S
C226 O227 1.203 . S
C226 O233 1.267 . S
O227 C226 1.203 . S
O228 C221 1.185 . S
O228 Zn224 2.086 . S
C229 O225 1.278 . S
C229 O230 1.211 . S
O230 C229 1.211 . S
C231 O223 1.284 . S
C231 O232 1.273 . S
O232 C231 1.273 . S
O233 Zn224 1.977 . S
O233 C226 1.267 . S
H234 C261 0.929 . S
N235 C260 1.433 . S
N235 C266 1.435 . S
N235 C272 1.423 . S
H236 C262 0.930 . S
H237 C265 0.931 . S
H238 C264 0.929 . S
H239 C267 0.930 . S
H240 C268 0.932 . S
H241 C271 0.929 . S
H242 C270 0.931 . S
H243 C273 0.929 . S
H244 C277 0.932 . S
H245 C274 0.931 . S
H246 C276 0.929 . S
H247 C279 0.929 . S
H248 C280 0.930 . S
H249 C282 0.929 . S
H250 C283 0.931 . S
H251 C285 0.930 . S
H252 C286 0.932 . S
H253 C288 0.931 . S
H254 C289 0.929 . S
H255 C291 0.929 . S
H256 C292 0.931 . S
H257 C294 0.929 . S
N258 C278 1.433 . S
N258 C284 1.435 . S
N258 C290 1.423 . S
H259 C295 0.932 . S
C260 N235 1.433 . S
C260 C261 1.363 . S
C260 C265 1.370 . S
C261 H234 0.929 . S
C261 C260 1.363 . S
C261 C262 1.385 . S
C262 H236 0.930 . S
C262 C261 1.385 . S
C262 C263 1.357 . S
C263 C262 1.357 . S
C263 C264 1.406 . S
C264 H238 0.929 . S
C264 C263 1.406 . S
C264 C265 1.391 . S
C265 H237 0.931 . S
C265 C260 1.370 . S
C265 C264 1.391 . S
C266 N235 1.435 . S
C266 C267 1.358 . S
C266 C271 1.371 . S
C267 H239 0.930 . S
C267 C266 1.358 . S
C267 C268 1.405 . S
C268 H240 0.932 . S
C268 C267 1.405 . S
C268 C269 1.383 . S
C269 C268 1.383 . S
C269 C270 1.393 . S
C270 H242 0.931 . S
C270 C269 1.393 . S
C270 C271 1.382 . S
C271 H241 0.929 . S
C271 C266 1.371 . S
C271 C270 1.382 . S
C272 N235 1.423 . S
C272 C273 1.362 . S
C272 C277 1.388 . S
C273 H243 0.929 . S
C273 C272 1.362 . S
C273 C274 1.376 . S
C274 H245 0.931 . S
C274 C273 1.376 . S
C274 C275 1.396 . S
C275 C274 1.396 . S
C275 C276 1.348 . S
C275 C293 1.472 . S
C276 H246 0.929 . S
C276 C275 1.348 . S
C276 C277 1.443 . S
C277 H244 0.932 . S
C277 C272 1.388 . S
C277 C276 1.443 . S
C278 N258 1.433 . S
C278 C279 1.363 . S
C278 C283 1.370 . S
C279 H247 0.929 . S
C279 C278 1.363 . S
C279 C280 1.385 . S
C280 H248 0.930 . S
C280 C279 1.385 . S
C280 C281 1.357 . S
C281 C280 1.357 . S
C281 C282 1.406 . S
C282 H249 0.929 . S
C282 C281 1.406 . S
C282 C283 1.391 . S
C283 H250 0.931 . S
C283 C278 1.370 . S
C283 C282 1.391 . S
C284 N258 1.435 . S
C284 C285 1.358 . S
C284 C289 1.371 . S
C285 H251 0.930 . S
C285 C284 1.358 . S
C285 C286 1.405 . S
C286 H252 0.932 . S
C286 C285 1.405 . S
C286 C287 1.383 . S
C287 C286 1.383 . S
C287 C288 1.393 . S
C288 H253 0.931 . S
C288 C287 1.393 . S
C288 C289 1.382 . S
C289 H254 0.929 . S
C289 C284 1.371 . S
C289 C288 1.382 . S
C290 N258 1.423 . S
C290 C291 1.362 . S
C290 C295 1.388 . S
C291 H255 0.929 . S
C291 C290 1.362 . S
C291 C292 1.376 . S
C292 H256 0.931 . S
C292 C291 1.376 . S
C292 C293 1.396 . S
C293 C275 1.472 . S
C293 C292 1.396 . S
C293 C294 1.348 . S
C294 H257 0.929 . S
C294 C293 1.348 . S
C294 C295 1.443 . S
C295 H259 0.932 . S
C295 C290 1.388 . S
C295 C294 1.443 . S
H296 C323 0.929 . S
N297 C322 1.433 . S
N297 C328 1.435 . S
N297 C334 1.423 . S
H298 C324 0.930 . S
H299 C327 0.931 . S
H300 C326 0.929 . S
H301 C329 0.930 . S
H302 C330 0.932 . S
H303 C333 0.929 . S
H304 C332 0.931 . S
H305 C335 0.929 . S
H306 C339 0.932 . S
H307 C336 0.931 . S
H308 C338 0.929 . S
H309 C341 0.929 . S
H310 C342 0.930 . S
H311 C344 0.929 . S
H312 C345 0.931 . S
H313 C347 0.930 . S
H314 C348 0.932 . S
H315 C350 0.931 . S
H316 C351 0.929 . S
H317 C353 0.929 . S
H318 C354 0.931 . S
H319 C356 0.929 . S
N320 C340 1.433 . S
N320 C346 1.435 . S
N320 C352 1.423 . S
H321 C357 0.932 . S
C322 N297 1.433 . S
C322 C323 1.363 . S
C322 C327 1.370 . S
C323 H296 0.929 . S
C323 C322 1.363 . S
C323 C324 1.385 . S
C324 H298 0.930 . S
C324 C323 1.385 . S
C324 C325 1.357 . S
C325 C324 1.357 . S
C325 C326 1.406 . S
C326 H300 0.929 . S
C326 C325 1.406 . S
C326 C327 1.391 . S
C327 H299 0.931 . S
C327 C322 1.370 . S
C327 C326 1.391 . S
C328 N297 1.435 . S
C328 C329 1.358 . S
C328 C333 1.371 . S
C329 H301 0.930 . S
C329 C328 1.358 . S
C329 C330 1.405 . S
C330 H302 0.932 . S
C330 C329 1.405 . S
C330 C331 1.383 . S
C331 C330 1.383 . S
C331 C332 1.393 . S
C332 H304 0.931 . S
C332 C331 1.393 . S
C332 C333 1.382 . S
C333 H303 0.929 . S
C333 C328 1.371 . S
C333 C332 1.382 . S
C334 N297 1.423 . S
C334 C335 1.362 . S
C334 C339 1.388 . S
C335 H305 0.929 . S
C335 C334 1.362 . S
C335 C336 1.376 . S
C336 H307 0.931 . S
C336 C335 1.376 . S
C336 C337 1.396 . S
C337 C336 1.396 . S
C337 C338 1.348 . S
C337 C355 1.472 . S
C338 H308 0.929 . S
C338 C337 1.348 . S
C338 C339 1.443 . S
C339 H306 0.932 . S
C339 C334 1.388 . S
C339 C338 1.443 . S
C340 N320 1.433 . S
C340 C341 1.363 . S
C340 C345 1.370 . S
C341 H309 0.929 . S
C341 C340 1.363 . S
C341 C342 1.385 . S
C342 H310 0.930 . S
C342 C341 1.385 . S
C342 C343 1.357 . S
C343 C342 1.357 . S
C343 C344 1.406 . S
C344 H311 0.929 . S
C344 C343 1.406 . S
C344 C345 1.391 . S
C345 H312 0.931 . S
C345 C340 1.370 . S
C345 C344 1.391 . S
C346 N320 1.435 . S
C346 C347 1.358 . S
C346 C351 1.371 . S
C347 H313 0.930 . S
C347 C346 1.358 . S
C347 C348 1.405 . S
C348 H314 0.932 . S
C348 C347 1.405 . S
C348 C349 1.383 . S
C349 C348 1.383 . S
C349 C350 1.393 . S
C350 H315 0.931 . S
C350 C349 1.393 . S
C350 C351 1.382 . S
C351 H316 0.929 . S
C351 C346 1.371 . S
C351 C350 1.382 . S
C352 N320 1.423 . S
C352 C353 1.362 . S
C352 C357 1.388 . S
C353 H317 0.929 . S
C353 C352 1.362 . S
C353 C354 1.376 . S
C354 H318 0.931 . S
C354 C353 1.376 . S
C354 C355 1.396 . S
C355 C337 1.472 . S
C355 C354 1.396 . S
C355 C356 1.348 . S
C356 H319 0.929 . S
C356 C355 1.348 . S
C356 C357 1.443 . S
C357 H321 0.932 . S
C357 C352 1.388 . S
C357 C356 1.443 . S
H358 C385 0.929 . S
N359 C384 1.433 . S
N359 C390 1.435 . S
N359 C396 1.423 . S
H360 C386 0.930 . S
H361 C389 0.931 . S
H362 C388 0.929 . S
H363 C391 0.930 . S
H364 C392 0.932 . S
H365 C395 0.929 . S
H366 C394 0.931 . S
H367 C397 0.929 . S
H368 C401 0.932 . S
H369 C398 0.931 . S
H370 C400 0.929 . S
H371 C403 0.929 . S
H372 C404 0.930 . S
H373 C406 0.929 . S
H374 C407 0.931 . S
H375 C409 0.930 . S
H376 C410 0.932 . S
H377 C412 0.931 . S
H378 C413 0.929 . S
H379 C415 0.929 . S
H380 C416 0.931 . S
H381 C418 0.929 . S
N382 C402 1.433 . S
N382 C408 1.435 . S
N382 C414 1.423 . S
H383 C419 0.932 . S
C384 N359 1.433 . S
C384 C385 1.363 . S
C384 C389 1.370 . S
C385 H358 0.929 . S
C385 C384 1.363 . S
C385 C386 1.385 . S
C386 H360 0.930 . S
C386 C385 1.385 . S
C386 C387 1.357 . S
C387 C386 1.357 . S
C387 C388 1.406 . S
C388 H362 0.929 . S
C388 C387 1.406 . S
C388 C389 1.391 . S
C389 H361 0.931 . S
C389 C384 1.370 . S
C389 C388 1.391 . S
C390 N359 1.435 . S
C390 C391 1.358 . S
C390 C395 1.371 . S
C391 H363 0.930 . S
C391 C390 1.358 . S
C391 C392 1.405 . S
C392 H364 0.932 . S
C392 C391 1.405 . S
C392 C393 1.383 . S
C393 C392 1.383 . S
C393 C394 1.393 . S
C394 H366 0.931 . S
C394 C393 1.393 . S
C394 C395 1.382 . S
C395 H365 0.929 . S
C395 C390 1.371 . S
C395 C394 1.382 . S
C396 N359 1.423 . S
C396 C397 1.362 . S
C396 C401 1.388 . S
C397 H367 0.929 . S
C397 C396 1.362 . S
C397 C398 1.376 . S
C398 H369 0.931 . S
C398 C397 1.376 . S
C398 C399 1.396 . S
C399 C398 1.396 . S
C399 C400 1.348 . S
C399 C417 1.472 . S
C400 H370 0.929 . S
C400 C399 1.348 . S
C400 C401 1.443 . S
C401 H368 0.932 . S
C401 C396 1.388 . S
C401 C400 1.443 . S
C402 N382 1.433 . S
C402 C403 1.363 . S
C402 C407 1.370 . S
C403 H371 0.929 . S
C403 C402 1.363 . S
C403 C404 1.385 . S
C404 H372 0.930 . S
C404 C403 1.385 . S
C404 C405 1.357 . S
C405 C404 1.357 . S
C405 C406 1.406 . S
C406 H373 0.929 . S
C406 C405 1.406 . S
C406 C407 1.391 . S
C407 H374 0.931 . S
C407 C402 1.370 . S
C407 C406 1.391 . S
C408 N382 1.435 . S
C408 C409 1.358 . S
C408 C413 1.371 . S
C409 H375 0.930 . S
C409 C408 1.358 . S
C409 C410 1.405 . S
C410 H376 0.932 . S
C410 C409 1.405 . S
C410 C411 1.383 . S
C411 C410 1.383 . S
C411 C412 1.393 . S
C412 H377 0.931 . S
C412 C411 1.393 . S
C412 C413 1.382 . S
C413 H378 0.929 . S
C413 C408 1.371 . S
C413 C412 1.382 . S
C414 N382 1.423 . S
C414 C415 1.362 . S
C414 C419 1.388 . S
C415 H379 0.929 . S
C415 C414 1.362 . S
C415 C416 1.376 . S
C416 H380 0.931 . S
C416 C415 1.376 . S
C416 C417 1.396 . S
C417 C399 1.472 . S
C417 C416 1.396 . S
C417 C418 1.348 . S
C418 H381 0.929 . S
C418 C417 1.348 . S
C418 C419 1.443 . S
C419 H383 0.932 . S
C419 C414 1.388 . S
C419 C418 1.443 . S
H420 C447 0.929 . S
N421 C446 1.433 . S
N421 C452 1.435 . S
N421 C458 1.423 . S
H422 C448 0.930 . S
H423 C451 0.931 . S
H424 C450 0.929 . S
H425 C453 0.930 . S
H426 C454 0.932 . S
H427 C457 0.929 . S
H428 C456 0.931 . S
H429 C459 0.929 . S
H430 C463 0.932 . S
H431 C460 0.931 . S
H432 C462 0.929 . S
H433 C465 0.929 . S
H434 C466 0.930 . S
H435 C468 0.929 . S
H436 C469 0.931 . S
H437 C471 0.930 . S
H438 C472 0.932 . S
H439 C474 0.931 . S
H440 C475 0.929 . S
H441 C477 0.929 . S
H442 C478 0.931 . S
H443 C480 0.929 . S
N444 C464 1.433 . S
N444 C470 1.435 . S
N444 C476 1.423 . S
H445 C481 0.932 . S
C446 N421 1.433 . S
C446 C447 1.363 . S
C446 C451 1.370 . S
C447 H420 0.929 . S
C447 C446 1.363 . S
C447 C448 1.385 . S
C448 H422 0.930 . S
C448 C447 1.385 . S
C448 C449 1.357 . S
C449 C448 1.357 . S
C449 C450 1.406 . S
C450 H424 0.929 . S
C450 C449 1.406 . S
C450 C451 1.391 . S
C451 H423 0.931 . S
C451 C446 1.370 . S
C451 C450 1.391 . S
C452 N421 1.435 . S
C452 C453 1.358 . S
C452 C457 1.371 . S
C453 H425 0.930 . S
C453 C452 1.358 . S
C453 C454 1.405 . S
C454 H426 0.932 . S
C454 C453 1.405 . S
C454 C455 1.383 . S
C455 C454 1.383 . S
C455 C456 1.393 . S
C456 H428 0.931 . S
C456 C455 1.393 . S
C456 C457 1.382 . S
C457 H427 0.929 . S
C457 C452 1.371 . S
C457 C456 1.382 . S
C458 N421 1.423 . S
C458 C459 1.362 . S
C458 C463 1.388 . S
C459 H429 0.929 . S
C459 C458 1.362 . S
C459 C460 1.376 . S
C460 H431 0.931 . S
C460 C459 1.376 . S
C460 C461 1.396 . S
C461 C460 1.396 . S
C461 C462 1.348 . S
C461 C479 1.472 . S
C462 H432 0.929 . S
C462 C461 1.348 . S
C462 C463 1.443 . S
C463 H430 0.932 . S
C463 C458 1.388 . S
C463 C462 1.443 . S
C464 N444 1.433 . S
C464 C465 1.363 . S
C464 C469 1.370 . S
C465 H433 0.929 . S
C465 C464 1.363 . S
C465 C466 1.385 . S
C466 H434 0.930 . S
C466 C465 1.385 . S
C466 C467 1.357 . S
C467 C466 1.357 . S
C467 C468 1.406 . S
C468 H435 0.929 . S
C468 C467 1.406 . S
C468 C469 1.391 . S
C469 H436 0.931 . S
C469 C464 1.370 . S
C469 C468 1.391 . S
C470 N444 1.435 . S
C470 C471 1.358 . S
C470 C475 1.371 . S
C471 H437 0.930 . S
C471 C470 1.358 . S
C471 C472 1.405 . S
C472 H438 0.932 . S
C472 C471 1.405 . S
C472 C473 1.383 . S
C473 C472 1.383 . S
C473 C474 1.393 . S
C474 H439 0.931 . S
C474 C473 1.393 . S
C474 C475 1.382 . S
C475 H440 0.929 . S
C475 C470 1.371 . S
C475 C474 1.382 . S
C476 N444 1.423 . S
C476 C477 1.362 . S
C476 C481 1.388 . S
C477 H441 0.929 . S
C477 C476 1.362 . S
C477 C478 1.376 . S
C478 H442 0.931 . S
C478 C477 1.376 . S
C478 C479 1.396 . S
C479 C461 1.472 . S
C479 C478 1.396 . S
C479 C480 1.348 . S
C480 H443 0.929 . S
C480 C479 1.348 . S
C480 C481 1.443 . S
C481 H445 0.932 . S
C481 C476 1.388 . S
C481 C480 1.443 . S
H482 C509 0.929 . S
N483 C508 1.433 . S
N483 C514 1.435 . S
N483 C520 1.423 . S
H484 C510 0.930 . S
H485 C513 0.931 . S
H486 C512 0.929 . S
H487 C515 0.930 . S
H488 C516 0.932 . S
H489 C519 0.929 . S
H490 C518 0.931 . S
H491 C521 0.929 . S
H492 C525 0.932 . S
H493 C522 0.931 . S
H494 C524 0.929 . S
H495 C527 0.929 . S
H496 C528 0.930 . S
H497 C530 0.929 . S
H498 C531 0.931 . S
H499 C533 0.930 . S
H500 C534 0.932 . S
H501 C536 0.931 . S
H502 C537 0.929 . S
H503 C539 0.929 . S
H504 C540 0.931 . S
H505 C542 0.929 . S
N506 C526 1.433 . S
N506 C532 1.435 . S
N506 C538 1.423 . S
H507 C543 0.932 . S
C508 N483 1.433 . S
C508 C509 1.363 . S
C508 C513 1.370 . S
C509 H482 0.929 . S
C509 C508 1.363 . S
C509 C510 1.385 . S
C510 H484 0.930 . S
C510 C509 1.385 . S
C510 C511 1.357 . S
C511 C510 1.357 . S
C511 C512 1.406 . S
C512 H486 0.929 . S
C512 C511 1.406 . S
C512 C513 1.391 . S
C513 H485 0.931 . S
C513 C508 1.370 . S
C513 C512 1.391 . S
C514 N483 1.435 . S
C514 C515 1.358 . S
C514 C519 1.371 . S
C515 H487 0.930 . S
C515 C514 1.358 . S
C515 C516 1.405 . S
C516 H488 0.932 . S
C516 C515 1.405 . S
C516 C517 1.383 . S
C517 C516 1.383 . S
C517 C518 1.393 . S
C518 H490 0.931 . S
C518 C517 1.393 . S
C518 C519 1.382 . S
C519 H489 0.929 . S
C519 C514 1.371 . S
C519 C518 1.382 . S
C520 N483 1.423 . S
C520 C521 1.362 . S
C520 C525 1.388 . S
C521 H491 0.929 . S
C521 C520 1.362 . S
C521 C522 1.376 . S
C522 H493 0.931 . S
C522 C521 1.376 . S
C522 C523 1.396 . S
C523 C522 1.396 . S
C523 C524 1.348 . S
C523 C541 1.472 . S
C524 H494 0.929 . S
C524 C523 1.348 . S
C524 C525 1.443 . S
C525 H492 0.932 . S
C525 C520 1.388 . S
C525 C524 1.443 . S
C526 N506 1.433 . S
C526 C527 1.363 . S
C526 C531 1.370 . S
C527 H495 0.929 . S
C527 C526 1.363 . S
C527 C528 1.385 . S
C528 H496 0.930 . S
C528 C527 1.385 . S
C528 C529 1.357 . S
C529 C528 1.357 . S
C529 C530 1.406 . S
C530 H497 0.929 . S
C530 C529 1.406 . S
C530 C531 1.391 . S
C531 H498 0.931 . S
C531 C526 1.370 . S
C531 C530 1.391 . S
C532 N506 1.435 . S
C532 C533 1.358 . S
C532 C537 1.371 . S
C533 H499 0.930 . S
C533 C532 1.358 . S
C533 C534 1.405 . S
C534 H500 0.932 . S
C534 C533 1.405 . S
C534 C535 1.383 . S
C535 C534 1.383 . S
C535 C536 1.393 . S
C536 H501 0.931 . S
C536 C535 1.393 . S
C536 C537 1.382 . S
C537 H502 0.929 . S
C537 C532 1.371 . S
C537 C536 1.382 . S
C538 N506 1.423 . S
C538 C539 1.362 . S
C538 C543 1.388 . S
C539 H503 0.929 . S
C539 C538 1.362 . S
C539 C540 1.376 . S
C540 H504 0.931 . S
C540 C539 1.376 . S
C540 C541 1.396 . S
C541 C523 1.472 . S
C541 C540 1.396 . S
C541 C542 1.348 . S
C542 H505 0.929 . S
C542 C541 1.348 . S
C542 C543 1.443 . S
C543 H507 0.932 . S
C543 C538 1.388 . S
C543 C542 1.443 . S
H544 C571 0.929 . S
N545 C570 1.433 . S
N545 C576 1.435 . S
N545 C582 1.423 . S
H546 C572 0.930 . S
H547 C575 0.931 . S
H548 C574 0.929 . S
H549 C577 0.930 . S
H550 C578 0.932 . S
H551 C581 0.929 . S
H552 C580 0.931 . S
H553 C583 0.929 . S
H554 C587 0.932 . S
H555 C584 0.931 . S
H556 C586 0.929 . S
H557 C589 0.929 . S
H558 C590 0.930 . S
H559 C592 0.929 . S
H560 C593 0.931 . S
H561 C595 0.930 . S
H562 C596 0.932 . S
H563 C598 0.931 . S
H564 C599 0.929 . S
H565 C601 0.929 . S
H566 C602 0.931 . S
H567 C604 0.929 . S
N568 C588 1.433 . S
N568 C594 1.435 . S
N568 C600 1.423 . S
H569 C605 0.932 . S
C570 N545 1.433 . S
C570 C571 1.363 . S
C570 C575 1.370 . S
C571 H544 0.929 . S
C571 C570 1.363 . S
C571 C572 1.385 . S
C572 H546 0.930 . S
C572 C571 1.385 . S
C572 C573 1.357 . S
C573 C572 1.357 . S
C573 C574 1.406 . S
C574 H548 0.929 . S
C574 C573 1.406 . S
C574 C575 1.391 . S
C575 H547 0.931 . S
C575 C570 1.370 . S
C575 C574 1.391 . S
C576 N545 1.435 . S
C576 C577 1.358 . S
C576 C581 1.371 . S
C577 H549 0.930 . S
C577 C576 1.358 . S
C577 C578 1.405 . S
C578 H550 0.932 . S
C578 C577 1.405 . S
C578 C579 1.383 . S
C579 C578 1.383 . S
C579 C580 1.393 . S
C580 H552 0.931 . S
C580 C579 1.393 . S
C580 C581 1.382 . S
C581 H551 0.929 . S
C581 C576 1.371 . S
C581 C580 1.382 . S
C582 N545 1.423 . S
C582 C583 1.362 . S
C582 C587 1.388 . S
C583 H553 0.929 . S
C583 C582 1.362 . S
C583 C584 1.376 . S
C584 H555 0.931 . S
C584 C583 1.376 . S
C584 C585 1.396 . S
C585 C584 1.396 . S
C585 C586 1.348 . S
C585 C603 1.472 . S
C586 H556 0.929 . S
C586 C585 1.348 . S
C586 C587 1.443 . S
C587 H554 0.932 . S
C587 C582 1.388 . S
C587 C586 1.443 . S
C588 N568 1.433 . S
C588 C589 1.363 . S
C588 C593 1.370 . S
C589 H557 0.929 . S
C589 C588 1.363 . S
C589 C590 1.385 . S
C590 H558 0.930 . S
C590 C589 1.385 . S
C590 C591 1.357 . S
C591 C590 1.357 . S
C591 C592 1.406 . S
C592 H559 0.929 . S
C592 C591 1.406 . S
C592 C593 1.391 . S
C593 H560 0.931 . S
C593 C588 1.370 . S
C593 C592 1.391 . S
C594 N568 1.435 . S
C594 C595 1.358 . S
C594 C599 1.371 . S
C595 H561 0.930 . S
C595 C594 1.358 . S
C595 C596 1.405 . S
C596 H562 0.932 . S
C596 C595 1.405 . S
C596 C597 1.383 . S
C597 C596 1.383 . S
C597 C598 1.393 . S
C598 H563 0.931 . S
C598 C597 1.393 . S
C598 C599 1.382 . S
C599 H564 0.929 . S
C599 C594 1.371 . S
C599 C598 1.382 . S
C600 N568 1.423 . S
C600 C601 1.362 . S
C600 C605 1.388 . S
C601 H565 0.929 . S
C601 C600 1.362 . S
C601 C602 1.376 . S
C602 H566 0.931 . S
C602 C601 1.376 . S
C602 C603 1.396 . S
C603 C585 1.472 . S
C603 C602 1.396 . S
C603 C604 1.348 . S
C604 H567 0.929 . S
C604 C603 1.348 . S
C604 C605 1.443 . S
C605 H569 0.932 . S
C605 C600 1.388 . S
C605 C604 1.443 . S
H606 C633 0.929 . S
N607 C632 1.433 . S
N607 C638 1.435 . S
N607 C644 1.423 . S
H608 C634 0.930 . S
H609 C637 0.931 . S
H610 C636 0.929 . S
H611 C639 0.930 . S
H612 C640 0.932 . S
H613 C643 0.929 . S
H614 C642 0.931 . S
H615 C645 0.929 . S
H616 C649 0.932 . S
H617 C646 0.931 . S
H618 C648 0.929 . S
H619 C651 0.929 . S
H620 C652 0.930 . S
H621 C654 0.929 . S
H622 C655 0.931 . S
H623 C657 0.930 . S
H624 C658 0.932 . S
H625 C660 0.931 . S
H626 C661 0.929 . S
H627 C663 0.929 . S
H628 C664 0.931 . S
H629 C666 0.929 . S
N630 C650 1.433 . S
N630 C656 1.435 . S
N630 C662 1.423 . S
H631 C667 0.932 . S
C632 N607 1.433 . S
C632 C633 1.363 . S
C632 C637 1.370 . S
C633 H606 0.929 . S
C633 C632 1.363 . S
C633 C634 1.385 . S
C634 H608 0.930 . S
C634 C633 1.385 . S
C634 C635 1.357 . S
C635 C634 1.357 . S
C635 C636 1.406 . S
C636 H610 0.929 . S
C636 C635 1.406 . S
C636 C637 1.391 . S
C637 H609 0.931 . S
C637 C632 1.370 . S
C637 C636 1.391 . S
C638 N607 1.435 . S
C638 C639 1.358 . S
C638 C643 1.371 . S
C639 H611 0.930 . S
C639 C638 1.358 . S
C639 C640 1.405 . S
C640 H612 0.932 . S
C640 C639 1.405 . S
C640 C641 1.383 . S
C641 C640 1.383 . S
C641 C642 1.393 . S
C642 H614 0.931 . S
C642 C641 1.393 . S
C642 C643 1.382 . S
C643 H613 0.929 . S
C643 C638 1.371 . S
C643 C642 1.382 . S
C644 N607 1.423 . S
C644 C645 1.362 . S
C644 C649 1.388 . S
C645 H615 0.929 . S
C645 C644 1.362 . S
C645 C646 1.376 . S
C646 H617 0.931 . S
C646 C645 1.376 . S
C646 C647 1.396 . S
C647 C646 1.396 . S
C647 C648 1.348 . S
C647 C665 1.472 . S
C648 H618 0.929 . S
C648 C647 1.348 . S
C648 C649 1.443 . S
C649 H616 0.932 . S
C649 C644 1.388 . S
C649 C648 1.443 . S
C650 N630 1.433 . S
C650 C651 1.363 . S
C650 C655 1.370 . S
C651 H619 0.929 . S
C651 C650 1.363 . S
C651 C652 1.385 . S
C652 H620 0.930 . S
C652 C651 1.385 . S
C652 C653 1.357 . S
C653 C652 1.357 . S
C653 C654 1.406 . S
C654 H621 0.929 . S
C654 C653 1.406 . S
C654 C655 1.391 . S
C655 H622 0.931 . S
C655 C650 1.370 . S
C655 C654 1.391 . S
C656 N630 1.435 . S
C656 C657 1.358 . S
C656 C661 1.371 . S
C657 H623 0.930 . S
C657 C656 1.358 . S
C657 C658 1.405 . S
C658 H624 0.932 . S
C658 C657 1.405 . S
C658 C659 1.383 . S
C659 C658 1.383 . S
C659 C660 1.393 . S
C660 H625 0.931 . S
C660 C659 1.393 . S
C660 C661 1.382 . S
C661 H626 0.929 . S
C661 C656 1.371 . S
C661 C660 1.382 . S
C662 N630 1.423 . S
C662 C663 1.362 . S
C662 C667 1.388 . S
C663 H627 0.929 . S
C663 C662 1.362 . S
C663 C664 1.376 . S
C664 H628 0.931 . S
C664 C663 1.376 . S
C664 C665 1.396 . S
C665 C647 1.472 . S
C665 C664 1.396 . S
C665 C666 1.348 . S
C666 H629 0.929 . S
C666 C665 1.348 . S
C666 C667 1.443 . S
C667 H631 0.932 . S
C667 C662 1.388 . S
C667 C666 1.443 . S
H668 C695 0.929 . S
N669 C694 1.433 . S
N669 C700 1.435 . S
N669 C706 1.423 . S
H670 C696 0.930 . S
H671 C699 0.931 . S
H672 C698 0.929 . S
H673 C701 0.930 . S
H674 C702 0.932 . S
H675 C705 0.929 . S
H676 C704 0.931 . S
H677 C707 0.929 . S
H678 C711 0.932 . S
H679 C708 0.931 . S
H680 C710 0.929 . S
H681 C713 0.929 . S
H682 C714 0.930 . S
H683 C716 0.929 . S
H684 C717 0.931 . S
H685 C719 0.930 . S
H686 C720 0.932 . S
H687 C722 0.931 . S
H688 C723 0.929 . S
H689 C725 0.929 . S
H690 C726 0.931 . S
H691 C728 0.929 . S
N692 C712 1.433 . S
N692 C718 1.435 . S
N692 C724 1.423 . S
H693 C729 0.932 . S
C694 N669 1.433 . S
C694 C695 1.363 . S
C694 C699 1.370 . S
C695 H668 0.929 . S
C695 C694 1.363 . S
C695 C696 1.385 . S
C696 H670 0.930 . S
C696 C695 1.385 . S
C696 C697 1.357 . S
C697 C696 1.357 . S
C697 C698 1.406 . S
C698 H672 0.929 . S
C698 C697 1.406 . S
C698 C699 1.391 . S
C699 H671 0.931 . S
C699 C694 1.370 . S
C699 C698 1.391 . S
C700 N669 1.435 . S
C700 C701 1.358 . S
C700 C705 1.371 . S
C701 H673 0.930 . S
C701 C700 1.358 . S
C701 C702 1.405 . S
C702 H674 0.932 . S
C702 C701 1.405 . S
C702 C703 1.383 . S
C703 C702 1.383 . S
C703 C704 1.393 . S
C704 H676 0.931 . S
C704 C703 1.393 . S
C704 C705 1.382 . S
C705 H675 0.929 . S
C705 C700 1.371 . S
C705 C704 1.382 . S
C706 N669 1.423 . S
C706 C707 1.362 . S
C706 C711 1.388 . S
C707 H677 0.929 . S
C707 C706 1.362 . S
C707 C708 1.376 . S
C708 H679 0.931 . S
C708 C707 1.376 . S
C708 C709 1.396 . S
C709 C708 1.396 . S
C709 C710 1.348 . S
C709 C727 1.472 . S
C710 H680 0.929 . S
C710 C709 1.348 . S
C710 C711 1.443 . S
C711 H678 0.932 . S
C711 C706 1.388 . S
C711 C710 1.443 . S
C712 N692 1.433 . S
C712 C713 1.363 . S
C712 C717 1.370 . S
C713 H681 0.929 . S
C713 C712 1.363 . S
C713 C714 1.385 . S
C714 H682 0.930 . S
C714 C713 1.385 . S
C714 C715 1.357 . S
C715 C714 1.357 . S
C715 C716 1.406 . S
C716 H683 0.929 . S
C716 C715 1.406 . S
C716 C717 1.391 . S
C717 H684 0.931 . S
C717 C712 1.370 . S
C717 C716 1.391 . S
C718 N692 1.435 . S
C718 C719 1.358 . S
C718 C723 1.371 . S
C719 H685 0.930 . S
C719 C718 1.358 . S
C719 C720 1.405 . S
C720 H686 0.932 . S
C720 C719 1.405 . S
C720 C721 1.383 . S
C721 C720 1.383 . S
C721 C722 1.393 . S
C722 H687 0.931 . S
C722 C721 1.393 . S
C722 C723 1.382 . S
C723 H688 0.929 . S
C723 C718 1.371 . S
C723 C722 1.382 . S
C724 N692 1.423 . S
C724 C725 1.362 . S
C724 C729 1.388 . S
C725 H689 0.929 . S
C725 C724 1.362 . S
C725 C726 1.376 . S
C726 H690 0.931 . S
C726 C725 1.376 . S
C726 C727 1.396 . S
C727 C709 1.472 . S
C727 C726 1.396 . S
C727 C728 1.348 . S
C728 H691 0.929 . S
C728 C727 1.348 . S
C728 C729 1.443 . S
C729 H693 0.932 . S
C729 C724 1.388 . S
C729 C728 1.443 . S
H730 C757 0.929 . S
N731 C756 1.433 . S
N731 C762 1.435 . S
N731 C768 1.423 . S
H732 C758 0.930 . S
H733 C761 0.931 . S
H734 C760 0.929 . S
H735 C763 0.930 . S
H736 C764 0.932 . S
H737 C767 0.929 . S
H738 C766 0.931 . S
H739 C769 0.929 . S
H740 C773 0.932 . S
H741 C770 0.931 . S
H742 C772 0.929 . S
H743 C775 0.929 . S
H744 C776 0.930 . S
H745 C778 0.929 . S
H746 C779 0.931 . S
H747 C781 0.930 . S
H748 C782 0.932 . S
H749 C784 0.931 . S
H750 C785 0.929 . S
H751 C787 0.929 . S
H752 C788 0.931 . S
H753 C790 0.929 . S
N754 C774 1.433 . S
N754 C780 1.435 . S
N754 C786 1.423 . S
H755 C791 0.932 . S
C756 N731 1.433 . S
C756 C757 1.363 . S
C756 C761 1.370 . S
C757 H730 0.929 . S
C757 C756 1.363 . S
C757 C758 1.385 . S
C758 H732 0.930 . S
C758 C757 1.385 . S
C758 C759 1.357 . S
C759 C758 1.357 . S
C759 C760 1.406 . S
C760 H734 0.929 . S
C760 C759 1.406 . S
C760 C761 1.391 . S
C761 H733 0.931 . S
C761 C756 1.370 . S
C761 C760 1.391 . S
C762 N731 1.435 . S
C762 C763 1.358 . S
C762 C767 1.371 . S
C763 H735 0.930 . S
C763 C762 1.358 . S
C763 C764 1.405 . S
C764 H736 0.932 . S
C764 C763 1.405 . S
C764 C765 1.383 . S
C765 C764 1.383 . S
C765 C766 1.393 . S
C766 H738 0.931 . S
C766 C765 1.393 . S
C766 C767 1.382 . S
C767 H737 0.929 . S
C767 C762 1.371 . S
C767 C766 1.382 . S
C768 N731 1.423 . S
C768 C769 1.362 . S
C768 C773 1.388 . S
C769 H739 0.929 . S
C769 C768 1.362 . S
C769 C770 1.376 . S
C770 H741 0.931 . S
C770 C769 1.376 . S
C770 C771 1.396 . S
C771 C770 1.396 . S
C771 C772 1.348 . S
C771 C789 1.472 . S
C772 H742 0.929 . S
C772 C771 1.348 . S
C772 C773 1.443 . S
C773 H740 0.932 . S
C773 C768 1.388 . S
C773 C772 1.443 . S
C774 N754 1.433 . S
C774 C775 1.363 . S
C774 C779 1.370 . S
C775 H743 0.929 . S
C775 C774 1.363 . S
C775 C776 1.385 . S
C776 H744 0.930 . S
C776 C775 1.385 . S
C776 C777 1.357 . S
C777 C776 1.357 . S
C777 C778 1.406 . S
C778 H745 0.929 . S
C778 C777 1.406 . S
C778 C779 1.391 . S
C779 H746 0.931 . S
C779 C774 1.370 . S
C779 C778 1.391 . S
C780 N754 1.435 . S
C780 C781 1.358 . S
C780 C785 1.371 . S
C781 H747 0.930 . S
C781 C780 1.358 . S
C781 C782 1.405 . S
C782 H748 0.932 . S
C782 C781 1.405 . S
C782 C783 1.383 . S
C783 C782 1.383 . S
C783 C784 1.393 . S
C784 H749 0.931 . S
C784 C783 1.393 . S
C784 C785 1.382 . S
C785 H750 0.929 . S
C785 C780 1.371 . S
C785 C784 1.382 . S
C786 N754 1.423 . S
C786 C787 1.362 . S
C786 C791 1.388 . S
C787 H751 0.929 . S
C787 C786 1.362 . S
C787 C788 1.376 . S
C788 H752 0.931 . S
C788 C787 1.376 . S
C788 C789 1.396 . S
C789 C771 1.472 . S
C789 C788 1.396 . S
C789 C790 1.348 . S
C790 H753 0.929 . S
C790 C789 1.348 . S
C790 C791 1.443 . S
C791 H755 0.932 . S
C791 C786 1.388 . S
C791 C790 1.443 . S
H792 C819 0.929 . S
N793 C818 1.433 . S
N793 C824 1.435 . S
N793 C830 1.423 . S
H794 C820 0.930 . S
H795 C823 0.931 . S
H796 C822 0.929 . S
H797 C825 0.930 . S
H798 C826 0.932 . S
H799 C829 0.929 . S
H800 C828 0.931 . S
H801 C831 0.929 . S
H802 C835 0.932 1_655 S
H803 C832 0.931 . S
H804 C834 0.929 . S
H805 C837 0.929 . S
H806 C838 0.930 . S
H807 C840 0.929 . S
H808 C841 0.931 . S
H809 C843 0.930 . S
H810 C844 0.932 . S
H811 C846 0.931 . S
H812 C847 0.929 . S
H813 C849 0.929 . S
H814 C850 0.931 . S
H815 C852 0.929 . S
N816 C836 1.433 . S
N816 C842 1.435 . S
N816 C848 1.423 . S
H817 C853 0.932 1_655 S
C818 N793 1.433 . S
C818 C819 1.363 . S
C818 C823 1.370 1_455 S
C819 H792 0.929 . S
C819 C818 1.363 . S
C819 C820 1.385 . S
C820 H794 0.930 . S
C820 C819 1.385 . S
C820 C821 1.357 1_455 S
C821 C820 1.357 1_655 S
C821 C822 1.406 . S
C822 H796 0.929 . S
C822 C821 1.406 . S
C822 C823 1.391 . S
C823 H795 0.931 . S
C823 C818 1.370 1_655 S
C823 C822 1.391 . S
C824 N793 1.435 . S
C824 C825 1.358 1_455 S
C824 C829 1.371 . S
C825 H797 0.930 . S
C825 C824 1.358 1_655 S
C825 C826 1.405 . S
C826 H798 0.932 . S
C826 C825 1.405 . S
C826 C827 1.383 1_655 S
C827 C826 1.383 1_455 S
C827 C828 1.393 . S
C828 H800 0.931 . S
C828 C827 1.393 . S
C828 C829 1.382 . S
C829 H799 0.929 . S
C829 C824 1.371 . S
C829 C828 1.382 . S
C830 N793 1.423 . S
C830 C831 1.362 . S
C830 C835 1.388 . S
C831 H801 0.929 . S
C831 C830 1.362 . S
C831 C832 1.376 . S
C832 H803 0.931 . S
C832 C831 1.376 . S
C832 C833 1.396 . S
C833 C832 1.396 . S
C833 C834 1.348 . S
C833 C851 1.472 . S
C834 H804 0.929 . S
C834 C833 1.348 . S
C834 C835 1.443 . S
C835 H802 0.932 1_455 S
C835 C830 1.388 . S
C835 C834 1.443 . S
C836 N816 1.433 . S
C836 C837 1.363 . S
C836 C841 1.370 1_455 S
C837 H805 0.929 . S
C837 C836 1.363 . S
C837 C838 1.385 . S
C838 H806 0.930 . S
C838 C837 1.385 . S
C838 C839 1.357 1_455 S
C839 C838 1.357 1_655 S
C839 C840 1.406 . S
C840 H807 0.929 . S
C840 C839 1.406 . S
C840 C841 1.391 . S
C841 H808 0.931 . S
C841 C836 1.370 1_655 S
C841 C840 1.391 . S
C842 N816 1.435 . S
C842 C843 1.358 1_455 S
C842 C847 1.371 . S
C843 H809 0.930 . S
C843 C842 1.358 1_655 S
C843 C844 1.405 . S
C844 H810 0.932 . S
C844 C843 1.405 . S
C844 C845 1.383 1_655 S
C845 C844 1.383 1_455 S
C845 C846 1.393 . S
C846 H811 0.931 . S
C846 C845 1.393 . S
C846 C847 1.382 . S
C847 H812 0.929 . S
C847 C842 1.371 . S
C847 C846 1.382 . S
C848 N816 1.423 . S
C848 C849 1.362 . S
C848 C853 1.388 . S
C849 H813 0.929 . S
C849 C848 1.362 . S
C849 C850 1.376 . S
C850 H814 0.931 . S
C850 C849 1.376 . S
C850 C851 1.396 . S
C851 C833 1.472 . S
C851 C850 1.396 . S
C851 C852 1.348 . S
C852 H815 0.929 . S
C852 C851 1.348 . S
C852 C853 1.443 . S
C853 H817 0.932 1_455 S
C853 C848 1.388 . S
C853 C852 1.443 . S
H854 C881 0.929 . S
N855 C880 1.433 . S
N855 C886 1.435 . S
N855 C892 1.423 . S
H856 C882 0.930 . S
H857 C885 0.931 . S
H858 C884 0.929 . S
H859 C887 0.930 . S
H860 C888 0.932 . S
H861 C891 0.929 . S
H862 C890 0.931 . S
H863 C893 0.929 . S
H864 C897 0.932 . S
H865 C894 0.931 . S
H866 C896 0.929 . S
H867 C899 0.929 . S
H868 C900 0.930 . S
H869 C902 0.929 . S
H870 C903 0.931 . S
H871 C905 0.930 . S
H872 C906 0.932 . S
H873 C908 0.931 . S
H874 C909 0.929 . S
H875 C911 0.929 . S
H876 C912 0.931 . S
H877 C914 0.929 . S
N878 C898 1.433 . S
N878 C904 1.435 . S
N878 C910 1.423 . S
H879 C915 0.932 . S
C880 N855 1.433 . S
C880 C881 1.363 . S
C880 C885 1.370 . S
C881 H854 0.929 . S
C881 C880 1.363 . S
C881 C882 1.385 . S
C882 H856 0.930 . S
C882 C881 1.385 . S
C882 C883 1.357 . S
C883 C882 1.357 . S
C883 C884 1.406 . S
C884 H858 0.929 . S
C884 C883 1.406 . S
C884 C885 1.391 . S
C885 H857 0.931 . S
C885 C880 1.370 . S
C885 C884 1.391 . S
C886 N855 1.435 . S
C886 C887 1.358 . S
C886 C891 1.371 . S
C887 H859 0.930 . S
C887 C886 1.358 . S
C887 C888 1.405 . S
C888 H860 0.932 . S
C888 C887 1.405 . S
C888 C889 1.383 . S
C889 C888 1.383 . S
C889 C890 1.393 . S
C890 H862 0.931 . S
C890 C889 1.393 . S
C890 C891 1.382 . S
C891 H861 0.929 . S
C891 C886 1.371 . S
C891 C890 1.382 . S
C892 N855 1.423 . S
C892 C893 1.362 . S
C892 C897 1.388 . S
C893 H863 0.929 . S
C893 C892 1.362 . S
C893 C894 1.376 . S
C894 H865 0.931 . S
C894 C893 1.376 . S
C894 C895 1.396 . S
C895 C894 1.396 . S
C895 C896 1.348 . S
C895 C913 1.472 . S
C896 H866 0.929 . S
C896 C895 1.348 . S
C896 C897 1.443 . S
C897 H864 0.932 . S
C897 C892 1.388 . S
C897 C896 1.443 . S
C898 N878 1.433 . S
C898 C899 1.363 . S
C898 C903 1.370 . S
C899 H867 0.929 . S
C899 C898 1.363 . S
C899 C900 1.385 . S
C900 H868 0.930 . S
C900 C899 1.385 . S
C900 C901 1.357 . S
C901 C900 1.357 . S
C901 C902 1.406 . S
C902 H869 0.929 . S
C902 C901 1.406 . S
C902 C903 1.391 . S
C903 H870 0.931 . S
C903 C898 1.370 . S
C903 C902 1.391 . S
C904 N878 1.435 . S
C904 C905 1.358 . S
C904 C909 1.371 . S
C905 H871 0.930 . S
C905 C904 1.358 . S
C905 C906 1.405 . S
C906 H872 0.932 . S
C906 C905 1.405 . S
C906 C907 1.383 . S
C907 C906 1.383 . S
C907 C908 1.393 . S
C908 H873 0.931 . S
C908 C907 1.393 . S
C908 C909 1.382 . S
C909 H874 0.929 . S
C909 C904 1.371 . S
C909 C908 1.382 . S
C910 N878 1.423 . S
C910 C911 1.362 . S
C910 C915 1.388 . S
C911 H875 0.929 . S
C911 C910 1.362 . S
C911 C912 1.376 . S
C912 H876 0.931 . S
C912 C911 1.376 . S
C912 C913 1.396 . S
C913 C895 1.472 . S
C913 C912 1.396 . S
C913 C914 1.348 . S
C914 H877 0.929 . S
C914 C913 1.348 . S
C914 C915 1.443 . S
C915 H879 0.932 . S
C915 C910 1.388 . S
C915 C914 1.443 . S
H916 C943 0.929 . S
N917 C942 1.433 . S
N917 C948 1.435 . S
N917 C954 1.423 . S
H918 C944 0.930 . S
H919 C947 0.931 . S
H920 C946 0.929 . S
H921 C949 0.930 . S
H922 C950 0.932 . S
H923 C953 0.929 . S
H924 C952 0.931 . S
H925 C955 0.929 . S
H926 C959 0.932 1_545 S
H927 C956 0.931 . S
H928 C958 0.929 . S
H929 C961 0.929 . S
H930 C962 0.930 . S
H931 C964 0.929 . S
H932 C965 0.931 . S
H933 C967 0.930 . S
H934 C968 0.932 . S
H935 C970 0.931 . S
H936 C971 0.929 . S
H937 C973 0.929 . S
H938 C974 0.931 . S
H939 C976 0.929 . S
N940 C960 1.433 . S
N940 C966 1.435 . S
N940 C972 1.423 . S
H941 C977 0.932 1_545 S
C942 N917 1.433 . S
C942 C943 1.363 . S
C942 C947 1.370 1_565 S
C943 H916 0.929 . S
C943 C942 1.363 . S
C943 C944 1.385 . S
C944 H918 0.930 . S
C944 C943 1.385 . S
C944 C945 1.357 1_565 S
C945 C944 1.357 1_545 S
C945 C946 1.406 . S
C946 H920 0.929 . S
C946 C945 1.406 . S
C946 C947 1.391 . S
C947 H919 0.931 . S
C947 C942 1.370 1_545 S
C947 C946 1.391 . S
C948 N917 1.435 . S
C948 C949 1.358 1_565 S
C948 C953 1.371 . S
C949 H921 0.930 . S
C949 C948 1.358 1_545 S
C949 C950 1.405 . S
C950 H922 0.932 . S
C950 C949 1.405 . S
C950 C951 1.383 1_545 S
C951 C950 1.383 1_565 S
C951 C952 1.393 . S
C952 H924 0.931 . S
C952 C951 1.393 . S
C952 C953 1.382 . S
C953 H923 0.929 . S
C953 C948 1.371 . S
C953 C952 1.382 . S
C954 N917 1.423 . S
C954 C955 1.362 . S
C954 C959 1.388 . S
C955 H925 0.929 . S
C955 C954 1.362 . S
C955 C956 1.376 . S
C956 H927 0.931 . S
C956 C955 1.376 . S
C956 C957 1.396 . S
C957 C956 1.396 . S
C957 C958 1.348 . S
C957 C975 1.472 . S
C958 H928 0.929 . S
C958 C957 1.348 . S
C958 C959 1.443 . S
C959 H926 0.932 1_565 S
C959 C954 1.388 . S
C959 C958 1.443 . S
C960 N940 1.433 . S
C960 C961 1.363 . S
C960 C965 1.370 1_565 S
C961 H929 0.929 . S
C961 C960 1.363 . S
C961 C962 1.385 . S
C962 H930 0.930 . S
C962 C961 1.385 . S
C962 C963 1.357 1_565 S
C963 C962 1.357 1_545 S
C963 C964 1.406 . S
C964 H931 0.929 . S
C964 C963 1.406 . S
C964 C965 1.391 . S
C965 H932 0.931 . S
C965 C960 1.370 1_545 S
C965 C964 1.391 . S
C966 N940 1.435 . S
C966 C967 1.358 1_565 S
C966 C971 1.371 . S
C967 H933 0.930 . S
C967 C966 1.358 1_545 S
C967 C968 1.405 . S
C968 H934 0.932 . S
C968 C967 1.405 . S
C968 C969 1.383 1_545 S
C969 C968 1.383 1_565 S
C969 C970 1.393 . S
C970 H935 0.931 . S
C970 C969 1.393 . S
C970 C971 1.382 . S
C971 H936 0.929 . S
C971 C966 1.371 . S
C971 C970 1.382 . S
C972 N940 1.423 . S
C972 C973 1.362 . S
C972 C977 1.388 . S
C973 H937 0.929 . S
C973 C972 1.362 . S
C973 C974 1.376 . S
C974 H938 0.931 . S
C974 C973 1.376 . S
C974 C975 1.396 . S
C975 C957 1.472 . S
C975 C974 1.396 . S
C975 C976 1.348 . S
C976 H939 0.929 . S
C976 C975 1.348 . S
C976 C977 1.443 . S
C977 H941 0.932 1_565 S
C977 C972 1.388 . S
C977 C976 1.443 . S
H978 C1005 0.929 . S
N979 C1004 1.433 . S
N979 C1010 1.435 . S
N979 C1016 1.423 . S
H980 C1006 0.930 . S
H981 C1009 0.931 . S
H982 C1008 0.929 . S
H983 C1011 0.930 . S
H984 C1012 0.932 . S
H985 C1015 0.929 . S
H986 C1014 0.931 . S
H987 C1017 0.929 . S
H988 C1021 0.932 . S
H989 C1018 0.931 . S
H990 C1020 0.923 1_545 S
H991 C1023 0.929 . S
H992 C1024 0.930 . S
H993 C1026 0.954 . S
H994 C1027 0.946 . S
H995 C1029 0.930 . S
H996 C1030 0.932 . S
H997 C1032 0.931 . S
H998 C1033 0.929 . S
H999 C1035 0.929 . S
H1000 C1036 0.931 . S
H1001 C1038 0.886 1_545 S
N1002 C1022 1.433 . S
N1002 C1028 1.435 . S
N1002 C1034 1.423 . S
H1003 C1039 0.932 . S
C1004 N979 1.433 . S
C1004 C1005 1.363 . S
C1004 C1009 1.370 1_565 S
C1005 H978 0.929 . S
C1005 C1004 1.363 . S
C1005 C1006 1.385 . S
C1006 H980 0.930 . S
C1006 C1005 1.385 . S
C1006 C1007 1.357 . S
C1007 C1006 1.357 . S
C1007 C1008 1.406 1_565 S
C1008 H982 0.929 . S
C1008 C1007 1.406 1_545 S
C1008 C1009 1.391 . S
C1009 H981 0.931 . S
C1009 C1004 1.370 1_545 S
C1009 C1008 1.391 . S
C1010 N979 1.435 . S
C1010 C1011 1.358 1_565 S
C1010 C1015 1.371 . S
C1011 H983 0.930 . S
C1011 C1010 1.358 1_545 S
C1011 C1012 1.405 . S
C1012 H984 0.932 . S
C1012 C1011 1.405 . S
C1012 C1013 1.383 . S
C1013 C1012 1.383 . S
C1013 C1014 1.393 1_545 S
C1014 H986 0.931 . S
C1014 C1013 1.393 1_565 S
C1014 C1015 1.382 . S
C1015 H985 0.929 . S
C1015 C1010 1.371 . S
C1015 C1014 1.382 . S
C1016 N979 1.423 . S
C1016 C1017 1.362 . S
C1016 C1021 1.388 1_565 S
C1017 H987 0.929 . S
C1017 C1016 1.362 . S
C1017 C1018 1.376 . S
C1018 H989 0.931 . S
C1018 C1017 1.376 . S
C1018 C1019 1.396 . S
C1019 C1018 1.396 . S
C1019 C1020 1.374 . S
C1019 C1037 1.472 . S
C1020 H990 0.923 1_565 S
C1020 C1019 1.374 . S
C1020 C1021 1.424 1_565 S
C1021 H988 0.932 . S
C1021 C1016 1.388 1_545 S
C1021 C1020 1.424 1_545 S
C1022 N1002 1.433 . S
C1022 C1023 1.363 . S
C1022 C1027 1.358 1_565 S
C1023 H991 0.929 . S
C1023 C1022 1.363 . S
C1023 C1024 1.385 . S
C1024 H992 0.930 . S
C1024 C1023 1.385 . S
C1024 C1025 1.357 . S
C1025 C1024 1.357 . S
C1025 C1026 1.376 1_565 S
C1026 H993 0.954 . S
C1026 C1025 1.376 1_545 S
C1026 C1027 1.395 . S
C1027 H994 0.946 . S
C1027 C1022 1.358 1_545 S
C1027 C1026 1.395 . S
C1028 N1002 1.435 . S
C1028 C1029 1.358 1_565 S
C1028 C1033 1.371 . S
C1029 H995 0.930 . S
C1029 C1028 1.358 1_545 S
C1029 C1030 1.405 . S
C1030 H996 0.932 . S
C1030 C1029 1.405 . S
C1030 C1031 1.383 . S
C1031 C1030 1.383 . S
C1031 C1032 1.393 1_545 S
C1032 H997 0.931 . S
C1032 C1031 1.393 1_565 S
C1032 C1033 1.382 . S
C1033 H998 0.929 . S
C1033 C1028 1.371 . S
C1033 C1032 1.382 . S
C1034 N1002 1.423 . S
C1034 C1035 1.362 . S
C1034 C1039 1.388 1_565 S
C1035 H999 0.929 . S
C1035 C1034 1.362 . S
C1035 C1036 1.376 . S
C1036 H1000 0.931 . S
C1036 C1035 1.376 . S
C1036 C1037 1.396 . S
C1037 C1019 1.472 . S
C1037 C1036 1.396 . S
C1037 C1038 1.364 . S
C1038 H1001 0.886 1_565 S
C1038 C1037 1.364 . S
C1038 C1039 1.470 1_565 S
C1039 H1003 0.932 . S
C1039 C1034 1.388 1_545 S
C1039 C1038 1.470 1_545 S
H1040 C1067 0.929 . S
N1041 C1066 1.433 . S
N1041 C1072 1.435 . S
N1041 C1078 1.423 . S
H1042 C1068 0.930 . S
H1043 C1071 0.931 . S
H1044 C1070 0.929 . S
H1045 C1073 0.930 . S
H1046 C1074 0.932 . S
H1047 C1077 0.929 . S
H1048 C1076 0.931 . S
H1049 C1079 0.929 . S
H1050 C1083 0.932 1_455 S
H1051 C1080 0.931 . S
H1052 C1082 0.929 . S
H1053 C1085 0.929 . S
H1054 C1086 0.930 . S
H1055 C1088 0.929 . S
H1056 C1089 0.931 . S
H1057 C1091 0.930 . S
H1058 C1092 0.932 . S
H1059 C1094 0.931 . S
H1060 C1095 0.929 . S
H1061 C1097 0.929 . S
H1062 C1098 0.931 . S
H1063 C1100 0.929 . S
N1064 C1084 1.433 . S
N1064 C1090 1.435 . S
N1064 C1096 1.423 . S
H1065 C1101 0.932 1_455 S
C1066 N1041 1.433 . S
C1066 C1067 1.363 . S
C1066 C1071 1.370 1_655 S
C1067 H1040 0.929 . S
C1067 C1066 1.363 . S
C1067 C1068 1.385 . S
C1068 H1042 0.930 . S
C1068 C1067 1.385 . S
C1068 C1069 1.357 1_655 S
C1069 C1068 1.357 1_455 S
C1069 C1070 1.406 . S
C1070 H1044 0.929 . S
C1070 C1069 1.406 . S
C1070 C1071 1.391 . S
C1071 H1043 0.931 . S
C1071 C1066 1.370 1_455 S
C1071 C1070 1.391 . S
C1072 N1041 1.435 . S
C1072 C1073 1.358 1_655 S
C1072 C1077 1.371 . S
C1073 H1045 0.930 . S
C1073 C1072 1.358 1_455 S
C1073 C1074 1.405 . S
C1074 H1046 0.932 . S
C1074 C1073 1.405 . S
C1074 C1075 1.383 1_455 S
C1075 C1074 1.383 1_655 S
C1075 C1076 1.393 . S
C1076 H1048 0.931 . S
C1076 C1075 1.393 . S
C1076 C1077 1.382 . S
C1077 H1047 0.929 . S
C1077 C1072 1.371 . S
C1077 C1076 1.382 . S
C1078 N1041 1.423 . S
C1078 C1079 1.362 . S
C1078 C1083 1.388 . S
C1079 H1049 0.929 . S
C1079 C1078 1.362 . S
C1079 C1080 1.376 . S
C1080 H1051 0.931 . S
C1080 C1079 1.376 . S
C1080 C1081 1.396 . S
C1081 C1080 1.396 . S
C1081 C1082 1.348 . S
C1081 C1099 1.472 . S
C1082 H1052 0.929 . S
C1082 C1081 1.348 . S
C1082 C1083 1.443 . S
C1083 H1050 0.932 1_655 S
C1083 C1078 1.388 . S
C1083 C1082 1.443 . S
C1084 N1064 1.433 . S
C1084 C1085 1.363 . S
C1084 C1089 1.370 1_655 S
C1085 H1053 0.929 . S
C1085 C1084 1.363 . S
C1085 C1086 1.385 . S
C1086 H1054 0.930 . S
C1086 C1085 1.385 . S
C1086 C1087 1.357 1_655 S
C1087 C1086 1.357 1_455 S
C1087 C1088 1.406 . S
C1088 H1055 0.929 . S
C1088 C1087 1.406 . S
C1088 C1089 1.391 . S
C1089 H1056 0.931 . S
C1089 C1084 1.370 1_455 S
C1089 C1088 1.391 . S
C1090 N1064 1.435 . S
C1090 C1091 1.358 1_655 S
C1090 C1095 1.371 . S
C1091 H1057 0.930 . S
C1091 C1090 1.358 1_455 S
C1091 C1092 1.405 . S
C1092 H1058 0.932 . S
C1092 C1091 1.405 . S
C1092 C1093 1.383 1_455 S
C1093 C1092 1.383 1_655 S
C1093 C1094 1.393 . S
C1094 H1059 0.931 . S
C1094 C1093 1.393 . S
C1094 C1095 1.382 . S
C1095 H1060 0.929 . S
C1095 C1090 1.371 . S
C1095 C1094 1.382 . S
C1096 N1064 1.423 . S
C1096 C1097 1.362 . S
C1096 C1101 1.388 . S
C1097 H1061 0.929 . S
C1097 C1096 1.362 . S
C1097 C1098 1.376 . S
C1098 H1062 0.931 . S
C1098 C1097 1.376 . S
C1098 C1099 1.396 . S
C1099 C1081 1.472 . S
C1099 C1098 1.396 . S
C1099 C1100 1.348 . S
C1100 H1063 0.929 . S
C1100 C1099 1.348 . S
C1100 C1101 1.443 . S
C1101 H1065 0.932 1_655 S
C1101 C1096 1.388 . S
C1101 C1100 1.443 . S
H1102 C1129 0.929 . S
N1103 C1128 1.433 . S
N1103 C1134 1.435 . S
N1103 C1140 1.423 . S
H1104 C1130 0.930 . S
H1105 C1133 0.931 . S
H1106 C1132 0.929 . S
H1107 C1135 0.930 . S
H1108 C1136 0.932 . S
H1109 C1139 0.929 . S
H1110 C1138 0.931 . S
H1111 C1141 0.929 . S
H1112 C1145 0.932 . S
H1113 C1142 0.931 . S
H1114 C1144 0.929 . S
H1115 C1147 0.929 . S
H1116 C1148 0.930 . S
H1117 C1150 0.929 . S
H1118 C1151 0.931 . S
H1119 C1153 0.930 . S
H1120 C1154 0.932 . S
H1121 C1156 0.931 . S
H1122 C1157 0.929 . S
H1123 C1159 0.929 . S
H1124 C1160 0.931 . S
H1125 C1162 0.929 . S
N1126 C1146 1.433 . S
N1126 C1152 1.435 . S
N1126 C1158 1.423 . S
H1127 C1163 0.932 . S
C1128 N1103 1.433 . S
C1128 C1129 1.363 . S
C1128 C1133 1.370 . S
C1129 H1102 0.929 . S
C1129 C1128 1.363 . S
C1129 C1130 1.385 . S
C1130 H1104 0.930 . S
C1130 C1129 1.385 . S
C1130 C1131 1.357 . S
C1131 C1130 1.357 . S
C1131 C1132 1.406 . S
C1132 H1106 0.929 . S
C1132 C1131 1.406 . S
C1132 C1133 1.391 . S
C1133 H1105 0.931 . S
C1133 C1128 1.370 . S
C1133 C1132 1.391 . S
C1134 N1103 1.435 . S
C1134 C1135 1.358 . S
C1134 C1139 1.371 . S
C1135 H1107 0.930 . S
C1135 C1134 1.358 . S
C1135 C1136 1.405 . S
C1136 H1108 0.932 . S
C1136 C1135 1.405 . S
C1136 C1137 1.383 . S
C1137 C1136 1.383 . S
C1137 C1138 1.393 . S
C1138 H1110 0.931 . S
C1138 C1137 1.393 . S
C1138 C1139 1.382 . S
C1139 H1109 0.929 . S
C1139 C1134 1.371 . S
C1139 C1138 1.382 . S
C1140 N1103 1.423 . S
C1140 C1141 1.362 . S
C1140 C1145 1.388 . S
C1141 H1111 0.929 . S
C1141 C1140 1.362 . S
C1141 C1142 1.376 . S
C1142 H1113 0.931 . S
C1142 C1141 1.376 . S
C1142 C1143 1.396 . S
C1143 C1142 1.396 . S
C1143 C1144 1.348 . S
C1143 C1161 1.472 . S
C1144 H1114 0.929 . S
C1144 C1143 1.348 . S
C1144 C1145 1.443 . S
C1145 H1112 0.932 . S
C1145 C1140 1.388 . S
C1145 C1144 1.443 . S
C1146 N1126 1.433 . S
C1146 C1147 1.363 . S
C1146 C1151 1.370 . S
C1147 H1115 0.929 . S
C1147 C1146 1.363 . S
C1147 C1148 1.385 . S
C1148 H1116 0.930 . S
C1148 C1147 1.385 . S
C1148 C1149 1.357 . S
C1149 C1148 1.357 . S
C1149 C1150 1.406 . S
C1150 H1117 0.929 . S
C1150 C1149 1.406 . S
C1150 C1151 1.391 . S
C1151 H1118 0.931 . S
C1151 C1146 1.370 . S
C1151 C1150 1.391 . S
C1152 N1126 1.435 . S
C1152 C1153 1.358 . S
C1152 C1157 1.371 . S
C1153 H1119 0.930 . S
C1153 C1152 1.358 . S
C1153 C1154 1.405 . S
C1154 H1120 0.932 . S
C1154 C1153 1.405 . S
C1154 C1155 1.383 . S
C1155 C1154 1.383 . S
C1155 C1156 1.393 . S
C1156 H1121 0.931 . S
C1156 C1155 1.393 . S
C1156 C1157 1.382 . S
C1157 H1122 0.929 . S
C1157 C1152 1.371 . S
C1157 C1156 1.382 . S
C1158 N1126 1.423 . S
C1158 C1159 1.362 . S
C1158 C1163 1.388 . S
C1159 H1123 0.929 . S
C1159 C1158 1.362 . S
C1159 C1160 1.376 . S
C1160 H1124 0.931 . S
C1160 C1159 1.376 . S
C1160 C1161 1.396 . S
C1161 C1143 1.472 . S
C1161 C1160 1.396 . S
C1161 C1162 1.348 . S
C1162 H1125 0.929 . S
C1162 C1161 1.348 . S
C1162 C1163 1.443 . S
C1163 H1127 0.932 . S
C1163 C1158 1.388 . S
C1163 C1162 1.443 . S
H1164 C1191 0.929 . S
N1165 C1190 1.433 . S
N1165 C1196 1.435 . S
N1165 C1202 1.423 . S
H1166 C1192 0.930 . S
H1167 C1195 0.931 . S
H1168 C1194 0.929 . S
H1169 C1197 0.930 . S
H1170 C1198 0.932 . S
H1171 C1201 0.929 . S
H1172 C1200 0.931 . S
H1173 C1203 0.929 . S
H1174 C1207 0.932 . S
H1175 C1204 0.931 . S
H1176 C1206 0.929 . S
H1177 C1209 0.929 . S
H1178 C1210 0.930 . S
H1179 C1212 0.929 . S
H1180 C1213 0.931 . S
H1181 C1215 0.930 . S
H1182 C1216 0.932 . S
H1183 C1218 0.931 . S
H1184 C1219 0.929 . S
H1185 C1221 0.929 . S
H1186 C1222 0.931 . S
H1187 C1224 0.929 . S
N1188 C1208 1.433 . S
N1188 C1214 1.435 . S
N1188 C1220 1.423 . S
H1189 C1225 0.932 . S
C1190 N1165 1.433 . S
C1190 C1191 1.363 . S
C1190 C1195 1.370 . S
C1191 H1164 0.929 . S
C1191 C1190 1.363 . S
C1191 C1192 1.385 . S
C1192 H1166 0.930 . S
C1192 C1191 1.385 . S
C1192 C1193 1.357 . S
C1193 C1192 1.357 . S
C1193 C1194 1.406 . S
C1194 H1168 0.929 . S
C1194 C1193 1.406 . S
C1194 C1195 1.391 . S
C1195 H1167 0.931 . S
C1195 C1190 1.370 . S
C1195 C1194 1.391 . S
C1196 N1165 1.435 . S
C1196 C1197 1.358 . S
C1196 C1201 1.371 . S
C1197 H1169 0.930 . S
C1197 C1196 1.358 . S
C1197 C1198 1.405 . S
C1198 H1170 0.932 . S
C1198 C1197 1.405 . S
C1198 C1199 1.383 . S
C1199 C1198 1.383 . S
C1199 C1200 1.393 . S
C1200 H1172 0.931 . S
C1200 C1199 1.393 . S
C1200 C1201 1.382 . S
C1201 H1171 0.929 . S
C1201 C1196 1.371 . S
C1201 C1200 1.382 . S
C1202 N1165 1.423 . S
C1202 C1203 1.362 . S
C1202 C1207 1.388 . S
C1203 H1173 0.929 . S
C1203 C1202 1.362 . S
C1203 C1204 1.376 . S
C1204 H1175 0.931 . S
C1204 C1203 1.376 . S
C1204 C1205 1.396 . S
C1205 C1204 1.396 . S
C1205 C1206 1.348 . S
C1205 C1223 1.472 . S
C1206 H1176 0.929 . S
C1206 C1205 1.348 . S
C1206 C1207 1.443 . S
C1207 H1174 0.932 . S
C1207 C1202 1.388 . S
C1207 C1206 1.443 . S
C1208 N1188 1.433 . S
C1208 C1209 1.363 . S
C1208 C1213 1.370 . S
C1209 H1177 0.929 . S
C1209 C1208 1.363 . S
C1209 C1210 1.385 . S
C1210 H1178 0.930 . S
C1210 C1209 1.385 . S
C1210 C1211 1.357 . S
C1211 C1210 1.357 . S
C1211 C1212 1.406 . S
C1212 H1179 0.929 . S
C1212 C1211 1.406 . S
C1212 C1213 1.391 . S
C1213 H1180 0.931 . S
C1213 C1208 1.370 . S
C1213 C1212 1.391 . S
C1214 N1188 1.435 . S
C1214 C1215 1.358 . S
C1214 C1219 1.371 . S
C1215 H1181 0.930 . S
C1215 C1214 1.358 . S
C1215 C1216 1.405 . S
C1216 H1182 0.932 . S
C1216 C1215 1.405 . S
C1216 C1217 1.383 . S
C1217 C1216 1.383 . S
C1217 C1218 1.393 . S
C1218 H1183 0.931 . S
C1218 C1217 1.393 . S
C1218 C1219 1.382 . S
C1219 H1184 0.929 . S
C1219 C1214 1.371 . S
C1219 C1218 1.382 . S
C1220 N1188 1.423 . S
C1220 C1221 1.362 . S
C1220 C1225 1.388 . S
C1221 H1185 0.929 . S
C1221 C1220 1.362 . S
C1221 C1222 1.376 . S
C1222 H1186 0.931 . S
C1222 C1221 1.376 . S
C1222 C1223 1.396 . S
C1223 C1205 1.472 . S
C1223 C1222 1.396 . S
C1223 C1224 1.348 . S
C1224 H1187 0.929 . S
C1224 C1223 1.348 . S
C1224 C1225 1.443 . S
C1225 H1189 0.932 . S
C1225 C1220 1.388 . S
C1225 C1224 1.443 . S
H1226 C1253 0.929 . S
N1227 C1252 1.433 . S
N1227 C1258 1.435 . S
N1227 C1264 1.423 . S
H1228 C1254 0.930 . S
H1229 C1257 0.931 . S
H1230 C1256 0.929 . S
H1231 C1259 0.930 . S
H1232 C1260 0.932 . S
H1233 C1263 0.929 . S
H1234 C1262 0.931 . S
H1235 C1265 0.929 . S
H1236 C1269 0.932 . S
H1237 C1266 0.931 . S
H1238 C1268 0.929 . S
H1239 C1271 0.929 . S
H1240 C1272 0.930 . S
H1241 C1274 0.929 . S
H1242 C1275 0.931 . S
H1243 C1277 0.930 . S
H1244 C1278 0.932 . S
H1245 C1280 0.931 . S
H1246 C1281 0.929 . S
H1247 C1283 0.929 . S
H1248 C1284 0.931 . S
H1249 C1286 0.929 . S
N1250 C1270 1.433 . S
N1250 C1276 1.435 . S
N1250 C1282 1.423 . S
H1251 C1287 0.932 . S
C1252 N1227 1.433 . S
C1252 C1253 1.363 . S
C1252 C1257 1.370 . S
C1253 H1226 0.929 . S
C1253 C1252 1.363 . S
C1253 C1254 1.385 . S
C1254 H1228 0.930 . S
C1254 C1253 1.385 . S
C1254 C1255 1.357 . S
C1255 C1254 1.357 . S
C1255 C1256 1.406 . S
C1256 H1230 0.929 . S
C1256 C1255 1.406 . S
C1256 C1257 1.391 . S
C1257 H1229 0.931 . S
C1257 C1252 1.370 . S
C1257 C1256 1.391 . S
C1258 N1227 1.435 . S
C1258 C1259 1.358 . S
C1258 C1263 1.371 . S
C1259 H1231 0.930 . S
C1259 C1258 1.358 . S
C1259 C1260 1.405 . S
C1260 H1232 0.932 . S
C1260 C1259 1.405 . S
C1260 C1261 1.383 . S
C1261 C1260 1.383 . S
C1261 C1262 1.393 . S
C1262 H1234 0.931 . S
C1262 C1261 1.393 . S
C1262 C1263 1.382 . S
C1263 H1233 0.929 . S
C1263 C1258 1.371 . S
C1263 C1262 1.382 . S
C1264 N1227 1.423 . S
C1264 C1265 1.362 . S
C1264 C1269 1.388 . S
C1265 H1235 0.929 . S
C1265 C1264 1.362 . S
C1265 C1266 1.376 . S
C1266 H1237 0.931 . S
C1266 C1265 1.376 . S
C1266 C1267 1.396 . S
C1267 C1266 1.396 . S
C1267 C1268 1.348 . S
C1267 C1285 1.472 . S
C1268 H1238 0.929 . S
C1268 C1267 1.348 . S
C1268 C1269 1.443 . S
C1269 H1236 0.932 . S
C1269 C1264 1.388 . S
C1269 C1268 1.443 . S
C1270 N1250 1.433 . S
C1270 C1271 1.363 . S
C1270 C1275 1.370 . S
C1271 H1239 0.929 . S
C1271 C1270 1.363 . S
C1271 C1272 1.385 . S
C1272 H1240 0.930 . S
C1272 C1271 1.385 . S
C1272 C1273 1.357 . S
C1273 C1272 1.357 . S
C1273 C1274 1.406 . S
C1274 H1241 0.929 . S
C1274 C1273 1.406 . S
C1274 C1275 1.391 . S
C1275 H1242 0.931 . S
C1275 C1270 1.370 . S
C1275 C1274 1.391 . S
C1276 N1250 1.435 . S
C1276 C1277 1.358 . S
C1276 C1281 1.371 . S
C1277 H1243 0.930 . S
C1277 C1276 1.358 . S
C1277 C1278 1.405 . S
C1278 H1244 0.932 . S
C1278 C1277 1.405 . S
C1278 C1279 1.383 . S
C1279 C1278 1.383 . S
C1279 C1280 1.393 . S
C1280 H1245 0.931 . S
C1280 C1279 1.393 . S
C1280 C1281 1.382 . S
C1281 H1246 0.929 . S
C1281 C1276 1.371 . S
C1281 C1280 1.382 . S
C1282 N1250 1.423 . S
C1282 C1283 1.362 . S
C1282 C1287 1.388 . S
C1283 H1247 0.929 . S
C1283 C1282 1.362 . S
C1283 C1284 1.376 . S
C1284 H1248 0.931 . S
C1284 C1283 1.376 . S
C1284 C1285 1.396 . S
C1285 C1267 1.472 . S
C1285 C1284 1.396 . S
C1285 C1286 1.348 . S
C1286 H1249 0.929 . S
C1286 C1285 1.348 . S
C1286 C1287 1.443 . S
C1287 H1251 0.932 . S
C1287 C1282 1.388 . S
C1287 C1286 1.443 . S
H1288 C1315 0.929 . S
N1289 C1314 1.433 . S
N1289 C1320 1.435 . S
N1289 C1326 1.423 . S
H1290 C1316 0.930 . S
H1291 C1319 0.931 . S
H1292 C1318 0.929 . S
H1293 C1321 0.930 . S
H1294 C1322 0.932 . S
H1295 C1325 0.929 . S
H1296 C1324 0.931 . S
H1297 C1327 0.929 . S
H1298 C1331 0.932 . S
H1299 C1328 0.931 . S
H1300 C1330 0.929 . S
H1301 C1333 0.929 . S
H1302 C1334 0.930 . S
H1303 C1336 0.929 . S
H1304 C1337 0.931 . S
H1305 C1339 0.930 . S
H1306 C1340 0.932 . S
H1307 C1342 0.931 . S
H1308 C1343 0.929 . S
H1309 C1345 0.929 . S
H1310 C1346 0.931 . S
H1311 C1348 0.929 . S
N1312 C1332 1.433 . S
N1312 C1338 1.435 . S
N1312 C1344 1.423 . S
H1313 C1349 0.932 . S
C1314 N1289 1.433 . S
C1314 C1315 1.363 . S
C1314 C1319 1.370 . S
C1315 H1288 0.929 . S
C1315 C1314 1.363 . S
C1315 C1316 1.385 . S
C1316 H1290 0.930 . S
C1316 C1315 1.385 . S
C1316 C1317 1.357 . S
C1317 C1316 1.357 . S
C1317 C1318 1.406 . S
C1318 H1292 0.929 . S
C1318 C1317 1.406 . S
C1318 C1319 1.391 . S
C1319 H1291 0.931 . S
C1319 C1314 1.370 . S
C1319 C1318 1.391 . S
C1320 N1289 1.435 . S
C1320 C1321 1.358 . S
C1320 C1325 1.371 . S
C1321 H1293 0.930 . S
C1321 C1320 1.358 . S
C1321 C1322 1.405 . S
C1322 H1294 0.932 . S
C1322 C1321 1.405 . S
C1322 C1323 1.383 . S
C1323 C1322 1.383 . S
C1323 C1324 1.393 . S
C1324 H1296 0.931 . S
C1324 C1323 1.393 . S
C1324 C1325 1.382 . S
C1325 H1295 0.929 . S
C1325 C1320 1.371 . S
C1325 C1324 1.382 . S
C1326 N1289 1.423 . S
C1326 C1327 1.362 . S
C1326 C1331 1.388 . S
C1327 H1297 0.929 . S
C1327 C1326 1.362 . S
C1327 C1328 1.376 . S
C1328 H1299 0.931 . S
C1328 C1327 1.376 . S
C1328 C1329 1.396 . S
C1329 C1328 1.396 . S
C1329 C1330 1.348 . S
C1329 C1347 1.472 . S
C1330 H1300 0.929 . S
C1330 C1329 1.348 . S
C1330 C1331 1.443 . S
C1331 H1298 0.932 . S
C1331 C1326 1.388 . S
C1331 C1330 1.443 . S
C1332 N1312 1.433 . S
C1332 C1333 1.363 . S
C1332 C1337 1.370 . S
C1333 H1301 0.929 . S
C1333 C1332 1.363 . S
C1333 C1334 1.385 . S
C1334 H1302 0.930 . S
C1334 C1333 1.385 . S
C1334 C1335 1.357 . S
C1335 C1334 1.357 . S
C1335 C1336 1.406 . S
C1336 H1303 0.929 . S
C1336 C1335 1.406 . S
C1336 C1337 1.391 . S
C1337 H1304 0.931 . S
C1337 C1332 1.370 . S
C1337 C1336 1.391 . S
C1338 N1312 1.435 . S
C1338 C1339 1.358 . S
C1338 C1343 1.371 . S
C1339 H1305 0.930 . S
C1339 C1338 1.358 . S
C1339 C1340 1.405 . S
C1340 H1306 0.932 . S
C1340 C1339 1.405 . S
C1340 C1341 1.383 . S
C1341 C1340 1.383 . S
C1341 C1342 1.393 . S
C1342 H1307 0.931 . S
C1342 C1341 1.393 . S
C1342 C1343 1.382 . S
C1343 H1308 0.929 . S
C1343 C1338 1.371 . S
C1343 C1342 1.382 . S
C1344 N1312 1.423 . S
C1344 C1345 1.362 . S
C1344 C1349 1.388 . S
C1345 H1309 0.929 . S
C1345 C1344 1.362 . S
C1345 C1346 1.376 . S
C1346 H1310 0.931 . S
C1346 C1345 1.376 . S
C1346 C1347 1.396 . S
C1347 C1329 1.472 . S
C1347 C1346 1.396 . S
C1347 C1348 1.348 . S
C1348 H1311 0.929 . S
C1348 C1347 1.348 . S
C1348 C1349 1.443 . S
C1349 H1313 0.932 . S
C1349 C1344 1.388 . S
C1349 C1348 1.443 . S
C1350 C1351 1.363 1_455 S
C1350 C1356 1.379 . S
C1350 N1358 1.356 . S
C1351 C1350 1.363 1_655 S
C1351 C1357 1.363 . S
C1352 C1353 1.363 . S
C1352 C1357 1.379 . S
C1352 N1359 1.356 . S
C1353 C1352 1.363 . S
C1353 C1356 1.363 1_655 S
N1354 C1356 1.356 . S
N1354 H1366 0.984 . S
N1354 H1367 0.985 . S
N1355 C1357 1.356 . S
N1355 H1360 0.984 . S
N1355 H1361 0.985 . S
C1356 C1350 1.379 . S
C1356 C1353 1.363 1_455 S
C1356 N1354 1.356 . S
C1357 C1351 1.363 . S
C1357 C1352 1.379 . S
C1357 N1355 1.356 . S
N1358 C1350 1.356 . S
N1358 H1364 0.984 . S
N1358 H1365 0.984 . S
N1359 C1352 1.356 . S
N1359 H1362 0.984 . S
N1359 H1363 0.985 . S
H1360 N1355 0.984 . S
H1361 N1355 0.985 . S
H1362 N1359 0.984 . S
H1363 N1359 0.985 . S
H1364 N1358 0.984 . S
H1365 N1358 0.984 . S
H1366 N1354 0.984 . S
H1367 N1354 0.985 . S
C1368 C1369 1.363 . S
C1368 C1374 1.379 . S
C1368 N1376 1.356 . S
C1369 C1368 1.363 . S
C1369 C1375 1.363 . S
C1370 C1371 1.363 . S
C1370 C1375 1.379 . S
C1370 N1377 1.356 . S
C1371 C1370 1.363 . S
C1371 C1374 1.363 . S
N1372 C1374 1.356 . S
N1372 H1384 0.984 . S
N1372 H1385 0.985 . S
N1373 C1375 1.356 . S
N1373 H1378 0.984 . S
N1373 H1379 0.985 . S
C1374 C1368 1.379 . S
C1374 C1371 1.363 . S
C1374 N1372 1.356 . S
C1375 C1369 1.363 . S
C1375 C1370 1.379 . S
C1375 N1373 1.356 . S
N1376 C1368 1.356 . S
N1376 H1382 0.984 . S
N1376 H1383 0.984 . S
N1377 C1370 1.356 . S
N1377 H1380 0.984 . S
N1377 H1381 0.985 . S
H1378 N1373 0.984 . S
H1379 N1373 0.985 . S
H1380 N1377 0.984 . S
H1381 N1377 0.985 . S
H1382 N1376 0.984 . S
H1383 N1376 0.984 . S
H1384 N1372 0.984 . S
H1385 N1372 0.985 . S
C1386 C1387 1.363 . S
C1386 C1392 1.379 . S
C1386 N1394 1.356 . S
C1387 C1386 1.363 . S
C1387 C1393 1.363 1_545 S
C1388 C1389 1.363 1_565 S
C1388 C1393 1.379 . S
C1388 N1395 1.356 . S
C1389 C1388 1.363 1_545 S
C1389 C1392 1.363 . S
N1390 C1392 1.356 . S
N1390 H1402 0.984 . S
N1390 H1403 0.985 . S
N1391 C1393 1.356 . S
N1391 H1396 0.984 . S
N1391 H1397 0.985 . S
C1392 C1386 1.379 . S
C1392 C1389 1.363 . S
C1392 N1390 1.356 . S
C1393 C1387 1.363 1_565 S
C1393 C1388 1.379 . S
C1393 N1391 1.356 . S
N1394 C1386 1.356 . S
N1394 H1400 0.984 . S
N1394 H1401 0.984 . S
N1395 C1388 1.356 . S
N1395 H1398 0.984 . S
N1395 H1399 0.985 . S
H1396 N1391 0.984 . S
H1397 N1391 0.985 . S
H1398 N1395 0.984 . S
H1399 N1395 0.985 . S
H1400 N1394 0.984 . S
H1401 N1394 0.984 . S
H1402 N1390 0.984 . S
H1403 N1390 0.985 . S
C1404 C1405 1.363 1_545 S
C1404 C1410 1.379 . S
C1404 N1412 1.356 . S
C1405 C1404 1.363 1_565 S
C1405 C1411 1.363 . S
C1406 C1407 1.363 . S
C1406 C1411 1.379 . S
C1406 N1413 1.356 . S
C1407 C1406 1.363 . S
C1407 C1410 1.363 1_565 S
N1408 C1410 1.356 . S
N1408 H1420 0.984 . S
N1408 H1421 0.985 . S
N1409 C1411 1.356 . S
N1409 H1414 0.984 . S
N1409 H1415 0.985 . S
C1410 C1404 1.379 . S
C1410 C1407 1.363 1_545 S
C1410 N1408 1.356 . S
C1411 C1405 1.363 . S
C1411 C1406 1.379 . S
C1411 N1409 1.356 . S
N1412 C1404 1.356 . S
N1412 H1418 0.984 . S
N1412 H1419 0.984 . S
N1413 C1406 1.356 . S
N1413 H1416 0.984 . S
N1413 H1417 0.985 . S
H1414 N1409 0.984 . S
H1415 N1409 0.985 . S
H1416 N1413 0.984 . S
H1417 N1413 0.985 . S
H1418 N1412 0.984 . S
H1419 N1412 0.984 . S
H1420 N1408 0.984 . S
H1421 N1408 0.985 . S
C1422 C1423 1.316 1_655 S
C1422 C1428 1.387 . S
C1422 N1430 1.372 . S
C1423 C1422 1.316 1_455 S
C1423 C1429 1.363 . S
C1424 C1425 1.363 . S
C1424 C1429 1.379 . S
C1424 N1431 1.356 . S
C1425 C1424 1.363 . S
C1425 C1428 1.348 1_455 S
N1426 C1428 1.381 . S
N1426 H1438 0.984 . S
N1426 H1439 0.985 . S
N1427 C1429 1.356 . S
N1427 H1432 0.984 . S
N1427 H1433 0.985 . S
C1428 C1422 1.387 . S
C1428 C1425 1.348 1_655 S
C1428 N1426 1.381 . S
C1429 C1423 1.363 . S
C1429 C1424 1.379 . S
C1429 N1427 1.356 . S
N1430 C1422 1.372 . S
N1430 H1436 0.984 . S
N1430 H1437 0.984 . S
N1431 C1424 1.356 . S
N1431 H1434 0.984 . S
N1431 H1435 0.985 . S
H1432 N1427 0.984 . S
H1433 N1427 0.985 . S
H1434 N1431 0.984 . S
H1435 N1431 0.985 . S
H1436 N1430 0.984 . S
H1437 N1430 0.984 . S
H1438 N1426 0.984 . S
H1439 N1426 0.985 . S
C1440 C1441 1.363 . S
C1440 C1446 1.379 . S
C1440 N1448 1.356 . S
C1441 C1440 1.363 . S
C1441 C1447 1.363 . S
C1442 C1443 1.363 . S
C1442 C1447 1.379 . S
C1442 N1449 1.356 . S
C1443 C1442 1.363 . S
C1443 C1446 1.363 . S
N1444 C1446 1.356 . S
N1444 H1456 0.984 . S
N1444 H1457 0.985 . S
N1445 C1447 1.356 . S
N1445 H1450 0.984 . S
N1445 H1451 0.985 . S
C1446 C1440 1.379 . S
C1446 C1443 1.363 . S
C1446 N1444 1.356 . S
C1447 C1441 1.363 . S
C1447 C1442 1.379 . S
C1447 N1445 1.356 . S
N1448 C1440 1.356 . S
N1448 H1454 0.984 . S
N1448 H1455 0.984 . S
N1449 C1442 1.356 . S
N1449 H1452 0.984 . S
N1449 H1453 0.985 . S
H1450 N1445 0.984 . S
H1451 N1445 0.985 . S
H1452 N1449 0.984 . S
H1453 N1449 0.985 . S
H1454 N1448 0.984 . S
H1455 N1448 0.984 . S
H1456 N1444 0.984 . S
H1457 N1444 0.985 . S
C1458 C1459 1.363 . S
C1458 C1464 1.379 . S
C1458 N1466 1.356 . S
C1459 C1458 1.363 . S
C1459 C1465 1.363 . S
C1460 C1461 1.363 . S
C1460 C1465 1.379 . S
C1460 N1467 1.356 1_455 S
C1461 C1460 1.363 . S
C1461 C1464 1.363 . S
N1462 C1464 1.356 . S
N1462 H1474 0.984 . S
N1462 H1475 0.985 . S
N1463 C1465 1.356 1_655 S
N1463 H1468 0.980 . S
N1463 H1469 0.985 . S
C1464 C1458 1.379 . S
C1464 C1461 1.363 . S
C1464 N1462 1.356 . S
C1465 C1459 1.363 . S
C1465 C1460 1.379 . S
C1465 N1463 1.356 1_455 S
N1466 C1458 1.356 . S
N1466 H1472 0.984 . S
N1466 H1473 0.984 . S
N1467 C1460 1.356 1_655 S
N1467 H1470 0.984 . S
N1467 H1471 0.985 . S
H1468 N1463 0.980 . S
H1469 N1463 0.985 . S
H1470 N1467 0.984 . S
H1471 N1467 0.985 . S
H1472 N1466 0.984 . S
H1473 N1466 0.984 . S
H1474 N1462 0.984 . S
H1475 N1462 0.985 . S
C1476 C1477 1.363 . S
C1476 C1482 1.379 . S
C1476 N1484 1.356 . S
C1477 C1476 1.363 . S
C1477 C1483 1.363 . S
C1478 C1479 1.363 . S
C1478 C1483 1.379 . S
C1478 N1485 1.356 . S
C1479 C1478 1.363 . S
C1479 C1482 1.363 . S
N1480 C1482 1.356 . S
N1480 H1492 0.984 . S
N1480 H1493 0.985 . S
N1481 C1483 1.356 . S
N1481 H1486 0.984 . S
N1481 H1487 0.985 . S
C1482 C1476 1.379 . S
C1482 C1479 1.363 . S
C1482 N1480 1.356 . S
C1483 C1477 1.363 . S
C1483 C1478 1.379 . S
C1483 N1481 1.356 . S
N1484 C1476 1.356 . S
N1484 H1490 0.984 . S
N1484 H1491 0.984 . S
N1485 C1478 1.356 . S
N1485 H1488 0.984 . S
N1485 H1489 0.985 . S
H1486 N1481 0.984 . S
H1487 N1481 0.985 . S
H1488 N1485 0.984 . S
H1489 N1485 0.985 . S
H1490 N1484 0.984 . S
H1491 N1484 0.984 . S
H1492 N1480 0.984 . S
H1493 N1480 0.985 . S
C1494 C1495 1.363 . S
C1494 C1500 1.379 . S
C1494 N1502 1.356 . S
C1495 C1494 1.363 . S
C1495 C1501 1.363 1_565 S
C1496 C1497 1.363 1_545 S
C1496 C1501 1.379 . S
C1496 N1503 1.356 . S
C1497 C1496 1.363 1_565 S
C1497 C1500 1.363 . S
N1498 C1500 1.356 . S
N1498 H1510 0.984 . S
N1498 H1511 0.985 . S
N1499 C1501 1.356 . S
N1499 H1504 0.984 . S
N1499 H1505 0.985 . S
C1500 C1494 1.379 . S
C1500 C1497 1.363 . S
C1500 N1498 1.356 . S
C1501 C1495 1.363 1_545 S
C1501 C1496 1.379 . S
C1501 N1499 1.356 . S
N1502 C1494 1.356 . S
N1502 H1508 0.984 . S
N1502 H1509 0.984 . S
N1503 C1496 1.356 . S
N1503 H1506 0.984 . S
N1503 H1507 0.985 . S
H1504 N1499 0.984 . S
H1505 N1499 0.985 . S
H1506 N1503 0.984 . S
H1507 N1503 0.985 . S
H1508 N1502 0.984 . S
H1509 N1502 0.984 . S
H1510 N1498 0.984 . S
H1511 N1498 0.985 . S
C1512 C1513 1.363 1_565 S
C1512 C1518 1.379 . S
C1512 N1520 1.356 . S
C1513 C1512 1.363 1_545 S
C1513 C1519 1.363 . S
C1514 C1515 1.363 . S
C1514 C1519 1.379 . S
C1514 N1521 1.356 . S
C1515 C1514 1.363 . S
C1515 C1518 1.363 1_545 S
N1516 C1518 1.356 . S
N1516 H1528 0.984 . S
N1516 H1529 0.985 . S
N1517 C1519 1.356 . S
N1517 H1522 0.984 . S
N1517 H1523 0.985 . S
C1518 C1512 1.379 . S
C1518 C1515 1.363 1_565 S
C1518 N1516 1.356 . S
C1519 C1513 1.363 . S
C1519 C1514 1.379 . S
C1519 N1517 1.356 . S
N1520 C1512 1.356 . S
N1520 H1526 0.984 . S
N1520 H1527 0.984 . S
N1521 C1514 1.356 . S
N1521 H1524 0.984 . S
N1521 H1525 0.985 . S
H1522 N1517 0.984 . S
H1523 N1517 0.985 . S
H1524 N1521 0.984 . S
H1525 N1521 0.985 . S
H1526 N1520 0.984 . S
H1527 N1520 0.984 . S
H1528 N1516 0.984 . S
H1529 N1516 0.985 . S
C1530 C1531 1.363 1_455 S
C1530 C1536 1.379 . S
C1530 N1538 1.356 . S
C1531 C1530 1.363 1_655 S
C1531 C1537 1.363 . S
C1532 C1533 1.363 . S
C1532 C1537 1.379 . S
C1532 N1539 1.356 . S
C1533 C1532 1.363 . S
C1533 C1536 1.363 1_655 S
N1534 C1536 1.356 . S
N1534 H1546 0.984 . S
N1534 H1547 0.985 . S
N1535 C1537 1.356 . S
N1535 H1540 0.984 . S
N1535 H1541 0.985 . S
C1536 C1530 1.379 . S
C1536 C1533 1.363 1_455 S
C1536 N1534 1.356 . S
C1537 C1531 1.363 . S
C1537 C1532 1.379 . S
C1537 N1535 1.356 . S
N1538 C1530 1.356 . S
N1538 H1544 0.984 . S
N1538 H1545 0.984 . S
N1539 C1532 1.356 . S
N1539 H1542 0.984 . S
N1539 H1543 0.985 . S
H1540 N1535 0.984 . S
H1541 N1535 0.985 . S
H1542 N1539 0.984 . S
H1543 N1539 0.985 . S
H1544 N1538 0.984 . S
H1545 N1538 0.984 . S
H1546 N1534 0.984 . S
H1547 N1534 0.985 . S
C1548 C1549 1.363 . S
C1548 C1554 1.379 . S
C1548 N1556 1.356 . S
C1549 C1548 1.363 . S
C1549 C1555 1.363 . S
C1550 C1551 1.363 . S
C1550 C1555 1.379 . S
C1550 N1557 1.356 . S
C1551 C1550 1.363 . S
C1551 C1554 1.363 . S
N1552 C1554 1.356 . S
N1552 H1564 0.984 . S
N1552 H1565 0.985 . S
N1553 C1555 1.356 . S
N1553 H1558 0.984 . S
N1553 H1559 0.985 . S
C1554 C1548 1.379 . S
C1554 C1551 1.363 . S
C1554 N1552 1.356 . S
C1555 C1549 1.363 . S
C1555 C1550 1.379 . S
C1555 N1553 1.356 . S
N1556 C1548 1.356 . S
N1556 H1562 0.984 . S
N1556 H1563 0.984 . S
N1557 C1550 1.356 . S
N1557 H1560 0.984 . S
N1557 H1561 0.985 . S
H1558 N1553 0.984 . S
H1559 N1553 0.985 . S
H1560 N1557 0.984 . S
H1561 N1557 0.985 . S
H1562 N1556 0.984 . S
H1563 N1556 0.984 . S
H1564 N1552 0.984 . S
H1565 N1552 0.985 . S
C1566 C1567 1.363 . S
C1566 C1572 1.379 . S
C1566 N1574 1.356 . S
C1567 C1566 1.363 . S
C1567 C1573 1.363 . S
C1568 C1569 1.363 . S
C1568 C1573 1.379 . S
C1568 N1575 1.356 . S
C1569 C1568 1.363 . S
C1569 C1572 1.363 . S
N1570 C1572 1.356 . S
N1570 H1582 0.984 . S
N1570 H1583 0.985 . S
N1571 C1573 1.356 . S
N1571 H1576 0.984 . S
N1571 H1577 0.985 . S
C1572 C1566 1.379 . S
C1572 C1569 1.363 . S
C1572 N1570 1.356 . S
C1573 C1567 1.363 . S
C1573 C1568 1.379 . S
C1573 N1571 1.356 . S
N1574 C1566 1.356 . S
N1574 H1580 0.984 . S
N1574 H1581 0.984 . S
N1575 C1568 1.356 . S
N1575 H1578 0.984 . S
N1575 H1579 0.985 . S
H1576 N1571 0.984 . S
H1577 N1571 0.985 . S
H1578 N1575 0.984 . S
H1579 N1575 0.985 . S
H1580 N1574 0.984 . S
H1581 N1574 0.984 . S
H1582 N1570 0.984 . S
H1583 N1570 0.985 . S
C1584 C1585 1.363 . S
C1584 C1590 1.379 . S
C1584 N1592 1.356 . S
C1585 C1584 1.363 . S
C1585 C1591 1.363 . S
C1586 C1587 1.363 . S
C1586 C1591 1.379 . S
C1586 N1593 1.356 . S
C1587 C1586 1.363 . S
C1587 C1590 1.363 . S
N1588 C1590 1.356 . S
N1588 H1600 0.984 . S
N1588 H1601 0.985 . S
N1589 C1591 1.356 . S
N1589 H1594 0.984 . S
N1589 H1595 0.985 . S
C1590 C1584 1.379 . S
C1590 C1587 1.363 . S
C1590 N1588 1.356 . S
C1591 C1585 1.363 . S
C1591 C1586 1.379 . S
C1591 N1589 1.356 . S
N1592 C1584 1.356 . S
N1592 H1598 0.984 . S
N1592 H1599 0.984 . S
N1593 C1586 1.356 . S
N1593 H1596 0.984 . S
N1593 H1597 0.985 . S
H1594 N1589 0.984 . S
H1595 N1589 0.985 . S
H1596 N1593 0.984 . S
H1597 N1593 0.985 . S
H1598 N1592 0.984 . S
H1599 N1592 0.984 . S
H1600 N1588 0.984 . S
H1601 N1588 0.985 . S
C1602 C1603 1.363 . S
C1602 C1608 1.379 . S
C1602 N1610 1.356 . S
C1603 C1602 1.363 . S
C1603 C1609 1.363 . S
C1604 C1605 1.363 . S
C1604 C1609 1.379 . S
C1604 N1611 1.356 . S
C1605 C1604 1.363 . S
C1605 C1608 1.363 . S
N1606 C1608 1.356 . S
N1606 H1618 0.984 . S
N1606 H1619 0.985 . S
N1607 C1609 1.356 . S
N1607 H1612 0.984 . S
N1607 H1613 0.985 . S
C1608 C1602 1.379 . S
C1608 C1605 1.363 . S
C1608 N1606 1.356 . S
C1609 C1603 1.363 . S
C1609 C1604 1.379 . S
C1609 N1607 1.356 . S
N1610 C1602 1.356 . S
N1610 H1616 0.984 . S
N1610 H1617 0.984 . S
N1611 C1604 1.356 . S
N1611 H1614 0.984 . S
N1611 H1615 0.985 . S
H1612 N1607 0.984 . S
H1613 N1607 0.985 . S
H1614 N1611 0.984 . S
H1615 N1611 0.985 . S
H1616 N1610 0.984 . S
H1617 N1610 0.984 . S
H1618 N1606 0.984 . S
H1619 N1606 0.985 . S
C1620 C1621 1.363 . S
C1620 C1626 1.379 . S
C1620 N1628 1.356 . S
C1621 C1620 1.363 . S
C1621 C1627 1.363 . S
C1622 C1623 1.363 . S
C1622 C1627 1.379 . S
C1622 N1629 1.356 . S
C1623 C1622 1.363 . S
C1623 C1626 1.363 . S
N1624 C1626 1.356 . S
N1624 H1636 0.984 . S
N1624 H1637 0.985 . S
N1625 C1627 1.356 . S
N1625 H1630 0.984 . S
N1625 H1631 0.985 . S
C1626 C1620 1.379 . S
C1626 C1623 1.363 . S
C1626 N1624 1.356 . S
C1627 C1621 1.363 . S
C1627 C1622 1.379 . S
C1627 N1625 1.356 . S
N1628 C1620 1.356 . S
N1628 H1634 0.984 . S
N1628 H1635 0.984 . S
N1629 C1622 1.356 . S
N1629 H1632 0.984 . S
N1629 H1633 0.985 . S
H1630 N1625 0.984 . S
H1631 N1625 0.985 . S
H1632 N1629 0.984 . S
H1633 N1629 0.985 . S
H1634 N1628 0.984 . S
H1635 N1628 0.984 . S
H1636 N1624 0.984 . S
H1637 N1624 0.985 . S
C1638 C1639 1.363 . S
C1638 C1644 1.379 . S
C1638 N1646 1.356 . S
C1639 C1638 1.363 . S
C1639 C1645 1.363 . S
C1640 C1641 1.363 . S
C1640 C1645 1.379 . S
C1640 N1647 1.356 . S
C1641 C1640 1.363 . S
C1641 C1644 1.363 . S
N1642 C1644 1.356 . S
N1642 H1654 0.984 . S
N1642 H1655 0.985 . S
N1643 C1645 1.356 . S
N1643 H1648 0.984 . S
N1643 H1649 0.985 . S
C1644 C1638 1.379 . S
C1644 C1641 1.363 . S
C1644 N1642 1.356 . S
C1645 C1639 1.363 . S
C1645 C1640 1.379 . S
C1645 N1643 1.356 . S
N1646 C1638 1.356 . S
N1646 H1652 0.984 . S
N1646 H1653 0.984 . S
N1647 C1640 1.356 . S
N1647 H1650 0.984 . S
N1647 H1651 0.985 . S
H1648 N1643 0.984 . S
H1649 N1643 0.985 . S
H1650 N1647 0.984 . S
H1651 N1647 0.985 . S
H1652 N1646 0.984 . S
H1653 N1646 0.984 . S
H1654 N1642 0.984 . S
H1655 N1642 0.985 . S
C1656 C1657 1.363 . S
C1656 C1662 1.379 . S
C1656 N1664 1.356 . S
C1657 C1656 1.363 . S
C1657 C1663 1.363 . S
C1658 C1659 1.363 . S
C1658 C1663 1.379 . S
C1658 N1665 1.356 . S
C1659 C1658 1.363 . S
C1659 C1662 1.363 . S
N1660 C1662 1.356 . S
N1660 H1672 0.984 . S
N1660 H1673 0.985 . S
N1661 C1663 1.356 . S
N1661 H1666 0.984 . S
N1661 H1667 0.985 . S
C1662 C1656 1.379 . S
C1662 C1659 1.363 . S
C1662 N1660 1.356 . S
C1663 C1657 1.363 . S
C1663 C1658 1.379 . S
C1663 N1661 1.356 . S
N1664 C1656 1.356 . S
N1664 H1670 0.984 . S
N1664 H1671 0.984 . S
N1665 C1658 1.356 . S
N1665 H1668 0.984 . S
N1665 H1669 0.985 . S
H1666 N1661 0.984 . S
H1667 N1661 0.985 . S
H1668 N1665 0.984 . S
H1669 N1665 0.985 . S
H1670 N1664 0.984 . S
H1671 N1664 0.984 . S
H1672 N1660 0.984 . S
H1673 N1660 0.985 . S
C1674 C1675 1.363 . S
C1674 C1680 1.379 . S
C1674 N1682 1.356 . S
C1675 C1674 1.363 . S
C1675 C1681 1.363 . S
C1676 C1677 1.363 . S
C1676 C1681 1.379 . S
C1676 N1683 1.356 . S
C1677 C1676 1.363 . S
C1677 C1680 1.363 . S
N1678 C1680 1.356 . S
N1678 H1690 0.984 . S
N1678 H1691 0.985 . S
N1679 C1681 1.356 . S
N1679 H1684 0.984 . S
N1679 H1685 0.985 . S
C1680 C1674 1.379 . S
C1680 C1677 1.363 . S
C1680 N1678 1.356 . S
C1681 C1675 1.363 . S
C1681 C1676 1.379 . S
C1681 N1679 1.356 . S
N1682 C1674 1.356 . S
N1682 H1688 0.984 . S
N1682 H1689 0.984 . S
N1683 C1676 1.356 . S
N1683 H1686 0.984 . S
N1683 H1687 0.985 . S
H1684 N1679 0.984 . S
H1685 N1679 0.985 . S
H1686 N1683 0.984 . S
H1687 N1683 0.985 . S
H1688 N1682 0.984 . S
H1689 N1682 0.984 . S
H1690 N1678 0.984 . S
H1691 N1678 0.985 . S
C1692 C1693 1.363 . S
C1692 C1698 1.379 . S
C1692 N1700 1.356 . S
C1693 C1692 1.363 . S
C1693 C1699 1.363 . S
C1694 C1695 1.363 . S
C1694 C1699 1.379 . S
C1694 N1701 1.356 . S
C1695 C1694 1.363 . S
C1695 C1698 1.363 . S
N1696 C1698 1.356 . S
N1696 H1708 0.984 . S
N1696 H1709 0.985 . S
N1697 C1699 1.356 . S
N1697 H1702 0.984 . S
N1697 H1703 0.985 . S
C1698 C1692 1.379 . S
C1698 C1695 1.363 . S
C1698 N1696 1.356 . S
C1699 C1693 1.363 . S
C1699 C1694 1.379 . S
C1699 N1697 1.356 . S
N1700 C1692 1.356 . S
N1700 H1706 0.984 . S
N1700 H1707 0.984 . S
N1701 C1694 1.356 . S
N1701 H1704 0.984 . S
N1701 H1705 0.985 . S
H1702 N1697 0.984 . S
H1703 N1697 0.985 . S
H1704 N1701 0.984 . S
H1705 N1701 0.985 . S
H1706 N1700 0.984 . S
H1707 N1700 0.984 . S
H1708 N1696 0.984 . S
H1709 N1696 0.985 . S
C1710 C1711 1.363 . S
C1710 C1716 1.379 . S
C1710 N1718 1.356 . S
C1711 C1710 1.363 . S
C1711 C1717 1.363 . S
C1712 C1713 1.363 . S
C1712 C1717 1.379 . S
C1712 N1719 1.356 . S
C1713 C1712 1.363 . S
C1713 C1716 1.363 . S
N1714 C1716 1.356 . S
N1714 H1726 0.984 . S
N1714 H1727 0.985 . S
N1715 C1717 1.356 . S
N1715 H1720 0.984 . S
N1715 H1721 0.985 . S
C1716 C1710 1.379 . S
C1716 C1713 1.363 . S
C1716 N1714 1.356 . S
C1717 C1711 1.363 . S
C1717 C1712 1.379 . S
C1717 N1715 1.356 . S
N1718 C1710 1.356 . S
N1718 H1724 0.984 . S
N1718 H1725 0.984 . S
N1719 C1712 1.356 . S
N1719 H1722 0.984 . S
N1719 H1723 0.985 . S
H1720 N1715 0.984 . S
H1721 N1715 0.985 . S
H1722 N1719 0.984 . S
H1723 N1719 0.985 . S
H1724 N1718 0.984 . S
H1725 N1718 0.984 . S
H1726 N1714 0.984 . S
H1727 N1714 0.985 . S
C1728 C1729 1.363 . S
C1728 C1734 1.379 . S
C1728 N1736 1.356 . S
C1729 C1728 1.363 . S
C1729 C1735 1.363 . S
C1730 C1731 1.363 . S
C1730 C1735 1.379 . S
C1730 N1737 1.356 . S
C1731 C1730 1.363 . S
C1731 C1734 1.363 . S
N1732 C1734 1.356 . S
N1732 H1744 0.984 . S
N1732 H1745 0.985 . S
N1733 C1735 1.356 . S
N1733 H1738 0.984 . S
N1733 H1739 0.985 . S
C1734 C1728 1.379 . S
C1734 C1731 1.363 . S
C1734 N1732 1.356 . S
C1735 C1729 1.363 . S
C1735 C1730 1.379 . S
C1735 N1733 1.356 . S
N1736 C1728 1.356 . S
N1736 H1742 0.984 . S
N1736 H1743 0.984 . S
N1737 C1730 1.356 . S
N1737 H1740 0.984 . S
N1737 H1741 0.985 . S
H1738 N1733 0.984 . S
H1739 N1733 0.985 . S
H1740 N1737 0.984 . S
H1741 N1737 0.985 . S
H1742 N1736 0.984 . S
H1743 N1736 0.984 . S
H1744 N1732 0.984 . S
H1745 N1732 0.985 . S
C1746 C1747 1.363 . S
C1746 C1752 1.379 . S
C1746 N1754 1.356 . S
C1747 C1746 1.363 . S
C1747 C1753 1.363 . S
C1748 C1749 1.363 . S
C1748 C1753 1.379 . S
C1748 N1755 1.356 . S
C1749 C1748 1.363 . S
C1749 C1752 1.363 . S
N1750 C1752 1.356 . S
N1750 H1762 0.984 . S
N1750 H1763 0.985 . S
N1751 C1753 1.356 . S
N1751 H1756 0.984 . S
N1751 H1757 0.985 . S
C1752 C1746 1.379 . S
C1752 C1749 1.363 . S
C1752 N1750 1.356 . S
C1753 C1747 1.363 . S
C1753 C1748 1.379 . S
C1753 N1751 1.356 . S
N1754 C1746 1.356 . S
N1754 H1760 0.984 . S
N1754 H1761 0.984 . S
N1755 C1748 1.356 . S
N1755 H1758 0.984 . S
N1755 H1759 0.985 . S
H1756 N1751 0.984 . S
H1757 N1751 0.985 . S
H1758 N1755 0.984 . S
H1759 N1755 0.985 . S
H1760 N1754 0.984 . S
H1761 N1754 0.984 . S
H1762 N1750 0.984 . S
H1763 N1750 0.985 . S
C1764 C1765 1.363 . S
C1764 C1770 1.379 . S
C1764 N1772 1.356 . S
C1765 C1764 1.363 . S
C1765 C1771 1.363 . S
C1766 C1767 1.363 . S
C1766 C1771 1.379 . S
C1766 N1773 1.356 . S
C1767 C1766 1.363 . S
C1767 C1770 1.363 . S
N1768 C1770 1.356 . S
N1768 H1780 0.984 . S
N1768 H1781 0.985 . S
N1769 C1771 1.356 . S
N1769 H1774 0.984 . S
N1769 H1775 0.985 . S
C1770 C1764 1.379 . S
C1770 C1767 1.363 . S
C1770 N1768 1.356 . S
C1771 C1765 1.363 . S
C1771 C1766 1.379 . S
C1771 N1769 1.356 . S
N1772 C1764 1.356 . S
N1772 H1778 0.984 . S
N1772 H1779 0.984 . S
N1773 C1766 1.356 . S
N1773 H1776 0.984 . S
N1773 H1777 0.985 . S
H1774 N1769 0.984 . S
H1775 N1769 0.985 . S
H1776 N1773 0.984 . S
H1777 N1773 0.985 . S
H1778 N1772 0.984 . S
H1779 N1772 0.984 . S
H1780 N1768 0.984 . S
H1781 N1768 0.985 . S
C1782 C1783 1.363 . S
C1782 C1788 1.379 . S
C1782 N1790 1.356 . S
C1783 C1782 1.363 . S
C1783 C1789 1.363 . S
C1784 C1785 1.363 . S
C1784 C1789 1.379 . S
C1784 N1791 1.356 . S
C1785 C1784 1.363 . S
C1785 C1788 1.363 . S
N1786 C1788 1.356 . S
N1786 H1798 0.984 . S
N1786 H1799 0.985 . S
N1787 C1789 1.356 . S
N1787 H1792 0.984 . S
N1787 H1793 0.985 . S
C1788 C1782 1.379 . S
C1788 C1785 1.363 . S
C1788 N1786 1.356 . S
C1789 C1783 1.363 . S
C1789 C1784 1.379 . S
C1789 N1787 1.356 . S
N1790 C1782 1.356 . S
N1790 H1796 0.984 . S
N1790 H1797 0.984 . S
N1791 C1784 1.356 . S
N1791 H1794 0.984 . S
N1791 H1795 0.985 . S
H1792 N1787 0.984 . S
H1793 N1787 0.985 . S
H1794 N1791 0.984 . S
H1795 N1791 0.985 . S
H1796 N1790 0.984 . S
H1797 N1790 0.984 . S
H1798 N1786 0.984 . S
H1799 N1786 0.985 . S
C1800 C1801 1.363 . S
C1800 C1806 1.379 . S
C1800 N1808 1.356 . S
C1801 C1800 1.363 . S
C1801 C1807 1.363 . S
C1802 C1803 1.363 . S
C1802 C1807 1.379 . S
C1802 N1809 1.356 . S
C1803 C1802 1.363 . S
C1803 C1806 1.363 . S
N1804 C1806 1.356 . S
N1804 H1816 0.984 . S
N1804 H1817 0.985 . S
N1805 C1807 1.356 . S
N1805 H1810 0.984 . S
N1805 H1811 0.985 . S
C1806 C1800 1.379 . S
C1806 C1803 1.363 . S
C1806 N1804 1.356 . S
C1807 C1801 1.363 . S
C1807 C1802 1.379 . S
C1807 N1805 1.356 . S
N1808 C1800 1.356 . S
N1808 H1814 0.984 . S
N1808 H1815 0.984 . S
N1809 C1802 1.356 . S
N1809 H1812 0.984 . S
N1809 H1813 0.985 . S
H1810 N1805 0.984 . S
H1811 N1805 0.985 . S
H1812 N1809 0.984 . S
H1813 N1809 0.985 . S
H1814 N1808 0.984 . S
H1815 N1808 0.984 . S
H1816 N1804 0.984 . S
H1817 N1804 0.985 . S
C1818 C1819 1.363 . S
C1818 C1824 1.379 . S
C1818 N1826 1.356 . S
C1819 C1818 1.363 . S
C1819 C1825 1.363 . S
C1820 C1821 1.363 . S
C1820 C1825 1.379 . S
C1820 N1827 1.356 . S
C1821 C1820 1.363 . S
C1821 C1824 1.363 . S
N1822 C1824 1.356 . S
N1822 H1834 0.984 . S
N1822 H1835 0.985 . S
N1823 C1825 1.356 . S
N1823 H1828 0.984 . S
N1823 H1829 0.985 . S
C1824 C1818 1.379 . S
C1824 C1821 1.363 . S
C1824 N1822 1.356 . S
C1825 C1819 1.363 . S
C1825 C1820 1.379 . S
C1825 N1823 1.356 . S
N1826 C1818 1.356 . S
N1826 H1832 0.984 . S
N1826 H1833 0.984 . S
N1827 C1820 1.356 . S
N1827 H1830 0.984 . S
N1827 H1831 0.985 . S
H1828 N1823 0.984 . S
H1829 N1823 0.985 . S
H1830 N1827 0.984 . S
H1831 N1827 0.985 . S
H1832 N1826 0.984 . S
H1833 N1826 0.984 . S
H1834 N1822 0.984 . S
H1835 N1822 0.985 . S
C1836 C1837 1.363 . S
C1836 C1842 1.379 . S
C1836 N1844 1.356 . S
C1837 C1836 1.363 . S
C1837 C1843 1.363 . S
C1838 C1839 1.363 . S
C1838 C1843 1.379 . S
C1838 N1845 1.356 . S
C1839 C1838 1.363 . S
C1839 C1842 1.363 . S
N1840 C1842 1.356 . S
N1840 H1852 0.984 . S
N1840 H1853 0.985 . S
N1841 C1843 1.356 . S
N1841 H1846 0.984 . S
N1841 H1847 0.985 . S
C1842 C1836 1.379 . S
C1842 C1839 1.363 . S
C1842 N1840 1.356 . S
C1843 C1837 1.363 . S
C1843 C1838 1.379 . S
C1843 N1841 1.356 . S
N1844 C1836 1.356 . S
N1844 H1850 0.984 . S
N1844 H1851 0.984 . S
N1845 C1838 1.356 . S
N1845 H1848 0.984 . S
N1845 H1849 0.985 . S
H1846 N1841 0.984 . S
H1847 N1841 0.985 . S
H1848 N1845 0.984 . S
H1849 N1845 0.985 . S
H1850 N1844 0.984 . S
H1851 N1844 0.984 . S
H1852 N1840 0.984 . S
H1853 N1840 0.985 . S
C1854 C1855 1.363 . S
C1854 C1860 1.379 . S
C1854 N1862 1.356 . S
C1855 C1854 1.363 . S
C1855 C1861 1.363 . S
C1856 C1857 1.363 . S
C1856 C1861 1.379 . S
C1856 N1863 1.356 . S
C1857 C1856 1.363 . S
C1857 C1860 1.363 . S
N1858 C1860 1.356 . S
N1858 H1870 0.984 . S
N1858 H1871 0.985 . S
N1859 C1861 1.356 . S
N1859 H1864 0.984 . S
N1859 H1865 0.985 . S
C1860 C1854 1.379 . S
C1860 C1857 1.363 . S
C1860 N1858 1.356 . S
C1861 C1855 1.363 . S
C1861 C1856 1.379 . S
C1861 N1859 1.356 . S
N1862 C1854 1.356 . S
N1862 H1868 0.984 . S
N1862 H1869 0.984 . S
N1863 C1856 1.356 . S
N1863 H1866 0.984 . S
N1863 H1867 0.985 . S
H1864 N1859 0.984 . S
H1865 N1859 0.985 . S
H1866 N1863 0.984 . S
H1867 N1863 0.985 . S
H1868 N1862 0.984 . S
H1869 N1862 0.984 . S
H1870 N1858 0.984 . S
H1871 N1858 0.985 . S
C1872 C1873 1.363 . S
C1872 C1878 1.379 . S
C1872 N1880 1.356 . S
C1873 C1872 1.363 . S
C1873 C1879 1.363 . S
C1874 C1875 1.363 . S
C1874 C1879 1.379 . S
C1874 N1881 1.356 . S
C1875 C1874 1.363 . S
C1875 C1878 1.363 . S
N1876 C1878 1.356 . S
N1876 H1888 0.984 . S
N1876 H1889 0.985 . S
N1877 C1879 1.356 . S
N1877 H1882 0.984 . S
N1877 H1883 0.985 . S
C1878 C1872 1.379 . S
C1878 C1875 1.363 . S
C1878 N1876 1.356 . S
C1879 C1873 1.363 . S
C1879 C1874 1.379 . S
C1879 N1877 1.356 . S
N1880 C1872 1.356 . S
N1880 H1886 0.984 . S
N1880 H1887 0.984 . S
N1881 C1874 1.356 . S
N1881 H1884 0.984 . S
N1881 H1885 0.985 . S
H1882 N1877 0.984 . S
H1883 N1877 0.985 . S
H1884 N1881 0.984 . S
H1885 N1881 0.985 . S
H1886 N1880 0.984 . S
H1887 N1880 0.984 . S
H1888 N1876 0.984 . S
H1889 N1876 0.985 . S
C1890 C1891 1.363 . S
C1890 C1896 1.379 . S
C1890 N1898 1.356 . S
C1891 C1890 1.363 . S
C1891 C1897 1.363 . S
C1892 C1893 1.363 . S
C1892 C1897 1.379 . S
C1892 N1899 1.356 . S
C1893 C1892 1.363 . S
C1893 C1896 1.363 . S
N1894 C1896 1.356 . S
N1894 H1906 0.984 . S
N1894 H1907 0.985 . S
N1895 C1897 1.356 . S
N1895 H1900 0.984 . S
N1895 H1901 0.985 . S
C1896 C1890 1.379 . S
C1896 C1893 1.363 . S
C1896 N1894 1.356 . S
C1897 C1891 1.363 . S
C1897 C1892 1.379 . S
C1897 N1895 1.356 . S
N1898 C1890 1.356 . S
N1898 H1904 0.984 . S
N1898 H1905 0.984 . S
N1899 C1892 1.356 . S
N1899 H1902 0.984 . S
N1899 H1903 0.985 . S
H1900 N1895 0.984 . S
H1901 N1895 0.985 . S
H1902 N1899 0.984 . S
H1903 N1899 0.985 . S
H1904 N1898 0.984 . S
H1905 N1898 0.984 . S
H1906 N1894 0.984 . S
H1907 N1894 0.985 . S
C1908 C1909 1.363 . S
C1908 C1914 1.379 . S
C1908 N1916 1.356 . S
C1909 C1908 1.363 . S
C1909 C1915 1.363 . S
C1910 C1911 1.363 . S
C1910 C1915 1.379 . S
C1910 N1917 1.356 . S
C1911 C1910 1.363 . S
C1911 C1914 1.363 . S
N1912 C1914 1.356 . S
N1912 H1924 0.984 . S
N1912 H1925 0.985 . S
N1913 C1915 1.356 . S
N1913 H1918 0.984 . S
N1913 H1919 0.985 . S
C1914 C1908 1.379 . S
C1914 C1911 1.363 . S
C1914 N1912 1.356 . S
C1915 C1909 1.363 . S
C1915 C1910 1.379 . S
C1915 N1913 1.356 . S
N1916 C1908 1.356 . S
N1916 H1922 0.984 . S
N1916 H1923 0.984 . S
N1917 C1910 1.356 . S
N1917 H1920 0.984 . S
N1917 H1921 0.985 . S
H1918 N1913 0.984 . S
H1919 N1913 0.985 . S
H1920 N1917 0.984 . S
H1921 N1917 0.985 . S
H1922 N1916 0.984 . S
H1923 N1916 0.984 . S
H1924 N1912 0.984 . S
H1925 N1912 0.985 . S
C1926 C1927 1.363 . S
C1926 C1932 1.379 . S
C1926 N1934 1.356 . S
C1927 C1926 1.363 . S
C1927 C1933 1.363 . S
C1928 C1929 1.363 . S
C1928 C1933 1.379 . S
C1928 N1935 1.356 . S
C1929 C1928 1.363 . S
C1929 C1932 1.363 . S
N1930 C1932 1.356 . S
N1930 H1942 0.984 . S
N1930 H1943 0.985 . S
N1931 C1933 1.356 . S
N1931 H1936 0.984 . S
N1931 H1937 0.985 . S
C1932 C1926 1.379 . S
C1932 C1929 1.363 . S
C1932 N1930 1.356 . S
C1933 C1927 1.363 . S
C1933 C1928 1.379 . S
C1933 N1931 1.356 . S
N1934 C1926 1.356 . S
N1934 H1940 0.984 . S
N1934 H1941 0.984 . S
N1935 C1928 1.356 . S
N1935 H1938 0.984 . S
N1935 H1939 0.985 . S
H1936 N1931 0.984 . S
H1937 N1931 0.985 . S
H1938 N1935 0.984 . S
H1939 N1935 0.985 . S
H1940 N1934 0.984 . S
H1941 N1934 0.984 . S
H1942 N1930 0.984 . S
H1943 N1930 0.985 . S
C1944 C1945 1.363 . S
C1944 C1950 1.379 . S
C1944 N1952 1.356 . S
C1945 C1944 1.363 . S
C1945 C1951 1.363 . S
C1946 C1947 1.363 . S
C1946 C1951 1.379 . S
C1946 N1953 1.356 . S
C1947 C1946 1.363 . S
C1947 C1950 1.363 . S
N1948 C1950 1.356 . S
N1948 H1960 0.984 . S
N1948 H1961 0.985 . S
N1949 C1951 1.356 . S
N1949 H1954 0.984 . S
N1949 H1955 0.985 . S
C1950 C1944 1.379 . S
C1950 C1947 1.363 . S
C1950 N1948 1.356 . S
C1951 C1945 1.363 . S
C1951 C1946 1.379 . S
C1951 N1949 1.356 . S
N1952 C1944 1.356 . S
N1952 H1958 0.984 . S
N1952 H1959 0.984 . S
N1953 C1946 1.356 . S
N1953 H1956 0.984 . S
N1953 H1957 0.985 . S
H1954 N1949 0.984 . S
H1955 N1949 0.985 . S
H1956 N1953 0.984 . S
H1957 N1953 0.985 . S
H1958 N1952 0.984 . S
H1959 N1952 0.984 . S
H1960 N1948 0.984 . S
H1961 N1948 0.985 . S
C1962 C1963 1.363 . S
C1962 C1968 1.379 . S
C1962 N1970 1.356 . S
C1963 C1962 1.363 . S
C1963 C1969 1.363 . S
C1964 C1965 1.363 . S
C1964 C1969 1.379 . S
C1964 N1971 1.356 . S
C1965 C1964 1.363 . S
C1965 C1968 1.363 . S
N1966 C1968 1.356 . S
N1966 H1978 0.984 . S
N1966 H1979 0.985 . S
N1967 C1969 1.356 . S
N1967 H1972 0.984 . S
N1967 H1973 0.985 . S
C1968 C1962 1.379 . S
C1968 C1965 1.363 . S
C1968 N1966 1.356 . S
C1969 C1963 1.363 . S
C1969 C1964 1.379 . S
C1969 N1967 1.356 . S
N1970 C1962 1.356 . S
N1970 H1976 0.984 . S
N1970 H1977 0.984 . S
N1971 C1964 1.356 . S
N1971 H1974 0.984 . S
N1971 H1975 0.985 . S
H1972 N1967 0.984 . S
H1973 N1967 0.985 . S
H1974 N1971 0.984 . S
H1975 N1971 0.985 . S
H1976 N1970 0.984 . S
H1977 N1970 0.984 . S
H1978 N1966 0.984 . S
H1979 N1966 0.985 . S
C1980 C1981 1.363 . S
C1980 C1986 1.379 . S
C1980 N1988 1.356 . S
C1981 C1980 1.363 . S
C1981 C1987 1.363 . S
C1982 C1983 1.363 . S
C1982 C1987 1.379 . S
C1982 N1989 1.356 . S
C1983 C1982 1.363 . S
C1983 C1986 1.363 . S
N1984 C1986 1.356 . S
N1984 H1996 0.984 . S
N1984 H1997 0.985 . S
N1985 C1987 1.356 . S
N1985 H1990 0.984 . S
N1985 H1991 0.985 . S
C1986 C1980 1.379 . S
C1986 C1983 1.363 . S
C1986 N1984 1.356 . S
C1987 C1981 1.363 . S
C1987 C1982 1.379 . S
C1987 N1985 1.356 . S
N1988 C1980 1.356 . S
N1988 H1994 0.984 . S
N1988 H1995 0.984 . S
N1989 C1982 1.356 . S
N1989 H1992 0.984 . S
N1989 H1993 0.985 . S
H1990 N1985 0.984 . S
H1991 N1985 0.985 . S
H1992 N1989 0.984 . S
H1993 N1989 0.985 . S
H1994 N1988 0.984 . S
H1995 N1988 0.984 . S
H1996 N1984 0.984 . S
H1997 N1984 0.985 . S
C1998 C1999 1.363 . S
C1998 C2004 1.379 . S
C1998 N2006 1.356 . S
C1999 C1998 1.363 . S
C1999 C2005 1.363 . S
C2000 C2001 1.363 . S
C2000 C2005 1.379 . S
C2000 N2007 1.356 . S
C2001 C2000 1.363 . S
C2001 C2004 1.363 . S
N2002 C2004 1.356 . S
N2002 H2014 0.984 . S
N2002 H2015 0.985 . S
N2003 C2005 1.356 . S
N2003 H2008 0.984 . S
N2003 H2009 0.985 . S
C2004 C1998 1.379 . S
C2004 C2001 1.363 . S
C2004 N2002 1.356 . S
C2005 C1999 1.363 . S
C2005 C2000 1.379 . S
C2005 N2003 1.356 . S
N2006 C1998 1.356 . S
N2006 H2012 0.984 . S
N2006 H2013 0.984 . S
N2007 C2000 1.356 . S
N2007 H2010 0.984 . S
N2007 H2011 0.985 . S
H2008 N2003 0.984 . S
H2009 N2003 0.985 . S
H2010 N2007 0.984 . S
H2011 N2007 0.985 . S
H2012 N2006 0.984 . S
H2013 N2006 0.984 . S
H2014 N2002 0.984 . S
H2015 N2002 0.985 . S
C2016 C2017 1.363 . S
C2016 C2022 1.379 . S
C2016 N2024 1.356 . S
C2017 C2016 1.363 . S
C2017 C2023 1.363 . S
C2018 C2019 1.363 . S
C2018 C2023 1.379 . S
C2018 N2025 1.356 . S
C2019 C2018 1.363 . S
C2019 C2022 1.363 . S
N2020 C2022 1.356 . S
N2020 H2032 0.984 . S
N2020 H2033 0.985 . S
N2021 C2023 1.356 . S
N2021 H2026 0.984 . S
N2021 H2027 0.985 1_554 S
C2022 C2016 1.379 . S
C2022 C2019 1.363 . S
C2022 N2020 1.356 . S
C2023 C2017 1.363 . S
C2023 C2018 1.379 . S
C2023 N2021 1.356 . S
N2024 C2016 1.356 . S
N2024 H2030 0.984 . S
N2024 H2031 0.984 . S
N2025 C2018 1.356 . S
N2025 H2028 0.984 . S
N2025 H2029 0.985 . S
H2026 N2021 0.984 . S
H2027 N2021 0.985 1_556 S
H2028 N2025 0.984 . S
H2029 N2025 0.985 . S
H2030 N2024 0.984 . S
H2031 N2024 0.984 . S
H2032 N2020 0.984 . S
H2033 N2020 0.985 . S
C2034 C2035 1.363 . S
C2034 C2040 1.379 . S
C2034 N2042 1.356 . S
C2035 C2034 1.363 . S
C2035 C2041 1.363 . S
C2036 C2037 1.363 . S
C2036 C2041 1.379 . S
C2036 N2043 1.356 . S
C2037 C2036 1.363 . S
C2037 C2040 1.363 . S
N2038 C2040 1.356 . S
N2038 H2050 0.984 . S
N2038 H2051 0.985 . S
N2039 C2041 1.356 . S
N2039 H2044 0.984 . S
N2039 H2045 0.985 . S
C2040 C2034 1.379 . S
C2040 C2037 1.363 . S
C2040 N2038 1.356 . S
C2041 C2035 1.363 . S
C2041 C2036 1.379 . S
C2041 N2039 1.356 . S
N2042 C2034 1.356 . S
N2042 H2048 0.984 1_554 S
N2042 H2049 0.984 . S
N2043 C2036 1.356 . S
N2043 H2046 0.984 . S
N2043 H2047 0.985 . S
H2044 N2039 0.984 . S
H2045 N2039 0.985 . S
H2046 N2043 0.984 . S
H2047 N2043 0.985 . S
H2048 N2042 0.984 1_556 S
H2049 N2042 0.984 . S
H2050 N2038 0.984 . S
H2051 N2038 0.985 . S
C2052 C2053 1.363 . S
C2052 C2058 1.379 . S
C2052 N2060 1.356 . S
C2053 C2052 1.363 . S
C2053 C2059 1.363 1_556 S
C2054 C2055 1.363 1_554 S
C2054 C2059 1.379 . S
C2054 N2061 1.356 . S
C2055 C2054 1.363 1_556 S
C2055 C2058 1.363 . S
N2056 C2058 1.356 . S
N2056 H2068 0.984 . S
N2056 H2069 0.985 . S
N2057 C2059 1.356 . S
N2057 H2062 0.984 . S
N2057 H2063 0.985 . S
C2058 C2052 1.379 . S
C2058 C2055 1.363 . S
C2058 N2056 1.356 . S
C2059 C2053 1.363 1_554 S
C2059 C2054 1.379 . S
C2059 N2057 1.356 . S
N2060 C2052 1.356 . S
N2060 H2066 0.984 . S
N2060 H2067 0.984 . S
N2061 C2054 1.356 . S
N2061 H2064 0.984 . S
N2061 H2065 0.985 . S
H2062 N2057 0.984 . S
H2063 N2057 0.985 . S
H2064 N2061 0.984 . S
H2065 N2061 0.985 . S
H2066 N2060 0.984 . S
H2067 N2060 0.984 . S
H2068 N2056 0.984 . S
H2069 N2056 0.985 . S
C2070 C2071 1.363 1_554 S
C2070 C2076 1.379 . S
C2070 N2078 1.356 . S
C2071 C2070 1.363 1_556 S
C2071 C2077 1.363 . S
C2072 C2073 1.363 . S
C2072 C2077 1.379 . S
C2072 N2079 1.356 . S
C2073 C2072 1.363 . S
C2073 C2076 1.363 1_556 S
N2074 C2076 1.356 . S
N2074 H2086 0.984 . S
N2074 H2087 0.985 . S
N2075 C2077 1.356 . S
N2075 H2080 0.984 . S
N2075 H2081 0.985 . S
C2076 C2070 1.379 . S
C2076 C2073 1.363 1_554 S
C2076 N2074 1.356 . S
C2077 C2071 1.363 . S
C2077 C2072 1.379 . S
C2077 N2075 1.356 . S
N2078 C2070 1.356 . S
N2078 H2084 0.984 . S
N2078 H2085 0.984 . S
N2079 C2072 1.356 . S
N2079 H2082 0.984 . S
N2079 H2083 0.985 . S
H2080 N2075 0.984 . S
H2081 N2075 0.985 . S
H2082 N2079 0.984 . S
H2083 N2079 0.985 . S
H2084 N2078 0.984 . S
H2085 N2078 0.984 . S
H2086 N2074 0.984 . S
H2087 N2074 0.985 . S
C2088 C2089 1.363 . S
C2088 C2094 1.379 . S
C2088 N2096 1.356 1_556 S
C2089 C2088 1.363 . S
C2089 C2095 1.363 . S
C2090 C2091 1.363 . S
C2090 C2095 1.379 . S
C2090 N2097 1.356 . S
C2091 C2090 1.363 . S
C2091 C2094 1.363 . S
N2092 C2094 1.356 . S
N2092 H2104 0.974 1_556 S
N2092 H2105 0.985 . S
N2093 C2095 1.356 . S
N2093 H2098 0.984 . S
N2093 H2099 0.985 . S
C2094 C2088 1.379 . S
C2094 C2091 1.363 . S
C2094 N2092 1.356 . S
C2095 C2089 1.363 . S
C2095 C2090 1.379 . S
C2095 N2093 1.356 . S
N2096 C2088 1.356 1_554 S
N2096 H2102 0.984 . S
N2096 H2103 0.984 . S
N2097 C2090 1.356 . S
N2097 H2100 0.984 . S
N2097 H2101 0.985 . S
H2098 N2093 0.984 . S
H2099 N2093 0.985 . S
H2100 N2097 0.984 . S
H2101 N2097 0.985 . S
H2102 N2096 0.984 . S
H2103 N2096 0.984 . S
H2104 N2092 0.974 1_554 S
H2105 N2092 0.985 . S
C2106 C2107 1.363 1_554 S
C2106 C2112 1.379 . S
C2106 N2114 1.356 . S
C2107 C2106 1.363 1_556 S
C2107 C2113 1.363 . S
C2108 C2109 1.363 . S
C2108 C2113 1.379 . S
C2108 N2115 1.356 . S
C2109 C2108 1.363 . S
C2109 C2112 1.363 1_556 S
N2110 C2112 1.356 . S
N2110 H2122 0.984 . S
N2110 H2123 0.985 . S
N2111 C2113 1.356 . S
N2111 H2116 0.984 . S
N2111 H2117 0.985 . S
C2112 C2106 1.379 . S
C2112 C2109 1.363 1_554 S
C2112 N2110 1.356 . S
C2113 C2107 1.363 . S
C2113 C2108 1.379 . S
C2113 N2111 1.356 . S
N2114 C2106 1.356 . S
N2114 H2120 0.984 . S
N2114 H2121 0.984 . S
N2115 C2108 1.356 . S
N2115 H2118 0.984 . S
N2115 H2119 0.985 . S
H2116 N2111 0.984 . S
H2117 N2111 0.985 . S
H2118 N2115 0.984 . S
H2119 N2115 0.985 . S
H2120 N2114 0.984 . S
H2121 N2114 0.984 . S
H2122 N2110 0.984 . S
H2123 N2110 0.985 . S
C2124 C2125 1.363 1_554 S
C2124 C2130 1.379 . S
C2124 N2132 1.356 . S
C2125 C2124 1.363 1_556 S
C2125 C2131 1.363 . S
C2126 C2127 1.363 . S
C2126 C2131 1.379 . S
C2126 N2133 1.356 . S
C2127 C2126 1.363 . S
C2127 C2130 1.363 1_556 S
N2128 C2130 1.356 . S
N2128 H2140 0.984 . S
N2128 H2141 0.985 . S
N2129 C2131 1.356 . S
N2129 H2134 0.984 . S
N2129 H2135 0.985 . S
C2130 C2124 1.379 . S
C2130 C2127 1.363 1_554 S
C2130 N2128 1.356 . S
C2131 C2125 1.363 . S
C2131 C2126 1.379 . S
C2131 N2129 1.356 . S
N2132 C2124 1.356 . S
N2132 H2138 0.984 . S
N2132 H2139 0.984 . S
N2133 C2126 1.356 . S
N2133 H2136 0.984 . S
N2133 H2137 0.985 . S
H2134 N2129 0.984 . S
H2135 N2129 0.985 . S
H2136 N2133 0.984 . S
H2137 N2133 0.985 . S
H2138 N2132 0.984 . S
H2139 N2132 0.984 . S
H2140 N2128 0.984 . S
H2141 N2128 0.985 . S
C2142 C2143 1.363 . S
C2142 C2148 1.379 . S
C2142 N2150 1.356 . S
C2143 C2142 1.363 . S
C2143 C2149 1.363 1_556 S
C2144 C2145 1.363 1_554 S
C2144 C2149 1.379 . S
C2144 N2151 1.356 . S
C2145 C2144 1.363 1_556 S
C2145 C2148 1.363 . S
N2146 C2148 1.356 . S
N2146 H2158 0.984 . S
N2146 H2159 0.985 . S
N2147 C2149 1.356 . S
N2147 H2152 0.984 . S
N2147 H2153 0.985 . S
C2148 C2142 1.379 . S
C2148 C2145 1.363 . S
C2148 N2146 1.356 . S
C2149 C2143 1.363 1_554 S
C2149 C2144 1.379 . S
C2149 N2147 1.356 . S
N2150 C2142 1.356 . S
N2150 H2156 0.984 . S
N2150 H2157 0.984 . S
N2151 C2144 1.356 . S
N2151 H2154 0.984 . S
N2151 H2155 0.985 . S
H2152 N2147 0.984 . S
H2153 N2147 0.985 . S
H2154 N2151 0.984 . S
H2155 N2151 0.985 . S
H2156 N2150 0.984 . S
H2157 N2150 0.984 . S
H2158 N2146 0.984 . S
H2159 N2146 0.985 . S
C2160 C2161 1.363 . S
C2160 C2166 1.379 . S
C2160 N2168 1.360 . S
C2161 C2160 1.363 . S
C2161 C2167 1.363 . S
C2162 C2163 1.363 . S
C2162 C2167 1.379 . S
C2162 N2169 1.356 . S
C2163 C2162 1.363 . S
C2163 C2166 1.363 . S
N2164 C2166 1.356 . S
N2164 H2176 0.959 1_554 S
N2164 H2177 0.985 . S
N2165 C2167 1.356 . S
N2165 H2170 0.984 . S
N2165 H2171 0.985 . S
C2166 C2160 1.379 . S
C2166 C2163 1.363 . S
C2166 N2164 1.356 . S
C2167 C2161 1.363 . S
C2167 C2162 1.379 . S
C2167 N2165 1.356 . S
N2168 C2160 1.360 . S
N2168 H2174 0.981 1_554 S
N2168 H2175 0.985 . S
N2169 C2162 1.356 . S
N2169 H2172 0.984 . S
N2169 H2173 0.985 . S
H2170 N2165 0.984 . S
H2171 N2165 0.985 . S
H2172 N2169 0.984 . S
H2173 N2169 0.985 . S
H2174 N2168 0.981 1_556 S
H2175 N2168 0.985 . S
H2176 N2164 0.959 1_556 S
H2177 N2164 0.985 . S
C2178 C2179 1.363 . S
C2178 C2184 1.379 . S
C2178 N2186 1.356 . S
C2179 C2178 1.363 . S
C2179 C2185 1.363 . S
C2180 C2181 1.363 . S
C2180 C2185 1.379 . S
C2180 N2187 1.356 . S
C2181 C2180 1.363 . S
C2181 C2184 1.363 . S
N2182 C2184 1.356 . S
N2182 H2194 0.984 . S
N2182 H2195 0.985 . S
N2183 C2185 1.356 . S
N2183 H2188 0.984 . S
N2183 H2189 0.985 . S
C2184 C2178 1.379 . S
C2184 C2181 1.363 . S
C2184 N2182 1.356 . S
C2185 C2179 1.363 . S
C2185 C2180 1.379 . S
C2185 N2183 1.356 . S
N2186 C2178 1.356 . S
N2186 H2192 0.984 1_554 S
N2186 H2193 0.984 . S
N2187 C2180 1.356 . S
N2187 H2190 0.984 . S
N2187 H2191 0.985 . S
H2188 N2183 0.984 . S
H2189 N2183 0.985 . S
H2190 N2187 0.984 . S
H2191 N2187 0.985 . S
H2192 N2186 0.984 1_556 S
H2193 N2186 0.984 . S
H2194 N2182 0.984 . S
H2195 N2182 0.985 . S
C2196 C2197 1.363 . S
C2196 C2202 1.379 . S
C2196 N2204 1.356 . S
C2197 C2196 1.363 . S
C2197 C2203 1.363 . S
C2198 C2199 1.363 . S
C2198 C2203 1.379 . S
C2198 N2205 1.356 . S
C2199 C2198 1.363 . S
C2199 C2202 1.363 . S
N2200 C2202 1.356 . S
N2200 H2212 0.984 . S
N2200 H2213 0.985 . S
N2201 C2203 1.356 1_556 S
N2201 H2206 0.984 . S
N2201 H2207 0.985 . S
C2202 C2196 1.379 . S
C2202 C2199 1.363 . S
C2202 N2200 1.356 . S
C2203 C2197 1.363 . S
C2203 C2198 1.379 . S
C2203 N2201 1.356 1_554 S
N2204 C2196 1.356 . S
N2204 H2210 0.984 . S
N2204 H2211 0.984 . S
N2205 C2198 1.356 . S
N2205 H2208 0.984 . S
N2205 H2209 0.985 1_554 S
H2206 N2201 0.984 . S
H2207 N2201 0.985 . S
H2208 N2205 0.984 . S
H2209 N2205 0.985 1_556 S
H2210 N2204 0.984 . S
H2211 N2204 0.984 . S
H2212 N2200 0.984 . S
H2213 N2200 0.985 . S
C2214 C2215 1.363 . S
C2214 C2220 1.379 . S
C2214 N2222 1.356 . S
C2215 C2214 1.363 . S
C2215 C2221 1.363 . S
C2216 C2217 1.363 . S
C2216 C2221 1.379 . S
C2216 N2223 1.356 . S
C2217 C2216 1.363 . S
C2217 C2220 1.363 . S
N2218 C2220 1.356 . S
N2218 H2230 0.984 . S
N2218 H2231 0.985 . S
N2219 C2221 1.356 . S
N2219 H2224 0.984 . S
N2219 H2225 0.985 . S
C2220 C2214 1.379 . S
C2220 C2217 1.363 . S
C2220 N2218 1.356 . S
C2221 C2215 1.363 . S
C2221 C2216 1.379 . S
C2221 N2219 1.356 . S
N2222 C2214 1.356 . S
N2222 H2228 0.984 . S
N2222 H2229 0.984 . S
N2223 C2216 1.356 . S
N2223 H2226 0.984 . S
N2223 H2227 0.985 . S
H2224 N2219 0.984 . S
H2225 N2219 0.985 . S
H2226 N2223 0.984 . S
H2227 N2223 0.985 . S
H2228 N2222 0.984 . S
H2229 N2222 0.984 . S
H2230 N2218 0.984 . S
H2231 N2218 0.985 . S
C2232 C2233 1.363 . S
C2232 C2238 1.379 . S
C2232 N2240 1.356 . S
C2233 C2232 1.363 . S
C2233 C2239 1.363 . S
C2234 C2235 1.363 . S
C2234 C2239 1.379 . S
C2234 N2241 1.356 . S
C2235 C2234 1.363 . S
C2235 C2238 1.363 . S
N2236 C2238 1.356 . S
N2236 H2248 0.984 . S
N2236 H2249 0.985 . S
N2237 C2239 1.356 . S
N2237 H2242 0.984 . S
N2237 H2243 0.985 . S
C2238 C2232 1.379 . S
C2238 C2235 1.363 . S
C2238 N2236 1.356 . S
C2239 C2233 1.363 . S
C2239 C2234 1.379 . S
C2239 N2237 1.356 . S
N2240 C2232 1.356 . S
N2240 H2246 0.984 . S
N2240 H2247 0.984 . S
N2241 C2234 1.356 . S
N2241 H2244 0.984 . S
N2241 H2245 0.985 . S
H2242 N2237 0.984 . S
H2243 N2237 0.985 . S
H2244 N2241 0.984 . S
H2245 N2241 0.985 . S
H2246 N2240 0.984 . S
H2247 N2240 0.984 . S
H2248 N2236 0.984 . S
H2249 N2236 0.985 . S
C2250 C2251 1.363 . S
C2250 C2256 1.379 . S
C2250 N2258 1.356 . S
C2251 C2250 1.363 . S
C2251 C2257 1.363 . S
C2252 C2253 1.363 . S
C2252 C2257 1.379 . S
C2252 N2259 1.356 . S
C2253 C2252 1.363 . S
C2253 C2256 1.363 . S
N2254 C2256 1.356 . S
N2254 H2266 0.984 . S
N2254 H2267 0.985 . S
N2255 C2257 1.356 . S
N2255 H2260 0.984 . S
N2255 H2261 0.985 . S
C2256 C2250 1.379 . S
C2256 C2253 1.363 . S
C2256 N2254 1.356 . S
C2257 C2251 1.363 . S
C2257 C2252 1.379 . S
C2257 N2255 1.356 . S
N2258 C2250 1.356 . S
N2258 H2264 0.984 . S
N2258 H2265 0.984 1_655 S
N2259 C2252 1.356 . S
N2259 H2262 0.984 . S
N2259 H2263 0.985 . S
H2260 N2255 0.984 . S
H2261 N2255 0.985 . S
H2262 N2259 0.984 . S
H2263 N2259 0.985 . S
H2264 N2258 0.984 . S
H2265 N2258 0.984 1_455 S
H2266 N2254 0.984 . S
H2267 N2254 0.985 . S
C2268 C2269 1.363 . S
C2268 C2274 1.379 . S
C2268 N2276 1.356 . S
C2269 C2268 1.363 . S
C2269 C2275 1.363 . S
C2270 C2271 1.363 . S
C2270 C2275 1.379 . S
C2270 N2277 1.356 . S
C2271 C2270 1.363 . S
C2271 C2274 1.363 . S
N2272 C2274 1.356 . S
N2272 H2284 0.984 . S
N2272 H2285 0.985 . S
N2273 C2275 1.356 . S
N2273 H2278 0.984 . S
N2273 H2279 0.985 . S
C2274 C2268 1.379 . S
C2274 C2271 1.363 . S
C2274 N2272 1.356 . S
C2275 C2269 1.363 . S
C2275 C2270 1.379 . S
C2275 N2273 1.356 . S
N2276 C2268 1.356 . S
N2276 H2282 0.984 . S
N2276 H2283 0.984 . S
N2277 C2270 1.356 . S
N2277 H2280 0.984 . S
N2277 H2281 0.985 . S
H2278 N2273 0.984 . S
H2279 N2273 0.985 . S
H2280 N2277 0.984 . S
H2281 N2277 0.985 . S
H2282 N2276 0.984 . S
H2283 N2276 0.984 . S
H2284 N2272 0.984 . S
H2285 N2272 0.985 . S
C2286 C2287 1.363 . S
C2286 C2292 1.379 . S
C2286 N2294 1.356 . S
C2287 C2286 1.363 . S
C2287 C2293 1.363 . S
C2288 C2289 1.363 . S
C2288 C2293 1.379 . S
C2288 N2295 1.356 . S
C2289 C2288 1.363 . S
C2289 C2292 1.363 . S
N2290 C2292 1.356 . S
N2290 H2302 0.984 . S
N2290 H2303 0.985 . S
N2291 C2293 1.356 . S
N2291 H2296 0.984 . S
N2291 H2297 0.985 . S
C2292 C2286 1.379 . S
C2292 C2289 1.363 . S
C2292 N2290 1.356 . S
C2293 C2287 1.363 . S
C2293 C2288 1.379 . S
C2293 N2291 1.356 . S
N2294 C2286 1.356 . S
N2294 H2300 0.984 . S
N2294 H2301 0.984 . S
N2295 C2288 1.356 . S
N2295 H2298 0.984 . S
N2295 H2299 0.985 . S
H2296 N2291 0.984 . S
H2297 N2291 0.985 . S
H2298 N2295 0.984 . S
H2299 N2295 0.985 . S
H2300 N2294 0.984 . S
H2301 N2294 0.984 . S
H2302 N2290 0.984 . S
H2303 N2290 0.985 . S
C2304 C2305 1.363 . S
C2304 C2310 1.379 . S
C2304 N2312 1.356 . S
C2305 C2304 1.363 . S
C2305 C2311 1.363 . S
C2306 C2307 1.363 1_545 S
C2306 C2311 1.379 1_545 S
C2306 N2313 1.356 . S
C2307 C2306 1.363 1_565 S
C2307 C2310 1.363 . S
N2308 C2310 1.356 . S
N2308 H2320 0.984 . S
N2308 H2321 0.985 . S
N2309 C2311 1.356 1_545 S
N2309 H2314 0.984 1_545 S
N2309 H2315 0.985 . S
C2310 C2304 1.379 . S
C2310 C2307 1.363 . S
C2310 N2308 1.356 . S
C2311 C2305 1.363 . S
C2311 C2306 1.379 1_565 S
C2311 N2309 1.356 1_565 S
N2312 C2304 1.356 . S
N2312 H2318 0.984 . S
N2312 H2319 0.984 . S
N2313 C2306 1.356 . S
N2313 H2316 0.984 . S
N2313 H2317 0.985 . S
H2314 N2309 0.984 1_565 S
H2315 N2309 0.985 . S
H2316 N2313 0.984 . S
H2317 N2313 0.985 . S
H2318 N2312 0.984 . S
H2319 N2312 0.984 . S
H2320 N2308 0.984 . S
H2321 N2308 0.985 . S
C2322 C2323 1.363 . S
C2322 C2328 1.379 . S
C2322 N2330 1.356 . S
C2323 C2322 1.363 . S
C2323 C2329 1.363 . S
C2324 C2325 1.363 . S
C2324 C2329 1.379 . S
C2324 N2331 1.356 . S
C2325 C2324 1.363 . S
C2325 C2328 1.363 . S
N2326 C2328 1.356 . S
N2326 H2338 0.984 . S
N2326 H2339 0.985 . S
N2327 C2329 1.356 . S
N2327 H2332 0.984 . S
N2327 H2333 0.985 . S
C2328 C2322 1.379 . S
C2328 C2325 1.363 . S
C2328 N2326 1.356 . S
C2329 C2323 1.363 . S
C2329 C2324 1.379 . S
C2329 N2327 1.356 . S
N2330 C2322 1.356 . S
N2330 H2336 0.984 . S
N2330 H2337 0.984 . S
N2331 C2324 1.356 . S
N2331 H2334 0.984 . S
N2331 H2335 0.985 . S
H2332 N2327 0.984 . S
H2333 N2327 0.985 . S
H2334 N2331 0.984 . S
H2335 N2331 0.985 . S
H2336 N2330 0.984 . S
H2337 N2330 0.984 . S
H2338 N2326 0.984 . S
H2339 N2326 0.985 . S
C2340 C2341 1.363 . S
C2340 C2346 1.376 . S
C2340 N2348 1.378 . S
C2341 C2340 1.363 . S
C2341 C2347 1.363 . S
C2342 C2343 1.363 . S
C2342 C2347 1.379 . S
C2342 N2349 1.356 . S
C2343 C2342 1.363 . S
C2343 C2346 1.371 . S
N2344 C2346 1.353 1_655 S
N2344 H2356 0.984 . S
N2344 H2357 0.985 . S
N2345 C2347 1.356 . S
N2345 H2350 0.984 . S
N2345 H2351 0.985 . S
C2346 C2340 1.376 . S
C2346 C2343 1.371 . S
C2346 N2344 1.353 1_455 S
C2347 C2341 1.363 . S
C2347 C2342 1.379 . S
C2347 N2345 1.356 . S
N2348 C2340 1.378 . S
N2348 H2354 0.964 1_455 S
N2348 H2355 0.984 . S
N2349 C2342 1.356 . S
N2349 H2352 0.984 . S
N2349 H2353 0.985 . S
H2350 N2345 0.984 . S
H2351 N2345 0.985 . S
H2352 N2349 0.984 . S
H2353 N2349 0.985 . S
H2354 N2348 0.964 1_655 S
H2355 N2348 0.984 . S
H2356 N2344 0.984 . S
H2357 N2344 0.985 . S
C2358 C2359 1.363 . S
C2358 C2364 1.379 . S
C2358 N2366 1.356 . S
C2359 C2358 1.363 . S
C2359 C2365 1.363 . S
C2360 C2361 1.363 . S
C2360 C2365 1.379 . S
C2360 N2367 1.356 . S
C2361 C2360 1.363 . S
C2361 C2364 1.363 . S
N2362 C2364 1.356 . S
N2362 H2374 0.984 . S
N2362 H2375 0.985 . S
N2363 C2365 1.356 . S
N2363 H2368 0.984 . S
N2363 H2369 0.985 . S
C2364 C2358 1.379 . S
C2364 C2361 1.363 . S
C2364 N2362 1.356 . S
C2365 C2359 1.363 . S
C2365 C2360 1.379 . S
C2365 N2363 1.356 . S
N2366 C2358 1.356 . S
N2366 H2372 0.984 . S
N2366 H2373 0.984 . S
N2367 C2360 1.356 . S
N2367 H2370 0.984 . S
N2367 H2371 0.985 . S
H2368 N2363 0.984 . S
H2369 N2363 0.985 . S
H2370 N2367 0.984 . S
H2371 N2367 0.985 . S
H2372 N2366 0.984 . S
H2373 N2366 0.984 . S
H2374 N2362 0.984 . S
H2375 N2362 0.985 . S
C2376 C2377 1.363 . S
C2376 C2382 1.379 . S
C2376 N2384 1.356 . S
C2377 C2376 1.363 . S
C2377 C2383 1.363 . S
C2378 C2379 1.363 . S
C2378 C2383 1.379 . S
C2378 N2385 1.356 . S
C2379 C2378 1.363 . S
C2379 C2382 1.363 . S
N2380 C2382 1.356 . S
N2380 H2392 0.984 . S
N2380 H2393 0.985 . S
N2381 C2383 1.356 . S
N2381 H2386 0.984 . S
N2381 H2387 0.985 . S
C2382 C2376 1.379 . S
C2382 C2379 1.363 . S
C2382 N2380 1.356 . S
C2383 C2377 1.363 . S
C2383 C2378 1.379 . S
C2383 N2381 1.356 . S
N2384 C2376 1.356 . S
N2384 H2390 0.984 . S
N2384 H2391 0.984 . S
N2385 C2378 1.356 . S
N2385 H2388 0.984 . S
N2385 H2389 0.985 . S
H2386 N2381 0.984 . S
H2387 N2381 0.985 . S
H2388 N2385 0.984 . S
H2389 N2385 0.985 . S
H2390 N2384 0.984 . S
H2391 N2384 0.984 . S
H2392 N2380 0.984 . S
H2393 N2380 0.985 . S
C2394 C2395 1.363 . S
C2394 C2400 1.379 . S
C2394 N2402 1.356 . S
C2395 C2394 1.363 . S
C2395 C2401 1.363 . S
C2396 C2397 1.363 . S
C2396 C2401 1.379 . S
C2396 N2403 1.356 . S
C2397 C2396 1.363 . S
C2397 C2400 1.363 . S
N2398 C2400 1.356 . S
N2398 H2410 0.984 . S
N2398 H2411 0.985 . S
N2399 C2401 1.356 . S
N2399 H2404 0.984 . S
N2399 H2405 0.985 . S
C2400 C2394 1.379 . S
C2400 C2397 1.363 . S
C2400 N2398 1.356 . S
C2401 C2395 1.363 . S
C2401 C2396 1.379 . S
C2401 N2399 1.356 . S
N2402 C2394 1.356 . S
N2402 H2408 0.984 . S
N2402 H2409 0.984 . S
N2403 C2396 1.356 . S
N2403 H2406 0.984 . S
N2403 H2407 0.985 . S
H2404 N2399 0.984 . S
H2405 N2399 0.985 . S
H2406 N2403 0.984 . S
H2407 N2403 0.985 . S
H2408 N2402 0.984 . S
H2409 N2402 0.984 . S
H2410 N2398 0.984 . S
H2411 N2398 0.985 . S
C2412 C2413 1.363 . S
C2412 C2418 1.379 . S
C2412 N2420 1.356 . S
C2413 C2412 1.363 . S
C2413 C2419 1.363 . S
C2414 C2415 1.363 . S
C2414 C2419 1.379 . S
C2414 N2421 1.356 . S
C2415 C2414 1.363 . S
C2415 C2418 1.363 . S
N2416 C2418 1.356 . S
N2416 H2428 0.984 . S
N2416 H2429 0.985 . S
N2417 C2419 1.356 . S
N2417 H2422 0.984 . S
N2417 H2423 0.985 . S
C2418 C2412 1.379 . S
C2418 C2415 1.363 . S
C2418 N2416 1.356 . S
C2419 C2413 1.363 . S
C2419 C2414 1.379 . S
C2419 N2417 1.356 . S
N2420 C2412 1.356 . S
N2420 H2426 0.984 . S
N2420 H2427 0.984 . S
N2421 C2414 1.356 . S
N2421 H2424 0.984 . S
N2421 H2425 0.985 . S
H2422 N2417 0.984 . S
H2423 N2417 0.985 . S
H2424 N2421 0.984 . S
H2425 N2421 0.985 . S
H2426 N2420 0.984 . S
H2427 N2420 0.984 . S
H2428 N2416 0.984 . S
H2429 N2416 0.985 . S
C2430 C2431 1.363 . S
C2430 C2436 1.379 . S
C2430 N2438 1.356 . S
C2431 C2430 1.363 . S
C2431 C2437 1.363 . S
C2432 C2433 1.373 . S
C2432 C2437 1.429 . S
C2432 N2439 1.292 1_545 S
C2433 C2432 1.373 . S
C2433 C2436 1.363 . S
N2434 C2436 1.356 . S
N2434 H2446 0.984 . S
N2434 H2447 0.985 . S
N2435 C2437 1.353 . S
N2435 H2440 1.011 . S
N2435 H2441 0.962 1_545 S
C2436 C2430 1.379 . S
C2436 C2433 1.363 . S
C2436 N2434 1.356 . S
C2437 C2431 1.363 . S
C2437 C2432 1.429 . S
C2437 N2435 1.353 . S
N2438 C2430 1.356 . S
N2438 H2444 0.984 . S
N2438 H2445 0.984 . S
N2439 C2432 1.292 1_565 S
N2439 H2442 0.984 . S
N2439 H2443 0.985 . S
H2440 N2435 1.011 . S
H2441 N2435 0.962 1_565 S
H2442 N2439 0.984 . S
H2443 N2439 0.985 . S
H2444 N2438 0.984 . S
H2445 N2438 0.984 . S
H2446 N2434 0.984 . S
H2447 N2434 0.985 . S
C2448 C2449 1.363 . S
C2448 C2454 1.379 . S
C2448 N2456 1.356 . S
C2449 C2448 1.363 . S
C2449 C2455 1.363 . S
C2450 C2451 1.411 . S
C2450 C2455 1.360 . S
C2450 N2457 1.346 1_655 S
C2451 C2450 1.411 . S
C2451 C2454 1.363 . S
N2452 C2454 1.356 . S
N2452 H2464 0.984 . S
N2452 H2465 0.985 . S
N2453 C2455 1.356 . S
N2453 H2458 0.984 . S
N2453 H2459 0.985 1_655 S
C2454 C2448 1.379 . S
C2454 C2451 1.363 . S
C2454 N2452 1.356 . S
C2455 C2449 1.363 . S
C2455 C2450 1.360 . S
C2455 N2453 1.356 . S
N2456 C2448 1.356 . S
N2456 H2462 0.984 . S
N2456 H2463 0.984 . S
N2457 C2450 1.346 1_455 S
N2457 H2460 0.984 . S
N2457 H2461 0.985 . S
H2458 N2453 0.984 . S
H2459 N2453 0.985 1_455 S
H2460 N2457 0.984 . S
H2461 N2457 0.985 . S
H2462 N2456 0.984 . S
H2463 N2456 0.984 . S
H2464 N2452 0.984 . S
H2465 N2452 0.985 . S
C2466 C2467 1.363 . S
C2466 C2472 1.379 . S
C2466 N2474 1.356 . S
C2467 C2466 1.363 . S
C2467 C2473 1.363 . S
C2468 C2469 1.363 . S
C2468 C2473 1.379 . S
C2468 N2475 1.356 . S
C2469 C2468 1.363 . S
C2469 C2472 1.363 . S
N2470 C2472 1.356 . S
N2470 H2482 0.984 . S
N2470 H2483 0.985 . S
N2471 C2473 1.356 . S
N2471 H2476 0.984 . S
N2471 H2477 0.985 . S
C2472 C2466 1.379 . S
C2472 C2469 1.363 . S
C2472 N2470 1.356 . S
C2473 C2467 1.363 . S
C2473 C2468 1.379 . S
C2473 N2471 1.356 . S
N2474 C2466 1.356 . S
N2474 H2480 0.984 . S
N2474 H2481 0.984 . S
N2475 C2468 1.356 . S
N2475 H2478 0.984 . S
N2475 H2479 0.985 . S
H2476 N2471 0.984 . S
H2477 N2471 0.985 . S
H2478 N2475 0.984 . S
H2479 N2475 0.985 . S
H2480 N2474 0.984 . S
H2481 N2474 0.984 . S
H2482 N2470 0.984 . S
H2483 N2470 0.985 . S
C2484 C2485 1.363 . S
C2484 C2490 1.379 . S
C2484 N2492 1.356 . S
C2485 C2484 1.363 . S
C2485 C2491 1.363 . S
C2486 C2487 1.363 . S
C2486 C2491 1.379 . S
C2486 N2493 1.356 . S
C2487 C2486 1.363 . S
C2487 C2490 1.363 . S
N2488 C2490 1.356 . S
N2488 H2500 0.984 . S
N2488 H2501 0.985 . S
N2489 C2491 1.356 . S
N2489 H2494 0.984 . S
N2489 H2495 0.985 . S
C2490 C2484 1.379 . S
C2490 C2487 1.363 . S
C2490 N2488 1.356 . S
C2491 C2485 1.363 . S
C2491 C2486 1.379 . S
C2491 N2489 1.356 . S
N2492 C2484 1.356 . S
N2492 H2498 0.984 . S
N2492 H2499 0.984 . S
N2493 C2486 1.356 . S
N2493 H2496 0.984 . S
N2493 H2497 0.985 . S
H2494 N2489 0.984 . S
H2495 N2489 0.985 . S
H2496 N2493 0.984 . S
H2497 N2493 0.985 . S
H2498 N2492 0.984 . S
H2499 N2492 0.984 . S
H2500 N2488 0.984 . S
H2501 N2488 0.985 . S
C2502 C2503 1.363 . S
C2502 C2508 1.379 . S
C2502 N2510 1.356 . S
C2503 C2502 1.363 . S
C2503 C2509 1.363 . S
C2504 C2505 1.363 . S
C2504 C2509 1.379 . S
C2504 N2511 1.356 . S
C2505 C2504 1.363 . S
C2505 C2508 1.363 . S
N2506 C2508 1.356 . S
N2506 H2518 0.984 . S
N2506 H2519 0.985 . S
N2507 C2509 1.356 . S
N2507 H2512 0.984 1_565 S
N2507 H2513 0.985 . S
C2508 C2502 1.379 . S
C2508 C2505 1.363 . S
C2508 N2506 1.356 . S
C2509 C2503 1.363 . S
C2509 C2504 1.379 . S
C2509 N2507 1.356 . S
N2510 C2502 1.356 . S
N2510 H2516 0.984 . S
N2510 H2517 0.984 . S
N2511 C2504 1.356 . S
N2511 H2514 0.984 . S
N2511 H2515 0.985 . S
H2512 N2507 0.984 1_545 S
H2513 N2507 0.985 . S
H2514 N2511 0.984 . S
H2515 N2511 0.985 . S
H2516 N2510 0.984 . S
H2517 N2510 0.984 . S
H2518 N2506 0.984 . S
H2519 N2506 0.985 . S
C2520 C2521 1.363 . S
C2520 C2526 1.379 . S
C2520 N2528 1.356 . S
C2521 C2520 1.363 . S
C2521 C2527 1.363 . S
C2522 C2523 1.363 . S
C2522 C2527 1.379 . S
C2522 N2529 1.356 . S
C2523 C2522 1.363 . S
C2523 C2526 1.363 . S
N2524 C2526 1.356 . S
N2524 H2536 0.984 . S
N2524 H2537 0.985 . S
N2525 C2527 1.356 . S
N2525 H2530 0.984 . S
N2525 H2531 0.985 . S
C2526 C2520 1.379 . S
C2526 C2523 1.363 . S
C2526 N2524 1.356 . S
C2527 C2521 1.363 . S
C2527 C2522 1.379 . S
C2527 N2525 1.356 . S
N2528 C2520 1.356 . S
N2528 H2534 0.984 . S
N2528 H2535 0.984 . S
N2529 C2522 1.356 . S
N2529 H2532 0.984 . S
N2529 H2533 0.985 . S
H2530 N2525 0.984 . S
H2531 N2525 0.985 . S
H2532 N2529 0.984 . S
H2533 N2529 0.985 . S
H2534 N2528 0.984 . S
H2535 N2528 0.984 . S
H2536 N2524 0.984 . S
H2537 N2524 0.985 . S
C2538 C2539 1.363 . S
C2538 C2544 1.379 . S
C2538 N2546 1.356 . S
C2539 C2538 1.363 . S
C2539 C2545 1.363 . S
C2540 C2541 1.363 . S
C2540 C2545 1.379 . S
C2540 N2547 1.356 . S
C2541 C2540 1.363 . S
C2541 C2544 1.363 . S
N2542 C2544 1.356 . S
N2542 H2554 0.984 . S
N2542 H2555 0.985 . S
N2543 C2545 1.356 . S
N2543 H2548 0.984 . S
N2543 H2549 0.985 . S
C2544 C2538 1.379 . S
C2544 C2541 1.363 . S
C2544 N2542 1.356 . S
C2545 C2539 1.363 . S
C2545 C2540 1.379 . S
C2545 N2543 1.356 . S
N2546 C2538 1.356 . S
N2546 H2552 0.984 . S
N2546 H2553 0.984 . S
N2547 C2540 1.356 . S
N2547 H2550 0.984 . S
N2547 H2551 0.985 . S
H2548 N2543 0.984 . S
H2549 N2543 0.985 . S
H2550 N2547 0.984 . S
H2551 N2547 0.985 . S
H2552 N2546 0.984 . S
H2553 N2546 0.984 . S
H2554 N2542 0.984 . S
H2555 N2542 0.985 . S
C2556 C2557 1.363 . S
C2556 C2562 1.379 . S
C2556 N2564 1.356 . S
C2557 C2556 1.363 . S
C2557 C2563 1.363 . S
C2558 C2559 1.363 . S
C2558 C2563 1.379 . S
C2558 N2565 1.356 . S
C2559 C2558 1.363 . S
C2559 C2562 1.363 . S
N2560 C2562 1.356 . S
N2560 H2572 0.984 . S
N2560 H2573 0.985 . S
N2561 C2563 1.356 . S
N2561 H2566 0.984 . S
N2561 H2567 0.985 . S
C2562 C2556 1.379 . S
C2562 C2559 1.363 . S
C2562 N2560 1.356 . S
C2563 C2557 1.363 . S
C2563 C2558 1.379 . S
C2563 N2561 1.356 . S
N2564 C2556 1.356 . S
N2564 H2570 0.984 . S
N2564 H2571 0.984 . S
N2565 C2558 1.356 . S
N2565 H2568 0.984 . S
N2565 H2569 0.985 . S
H2566 N2561 0.984 . S
H2567 N2561 0.985 . S
H2568 N2565 0.984 . S
H2569 N2565 0.985 . S
H2570 N2564 0.984 . S
H2571 N2564 0.984 . S
H2572 N2560 0.984 . S
H2573 N2560 0.985 . S
C2574 C2575 1.363 . S
C2574 C2580 1.379 . S
C2574 N2582 1.356 . S
C2575 C2574 1.363 . S
C2575 C2581 1.363 . S
C2576 C2577 1.363 . S
C2576 C2581 1.379 . S
C2576 N2583 1.356 . S
C2577 C2576 1.363 . S
C2577 C2580 1.363 . S
N2578 C2580 1.356 . S
N2578 H2590 0.984 . S
N2578 H2591 0.985 . S
N2579 C2581 1.356 . S
N2579 H2584 0.984 . S
N2579 H2585 0.985 . S
C2580 C2574 1.379 . S
C2580 C2577 1.363 . S
C2580 N2578 1.356 . S
C2581 C2575 1.363 . S
C2581 C2576 1.379 . S
C2581 N2579 1.356 . S
N2582 C2574 1.356 . S
N2582 H2588 0.984 . S
N2582 H2589 0.966 1_455 S
N2583 C2576 1.356 . S
N2583 H2586 0.984 . S
N2583 H2587 0.985 . S
H2584 N2579 0.984 . S
H2585 N2579 0.985 . S
H2586 N2583 0.984 . S
H2587 N2583 0.985 . S
H2588 N2582 0.984 . S
H2589 N2582 0.966 1_655 S
H2590 N2578 0.984 . S
H2591 N2578 0.985 . S
C2592 C2593 1.363 . S
C2592 C2598 1.379 . S
C2592 N2600 1.356 . S
C2593 C2592 1.363 . S
C2593 C2599 1.363 . S
C2594 C2595 1.363 . S
C2594 C2599 1.379 . S
C2594 N2601 1.356 1_655 S
C2595 C2594 1.363 . S
C2595 C2598 1.363 . S
N2596 C2598 1.356 . S
N2596 H2608 0.984 . S
N2596 H2609 0.985 . S
N2597 C2599 1.356 . S
N2597 H2602 0.984 . S
N2597 H2603 0.985 . S
C2598 C2592 1.379 . S
C2598 C2595 1.363 . S
C2598 N2596 1.356 . S
C2599 C2593 1.363 . S
C2599 C2594 1.379 . S
C2599 N2597 1.356 . S
N2600 C2592 1.356 . S
N2600 H2606 0.984 . S
N2600 H2607 0.984 . S
N2601 C2594 1.356 1_455 S
N2601 H2604 0.984 . S
N2601 H2605 0.985 . S
H2602 N2597 0.984 . S
H2603 N2597 0.985 . S
H2604 N2601 0.984 . S
H2605 N2601 0.985 . S
H2606 N2600 0.984 . S
H2607 N2600 0.984 . S
H2608 N2596 0.984 . S
H2609 N2596 0.985 . S
C2610 C2611 1.363 . S
C2610 C2616 1.379 . S
C2610 N2618 1.356 . S
C2611 C2610 1.363 . S
C2611 C2617 1.363 . S
C2612 C2613 1.363 . S
C2612 C2617 1.379 . S
C2612 N2619 1.356 . S
C2613 C2612 1.363 . S
C2613 C2616 1.363 . S
N2614 C2616 1.356 . S
N2614 H2626 0.984 . S
N2614 H2627 0.985 . S
N2615 C2617 1.356 . S
N2615 H2620 0.984 . S
N2615 H2621 0.985 . S
C2616 C2610 1.379 . S
C2616 C2613 1.363 . S
C2616 N2614 1.356 . S
C2617 C2611 1.363 . S
C2617 C2612 1.379 . S
C2617 N2615 1.356 . S
N2618 C2610 1.356 . S
N2618 H2624 0.984 . S
N2618 H2625 0.984 . S
N2619 C2612 1.356 . S
N2619 H2622 0.984 . S
N2619 H2623 0.985 . S
H2620 N2615 0.984 . S
H2621 N2615 0.985 . S
H2622 N2619 0.984 . S
H2623 N2619 0.985 . S
H2624 N2618 0.984 . S
H2625 N2618 0.984 . S
H2626 N2614 0.984 . S
H2627 N2614 0.985 . S
C2628 C2629 1.363 . S
C2628 C2634 1.379 . S
C2628 N2636 1.356 . S
C2629 C2628 1.363 . S
C2629 C2635 1.363 . S
C2630 C2631 1.363 . S
C2630 C2635 1.379 . S
C2630 N2637 1.356 . S
C2631 C2630 1.363 . S
C2631 C2634 1.363 . S
N2632 C2634 1.348 1_565 S
N2632 H2644 1.014 . S
N2632 H2645 0.967 . S
N2633 C2635 1.356 . S
N2633 H2638 0.984 . S
N2633 H2639 0.985 . S
C2634 C2628 1.379 . S
C2634 C2631 1.363 . S
C2634 N2632 1.348 1_545 S
C2635 C2629 1.363 . S
C2635 C2630 1.379 . S
C2635 N2633 1.356 . S
N2636 C2628 1.356 . S
N2636 H2642 0.984 . S
N2636 H2643 0.984 . S
N2637 C2630 1.356 . S
N2637 H2640 0.984 . S
N2637 H2641 0.985 . S
H2638 N2633 0.984 . S
H2639 N2633 0.985 . S
H2640 N2637 0.984 . S
H2641 N2637 0.985 . S
H2642 N2636 0.984 . S
H2643 N2636 0.984 . S
H2644 N2632 1.014 . S
H2645 N2632 0.967 . S
C1351 C8 1.562 . S
C1353 C839 1.560 . S
C1369 C18 1.549 . S
C1371 C883 1.556 . S
C1389 C963 1.547 . S
C1387 C31 1.544 . S
C1405 C34 1.600 . S
C1407 C1007 1.599 . S
C1423 C5 1.565 . S
C1425 C1087 1.556 . S
C1441 C21 1.591 . S
C1443 C1149 1.578 . S
C1459 C47 1.556 . S
C1461 C1069 1.555 . S
C1479 C1131 1.541 . S
C1477 C57 1.549 . S
C1497 C1025 1.576 . S
C1495 C70 1.578 . S
C1513 C73 1.560 . S
C1515 C945 1.560 . S
C1533 C821 1.561 . S
C1531 C44 1.577 . S
C1549 C60 1.588 . S
C1551 C901 1.597 . S
C1567 C86 1.626 . S
C1569 C1211 1.605 . S
C1585 C96 1.574 . S
C1587 C1255 1.575 . S
C1605 C1335 1.589 . S
C1603 C109 1.649 . S
C1621 C112 1.679 . S
C1623 C281 1.633 . S
C1639 C83 1.646 . S
C1641 C325 1.636 . S
C1657 C99 1.623 . S
C1659 C405 1.601 . S
C1675 C125 1.605 . S
C1677 C343 1.612 . S
C1693 C135 1.579 . S
C1695 C387 1.566 . S
C1713 C263 1.587 . S
C1711 C148 1.645 . S
C1731 C1317 1.648 . S
C1729 C151 1.695 . S
C1749 C1193 1.581 . S
C1747 C122 1.632 . S
C1767 C1273 1.641 . S
C1765 C138 1.634 . S
C1783 C164 1.607 . S
C1785 C467 1.587 . S
C1801 C174 1.569 . S
C1803 C529 1.558 . S
C1819 C187 1.638 . S
C1821 C573 1.620 . S
C1837 C190 1.695 . S
C1839 C635 1.697 . S
C1857 C697 1.631 . S
C1855 C161 1.647 . S
C1875 C777 1.615 . S
C1873 C177 1.637 . S
C1893 C715 1.643 . S
C1891 C203 1.634 . S
C1911 C759 1.565 . S
C1909 C213 1.584 . S
C1927 C226 1.647 . S
C1929 C653 1.625 . S
C1947 C591 1.673 . S
C1945 C229 1.671 . S
C1963 C200 1.638 . S
C1965 C449 1.595 . S
C1983 C511 1.608 . S
C1981 C216 1.627 . S
C2001 C287 1.407 . S
C1999 C0 1.425 . S
C2017 C23 1.483 . S
C2019 C331 1.392 . S
C2037 C411 1.380 . S
C2035 C36 1.484 . S
C2055 C473 1.422 . S
C2053 C26 1.442 1_556 S
C2073 C535 1.361 . S
C2071 C10 1.479 1_556 S
C2091 C579 1.438 . S
C2089 C13 1.436 . S
C2107 C39 1.428 . S
C2109 C597 1.442 . S
C2125 C62 1.471 . S
C2127 C455 1.355 . S
C2143 C75 1.454 1_556 S
C2145 C517 1.355 . S
C2161 C65 1.471 . S
C2163 C349 1.477 . S
C2181 C393 1.362 . S
C2179 C49 1.481 . S
C2197 C52 1.436 . S
C2199 C269 1.406 . S
C2217 C641 1.434 . S
C2215 C78 1.428 . S
C2233 C101 1.516 . S
C2235 C703 1.426 . S
C2251 C114 1.504 1_655 S
C2253 C783 1.398 . S
C2271 C845 1.348 . S
C2269 C104 1.379 . S
C2287 C88 1.461 . S
C2289 C889 1.372 . S
C2305 C91 1.312 . S
C2307 C969 1.273 . S
C2323 C117 1.329 . S
C2325 C951 1.285 . S
C2341 C140 1.399 . S
C2343 C827 1.305 . S
C2361 C907 1.380 . S
C2359 C153 1.460 . S
C2377 C143 1.448 . S
C2379 C721 1.448 . S
C2395 C127 1.520 . S
C2397 C765 1.398 . S
C2415 C659 1.462 . S
C2413 C130 1.461 . S
C2433 C1013 1.334 . S
C2431 C156 1.348 . S
C2449 C179 1.391 . S
C2451 C1093 1.299 . S
C2467 C192 1.456 . S
C2469 C1155 1.359 . S
C2487 C1217 1.400 . S
C2485 C182 1.431 . S
C2505 C1261 1.423 . S
C2503 C166 1.522 . S
C2521 C169 1.462 . S
C2523 C1341 1.427 . S
C2539 C195 1.433 . S
C2541 C1323 1.408 . S
C2557 C218 1.478 1_565 S
C2559 C1199 1.392 . S
C2577 C1279 1.403 . S
C2575 C231 1.488 1_455 S
C2595 C1075 1.336 . S
C2593 C221 1.368 . S
C2613 C1137 1.354 . S
C2611 C205 1.467 . S
C2629 C208 1.340 . S
C2631 C1031 1.324 . S
