# Generated by pormake.
# Topology zzz, (3,6)-cn, num edge types: 1
# Building blocks:
#     Node 0, Type 0, BuildingBlock: QEWDON_clean_linker_0, # of connection points: 3
#     Node 1, Type 0, BuildingBlock: QEWDON_clean_linker_0, # of connection points: 3
#     Node 2, Type 0, BuildingBlock: QEWDON_clean_linker_0, # of connection points: 3
#     Node 3, Type 0, BuildingBlock: QEWDON_clean_linker_0, # of connection points: 3
#     Node 4, Type 0, BuildingBlock: QEWDON_clean_linker_0, # of connection points: 3
#     Node 5, Type 0, BuildingBlock: QEWDON_clean_linker_0, # of connection points: 3
#     Node 6, Type 0, BuildingBlock: QEWDON_clean_linker_0, # of connection points: 3
#     Node 7, Type 0, BuildingBlock: QEWDON_clean_linker_0, # of connection points: 3
#     Node 8, Type 1, BuildingBlock: KUMBUR_clean_sbu_1, # of connection points: 6
#     Node 9, Type 1, BuildingBlock: KUMBUR_clean_sbu_1, # of connection points: 6
#     Node 10, Type 1, BuildingBlock: KUMBUR_clean_sbu_1, # of connection points: 6
#     Node 11, Type 1, BuildingBlock: KUMBUR_clean_sbu_1, # of connection points: 6
#     Edge 12, Type (0, 1), BuildingBlock: MIFKUJ_clean_linker_0, # of connection points: 2
#     Edge 13, Type (0, 1), BuildingBlock: MIFKUJ_clean_linker_0, # of connection points: 2
#     Edge 14, Type (0, 1), BuildingBlock: MIFKUJ_clean_linker_0, # of connection points: 2
#     Edge 15, Type (0, 1), BuildingBlock: MIFKUJ_clean_linker_0, # of connection points: 2
#     Edge 16, Type (0, 1), BuildingBlock: MIFKUJ_clean_linker_0, # of connection points: 2
#     Edge 17, Type (0, 1), BuildingBlock: MIFKUJ_clean_linker_0, # of connection points: 2
#     Edge 18, Type (0, 1), BuildingBlock: MIFKUJ_clean_linker_0, # of connection points: 2
#     Edge 19, Type (0, 1), BuildingBlock: MIFKUJ_clean_linker_0, # of connection points: 2
#     Edge 20, Type (0, 1), BuildingBlock: MIFKUJ_clean_linker_0, # of connection points: 2
#     Edge 21, Type (0, 1), BuildingBlock: MIFKUJ_clean_linker_0, # of connection points: 2
#     Edge 22, Type (0, 1), BuildingBlock: MIFKUJ_clean_linker_0, # of connection points: 2
#     Edge 23, Type (0, 1), BuildingBlock: MIFKUJ_clean_linker_0, # of connection points: 2
#     Edge 24, Type (0, 1), BuildingBlock: MIFKUJ_clean_linker_0, # of connection points: 2
#     Edge 25, Type (0, 1), BuildingBlock: MIFKUJ_clean_linker_0, # of connection points: 2
#     Edge 26, Type (0, 1), BuildingBlock: MIFKUJ_clean_linker_0, # of connection points: 2
#     Edge 27, Type (0, 1), BuildingBlock: MIFKUJ_clean_linker_0, # of connection points: 2
#     Edge 28, Type (0, 1), BuildingBlock: MIFKUJ_clean_linker_0, # of connection points: 2
#     Edge 29, Type (0, 1), BuildingBlock: MIFKUJ_clean_linker_0, # of connection points: 2
#     Edge 30, Type (0, 1), BuildingBlock: MIFKUJ_clean_linker_0, # of connection points: 2
#     Edge 31, Type (0, 1), BuildingBlock: MIFKUJ_clean_linker_0, # of connection points: 2
#     Edge 32, Type (0, 1), BuildingBlock: MIFKUJ_clean_linker_0, # of connection points: 2
#     Edge 33, Type (0, 1), BuildingBlock: MIFKUJ_clean_linker_0, # of connection points: 2
#     Edge 34, Type (0, 1), BuildingBlock: MIFKUJ_clean_linker_0, # of connection points: 2
#     Edge 35, Type (0, 1), BuildingBlock: MIFKUJ_clean_linker_0, # of connection points: 2
# Relax obj value: 0.091
# Max RMSD: 0.083
# Mean RMSD: 0.034
data_MOF--net-zzz--node1-KUMBUR_clean_sbu_1--node2-QEWDON_clean_linker_0--edge1-MIFKUJ_clean_linker_0
_symmetry_space_group_name_H-M    P1
_symmetry_Int_Tables_number       1
_symmetry_cell_setting            triclinic
loop_
_symmetry_equiv_pos_as_xyz
'x, y, z'
_cell_length_a     69.689501
_cell_length_b     69.727713
_cell_length_c     19.927778
_cell_angle_alpha  90.23627
_cell_angle_beta   89.852713
_cell_angle_gamma 90.336899
loop_
_atom_site_label
_atom_site_type_symbol
_atom_site_fract_x
_atom_site_fract_y
_atom_site_fract_z
_atom_type_partial_charge
H0 H 0.76574 0.55071 0.09435 0.0
C1 C 0.77557 0.5464 0.13338 0.0
C2 C 0.79534 0.54683 0.11994 0.0
C3 C 0.76844 0.54123 0.19691 0.0
H4 H 0.82352 0.5423 0.16024 0.0
C5 C 0.80829 0.54212 0.1711 0.0
C6 C 0.80213 0.53697 0.23572 0.0
C7 C 0.78202 0.53664 0.24845 0.0
C8 C 0.74695 0.54209 0.20936 0.0
H9 H 0.77704 0.53247 0.29778 0.0
C10 C 0.73293 0.53861 0.15783 0.0
C11 C 0.71289 0.54108 0.17017 0.0
C12 C 0.74033 0.5479 0.27285 0.0
H13 H 0.75026 0.55123 0.31296 0.0
C14 C 0.72083 0.55041 0.28518 0.0
H15 H 0.73751 0.53377 0.10871 0.0
C16 C 0.70735 0.54724 0.23476 0.0
H17 H 0.69246 0.55003 0.24658 0.0
H18 H 0.71611 0.55523 0.3342 0.0
H19 H 0.99001 0.76187 0.12135 0.0
C20 C 0.9924 0.77209 0.16135 0.0
C21 C 0.99194 0.79149 0.1446 0.0
C22 C 0.9959 0.76601 0.22737 0.0
H23 H 0.99306 0.82051 0.18183 0.0
C24 C 0.99336 0.80545 0.19513 0.0
C25 C 0.99636 0.80048 0.26217 0.0
C26 C 0.99813 0.78064 0.27815 0.0
C27 C 0.9964 0.7445 0.24134 0.0
H28 H 1.00108 0.77685 0.32961 0.0
C29 C 0.99934 0.73038 0.18942 0.0
C30 C 0.99729 0.71039 0.2019 0.0
C31 C 0.99256 0.73773 0.30644 0.0
H32 H 0.98982 0.74748 0.34759 0.0
C33 C 0.99151 0.71812 0.31966 0.0
H34 H 1.00285 0.73466 0.13884 0.0
C35 C 0.99368 0.70465 0.26829 0.0
H36 H 0.99254 0.68959 0.28086 0.0
H37 H 0.98857 0.71329 0.37024 0.0
H38 H 0.77284 1.00289 0.07919 0.0
C39 C 0.7633 1.00557 0.121 0.0
C40 C 0.74384 1.00839 0.10705 0.0
C41 C 0.77025 1.00544 0.18725 0.0
H42 H 0.71571 0.01301 0.14881 0.0
C43 C 0.73075 1.01076 0.16003 0.0
C44 C 0.73671 1.0104 0.2272 0.0
C45 C 0.75656 1.0078 0.24064 0.0
C46 C 0.79151 1.00183 0.19906 0.0
H47 H 0.76117 1.00804 0.29239 0.0
C48 C 0.80594 1.00535 0.14885 0.0
C49 C 0.82538 0.99985 0.1585 0.0
C50 C 0.79746 0.99354 0.25977 0.0
H51 H 0.7873 0.99004 0.29897 0.0
C52 C 0.81665 0.98893 0.27056 0.0
H53 H 0.80221 1.01197 0.10176 0.0
C54 C 0.83039 0.99191 0.2207 0.0
H55 H 0.84509 0.98795 0.23106 0.0
H56 H 0.82086 0.9826 0.31777 0.0
H57 H 0.5401 0.77421 0.08315 0.0
C58 C 0.53653 0.76476 0.12426 0.0
C59 C 0.53914 0.74502 0.11457 0.0
C60 C 0.5298 0.77221 0.18571 0.0
H61 H 0.5375 0.71701 0.15973 0.0
C62 C 0.53565 0.73228 0.16757 0.0
C63 C 0.52898 0.73871 0.22983 0.0
C64 C 0.52586 0.75874 0.2387 0.0
C65 C 0.52791 0.79392 0.19416 0.0
H66 H 0.52019 0.76355 0.28638 0.0
C67 C 0.52627 0.807 0.13858 0.0
C68 C 0.52669 0.82729 0.1484 0.0
C69 C 0.5291 0.80197 0.25894 0.0
H70 H 0.5309 0.7931 0.30279 0.0
C71 C 0.52871 0.82176 0.26882 0.0
H72 H 0.52506 0.80167 0.08777 0.0
C73 C 0.52765 0.83423 0.21456 0.0
H74 H 0.52766 0.84952 0.22455 0.0
H75 H 0.52964 0.82754 0.31923 0.0
H76 H 0.26942 0.49064 0.17459 0.0
C77 C 0.25944 0.49562 0.13716 0.0
C78 C 0.24073 0.4882 0.13846 0.0
C79 C 0.26523 0.50872 0.08693 0.0
H80 H 0.21292 0.488 0.09244 0.0
C81 C 0.22745 0.49366 0.08981 0.0
C82 C 0.23213 0.50671 0.03949 0.0
C83 C 0.251 0.51461 0.0389 0.0
C84 C 0.28624 0.51487 0.08224 0.0
H85 H 0.25446 0.52499 1.00057 0.0
C86 C 0.29941 0.51397 0.13768 0.0
C87 C 0.3194 0.51771 0.1288 0.0
C88 C 0.29379 0.52033 0.01942 0.0
H89 H 0.28492 0.52072 0.97505 0.0
C90 C 0.3132 0.52467 0.01133 0.0
H91 H 0.29443 0.51002 0.18717 0.0
C92 C 0.32585 0.52324 0.06497 0.0
H93 H 0.3409 0.5264 0.05635 0.0
H94 H 0.31859 0.52877 0.96242 0.0
H95 H 0.03516 0.27453 0.17921 0.0
C96 C 0.03374 0.26524 0.13608 0.0
C97 C 0.03277 0.24546 0.14786 0.0
C98 C 0.03272 0.27277 0.07053 0.0
H99 H 0.03172 0.21732 0.1036 0.0
C100 C 0.03195 0.23262 0.09384 0.0
C101 C 0.03138 0.23905 0.02758 0.0
C102 C 0.03113 0.25917 0.01608 0.0
C103 C 0.03397 0.29452 0.06001 0.0
H104 H 0.0299 0.26383 0.96472 0.0
C105 C 0.03191 0.30837 0.11351 0.0
C106 C 0.03446 0.32844 0.10247 0.0
C107 C 0.03814 0.30175 0.9956 0.0
H108 H 0.04058 0.29244 0.95313 0.0
C109 C 0.03971 0.32138 0.98401 0.0
H110 H 0.02862 0.30388 0.16395 0.0
C111 C 0.03787 0.33452 0.03633 0.0
H112 H 0.03915 0.34961 0.02451 0.0
H113 H 0.04267 0.32649 0.93378 0.0
H114 H 0.2694 0.04409 0.18022 0.0
C115 C 0.27765 0.04398 0.13413 0.0
C116 C 0.29631 0.05154 0.13531 0.0
C117 C 0.27004 0.03573 0.07503 0.0
H118 H 0.32253 0.05571 0.08079 0.0
C119 C 0.30783 0.05059 0.07782 0.0
C120 C 0.30138 0.04201 0.01842 0.0
C121 C 0.28231 0.03468 0.01703 0.0
C122 C 0.25003 0.02696 0.07651 0.0
H123 H 0.27716 0.02838 0.97074 0.0
C124 C 0.23531 0.03323 0.12198 0.0
C125 C 0.21741 0.02336 0.12647 0.0
C126 C 0.24588 1.0111 0.03487 0.0
H127 H 0.25653 1.00531 1.00097 0.0
C128 C 0.22813 1.00181 0.03786 0.0
H129 H 0.23775 0.04541 0.1547 0.0
C130 C 0.21414 1.00774 0.08332 0.0
H131 H 0.20064 0.99996 0.0851 0.0
H132 H 0.22534 0.98961 0.00551 0.0
H133 H 0.50005 0.26956 0.17703 0.0
C134 C 0.503 0.27877 0.13467 0.0
C135 C 0.50502 0.29849 0.14666 0.0
C136 C 0.50454 0.27102 0.06953 0.0
H137 H 0.50933 0.32635 0.1026 0.0
C138 C 0.50811 0.31106 0.0929 0.0
C139 C 0.5091 0.30436 0.02668 0.0
C140 C 0.50754 0.28424 0.01513 0.0
C141 C 0.5018 0.24946 0.05948 0.0
H142 H 0.50887 0.27909 0.96409 0.0
C143 C 0.50472 0.23563 0.11197 0.0
C144 C 0.49997 0.21586 0.10282 0.0
C145 C 0.49486 0.24257 0.99759 0.0
H146 H 0.49184 0.25218 0.9566 0.0
C147 C 0.49094 0.22313 0.98768 0.0
H148 H 0.51027 0.24008 0.16021 0.0
C149 C 0.49332 0.21 0.03945 0.0
H150 H 0.48989 0.19507 0.02973 0.0
H151 H 0.48561 0.21824 0.93955 0.0
Tb152 Tb 0.99929 0.03595 0.55207 0.0
C153 C 0.06324 0.03832 0.76308 0.0
N154 N 0.06182 0.02921 0.70276 0.0
C155 C 0.09383 0.03958 0.6749 0.0
C156 C 0.07974 0.04906 0.78048 0.0
C157 C 0.07733 0.02882 0.66059 0.0
C158 C 0.09494 0.04999 0.73468 0.0
C159 C 0.04926 0.04525 0.87212 0.0
C160 C 0.04829 0.03644 0.80846 0.0
C161 C 0.06541 0.05639 0.88896 0.0
C162 C 0.08061 0.05831 0.84322 0.0
Tb163 Tb 0.03377 0.01234 0.68572 0.0
N164 N 0.03275 0.02585 0.78998 0.0
C165 C 0.03407 0.04236 0.91715 0.0
C166 C 0.01838 0.02215 0.83485 0.0
C167 C 0.01867 0.03057 0.89867 0.0
H168 H 0.07752 0.01966 0.61718 0.0
H169 H 1.0071 0.02784 0.93374 0.0
H170 H 0.95895 0.01477 0.5971 0.0
H171 H 0.03314 0.04365 0.30813 0.0
H172 H 1.00673 0.01264 0.82172 0.0
H173 H 0.03428 0.04884 0.96666 0.0
H174 H 0.02697 0.05212 0.42578 0.0
H175 H 0.10587 0.03946 0.64047 0.0
H176 H 0.06638 0.06339 0.93749 0.0
H177 H 0.09308 0.06675 0.85721 0.0
H178 H 0.93465 0.99329 0.54603 0.0
H179 H 0.10782 0.05815 0.74596 0.0
H180 H 0.01328 0.01887 0.25202 0.0
N181 N 0.97698 0.01493 0.51079 0.0
C182 C 0.97889 1.00983 0.44534 0.0
C183 C 0.94712 0.99768 0.51735 0.0
C184 C 0.96531 0.99776 0.41386 0.0
C185 C 0.96095 1.00973 0.54628 0.0
C186 C 0.9494 0.99149 0.45103 0.0
N187 N 1.00593 0.03019 0.44077 0.0
C188 C 0.01918 0.04025 0.40403 0.0
C189 C 0.99635 0.01293 0.34084 0.0
C190 C 0.99414 0.01738 0.40954 0.0
C191 C 1.01107 0.02194 0.30482 0.0
C192 C 0.02235 0.03588 0.33637 0.0
H193 H 0.93863 0.98223 0.42861 0.0
H194 H 0.95746 0.98358 0.32095 0.0
H195 H 0.98473 0.99681 0.25689 0.0
O196 O 0.9897 0.0586 0.49071 0.0
O197 O 0.99928 1.00394 0.56176 0.0
O198 O 0.03023 0.99727 0.58942 0.0
O199 O 0.9746 0.05092 0.5806 0.0
O200 O 0.03044 0.0422 0.53811 0.0
O201 O 0.04517 0.0157 0.5831 0.0
O202 O 0.02753 0.98597 0.73222 0.0
O203 O 0.02247 0.04135 0.70833 0.0
O204 O 0.019 0.05551 0.60525 0.0
O205 O 0.05675 0.99525 0.7159 0.0
O206 O 1.00271 1.00618 0.69802 0.0
O207 O 0.98861 0.0333 0.65551 0.0
C208 C 0.01383 0.99191 0.5628 0.0
C209 C 0.97319 0.0832 0.5508 0.0
C210 C 0.98529 0.1157 0.57166 0.0
C211 C 0.96697 0.12078 0.59578 0.0
C212 C 0.95515 0.0887 0.5752 0.0
C213 C 0.9521 0.10736 0.59764 0.0
C214 C 0.98827 0.09672 0.54894 0.0
C215 C 0.04506 0.03024 0.54096 0.0
C216 C 0.9758 0.06298 0.53147 0.0
C217 C 0.96775 0.99282 0.34605 0.0
C218 C 0.98329 1.00034 0.30965 0.0
C219 C 0.02144 0.05676 0.67059 0.0
C220 C 0.051 0.97482 0.80748 0.0
C221 C 0.05312 0.94686 0.87878 0.0
C222 C 0.06393 0.95744 0.92546 0.0
C223 C 0.0616 0.98554 0.85452 0.0
C224 C 0.04664 0.95567 0.82032 0.0
C225 C 0.06795 0.97683 0.91356 0.0
C226 C 0.98826 0.01835 0.69559 0.0
C227 C 0.04559 0.98231 0.74187 0.0
H228 H 0.96389 0.1353 0.61173 0.0
H229 H 0.94342 0.07845 0.57743 0.0
H230 H 0.9381 0.11149 0.61616 0.0
H231 H 1.00232 0.09234 0.53151 0.0
H232 H 0.0691 0.95077 0.97089 0.0
H233 H 0.06529 1.00038 0.84516 0.0
H234 H 0.03872 0.94735 0.78335 0.0
H235 H 0.07623 0.98504 0.94961 0.0
Tb236 Tb 0.52749 0.03861 0.69623 0.0
C237 C 0.50296 0.96158 0.5878 0.0
N238 N 0.51656 0.97363 0.56326 0.0
C239 C 0.53842 0.94738 0.55147 0.0
C240 C 0.50686 0.94206 0.59888 0.0
C241 C 0.53384 0.9667 0.54184 0.0
C242 C 0.525 0.93507 0.58139 0.0
C243 C 0.46974 0.9565 0.61824 0.0
C244 C 0.48476 0.9687 0.59723 0.0
C245 C 0.47377 0.93734 0.63449 0.0
C246 C 0.49233 0.9301 0.62468 0.0
Tb247 Tb 0.50812 1.00508 0.55242 0.0
N248 N 0.48145 0.98709 0.57891 0.0
C249 C 0.45101 0.96364 0.61861 0.0
C250 C 0.46301 0.99335 0.57205 0.0
C251 C 0.44759 0.98202 0.59388 0.0
H252 H 0.54424 0.97622 0.51908 0.0
H253 H 0.43306 0.98734 0.59054 0.0
H254 H 0.48933 0.04901 0.79376 0.0
H255 H 0.58059 0.08741 0.59796 0.0
H256 H 0.46013 1.0071 0.5496 0.0
H257 H 0.43903 0.95474 0.63424 0.0
H258 H 0.56796 0.05619 0.63704 0.0
H259 H 0.55231 0.94201 0.53616 0.0
H260 H 0.46249 0.9278 0.65179 0.0
H261 H 0.4951 0.91512 0.63483 0.0
H262 H 0.46691 0.0758 0.80769 0.0
H263 H 0.52859 0.92014 0.58896 0.0
H264 H 0.55953 0.1159 0.59838 0.0
N265 N 0.50648 0.06312 0.7199 0.0
C266 C 0.51109 0.08045 0.69309 0.0
C267 C 0.47907 0.07721 0.7741 0.0
C268 C 0.49937 0.09664 0.70323 0.0
C269 C 0.49154 0.06179 0.7644 0.0
C270 C 0.48275 0.09461 0.74212 0.0
N271 N 0.53997 0.06673 0.65672 0.0
C272 C 0.55868 0.06848 0.63668 0.0
C273 C 0.53518 0.10054 0.63992 0.0
C274 C 0.52867 0.08243 0.66175 0.0
C275 C 0.55395 0.10221 0.61527 0.0
C276 C 0.56588 0.08617 0.61493 0.0
H277 H 0.47332 0.10667 0.75092 0.0
H278 H 0.49642 0.12713 0.68524 0.0
H279 H 0.52769 0.13049 0.62892 0.0
O280 O 0.55078 0.02912 0.7534 0.0
O281 O 0.52802 0.04771 0.5895 0.0
O282 O 0.50021 0.03559 0.54852 0.0
O283 O 0.53356 0.05253 0.78792 0.0
O284 O 0.55081 0.02342 0.64271 0.0
O285 O 0.53869 0.01292 0.5401 0.0
O286 O 0.49406 0.9943 0.46678 0.0
O287 O 0.52493 0.99311 0.63712 0.0
O288 O 0.51606 1.01053 0.72877 0.0
O289 O 0.52004 1.01074 0.45758 0.0
O290 O 0.48674 0.0234 0.60485 0.0
O291 O 0.49855 0.02604 0.71191 0.0
C292 C 0.51307 0.0494 0.54988 0.0
C293 C 0.56726 0.05581 0.79785 0.0
C294 C 0.60166 0.05948 0.77668 0.0
C295 C 0.60006 0.0793 0.78834 0.0
C296 C 0.56603 0.07565 0.8102 0.0
C297 C 0.58235 0.08727 0.80525 0.0
C298 C 0.58519 0.04787 0.78185 0.0
C299 C 0.55318 0.01726 0.58032 0.0
C300 C 0.5498 0.04369 0.79419 0.0
C301 C 0.5052 0.11453 0.67782 0.0
C302 C 0.52307 0.11647 0.64612 0.0
C303 C 0.52023 0.99389 0.70108 0.0
C304 C 0.49648 0.01613 0.37729 0.0
C305 C 0.47146 0.03902 0.34858 0.0
C306 C 0.48021 0.04151 0.28535 0.0
C307 C 0.50498 0.01881 0.31427 0.0
C308 C 0.47997 0.02649 0.3947 0.0
C309 C 0.4969 0.03154 0.26866 0.0
C310 C 0.48391 0.02515 0.67011 0.0
C311 C 0.50551 1.00334 0.42601 0.0
H312 H 0.61256 0.08858 0.78604 0.0
H313 H 0.55241 0.08226 0.82209 0.0
H314 H 0.58126 0.10254 0.8144 0.0
H315 H 0.58627 0.03263 0.77165 0.0
H316 H 0.4739 0.05069 0.24783 0.0
H317 H 0.51789 1.01114 0.30056 0.0
H318 H 0.47378 0.02478 0.44426 0.0
H319 H 0.50345 0.03352 0.21985 0.0
Tb320 Tb 0.53419 0.5159 0.57377 0.0
C321 C 0.4843 0.49705 0.80945 0.0
N322 N 0.47981 0.50594 0.75099 0.0
C323 C 0.45163 0.48622 0.73975 0.0
C324 C 0.47278 0.48199 0.8345 0.0
C325 C 0.46347 0.50107 0.71672 0.0
C326 C 0.45637 0.47654 0.79861 0.0
C327 C 0.50492 0.49493 0.90678 0.0
C328 C 0.5004 0.50326 0.84438 0.0
C329 C 0.49385 0.47952 0.93094 0.0
C330 C 0.47788 0.473 0.89472 0.0
Tb331 Tb 0.4999 0.53041 0.71992 0.0
N332 N 0.51068 0.51839 0.81996 0.0
C333 C 0.51981 0.50298 0.94471 0.0
C334 C 0.52377 0.52743 0.86046 0.0
C335 C 0.52904 0.5195 0.92194 0.0
H336 H 0.45962 0.50864 0.67163 0.0
H337 H 0.53977 0.52652 0.95275 0.0
H338 H 0.57918 0.51437 0.62978 0.0
H339 H 0.50223 0.55445 0.36645 0.0
H340 H 0.52978 0.54117 0.84715 0.0
H341 H 0.52355 0.49723 0.99333 0.0
H342 H 0.50322 0.52993 0.45366 0.0
H343 H 0.43884 0.48228 0.71215 0.0
H344 H 0.49718 0.47289 0.97853 0.0
H345 H 0.46932 0.46129 0.91451 0.0
H346 H 0.60912 0.53276 0.61336 0.0
H347 H 0.44717 0.46503 0.81626 0.0
H348 H 0.53072 0.57479 0.34441 0.0
N349 N 0.56345 0.53015 0.55742 0.0
C350 C 0.5642 0.54375 0.50876 0.0
C351 C 0.59655 0.53609 0.58393 0.0
C352 C 0.5811 0.55442 0.49691 0.0
C353 C 0.57944 0.52589 0.5939 0.0
C354 C 0.59735 0.55052 0.53561 0.0
N355 N 0.53168 0.53672 0.48522 0.0
C356 C 0.51566 0.53882 0.44659 0.0
C357 C 0.54797 0.56116 0.42059 0.0
C358 C 0.54785 0.54703 0.47102 0.0
C359 C 0.53125 0.56402 0.38342 0.0
C360 C 0.51511 0.55263 0.39595 0.0
H361 H 0.61061 0.55843 0.52813 0.0
H362 H 0.59405 0.57705 0.43752 0.0
H363 H 0.56503 0.583 0.37088 0.0
O364 O 0.52603 0.49155 0.51771 0.0
O365 O 0.53179 0.54706 0.5961 0.0
O366 O 0.50143 0.55159 0.63732 0.0
O367 O 0.55544 0.50098 0.5202 0.0
O368 O 0.5029 0.51136 0.5537 0.0
O369 O 0.48562 0.53175 0.62288 0.0
O370 O 0.49794 0.55492 0.78153 0.0
O371 O 0.50189 0.49974 0.68762 0.0
O372 O 0.53324 0.4963 0.66009 0.0
O373 O 0.47282 0.53891 0.75514 0.0
O374 O 0.5309 0.5388 0.72927 0.0
O375 O 0.54651 0.51445 0.67474 0.0
C376 C 0.51648 0.55782 0.60362 0.0
C377 C 0.54961 0.46783 0.53437 0.0
C378 C 0.54144 0.43443 0.55971 0.0
C379 C 0.55893 0.43267 0.59422 0.0
C380 C 0.56704 0.46563 0.56892 0.0
C381 C 0.57157 0.44819 0.5988 0.0
C382 C 0.53686 0.45219 0.53045 0.0
C383 C 0.48685 0.52042 0.57013 0.0
C384 C 0.54388 0.48675 0.50773 0.0
C385 C 0.58123 0.56862 0.44712 0.0
C386 C 0.56471 0.572 0.40912 0.0
C387 C 0.5174 0.48909 0.68554 0.0
C388 C 0.47002 0.5724 0.75389 0.0
C389 C 0.47174 0.6064 0.72669 0.0
C390 C 0.45297 0.60551 0.70143 0.0
C391 C 0.45123 0.57172 0.72813 0.0
C392 C 0.48016 0.58982 0.75272 0.0
C393 C 0.44284 0.58819 0.70175 0.0
C394 C 0.54628 0.52798 0.7209 0.0
C395 C 0.47929 0.5549 0.77942 0.0
H396 H 0.56312 0.41917 0.61625 0.0
H397 H 0.57711 0.47744 0.57387 0.0
H398 H 0.585 0.44666 0.62535 0.0
H399 H 0.52324 0.45396 0.50518 0.0
H400 H 0.44608 0.61823 0.68231 0.0
H401 H 0.44304 0.55847 0.72809 0.0
H402 H 0.49448 0.59064 0.77368 0.0
H403 H 0.42838 0.58755 0.68212 0.0
Tb404 Tb 0.02469 0.53773 0.57551 0.0
C405 C 0.03719 0.48787 0.8178 0.0
N406 N 0.03043 0.48425 0.75527 0.0
C407 C 0.05088 0.45675 0.74643 0.0
C408 C 0.05187 0.47668 0.84594 0.0
C409 C 0.03632 0.46832 0.72073 0.0
C410 C 0.05893 0.46114 0.80886 0.0
C411 C 0.03435 0.50585 0.92122 0.0
C412 C 0.02856 0.50222 0.8546 0.0
C413 C 0.04968 0.49547 0.94854 0.0
C414 C 0.05847 0.48094 0.91086 0.0
Tb415 Tb 1.00619 0.50344 0.71804 0.0
N416 N 0.01337 0.51139 0.82709 0.0
C417 C 0.02392 0.51907 0.95938 0.0
C418 C 1.00228 0.52312 0.86605 0.0
C419 C 1.00761 0.5275 0.93196 0.0
H420 H 0.03001 0.46477 0.67284 0.0
H421 H 0.99885 0.53701 0.96199 0.0
H422 H 0.02552 0.5829 0.63595 0.0
H423 H 0.99715 0.51234 0.33872 0.0
H424 H 0.98895 0.52869 0.84714 0.0
H425 H 0.0278 0.52211 0.01094 0.0
H426 H 0.018 0.51173 0.439 0.0
H427 H 0.05586 0.44445 0.71816 0.0
H428 H 0.05439 0.49809 0.99955 0.0
H429 H 0.06991 0.47267 0.93319 0.0
H430 H 1.00551 0.6117 0.62668 0.0
H431 H 0.07018 0.45215 0.82872 0.0
H432 H 0.97376 0.53861 0.32453 0.0
N433 N 1.00887 0.56641 0.56683 0.0
C434 C 0.99545 0.56723 0.51755 0.0
C435 C 1.00226 0.59915 0.59653 0.0
C436 C 0.98424 0.58376 0.50795 0.0
C437 C 0.0133 0.58257 0.6029 0.0
C438 C 0.98736 0.59961 0.54985 0.0
N439 N 1.00597 0.5369 0.48186 0.0
C440 C 1.0077 0.52308 0.4334 0.0
C441 C 0.98204 0.55309 0.41648 0.0
C442 C 0.99426 0.55213 0.47254 0.0
C443 C 0.98284 0.53836 0.36858 0.0
C444 C 0.99601 0.52349 0.37643 0.0
H445 H 0.97905 0.61259 0.54421 0.0
H446 H 0.96211 0.59677 0.44714 0.0
H447 H 0.96024 0.56989 0.36681 0.0
O448 O 0.05188 0.53061 0.53865 0.0
O449 O 0.99669 0.52273 0.56572 0.0
O450 O 0.98436 0.52197 0.67156 0.0
O451 O 0.03911 0.55753 0.51298 0.0
O452 O 0.03097 0.50691 0.55916 0.0
O453 O 1.00729 0.49057 0.61697 0.0
O454 O 0.98654 0.49136 0.78705 0.0
O455 O 0.03732 0.50629 0.6938 0.0
O456 O 0.04208 0.53763 0.66756 0.0
O457 O 0.99193 0.47799 0.69185 0.0
O458 O 0.99859 0.53423 0.73263 0.0
O459 O 0.02249 0.55094 0.67672 0.0
C460 C 0.98183 0.52365 0.60647 0.0
C461 C 0.05725 0.54121 0.42923 0.0
C462 C 0.07661 0.52301 0.34946 0.0
C463 C 0.06452 0.52889 0.29723 0.0
C464 C 0.04549 0.54733 0.37634 0.0
C465 C 0.04913 0.54111 0.31071 0.0
C466 C 0.07285 0.52928 0.41513 0.0
C467 C 0.02048 0.49135 0.56948 0.0
C468 C 0.05286 0.54555 0.50006 0.0
C469 C 0.97102 0.58428 0.45482 0.0
C470 C 0.96997 0.569 0.40899 0.0
C471 C 0.04785 0.52199 0.69782 0.0
C472 C 0.96137 0.47331 0.73639 0.0
C473 C 0.92807 0.48327 0.72257 0.0
C474 C 0.92282 0.46383 0.71449 0.0
C475 C 0.95578 0.45414 0.72775 0.0
C476 C 0.9476 0.4879 0.73259 0.0
C477 C 0.93661 0.44946 0.71651 0.0
C478 C 1.00947 0.54972 0.72505 0.0
C479 C 0.98181 0.47751 0.74639 0.0
H480 H 0.06718 0.52431 0.24605 0.0
H481 H 0.03329 0.55651 0.38572 0.0
H482 H 0.03991 0.5457 0.27024 0.0
H483 H 0.08184 0.52441 0.45598 0.0
H484 H 0.90797 0.45955 0.7086 0.0
H485 H 0.9663 0.44277 0.72959 0.0
H486 H 0.95213 0.50271 0.73774 0.0
H487 H 0.93237 0.4346 0.71034 0.0
H488 H 0.20323 1.00031 0.22477 0.0
H489 H 0.17446 1.00474 0.29338 0.0
H490 H 0.16666 0.06088 0.20826 0.0
H491 H 0.196 0.05656 0.14027 0.0
H492 H 0.15538 0.06107 0.33954 0.0
H493 H 0.14128 0.02131 0.14932 0.0
H494 H 0.14596 0.99412 0.07155 0.0
H495 H 0.13737 0.9545 0.2334 0.0
H496 H 0.13291 0.98146 0.31234 0.0
H497 H 0.05818 0.06202 0.46883 0.0
H498 H 0.08644 0.06407 0.39511 0.0
H499 H 0.09926 1.00484 0.43663 0.0
H500 H 0.07051 1.00239 0.50505 0.0
H501 H 0.10686 1.00919 0.31689 0.0
H502 H 0.12315 0.04921 0.50944 0.0
H503 H 0.11884 0.07659 0.5868 0.0
H504 H 0.12304 0.11572 0.42149 0.0
H505 H 0.12713 0.08856 0.34304 0.0
C506 C 0.19564 0.01379 0.22167 0.0
C507 C 0.20203 0.02809 0.17702 0.0
C508 C 0.179 0.01626 0.2606 0.0
C509 C 0.16786 0.03297 0.25532 0.0
C510 C 0.17478 0.04778 0.21342 0.0
C511 C 0.19166 0.04535 0.17466 0.0
C512 C 0.14865 0.03429 0.29073 0.0
C513 C 0.14469 0.04982 0.33396 0.0
C514 C 0.1345 0.01966 0.28439 0.0
C515 C 0.13689 1.00342 0.23682 0.0
C516 C 0.14049 1.0068 0.16838 0.0
C517 C 0.1431 0.99143 0.12409 0.0
C518 C 0.14199 0.9726 0.14754 0.0
C519 C 0.13822 0.96909 0.21531 0.0
C520 C 0.13564 0.98442 0.25983 0.0
C521 C 0.06685 0.04935 0.46128 0.0
C522 C 0.06189 0.03204 0.49349 0.0
C523 C 0.08332 0.0506 0.41978 0.0
C524 C 0.0956 0.03472 0.41059 0.0
C525 C 0.09035 0.01743 0.44208 0.0
C526 C 0.07379 0.01607 0.48202 0.0
C527 C 0.11374 0.03559 0.36826 0.0
C528 C 0.11749 0.02048 0.32297 0.0
C529 C 0.12764 0.05058 0.37304 0.0
C530 C 0.12529 0.06685 0.42034 0.0
C531 C 0.12306 0.06365 0.48957 0.0
C532 C 0.12065 0.07913 0.5336 0.0
C533 C 0.12067 0.09787 0.50901 0.0
C534 C 0.12304 0.10119 0.4404 0.0
C535 C 0.1254 0.08577 0.39616 0.0
H536 H 0.11894 0.10985 0.54307 0.0
H537 H 0.14403 0.96072 0.11318 0.0
H538 H 0.52989 0.20777 0.19077 0.0
H539 H 0.53235 0.1806 0.26902 0.0
H540 H 0.47514 0.16246 0.2158 0.0
H541 H 0.47261 0.18949 0.13888 0.0
H542 H 0.4795 0.15748 0.34563 0.0
H543 H 0.51675 0.14058 0.151 0.0
H544 H 0.54232 0.14461 0.06632 0.0
H545 H 0.58493 0.14418 0.22155 0.0
H546 H 0.55959 0.1404 0.30728 0.0
H547 H 0.48122 0.06282 0.4821 0.0
H548 H 0.4789 0.09078 0.4086 0.0
H549 H 0.53888 0.10315 0.4411 0.0
H550 H 0.5415 0.07426 0.50888 0.0
H551 H 0.5333 0.11175 0.32303 0.0
H552 H 0.4963 0.12941 0.5187 0.0
H553 H 0.47066 0.12658 0.60398 0.0
H554 H 0.42801 0.12592 0.44922 0.0
H555 H 0.45332 0.12866 0.36286 0.0
C556 C 0.51773 0.19818 0.19657 0.0
C557 C 0.50109 0.20093 0.15779 0.0
C558 C 0.51921 0.18243 0.24096 0.0
C559 C 0.50405 0.169 0.24822 0.0
C560 C 0.48716 0.17231 0.21162 0.0
C561 C 0.48574 0.18787 0.16717 0.0
C562 C 0.50566 0.15136 0.29236 0.0
C563 C 0.49123 0.14744 0.34014 0.0
C564 C 0.52103 0.13814 0.28699 0.0
C565 C 0.53626 0.14043 0.23558 0.0
C566 C 0.53157 0.14151 0.16711 0.0
C567 C 0.54602 0.14372 0.11892 0.0
C568 C 0.56523 0.14471 0.13856 0.0
C569 C 0.57004 0.14345 0.20642 0.0
C570 C 0.55564 0.14126 0.25483 0.0
C571 C 0.49396 0.07141 0.4732 0.0
C572 C 0.51148 0.06639 0.50346 0.0
C573 C 0.49257 0.08771 0.43161 0.0
C574 C 0.50856 0.09986 0.41996 0.0
C575 C 0.52615 0.09447 0.44895 0.0
C576 C 0.5276 0.07797 0.48913 0.0
C577 C 0.50721 0.11788 0.37718 0.0
C578 C 0.52164 0.12184 0.32924 0.0
C579 C 0.49188 0.1312 0.38267 0.0
C580 C 0.4767 0.12917 0.43437 0.0
C581 C 0.48146 0.12854 0.50285 0.0
C582 C 0.46701 0.12697 0.55134 0.0
C583 C 0.44778 0.1261 0.53202 0.0
C584 C 0.44292 0.12664 0.46409 0.0
C585 C 0.4573 0.12824 0.41535 0.0
H586 H 0.43667 0.12514 0.56984 0.0
H587 H 0.5764 0.14641 0.10117 0.0
H588 H 0.35137 0.49536 0.12521 0.0
H589 H 0.37847 0.49491 0.20284 0.0
H590 H 0.34931 0.53509 0.33187 0.0
H591 H 0.32195 0.53555 0.25342 0.0
H592 H 0.38705 0.54585 0.31279 0.0
H593 H 0.35492 0.48775 0.37685 0.0
H594 H 0.33967 0.45614 0.35931 0.0
H595 H 0.39232 0.43422 0.27803 0.0
H596 H 0.40782 0.4658 0.29412 0.0
H597 H 0.45284 0.53988 0.58227 0.0
H598 H 0.42436 0.53805 0.51216 0.0
H599 H 0.45178 0.4959 0.38627 0.0
H600 H 0.48053 0.49741 0.45758 0.0
H601 H 0.41473 0.48611 0.40482 0.0
H602 H 0.44693 0.54308 0.33665 0.0
H603 H 0.46348 0.57402 0.35442 0.0
H604 H 0.41208 0.59775 0.43913 0.0
H605 H 0.39528 0.56679 0.423 0.0
C606 C 0.35051 0.50385 0.17077 0.0
C607 C 0.33427 0.51533 0.18312 0.0
C608 C 0.36612 0.5036 0.21537 0.0
C609 C 0.36617 0.5149 0.27406 0.0
C610 C 0.3498 0.52619 0.28725 0.0
C611 C 0.33401 0.52629 0.24269 0.0
C612 C 0.38352 0.51523 0.31984 0.0
C613 C 0.39284 0.53279 0.33375 0.0
C614 C 0.39176 0.49821 0.34591 0.0
C615 C 0.38248 0.47921 0.33611 0.0
C616 C 0.36321 0.47624 0.35469 0.0
C617 C 0.35452 0.45832 0.3451 0.0
C618 C 0.36501 0.4432 0.31741 0.0
C619 C 0.38421 0.44596 0.29938 0.0
C620 C 0.39295 0.46386 0.30877 0.0
C621 C 0.45298 0.53014 0.5398 0.0
C622 C 0.46931 0.51886 0.52592 0.0
C623 C 0.43654 0.52919 0.49921 0.0
C624 C 0.43574 0.51705 0.44267 0.0
C625 C 0.45186 0.50547 0.42921 0.0
C626 C 0.46841 0.5064 0.47004 0.0
C627 C 0.41819 0.51671 0.39792 0.0
C628 C 0.40888 0.49918 0.38402 0.0
C629 C 0.41008 0.53371 0.37125 0.0
C630 C 0.41988 0.55255 0.37911 0.0
C631 C 0.43916 0.55486 0.35934 0.0
C632 C 0.44859 0.5724 0.36914 0.0
C633 C 0.43884 0.58782 0.39797 0.0
C634 C 0.41961 0.58577 0.41684 0.0
C635 C 0.41012 0.56823 0.40733 0.0
H636 H 0.44619 0.60136 0.40552 0.0
H637 H 0.35826 0.42933 0.31005 0.0
H638 H 0.01135 0.3305 0.21738 0.0
H639 H 1.00968 0.35654 0.30056 0.0
H640 H 0.05437 0.3871 0.19503 0.0
H641 H 0.05696 0.36083 0.11534 0.0
H642 H 0.0604 0.39377 0.31565 0.0
H643 H 1.00246 0.39746 0.1869 0.0
H644 H 0.97193 0.38598 0.13846 0.0
H645 H 0.94957 0.37584 0.33623 0.0
H646 H 0.98007 0.38705 0.38583 0.0
H647 H 0.04426 0.487 0.4585 0.0
H648 H 0.04692 0.45937 0.38287 0.0
H649 H 1.00485 0.42879 0.50071 0.0
H650 H 1.0016 0.45655 0.57471 0.0
H651 H 0.99752 0.42181 0.37651 0.0
H652 H 0.05658 0.42059 0.50311 0.0
H653 H 0.08697 0.43414 0.54587 0.0
H654 H 0.10741 0.44156 0.34417 0.0
H655 H 0.07695 0.42847 0.3001 0.0
C656 C 0.02103 0.34261 0.21236 0.0
C657 C 0.03404 0.34345 0.15804 0.0
C658 C 0.01988 0.35776 0.25973 0.0
C659 C 0.03154 0.37437 0.25399 0.0
C660 C 0.045 0.37478 0.20132 0.0
C661 C 0.0463 0.35965 0.15475 0.0
C662 C 0.02982 0.39141 0.30156 0.0
C663 C 0.04659 0.39994 0.32815 0.0
C664 C 0.01193 0.39968 0.31966 0.0
C665 C 0.99362 0.39287 0.29001 0.0
C666 C 0.99108 0.39264 0.22002 0.0
C667 C 0.97378 0.38621 0.19237 0.0
C668 C 0.95884 0.38012 0.23424 0.0
C669 C 0.96116 0.38052 0.30386 0.0
C670 C 0.97845 0.38691 0.33177 0.0
C671 C 0.03554 0.47443 0.4685 0.0
C672 C 0.0227 0.47424 0.52338 0.0
C673 C 0.03718 0.45844 0.42517 0.0
C674 C 0.02633 0.44155 0.43591 0.0
C675 C 0.01347 0.44143 0.49057 0.0
C676 C 0.01168 0.45744 0.5334 0.0
C677 C 0.02807 0.42413 0.3904 0.0
C678 C 0.01131 0.41556 0.36418 0.0
C679 C 0.046 0.41602 0.37183 0.0
C680 C 0.0644 0.42369 0.39832 0.0
C681 C 0.0675 0.42523 0.46786 0.0
C682 C 0.08473 0.43286 0.49231 0.0
C683 C 0.09907 0.4388 0.44773 0.0
C684 C 0.09624 0.43706 0.3786 0.0
C685 C 0.079 0.42953 0.35386 0.0
H686 H 0.1124 0.4447 0.46673 0.0
H687 H 0.94545 0.37515 0.21274 0.0
H688 H 0.85264 0.97344 0.12292 0.0
H689 H 0.87936 0.9767 0.04461 0.0
H690 H 0.86023 0.03339 0.99264 0.0
H691 H 0.83312 0.03008 0.07133 0.0
H692 H 0.87261 0.01607 0.88286 0.0
H693 H 0.89965 0.02433 0.10174 0.0
H694 H 0.90739 0.01638 0.21903 0.0
H695 H 0.93602 0.96524 0.15356 0.0
H696 H 0.92817 0.9727 0.03589 0.0
H697 H 0.95946 0.04413 0.72127 0.0
H698 H 0.9321 0.04104 0.79692 0.0
H699 H 0.95065 0.98441 0.85216 0.0
H700 H 0.97852 0.98763 0.77724 0.0
H701 H 0.9386 1.0021 0.96049 0.0
H702 H 0.91129 0.99357 0.74191 0.0
H703 H 0.90485 1.00223 0.62427 0.0
H704 H 0.87748 0.05411 0.68936 0.0
H705 H 0.884 0.0459 0.80741 0.0
C706 C 0.85406 0.98669 0.09514 0.0
C707 C 0.84069 1.00161 0.10474 0.0
C708 C 0.86951 0.98857 0.05018 0.0
C709 C 0.87239 1.00551 0.01331 0.0
C710 C 0.85862 0.02018 0.02055 0.0
C711 C 0.843 0.01826 0.06556 0.0
C712 C 0.88968 1.00776 0.96765 0.0
C713 C 0.88704 0.01326 0.90039 0.0
C714 C 0.9087 1.00369 0.98906 0.0
C715 C 0.91313 0.99898 0.05996 0.0
C716 C 0.90742 1.01128 0.11236 0.0
C717 C 0.91186 1.00688 0.17892 0.0
C718 C 0.92215 0.99029 0.19374 0.0
C719 C 0.92802 0.97806 0.14201 0.0
C720 C 0.92357 0.98237 0.07537 0.0
C721 C 0.95779 0.03093 0.74917 0.0
C722 C 0.97136 0.01609 0.74236 0.0
C723 C 0.94193 0.02914 0.79255 0.0
C724 C 0.93882 0.01232 0.83005 0.0
C725 C 0.95248 0.99755 0.824 0.0
C726 C 0.96847 0.99938 0.78079 0.0
C727 C 0.92151 1.0103 0.87576 0.0
C728 C 0.92416 1.00486 0.943 0.0
C729 C 0.90253 0.0144 0.85436 0.0
C730 C 0.89827 0.01919 0.78349 0.0
C731 C 0.90398 1.00687 0.73113 0.0
C732 C 0.90033 1.0117 0.66437 0.0
C733 C 0.89081 0.02873 0.64934 0.0
C734 C 0.88487 0.04093 0.70107 0.0
C735 C 0.88852 0.03619 0.76792 0.0
H736 H 0.88801 0.03245 0.59762 0.0
H737 H 0.92561 0.98694 0.24528 0.0
H738 H 0.50226 0.83071 0.03829 0.0
H739 H 0.50043 0.85751 0.95834 0.0
H740 H 0.54972 0.88392 0.05175 0.0
H741 H 0.55128 0.85758 0.13159 0.0
H742 H 0.52586 0.9105 0.03451 0.0
H743 H 0.54932 0.86132 0.88703 0.0
H744 H 0.54912 0.83 0.82909 0.0
H745 H 0.49515 0.84348 0.73764 0.0
H746 H 0.49492 0.8748 0.79575 0.0
H747 H 0.54276 0.96171 0.68729 0.0
H748 H 0.54299 0.93266 0.75632 0.0
H749 H 0.49844 0.95645 0.88131 0.0
H750 H 0.49829 0.98549 0.81229 0.0
H751 H 0.51964 0.90461 0.78758 0.0
H752 H 0.50182 0.94073 0.04141 0.0
H753 H 0.5058 0.97206 0.0979 0.0
H754 H 0.55499 0.98441 0.9749 0.0
H755 H 0.55145 0.95306 0.91833 0.0
C756 C 0.51291 0.84206 0.04092 0.0
C757 C 0.5269 0.84184 0.09195 0.0
C758 C 0.51185 0.85752 0.99504 0.0
C759 C 0.52492 0.87313 0.99816 0.0
C760 C 0.53924 0.87244 0.04779 0.0
C761 C 0.5402 0.85718 0.09359 0.0
C762 C 0.52355 0.89049 0.95222 0.0
C763 C 0.52441 0.90905 0.98055 0.0
C764 C 0.5219 0.88911 0.88122 0.0
C765 C 0.522 0.8703 0.84635 0.0
C766 C 0.53734 0.85754 0.85499 0.0
C767 C 0.53731 0.8398 0.82205 0.0
C768 C 0.5221 0.83473 0.77988 0.0
C769 C 0.50691 0.84741 0.77043 0.0
C770 C 0.50685 0.86516 0.80333 0.0
C771 C 0.53285 0.96067 0.729 0.0
C772 C 0.52045 0.97603 0.74362 0.0
C773 C 0.53302 0.94398 0.76886 0.0
C774 C 0.5209 0.9421 0.82532 0.0
C775 C 0.50828 0.95739 0.83931 0.0
C776 C 0.50818 0.97411 0.79956 0.0
C777 C 0.52184 0.92451 0.87013 0.0
C778 C 0.52092 0.90598 0.84162 0.0
C779 C 0.52383 0.92586 0.94096 0.0
C780 C 0.52623 0.94464 0.9752 0.0
C781 C 0.51352 0.95011 0.02661 0.0
C782 C 0.51569 0.96787 0.05861 0.0
C783 C 0.5306 0.98025 0.03985 0.0
C784 C 0.54341 0.97485 0.98922 0.0
C785 C 0.54131 0.95709 0.95715 0.0
H786 H 0.53224 0.994 0.06463 0.0
H787 H 0.52211 0.82099 0.7544 0.0
H788 H 0.6764 0.52645 0.18867 0.0
H789 H 0.64981 0.52504 0.11088 0.0
H790 H 0.68669 0.54521 0.95185 0.0
H791 H 0.71338 0.54816 0.03198 0.0
H792 H 0.65442 0.56108 0.93226 0.0
H793 H 0.66919 0.49586 0.9694 0.0
H794 H 0.6761 0.46631 0.0322 0.0
H795 H 0.62028 0.46844 0.12357 0.0
H796 H 0.61313 0.49817 0.06206 0.0
H797 H 0.57356 0.50085 0.74522 0.0
H798 H 0.60235 0.50307 0.81358 0.0
H799 H 0.58704 0.56055 0.87262 0.0
H800 H 0.55848 0.55871 0.80056 0.0
H801 H 0.61029 0.50506 0.93392 0.0
H802 H 0.62672 0.58687 0.91823 0.0
H803 H 0.62248 0.61337 0.83799 0.0
H804 H 0.62093 0.57307 0.67448 0.0
H805 H 0.62549 0.5464 0.75354 0.0
C806 C 0.67904 0.53083 0.13741 0.0
C807 C 0.69733 0.53772 0.11778 0.0
C808 C 0.66366 0.52968 0.09209 0.0
C809 C 0.66591 0.5347 0.02416 0.0
C810 C 0.68426 0.54119 1.00362 0.0
C811 C 0.69972 0.54265 0.04958 0.0
C812 C 0.64901 0.53335 0.97596 0.0
C813 C 0.64484 0.54878 0.93286 0.0
C814 C 0.63645 0.51718 0.97411 0.0
C815 C 0.64071 0.49936 0.01157 0.0
C816 C 0.65845 0.49012 1.00329 0.0
C817 C 0.6624 0.47332 0.0386 0.0
C818 C 0.64866 0.46553 0.08198 0.0
C819 C 0.63092 0.47451 0.09003 0.0
C820 C 0.62691 0.49132 0.05492 0.0
C821 C 0.57632 0.51412 0.77204 0.0
C822 C 0.56354 0.52966 0.7664 0.0
C823 C 0.59288 0.51531 0.812 0.0
C824 C 0.59738 0.53205 0.84862 0.0
C825 C 0.58441 0.54753 0.84427 0.0
C826 C 0.56785 0.54641 0.80342 0.0
C827 C 0.61542 0.53296 0.89137 0.0
C828 C 0.61983 0.51741 0.93342 0.0
C829 C 0.62858 0.54863 0.89001 0.0
C830 C 0.62624 0.56463 0.84199 0.0
C831 C 0.62557 0.58369 0.86514 0.0
C832 C 0.62311 0.59873 0.81985 0.0
C833 C 0.62138 0.5949 0.75122 0.0
C834 C 0.62222 0.57603 0.72767 0.0
C835 C 0.62474 0.56094 0.77271 0.0
H836 H 0.61943 0.60657 0.71628 0.0
H837 H 0.65174 0.45252 0.10924 0.0
H838 H 0.02216 0.70742 0.09235 0.0
H839 H 0.02444 0.6812 0.00989 0.0
H840 H 0.97652 0.65264 0.10425 0.0
H841 H 0.97428 0.67854 0.18623 0.0
H842 H 1.00209 0.62699 0.08025 0.0
H843 H 0.97457 0.67655 0.94447 0.0
H844 H 0.97281 0.70853 0.89251 0.0
H845 H 0.02648 0.69879 0.79208 0.0
H846 H 0.02869 0.66684 0.84416 0.0
H847 H 0.97968 0.5594 0.81223 0.0
H848 H 0.97828 0.5863 0.89227 0.0
H849 H 0.03393 0.60563 0.82603 0.0
H850 H 0.03604 0.57819 0.74971 0.0
H851 H 1.00536 0.6359 0.83384 0.0
H852 H 0.03391 0.58791 0.97108 0.0
H853 H 0.03794 0.55702 0.02882 0.0
H854 H 0.98347 0.56417 0.12669 0.0
H855 H 0.97913 0.59518 0.06947 0.0
C856 C 0.01195 0.69569 0.0951 0.0
C857 C 0.99815 0.69523 0.14701 0.0
C858 C 0.01326 0.68058 0.04762 0.0
C859 C 1.00063 0.66465 0.04989 0.0
C860 C 0.98663 0.66446 0.10091 0.0
C861 C 0.98538 0.67942 0.14825 0.0
C862 C 1.00209 0.64792 1.00104 0.0
C863 C 1.00247 0.62907 0.02635 0.0
C864 C 1.00321 0.65022 0.93026 0.0
C865 C 1.00189 0.66939 0.89878 0.0
C866 C 0.98607 0.68129 0.9117 0.0
C867 C 0.98498 0.6994 0.88216 0.0
C868 C 0.99955 0.70571 0.83918 0.0
C869 C 0.01522 0.6939 0.82548 0.0
C870 C 0.01639 0.67578 0.85495 0.0
C871 C 0.99182 0.56911 0.81547 0.0
C872 C 1.00801 0.56633 0.77398 0.0
C873 C 0.99092 0.58467 0.8611 0.0
C874 C 1.00598 0.59822 0.86557 0.0
C875 C 0.02203 0.5956 0.82371 0.0
C876 C 0.02314 0.57983 0.77948 0.0
C877 C 1.00502 0.61512 0.91334 0.0
C878 C 1.00481 0.63393 0.88777 0.0
C879 C 1.0041 0.61282 0.9839 0.0
C880 C 1.00608 0.59373 0.01535 0.0
C881 C 0.02268 0.58278 1.00421 0.0
C882 C 0.02509 0.56533 0.03725 0.0
C883 C 1.01097 0.55863 0.08141 0.0
C884 C 0.99439 0.56937 0.09248 0.0
C885 C 0.99197 0.58691 0.05988 0.0
H886 H 0.01288 0.54511 0.10695 0.0
H887 H 0.99868 0.71974 0.81636 0.0
H888 H 1.00708 0.22003 0.19781 0.0
H889 H 1.00656 0.20561 0.30887 0.0
H890 H 0.05606 0.23934 0.36591 0.0
H891 H 0.05676 0.25378 0.25332 0.0
H892 H 0.06019 0.2016 0.39832 0.0
H893 H 0.01475 0.2493 0.44281 0.0
H894 H 0.98736 0.27065 0.42197 0.0
H895 H 0.9494 0.222 0.41255 0.0
H896 H 0.97658 0.20031 0.43225 0.0
H897 H 0.9928 0.14605 0.65722 0.0
H898 H 0.01129 0.17484 0.63043 0.0
H899 H 0.03138 0.14795 0.44824 0.0
H900 H 0.01255 0.11956 0.47309 0.0
H901 H 0.99931 0.19363 0.52484 0.0
H902 H 0.06735 0.1641 0.39051 0.0
H903 H 0.09684 0.14635 0.41822 0.0
H904 H 0.09228 0.16476 0.62353 0.0
H905 H 0.06235 0.18184 0.59765 0.0
C906 C 0.01779 0.22445 0.23411 0.0
C907 C 0.03201 0.23791 0.21707 0.0
C908 C 0.01738 0.21637 0.29775 0.0
C909 C 0.03111 0.22162 0.34592 0.0
C910 C 0.04525 0.23525 0.32953 0.0
C911 C 0.0456 0.24349 0.26554 0.0
C912 C 0.03116 0.2115 0.41103 0.0
C913 C 0.04701 0.2001 0.42696 0.0
C914 C 0.01431 0.21021 0.45044 0.0
C915 C 0.99776 0.22316 0.43918 0.0
C916 C 1.00058 0.24313 0.43604 0.0
C917 C 0.98508 0.25531 0.42441 0.0
C918 C 0.96665 0.24769 0.416 0.0
C919 C 0.96368 0.22789 0.41924 0.0
C920 C 0.97913 0.21564 0.43083 0.0
C921 C 1.00141 0.14611 0.61194 0.0
C922 C 1.00057 0.13067 0.56603 0.0
C923 C 0.01223 0.16251 0.59732 0.0
C924 C 0.02263 0.16366 0.5371 0.0
C925 C 0.0237 0.14738 0.49553 0.0
C926 C 0.01275 0.13107 0.50971 0.0
C927 C 0.02777 0.18257 0.50824 0.0
C928 C 0.0128 0.19567 0.49854 0.0
C929 C 0.04554 0.18574 0.47587 0.0
C930 C 0.06263 0.17419 0.49217 0.0
C931 C 0.07256 0.16417 0.44167 0.0
C932 C 0.08929 0.15414 0.45714 0.0
C933 C 0.09641 0.15437 0.52263 0.0
C934 C 0.08669 0.16445 0.57292 0.0
C935 C 0.0697 0.17408 0.5581 0.0
H936 H 0.10946 0.14676 0.53441 0.0
H937 H 0.95467 0.25714 0.40695 0.0
H938 H 0.31272 0.08633 0.15706 0.0
H939 H 0.33928 0.09208 0.23423 0.0
H940 H 0.32805 0.03777 0.32944 0.0
H941 H 0.30155 0.03181 0.25135 0.0
H942 H 0.34928 0.07192 0.41231 0.0
H943 H 0.35316 0.02691 0.22817 0.0
H944 H 0.34834 0.01391 0.11419 0.0
H945 H 0.37465 0.0642 0.02997 0.0
H946 H 0.37936 0.07765 0.14382 0.0
H947 H 0.44125 0.02394 0.41997 0.0
H948 H 0.4085 0.03572 0.4236 0.0
H949 H 0.42572 0.086 0.31324 0.0
H950 H 0.45887 0.0748 0.31174 0.0
H951 H 0.40077 0.05743 0.24735 0.0
H952 H 0.40488 0.0952 0.44873 0.0
H953 H 0.41253 0.10098 0.56782 0.0
H954 H 0.3731 0.05658 0.62606 0.0
H955 H 0.36516 0.05047 0.50743 0.0
C956 C 0.31522 0.07614 0.19696 0.0
C957 C 0.30536 0.05852 0.19783 0.0
C958 C 0.33037 0.07945 0.2411 0.0
C959 C 0.33572 0.06522 0.28677 0.0
C960 C 0.32401 0.04894 0.2947 0.0
C961 C 0.30887 0.04555 0.25007 0.0
C962 C 0.35583 0.06476 0.30957 0.0
C963 C 0.3606 0.06873 0.3766 0.0
C964 C 0.3705 0.06051 0.26287 0.0
C965 C 0.36629 0.05341 0.19427 0.0
C966 C 0.35754 0.03538 0.18528 0.0
C967 C 0.35497 0.02787 0.12083 0.0
C968 C 0.36128 0.03818 0.06503 0.0
C969 C 0.36982 0.05622 0.07339 0.0
C970 C 0.37241 0.06382 0.13785 0.0
C971 C 0.43838 0.03793 0.39901 0.0
C972 C 0.45269 0.04817 0.36391 0.0
C973 C 0.41957 0.04467 0.40141 0.0
C974 C 0.41472 0.06166 0.36846 0.0
C975 C 0.42924 0.07284 0.33903 0.0
C976 C 0.44812 0.06624 0.3373 0.0
C977 C 0.39451 0.06491 0.35 0.0
C978 C 0.38962 0.06117 0.28316 0.0
C979 C 0.3799 0.06861 0.39766 0.0
C980 C 0.38449 0.07233 0.46911 0.0
C981 C 0.39791 0.08659 0.4869 0.0
C982 C 0.40226 0.08997 0.55433 0.0
C983 C 0.39331 0.07921 0.60445 0.0
C984 C 0.37995 0.065 0.58729 0.0
C985 C 0.37547 0.06161 0.51993 0.0
H986 H 0.39674 0.08194 0.65649 0.0
H987 H 0.35967 0.03209 0.01544 0.0
H988 H 0.53063 0.32205 0.20816 0.0
H989 H 0.52839 0.3362 0.32004 0.0
H990 H 0.47479 0.30644 0.3538 0.0
H991 H 0.47703 0.29213 0.24095 0.0
H992 H 0.47224 0.34438 0.38385 0.0
H993 H 0.51058 0.29433 0.45404 0.0
H994 H 0.53598 0.2699 0.45061 0.0
H995 H 0.57908 0.31414 0.45347 0.0
H996 H 0.55399 0.33886 0.45579 0.0
H997 H 0.53364 0.40498 0.64811 0.0
H998 H 0.51711 0.37469 0.62288 0.0
H999 H 0.5041 0.39534 0.42446 0.0
H1000 H 0.52087 0.42499 0.44802 0.0
H1001 H 0.52894 0.35022 0.53264 0.0
H1002 H 0.46561 0.37731 0.35897 0.0
H1003 H 0.43958 0.4009 0.36746 0.0
H1004 H 0.44438 0.40094 0.58218 0.0
H1005 H 0.47025 0.37713 0.57526 0.0
C1006 C 0.51846 0.3184 0.23965 0.0
C1007 C 0.50397 0.3061 0.21601 0.0
C1008 C 0.51728 0.3263 0.30383 0.0
C1009 C 0.50156 0.32212 0.34568 0.0
C1010 C 0.48713 0.30965 0.32258 0.0
C1011 C 0.48843 0.30152 0.25833 0.0
C1012 C 0.49968 0.33263 0.41009 0.0
C1013 C 0.48443 0.34552 0.41737 0.0
C1014 C 0.515 0.33322 0.45643 0.0
C1015 C 0.53033 0.31848 0.45531 0.0
C1016 C 0.52547 0.29887 0.45365 0.0
C1017 C 0.53983 0.28496 0.4519 0.0
C1018 C 0.55913 0.29047 0.45191 0.0
C1019 C 0.56412 0.30989 0.45367 0.0
C1020 C 0.54982 0.32387 0.45539 0.0
C1021 C 0.52702 0.40313 0.59941 0.0
C1022 C 0.52875 0.41743 0.54991 0.0
C1023 C 0.5174 0.38589 0.58544 0.0
C1024 C 0.5091 0.38281 0.52219 0.0
C1025 C 0.50987 0.39752 0.47436 0.0
C1026 C 0.51957 0.41458 0.48795 0.0
C1027 C 0.50273 0.36348 0.50021 0.0
C1028 C 0.51633 0.34873 0.50128 0.0
C1029 C 0.4857 0.36101 0.46249 0.0
C1030 C 0.46986 0.37521 0.4666 0.0
C1031 C 0.46099 0.3821 0.40813 0.0
C1032 C 0.44629 0.39561 0.41264 0.0
C1033 C 0.4403 0.40239 0.4753 0.0
C1034 C 0.44901 0.39567 0.53363 0.0
C1035 C 0.46371 0.38216 0.52944 0.0
H1036 H 0.42893 0.41286 0.47863 0.0
H1037 H 0.57023 0.27967 0.45052 0.0
H1038 H 0.2348 0.49888 0.26703 0.0
H1039 H 0.20712 0.48764 0.33023 0.0
H1040 H 0.20103 0.4396 0.19462 0.0
H1041 H 0.22867 0.45114 0.13067 0.0
H1042 H 0.17404 0.46513 0.17533 0.0
H1043 H 0.19617 0.43267 0.3677 0.0
H1044 H 0.2165 0.4262 0.46603 0.0
H1045 H 0.19854 0.47909 0.5569 0.0
H1046 H 0.1783 0.48598 0.45921 0.0
H1047 H 0.07815 0.48987 0.2748 0.0
H1048 H 0.10621 0.46929 0.25654 0.0
H1049 H 0.14057 0.50779 0.37742 0.0
H1050 H 0.1128 0.52814 0.39575 0.0
H1051 H 0.14904 0.47192 0.40704 0.0
H1052 H 0.14006 0.50944 0.20134 0.0
H1053 H 0.12298 0.51968 0.09919 0.0
H1054 H 0.11922 0.46114 0.03261 0.0
H1055 H 0.13619 0.45057 0.13453 0.0
C1056 C 0.22844 0.48516 0.25371 0.0
C1057 C 0.23351 0.47606 0.19348 0.0
C1058 C 0.2125 0.4787 0.28988 0.0
C1059 C 0.20166 0.46299 0.26619 0.0
C1060 C 0.20906 0.45183 0.21344 0.0
C1061 C 0.22495 0.45836 0.17712 0.0
C1062 C 0.18077 0.46256 0.28064 0.0
C1063 C 0.16844 0.46585 0.22615 0.0
C1064 C 0.17347 0.46392 0.34669 0.0
C1065 C 0.18564 0.45981 0.40596 0.0
C1066 C 0.19661 0.44296 0.40855 0.0
C1067 C 0.20811 0.4392 0.46431 0.0
C1068 C 0.20878 0.45219 0.51786 0.0
C1069 C 0.19796 0.46897 0.51571 0.0
C1070 C 0.18641 0.47278 0.46019 0.0
C1071 C 0.09175 0.4939 0.2971 0.0
C1072 C 0.09336 0.5106 0.33652 0.0
C1073 C 0.1077 0.48209 0.28709 0.0
C1074 C 0.12547 0.48696 0.3159 0.0
C1075 C 0.12696 0.50357 0.35554 0.0
C1076 C 0.1111 0.51525 0.36571 0.0
C1077 C 0.14307 0.4758 0.302 0.0
C1078 C 0.15456 0.47027 0.35641 0.0
C1079 C 0.14987 0.47289 0.2359 0.0
C1080 C 0.13908 0.47919 0.17597 0.0
C1081 C 0.13539 0.49875 0.16524 0.0
C1082 C 0.12579 0.50461 0.10732 0.0
C1083 C 0.11996 0.49105 0.05963 0.0
C1084 C 0.1237 0.47161 0.06973 0.0
C1085 C 0.13329 0.46568 0.12752 0.0
H1086 H 0.11261 0.49559 0.01473 0.0
H1087 H 0.2177 0.44927 0.56096 0.0
H1088 H 0.01447 0.77624 0.04653 0.0
H1089 H 0.02578 0.79346 0.94798 0.0
H1090 H 0.98402 0.83763 0.98467 0.0
H1091 H 0.97225 0.82027 0.08258 0.0
H1092 H 1.00245 0.83338 0.83933 0.0
H1093 H 0.01979 0.85182 0.09024 0.0
H1094 H 0.0271 0.83861 0.20204 0.0
H1095 H 0.06467 0.79721 0.11177 0.0
H1096 H 0.0578 0.81048 0.99955 0.0
H1097 H 0.01808 0.93024 0.88089 0.0
H1098 H 1.01062 0.89602 0.88364 0.0
H1099 H 0.07109 0.88322 0.89531 0.0
H1100 H 0.07852 0.91773 0.89457 0.0
H1101 H 0.05203 0.86391 0.98372 0.0
H1102 H 0.04437 0.87335 0.75129 0.0
H1103 H 0.03359 0.88966 0.64889 0.0
H1104 H 0.97488 0.87783 0.70048 0.0
H1105 H 0.9852 0.86215 0.80465 0.0
C1106 C 1.00686 0.789 0.03136 0.0
C1107 C 0.99296 0.79736 0.07347 0.0
C1108 C 0.01332 0.79877 0.97466 0.0
C1109 C 1.00604 0.81697 0.96049 0.0
C1110 C 0.98986 0.8236 0.99531 0.0
C1111 C 0.98334 0.81383 0.05184 0.0
C1112 C 0.01872 0.83148 0.93035 0.0
C1113 C 0.01364 0.83996 0.86949 0.0
C1114 C 0.03348 0.83967 0.96985 0.0
C1115 C 0.03828 0.83207 0.03693 0.0
C1116 C 0.02972 0.84 0.0945 0.0
C1117 C 0.03378 0.83251 0.15782 0.0
C1118 C 0.04629 0.81703 0.164 0.0
C1119 C 0.05496 0.80918 0.1069 0.0
C1120 C 0.05107 0.81673 0.04348 0.0
C1121 C 0.02972 0.92006 0.88448 0.0
C1122 C 0.04881 0.92642 0.88817 0.0
C1123 C 0.02551 0.90056 0.88474 0.0
C1124 C 0.04035 0.88706 0.88733 0.0
C1125 C 0.05947 0.89342 0.89215 0.0
C1126 C 0.06368 0.91303 0.89268 0.0
C1127 C 0.03549 0.86648 0.89289 0.0
C1128 C 0.04185 0.85695 0.9503 0.0
C1129 C 0.02196 0.85746 0.84976 0.0
C1130 C 0.01562 0.86655 0.78617 0.0
C1131 C 0.02915 0.87433 0.74117 0.0
C1132 C 0.0231 0.88352 0.68279 0.0
C1133 C 1.00355 0.88475 0.66814 0.0
C1134 C 0.99002 0.87683 0.71187 0.0
C1135 C 0.99597 0.86781 0.7707 0.0
H1136 H 0.99885 0.89186 0.62298 0.0
H1137 H 0.04927 0.81115 0.21303 0.0
H1138 H 0.71298 0.99011 0.05141 0.0
H1139 H 0.69938 0.99525 0.94032 0.0
H1140 H 0.74603 0.0338 0.89196 0.0
H1141 H 0.75961 0.02883 1.00381 0.0
H1142 H 0.71286 0.05092 0.8797 0.0
H1143 H 0.73822 0.99518 0.78812 0.0
H1144 H 0.74876 0.96162 0.77808 0.0
H1145 H 0.6904 0.94222 0.79565 0.0
H1146 H 0.67949 0.97561 0.80694 0.0
H1147 H 0.63079 0.0728 0.69544 0.0
H1148 H 0.66388 0.06098 0.69117 0.0
H1149 H 0.64814 0.01457 0.82325 0.0
H1150 H 0.61548 0.02623 0.82816 0.0
H1151 H 0.67766 1.00418 0.73695 0.0
H1152 H 0.66032 0.05942 0.88942 0.0
H1153 H 0.6491 0.09277 0.90237 0.0
H1154 H 0.69333 0.11218 0.76788 0.0
H1155 H 0.70464 0.07888 0.75374 0.0
C1156 C 0.72051 0.99941 0.01664 0.0
C1157 C 0.73717 1.0093 0.03652 0.0
C1158 C 0.71292 1.0021 0.95267 0.0
C1159 C 0.7218 0.01477 0.90736 0.0
C1160 C 0.73906 0.02381 0.92578 0.0
C1161 C 0.74675 0.02101 0.98972 0.0
C1162 C 0.71085 0.02135 0.84812 0.0
C1163 C 0.70576 0.04077 0.84645 0.0
C1164 C 0.70166 1.00824 0.80413 0.0
C1165 C 0.70804 0.98799 0.79842 0.0
C1166 C 0.72763 0.98377 0.7904 0.0
C1167 C 0.73367 0.96476 0.78436 0.0
C1168 C 0.72026 0.9498 0.7862 0.0
C1169 C 0.70077 0.95383 0.7941 0.0
C1170 C 0.69464 0.97281 0.80016 0.0
C1171 C 0.63437 0.05988 0.72252 0.0
C1172 C 0.62064 0.0507 0.76338 0.0
C1173 C 0.65319 0.05302 0.71932 0.0
C1174 C 0.6585 0.03704 0.75755 0.0
C1175 C 0.64435 0.02686 0.79298 0.0
C1176 C 0.62564 0.03364 0.79608 0.0
C1177 C 0.67881 0.03317 0.77394 0.0
C1178 C 0.68566 0.01438 0.76735 0.0
C1179 C 0.6897 0.04679 0.81058 0.0
C1180 C 0.6832 0.06676 0.82019 0.0
C1181 C 0.66762 0.07084 0.86269 0.0
C1182 C 0.66123 0.0897 0.87013 0.0
C1183 C 0.67048 0.10458 0.83589 0.0
C1184 C 0.68616 0.10064 0.79428 0.0
C1185 C 0.69256 0.08178 0.7865 0.0
H1186 H 0.66551 0.11917 0.84167 0.0
H1187 H 0.72497 0.93509 0.78151 0.0
H1188 H 0.5223 0.75476 0.99657 0.0
H1189 H 0.52089 0.73476 0.8961 0.0
H1190 H 0.56353 0.69725 0.97941 0.0
H1191 H 0.56507 0.71725 0.08032 0.0
H1192 H 0.54289 0.71156 0.79522 0.0
H1193 H 0.54058 0.65736 1.00282 0.0
H1194 H 0.53619 0.65478 0.12556 0.0
H1195 H 0.49813 0.70299 0.12315 0.0
H1196 H 0.50228 0.70577 1.00056 0.0
H1197 H 0.50848 0.61497 0.68799 0.0
H1198 H 0.52734 0.64314 0.72338 0.0
H1199 H 0.47684 0.66712 0.81616 0.0
H1200 H 0.4582 0.63896 0.78287 0.0
H1201 H 0.50708 0.65819 0.90338 0.0
H1202 H 0.49591 0.68981 0.69015 0.0
H1203 H 0.4979 0.69254 0.56694 0.0
H1204 H 0.55933 0.68943 0.57632 0.0
H1205 H 0.55772 0.68653 0.69964 0.0
C1206 C 0.53212 0.74283 0.99211 0.0
C1207 C 0.54338 0.7372 0.04695 0.0
C1208 C 0.53139 0.73148 0.93431 0.0
C1209 C 0.54186 0.71439 0.93102 0.0
C1210 C 0.5553 0.71038 0.98131 0.0
C1211 C 0.55598 0.72167 0.03923 0.0
C1212 C 0.53437 0.69862 0.88883 0.0
C1213 C 0.53529 0.6997 0.8185 0.0
C1214 C 0.52429 0.68331 0.91937 0.0
C1215 C 0.52188 0.68186 0.99299 0.0
C1216 C 0.53131 0.6674 0.02868 0.0
C1217 C 0.52887 0.66591 0.09814 0.0
C1218 C 0.51692 0.67874 0.13213 0.0
C1219 C 0.5074 0.69309 0.09681 0.0
C1220 C 0.50984 0.69466 0.02742 0.0
C1221 C 0.50139 0.62653 0.71459 0.0
C1222 C 0.48198 0.62484 0.73338 0.0
C1223 C 0.5121 0.64261 0.73412 0.0
C1224 C 0.50343 0.65708 0.77244 0.0
C1225 C 0.48371 0.65606 0.78639 0.0
C1226 C 0.47309 0.64 0.76743 0.0
C1227 C 0.51517 0.67119 0.80946 0.0
C1228 C 0.51507 0.66972 0.87946 0.0
C1229 C 0.52577 0.68602 0.77813 0.0
C1230 C 0.52669 0.68781 0.7041 0.0
C1231 C 0.50984 0.68957 0.66595 0.0
C1232 C 0.51091 0.69121 0.59612 0.0
C1233 C 0.52873 0.69115 0.56393 0.0
C1234 C 0.54554 0.68947 0.60141 0.0
C1235 C 0.54456 0.68788 0.67126 0.0
H1236 H 0.52954 0.69253 0.51002 0.0
H1237 H 0.51497 0.6775 0.18575 0.0
H1238 H 0.77977 0.53614 0.99862 0.0
H1239 H 0.79607 0.53586 0.89031 0.0
H1240 H 0.84461 0.56519 0.97814 0.0
H1241 H 0.82769 0.5672 0.08479 0.0
H1242 H 0.84494 0.57148 0.84864 0.0
H1243 H 0.83854 0.51522 0.99134 0.0
H1244 H 0.82017 0.4906 0.05322 0.0
H1245 H 0.7928 0.47272 0.87031 0.0
H1246 H 0.81086 0.49744 0.80756 0.0
H1247 H 0.92763 0.51581 0.80083 0.0
H1248 H 0.90028 0.53609 0.82505 0.0
H1249 H 0.86645 0.50501 0.6796 0.0
H1250 H 0.89367 0.48457 0.65472 0.0
H1251 H 0.85275 0.50186 0.80528 0.0
H1252 H 0.87263 0.55224 0.6637 0.0
H1253 H 0.89517 0.57549 0.61346 0.0
H1254 H 0.90196 0.6034 0.80431 0.0
H1255 H 0.87978 0.58013 0.85622 0.0
C1256 C 0.79352 0.54334 0.99435 0.0
C1257 C 0.80277 0.55097 0.05129 0.0
C1258 C 0.80289 0.54307 0.93226 0.0
C1259 C 0.8219 0.54975 0.92683 0.0
C1260 C 0.8301 0.55961 0.98124 0.0
C1261 C 0.82052 0.5604 0.04272 0.0
C1262 C 0.83455 0.54309 0.87149 0.0
C1263 C 0.84661 0.55629 0.83853 0.0
C1264 C 0.83656 0.52325 0.85761 0.0
C1265 C 0.82582 0.5083 0.89502 0.0
C1266 C 0.82853 0.50608 0.96446 0.0
C1267 C 0.81818 0.49213 0.99966 0.0
C1268 C 0.80528 0.48014 0.96574 0.0
C1269 C 0.80275 0.48205 0.89653 0.0
C1270 C 0.81302 0.49603 0.86113 0.0
C1271 C 0.9147 0.51369 0.77173 0.0
C1272 C 0.91294 0.49827 0.72627 0.0
C1273 C 0.89901 0.52542 0.78562 0.0
C1274 C 0.88131 0.52202 0.75422 0.0
C1275 C 0.87999 0.50785 0.7044 0.0
C1276 C 0.89563 0.49608 0.69059 0.0
C1277 C 0.86364 0.53017 0.78388 0.0
C1278 C 0.85066 0.51715 0.81263 0.0
C1279 C 0.86132 0.55006 0.79515 0.0
C1280 C 0.87446 0.56438 0.76394 0.0
C1281 C 0.87896 0.56328 0.69512 0.0
C1282 C 0.8917 0.57646 0.66631 0.0
C1283 C 0.89996 0.59091 0.70563 0.0
C1284 C 0.8955 0.59222 0.77387 0.0
C1285 C 0.88281 0.57905 0.80301 0.0
H1286 H 0.90982 0.6011 0.68322 0.0
H1287 H 0.79727 0.46934 0.99306 0.0
H1288 H 1.00387 0.23125 0.93057 0.0
H1289 H 1.00141 0.20234 0.85937 0.0
H1290 H 0.05589 0.18294 0.93437 0.0
H1291 H 0.05838 0.21172 1.00437 0.0
H1292 H 0.05352 0.17314 0.80648 0.0
H1293 H 0.01151 0.16689 0.99823 0.0
H1294 H 0.98487 0.17631 0.07287 0.0
H1295 H 0.94542 0.17207 0.90821 0.0
H1296 H 0.97191 0.16288 0.83234 0.0
H1297 H 0.05068 0.07395 0.74078 0.0
H1298 H 0.05111 0.10505 0.79683 0.0
H1299 H 0.99362 0.11566 0.72695 0.0
H1300 H 0.9926 0.08324 0.67796 0.0
H1301 H 0.99624 0.13174 0.84051 0.0
H1302 H 0.03909 0.13385 0.6511 0.0
H1303 H 0.06569 0.12004 0.58568 0.0
H1304 H 0.10427 0.13063 0.74952 0.0
H1305 H 0.07776 0.14413 0.81656 0.0
C1306 C 0.01556 0.22109 0.93029 0.0
C1307 C 0.0314 0.22398 0.97298 0.0
C1308 C 0.01405 0.20435 0.89015 0.0
C1309 C 0.02832 0.19001 0.89174 0.0
C1310 C 0.0446 0.19352 0.93163 0.0
C1311 C 0.04605 0.21011 0.97175 0.0
C1312 C 0.02603 0.17094 0.85555 0.0
C1313 C 0.04098 0.16414 0.81417 0.0
C1314 C 1.00963 0.15898 0.86398 0.0
C1315 C 0.99371 0.16443 0.90949 0.0
C1316 C 0.99718 0.16811 0.97785 0.0
C1317 C 0.98211 0.17339 0.02038 0.0
C1318 C 0.96347 0.17485 0.99525 0.0
C1319 C 0.95987 0.17098 0.92756 0.0
C1320 C 0.9749 0.16573 0.88478 0.0
C1321 C 0.03802 0.08268 0.73847 0.0
C1322 C 0.02177 0.07614 0.70349 0.0
C1323 C 0.03837 0.10084 0.76943 0.0
C1324 C 0.02274 0.11353 0.76393 0.0
C1325 C 1.00617 0.10666 0.73088 0.0
C1326 C 1.00567 0.0882 0.70158 0.0
C1327 C 0.02382 0.1338 0.79198 0.0
C1328 C 1.00865 0.14086 0.83173 0.0
C1329 C 0.04004 0.14599 0.78203 0.0
C1330 C 0.05637 0.13994 0.73902 0.0
C1331 C 0.05325 0.13339 0.67302 0.0
C1332 C 0.06827 0.12539 0.63595 0.0
C1333 C 0.0866 0.12426 0.66377 0.0
C1334 C 0.09002 0.13141 0.72825 0.0
C1335 C 0.075 0.13925 0.76581 0.0
H1336 H 0.0982 0.11801 0.63518 0.0
H1337 H 0.95182 0.17893 0.02826 0.0
H1338 H 0.3253 0.0698 0.96861 0.0
H1339 H 0.35377 0.06577 0.89978 0.0
H1340 H 0.33915 1.00617 0.86887 0.0
H1341 H 0.31101 1.01002 0.94235 0.0
H1342 H 0.37408 1.00626 0.88895 0.0
H1343 H 0.33926 0.04438 0.7368 0.0
H1344 H 0.31979 0.07109 0.69411 0.0
H1345 H 0.36425 0.1111 0.74814 0.0
H1346 H 0.38388 0.08467 0.792 0.0
H1347 H 0.45033 0.03556 0.60596 0.0
H1348 H 0.41769 0.03631 0.65158 0.0
H1349 H 0.43947 0.02027 0.84578 0.0
H1350 H 0.47169 0.01778 0.79872 0.0
H1351 H 0.39901 0.05528 0.73157 0.0
H1352 H 0.40707 0.99974 0.94667 0.0
H1353 H 0.42502 0.97008 0.96929 0.0
H1354 H 0.42997 0.95921 0.7578 0.0
H1355 H 0.41184 0.98866 0.73379 0.0
C1356 C 0.32785 0.05587 0.9461 0.0
C1357 C 0.31567 0.04025 0.96148 0.0
C1358 C 0.34423 0.05359 0.90572 0.0
C1359 C 0.34894 0.03566 0.87742 0.0
C1360 C 0.33618 0.02021 0.88974 0.0
C1361 C 0.3198 0.02246 0.93112 0.0
C1362 C 0.36775 0.03294 0.8398 0.0
C1363 C 0.37935 0.01698 0.85412 0.0
C1364 C 0.37492 0.04651 0.79272 0.0
C1365 C 0.36297 0.06255 0.76818 0.0
C1366 C 0.3448 0.0589 0.74022 0.0
C1367 C 0.33375 0.07399 0.71566 0.0
C1368 C 0.34076 0.09278 0.71853 0.0
C1369 C 0.35882 0.09654 0.74604 0.0
C1370 C 0.36991 0.08151 0.77075 0.0
C1371 C 0.44811 0.0317 0.65799 0.0
C1372 C 0.4638 0.02624 0.69802 0.0
C1373 C 0.42934 0.03238 0.68455 0.0
C1374 C 0.4256 0.02794 0.75244 0.0
C1375 C 0.44144 0.02313 0.79286 0.0
C1376 C 0.46009 0.02199 0.76593 0.0
C1377 C 0.40539 0.02879 0.78119 0.0
C1378 C 0.39359 0.04446 0.7656 0.0
C1379 C 0.39771 0.01451 0.82461 0.0
C1380 C 0.40822 0.99651 0.8385 0.0
C1381 C 0.41188 0.99097 0.90499 0.0
C1382 C 0.42212 0.97421 0.91803 0.0
C1383 C 0.42869 0.96281 0.86498 0.0
C1384 C 0.42494 0.9681 0.79877 0.0
C1385 C 0.41468 0.98482 0.78543 0.0
H1386 H 0.43665 0.94987 0.87518 0.0
H1387 H 0.33221 0.10444 0.69935 0.0
H1388 H 0.48155 0.31973 0.94448 0.0
H1389 H 0.48392 0.34897 0.8767 0.0
H1390 H 0.54436 0.35282 0.92132 0.0
H1391 H 0.54167 0.32403 0.99091 0.0
H1392 H 0.53278 0.38553 0.93606 0.0
H1393 H 0.5237 0.34405 0.75219 0.0
H1394 H 0.51028 0.31947 0.67611 0.0
H1395 H 0.45752 0.35073 0.66442 0.0
H1396 H 0.47061 0.37552 0.74048 0.0
H1397 H 0.54812 0.46693 0.72357 0.0
H1398 H 0.54802 0.43442 0.76952 0.0
H1399 H 0.48635 0.43245 0.7551 0.0
H1400 H 0.48659 0.46456 0.7054 0.0
H1401 H 0.49973 0.39862 0.72147 0.0
H1402 H 0.51353 0.44013 0.91584 0.0
H1403 H 0.53248 0.46433 0.97823 0.0
H1404 H 0.58339 0.43095 0.95068 0.0
H1405 H 0.56475 0.40637 0.88915 0.0
C1406 C 0.49547 0.32646 0.93792 0.0
C1407 C 0.51152 0.31913 0.97197 0.0
C1408 C 0.49686 0.34335 0.899 0.0
C1409 C 0.51439 0.3535 0.89252 0.0
C1410 C 0.53056 0.34566 0.92484 0.0
C1411 C 0.52911 0.32892 0.96417 0.0
C1412 C 0.51562 0.3729 0.8574 0.0
C1413 C 0.52576 0.38808 0.88846 0.0
C1414 C 0.50649 0.37693 0.79518 0.0
C1415 C 0.49804 0.36149 0.75301 0.0
C1416 C 0.50912 0.34553 0.73429 0.0
C1417 C 0.50162 0.33163 0.69078 0.0
C1418 C 0.48304 0.3335 0.66563 0.0
C1419 C 0.4719 0.34927 0.68409 0.0
C1420 C 0.47937 0.36327 0.72728 0.0
C1421 C 0.53449 0.45961 0.73008 0.0
C1422 C 0.51727 0.46882 0.71238 0.0
C1423 C 0.53443 0.44094 0.75726 0.0
C1424 C 0.51711 0.43081 0.76844 0.0
C1425 C 0.49996 0.43977 0.74844 0.0
C1426 C 0.50007 0.45838 0.72069 0.0
C1427 C 0.51681 0.411 0.80034 0.0
C1428 C 0.50676 0.39585 0.76891 0.0
C1429 C 0.52667 0.40674 0.86076 0.0
C1430 C 0.53779 0.42154 0.89752 0.0
C1431 C 0.52878 0.43802 0.92287 0.0
C1432 C 0.53945 0.45179 0.95806 0.0
C1433 C 0.55912 0.44929 0.96782 0.0
C1434 C 0.56816 0.4329 0.94294 0.0
C1435 C 0.55755 0.41901 0.90822 0.0
H1436 H 0.56734 0.46001 0.99495 0.0
H1437 H 0.47729 0.32277 0.63168 0.0
H1438 H 0.21288 0.48123 0.96059 0.0
H1439 H 0.18284 0.48571 0.90053 0.0
H1440 H 0.1847 0.54615 0.94663 0.0
H1441 H 0.21478 0.54144 0.00944 0.0
H1442 H 0.14946 0.53377 0.96671 0.0
H1443 H 0.19231 0.52671 0.78175 0.0
H1444 H 0.21817 0.51158 0.71593 0.0
H1445 H 0.1842 0.46036 0.69492 0.0
H1446 H 0.15824 0.47506 0.76165 0.0
H1447 H 0.06853 0.55219 0.7512 0.0
H1448 H 0.10032 0.55171 0.80385 0.0
H1449 H 0.10327 0.49062 0.77155 0.0
H1450 H 0.07198 0.49132 0.71609 0.0
H1451 H 0.13661 0.50545 0.74262 0.0
H1452 H 0.09302 0.51441 0.92906 0.0
H1453 H 0.06825 0.53092 0.99621 0.0
H1454 H 0.10424 0.58085 0.01086 0.0
H1455 H 0.12913 0.56486 0.9431 0.0
C1456 C 0.20721 0.49561 0.95649 0.0
C1457 C 0.21659 0.51102 0.98908 0.0
C1458 C 0.18987 0.49819 0.92197 0.0
C1459 C 0.18124 0.51635 0.91765 0.0
C1460 C 0.19086 0.53195 0.94858 0.0
C1461 C 0.20831 0.52933 0.98368 0.0
C1462 C 0.16197 0.51865 0.88318 0.0
C1463 C 0.14681 0.52787 0.91714 0.0
C1464 C 0.15803 0.51068 0.81884 0.0
C1465 C 0.1734 0.50193 0.77733 0.0
C1466 C 0.19039 0.51218 0.76345 0.0
C1467 C 0.20507 0.50368 0.72601 0.0
C1468 C 0.20288 0.48498 0.70169 0.0
C1469 C 0.18591 0.47481 0.71412 0.0
C1470 C 0.1712 0.48323 0.75168 0.0
C1471 C 0.07595 0.53864 0.75525 0.0
C1472 C 0.06735 0.52169 0.73042 0.0
C1473 C 0.09417 0.53834 0.78609 0.0
C1474 C 0.10439 0.52106 0.79344 0.0
C1475 C 0.09588 0.50419 0.76754 0.0
C1476 C 0.07774 0.50453 0.73646 0.0
C1477 C 0.12402 0.52048 0.82622 0.0
C1478 C 0.13926 0.51148 0.792 0.0
C1479 C 0.12804 0.52889 0.88991 0.0
C1480 C 0.11292 0.53846 0.93043 0.0
C1481 C 0.09562 0.52896 0.94612 0.0
C1482 C 0.08156 0.53821 0.98437 0.0
C1483 C 0.08466 0.55689 0.00763 0.0
C1484 C 0.10184 0.56638 0.99276 0.0
C1485 C 0.11594 0.55723 0.95448 0.0
H1486 H 0.07378 0.56401 0.03731 0.0
H1487 H 0.2143 0.47839 0.67299 0.0
H1488 H 0.02791 0.81406 0.33279 0.0
H1489 H 0.03127 0.84542 0.38888 0.0
H1490 H 0.97129 0.85645 0.35459 0.0
H1491 H 0.96815 0.82543 0.29775 0.0
H1492 H 0.98927 0.88657 0.32002 0.0
H1493 H 0.99236 0.84958 0.52207 0.0
H1494 H 1.00377 0.82508 0.60123 0.0
H1495 H 0.06063 0.84898 0.59217 0.0
H1496 H 0.04956 0.87359 0.51268 0.0
H1497 H 0.98134 0.97258 0.5176 0.0
H1498 H 0.97875 0.9402 0.47037 0.0
H1499 H 0.03954 0.93249 0.49718 0.0
H1500 H 0.04219 0.96498 0.5433 0.0
H1501 H 0.02245 0.9009 0.53399 0.0
H1502 H 0.0181 0.93905 0.33706 0.0
H1503 H 1.0063 0.96348 0.25844 0.0
H1504 H 0.95042 0.93722 0.26023 0.0
H1505 H 0.96186 0.91268 0.33929 0.0
C1506 C 0.0153 0.82286 0.33954 0.0
C1507 C 0.99763 0.81686 0.31202 0.0
C1508 C 0.01723 0.84099 0.3714 0.0
C1509 C 1.00153 0.85371 0.37688 0.0
C1510 C 0.98376 0.84728 0.35145 0.0
C1511 C 0.98187 0.82929 0.31956 0.0
C1512 C 1.00368 0.87405 0.4045 0.0
C1513 C 0.99618 0.88953 0.36768 0.0
C1514 C 0.01327 0.8785 0.46554 0.0
C1515 C 0.02019 0.86325 0.5108 0.0
C1516 C 1.00735 0.84945 0.5363 0.0
C1517 C 0.01373 0.8356 0.58145 0.0
C1518 C 0.03293 0.83543 0.60151 0.0
C1519 C 0.04578 0.84909 0.57639 0.0
C1520 C 0.03946 0.863 0.53134 0.0
C1521 C 0.99424 0.96423 0.51227 0.0
C1522 C 0.01201 0.97187 0.53349 0.0
C1523 C 0.99275 0.94549 0.48524 0.0
C1524 C 1.00898 0.93358 0.47878 0.0
C1525 C 0.0267 0.9411 0.50096 0.0
C1526 C 0.0282 0.95987 0.52747 0.0
C1527 C 1.00747 0.91328 0.45068 0.0
C1528 C 0.01528 0.89786 0.48692 0.0
C1529 C 0.99799 0.90885 0.38944 0.0
C1530 C 0.99081 0.92411 0.34454 0.0
C1531 C 1.00324 0.93861 0.3213 0.0
C1532 C 0.99664 0.95241 0.27637 0.0
C1533 C 0.97765 0.95184 0.25412 0.0
C1534 C 0.96515 0.93758 0.2773 0.0
C1535 C 0.97169 0.92372 0.32212 0.0
H1536 H 0.97258 0.96248 0.21906 0.0
H1537 H 0.03783 0.82474 0.63669 0.0
H1538 H 0.71247 0.04065 0.24446 0.0
H1539 H 0.68397 0.04277 0.31564 0.0
H1540 H 0.69661 0.98726 0.39877 0.0
H1541 H 0.72567 0.98551 0.32856 0.0
H1542 H 0.65351 0.02532 0.31159 0.0
H1543 H 0.67109 0.98004 0.55134 0.0
H1544 H 0.69753 0.97501 0.63132 0.0
H1545 H 0.72403 0.02769 0.56841 0.0
H1546 H 0.69759 0.03326 0.48906 0.0
H1547 H 0.56482 1.00197 0.45917 0.0
H1548 H 0.59696 1.00067 0.41117 0.0
H1549 H 0.61978 0.02873 0.58721 0.0
H1550 H 0.58776 0.02871 0.63775 0.0
H1551 H 0.64559 1.00658 0.54961 0.0
H1552 H 0.61067 0.05227 0.42558 0.0
H1553 H 0.58382 0.06518 0.35959 0.0
H1554 H 0.59399 0.02322 0.20541 0.0
H1555 H 0.62074 1.00988 0.27096 0.0
C1556 C 0.70948 0.0291 0.27922 0.0
C1557 C 0.72159 0.01299 0.28095 0.0
C1558 C 0.69296 0.03021 0.31976 0.0
C1559 C 0.68767 0.01516 0.36324 0.0
C1560 C 0.70019 0.99931 0.36695 0.0
C1561 C 0.71695 0.9983 0.32668 0.0
C1562 C 0.66843 0.01559 0.39966 0.0
C1563 C 0.65198 0.02116 0.36371 0.0
C1564 C 0.66593 1.01069 0.46847 0.0
C1565 C 0.68248 1.0069 0.51326 0.0
C1566 C 0.6826 0.99052 0.55428 0.0
C1567 C 0.69757 0.98759 0.59969 0.0
C1568 C 0.7125 1.00096 0.60466 0.0
C1569 C 0.71251 0.01728 0.56419 0.0
C1570 C 0.69756 0.0203 0.51884 0.0
C1571 C 0.57662 1.00779 0.48821 0.0
C1572 C 0.57331 0.01578 0.55231 0.0
C1573 C 0.59517 1.00722 0.46011 0.0
C1574 C 0.61112 0.01517 0.49391 0.0
C1575 C 0.60796 0.02261 0.55897 0.0
C1576 C 0.58943 0.02277 0.58786 0.0
C1577 C 0.63083 0.01593 0.46097 0.0
C1578 C 0.64727 1.0106 0.49742 0.0
C1579 C 0.63355 0.02189 0.39346 0.0
C1580 C 0.6176 0.02997 0.35348 0.0
C1581 C 0.60711 0.04573 0.37776 0.0
C1582 C 0.59192 0.05313 0.34044 0.0
C1583 C 0.58718 0.045 0.27842 0.0
C1584 C 0.59767 0.02949 0.2535 0.0
C1585 C 0.61286 0.02201 0.29069 0.0
H1586 H 0.5754 0.05074 0.24961 0.0
H1587 H 0.72402 0.99872 0.64007 0.0
H1588 H 0.55292 0.72611 0.32977 0.0
H1589 H 0.54976 0.69675 0.39669 0.0
H1590 H 0.4942 0.68605 0.30905 0.0
H1591 H 0.49724 0.71569 0.24389 0.0
H1592 H 0.49183 0.67422 0.4282 0.0
H1593 H 0.53862 0.6618 0.25923 0.0
H1594 H 0.56812 0.66747 0.19336 0.0
H1595 H 0.60206 0.6615 0.37157 0.0
H1596 H 0.57269 0.65615 0.43859 0.0
H1597 H 0.48655 0.57591 0.53992 0.0
H1598 H 0.48692 0.60615 0.47906 0.0
H1599 H 0.54589 0.6154 0.53737 0.0
H1600 H 0.54597 0.58402 0.59148 0.0
H1601 H 0.54565 0.6282 0.42836 0.0
H1602 H 0.49337 0.6527 0.59485 0.0
H1603 H 0.46111 0.65245 0.64682 0.0
H1604 H 0.43626 0.63381 0.46102 0.0
H1605 H 0.46811 0.6354 0.40655 0.0
C1606 C 0.53976 0.71782 0.32648 0.0
C1607 C 0.52513 0.72364 0.28249 0.0
C1608 C 0.53809 0.70069 0.36387 0.0
C1609 C 0.52189 0.68852 0.35757 0.0
C1610 C 0.50692 0.69485 0.31565 0.0
C1611 C 0.50858 0.71199 0.27846 0.0
C1612 C 0.52057 0.66923 0.39336 0.0
C1613 C 0.50365 0.66417 0.42775 0.0
C1614 C 0.53577 0.65571 0.39394 0.0
C1615 C 0.55346 0.6588 0.35393 0.0
C1616 C 0.55237 0.66186 0.28436 0.0
C1617 C 0.56906 0.665 0.24684 0.0
C1618 C 0.58696 0.66489 0.2783 0.0
C1619 C 0.58819 0.66161 0.3473 0.0
C1620 C 0.57152 0.65852 0.38507 0.0
C1621 C 0.49955 0.58451 0.5403 0.0
C1622 C 0.51618 0.57743 0.57146 0.0
C1623 C 0.4997 0.60226 0.50602 0.0
C1624 C 0.51625 0.61415 0.50412 0.0
C1625 C 0.53277 0.60702 0.53665 0.0
C1626 C 0.53282 0.58894 0.56852 0.0
C1627 C 0.51702 0.63326 0.46595 0.0
C1628 C 0.53389 0.6383 0.43024 0.0
C1629 C 0.50163 0.64666 0.46315 0.0
C1630 C 0.48312 0.64357 0.49742 0.0
C1631 C 0.48106 0.64826 0.56552 0.0
C1632 C 0.46286 0.64805 0.59521 0.0
C1633 C 0.44677 0.6426 0.55788 0.0
C1634 C 0.44876 0.63779 0.49016 0.0
C1635 C 0.46682 0.63858 0.45963 0.0
H1636 H 0.43273 0.64235 0.58123 0.0
H1637 H 0.59987 0.66731 0.24919 0.0
H1638 H 0.80497 0.54795 0.37039 0.0
H1639 H 0.83261 0.5441 0.44564 0.0
H1640 H 0.86237 0.51268 0.29067 0.0
H1641 H 0.83454 0.51524 0.21834 0.0
H1642 H 0.87298 0.4978 0.39486 0.0
H1643 H 0.87016 0.56516 0.33779 0.0
H1644 H 0.85529 0.59714 0.33141 0.0
H1645 H 0.8482 0.59793 0.54557 0.0
H1646 H 0.86273 0.56582 0.55287 0.0
H1647 H 0.97036 0.51259 0.48076 0.0
H1648 H 0.93876 0.51451 0.42949 0.0
H1649 H 0.91537 0.53591 0.61556 0.0
H1650 H 0.94759 0.53502 0.66612 0.0
H1651 H 0.89982 0.55503 0.51005 0.0
H1652 H 0.91168 0.4894 0.5596 0.0
H1653 H 0.9286 0.45854 0.5573 0.0
H1654 H 0.92126 0.4552 0.34373 0.0
H1655 H 0.90442 0.48617 0.34479 0.0
C1656 C 0.81723 0.53984 0.35298 0.0
C1657 C 0.81741 0.53222 0.2873 0.0
C1658 C 0.83333 0.53793 0.39581 0.0
C1659 C 0.85025 0.52859 0.374 0.0
C1660 C 0.84988 0.52012 0.30975 0.0
C1661 C 0.83382 0.52175 0.26771 0.0
C1662 C 0.86848 0.52775 0.4161 0.0
C1663 C 0.87886 0.51045 0.41924 0.0
C1664 C 0.87633 0.54393 0.45032 0.0
C1665 C 0.86743 0.5631 0.44589 0.0
C1666 C 0.86533 0.57213 0.38343 0.0
C1667 C 0.85696 0.59027 0.37963 0.0
C1668 C 0.85079 0.59956 0.43803 0.0
C1669 C 0.85298 0.59073 0.50036 0.0
C1670 C 0.86129 0.57258 0.50437 0.0
C1671 C 0.95867 0.51812 0.51059 0.0
C1672 C 0.96186 0.52403 0.57734 0.0
C1673 C 0.94036 0.51894 0.48133 0.0
C1674 C 0.92431 0.5252 0.51826 0.0
C1675 C 0.92735 0.53105 0.58535 0.0
C1676 C 0.94584 0.5304 0.61455 0.0
C1677 C 0.90451 0.52528 0.48672 0.0
C1678 C 0.89385 0.54238 0.48592 0.0
C1679 C 0.89665 0.50899 0.45315 0.0
C1680 C 0.90665 0.49017 0.4525 0.0
C1681 C 0.91357 0.48208 0.51225 0.0
C1682 C 0.92322 0.46457 0.51111 0.0
C1683 C 0.92598 0.45489 0.4504 0.0
C1684 C 0.91908 0.4627 0.39077 0.0
C1685 C 0.90945 0.48024 0.39167 0.0
H1686 H 0.93348 0.44134 0.44956 0.0
H1687 H 0.84432 0.6136 0.435 0.0
loop_
_geom_bond_atom_site_label_1
_geom_bond_atom_site_label_2
_geom_bond_distance
_geom_bond_site_symmetry_2
_ccdc_geom_bond_type
H0 C1 0.949 . S
C1 H0 0.949 . S
C1 C2 1.395 . S
C1 C3 1.391 . S
C2 C1 1.395 . S
C2 C5 1.390 . S
C3 C1 1.391 . S
C3 C7 1.387 . S
C3 C8 1.491 . S
H4 C5 0.950 . S
C5 C2 1.390 . S
C5 H4 0.950 . S
C5 C6 1.378 . S
C6 C5 1.378 . S
C6 C7 1.409 . S
C7 C3 1.387 . S
C7 C6 1.409 . S
C7 H9 0.951 . S
C8 C3 1.491 . S
C8 C10 1.382 . S
C8 C12 1.404 . S
H9 C7 0.951 . S
C10 C8 1.382 . S
C10 C11 1.390 . S
C10 H15 0.949 . S
C11 C10 1.390 . S
C11 C16 1.399 . S
C12 C8 1.404 . S
C12 H13 0.950 . S
C12 C14 1.375 . S
H13 C12 0.950 . S
C14 C12 1.375 . S
C14 C16 1.382 . S
C14 H18 0.950 . S
H15 C10 0.949 . S
C16 C11 1.399 . S
C16 C14 1.382 . S
C16 H17 0.952 . S
H17 C16 0.952 . S
H18 C14 0.950 . S
H19 C20 0.949 . S
C20 H19 0.949 . S
C20 C21 1.395 . S
C20 C22 1.391 . S
C21 C20 1.395 . S
C21 C24 1.390 . S
C22 C20 1.391 . S
C22 C26 1.387 . S
C22 C27 1.491 . S
H23 C24 0.950 . S
C24 C21 1.390 . S
C24 H23 0.950 . S
C24 C25 1.378 . S
C25 C24 1.378 . S
C25 C26 1.409 . S
C26 C22 1.387 . S
C26 C25 1.409 . S
C26 H28 0.951 . S
C27 C22 1.491 . S
C27 C29 1.382 . S
C27 C31 1.404 . S
H28 C26 0.951 . S
C29 C27 1.382 . S
C29 C30 1.390 . S
C29 H34 0.949 . S
C30 C29 1.390 . S
C30 C35 1.399 . S
C31 C27 1.404 . S
C31 H32 0.950 . S
C31 C33 1.375 . S
H32 C31 0.950 . S
C33 C31 1.375 . S
C33 C35 1.382 . S
C33 H37 0.950 . S
H34 C29 0.949 . S
C35 C30 1.399 . S
C35 C33 1.382 . S
C35 H36 0.952 . S
H36 C35 0.952 . S
H37 C33 0.950 . S
H38 C39 0.949 . S
C39 H38 0.949 . S
C39 C40 1.395 . S
C39 C41 1.391 . S
C40 C39 1.395 . S
C40 C43 1.390 . S
C41 C39 1.391 . S
C41 C45 1.387 . S
C41 C46 1.491 . S
H42 C43 0.950 . S
C43 C40 1.390 . S
C43 H42 0.950 . S
C43 C44 1.378 . S
C44 C43 1.378 . S
C44 C45 1.409 . S
C45 C41 1.387 . S
C45 C44 1.409 . S
C45 H47 0.951 . S
C46 C41 1.491 . S
C46 C48 1.382 . S
C46 C50 1.404 . S
H47 C45 0.951 . S
C48 C46 1.382 . S
C48 C49 1.390 . S
C48 H53 0.949 . S
C49 C48 1.390 . S
C49 C54 1.399 . S
C50 C46 1.404 . S
C50 H51 0.950 . S
C50 C52 1.375 . S
H51 C50 0.950 . S
C52 C50 1.375 . S
C52 C54 1.382 . S
C52 H56 0.950 . S
H53 C48 0.949 . S
C54 C49 1.399 . S
C54 C52 1.382 . S
C54 H55 0.952 . S
H55 C54 0.952 . S
H56 C52 0.950 . S
H57 C58 0.949 . S
C58 H57 0.949 . S
C58 C59 1.395 . S
C58 C60 1.391 . S
C59 C58 1.395 . S
C59 C62 1.390 . S
C60 C58 1.391 . S
C60 C64 1.387 . S
C60 C65 1.491 . S
H61 C62 0.950 . S
C62 C59 1.390 . S
C62 H61 0.950 . S
C62 C63 1.378 . S
C63 C62 1.378 . S
C63 C64 1.409 . S
C64 C60 1.387 . S
C64 C63 1.409 . S
C64 H66 0.951 . S
C65 C60 1.491 . S
C65 C67 1.382 . S
C65 C69 1.404 . S
H66 C64 0.951 . S
C67 C65 1.382 . S
C67 C68 1.390 . S
C67 H72 0.949 . S
C68 C67 1.390 . S
C68 C73 1.399 . S
C69 C65 1.404 . S
C69 H70 0.950 . S
C69 C71 1.375 . S
H70 C69 0.950 . S
C71 C69 1.375 . S
C71 C73 1.382 . S
C71 H75 0.950 . S
H72 C67 0.949 . S
C73 C68 1.399 . S
C73 C71 1.382 . S
C73 H74 0.952 . S
H74 C73 0.952 . S
H75 C71 0.950 . S
H76 C77 0.949 . S
C77 H76 0.949 . S
C77 C78 1.395 . S
C77 C79 1.391 . S
C78 C77 1.395 . S
C78 C81 1.402 . S
C79 C77 1.391 . S
C79 C83 1.387 1_554 S
C79 C84 1.491 . S
H80 C81 0.949 1_556 S
C81 C78 1.402 . S
C81 H80 0.949 1_554 S
C81 C82 1.366 1_554 S
C82 C81 1.366 1_556 S
C82 C83 1.409 . S
C83 C79 1.387 1_556 S
C83 C82 1.409 . S
C83 H85 0.951 . S
C84 C79 1.491 . S
C84 C86 1.382 . S
C84 C88 1.404 1_554 S
H85 C83 0.951 . S
C86 C84 1.382 . S
C86 C87 1.390 . S
C86 H91 0.949 . S
C87 C86 1.390 . S
C87 C92 1.399 . S
C88 C84 1.404 1_556 S
C88 H89 0.950 . S
C88 C90 1.375 . S
H89 C88 0.950 . S
C90 C88 1.375 . S
C90 C92 1.382 1_556 S
C90 H94 0.950 . S
H91 C86 0.949 . S
C92 C87 1.399 . S
C92 C90 1.382 1_554 S
C92 H93 0.952 . S
H93 C92 0.952 . S
H94 C90 0.950 . S
H95 C96 0.949 . S
C96 H95 0.949 . S
C96 C97 1.395 . S
C96 C98 1.391 . S
C97 C96 1.395 . S
C97 C100 1.390 . S
C98 C96 1.391 . S
C98 C102 1.387 1_554 S
C98 C103 1.491 . S
H99 C100 0.950 . S
C100 C97 1.390 . S
C100 H99 0.950 . S
C100 C101 1.378 1_554 S
C101 C100 1.378 1_556 S
C101 C102 1.409 . S
C102 C98 1.387 1_556 S
C102 C101 1.409 . S
C102 H104 0.951 . S
C103 C98 1.491 . S
C103 C105 1.382 . S
C103 C107 1.404 1_554 S
H104 C102 0.951 . S
C105 C103 1.382 . S
C105 C106 1.390 . S
C105 H110 0.949 . S
C106 C105 1.390 . S
C106 C111 1.399 . S
C107 C103 1.404 1_556 S
C107 H108 0.950 . S
C107 C109 1.375 . S
H108 C107 0.950 . S
C109 C107 1.375 . S
C109 C111 1.382 1_556 S
C109 H113 0.950 . S
H110 C105 0.949 . S
C111 C106 1.399 . S
C111 C109 1.382 1_554 S
C111 H112 0.952 . S
H112 C111 0.952 . S
H113 C109 0.950 . S
H114 C115 0.949 . S
C115 H114 0.949 . S
C115 C116 1.395 . S
C115 C117 1.391 . S
C116 C115 1.395 . S
C116 C119 1.390 . S
C117 C115 1.391 . S
C117 C121 1.387 1_554 S
C117 C122 1.491 . S
H118 C119 0.950 . S
C119 C116 1.390 . S
C119 H118 0.950 . S
C119 C120 1.378 1_554 S
C120 C119 1.378 1_556 S
C120 C121 1.409 . S
C121 C117 1.387 1_556 S
C121 C120 1.409 . S
C121 H123 0.951 . S
C122 C117 1.491 . S
C122 C124 1.382 . S
C122 C126 1.404 1_554 S
H123 C121 0.951 . S
C124 C122 1.382 . S
C124 C125 1.390 . S
C124 H129 0.949 . S
C125 C124 1.390 . S
C125 C130 1.399 . S
C126 C122 1.404 1_556 S
C126 H127 0.950 . S
C126 C128 1.375 . S
H127 C126 0.950 . S
C128 C126 1.375 . S
C128 C130 1.382 1_556 S
C128 H132 0.950 . S
H129 C124 0.949 . S
C130 C125 1.399 . S
C130 C128 1.382 1_554 S
C130 H131 0.952 . S
H131 C130 0.952 . S
H132 C128 0.950 . S
H133 C134 0.949 . S
C134 H133 0.949 . S
C134 C135 1.395 . S
C134 C136 1.391 . S
C135 C134 1.395 . S
C135 C138 1.390 1_554 S
C136 C134 1.391 . S
C136 C140 1.387 1_554 S
C136 C141 1.491 . S
H137 C138 0.950 . S
C138 C135 1.390 1_556 S
C138 H137 0.950 . S
C138 C139 1.378 . S
C139 C138 1.378 . S
C139 C140 1.409 . S
C140 C136 1.387 1_556 S
C140 C139 1.409 . S
C140 H142 0.951 . S
C141 C136 1.491 . S
C141 C143 1.382 . S
C141 C145 1.404 1_554 S
H142 C140 0.951 . S
C143 C141 1.382 . S
C143 C144 1.390 . S
C143 H148 0.949 . S
C144 C143 1.390 . S
C144 C149 1.399 . S
C145 C141 1.404 1_556 S
C145 H146 0.950 . S
C145 C147 1.375 . S
H146 C145 0.950 . S
C147 C145 1.375 . S
C147 C149 1.382 1_556 S
C147 H151 0.950 . S
H148 C143 0.949 . S
C149 C144 1.399 . S
C149 C147 1.382 1_554 S
C149 H150 0.952 . S
H150 C149 0.952 . S
H151 C147 0.950 . S
Tb152 N181 2.617 . S
Tb152 N187 2.572 . S
Tb152 O196 2.465 1_655 S
Tb152 O197 2.387 1_545 S
Tb152 O199 2.428 . S
Tb152 O200 2.308 1_655 S
Tb152 O204 2.349 1_655 S
Tb152 O207 2.393 . S
Tb152 C216 2.802 . S
C153 N154 1.379 . S
C153 C156 1.416 . S
C153 C160 1.424 . S
N154 C153 1.379 . S
N154 C157 1.334 . S
N154 Tb163 2.617 1_545 S
C155 C157 1.390 . S
C155 C158 1.339 . S
C155 H175 0.930 . S
C156 C153 1.416 . S
C156 C158 1.416 . S
C156 C162 1.448 . S
C157 N154 1.334 . S
C157 C155 1.390 . S
C157 H168 0.930 1_545 S
C158 C155 1.339 . S
C158 C156 1.416 . S
C158 H179 0.930 . S
C159 C160 1.413 . S
C159 C161 1.427 . S
C159 C165 1.416 . S
C160 C153 1.424 . S
C160 C159 1.413 . S
C160 N164 1.361 . S
C161 C159 1.427 . S
C161 C162 1.328 . S
C161 H176 0.929 . S
C162 C156 1.448 . S
C162 C161 1.328 . S
C162 H177 0.930 . S
Tb163 N154 2.617 1_565 S
Tb163 N164 2.572 1_565 S
Tb163 O198 2.349 . S
Tb163 O201 2.393 1_565 S
Tb163 O202 2.465 . S
Tb163 O203 2.387 1_565 S
Tb163 O205 2.428 . S
Tb163 O206 2.308 1_465 S
Tb163 C227 2.802 . S
N164 C160 1.361 . S
N164 Tb163 2.572 1_545 S
N164 C166 1.340 . S
C165 C159 1.416 . S
C165 C167 1.332 . S
C165 H173 0.931 . S
C166 N164 1.340 . S
C166 C167 1.407 . S
C166 H172 0.930 1_455 S
C167 C165 1.332 . S
C167 C166 1.407 . S
C167 H169 0.929 1_455 S
H168 C157 0.930 1_565 S
H169 C167 0.929 1_655 S
H170 C185 0.930 . S
H171 C192 0.936 . S
H172 C166 0.930 1_655 S
H173 C165 0.931 . S
H174 C188 0.930 . S
H175 C155 0.930 . S
H176 C161 0.929 . S
H177 C162 0.930 . S
H178 C183 0.930 . S
H179 C158 0.930 . S
H180 C191 0.931 . S
N181 Tb152 2.617 . S
N181 C182 1.379 . S
N181 C185 1.334 . S
C182 N181 1.379 . S
C182 C184 1.437 . S
C182 C190 1.424 . S
C183 H178 0.930 . S
C183 C185 1.390 . S
C183 C186 1.339 . S
C184 C182 1.437 . S
C184 C186 1.422 . S
C184 C217 1.424 1_545 S
C185 H170 0.930 . S
C185 N181 1.334 . S
C185 C183 1.390 . S
C186 C183 1.339 . S
C186 C184 1.422 . S
C186 H193 0.930 1_545 S
N187 Tb152 2.572 . S
N187 C188 1.340 1_655 S
N187 C190 1.361 . S
C188 H174 0.930 . S
C188 N187 1.340 1_455 S
C188 C192 1.407 . S
C189 C190 1.413 1_565 S
C189 C191 1.416 . S
C189 C218 1.427 . S
C190 C182 1.424 . S
C190 N187 1.361 . S
C190 C189 1.413 1_545 S
C191 H180 0.931 . S
C191 C189 1.416 . S
C191 C192 1.332 1_665 S
C192 H171 0.936 . S
C192 C188 1.407 . S
C192 C191 1.332 1_445 S
H193 C186 0.930 1_565 S
H194 C217 0.930 . S
H195 C218 0.929 . S
O196 Tb152 2.465 1_455 S
O196 C216 1.264 1_455 S
O197 Tb152 2.387 1_565 S
O197 C208 1.264 . S
O198 Tb163 2.349 . S
O198 C208 1.243 1_455 S
O199 Tb152 2.428 . S
O199 C216 1.256 . S
O200 Tb152 2.308 1_455 S
O200 C215 1.266 . S
O201 Tb163 2.393 1_545 S
O201 C215 1.248 . S
O202 Tb163 2.465 . S
O202 C227 1.264 . S
O203 Tb163 2.387 1_545 S
O203 C219 1.264 . S
O204 Tb152 2.349 1_455 S
O204 C219 1.243 . S
O205 Tb163 2.428 . S
O205 C227 1.256 . S
O206 Tb163 2.308 1_645 S
O206 C226 1.266 . S
O207 Tb152 2.393 . S
O207 C226 1.248 . S
C208 O197 1.264 . S
C208 O198 1.243 1_655 S
C209 C212 1.399 . S
C209 C214 1.383 1_655 S
C209 C216 1.496 . S
C210 C211 1.399 1_455 S
C210 C214 1.389 . S
C211 C210 1.399 1_655 S
C211 C213 1.380 . S
C211 H228 0.929 . S
C212 C209 1.399 . S
C212 C213 1.392 . S
C212 H229 0.929 . S
C213 C211 1.380 . S
C213 C212 1.392 . S
C213 H230 0.929 . S
C214 C209 1.383 1_455 S
C214 C210 1.389 . S
C214 H231 0.931 . S
C215 O200 1.266 . S
C215 O201 1.248 . S
C216 Tb152 2.802 . S
C216 O196 1.264 1_655 S
C216 O199 1.256 . S
C216 C209 1.496 . S
C217 C184 1.424 1_565 S
C217 H194 0.930 . S
C217 C218 1.328 . S
C218 C189 1.427 . S
C218 H195 0.929 . S
C218 C217 1.328 . S
C219 O203 1.264 . S
C219 O204 1.243 . S
C220 C223 1.399 . S
C220 C224 1.383 . S
C220 C227 1.496 . S
C221 C222 1.399 . S
C221 C224 1.389 . S
C222 C221 1.399 . S
C222 C225 1.380 . S
C222 H232 0.929 . S
C223 C220 1.399 . S
C223 C225 1.392 . S
C223 H233 0.929 . S
C224 C220 1.383 . S
C224 C221 1.389 . S
C224 H234 0.931 1_455 S
C225 C222 1.380 . S
C225 C223 1.392 . S
C225 H235 0.929 . S
C226 O206 1.266 . S
C226 O207 1.248 . S
C227 Tb163 2.802 . S
C227 O202 1.264 . S
C227 O205 1.256 . S
C227 C220 1.496 . S
H228 C211 0.929 . S
H229 C212 0.929 . S
H230 C213 0.929 . S
H231 C214 0.931 . S
H232 C222 0.929 . S
H233 C223 0.929 . S
H234 C224 0.931 1_655 S
H235 C225 0.929 . S
Tb236 N265 2.617 . S
Tb236 N271 2.572 . S
Tb236 O280 2.465 . S
Tb236 O281 2.387 . S
Tb236 O283 2.428 . S
Tb236 O284 2.308 . S
Tb236 O288 2.349 1_545 S
Tb236 O291 2.393 . S
Tb236 C300 2.802 . S
C237 N238 1.379 . S
C237 C240 1.416 . S
C237 C244 1.424 . S
N238 C237 1.379 . S
N238 C241 1.334 . S
N238 Tb247 2.617 . S
C239 C241 1.390 . S
C239 C242 1.339 . S
C239 H259 0.930 . S
C240 C237 1.416 . S
C240 C242 1.416 . S
C240 C246 1.448 . S
C241 N238 1.334 . S
C241 C239 1.390 . S
C241 H252 0.930 . S
C242 C239 1.339 . S
C242 C240 1.416 . S
C242 H263 0.930 . S
C243 C244 1.413 . S
C243 C245 1.427 . S
C243 C249 1.416 . S
C244 C237 1.424 . S
C244 C243 1.413 . S
C244 N248 1.361 . S
C245 C243 1.427 . S
C245 C246 1.328 . S
C245 H260 0.929 . S
C246 C240 1.448 . S
C246 C245 1.328 . S
C246 H261 0.930 . S
Tb247 N238 2.617 . S
Tb247 N248 2.572 . S
Tb247 O282 2.349 1_565 S
Tb247 O285 2.400 . S
Tb247 O286 2.465 1_565 S
Tb247 O287 2.387 . S
Tb247 O289 2.428 . S
Tb247 O290 2.308 1_565 S
Tb247 C311 2.802 1_565 S
N248 C244 1.361 . S
N248 Tb247 2.572 . S
N248 C250 1.340 . S
C249 C243 1.416 . S
C249 C251 1.332 . S
C249 H257 0.931 . S
C250 N248 1.340 . S
C250 C251 1.407 . S
C250 H256 0.930 . S
C251 C249 1.332 . S
C251 C250 1.407 . S
C251 H253 0.929 . S
H252 C241 0.930 . S
H253 C251 0.929 . S
H254 C269 0.930 . S
H255 C276 0.929 . S
H256 C250 0.930 . S
H257 C249 0.931 . S
H258 C272 0.930 . S
H259 C239 0.930 . S
H260 C245 0.929 . S
H261 C246 0.930 . S
H262 C267 0.930 . S
H263 C242 0.930 . S
H264 C275 0.931 . S
N265 Tb236 2.617 . S
N265 C266 1.379 . S
N265 C269 1.334 . S
C266 N265 1.379 . S
C266 C268 1.416 . S
C266 C274 1.424 . S
C267 H262 0.930 . S
C267 C269 1.390 . S
C267 C270 1.339 . S
C268 C266 1.416 . S
C268 C270 1.416 . S
C268 C301 1.448 . S
C269 H254 0.930 . S
C269 N265 1.334 . S
C269 C267 1.390 . S
C270 C267 1.339 . S
C270 C268 1.416 . S
C270 H277 0.930 . S
N271 Tb236 2.572 . S
N271 C272 1.340 . S
N271 C274 1.361 . S
C272 H258 0.930 . S
C272 N271 1.340 . S
C272 C276 1.407 . S
C273 C274 1.413 . S
C273 C275 1.416 . S
C273 C302 1.427 . S
C274 C266 1.424 . S
C274 N271 1.361 . S
C274 C273 1.413 . S
C275 H264 0.931 . S
C275 C273 1.416 . S
C275 C276 1.332 . S
C276 H255 0.929 . S
C276 C272 1.407 . S
C276 C275 1.332 . S
H277 C270 0.930 . S
H278 C301 0.930 . S
H279 C302 0.929 . S
O280 Tb236 2.465 . S
O280 C300 1.264 . S
O281 Tb236 2.387 . S
O281 C292 1.264 . S
O282 Tb247 2.349 1_545 S
O282 C292 1.243 . S
O283 Tb236 2.428 . S
O283 C300 1.256 . S
O284 Tb236 2.308 . S
O284 C299 1.266 . S
O285 Tb247 2.400 . S
O285 C299 1.231 1_565 S
O286 Tb247 2.465 1_545 S
O286 C311 1.264 . S
O287 Tb247 2.387 . S
O287 C303 1.264 . S
O288 Tb236 2.349 1_565 S
O288 C303 1.243 . S
O289 Tb247 2.428 . S
O289 C311 1.256 1_565 S
O290 Tb247 2.308 1_545 S
O290 C310 1.266 . S
O291 Tb236 2.393 . S
O291 C310 1.248 . S
C292 O281 1.264 . S
C292 O282 1.243 . S
C293 C296 1.399 . S
C293 C298 1.383 . S
C293 C300 1.496 . S
C294 C295 1.399 . S
C294 C298 1.389 . S
C295 C294 1.399 . S
C295 C297 1.380 . S
C295 H312 0.929 . S
C296 C293 1.399 . S
C296 C297 1.392 . S
C296 H313 0.929 . S
C297 C295 1.380 . S
C297 C296 1.392 . S
C297 H314 0.929 1_556 S
C298 C293 1.383 . S
C298 C294 1.389 . S
C298 H315 0.931 . S
C299 O284 1.266 . S
C299 O285 1.231 1_545 S
C300 Tb236 2.802 . S
C300 O280 1.264 . S
C300 O283 1.256 . S
C300 C293 1.496 . S
C301 C268 1.448 . S
C301 H278 0.930 . S
C301 C302 1.328 . S
C302 C273 1.427 . S
C302 H279 0.929 . S
C302 C301 1.328 . S
C303 O287 1.264 . S
C303 O288 1.243 . S
C304 C307 1.407 . S
C304 C308 1.383 . S
C304 C311 1.496 . S
C305 C306 1.399 . S
C305 C308 1.389 . S
C306 C305 1.399 . S
C306 C309 1.380 . S
C306 H316 0.929 . S
C307 C304 1.407 . S
C307 C309 1.397 . S
C307 H317 0.918 1_545 S
C308 C304 1.383 . S
C308 C305 1.389 . S
C308 H318 0.931 . S
C309 C306 1.380 . S
C309 C307 1.397 . S
C309 H319 0.933 . S
C310 O290 1.266 . S
C310 O291 1.248 . S
C311 Tb247 2.802 1_545 S
C311 O286 1.264 . S
C311 O289 1.256 1_545 S
C311 C304 1.496 . S
H312 C295 0.929 . S
H313 C296 0.929 . S
H314 C297 0.929 1_554 S
H315 C298 0.931 . S
H316 C306 0.929 . S
H317 C307 0.918 1_565 S
H318 C308 0.931 . S
H319 C309 0.933 . S
Tb320 N349 2.617 . S
Tb320 N355 2.572 . S
Tb320 O364 2.465 . S
Tb320 O365 2.387 . S
Tb320 O367 2.428 . S
Tb320 O368 2.308 . S
Tb320 O372 2.349 . S
Tb320 O375 2.393 . S
Tb320 C384 2.802 . S
C321 N322 1.379 . S
C321 C324 1.416 . S
C321 C328 1.424 . S
N322 C321 1.379 . S
N322 C325 1.334 . S
N322 Tb331 2.617 . S
C323 C325 1.390 . S
C323 C326 1.339 . S
C323 H343 0.930 . S
C324 C321 1.416 . S
C324 C326 1.416 . S
C324 C330 1.448 . S
C325 N322 1.334 . S
C325 C323 1.390 . S
C325 H336 0.930 . S
C326 C323 1.339 . S
C326 C324 1.416 . S
C326 H347 0.930 . S
C327 C328 1.413 . S
C327 C329 1.427 . S
C327 C333 1.416 . S
C328 C321 1.424 . S
C328 C327 1.413 . S
C328 N332 1.361 . S
C329 C327 1.427 . S
C329 C330 1.328 . S
C329 H344 0.929 . S
C330 C324 1.448 . S
C330 C329 1.328 . S
C330 H345 0.930 . S
Tb331 N322 2.617 . S
Tb331 N332 2.572 . S
Tb331 O366 2.349 . S
Tb331 O369 2.393 . S
Tb331 O370 2.465 . S
Tb331 O371 2.387 . S
Tb331 O373 2.428 . S
Tb331 O374 2.308 . S
Tb331 C395 2.802 . S
N332 C328 1.361 . S
N332 Tb331 2.572 . S
N332 C334 1.340 . S
C333 C327 1.416 . S
C333 C335 1.332 . S
C333 H341 0.931 . S
C334 N332 1.340 . S
C334 C335 1.407 . S
C334 H340 0.930 . S
C335 C333 1.332 . S
C335 C334 1.407 . S
C335 H337 0.929 . S
H336 C325 0.930 . S
H337 C335 0.929 . S
H338 C353 0.930 . S
H339 C360 0.929 . S
H340 C334 0.930 . S
H341 C333 0.931 . S
H342 C356 0.930 . S
H343 C323 0.930 . S
H344 C329 0.929 . S
H345 C330 0.930 . S
H346 C351 0.930 . S
H347 C326 0.930 . S
H348 C359 0.931 . S
N349 Tb320 2.617 . S
N349 C350 1.379 . S
N349 C353 1.334 . S
C350 N349 1.379 . S
C350 C352 1.416 . S
C350 C358 1.424 . S
C351 H346 0.930 . S
C351 C353 1.390 . S
C351 C354 1.339 . S
C352 C350 1.416 . S
C352 C354 1.416 . S
C352 C385 1.448 . S
C353 H338 0.930 . S
C353 N349 1.334 . S
C353 C351 1.390 . S
C354 C351 1.339 . S
C354 C352 1.416 . S
C354 H361 0.930 . S
N355 Tb320 2.572 . S
N355 C356 1.340 . S
N355 C358 1.361 . S
C356 H342 0.930 . S
C356 N355 1.340 . S
C356 C360 1.407 . S
C357 C358 1.413 . S
C357 C359 1.416 . S
C357 C386 1.427 . S
C358 C350 1.424 . S
C358 N355 1.361 . S
C358 C357 1.413 . S
C359 H348 0.931 . S
C359 C357 1.416 . S
C359 C360 1.332 . S
C360 H339 0.929 . S
C360 C356 1.407 . S
C360 C359 1.332 . S
H361 C354 0.930 . S
H362 C385 0.930 . S
H363 C386 0.929 . S
O364 Tb320 2.465 . S
O364 C384 1.264 . S
O365 Tb320 2.387 . S
O365 C376 1.264 . S
O366 Tb331 2.349 . S
O366 C376 1.243 . S
O367 Tb320 2.428 . S
O367 C384 1.256 . S
O368 Tb320 2.308 . S
O368 C383 1.266 . S
O369 Tb331 2.393 . S
O369 C383 1.248 . S
O370 Tb331 2.465 . S
O370 C395 1.264 . S
O371 Tb331 2.387 . S
O371 C387 1.264 . S
O372 Tb320 2.349 . S
O372 C387 1.243 . S
O373 Tb331 2.428 . S
O373 C395 1.256 . S
O374 Tb331 2.308 . S
O374 C394 1.266 . S
O375 Tb320 2.393 . S
O375 C394 1.248 . S
C376 O365 1.264 . S
C376 O366 1.243 . S
C377 C380 1.399 . S
C377 C382 1.383 . S
C377 C384 1.496 . S
C378 C379 1.399 . S
C378 C382 1.389 . S
C379 C378 1.399 . S
C379 C381 1.380 . S
C379 H396 0.929 . S
C380 C377 1.399 . S
C380 C381 1.392 . S
C380 H397 0.929 . S
C381 C379 1.380 . S
C381 C380 1.392 . S
C381 H398 0.929 . S
C382 C377 1.383 . S
C382 C378 1.389 . S
C382 H399 0.931 . S
C383 O368 1.266 . S
C383 O369 1.248 . S
C384 Tb320 2.802 . S
C384 O364 1.264 . S
C384 O367 1.256 . S
C384 C377 1.496 . S
C385 C352 1.448 . S
C385 H362 0.930 . S
C385 C386 1.328 . S
C386 C357 1.427 . S
C386 H363 0.929 . S
C386 C385 1.328 . S
C387 O371 1.264 . S
C387 O372 1.243 . S
C388 C391 1.399 . S
C388 C392 1.383 . S
C388 C395 1.496 . S
C389 C390 1.399 . S
C389 C392 1.389 . S
C390 C389 1.399 . S
C390 C393 1.380 . S
C390 H400 0.929 . S
C391 C388 1.399 . S
C391 C393 1.392 . S
C391 H401 0.929 . S
C392 C388 1.383 . S
C392 C389 1.389 . S
C392 H402 0.931 . S
C393 C390 1.380 . S
C393 C391 1.392 . S
C393 H403 0.929 . S
C394 O374 1.266 . S
C394 O375 1.248 . S
C395 Tb331 2.802 . S
C395 O370 1.264 . S
C395 O373 1.256 . S
C395 C388 1.496 . S
H396 C379 0.929 . S
H397 C380 0.929 . S
H398 C381 0.929 . S
H399 C382 0.931 . S
H400 C390 0.929 . S
H401 C391 0.929 . S
H402 C392 0.931 . S
H403 C393 0.929 . S
Tb404 N433 2.617 . S
Tb404 N439 2.572 . S
Tb404 O448 2.465 . S
Tb404 O449 2.387 1_455 S
Tb404 O451 2.428 . S
Tb404 O452 2.308 . S
Tb404 O456 2.349 . S
Tb404 O459 2.393 . S
Tb404 C468 2.802 . S
C405 N406 1.377 . S
C405 C408 1.416 . S
C405 C412 1.424 . S
N406 C405 1.377 . S
N406 C409 1.335 1_455 S
N406 Tb415 2.619 1_455 S
C407 C409 1.390 1_455 S
C407 C410 1.339 . S
C407 H427 0.930 . S
C408 C405 1.416 . S
C408 C410 1.416 . S
C408 C414 1.448 . S
C409 N406 1.335 1_655 S
C409 C407 1.390 1_655 S
C409 H420 0.930 . S
C410 C407 1.339 . S
C410 C408 1.416 . S
C410 H431 0.930 . S
C411 C412 1.413 . S
C411 C413 1.427 . S
C411 C417 1.416 . S
C412 C405 1.424 . S
C412 C411 1.413 . S
C412 N416 1.361 . S
C413 C411 1.427 . S
C413 C414 1.328 . S
C413 H428 0.929 . S
C414 C408 1.448 . S
C414 C413 1.328 . S
C414 H429 0.930 . S
Tb415 N406 2.619 1_655 S
Tb415 N416 2.572 1_655 S
Tb415 O450 2.349 . S
Tb415 O453 2.393 . S
Tb415 O454 2.465 . S
Tb415 O455 2.387 1_655 S
Tb415 O457 2.428 . S
Tb415 O458 2.308 1_655 S
Tb415 C479 2.802 . S
N416 C412 1.361 . S
N416 Tb415 2.572 1_455 S
N416 C418 1.340 . S
C417 C411 1.416 . S
C417 C419 1.332 . S
C417 H425 0.931 . S
C418 N416 1.340 . S
C418 C419 1.407 . S
C418 H424 0.930 . S
C419 C417 1.332 . S
C419 C418 1.407 . S
C419 H421 0.929 . S
H420 C409 0.930 . S
H421 C419 0.929 . S
H422 C437 0.930 . S
H423 C444 0.929 . S
H424 C418 0.930 . S
H425 C417 0.931 . S
H426 C440 0.930 . S
H427 C407 0.930 . S
H428 C413 0.929 . S
H429 C414 0.930 . S
H430 C435 0.930 . S
H431 C410 0.930 . S
H432 C443 0.931 . S
N433 Tb404 2.617 . S
N433 C434 1.379 . S
N433 C437 1.334 . S
C434 N433 1.379 . S
C434 C436 1.416 1_455 S
C434 C442 1.424 . S
C435 H430 0.930 . S
C435 C437 1.390 . S
C435 C438 1.320 1_455 S
C436 C434 1.416 1_655 S
C436 C438 1.420 . S
C436 C469 1.448 . S
C437 H422 0.930 . S
C437 N433 1.334 . S
C437 C435 1.390 . S
C438 C435 1.320 1_655 S
C438 C436 1.420 . S
C438 H445 0.946 . S
N439 Tb404 2.572 . S
N439 C440 1.340 . S
N439 C442 1.361 . S
C440 H426 0.930 . S
C440 N439 1.340 . S
C440 C444 1.407 1_455 S
C441 C442 1.413 1_655 S
C441 C443 1.416 . S
C441 C470 1.427 . S
C442 C434 1.424 . S
C442 N439 1.361 . S
C442 C441 1.413 1_455 S
C443 H432 0.931 . S
C443 C441 1.416 . S
C443 C444 1.332 . S
C444 H423 0.929 . S
C444 C440 1.407 1_655 S
C444 C443 1.332 . S
H445 C438 0.946 . S
H446 C469 0.930 . S
H447 C470 0.929 . S
O448 Tb404 2.465 . S
O448 C468 1.264 . S
O449 Tb404 2.387 1_655 S
O449 C460 1.264 . S
O450 Tb415 2.349 . S
O450 C460 1.243 . S
O451 Tb404 2.428 . S
O451 C468 1.256 . S
O452 Tb404 2.308 . S
O452 C467 1.266 . S
O453 Tb415 2.393 . S
O453 C467 1.248 1_655 S
O454 Tb415 2.465 . S
O454 C479 1.264 . S
O455 Tb415 2.387 1_455 S
O455 C471 1.264 . S
O456 Tb404 2.349 . S
O456 C471 1.243 . S
O457 Tb415 2.428 . S
O457 C479 1.256 . S
O458 Tb415 2.308 1_455 S
O458 C478 1.266 . S
O459 Tb404 2.393 . S
O459 C478 1.248 . S
C460 O449 1.264 . S
C460 O450 1.243 . S
C461 C464 1.399 . S
C461 C466 1.383 . S
C461 C468 1.496 . S
C462 C463 1.399 . S
C462 C466 1.389 . S
C463 C462 1.399 . S
C463 C465 1.380 . S
C463 H480 0.929 . S
C464 C461 1.399 . S
C464 C465 1.392 . S
C464 H481 0.929 . S
C465 C463 1.380 . S
C465 C464 1.392 . S
C465 H482 0.929 . S
C466 C461 1.383 . S
C466 C462 1.389 . S
C466 H483 0.931 . S
C467 O452 1.266 . S
C467 O453 1.248 1_455 S
C468 Tb404 2.802 . S
C468 O448 1.264 . S
C468 O451 1.256 . S
C468 C461 1.496 . S
C469 C436 1.448 . S
C469 H446 0.930 . S
C469 C470 1.328 . S
C470 C441 1.427 . S
C470 H447 0.929 . S
C470 C469 1.328 . S
C471 O455 1.264 . S
C471 O456 1.243 . S
C472 C475 1.399 . S
C472 C476 1.383 . S
C472 C479 1.496 . S
C473 C474 1.399 . S
C473 C476 1.389 . S
C474 C473 1.399 . S
C474 C477 1.380 . S
C474 H484 0.929 . S
C475 C472 1.399 . S
C475 C477 1.392 . S
C475 H485 0.929 . S
C476 C472 1.383 . S
C476 C473 1.389 . S
C476 H486 0.931 . S
C477 C474 1.380 . S
C477 C475 1.392 . S
C477 H487 0.929 . S
C478 O458 1.266 . S
C478 O459 1.248 . S
C479 Tb415 2.802 . S
C479 O454 1.264 . S
C479 O457 1.256 . S
C479 C472 1.496 . S
H480 C463 0.929 . S
H481 C464 0.929 . S
H482 C465 0.929 . S
H483 C466 0.931 . S
H484 C474 0.929 . S
H485 C475 0.929 . S
H486 C476 0.931 . S
H487 C477 0.929 . S
H488 C506 0.951 . S
H489 C508 0.951 . S
H490 C510 0.950 . S
H491 C511 0.950 . S
H492 C513 0.950 . S
H493 C516 0.950 . S
H494 C517 0.950 . S
H495 C519 0.950 . S
H496 C520 0.950 . S
H497 C521 0.951 . S
H498 C523 0.951 . S
H499 C525 0.950 . S
H500 C526 0.950 . S
H501 C528 0.950 . S
H502 C531 0.950 . S
H503 C532 0.950 . S
H504 C534 0.950 . S
H505 C535 0.950 . S
C506 H488 0.951 . S
C506 C507 1.366 . S
C506 C508 1.388 . S
C507 C506 1.366 . S
C507 C511 1.385 . S
C508 H489 0.951 . S
C508 C506 1.388 . S
C508 C509 1.366 . S
C509 C508 1.366 . S
C509 C510 1.414 . S
C509 C512 1.499 . S
C510 H490 0.950 . S
C510 C509 1.414 . S
C510 C511 1.374 . S
C511 H491 0.950 . S
C511 C507 1.385 . S
C511 C510 1.374 . S
C512 C509 1.499 . S
C512 C513 1.373 . S
C512 C514 1.389 . S
C513 H492 0.950 . S
C513 C512 1.373 . S
C513 C529 1.377 . S
C514 C512 1.389 . S
C514 C515 1.524 1_545 S
C514 C528 1.377 . S
C515 C514 1.524 1_565 S
C515 C516 1.397 . S
C515 C520 1.363 . S
C516 H493 0.950 . S
C516 C515 1.397 . S
C516 C517 1.334 . S
C517 H494 0.950 . S
C517 C516 1.334 . S
C517 C518 1.287 . S
C518 C517 1.287 . S
C518 C519 1.524 . S
C518 H537 0.913 . S
C519 H495 0.950 . S
C519 C518 1.524 . S
C519 C520 1.415 . S
C520 H496 0.950 . S
C520 C515 1.363 . S
C520 C519 1.415 . S
C521 H497 0.951 . S
C521 C522 1.366 . S
C521 C523 1.388 . S
C522 C521 1.366 . S
C522 C526 1.385 . S
C523 H498 0.951 . S
C523 C521 1.388 . S
C523 C524 1.366 . S
C524 C523 1.366 . S
C524 C525 1.414 . S
C524 C527 1.499 . S
C525 H499 0.950 . S
C525 C524 1.414 . S
C525 C526 1.374 . S
C526 H500 0.950 . S
C526 C522 1.385 . S
C526 C525 1.374 . S
C527 C524 1.499 . S
C527 C528 1.373 . S
C527 C529 1.389 . S
C528 H501 0.950 . S
C528 C514 1.377 . S
C528 C527 1.373 . S
C529 C513 1.377 . S
C529 C527 1.389 . S
C529 C530 1.524 . S
C530 C529 1.524 . S
C530 C531 1.397 . S
C530 C535 1.363 . S
C531 H502 0.950 . S
C531 C530 1.397 . S
C531 C532 1.334 . S
C532 H503 0.950 . S
C532 C531 1.334 . S
C532 C533 1.287 . S
C533 C532 1.287 . S
C533 C534 1.524 . S
C533 H536 0.999 . S
C534 H504 0.950 . S
C534 C533 1.524 . S
C534 C535 1.415 . S
C535 H505 0.950 . S
C535 C530 1.363 . S
C535 C534 1.415 . S
H536 C533 0.999 . S
H537 C518 0.913 . S
H538 C556 0.951 . S
H539 C558 0.951 . S
H540 C560 0.950 . S
H541 C561 0.950 . S
H542 C563 0.950 . S
H543 C566 0.950 . S
H544 C567 0.950 . S
H545 C569 0.950 . S
H546 C570 0.950 . S
H547 C571 0.951 . S
H548 C573 0.951 . S
H549 C575 0.950 . S
H550 C576 0.950 . S
H551 C578 0.950 . S
H552 C581 0.950 . S
H553 C582 0.950 . S
H554 C584 0.950 . S
H555 C585 0.950 . S
C556 H538 0.951 . S
C556 C557 1.366 . S
C556 C558 1.388 . S
C557 C556 1.366 . S
C557 C561 1.385 . S
C558 H539 0.951 . S
C558 C556 1.388 . S
C558 C559 1.366 . S
C559 C558 1.366 . S
C559 C560 1.414 . S
C559 C562 1.499 . S
C560 H540 0.950 . S
C560 C559 1.414 . S
C560 C561 1.374 . S
C561 H541 0.950 . S
C561 C557 1.385 . S
C561 C560 1.374 . S
C562 C559 1.499 . S
C562 C563 1.373 . S
C562 C564 1.389 . S
C563 H542 0.950 . S
C563 C562 1.373 . S
C563 C579 1.377 . S
C564 C562 1.389 . S
C564 C565 1.524 . S
C564 C578 1.377 . S
C565 C564 1.524 . S
C565 C566 1.397 . S
C565 C570 1.363 . S
C566 H543 0.950 . S
C566 C565 1.397 . S
C566 C567 1.334 . S
C567 H544 0.950 . S
C567 C566 1.334 . S
C567 C568 1.287 . S
C568 C567 1.287 . S
C568 C569 1.524 . S
C568 H587 0.913 . S
C569 H545 0.950 . S
C569 C568 1.524 . S
C569 C570 1.415 . S
C570 H546 0.950 . S
C570 C565 1.363 . S
C570 C569 1.415 . S
C571 H547 0.951 . S
C571 C572 1.366 . S
C571 C573 1.388 . S
C572 C571 1.366 . S
C572 C576 1.385 . S
C573 H548 0.951 . S
C573 C571 1.388 . S
C573 C574 1.366 . S
C574 C573 1.366 . S
C574 C575 1.414 . S
C574 C577 1.499 . S
C575 H549 0.950 . S
C575 C574 1.414 . S
C575 C576 1.374 . S
C576 H550 0.950 . S
C576 C572 1.385 . S
C576 C575 1.374 . S
C577 C574 1.499 . S
C577 C578 1.373 . S
C577 C579 1.389 . S
C578 H551 0.950 . S
C578 C564 1.377 . S
C578 C577 1.373 . S
C579 C563 1.377 . S
C579 C577 1.389 . S
C579 C580 1.524 . S
C580 C579 1.524 . S
C580 C581 1.397 . S
C580 C585 1.363 . S
C581 H552 0.950 . S
C581 C580 1.397 . S
C581 C582 1.334 . S
C582 H553 0.950 . S
C582 C581 1.334 . S
C582 C583 1.287 . S
C583 C582 1.287 . S
C583 C584 1.524 . S
C583 H586 0.999 . S
C584 H554 0.950 . S
C584 C583 1.524 . S
C584 C585 1.415 . S
C585 H555 0.950 . S
C585 C580 1.363 . S
C585 C584 1.415 . S
H586 C583 0.999 . S
H587 C568 0.913 . S
H588 C606 0.951 . S
H589 C608 0.951 . S
H590 C610 0.950 . S
H591 C611 0.950 . S
H592 C613 0.950 . S
H593 C616 0.950 . S
H594 C617 0.950 . S
H595 C619 0.950 . S
H596 C620 0.950 . S
H597 C621 0.951 . S
H598 C623 0.951 . S
H599 C625 0.950 . S
H600 C626 0.950 . S
H601 C628 0.950 . S
H602 C631 0.950 . S
H603 C632 0.950 . S
H604 C634 0.950 . S
H605 C635 0.950 . S
C606 H588 0.951 . S
C606 C607 1.366 . S
C606 C608 1.388 . S
C607 C606 1.366 . S
C607 C611 1.385 . S
C608 H589 0.951 . S
C608 C606 1.388 . S
C608 C609 1.366 . S
C609 C608 1.366 . S
C609 C610 1.414 . S
C609 C612 1.499 . S
C610 H590 0.950 . S
C610 C609 1.414 . S
C610 C611 1.374 . S
C611 H591 0.950 . S
C611 C607 1.385 . S
C611 C610 1.374 . S
C612 C609 1.499 . S
C612 C613 1.373 . S
C612 C614 1.389 . S
C613 H592 0.950 . S
C613 C612 1.373 . S
C613 C629 1.377 . S
C614 C612 1.389 . S
C614 C615 1.524 . S
C614 C628 1.377 . S
C615 C614 1.524 . S
C615 C616 1.397 . S
C615 C620 1.363 . S
C616 H593 0.950 . S
C616 C615 1.397 . S
C616 C617 1.334 . S
C617 H594 0.950 . S
C617 C616 1.334 . S
C617 C618 1.287 . S
C618 C617 1.287 . S
C618 C619 1.524 . S
C618 H637 0.913 . S
C619 H595 0.950 . S
C619 C618 1.524 . S
C619 C620 1.415 . S
C620 H596 0.950 . S
C620 C615 1.363 . S
C620 C619 1.415 . S
C621 H597 0.951 . S
C621 C622 1.366 . S
C621 C623 1.388 . S
C622 C621 1.366 . S
C622 C626 1.385 . S
C623 H598 0.951 . S
C623 C621 1.388 . S
C623 C624 1.366 . S
C624 C623 1.366 . S
C624 C625 1.414 . S
C624 C627 1.499 . S
C625 H599 0.950 . S
C625 C624 1.414 . S
C625 C626 1.374 . S
C626 H600 0.950 . S
C626 C622 1.385 . S
C626 C625 1.374 . S
C627 C624 1.499 . S
C627 C628 1.373 . S
C627 C629 1.389 . S
C628 H601 0.950 . S
C628 C614 1.377 . S
C628 C627 1.373 . S
C629 C613 1.377 . S
C629 C627 1.389 . S
C629 C630 1.524 . S
C630 C629 1.524 . S
C630 C631 1.397 . S
C630 C635 1.363 . S
C631 H602 0.950 . S
C631 C630 1.397 . S
C631 C632 1.334 . S
C632 H603 0.950 . S
C632 C631 1.334 . S
C632 C633 1.287 . S
C633 C632 1.287 . S
C633 C634 1.524 . S
C633 H636 0.999 . S
C634 H604 0.950 . S
C634 C633 1.524 . S
C634 C635 1.415 . S
C635 H605 0.950 . S
C635 C630 1.363 . S
C635 C634 1.415 . S
H636 C633 0.999 . S
H637 C618 0.913 . S
H638 C656 0.951 . S
H639 C658 0.951 . S
H640 C660 0.950 . S
H641 C661 0.950 . S
H642 C663 0.950 . S
H643 C666 0.950 . S
H644 C667 0.950 . S
H645 C669 0.950 . S
H646 C670 0.950 . S
H647 C671 0.951 . S
H648 C673 0.951 . S
H649 C675 0.950 1_655 S
H650 C676 1.005 . S
H651 C678 0.950 1_655 S
H652 C681 0.950 . S
H653 C682 0.950 . S
H654 C684 0.950 . S
H655 C685 0.950 . S
C656 H638 0.951 . S
C656 C657 1.366 . S
C656 C658 1.388 . S
C657 C656 1.366 . S
C657 C661 1.385 . S
C658 H639 0.951 . S
C658 C656 1.388 . S
C658 C659 1.366 . S
C659 C658 1.366 . S
C659 C660 1.414 . S
C659 C662 1.499 . S
C660 H640 0.950 . S
C660 C659 1.414 . S
C660 C661 1.374 . S
C661 H641 0.950 . S
C661 C657 1.385 . S
C661 C660 1.374 . S
C662 C659 1.499 . S
C662 C663 1.373 . S
C662 C664 1.389 . S
C663 H642 0.950 . S
C663 C662 1.373 . S
C663 C679 1.377 . S
C664 C662 1.389 . S
C664 C665 1.524 1_455 S
C664 C678 1.377 . S
C665 C664 1.524 1_655 S
C665 C666 1.397 1_655 S
C665 C670 1.363 . S
C666 H643 0.950 . S
C666 C665 1.397 1_455 S
C666 C667 1.334 1_455 S
C667 H644 0.950 . S
C667 C666 1.334 1_655 S
C667 C668 1.287 . S
C668 C667 1.287 . S
C668 C669 1.524 . S
C668 H687 0.913 . S
C669 H645 0.950 . S
C669 C668 1.524 . S
C669 C670 1.415 . S
C670 H646 0.950 . S
C670 C665 1.363 . S
C670 C669 1.415 . S
C671 H647 0.951 . S
C671 C672 1.366 . S
C671 C673 1.388 . S
C672 C671 1.366 . S
C672 C676 1.339 1_455 S
C673 H648 0.951 . S
C673 C671 1.388 . S
C673 C674 1.366 . S
C674 C673 1.366 . S
C674 C675 1.414 . S
C674 C677 1.499 . S
C675 H649 0.950 1_455 S
C675 C674 1.414 . S
C675 C676 1.367 1_455 S
C676 H650 1.005 . S
C676 C672 1.339 1_655 S
C676 C675 1.367 1_655 S
C677 C674 1.499 . S
C677 C678 1.373 . S
C677 C679 1.389 . S
C678 H651 0.950 1_455 S
C678 C664 1.377 . S
C678 C677 1.373 . S
C679 C663 1.377 . S
C679 C677 1.389 . S
C679 C680 1.524 . S
C680 C679 1.524 . S
C680 C681 1.397 . S
C680 C685 1.363 . S
C681 H652 0.950 . S
C681 C680 1.397 . S
C681 C682 1.334 . S
C682 H653 0.950 . S
C682 C681 1.334 . S
C682 C683 1.287 . S
C683 C682 1.287 . S
C683 C684 1.524 . S
C683 H686 0.999 . S
C684 H654 0.950 . S
C684 C683 1.524 . S
C684 C685 1.415 . S
C685 H655 0.950 . S
C685 C680 1.363 . S
C685 C684 1.415 . S
H686 C683 0.999 . S
H687 C668 0.913 . S
H688 C706 0.951 . S
H689 C708 0.951 1_556 S
H690 C710 0.950 . S
H691 C711 0.950 . S
H692 C713 0.950 1_554 S
H693 C716 0.952 . S
H694 C717 0.950 . S
H695 C719 0.950 . S
H696 C720 0.950 . S
H697 C721 0.951 . S
H698 C723 0.951 . S
H699 C725 0.950 . S
H700 C726 0.950 . S
H701 C728 0.950 . S
H702 C731 0.950 . S
H703 C732 0.950 . S
H704 C734 0.950 1_554 S
H705 C735 0.950 1_554 S
C706 H688 0.951 . S
C706 C707 1.366 . S
C706 C708 1.388 . S
C707 C706 1.366 . S
C707 C711 1.385 . S
C708 H689 0.951 1_554 S
C708 C706 1.388 . S
C708 C709 1.366 . S
C709 C708 1.366 . S
C709 C710 1.414 . S
C709 C712 1.499 1_554 S
C710 H690 0.950 . S
C710 C709 1.414 . S
C710 C711 1.374 . S
C711 H691 0.950 . S
C711 C707 1.385 . S
C711 C710 1.374 . S
C712 C709 1.499 1_556 S
C712 C713 1.373 1_565 S
C712 C714 1.389 . S
C713 H692 0.950 1_556 S
C713 C712 1.373 1_545 S
C713 C729 1.377 . S
C714 C712 1.389 . S
C714 C715 1.524 . S
C714 C728 1.377 . S
C715 C714 1.524 . S
C715 C716 1.394 1_556 S
C715 C720 1.363 . S
C716 H693 0.952 . S
C716 C715 1.394 1_554 S
C716 C717 1.334 . S
C717 H694 0.950 . S
C717 C716 1.334 . S
C717 C718 1.287 1_554 S
C718 C717 1.287 1_556 S
C718 C719 1.524 . S
C718 H737 0.913 . S
C719 H695 0.950 . S
C719 C718 1.524 . S
C719 C720 1.415 . S
C720 H696 0.950 . S
C720 C715 1.363 . S
C720 C719 1.415 . S
C721 H697 0.951 . S
C721 C722 1.366 . S
C721 C723 1.388 . S
C722 C721 1.366 . S
C722 C726 1.385 1_545 S
C723 H698 0.951 . S
C723 C721 1.388 . S
C723 C724 1.366 1_545 S
C724 C723 1.366 1_565 S
C724 C725 1.414 . S
C724 C727 1.499 . S
C725 H699 0.950 . S
C725 C724 1.414 . S
C725 C726 1.374 . S
C726 H700 0.950 . S
C726 C722 1.385 1_565 S
C726 C725 1.374 . S
C727 C724 1.499 . S
C727 C728 1.373 . S
C727 C729 1.389 1_565 S
C728 H701 0.950 . S
C728 C714 1.377 . S
C728 C727 1.373 . S
C729 C713 1.377 . S
C729 C727 1.389 1_545 S
C729 C730 1.524 . S
C730 C729 1.524 . S
C730 C731 1.397 . S
C730 C735 1.363 . S
C731 H702 0.950 . S
C731 C730 1.397 . S
C731 C732 1.334 . S
C732 H703 0.950 . S
C732 C731 1.334 . S
C732 C733 1.287 . S
C733 C732 1.287 . S
C733 C734 1.524 . S
C733 H736 0.999 . S
C734 H704 0.950 1_556 S
C734 C733 1.524 . S
C734 C735 1.415 . S
C735 H705 0.950 1_556 S
C735 C730 1.363 . S
C735 C734 1.415 . S
H736 C733 0.999 . S
H737 C718 0.913 . S
H738 C756 0.951 . S
H739 C758 0.951 . S
H740 C760 0.950 . S
H741 C761 0.950 . S
H742 C763 0.950 . S
H743 C766 0.950 . S
H744 C767 0.950 . S
H745 C769 0.950 . S
H746 C770 0.950 . S
H747 C771 0.951 . S
H748 C773 0.951 . S
H749 C775 0.950 . S
H750 C776 0.950 . S
H751 C778 0.950 . S
H752 C781 0.950 . S
H753 C782 0.950 . S
H754 C784 0.950 . S
H755 C785 0.950 . S
C756 H738 0.951 . S
C756 C757 1.366 . S
C756 C758 1.388 . S
C757 C756 1.366 . S
C757 C761 1.385 . S
C758 H739 0.951 . S
C758 C756 1.388 . S
C758 C759 1.366 . S
C759 C758 1.366 . S
C759 C760 1.414 . S
C759 C762 1.499 1_554 S
C760 H740 0.950 . S
C760 C759 1.414 . S
C760 C761 1.374 . S
C761 H741 0.950 . S
C761 C757 1.385 . S
C761 C760 1.374 . S
C762 C759 1.499 1_556 S
C762 C763 1.373 1_556 S
C762 C764 1.389 . S
C763 H742 0.950 . S
C763 C762 1.373 1_554 S
C763 C779 1.377 1_554 S
C764 C762 1.389 . S
C764 C765 1.524 . S
C764 C778 1.377 . S
C765 C764 1.524 . S
C765 C766 1.397 . S
C765 C770 1.363 . S
C766 H743 0.950 . S
C766 C765 1.397 . S
C766 C767 1.334 . S
C767 H744 0.950 . S
C767 C766 1.334 . S
C767 C768 1.287 . S
C768 C767 1.287 . S
C768 C769 1.524 . S
C768 H787 0.913 . S
C769 H745 0.950 . S
C769 C768 1.524 . S
C769 C770 1.415 . S
C770 H746 0.950 . S
C770 C765 1.363 . S
C770 C769 1.415 . S
C771 H747 0.951 . S
C771 C772 1.366 . S
C771 C773 1.388 . S
C772 C771 1.366 . S
C772 C776 1.385 . S
C773 H748 0.951 . S
C773 C771 1.388 . S
C773 C774 1.366 . S
C774 C773 1.366 . S
C774 C775 1.414 . S
C774 C777 1.499 . S
C775 H749 0.950 . S
C775 C774 1.414 . S
C775 C776 1.374 . S
C776 H750 0.950 . S
C776 C772 1.385 . S
C776 C775 1.374 . S
C777 C774 1.499 . S
C777 C778 1.373 . S
C777 C779 1.389 . S
C778 H751 0.950 . S
C778 C764 1.377 . S
C778 C777 1.373 . S
C779 C763 1.377 1_556 S
C779 C777 1.389 . S
C779 C780 1.524 . S
C780 C779 1.524 . S
C780 C781 1.397 . S
C780 C785 1.363 1_556 S
C781 H752 0.950 . S
C781 C780 1.397 . S
C781 C782 1.334 1_556 S
C782 H753 0.950 . S
C782 C781 1.334 1_554 S
C782 C783 1.287 . S
C783 C782 1.287 . S
C783 C784 1.524 . S
C783 H786 0.999 . S
C784 H754 0.950 . S
C784 C783 1.524 . S
C784 C785 1.415 . S
C785 H755 0.950 . S
C785 C780 1.363 1_554 S
C785 C784 1.415 . S
H786 C783 0.999 . S
H787 C768 0.913 . S
H788 C806 0.951 . S
H789 C808 0.951 . S
H790 C810 0.950 1_556 S
H791 C811 0.950 . S
H792 C813 0.950 . S
H793 C816 0.950 . S
H794 C817 0.950 . S
H795 C819 0.950 . S
H796 C820 0.950 . S
H797 C821 0.951 . S
H798 C823 0.951 . S
H799 C825 0.950 . S
H800 C826 0.950 . S
H801 C828 0.950 . S
H802 C831 0.950 . S
H803 C832 0.950 . S
H804 C834 0.950 . S
H805 C835 0.950 . S
C806 H788 0.951 . S
C806 C807 1.366 . S
C806 C808 1.388 . S
C807 C806 1.366 . S
C807 C811 1.385 . S
C808 H789 0.951 . S
C808 C806 1.388 . S
C808 C809 1.366 . S
C809 C808 1.366 . S
C809 C810 1.414 . S
C809 C812 1.499 1_554 S
C810 H790 0.950 1_554 S
C810 C809 1.414 . S
C810 C811 1.374 . S
C811 H791 0.950 . S
C811 C807 1.385 . S
C811 C810 1.374 . S
C812 C809 1.499 1_556 S
C812 C813 1.373 . S
C812 C814 1.389 . S
C813 H792 0.950 . S
C813 C812 1.373 . S
C813 C829 1.377 . S
C814 C812 1.389 . S
C814 C815 1.524 1_556 S
C814 C828 1.377 . S
C815 C814 1.524 1_554 S
C815 C816 1.397 . S
C815 C820 1.363 . S
C816 H793 0.950 . S
C816 C815 1.397 . S
C816 C817 1.334 . S
C817 H794 0.950 . S
C817 C816 1.334 . S
C817 C818 1.287 . S
C818 C817 1.287 . S
C818 C819 1.524 . S
C818 H837 0.913 . S
C819 H795 0.950 . S
C819 C818 1.524 . S
C819 C820 1.415 . S
C820 H796 0.950 . S
C820 C815 1.363 . S
C820 C819 1.415 . S
C821 H797 0.951 . S
C821 C822 1.366 . S
C821 C823 1.388 . S
C822 C821 1.366 . S
C822 C826 1.385 . S
C823 H798 0.951 . S
C823 C821 1.388 . S
C823 C824 1.366 . S
C824 C823 1.366 . S
C824 C825 1.414 . S
C824 C827 1.499 . S
C825 H799 0.950 . S
C825 C824 1.414 . S
C825 C826 1.374 . S
C826 H800 0.950 . S
C826 C822 1.385 . S
C826 C825 1.374 . S
C827 C824 1.499 . S
C827 C828 1.373 . S
C827 C829 1.389 . S
C828 H801 0.950 . S
C828 C814 1.377 . S
C828 C827 1.373 . S
C829 C813 1.377 . S
C829 C827 1.389 . S
C829 C830 1.524 . S
C830 C829 1.524 . S
C830 C831 1.397 . S
C830 C835 1.363 . S
C831 H802 0.950 . S
C831 C830 1.397 . S
C831 C832 1.334 . S
C832 H803 0.950 . S
C832 C831 1.334 . S
C832 C833 1.287 . S
C833 C832 1.287 . S
C833 C834 1.524 . S
C833 H836 0.999 . S
C834 H804 0.950 . S
C834 C833 1.524 . S
C834 C835 1.415 . S
C835 H805 0.950 . S
C835 C830 1.363 . S
C835 C834 1.415 . S
H836 C833 0.999 . S
H837 C818 0.913 . S
H838 C856 0.951 1_455 S
H839 C858 0.951 1_455 S
H840 C860 0.950 . S
H841 C861 0.950 . S
H842 C863 0.950 1_554 S
H843 C866 0.950 . S
H844 C867 0.950 1_655 S
H845 C869 0.950 . S
H846 C870 0.950 . S
H847 C871 0.951 . S
H848 C873 0.951 . S
H849 C875 0.950 . S
H850 C876 0.950 . S
H851 C878 0.993 . S
H852 C881 0.950 . S
H853 C882 0.950 . S
H854 C884 0.950 1_554 S
H855 C885 0.950 . S
C856 H838 0.951 1_655 S
C856 C857 1.366 . S
C856 C858 1.388 . S
C857 C856 1.366 . S
C857 C861 1.385 . S
C858 H839 0.951 1_655 S
C858 C856 1.388 . S
C858 C859 1.366 . S
C859 C858 1.366 . S
C859 C860 1.414 . S
C859 C862 1.499 1_554 S
C860 H840 0.950 . S
C860 C859 1.414 . S
C860 C861 1.374 . S
C861 H841 0.950 . S
C861 C857 1.385 . S
C861 C860 1.374 . S
C862 C859 1.499 1_556 S
C862 C863 1.373 . S
C862 C864 1.389 . S
C863 H842 0.950 1_556 S
C863 C862 1.373 . S
C863 C879 1.377 . S
C864 C862 1.389 . S
C864 C865 1.524 1_655 S
C864 C878 1.367 1_655 S
C865 C864 1.524 1_455 S
C865 C866 1.397 1_455 S
C865 C870 1.363 . S
C866 H843 0.950 . S
C866 C865 1.397 1_655 S
C866 C867 1.334 1_655 S
C867 H844 0.950 1_455 S
C867 C866 1.334 1_455 S
C867 C868 1.287 . S
C868 C867 1.287 . S
C868 C869 1.524 . S
C868 H887 0.913 . S
C869 H845 0.950 . S
C869 C868 1.524 . S
C869 C870 1.415 . S
C870 H846 0.950 . S
C870 C865 1.363 . S
C870 C869 1.415 . S
C871 H847 0.951 . S
C871 C872 1.366 . S
C871 C873 1.388 . S
C872 C871 1.366 . S
C872 C876 1.385 1_655 S
C873 H848 0.951 . S
C873 C871 1.388 . S
C873 C874 1.366 . S
C874 C873 1.366 . S
C874 C875 1.414 1_655 S
C874 C877 1.499 . S
C875 H849 0.950 . S
C875 C874 1.414 1_455 S
C875 C876 1.374 . S
C876 H850 0.950 . S
C876 C872 1.385 1_455 S
C876 C875 1.374 . S
C877 C874 1.499 . S
C877 C878 1.344 1_655 S
C877 C879 1.389 . S
C878 H851 0.993 . S
C878 C864 1.367 1_455 S
C878 C877 1.344 1_455 S
C879 C863 1.377 . S
C879 C877 1.389 . S
C879 C880 1.524 . S
C880 C879 1.524 . S
C880 C881 1.397 . S
C880 C885 1.363 . S
C881 H852 0.950 . S
C881 C880 1.397 . S
C881 C882 1.334 . S
C882 H853 0.950 . S
C882 C881 1.334 . S
C882 C883 1.287 1_556 S
C883 C882 1.287 1_554 S
C883 C884 1.524 1_554 S
C883 H886 0.999 . S
C884 H854 0.950 1_556 S
C884 C883 1.524 1_556 S
C884 C885 1.415 . S
C885 H855 0.950 . S
C885 C880 1.363 . S
C885 C884 1.415 . S
H886 C883 0.999 . S
H887 C868 0.913 . S
H888 C906 0.951 . S
H889 C908 0.951 . S
H890 C910 0.950 . S
H891 C911 0.950 . S
H892 C913 0.950 . S
H893 C916 0.974 . S
H894 C917 0.950 . S
H895 C919 0.950 . S
H896 C920 0.950 . S
H897 C921 0.951 . S
H898 C923 0.951 . S
H899 C925 0.950 1_655 S
H900 C926 0.918 1_655 S
H901 C928 0.950 1_655 S
H902 C931 0.950 . S
H903 C932 0.950 . S
H904 C934 0.950 . S
H905 C935 0.950 . S
C906 H888 0.951 . S
C906 C907 1.366 . S
C906 C908 1.388 . S
C907 C906 1.366 . S
C907 C911 1.385 . S
C908 H889 0.951 . S
C908 C906 1.388 . S
C908 C909 1.366 . S
C909 C908 1.366 . S
C909 C910 1.414 . S
C909 C912 1.499 . S
C910 H890 0.950 . S
C910 C909 1.414 . S
C910 C911 1.374 . S
C911 H891 0.950 . S
C911 C907 1.385 . S
C911 C910 1.374 . S
C912 C909 1.499 . S
C912 C913 1.373 . S
C912 C914 1.389 . S
C913 H892 0.950 . S
C913 C912 1.373 . S
C913 C929 1.377 . S
C914 C912 1.389 . S
C914 C915 1.524 1_455 S
C914 C928 1.377 . S
C915 C914 1.524 1_655 S
C915 C916 1.397 . S
C915 C920 1.363 . S
C916 H893 0.974 . S
C916 C915 1.397 . S
C916 C917 1.334 . S
C917 H894 0.950 . S
C917 C916 1.334 . S
C917 C918 1.287 . S
C918 C917 1.287 . S
C918 C919 1.524 . S
C918 H937 0.913 . S
C919 H895 0.950 . S
C919 C918 1.524 . S
C919 C920 1.415 . S
C920 H896 0.950 . S
C920 C915 1.363 . S
C920 C919 1.415 . S
C921 H897 0.951 . S
C921 C922 1.366 . S
C921 C923 1.388 . S
C922 C921 1.366 . S
C922 C926 1.409 . S
C923 H898 0.951 . S
C923 C921 1.388 . S
C923 C924 1.366 . S
C924 C923 1.366 . S
C924 C925 1.414 . S
C924 C927 1.499 . S
C925 H899 0.950 1_455 S
C925 C924 1.414 . S
C925 C926 1.384 . S
C926 H900 0.918 1_455 S
C926 C922 1.409 . S
C926 C925 1.384 . S
C927 C924 1.499 . S
C927 C928 1.373 . S
C927 C929 1.389 . S
C928 H901 0.950 1_455 S
C928 C914 1.377 . S
C928 C927 1.373 . S
C929 C913 1.377 . S
C929 C927 1.389 . S
C929 C930 1.524 . S
C930 C929 1.524 . S
C930 C931 1.397 . S
C930 C935 1.363 . S
C931 H902 0.950 . S
C931 C930 1.397 . S
C931 C932 1.334 . S
C932 H903 0.950 . S
C932 C931 1.334 . S
C932 C933 1.287 . S
C933 C932 1.287 . S
C933 C934 1.524 . S
C933 H936 0.999 . S
C934 H904 0.950 . S
C934 C933 1.524 . S
C934 C935 1.415 . S
C935 H905 0.950 . S
C935 C930 1.363 . S
C935 C934 1.415 . S
H936 C933 0.999 . S
H937 C918 0.913 . S
H938 C956 0.951 . S
H939 C958 0.951 . S
H940 C960 0.950 . S
H941 C961 0.950 . S
H942 C963 0.950 . S
H943 C966 0.950 . S
H944 C967 0.950 . S
H945 C969 0.950 1_556 S
H946 C970 0.950 . S
H947 C971 0.951 . S
H948 C973 0.951 . S
H949 C975 0.950 . S
H950 C976 0.950 . S
H951 C978 0.950 . S
H952 C981 0.950 . S
H953 C982 0.950 . S
H954 C984 0.950 . S
H955 C985 0.950 . S
C956 H938 0.951 . S
C956 C957 1.366 . S
C956 C958 1.388 . S
C957 C956 1.366 . S
C957 C961 1.385 . S
C958 H939 0.951 . S
C958 C956 1.388 . S
C958 C959 1.366 . S
C959 C958 1.366 . S
C959 C960 1.414 . S
C959 C962 1.499 . S
C960 H940 0.950 . S
C960 C959 1.414 . S
C960 C961 1.374 . S
C961 H941 0.950 . S
C961 C957 1.385 . S
C961 C960 1.374 . S
C962 C959 1.499 . S
C962 C963 1.373 . S
C962 C964 1.389 . S
C963 H942 0.950 . S
C963 C962 1.373 . S
C963 C979 1.377 . S
C964 C962 1.389 . S
C964 C965 1.524 . S
C964 C978 1.377 . S
C965 C964 1.524 . S
C965 C966 1.397 1_545 S
C965 C970 1.363 . S
C966 H943 0.950 . S
C966 C965 1.397 1_565 S
C966 C967 1.334 . S
C967 H944 0.950 . S
C967 C966 1.334 . S
C967 C968 1.287 . S
C968 C967 1.287 . S
C968 C969 1.524 . S
C968 H987 0.913 1_554 S
C969 H945 0.950 1_554 S
C969 C968 1.524 . S
C969 C970 1.415 1_565 S
C970 H946 0.950 . S
C970 C965 1.363 . S
C970 C969 1.415 1_545 S
C971 H947 0.951 . S
C971 C972 1.366 . S
C971 C973 1.388 . S
C972 C971 1.366 . S
C972 C976 1.385 . S
C973 H948 0.951 . S
C973 C971 1.388 . S
C973 C974 1.366 . S
C974 C973 1.366 . S
C974 C975 1.414 . S
C974 C977 1.499 . S
C975 H949 0.950 . S
C975 C974 1.414 . S
C975 C976 1.374 . S
C976 H950 0.950 . S
C976 C972 1.385 . S
C976 C975 1.374 . S
C977 C974 1.499 . S
C977 C978 1.373 . S
C977 C979 1.389 . S
C978 H951 0.950 . S
C978 C964 1.377 . S
C978 C977 1.373 . S
C979 C963 1.377 . S
C979 C977 1.389 . S
C979 C980 1.524 . S
C980 C979 1.524 . S
C980 C981 1.397 . S
C980 C985 1.363 . S
C981 H952 0.950 . S
C981 C980 1.397 . S
C981 C982 1.334 . S
C982 H953 0.950 . S
C982 C981 1.334 . S
C982 C983 1.287 . S
C983 C982 1.287 . S
C983 C984 1.524 . S
C983 H986 0.999 . S
C984 H954 0.950 . S
C984 C983 1.524 . S
C984 C985 1.415 . S
C985 H955 0.950 . S
C985 C980 1.363 . S
C985 C984 1.415 . S
H986 C983 0.999 . S
H987 C968 0.913 1_556 S
H988 C1006 0.951 . S
H989 C1008 0.951 . S
H990 C1010 0.950 . S
H991 C1011 0.950 . S
H992 C1013 0.950 . S
H993 C1016 0.950 . S
H994 C1017 0.950 . S
H995 C1019 0.950 . S
H996 C1020 0.950 . S
H997 C1021 0.951 . S
H998 C1023 0.951 . S
H999 C1025 0.950 . S
H1000 C1026 0.950 . S
H1001 C1028 0.950 . S
H1002 C1031 0.950 . S
H1003 C1032 0.950 . S
H1004 C1034 0.950 . S
H1005 C1035 0.950 . S
C1006 H988 0.951 . S
C1006 C1007 1.366 . S
C1006 C1008 1.388 . S
C1007 C1006 1.366 . S
C1007 C1011 1.385 . S
C1008 H989 0.951 . S
C1008 C1006 1.388 . S
C1008 C1009 1.366 . S
C1009 C1008 1.366 . S
C1009 C1010 1.414 . S
C1009 C1012 1.499 . S
C1010 H990 0.950 . S
C1010 C1009 1.414 . S
C1010 C1011 1.374 . S
C1011 H991 0.950 . S
C1011 C1007 1.385 . S
C1011 C1010 1.374 . S
C1012 C1009 1.499 . S
C1012 C1013 1.373 . S
C1012 C1014 1.389 . S
C1013 H992 0.950 . S
C1013 C1012 1.373 . S
C1013 C1029 1.377 . S
C1014 C1012 1.389 . S
C1014 C1015 1.524 . S
C1014 C1028 1.377 . S
C1015 C1014 1.524 . S
C1015 C1016 1.397 . S
C1015 C1020 1.363 . S
C1016 H993 0.950 . S
C1016 C1015 1.397 . S
C1016 C1017 1.334 . S
C1017 H994 0.950 . S
C1017 C1016 1.334 . S
C1017 C1018 1.287 . S
C1018 C1017 1.287 . S
C1018 C1019 1.524 . S
C1018 H1037 0.913 . S
C1019 H995 0.950 . S
C1019 C1018 1.524 . S
C1019 C1020 1.415 . S
C1020 H996 0.950 . S
C1020 C1015 1.363 . S
C1020 C1019 1.415 . S
C1021 H997 0.951 . S
C1021 C1022 1.366 . S
C1021 C1023 1.388 . S
C1022 C1021 1.366 . S
C1022 C1026 1.385 . S
C1023 H998 0.951 . S
C1023 C1021 1.388 . S
C1023 C1024 1.366 . S
C1024 C1023 1.366 . S
C1024 C1025 1.414 . S
C1024 C1027 1.499 . S
C1025 H999 0.950 . S
C1025 C1024 1.414 . S
C1025 C1026 1.374 . S
C1026 H1000 0.950 . S
C1026 C1022 1.385 . S
C1026 C1025 1.374 . S
C1027 C1024 1.499 . S
C1027 C1028 1.373 . S
C1027 C1029 1.389 . S
C1028 H1001 0.950 . S
C1028 C1014 1.377 . S
C1028 C1027 1.373 . S
C1029 C1013 1.377 . S
C1029 C1027 1.389 . S
C1029 C1030 1.524 . S
C1030 C1029 1.524 . S
C1030 C1031 1.397 . S
C1030 C1035 1.363 . S
C1031 H1002 0.950 . S
C1031 C1030 1.397 . S
C1031 C1032 1.334 . S
C1032 H1003 0.950 . S
C1032 C1031 1.334 . S
C1032 C1033 1.287 . S
C1033 C1032 1.287 . S
C1033 C1034 1.524 . S
C1033 H1036 0.999 . S
C1034 H1004 0.950 . S
C1034 C1033 1.524 . S
C1034 C1035 1.415 . S
C1035 H1005 0.950 . S
C1035 C1030 1.363 . S
C1035 C1034 1.415 . S
H1036 C1033 0.999 . S
H1037 C1018 0.913 . S
H1038 C1056 0.951 . S
H1039 C1058 0.951 . S
H1040 C1060 0.950 . S
H1041 C1061 0.950 . S
H1042 C1063 0.950 . S
H1043 C1066 0.950 . S
H1044 C1067 0.950 . S
H1045 C1069 0.950 . S
H1046 C1070 0.950 . S
H1047 C1071 0.951 . S
H1048 C1073 0.951 . S
H1049 C1075 0.950 . S
H1050 C1076 0.950 . S
H1051 C1078 0.950 . S
H1052 C1081 0.950 . S
H1053 C1082 0.950 . S
H1054 C1084 0.950 . S
H1055 C1085 0.950 . S
C1056 H1038 0.951 . S
C1056 C1057 1.366 . S
C1056 C1058 1.388 . S
C1057 C1056 1.366 . S
C1057 C1061 1.385 . S
C1058 H1039 0.951 . S
C1058 C1056 1.388 . S
C1058 C1059 1.366 . S
C1059 C1058 1.366 . S
C1059 C1060 1.414 . S
C1059 C1062 1.499 . S
C1060 H1040 0.950 . S
C1060 C1059 1.414 . S
C1060 C1061 1.374 . S
C1061 H1041 0.950 . S
C1061 C1057 1.385 . S
C1061 C1060 1.374 . S
C1062 C1059 1.499 . S
C1062 C1063 1.373 . S
C1062 C1064 1.389 . S
C1063 H1042 0.950 . S
C1063 C1062 1.373 . S
C1063 C1079 1.377 . S
C1064 C1062 1.389 . S
C1064 C1065 1.524 . S
C1064 C1078 1.377 . S
C1065 C1064 1.524 . S
C1065 C1066 1.397 . S
C1065 C1070 1.363 . S
C1066 H1043 0.950 . S
C1066 C1065 1.397 . S
C1066 C1067 1.334 . S
C1067 H1044 0.950 . S
C1067 C1066 1.334 . S
C1067 C1068 1.287 . S
C1068 C1067 1.287 . S
C1068 C1069 1.524 . S
C1068 H1087 0.913 . S
C1069 H1045 0.950 . S
C1069 C1068 1.524 . S
C1069 C1070 1.415 . S
C1070 H1046 0.950 . S
C1070 C1065 1.363 . S
C1070 C1069 1.415 . S
C1071 H1047 0.951 . S
C1071 C1072 1.366 . S
C1071 C1073 1.388 . S
C1072 C1071 1.366 . S
C1072 C1076 1.385 . S
C1073 H1048 0.951 . S
C1073 C1071 1.388 . S
C1073 C1074 1.366 . S
C1074 C1073 1.366 . S
C1074 C1075 1.414 . S
C1074 C1077 1.499 . S
C1075 H1049 0.950 . S
C1075 C1074 1.414 . S
C1075 C1076 1.374 . S
C1076 H1050 0.950 . S
C1076 C1072 1.385 . S
C1076 C1075 1.374 . S
C1077 C1074 1.499 . S
C1077 C1078 1.373 . S
C1077 C1079 1.389 . S
C1078 H1051 0.950 . S
C1078 C1064 1.377 . S
C1078 C1077 1.373 . S
C1079 C1063 1.377 . S
C1079 C1077 1.389 . S
C1079 C1080 1.524 . S
C1080 C1079 1.524 . S
C1080 C1081 1.397 . S
C1080 C1085 1.363 . S
C1081 H1052 0.950 . S
C1081 C1080 1.397 . S
C1081 C1082 1.334 . S
C1082 H1053 0.950 . S
C1082 C1081 1.334 . S
C1082 C1083 1.287 . S
C1083 C1082 1.287 . S
C1083 C1084 1.524 . S
C1083 H1086 0.999 . S
C1084 H1054 0.950 . S
C1084 C1083 1.524 . S
C1084 C1085 1.415 . S
C1085 H1055 0.950 . S
C1085 C1080 1.363 . S
C1085 C1084 1.415 . S
H1086 C1083 0.999 . S
H1087 C1068 0.913 . S
H1088 C1106 0.951 1_455 S
H1089 C1108 0.951 1_455 S
H1090 C1110 0.950 . S
H1091 C1111 0.950 . S
H1092 C1113 0.950 1_556 S
H1093 C1116 0.950 1_655 S
H1094 C1117 0.950 . S
H1095 C1119 0.950 . S
H1096 C1120 0.950 . S
H1097 C1121 0.951 . S
H1098 C1123 0.951 . S
H1099 C1125 0.950 . S
H1100 C1126 0.950 . S
H1101 C1128 0.950 . S
H1102 C1131 0.950 . S
H1103 C1132 0.950 . S
H1104 C1134 0.950 . S
H1105 C1135 0.950 . S
C1106 H1088 0.951 1_655 S
C1106 C1107 1.366 . S
C1106 C1108 1.388 . S
C1107 C1106 1.366 . S
C1107 C1111 1.385 . S
C1108 H1089 0.951 1_655 S
C1108 C1106 1.388 . S
C1108 C1109 1.366 . S
C1109 C1108 1.366 . S
C1109 C1110 1.414 . S
C1109 C1112 1.499 . S
C1110 H1090 0.950 . S
C1110 C1109 1.414 . S
C1110 C1111 1.374 . S
C1111 H1091 0.950 . S
C1111 C1107 1.385 . S
C1111 C1110 1.374 . S
C1112 C1109 1.499 . S
C1112 C1113 1.373 . S
C1112 C1114 1.389 1_655 S
C1113 H1092 0.950 1_554 S
C1113 C1112 1.373 . S
C1113 C1129 1.377 1_554 S
C1114 C1112 1.389 1_455 S
C1114 C1115 1.524 . S
C1114 C1128 1.377 . S
C1115 C1114 1.524 . S
C1115 C1116 1.397 . S
C1115 C1120 1.363 . S
C1116 H1093 0.950 1_455 S
C1116 C1115 1.397 . S
C1116 C1117 1.334 . S
C1117 H1094 0.950 . S
C1117 C1116 1.334 . S
C1117 C1118 1.287 . S
C1118 C1117 1.287 . S
C1118 C1119 1.524 . S
C1118 H1137 0.913 . S
C1119 H1095 0.950 . S
C1119 C1118 1.524 . S
C1119 C1120 1.415 . S
C1120 H1096 0.950 . S
C1120 C1115 1.363 . S
C1120 C1119 1.415 . S
C1121 H1097 0.951 . S
C1121 C1122 1.366 1_655 S
C1121 C1123 1.388 . S
C1122 C1121 1.366 1_455 S
C1122 C1126 1.385 . S
C1123 H1098 0.951 . S
C1123 C1121 1.388 . S
C1123 C1124 1.366 . S
C1124 C1123 1.366 . S
C1124 C1125 1.414 1_655 S
C1124 C1127 1.499 . S
C1125 H1099 0.950 . S
C1125 C1124 1.414 1_455 S
C1125 C1126 1.374 . S
C1126 H1100 0.950 . S
C1126 C1122 1.385 . S
C1126 C1125 1.374 . S
C1127 C1124 1.499 . S
C1127 C1128 1.373 1_656 S
C1127 C1129 1.389 . S
C1128 H1101 0.950 . S
C1128 C1114 1.377 . S
C1128 C1127 1.373 1_454 S
C1129 C1113 1.377 1_556 S
C1129 C1127 1.389 . S
C1129 C1130 1.524 . S
C1130 C1129 1.524 . S
C1130 C1131 1.397 . S
C1130 C1135 1.363 . S
C1131 H1102 0.950 . S
C1131 C1130 1.397 . S
C1131 C1132 1.334 . S
C1132 H1103 0.950 . S
C1132 C1131 1.334 . S
C1132 C1133 1.287 . S
C1133 C1132 1.287 . S
C1133 C1134 1.524 . S
C1133 H1136 0.999 . S
C1134 H1104 0.950 . S
C1134 C1133 1.524 . S
C1134 C1135 1.415 . S
C1135 H1105 0.950 . S
C1135 C1130 1.363 . S
C1135 C1134 1.415 . S
H1136 C1133 0.999 . S
H1137 C1118 0.913 . S
H1138 C1156 0.951 . S
H1139 C1158 0.951 . S
H1140 C1160 0.950 . S
H1141 C1161 0.950 . S
H1142 C1163 0.950 . S
H1143 C1166 0.950 . S
H1144 C1167 0.950 . S
H1145 C1169 0.950 . S
H1146 C1170 0.950 . S
H1147 C1171 0.951 . S
H1148 C1173 0.951 . S
H1149 C1175 0.950 1_554 S
H1150 C1176 0.949 1_565 S
H1151 C1178 0.950 . S
H1152 C1181 0.950 1_554 S
H1153 C1182 0.950 . S
H1154 C1184 0.950 . S
H1155 C1185 0.950 . S
C1156 H1138 0.951 . S
C1156 C1157 1.366 . S
C1156 C1158 1.388 . S
C1157 C1156 1.366 . S
C1157 C1161 1.385 . S
C1158 H1139 0.951 . S
C1158 C1156 1.388 . S
C1158 C1159 1.366 . S
C1159 C1158 1.366 . S
C1159 C1160 1.414 . S
C1159 C1162 1.499 . S
C1160 H1140 0.950 . S
C1160 C1159 1.414 . S
C1160 C1161 1.374 . S
C1161 H1141 0.950 . S
C1161 C1157 1.385 . S
C1161 C1160 1.374 . S
C1162 C1159 1.499 . S
C1162 C1163 1.373 1_565 S
C1162 C1164 1.389 . S
C1163 H1142 0.950 . S
C1163 C1162 1.373 1_545 S
C1163 C1179 1.377 1_554 S
C1164 C1162 1.389 . S
C1164 C1165 1.524 . S
C1164 C1178 1.377 . S
C1165 C1164 1.524 . S
C1165 C1166 1.397 . S
C1165 C1170 1.363 . S
C1166 H1143 0.950 . S
C1166 C1165 1.397 . S
C1166 C1167 1.334 . S
C1167 H1144 0.950 . S
C1167 C1166 1.334 . S
C1167 C1168 1.287 . S
C1168 C1167 1.287 . S
C1168 C1169 1.524 . S
C1168 H1187 0.913 . S
C1169 H1145 0.950 . S
C1169 C1168 1.524 . S
C1169 C1170 1.415 . S
C1170 H1146 0.950 . S
C1170 C1165 1.363 . S
C1170 C1169 1.415 . S
C1171 H1147 0.951 . S
C1171 C1172 1.366 . S
C1171 C1173 1.388 . S
C1172 C1171 1.366 . S
C1172 C1176 1.385 . S
C1173 H1148 0.951 . S
C1173 C1171 1.388 . S
C1173 C1174 1.371 . S
C1174 C1173 1.371 . S
C1174 C1175 1.412 1_545 S
C1174 C1177 1.495 1_545 S
C1175 H1149 0.950 1_556 S
C1175 C1174 1.412 1_565 S
C1175 C1176 1.374 1_565 S
C1176 H1150 0.949 1_545 S
C1176 C1172 1.385 . S
C1176 C1175 1.374 1_545 S
C1177 C1174 1.495 1_565 S
C1177 C1178 1.373 1_556 S
C1177 C1179 1.389 1_565 S
C1178 H1151 0.950 . S
C1178 C1164 1.377 . S
C1178 C1177 1.373 1_554 S
C1179 C1163 1.377 1_556 S
C1179 C1177 1.389 1_545 S
C1179 C1180 1.524 . S
C1180 C1179 1.524 . S
C1180 C1181 1.397 . S
C1180 C1185 1.363 . S
C1181 H1152 0.950 1_556 S
C1181 C1180 1.397 . S
C1181 C1182 1.334 . S
C1182 H1153 0.950 . S
C1182 C1181 1.334 . S
C1182 C1183 1.287 . S
C1183 C1182 1.287 . S
C1183 C1184 1.524 . S
C1183 H1186 0.999 . S
C1184 H1154 0.950 . S
C1184 C1183 1.524 . S
C1184 C1185 1.415 . S
C1185 H1155 0.950 . S
C1185 C1180 1.363 . S
C1185 C1184 1.415 . S
H1186 C1183 0.999 . S
H1187 C1168 0.913 . S
H1188 C1206 0.951 . S
H1189 C1208 0.951 . S
H1190 C1210 0.950 . S
H1191 C1211 0.950 . S
H1192 C1213 0.950 . S
H1193 C1216 0.950 . S
H1194 C1217 0.950 . S
H1195 C1219 0.950 . S
H1196 C1220 0.950 . S
H1197 C1221 0.951 . S
H1198 C1223 0.951 . S
H1199 C1225 0.950 1_554 S
H1200 C1226 0.950 . S
H1201 C1228 0.950 . S
H1202 C1231 0.950 . S
H1203 C1232 0.950 . S
H1204 C1234 0.950 . S
H1205 C1235 0.950 . S
C1206 H1188 0.951 . S
C1206 C1207 1.366 . S
C1206 C1208 1.388 . S
C1207 C1206 1.366 . S
C1207 C1211 1.385 . S
C1208 H1189 0.951 . S
C1208 C1206 1.388 . S
C1208 C1209 1.366 . S
C1209 C1208 1.366 . S
C1209 C1210 1.414 . S
C1209 C1212 1.499 . S
C1210 H1190 0.950 . S
C1210 C1209 1.414 . S
C1210 C1211 1.374 . S
C1211 H1191 0.950 . S
C1211 C1207 1.385 . S
C1211 C1210 1.374 . S
C1212 C1209 1.499 . S
C1212 C1213 1.373 1_554 S
C1212 C1214 1.389 . S
C1213 H1192 0.950 . S
C1213 C1212 1.373 1_556 S
C1213 C1229 1.377 . S
C1214 C1212 1.389 . S
C1214 C1215 1.524 . S
C1214 C1228 1.377 . S
C1215 C1214 1.524 . S
C1215 C1216 1.397 . S
C1215 C1220 1.363 . S
C1216 H1193 0.950 . S
C1216 C1215 1.397 . S
C1216 C1217 1.334 . S
C1217 H1194 0.950 . S
C1217 C1216 1.334 . S
C1217 C1218 1.287 . S
C1218 C1217 1.287 . S
C1218 C1219 1.524 . S
C1218 H1237 0.913 . S
C1219 H1195 0.950 . S
C1219 C1218 1.524 . S
C1219 C1220 1.415 . S
C1220 H1196 0.950 . S
C1220 C1215 1.363 . S
C1220 C1219 1.415 . S
C1221 H1197 0.951 . S
C1221 C1222 1.366 . S
C1221 C1223 1.388 . S
C1222 C1221 1.366 . S
C1222 C1226 1.385 . S
C1223 H1198 0.951 . S
C1223 C1221 1.388 . S
C1223 C1224 1.366 . S
C1224 C1223 1.366 . S
C1224 C1225 1.414 . S
C1224 C1227 1.499 . S
C1225 H1199 0.950 1_556 S
C1225 C1224 1.414 . S
C1225 C1226 1.374 . S
C1226 H1200 0.950 . S
C1226 C1222 1.385 . S
C1226 C1225 1.374 . S
C1227 C1224 1.499 . S
C1227 C1228 1.373 1_556 S
C1227 C1229 1.389 . S
C1228 H1201 0.950 . S
C1228 C1214 1.377 . S
C1228 C1227 1.373 1_554 S
C1229 C1213 1.377 . S
C1229 C1227 1.389 . S
C1229 C1230 1.524 . S
C1230 C1229 1.524 . S
C1230 C1231 1.397 . S
C1230 C1235 1.363 . S
C1231 H1202 0.950 . S
C1231 C1230 1.397 . S
C1231 C1232 1.334 . S
C1232 H1203 0.950 . S
C1232 C1231 1.334 . S
C1232 C1233 1.287 . S
C1233 C1232 1.287 . S
C1233 C1234 1.524 . S
C1233 H1236 0.999 . S
C1234 H1204 0.950 . S
C1234 C1233 1.524 . S
C1234 C1235 1.415 . S
C1235 H1205 0.950 . S
C1235 C1230 1.363 . S
C1235 C1234 1.415 . S
H1236 C1233 0.999 . S
H1237 C1218 0.913 . S
H1238 C1256 0.951 . S
H1239 C1258 0.951 . S
H1240 C1260 0.950 . S
H1241 C1261 0.950 . S
H1242 C1263 0.950 . S
H1243 C1266 0.950 . S
H1244 C1267 0.950 . S
H1245 C1269 0.950 1_556 S
H1246 C1270 0.950 . S
H1247 C1271 0.951 . S
H1248 C1273 0.951 1_554 S
H1249 C1275 0.950 . S
H1250 C1276 0.950 . S
H1251 C1278 0.950 . S
H1252 C1281 0.950 . S
H1253 C1282 0.950 . S
H1254 C1284 0.950 . S
H1255 C1285 0.950 . S
C1256 H1238 0.951 . S
C1256 C1257 1.366 . S
C1256 C1258 1.388 . S
C1257 C1256 1.366 . S
C1257 C1261 1.385 . S
C1258 H1239 0.951 . S
C1258 C1256 1.388 . S
C1258 C1259 1.366 . S
C1259 C1258 1.366 . S
C1259 C1260 1.414 . S
C1259 C1262 1.499 . S
C1260 H1240 0.950 . S
C1260 C1259 1.414 . S
C1260 C1261 1.374 . S
C1261 H1241 0.950 . S
C1261 C1257 1.385 . S
C1261 C1260 1.374 . S
C1262 C1259 1.499 . S
C1262 C1263 1.373 . S
C1262 C1264 1.389 . S
C1263 H1242 0.950 . S
C1263 C1262 1.373 . S
C1263 C1279 1.377 . S
C1264 C1262 1.389 . S
C1264 C1265 1.524 . S
C1264 C1278 1.377 1_554 S
C1265 C1264 1.524 . S
C1265 C1266 1.397 . S
C1265 C1270 1.363 1_554 S
C1266 H1243 0.950 . S
C1266 C1265 1.397 . S
C1266 C1267 1.334 . S
C1267 H1244 0.950 . S
C1267 C1266 1.334 . S
C1267 C1268 1.287 . S
C1268 C1267 1.287 . S
C1268 C1269 1.524 . S
C1268 H1287 0.913 . S
C1269 H1245 0.950 1_554 S
C1269 C1268 1.524 . S
C1269 C1270 1.415 1_554 S
C1270 H1246 0.950 . S
C1270 C1265 1.363 1_556 S
C1270 C1269 1.415 1_556 S
C1271 H1247 0.951 . S
C1271 C1272 1.366 . S
C1271 C1273 1.388 . S
C1272 C1271 1.366 . S
C1272 C1276 1.385 . S
C1273 H1248 0.951 1_556 S
C1273 C1271 1.388 . S
C1273 C1274 1.366 . S
C1274 C1273 1.366 . S
C1274 C1275 1.414 . S
C1274 C1277 1.499 . S
C1275 H1249 0.950 . S
C1275 C1274 1.414 . S
C1275 C1276 1.374 . S
C1276 H1250 0.950 . S
C1276 C1272 1.385 . S
C1276 C1275 1.374 . S
C1277 C1274 1.499 . S
C1277 C1278 1.373 . S
C1277 C1279 1.389 1_556 S
C1278 H1251 0.950 . S
C1278 C1264 1.377 1_556 S
C1278 C1277 1.373 . S
C1279 C1263 1.377 . S
C1279 C1277 1.389 1_554 S
C1279 C1280 1.524 1_554 S
C1280 C1279 1.524 1_556 S
C1280 C1281 1.397 . S
C1280 C1285 1.363 1_556 S
C1281 H1252 0.950 . S
C1281 C1280 1.397 . S
C1281 C1282 1.334 . S
C1282 H1253 0.950 . S
C1282 C1281 1.334 . S
C1282 C1283 1.287 . S
C1283 C1282 1.287 . S
C1283 C1284 1.524 1_556 S
C1283 H1286 0.999 . S
C1284 H1254 0.950 . S
C1284 C1283 1.524 1_554 S
C1284 C1285 1.415 . S
C1285 H1255 0.950 . S
C1285 C1280 1.363 1_554 S
C1285 C1284 1.415 . S
H1286 C1283 0.999 . S
H1287 C1268 0.913 . S
H1288 C1306 0.951 . S
H1289 C1308 0.951 . S
H1290 C1310 0.950 . S
H1291 C1311 0.950 . S
H1292 C1313 0.950 . S
H1293 C1316 0.950 . S
H1294 C1317 0.950 . S
H1295 C1319 0.950 . S
H1296 C1320 0.950 . S
H1297 C1321 0.951 . S
H1298 C1323 0.951 . S
H1299 C1325 0.950 . S
H1300 C1326 0.972 . S
H1301 C1328 0.950 1_655 S
H1302 C1331 0.950 . S
H1303 C1332 0.950 . S
H1304 C1334 0.950 . S
H1305 C1335 0.950 . S
C1306 H1288 0.951 . S
C1306 C1307 1.366 . S
C1306 C1308 1.388 . S
C1307 C1306 1.366 . S
C1307 C1311 1.385 . S
C1308 H1289 0.951 . S
C1308 C1306 1.388 . S
C1308 C1309 1.366 . S
C1309 C1308 1.366 . S
C1309 C1310 1.414 . S
C1309 C1312 1.499 . S
C1310 H1290 0.950 . S
C1310 C1309 1.414 . S
C1310 C1311 1.374 . S
C1311 H1291 0.950 . S
C1311 C1307 1.385 . S
C1311 C1310 1.374 . S
C1312 C1309 1.499 . S
C1312 C1313 1.373 . S
C1312 C1314 1.389 . S
C1313 H1292 0.950 . S
C1313 C1312 1.373 . S
C1313 C1329 1.377 . S
C1314 C1312 1.389 . S
C1314 C1315 1.524 1_455 S
C1314 C1328 1.377 . S
C1315 C1314 1.524 1_655 S
C1315 C1316 1.397 . S
C1315 C1320 1.363 . S
C1316 H1293 0.950 . S
C1316 C1315 1.397 . S
C1316 C1317 1.334 . S
C1317 H1294 0.950 . S
C1317 C1316 1.334 . S
C1317 C1318 1.287 . S
C1318 C1317 1.287 . S
C1318 C1319 1.524 . S
C1318 H1337 0.913 . S
C1319 H1295 0.950 . S
C1319 C1318 1.524 . S
C1319 C1320 1.415 . S
C1320 H1296 0.950 . S
C1320 C1315 1.363 . S
C1320 C1319 1.415 . S
C1321 H1297 0.951 . S
C1321 C1322 1.366 . S
C1321 C1323 1.388 . S
C1322 C1321 1.366 . S
C1322 C1326 1.385 . S
C1323 H1298 0.951 . S
C1323 C1321 1.388 . S
C1323 C1324 1.366 . S
C1324 C1323 1.366 . S
C1324 C1325 1.414 . S
C1324 C1327 1.499 . S
C1325 H1299 0.950 . S
C1325 C1324 1.414 . S
C1325 C1326 1.374 . S
C1326 H1300 0.972 . S
C1326 C1322 1.385 . S
C1326 C1325 1.374 . S
C1327 C1324 1.499 . S
C1327 C1328 1.373 . S
C1327 C1329 1.389 . S
C1328 H1301 0.950 1_455 S
C1328 C1314 1.377 . S
C1328 C1327 1.373 . S
C1329 C1313 1.377 . S
C1329 C1327 1.389 . S
C1329 C1330 1.524 . S
C1330 C1329 1.524 . S
C1330 C1331 1.397 . S
C1330 C1335 1.363 . S
C1331 H1302 0.950 . S
C1331 C1330 1.397 . S
C1331 C1332 1.334 . S
C1332 H1303 0.950 . S
C1332 C1331 1.334 . S
C1332 C1333 1.287 . S
C1333 C1332 1.287 . S
C1333 C1334 1.524 . S
C1333 H1336 0.999 . S
C1334 H1304 0.950 . S
C1334 C1333 1.524 . S
C1334 C1335 1.415 . S
C1335 H1305 0.950 . S
C1335 C1330 1.363 . S
C1335 C1334 1.415 . S
H1336 C1333 0.999 . S
H1337 C1318 0.913 . S
H1338 C1356 0.951 . S
H1339 C1358 0.951 . S
H1340 C1360 0.950 . S
H1341 C1361 0.950 . S
H1342 C1363 0.950 . S
H1343 C1366 0.950 . S
H1344 C1367 0.950 . S
H1345 C1369 0.950 . S
H1346 C1370 0.950 . S
H1347 C1371 0.951 . S
H1348 C1373 0.951 . S
H1349 C1375 0.950 . S
H1350 C1376 0.950 . S
H1351 C1378 0.950 . S
H1352 C1381 0.950 . S
H1353 C1382 0.950 . S
H1354 C1384 0.950 . S
H1355 C1385 0.950 . S
C1356 H1338 0.951 . S
C1356 C1357 1.366 . S
C1356 C1358 1.388 . S
C1357 C1356 1.366 . S
C1357 C1361 1.385 . S
C1358 H1339 0.951 . S
C1358 C1356 1.388 . S
C1358 C1359 1.366 . S
C1359 C1358 1.366 . S
C1359 C1360 1.414 . S
C1359 C1362 1.499 . S
C1360 H1340 0.950 . S
C1360 C1359 1.414 . S
C1360 C1361 1.374 . S
C1361 H1341 0.950 . S
C1361 C1357 1.385 . S
C1361 C1360 1.374 . S
C1362 C1359 1.499 . S
C1362 C1363 1.373 . S
C1362 C1364 1.389 . S
C1363 H1342 0.950 . S
C1363 C1362 1.373 . S
C1363 C1379 1.377 . S
C1364 C1362 1.389 . S
C1364 C1365 1.524 . S
C1364 C1378 1.377 . S
C1365 C1364 1.524 . S
C1365 C1366 1.397 . S
C1365 C1370 1.363 . S
C1366 H1343 0.950 . S
C1366 C1365 1.397 . S
C1366 C1367 1.334 . S
C1367 H1344 0.950 . S
C1367 C1366 1.334 . S
C1367 C1368 1.287 . S
C1368 C1367 1.287 . S
C1368 C1369 1.524 . S
C1368 H1387 0.913 . S
C1369 H1345 0.950 . S
C1369 C1368 1.524 . S
C1369 C1370 1.415 . S
C1370 H1346 0.950 . S
C1370 C1365 1.363 . S
C1370 C1369 1.415 . S
C1371 H1347 0.951 . S
C1371 C1372 1.366 . S
C1371 C1373 1.388 . S
C1372 C1371 1.366 . S
C1372 C1376 1.385 . S
C1373 H1348 0.951 . S
C1373 C1371 1.388 . S
C1373 C1374 1.366 . S
C1374 C1373 1.366 . S
C1374 C1375 1.414 . S
C1374 C1377 1.499 . S
C1375 H1349 0.950 . S
C1375 C1374 1.414 . S
C1375 C1376 1.374 . S
C1376 H1350 0.950 . S
C1376 C1372 1.385 . S
C1376 C1375 1.374 . S
C1377 C1374 1.499 . S
C1377 C1378 1.373 . S
C1377 C1379 1.389 . S
C1378 H1351 0.950 . S
C1378 C1364 1.377 . S
C1378 C1377 1.373 . S
C1379 C1363 1.377 . S
C1379 C1377 1.389 . S
C1379 C1380 1.524 1_545 S
C1380 C1379 1.524 1_565 S
C1380 C1381 1.397 . S
C1380 C1385 1.363 . S
C1381 H1352 0.950 . S
C1381 C1380 1.397 . S
C1381 C1382 1.334 . S
C1382 H1353 0.950 . S
C1382 C1381 1.334 . S
C1382 C1383 1.287 . S
C1383 C1382 1.287 . S
C1383 C1384 1.524 . S
C1383 H1386 0.999 . S
C1384 H1354 0.950 . S
C1384 C1383 1.524 . S
C1384 C1385 1.415 . S
C1385 H1355 0.950 . S
C1385 C1380 1.363 . S
C1385 C1384 1.415 . S
H1386 C1383 0.999 . S
H1387 C1368 0.913 . S
H1388 C1406 0.951 . S
H1389 C1408 0.951 . S
H1390 C1410 0.950 . S
H1391 C1411 0.950 . S
H1392 C1413 0.950 . S
H1393 C1416 0.950 . S
H1394 C1417 0.950 . S
H1395 C1419 0.950 . S
H1396 C1420 0.950 . S
H1397 C1421 0.951 . S
H1398 C1423 0.951 . S
H1399 C1425 0.950 . S
H1400 C1426 0.950 . S
H1401 C1428 0.950 . S
H1402 C1431 0.950 . S
H1403 C1432 0.950 . S
H1404 C1434 0.950 1_554 S
H1405 C1435 0.950 . S
C1406 H1388 0.951 . S
C1406 C1407 1.366 . S
C1406 C1408 1.388 . S
C1407 C1406 1.366 . S
C1407 C1411 1.385 . S
C1408 H1389 0.951 . S
C1408 C1406 1.388 . S
C1408 C1409 1.366 . S
C1409 C1408 1.366 . S
C1409 C1410 1.414 . S
C1409 C1412 1.499 . S
C1410 H1390 0.950 . S
C1410 C1409 1.414 . S
C1410 C1411 1.374 . S
C1411 H1391 0.950 . S
C1411 C1407 1.385 . S
C1411 C1410 1.374 . S
C1412 C1409 1.499 . S
C1412 C1413 1.373 . S
C1412 C1414 1.389 . S
C1413 H1392 0.950 . S
C1413 C1412 1.373 . S
C1413 C1429 1.377 . S
C1414 C1412 1.389 . S
C1414 C1415 1.524 . S
C1414 C1428 1.377 . S
C1415 C1414 1.524 . S
C1415 C1416 1.397 . S
C1415 C1420 1.363 . S
C1416 H1393 0.950 . S
C1416 C1415 1.397 . S
C1416 C1417 1.334 . S
C1417 H1394 0.950 . S
C1417 C1416 1.334 . S
C1417 C1418 1.287 . S
C1418 C1417 1.287 . S
C1418 C1419 1.524 . S
C1418 H1437 0.913 . S
C1419 H1395 0.950 . S
C1419 C1418 1.524 . S
C1419 C1420 1.415 . S
C1420 H1396 0.950 . S
C1420 C1415 1.363 . S
C1420 C1419 1.415 . S
C1421 H1397 0.951 . S
C1421 C1422 1.366 . S
C1421 C1423 1.388 . S
C1422 C1421 1.366 . S
C1422 C1426 1.385 . S
C1423 H1398 0.951 . S
C1423 C1421 1.388 . S
C1423 C1424 1.366 . S
C1424 C1423 1.366 . S
C1424 C1425 1.414 . S
C1424 C1427 1.499 . S
C1425 H1399 0.950 . S
C1425 C1424 1.414 . S
C1425 C1426 1.374 . S
C1426 H1400 0.950 . S
C1426 C1422 1.385 . S
C1426 C1425 1.374 . S
C1427 C1424 1.499 . S
C1427 C1428 1.373 . S
C1427 C1429 1.389 . S
C1428 H1401 0.950 . S
C1428 C1414 1.377 . S
C1428 C1427 1.373 . S
C1429 C1413 1.377 . S
C1429 C1427 1.389 . S
C1429 C1430 1.524 . S
C1430 C1429 1.524 . S
C1430 C1431 1.397 . S
C1430 C1435 1.363 . S
C1431 H1402 0.950 . S
C1431 C1430 1.397 . S
C1431 C1432 1.334 . S
C1432 H1403 0.950 . S
C1432 C1431 1.334 . S
C1432 C1433 1.285 1_556 S
C1433 C1432 1.285 1_554 S
C1433 C1434 1.523 1_554 S
C1433 H1436 1.002 . S
C1434 H1404 0.950 1_556 S
C1434 C1433 1.523 1_556 S
C1434 C1435 1.415 . S
C1435 H1405 0.950 . S
C1435 C1430 1.363 . S
C1435 C1434 1.415 . S
H1436 C1433 1.002 . S
H1437 C1418 0.913 . S
H1438 C1456 0.951 . S
H1439 C1458 0.951 . S
H1440 C1460 0.950 . S
H1441 C1461 0.950 . S
H1442 C1463 0.950 . S
H1443 C1466 0.950 . S
H1444 C1467 0.950 . S
H1445 C1469 0.950 . S
H1446 C1470 0.950 . S
H1447 C1471 0.951 . S
H1448 C1473 0.951 . S
H1449 C1475 0.950 . S
H1450 C1476 0.950 . S
H1451 C1478 0.950 . S
H1452 C1481 0.950 . S
H1453 C1482 0.950 . S
H1454 C1484 0.950 1_554 S
H1455 C1485 0.950 . S
C1456 H1438 0.951 . S
C1456 C1457 1.366 . S
C1456 C1458 1.388 . S
C1457 C1456 1.366 . S
C1457 C1461 1.385 . S
C1458 H1439 0.951 . S
C1458 C1456 1.388 . S
C1458 C1459 1.366 . S
C1459 C1458 1.366 . S
C1459 C1460 1.414 . S
C1459 C1462 1.499 . S
C1460 H1440 0.950 . S
C1460 C1459 1.414 . S
C1460 C1461 1.374 . S
C1461 H1441 0.950 . S
C1461 C1457 1.385 . S
C1461 C1460 1.374 . S
C1462 C1459 1.499 . S
C1462 C1463 1.373 . S
C1462 C1464 1.389 . S
C1463 H1442 0.950 . S
C1463 C1462 1.373 . S
C1463 C1479 1.377 . S
C1464 C1462 1.389 . S
C1464 C1465 1.524 . S
C1464 C1478 1.377 . S
C1465 C1464 1.524 . S
C1465 C1466 1.397 . S
C1465 C1470 1.363 . S
C1466 H1443 0.950 . S
C1466 C1465 1.397 . S
C1466 C1467 1.334 . S
C1467 H1444 0.950 . S
C1467 C1466 1.334 . S
C1467 C1468 1.287 . S
C1468 C1467 1.287 . S
C1468 C1469 1.524 . S
C1468 H1487 0.913 . S
C1469 H1445 0.950 . S
C1469 C1468 1.524 . S
C1469 C1470 1.415 . S
C1470 H1446 0.950 . S
C1470 C1465 1.363 . S
C1470 C1469 1.415 . S
C1471 H1447 0.951 . S
C1471 C1472 1.366 . S
C1471 C1473 1.388 . S
C1472 C1471 1.366 . S
C1472 C1476 1.385 . S
C1473 H1448 0.951 . S
C1473 C1471 1.388 . S
C1473 C1474 1.366 . S
C1474 C1473 1.366 . S
C1474 C1475 1.414 . S
C1474 C1477 1.499 . S
C1475 H1449 0.950 . S
C1475 C1474 1.414 . S
C1475 C1476 1.374 . S
C1476 H1450 0.950 . S
C1476 C1472 1.385 . S
C1476 C1475 1.374 . S
C1477 C1474 1.499 . S
C1477 C1478 1.373 . S
C1477 C1479 1.389 . S
C1478 H1451 0.950 . S
C1478 C1464 1.377 . S
C1478 C1477 1.373 . S
C1479 C1463 1.377 . S
C1479 C1477 1.389 . S
C1479 C1480 1.524 . S
C1480 C1479 1.524 . S
C1480 C1481 1.397 . S
C1480 C1485 1.363 . S
C1481 H1452 0.950 . S
C1481 C1480 1.397 . S
C1481 C1482 1.334 . S
C1482 H1453 0.950 . S
C1482 C1481 1.334 . S
C1482 C1483 1.287 1_556 S
C1483 C1482 1.287 1_554 S
C1483 C1484 1.524 1_554 S
C1483 H1486 0.999 . S
C1484 H1454 0.950 1_556 S
C1484 C1483 1.524 1_556 S
C1484 C1485 1.415 . S
C1485 H1455 0.950 . S
C1485 C1480 1.363 . S
C1485 C1484 1.415 . S
H1486 C1483 0.999 . S
H1487 C1468 0.913 . S
H1488 C1506 0.951 1_455 S
H1489 C1508 0.951 1_455 S
H1490 C1510 0.950 . S
H1491 C1511 0.950 . S
H1492 C1513 0.950 . S
H1493 C1516 0.950 . S
H1494 C1517 0.950 . S
H1495 C1519 0.950 . S
H1496 C1520 0.950 . S
H1497 C1521 0.951 . S
H1498 C1523 0.951 . S
H1499 C1525 0.950 . S
H1500 C1526 0.950 . S
H1501 C1528 0.950 1_455 S
H1502 C1531 0.903 1_455 S
H1503 C1532 0.950 . S
H1504 C1534 0.950 . S
H1505 C1535 0.950 . S
C1506 H1488 0.951 1_655 S
C1506 C1507 1.366 . S
C1506 C1508 1.388 . S
C1507 C1506 1.366 . S
C1507 C1511 1.385 . S
C1508 H1489 0.951 1_655 S
C1508 C1506 1.388 . S
C1508 C1509 1.366 . S
C1509 C1508 1.366 . S
C1509 C1510 1.414 . S
C1509 C1512 1.499 . S
C1510 H1490 0.950 . S
C1510 C1509 1.414 . S
C1510 C1511 1.374 . S
C1511 H1491 0.950 . S
C1511 C1507 1.385 . S
C1511 C1510 1.374 . S
C1512 C1509 1.499 . S
C1512 C1513 1.373 . S
C1512 C1514 1.389 . S
C1513 H1492 0.950 . S
C1513 C1512 1.373 . S
C1513 C1529 1.377 . S
C1514 C1512 1.389 . S
C1514 C1515 1.524 . S
C1514 C1528 1.377 . S
C1515 C1514 1.524 . S
C1515 C1516 1.397 . S
C1515 C1520 1.363 1_655 S
C1516 H1493 0.950 . S
C1516 C1515 1.397 . S
C1516 C1517 1.334 . S
C1517 H1494 0.950 . S
C1517 C1516 1.334 . S
C1517 C1518 1.287 1_655 S
C1518 C1517 1.287 1_455 S
C1518 C1519 1.524 . S
C1518 H1537 0.913 . S
C1519 H1495 0.950 . S
C1519 C1518 1.524 . S
C1519 C1520 1.415 . S
C1520 H1496 0.950 . S
C1520 C1515 1.363 1_455 S
C1520 C1519 1.415 . S
C1521 H1497 0.951 . S
C1521 C1522 1.366 . S
C1521 C1523 1.388 . S
C1522 C1521 1.366 . S
C1522 C1526 1.385 1_655 S
C1523 H1498 0.951 . S
C1523 C1521 1.388 . S
C1523 C1524 1.366 . S
C1524 C1523 1.366 . S
C1524 C1525 1.414 1_655 S
C1524 C1527 1.499 . S
C1525 H1499 0.950 . S
C1525 C1524 1.414 1_455 S
C1525 C1526 1.374 . S
C1526 H1500 0.950 . S
C1526 C1522 1.385 1_455 S
C1526 C1525 1.374 . S
C1527 C1524 1.499 . S
C1527 C1528 1.373 . S
C1527 C1529 1.389 . S
C1528 H1501 0.950 1_655 S
C1528 C1514 1.377 . S
C1528 C1527 1.373 . S
C1529 C1513 1.377 . S
C1529 C1527 1.389 . S
C1529 C1530 1.524 . S
C1530 C1529 1.524 . S
C1530 C1531 1.397 . S
C1530 C1535 1.363 . S
C1531 H1502 0.903 1_655 S
C1531 C1530 1.397 . S
C1531 C1532 1.334 . S
C1532 H1503 0.950 . S
C1532 C1531 1.334 . S
C1532 C1533 1.287 . S
C1533 C1532 1.287 . S
C1533 C1534 1.524 . S
C1533 H1536 0.999 . S
C1534 H1504 0.950 . S
C1534 C1533 1.524 . S
C1534 C1535 1.415 . S
C1535 H1505 0.950 . S
C1535 C1530 1.363 . S
C1535 C1534 1.415 . S
H1536 C1533 0.999 . S
H1537 C1518 0.913 . S
H1538 C1556 0.951 . S
H1539 C1558 0.970 . S
H1540 C1560 0.950 . S
H1541 C1561 0.950 . S
H1542 C1563 0.950 . S
H1543 C1566 0.950 . S
H1544 C1567 0.950 . S
H1545 C1569 0.950 . S
H1546 C1570 0.950 . S
H1547 C1571 0.951 . S
H1548 C1573 0.951 . S
H1549 C1575 0.950 . S
H1550 C1576 0.950 . S
H1551 C1578 0.950 . S
H1552 C1581 0.950 . S
H1553 C1582 0.950 . S
H1554 C1584 0.962 . S
H1555 C1585 0.950 . S
C1556 H1538 0.951 . S
C1556 C1557 1.366 . S
C1556 C1558 1.388 . S
C1557 C1556 1.366 . S
C1557 C1561 1.385 . S
C1558 H1539 0.970 . S
C1558 C1556 1.388 . S
C1558 C1559 1.366 . S
C1559 C1558 1.366 . S
C1559 C1560 1.414 . S
C1559 C1562 1.499 . S
C1560 H1540 0.950 . S
C1560 C1559 1.414 . S
C1560 C1561 1.374 . S
C1561 H1541 0.950 . S
C1561 C1557 1.385 . S
C1561 C1560 1.374 . S
C1562 C1559 1.499 . S
C1562 C1563 1.373 . S
C1562 C1564 1.389 . S
C1563 H1542 0.950 . S
C1563 C1562 1.373 . S
C1563 C1579 1.377 . S
C1564 C1562 1.389 . S
C1564 C1565 1.524 . S
C1564 C1578 1.377 . S
C1565 C1564 1.524 . S
C1565 C1566 1.397 . S
C1565 C1570 1.363 . S
C1566 H1543 0.950 . S
C1566 C1565 1.397 . S
C1566 C1567 1.334 . S
C1567 H1544 0.950 . S
C1567 C1566 1.334 . S
C1567 C1568 1.287 . S
C1568 C1567 1.287 . S
C1568 C1569 1.524 . S
C1568 H1587 0.913 . S
C1569 H1545 0.950 . S
C1569 C1568 1.524 . S
C1569 C1570 1.415 . S
C1570 H1546 0.950 . S
C1570 C1565 1.363 . S
C1570 C1569 1.415 . S
C1571 H1547 0.951 . S
C1571 C1572 1.364 1_565 S
C1571 C1573 1.388 . S
C1572 C1571 1.364 1_545 S
C1572 C1576 1.386 . S
C1573 H1548 0.951 . S
C1573 C1571 1.388 . S
C1573 C1574 1.366 . S
C1574 C1573 1.366 . S
C1574 C1575 1.414 1_565 S
C1574 C1577 1.499 . S
C1575 H1549 0.950 . S
C1575 C1574 1.414 1_545 S
C1575 C1576 1.374 . S
C1576 H1550 0.950 . S
C1576 C1572 1.386 . S
C1576 C1575 1.374 . S
C1577 C1574 1.499 . S
C1577 C1578 1.373 . S
C1577 C1579 1.389 . S
C1578 H1551 0.950 . S
C1578 C1564 1.377 . S
C1578 C1577 1.373 . S
C1579 C1563 1.377 . S
C1579 C1577 1.389 . S
C1579 C1580 1.524 1_565 S
C1580 C1579 1.524 1_545 S
C1580 C1581 1.397 . S
C1580 C1585 1.363 1_545 S
C1581 H1552 0.950 . S
C1581 C1580 1.397 . S
C1581 C1582 1.334 . S
C1582 H1553 0.950 . S
C1582 C1581 1.334 . S
C1582 C1583 1.287 . S
C1583 C1582 1.287 . S
C1583 C1584 1.524 . S
C1583 H1586 0.999 . S
C1584 H1554 0.962 . S
C1584 C1583 1.524 . S
C1584 C1585 1.415 1_545 S
C1585 H1555 0.950 . S
C1585 C1580 1.363 1_565 S
C1585 C1584 1.415 1_565 S
H1586 C1583 0.999 . S
H1587 C1568 0.913 . S
H1588 C1606 0.951 . S
H1589 C1608 0.951 . S
H1590 C1610 0.950 . S
H1591 C1611 0.950 . S
H1592 C1613 0.950 . S
H1593 C1616 0.950 . S
H1594 C1617 0.950 . S
H1595 C1619 0.950 . S
H1596 C1620 0.950 . S
H1597 C1621 0.951 . S
H1598 C1623 0.951 . S
H1599 C1625 0.950 . S
H1600 C1626 0.950 . S
H1601 C1628 0.950 . S
H1602 C1631 0.950 . S
H1603 C1632 0.950 . S
H1604 C1634 0.950 . S
H1605 C1635 0.950 . S
C1606 H1588 0.951 . S
C1606 C1607 1.366 . S
C1606 C1608 1.388 . S
C1607 C1606 1.366 . S
C1607 C1611 1.385 . S
C1608 H1589 0.951 . S
C1608 C1606 1.388 . S
C1608 C1609 1.366 . S
C1609 C1608 1.366 . S
C1609 C1610 1.414 . S
C1609 C1612 1.499 . S
C1610 H1590 0.950 . S
C1610 C1609 1.414 . S
C1610 C1611 1.374 . S
C1611 H1591 0.950 . S
C1611 C1607 1.385 . S
C1611 C1610 1.374 . S
C1612 C1609 1.499 . S
C1612 C1613 1.373 . S
C1612 C1614 1.389 . S
C1613 H1592 0.950 . S
C1613 C1612 1.373 . S
C1613 C1629 1.377 . S
C1614 C1612 1.389 . S
C1614 C1615 1.524 . S
C1614 C1628 1.377 . S
C1615 C1614 1.524 . S
C1615 C1616 1.397 . S
C1615 C1620 1.363 . S
C1616 H1593 0.950 . S
C1616 C1615 1.397 . S
C1616 C1617 1.334 . S
C1617 H1594 0.950 . S
C1617 C1616 1.334 . S
C1617 C1618 1.287 . S
C1618 C1617 1.287 . S
C1618 C1619 1.524 . S
C1618 H1637 0.913 . S
C1619 H1595 0.950 . S
C1619 C1618 1.524 . S
C1619 C1620 1.415 . S
C1620 H1596 0.950 . S
C1620 C1615 1.363 . S
C1620 C1619 1.415 . S
C1621 H1597 0.951 . S
C1621 C1622 1.366 . S
C1621 C1623 1.388 . S
C1622 C1621 1.366 . S
C1622 C1626 1.385 . S
C1623 H1598 0.951 . S
C1623 C1621 1.388 . S
C1623 C1624 1.366 . S
C1624 C1623 1.366 . S
C1624 C1625 1.414 . S
C1624 C1627 1.499 . S
C1625 H1599 0.950 . S
C1625 C1624 1.414 . S
C1625 C1626 1.374 . S
C1626 H1600 0.950 . S
C1626 C1622 1.385 . S
C1626 C1625 1.374 . S
C1627 C1624 1.499 . S
C1627 C1628 1.373 . S
C1627 C1629 1.389 . S
C1628 H1601 0.950 . S
C1628 C1614 1.377 . S
C1628 C1627 1.373 . S
C1629 C1613 1.377 . S
C1629 C1627 1.389 . S
C1629 C1630 1.524 . S
C1630 C1629 1.524 . S
C1630 C1631 1.397 . S
C1630 C1635 1.363 . S
C1631 H1602 0.950 . S
C1631 C1630 1.397 . S
C1631 C1632 1.334 . S
C1632 H1603 0.950 . S
C1632 C1631 1.334 . S
C1632 C1633 1.287 . S
C1633 C1632 1.287 . S
C1633 C1634 1.524 . S
C1633 H1636 0.999 . S
C1634 H1604 0.950 . S
C1634 C1633 1.524 . S
C1634 C1635 1.415 . S
C1635 H1605 0.950 . S
C1635 C1630 1.363 . S
C1635 C1634 1.415 . S
H1636 C1633 0.999 . S
H1637 C1618 0.913 . S
H1638 C1656 0.951 . S
H1639 C1658 0.951 . S
H1640 C1660 0.950 . S
H1641 C1661 0.950 . S
H1642 C1663 0.950 . S
H1643 C1666 0.950 . S
H1644 C1667 0.950 . S
H1645 C1669 0.950 . S
H1646 C1670 0.950 . S
H1647 C1671 0.951 . S
H1648 C1673 0.951 . S
H1649 C1675 0.950 . S
H1650 C1676 0.950 . S
H1651 C1678 0.950 . S
H1652 C1681 0.950 . S
H1653 C1682 0.950 . S
H1654 C1684 0.950 . S
H1655 C1685 0.950 . S
C1656 H1638 0.951 . S
C1656 C1657 1.366 . S
C1656 C1658 1.388 . S
C1657 C1656 1.366 . S
C1657 C1661 1.385 . S
C1658 H1639 0.951 . S
C1658 C1656 1.388 . S
C1658 C1659 1.366 . S
C1659 C1658 1.366 . S
C1659 C1660 1.414 . S
C1659 C1662 1.499 . S
C1660 H1640 0.950 . S
C1660 C1659 1.414 . S
C1660 C1661 1.374 . S
C1661 H1641 0.950 . S
C1661 C1657 1.385 . S
C1661 C1660 1.374 . S
C1662 C1659 1.499 . S
C1662 C1663 1.373 . S
C1662 C1664 1.389 . S
C1663 H1642 0.950 . S
C1663 C1662 1.373 . S
C1663 C1679 1.377 . S
C1664 C1662 1.389 . S
C1664 C1665 1.524 . S
C1664 C1678 1.377 . S
C1665 C1664 1.524 . S
C1665 C1666 1.397 . S
C1665 C1670 1.363 . S
C1666 H1643 0.950 . S
C1666 C1665 1.397 . S
C1666 C1667 1.334 . S
C1667 H1644 0.950 . S
C1667 C1666 1.334 . S
C1667 C1668 1.287 . S
C1668 C1667 1.287 . S
C1668 C1669 1.524 . S
C1668 H1687 0.913 . S
C1669 H1645 0.950 . S
C1669 C1668 1.524 . S
C1669 C1670 1.415 . S
C1670 H1646 0.950 . S
C1670 C1665 1.363 . S
C1670 C1669 1.415 . S
C1671 H1647 0.951 . S
C1671 C1672 1.366 . S
C1671 C1673 1.388 . S
C1672 C1671 1.366 . S
C1672 C1676 1.385 . S
C1673 H1648 0.951 . S
C1673 C1671 1.388 . S
C1673 C1674 1.366 . S
C1674 C1673 1.366 . S
C1674 C1675 1.414 . S
C1674 C1677 1.499 . S
C1675 H1649 0.950 . S
C1675 C1674 1.414 . S
C1675 C1676 1.374 . S
C1676 H1650 0.950 . S
C1676 C1672 1.385 . S
C1676 C1675 1.374 . S
C1677 C1674 1.499 . S
C1677 C1678 1.373 . S
C1677 C1679 1.389 . S
C1678 H1651 0.950 . S
C1678 C1664 1.377 . S
C1678 C1677 1.373 . S
C1679 C1663 1.377 . S
C1679 C1677 1.389 . S
C1679 C1680 1.524 . S
C1680 C1679 1.524 . S
C1680 C1681 1.397 . S
C1680 C1685 1.363 . S
C1681 H1652 0.950 . S
C1681 C1680 1.397 . S
C1681 C1682 1.334 . S
C1682 H1653 0.950 . S
C1682 C1681 1.334 . S
C1682 C1683 1.287 . S
C1683 C1682 1.287 . S
C1683 C1684 1.524 . S
C1683 H1686 0.999 . S
C1684 H1654 0.950 . S
C1684 C1683 1.524 . S
C1684 C1685 1.415 . S
C1685 H1655 0.950 . S
C1685 C1680 1.363 . S
C1685 C1684 1.415 . S
H1686 C1683 0.999 . S
H1687 C1668 0.913 . S
C507 C125 1.890 . S
C522 C215 1.962 . S
C572 C292 1.981 . S
C557 C144 1.898 . S
C622 C383 1.950 . S
C607 C87 1.880 . S
C672 C467 1.941 . S
C657 C106 1.872 . S
C722 C226 1.963 . S
C707 C49 1.952 . S
C757 C68 1.959 . S
C772 C303 1.982 . S
C807 C11 1.938 . S
C822 C394 1.949 . S
C857 C30 1.929 . S
C872 C478 1.941 1_655 S
C922 C210 0.610 . S
C907 C97 0.569 . S
C972 C305 0.586 . S
C957 C116 0.545 . S
C1022 C378 0.610 . S
C1007 C135 0.570 . S
C1057 C78 0.551 . S
C1072 C462 0.601 . S
C1107 C21 0.570 . S
C1122 C221 0.612 . S
C1172 C294 0.588 . S
C1157 C40 0.542 . S
C1222 C389 0.613 . S
C1207 C59 0.570 . S
C1257 C2 0.552 . S
C1272 C473 0.599 . S
C1307 C101 1.892 . S
C1322 C219 2.024 . S
C1357 C120 1.886 . S
C1372 C310 2.027 . S
C1422 C387 2.044 . S
C1407 C139 1.909 . S
C1472 C471 2.049 . S
C1457 C82 1.915 . S
C1507 C25 1.894 . S
C1522 C208 2.023 . S
C1572 C299 2.028 . S
C1557 C44 1.890 . S
C1622 C376 2.044 . S
C1607 C63 1.913 . S
C1657 C6 1.918 . S
C1672 C460 2.048 . S
