# Generated by pormake.
# Topology zzz, (3,6)-cn, num edge types: 1
# Building blocks:
#     Node 0, Type 0, BuildingBlock: CUQRIR_clean_linker_1, # of connection points: 3
#     Node 1, Type 0, BuildingBlock: CUQRIR_clean_linker_1, # of connection points: 3
#     Node 2, Type 0, BuildingBlock: CUQRIR_clean_linker_1, # of connection points: 3
#     Node 3, Type 0, BuildingBlock: CUQRIR_clean_linker_1, # of connection points: 3
#     Node 4, Type 0, BuildingBlock: CUQRIR_clean_linker_1, # of connection points: 3
#     Node 5, Type 0, BuildingBlock: CUQRIR_clean_linker_1, # of connection points: 3
#     Node 6, Type 0, BuildingBlock: CUQRIR_clean_linker_1, # of connection points: 3
#     Node 7, Type 0, BuildingBlock: CUQRIR_clean_linker_1, # of connection points: 3
#     Node 8, Type 1, BuildingBlock: PAMTOO_clean_sbu_0, # of connection points: 6
#     Node 9, Type 1, BuildingBlock: PAMTOO_clean_sbu_0, # of connection points: 6
#     Node 10, Type 1, BuildingBlock: PAMTOO_clean_sbu_0, # of connection points: 6
#     Node 11, Type 1, BuildingBlock: PAMTOO_clean_sbu_0, # of connection points: 6
#     Edge 12, Type (0, 1), BuildingBlock: ZUJKAS_clean_linker_0, # of connection points: 2
#     Edge 13, Type (0, 1), BuildingBlock: ZUJKAS_clean_linker_0, # of connection points: 2
#     Edge 14, Type (0, 1), BuildingBlock: ZUJKAS_clean_linker_0, # of connection points: 2
#     Edge 15, Type (0, 1), BuildingBlock: ZUJKAS_clean_linker_0, # of connection points: 2
#     Edge 16, Type (0, 1), BuildingBlock: ZUJKAS_clean_linker_0, # of connection points: 2
#     Edge 17, Type (0, 1), BuildingBlock: ZUJKAS_clean_linker_0, # of connection points: 2
#     Edge 18, Type (0, 1), BuildingBlock: ZUJKAS_clean_linker_0, # of connection points: 2
#     Edge 19, Type (0, 1), BuildingBlock: ZUJKAS_clean_linker_0, # of connection points: 2
#     Edge 20, Type (0, 1), BuildingBlock: ZUJKAS_clean_linker_0, # of connection points: 2
#     Edge 21, Type (0, 1), BuildingBlock: ZUJKAS_clean_linker_0, # of connection points: 2
#     Edge 22, Type (0, 1), BuildingBlock: ZUJKAS_clean_linker_0, # of connection points: 2
#     Edge 23, Type (0, 1), BuildingBlock: ZUJKAS_clean_linker_0, # of connection points: 2
#     Edge 24, Type (0, 1), BuildingBlock: ZUJKAS_clean_linker_0, # of connection points: 2
#     Edge 25, Type (0, 1), BuildingBlock: ZUJKAS_clean_linker_0, # of connection points: 2
#     Edge 26, Type (0, 1), BuildingBlock: ZUJKAS_clean_linker_0, # of connection points: 2
#     Edge 27, Type (0, 1), BuildingBlock: ZUJKAS_clean_linker_0, # of connection points: 2
#     Edge 28, Type (0, 1), BuildingBlock: ZUJKAS_clean_linker_0, # of connection points: 2
#     Edge 29, Type (0, 1), BuildingBlock: ZUJKAS_clean_linker_0, # of connection points: 2
#     Edge 30, Type (0, 1), BuildingBlock: ZUJKAS_clean_linker_0, # of connection points: 2
#     Edge 31, Type (0, 1), BuildingBlock: ZUJKAS_clean_linker_0, # of connection points: 2
#     Edge 32, Type (0, 1), BuildingBlock: ZUJKAS_clean_linker_0, # of connection points: 2
#     Edge 33, Type (0, 1), BuildingBlock: ZUJKAS_clean_linker_0, # of connection points: 2
#     Edge 34, Type (0, 1), BuildingBlock: ZUJKAS_clean_linker_0, # of connection points: 2
#     Edge 35, Type (0, 1), BuildingBlock: ZUJKAS_clean_linker_0, # of connection points: 2
# Relax obj value: 0.211
# Max RMSD: 0.244
# Mean RMSD: 0.124
data_MOF--net-zzz--node1-PAMTOO_clean_sbu_0--node2-CUQRIR_clean_linker_1--edge1-ZUJKAS_clean_linker_0
_symmetry_space_group_name_H-M    P1
_symmetry_Int_Tables_number       1
_symmetry_cell_setting            triclinic
loop_
_symmetry_equiv_pos_as_xyz
'x, y, z'
_cell_length_a     68.739434
_cell_length_b     61.364622
_cell_length_c     18.590138
_cell_angle_alpha  91.293394
_cell_angle_beta   81.422412
_cell_angle_gamma 86.284548
loop_
_atom_site_label
_atom_site_type_symbol
_atom_site_fract_x
_atom_site_fract_y
_atom_site_fract_z
_atom_type_partial_charge
C0 C 0.79139 0.50968 0.47491 0.0
N1 N 0.80848 0.51847 0.48456 0.0
N2 N 0.78295 0.52028 0.42269 0.0
C3 C 0.78422 0.48934 0.51 0.0
C4 C 0.79559 0.53572 0.40112 0.0
N5 N 0.81104 0.53465 0.43851 0.0
C6 C 0.79307 0.55149 0.34189 0.0
H7 H 0.79086 0.47496 0.47558 0.0
H8 H 0.76794 0.4893 0.51475 0.0
H9 H 0.78878 0.48784 0.56458 0.0
H10 H 0.7772 0.55601 0.34136 0.0
H11 H 0.79929 0.54357 0.28844 0.0
H12 H 0.80092 0.56644 0.34928 0.0
C13 C 1.00715 0.72977 0.39203 0.0
N14 N 0.99905 0.75022 0.41073 0.0
N15 N 0.99701 0.71989 0.34465 0.0
C16 C 0.0253 0.71979 0.41768 0.0
C17 C 0.98276 0.73527 0.33422 0.0
N18 N 0.98392 0.75363 0.3745 0.0
C19 C 0.96937 0.73327 0.27765 0.0
H20 H 0.03847 0.72427 0.38032 0.0
H21 H 0.02519 0.70171 0.41726 0.0
H22 H 0.0264 0.72613 0.47322 0.0
H23 H 0.96059 0.71883 0.2883 0.0
H24 H 0.97842 0.73062 0.22313 0.0
H25 H 0.95911 0.74798 0.27746 0.0
C26 C 0.78388 0.99822 0.3337 0.0
N27 N 0.76464 0.00575 0.34004 0.0
N28 N 0.79492 0.00765 0.27715 0.0
C29 C 0.79178 0.98152 0.38141 0.0
C30 C 0.78157 0.0209 0.24921 0.0
N31 N 0.76338 0.01983 0.28759 0.0
C32 C 0.78627 0.03433 0.18289 0.0
H33 H 0.78281 0.98234 0.43635 0.0
H34 H 0.80743 0.98395 0.38577 0.0
H35 H 0.791 0.96502 0.35678 0.0
H36 H 0.7972 0.02512 0.1414 0.0
H37 H 0.79286 0.04941 0.1987 0.0
H38 H 0.77289 0.03915 0.15873 0.0
C39 C 0.53536 0.75471 0.28009 0.0
N40 N 0.53026 0.73371 0.28099 0.0
N41 N 0.52941 0.76506 0.22237 0.0
C42 C 0.54533 0.76532 0.33691 0.0
C43 C 0.5207 0.74948 0.18806 0.0
N44 N 0.52114 0.73055 0.22381 0.0
C45 C 0.51331 0.75221 0.11633 0.0
H46 H 0.54141 0.75781 0.39042 0.0
H47 H 0.54122 0.78314 0.34194 0.0
H48 H 0.56153 0.76287 0.32058 0.0
H49 H 0.52135 0.76462 0.08361 0.0
H50 H 0.49742 0.75771 0.12681 0.0
H51 H 0.51496 0.73652 0.08445 0.0
C52 C 0.27368 0.49282 0.05117 0.0
N53 N 0.25697 0.48337 0.0407 0.0
N54 N 0.28261 0.48207 0.10193 0.0
C55 C 0.28097 0.5127 0.01339 0.0
C56 C 0.27041 0.46612 0.12286 0.0
N57 N 0.25497 0.4668 0.08538 0.0
C58 C 0.27261 0.45136 0.18513 0.0
H59 H 0.29724 0.51275 0.00915 0.0
H60 H 0.27424 0.52747 0.04557 0.0
H61 H 0.27657 0.51345 0.95838 0.0
H62 H 0.25936 0.44212 0.2007 0.0
H63 H 0.27552 0.46113 0.23289 0.0
H64 H 0.28548 0.43949 0.16905 0.0
C65 C 0.05183 0.2799 0.06695 0.0
N66 N 0.05673 0.25829 0.05378 0.0
N67 N 0.06072 0.28753 0.12206 0.0
C68 C 0.03735 0.29306 0.02979 0.0
C69 C 0.07079 0.26962 0.14275 0.0
N70 N 0.06832 0.25185 0.10155 0.0
C71 C 0.08101 0.26902 0.20897 0.0
H72 H 0.04001 0.31069 0.03229 0.0
H73 H 0.02222 0.29084 0.0578 0.0
H74 H 0.03832 0.28729 0.97227 0.0
H75 H 0.07001 0.27305 0.25828 0.0
H76 H 0.09202 0.28153 0.20544 0.0
H77 H 0.08866 0.25281 0.21456 0.0
C78 C 0.26721 0.00223 0.1914 0.0
N79 N 0.2867 0.99558 0.18235 0.0
N80 N 0.25711 0.9925 0.24954 0.0
C81 C 0.25818 0.01849 0.14489 0.0
C82 C 0.27133 0.97991 0.27548 0.0
N83 N 0.28909 0.98169 0.23451 0.0
C84 C 0.26791 0.96644 0.34236 0.0
H85 H 0.24249 0.01551 0.14339 0.0
H86 H 0.26647 0.01774 0.0888 0.0
H87 H 0.25887 0.03515 0.16844 0.0
H88 H 0.26181 0.95091 0.32794 0.0
H89 H 0.25705 0.97525 0.3851 0.0
H90 H 0.28173 0.96232 0.36454 0.0
C91 C 0.52308 0.24739 0.24647 0.0
N92 N 0.52633 0.26892 0.25024 0.0
N93 N 0.52798 0.23716 0.30608 0.0
C94 C 0.51484 0.23653 0.18565 0.0
C95 C 0.53419 0.25335 0.34617 0.0
N96 N 0.53321 0.27255 0.31213 0.0
C97 C 0.54115 0.25027 0.41859 0.0
H98 H 0.51993 0.21896 0.17978 0.0
H99 H 0.51917 0.24468 0.13361 0.0
H100 H 0.4985 0.23786 0.19826 0.0
H101 H 0.55643 0.24267 0.40928 0.0
H102 H 0.5317 0.23911 0.45195 0.0
H103 H 0.54127 0.26589 0.44936 0.0
Dy104 Dy 1.01501 0.00752 0.69682 0.0
Dy105 Dy 0.03646 0.99374 0.83708 0.0
C106 C 0.06338 0.00271 0.68581 0.0
O107 O 1.01009 0.97238 0.71667 0.0
O108 O 0.03799 0.9637 0.76496 0.0
O109 O 1.00948 0.99766 0.59004 0.0
O110 O 0.99661 0.02857 0.63909 0.0
O111 O 1.00424 0.98841 0.86799 0.0
O112 O 0.99054 0.01151 0.7916 0.0
O113 O 0.03294 0.03032 0.8446 0.0
O114 O 0.02552 0.03921 0.73168 0.0
O115 O 0.03984 1.00073 0.94871 0.0
O116 O 0.05388 0.97119 0.89367 0.0
C117 C 0.02378 0.95786 0.73031 0.0
O118 O 0.04752 0.0023 0.65371 0.0
O119 O 0.06236 0.00218 0.75706 0.0
C120 C 1.00922 0.02766 0.51511 0.0
C121 C 0.02614 0.05255 0.40011 0.0
C122 C 0.03778 0.04336 0.44913 0.0
C123 C 0.02933 0.03124 0.50641 0.0
C124 C 0.99764 0.03589 0.46464 0.0
C125 C 1.00607 0.0483 0.40726 0.0
C126 C 1.00051 0.01644 0.57953 0.0
C127 C 0.98891 0.99986 0.85039 0.0
C128 C 0.03014 0.04476 0.79533 0.0
C129 C 0.03818 0.96892 0.01426 0.0
C130 C 1.01554 0.94791 0.12738 0.0
C131 C 1.01065 0.94739 0.05671 0.0
C132 C 0.0219 0.95772 1.00073 0.0
C133 C 0.04323 0.96951 0.08457 0.0
C134 C 0.03206 0.95888 0.14081 0.0
C135 C 0.04845 0.98158 0.95614 0.0
H136 H 0.05332 0.04611 0.44458 0.0
H137 H 0.03837 0.02518 0.54536 0.0
H138 H 0.98204 0.03333 0.47092 0.0
H139 H 0.99671 0.05539 0.37069 0.0
H140 H 0.99828 0.93866 0.04433 0.0
H141 H 1.01775 0.9571 0.9468 0.0
H142 H 0.05562 0.97834 0.09607 0.0
H143 H 0.03616 0.95943 0.19482 0.0
Dy144 Dy 0.52169 0.98421 0.69406 0.0
Dy145 Dy 0.52892 0.0166 0.82853 0.0
C146 C 0.5176 0.03626 0.68099 0.0
O147 O 0.55449 0.98156 0.69392 0.0
O148 O 0.55791 0.01385 0.75357 0.0
O149 O 0.53017 0.97231 0.58301 0.0
O150 O 0.50663 0.95793 0.65251 0.0
O151 O 0.54028 0.98333 0.85788 0.0
O152 O 0.52247 0.96303 0.78971 0.0
O153 O 0.49782 0.00707 0.85648 0.0
O154 O 0.49114 0.99783 0.74301 0.0
O155 O 0.52706 0.0237 0.94385 0.0
O156 O 0.53705 0.04775 0.86589 0.0
C157 C 0.5655 0.99715 0.71049 0.0
O158 O 0.52306 0.01738 0.64708 0.0
O159 O 0.51482 0.03813 0.75236 0.0
C160 C 0.50369 0.96049 0.52904 0.0
C161 C 0.47683 0.96309 0.4288 0.0
C162 C 0.48382 0.98219 0.45609 0.0
C163 C 0.49705 0.9809 0.50616 0.0
C164 C 0.49745 0.94139 0.49979 0.0
C165 C 0.48411 0.94265 0.45002 0.0
C166 C 0.51607 0.95899 0.58664 0.0
C167 C 0.53286 0.96481 0.84307 0.0
C168 C 0.48514 0.00288 0.81244 0.0
C169 C 0.55087 0.04665 0.97362 0.0
C170 C 0.58221 0.05484 0.04943 0.0
C171 C 0.58543 0.04143 0.98579 0.0
C172 C 0.56987 0.03734 0.94824 0.0
C173 C 0.54752 0.05998 0.03701 0.0
C174 C 0.56308 0.06402 0.07486 0.0
C175 C 0.53453 0.04259 0.93409 0.0
H176 H 0.47868 0.99816 0.44012 0.0
H177 H 0.50169 0.99585 0.52838 0.0
H178 H 0.5024 0.92551 0.51725 0.0
H179 H 0.47882 0.92766 0.43087 0.0
H180 H 0.59994 0.03382 0.96562 0.0
H181 H 0.57264 0.0269 0.89948 0.0
H182 H 0.53288 0.06727 0.05713 0.0
H183 H 0.56021 0.07449 0.12352 0.0
Dy184 Dy 0.55324 0.50441 0.79345 0.0
Dy185 Dy 0.50674 0.50211 0.75391 0.0
C186 C 0.52496 0.46904 0.86508 0.0
O187 O 0.55286 0.47737 0.71153 0.0
O188 O 0.52777 0.49131 0.65448 0.0
O189 O 0.58083 0.48776 0.81057 0.0
O190 O 0.57776 0.52308 0.81363 0.0
O191 O 0.51719 0.53393 0.71393 0.0
O192 O 0.5509 0.52675 0.70012 0.0
O193 O 0.50268 0.5177 0.86555 0.0
O194 O 0.5343 0.52804 0.87002 0.0
O195 O 0.47774 0.51651 0.74246 0.0
O196 O 0.48502 0.48206 0.71774 0.0
C197 C 0.54307 0.47753 0.65611 0.0
O198 O 0.53821 0.48276 0.87632 0.0
O199 O 0.51374 0.47195 0.81402 0.0
C200 C 0.60079 0.50648 0.88424 0.0
C201 C 0.62687 0.50692 0.9897 0.0
C202 C 0.61537 0.48902 0.9824 0.0
C203 C 0.6025 0.48879 0.93036 0.0
C204 C 0.612 0.52449 0.89236 0.0
C205 C 0.6248 0.52475 0.94439 0.0
C206 C 0.589 0.50577 0.82325 0.0
C207 C 0.53519 0.53885 0.68811 0.0
C208 C 0.51531 0.52905 0.89477 0.0
C209 C 0.46044 0.4993 0.65543 0.0
C210 C 0.43485 0.50059 0.54816 0.0
C211 C 0.44292 0.51972 0.57049 0.0
C212 C 0.45553 0.5191 0.6235 0.0
C213 C 0.45268 0.48017 0.63225 0.0
C214 C 0.44012 0.48078 0.57936 0.0
C215 C 0.47192 0.49839 0.71743 0.0
H216 H 0.61635 0.47511 0.01678 0.0
H217 H 0.59416 0.47459 0.92551 0.0
H218 H 0.61124 0.53822 0.85701 0.0
H219 H 0.63357 0.53868 0.94737 0.0
H220 H 0.43943 0.53525 0.54722 0.0
H221 H 0.46113 0.5342 0.64028 0.0
H222 H 0.4559 0.46472 0.65656 0.0
H223 H 0.43402 0.46575 0.56477 0.0
Dy224 Dy 0.03916 0.51506 0.67972 0.0
Dy225 Dy 0.02894 0.48308 0.81664 0.0
C226 C 0.0408 0.46297 0.65575 0.0
O227 O 1.00841 0.50558 0.67635 0.0
O228 O 0.99934 0.49695 0.79519 0.0
O229 O 0.03183 0.52822 0.57927 0.0
O230 O 0.05906 0.53561 0.61574 0.0
O231 O 0.02934 0.51672 0.8649 0.0
O232 O 0.02513 0.53867 0.76891 0.0
O233 O 0.06184 0.48068 0.78548 0.0
O234 O 0.06458 0.51495 0.74276 0.0
O235 O 0.03873 0.46872 0.91114 0.0
O236 O 1.01029 0.46187 0.88323 0.0
C237 C 0.99474 0.50175 0.73094 0.0
O238 O 0.04965 0.48096 0.63962 0.0
O239 O 0.02968 0.46108 0.71883 0.0
C240 C 0.06027 0.52499 0.49279 0.0
C241 C 0.07745 0.50106 0.36571 0.0
C242 C 0.065 0.5199 0.36096 0.0
C243 C 0.05623 0.53168 0.42446 0.0
C244 C 0.07323 0.50658 0.49676 0.0
C245 C 0.08167 0.49474 0.43403 0.0
C246 C 0.04934 0.53506 0.56073 0.0
C247 C 0.0253 0.53598 0.8389 0.0
C248 C 0.07223 0.49772 0.77168 0.0
C249 C 1.01175 0.47004 0.00624 0.0
C250 C 0.98751 0.49324 0.12183 0.0
C251 C 1.00628 0.5001 0.09622 0.0
C252 C 0.0183 0.48863 0.03873 0.0
C253 C 0.99382 0.46202 0.03664 0.0
C254 C 0.98178 0.47354 0.09399 0.0
C255 C 0.0215 0.46162 0.93401 0.0
H256 H 0.06179 0.52521 0.30854 0.0
H257 H 0.04608 0.5457 0.42042 0.0
H258 H 0.07653 0.50098 0.54872 0.0
H259 H 0.09161 0.48059 0.43898 0.0
H260 H 1.01103 0.51524 0.11661 0.0
H261 H 0.03208 0.49525 0.01662 0.0
H262 H 0.9885 0.44772 0.01271 0.0
H263 H 0.96747 0.46772 0.11379 0.0
H264 H 0.23557 0.03048 0.29367 0.0
H265 H 0.20191 0.03436 0.36171 0.0
H266 H 0.19889 0.9644 0.3496 0.0
H267 H 0.23187 0.96081 0.27793 0.0
H268 H 0.16492 0.98208 0.33493 0.0
H269 H 0.18751 0.02421 0.57245 0.0
H270 H 0.19246 0.03911 0.49063 0.0
H271 H 0.20517 0.0128 0.49748 0.0
C272 C 0.22749 0.01604 0.30429 0.0
C273 C 0.23643 0.99531 0.28101 0.0
C274 C 0.20836 0.01819 0.34447 0.0
C275 C 0.19787 0.99962 0.3634 0.0
C276 C 0.20655 0.97903 0.33694 0.0
H277 H 0.10028 0.99283 0.72264 0.0
H278 H 0.1323 0.99221 0.64411 0.0
C279 C 0.22549 0.97694 0.29614 0.0
C280 C 0.17802 0.00131 0.41081 0.0
H281 H 0.1532 0.02117 0.57534 0.0
C282 C 0.16243 0.99065 0.38751 0.0
C283 C 0.17461 0.01208 0.48042 0.0
C284 C 0.19087 0.0225 0.51216 0.0
C285 C 0.14379 0.99042 0.43108 0.0
C286 C 0.14014 0.00192 0.49945 0.0
C287 C 0.15574 0.01254 0.52289 0.0
C288 C 0.12048 0.00273 0.54794 0.0
C289 C 0.12847 0.9771 0.40409 0.0
C290 C 0.10295 0.00924 0.52137 0.0
C291 C 0.08457 0.0092 0.56592 0.0
C292 C 0.08312 0.00324 0.63918 0.0
C293 C 0.10072 0.9975 0.66663 0.0
C294 C 0.11912 0.99717 0.62157 0.0
H295 H 0.13539 0.96395 0.36464 0.0
H296 H 0.11927 0.96949 0.44965 0.0
H297 H 0.11873 0.98788 0.37558 0.0
H298 H 0.10342 0.01441 0.46589 0.0
H299 H 0.07149 0.01398 0.54273 0.0
H300 H 0.55654 0.20881 0.34026 0.0
H301 H 0.55231 0.17306 0.39369 0.0
H302 H 0.49074 0.1786 0.36947 0.0
H303 H 0.49487 0.21511 0.31973 0.0
H304 H 0.49418 0.16585 0.50001 0.0
H305 H 0.54798 0.11391 0.30987 0.0
H306 H 0.55978 0.13608 0.34542 0.0
H307 H 0.54075 0.14164 0.28994 0.0
C308 C 0.54216 0.20227 0.3459 0.0
C309 C 0.52602 0.2147 0.32617 0.0
C310 C 0.53978 0.18169 0.37561 0.0
C311 C 0.52125 0.1728 0.3848 0.0
C312 C 0.50521 0.18496 0.36272 0.0
H313 H 0.51409 0.03838 0.53617 0.0
H314 H 0.51266 0.07099 0.46319 0.0
C315 C 0.50758 0.20571 0.33366 0.0
C316 C 0.51841 0.15171 0.42254 0.0
H317 H 0.53844 0.09942 0.42859 0.0
C318 C 0.5037 0.15124 0.48367 0.0
C319 C 0.53053 0.1324 0.40093 0.0
C320 C 0.54548 0.13095 0.33245 0.0
C321 C 0.5013 0.13243 0.52517 0.0
C322 C 0.51439 0.11366 0.50673 0.0
C323 C 0.52857 0.11384 0.44386 0.0
C324 C 0.51397 0.09388 0.55242 0.0
C325 C 0.48457 0.1329 0.58788 0.0
C326 C 0.51516 0.09569 0.62718 0.0
C327 C 0.51565 0.07707 0.66932 0.0
C328 C 0.51543 0.05609 0.63744 0.0
C329 C 0.51426 0.05427 0.5626 0.0
C330 C 0.51349 0.07293 0.52069 0.0
H331 H 0.47226 0.14468 0.57895 0.0
H332 H 0.47874 0.11654 0.59615 0.0
H333 H 0.48992 0.13827 0.63841 0.0
H334 H 0.5162 0.1115 0.65284 0.0
H335 H 0.51684 0.0791 0.72649 0.0
H336 H 0.31549 0.45608 0.10556 0.0
H337 H 0.34231 0.46263 0.17543 0.0
H338 H 0.3149 0.52654 0.24223 0.0
H339 H 0.28788 0.51973 0.17298 0.0
H340 H 0.36948 0.49551 0.17146 0.0
H341 H 0.31973 0.49733 0.43653 0.0
H342 H 0.31244 0.48743 0.35305 0.0
H343 H 0.31257 0.51628 0.37138 0.0
C344 C 0.31537 0.47159 0.13463 0.0
C345 C 0.29967 0.48739 0.13408 0.0
C346 C 0.33067 0.47534 0.17447 0.0
C347 C 0.33051 0.49493 0.21523 0.0
C348 C 0.31522 0.51115 0.21228 0.0
H349 H 0.40518 0.53208 0.53594 0.0
H350 H 0.38089 0.53226 0.4521 0.0
C351 C 0.29992 0.50739 0.17209 0.0
C352 C 0.34601 0.49791 0.26244 0.0
H353 H 0.35306 0.50345 0.44016 0.0
C354 C 0.36588 0.49732 0.2302 0.0
C355 C 0.34137 0.50028 0.3392 0.0
C356 C 0.32041 0.5002 0.37744 0.0
C357 C 0.38117 0.49911 0.27236 0.0
C358 C 0.37657 0.50104 0.34926 0.0
C359 C 0.35666 0.50198 0.38137 0.0
C360 C 0.39213 0.50148 0.3976 0.0
C361 C 0.4021 0.49921 0.2339 0.0
C362 C 0.40661 0.48413 0.39541 0.0
C363 C 0.42065 0.48406 0.44296 0.0
C364 C 0.42051 0.50127 0.49458 0.0
C365 C 0.40603 0.5187 0.49637 0.0
C366 C 0.39198 0.51875 0.44872 0.0
H367 H 0.4026 0.50445 0.17686 0.0
H368 H 0.41081 0.51022 0.26268 0.0
H369 H 0.40923 0.48242 0.23224 0.0
H370 H 0.40686 0.47036 0.35774 0.0
H371 H 0.43162 0.47043 0.4393 0.0
H372 H 0.08738 0.31643 0.14137 0.0
H373 H 0.08278 0.34751 0.2294 0.0
H374 H 0.02126 0.3356 0.28366 0.0
H375 H 0.02601 0.30435 0.19585 0.0
H376 H 0.03048 0.38206 0.27101 0.0
H377 H 0.0738 0.33513 0.45269 0.0
H378 H 0.08565 0.3369 0.36021 0.0
H379 H 0.06375 0.3223 0.37929 0.0
C380 C 0.07283 0.3208 0.17123 0.0
C381 C 0.05704 0.30813 0.16213 0.0
C382 C 0.07023 0.33841 0.22165 0.0
C383 C 0.05175 0.34364 0.26392 0.0
C384 C 0.03565 0.3318 0.25176 0.0
H385 H 0.02852 0.42134 0.67217 0.0
H386 H 0.03039 0.39232 0.57794 0.0
C387 C 0.0383 0.3141 0.20137 0.0
C388 C 0.04957 0.36058 0.32355 0.0
H389 H 0.06444 0.37219 0.48689 0.0
C390 C 0.03786 0.37991 0.31829 0.0
C391 C 0.05899 0.35761 0.38571 0.0
C392 C 0.07113 0.33681 0.39551 0.0
C393 C 0.03572 0.39658 0.37274 0.0
C394 C 0.04564 0.39387 0.43385 0.0
C395 C 0.05695 0.37431 0.43989 0.0
C396 C 0.04474 0.41131 0.4914 0.0
C397 C 0.02276 0.41691 0.36474 0.0
C398 C 0.05256 0.43143 0.4745 0.0
C399 C 0.05166 0.44797 0.52818 0.0
C400 C 0.0429 0.44477 0.60022 0.0
C401 C 0.03536 0.42441 0.61734 0.0
C402 C 0.03639 0.4078 0.56352 0.0
H403 H 1.01247 0.41424 0.32515 0.0
H404 H 1.01405 0.42245 0.41791 0.0
H405 H 0.03217 0.43019 0.34473 0.0
H406 H 0.05936 0.43433 0.41957 0.0
H407 H 0.05753 0.46339 0.51278 0.0
H408 H 0.82161 0.03809 0.26434 0.0
H409 H 0.85527 0.03431 0.19718 0.0
H410 H 0.84902 0.9658 0.15736 0.0
H411 H 0.81507 0.96983 0.22366 0.0
H412 H 0.88912 0.00939 0.2116 0.0
H413 H 0.86356 0.9874 0.95163 0.0
H414 H 0.84683 0.99784 0.03079 0.0
H415 H 0.85625 0.96974 0.0251 0.0
C416 C 0.82757 0.02219 0.24199 0.0
C417 C 0.81575 0.00427 0.24907 0.0
C418 C 0.8468 0.02001 0.20353 0.0
C419 C 0.85469 0.99986 0.17064 0.0
C420 C 0.84321 0.98164 0.18076 0.0
H421 H 0.97958 0.97663 0.97432 0.0
H422 H 0.94764 0.97573 0.05189 0.0
C423 C 0.82392 0.98384 0.2195 0.0
C424 C 0.87458 0.99835 0.12409 0.0
H425 H 0.89798 0.98746 0.94975 0.0
C426 C 0.89106 0.00448 0.15444 0.0
C427 C 0.87718 0.99232 0.04899 0.0
C428 C 0.86003 0.98663 0.01178 0.0
C429 C 0.90991 0.00468 0.11224 0.0
C430 C 0.91257 0.99829 0.03741 0.0
C431 C 0.89608 0.99221 0.00704 0.0
C432 C 0.93215 0.99845 0.98922 0.0
C433 C 0.92667 0.01242 0.14789 0.0
C434 C 0.93421 0.01099 0.92643 0.0
C435 C 0.95251 0.01141 0.88136 0.0
C436 C 0.96928 0.99919 0.89761 0.0
C437 C 0.96711 0.98639 0.96 0.0
C438 C 0.9488 0.98596 0.00495 0.0
H439 H 0.92123 0.02214 0.19891 0.0
H440 H 0.93582 0.99803 0.16197 0.0
H441 H 0.93622 0.02254 0.11064 0.0
H442 H 0.92164 0.02071 0.91262 0.0
H443 H 0.9535 0.02143 0.83391 0.0
H444 H 0.50071 0.79471 0.19846 0.0
H445 H 0.50485 0.83059 0.14481 0.0
H446 H 0.56766 0.82158 0.14334 0.0
H447 H 0.56346 0.78535 0.19556 0.0
H448 H 0.52104 0.86858 0.18612 0.0
H449 H 0.56331 0.83157 0.92924 0.0
H450 H 0.55006 0.81546 0.99767 0.0
H451 H 0.57343 0.8252 0.01057 0.0
C452 C 0.51535 0.80055 0.18718 0.0
C453 C 0.53178 0.78729 0.20052 0.0
C454 C 0.51772 0.82104 0.15677 0.0
C455 C 0.5366 0.82869 0.13881 0.0
C456 C 0.55298 0.8159 0.15549 0.0
H457 H 0.55002 0.96179 0.96811 0.0
H458 H 0.55288 0.92971 0.0436 0.0
C459 C 0.55059 0.79533 0.18598 0.0
C460 C 0.53899 0.84948 0.09933 0.0
H461 H 0.55752 0.86979 0.93525 0.0
C462 C 0.5292 0.86891 0.13156 0.0
C463 C 0.54943 0.84988 0.02773 0.0
C464 C 0.55954 0.82942 0.98877 0.0
C465 C 0.52928 0.88857 0.09379 0.0
C466 C 0.53962 0.8889 0.02203 0.0
C467 C 0.54974 0.86958 0.99043 0.0
C468 C 0.53862 0.90848 0.97621 0.0
C469 C 0.51757 0.90857 0.12977 0.0
C470 C 0.53014 0.90713 0.91228 0.0
C471 C 0.52857 0.92532 0.86904 0.0
C472 C 0.53556 0.94539 0.88827 0.0
C473 C 0.54444 0.94664 0.95167 0.0
C474 C 0.54597 0.92834 0.99519 0.0
H475 H 0.50744 0.90456 0.17931 0.0
H476 H 0.52785 0.92033 0.14599 0.0
H477 H 0.50876 0.91677 0.09142 0.0
H478 H 0.52441 0.89201 0.89627 0.0
H479 H 0.5217 0.9236 0.82063 0.0
H480 H 0.78484 0.50463 0.28548 0.0
H481 H 0.75712 0.50033 0.21815 0.0
H482 H 0.71629 0.51955 0.41185 0.0
H483 H 0.74424 0.52368 0.47924 0.0
H484 H 0.70381 0.4847 0.32945 0.0
H485 H 0.72566 0.5539 0.15541 0.0
H486 H 0.74489 0.53263 0.15497 0.0
H487 H 0.73584 0.54823 0.23759 0.0
C488 C 0.76991 0.50756 0.31371 0.0
C489 C 0.76659 0.51445 0.38735 0.0
C490 C 0.75409 0.50528 0.27523 0.0
C491 C 0.73457 0.51003 0.30941 0.0
C492 C 0.73119 0.51588 0.38412 0.0
H493 H 0.63567 0.54107 0.07513 0.0
H494 H 0.66073 0.54136 0.15564 0.0
C495 C 0.74709 0.51814 0.42271 0.0
C496 C 0.71789 0.50982 0.26626 0.0
H497 H 0.70034 0.5332 0.12117 0.0
C498 C 0.70301 0.49534 0.28405 0.0
C499 C 0.71662 0.52394 0.20761 0.0
C500 C 0.73148 0.54071 0.18801 0.0
C501 C 0.68722 0.49425 0.24381 0.0
C502 C 0.68635 0.50783 0.1835 0.0
C503 C 0.70102 0.52263 0.16684 0.0
C504 C 0.67037 0.50716 0.13706 0.0
C505 C 0.67143 0.4788 0.26707 0.0
C506 C 0.66734 0.48787 0.09925 0.0
C507 C 0.65301 0.48766 0.05281 0.0
C508 C 0.64142 0.50681 0.04243 0.0
C509 C 0.64441 0.52606 0.08086 0.0
C510 C 0.65872 0.52624 0.12732 0.0
H511 H 0.67118 0.47427 0.32472 0.0
H512 H 0.65663 0.48612 0.2604 0.0
H513 H 0.67444 0.46359 0.23269 0.0
H514 H 0.67642 0.47304 0.10418 0.0
H515 H 0.65144 0.47262 0.0233 0.0
H516 H 0.97468 0.68557 0.34513 0.0
H517 H 0.98044 0.65344 0.26154 0.0
H518 H 0.03573 0.67719 0.16439 0.0
H519 H 0.02991 0.70919 0.24882 0.0
H520 H 0.98382 0.654 0.1138 0.0
H521 H 0.05157 0.61341 0.19287 0.0
H522 H 0.03666 0.63445 0.24914 0.0
H523 H 0.05375 0.64164 0.17178 0.0
C524 C 0.98821 0.68358 0.30678 0.0
C525 C 1.00195 0.6996 0.30352 0.0
C526 C 0.99148 0.66534 0.25891 0.0
C527 C 1.0086 0.66276 0.20686 0.0
C528 C 0.02261 0.67854 0.20492 0.0
H529 H 0.02107 0.57975 0.8094 0.0
H530 H 1.01687 0.61088 0.89679 0.0
C531 C 0.01934 0.69677 0.25309 0.0
C532 C 1.01107 0.64431 0.15198 0.0
H533 H 0.04157 0.60005 0.08406 0.0
C534 C 0.99644 0.64218 0.1074 0.0
C535 C 0.02745 0.62876 0.14394 0.0
C536 C 0.04317 0.62949 0.19238 0.0
C537 C 0.99777 0.62506 0.05491 0.0
C538 C 1.01438 0.60983 0.04565 0.0
C539 C 0.02895 0.61186 0.09055 0.0
C540 C 1.01655 0.59111 0.99192 0.0
C541 C 0.98113 0.62312 0.01111 0.0
C542 C 1.01801 0.56966 0.01601 0.0
C543 C 0.02051 0.55191 0.96631 0.0
C544 C 0.0217 0.55511 0.89101 0.0
C545 C 0.02009 0.57664 0.86688 0.0
C546 C 1.01762 0.59446 0.91687 0.0
H547 H 0.96747 0.63267 0.03681 0.0
H548 H 0.98552 0.62951 0.95613 0.0
H549 H 0.97777 0.60579 0.0046 0.0
H550 H 1.0172 0.56662 0.07355 0.0
H551 H 0.02165 0.53563 0.98719 0.0
H552 H 0.0505 0.23511 0.22324 0.0
H553 H 0.04809 0.19637 0.24797 0.0
H554 H 0.08649 0.17942 0.04611 0.0
H555 H 0.09009 0.21846 0.02469 0.0
H556 H 0.03189 0.16892 0.16364 0.0
H557 H 0.1088 0.13796 0.18358 0.0
H558 H 0.10136 0.16675 0.18685 0.0
H559 H 0.10523 0.1516 0.10155 0.0
C560 C 0.05906 0.22305 0.18599 0.0
C561 C 0.07054 0.22954 0.12245 0.0
C562 C 0.05746 0.20099 0.19934 0.0
C563 C 0.06705 0.18501 0.14872 0.0
C564 C 0.07919 0.19145 0.08639 0.0
H565 H 0.02133 0.05634 0.25648 0.0
H566 H 0.0333 0.08501 0.17408 0.0
C567 C 0.08115 0.21365 0.07395 0.0
C568 C 0.06311 0.16186 0.16051 0.0
H569 H 0.08419 0.11307 0.20424 0.0
C570 C 0.04335 0.15654 0.17121 0.0
C571 C 0.07813 0.14581 0.16992 0.0
C572 C 0.09957 0.15075 0.16043 0.0
C573 C 0.03802 0.13617 0.19687 0.0
C574 C 0.05296 0.12047 0.20971 0.0
C575 C 0.07284 0.12516 0.19362 0.0
C576 C 0.04808 0.10119 0.2531 0.0
C577 C 1.01641 0.13236 0.21635 0.0
C578 C 0.053 0.1005 0.32348 0.0
C579 C 0.04628 0.08431 0.3701 0.0
C580 C 0.03453 0.06839 0.34723 0.0
C581 C 0.03019 0.06857 0.27566 0.0
C582 C 0.03705 0.08483 0.22863 0.0
H583 H 1.00671 0.14709 0.20895 0.0
H584 H 1.0126 0.11886 0.18149 0.0
H585 H 1.01318 0.12751 0.27386 0.0
H586 H 0.06134 0.11312 0.34357 0.0
H587 H 0.04962 0.08485 0.42522 0.0
H588 H 0.31408 0.95323 0.14867 0.0
H589 H 0.34931 0.94558 0.15665 0.0
H590 H 0.34193 0.98426 0.35669 0.0
H591 H 0.30692 0.99214 0.34771 0.0
H592 H 0.37258 0.99535 0.22208 0.0
H593 H 0.37761 0.91005 0.31885 0.0
H594 H 0.36218 0.91745 0.25146 0.0
H595 H 0.35529 0.92749 0.34355 0.0
C596 C 0.31999 0.95939 0.19538 0.0
C597 C 0.30797 0.97288 0.2484 0.0
C598 C 0.33999 0.95516 0.1997 0.0
C599 C 0.34804 0.96433 0.25736 0.0
C600 C 0.33583 0.97696 0.31211 0.0
H601 H 0.44435 0.9916 0.44901 0.0
H602 H 0.41573 0.99159 0.38663 0.0
C603 C 0.3159 0.98122 0.30761 0.0
C604 C 0.36944 0.96249 0.25825 0.0
H605 H 0.40569 0.93018 0.31679 0.0
C606 C 0.37999 0.98096 0.24135 0.0
C607 C 0.37898 0.94359 0.28227 0.0
C608 C 0.36806 0.92342 0.30022 0.0
C609 C 0.3997 0.98146 0.25195 0.0
C610 C 0.4088 0.96322 0.282 0.0
C611 C 0.39864 0.94417 0.29393 0.0
C612 C 0.42743 0.96472 0.31189 0.0
C613 C 0.41036 0.00178 0.23326 0.0
C614 C 0.44349 0.94947 0.29097 0.0
C615 C 0.46001 0.94943 0.32678 0.0
C616 C 0.46059 0.96453 0.38444 0.0
C617 C 0.44463 0.98009 0.40378 0.0
C618 C 0.42822 0.98012 0.36804 0.0
H619 H 0.40427 0.01061 0.18914 0.0
H620 H 0.40838 0.01299 0.28186 0.0
H621 H 0.42639 0.99781 0.216 0.0
H622 H 0.44305 0.93732 0.24816 0.0
H623 H 0.47214 0.93733 0.31034 0.0
H624 H 0.56046 0.29831 0.24802 0.0
H625 H 0.56523 0.33604 0.28467 0.0
H626 H 0.52028 0.33176 0.47173 0.0
H627 H 0.51474 0.29462 0.43187 0.0
H628 H 0.51505 0.36861 0.4071 0.0
H629 H 0.594 0.35728 0.44024 0.0
H630 H 0.58916 0.35045 0.35058 0.0
H631 H 0.57947 0.33458 0.42628 0.0
C632 C 0.5518 0.30552 0.29719 0.0
C633 C 0.53753 0.29365 0.33819 0.0
C634 C 0.55461 0.32694 0.31844 0.0
C635 C 0.54339 0.33662 0.38178 0.0
C636 C 0.52918 0.32461 0.42285 0.0
H637 H 0.56175 0.43787 0.67045 0.0
H638 H 0.56325 0.40575 0.5904 0.0
C639 C 0.52617 0.30338 0.40084 0.0
C640 C 0.54588 0.35943 0.405 0.0
H641 H 0.57899 0.39294 0.45978 0.0
C642 C 0.52903 0.37398 0.41855 0.0
C643 C 0.56419 0.36641 0.41938 0.0
C644 C 0.5827 0.35133 0.40902 0.0
C645 C 0.52968 0.39484 0.45011 0.0
C646 C 0.54795 0.40177 0.46529 0.0
C647 C 0.56502 0.38765 0.44786 0.0
C648 C 0.54925 0.42227 0.50783 0.0
C649 C 0.51052 0.40855 0.47099 0.0
C650 C 0.54159 0.44256 0.48696 0.0
C651 C 0.54025 0.46095 0.53383 0.0
C652 C 0.54718 0.45946 0.60109 0.0
C653 C 0.5563 0.43958 0.61897 0.0
C654 C 0.55718 0.42116 0.57311 0.0
H655 H 0.49749 0.3987 0.47143 0.0
H656 H 0.50974 0.41646 0.52573 0.0
H657 H 0.50944 0.4215 0.43083 0.0
H658 H 0.53601 0.44402 0.4357 0.0
H659 H 0.53336 0.47615 0.51831 0.0
H660 H 0.22766 0.48162 0.19473 0.0
H661 H 0.19358 0.47138 0.21937 0.0
H662 H 0.20597 0.42221 0.04594 0.0
H663 H 0.24044 0.43254 0.02215 0.0
H664 H 0.17267 0.45058 0.0363 0.0
H665 H 0.16795 0.4185 0.31171 0.0
H666 H 0.1807 0.44311 0.30776 0.0
H667 H 0.19116 0.41956 0.25205 0.0
C668 C 0.22318 0.46813 0.16389 0.0
C669 C 0.23644 0.45762 0.1075 0.0
C670 C 0.2038 0.46228 0.17765 0.0
C671 C 0.19735 0.44577 0.13522 0.0
C672 C 0.21075 0.43479 0.07978 0.0
H673 H 0.0772 0.45741 0.33825 0.0
H674 H 0.10223 0.4352 0.25574 0.0
C675 C 0.23032 0.44058 0.06645 0.0
C676 C 0.17611 0.442 0.14581 0.0
H677 H 0.13857 0.44056 0.28658 0.0
C678 C 0.16508 0.44768 0.09034 0.0
C679 C 0.16621 0.43727 0.21521 0.0
C680 C 0.17718 0.42901 0.27472 0.0
C681 C 0.14452 0.45185 0.10592 0.0
C682 C 0.13512 0.45078 0.17853 0.0
C683 C 0.14582 0.44197 0.23105 0.0
C684 C 0.116 0.4629 0.20533 0.0
C685 C 0.13296 0.45806 0.04582 0.0
C686 C 0.11471 0.48581 0.20152 0.0
C687 C 0.10038 0.49848 0.2485 0.0
C688 C 0.08737 0.48838 0.30055 0.0
C689 C 0.08722 0.46548 0.29869 0.0
C690 C 0.10144 0.4528 0.25138 0.0
H691 H 0.14192 0.45514 0.9912 0.0
H692 H 0.11966 0.44854 0.04934 0.0
H693 H 0.12776 0.47555 0.05194 0.0
H694 H 0.12606 0.49406 0.16809 0.0
H695 H 0.1009 0.5161 0.24941 0.0
H696 H 0.95448 0.77873 0.45546 0.0
H697 H 0.94609 0.81781 0.43821 0.0
H698 H 0.98865 0.81522 0.24186 0.0
H699 H 0.99711 0.77664 0.2603 0.0
H700 H 0.97386 0.84957 0.43427 0.0
H701 H 0.94121 0.84979 0.18108 0.0
H702 H 0.94189 0.82609 0.237 0.0
H703 H 0.9629 0.83146 0.17104 0.0
C704 C 0.96162 0.78661 0.40811 0.0
C705 C 0.97635 0.77505 0.3589 0.0
C706 C 0.95685 0.80876 0.3982 0.0
C707 C 0.96651 0.81926 0.3381 0.0
C708 C 0.98064 0.8073 0.28752 0.0
H709 H 0.02972 0.91967 0.22091 0.0
H710 H 1.01129 0.8934 0.29451 0.0
C711 C 0.98551 0.78538 0.29792 0.0
C712 C 0.96404 0.84317 0.33142 0.0
H713 H 0.96169 0.88022 0.19922 0.0
C714 C 0.97049 0.85655 0.38407 0.0
C715 C 0.9592 0.85237 0.26691 0.0
C716 C 0.95069 0.83917 0.21123 0.0
C717 C 0.97454 0.87827 0.36964 0.0
C718 C 0.97252 0.88644 0.30044 0.0
C719 C 0.96367 0.87389 0.25184 0.0
C720 C 0.98263 0.90575 0.27179 0.0
C721 C 0.98213 0.89177 0.42672 0.0
C722 C 0.97272 0.9217 0.2351 0.0
C723 C 0.98333 0.93655 0.19197 0.0
C724 C 1.00403 0.93568 0.18482 0.0
C725 C 1.01378 0.92087 0.22605 0.0
C726 C 1.00319 0.90592 0.26869 0.0
H727 H 0.97604 0.88692 0.48237 0.0
H728 H 0.99836 0.88884 0.42021 0.0
H729 H 0.97846 0.90949 0.42128 0.0
H730 H 0.9569 0.9218 0.23636 0.0
H731 H 0.97545 0.948 0.16125 0.0
H732 H 0.74078 0.05278 0.36129 0.0
H733 H 0.70718 0.06554 0.34255 0.0
H734 H 0.71139 0.01998 0.15973 0.0
H735 H 0.74489 0.00748 0.1786 0.0
H736 H 0.69274 0.08205 0.20911 0.0
H737 H 0.66187 0.0055 0.31033 0.0
H738 H 0.68606 0.01295 0.32414 0.0
H739 H 0.68251 1.00054 0.23905 0.0
C740 C 0.73452 0.04597 0.31636 0.0
C741 C 0.74518 0.02949 0.27052 0.0
C742 C 0.71545 0.05312 0.3059 0.0
C743 C 0.70686 0.04347 0.25036 0.0
C744 C 0.7178 0.02744 0.20327 0.0
H745 H 0.6195 0.0643 0.99296 0.0
H746 H 0.64788 0.066 0.05694 0.0
C747 C 0.73686 0.02047 0.21341 0.0
C748 C 0.68627 0.04954 0.24182 0.0
H749 H 0.64261 0.02694 0.23491 0.0
C750 C 0.6816 0.07022 0.21606 0.0
C751 C 0.67172 0.03421 0.25269 0.0
C752 C 0.67572 0.01214 0.28383 0.0
C753 C 0.66309 0.07535 0.1952 0.0
C754 C 0.64918 0.05924 0.19956 0.0
C755 C 0.65336 0.03922 0.23097 0.0
C756 C 0.6314 0.06155 0.16368 0.0
C757 C 0.65884 0.09769 0.16662 0.0
C758 C 0.61271 0.05837 0.20241 0.0
C759 C 0.59648 0.05708 0.1657 0.0
C760 C 0.59877 0.05872 0.08962 0.0
C761 C 0.61735 0.06273 0.05149 0.0
C762 C 0.63352 0.06405 0.08815 0.0
H763 H 0.66729 0.11008 0.19062 0.0
H764 H 0.66343 0.09726 0.10676 0.0
H765 H 0.64288 0.10289 0.17847 0.0
H766 H 0.61084 0.05615 0.26063 0.0
H767 H 0.58236 0.05381 0.1964 0.0
H768 H 0.54362 0.69296 0.19796 0.0
H769 H 0.53317 0.65742 0.16174 0.0
H770 H 0.4742 0.68607 0.16123 0.0
H771 H 0.48472 0.72172 0.19873 0.0
H772 H 0.50077 0.6329 0.23499 0.0
H773 H 0.4918 0.65691 0.95361 0.0
H774 H 0.5059 0.67231 0.00882 0.0
H775 H 0.47951 0.67396 0.02905 0.0
C776 C 0.52843 0.69155 0.19052 0.0
C777 C 0.51493 0.70989 0.20086 0.0
C778 C 0.52247 0.67134 0.16995 0.0
C779 C 0.50295 0.66919 0.15863 0.0
C780 C 0.48936 0.68749 0.16918 0.0
H781 H 0.47871 0.55073 0.92454 0.0
H782 H 0.46973 0.58346 0.00396 0.0
C783 C 0.49534 0.70775 0.19019 0.0
C784 C 0.49732 0.64778 0.13353 0.0
H785 H 0.49021 0.61992 0.9799 0.0
C786 C 0.49812 0.63006 0.17963 0.0
C787 C 0.49355 0.64424 0.06166 0.0
C788 C 0.49269 0.66276 0.00994 0.0
C789 C 0.49644 0.60866 0.15436 0.0
C790 C 0.49422 0.60491 0.08079 0.0
C791 C 0.49192 0.62282 0.03632 0.0
C792 C 0.49755 0.58282 0.04545 0.0
C793 C 0.49779 0.59021 0.20601 0.0
C794 C 0.51593 0.57133 0.04389 0.0
C795 C 0.52109 0.55281 0.99865 0.0
C796 C 0.50799 0.54539 0.95376 0.0
C797 C 0.48905 0.55598 0.95893 0.0
C798 C 0.48393 0.57471 0.00404 0.0
H799 H 0.49193 0.59576 0.26287 0.0
H800 H 0.48957 0.57622 0.19099 0.0
H801 H 0.5135 0.58448 0.20444 0.0
H802 H 0.52686 0.5775 0.07398 0.0
H803 H 0.53577 0.54496 0.99599 0.0
H804 H 0.83412 0.53118 0.30909 0.0
H805 H 0.86788 0.54194 0.28117 0.0
H806 H 0.86373 0.57035 0.49795 0.0
H807 H 0.82961 0.55941 0.52567 0.0
H808 H 0.88739 0.58123 0.28585 0.0
H809 H 0.90809 0.52269 0.49195 0.0
H810 H 0.88384 0.52352 0.46588 0.0
H811 H 0.89073 0.54568 0.51923 0.0
C812 C 0.84021 0.54038 0.34977 0.0
C813 C 0.82941 0.54459 0.41921 0.0
C814 C 0.85949 0.54648 0.33406 0.0
C815 C 0.86839 0.55681 0.38766 0.0
C816 C 0.85722 0.56221 0.45606 0.0
H817 H 0.99227 0.51601 0.24668 0.0
H818 H 0.96742 0.54079 0.32271 0.0
C819 C 0.83781 0.55604 0.47179 0.0
C820 C 0.88993 0.55899 0.37257 0.0
H821 H 0.93189 0.52848 0.39256 0.0
C822 C 0.89733 0.57036 0.31086 0.0
C823 C 0.90306 0.54533 0.40631 0.0
C824 C 0.89618 0.53352 0.47458 0.0
C825 C 0.91675 0.5659 0.2761 0.0
C826 C 0.92878 0.54943 0.30321 0.0
C827 C 0.92244 0.54076 0.37109 0.0
C828 C 0.94486 0.53701 0.25455 0.0
C829 C 0.92364 0.57733 0.20693 0.0
C830 C 0.94023 0.52642 0.19227 0.0
C831 C 0.9541 0.51216 0.15 0.0
C832 C 0.97295 0.50805 0.1692 0.0
C833 C 0.97779 0.51888 0.23097 0.0
C834 C 0.96372 0.5331 0.27398 0.0
H835 H 0.91717 0.59446 0.20978 0.0
H836 H 0.93997 0.57738 0.19619 0.0
H837 H 0.91856 0.56884 0.16048 0.0
H838 H 0.92558 0.52864 0.17744 0.0
H839 H 0.95008 0.50439 0.10195 0.0
H840 H 0.07458 0.24047 0.92639 0.0
H841 H 0.06668 0.20619 0.87166 0.0
H842 H 1.01271 0.20719 0.02433 0.0
H843 H 0.0216 0.24081 0.08184 0.0
H844 H 0.03004 0.17042 0.0285 0.0
H845 H 0.03346 0.18488 0.73602 0.0
H846 H 0.05607 0.19183 0.76459 0.0
H847 H 0.03325 0.207 0.80164 0.0
C848 C 0.06062 0.2338 0.94581 0.0
C849 C 0.04854 0.24333 0.00737 0.0
C850 C 0.05606 0.21414 0.91459 0.0
C851 C 0.03892 0.20396 0.94288 0.0
C852 C 0.02602 0.21456 1.00111 0.0
H853 H 1.0123 0.08049 0.73958 0.0
H854 H 1.01316 0.11898 0.77599 0.0
C855 C 0.03087 0.23398 0.0333 0.0
C856 C 0.03579 0.18118 0.91829 0.0
H857 H 0.0388 0.14715 0.76808 0.0
C858 C 0.03167 0.1655 0.97144 0.0
C859 C 0.03757 0.17449 0.84391 0.0
C860 C 0.0401 0.19054 0.78348 0.0
C861 C 0.02975 0.14349 0.95272 0.0
C862 C 0.03309 0.13646 0.87843 0.0
C863 C 0.03663 0.15224 0.82512 0.0
C864 C 0.0329 0.11294 0.85505 0.0
C865 C 0.02363 0.12827 0.01336 0.0
C866 C 0.04401 0.09654 0.88581 0.0
C867 C 0.04316 0.07447 0.86625 0.0
C868 C 0.0317 0.06826 0.81356 0.0
C869 C 0.02128 0.08471 0.78031 0.0
C870 C 0.02178 0.10676 0.80115 0.0
H871 H 1.0143 0.1373 0.05987 0.0
H872 H 1.01519 0.11489 0.99527 0.0
H873 H 0.03697 0.12107 0.03343 0.0
H874 H 0.05333 0.10075 0.92539 0.0
H875 H 0.0516 0.06225 0.89216 0.0
H876 H 0.31463 0.02137 0.21397 0.0
H877 H 0.34729 0.02405 0.14174 0.0
H878 H 0.32929 0.98709 0.96613 0.0
H879 H 0.29667 0.98405 0.03966 0.0
H880 H 0.37215 0.98407 0.08867 0.0
H881 H 0.35894 0.03934 0.86528 0.0
H882 H 0.34253 0.03993 0.95098 0.0
H883 H 0.34235 0.01801 0.88571 0.0
C884 C 0.31742 0.0146 0.1588 0.0
C885 C 0.30297 0.0029 0.13183 0.0
C886 C 0.33617 0.01591 0.11782 0.0
C887 C 0.34084 0.00587 0.04813 0.0
C888 C 0.32603 0.99526 0.01923 0.0
H889 H 0.45359 0.99114 0.74636 0.0
H890 H 0.41875 0.99105 0.80123 0.0
C891 C 0.3073 0.99373 0.06082 0.0
C892 C 0.36165 0.00487 0.00917 0.0
H893 H 0.39127 0.02335 0.86148 0.0
C894 C 0.37635 0.99278 0.03928 0.0
C895 C 0.36713 0.01578 0.94372 0.0
C896 C 0.35201 0.02914 0.90931 0.0
C897 C 0.39627 0.99142 0.00629 0.0
C898 C 0.40193 0.0029 0.94185 0.0
C899 C 0.38712 0.01463 0.91088 0.0
C900 C 0.42314 0.00335 0.90726 0.0
C901 C 0.41099 0.97717 0.03993 0.0
C902 C 0.43733 0.01075 0.94746 0.0
C903 C 0.45723 0.01073 0.91636 0.0
C904 C 0.46363 0.00356 0.84356 0.0
C905 C 0.44932 0.99672 0.80251 0.0
C906 C 0.42934 0.99666 0.83394 0.0
H907 H 0.40365 0.96498 0.07604 0.0
H908 H 0.42192 0.96839 0.99732 0.0
H909 H 0.41906 0.98751 0.07342 0.0
H910 H 0.43302 0.01665 0.00326 0.0
H911 H 0.46763 0.01637 0.94983 0.0
H912 H 0.54753 0.27616 0.1202 0.0
H913 H 0.54581 0.31001 0.05224 0.0
H914 H 0.49486 0.33421 0.20399 0.0
H915 H 0.4971 0.30061 0.27257 0.0
H916 H 0.51943 0.33195 0.98269 0.0
H917 H 0.53154 0.38179 0.22218 0.0
H918 H 0.53391 0.35236 0.21975 0.0
H919 H 0.50996 0.36667 0.23985 0.0
C920 C 0.53565 0.2885 0.13731 0.0
C921 C 0.52229 0.28581 0.20076 0.0
C922 C 0.53477 0.30791 0.09913 0.0
C923 C 0.5205 0.32498 0.12395 0.0
C924 C 0.50633 0.3216 0.18473 0.0
H925 H 0.49618 0.43988 0.87267 0.0
H926 H 0.49477 0.40545 0.93608 0.0
C927 C 0.50735 0.30229 0.22313 0.0
C928 C 0.52092 0.34651 0.08794 0.0
H929 H 0.52351 0.4013 0.12023 0.0
C930 C 0.52034 0.3471 0.0128 0.0
C931 C 0.52253 0.36633 0.12675 0.0
C932 C 0.52473 0.36681 0.20639 0.0
C933 C 0.521 0.36687 0.97572 0.0
C934 C 0.52176 0.38679 0.01509 0.0
C935 C 0.52265 0.38615 0.09005 0.0
C936 C 0.52206 0.40837 0.97933 0.0
C937 C 0.52143 0.36606 0.89429 0.0
C938 C 0.53736 0.42216 0.98511 0.0
C939 C 0.53803 0.44213 0.94986 0.0
C940 C 0.52341 0.44879 0.90782 0.0
C941 C 0.50781 0.43524 0.90388 0.0
C942 C 0.50706 0.41539 0.93968 0.0
H943 H 0.52673 0.34962 0.87017 0.0
H944 H 0.50627 0.36971 0.88196 0.0
H945 H 0.53108 0.37828 0.86753 0.0
H946 H 0.54905 0.41726 0.01575 0.0
H947 H 0.55029 0.45207 0.95411 0.0
H948 H 0.2334 0.52085 0.05749 0.0
H949 H 0.20325 0.52818 0.00272 0.0
H950 H 0.21586 0.46758 0.87706 0.0
H951 H 0.2465 0.46125 0.9282 0.0
H952 H 0.19952 0.49638 0.79943 0.0
H953 H 0.1544 0.49963 0.0738 0.0
H954 H 0.17147 0.52046 0.06042 0.0
H955 H 0.1805 0.49226 0.0601 0.0
C956 C 0.23 0.50961 0.01615 0.0
C957 C 0.24219 0.4905 0.99686 0.0
C958 C 0.21256 0.5135 0.98601 0.0
C959 C 0.20676 0.49805 0.93748 0.0
C960 C 0.21974 0.47971 0.91473 0.0
H961 H 0.09075 0.46805 0.85204 0.0
H962 H 0.12327 0.46948 0.8901 0.0
C963 C 0.23729 0.47609 0.94377 0.0
C964 C 0.18695 0.50016 0.91262 0.0
H965 H 0.13723 0.50469 0.97349 0.0
C966 C 0.18593 0.49819 0.8377 0.0
C967 C 0.16905 0.50236 0.96226 0.0
C968 C 0.16883 0.50359 0.04359 0.0
C969 C 0.16773 0.49811 0.81133 0.0
C970 C 0.14993 0.50036 0.86091 0.0
C971 C 0.15087 0.50274 0.93559 0.0
C972 C 0.1302 0.49954 0.83655 0.0
C973 C 0.16768 0.49502 0.73064 0.0
C974 C 0.12314 0.51598 0.79371 0.0
C975 C 0.10448 0.51524 0.77191 0.0
C976 C 0.09243 0.49799 0.7922 0.0
C977 C 0.09961 0.4815 0.83485 0.0
C978 C 0.1182 0.48235 0.85705 0.0
H979 H 0.18249 0.48938 0.70121 0.0
H980 H 0.15698 0.483 0.71991 0.0
H981 H 0.1631 0.51081 0.70811 0.0
H982 H 0.13198 0.52955 0.77784 0.0
H983 H 0.09947 0.52829 0.73943 0.0
H984 H 0.03388 0.76895 0.38341 0.0
H985 H 0.04301 0.80179 0.44558 0.0
H986 H 0.98794 0.80328 0.59224 0.0
H987 H 0.9797 0.76983 0.53319 0.0
H988 H 0.02691 0.84078 0.4519 0.0
H989 H 0.02257 0.81592 0.73627 0.0
H990 H 0.02236 0.79637 0.66254 0.0
H991 H 0.99984 0.81124 0.70435 0.0
C992 C 0.0242 0.77592 0.43079 0.0
C993 C 1.0062 0.76686 0.45425 0.0
C994 C 0.02925 0.79481 0.46578 0.0
C995 C 1.01633 0.80503 0.52465 0.0
C996 C 0.99853 0.79553 0.54877 0.0
H997 H 0.99737 0.94059 0.65214 0.0
H998 H 0.99771 0.90327 0.60308 0.0
C999 C 0.9937 0.77651 0.51462 0.0
C1000 C 0.0205 0.82648 0.55699 0.0
H1001 H 0.01843 0.85493 0.71892 0.0
C1002 C 0.02526 0.84372 0.51029 0.0
C1003 C 0.01893 0.83044 0.63326 0.0
C1004 C 1.01588 0.8124 0.68678 0.0
C1005 C 0.0275 0.86484 0.53773 0.0
C1006 C 0.02422 0.86911 0.61378 0.0
C1007 C 0.02044 0.85176 0.66055 0.0
C1008 C 0.02401 0.89165 0.64539 0.0
C1009 C 0.03408 0.88233 0.48556 0.0
C1010 C 0.03834 0.89741 0.68751 0.0
C1011 C 0.03816 0.91881 0.71606 0.0
C1012 C 0.02352 0.93483 0.70353 0.0
C1013 C 1.00892 0.92878 0.66278 0.0
C1014 C 1.00914 0.90745 0.63428 0.0
H1015 H 0.03681 0.87618 0.42803 0.0
H1016 H 0.02285 0.89629 0.4907 0.0
H1017 H 0.04785 0.88871 0.49954 0.0
H1018 H 0.04984 0.88542 0.69739 0.0
H1019 H 0.04961 0.92283 0.74731 0.0
H1020 H 0.73846 0.97703 0.31272 0.0
H1021 H 0.7054 0.97383 0.38218 0.0
H1022 H 0.71847 0.01957 0.54485 0.0
H1023 H 0.75149 0.02266 0.47485 0.0
H1024 H 0.69119 0.96243 0.52905 0.0
H1025 H 0.66877 0.04811 0.4744 0.0
H1026 H 0.69161 0.03445 0.43055 0.0
H1027 H 0.68968 0.04534 0.52191 0.0
C1028 C 0.73446 0.9857 0.36474 0.0
C1029 C 0.74769 0.9996 0.38957 0.0
C1030 C 0.71551 0.98409 0.40405 0.0
C1031 C 0.70923 0.99664 0.46859 0.0
C1032 C 0.72279 0.00986 0.49499 0.0
H1033 H 0.59436 0.02314 0.74404 0.0
H1034 H 0.62903 0.02217 0.68829 0.0
C1035 C 0.74178 0.01136 0.45576 0.0
C1036 C 0.68833 0.99659 0.50632 0.0
H1037 H 0.64579 0.02926 0.55408 0.0
C1038 C 0.68126 0.97704 0.53444 0.0
C1039 C 0.67525 0.01562 0.51368 0.0
C1040 C 0.6816 0.03704 0.48301 0.0
C1041 C 0.66176 0.97609 0.57077 0.0
C1042 C 0.64858 0.99509 0.57755 0.0
C1043 C 0.65571 0.01464 0.54931 0.0
C1044 C 0.62739 0.9951 0.61321 0.0
C1045 C 0.65572 0.95481 0.60334 0.0
C1046 C 0.61458 0.98035 0.58988 0.0
C1047 C 0.59472 0.98073 0.62232 0.0
C1048 C 0.58693 0.99612 0.67835 0.0
C1049 C 0.59972 0.011 0.70128 0.0
C1050 C 0.61964 0.01049 0.66919 0.0
H1051 H 0.66871 0.94436 0.61424 0.0
H1052 H 0.64536 0.95761 0.65503 0.0
H1053 H 0.6483 0.94566 0.56433 0.0
H1054 H 0.61983 0.96872 0.5455 0.0
H1055 H 0.58536 0.96918 0.60232 0.0
H1056 H 0.56474 0.71701 0.31785 0.0
H1057 H 0.56921 0.68412 0.38927 0.0
H1058 H 0.50612 0.68041 0.4322 0.0
H1059 H 0.50179 0.7131 0.36116 0.0
H1060 H 0.55316 0.67211 0.53794 0.0
H1061 H 0.52726 0.62166 0.32436 0.0
H1062 H 0.53527 0.64883 0.30864 0.0
H1063 H 0.51105 0.64514 0.35638 0.0
C1064 C 0.5519 0.70944 0.34446 0.0
C1065 C 0.53293 0.71746 0.33433 0.0
C1066 C 0.55443 0.69062 0.38465 0.0
C1067 C 0.538 0.67956 0.41487 0.0
C1068 C 0.51902 0.68843 0.40836 0.0
H1069 H 0.50606 0.56511 0.64272 0.0
H1070 H 0.50913 0.59862 0.57555 0.0
C1071 C 0.51653 0.70715 0.36841 0.0
C1072 C 0.54048 0.65818 0.44996 0.0
H1073 H 0.52977 0.60474 0.4368 0.0
C1074 C 0.5483 0.6573 0.51552 0.0
C1075 C 0.53424 0.63883 0.42032 0.0
C1076 C 0.52665 0.63851 0.34821 0.0
C1077 C 0.5491 0.63781 0.55405 0.0
C1078 C 0.54219 0.61864 0.52563 0.0
C1079 C 0.53501 0.61942 0.45879 0.0
C1080 C 0.54088 0.59802 0.56653 0.0
C1081 C 0.55653 0.6381 0.62641 0.0
C1082 C 0.55778 0.58623 0.58325 0.0
C1083 C 0.5561 0.56684 0.62192 0.0
C1084 C 0.53747 0.55889 0.64454 0.0
C1085 C 0.52066 0.57067 0.62666 0.0
C1086 C 0.52237 0.5899 0.58804 0.0
H1087 H 0.55775 0.655 0.64714 0.0
H1088 H 0.5466 0.62958 0.66757 0.0
H1089 H 0.57136 0.62937 0.62021 0.0
H1090 H 0.57227 0.59194 0.56612 0.0
H1091 H 0.56935 0.55822 0.63454 0.0
H1092 H 0.84073 0.49236 0.43395 0.0
H1093 H 0.86988 0.48556 0.49394 0.0
H1094 H 0.83972 0.52069 0.68647 0.0
H1095 H 0.81062 0.5275 0.62538 0.0
H1096 H 0.87418 0.53636 0.64598 0.0
H1097 H 0.88708 0.44666 0.64535 0.0
H1098 H 0.88483 0.4558 0.55588 0.0
H1099 H 0.86408 0.45979 0.62765 0.0
C1100 C 0.84014 0.49779 0.49012 0.0
C1101 C 0.82338 0.51002 0.52578 0.0
C1102 C 0.85679 0.49393 0.52457 0.0
C1103 C 0.85709 0.50236 0.59544 0.0
C1104 C 0.83993 0.51386 0.63211 0.0
H1105 H 0.96253 0.48655 0.81737 0.0
H1106 H 0.92845 0.48648 0.79169 0.0
C1107 C 0.82323 0.51758 0.59766 0.0
C1108 C 0.87592 0.50146 0.62734 0.0
H1109 H 0.91531 0.46739 0.65635 0.0
C1110 C 0.88299 0.52119 0.64911 0.0
C1111 C 0.88752 0.48173 0.63236 0.0
C1112 C 0.88038 0.45979 0.61479 0.0
C1113 C 0.90169 0.52189 0.67106 0.0
C1114 C 0.91368 0.50232 0.6724 0.0
C1115 C 0.90624 0.48244 0.65455 0.0
C1116 C 0.9343 0.5024 0.68886 0.0
C1117 C 0.9087 0.54367 0.69122 0.0
C1118 C 0.94896 0.51128 0.63959 0.0
C1119 C 0.96842 0.51121 0.6538 0.0
C1120 C 0.97376 0.50238 0.718 0.0
C1121 C 0.95899 0.49361 0.76766 0.0
C1122 C 0.9395 0.49347 0.75292 0.0
H1123 H 0.89633 0.55643 0.70293 0.0
H1124 H 0.91641 0.54234 0.73954 0.0
H1125 H 0.91932 0.54905 0.64517 0.0
H1126 H 0.94537 0.51811 0.58955 0.0
H1127 H 0.97931 0.5181 0.61415 0.0
loop_
_geom_bond_atom_site_label_1
_geom_bond_atom_site_label_2
_geom_bond_distance
_geom_bond_site_symmetry_2
_ccdc_geom_bond_type
C0 N1 1.317 . S
C0 N2 1.348 . S
C0 C3 1.485 . S
N1 C0 1.317 . S
N1 N5 1.370 . S
N2 C0 1.348 . S
N2 C4 1.346 . S
C3 C0 1.485 . S
C3 H7 0.960 . S
C3 H8 0.961 . S
C3 H9 0.960 . S
C4 N2 1.346 . S
C4 N5 1.307 . S
C4 C6 1.486 . S
N5 N1 1.370 . S
N5 C4 1.307 . S
C6 C4 1.486 . S
C6 H10 0.960 . S
C6 H11 0.960 . S
C6 H12 0.959 . S
H7 C3 0.960 . S
H8 C3 0.961 . S
H9 C3 0.960 . S
H10 C6 0.960 . S
H11 C6 0.960 . S
H12 C6 0.959 . S
C13 N14 1.317 . S
C13 N15 1.348 . S
C13 C16 1.485 . S
N14 C13 1.317 . S
N14 N18 1.370 . S
N15 C13 1.348 . S
N15 C17 1.346 . S
C16 C13 1.485 . S
C16 H20 0.960 1_655 S
C16 H21 0.961 . S
C16 H22 0.960 . S
C17 N15 1.346 . S
C17 N18 1.307 . S
C17 C19 1.486 . S
N18 N14 1.370 . S
N18 C17 1.307 . S
C19 C17 1.486 . S
C19 H23 0.960 . S
C19 H24 0.960 1_655 S
C19 H25 0.957 1_655 S
H20 C16 0.960 1_455 S
H21 C16 0.961 . S
H22 C16 0.960 . S
H23 C19 0.960 . S
H24 C19 0.960 1_455 S
H25 C19 0.957 1_455 S
C26 N27 1.317 . S
C26 N28 1.348 . S
C26 C29 1.485 . S
N27 C26 1.317 . S
N27 N31 1.370 . S
N28 C26 1.348 . S
N28 C30 1.346 . S
C29 C26 1.485 . S
C29 H33 0.960 1_565 S
C29 H34 0.961 . S
C29 H35 0.960 . S
C30 N28 1.346 . S
C30 N31 1.307 . S
C30 C32 1.488 . S
N31 N27 1.370 . S
N31 C30 1.307 . S
C32 C30 1.488 . S
C32 H36 0.979 . S
C32 H37 0.942 1_565 S
C32 H38 0.956 1_565 S
H33 C29 0.960 1_545 S
H34 C29 0.961 . S
H35 C29 0.960 . S
H36 C32 0.979 . S
H37 C32 0.942 1_545 S
H38 C32 0.956 1_545 S
C39 N40 1.317 . S
C39 N41 1.348 . S
C39 C42 1.485 . S
N40 C39 1.317 . S
N40 N44 1.370 . S
N41 C39 1.348 . S
N41 C43 1.346 . S
C42 C39 1.485 . S
C42 H46 0.960 . S
C42 H47 0.961 . S
C42 H48 0.960 . S
C43 N41 1.346 . S
C43 N44 1.307 . S
C43 C45 1.486 . S
N44 N40 1.370 . S
N44 C43 1.307 . S
C45 C43 1.486 . S
C45 H49 0.960 1_554 S
C45 H50 0.960 1_554 S
C45 H51 0.959 1_554 S
H46 C42 0.960 . S
H47 C42 0.961 . S
H48 C42 0.960 . S
H49 C45 0.960 1_556 S
H50 C45 0.960 1_556 S
H51 C45 0.959 1_556 S
C52 N53 1.317 . S
C52 N54 1.348 1_556 S
C52 C55 1.485 . S
N53 C52 1.317 . S
N53 N57 1.370 1_556 S
N54 C52 1.348 1_554 S
N54 C56 1.346 . S
C55 C52 1.485 . S
C55 H59 0.960 . S
C55 H60 0.961 . S
C55 H61 0.960 . S
C56 N54 1.346 . S
C56 N57 1.307 . S
C56 C58 1.486 . S
N57 N53 1.370 1_554 S
N57 C56 1.307 . S
C58 C56 1.486 . S
C58 H62 0.960 . S
C58 H63 0.960 . S
C58 H64 0.959 . S
H59 C55 0.960 . S
H60 C55 0.961 . S
H61 C55 0.960 . S
H62 C58 0.960 . S
H63 C58 0.960 . S
H64 C58 0.959 . S
C65 N66 1.317 . S
C65 N67 1.348 . S
C65 C68 1.485 . S
N66 C65 1.317 . S
N66 N70 1.370 . S
N67 C65 1.348 . S
N67 C69 1.346 . S
C68 C65 1.485 . S
C68 H72 0.960 1_554 S
C68 H73 0.961 . S
C68 H74 0.960 1_554 S
C69 N67 1.346 . S
C69 N70 1.307 . S
C69 C71 1.486 . S
N70 N66 1.370 . S
N70 C69 1.307 . S
C71 C69 1.486 . S
C71 H75 0.960 . S
C71 H76 0.960 . S
C71 H77 0.959 . S
H72 C68 0.960 1_556 S
H73 C68 0.961 . S
H74 C68 0.960 1_556 S
H75 C71 0.960 . S
H76 C71 0.960 . S
H77 C71 0.959 . S
C78 N79 1.317 . S
C78 N80 1.348 . S
C78 C81 1.485 1_545 S
N79 C78 1.317 . S
N79 N83 1.370 . S
N80 C78 1.348 . S
N80 C82 1.346 . S
C81 C78 1.485 1_565 S
C81 H85 0.960 1_565 S
C81 H86 0.962 . S
C81 H87 0.960 . S
C82 N80 1.346 . S
C82 N83 1.307 . S
C82 C84 1.486 . S
N83 N79 1.370 . S
N83 C82 1.307 . S
C84 C82 1.486 . S
C84 H88 0.960 1_545 S
C84 H89 0.960 . S
C84 H90 0.959 . S
H85 C81 0.960 1_545 S
H86 C81 0.962 . S
H87 C81 0.960 . S
H88 C84 0.960 1_565 S
H89 C84 0.960 . S
H90 C84 0.959 . S
C91 N92 1.317 . S
C91 N93 1.348 . S
C91 C94 1.485 . S
N92 C91 1.317 . S
N92 N96 1.370 . S
N93 C91 1.348 . S
N93 C95 1.346 . S
C94 C91 1.485 . S
C94 H98 0.960 . S
C94 H99 0.961 . S
C94 H100 0.960 . S
C95 N93 1.346 . S
C95 N96 1.307 . S
C95 C97 1.486 . S
N96 N92 1.370 . S
N96 C95 1.307 . S
C97 C95 1.486 . S
C97 H101 0.960 . S
C97 H102 0.960 . S
C97 H103 0.959 . S
H98 C94 0.960 . S
H99 C94 0.961 . S
H100 C94 0.960 . S
H101 C97 0.960 . S
H102 C97 0.960 . S
H103 C97 0.959 . S
Dy104 O107 2.308 1_545 S
Dy104 O109 2.393 1_655 S
Dy104 O110 2.380 . S
Dy104 O112 2.341 . S
Dy104 O114 2.297 1_655 S
Dy104 O118 2.272 1_655 S
Dy104 C126 2.738 . S
Dy105 O108 2.298 . S
Dy105 O111 2.275 1_455 S
Dy105 O113 2.307 1_565 S
Dy105 O115 2.395 . S
Dy105 O116 2.379 . S
Dy105 O119 2.339 . S
Dy105 C135 2.738 . S
C106 O118 1.254 1_565 S
C106 O119 1.257 . S
O107 Dy104 2.308 1_565 S
O107 C117 1.266 1_655 S
O108 Dy105 2.298 . S
O108 C117 1.236 . S
O109 Dy104 2.393 1_455 S
O109 C126 1.256 1_455 S
O110 Dy104 2.380 . S
O110 C126 1.249 . S
O111 Dy105 2.275 1_655 S
O111 C127 1.254 1_565 S
O112 Dy104 2.341 . S
O112 C127 1.257 . S
O113 Dy105 2.307 1_545 S
O113 C128 1.266 . S
O114 Dy104 2.297 1_455 S
O114 C128 1.236 . S
O115 Dy105 2.395 . S
O115 C135 1.255 . S
O116 Dy105 2.379 . S
O116 C135 1.249 . S
C117 O107 1.266 1_455 S
C117 O108 1.236 . S
O118 Dy104 2.272 1_455 S
O118 C106 1.254 1_545 S
O119 Dy105 2.339 . S
O119 C106 1.257 . S
C120 C123 1.341 . S
C120 C124 1.330 1_455 S
C120 C126 1.516 1_455 S
C121 C122 1.358 . S
C121 C125 1.270 1_455 S
C122 C121 1.358 . S
C122 C123 1.371 . S
C122 H136 0.930 . S
C123 C120 1.341 . S
C123 C122 1.371 . S
C123 H137 0.931 . S
C124 C120 1.330 1_655 S
C124 C125 1.433 . S
C124 H138 0.931 . S
C125 C121 1.270 1_655 S
C125 C124 1.433 . S
C125 H139 0.933 . S
C126 Dy104 2.738 . S
C126 O109 1.256 1_655 S
C126 O110 1.249 . S
C126 C120 1.516 1_655 S
C127 O111 1.254 1_545 S
C127 O112 1.257 . S
C128 O113 1.266 . S
C128 O114 1.236 . S
C129 C132 1.344 . S
C129 C133 1.328 . S
C129 C135 1.516 . S
C130 C131 1.304 . S
C130 C134 1.323 . S
C131 C130 1.304 . S
C131 C132 1.371 1_554 S
C131 H140 0.930 1_455 S
C132 C129 1.344 . S
C132 C131 1.371 1_556 S
C132 H141 0.931 1_455 S
C133 C129 1.328 . S
C133 C134 1.433 1_556 S
C133 H142 0.931 . S
C134 C130 1.323 . S
C134 C133 1.433 1_554 S
C134 H143 0.933 . S
C135 Dy105 2.738 . S
C135 O115 1.255 . S
C135 O116 1.249 . S
C135 C129 1.516 . S
H136 C122 0.930 . S
H137 C123 0.931 . S
H138 C124 0.931 . S
H139 C125 0.933 . S
H140 C131 0.930 1_655 S
H141 C132 0.931 1_655 S
H142 C133 0.931 . S
H143 C134 0.933 . S
Dy144 O147 2.307 . S
Dy144 O149 2.395 1_565 S
Dy144 O150 2.379 . S
Dy144 O152 2.339 . S
Dy144 O154 2.298 . S
Dy144 O158 2.275 1_565 S
Dy144 C166 2.738 . S
Dy145 O148 2.298 . S
Dy145 O151 2.275 1_545 S
Dy145 O153 2.307 . S
Dy145 O155 2.395 1_545 S
Dy145 O156 2.379 . S
Dy145 O159 2.339 . S
Dy145 C175 2.738 . S
C146 O158 1.254 . S
C146 O159 1.257 . S
O147 Dy144 2.307 . S
O147 C157 1.266 . S
O148 Dy145 2.298 . S
O148 C157 1.236 1_545 S
O149 Dy144 2.395 1_545 S
O149 C166 1.255 1_545 S
O150 Dy144 2.379 . S
O150 C166 1.249 . S
O151 Dy145 2.275 1_565 S
O151 C167 1.254 . S
O152 Dy144 2.339 . S
O152 C167 1.257 . S
O153 Dy145 2.307 . S
O153 C168 1.266 . S
O154 Dy144 2.298 . S
O154 C168 1.236 1_565 S
O155 Dy145 2.395 1_565 S
O155 C175 1.255 1_565 S
O156 Dy145 2.379 . S
O156 C175 1.249 . S
C157 O147 1.266 . S
C157 O148 1.236 1_565 S
O158 Dy144 2.275 1_545 S
O158 C146 1.254 . S
O159 Dy145 2.339 . S
O159 C146 1.257 . S
C160 C163 1.344 1_565 S
C160 C164 1.328 . S
C160 C166 1.516 . S
C161 C162 1.304 1_565 S
C161 C165 1.323 . S
C162 C161 1.304 1_545 S
C162 C163 1.371 . S
C162 H176 0.930 . S
C163 C160 1.344 1_545 S
C163 C162 1.371 . S
C163 H177 0.931 . S
C164 C160 1.328 . S
C164 C165 1.433 . S
C164 H178 0.931 . S
C165 C161 1.323 . S
C165 C164 1.433 . S
C165 H179 0.933 . S
C166 Dy144 2.738 . S
C166 O149 1.255 1_565 S
C166 O150 1.249 . S
C166 C160 1.516 . S
C167 O151 1.254 . S
C167 O152 1.257 . S
C168 O153 1.266 . S
C168 O154 1.236 1_545 S
C169 C172 1.344 1_545 S
C169 C173 1.328 . S
C169 C175 1.516 . S
C170 C171 1.304 1_545 S
C170 C174 1.323 . S
C171 C170 1.304 1_565 S
C171 C172 1.371 . S
C171 H180 0.930 . S
C172 C169 1.344 1_565 S
C172 C171 1.371 . S
C172 H181 0.931 . S
C173 C169 1.328 . S
C173 C174 1.433 . S
C173 H182 0.931 . S
C174 C170 1.323 . S
C174 C173 1.433 . S
C174 H183 0.933 1_556 S
C175 Dy145 2.738 . S
C175 O155 1.255 1_545 S
C175 O156 1.249 . S
C175 C169 1.516 . S
H176 C162 0.930 . S
H177 C163 0.931 . S
H178 C164 0.931 . S
H179 C165 0.933 . S
H180 C171 0.930 . S
H181 C172 0.931 . S
H182 C173 0.931 . S
H183 C174 0.933 1_554 S
Dy184 O187 2.307 . S
Dy184 O189 2.395 . S
Dy184 O190 2.379 . S
Dy184 O192 2.339 . S
Dy184 O194 2.298 . S
Dy184 O198 2.275 . S
Dy184 C206 2.738 . S
Dy185 O188 2.298 . S
Dy185 O191 2.275 . S
Dy185 O193 2.307 . S
Dy185 O195 2.395 . S
Dy185 O196 2.379 . S
Dy185 O199 2.339 . S
Dy185 C215 2.738 . S
C186 O198 1.254 . S
C186 O199 1.257 . S
O187 Dy184 2.307 . S
O187 C197 1.266 . S
O188 Dy185 2.298 . S
O188 C197 1.236 . S
O189 Dy184 2.395 . S
O189 C206 1.255 . S
O190 Dy184 2.379 . S
O190 C206 1.249 . S
O191 Dy185 2.275 . S
O191 C207 1.254 . S
O192 Dy184 2.339 . S
O192 C207 1.257 . S
O193 Dy185 2.307 . S
O193 C208 1.266 . S
O194 Dy184 2.298 . S
O194 C208 1.236 . S
O195 Dy185 2.395 . S
O195 C215 1.255 . S
O196 Dy185 2.379 . S
O196 C215 1.249 . S
C197 O187 1.266 . S
C197 O188 1.236 . S
O198 Dy184 2.275 . S
O198 C186 1.254 . S
O199 Dy185 2.339 . S
O199 C186 1.257 . S
C200 C203 1.344 . S
C200 C204 1.328 . S
C200 C206 1.516 . S
C201 C202 1.304 . S
C201 C205 1.323 . S
C202 C201 1.304 . S
C202 C203 1.371 . S
C202 H216 0.930 1_556 S
C203 C200 1.344 . S
C203 C202 1.371 . S
C203 H217 0.931 . S
C204 C200 1.328 . S
C204 C205 1.433 . S
C204 H218 0.931 . S
C205 C201 1.323 . S
C205 C204 1.433 . S
C205 H219 0.933 . S
C206 Dy184 2.738 . S
C206 O189 1.255 . S
C206 O190 1.249 . S
C206 C200 1.516 . S
C207 O191 1.254 . S
C207 O192 1.257 . S
C208 O193 1.266 . S
C208 O194 1.236 . S
C209 C212 1.344 . S
C209 C213 1.328 . S
C209 C215 1.516 . S
C210 C211 1.304 . S
C210 C214 1.323 . S
C211 C210 1.304 . S
C211 C212 1.371 . S
C211 H220 0.930 . S
C212 C209 1.344 . S
C212 C211 1.371 . S
C212 H221 0.931 . S
C213 C209 1.328 . S
C213 C214 1.433 . S
C213 H222 0.931 . S
C214 C210 1.323 . S
C214 C213 1.433 . S
C214 H223 0.933 . S
C215 Dy185 2.738 . S
C215 O195 1.255 . S
C215 O196 1.249 . S
C215 C209 1.516 . S
H216 C202 0.930 1_554 S
H217 C203 0.931 . S
H218 C204 0.931 . S
H219 C205 0.933 . S
H220 C211 0.930 . S
H221 C212 0.931 . S
H222 C213 0.931 . S
H223 C214 0.933 . S
Dy224 O227 2.307 1_455 S
Dy224 O229 2.395 . S
Dy224 O230 2.379 . S
Dy224 O232 2.339 . S
Dy224 O234 2.298 . S
Dy224 O238 2.275 . S
Dy224 C246 2.738 . S
Dy225 O228 2.298 . S
Dy225 O231 2.275 1_655 S
Dy225 O233 2.307 1_655 S
Dy225 O235 2.395 . S
Dy225 O236 2.379 . S
Dy225 O239 2.339 1_655 S
Dy225 C255 2.738 . S
C226 O238 1.254 . S
C226 O239 1.263 . S
O227 Dy224 2.307 1_655 S
O227 C237 1.266 . S
O228 Dy225 2.298 . S
O228 C237 1.236 . S
O229 Dy224 2.395 . S
O229 C246 1.255 . S
O230 Dy224 2.379 . S
O230 C246 1.249 . S
O231 Dy225 2.275 1_455 S
O231 C247 1.254 . S
O232 Dy224 2.339 . S
O232 C247 1.257 . S
O233 Dy225 2.307 1_455 S
O233 C248 1.266 . S
O234 Dy224 2.298 . S
O234 C248 1.236 . S
O235 Dy225 2.395 . S
O235 C255 1.255 . S
O236 Dy225 2.379 . S
O236 C255 1.249 . S
C237 O227 1.266 . S
C237 O228 1.236 . S
O238 Dy224 2.275 . S
O238 C226 1.254 . S
O239 Dy225 2.339 1_455 S
O239 C226 1.263 . S
C240 C243 1.344 . S
C240 C244 1.328 . S
C240 C246 1.516 . S
C241 C242 1.304 . S
C241 C245 1.323 . S
C242 C241 1.304 . S
C242 C243 1.371 . S
C242 H256 0.930 . S
C243 C240 1.344 . S
C243 C242 1.371 . S
C243 H257 0.931 . S
C244 C240 1.328 . S
C244 C245 1.433 . S
C244 H258 0.931 . S
C245 C241 1.323 . S
C245 C244 1.433 . S
C245 H259 0.933 . S
C246 Dy224 2.738 . S
C246 O229 1.255 . S
C246 O230 1.249 . S
C246 C240 1.516 . S
C247 O231 1.254 . S
C247 O232 1.257 . S
C248 O233 1.266 . S
C248 O234 1.236 . S
C249 C252 1.342 1_556 S
C249 C253 1.328 . S
C249 C255 1.516 . S
C250 C251 1.304 . S
C250 C254 1.323 . S
C251 C250 1.304 . S
C251 C252 1.374 . S
C251 H260 0.930 . S
C252 C249 1.342 1_554 S
C252 C251 1.374 . S
C252 H261 0.930 1_554 S
C253 C249 1.328 . S
C253 C254 1.433 1_556 S
C253 H262 0.931 . S
C254 C250 1.323 . S
C254 C253 1.433 1_554 S
C254 H263 0.933 . S
C255 Dy225 2.738 . S
C255 O235 1.255 . S
C255 O236 1.249 . S
C255 C249 1.516 . S
H256 C242 0.930 . S
H257 C243 0.931 . S
H258 C244 0.931 . S
H259 C245 0.933 . S
H260 C251 0.930 . S
H261 C252 0.930 1_556 S
H262 C253 0.931 . S
H263 C254 0.933 . S
H264 C272 0.929 . S
H265 C274 0.930 . S
H266 C276 0.930 . S
H267 C279 0.929 . S
H268 C282 0.929 1_565 S
H269 C284 0.960 . S
H270 C284 0.960 . S
H271 C284 0.960 1_565 S
C272 H264 0.929 . S
C272 C273 1.377 . S
C272 C274 1.384 . S
C273 C272 1.377 . S
C273 C279 1.390 1_545 S
C274 H265 0.930 . S
C274 C272 1.384 . S
C274 C275 1.372 . S
C275 C274 1.372 . S
C275 C276 1.400 1_545 S
C275 C280 1.490 . S
C276 H266 0.930 . S
C276 C275 1.400 1_565 S
C276 C279 1.386 . S
H277 C293 0.930 . S
H278 C294 0.931 . S
C279 H267 0.929 . S
C279 C273 1.390 1_565 S
C279 C276 1.386 . S
C280 C275 1.490 . S
C280 C282 1.399 . S
C280 C283 1.403 . S
H281 C287 0.930 . S
C282 H268 0.929 1_545 S
C282 C280 1.399 . S
C282 C285 1.401 1_545 S
C283 C280 1.403 . S
C283 C284 1.524 . S
C283 C287 1.400 . S
C284 H269 0.960 . S
C284 H270 0.960 . S
C284 H271 0.960 1_545 S
C284 C283 1.524 . S
C285 C282 1.401 1_565 S
C285 C286 1.392 1_565 S
C285 C289 1.496 . S
C286 C285 1.392 1_545 S
C286 C287 1.385 . S
C286 C288 1.478 . S
C287 H281 0.930 . S
C287 C283 1.400 . S
C287 C286 1.385 . S
C288 C286 1.478 . S
C288 C290 1.381 . S
C288 C294 1.383 1_545 S
C289 C285 1.496 . S
C289 H295 0.959 . S
C289 H296 0.961 . S
C289 H297 0.960 1_565 S
C290 C288 1.381 . S
C290 C291 1.394 . S
C290 H298 0.930 . S
C291 C290 1.394 . S
C291 C292 1.383 . S
C291 H299 0.929 . S
C292 C291 1.383 . S
C292 C293 1.377 1_545 S
C293 H277 0.930 . S
C293 C292 1.377 1_565 S
C293 C294 1.379 . S
C294 H278 0.931 . S
C294 C288 1.383 1_565 S
C294 C293 1.379 . S
H295 C289 0.959 . S
H296 C289 0.961 . S
H297 C289 0.960 1_545 S
H298 C290 0.930 . S
H299 C291 0.929 . S
H300 C308 0.929 . S
H301 C310 0.930 . S
H302 C312 0.930 . S
H303 C315 0.929 . S
H304 C318 0.930 . S
H305 C320 0.960 . S
H306 C320 0.960 . S
H307 C320 0.960 . S
C308 H300 0.929 . S
C308 C309 1.377 . S
C308 C310 1.384 . S
C309 C308 1.377 . S
C309 C315 1.390 . S
C310 H301 0.930 . S
C310 C308 1.384 . S
C310 C311 1.372 . S
C311 C310 1.372 . S
C311 C312 1.400 . S
C311 C316 1.490 . S
C312 H302 0.930 . S
C312 C311 1.400 . S
C312 C315 1.386 . S
H313 C329 0.930 . S
H314 C330 0.931 . S
C315 H303 0.929 . S
C315 C309 1.390 . S
C315 C312 1.386 . S
C316 C311 1.490 . S
C316 C318 1.395 . S
C316 C319 1.403 . S
H317 C323 0.930 . S
C318 H304 0.930 . S
C318 C316 1.395 . S
C318 C321 1.403 . S
C319 C316 1.403 . S
C319 C320 1.524 . S
C319 C323 1.400 . S
C320 H305 0.960 . S
C320 H306 0.960 . S
C320 H307 0.960 . S
C320 C319 1.524 . S
C321 C318 1.403 . S
C321 C322 1.392 . S
C321 C325 1.495 . S
C322 C321 1.392 . S
C322 C323 1.385 . S
C322 C324 1.478 . S
C323 H317 0.930 . S
C323 C319 1.400 . S
C323 C322 1.385 . S
C324 C322 1.478 . S
C324 C326 1.381 . S
C324 C330 1.383 . S
C325 C321 1.495 . S
C325 H331 0.959 . S
C325 H332 0.961 . S
C325 H333 0.960 . S
C326 C324 1.381 . S
C326 C327 1.394 . S
C326 H334 0.930 . S
C327 C326 1.394 . S
C327 C328 1.383 . S
C327 H335 0.929 . S
C328 C327 1.383 . S
C328 C329 1.377 . S
C329 H313 0.930 . S
C329 C328 1.377 . S
C329 C330 1.379 . S
C330 H314 0.931 . S
C330 C324 1.383 . S
C330 C329 1.379 . S
H331 C325 0.959 . S
H332 C325 0.961 . S
H333 C325 0.960 . S
H334 C326 0.930 . S
H335 C327 0.929 . S
H336 C344 0.929 . S
H337 C346 0.930 . S
H338 C348 0.930 . S
H339 C351 0.929 . S
H340 C354 0.930 . S
H341 C356 0.960 . S
H342 C356 0.960 . S
H343 C356 0.960 . S
C344 H336 0.929 . S
C344 C345 1.377 . S
C344 C346 1.384 . S
C345 C344 1.377 . S
C345 C351 1.390 . S
C346 H337 0.930 . S
C346 C344 1.384 . S
C346 C347 1.372 . S
C347 C346 1.372 . S
C347 C348 1.400 . S
C347 C352 1.490 . S
C348 H338 0.930 . S
C348 C347 1.400 . S
C348 C351 1.386 . S
H349 C365 0.930 . S
H350 C366 0.931 . S
C351 H339 0.929 . S
C351 C345 1.390 . S
C351 C348 1.386 . S
C352 C347 1.490 . S
C352 C354 1.395 . S
C352 C355 1.403 . S
H353 C359 0.930 . S
C354 H340 0.930 . S
C354 C352 1.395 . S
C354 C357 1.403 . S
C355 C352 1.403 . S
C355 C356 1.524 . S
C355 C359 1.400 . S
C356 H341 0.960 . S
C356 H342 0.960 . S
C356 H343 0.960 . S
C356 C355 1.524 . S
C357 C354 1.403 . S
C357 C358 1.392 . S
C357 C361 1.495 . S
C358 C357 1.392 . S
C358 C359 1.385 . S
C358 C360 1.478 . S
C359 H353 0.930 . S
C359 C355 1.400 . S
C359 C358 1.385 . S
C360 C358 1.478 . S
C360 C362 1.381 . S
C360 C366 1.383 . S
C361 C357 1.495 . S
C361 H367 0.959 . S
C361 H368 0.961 . S
C361 H369 0.960 . S
C362 C360 1.381 . S
C362 C363 1.394 . S
C362 H370 0.930 . S
C363 C362 1.394 . S
C363 C364 1.383 . S
C363 H371 0.929 . S
C364 C363 1.383 . S
C364 C365 1.377 . S
C365 H349 0.930 . S
C365 C364 1.377 . S
C365 C366 1.379 . S
C366 H350 0.931 . S
C366 C360 1.383 . S
C366 C365 1.379 . S
H367 C361 0.959 . S
H368 C361 0.961 . S
H369 C361 0.960 . S
H370 C362 0.930 . S
H371 C363 0.929 . S
H372 C380 0.929 . S
H373 C382 0.930 . S
H374 C384 0.930 . S
H375 C387 0.929 . S
H376 C390 0.930 . S
H377 C392 0.960 . S
H378 C392 0.960 . S
H379 C392 0.960 . S
C380 H372 0.929 . S
C380 C381 1.377 . S
C380 C382 1.384 . S
C381 C380 1.377 . S
C381 C387 1.390 . S
C382 H373 0.930 . S
C382 C380 1.384 . S
C382 C383 1.372 . S
C383 C382 1.372 . S
C383 C384 1.400 . S
C383 C388 1.490 . S
C384 H374 0.930 . S
C384 C383 1.400 . S
C384 C387 1.386 . S
H385 C401 0.902 1_655 S
H386 C402 0.931 1_655 S
C387 H375 0.929 . S
C387 C381 1.390 . S
C387 C384 1.386 . S
C388 C383 1.490 . S
C388 C390 1.395 . S
C388 C391 1.403 . S
H389 C395 0.930 . S
C390 H376 0.930 . S
C390 C388 1.395 . S
C390 C393 1.403 . S
C391 C388 1.403 . S
C391 C392 1.524 . S
C391 C395 1.400 . S
C392 H377 0.960 . S
C392 H378 0.960 . S
C392 H379 0.960 . S
C392 C391 1.524 . S
C393 C390 1.403 . S
C393 C394 1.392 . S
C393 C397 1.495 . S
C394 C393 1.392 . S
C394 C395 1.385 . S
C394 C396 1.478 . S
C395 H389 0.930 . S
C395 C391 1.400 . S
C395 C394 1.385 . S
C396 C394 1.478 . S
C396 C398 1.381 . S
C396 C402 1.383 . S
C397 C393 1.495 . S
C397 H403 0.959 . S
C397 H404 0.961 1_455 S
C397 H405 0.960 . S
C398 C396 1.381 . S
C398 C399 1.394 . S
C398 H406 0.930 . S
C399 C398 1.394 . S
C399 C400 1.383 . S
C399 H407 0.929 . S
C400 C399 1.383 . S
C400 C401 1.411 . S
C401 H385 0.902 1_455 S
C401 C400 1.411 . S
C401 C402 1.374 . S
C402 H386 0.931 1_455 S
C402 C396 1.383 . S
C402 C401 1.374 . S
H403 C397 0.959 . S
H404 C397 0.961 1_655 S
H405 C397 0.960 . S
H406 C398 0.930 . S
H407 C399 0.929 . S
H408 C416 0.929 . S
H409 C418 0.930 . S
H410 C420 0.930 . S
H411 C423 0.929 . S
H412 C426 0.930 . S
H413 C428 0.960 . S
H414 C428 0.960 1_545 S
H415 C428 0.960 . S
C416 H408 0.929 . S
C416 C417 1.335 1_545 S
C416 C418 1.384 . S
C417 C416 1.335 1_565 S
C417 C423 1.428 . S
C418 H409 0.930 . S
C418 C416 1.384 . S
C418 C419 1.374 . S
C419 C418 1.374 . S
C419 C420 1.397 1_545 S
C419 C424 1.489 . S
C420 H410 0.930 . S
C420 C419 1.397 1_565 S
C420 C423 1.386 . S
H421 C437 0.930 . S
H422 C438 0.931 . S
C423 H411 0.929 . S
C423 C417 1.428 . S
C423 C420 1.386 . S
C424 C419 1.489 . S
C424 C426 1.396 . S
C424 C427 1.402 1_545 S
H425 C431 0.930 . S
C426 H412 0.930 . S
C426 C424 1.396 . S
C426 C429 1.403 . S
C427 C424 1.402 1_565 S
C427 C428 1.524 1_554 S
C427 C431 1.400 1_554 S
C428 H413 0.960 . S
C428 H414 0.960 1_565 S
C428 H415 0.960 . S
C428 C427 1.524 1_556 S
C429 C426 1.403 . S
C429 C430 1.393 . S
C429 C433 1.495 . S
C430 C429 1.393 . S
C430 C431 1.384 1_544 S
C430 C432 1.479 1_544 S
C431 H425 0.930 . S
C431 C427 1.400 1_556 S
C431 C430 1.384 1_566 S
C432 C430 1.479 1_566 S
C432 C434 1.376 1_565 S
C432 C438 1.387 . S
C433 C429 1.495 . S
C433 H439 0.959 . S
C433 H440 0.961 1_545 S
C433 H441 0.960 . S
C434 C432 1.376 1_545 S
C434 C435 1.394 . S
C434 H442 0.930 . S
C435 C434 1.394 . S
C435 C436 1.367 1_545 S
C435 H443 0.929 . S
C436 C435 1.367 1_565 S
C436 C437 1.394 . S
C437 H421 0.930 . S
C437 C436 1.394 . S
C437 C438 1.379 . S
C438 H422 0.931 . S
C438 C432 1.387 . S
C438 C437 1.379 . S
H439 C433 0.959 . S
H440 C433 0.961 1_565 S
H441 C433 0.960 . S
H442 C434 0.930 . S
H443 C435 0.929 . S
H444 C452 0.929 . S
H445 C454 0.930 . S
H446 C456 0.930 1_556 S
H447 C459 0.929 . S
H448 C462 0.930 . S
H449 C464 0.960 . S
H450 C464 0.960 . S
H451 C464 0.960 . S
C452 H444 0.929 . S
C452 C453 1.377 . S
C452 C454 1.384 . S
C453 C452 1.377 . S
C453 C459 1.390 . S
C454 H445 0.930 . S
C454 C452 1.384 . S
C454 C455 1.372 . S
C455 C454 1.372 . S
C455 C456 1.400 . S
C455 C460 1.490 1_554 S
C456 H446 0.930 1_554 S
C456 C455 1.400 . S
C456 C459 1.386 . S
H457 C473 0.930 . S
H458 C474 0.931 . S
C459 H447 0.929 . S
C459 C453 1.390 . S
C459 C456 1.386 . S
C460 C455 1.490 1_556 S
C460 C462 1.395 1_556 S
C460 C463 1.403 . S
H461 C467 0.930 . S
C462 H448 0.930 . S
C462 C460 1.395 1_554 S
C462 C465 1.403 . S
C463 C460 1.403 . S
C463 C464 1.524 . S
C463 C467 1.400 . S
C464 H449 0.960 . S
C464 H450 0.960 . S
C464 H451 0.960 . S
C464 C463 1.524 . S
C465 C462 1.403 . S
C465 C466 1.392 1_554 S
C465 C469 1.495 . S
C466 C465 1.392 1_556 S
C466 C467 1.385 . S
C466 C468 1.478 . S
C467 H461 0.930 . S
C467 C463 1.400 . S
C467 C466 1.385 . S
C468 C466 1.478 . S
C468 C470 1.381 . S
C468 C474 1.383 . S
C469 C465 1.495 . S
C469 H475 0.959 . S
C469 H476 0.961 . S
C469 H477 0.960 . S
C470 C468 1.381 . S
C470 C471 1.394 . S
C470 H478 0.930 . S
C471 C470 1.394 . S
C471 C472 1.383 . S
C471 H479 0.929 . S
C472 C471 1.383 . S
C472 C473 1.377 . S
C473 H457 0.930 . S
C473 C472 1.377 . S
C473 C474 1.379 . S
C474 H458 0.931 . S
C474 C468 1.383 . S
C474 C473 1.379 . S
H475 C469 0.959 . S
H476 C469 0.961 . S
H477 C469 0.960 . S
H478 C470 0.930 . S
H479 C471 0.929 . S
H480 C488 0.929 . S
H481 C490 0.930 . S
H482 C492 0.930 . S
H483 C495 0.929 . S
H484 C498 0.930 . S
H485 C500 0.960 . S
H486 C500 0.960 . S
H487 C500 0.960 . S
C488 H480 0.929 . S
C488 C489 1.377 . S
C488 C490 1.384 . S
C489 C488 1.377 . S
C489 C495 1.390 . S
C490 H481 0.930 . S
C490 C488 1.384 . S
C490 C491 1.372 . S
C491 C490 1.372 . S
C491 C492 1.400 . S
C491 C496 1.490 . S
C492 H482 0.930 . S
C492 C491 1.400 . S
C492 C495 1.386 . S
H493 C509 0.930 1_556 S
H494 C510 0.931 . S
C495 H483 0.929 . S
C495 C489 1.390 . S
C495 C492 1.386 . S
C496 C491 1.490 . S
C496 C498 1.395 . S
C496 C499 1.403 . S
H497 C503 0.930 . S
C498 H484 0.930 . S
C498 C496 1.395 . S
C498 C501 1.403 . S
C499 C496 1.403 . S
C499 C500 1.524 . S
C499 C503 1.400 . S
C500 H485 0.960 . S
C500 H486 0.960 . S
C500 H487 0.960 . S
C500 C499 1.524 . S
C501 C498 1.403 . S
C501 C502 1.392 . S
C501 C505 1.495 . S
C502 C501 1.392 . S
C502 C503 1.385 . S
C502 C504 1.478 . S
C503 H497 0.930 . S
C503 C499 1.400 . S
C503 C502 1.385 . S
C504 C502 1.478 . S
C504 C506 1.381 . S
C504 C510 1.383 . S
C505 C501 1.495 . S
C505 H511 0.959 . S
C505 H512 0.961 . S
C505 H513 0.960 . S
C506 C504 1.381 . S
C506 C507 1.394 . S
C506 H514 0.930 . S
C507 C506 1.394 . S
C507 C508 1.383 . S
C507 H515 0.929 . S
C508 C507 1.383 . S
C508 C509 1.377 . S
C509 H493 0.930 1_554 S
C509 C508 1.377 . S
C509 C510 1.379 . S
C510 H494 0.931 . S
C510 C504 1.383 . S
C510 C509 1.379 . S
H511 C505 0.959 . S
H512 C505 0.961 . S
H513 C505 0.960 . S
H514 C506 0.930 . S
H515 C507 0.929 . S
H516 C524 0.929 . S
H517 C526 0.930 . S
H518 C528 0.930 . S
H519 C531 0.926 . S
H520 C534 0.930 . S
H521 C536 0.960 . S
H522 C536 0.960 . S
H523 C536 0.960 . S
C524 H516 0.929 . S
C524 C525 1.377 . S
C524 C526 1.384 . S
C525 C524 1.377 . S
C525 C531 1.390 1_655 S
C526 H517 0.930 . S
C526 C524 1.384 . S
C526 C527 1.372 . S
C527 C526 1.372 . S
C527 C528 1.398 1_655 S
C527 C532 1.493 1_655 S
C528 H518 0.930 . S
C528 C527 1.398 1_455 S
C528 C531 1.386 . S
H529 C545 0.930 . S
H530 C546 0.931 . S
C531 H519 0.926 . S
C531 C525 1.390 1_455 S
C531 C528 1.386 . S
C532 C527 1.493 1_455 S
C532 C534 1.391 1_455 S
C532 C535 1.406 . S
H533 C539 0.930 . S
C534 H520 0.930 . S
C534 C532 1.391 1_655 S
C534 C537 1.403 . S
C535 C532 1.406 . S
C535 C536 1.524 . S
C535 C539 1.400 . S
C536 H521 0.960 . S
C536 H522 0.960 . S
C536 H523 0.960 . S
C536 C535 1.524 . S
C537 C534 1.403 . S
C537 C538 1.412 . S
C537 C541 1.495 . S
C538 C537 1.412 . S
C538 C539 1.362 1_655 S
C538 C540 1.484 1_654 S
C539 H533 0.930 . S
C539 C535 1.400 . S
C539 C538 1.362 1_455 S
C540 C538 1.484 1_456 S
C540 C542 1.381 1_556 S
C540 C546 1.381 . S
C541 C537 1.495 . S
C541 H547 0.959 . S
C541 H548 0.961 . S
C541 H549 0.960 . S
C542 C540 1.381 1_554 S
C542 C543 1.394 1_554 S
C542 H550 0.928 . S
C543 C542 1.394 1_556 S
C543 C544 1.383 . S
C543 H551 0.929 . S
C544 C543 1.383 . S
C544 C545 1.377 . S
C545 H529 0.930 . S
C545 C544 1.377 . S
C545 C546 1.379 . S
C546 H530 0.931 . S
C546 C540 1.381 . S
C546 C545 1.379 . S
H547 C541 0.959 . S
H548 C541 0.961 . S
H549 C541 0.960 . S
H550 C542 0.928 . S
H551 C543 0.929 . S
H552 C560 0.929 . S
H553 C562 0.930 . S
H554 C564 0.930 . S
H555 C567 0.929 . S
H556 C570 0.930 . S
H557 C572 0.960 . S
H558 C572 0.960 . S
H559 C572 0.960 . S
C560 H552 0.929 . S
C560 C561 1.377 . S
C560 C562 1.384 . S
C561 C560 1.377 . S
C561 C567 1.390 . S
C562 H553 0.930 . S
C562 C560 1.384 . S
C562 C563 1.372 . S
C563 C562 1.372 . S
C563 C564 1.400 . S
C563 C568 1.490 . S
C564 H554 0.930 . S
C564 C563 1.400 . S
C564 C567 1.386 . S
H565 C581 0.930 . S
H566 C582 0.931 . S
C567 H555 0.929 . S
C567 C561 1.390 . S
C567 C564 1.386 . S
C568 C563 1.490 . S
C568 C570 1.395 1_455 S
C568 C571 1.403 . S
H569 C575 0.930 . S
C570 H556 0.930 . S
C570 C568 1.395 1_655 S
C570 C573 1.403 . S
C571 C568 1.403 . S
C571 C572 1.524 . S
C571 C575 1.400 . S
C572 H557 0.960 . S
C572 H558 0.960 . S
C572 H559 0.960 . S
C572 C571 1.524 . S
C573 C570 1.403 . S
C573 C574 1.392 1_655 S
C573 C577 1.495 . S
C574 C573 1.392 1_455 S
C574 C575 1.385 . S
C574 C576 1.481 . S
C575 H569 0.930 . S
C575 C571 1.400 . S
C575 C574 1.385 . S
C576 C574 1.481 . S
C576 C578 1.379 1_455 S
C576 C582 1.383 . S
C577 C573 1.495 . S
C577 H583 0.959 . S
C577 H584 0.961 . S
C577 H585 0.960 . S
C578 C576 1.379 1_655 S
C578 C579 1.394 . S
C578 H586 0.930 . S
C579 C578 1.394 . S
C579 C580 1.383 . S
C579 H587 0.929 . S
C580 C579 1.383 . S
C580 C581 1.377 1_655 S
C581 H565 0.930 . S
C581 C580 1.377 1_455 S
C581 C582 1.379 . S
C582 H566 0.931 . S
C582 C576 1.383 . S
C582 C581 1.379 . S
H583 C577 0.959 . S
H584 C577 0.961 . S
H585 C577 0.960 . S
H586 C578 0.930 . S
H587 C579 0.929 . S
H588 C596 0.929 . S
H589 C598 0.930 . S
H590 C600 0.930 . S
H591 C603 0.929 . S
H592 C606 0.930 . S
H593 C608 0.960 . S
H594 C608 0.960 . S
H595 C608 0.960 1_545 S
C596 H588 0.929 . S
C596 C597 1.377 1_565 S
C596 C598 1.384 . S
C597 C596 1.377 1_545 S
C597 C603 1.390 . S
C598 H589 0.930 . S
C598 C596 1.384 . S
C598 C599 1.372 . S
C599 C598 1.372 . S
C599 C600 1.400 1_565 S
C599 C604 1.490 . S
C600 H590 0.930 . S
C600 C599 1.400 1_545 S
C600 C603 1.386 . S
H601 C617 0.930 . S
H602 C618 0.931 . S
C603 H591 0.929 . S
C603 C597 1.390 . S
C603 C600 1.386 . S
C604 C599 1.490 . S
C604 C606 1.395 . S
C604 C607 1.403 . S
H605 C611 0.930 . S
C606 H592 0.930 . S
C606 C604 1.395 . S
C606 C609 1.403 . S
C607 C604 1.403 . S
C607 C608 1.524 . S
C607 C611 1.400 . S
C608 H593 0.960 . S
C608 H594 0.960 . S
C608 H595 0.960 1_565 S
C608 C607 1.524 . S
C609 C606 1.403 . S
C609 C610 1.392 . S
C609 C613 1.495 . S
C610 C609 1.392 . S
C610 C611 1.385 . S
C610 C612 1.478 . S
C611 H605 0.930 . S
C611 C607 1.400 . S
C611 C610 1.385 . S
C612 C610 1.478 . S
C612 C614 1.381 . S
C612 C618 1.383 1_565 S
C613 C609 1.495 . S
C613 H619 0.959 . S
C613 H620 0.944 1_565 S
C613 H621 0.960 . S
C614 C612 1.381 . S
C614 C615 1.394 . S
C614 H622 0.930 . S
C615 C614 1.394 . S
C615 C616 1.383 . S
C615 H623 0.929 . S
C616 C615 1.383 . S
C616 C617 1.377 1_565 S
C617 H601 0.930 . S
C617 C616 1.377 1_545 S
C617 C618 1.379 . S
C618 H602 0.931 . S
C618 C612 1.383 1_545 S
C618 C617 1.379 . S
H619 C613 0.959 . S
H620 C613 0.944 1_545 S
H621 C613 0.960 . S
H622 C614 0.930 . S
H623 C615 0.929 . S
H624 C632 0.929 . S
H625 C634 0.930 . S
H626 C636 0.930 . S
H627 C639 0.929 . S
H628 C642 0.930 . S
H629 C644 0.960 . S
H630 C644 0.960 . S
H631 C644 0.960 . S
C632 H624 0.929 . S
C632 C633 1.377 . S
C632 C634 1.384 . S
C633 C632 1.377 . S
C633 C639 1.390 . S
C634 H625 0.930 . S
C634 C632 1.384 . S
C634 C635 1.372 . S
C635 C634 1.372 . S
C635 C636 1.400 . S
C635 C640 1.490 . S
C636 H626 0.930 . S
C636 C635 1.400 . S
C636 C639 1.386 . S
H637 C653 0.930 . S
H638 C654 0.931 . S
C639 H627 0.929 . S
C639 C633 1.390 . S
C639 C636 1.386 . S
C640 C635 1.490 . S
C640 C642 1.395 . S
C640 C643 1.403 . S
H641 C647 0.930 . S
C642 H628 0.930 . S
C642 C640 1.395 . S
C642 C645 1.403 . S
C643 C640 1.403 . S
C643 C644 1.524 . S
C643 C647 1.400 . S
C644 H629 0.960 . S
C644 H630 0.960 . S
C644 H631 0.960 . S
C644 C643 1.524 . S
C645 C642 1.403 . S
C645 C646 1.392 . S
C645 C649 1.495 . S
C646 C645 1.392 . S
C646 C647 1.385 . S
C646 C648 1.478 . S
C647 H641 0.930 . S
C647 C643 1.400 . S
C647 C646 1.385 . S
C648 C646 1.478 . S
C648 C650 1.381 . S
C648 C654 1.383 . S
C649 C645 1.495 . S
C649 H655 0.959 . S
C649 H656 0.961 . S
C649 H657 0.960 . S
C650 C648 1.381 . S
C650 C651 1.394 . S
C650 H658 0.930 . S
C651 C650 1.394 . S
C651 C652 1.383 . S
C651 H659 0.929 . S
C652 C651 1.383 . S
C652 C653 1.377 . S
C653 H637 0.930 . S
C653 C652 1.377 . S
C653 C654 1.379 . S
C654 H638 0.931 . S
C654 C648 1.383 . S
C654 C653 1.379 . S
H655 C649 0.959 . S
H656 C649 0.961 . S
H657 C649 0.960 . S
H658 C650 0.930 . S
H659 C651 0.929 . S
H660 C668 0.929 . S
H661 C670 0.930 . S
H662 C672 0.930 . S
H663 C675 0.929 . S
H664 C678 0.930 . S
H665 C680 0.960 . S
H666 C680 0.960 . S
H667 C680 0.960 . S
C668 H660 0.929 . S
C668 C669 1.377 . S
C668 C670 1.384 . S
C669 C668 1.377 . S
C669 C675 1.390 . S
C670 H661 0.930 . S
C670 C668 1.384 . S
C670 C671 1.372 . S
C671 C670 1.372 . S
C671 C672 1.400 . S
C671 C676 1.490 . S
C672 H662 0.930 . S
C672 C671 1.400 . S
C672 C675 1.386 . S
H673 C689 0.930 . S
H674 C690 0.931 . S
C675 H663 0.929 . S
C675 C669 1.390 . S
C675 C672 1.386 . S
C676 C671 1.490 . S
C676 C678 1.395 . S
C676 C679 1.403 . S
H677 C683 0.930 . S
C678 H664 0.930 . S
C678 C676 1.395 . S
C678 C681 1.403 . S
C679 C676 1.403 . S
C679 C680 1.524 . S
C679 C683 1.400 . S
C680 H665 0.960 . S
C680 H666 0.960 . S
C680 H667 0.960 . S
C680 C679 1.524 . S
C681 C678 1.403 . S
C681 C682 1.392 . S
C681 C685 1.495 . S
C682 C681 1.392 . S
C682 C683 1.385 . S
C682 C684 1.478 . S
C683 H677 0.930 . S
C683 C679 1.400 . S
C683 C682 1.385 . S
C684 C682 1.478 . S
C684 C686 1.381 . S
C684 C690 1.383 . S
C685 C681 1.495 . S
C685 H691 0.959 . S
C685 H692 0.961 . S
C685 H693 0.960 . S
C686 C684 1.381 . S
C686 C687 1.394 . S
C686 H694 0.930 . S
C687 C686 1.394 . S
C687 C688 1.383 . S
C687 H695 0.929 . S
C688 C687 1.383 . S
C688 C689 1.377 . S
C689 H673 0.930 . S
C689 C688 1.377 . S
C689 C690 1.379 . S
C690 H674 0.931 . S
C690 C684 1.383 . S
C690 C689 1.379 . S
H691 C685 0.959 . S
H692 C685 0.961 . S
H693 C685 0.960 . S
H694 C686 0.930 . S
H695 C687 0.929 . S
H696 C704 0.929 . S
H697 C706 0.930 . S
H698 C708 0.930 . S
H699 C711 0.929 . S
H700 C714 0.930 . S
H701 C716 0.960 . S
H702 C716 0.960 1_655 S
H703 C716 0.960 . S
C704 H696 0.929 . S
C704 C705 1.377 . S
C704 C706 1.384 . S
C705 C704 1.377 . S
C705 C711 1.390 1_655 S
C706 H697 0.930 . S
C706 C704 1.384 . S
C706 C707 1.372 1_655 S
C707 C706 1.372 1_455 S
C707 C708 1.400 . S
C707 C712 1.490 . S
C708 H698 0.930 . S
C708 C707 1.400 . S
C708 C711 1.386 . S
H709 C725 0.930 1_556 S
H710 C726 0.931 . S
C711 H699 0.929 . S
C711 C705 1.390 1_455 S
C711 C708 1.386 . S
C712 C707 1.490 . S
C712 C714 1.395 . S
C712 C715 1.403 . S
H713 C719 0.930 . S
C714 H700 0.930 . S
C714 C712 1.395 . S
C714 C717 1.403 . S
C715 C712 1.403 . S
C715 C716 1.524 . S
C715 C719 1.400 . S
C716 H701 0.960 . S
C716 H702 0.960 1_455 S
C716 H703 0.960 . S
C716 C715 1.524 . S
C717 C714 1.403 . S
C717 C718 1.392 . S
C717 C721 1.495 . S
C718 C717 1.392 . S
C718 C719 1.385 . S
C718 C720 1.478 . S
C719 H713 0.930 . S
C719 C715 1.400 . S
C719 C718 1.385 . S
C720 C718 1.478 . S
C720 C722 1.381 . S
C720 C726 1.383 . S
C721 C717 1.495 . S
C721 H727 0.959 . S
C721 H728 0.961 . S
C721 H729 0.960 . S
C722 C720 1.381 . S
C722 C723 1.394 . S
C722 H730 0.930 1_455 S
C723 C722 1.394 . S
C723 C724 1.383 . S
C723 H731 0.929 1_455 S
C724 C723 1.383 . S
C724 C725 1.377 . S
C725 H709 0.930 1_554 S
C725 C724 1.377 . S
C725 C726 1.379 . S
C726 H710 0.931 . S
C726 C720 1.383 . S
C726 C725 1.379 . S
H727 C721 0.959 . S
H728 C721 0.961 . S
H729 C721 0.960 . S
H730 C722 0.930 1_655 S
H731 C723 0.929 1_655 S
H732 C740 0.929 . S
H733 C742 0.930 . S
H734 C744 0.930 . S
H735 C747 0.929 . S
H736 C750 0.930 . S
H737 C752 0.960 . S
H738 C752 0.960 . S
H739 C752 0.960 . S
C740 H732 0.929 . S
C740 C741 1.377 1_545 S
C740 C742 1.384 . S
C741 C740 1.377 1_565 S
C741 C747 1.390 . S
C742 H733 0.930 . S
C742 C740 1.384 . S
C742 C743 1.372 . S
C743 C742 1.372 . S
C743 C744 1.400 1_545 S
C743 C748 1.490 . S
C744 H734 0.930 . S
C744 C743 1.400 1_565 S
C744 C747 1.386 . S
H745 C761 0.930 . S
H746 C762 0.931 1_556 S
C747 H735 0.929 . S
C747 C741 1.390 . S
C747 C744 1.386 . S
C748 C743 1.490 . S
C748 C750 1.395 . S
C748 C751 1.403 1_545 S
H749 C755 0.930 . S
C750 H736 0.930 . S
C750 C748 1.395 . S
C750 C753 1.403 . S
C751 C748 1.403 1_565 S
C751 C752 1.524 . S
C751 C755 1.400 . S
C752 H737 0.960 . S
C752 H738 0.960 . S
C752 H739 0.960 . S
C752 C751 1.524 . S
C753 C750 1.403 . S
C753 C754 1.392 . S
C753 C757 1.495 . S
C754 C753 1.392 . S
C754 C755 1.385 1_545 S
C754 C756 1.478 . S
C755 H749 0.930 . S
C755 C751 1.400 . S
C755 C754 1.385 1_565 S
C756 C754 1.478 . S
C756 C758 1.381 . S
C756 C762 1.383 . S
C757 C753 1.495 . S
C757 H763 0.959 . S
C757 H764 0.961 . S
C757 H765 0.960 . S
C758 C756 1.381 . S
C758 C759 1.394 . S
C758 H766 0.930 . S
C759 C758 1.394 . S
C759 C760 1.383 . S
C759 H767 0.929 . S
C760 C759 1.383 . S
C760 C761 1.377 1_554 S
C761 H745 0.930 . S
C761 C760 1.377 1_556 S
C761 C762 1.379 1_556 S
C762 H746 0.931 1_554 S
C762 C756 1.383 . S
C762 C761 1.379 1_554 S
H763 C757 0.959 . S
H764 C757 0.961 . S
H765 C757 0.960 . S
H766 C758 0.930 . S
H767 C759 0.929 . S
H768 C776 0.929 . S
H769 C778 0.930 . S
H770 C780 0.930 1_556 S
H771 C783 0.929 . S
H772 C786 0.930 . S
H773 C788 0.960 . S
H774 C788 0.960 . S
H775 C788 0.960 . S
C776 H768 0.929 . S
C776 C777 1.377 . S
C776 C778 1.384 . S
C777 C776 1.377 . S
C777 C783 1.390 . S
C778 H769 0.930 . S
C778 C776 1.384 . S
C778 C779 1.372 . S
C779 C778 1.372 . S
C779 C780 1.400 . S
C779 C784 1.490 . S
C780 H770 0.930 1_554 S
C780 C779 1.400 . S
C780 C783 1.386 . S
H781 C797 0.930 . S
H782 C798 0.931 . S
C783 H771 0.929 . S
C783 C777 1.390 . S
C783 C780 1.386 . S
C784 C779 1.490 . S
C784 C786 1.395 . S
C784 C787 1.403 1_554 S
H785 C791 0.930 . S
C786 H772 0.930 . S
C786 C784 1.395 . S
C786 C789 1.403 . S
C787 C784 1.403 1_556 S
C787 C788 1.524 . S
C787 C791 1.400 . S
C788 H773 0.960 . S
C788 H774 0.960 . S
C788 H775 0.960 . S
C788 C787 1.524 . S
C789 C786 1.403 . S
C789 C790 1.392 1_554 S
C789 C793 1.495 . S
C790 C789 1.392 1_556 S
C790 C791 1.385 . S
C790 C792 1.478 . S
C791 H785 0.930 . S
C791 C787 1.400 . S
C791 C790 1.385 . S
C792 C790 1.478 . S
C792 C794 1.381 . S
C792 C798 1.383 . S
C793 C789 1.495 . S
C793 H799 0.959 . S
C793 H800 0.961 . S
C793 H801 0.960 . S
C794 C792 1.381 . S
C794 C795 1.394 . S
C794 H802 0.930 1_556 S
C795 C794 1.394 . S
C795 C796 1.383 . S
C795 H803 0.929 . S
C796 C795 1.383 . S
C796 C797 1.377 . S
C797 H781 0.930 . S
C797 C796 1.377 . S
C797 C798 1.379 . S
C798 H782 0.931 . S
C798 C792 1.383 . S
C798 C797 1.379 . S
H799 C793 0.959 . S
H800 C793 0.961 . S
H801 C793 0.960 . S
H802 C794 0.930 1_554 S
H803 C795 0.929 . S
H804 C812 0.929 . S
H805 C814 0.930 . S
H806 C816 0.930 . S
H807 C819 0.929 . S
H808 C822 0.930 . S
H809 C824 0.960 . S
H810 C824 0.960 . S
H811 C824 0.960 . S
C812 H804 0.929 . S
C812 C813 1.377 . S
C812 C814 1.384 . S
C813 C812 1.377 . S
C813 C819 1.390 . S
C814 H805 0.930 . S
C814 C812 1.384 . S
C814 C815 1.372 . S
C815 C814 1.372 . S
C815 C816 1.400 . S
C815 C820 1.490 . S
C816 H806 0.930 . S
C816 C815 1.400 . S
C816 C819 1.386 . S
H817 C833 0.930 . S
H818 C834 0.931 . S
C819 H807 0.929 . S
C819 C813 1.390 . S
C819 C816 1.386 . S
C820 C815 1.490 . S
C820 C822 1.395 . S
C820 C823 1.403 . S
H821 C827 0.930 . S
C822 H808 0.930 . S
C822 C820 1.395 . S
C822 C825 1.403 . S
C823 C820 1.403 . S
C823 C824 1.524 . S
C823 C827 1.400 . S
C824 H809 0.960 . S
C824 H810 0.960 . S
C824 H811 0.960 . S
C824 C823 1.524 . S
C825 C822 1.403 . S
C825 C826 1.392 . S
C825 C829 1.495 . S
C826 C825 1.392 . S
C826 C827 1.385 . S
C826 C828 1.478 . S
C827 H821 0.930 . S
C827 C823 1.400 . S
C827 C826 1.385 . S
C828 C826 1.478 . S
C828 C830 1.381 . S
C828 C834 1.383 . S
C829 C825 1.495 . S
C829 H835 0.959 . S
C829 H836 0.961 . S
C829 H837 0.960 . S
C830 C828 1.381 . S
C830 C831 1.394 . S
C830 H838 0.930 . S
C831 C830 1.394 . S
C831 C832 1.383 . S
C831 H839 0.929 . S
C832 C831 1.383 . S
C832 C833 1.377 . S
C833 H817 0.930 . S
C833 C832 1.377 . S
C833 C834 1.379 . S
C834 H818 0.931 . S
C834 C828 1.383 . S
C834 C833 1.379 . S
H835 C829 0.959 . S
H836 C829 0.961 . S
H837 C829 0.960 . S
H838 C830 0.930 . S
H839 C831 0.929 . S
H840 C848 0.929 . S
H841 C850 0.930 . S
H842 C852 0.930 . S
H843 C855 0.929 . S
H844 C858 0.930 . S
H845 C860 0.960 . S
H846 C860 0.960 . S
H847 C860 0.960 . S
C848 H840 0.929 . S
C848 C849 1.377 . S
C848 C850 1.384 . S
C849 C848 1.377 . S
C849 C855 1.390 1_554 S
C850 H841 0.930 . S
C850 C848 1.384 . S
C850 C851 1.372 1_554 S
C851 C850 1.372 1_556 S
C851 C852 1.400 . S
C851 C856 1.490 . S
C852 H842 0.930 . S
C852 C851 1.400 . S
C852 C855 1.386 . S
H853 C869 0.920 1_655 S
H854 C870 0.915 1_655 S
C855 H843 0.929 . S
C855 C849 1.390 1_556 S
C855 C852 1.386 . S
C856 C851 1.490 . S
C856 C858 1.395 1_556 S
C856 C859 1.403 . S
H857 C863 0.930 . S
C858 H844 0.930 . S
C858 C856 1.395 1_554 S
C858 C861 1.403 1_554 S
C859 C856 1.403 . S
C859 C860 1.524 . S
C859 C863 1.400 . S
C860 H845 0.960 . S
C860 H846 0.960 . S
C860 H847 0.960 . S
C860 C859 1.524 . S
C861 C858 1.403 1_556 S
C861 C862 1.392 . S
C861 C865 1.495 1_556 S
C862 C861 1.392 . S
C862 C863 1.385 . S
C862 C864 1.478 . S
C863 H857 0.930 . S
C863 C859 1.400 . S
C863 C862 1.385 . S
C864 C862 1.478 . S
C864 C866 1.381 . S
C864 C870 1.383 . S
C865 C861 1.495 1_554 S
C865 H871 0.959 1_455 S
C865 H872 0.961 1_455 S
C865 H873 0.960 . S
C866 C864 1.381 . S
C866 C867 1.394 . S
C866 H874 0.930 . S
C867 C866 1.394 . S
C867 C868 1.383 . S
C867 H875 0.929 . S
C868 C867 1.383 . S
C868 C869 1.377 . S
C869 H853 0.920 1_455 S
C869 C868 1.377 . S
C869 C870 1.379 . S
C870 H854 0.915 1_455 S
C870 C864 1.383 . S
C870 C869 1.379 . S
H871 C865 0.959 1_655 S
H872 C865 0.961 1_655 S
H873 C865 0.960 . S
H874 C866 0.930 . S
H875 C867 0.929 . S
H876 C884 0.929 . S
H877 C886 0.930 . S
H878 C888 0.930 . S
H879 C891 0.929 . S
H880 C894 0.930 . S
H881 C896 0.960 . S
H882 C896 0.960 . S
H883 C896 0.960 . S
C884 H876 0.929 . S
C884 C885 1.377 . S
C884 C886 1.384 . S
C885 C884 1.377 . S
C885 C891 1.390 1_545 S
C886 H877 0.930 . S
C886 C884 1.384 . S
C886 C887 1.372 . S
C887 C886 1.372 . S
C887 C888 1.400 1_545 S
C887 C892 1.490 . S
C888 H878 0.930 . S
C888 C887 1.400 1_565 S
C888 C891 1.386 . S
H889 C905 0.930 . S
H890 C906 0.931 . S
C891 H879 0.929 . S
C891 C885 1.390 1_565 S
C891 C888 1.386 . S
C892 C887 1.490 . S
C892 C894 1.395 . S
C892 C895 1.403 1_544 S
H893 C899 0.930 . S
C894 H880 0.930 . S
C894 C892 1.395 . S
C894 C897 1.403 . S
C895 C892 1.403 1_566 S
C895 C896 1.524 . S
C895 C899 1.400 . S
C896 H881 0.960 . S
C896 H882 0.960 . S
C896 H883 0.960 . S
C896 C895 1.524 . S
C897 C894 1.403 . S
C897 C898 1.392 1_554 S
C897 C901 1.495 . S
C898 C897 1.392 1_556 S
C898 C899 1.385 1_545 S
C898 C900 1.478 . S
C899 H893 0.930 . S
C899 C895 1.400 . S
C899 C898 1.385 1_565 S
C900 C898 1.478 . S
C900 C902 1.381 . S
C900 C906 1.383 1_545 S
C901 C897 1.495 . S
C901 H907 0.959 . S
C901 H908 0.961 . S
C901 H909 0.960 . S
C902 C900 1.381 . S
C902 C903 1.394 . S
C902 H910 0.930 . S
C903 C902 1.394 . S
C903 C904 1.383 . S
C903 H911 0.929 . S
C904 C903 1.383 . S
C904 C905 1.377 1_545 S
C905 H889 0.930 . S
C905 C904 1.377 1_565 S
C905 C906 1.379 . S
C906 H890 0.931 . S
C906 C900 1.383 1_565 S
C906 C905 1.379 . S
H907 C901 0.959 . S
H908 C901 0.961 . S
H909 C901 0.960 . S
H910 C902 0.930 . S
H911 C903 0.929 . S
H912 C920 0.929 . S
H913 C922 0.930 . S
H914 C924 0.930 . S
H915 C927 0.929 . S
H916 C930 0.930 . S
H917 C932 0.960 . S
H918 C932 0.960 . S
H919 C932 0.960 . S
C920 H912 0.929 . S
C920 C921 1.377 . S
C920 C922 1.384 . S
C921 C920 1.377 . S
C921 C927 1.390 . S
C922 H913 0.930 . S
C922 C920 1.384 . S
C922 C923 1.372 . S
C923 C922 1.372 . S
C923 C924 1.400 . S
C923 C928 1.490 . S
C924 H914 0.930 . S
C924 C923 1.400 . S
C924 C927 1.386 . S
H925 C941 0.930 . S
H926 C942 0.931 . S
C927 H915 0.929 . S
C927 C921 1.390 . S
C927 C924 1.386 . S
C928 C923 1.490 . S
C928 C930 1.395 . S
C928 C931 1.403 . S
H929 C935 0.930 . S
C930 H916 0.930 . S
C930 C928 1.395 . S
C930 C933 1.403 . S
C931 C928 1.403 . S
C931 C932 1.524 . S
C931 C935 1.400 . S
C932 H917 0.960 . S
C932 H918 0.960 . S
C932 H919 0.960 . S
C932 C931 1.524 . S
C933 C930 1.403 . S
C933 C934 1.392 . S
C933 C937 1.495 . S
C934 C933 1.392 . S
C934 C935 1.385 . S
C934 C936 1.478 . S
C935 H929 0.930 . S
C935 C931 1.400 . S
C935 C934 1.385 . S
C936 C934 1.478 . S
C936 C938 1.381 . S
C936 C942 1.383 1_554 S
C937 C933 1.495 . S
C937 H943 0.959 . S
C937 H944 0.961 . S
C937 H945 0.960 . S
C938 C936 1.381 . S
C938 C939 1.394 1_554 S
C938 H946 0.930 . S
C939 C938 1.394 1_556 S
C939 C940 1.383 . S
C939 H947 0.929 1_556 S
C940 C939 1.383 . S
C940 C941 1.377 . S
C941 H925 0.930 . S
C941 C940 1.377 . S
C941 C942 1.379 . S
C942 H926 0.931 . S
C942 C936 1.383 1_556 S
C942 C941 1.379 . S
H943 C937 0.959 . S
H944 C937 0.961 . S
H945 C937 0.960 . S
H946 C938 0.930 . S
H947 C939 0.929 1_554 S
H948 C956 0.929 . S
H949 C958 0.930 . S
H950 C960 0.930 . S
H951 C963 0.929 . S
H952 C966 0.930 . S
H953 C968 0.960 1_554 S
H954 C968 0.960 . S
H955 C968 0.960 1_554 S
C956 H948 0.929 . S
C956 C957 1.377 . S
C956 C958 1.384 . S
C957 C956 1.377 . S
C957 C963 1.390 . S
C958 H949 0.930 . S
C958 C956 1.384 . S
C958 C959 1.372 . S
C959 C958 1.372 . S
C959 C960 1.400 . S
C959 C964 1.490 . S
C960 H950 0.930 . S
C960 C959 1.400 . S
C960 C963 1.386 . S
H961 C977 0.930 . S
H962 C978 0.931 . S
C963 H951 0.929 . S
C963 C957 1.390 . S
C963 C960 1.386 . S
C964 C959 1.490 . S
C964 C966 1.395 . S
C964 C967 1.403 . S
H965 C971 0.930 . S
C966 H952 0.930 . S
C966 C964 1.395 . S
C966 C969 1.403 . S
C967 C964 1.403 . S
C967 C968 1.524 . S
C967 C971 1.400 . S
C968 H953 0.960 1_556 S
C968 H954 0.960 . S
C968 H955 0.960 1_556 S
C968 C967 1.524 . S
C969 C966 1.403 . S
C969 C970 1.392 . S
C969 C973 1.495 . S
C970 C969 1.392 . S
C970 C971 1.385 . S
C970 C972 1.478 . S
C971 H965 0.930 . S
C971 C967 1.400 . S
C971 C970 1.385 . S
C972 C970 1.478 . S
C972 C974 1.381 . S
C972 C978 1.383 . S
C973 C969 1.495 . S
C973 H979 0.959 . S
C973 H980 0.961 . S
C973 H981 0.960 . S
C974 C972 1.381 . S
C974 C975 1.394 . S
C974 H982 0.930 . S
C975 C974 1.394 . S
C975 C976 1.383 . S
C975 H983 0.929 . S
C976 C975 1.383 . S
C976 C977 1.377 . S
C977 H961 0.930 . S
C977 C976 1.377 . S
C977 C978 1.379 . S
C978 H962 0.931 . S
C978 C972 1.383 . S
C978 C977 1.379 . S
H979 C973 0.959 . S
H980 C973 0.961 . S
H981 C973 0.960 . S
H982 C974 0.930 . S
H983 C975 0.929 . S
H984 C992 0.929 . S
H985 C994 0.930 . S
H986 C996 0.930 . S
H987 C999 0.929 . S
H988 C1002 0.930 . S
H989 C1004 0.960 . S
H990 C1004 0.960 1_455 S
H991 C1004 0.960 . S
C992 H984 0.929 . S
C992 C993 1.377 1_455 S
C992 C994 1.384 . S
C993 C992 1.377 1_655 S
C993 C999 1.390 . S
C994 H985 0.930 . S
C994 C992 1.384 . S
C994 C995 1.349 1_455 S
C995 C994 1.349 1_655 S
C995 C996 1.427 . S
C995 C1000 1.485 1_655 S
C996 H986 0.930 . S
C996 C995 1.427 . S
C996 C999 1.386 . S
H997 C1013 0.930 . S
H998 C1014 0.931 . S
C999 H987 0.929 . S
C999 C993 1.390 . S
C999 C996 1.386 . S
C1000 C995 1.485 1_455 S
C1000 C1002 1.395 . S
C1000 C1003 1.403 1_455 S
H1001 C1007 0.930 . S
C1002 H988 0.930 . S
C1002 C1000 1.395 . S
C1002 C1005 1.403 . S
C1003 C1000 1.403 1_655 S
C1003 C1004 1.524 . S
C1003 C1007 1.400 . S
C1004 H989 0.960 . S
C1004 H990 0.960 1_655 S
C1004 H991 0.960 . S
C1004 C1003 1.524 . S
C1005 C1002 1.403 . S
C1005 C1006 1.392 . S
C1005 C1009 1.495 . S
C1006 C1005 1.392 . S
C1006 C1007 1.385 1_455 S
C1006 C1008 1.478 . S
C1007 H1001 0.930 . S
C1007 C1003 1.400 . S
C1007 C1006 1.385 1_655 S
C1008 C1006 1.478 . S
C1008 C1010 1.381 . S
C1008 C1014 1.383 1_455 S
C1009 C1005 1.495 . S
C1009 H1015 0.959 . S
C1009 H1016 0.973 . S
C1009 H1017 0.960 . S
C1010 C1008 1.381 . S
C1010 C1011 1.394 . S
C1010 H1018 0.930 . S
C1011 C1010 1.394 . S
C1011 C1012 1.383 . S
C1011 H1019 0.929 . S
C1012 C1011 1.383 . S
C1012 C1013 1.377 1_455 S
C1013 H997 0.930 . S
C1013 C1012 1.377 1_655 S
C1013 C1014 1.379 . S
C1014 H998 0.931 . S
C1014 C1008 1.383 1_655 S
C1014 C1013 1.379 . S
H1015 C1009 0.959 . S
H1016 C1009 0.973 . S
H1017 C1009 0.960 . S
H1018 C1010 0.930 . S
H1019 C1011 0.929 . S
H1020 C1028 0.929 . S
H1021 C1030 0.930 . S
H1022 C1032 0.930 . S
H1023 C1035 0.929 . S
H1024 C1038 0.930 . S
H1025 C1040 0.960 . S
H1026 C1040 0.960 . S
H1027 C1040 0.960 . S
C1028 H1020 0.929 . S
C1028 C1029 1.377 . S
C1028 C1030 1.384 . S
C1029 C1028 1.377 . S
C1029 C1035 1.390 1_565 S
C1030 H1021 0.930 . S
C1030 C1028 1.384 . S
C1030 C1031 1.372 . S
C1031 C1030 1.372 . S
C1031 C1032 1.400 1_565 S
C1031 C1036 1.490 . S
C1032 H1022 0.930 . S
C1032 C1031 1.400 1_545 S
C1032 C1035 1.386 . S
H1033 C1049 0.930 . S
H1034 C1050 0.931 . S
C1035 H1023 0.929 . S
C1035 C1029 1.390 1_545 S
C1035 C1032 1.386 . S
C1036 C1031 1.490 . S
C1036 C1038 1.395 . S
C1036 C1039 1.403 1_565 S
H1037 C1043 0.930 . S
C1038 H1024 0.930 . S
C1038 C1036 1.395 . S
C1038 C1041 1.403 . S
C1039 C1036 1.403 1_545 S
C1039 C1040 1.524 . S
C1039 C1043 1.400 . S
C1040 H1025 0.960 . S
C1040 H1026 0.960 . S
C1040 H1027 0.960 . S
C1040 C1039 1.524 . S
C1041 C1038 1.403 . S
C1041 C1042 1.392 . S
C1041 C1045 1.495 . S
C1042 C1041 1.392 . S
C1042 C1043 1.385 1_565 S
C1042 C1044 1.478 . S
C1043 H1037 0.930 . S
C1043 C1039 1.400 . S
C1043 C1042 1.385 1_545 S
C1044 C1042 1.478 . S
C1044 C1046 1.381 . S
C1044 C1050 1.383 1_565 S
C1045 C1041 1.495 . S
C1045 H1051 0.959 . S
C1045 H1052 0.961 . S
C1045 H1053 0.960 . S
C1046 C1044 1.381 . S
C1046 C1047 1.394 . S
C1046 H1054 0.930 . S
C1047 C1046 1.394 . S
C1047 C1048 1.383 . S
C1047 H1055 0.929 . S
C1048 C1047 1.383 . S
C1048 C1049 1.377 1_565 S
C1049 H1033 0.930 . S
C1049 C1048 1.377 1_545 S
C1049 C1050 1.379 . S
C1050 H1034 0.931 . S
C1050 C1044 1.383 1_545 S
C1050 C1049 1.379 . S
H1051 C1045 0.959 . S
H1052 C1045 0.961 . S
H1053 C1045 0.960 . S
H1054 C1046 0.930 . S
H1055 C1047 0.929 . S
H1056 C1064 0.929 . S
H1057 C1066 0.930 . S
H1058 C1068 0.930 . S
H1059 C1071 0.929 . S
H1060 C1074 0.930 . S
H1061 C1076 0.960 . S
H1062 C1076 0.960 . S
H1063 C1076 0.960 . S
C1064 H1056 0.929 . S
C1064 C1065 1.377 . S
C1064 C1066 1.384 . S
C1065 C1064 1.377 . S
C1065 C1071 1.390 . S
C1066 H1057 0.930 . S
C1066 C1064 1.384 . S
C1066 C1067 1.372 . S
C1067 C1066 1.372 . S
C1067 C1068 1.400 . S
C1067 C1072 1.490 . S
C1068 H1058 0.930 . S
C1068 C1067 1.400 . S
C1068 C1071 1.386 . S
H1069 C1085 0.930 . S
H1070 C1086 0.931 . S
C1071 H1059 0.929 . S
C1071 C1065 1.390 . S
C1071 C1068 1.386 . S
C1072 C1067 1.490 . S
C1072 C1074 1.395 . S
C1072 C1075 1.403 . S
H1073 C1079 0.930 . S
C1074 H1060 0.930 . S
C1074 C1072 1.395 . S
C1074 C1077 1.403 . S
C1075 C1072 1.403 . S
C1075 C1076 1.524 . S
C1075 C1079 1.400 . S
C1076 H1061 0.960 . S
C1076 H1062 0.960 . S
C1076 H1063 0.960 . S
C1076 C1075 1.524 . S
C1077 C1074 1.403 . S
C1077 C1078 1.392 . S
C1077 C1081 1.495 . S
C1078 C1077 1.392 . S
C1078 C1079 1.385 . S
C1078 C1080 1.478 . S
C1079 H1073 0.930 . S
C1079 C1075 1.400 . S
C1079 C1078 1.385 . S
C1080 C1078 1.478 . S
C1080 C1082 1.381 . S
C1080 C1086 1.383 . S
C1081 C1077 1.495 . S
C1081 H1087 0.959 . S
C1081 H1088 0.961 . S
C1081 H1089 0.960 . S
C1082 C1080 1.381 . S
C1082 C1083 1.394 . S
C1082 H1090 0.930 . S
C1083 C1082 1.394 . S
C1083 C1084 1.383 . S
C1083 H1091 0.929 . S
C1084 C1083 1.383 . S
C1084 C1085 1.377 . S
C1085 H1069 0.930 . S
C1085 C1084 1.377 . S
C1085 C1086 1.379 . S
C1086 H1070 0.931 . S
C1086 C1080 1.383 . S
C1086 C1085 1.379 . S
H1087 C1081 0.959 . S
H1088 C1081 0.961 . S
H1089 C1081 0.960 . S
H1090 C1082 0.930 . S
H1091 C1083 0.929 . S
H1092 C1100 0.929 . S
H1093 C1102 0.930 . S
H1094 C1104 0.930 . S
H1095 C1107 0.929 . S
H1096 C1110 0.930 . S
H1097 C1112 0.960 . S
H1098 C1112 0.960 . S
H1099 C1112 0.960 . S
C1100 H1092 0.929 . S
C1100 C1101 1.377 . S
C1100 C1102 1.384 . S
C1101 C1100 1.377 . S
C1101 C1107 1.390 . S
C1102 H1093 0.930 . S
C1102 C1100 1.384 . S
C1102 C1103 1.372 . S
C1103 C1102 1.372 . S
C1103 C1104 1.400 . S
C1103 C1108 1.490 . S
C1104 H1094 0.930 . S
C1104 C1103 1.400 . S
C1104 C1107 1.386 . S
H1105 C1121 0.930 . S
H1106 C1122 0.931 . S
C1107 H1095 0.929 . S
C1107 C1101 1.390 . S
C1107 C1104 1.386 . S
C1108 C1103 1.490 . S
C1108 C1110 1.395 . S
C1108 C1111 1.403 . S
H1109 C1115 0.930 . S
C1110 H1096 0.930 . S
C1110 C1108 1.395 . S
C1110 C1113 1.403 . S
C1111 C1108 1.403 . S
C1111 C1112 1.524 . S
C1111 C1115 1.400 . S
C1112 H1097 0.960 . S
C1112 H1098 0.960 . S
C1112 H1099 0.960 . S
C1112 C1111 1.524 . S
C1113 C1110 1.403 . S
C1113 C1114 1.392 . S
C1113 C1117 1.495 . S
C1114 C1113 1.392 . S
C1114 C1115 1.385 . S
C1114 C1116 1.478 . S
C1115 H1109 0.930 . S
C1115 C1111 1.400 . S
C1115 C1114 1.385 . S
C1116 C1114 1.478 . S
C1116 C1118 1.381 . S
C1116 C1122 1.383 . S
C1117 C1113 1.495 . S
C1117 H1123 0.959 . S
C1117 H1124 0.961 . S
C1117 H1125 0.960 . S
C1118 C1116 1.381 . S
C1118 C1119 1.394 . S
C1118 H1126 0.930 . S
C1119 C1118 1.394 . S
C1119 C1120 1.383 . S
C1119 H1127 0.929 . S
C1120 C1119 1.383 . S
C1120 C1121 1.377 . S
C1121 H1105 0.930 . S
C1121 C1120 1.377 . S
C1121 C1122 1.379 . S
C1122 H1106 0.931 . S
C1122 C1116 1.383 . S
C1122 C1121 1.379 . S
H1123 C1117 0.959 . S
H1124 C1117 0.961 . S
H1125 C1117 0.960 . S
H1126 C1118 0.930 . S
H1127 C1119 0.929 . S
C273 N80 1.970 . S
C292 C106 1.978 1_545 S
C328 C146 2.090 . S
C309 N93 2.089 . S
C364 C210 1.763 . S
C345 N54 1.740 . S
C400 C226 1.427 . S
C381 N67 1.384 . S
C436 C127 1.977 1_565 S
C417 N28 1.976 . S
C453 N41 2.097 . S
C472 C167 2.088 . S
C489 N2 1.745 . S
C508 C201 1.762 1_554 S
C525 N15 1.391 . S
C544 C247 1.449 . S
C580 C121 0.307 1_655 S
C561 N70 0.213 . S
C616 C161 0.551 . S
C597 N83 0.510 . S
C652 C197 0.470 . S
C633 N96 0.361 . S
C669 N57 0.342 . S
C688 C241 0.443 . S
C705 N18 0.209 . S
C724 C130 0.325 . S
C760 C170 0.580 1_554 S
C741 N31 0.515 . S
C796 C208 0.519 . S
C777 N44 0.373 . S
C813 N5 0.342 . S
C832 C250 0.418 . S
C849 N66 1.848 . S
C868 C128 1.894 . S
C885 N79 1.888 . S
C904 C168 1.920 . S
C940 C186 1.519 . S
C921 N92 1.536 . S
C976 C248 2.265 . S
C957 N53 2.194 . S
C993 N14 1.853 . S
C1012 C117 1.898 . S
C1048 C157 1.916 . S
C1029 N27 1.878 . S
C1084 C207 1.479 . S
C1065 N40 1.546 . S
C1101 N1 2.202 . S
C1120 C237 2.267 . S
