# Generated by pormake.
# Topology tsx, (6,3)-cn, num edge types: 1
# Building blocks:
#     Node 0, Type 0, BuildingBlock: VOLQOD_clean_sbu_1, # of connection points: 6
#     Node 1, Type 0, BuildingBlock: VOLQOD_clean_sbu_1, # of connection points: 6
#     Node 2, Type 1, BuildingBlock: INOVEN_clean_linker_0, # of connection points: 3
#     Node 3, Type 1, BuildingBlock: INOVEN_clean_linker_0, # of connection points: 3
#     Node 4, Type 1, BuildingBlock: INOVEN_clean_linker_0, # of connection points: 3
#     Node 5, Type 1, BuildingBlock: INOVEN_clean_linker_0, # of connection points: 3
#     Edge 6, Type (0, 1), BuildingBlock: UVAHIK_clean_linker_0, # of connection points: 2
#     Edge 7, Type (0, 1), BuildingBlock: UVAHIK_clean_linker_0, # of connection points: 2
#     Edge 8, Type (0, 1), BuildingBlock: UVAHIK_clean_linker_0, # of connection points: 2
#     Edge 9, Type (0, 1), BuildingBlock: UVAHIK_clean_linker_0, # of connection points: 2
#     Edge 10, Type (0, 1), BuildingBlock: UVAHIK_clean_linker_0, # of connection points: 2
#     Edge 11, Type (0, 1), BuildingBlock: UVAHIK_clean_linker_0, # of connection points: 2
#     Edge 12, Type (0, 1), BuildingBlock: UVAHIK_clean_linker_0, # of connection points: 2
#     Edge 13, Type (0, 1), BuildingBlock: UVAHIK_clean_linker_0, # of connection points: 2
#     Edge 14, Type (0, 1), BuildingBlock: UVAHIK_clean_linker_0, # of connection points: 2
#     Edge 15, Type (0, 1), BuildingBlock: UVAHIK_clean_linker_0, # of connection points: 2
#     Edge 16, Type (0, 1), BuildingBlock: UVAHIK_clean_linker_0, # of connection points: 2
#     Edge 17, Type (0, 1), BuildingBlock: UVAHIK_clean_linker_0, # of connection points: 2
# Relax obj value: 0.049
# Max RMSD: 0.108
# Mean RMSD: 0.097
data_MOF--net-tsx--node1-VOLQOD_clean_sbu_1--node2-INOVEN_clean_linker_0--edge1-UVAHIK_clean_linker_0
_symmetry_space_group_name_H-M    P1
_symmetry_Int_Tables_number       1
_symmetry_cell_setting            triclinic
loop_
_symmetry_equiv_pos_as_xyz
'x, y, z'
_cell_length_a     27.118481
_cell_length_b     28.09785
_cell_length_c     48.33733
_cell_angle_alpha  90.228126
_cell_angle_beta   97.863795
_cell_angle_gamma 90.434672
loop_
_atom_site_label
_atom_site_type_symbol
_atom_site_fract_x
_atom_site_fract_y
_atom_site_fract_z
_atom_type_partial_charge
O0 O 0.04601 -0.00087 0.07054 0.0
Zn1 Zn 0.06138 -0.00433 0.03104 0.0
O2 O 0.00173 0.00444 0.00399 0.0
Zn3 Zn 0.98993 0.94753 0.98036 0.0
Zn4 Zn 0.94471 0.01487 0.0239 0.0
Zn5 Zn 0.01101 0.05995 0.9809 0.0
O6 O 0.99008 0.96407 0.93981 0.0
O7 O 0.00452 0.04201 0.94022 0.0
O8 O 0.09332 0.93285 0.02546 0.0
O9 O 0.04402 0.89919 0.99026 0.0
O10 O 0.92409 0.91624 0.98461 0.0
O11 O 0.89299 0.96385 0.01453 0.0
O12 O 0.91288 0.07832 0.01455 0.0
O13 O 0.11268 0.04596 0.02687 0.0
O14 O 0.96025 0.11007 0.98537 0.0
O15 O 0.0785 0.09022 0.99157 0.0
C16 C 0.00611 0.00658 0.08098 0.0
C17 C -0.00358 0.00277 0.92705 0.0
C18 C 0.88963 0.92703 -0.00107 0.0
C19 C 0.08258 0.89832 0.00854 0.0
C20 C 0.92362 0.11254 -0.0008 0.0
C21 C 0.11474 0.08083 0.01034 0.0
O22 O 0.96491 0.01327 0.06548 0.0
O23 O 0.5454 0.50069 0.57212 0.0
Zn24 Zn 0.55712 0.50013 0.53178 0.0
O25 O 0.49579 0.51075 0.50629 0.0
Zn26 Zn 0.48163 0.45512 0.48196 0.0
Zn27 Zn 0.44152 0.51998 0.52824 0.0
Zn28 Zn 0.50255 0.56754 0.48358 0.0
O29 O 0.48058 0.47304 0.44162 0.0
O30 O 0.49576 0.55083 0.44258 0.0
O31 O 0.58837 0.43796 0.52394 0.0
O32 O 0.53482 0.4056 0.49015 0.0
O33 O 0.41584 0.42472 0.48677 0.0
O34 O 0.38956 0.46883 0.51995 0.0
O35 O 0.40812 0.58238 0.51982 0.0
O36 O 0.60732 0.55117 0.5271 0.0
O37 O 0.45022 0.61631 0.48882 0.0
O38 O 0.56986 0.5983 0.49404 0.0
C39 C 0.5072 0.51016 0.58373 0.0
C40 C 0.48711 0.51193 0.42911 0.0
C41 C 0.38373 0.43392 0.50292 0.0
C42 C 0.57516 0.40395 0.50702 0.0
C43 C 0.41534 0.61706 0.50399 0.0
C44 C 0.6076 0.58757 0.51152 0.0
O45 O 0.46547 0.51928 0.56938 0.0
H46 H 0.03031 0.0027 0.4608 0.0
H47 H 0.07978 0.95175 0.38518 0.0
H48 H 0.97285 0.06414 0.38161 0.0
N49 N 0.96709 0.06626 0.43694 0.0
N50 N 0.94197 0.0985 0.42438 0.0
C51 C 0.02972 0.00457 0.43836 0.0
C52 C 0.05879 0.97331 0.42479 0.0
C53 C -0.00127 0.03743 0.42296 0.0
C54 C -0.00255 0.03945 0.39376 0.0
C55 C 0.02619 0.00831 0.37997 0.0
C56 C 0.05679 0.9754 0.39565 0.0
H57 H 0.99257 0.97471 0.54849 0.0
H58 H 0.96263 0.91779 0.62699 0.0
H59 H 0.03833 0.05239 0.6246 0.0
N60 N 0.03641 0.05379 0.56859 0.0
N61 N 0.04837 0.0938 0.57868 0.0
C62 C 0.99486 0.97754 0.57101 0.0
C63 C 0.97569 0.94107 0.58624 0.0
C64 C 0.01692 0.0179 0.58466 0.0
C65 C 0.02026 0.02165 0.61393 0.0
C66 C 0.00146 0.98528 0.6295 0.0
C67 C 0.97907 0.94523 0.61538 0.0
H68 H 0.54556 0.50557 0.96478 0.0
H69 H 0.60757 0.472 0.88989 0.0
H70 H 0.47261 0.55266 0.8852 0.0
N71 N 0.47086 0.55739 0.94063 0.0
N72 N 0.44366 0.58853 0.92838 0.0
C73 C 0.54398 0.50734 0.94228 0.0
C74 C 0.58092 0.48556 0.92906 0.0
C75 C 0.50584 0.53288 0.92662 0.0
C76 C 0.50337 0.53465 0.89735 0.0
C77 C 0.53963 0.5124 0.88372 0.0
C78 C 0.57876 0.48869 0.89994 0.0
H79 H 0.49731 0.47042 0.05209 0.0
H80 H 0.46062 0.42004 0.13068 0.0
H81 H 0.54087 0.55193 0.12704 0.0
N82 N 0.54241 0.54948 0.07126 0.0
N83 N 0.55487 0.58986 0.0806 0.0
C84 C 0.49822 0.47479 0.07445 0.0
C85 C 0.47691 0.44002 0.08995 0.0
C86 C 0.52077 0.51538 0.08761 0.0
C87 C 0.52243 0.52108 0.1167 0.0
C88 C 0.50154 0.48639 0.13257 0.0
C89 C 0.47862 0.44615 0.11889 0.0
C90 C 0.16026 0.15455 -0.00134 0.0
C91 C 0.15944 0.11195 0.01377 0.0
C92 C 0.20106 0.1856 0.00356 0.0
C93 C 0.30161 0.2178 0.05923 0.0
H94 H 0.35175 0.29243 0.00161 0.0
C95 C 0.45905 0.35262 0.08788 0.0
C96 C 0.45099 0.39797 0.07612 0.0
C97 C 0.42997 0.31389 0.0772 0.0
C98 C 0.338 0.27191 0.01791 0.0
H99 H 0.20201 0.06744 0.04484 0.0
H100 H 0.27321 0.1213 0.05311 0.0
H101 H 0.28817 0.23113 0.98851 0.0
H102 H 0.40801 0.43805 0.04314 0.0
H103 H 0.35655 0.37041 0.02461 0.0
H104 H 0.35015 0.25901 0.08867 0.0
C105 C 0.24191 0.13115 0.03788 0.0
C106 C 0.30162 0.23688 0.01042 0.0
C107 C 0.20112 0.10022 0.03306 0.0
C108 C 0.41514 0.40337 0.05249 0.0
C109 C 0.38577 0.36462 0.04188 0.0
C110 C 0.33782 0.25268 0.06668 0.0
C111 C 0.24191 0.17463 0.02362 0.0
C112 C 0.28276 0.20973 0.03105 0.0
C113 C 0.39194 0.31976 0.05464 0.0
C114 C 0.35617 0.28042 0.04616 0.0
H115 H 0.1288 0.16465 0.9836 0.0
H116 H 0.19972 0.21903 0.99241 0.0
H117 H 0.28717 0.19823 0.07567 0.0
H118 H 0.48708 0.34737 0.10583 0.0
H119 H 0.43638 0.27955 0.0871 0.0
C120 C 0.16516 0.86133 0.02463 0.0
C121 C 0.11784 0.85834 0.00863 0.0
C122 C 0.20103 0.8269 0.02188 0.0
C123 C 0.22293 0.70701 0.99499 0.0
H124 H 0.34493 0.76332 0.97599 0.0
C125 C 0.39469 0.60062 0.96738 0.0
C126 C 0.40847 0.61419 0.94148 0.0
C127 C 0.3598 0.6274 0.97947 0.0
C128 C 0.31124 0.74714 0.98151 0.0
H129 H 0.07001 0.815 0.97865 0.0
H130 H 0.13278 0.75478 0.97398 0.0
H131 H 0.28174 0.81427 0.99174 0.0
H132 H 0.39717 0.66502 0.90797 0.0
H133 H 0.3371 0.71267 0.92935 0.0
H134 H 0.25246 0.63984 0.98404 0.0
C135 C 0.142 0.78387 0.98859 0.0
C136 C 0.27527 0.77617 0.9907 0.0
C137 C 0.1062 0.81856 0.99114 0.0
C138 C 0.38701 0.65438 0.92796 0.0
C139 C 0.35298 0.68152 0.94021 0.0
C140 C 0.2594 0.67779 0.98616 0.0
C141 C 0.19019 0.78853 0.0033 0.0
C142 C 0.23033 0.75655 0.99697 0.0
C143 C 0.33916 0.66836 0.96607 0.0
C144 C 0.30327 0.69786 0.97873 0.0
H145 H 0.17534 0.89132 0.03844 0.0
H146 H 0.23779 0.83105 0.03366 0.0
H147 H 0.18863 0.69106 -0.00022 0.0
H148 H 0.41061 0.56945 0.97814 0.0
H149 H 0.34958 0.61666 -0.00056 0.0
C150 C 0.81028 0.90417 0.01657 0.0
C151 C 0.84605 0.8949 -0.0012 0.0
C152 C 0.7716 0.87193 0.01854 0.0
C153 C 0.74193 0.74474 0.00885 0.0
H154 H 0.61314 0.78514 0.02621 0.0
C155 C 0.59573 0.6115 0.03971 0.0
C156 C 0.57828 0.62366 0.06491 0.0
C157 C 0.62204 0.64492 0.02597 0.0
C158 C 0.64889 0.77337 0.02127 0.0
H159 H 0.86768 0.84542 0.96812 0.0
H160 H 0.79951 0.78937 0.97129 0.0
H161 H 0.67067 0.84384 0.01123 0.0
H162 H 0.57309 0.67954 0.09503 0.0
H163 H 0.61872 0.73838 0.07098 0.0
H164 H 0.72036 0.67439 0.01944 0.0
C165 C 0.80205 0.82125 0.98408 0.0
C166 C 0.6819 0.80693 0.01278 0.0
C167 C 0.84099 0.85349 0.98218 0.0
C168 C 0.58617 0.6698 0.0756 0.0
C169 C 0.61194 0.70333 0.06176 0.0
C170 C 0.70872 0.71112 0.01712 0.0
C171 C 0.76744 0.82968 0.00268 0.0
C172 C 0.72943 0.79324 0.00732 0.0
C173 C 0.63079 0.69103 0.03704 0.0
C174 C 0.6625 0.72535 0.0242 0.0
H175 H 0.81294 0.93568 0.02969 0.0
H176 H 0.74615 0.8793 0.03342 0.0
H177 H 0.77839 0.73296 0.00513 0.0
H178 H 0.59018 0.57599 0.031 0.0
H179 H 0.63602 0.6346 0.00689 0.0
C180 C 0.90817 0.19658 0.98367 0.0
C181 C 0.89285 0.15597 0.99718 0.0
C182 C 0.87848 0.23706 0.98083 0.0
C183 C 0.77109 0.29592 0.00644 0.0
H184 H 0.75718 0.35522 0.93354 0.0
C185 C 0.61017 0.42136 0.96301 0.0
C186 C 0.62129 0.45795 0.9451 0.0
C187 C 0.64718 0.3896 0.97399 0.0
C188 C 0.76128 0.33971 0.9542 0.0
H189 H 0.83478 0.12648 0.01892 0.0
H190 H 0.78235 0.19683 0.01335 0.0
H191 H 0.8141 0.28942 0.94341 0.0
H192 H 0.68026 0.49301 0.92669 0.0
H193 H 0.745 0.43807 0.94612 0.0
H194 H 0.71683 0.34579 0.01677 0.0
C195 C 0.81775 0.19762 0.00536 0.0
C196 C 0.79396 0.30189 0.95986 0.0
C197 C 0.84766 0.15716 0.00837 0.0
C198 C 0.67064 0.46453 0.94008 0.0
C199 C 0.70758 0.43303 0.95112 0.0
C200 C 0.73812 0.33383 0.0007 0.0
C201 C 0.83255 0.23781 0.99123 0.0
C202 C 0.79915 0.27938 0.98598 0.0
C203 C 0.69584 0.39414 0.96727 0.0
C204 C 0.7328 0.35598 0.97446 0.0
H205 H 0.94306 0.19712 0.97511 0.0
H206 H 0.89142 0.26774 0.9703 0.0
H207 H 0.77464 0.27963 0.02687 0.0
H208 H 0.5723 0.41551 0.9671 0.0
H209 H 0.63696 0.35988 0.98629 0.0
C210 C 0.65216 0.66196 0.50004 0.0
C211 C 0.65247 0.6184 0.51427 0.0
C212 C 0.69369 0.69221 0.50402 0.0
C213 C 0.80075 0.71974 0.55654 0.0
H214 H 0.84418 0.79719 0.49802 0.0
C215 C 0.95966 0.8535 0.58243 0.0
C216 C 0.94979 0.89946 0.57194 0.0
C217 C 0.93028 0.81499 0.5717 0.0
C218 C 0.83237 0.77582 0.51456 0.0
H219 H 0.69756 0.57146 0.54282 0.0
H220 H 0.76995 0.62397 0.54951 0.0
H221 H 0.77883 0.73712 0.48615 0.0
H222 H 0.90345 0.94099 0.54105 0.0
H223 H 0.85147 0.87377 0.5225 0.0
H224 H 0.85291 0.75897 0.58506 0.0
C225 C 0.73729 0.63514 0.53568 0.0
C226 C 0.79498 0.74152 0.50778 0.0
C227 C 0.6958 0.60501 0.53178 0.0
C228 C 0.91195 0.90582 0.54939 0.0
C229 C 0.88229 0.8673 0.53875 0.0
C230 C 0.83797 0.7539 0.56329 0.0
C231 C 0.73638 0.67944 0.52226 0.0
C232 C 0.77843 0.71349 0.52878 0.0
C233 C 0.89019 0.82175 0.55041 0.0
C234 C 0.85387 0.78269 0.54246 0.0
H235 H 0.61943 0.67331 0.48634 0.0
H236 H 0.69165 0.72633 0.4936 0.0
H237 H 0.7882 0.69941 0.57328 0.0
H238 H 0.9892 0.8476 0.59952 0.0
H239 H 0.93797 0.78013 0.58069 0.0
C240 C 0.5936 0.32305 0.4893 0.0
C241 C 0.60932 0.36361 0.50529 0.0
C242 C 0.62758 0.28774 0.48474 0.0
C243 C 0.71166 0.2432 0.4595 0.0
H244 H 0.8275 0.20992 0.51188 0.0
C245 C 0.88363 0.16326 0.42177 0.0
C246 C 0.90774 0.1261 0.4371 0.0
C247 C 0.84676 0.18909 0.43244 0.0
C248 C 0.79508 0.21842 0.49711 0.0
H249 H 0.67251 0.39767 0.5303 0.0
H250 H 0.73191 0.33689 0.5217 0.0
H251 H 0.76134 0.25696 0.52782 0.0
H252 H 0.91332 0.08671 0.47593 0.0
H253 H 0.84816 0.13162 0.49461 0.0
H254 H 0.74486 0.20441 0.42889 0.0
C255 C 0.69323 0.33181 0.51305 0.0
C256 C 0.7574 0.24574 0.50617 0.0
C257 C 0.65916 0.36688 0.51784 0.0
C258 C 0.89531 0.1155 0.46372 0.0
C259 C 0.85813 0.14126 0.47441 0.0
C260 C 0.74908 0.2158 0.45052 0.0
C261 C 0.67812 0.29247 0.49581 0.0
C262 C 0.71564 0.25913 0.48732 0.0
C263 C 0.83293 0.17788 0.45866 0.0
C264 C 0.79171 0.20395 0.46904 0.0
H265 H 0.5553 0.31914 0.47965 0.0
H266 H 0.61447 0.25734 0.47189 0.0
H267 H 0.68043 0.25328 0.4443 0.0
H268 H 0.89296 0.17179 0.40127 0.0
H269 H 0.8289 0.21776 0.42004 0.0
C270 C 0.33165 0.36369 0.48415 0.0
C271 C 0.33967 0.40246 0.50275 0.0
C272 C 0.29187 0.33222 0.48547 0.0
C273 C 0.17407 0.31691 0.51619 0.0
H274 H 0.20777 0.18305 0.51604 0.0
C275 C 0.07878 0.17443 0.57537 0.0
C276 C 0.06996 0.12933 0.56332 0.0
C277 C 0.1037 0.20929 0.56204 0.0
C278 C 0.19736 0.22021 0.51558 0.0
H279 H 0.31109 0.43945 0.53667 0.0
H280 H 0.24272 0.38426 0.53933 0.0
H281 H 0.2667 0.24196 0.50315 0.0
H282 H 0.07876 0.08509 0.52739 0.0
H283 H 0.12292 0.14605 0.5041 0.0
H284 H 0.10568 0.29502 0.53 0.0
C285 C 0.26653 0.37847 0.5234 0.0
C286 C 0.23112 0.25402 0.50816 0.0
C287 C 0.3061 0.40995 0.52203 0.0
C288 C 0.08515 0.11973 0.53718 0.0
C289 C 0.1105 0.1545 0.5239 0.0
C290 C 0.14046 0.2831 0.52378 0.0
C291 C 0.25935 0.33883 0.50543 0.0
C292 C 0.22045 0.30285 0.50914 0.0
C293 C 0.12063 0.19939 0.53642 0.0
C294 C 0.15238 0.23453 0.52427 0.0
H295 H 0.35657 0.3571 0.46888 0.0
H296 H 0.28697 0.30235 0.4711 0.0
H297 H 0.1643 0.35419 0.51659 0.0
H298 H 0.0674 0.18219 0.59552 0.0
H299 H 0.11158 0.24332 0.57237 0.0
C300 C 0.34268 0.65921 0.51934 0.0
C301 C 0.38142 0.65823 0.50274 0.0
C302 C 0.30858 0.69639 0.51696 0.0
C303 C 0.28591 0.8182 0.48962 0.0
H304 H 0.14716 0.77901 0.48104 0.0
C305 C 0.09007 0.89044 0.43153 0.0
C306 C 0.09113 0.93794 0.44069 0.0
C307 C 0.12375 0.85771 0.44463 0.0
C308 C 0.18574 0.79052 0.48358 0.0
H309 H 0.41571 0.69656 0.47135 0.0
H310 H 0.35575 0.76122 0.467 0.0
H311 H 0.21198 0.72026 0.4934 0.0
H312 H 0.12686 0.98833 0.47122 0.0
H313 H 0.1864 0.93078 0.49422 0.0
H314 H 0.25947 0.88814 0.47858 0.0
C315 C 0.35211 0.73339 0.48204 0.0
C316 C 0.22286 0.75699 0.49088 0.0
C317 C 0.38626 0.69614 0.48439 0.0
C318 C 0.12531 0.95181 0.46386 0.0
C319 C 0.15947 0.91907 0.47684 0.0
C320 C 0.24871 0.85182 0.48244 0.0
C321 C 0.31245 0.73346 0.49797 0.0
C322 C 0.27336 0.77025 0.49335 0.0
C323 C 0.15941 0.87187 0.46707 0.0
C324 C 0.19831 0.83802 0.47868 0.0
H325 H 0.33806 0.63082 0.53388 0.0
H326 H 0.27877 0.69581 0.52977 0.0
H327 H 0.32452 0.82951 0.49169 0.0
H328 H 0.06376 0.87884 0.41384 0.0
H329 H 0.12314 0.82173 0.43645 0.0
C330 C 0.96338 0.01051 0.12374 0.0
C331 C 0.00765 0.00768 0.11171 0.0
C332 C 0.9648 0.01147 0.15272 0.0
C333 C 0.04668 0.03962 0.21781 0.0
H334 H 0.95477 0.96013 0.25222 0.0
C335 C 0.01897 0.96659 0.33372 0.0
C336 C 0.02339 0.00925 0.34915 0.0
C337 C 0.0162 0.96728 0.30468 0.0
C338 C 0.98077 0.98239 0.2429 0.0
H339 H 0.08817 0.00392 0.12078 0.0
H340 H 0.09051 0.00564 0.17138 0.0
H341 H 0.95201 0.95938 0.20152 0.0
H342 H 0.02867 0.08605 0.34635 0.0
H343 H 0.02369 0.08729 0.29545 0.0
H344 H 0.07577 0.06224 0.25923 0.0
C345 C 0.05477 0.00736 0.15832 0.0
C346 C 0.97889 0.98228 0.21389 0.0
C347 C 0.05337 0.00607 0.12933 0.0
C348 C 0.02498 0.05266 0.33495 0.0
C349 C 0.02256 0.05333 0.30589 0.0
C350 C 0.04832 0.03998 0.24682 0.0
C351 C 0.0105 0.00996 0.1703 0.0
C352 C 0.01198 0.01073 0.20106 0.0
C353 C 0.01806 0.01064 0.29047 0.0
C354 C 0.01555 0.01117 0.25966 0.0
H355 H 0.92751 0.01184 0.11079 0.0
H356 H 0.93011 0.01394 0.16139 0.0
H357 H 0.07234 0.06222 0.20846 0.0
H358 H 0.01717 0.93264 0.34409 0.0
H359 H 0.01319 0.9338 0.29336 0.0
C360 C 0.99393 0.04463 0.88116 0.0
C361 C -0.00444 0.00198 0.89636 0.0
C362 C 0.99425 0.04389 0.85228 0.0
C363 C 0.97269 0.9636 0.7905 0.0
H364 H 0.04764 0.06006 0.75648 0.0
C365 C 0.01391 0.94856 0.67719 0.0
C366 C 0.00422 0.98908 0.66038 0.0
C367 C 0.01353 0.95123 0.70599 0.0
C368 C 0.02627 0.03314 0.7657 0.0
H369 H -0.00092 0.92508 0.89309 0.0
H370 H 0.00091 0.92382 0.84294 0.0
H371 H 0.04512 0.06229 0.80675 0.0
H372 H 0.98741 0.06446 0.6609 0.0
H373 H 0.98787 0.06922 0.7114 0.0
H374 H 0.95476 0.93398 0.74946 0.0
C375 C -0.00181 0.95786 0.85317 0.0
C376 C 0.02463 0.03446 0.79447 0.0
C377 C -0.0026 0.95858 0.882 0.0
C378 C -0.0044 0.03269 0.67323 0.0
C379 C -0.00431 0.03543 0.70213 0.0
C380 C 0.97475 0.96204 0.76181 0.0
C381 C -0.00335 0.0005 0.83793 0.0
C382 C -0.00212 -0.00037 0.80725 0.0
C383 C 0.00397 0.99456 0.71872 0.0
C384 C 0.00164 -0.00329 0.74914 0.0
H385 H 0.99219 0.07869 0.89155 0.0
H386 H 0.99217 0.07737 0.84118 0.0
H387 H 0.95089 0.93677 0.79948 0.0
H388 H 0.02178 0.91464 0.66809 0.0
H389 H 0.02087 0.91935 0.71836 0.0
C390 C 0.47901 0.53956 0.62773 0.0
C391 C 0.51129 0.51122 0.61449 0.0
C392 C 0.48283 0.54097 0.65682 0.0
C393 C 0.56777 0.50858 0.72144 0.0
H394 H 0.44813 0.52562 0.75602 0.0
C395 C 0.55198 0.47385 0.83808 0.0
C396 C 0.53646 0.51329 0.85268 0.0
C397 C 0.54971 0.47475 0.80906 0.0
C398 C 0.48178 0.52109 0.74654 0.0
H399 H 0.57239 0.46153 0.62118 0.0
H400 H 0.57753 0.46189 0.67187 0.0
H401 H 0.44227 0.52327 0.70525 0.0
H402 H 0.50636 0.58471 0.84776 0.0
H403 H 0.50007 0.58494 0.79687 0.0
H404 H 0.60656 0.50412 0.76311 0.0
C405 C 0.5504 0.48455 0.65998 0.0
C406 C 0.47863 0.52005 0.71746 0.0
C407 C 0.54728 0.48401 0.63088 0.0
C408 C 0.51784 0.55334 0.83733 0.0
C409 C 0.51454 0.55373 0.80822 0.0
C410 C 0.57066 0.50855 0.75052 0.0
C411 C 0.51831 0.51319 0.6734 0.0
C412 C 0.52164 0.51398 0.70446 0.0
C413 C 0.53077 0.51457 0.79394 0.0
C414 C 0.52773 0.515 0.76324 0.0
H415 H 0.45125 0.56135 0.61561 0.0
H416 H 0.45823 0.56436 0.66624 0.0
H417 H 0.60188 0.50485 0.71236 0.0
H418 H 0.56535 0.44187 0.84896 0.0
H419 H 0.56191 0.44395 0.79835 0.0
C420 C 0.48676 0.46808 0.38388 0.0
C421 C 0.48627 0.51147 0.3984 0.0
C422 C 0.48778 0.4674 0.35509 0.0
C423 C 0.5178 0.54272 0.29668 0.0
H424 H 0.44611 0.44336 0.25158 0.0
C425 C 0.49499 0.53652 0.17524 0.0
C426 C 0.5029 0.49195 0.1633 0.0
C427 C 0.49356 0.54086 0.20398 0.0
C428 C 0.46657 0.47113 0.26395 0.0
H429 H 0.48566 0.58827 0.39388 0.0
H430 H 0.4861 0.58707 0.34347 0.0
H431 H 0.44032 0.44769 0.30134 0.0
H432 H 0.51784 0.41746 0.1725 0.0
H433 H 0.51425 0.42496 0.22239 0.0
H434 H 0.54333 0.56642 0.25892 0.0
C435 C 0.48683 0.55352 0.35447 0.0
C436 C 0.46341 0.47357 0.2925 0.0
C437 C 0.48624 0.55421 0.38336 0.0
C438 C 0.51049 0.45211 0.18086 0.0
C439 C 0.50857 0.45638 0.20946 0.0
C440 C 0.52055 0.54054 0.26801 0.0
C441 C 0.48783 0.51009 0.33998 0.0
C442 C 0.48944 0.50904 0.30932 0.0
C443 C 0.49956 0.50066 0.22126 0.0
C444 C 0.49541 0.50437 0.25145 0.0
H445 H 0.48723 0.43448 0.39482 0.0
H446 H 0.48948 0.43329 0.34477 0.0
H447 H 0.53888 0.57014 0.30902 0.0
H448 H 0.48848 0.56784 0.16232 0.0
H449 H 0.48628 0.57538 0.21254 0.0
loop_
_geom_bond_atom_site_label_1
_geom_bond_atom_site_label_2
_geom_bond_distance
_geom_bond_site_symmetry_2
_ccdc_geom_bond_type
O0 Zn1 1.953 1_565 S
O0 C16 1.225 1_565 S
Zn1 O0 1.953 1_545 S
Zn1 O2 1.949 . S
Zn1 O8 1.919 1_545 S
Zn1 O13 1.924 . S
O2 Zn1 1.949 . S
O2 Zn3 1.923 1_444 S
O2 Zn4 1.950 1_455 S
O2 Zn5 1.945 1_554 S
Zn3 O2 1.923 1_666 S
Zn3 O6 1.933 . S
Zn3 O9 1.941 1_655 S
Zn3 O10 1.965 . S
Zn4 O2 1.950 1_655 S
Zn4 O11 1.938 1_545 S
Zn4 O12 1.906 . S
Zn4 O22 1.953 . S
Zn5 O2 1.945 1_556 S
Zn5 O7 1.932 . S
Zn5 O14 1.977 1_455 S
Zn5 O15 1.910 . S
O6 Zn3 1.933 . S
O6 C17 1.226 1_665 S
O7 Zn5 1.932 . S
O7 C17 1.307 . S
O8 Zn1 1.919 1_565 S
O8 C19 1.253 . S
O9 Zn3 1.941 1_455 S
O9 C19 1.283 1_556 S
O10 Zn3 1.965 . S
O10 C18 1.303 1_556 S
O11 Zn4 1.938 1_565 S
O11 C18 1.247 . S
O12 Zn4 1.906 . S
O12 C20 1.304 1_554 S
O13 Zn1 1.924 . S
O13 C21 1.311 . S
O14 Zn5 1.977 1_655 S
O14 C20 1.272 . S
O15 Zn5 1.910 . S
O15 C21 1.231 1_556 S
C16 O0 1.225 1_545 S
C16 O22 1.298 1_455 S
C17 O6 1.226 1_445 S
C17 O7 1.307 . S
C18 O10 1.303 1_554 S
C18 O11 1.247 . S
C19 O8 1.253 . S
C19 O9 1.283 1_554 S
C20 O12 1.304 1_556 S
C20 O14 1.272 . S
C21 O13 1.311 . S
C21 O15 1.231 1_554 S
O22 Zn4 1.953 . S
O22 C16 1.298 1_655 S
O23 Zn24 1.953 . S
O23 C39 1.225 . S
Zn24 O23 1.953 . S
Zn24 O25 1.949 . S
Zn24 O31 1.919 . S
Zn24 O36 1.924 . S
O25 Zn24 1.949 . S
O25 Zn26 1.923 . S
O25 Zn27 1.950 . S
O25 Zn28 1.945 . S
Zn26 O25 1.923 . S
Zn26 O29 1.933 . S
Zn26 O32 1.941 . S
Zn26 O33 1.965 . S
Zn27 O25 1.950 . S
Zn27 O34 1.938 . S
Zn27 O35 1.906 . S
Zn27 O45 1.953 . S
Zn28 O25 1.945 . S
Zn28 O30 1.932 . S
Zn28 O37 1.977 . S
Zn28 O38 1.910 . S
O29 Zn26 1.933 . S
O29 C40 1.226 . S
O30 Zn28 1.932 . S
O30 C40 1.307 . S
O31 Zn24 1.919 . S
O31 C42 1.253 . S
O32 Zn26 1.941 . S
O32 C42 1.283 . S
O33 Zn26 1.965 . S
O33 C41 1.303 . S
O34 Zn27 1.938 . S
O34 C41 1.247 . S
O35 Zn27 1.906 . S
O35 C43 1.304 . S
O36 Zn24 1.924 . S
O36 C44 1.311 . S
O37 Zn28 1.977 . S
O37 C43 1.272 . S
O38 Zn28 1.910 . S
O38 C44 1.231 . S
C39 O23 1.225 . S
C39 O45 1.298 . S
C40 O29 1.226 . S
C40 O30 1.307 . S
C41 O33 1.303 . S
C41 O34 1.247 . S
C42 O31 1.253 . S
C42 O32 1.283 . S
C43 O35 1.304 . S
C43 O37 1.272 . S
C44 O36 1.311 . S
C44 O38 1.231 . S
O45 Zn27 1.953 . S
O45 C39 1.298 . S
H46 C51 0.929 . S
H47 C56 0.931 . S
H48 C54 0.930 . S
N49 N50 1.234 . S
N49 C53 1.453 . S
N50 N49 1.234 . S
C51 H46 0.929 . S
C51 C52 1.373 . S
C51 C53 1.368 1_465 S
C52 C51 1.373 . S
C52 C56 1.397 . S
C53 N49 1.453 . S
C53 C51 1.368 1_645 S
C53 C54 1.373 . S
C54 H48 0.930 . S
C54 C53 1.373 . S
C54 C55 1.371 1_655 S
C55 C54 1.371 1_455 S
C55 C56 1.383 1_545 S
C56 H47 0.931 . S
C56 C52 1.397 . S
C56 C55 1.383 1_565 S
H57 C62 0.929 . S
H58 C67 0.931 . S
H59 C65 0.930 . S
N60 N61 1.234 . S
N60 C64 1.453 . S
N61 N60 1.234 . S
C62 H57 0.929 . S
C62 C63 1.373 . S
C62 C64 1.368 1_665 S
C63 C62 1.373 . S
C63 C67 1.397 . S
C64 N60 1.453 . S
C64 C62 1.368 1_445 S
C64 C65 1.373 . S
C65 H59 0.930 . S
C65 C64 1.373 . S
C65 C66 1.371 . S
C66 C65 1.371 . S
C66 C67 1.383 1_445 S
C67 H58 0.931 . S
C67 C63 1.397 . S
C67 C66 1.383 1_665 S
H68 C73 0.929 . S
H69 C78 0.931 . S
H70 C76 0.930 . S
N71 N72 1.234 . S
N71 C75 1.453 . S
N72 N71 1.234 . S
C73 H68 0.929 . S
C73 C74 1.373 . S
C73 C75 1.368 . S
C74 C73 1.373 . S
C74 C78 1.397 . S
C75 N71 1.453 . S
C75 C73 1.368 . S
C75 C76 1.373 . S
C76 H70 0.930 . S
C76 C75 1.373 . S
C76 C77 1.371 . S
C77 C76 1.371 . S
C77 C78 1.383 . S
C78 H69 0.931 . S
C78 C74 1.397 . S
C78 C77 1.383 . S
H79 C84 0.929 . S
H80 C89 0.931 . S
H81 C87 0.930 . S
N82 N83 1.234 . S
N82 C86 1.453 . S
N83 N82 1.234 . S
C84 H79 0.929 . S
C84 C85 1.373 . S
C84 C86 1.368 . S
C85 C84 1.373 . S
C85 C89 1.397 . S
C86 N82 1.453 . S
C86 C84 1.368 . S
C86 C87 1.373 . S
C87 H81 0.930 . S
C87 C86 1.373 . S
C87 C88 1.371 . S
C88 C87 1.371 . S
C88 C89 1.383 . S
C89 H80 0.931 . S
C89 C85 1.397 . S
C89 C88 1.383 . S
C90 C91 1.349 . S
C90 C92 1.327 . S
C90 H115 0.950 1_554 S
C91 C90 1.349 . S
C91 C107 1.349 . S
C92 C90 1.327 . S
C92 C111 1.429 . S
C92 H116 0.950 . S
C93 C110 1.574 . S
C93 C112 1.368 . S
C93 H117 0.949 . S
H94 C98 0.949 . S
C95 C96 1.349 . S
C95 C97 1.327 . S
C95 H118 0.950 . S
C96 C95 1.349 . S
C96 C108 1.349 . S
C97 C95 1.327 . S
C97 C113 1.429 . S
C97 H119 0.950 . S
C98 H94 0.949 . S
C98 C106 1.574 . S
C98 C114 1.368 . S
H99 C107 0.950 . S
H100 C105 0.950 . S
H101 C106 0.949 . S
H102 C108 0.950 . S
H103 C109 0.950 . S
H104 C110 0.949 . S
C105 H100 0.950 . S
C105 C107 1.327 . S
C105 C111 1.429 . S
C106 C98 1.574 . S
C106 H101 0.949 . S
C106 C112 1.368 . S
C107 C91 1.349 . S
C107 H99 0.950 . S
C107 C105 1.327 . S
C108 C96 1.349 . S
C108 H102 0.950 . S
C108 C109 1.327 . S
C109 H103 0.950 . S
C109 C108 1.327 . S
C109 C113 1.429 . S
C110 C93 1.574 . S
C110 H104 0.949 . S
C110 C114 1.368 . S
C111 C92 1.429 . S
C111 C105 1.429 . S
C111 C112 1.523 . S
C112 C93 1.368 . S
C112 C106 1.368 . S
C112 C111 1.523 . S
C113 C97 1.429 . S
C113 C109 1.429 . S
C113 C114 1.523 . S
C114 C98 1.368 . S
C114 C110 1.368 . S
C114 C113 1.523 . S
H115 C90 0.950 1_556 S
H116 C92 0.950 . S
H117 C93 0.949 . S
H118 C95 0.950 . S
H119 C97 0.950 . S
C120 C121 1.349 . S
C120 C122 1.327 . S
C120 H145 0.950 . S
C121 C120 1.349 . S
C121 C137 1.349 . S
C122 C120 1.327 . S
C122 C141 1.429 . S
C122 H146 0.950 . S
C123 C140 1.574 . S
C123 C142 1.368 . S
C123 H147 0.949 . S
H124 C128 0.949 . S
C125 C126 1.349 . S
C125 C127 1.327 . S
C125 H148 0.950 . S
C126 C125 1.349 . S
C126 C138 1.349 . S
C127 C125 1.327 . S
C127 C143 1.429 . S
C127 H149 0.950 . S
C128 H124 0.949 . S
C128 C136 1.574 . S
C128 C144 1.368 . S
H129 C137 0.950 . S
H130 C135 0.950 . S
H131 C136 0.949 . S
H132 C138 0.950 . S
H133 C139 0.950 . S
H134 C140 0.949 . S
C135 H130 0.950 . S
C135 C137 1.327 . S
C135 C141 1.429 . S
C136 C128 1.574 . S
C136 H131 0.949 . S
C136 C142 1.368 . S
C137 C121 1.349 . S
C137 H129 0.950 . S
C137 C135 1.327 . S
C138 C126 1.349 . S
C138 H132 0.950 . S
C138 C139 1.327 . S
C139 H133 0.950 . S
C139 C138 1.327 . S
C139 C143 1.429 . S
C140 C123 1.574 . S
C140 H134 0.949 . S
C140 C144 1.368 . S
C141 C122 1.429 . S
C141 C135 1.429 . S
C141 C142 1.523 . S
C142 C123 1.368 . S
C142 C136 1.368 . S
C142 C141 1.523 . S
C143 C127 1.429 . S
C143 C139 1.429 . S
C143 C144 1.523 . S
C144 C128 1.368 . S
C144 C140 1.368 . S
C144 C143 1.523 . S
H145 C120 0.950 . S
H146 C122 0.950 . S
H147 C123 0.949 . S
H148 C125 0.950 . S
H149 C127 0.950 . S
C150 C151 1.349 . S
C150 C152 1.327 . S
C150 H175 0.950 . S
C151 C150 1.349 . S
C151 C167 1.349 . S
C152 C150 1.327 . S
C152 C171 1.429 . S
C152 H176 0.950 . S
C153 C170 1.574 . S
C153 C172 1.368 . S
C153 H177 0.949 . S
H154 C158 0.949 . S
C155 C156 1.349 . S
C155 C157 1.327 . S
C155 H178 0.950 . S
C156 C155 1.349 . S
C156 C168 1.349 . S
C157 C155 1.327 . S
C157 C173 1.429 . S
C157 H179 0.950 . S
C158 H154 0.949 . S
C158 C166 1.574 . S
C158 C174 1.368 . S
H159 C167 0.950 . S
H160 C165 0.950 . S
H161 C166 0.949 . S
H162 C168 0.950 . S
H163 C169 0.950 . S
H164 C170 0.949 . S
C165 H160 0.950 . S
C165 C167 1.327 . S
C165 C171 1.429 . S
C166 C158 1.574 . S
C166 H161 0.949 . S
C166 C172 1.368 . S
C167 C151 1.349 . S
C167 H159 0.950 . S
C167 C165 1.327 . S
C168 C156 1.349 . S
C168 H162 0.950 . S
C168 C169 1.327 . S
C169 H163 0.950 . S
C169 C168 1.327 . S
C169 C173 1.429 . S
C170 C153 1.574 . S
C170 H164 0.949 . S
C170 C174 1.368 . S
C171 C152 1.429 . S
C171 C165 1.429 . S
C171 C172 1.523 . S
C172 C153 1.368 . S
C172 C166 1.368 . S
C172 C171 1.523 . S
C173 C157 1.429 . S
C173 C169 1.429 . S
C173 C174 1.523 . S
C174 C158 1.368 . S
C174 C170 1.368 . S
C174 C173 1.523 . S
H175 C150 0.950 . S
H176 C152 0.950 . S
H177 C153 0.949 . S
H178 C155 0.950 . S
H179 C157 0.950 . S
C180 C181 1.349 . S
C180 C182 1.327 . S
C180 H205 0.950 . S
C181 C180 1.349 . S
C181 C197 1.349 . S
C182 C180 1.327 . S
C182 C201 1.429 . S
C182 H206 0.950 . S
C183 C200 1.574 . S
C183 C202 1.368 . S
C183 H207 0.949 . S
H184 C188 0.949 . S
C185 C186 1.349 . S
C185 C187 1.327 . S
C185 H208 0.950 . S
C186 C185 1.349 . S
C186 C198 1.349 . S
C187 C185 1.327 . S
C187 C203 1.429 . S
C187 H209 0.950 . S
C188 H184 0.949 . S
C188 C196 1.574 . S
C188 C204 1.368 . S
H189 C197 0.950 1_554 S
H190 C195 0.950 . S
H191 C196 0.949 . S
H192 C198 0.950 . S
H193 C199 0.950 . S
H194 C200 0.949 . S
C195 H190 0.950 . S
C195 C197 1.327 . S
C195 C201 1.429 . S
C196 C188 1.574 . S
C196 H191 0.949 . S
C196 C202 1.368 . S
C197 C181 1.349 . S
C197 H189 0.950 1_556 S
C197 C195 1.327 . S
C198 C186 1.349 . S
C198 H192 0.950 . S
C198 C199 1.327 . S
C199 H193 0.950 . S
C199 C198 1.327 . S
C199 C203 1.429 . S
C200 C183 1.574 . S
C200 H194 0.949 . S
C200 C204 1.368 . S
C201 C182 1.429 . S
C201 C195 1.429 . S
C201 C202 1.523 . S
C202 C183 1.368 . S
C202 C196 1.368 . S
C202 C201 1.523 . S
C203 C187 1.429 . S
C203 C199 1.429 . S
C203 C204 1.523 . S
C204 C188 1.368 . S
C204 C200 1.368 . S
C204 C203 1.523 . S
H205 C180 0.950 . S
H206 C182 0.950 . S
H207 C183 0.949 . S
H208 C185 0.950 . S
H209 C187 0.950 . S
C210 C211 1.349 . S
C210 C212 1.327 . S
C210 H235 0.950 . S
C211 C210 1.349 . S
C211 C227 1.349 . S
C212 C210 1.327 . S
C212 C231 1.429 . S
C212 H236 0.950 . S
C213 C230 1.574 . S
C213 C232 1.368 . S
C213 H237 0.949 . S
H214 C218 0.949 . S
C215 C216 1.349 . S
C215 C217 1.327 . S
C215 H238 0.950 . S
C216 C215 1.349 . S
C216 C228 1.349 . S
C217 C215 1.327 . S
C217 C233 1.429 . S
C217 H239 0.950 . S
C218 H214 0.949 . S
C218 C226 1.574 . S
C218 C234 1.368 . S
H219 C227 0.950 . S
H220 C225 0.950 . S
H221 C226 0.949 . S
H222 C228 0.950 . S
H223 C229 0.950 . S
H224 C230 0.949 . S
C225 H220 0.950 . S
C225 C227 1.327 . S
C225 C231 1.429 . S
C226 C218 1.574 . S
C226 H221 0.949 . S
C226 C232 1.368 . S
C227 C211 1.349 . S
C227 H219 0.950 . S
C227 C225 1.327 . S
C228 C216 1.349 . S
C228 H222 0.950 . S
C228 C229 1.327 . S
C229 H223 0.950 . S
C229 C228 1.327 . S
C229 C233 1.429 . S
C230 C213 1.574 . S
C230 H224 0.949 . S
C230 C234 1.368 . S
C231 C212 1.429 . S
C231 C225 1.429 . S
C231 C232 1.523 . S
C232 C213 1.368 . S
C232 C226 1.368 . S
C232 C231 1.523 . S
C233 C217 1.429 . S
C233 C229 1.429 . S
C233 C234 1.523 . S
C234 C218 1.368 . S
C234 C230 1.368 . S
C234 C233 1.523 . S
H235 C210 0.950 . S
H236 C212 0.950 . S
H237 C213 0.949 . S
H238 C215 0.950 . S
H239 C217 0.950 . S
C240 C241 1.349 . S
C240 C242 1.327 . S
C240 H265 0.950 . S
C241 C240 1.349 . S
C241 C257 1.349 . S
C242 C240 1.327 . S
C242 C261 1.429 . S
C242 H266 0.950 . S
C243 C260 1.574 . S
C243 C262 1.368 . S
C243 H267 0.949 . S
H244 C248 0.949 . S
C245 C246 1.349 . S
C245 C247 1.327 . S
C245 H268 0.950 . S
C246 C245 1.349 . S
C246 C258 1.349 . S
C247 C245 1.327 . S
C247 C263 1.429 . S
C247 H269 0.950 . S
C248 H244 0.949 . S
C248 C256 1.574 . S
C248 C264 1.368 . S
H249 C257 0.950 . S
H250 C255 0.950 . S
H251 C256 0.949 . S
H252 C258 0.950 . S
H253 C259 0.950 . S
H254 C260 0.949 . S
C255 H250 0.950 . S
C255 C257 1.327 . S
C255 C261 1.429 . S
C256 C248 1.574 . S
C256 H251 0.949 . S
C256 C262 1.368 . S
C257 C241 1.349 . S
C257 H249 0.950 . S
C257 C255 1.327 . S
C258 C246 1.349 . S
C258 H252 0.950 . S
C258 C259 1.327 . S
C259 H253 0.950 . S
C259 C258 1.327 . S
C259 C263 1.429 . S
C260 C243 1.574 . S
C260 H254 0.949 . S
C260 C264 1.368 . S
C261 C242 1.429 . S
C261 C255 1.429 . S
C261 C262 1.523 . S
C262 C243 1.368 . S
C262 C256 1.368 . S
C262 C261 1.523 . S
C263 C247 1.429 . S
C263 C259 1.429 . S
C263 C264 1.523 . S
C264 C248 1.368 . S
C264 C260 1.368 . S
C264 C263 1.523 . S
H265 C240 0.950 . S
H266 C242 0.950 . S
H267 C243 0.949 . S
H268 C245 0.950 . S
H269 C247 0.950 . S
C270 C271 1.349 . S
C270 C272 1.327 . S
C270 H295 0.950 . S
C271 C270 1.349 . S
C271 C287 1.349 . S
C272 C270 1.327 . S
C272 C291 1.429 . S
C272 H296 0.950 . S
C273 C290 1.574 . S
C273 C292 1.368 . S
C273 H297 0.949 . S
H274 C278 0.949 . S
C275 C276 1.349 . S
C275 C277 1.327 . S
C275 H298 0.950 . S
C276 C275 1.349 . S
C276 C288 1.349 . S
C277 C275 1.327 . S
C277 C293 1.429 . S
C277 H299 0.950 . S
C278 H274 0.949 . S
C278 C286 1.574 . S
C278 C294 1.368 . S
H279 C287 0.950 . S
H280 C285 0.950 . S
H281 C286 0.949 . S
H282 C288 0.950 . S
H283 C289 0.950 . S
H284 C290 0.949 . S
C285 H280 0.950 . S
C285 C287 1.327 . S
C285 C291 1.429 . S
C286 C278 1.574 . S
C286 H281 0.949 . S
C286 C292 1.368 . S
C287 C271 1.349 . S
C287 H279 0.950 . S
C287 C285 1.327 . S
C288 C276 1.349 . S
C288 H282 0.950 . S
C288 C289 1.327 . S
C289 H283 0.950 . S
C289 C288 1.327 . S
C289 C293 1.429 . S
C290 C273 1.574 . S
C290 H284 0.949 . S
C290 C294 1.368 . S
C291 C272 1.429 . S
C291 C285 1.429 . S
C291 C292 1.523 . S
C292 C273 1.368 . S
C292 C286 1.368 . S
C292 C291 1.523 . S
C293 C277 1.429 . S
C293 C289 1.429 . S
C293 C294 1.523 . S
C294 C278 1.368 . S
C294 C290 1.368 . S
C294 C293 1.523 . S
H295 C270 0.950 . S
H296 C272 0.950 . S
H297 C273 0.949 . S
H298 C275 0.950 . S
H299 C277 0.950 . S
C300 C301 1.349 . S
C300 C302 1.327 . S
C300 H325 0.950 . S
C301 C300 1.349 . S
C301 C317 1.349 . S
C302 C300 1.327 . S
C302 C321 1.429 . S
C302 H326 0.950 . S
C303 C320 1.574 . S
C303 C322 1.368 . S
C303 H327 0.949 . S
H304 C308 0.949 . S
C305 C306 1.349 . S
C305 C307 1.327 . S
C305 H328 0.950 . S
C306 C305 1.349 . S
C306 C318 1.349 . S
C307 C305 1.327 . S
C307 C323 1.429 . S
C307 H329 0.950 . S
C308 H304 0.949 . S
C308 C316 1.574 . S
C308 C324 1.368 . S
H309 C317 0.950 . S
H310 C315 0.950 . S
H311 C316 0.949 . S
H312 C318 0.950 . S
H313 C319 0.950 . S
H314 C320 0.949 . S
C315 H310 0.950 . S
C315 C317 1.327 . S
C315 C321 1.429 . S
C316 C308 1.574 . S
C316 H311 0.949 . S
C316 C322 1.368 . S
C317 C301 1.349 . S
C317 H309 0.950 . S
C317 C315 1.327 . S
C318 C306 1.349 . S
C318 H312 0.950 . S
C318 C319 1.327 . S
C319 H313 0.950 . S
C319 C318 1.327 . S
C319 C323 1.429 . S
C320 C303 1.574 . S
C320 H314 0.949 . S
C320 C324 1.368 . S
C321 C302 1.429 . S
C321 C315 1.429 . S
C321 C322 1.523 . S
C322 C303 1.368 . S
C322 C316 1.368 . S
C322 C321 1.523 . S
C323 C307 1.429 . S
C323 C319 1.429 . S
C323 C324 1.523 . S
C324 C308 1.368 . S
C324 C320 1.368 . S
C324 C323 1.523 . S
H325 C300 0.950 . S
H326 C302 0.950 . S
H327 C303 0.949 . S
H328 C305 0.950 . S
H329 C307 0.950 . S
C330 C331 1.349 1_655 S
C330 C332 1.327 . S
C330 H355 0.950 . S
C331 C330 1.349 1_455 S
C331 C347 1.349 1_545 S
C332 C330 1.327 . S
C332 C351 1.429 1_655 S
C332 H356 0.950 . S
C333 C350 1.574 . S
C333 C352 1.368 1_565 S
C333 H357 0.949 . S
H334 C338 0.949 . S
C335 C336 1.349 1_565 S
C335 C337 1.327 . S
C335 H358 0.950 . S
C336 C335 1.349 1_545 S
C336 C348 1.349 1_455 S
C337 C335 1.327 . S
C337 C353 1.429 1_565 S
C337 H359 0.950 . S
C338 H334 0.949 . S
C338 C346 1.574 . S
C338 C354 1.368 1_655 S
H339 C347 0.950 . S
H340 C345 0.950 . S
H341 C346 0.949 . S
H342 C348 0.950 . S
H343 C349 0.950 . S
H344 C350 0.949 . S
C345 H340 0.950 . S
C345 C347 1.327 . S
C345 C351 1.429 1_565 S
C346 C338 1.574 . S
C346 H341 0.949 . S
C346 C352 1.368 1_655 S
C347 C331 1.349 1_565 S
C347 H339 0.950 . S
C347 C345 1.327 . S
C348 C336 1.349 1_655 S
C348 H342 0.950 . S
C348 C349 1.327 . S
C349 H343 0.950 . S
C349 C348 1.327 . S
C349 C353 1.429 1_655 S
C350 C333 1.574 . S
C350 H344 0.949 . S
C350 C354 1.368 1_565 S
C351 C332 1.429 1_455 S
C351 C345 1.429 1_545 S
C351 C352 1.523 . S
C352 C333 1.368 1_545 S
C352 C346 1.368 1_455 S
C352 C351 1.523 . S
C353 C337 1.429 1_545 S
C353 C349 1.429 1_455 S
C353 C354 1.523 . S
C354 C338 1.368 1_455 S
C354 C350 1.368 1_545 S
C354 C353 1.523 . S
H355 C330 0.950 . S
H356 C332 0.950 . S
H357 C333 0.949 . S
H358 C335 0.950 . S
H359 C337 0.950 . S
C360 C361 1.349 . S
C360 C362 1.327 . S
C360 H385 0.950 . S
C361 C360 1.349 . S
C361 C377 1.349 1_445 S
C362 C360 1.327 . S
C362 C381 1.429 . S
C362 H386 0.950 . S
C363 C380 1.574 . S
C363 C382 1.368 1_665 S
C363 H387 0.949 . S
H364 C368 0.949 . S
C365 C366 1.349 1_665 S
C365 C367 1.327 . S
C365 H388 0.950 . S
C366 C365 1.349 1_445 S
C366 C378 1.349 . S
C367 C365 1.327 . S
C367 C383 1.429 1_665 S
C367 H389 0.950 . S
C368 H364 0.949 . S
C368 C376 1.574 . S
C368 C384 1.368 . S
H369 C377 0.950 . S
H370 C375 0.950 . S
H371 C376 0.949 . S
H372 C378 0.950 . S
H373 C379 0.950 . S
H374 C380 0.949 . S
C375 H370 0.950 . S
C375 C377 1.327 . S
C375 C381 1.429 1_665 S
C376 C368 1.574 . S
C376 H371 0.949 . S
C376 C382 1.368 . S
C377 C361 1.349 1_665 S
C377 H369 0.950 . S
C377 C375 1.327 . S
C378 C366 1.349 . S
C378 H372 0.950 . S
C378 C379 1.327 . S
C379 H373 0.950 . S
C379 C378 1.327 . S
C379 C383 1.429 . S
C380 C363 1.574 . S
C380 H374 0.949 . S
C380 C384 1.368 1_665 S
C381 C362 1.429 . S
C381 C375 1.429 1_445 S
C381 C382 1.523 . S
C382 C363 1.368 1_445 S
C382 C376 1.368 . S
C382 C381 1.523 . S
C383 C367 1.429 1_445 S
C383 C379 1.429 . S
C383 C384 1.523 . S
C384 C368 1.368 . S
C384 C380 1.368 1_445 S
C384 C383 1.523 . S
H385 C360 0.950 . S
H386 C362 0.950 . S
H387 C363 0.949 . S
H388 C365 0.950 . S
H389 C367 0.950 . S
C390 C391 1.349 . S
C390 C392 1.327 . S
C390 H415 0.950 . S
C391 C390 1.349 . S
C391 C407 1.349 . S
C392 C390 1.327 . S
C392 C411 1.429 . S
C392 H416 0.950 . S
C393 C410 1.574 . S
C393 C412 1.368 . S
C393 H417 0.949 . S
H394 C398 0.949 . S
C395 C396 1.349 . S
C395 C397 1.327 . S
C395 H418 0.950 . S
C396 C395 1.349 . S
C396 C408 1.349 . S
C397 C395 1.327 . S
C397 C413 1.429 . S
C397 H419 0.950 . S
C398 H394 0.949 . S
C398 C406 1.574 . S
C398 C414 1.368 . S
H399 C407 0.950 . S
H400 C405 0.950 . S
H401 C406 0.949 . S
H402 C408 0.950 . S
H403 C409 0.950 . S
H404 C410 0.949 . S
C405 H400 0.950 . S
C405 C407 1.327 . S
C405 C411 1.429 . S
C406 C398 1.574 . S
C406 H401 0.949 . S
C406 C412 1.368 . S
C407 C391 1.349 . S
C407 H399 0.950 . S
C407 C405 1.327 . S
C408 C396 1.349 . S
C408 H402 0.950 . S
C408 C409 1.327 . S
C409 H403 0.950 . S
C409 C408 1.327 . S
C409 C413 1.429 . S
C410 C393 1.574 . S
C410 H404 0.949 . S
C410 C414 1.368 . S
C411 C392 1.429 . S
C411 C405 1.429 . S
C411 C412 1.523 . S
C412 C393 1.368 . S
C412 C406 1.368 . S
C412 C411 1.523 . S
C413 C397 1.429 . S
C413 C409 1.429 . S
C413 C414 1.523 . S
C414 C398 1.368 . S
C414 C410 1.368 . S
C414 C413 1.523 . S
H415 C390 0.950 . S
H416 C392 0.950 . S
H417 C393 0.949 . S
H418 C395 0.950 . S
H419 C397 0.950 . S
C420 C421 1.349 . S
C420 C422 1.327 . S
C420 H445 0.950 . S
C421 C420 1.349 . S
C421 C437 1.349 . S
C422 C420 1.327 . S
C422 C441 1.429 . S
C422 H446 0.950 . S
C423 C440 1.574 . S
C423 C442 1.368 . S
C423 H447 0.949 . S
H424 C428 0.949 . S
C425 C426 1.349 . S
C425 C427 1.327 . S
C425 H448 0.950 . S
C426 C425 1.349 . S
C426 C438 1.349 . S
C427 C425 1.327 . S
C427 C443 1.429 . S
C427 H449 0.950 . S
C428 H424 0.949 . S
C428 C436 1.574 . S
C428 C444 1.368 . S
H429 C437 0.950 . S
H430 C435 0.950 . S
H431 C436 0.949 . S
H432 C438 0.950 . S
H433 C439 0.950 . S
H434 C440 0.949 . S
C435 H430 0.950 . S
C435 C437 1.327 . S
C435 C441 1.429 . S
C436 C428 1.574 . S
C436 H431 0.949 . S
C436 C442 1.368 . S
C437 C421 1.349 . S
C437 H429 0.950 . S
C437 C435 1.327 . S
C438 C426 1.349 . S
C438 H432 0.950 . S
C438 C439 1.327 . S
C439 H433 0.950 . S
C439 C438 1.327 . S
C439 C443 1.429 . S
C440 C423 1.574 . S
C440 H434 0.949 . S
C440 C444 1.368 . S
C441 C422 1.429 . S
C441 C435 1.429 . S
C441 C442 1.523 . S
C442 C423 1.368 . S
C442 C436 1.368 . S
C442 C441 1.523 . S
C443 C427 1.429 . S
C443 C439 1.429 . S
C443 C444 1.523 . S
C444 C428 1.368 . S
C444 C440 1.368 . S
C444 C443 1.523 . S
H445 C420 0.950 . S
H446 C422 0.950 . S
H447 C423 0.949 . S
H448 C425 0.950 . S
H449 C427 0.950 . S
C96 C85 1.521 . S
C91 C21 1.518 . S
C121 C19 1.380 1_556 S
C126 N72 1.359 . S
C151 C18 1.346 . S
C156 N83 1.337 . S
C181 C20 1.500 . S
C186 C74 1.506 . S
C211 C44 1.518 . S
C216 C63 1.521 . S
C241 C42 1.380 . S
C246 N50 1.359 . S
C276 N61 1.337 . S
C271 C41 1.346 . S
C306 C52 1.506 . S
C301 C43 1.500 . S
C331 C16 1.527 . S
C336 C55 1.521 . S
C361 C17 1.486 . S
C366 C66 1.479 . S
C396 C77 1.521 . S
C391 C39 1.527 . S
C421 C40 1.486 . S
C426 C88 1.479 . S
