# Generated by pormake.
# Topology tbo, (3,4)-cn, num edge types: 1
# Building blocks:
#     Node 0, Type 0, BuildingBlock: WUSLED_clean_sbu_0, # of connection points: 3
#     Node 1, Type 0, BuildingBlock: WUSLED_clean_sbu_0, # of connection points: 3
#     Node 2, Type 0, BuildingBlock: WUSLED_clean_sbu_0, # of connection points: 3
#     Node 3, Type 0, BuildingBlock: WUSLED_clean_sbu_0, # of connection points: 3
#     Node 4, Type 0, BuildingBlock: WUSLED_clean_sbu_0, # of connection points: 3
#     Node 5, Type 0, BuildingBlock: WUSLED_clean_sbu_0, # of connection points: 3
#     Node 6, Type 0, BuildingBlock: WUSLED_clean_sbu_0, # of connection points: 3
#     Node 7, Type 0, BuildingBlock: WUSLED_clean_sbu_0, # of connection points: 3
#     Node 8, Type 0, BuildingBlock: WUSLED_clean_sbu_0, # of connection points: 3
#     Node 9, Type 0, BuildingBlock: WUSLED_clean_sbu_0, # of connection points: 3
#     Node 10, Type 0, BuildingBlock: WUSLED_clean_sbu_0, # of connection points: 3
#     Node 11, Type 0, BuildingBlock: WUSLED_clean_sbu_0, # of connection points: 3
#     Node 12, Type 0, BuildingBlock: WUSLED_clean_sbu_0, # of connection points: 3
#     Node 13, Type 0, BuildingBlock: WUSLED_clean_sbu_0, # of connection points: 3
#     Node 14, Type 0, BuildingBlock: WUSLED_clean_sbu_0, # of connection points: 3
#     Node 15, Type 0, BuildingBlock: WUSLED_clean_sbu_0, # of connection points: 3
#     Node 16, Type 0, BuildingBlock: WUSLED_clean_sbu_0, # of connection points: 3
#     Node 17, Type 0, BuildingBlock: WUSLED_clean_sbu_0, # of connection points: 3
#     Node 18, Type 0, BuildingBlock: WUSLED_clean_sbu_0, # of connection points: 3
#     Node 19, Type 0, BuildingBlock: WUSLED_clean_sbu_0, # of connection points: 3
#     Node 20, Type 0, BuildingBlock: WUSLED_clean_sbu_0, # of connection points: 3
#     Node 21, Type 0, BuildingBlock: WUSLED_clean_sbu_0, # of connection points: 3
#     Node 22, Type 0, BuildingBlock: WUSLED_clean_sbu_0, # of connection points: 3
#     Node 23, Type 0, BuildingBlock: WUSLED_clean_sbu_0, # of connection points: 3
#     Node 24, Type 0, BuildingBlock: WUSLED_clean_sbu_0, # of connection points: 3
#     Node 25, Type 0, BuildingBlock: WUSLED_clean_sbu_0, # of connection points: 3
#     Node 26, Type 0, BuildingBlock: WUSLED_clean_sbu_0, # of connection points: 3
#     Node 27, Type 0, BuildingBlock: WUSLED_clean_sbu_0, # of connection points: 3
#     Node 28, Type 0, BuildingBlock: WUSLED_clean_sbu_0, # of connection points: 3
#     Node 29, Type 0, BuildingBlock: WUSLED_clean_sbu_0, # of connection points: 3
#     Node 30, Type 0, BuildingBlock: WUSLED_clean_sbu_0, # of connection points: 3
#     Node 31, Type 0, BuildingBlock: WUSLED_clean_sbu_0, # of connection points: 3
#     Node 32, Type 1, BuildingBlock: AZAVOO_clean_linker_0, # of connection points: 4
#     Node 33, Type 1, BuildingBlock: AZAVOO_clean_linker_0, # of connection points: 4
#     Node 34, Type 1, BuildingBlock: AZAVOO_clean_linker_0, # of connection points: 4
#     Node 35, Type 1, BuildingBlock: AZAVOO_clean_linker_0, # of connection points: 4
#     Node 36, Type 1, BuildingBlock: AZAVOO_clean_linker_0, # of connection points: 4
#     Node 37, Type 1, BuildingBlock: AZAVOO_clean_linker_0, # of connection points: 4
#     Node 38, Type 1, BuildingBlock: AZAVOO_clean_linker_0, # of connection points: 4
#     Node 39, Type 1, BuildingBlock: AZAVOO_clean_linker_0, # of connection points: 4
#     Node 40, Type 1, BuildingBlock: AZAVOO_clean_linker_0, # of connection points: 4
#     Node 41, Type 1, BuildingBlock: AZAVOO_clean_linker_0, # of connection points: 4
#     Node 42, Type 1, BuildingBlock: AZAVOO_clean_linker_0, # of connection points: 4
#     Node 43, Type 1, BuildingBlock: AZAVOO_clean_linker_0, # of connection points: 4
#     Node 44, Type 1, BuildingBlock: AZAVOO_clean_linker_0, # of connection points: 4
#     Node 45, Type 1, BuildingBlock: AZAVOO_clean_linker_0, # of connection points: 4
#     Node 46, Type 1, BuildingBlock: AZAVOO_clean_linker_0, # of connection points: 4
#     Node 47, Type 1, BuildingBlock: AZAVOO_clean_linker_0, # of connection points: 4
#     Node 48, Type 1, BuildingBlock: AZAVOO_clean_linker_0, # of connection points: 4
#     Node 49, Type 1, BuildingBlock: AZAVOO_clean_linker_0, # of connection points: 4
#     Node 50, Type 1, BuildingBlock: AZAVOO_clean_linker_0, # of connection points: 4
#     Node 51, Type 1, BuildingBlock: AZAVOO_clean_linker_0, # of connection points: 4
#     Node 52, Type 1, BuildingBlock: AZAVOO_clean_linker_0, # of connection points: 4
#     Node 53, Type 1, BuildingBlock: AZAVOO_clean_linker_0, # of connection points: 4
#     Node 54, Type 1, BuildingBlock: AZAVOO_clean_linker_0, # of connection points: 4
#     Node 55, Type 1, BuildingBlock: AZAVOO_clean_linker_0, # of connection points: 4
#     Edge 56, Type (0, 1), BuildingBlock: UVAHIK_clean_linker_0, # of connection points: 2
#     Edge 57, Type (0, 1), BuildingBlock: UVAHIK_clean_linker_0, # of connection points: 2
#     Edge 58, Type (0, 1), BuildingBlock: UVAHIK_clean_linker_0, # of connection points: 2
#     Edge 59, Type (0, 1), BuildingBlock: UVAHIK_clean_linker_0, # of connection points: 2
#     Edge 60, Type (0, 1), BuildingBlock: UVAHIK_clean_linker_0, # of connection points: 2
#     Edge 61, Type (0, 1), BuildingBlock: UVAHIK_clean_linker_0, # of connection points: 2
#     Edge 62, Type (0, 1), BuildingBlock: UVAHIK_clean_linker_0, # of connection points: 2
#     Edge 63, Type (0, 1), BuildingBlock: UVAHIK_clean_linker_0, # of connection points: 2
#     Edge 64, Type (0, 1), BuildingBlock: UVAHIK_clean_linker_0, # of connection points: 2
#     Edge 65, Type (0, 1), BuildingBlock: UVAHIK_clean_linker_0, # of connection points: 2
#     Edge 66, Type (0, 1), BuildingBlock: UVAHIK_clean_linker_0, # of connection points: 2
#     Edge 67, Type (0, 1), BuildingBlock: UVAHIK_clean_linker_0, # of connection points: 2
#     Edge 68, Type (0, 1), BuildingBlock: UVAHIK_clean_linker_0, # of connection points: 2
#     Edge 69, Type (0, 1), BuildingBlock: UVAHIK_clean_linker_0, # of connection points: 2
#     Edge 70, Type (0, 1), BuildingBlock: UVAHIK_clean_linker_0, # of connection points: 2
#     Edge 71, Type (0, 1), BuildingBlock: UVAHIK_clean_linker_0, # of connection points: 2
#     Edge 72, Type (0, 1), BuildingBlock: UVAHIK_clean_linker_0, # of connection points: 2
#     Edge 73, Type (0, 1), BuildingBlock: UVAHIK_clean_linker_0, # of connection points: 2
#     Edge 74, Type (0, 1), BuildingBlock: UVAHIK_clean_linker_0, # of connection points: 2
#     Edge 75, Type (0, 1), BuildingBlock: UVAHIK_clean_linker_0, # of connection points: 2
#     Edge 76, Type (0, 1), BuildingBlock: UVAHIK_clean_linker_0, # of connection points: 2
#     Edge 77, Type (0, 1), BuildingBlock: UVAHIK_clean_linker_0, # of connection points: 2
#     Edge 78, Type (0, 1), BuildingBlock: UVAHIK_clean_linker_0, # of connection points: 2
#     Edge 79, Type (0, 1), BuildingBlock: UVAHIK_clean_linker_0, # of connection points: 2
#     Edge 80, Type (0, 1), BuildingBlock: UVAHIK_clean_linker_0, # of connection points: 2
#     Edge 81, Type (0, 1), BuildingBlock: UVAHIK_clean_linker_0, # of connection points: 2
#     Edge 82, Type (0, 1), BuildingBlock: UVAHIK_clean_linker_0, # of connection points: 2
#     Edge 83, Type (0, 1), BuildingBlock: UVAHIK_clean_linker_0, # of connection points: 2
#     Edge 84, Type (0, 1), BuildingBlock: UVAHIK_clean_linker_0, # of connection points: 2
#     Edge 85, Type (0, 1), BuildingBlock: UVAHIK_clean_linker_0, # of connection points: 2
#     Edge 86, Type (0, 1), BuildingBlock: UVAHIK_clean_linker_0, # of connection points: 2
#     Edge 87, Type (0, 1), BuildingBlock: UVAHIK_clean_linker_0, # of connection points: 2
#     Edge 88, Type (0, 1), BuildingBlock: UVAHIK_clean_linker_0, # of connection points: 2
#     Edge 89, Type (0, 1), BuildingBlock: UVAHIK_clean_linker_0, # of connection points: 2
#     Edge 90, Type (0, 1), BuildingBlock: UVAHIK_clean_linker_0, # of connection points: 2
#     Edge 91, Type (0, 1), BuildingBlock: UVAHIK_clean_linker_0, # of connection points: 2
#     Edge 92, Type (0, 1), BuildingBlock: UVAHIK_clean_linker_0, # of connection points: 2
#     Edge 93, Type (0, 1), BuildingBlock: UVAHIK_clean_linker_0, # of connection points: 2
#     Edge 94, Type (0, 1), BuildingBlock: UVAHIK_clean_linker_0, # of connection points: 2
#     Edge 95, Type (0, 1), BuildingBlock: UVAHIK_clean_linker_0, # of connection points: 2
#     Edge 96, Type (0, 1), BuildingBlock: UVAHIK_clean_linker_0, # of connection points: 2
#     Edge 97, Type (0, 1), BuildingBlock: UVAHIK_clean_linker_0, # of connection points: 2
#     Edge 98, Type (0, 1), BuildingBlock: UVAHIK_clean_linker_0, # of connection points: 2
#     Edge 99, Type (0, 1), BuildingBlock: UVAHIK_clean_linker_0, # of connection points: 2
#     Edge 100, Type (0, 1), BuildingBlock: UVAHIK_clean_linker_0, # of connection points: 2
#     Edge 101, Type (0, 1), BuildingBlock: UVAHIK_clean_linker_0, # of connection points: 2
#     Edge 102, Type (0, 1), BuildingBlock: UVAHIK_clean_linker_0, # of connection points: 2
#     Edge 103, Type (0, 1), BuildingBlock: UVAHIK_clean_linker_0, # of connection points: 2
#     Edge 104, Type (0, 1), BuildingBlock: UVAHIK_clean_linker_0, # of connection points: 2
#     Edge 105, Type (0, 1), BuildingBlock: UVAHIK_clean_linker_0, # of connection points: 2
#     Edge 106, Type (0, 1), BuildingBlock: UVAHIK_clean_linker_0, # of connection points: 2
#     Edge 107, Type (0, 1), BuildingBlock: UVAHIK_clean_linker_0, # of connection points: 2
#     Edge 108, Type (0, 1), BuildingBlock: UVAHIK_clean_linker_0, # of connection points: 2
#     Edge 109, Type (0, 1), BuildingBlock: UVAHIK_clean_linker_0, # of connection points: 2
#     Edge 110, Type (0, 1), BuildingBlock: UVAHIK_clean_linker_0, # of connection points: 2
#     Edge 111, Type (0, 1), BuildingBlock: UVAHIK_clean_linker_0, # of connection points: 2
#     Edge 112, Type (0, 1), BuildingBlock: UVAHIK_clean_linker_0, # of connection points: 2
#     Edge 113, Type (0, 1), BuildingBlock: UVAHIK_clean_linker_0, # of connection points: 2
#     Edge 114, Type (0, 1), BuildingBlock: UVAHIK_clean_linker_0, # of connection points: 2
#     Edge 115, Type (0, 1), BuildingBlock: UVAHIK_clean_linker_0, # of connection points: 2
#     Edge 116, Type (0, 1), BuildingBlock: UVAHIK_clean_linker_0, # of connection points: 2
#     Edge 117, Type (0, 1), BuildingBlock: UVAHIK_clean_linker_0, # of connection points: 2
#     Edge 118, Type (0, 1), BuildingBlock: UVAHIK_clean_linker_0, # of connection points: 2
#     Edge 119, Type (0, 1), BuildingBlock: UVAHIK_clean_linker_0, # of connection points: 2
#     Edge 120, Type (0, 1), BuildingBlock: UVAHIK_clean_linker_0, # of connection points: 2
#     Edge 121, Type (0, 1), BuildingBlock: UVAHIK_clean_linker_0, # of connection points: 2
#     Edge 122, Type (0, 1), BuildingBlock: UVAHIK_clean_linker_0, # of connection points: 2
#     Edge 123, Type (0, 1), BuildingBlock: UVAHIK_clean_linker_0, # of connection points: 2
#     Edge 124, Type (0, 1), BuildingBlock: UVAHIK_clean_linker_0, # of connection points: 2
#     Edge 125, Type (0, 1), BuildingBlock: UVAHIK_clean_linker_0, # of connection points: 2
#     Edge 126, Type (0, 1), BuildingBlock: UVAHIK_clean_linker_0, # of connection points: 2
#     Edge 127, Type (0, 1), BuildingBlock: UVAHIK_clean_linker_0, # of connection points: 2
#     Edge 128, Type (0, 1), BuildingBlock: UVAHIK_clean_linker_0, # of connection points: 2
#     Edge 129, Type (0, 1), BuildingBlock: UVAHIK_clean_linker_0, # of connection points: 2
#     Edge 130, Type (0, 1), BuildingBlock: UVAHIK_clean_linker_0, # of connection points: 2
#     Edge 131, Type (0, 1), BuildingBlock: UVAHIK_clean_linker_0, # of connection points: 2
#     Edge 132, Type (0, 1), BuildingBlock: UVAHIK_clean_linker_0, # of connection points: 2
#     Edge 133, Type (0, 1), BuildingBlock: UVAHIK_clean_linker_0, # of connection points: 2
#     Edge 134, Type (0, 1), BuildingBlock: UVAHIK_clean_linker_0, # of connection points: 2
#     Edge 135, Type (0, 1), BuildingBlock: UVAHIK_clean_linker_0, # of connection points: 2
#     Edge 136, Type (0, 1), BuildingBlock: UVAHIK_clean_linker_0, # of connection points: 2
#     Edge 137, Type (0, 1), BuildingBlock: UVAHIK_clean_linker_0, # of connection points: 2
#     Edge 138, Type (0, 1), BuildingBlock: UVAHIK_clean_linker_0, # of connection points: 2
#     Edge 139, Type (0, 1), BuildingBlock: UVAHIK_clean_linker_0, # of connection points: 2
#     Edge 140, Type (0, 1), BuildingBlock: UVAHIK_clean_linker_0, # of connection points: 2
#     Edge 141, Type (0, 1), BuildingBlock: UVAHIK_clean_linker_0, # of connection points: 2
#     Edge 142, Type (0, 1), BuildingBlock: UVAHIK_clean_linker_0, # of connection points: 2
#     Edge 143, Type (0, 1), BuildingBlock: UVAHIK_clean_linker_0, # of connection points: 2
#     Edge 144, Type (0, 1), BuildingBlock: UVAHIK_clean_linker_0, # of connection points: 2
#     Edge 145, Type (0, 1), BuildingBlock: UVAHIK_clean_linker_0, # of connection points: 2
#     Edge 146, Type (0, 1), BuildingBlock: UVAHIK_clean_linker_0, # of connection points: 2
#     Edge 147, Type (0, 1), BuildingBlock: UVAHIK_clean_linker_0, # of connection points: 2
#     Edge 148, Type (0, 1), BuildingBlock: UVAHIK_clean_linker_0, # of connection points: 2
#     Edge 149, Type (0, 1), BuildingBlock: UVAHIK_clean_linker_0, # of connection points: 2
#     Edge 150, Type (0, 1), BuildingBlock: UVAHIK_clean_linker_0, # of connection points: 2
#     Edge 151, Type (0, 1), BuildingBlock: UVAHIK_clean_linker_0, # of connection points: 2
# Relax obj value: 0.032
# Max RMSD: 0.257
# Mean RMSD: 0.087
data_MOF--net-tbo--node1-WUSLED_clean_sbu_0--node2-AZAVOO_clean_linker_0--edge1-UVAHIK_clean_linker_0
_symmetry_space_group_name_H-M    P1
_symmetry_Int_Tables_number       1
_symmetry_cell_setting            triclinic
loop_
_symmetry_equiv_pos_as_xyz
'x, y, z'
_cell_length_a     125.0311
_cell_length_b     125.54588
_cell_length_c     125.54188
_cell_angle_alpha  89.561033
_cell_angle_beta   89.166892
_cell_angle_gamma 88.937427
loop_
_atom_site_label
_atom_site_type_symbol
_atom_site_fract_x
_atom_site_fract_y
_atom_site_fract_z
_atom_type_partial_charge
C0 C 0.194 0.14747 0.21242 0.0
C1 C 0.20147 0.14252 0.20551 0.0
C2 C 0.20454 0.12878 0.21872 0.0
C3 C 0.20677 0.13317 0.20868 0.0
C4 C 0.19715 0.13379 0.22562 0.0
C5 C 0.19192 0.14314 0.22249 0.0
U6 U 0.19111 0.1702 0.19314 0.0
O7 O 0.17692 0.17842 0.1868 0.0
O8 O 0.18858 0.1873 0.19604 0.0
C9 C 0.17906 0.18731 0.19175 0.0
C10 C 0.18855 0.15731 0.20931 0.0
C11 C 0.17046 0.19146 0.19861 0.0
C12 C 0.15651 0.18868 0.2119 0.0
C13 C 0.16489 0.18466 0.20559 0.0
C14 C 0.15959 0.20637 0.20469 0.0
C15 C 0.15378 0.19955 0.21143 0.0
C16 C 0.16787 0.20233 0.19829 0.0
C17 C 0.20922 0.17154 0.16904 0.0
C18 C 0.20667 0.18562 0.15597 0.0
C19 C 0.2216 0.17309 0.15418 0.0
C20 C 0.21833 0.16792 0.16349 0.0
C21 C 0.21577 0.18194 0.1503 0.0
C22 C 0.20343 0.18045 0.1653 0.0
C23 C 0.20583 0.16603 0.17873 0.0
O24 O 0.19452 0.1658 0.20969 0.0
O25 O 0.18291 0.15671 0.20059 0.0
O26 O 0.19617 0.1621 0.17844 0.0
O27 O 0.2078 0.1711 0.18759 0.0
H28 H 0.20317 0.14588 0.1977 0.0
H29 H 0.21247 0.12933 0.2033 0.0
H30 H 0.19544 0.13047 0.23345 0.0
H31 H 0.18625 0.14697 0.22791 0.0
H32 H 0.15213 0.18332 0.21709 0.0
H33 H 0.16694 0.17624 0.20603 0.0
H34 H 0.15751 0.21477 0.20414 0.0
H35 H 0.17218 0.20766 0.193 0.0
H36 H 0.20197 0.19234 0.15309 0.0
H37 H 0.22873 0.17019 0.15006 0.0
H38 H 0.22289 0.16108 0.16636 0.0
H39 H 0.19637 0.18334 0.16957 0.0
C40 C 0.86448 0.19123 0.14264 0.0
C41 C 0.86988 0.20056 0.13973 0.0
C42 C 0.85829 0.20274 0.12456 0.0
C43 C 0.86673 0.20635 0.13073 0.0
C44 C 0.85281 0.19354 0.12767 0.0
C45 C 0.85589 0.18782 0.13666 0.0
U46 U 0.88366 0.18604 0.16495 0.0
O47 O 0.8811 0.18006 0.18123 0.0
O48 O 0.89154 0.17113 0.17008 0.0
C49 C 0.88649 0.17117 0.17932 0.0
C50 C 0.868 0.18469 0.15158 0.0
C51 C 0.88075 0.16142 0.1818 0.0
C52 C 0.86479 0.15084 0.18077 0.0
C53 C 0.87031 0.16006 0.17813 0.0
C54 C 0.8803 0.14408 0.19027 0.0
C55 C 0.86975 0.14284 0.1869 0.0
C56 C 0.88576 0.15337 0.18777 0.0
C57 C 0.90578 0.20446 0.1704 0.0
C58 C 0.91653 0.20081 0.18593 0.0
C59 C 0.92045 0.21589 0.17437 0.0
C60 C 0.91202 0.21325 0.16785 0.0
C61 C 0.92268 0.20975 0.18351 0.0
C62 C 0.90812 0.19815 0.17937 0.0
C63 C 0.89667 0.20199 0.16388 0.0
O64 O 0.87732 0.17988 0.15009 0.0
O65 O 0.86684 0.18911 0.16099 0.0
O66 O 0.88742 0.20249 0.16898 0.0
O67 O 0.89797 0.19341 0.15804 0.0
H68 H 0.87657 0.20324 0.14433 0.0
H69 H 0.87101 0.21346 0.12845 0.0
H70 H 0.84613 0.19075 0.12311 0.0
H71 H 0.85167 0.18066 0.13887 0.0
H72 H 0.85665 0.14996 0.1781 0.0
H73 H 0.8664 0.16619 0.17337 0.0
H74 H 0.88419 0.13798 0.19509 0.0
H75 H 0.89384 0.15431 0.19057 0.0
H76 H 0.91812 0.196 0.19295 0.0
H77 H 0.92497 0.22295 0.17248 0.0
H78 H 0.91023 0.21817 0.16095 0.0
H79 H 0.90333 0.1913 0.18138 0.0
C80 C 0.84899 0.85896 0.11811 0.0
C81 C 0.85283 0.84842 0.11708 0.0
C82 C 0.8405 0.84561 0.10264 0.0
C83 C 0.84852 0.84174 0.10943 0.0
C84 C 0.83696 0.85624 0.10345 0.0
C85 C 0.84114 0.86285 0.11118 0.0
U86 U 0.86845 0.8652 0.14016 0.0
O87 O 0.8747 0.88056 0.14541 0.0
O88 O 0.86537 0.87062 0.15649 0.0
C89 C 0.87022 0.8797 0.15491 0.0
C90 C 0.85264 0.86583 0.12669 0.0
C91 C 0.86452 0.88915 0.15903 0.0
C92 C 0.84889 0.90093 0.16004 0.0
C93 C 0.8546 0.8926 0.15503 0.0
C94 C 0.86313 0.9025 0.17281 0.0
C95 C 0.85302 0.90574 0.16915 0.0
C96 C 0.86883 0.8943 0.16778 0.0
C97 C 0.89169 0.84521 0.14481 0.0
C98 C 0.90451 0.84589 0.15914 0.0
C99 C 0.90498 0.8311 0.14683 0.0
C100 C 0.89636 0.83561 0.1414 0.0
C101 C 0.90919 0.83617 0.15576 0.0
C102 C 0.89579 0.85038 0.1537 0.0
C103 C 0.8823 0.8493 0.13914 0.0
O104 O 0.85182 0.86175 0.13633 0.0
O105 O 0.86174 0.87066 0.12489 0.0
O106 O 0.8835 0.85826 0.1338 0.0
O107 O 0.87318 0.84881 0.14442 0.0
H108 H 0.85893 0.8453 0.12235 0.0
H109 H 0.85135 0.83355 0.10888 0.0
H110 H 0.8307 0.85932 0.09833 0.0
H111 H 0.83808 0.87095 0.11189 0.0
H112 H 0.84108 0.90328 0.15711 0.0
H113 H 0.85115 0.88866 0.14828 0.0
H114 H 0.86653 0.90617 0.17974 0.0
H115 H 0.87648 0.89173 0.17094 0.0
H116 H 0.9076 0.85004 0.16594 0.0
H117 H 0.90816 0.82349 0.14414 0.0
H118 H 0.89321 0.83148 0.13461 0.0
H119 H 0.89222 0.85781 0.15645 0.0
C120 C 0.12092 0.84909 0.15164 0.0
C121 C 0.11877 0.84939 0.16266 0.0
C122 C 0.10409 0.83701 0.16048 0.0
C123 C 0.11034 0.84343 0.16705 0.0
C124 C 0.10601 0.83723 0.14944 0.0
C125 C 0.1143 0.8432 0.1451 0.0
U126 U 0.14652 0.86693 0.14596 0.0
O127 O 0.16159 0.86039 0.13923 0.0
O128 O 0.15181 0.87177 0.12978 0.0
C129 C 0.16067 0.86601 0.13041 0.0
C130 C 0.13061 0.85354 0.1466 0.0
C131 C 0.16626 0.86235 0.12067 0.0
C132 C 0.17007 0.84977 0.10641 0.0
C133 C 0.16357 0.85318 0.11502 0.0
C134 C 0.18164 0.86478 0.10895 0.0
C135 C 0.17928 0.85548 0.10342 0.0
C136 C 0.1752 0.86815 0.11745 0.0
C137 C 0.15449 0.8901 0.16583 0.0
C138 C 0.17078 0.89902 0.17109 0.0
C139 C 0.15374 0.9042 0.17902 0.0
C140 C 0.14864 0.89676 0.17276 0.0
C141 C 0.16491 0.90526 0.17853 0.0
C142 C 0.16562 0.89142 0.16483 0.0
C143 C 0.14864 0.88121 0.161 0.0
O144 O 0.12994 0.8629 0.14185 0.0
O145 O 0.13987 0.85161 0.15112 0.0
O146 O 0.15295 0.87159 0.16145 0.0
O147 O 0.14313 0.88306 0.15232 0.0
H148 H 0.12381 0.85388 0.16787 0.0
H149 H 0.10905 0.84343 0.1756 0.0
H150 H 0.10123 0.83258 0.14412 0.0
H151 H 0.11583 0.84285 0.13659 0.0
H152 H 0.16801 0.84261 0.1022 0.0
H153 H 0.15668 0.84858 0.11738 0.0
H154 H 0.18873 0.86926 0.107 0.0
H155 H 0.17742 0.8752 0.12176 0.0
H156 H 0.17939 0.89964 0.17048 0.0
H157 H 0.14892 0.909 0.18446 0.0
H158 H 0.14006 0.8959 0.17367 0.0
H159 H 0.17034 0.88636 0.15954 0.0
C160 C 0.16759 0.87989 0.85898 0.0
C161 C 0.16516 0.88669 0.85037 0.0
C162 C 0.14967 0.87592 0.84611 0.0
C163 C 0.15626 0.88472 0.84398 0.0
C164 C 0.15226 0.86919 0.85475 0.0
C165 C 0.16107 0.87117 0.86109 0.0
U166 U 0.19415 0.89308 0.8669 0.0
O167 O 0.20038 0.89597 0.88294 0.0
O168 O 0.20909 0.88519 0.87202 0.0
C169 C 0.20862 0.88944 0.88155 0.0
C170 C 0.17703 0.8813 0.86573 0.0
C171 C 0.21164 0.88245 0.89054 0.0
C172 C 0.20799 0.86901 0.90416 0.0
C173 C 0.20452 0.87543 0.8956 0.0
C174 C 0.22563 0.87655 0.90255 0.0
C175 C 0.2186 0.86956 0.90778 0.0
C176 C 0.22218 0.88291 0.89408 0.0
C177 C 0.20487 0.91614 0.84883 0.0
C178 C 0.22139 0.92603 0.85013 0.0
C179 C 0.21057 0.9277 0.83433 0.0
C180 C 0.20318 0.92072 0.83878 0.0
C181 C 0.21983 0.9303 0.83985 0.0
C182 C 0.21397 0.91891 0.85458 0.0
C183 C 0.19718 0.90816 0.85259 0.0
O184 O 0.18631 0.87863 0.8614 0.0
O185 O 0.17734 0.89008 0.87135 0.0
O186 O 0.19225 0.90985 0.86176 0.0
O187 O 0.20003 0.89815 0.85112 0.0
H188 H 0.17014 0.89346 0.84857 0.0
H189 H 0.1545 0.89012 0.83744 0.0
H190 H 0.14759 0.8622 0.85653 0.0
H191 H 0.16287 0.86577 0.86763 0.0
H192 H 0.20236 0.86373 0.90803 0.0
H193 H 0.19634 0.87494 0.89296 0.0
H194 H 0.2339 0.87704 0.90491 0.0
H195 H 0.22781 0.88822 0.89024 0.0
H196 H 0.2285 0.9279 0.85452 0.0
H197 H 0.20911 0.93096 0.82646 0.0
H198 H 0.19621 0.91871 0.83424 0.0
H199 H 0.21543 0.91542 0.86236 0.0
C200 C 0.14255 0.13656 0.85522 0.0
C201 C 0.1384 0.14534 0.86092 0.0
C202 C 0.12415 0.14784 0.84781 0.0
C203 C 0.12925 0.1509 0.85727 0.0
C204 C 0.1284 0.13896 0.84229 0.0
C205 C 0.1374 0.1334 0.84599 0.0
U206 U 0.16827 0.12997 0.87184 0.0
O207 O 0.17569 0.1141 0.87466 0.0
O208 O 0.18433 0.12622 0.86541 0.0
C209 C 0.1844 0.11644 0.8692 0.0
C210 C 0.15253 0.13079 0.85813 0.0
C211 C 0.18922 0.10814 0.86228 0.0
C212 C 0.19131 0.09897 0.8453 0.0
C213 C 0.18549 0.10598 0.85202 0.0
C214 C 0.20431 0.09605 0.85918 0.0
C215 C 0.20096 0.0942 0.84874 0.0
C216 C 0.19849 0.10291 0.86586 0.0
C217 C 0.17545 0.14643 0.89681 0.0
C218 C 0.19285 0.14784 0.90517 0.0
C219 C 0.17775 0.15837 0.9117 0.0
C220 C 0.1712 0.15376 0.90417 0.0
C221 C 0.18869 0.15571 0.9121 0.0
C222 C 0.18627 0.14328 0.8975 0.0
C223 C 0.16861 0.14324 0.88794 0.0
O224 O 0.16147 0.136 0.85685 0.0
O225 O 0.15236 0.12479 0.86676 0.0
O226 O 0.16421 0.13382 0.88858 0.0
O227 O 0.17216 0.14559 0.87833 0.0
H228 H 0.14227 0.14794 0.86808 0.0
H229 H 0.1262 0.1576 0.86185 0.0
H230 H 0.12502 0.13643 0.83487 0.0
H231 H 0.14051 0.12671 0.84142 0.0
H232 H 0.18854 0.09769 0.83728 0.0
H233 H 0.17834 0.10995 0.8491 0.0
H234 H 0.21161 0.09238 0.86211 0.0
H235 H 0.20149 0.10446 0.87375 0.0
H236 H 0.20128 0.14568 0.9053 0.0
H237 H 0.17432 0.16433 0.917 0.0
H238 H 0.16288 0.15628 0.90378 0.0
H239 H 0.18971 0.13763 0.89188 0.0
C240 C 0.80196 0.14908 0.81982 0.0
C241 C 0.80288 0.14642 0.80905 0.0
C242 C 0.79054 0.13192 0.81185 0.0
C243 C 0.79726 0.13786 0.80509 0.0
C244 C 0.78952 0.13474 0.82264 0.0
C245 C 0.79526 0.14324 0.82662 0.0
U246 U 0.81831 0.17348 0.83226 0.0
O247 O 0.80796 0.18602 0.83933 0.0
O248 O 0.81662 0.17454 0.84968 0.0
C249 C 0.80968 0.1825 0.84905 0.0
C250 C 0.80808 0.15792 0.82385 0.0
C251 C 0.80873 0.1899 0.85795 0.0
C252 C 0.79842 0.19514 0.87356 0.0
C253 C 0.79977 0.18878 0.86463 0.0
C254 C 0.81495 0.20411 0.86917 0.0
C255 C 0.80604 0.20277 0.87602 0.0
C256 C 0.81632 0.19764 0.86015 0.0
C257 C 0.84648 0.18246 0.81883 0.0
C258 C 0.86037 0.19551 0.81658 0.0
C259 C 0.8617 0.17872 0.80719 0.0
C260 C 0.85201 0.17563 0.81183 0.0
C261 C 0.86602 0.18866 0.8096 0.0
C262 C 0.85063 0.19245 0.82113 0.0
C263 C 0.83634 0.17922 0.82367 0.0
O264 O 0.81497 0.15641 0.83154 0.0
O265 O 0.80661 0.16781 0.82061 0.0
O266 O 0.82719 0.18376 0.82103 0.0
O267 O 0.8359 0.17184 0.83114 0.0
H268 H 0.80804 0.1509 0.80373 0.0
H269 H 0.79812 0.13594 0.79672 0.0
H270 H 0.78447 0.13024 0.82805 0.0
H271 H 0.79447 0.14525 0.83498 0.0
H272 H 0.79138 0.19406 0.87856 0.0
H273 H 0.79382 0.18287 0.86298 0.0
H274 H 0.82092 0.20995 0.87092 0.0
H275 H 0.82329 0.19858 0.85503 0.0
H276 H 0.86343 0.20327 0.81848 0.0
H277 H 0.86591 0.17324 0.80192 0.0
H278 H 0.84883 0.1679 0.80994 0.0
H279 H 0.84638 0.19782 0.82649 0.0
C280 C 0.83946 0.91485 0.85266 0.0
C281 C 0.82854 0.91325 0.85478 0.0
C282 C 0.82379 0.92957 0.84493 0.0
C283 C 0.82079 0.92055 0.85099 0.0
C284 C 0.83478 0.93132 0.84325 0.0
C285 C 0.84248 0.92406 0.84707 0.0
U286 U 0.85311 0.89096 0.86817 0.0
O287 O 0.86193 0.87734 0.86104 0.0
O288 O 0.87041 0.88855 0.87107 0.0
C289 C 0.87113 0.88 0.8651 0.0
C290 C 0.84785 0.90669 0.85508 0.0
C291 C 0.88093 0.8784 0.85837 0.0
C292 C 0.89178 0.88095 0.84219 0.0
C293 C 0.88258 0.88342 0.84844 0.0
C294 C 0.89773 0.8685 0.85571 0.0
C295 C 0.8995 0.87334 0.84569 0.0
C296 C 0.88866 0.87104 0.86193 0.0
C297 C 0.8374 0.87928 0.89343 0.0
C298 C 0.83806 0.86233 0.90311 0.0
C299 C 0.8259 0.87632 0.90903 0.0
C300 C 0.82961 0.88292 0.90076 0.0
C301 C 0.82993 0.86584 0.91028 0.0
C302 C 0.84173 0.86895 0.89475 0.0
C303 C 0.83993 0.88622 0.8841 0.0
O304 O 0.85357 0.90803 0.86366 0.0
O305 O 0.84547 0.89669 0.85346 0.0
O306 O 0.83939 0.88203 0.87456 0.0
O307 O 0.84769 0.89308 0.88492 0.0
H308 H 0.82598 0.90622 0.8591 0.0
H309 H 0.81243 0.91901 0.85264 0.0
H310 H 0.83747 0.93803 0.83854 0.0
H311 H 0.85084 0.92545 0.84528 0.0
H312 H 0.89281 0.88502 0.83462 0.0
H313 H 0.87673 0.88914 0.84547 0.0
H314 H 0.90317 0.86243 0.85872 0.0
H315 H 0.88756 0.867 0.86951 0.0
H316 H 0.84154 0.8544 0.90386 0.0
H317 H 0.81954 0.87936 0.91417 0.0
H318 H 0.82607 0.89082 0.89988 0.0
H319 H 0.84775 0.86594 0.88921 0.0
C320 C 0.1305 0.63937 0.66024 0.0
C321 C 0.14052 0.6352 0.65691 0.0
C322 C 0.13948 0.62109 0.67051 0.0
C323 C 0.14493 0.62606 0.66195 0.0
C324 C 0.12924 0.62502 0.67336 0.0
C325 C 0.12483 0.634 0.66829 0.0
U326 U 0.12631 0.6659 0.6429 0.0
O327 O 0.11071 0.67424 0.64065 0.0
O328 O 0.12329 0.68182 0.64975 0.0
C329 C 0.11348 0.68258 0.64618 0.0
C330 C 0.12606 0.64983 0.65659 0.0
C331 C 0.10529 0.68795 0.65312 0.0
C332 C 0.09422 0.68966 0.6693 0.0
C333 C 0.10141 0.68367 0.66279 0.0
C334 C 0.09472 0.70414 0.65654 0.0
C335 C 0.09084 0.70011 0.66635 0.0
C336 C 0.10172 0.69814 0.65005 0.0
C337 C 0.14437 0.67142 0.61707 0.0
C338 C 0.14798 0.68759 0.60673 0.0
C339 C 0.15717 0.67111 0.60216 0.0
C340 C 0.15167 0.66588 0.61043 0.0
C341 C 0.15553 0.68205 0.60031 0.0
C342 C 0.14241 0.68232 0.61503 0.0
C343 C 0.13984 0.66565 0.62649 0.0
O344 O 0.13207 0.65822 0.65762 0.0
O345 O 0.12013 0.6502 0.64803 0.0
O346 O 0.13003 0.66209 0.62601 0.0
O347 O 0.1422 0.66922 0.63596 0.0
H348 H 0.14507 0.6392 0.65071 0.0
H349 H 0.15283 0.62324 0.65954 0.0
H350 H 0.12471 0.62132 0.67976 0.0
H351 H 0.11709 0.63703 0.67101 0.0
H352 H 0.09137 0.68607 0.67665 0.0
H353 H 0.10402 0.67581 0.66537 0.0
H354 H 0.09272 0.71214 0.65391 0.0
H355 H 0.10462 0.70166 0.64267 0.0
H356 H 0.14659 0.69605 0.6055 0.0
H357 H 0.16301 0.66667 0.59742 0.0
H358 H 0.15341 0.65751 0.61187 0.0
H359 H 0.13684 0.68679 0.62004 0.0
C360 C 0.8485 0.71443 0.65615 0.0
C361 C 0.84996 0.72541 0.65449 0.0
C362 C 0.84061 0.72446 0.63761 0.0
C363 C 0.84606 0.7304 0.64524 0.0
C364 C 0.83956 0.71344 0.63921 0.0
C365 C 0.84345 0.7085 0.64837 0.0
U366 U 0.86549 0.71042 0.68148 0.0
O367 O 0.86046 0.7043 0.69725 0.0
O368 O 0.87244 0.69544 0.68771 0.0
C369 C 0.86647 0.69563 0.69641 0.0
C370 C 0.85178 0.70885 0.66597 0.0
C371 C 0.86149 0.68551 0.6996 0.0
C372 C 0.85075 0.66993 0.6961 0.0
C373 C 0.85488 0.67979 0.69281 0.0
C374 C 0.85962 0.67158 0.71301 0.0
C375 C 0.85309 0.66574 0.70626 0.0
C376 C 0.86378 0.68132 0.7097 0.0
C377 C 0.8872 0.73143 0.68739 0.0
C378 C 0.8982 0.73331 0.70306 0.0
C379 C 0.90139 0.74434 0.68746 0.0
C380 C 0.89306 0.73941 0.68227 0.0
C381 C 0.90403 0.74143 0.69794 0.0
C382 C 0.88981 0.72834 0.69782 0.0
C383 C 0.87837 0.72671 0.68154 0.0
O384 O 0.86131 0.70428 0.66574 0.0
O385 O 0.84947 0.7136 0.67503 0.0
O386 O 0.8689 0.72683 0.68623 0.0
O387 O 0.88059 0.71781 0.67647 0.0
H388 H 0.85392 0.73012 0.6604 0.0
H389 H 0.84699 0.7389 0.6442 0.0
H390 H 0.83561 0.70862 0.63338 0.0
H391 H 0.84235 0.70002 0.64946 0.0
H392 H 0.84569 0.66562 0.69075 0.0
H393 H 0.853 0.6829 0.68496 0.0
H394 H 0.86168 0.66851 0.72082 0.0
H395 H 0.86891 0.68557 0.71503 0.0
H396 H 0.89999 0.73092 0.71116 0.0
H397 H 0.90584 0.75038 0.68318 0.0
H398 H 0.89119 0.74185 0.67421 0.0
H399 H 0.88536 0.72218 0.7019 0.0
C400 C 0.84452 0.33816 0.63497 0.0
C401 C 0.84708 0.32739 0.63297 0.0
C402 C 0.83531 0.32755 0.61741 0.0
C403 C 0.84254 0.32214 0.62424 0.0
C404 C 0.83291 0.33833 0.61953 0.0
C405 C 0.83748 0.34352 0.62811 0.0
U406 U 0.86009 0.34728 0.66123 0.0
O407 O 0.86319 0.36422 0.66487 0.0
O408 O 0.85156 0.35515 0.67465 0.0
C409 C 0.85657 0.36416 0.6731 0.0
C410 C 0.84814 0.3441 0.64443 0.0
C411 C 0.85266 0.37416 0.6782 0.0
C412 C 0.83944 0.38841 0.68133 0.0
C413 C 0.84278 0.37912 0.67587 0.0
C414 C 0.85574 0.3878 0.69147 0.0
C415 C 0.84586 0.39287 0.68928 0.0
C416 C 0.85907 0.37864 0.68598 0.0
C417 C 0.88413 0.32886 0.67283 0.0
C418 C 0.89874 0.32974 0.68556 0.0
C419 C 0.89475 0.313 0.67723 0.0
C420 C 0.8865 0.31799 0.67158 0.0
C421 C 0.90096 0.31873 0.68437 0.0
C422 C 0.89035 0.33478 0.67985 0.0
C423 C 0.87533 0.3334 0.66624 0.0
O424 O 0.84582 0.3404 0.65399 0.0
O425 O 0.85716 0.34931 0.64394 0.0
O426 O 0.87701 0.34185 0.66024 0.0
O427 O 0.86541 0.33268 0.66973 0.0
H428 H 0.85246 0.32303 0.63818 0.0
H429 H 0.84471 0.31388 0.62286 0.0
H430 H 0.82723 0.34277 0.61473 0.0
H431 H 0.83526 0.35178 0.62954 0.0
H432 H 0.83186 0.39212 0.67926 0.0
H433 H 0.83767 0.37582 0.66988 0.0
H434 H 0.86086 0.39074 0.69762 0.0
H435 H 0.86669 0.37492 0.68796 0.0
H436 H 0.90336 0.33438 0.69102 0.0
H437 H 0.89632 0.30459 0.67595 0.0
H438 H 0.88194 0.31328 0.66612 0.0
H439 H 0.88874 0.34321 0.68093 0.0
C440 C 0.11792 0.34631 0.67436 0.0
C441 C 0.11536 0.34886 0.685 0.0
C442 C 0.10206 0.33492 0.68548 0.0
C443 C 0.10741 0.34321 0.69053 0.0
C444 C 0.10444 0.33272 0.67475 0.0
C445 C 0.11227 0.33837 0.66926 0.0
U446 U 0.13925 0.36779 0.66939 0.0
O447 O 0.15573 0.3657 0.66341 0.0
O448 O 0.14411 0.37511 0.6541 0.0
C449 C 0.1538 0.37088 0.65448 0.0
C450 C 0.1267 0.35134 0.6684 0.0
C451 C 0.15792 0.36589 0.64464 0.0
C452 C 0.16299 0.3503 0.63422 0.0
C453 C 0.15777 0.35482 0.6431 0.0
C454 C 0.16796 0.36789 0.6281 0.0
C455 C 0.1684 0.35678 0.62676 0.0
C456 C 0.16282 0.37238 0.63697 0.0
C457 C 0.1422 0.39083 0.68914 0.0
C458 C 0.15547 0.4047 0.688 0.0
C459 C 0.14247 0.40459 0.7025 0.0
C460 C 0.13797 0.39547 0.69839 0.0
C461 C 0.15123 0.40941 0.69735 0.0
C462 C 0.151 0.39544 0.68393 0.0
C463 C 0.13727 0.3811 0.68531 0.0
O464 O 0.12447 0.36054 0.66382 0.0
O465 O 0.13614 0.35096 0.67289 0.0
O466 O 0.14328 0.37241 0.68567 0.0
O467 O 0.13175 0.38208 0.67652 0.0
H468 H 0.11965 0.35503 0.68905 0.0
H469 H 0.1057 0.34505 0.69881 0.0
H470 H 0.10032 0.32648 0.67064 0.0
H471 H 0.11409 0.33635 0.66104 0.0
H472 H 0.16317 0.34171 0.63346 0.0
H473 H 0.15396 0.34968 0.64892 0.0
H474 H 0.17177 0.37315 0.62239 0.0
H475 H 0.16294 0.38094 0.63798 0.0
H476 H 0.16215 0.40821 0.68375 0.0
H477 H 0.13915 0.40771 0.70988 0.0
H478 H 0.13122 0.39195 0.70253 0.0
H479 H 0.15437 0.3919 0.67676 0.0
C480 C 0.11209 0.39597 0.36237 0.0
C481 C 0.10945 0.40171 0.3531 0.0
C482 C 0.09591 0.38875 0.34917 0.0
C483 C 0.10137 0.39811 0.34653 0.0
C484 C 0.09854 0.38317 0.35855 0.0
C485 C 0.10655 0.38678 0.3651 0.0
U486 U 0.13708 0.41199 0.36659 0.0
O487 O 0.14397 0.41786 0.38143 0.0
O488 O 0.15295 0.40633 0.37151 0.0
C489 C 0.15232 0.41137 0.38064 0.0
C490 C 0.12122 0.39884 0.36877 0.0
C491 C 0.15449 0.40465 0.38998 0.0
C492 C 0.15104 0.38886 0.40071 0.0
C493 C 0.14815 0.39582 0.39243 0.0
C494 C 0.16642 0.39969 0.40426 0.0
C495 C 0.16032 0.39063 0.40661 0.0
C496 C 0.1635 0.40664 0.39604 0.0
C497 C 0.14561 0.43186 0.34487 0.0
C498 C 0.16335 0.43934 0.34356 0.0
C499 C 0.15072 0.44216 0.3293 0.0
C500 C 0.14309 0.4364 0.335 0.0
C501 C 0.16102 0.44342 0.33337 0.0
C502 C 0.15568 0.43354 0.34927 0.0
C503 C 0.13804 0.42446 0.34978 0.0
O504 O 0.13053 0.39609 0.36456 0.0
O505 O 0.12097 0.40849 0.37278 0.0
O506 O 0.1335 0.42743 0.35883 0.0
O507 O 0.14125 0.41444 0.34976 0.0
H508 H 0.1138 0.40879 0.35085 0.0
H509 H 0.09949 0.40256 0.33935 0.0
H510 H 0.09466 0.37579 0.36066 0.0
H511 H 0.10864 0.3822 0.37215 0.0
H512 H 0.14609 0.38204 0.40238 0.0
H513 H 0.14114 0.39418 0.38779 0.0
H514 H 0.17372 0.40122 0.40847 0.0
H515 H 0.1685 0.41338 0.39419 0.0
H516 H 0.17124 0.44015 0.34687 0.0
H517 H 0.14865 0.44535 0.32154 0.0
H518 H 0.13534 0.43515 0.3315 0.0
H519 H 0.15775 0.43001 0.35689 0.0
C520 C 0.17576 0.699 0.27885 0.0
C521 C 0.16986 0.70537 0.28606 0.0
C522 C 0.15591 0.70785 0.27291 0.0
C523 C 0.15998 0.70984 0.28308 0.0
C524 C 0.16207 0.70182 0.26564 0.0
C525 C 0.17191 0.69745 0.26859 0.0
U526 U 0.19944 0.6924 0.29734 0.0
O527 O 0.20595 0.67659 0.30151 0.0
O528 O 0.21598 0.688 0.29278 0.0
C529 C 0.21506 0.67823 0.29646 0.0
C530 C 0.18556 0.69324 0.28189 0.0
C531 C 0.21864 0.66972 0.28923 0.0
C532 C 0.21581 0.6579 0.27432 0.0
C533 C 0.21234 0.66641 0.28073 0.0
C534 C 0.23192 0.65614 0.28476 0.0
C535 C 0.22563 0.65265 0.27632 0.0
C536 C 0.22845 0.6646 0.29113 0.0
C537 C 0.20286 0.70735 0.32375 0.0
C538 C 0.21797 0.70577 0.3357 0.0
C539 C 0.20191 0.71544 0.34119 0.0
C540 C 0.19728 0.7133 0.33144 0.0
C541 C 0.21238 0.71183 0.34347 0.0
C542 C 0.21323 0.7035 0.32592 0.0
C543 C 0.19753 0.70528 0.31363 0.0
O544 O 0.19441 0.69873 0.28176 0.0
O545 O 0.18468 0.68682 0.29017 0.0
O546 O 0.19254 0.69618 0.3131 0.0
O547 O 0.20286 0.7077 0.30487 0.0
H548 H 0.17275 0.70663 0.29404 0.0
H549 H 0.15533 0.71445 0.28881 0.0
H550 H 0.15915 0.70028 0.25772 0.0
H551 H 0.17638 0.69257 0.26293 0.0
H552 H 0.21083 0.65542 0.26784 0.0
H553 H 0.20472 0.67032 0.27915 0.0
H554 H 0.23942 0.65215 0.28665 0.0
H555 H 0.23337 0.66703 0.29768 0.0
H556 H 0.22605 0.70289 0.33708 0.0
H557 H 0.19715 0.71982 0.347 0.0
H558 H 0.18923 0.71624 0.32993 0.0
H559 H 0.21765 0.69882 0.32006 0.0
C560 C 0.85498 0.6068 0.35694 0.0
C561 C 0.85903 0.60451 0.3467 0.0
C562 C 0.84587 0.59058 0.34484 0.0
C563 C 0.85449 0.59644 0.34068 0.0
C564 C 0.84211 0.59275 0.35522 0.0
C565 C 0.84663 0.60078 0.3612 0.0
U566 U 0.87435 0.62955 0.36154 0.0
O567 O 0.87084 0.64595 0.3666 0.0
O568 O 0.88087 0.63544 0.37656 0.0
C569 C 0.87608 0.6448 0.37555 0.0
C570 C 0.85887 0.61579 0.3631 0.0
C571 C 0.8708 0.64922 0.38511 0.0
C572 C 0.85556 0.65132 0.39724 0.0
C573 C 0.86062 0.64608 0.38864 0.0
C574 C 0.87086 0.66273 0.39877 0.0
C575 C 0.86055 0.65988 0.40232 0.0
C576 C 0.87592 0.65741 0.39036 0.0
C577 C 0.89724 0.63396 0.341 0.0
C578 C 0.90693 0.65022 0.33723 0.0
C579 C 0.91235 0.63373 0.32865 0.0
C580 C 0.90424 0.62841 0.33413 0.0
C581 C 0.91362 0.64474 0.32992 0.0
C582 C 0.89876 0.64487 0.34273 0.0
C583 C 0.88798 0.62831 0.34548 0.0
O584 O 0.86817 0.61435 0.36769 0.0
O585 O 0.85775 0.62519 0.35852 0.0
O586 O 0.87871 0.63338 0.34498 0.0
O587 O 0.88944 0.62324 0.35456 0.0
H588 H 0.86551 0.60909 0.3433 0.0
H589 H 0.85762 0.59489 0.33274 0.0
H590 H 0.83538 0.58853 0.35861 0.0
H591 H 0.8434 0.60248 0.36907 0.0
H592 H 0.84773 0.64872 0.3998 0.0
H593 H 0.85654 0.63973 0.38466 0.0
H594 H 0.87495 0.6694 0.40214 0.0
H595 H 0.88375 0.65998 0.38769 0.0
H596 H 0.90769 0.65872 0.33836 0.0
H597 H 0.9175 0.62924 0.32324 0.0
H598 H 0.90321 0.61998 0.33274 0.0
H599 H 0.89345 0.64929 0.34803 0.0
C600 C 0.86351 0.40528 0.35931 0.0
C601 C 0.85307 0.40541 0.3636 0.0
C602 C 0.84831 0.42069 0.3523 0.0
C603 C 0.84554 0.41307 0.36014 0.0
C604 C 0.85891 0.42066 0.34835 0.0
C605 C 0.8664 0.41307 0.35185 0.0
U606 U 0.87387 0.38133 0.37592 0.0
O607 O 0.88101 0.36623 0.37033 0.0
O608 O 0.89043 0.37689 0.38016 0.0
C609 C 0.89029 0.36801 0.37469 0.0
C610 C 0.87135 0.39676 0.36187 0.0
C611 C 0.89984 0.36537 0.36816 0.0
C612 C 0.91043 0.36638 0.35177 0.0
C613 C 0.9018 0.37004 0.35813 0.0
C614 C 0.91533 0.35372 0.36559 0.0
C615 C 0.91713 0.35797 0.35534 0.0
C616 C 0.90678 0.35736 0.37189 0.0
C617 C 0.8561 0.37231 0.40008 0.0
C618 C 0.85731 0.35608 0.4108 0.0
C619 C 0.84255 0.3686 0.41353 0.0
C620 C 0.84676 0.37525 0.40567 0.0
C621 C 0.84761 0.35884 0.41601 0.0
C622 C 0.86151 0.36277 0.40279 0.0
C623 C 0.85931 0.37906 0.39101 0.0
O624 O 0.87676 0.39786 0.37068 0.0
O625 O 0.86815 0.38698 0.36038 0.0
O626 O 0.85861 0.3748 0.38153 0.0
O627 O 0.86783 0.38491 0.39212 0.0
H628 H 0.85068 0.39946 0.36942 0.0
H629 H 0.83753 0.41293 0.36352 0.0
H630 H 0.86137 0.42622 0.34219 0.0
H631 H 0.87441 0.41308 0.34843 0.0
H632 H 0.91158 0.36981 0.3439 0.0
H633 H 0.89651 0.37626 0.35511 0.0
H634 H 0.92045 0.3474 0.36869 0.0
H635 H 0.90541 0.3537 0.37962 0.0
H636 H 0.86133 0.34857 0.41256 0.0
H637 H 0.83513 0.37096 0.4175 0.0
H638 H 0.84249 0.38258 0.40369 0.0
H639 H 0.86874 0.36036 0.39853 0.0
C640 C 0.65047 0.15714 0.67725 0.0
C641 C 0.65884 0.15251 0.6712 0.0
C642 C 0.66141 0.13895 0.68494 0.0
C643 C 0.66427 0.14342 0.67501 0.0
C644 C 0.6528 0.14348 0.69075 0.0
C645 C 0.6474 0.1525 0.68695 0.0
U646 U 0.64775 0.18143 0.65892 0.0
O647 O 0.63341 0.1902 0.65356 0.0
O648 O 0.64536 0.19825 0.66317 0.0
C649 C 0.63602 0.19893 0.65854 0.0
C650 C 0.64524 0.16717 0.67403 0.0
C651 C 0.62749 0.20426 0.66468 0.0
C652 C 0.61422 0.20483 0.679 0.0
C653 C 0.6224 0.19938 0.67343 0.0
C654 C 0.6164 0.22005 0.6672 0.0
C655 C 0.61107 0.21521 0.67586 0.0
C656 C 0.62448 0.2146 0.66166 0.0
C657 C 0.66641 0.18523 0.63519 0.0
C658 C 0.66745 0.20208 0.62563 0.0
C659 C 0.67805 0.1868 0.61972 0.0
C660 C 0.6738 0.1807 0.62801 0.0
C661 C 0.675 0.19757 0.61851 0.0
C662 C 0.66313 0.19592 0.6339 0.0
C663 C 0.66257 0.17881 0.6442 0.0
O664 O 0.65109 0.17567 0.67509 0.0
O665 O 0.63994 0.16702 0.66506 0.0
O666 O 0.65286 0.17512 0.64332 0.0
O667 O 0.66447 0.18277 0.65363 0.0
H668 H 0.66132 0.15606 0.66369 0.0
H669 H 0.67089 0.14011 0.67038 0.0
H670 H 0.65028 0.14009 0.69832 0.0
H671 H 0.64095 0.15598 0.69169 0.0
H672 H 0.61026 0.20088 0.68562 0.0
H673 H 0.62471 0.19138 0.67588 0.0
H674 H 0.61438 0.22811 0.66474 0.0
H675 H 0.62841 0.21851 0.65499 0.0
H676 H 0.66493 0.21034 0.6248 0.0
H677 H 0.68395 0.18318 0.61441 0.0
H678 H 0.67643 0.17247 0.62893 0.0
H679 H 0.65737 0.19951 0.63939 0.0
C680 C 0.36204 0.21347 0.61869 0.0
C681 C 0.36509 0.22319 0.61416 0.0
C682 C 0.3494 0.22324 0.60285 0.0
C683 C 0.35882 0.22805 0.6063 0.0
C684 C 0.34652 0.21337 0.60733 0.0
C685 C 0.35279 0.20853 0.6152 0.0
U686 U 0.37968 0.20022 0.64251 0.0
O687 O 0.37053 0.19013 0.65363 0.0
O688 O 0.38173 0.18265 0.64188 0.0
C689 C 0.37442 0.18132 0.64939 0.0
C690 C 0.36833 0.20863 0.62727 0.0
C691 C 0.37304 0.17105 0.6549 0.0
C692 C 0.36342 0.15443 0.6561 0.0
C693 C 0.36578 0.16389 0.65071 0.0
C694 C 0.37585 0.15898 0.66988 0.0
C695 C 0.36835 0.15184 0.66581 0.0
C696 C 0.37812 0.16855 0.6645 0.0
C697 C 0.4038 0.21701 0.65553 0.0
C698 C 0.41435 0.22111 0.67101 0.0
C699 C 0.41691 0.23106 0.65459 0.0
C700 C 0.4091 0.22496 0.64973 0.0
C701 C 0.41961 0.22924 0.66532 0.0
C702 C 0.40649 0.2151 0.66616 0.0
C703 C 0.39512 0.21105 0.65066 0.0
O704 O 0.37704 0.20291 0.62533 0.0
O705 O 0.36576 0.20997 0.63736 0.0
O706 O 0.38533 0.21137 0.65461 0.0
O707 O 0.39673 0.20474 0.64245 0.0
H708 H 0.37224 0.22708 0.61678 0.0
H709 H 0.36135 0.23557 0.60293 0.0
H710 H 0.33926 0.2095 0.60497 0.0
H711 H 0.35034 0.20101 0.61865 0.0
H712 H 0.35745 0.14933 0.65277 0.0
H713 H 0.36169 0.16576 0.64335 0.0
H714 H 0.37994 0.15722 0.67724 0.0
H715 H 0.38373 0.17401 0.66788 0.0
H716 H 0.41608 0.21955 0.6793 0.0
H717 H 0.42086 0.23716 0.64992 0.0
H718 H 0.40708 0.22659 0.64151 0.0
H719 H 0.40244 0.209 0.67076 0.0
C720 C 0.33777 0.82841 0.63398 0.0
C721 C 0.34129 0.81791 0.63189 0.0
C722 C 0.32946 0.81704 0.61646 0.0
C723 C 0.33717 0.81228 0.62321 0.0
C724 C 0.32602 0.82754 0.61869 0.0
C725 C 0.33014 0.83312 0.62727 0.0
U726 U 0.35556 0.83586 0.65853 0.0
O727 O 0.36088 0.85199 0.66266 0.0
O728 O 0.35003 0.84344 0.6735 0.0
C729 C 0.35548 0.85214 0.67171 0.0
C730 C 0.34148 0.83476 0.64312 0.0
C731 C 0.35086 0.86246 0.6755 0.0
C732 C 0.33892 0.87807 0.67436 0.0
C733 C 0.34281 0.86829 0.67018 0.0
C734 C 0.35112 0.87624 0.68905 0.0
C735 C 0.34299 0.88214 0.68393 0.0
C736 C 0.35495 0.86658 0.68491 0.0
C737 C 0.37926 0.81607 0.66672 0.0
C738 C 0.39019 0.81389 0.68262 0.0
C739 C 0.39388 0.803 0.66715 0.0
C740 C 0.3855 0.8081 0.66179 0.0
C741 C 0.39627 0.80561 0.67773 0.0
C742 C 0.38173 0.81906 0.67717 0.0
C743 C 0.36997 0.82042 0.66076 0.0
O744 O 0.33983 0.83091 0.65276 0.0
O745 O 0.3507 0.83953 0.64203 0.0
O746 O 0.37146 0.82881 0.65463 0.0
O747 O 0.36054 0.82042 0.66552 0.0
H748 H 0.34718 0.81408 0.63695 0.0
H749 H 0.3401 0.80425 0.62174 0.0
H750 H 0.31995 0.83147 0.61393 0.0
H751 H 0.32723 0.84116 0.62875 0.0
H752 H 0.33263 0.88236 0.67019 0.0
H753 H 0.33953 0.8653 0.66288 0.0
H754 H 0.35468 0.87915 0.69626 0.0
H755 H 0.36122 0.86229 0.68911 0.0
H756 H 0.39172 0.81616 0.69074 0.0
H757 H 0.3985 0.79696 0.66292 0.0
H758 H 0.38378 0.80567 0.65373 0.0
H759 H 0.37703 0.8252 0.68116 0.0
C760 C 0.61312 0.83229 0.64186 0.0
C761 C 0.61127 0.83415 0.65278 0.0
C762 C 0.5971 0.82096 0.65301 0.0
C763 C 0.60323 0.82855 0.65831 0.0
C764 C 0.59865 0.81966 0.64199 0.0
C765 C 0.60654 0.82526 0.63652 0.0
U766 U 0.63762 0.85024 0.63276 0.0
O767 O 0.6531 0.84356 0.62717 0.0
O768 O 0.64275 0.85256 0.61597 0.0
C769 C 0.65193 0.84755 0.61754 0.0
C770 C 0.62253 0.83622 0.63588 0.0
C771 C 0.65812 0.84299 0.60855 0.0
C772 C 0.66305 0.82893 0.59606 0.0
C773 C 0.6561 0.83303 0.60402 0.0
C774 C 0.67375 0.84478 0.59701 0.0
C775 C 0.67204 0.83474 0.59259 0.0
C776 C 0.66688 0.84882 0.60488 0.0
C777 C 0.64254 0.87673 0.64992 0.0
C778 C 0.65559 0.89072 0.65219 0.0
C779 C 0.64013 0.88978 0.66396 0.0
C780 C 0.63661 0.88094 0.65847 0.0
C781 C 0.64977 0.89468 0.6611 0.0
C782 C 0.65203 0.88174 0.64665 0.0
C783 C 0.63855 0.8668 0.64531 0.0
O784 O 0.62134 0.84455 0.62958 0.0
O785 O 0.63189 0.8356 0.64049 0.0
O786 O 0.6436 0.85774 0.64727 0.0
O787 O 0.63334 0.86704 0.63629 0.0
H788 H 0.61627 0.83954 0.65708 0.0
H789 H 0.6022 0.82975 0.6668 0.0
H790 H 0.59394 0.81406 0.63762 0.0
H791 H 0.60784 0.8237 0.62811 0.0
H792 H 0.66148 0.8212 0.59271 0.0
H793 H 0.64936 0.8284 0.60673 0.0
H794 H 0.68065 0.84938 0.59465 0.0
H795 H 0.66859 0.85648 0.60834 0.0
H796 H 0.66306 0.8943 0.64977 0.0
H797 H 0.63529 0.89271 0.67058 0.0
H798 H 0.62926 0.87723 0.66109 0.0
H799 H 0.65674 0.87862 0.64004 0.0
C800 C 0.6439 0.87321 0.36151 0.0
C801 C 0.6406 0.87839 0.35213 0.0
C802 C 0.62624 0.86556 0.35016 0.0
C803 C 0.6318 0.87461 0.34651 0.0
C804 C 0.62968 0.86051 0.35959 0.0
C805 C 0.63833 0.86433 0.36519 0.0
U806 U 0.66926 0.8897 0.36829 0.0
O807 O 0.6748 0.89339 0.38442 0.0
O808 O 0.68463 0.88318 0.37387 0.0
C809 C 0.6835 0.88741 0.38336 0.0
C810 C 0.65333 0.87635 0.36755 0.0
C811 C 0.68646 0.88046 0.3924 0.0
C812 C 0.68374 0.86524 0.40424 0.0
C813 C 0.67997 0.8722 0.39623 0.0
C814 C 0.70023 0.87502 0.4048 0.0
C815 C 0.69406 0.86643 0.40839 0.0
C816 C 0.69649 0.8819 0.39688 0.0
C817 C 0.67889 0.91325 0.35041 0.0
C818 C 0.69655 0.92119 0.34946 0.0
C819 C 0.68241 0.9278 0.33805 0.0
C820 C 0.67538 0.9205 0.34262 0.0
C821 C 0.69313 0.92807 0.34121 0.0
C822 C 0.68948 0.91377 0.35399 0.0
C823 C 0.67155 0.90475 0.35379 0.0
O824 O 0.66272 0.8745 0.36304 0.0
O825 O 0.65274 0.88543 0.37271 0.0
O826 O 0.66609 0.90617 0.36271 0.0
O827 O 0.67515 0.89493 0.35257 0.0
H828 H 0.64485 0.88527 0.34915 0.0
H829 H 0.62936 0.87879 0.33934 0.0
H830 H 0.62589 0.85338 0.36256 0.0
H831 H 0.64081 0.86017 0.37237 0.0
H832 H 0.67879 0.8587 0.40684 0.0
H833 H 0.67216 0.87098 0.39285 0.0
H834 H 0.7081 0.87633 0.40798 0.0
H835 H 0.7016 0.88824 0.39406 0.0
H836 H 0.70478 0.92122 0.35203 0.0
H837 H 0.67952 0.93308 0.33182 0.0
H838 H 0.66725 0.92025 0.33976 0.0
H839 H 0.69236 0.90822 0.36 0.0
C840 C 0.63144 0.16499 0.32319 0.0
C841 C 0.62606 0.17256 0.3296 0.0
C842 C 0.61424 0.17711 0.31488 0.0
C843 C 0.61745 0.17855 0.32547 0.0
C844 C 0.61955 0.16937 0.30864 0.0
C845 C 0.62803 0.16337 0.31277 0.0
U846 U 0.65549 0.15848 0.34164 0.0
O847 O 0.66193 0.14268 0.3462 0.0
O848 O 0.67171 0.15358 0.33655 0.0
C849 C 0.67097 0.1441 0.34095 0.0
C850 C 0.64083 0.15882 0.32685 0.0
C851 C 0.675 0.13512 0.33454 0.0
C852 C 0.67512 0.12404 0.31873 0.0
C853 C 0.67064 0.13249 0.32467 0.0
C854 C 0.68814 0.12084 0.33258 0.0
C855 C 0.68389 0.11814 0.3227 0.0
C856 C 0.68375 0.12926 0.33842 0.0
C857 C 0.66222 0.17525 0.36606 0.0
C858 C 0.67872 0.17339 0.37606 0.0
C859 C 0.66534 0.18665 0.38122 0.0
C860 C 0.65883 0.18342 0.37292 0.0
C861 C 0.67536 0.18174 0.38278 0.0
C862 C 0.67217 0.17014 0.36774 0.0
C863 C 0.65546 0.17261 0.35696 0.0
O864 O 0.65007 0.16356 0.32579 0.0
O865 O 0.63982 0.15346 0.33584 0.0
O866 O 0.65029 0.16361 0.35768 0.0
O867 O 0.65972 0.17428 0.34748 0.0
H868 H 0.62861 0.17393 0.33767 0.0
H869 H 0.61351 0.1845 0.33044 0.0
H870 H 0.61715 0.16798 0.30052 0.0
H871 H 0.63206 0.15754 0.30773 0.0
H872 H 0.67172 0.12208 0.31112 0.0
H873 H 0.66388 0.13698 0.32156 0.0
H874 H 0.695 0.11653 0.33572 0.0
H875 H 0.68726 0.13126 0.34597 0.0
H876 H 0.68646 0.16955 0.37713 0.0
H877 H 0.66264 0.19314 0.38629 0.0
H878 H 0.6512 0.18747 0.37174 0.0
H879 H 0.67494 0.16381 0.3625 0.0
C880 C 0.32375 0.13264 0.37048 0.0
C881 C 0.32654 0.13049 0.35982 0.0
C882 C 0.31578 0.11435 0.36026 0.0
C883 C 0.32261 0.12143 0.35476 0.0
C884 C 0.31321 0.11652 0.37099 0.0
C885 C 0.31717 0.12551 0.37602 0.0
U886 U 0.34117 0.15773 0.37517 0.0
O887 O 0.33565 0.17374 0.38001 0.0
O888 O 0.34609 0.1643 0.39057 0.0
C889 C 0.34074 0.17329 0.3891 0.0
C890 C 0.32698 0.14246 0.37596 0.0
C891 C 0.33546 0.17833 0.39843 0.0
C892 C 0.32071 0.18082 0.41116 0.0
C893 C 0.32569 0.17495 0.40287 0.0
C894 C 0.3353 0.19324 0.41065 0.0
C895 C 0.3254 0.19016 0.41492 0.0
C896 C 0.34028 0.18737 0.40255 0.0
C897 C 0.36532 0.16344 0.35562 0.0
C898 C 0.37516 0.17968 0.3517 0.0
C899 C 0.38064 0.16307 0.34344 0.0
C900 C 0.37244 0.15783 0.34891 0.0
C901 C 0.38199 0.17409 0.34455 0.0
C902 C 0.36683 0.1744 0.35715 0.0
C903 C 0.35604 0.15763 0.36007 0.0
O904 O 0.33602 0.14202 0.38117 0.0
O905 O 0.32547 0.15152 0.37084 0.0
O906 O 0.34654 0.16212 0.35897 0.0
O907 O 0.35724 0.15277 0.3693 0.0
H908 H 0.33164 0.13588 0.35537 0.0
H909 H 0.32491 0.11999 0.34654 0.0
H910 H 0.30786 0.11145 0.37549 0.0
H911 H 0.31486 0.12703 0.38422 0.0
H912 H 0.31303 0.17833 0.41431 0.0
H913 H 0.32182 0.168 0.39978 0.0
H914 H 0.3391 0.20037 0.41344 0.0
H915 H 0.34781 0.1901 0.39925 0.0
H916 H 0.37598 0.18818 0.35274 0.0
H917 H 0.38586 0.15847 0.33818 0.0
H918 H 0.37146 0.14938 0.34763 0.0
H919 H 0.36143 0.17891 0.3623 0.0
C920 C 0.37163 0.91093 0.3838 0.0
C921 C 0.36123 0.91012 0.38806 0.0
C922 C 0.35534 0.92551 0.37744 0.0
C923 C 0.35317 0.91738 0.38496 0.0
C924 C 0.36592 0.92651 0.37361 0.0
C925 C 0.37395 0.91932 0.37678 0.0
U926 U 0.38326 0.88615 0.39838 0.0
O927 O 0.39135 0.8721 0.39145 0.0
O928 O 0.40005 0.88226 0.40242 0.0
C929 C 0.40045 0.87389 0.39618 0.0
C930 C 0.37996 0.9027 0.38578 0.0
C931 C 0.41037 0.87188 0.38988 0.0
C932 C 0.42049 0.87158 0.37311 0.0
C933 C 0.41166 0.87525 0.37923 0.0
C934 C 0.42703 0.86167 0.38836 0.0
C935 C 0.42809 0.86443 0.37752 0.0
C936 C 0.41828 0.86533 0.39443 0.0
C937 C 0.36555 0.87401 0.42148 0.0
C938 C 0.36336 0.8559 0.42825 0.0
C939 C 0.35393 0.87059 0.4368 0.0
C940 C 0.35869 0.87771 0.42963 0.0
C941 C 0.35593 0.85957 0.43601 0.0
C942 C 0.36809 0.86306 0.421 0.0
C943 C 0.36868 0.88162 0.41298 0.0
O944 O 0.38513 0.90328 0.3948 0.0
O945 O 0.37742 0.89292 0.38332 0.0
O946 O 0.3684 0.87821 0.40312 0.0
O947 O 0.37677 0.88787 0.41478 0.0
H948 H 0.35928 0.90372 0.39355 0.0
H949 H 0.3452 0.91646 0.38828 0.0
H950 H 0.36794 0.93252 0.36773 0.0
H951 H 0.38192 0.92007 0.37339 0.0
H952 H 0.42104 0.87389 0.3648 0.0
H953 H 0.40565 0.88032 0.37554 0.0
H954 H 0.43283 0.8564 0.39213 0.0
H955 H 0.41746 0.86265 0.40262 0.0
H956 H 0.36507 0.84746 0.42742 0.0
H957 H 0.3484 0.87371 0.44278 0.0
H958 H 0.35662 0.88611 0.43017 0.0
H959 H 0.37336 0.86 0.41476 0.0
C960 C 0.7144 0.67995 0.22163 0.0
C961 C 0.71851 0.67362 0.21328 0.0
C962 C 0.7231 0.65938 0.22593 0.0
C963 C 0.72282 0.66342 0.21542 0.0
C964 C 0.71935 0.66596 0.23425 0.0
C965 C 0.71506 0.67611 0.23211 0.0
U966 U 0.70693 0.70618 0.2062 0.0
O967 O 0.69079 0.71282 0.20343 0.0
O968 O 0.70211 0.72172 0.21299 0.0
C969 C 0.6924 0.72134 0.20916 0.0
C970 C 0.70849 0.69009 0.21971 0.0
C971 C 0.68348 0.72492 0.21615 0.0
C972 C 0.67167 0.7232 0.23167 0.0
C973 C 0.68052 0.71954 0.22557 0.0
C974 C 0.66886 0.73762 0.21905 0.0
C975 C 0.66574 0.7323 0.22845 0.0
C976 C 0.6776 0.73397 0.213 0.0
C977 C 0.72193 0.71316 0.17953 0.0
C978 C 0.7179 0.72721 0.16658 0.0
C979 C 0.73212 0.71434 0.16296 0.0
C980 C 0.73015 0.70943 0.17278 0.0
C981 C 0.72589 0.72314 0.15959 0.0
C982 C 0.71589 0.72221 0.17648 0.0
C983 C 0.71963 0.70692 0.18931 0.0
O984 O 0.71379 0.69897 0.22076 0.0
O985 O 0.70192 0.69033 0.21163 0.0
O986 O 0.71055 0.70182 0.18959 0.0
O987 O 0.72201 0.71121 0.19848 0.0
H988 H 0.71812 0.67643 0.20512 0.0
H989 H 0.72577 0.65864 0.20883 0.0
H990 H 0.71928 0.66311 0.24241 0.0
H991 H 0.71188 0.68082 0.23866 0.0
H992 H 0.66951 0.71895 0.2389 0.0
H993 H 0.68496 0.71251 0.22814 0.0
H994 H 0.66438 0.74451 0.2162 0.0
H995 H 0.67971 0.73818 0.20573 0.0
H996 H 0.71295 0.73397 0.16422 0.0
H997 H 0.73846 0.71112 0.1579 0.0
H998 H 0.73493 0.70249 0.17499 0.0
H999 H 0.70949 0.72523 0.1816 0.0
C1000 C 0.37942 0.66492 0.13107 0.0
C1001 C 0.38508 0.67437 0.12951 0.0
C1002 C 0.37341 0.67932 0.1148 0.0
C1003 C 0.38209 0.68154 0.12142 0.0
C1004 C 0.36791 0.66976 0.11638 0.0
C1005 C 0.3709 0.66264 0.12442 0.0
U1006 U 0.39487 0.65598 0.15598 0.0
O1007 O 0.38857 0.64876 0.17071 0.0
O1008 O 0.39997 0.63972 0.16065 0.0
C1009 C 0.39339 0.63954 0.16891 0.0
C1010 C 0.38189 0.65745 0.13978 0.0
C1011 C 0.38651 0.63018 0.16987 0.0
C1012 C 0.36988 0.62118 0.16638 0.0
C1013 C 0.37675 0.6297 0.16451 0.0
C1014 C 0.38265 0.61338 0.17865 0.0
C1015 C 0.37267 0.61301 0.17363 0.0
C1016 C 0.38948 0.62188 0.17677 0.0
C1017 C 0.41681 0.67519 0.16609 0.0
C1018 C 0.42721 0.67451 0.18233 0.0
C1019 C 0.42906 0.68934 0.17004 0.0
C1020 C 0.42163 0.68481 0.16335 0.0
C1021 C 0.43195 0.68431 0.17965 0.0
C1022 C 0.41967 0.66998 0.17559 0.0
C1023 C 0.4085 0.6713 0.159 0.0
O1024 O 0.39127 0.65256 0.13926 0.0
O1025 O 0.37933 0.6608 0.14938 0.0
O1026 O 0.39865 0.67151 0.16279 0.0
O1027 O 0.41082 0.66279 0.15332 0.0
H1028 H 0.39169 0.67625 0.13461 0.0
H1029 H 0.38653 0.68881 0.12036 0.0
H1030 H 0.36106 0.66789 0.1116 0.0
H1031 H 0.36642 0.65541 0.12557 0.0
H1032 H 0.36234 0.62106 0.16225 0.0
H1033 H 0.37434 0.63603 0.15908 0.0
H1034 H 0.38501 0.60733 0.18438 0.0
H1035 H 0.39698 0.62213 0.18097 0.0
H1036 H 0.42929 0.67036 0.18962 0.0
H1037 H 0.4323 0.69699 0.16778 0.0
H1038 H 0.41945 0.68899 0.15609 0.0
H1039 H 0.41599 0.66253 0.17785 0.0
C1040 C 0.37262 0.36777 0.08995 0.0
C1041 C 0.37829 0.35815 0.08813 0.0
C1042 C 0.3646 0.35262 0.07575 0.0
C1043 C 0.37432 0.35063 0.081 0.0
C1044 C 0.35927 0.36243 0.07729 0.0
C1045 C 0.36327 0.36993 0.08427 0.0
U1046 U 0.3887 0.37733 0.11432 0.0
O1047 O 0.39297 0.39377 0.11858 0.0
O1048 O 0.38222 0.38457 0.12897 0.0
C1049 C 0.387 0.39367 0.12729 0.0
C1050 C 0.37554 0.37534 0.09833 0.0
C1051 C 0.38079 0.40341 0.13006 0.0
C1052 C 0.36452 0.41443 0.12993 0.0
C1053 C 0.37076 0.40597 0.1257 0.0
C1054 C 0.37848 0.41802 0.1425 0.0
C1055 C 0.36819 0.4203 0.13865 0.0
C1056 C 0.38468 0.40969 0.13826 0.0
C1057 C 0.41141 0.35868 0.12547 0.0
C1058 C 0.42047 0.35942 0.14249 0.0
C1059 C 0.42419 0.34479 0.13047 0.0
C1060 C 0.4171 0.34927 0.12314 0.0
C1061 C 0.4259 0.34968 0.14034 0.0
C1062 C 0.41323 0.36385 0.13513 0.0
C1063 C 0.40307 0.36222 0.11797 0.0
O1064 O 0.37325 0.37236 0.10813 0.0
O1065 O 0.38482 0.38003 0.09739 0.0
O1066 O 0.40502 0.37063 0.11199 0.0
O1067 O 0.39316 0.36193 0.12156 0.0
H1068 H 0.38551 0.3563 0.09248 0.0
H1069 H 0.37852 0.34307 0.08 0.0
H1070 H 0.35177 0.36415 0.07334 0.0
H1071 H 0.35878 0.37728 0.08556 0.0
H1072 H 0.35661 0.41599 0.1268 0.0
H1073 H 0.3676 0.4012 0.11937 0.0
H1074 H 0.38161 0.42247 0.14908 0.0
H1075 H 0.39239 0.40786 0.14173 0.0
H1076 H 0.42167 0.36356 0.14989 0.0
H1077 H 0.42794 0.33721 0.12851 0.0
H1078 H 0.41575 0.34512 0.11575 0.0
H1079 H 0.4089 0.37115 0.13709 0.0
C1080 C 0.61108 0.34769 0.15265 0.0
C1081 C 0.60944 0.3497 0.16356 0.0
C1082 C 0.59454 0.33732 0.16413 0.0
C1083 C 0.6012 0.34458 0.16925 0.0
C1084 C 0.59598 0.33576 0.15311 0.0
C1085 C 0.60415 0.34086 0.14747 0.0
U1086 U 0.63501 0.36656 0.14631 0.0
O1087 O 0.65107 0.36194 0.14038 0.0
O1088 O 0.64056 0.37201 0.13047 0.0
C1089 C 0.64987 0.36707 0.1313 0.0
C1090 C 0.62036 0.35177 0.14653 0.0
C1091 C 0.65448 0.36196 0.12173 0.0
C1092 C 0.65422 0.34967 0.10682 0.0
C1093 C 0.64922 0.35419 0.11587 0.0
C1094 C 0.6697 0.36057 0.1096 0.0
C1095 C 0.66456 0.35283 0.10356 0.0
C1096 C 0.66469 0.3651 0.11848 0.0
C1097 C 0.6422 0.39003 0.16454 0.0
C1098 C 0.65924 0.39909 0.16537 0.0
C1099 C 0.64407 0.40552 0.17582 0.0
C1100 C 0.63781 0.39747 0.17169 0.0
C1101 C 0.65494 0.40637 0.17288 0.0
C1102 C 0.65294 0.39099 0.16124 0.0
C1103 C 0.63558 0.381 0.16134 0.0
O1104 O 0.61913 0.36097 0.14159 0.0
O1105 O 0.6298 0.35052 0.1509 0.0
O1106 O 0.64004 0.37148 0.16219 0.0
O1107 O 0.62999 0.38227 0.15262 0.0
H1108 H 0.61471 0.35496 0.16772 0.0
H1109 H 0.60035 0.34597 0.17772 0.0
H1110 H 0.59088 0.33043 0.14884 0.0
H1111 H 0.60524 0.33922 0.13906 0.0
H1112 H 0.64996 0.34379 0.10236 0.0
H1113 H 0.64131 0.35165 0.11828 0.0
H1114 H 0.67775 0.36302 0.10767 0.0
H1115 H 0.6689 0.37104 0.12294 0.0
H1116 H 0.66752 0.39958 0.16277 0.0
H1117 H 0.64047 0.4108 0.18168 0.0
H1118 H 0.62956 0.39686 0.17436 0.0
H1119 H 0.65649 0.38535 0.15568 0.0
C1120 C 0.64547 0.38367 0.86229 0.0
C1121 C 0.64511 0.38909 0.85248 0.0
C1122 C 0.62863 0.38004 0.84799 0.0
C1123 C 0.63676 0.3873 0.84538 0.0
C1124 C 0.62898 0.37482 0.85794 0.0
C1125 C 0.63729 0.37663 0.86499 0.0
U1126 U 0.67158 0.3962 0.87232 0.0
O1127 O 0.67678 0.39837 0.88886 0.0
O1128 O 0.68611 0.38802 0.87801 0.0
C1129 C 0.68505 0.39184 0.88768 0.0
C1130 C 0.6545 0.38464 0.86964 0.0
C1131 C 0.68732 0.38432 0.89644 0.0
C1132 C 0.68359 0.3685 0.90709 0.0
C1133 C 0.68049 0.37596 0.89927 0.0
C1134 C 0.70013 0.37792 0.90941 0.0
C1135 C 0.69358 0.36929 0.91205 0.0
C1136 C 0.69703 0.38533 0.90169 0.0
C1137 C 0.68388 0.41986 0.85638 0.0
C1138 C 0.70161 0.42737 0.85812 0.0
C1139 C 0.69007 0.43326 0.84382 0.0
C1140 C 0.68211 0.42649 0.84754 0.0
C1141 C 0.69999 0.43361 0.8489 0.0
C1142 C 0.69361 0.42045 0.86181 0.0
C1143 C 0.67571 0.41189 0.85898 0.0
O1144 O 0.664 0.3821 0.86572 0.0
O1145 O 0.65453 0.39314 0.87569 0.0
O1146 O 0.67011 0.4132 0.86783 0.0
O1147 O 0.67851 0.40192 0.85721 0.0
H1148 H 0.65136 0.39458 0.85024 0.0
H1149 H 0.63669 0.39156 0.83785 0.0
H1150 H 0.62301 0.36905 0.86018 0.0
H1151 H 0.63746 0.37231 0.8725 0.0
H1152 H 0.6784 0.36191 0.90895 0.0
H1153 H 0.67294 0.37507 0.89527 0.0
H1154 H 0.70777 0.37886 0.91322 0.0
H1155 H 0.70237 0.39175 0.89964 0.0
H1156 H 0.7092 0.42748 0.86216 0.0
H1157 H 0.68857 0.43805 0.83676 0.0
H1158 H 0.67466 0.42615 0.84325 0.0
H1159 H 0.69513 0.41536 0.86865 0.0
C1160 C 0.62731 0.62819 0.86186 0.0
C1161 C 0.62281 0.63753 0.86625 0.0
C1162 C 0.61041 0.63919 0.8513 0.0
C1163 C 0.61439 0.64295 0.86104 0.0
C1164 C 0.6149 0.62968 0.84717 0.0
C1165 C 0.62315 0.62425 0.85241 0.0
U1166 U 0.65127 0.62313 0.88132 0.0
O1167 O 0.65815 0.60748 0.88606 0.0
O1168 O 0.66776 0.61877 0.87671 0.0
C1169 C 0.66734 0.60931 0.88122 0.0
C1170 C 0.6368 0.62265 0.8663 0.0
C1171 C 0.67257 0.60054 0.87526 0.0
C1172 C 0.67501 0.58957 0.85944 0.0
C1173 C 0.66873 0.59674 0.86555 0.0
C1174 C 0.68867 0.58967 0.87293 0.0
C1175 C 0.68522 0.58629 0.86294 0.0
C1176 C 0.68241 0.5967 0.87901 0.0
C1177 C 0.65687 0.64217 0.9049 0.0
C1178 C 0.67375 0.6451 0.91387 0.0
C1179 C 0.65793 0.65539 0.91886 0.0
C1180 C 0.65197 0.64987 0.91145 0.0
C1181 C 0.66895 0.65333 0.91994 0.0
C1182 C 0.66776 0.63959 0.90633 0.0
C1183 C 0.65064 0.63803 0.89594 0.0
O1184 O 0.64593 0.62758 0.86525 0.0
O1185 O 0.63571 0.61767 0.87549 0.0
O1186 O 0.64607 0.62876 0.89725 0.0
O1187 O 0.65489 0.63934 0.8864 0.0
H1188 H 0.62591 0.64072 0.87355 0.0
H1189 H 0.61108 0.65013 0.86462 0.0
H1190 H 0.61237 0.62655 0.83963 0.0
H1191 H 0.62656 0.6171 0.84885 0.0
H1192 H 0.67218 0.58709 0.85175 0.0
H1193 H 0.66115 0.59965 0.86251 0.0
H1194 H 0.69645 0.5872 0.87586 0.0
H1195 H 0.68551 0.59953 0.88647 0.0
H1196 H 0.68223 0.64333 0.91452 0.0
H1197 H 0.65397 0.66157 0.92352 0.0
H1198 H 0.6436 0.65197 0.9105 0.0
H1199 H 0.67171 0.63367 0.90134 0.0
C1200 C 0.31927 0.6673 0.82457 0.0
C1201 C 0.32064 0.65983 0.81646 0.0
C1202 C 0.30428 0.65116 0.82209 0.0
C1203 C 0.31322 0.65183 0.81522 0.0
C1204 C 0.30289 0.6587 0.83025 0.0
C1205 C 0.31035 0.66676 0.83148 0.0
U1206 U 0.33175 0.69029 0.83944 0.0
O1207 O 0.32654 0.68666 0.85581 0.0
O1208 O 0.31767 0.69857 0.84632 0.0
C1209 C 0.31904 0.69414 0.85574 0.0
C1210 C 0.32749 0.67529 0.82588 0.0
C1211 C 0.31933 0.70157 0.86462 0.0
C1212 C 0.31065 0.70943 0.88008 0.0
C1213 C 0.31049 0.70242 0.87153 0.0
C1214 C 0.32859 0.7147 0.87494 0.0
C1215 C 0.3197 0.71557 0.88185 0.0
C1216 C 0.32838 0.70777 0.8663 0.0
C1217 C 0.35809 0.70119 0.8292 0.0
C1218 C 0.37549 0.70763 0.82395 0.0
C1219 C 0.3666 0.69484 0.81289 0.0
C1220 C 0.35796 0.69479 0.82008 0.0
C1221 C 0.37539 0.70135 0.81474 0.0
C1222 C 0.3669 0.70753 0.83113 0.0
C1223 C 0.34919 0.70126 0.83688 0.0
O1224 O 0.33371 0.67376 0.83412 0.0
O1225 O 0.32437 0.68526 0.82456 0.0
O1226 O 0.34865 0.69276 0.84302 0.0
O1227 O 0.33989 0.70439 0.83311 0.0
H1228 H 0.32753 0.66011 0.81114 0.0
H1229 H 0.3146 0.64602 0.80899 0.0
H1230 H 0.29604 0.65839 0.83562 0.0
H1231 H 0.30924 0.67249 0.83783 0.0
H1232 H 0.30376 0.70997 0.8854 0.0
H1233 H 0.30348 0.69766 0.87033 0.0
H1234 H 0.33561 0.71944 0.87619 0.0
H1235 H 0.33526 0.70721 0.86097 0.0
H1236 H 0.38226 0.71258 0.82563 0.0
H1237 H 0.36636 0.68996 0.80582 0.0
H1238 H 0.35118 0.6898 0.81853 0.0
H1239 H 0.36714 0.71243 0.83819 0.0
C1240 C 0.30857 0.37578 0.82094 0.0
C1241 C 0.29791 0.37539 0.82466 0.0
C1242 C 0.29416 0.39298 0.81684 0.0
C1243 C 0.29074 0.38393 0.82259 0.0
C1244 C 0.30481 0.3932 0.81312 0.0
C1245 C 0.31189 0.38473 0.81515 0.0
U1246 U 0.32154 0.35067 0.83489 0.0
O1247 O 0.33033 0.33735 0.82717 0.0
O1248 O 0.33866 0.34798 0.83795 0.0
C1249 C 0.33947 0.33982 0.83147 0.0
C1250 C 0.31652 0.36708 0.82263 0.0
C1251 C 0.34912 0.3392 0.82458 0.0
C1252 C 0.36171 0.34657 0.8116 0.0
C1253 C 0.35211 0.34743 0.81757 0.0
C1254 C 0.36527 0.32927 0.81956 0.0
C1255 C 0.36842 0.33746 0.81256 0.0
C1256 C 0.35575 0.33013 0.82547 0.0
C1257 C 0.30771 0.33752 0.85969 0.0
C1258 C 0.31477 0.32411 0.87201 0.0
C1259 C 0.29659 0.33082 0.8742 0.0
C1260 C 0.29792 0.33735 0.86525 0.0
C1261 C 0.30502 0.32425 0.8778 0.0
C1262 C 0.31613 0.33076 0.86303 0.0
C1263 C 0.30882 0.34523 0.85082 0.0
O1264 O 0.32255 0.36779 0.83107 0.0
O1265 O 0.31361 0.35729 0.82066 0.0
O1266 O 0.30789 0.34152 0.84112 0.0
O1267 O 0.31637 0.3523 0.85164 0.0
H1268 H 0.29516 0.36854 0.82914 0.0
H1269 H 0.2826 0.38353 0.82561 0.0
H1270 H 0.30769 0.39991 0.80851 0.0
H1271 H 0.32004 0.38516 0.81213 0.0
H1272 H 0.36384 0.353 0.80623 0.0
H1273 H 0.34711 0.35452 0.81677 0.0
H1274 H 0.37029 0.32224 0.82069 0.0
H1275 H 0.35364 0.32373 0.8309 0.0
H1276 H 0.32141 0.31913 0.87462 0.0
H1277 H 0.28895 0.33098 0.87837 0.0
H1278 H 0.29132 0.34246 0.86278 0.0
H1279 H 0.32376 0.33077 0.85883 0.0
H1280 H 0.22731 0.18802 0.01711 0.0
H1281 H 0.27791 0.26704 0.07987 0.0
H1282 H 0.273 0.2209 0.9966 0.0
H1283 H 0.26419 0.21018 0.98334 0.0
H1284 H 0.24458 0.23749 0.97453 0.0
H1285 H 0.2532 0.24804 0.98821 0.0
H1286 H 0.26462 0.21528 0.0189 0.0
H1287 H 0.25106 0.20148 0.01909 0.0
H1288 H 0.22803 0.22417 0.00639 0.0
H1289 H 0.2416 0.23796 0.00648 0.0
H1290 H 0.27434 0.22603 0.03652 0.0
H1291 H 0.26664 0.21875 0.05306 0.0
H1292 H 0.23763 0.23718 0.04788 0.0
H1293 H 0.24534 0.24433 0.03127 0.0
H1294 H 0.2915 0.24525 0.03317 0.0
H1295 H 0.29635 0.25024 0.05126 0.0
H1296 H 0.26502 0.26481 0.05587 0.0
H1297 H 0.26037 0.25997 0.03771 0.0
H1298 H 0.29799 0.25316 0.00977 0.0
H1299 H 0.31084 0.26632 0.0157 0.0
H1300 H 0.28467 0.28623 0.02727 0.0
H1301 H 0.27197 0.27307 0.02134 0.0
H1302 H 0.28615 0.24155 0.98771 0.0
H1303 H 0.29082 0.25078 0.97102 0.0
H1304 H 0.27307 0.27865 0.98171 0.0
H1305 H 0.26825 0.26932 0.99819 0.0
O1306 O 0.23257 0.19357 0.01686 0.0
O1307 O 0.22122 0.20536 0.00972 0.0
O1308 O 0.29262 0.25839 0.06959 0.0
O1309 O 0.27635 0.26527 0.07258 0.0
C1310 C 0.26663 0.24034 1.00356 0.0
C1311 C 0.26216 0.2361 0.01304 0.0
C1312 C 0.26506 0.24015 0.02294 0.0
C1313 C 0.27238 0.24847 0.02354 0.0
C1314 C 0.27653 0.25315 0.01412 0.0
C1315 C 0.27354 0.24917 1.00405 0.0
C1316 C 0.26379 0.23527 0.99335 0.0
C1317 C 0.26707 0.22467 0.99154 0.0
C1318 C 0.26197 0.21854 0.98397 0.0
C1319 C 0.25356 0.22291 0.97794 0.0
C1320 C 0.25088 0.2338 0.97919 0.0
C1321 C 0.25594 0.23992 0.98685 0.0
C1322 C 0.25408 0.22759 0.01266 0.0
C1323 C 0.25664 0.21724 0.01617 0.0
C1324 C 0.24888 0.20938 0.01626 0.0
C1325 C 0.23846 0.21173 0.01276 0.0
C1326 C 0.23598 0.2221 0.00913 0.0
C1327 C 0.24372 0.22997 0.00913 0.0
C1328 C 0.26036 0.23567 0.03279 0.0
C1329 C 0.26631 0.22844 0.03896 0.0
C1330 C 0.26192 0.22429 0.04833 0.0
C1331 C 0.25158 0.22745 0.05166 0.0
C1332 C 0.24564 0.23471 0.04546 0.0
C1333 C 0.24999 0.23874 0.03602 0.0
C1334 C 0.2756 0.25225 0.03417 0.0
C1335 C 0.28576 0.24965 0.03807 0.0
C1336 C 0.28848 0.25246 0.04841 0.0
C1337 C 0.28104 0.25787 0.05503 0.0
C1338 C 0.27092 0.26062 0.051 0.0
C1339 C 0.26825 0.25787 0.04064 0.0
C1340 C 0.28404 0.26214 0.01513 0.0
C1341 C 0.29504 0.26052 0.01327 0.0
C1342 C 0.30237 0.26803 0.01673 0.0
C1343 C 0.2988 0.27725 0.02214 0.0
C1344 C 0.28772 0.27912 0.02334 0.0
C1345 C 0.28043 0.27168 0.01983 0.0
C1346 C 0.27687 0.25477 0.99416 0.0
C1347 C 0.28329 0.24965 0.98643 0.0
C1348 C 0.286 0.25495 0.97695 0.0
C1349 C 0.28227 0.26543 0.97505 0.0
C1350 C 0.27594 0.27054 0.98289 0.0
C1351 C 0.27326 0.26526 0.99234 0.0
C1352 C 0.23021 0.20339 0.01299 0.0
C1353 C 0.28374 0.26053 0.06615 0.0
H1354 H 0.82273 0.22612 0.99886 0.0
H1355 H 0.75713 0.27094 0.08409 0.0
H1356 H 0.78809 0.27507 0.99097 0.0
H1357 H 0.79289 0.26821 0.97325 0.0
H1358 H 0.76253 0.25246 0.97199 0.0
H1359 H 0.75775 0.25939 0.98966 0.0
H1360 H 0.79835 0.26413 0.01186 0.0
H1361 H 0.81122 0.25001 0.00702 0.0
H1362 H 0.78528 0.23074 0.99612 0.0
H1363 H 0.77249 0.24479 1.0013 0.0
H1364 H 0.79023 0.27389 0.03332 0.0
H1365 H 0.80188 0.26462 0.04594 0.0
H1366 H 0.78625 0.23501 0.0393 0.0
H1367 H 0.77439 0.24445 0.02682 0.0
H1368 H 0.77154 0.29037 0.03649 0.0
H1369 H 0.76939 0.29274 0.05575 0.0
H1370 H 0.75666 0.26102 0.05853 0.0
H1371 H 0.75875 0.25881 0.03927 0.0
H1372 H 0.7597 0.30036 0.01633 0.0
H1373 H 0.74592 0.31203 0.02442 0.0
H1374 H 0.72943 0.28421 0.03622 0.0
H1375 H 0.74277 0.27279 0.02759 0.0
H1376 H 0.77019 0.29267 0.99336 0.0
H1377 H 0.75993 0.30365 0.98089 0.0
H1378 H 0.73138 0.28638 0.98943 0.0
H1379 H 0.74171 0.27565 1.00211 0.0
O1380 O 0.81753 0.23167 1.00057 0.0
O1381 O 0.80403 0.22247 0.99421 0.0
O1382 O 0.76436 0.2866 0.07459 0.0
O1383 O 0.75791 0.27029 0.07644 0.0
C1384 C 0.77072 0.26976 1.00298 0.0
C1385 C 0.77663 0.26376 0.01046 0.0
C1386 C 0.77487 0.26546 0.0214 0.0
C1387 C 0.76704 0.27283 0.02494 0.0
C1388 C 0.7609 0.27861 0.01747 0.0
C1389 C 0.76284 0.27718 0.00647 0.0
C1390 C 0.77257 0.26773 0.99152 0.0
C1391 C 0.78236 0.27041 0.9867 0.0
C1392 C 0.78509 0.26648 0.97664 0.0
C1393 C 0.77809 0.25976 0.97138 0.0
C1394 C 0.76806 0.25757 0.97598 0.0
C1395 C 0.76529 0.2616 0.98598 0.0
C1396 C 0.7845 0.25548 0.0069 0.0
C1397 C 0.79548 0.25686 0.00841 0.0
C1398 C 0.8028 0.24878 0.00564 0.0
C1399 C 0.79927 0.23924 1.0012 0.0
C1400 C 0.78827 0.23798 0.99952 0.0
C1401 C 0.78095 0.24601 1.00241 0.0
C1402 C 0.78157 0.25979 0.02921 0.0
C1403 C 0.78929 0.26542 0.03467 0.0
C1404 C 0.79595 0.26012 0.04177 0.0
C1405 C 0.79498 0.24912 0.04344 0.0
C1406 C 0.78709 0.24351 0.03812 0.0
C1407 C 0.78039 0.24884 0.031 0.0
C1408 C 0.76529 0.27443 0.03653 0.0
C1409 C 0.7682 0.28399 0.04128 0.0
C1410 C 0.76701 0.2853 0.05227 0.0
C1411 C 0.76288 0.27705 0.05867 0.0
C1412 C 0.75988 0.26752 0.05384 0.0
C1413 C 0.76106 0.26623 0.04285 0.0
C1414 C 0.75217 0.28576 0.02136 0.0
C1415 C 0.75295 0.29685 0.02047 0.0
C1416 C 0.74515 0.30348 0.02521 0.0
C1417 C 0.73653 0.29908 0.03097 0.0
C1418 C 0.73578 0.28792 0.03166 0.0
C1419 C 0.74344 0.28135 0.0268 0.0
C1420 C 0.75666 0.28343 0.99862 0.0
C1421 C 0.76172 0.29126 0.99248 0.0
C1422 C 0.75585 0.29747 0.98532 0.0
C1423 C 0.74482 0.2959 0.98415 0.0
C1424 C 0.73982 0.28792 0.99026 0.0
C1425 C 0.7457 0.28174 0.99744 0.0
C1426 C 0.80705 0.23061 0.99842 0.0
C1427 C 0.76177 0.27832 0.07037 0.0
H1428 H 0.70373 0.7136 0.02966 0.0
H1429 H 0.75918 0.75862 0.93427 0.0
H1430 H 0.73097 0.76426 0.02763 0.0
H1431 H 0.72797 0.76134 0.04667 0.0
H1432 H 0.76118 0.7519 0.05002 0.0
H1433 H 0.76409 0.75488 0.03089 0.0
H1434 H 0.72211 0.75123 0.00937 0.0
H1435 H 0.71154 0.7368 0.01703 0.0
H1436 H 0.74052 0.72164 0.02859 0.0
H1437 H 0.75101 0.73605 0.02073 0.0
H1438 H 0.72632 0.75648 0.98691 0.0
H1439 H 0.71665 0.74295 0.97727 0.0
H1440 H 0.7414 0.71971 0.98499 0.0
H1441 H 0.75062 0.73322 0.99508 0.0
H1442 H 0.74234 0.77778 0.98114 0.0
H1443 H 0.74354 0.77951 0.96173 0.0
H1444 H 0.76158 0.74981 0.96026 0.0
H1445 H 0.76047 0.74828 0.97967 0.0
H1446 H 0.75373 0.79099 1.00019 0.0
H1447 H 0.76373 0.80432 0.98997 0.0
H1448 H 0.78457 0.77934 0.9776 0.0
H1449 H 0.77439 0.76616 0.98762 0.0
H1450 H 0.74914 0.78299 0.02598 0.0
H1451 H 0.76046 0.79303 0.03798 0.0
H1452 H 0.78863 0.77877 0.02323 0.0
H1453 H 0.77731 0.76857 0.01151 0.0
O1454 O 0.70807 0.71926 0.02676 0.0
O1455 O 0.72315 0.71197 0.03284 0.0
O1456 O 0.74945 0.77348 0.94313 0.0
O1457 O 0.75856 0.75814 0.94195 0.0
C1458 C 0.74912 0.76052 0.01598 0.0
C1459 C 0.74372 0.75323 0.00952 0.0
C1460 C 0.7446 0.75388 0.99832 0.0
C1461 C 0.75073 0.762 0.99351 0.0
C1462 C 0.7564 0.76922 0.99987 0.0
C1463 C 0.75569 0.76835 0.01114 0.0
C1464 C 0.74775 0.75978 0.02782 0.0
C1465 C 0.73763 0.76165 0.03249 0.0
C1466 C 0.73591 0.75989 0.04339 0.0
C1467 C 0.7443 0.75627 0.04993 0.0
C1468 C 0.75454 0.75477 0.04528 0.0
C1469 C 0.75624 0.75647 0.03433 0.0
C1470 C 0.73731 0.74465 0.01449 0.0
C1471 C 0.72615 0.74477 0.01354 0.0
C1472 C 0.72014 0.73653 0.01794 0.0
C1473 C 0.72519 0.72806 0.02341 0.0
C1474 C 0.73639 0.72804 0.02442 0.0
C1475 C 0.74239 0.73626 0.01997 0.0
C1476 C 0.73918 0.74585 0.99167 0.0
C1477 C 0.72966 0.74847 0.98644 0.0
C1478 C 0.72417 0.74069 0.98088 0.0
C1479 C 0.72817 0.73012 0.98028 0.0
C1480 C 0.73788 0.72764 0.9854 0.0
C1481 C 0.74326 0.73539 0.99109 0.0
C1482 C 0.75127 0.76289 0.98176 0.0
C1483 C 0.74654 0.77167 0.97659 0.0
C1484 C 0.74723 0.77263 0.96552 0.0
C1485 C 0.75264 0.76478 0.95945 0.0
C1486 C 0.75734 0.75598 0.96469 0.0
C1487 C 0.75668 0.75505 0.97576 0.0
C1488 C 0.76321 0.77753 0.99459 0.0
C1489 C 0.76052 0.78842 0.99534 0.0
C1490 C 0.7663 0.79605 0.98949 0.0
C1491 C 0.77493 0.79298 0.98276 0.0
C1492 C 0.77783 0.78207 0.98241 0.0
C1493 C 0.77205 0.77448 0.98823 0.0
C1494 C 0.76241 0.77509 0.01785 0.0
C1495 C 0.75776 0.78207 0.02535 0.0
C1496 C 0.76421 0.78774 0.03219 0.0
C1497 C 0.7754 0.78666 0.0315 0.0
C1498 C 0.78003 0.77984 0.02385 0.0
C1499 C 0.77358 0.77404 0.01713 0.0
C1500 C 0.71879 0.71927 0.02798 0.0
C1501 C 0.75343 0.76577 0.9477 0.0
H1502 H 0.34505 0.73469 1.00115 0.0
H1503 H 0.277 0.77693 0.08905 0.0
H1504 H 0.31441 0.78497 0.99929 0.0
H1505 H 0.31994 0.78084 0.98097 0.0
H1506 H 0.28818 0.76961 0.97471 0.0
H1507 H 0.28279 0.77356 0.99307 0.0
H1508 H 0.32232 0.772 0.01836 0.0
H1509 H 0.33453 0.7578 0.01223 0.0
H1510 H 0.30788 0.74152 0.99852 0.0
H1511 H 0.29574 0.75567 1.00489 0.0
H1512 H 0.31508 0.77852 0.03973 0.0
H1513 H 0.32534 0.76615 0.05089 0.0
H1514 H 0.30412 0.74079 0.04244 0.0
H1515 H 0.29427 0.75318 0.03091 0.0
H1516 H 0.29646 0.79755 0.04379 0.0
H1517 H 0.29328 0.79894 0.06302 0.0
H1518 H 0.27732 0.76866 0.06286 0.0
H1519 H 0.28046 0.76745 0.04362 0.0
H1520 H 0.2854 0.80973 0.02562 0.0
H1521 H 0.27162 0.82092 0.03442 0.0
H1522 H 0.25203 0.79317 0.03902 0.0
H1523 H 0.26589 0.78213 0.03053 0.0
H1524 H 0.29537 0.80349 0.99993 0.0
H1525 H 0.28586 0.81368 0.98623 0.0
H1526 H 0.25684 0.79702 0.99426 0.0
H1527 H 0.26657 0.78653 0.00759 0.0
O1528 O 0.34009 0.74025 1.00345 0.0
O1529 O 0.32619 0.73241 0.99618 0.0
O1530 O 0.2863 0.7923 0.08105 0.0
O1531 O 0.27825 0.77665 0.08143 0.0
C1532 C 0.29553 0.78026 0.00887 0.0
C1533 C 0.30071 0.77326 0.01607 0.0
C1534 C 0.29845 0.77398 0.02704 0.0
C1535 C 0.29087 0.78151 0.0308 0.0
C1536 C 0.2853 0.78813 0.02354 0.0
C1537 C 0.28764 0.78758 0.01254 0.0
C1538 C 0.29823 0.77953 0.99744 0.0
C1539 C 0.30862 0.78181 0.99387 0.0
C1540 C 0.31176 0.77943 0.98347 0.0
C1541 C 0.30448 0.77491 0.9765 0.0
C1542 C 0.29389 0.77323 0.97992 0.0
C1543 C 0.2908 0.77547 0.99036 0.0
C1544 C 0.30817 0.76482 0.01208 0.0
C1545 C 0.31915 0.76533 0.01406 0.0
C1546 C 0.3261 0.75723 0.01053 0.0
C1547 C 0.32217 0.74852 1.0049 0.0
C1548 C 0.31116 0.74811 1.00285 0.0
C1549 C 0.30422 0.75619 0.00644 0.0
C1550 C 0.30398 0.7667 0.03455 0.0
C1551 C 0.31264 0.7703 0.04039 0.0
C1552 C 0.31844 0.76322 0.04679 0.0
C1553 C 0.31559 0.75244 0.04756 0.0
C1554 C 0.30668 0.74897 0.04189 0.0
C1555 C 0.30097 0.75604 0.03538 0.0
C1556 C 0.28872 0.78239 0.04238 0.0
C1557 C 0.29224 0.79126 0.04794 0.0
C1558 C 0.29043 0.79202 0.0589 0.0
C1559 C 0.28507 0.78389 0.06447 0.0
C1560 C 0.28149 0.77504 0.05882 0.0
C1561 C 0.28328 0.77432 0.04785 0.0
C1562 C 0.2766 0.79517 0.02754 0.0
C1563 C 0.27805 0.80616 0.02843 0.0
C1564 C 0.2702 0.8125 0.03343 0.0
C1565 C 0.26084 0.80788 0.03756 0.0
C1566 C 0.25927 0.79692 0.03617 0.0
C1567 C 0.26711 0.79062 0.03124 0.0
C1568 C 0.28164 0.79434 1.00482 0.0
C1569 C 0.28694 0.80209 0.99875 0.0
C1570 C 0.28148 0.80794 0.99096 0.0
C1571 C 0.27056 0.8062 0.98914 0.0
C1572 C 0.26526 0.79848 0.99534 0.0
C1573 C 0.27076 0.79259 1.00307 0.0
C1574 C 0.32956 0.7399 1.00122 0.0
C1575 C 0.28326 0.78458 0.07614 0.0
H1576 H 0.01994 0.23276 0.21346 0.0
H1577 H 0.09561 0.28439 0.28045 0.0
H1578 H 0.0071 0.28967 0.24647 0.0
H1579 H 0.99043 0.28573 0.23752 0.0
H1580 H 0.98398 0.26123 0.26106 0.0
H1581 H 1.00043 0.26562 0.27022 0.0
H1582 H 0.02729 0.27228 0.2363 0.0
H1583 H 0.02468 0.25758 0.22397 0.0
H1584 H 0.01232 0.2384 0.24998 0.0
H1585 H 0.01518 0.25309 0.26224 0.0
H1586 H 0.04963 0.28062 0.24557 0.0
H1587 H 0.06498 0.2702 0.23869 0.0
H1588 H 0.05401 0.24263 0.25616 0.0
H1589 H 0.03898 0.25321 0.26347 0.0
H1590 H 0.04875 0.2996 0.26004 0.0
H1591 H 0.06766 0.30302 0.26297 0.0
H1592 H 0.07035 0.27368 0.2811 0.0
H1593 H 0.05137 0.27046 0.27827 0.0
H1594 H 0.02699 0.30915 0.26529 0.0
H1595 H 0.03254 0.32495 0.2749 0.0
H1596 H 0.04303 0.30485 0.30101 0.0
H1597 H 0.03724 0.2891 0.29141 0.0
H1598 H 0.0061 0.30358 0.26319 0.0
H1599 H 0.99266 0.31347 0.2738 0.0
H1600 H 0.99862 0.29232 0.3005 0.0
H1601 H 0.01182 0.28242 0.28977 0.0
O1602 O 0.02055 0.23859 0.2184 0.0
O1603 O 0.01325 0.22942 0.23178 0.0
O1604 O 0.0862 0.2985 0.27021 0.0
O1605 O 0.08806 0.28333 0.27933 0.0
C1606 C 0.01585 0.27857 0.2625 0.0
C1607 C 0.02398 0.27224 0.25773 0.0
C1608 C 0.03474 0.27418 0.26003 0.0
C1609 C 0.03735 0.28255 0.26686 0.0
C1610 C 0.02912 0.28875 0.27156 0.0
C1611 C 0.01837 0.28656 0.26967 0.0
C1612 C 1.00489 0.27776 0.25881 0.0
C1613 C 1.00184 0.28374 0.24988 0.0
C1614 C 0.99239 0.28148 0.2448 0.0
C1615 C 0.98606 0.27309 0.24853 0.0
C1616 C 0.98868 0.26781 0.25809 0.0
C1617 C 0.99808 0.2702 0.26326 0.0
C1618 C 0.02133 0.26376 0.25012 0.0
C1619 C 0.02391 0.26493 0.23928 0.0
C1620 C 0.02245 0.25651 0.23227 0.0
C1621 C 0.01832 0.24681 0.236 0.0
C1622 C 0.0155 0.24577 0.24685 0.0
C1623 C 0.01704 0.25417 0.25385 0.0
C1624 C 0.04332 0.26765 0.25507 0.0
C1625 C 0.05056 0.27233 0.2479 0.0
C1626 C 0.05924 0.26642 0.24398 0.0
C1627 C 0.06054 0.25571 0.24696 0.0
C1628 C 0.05303 0.25089 0.25375 0.0
C1629 C 0.0445 0.25688 0.25789 0.0
C1630 C 0.0487 0.28482 0.26901 0.0
C1631 C 0.05341 0.294 0.26476 0.0
C1632 C 0.06422 0.2959 0.26639 0.0
C1633 C 0.07052 0.28861 0.27226 0.0
C1634 C 0.06573 0.27945 0.27655 0.0
C1635 C 0.0549 0.27759 0.27496 0.0
C1636 C 0.03174 0.29812 0.27775 0.0
C1637 C 0.03033 0.30823 0.27316 0.0
C1638 C 0.03355 0.31717 0.27859 0.0
C1639 C 0.03818 0.31603 0.28863 0.0
C1640 C 0.03934 0.30588 0.29331 0.0
C1641 C 0.03612 0.29693 0.28787 0.0
C1642 C 0.00982 0.29227 0.27572 0.0
C1643 C 1.00437 0.30105 0.27129 0.0
C1644 C 0.9968 0.30673 0.27739 0.0
C1645 C 0.99458 0.30367 0.28799 0.0
C1646 C 1.00003 0.29479 0.29232 0.0
C1647 C 0.00759 0.28915 0.28623 0.0
C1648 C 0.01718 0.23774 0.22863 0.0
C1649 C 0.08205 0.29049 0.27385 0.0
H1650 H 0.83661 0.01282 0.20058 0.0
H1651 H 0.78781 0.09268 0.26694 0.0
H1652 H 0.78155 1.00447 0.2342 0.0
H1653 H 0.78698 0.98873 0.22403 0.0
H1654 H 0.80981 0.98028 0.24837 0.0
H1655 H 0.80403 0.99591 0.25864 0.0
H1656 H 0.7976 0.02283 0.22499 0.0
H1657 H 0.81207 0.01924 0.2121 0.0
H1658 H 0.83181 0.00686 0.23753 0.0
H1659 H 0.81733 0.01066 0.25034 0.0
H1660 H 0.78973 0.04557 0.23447 0.0
H1661 H 0.80027 0.05974 0.22618 0.0
H1662 H 0.82838 0.04807 0.24242 0.0
H1663 H 0.81766 0.03423 0.25121 0.0
H1664 H 0.77112 0.04592 0.24939 0.0
H1665 H 0.76809 0.06506 0.25169 0.0
H1666 H 0.79777 0.06687 0.26879 0.0
H1667 H 0.80056 0.04766 0.26668 0.0
H1668 H 0.76098 0.02546 0.25558 0.0
H1669 H 0.74605 0.0352 0.26414 0.0
H1670 H 0.76687 0.0446 0.28939 0.0
H1671 H 0.78187 0.035 0.28069 0.0
H1672 H 0.76835 1.00157 0.25174 0.0
H1673 H 0.7572 0.98968 0.26257 0.0
H1674 H 0.77354 0.9996 0.29083 0.0
H1675 H 0.78487 0.0111 0.27992 0.0
O1676 O 0.83089 0.0139 0.20575 0.0
O1677 O 0.84042 0.00685 0.21895 0.0
O1678 O 0.7731 0.08358 0.258 0.0
O1679 O 0.78865 0.08504 0.2662 0.0
C1680 C 0.79145 0.01218 0.25123 0.0
C1681 C 0.79801 0.01998 0.24646 0.0
C1682 C 0.79638 0.0308 0.24892 0.0
C1683 C 0.78812 0.03389 0.25603 0.0
C1684 C 0.78174 0.02608 0.26099 0.0
C1685 C 0.78357 0.01518 0.25884 0.0
C1686 C 0.79232 1.00122 0.24718 0.0
C1687 C 0.78738 0.99895 0.23754 0.0
C1688 C 0.79064 0.99007 0.23166 0.0
C1689 C 0.79896 0.98338 0.23531 0.0
C1690 C 0.80333 0.98524 0.24538 0.0
C1691 C 0.8 0.99412 0.2513 0.0
C1692 C 0.80642 0.01692 0.23856 0.0
C1693 C 0.80503 0.01925 0.22773 0.0
C1694 C 0.81331 0.01723 0.2204 0.0
C1695 C 0.8231 0.01279 0.2238 0.0
C1696 C 0.82437 0.01028 0.23465 0.0
C1697 C 0.8161 0.01237 0.24197 0.0
C1698 C 0.80292 0.03898 0.24352 0.0
C1699 C 0.79813 0.04613 0.23632 0.0
C1700 C 0.80413 0.05415 0.23158 0.0
C1701 C 0.81504 0.0549 0.23375 0.0
C1702 C 0.81994 0.04755 0.24067 0.0
C1703 C 0.81387 0.03969 0.24564 0.0
C1704 C 0.78599 0.0454 0.25799 0.0
C1705 C 0.77685 0.05043 0.25381 0.0
C1706 C 0.77518 0.06137 0.25506 0.0
C1707 C 0.78271 0.06749 0.2604 0.0
C1708 C 0.79183 0.06239 0.26464 0.0
C1709 C 0.79343 0.05143 0.26347 0.0
C1710 C 0.77245 0.02955 0.26755 0.0
C1711 C 0.76222 0.02932 0.26314 0.0
C1712 C 0.75377 0.03492 0.26796 0.0
C1713 C 0.75542 0.04061 0.27734 0.0
C1714 C 0.76546 0.04017 0.28218 0.0
C1715 C 0.77397 0.0347 0.27727 0.0
C1716 C 0.77752 0.00709 0.26502 0.0
C1717 C 0.76969 1.00096 0.26023 0.0
C1718 C 0.76323 0.99429 0.26646 0.0
C1719 C 0.76446 0.99371 0.27759 0.0
C1720 C 0.77248 0.99972 0.28229 0.0
C1721 C 0.77894 0.00632 0.27606 0.0
C1722 C 0.832 0.01096 0.21606 0.0
C1723 C 0.78115 0.07918 0.26145 0.0
H1724 H 0.02812 0.68811 0.28139 0.0
H1725 H 0.93417 0.72957 0.22247 0.0
H1726 H 0.02544 0.74068 0.25053 0.0
H1727 H 0.04453 0.73945 0.25459 0.0
H1728 H 0.05063 0.72383 0.2245 0.0
H1729 H 0.03148 0.72518 0.22045 0.0
H1730 H 0.00812 0.72492 0.26038 0.0
H1731 H 0.01558 0.71098 0.27196 0.0
H1732 H 0.02847 0.69464 0.24427 0.0
H1733 H 0.02077 0.70852 0.23278 0.0
H1734 H 0.98511 0.73247 0.25429 0.0
H1735 H 0.97466 0.72103 0.26616 0.0
H1736 H 0.98501 0.6935 0.24799 0.0
H1737 H 0.99523 0.70511 0.23595 0.0
H1738 H 0.98004 0.75026 0.23823 0.0
H1739 H 0.96057 0.75158 0.23679 0.0
H1740 H 0.96065 0.72141 0.22036 0.0
H1741 H 0.98014 0.72028 0.22171 0.0
H1742 H 0.99965 0.76263 0.22956 0.0
H1743 H 0.99005 0.77681 0.22003 0.0
H1744 H 0.97905 0.75376 0.19743 0.0
H1745 H 0.98902 0.73969 0.20681 0.0
H1746 H 0.0225 0.75703 0.23467 0.0
H1747 H 0.03416 0.76937 0.22516 0.0
H1748 H 0.02642 0.75442 0.19539 0.0
H1749 H 0.01512 0.74179 0.20509 0.0
O1750 O 0.02533 0.69358 0.27667 0.0
O1751 O 0.03222 0.68576 0.26223 0.0
O1752 O 0.94229 0.74498 0.23119 0.0
O1753 O 0.94188 0.72931 0.22306 0.0
C1754 C 0.01559 0.73315 0.23323 0.0
C1755 C 0.00901 0.72589 0.23873 0.0
C1756 C 0.99782 0.72656 0.23766 0.0
C1757 C 0.99325 0.73439 0.23094 0.0
C1758 C 0.99989 0.74154 0.22529 0.0
C1759 C 0.01108 0.7409 0.22641 0.0
C1760 C 0.02718 0.733 0.23522 0.0
C1761 C 0.03094 0.7371 0.24478 0.0
C1762 C 0.0418 0.73644 0.24706 0.0
C1763 C 0.04898 0.73154 0.23985 0.0
C1764 C 0.0452 0.72759 0.23019 0.0
C1765 C 0.03434 0.72838 0.22786 0.0
C1766 C 0.01388 0.71767 0.24577 0.0
C1767 C 0.01254 0.7183 0.25685 0.0
C1768 C 0.01682 0.71035 0.26343 0.0
C1769 C 0.0226 0.70168 0.25903 0.0
C1770 C 0.02405 0.70119 0.24791 0.0
C1771 C 0.0197 0.70911 0.24134 0.0
C1772 C 0.99088 0.71961 0.24427 0.0
C1773 C 0.98498 0.72399 0.25279 0.0
C1774 C 0.97913 0.71743 0.25962 0.0
C1775 C 0.9791 0.70635 0.25806 0.0
C1776 C 0.98482 0.70201 0.24934 0.0
C1777 C 0.99068 0.7086 0.2425 0.0
C1778 C 0.98146 0.73521 0.23001 0.0
C1779 C 0.97583 0.74399 0.23425 0.0
C1780 C 0.96472 0.7447 0.23345 0.0
C1781 C 0.95906 0.73659 0.22846 0.0
C1782 C 0.96476 0.72779 0.22425 0.0
C1783 C 0.97588 0.72712 0.22501 0.0
C1784 C 0.99501 0.75018 0.21884 0.0
C1785 C 0.99534 0.7607 0.22242 0.0
C1786 C 0.98977 0.76875 0.21705 0.0
C1787 C 0.98373 0.76637 0.20805 0.0
C1788 C 0.98372 0.75585 0.20428 0.0
C1789 C 0.98935 0.74781 0.20964 0.0
C1790 C 0.01805 0.74847 0.22057 0.0
C1791 C 0.02342 0.75636 0.22611 0.0
C1792 C 0.02998 0.76348 0.22063 0.0
C1793 C 0.03121 0.76292 0.20949 0.0
C1794 C 0.02577 0.755 0.20397 0.0
C1795 C 0.01925 0.74783 0.20948 0.0
C1796 C 0.02703 0.69319 0.26603 0.0
C1797 C 0.94725 0.73726 0.22767 0.0
H1798 H 0.20184 0.01224 0.23108 0.0
H1799 H 0.24273 0.92374 0.29938 0.0
H1800 H 0.25017 0.01416 0.26739 0.0
H1801 H 0.24766 0.03275 0.26185 0.0
H1802 H 0.22706 0.03832 0.28926 0.0
H1803 H 0.22978 0.01966 0.29489 0.0
H1804 H 0.23704 0.9956 0.25685 0.0
H1805 H 0.22419 1.00169 0.24351 0.0
H1806 H 0.20327 0.01358 0.26864 0.0
H1807 H 0.21609 0.00723 0.2819 0.0
H1808 H 0.24492 0.97298 0.26475 0.0
H1809 H 0.23515 0.96257 0.25181 0.0
H1810 H 0.20529 0.97217 0.26697 0.0
H1811 H 0.21517 0.98227 0.28007 0.0
H1812 H 0.26202 0.97054 0.28353 0.0
H1813 H 0.26462 0.95137 0.28631 0.0
H1814 H 0.23225 0.94937 0.29871 0.0
H1815 H 0.22982 0.96856 0.29605 0.0
H1816 H 0.27153 0.99247 0.29235 0.0
H1817 H 0.28511 0.98601 0.30473 0.0
H1818 H 0.26027 0.97284 0.32493 0.0
H1819 H 0.24677 0.97922 0.3124 0.0
H1820 H 0.26423 0.01399 0.28466 0.0
H1821 H 0.27266 0.02852 0.29403 0.0
H1822 H 0.2544 0.02075 0.32245 0.0
H1823 H 0.24599 0.00619 0.31294 0.0
O1824 O 0.20684 0.00994 0.23649 0.0
O1825 O 0.19662 0.01639 0.24967 0.0
O1826 O 0.25863 0.93282 0.29208 0.0
O1827 O 0.24196 0.93135 0.29828 0.0
C1828 C 0.24109 1.00438 0.28421 0.0
C1829 C 0.23514 0.99702 0.27843 0.0
C1830 C 0.23664 0.98601 0.28018 0.0
C1831 C 0.24412 0.98246 0.28784 0.0
C1832 C 0.25003 0.98994 0.29373 0.0
C1833 C 0.24845 1.00096 0.29194 0.0
C1834 C 0.24013 0.01571 0.28149 0.0
C1835 C 0.24527 0.01947 0.27227 0.0
C1836 C 0.24389 0.03002 0.26918 0.0
C1837 C 0.23726 0.03684 0.27522 0.0
C1838 C 0.23226 0.03312 0.28457 0.0
C1839 C 0.23378 0.02257 0.28776 0.0
C1840 C 0.22745 1.00094 0.27032 0.0
C1841 C 0.22966 0.99949 0.25945 0.0
C1842 C 0.22232 1.00299 0.25185 0.0
C1843 C 0.2127 0.0081 0.25502 0.0
C1844 C 0.21059 0.00966 0.26594 0.0
C1845 C 0.21791 0.00607 0.27353 0.0
C1846 C 0.23079 0.97835 0.27342 0.0
C1847 C 0.23629 0.97262 0.26543 0.0
C1848 C 0.23066 0.96681 0.25794 0.0
C1849 C 0.21939 0.96661 0.25824 0.0
C1850 C 0.21394 0.97205 0.26651 0.0
C1851 C 0.21958 0.97784 0.27402 0.0
C1852 C 0.24575 0.9709 0.28964 0.0
C1853 C 0.25554 0.96595 0.28692 0.0
C1854 C 0.25699 0.955 0.28848 0.0
C1855 C 0.24864 0.94884 0.29273 0.0
C1856 C 0.23884 0.95387 0.29543 0.0
C1857 C 0.23742 0.96482 0.2939 0.0
C1858 C 0.25818 0.98626 0.30146 0.0
C1859 C 0.26903 0.98825 0.2995 0.0
C1860 C 0.27678 0.9846 0.30662 0.0
C1861 C 0.2738 0.97887 0.31583 0.0
C1862 C 0.26287 0.97707 0.31784 0.0
C1863 C 0.25513 0.98073 0.31071 0.0
C1864 C 0.25443 0.00905 0.29807 0.0
C1865 C 0.26207 0.0154 0.29292 0.0
C1866 C 0.26683 0.02376 0.29829 0.0
C1867 C 0.26415 0.02593 0.309 0.0
C1868 C 0.25673 0.0193 0.31424 0.0
C1869 C 0.25191 0.01097 0.30882 0.0
C1870 C 0.20488 0.01175 0.24694 0.0
C1871 C 0.25009 0.9372 0.29433 0.0
H1872 H 0.02179 0.86072 0.81689 0.0
H1873 H 0.09624 0.80676 0.74139 0.0
H1874 H 0.00954 0.8104 0.78611 0.0
H1875 H 0.99375 0.81739 0.79548 0.0
H1876 H 0.98699 0.83805 0.76858 0.0
H1877 H 1.00255 0.8305 0.7591 0.0
H1878 H 0.03084 0.82201 0.79253 0.0
H1879 H 0.02809 0.83647 0.8053 0.0
H1880 H 0.0163 0.85688 0.77997 0.0
H1881 H 0.01931 0.84241 0.76727 0.0
H1882 H 0.05071 0.81095 0.78267 0.0
H1883 H 0.06531 0.81949 0.79195 0.0
H1884 H 0.05948 0.84846 0.77401 0.0
H1885 H 0.04484 0.83981 0.76472 0.0
H1886 H 0.05004 0.7931 0.76449 0.0
H1887 H 0.06856 0.78857 0.75951 0.0
H1888 H 0.07152 0.81927 0.74398 0.0
H1889 H 0.05296 0.82362 0.74886 0.0
H1890 H 0.02649 0.78491 0.75819 0.0
H1891 H 0.03203 0.77042 0.74629 0.0
H1892 H 0.04515 0.79341 0.72413 0.0
H1893 H 0.03914 0.80781 0.73586 0.0
H1894 H 0.00569 0.79553 0.76873 0.0
H1895 H 0.99052 0.78693 0.76044 0.0
H1896 H 0.99814 0.80262 0.73059 0.0
H1897 H 0.01315 0.81135 0.73902 0.0
O1898 O 0.02286 0.85512 0.8117 0.0
O1899 O 0.01641 0.86513 0.79849 0.0
O1900 O 0.08678 0.79237 0.75095 0.0
O1901 O 0.08884 0.80825 0.7433 0.0
C1902 C 0.01805 0.81709 0.76725 0.0
C1903 C 0.02694 0.82247 0.77127 0.0
C1904 C 0.03743 0.81964 0.76795 0.0
C1905 C 0.03909 0.81156 0.76031 0.0
C1906 C 0.03029 0.80626 0.75591 0.0
C1907 C 0.01973 0.80912 0.75938 0.0
C1908 C 0.00717 0.81977 0.77182 0.0
C1909 C 1.00445 0.81619 0.78211 0.0
C1910 C 0.99548 0.82041 0.78757 0.0
C1911 C 0.98901 0.82851 0.78298 0.0
C1912 C 0.99157 0.83178 0.77245 0.0
C1913 C 1.0005 0.82743 0.76694 0.0
C1914 C 0.02525 0.8312 0.77902 0.0
C1915 C 0.02771 0.82963 0.78977 0.0
C1916 C 0.02611 0.83789 0.79704 0.0
C1917 C 0.02196 0.84782 0.79365 0.0
C1918 C 0.0195 0.84933 0.78284 0.0
C1919 C 0.02118 0.84109 0.77558 0.0
C1920 C 0.04672 0.82475 0.77303 0.0
C1921 C 0.05264 0.81911 0.78068 0.0
C1922 C 0.06092 0.82403 0.78602 0.0
C1923 C 0.06351 0.83467 0.78376 0.0
C1924 C 0.05772 0.84023 0.77588 0.0
C1925 C 0.04935 0.83533 0.7706 0.0
C1926 C 0.05018 0.80866 0.75701 0.0
C1927 C 0.05468 0.79878 0.75993 0.0
C1928 C 0.06526 0.79624 0.75711 0.0
C1929 C 0.07153 0.80358 0.75137 0.0
C1930 C 0.06694 0.81345 0.74841 0.0
C1931 C 0.05635 0.81596 0.75119 0.0
C1932 C 0.03234 0.79751 0.74795 0.0
C1933 C 0.03034 0.78684 0.75065 0.0
C1934 C 0.03369 0.77852 0.74387 0.0
C1935 C 0.03919 0.78061 0.7342 0.0
C1936 C 0.04086 0.79137 0.73139 0.0
C1937 C 0.03745 0.79967 0.73814 0.0
C1938 C 0.01046 0.80407 0.75447 0.0
C1939 C 1.00401 0.79716 0.76043 0.0
C1940 C 0.99543 0.7922 0.75566 0.0
C1941 C 0.99317 0.79409 0.74486 0.0
C1942 C 0.99962 0.8011 0.73895 0.0
C1943 C 0.00821 0.80604 0.74372 0.0
C1944 C 0.02022 0.85657 0.80139 0.0
C1945 C 0.08283 0.80101 0.74854 0.0
H1946 H 0.3504 0.01375 0.69108 0.0
H1947 H 0.30592 0.09553 0.76493 0.0
H1948 H 0.30133 0.00731 0.72713 0.0
H1949 H 0.30458 0.98955 0.71991 0.0
H1950 H 0.32457 0.98174 0.74679 0.0
H1951 H 0.32089 0.99951 0.75414 0.0
H1952 H 0.31382 0.02696 0.71765 0.0
H1953 H 0.32731 0.02246 0.70403 0.0
H1954 H 0.34805 0.00971 0.72849 0.0
H1955 H 0.33456 0.01444 0.74204 0.0
H1956 H 0.30509 0.04709 0.72557 0.0
H1957 H 0.3137 0.06148 0.71547 0.0
H1958 H 0.34253 0.05646 0.73345 0.0
H1959 H 0.33394 0.04184 0.74336 0.0
H1960 H 0.28829 0.0498 0.74562 0.0
H1961 H 0.2852 0.06868 0.74959 0.0
H1962 H 0.31681 0.07012 0.763 0.0
H1963 H 0.3197 0.05121 0.75917 0.0
H1964 H 0.27905 0.02862 0.75417 0.0
H1965 H 0.26553 0.03557 0.76664 0.0
H1966 H 0.2906 0.04502 0.78782 0.0
H1967 H 0.30401 0.03847 0.77501 0.0
H1968 H 0.28716 1.00485 0.74794 0.0
H1969 H 0.2775 0.99284 0.75999 0.0
H1970 H 0.29705 1.0029 0.78607 0.0
H1971 H 0.30656 0.01489 0.77399 0.0
O1972 O 0.34516 0.01543 0.6966 0.0
O1973 O 0.35537 0.00865 0.70943 0.0
O1974 O 0.29053 0.08679 0.75679 0.0
O1975 O 0.30687 0.08804 0.76336 0.0
C1976 C 0.30968 0.01601 0.74474 0.0
C1977 C 0.31526 0.02404 0.73908 0.0
C1978 C 0.31346 0.03491 0.74148 0.0
C1979 C 0.30611 0.03777 0.74964 0.0
C1980 C 0.30066 0.02983 0.75548 0.0
C1981 C 0.30263 0.01892 0.75321 0.0
C1982 C 0.31082 1.00471 0.74119 0.0
C1983 C 0.30628 1.00169 0.73155 0.0
C1984 C 0.30828 0.99155 0.72736 0.0
C1985 C 0.31498 0.98414 0.73265 0.0
C1986 C 0.31929 0.98712 0.7425 0.0
C1987 C 0.31721 0.99729 0.74674 0.0
C1988 C 0.32326 0.02105 0.7308 0.0
C1989 C 0.32131 0.02323 0.72004 0.0
C1990 C 0.32901 0.02063 0.71228 0.0
C1991 C 0.33876 0.01573 0.71518 0.0
C1992 C 0.34063 0.01348 0.72599 0.0
C1993 C 0.33294 0.01614 0.73374 0.0
C1994 C 0.31891 0.04339 0.73516 0.0
C1995 C 0.3133 0.04903 0.72725 0.0
C1996 C 0.31822 0.05722 0.72149 0.0
C1997 C 0.32878 0.06006 0.72368 0.0
C1998 C 0.33438 0.05443 0.73164 0.0
C1999 C 0.32951 0.04608 0.73726 0.0
C2000 C 0.30421 0.04918 0.75211 0.0
C2001 C 0.2945 0.05421 0.74946 0.0
C2002 C 0.29278 0.06498 0.75172 0.0
C2003 C 0.30078 0.07091 0.75659 0.0
C2004 C 0.3105 0.0658 0.75923 0.0
C2005 C 0.31218 0.05501 0.75704 0.0
C2006 C 0.29251 0.03305 0.76367 0.0
C2007 C 0.28159 0.03211 0.76156 0.0
C2008 C 0.27387 0.03606 0.76875 0.0
C2009 C 0.2769 0.04095 0.77829 0.0
C2010 C 0.2879 0.04155 0.78049 0.0
C2011 C 0.29561 0.0377 0.77323 0.0
C2012 C 0.29758 0.01071 0.76008 0.0
C2013 C 0.28947 1.0043 0.75621 0.0
C2014 C 0.28395 0.99746 0.76312 0.0
C2015 C 0.28644 0.99696 0.77403 0.0
C2016 C 0.29479 1.00321 0.77778 0.0
C2017 C 0.3003 0.01 0.77087 0.0
C2018 C 0.34695 0.01304 0.70693 0.0
C2019 C 0.29904 0.08238 0.7589 0.0
H2020 H 0.9973 0.17387 0.80378 0.0
H2021 H 0.08236 0.24415 0.76423 0.0
H2022 H 0.99191 0.20931 0.75716 0.0
H2023 H 0.97358 0.20423 0.76175 0.0
H2024 H 0.96819 0.23481 0.77668 0.0
H2025 H 0.9866 0.23971 0.77227 0.0
H2026 H 0.01277 0.19992 0.7682 0.0
H2027 H 0.0074 0.18648 0.78133 0.0
H2028 H 0.99282 0.21123 0.80078 0.0
H2029 H 0.99843 0.2246 0.78768 0.0
H2030 H 0.0351 0.20803 0.76205 0.0
H2031 H 0.04811 0.19837 0.7731 0.0
H2032 H 0.03671 0.21584 0.80067 0.0
H2033 H 0.02386 0.22554 0.7895 0.0
H2034 H 0.0369 0.22667 0.74403 0.0
H2035 H 0.0561 0.22975 0.74207 0.0
H2036 H 0.05622 0.24362 0.77351 0.0
H2037 H 0.037 0.24064 0.77528 0.0
H2038 H 0.01841 0.23746 0.73346 0.0
H2039 H 0.02689 0.25112 0.72219 0.0
H2040 H 0.03195 0.27023 0.75009 0.0
H2041 H 0.02362 0.25655 0.76123 0.0
H2042 H 0.99075 0.22903 0.74145 0.0
H2043 H 0.97741 0.23994 0.73203 0.0
H2044 H 0.98873 0.26799 0.74766 0.0
H2045 H 1.0017 0.25701 0.75738 0.0
O2046 O 0.99927 0.17931 0.79864 0.0
O2047 O 0.99143 0.19225 0.8081 0.0
O2048 O 0.07419 0.23614 0.74845 0.0
O2049 O 0.07474 0.24297 0.76472 0.0
C2050 C 1.00202 0.22722 0.76307 0.0
C2051 C 0.00958 0.22136 0.76921 0.0
C2052 C 0.02059 0.22343 0.76821 0.0
C2053 C 0.02402 0.23136 0.76101 0.0
C2054 C 0.01648 0.23743 0.75509 0.0
C2055 C 0.00539 0.23546 0.75609 0.0
C2056 C 0.99054 0.22486 0.7644 0.0
C2057 C 0.98669 0.21495 0.76127 0.0
C2058 C 0.97625 0.21209 0.76387 0.0
C2059 C 0.96951 0.2191 0.76964 0.0
C2060 C 0.97327 0.2292 0.77236 0.0
C2061 C 0.98371 0.23206 0.76976 0.0
C2062 C 0.00596 0.2132 0.77699 0.0
C2063 C 0.00842 0.20241 0.77531 0.0
C2064 C 0.00534 0.19476 0.78281 0.0
C2065 C 0.99969 0.19779 0.79211 0.0
C2066 C 0.99716 0.20863 0.79371 0.0
C2067 C 1.00031 0.21627 0.78622 0.0
C2068 C 0.02851 0.21749 0.77495 0.0
C2069 C 0.03543 0.20977 0.77047 0.0
C2070 C 0.04282 0.20421 0.77683 0.0
C2071 C 0.04349 0.2063 0.78781 0.0
C2072 C 0.03653 0.21409 0.79224 0.0
C2073 C 0.02912 0.2196 0.78588 0.0
C2074 C 0.03561 0.23343 0.75979 0.0
C2075 C 0.04109 0.23043 0.75045 0.0
C2076 C 0.05205 0.23217 0.74937 0.0
C2077 C 0.0577 0.23691 0.75766 0.0
C2078 C 0.05212 0.23994 0.76699 0.0
C2079 C 0.04116 0.23824 0.76803 0.0
C2080 C 0.02037 0.2461 0.74811 0.0
C2081 C 0.0212 0.24468 0.73706 0.0
C2082 C 0.02608 0.25242 0.73069 0.0
C2083 C 0.03001 0.26171 0.7353 0.0
C2084 C 0.02885 0.26321 0.74633 0.0
C2085 C 0.02414 0.25542 0.75269 0.0
C2086 C 0.99737 0.24216 0.75009 0.0
C2087 C 0.99033 0.23752 0.7429 0.0
C2088 C 0.98268 0.24378 0.73751 0.0
C2089 C 0.982 0.25489 0.73902 0.0
C2090 C 0.98911 0.25951 0.74616 0.0
C2091 C 0.99659 0.25322 0.75171 0.0
C2092 C 0.99652 0.18965 0.80011 0.0
C2093 C 0.06936 0.23864 0.75662 0.0
H2094 H 0.67209 0.01928 0.69927 0.0
H2095 H 0.71958 0.93678 0.7715 0.0
H2096 H 0.72202 0.02458 0.73238 0.0
H2097 H 0.71734 0.04168 0.7242 0.0
H2098 H 0.69718 0.04932 0.75149 0.0
H2099 H 0.70231 0.03228 0.75978 0.0
H2100 H 0.70912 0.00565 0.72416 0.0
H2101 H 0.69542 0.01042 0.71115 0.0
H2102 H 0.67489 0.02226 0.73662 0.0
H2103 H 0.68857 0.01723 0.74956 0.0
H2104 H 0.71847 0.98542 0.73217 0.0
H2105 H 0.70919 0.97276 0.72093 0.0
H2106 H 0.68017 0.97801 0.73936 0.0
H2107 H 0.6895 0.9908 0.7505 0.0
H2108 H 0.73605 0.98328 0.7518 0.0
H2109 H 0.73967 0.96446 0.7558 0.0
H2110 H 0.70784 0.9618 0.76942 0.0
H2111 H 0.7044 0.98065 0.76554 0.0
H2112 H 0.74505 0.00618 0.76076 0.0
H2113 H 0.75849 0.99894 0.77302 0.0
H2114 H 0.73343 0.98473 0.79205 0.0
H2115 H 0.72002 0.99231 0.78004 0.0
H2116 H 0.73662 0.02601 0.74916 0.0
H2117 H 0.7453 0.04133 0.75685 0.0
H2118 H 0.72874 0.03558 0.78677 0.0
H2119 H 0.71971 0.02048 0.77879 0.0
O2120 O 0.6774 0.01746 0.70455 0.0
O2121 O 0.66741 0.02399 0.71785 0.0
O2122 O 0.7348 0.94609 0.7631 0.0
O2123 O 0.7184 0.94426 0.76989 0.0
C2124 C 0.71396 0.01616 0.75051 0.0
C2125 C 0.70806 0.00812 0.74568 0.0
C2126 C 0.7101 0.99736 0.74823 0.0
C2127 C 0.71778 0.99466 0.75597 0.0
C2128 C 0.72345 1.00274 0.76122 0.0
C2129 C 0.72158 0.01354 0.75835 0.0
C2130 C 0.71251 0.02725 0.74665 0.0
C2131 C 0.71681 0.03008 0.73669 0.0
C2132 C 0.714 0.03979 0.73198 0.0
C2133 C 0.70673 0.04679 0.7371 0.0
C2134 C 0.70285 0.04415 0.74735 0.0
C2135 C 0.70576 0.03443 0.75211 0.0
C2136 C 0.69977 0.01102 0.73778 0.0
C2137 C 0.70162 0.00919 0.7269 0.0
C2138 C 0.6938 0.01196 0.7195 0.0
C2139 C 0.68405 0.0167 0.72286 0.0
C2140 C 0.6823 0.0186 0.73378 0.0
C2141 C 0.69009 0.01575 0.74117 0.0
C2142 C 0.70467 0.98895 0.74218 0.0
C2143 C 0.71014 0.98374 0.73384 0.0
C2144 C 0.70482 0.97661 0.72739 0.0
C2145 C 0.69395 0.97446 0.72925 0.0
C2146 C 0.68855 0.97949 0.73779 0.0
C2147 C 0.69385 0.98676 0.74415 0.0
C2148 C 0.71998 0.98329 0.7584 0.0
C2149 C 0.7299 0.97861 0.75569 0.0
C2150 C 0.73193 0.96787 0.75796 0.0
C2151 C 0.72403 0.96163 0.76292 0.0
C2152 C 0.71409 0.96637 0.76559 0.0
C2153 C 0.71209 0.97712 0.76336 0.0
C2154 C 0.73151 0.99974 0.76944 0.0
C2155 C 0.74243 1.00176 0.76774 0.0
C2156 C 0.75011 0.99758 0.77472 0.0
C2157 C 0.74703 0.99115 0.78342 0.0
C2158 C 0.73607 0.98953 0.78534 0.0
C2159 C 0.7284 0.99388 0.7785 0.0
C2160 C 0.72753 0.02217 0.76342 0.0
C2161 C 0.73489 0.02806 0.75738 0.0
C2162 C 0.73989 0.03676 0.76182 0.0
C2163 C 0.73773 0.03966 0.77244 0.0
C2164 C 0.73048 0.03362 0.77854 0.0
C2165 C 0.72541 0.02494 0.77404 0.0
C2166 C 0.67577 0.01962 0.71497 0.0
C2167 C 0.72611 0.95021 0.76529 0.0
H2168 H 0.20057 0.70619 0.48608 0.0
H2169 H 0.28414 0.76047 0.42767 0.0
H2170 H 0.23003 0.75234 0.50661 0.0
H2171 H 0.21796 0.74394 0.51948 0.0
H2172 H 0.24443 0.72532 0.53184 0.0
H2173 H 0.25649 0.73369 0.51873 0.0
H2174 H 0.22712 0.74402 0.48438 0.0
H2175 H 0.21371 0.7301 0.48374 0.0
H2176 H 0.23586 0.70804 0.49882 0.0
H2177 H 0.24925 0.72198 0.49923 0.0
H2178 H 0.24077 0.75681 0.46758 0.0
H2179 H 0.23602 0.75121 0.44975 0.0
H2180 H 0.24968 0.71994 0.45613 0.0
H2181 H 0.25489 0.72588 0.47384 0.0
H2182 H 0.25791 0.77261 0.47275 0.0
H2183 H 0.26458 0.77796 0.45512 0.0
H2184 H 0.27964 0.74691 0.45131 0.0
H2185 H 0.27309 0.74173 0.46902 0.0
H2186 H 0.26194 0.77859 0.49615 0.0
H2187 H 0.27482 0.79245 0.49164 0.0
H2188 H 0.29775 0.76818 0.48176 0.0
H2189 H 0.28494 0.75443 0.48659 0.0
H2190 H 0.25098 0.76879 0.5159 0.0
H2191 H 0.26007 0.77655 0.53123 0.0
H2192 H 0.2871 0.75533 0.52586 0.0
H2193 H 0.27812 0.74777 0.51048 0.0
O2194 O 0.20599 0.71158 0.48643 0.0
O2195 O 0.21755 0.70065 0.49449 0.0
O2196 O 0.27438 0.77477 0.43738 0.0
O2197 O 0.2817 0.7587 0.4348 0.0
C2198 C 0.25056 0.74667 0.50192 0.0
C2199 C 0.24736 0.74234 0.49206 0.0
C2200 C 0.25207 0.74574 0.48239 0.0
C2201 C 0.26029 0.75326 0.48247 0.0
C2202 C 0.26395 0.75733 0.49221 0.0
C2203 C 0.2592 0.75393 0.50201 0.0
C2204 C 0.24424 0.74377 0.51173 0.0
C2205 C 0.23332 0.74668 0.5123 0.0
C2206 C 0.22636 0.74171 0.51955 0.0
C2207 C 0.23013 0.7338 0.52663 0.0
C2208 C 0.24121 0.73138 0.52654 0.0
C2209 C 0.24817 0.73626 0.51912 0.0
C2210 C 0.23913 0.73399 0.49185 0.0
C2211 C 0.22906 0.73616 0.48751 0.0
C2212 C 0.22142 0.72821 0.48717 0.0
C2213 C 0.22372 0.71796 0.49123 0.0
C2214 C 0.23383 0.71585 0.49563 0.0
C2215 C 0.24148 0.72379 0.49591 0.0
C2216 C 0.24818 0.74177 0.472 0.0
C2217 C 0.24267 0.74873 0.46514 0.0
C2218 C 0.2399 0.74547 0.45496 0.0
C2219 C 0.24243 0.73509 0.45145 0.0
C2220 C 0.24772 0.72803 0.45848 0.0
C2221 C 0.2506 0.73135 0.46865 0.0
C2222 C 0.26507 0.75681 0.47216 0.0
C2223 C 0.2628 0.76705 0.46816 0.0
C2224 C 0.26656 0.77005 0.45807 0.0
C2225 C 0.2726 0.76284 0.45179 0.0
C2226 C 0.27499 0.75264 0.45592 0.0
C2227 C 0.27129 0.74968 0.46604 0.0
C2228 C 0.27251 0.76547 0.49181 0.0
C2229 C 0.26987 0.77627 0.49335 0.0
C2230 C 0.27719 0.78418 0.49058 0.0
C2231 C 0.28732 0.78147 0.48621 0.0
C2232 C 0.2901 0.77061 0.48519 0.0
C2233 C 0.28279 0.76271 0.48798 0.0
C2234 C 0.26382 0.75762 0.51215 0.0
C2235 C 0.25878 0.7657 0.51815 0.0
C2236 C 0.264 0.77018 0.52682 0.0
C2237 C 0.27427 0.76652 0.52971 0.0
C2238 C 0.27916 0.75823 0.52386 0.0
C2239 C 0.27402 0.75388 0.51512 0.0
C2240 C 0.2156 0.70952 0.49084 0.0
C2241 C 0.27628 0.76584 0.44091 0.0
H2242 H 0.8299 0.71588 0.51612 0.0
H2243 H 0.78582 0.77591 0.42574 0.0
H2244 H 0.78042 0.74725 0.51915 0.0
H2245 H 0.78655 0.74368 0.53721 0.0
H2246 H 0.79731 0.77613 0.53934 0.0
H2247 H 0.79154 0.77946 0.52104 0.0
H2248 H 0.79183 0.73744 0.49934 0.0
H2249 H 0.80622 0.72566 0.50566 0.0
H2250 H 0.82321 0.75304 0.51679 0.0
H2251 H 0.80889 0.76474 0.51021 0.0
H2252 H 0.78227 0.74505 0.47574 0.0
H2253 H 0.79276 0.73309 0.46417 0.0
H2254 H 0.82185 0.74751 0.47457 0.0
H2255 H 0.81127 0.75991 0.48573 0.0
H2256 H 0.76491 0.76197 0.4729 0.0
H2257 H 0.76324 0.76359 0.45356 0.0
H2258 H 0.79475 0.7772 0.45158 0.0
H2259 H 0.79625 0.77565 0.47093 0.0
H2260 H 0.7534 0.77252 0.49309 0.0
H2261 H 0.74043 0.78439 0.4841 0.0
H2262 H 0.76631 0.80323 0.47168 0.0
H2263 H 0.77925 0.79158 0.48085 0.0
H2264 H 0.76127 0.76328 0.51619 0.0
H2265 H 0.74841 0.77239 0.52791 0.0
H2266 H 0.76163 0.8027 0.51855 0.0
H2267 H 0.77442 0.79346 0.50672 0.0
O2268 O 0.82425 0.72068 0.51379 0.0
O2269 O 0.83234 0.73495 0.51996 0.0
O2270 O 0.76997 0.76842 0.43485 0.0
O2271 O 0.78619 0.77531 0.43341 0.0
C2272 C 0.78409 0.76493 0.50716 0.0
C2273 C 0.79083 0.75912 0.50008 0.0
C2274 C 0.78955 0.7602 0.48898 0.0
C2275 C 0.78182 0.76746 0.48497 0.0
C2276 C 0.77521 0.77346 0.49203 0.0
C2277 C 0.77621 0.77205 0.50316 0.0
C2278 C 0.7856 0.76359 0.51879 0.0
C2279 C 0.78391 0.75364 0.52361 0.0
C2280 C 0.7874 0.75163 0.53394 0.0
C2281 C 0.79252 0.7596 0.53969 0.0
C2282 C 0.79358 0.76977 0.53505 0.0
C2283 C 0.79015 0.77175 0.52467 0.0
C2284 C 0.79934 0.75193 0.5043 0.0
C2285 C 0.79867 0.74086 0.50314 0.0
C2286 C 0.8069 0.73416 0.50676 0.0
C2287 C 0.81588 0.73841 0.51171 0.0
C2288 C 0.81642 0.74951 0.513 0.0
C2289 C 0.80824 0.7562 0.50929 0.0
C2290 C 0.79599 0.75337 0.48157 0.0
C2291 C 0.79089 0.74579 0.47536 0.0
C2292 C 0.79687 0.73895 0.4688 0.0
C2293 C 0.80808 0.73941 0.46853 0.0
C2294 C 0.81321 0.74701 0.4747 0.0
C2295 C 0.80719 0.75405 0.48106 0.0
C2296 C 0.78069 0.76873 0.47329 0.0
C2297 C 0.77139 0.76539 0.46827 0.0
C2298 C 0.77049 0.76628 0.45724 0.0
C2299 C 0.77888 0.77051 0.45103 0.0
C2300 C 0.78815 0.7739 0.45612 0.0
C2301 C 0.78903 0.77303 0.46716 0.0
C2302 C 0.76727 0.78119 0.48762 0.0
C2303 C 0.75625 0.77934 0.48863 0.0
C2304 C 0.74888 0.78606 0.48349 0.0
C2305 C 0.75247 0.79465 0.47728 0.0
C2306 C 0.76343 0.79666 0.4765 0.0
C2307 C 0.77079 0.79002 0.4817 0.0
C2308 C 0.76878 0.7777 0.51061 0.0
C2309 C 0.76145 0.77188 0.51675 0.0
C2310 C 0.75413 0.77711 0.52347 0.0
C2311 C 0.75399 0.7883 0.5242 0.0
C2312 C 0.76143 0.7941 0.51809 0.0
C2313 C 0.76877 0.78884 0.51137 0.0
C2314 C 0.82466 0.73128 0.51543 0.0
C2315 C 0.77803 0.77134 0.43929 0.0
H2316 H 0.69965 0.21655 0.50597 0.0
H2317 H 0.77386 0.26012 0.42769 0.0
H2318 H 0.73403 0.2652 0.51453 0.0
H2319 H 0.72445 0.26016 0.53079 0.0
H2320 H 0.75151 0.24051 0.54023 0.0
H2321 H 0.76116 0.24585 0.52395 0.0
H2322 H 0.72663 0.25249 0.49441 0.0
H2323 H 0.71286 0.23933 0.49814 0.0
H2324 H 0.73646 0.21899 0.51341 0.0
H2325 H 0.75019 0.23211 0.50942 0.0
H2326 H 0.73804 0.26062 0.47262 0.0
H2327 H 0.72876 0.25081 0.45887 0.0
H2328 H 0.74222 0.22129 0.47107 0.0
H2329 H 0.75164 0.2312 0.48466 0.0
H2330 H 0.75463 0.27803 0.47416 0.0
H2331 H 0.75846 0.28105 0.45524 0.0
H2332 H 0.77303 0.2496 0.4532 0.0
H2333 H 0.76934 0.24677 0.47219 0.0
H2334 H 0.76095 0.28718 0.49473 0.0
H2335 H 0.77281 0.30077 0.48718 0.0
H2336 H 0.79624 0.27628 0.47934 0.0
H2337 H 0.78425 0.2627 0.48666 0.0
H2338 H 0.75297 0.27815 0.51984 0.0
H2339 H 0.76256 0.28625 0.53462 0.0
H2340 H 0.79175 0.27051 0.52423 0.0
H2341 H 0.78211 0.26206 0.50971 0.0
O2342 O 0.70519 0.22171 0.5047 0.0
O2343 O 0.71747 0.21185 0.51306 0.0
O2344 O 0.76552 0.27559 0.43684 0.0
O2345 O 0.77253 0.25926 0.43526 0.0
C2346 C 0.75264 0.25689 0.50721 0.0
C2347 C 0.74784 0.25104 0.499 0.0
C2348 C 0.75094 0.25265 0.48829 0.0
C2349 C 0.75888 0.26017 0.48584 0.0
C2350 C 0.76391 0.26579 0.4941 0.0
C2351 C 0.76096 0.26404 0.50488 0.0
C2352 C 0.74823 0.25584 0.51811 0.0
C2353 C 0.738 0.26008 0.52029 0.0
C2354 C 0.73251 0.25709 0.5295 0.0
C2355 C 0.73715 0.24977 0.53666 0.0
C2356 C 0.74775 0.24619 0.53486 0.0
C2357 C 0.75328 0.24923 0.52561 0.0
C2358 C 0.73939 0.24324 0.50165 0.0
C2359 C 0.7288 0.24518 0.49856 0.0
C2360 C 0.72096 0.23766 0.5007 0.0
C2361 C 0.72357 0.2281 0.50605 0.0
C2362 C 0.73418 0.22626 0.50927 0.0
C2363 C 0.74203 0.23376 0.50704 0.0
C2364 C 0.7456 0.24667 0.47964 0.0
C2365 C 0.73911 0.25205 0.47223 0.0
C2366 C 0.7338 0.24642 0.46438 0.0
C2367 C 0.73472 0.23524 0.46386 0.0
C2368 C 0.74122 0.22987 0.47131 0.0
C2369 C 0.74665 0.23553 0.47906 0.0
C2370 C 0.7618 0.26222 0.47454 0.0
C2371 C 0.75881 0.27188 0.46965 0.0
C2372 C 0.76094 0.27355 0.45883 0.0
C2373 C 0.76602 0.26554 0.4527 0.0
C2374 C 0.76909 0.25592 0.45768 0.0
C2375 C 0.76702 0.25429 0.46852 0.0
C2376 C 0.77179 0.274 0.49125 0.0
C2377 C 0.76874 0.2848 0.49159 0.0
C2378 C 0.77546 0.29251 0.48724 0.0
C2379 C 0.78539 0.28951 0.48273 0.0
C2380 C 0.78865 0.27875 0.48289 0.0
C2381 C 0.78185 0.27103 0.48705 0.0
C2382 C 0.76678 0.26941 0.51366 0.0
C2383 C 0.76141 0.27634 0.52078 0.0
C2384 C 0.76688 0.28101 0.52918 0.0
C2385 C 0.77786 0.27897 0.53053 0.0
C2386 C 0.78328 0.27218 0.52335 0.0
C2387 C 0.77778 0.26741 0.51503 0.0
C2388 C 0.71526 0.22005 0.50818 0.0
C2389 C 0.768 0.26715 0.44114 0.0
H2390 H 0.20143 0.35085 0.5177 0.0
H2391 H 0.24606 0.2828 0.4338 0.0
H2392 H 0.25066 0.3202 0.52283 0.0
H2393 H 0.24229 0.32661 0.53918 0.0
H2394 H 0.23228 0.29456 0.54671 0.0
H2395 H 0.23981 0.28848 0.52974 0.0
H2396 H 0.23954 0.32752 0.50272 0.0
H2397 H 0.22512 0.33993 0.50789 0.0
H2398 H 0.20791 0.31393 0.52251 0.0
H2399 H 0.22225 0.30155 0.51701 0.0
H2400 H 0.24711 0.31997 0.48195 0.0
H2401 H 0.23518 0.33025 0.47022 0.0
H2402 H 0.20905 0.30988 0.47924 0.0
H2403 H 0.22101 0.2997 0.49103 0.0
H2404 H 0.26602 0.30174 0.4787 0.0
H2405 H 0.26783 0.29859 0.45954 0.0
H2406 H 0.23752 0.28251 0.4601 0.0
H2407 H 0.23594 0.28551 0.47929 0.0
H2408 H 0.27752 0.29238 0.49577 0.0
H2409 H 0.28934 0.27911 0.48696 0.0
H2410 H 0.26312 0.25729 0.48586 0.0
H2411 H 0.25132 0.27063 0.49437 0.0
H2412 H 0.27204 0.3014 0.52033 0.0
H2413 H 0.28422 0.29207 0.53241 0.0
H2414 H 0.2651 0.26379 0.53021 0.0
H2415 H 0.2533 0.27312 0.51775 0.0
O2416 O 0.20706 0.34581 0.51578 0.0
O2417 O 0.19892 0.33233 0.52391 0.0
O2418 O 0.26154 0.29167 0.44165 0.0
O2419 O 0.24569 0.28392 0.44142 0.0
C2420 C 0.24726 0.30111 0.51364 0.0
C2421 C 0.24053 0.30608 0.50604 0.0
C2422 C 0.2418 0.30368 0.49516 0.0
C2423 C 0.24959 0.29617 0.49183 0.0
C2424 C 0.25605 0.29087 0.4994 0.0
C2425 C 0.25494 0.29338 0.51032 0.0
C2426 C 0.24573 0.30391 0.52502 0.0
C2427 C 0.2469 0.31451 0.52816 0.0
C2428 C 0.24209 0.31816 0.53757 0.0
C2429 C 0.23634 0.31117 0.54424 0.0
C2430 C 0.23629 0.30027 0.54162 0.0
C2431 C 0.24083 0.2967 0.53203 0.0
C2432 C 0.2319 0.31365 0.50946 0.0
C2433 C 0.23261 0.32452 0.50698 0.0
C2434 C 0.22438 0.33159 0.50998 0.0
C2435 C 0.21535 0.32792 0.5156 0.0
C2436 C 0.21474 0.31702 0.51817 0.0
C2437 C 0.22293 0.30994 0.51508 0.0
C2438 C 0.23489 0.30913 0.48728 0.0
C2439 C 0.23885 0.31767 0.48127 0.0
C2440 C 0.23203 0.32355 0.47466 0.0
C2441 C 0.22122 0.32084 0.4739 0.0
C2442 C 0.21737 0.31205 0.47966 0.0
C2443 C 0.22416 0.30627 0.48637 0.0
C2444 C 0.25088 0.29381 0.48034 0.0
C2445 C 0.25986 0.29742 0.47468 0.0
C2446 C 0.26084 0.29566 0.46374 0.0
C2447 C 0.25279 0.29033 0.45829 0.0
C2448 C 0.24385 0.28666 0.46404 0.0
C2449 C 0.24292 0.28835 0.47499 0.0
C2450 C 0.26362 0.2824 0.49575 0.0
C2451 C 0.27442 0.28465 0.4938 0.0
C2452 C 0.28111 0.27713 0.48875 0.0
C2453 C 0.2771 0.26721 0.48581 0.0
C2454 C 0.2664 0.26484 0.48818 0.0
C2455 C 0.25968 0.27241 0.49304 0.0
C2456 C 0.26184 0.28792 0.51819 0.0
C2457 C 0.2705 0.2932 0.52252 0.0
C2458 C 0.2774 0.28785 0.52947 0.0
C2459 C 0.27569 0.27713 0.53232 0.0
C2460 C 0.26682 0.27196 0.52807 0.0
C2461 C 0.26 0.27729 0.52103 0.0
C2462 C 0.2066 0.33545 0.51871 0.0
C2463 C 0.25365 0.28869 0.44663 0.0
H2464 H 0.84806 0.51982 0.71358 0.0
H2465 H 0.79645 0.59466 0.78845 0.0
H2466 H 0.79506 0.50807 0.74662 0.0
H2467 H 0.80002 0.4913 0.73781 0.0
H2468 H 0.82203 0.48387 0.7631 0.0
H2469 H 0.81684 0.50062 0.77199 0.0
H2470 H 0.80914 0.52951 0.73831 0.0
H2471 H 0.82372 0.52652 0.72538 0.0
H2472 H 0.84325 0.51287 0.75035 0.0
H2473 H 0.82872 0.51614 0.76321 0.0
H2474 H 0.79749 0.55027 0.74934 0.0
H2475 H 0.80521 0.56665 0.74207 0.0
H2476 H 0.83553 0.55821 0.75604 0.0
H2477 H 0.82768 0.5419 0.76365 0.0
H2478 H 0.78068 0.54929 0.76679 0.0
H2479 H 0.77692 0.56788 0.77151 0.0
H2480 H 0.8081 0.56964 0.78581 0.0
H2481 H 0.81169 0.55102 0.78119 0.0
H2482 H 0.77212 0.52596 0.7732 0.0
H2483 H 0.75756 0.53151 0.78525 0.0
H2484 H 0.78068 0.54343 0.80726 0.0
H2485 H 0.79518 0.53784 0.79514 0.0
H2486 H 0.78092 0.50492 0.76515 0.0
H2487 H 0.76981 0.49294 0.77586 0.0
H2488 H 0.78764 0.50091 0.80385 0.0
H2489 H 0.79863 0.51289 0.79308 0.0
O2490 O 0.84238 0.52088 0.7188 0.0
O2491 O 0.85185 0.51334 0.7318 0.0
O2492 O 0.78159 0.58587 0.77944 0.0
O2493 O 0.79765 0.58725 0.78664 0.0
C2494 C 0.80364 0.51648 0.76428 0.0
C2495 C 0.80924 0.52508 0.75957 0.0
C2496 C 0.80677 0.53569 0.76254 0.0
C2497 C 0.79889 0.53769 0.77047 0.0
C2498 C 0.79343 0.52916 0.77537 0.0
C2499 C 0.79594 0.51852 0.77242 0.0
C2500 C 0.80549 0.50553 0.76001 0.0
C2501 C 0.80075 0.5027 0.7504 0.0
C2502 C 0.80362 0.49313 0.74536 0.0
C2503 C 0.81145 0.48627 0.74973 0.0
C2504 C 0.81603 0.48902 0.75949 0.0
C2505 C 0.813 0.49852 0.76464 0.0
C2506 C 0.81788 0.52297 0.75165 0.0
C2507 C 0.81658 0.52587 0.74095 0.0
C2508 C 0.82491 0.52415 0.73359 0.0
C2509 C 0.83464 0.51944 0.73683 0.0
C2510 C 0.83586 0.51649 0.74758 0.0
C2511 C 0.82756 0.5183 0.75494 0.0
C2512 C 0.812 0.54487 0.75705 0.0
C2513 C 0.80582 0.55189 0.75078 0.0
C2514 C 0.81022 0.56122 0.74664 0.0
C2515 C 0.82092 0.56363 0.74854 0.0
C2516 C 0.82725 0.55646 0.75448 0.0
C2517 C 0.8228 0.54716 0.75876 0.0
C2518 C 0.79643 0.54883 0.77368 0.0
C2519 C 0.78664 0.55369 0.77104 0.0
C2520 C 0.78453 0.56431 0.7737 0.0
C2521 C 0.79223 0.57025 0.77902 0.0
C2522 C 0.80201 0.5653 0.78171 0.0
C2523 C 0.80408 0.55468 0.77908 0.0
C2524 C 0.78471 0.53151 0.78327 0.0
C2525 C 0.77404 0.5296 0.78071 0.0
C2526 C 0.76573 0.53277 0.78762 0.0
C2527 C 0.76794 0.53798 0.79721 0.0
C2528 C 0.77868 0.53959 0.79988 0.0
C2529 C 0.78698 0.53635 0.79299 0.0
C2530 C 0.79065 0.5097 0.7783 0.0
C2531 C 0.78262 0.50383 0.77352 0.0
C2532 C 0.77624 0.49703 0.77969 0.0
C2533 C 0.77777 0.49603 0.79075 0.0
C2534 C 0.78613 0.50162 0.7954 0.0
C2535 C 0.79251 0.50835 0.78923 0.0
C2536 C 0.84349 0.51768 0.72903 0.0
C2537 C 0.79012 0.58158 0.7817 0.0
H2538 H 0.27206 0.51756 0.82051 0.0
H2539 H 0.20215 0.59875 0.77498 0.0
H2540 H 0.24072 0.51047 0.77201 0.0
H2541 H 0.24866 0.49333 0.77718 0.0
H2542 H 0.21869 0.48436 0.79192 0.0
H2543 H 0.21079 0.50171 0.78676 0.0
H2544 H 0.2475 0.52979 0.78299 0.0
H2545 H 0.26037 0.52564 0.79696 0.0
H2546 H 0.23492 0.51277 0.81658 0.0
H2547 H 0.22209 0.51715 0.8026 0.0
H2548 H 0.23861 0.54964 0.77275 0.0
H2549 H 0.2491 0.56325 0.78139 0.0
H2550 H 0.23204 0.55754 0.811 0.0
H2551 H 0.22149 0.54386 0.80223 0.0
H2552 H 0.22096 0.55229 0.75648 0.0
H2553 H 0.21768 0.57139 0.75385 0.0
H2554 H 0.20194 0.57295 0.78473 0.0
H2555 H 0.20507 0.55381 0.78714 0.0
H2556 H 0.21409 0.53171 0.74643 0.0
H2557 H 0.20379 0.54107 0.73274 0.0
H2558 H 0.18005 0.55009 0.75656 0.0
H2559 H 0.19066 0.54105 0.7702 0.0
H2560 H 0.22218 0.50708 0.75599 0.0
H2561 H 0.21318 0.49233 0.74744 0.0
H2562 H 0.18323 0.50235 0.76213 0.0
H2563 H 0.19235 0.51693 0.77093 0.0
O2564 O 0.26684 0.51906 0.81506 0.0
O2565 O 0.25357 0.51211 0.82466 0.0
O2566 O 0.21074 0.5898 0.75953 0.0
O2567 O 0.20328 0.59113 0.77566 0.0
C2568 C 0.22124 0.5186 0.77751 0.0
C2569 C 0.226 0.52666 0.7835 0.0
C2570 C 0.22333 0.53742 0.78155 0.0
C2571 C 0.21571 0.54025 0.77384 0.0
C2572 C 0.21069 0.53229 0.76792 0.0
C2573 C 0.21342 0.52142 0.76984 0.0
C2574 C 0.22517 0.50738 0.77902 0.0
C2575 C 0.2358 0.50475 0.77621 0.0
C2576 C 0.24036 0.49498 0.77927 0.0
C2577 C 0.23436 0.48752 0.78511 0.0
C2578 C 0.22352 0.48992 0.78741 0.0
C2579 C 0.21898 0.4998 0.78444 0.0
C2580 C 0.23387 0.52384 0.79184 0.0
C2581 C 0.24472 0.52612 0.79034 0.0
C2582 C 0.25205 0.52372 0.79831 0.0
C2583 C 0.24866 0.5189 0.8079 0.0
C2584 C 0.23778 0.5165 0.8093 0.0
C2585 C 0.23045 0.51897 0.80134 0.0
C2586 C 0.22932 0.54583 0.78689 0.0
C2587 C 0.23711 0.55136 0.78109 0.0
C2588 C 0.24313 0.55905 0.78604 0.0
C2589 C 0.2414 0.56133 0.79686 0.0
C2590 C 0.23347 0.55589 0.80264 0.0
C2591 C 0.22749 0.54812 0.79768 0.0
C2592 C 0.21315 0.55168 0.77195 0.0
C2593 C 0.21665 0.55675 0.76258 0.0
C2594 C 0.21483 0.56766 0.76114 0.0
C2595 C 0.20957 0.5737 0.7691 0.0
C2596 C 0.20601 0.56854 0.77844 0.0
C2597 C 0.20777 0.55762 0.77984 0.0
C2598 C 0.20314 0.53564 0.75934 0.0
C2599 C 0.20652 0.53547 0.74863 0.0
C2600 C 0.20059 0.54089 0.7408 0.0
C2601 C 0.19109 0.54655 0.74348 0.0
C2602 C 0.18743 0.54611 0.75416 0.0
C2603 C 0.1934 0.54076 0.76197 0.0
C2604 C 0.20791 0.513 0.76409 0.0
C2605 C 0.21369 0.50606 0.75739 0.0
C2606 C 0.20857 0.49765 0.75256 0.0
C2607 C 0.19756 0.49623 0.75423 0.0
C2608 C 0.19173 0.50334 0.76074 0.0
C2609 C 0.19689 0.51165 0.76571 0.0
C2610 C 0.25647 0.51646 0.8164 0.0
C2611 C 0.2079 0.58534 0.76776 0.0
H2612 H 0.21713 0.53016 0.27642 0.0
H2613 H 0.27933 0.43578 0.24045 0.0
H2614 H 0.25405 0.52843 0.22725 0.0
H2615 H 0.24911 0.54716 0.22974 0.0
H2616 H 0.27663 0.55095 0.24978 0.0
H2617 H 0.28167 0.53224 0.24691 0.0
H2618 H 0.24215 0.5113 0.24143 0.0
H2619 H 0.22907 0.51853 0.25427 0.0
H2620 H 0.25489 0.52831 0.27435 0.0
H2621 H 0.26786 0.52087 0.26152 0.0
H2622 H 0.24735 0.48892 0.23717 0.0
H2623 H 0.23447 0.48077 0.2494 0.0
H2624 H 0.25525 0.48728 0.27577 0.0
H2625 H 0.26775 0.49588 0.26348 0.0
H2626 H 0.26691 0.48289 0.21851 0.0
H2627 H 0.26806 0.46346 0.21722 0.0
H2628 H 0.28132 0.46179 0.24885 0.0
H2629 H 0.2803 0.48122 0.24994 0.0
H2630 H 0.27808 0.50215 0.20716 0.0
H2631 H 0.28997 0.49309 0.19442 0.0
H2632 H 0.30984 0.48221 0.22045 0.0
H2633 H 0.29751 0.49079 0.23306 0.0
H2634 H 0.2742 0.52685 0.21328 0.0
H2635 H 0.28669 0.53951 0.20531 0.0
H2636 H 0.3115 0.52769 0.22622 0.0
H2637 H 0.29899 0.51498 0.23397 0.0
O2638 O 0.22244 0.52742 0.27141 0.0
O2639 O 0.236 0.53264 0.28125 0.0
O2640 O 0.27249 0.44477 0.22428 0.0
O2641 O 0.27892 0.44348 0.24067 0.0
C2642 C 0.27018 0.51744 0.23651 0.0
C2643 C 0.26383 0.51081 0.24298 0.0
C2644 C 0.26512 0.49968 0.24242 0.0
C2645 C 0.27258 0.49513 0.23516 0.0
C2646 C 0.27909 0.50179 0.22876 0.0
C2647 C 0.27805 0.51297 0.22966 0.0
C2648 C 0.26823 0.52906 0.23686 0.0
C2649 C 0.25912 0.53339 0.23199 0.0
C2650 C 0.25625 0.54404 0.23353 0.0
C2651 C 0.26241 0.55052 0.24005 0.0
C2652 C 0.27177 0.54621 0.24462 0.0
C2653 C 0.27468 0.53555 0.243 0.0
C2654 C 0.25592 0.51557 0.25058 0.0
C2655 C 0.24494 0.515 0.24862 0.0
C2656 C 0.23751 0.51914 0.25596 0.0
C2657 C 0.24094 0.52399 0.26534 0.0
C2658 C 0.25198 0.52463 0.2672 0.0
C2659 C 0.2594 0.52043 0.25988 0.0
C2660 C 0.25846 0.49293 0.24946 0.0
C2661 C 0.24918 0.48837 0.24557 0.0
C2662 C 0.24184 0.48372 0.2526 0.0
C2663 C 0.24375 0.48344 0.26363 0.0
C2664 C 0.25337 0.48756 0.26739 0.0
C2665 C 0.26062 0.49233 0.26037 0.0
C2666 C 0.27352 0.48341 0.23431 0.0
C2667 C 0.27013 0.4783 0.22511 0.0
C2668 C 0.27076 0.46722 0.22442 0.0
C2669 C 0.27476 0.46108 0.23295 0.0
C2670 C 0.27819 0.46627 0.24214 0.0
C2671 C 0.2776 0.47736 0.2428 0.0
C2672 C 0.28689 0.49704 0.22103 0.0
C2673 C 0.28504 0.49782 0.21006 0.0
C2674 C 0.29192 0.49268 0.20278 0.0
C2675 C 0.3009 0.48676 0.20632 0.0
C2676 C 0.30289 0.48639 0.21736 0.0
C2677 C 0.29591 0.49139 0.22462 0.0
C2678 C 0.28573 0.52 0.22416 0.0
C2679 C 0.28237 0.52696 0.21605 0.0
C2680 C 0.28949 0.53423 0.21158 0.0
C2681 C 0.30009 0.53464 0.21516 0.0
C2682 C 0.30345 0.52749 0.22317 0.0
C2683 C 0.29632 0.52024 0.22762 0.0
C2684 C 0.23302 0.52829 0.27316 0.0
C2685 C 0.27531 0.4493 0.23233 0.0
H2686 H 0.70019 0.52728 0.21101 0.0
H2687 H 0.7392 0.43399 0.27428 0.0
H2688 H 0.74854 0.52494 0.24136 0.0
H2689 H 0.74724 0.54398 0.23726 0.0
H2690 H 0.73769 0.55029 0.26983 0.0
H2691 H 0.73872 0.53114 0.27383 0.0
H2692 H 0.73602 0.50659 0.23283 0.0
H2693 H 0.72246 0.51414 0.22097 0.0
H2694 H 0.70609 0.52837 0.24807 0.0
H2695 H 0.71961 0.52063 0.25986 0.0
H2696 H 0.74366 0.48341 0.24016 0.0
H2697 H 0.73256 0.47204 0.2294 0.0
H2698 H 0.70439 0.48353 0.24645 0.0
H2699 H 0.71563 0.49505 0.25706 0.0
H2700 H 0.76118 0.47917 0.25726 0.0
H2701 H 0.76234 0.45984 0.25973 0.0
H2702 H 0.73077 0.46036 0.2743 0.0
H2703 H 0.72979 0.4797 0.27192 0.0
H2704 H 0.77331 0.49857 0.26716 0.0
H2705 H 0.78602 0.48955 0.27897 0.0
H2706 H 0.75977 0.47978 0.29939 0.0
H2707 H 0.74716 0.48868 0.28744 0.0
H2708 H 0.76789 0.5216 0.26007 0.0
H2709 H 0.7802 0.53205 0.27052 0.0
H2710 H 0.76197 0.52473 0.29912 0.0
H2711 H 0.74987 0.51408 0.28859 0.0
O2712 O 0.7055 0.52443 0.21584 0.0
O2713 O 0.69756 0.53183 0.22999 0.0
O2714 O 0.75524 0.44181 0.26582 0.0
O2715 O 0.73897 0.44164 0.27323 0.0
C2716 C 0.74375 0.51488 0.26003 0.0
C2717 C 0.73679 0.50824 0.25441 0.0
C2718 C 0.73736 0.49706 0.25579 0.0
C2719 C 0.74476 0.49252 0.26299 0.0
C2720 C 0.75153 0.49912 0.26884 0.0
C2721 C 0.75098 0.51029 0.26738 0.0
C2722 C 0.74365 0.5266 0.25788 0.0
C2723 C 0.74615 0.53042 0.24762 0.0
C2724 C 0.74539 0.5413 0.24528 0.0
C2725 C 0.7423 0.54864 0.2532 0.0
C2726 C 0.74016 0.54484 0.26358 0.0
C2727 C 0.74075 0.53391 0.26587 0.0
C2728 C 0.72874 0.51303 0.24719 0.0
C2729 C 0.72947 0.51131 0.23618 0.0
C2730 C 0.72173 0.51565 0.22943 0.0
C2731 C 0.71318 0.52184 0.23358 0.0
C2732 C 0.71256 0.52363 0.24463 0.0
C2733 C 0.72028 0.51925 0.25137 0.0
C2734 C 0.73047 0.49004 0.24941 0.0
C2735 C 0.73509 0.48343 0.24159 0.0
C2736 C 0.72872 0.47689 0.23548 0.0
C2737 C 0.71754 0.47679 0.23705 0.0
C2738 C 0.71293 0.48347 0.24491 0.0
C2739 C 0.71934 0.49002 0.25103 0.0
C2740 C 0.74541 0.4808 0.26442 0.0
C2741 C 0.75455 0.47509 0.26102 0.0
C2742 C 0.75518 0.46405 0.26242 0.0
C2743 C 0.74664 0.45856 0.26721 0.0
C2744 C 0.73748 0.46434 0.27058 0.0
C2745 C 0.73688 0.47538 0.26921 0.0
C2746 C 0.7593 0.49425 0.27642 0.0
C2747 C 0.77033 0.49456 0.27425 0.0
C2748 C 0.77759 0.48942 0.28103 0.0
C2749 C 0.77394 0.48385 0.29012 0.0
C2750 C 0.76287 0.48379 0.29237 0.0
C2751 C 0.75564 0.48893 0.28559 0.0
C2752 C 0.75803 0.51712 0.2736 0.0
C2753 C 0.76653 0.52235 0.26858 0.0
C2754 C 0.77351 0.52834 0.27456 0.0
C2755 C 0.77206 0.52921 0.28566 0.0
C2756 C 0.7634 0.52408 0.29062 0.0
C2757 C 0.75645 0.51807 0.28463 0.0
C2758 C 0.70493 0.52636 0.2264 0.0
C2759 C 0.74725 0.44684 0.26869 0.0
H2760 H 0.49871 0.3603 0.80766 0.0
H2761 H 0.58766 0.3188 0.74018 0.0
H2762 H 0.49648 0.31068 0.77184 0.0
H2763 H 0.47773 0.31274 0.77766 0.0
H2764 H 0.47151 0.3331 0.75052 0.0
H2765 H 0.49027 0.33077 0.74454 0.0
H2766 H 0.51531 0.32461 0.78237 0.0
H2767 H 0.50927 0.33775 0.79554 0.0
H2768 H 0.4966 0.35764 0.77023 0.0
H2769 H 0.50289 0.34454 0.75714 0.0
H2770 H 0.53768 0.31591 0.77417 0.0
H2771 H 0.55098 0.32491 0.78495 0.0
H2772 H 0.54247 0.35489 0.77008 0.0
H2773 H 0.52916 0.34585 0.7592 0.0
H2774 H 0.54061 0.29986 0.75641 0.0
H2775 H 0.55991 0.2973 0.75377 0.0
H2776 H 0.5618 0.329 0.7402 0.0
H2777 H 0.54246 0.33137 0.7427 0.0
H2778 H 0.51932 0.29024 0.74766 0.0
H2779 H 0.52865 0.27632 0.7375 0.0
H2780 H 0.54238 0.30035 0.71686 0.0
H2781 H 0.5326 0.31419 0.72681 0.0
H2782 H 0.49672 0.29684 0.75299 0.0
H2783 H 0.48528 0.28632 0.74163 0.0
H2784 H 0.49567 0.30465 0.71421 0.0
H2785 H 0.50676 0.31536 0.72572 0.0
O2786 O 0.50095 0.35517 0.80233 0.0
O2787 O 0.49414 0.36487 0.78908 0.0
O2788 O 0.57854 0.30314 0.7478 0.0
O2789 O 0.58 0.31955 0.7412 0.0
C2790 C 0.50623 0.31995 0.75491 0.0
C2791 C 0.51355 0.32593 0.76083 0.0
C2792 C 0.52468 0.32457 0.75912 0.0
C2793 C 0.52846 0.31734 0.75135 0.0
C2794 C 0.52116 0.31153 0.74527 0.0
C2795 C 0.51003 0.31291 0.74693 0.0
C2796 C 0.49469 0.32054 0.75775 0.0
C2797 C 0.49103 0.31544 0.76706 0.0
C2798 C 0.48037 0.31662 0.77037 0.0
C2799 C 0.47326 0.32307 0.76452 0.0
C2800 C 0.47689 0.32809 0.75514 0.0
C2801 C 0.48754 0.32674 0.75171 0.0
C2802 C 0.50954 0.33366 0.76884 0.0
C2803 C 0.51124 0.33183 0.77971 0.0
C2804 C 0.50777 0.33933 0.7872 0.0
C2805 C 0.50247 0.34875 0.78393 0.0
C2806 C 0.50067 0.35048 0.77301 0.0
C2807 C 0.50421 0.343 0.76553 0.0
C2808 C 0.53245 0.33022 0.76589 0.0
C2809 C 0.53867 0.32442 0.77323 0.0
C2810 C 0.54623 0.32954 0.77937 0.0
C2811 C 0.54769 0.34054 0.77828 0.0
C2812 C 0.54145 0.34638 0.771 0.0
C2813 C 0.53386 0.34125 0.76485 0.0
C2814 C 0.54016 0.31577 0.74969 0.0
C2815 C 0.54521 0.3062 0.75279 0.0
C2816 C 0.55623 0.30478 0.75131 0.0
C2817 C 0.5624 0.31296 0.74678 0.0
C2818 C 0.55729 0.32255 0.74371 0.0
C2819 C 0.54626 0.32393 0.74514 0.0
C2820 C 0.52531 0.30319 0.73796 0.0
C2821 C 0.52409 0.29246 0.74074 0.0
C2822 C 0.52954 0.28454 0.73503 0.0
C2823 C 0.53638 0.28726 0.72649 0.0
C2824 C 0.53712 0.298 0.72335 0.0
C2825 C 0.53157 0.30592 0.72903 0.0
C2826 C 0.50247 0.30697 0.74022 0.0
C2827 C 0.49636 0.29871 0.74457 0.0
C2828 C 0.48994 0.2926 0.73802 0.0
C2829 C 0.48956 0.2946 0.72697 0.0
C2830 C 0.49563 0.30297 0.72268 0.0
C2831 C 0.50201 0.30909 0.72924 0.0
C2832 C 0.49891 0.35677 0.79189 0.0
C2833 C 0.57412 0.31154 0.7453 0.0
H2834 H 0.49879 0.67064 0.79463 0.0
H2835 H 0.58714 0.73155 0.74471 0.0
H2836 H 0.49458 0.70086 0.74398 0.0
H2837 H 0.47628 0.69721 0.75019 0.0
H2838 H 0.4736 0.72905 0.76285 0.0
H2839 H 0.49186 0.73263 0.75673 0.0
H2840 H 0.51527 0.69148 0.75612 0.0
H2841 H 0.50932 0.67998 0.77079 0.0
H2842 H 0.49672 0.70762 0.78745 0.0
H2843 H 0.50294 0.71904 0.77285 0.0
H2844 H 0.5382 0.69777 0.74939 0.0
H2845 H 0.54944 0.68811 0.76225 0.0
H2846 H 0.53835 0.70954 0.78703 0.0
H2847 H 0.52748 0.71926 0.77407 0.0
H2848 H 0.53992 0.71476 0.72813 0.0
H2849 H 0.55917 0.71665 0.72511 0.0
H2850 H 0.56147 0.73288 0.75524 0.0
H2851 H 0.54219 0.73105 0.75809 0.0
H2852 H 0.51987 0.7258 0.71714 0.0
H2853 H 0.52719 0.73831 0.70393 0.0
H2854 H 0.5378 0.75834 0.72943 0.0
H2855 H 0.53028 0.74595 0.74248 0.0
H2856 H 0.49453 0.7192 0.72623 0.0
H2857 H 0.47994 0.72965 0.71836 0.0
H2858 H 0.49201 0.75806 0.73288 0.0
H2859 H 0.50623 0.7474 0.74114 0.0
O2860 O 0.50102 0.67533 0.78889 0.0
O2861 O 0.49419 0.68973 0.79688 0.0
O2862 O 0.57787 0.72254 0.73015 0.0
O2863 O 0.5795 0.73076 0.74565 0.0
C2864 C 0.50599 0.71852 0.74806 0.0
C2865 C 0.51337 0.71306 0.75467 0.0
C2866 C 0.52444 0.71458 0.75328 0.0
C2867 C 0.52808 0.72148 0.74514 0.0
C2868 C 0.52065 0.72724 0.73875 0.0
C2869 C 0.50954 0.72586 0.74026 0.0
C2870 C 0.49447 0.71699 0.74995 0.0
C2871 C 0.48991 0.70711 0.74786 0.0
C2872 C 0.47953 0.70504 0.75137 0.0
C2873 C 0.47369 0.71284 0.75702 0.0
C2874 C 0.47805 0.72293 0.75855 0.0
C2875 C 0.4884 0.725 0.75502 0.0
C2876 C 0.50948 0.70606 0.76342 0.0
C2877 C 0.51123 0.69502 0.76295 0.0
C2878 C 0.50781 0.68848 0.77133 0.0
C2879 C 0.50254 0.69288 0.78028 0.0
C2880 C 0.50075 0.70397 0.78067 0.0
C2881 C 0.50424 0.7105 0.77233 0.0
C2882 C 0.53206 0.70925 0.76077 0.0
C2883 C 0.53836 0.70045 0.75757 0.0
C2884 C 0.54467 0.69487 0.76497 0.0
C2885 C 0.54482 0.698 0.77574 0.0
C2886 C 0.53861 0.70696 0.77882 0.0
C2887 C 0.53234 0.71252 0.77142 0.0
C2888 C 0.53971 0.72273 0.74334 0.0
C2889 C 0.54461 0.71875 0.73404 0.0
C2890 C 0.55559 0.71983 0.73235 0.0
C2891 C 0.56186 0.72489 0.73996 0.0
C2892 C 0.55688 0.72892 0.74924 0.0
C2893 C 0.54589 0.72786 0.7509 0.0
C2894 C 0.52458 0.73499 0.73073 0.0
C2895 C 0.52369 0.73296 0.71982 0.0
C2896 C 0.52793 0.74006 0.71232 0.0
C2897 C 0.53306 0.74932 0.71564 0.0
C2898 C 0.53376 0.75137 0.7266 0.0
C2899 C 0.52955 0.74427 0.73407 0.0
C2900 C 0.50153 0.7325 0.73425 0.0
C2901 C 0.49408 0.72769 0.72763 0.0
C2902 C 0.48574 0.73373 0.7231 0.0
C2903 C 0.48469 0.74476 0.72498 0.0
C2904 C 0.49239 0.74958 0.73137 0.0
C2905 C 0.50067 0.74352 0.73597 0.0
C2906 C 0.49898 0.68593 0.7892 0.0
C2907 C 0.57355 0.72598 0.73825 0.0
H2908 H 0.53777 0.72681 0.22946 0.0
H2909 H 0.44716 0.78823 0.27224 0.0
H2910 H 0.53985 0.75907 0.27896 0.0
H2911 H 0.55847 0.75419 0.27495 0.0
H2912 H 0.56315 0.78518 0.26058 0.0
H2913 H 0.54435 0.78987 0.26436 0.0
H2914 H 0.52089 0.74957 0.26667 0.0
H2915 H 0.52716 0.73734 0.25275 0.0
H2916 H 0.53925 0.76402 0.23451 0.0
H2917 H 0.53272 0.77618 0.24838 0.0
H2918 H 0.49819 0.75629 0.27423 0.0
H2919 H 0.48769 0.74462 0.26301 0.0
H2920 H 0.4971 0.76288 0.23522 0.0
H2921 H 0.50742 0.7746 0.24652 0.0
H2922 H 0.4944 0.77385 0.29242 0.0
H2923 H 0.47492 0.7754 0.29435 0.0
H2924 H 0.47326 0.79014 0.26314 0.0
H2925 H 0.49274 0.78868 0.26139 0.0
H2926 H 0.5148 0.784 0.30329 0.0
H2927 H 0.50598 0.7952 0.31678 0.0
H2928 H 0.49309 0.8154 0.29186 0.0
H2929 H 0.50224 0.80434 0.27848 0.0
H2930 H 0.5381 0.77889 0.29662 0.0
H2931 H 0.55104 0.79014 0.3055 0.0
H2932 H 0.54111 0.81686 0.28586 0.0
H2933 H 0.5283 0.80552 0.27698 0.0
O2934 O 0.53548 0.73178 0.23493 0.0
O2935 O 0.54201 0.7457 0.22609 0.0
O2936 O 0.45618 0.78048 0.28796 0.0
O2937 O 0.45489 0.7877 0.27178 0.0
C2938 C 0.52904 0.777 0.27301 0.0
C2939 C 0.522 0.7712 0.26665 0.0
C2940 C 0.51084 0.77264 0.26784 0.0
C2941 C 0.50668 0.77989 0.27545 0.0
C2942 C 0.51368 0.78589 0.28172 0.0
C2943 C 0.52488 0.78455 0.28036 0.0
C2944 C 0.54075 0.77484 0.27199 0.0
C2945 C 0.54495 0.76487 0.2751 0.0
C2946 C 0.5556 0.7621 0.27281 0.0
C2947 C 0.56231 0.76928 0.26741 0.0
C2948 C 0.55816 0.77942 0.26463 0.0
C2949 C 0.54747 0.78217 0.26691 0.0
C2950 C 0.52634 0.76374 0.2585 0.0
C2951 C 0.52489 0.75274 0.25965 0.0
C2952 C 0.52849 0.74579 0.2517 0.0
C2953 C 0.53368 0.74971 0.24251 0.0
C2954 C 0.53527 0.76074 0.24148 0.0
C2955 C 0.5316 0.76769 0.2494 0.0
C2956 C 0.50355 0.7663 0.26119 0.0
C2957 C 0.49783 0.75786 0.26574 0.0
C2958 C 0.49194 0.75115 0.25931 0.0
C2959 C 0.49162 0.75278 0.24822 0.0
C2960 C 0.49711 0.76146 0.24374 0.0
C2961 C 0.50302 0.76814 0.25017 0.0
C2962 C 0.49494 0.78117 0.27678 0.0
C2963 C 0.48981 0.77749 0.28606 0.0
C2964 C 0.47869 0.77835 0.28712 0.0
C2965 C 0.47254 0.78286 0.27888 0.0
C2966 C 0.47776 0.78661 0.26962 0.0
C2967 C 0.48887 0.78578 0.2686 0.0
C2968 C 0.50919 0.79335 0.2899 0.0
C2969 C 0.51023 0.79096 0.30077 0.0
C2970 C 0.50507 0.79731 0.30846 0.0
C2971 C 0.49874 0.8062 0.30544 0.0
C2972 C 0.49798 0.80872 0.29452 0.0
C2973 C 0.50316 0.80237 0.28684 0.0
C2974 C 0.53227 0.79142 0.28619 0.0
C2975 C 0.53871 0.78719 0.2943 0.0
C2976 C 0.54605 0.79363 0.29937 0.0
C2977 C 0.54712 0.80438 0.29636 0.0
C2978 C 0.54057 0.80858 0.28827 0.0
C2979 C 0.53319 0.80216 0.28326 0.0
C2980 C 0.53734 0.74231 0.234 0.0
C2981 C 0.46072 0.7836 0.27986 0.0
H2982 H 0.50367 0.20416 0.30191 0.0
H2983 H 0.41962 0.25046 0.23256 0.0
H2984 H 0.50877 0.25243 0.26811 0.0
H2985 H 0.52516 0.24533 0.27605 0.0
H2986 H 0.53246 0.22814 0.2471 0.0
H2987 H 0.51593 0.23526 0.23921 0.0
H2988 H 0.48924 0.24095 0.27681 0.0
H2989 H 0.49429 0.2273 0.2899 0.0
H2990 H 0.50671 0.20735 0.26447 0.0
H2991 H 0.50138 0.22096 0.25145 0.0
H2992 H 0.46795 0.25087 0.26847 0.0
H2993 H 0.45542 0.24177 0.28046 0.0
H2994 H 0.46297 0.21196 0.26485 0.0
H2995 H 0.47539 0.22119 0.2528 0.0
H2996 H 0.46652 0.26778 0.24944 0.0
H2997 H 0.44747 0.27105 0.24628 0.0
H2998 H 0.4451 0.23939 0.23324 0.0
H2999 H 0.46418 0.23631 0.23629 0.0
H3000 H 0.48712 0.27685 0.241 0.0
H3001 H 0.48118 0.29024 0.22795 0.0
H3002 H 0.47215 0.26513 0.20672 0.0
H3003 H 0.47815 0.2518 0.21983 0.0
H3004 H 0.51028 0.26866 0.24935 0.0
H3005 H 0.52322 0.27927 0.23926 0.0
H3006 H 0.51525 0.26248 0.21059 0.0
H3007 H 0.50262 0.25168 0.22084 0.0
O3008 O 0.50173 0.20945 0.2966 0.0
O3009 O 0.50864 0.1998 0.28331 0.0
O3010 O 0.42892 0.26582 0.2401 0.0
O3011 O 0.42721 0.24946 0.23373 0.0
C3012 C 0.49991 0.24599 0.24984 0.0
C3013 C 0.49186 0.24017 0.25526 0.0
C3014 C 0.48096 0.24218 0.25316 0.0
C3015 C 0.47813 0.24974 0.24526 0.0
C3016 C 0.48617 0.25531 0.23952 0.0
C3017 C 0.4971 0.25345 0.24182 0.0
C3018 C 0.51117 0.24434 0.2531 0.0
C3019 C 0.5141 0.24743 0.26335 0.0
C3020 C 0.52337 0.24326 0.26792 0.0
C3021 C 0.52997 0.23603 0.26226 0.0
C3022 C 0.52752 0.2337 0.25163 0.0
C3023 C 0.51814 0.23781 0.24709 0.0
C3024 C 0.49491 0.2319 0.26321 0.0
C3025 C 0.49298 0.23359 0.27409 0.0
C3026 C 0.49591 0.2258 0.28154 0.0
C3027 C 0.5009 0.21623 0.27822 0.0
C3028 C 0.50287 0.21462 0.26729 0.0
C3029 C 0.49986 0.22238 0.25985 0.0
C3030 C 0.47257 0.23673 0.25971 0.0
C3031 C 0.46678 0.24241 0.26754 0.0
C3032 C 0.45971 0.23716 0.27447 0.0
C3033 C 0.45822 0.2261 0.27369 0.0
C3034 C 0.46384 0.22048 0.26564 0.0
C3035 C 0.47096 0.22574 0.25875 0.0
C3036 C 0.4667 0.25183 0.24304 0.0
C3037 C 0.46188 0.26161 0.2458 0.0
C3038 C 0.451 0.26343 0.24403 0.0
C3039 C 0.44476 0.25546 0.23952 0.0
C3040 C 0.44967 0.24569 0.23673 0.0
C3041 C 0.46055 0.2439 0.23846 0.0
C3042 C 0.48305 0.26337 0.23136 0.0
C3043 C 0.48393 0.27426 0.2335 0.0
C3044 C 0.48048 0.28188 0.22607 0.0
C3045 C 0.47617 0.27874 0.21632 0.0
C3046 C 0.47552 0.2678 0.21411 0.0
C3047 C 0.47888 0.26018 0.2216 0.0
C3048 C 0.50552 0.25937 0.23585 0.0
C3049 C 0.51145 0.26718 0.24092 0.0
C3050 C 0.51875 0.27332 0.2351 0.0
C3051 C 0.52025 0.2718 0.22407 0.0
C3052 C 0.51441 0.26381 0.21907 0.0
C3053 C 0.50714 0.25766 0.22491 0.0
C3054 C 0.50401 0.20798 0.28616 0.0
C3055 C 0.43317 0.25727 0.23781 0.0
C3056 C 0.22235 0.18091 0.13149 0.0
C3057 C 0.21904 0.18713 0.14021 0.0
C3058 C 0.22539 0.18573 0.12193 0.0
C3059 C 0.23458 0.21101 0.11048 0.0
H3060 H 0.22592 0.19822 0.084 0.0
C3061 C 0.24274 0.23015 0.06936 0.0
C3062 C 0.24705 0.22321 0.06164 0.0
C3063 C 0.23876 0.22613 0.07897 0.0
C3064 C 0.22843 0.20183 0.09134 0.0
H3065 H 0.21638 0.20327 0.14584 0.0
H3066 H 0.22145 0.21172 0.12898 0.0
H3067 H 0.22001 0.19054 0.1009 0.0
H3068 H 0.25044 0.20671 0.05769 0.0
H3069 H 0.24345 0.19964 0.07452 0.0
H3070 H 0.24302 0.22231 0.10086 0.0
C3071 C 0.22182 0.20311 0.1296 0.0
C3072 C 0.22508 0.19743 0.101 0.0
C3073 C 0.21881 0.19828 0.1392 0.0
C3074 C 0.24719 0.21219 0.06358 0.0
C3075 C 0.24313 0.20817 0.07314 0.0
C3076 C 0.2379 0.21544 0.1008 0.0
C3077 C 0.2251 0.19687 0.12087 0.0
C3078 C 0.22823 0.20189 0.11066 0.0
C3079 C 0.23894 0.2151 0.08094 0.0
C3080 C 0.23495 0.21081 0.09116 0.0
H3081 H 0.22248 0.17229 0.132 0.0
H3082 H 0.22803 0.18071 0.11539 0.0
H3083 H 0.23723 0.21454 0.11781 0.0
H3084 H 0.24263 0.23869 0.06801 0.0
H3085 H 0.23551 0.23162 0.08484 0.0
C3086 C 0.85197 0.21918 0.11518 0.0
C3087 C 0.85501 0.20838 0.11485 0.0
C3088 C 0.84679 0.22386 0.10651 0.0
C3089 C 0.82974 0.21558 0.08483 0.0
H3090 H 0.83236 0.24484 0.07528 0.0
C3091 C 0.79848 0.2366 0.05853 0.0
C3092 C 0.80236 0.24357 0.05067 0.0
C3093 C 0.80546 0.23206 0.06589 0.0
C3094 C 0.83163 0.23661 0.07779 0.0
H3095 H 0.85613 0.19427 0.10505 0.0
H3096 H 0.84732 0.2025 0.08981 0.0
H3097 H 0.84462 0.23773 0.08859 0.0
H3098 H 0.81651 0.25085 0.04385 0.0
H3099 H 0.82874 0.24279 0.05661 0.0
H3100 H 0.8169 0.21437 0.07391 0.0
C3101 C 0.84858 0.20726 0.09683 0.0
C3102 C 0.83856 0.23259 0.08547 0.0
C3103 C 0.85366 0.20258 0.10549 0.0
C3104 C 0.81333 0.24563 0.05 0.0
C3105 C 0.8203 0.24106 0.0573 0.0
C3106 C 0.82286 0.21956 0.07711 0.0
C3107 C 0.8447 0.21779 0.09744 0.0
C3108 C 0.83767 0.22204 0.08905 0.0
C3109 C 0.81641 0.23439 0.06543 0.0
C3110 C 0.82374 0.23012 0.07353 0.0
H3111 H 0.85296 0.22376 0.12236 0.0
H3112 H 0.84387 0.23201 0.10718 0.0
H3113 H 0.82872 0.20746 0.08762 0.0
H3114 H 0.79002 0.23496 0.0592 0.0
H3115 H 0.80224 0.227 0.07214 0.0
C3116 C 0.83574 0.84051 0.08418 0.0
C3117 C 0.83525 0.83848 0.09515 0.0
C3118 C 0.82996 0.83433 0.07717 0.0
C3119 C 0.81323 0.80972 0.07603 0.0
H3120 H 0.80315 0.82349 0.05022 0.0
C3121 C 0.78 0.79278 0.04977 0.0
C3122 C 0.78229 0.79255 0.03879 0.0
C3123 C 0.78671 0.79811 0.05666 0.0
C3124 C 0.80596 0.81953 0.05737 0.0
H3125 H 0.82844 0.82854 0.10753 0.0
H3126 H 0.81777 0.81817 0.09549 0.0
H3127 H 0.81442 0.83319 0.06216 0.0
H3128 H 0.79324 0.7978 0.02635 0.0
H3129 H 0.80493 0.80718 0.0384 0.0
H3130 H 0.80419 0.79624 0.07133 0.0
C3131 C 0.82295 0.82415 0.09209 0.0
C3132 C 0.81254 0.82505 0.06422 0.0
C3133 C 0.829 0.83013 0.09905 0.0
C3134 C 0.79134 0.79781 0.0348 0.0
C3135 C 0.79797 0.80322 0.04167 0.0
C3136 C 0.80643 0.8043 0.06929 0.0
C3137 C 0.82325 0.82621 0.08103 0.0
C3138 C 0.81633 0.82022 0.07364 0.0
C3139 C 0.79574 0.8034 0.05265 0.0
C3140 C 0.80279 0.80915 0.05988 0.0
H3141 H 0.84056 0.84693 0.08105 0.0
H3142 H 0.83073 0.83602 0.06874 0.0
H3143 H 0.81612 0.80556 0.08303 0.0
H3144 H 0.77313 0.7887 0.05305 0.0
H3145 H 0.78478 0.7982 0.0651 0.0
C3146 C 0.19168 0.8585 0.08773 0.0
C3147 C 0.18687 0.85148 0.09509 0.0
C3148 C 0.19932 0.85477 0.08034 0.0
C3149 C 0.20975 0.82949 0.06842 0.0
H3150 H 0.23498 0.84593 0.06179 0.0
C3151 C 0.24806 0.80988 0.05285 0.0
C3152 C 0.25282 0.81425 0.04365 0.0
C3153 C 0.23992 0.81539 0.05823 0.0
C3154 C 0.22791 0.84133 0.06349 0.0
H3155 H 0.18663 0.83514 0.10071 0.0
H3156 H 0.20002 0.82865 0.08806 0.0
H3157 H 0.22063 0.85377 0.07281 0.0
H3158 H 0.25315 0.82805 0.03315 0.0
H3159 H 0.2389 0.83783 0.04278 0.0
H3160 H 0.21724 0.8169 0.05951 0.0
C3161 C 0.19763 0.83698 0.08767 0.0
C3162 C 0.21967 0.8458 0.06976 0.0
C3163 C 0.18994 0.84069 0.09496 0.0
C3164 C 0.24962 0.8245 0.04023 0.0
C3165 C 0.24148 0.83007 0.04569 0.0
C3166 C 0.21801 0.82499 0.06231 0.0
C3167 C 0.20238 0.84394 0.08021 0.0
C3168 C 0.21061 0.83981 0.07255 0.0
C3169 C 0.23641 0.82543 0.05459 0.0
C3170 C 0.22727 0.83077 0.06002 0.0
H3171 H 0.18949 0.86689 0.08765 0.0
H3172 H 0.20275 0.86035 0.07469 0.0
H3173 H 0.20275 0.82476 0.07007 0.0
H3174 H 0.25059 0.80214 0.05588 0.0
H3175 H 0.2363 0.81175 0.06522 0.0
C3176 C 0.22973 0.86719 0.92416 0.0
C3177 C 0.22255 0.86291 0.91687 0.0
C3178 C 0.23438 0.8608 0.93204 0.0
C3179 C 0.23207 0.83521 0.94671 0.0
H3180 H 0.26223 0.83948 0.95164 0.0
C3181 C 0.25714 0.80755 0.9744 0.0
C3182 C 0.26475 0.81241 0.98082 0.0
C3183 C 0.25176 0.81341 0.96653 0.0
C3184 C 0.25378 0.83826 0.95048 0.0
H3185 H 0.21433 0.84857 0.9125 0.0
H3186 H 0.22242 0.83738 0.92637 0.0
H3187 H 0.25306 0.85022 0.93831 0.0
H3188 H 0.27247 0.82733 0.98413 0.0
H3189 H 0.26313 0.83751 0.97048 0.0
H3190 H 0.23282 0.82325 0.95896 0.0
C3191 C 0.22444 0.84573 0.92594 0.0
C3192 C 0.24851 0.84443 0.94281 0.0
C3193 C 0.21978 0.85215 0.918 0.0
C3194 C 0.26681 0.82327 0.97921 0.0
C3195 C 0.26144 0.82912 0.97136 0.0
C3196 C 0.23736 0.82903 0.95442 0.0
C3197 C 0.23197 0.84994 0.93291 0.0
C3198 C 0.23756 0.84307 0.94089 0.0
C3199 C 0.25387 0.82427 0.96489 0.0
C3200 C 0.24826 0.83055 0.95647 0.0
H3201 H 0.23185 0.87551 0.92372 0.0
H3202 H 0.23991 0.8644 0.93744 0.0
H3203 H 0.22362 0.83401 0.9455 0.0
H3204 H 0.25546 0.79916 0.9753 0.0
H3205 H 0.24609 0.80937 0.96161 0.0
C3206 C 0.2027 0.15718 0.92631 0.0
C3207 C 0.19579 0.16202 0.91893 0.0
C3208 C 0.20898 0.16344 0.93293 0.0
C3209 C 0.21203 0.19212 0.94143 0.0
H3210 H 0.23834 0.18098 0.95339 0.0
C3211 C 0.23594 0.21723 0.97068 0.0
C3212 C 0.24712 0.21596 0.97101 0.0
C3213 C 0.22978 0.21041 0.96463 0.0
C3214 C 0.23112 0.18434 0.94998 0.0
H3215 H 0.19038 0.1771 0.91231 0.0
H3216 H 0.20168 0.18789 0.9231 0.0
H3217 H 0.22793 0.16979 0.94203 0.0
H3218 H 0.26058 0.20649 0.96509 0.0
H3219 H 0.24994 0.19482 0.9543 0.0
H3220 H 0.21563 0.20691 0.94861 0.0
C3221 C 0.20195 0.17938 0.92442 0.0
C3222 C 0.22496 0.17777 0.94359 0.0
C3223 C 0.19551 0.17316 0.91807 0.0
C3224 C 0.25198 0.20767 0.96509 0.0
C3225 C 0.24582 0.20091 0.95893 0.0
C3226 C 0.21834 0.19875 0.94751 0.0
C3227 C 0.20869 0.17468 0.93212 0.0
C3228 C 0.21529 0.18155 0.93917 0.0
C3229 C 0.23461 0.20215 0.9586 0.0
C3230 C 0.22797 0.19498 0.95196 0.0
H3231 H 0.20305 0.14859 0.92714 0.0
H3232 H 0.21387 0.1594 0.9388 0.0
H3233 H 0.20454 0.19539 0.93857 0.0
H3234 H 0.23187 0.22333 0.97535 0.0
H3235 H 0.22118 0.21153 0.96491 0.0
C3236 C 0.80138 0.20393 0.89535 0.0
C3237 C 0.80456 0.20906 0.88586 0.0
C3238 C 0.79895 0.2098 0.90445 0.0
C3239 C 0.80226 0.23599 0.91701 0.0
H3240 H 0.7777 0.22705 0.93379 0.0
C3241 C 0.78545 0.26022 0.95276 0.0
C3242 C 0.78153 0.25438 0.9615 0.0
C3243 C 0.78848 0.25501 0.94336 0.0
C3244 C 0.78467 0.22958 0.92929 0.0
H3245 H 0.80795 0.22431 0.87852 0.0
H3246 H 0.80361 0.23468 0.8945 0.0
H3247 H 0.78265 0.21745 0.91772 0.0
H3248 H 0.7782 0.23859 0.9676 0.0
H3249 H 0.78377 0.22944 0.95136 0.0
H3250 H 0.80428 0.24812 0.92866 0.0
C3251 C 0.8031 0.22608 0.89489 0.0
C3252 C 0.7875 0.22408 0.92005 0.0
C3253 C 0.80559 0.22017 0.88576 0.0
C3254 C 0.78098 0.24326 0.96085 0.0
C3255 C 0.78414 0.23805 0.95154 0.0
C3256 C 0.79943 0.24151 0.92629 0.0
C3257 C 0.79959 0.22096 0.90429 0.0
C3258 C 0.7964 0.22714 0.91387 0.0
C3259 C 0.78778 0.24387 0.94263 0.0
C3260 C 0.79066 0.23829 0.93259 0.0
H3261 H 0.80069 0.19534 0.8957 0.0
H3262 H 0.79654 0.20558 0.91162 0.0
H3263 H 0.80921 0.2385 0.91246 0.0
H3264 H 0.78594 0.26881 0.95313 0.0
H3265 H 0.79115 0.25974 0.93662 0.0
C3266 C 0.82121 0.86246 0.92845 0.0
C3267 C 0.82519 0.85852 0.91862 0.0
C3268 C 0.81602 0.85576 0.93583 0.0
C3269 C 0.80175 0.82995 0.93719 0.0
H3270 H 0.80494 0.83244 0.96772 0.0
C3271 C 0.78455 0.79808 0.96565 0.0
C3272 C 0.78069 0.80095 0.97584 0.0
C3273 C 0.78996 0.80537 0.95913 0.0
C3274 C 0.80382 0.8317 0.95922 0.0
H3275 H 0.82685 0.84418 0.90916 0.0
H3276 H 0.81819 0.83255 0.92206 0.0
H3277 H 0.8145 0.84452 0.95573 0.0
H3278 H 0.77963 0.81402 0.98705 0.0
H3279 H 0.78868 0.82686 0.97551 0.0
H3280 H 0.79097 0.81733 0.94056 0.0
C3281 C 0.81889 0.8409 0.92399 0.0
C3282 C 0.80935 0.83864 0.95232 0.0
C3283 C 0.82405 0.84758 0.91661 0.0
C3284 C 0.78237 0.81147 0.97924 0.0
C3285 C 0.78772 0.81883 0.97264 0.0
C3286 C 0.79619 0.82309 0.94406 0.0
C3287 C 0.81462 0.84489 0.93364 0.0
C3288 C 0.80852 0.83777 0.94117 0.0
C3289 C 0.79159 0.81591 0.96244 0.0
C3290 C 0.79722 0.82371 0.9552 0.0
H3291 H 0.82205 0.87077 0.93046 0.0
H3292 H 0.81284 0.85918 0.94313 0.0
H3293 H 0.80062 0.82918 0.9287 0.0
H3294 H 0.7833 0.79017 0.96259 0.0
H3295 H 0.79294 0.80264 0.95147 0.0
C3296 C 0.13441 0.19909 0.21596 0.0
C3297 C 0.1444 0.20374 0.2173 0.0
C3298 C 0.12521 0.20399 0.22013 0.0
C3299 C 0.11517 0.22379 0.23923 0.0
H3300 H 0.09272 0.22842 0.21859 0.0
C3301 C 0.0802 0.25325 0.24617 0.0
C3302 C 0.07005 0.2497 0.24348 0.0
C3303 C 0.08927 0.24731 0.2433 0.0
C3304 C 0.09886 0.22707 0.22447 0.0
H3305 H 0.15284 0.21669 0.2245 0.0
H3306 H 0.13671 0.22527 0.23193 0.0
H3307 H 0.10862 0.21798 0.21365 0.0
H3308 H 0.06118 0.23742 0.23568 0.0
H3309 H 0.07711 0.22697 0.23054 0.0
H3310 H 0.10541 0.23291 0.25005 0.0
C3311 C 0.13599 0.21787 0.22763 0.0
C3312 C 0.10793 0.22109 0.22166 0.0
C3313 C 0.14517 0.21302 0.22336 0.0
C3314 C 0.069 0.24023 0.2378 0.0
C3315 C 0.07808 0.23433 0.23483 0.0
C3316 C 0.10607 0.22973 0.24207 0.0
C3317 C 0.12592 0.21355 0.22578 0.0
C3318 C 0.11615 0.21943 0.22901 0.0
C3319 C 0.08828 0.23779 0.23764 0.0
C3320 C 0.09786 0.23144 0.23469 0.0
H3321 H 0.13365 0.19196 0.21124 0.0
H3322 H 0.11751 0.20048 0.2187 0.0
H3323 H 0.12141 0.22256 0.24503 0.0
H3324 H 0.08109 0.26053 0.25064 0.0
H3325 H 0.09706 0.25019 0.24545 0.0
C3326 C 0.86734 0.12323 0.18771 0.0
C3327 C 0.86374 0.13351 0.19039 0.0
C3328 C 0.86195 0.11437 0.19163 0.0
C3329 C 0.83646 0.10645 0.20464 0.0
H3330 H 0.85341 0.08216 0.21429 0.0
C3331 C 0.81824 0.07413 0.23109 0.0
C3332 C 0.8212 0.06355 0.22895 0.0
C3333 C 0.82369 0.08242 0.22616 0.0
C3334 C 0.84856 0.08882 0.21152 0.0
H3335 H 0.85189 0.14278 0.19919 0.0
H3336 H 0.84268 0.12734 0.20642 0.0
H3337 H 0.86223 0.09709 0.20565 0.0
H3338 H 0.83206 0.05313 0.22019 0.0
H3339 H 0.84147 0.06768 0.21121 0.0
H3340 H 0.82281 0.09826 0.21062 0.0
C3341 C 0.8494 0.12604 0.20102 0.0
C3342 C 0.8536 0.09737 0.20654 0.0
C3343 C 0.85467 0.13488 0.19694 0.0
C3344 C 0.82975 0.0613 0.22195 0.0
C3345 C 0.83512 0.0696 0.21687 0.0
C3346 C 0.83143 0.09793 0.20964 0.0
C3347 C 0.853 0.11568 0.19845 0.0
C3348 C 0.84761 0.10633 0.20315 0.0
C3349 C 0.83207 0.08025 0.21886 0.0
C3350 C 0.83743 0.08909 0.21323 0.0
H3351 H 0.87434 0.12208 0.18262 0.0
H3352 H 0.86482 0.10651 0.18936 0.0
H3353 H 0.83158 0.11312 0.20191 0.0
H3354 H 0.8117 0.07597 0.23658 0.0
H3355 H 0.82132 0.09054 0.22805 0.0
C3356 C 0.91847 0.83113 0.17277 0.0
C3357 C 0.91819 0.83103 0.16158 0.0
C3358 C 0.92639 0.82536 0.1782 0.0
C3359 C 0.95239 0.81076 0.17416 0.0
H3360 H 0.94327 0.79543 0.19954 0.0
C3361 C 0.97636 0.77536 0.19179 0.0
C3362 C 0.97705 0.77473 0.20293 0.0
C3363 C 0.96973 0.78302 0.18702 0.0
C3364 C 0.94598 0.79976 0.19254 0.0
H3365 H 0.92642 0.82529 0.14734 0.0
H3366 H 0.93977 0.81483 0.15674 0.0
H3367 H 0.93084 0.80766 0.19083 0.0
H3368 H 0.97132 0.78157 0.21782 0.0
H3369 H 0.95994 0.79509 0.20949 0.0
H3370 H 0.96744 0.80256 0.17574 0.0
C3371 C 0.93403 0.81949 0.16137 0.0
C3372 C 0.93887 0.80682 0.18756 0.0
C3373 C 0.92624 0.82537 0.15596 0.0
C3374 C 0.97107 0.78196 0.20921 0.0
C3375 C 0.96445 0.78961 0.20445 0.0
C3376 C 0.95947 0.80363 0.1791 0.0
C3377 C 0.93412 0.81928 0.17256 0.0
C3378 C 0.94195 0.81234 0.17826 0.0
C3379 C 0.96366 0.79017 0.19331 0.0
C3380 C 0.95631 0.79802 0.18829 0.0
H3381 H 0.91238 0.83536 0.17736 0.0
H3382 H 0.92633 0.82554 0.18682 0.0
H3383 H 0.95511 0.81502 0.16713 0.0
H3384 H 0.98095 0.76994 0.18675 0.0
H3385 H 0.96919 0.7832 0.17842 0.0
C3386 C 0.17879 0.91891 0.18313 0.0
C3387 C 0.17027 0.91238 0.18626 0.0
C3388 C 0.18369 0.92553 0.19053 0.0
C3389 C 0.18 0.93716 0.21785 0.0
H3390 H 0.21075 0.94012 0.21606 0.0
C3391 C 0.20413 0.95522 0.25232 0.0
C3392 C 0.21338 0.961 0.2498 0.0
C3393 C 0.1986 0.94988 0.24439 0.0
C3394 C 0.20214 0.93956 0.21663 0.0
H3395 H 0.1604 0.9076 0.19976 0.0
H3396 H 0.16897 0.91889 0.21258 0.0
H3397 H 0.20168 0.93008 0.20257 0.0
H3398 H 0.22374 0.96601 0.23678 0.0
H3399 H 0.2141 0.95687 0.223 0.0
H3400 H 0.18047 0.94661 0.23196 0.0
C3401 C 0.17173 0.91918 0.20437 0.0
C3402 C 0.1969 0.93376 0.20884 0.0
C3403 C 0.16681 0.91265 0.19699 0.0
C3404 C 0.21681 0.96144 0.23909 0.0
C3405 C 0.21125 0.95616 0.23115 0.0
C3406 C 0.18524 0.94299 0.22564 0.0
C3407 C 0.18027 0.92571 0.20129 0.0
C3408 C 0.18577 0.93239 0.20936 0.0
C3409 C 0.20211 0.95021 0.23367 0.0
C3410 C 0.19641 0.94423 0.2252 0.0
H3411 H 0.18159 0.91901 0.17493 0.0
H3412 H 0.19012 0.93055 0.18778 0.0
H3413 H 0.1714 0.93647 0.21846 0.0
H3414 H 0.20128 0.95461 0.26049 0.0
H3415 H 0.1917 0.94528 0.24673 0.0
C3416 C 0.14066 0.87474 0.82821 0.0
C3417 C 0.14026 0.87349 0.83937 0.0
C3418 C 0.13217 0.87142 0.82191 0.0
C3419 C 0.10974 0.85259 0.82284 0.0
H3420 H 0.09952 0.86809 0.79808 0.0
C3421 C 0.07244 0.83879 0.80096 0.0
C3422 C 0.07202 0.83998 0.78984 0.0
C3423 C 0.08055 0.84347 0.80674 0.0
C3424 C 0.10236 0.86356 0.80488 0.0
H3425 H 0.13018 0.86845 0.85262 0.0
H3426 H 0.11555 0.86262 0.84171 0.0
H3427 H 0.11404 0.87528 0.80849 0.0
H3428 H 0.07975 0.84714 0.77608 0.0
H3429 H 0.09415 0.85507 0.78611 0.0
H3430 H 0.09836 0.84076 0.8192 0.0
C3431 C 0.12252 0.86592 0.83778 0.0
C3432 C 0.11068 0.86772 0.81087 0.0
C3433 C 0.13095 0.86927 0.84405 0.0
C3434 C 0.07983 0.84612 0.78465 0.0
C3435 C 0.08807 0.8507 0.79043 0.0
C3436 C 0.10152 0.84839 0.81682 0.0
C3437 C 0.12309 0.86674 0.82662 0.0
C3438 C 0.1144 0.86233 0.82 0.0
C3439 C 0.08862 0.84936 0.80157 0.0
C3440 C 0.0976 0.85385 0.8078 0.0
H3441 H 0.14771 0.8779 0.82429 0.0
H3442 H 0.1329 0.87214 0.81333 0.0
H3443 H 0.11256 0.84807 0.82966 0.0
H3444 H 0.06641 0.83429 0.80522 0.0
H3445 H 0.08044 0.84249 0.81532 0.0
C3446 C 0.21903 0.09031 0.84078 0.0
C3447 C 0.20809 0.08801 0.84135 0.0
C3448 C 0.22598 0.08452 0.83413 0.0
C3449 C 0.22677 0.06602 0.81099 0.0
H3450 H 0.25616 0.06206 0.81989 0.0
C3451 C 0.25854 0.04102 0.78708 0.0
C3452 C 0.26867 0.04564 0.78575 0.0
C3453 C 0.25082 0.04555 0.79395 0.0
C3454 C 0.248 0.06315 0.81725 0.0
H3455 H 0.19582 0.07783 0.8353 0.0
H3456 H 0.20804 0.06741 0.82383 0.0
H3457 H 0.24326 0.07071 0.83177 0.0
H3458 H 0.27839 0.05889 0.79057 0.0
H3459 H 0.26509 0.06652 0.80273 0.0
H3460 H 0.23161 0.05821 0.7965 0.0
C3461 C 0.21124 0.07387 0.8284 0.0
C3462 C 0.24057 0.06817 0.82405 0.0
C3463 C 0.20422 0.07981 0.83499 0.0
C3464 C 0.27083 0.0549 0.79153 0.0
C3465 C 0.26316 0.05934 0.79849 0.0
C3466 C 0.2342 0.06085 0.80422 0.0
C3467 C 0.22225 0.07611 0.82792 0.0
C3468 C 0.22989 0.06991 0.82095 0.0
C3469 C 0.25306 0.05473 0.79978 0.0
C3470 C 0.24495 0.05955 0.8072 0.0
H3471 H 0.22223 0.09673 0.84542 0.0
H3472 H 0.23429 0.08678 0.83378 0.0
H3473 H 0.21868 0.06725 0.80823 0.0
H3474 H 0.25659 0.0338 0.78292 0.0
H3475 H 0.24315 0.04174 0.79485 0.0
C3476 C 0.87912 0.18974 0.79429 0.0
C3477 C 0.87651 0.19178 0.80502 0.0
C3478 C 0.88905 0.19262 0.79006 0.0
C3479 C 0.91157 0.21046 0.7949 0.0
H3480 H 0.92736 0.19133 0.77606 0.0
C3481 C 0.9554 0.21774 0.78381 0.0
C3482 C 0.9588 0.21572 0.7733 0.0
C3483 C 0.94532 0.21462 0.78735 0.0
C3484 C 0.92299 0.19682 0.7812 0.0
H3485 H 0.88236 0.19821 0.81978 0.0
H3486 H 0.89968 0.20319 0.81242 0.0
H3487 H 0.90973 0.18635 0.78278 0.0
H3488 H 0.95441 0.20873 0.75829 0.0
H3489 H 0.93665 0.20342 0.76443 0.0
H3490 H 0.92473 0.22095 0.79331 0.0
C3491 C 0.89398 0.19957 0.80721 0.0
C3492 C 0.9129 0.19397 0.78505 0.0
C3493 C 0.88405 0.19672 0.81143 0.0
C3494 C 0.95198 0.21036 0.76644 0.0
C3495 C 0.94184 0.20729 0.76998 0.0
C3496 C 0.92162 0.21333 0.79102 0.0
C3497 C 0.89659 0.19758 0.79647 0.0
C3498 C 0.90713 0.20072 0.79203 0.0
C3499 C 0.93836 0.20946 0.78046 0.0
C3500 C 0.92751 0.2065 0.78422 0.0
H3501 H 0.87341 0.18606 0.78913 0.0
H3502 H 0.89077 0.1911 0.78172 0.0
H3503 H 0.90723 0.21594 0.80008 0.0
H3504 H 0.9606 0.22163 0.78934 0.0
H3505 H 0.94302 0.21617 0.79555 0.0
C3506 C 0.8173 0.94773 0.83838 0.0
C3507 C 0.81559 0.93672 0.83974 0.0
C3508 C 0.81007 0.95418 0.83265 0.0
C3509 C 0.78902 0.95208 0.81223 0.0
H3510 H 0.78138 0.981 0.82029 0.0
C3511 C 0.75411 0.97465 0.79242 0.0
C3512 C 0.75516 0.98555 0.79008 0.0
C3513 C 0.76173 0.96921 0.79852 0.0
C3514 C 0.78353 0.97298 0.81785 0.0
H3515 H 0.80465 0.92404 0.83623 0.0
H3516 H 0.79198 0.93526 0.82663 0.0
H3517 H 0.79402 0.97064 0.83108 0.0
H3518 H 0.76506 0.99929 0.79236 0.0
H3519 H 0.77848 0.98976 0.80306 0.0
H3520 H 0.7786 0.95435 0.79903 0.0
C3521 C 0.79903 0.9389 0.8298 0.0
C3522 C 0.79078 0.96702 0.82406 0.0
C3523 C 0.80625 0.93246 0.83549 0.0
C3524 C 0.76405 0.99089 0.79401 0.0
C3525 C 0.77168 0.98544 0.80021 0.0
C3526 C 0.78181 0.95801 0.80605 0.0
C3527 C 0.80092 0.9498 0.82812 0.0
C3528 C 0.79351 0.95642 0.8214 0.0
C3529 C 0.77065 0.97449 0.80248 0.0
C3530 C 0.77883 0.96849 0.80884 0.0
H3531 H 0.8243 0.95138 0.84164 0.0
H3532 H 0.81182 0.96253 0.83152 0.0
H3533 H 0.79114 0.94406 0.80973 0.0
H3534 H 0.74742 0.97028 0.7894 0.0
H3535 H 0.76056 0.96084 0.80021 0.0
C3536 C 0.2033 0.10998 0.22411 0.0
C3537 C 0.20967 0.11884 0.22216 0.0
C3538 C 0.20749 0.10121 0.22951 0.0
C3539 C 0.23134 0.08734 0.23858 0.0
H3540 H 0.21322 0.08035 0.26293 0.0
C3541 C 0.24309 0.05432 0.26817 0.0
C3542 C 0.2348 0.0475 0.27112 0.0
C3543 C 0.24077 0.06388 0.26295 0.0
C3544 C 0.21832 0.08214 0.25612 0.0
H3545 H 0.22542 0.1255 0.22356 0.0
H3546 H 0.23286 0.10999 0.23317 0.0
H3547 H 0.20797 0.09481 0.25103 0.0
H3548 H 0.21771 0.04508 0.27112 0.0
H3549 H 0.2136 0.06161 0.26173 0.0
H3550 H 0.2415 0.07438 0.24342 0.0
C3551 C 0.22468 0.10983 0.23044 0.0
C3552 C 0.21532 0.09041 0.24934 0.0
C3553 C 0.22047 0.11863 0.22498 0.0
C3554 C 0.22417 0.05038 0.26907 0.0
C3555 C 0.22185 0.05984 0.26371 0.0
C3556 C 0.23428 0.07894 0.2453 0.0
C3557 C 0.21806 0.10127 0.23308 0.0
C3558 C 0.2217 0.09291 0.24043 0.0
C3559 C 0.23014 0.06661 0.26048 0.0
C3560 C 0.22769 0.07616 0.25402 0.0
H3561 H 0.19494 0.11008 0.22194 0.0
H3562 H 0.20233 0.09458 0.23134 0.0
H3563 H 0.23636 0.08922 0.23175 0.0
H3564 H 0.25135 0.05214 0.26971 0.0
H3565 H 0.24729 0.06902 0.26069 0.0
C3566 C 0.23147 0.93425 0.82409 0.0
C3567 C 0.22799 0.93694 0.83442 0.0
C3568 C 0.2385 0.94077 0.81844 0.0
C3569 C 0.24774 0.96835 0.81653 0.0
H3570 H 0.27003 0.95561 0.79869 0.0
C3571 C 0.27744 0.99376 0.79179 0.0
C3572 C 0.28023 0.99013 0.78152 0.0
C3573 C 0.27157 0.98738 0.79882 0.0
C3574 C 0.26378 0.95931 0.80353 0.0
H3575 H 0.22924 0.94848 0.84704 0.0
H3576 H 0.24164 0.95999 0.83711 0.0
H3577 H 0.25915 0.94432 0.81015 0.0
H3578 H 0.27905 0.97687 0.77066 0.0
H3579 H 0.26855 0.96588 0.78277 0.0
H3580 H 0.25226 0.98334 0.80976 0.0
C3581 C 0.23886 0.95283 0.83338 0.0
C3582 C 0.25755 0.95282 0.81013 0.0
C3583 C 0.23186 0.94621 0.8391 0.0
C3584 C 0.27697 0.97997 0.77846 0.0
C3585 C 0.27106 0.9736 0.78548 0.0
C3586 C 0.25396 0.97485 0.80988 0.0
C3587 C 0.24222 0.95018 0.82296 0.0
C3588 C 0.24937 0.95724 0.81661 0.0
C3589 C 0.26829 0.97721 0.79576 0.0
C3590 C 0.26197 0.97039 0.8032 0.0
H3591 H 0.22865 0.92713 0.8203 0.0
H3592 H 0.2408 0.93855 0.81039 0.0
H3593 H 0.24143 0.97199 0.82133 0.0
H3594 H 0.27969 1.00161 0.79436 0.0
H3595 H 0.26968 0.99038 0.8067 0.0
C3596 C 0.10701 0.1488 0.83732 0.0
C3597 C 0.11475 0.15398 0.84336 0.0
C3598 C 0.09892 0.15456 0.83211 0.0
C3599 C 0.09167 0.18235 0.82311 0.0
H3600 H 0.06484 0.16916 0.81639 0.0
C3601 C 0.05697 0.20568 0.80262 0.0
C3602 C 0.05139 0.2004 0.79462 0.0
C3603 C 0.06437 0.20017 0.809 0.0
C3604 C 0.07232 0.17295 0.81812 0.0
H3605 H 0.11949 0.16946 0.84901 0.0
H3606 H 0.10502 0.1794 0.84057 0.0
H3607 H 0.07782 0.15952 0.82718 0.0
H3608 H 0.04921 0.18506 0.78721 0.0
H3609 H 0.06219 0.17549 0.79822 0.0
H3610 H 0.08599 0.19588 0.81419 0.0
C3611 C 0.10548 0.17087 0.83943 0.0
C3612 C 0.07984 0.16738 0.82431 0.0
C3613 C 0.11373 0.1651 0.84449 0.0
C3614 C 0.05341 0.18943 0.79321 0.0
C3615 C 0.06078 0.1839 0.79962 0.0
C3616 C 0.08408 0.18797 0.81704 0.0
C3617 C 0.09807 0.16573 0.83295 0.0
C3618 C 0.08972 0.17193 0.82683 0.0
C3619 C 0.06638 0.18919 0.8076 0.0
C3620 C 0.07434 0.18331 0.81436 0.0
H3621 H 0.10724 0.14023 0.83645 0.0
H3622 H 0.09354 0.1502 0.82716 0.0
H3623 H 0.0992 0.18614 0.82462 0.0
H3624 H 0.05572 0.21414 0.80388 0.0
H3625 H 0.06844 0.2045 0.81511 0.0
C3626 C 0.79002 0.11543 0.80085 0.0
C3627 C 0.78476 0.1227 0.80767 0.0
C3628 C 0.78468 0.1066 0.79708 0.0
C3629 C 0.76135 0.08975 0.80284 0.0
H3630 H 0.76634 0.08037 0.77381 0.0
C3631 C 0.73727 0.05616 0.78366 0.0
C3632 C 0.743 0.04903 0.77704 0.0
C3633 C 0.74217 0.06522 0.78757 0.0
C3634 C 0.76495 0.08281 0.78198 0.0
H3635 H 0.76974 0.1266 0.81568 0.0
H3636 H 0.76035 0.11122 0.809 0.0
H3637 H 0.77519 0.09615 0.78013 0.0
H3638 H 0.75848 0.04561 0.76967 0.0
H3639 H 0.76699 0.06136 0.77647 0.0
H3640 H 0.75109 0.07638 0.80466 0.0
C3641 C 0.76867 0.11222 0.80675 0.0
C3642 C 0.77003 0.09186 0.7856 0.0
C3643 C 0.77403 0.12103 0.81056 0.0
C3644 C 0.75377 0.05105 0.77457 0.0
C3645 C 0.75865 0.06009 0.77846 0.0
C3646 C 0.75625 0.08069 0.79921 0.0
C3647 C 0.77395 0.10488 0.8 0.0
C3648 C 0.76833 0.0954 0.79609 0.0
C3649 C 0.75289 0.06733 0.78492 0.0
C3650 C 0.75806 0.07709 0.78876 0.0
H3651 H 0.79834 0.11643 0.79861 0.0
H3652 H 0.78903 0.101 0.79203 0.0
H3653 H 0.75999 0.09217 0.81102 0.0
H3654 H 0.72892 0.05489 0.7856 0.0
H3655 H 0.73748 0.0707 0.79245 0.0
C3656 C 0.91871 0.86643 0.8437 0.0
C3657 C 0.90915 0.87012 0.83894 0.0
C3658 C 0.92738 0.86253 0.83754 0.0
C3659 C 0.93438 0.8525 0.81008 0.0
H3660 H 0.96338 0.85471 0.82014 0.0
C3661 C 0.97075 0.83788 0.78417 0.0
C3662 C 0.97991 0.83368 0.78924 0.0
C3663 C 0.96234 0.84273 0.79003 0.0
C3664 C 0.95534 0.85384 0.81721 0.0
H3665 H 0.9017 0.87284 0.82362 0.0
H3666 H 0.91693 0.86666 0.81295 0.0
H3667 H 0.9487 0.8625 0.83044 0.0
H3668 H 0.98722 0.8317 0.80475 0.0
H3669 H 0.97247 0.83948 0.81489 0.0
H3670 H 0.941 0.8438 0.79688 0.0
C3671 C 0.91758 0.8664 0.82153 0.0
C3672 C 0.94683 0.85837 0.82318 0.0
C3673 C 0.90883 0.87016 0.82771 0.0
C3674 C 0.9803 0.83456 0.80044 0.0
C3675 C 0.97183 0.83927 0.80631 0.0
C3676 C 0.94288 0.84797 0.80411 0.0
C3677 C 0.92697 0.86234 0.82633 0.0
C3678 C 0.93616 0.85776 0.81976 0.0
C3679 C 0.96267 0.84347 0.80123 0.0
C3680 C 0.95354 0.8485 0.80757 0.0
H3681 H 0.91956 0.86646 0.85226 0.0
H3682 H 0.93432 0.85944 0.84167 0.0
H3683 H 0.92634 0.85162 0.80717 0.0
H3684 H 0.96996 0.83734 0.77562 0.0
H3685 H 0.9556 0.84599 0.7857 0.0
C3686 C 0.84529 0.91196 0.18642 0.0
C3687 C 0.8466 0.91354 0.17541 0.0
C3688 C 0.83967 0.9194 0.19259 0.0
C3689 C 0.82087 0.94264 0.19097 0.0
H3690 H 0.83099 0.94742 0.21956 0.0
C3691 C 0.8054 0.97728 0.21736 0.0
C3692 C 0.80365 0.97508 0.22824 0.0
C3693 C 0.81025 0.96969 0.21073 0.0
C3694 C 0.82799 0.94609 0.21164 0.0
H3695 H 0.84299 0.92404 0.16214 0.0
H3696 H 0.83342 0.93735 0.17299 0.0
H3697 H 0.84032 0.93463 0.20822 0.0
H3698 H 0.80549 0.96313 0.24067 0.0
H3699 H 0.81398 0.94984 0.22909 0.0
H3700 H 0.80865 0.95434 0.19441 0.0
C3701 C 0.83653 0.93022 0.17684 0.0
C3702 C 0.83332 0.93873 0.20512 0.0
C3703 C 0.84203 0.92264 0.17062 0.0
C3704 C 0.80681 0.96509 0.23234 0.0
C3705 C 0.81168 0.95749 0.22571 0.0
C3706 C 0.81558 0.95009 0.19748 0.0
C3707 C 0.83536 0.92873 0.18794 0.0
C3708 C 0.82979 0.93683 0.19472 0.0
C3709 C 0.8135 0.95974 0.21485 0.0
C3710 C 0.81905 0.95183 0.20791 0.0
H3711 H 0.84859 0.90491 0.19026 0.0
H3712 H 0.83868 0.91779 0.20103 0.0
H3713 H 0.81782 0.9413 0.18307 0.0
H3714 H 0.80328 0.985 0.214 0.0
H3715 H 0.81171 0.97172 0.20245 0.0
C3716 C 0.08908 0.83269 0.17337 0.0
C3717 C 0.09603 0.82958 0.16503 0.0
C3718 C 0.08159 0.82557 0.17757 0.0
C3719 C 0.07637 0.7967 0.17974 0.0
H3720 H 0.04787 0.80626 0.18822 0.0
C3721 C 0.04464 0.76727 0.19506 0.0
C3722 C 0.03813 0.7706 0.20368 0.0
C3723 C 0.05129 0.77448 0.18977 0.0
C3724 C 0.05584 0.80347 0.186 0.0
H3725 H 0.10062 0.81648 0.15463 0.0
H3726 H 0.08748 0.80422 0.16175 0.0
H3727 H 0.06021 0.81887 0.18015 0.0
H3728 H 0.03332 0.7842 0.2133 0.0
H3729 H 0.04519 0.79663 0.20437 0.0
H3730 H 0.07208 0.78135 0.1857 0.0
C3731 C 0.08785 0.81211 0.16514 0.0
C3732 C 0.06291 0.81071 0.18136 0.0
C3733 C 0.0953 0.8192 0.16097 0.0
C3734 C 0.03835 0.78132 0.2068 0.0
C3735 C 0.04505 0.7885 0.20157 0.0
C3736 C 0.06931 0.78947 0.1844 0.0
C3737 C 0.08094 0.81516 0.17354 0.0
C3738 C 0.07329 0.80743 0.17823 0.0
C3739 C 0.05163 0.78517 0.193 0.0
C3740 C 0.05898 0.79278 0.18765 0.0
H3741 H 0.08937 0.84064 0.17662 0.0
H3742 H 0.07646 0.82815 0.18411 0.0
H3743 H 0.08435 0.79392 0.17758 0.0
H3744 H 0.04474 0.75905 0.1925 0.0
H3745 H 0.05615 0.77166 0.18312 0.0
C3746 C 0.94061 0.21699 0.18709 0.0
C3747 C 0.93074 0.21338 0.19096 0.0
C3748 C 0.9473 0.22251 0.19375 0.0
C3749 C 0.95177 0.23048 0.22147 0.0
H3750 H 0.96006 0.25711 0.20807 0.0
C3751 C 0.96858 0.26444 0.24566 0.0
C3752 C 0.97818 0.26845 0.2415 0.0
C3753 C 0.96224 0.2581 0.23938 0.0
C3754 C 0.95784 0.24968 0.21188 0.0
H3755 H 0.92041 0.2119 0.20491 0.0
H3756 H 0.93208 0.22166 0.21655 0.0
H3757 H 0.95142 0.24365 0.19755 0.0
H3758 H 0.98854 0.26933 0.22748 0.0
H3759 H 0.97744 0.25839 0.21654 0.0
H3760 H 0.95819 0.23657 0.23582 0.0
C3761 C 0.9347 0.22014 0.20843 0.0
C3762 C 0.953 0.24195 0.20587 0.0
C3763 C 0.92803 0.21457 0.20178 0.0
C3764 C 0.98104 0.26655 0.23082 0.0
C3765 C 0.97472 0.26024 0.22456 0.0
C3766 C 0.95663 0.23822 0.22749 0.0
C3767 C 0.94415 0.22454 0.20432 0.0
C3768 C 0.94994 0.23229 0.21061 0.0
C3769 C 0.96545 0.25572 0.2289 0.0
C3770 C 0.95969 0.24787 0.22273 0.0
H3771 H 0.9429 0.21598 0.1788 0.0
H3772 H 0.95468 0.22565 0.19049 0.0
H3773 H 0.94949 0.22307 0.22527 0.0
H3774 H 0.96622 0.26586 0.25387 0.0
H3775 H 0.95502 0.2548 0.24281 0.0
C3776 C 0.16072 0.68714 0.58139 0.0
C3777 C 0.16248 0.68773 0.5924 0.0
C3778 C 0.16772 0.69206 0.57403 0.0
C3779 C 0.19085 0.71139 0.57274 0.0
H3780 H 0.19394 0.7009 0.54391 0.0
C3781 C 0.22499 0.72573 0.54453 0.0
C3782 C 0.22246 0.72799 0.53386 0.0
C3783 C 0.21764 0.72065 0.55136 0.0
C3784 C 0.19314 0.70398 0.55192 0.0
H3785 H 0.17313 0.69357 0.6043 0.0
H3786 H 0.18555 0.70163 0.59171 0.0
H3787 H 0.18138 0.69248 0.5562 0.0
H3788 H 0.21024 0.72618 0.52195 0.0
H3789 H 0.19746 0.71735 0.53383 0.0
H3790 H 0.20285 0.72269 0.56848 0.0
C3791 C 0.17856 0.69789 0.58855 0.0
C3792 C 0.18583 0.69917 0.55903 0.0
C3793 C 0.17145 0.69318 0.59587 0.0
C3794 C 0.21244 0.72474 0.53015 0.0
C3795 C 0.20513 0.71956 0.53696 0.0
C3796 C 0.19826 0.71605 0.5657 0.0
C3797 C 0.17684 0.69752 0.57745 0.0
C3798 C 0.18454 0.70275 0.56963 0.0
C3799 C 0.20755 0.71754 0.54772 0.0
C3800 C 0.19957 0.71244 0.55518 0.0
H3801 H 0.15391 0.68288 0.57848 0.0
H3802 H 0.16586 0.69161 0.56566 0.0
H3803 H 0.19001 0.71476 0.58061 0.0
H3804 H 0.23259 0.7281 0.5477 0.0
H3805 H 0.2199 0.71911 0.55953 0.0
C3806 C 0.82523 0.72677 0.62531 0.0
C3807 C 0.83561 0.7296 0.62818 0.0
C3808 C 0.82069 0.73074 0.61599 0.0
C3809 C 0.82281 0.75168 0.59525 0.0
H3810 H 0.80694 0.73145 0.57879 0.0
C3811 C 0.80736 0.76097 0.55283 0.0
C3812 C 0.79726 0.75709 0.55021 0.0
C3813 C 0.81212 0.7581 0.56246 0.0
C3814 C 0.81122 0.73725 0.58335 0.0
H3815 H 0.84923 0.73916 0.62371 0.0
H3816 H 0.84129 0.74609 0.60726 0.0
H3817 H 0.81518 0.72574 0.59532 0.0
H3818 H 0.78412 0.74739 0.55579 0.0
H3819 H 0.79239 0.7424 0.57257 0.0
H3820 H 0.81883 0.76319 0.58319 0.0
C3821 C 0.83666 0.74082 0.6123 0.0
C3822 C 0.81596 0.73397 0.59283 0.0
C3823 C 0.84121 0.73686 0.62171 0.0
C3824 C 0.79196 0.75039 0.5575 0.0
C3825 C 0.79672 0.74752 0.56711 0.0
C3826 C 0.81805 0.75497 0.58572 0.0
C3827 C 0.82641 0.73763 0.60925 0.0
C3828 C 0.82173 0.74116 0.59896 0.0
C3829 C 0.8069 0.75125 0.56967 0.0
C3830 C 0.81212 0.74781 0.57971 0.0
H3831 H 0.82062 0.72138 0.63026 0.0
H3832 H 0.81267 0.72835 0.61406 0.0
H3833 H 0.82713 0.75744 0.59982 0.0
H3834 H 0.81175 0.76598 0.54731 0.0
H3835 H 0.82002 0.761 0.56411 0.0
C3836 C 0.82698 0.31137 0.60892 0.0
C3837 C 0.83004 0.32211 0.60824 0.0
C3838 C 0.82149 0.30659 0.60056 0.0
C3839 C 0.81543 0.30966 0.57164 0.0
H3840 H 0.7921 0.29079 0.57829 0.0
C3841 C 0.78908 0.29346 0.53786 0.0
C3842 C 0.78368 0.28388 0.53942 0.0
C3843 C 0.79462 0.2981 0.54623 0.0
C3844 C 0.79871 0.29585 0.57615 0.0
H3845 H 0.82992 0.33602 0.59783 0.0
H3846 H 0.82018 0.32782 0.58356 0.0
H3847 H 0.80214 0.29847 0.59261 0.0
H3848 H 0.77992 0.27151 0.55082 0.0
H3849 H 0.78997 0.27915 0.56528 0.0
H3850 H 0.81237 0.30685 0.55525 0.0
C3851 C 0.82208 0.32304 0.59052 0.0
C3852 C 0.80447 0.30033 0.58447 0.0
C3853 C 0.82758 0.32781 0.59884 0.0
C3854 C 0.78399 0.27895 0.54946 0.0
C3855 C 0.7897 0.28346 0.5578 0.0
C3856 C 0.8098 0.30504 0.56331 0.0
C3857 C 0.8189 0.31237 0.59125 0.0
C3858 C 0.81289 0.30736 0.58235 0.0
C3859 C 0.79513 0.29317 0.55639 0.0
C3860 C 0.80127 0.29807 0.56537 0.0
H3861 H 0.8286 0.3067 0.61602 0.0
H3862 H 0.8193 0.29832 0.60139 0.0
H3863 H 0.82195 0.3149 0.56963 0.0
H3864 H 0.78893 0.29742 0.53016 0.0
H3865 H 0.79837 0.30566 0.54468 0.0
C3866 C 0.18494 0.35655 0.61523 0.0
C3867 C 0.17507 0.35204 0.61802 0.0
C3868 C 0.1914 0.35212 0.60721 0.0
C3869 C 0.19112 0.33349 0.58437 0.0
H3870 H 0.22184 0.3335 0.58815 0.0
C3871 C 0.21986 0.3107 0.55599 0.0
C3872 C 0.2297 0.31538 0.55329 0.0
C3873 C 0.21327 0.31501 0.56399 0.0
C3874 C 0.21329 0.33355 0.58688 0.0
H3875 H 0.16425 0.33928 0.61446 0.0
H3876 H 0.17573 0.33127 0.60071 0.0
H3877 H 0.21016 0.34126 0.60172 0.0
H3878 H 0.24029 0.32827 0.55719 0.0
H3879 H 0.22855 0.33608 0.57067 0.0
H3880 H 0.19428 0.32575 0.56952 0.0
C3881 C 0.17837 0.33841 0.60459 0.0
C3882 C 0.20657 0.33801 0.59469 0.0
C3883 C 0.17184 0.34292 0.61258 0.0
C3884 C 0.23275 0.32448 0.55889 0.0
C3885 C 0.22606 0.3289 0.56677 0.0
C3886 C 0.19786 0.32902 0.57656 0.0
C3887 C 0.18826 0.34294 0.60184 0.0
C3888 C 0.19539 0.33807 0.59353 0.0
C3889 C 0.21622 0.32423 0.56941 0.0
C3890 C 0.20904 0.32899 0.57772 0.0
H3891 H 0.18781 0.36346 0.61936 0.0
H3892 H 0.19886 0.35595 0.60521 0.0
H3893 H 0.18257 0.33354 0.58311 0.0
H3894 H 0.21706 0.30384 0.55175 0.0
H3895 H 0.20584 0.31109 0.56591 0.0
C3896 C 0.16926 0.38631 0.42392 0.0
C3897 C 0.1641 0.38281 0.41474 0.0
C3898 C 0.17409 0.37903 0.43086 0.0
C3899 C 0.18517 0.35154 0.43133 0.0
H3900 H 0.18748 0.35713 0.46153 0.0
C3901 C 0.20715 0.32269 0.46003 0.0
C3902 C 0.21388 0.32743 0.46739 0.0
C3903 C 0.20021 0.32897 0.45391 0.0
C3904 C 0.18696 0.3555 0.45309 0.0
H3905 H 0.15953 0.3688 0.40599 0.0
H3906 H 0.1675 0.35607 0.4184 0.0
H3907 H 0.17636 0.36878 0.45055 0.0
H3908 H 0.21856 0.34234 0.47435 0.0
H3909 H 0.20649 0.35335 0.46363 0.0
H3910 H 0.19582 0.33827 0.4339 0.0
C3911 C 0.1681 0.36449 0.42004 0.0
C3912 C 0.18059 0.36218 0.44679 0.0
C3913 C 0.16338 0.37179 0.413 0.0
C3914 C 0.2135 0.33853 0.46864 0.0
C3915 C 0.20652 0.3448 0.46259 0.0
C3916 C 0.19149 0.34482 0.43765 0.0
C3917 C 0.17374 0.36803 0.42891 0.0
C3918 C 0.17974 0.36039 0.4358 0.0
C3919 C 0.19981 0.34009 0.45514 0.0
C3920 C 0.19258 0.34682 0.44856 0.0
H3921 H 0.16979 0.39472 0.42563 0.0
H3922 H 0.17844 0.38208 0.43754 0.0
H3923 H 0.18487 0.35 0.42286 0.0
H3924 H 0.20734 0.31413 0.45893 0.0
H3925 H 0.19508 0.32511 0.44829 0.0
C3926 C 0.21438 0.72392 0.35917 0.0
C3927 C 0.2172 0.71438 0.35396 0.0
C3928 C 0.21788 0.72594 0.36944 0.0
C3929 C 0.2312 0.71238 0.39292 0.0
H3930 H 0.22981 0.74122 0.40369 0.0
C3931 C 0.24677 0.72518 0.43444 0.0
C3932 C 0.23976 0.73181 0.44041 0.0
C3933 C 0.2445 0.72265 0.42387 0.0
C3934 C 0.2302 0.73311 0.4008 0.0
H3935 H 0.22661 0.69975 0.35542 0.0
H3936 H 0.23358 0.70371 0.37281 0.0
H3937 H 0.22609 0.73808 0.38518 0.0
H3938 H 0.22462 0.74054 0.43997 0.0
H3939 H 0.22088 0.73638 0.42151 0.0
H3940 H 0.236 0.70768 0.40864 0.0
C3941 C 0.22807 0.70941 0.36929 0.0
C3942 C 0.22794 0.73123 0.39013 0.0
C3943 C 0.22423 0.70721 0.35911 0.0
C3944 C 0.23034 0.73564 0.43559 0.0
C3945 C 0.22816 0.73322 0.42501 0.0
C3946 C 0.2338 0.71433 0.40353 0.0
C3947 C 0.22476 0.71872 0.37476 0.0
C3948 C 0.22813 0.72079 0.38601 0.0
C3949 C 0.23526 0.72679 0.41901 0.0
C3950 C 0.23311 0.72469 0.40762 0.0
H3951 H 0.20928 0.72985 0.3554 0.0
H3952 H 0.21486 0.73311 0.37321 0.0
H3953 H 0.23133 0.70419 0.39031 0.0
H3954 H 0.25416 0.72219 0.43781 0.0
H3955 H 0.25015 0.71772 0.4194 0.0
C3956 C 0.84377 0.66789 0.41077 0.0
C3957 C 0.85494 0.66635 0.41076 0.0
C3958 C 0.83875 0.67499 0.41787 0.0
C3959 C 0.84466 0.69395 0.44057 0.0
H3960 H 0.81688 0.70517 0.43263 0.0
C3961 C 0.82223 0.72519 0.46666 0.0
C3962 C 0.81434 0.73172 0.46201 0.0
C3963 C 0.82739 0.71719 0.46072 0.0
C3964 C 0.82477 0.7024 0.43489 0.0
H3965 H 0.86938 0.67054 0.41906 0.0
H3966 H 0.86104 0.68363 0.43029 0.0
H3967 H 0.82526 0.69168 0.42196 0.0
H3968 H 0.80606 0.73551 0.44743 0.0
H3969 H 0.81555 0.72222 0.43682 0.0
H3970 H 0.84463 0.7056 0.45281 0.0
C3971 C 0.85589 0.67921 0.42517 0.0
C3972 C 0.82953 0.69426 0.42886 0.0
C3973 C 0.86083 0.67177 0.41842 0.0
C3974 C 0.81204 0.73046 0.45121 0.0
C3975 C 0.81741 0.7227 0.44518 0.0
C3976 C 0.84012 0.70245 0.4463 0.0
C3977 C 0.84476 0.68115 0.42492 0.0
C3978 C 0.83956 0.68978 0.4316 0.0
C3979 C 0.82498 0.71571 0.44989 0.0
C3980 C 0.83005 0.70679 0.44361 0.0
H3981 H 0.83886 0.66391 0.40506 0.0
H3982 H 0.83014 0.67568 0.41759 0.0
H3983 H 0.85221 0.69074 0.44332 0.0
H3984 H 0.82408 0.72599 0.47502 0.0
H3985 H 0.83298 0.71198 0.46481 0.0
C3986 C 0.84727 0.34673 0.43214 0.0
C3987 C 0.84211 0.35132 0.42331 0.0
C3988 C 0.84164 0.34005 0.43918 0.0
C3989 C 0.81769 0.3232 0.4403 0.0
H3990 H 0.81966 0.32589 0.47096 0.0
C3991 C 0.78767 0.30315 0.46846 0.0
C3992 C 0.79197 0.29742 0.47707 0.0
C3993 C 0.7941 0.30996 0.46244 0.0
C3994 C 0.81911 0.32501 0.46241 0.0
H3995 H 0.8272 0.3524 0.41477 0.0
H3996 H 0.81744 0.34087 0.42693 0.0
H3997 H 0.83073 0.33704 0.45927 0.0
H3998 H 0.80613 0.29446 0.48642 0.0
H3999 H 0.81741 0.30656 0.47596 0.0
H4000 H 0.80603 0.31129 0.44337 0.0
C4001 C 0.82578 0.34233 0.42848 0.0
C4002 C 0.82546 0.33135 0.45573 0.0
C4003 C 0.83135 0.34901 0.42155 0.0
C4004 C 0.80269 0.29883 0.47979 0.0
C4005 C 0.80909 0.30577 0.47385 0.0
C4006 C 0.81134 0.31693 0.44695 0.0
C4007 C 0.83083 0.33776 0.43737 0.0
C4008 C 0.82472 0.3306 0.44459 0.0
C4009 C 0.80491 0.31123 0.46498 0.0
C4010 C 0.81188 0.31784 0.45806 0.0
H4011 H 0.85556 0.34844 0.43369 0.0
H4012 H 0.84576 0.3366 0.44594 0.0
H4013 H 0.81709 0.32226 0.43177 0.0
H4014 H 0.77943 0.30211 0.46619 0.0
H4015 H 0.79063 0.31416 0.45572 0.0
C4016 C 0.07739 0.71539 0.66922 0.0
C4017 C 0.08379 0.70705 0.6735 0.0
C4018 C 0.07183 0.72266 0.67582 0.0
C4019 C 0.0706 0.73218 0.70435 0.0
H4020 H 0.04617 0.74846 0.6941 0.0
C4021 C 0.04729 0.76205 0.73174 0.0
C4022 C 0.04344 0.77168 0.72725 0.0
C4023 C 0.05154 0.75383 0.72531 0.0
C4024 C 0.05305 0.74408 0.6971 0.0
H4025 H 0.08854 0.69969 0.68845 0.0
H4026 H 0.07829 0.71172 0.69981 0.0
H4027 H 0.05421 0.73463 0.68302 0.0
H4028 H 0.04096 0.77992 0.7122 0.0
H4029 H 0.0486 0.76582 0.70109 0.0
H4030 H 0.0693 0.74157 0.7185 0.0
C4031 C 0.07802 0.71304 0.69129 0.0
C4032 C 0.05774 0.73608 0.69067 0.0
C4033 C 0.0838 0.70591 0.68468 0.0
C4034 C 0.04394 0.77274 0.71606 0.0
C4035 C 0.04821 0.76453 0.70963 0.0
C4036 C 0.06583 0.74009 0.71081 0.0
C4037 C 0.07214 0.72176 0.68701 0.0
C4038 C 0.0667 0.73001 0.69412 0.0
C4039 C 0.05215 0.75494 0.71414 0.0
C4040 C 0.05703 0.74625 0.70728 0.0
H4041 H 0.07671 0.71647 0.66071 0.0
H4042 H 0.06754 0.72917 0.67202 0.0
H4043 H 0.07758 0.72799 0.70736 0.0
H4044 H 0.04723 0.76088 0.74029 0.0
H4045 H 0.05432 0.74656 0.72915 0.0
C4046 C 0.85027 0.64611 0.70361 0.0
C4047 C 0.84897 0.65526 0.70993 0.0
C4048 C 0.8473 0.6361 0.70758 0.0
C4049 C 0.83041 0.62313 0.72826 0.0
H4050 H 0.84971 0.59894 0.72426 0.0
C4051 C 0.82268 0.58331 0.74997 0.0
C4052 C 0.82524 0.57384 0.74461 0.0
C4053 C 0.82597 0.59313 0.74584 0.0
C4054 C 0.84412 0.60555 0.72535 0.0
H4055 H 0.84321 0.66113 0.72518 0.0
H4056 H 0.83794 0.64374 0.73205 0.0
H4057 H 0.85417 0.61615 0.71643 0.0
H4058 H 0.83324 0.56703 0.73082 0.0
H4059 H 0.83874 0.58416 0.72334 0.0
H4060 H 0.82024 0.6126 0.73697 0.0
C4061 C 0.84127 0.64425 0.72406 0.0
C4062 C 0.84671 0.61545 0.72085 0.0
C4063 C 0.84435 0.65422 0.72015 0.0
C4064 C 0.83127 0.57427 0.73512 0.0
C4065 C 0.83445 0.58411 0.73089 0.0
C4066 C 0.82777 0.61323 0.73267 0.0
C4067 C 0.84282 0.63504 0.71789 0.0
C4068 C 0.83991 0.62438 0.72231 0.0
C4069 C 0.83174 0.59371 0.73612 0.0
C4070 C 0.83461 0.60428 0.73135 0.0
H4071 H 0.85388 0.64666 0.69574 0.0
H4072 H 0.8485 0.62918 0.70257 0.0
H4073 H 0.8249 0.6298 0.72942 0.0
H4074 H 0.81803 0.58313 0.75732 0.0
H4075 H 0.82393 0.60026 0.75028 0.0
C4076 C 0.91991 0.31683 0.69131 0.0
C4077 C 0.90946 0.31295 0.69058 0.0
C4078 C 0.92794 0.31086 0.69654 0.0
C4079 C 0.93165 0.28833 0.71603 0.0
H4080 H 0.96067 0.28734 0.70479 0.0
C4081 C 0.96329 0.25818 0.7322 0.0
C4082 C 0.97387 0.26161 0.73327 0.0
C4083 C 0.95562 0.26457 0.727 0.0
C4084 C 0.95263 0.28761 0.70813 0.0
H4085 H 0.89929 0.2998 0.695 0.0
H4086 H 0.91313 0.28946 0.70399 0.0
H4087 H 0.94713 0.29836 0.69594 0.0
H4088 H 0.98466 0.27445 0.72948 0.0
H4089 H 0.97131 0.28562 0.72051 0.0
H4090 H 0.93711 0.27757 0.72819 0.0
C4091 C 0.91521 0.29713 0.70062 0.0
C4092 C 0.94484 0.29396 0.70304 0.0
C4093 C 0.90724 0.30304 0.69536 0.0
C4094 C 0.97658 0.27158 0.7289 0.0
C4095 C 0.96892 0.27795 0.72364 0.0
C4096 C 0.93942 0.28198 0.7211 0.0
C4097 C 0.92571 0.3009 0.70129 0.0
C4098 C 0.93419 0.29439 0.70687 0.0
C4099 C 0.9583 0.27457 0.72265 0.0
C4100 C 0.95003 0.28147 0.71722 0.0
H4101 H 0.92193 0.32438 0.68763 0.0
H4102 H 0.93589 0.31411 0.69694 0.0
H4103 H 0.92363 0.28858 0.71941 0.0
H4104 H 0.96088 0.2506 0.73553 0.0
H4105 H 0.94759 0.26159 0.72631 0.0
C4106 C 0.1493 0.4265 0.70747 0.0
C4107 C 0.1559 0.41916 0.70196 0.0
C4108 C 0.15366 0.43495 0.71293 0.0
C4109 C 0.18037 0.44547 0.7216 0.0
H4110 H 0.16183 0.46827 0.73195 0.0
C4111 C 0.1965 0.47703 0.74964 0.0
C4112 C 0.19219 0.48739 0.74902 0.0
C4113 C 0.19176 0.46875 0.74423 0.0
C4114 C 0.16723 0.46211 0.72897 0.0
H4115 H 0.17232 0.4155 0.69728 0.0
H4116 H 0.17979 0.43084 0.70561 0.0
H4117 H 0.15467 0.45505 0.72063 0.0
H4118 H 0.17956 0.49732 0.74244 0.0
H4119 H 0.17158 0.48309 0.73248 0.0
H4120 H 0.19319 0.45338 0.72897 0.0
C4121 C 0.17128 0.42973 0.70652 0.0
C4122 C 0.16302 0.45421 0.72262 0.0
C4123 C 0.16694 0.42097 0.70142 0.0
C4124 C 0.18297 0.48935 0.74306 0.0
C4125 C 0.17837 0.48113 0.73742 0.0
C4126 C 0.18468 0.45366 0.72752 0.0
C4127 C 0.16476 0.43673 0.71265 0.0
C4128 C 0.16945 0.4456 0.71894 0.0
C4129 C 0.18275 0.47071 0.73784 0.0
C4130 C 0.17815 0.46203 0.73143 0.0
H4131 H 0.14071 0.42562 0.70779 0.0
H4132 H 0.14816 0.43982 0.71757 0.0
H4133 H 0.18573 0.43903 0.71929 0.0
H4134 H 0.20354 0.47534 0.75434 0.0
H4135 H 0.1952 0.46082 0.74508 0.0
C4136 C 0.09007 0.38376 0.33092 0.0
C4137 C 0.08797 0.3843 0.34194 0.0
C4138 C 0.08347 0.37789 0.32441 0.0
C4139 C 0.06749 0.35446 0.32659 0.0
H4140 H 0.05604 0.3625 0.29906 0.0
C4141 C 0.04008 0.32682 0.30489 0.0
C4142 C 0.04229 0.32533 0.29404 0.0
C4143 C 0.04477 0.3351 0.31026 0.0
C4144 C 0.05928 0.36016 0.3067 0.0
H4145 H 0.07686 0.37998 0.35462 0.0
H4146 H 0.06546 0.36959 0.34326 0.0
H4147 H 0.06598 0.37551 0.30927 0.0
H4148 H 0.0508 0.33133 0.28013 0.0
H4149 H 0.05917 0.34579 0.28959 0.0
H4150 H 0.06115 0.33909 0.32402 0.0
C4151 C 0.07226 0.37359 0.33972 0.0
C4152 C 0.06491 0.36757 0.31251 0.0
C4153 C 0.07878 0.3795 0.3462 0.0
C4154 C 0.04893 0.33243 0.28851 0.0
C4155 C 0.05369 0.34069 0.2939 0.0
C4156 C 0.06197 0.34706 0.32078 0.0
C4157 C 0.07476 0.37246 0.32887 0.0
C4158 C 0.06892 0.36478 0.32254 0.0
C4159 C 0.05182 0.34193 0.30487 0.0
C4160 C 0.0577 0.34987 0.31086 0.0
H4161 H 0.09714 0.38733 0.32745 0.0
H4162 H 0.08553 0.37707 0.31604 0.0
H4163 H 0.07076 0.35208 0.33421 0.0
H4164 H 0.03485 0.32149 0.30924 0.0
H4165 H 0.04303 0.33604 0.31868 0.0
C4166 C 0.22204 0.63521 0.26752 0.0
C4167 C 0.22923 0.64326 0.27003 0.0
C4168 C 0.22574 0.62575 0.26283 0.0
C4169 C 0.25035 0.60933 0.26077 0.0
H4170 H 0.23426 0.59351 0.24022 0.0
C4171 C 0.26622 0.5698 0.2431 0.0
C4172 C 0.25881 0.56157 0.24242 0.0
C4173 C 0.26279 0.58015 0.24553 0.0
C4174 C 0.2388 0.59782 0.24601 0.0
H4175 H 0.24579 0.64803 0.26885 0.0
H4176 H 0.25223 0.63159 0.26064 0.0
H4177 H 0.22785 0.61112 0.24577 0.0
H4178 H 0.24199 0.55772 0.24398 0.0
H4179 H 0.23603 0.57577 0.24814 0.0
H4180 H 0.26123 0.59601 0.26113 0.0
C4181 C 0.24378 0.63245 0.26254 0.0
C4182 C 0.23513 0.60789 0.24919 0.0
C4183 C 0.24009 0.64188 0.26723 0.0
C4184 C 0.24789 0.56392 0.24421 0.0
C4185 C 0.24446 0.57427 0.2466 0.0
C4186 C 0.25402 0.59928 0.25759 0.0
C4187 C 0.2367 0.62417 0.26053 0.0
C4188 C 0.24083 0.61373 0.25666 0.0
C4189 C 0.25188 0.58249 0.24732 0.0
C4190 C 0.24824 0.59338 0.25025 0.0
H4191 H 0.21364 0.63599 0.26966 0.0
H4192 H 0.22009 0.61949 0.26147 0.0
H4193 H 0.25483 0.61352 0.2667 0.0
H4194 H 0.27467 0.56827 0.24164 0.0
H4195 H 0.26868 0.58635 0.24592 0.0
C4196 C 0.92229 0.64819 0.31216 0.0
C4197 C 0.92142 0.65053 0.32307 0.0
C4198 C 0.92932 0.65377 0.30553 0.0
C4199 C 0.94403 0.67904 0.30385 0.0
H4200 H 0.95849 0.66501 0.28013 0.0
C4201 C 0.97382 0.70124 0.2767 0.0
C4202 C 0.97331 0.69937 0.2657 0.0
C4203 C 0.96818 0.69489 0.28393 0.0
C4204 C 0.95443 0.66907 0.28666 0.0
H4205 H 0.92741 0.66044 0.33562 0.0
H4206 H 0.93985 0.67011 0.32408 0.0
H4207 H 0.94765 0.65461 0.29251 0.0
H4208 H 0.96656 0.68932 0.25365 0.0
H4209 H 0.9566 0.67828 0.26627 0.0
H4210 H 0.95076 0.6935 0.29797 0.0
C4211 C 0.93494 0.66408 0.3206 0.0
C4212 C 0.94821 0.66311 0.29377 0.0
C4213 C 0.92783 0.65853 0.32723 0.0
C4214 C 0.96717 0.6909 0.26209 0.0
C4215 C 0.96149 0.68456 0.26933 0.0
C4216 C 0.95027 0.68499 0.29676 0.0
C4217 C 0.93571 0.66181 0.30964 0.0
C4218 C 0.94285 0.66803 0.30241 0.0
C4219 C 0.96186 0.68654 0.28034 0.0
C4220 C 0.95549 0.6801 0.28804 0.0
H4221 H 0.91732 0.64222 0.30865 0.0
H4222 H 0.9295 0.65195 0.29711 0.0
H4223 H 0.93988 0.68315 0.31028 0.0
H4224 H 0.97866 0.70757 0.27974 0.0
H4225 H 0.96882 0.6965 0.29235 0.0
C4226 C 0.84299 0.43842 0.3441 0.0
C4227 C 0.84014 0.42819 0.34769 0.0
C4228 C 0.83571 0.44492 0.33857 0.0
C4229 C 0.8111 0.44286 0.32266 0.0
H4230 H 0.81029 0.47365 0.32479 0.0
C4231 C 0.77876 0.468 0.30155 0.0
C4232 C 0.78158 0.47788 0.29707 0.0
C4233 C 0.78587 0.46232 0.30803 0.0
C4234 C 0.8105 0.46507 0.324 0.0
H4235 H 0.82706 0.41706 0.34863 0.0
H4236 H 0.81427 0.42855 0.3395 0.0
H4237 H 0.82248 0.46325 0.33594 0.0
H4238 H 0.79416 0.48953 0.29603 0.0
H4239 H 0.80673 0.47941 0.30701 0.0
H4240 H 0.79924 0.44463 0.31068 0.0
C4241 C 0.82228 0.43143 0.34065 0.0
C4242 C 0.81749 0.45909 0.33042 0.0
C4243 C 0.82959 0.42488 0.34608 0.0
C4244 C 0.79175 0.4819 0.29924 0.0
C4245 C 0.79891 0.47616 0.30567 0.0
C4246 C 0.80415 0.44882 0.31625 0.0
C4247 C 0.82532 0.44142 0.33658 0.0
C4248 C 0.81784 0.44789 0.32987 0.0
C4249 C 0.79607 0.46627 0.31014 0.0
C4250 C 0.80369 0.46 0.31687 0.0
H4251 H 0.85095 0.44138 0.34538 0.0
H4252 H 0.83838 0.45253 0.33554 0.0
H4253 H 0.81133 0.43429 0.32178 0.0
H4254 H 0.77108 0.46455 0.29994 0.0
H4255 H 0.7833 0.45482 0.31144 0.0
C4256 C 0.14395 0.6131 0.68832 0.0
C4257 C 0.14462 0.61249 0.67715 0.0
C4258 C 0.14858 0.60521 0.69479 0.0
C4259 C 0.16843 0.58243 0.69468 0.0
H4260 H 0.15545 0.57715 0.7224 0.0
C4261 C 0.18509 0.55038 0.72453 0.0
C4262 C 0.18531 0.55329 0.73536 0.0
C4263 C 0.17986 0.55686 0.71697 0.0
C4264 C 0.15926 0.57857 0.71473 0.0
H4265 H 0.15078 0.60298 0.66405 0.0
H4266 H 0.15866 0.58895 0.67535 0.0
H4267 H 0.14675 0.58933 0.71004 0.0
H4268 H 0.18032 0.56565 0.74648 0.0
H4269 H 0.1711 0.5767 0.73346 0.0
H4270 H 0.18089 0.57146 0.69944 0.0
C4271 C 0.15469 0.59569 0.67914 0.0
C4272 C 0.15426 0.58563 0.70759 0.0
C4273 C 0.15015 0.60373 0.67262 0.0
C4274 C 0.18013 0.5629 0.73834 0.0
C4275 C 0.17484 0.56931 0.73081 0.0
C4276 C 0.17339 0.57525 0.70181 0.0
C4277 C 0.15396 0.5963 0.69036 0.0
C4278 C 0.15888 0.58791 0.69753 0.0
C4279 C 0.17462 0.56641 0.72001 0.0
C4280 C 0.16899 0.5734 0.71203 0.0
H4281 H 0.13997 0.61983 0.69212 0.0
H4282 H 0.14807 0.60626 0.70333 0.0
H4283 H 0.17233 0.58394 0.68708 0.0
H4284 H 0.18885 0.54302 0.72188 0.0
H4285 H 0.17979 0.55429 0.70876 0.0
C4286 C 0.17678 0.45539 0.33071 0.0
C4287 C 0.16952 0.44814 0.32657 0.0
C4288 C 0.18495 0.45948 0.32422 0.0
C4289 C 0.20069 0.45316 0.30009 0.0
H4290 H 0.20699 0.48326 0.29949 0.0
C4291 C 0.22911 0.4707 0.26843 0.0
C4292 C 0.23556 0.47927 0.27122 0.0
C4293 C 0.2212 0.46703 0.27543 0.0
C4294 C 0.20548 0.4748 0.29968 0.0
H4295 H 0.16518 0.4394 0.31248 0.0
H4296 H 0.17932 0.44659 0.3012 0.0
H4297 H 0.19302 0.47672 0.31145 0.0
H4298 H 0.2386 0.49073 0.28365 0.0
H4299 H 0.22534 0.4839 0.29607 0.0
H4300 H 0.21321 0.45112 0.28853 0.0
C4301 C 0.17874 0.4491 0.30943 0.0
C4302 C 0.19744 0.47107 0.30652 0.0
C4303 C 0.17057 0.44508 0.31586 0.0
C4304 C 0.23395 0.48399 0.28127 0.0
C4305 C 0.22618 0.48019 0.28835 0.0
C4306 C 0.2088 0.45685 0.29336 0.0
C4307 C 0.18606 0.45628 0.31355 0.0
C4308 C 0.19489 0.46023 0.3067 0.0
C4309 C 0.21965 0.4717 0.2855 0.0
C4310 C 0.21123 0.46774 0.29297 0.0
H4311 H 0.17613 0.45791 0.33892 0.0
H4312 H 0.19053 0.46497 0.32761 0.0
H4313 H 0.19902 0.44472 0.3002 0.0
H4314 H 0.23017 0.46677 0.26083 0.0
H4315 H 0.21623 0.4606 0.27285 0.0
C4316 C 0.13799 0.70382 0.2659 0.0
C4317 C 0.14499 0.71131 0.27 0.0
C4318 C 0.12787 0.70695 0.2625 0.0
C4319 C 0.1073 0.72817 0.26449 0.0
H4320 H 0.09712 0.71485 0.23886 0.0
C4321 C 0.06611 0.73872 0.24652 0.0
C4322 C 0.06031 0.73015 0.24264 0.0
C4323 C 0.07676 0.73727 0.24944 0.0
C4324 C 0.09979 0.71857 0.24609 0.0
H4325 H 0.14689 0.7279 0.27401 0.0
H4326 H 0.1291 0.7335 0.26783 0.0
H4327 H 0.11511 0.71087 0.24491 0.0
H4328 H 0.0609 0.71332 0.23898 0.0
H4329 H 0.0794 0.71067 0.2443 0.0
H4330 H 0.09187 0.73574 0.26573 0.0
C4331 C 0.13144 0.72517 0.26737 0.0
C4332 C 0.11011 0.7163 0.24955 0.0
C4333 C 0.1416 0.72199 0.27089 0.0
C4334 C 0.06529 0.72009 0.24177 0.0
C4335 C 0.07588 0.7186 0.24479 0.0
C4336 C 0.09692 0.73043 0.26103 0.0
C4337 C 0.12454 0.71768 0.263 0.0
C4338 C 0.11391 0.72089 0.25891 0.0
C4339 C 0.08176 0.72718 0.24863 0.0
C4340 C 0.093 0.72548 0.2519 0.0
H4341 H 0.14037 0.6955 0.26532 0.0
H4342 H 0.12265 0.70093 0.25946 0.0
H4343 H 0.10998 0.73179 0.27176 0.0
H4344 H 0.06241 0.74657 0.24721 0.0
H4345 H 0.08111 0.74406 0.25224 0.0
C4346 C 0.83785 0.58513 0.32757 0.0
C4347 C 0.84025 0.58275 0.33823 0.0
C4348 C 0.83129 0.57848 0.32179 0.0
C4349 C 0.81018 0.55872 0.32616 0.0
H4350 H 0.81366 0.55443 0.29575 0.0
C4351 C 0.78308 0.53133 0.30201 0.0
C4352 C 0.77975 0.53522 0.29204 0.0
C4353 C 0.79069 0.53674 0.30779 0.0
C4354 C 0.81255 0.55564 0.30423 0.0
H4355 H 0.83827 0.57112 0.35094 0.0
H4356 H 0.82691 0.55946 0.34082 0.0
H4357 H 0.8272 0.56403 0.30538 0.0
H4358 H 0.7815 0.54807 0.28052 0.0
H4359 H 0.79488 0.55744 0.29057 0.0
H4360 H 0.79552 0.55031 0.32498 0.0
C4361 C 0.82986 0.56662 0.33702 0.0
C4362 C 0.8203 0.56113 0.30975 0.0
C4363 C 0.8364 0.57328 0.3428 0.0
C4364 C 0.78406 0.54474 0.28807 0.0
C4365 C 0.79171 0.55011 0.29382 0.0
C4366 C 0.80246 0.55318 0.32065 0.0
C4367 C 0.82701 0.56928 0.32653 0.0
C4368 C 0.81916 0.56283 0.32076 0.0
C4369 C 0.79517 0.54612 0.30369 0.0
C4370 C 0.80351 0.55168 0.30962 0.0
H4371 H 0.84059 0.59242 0.32384 0.0
H4372 H 0.82917 0.58083 0.31376 0.0
H4373 H 0.80894 0.56005 0.33461 0.0
H4374 H 0.78002 0.52393 0.30523 0.0
H4375 H 0.79328 0.53343 0.31534 0.0
C4376 C 0.92675 0.34192 0.34802 0.0
C4377 C 0.92548 0.35306 0.34827 0.0
C4378 C 0.93444 0.3371 0.34142 0.0
C4379 C 0.95927 0.34195 0.32597 0.0
H4380 H 0.95105 0.31624 0.31151 0.0
C4381 C 0.98633 0.32094 0.2943 0.0
C4382 C 0.98669 0.30974 0.29459 0.0
C4383 C 0.97901 0.32662 0.30069 0.0
C4384 C 0.95353 0.32333 0.31557 0.0
H4385 H 0.93143 0.3679 0.34179 0.0
H4386 H 0.94484 0.35944 0.33002 0.0
H4387 H 0.93815 0.3255 0.32291 0.0
H4388 H 0.97957 0.29573 0.30174 0.0
H4389 H 0.96701 0.3056 0.31305 0.0
H4390 H 0.97471 0.33971 0.3186 0.0
C4391 C 0.9399 0.35445 0.33508 0.0
C4392 C 0.94612 0.32866 0.32212 0.0
C4393 C 0.93216 0.3593 0.34173 0.0
C4394 C 0.97957 0.30436 0.3014 0.0
C4395 C 0.97228 0.31002 0.30779 0.0
C4396 C 0.96672 0.3366 0.3194 0.0
C4397 C 0.94106 0.34328 0.33479 0.0
C4398 C 0.94892 0.33797 0.32749 0.0
C4399 C 0.97187 0.32122 0.3075 0.0
C4400 C 0.96395 0.32717 0.31421 0.0
H4401 H 0.92166 0.33685 0.35284 0.0
H4402 H 0.93521 0.3285 0.34154 0.0
H4403 H 0.96171 0.34905 0.33006 0.0
H4404 H 0.99181 0.32532 0.28922 0.0
H4405 H 0.97884 0.33524 0.3002 0.0
C4406 C 0.84983 0.41005 0.69892 0.0
C4407 C 0.84233 0.40263 0.69539 0.0
C4408 C 0.84658 0.419 0.70486 0.0
C4409 C 0.82348 0.43002 0.72099 0.0
H4410 H 0.83843 0.45661 0.71746 0.0
C4411 C 0.80755 0.46959 0.73953 0.0
C4412 C 0.81504 0.47648 0.7439 0.0
C4413 C 0.81092 0.46058 0.73377 0.0
C4414 C 0.83423 0.44922 0.71864 0.0
H4415 H 0.82543 0.39901 0.6956 0.0
H4416 H 0.81976 0.41475 0.70548 0.0
H4417 H 0.84415 0.44112 0.70714 0.0
H4418 H 0.83197 0.47934 0.7455 0.0
H4419 H 0.83787 0.46364 0.73544 0.0
H4420 H 0.81348 0.43819 0.7324 0.0
C4421 C 0.82822 0.41355 0.70385 0.0
C4422 C 0.83753 0.44028 0.71271 0.0
C4423 C 0.83147 0.40455 0.69798 0.0
C4424 C 0.826 0.47414 0.74233 0.0
C4425 C 0.82937 0.46519 0.73646 0.0
C4426 C 0.82015 0.43897 0.72686 0.0
C4427 C 0.83571 0.42092 0.70742 0.0
C4428 C 0.83221 0.43051 0.71378 0.0
C4429 C 0.82188 0.45827 0.73209 0.0
C4430 C 0.82547 0.44871 0.72579 0.0
H4431 H 0.85825 0.40902 0.69703 0.0
H4432 H 0.85266 0.42434 0.70755 0.0
H4433 H 0.81928 0.42265 0.72225 0.0
H4434 H 0.79906 0.47115 0.74062 0.0
H4435 H 0.80491 0.45553 0.73045 0.0
C4436 C 0.09553 0.31697 0.6906 0.0
C4437 C 0.09441 0.32809 0.69132 0.0
C4438 C 0.08791 0.31034 0.69516 0.0
C4439 C 0.06567 0.30932 0.71475 0.0
H4440 H 0.0583 0.28434 0.69861 0.0
C4441 C 0.03347 0.28053 0.72991 0.0
C4442 C 0.03584 0.26962 0.72882 0.0
C4443 C 0.03969 0.28808 0.72463 0.0
C4444 C 0.06032 0.29122 0.70327 0.0
H4445 H 0.08462 0.34102 0.69768 0.0
H4446 H 0.07107 0.32936 0.70561 0.0
H4447 H 0.07106 0.29685 0.69119 0.0
H4448 H 0.04641 0.25799 0.72128 0.0
H4449 H 0.05746 0.27115 0.71222 0.0
H4450 H 0.05505 0.30361 0.72691 0.0
C4451 C 0.07794 0.32579 0.70156 0.0
C4452 C 0.06765 0.2984 0.69902 0.0
C4453 C 0.08567 0.33246 0.69704 0.0
C4454 C 0.04435 0.26636 0.72213 0.0
C4455 C 0.05065 0.27392 0.71694 0.0
C4456 C 0.05834 0.30212 0.71902 0.0
C4457 C 0.07889 0.31465 0.70049 0.0
C4458 C 0.07055 0.30745 0.70478 0.0
C4459 C 0.04849 0.28488 0.71825 0.0
C4460 C 0.05569 0.29291 0.71339 0.0
H4461 H 0.10231 0.3134 0.68639 0.0
H4462 H 0.08907 0.3018 0.69445 0.0
H4463 H 0.06778 0.31616 0.71944 0.0
H4464 H 0.02687 0.28321 0.73495 0.0
H4465 H 0.03766 0.29644 0.72564 0.0
C4466 C 0.91431 0.75791 0.70189 0.0
C4467 C 0.91289 0.7469 0.70336 0.0
C4468 C 0.92297 0.76299 0.70638 0.0
C4469 C 0.94311 0.76017 0.72746 0.0
H4470 H 0.95838 0.78111 0.71055 0.0
C4471 C 0.98248 0.7778 0.74172 0.0
C4472 C 0.98418 0.78867 0.73978 0.0
C4473 C 0.97391 0.77269 0.73709 0.0
C4474 C 0.95413 0.77538 0.71543 0.0
H4475 H 0.91945 0.73264 0.71085 0.0
H4476 H 0.93456 0.74155 0.71877 0.0
H4477 H 0.94308 0.77225 0.70304 0.0
H4478 H 0.97827 0.80272 0.73145 0.0
H4479 H 0.96318 0.79386 0.72349 0.0
H4480 H 0.95406 0.76336 0.73989 0.0
C4481 C 0.9289 0.74625 0.71418 0.0
C4482 C 0.94536 0.77029 0.71112 0.0
C4483 C 0.92023 0.74115 0.70966 0.0
C4484 C 0.9772 0.79431 0.73301 0.0
C4485 C 0.96857 0.78921 0.72843 0.0
C4486 C 0.95184 0.76529 0.73179 0.0
C4487 C 0.93042 0.75722 0.71251 0.0
C4488 C 0.93975 0.76262 0.71708 0.0
C4489 C 0.96679 0.77835 0.73047 0.0
C4490 C 0.95748 0.77295 0.72583 0.0
H4491 H 0.90869 0.76263 0.69727 0.0
H4492 H 0.92378 0.77149 0.70512 0.0
H4493 H 0.93887 0.75443 0.73233 0.0
H4494 H 0.98785 0.77321 0.74674 0.0
H4495 H 0.97293 0.76427 0.73864 0.0
C4496 C 0.68453 0.21387 0.61223 0.0
C4497 C 0.68 0.20402 0.60998 0.0
C4498 C 0.69016 0.21942 0.60434 0.0
C4499 C 0.69695 0.21848 0.5748 0.0
H4500 H 0.71809 0.23882 0.58318 0.0
C4501 C 0.71999 0.24227 0.54333 0.0
C4502 C 0.73056 0.24516 0.54534 0.0
C4503 C 0.7137 0.23775 0.55133 0.0
C4504 C 0.71237 0.23301 0.58068 0.0
H4505 H 0.67746 0.19239 0.5977 0.0
H4506 H 0.68773 0.20147 0.58422 0.0
H4507 H 0.70768 0.22987 0.5967 0.0
H4508 H 0.7429 0.24548 0.55726 0.0
H4509 H 0.7321 0.23705 0.57115 0.0
H4510 H 0.70248 0.22079 0.55887 0.0
C4511 C 0.68678 0.20534 0.59184 0.0
C4512 C 0.70612 0.22801 0.58849 0.0
C4513 C 0.68096 0.19995 0.59966 0.0
C4514 C 0.73477 0.24331 0.5555 0.0
C4515 C 0.72852 0.2386 0.56349 0.0
C4516 C 0.7035 0.22311 0.56707 0.0
C4517 C 0.69159 0.21515 0.59402 0.0
C4518 C 0.69823 0.22068 0.58569 0.0
C4519 C 0.71789 0.23574 0.5615 0.0
C4520 C 0.71121 0.23056 0.56987 0.0
H4521 H 0.68394 0.21715 0.62018 0.0
H4522 H 0.69337 0.22704 0.60644 0.0
H4523 H 0.69086 0.21321 0.57205 0.0
H4524 H 0.71658 0.24339 0.53551 0.0
H4525 H 0.70552 0.2359 0.54949 0.0
C4526 C 0.33719 0.22281 0.5871 0.0
C4527 C 0.34239 0.22867 0.59492 0.0
C4528 C 0.33023 0.22788 0.57997 0.0
C4529 C 0.32265 0.2546 0.56916 0.0
H4530 H 0.29645 0.24055 0.56173 0.0
C4531 C 0.28815 0.27667 0.5479 0.0
C4532 C 0.28321 0.27134 0.53952 0.0
C4533 C 0.29543 0.27132 0.55445 0.0
C4534 C 0.30378 0.24453 0.56364 0.0
H4535 H 0.34432 0.24449 0.60137 0.0
H4536 H 0.33221 0.2533 0.58902 0.0
H4537 H 0.3092 0.23151 0.57336 0.0
H4538 H 0.28218 0.25611 0.53153 0.0
H4539 H 0.29468 0.24675 0.54314 0.0
H4540 H 0.31713 0.26768 0.55956 0.0
C4541 C 0.33363 0.24481 0.58824 0.0
C4542 C 0.31112 0.23934 0.57029 0.0
C4543 C 0.34059 0.23975 0.59534 0.0
C4544 C 0.28564 0.26046 0.538 0.0
C4545 C 0.29285 0.25508 0.54463 0.0
C4546 C 0.31529 0.2598 0.56257 0.0
C4547 C 0.3283 0.23894 0.5805 0.0
C4548 C 0.32063 0.24432 0.57317 0.0
C4549 C 0.29789 0.26047 0.55288 0.0
C4550 C 0.30575 0.25485 0.55977 0.0
H4551 H 0.33852 0.21429 0.58643 0.0
H4552 H 0.32643 0.22313 0.574 0.0
H4553 H 0.32998 0.2586 0.57103 0.0
H4554 H 0.28632 0.28497 0.54948 0.0
H4555 H 0.29905 0.27565 0.56086 0.0
C4556 C 0.32206 0.81677 0.59779 0.0
C4557 C 0.32482 0.81123 0.6072 0.0
C4558 C 0.31704 0.81164 0.5894 0.0
C4559 C 0.30144 0.78741 0.58322 0.0
H4560 H 0.30699 0.79616 0.55401 0.0
C4561 C 0.28366 0.76526 0.54724 0.0
C4562 C 0.28004 0.77148 0.53863 0.0
C4563 C 0.28928 0.76989 0.55555 0.0
C4564 C 0.30524 0.79368 0.56212 0.0
H4565 H 0.32456 0.79569 0.61486 0.0
H4566 H 0.31615 0.78667 0.60009 0.0
H4567 H 0.3167 0.80433 0.56839 0.0
H4568 H 0.27962 0.78736 0.53183 0.0
H4569 H 0.2895 0.79548 0.54627 0.0
H4570 H 0.29 0.77672 0.5769 0.0
C4571 C 0.31766 0.7951 0.59932 0.0
C4572 C 0.31083 0.79839 0.57041 0.0
C4573 C 0.32265 0.80026 0.60777 0.0
C4574 C 0.28224 0.78241 0.53843 0.0
C4575 C 0.28799 0.78702 0.54667 0.0
C4576 C 0.29588 0.78267 0.57491 0.0
C4577 C 0.31468 0.80074 0.59003 0.0
C4578 C 0.30898 0.79539 0.58112 0.0
C4579 C 0.29157 0.78084 0.55538 0.0
C4580 C 0.29765 0.78577 0.56424 0.0
H4581 H 0.32375 0.82516 0.59688 0.0
H4582 H 0.3148 0.81635 0.58249 0.0
H4583 H 0.29962 0.78497 0.59132 0.0
H4584 H 0.28208 0.75681 0.54756 0.0
H4585 H 0.29199 0.76483 0.56203 0.0
C4586 C 0.68378 0.81969 0.58606 0.0
C4587 C 0.68 0.83021 0.58486 0.0
C4588 C 0.69178 0.8156 0.57928 0.0
C4589 C 0.71242 0.82384 0.55889 0.0
H4590 H 0.71335 0.79343 0.55371 0.0
C4591 C 0.7409 0.80335 0.52786 0.0
C4592 C 0.74597 0.79382 0.53119 0.0
C4593 C 0.73297 0.80823 0.53423 0.0
C4594 C 0.71324 0.80194 0.55514 0.0
H4595 H 0.68162 0.8447 0.57553 0.0
H4596 H 0.69516 0.83745 0.56334 0.0
H4597 H 0.69903 0.80101 0.5646 0.0
H4598 H 0.74698 0.78222 0.54405 0.0
H4599 H 0.73306 0.79062 0.55504 0.0
H4600 H 0.72651 0.82466 0.54897 0.0
C4601 C 0.69224 0.83239 0.56972 0.0
C4602 C 0.70504 0.80631 0.56147 0.0
C4603 C 0.68437 0.83654 0.57666 0.0
C4604 C 0.74308 0.78942 0.54113 0.0
C4605 C 0.73512 0.79424 0.54744 0.0
C4606 C 0.72052 0.81946 0.55236 0.0
C4607 C 0.6961 0.82183 0.57093 0.0
C4608 C 0.70459 0.81731 0.56363 0.0
C4609 C 0.7299 0.80364 0.54402 0.0
C4610 C 0.7211 0.80844 0.55056 0.0
H4611 H 0.68078 0.8147 0.59247 0.0
H4612 H 0.69471 0.80757 0.58078 0.0
H4613 H 0.71252 0.83231 0.5604 0.0
H4614 H 0.74283 0.8069 0.5202 0.0
H4615 H 0.72903 0.81542 0.53135 0.0
C4616 C 0.70959 0.8552 0.41433 0.0
C4617 C 0.69887 0.85845 0.41585 0.0
C4618 C 0.7145 0.84808 0.42135 0.0
C4619 C 0.71163 0.83526 0.4482 0.0
H4620 H 0.73446 0.81742 0.43654 0.0
C4621 C 0.74002 0.81027 0.4752 0.0
C4622 C 0.74491 0.80108 0.47096 0.0
C4623 C 0.73354 0.81681 0.4688 0.0
C4624 C 0.72798 0.82212 0.43999 0.0
H4625 H 0.68482 0.85656 0.42594 0.0
H4626 H 0.69327 0.84363 0.43804 0.0
H4627 H 0.72439 0.82889 0.42486 0.0
H4628 H 0.74674 0.79121 0.45702 0.0
H4629 H 0.73504 0.80218 0.44598 0.0
H4630 H 0.71479 0.82785 0.46326 0.0
C4631 C 0.69799 0.84687 0.43153 0.0
C4632 C 0.72231 0.82898 0.43326 0.0
C4633 C 0.69308 0.85418 0.42452 0.0
C4634 C 0.74302 0.7983 0.46039 0.0
C4635 C 0.73642 0.80471 0.45405 0.0
C4636 C 0.71713 0.82814 0.45493 0.0
C4637 C 0.70879 0.84369 0.43001 0.0
C4638 C 0.7142 0.83583 0.43726 0.0
C4639 C 0.73175 0.81421 0.45807 0.0
C4640 C 0.72548 0.82153 0.45094 0.0
H4641 H 0.71426 0.85819 0.40765 0.0
H4642 H 0.72287 0.84614 0.41998 0.0
H4643 H 0.70551 0.84044 0.45165 0.0
H4644 H 0.74145 0.81252 0.48336 0.0
H4645 H 0.73025 0.82407 0.47222 0.0
C4646 C 0.6894 0.1942 0.38849 0.0
C4647 C 0.68246 0.1859 0.39103 0.0
C4648 C 0.69539 0.19895 0.39643 0.0
C4649 C 0.69651 0.20186 0.42607 0.0
H4650 H 0.72406 0.21403 0.41923 0.0
C4651 C 0.72385 0.2196 0.45819 0.0
C4652 C 0.72891 0.22922 0.45561 0.0
C4653 C 0.71836 0.21398 0.45044 0.0
C4654 C 0.71633 0.21075 0.42126 0.0
H4655 H 0.67632 0.1759 0.4037 0.0
H4656 H 0.68708 0.18385 0.41759 0.0
H4657 H 0.71454 0.20451 0.40562 0.0
H4658 H 0.73225 0.24037 0.44277 0.0
H4659 H 0.72261 0.23064 0.4293 0.0
H4660 H 0.69848 0.20798 0.44179 0.0
C4661 C 0.68779 0.18693 0.40954 0.0
C4662 C 0.71082 0.2053 0.41342 0.0
C4663 C 0.68171 0.18226 0.40159 0.0
C4664 C 0.72836 0.23305 0.44507 0.0
C4665 C 0.72293 0.2274 0.43731 0.0
C4666 C 0.70209 0.20721 0.43394 0.0
C4667 C 0.69464 0.19545 0.40711 0.0
C4668 C 0.70076 0.20085 0.41565 0.0
C4669 C 0.71785 0.2178 0.43989 0.0
C4670 C 0.71203 0.21181 0.43161 0.0
H4671 H 0.68997 0.1972 0.38039 0.0
H4672 H 0.70035 0.2056 0.39419 0.0
H4673 H 0.68872 0.19876 0.42812 0.0
H4674 H 0.72401 0.21647 0.46625 0.0
H4675 H 0.71461 0.20657 0.4527 0.0
C4676 C 0.31736 0.19409 0.43306 0.0
C4677 C 0.3198 0.19735 0.42259 0.0
C4678 C 0.31301 0.20142 0.44042 0.0
C4679 C 0.29889 0.22779 0.44165 0.0
H4680 H 0.3086 0.22813 0.47083 0.0
C4681 C 0.28777 0.26246 0.46953 0.0
C4682 C 0.28375 0.25956 0.4796 0.0
C4683 C 0.29282 0.25485 0.46302 0.0
C4684 C 0.30578 0.22809 0.46271 0.0
H4685 H 0.31948 0.21064 0.41153 0.0
H4686 H 0.31192 0.22335 0.42421 0.0
H4687 H 0.31561 0.21451 0.4586 0.0
H4688 H 0.2822 0.24668 0.49103 0.0
H4689 H 0.29125 0.23336 0.47973 0.0
H4690 H 0.28916 0.24139 0.44569 0.0
C4691 C 0.31324 0.2152 0.42682 0.0
C4692 C 0.30975 0.22026 0.45572 0.0
C4693 C 0.31763 0.20793 0.41955 0.0
C4694 C 0.28526 0.24906 0.48327 0.0
C4695 C 0.29047 0.24148 0.47683 0.0
C4696 C 0.295 0.23563 0.44859 0.0
C4697 C 0.31091 0.21209 0.43738 0.0
C4698 C 0.30639 0.22005 0.44507 0.0
C4699 C 0.29406 0.24422 0.46652 0.0
C4700 C 0.29843 0.23592 0.45919 0.0
H4701 H 0.31908 0.18599 0.43561 0.0
H4702 H 0.31125 0.19873 0.44846 0.0
H4703 H 0.29593 0.22776 0.43359 0.0
H4704 H 0.2866 0.2705 0.46651 0.0
H4705 H 0.29561 0.25724 0.45516 0.0
C4706 C 0.35434 0.84299 0.4475 0.0
C4707 C 0.34956 0.85197 0.44264 0.0
C4708 C 0.34812 0.83576 0.4534 0.0
C4709 C 0.32031 0.83224 0.46508 0.0
H4710 H 0.32874 0.8024 0.46481 0.0
C4711 C 0.29082 0.79899 0.47689 0.0
C4712 C 0.29476 0.7899 0.4823 0.0
C4713 C 0.29779 0.80671 0.4729 0.0
C4714 C 0.32629 0.81071 0.4651 0.0
H4715 H 0.33447 0.86029 0.44007 0.0
H4716 H 0.32367 0.84764 0.44985 0.0
H4717 H 0.34033 0.81545 0.45656 0.0
H4718 H 0.30922 0.78201 0.48788 0.0
H4719 H 0.32135 0.79548 0.48099 0.0
H4720 H 0.30611 0.82738 0.47338 0.0
C4721 C 0.33223 0.84627 0.44956 0.0
C4722 C 0.33301 0.81827 0.46036 0.0
C4723 C 0.33845 0.85355 0.44385 0.0
C4724 C 0.30589 0.78882 0.48365 0.0
C4725 C 0.31286 0.79656 0.47967 0.0
C4726 C 0.31355 0.82466 0.46971 0.0
C4727 C 0.33693 0.8372 0.45443 0.0
C4728 C 0.33008 0.82917 0.46015 0.0
C4729 C 0.30893 0.80561 0.4742 0.0
C4730 C 0.31638 0.81376 0.46969 0.0
H4731 H 0.36289 0.84159 0.44681 0.0
H4732 H 0.35216 0.82907 0.45717 0.0
H4733 H 0.31782 0.84053 0.46544 0.0
H4734 H 0.28234 0.80001 0.47549 0.0
H4735 H 0.29444 0.81344 0.46856 0.0
C4736 C 0.59515 0.22753 0.67559 0.0
C4737 C 0.60229 0.2211 0.68145 0.0
C4738 C 0.58746 0.23386 0.68075 0.0
C4739 C 0.58134 0.24599 0.70694 0.0
H4740 H 0.55407 0.25235 0.69374 0.0
C4741 C 0.54837 0.27117 0.72764 0.0
C4742 C 0.54324 0.279 0.72137 0.0
C4743 C 0.55515 0.26357 0.72295 0.0
C4744 C 0.56169 0.2507 0.69748 0.0
H4745 H 0.60667 0.21594 0.69735 0.0
H4746 H 0.59286 0.22663 0.70639 0.0
H4747 H 0.56636 0.23952 0.68549 0.0
H4748 H 0.54115 0.28497 0.70527 0.0
H4749 H 0.55318 0.27176 0.69707 0.0
H4750 H 0.57655 0.25711 0.71899 0.0
C4751 C 0.59344 0.22703 0.69779 0.0
C4752 C 0.56875 0.24336 0.69275 0.0
C4753 C 0.60126 0.22078 0.6926 0.0
C4754 C 0.54502 0.27906 0.7103 0.0
C4755 C 0.55182 0.27144 0.7056 0.0
C4756 C 0.57422 0.25324 0.71172 0.0
C4757 C 0.58656 0.23378 0.69192 0.0
C4758 C 0.57873 0.24101 0.69735 0.0
C4759 C 0.55697 0.26366 0.7119 0.0
C4760 C 0.56437 0.25574 0.70698 0.0
H4761 H 0.59558 0.2278 0.66697 0.0
H4762 H 0.58243 0.23903 0.67595 0.0
H4763 H 0.58902 0.24454 0.71061 0.0
H4764 H 0.5473 0.27103 0.73622 0.0
H4765 H 0.55895 0.25761 0.72798 0.0
C4766 C 0.36262 0.13262 0.66635 0.0
C4767 C 0.36533 0.14195 0.67179 0.0
C4768 C 0.35917 0.12358 0.67192 0.0
C4769 C 0.34809 0.11523 0.69839 0.0
H4770 H 0.35509 0.08681 0.68828 0.0
C4771 C 0.33812 0.0776 0.72325 0.0
C4772 C 0.33382 0.069 0.71776 0.0
C4773 C 0.34236 0.08629 0.71766 0.0
C4774 C 0.35299 0.09469 0.69117 0.0
H4775 H 0.36658 0.14887 0.68749 0.0
H4776 H 0.36109 0.13303 0.69718 0.0
H4777 H 0.3618 0.10226 0.67856 0.0
H4778 H 0.33084 0.0626 0.70215 0.0
H4779 H 0.33836 0.07771 0.69235 0.0
H4780 H 0.33936 0.10765 0.71103 0.0
C4781 C 0.36136 0.13277 0.68856 0.0
C4782 C 0.35682 0.10358 0.68557 0.0
C4783 C 0.36471 0.14185 0.68299 0.0
C4784 C 0.33406 0.06916 0.70657 0.0
C4785 C 0.33844 0.07778 0.70097 0.0
C4786 C 0.34433 0.10635 0.70401 0.0
C4787 C 0.35842 0.12353 0.68312 0.0
C4788 C 0.35443 0.11399 0.6891 0.0
C4789 C 0.34253 0.08653 0.70644 0.0
C4790 C 0.34671 0.09596 0.70049 0.0
H4791 H 0.36313 0.13227 0.65774 0.0
H4792 H 0.35689 0.11669 0.66741 0.0
H4793 H 0.34585 0.12308 0.70126 0.0
H4794 H 0.33798 0.07769 0.73188 0.0
H4795 H 0.34553 0.09282 0.72214 0.0
C4796 C 0.40673 0.7886 0.68138 0.0
C4797 C 0.40489 0.79946 0.68352 0.0
C4798 C 0.4151 0.78286 0.68613 0.0
C4799 C 0.43907 0.78627 0.70463 0.0
H4800 H 0.44125 0.75578 0.70045 0.0
C4801 C 0.47065 0.75951 0.7263 0.0
C4802 C 0.47553 0.75114 0.72047 0.0
C4803 C 0.46203 0.76542 0.72212 0.0
C4804 C 0.44085 0.76432 0.70163 0.0
H4805 H 0.41043 0.81264 0.69287 0.0
H4806 H 0.42441 0.80266 0.70171 0.0
H4807 H 0.4264 0.7655 0.69322 0.0
H4808 H 0.47512 0.74265 0.70551 0.0
H4809 H 0.46014 0.75286 0.69828 0.0
H4810 H 0.45356 0.78465 0.71349 0.0
C4811 C 0.41978 0.79845 0.69598 0.0
C4812 C 0.4322 0.77009 0.69737 0.0
C4813 C 0.41151 0.80428 0.69098 0.0
C4814 C 0.47151 0.74888 0.71034 0.0
C4815 C 0.46287 0.75477 0.70617 0.0
C4816 C 0.44762 0.78042 0.70907 0.0
C4817 C 0.42191 0.78759 0.69358 0.0
C4818 C 0.43111 0.78127 0.69861 0.0
C4819 C 0.45799 0.76314 0.712 0.0
C4820 C 0.44871 0.76937 0.70753 0.0
H4821 H 0.40168 0.78442 0.67593 0.0
H4822 H 0.41613 0.7747 0.68366 0.0
H4823 H 0.43899 0.79475 0.70588 0.0
H4824 H 0.47334 0.76139 0.73421 0.0
H4825 H 0.4584 0.77167 0.72693 0.0
C4826 C 0.65869 0.91249 0.66336 0.0
C4827 C 0.65382 0.90346 0.66784 0.0
C4828 C 0.66233 0.92066 0.66989 0.0
C4829 C 0.67031 0.92549 0.69787 0.0
H4830 H 0.66822 0.95528 0.68972 0.0
C4831 C 0.68219 0.95875 0.72661 0.0
C4832 C 0.68831 0.96701 0.72224 0.0
C4833 C 0.67732 0.95142 0.71998 0.0
C4834 C 0.66893 0.94698 0.69207 0.0
H4835 H 0.64907 0.89599 0.68279 0.0
H4836 H 0.65507 0.91021 0.69403 0.0
H4837 H 0.66107 0.94174 0.67804 0.0
H4838 H 0.6938 0.97436 0.70753 0.0
H4839 H 0.68533 0.96156 0.69593 0.0
H4840 H 0.67817 0.93068 0.71187 0.0
C4841 C 0.65624 0.91099 0.68549 0.0
C4842 C 0.66485 0.93921 0.68536 0.0
C4843 C 0.65265 0.90286 0.679 0.0
C4844 C 0.68921 0.96798 0.71111 0.0
C4845 C 0.68427 0.96071 0.70447 0.0
C4846 C 0.67434 0.93323 0.70458 0.0
C4847 C 0.66123 0.91996 0.68107 0.0
C4848 C 0.6655 0.92835 0.68816 0.0
C4849 C 0.67838 0.95225 0.70882 0.0
C4850 C 0.67373 0.94408 0.70177 0.0
H4851 H 0.65962 0.91328 0.6548 0.0
H4852 H 0.6662 0.92742 0.66619 0.0
H4853 H 0.67117 0.9172 0.70023 0.0
H4854 H 0.68138 0.95781 0.73517 0.0
H4855 H 0.67274 0.94508 0.7236 0.0
C4856 C 0.60874 0.85598 0.34964 0.0
C4857 C 0.61714 0.86106 0.34415 0.0
C4858 C 0.60087 0.85062 0.34414 0.0
C4859 C 0.59553 0.83894 0.31754 0.0
H4860 H 0.56711 0.83581 0.32978 0.0
C4861 C 0.56137 0.81819 0.2955 0.0
C4862 C 0.55505 0.81119 0.30158 0.0
C4863 C 0.56878 0.82467 0.30042 0.0
C4864 C 0.57504 0.83654 0.3263 0.0
H4865 H 0.6234 0.8649 0.3284 0.0
H4866 H 0.60929 0.85619 0.3188 0.0
H4867 H 0.57989 0.84699 0.33857 0.0
H4868 H 0.55151 0.80554 0.31758 0.0
H4869 H 0.56452 0.81678 0.32616 0.0
H4870 H 0.59051 0.82862 0.30514 0.0
C4871 C 0.60905 0.85594 0.32742 0.0
C4872 C 0.58242 0.84294 0.33136 0.0
C4873 C 0.61707 0.86113 0.33294 0.0
C4874 C 0.55632 0.81079 0.31267 0.0
C4875 C 0.56369 0.81731 0.3176 0.0
C4876 C 0.58809 0.83265 0.3124 0.0
C4877 C 0.60095 0.85041 0.33294 0.0
C4878 C 0.59284 0.84414 0.32714 0.0
C4879 C 0.57 0.82434 0.31153 0.0
C4880 C 0.5778 0.83129 0.31679 0.0
H4881 H 0.60829 0.85595 0.35826 0.0
H4882 H 0.5949 0.8464 0.34875 0.0
H4883 H 0.6035 0.83946 0.3141 0.0
H4884 H 0.56066 0.8186 0.28692 0.0
H4885 H 0.57347 0.83005 0.29553 0.0
C4886 C 0.69112 0.09954 0.32177 0.0
C4887 C 0.68891 0.10928 0.31663 0.0
C4888 C 0.69724 0.09165 0.31669 0.0
C4889 C 0.71802 0.08878 0.29597 0.0
H4890 H 0.71289 0.05859 0.29975 0.0
C4891 C 0.74365 0.05651 0.275 0.0
C4892 C 0.74706 0.04792 0.28138 0.0
C4893 C 0.73602 0.06378 0.27887 0.0
C4894 C 0.71444 0.067 0.2987 0.0
H4895 H 0.691 0.11832 0.30202 0.0
H4896 H 0.70167 0.10444 0.293 0.0
H4897 H 0.69995 0.07162 0.30681 0.0
H4898 H 0.74533 0.04004 0.29667 0.0
H4899 H 0.73177 0.05273 0.30346 0.0
H4900 H 0.73254 0.08414 0.28791 0.0
C4901 C 0.69874 0.10295 0.30102 0.0
C4902 C 0.70704 0.07445 0.30272 0.0
C4903 C 0.69254 0.11084 0.30611 0.0
C4904 C 0.74273 0.04662 0.29164 0.0
C4905 C 0.73497 0.05383 0.29548 0.0
C4906 C 0.72539 0.08133 0.29191 0.0
C4907 C 0.70133 0.09336 0.30635 0.0
C4908 C 0.70879 0.08542 0.30146 0.0
C4909 C 0.73162 0.06252 0.28914 0.0
C4910 C 0.72369 0.07037 0.29329 0.0
H4911 H 0.68836 0.09815 0.32988 0.0
H4912 H 0.69917 0.08441 0.32105 0.0
H4913 H 0.71971 0.09717 0.29506 0.0
H4914 H 0.74702 0.05767 0.26708 0.0
H4915 H 0.73353 0.07037 0.2738 0.0
C4916 C 0.39697 0.18729 0.34199 0.0
C4917 C 0.39014 0.17966 0.33777 0.0
C4918 C 0.4048 0.19213 0.33551 0.0
C4919 C 0.41911 0.18902 0.30909 0.0
H4920 H 0.42628 0.21854 0.31338 0.0
C4921 C 0.44405 0.21252 0.27783 0.0
C4922 C 0.45093 0.22046 0.28134 0.0
C4923 C 0.43708 0.2074 0.28498 0.0
C4924 C 0.42452 0.21024 0.31212 0.0
H4925 H 0.38594 0.17149 0.32332 0.0
H4926 H 0.39924 0.18003 0.31207 0.0
H4927 H 0.4135 0.21006 0.32534 0.0
H4928 H 0.4561 0.22894 0.29527 0.0
H4929 H 0.44415 0.21992 0.30774 0.0
H4930 H 0.43007 0.18921 0.29585 0.0
C4931 C 0.39891 0.18206 0.32043 0.0
C4932 C 0.41714 0.20535 0.31903 0.0
C4933 C 0.3912 0.17717 0.3269 0.0
C4934 C 0.45077 0.22301 0.29223 0.0
C4935 C 0.44387 0.21783 0.2994 0.0
C4936 C 0.42647 0.19391 0.30219 0.0
C4937 C 0.40592 0.18956 0.32462 0.0
C4938 C 0.41422 0.19468 0.31757 0.0
C4939 C 0.43685 0.20998 0.29589 0.0
C4940 C 0.42923 0.20464 0.30352 0.0
H4941 H 0.39642 0.18934 0.35034 0.0
H4942 H 0.41009 0.19775 0.33912 0.0
H4943 H 0.41734 0.18073 0.3078 0.0
H4944 H 0.44386 0.21042 0.26948 0.0
H4945 H 0.43171 0.20156 0.28187 0.0
C4946 C 0.34836 0.94288 0.36953 0.0
C4947 C 0.34654 0.93232 0.3729 0.0
C4948 C 0.34049 0.94873 0.36406 0.0
C4949 C 0.31674 0.94412 0.34764 0.0
H4950 H 0.31123 0.97441 0.35089 0.0
C4951 C 0.28083 0.96423 0.32763 0.0
C4952 C 0.28208 0.97439 0.32307 0.0
C4953 C 0.28872 0.95978 0.33411 0.0
C4954 C 0.31276 0.96597 0.34981 0.0
H4955 H 0.33468 0.91989 0.37346 0.0
H4956 H 0.32092 0.93018 0.36444 0.0
H4957 H 0.32486 0.96553 0.36176 0.0
H4958 H 0.29258 0.98795 0.322 0.0
H4959 H 0.30656 0.97999 0.33303 0.0
H4960 H 0.30481 0.94449 0.33568 0.0
C4961 C 0.32855 0.93386 0.36575 0.0
C4962 C 0.32056 0.96088 0.35605 0.0
C4963 C 0.33643 0.928 0.37112 0.0
C4964 C 0.29141 0.98005 0.32527 0.0
C4965 C 0.29937 0.97554 0.33171 0.0
C4966 C 0.30901 0.94919 0.34143 0.0
C4967 C 0.33057 0.94418 0.36188 0.0
C4968 C 0.32253 0.94984 0.35514 0.0
C4969 C 0.29817 0.96529 0.33611 0.0
C4970 C 0.30678 0.96014 0.34252 0.0
H4971 H 0.35595 0.9466 0.37093 0.0
H4972 H 0.34233 0.95665 0.36121 0.0
H4973 H 0.31826 0.93569 0.34647 0.0
H4974 H 0.27384 0.95957 0.32602 0.0
H4975 H 0.28741 0.95196 0.33753 0.0
C4976 C 0.67046 0.12097 0.6833 0.0
C4977 C 0.66751 0.12983 0.68952 0.0
C4978 C 0.67559 0.11213 0.68795 0.0
C4979 C 0.69045 0.1035 0.71198 0.0
H4980 H 0.68013 0.07556 0.70483 0.0
C4981 C 0.70088 0.06608 0.73695 0.0
C4982 C 0.70278 0.0565 0.73146 0.0
C4983 C 0.69703 0.07511 0.73157 0.0
C4984 C 0.68323 0.08328 0.70682 0.0
H4985 H 0.6681 0.13661 0.70534 0.0
H4986 H 0.67678 0.12118 0.71346 0.0
H4987 H 0.67311 0.0912 0.69556 0.0
H4988 H 0.70189 0.04887 0.71604 0.0
H4989 H 0.69568 0.06468 0.70661 0.0
H4990 H 0.70053 0.09559 0.72327 0.0
C4991 C 0.67521 0.12103 0.70501 0.0
C4992 C 0.6792 0.09225 0.70148 0.0
C4993 C 0.67011 0.12983 0.70037 0.0
C4994 C 0.70073 0.05616 0.72049 0.0
C4995 C 0.69699 0.0652 0.7151 0.0
C4996 C 0.6945 0.09453 0.71729 0.0
C4997 C 0.6779 0.11203 0.69889 0.0
C4998 C 0.6827 0.10246 0.70406 0.0
C4999 C 0.69505 0.07477 0.72057 0.0
C5000 C 0.69089 0.08432 0.71482 0.0
H5001 H 0.66854 0.12075 0.67492 0.0
H5002 H 0.67768 0.10536 0.683 0.0
H5003 H 0.69341 0.11125 0.71405 0.0
H5004 H 0.70244 0.06662 0.74539 0.0
H5005 H 0.69549 0.08232 0.73606 0.0
C5006 C 0.70763 0.94183 0.34045 0.0
C5007 C 0.70077 0.93492 0.33524 0.0
C5008 C 0.71442 0.94854 0.33457 0.0
C5009 C 0.71963 0.95798 0.30615 0.0
H5010 H 0.74498 0.96941 0.31877 0.0
C5011 C 0.74619 0.98699 0.28233 0.0
C5012 C 0.7572 0.98714 0.28434 0.0
C5013 C 0.7393 0.98108 0.28884 0.0
C5014 C 0.73805 0.96615 0.315 0.0
H5015 H 0.69602 0.92921 0.31983 0.0
H5016 H 0.70819 0.94009 0.30967 0.0
H5017 H 0.73363 0.9579 0.32924 0.0
H5018 H 0.76963 0.98107 0.29473 0.0
H5019 H 0.75777 0.97045 0.3058 0.0
H5020 H 0.72456 0.9654 0.29164 0.0
C5021 C 0.70804 0.94103 0.31822 0.0
C5022 C 0.73132 0.95966 0.32115 0.0
C5023 C 0.70108 0.9346 0.32408 0.0
C5024 C 0.76116 0.98121 0.29301 0.0
C5025 C 0.7543 0.97515 0.29943 0.0
C5026 C 0.72655 0.96412 0.29991 0.0
C5027 C 0.71474 0.94828 0.32331 0.0
C5028 C 0.72196 0.95542 0.31684 0.0
C5029 C 0.74323 0.97498 0.29746 0.0
C5030 C 0.73586 0.96837 0.30422 0.0
H5031 H 0.70754 0.94225 0.34907 0.0
H5032 H 0.71922 0.95404 0.33894 0.0
H5033 H 0.71242 0.95531 0.30245 0.0
H5034 H 0.74283 0.99165 0.27585 0.0
H5035 H 0.73084 0.98149 0.28715 0.0
C5036 C 0.59573 0.18534 0.31526 0.0
C5037 C 0.60567 0.18383 0.31008 0.0
C5038 C 0.58753 0.19122 0.31033 0.0
C5039 C 0.58269 0.21122 0.28897 0.0
H5040 H 0.55375 0.20066 0.29008 0.0
C5041 C 0.54891 0.22902 0.2629 0.0
C5042 C 0.53879 0.23031 0.26777 0.0
C5043 C 0.55712 0.22349 0.26817 0.0
C5044 C 0.56177 0.20379 0.28979 0.0
H5045 H 0.61493 0.18752 0.29585 0.0
H5046 H 0.60069 0.19772 0.28725 0.0
H5047 H 0.56793 0.19096 0.29936 0.0
H5048 H 0.52923 0.22659 0.28182 0.0
H5049 H 0.54356 0.21713 0.29106 0.0
H5050 H 0.57653 0.22404 0.27938 0.0
C5051 C 0.59918 0.19441 0.29511 0.0
C5052 C 0.56989 0.19824 0.29513 0.0
C5053 C 0.60732 0.18849 0.3 0.0
C5054 C 0.53701 0.22588 0.27794 0.0
C5055 C 0.54518 0.22033 0.28318 0.0
C5056 C 0.57456 0.21678 0.28364 0.0
C5057 C 0.58917 0.1958 0.30018 0.0
C5058 C 0.58045 0.20187 0.29476 0.0
C5059 C 0.55534 0.21907 0.27836 0.0
C5060 C 0.56401 0.21313 0.28398 0.0
H5061 H 0.59423 0.18178 0.32302 0.0
H5062 H 0.57993 0.19222 0.31449 0.0
H5063 H 0.59071 0.21433 0.28864 0.0
H5064 H 0.55049 0.23234 0.25506 0.0
H5065 H 0.56482 0.22256 0.26418 0.0
C5066 C 0.30915 0.09541 0.36049 0.0
C5067 C 0.31103 0.10496 0.35485 0.0
C5068 C 0.30408 0.08688 0.35567 0.0
C5069 C 0.2868 0.08048 0.3327 0.0
H5070 H 0.29519 0.05136 0.33943 0.0
C5071 C 0.27086 0.04476 0.30915 0.0
C5072 C 0.26903 0.03509 0.31458 0.0
C5073 C 0.27573 0.05325 0.31423 0.0
C5074 C 0.29261 0.05943 0.33756 0.0
H5075 H 0.30907 0.11279 0.33951 0.0
H5076 H 0.30062 0.09781 0.33102 0.0
H5077 H 0.30435 0.06599 0.34774 0.0
H5078 H 0.27084 0.02693 0.32975 0.0
H5079 H 0.27903 0.04182 0.3387 0.0
H5080 H 0.27506 0.07393 0.32253 0.0
C5081 C 0.30287 0.09701 0.33929 0.0
C5082 C 0.2979 0.06786 0.34233 0.0
C5083 C 0.30789 0.10558 0.34413 0.0
C5084 C 0.27204 0.03425 0.32532 0.0
C5085 C 0.27689 0.04277 0.33042 0.0
C5086 C 0.2815 0.07205 0.32794 0.0
C5087 C 0.30078 0.08756 0.34502 0.0
C5088 C 0.29511 0.07853 0.33995 0.0
C5089 C 0.27888 0.05238 0.32493 0.0
C5090 C 0.28435 0.06139 0.33025 0.0
H5091 H 0.31158 0.09451 0.36869 0.0
H5092 H 0.30256 0.07981 0.36041 0.0
H5093 H 0.28424 0.08855 0.33081 0.0
H5094 H 0.2685 0.0458 0.30094 0.0
H5095 H 0.27721 0.06044 0.30967 0.0
C5096 C 0.44205 0.86459 0.36261 0.0
C5097 C 0.43656 0.8591 0.37077 0.0
C5098 C 0.44962 0.85926 0.35608 0.0
C5099 C 0.45684 0.83188 0.34706 0.0
H5100 H 0.48277 0.84485 0.33632 0.0
C5101 C 0.48775 0.80756 0.32239 0.0
C5102 C 0.49265 0.81259 0.31359 0.0
C5103 C 0.48165 0.81345 0.32979 0.0
C5104 C 0.47551 0.84113 0.33916 0.0
H5105 H 0.43485 0.84363 0.3784 0.0
H5106 H 0.44811 0.83454 0.36736 0.0
H5107 H 0.47086 0.85483 0.34837 0.0
H5108 H 0.49516 0.82789 0.3059 0.0
H5109 H 0.48426 0.83809 0.31858 0.0
H5110 H 0.46134 0.81826 0.33782 0.0
C5111 C 0.44651 0.84292 0.36585 0.0
C5112 C 0.46867 0.84687 0.34609 0.0
C5113 C 0.43898 0.84821 0.37232 0.0
C5114 C 0.4914 0.82371 0.31249 0.0
C5115 C 0.48525 0.8296 0.31987 0.0
C5116 C 0.46365 0.82617 0.34016 0.0
C5117 C 0.45182 0.8483 0.35751 0.0
C5118 C 0.45924 0.84231 0.35015 0.0
C5119 C 0.48019 0.82454 0.32856 0.0
C5120 C 0.47309 0.83068 0.3361 0.0
H5121 H 0.44047 0.873 0.36124 0.0
H5122 H 0.45351 0.86368 0.34973 0.0
H5123 H 0.44955 0.82815 0.34978 0.0
H5124 H 0.48842 0.79901 0.32347 0.0
H5125 H 0.47804 0.80927 0.33646 0.0
C5126 C 0.33652 0.90143 0.6824 0.0
C5127 C 0.33894 0.89242 0.68874 0.0
C5128 C 0.33355 0.91121 0.6871 0.0
C5129 C 0.33461 0.92565 0.71318 0.0
H5130 H 0.31477 0.94527 0.69952 0.0
C5131 C 0.31903 0.96429 0.73406 0.0
C5132 C 0.31761 0.97351 0.72774 0.0
C5133 C 0.3214 0.95437 0.72938 0.0
C5134 C 0.32042 0.93996 0.70342 0.0
H5135 H 0.33947 0.88666 0.70506 0.0
H5136 H 0.33423 0.90348 0.71315 0.0
H5137 H 0.31909 0.92824 0.69121 0.0
H5138 H 0.31799 0.9794 0.71143 0.0
H5139 H 0.322 0.96224 0.70336 0.0
H5140 H 0.3359 0.93736 0.72541 0.0
C5141 C 0.33495 0.90317 0.70456 0.0
C5142 C 0.32293 0.93014 0.69862 0.0
C5143 C 0.33795 0.89344 0.69988 0.0
C5144 C 0.31873 0.97249 0.7166 0.0
C5145 C 0.32106 0.9626 0.71194 0.0
C5146 C 0.33208 0.93545 0.718 0.0
C5147 C 0.33285 0.91228 0.69827 0.0
C5148 C 0.33008 0.92281 0.7034 0.0
C5149 C 0.32242 0.95336 0.71823 0.0
C5150 C 0.32497 0.94278 0.71318 0.0
H5151 H 0.33726 0.90103 0.67381 0.0
H5152 H 0.33211 0.91802 0.68193 0.0
H5153 H 0.34033 0.9204 0.71708 0.0
H5154 H 0.31811 0.96465 0.74263 0.0
H5155 H 0.32224 0.94746 0.73452 0.0
C5156 C 0.58955 0.80289 0.65641 0.0
C5157 C 0.58965 0.8138 0.65888 0.0
C5158 C 0.58263 0.79602 0.66175 0.0
C5159 C 0.5581 0.79526 0.67864 0.0
H5160 H 0.56945 0.76743 0.68664 0.0
C5161 C 0.53723 0.76776 0.70926 0.0
C5162 C 0.538 0.75669 0.70779 0.0
C5163 C 0.54268 0.7747 0.70244 0.0
C5164 C 0.56607 0.77509 0.68431 0.0
H5165 H 0.58247 0.82604 0.66889 0.0
H5166 H 0.57046 0.81394 0.67844 0.0
H5167 H 0.58065 0.77966 0.67666 0.0
H5168 H 0.5448 0.74422 0.69777 0.0
H5169 H 0.55409 0.75634 0.68569 0.0
H5170 H 0.54353 0.79068 0.68645 0.0
C5171 C 0.57567 0.81076 0.67223 0.0
C5172 C 0.57251 0.78213 0.67859 0.0
C5173 C 0.58263 0.81767 0.66685 0.0
C5174 C 0.544 0.75272 0.69909 0.0
C5175 C 0.54943 0.75966 0.69224 0.0
C5176 C 0.55163 0.7882 0.68437 0.0
C5177 C 0.57565 0.79983 0.66977 0.0
C5178 C 0.56864 0.79232 0.67572 0.0
C5179 C 0.54899 0.77072 0.69396 0.0
C5180 C 0.55557 0.77804 0.68733 0.0
H5181 H 0.59495 0.7996 0.65041 0.0
H5182 H 0.58275 0.78769 0.65954 0.0
H5183 H 0.5548 0.80298 0.67642 0.0
H5184 H 0.53254 0.77108 0.7158 0.0
H5185 H 0.54223 0.78316 0.70405 0.0
C5186 C 0.43468 0.23147 0.67821 0.0
C5187 C 0.42765 0.23595 0.67068 0.0
C5188 C 0.44184 0.23784 0.68363 0.0
C5189 C 0.44651 0.26618 0.6906 0.0
H5190 H 0.47414 0.25495 0.69931 0.0
C5191 C 0.47729 0.2925 0.71139 0.0
C5192 C 0.48294 0.28791 0.71994 0.0
C5193 C 0.47101 0.28623 0.70486 0.0
C5194 C 0.46642 0.25819 0.69702 0.0
H5195 H 0.42284 0.25072 0.66289 0.0
H5196 H 0.43559 0.26172 0.67197 0.0
H5197 H 0.46253 0.24398 0.68875 0.0
H5198 H 0.4866 0.27301 0.72808 0.0
H5199 H 0.47544 0.26216 0.71691 0.0
H5200 H 0.45043 0.2804 0.69885 0.0
C5201 C 0.43541 0.2533 0.6739 0.0
C5202 C 0.45972 0.25187 0.69096 0.0
C5203 C 0.42818 0.24695 0.66855 0.0
C5204 C 0.48224 0.27686 0.72169 0.0
C5205 C 0.47595 0.2706 0.71518 0.0
C5206 C 0.45323 0.27251 0.6966 0.0
C5207 C 0.44227 0.24887 0.68162 0.0
C5208 C 0.44962 0.25574 0.68773 0.0
C5209 C 0.47021 0.2752 0.7067 0.0
C5210 C 0.46324 0.26857 0.69996 0.0
H5211 H 0.43464 0.22301 0.67996 0.0
H5212 H 0.44687 0.23411 0.68959 0.0
H5213 H 0.43874 0.26941 0.68847 0.0
H5214 H 0.47756 0.30098 0.70983 0.0
H5215 H 0.46682 0.29004 0.69833 0.0
C5216 C 0.72879 0.72034 0.14003 0.0
C5217 C 0.7274 0.72744 0.14856 0.0
C5218 C 0.73053 0.72406 0.12966 0.0
C5219 C 0.73848 0.74796 0.11374 0.0
H5220 H 0.7271 0.73126 0.09084 0.0
C5221 C 0.74981 0.75592 0.06926 0.0
C5222 C 0.74223 0.75372 0.06143 0.0
C5223 C 0.74786 0.7533 0.07999 0.0
C5224 C 0.73022 0.73618 0.09707 0.0
H5225 H 0.72671 0.74414 0.15279 0.0
H5226 H 0.72951 0.75073 0.13453 0.0
H5227 H 0.72345 0.72616 0.10908 0.0
H5228 H 0.72664 0.74695 0.05887 0.0
H5229 H 0.72303 0.74292 0.07744 0.0
H5230 H 0.74483 0.75828 0.10164 0.0
C5231 C 0.72942 0.74221 0.13593 0.0
C5232 C 0.72829 0.7331 0.10763 0.0
C5233 C 0.72769 0.73845 0.14639 0.0
C5234 C 0.73262 0.74893 0.06465 0.0
C5235 C 0.73063 0.74642 0.07536 0.0
C5236 C 0.74029 0.75115 0.10313 0.0
C5237 C 0.73082 0.73505 0.1274 0.0
C5238 C 0.73249 0.73884 0.11615 0.0
C5239 C 0.73825 0.74845 0.08321 0.0
C5240 C 0.73624 0.74527 0.09461 0.0
H5241 H 0.72849 0.71181 0.14136 0.0
H5242 H 0.73178 0.71824 0.12343 0.0
H5243 H 0.74194 0.75256 0.12004 0.0
H5244 H 0.75725 0.75971 0.06711 0.0
H5245 H 0.75401 0.75491 0.08571 0.0
C5246 C 0.36898 0.69803 0.10887 0.0
C5247 C 0.36965 0.68709 0.10662 0.0
C5248 C 0.36415 0.70514 0.1017 0.0
C5249 C 0.34429 0.70538 0.08029 0.0
H5250 H 0.35364 0.73437 0.07587 0.0
C5251 C 0.32382 0.73428 0.05062 0.0
C5252 C 0.32203 0.74481 0.05405 0.0
C5253 C 0.33006 0.72717 0.0566 0.0
C5254 C 0.35089 0.72632 0.0771 0.0
H5255 H 0.36648 0.67516 0.09471 0.0
H5256 H 0.35809 0.68755 0.08222 0.0
H5257 H 0.36433 0.72214 0.08674 0.0
H5258 H 0.32523 0.75601 0.06666 0.0
H5259 H 0.33624 0.74367 0.07698 0.0
H5260 H 0.33083 0.70958 0.07071 0.0
C5261 C 0.36105 0.6906 0.08964 0.0
C5262 C 0.35701 0.71932 0.08332 0.0
C5263 C 0.36588 0.68351 0.0968 0.0
C5264 C 0.3266 0.74804 0.06364 0.0
C5265 C 0.33291 0.74096 0.06958 0.0
C5266 C 0.33819 0.71238 0.07406 0.0
C5267 C 0.35989 0.70146 0.09213 0.0
C5268 C 0.35375 0.70878 0.08505 0.0
C5269 C 0.33471 0.73046 0.06612 0.0
C5270 C 0.34138 0.72294 0.07246 0.0
H5271 H 0.37172 0.70105 0.11639 0.0
H5272 H 0.36331 0.71344 0.1039 0.0
H5273 H 0.34143 0.69739 0.08162 0.0
H5274 H 0.32061 0.73155 0.04317 0.0
H5275 H 0.33141 0.71916 0.05367 0.0
C5276 C 0.34908 0.34084 0.07328 0.0
C5277 C 0.35919 0.34416 0.06977 0.0
C5278 C 0.34357 0.33316 0.06769 0.0
C5279 C 0.34092 0.3207 0.04147 0.0
H5280 H 0.32615 0.29916 0.05803 0.0
C5281 C 0.31607 0.28741 0.02185 0.0
C5282 C 0.30652 0.28457 0.02711 0.0
C5283 C 0.32327 0.29428 0.02667 0.0
C5284 C 0.33009 0.30518 0.05325 0.0
H5285 H 0.37147 0.34218 0.05758 0.0
H5286 H 0.36171 0.32868 0.04762 0.0
H5287 H 0.33732 0.31182 0.06696 0.0
H5288 H 0.29721 0.28653 0.04171 0.0
H5289 H 0.30945 0.29867 0.0499 0.0
H5290 H 0.33345 0.31418 0.02776 0.0
C5291 C 0.35809 0.33203 0.05476 0.0
C5292 C 0.33655 0.31243 0.05839 0.0
C5293 C 0.36371 0.33967 0.06048 0.0
C5294 C 0.30439 0.28869 0.03733 0.0
C5295 C 0.31153 0.29554 0.04211 0.0
C5296 C 0.33436 0.31346 0.0363 0.0
C5297 C 0.34797 0.32864 0.05837 0.0
C5298 C 0.34191 0.3204 0.05261 0.0
C5299 C 0.3211 0.29842 0.03688 0.0
C5300 C 0.3287 0.30571 0.04216 0.0
H5301 H 0.34542 0.3442 0.0804 0.0
H5302 H 0.33574 0.33088 0.07061 0.0
H5303 H 0.34489 0.32678 0.03678 0.0
H5304 H 0.31795 0.28442 0.01397 0.0
H5305 H 0.33058 0.29622 0.02243 0.0
C5306 C 0.67767 0.35396 0.08817 0.0
C5307 C 0.67029 0.34798 0.09418 0.0
C5308 C 0.6842 0.34916 0.08041 0.0
C5309 C 0.69364 0.32208 0.07154 0.0
H5310 H 0.70695 0.33845 0.0488 0.0
C5311 C 0.71774 0.30277 0.03735 0.0
C5312 C 0.72846 0.30594 0.03656 0.0
C5313 C 0.71037 0.30845 0.0436 0.0
C5314 C 0.70329 0.33382 0.05514 0.0
H5315 H 0.66346 0.33228 0.09597 0.0
H5316 H 0.67407 0.32416 0.08181 0.0
H5317 H 0.69381 0.34704 0.06056 0.0
H5318 H 0.73965 0.31798 0.04137 0.0
H5319 H 0.72653 0.32819 0.05197 0.0
H5320 H 0.70281 0.30875 0.06565 0.0
C5321 C 0.67536 0.33246 0.08356 0.0
C5322 C 0.6958 0.33874 0.06198 0.0
C5323 C 0.66905 0.3372 0.09158 0.0
C5324 C 0.73146 0.31534 0.04171 0.0
C5325 C 0.72398 0.32116 0.04782 0.0
C5326 C 0.70088 0.31713 0.06453 0.0
C5327 C 0.6833 0.33828 0.07808 0.0
C5328 C 0.69089 0.33296 0.07036 0.0
C5329 C 0.71346 0.31759 0.04901 0.0
C5330 C 0.70581 0.32297 0.05633 0.0
H5331 H 0.67865 0.36237 0.08962 0.0
H5332 H 0.69019 0.35401 0.07654 0.0
H5333 H 0.69039 0.31734 0.07801 0.0
H5334 H 0.71506 0.29576 0.03327 0.0
H5335 H 0.70224 0.30565 0.04431 0.0
C5336 C 0.70824 0.35716 0.91836 0.0
C5337 C 0.69762 0.36091 0.91944 0.0
C5338 C 0.71235 0.34954 0.92538 0.0
C5339 C 0.70894 0.33831 0.95215 0.0
H5340 H 0.72702 0.31556 0.94076 0.0
C5341 C 0.72809 0.30607 0.97929 0.0
C5342 C 0.73856 0.30264 0.97665 0.0
C5343 C 0.72229 0.31257 0.97229 0.0
C5344 C 0.72211 0.32193 0.94411 0.0
H5345 H 0.68296 0.35955 0.92873 0.0
H5346 H 0.69019 0.34607 0.94108 0.0
H5347 H 0.71829 0.32804 0.92866 0.0
H5348 H 0.75106 0.30324 0.9645 0.0
H5349 H 0.74122 0.31499 0.95262 0.0
H5350 H 0.71302 0.33242 0.96761 0.0
C5351 C 0.69531 0.34914 0.93478 0.0
C5352 C 0.71706 0.32905 0.93715 0.0
C5353 C 0.69115 0.35677 0.92768 0.0
C5354 C 0.74308 0.30585 0.96687 0.0
C5355 C 0.73734 0.31246 0.95995 0.0
C5356 C 0.71409 0.33124 0.95913 0.0
C5357 C 0.70596 0.34544 0.93366 0.0
C5358 C 0.71055 0.33741 0.94109 0.0
C5359 C 0.72687 0.3159 0.96256 0.0
C5360 C 0.72086 0.32304 0.95519 0.0
H5361 H 0.71339 0.3601 0.91203 0.0
H5362 H 0.72062 0.34696 0.92439 0.0
H5363 H 0.70404 0.34473 0.95541 0.0
H5364 H 0.7244 0.30387 0.98683 0.0
H5365 H 0.7142 0.31495 0.97452 0.0
C5366 C 0.68277 0.65657 0.93408 0.0
C5367 C 0.67541 0.66052 0.92659 0.0
C5368 C 0.68848 0.66361 0.94045 0.0
C5369 C 0.68843 0.69239 0.94877 0.0
H5370 H 0.7173 0.68563 0.95776 0.0
C5371 C 0.7161 0.72439 0.96544 0.0
C5372 C 0.72224 0.72173 0.97443 0.0
C5373 C 0.71043 0.71661 0.96007 0.0
C5374 C 0.7092 0.6876 0.95538 0.0
H5375 H 0.66868 0.67489 0.91956 0.0
H5376 H 0.67882 0.68704 0.93016 0.0
H5377 H 0.70746 0.67262 0.94762 0.0
H5378 H 0.72702 0.70857 0.98477 0.0
H5379 H 0.71742 0.69502 0.97519 0.0
H5380 H 0.69031 0.70748 0.95628 0.0
C5381 C 0.67992 0.67858 0.9316 0.0
C5382 C 0.70351 0.68011 0.94958 0.0
C5383 C 0.67412 0.67159 0.92542 0.0
C5384 C 0.7226 0.71098 0.97778 0.0
C5385 C 0.71704 0.70317 0.97231 0.0
C5386 C 0.69416 0.69991 0.95442 0.0
C5387 C 0.6871 0.67475 0.93934 0.0
C5388 C 0.69307 0.68243 0.94606 0.0
C5389 C 0.71081 0.7059 0.96343 0.0
C5390 C 0.70465 0.69767 0.95772 0.0
H5391 H 0.68393 0.64806 0.93517 0.0
H5392 H 0.69384 0.66028 0.94635 0.0
H5393 H 0.68031 0.69444 0.94658 0.0
H5394 H 0.71576 0.73247 0.9624 0.0
H5395 H 0.70585 0.71897 0.95316 0.0
C5396 C 0.32745 0.72147 0.89891 0.0
C5397 C 0.3198 0.72283 0.89094 0.0
C5398 C 0.32708 0.72795 0.90788 0.0
C5399 C 0.31628 0.75352 0.91783 0.0
H5400 H 0.31858 0.73985 0.94553 0.0
C5401 C 0.30191 0.77277 0.957 0.0
C5402 C 0.30812 0.77093 0.96606 0.0
C5403 C 0.30467 0.76784 0.94743 0.0
C5404 C 0.31811 0.7438 0.93784 0.0
H5405 H 0.30598 0.73201 0.88578 0.0
H5406 H 0.30536 0.74346 0.90144 0.0
H5407 H 0.32086 0.72923 0.92948 0.0
H5408 H 0.32221 0.76282 0.97227 0.0
H5409 H 0.32711 0.7543 0.95545 0.0
H5410 H 0.31328 0.76806 0.92624 0.0
C5411 C 0.31164 0.73744 0.90078 0.0
C5412 C 0.3194 0.73773 0.92867 0.0
C5413 C 0.31194 0.73087 0.89189 0.0
C5414 C 0.31736 0.76444 0.96533 0.0
C5415 C 0.3201 0.75949 0.95577 0.0
C5416 C 0.31497 0.7596 0.92701 0.0
C5417 C 0.31914 0.73596 0.9089 0.0
C5418 C 0.31841 0.74252 0.91859 0.0
C5419 C 0.31364 0.76097 0.94681 0.0
C5420 C 0.31579 0.75477 0.93708 0.0
H5421 H 0.33353 0.71523 0.89831 0.0
H5422 H 0.33299 0.72671 0.91401 0.0
H5423 H 0.3156 0.75742 0.91013 0.0
H5424 H 0.29477 0.77778 0.95741 0.0
H5425 H 0.29951 0.76904 0.94065 0.0
C5426 C 0.29903 0.32287 0.89685 0.0
C5427 C 0.30361 0.31797 0.88781 0.0
C5428 C 0.29715 0.31704 0.90619 0.0
C5429 C 0.30295 0.29053 0.91943 0.0
H5430 H 0.28 0.30045 0.93808 0.0
C5431 C 0.29523 0.27069 0.96056 0.0
C5432 C 0.28481 0.27099 0.96488 0.0
C5433 C 0.29764 0.27622 0.95113 0.0
C5434 C 0.28631 0.29737 0.93292 0.0
H5435 H 0.3099 0.3031 0.88151 0.0
H5436 H 0.30616 0.29273 0.89759 0.0
H5437 H 0.28351 0.30982 0.92168 0.0
H5438 H 0.26866 0.27697 0.96253 0.0
H5439 H 0.27264 0.28615 0.94594 0.0
H5440 H 0.30511 0.27754 0.93029 0.0
C5441 C 0.30429 0.30118 0.89767 0.0
C5442 C 0.28854 0.30297 0.92352 0.0
C5443 C 0.30641 0.3071 0.88838 0.0
C5444 C 0.27681 0.27674 0.95948 0.0
C5445 C 0.27915 0.28209 0.94996 0.0
C5446 C 0.30049 0.28472 0.92868 0.0
C5447 C 0.29955 0.30604 0.90673 0.0
C5448 C 0.29699 0.29976 0.91665 0.0
C5449 C 0.28963 0.28204 0.94567 0.0
C5450 C 0.29218 0.28809 0.93564 0.0
H5451 H 0.29695 0.33128 0.89673 0.0
H5452 H 0.29388 0.32129 0.91299 0.0
H5453 H 0.30962 0.28779 0.91454 0.0
H5454 H 0.30159 0.2664 0.96461 0.0
H5455 H 0.30585 0.27609 0.94829 0.0
C5456 C 0.65415 0.74716 0.23584 0.0
C5457 C 0.6561 0.73618 0.23452 0.0
C5458 C 0.64459 0.75093 0.24047 0.0
C5459 C 0.61986 0.74207 0.2553 0.0
H5460 H 0.6087 0.76902 0.24462 0.0
C5461 C 0.57985 0.76001 0.27136 0.0
C5462 C 0.57344 0.76602 0.26434 0.0
C5463 C 0.59019 0.75668 0.26835 0.0
C5464 C 0.61157 0.7614 0.24761 0.0
H5465 H 0.64958 0.72053 0.23737 0.0
H5466 H 0.6328 0.72704 0.24516 0.0
H5467 H 0.62586 0.76241 0.23823 0.0
H5468 H 0.57284 0.77305 0.24854 0.0
H5469 H 0.59066 0.76706 0.24316 0.0
H5470 H 0.60518 0.7407 0.26407 0.0
C5471 C 0.63873 0.73281 0.24284 0.0
C5472 C 0.62161 0.75768 0.24409 0.0
C5473 C 0.64839 0.72904 0.23833 0.0
C5474 C 0.57763 0.76861 0.25423 0.0
C5475 C 0.58791 0.76517 0.25116 0.0
C5476 C 0.60969 0.74568 0.25863 0.0
C5477 C 0.63658 0.74384 0.24381 0.0
C5478 C 0.62594 0.74794 0.24786 0.0
C5479 C 0.59438 0.75915 0.25817 0.0
C5480 C 0.60536 0.75539 0.25481 0.0
H5481 H 0.66001 0.75288 0.23319 0.0
H5482 H 0.6435 0.75945 0.24136 0.0
H5483 H 0.6229 0.73464 0.25859 0.0
H5484 H 0.57691 0.75798 0.27927 0.0
H5485 H 0.59492 0.75227 0.2741 0.0
C5486 C 0.35405 0.60693 0.17794 0.0
C5487 C 0.365 0.60449 0.17653 0.0
C5488 C 0.347 0.5992 0.18165 0.0
C5489 C 0.34402 0.57012 0.18553 0.0
H5490 H 0.32294 0.57891 0.20681 0.0
C5491 C 0.31837 0.5398 0.2087 0.0
C5492 C 0.30758 0.54258 0.21067 0.0
C5493 C 0.32543 0.54729 0.20452 0.0
C5494 C 0.32868 0.57634 0.20078 0.0
H5495 H 0.377 0.59181 0.17747 0.0
H5496 H 0.36474 0.57841 0.18421 0.0
H5497 H 0.335 0.59198 0.19916 0.0
H5498 H 0.2958 0.55546 0.20994 0.0
H5499 H 0.308 0.5684 0.20228 0.0
H5500 H 0.33768 0.55448 0.18714 0.0
C5501 C 0.36159 0.58629 0.18236 0.0
C5502 C 0.3356 0.58384 0.19638 0.0
C5503 C 0.36865 0.59402 0.17861 0.0
C5504 C 0.30402 0.55301 0.20837 0.0
C5505 C 0.31106 0.56048 0.20413 0.0
C5506 C 0.33708 0.56262 0.18991 0.0
C5507 C 0.35071 0.58884 0.18408 0.0
C5508 C 0.34333 0.58083 0.18868 0.0
C5509 C 0.32185 0.55771 0.20215 0.0
C5510 C 0.32931 0.56565 0.19757 0.0
H5511 H 0.35096 0.61493 0.17653 0.0
H5512 H 0.33863 0.60137 0.18272 0.0
H5513 H 0.3498 0.56756 0.17953 0.0
H5514 H 0.32135 0.53181 0.21029 0.0
H5515 H 0.33371 0.54493 0.20323 0.0
C5516 C 0.43019 0.34488 0.15944 0.0
C5517 C 0.43273 0.34418 0.14851 0.0
C5518 C 0.4358 0.33875 0.16695 0.0
C5519 C 0.45998 0.32085 0.1704 0.0
H5520 H 0.44315 0.31002 0.19414 0.0
C5521 C 0.47429 0.28595 0.19766 0.0
C5522 C 0.47205 0.28684 0.20863 0.0
C5523 C 0.47015 0.29345 0.19044 0.0
C5524 C 0.44801 0.31306 0.18763 0.0
H5525 H 0.44383 0.33687 0.13712 0.0
H5526 H 0.45304 0.32575 0.15002 0.0
H5527 H 0.43494 0.32226 0.18152 0.0
H5528 H 0.46368 0.29629 0.22061 0.0
H5529 H 0.45651 0.30939 0.20805 0.0
H5530 H 0.47296 0.31129 0.17645 0.0
C5531 C 0.44683 0.33118 0.15288 0.0
C5532 C 0.44331 0.32016 0.18038 0.0
C5533 C 0.44138 0.33747 0.1454 0.0
C5534 C 0.46564 0.29543 0.21222 0.0
C5535 C 0.46144 0.30288 0.205 0.0
C5536 C 0.46465 0.31364 0.17762 0.0
C5537 C 0.444 0.33157 0.16376 0.0
C5538 C 0.44921 0.3242 0.17165 0.0
C5539 C 0.46358 0.30196 0.19402 0.0
C5540 C 0.45872 0.30968 0.18633 0.0
H5541 H 0.4236 0.34987 0.16224 0.0
H5542 H 0.43355 0.33954 0.17527 0.0
H5543 H 0.46488 0.32386 0.16391 0.0
H5544 H 0.47928 0.27946 0.19467 0.0
H5545 H 0.47189 0.29246 0.18203 0.0
C5546 C 0.65753 0.42445 0.18108 0.0
C5547 C 0.66177 0.41439 0.17815 0.0
C5548 C 0.66353 0.43151 0.18705 0.0
C5549 C 0.68646 0.43164 0.20543 0.0
H5550 H 0.68495 0.46223 0.20115 0.0
C5551 C 0.71458 0.45958 0.22747 0.0
C5552 C 0.71079 0.46974 0.2305 0.0
C5553 C 0.70846 0.45306 0.22106 0.0
C5554 C 0.68536 0.45372 0.20257 0.0
H5555 H 0.6759 0.40414 0.17898 0.0
H5556 H 0.68645 0.41657 0.18903 0.0
H5557 H 0.67483 0.45066 0.18968 0.0
H5558 H 0.69743 0.48094 0.22916 0.0
H5559 H 0.68657 0.4694 0.21838 0.0
H5560 H 0.69685 0.43464 0.21838 0.0
C5561 C 0.67837 0.41889 0.18692 0.0
C5562 C 0.67956 0.44706 0.19595 0.0
C5563 C 0.67235 0.41181 0.181 0.0
C5564 C 0.70059 0.47313 0.22709 0.0
C5565 C 0.69441 0.46655 0.22075 0.0
C5566 C 0.6922 0.43828 0.21207 0.0
C5567 C 0.67396 0.42875 0.19022 0.0
C5568 C 0.6801 0.43592 0.19724 0.0
C5569 C 0.69828 0.45643 0.2176 0.0
C5570 C 0.69182 0.44941 0.2107 0.0
H5571 H 0.64949 0.42684 0.17889 0.0
H5572 H 0.65984 0.439 0.18946 0.0
H5573 H 0.68688 0.42313 0.20685 0.0
H5574 H 0.72229 0.45659 0.23007 0.0
H5575 H 0.71182 0.44542 0.21871 0.0
C5576 C 0.60952 0.37558 0.84393 0.0
C5577 C 0.62001 0.37754 0.8403 0.0
C5578 C 0.60163 0.37243 0.83687 0.0
C5579 C 0.59841 0.35987 0.81056 0.0
H5580 H 0.56904 0.36991 0.81366 0.0
C5581 C 0.56603 0.34763 0.78075 0.0
C5582 C 0.55571 0.34585 0.78482 0.0
C5583 C 0.5738 0.35214 0.78717 0.0
C5584 C 0.57716 0.36689 0.81274 0.0
H5585 H 0.6303 0.37788 0.82624 0.0
H5586 H 0.61648 0.37264 0.8139 0.0
H5587 H 0.58261 0.37659 0.82546 0.0
H5588 H 0.5453 0.34734 0.79863 0.0
H5589 H 0.55884 0.35505 0.80995 0.0
H5590 H 0.59298 0.35 0.79802 0.0
C5591 C 0.61441 0.37338 0.82227 0.0
C5592 C 0.58497 0.37077 0.81951 0.0
C5593 C 0.6223 0.37653 0.82934 0.0
C5594 C 0.55322 0.34872 0.79535 0.0
C5595 C 0.56098 0.3532 0.80178 0.0
C5596 C 0.59059 0.35594 0.80383 0.0
C5597 C 0.60399 0.37117 0.82596 0.0
C5598 C 0.5957 0.36729 0.81854 0.0
C5599 C 0.57142 0.35492 0.79782 0.0
C5600 C 0.57983 0.35936 0.80483 0.0
H5601 H 0.60738 0.3764 0.85228 0.0
H5602 H 0.59374 0.37072 0.84003 0.0
H5603 H 0.60654 0.35687 0.80968 0.0
H5604 H 0.5681 0.34543 0.77265 0.0
H5605 H 0.58166 0.35348 0.78374 0.0
C5606 C 0.69027 0.57092 0.85083 0.0
C5607 C 0.69289 0.58049 0.85583 0.0
C5608 C 0.69785 0.56558 0.84433 0.0
C5609 C 0.72219 0.57081 0.82829 0.0
H5610 H 0.72822 0.54051 0.83075 0.0
C5611 C 0.75981 0.55218 0.80891 0.0
C5612 C 0.75907 0.54214 0.80415 0.0
C5613 C 0.75137 0.55631 0.81511 0.0
C5614 C 0.72654 0.54895 0.82986 0.0
H5615 H 0.70535 0.59203 0.85785 0.0
H5616 H 0.71844 0.58284 0.84658 0.0
H5617 H 0.7138 0.54861 0.84153 0.0
H5618 H 0.74892 0.52846 0.80238 0.0
H5619 H 0.73406 0.5358 0.81299 0.0
H5620 H 0.73479 0.57126 0.81666 0.0
C5621 C 0.71061 0.57941 0.84762 0.0
C5622 C 0.71827 0.55359 0.83604 0.0
C5623 C 0.70313 0.58463 0.85416 0.0
C5624 C 0.74971 0.53627 0.80584 0.0
C5625 C 0.74123 0.54043 0.81203 0.0
C5626 C 0.73037 0.5662 0.82211 0.0
C5627 C 0.70807 0.56985 0.84259 0.0
C5628 C 0.71615 0.56461 0.83545 0.0
C5629 C 0.74192 0.55055 0.81667 0.0
C5630 C 0.73279 0.55525 0.82293 0.0
H5631 H 0.68244 0.56753 0.85204 0.0
H5632 H 0.69567 0.55823 0.84053 0.0
H5633 H 0.7206 0.57929 0.82749 0.0
H5634 H 0.76683 0.55698 0.80768 0.0
H5635 H 0.75228 0.56405 0.8187 0.0
C5636 C 0.38838 0.71169 0.80389 0.0
C5637 C 0.38446 0.70178 0.80713 0.0
C5638 C 0.39751 0.71227 0.79748 0.0
C5639 C 0.41646 0.6964 0.78061 0.0
H5640 H 0.43535 0.71927 0.78795 0.0
C5641 C 0.455 0.7062 0.75655 0.0
C5642 C 0.46354 0.71021 0.76231 0.0
C5643 C 0.44521 0.70436 0.76167 0.0
C5644 C 0.43027 0.71273 0.78588 0.0
H5645 H 0.38669 0.68468 0.80595 0.0
H5646 H 0.40296 0.68565 0.79497 0.0
H5647 H 0.41857 0.71748 0.79743 0.0
H5648 H 0.46902 0.71467 0.7779 0.0
H5649 H 0.45215 0.7111 0.78693 0.0
H5650 H 0.42857 0.69134 0.76943 0.0
C5651 C 0.39886 0.69299 0.79721 0.0
C5652 C 0.42051 0.71183 0.79119 0.0
C5653 C 0.38958 0.69242 0.80352 0.0
C5654 C 0.46241 0.71183 0.77329 0.0
C5655 C 0.45274 0.70982 0.77842 0.0
C5656 C 0.42637 0.69719 0.7754 0.0
C5657 C 0.40305 0.70295 0.79432 0.0
C5658 C 0.41344 0.70372 0.78858 0.0
C5659 C 0.44393 0.70636 0.77263 0.0
C5660 C 0.43338 0.70537 0.77801 0.0
H5661 H 0.38443 0.71902 0.80642 0.0
H5662 H 0.40031 0.72007 0.79513 0.0
H5663 H 0.41116 0.69011 0.77835 0.0
H5664 H 0.45581 0.70484 0.74806 0.0
H5665 H 0.43858 0.70173 0.75697 0.0
C5666 C 0.27633 0.401 0.81128 0.0
C5667 C 0.28687 0.40232 0.81474 0.0
C5668 C 0.26989 0.40989 0.80859 0.0
C5669 C 0.26774 0.43937 0.81214 0.0
H5670 H 0.25006 0.4386 0.78706 0.0
C5671 C 0.24991 0.47774 0.7934 0.0
C5672 C 0.23961 0.4775 0.78907 0.0
C5673 C 0.25504 0.46839 0.79691 0.0
C5674 C 0.25484 0.43893 0.79417 0.0
H5675 H 0.29873 0.41407 0.81845 0.0
H5676 H 0.28768 0.42941 0.81365 0.0
H5677 H 0.25998 0.42262 0.7926 0.0
H5678 H 0.22658 0.46716 0.78514 0.0
H5679 H 0.23547 0.45079 0.79139 0.0
H5680 H 0.26271 0.45567 0.81369 0.0
C5681 C 0.28429 0.42157 0.81305 0.0
C5682 C 0.26053 0.42973 0.79736 0.0
C5683 C 0.29069 0.41273 0.8157 0.0
C5684 C 0.2345 0.46764 0.78847 0.0
C5685 C 0.23965 0.45824 0.79196 0.0
C5686 C 0.26207 0.44854 0.80896 0.0
C5687 C 0.27381 0.42031 0.80939 0.0
C5688 C 0.26717 0.42986 0.80632 0.0
C5689 C 0.25001 0.45848 0.79621 0.0
C5690 C 0.25563 0.4485 0.79986 0.0
H5691 H 0.27315 0.3931 0.81039 0.0
H5692 H 0.26183 0.4086 0.80591 0.0
H5693 H 0.27257 0.43975 0.81921 0.0
H5694 H 0.25403 0.48521 0.79413 0.0
H5695 H 0.26304 0.46892 0.80001 0.0
C5696 C 0.72342 0.63983 0.22159 0.0
C5697 C 0.72657 0.64815 0.22822 0.0
C5698 C 0.72577 0.6292 0.22425 0.0
C5699 C 0.74286 0.61173 0.24129 0.0
H5700 H 0.72027 0.59154 0.23699 0.0
C5701 C 0.74489 0.56806 0.2572 0.0
C5702 C 0.74098 0.56014 0.2505 0.0
C5703 C 0.74356 0.57887 0.25458 0.0
C5704 C 0.72673 0.59702 0.23813 0.0
H5705 H 0.73509 0.65176 0.24264 0.0
H5706 H 0.73906 0.63322 0.24734 0.0
H5707 H 0.71744 0.61012 0.23206 0.0
H5708 H 0.7325 0.55738 0.23587 0.0
H5709 H 0.73029 0.57614 0.23124 0.0
H5710 H 0.75214 0.59856 0.24739 0.0
C5711 C 0.7348 0.63492 0.24006 0.0
C5712 C 0.7251 0.60771 0.23529 0.0
C5713 C 0.73243 0.64556 0.23741 0.0
C5714 C 0.7357 0.56327 0.24115 0.0
C5715 C 0.73433 0.57405 0.23856 0.0
C5716 C 0.7445 0.601 0.24413 0.0
C5717 C 0.73134 0.62658 0.2336 0.0
C5718 C 0.73316 0.61521 0.23675 0.0
C5719 C 0.7382 0.58201 0.24525 0.0
C5720 C 0.73647 0.5935 0.24251 0.0
H5721 H 0.71881 0.64148 0.21452 0.0
H5722 H 0.72312 0.62301 0.21899 0.0
H5723 H 0.74928 0.61726 0.24245 0.0
H5724 H 0.74905 0.56589 0.26443 0.0
H5725 H 0.74657 0.58478 0.25996 0.0
C5726 C 0.71129 0.43821 0.83309 0.0
C5727 C 0.70875 0.43981 0.84388 0.0
C5728 C 0.71909 0.44425 0.82795 0.0
C5729 C 0.74101 0.46379 0.83277 0.0
H5730 H 0.73799 0.4681 0.80234 0.0
C5731 C 0.76684 0.49312 0.80752 0.0
C5732 C 0.77043 0.48949 0.79747 0.0
C5733 C 0.75963 0.48716 0.81365 0.0
C5734 C 0.73901 0.4669 0.81082 0.0
H5735 H 0.71249 0.44891 0.85785 0.0
H5736 H 0.72578 0.45996 0.84879 0.0
H5737 H 0.72472 0.45806 0.81209 0.0
H5738 H 0.76949 0.47657 0.78619 0.0
H5739 H 0.75688 0.46623 0.79683 0.0
H5740 H 0.75515 0.47319 0.83137 0.0
C5741 C 0.72199 0.4538 0.84429 0.0
C5742 C 0.73141 0.46103 0.81647 0.0
C5743 C 0.71432 0.44751 0.84951 0.0
C5744 C 0.76675 0.4797 0.79379 0.0
C5745 C 0.75953 0.47376 0.7999 0.0
C5746 C 0.74852 0.46988 0.82712 0.0
C5747 C 0.72443 0.45234 0.83336 0.0
C5748 C 0.73236 0.45917 0.82752 0.0
C5749 C 0.7558 0.47746 0.80986 0.0
C5750 C 0.7477 0.47135 0.81604 0.0
H5751 H 0.70725 0.43219 0.82859 0.0
H5752 H 0.72093 0.44247 0.81971 0.0
H5753 H 0.74218 0.46253 0.84121 0.0
H5754 H 0.76938 0.50072 0.81053 0.0
H5755 H 0.75683 0.49029 0.82123 0.0
C5756 C 0.60167 0.65654 0.84518 0.0
C5757 C 0.60214 0.64533 0.84505 0.0
C5758 C 0.59475 0.66226 0.83844 0.0
C5759 C 0.57186 0.65907 0.8195 0.0
H5760 H 0.58215 0.68591 0.80832 0.0
C5761 C 0.55216 0.68072 0.78346 0.0
C5762 C 0.55127 0.69192 0.78378 0.0
C5763 C 0.558 0.67506 0.79117 0.0
C5764 C 0.57907 0.67849 0.81144 0.0
H5765 H 0.59493 0.63144 0.83807 0.0
H5766 H 0.58357 0.64129 0.82593 0.0
H5767 H 0.59256 0.6762 0.82146 0.0
H5768 H 0.55607 0.70587 0.79248 0.0
H5769 H 0.56598 0.69603 0.80599 0.0
H5770 H 0.55847 0.66131 0.80919 0.0
C5771 C 0.58838 0.64575 0.83136 0.0
C5772 C 0.58505 0.6729 0.81907 0.0
C5773 C 0.59512 0.64005 0.83825 0.0
C5774 C 0.55644 0.69726 0.79201 0.0
C5775 C 0.56226 0.6916 0.79971 0.0
C5776 C 0.56593 0.66463 0.81178 0.0
C5777 C 0.5882 0.65697 0.83119 0.0
C5778 C 0.58156 0.66309 0.82325 0.0
C5779 C 0.56313 0.68042 0.79942 0.0
C5780 C 0.56944 0.67443 0.80764 0.0
H5781 H 0.6069 0.66099 0.85021 0.0
H5782 H 0.59468 0.67087 0.83884 0.0
H5783 H 0.56873 0.65167 0.8226 0.0
H5784 H 0.5482 0.6763 0.77734 0.0
H5785 H 0.55858 0.66646 0.7906 0.0
C5786 C 0.29309 0.63642 0.82954 0.0
C5787 C 0.29664 0.64244 0.82075 0.0
C5788 C 0.28685 0.62745 0.82804 0.0
C5789 C 0.2806 0.60815 0.807 0.0
H5790 H 0.25796 0.59968 0.82653 0.0
C5791 C 0.25903 0.56924 0.80052 0.0
C5792 C 0.24789 0.56946 0.80195 0.0
C5793 C 0.26515 0.57754 0.80424 0.0
C5794 C 0.26421 0.60198 0.82096 0.0
H5795 H 0.29587 0.64427 0.8036 0.0
H5796 H 0.28482 0.62885 0.80098 0.0
H5797 H 0.2677 0.61595 0.82984 0.0
H5798 H 0.23439 0.57819 0.80877 0.0
H5799 H 0.24502 0.59294 0.815 0.0
H5800 H 0.2768 0.59463 0.79778 0.0
C5801 C 0.28714 0.63076 0.809 0.0
C5802 C 0.26988 0.61123 0.82293 0.0
C5803 C 0.29342 0.63964 0.8105 0.0
C5804 C 0.24299 0.57786 0.80761 0.0
C5805 C 0.2491 0.58628 0.8112 0.0
C5806 C 0.27486 0.59903 0.80495 0.0
C5807 C 0.28399 0.6244 0.81772 0.0
C5808 C 0.27808 0.61446 0.81591 0.0
C5809 C 0.26023 0.58633 0.80932 0.0
C5810 C 0.26657 0.59582 0.81188 0.0
H5811 H 0.29552 0.63837 0.83753 0.0
H5812 H 0.28461 0.62269 0.83492 0.0
H5813 H 0.28702 0.61025 0.80155 0.0
H5814 H 0.26299 0.56273 0.79633 0.0
H5815 H 0.27373 0.57715 0.80294 0.0
C5816 C 0.38216 0.32657 0.80234 0.0
C5817 C 0.37877 0.33646 0.80652 0.0
C5818 C 0.39217 0.32536 0.79733 0.0
C5819 C 0.41883 0.33775 0.79545 0.0
H5820 H 0.42253 0.31944 0.77089 0.0
C5821 C 0.45872 0.33502 0.77165 0.0
C5822 C 0.4622 0.32483 0.76848 0.0
C5823 C 0.44845 0.33659 0.776 0.0
C5824 C 0.42165 0.3245 0.77781 0.0
H5825 H 0.3833 0.3529 0.80851 0.0
H5826 H 0.40067 0.35087 0.79954 0.0
H5827 H 0.40479 0.32201 0.77886 0.0
H5828 H 0.4578 0.30832 0.76721 0.0
H5829 H 0.43976 0.31104 0.77467 0.0
H5830 H 0.43571 0.34023 0.79439 0.0
C5831 C 0.39562 0.34398 0.8003 0.0
C5832 C 0.41147 0.32598 0.78239 0.0
C5833 C 0.38559 0.34519 0.80532 0.0
C5834 C 0.45523 0.31625 0.76958 0.0
C5835 C 0.44491 0.31784 0.7738 0.0
C5836 C 0.429 0.33629 0.79085 0.0
C5837 C 0.39908 0.33403 0.79632 0.0
C5838 C 0.40991 0.33261 0.79129 0.0
C5839 C 0.44142 0.32801 0.77716 0.0
C5840 C 0.43055 0.32964 0.78198 0.0
H5841 H 0.37708 0.31969 0.80298 0.0
H5842 H 0.39457 0.31755 0.79446 0.0
H5843 H 0.41799 0.34276 0.80241 0.0
H5844 H 0.46402 0.34172 0.77094 0.0
H5845 H 0.446 0.34454 0.77841 0.0
C5846 C 0.35488 0.4358 0.13927 0.0
C5847 C 0.36107 0.42796 0.14453 0.0
C5848 C 0.34824 0.44287 0.14512 0.0
C5849 C 0.33374 0.44438 0.17074 0.0
H5850 H 0.33342 0.47503 0.16694 0.0
C5851 C 0.31288 0.47103 0.20176 0.0
C5852 C 0.30792 0.48068 0.19864 0.0
C5853 C 0.31927 0.46518 0.19463 0.0
C5854 C 0.33326 0.46648 0.16802 0.0
H5855 H 0.36501 0.42133 0.16001 0.0
H5856 H 0.35354 0.4335 0.17009 0.0
H5857 H 0.34448 0.46383 0.15511 0.0
H5858 H 0.30607 0.49173 0.18536 0.0
H5859 H 0.3166 0.48116 0.17274 0.0
H5860 H 0.32241 0.44677 0.18336 0.0
C5861 C 0.3538 0.43426 0.16149 0.0
C5862 C 0.33963 0.46007 0.16124 0.0
C5863 C 0.36045 0.42733 0.15571 0.0
C5864 C 0.30957 0.48427 0.18808 0.0
C5865 C 0.3158 0.47826 0.18085 0.0
C5866 C 0.32728 0.45071 0.17738 0.0
C5867 C 0.34754 0.44206 0.1563 0.0
C5868 C 0.34011 0.44896 0.1627 0.0
C5869 C 0.32069 0.46857 0.184 0.0
C5870 C 0.32711 0.46189 0.17632 0.0
H5871 H 0.35522 0.43651 0.13067 0.0
H5872 H 0.34349 0.44879 0.14091 0.0
H5873 H 0.33375 0.43582 0.17193 0.0
H5874 H 0.31171 0.46781 0.20971 0.0
H5875 H 0.32309 0.45793 0.19753 0.0
C5876 C 0.58018 0.3354 0.17843 0.0
C5877 C 0.58653 0.3309 0.17022 0.0
C5878 C 0.57275 0.32921 0.1841 0.0
C5879 C 0.56663 0.30098 0.19058 0.0
H5880 H 0.53887 0.31251 0.19909 0.0
C5881 C 0.53409 0.27434 0.20948 0.0
C5882 C 0.52772 0.27865 0.21777 0.0
C5883 C 0.54104 0.28079 0.20355 0.0
C5884 C 0.54663 0.30919 0.19689 0.0
H5885 H 0.59008 0.31626 0.16169 0.0
H5886 H 0.57708 0.30562 0.17133 0.0
H5887 H 0.55132 0.32367 0.18914 0.0
H5888 H 0.52357 0.29324 0.22614 0.0
H5889 H 0.53588 0.30437 0.21605 0.0
H5890 H 0.56201 0.28653 0.19836 0.0
C5891 C 0.57786 0.3139 0.17349 0.0
C5892 C 0.55379 0.31561 0.19117 0.0
C5893 C 0.58524 0.32006 0.16785 0.0
C5894 C 0.52846 0.28959 0.21993 0.0
C5895 C 0.53542 0.29603 0.21402 0.0
C5896 C 0.55949 0.29458 0.1963 0.0
C5897 C 0.57154 0.31835 0.18174 0.0
C5898 C 0.56389 0.31159 0.18792 0.0
C5899 C 0.54183 0.29173 0.20575 0.0
C5900 C 0.54939 0.29857 0.19955 0.0
H5901 H 0.58089 0.34373 0.18043 0.0
H5902 H 0.56809 0.3329 0.19045 0.0
H5903 H 0.57439 0.29764 0.1884 0.0
H5904 H 0.53382 0.26595 0.20762 0.0
H5905 H 0.54572 0.27719 0.19716 0.0
C5906 C 0.44801 0.69563 0.18275 0.0
C5907 C 0.43949 0.68965 0.18693 0.0
C5908 C 0.4543 0.70173 0.1894 0.0
C5909 C 0.46092 0.70635 0.21792 0.0
H5910 H 0.46961 0.73378 0.20681 0.0
C5911 C 0.4869 0.73425 0.24284 0.0
C5912 C 0.48585 0.74531 0.2413 0.0
C5913 C 0.4817 0.72719 0.23617 0.0
C5914 C 0.46713 0.72624 0.21018 0.0
H5915 H 0.43126 0.6851 0.20155 0.0
H5916 H 0.4422 0.6957 0.21314 0.0
H5917 H 0.45969 0.72199 0.19565 0.0
H5918 H 0.47832 0.75764 0.23171 0.0
H5919 H 0.46886 0.74546 0.22041 0.0
H5920 H 0.46771 0.71086 0.23267 0.0
C5921 C 0.44408 0.69564 0.2047 0.0
C5922 C 0.46159 0.71933 0.20364 0.0
C5923 C 0.43778 0.68952 0.19803 0.0
C5924 C 0.47938 0.74915 0.23302 0.0
C5925 C 0.47402 0.74211 0.22647 0.0
C5926 C 0.46627 0.71335 0.22454 0.0
C5927 C 0.45228 0.70203 0.20045 0.0
C5928 C 0.45841 0.70927 0.2074 0.0
C5929 C 0.47513 0.73099 0.22788 0.0
C5930 C 0.46947 0.72343 0.22079 0.0
H5931 H 0.44977 0.69572 0.17428 0.0
H5932 H 0.46072 0.70627 0.18583 0.0
H5933 H 0.45874 0.69863 0.22109 0.0
H5934 H 0.49197 0.73103 0.24905 0.0
H5935 H 0.48304 0.71874 0.23744 0.0
loop_
_geom_bond_atom_site_label_1
_geom_bond_atom_site_label_2
_geom_bond_distance
_geom_bond_site_symmetry_2
_ccdc_geom_bond_type
C0 C1 1.264 . S
C0 C5 1.479 . S
C0 C10 1.465 . S
C1 C0 1.264 . S
C1 C3 1.339 . S
C1 H28 0.931 . S
C2 C3 1.395 . S
C2 C4 1.320 . S
C3 C1 1.339 . S
C3 C2 1.395 . S
C3 H29 0.929 . S
C4 C2 1.320 . S
C4 C5 1.405 . S
C4 H30 0.930 . S
C5 C0 1.479 . S
C5 C4 1.405 . S
C5 H31 0.931 . S
U6 O7 2.454 . S
U6 O8 2.458 . S
U6 C9 2.984 . S
U6 C10 2.847 . S
U6 C23 2.882 . S
U6 O24 2.441 . S
U6 O25 2.420 . S
U6 O26 2.455 . S
U6 O27 2.449 . S
O7 U6 2.454 . S
O7 C9 1.353 . S
O8 U6 2.458 . S
O8 C9 1.286 . S
C9 U6 2.984 . S
C9 O7 1.353 . S
C9 O8 1.286 . S
C9 C11 1.363 . S
C10 C0 1.465 . S
C10 U6 2.847 . S
C10 O24 1.249 . S
C10 O25 1.202 . S
C11 C9 1.363 . S
C11 C13 1.408 . S
C11 C16 1.342 . S
C12 C13 1.310 . S
C12 C15 1.461 . S
C12 H32 0.932 . S
C13 C11 1.408 . S
C13 C12 1.310 . S
C13 H33 0.930 . S
C14 C15 1.474 . S
C14 C16 1.285 . S
C14 H34 0.929 . S
C15 C12 1.461 . S
C15 C14 1.474 . S
C16 C11 1.342 . S
C16 C14 1.285 . S
C16 H35 0.930 . S
C17 C20 1.424 . S
C17 C22 1.245 . S
C17 C23 1.428 . S
C18 C21 1.260 . S
C18 C22 1.477 . S
C18 H36 0.932 . S
C19 C20 1.384 . S
C19 C21 1.479 . S
C19 H37 0.929 . S
C20 C17 1.424 . S
C20 C19 1.384 . S
C20 H38 0.928 . S
C21 C18 1.260 . S
C21 C19 1.479 . S
C22 C17 1.245 . S
C22 C18 1.477 . S
C22 H39 0.932 . S
C23 U6 2.882 . S
C23 C17 1.428 . S
C23 O26 1.301 . S
C23 O27 1.282 . S
O24 U6 2.441 . S
O24 C10 1.249 . S
O25 U6 2.420 . S
O25 C10 1.202 . S
O26 U6 2.455 . S
O26 C23 1.301 . S
O27 U6 2.449 . S
O27 C23 1.282 . S
H28 C1 0.931 . S
H29 C3 0.929 . S
H30 C4 0.930 . S
H31 C5 0.931 . S
H32 C12 0.932 . S
H33 C13 0.930 . S
H34 C14 0.929 . S
H35 C16 0.930 . S
H36 C18 0.932 . S
H37 C19 0.929 . S
H38 C20 0.928 . S
H39 C22 0.932 . S
C40 C41 1.264 . S
C40 C45 1.479 . S
C40 C50 1.465 . S
C41 C40 1.264 . S
C41 C43 1.339 . S
C41 H68 0.931 . S
C42 C43 1.395 . S
C42 C44 1.320 . S
C43 C41 1.339 . S
C43 C42 1.395 . S
C43 H69 0.929 . S
C44 C42 1.320 . S
C44 C45 1.405 . S
C44 H70 0.930 . S
C45 C40 1.479 . S
C45 C44 1.405 . S
C45 H71 0.931 . S
U46 O47 2.454 . S
U46 O48 2.458 . S
U46 C49 2.984 . S
U46 C50 2.847 . S
U46 C63 2.882 . S
U46 O64 2.441 . S
U46 O65 2.420 . S
U46 O66 2.455 . S
U46 O67 2.449 . S
O47 U46 2.454 . S
O47 C49 1.353 . S
O48 U46 2.458 . S
O48 C49 1.286 . S
C49 U46 2.984 . S
C49 O47 1.353 . S
C49 O48 1.286 . S
C49 C51 1.363 . S
C50 C40 1.465 . S
C50 U46 2.847 . S
C50 O64 1.249 . S
C50 O65 1.202 . S
C51 C49 1.363 . S
C51 C53 1.408 . S
C51 C56 1.342 . S
C52 C53 1.310 . S
C52 C55 1.461 . S
C52 H72 0.932 . S
C53 C51 1.408 . S
C53 C52 1.310 . S
C53 H73 0.930 . S
C54 C55 1.474 . S
C54 C56 1.285 . S
C54 H74 0.929 . S
C55 C52 1.461 . S
C55 C54 1.474 . S
C56 C51 1.342 . S
C56 C54 1.285 . S
C56 H75 0.930 . S
C57 C60 1.424 . S
C57 C62 1.245 . S
C57 C63 1.428 . S
C58 C61 1.260 . S
C58 C62 1.477 . S
C58 H76 0.932 . S
C59 C60 1.384 . S
C59 C61 1.479 . S
C59 H77 0.929 . S
C60 C57 1.424 . S
C60 C59 1.384 . S
C60 H78 0.928 . S
C61 C58 1.260 . S
C61 C59 1.479 . S
C62 C57 1.245 . S
C62 C58 1.477 . S
C62 H79 0.932 . S
C63 U46 2.882 . S
C63 C57 1.428 . S
C63 O66 1.301 . S
C63 O67 1.282 . S
O64 U46 2.441 . S
O64 C50 1.249 . S
O65 U46 2.420 . S
O65 C50 1.202 . S
O66 U46 2.455 . S
O66 C63 1.301 . S
O67 U46 2.449 . S
O67 C63 1.282 . S
H68 C41 0.931 . S
H69 C43 0.929 . S
H70 C44 0.930 . S
H71 C45 0.931 . S
H72 C52 0.932 . S
H73 C53 0.930 . S
H74 C54 0.929 . S
H75 C56 0.930 . S
H76 C58 0.932 . S
H77 C59 0.929 . S
H78 C60 0.928 . S
H79 C62 0.932 . S
C80 C81 1.264 . S
C80 C85 1.479 . S
C80 C90 1.465 . S
C81 C80 1.264 . S
C81 C83 1.339 . S
C81 H108 0.931 . S
C82 C83 1.395 . S
C82 C84 1.320 . S
C83 C81 1.339 . S
C83 C82 1.395 . S
C83 H109 0.929 . S
C84 C82 1.320 . S
C84 C85 1.405 . S
C84 H110 0.930 . S
C85 C80 1.479 . S
C85 C84 1.405 . S
C85 H111 0.931 . S
U86 O87 2.454 . S
U86 O88 2.458 . S
U86 C89 2.984 . S
U86 C90 2.847 . S
U86 C103 2.882 . S
U86 O104 2.441 . S
U86 O105 2.420 . S
U86 O106 2.455 . S
U86 O107 2.449 . S
O87 U86 2.454 . S
O87 C89 1.353 . S
O88 U86 2.458 . S
O88 C89 1.286 . S
C89 U86 2.984 . S
C89 O87 1.353 . S
C89 O88 1.286 . S
C89 C91 1.363 . S
C90 C80 1.465 . S
C90 U86 2.847 . S
C90 O104 1.249 . S
C90 O105 1.202 . S
C91 C89 1.363 . S
C91 C93 1.408 . S
C91 C96 1.342 . S
C92 C93 1.310 . S
C92 C95 1.461 . S
C92 H112 0.932 . S
C93 C91 1.408 . S
C93 C92 1.310 . S
C93 H113 0.930 . S
C94 C95 1.474 . S
C94 C96 1.285 . S
C94 H114 0.929 . S
C95 C92 1.461 . S
C95 C94 1.474 . S
C96 C91 1.342 . S
C96 C94 1.285 . S
C96 H115 0.930 . S
C97 C100 1.424 . S
C97 C102 1.245 . S
C97 C103 1.428 . S
C98 C101 1.260 . S
C98 C102 1.477 . S
C98 H116 0.932 . S
C99 C100 1.384 . S
C99 C101 1.479 . S
C99 H117 0.929 . S
C100 C97 1.424 . S
C100 C99 1.384 . S
C100 H118 0.928 . S
C101 C98 1.260 . S
C101 C99 1.479 . S
C102 C97 1.245 . S
C102 C98 1.477 . S
C102 H119 0.932 . S
C103 U86 2.882 . S
C103 C97 1.428 . S
C103 O106 1.301 . S
C103 O107 1.282 . S
O104 U86 2.441 . S
O104 C90 1.249 . S
O105 U86 2.420 . S
O105 C90 1.202 . S
O106 U86 2.455 . S
O106 C103 1.301 . S
O107 U86 2.449 . S
O107 C103 1.282 . S
H108 C81 0.931 . S
H109 C83 0.929 . S
H110 C84 0.930 . S
H111 C85 0.931 . S
H112 C92 0.932 . S
H113 C93 0.930 . S
H114 C94 0.929 . S
H115 C96 0.930 . S
H116 C98 0.932 . S
H117 C99 0.929 . S
H118 C100 0.928 . S
H119 C102 0.932 . S
C120 C121 1.264 . S
C120 C125 1.479 . S
C120 C130 1.465 . S
C121 C120 1.264 . S
C121 C123 1.339 . S
C121 H148 0.931 . S
C122 C123 1.395 . S
C122 C124 1.320 . S
C123 C121 1.339 . S
C123 C122 1.395 . S
C123 H149 0.929 . S
C124 C122 1.320 . S
C124 C125 1.405 . S
C124 H150 0.930 . S
C125 C120 1.479 . S
C125 C124 1.405 . S
C125 H151 0.931 . S
U126 O127 2.454 . S
U126 O128 2.458 . S
U126 C129 2.984 . S
U126 C130 2.847 . S
U126 C143 2.882 . S
U126 O144 2.441 . S
U126 O145 2.420 . S
U126 O146 2.455 . S
U126 O147 2.449 . S
O127 U126 2.454 . S
O127 C129 1.353 . S
O128 U126 2.458 . S
O128 C129 1.286 . S
C129 U126 2.984 . S
C129 O127 1.353 . S
C129 O128 1.286 . S
C129 C131 1.363 . S
C130 C120 1.465 . S
C130 U126 2.847 . S
C130 O144 1.249 . S
C130 O145 1.202 . S
C131 C129 1.363 . S
C131 C133 1.408 . S
C131 C136 1.342 . S
C132 C133 1.310 . S
C132 C135 1.461 . S
C132 H152 0.932 . S
C133 C131 1.408 . S
C133 C132 1.310 . S
C133 H153 0.930 . S
C134 C135 1.474 . S
C134 C136 1.285 . S
C134 H154 0.929 . S
C135 C132 1.461 . S
C135 C134 1.474 . S
C136 C131 1.342 . S
C136 C134 1.285 . S
C136 H155 0.930 . S
C137 C140 1.424 . S
C137 C142 1.245 . S
C137 C143 1.428 . S
C138 C141 1.260 . S
C138 C142 1.477 . S
C138 H156 0.932 . S
C139 C140 1.384 . S
C139 C141 1.479 . S
C139 H157 0.929 . S
C140 C137 1.424 . S
C140 C139 1.384 . S
C140 H158 0.928 . S
C141 C138 1.260 . S
C141 C139 1.479 . S
C142 C137 1.245 . S
C142 C138 1.477 . S
C142 H159 0.932 . S
C143 U126 2.882 . S
C143 C137 1.428 . S
C143 O146 1.301 . S
C143 O147 1.282 . S
O144 U126 2.441 . S
O144 C130 1.249 . S
O145 U126 2.420 . S
O145 C130 1.202 . S
O146 U126 2.455 . S
O146 C143 1.301 . S
O147 U126 2.449 . S
O147 C143 1.282 . S
H148 C121 0.931 . S
H149 C123 0.929 . S
H150 C124 0.930 . S
H151 C125 0.931 . S
H152 C132 0.932 . S
H153 C133 0.930 . S
H154 C134 0.929 . S
H155 C136 0.930 . S
H156 C138 0.932 . S
H157 C139 0.929 . S
H158 C140 0.928 . S
H159 C142 0.932 . S
C160 C161 1.264 . S
C160 C165 1.479 . S
C160 C170 1.465 . S
C161 C160 1.264 . S
C161 C163 1.339 . S
C161 H188 0.931 . S
C162 C163 1.395 . S
C162 C164 1.320 . S
C163 C161 1.339 . S
C163 C162 1.395 . S
C163 H189 0.929 . S
C164 C162 1.320 . S
C164 C165 1.405 . S
C164 H190 0.930 . S
C165 C160 1.479 . S
C165 C164 1.405 . S
C165 H191 0.931 . S
U166 O167 2.454 . S
U166 O168 2.458 . S
U166 C169 2.984 . S
U166 C170 2.847 . S
U166 C183 2.882 . S
U166 O184 2.441 . S
U166 O185 2.420 . S
U166 O186 2.455 . S
U166 O187 2.449 . S
O167 U166 2.454 . S
O167 C169 1.353 . S
O168 U166 2.458 . S
O168 C169 1.286 . S
C169 U166 2.984 . S
C169 O167 1.353 . S
C169 O168 1.286 . S
C169 C171 1.363 . S
C170 C160 1.465 . S
C170 U166 2.847 . S
C170 O184 1.249 . S
C170 O185 1.202 . S
C171 C169 1.363 . S
C171 C173 1.408 . S
C171 C176 1.342 . S
C172 C173 1.310 . S
C172 C175 1.461 . S
C172 H192 0.932 . S
C173 C171 1.408 . S
C173 C172 1.310 . S
C173 H193 0.930 . S
C174 C175 1.474 . S
C174 C176 1.285 . S
C174 H194 0.929 . S
C175 C172 1.461 . S
C175 C174 1.474 . S
C176 C171 1.342 . S
C176 C174 1.285 . S
C176 H195 0.930 . S
C177 C180 1.424 . S
C177 C182 1.245 . S
C177 C183 1.428 . S
C178 C181 1.260 . S
C178 C182 1.477 . S
C178 H196 0.932 . S
C179 C180 1.384 . S
C179 C181 1.479 . S
C179 H197 0.929 . S
C180 C177 1.424 . S
C180 C179 1.384 . S
C180 H198 0.928 . S
C181 C178 1.260 . S
C181 C179 1.479 . S
C182 C177 1.245 . S
C182 C178 1.477 . S
C182 H199 0.932 . S
C183 U166 2.882 . S
C183 C177 1.428 . S
C183 O186 1.301 . S
C183 O187 1.282 . S
O184 U166 2.441 . S
O184 C170 1.249 . S
O185 U166 2.420 . S
O185 C170 1.202 . S
O186 U166 2.455 . S
O186 C183 1.301 . S
O187 U166 2.449 . S
O187 C183 1.282 . S
H188 C161 0.931 . S
H189 C163 0.929 . S
H190 C164 0.930 . S
H191 C165 0.931 . S
H192 C172 0.932 . S
H193 C173 0.930 . S
H194 C174 0.929 . S
H195 C176 0.930 . S
H196 C178 0.932 . S
H197 C179 0.929 . S
H198 C180 0.928 . S
H199 C182 0.932 . S
C200 C201 1.264 . S
C200 C205 1.479 . S
C200 C210 1.465 . S
C201 C200 1.264 . S
C201 C203 1.339 . S
C201 H228 0.931 . S
C202 C203 1.395 . S
C202 C204 1.320 . S
C203 C201 1.339 . S
C203 C202 1.395 . S
C203 H229 0.929 . S
C204 C202 1.320 . S
C204 C205 1.405 . S
C204 H230 0.930 . S
C205 C200 1.479 . S
C205 C204 1.405 . S
C205 H231 0.931 . S
U206 O207 2.454 . S
U206 O208 2.458 . S
U206 C209 2.984 . S
U206 C210 2.847 . S
U206 C223 2.882 . S
U206 O224 2.441 . S
U206 O225 2.420 . S
U206 O226 2.455 . S
U206 O227 2.449 . S
O207 U206 2.454 . S
O207 C209 1.353 . S
O208 U206 2.458 . S
O208 C209 1.286 . S
C209 U206 2.984 . S
C209 O207 1.353 . S
C209 O208 1.286 . S
C209 C211 1.363 . S
C210 C200 1.465 . S
C210 U206 2.847 . S
C210 O224 1.249 . S
C210 O225 1.202 . S
C211 C209 1.363 . S
C211 C213 1.408 . S
C211 C216 1.342 . S
C212 C213 1.310 . S
C212 C215 1.461 . S
C212 H232 0.932 . S
C213 C211 1.408 . S
C213 C212 1.310 . S
C213 H233 0.930 . S
C214 C215 1.474 . S
C214 C216 1.285 . S
C214 H234 0.929 . S
C215 C212 1.461 . S
C215 C214 1.474 . S
C216 C211 1.342 . S
C216 C214 1.285 . S
C216 H235 0.930 . S
C217 C220 1.424 . S
C217 C222 1.245 . S
C217 C223 1.428 . S
C218 C221 1.260 . S
C218 C222 1.477 . S
C218 H236 0.932 . S
C219 C220 1.384 . S
C219 C221 1.479 . S
C219 H237 0.929 . S
C220 C217 1.424 . S
C220 C219 1.384 . S
C220 H238 0.928 . S
C221 C218 1.260 . S
C221 C219 1.479 . S
C222 C217 1.245 . S
C222 C218 1.477 . S
C222 H239 0.932 . S
C223 U206 2.882 . S
C223 C217 1.428 . S
C223 O226 1.301 . S
C223 O227 1.282 . S
O224 U206 2.441 . S
O224 C210 1.249 . S
O225 U206 2.420 . S
O225 C210 1.202 . S
O226 U206 2.455 . S
O226 C223 1.301 . S
O227 U206 2.449 . S
O227 C223 1.282 . S
H228 C201 0.931 . S
H229 C203 0.929 . S
H230 C204 0.930 . S
H231 C205 0.931 . S
H232 C212 0.932 . S
H233 C213 0.930 . S
H234 C214 0.929 . S
H235 C216 0.930 . S
H236 C218 0.932 . S
H237 C219 0.929 . S
H238 C220 0.928 . S
H239 C222 0.932 . S
C240 C241 1.264 . S
C240 C245 1.479 . S
C240 C250 1.465 . S
C241 C240 1.264 . S
C241 C243 1.339 . S
C241 H268 0.931 . S
C242 C243 1.395 . S
C242 C244 1.320 . S
C243 C241 1.339 . S
C243 C242 1.395 . S
C243 H269 0.929 . S
C244 C242 1.320 . S
C244 C245 1.405 . S
C244 H270 0.930 . S
C245 C240 1.479 . S
C245 C244 1.405 . S
C245 H271 0.931 . S
U246 O247 2.454 . S
U246 O248 2.458 . S
U246 C249 2.984 . S
U246 C250 2.847 . S
U246 C263 2.882 . S
U246 O264 2.441 . S
U246 O265 2.420 . S
U246 O266 2.455 . S
U246 O267 2.449 . S
O247 U246 2.454 . S
O247 C249 1.353 . S
O248 U246 2.458 . S
O248 C249 1.286 . S
C249 U246 2.984 . S
C249 O247 1.353 . S
C249 O248 1.286 . S
C249 C251 1.363 . S
C250 C240 1.465 . S
C250 U246 2.847 . S
C250 O264 1.249 . S
C250 O265 1.202 . S
C251 C249 1.363 . S
C251 C253 1.408 . S
C251 C256 1.342 . S
C252 C253 1.310 . S
C252 C255 1.461 . S
C252 H272 0.932 . S
C253 C251 1.408 . S
C253 C252 1.310 . S
C253 H273 0.930 . S
C254 C255 1.474 . S
C254 C256 1.285 . S
C254 H274 0.929 . S
C255 C252 1.461 . S
C255 C254 1.474 . S
C256 C251 1.342 . S
C256 C254 1.285 . S
C256 H275 0.930 . S
C257 C260 1.424 . S
C257 C262 1.245 . S
C257 C263 1.428 . S
C258 C261 1.260 . S
C258 C262 1.477 . S
C258 H276 0.932 . S
C259 C260 1.384 . S
C259 C261 1.479 . S
C259 H277 0.929 . S
C260 C257 1.424 . S
C260 C259 1.384 . S
C260 H278 0.928 . S
C261 C258 1.260 . S
C261 C259 1.479 . S
C262 C257 1.245 . S
C262 C258 1.477 . S
C262 H279 0.932 . S
C263 U246 2.882 . S
C263 C257 1.428 . S
C263 O266 1.301 . S
C263 O267 1.282 . S
O264 U246 2.441 . S
O264 C250 1.249 . S
O265 U246 2.420 . S
O265 C250 1.202 . S
O266 U246 2.455 . S
O266 C263 1.301 . S
O267 U246 2.449 . S
O267 C263 1.282 . S
H268 C241 0.931 . S
H269 C243 0.929 . S
H270 C244 0.930 . S
H271 C245 0.931 . S
H272 C252 0.932 . S
H273 C253 0.930 . S
H274 C254 0.929 . S
H275 C256 0.930 . S
H276 C258 0.932 . S
H277 C259 0.929 . S
H278 C260 0.928 . S
H279 C262 0.932 . S
C280 C281 1.264 . S
C280 C285 1.479 . S
C280 C290 1.465 . S
C281 C280 1.264 . S
C281 C283 1.339 . S
C281 H308 0.931 . S
C282 C283 1.395 . S
C282 C284 1.320 . S
C283 C281 1.339 . S
C283 C282 1.395 . S
C283 H309 0.929 . S
C284 C282 1.320 . S
C284 C285 1.405 . S
C284 H310 0.930 . S
C285 C280 1.479 . S
C285 C284 1.405 . S
C285 H311 0.931 . S
U286 O287 2.454 . S
U286 O288 2.458 . S
U286 C289 2.984 . S
U286 C290 2.847 . S
U286 C303 2.882 . S
U286 O304 2.441 . S
U286 O305 2.420 . S
U286 O306 2.455 . S
U286 O307 2.449 . S
O287 U286 2.454 . S
O287 C289 1.353 . S
O288 U286 2.458 . S
O288 C289 1.286 . S
C289 U286 2.984 . S
C289 O287 1.353 . S
C289 O288 1.286 . S
C289 C291 1.363 . S
C290 C280 1.465 . S
C290 U286 2.847 . S
C290 O304 1.249 . S
C290 O305 1.202 . S
C291 C289 1.363 . S
C291 C293 1.408 . S
C291 C296 1.342 . S
C292 C293 1.310 . S
C292 C295 1.461 . S
C292 H312 0.932 . S
C293 C291 1.408 . S
C293 C292 1.310 . S
C293 H313 0.930 . S
C294 C295 1.474 . S
C294 C296 1.285 . S
C294 H314 0.929 . S
C295 C292 1.461 . S
C295 C294 1.474 . S
C296 C291 1.342 . S
C296 C294 1.285 . S
C296 H315 0.930 . S
C297 C300 1.424 . S
C297 C302 1.245 . S
C297 C303 1.428 . S
C298 C301 1.260 . S
C298 C302 1.477 . S
C298 H316 0.932 . S
C299 C300 1.384 . S
C299 C301 1.479 . S
C299 H317 0.929 . S
C300 C297 1.424 . S
C300 C299 1.384 . S
C300 H318 0.928 . S
C301 C298 1.260 . S
C301 C299 1.479 . S
C302 C297 1.245 . S
C302 C298 1.477 . S
C302 H319 0.932 . S
C303 U286 2.882 . S
C303 C297 1.428 . S
C303 O306 1.301 . S
C303 O307 1.282 . S
O304 U286 2.441 . S
O304 C290 1.249 . S
O305 U286 2.420 . S
O305 C290 1.202 . S
O306 U286 2.455 . S
O306 C303 1.301 . S
O307 U286 2.449 . S
O307 C303 1.282 . S
H308 C281 0.931 . S
H309 C283 0.929 . S
H310 C284 0.930 . S
H311 C285 0.931 . S
H312 C292 0.932 . S
H313 C293 0.930 . S
H314 C294 0.929 . S
H315 C296 0.930 . S
H316 C298 0.932 . S
H317 C299 0.929 . S
H318 C300 0.928 . S
H319 C302 0.932 . S
C320 C321 1.264 . S
C320 C325 1.479 . S
C320 C330 1.465 . S
C321 C320 1.264 . S
C321 C323 1.339 . S
C321 H348 0.931 . S
C322 C323 1.395 . S
C322 C324 1.320 . S
C323 C321 1.339 . S
C323 C322 1.395 . S
C323 H349 0.929 . S
C324 C322 1.320 . S
C324 C325 1.405 . S
C324 H350 0.930 . S
C325 C320 1.479 . S
C325 C324 1.405 . S
C325 H351 0.931 . S
U326 O327 2.454 . S
U326 O328 2.458 . S
U326 C329 2.984 . S
U326 C330 2.847 . S
U326 C343 2.882 . S
U326 O344 2.441 . S
U326 O345 2.420 . S
U326 O346 2.455 . S
U326 O347 2.449 . S
O327 U326 2.454 . S
O327 C329 1.353 . S
O328 U326 2.458 . S
O328 C329 1.286 . S
C329 U326 2.984 . S
C329 O327 1.353 . S
C329 O328 1.286 . S
C329 C331 1.363 . S
C330 C320 1.465 . S
C330 U326 2.847 . S
C330 O344 1.249 . S
C330 O345 1.202 . S
C331 C329 1.363 . S
C331 C333 1.408 . S
C331 C336 1.342 . S
C332 C333 1.310 . S
C332 C335 1.461 . S
C332 H352 0.932 . S
C333 C331 1.408 . S
C333 C332 1.310 . S
C333 H353 0.930 . S
C334 C335 1.474 . S
C334 C336 1.285 . S
C334 H354 0.929 . S
C335 C332 1.461 . S
C335 C334 1.474 . S
C336 C331 1.342 . S
C336 C334 1.285 . S
C336 H355 0.930 . S
C337 C340 1.424 . S
C337 C342 1.245 . S
C337 C343 1.428 . S
C338 C341 1.260 . S
C338 C342 1.477 . S
C338 H356 0.932 . S
C339 C340 1.384 . S
C339 C341 1.479 . S
C339 H357 0.929 . S
C340 C337 1.424 . S
C340 C339 1.384 . S
C340 H358 0.928 . S
C341 C338 1.260 . S
C341 C339 1.479 . S
C342 C337 1.245 . S
C342 C338 1.477 . S
C342 H359 0.932 . S
C343 U326 2.882 . S
C343 C337 1.428 . S
C343 O346 1.301 . S
C343 O347 1.282 . S
O344 U326 2.441 . S
O344 C330 1.249 . S
O345 U326 2.420 . S
O345 C330 1.202 . S
O346 U326 2.455 . S
O346 C343 1.301 . S
O347 U326 2.449 . S
O347 C343 1.282 . S
H348 C321 0.931 . S
H349 C323 0.929 . S
H350 C324 0.930 . S
H351 C325 0.931 . S
H352 C332 0.932 . S
H353 C333 0.930 . S
H354 C334 0.929 . S
H355 C336 0.930 . S
H356 C338 0.932 . S
H357 C339 0.929 . S
H358 C340 0.928 . S
H359 C342 0.932 . S
C360 C361 1.264 . S
C360 C365 1.479 . S
C360 C370 1.465 . S
C361 C360 1.264 . S
C361 C363 1.339 . S
C361 H388 0.931 . S
C362 C363 1.395 . S
C362 C364 1.320 . S
C363 C361 1.339 . S
C363 C362 1.395 . S
C363 H389 0.929 . S
C364 C362 1.320 . S
C364 C365 1.405 . S
C364 H390 0.930 . S
C365 C360 1.479 . S
C365 C364 1.405 . S
C365 H391 0.931 . S
U366 O367 2.454 . S
U366 O368 2.458 . S
U366 C369 2.984 . S
U366 C370 2.847 . S
U366 C383 2.882 . S
U366 O384 2.441 . S
U366 O385 2.420 . S
U366 O386 2.455 . S
U366 O387 2.449 . S
O367 U366 2.454 . S
O367 C369 1.353 . S
O368 U366 2.458 . S
O368 C369 1.286 . S
C369 U366 2.984 . S
C369 O367 1.353 . S
C369 O368 1.286 . S
C369 C371 1.363 . S
C370 C360 1.465 . S
C370 U366 2.847 . S
C370 O384 1.249 . S
C370 O385 1.202 . S
C371 C369 1.363 . S
C371 C373 1.408 . S
C371 C376 1.342 . S
C372 C373 1.310 . S
C372 C375 1.461 . S
C372 H392 0.932 . S
C373 C371 1.408 . S
C373 C372 1.310 . S
C373 H393 0.930 . S
C374 C375 1.474 . S
C374 C376 1.285 . S
C374 H394 0.929 . S
C375 C372 1.461 . S
C375 C374 1.474 . S
C376 C371 1.342 . S
C376 C374 1.285 . S
C376 H395 0.930 . S
C377 C380 1.424 . S
C377 C382 1.245 . S
C377 C383 1.428 . S
C378 C381 1.260 . S
C378 C382 1.477 . S
C378 H396 0.932 . S
C379 C380 1.384 . S
C379 C381 1.479 . S
C379 H397 0.929 . S
C380 C377 1.424 . S
C380 C379 1.384 . S
C380 H398 0.928 . S
C381 C378 1.260 . S
C381 C379 1.479 . S
C382 C377 1.245 . S
C382 C378 1.477 . S
C382 H399 0.932 . S
C383 U366 2.882 . S
C383 C377 1.428 . S
C383 O386 1.301 . S
C383 O387 1.282 . S
O384 U366 2.441 . S
O384 C370 1.249 . S
O385 U366 2.420 . S
O385 C370 1.202 . S
O386 U366 2.455 . S
O386 C383 1.301 . S
O387 U366 2.449 . S
O387 C383 1.282 . S
H388 C361 0.931 . S
H389 C363 0.929 . S
H390 C364 0.930 . S
H391 C365 0.931 . S
H392 C372 0.932 . S
H393 C373 0.930 . S
H394 C374 0.929 . S
H395 C376 0.930 . S
H396 C378 0.932 . S
H397 C379 0.929 . S
H398 C380 0.928 . S
H399 C382 0.932 . S
C400 C401 1.264 . S
C400 C405 1.479 . S
C400 C410 1.465 . S
C401 C400 1.264 . S
C401 C403 1.339 . S
C401 H428 0.931 . S
C402 C403 1.395 . S
C402 C404 1.320 . S
C403 C401 1.339 . S
C403 C402 1.395 . S
C403 H429 0.929 . S
C404 C402 1.320 . S
C404 C405 1.405 . S
C404 H430 0.930 . S
C405 C400 1.479 . S
C405 C404 1.405 . S
C405 H431 0.931 . S
U406 O407 2.454 . S
U406 O408 2.458 . S
U406 C409 2.984 . S
U406 C410 2.847 . S
U406 C423 2.882 . S
U406 O424 2.441 . S
U406 O425 2.420 . S
U406 O426 2.455 . S
U406 O427 2.449 . S
O407 U406 2.454 . S
O407 C409 1.353 . S
O408 U406 2.458 . S
O408 C409 1.286 . S
C409 U406 2.984 . S
C409 O407 1.353 . S
C409 O408 1.286 . S
C409 C411 1.363 . S
C410 C400 1.465 . S
C410 U406 2.847 . S
C410 O424 1.249 . S
C410 O425 1.202 . S
C411 C409 1.363 . S
C411 C413 1.408 . S
C411 C416 1.342 . S
C412 C413 1.310 . S
C412 C415 1.461 . S
C412 H432 0.932 . S
C413 C411 1.408 . S
C413 C412 1.310 . S
C413 H433 0.930 . S
C414 C415 1.474 . S
C414 C416 1.285 . S
C414 H434 0.929 . S
C415 C412 1.461 . S
C415 C414 1.474 . S
C416 C411 1.342 . S
C416 C414 1.285 . S
C416 H435 0.930 . S
C417 C420 1.424 . S
C417 C422 1.245 . S
C417 C423 1.428 . S
C418 C421 1.260 . S
C418 C422 1.477 . S
C418 H436 0.932 . S
C419 C420 1.384 . S
C419 C421 1.479 . S
C419 H437 0.929 . S
C420 C417 1.424 . S
C420 C419 1.384 . S
C420 H438 0.928 . S
C421 C418 1.260 . S
C421 C419 1.479 . S
C422 C417 1.245 . S
C422 C418 1.477 . S
C422 H439 0.932 . S
C423 U406 2.882 . S
C423 C417 1.428 . S
C423 O426 1.301 . S
C423 O427 1.282 . S
O424 U406 2.441 . S
O424 C410 1.249 . S
O425 U406 2.420 . S
O425 C410 1.202 . S
O426 U406 2.455 . S
O426 C423 1.301 . S
O427 U406 2.449 . S
O427 C423 1.282 . S
H428 C401 0.931 . S
H429 C403 0.929 . S
H430 C404 0.930 . S
H431 C405 0.931 . S
H432 C412 0.932 . S
H433 C413 0.930 . S
H434 C414 0.929 . S
H435 C416 0.930 . S
H436 C418 0.932 . S
H437 C419 0.929 . S
H438 C420 0.928 . S
H439 C422 0.932 . S
C440 C441 1.264 . S
C440 C445 1.479 . S
C440 C450 1.465 . S
C441 C440 1.264 . S
C441 C443 1.339 . S
C441 H468 0.931 . S
C442 C443 1.395 . S
C442 C444 1.320 . S
C443 C441 1.339 . S
C443 C442 1.395 . S
C443 H469 0.929 . S
C444 C442 1.320 . S
C444 C445 1.405 . S
C444 H470 0.930 . S
C445 C440 1.479 . S
C445 C444 1.405 . S
C445 H471 0.931 . S
U446 O447 2.454 . S
U446 O448 2.458 . S
U446 C449 2.984 . S
U446 C450 2.847 . S
U446 C463 2.882 . S
U446 O464 2.441 . S
U446 O465 2.420 . S
U446 O466 2.455 . S
U446 O467 2.449 . S
O447 U446 2.454 . S
O447 C449 1.353 . S
O448 U446 2.458 . S
O448 C449 1.286 . S
C449 U446 2.984 . S
C449 O447 1.353 . S
C449 O448 1.286 . S
C449 C451 1.363 . S
C450 C440 1.465 . S
C450 U446 2.847 . S
C450 O464 1.249 . S
C450 O465 1.202 . S
C451 C449 1.363 . S
C451 C453 1.408 . S
C451 C456 1.342 . S
C452 C453 1.310 . S
C452 C455 1.461 . S
C452 H472 0.932 . S
C453 C451 1.408 . S
C453 C452 1.310 . S
C453 H473 0.930 . S
C454 C455 1.474 . S
C454 C456 1.285 . S
C454 H474 0.929 . S
C455 C452 1.461 . S
C455 C454 1.474 . S
C456 C451 1.342 . S
C456 C454 1.285 . S
C456 H475 0.930 . S
C457 C460 1.424 . S
C457 C462 1.245 . S
C457 C463 1.428 . S
C458 C461 1.260 . S
C458 C462 1.477 . S
C458 H476 0.932 . S
C459 C460 1.384 . S
C459 C461 1.479 . S
C459 H477 0.929 . S
C460 C457 1.424 . S
C460 C459 1.384 . S
C460 H478 0.928 . S
C461 C458 1.260 . S
C461 C459 1.479 . S
C462 C457 1.245 . S
C462 C458 1.477 . S
C462 H479 0.932 . S
C463 U446 2.882 . S
C463 C457 1.428 . S
C463 O466 1.301 . S
C463 O467 1.282 . S
O464 U446 2.441 . S
O464 C450 1.249 . S
O465 U446 2.420 . S
O465 C450 1.202 . S
O466 U446 2.455 . S
O466 C463 1.301 . S
O467 U446 2.449 . S
O467 C463 1.282 . S
H468 C441 0.931 . S
H469 C443 0.929 . S
H470 C444 0.930 . S
H471 C445 0.931 . S
H472 C452 0.932 . S
H473 C453 0.930 . S
H474 C454 0.929 . S
H475 C456 0.930 . S
H476 C458 0.932 . S
H477 C459 0.929 . S
H478 C460 0.928 . S
H479 C462 0.932 . S
C480 C481 1.264 . S
C480 C485 1.479 . S
C480 C490 1.465 . S
C481 C480 1.264 . S
C481 C483 1.339 . S
C481 H508 0.931 . S
C482 C483 1.395 . S
C482 C484 1.320 . S
C483 C481 1.339 . S
C483 C482 1.395 . S
C483 H509 0.929 . S
C484 C482 1.320 . S
C484 C485 1.405 . S
C484 H510 0.930 . S
C485 C480 1.479 . S
C485 C484 1.405 . S
C485 H511 0.931 . S
U486 O487 2.454 . S
U486 O488 2.458 . S
U486 C489 2.984 . S
U486 C490 2.847 . S
U486 C503 2.882 . S
U486 O504 2.441 . S
U486 O505 2.420 . S
U486 O506 2.455 . S
U486 O507 2.449 . S
O487 U486 2.454 . S
O487 C489 1.353 . S
O488 U486 2.458 . S
O488 C489 1.286 . S
C489 U486 2.984 . S
C489 O487 1.353 . S
C489 O488 1.286 . S
C489 C491 1.363 . S
C490 C480 1.465 . S
C490 U486 2.847 . S
C490 O504 1.249 . S
C490 O505 1.202 . S
C491 C489 1.363 . S
C491 C493 1.408 . S
C491 C496 1.342 . S
C492 C493 1.310 . S
C492 C495 1.461 . S
C492 H512 0.932 . S
C493 C491 1.408 . S
C493 C492 1.310 . S
C493 H513 0.930 . S
C494 C495 1.474 . S
C494 C496 1.285 . S
C494 H514 0.929 . S
C495 C492 1.461 . S
C495 C494 1.474 . S
C496 C491 1.342 . S
C496 C494 1.285 . S
C496 H515 0.930 . S
C497 C500 1.424 . S
C497 C502 1.245 . S
C497 C503 1.428 . S
C498 C501 1.260 . S
C498 C502 1.477 . S
C498 H516 0.932 . S
C499 C500 1.384 . S
C499 C501 1.479 . S
C499 H517 0.929 . S
C500 C497 1.424 . S
C500 C499 1.384 . S
C500 H518 0.928 . S
C501 C498 1.260 . S
C501 C499 1.479 . S
C502 C497 1.245 . S
C502 C498 1.477 . S
C502 H519 0.932 . S
C503 U486 2.882 . S
C503 C497 1.428 . S
C503 O506 1.301 . S
C503 O507 1.282 . S
O504 U486 2.441 . S
O504 C490 1.249 . S
O505 U486 2.420 . S
O505 C490 1.202 . S
O506 U486 2.455 . S
O506 C503 1.301 . S
O507 U486 2.449 . S
O507 C503 1.282 . S
H508 C481 0.931 . S
H509 C483 0.929 . S
H510 C484 0.930 . S
H511 C485 0.931 . S
H512 C492 0.932 . S
H513 C493 0.930 . S
H514 C494 0.929 . S
H515 C496 0.930 . S
H516 C498 0.932 . S
H517 C499 0.929 . S
H518 C500 0.928 . S
H519 C502 0.932 . S
C520 C521 1.264 . S
C520 C525 1.479 . S
C520 C530 1.465 . S
C521 C520 1.264 . S
C521 C523 1.339 . S
C521 H548 0.931 . S
C522 C523 1.395 . S
C522 C524 1.320 . S
C523 C521 1.339 . S
C523 C522 1.395 . S
C523 H549 0.929 . S
C524 C522 1.320 . S
C524 C525 1.405 . S
C524 H550 0.930 . S
C525 C520 1.479 . S
C525 C524 1.405 . S
C525 H551 0.931 . S
U526 O527 2.454 . S
U526 O528 2.458 . S
U526 C529 2.984 . S
U526 C530 2.847 . S
U526 C543 2.882 . S
U526 O544 2.441 . S
U526 O545 2.420 . S
U526 O546 2.455 . S
U526 O547 2.449 . S
O527 U526 2.454 . S
O527 C529 1.353 . S
O528 U526 2.458 . S
O528 C529 1.286 . S
C529 U526 2.984 . S
C529 O527 1.353 . S
C529 O528 1.286 . S
C529 C531 1.363 . S
C530 C520 1.465 . S
C530 U526 2.847 . S
C530 O544 1.249 . S
C530 O545 1.202 . S
C531 C529 1.363 . S
C531 C533 1.408 . S
C531 C536 1.342 . S
C532 C533 1.310 . S
C532 C535 1.461 . S
C532 H552 0.932 . S
C533 C531 1.408 . S
C533 C532 1.310 . S
C533 H553 0.930 . S
C534 C535 1.474 . S
C534 C536 1.285 . S
C534 H554 0.929 . S
C535 C532 1.461 . S
C535 C534 1.474 . S
C536 C531 1.342 . S
C536 C534 1.285 . S
C536 H555 0.930 . S
C537 C540 1.424 . S
C537 C542 1.245 . S
C537 C543 1.428 . S
C538 C541 1.260 . S
C538 C542 1.477 . S
C538 H556 0.932 . S
C539 C540 1.384 . S
C539 C541 1.479 . S
C539 H557 0.929 . S
C540 C537 1.424 . S
C540 C539 1.384 . S
C540 H558 0.928 . S
C541 C538 1.260 . S
C541 C539 1.479 . S
C542 C537 1.245 . S
C542 C538 1.477 . S
C542 H559 0.932 . S
C543 U526 2.882 . S
C543 C537 1.428 . S
C543 O546 1.301 . S
C543 O547 1.282 . S
O544 U526 2.441 . S
O544 C530 1.249 . S
O545 U526 2.420 . S
O545 C530 1.202 . S
O546 U526 2.455 . S
O546 C543 1.301 . S
O547 U526 2.449 . S
O547 C543 1.282 . S
H548 C521 0.931 . S
H549 C523 0.929 . S
H550 C524 0.930 . S
H551 C525 0.931 . S
H552 C532 0.932 . S
H553 C533 0.930 . S
H554 C534 0.929 . S
H555 C536 0.930 . S
H556 C538 0.932 . S
H557 C539 0.929 . S
H558 C540 0.928 . S
H559 C542 0.932 . S
C560 C561 1.264 . S
C560 C565 1.479 . S
C560 C570 1.465 . S
C561 C560 1.264 . S
C561 C563 1.339 . S
C561 H588 0.931 . S
C562 C563 1.395 . S
C562 C564 1.320 . S
C563 C561 1.339 . S
C563 C562 1.395 . S
C563 H589 0.929 . S
C564 C562 1.320 . S
C564 C565 1.405 . S
C564 H590 0.930 . S
C565 C560 1.479 . S
C565 C564 1.405 . S
C565 H591 0.931 . S
U566 O567 2.454 . S
U566 O568 2.458 . S
U566 C569 2.984 . S
U566 C570 2.847 . S
U566 C583 2.882 . S
U566 O584 2.441 . S
U566 O585 2.420 . S
U566 O586 2.455 . S
U566 O587 2.449 . S
O567 U566 2.454 . S
O567 C569 1.353 . S
O568 U566 2.458 . S
O568 C569 1.286 . S
C569 U566 2.984 . S
C569 O567 1.353 . S
C569 O568 1.286 . S
C569 C571 1.363 . S
C570 C560 1.465 . S
C570 U566 2.847 . S
C570 O584 1.249 . S
C570 O585 1.202 . S
C571 C569 1.363 . S
C571 C573 1.408 . S
C571 C576 1.342 . S
C572 C573 1.310 . S
C572 C575 1.461 . S
C572 H592 0.932 . S
C573 C571 1.408 . S
C573 C572 1.310 . S
C573 H593 0.930 . S
C574 C575 1.474 . S
C574 C576 1.285 . S
C574 H594 0.929 . S
C575 C572 1.461 . S
C575 C574 1.474 . S
C576 C571 1.342 . S
C576 C574 1.285 . S
C576 H595 0.930 . S
C577 C580 1.424 . S
C577 C582 1.245 . S
C577 C583 1.428 . S
C578 C581 1.260 . S
C578 C582 1.477 . S
C578 H596 0.932 . S
C579 C580 1.384 . S
C579 C581 1.479 . S
C579 H597 0.929 . S
C580 C577 1.424 . S
C580 C579 1.384 . S
C580 H598 0.928 . S
C581 C578 1.260 . S
C581 C579 1.479 . S
C582 C577 1.245 . S
C582 C578 1.477 . S
C582 H599 0.932 . S
C583 U566 2.882 . S
C583 C577 1.428 . S
C583 O586 1.301 . S
C583 O587 1.282 . S
O584 U566 2.441 . S
O584 C570 1.249 . S
O585 U566 2.420 . S
O585 C570 1.202 . S
O586 U566 2.455 . S
O586 C583 1.301 . S
O587 U566 2.449 . S
O587 C583 1.282 . S
H588 C561 0.931 . S
H589 C563 0.929 . S
H590 C564 0.930 . S
H591 C565 0.931 . S
H592 C572 0.932 . S
H593 C573 0.930 . S
H594 C574 0.929 . S
H595 C576 0.930 . S
H596 C578 0.932 . S
H597 C579 0.929 . S
H598 C580 0.928 . S
H599 C582 0.932 . S
C600 C601 1.264 . S
C600 C605 1.479 . S
C600 C610 1.465 . S
C601 C600 1.264 . S
C601 C603 1.339 . S
C601 H628 0.931 . S
C602 C603 1.395 . S
C602 C604 1.320 . S
C603 C601 1.339 . S
C603 C602 1.395 . S
C603 H629 0.929 . S
C604 C602 1.320 . S
C604 C605 1.405 . S
C604 H630 0.930 . S
C605 C600 1.479 . S
C605 C604 1.405 . S
C605 H631 0.931 . S
U606 O607 2.454 . S
U606 O608 2.458 . S
U606 C609 2.984 . S
U606 C610 2.847 . S
U606 C623 2.882 . S
U606 O624 2.441 . S
U606 O625 2.420 . S
U606 O626 2.455 . S
U606 O627 2.449 . S
O607 U606 2.454 . S
O607 C609 1.353 . S
O608 U606 2.458 . S
O608 C609 1.286 . S
C609 U606 2.984 . S
C609 O607 1.353 . S
C609 O608 1.286 . S
C609 C611 1.363 . S
C610 C600 1.465 . S
C610 U606 2.847 . S
C610 O624 1.249 . S
C610 O625 1.202 . S
C611 C609 1.363 . S
C611 C613 1.408 . S
C611 C616 1.342 . S
C612 C613 1.310 . S
C612 C615 1.461 . S
C612 H632 0.932 . S
C613 C611 1.408 . S
C613 C612 1.310 . S
C613 H633 0.930 . S
C614 C615 1.474 . S
C614 C616 1.285 . S
C614 H634 0.929 . S
C615 C612 1.461 . S
C615 C614 1.474 . S
C616 C611 1.342 . S
C616 C614 1.285 . S
C616 H635 0.930 . S
C617 C620 1.424 . S
C617 C622 1.245 . S
C617 C623 1.428 . S
C618 C621 1.260 . S
C618 C622 1.477 . S
C618 H636 0.932 . S
C619 C620 1.384 . S
C619 C621 1.479 . S
C619 H637 0.929 . S
C620 C617 1.424 . S
C620 C619 1.384 . S
C620 H638 0.928 . S
C621 C618 1.260 . S
C621 C619 1.479 . S
C622 C617 1.245 . S
C622 C618 1.477 . S
C622 H639 0.932 . S
C623 U606 2.882 . S
C623 C617 1.428 . S
C623 O626 1.301 . S
C623 O627 1.282 . S
O624 U606 2.441 . S
O624 C610 1.249 . S
O625 U606 2.420 . S
O625 C610 1.202 . S
O626 U606 2.455 . S
O626 C623 1.301 . S
O627 U606 2.449 . S
O627 C623 1.282 . S
H628 C601 0.931 . S
H629 C603 0.929 . S
H630 C604 0.930 . S
H631 C605 0.931 . S
H632 C612 0.932 . S
H633 C613 0.930 . S
H634 C614 0.929 . S
H635 C616 0.930 . S
H636 C618 0.932 . S
H637 C619 0.929 . S
H638 C620 0.928 . S
H639 C622 0.932 . S
C640 C641 1.264 . S
C640 C645 1.479 . S
C640 C650 1.465 . S
C641 C640 1.264 . S
C641 C643 1.339 . S
C641 H668 0.931 . S
C642 C643 1.395 . S
C642 C644 1.320 . S
C643 C641 1.339 . S
C643 C642 1.395 . S
C643 H669 0.929 . S
C644 C642 1.320 . S
C644 C645 1.405 . S
C644 H670 0.930 . S
C645 C640 1.479 . S
C645 C644 1.405 . S
C645 H671 0.931 . S
U646 O647 2.454 . S
U646 O648 2.458 . S
U646 C649 2.984 . S
U646 C650 2.847 . S
U646 C663 2.882 . S
U646 O664 2.441 . S
U646 O665 2.420 . S
U646 O666 2.455 . S
U646 O667 2.449 . S
O647 U646 2.454 . S
O647 C649 1.353 . S
O648 U646 2.458 . S
O648 C649 1.286 . S
C649 U646 2.984 . S
C649 O647 1.353 . S
C649 O648 1.286 . S
C649 C651 1.363 . S
C650 C640 1.465 . S
C650 U646 2.847 . S
C650 O664 1.249 . S
C650 O665 1.202 . S
C651 C649 1.363 . S
C651 C653 1.408 . S
C651 C656 1.342 . S
C652 C653 1.310 . S
C652 C655 1.461 . S
C652 H672 0.932 . S
C653 C651 1.408 . S
C653 C652 1.310 . S
C653 H673 0.930 . S
C654 C655 1.474 . S
C654 C656 1.285 . S
C654 H674 0.929 . S
C655 C652 1.461 . S
C655 C654 1.474 . S
C656 C651 1.342 . S
C656 C654 1.285 . S
C656 H675 0.930 . S
C657 C660 1.424 . S
C657 C662 1.245 . S
C657 C663 1.428 . S
C658 C661 1.260 . S
C658 C662 1.477 . S
C658 H676 0.932 . S
C659 C660 1.384 . S
C659 C661 1.479 . S
C659 H677 0.929 . S
C660 C657 1.424 . S
C660 C659 1.384 . S
C660 H678 0.928 . S
C661 C658 1.260 . S
C661 C659 1.479 . S
C662 C657 1.245 . S
C662 C658 1.477 . S
C662 H679 0.932 . S
C663 U646 2.882 . S
C663 C657 1.428 . S
C663 O666 1.301 . S
C663 O667 1.282 . S
O664 U646 2.441 . S
O664 C650 1.249 . S
O665 U646 2.420 . S
O665 C650 1.202 . S
O666 U646 2.455 . S
O666 C663 1.301 . S
O667 U646 2.449 . S
O667 C663 1.282 . S
H668 C641 0.931 . S
H669 C643 0.929 . S
H670 C644 0.930 . S
H671 C645 0.931 . S
H672 C652 0.932 . S
H673 C653 0.930 . S
H674 C654 0.929 . S
H675 C656 0.930 . S
H676 C658 0.932 . S
H677 C659 0.929 . S
H678 C660 0.928 . S
H679 C662 0.932 . S
C680 C681 1.264 . S
C680 C685 1.479 . S
C680 C690 1.465 . S
C681 C680 1.264 . S
C681 C683 1.339 . S
C681 H708 0.931 . S
C682 C683 1.395 . S
C682 C684 1.320 . S
C683 C681 1.339 . S
C683 C682 1.395 . S
C683 H709 0.929 . S
C684 C682 1.320 . S
C684 C685 1.405 . S
C684 H710 0.930 . S
C685 C680 1.479 . S
C685 C684 1.405 . S
C685 H711 0.931 . S
U686 O687 2.454 . S
U686 O688 2.458 . S
U686 C689 2.984 . S
U686 C690 2.847 . S
U686 C703 2.882 . S
U686 O704 2.441 . S
U686 O705 2.420 . S
U686 O706 2.455 . S
U686 O707 2.449 . S
O687 U686 2.454 . S
O687 C689 1.353 . S
O688 U686 2.458 . S
O688 C689 1.286 . S
C689 U686 2.984 . S
C689 O687 1.353 . S
C689 O688 1.286 . S
C689 C691 1.363 . S
C690 C680 1.465 . S
C690 U686 2.847 . S
C690 O704 1.249 . S
C690 O705 1.202 . S
C691 C689 1.363 . S
C691 C693 1.408 . S
C691 C696 1.342 . S
C692 C693 1.310 . S
C692 C695 1.461 . S
C692 H712 0.932 . S
C693 C691 1.408 . S
C693 C692 1.310 . S
C693 H713 0.930 . S
C694 C695 1.474 . S
C694 C696 1.285 . S
C694 H714 0.929 . S
C695 C692 1.461 . S
C695 C694 1.474 . S
C696 C691 1.342 . S
C696 C694 1.285 . S
C696 H715 0.930 . S
C697 C700 1.424 . S
C697 C702 1.245 . S
C697 C703 1.428 . S
C698 C701 1.260 . S
C698 C702 1.477 . S
C698 H716 0.932 . S
C699 C700 1.384 . S
C699 C701 1.479 . S
C699 H717 0.929 . S
C700 C697 1.424 . S
C700 C699 1.384 . S
C700 H718 0.928 . S
C701 C698 1.260 . S
C701 C699 1.479 . S
C702 C697 1.245 . S
C702 C698 1.477 . S
C702 H719 0.932 . S
C703 U686 2.882 . S
C703 C697 1.428 . S
C703 O706 1.301 . S
C703 O707 1.282 . S
O704 U686 2.441 . S
O704 C690 1.249 . S
O705 U686 2.420 . S
O705 C690 1.202 . S
O706 U686 2.455 . S
O706 C703 1.301 . S
O707 U686 2.449 . S
O707 C703 1.282 . S
H708 C681 0.931 . S
H709 C683 0.929 . S
H710 C684 0.930 . S
H711 C685 0.931 . S
H712 C692 0.932 . S
H713 C693 0.930 . S
H714 C694 0.929 . S
H715 C696 0.930 . S
H716 C698 0.932 . S
H717 C699 0.929 . S
H718 C700 0.928 . S
H719 C702 0.932 . S
C720 C721 1.264 . S
C720 C725 1.479 . S
C720 C730 1.465 . S
C721 C720 1.264 . S
C721 C723 1.339 . S
C721 H748 0.931 . S
C722 C723 1.395 . S
C722 C724 1.320 . S
C723 C721 1.339 . S
C723 C722 1.395 . S
C723 H749 0.929 . S
C724 C722 1.320 . S
C724 C725 1.405 . S
C724 H750 0.930 . S
C725 C720 1.479 . S
C725 C724 1.405 . S
C725 H751 0.931 . S
U726 O727 2.454 . S
U726 O728 2.458 . S
U726 C729 2.984 . S
U726 C730 2.847 . S
U726 C743 2.882 . S
U726 O744 2.441 . S
U726 O745 2.420 . S
U726 O746 2.455 . S
U726 O747 2.449 . S
O727 U726 2.454 . S
O727 C729 1.353 . S
O728 U726 2.458 . S
O728 C729 1.286 . S
C729 U726 2.984 . S
C729 O727 1.353 . S
C729 O728 1.286 . S
C729 C731 1.363 . S
C730 C720 1.465 . S
C730 U726 2.847 . S
C730 O744 1.249 . S
C730 O745 1.202 . S
C731 C729 1.363 . S
C731 C733 1.408 . S
C731 C736 1.342 . S
C732 C733 1.310 . S
C732 C735 1.461 . S
C732 H752 0.932 . S
C733 C731 1.408 . S
C733 C732 1.310 . S
C733 H753 0.930 . S
C734 C735 1.474 . S
C734 C736 1.285 . S
C734 H754 0.929 . S
C735 C732 1.461 . S
C735 C734 1.474 . S
C736 C731 1.342 . S
C736 C734 1.285 . S
C736 H755 0.930 . S
C737 C740 1.424 . S
C737 C742 1.245 . S
C737 C743 1.428 . S
C738 C741 1.260 . S
C738 C742 1.477 . S
C738 H756 0.932 . S
C739 C740 1.384 . S
C739 C741 1.479 . S
C739 H757 0.929 . S
C740 C737 1.424 . S
C740 C739 1.384 . S
C740 H758 0.928 . S
C741 C738 1.260 . S
C741 C739 1.479 . S
C742 C737 1.245 . S
C742 C738 1.477 . S
C742 H759 0.932 . S
C743 U726 2.882 . S
C743 C737 1.428 . S
C743 O746 1.301 . S
C743 O747 1.282 . S
O744 U726 2.441 . S
O744 C730 1.249 . S
O745 U726 2.420 . S
O745 C730 1.202 . S
O746 U726 2.455 . S
O746 C743 1.301 . S
O747 U726 2.449 . S
O747 C743 1.282 . S
H748 C721 0.931 . S
H749 C723 0.929 . S
H750 C724 0.930 . S
H751 C725 0.931 . S
H752 C732 0.932 . S
H753 C733 0.930 . S
H754 C734 0.929 . S
H755 C736 0.930 . S
H756 C738 0.932 . S
H757 C739 0.929 . S
H758 C740 0.928 . S
H759 C742 0.932 . S
C760 C761 1.264 . S
C760 C765 1.479 . S
C760 C770 1.465 . S
C761 C760 1.264 . S
C761 C763 1.339 . S
C761 H788 0.931 . S
C762 C763 1.395 . S
C762 C764 1.320 . S
C763 C761 1.339 . S
C763 C762 1.395 . S
C763 H789 0.929 . S
C764 C762 1.320 . S
C764 C765 1.405 . S
C764 H790 0.930 . S
C765 C760 1.479 . S
C765 C764 1.405 . S
C765 H791 0.931 . S
U766 O767 2.454 . S
U766 O768 2.458 . S
U766 C769 2.984 . S
U766 C770 2.847 . S
U766 C783 2.882 . S
U766 O784 2.441 . S
U766 O785 2.420 . S
U766 O786 2.455 . S
U766 O787 2.449 . S
O767 U766 2.454 . S
O767 C769 1.353 . S
O768 U766 2.458 . S
O768 C769 1.286 . S
C769 U766 2.984 . S
C769 O767 1.353 . S
C769 O768 1.286 . S
C769 C771 1.363 . S
C770 C760 1.465 . S
C770 U766 2.847 . S
C770 O784 1.249 . S
C770 O785 1.202 . S
C771 C769 1.363 . S
C771 C773 1.408 . S
C771 C776 1.342 . S
C772 C773 1.310 . S
C772 C775 1.461 . S
C772 H792 0.932 . S
C773 C771 1.408 . S
C773 C772 1.310 . S
C773 H793 0.930 . S
C774 C775 1.474 . S
C774 C776 1.285 . S
C774 H794 0.929 . S
C775 C772 1.461 . S
C775 C774 1.474 . S
C776 C771 1.342 . S
C776 C774 1.285 . S
C776 H795 0.930 . S
C777 C780 1.424 . S
C777 C782 1.245 . S
C777 C783 1.428 . S
C778 C781 1.260 . S
C778 C782 1.477 . S
C778 H796 0.932 . S
C779 C780 1.384 . S
C779 C781 1.479 . S
C779 H797 0.929 . S
C780 C777 1.424 . S
C780 C779 1.384 . S
C780 H798 0.928 . S
C781 C778 1.260 . S
C781 C779 1.479 . S
C782 C777 1.245 . S
C782 C778 1.477 . S
C782 H799 0.932 . S
C783 U766 2.882 . S
C783 C777 1.428 . S
C783 O786 1.301 . S
C783 O787 1.282 . S
O784 U766 2.441 . S
O784 C770 1.249 . S
O785 U766 2.420 . S
O785 C770 1.202 . S
O786 U766 2.455 . S
O786 C783 1.301 . S
O787 U766 2.449 . S
O787 C783 1.282 . S
H788 C761 0.931 . S
H789 C763 0.929 . S
H790 C764 0.930 . S
H791 C765 0.931 . S
H792 C772 0.932 . S
H793 C773 0.930 . S
H794 C774 0.929 . S
H795 C776 0.930 . S
H796 C778 0.932 . S
H797 C779 0.929 . S
H798 C780 0.928 . S
H799 C782 0.932 . S
C800 C801 1.264 . S
C800 C805 1.479 . S
C800 C810 1.465 . S
C801 C800 1.264 . S
C801 C803 1.339 . S
C801 H828 0.931 . S
C802 C803 1.395 . S
C802 C804 1.320 . S
C803 C801 1.339 . S
C803 C802 1.395 . S
C803 H829 0.929 . S
C804 C802 1.320 . S
C804 C805 1.405 . S
C804 H830 0.930 . S
C805 C800 1.479 . S
C805 C804 1.405 . S
C805 H831 0.931 . S
U806 O807 2.454 . S
U806 O808 2.458 . S
U806 C809 2.984 . S
U806 C810 2.847 . S
U806 C823 2.882 . S
U806 O824 2.441 . S
U806 O825 2.420 . S
U806 O826 2.455 . S
U806 O827 2.449 . S
O807 U806 2.454 . S
O807 C809 1.353 . S
O808 U806 2.458 . S
O808 C809 1.286 . S
C809 U806 2.984 . S
C809 O807 1.353 . S
C809 O808 1.286 . S
C809 C811 1.363 . S
C810 C800 1.465 . S
C810 U806 2.847 . S
C810 O824 1.249 . S
C810 O825 1.202 . S
C811 C809 1.363 . S
C811 C813 1.408 . S
C811 C816 1.342 . S
C812 C813 1.310 . S
C812 C815 1.461 . S
C812 H832 0.932 . S
C813 C811 1.408 . S
C813 C812 1.310 . S
C813 H833 0.930 . S
C814 C815 1.474 . S
C814 C816 1.285 . S
C814 H834 0.929 . S
C815 C812 1.461 . S
C815 C814 1.474 . S
C816 C811 1.342 . S
C816 C814 1.285 . S
C816 H835 0.930 . S
C817 C820 1.424 . S
C817 C822 1.245 . S
C817 C823 1.428 . S
C818 C821 1.260 . S
C818 C822 1.477 . S
C818 H836 0.932 . S
C819 C820 1.384 . S
C819 C821 1.479 . S
C819 H837 0.929 . S
C820 C817 1.424 . S
C820 C819 1.384 . S
C820 H838 0.928 . S
C821 C818 1.260 . S
C821 C819 1.479 . S
C822 C817 1.245 . S
C822 C818 1.477 . S
C822 H839 0.932 . S
C823 U806 2.882 . S
C823 C817 1.428 . S
C823 O826 1.301 . S
C823 O827 1.282 . S
O824 U806 2.441 . S
O824 C810 1.249 . S
O825 U806 2.420 . S
O825 C810 1.202 . S
O826 U806 2.455 . S
O826 C823 1.301 . S
O827 U806 2.449 . S
O827 C823 1.282 . S
H828 C801 0.931 . S
H829 C803 0.929 . S
H830 C804 0.930 . S
H831 C805 0.931 . S
H832 C812 0.932 . S
H833 C813 0.930 . S
H834 C814 0.929 . S
H835 C816 0.930 . S
H836 C818 0.932 . S
H837 C819 0.929 . S
H838 C820 0.928 . S
H839 C822 0.932 . S
C840 C841 1.264 . S
C840 C845 1.479 . S
C840 C850 1.465 . S
C841 C840 1.264 . S
C841 C843 1.339 . S
C841 H868 0.931 . S
C842 C843 1.395 . S
C842 C844 1.320 . S
C843 C841 1.339 . S
C843 C842 1.395 . S
C843 H869 0.929 . S
C844 C842 1.320 . S
C844 C845 1.405 . S
C844 H870 0.930 . S
C845 C840 1.479 . S
C845 C844 1.405 . S
C845 H871 0.931 . S
U846 O847 2.454 . S
U846 O848 2.458 . S
U846 C849 2.984 . S
U846 C850 2.847 . S
U846 C863 2.882 . S
U846 O864 2.441 . S
U846 O865 2.420 . S
U846 O866 2.455 . S
U846 O867 2.449 . S
O847 U846 2.454 . S
O847 C849 1.353 . S
O848 U846 2.458 . S
O848 C849 1.286 . S
C849 U846 2.984 . S
C849 O847 1.353 . S
C849 O848 1.286 . S
C849 C851 1.363 . S
C850 C840 1.465 . S
C850 U846 2.847 . S
C850 O864 1.249 . S
C850 O865 1.202 . S
C851 C849 1.363 . S
C851 C853 1.408 . S
C851 C856 1.342 . S
C852 C853 1.310 . S
C852 C855 1.461 . S
C852 H872 0.932 . S
C853 C851 1.408 . S
C853 C852 1.310 . S
C853 H873 0.930 . S
C854 C855 1.474 . S
C854 C856 1.285 . S
C854 H874 0.929 . S
C855 C852 1.461 . S
C855 C854 1.474 . S
C856 C851 1.342 . S
C856 C854 1.285 . S
C856 H875 0.930 . S
C857 C860 1.424 . S
C857 C862 1.245 . S
C857 C863 1.428 . S
C858 C861 1.260 . S
C858 C862 1.477 . S
C858 H876 0.932 . S
C859 C860 1.384 . S
C859 C861 1.479 . S
C859 H877 0.929 . S
C860 C857 1.424 . S
C860 C859 1.384 . S
C860 H878 0.928 . S
C861 C858 1.260 . S
C861 C859 1.479 . S
C862 C857 1.245 . S
C862 C858 1.477 . S
C862 H879 0.932 . S
C863 U846 2.882 . S
C863 C857 1.428 . S
C863 O866 1.301 . S
C863 O867 1.282 . S
O864 U846 2.441 . S
O864 C850 1.249 . S
O865 U846 2.420 . S
O865 C850 1.202 . S
O866 U846 2.455 . S
O866 C863 1.301 . S
O867 U846 2.449 . S
O867 C863 1.282 . S
H868 C841 0.931 . S
H869 C843 0.929 . S
H870 C844 0.930 . S
H871 C845 0.931 . S
H872 C852 0.932 . S
H873 C853 0.930 . S
H874 C854 0.929 . S
H875 C856 0.930 . S
H876 C858 0.932 . S
H877 C859 0.929 . S
H878 C860 0.928 . S
H879 C862 0.932 . S
C880 C881 1.264 . S
C880 C885 1.479 . S
C880 C890 1.465 . S
C881 C880 1.264 . S
C881 C883 1.339 . S
C881 H908 0.931 . S
C882 C883 1.395 . S
C882 C884 1.320 . S
C883 C881 1.339 . S
C883 C882 1.395 . S
C883 H909 0.929 . S
C884 C882 1.320 . S
C884 C885 1.405 . S
C884 H910 0.930 . S
C885 C880 1.479 . S
C885 C884 1.405 . S
C885 H911 0.931 . S
U886 O887 2.454 . S
U886 O888 2.458 . S
U886 C889 2.984 . S
U886 C890 2.847 . S
U886 C903 2.882 . S
U886 O904 2.441 . S
U886 O905 2.420 . S
U886 O906 2.455 . S
U886 O907 2.449 . S
O887 U886 2.454 . S
O887 C889 1.353 . S
O888 U886 2.458 . S
O888 C889 1.286 . S
C889 U886 2.984 . S
C889 O887 1.353 . S
C889 O888 1.286 . S
C889 C891 1.363 . S
C890 C880 1.465 . S
C890 U886 2.847 . S
C890 O904 1.249 . S
C890 O905 1.202 . S
C891 C889 1.363 . S
C891 C893 1.408 . S
C891 C896 1.342 . S
C892 C893 1.310 . S
C892 C895 1.461 . S
C892 H912 0.932 . S
C893 C891 1.408 . S
C893 C892 1.310 . S
C893 H913 0.930 . S
C894 C895 1.474 . S
C894 C896 1.285 . S
C894 H914 0.929 . S
C895 C892 1.461 . S
C895 C894 1.474 . S
C896 C891 1.342 . S
C896 C894 1.285 . S
C896 H915 0.930 . S
C897 C900 1.424 . S
C897 C902 1.245 . S
C897 C903 1.428 . S
C898 C901 1.260 . S
C898 C902 1.477 . S
C898 H916 0.932 . S
C899 C900 1.384 . S
C899 C901 1.479 . S
C899 H917 0.929 . S
C900 C897 1.424 . S
C900 C899 1.384 . S
C900 H918 0.928 . S
C901 C898 1.260 . S
C901 C899 1.479 . S
C902 C897 1.245 . S
C902 C898 1.477 . S
C902 H919 0.932 . S
C903 U886 2.882 . S
C903 C897 1.428 . S
C903 O906 1.301 . S
C903 O907 1.282 . S
O904 U886 2.441 . S
O904 C890 1.249 . S
O905 U886 2.420 . S
O905 C890 1.202 . S
O906 U886 2.455 . S
O906 C903 1.301 . S
O907 U886 2.449 . S
O907 C903 1.282 . S
H908 C881 0.931 . S
H909 C883 0.929 . S
H910 C884 0.930 . S
H911 C885 0.931 . S
H912 C892 0.932 . S
H913 C893 0.930 . S
H914 C894 0.929 . S
H915 C896 0.930 . S
H916 C898 0.932 . S
H917 C899 0.929 . S
H918 C900 0.928 . S
H919 C902 0.932 . S
C920 C921 1.264 . S
C920 C925 1.479 . S
C920 C930 1.465 . S
C921 C920 1.264 . S
C921 C923 1.339 . S
C921 H948 0.931 . S
C922 C923 1.395 . S
C922 C924 1.320 . S
C923 C921 1.339 . S
C923 C922 1.395 . S
C923 H949 0.929 . S
C924 C922 1.320 . S
C924 C925 1.405 . S
C924 H950 0.930 . S
C925 C920 1.479 . S
C925 C924 1.405 . S
C925 H951 0.931 . S
U926 O927 2.454 . S
U926 O928 2.458 . S
U926 C929 2.984 . S
U926 C930 2.847 . S
U926 C943 2.882 . S
U926 O944 2.441 . S
U926 O945 2.420 . S
U926 O946 2.455 . S
U926 O947 2.449 . S
O927 U926 2.454 . S
O927 C929 1.353 . S
O928 U926 2.458 . S
O928 C929 1.286 . S
C929 U926 2.984 . S
C929 O927 1.353 . S
C929 O928 1.286 . S
C929 C931 1.363 . S
C930 C920 1.465 . S
C930 U926 2.847 . S
C930 O944 1.249 . S
C930 O945 1.202 . S
C931 C929 1.363 . S
C931 C933 1.408 . S
C931 C936 1.342 . S
C932 C933 1.310 . S
C932 C935 1.461 . S
C932 H952 0.932 . S
C933 C931 1.408 . S
C933 C932 1.310 . S
C933 H953 0.930 . S
C934 C935 1.474 . S
C934 C936 1.285 . S
C934 H954 0.929 . S
C935 C932 1.461 . S
C935 C934 1.474 . S
C936 C931 1.342 . S
C936 C934 1.285 . S
C936 H955 0.930 . S
C937 C940 1.424 . S
C937 C942 1.245 . S
C937 C943 1.428 . S
C938 C941 1.260 . S
C938 C942 1.477 . S
C938 H956 0.932 . S
C939 C940 1.384 . S
C939 C941 1.479 . S
C939 H957 0.929 . S
C940 C937 1.424 . S
C940 C939 1.384 . S
C940 H958 0.928 . S
C941 C938 1.260 . S
C941 C939 1.479 . S
C942 C937 1.245 . S
C942 C938 1.477 . S
C942 H959 0.932 . S
C943 U926 2.882 . S
C943 C937 1.428 . S
C943 O946 1.301 . S
C943 O947 1.282 . S
O944 U926 2.441 . S
O944 C930 1.249 . S
O945 U926 2.420 . S
O945 C930 1.202 . S
O946 U926 2.455 . S
O946 C943 1.301 . S
O947 U926 2.449 . S
O947 C943 1.282 . S
H948 C921 0.931 . S
H949 C923 0.929 . S
H950 C924 0.930 . S
H951 C925 0.931 . S
H952 C932 0.932 . S
H953 C933 0.930 . S
H954 C934 0.929 . S
H955 C936 0.930 . S
H956 C938 0.932 . S
H957 C939 0.929 . S
H958 C940 0.928 . S
H959 C942 0.932 . S
C960 C961 1.264 . S
C960 C965 1.479 . S
C960 C970 1.465 . S
C961 C960 1.264 . S
C961 C963 1.339 . S
C961 H988 0.931 . S
C962 C963 1.395 . S
C962 C964 1.320 . S
C963 C961 1.339 . S
C963 C962 1.395 . S
C963 H989 0.929 . S
C964 C962 1.320 . S
C964 C965 1.405 . S
C964 H990 0.930 . S
C965 C960 1.479 . S
C965 C964 1.405 . S
C965 H991 0.931 . S
U966 O967 2.454 . S
U966 O968 2.458 . S
U966 C969 2.984 . S
U966 C970 2.847 . S
U966 C983 2.882 . S
U966 O984 2.441 . S
U966 O985 2.420 . S
U966 O986 2.455 . S
U966 O987 2.449 . S
O967 U966 2.454 . S
O967 C969 1.353 . S
O968 U966 2.458 . S
O968 C969 1.286 . S
C969 U966 2.984 . S
C969 O967 1.353 . S
C969 O968 1.286 . S
C969 C971 1.363 . S
C970 C960 1.465 . S
C970 U966 2.847 . S
C970 O984 1.249 . S
C970 O985 1.202 . S
C971 C969 1.363 . S
C971 C973 1.408 . S
C971 C976 1.342 . S
C972 C973 1.310 . S
C972 C975 1.461 . S
C972 H992 0.932 . S
C973 C971 1.408 . S
C973 C972 1.310 . S
C973 H993 0.930 . S
C974 C975 1.474 . S
C974 C976 1.285 . S
C974 H994 0.929 . S
C975 C972 1.461 . S
C975 C974 1.474 . S
C976 C971 1.342 . S
C976 C974 1.285 . S
C976 H995 0.930 . S
C977 C980 1.424 . S
C977 C982 1.245 . S
C977 C983 1.428 . S
C978 C981 1.260 . S
C978 C982 1.477 . S
C978 H996 0.932 . S
C979 C980 1.384 . S
C979 C981 1.479 . S
C979 H997 0.929 . S
C980 C977 1.424 . S
C980 C979 1.384 . S
C980 H998 0.928 . S
C981 C978 1.260 . S
C981 C979 1.479 . S
C982 C977 1.245 . S
C982 C978 1.477 . S
C982 H999 0.932 . S
C983 U966 2.882 . S
C983 C977 1.428 . S
C983 O986 1.301 . S
C983 O987 1.282 . S
O984 U966 2.441 . S
O984 C970 1.249 . S
O985 U966 2.420 . S
O985 C970 1.202 . S
O986 U966 2.455 . S
O986 C983 1.301 . S
O987 U966 2.449 . S
O987 C983 1.282 . S
H988 C961 0.931 . S
H989 C963 0.929 . S
H990 C964 0.930 . S
H991 C965 0.931 . S
H992 C972 0.932 . S
H993 C973 0.930 . S
H994 C974 0.929 . S
H995 C976 0.930 . S
H996 C978 0.932 . S
H997 C979 0.929 . S
H998 C980 0.928 . S
H999 C982 0.932 . S
C1000 C1001 1.264 . S
C1000 C1005 1.479 . S
C1000 C1010 1.465 . S
C1001 C1000 1.264 . S
C1001 C1003 1.339 . S
C1001 H1028 0.931 . S
C1002 C1003 1.395 . S
C1002 C1004 1.320 . S
C1003 C1001 1.339 . S
C1003 C1002 1.395 . S
C1003 H1029 0.929 . S
C1004 C1002 1.320 . S
C1004 C1005 1.405 . S
C1004 H1030 0.930 . S
C1005 C1000 1.479 . S
C1005 C1004 1.405 . S
C1005 H1031 0.931 . S
U1006 O1007 2.454 . S
U1006 O1008 2.458 . S
U1006 C1009 2.984 . S
U1006 C1010 2.847 . S
U1006 C1023 2.882 . S
U1006 O1024 2.441 . S
U1006 O1025 2.420 . S
U1006 O1026 2.455 . S
U1006 O1027 2.449 . S
O1007 U1006 2.454 . S
O1007 C1009 1.353 . S
O1008 U1006 2.458 . S
O1008 C1009 1.286 . S
C1009 U1006 2.984 . S
C1009 O1007 1.353 . S
C1009 O1008 1.286 . S
C1009 C1011 1.363 . S
C1010 C1000 1.465 . S
C1010 U1006 2.847 . S
C1010 O1024 1.249 . S
C1010 O1025 1.202 . S
C1011 C1009 1.363 . S
C1011 C1013 1.408 . S
C1011 C1016 1.342 . S
C1012 C1013 1.310 . S
C1012 C1015 1.461 . S
C1012 H1032 0.932 . S
C1013 C1011 1.408 . S
C1013 C1012 1.310 . S
C1013 H1033 0.930 . S
C1014 C1015 1.474 . S
C1014 C1016 1.285 . S
C1014 H1034 0.929 . S
C1015 C1012 1.461 . S
C1015 C1014 1.474 . S
C1016 C1011 1.342 . S
C1016 C1014 1.285 . S
C1016 H1035 0.930 . S
C1017 C1020 1.424 . S
C1017 C1022 1.245 . S
C1017 C1023 1.428 . S
C1018 C1021 1.260 . S
C1018 C1022 1.477 . S
C1018 H1036 0.932 . S
C1019 C1020 1.384 . S
C1019 C1021 1.479 . S
C1019 H1037 0.929 . S
C1020 C1017 1.424 . S
C1020 C1019 1.384 . S
C1020 H1038 0.928 . S
C1021 C1018 1.260 . S
C1021 C1019 1.479 . S
C1022 C1017 1.245 . S
C1022 C1018 1.477 . S
C1022 H1039 0.932 . S
C1023 U1006 2.882 . S
C1023 C1017 1.428 . S
C1023 O1026 1.301 . S
C1023 O1027 1.282 . S
O1024 U1006 2.441 . S
O1024 C1010 1.249 . S
O1025 U1006 2.420 . S
O1025 C1010 1.202 . S
O1026 U1006 2.455 . S
O1026 C1023 1.301 . S
O1027 U1006 2.449 . S
O1027 C1023 1.282 . S
H1028 C1001 0.931 . S
H1029 C1003 0.929 . S
H1030 C1004 0.930 . S
H1031 C1005 0.931 . S
H1032 C1012 0.932 . S
H1033 C1013 0.930 . S
H1034 C1014 0.929 . S
H1035 C1016 0.930 . S
H1036 C1018 0.932 . S
H1037 C1019 0.929 . S
H1038 C1020 0.928 . S
H1039 C1022 0.932 . S
C1040 C1041 1.264 . S
C1040 C1045 1.479 . S
C1040 C1050 1.465 . S
C1041 C1040 1.264 . S
C1041 C1043 1.339 . S
C1041 H1068 0.931 . S
C1042 C1043 1.395 . S
C1042 C1044 1.320 . S
C1043 C1041 1.339 . S
C1043 C1042 1.395 . S
C1043 H1069 0.929 . S
C1044 C1042 1.320 . S
C1044 C1045 1.405 . S
C1044 H1070 0.930 . S
C1045 C1040 1.479 . S
C1045 C1044 1.405 . S
C1045 H1071 0.931 . S
U1046 O1047 2.454 . S
U1046 O1048 2.458 . S
U1046 C1049 2.984 . S
U1046 C1050 2.847 . S
U1046 C1063 2.882 . S
U1046 O1064 2.441 . S
U1046 O1065 2.420 . S
U1046 O1066 2.455 . S
U1046 O1067 2.449 . S
O1047 U1046 2.454 . S
O1047 C1049 1.353 . S
O1048 U1046 2.458 . S
O1048 C1049 1.286 . S
C1049 U1046 2.984 . S
C1049 O1047 1.353 . S
C1049 O1048 1.286 . S
C1049 C1051 1.363 . S
C1050 C1040 1.465 . S
C1050 U1046 2.847 . S
C1050 O1064 1.249 . S
C1050 O1065 1.202 . S
C1051 C1049 1.363 . S
C1051 C1053 1.408 . S
C1051 C1056 1.342 . S
C1052 C1053 1.310 . S
C1052 C1055 1.461 . S
C1052 H1072 0.932 . S
C1053 C1051 1.408 . S
C1053 C1052 1.310 . S
C1053 H1073 0.930 . S
C1054 C1055 1.474 . S
C1054 C1056 1.285 . S
C1054 H1074 0.929 . S
C1055 C1052 1.461 . S
C1055 C1054 1.474 . S
C1056 C1051 1.342 . S
C1056 C1054 1.285 . S
C1056 H1075 0.930 . S
C1057 C1060 1.424 . S
C1057 C1062 1.245 . S
C1057 C1063 1.428 . S
C1058 C1061 1.260 . S
C1058 C1062 1.477 . S
C1058 H1076 0.932 . S
C1059 C1060 1.384 . S
C1059 C1061 1.479 . S
C1059 H1077 0.929 . S
C1060 C1057 1.424 . S
C1060 C1059 1.384 . S
C1060 H1078 0.928 . S
C1061 C1058 1.260 . S
C1061 C1059 1.479 . S
C1062 C1057 1.245 . S
C1062 C1058 1.477 . S
C1062 H1079 0.932 . S
C1063 U1046 2.882 . S
C1063 C1057 1.428 . S
C1063 O1066 1.301 . S
C1063 O1067 1.282 . S
O1064 U1046 2.441 . S
O1064 C1050 1.249 . S
O1065 U1046 2.420 . S
O1065 C1050 1.202 . S
O1066 U1046 2.455 . S
O1066 C1063 1.301 . S
O1067 U1046 2.449 . S
O1067 C1063 1.282 . S
H1068 C1041 0.931 . S
H1069 C1043 0.929 . S
H1070 C1044 0.930 . S
H1071 C1045 0.931 . S
H1072 C1052 0.932 . S
H1073 C1053 0.930 . S
H1074 C1054 0.929 . S
H1075 C1056 0.930 . S
H1076 C1058 0.932 . S
H1077 C1059 0.929 . S
H1078 C1060 0.928 . S
H1079 C1062 0.932 . S
C1080 C1081 1.264 . S
C1080 C1085 1.479 . S
C1080 C1090 1.465 . S
C1081 C1080 1.264 . S
C1081 C1083 1.339 . S
C1081 H1108 0.931 . S
C1082 C1083 1.395 . S
C1082 C1084 1.320 . S
C1083 C1081 1.339 . S
C1083 C1082 1.395 . S
C1083 H1109 0.929 . S
C1084 C1082 1.320 . S
C1084 C1085 1.405 . S
C1084 H1110 0.930 . S
C1085 C1080 1.479 . S
C1085 C1084 1.405 . S
C1085 H1111 0.931 . S
U1086 O1087 2.454 . S
U1086 O1088 2.458 . S
U1086 C1089 2.984 . S
U1086 C1090 2.847 . S
U1086 C1103 2.882 . S
U1086 O1104 2.441 . S
U1086 O1105 2.420 . S
U1086 O1106 2.455 . S
U1086 O1107 2.449 . S
O1087 U1086 2.454 . S
O1087 C1089 1.353 . S
O1088 U1086 2.458 . S
O1088 C1089 1.286 . S
C1089 U1086 2.984 . S
C1089 O1087 1.353 . S
C1089 O1088 1.286 . S
C1089 C1091 1.363 . S
C1090 C1080 1.465 . S
C1090 U1086 2.847 . S
C1090 O1104 1.249 . S
C1090 O1105 1.202 . S
C1091 C1089 1.363 . S
C1091 C1093 1.408 . S
C1091 C1096 1.342 . S
C1092 C1093 1.310 . S
C1092 C1095 1.461 . S
C1092 H1112 0.932 . S
C1093 C1091 1.408 . S
C1093 C1092 1.310 . S
C1093 H1113 0.930 . S
C1094 C1095 1.474 . S
C1094 C1096 1.285 . S
C1094 H1114 0.929 . S
C1095 C1092 1.461 . S
C1095 C1094 1.474 . S
C1096 C1091 1.342 . S
C1096 C1094 1.285 . S
C1096 H1115 0.930 . S
C1097 C1100 1.424 . S
C1097 C1102 1.245 . S
C1097 C1103 1.428 . S
C1098 C1101 1.260 . S
C1098 C1102 1.477 . S
C1098 H1116 0.932 . S
C1099 C1100 1.384 . S
C1099 C1101 1.479 . S
C1099 H1117 0.929 . S
C1100 C1097 1.424 . S
C1100 C1099 1.384 . S
C1100 H1118 0.928 . S
C1101 C1098 1.260 . S
C1101 C1099 1.479 . S
C1102 C1097 1.245 . S
C1102 C1098 1.477 . S
C1102 H1119 0.932 . S
C1103 U1086 2.882 . S
C1103 C1097 1.428 . S
C1103 O1106 1.301 . S
C1103 O1107 1.282 . S
O1104 U1086 2.441 . S
O1104 C1090 1.249 . S
O1105 U1086 2.420 . S
O1105 C1090 1.202 . S
O1106 U1086 2.455 . S
O1106 C1103 1.301 . S
O1107 U1086 2.449 . S
O1107 C1103 1.282 . S
H1108 C1081 0.931 . S
H1109 C1083 0.929 . S
H1110 C1084 0.930 . S
H1111 C1085 0.931 . S
H1112 C1092 0.932 . S
H1113 C1093 0.930 . S
H1114 C1094 0.929 . S
H1115 C1096 0.930 . S
H1116 C1098 0.932 . S
H1117 C1099 0.929 . S
H1118 C1100 0.928 . S
H1119 C1102 0.932 . S
C1120 C1121 1.264 . S
C1120 C1125 1.479 . S
C1120 C1130 1.465 . S
C1121 C1120 1.264 . S
C1121 C1123 1.339 . S
C1121 H1148 0.931 . S
C1122 C1123 1.395 . S
C1122 C1124 1.320 . S
C1123 C1121 1.339 . S
C1123 C1122 1.395 . S
C1123 H1149 0.929 . S
C1124 C1122 1.320 . S
C1124 C1125 1.405 . S
C1124 H1150 0.930 . S
C1125 C1120 1.479 . S
C1125 C1124 1.405 . S
C1125 H1151 0.931 . S
U1126 O1127 2.454 . S
U1126 O1128 2.458 . S
U1126 C1129 2.984 . S
U1126 C1130 2.847 . S
U1126 C1143 2.882 . S
U1126 O1144 2.441 . S
U1126 O1145 2.420 . S
U1126 O1146 2.455 . S
U1126 O1147 2.449 . S
O1127 U1126 2.454 . S
O1127 C1129 1.353 . S
O1128 U1126 2.458 . S
O1128 C1129 1.286 . S
C1129 U1126 2.984 . S
C1129 O1127 1.353 . S
C1129 O1128 1.286 . S
C1129 C1131 1.363 . S
C1130 C1120 1.465 . S
C1130 U1126 2.847 . S
C1130 O1144 1.249 . S
C1130 O1145 1.202 . S
C1131 C1129 1.363 . S
C1131 C1133 1.408 . S
C1131 C1136 1.342 . S
C1132 C1133 1.310 . S
C1132 C1135 1.461 . S
C1132 H1152 0.932 . S
C1133 C1131 1.408 . S
C1133 C1132 1.310 . S
C1133 H1153 0.930 . S
C1134 C1135 1.474 . S
C1134 C1136 1.285 . S
C1134 H1154 0.929 . S
C1135 C1132 1.461 . S
C1135 C1134 1.474 . S
C1136 C1131 1.342 . S
C1136 C1134 1.285 . S
C1136 H1155 0.930 . S
C1137 C1140 1.424 . S
C1137 C1142 1.245 . S
C1137 C1143 1.428 . S
C1138 C1141 1.260 . S
C1138 C1142 1.477 . S
C1138 H1156 0.932 . S
C1139 C1140 1.384 . S
C1139 C1141 1.479 . S
C1139 H1157 0.929 . S
C1140 C1137 1.424 . S
C1140 C1139 1.384 . S
C1140 H1158 0.928 . S
C1141 C1138 1.260 . S
C1141 C1139 1.479 . S
C1142 C1137 1.245 . S
C1142 C1138 1.477 . S
C1142 H1159 0.932 . S
C1143 U1126 2.882 . S
C1143 C1137 1.428 . S
C1143 O1146 1.301 . S
C1143 O1147 1.282 . S
O1144 U1126 2.441 . S
O1144 C1130 1.249 . S
O1145 U1126 2.420 . S
O1145 C1130 1.202 . S
O1146 U1126 2.455 . S
O1146 C1143 1.301 . S
O1147 U1126 2.449 . S
O1147 C1143 1.282 . S
H1148 C1121 0.931 . S
H1149 C1123 0.929 . S
H1150 C1124 0.930 . S
H1151 C1125 0.931 . S
H1152 C1132 0.932 . S
H1153 C1133 0.930 . S
H1154 C1134 0.929 . S
H1155 C1136 0.930 . S
H1156 C1138 0.932 . S
H1157 C1139 0.929 . S
H1158 C1140 0.928 . S
H1159 C1142 0.932 . S
C1160 C1161 1.264 . S
C1160 C1165 1.479 . S
C1160 C1170 1.465 . S
C1161 C1160 1.264 . S
C1161 C1163 1.339 . S
C1161 H1188 0.931 . S
C1162 C1163 1.395 . S
C1162 C1164 1.320 . S
C1163 C1161 1.339 . S
C1163 C1162 1.395 . S
C1163 H1189 0.929 . S
C1164 C1162 1.320 . S
C1164 C1165 1.405 . S
C1164 H1190 0.930 . S
C1165 C1160 1.479 . S
C1165 C1164 1.405 . S
C1165 H1191 0.931 . S
U1166 O1167 2.454 . S
U1166 O1168 2.458 . S
U1166 C1169 2.984 . S
U1166 C1170 2.847 . S
U1166 C1183 2.882 . S
U1166 O1184 2.441 . S
U1166 O1185 2.420 . S
U1166 O1186 2.455 . S
U1166 O1187 2.449 . S
O1167 U1166 2.454 . S
O1167 C1169 1.353 . S
O1168 U1166 2.458 . S
O1168 C1169 1.286 . S
C1169 U1166 2.984 . S
C1169 O1167 1.353 . S
C1169 O1168 1.286 . S
C1169 C1171 1.363 . S
C1170 C1160 1.465 . S
C1170 U1166 2.847 . S
C1170 O1184 1.249 . S
C1170 O1185 1.202 . S
C1171 C1169 1.363 . S
C1171 C1173 1.408 . S
C1171 C1176 1.342 . S
C1172 C1173 1.310 . S
C1172 C1175 1.461 . S
C1172 H1192 0.932 . S
C1173 C1171 1.408 . S
C1173 C1172 1.310 . S
C1173 H1193 0.930 . S
C1174 C1175 1.474 . S
C1174 C1176 1.285 . S
C1174 H1194 0.929 . S
C1175 C1172 1.461 . S
C1175 C1174 1.474 . S
C1176 C1171 1.342 . S
C1176 C1174 1.285 . S
C1176 H1195 0.930 . S
C1177 C1180 1.424 . S
C1177 C1182 1.245 . S
C1177 C1183 1.428 . S
C1178 C1181 1.260 . S
C1178 C1182 1.477 . S
C1178 H1196 0.932 . S
C1179 C1180 1.384 . S
C1179 C1181 1.479 . S
C1179 H1197 0.929 . S
C1180 C1177 1.424 . S
C1180 C1179 1.384 . S
C1180 H1198 0.928 . S
C1181 C1178 1.260 . S
C1181 C1179 1.479 . S
C1182 C1177 1.245 . S
C1182 C1178 1.477 . S
C1182 H1199 0.932 . S
C1183 U1166 2.882 . S
C1183 C1177 1.428 . S
C1183 O1186 1.301 . S
C1183 O1187 1.282 . S
O1184 U1166 2.441 . S
O1184 C1170 1.249 . S
O1185 U1166 2.420 . S
O1185 C1170 1.202 . S
O1186 U1166 2.455 . S
O1186 C1183 1.301 . S
O1187 U1166 2.449 . S
O1187 C1183 1.282 . S
H1188 C1161 0.931 . S
H1189 C1163 0.929 . S
H1190 C1164 0.930 . S
H1191 C1165 0.931 . S
H1192 C1172 0.932 . S
H1193 C1173 0.930 . S
H1194 C1174 0.929 . S
H1195 C1176 0.930 . S
H1196 C1178 0.932 . S
H1197 C1179 0.929 . S
H1198 C1180 0.928 . S
H1199 C1182 0.932 . S
C1200 C1201 1.264 . S
C1200 C1205 1.479 . S
C1200 C1210 1.465 . S
C1201 C1200 1.264 . S
C1201 C1203 1.339 . S
C1201 H1228 0.931 . S
C1202 C1203 1.395 . S
C1202 C1204 1.320 . S
C1203 C1201 1.339 . S
C1203 C1202 1.395 . S
C1203 H1229 0.929 . S
C1204 C1202 1.320 . S
C1204 C1205 1.405 . S
C1204 H1230 0.930 . S
C1205 C1200 1.479 . S
C1205 C1204 1.405 . S
C1205 H1231 0.931 . S
U1206 O1207 2.454 . S
U1206 O1208 2.458 . S
U1206 C1209 2.984 . S
U1206 C1210 2.847 . S
U1206 C1223 2.882 . S
U1206 O1224 2.441 . S
U1206 O1225 2.420 . S
U1206 O1226 2.455 . S
U1206 O1227 2.449 . S
O1207 U1206 2.454 . S
O1207 C1209 1.353 . S
O1208 U1206 2.458 . S
O1208 C1209 1.286 . S
C1209 U1206 2.984 . S
C1209 O1207 1.353 . S
C1209 O1208 1.286 . S
C1209 C1211 1.363 . S
C1210 C1200 1.465 . S
C1210 U1206 2.847 . S
C1210 O1224 1.249 . S
C1210 O1225 1.202 . S
C1211 C1209 1.363 . S
C1211 C1213 1.408 . S
C1211 C1216 1.342 . S
C1212 C1213 1.310 . S
C1212 C1215 1.461 . S
C1212 H1232 0.932 . S
C1213 C1211 1.408 . S
C1213 C1212 1.310 . S
C1213 H1233 0.930 . S
C1214 C1215 1.474 . S
C1214 C1216 1.285 . S
C1214 H1234 0.929 . S
C1215 C1212 1.461 . S
C1215 C1214 1.474 . S
C1216 C1211 1.342 . S
C1216 C1214 1.285 . S
C1216 H1235 0.930 . S
C1217 C1220 1.424 . S
C1217 C1222 1.245 . S
C1217 C1223 1.428 . S
C1218 C1221 1.260 . S
C1218 C1222 1.477 . S
C1218 H1236 0.932 . S
C1219 C1220 1.384 . S
C1219 C1221 1.479 . S
C1219 H1237 0.929 . S
C1220 C1217 1.424 . S
C1220 C1219 1.384 . S
C1220 H1238 0.928 . S
C1221 C1218 1.260 . S
C1221 C1219 1.479 . S
C1222 C1217 1.245 . S
C1222 C1218 1.477 . S
C1222 H1239 0.932 . S
C1223 U1206 2.882 . S
C1223 C1217 1.428 . S
C1223 O1226 1.301 . S
C1223 O1227 1.282 . S
O1224 U1206 2.441 . S
O1224 C1210 1.249 . S
O1225 U1206 2.420 . S
O1225 C1210 1.202 . S
O1226 U1206 2.455 . S
O1226 C1223 1.301 . S
O1227 U1206 2.449 . S
O1227 C1223 1.282 . S
H1228 C1201 0.931 . S
H1229 C1203 0.929 . S
H1230 C1204 0.930 . S
H1231 C1205 0.931 . S
H1232 C1212 0.932 . S
H1233 C1213 0.930 . S
H1234 C1214 0.929 . S
H1235 C1216 0.930 . S
H1236 C1218 0.932 . S
H1237 C1219 0.929 . S
H1238 C1220 0.928 . S
H1239 C1222 0.932 . S
C1240 C1241 1.264 . S
C1240 C1245 1.479 . S
C1240 C1250 1.465 . S
C1241 C1240 1.264 . S
C1241 C1243 1.339 . S
C1241 H1268 0.931 . S
C1242 C1243 1.395 . S
C1242 C1244 1.320 . S
C1243 C1241 1.339 . S
C1243 C1242 1.395 . S
C1243 H1269 0.929 . S
C1244 C1242 1.320 . S
C1244 C1245 1.405 . S
C1244 H1270 0.930 . S
C1245 C1240 1.479 . S
C1245 C1244 1.405 . S
C1245 H1271 0.931 . S
U1246 O1247 2.454 . S
U1246 O1248 2.458 . S
U1246 C1249 2.984 . S
U1246 C1250 2.847 . S
U1246 C1263 2.882 . S
U1246 O1264 2.441 . S
U1246 O1265 2.420 . S
U1246 O1266 2.455 . S
U1246 O1267 2.449 . S
O1247 U1246 2.454 . S
O1247 C1249 1.353 . S
O1248 U1246 2.458 . S
O1248 C1249 1.286 . S
C1249 U1246 2.984 . S
C1249 O1247 1.353 . S
C1249 O1248 1.286 . S
C1249 C1251 1.363 . S
C1250 C1240 1.465 . S
C1250 U1246 2.847 . S
C1250 O1264 1.249 . S
C1250 O1265 1.202 . S
C1251 C1249 1.363 . S
C1251 C1253 1.408 . S
C1251 C1256 1.342 . S
C1252 C1253 1.310 . S
C1252 C1255 1.461 . S
C1252 H1272 0.932 . S
C1253 C1251 1.408 . S
C1253 C1252 1.310 . S
C1253 H1273 0.930 . S
C1254 C1255 1.474 . S
C1254 C1256 1.285 . S
C1254 H1274 0.929 . S
C1255 C1252 1.461 . S
C1255 C1254 1.474 . S
C1256 C1251 1.342 . S
C1256 C1254 1.285 . S
C1256 H1275 0.930 . S
C1257 C1260 1.424 . S
C1257 C1262 1.245 . S
C1257 C1263 1.428 . S
C1258 C1261 1.260 . S
C1258 C1262 1.477 . S
C1258 H1276 0.932 . S
C1259 C1260 1.384 . S
C1259 C1261 1.479 . S
C1259 H1277 0.929 . S
C1260 C1257 1.424 . S
C1260 C1259 1.384 . S
C1260 H1278 0.928 . S
C1261 C1258 1.260 . S
C1261 C1259 1.479 . S
C1262 C1257 1.245 . S
C1262 C1258 1.477 . S
C1262 H1279 0.932 . S
C1263 U1246 2.882 . S
C1263 C1257 1.428 . S
C1263 O1266 1.301 . S
C1263 O1267 1.282 . S
O1264 U1246 2.441 . S
O1264 C1250 1.249 . S
O1265 U1246 2.420 . S
O1265 C1250 1.202 . S
O1266 U1246 2.455 . S
O1266 C1263 1.301 . S
O1267 U1246 2.449 . S
O1267 C1263 1.282 . S
H1268 C1241 0.931 . S
H1269 C1243 0.929 . S
H1270 C1244 0.930 . S
H1271 C1245 0.931 . S
H1272 C1252 0.932 . S
H1273 C1253 0.930 . S
H1274 C1254 0.929 . S
H1275 C1256 0.930 . S
H1276 C1258 0.932 . S
H1277 C1259 0.929 . S
H1278 C1260 0.928 . S
H1279 C1262 0.932 . S
H1280 O1306 0.856 . S
H1281 O1309 0.854 . S
H1282 C1317 0.930 . S
H1283 C1318 0.930 . S
H1284 C1320 0.930 . S
H1285 C1321 0.930 . S
H1286 C1323 0.931 . S
H1287 C1324 0.930 . S
H1288 C1326 0.930 . S
H1289 C1327 0.929 . S
H1290 C1329 0.930 . S
H1291 C1330 0.931 . S
H1292 C1332 0.930 . S
H1293 C1333 0.929 . S
H1294 C1335 0.931 . S
H1295 C1336 0.930 . S
H1296 C1338 0.930 . S
H1297 C1339 0.932 . S
H1298 C1341 0.930 . S
H1299 C1342 0.929 . S
H1300 C1344 0.931 . S
H1301 C1345 0.930 . S
H1302 C1347 0.929 . S
H1303 C1348 0.931 . S
H1304 C1350 0.930 . S
H1305 C1351 0.929 . S
O1306 H1280 0.856 . S
O1306 C1352 1.300 . S
O1307 C1352 1.209 . S
O1308 C1353 1.199 . S
O1309 H1281 0.854 . S
O1309 C1353 1.297 . S
C1310 C1311 1.404 . S
C1310 C1315 1.397 . S
C1310 C1316 1.492 1_554 S
C1311 C1310 1.404 . S
C1311 C1312 1.396 . S
C1311 C1322 1.492 . S
C1312 C1311 1.396 . S
C1312 C1313 1.397 . S
C1312 C1328 1.509 . S
C1313 C1312 1.397 . S
C1313 C1314 1.412 . S
C1313 C1334 1.485 . S
C1314 C1313 1.412 . S
C1314 C1315 1.388 . S
C1314 C1340 1.490 . S
C1315 C1310 1.397 . S
C1315 C1314 1.388 . S
C1315 C1346 1.519 1_554 S
C1316 C1310 1.492 1_556 S
C1316 C1317 1.363 . S
C1316 C1321 1.390 . S
C1317 H1282 0.930 . S
C1317 C1316 1.363 . S
C1317 C1318 1.372 . S
C1318 H1283 0.930 . S
C1318 C1317 1.372 . S
C1318 C1319 1.383 . S
C1319 C1318 1.383 . S
C1319 C1320 1.395 . S
C1320 H1284 0.930 . S
C1320 C1319 1.395 . S
C1320 C1321 1.362 . S
C1321 H1285 0.930 . S
C1321 C1316 1.390 . S
C1321 C1320 1.362 . S
C1322 C1311 1.492 . S
C1322 C1323 1.377 . S
C1322 C1327 1.397 . S
C1323 H1286 0.931 . S
C1323 C1322 1.377 . S
C1323 C1324 1.376 . S
C1324 H1287 0.930 . S
C1324 C1323 1.376 . S
C1324 C1325 1.376 . S
C1325 C1324 1.376 . S
C1325 C1326 1.378 . S
C1325 C1352 1.486 . S
C1326 H1288 0.930 . S
C1326 C1325 1.378 . S
C1326 C1327 1.376 . S
C1327 H1289 0.929 . S
C1327 C1322 1.397 . S
C1327 C1326 1.376 . S
C1328 C1312 1.509 . S
C1328 C1329 1.391 . S
C1328 C1333 1.386 . S
C1329 H1290 0.930 . S
C1329 C1328 1.391 . S
C1329 C1330 1.375 . S
C1330 H1291 0.931 . S
C1330 C1329 1.375 . S
C1330 C1331 1.375 . S
C1331 C1330 1.375 . S
C1331 C1332 1.361 . S
C1332 H1292 0.930 . S
C1332 C1331 1.361 . S
C1332 C1333 1.399 . S
C1333 H1293 0.929 . S
C1333 C1328 1.386 . S
C1333 C1332 1.399 . S
C1334 C1313 1.485 . S
C1334 C1335 1.394 . S
C1334 C1339 1.360 . S
C1335 H1294 0.931 . S
C1335 C1334 1.394 . S
C1335 C1336 1.372 . S
C1336 H1295 0.930 . S
C1336 C1335 1.372 . S
C1336 C1337 1.397 . S
C1337 C1336 1.397 . S
C1337 C1338 1.390 . S
C1337 C1353 1.476 . S
C1338 H1296 0.930 . S
C1338 C1337 1.390 . S
C1338 C1339 1.366 . S
C1339 H1297 0.932 . S
C1339 C1334 1.360 . S
C1339 C1338 1.366 . S
C1340 C1314 1.490 . S
C1340 C1341 1.380 . S
C1340 C1345 1.386 . S
C1341 H1298 0.930 . S
C1341 C1340 1.380 . S
C1341 C1342 1.381 . S
C1342 H1299 0.929 . S
C1342 C1341 1.381 . S
C1342 C1343 1.371 . S
C1343 C1342 1.371 . S
C1343 C1344 1.380 . S
C1344 H1300 0.931 . S
C1344 C1343 1.380 . S
C1344 C1345 1.387 . S
C1345 H1301 0.930 . S
C1345 C1340 1.386 . S
C1345 C1344 1.387 . S
C1346 C1315 1.519 1_556 S
C1346 C1347 1.377 . S
C1346 C1351 1.361 . S
C1347 H1302 0.929 . S
C1347 C1346 1.377 . S
C1347 C1348 1.386 . S
C1348 H1303 0.931 . S
C1348 C1347 1.386 . S
C1348 C1349 1.363 . S
C1349 C1348 1.363 . S
C1349 C1350 1.385 . S
C1350 H1304 0.930 . S
C1350 C1349 1.385 . S
C1350 C1351 1.396 . S
C1351 H1305 0.929 . S
C1351 C1346 1.361 . S
C1351 C1350 1.396 . S
C1352 O1306 1.300 . S
C1352 O1307 1.209 . S
C1352 C1325 1.486 . S
C1353 O1308 1.199 . S
C1353 O1309 1.297 . S
C1353 C1337 1.476 . S
H1354 O1380 0.856 . S
H1355 O1383 0.854 . S
H1356 C1391 0.930 . S
H1357 C1392 0.930 . S
H1358 C1394 0.930 . S
H1359 C1395 0.930 . S
H1360 C1397 0.931 . S
H1361 C1398 0.930 . S
H1362 C1400 0.930 . S
H1363 C1401 0.929 . S
H1364 C1403 0.930 . S
H1365 C1404 0.931 . S
H1366 C1406 0.930 . S
H1367 C1407 0.929 . S
H1368 C1409 0.931 . S
H1369 C1410 0.930 . S
H1370 C1412 0.930 . S
H1371 C1413 0.932 . S
H1372 C1415 0.930 . S
H1373 C1416 0.929 . S
H1374 C1418 0.931 . S
H1375 C1419 0.930 . S
H1376 C1421 0.929 . S
H1377 C1422 0.931 . S
H1378 C1424 0.930 . S
H1379 C1425 0.895 1_554 S
O1380 H1354 0.856 . S
O1380 C1426 1.300 . S
O1381 C1426 1.209 . S
O1382 C1427 1.199 . S
O1383 H1355 0.854 . S
O1383 C1427 1.297 . S
C1384 C1385 1.429 . S
C1384 C1389 1.409 . S
C1384 C1390 1.457 1_554 S
C1385 C1384 1.429 . S
C1385 C1386 1.396 . S
C1385 C1396 1.492 . S
C1386 C1385 1.396 . S
C1386 C1387 1.397 . S
C1386 C1402 1.509 . S
C1387 C1386 1.397 . S
C1387 C1388 1.412 . S
C1387 C1408 1.485 . S
C1388 C1387 1.412 . S
C1388 C1389 1.388 . S
C1388 C1414 1.490 . S
C1389 C1384 1.409 . S
C1389 C1388 1.388 . S
C1389 C1420 1.519 1_554 S
C1390 C1384 1.457 1_556 S
C1390 C1391 1.363 . S
C1390 C1395 1.390 . S
C1391 H1356 0.930 . S
C1391 C1390 1.363 . S
C1391 C1392 1.372 . S
C1392 H1357 0.930 . S
C1392 C1391 1.372 . S
C1392 C1393 1.383 . S
C1393 C1392 1.383 . S
C1393 C1394 1.395 . S
C1394 H1358 0.930 . S
C1394 C1393 1.395 . S
C1394 C1395 1.362 . S
C1395 H1359 0.930 . S
C1395 C1390 1.390 . S
C1395 C1394 1.362 . S
C1396 C1385 1.492 . S
C1396 C1397 1.377 . S
C1396 C1401 1.397 1_554 S
C1397 H1360 0.931 . S
C1397 C1396 1.377 . S
C1397 C1398 1.376 . S
C1398 H1361 0.930 . S
C1398 C1397 1.376 . S
C1398 C1399 1.376 1_554 S
C1399 C1398 1.376 1_556 S
C1399 C1400 1.378 . S
C1399 C1426 1.486 . S
C1400 H1362 0.930 . S
C1400 C1399 1.378 . S
C1400 C1401 1.376 . S
C1401 H1363 0.929 . S
C1401 C1396 1.397 1_556 S
C1401 C1400 1.376 . S
C1402 C1386 1.509 . S
C1402 C1403 1.391 . S
C1402 C1407 1.386 . S
C1403 H1364 0.930 . S
C1403 C1402 1.391 . S
C1403 C1404 1.375 . S
C1404 H1365 0.931 . S
C1404 C1403 1.375 . S
C1404 C1405 1.375 . S
C1405 C1404 1.375 . S
C1405 C1406 1.361 . S
C1406 H1366 0.930 . S
C1406 C1405 1.361 . S
C1406 C1407 1.399 . S
C1407 H1367 0.929 . S
C1407 C1402 1.386 . S
C1407 C1406 1.399 . S
C1408 C1387 1.485 . S
C1408 C1409 1.394 . S
C1408 C1413 1.360 . S
C1409 H1368 0.931 . S
C1409 C1408 1.394 . S
C1409 C1410 1.372 . S
C1410 H1369 0.930 . S
C1410 C1409 1.372 . S
C1410 C1411 1.397 . S
C1411 C1410 1.397 . S
C1411 C1412 1.390 . S
C1411 C1427 1.476 . S
C1412 H1370 0.930 . S
C1412 C1411 1.390 . S
C1412 C1413 1.366 . S
C1413 H1371 0.932 . S
C1413 C1408 1.360 . S
C1413 C1412 1.366 . S
C1414 C1388 1.490 . S
C1414 C1415 1.380 . S
C1414 C1419 1.386 . S
C1415 H1372 0.930 . S
C1415 C1414 1.380 . S
C1415 C1416 1.381 . S
C1416 H1373 0.929 . S
C1416 C1415 1.381 . S
C1416 C1417 1.371 . S
C1417 C1416 1.371 . S
C1417 C1418 1.380 . S
C1418 H1374 0.931 . S
C1418 C1417 1.380 . S
C1418 C1419 1.387 . S
C1419 H1375 0.930 . S
C1419 C1414 1.386 . S
C1419 C1418 1.387 . S
C1420 C1389 1.519 1_556 S
C1420 C1421 1.377 . S
C1420 C1425 1.361 . S
C1421 H1376 0.929 . S
C1421 C1420 1.377 . S
C1421 C1422 1.386 . S
C1422 H1377 0.931 . S
C1422 C1421 1.386 . S
C1422 C1423 1.363 . S
C1423 C1422 1.363 . S
C1423 C1424 1.385 . S
C1424 H1378 0.930 . S
C1424 C1423 1.385 . S
C1424 C1425 1.396 . S
C1425 H1379 0.895 1_556 S
C1425 C1420 1.361 . S
C1425 C1424 1.396 . S
C1426 O1380 1.300 . S
C1426 O1381 1.209 . S
C1426 C1399 1.486 . S
C1427 O1382 1.199 . S
C1427 O1383 1.297 . S
C1427 C1411 1.476 . S
H1428 O1454 0.856 . S
H1429 O1457 0.854 . S
H1430 C1465 0.930 . S
H1431 C1466 0.930 . S
H1432 C1468 0.930 . S
H1433 C1469 0.930 . S
H1434 C1471 0.931 . S
H1435 C1472 0.930 . S
H1436 C1474 0.930 . S
H1437 C1475 0.929 . S
H1438 C1477 0.930 . S
H1439 C1478 0.931 . S
H1440 C1480 0.930 . S
H1441 C1481 0.929 . S
H1442 C1483 0.931 . S
H1443 C1484 0.930 . S
H1444 C1486 0.930 . S
H1445 C1487 0.932 . S
H1446 C1489 0.930 . S
H1447 C1490 0.929 . S
H1448 C1492 0.931 . S
H1449 C1493 0.930 . S
H1450 C1495 0.929 . S
H1451 C1496 0.931 . S
H1452 C1498 0.930 . S
H1453 C1499 0.929 . S
O1454 H1428 0.856 . S
O1454 C1500 1.300 . S
O1455 C1500 1.209 . S
O1456 C1501 1.199 . S
O1457 H1429 0.854 . S
O1457 C1501 1.297 . S
C1458 C1459 1.404 . S
C1458 C1463 1.397 . S
C1458 C1464 1.492 . S
C1459 C1458 1.404 . S
C1459 C1460 1.396 1_554 S
C1459 C1470 1.492 . S
C1460 C1459 1.396 1_556 S
C1460 C1461 1.397 . S
C1460 C1476 1.509 . S
C1461 C1460 1.397 . S
C1461 C1462 1.412 . S
C1461 C1482 1.485 . S
C1462 C1461 1.412 . S
C1462 C1463 1.388 1_556 S
C1462 C1488 1.490 . S
C1463 C1458 1.397 . S
C1463 C1462 1.388 1_554 S
C1463 C1494 1.519 . S
C1464 C1458 1.492 . S
C1464 C1465 1.363 . S
C1464 C1469 1.390 . S
C1465 H1430 0.930 . S
C1465 C1464 1.363 . S
C1465 C1466 1.372 . S
C1466 H1431 0.930 . S
C1466 C1465 1.372 . S
C1466 C1467 1.383 . S
C1467 C1466 1.383 . S
C1467 C1468 1.395 . S
C1468 H1432 0.930 . S
C1468 C1467 1.395 . S
C1468 C1469 1.362 . S
C1469 H1433 0.930 . S
C1469 C1464 1.390 . S
C1469 C1468 1.362 . S
C1470 C1459 1.492 . S
C1470 C1471 1.377 . S
C1470 C1475 1.397 . S
C1471 H1434 0.931 . S
C1471 C1470 1.377 . S
C1471 C1472 1.376 . S
C1472 H1435 0.930 . S
C1472 C1471 1.376 . S
C1472 C1473 1.376 . S
C1473 C1472 1.376 . S
C1473 C1474 1.378 . S
C1473 C1500 1.486 . S
C1474 H1436 0.930 . S
C1474 C1473 1.378 . S
C1474 C1475 1.376 . S
C1475 H1437 0.929 . S
C1475 C1470 1.397 . S
C1475 C1474 1.376 . S
C1476 C1460 1.509 . S
C1476 C1477 1.391 . S
C1476 C1481 1.386 . S
C1477 H1438 0.930 . S
C1477 C1476 1.391 . S
C1477 C1478 1.375 . S
C1478 H1439 0.931 . S
C1478 C1477 1.375 . S
C1478 C1479 1.375 . S
C1479 C1478 1.375 . S
C1479 C1480 1.361 . S
C1480 H1440 0.930 . S
C1480 C1479 1.361 . S
C1480 C1481 1.399 . S
C1481 H1441 0.929 . S
C1481 C1476 1.386 . S
C1481 C1480 1.399 . S
C1482 C1461 1.485 . S
C1482 C1483 1.394 . S
C1482 C1487 1.360 . S
C1483 H1442 0.931 . S
C1483 C1482 1.394 . S
C1483 C1484 1.372 . S
C1484 H1443 0.930 . S
C1484 C1483 1.372 . S
C1484 C1485 1.397 . S
C1485 C1484 1.397 . S
C1485 C1486 1.390 . S
C1485 C1501 1.476 . S
C1486 H1444 0.930 . S
C1486 C1485 1.390 . S
C1486 C1487 1.366 . S
C1487 H1445 0.932 . S
C1487 C1482 1.360 . S
C1487 C1486 1.366 . S
C1488 C1462 1.490 . S
C1488 C1489 1.380 . S
C1488 C1493 1.386 . S
C1489 H1446 0.930 . S
C1489 C1488 1.380 . S
C1489 C1490 1.381 . S
C1490 H1447 0.929 . S
C1490 C1489 1.381 . S
C1490 C1491 1.371 . S
C1491 C1490 1.371 . S
C1491 C1492 1.380 . S
C1492 H1448 0.931 . S
C1492 C1491 1.380 . S
C1492 C1493 1.387 . S
C1493 H1449 0.930 . S
C1493 C1488 1.386 . S
C1493 C1492 1.387 . S
C1494 C1463 1.519 . S
C1494 C1495 1.377 . S
C1494 C1499 1.361 . S
C1495 H1450 0.929 . S
C1495 C1494 1.377 . S
C1495 C1496 1.386 . S
C1496 H1451 0.931 . S
C1496 C1495 1.386 . S
C1496 C1497 1.363 . S
C1497 C1496 1.363 . S
C1497 C1498 1.385 . S
C1498 H1452 0.930 . S
C1498 C1497 1.385 . S
C1498 C1499 1.396 . S
C1499 H1453 0.929 . S
C1499 C1494 1.361 . S
C1499 C1498 1.396 . S
C1500 O1454 1.300 . S
C1500 O1455 1.209 . S
C1500 C1473 1.486 . S
C1501 O1456 1.199 . S
C1501 O1457 1.297 . S
C1501 C1485 1.476 . S
H1502 O1528 0.856 . S
H1503 O1531 0.854 . S
H1504 C1539 0.930 . S
H1505 C1540 0.930 . S
H1506 C1542 0.930 . S
H1507 C1543 0.930 . S
H1508 C1545 0.931 . S
H1509 C1546 0.930 . S
H1510 C1548 0.930 . S
H1511 C1549 0.926 1_556 S
H1512 C1551 0.930 . S
H1513 C1552 0.931 . S
H1514 C1554 0.930 . S
H1515 C1555 0.929 . S
H1516 C1557 0.931 . S
H1517 C1558 0.930 . S
H1518 C1560 0.930 . S
H1519 C1561 0.932 . S
H1520 C1563 0.930 . S
H1521 C1564 0.929 . S
H1522 C1566 0.931 . S
H1523 C1567 0.930 . S
H1524 C1569 0.929 . S
H1525 C1570 0.931 . S
H1526 C1572 0.930 . S
H1527 C1573 0.929 1_554 S
O1528 H1502 0.856 . S
O1528 C1574 1.300 . S
O1529 C1574 1.209 . S
O1530 C1575 1.199 . S
O1531 H1503 0.854 . S
O1531 C1575 1.297 . S
C1532 C1533 1.404 . S
C1532 C1537 1.397 . S
C1532 C1538 1.492 1_554 S
C1533 C1532 1.404 . S
C1533 C1534 1.396 . S
C1533 C1544 1.492 . S
C1534 C1533 1.396 . S
C1534 C1535 1.397 . S
C1534 C1550 1.509 . S
C1535 C1534 1.397 . S
C1535 C1536 1.412 . S
C1535 C1556 1.485 . S
C1536 C1535 1.412 . S
C1536 C1537 1.388 . S
C1536 C1562 1.490 . S
C1537 C1532 1.397 . S
C1537 C1536 1.388 . S
C1537 C1568 1.519 1_554 S
C1538 C1532 1.492 1_556 S
C1538 C1539 1.363 . S
C1538 C1543 1.390 . S
C1539 H1504 0.930 . S
C1539 C1538 1.363 . S
C1539 C1540 1.372 . S
C1540 H1505 0.930 . S
C1540 C1539 1.372 . S
C1540 C1541 1.383 . S
C1541 C1540 1.383 . S
C1541 C1542 1.395 . S
C1542 H1506 0.930 . S
C1542 C1541 1.395 . S
C1542 C1543 1.362 . S
C1543 H1507 0.930 . S
C1543 C1538 1.390 . S
C1543 C1542 1.362 . S
C1544 C1533 1.492 . S
C1544 C1545 1.377 . S
C1544 C1549 1.403 . S
C1545 H1508 0.931 . S
C1545 C1544 1.377 . S
C1545 C1546 1.376 . S
C1546 H1509 0.930 . S
C1546 C1545 1.376 . S
C1546 C1547 1.376 1_554 S
C1547 C1546 1.376 1_556 S
C1547 C1548 1.378 . S
C1547 C1574 1.486 . S
C1548 H1510 0.930 . S
C1548 C1547 1.378 . S
C1548 C1549 1.373 1_556 S
C1549 H1511 0.926 1_554 S
C1549 C1544 1.403 . S
C1549 C1548 1.373 1_554 S
C1550 C1534 1.509 . S
C1550 C1551 1.391 . S
C1550 C1555 1.386 . S
C1551 H1512 0.930 . S
C1551 C1550 1.391 . S
C1551 C1552 1.375 . S
C1552 H1513 0.931 . S
C1552 C1551 1.375 . S
C1552 C1553 1.375 . S
C1553 C1552 1.375 . S
C1553 C1554 1.361 . S
C1554 H1514 0.930 . S
C1554 C1553 1.361 . S
C1554 C1555 1.399 . S
C1555 H1515 0.929 . S
C1555 C1550 1.386 . S
C1555 C1554 1.399 . S
C1556 C1535 1.485 . S
C1556 C1557 1.394 . S
C1556 C1561 1.360 . S
C1557 H1516 0.931 . S
C1557 C1556 1.394 . S
C1557 C1558 1.372 . S
C1558 H1517 0.930 . S
C1558 C1557 1.372 . S
C1558 C1559 1.397 . S
C1559 C1558 1.397 . S
C1559 C1560 1.390 . S
C1559 C1575 1.476 . S
C1560 H1518 0.930 . S
C1560 C1559 1.390 . S
C1560 C1561 1.366 . S
C1561 H1519 0.932 . S
C1561 C1556 1.360 . S
C1561 C1560 1.366 . S
C1562 C1536 1.490 . S
C1562 C1563 1.380 . S
C1562 C1567 1.386 . S
C1563 H1520 0.930 . S
C1563 C1562 1.380 . S
C1563 C1564 1.381 . S
C1564 H1521 0.929 . S
C1564 C1563 1.381 . S
C1564 C1565 1.371 . S
C1565 C1564 1.371 . S
C1565 C1566 1.380 . S
C1566 H1522 0.931 . S
C1566 C1565 1.380 . S
C1566 C1567 1.387 . S
C1567 H1523 0.930 . S
C1567 C1562 1.386 . S
C1567 C1566 1.387 . S
C1568 C1537 1.519 1_556 S
C1568 C1569 1.377 . S
C1568 C1573 1.361 . S
C1569 H1524 0.929 . S
C1569 C1568 1.377 . S
C1569 C1570 1.386 . S
C1570 H1525 0.931 . S
C1570 C1569 1.386 . S
C1570 C1571 1.363 . S
C1571 C1570 1.363 . S
C1571 C1572 1.385 . S
C1572 H1526 0.930 . S
C1572 C1571 1.385 . S
C1572 C1573 1.396 . S
C1573 H1527 0.929 1_556 S
C1573 C1568 1.361 . S
C1573 C1572 1.396 . S
C1574 O1528 1.300 . S
C1574 O1529 1.209 . S
C1574 C1547 1.486 . S
C1575 O1530 1.199 . S
C1575 O1531 1.297 . S
C1575 C1559 1.476 . S
H1576 O1602 0.856 . S
H1577 O1605 0.854 . S
H1578 C1613 0.930 . S
H1579 C1614 0.930 . S
H1580 C1616 0.930 . S
H1581 C1617 0.930 . S
H1582 C1619 0.931 . S
H1583 C1620 0.930 . S
H1584 C1622 0.930 . S
H1585 C1623 0.929 . S
H1586 C1625 0.930 . S
H1587 C1626 0.931 . S
H1588 C1628 0.930 . S
H1589 C1629 0.929 . S
H1590 C1631 0.931 . S
H1591 C1632 0.930 . S
H1592 C1634 0.930 . S
H1593 C1635 0.932 . S
H1594 C1637 0.930 . S
H1595 C1638 0.929 . S
H1596 C1640 0.931 . S
H1597 C1641 0.930 . S
H1598 C1643 0.929 . S
H1599 C1644 0.931 . S
H1600 C1646 0.930 . S
H1601 C1647 0.929 . S
O1602 H1576 0.856 . S
O1602 C1648 1.300 . S
O1603 C1648 1.209 . S
O1604 C1649 1.199 . S
O1605 H1577 0.854 . S
O1605 C1649 1.297 . S
C1606 C1607 1.404 . S
C1606 C1611 1.397 . S
C1606 C1612 1.492 . S
C1607 C1606 1.404 . S
C1607 C1608 1.396 . S
C1607 C1618 1.492 . S
C1608 C1607 1.396 . S
C1608 C1609 1.397 . S
C1608 C1624 1.509 . S
C1609 C1608 1.397 . S
C1609 C1610 1.412 . S
C1609 C1630 1.485 . S
C1610 C1609 1.412 . S
C1610 C1611 1.388 . S
C1610 C1636 1.490 . S
C1611 C1606 1.397 . S
C1611 C1610 1.388 . S
C1611 C1642 1.519 . S
C1612 C1606 1.492 . S
C1612 C1613 1.363 . S
C1612 C1617 1.390 1_455 S
C1613 H1578 0.930 . S
C1613 C1612 1.363 . S
C1613 C1614 1.372 1_455 S
C1614 H1579 0.930 . S
C1614 C1613 1.372 1_655 S
C1614 C1615 1.383 . S
C1615 C1614 1.383 . S
C1615 C1616 1.395 . S
C1616 H1580 0.930 . S
C1616 C1615 1.395 . S
C1616 C1617 1.362 . S
C1617 H1581 0.930 . S
C1617 C1612 1.390 1_655 S
C1617 C1616 1.362 . S
C1618 C1607 1.492 . S
C1618 C1619 1.377 . S
C1618 C1623 1.397 . S
C1619 H1582 0.931 . S
C1619 C1618 1.377 . S
C1619 C1620 1.376 . S
C1620 H1583 0.930 . S
C1620 C1619 1.376 . S
C1620 C1621 1.376 . S
C1621 C1620 1.376 . S
C1621 C1622 1.378 . S
C1621 C1648 1.486 . S
C1622 H1584 0.930 . S
C1622 C1621 1.378 . S
C1622 C1623 1.376 . S
C1623 H1585 0.929 . S
C1623 C1618 1.397 . S
C1623 C1622 1.376 . S
C1624 C1608 1.509 . S
C1624 C1625 1.391 . S
C1624 C1629 1.386 . S
C1625 H1586 0.930 . S
C1625 C1624 1.391 . S
C1625 C1626 1.375 . S
C1626 H1587 0.931 . S
C1626 C1625 1.375 . S
C1626 C1627 1.375 . S
C1627 C1626 1.375 . S
C1627 C1628 1.361 . S
C1628 H1588 0.930 . S
C1628 C1627 1.361 . S
C1628 C1629 1.399 . S
C1629 H1589 0.929 . S
C1629 C1624 1.386 . S
C1629 C1628 1.399 . S
C1630 C1609 1.485 . S
C1630 C1631 1.394 . S
C1630 C1635 1.360 . S
C1631 H1590 0.931 . S
C1631 C1630 1.394 . S
C1631 C1632 1.372 . S
C1632 H1591 0.930 . S
C1632 C1631 1.372 . S
C1632 C1633 1.397 . S
C1633 C1632 1.397 . S
C1633 C1634 1.390 . S
C1633 C1649 1.476 . S
C1634 H1592 0.930 . S
C1634 C1633 1.390 . S
C1634 C1635 1.366 . S
C1635 H1593 0.932 . S
C1635 C1630 1.360 . S
C1635 C1634 1.366 . S
C1636 C1610 1.490 . S
C1636 C1637 1.380 . S
C1636 C1641 1.386 . S
C1637 H1594 0.930 . S
C1637 C1636 1.380 . S
C1637 C1638 1.381 . S
C1638 H1595 0.929 . S
C1638 C1637 1.381 . S
C1638 C1639 1.371 . S
C1639 C1638 1.371 . S
C1639 C1640 1.380 . S
C1640 H1596 0.931 . S
C1640 C1639 1.380 . S
C1640 C1641 1.387 . S
C1641 H1597 0.930 . S
C1641 C1636 1.386 . S
C1641 C1640 1.387 . S
C1642 C1611 1.519 . S
C1642 C1643 1.377 . S
C1642 C1647 1.361 . S
C1643 H1598 0.929 . S
C1643 C1642 1.377 . S
C1643 C1644 1.386 1_455 S
C1644 H1599 0.931 . S
C1644 C1643 1.386 1_655 S
C1644 C1645 1.363 . S
C1645 C1644 1.363 . S
C1645 C1646 1.385 . S
C1646 H1600 0.930 . S
C1646 C1645 1.385 . S
C1646 C1647 1.396 1_655 S
C1647 H1601 0.929 . S
C1647 C1642 1.361 . S
C1647 C1646 1.396 1_455 S
C1648 O1602 1.300 . S
C1648 O1603 1.209 . S
C1648 C1621 1.486 . S
C1649 O1604 1.199 . S
C1649 O1605 1.297 . S
C1649 C1633 1.476 . S
H1650 O1676 0.856 . S
H1651 O1679 0.854 . S
H1652 C1687 0.930 1_545 S
H1653 C1688 0.930 . S
H1654 C1690 0.930 . S
H1655 C1691 0.930 . S
H1656 C1693 0.931 . S
H1657 C1694 0.930 . S
H1658 C1696 0.930 . S
H1659 C1697 0.929 . S
H1660 C1699 0.930 . S
H1661 C1700 0.931 . S
H1662 C1702 0.930 . S
H1663 C1703 0.929 . S
H1664 C1705 0.931 . S
H1665 C1706 0.930 . S
H1666 C1708 0.930 . S
H1667 C1709 0.932 . S
H1668 C1711 0.930 . S
H1669 C1712 0.929 . S
H1670 C1714 0.931 . S
H1671 C1715 0.930 . S
H1672 C1717 0.929 . S
H1673 C1718 0.931 . S
H1674 C1720 0.930 . S
H1675 C1721 0.929 . S
O1676 H1650 0.856 . S
O1676 C1722 1.300 . S
O1677 C1722 1.209 . S
O1678 C1723 1.199 . S
O1679 H1651 0.854 . S
O1679 C1723 1.297 . S
C1680 C1681 1.404 . S
C1680 C1685 1.397 . S
C1680 C1686 1.492 . S
C1681 C1680 1.404 . S
C1681 C1682 1.396 . S
C1681 C1692 1.492 . S
C1682 C1681 1.396 . S
C1682 C1683 1.397 . S
C1682 C1698 1.509 . S
C1683 C1682 1.397 . S
C1683 C1684 1.412 . S
C1683 C1704 1.485 . S
C1684 C1683 1.412 . S
C1684 C1685 1.388 . S
C1684 C1710 1.490 . S
C1685 C1680 1.397 . S
C1685 C1684 1.388 . S
C1685 C1716 1.519 . S
C1686 C1680 1.492 . S
C1686 C1687 1.363 1_545 S
C1686 C1691 1.390 1_545 S
C1687 H1652 0.930 1_565 S
C1687 C1686 1.363 1_565 S
C1687 C1688 1.372 . S
C1688 H1653 0.930 . S
C1688 C1687 1.372 . S
C1688 C1689 1.383 . S
C1689 C1688 1.383 . S
C1689 C1690 1.395 . S
C1690 H1654 0.930 . S
C1690 C1689 1.395 . S
C1690 C1691 1.362 . S
C1691 H1655 0.930 . S
C1691 C1686 1.390 1_565 S
C1691 C1690 1.362 . S
C1692 C1681 1.492 . S
C1692 C1693 1.377 . S
C1692 C1697 1.397 . S
C1693 H1656 0.931 . S
C1693 C1692 1.377 . S
C1693 C1694 1.376 . S
C1694 H1657 0.930 . S
C1694 C1693 1.376 . S
C1694 C1695 1.376 . S
C1695 C1694 1.376 . S
C1695 C1696 1.378 . S
C1695 C1722 1.486 . S
C1696 H1658 0.930 . S
C1696 C1695 1.378 . S
C1696 C1697 1.376 . S
C1697 H1659 0.929 . S
C1697 C1692 1.397 . S
C1697 C1696 1.376 . S
C1698 C1682 1.509 . S
C1698 C1699 1.391 . S
C1698 C1703 1.386 . S
C1699 H1660 0.930 . S
C1699 C1698 1.391 . S
C1699 C1700 1.375 . S
C1700 H1661 0.931 . S
C1700 C1699 1.375 . S
C1700 C1701 1.375 . S
C1701 C1700 1.375 . S
C1701 C1702 1.361 . S
C1702 H1662 0.930 . S
C1702 C1701 1.361 . S
C1702 C1703 1.399 . S
C1703 H1663 0.929 . S
C1703 C1698 1.386 . S
C1703 C1702 1.399 . S
C1704 C1683 1.485 . S
C1704 C1705 1.394 . S
C1704 C1709 1.360 . S
C1705 H1664 0.931 . S
C1705 C1704 1.394 . S
C1705 C1706 1.372 . S
C1706 H1665 0.930 . S
C1706 C1705 1.372 . S
C1706 C1707 1.397 . S
C1707 C1706 1.397 . S
C1707 C1708 1.390 . S
C1707 C1723 1.476 . S
C1708 H1666 0.930 . S
C1708 C1707 1.390 . S
C1708 C1709 1.366 . S
C1709 H1667 0.932 . S
C1709 C1704 1.360 . S
C1709 C1708 1.366 . S
C1710 C1684 1.490 . S
C1710 C1711 1.380 . S
C1710 C1715 1.386 . S
C1711 H1668 0.930 . S
C1711 C1710 1.380 . S
C1711 C1712 1.381 . S
C1712 H1669 0.929 . S
C1712 C1711 1.381 . S
C1712 C1713 1.371 . S
C1713 C1712 1.371 . S
C1713 C1714 1.380 . S
C1714 H1670 0.931 . S
C1714 C1713 1.380 . S
C1714 C1715 1.387 . S
C1715 H1671 0.930 . S
C1715 C1710 1.386 . S
C1715 C1714 1.387 . S
C1716 C1685 1.519 . S
C1716 C1717 1.377 . S
C1716 C1721 1.361 . S
C1717 H1672 0.929 . S
C1717 C1716 1.377 . S
C1717 C1718 1.386 1_545 S
C1718 H1673 0.931 . S
C1718 C1717 1.386 1_565 S
C1718 C1719 1.363 . S
C1719 C1718 1.363 . S
C1719 C1720 1.385 . S
C1720 H1674 0.930 . S
C1720 C1719 1.385 . S
C1720 C1721 1.396 1_565 S
C1721 H1675 0.929 . S
C1721 C1716 1.361 . S
C1721 C1720 1.396 1_545 S
C1722 O1676 1.300 . S
C1722 O1677 1.209 . S
C1722 C1695 1.486 . S
C1723 O1678 1.199 . S
C1723 O1679 1.297 . S
C1723 C1707 1.476 . S
H1724 O1750 0.856 . S
H1725 O1753 0.854 . S
H1726 C1761 0.930 . S
H1727 C1762 0.930 . S
H1728 C1764 0.930 . S
H1729 C1765 0.930 . S
H1730 C1767 0.931 . S
H1731 C1768 0.930 . S
H1732 C1770 0.930 . S
H1733 C1771 0.929 . S
H1734 C1773 0.930 . S
H1735 C1774 0.931 . S
H1736 C1776 0.930 . S
H1737 C1777 0.929 . S
H1738 C1779 0.931 . S
H1739 C1780 0.930 . S
H1740 C1782 0.930 . S
H1741 C1783 0.932 . S
H1742 C1785 0.930 . S
H1743 C1786 0.929 . S
H1744 C1788 0.931 . S
H1745 C1789 0.930 . S
H1746 C1791 0.929 . S
H1747 C1792 0.931 . S
H1748 C1794 0.930 . S
H1749 C1795 0.929 . S
O1750 H1724 0.856 . S
O1750 C1796 1.300 . S
O1751 C1796 1.209 . S
O1752 C1797 1.199 . S
O1753 H1725 0.854 . S
O1753 C1797 1.297 . S
C1754 C1755 1.404 . S
C1754 C1759 1.397 . S
C1754 C1760 1.492 . S
C1755 C1754 1.404 . S
C1755 C1756 1.396 1_455 S
C1755 C1766 1.492 . S
C1756 C1755 1.396 1_655 S
C1756 C1757 1.397 . S
C1756 C1772 1.509 . S
C1757 C1756 1.397 . S
C1757 C1758 1.412 . S
C1757 C1778 1.485 . S
C1758 C1757 1.412 . S
C1758 C1759 1.388 1_655 S
C1758 C1784 1.490 . S
C1759 C1754 1.397 . S
C1759 C1758 1.388 1_455 S
C1759 C1790 1.519 . S
C1760 C1754 1.492 . S
C1760 C1761 1.363 . S
C1760 C1765 1.390 . S
C1761 H1726 0.930 . S
C1761 C1760 1.363 . S
C1761 C1762 1.372 . S
C1762 H1727 0.930 . S
C1762 C1761 1.372 . S
C1762 C1763 1.383 . S
C1763 C1762 1.383 . S
C1763 C1764 1.395 . S
C1764 H1728 0.930 . S
C1764 C1763 1.395 . S
C1764 C1765 1.362 . S
C1765 H1729 0.930 . S
C1765 C1760 1.390 . S
C1765 C1764 1.362 . S
C1766 C1755 1.492 . S
C1766 C1767 1.377 . S
C1766 C1771 1.397 . S
C1767 H1730 0.931 . S
C1767 C1766 1.377 . S
C1767 C1768 1.376 . S
C1768 H1731 0.930 . S
C1768 C1767 1.376 . S
C1768 C1769 1.376 . S
C1769 C1768 1.376 . S
C1769 C1770 1.378 . S
C1769 C1796 1.486 . S
C1770 H1732 0.930 . S
C1770 C1769 1.378 . S
C1770 C1771 1.376 . S
C1771 H1733 0.929 . S
C1771 C1766 1.397 . S
C1771 C1770 1.376 . S
C1772 C1756 1.509 . S
C1772 C1773 1.391 . S
C1772 C1777 1.386 . S
C1773 H1734 0.930 . S
C1773 C1772 1.391 . S
C1773 C1774 1.375 . S
C1774 H1735 0.931 . S
C1774 C1773 1.375 . S
C1774 C1775 1.375 . S
C1775 C1774 1.375 . S
C1775 C1776 1.361 . S
C1776 H1736 0.930 . S
C1776 C1775 1.361 . S
C1776 C1777 1.399 . S
C1777 H1737 0.929 . S
C1777 C1772 1.386 . S
C1777 C1776 1.399 . S
C1778 C1757 1.485 . S
C1778 C1779 1.394 . S
C1778 C1783 1.360 . S
C1779 H1738 0.931 . S
C1779 C1778 1.394 . S
C1779 C1780 1.372 . S
C1780 H1739 0.930 . S
C1780 C1779 1.372 . S
C1780 C1781 1.397 . S
C1781 C1780 1.397 . S
C1781 C1782 1.390 . S
C1781 C1797 1.476 . S
C1782 H1740 0.930 . S
C1782 C1781 1.390 . S
C1782 C1783 1.366 . S
C1783 H1741 0.932 . S
C1783 C1778 1.360 . S
C1783 C1782 1.366 . S
C1784 C1758 1.490 . S
C1784 C1785 1.380 . S
C1784 C1789 1.386 . S
C1785 H1742 0.930 . S
C1785 C1784 1.380 . S
C1785 C1786 1.381 . S
C1786 H1743 0.929 . S
C1786 C1785 1.381 . S
C1786 C1787 1.371 . S
C1787 C1786 1.371 . S
C1787 C1788 1.380 . S
C1788 H1744 0.931 . S
C1788 C1787 1.380 . S
C1788 C1789 1.387 . S
C1789 H1745 0.930 . S
C1789 C1784 1.386 . S
C1789 C1788 1.387 . S
C1790 C1759 1.519 . S
C1790 C1791 1.377 . S
C1790 C1795 1.361 . S
C1791 H1746 0.929 . S
C1791 C1790 1.377 . S
C1791 C1792 1.386 . S
C1792 H1747 0.931 . S
C1792 C1791 1.386 . S
C1792 C1793 1.363 . S
C1793 C1792 1.363 . S
C1793 C1794 1.385 . S
C1794 H1748 0.930 . S
C1794 C1793 1.385 . S
C1794 C1795 1.396 . S
C1795 H1749 0.929 . S
C1795 C1790 1.361 . S
C1795 C1794 1.396 . S
C1796 O1750 1.300 . S
C1796 O1751 1.209 . S
C1796 C1769 1.486 . S
C1797 O1752 1.199 . S
C1797 O1753 1.297 . S
C1797 C1781 1.476 . S
H1798 O1824 0.856 . S
H1799 O1827 0.854 . S
H1800 C1835 0.930 . S
H1801 C1836 0.930 . S
H1802 C1838 0.930 . S
H1803 C1839 0.930 . S
H1804 C1841 0.931 . S
H1805 C1842 0.930 . S
H1806 C1844 0.930 . S
H1807 C1845 0.929 . S
H1808 C1847 0.930 . S
H1809 C1848 0.931 . S
H1810 C1850 0.930 . S
H1811 C1851 0.929 . S
H1812 C1853 0.931 . S
H1813 C1854 0.930 . S
H1814 C1856 0.930 . S
H1815 C1857 0.932 . S
H1816 C1859 0.930 . S
H1817 C1860 0.929 . S
H1818 C1862 0.931 . S
H1819 C1863 0.930 . S
H1820 C1865 0.929 . S
H1821 C1866 0.931 . S
H1822 C1868 0.930 . S
H1823 C1869 0.929 . S
O1824 H1798 0.856 . S
O1824 C1870 1.300 . S
O1825 C1870 1.209 . S
O1826 C1871 1.199 . S
O1827 H1799 0.854 . S
O1827 C1871 1.297 . S
C1828 C1829 1.404 1_545 S
C1828 C1833 1.397 1_545 S
C1828 C1834 1.492 . S
C1829 C1828 1.404 1_565 S
C1829 C1830 1.396 . S
C1829 C1840 1.492 . S
C1830 C1829 1.396 . S
C1830 C1831 1.397 . S
C1830 C1846 1.509 . S
C1831 C1830 1.397 . S
C1831 C1832 1.412 . S
C1831 C1852 1.485 . S
C1832 C1831 1.412 . S
C1832 C1833 1.388 . S
C1832 C1858 1.490 . S
C1833 C1828 1.397 1_565 S
C1833 C1832 1.388 . S
C1833 C1864 1.519 1_565 S
C1834 C1828 1.492 . S
C1834 C1835 1.363 . S
C1834 C1839 1.390 . S
C1835 H1800 0.930 . S
C1835 C1834 1.363 . S
C1835 C1836 1.372 . S
C1836 H1801 0.930 . S
C1836 C1835 1.372 . S
C1836 C1837 1.383 . S
C1837 C1836 1.383 . S
C1837 C1838 1.395 . S
C1838 H1802 0.930 . S
C1838 C1837 1.395 . S
C1838 C1839 1.362 . S
C1839 H1803 0.930 . S
C1839 C1834 1.390 . S
C1839 C1838 1.362 . S
C1840 C1829 1.492 . S
C1840 C1841 1.377 . S
C1840 C1845 1.397 1_565 S
C1841 H1804 0.931 . S
C1841 C1840 1.377 . S
C1841 C1842 1.376 . S
C1842 H1805 0.930 . S
C1842 C1841 1.376 . S
C1842 C1843 1.376 1_565 S
C1843 C1842 1.376 1_545 S
C1843 C1844 1.378 . S
C1843 C1870 1.486 . S
C1844 H1806 0.930 . S
C1844 C1843 1.378 . S
C1844 C1845 1.376 . S
C1845 H1807 0.929 . S
C1845 C1840 1.397 1_545 S
C1845 C1844 1.376 . S
C1846 C1830 1.509 . S
C1846 C1847 1.391 . S
C1846 C1851 1.386 . S
C1847 H1808 0.930 . S
C1847 C1846 1.391 . S
C1847 C1848 1.375 . S
C1848 H1809 0.931 . S
C1848 C1847 1.375 . S
C1848 C1849 1.375 . S
C1849 C1848 1.375 . S
C1849 C1850 1.361 . S
C1850 H1810 0.930 . S
C1850 C1849 1.361 . S
C1850 C1851 1.399 . S
C1851 H1811 0.929 . S
C1851 C1846 1.386 . S
C1851 C1850 1.399 . S
C1852 C1831 1.485 . S
C1852 C1853 1.394 . S
C1852 C1857 1.360 . S
C1853 H1812 0.931 . S
C1853 C1852 1.394 . S
C1853 C1854 1.372 . S
C1854 H1813 0.930 . S
C1854 C1853 1.372 . S
C1854 C1855 1.397 . S
C1855 C1854 1.397 . S
C1855 C1856 1.390 . S
C1855 C1871 1.476 . S
C1856 H1814 0.930 . S
C1856 C1855 1.390 . S
C1856 C1857 1.366 . S
C1857 H1815 0.932 . S
C1857 C1852 1.360 . S
C1857 C1856 1.366 . S
C1858 C1832 1.490 . S
C1858 C1859 1.380 . S
C1858 C1863 1.386 . S
C1859 H1816 0.930 . S
C1859 C1858 1.380 . S
C1859 C1860 1.381 . S
C1860 H1817 0.929 . S
C1860 C1859 1.381 . S
C1860 C1861 1.371 . S
C1861 C1860 1.371 . S
C1861 C1862 1.380 . S
C1862 H1818 0.931 . S
C1862 C1861 1.380 . S
C1862 C1863 1.387 . S
C1863 H1819 0.930 . S
C1863 C1858 1.386 . S
C1863 C1862 1.387 . S
C1864 C1833 1.519 1_545 S
C1864 C1865 1.377 . S
C1864 C1869 1.361 . S
C1865 H1820 0.929 . S
C1865 C1864 1.377 . S
C1865 C1866 1.386 . S
C1866 H1821 0.931 . S
C1866 C1865 1.386 . S
C1866 C1867 1.363 . S
C1867 C1866 1.363 . S
C1867 C1868 1.385 . S
C1868 H1822 0.930 . S
C1868 C1867 1.385 . S
C1868 C1869 1.396 . S
C1869 H1823 0.929 . S
C1869 C1864 1.361 . S
C1869 C1868 1.396 . S
C1870 O1824 1.300 . S
C1870 O1825 1.209 . S
C1870 C1843 1.486 . S
C1871 O1826 1.199 . S
C1871 O1827 1.297 . S
C1871 C1855 1.476 . S
H1872 O1898 0.856 . S
H1873 O1901 0.854 . S
H1874 C1909 0.928 . S
H1875 C1910 0.930 . S
H1876 C1912 0.930 . S
H1877 C1913 0.930 . S
H1878 C1915 0.931 . S
H1879 C1916 0.930 . S
H1880 C1918 0.930 . S
H1881 C1919 0.929 . S
H1882 C1921 0.930 . S
H1883 C1922 0.931 . S
H1884 C1924 0.930 . S
H1885 C1925 0.929 . S
H1886 C1927 0.931 . S
H1887 C1928 0.930 . S
H1888 C1930 0.930 . S
H1889 C1931 0.932 . S
H1890 C1933 0.930 . S
H1891 C1934 0.929 . S
H1892 C1936 0.931 . S
H1893 C1937 0.930 . S
H1894 C1939 0.931 . S
H1895 C1940 0.931 . S
H1896 C1942 0.930 . S
H1897 C1943 0.929 . S
O1898 H1872 0.856 . S
O1898 C1944 1.300 . S
O1899 C1944 1.209 . S
O1900 C1945 1.199 . S
O1901 H1873 0.854 . S
O1901 C1945 1.297 . S
C1902 C1903 1.404 . S
C1902 C1907 1.397 . S
C1902 C1908 1.492 . S
C1903 C1902 1.404 . S
C1903 C1904 1.396 . S
C1903 C1914 1.492 . S
C1904 C1903 1.396 . S
C1904 C1905 1.397 . S
C1904 C1920 1.509 . S
C1905 C1904 1.397 . S
C1905 C1906 1.412 . S
C1905 C1926 1.485 . S
C1906 C1905 1.412 . S
C1906 C1907 1.388 . S
C1906 C1932 1.490 . S
C1907 C1902 1.397 . S
C1907 C1906 1.388 . S
C1907 C1938 1.519 . S
C1908 C1902 1.492 . S
C1908 C1909 1.362 . S
C1908 C1913 1.390 1_455 S
C1909 H1874 0.928 . S
C1909 C1908 1.362 . S
C1909 C1910 1.375 1_455 S
C1910 H1875 0.930 . S
C1910 C1909 1.375 1_655 S
C1910 C1911 1.383 . S
C1911 C1910 1.383 . S
C1911 C1912 1.395 . S
C1912 H1876 0.930 . S
C1912 C1911 1.395 . S
C1912 C1913 1.362 . S
C1913 H1877 0.930 . S
C1913 C1908 1.390 1_655 S
C1913 C1912 1.362 . S
C1914 C1903 1.492 . S
C1914 C1915 1.377 . S
C1914 C1919 1.397 . S
C1915 H1878 0.931 . S
C1915 C1914 1.377 . S
C1915 C1916 1.376 . S
C1916 H1879 0.930 . S
C1916 C1915 1.376 . S
C1916 C1917 1.376 . S
C1917 C1916 1.376 . S
C1917 C1918 1.378 . S
C1917 C1944 1.486 . S
C1918 H1880 0.930 . S
C1918 C1917 1.378 . S
C1918 C1919 1.376 . S
C1919 H1881 0.929 . S
C1919 C1914 1.397 . S
C1919 C1918 1.376 . S
C1920 C1904 1.509 . S
C1920 C1921 1.391 . S
C1920 C1925 1.386 . S
C1921 H1882 0.930 . S
C1921 C1920 1.391 . S
C1921 C1922 1.375 . S
C1922 H1883 0.931 . S
C1922 C1921 1.375 . S
C1922 C1923 1.375 . S
C1923 C1922 1.375 . S
C1923 C1924 1.361 . S
C1924 H1884 0.930 . S
C1924 C1923 1.361 . S
C1924 C1925 1.399 . S
C1925 H1885 0.929 . S
C1925 C1920 1.386 . S
C1925 C1924 1.399 . S
C1926 C1905 1.485 . S
C1926 C1927 1.394 . S
C1926 C1931 1.360 . S
C1927 H1886 0.931 . S
C1927 C1926 1.394 . S
C1927 C1928 1.372 . S
C1928 H1887 0.930 . S
C1928 C1927 1.372 . S
C1928 C1929 1.397 . S
C1929 C1928 1.397 . S
C1929 C1930 1.390 . S
C1929 C1945 1.476 . S
C1930 H1888 0.930 . S
C1930 C1929 1.390 . S
C1930 C1931 1.366 . S
C1931 H1889 0.932 . S
C1931 C1926 1.360 . S
C1931 C1930 1.366 . S
C1932 C1906 1.490 . S
C1932 C1933 1.380 . S
C1932 C1937 1.386 . S
C1933 H1890 0.930 . S
C1933 C1932 1.380 . S
C1933 C1934 1.381 . S
C1934 H1891 0.929 . S
C1934 C1933 1.381 . S
C1934 C1935 1.371 . S
C1935 C1934 1.371 . S
C1935 C1936 1.380 . S
C1936 H1892 0.931 . S
C1936 C1935 1.380 . S
C1936 C1937 1.387 . S
C1937 H1893 0.930 . S
C1937 C1932 1.386 . S
C1937 C1936 1.387 . S
C1938 C1907 1.519 . S
C1938 C1939 1.388 . S
C1938 C1943 1.361 . S
C1939 H1894 0.931 . S
C1939 C1938 1.388 . S
C1939 C1940 1.373 1_455 S
C1940 H1895 0.931 . S
C1940 C1939 1.373 1_655 S
C1940 C1941 1.363 . S
C1941 C1940 1.363 . S
C1941 C1942 1.385 . S
C1942 H1896 0.930 . S
C1942 C1941 1.385 . S
C1942 C1943 1.396 1_655 S
C1943 H1897 0.929 . S
C1943 C1938 1.361 . S
C1943 C1942 1.396 1_455 S
C1944 O1898 1.300 . S
C1944 O1899 1.209 . S
C1944 C1917 1.486 . S
C1945 O1900 1.199 . S
C1945 O1901 1.297 . S
C1945 C1929 1.476 . S
H1946 O1972 0.856 . S
H1947 O1975 0.854 . S
H1948 C1983 0.930 1_545 S
H1949 C1984 0.930 . S
H1950 C1986 0.930 . S
H1951 C1987 0.930 . S
H1952 C1989 0.931 . S
H1953 C1990 0.930 . S
H1954 C1992 0.930 . S
H1955 C1993 0.929 . S
H1956 C1995 0.930 . S
H1957 C1996 0.931 . S
H1958 C1998 0.930 . S
H1959 C1999 0.929 . S
H1960 C2001 0.931 . S
H1961 C2002 0.930 . S
H1962 C2004 0.930 . S
H1963 C2005 0.932 . S
H1964 C2007 0.930 . S
H1965 C2008 0.929 . S
H1966 C2010 0.931 . S
H1967 C2011 0.930 . S
H1968 C2013 0.942 . S
H1969 C2014 0.931 . S
H1970 C2016 0.930 . S
H1971 C2017 0.929 . S
O1972 H1946 0.856 . S
O1972 C2018 1.300 . S
O1973 C2018 1.209 . S
O1974 C2019 1.199 . S
O1975 H1947 0.854 . S
O1975 C2019 1.297 . S
C1976 C1977 1.404 . S
C1976 C1981 1.397 . S
C1976 C1982 1.492 . S
C1977 C1976 1.404 . S
C1977 C1978 1.396 . S
C1977 C1988 1.492 . S
C1978 C1977 1.396 . S
C1978 C1979 1.397 . S
C1978 C1994 1.509 . S
C1979 C1978 1.397 . S
C1979 C1980 1.412 . S
C1979 C2000 1.485 . S
C1980 C1979 1.412 . S
C1980 C1981 1.388 . S
C1980 C2006 1.490 . S
C1981 C1976 1.397 . S
C1981 C1980 1.388 . S
C1981 C2012 1.519 . S
C1982 C1976 1.492 . S
C1982 C1983 1.363 1_545 S
C1982 C1987 1.390 1_545 S
C1983 H1948 0.930 1_565 S
C1983 C1982 1.363 1_565 S
C1983 C1984 1.372 . S
C1984 H1949 0.930 . S
C1984 C1983 1.372 . S
C1984 C1985 1.383 . S
C1985 C1984 1.383 . S
C1985 C1986 1.395 . S
C1986 H1950 0.930 . S
C1986 C1985 1.395 . S
C1986 C1987 1.362 . S
C1987 H1951 0.930 . S
C1987 C1982 1.390 1_565 S
C1987 C1986 1.362 . S
C1988 C1977 1.492 . S
C1988 C1989 1.377 . S
C1988 C1993 1.397 . S
C1989 H1952 0.931 . S
C1989 C1988 1.377 . S
C1989 C1990 1.376 . S
C1990 H1953 0.930 . S
C1990 C1989 1.376 . S
C1990 C1991 1.376 . S
C1991 C1990 1.376 . S
C1991 C1992 1.378 . S
C1991 C2018 1.486 . S
C1992 H1954 0.930 . S
C1992 C1991 1.378 . S
C1992 C1993 1.376 . S
C1993 H1955 0.929 . S
C1993 C1988 1.397 . S
C1993 C1992 1.376 . S
C1994 C1978 1.509 . S
C1994 C1995 1.391 . S
C1994 C1999 1.386 . S
C1995 H1956 0.930 . S
C1995 C1994 1.391 . S
C1995 C1996 1.375 . S
C1996 H1957 0.931 . S
C1996 C1995 1.375 . S
C1996 C1997 1.375 . S
C1997 C1996 1.375 . S
C1997 C1998 1.361 . S
C1998 H1958 0.930 . S
C1998 C1997 1.361 . S
C1998 C1999 1.399 . S
C1999 H1959 0.929 . S
C1999 C1994 1.386 . S
C1999 C1998 1.399 . S
C2000 C1979 1.485 . S
C2000 C2001 1.394 . S
C2000 C2005 1.360 . S
C2001 H1960 0.931 . S
C2001 C2000 1.394 . S
C2001 C2002 1.372 . S
C2002 H1961 0.930 . S
C2002 C2001 1.372 . S
C2002 C2003 1.397 . S
C2003 C2002 1.397 . S
C2003 C2004 1.390 . S
C2003 C2019 1.476 . S
C2004 H1962 0.930 . S
C2004 C2003 1.390 . S
C2004 C2005 1.366 . S
C2005 H1963 0.932 . S
C2005 C2000 1.360 . S
C2005 C2004 1.366 . S
C2006 C1980 1.490 . S
C2006 C2007 1.380 . S
C2006 C2011 1.386 . S
C2007 H1964 0.930 . S
C2007 C2006 1.380 . S
C2007 C2008 1.381 . S
C2008 H1965 0.929 . S
C2008 C2007 1.381 . S
C2008 C2009 1.371 . S
C2009 C2008 1.371 . S
C2009 C2010 1.380 . S
C2010 H1966 0.931 . S
C2010 C2009 1.380 . S
C2010 C2011 1.387 . S
C2011 H1967 0.930 . S
C2011 C2006 1.386 . S
C2011 C2010 1.387 . S
C2012 C1981 1.519 . S
C2012 C2013 1.447 . S
C2012 C2017 1.361 . S
C2013 H1968 0.942 . S
C2013 C2012 1.447 . S
C2013 C2014 1.314 1_545 S
C2014 H1969 0.931 . S
C2014 C2013 1.314 1_565 S
C2014 C2015 1.363 . S
C2015 C2014 1.363 . S
C2015 C2016 1.385 . S
C2016 H1970 0.930 . S
C2016 C2015 1.385 . S
C2016 C2017 1.396 1_565 S
C2017 H1971 0.929 . S
C2017 C2012 1.361 . S
C2017 C2016 1.396 1_545 S
C2018 O1972 1.300 . S
C2018 O1973 1.209 . S
C2018 C1991 1.486 . S
C2019 O1974 1.199 . S
C2019 O1975 1.297 . S
C2019 C2003 1.476 . S
H2020 O2046 0.856 . S
H2021 O2049 0.854 . S
H2022 C2057 0.930 . S
H2023 C2058 0.930 . S
H2024 C2060 0.930 . S
H2025 C2061 0.930 . S
H2026 C2063 0.931 . S
H2027 C2064 0.930 . S
H2028 C2066 0.930 . S
H2029 C2067 0.929 . S
H2030 C2069 0.930 . S
H2031 C2070 0.931 . S
H2032 C2072 0.930 . S
H2033 C2073 0.929 . S
H2034 C2075 0.931 . S
H2035 C2076 0.930 . S
H2036 C2078 0.930 . S
H2037 C2079 0.932 . S
H2038 C2081 0.930 . S
H2039 C2082 0.929 . S
H2040 C2084 0.931 . S
H2041 C2085 0.930 . S
H2042 C2087 0.929 . S
H2043 C2088 0.931 . S
H2044 C2090 0.930 . S
H2045 C2091 0.929 . S
O2046 H2020 0.856 . S
O2046 C2092 1.300 . S
O2047 C2092 1.209 . S
O2048 C2093 1.199 . S
O2049 H2021 0.854 . S
O2049 C2093 1.297 . S
C2050 C2051 1.331 1_655 S
C2050 C2055 1.365 1_655 S
C2050 C2056 1.599 . S
C2051 C2050 1.331 1_455 S
C2051 C2052 1.396 . S
C2051 C2062 1.492 . S
C2052 C2051 1.396 . S
C2052 C2053 1.397 . S
C2052 C2068 1.509 . S
C2053 C2052 1.397 . S
C2053 C2054 1.412 . S
C2053 C2074 1.485 . S
C2054 C2053 1.412 . S
C2054 C2055 1.388 . S
C2054 C2080 1.490 . S
C2055 C2050 1.365 1_455 S
C2055 C2054 1.388 . S
C2055 C2086 1.519 1_455 S
C2056 C2050 1.599 . S
C2056 C2057 1.363 . S
C2056 C2061 1.390 . S
C2057 H2022 0.930 . S
C2057 C2056 1.363 . S
C2057 C2058 1.372 . S
C2058 H2023 0.930 . S
C2058 C2057 1.372 . S
C2058 C2059 1.383 . S
C2059 C2058 1.383 . S
C2059 C2060 1.395 . S
C2060 H2024 0.930 . S
C2060 C2059 1.395 . S
C2060 C2061 1.362 . S
C2061 H2025 0.930 . S
C2061 C2056 1.390 . S
C2061 C2060 1.362 . S
C2062 C2051 1.492 . S
C2062 C2063 1.377 . S
C2062 C2067 1.397 1_455 S
C2063 H2026 0.931 . S
C2063 C2062 1.377 . S
C2063 C2064 1.376 . S
C2064 H2027 0.930 . S
C2064 C2063 1.376 . S
C2064 C2065 1.376 1_455 S
C2065 C2064 1.376 1_655 S
C2065 C2066 1.378 . S
C2065 C2092 1.486 . S
C2066 H2028 0.930 . S
C2066 C2065 1.378 . S
C2066 C2067 1.376 . S
C2067 H2029 0.929 . S
C2067 C2062 1.397 1_655 S
C2067 C2066 1.376 . S
C2068 C2052 1.509 . S
C2068 C2069 1.391 . S
C2068 C2073 1.386 . S
C2069 H2030 0.930 . S
C2069 C2068 1.391 . S
C2069 C2070 1.375 . S
C2070 H2031 0.931 . S
C2070 C2069 1.375 . S
C2070 C2071 1.375 . S
C2071 C2070 1.375 . S
C2071 C2072 1.361 . S
C2072 H2032 0.930 . S
C2072 C2071 1.361 . S
C2072 C2073 1.399 . S
C2073 H2033 0.929 . S
C2073 C2068 1.386 . S
C2073 C2072 1.399 . S
C2074 C2053 1.485 . S
C2074 C2075 1.394 . S
C2074 C2079 1.360 . S
C2075 H2034 0.931 . S
C2075 C2074 1.394 . S
C2075 C2076 1.372 . S
C2076 H2035 0.930 . S
C2076 C2075 1.372 . S
C2076 C2077 1.397 . S
C2077 C2076 1.397 . S
C2077 C2078 1.390 . S
C2077 C2093 1.476 . S
C2078 H2036 0.930 . S
C2078 C2077 1.390 . S
C2078 C2079 1.366 . S
C2079 H2037 0.932 . S
C2079 C2074 1.360 . S
C2079 C2078 1.366 . S
C2080 C2054 1.490 . S
C2080 C2081 1.380 . S
C2080 C2085 1.386 . S
C2081 H2038 0.930 . S
C2081 C2080 1.380 . S
C2081 C2082 1.381 . S
C2082 H2039 0.929 . S
C2082 C2081 1.381 . S
C2082 C2083 1.371 . S
C2083 C2082 1.371 . S
C2083 C2084 1.380 . S
C2084 H2040 0.931 . S
C2084 C2083 1.380 . S
C2084 C2085 1.387 . S
C2085 H2041 0.930 . S
C2085 C2080 1.386 . S
C2085 C2084 1.387 . S
C2086 C2055 1.519 1_655 S
C2086 C2087 1.377 . S
C2086 C2091 1.361 . S
C2087 H2042 0.929 . S
C2087 C2086 1.377 . S
C2087 C2088 1.386 . S
C2088 H2043 0.931 . S
C2088 C2087 1.386 . S
C2088 C2089 1.363 . S
C2089 C2088 1.363 . S
C2089 C2090 1.385 . S
C2090 H2044 0.930 . S
C2090 C2089 1.385 . S
C2090 C2091 1.396 . S
C2091 H2045 0.929 . S
C2091 C2086 1.361 . S
C2091 C2090 1.396 . S
C2092 O2046 1.300 . S
C2092 O2047 1.209 . S
C2092 C2065 1.486 . S
C2093 O2048 1.199 . S
C2093 O2049 1.297 . S
C2093 C2077 1.476 . S
H2094 O2120 0.856 . S
H2095 O2123 0.854 . S
H2096 C2131 0.930 . S
H2097 C2132 0.930 . S
H2098 C2134 0.930 . S
H2099 C2135 0.930 . S
H2100 C2137 0.908 1_565 S
H2101 C2138 0.930 . S
H2102 C2140 0.930 . S
H2103 C2141 0.929 . S
H2104 C2143 0.930 . S
H2105 C2144 0.931 . S
H2106 C2146 0.930 . S
H2107 C2147 0.929 . S
H2108 C2149 0.931 . S
H2109 C2150 0.930 . S
H2110 C2152 0.930 . S
H2111 C2153 0.932 . S
H2112 C2155 0.930 1_545 S
H2113 C2156 0.929 . S
H2114 C2158 0.931 . S
H2115 C2159 0.930 . S
H2116 C2161 0.929 . S
H2117 C2162 0.931 . S
H2118 C2164 0.930 . S
H2119 C2165 0.929 . S
O2120 H2094 0.856 . S
O2120 C2166 1.300 . S
O2121 C2166 1.209 . S
O2122 C2167 1.199 . S
O2123 H2095 0.854 . S
O2123 C2167 1.297 . S
C2124 C2125 1.404 . S
C2124 C2129 1.397 . S
C2124 C2130 1.492 . S
C2125 C2124 1.404 . S
C2125 C2126 1.396 1_545 S
C2125 C2136 1.492 . S
C2126 C2125 1.396 1_565 S
C2126 C2127 1.397 . S
C2126 C2142 1.509 . S
C2127 C2126 1.397 . S
C2127 C2128 1.412 . S
C2127 C2148 1.485 . S
C2128 C2127 1.412 . S
C2128 C2129 1.388 1_565 S
C2128 C2154 1.490 . S
C2129 C2124 1.397 . S
C2129 C2128 1.388 1_545 S
C2129 C2160 1.519 . S
C2130 C2124 1.492 . S
C2130 C2131 1.363 . S
C2130 C2135 1.390 . S
C2131 H2096 0.930 . S
C2131 C2130 1.363 . S
C2131 C2132 1.372 . S
C2132 H2097 0.930 . S
C2132 C2131 1.372 . S
C2132 C2133 1.383 . S
C2133 C2132 1.383 . S
C2133 C2134 1.395 . S
C2134 H2098 0.930 . S
C2134 C2133 1.395 . S
C2134 C2135 1.362 . S
C2135 H2099 0.930 . S
C2135 C2130 1.390 . S
C2135 C2134 1.362 . S
C2136 C2125 1.492 . S
C2136 C2137 1.377 . S
C2136 C2141 1.397 . S
C2137 H2100 0.908 1_545 S
C2137 C2136 1.377 . S
C2137 C2138 1.376 . S
C2138 H2101 0.930 . S
C2138 C2137 1.376 . S
C2138 C2139 1.376 . S
C2139 C2138 1.376 . S
C2139 C2140 1.378 . S
C2139 C2166 1.486 . S
C2140 H2102 0.930 . S
C2140 C2139 1.378 . S
C2140 C2141 1.376 . S
C2141 H2103 0.929 . S
C2141 C2136 1.397 . S
C2141 C2140 1.376 . S
C2142 C2126 1.509 . S
C2142 C2143 1.391 . S
C2142 C2147 1.386 . S
C2143 H2104 0.930 . S
C2143 C2142 1.391 . S
C2143 C2144 1.375 . S
C2144 H2105 0.931 . S
C2144 C2143 1.375 . S
C2144 C2145 1.375 . S
C2145 C2144 1.375 . S
C2145 C2146 1.361 . S
C2146 H2106 0.930 . S
C2146 C2145 1.361 . S
C2146 C2147 1.399 . S
C2147 H2107 0.929 . S
C2147 C2142 1.386 . S
C2147 C2146 1.399 . S
C2148 C2127 1.485 . S
C2148 C2149 1.394 . S
C2148 C2153 1.360 . S
C2149 H2108 0.931 . S
C2149 C2148 1.394 . S
C2149 C2150 1.372 . S
C2150 H2109 0.930 . S
C2150 C2149 1.372 . S
C2150 C2151 1.397 . S
C2151 C2150 1.397 . S
C2151 C2152 1.390 . S
C2151 C2167 1.476 . S
C2152 H2110 0.930 . S
C2152 C2151 1.390 . S
C2152 C2153 1.366 . S
C2153 H2111 0.932 . S
C2153 C2148 1.360 . S
C2153 C2152 1.366 . S
C2154 C2128 1.490 . S
C2154 C2155 1.380 . S
C2154 C2159 1.386 . S
C2155 H2112 0.930 1_565 S
C2155 C2154 1.380 . S
C2155 C2156 1.381 . S
C2156 H2113 0.929 . S
C2156 C2155 1.381 . S
C2156 C2157 1.371 . S
C2157 C2156 1.371 . S
C2157 C2158 1.380 . S
C2158 H2114 0.931 . S
C2158 C2157 1.380 . S
C2158 C2159 1.387 . S
C2159 H2115 0.930 . S
C2159 C2154 1.386 . S
C2159 C2158 1.387 . S
C2160 C2129 1.519 . S
C2160 C2161 1.377 . S
C2160 C2165 1.361 . S
C2161 H2116 0.929 . S
C2161 C2160 1.377 . S
C2161 C2162 1.386 . S
C2162 H2117 0.931 . S
C2162 C2161 1.386 . S
C2162 C2163 1.363 . S
C2163 C2162 1.363 . S
C2163 C2164 1.385 . S
C2164 H2118 0.930 . S
C2164 C2163 1.385 . S
C2164 C2165 1.396 . S
C2165 H2119 0.929 . S
C2165 C2160 1.361 . S
C2165 C2164 1.396 . S
C2166 O2120 1.300 . S
C2166 O2121 1.209 . S
C2166 C2139 1.486 . S
C2167 O2122 1.199 . S
C2167 O2123 1.297 . S
C2167 C2151 1.476 . S
H2168 O2194 0.856 . S
H2169 O2197 0.854 . S
H2170 C2205 0.930 . S
H2171 C2206 0.930 . S
H2172 C2208 0.930 . S
H2173 C2209 0.930 . S
H2174 C2211 0.931 . S
H2175 C2212 0.930 . S
H2176 C2214 0.930 . S
H2177 C2215 0.929 . S
H2178 C2217 0.930 . S
H2179 C2218 0.931 . S
H2180 C2220 0.930 . S
H2181 C2221 0.929 . S
H2182 C2223 0.931 . S
H2183 C2224 0.930 . S
H2184 C2226 0.930 . S
H2185 C2227 0.932 . S
H2186 C2229 0.930 . S
H2187 C2230 0.929 . S
H2188 C2232 0.931 . S
H2189 C2233 0.930 . S
H2190 C2235 0.929 . S
H2191 C2236 0.931 . S
H2192 C2238 0.930 . S
H2193 C2239 0.929 . S
O2194 H2168 0.856 . S
O2194 C2240 1.300 . S
O2195 C2240 1.209 . S
O2196 C2241 1.199 . S
O2197 H2169 0.854 . S
O2197 C2241 1.297 . S
C2198 C2199 1.404 . S
C2198 C2203 1.397 . S
C2198 C2204 1.492 . S
C2199 C2198 1.404 . S
C2199 C2200 1.396 . S
C2199 C2210 1.492 . S
C2200 C2199 1.396 . S
C2200 C2201 1.397 . S
C2200 C2216 1.509 . S
C2201 C2200 1.397 . S
C2201 C2202 1.412 . S
C2201 C2222 1.485 . S
C2202 C2201 1.412 . S
C2202 C2203 1.388 . S
C2202 C2228 1.490 . S
C2203 C2198 1.397 . S
C2203 C2202 1.388 . S
C2203 C2234 1.519 . S
C2204 C2198 1.492 . S
C2204 C2205 1.363 . S
C2204 C2209 1.390 . S
C2205 H2170 0.930 . S
C2205 C2204 1.363 . S
C2205 C2206 1.372 . S
C2206 H2171 0.930 . S
C2206 C2205 1.372 . S
C2206 C2207 1.383 . S
C2207 C2206 1.383 . S
C2207 C2208 1.395 . S
C2208 H2172 0.930 . S
C2208 C2207 1.395 . S
C2208 C2209 1.362 . S
C2209 H2173 0.930 . S
C2209 C2204 1.390 . S
C2209 C2208 1.362 . S
C2210 C2199 1.492 . S
C2210 C2211 1.377 . S
C2210 C2215 1.397 . S
C2211 H2174 0.931 . S
C2211 C2210 1.377 . S
C2211 C2212 1.376 . S
C2212 H2175 0.930 . S
C2212 C2211 1.376 . S
C2212 C2213 1.376 . S
C2213 C2212 1.376 . S
C2213 C2214 1.378 . S
C2213 C2240 1.486 . S
C2214 H2176 0.930 . S
C2214 C2213 1.378 . S
C2214 C2215 1.376 . S
C2215 H2177 0.929 . S
C2215 C2210 1.397 . S
C2215 C2214 1.376 . S
C2216 C2200 1.509 . S
C2216 C2217 1.391 . S
C2216 C2221 1.386 . S
C2217 H2178 0.930 . S
C2217 C2216 1.391 . S
C2217 C2218 1.375 . S
C2218 H2179 0.931 . S
C2218 C2217 1.375 . S
C2218 C2219 1.375 . S
C2219 C2218 1.375 . S
C2219 C2220 1.361 . S
C2220 H2180 0.930 . S
C2220 C2219 1.361 . S
C2220 C2221 1.399 . S
C2221 H2181 0.929 . S
C2221 C2216 1.386 . S
C2221 C2220 1.399 . S
C2222 C2201 1.485 . S
C2222 C2223 1.394 . S
C2222 C2227 1.360 . S
C2223 H2182 0.931 . S
C2223 C2222 1.394 . S
C2223 C2224 1.372 . S
C2224 H2183 0.930 . S
C2224 C2223 1.372 . S
C2224 C2225 1.397 . S
C2225 C2224 1.397 . S
C2225 C2226 1.390 . S
C2225 C2241 1.476 . S
C2226 H2184 0.930 . S
C2226 C2225 1.390 . S
C2226 C2227 1.366 . S
C2227 H2185 0.932 . S
C2227 C2222 1.360 . S
C2227 C2226 1.366 . S
C2228 C2202 1.490 . S
C2228 C2229 1.380 . S
C2228 C2233 1.386 . S
C2229 H2186 0.930 . S
C2229 C2228 1.380 . S
C2229 C2230 1.381 . S
C2230 H2187 0.929 . S
C2230 C2229 1.381 . S
C2230 C2231 1.371 . S
C2231 C2230 1.371 . S
C2231 C2232 1.380 . S
C2232 H2188 0.931 . S
C2232 C2231 1.380 . S
C2232 C2233 1.387 . S
C2233 H2189 0.930 . S
C2233 C2228 1.386 . S
C2233 C2232 1.387 . S
C2234 C2203 1.519 . S
C2234 C2235 1.377 . S
C2234 C2239 1.361 . S
C2235 H2190 0.929 . S
C2235 C2234 1.377 . S
C2235 C2236 1.386 . S
C2236 H2191 0.931 . S
C2236 C2235 1.386 . S
C2236 C2237 1.363 . S
C2237 C2236 1.363 . S
C2237 C2238 1.385 . S
C2238 H2192 0.930 . S
C2238 C2237 1.385 . S
C2238 C2239 1.396 . S
C2239 H2193 0.929 . S
C2239 C2234 1.361 . S
C2239 C2238 1.396 . S
C2240 O2194 1.300 . S
C2240 O2195 1.209 . S
C2240 C2213 1.486 . S
C2241 O2196 1.199 . S
C2241 O2197 1.297 . S
C2241 C2225 1.476 . S
H2242 O2268 0.856 . S
H2243 O2271 0.854 . S
H2244 C2279 0.930 . S
H2245 C2280 0.930 . S
H2246 C2282 0.930 . S
H2247 C2283 0.930 . S
H2248 C2285 0.931 . S
H2249 C2286 0.930 . S
H2250 C2288 0.930 . S
H2251 C2289 0.929 . S
H2252 C2291 0.930 . S
H2253 C2292 0.931 . S
H2254 C2294 0.930 . S
H2255 C2295 0.929 . S
H2256 C2297 0.931 . S
H2257 C2298 0.930 . S
H2258 C2300 0.930 . S
H2259 C2301 0.932 . S
H2260 C2303 0.930 . S
H2261 C2304 0.929 . S
H2262 C2306 0.931 . S
H2263 C2307 0.930 . S
H2264 C2309 0.929 . S
H2265 C2310 0.931 . S
H2266 C2312 0.930 . S
H2267 C2313 0.929 . S
O2268 H2242 0.856 . S
O2268 C2314 1.300 . S
O2269 C2314 1.209 . S
O2270 C2315 1.199 . S
O2271 H2243 0.854 . S
O2271 C2315 1.297 . S
C2272 C2273 1.404 . S
C2272 C2277 1.397 . S
C2272 C2278 1.492 . S
C2273 C2272 1.404 . S
C2273 C2274 1.396 . S
C2273 C2284 1.492 . S
C2274 C2273 1.396 . S
C2274 C2275 1.397 . S
C2274 C2290 1.509 . S
C2275 C2274 1.397 . S
C2275 C2276 1.412 . S
C2275 C2296 1.485 . S
C2276 C2275 1.412 . S
C2276 C2277 1.388 . S
C2276 C2302 1.490 . S
C2277 C2272 1.397 . S
C2277 C2276 1.388 . S
C2277 C2308 1.519 . S
C2278 C2272 1.492 . S
C2278 C2279 1.363 . S
C2278 C2283 1.390 . S
C2279 H2244 0.930 . S
C2279 C2278 1.363 . S
C2279 C2280 1.372 . S
C2280 H2245 0.930 . S
C2280 C2279 1.372 . S
C2280 C2281 1.383 . S
C2281 C2280 1.383 . S
C2281 C2282 1.395 . S
C2282 H2246 0.930 . S
C2282 C2281 1.395 . S
C2282 C2283 1.362 . S
C2283 H2247 0.930 . S
C2283 C2278 1.390 . S
C2283 C2282 1.362 . S
C2284 C2273 1.492 . S
C2284 C2285 1.377 . S
C2284 C2289 1.397 . S
C2285 H2248 0.931 . S
C2285 C2284 1.377 . S
C2285 C2286 1.376 . S
C2286 H2249 0.930 . S
C2286 C2285 1.376 . S
C2286 C2287 1.376 . S
C2287 C2286 1.376 . S
C2287 C2288 1.378 . S
C2287 C2314 1.486 . S
C2288 H2250 0.930 . S
C2288 C2287 1.378 . S
C2288 C2289 1.376 . S
C2289 H2251 0.929 . S
C2289 C2284 1.397 . S
C2289 C2288 1.376 . S
C2290 C2274 1.509 . S
C2290 C2291 1.391 . S
C2290 C2295 1.386 . S
C2291 H2252 0.930 . S
C2291 C2290 1.391 . S
C2291 C2292 1.375 . S
C2292 H2253 0.931 . S
C2292 C2291 1.375 . S
C2292 C2293 1.375 . S
C2293 C2292 1.375 . S
C2293 C2294 1.361 . S
C2294 H2254 0.930 . S
C2294 C2293 1.361 . S
C2294 C2295 1.399 . S
C2295 H2255 0.929 . S
C2295 C2290 1.386 . S
C2295 C2294 1.399 . S
C2296 C2275 1.485 . S
C2296 C2297 1.394 . S
C2296 C2301 1.360 . S
C2297 H2256 0.931 . S
C2297 C2296 1.394 . S
C2297 C2298 1.372 . S
C2298 H2257 0.930 . S
C2298 C2297 1.372 . S
C2298 C2299 1.397 . S
C2299 C2298 1.397 . S
C2299 C2300 1.390 . S
C2299 C2315 1.476 . S
C2300 H2258 0.930 . S
C2300 C2299 1.390 . S
C2300 C2301 1.366 . S
C2301 H2259 0.932 . S
C2301 C2296 1.360 . S
C2301 C2300 1.366 . S
C2302 C2276 1.490 . S
C2302 C2303 1.380 . S
C2302 C2307 1.386 . S
C2303 H2260 0.930 . S
C2303 C2302 1.380 . S
C2303 C2304 1.381 . S
C2304 H2261 0.929 . S
C2304 C2303 1.381 . S
C2304 C2305 1.371 . S
C2305 C2304 1.371 . S
C2305 C2306 1.380 . S
C2306 H2262 0.931 . S
C2306 C2305 1.380 . S
C2306 C2307 1.387 . S
C2307 H2263 0.930 . S
C2307 C2302 1.386 . S
C2307 C2306 1.387 . S
C2308 C2277 1.519 . S
C2308 C2309 1.377 . S
C2308 C2313 1.361 . S
C2309 H2264 0.929 . S
C2309 C2308 1.377 . S
C2309 C2310 1.386 . S
C2310 H2265 0.931 . S
C2310 C2309 1.386 . S
C2310 C2311 1.363 . S
C2311 C2310 1.363 . S
C2311 C2312 1.385 . S
C2312 H2266 0.930 . S
C2312 C2311 1.385 . S
C2312 C2313 1.396 . S
C2313 H2267 0.929 . S
C2313 C2308 1.361 . S
C2313 C2312 1.396 . S
C2314 O2268 1.300 . S
C2314 O2269 1.209 . S
C2314 C2287 1.486 . S
C2315 O2270 1.199 . S
C2315 O2271 1.297 . S
C2315 C2299 1.476 . S
H2316 O2342 0.856 . S
H2317 O2345 0.854 . S
H2318 C2353 0.930 . S
H2319 C2354 0.930 . S
H2320 C2356 0.930 . S
H2321 C2357 0.930 . S
H2322 C2359 0.931 . S
H2323 C2360 0.930 . S
H2324 C2362 0.930 . S
H2325 C2363 0.929 . S
H2326 C2365 0.930 . S
H2327 C2366 0.931 . S
H2328 C2368 0.930 . S
H2329 C2369 0.929 . S
H2330 C2371 0.931 . S
H2331 C2372 0.930 . S
H2332 C2374 0.930 . S
H2333 C2375 0.932 . S
H2334 C2377 0.930 . S
H2335 C2378 0.929 . S
H2336 C2380 0.931 . S
H2337 C2381 0.930 . S
H2338 C2383 0.929 . S
H2339 C2384 0.931 . S
H2340 C2386 0.930 . S
H2341 C2387 0.929 . S
O2342 H2316 0.856 . S
O2342 C2388 1.300 . S
O2343 C2388 1.209 . S
O2344 C2389 1.199 . S
O2345 H2317 0.854 . S
O2345 C2389 1.297 . S
C2346 C2347 1.404 . S
C2346 C2351 1.397 . S
C2346 C2352 1.492 . S
C2347 C2346 1.404 . S
C2347 C2348 1.396 . S
C2347 C2358 1.492 . S
C2348 C2347 1.396 . S
C2348 C2349 1.397 . S
C2348 C2364 1.509 . S
C2349 C2348 1.397 . S
C2349 C2350 1.412 . S
C2349 C2370 1.485 . S
C2350 C2349 1.412 . S
C2350 C2351 1.388 . S
C2350 C2376 1.490 . S
C2351 C2346 1.397 . S
C2351 C2350 1.388 . S
C2351 C2382 1.519 . S
C2352 C2346 1.492 . S
C2352 C2353 1.363 . S
C2352 C2357 1.390 . S
C2353 H2318 0.930 . S
C2353 C2352 1.363 . S
C2353 C2354 1.372 . S
C2354 H2319 0.930 . S
C2354 C2353 1.372 . S
C2354 C2355 1.383 . S
C2355 C2354 1.383 . S
C2355 C2356 1.395 . S
C2356 H2320 0.930 . S
C2356 C2355 1.395 . S
C2356 C2357 1.362 . S
C2357 H2321 0.930 . S
C2357 C2352 1.390 . S
C2357 C2356 1.362 . S
C2358 C2347 1.492 . S
C2358 C2359 1.377 . S
C2358 C2363 1.397 . S
C2359 H2322 0.931 . S
C2359 C2358 1.377 . S
C2359 C2360 1.376 . S
C2360 H2323 0.930 . S
C2360 C2359 1.376 . S
C2360 C2361 1.376 . S
C2361 C2360 1.376 . S
C2361 C2362 1.378 . S
C2361 C2388 1.486 . S
C2362 H2324 0.930 . S
C2362 C2361 1.378 . S
C2362 C2363 1.376 . S
C2363 H2325 0.929 . S
C2363 C2358 1.397 . S
C2363 C2362 1.376 . S
C2364 C2348 1.509 . S
C2364 C2365 1.391 . S
C2364 C2369 1.386 . S
C2365 H2326 0.930 . S
C2365 C2364 1.391 . S
C2365 C2366 1.375 . S
C2366 H2327 0.931 . S
C2366 C2365 1.375 . S
C2366 C2367 1.375 . S
C2367 C2366 1.375 . S
C2367 C2368 1.361 . S
C2368 H2328 0.930 . S
C2368 C2367 1.361 . S
C2368 C2369 1.399 . S
C2369 H2329 0.929 . S
C2369 C2364 1.386 . S
C2369 C2368 1.399 . S
C2370 C2349 1.485 . S
C2370 C2371 1.394 . S
C2370 C2375 1.360 . S
C2371 H2330 0.931 . S
C2371 C2370 1.394 . S
C2371 C2372 1.372 . S
C2372 H2331 0.930 . S
C2372 C2371 1.372 . S
C2372 C2373 1.397 . S
C2373 C2372 1.397 . S
C2373 C2374 1.390 . S
C2373 C2389 1.476 . S
C2374 H2332 0.930 . S
C2374 C2373 1.390 . S
C2374 C2375 1.366 . S
C2375 H2333 0.932 . S
C2375 C2370 1.360 . S
C2375 C2374 1.366 . S
C2376 C2350 1.490 . S
C2376 C2377 1.380 . S
C2376 C2381 1.386 . S
C2377 H2334 0.930 . S
C2377 C2376 1.380 . S
C2377 C2378 1.381 . S
C2378 H2335 0.929 . S
C2378 C2377 1.381 . S
C2378 C2379 1.371 . S
C2379 C2378 1.371 . S
C2379 C2380 1.380 . S
C2380 H2336 0.931 . S
C2380 C2379 1.380 . S
C2380 C2381 1.387 . S
C2381 H2337 0.930 . S
C2381 C2376 1.386 . S
C2381 C2380 1.387 . S
C2382 C2351 1.519 . S
C2382 C2383 1.377 . S
C2382 C2387 1.361 . S
C2383 H2338 0.929 . S
C2383 C2382 1.377 . S
C2383 C2384 1.386 . S
C2384 H2339 0.931 . S
C2384 C2383 1.386 . S
C2384 C2385 1.363 . S
C2385 C2384 1.363 . S
C2385 C2386 1.385 . S
C2386 H2340 0.930 . S
C2386 C2385 1.385 . S
C2386 C2387 1.396 . S
C2387 H2341 0.929 . S
C2387 C2382 1.361 . S
C2387 C2386 1.396 . S
C2388 O2342 1.300 . S
C2388 O2343 1.209 . S
C2388 C2361 1.486 . S
C2389 O2344 1.199 . S
C2389 O2345 1.297 . S
C2389 C2373 1.476 . S
H2390 O2416 0.856 . S
H2391 O2419 0.854 . S
H2392 C2427 0.930 . S
H2393 C2428 0.930 . S
H2394 C2430 0.930 . S
H2395 C2431 0.930 . S
H2396 C2433 0.931 . S
H2397 C2434 0.930 . S
H2398 C2436 0.930 . S
H2399 C2437 0.929 . S
H2400 C2439 0.930 . S
H2401 C2440 0.931 . S
H2402 C2442 0.930 . S
H2403 C2443 0.929 . S
H2404 C2445 0.931 . S
H2405 C2446 0.930 . S
H2406 C2448 0.930 . S
H2407 C2449 0.932 . S
H2408 C2451 0.930 . S
H2409 C2452 0.929 . S
H2410 C2454 0.931 . S
H2411 C2455 0.930 . S
H2412 C2457 0.929 . S
H2413 C2458 0.931 . S
H2414 C2460 0.930 . S
H2415 C2461 0.929 . S
O2416 H2390 0.856 . S
O2416 C2462 1.300 . S
O2417 C2462 1.209 . S
O2418 C2463 1.199 . S
O2419 H2391 0.854 . S
O2419 C2463 1.297 . S
C2420 C2421 1.404 . S
C2420 C2425 1.397 . S
C2420 C2426 1.492 . S
C2421 C2420 1.404 . S
C2421 C2422 1.396 . S
C2421 C2432 1.492 . S
C2422 C2421 1.396 . S
C2422 C2423 1.397 . S
C2422 C2438 1.509 . S
C2423 C2422 1.397 . S
C2423 C2424 1.412 . S
C2423 C2444 1.485 . S
C2424 C2423 1.412 . S
C2424 C2425 1.388 . S
C2424 C2450 1.490 . S
C2425 C2420 1.397 . S
C2425 C2424 1.388 . S
C2425 C2456 1.519 . S
C2426 C2420 1.492 . S
C2426 C2427 1.363 . S
C2426 C2431 1.390 . S
C2427 H2392 0.930 . S
C2427 C2426 1.363 . S
C2427 C2428 1.372 . S
C2428 H2393 0.930 . S
C2428 C2427 1.372 . S
C2428 C2429 1.383 . S
C2429 C2428 1.383 . S
C2429 C2430 1.395 . S
C2430 H2394 0.930 . S
C2430 C2429 1.395 . S
C2430 C2431 1.362 . S
C2431 H2395 0.930 . S
C2431 C2426 1.390 . S
C2431 C2430 1.362 . S
C2432 C2421 1.492 . S
C2432 C2433 1.377 . S
C2432 C2437 1.397 . S
C2433 H2396 0.931 . S
C2433 C2432 1.377 . S
C2433 C2434 1.376 . S
C2434 H2397 0.930 . S
C2434 C2433 1.376 . S
C2434 C2435 1.376 . S
C2435 C2434 1.376 . S
C2435 C2436 1.378 . S
C2435 C2462 1.486 . S
C2436 H2398 0.930 . S
C2436 C2435 1.378 . S
C2436 C2437 1.376 . S
C2437 H2399 0.929 . S
C2437 C2432 1.397 . S
C2437 C2436 1.376 . S
C2438 C2422 1.509 . S
C2438 C2439 1.391 . S
C2438 C2443 1.386 . S
C2439 H2400 0.930 . S
C2439 C2438 1.391 . S
C2439 C2440 1.375 . S
C2440 H2401 0.931 . S
C2440 C2439 1.375 . S
C2440 C2441 1.375 . S
C2441 C2440 1.375 . S
C2441 C2442 1.361 . S
C2442 H2402 0.930 . S
C2442 C2441 1.361 . S
C2442 C2443 1.399 . S
C2443 H2403 0.929 . S
C2443 C2438 1.386 . S
C2443 C2442 1.399 . S
C2444 C2423 1.485 . S
C2444 C2445 1.394 . S
C2444 C2449 1.360 . S
C2445 H2404 0.931 . S
C2445 C2444 1.394 . S
C2445 C2446 1.372 . S
C2446 H2405 0.930 . S
C2446 C2445 1.372 . S
C2446 C2447 1.397 . S
C2447 C2446 1.397 . S
C2447 C2448 1.390 . S
C2447 C2463 1.476 . S
C2448 H2406 0.930 . S
C2448 C2447 1.390 . S
C2448 C2449 1.366 . S
C2449 H2407 0.932 . S
C2449 C2444 1.360 . S
C2449 C2448 1.366 . S
C2450 C2424 1.490 . S
C2450 C2451 1.380 . S
C2450 C2455 1.386 . S
C2451 H2408 0.930 . S
C2451 C2450 1.380 . S
C2451 C2452 1.381 . S
C2452 H2409 0.929 . S
C2452 C2451 1.381 . S
C2452 C2453 1.371 . S
C2453 C2452 1.371 . S
C2453 C2454 1.380 . S
C2454 H2410 0.931 . S
C2454 C2453 1.380 . S
C2454 C2455 1.387 . S
C2455 H2411 0.930 . S
C2455 C2450 1.386 . S
C2455 C2454 1.387 . S
C2456 C2425 1.519 . S
C2456 C2457 1.377 . S
C2456 C2461 1.361 . S
C2457 H2412 0.929 . S
C2457 C2456 1.377 . S
C2457 C2458 1.386 . S
C2458 H2413 0.931 . S
C2458 C2457 1.386 . S
C2458 C2459 1.363 . S
C2459 C2458 1.363 . S
C2459 C2460 1.385 . S
C2460 H2414 0.930 . S
C2460 C2459 1.385 . S
C2460 C2461 1.396 . S
C2461 H2415 0.929 . S
C2461 C2456 1.361 . S
C2461 C2460 1.396 . S
C2462 O2416 1.300 . S
C2462 O2417 1.209 . S
C2462 C2435 1.486 . S
C2463 O2418 1.199 . S
C2463 O2419 1.297 . S
C2463 C2447 1.476 . S
H2464 O2490 0.856 . S
H2465 O2493 0.854 . S
H2466 C2501 0.930 . S
H2467 C2502 0.930 . S
H2468 C2504 0.930 . S
H2469 C2505 0.930 . S
H2470 C2507 0.931 . S
H2471 C2508 0.930 . S
H2472 C2510 0.930 . S
H2473 C2511 0.929 . S
H2474 C2513 0.930 . S
H2475 C2514 0.931 . S
H2476 C2516 0.930 . S
H2477 C2517 0.929 . S
H2478 C2519 0.931 . S
H2479 C2520 0.930 . S
H2480 C2522 0.930 . S
H2481 C2523 0.932 . S
H2482 C2525 0.930 . S
H2483 C2526 0.929 . S
H2484 C2528 0.931 . S
H2485 C2529 0.930 . S
H2486 C2531 0.929 . S
H2487 C2532 0.931 . S
H2488 C2534 0.930 . S
H2489 C2535 0.929 . S
O2490 H2464 0.856 . S
O2490 C2536 1.300 . S
O2491 C2536 1.209 . S
O2492 C2537 1.199 . S
O2493 H2465 0.854 . S
O2493 C2537 1.297 . S
C2494 C2495 1.404 . S
C2494 C2499 1.397 . S
C2494 C2500 1.492 . S
C2495 C2494 1.404 . S
C2495 C2496 1.396 . S
C2495 C2506 1.492 . S
C2496 C2495 1.396 . S
C2496 C2497 1.397 . S
C2496 C2512 1.509 . S
C2497 C2496 1.397 . S
C2497 C2498 1.412 . S
C2497 C2518 1.485 . S
C2498 C2497 1.412 . S
C2498 C2499 1.388 . S
C2498 C2524 1.490 . S
C2499 C2494 1.397 . S
C2499 C2498 1.388 . S
C2499 C2530 1.519 . S
C2500 C2494 1.492 . S
C2500 C2501 1.363 . S
C2500 C2505 1.390 . S
C2501 H2466 0.930 . S
C2501 C2500 1.363 . S
C2501 C2502 1.372 . S
C2502 H2467 0.930 . S
C2502 C2501 1.372 . S
C2502 C2503 1.383 . S
C2503 C2502 1.383 . S
C2503 C2504 1.395 . S
C2504 H2468 0.930 . S
C2504 C2503 1.395 . S
C2504 C2505 1.362 . S
C2505 H2469 0.930 . S
C2505 C2500 1.390 . S
C2505 C2504 1.362 . S
C2506 C2495 1.492 . S
C2506 C2507 1.377 . S
C2506 C2511 1.397 . S
C2507 H2470 0.931 . S
C2507 C2506 1.377 . S
C2507 C2508 1.376 . S
C2508 H2471 0.930 . S
C2508 C2507 1.376 . S
C2508 C2509 1.376 . S
C2509 C2508 1.376 . S
C2509 C2510 1.378 . S
C2509 C2536 1.486 . S
C2510 H2472 0.930 . S
C2510 C2509 1.378 . S
C2510 C2511 1.376 . S
C2511 H2473 0.929 . S
C2511 C2506 1.397 . S
C2511 C2510 1.376 . S
C2512 C2496 1.509 . S
C2512 C2513 1.391 . S
C2512 C2517 1.386 . S
C2513 H2474 0.930 . S
C2513 C2512 1.391 . S
C2513 C2514 1.375 . S
C2514 H2475 0.931 . S
C2514 C2513 1.375 . S
C2514 C2515 1.375 . S
C2515 C2514 1.375 . S
C2515 C2516 1.361 . S
C2516 H2476 0.930 . S
C2516 C2515 1.361 . S
C2516 C2517 1.399 . S
C2517 H2477 0.929 . S
C2517 C2512 1.386 . S
C2517 C2516 1.399 . S
C2518 C2497 1.485 . S
C2518 C2519 1.394 . S
C2518 C2523 1.360 . S
C2519 H2478 0.931 . S
C2519 C2518 1.394 . S
C2519 C2520 1.372 . S
C2520 H2479 0.930 . S
C2520 C2519 1.372 . S
C2520 C2521 1.397 . S
C2521 C2520 1.397 . S
C2521 C2522 1.390 . S
C2521 C2537 1.476 . S
C2522 H2480 0.930 . S
C2522 C2521 1.390 . S
C2522 C2523 1.366 . S
C2523 H2481 0.932 . S
C2523 C2518 1.360 . S
C2523 C2522 1.366 . S
C2524 C2498 1.490 . S
C2524 C2525 1.380 . S
C2524 C2529 1.386 . S
C2525 H2482 0.930 . S
C2525 C2524 1.380 . S
C2525 C2526 1.381 . S
C2526 H2483 0.929 . S
C2526 C2525 1.381 . S
C2526 C2527 1.371 . S
C2527 C2526 1.371 . S
C2527 C2528 1.380 . S
C2528 H2484 0.931 . S
C2528 C2527 1.380 . S
C2528 C2529 1.387 . S
C2529 H2485 0.930 . S
C2529 C2524 1.386 . S
C2529 C2528 1.387 . S
C2530 C2499 1.519 . S
C2530 C2531 1.377 . S
C2530 C2535 1.361 . S
C2531 H2486 0.929 . S
C2531 C2530 1.377 . S
C2531 C2532 1.386 . S
C2532 H2487 0.931 . S
C2532 C2531 1.386 . S
C2532 C2533 1.363 . S
C2533 C2532 1.363 . S
C2533 C2534 1.385 . S
C2534 H2488 0.930 . S
C2534 C2533 1.385 . S
C2534 C2535 1.396 . S
C2535 H2489 0.929 . S
C2535 C2530 1.361 . S
C2535 C2534 1.396 . S
C2536 O2490 1.300 . S
C2536 O2491 1.209 . S
C2536 C2509 1.486 . S
C2537 O2492 1.199 . S
C2537 O2493 1.297 . S
C2537 C2521 1.476 . S
H2538 O2564 0.856 . S
H2539 O2567 0.854 . S
H2540 C2575 0.930 . S
H2541 C2576 0.930 . S
H2542 C2578 0.930 . S
H2543 C2579 0.930 . S
H2544 C2581 0.931 . S
H2545 C2582 0.930 . S
H2546 C2584 0.930 . S
H2547 C2585 0.929 . S
H2548 C2587 0.930 . S
H2549 C2588 0.931 . S
H2550 C2590 0.930 . S
H2551 C2591 0.929 . S
H2552 C2593 0.931 . S
H2553 C2594 0.930 . S
H2554 C2596 0.930 . S
H2555 C2597 0.932 . S
H2556 C2599 0.930 . S
H2557 C2600 0.929 . S
H2558 C2602 0.931 . S
H2559 C2603 0.930 . S
H2560 C2605 0.929 . S
H2561 C2606 0.931 . S
H2562 C2608 0.930 . S
H2563 C2609 0.929 . S
O2564 H2538 0.856 . S
O2564 C2610 1.300 . S
O2565 C2610 1.209 . S
O2566 C2611 1.199 . S
O2567 H2539 0.854 . S
O2567 C2611 1.297 . S
C2568 C2569 1.404 . S
C2568 C2573 1.397 . S
C2568 C2574 1.492 . S
C2569 C2568 1.404 . S
C2569 C2570 1.396 . S
C2569 C2580 1.492 . S
C2570 C2569 1.396 . S
C2570 C2571 1.397 . S
C2570 C2586 1.509 . S
C2571 C2570 1.397 . S
C2571 C2572 1.412 . S
C2571 C2592 1.485 . S
C2572 C2571 1.412 . S
C2572 C2573 1.388 . S
C2572 C2598 1.490 . S
C2573 C2568 1.397 . S
C2573 C2572 1.388 . S
C2573 C2604 1.519 . S
C2574 C2568 1.492 . S
C2574 C2575 1.363 . S
C2574 C2579 1.390 . S
C2575 H2540 0.930 . S
C2575 C2574 1.363 . S
C2575 C2576 1.372 . S
C2576 H2541 0.930 . S
C2576 C2575 1.372 . S
C2576 C2577 1.383 . S
C2577 C2576 1.383 . S
C2577 C2578 1.395 . S
C2578 H2542 0.930 . S
C2578 C2577 1.395 . S
C2578 C2579 1.362 . S
C2579 H2543 0.930 . S
C2579 C2574 1.390 . S
C2579 C2578 1.362 . S
C2580 C2569 1.492 . S
C2580 C2581 1.377 . S
C2580 C2585 1.397 . S
C2581 H2544 0.931 . S
C2581 C2580 1.377 . S
C2581 C2582 1.376 . S
C2582 H2545 0.930 . S
C2582 C2581 1.376 . S
C2582 C2583 1.376 . S
C2583 C2582 1.376 . S
C2583 C2584 1.378 . S
C2583 C2610 1.486 . S
C2584 H2546 0.930 . S
C2584 C2583 1.378 . S
C2584 C2585 1.376 . S
C2585 H2547 0.929 . S
C2585 C2580 1.397 . S
C2585 C2584 1.376 . S
C2586 C2570 1.509 . S
C2586 C2587 1.391 . S
C2586 C2591 1.386 . S
C2587 H2548 0.930 . S
C2587 C2586 1.391 . S
C2587 C2588 1.375 . S
C2588 H2549 0.931 . S
C2588 C2587 1.375 . S
C2588 C2589 1.375 . S
C2589 C2588 1.375 . S
C2589 C2590 1.361 . S
C2590 H2550 0.930 . S
C2590 C2589 1.361 . S
C2590 C2591 1.399 . S
C2591 H2551 0.929 . S
C2591 C2586 1.386 . S
C2591 C2590 1.399 . S
C2592 C2571 1.485 . S
C2592 C2593 1.394 . S
C2592 C2597 1.360 . S
C2593 H2552 0.931 . S
C2593 C2592 1.394 . S
C2593 C2594 1.372 . S
C2594 H2553 0.930 . S
C2594 C2593 1.372 . S
C2594 C2595 1.397 . S
C2595 C2594 1.397 . S
C2595 C2596 1.390 . S
C2595 C2611 1.476 . S
C2596 H2554 0.930 . S
C2596 C2595 1.390 . S
C2596 C2597 1.366 . S
C2597 H2555 0.932 . S
C2597 C2592 1.360 . S
C2597 C2596 1.366 . S
C2598 C2572 1.490 . S
C2598 C2599 1.380 . S
C2598 C2603 1.386 . S
C2599 H2556 0.930 . S
C2599 C2598 1.380 . S
C2599 C2600 1.381 . S
C2600 H2557 0.929 . S
C2600 C2599 1.381 . S
C2600 C2601 1.371 . S
C2601 C2600 1.371 . S
C2601 C2602 1.380 . S
C2602 H2558 0.931 . S
C2602 C2601 1.380 . S
C2602 C2603 1.387 . S
C2603 H2559 0.930 . S
C2603 C2598 1.386 . S
C2603 C2602 1.387 . S
C2604 C2573 1.519 . S
C2604 C2605 1.377 . S
C2604 C2609 1.361 . S
C2605 H2560 0.929 . S
C2605 C2604 1.377 . S
C2605 C2606 1.386 . S
C2606 H2561 0.931 . S
C2606 C2605 1.386 . S
C2606 C2607 1.363 . S
C2607 C2606 1.363 . S
C2607 C2608 1.385 . S
C2608 H2562 0.930 . S
C2608 C2607 1.385 . S
C2608 C2609 1.396 . S
C2609 H2563 0.929 . S
C2609 C2604 1.361 . S
C2609 C2608 1.396 . S
C2610 O2564 1.300 . S
C2610 O2565 1.209 . S
C2610 C2583 1.486 . S
C2611 O2566 1.199 . S
C2611 O2567 1.297 . S
C2611 C2595 1.476 . S
H2612 O2638 0.856 . S
H2613 O2641 0.854 . S
H2614 C2649 0.930 . S
H2615 C2650 0.930 . S
H2616 C2652 0.930 . S
H2617 C2653 0.930 . S
H2618 C2655 0.931 . S
H2619 C2656 0.930 . S
H2620 C2658 0.930 . S
H2621 C2659 0.929 . S
H2622 C2661 0.930 . S
H2623 C2662 0.931 . S
H2624 C2664 0.930 . S
H2625 C2665 0.929 . S
H2626 C2667 0.931 . S
H2627 C2668 0.930 . S
H2628 C2670 0.930 . S
H2629 C2671 0.932 . S
H2630 C2673 0.930 . S
H2631 C2674 0.929 . S
H2632 C2676 0.931 . S
H2633 C2677 0.930 . S
H2634 C2679 0.929 . S
H2635 C2680 0.931 . S
H2636 C2682 0.930 . S
H2637 C2683 0.929 . S
O2638 H2612 0.856 . S
O2638 C2684 1.300 . S
O2639 C2684 1.209 . S
O2640 C2685 1.199 . S
O2641 H2613 0.854 . S
O2641 C2685 1.297 . S
C2642 C2643 1.404 . S
C2642 C2647 1.397 . S
C2642 C2648 1.492 . S
C2643 C2642 1.404 . S
C2643 C2644 1.396 . S
C2643 C2654 1.492 . S
C2644 C2643 1.396 . S
C2644 C2645 1.397 . S
C2644 C2660 1.509 . S
C2645 C2644 1.397 . S
C2645 C2646 1.412 . S
C2645 C2666 1.485 . S
C2646 C2645 1.412 . S
C2646 C2647 1.388 . S
C2646 C2672 1.490 . S
C2647 C2642 1.397 . S
C2647 C2646 1.388 . S
C2647 C2678 1.519 . S
C2648 C2642 1.492 . S
C2648 C2649 1.363 . S
C2648 C2653 1.390 . S
C2649 H2614 0.930 . S
C2649 C2648 1.363 . S
C2649 C2650 1.372 . S
C2650 H2615 0.930 . S
C2650 C2649 1.372 . S
C2650 C2651 1.383 . S
C2651 C2650 1.383 . S
C2651 C2652 1.395 . S
C2652 H2616 0.930 . S
C2652 C2651 1.395 . S
C2652 C2653 1.362 . S
C2653 H2617 0.930 . S
C2653 C2648 1.390 . S
C2653 C2652 1.362 . S
C2654 C2643 1.492 . S
C2654 C2655 1.377 . S
C2654 C2659 1.397 . S
C2655 H2618 0.931 . S
C2655 C2654 1.377 . S
C2655 C2656 1.376 . S
C2656 H2619 0.930 . S
C2656 C2655 1.376 . S
C2656 C2657 1.376 . S
C2657 C2656 1.376 . S
C2657 C2658 1.378 . S
C2657 C2684 1.486 . S
C2658 H2620 0.930 . S
C2658 C2657 1.378 . S
C2658 C2659 1.376 . S
C2659 H2621 0.929 . S
C2659 C2654 1.397 . S
C2659 C2658 1.376 . S
C2660 C2644 1.509 . S
C2660 C2661 1.391 . S
C2660 C2665 1.386 . S
C2661 H2622 0.930 . S
C2661 C2660 1.391 . S
C2661 C2662 1.375 . S
C2662 H2623 0.931 . S
C2662 C2661 1.375 . S
C2662 C2663 1.375 . S
C2663 C2662 1.375 . S
C2663 C2664 1.361 . S
C2664 H2624 0.930 . S
C2664 C2663 1.361 . S
C2664 C2665 1.399 . S
C2665 H2625 0.929 . S
C2665 C2660 1.386 . S
C2665 C2664 1.399 . S
C2666 C2645 1.485 . S
C2666 C2667 1.394 . S
C2666 C2671 1.360 . S
C2667 H2626 0.931 . S
C2667 C2666 1.394 . S
C2667 C2668 1.372 . S
C2668 H2627 0.930 . S
C2668 C2667 1.372 . S
C2668 C2669 1.397 . S
C2669 C2668 1.397 . S
C2669 C2670 1.390 . S
C2669 C2685 1.476 . S
C2670 H2628 0.930 . S
C2670 C2669 1.390 . S
C2670 C2671 1.366 . S
C2671 H2629 0.932 . S
C2671 C2666 1.360 . S
C2671 C2670 1.366 . S
C2672 C2646 1.490 . S
C2672 C2673 1.380 . S
C2672 C2677 1.386 . S
C2673 H2630 0.930 . S
C2673 C2672 1.380 . S
C2673 C2674 1.381 . S
C2674 H2631 0.929 . S
C2674 C2673 1.381 . S
C2674 C2675 1.371 . S
C2675 C2674 1.371 . S
C2675 C2676 1.380 . S
C2676 H2632 0.931 . S
C2676 C2675 1.380 . S
C2676 C2677 1.387 . S
C2677 H2633 0.930 . S
C2677 C2672 1.386 . S
C2677 C2676 1.387 . S
C2678 C2647 1.519 . S
C2678 C2679 1.377 . S
C2678 C2683 1.361 . S
C2679 H2634 0.929 . S
C2679 C2678 1.377 . S
C2679 C2680 1.386 . S
C2680 H2635 0.931 . S
C2680 C2679 1.386 . S
C2680 C2681 1.363 . S
C2681 C2680 1.363 . S
C2681 C2682 1.385 . S
C2682 H2636 0.930 . S
C2682 C2681 1.385 . S
C2682 C2683 1.396 . S
C2683 H2637 0.929 . S
C2683 C2678 1.361 . S
C2683 C2682 1.396 . S
C2684 O2638 1.300 . S
C2684 O2639 1.209 . S
C2684 C2657 1.486 . S
C2685 O2640 1.199 . S
C2685 O2641 1.297 . S
C2685 C2669 1.476 . S
H2686 O2712 0.856 . S
H2687 O2715 0.854 . S
H2688 C2723 0.930 . S
H2689 C2724 0.930 . S
H2690 C2726 0.930 . S
H2691 C2727 0.930 . S
H2692 C2729 0.931 . S
H2693 C2730 0.930 . S
H2694 C2732 0.930 . S
H2695 C2733 0.929 . S
H2696 C2735 0.930 . S
H2697 C2736 0.931 . S
H2698 C2738 0.930 . S
H2699 C2739 0.929 . S
H2700 C2741 0.931 . S
H2701 C2742 0.930 . S
H2702 C2744 0.930 . S
H2703 C2745 0.932 . S
H2704 C2747 0.930 . S
H2705 C2748 0.929 . S
H2706 C2750 0.931 . S
H2707 C2751 0.930 . S
H2708 C2753 0.929 . S
H2709 C2754 0.931 . S
H2710 C2756 0.930 . S
H2711 C2757 0.929 . S
O2712 H2686 0.856 . S
O2712 C2758 1.300 . S
O2713 C2758 1.209 . S
O2714 C2759 1.199 . S
O2715 H2687 0.854 . S
O2715 C2759 1.297 . S
C2716 C2717 1.404 . S
C2716 C2721 1.397 . S
C2716 C2722 1.492 . S
C2717 C2716 1.404 . S
C2717 C2718 1.396 . S
C2717 C2728 1.492 . S
C2718 C2717 1.396 . S
C2718 C2719 1.397 . S
C2718 C2734 1.509 . S
C2719 C2718 1.397 . S
C2719 C2720 1.412 . S
C2719 C2740 1.485 . S
C2720 C2719 1.412 . S
C2720 C2721 1.388 . S
C2720 C2746 1.490 . S
C2721 C2716 1.397 . S
C2721 C2720 1.388 . S
C2721 C2752 1.519 . S
C2722 C2716 1.492 . S
C2722 C2723 1.363 . S
C2722 C2727 1.390 . S
C2723 H2688 0.930 . S
C2723 C2722 1.363 . S
C2723 C2724 1.372 . S
C2724 H2689 0.930 . S
C2724 C2723 1.372 . S
C2724 C2725 1.383 . S
C2725 C2724 1.383 . S
C2725 C2726 1.395 . S
C2726 H2690 0.930 . S
C2726 C2725 1.395 . S
C2726 C2727 1.362 . S
C2727 H2691 0.930 . S
C2727 C2722 1.390 . S
C2727 C2726 1.362 . S
C2728 C2717 1.492 . S
C2728 C2729 1.377 . S
C2728 C2733 1.397 . S
C2729 H2692 0.931 . S
C2729 C2728 1.377 . S
C2729 C2730 1.376 . S
C2730 H2693 0.930 . S
C2730 C2729 1.376 . S
C2730 C2731 1.376 . S
C2731 C2730 1.376 . S
C2731 C2732 1.378 . S
C2731 C2758 1.486 . S
C2732 H2694 0.930 . S
C2732 C2731 1.378 . S
C2732 C2733 1.376 . S
C2733 H2695 0.929 . S
C2733 C2728 1.397 . S
C2733 C2732 1.376 . S
C2734 C2718 1.509 . S
C2734 C2735 1.391 . S
C2734 C2739 1.386 . S
C2735 H2696 0.930 . S
C2735 C2734 1.391 . S
C2735 C2736 1.375 . S
C2736 H2697 0.931 . S
C2736 C2735 1.375 . S
C2736 C2737 1.375 . S
C2737 C2736 1.375 . S
C2737 C2738 1.361 . S
C2738 H2698 0.930 . S
C2738 C2737 1.361 . S
C2738 C2739 1.399 . S
C2739 H2699 0.929 . S
C2739 C2734 1.386 . S
C2739 C2738 1.399 . S
C2740 C2719 1.485 . S
C2740 C2741 1.394 . S
C2740 C2745 1.360 . S
C2741 H2700 0.931 . S
C2741 C2740 1.394 . S
C2741 C2742 1.372 . S
C2742 H2701 0.930 . S
C2742 C2741 1.372 . S
C2742 C2743 1.397 . S
C2743 C2742 1.397 . S
C2743 C2744 1.390 . S
C2743 C2759 1.476 . S
C2744 H2702 0.930 . S
C2744 C2743 1.390 . S
C2744 C2745 1.366 . S
C2745 H2703 0.932 . S
C2745 C2740 1.360 . S
C2745 C2744 1.366 . S
C2746 C2720 1.490 . S
C2746 C2747 1.380 . S
C2746 C2751 1.386 . S
C2747 H2704 0.930 . S
C2747 C2746 1.380 . S
C2747 C2748 1.381 . S
C2748 H2705 0.929 . S
C2748 C2747 1.381 . S
C2748 C2749 1.371 . S
C2749 C2748 1.371 . S
C2749 C2750 1.380 . S
C2750 H2706 0.931 . S
C2750 C2749 1.380 . S
C2750 C2751 1.387 . S
C2751 H2707 0.930 . S
C2751 C2746 1.386 . S
C2751 C2750 1.387 . S
C2752 C2721 1.519 . S
C2752 C2753 1.377 . S
C2752 C2757 1.361 . S
C2753 H2708 0.929 . S
C2753 C2752 1.377 . S
C2753 C2754 1.386 . S
C2754 H2709 0.931 . S
C2754 C2753 1.386 . S
C2754 C2755 1.363 . S
C2755 C2754 1.363 . S
C2755 C2756 1.385 . S
C2756 H2710 0.930 . S
C2756 C2755 1.385 . S
C2756 C2757 1.396 . S
C2757 H2711 0.929 . S
C2757 C2752 1.361 . S
C2757 C2756 1.396 . S
C2758 O2712 1.300 . S
C2758 O2713 1.209 . S
C2758 C2731 1.486 . S
C2759 O2714 1.199 . S
C2759 O2715 1.297 . S
C2759 C2743 1.476 . S
H2760 O2786 0.856 . S
H2761 O2789 0.854 . S
H2762 C2797 0.930 . S
H2763 C2798 0.930 . S
H2764 C2800 0.930 . S
H2765 C2801 0.930 . S
H2766 C2803 0.931 . S
H2767 C2804 0.930 . S
H2768 C2806 0.930 . S
H2769 C2807 0.929 . S
H2770 C2809 0.930 . S
H2771 C2810 0.931 . S
H2772 C2812 0.930 . S
H2773 C2813 0.929 . S
H2774 C2815 0.931 . S
H2775 C2816 0.930 . S
H2776 C2818 0.930 . S
H2777 C2819 0.932 . S
H2778 C2821 0.930 . S
H2779 C2822 0.929 . S
H2780 C2824 0.931 . S
H2781 C2825 0.930 . S
H2782 C2827 0.929 . S
H2783 C2828 0.931 . S
H2784 C2830 0.930 . S
H2785 C2831 0.929 . S
O2786 H2760 0.856 . S
O2786 C2832 1.300 . S
O2787 C2832 1.209 . S
O2788 C2833 1.199 . S
O2789 H2761 0.854 . S
O2789 C2833 1.297 . S
C2790 C2791 1.404 . S
C2790 C2795 1.397 . S
C2790 C2796 1.492 . S
C2791 C2790 1.404 . S
C2791 C2792 1.396 . S
C2791 C2802 1.492 . S
C2792 C2791 1.396 . S
C2792 C2793 1.397 . S
C2792 C2808 1.509 . S
C2793 C2792 1.397 . S
C2793 C2794 1.412 . S
C2793 C2814 1.485 . S
C2794 C2793 1.412 . S
C2794 C2795 1.388 . S
C2794 C2820 1.490 . S
C2795 C2790 1.397 . S
C2795 C2794 1.388 . S
C2795 C2826 1.519 . S
C2796 C2790 1.492 . S
C2796 C2797 1.363 . S
C2796 C2801 1.390 . S
C2797 H2762 0.930 . S
C2797 C2796 1.363 . S
C2797 C2798 1.372 . S
C2798 H2763 0.930 . S
C2798 C2797 1.372 . S
C2798 C2799 1.383 . S
C2799 C2798 1.383 . S
C2799 C2800 1.395 . S
C2800 H2764 0.930 . S
C2800 C2799 1.395 . S
C2800 C2801 1.362 . S
C2801 H2765 0.930 . S
C2801 C2796 1.390 . S
C2801 C2800 1.362 . S
C2802 C2791 1.492 . S
C2802 C2803 1.377 . S
C2802 C2807 1.397 . S
C2803 H2766 0.931 . S
C2803 C2802 1.377 . S
C2803 C2804 1.376 . S
C2804 H2767 0.930 . S
C2804 C2803 1.376 . S
C2804 C2805 1.376 . S
C2805 C2804 1.376 . S
C2805 C2806 1.378 . S
C2805 C2832 1.486 . S
C2806 H2768 0.930 . S
C2806 C2805 1.378 . S
C2806 C2807 1.376 . S
C2807 H2769 0.929 . S
C2807 C2802 1.397 . S
C2807 C2806 1.376 . S
C2808 C2792 1.509 . S
C2808 C2809 1.391 . S
C2808 C2813 1.386 . S
C2809 H2770 0.930 . S
C2809 C2808 1.391 . S
C2809 C2810 1.375 . S
C2810 H2771 0.931 . S
C2810 C2809 1.375 . S
C2810 C2811 1.375 . S
C2811 C2810 1.375 . S
C2811 C2812 1.361 . S
C2812 H2772 0.930 . S
C2812 C2811 1.361 . S
C2812 C2813 1.399 . S
C2813 H2773 0.929 . S
C2813 C2808 1.386 . S
C2813 C2812 1.399 . S
C2814 C2793 1.485 . S
C2814 C2815 1.394 . S
C2814 C2819 1.360 . S
C2815 H2774 0.931 . S
C2815 C2814 1.394 . S
C2815 C2816 1.372 . S
C2816 H2775 0.930 . S
C2816 C2815 1.372 . S
C2816 C2817 1.397 . S
C2817 C2816 1.397 . S
C2817 C2818 1.390 . S
C2817 C2833 1.476 . S
C2818 H2776 0.930 . S
C2818 C2817 1.390 . S
C2818 C2819 1.366 . S
C2819 H2777 0.932 . S
C2819 C2814 1.360 . S
C2819 C2818 1.366 . S
C2820 C2794 1.490 . S
C2820 C2821 1.380 . S
C2820 C2825 1.386 . S
C2821 H2778 0.930 . S
C2821 C2820 1.380 . S
C2821 C2822 1.381 . S
C2822 H2779 0.929 . S
C2822 C2821 1.381 . S
C2822 C2823 1.371 . S
C2823 C2822 1.371 . S
C2823 C2824 1.380 . S
C2824 H2780 0.931 . S
C2824 C2823 1.380 . S
C2824 C2825 1.387 . S
C2825 H2781 0.930 . S
C2825 C2820 1.386 . S
C2825 C2824 1.387 . S
C2826 C2795 1.519 . S
C2826 C2827 1.377 . S
C2826 C2831 1.361 . S
C2827 H2782 0.929 . S
C2827 C2826 1.377 . S
C2827 C2828 1.386 . S
C2828 H2783 0.931 . S
C2828 C2827 1.386 . S
C2828 C2829 1.363 . S
C2829 C2828 1.363 . S
C2829 C2830 1.385 . S
C2830 H2784 0.930 . S
C2830 C2829 1.385 . S
C2830 C2831 1.396 . S
C2831 H2785 0.929 . S
C2831 C2826 1.361 . S
C2831 C2830 1.396 . S
C2832 O2786 1.300 . S
C2832 O2787 1.209 . S
C2832 C2805 1.486 . S
C2833 O2788 1.199 . S
C2833 O2789 1.297 . S
C2833 C2817 1.476 . S
H2834 O2860 0.856 . S
H2835 O2863 0.854 . S
H2836 C2871 0.930 . S
H2837 C2872 0.930 . S
H2838 C2874 0.930 . S
H2839 C2875 0.930 . S
H2840 C2877 0.931 . S
H2841 C2878 0.930 . S
H2842 C2880 0.930 . S
H2843 C2881 0.929 . S
H2844 C2883 0.930 . S
H2845 C2884 0.931 . S
H2846 C2886 0.930 . S
H2847 C2887 0.929 . S
H2848 C2889 0.931 . S
H2849 C2890 0.930 . S
H2850 C2892 0.930 . S
H2851 C2893 0.932 . S
H2852 C2895 0.930 . S
H2853 C2896 0.929 . S
H2854 C2898 0.931 . S
H2855 C2899 0.930 . S
H2856 C2901 0.929 . S
H2857 C2902 0.931 . S
H2858 C2904 0.930 . S
H2859 C2905 0.929 . S
O2860 H2834 0.856 . S
O2860 C2906 1.300 . S
O2861 C2906 1.209 . S
O2862 C2907 1.199 . S
O2863 H2835 0.854 . S
O2863 C2907 1.297 . S
C2864 C2865 1.404 . S
C2864 C2869 1.397 . S
C2864 C2870 1.492 . S
C2865 C2864 1.404 . S
C2865 C2866 1.396 . S
C2865 C2876 1.492 . S
C2866 C2865 1.396 . S
C2866 C2867 1.397 . S
C2866 C2882 1.509 . S
C2867 C2866 1.397 . S
C2867 C2868 1.412 . S
C2867 C2888 1.485 . S
C2868 C2867 1.412 . S
C2868 C2869 1.388 . S
C2868 C2894 1.490 . S
C2869 C2864 1.397 . S
C2869 C2868 1.388 . S
C2869 C2900 1.519 . S
C2870 C2864 1.492 . S
C2870 C2871 1.363 . S
C2870 C2875 1.390 . S
C2871 H2836 0.930 . S
C2871 C2870 1.363 . S
C2871 C2872 1.372 . S
C2872 H2837 0.930 . S
C2872 C2871 1.372 . S
C2872 C2873 1.383 . S
C2873 C2872 1.383 . S
C2873 C2874 1.395 . S
C2874 H2838 0.930 . S
C2874 C2873 1.395 . S
C2874 C2875 1.362 . S
C2875 H2839 0.930 . S
C2875 C2870 1.390 . S
C2875 C2874 1.362 . S
C2876 C2865 1.492 . S
C2876 C2877 1.377 . S
C2876 C2881 1.397 . S
C2877 H2840 0.931 . S
C2877 C2876 1.377 . S
C2877 C2878 1.376 . S
C2878 H2841 0.930 . S
C2878 C2877 1.376 . S
C2878 C2879 1.376 . S
C2879 C2878 1.376 . S
C2879 C2880 1.378 . S
C2879 C2906 1.486 . S
C2880 H2842 0.930 . S
C2880 C2879 1.378 . S
C2880 C2881 1.376 . S
C2881 H2843 0.929 . S
C2881 C2876 1.397 . S
C2881 C2880 1.376 . S
C2882 C2866 1.509 . S
C2882 C2883 1.391 . S
C2882 C2887 1.386 . S
C2883 H2844 0.930 . S
C2883 C2882 1.391 . S
C2883 C2884 1.375 . S
C2884 H2845 0.931 . S
C2884 C2883 1.375 . S
C2884 C2885 1.375 . S
C2885 C2884 1.375 . S
C2885 C2886 1.361 . S
C2886 H2846 0.930 . S
C2886 C2885 1.361 . S
C2886 C2887 1.399 . S
C2887 H2847 0.929 . S
C2887 C2882 1.386 . S
C2887 C2886 1.399 . S
C2888 C2867 1.485 . S
C2888 C2889 1.394 . S
C2888 C2893 1.360 . S
C2889 H2848 0.931 . S
C2889 C2888 1.394 . S
C2889 C2890 1.372 . S
C2890 H2849 0.930 . S
C2890 C2889 1.372 . S
C2890 C2891 1.397 . S
C2891 C2890 1.397 . S
C2891 C2892 1.390 . S
C2891 C2907 1.476 . S
C2892 H2850 0.930 . S
C2892 C2891 1.390 . S
C2892 C2893 1.366 . S
C2893 H2851 0.932 . S
C2893 C2888 1.360 . S
C2893 C2892 1.366 . S
C2894 C2868 1.490 . S
C2894 C2895 1.380 . S
C2894 C2899 1.386 . S
C2895 H2852 0.930 . S
C2895 C2894 1.380 . S
C2895 C2896 1.381 . S
C2896 H2853 0.929 . S
C2896 C2895 1.381 . S
C2896 C2897 1.371 . S
C2897 C2896 1.371 . S
C2897 C2898 1.380 . S
C2898 H2854 0.931 . S
C2898 C2897 1.380 . S
C2898 C2899 1.387 . S
C2899 H2855 0.930 . S
C2899 C2894 1.386 . S
C2899 C2898 1.387 . S
C2900 C2869 1.519 . S
C2900 C2901 1.377 . S
C2900 C2905 1.361 . S
C2901 H2856 0.929 . S
C2901 C2900 1.377 . S
C2901 C2902 1.386 . S
C2902 H2857 0.931 . S
C2902 C2901 1.386 . S
C2902 C2903 1.363 . S
C2903 C2902 1.363 . S
C2903 C2904 1.385 . S
C2904 H2858 0.930 . S
C2904 C2903 1.385 . S
C2904 C2905 1.396 . S
C2905 H2859 0.929 . S
C2905 C2900 1.361 . S
C2905 C2904 1.396 . S
C2906 O2860 1.300 . S
C2906 O2861 1.209 . S
C2906 C2879 1.486 . S
C2907 O2862 1.199 . S
C2907 O2863 1.297 . S
C2907 C2891 1.476 . S
H2908 O2934 0.856 . S
H2909 O2937 0.854 . S
H2910 C2945 0.930 . S
H2911 C2946 0.930 . S
H2912 C2948 0.930 . S
H2913 C2949 0.930 . S
H2914 C2951 0.931 . S
H2915 C2952 0.930 . S
H2916 C2954 0.930 . S
H2917 C2955 0.929 . S
H2918 C2957 0.930 . S
H2919 C2958 0.931 . S
H2920 C2960 0.930 . S
H2921 C2961 0.929 . S
H2922 C2963 0.931 . S
H2923 C2964 0.930 . S
H2924 C2966 0.930 . S
H2925 C2967 0.932 . S
H2926 C2969 0.930 . S
H2927 C2970 0.929 . S
H2928 C2972 0.931 . S
H2929 C2973 0.930 . S
H2930 C2975 0.929 . S
H2931 C2976 0.931 . S
H2932 C2978 0.930 . S
H2933 C2979 0.929 . S
O2934 H2908 0.856 . S
O2934 C2980 1.300 . S
O2935 C2980 1.209 . S
O2936 C2981 1.199 . S
O2937 H2909 0.854 . S
O2937 C2981 1.297 . S
C2938 C2939 1.404 . S
C2938 C2943 1.397 . S
C2938 C2944 1.492 . S
C2939 C2938 1.404 . S
C2939 C2940 1.396 . S
C2939 C2950 1.492 . S
C2940 C2939 1.396 . S
C2940 C2941 1.397 . S
C2940 C2956 1.509 . S
C2941 C2940 1.397 . S
C2941 C2942 1.412 . S
C2941 C2962 1.485 . S
C2942 C2941 1.412 . S
C2942 C2943 1.388 . S
C2942 C2968 1.490 . S
C2943 C2938 1.397 . S
C2943 C2942 1.388 . S
C2943 C2974 1.519 . S
C2944 C2938 1.492 . S
C2944 C2945 1.363 . S
C2944 C2949 1.390 . S
C2945 H2910 0.930 . S
C2945 C2944 1.363 . S
C2945 C2946 1.372 . S
C2946 H2911 0.930 . S
C2946 C2945 1.372 . S
C2946 C2947 1.383 . S
C2947 C2946 1.383 . S
C2947 C2948 1.395 . S
C2948 H2912 0.930 . S
C2948 C2947 1.395 . S
C2948 C2949 1.362 . S
C2949 H2913 0.930 . S
C2949 C2944 1.390 . S
C2949 C2948 1.362 . S
C2950 C2939 1.492 . S
C2950 C2951 1.377 . S
C2950 C2955 1.397 . S
C2951 H2914 0.931 . S
C2951 C2950 1.377 . S
C2951 C2952 1.376 . S
C2952 H2915 0.930 . S
C2952 C2951 1.376 . S
C2952 C2953 1.376 . S
C2953 C2952 1.376 . S
C2953 C2954 1.378 . S
C2953 C2980 1.486 . S
C2954 H2916 0.930 . S
C2954 C2953 1.378 . S
C2954 C2955 1.376 . S
C2955 H2917 0.929 . S
C2955 C2950 1.397 . S
C2955 C2954 1.376 . S
C2956 C2940 1.509 . S
C2956 C2957 1.391 . S
C2956 C2961 1.386 . S
C2957 H2918 0.930 . S
C2957 C2956 1.391 . S
C2957 C2958 1.375 . S
C2958 H2919 0.931 . S
C2958 C2957 1.375 . S
C2958 C2959 1.375 . S
C2959 C2958 1.375 . S
C2959 C2960 1.361 . S
C2960 H2920 0.930 . S
C2960 C2959 1.361 . S
C2960 C2961 1.399 . S
C2961 H2921 0.929 . S
C2961 C2956 1.386 . S
C2961 C2960 1.399 . S
C2962 C2941 1.485 . S
C2962 C2963 1.394 . S
C2962 C2967 1.360 . S
C2963 H2922 0.931 . S
C2963 C2962 1.394 . S
C2963 C2964 1.372 . S
C2964 H2923 0.930 . S
C2964 C2963 1.372 . S
C2964 C2965 1.397 . S
C2965 C2964 1.397 . S
C2965 C2966 1.390 . S
C2965 C2981 1.476 . S
C2966 H2924 0.930 . S
C2966 C2965 1.390 . S
C2966 C2967 1.366 . S
C2967 H2925 0.932 . S
C2967 C2962 1.360 . S
C2967 C2966 1.366 . S
C2968 C2942 1.490 . S
C2968 C2969 1.380 . S
C2968 C2973 1.386 . S
C2969 H2926 0.930 . S
C2969 C2968 1.380 . S
C2969 C2970 1.381 . S
C2970 H2927 0.929 . S
C2970 C2969 1.381 . S
C2970 C2971 1.371 . S
C2971 C2970 1.371 . S
C2971 C2972 1.380 . S
C2972 H2928 0.931 . S
C2972 C2971 1.380 . S
C2972 C2973 1.387 . S
C2973 H2929 0.930 . S
C2973 C2968 1.386 . S
C2973 C2972 1.387 . S
C2974 C2943 1.519 . S
C2974 C2975 1.377 . S
C2974 C2979 1.361 . S
C2975 H2930 0.929 . S
C2975 C2974 1.377 . S
C2975 C2976 1.386 . S
C2976 H2931 0.931 . S
C2976 C2975 1.386 . S
C2976 C2977 1.363 . S
C2977 C2976 1.363 . S
C2977 C2978 1.385 . S
C2978 H2932 0.930 . S
C2978 C2977 1.385 . S
C2978 C2979 1.396 . S
C2979 H2933 0.929 . S
C2979 C2974 1.361 . S
C2979 C2978 1.396 . S
C2980 O2934 1.300 . S
C2980 O2935 1.209 . S
C2980 C2953 1.486 . S
C2981 O2936 1.199 . S
C2981 O2937 1.297 . S
C2981 C2965 1.476 . S
H2982 O3008 0.856 . S
H2983 O3011 0.854 . S
H2984 C3019 0.930 . S
H2985 C3020 0.930 . S
H2986 C3022 0.930 . S
H2987 C3023 0.930 . S
H2988 C3025 0.931 . S
H2989 C3026 0.930 . S
H2990 C3028 0.930 . S
H2991 C3029 0.929 . S
H2992 C3031 0.930 . S
H2993 C3032 0.931 . S
H2994 C3034 0.930 . S
H2995 C3035 0.929 . S
H2996 C3037 0.931 . S
H2997 C3038 0.930 . S
H2998 C3040 0.930 . S
H2999 C3041 0.932 . S
H3000 C3043 0.930 . S
H3001 C3044 0.929 . S
H3002 C3046 0.931 . S
H3003 C3047 0.930 . S
H3004 C3049 0.929 . S
H3005 C3050 0.931 . S
H3006 C3052 0.930 . S
H3007 C3053 0.929 . S
O3008 H2982 0.856 . S
O3008 C3054 1.300 . S
O3009 C3054 1.209 . S
O3010 C3055 1.199 . S
O3011 H2983 0.854 . S
O3011 C3055 1.297 . S
C3012 C3013 1.404 . S
C3012 C3017 1.397 . S
C3012 C3018 1.492 . S
C3013 C3012 1.404 . S
C3013 C3014 1.396 . S
C3013 C3024 1.492 . S
C3014 C3013 1.396 . S
C3014 C3015 1.397 . S
C3014 C3030 1.509 . S
C3015 C3014 1.397 . S
C3015 C3016 1.412 . S
C3015 C3036 1.485 . S
C3016 C3015 1.412 . S
C3016 C3017 1.388 . S
C3016 C3042 1.490 . S
C3017 C3012 1.397 . S
C3017 C3016 1.388 . S
C3017 C3048 1.519 . S
C3018 C3012 1.492 . S
C3018 C3019 1.363 . S
C3018 C3023 1.390 . S
C3019 H2984 0.930 . S
C3019 C3018 1.363 . S
C3019 C3020 1.372 . S
C3020 H2985 0.930 . S
C3020 C3019 1.372 . S
C3020 C3021 1.383 . S
C3021 C3020 1.383 . S
C3021 C3022 1.395 . S
C3022 H2986 0.930 . S
C3022 C3021 1.395 . S
C3022 C3023 1.362 . S
C3023 H2987 0.930 . S
C3023 C3018 1.390 . S
C3023 C3022 1.362 . S
C3024 C3013 1.492 . S
C3024 C3025 1.377 . S
C3024 C3029 1.397 . S
C3025 H2988 0.931 . S
C3025 C3024 1.377 . S
C3025 C3026 1.376 . S
C3026 H2989 0.930 . S
C3026 C3025 1.376 . S
C3026 C3027 1.376 . S
C3027 C3026 1.376 . S
C3027 C3028 1.378 . S
C3027 C3054 1.486 . S
C3028 H2990 0.930 . S
C3028 C3027 1.378 . S
C3028 C3029 1.376 . S
C3029 H2991 0.929 . S
C3029 C3024 1.397 . S
C3029 C3028 1.376 . S
C3030 C3014 1.509 . S
C3030 C3031 1.391 . S
C3030 C3035 1.386 . S
C3031 H2992 0.930 . S
C3031 C3030 1.391 . S
C3031 C3032 1.375 . S
C3032 H2993 0.931 . S
C3032 C3031 1.375 . S
C3032 C3033 1.375 . S
C3033 C3032 1.375 . S
C3033 C3034 1.361 . S
C3034 H2994 0.930 . S
C3034 C3033 1.361 . S
C3034 C3035 1.399 . S
C3035 H2995 0.929 . S
C3035 C3030 1.386 . S
C3035 C3034 1.399 . S
C3036 C3015 1.485 . S
C3036 C3037 1.394 . S
C3036 C3041 1.360 . S
C3037 H2996 0.931 . S
C3037 C3036 1.394 . S
C3037 C3038 1.372 . S
C3038 H2997 0.930 . S
C3038 C3037 1.372 . S
C3038 C3039 1.397 . S
C3039 C3038 1.397 . S
C3039 C3040 1.390 . S
C3039 C3055 1.476 . S
C3040 H2998 0.930 . S
C3040 C3039 1.390 . S
C3040 C3041 1.366 . S
C3041 H2999 0.932 . S
C3041 C3036 1.360 . S
C3041 C3040 1.366 . S
C3042 C3016 1.490 . S
C3042 C3043 1.380 . S
C3042 C3047 1.386 . S
C3043 H3000 0.930 . S
C3043 C3042 1.380 . S
C3043 C3044 1.381 . S
C3044 H3001 0.929 . S
C3044 C3043 1.381 . S
C3044 C3045 1.371 . S
C3045 C3044 1.371 . S
C3045 C3046 1.380 . S
C3046 H3002 0.931 . S
C3046 C3045 1.380 . S
C3046 C3047 1.387 . S
C3047 H3003 0.930 . S
C3047 C3042 1.386 . S
C3047 C3046 1.387 . S
C3048 C3017 1.519 . S
C3048 C3049 1.377 . S
C3048 C3053 1.361 . S
C3049 H3004 0.929 . S
C3049 C3048 1.377 . S
C3049 C3050 1.386 . S
C3050 H3005 0.931 . S
C3050 C3049 1.386 . S
C3050 C3051 1.363 . S
C3051 C3050 1.363 . S
C3051 C3052 1.385 . S
C3052 H3006 0.930 . S
C3052 C3051 1.385 . S
C3052 C3053 1.396 . S
C3053 H3007 0.929 . S
C3053 C3048 1.361 . S
C3053 C3052 1.396 . S
C3054 O3008 1.300 . S
C3054 O3009 1.209 . S
C3054 C3027 1.486 . S
C3055 O3010 1.199 . S
C3055 O3011 1.297 . S
C3055 C3039 1.476 . S
C3056 C3057 1.349 . S
C3056 C3058 1.327 . S
C3056 H3081 0.950 . S
C3057 C3056 1.349 . S
C3057 C3073 1.349 . S
C3058 C3056 1.327 . S
C3058 C3077 1.429 . S
C3058 H3082 0.950 . S
C3059 C3076 1.574 . S
C3059 C3078 1.368 . S
C3059 H3083 0.949 . S
H3060 C3064 0.949 . S
C3061 C3062 1.349 . S
C3061 C3063 1.327 . S
C3061 H3084 0.950 . S
C3062 C3061 1.349 . S
C3062 C3074 1.349 . S
C3063 C3061 1.327 . S
C3063 C3079 1.429 . S
C3063 H3085 0.950 . S
C3064 H3060 0.949 . S
C3064 C3072 1.574 . S
C3064 C3080 1.368 . S
H3065 C3073 0.950 . S
H3066 C3071 0.950 . S
H3067 C3072 0.949 . S
H3068 C3074 0.950 . S
H3069 C3075 0.950 . S
H3070 C3076 0.949 . S
C3071 H3066 0.950 . S
C3071 C3073 1.327 . S
C3071 C3077 1.429 . S
C3072 C3064 1.574 . S
C3072 H3067 0.949 . S
C3072 C3078 1.368 . S
C3073 C3057 1.349 . S
C3073 H3065 0.950 . S
C3073 C3071 1.327 . S
C3074 C3062 1.349 . S
C3074 H3068 0.950 . S
C3074 C3075 1.327 . S
C3075 H3069 0.950 . S
C3075 C3074 1.327 . S
C3075 C3079 1.429 . S
C3076 C3059 1.574 . S
C3076 H3070 0.949 . S
C3076 C3080 1.368 . S
C3077 C3058 1.429 . S
C3077 C3071 1.429 . S
C3077 C3078 1.523 . S
C3078 C3059 1.368 . S
C3078 C3072 1.368 . S
C3078 C3077 1.523 . S
C3079 C3063 1.429 . S
C3079 C3075 1.429 . S
C3079 C3080 1.523 . S
C3080 C3064 1.368 . S
C3080 C3076 1.368 . S
C3080 C3079 1.523 . S
H3081 C3056 0.950 . S
H3082 C3058 0.950 . S
H3083 C3059 0.949 . S
H3084 C3061 0.950 . S
H3085 C3063 0.950 . S
C3086 C3087 1.349 . S
C3086 C3088 1.327 . S
C3086 H3111 0.950 . S
C3087 C3086 1.349 . S
C3087 C3103 1.349 . S
C3088 C3086 1.327 . S
C3088 C3107 1.429 . S
C3088 H3112 0.950 . S
C3089 C3106 1.574 . S
C3089 C3108 1.368 . S
C3089 H3113 0.949 . S
H3090 C3094 0.949 . S
C3091 C3092 1.349 . S
C3091 C3093 1.327 . S
C3091 H3114 0.950 . S
C3092 C3091 1.349 . S
C3092 C3104 1.349 . S
C3093 C3091 1.327 . S
C3093 C3109 1.429 . S
C3093 H3115 0.950 . S
C3094 H3090 0.949 . S
C3094 C3102 1.574 . S
C3094 C3110 1.368 . S
H3095 C3103 0.950 . S
H3096 C3101 0.950 . S
H3097 C3102 0.949 . S
H3098 C3104 0.950 . S
H3099 C3105 0.950 . S
H3100 C3106 0.949 . S
C3101 H3096 0.950 . S
C3101 C3103 1.327 . S
C3101 C3107 1.429 . S
C3102 C3094 1.574 . S
C3102 H3097 0.949 . S
C3102 C3108 1.368 . S
C3103 C3087 1.349 . S
C3103 H3095 0.950 . S
C3103 C3101 1.327 . S
C3104 C3092 1.349 . S
C3104 H3098 0.950 . S
C3104 C3105 1.327 . S
C3105 H3099 0.950 . S
C3105 C3104 1.327 . S
C3105 C3109 1.429 . S
C3106 C3089 1.574 . S
C3106 H3100 0.949 . S
C3106 C3110 1.368 . S
C3107 C3088 1.429 . S
C3107 C3101 1.429 . S
C3107 C3108 1.523 . S
C3108 C3089 1.368 . S
C3108 C3102 1.368 . S
C3108 C3107 1.523 . S
C3109 C3093 1.429 . S
C3109 C3105 1.429 . S
C3109 C3110 1.523 . S
C3110 C3094 1.368 . S
C3110 C3106 1.368 . S
C3110 C3109 1.523 . S
H3111 C3086 0.950 . S
H3112 C3088 0.950 . S
H3113 C3089 0.949 . S
H3114 C3091 0.950 . S
H3115 C3093 0.950 . S
C3116 C3117 1.349 . S
C3116 C3118 1.327 . S
C3116 H3141 0.950 . S
C3117 C3116 1.349 . S
C3117 C3133 1.349 . S
C3118 C3116 1.327 . S
C3118 C3137 1.429 . S
C3118 H3142 0.950 . S
C3119 C3136 1.574 . S
C3119 C3138 1.368 . S
C3119 H3143 0.949 . S
H3120 C3124 0.949 . S
C3121 C3122 1.349 . S
C3121 C3123 1.327 . S
C3121 H3144 0.950 . S
C3122 C3121 1.349 . S
C3122 C3134 1.349 . S
C3123 C3121 1.327 . S
C3123 C3139 1.429 . S
C3123 H3145 0.950 . S
C3124 H3120 0.949 . S
C3124 C3132 1.574 . S
C3124 C3140 1.368 . S
H3125 C3133 0.950 . S
H3126 C3131 0.950 . S
H3127 C3132 0.949 . S
H3128 C3134 0.950 . S
H3129 C3135 0.950 . S
H3130 C3136 0.949 . S
C3131 H3126 0.950 . S
C3131 C3133 1.327 . S
C3131 C3137 1.429 . S
C3132 C3124 1.574 . S
C3132 H3127 0.949 . S
C3132 C3138 1.368 . S
C3133 C3117 1.349 . S
C3133 H3125 0.950 . S
C3133 C3131 1.327 . S
C3134 C3122 1.349 . S
C3134 H3128 0.950 . S
C3134 C3135 1.327 . S
C3135 H3129 0.950 . S
C3135 C3134 1.327 . S
C3135 C3139 1.429 . S
C3136 C3119 1.574 . S
C3136 H3130 0.949 . S
C3136 C3140 1.368 . S
C3137 C3118 1.429 . S
C3137 C3131 1.429 . S
C3137 C3138 1.523 . S
C3138 C3119 1.368 . S
C3138 C3132 1.368 . S
C3138 C3137 1.523 . S
C3139 C3123 1.429 . S
C3139 C3135 1.429 . S
C3139 C3140 1.523 . S
C3140 C3124 1.368 . S
C3140 C3136 1.368 . S
C3140 C3139 1.523 . S
H3141 C3116 0.950 . S
H3142 C3118 0.950 . S
H3143 C3119 0.949 . S
H3144 C3121 0.950 . S
H3145 C3123 0.950 . S
C3146 C3147 1.349 . S
C3146 C3148 1.327 . S
C3146 H3171 0.950 . S
C3147 C3146 1.349 . S
C3147 C3163 1.349 . S
C3148 C3146 1.327 . S
C3148 C3167 1.429 . S
C3148 H3172 0.950 . S
C3149 C3166 1.574 . S
C3149 C3168 1.368 . S
C3149 H3173 0.949 . S
H3150 C3154 0.949 . S
C3151 C3152 1.349 . S
C3151 C3153 1.327 . S
C3151 H3174 0.950 . S
C3152 C3151 1.349 . S
C3152 C3164 1.349 . S
C3153 C3151 1.327 . S
C3153 C3169 1.429 . S
C3153 H3175 0.950 . S
C3154 H3150 0.949 . S
C3154 C3162 1.574 . S
C3154 C3170 1.368 . S
H3155 C3163 0.950 . S
H3156 C3161 0.950 . S
H3157 C3162 0.949 . S
H3158 C3164 0.950 . S
H3159 C3165 0.950 . S
H3160 C3166 0.949 . S
C3161 H3156 0.950 . S
C3161 C3163 1.327 . S
C3161 C3167 1.429 . S
C3162 C3154 1.574 . S
C3162 H3157 0.949 . S
C3162 C3168 1.368 . S
C3163 C3147 1.349 . S
C3163 H3155 0.950 . S
C3163 C3161 1.327 . S
C3164 C3152 1.349 . S
C3164 H3158 0.950 . S
C3164 C3165 1.327 . S
C3165 H3159 0.950 . S
C3165 C3164 1.327 . S
C3165 C3169 1.429 . S
C3166 C3149 1.574 . S
C3166 H3160 0.949 . S
C3166 C3170 1.368 . S
C3167 C3148 1.429 . S
C3167 C3161 1.429 . S
C3167 C3168 1.523 . S
C3168 C3149 1.368 . S
C3168 C3162 1.368 . S
C3168 C3167 1.523 . S
C3169 C3153 1.429 . S
C3169 C3165 1.429 . S
C3169 C3170 1.523 . S
C3170 C3154 1.368 . S
C3170 C3166 1.368 . S
C3170 C3169 1.523 . S
H3171 C3146 0.950 . S
H3172 C3148 0.950 . S
H3173 C3149 0.949 . S
H3174 C3151 0.950 . S
H3175 C3153 0.950 . S
C3176 C3177 1.349 . S
C3176 C3178 1.327 . S
C3176 H3201 0.950 . S
C3177 C3176 1.349 . S
C3177 C3193 1.349 . S
C3178 C3176 1.327 . S
C3178 C3197 1.429 . S
C3178 H3202 0.950 . S
C3179 C3196 1.574 . S
C3179 C3198 1.368 . S
C3179 H3203 0.949 . S
H3180 C3184 0.949 . S
C3181 C3182 1.349 . S
C3181 C3183 1.327 . S
C3181 H3204 0.950 . S
C3182 C3181 1.349 . S
C3182 C3194 1.349 . S
C3183 C3181 1.327 . S
C3183 C3199 1.429 . S
C3183 H3205 0.950 . S
C3184 H3180 0.949 . S
C3184 C3192 1.574 . S
C3184 C3200 1.368 . S
H3185 C3193 0.950 . S
H3186 C3191 0.950 . S
H3187 C3192 0.949 . S
H3188 C3194 0.950 . S
H3189 C3195 0.950 . S
H3190 C3196 0.949 . S
C3191 H3186 0.950 . S
C3191 C3193 1.327 . S
C3191 C3197 1.429 . S
C3192 C3184 1.574 . S
C3192 H3187 0.949 . S
C3192 C3198 1.368 . S
C3193 C3177 1.349 . S
C3193 H3185 0.950 . S
C3193 C3191 1.327 . S
C3194 C3182 1.349 . S
C3194 H3188 0.950 . S
C3194 C3195 1.327 . S
C3195 H3189 0.950 . S
C3195 C3194 1.327 . S
C3195 C3199 1.429 . S
C3196 C3179 1.574 . S
C3196 H3190 0.949 . S
C3196 C3200 1.368 . S
C3197 C3178 1.429 . S
C3197 C3191 1.429 . S
C3197 C3198 1.523 . S
C3198 C3179 1.368 . S
C3198 C3192 1.368 . S
C3198 C3197 1.523 . S
C3199 C3183 1.429 . S
C3199 C3195 1.429 . S
C3199 C3200 1.523 . S
C3200 C3184 1.368 . S
C3200 C3196 1.368 . S
C3200 C3199 1.523 . S
H3201 C3176 0.950 . S
H3202 C3178 0.950 . S
H3203 C3179 0.949 . S
H3204 C3181 0.950 . S
H3205 C3183 0.950 . S
C3206 C3207 1.349 . S
C3206 C3208 1.327 . S
C3206 H3231 0.950 . S
C3207 C3206 1.349 . S
C3207 C3223 1.349 . S
C3208 C3206 1.327 . S
C3208 C3227 1.429 . S
C3208 H3232 0.950 . S
C3209 C3226 1.574 . S
C3209 C3228 1.368 . S
C3209 H3233 0.949 . S
H3210 C3214 0.949 . S
C3211 C3212 1.349 . S
C3211 C3213 1.327 . S
C3211 H3234 0.950 . S
C3212 C3211 1.349 . S
C3212 C3224 1.349 . S
C3213 C3211 1.327 . S
C3213 C3229 1.429 . S
C3213 H3235 0.950 . S
C3214 H3210 0.949 . S
C3214 C3222 1.574 . S
C3214 C3230 1.368 . S
H3215 C3223 0.950 . S
H3216 C3221 0.950 . S
H3217 C3222 0.949 . S
H3218 C3224 0.950 . S
H3219 C3225 0.950 . S
H3220 C3226 0.949 . S
C3221 H3216 0.950 . S
C3221 C3223 1.327 . S
C3221 C3227 1.429 . S
C3222 C3214 1.574 . S
C3222 H3217 0.949 . S
C3222 C3228 1.368 . S
C3223 C3207 1.349 . S
C3223 H3215 0.950 . S
C3223 C3221 1.327 . S
C3224 C3212 1.349 . S
C3224 H3218 0.950 . S
C3224 C3225 1.327 . S
C3225 H3219 0.950 . S
C3225 C3224 1.327 . S
C3225 C3229 1.429 . S
C3226 C3209 1.574 . S
C3226 H3220 0.949 . S
C3226 C3230 1.368 . S
C3227 C3208 1.429 . S
C3227 C3221 1.429 . S
C3227 C3228 1.523 . S
C3228 C3209 1.368 . S
C3228 C3222 1.368 . S
C3228 C3227 1.523 . S
C3229 C3213 1.429 . S
C3229 C3225 1.429 . S
C3229 C3230 1.523 . S
C3230 C3214 1.368 . S
C3230 C3226 1.368 . S
C3230 C3229 1.523 . S
H3231 C3206 0.950 . S
H3232 C3208 0.950 . S
H3233 C3209 0.949 . S
H3234 C3211 0.950 . S
H3235 C3213 0.950 . S
C3236 C3237 1.349 . S
C3236 C3238 1.327 . S
C3236 H3261 0.950 . S
C3237 C3236 1.349 . S
C3237 C3253 1.349 . S
C3238 C3236 1.327 . S
C3238 C3257 1.429 . S
C3238 H3262 0.950 . S
C3239 C3256 1.574 . S
C3239 C3258 1.368 . S
C3239 H3263 0.949 . S
H3240 C3244 0.949 . S
C3241 C3242 1.349 . S
C3241 C3243 1.327 . S
C3241 H3264 0.950 . S
C3242 C3241 1.349 . S
C3242 C3254 1.349 . S
C3243 C3241 1.327 . S
C3243 C3259 1.429 . S
C3243 H3265 0.950 . S
C3244 H3240 0.949 . S
C3244 C3252 1.574 . S
C3244 C3260 1.368 . S
H3245 C3253 0.950 . S
H3246 C3251 0.950 . S
H3247 C3252 0.949 . S
H3248 C3254 0.950 . S
H3249 C3255 0.950 . S
H3250 C3256 0.949 . S
C3251 H3246 0.950 . S
C3251 C3253 1.327 . S
C3251 C3257 1.429 . S
C3252 C3244 1.574 . S
C3252 H3247 0.949 . S
C3252 C3258 1.368 . S
C3253 C3237 1.349 . S
C3253 H3245 0.950 . S
C3253 C3251 1.327 . S
C3254 C3242 1.349 . S
C3254 H3248 0.950 . S
C3254 C3255 1.327 . S
C3255 H3249 0.950 . S
C3255 C3254 1.327 . S
C3255 C3259 1.429 . S
C3256 C3239 1.574 . S
C3256 H3250 0.949 . S
C3256 C3260 1.368 . S
C3257 C3238 1.429 . S
C3257 C3251 1.429 . S
C3257 C3258 1.523 . S
C3258 C3239 1.368 . S
C3258 C3252 1.368 . S
C3258 C3257 1.523 . S
C3259 C3243 1.429 . S
C3259 C3255 1.429 . S
C3259 C3260 1.523 . S
C3260 C3244 1.368 . S
C3260 C3256 1.368 . S
C3260 C3259 1.523 . S
H3261 C3236 0.950 . S
H3262 C3238 0.950 . S
H3263 C3239 0.949 . S
H3264 C3241 0.950 . S
H3265 C3243 0.950 . S
C3266 C3267 1.349 . S
C3266 C3268 1.327 . S
C3266 H3291 0.950 . S
C3267 C3266 1.349 . S
C3267 C3283 1.349 . S
C3268 C3266 1.327 . S
C3268 C3287 1.429 . S
C3268 H3292 0.950 . S
C3269 C3286 1.574 . S
C3269 C3288 1.368 . S
C3269 H3293 0.949 . S
H3270 C3274 0.949 . S
C3271 C3272 1.349 . S
C3271 C3273 1.327 . S
C3271 H3294 0.950 . S
C3272 C3271 1.349 . S
C3272 C3284 1.349 . S
C3273 C3271 1.327 . S
C3273 C3289 1.429 . S
C3273 H3295 0.950 . S
C3274 H3270 0.949 . S
C3274 C3282 1.574 . S
C3274 C3290 1.368 . S
H3275 C3283 0.950 . S
H3276 C3281 0.950 . S
H3277 C3282 0.949 . S
H3278 C3284 0.950 . S
H3279 C3285 0.950 . S
H3280 C3286 0.949 . S
C3281 H3276 0.950 . S
C3281 C3283 1.327 . S
C3281 C3287 1.429 . S
C3282 C3274 1.574 . S
C3282 H3277 0.949 . S
C3282 C3288 1.368 . S
C3283 C3267 1.349 . S
C3283 H3275 0.950 . S
C3283 C3281 1.327 . S
C3284 C3272 1.349 . S
C3284 H3278 0.950 . S
C3284 C3285 1.327 . S
C3285 H3279 0.950 . S
C3285 C3284 1.327 . S
C3285 C3289 1.429 . S
C3286 C3269 1.574 . S
C3286 H3280 0.949 . S
C3286 C3290 1.368 . S
C3287 C3268 1.429 . S
C3287 C3281 1.429 . S
C3287 C3288 1.523 . S
C3288 C3269 1.368 . S
C3288 C3282 1.368 . S
C3288 C3287 1.523 . S
C3289 C3273 1.429 . S
C3289 C3285 1.429 . S
C3289 C3290 1.523 . S
C3290 C3274 1.368 . S
C3290 C3286 1.368 . S
C3290 C3289 1.523 . S
H3291 C3266 0.950 . S
H3292 C3268 0.950 . S
H3293 C3269 0.949 . S
H3294 C3271 0.950 . S
H3295 C3273 0.950 . S
C3296 C3297 1.349 . S
C3296 C3298 1.327 . S
C3296 H3321 0.950 . S
C3297 C3296 1.349 . S
C3297 C3313 1.349 . S
C3298 C3296 1.327 . S
C3298 C3317 1.429 . S
C3298 H3322 0.950 . S
C3299 C3316 1.574 . S
C3299 C3318 1.368 . S
C3299 H3323 0.949 . S
H3300 C3304 0.949 . S
C3301 C3302 1.349 . S
C3301 C3303 1.327 . S
C3301 H3324 0.950 . S
C3302 C3301 1.349 . S
C3302 C3314 1.349 . S
C3303 C3301 1.327 . S
C3303 C3319 1.429 . S
C3303 H3325 0.950 . S
C3304 H3300 0.949 . S
C3304 C3312 1.574 . S
C3304 C3320 1.368 . S
H3305 C3313 0.950 . S
H3306 C3311 0.950 . S
H3307 C3312 0.949 . S
H3308 C3314 0.950 . S
H3309 C3315 0.950 . S
H3310 C3316 0.949 . S
C3311 H3306 0.950 . S
C3311 C3313 1.327 . S
C3311 C3317 1.429 . S
C3312 C3304 1.574 . S
C3312 H3307 0.949 . S
C3312 C3318 1.368 . S
C3313 C3297 1.349 . S
C3313 H3305 0.950 . S
C3313 C3311 1.327 . S
C3314 C3302 1.349 . S
C3314 H3308 0.950 . S
C3314 C3315 1.327 . S
C3315 H3309 0.950 . S
C3315 C3314 1.327 . S
C3315 C3319 1.429 . S
C3316 C3299 1.574 . S
C3316 H3310 0.949 . S
C3316 C3320 1.368 . S
C3317 C3298 1.429 . S
C3317 C3311 1.429 . S
C3317 C3318 1.523 . S
C3318 C3299 1.368 . S
C3318 C3312 1.368 . S
C3318 C3317 1.523 . S
C3319 C3303 1.429 . S
C3319 C3315 1.429 . S
C3319 C3320 1.523 . S
C3320 C3304 1.368 . S
C3320 C3316 1.368 . S
C3320 C3319 1.523 . S
H3321 C3296 0.950 . S
H3322 C3298 0.950 . S
H3323 C3299 0.949 . S
H3324 C3301 0.950 . S
H3325 C3303 0.950 . S
C3326 C3327 1.349 . S
C3326 C3328 1.327 . S
C3326 H3351 0.950 . S
C3327 C3326 1.349 . S
C3327 C3343 1.349 . S
C3328 C3326 1.327 . S
C3328 C3347 1.429 . S
C3328 H3352 0.950 . S
C3329 C3346 1.574 . S
C3329 C3348 1.368 . S
C3329 H3353 0.949 . S
H3330 C3334 0.949 . S
C3331 C3332 1.349 . S
C3331 C3333 1.327 . S
C3331 H3354 0.950 . S
C3332 C3331 1.349 . S
C3332 C3344 1.349 . S
C3333 C3331 1.327 . S
C3333 C3349 1.429 . S
C3333 H3355 0.950 . S
C3334 H3330 0.949 . S
C3334 C3342 1.574 . S
C3334 C3350 1.368 . S
H3335 C3343 0.950 . S
H3336 C3341 0.950 . S
H3337 C3342 0.949 . S
H3338 C3344 0.950 . S
H3339 C3345 0.950 . S
H3340 C3346 0.949 . S
C3341 H3336 0.950 . S
C3341 C3343 1.327 . S
C3341 C3347 1.429 . S
C3342 C3334 1.574 . S
C3342 H3337 0.949 . S
C3342 C3348 1.368 . S
C3343 C3327 1.349 . S
C3343 H3335 0.950 . S
C3343 C3341 1.327 . S
C3344 C3332 1.349 . S
C3344 H3338 0.950 . S
C3344 C3345 1.327 . S
C3345 H3339 0.950 . S
C3345 C3344 1.327 . S
C3345 C3349 1.429 . S
C3346 C3329 1.574 . S
C3346 H3340 0.949 . S
C3346 C3350 1.368 . S
C3347 C3328 1.429 . S
C3347 C3341 1.429 . S
C3347 C3348 1.523 . S
C3348 C3329 1.368 . S
C3348 C3342 1.368 . S
C3348 C3347 1.523 . S
C3349 C3333 1.429 . S
C3349 C3345 1.429 . S
C3349 C3350 1.523 . S
C3350 C3334 1.368 . S
C3350 C3346 1.368 . S
C3350 C3349 1.523 . S
H3351 C3326 0.950 . S
H3352 C3328 0.950 . S
H3353 C3329 0.949 . S
H3354 C3331 0.950 . S
H3355 C3333 0.950 . S
C3356 C3357 1.349 . S
C3356 C3358 1.327 . S
C3356 H3381 0.950 . S
C3357 C3356 1.349 . S
C3357 C3373 1.349 . S
C3358 C3356 1.327 . S
C3358 C3377 1.429 . S
C3358 H3382 0.950 . S
C3359 C3376 1.574 . S
C3359 C3378 1.368 . S
C3359 H3383 0.949 . S
H3360 C3364 0.949 . S
C3361 C3362 1.349 . S
C3361 C3363 1.327 . S
C3361 H3384 0.950 . S
C3362 C3361 1.349 . S
C3362 C3374 1.349 . S
C3363 C3361 1.327 . S
C3363 C3379 1.429 . S
C3363 H3385 0.950 . S
C3364 H3360 0.949 . S
C3364 C3372 1.574 . S
C3364 C3380 1.368 . S
H3365 C3373 0.950 . S
H3366 C3371 0.950 . S
H3367 C3372 0.949 . S
H3368 C3374 0.950 . S
H3369 C3375 0.950 . S
H3370 C3376 0.949 . S
C3371 H3366 0.950 . S
C3371 C3373 1.327 . S
C3371 C3377 1.429 . S
C3372 C3364 1.574 . S
C3372 H3367 0.949 . S
C3372 C3378 1.368 . S
C3373 C3357 1.349 . S
C3373 H3365 0.950 . S
C3373 C3371 1.327 . S
C3374 C3362 1.349 . S
C3374 H3368 0.950 . S
C3374 C3375 1.327 . S
C3375 H3369 0.950 . S
C3375 C3374 1.327 . S
C3375 C3379 1.429 . S
C3376 C3359 1.574 . S
C3376 H3370 0.949 . S
C3376 C3380 1.368 . S
C3377 C3358 1.429 . S
C3377 C3371 1.429 . S
C3377 C3378 1.523 . S
C3378 C3359 1.368 . S
C3378 C3372 1.368 . S
C3378 C3377 1.523 . S
C3379 C3363 1.429 . S
C3379 C3375 1.429 . S
C3379 C3380 1.523 . S
C3380 C3364 1.368 . S
C3380 C3376 1.368 . S
C3380 C3379 1.523 . S
H3381 C3356 0.950 . S
H3382 C3358 0.950 . S
H3383 C3359 0.949 . S
H3384 C3361 0.950 . S
H3385 C3363 0.950 . S
C3386 C3387 1.349 . S
C3386 C3388 1.327 . S
C3386 H3411 0.950 . S
C3387 C3386 1.349 . S
C3387 C3403 1.349 . S
C3388 C3386 1.327 . S
C3388 C3407 1.429 . S
C3388 H3412 0.950 . S
C3389 C3406 1.574 . S
C3389 C3408 1.368 . S
C3389 H3413 0.949 . S
H3390 C3394 0.949 . S
C3391 C3392 1.349 . S
C3391 C3393 1.327 . S
C3391 H3414 0.950 . S
C3392 C3391 1.349 . S
C3392 C3404 1.349 . S
C3393 C3391 1.327 . S
C3393 C3409 1.429 . S
C3393 H3415 0.950 . S
C3394 H3390 0.949 . S
C3394 C3402 1.574 . S
C3394 C3410 1.368 . S
H3395 C3403 0.950 . S
H3396 C3401 0.950 . S
H3397 C3402 0.949 . S
H3398 C3404 0.950 . S
H3399 C3405 0.950 . S
H3400 C3406 0.949 . S
C3401 H3396 0.950 . S
C3401 C3403 1.327 . S
C3401 C3407 1.429 . S
C3402 C3394 1.574 . S
C3402 H3397 0.949 . S
C3402 C3408 1.368 . S
C3403 C3387 1.349 . S
C3403 H3395 0.950 . S
C3403 C3401 1.327 . S
C3404 C3392 1.349 . S
C3404 H3398 0.950 . S
C3404 C3405 1.327 . S
C3405 H3399 0.950 . S
C3405 C3404 1.327 . S
C3405 C3409 1.429 . S
C3406 C3389 1.574 . S
C3406 H3400 0.949 . S
C3406 C3410 1.368 . S
C3407 C3388 1.429 . S
C3407 C3401 1.429 . S
C3407 C3408 1.523 . S
C3408 C3389 1.368 . S
C3408 C3402 1.368 . S
C3408 C3407 1.523 . S
C3409 C3393 1.429 . S
C3409 C3405 1.429 . S
C3409 C3410 1.523 . S
C3410 C3394 1.368 . S
C3410 C3406 1.368 . S
C3410 C3409 1.523 . S
H3411 C3386 0.950 . S
H3412 C3388 0.950 . S
H3413 C3389 0.949 . S
H3414 C3391 0.950 . S
H3415 C3393 0.950 . S
C3416 C3417 1.349 . S
C3416 C3418 1.327 . S
C3416 H3441 0.950 . S
C3417 C3416 1.349 . S
C3417 C3433 1.349 . S
C3418 C3416 1.327 . S
C3418 C3437 1.429 . S
C3418 H3442 0.950 . S
C3419 C3436 1.574 . S
C3419 C3438 1.368 . S
C3419 H3443 0.949 . S
H3420 C3424 0.949 . S
C3421 C3422 1.349 . S
C3421 C3423 1.327 . S
C3421 H3444 0.950 . S
C3422 C3421 1.349 . S
C3422 C3434 1.349 . S
C3423 C3421 1.327 . S
C3423 C3439 1.429 . S
C3423 H3445 0.950 . S
C3424 H3420 0.949 . S
C3424 C3432 1.574 . S
C3424 C3440 1.368 . S
H3425 C3433 0.950 . S
H3426 C3431 0.950 . S
H3427 C3432 0.949 . S
H3428 C3434 0.950 . S
H3429 C3435 0.950 . S
H3430 C3436 0.949 . S
C3431 H3426 0.950 . S
C3431 C3433 1.327 . S
C3431 C3437 1.429 . S
C3432 C3424 1.574 . S
C3432 H3427 0.949 . S
C3432 C3438 1.368 . S
C3433 C3417 1.349 . S
C3433 H3425 0.950 . S
C3433 C3431 1.327 . S
C3434 C3422 1.349 . S
C3434 H3428 0.950 . S
C3434 C3435 1.327 . S
C3435 H3429 0.950 . S
C3435 C3434 1.327 . S
C3435 C3439 1.429 . S
C3436 C3419 1.574 . S
C3436 H3430 0.949 . S
C3436 C3440 1.368 . S
C3437 C3418 1.429 . S
C3437 C3431 1.429 . S
C3437 C3438 1.523 . S
C3438 C3419 1.368 . S
C3438 C3432 1.368 . S
C3438 C3437 1.523 . S
C3439 C3423 1.429 . S
C3439 C3435 1.429 . S
C3439 C3440 1.523 . S
C3440 C3424 1.368 . S
C3440 C3436 1.368 . S
C3440 C3439 1.523 . S
H3441 C3416 0.950 . S
H3442 C3418 0.950 . S
H3443 C3419 0.949 . S
H3444 C3421 0.950 . S
H3445 C3423 0.950 . S
C3446 C3447 1.349 . S
C3446 C3448 1.327 . S
C3446 H3471 0.950 . S
C3447 C3446 1.349 . S
C3447 C3463 1.349 . S
C3448 C3446 1.327 . S
C3448 C3467 1.429 . S
C3448 H3472 0.950 . S
C3449 C3466 1.574 . S
C3449 C3468 1.368 . S
C3449 H3473 0.949 . S
H3450 C3454 0.949 . S
C3451 C3452 1.349 . S
C3451 C3453 1.327 . S
C3451 H3474 0.950 . S
C3452 C3451 1.349 . S
C3452 C3464 1.349 . S
C3453 C3451 1.327 . S
C3453 C3469 1.429 . S
C3453 H3475 0.950 . S
C3454 H3450 0.949 . S
C3454 C3462 1.574 . S
C3454 C3470 1.368 . S
H3455 C3463 0.950 . S
H3456 C3461 0.950 . S
H3457 C3462 0.949 . S
H3458 C3464 0.950 . S
H3459 C3465 0.950 . S
H3460 C3466 0.949 . S
C3461 H3456 0.950 . S
C3461 C3463 1.327 . S
C3461 C3467 1.429 . S
C3462 C3454 1.574 . S
C3462 H3457 0.949 . S
C3462 C3468 1.368 . S
C3463 C3447 1.349 . S
C3463 H3455 0.950 . S
C3463 C3461 1.327 . S
C3464 C3452 1.349 . S
C3464 H3458 0.950 . S
C3464 C3465 1.327 . S
C3465 H3459 0.950 . S
C3465 C3464 1.327 . S
C3465 C3469 1.429 . S
C3466 C3449 1.574 . S
C3466 H3460 0.949 . S
C3466 C3470 1.368 . S
C3467 C3448 1.429 . S
C3467 C3461 1.429 . S
C3467 C3468 1.523 . S
C3468 C3449 1.368 . S
C3468 C3462 1.368 . S
C3468 C3467 1.523 . S
C3469 C3453 1.429 . S
C3469 C3465 1.429 . S
C3469 C3470 1.523 . S
C3470 C3454 1.368 . S
C3470 C3466 1.368 . S
C3470 C3469 1.523 . S
H3471 C3446 0.950 . S
H3472 C3448 0.950 . S
H3473 C3449 0.949 . S
H3474 C3451 0.950 . S
H3475 C3453 0.950 . S
C3476 C3477 1.349 . S
C3476 C3478 1.327 . S
C3476 H3501 0.950 . S
C3477 C3476 1.349 . S
C3477 C3493 1.349 . S
C3478 C3476 1.327 . S
C3478 C3497 1.429 . S
C3478 H3502 0.950 . S
C3479 C3496 1.574 . S
C3479 C3498 1.368 . S
C3479 H3503 0.949 . S
H3480 C3484 0.949 . S
C3481 C3482 1.349 . S
C3481 C3483 1.327 . S
C3481 H3504 0.950 . S
C3482 C3481 1.349 . S
C3482 C3494 1.349 . S
C3483 C3481 1.327 . S
C3483 C3499 1.429 . S
C3483 H3505 0.950 . S
C3484 H3480 0.949 . S
C3484 C3492 1.574 . S
C3484 C3500 1.368 . S
H3485 C3493 0.950 . S
H3486 C3491 0.950 . S
H3487 C3492 0.949 . S
H3488 C3494 0.950 . S
H3489 C3495 0.950 . S
H3490 C3496 0.949 . S
C3491 H3486 0.950 . S
C3491 C3493 1.327 . S
C3491 C3497 1.429 . S
C3492 C3484 1.574 . S
C3492 H3487 0.949 . S
C3492 C3498 1.368 . S
C3493 C3477 1.349 . S
C3493 H3485 0.950 . S
C3493 C3491 1.327 . S
C3494 C3482 1.349 . S
C3494 H3488 0.950 . S
C3494 C3495 1.327 . S
C3495 H3489 0.950 . S
C3495 C3494 1.327 . S
C3495 C3499 1.429 . S
C3496 C3479 1.574 . S
C3496 H3490 0.949 . S
C3496 C3500 1.368 . S
C3497 C3478 1.429 . S
C3497 C3491 1.429 . S
C3497 C3498 1.523 . S
C3498 C3479 1.368 . S
C3498 C3492 1.368 . S
C3498 C3497 1.523 . S
C3499 C3483 1.429 . S
C3499 C3495 1.429 . S
C3499 C3500 1.523 . S
C3500 C3484 1.368 . S
C3500 C3496 1.368 . S
C3500 C3499 1.523 . S
H3501 C3476 0.950 . S
H3502 C3478 0.950 . S
H3503 C3479 0.949 . S
H3504 C3481 0.950 . S
H3505 C3483 0.950 . S
C3506 C3507 1.349 . S
C3506 C3508 1.327 . S
C3506 H3531 0.950 . S
C3507 C3506 1.349 . S
C3507 C3523 1.349 . S
C3508 C3506 1.327 . S
C3508 C3527 1.429 . S
C3508 H3532 0.950 . S
C3509 C3526 1.574 . S
C3509 C3528 1.368 . S
C3509 H3533 0.949 . S
H3510 C3514 0.949 . S
C3511 C3512 1.349 . S
C3511 C3513 1.327 . S
C3511 H3534 0.950 . S
C3512 C3511 1.349 . S
C3512 C3524 1.349 . S
C3513 C3511 1.327 . S
C3513 C3529 1.429 . S
C3513 H3535 0.950 . S
C3514 H3510 0.949 . S
C3514 C3522 1.574 . S
C3514 C3530 1.368 . S
H3515 C3523 0.950 . S
H3516 C3521 0.950 . S
H3517 C3522 0.949 . S
H3518 C3524 0.950 . S
H3519 C3525 0.950 . S
H3520 C3526 0.949 . S
C3521 H3516 0.950 . S
C3521 C3523 1.327 . S
C3521 C3527 1.429 . S
C3522 C3514 1.574 . S
C3522 H3517 0.949 . S
C3522 C3528 1.368 . S
C3523 C3507 1.349 . S
C3523 H3515 0.950 . S
C3523 C3521 1.327 . S
C3524 C3512 1.349 . S
C3524 H3518 0.950 . S
C3524 C3525 1.327 . S
C3525 H3519 0.950 . S
C3525 C3524 1.327 . S
C3525 C3529 1.429 . S
C3526 C3509 1.574 . S
C3526 H3520 0.949 . S
C3526 C3530 1.368 . S
C3527 C3508 1.429 . S
C3527 C3521 1.429 . S
C3527 C3528 1.523 . S
C3528 C3509 1.368 . S
C3528 C3522 1.368 . S
C3528 C3527 1.523 . S
C3529 C3513 1.429 . S
C3529 C3525 1.429 . S
C3529 C3530 1.523 . S
C3530 C3514 1.368 . S
C3530 C3526 1.368 . S
C3530 C3529 1.523 . S
H3531 C3506 0.950 . S
H3532 C3508 0.950 . S
H3533 C3509 0.949 . S
H3534 C3511 0.950 . S
H3535 C3513 0.950 . S
C3536 C3537 1.349 . S
C3536 C3538 1.327 . S
C3536 H3561 0.950 . S
C3537 C3536 1.349 . S
C3537 C3553 1.349 . S
C3538 C3536 1.327 . S
C3538 C3557 1.429 . S
C3538 H3562 0.950 . S
C3539 C3556 1.574 . S
C3539 C3558 1.368 . S
C3539 H3563 0.949 . S
H3540 C3544 0.949 . S
C3541 C3542 1.349 . S
C3541 C3543 1.327 . S
C3541 H3564 0.950 . S
C3542 C3541 1.349 . S
C3542 C3554 1.349 . S
C3543 C3541 1.327 . S
C3543 C3559 1.429 . S
C3543 H3565 0.950 . S
C3544 H3540 0.949 . S
C3544 C3552 1.574 . S
C3544 C3560 1.368 . S
H3545 C3553 0.950 . S
H3546 C3551 0.950 . S
H3547 C3552 0.949 . S
H3548 C3554 0.950 . S
H3549 C3555 0.950 . S
H3550 C3556 0.949 . S
C3551 H3546 0.950 . S
C3551 C3553 1.327 . S
C3551 C3557 1.429 . S
C3552 C3544 1.574 . S
C3552 H3547 0.949 . S
C3552 C3558 1.368 . S
C3553 C3537 1.349 . S
C3553 H3545 0.950 . S
C3553 C3551 1.327 . S
C3554 C3542 1.349 . S
C3554 H3548 0.950 . S
C3554 C3555 1.327 . S
C3555 H3549 0.950 . S
C3555 C3554 1.327 . S
C3555 C3559 1.429 . S
C3556 C3539 1.574 . S
C3556 H3550 0.949 . S
C3556 C3560 1.368 . S
C3557 C3538 1.429 . S
C3557 C3551 1.429 . S
C3557 C3558 1.523 . S
C3558 C3539 1.368 . S
C3558 C3552 1.368 . S
C3558 C3557 1.523 . S
C3559 C3543 1.429 . S
C3559 C3555 1.429 . S
C3559 C3560 1.523 . S
C3560 C3544 1.368 . S
C3560 C3556 1.368 . S
C3560 C3559 1.523 . S
H3561 C3536 0.950 . S
H3562 C3538 0.950 . S
H3563 C3539 0.949 . S
H3564 C3541 0.950 . S
H3565 C3543 0.950 . S
C3566 C3567 1.349 . S
C3566 C3568 1.327 . S
C3566 H3591 0.950 . S
C3567 C3566 1.349 . S
C3567 C3583 1.349 . S
C3568 C3566 1.327 . S
C3568 C3587 1.429 . S
C3568 H3592 0.950 . S
C3569 C3586 1.574 . S
C3569 C3588 1.368 . S
C3569 H3593 0.949 . S
H3570 C3574 0.949 . S
C3571 C3572 1.349 . S
C3571 C3573 1.327 . S
C3571 H3594 0.950 . S
C3572 C3571 1.349 . S
C3572 C3584 1.349 . S
C3573 C3571 1.327 . S
C3573 C3589 1.429 . S
C3573 H3595 0.950 . S
C3574 H3570 0.949 . S
C3574 C3582 1.574 . S
C3574 C3590 1.368 . S
H3575 C3583 0.950 . S
H3576 C3581 0.950 . S
H3577 C3582 0.949 . S
H3578 C3584 0.950 . S
H3579 C3585 0.950 . S
H3580 C3586 0.949 . S
C3581 H3576 0.950 . S
C3581 C3583 1.327 . S
C3581 C3587 1.429 . S
C3582 C3574 1.574 . S
C3582 H3577 0.949 . S
C3582 C3588 1.368 . S
C3583 C3567 1.349 . S
C3583 H3575 0.950 . S
C3583 C3581 1.327 . S
C3584 C3572 1.349 . S
C3584 H3578 0.950 . S
C3584 C3585 1.327 . S
C3585 H3579 0.950 . S
C3585 C3584 1.327 . S
C3585 C3589 1.429 . S
C3586 C3569 1.574 . S
C3586 H3580 0.949 . S
C3586 C3590 1.368 . S
C3587 C3568 1.429 . S
C3587 C3581 1.429 . S
C3587 C3588 1.523 . S
C3588 C3569 1.368 . S
C3588 C3582 1.368 . S
C3588 C3587 1.523 . S
C3589 C3573 1.429 . S
C3589 C3585 1.429 . S
C3589 C3590 1.523 . S
C3590 C3574 1.368 . S
C3590 C3586 1.368 . S
C3590 C3589 1.523 . S
H3591 C3566 0.950 . S
H3592 C3568 0.950 . S
H3593 C3569 0.949 . S
H3594 C3571 0.950 . S
H3595 C3573 0.950 . S
C3596 C3597 1.349 . S
C3596 C3598 1.327 . S
C3596 H3621 0.950 . S
C3597 C3596 1.349 . S
C3597 C3613 1.349 . S
C3598 C3596 1.327 . S
C3598 C3617 1.429 . S
C3598 H3622 0.950 . S
C3599 C3616 1.574 . S
C3599 C3618 1.368 . S
C3599 H3623 0.949 . S
H3600 C3604 0.949 . S
C3601 C3602 1.349 . S
C3601 C3603 1.327 . S
C3601 H3624 0.950 . S
C3602 C3601 1.349 . S
C3602 C3614 1.349 . S
C3603 C3601 1.327 . S
C3603 C3619 1.429 . S
C3603 H3625 0.950 . S
C3604 H3600 0.949 . S
C3604 C3612 1.574 . S
C3604 C3620 1.368 . S
H3605 C3613 0.950 . S
H3606 C3611 0.950 . S
H3607 C3612 0.949 . S
H3608 C3614 0.950 . S
H3609 C3615 0.950 . S
H3610 C3616 0.949 . S
C3611 H3606 0.950 . S
C3611 C3613 1.327 . S
C3611 C3617 1.429 . S
C3612 C3604 1.574 . S
C3612 H3607 0.949 . S
C3612 C3618 1.368 . S
C3613 C3597 1.349 . S
C3613 H3605 0.950 . S
C3613 C3611 1.327 . S
C3614 C3602 1.349 . S
C3614 H3608 0.950 . S
C3614 C3615 1.327 . S
C3615 H3609 0.950 . S
C3615 C3614 1.327 . S
C3615 C3619 1.429 . S
C3616 C3599 1.574 . S
C3616 H3610 0.949 . S
C3616 C3620 1.368 . S
C3617 C3598 1.429 . S
C3617 C3611 1.429 . S
C3617 C3618 1.523 . S
C3618 C3599 1.368 . S
C3618 C3612 1.368 . S
C3618 C3617 1.523 . S
C3619 C3603 1.429 . S
C3619 C3615 1.429 . S
C3619 C3620 1.523 . S
C3620 C3604 1.368 . S
C3620 C3616 1.368 . S
C3620 C3619 1.523 . S
H3621 C3596 0.950 . S
H3622 C3598 0.950 . S
H3623 C3599 0.949 . S
H3624 C3601 0.950 . S
H3625 C3603 0.950 . S
C3626 C3627 1.349 . S
C3626 C3628 1.327 . S
C3626 H3651 0.950 . S
C3627 C3626 1.349 . S
C3627 C3643 1.349 . S
C3628 C3626 1.327 . S
C3628 C3647 1.429 . S
C3628 H3652 0.950 . S
C3629 C3646 1.574 . S
C3629 C3648 1.368 . S
C3629 H3653 0.949 . S
H3630 C3634 0.949 . S
C3631 C3632 1.349 . S
C3631 C3633 1.327 . S
C3631 H3654 0.950 . S
C3632 C3631 1.349 . S
C3632 C3644 1.349 . S
C3633 C3631 1.327 . S
C3633 C3649 1.429 . S
C3633 H3655 0.950 . S
C3634 H3630 0.949 . S
C3634 C3642 1.574 . S
C3634 C3650 1.368 . S
H3635 C3643 0.950 . S
H3636 C3641 0.950 . S
H3637 C3642 0.949 . S
H3638 C3644 0.950 . S
H3639 C3645 0.950 . S
H3640 C3646 0.949 . S
C3641 H3636 0.950 . S
C3641 C3643 1.327 . S
C3641 C3647 1.429 . S
C3642 C3634 1.574 . S
C3642 H3637 0.949 . S
C3642 C3648 1.368 . S
C3643 C3627 1.349 . S
C3643 H3635 0.950 . S
C3643 C3641 1.327 . S
C3644 C3632 1.349 . S
C3644 H3638 0.950 . S
C3644 C3645 1.327 . S
C3645 H3639 0.950 . S
C3645 C3644 1.327 . S
C3645 C3649 1.429 . S
C3646 C3629 1.574 . S
C3646 H3640 0.949 . S
C3646 C3650 1.368 . S
C3647 C3628 1.429 . S
C3647 C3641 1.429 . S
C3647 C3648 1.523 . S
C3648 C3629 1.368 . S
C3648 C3642 1.368 . S
C3648 C3647 1.523 . S
C3649 C3633 1.429 . S
C3649 C3645 1.429 . S
C3649 C3650 1.523 . S
C3650 C3634 1.368 . S
C3650 C3646 1.368 . S
C3650 C3649 1.523 . S
H3651 C3626 0.950 . S
H3652 C3628 0.950 . S
H3653 C3629 0.949 . S
H3654 C3631 0.950 . S
H3655 C3633 0.950 . S
C3656 C3657 1.349 . S
C3656 C3658 1.327 . S
C3656 H3681 0.950 . S
C3657 C3656 1.349 . S
C3657 C3673 1.349 . S
C3658 C3656 1.327 . S
C3658 C3677 1.429 . S
C3658 H3682 0.950 . S
C3659 C3676 1.574 . S
C3659 C3678 1.368 . S
C3659 H3683 0.949 . S
H3660 C3664 0.949 . S
C3661 C3662 1.349 . S
C3661 C3663 1.327 . S
C3661 H3684 0.950 . S
C3662 C3661 1.349 . S
C3662 C3674 1.349 . S
C3663 C3661 1.327 . S
C3663 C3679 1.429 . S
C3663 H3685 0.950 . S
C3664 H3660 0.949 . S
C3664 C3672 1.574 . S
C3664 C3680 1.368 . S
H3665 C3673 0.950 . S
H3666 C3671 0.950 . S
H3667 C3672 0.949 . S
H3668 C3674 0.950 . S
H3669 C3675 0.950 . S
H3670 C3676 0.949 . S
C3671 H3666 0.950 . S
C3671 C3673 1.327 . S
C3671 C3677 1.429 . S
C3672 C3664 1.574 . S
C3672 H3667 0.949 . S
C3672 C3678 1.368 . S
C3673 C3657 1.349 . S
C3673 H3665 0.950 . S
C3673 C3671 1.327 . S
C3674 C3662 1.349 . S
C3674 H3668 0.950 . S
C3674 C3675 1.327 . S
C3675 H3669 0.950 . S
C3675 C3674 1.327 . S
C3675 C3679 1.429 . S
C3676 C3659 1.574 . S
C3676 H3670 0.949 . S
C3676 C3680 1.368 . S
C3677 C3658 1.429 . S
C3677 C3671 1.429 . S
C3677 C3678 1.523 . S
C3678 C3659 1.368 . S
C3678 C3672 1.368 . S
C3678 C3677 1.523 . S
C3679 C3663 1.429 . S
C3679 C3675 1.429 . S
C3679 C3680 1.523 . S
C3680 C3664 1.368 . S
C3680 C3676 1.368 . S
C3680 C3679 1.523 . S
H3681 C3656 0.950 . S
H3682 C3658 0.950 . S
H3683 C3659 0.949 . S
H3684 C3661 0.950 . S
H3685 C3663 0.950 . S
C3686 C3687 1.349 . S
C3686 C3688 1.327 . S
C3686 H3711 0.950 . S
C3687 C3686 1.349 . S
C3687 C3703 1.349 . S
C3688 C3686 1.327 . S
C3688 C3707 1.429 . S
C3688 H3712 0.950 . S
C3689 C3706 1.574 . S
C3689 C3708 1.368 . S
C3689 H3713 0.949 . S
H3690 C3694 0.949 . S
C3691 C3692 1.349 . S
C3691 C3693 1.327 . S
C3691 H3714 0.950 . S
C3692 C3691 1.349 . S
C3692 C3704 1.349 . S
C3693 C3691 1.327 . S
C3693 C3709 1.429 . S
C3693 H3715 0.950 . S
C3694 H3690 0.949 . S
C3694 C3702 1.574 . S
C3694 C3710 1.368 . S
H3695 C3703 0.950 . S
H3696 C3701 0.950 . S
H3697 C3702 0.949 . S
H3698 C3704 0.950 . S
H3699 C3705 0.950 . S
H3700 C3706 0.949 . S
C3701 H3696 0.950 . S
C3701 C3703 1.327 . S
C3701 C3707 1.429 . S
C3702 C3694 1.574 . S
C3702 H3697 0.949 . S
C3702 C3708 1.368 . S
C3703 C3687 1.349 . S
C3703 H3695 0.950 . S
C3703 C3701 1.327 . S
C3704 C3692 1.349 . S
C3704 H3698 0.950 . S
C3704 C3705 1.327 . S
C3705 H3699 0.950 . S
C3705 C3704 1.327 . S
C3705 C3709 1.429 . S
C3706 C3689 1.574 . S
C3706 H3700 0.949 . S
C3706 C3710 1.368 . S
C3707 C3688 1.429 . S
C3707 C3701 1.429 . S
C3707 C3708 1.523 . S
C3708 C3689 1.368 . S
C3708 C3702 1.368 . S
C3708 C3707 1.523 . S
C3709 C3693 1.429 . S
C3709 C3705 1.429 . S
C3709 C3710 1.523 . S
C3710 C3694 1.368 . S
C3710 C3706 1.368 . S
C3710 C3709 1.523 . S
H3711 C3686 0.950 . S
H3712 C3688 0.950 . S
H3713 C3689 0.949 . S
H3714 C3691 0.950 . S
H3715 C3693 0.950 . S
C3716 C3717 1.349 . S
C3716 C3718 1.327 . S
C3716 H3741 0.950 . S
C3717 C3716 1.349 . S
C3717 C3733 1.349 . S
C3718 C3716 1.327 . S
C3718 C3737 1.429 . S
C3718 H3742 0.950 . S
C3719 C3736 1.574 . S
C3719 C3738 1.368 . S
C3719 H3743 0.949 . S
H3720 C3724 0.949 . S
C3721 C3722 1.349 . S
C3721 C3723 1.327 . S
C3721 H3744 0.950 . S
C3722 C3721 1.349 . S
C3722 C3734 1.349 . S
C3723 C3721 1.327 . S
C3723 C3739 1.429 . S
C3723 H3745 0.950 . S
C3724 H3720 0.949 . S
C3724 C3732 1.574 . S
C3724 C3740 1.368 . S
H3725 C3733 0.950 . S
H3726 C3731 0.950 . S
H3727 C3732 0.949 . S
H3728 C3734 0.950 . S
H3729 C3735 0.950 . S
H3730 C3736 0.949 . S
C3731 H3726 0.950 . S
C3731 C3733 1.327 . S
C3731 C3737 1.429 . S
C3732 C3724 1.574 . S
C3732 H3727 0.949 . S
C3732 C3738 1.368 . S
C3733 C3717 1.349 . S
C3733 H3725 0.950 . S
C3733 C3731 1.327 . S
C3734 C3722 1.349 . S
C3734 H3728 0.950 . S
C3734 C3735 1.327 . S
C3735 H3729 0.950 . S
C3735 C3734 1.327 . S
C3735 C3739 1.429 . S
C3736 C3719 1.574 . S
C3736 H3730 0.949 . S
C3736 C3740 1.368 . S
C3737 C3718 1.429 . S
C3737 C3731 1.429 . S
C3737 C3738 1.523 . S
C3738 C3719 1.368 . S
C3738 C3732 1.368 . S
C3738 C3737 1.523 . S
C3739 C3723 1.429 . S
C3739 C3735 1.429 . S
C3739 C3740 1.523 . S
C3740 C3724 1.368 . S
C3740 C3736 1.368 . S
C3740 C3739 1.523 . S
H3741 C3716 0.950 . S
H3742 C3718 0.950 . S
H3743 C3719 0.949 . S
H3744 C3721 0.950 . S
H3745 C3723 0.950 . S
C3746 C3747 1.349 . S
C3746 C3748 1.327 . S
C3746 H3771 0.950 . S
C3747 C3746 1.349 . S
C3747 C3763 1.349 . S
C3748 C3746 1.327 . S
C3748 C3767 1.429 . S
C3748 H3772 0.950 . S
C3749 C3766 1.574 . S
C3749 C3768 1.368 . S
C3749 H3773 0.949 . S
H3750 C3754 0.949 . S
C3751 C3752 1.349 . S
C3751 C3753 1.327 . S
C3751 H3774 0.950 . S
C3752 C3751 1.349 . S
C3752 C3764 1.349 . S
C3753 C3751 1.327 . S
C3753 C3769 1.429 . S
C3753 H3775 0.950 . S
C3754 H3750 0.949 . S
C3754 C3762 1.574 . S
C3754 C3770 1.368 . S
H3755 C3763 0.950 . S
H3756 C3761 0.950 . S
H3757 C3762 0.949 . S
H3758 C3764 0.950 . S
H3759 C3765 0.950 . S
H3760 C3766 0.949 . S
C3761 H3756 0.950 . S
C3761 C3763 1.327 . S
C3761 C3767 1.429 . S
C3762 C3754 1.574 . S
C3762 H3757 0.949 . S
C3762 C3768 1.368 . S
C3763 C3747 1.349 . S
C3763 H3755 0.950 . S
C3763 C3761 1.327 . S
C3764 C3752 1.349 . S
C3764 H3758 0.950 . S
C3764 C3765 1.327 . S
C3765 H3759 0.950 . S
C3765 C3764 1.327 . S
C3765 C3769 1.429 . S
C3766 C3749 1.574 . S
C3766 H3760 0.949 . S
C3766 C3770 1.368 . S
C3767 C3748 1.429 . S
C3767 C3761 1.429 . S
C3767 C3768 1.523 . S
C3768 C3749 1.368 . S
C3768 C3762 1.368 . S
C3768 C3767 1.523 . S
C3769 C3753 1.429 . S
C3769 C3765 1.429 . S
C3769 C3770 1.523 . S
C3770 C3754 1.368 . S
C3770 C3766 1.368 . S
C3770 C3769 1.523 . S
H3771 C3746 0.950 . S
H3772 C3748 0.950 . S
H3773 C3749 0.949 . S
H3774 C3751 0.950 . S
H3775 C3753 0.950 . S
C3776 C3777 1.349 . S
C3776 C3778 1.327 . S
C3776 H3801 0.950 . S
C3777 C3776 1.349 . S
C3777 C3793 1.349 . S
C3778 C3776 1.327 . S
C3778 C3797 1.429 . S
C3778 H3802 0.950 . S
C3779 C3796 1.574 . S
C3779 C3798 1.368 . S
C3779 H3803 0.949 . S
H3780 C3784 0.949 . S
C3781 C3782 1.349 . S
C3781 C3783 1.327 . S
C3781 H3804 0.950 . S
C3782 C3781 1.349 . S
C3782 C3794 1.349 . S
C3783 C3781 1.327 . S
C3783 C3799 1.429 . S
C3783 H3805 0.950 . S
C3784 H3780 0.949 . S
C3784 C3792 1.574 . S
C3784 C3800 1.368 . S
H3785 C3793 0.950 . S
H3786 C3791 0.950 . S
H3787 C3792 0.949 . S
H3788 C3794 0.950 . S
H3789 C3795 0.950 . S
H3790 C3796 0.949 . S
C3791 H3786 0.950 . S
C3791 C3793 1.327 . S
C3791 C3797 1.429 . S
C3792 C3784 1.574 . S
C3792 H3787 0.949 . S
C3792 C3798 1.368 . S
C3793 C3777 1.349 . S
C3793 H3785 0.950 . S
C3793 C3791 1.327 . S
C3794 C3782 1.349 . S
C3794 H3788 0.950 . S
C3794 C3795 1.327 . S
C3795 H3789 0.950 . S
C3795 C3794 1.327 . S
C3795 C3799 1.429 . S
C3796 C3779 1.574 . S
C3796 H3790 0.949 . S
C3796 C3800 1.368 . S
C3797 C3778 1.429 . S
C3797 C3791 1.429 . S
C3797 C3798 1.523 . S
C3798 C3779 1.368 . S
C3798 C3792 1.368 . S
C3798 C3797 1.523 . S
C3799 C3783 1.429 . S
C3799 C3795 1.429 . S
C3799 C3800 1.523 . S
C3800 C3784 1.368 . S
C3800 C3796 1.368 . S
C3800 C3799 1.523 . S
H3801 C3776 0.950 . S
H3802 C3778 0.950 . S
H3803 C3779 0.949 . S
H3804 C3781 0.950 . S
H3805 C3783 0.950 . S
C3806 C3807 1.349 . S
C3806 C3808 1.327 . S
C3806 H3831 0.950 . S
C3807 C3806 1.349 . S
C3807 C3823 1.349 . S
C3808 C3806 1.327 . S
C3808 C3827 1.429 . S
C3808 H3832 0.950 . S
C3809 C3826 1.574 . S
C3809 C3828 1.368 . S
C3809 H3833 0.949 . S
H3810 C3814 0.949 . S
C3811 C3812 1.349 . S
C3811 C3813 1.327 . S
C3811 H3834 0.950 . S
C3812 C3811 1.349 . S
C3812 C3824 1.349 . S
C3813 C3811 1.327 . S
C3813 C3829 1.429 . S
C3813 H3835 0.950 . S
C3814 H3810 0.949 . S
C3814 C3822 1.574 . S
C3814 C3830 1.368 . S
H3815 C3823 0.950 . S
H3816 C3821 0.950 . S
H3817 C3822 0.949 . S
H3818 C3824 0.950 . S
H3819 C3825 0.950 . S
H3820 C3826 0.949 . S
C3821 H3816 0.950 . S
C3821 C3823 1.327 . S
C3821 C3827 1.429 . S
C3822 C3814 1.574 . S
C3822 H3817 0.949 . S
C3822 C3828 1.368 . S
C3823 C3807 1.349 . S
C3823 H3815 0.950 . S
C3823 C3821 1.327 . S
C3824 C3812 1.349 . S
C3824 H3818 0.950 . S
C3824 C3825 1.327 . S
C3825 H3819 0.950 . S
C3825 C3824 1.327 . S
C3825 C3829 1.429 . S
C3826 C3809 1.574 . S
C3826 H3820 0.949 . S
C3826 C3830 1.368 . S
C3827 C3808 1.429 . S
C3827 C3821 1.429 . S
C3827 C3828 1.523 . S
C3828 C3809 1.368 . S
C3828 C3822 1.368 . S
C3828 C3827 1.523 . S
C3829 C3813 1.429 . S
C3829 C3825 1.429 . S
C3829 C3830 1.523 . S
C3830 C3814 1.368 . S
C3830 C3826 1.368 . S
C3830 C3829 1.523 . S
H3831 C3806 0.950 . S
H3832 C3808 0.950 . S
H3833 C3809 0.949 . S
H3834 C3811 0.950 . S
H3835 C3813 0.950 . S
C3836 C3837 1.349 . S
C3836 C3838 1.327 . S
C3836 H3861 0.950 . S
C3837 C3836 1.349 . S
C3837 C3853 1.349 . S
C3838 C3836 1.327 . S
C3838 C3857 1.429 . S
C3838 H3862 0.950 . S
C3839 C3856 1.574 . S
C3839 C3858 1.368 . S
C3839 H3863 0.949 . S
H3840 C3844 0.949 . S
C3841 C3842 1.349 . S
C3841 C3843 1.327 . S
C3841 H3864 0.950 . S
C3842 C3841 1.349 . S
C3842 C3854 1.349 . S
C3843 C3841 1.327 . S
C3843 C3859 1.429 . S
C3843 H3865 0.950 . S
C3844 H3840 0.949 . S
C3844 C3852 1.574 . S
C3844 C3860 1.368 . S
H3845 C3853 0.950 . S
H3846 C3851 0.950 . S
H3847 C3852 0.949 . S
H3848 C3854 0.950 . S
H3849 C3855 0.950 . S
H3850 C3856 0.949 . S
C3851 H3846 0.950 . S
C3851 C3853 1.327 . S
C3851 C3857 1.429 . S
C3852 C3844 1.574 . S
C3852 H3847 0.949 . S
C3852 C3858 1.368 . S
C3853 C3837 1.349 . S
C3853 H3845 0.950 . S
C3853 C3851 1.327 . S
C3854 C3842 1.349 . S
C3854 H3848 0.950 . S
C3854 C3855 1.327 . S
C3855 H3849 0.950 . S
C3855 C3854 1.327 . S
C3855 C3859 1.429 . S
C3856 C3839 1.574 . S
C3856 H3850 0.949 . S
C3856 C3860 1.368 . S
C3857 C3838 1.429 . S
C3857 C3851 1.429 . S
C3857 C3858 1.523 . S
C3858 C3839 1.368 . S
C3858 C3852 1.368 . S
C3858 C3857 1.523 . S
C3859 C3843 1.429 . S
C3859 C3855 1.429 . S
C3859 C3860 1.523 . S
C3860 C3844 1.368 . S
C3860 C3856 1.368 . S
C3860 C3859 1.523 . S
H3861 C3836 0.950 . S
H3862 C3838 0.950 . S
H3863 C3839 0.949 . S
H3864 C3841 0.950 . S
H3865 C3843 0.950 . S
C3866 C3867 1.349 . S
C3866 C3868 1.327 . S
C3866 H3891 0.950 . S
C3867 C3866 1.349 . S
C3867 C3883 1.349 . S
C3868 C3866 1.327 . S
C3868 C3887 1.429 . S
C3868 H3892 0.950 . S
C3869 C3886 1.574 . S
C3869 C3888 1.368 . S
C3869 H3893 0.949 . S
H3870 C3874 0.949 . S
C3871 C3872 1.349 . S
C3871 C3873 1.327 . S
C3871 H3894 0.950 . S
C3872 C3871 1.349 . S
C3872 C3884 1.349 . S
C3873 C3871 1.327 . S
C3873 C3889 1.429 . S
C3873 H3895 0.950 . S
C3874 H3870 0.949 . S
C3874 C3882 1.574 . S
C3874 C3890 1.368 . S
H3875 C3883 0.950 . S
H3876 C3881 0.950 . S
H3877 C3882 0.949 . S
H3878 C3884 0.950 . S
H3879 C3885 0.950 . S
H3880 C3886 0.949 . S
C3881 H3876 0.950 . S
C3881 C3883 1.327 . S
C3881 C3887 1.429 . S
C3882 C3874 1.574 . S
C3882 H3877 0.949 . S
C3882 C3888 1.368 . S
C3883 C3867 1.349 . S
C3883 H3875 0.950 . S
C3883 C3881 1.327 . S
C3884 C3872 1.349 . S
C3884 H3878 0.950 . S
C3884 C3885 1.327 . S
C3885 H3879 0.950 . S
C3885 C3884 1.327 . S
C3885 C3889 1.429 . S
C3886 C3869 1.574 . S
C3886 H3880 0.949 . S
C3886 C3890 1.368 . S
C3887 C3868 1.429 . S
C3887 C3881 1.429 . S
C3887 C3888 1.523 . S
C3888 C3869 1.368 . S
C3888 C3882 1.368 . S
C3888 C3887 1.523 . S
C3889 C3873 1.429 . S
C3889 C3885 1.429 . S
C3889 C3890 1.523 . S
C3890 C3874 1.368 . S
C3890 C3886 1.368 . S
C3890 C3889 1.523 . S
H3891 C3866 0.950 . S
H3892 C3868 0.950 . S
H3893 C3869 0.949 . S
H3894 C3871 0.950 . S
H3895 C3873 0.950 . S
C3896 C3897 1.349 . S
C3896 C3898 1.327 . S
C3896 H3921 0.950 . S
C3897 C3896 1.349 . S
C3897 C3913 1.349 . S
C3898 C3896 1.327 . S
C3898 C3917 1.429 . S
C3898 H3922 0.950 . S
C3899 C3916 1.574 . S
C3899 C3918 1.368 . S
C3899 H3923 0.949 . S
H3900 C3904 0.949 . S
C3901 C3902 1.349 . S
C3901 C3903 1.327 . S
C3901 H3924 0.950 . S
C3902 C3901 1.349 . S
C3902 C3914 1.349 . S
C3903 C3901 1.327 . S
C3903 C3919 1.429 . S
C3903 H3925 0.950 . S
C3904 H3900 0.949 . S
C3904 C3912 1.574 . S
C3904 C3920 1.368 . S
H3905 C3913 0.950 . S
H3906 C3911 0.950 . S
H3907 C3912 0.949 . S
H3908 C3914 0.950 . S
H3909 C3915 0.950 . S
H3910 C3916 0.949 . S
C3911 H3906 0.950 . S
C3911 C3913 1.327 . S
C3911 C3917 1.429 . S
C3912 C3904 1.574 . S
C3912 H3907 0.949 . S
C3912 C3918 1.368 . S
C3913 C3897 1.349 . S
C3913 H3905 0.950 . S
C3913 C3911 1.327 . S
C3914 C3902 1.349 . S
C3914 H3908 0.950 . S
C3914 C3915 1.327 . S
C3915 H3909 0.950 . S
C3915 C3914 1.327 . S
C3915 C3919 1.429 . S
C3916 C3899 1.574 . S
C3916 H3910 0.949 . S
C3916 C3920 1.368 . S
C3917 C3898 1.429 . S
C3917 C3911 1.429 . S
C3917 C3918 1.523 . S
C3918 C3899 1.368 . S
C3918 C3912 1.368 . S
C3918 C3917 1.523 . S
C3919 C3903 1.429 . S
C3919 C3915 1.429 . S
C3919 C3920 1.523 . S
C3920 C3904 1.368 . S
C3920 C3916 1.368 . S
C3920 C3919 1.523 . S
H3921 C3896 0.950 . S
H3922 C3898 0.950 . S
H3923 C3899 0.949 . S
H3924 C3901 0.950 . S
H3925 C3903 0.950 . S
C3926 C3927 1.349 . S
C3926 C3928 1.327 . S
C3926 H3951 0.950 . S
C3927 C3926 1.349 . S
C3927 C3943 1.349 . S
C3928 C3926 1.327 . S
C3928 C3947 1.429 . S
C3928 H3952 0.950 . S
C3929 C3946 1.574 . S
C3929 C3948 1.368 . S
C3929 H3953 0.949 . S
H3930 C3934 0.949 . S
C3931 C3932 1.349 . S
C3931 C3933 1.327 . S
C3931 H3954 0.950 . S
C3932 C3931 1.349 . S
C3932 C3944 1.349 . S
C3933 C3931 1.327 . S
C3933 C3949 1.429 . S
C3933 H3955 0.950 . S
C3934 H3930 0.949 . S
C3934 C3942 1.574 . S
C3934 C3950 1.368 . S
H3935 C3943 0.950 . S
H3936 C3941 0.950 . S
H3937 C3942 0.949 . S
H3938 C3944 0.950 . S
H3939 C3945 0.950 . S
H3940 C3946 0.949 . S
C3941 H3936 0.950 . S
C3941 C3943 1.327 . S
C3941 C3947 1.429 . S
C3942 C3934 1.574 . S
C3942 H3937 0.949 . S
C3942 C3948 1.368 . S
C3943 C3927 1.349 . S
C3943 H3935 0.950 . S
C3943 C3941 1.327 . S
C3944 C3932 1.349 . S
C3944 H3938 0.950 . S
C3944 C3945 1.327 . S
C3945 H3939 0.950 . S
C3945 C3944 1.327 . S
C3945 C3949 1.429 . S
C3946 C3929 1.574 . S
C3946 H3940 0.949 . S
C3946 C3950 1.368 . S
C3947 C3928 1.429 . S
C3947 C3941 1.429 . S
C3947 C3948 1.523 . S
C3948 C3929 1.368 . S
C3948 C3942 1.368 . S
C3948 C3947 1.523 . S
C3949 C3933 1.429 . S
C3949 C3945 1.429 . S
C3949 C3950 1.523 . S
C3950 C3934 1.368 . S
C3950 C3946 1.368 . S
C3950 C3949 1.523 . S
H3951 C3926 0.950 . S
H3952 C3928 0.950 . S
H3953 C3929 0.949 . S
H3954 C3931 0.950 . S
H3955 C3933 0.950 . S
C3956 C3957 1.349 . S
C3956 C3958 1.327 . S
C3956 H3981 0.950 . S
C3957 C3956 1.349 . S
C3957 C3973 1.349 . S
C3958 C3956 1.327 . S
C3958 C3977 1.429 . S
C3958 H3982 0.950 . S
C3959 C3976 1.574 . S
C3959 C3978 1.368 . S
C3959 H3983 0.949 . S
H3960 C3964 0.949 . S
C3961 C3962 1.349 . S
C3961 C3963 1.327 . S
C3961 H3984 0.950 . S
C3962 C3961 1.349 . S
C3962 C3974 1.349 . S
C3963 C3961 1.327 . S
C3963 C3979 1.429 . S
C3963 H3985 0.950 . S
C3964 H3960 0.949 . S
C3964 C3972 1.574 . S
C3964 C3980 1.368 . S
H3965 C3973 0.950 . S
H3966 C3971 0.950 . S
H3967 C3972 0.949 . S
H3968 C3974 0.950 . S
H3969 C3975 0.950 . S
H3970 C3976 0.949 . S
C3971 H3966 0.950 . S
C3971 C3973 1.327 . S
C3971 C3977 1.429 . S
C3972 C3964 1.574 . S
C3972 H3967 0.949 . S
C3972 C3978 1.368 . S
C3973 C3957 1.349 . S
C3973 H3965 0.950 . S
C3973 C3971 1.327 . S
C3974 C3962 1.349 . S
C3974 H3968 0.950 . S
C3974 C3975 1.327 . S
C3975 H3969 0.950 . S
C3975 C3974 1.327 . S
C3975 C3979 1.429 . S
C3976 C3959 1.574 . S
C3976 H3970 0.949 . S
C3976 C3980 1.368 . S
C3977 C3958 1.429 . S
C3977 C3971 1.429 . S
C3977 C3978 1.523 . S
C3978 C3959 1.368 . S
C3978 C3972 1.368 . S
C3978 C3977 1.523 . S
C3979 C3963 1.429 . S
C3979 C3975 1.429 . S
C3979 C3980 1.523 . S
C3980 C3964 1.368 . S
C3980 C3976 1.368 . S
C3980 C3979 1.523 . S
H3981 C3956 0.950 . S
H3982 C3958 0.950 . S
H3983 C3959 0.949 . S
H3984 C3961 0.950 . S
H3985 C3963 0.950 . S
C3986 C3987 1.349 . S
C3986 C3988 1.327 . S
C3986 H4011 0.950 . S
C3987 C3986 1.349 . S
C3987 C4003 1.349 . S
C3988 C3986 1.327 . S
C3988 C4007 1.429 . S
C3988 H4012 0.950 . S
C3989 C4006 1.574 . S
C3989 C4008 1.368 . S
C3989 H4013 0.949 . S
H3990 C3994 0.949 . S
C3991 C3992 1.349 . S
C3991 C3993 1.327 . S
C3991 H4014 0.950 . S
C3992 C3991 1.349 . S
C3992 C4004 1.349 . S
C3993 C3991 1.327 . S
C3993 C4009 1.429 . S
C3993 H4015 0.950 . S
C3994 H3990 0.949 . S
C3994 C4002 1.574 . S
C3994 C4010 1.368 . S
H3995 C4003 0.950 . S
H3996 C4001 0.950 . S
H3997 C4002 0.949 . S
H3998 C4004 0.950 . S
H3999 C4005 0.950 . S
H4000 C4006 0.949 . S
C4001 H3996 0.950 . S
C4001 C4003 1.327 . S
C4001 C4007 1.429 . S
C4002 C3994 1.574 . S
C4002 H3997 0.949 . S
C4002 C4008 1.368 . S
C4003 C3987 1.349 . S
C4003 H3995 0.950 . S
C4003 C4001 1.327 . S
C4004 C3992 1.349 . S
C4004 H3998 0.950 . S
C4004 C4005 1.327 . S
C4005 H3999 0.950 . S
C4005 C4004 1.327 . S
C4005 C4009 1.429 . S
C4006 C3989 1.574 . S
C4006 H4000 0.949 . S
C4006 C4010 1.368 . S
C4007 C3988 1.429 . S
C4007 C4001 1.429 . S
C4007 C4008 1.523 . S
C4008 C3989 1.368 . S
C4008 C4002 1.368 . S
C4008 C4007 1.523 . S
C4009 C3993 1.429 . S
C4009 C4005 1.429 . S
C4009 C4010 1.523 . S
C4010 C3994 1.368 . S
C4010 C4006 1.368 . S
C4010 C4009 1.523 . S
H4011 C3986 0.950 . S
H4012 C3988 0.950 . S
H4013 C3989 0.949 . S
H4014 C3991 0.950 . S
H4015 C3993 0.950 . S
C4016 C4017 1.349 . S
C4016 C4018 1.327 . S
C4016 H4041 0.950 . S
C4017 C4016 1.349 . S
C4017 C4033 1.349 . S
C4018 C4016 1.327 . S
C4018 C4037 1.429 . S
C4018 H4042 0.950 . S
C4019 C4036 1.574 . S
C4019 C4038 1.368 . S
C4019 H4043 0.949 . S
H4020 C4024 0.949 . S
C4021 C4022 1.349 . S
C4021 C4023 1.327 . S
C4021 H4044 0.950 . S
C4022 C4021 1.349 . S
C4022 C4034 1.349 . S
C4023 C4021 1.327 . S
C4023 C4039 1.429 . S
C4023 H4045 0.950 . S
C4024 H4020 0.949 . S
C4024 C4032 1.574 . S
C4024 C4040 1.368 . S
H4025 C4033 0.950 . S
H4026 C4031 0.950 . S
H4027 C4032 0.949 . S
H4028 C4034 0.950 . S
H4029 C4035 0.950 . S
H4030 C4036 0.949 . S
C4031 H4026 0.950 . S
C4031 C4033 1.327 . S
C4031 C4037 1.429 . S
C4032 C4024 1.574 . S
C4032 H4027 0.949 . S
C4032 C4038 1.368 . S
C4033 C4017 1.349 . S
C4033 H4025 0.950 . S
C4033 C4031 1.327 . S
C4034 C4022 1.349 . S
C4034 H4028 0.950 . S
C4034 C4035 1.327 . S
C4035 H4029 0.950 . S
C4035 C4034 1.327 . S
C4035 C4039 1.429 . S
C4036 C4019 1.574 . S
C4036 H4030 0.949 . S
C4036 C4040 1.368 . S
C4037 C4018 1.429 . S
C4037 C4031 1.429 . S
C4037 C4038 1.523 . S
C4038 C4019 1.368 . S
C4038 C4032 1.368 . S
C4038 C4037 1.523 . S
C4039 C4023 1.429 . S
C4039 C4035 1.429 . S
C4039 C4040 1.523 . S
C4040 C4024 1.368 . S
C4040 C4036 1.368 . S
C4040 C4039 1.523 . S
H4041 C4016 0.950 . S
H4042 C4018 0.950 . S
H4043 C4019 0.949 . S
H4044 C4021 0.950 . S
H4045 C4023 0.950 . S
C4046 C4047 1.349 . S
C4046 C4048 1.327 . S
C4046 H4071 0.950 . S
C4047 C4046 1.349 . S
C4047 C4063 1.349 . S
C4048 C4046 1.327 . S
C4048 C4067 1.429 . S
C4048 H4072 0.950 . S
C4049 C4066 1.574 . S
C4049 C4068 1.368 . S
C4049 H4073 0.949 . S
H4050 C4054 0.949 . S
C4051 C4052 1.349 . S
C4051 C4053 1.327 . S
C4051 H4074 0.950 . S
C4052 C4051 1.349 . S
C4052 C4064 1.349 . S
C4053 C4051 1.327 . S
C4053 C4069 1.429 . S
C4053 H4075 0.950 . S
C4054 H4050 0.949 . S
C4054 C4062 1.574 . S
C4054 C4070 1.368 . S
H4055 C4063 0.950 . S
H4056 C4061 0.950 . S
H4057 C4062 0.949 . S
H4058 C4064 0.950 . S
H4059 C4065 0.950 . S
H4060 C4066 0.949 . S
C4061 H4056 0.950 . S
C4061 C4063 1.327 . S
C4061 C4067 1.429 . S
C4062 C4054 1.574 . S
C4062 H4057 0.949 . S
C4062 C4068 1.368 . S
C4063 C4047 1.349 . S
C4063 H4055 0.950 . S
C4063 C4061 1.327 . S
C4064 C4052 1.349 . S
C4064 H4058 0.950 . S
C4064 C4065 1.327 . S
C4065 H4059 0.950 . S
C4065 C4064 1.327 . S
C4065 C4069 1.429 . S
C4066 C4049 1.574 . S
C4066 H4060 0.949 . S
C4066 C4070 1.368 . S
C4067 C4048 1.429 . S
C4067 C4061 1.429 . S
C4067 C4068 1.523 . S
C4068 C4049 1.368 . S
C4068 C4062 1.368 . S
C4068 C4067 1.523 . S
C4069 C4053 1.429 . S
C4069 C4065 1.429 . S
C4069 C4070 1.523 . S
C4070 C4054 1.368 . S
C4070 C4066 1.368 . S
C4070 C4069 1.523 . S
H4071 C4046 0.950 . S
H4072 C4048 0.950 . S
H4073 C4049 0.949 . S
H4074 C4051 0.950 . S
H4075 C4053 0.950 . S
C4076 C4077 1.349 . S
C4076 C4078 1.327 . S
C4076 H4101 0.950 . S
C4077 C4076 1.349 . S
C4077 C4093 1.349 . S
C4078 C4076 1.327 . S
C4078 C4097 1.429 . S
C4078 H4102 0.950 . S
C4079 C4096 1.574 . S
C4079 C4098 1.368 . S
C4079 H4103 0.949 . S
H4080 C4084 0.949 . S
C4081 C4082 1.349 . S
C4081 C4083 1.327 . S
C4081 H4104 0.950 . S
C4082 C4081 1.349 . S
C4082 C4094 1.349 . S
C4083 C4081 1.327 . S
C4083 C4099 1.429 . S
C4083 H4105 0.950 . S
C4084 H4080 0.949 . S
C4084 C4092 1.574 . S
C4084 C4100 1.368 . S
H4085 C4093 0.950 . S
H4086 C4091 0.950 . S
H4087 C4092 0.949 . S
H4088 C4094 0.950 . S
H4089 C4095 0.950 . S
H4090 C4096 0.949 . S
C4091 H4086 0.950 . S
C4091 C4093 1.327 . S
C4091 C4097 1.429 . S
C4092 C4084 1.574 . S
C4092 H4087 0.949 . S
C4092 C4098 1.368 . S
C4093 C4077 1.349 . S
C4093 H4085 0.950 . S
C4093 C4091 1.327 . S
C4094 C4082 1.349 . S
C4094 H4088 0.950 . S
C4094 C4095 1.327 . S
C4095 H4089 0.950 . S
C4095 C4094 1.327 . S
C4095 C4099 1.429 . S
C4096 C4079 1.574 . S
C4096 H4090 0.949 . S
C4096 C4100 1.368 . S
C4097 C4078 1.429 . S
C4097 C4091 1.429 . S
C4097 C4098 1.523 . S
C4098 C4079 1.368 . S
C4098 C4092 1.368 . S
C4098 C4097 1.523 . S
C4099 C4083 1.429 . S
C4099 C4095 1.429 . S
C4099 C4100 1.523 . S
C4100 C4084 1.368 . S
C4100 C4096 1.368 . S
C4100 C4099 1.523 . S
H4101 C4076 0.950 . S
H4102 C4078 0.950 . S
H4103 C4079 0.949 . S
H4104 C4081 0.950 . S
H4105 C4083 0.950 . S
C4106 C4107 1.349 . S
C4106 C4108 1.327 . S
C4106 H4131 0.950 . S
C4107 C4106 1.349 . S
C4107 C4123 1.349 . S
C4108 C4106 1.327 . S
C4108 C4127 1.429 . S
C4108 H4132 0.950 . S
C4109 C4126 1.574 . S
C4109 C4128 1.368 . S
C4109 H4133 0.949 . S
H4110 C4114 0.949 . S
C4111 C4112 1.349 . S
C4111 C4113 1.327 . S
C4111 H4134 0.950 . S
C4112 C4111 1.349 . S
C4112 C4124 1.349 . S
C4113 C4111 1.327 . S
C4113 C4129 1.429 . S
C4113 H4135 0.950 . S
C4114 H4110 0.949 . S
C4114 C4122 1.574 . S
C4114 C4130 1.368 . S
H4115 C4123 0.950 . S
H4116 C4121 0.950 . S
H4117 C4122 0.949 . S
H4118 C4124 0.950 . S
H4119 C4125 0.950 . S
H4120 C4126 0.949 . S
C4121 H4116 0.950 . S
C4121 C4123 1.327 . S
C4121 C4127 1.429 . S
C4122 C4114 1.574 . S
C4122 H4117 0.949 . S
C4122 C4128 1.368 . S
C4123 C4107 1.349 . S
C4123 H4115 0.950 . S
C4123 C4121 1.327 . S
C4124 C4112 1.349 . S
C4124 H4118 0.950 . S
C4124 C4125 1.327 . S
C4125 H4119 0.950 . S
C4125 C4124 1.327 . S
C4125 C4129 1.429 . S
C4126 C4109 1.574 . S
C4126 H4120 0.949 . S
C4126 C4130 1.368 . S
C4127 C4108 1.429 . S
C4127 C4121 1.429 . S
C4127 C4128 1.523 . S
C4128 C4109 1.368 . S
C4128 C4122 1.368 . S
C4128 C4127 1.523 . S
C4129 C4113 1.429 . S
C4129 C4125 1.429 . S
C4129 C4130 1.523 . S
C4130 C4114 1.368 . S
C4130 C4126 1.368 . S
C4130 C4129 1.523 . S
H4131 C4106 0.950 . S
H4132 C4108 0.950 . S
H4133 C4109 0.949 . S
H4134 C4111 0.950 . S
H4135 C4113 0.950 . S
C4136 C4137 1.349 . S
C4136 C4138 1.327 . S
C4136 H4161 0.950 . S
C4137 C4136 1.349 . S
C4137 C4153 1.349 . S
C4138 C4136 1.327 . S
C4138 C4157 1.429 . S
C4138 H4162 0.950 . S
C4139 C4156 1.574 . S
C4139 C4158 1.368 . S
C4139 H4163 0.949 . S
H4140 C4144 0.949 . S
C4141 C4142 1.349 . S
C4141 C4143 1.327 . S
C4141 H4164 0.950 . S
C4142 C4141 1.349 . S
C4142 C4154 1.349 . S
C4143 C4141 1.327 . S
C4143 C4159 1.429 . S
C4143 H4165 0.950 . S
C4144 H4140 0.949 . S
C4144 C4152 1.574 . S
C4144 C4160 1.368 . S
H4145 C4153 0.950 . S
H4146 C4151 0.950 . S
H4147 C4152 0.949 . S
H4148 C4154 0.950 . S
H4149 C4155 0.950 . S
H4150 C4156 0.949 . S
C4151 H4146 0.950 . S
C4151 C4153 1.327 . S
C4151 C4157 1.429 . S
C4152 C4144 1.574 . S
C4152 H4147 0.949 . S
C4152 C4158 1.368 . S
C4153 C4137 1.349 . S
C4153 H4145 0.950 . S
C4153 C4151 1.327 . S
C4154 C4142 1.349 . S
C4154 H4148 0.950 . S
C4154 C4155 1.327 . S
C4155 H4149 0.950 . S
C4155 C4154 1.327 . S
C4155 C4159 1.429 . S
C4156 C4139 1.574 . S
C4156 H4150 0.949 . S
C4156 C4160 1.368 . S
C4157 C4138 1.429 . S
C4157 C4151 1.429 . S
C4157 C4158 1.523 . S
C4158 C4139 1.368 . S
C4158 C4152 1.368 . S
C4158 C4157 1.523 . S
C4159 C4143 1.429 . S
C4159 C4155 1.429 . S
C4159 C4160 1.523 . S
C4160 C4144 1.368 . S
C4160 C4156 1.368 . S
C4160 C4159 1.523 . S
H4161 C4136 0.950 . S
H4162 C4138 0.950 . S
H4163 C4139 0.949 . S
H4164 C4141 0.950 . S
H4165 C4143 0.950 . S
C4166 C4167 1.349 . S
C4166 C4168 1.327 . S
C4166 H4191 0.950 . S
C4167 C4166 1.349 . S
C4167 C4183 1.349 . S
C4168 C4166 1.327 . S
C4168 C4187 1.429 . S
C4168 H4192 0.950 . S
C4169 C4186 1.574 . S
C4169 C4188 1.368 . S
C4169 H4193 0.949 . S
H4170 C4174 0.949 . S
C4171 C4172 1.349 . S
C4171 C4173 1.327 . S
C4171 H4194 0.950 . S
C4172 C4171 1.349 . S
C4172 C4184 1.349 . S
C4173 C4171 1.327 . S
C4173 C4189 1.429 . S
C4173 H4195 0.950 . S
C4174 H4170 0.949 . S
C4174 C4182 1.574 . S
C4174 C4190 1.368 . S
H4175 C4183 0.950 . S
H4176 C4181 0.950 . S
H4177 C4182 0.949 . S
H4178 C4184 0.950 . S
H4179 C4185 0.950 . S
H4180 C4186 0.949 . S
C4181 H4176 0.950 . S
C4181 C4183 1.327 . S
C4181 C4187 1.429 . S
C4182 C4174 1.574 . S
C4182 H4177 0.949 . S
C4182 C4188 1.368 . S
C4183 C4167 1.349 . S
C4183 H4175 0.950 . S
C4183 C4181 1.327 . S
C4184 C4172 1.349 . S
C4184 H4178 0.950 . S
C4184 C4185 1.327 . S
C4185 H4179 0.950 . S
C4185 C4184 1.327 . S
C4185 C4189 1.429 . S
C4186 C4169 1.574 . S
C4186 H4180 0.949 . S
C4186 C4190 1.368 . S
C4187 C4168 1.429 . S
C4187 C4181 1.429 . S
C4187 C4188 1.523 . S
C4188 C4169 1.368 . S
C4188 C4182 1.368 . S
C4188 C4187 1.523 . S
C4189 C4173 1.429 . S
C4189 C4185 1.429 . S
C4189 C4190 1.523 . S
C4190 C4174 1.368 . S
C4190 C4186 1.368 . S
C4190 C4189 1.523 . S
H4191 C4166 0.950 . S
H4192 C4168 0.950 . S
H4193 C4169 0.949 . S
H4194 C4171 0.950 . S
H4195 C4173 0.950 . S
C4196 C4197 1.349 . S
C4196 C4198 1.327 . S
C4196 H4221 0.950 . S
C4197 C4196 1.349 . S
C4197 C4213 1.349 . S
C4198 C4196 1.327 . S
C4198 C4217 1.429 . S
C4198 H4222 0.950 . S
C4199 C4216 1.574 . S
C4199 C4218 1.368 . S
C4199 H4223 0.949 . S
H4200 C4204 0.949 . S
C4201 C4202 1.349 . S
C4201 C4203 1.327 . S
C4201 H4224 0.950 . S
C4202 C4201 1.349 . S
C4202 C4214 1.349 . S
C4203 C4201 1.327 . S
C4203 C4219 1.429 . S
C4203 H4225 0.950 . S
C4204 H4200 0.949 . S
C4204 C4212 1.574 . S
C4204 C4220 1.368 . S
H4205 C4213 0.950 . S
H4206 C4211 0.950 . S
H4207 C4212 0.949 . S
H4208 C4214 0.950 . S
H4209 C4215 0.950 . S
H4210 C4216 0.949 . S
C4211 H4206 0.950 . S
C4211 C4213 1.327 . S
C4211 C4217 1.429 . S
C4212 C4204 1.574 . S
C4212 H4207 0.949 . S
C4212 C4218 1.368 . S
C4213 C4197 1.349 . S
C4213 H4205 0.950 . S
C4213 C4211 1.327 . S
C4214 C4202 1.349 . S
C4214 H4208 0.950 . S
C4214 C4215 1.327 . S
C4215 H4209 0.950 . S
C4215 C4214 1.327 . S
C4215 C4219 1.429 . S
C4216 C4199 1.574 . S
C4216 H4210 0.949 . S
C4216 C4220 1.368 . S
C4217 C4198 1.429 . S
C4217 C4211 1.429 . S
C4217 C4218 1.523 . S
C4218 C4199 1.368 . S
C4218 C4212 1.368 . S
C4218 C4217 1.523 . S
C4219 C4203 1.429 . S
C4219 C4215 1.429 . S
C4219 C4220 1.523 . S
C4220 C4204 1.368 . S
C4220 C4216 1.368 . S
C4220 C4219 1.523 . S
H4221 C4196 0.950 . S
H4222 C4198 0.950 . S
H4223 C4199 0.949 . S
H4224 C4201 0.950 . S
H4225 C4203 0.950 . S
C4226 C4227 1.349 . S
C4226 C4228 1.327 . S
C4226 H4251 0.950 . S
C4227 C4226 1.349 . S
C4227 C4243 1.349 . S
C4228 C4226 1.327 . S
C4228 C4247 1.429 . S
C4228 H4252 0.950 . S
C4229 C4246 1.574 . S
C4229 C4248 1.368 . S
C4229 H4253 0.949 . S
H4230 C4234 0.949 . S
C4231 C4232 1.349 . S
C4231 C4233 1.327 . S
C4231 H4254 0.950 . S
C4232 C4231 1.349 . S
C4232 C4244 1.349 . S
C4233 C4231 1.327 . S
C4233 C4249 1.429 . S
C4233 H4255 0.950 . S
C4234 H4230 0.949 . S
C4234 C4242 1.574 . S
C4234 C4250 1.368 . S
H4235 C4243 0.950 . S
H4236 C4241 0.950 . S
H4237 C4242 0.949 . S
H4238 C4244 0.950 . S
H4239 C4245 0.950 . S
H4240 C4246 0.949 . S
C4241 H4236 0.950 . S
C4241 C4243 1.327 . S
C4241 C4247 1.429 . S
C4242 C4234 1.574 . S
C4242 H4237 0.949 . S
C4242 C4248 1.368 . S
C4243 C4227 1.349 . S
C4243 H4235 0.950 . S
C4243 C4241 1.327 . S
C4244 C4232 1.349 . S
C4244 H4238 0.950 . S
C4244 C4245 1.327 . S
C4245 H4239 0.950 . S
C4245 C4244 1.327 . S
C4245 C4249 1.429 . S
C4246 C4229 1.574 . S
C4246 H4240 0.949 . S
C4246 C4250 1.368 . S
C4247 C4228 1.429 . S
C4247 C4241 1.429 . S
C4247 C4248 1.523 . S
C4248 C4229 1.368 . S
C4248 C4242 1.368 . S
C4248 C4247 1.523 . S
C4249 C4233 1.429 . S
C4249 C4245 1.429 . S
C4249 C4250 1.523 . S
C4250 C4234 1.368 . S
C4250 C4246 1.368 . S
C4250 C4249 1.523 . S
H4251 C4226 0.950 . S
H4252 C4228 0.950 . S
H4253 C4229 0.949 . S
H4254 C4231 0.950 . S
H4255 C4233 0.950 . S
C4256 C4257 1.349 . S
C4256 C4258 1.327 . S
C4256 H4281 0.950 . S
C4257 C4256 1.349 . S
C4257 C4273 1.349 . S
C4258 C4256 1.327 . S
C4258 C4277 1.429 . S
C4258 H4282 0.950 . S
C4259 C4276 1.574 . S
C4259 C4278 1.368 . S
C4259 H4283 0.949 . S
H4260 C4264 0.949 . S
C4261 C4262 1.349 . S
C4261 C4263 1.327 . S
C4261 H4284 0.950 . S
C4262 C4261 1.349 . S
C4262 C4274 1.349 . S
C4263 C4261 1.327 . S
C4263 C4279 1.429 . S
C4263 H4285 0.950 . S
C4264 H4260 0.949 . S
C4264 C4272 1.574 . S
C4264 C4280 1.368 . S
H4265 C4273 0.950 . S
H4266 C4271 0.950 . S
H4267 C4272 0.949 . S
H4268 C4274 0.950 . S
H4269 C4275 0.950 . S
H4270 C4276 0.949 . S
C4271 H4266 0.950 . S
C4271 C4273 1.327 . S
C4271 C4277 1.429 . S
C4272 C4264 1.574 . S
C4272 H4267 0.949 . S
C4272 C4278 1.368 . S
C4273 C4257 1.349 . S
C4273 H4265 0.950 . S
C4273 C4271 1.327 . S
C4274 C4262 1.349 . S
C4274 H4268 0.950 . S
C4274 C4275 1.327 . S
C4275 H4269 0.950 . S
C4275 C4274 1.327 . S
C4275 C4279 1.429 . S
C4276 C4259 1.574 . S
C4276 H4270 0.949 . S
C4276 C4280 1.368 . S
C4277 C4258 1.429 . S
C4277 C4271 1.429 . S
C4277 C4278 1.523 . S
C4278 C4259 1.368 . S
C4278 C4272 1.368 . S
C4278 C4277 1.523 . S
C4279 C4263 1.429 . S
C4279 C4275 1.429 . S
C4279 C4280 1.523 . S
C4280 C4264 1.368 . S
C4280 C4276 1.368 . S
C4280 C4279 1.523 . S
H4281 C4256 0.950 . S
H4282 C4258 0.950 . S
H4283 C4259 0.949 . S
H4284 C4261 0.950 . S
H4285 C4263 0.950 . S
C4286 C4287 1.349 . S
C4286 C4288 1.327 . S
C4286 H4311 0.950 . S
C4287 C4286 1.349 . S
C4287 C4303 1.349 . S
C4288 C4286 1.327 . S
C4288 C4307 1.429 . S
C4288 H4312 0.950 . S
C4289 C4306 1.574 . S
C4289 C4308 1.368 . S
C4289 H4313 0.949 . S
H4290 C4294 0.949 . S
C4291 C4292 1.349 . S
C4291 C4293 1.327 . S
C4291 H4314 0.950 . S
C4292 C4291 1.349 . S
C4292 C4304 1.349 . S
C4293 C4291 1.327 . S
C4293 C4309 1.429 . S
C4293 H4315 0.950 . S
C4294 H4290 0.949 . S
C4294 C4302 1.574 . S
C4294 C4310 1.368 . S
H4295 C4303 0.950 . S
H4296 C4301 0.950 . S
H4297 C4302 0.949 . S
H4298 C4304 0.950 . S
H4299 C4305 0.950 . S
H4300 C4306 0.949 . S
C4301 H4296 0.950 . S
C4301 C4303 1.327 . S
C4301 C4307 1.429 . S
C4302 C4294 1.574 . S
C4302 H4297 0.949 . S
C4302 C4308 1.368 . S
C4303 C4287 1.349 . S
C4303 H4295 0.950 . S
C4303 C4301 1.327 . S
C4304 C4292 1.349 . S
C4304 H4298 0.950 . S
C4304 C4305 1.327 . S
C4305 H4299 0.950 . S
C4305 C4304 1.327 . S
C4305 C4309 1.429 . S
C4306 C4289 1.574 . S
C4306 H4300 0.949 . S
C4306 C4310 1.368 . S
C4307 C4288 1.429 . S
C4307 C4301 1.429 . S
C4307 C4308 1.523 . S
C4308 C4289 1.368 . S
C4308 C4302 1.368 . S
C4308 C4307 1.523 . S
C4309 C4293 1.429 . S
C4309 C4305 1.429 . S
C4309 C4310 1.523 . S
C4310 C4294 1.368 . S
C4310 C4306 1.368 . S
C4310 C4309 1.523 . S
H4311 C4286 0.950 . S
H4312 C4288 0.950 . S
H4313 C4289 0.949 . S
H4314 C4291 0.950 . S
H4315 C4293 0.950 . S
C4316 C4317 1.349 . S
C4316 C4318 1.327 . S
C4316 H4341 0.950 . S
C4317 C4316 1.349 . S
C4317 C4333 1.349 . S
C4318 C4316 1.327 . S
C4318 C4337 1.429 . S
C4318 H4342 0.950 . S
C4319 C4336 1.574 . S
C4319 C4338 1.368 . S
C4319 H4343 0.949 . S
H4320 C4324 0.949 . S
C4321 C4322 1.349 . S
C4321 C4323 1.327 . S
C4321 H4344 0.950 . S
C4322 C4321 1.349 . S
C4322 C4334 1.349 . S
C4323 C4321 1.327 . S
C4323 C4339 1.429 . S
C4323 H4345 0.950 . S
C4324 H4320 0.949 . S
C4324 C4332 1.574 . S
C4324 C4340 1.368 . S
H4325 C4333 0.950 . S
H4326 C4331 0.950 . S
H4327 C4332 0.949 . S
H4328 C4334 0.950 . S
H4329 C4335 0.950 . S
H4330 C4336 0.949 . S
C4331 H4326 0.950 . S
C4331 C4333 1.327 . S
C4331 C4337 1.429 . S
C4332 C4324 1.574 . S
C4332 H4327 0.949 . S
C4332 C4338 1.368 . S
C4333 C4317 1.349 . S
C4333 H4325 0.950 . S
C4333 C4331 1.327 . S
C4334 C4322 1.349 . S
C4334 H4328 0.950 . S
C4334 C4335 1.327 . S
C4335 H4329 0.950 . S
C4335 C4334 1.327 . S
C4335 C4339 1.429 . S
C4336 C4319 1.574 . S
C4336 H4330 0.949 . S
C4336 C4340 1.368 . S
C4337 C4318 1.429 . S
C4337 C4331 1.429 . S
C4337 C4338 1.523 . S
C4338 C4319 1.368 . S
C4338 C4332 1.368 . S
C4338 C4337 1.523 . S
C4339 C4323 1.429 . S
C4339 C4335 1.429 . S
C4339 C4340 1.523 . S
C4340 C4324 1.368 . S
C4340 C4336 1.368 . S
C4340 C4339 1.523 . S
H4341 C4316 0.950 . S
H4342 C4318 0.950 . S
H4343 C4319 0.949 . S
H4344 C4321 0.950 . S
H4345 C4323 0.950 . S
C4346 C4347 1.349 . S
C4346 C4348 1.327 . S
C4346 H4371 0.950 . S
C4347 C4346 1.349 . S
C4347 C4363 1.349 . S
C4348 C4346 1.327 . S
C4348 C4367 1.429 . S
C4348 H4372 0.950 . S
C4349 C4366 1.574 . S
C4349 C4368 1.368 . S
C4349 H4373 0.949 . S
H4350 C4354 0.949 . S
C4351 C4352 1.349 . S
C4351 C4353 1.327 . S
C4351 H4374 0.950 . S
C4352 C4351 1.349 . S
C4352 C4364 1.349 . S
C4353 C4351 1.327 . S
C4353 C4369 1.429 . S
C4353 H4375 0.950 . S
C4354 H4350 0.949 . S
C4354 C4362 1.574 . S
C4354 C4370 1.368 . S
H4355 C4363 0.950 . S
H4356 C4361 0.950 . S
H4357 C4362 0.949 . S
H4358 C4364 0.950 . S
H4359 C4365 0.950 . S
H4360 C4366 0.949 . S
C4361 H4356 0.950 . S
C4361 C4363 1.327 . S
C4361 C4367 1.429 . S
C4362 C4354 1.574 . S
C4362 H4357 0.949 . S
C4362 C4368 1.368 . S
C4363 C4347 1.349 . S
C4363 H4355 0.950 . S
C4363 C4361 1.327 . S
C4364 C4352 1.349 . S
C4364 H4358 0.950 . S
C4364 C4365 1.327 . S
C4365 H4359 0.950 . S
C4365 C4364 1.327 . S
C4365 C4369 1.429 . S
C4366 C4349 1.574 . S
C4366 H4360 0.949 . S
C4366 C4370 1.368 . S
C4367 C4348 1.429 . S
C4367 C4361 1.429 . S
C4367 C4368 1.523 . S
C4368 C4349 1.368 . S
C4368 C4362 1.368 . S
C4368 C4367 1.523 . S
C4369 C4353 1.429 . S
C4369 C4365 1.429 . S
C4369 C4370 1.523 . S
C4370 C4354 1.368 . S
C4370 C4366 1.368 . S
C4370 C4369 1.523 . S
H4371 C4346 0.950 . S
H4372 C4348 0.950 . S
H4373 C4349 0.949 . S
H4374 C4351 0.950 . S
H4375 C4353 0.950 . S
C4376 C4377 1.349 . S
C4376 C4378 1.327 . S
C4376 H4401 0.950 . S
C4377 C4376 1.349 . S
C4377 C4393 1.349 . S
C4378 C4376 1.327 . S
C4378 C4397 1.429 . S
C4378 H4402 0.950 . S
C4379 C4396 1.574 . S
C4379 C4398 1.368 . S
C4379 H4403 0.949 . S
H4380 C4384 0.949 . S
C4381 C4382 1.349 . S
C4381 C4383 1.327 . S
C4381 H4404 0.950 . S
C4382 C4381 1.349 . S
C4382 C4394 1.349 . S
C4383 C4381 1.327 . S
C4383 C4399 1.429 . S
C4383 H4405 0.950 . S
C4384 H4380 0.949 . S
C4384 C4392 1.574 . S
C4384 C4400 1.368 . S
H4385 C4393 0.950 . S
H4386 C4391 0.950 . S
H4387 C4392 0.949 . S
H4388 C4394 0.950 . S
H4389 C4395 0.950 . S
H4390 C4396 0.949 . S
C4391 H4386 0.950 . S
C4391 C4393 1.327 . S
C4391 C4397 1.429 . S
C4392 C4384 1.574 . S
C4392 H4387 0.949 . S
C4392 C4398 1.368 . S
C4393 C4377 1.349 . S
C4393 H4385 0.950 . S
C4393 C4391 1.327 . S
C4394 C4382 1.349 . S
C4394 H4388 0.950 . S
C4394 C4395 1.327 . S
C4395 H4389 0.950 . S
C4395 C4394 1.327 . S
C4395 C4399 1.429 . S
C4396 C4379 1.574 . S
C4396 H4390 0.949 . S
C4396 C4400 1.368 . S
C4397 C4378 1.429 . S
C4397 C4391 1.429 . S
C4397 C4398 1.523 . S
C4398 C4379 1.368 . S
C4398 C4392 1.368 . S
C4398 C4397 1.523 . S
C4399 C4383 1.429 . S
C4399 C4395 1.429 . S
C4399 C4400 1.523 . S
C4400 C4384 1.368 . S
C4400 C4396 1.368 . S
C4400 C4399 1.523 . S
H4401 C4376 0.950 . S
H4402 C4378 0.950 . S
H4403 C4379 0.949 . S
H4404 C4381 0.950 . S
H4405 C4383 0.950 . S
C4406 C4407 1.349 . S
C4406 C4408 1.327 . S
C4406 H4431 0.950 . S
C4407 C4406 1.349 . S
C4407 C4423 1.349 . S
C4408 C4406 1.327 . S
C4408 C4427 1.429 . S
C4408 H4432 0.950 . S
C4409 C4426 1.574 . S
C4409 C4428 1.368 . S
C4409 H4433 0.949 . S
H4410 C4414 0.949 . S
C4411 C4412 1.349 . S
C4411 C4413 1.327 . S
C4411 H4434 0.950 . S
C4412 C4411 1.349 . S
C4412 C4424 1.349 . S
C4413 C4411 1.327 . S
C4413 C4429 1.429 . S
C4413 H4435 0.950 . S
C4414 H4410 0.949 . S
C4414 C4422 1.574 . S
C4414 C4430 1.368 . S
H4415 C4423 0.950 . S
H4416 C4421 0.950 . S
H4417 C4422 0.949 . S
H4418 C4424 0.950 . S
H4419 C4425 0.950 . S
H4420 C4426 0.949 . S
C4421 H4416 0.950 . S
C4421 C4423 1.327 . S
C4421 C4427 1.429 . S
C4422 C4414 1.574 . S
C4422 H4417 0.949 . S
C4422 C4428 1.368 . S
C4423 C4407 1.349 . S
C4423 H4415 0.950 . S
C4423 C4421 1.327 . S
C4424 C4412 1.349 . S
C4424 H4418 0.950 . S
C4424 C4425 1.327 . S
C4425 H4419 0.950 . S
C4425 C4424 1.327 . S
C4425 C4429 1.429 . S
C4426 C4409 1.574 . S
C4426 H4420 0.949 . S
C4426 C4430 1.368 . S
C4427 C4408 1.429 . S
C4427 C4421 1.429 . S
C4427 C4428 1.523 . S
C4428 C4409 1.368 . S
C4428 C4422 1.368 . S
C4428 C4427 1.523 . S
C4429 C4413 1.429 . S
C4429 C4425 1.429 . S
C4429 C4430 1.523 . S
C4430 C4414 1.368 . S
C4430 C4426 1.368 . S
C4430 C4429 1.523 . S
H4431 C4406 0.950 . S
H4432 C4408 0.950 . S
H4433 C4409 0.949 . S
H4434 C4411 0.950 . S
H4435 C4413 0.950 . S
C4436 C4437 1.349 . S
C4436 C4438 1.327 . S
C4436 H4461 0.950 . S
C4437 C4436 1.349 . S
C4437 C4453 1.349 . S
C4438 C4436 1.327 . S
C4438 C4457 1.429 . S
C4438 H4462 0.950 . S
C4439 C4456 1.574 . S
C4439 C4458 1.368 . S
C4439 H4463 0.949 . S
H4440 C4444 0.949 . S
C4441 C4442 1.349 . S
C4441 C4443 1.327 . S
C4441 H4464 0.950 . S
C4442 C4441 1.349 . S
C4442 C4454 1.349 . S
C4443 C4441 1.327 . S
C4443 C4459 1.429 . S
C4443 H4465 0.950 . S
C4444 H4440 0.949 . S
C4444 C4452 1.574 . S
C4444 C4460 1.368 . S
H4445 C4453 0.950 . S
H4446 C4451 0.950 . S
H4447 C4452 0.949 . S
H4448 C4454 0.950 . S
H4449 C4455 0.950 . S
H4450 C4456 0.949 . S
C4451 H4446 0.950 . S
C4451 C4453 1.327 . S
C4451 C4457 1.429 . S
C4452 C4444 1.574 . S
C4452 H4447 0.949 . S
C4452 C4458 1.368 . S
C4453 C4437 1.349 . S
C4453 H4445 0.950 . S
C4453 C4451 1.327 . S
C4454 C4442 1.349 . S
C4454 H4448 0.950 . S
C4454 C4455 1.327 . S
C4455 H4449 0.950 . S
C4455 C4454 1.327 . S
C4455 C4459 1.429 . S
C4456 C4439 1.574 . S
C4456 H4450 0.949 . S
C4456 C4460 1.368 . S
C4457 C4438 1.429 . S
C4457 C4451 1.429 . S
C4457 C4458 1.523 . S
C4458 C4439 1.368 . S
C4458 C4452 1.368 . S
C4458 C4457 1.523 . S
C4459 C4443 1.429 . S
C4459 C4455 1.429 . S
C4459 C4460 1.523 . S
C4460 C4444 1.368 . S
C4460 C4456 1.368 . S
C4460 C4459 1.523 . S
H4461 C4436 0.950 . S
H4462 C4438 0.950 . S
H4463 C4439 0.949 . S
H4464 C4441 0.950 . S
H4465 C4443 0.950 . S
C4466 C4467 1.349 . S
C4466 C4468 1.327 . S
C4466 H4491 0.950 . S
C4467 C4466 1.349 . S
C4467 C4483 1.349 . S
C4468 C4466 1.327 . S
C4468 C4487 1.429 . S
C4468 H4492 0.950 . S
C4469 C4486 1.574 . S
C4469 C4488 1.368 . S
C4469 H4493 0.949 . S
H4470 C4474 0.949 . S
C4471 C4472 1.349 . S
C4471 C4473 1.327 . S
C4471 H4494 0.950 . S
C4472 C4471 1.349 . S
C4472 C4484 1.349 . S
C4473 C4471 1.327 . S
C4473 C4489 1.429 . S
C4473 H4495 0.950 . S
C4474 H4470 0.949 . S
C4474 C4482 1.574 . S
C4474 C4490 1.368 . S
H4475 C4483 0.950 . S
H4476 C4481 0.950 . S
H4477 C4482 0.949 . S
H4478 C4484 0.950 . S
H4479 C4485 0.950 . S
H4480 C4486 0.949 . S
C4481 H4476 0.950 . S
C4481 C4483 1.327 . S
C4481 C4487 1.429 . S
C4482 C4474 1.574 . S
C4482 H4477 0.949 . S
C4482 C4488 1.368 . S
C4483 C4467 1.349 . S
C4483 H4475 0.950 . S
C4483 C4481 1.327 . S
C4484 C4472 1.349 . S
C4484 H4478 0.950 . S
C4484 C4485 1.327 . S
C4485 H4479 0.950 . S
C4485 C4484 1.327 . S
C4485 C4489 1.429 . S
C4486 C4469 1.574 . S
C4486 H4480 0.949 . S
C4486 C4490 1.368 . S
C4487 C4468 1.429 . S
C4487 C4481 1.429 . S
C4487 C4488 1.523 . S
C4488 C4469 1.368 . S
C4488 C4482 1.368 . S
C4488 C4487 1.523 . S
C4489 C4473 1.429 . S
C4489 C4485 1.429 . S
C4489 C4490 1.523 . S
C4490 C4474 1.368 . S
C4490 C4486 1.368 . S
C4490 C4489 1.523 . S
H4491 C4466 0.950 . S
H4492 C4468 0.950 . S
H4493 C4469 0.949 . S
H4494 C4471 0.950 . S
H4495 C4473 0.950 . S
C4496 C4497 1.349 . S
C4496 C4498 1.327 . S
C4496 H4521 0.950 . S
C4497 C4496 1.349 . S
C4497 C4513 1.349 . S
C4498 C4496 1.327 . S
C4498 C4517 1.429 . S
C4498 H4522 0.950 . S
C4499 C4516 1.574 . S
C4499 C4518 1.368 . S
C4499 H4523 0.949 . S
H4500 C4504 0.949 . S
C4501 C4502 1.349 . S
C4501 C4503 1.327 . S
C4501 H4524 0.950 . S
C4502 C4501 1.349 . S
C4502 C4514 1.349 . S
C4503 C4501 1.327 . S
C4503 C4519 1.429 . S
C4503 H4525 0.950 . S
C4504 H4500 0.949 . S
C4504 C4512 1.574 . S
C4504 C4520 1.368 . S
H4505 C4513 0.950 . S
H4506 C4511 0.950 . S
H4507 C4512 0.949 . S
H4508 C4514 0.950 . S
H4509 C4515 0.950 . S
H4510 C4516 0.949 . S
C4511 H4506 0.950 . S
C4511 C4513 1.327 . S
C4511 C4517 1.429 . S
C4512 C4504 1.574 . S
C4512 H4507 0.949 . S
C4512 C4518 1.368 . S
C4513 C4497 1.349 . S
C4513 H4505 0.950 . S
C4513 C4511 1.327 . S
C4514 C4502 1.349 . S
C4514 H4508 0.950 . S
C4514 C4515 1.327 . S
C4515 H4509 0.950 . S
C4515 C4514 1.327 . S
C4515 C4519 1.429 . S
C4516 C4499 1.574 . S
C4516 H4510 0.949 . S
C4516 C4520 1.368 . S
C4517 C4498 1.429 . S
C4517 C4511 1.429 . S
C4517 C4518 1.523 . S
C4518 C4499 1.368 . S
C4518 C4512 1.368 . S
C4518 C4517 1.523 . S
C4519 C4503 1.429 . S
C4519 C4515 1.429 . S
C4519 C4520 1.523 . S
C4520 C4504 1.368 . S
C4520 C4516 1.368 . S
C4520 C4519 1.523 . S
H4521 C4496 0.950 . S
H4522 C4498 0.950 . S
H4523 C4499 0.949 . S
H4524 C4501 0.950 . S
H4525 C4503 0.950 . S
C4526 C4527 1.349 . S
C4526 C4528 1.327 . S
C4526 H4551 0.950 . S
C4527 C4526 1.349 . S
C4527 C4543 1.349 . S
C4528 C4526 1.327 . S
C4528 C4547 1.429 . S
C4528 H4552 0.950 . S
C4529 C4546 1.574 . S
C4529 C4548 1.368 . S
C4529 H4553 0.949 . S
H4530 C4534 0.949 . S
C4531 C4532 1.349 . S
C4531 C4533 1.327 . S
C4531 H4554 0.950 . S
C4532 C4531 1.349 . S
C4532 C4544 1.349 . S
C4533 C4531 1.327 . S
C4533 C4549 1.429 . S
C4533 H4555 0.950 . S
C4534 H4530 0.949 . S
C4534 C4542 1.574 . S
C4534 C4550 1.368 . S
H4535 C4543 0.950 . S
H4536 C4541 0.950 . S
H4537 C4542 0.949 . S
H4538 C4544 0.950 . S
H4539 C4545 0.950 . S
H4540 C4546 0.949 . S
C4541 H4536 0.950 . S
C4541 C4543 1.327 . S
C4541 C4547 1.429 . S
C4542 C4534 1.574 . S
C4542 H4537 0.949 . S
C4542 C4548 1.368 . S
C4543 C4527 1.349 . S
C4543 H4535 0.950 . S
C4543 C4541 1.327 . S
C4544 C4532 1.349 . S
C4544 H4538 0.950 . S
C4544 C4545 1.327 . S
C4545 H4539 0.950 . S
C4545 C4544 1.327 . S
C4545 C4549 1.429 . S
C4546 C4529 1.574 . S
C4546 H4540 0.949 . S
C4546 C4550 1.368 . S
C4547 C4528 1.429 . S
C4547 C4541 1.429 . S
C4547 C4548 1.523 . S
C4548 C4529 1.368 . S
C4548 C4542 1.368 . S
C4548 C4547 1.523 . S
C4549 C4533 1.429 . S
C4549 C4545 1.429 . S
C4549 C4550 1.523 . S
C4550 C4534 1.368 . S
C4550 C4546 1.368 . S
C4550 C4549 1.523 . S
H4551 C4526 0.950 . S
H4552 C4528 0.950 . S
H4553 C4529 0.949 . S
H4554 C4531 0.950 . S
H4555 C4533 0.950 . S
C4556 C4557 1.349 . S
C4556 C4558 1.327 . S
C4556 H4581 0.950 . S
C4557 C4556 1.349 . S
C4557 C4573 1.349 . S
C4558 C4556 1.327 . S
C4558 C4577 1.429 . S
C4558 H4582 0.950 . S
C4559 C4576 1.574 . S
C4559 C4578 1.368 . S
C4559 H4583 0.949 . S
H4560 C4564 0.949 . S
C4561 C4562 1.349 . S
C4561 C4563 1.327 . S
C4561 H4584 0.950 . S
C4562 C4561 1.349 . S
C4562 C4574 1.349 . S
C4563 C4561 1.327 . S
C4563 C4579 1.429 . S
C4563 H4585 0.950 . S
C4564 H4560 0.949 . S
C4564 C4572 1.574 . S
C4564 C4580 1.368 . S
H4565 C4573 0.950 . S
H4566 C4571 0.950 . S
H4567 C4572 0.949 . S
H4568 C4574 0.950 . S
H4569 C4575 0.950 . S
H4570 C4576 0.949 . S
C4571 H4566 0.950 . S
C4571 C4573 1.327 . S
C4571 C4577 1.429 . S
C4572 C4564 1.574 . S
C4572 H4567 0.949 . S
C4572 C4578 1.368 . S
C4573 C4557 1.349 . S
C4573 H4565 0.950 . S
C4573 C4571 1.327 . S
C4574 C4562 1.349 . S
C4574 H4568 0.950 . S
C4574 C4575 1.327 . S
C4575 H4569 0.950 . S
C4575 C4574 1.327 . S
C4575 C4579 1.429 . S
C4576 C4559 1.574 . S
C4576 H4570 0.949 . S
C4576 C4580 1.368 . S
C4577 C4558 1.429 . S
C4577 C4571 1.429 . S
C4577 C4578 1.523 . S
C4578 C4559 1.368 . S
C4578 C4572 1.368 . S
C4578 C4577 1.523 . S
C4579 C4563 1.429 . S
C4579 C4575 1.429 . S
C4579 C4580 1.523 . S
C4580 C4564 1.368 . S
C4580 C4576 1.368 . S
C4580 C4579 1.523 . S
H4581 C4556 0.950 . S
H4582 C4558 0.950 . S
H4583 C4559 0.949 . S
H4584 C4561 0.950 . S
H4585 C4563 0.950 . S
C4586 C4587 1.349 . S
C4586 C4588 1.327 . S
C4586 H4611 0.950 . S
C4587 C4586 1.349 . S
C4587 C4603 1.349 . S
C4588 C4586 1.327 . S
C4588 C4607 1.429 . S
C4588 H4612 0.950 . S
C4589 C4606 1.574 . S
C4589 C4608 1.368 . S
C4589 H4613 0.949 . S
H4590 C4594 0.949 . S
C4591 C4592 1.349 . S
C4591 C4593 1.327 . S
C4591 H4614 0.950 . S
C4592 C4591 1.349 . S
C4592 C4604 1.349 . S
C4593 C4591 1.327 . S
C4593 C4609 1.429 . S
C4593 H4615 0.950 . S
C4594 H4590 0.949 . S
C4594 C4602 1.574 . S
C4594 C4610 1.368 . S
H4595 C4603 0.950 . S
H4596 C4601 0.950 . S
H4597 C4602 0.949 . S
H4598 C4604 0.950 . S
H4599 C4605 0.950 . S
H4600 C4606 0.949 . S
C4601 H4596 0.950 . S
C4601 C4603 1.327 . S
C4601 C4607 1.429 . S
C4602 C4594 1.574 . S
C4602 H4597 0.949 . S
C4602 C4608 1.368 . S
C4603 C4587 1.349 . S
C4603 H4595 0.950 . S
C4603 C4601 1.327 . S
C4604 C4592 1.349 . S
C4604 H4598 0.950 . S
C4604 C4605 1.327 . S
C4605 H4599 0.950 . S
C4605 C4604 1.327 . S
C4605 C4609 1.429 . S
C4606 C4589 1.574 . S
C4606 H4600 0.949 . S
C4606 C4610 1.368 . S
C4607 C4588 1.429 . S
C4607 C4601 1.429 . S
C4607 C4608 1.523 . S
C4608 C4589 1.368 . S
C4608 C4602 1.368 . S
C4608 C4607 1.523 . S
C4609 C4593 1.429 . S
C4609 C4605 1.429 . S
C4609 C4610 1.523 . S
C4610 C4594 1.368 . S
C4610 C4606 1.368 . S
C4610 C4609 1.523 . S
H4611 C4586 0.950 . S
H4612 C4588 0.950 . S
H4613 C4589 0.949 . S
H4614 C4591 0.950 . S
H4615 C4593 0.950 . S
C4616 C4617 1.349 . S
C4616 C4618 1.327 . S
C4616 H4641 0.950 . S
C4617 C4616 1.349 . S
C4617 C4633 1.349 . S
C4618 C4616 1.327 . S
C4618 C4637 1.429 . S
C4618 H4642 0.950 . S
C4619 C4636 1.574 . S
C4619 C4638 1.368 . S
C4619 H4643 0.949 . S
H4620 C4624 0.949 . S
C4621 C4622 1.349 . S
C4621 C4623 1.327 . S
C4621 H4644 0.950 . S
C4622 C4621 1.349 . S
C4622 C4634 1.349 . S
C4623 C4621 1.327 . S
C4623 C4639 1.429 . S
C4623 H4645 0.950 . S
C4624 H4620 0.949 . S
C4624 C4632 1.574 . S
C4624 C4640 1.368 . S
H4625 C4633 0.950 . S
H4626 C4631 0.950 . S
H4627 C4632 0.949 . S
H4628 C4634 0.950 . S
H4629 C4635 0.950 . S
H4630 C4636 0.949 . S
C4631 H4626 0.950 . S
C4631 C4633 1.327 . S
C4631 C4637 1.429 . S
C4632 C4624 1.574 . S
C4632 H4627 0.949 . S
C4632 C4638 1.368 . S
C4633 C4617 1.349 . S
C4633 H4625 0.950 . S
C4633 C4631 1.327 . S
C4634 C4622 1.349 . S
C4634 H4628 0.950 . S
C4634 C4635 1.327 . S
C4635 H4629 0.950 . S
C4635 C4634 1.327 . S
C4635 C4639 1.429 . S
C4636 C4619 1.574 . S
C4636 H4630 0.949 . S
C4636 C4640 1.368 . S
C4637 C4618 1.429 . S
C4637 C4631 1.429 . S
C4637 C4638 1.523 . S
C4638 C4619 1.368 . S
C4638 C4632 1.368 . S
C4638 C4637 1.523 . S
C4639 C4623 1.429 . S
C4639 C4635 1.429 . S
C4639 C4640 1.523 . S
C4640 C4624 1.368 . S
C4640 C4636 1.368 . S
C4640 C4639 1.523 . S
H4641 C4616 0.950 . S
H4642 C4618 0.950 . S
H4643 C4619 0.949 . S
H4644 C4621 0.950 . S
H4645 C4623 0.950 . S
C4646 C4647 1.349 . S
C4646 C4648 1.327 . S
C4646 H4671 0.950 . S
C4647 C4646 1.349 . S
C4647 C4663 1.349 . S
C4648 C4646 1.327 . S
C4648 C4667 1.429 . S
C4648 H4672 0.950 . S
C4649 C4666 1.574 . S
C4649 C4668 1.368 . S
C4649 H4673 0.949 . S
H4650 C4654 0.949 . S
C4651 C4652 1.349 . S
C4651 C4653 1.327 . S
C4651 H4674 0.950 . S
C4652 C4651 1.349 . S
C4652 C4664 1.349 . S
C4653 C4651 1.327 . S
C4653 C4669 1.429 . S
C4653 H4675 0.950 . S
C4654 H4650 0.949 . S
C4654 C4662 1.574 . S
C4654 C4670 1.368 . S
H4655 C4663 0.950 . S
H4656 C4661 0.950 . S
H4657 C4662 0.949 . S
H4658 C4664 0.950 . S
H4659 C4665 0.950 . S
H4660 C4666 0.949 . S
C4661 H4656 0.950 . S
C4661 C4663 1.327 . S
C4661 C4667 1.429 . S
C4662 C4654 1.574 . S
C4662 H4657 0.949 . S
C4662 C4668 1.368 . S
C4663 C4647 1.349 . S
C4663 H4655 0.950 . S
C4663 C4661 1.327 . S
C4664 C4652 1.349 . S
C4664 H4658 0.950 . S
C4664 C4665 1.327 . S
C4665 H4659 0.950 . S
C4665 C4664 1.327 . S
C4665 C4669 1.429 . S
C4666 C4649 1.574 . S
C4666 H4660 0.949 . S
C4666 C4670 1.368 . S
C4667 C4648 1.429 . S
C4667 C4661 1.429 . S
C4667 C4668 1.523 . S
C4668 C4649 1.368 . S
C4668 C4662 1.368 . S
C4668 C4667 1.523 . S
C4669 C4653 1.429 . S
C4669 C4665 1.429 . S
C4669 C4670 1.523 . S
C4670 C4654 1.368 . S
C4670 C4666 1.368 . S
C4670 C4669 1.523 . S
H4671 C4646 0.950 . S
H4672 C4648 0.950 . S
H4673 C4649 0.949 . S
H4674 C4651 0.950 . S
H4675 C4653 0.950 . S
C4676 C4677 1.349 . S
C4676 C4678 1.327 . S
C4676 H4701 0.950 . S
C4677 C4676 1.349 . S
C4677 C4693 1.349 . S
C4678 C4676 1.327 . S
C4678 C4697 1.429 . S
C4678 H4702 0.950 . S
C4679 C4696 1.574 . S
C4679 C4698 1.368 . S
C4679 H4703 0.949 . S
H4680 C4684 0.949 . S
C4681 C4682 1.349 . S
C4681 C4683 1.327 . S
C4681 H4704 0.950 . S
C4682 C4681 1.349 . S
C4682 C4694 1.349 . S
C4683 C4681 1.327 . S
C4683 C4699 1.429 . S
C4683 H4705 0.950 . S
C4684 H4680 0.949 . S
C4684 C4692 1.574 . S
C4684 C4700 1.368 . S
H4685 C4693 0.950 . S
H4686 C4691 0.950 . S
H4687 C4692 0.949 . S
H4688 C4694 0.950 . S
H4689 C4695 0.950 . S
H4690 C4696 0.949 . S
C4691 H4686 0.950 . S
C4691 C4693 1.327 . S
C4691 C4697 1.429 . S
C4692 C4684 1.574 . S
C4692 H4687 0.949 . S
C4692 C4698 1.368 . S
C4693 C4677 1.349 . S
C4693 H4685 0.950 . S
C4693 C4691 1.327 . S
C4694 C4682 1.349 . S
C4694 H4688 0.950 . S
C4694 C4695 1.327 . S
C4695 H4689 0.950 . S
C4695 C4694 1.327 . S
C4695 C4699 1.429 . S
C4696 C4679 1.574 . S
C4696 H4690 0.949 . S
C4696 C4700 1.368 . S
C4697 C4678 1.429 . S
C4697 C4691 1.429 . S
C4697 C4698 1.523 . S
C4698 C4679 1.368 . S
C4698 C4692 1.368 . S
C4698 C4697 1.523 . S
C4699 C4683 1.429 . S
C4699 C4695 1.429 . S
C4699 C4700 1.523 . S
C4700 C4684 1.368 . S
C4700 C4696 1.368 . S
C4700 C4699 1.523 . S
H4701 C4676 0.950 . S
H4702 C4678 0.950 . S
H4703 C4679 0.949 . S
H4704 C4681 0.950 . S
H4705 C4683 0.950 . S
C4706 C4707 1.349 . S
C4706 C4708 1.327 . S
C4706 H4731 0.950 . S
C4707 C4706 1.349 . S
C4707 C4723 1.349 . S
C4708 C4706 1.327 . S
C4708 C4727 1.429 . S
C4708 H4732 0.950 . S
C4709 C4726 1.574 . S
C4709 C4728 1.368 . S
C4709 H4733 0.949 . S
H4710 C4714 0.949 . S
C4711 C4712 1.349 . S
C4711 C4713 1.327 . S
C4711 H4734 0.950 . S
C4712 C4711 1.349 . S
C4712 C4724 1.349 . S
C4713 C4711 1.327 . S
C4713 C4729 1.429 . S
C4713 H4735 0.950 . S
C4714 H4710 0.949 . S
C4714 C4722 1.574 . S
C4714 C4730 1.368 . S
H4715 C4723 0.950 . S
H4716 C4721 0.950 . S
H4717 C4722 0.949 . S
H4718 C4724 0.950 . S
H4719 C4725 0.950 . S
H4720 C4726 0.949 . S
C4721 H4716 0.950 . S
C4721 C4723 1.327 . S
C4721 C4727 1.429 . S
C4722 C4714 1.574 . S
C4722 H4717 0.949 . S
C4722 C4728 1.368 . S
C4723 C4707 1.349 . S
C4723 H4715 0.950 . S
C4723 C4721 1.327 . S
C4724 C4712 1.349 . S
C4724 H4718 0.950 . S
C4724 C4725 1.327 . S
C4725 H4719 0.950 . S
C4725 C4724 1.327 . S
C4725 C4729 1.429 . S
C4726 C4709 1.574 . S
C4726 H4720 0.949 . S
C4726 C4730 1.368 . S
C4727 C4708 1.429 . S
C4727 C4721 1.429 . S
C4727 C4728 1.523 . S
C4728 C4709 1.368 . S
C4728 C4722 1.368 . S
C4728 C4727 1.523 . S
C4729 C4713 1.429 . S
C4729 C4725 1.429 . S
C4729 C4730 1.523 . S
C4730 C4714 1.368 . S
C4730 C4726 1.368 . S
C4730 C4729 1.523 . S
H4731 C4706 0.950 . S
H4732 C4708 0.950 . S
H4733 C4709 0.949 . S
H4734 C4711 0.950 . S
H4735 C4713 0.950 . S
C4736 C4737 1.349 . S
C4736 C4738 1.327 . S
C4736 H4761 0.950 . S
C4737 C4736 1.349 . S
C4737 C4753 1.349 . S
C4738 C4736 1.327 . S
C4738 C4757 1.429 . S
C4738 H4762 0.950 . S
C4739 C4756 1.574 . S
C4739 C4758 1.368 . S
C4739 H4763 0.949 . S
H4740 C4744 0.949 . S
C4741 C4742 1.349 . S
C4741 C4743 1.327 . S
C4741 H4764 0.950 . S
C4742 C4741 1.349 . S
C4742 C4754 1.349 . S
C4743 C4741 1.327 . S
C4743 C4759 1.429 . S
C4743 H4765 0.950 . S
C4744 H4740 0.949 . S
C4744 C4752 1.574 . S
C4744 C4760 1.368 . S
H4745 C4753 0.950 . S
H4746 C4751 0.950 . S
H4747 C4752 0.949 . S
H4748 C4754 0.950 . S
H4749 C4755 0.950 . S
H4750 C4756 0.949 . S
C4751 H4746 0.950 . S
C4751 C4753 1.327 . S
C4751 C4757 1.429 . S
C4752 C4744 1.574 . S
C4752 H4747 0.949 . S
C4752 C4758 1.368 . S
C4753 C4737 1.349 . S
C4753 H4745 0.950 . S
C4753 C4751 1.327 . S
C4754 C4742 1.349 . S
C4754 H4748 0.950 . S
C4754 C4755 1.327 . S
C4755 H4749 0.950 . S
C4755 C4754 1.327 . S
C4755 C4759 1.429 . S
C4756 C4739 1.574 . S
C4756 H4750 0.949 . S
C4756 C4760 1.368 . S
C4757 C4738 1.429 . S
C4757 C4751 1.429 . S
C4757 C4758 1.523 . S
C4758 C4739 1.368 . S
C4758 C4752 1.368 . S
C4758 C4757 1.523 . S
C4759 C4743 1.429 . S
C4759 C4755 1.429 . S
C4759 C4760 1.523 . S
C4760 C4744 1.368 . S
C4760 C4756 1.368 . S
C4760 C4759 1.523 . S
H4761 C4736 0.950 . S
H4762 C4738 0.950 . S
H4763 C4739 0.949 . S
H4764 C4741 0.950 . S
H4765 C4743 0.950 . S
C4766 C4767 1.349 . S
C4766 C4768 1.327 . S
C4766 H4791 0.950 . S
C4767 C4766 1.349 . S
C4767 C4783 1.349 . S
C4768 C4766 1.327 . S
C4768 C4787 1.429 . S
C4768 H4792 0.950 . S
C4769 C4786 1.574 . S
C4769 C4788 1.368 . S
C4769 H4793 0.949 . S
H4770 C4774 0.949 . S
C4771 C4772 1.349 . S
C4771 C4773 1.327 . S
C4771 H4794 0.950 . S
C4772 C4771 1.349 . S
C4772 C4784 1.349 . S
C4773 C4771 1.327 . S
C4773 C4789 1.429 . S
C4773 H4795 0.950 . S
C4774 H4770 0.949 . S
C4774 C4782 1.574 . S
C4774 C4790 1.368 . S
H4775 C4783 0.950 . S
H4776 C4781 0.950 . S
H4777 C4782 0.949 . S
H4778 C4784 0.950 . S
H4779 C4785 0.950 . S
H4780 C4786 0.949 . S
C4781 H4776 0.950 . S
C4781 C4783 1.327 . S
C4781 C4787 1.429 . S
C4782 C4774 1.574 . S
C4782 H4777 0.949 . S
C4782 C4788 1.368 . S
C4783 C4767 1.349 . S
C4783 H4775 0.950 . S
C4783 C4781 1.327 . S
C4784 C4772 1.349 . S
C4784 H4778 0.950 . S
C4784 C4785 1.327 . S
C4785 H4779 0.950 . S
C4785 C4784 1.327 . S
C4785 C4789 1.429 . S
C4786 C4769 1.574 . S
C4786 H4780 0.949 . S
C4786 C4790 1.368 . S
C4787 C4768 1.429 . S
C4787 C4781 1.429 . S
C4787 C4788 1.523 . S
C4788 C4769 1.368 . S
C4788 C4782 1.368 . S
C4788 C4787 1.523 . S
C4789 C4773 1.429 . S
C4789 C4785 1.429 . S
C4789 C4790 1.523 . S
C4790 C4774 1.368 . S
C4790 C4786 1.368 . S
C4790 C4789 1.523 . S
H4791 C4766 0.950 . S
H4792 C4768 0.950 . S
H4793 C4769 0.949 . S
H4794 C4771 0.950 . S
H4795 C4773 0.950 . S
C4796 C4797 1.349 . S
C4796 C4798 1.327 . S
C4796 H4821 0.950 . S
C4797 C4796 1.349 . S
C4797 C4813 1.349 . S
C4798 C4796 1.327 . S
C4798 C4817 1.429 . S
C4798 H4822 0.950 . S
C4799 C4816 1.574 . S
C4799 C4818 1.368 . S
C4799 H4823 0.949 . S
H4800 C4804 0.949 . S
C4801 C4802 1.349 . S
C4801 C4803 1.327 . S
C4801 H4824 0.950 . S
C4802 C4801 1.349 . S
C4802 C4814 1.349 . S
C4803 C4801 1.327 . S
C4803 C4819 1.429 . S
C4803 H4825 0.950 . S
C4804 H4800 0.949 . S
C4804 C4812 1.574 . S
C4804 C4820 1.368 . S
H4805 C4813 0.950 . S
H4806 C4811 0.950 . S
H4807 C4812 0.949 . S
H4808 C4814 0.950 . S
H4809 C4815 0.950 . S
H4810 C4816 0.949 . S
C4811 H4806 0.950 . S
C4811 C4813 1.327 . S
C4811 C4817 1.429 . S
C4812 C4804 1.574 . S
C4812 H4807 0.949 . S
C4812 C4818 1.368 . S
C4813 C4797 1.349 . S
C4813 H4805 0.950 . S
C4813 C4811 1.327 . S
C4814 C4802 1.349 . S
C4814 H4808 0.950 . S
C4814 C4815 1.327 . S
C4815 H4809 0.950 . S
C4815 C4814 1.327 . S
C4815 C4819 1.429 . S
C4816 C4799 1.574 . S
C4816 H4810 0.949 . S
C4816 C4820 1.368 . S
C4817 C4798 1.429 . S
C4817 C4811 1.429 . S
C4817 C4818 1.523 . S
C4818 C4799 1.368 . S
C4818 C4812 1.368 . S
C4818 C4817 1.523 . S
C4819 C4803 1.429 . S
C4819 C4815 1.429 . S
C4819 C4820 1.523 . S
C4820 C4804 1.368 . S
C4820 C4816 1.368 . S
C4820 C4819 1.523 . S
H4821 C4796 0.950 . S
H4822 C4798 0.950 . S
H4823 C4799 0.949 . S
H4824 C4801 0.950 . S
H4825 C4803 0.950 . S
C4826 C4827 1.349 . S
C4826 C4828 1.327 . S
C4826 H4851 0.950 . S
C4827 C4826 1.349 . S
C4827 C4843 1.349 . S
C4828 C4826 1.327 . S
C4828 C4847 1.429 . S
C4828 H4852 0.950 . S
C4829 C4846 1.574 . S
C4829 C4848 1.368 . S
C4829 H4853 0.949 . S
H4830 C4834 0.949 . S
C4831 C4832 1.349 . S
C4831 C4833 1.327 . S
C4831 H4854 0.950 . S
C4832 C4831 1.349 . S
C4832 C4844 1.349 . S
C4833 C4831 1.327 . S
C4833 C4849 1.429 . S
C4833 H4855 0.950 . S
C4834 H4830 0.949 . S
C4834 C4842 1.574 . S
C4834 C4850 1.368 . S
H4835 C4843 0.950 . S
H4836 C4841 0.950 . S
H4837 C4842 0.949 . S
H4838 C4844 0.950 . S
H4839 C4845 0.950 . S
H4840 C4846 0.949 . S
C4841 H4836 0.950 . S
C4841 C4843 1.327 . S
C4841 C4847 1.429 . S
C4842 C4834 1.574 . S
C4842 H4837 0.949 . S
C4842 C4848 1.368 . S
C4843 C4827 1.349 . S
C4843 H4835 0.950 . S
C4843 C4841 1.327 . S
C4844 C4832 1.349 . S
C4844 H4838 0.950 . S
C4844 C4845 1.327 . S
C4845 H4839 0.950 . S
C4845 C4844 1.327 . S
C4845 C4849 1.429 . S
C4846 C4829 1.574 . S
C4846 H4840 0.949 . S
C4846 C4850 1.368 . S
C4847 C4828 1.429 . S
C4847 C4841 1.429 . S
C4847 C4848 1.523 . S
C4848 C4829 1.368 . S
C4848 C4842 1.368 . S
C4848 C4847 1.523 . S
C4849 C4833 1.429 . S
C4849 C4845 1.429 . S
C4849 C4850 1.523 . S
C4850 C4834 1.368 . S
C4850 C4846 1.368 . S
C4850 C4849 1.523 . S
H4851 C4826 0.950 . S
H4852 C4828 0.950 . S
H4853 C4829 0.949 . S
H4854 C4831 0.950 . S
H4855 C4833 0.950 . S
C4856 C4857 1.349 . S
C4856 C4858 1.327 . S
C4856 H4881 0.950 . S
C4857 C4856 1.349 . S
C4857 C4873 1.349 . S
C4858 C4856 1.327 . S
C4858 C4877 1.429 . S
C4858 H4882 0.950 . S
C4859 C4876 1.574 . S
C4859 C4878 1.368 . S
C4859 H4883 0.949 . S
H4860 C4864 0.949 . S
C4861 C4862 1.349 . S
C4861 C4863 1.327 . S
C4861 H4884 0.950 . S
C4862 C4861 1.349 . S
C4862 C4874 1.349 . S
C4863 C4861 1.327 . S
C4863 C4879 1.429 . S
C4863 H4885 0.950 . S
C4864 H4860 0.949 . S
C4864 C4872 1.574 . S
C4864 C4880 1.368 . S
H4865 C4873 0.950 . S
H4866 C4871 0.950 . S
H4867 C4872 0.949 . S
H4868 C4874 0.950 . S
H4869 C4875 0.950 . S
H4870 C4876 0.949 . S
C4871 H4866 0.950 . S
C4871 C4873 1.327 . S
C4871 C4877 1.429 . S
C4872 C4864 1.574 . S
C4872 H4867 0.949 . S
C4872 C4878 1.368 . S
C4873 C4857 1.349 . S
C4873 H4865 0.950 . S
C4873 C4871 1.327 . S
C4874 C4862 1.349 . S
C4874 H4868 0.950 . S
C4874 C4875 1.327 . S
C4875 H4869 0.950 . S
C4875 C4874 1.327 . S
C4875 C4879 1.429 . S
C4876 C4859 1.574 . S
C4876 H4870 0.949 . S
C4876 C4880 1.368 . S
C4877 C4858 1.429 . S
C4877 C4871 1.429 . S
C4877 C4878 1.523 . S
C4878 C4859 1.368 . S
C4878 C4872 1.368 . S
C4878 C4877 1.523 . S
C4879 C4863 1.429 . S
C4879 C4875 1.429 . S
C4879 C4880 1.523 . S
C4880 C4864 1.368 . S
C4880 C4876 1.368 . S
C4880 C4879 1.523 . S
H4881 C4856 0.950 . S
H4882 C4858 0.950 . S
H4883 C4859 0.949 . S
H4884 C4861 0.950 . S
H4885 C4863 0.950 . S
C4886 C4887 1.349 . S
C4886 C4888 1.327 . S
C4886 H4911 0.950 . S
C4887 C4886 1.349 . S
C4887 C4903 1.349 . S
C4888 C4886 1.327 . S
C4888 C4907 1.429 . S
C4888 H4912 0.950 . S
C4889 C4906 1.574 . S
C4889 C4908 1.368 . S
C4889 H4913 0.949 . S
H4890 C4894 0.949 . S
C4891 C4892 1.349 . S
C4891 C4893 1.327 . S
C4891 H4914 0.950 . S
C4892 C4891 1.349 . S
C4892 C4904 1.349 . S
C4893 C4891 1.327 . S
C4893 C4909 1.429 . S
C4893 H4915 0.950 . S
C4894 H4890 0.949 . S
C4894 C4902 1.574 . S
C4894 C4910 1.368 . S
H4895 C4903 0.950 . S
H4896 C4901 0.950 . S
H4897 C4902 0.949 . S
H4898 C4904 0.950 . S
H4899 C4905 0.950 . S
H4900 C4906 0.949 . S
C4901 H4896 0.950 . S
C4901 C4903 1.327 . S
C4901 C4907 1.429 . S
C4902 C4894 1.574 . S
C4902 H4897 0.949 . S
C4902 C4908 1.368 . S
C4903 C4887 1.349 . S
C4903 H4895 0.950 . S
C4903 C4901 1.327 . S
C4904 C4892 1.349 . S
C4904 H4898 0.950 . S
C4904 C4905 1.327 . S
C4905 H4899 0.950 . S
C4905 C4904 1.327 . S
C4905 C4909 1.429 . S
C4906 C4889 1.574 . S
C4906 H4900 0.949 . S
C4906 C4910 1.368 . S
C4907 C4888 1.429 . S
C4907 C4901 1.429 . S
C4907 C4908 1.523 . S
C4908 C4889 1.368 . S
C4908 C4902 1.368 . S
C4908 C4907 1.523 . S
C4909 C4893 1.429 . S
C4909 C4905 1.429 . S
C4909 C4910 1.523 . S
C4910 C4894 1.368 . S
C4910 C4906 1.368 . S
C4910 C4909 1.523 . S
H4911 C4886 0.950 . S
H4912 C4888 0.950 . S
H4913 C4889 0.949 . S
H4914 C4891 0.950 . S
H4915 C4893 0.950 . S
C4916 C4917 1.349 . S
C4916 C4918 1.327 . S
C4916 H4941 0.950 . S
C4917 C4916 1.349 . S
C4917 C4933 1.349 . S
C4918 C4916 1.327 . S
C4918 C4937 1.429 . S
C4918 H4942 0.950 . S
C4919 C4936 1.574 . S
C4919 C4938 1.368 . S
C4919 H4943 0.949 . S
H4920 C4924 0.949 . S
C4921 C4922 1.349 . S
C4921 C4923 1.327 . S
C4921 H4944 0.950 . S
C4922 C4921 1.349 . S
C4922 C4934 1.349 . S
C4923 C4921 1.327 . S
C4923 C4939 1.429 . S
C4923 H4945 0.950 . S
C4924 H4920 0.949 . S
C4924 C4932 1.574 . S
C4924 C4940 1.368 . S
H4925 C4933 0.950 . S
H4926 C4931 0.950 . S
H4927 C4932 0.949 . S
H4928 C4934 0.950 . S
H4929 C4935 0.950 . S
H4930 C4936 0.949 . S
C4931 H4926 0.950 . S
C4931 C4933 1.327 . S
C4931 C4937 1.429 . S
C4932 C4924 1.574 . S
C4932 H4927 0.949 . S
C4932 C4938 1.368 . S
C4933 C4917 1.349 . S
C4933 H4925 0.950 . S
C4933 C4931 1.327 . S
C4934 C4922 1.349 . S
C4934 H4928 0.950 . S
C4934 C4935 1.327 . S
C4935 H4929 0.950 . S
C4935 C4934 1.327 . S
C4935 C4939 1.429 . S
C4936 C4919 1.574 . S
C4936 H4930 0.949 . S
C4936 C4940 1.368 . S
C4937 C4918 1.429 . S
C4937 C4931 1.429 . S
C4937 C4938 1.523 . S
C4938 C4919 1.368 . S
C4938 C4932 1.368 . S
C4938 C4937 1.523 . S
C4939 C4923 1.429 . S
C4939 C4935 1.429 . S
C4939 C4940 1.523 . S
C4940 C4924 1.368 . S
C4940 C4936 1.368 . S
C4940 C4939 1.523 . S
H4941 C4916 0.950 . S
H4942 C4918 0.950 . S
H4943 C4919 0.949 . S
H4944 C4921 0.950 . S
H4945 C4923 0.950 . S
C4946 C4947 1.349 . S
C4946 C4948 1.327 . S
C4946 H4971 0.950 . S
C4947 C4946 1.349 . S
C4947 C4963 1.349 . S
C4948 C4946 1.327 . S
C4948 C4967 1.429 . S
C4948 H4972 0.950 . S
C4949 C4966 1.574 . S
C4949 C4968 1.368 . S
C4949 H4973 0.949 . S
H4950 C4954 0.949 . S
C4951 C4952 1.349 . S
C4951 C4953 1.327 . S
C4951 H4974 0.950 . S
C4952 C4951 1.349 . S
C4952 C4964 1.349 . S
C4953 C4951 1.327 . S
C4953 C4969 1.429 . S
C4953 H4975 0.950 . S
C4954 H4950 0.949 . S
C4954 C4962 1.574 . S
C4954 C4970 1.368 . S
H4955 C4963 0.950 . S
H4956 C4961 0.950 . S
H4957 C4962 0.949 . S
H4958 C4964 0.950 . S
H4959 C4965 0.950 . S
H4960 C4966 0.949 . S
C4961 H4956 0.950 . S
C4961 C4963 1.327 . S
C4961 C4967 1.429 . S
C4962 C4954 1.574 . S
C4962 H4957 0.949 . S
C4962 C4968 1.368 . S
C4963 C4947 1.349 . S
C4963 H4955 0.950 . S
C4963 C4961 1.327 . S
C4964 C4952 1.349 . S
C4964 H4958 0.950 . S
C4964 C4965 1.327 . S
C4965 H4959 0.950 . S
C4965 C4964 1.327 . S
C4965 C4969 1.429 . S
C4966 C4949 1.574 . S
C4966 H4960 0.949 . S
C4966 C4970 1.368 . S
C4967 C4948 1.429 . S
C4967 C4961 1.429 . S
C4967 C4968 1.523 . S
C4968 C4949 1.368 . S
C4968 C4962 1.368 . S
C4968 C4967 1.523 . S
C4969 C4953 1.429 . S
C4969 C4965 1.429 . S
C4969 C4970 1.523 . S
C4970 C4954 1.368 . S
C4970 C4966 1.368 . S
C4970 C4969 1.523 . S
H4971 C4946 0.950 . S
H4972 C4948 0.950 . S
H4973 C4949 0.949 . S
H4974 C4951 0.950 . S
H4975 C4953 0.950 . S
C4976 C4977 1.349 . S
C4976 C4978 1.327 . S
C4976 H5001 0.950 . S
C4977 C4976 1.349 . S
C4977 C4993 1.349 . S
C4978 C4976 1.327 . S
C4978 C4997 1.429 . S
C4978 H5002 0.950 . S
C4979 C4996 1.574 . S
C4979 C4998 1.368 . S
C4979 H5003 0.949 . S
H4980 C4984 0.949 . S
C4981 C4982 1.349 . S
C4981 C4983 1.327 . S
C4981 H5004 0.950 . S
C4982 C4981 1.349 . S
C4982 C4994 1.349 . S
C4983 C4981 1.327 . S
C4983 C4999 1.429 . S
C4983 H5005 0.950 . S
C4984 H4980 0.949 . S
C4984 C4992 1.574 . S
C4984 C5000 1.368 . S
H4985 C4993 0.950 . S
H4986 C4991 0.950 . S
H4987 C4992 0.949 . S
H4988 C4994 0.950 . S
H4989 C4995 0.950 . S
H4990 C4996 0.949 . S
C4991 H4986 0.950 . S
C4991 C4993 1.327 . S
C4991 C4997 1.429 . S
C4992 C4984 1.574 . S
C4992 H4987 0.949 . S
C4992 C4998 1.368 . S
C4993 C4977 1.349 . S
C4993 H4985 0.950 . S
C4993 C4991 1.327 . S
C4994 C4982 1.349 . S
C4994 H4988 0.950 . S
C4994 C4995 1.327 . S
C4995 H4989 0.950 . S
C4995 C4994 1.327 . S
C4995 C4999 1.429 . S
C4996 C4979 1.574 . S
C4996 H4990 0.949 . S
C4996 C5000 1.368 . S
C4997 C4978 1.429 . S
C4997 C4991 1.429 . S
C4997 C4998 1.523 . S
C4998 C4979 1.368 . S
C4998 C4992 1.368 . S
C4998 C4997 1.523 . S
C4999 C4983 1.429 . S
C4999 C4995 1.429 . S
C4999 C5000 1.523 . S
C5000 C4984 1.368 . S
C5000 C4996 1.368 . S
C5000 C4999 1.523 . S
H5001 C4976 0.950 . S
H5002 C4978 0.950 . S
H5003 C4979 0.949 . S
H5004 C4981 0.950 . S
H5005 C4983 0.950 . S
C5006 C5007 1.349 . S
C5006 C5008 1.327 . S
C5006 H5031 0.950 . S
C5007 C5006 1.349 . S
C5007 C5023 1.349 . S
C5008 C5006 1.327 . S
C5008 C5027 1.429 . S
C5008 H5032 0.950 . S
C5009 C5026 1.574 . S
C5009 C5028 1.368 . S
C5009 H5033 0.949 . S
H5010 C5014 0.949 . S
C5011 C5012 1.349 . S
C5011 C5013 1.327 . S
C5011 H5034 0.950 . S
C5012 C5011 1.349 . S
C5012 C5024 1.349 . S
C5013 C5011 1.327 . S
C5013 C5029 1.429 . S
C5013 H5035 0.950 . S
C5014 H5010 0.949 . S
C5014 C5022 1.574 . S
C5014 C5030 1.368 . S
H5015 C5023 0.950 . S
H5016 C5021 0.950 . S
H5017 C5022 0.949 . S
H5018 C5024 0.950 . S
H5019 C5025 0.950 . S
H5020 C5026 0.949 . S
C5021 H5016 0.950 . S
C5021 C5023 1.327 . S
C5021 C5027 1.429 . S
C5022 C5014 1.574 . S
C5022 H5017 0.949 . S
C5022 C5028 1.368 . S
C5023 C5007 1.349 . S
C5023 H5015 0.950 . S
C5023 C5021 1.327 . S
C5024 C5012 1.349 . S
C5024 H5018 0.950 . S
C5024 C5025 1.327 . S
C5025 H5019 0.950 . S
C5025 C5024 1.327 . S
C5025 C5029 1.429 . S
C5026 C5009 1.574 . S
C5026 H5020 0.949 . S
C5026 C5030 1.368 . S
C5027 C5008 1.429 . S
C5027 C5021 1.429 . S
C5027 C5028 1.523 . S
C5028 C5009 1.368 . S
C5028 C5022 1.368 . S
C5028 C5027 1.523 . S
C5029 C5013 1.429 . S
C5029 C5025 1.429 . S
C5029 C5030 1.523 . S
C5030 C5014 1.368 . S
C5030 C5026 1.368 . S
C5030 C5029 1.523 . S
H5031 C5006 0.950 . S
H5032 C5008 0.950 . S
H5033 C5009 0.949 . S
H5034 C5011 0.950 . S
H5035 C5013 0.950 . S
C5036 C5037 1.349 . S
C5036 C5038 1.327 . S
C5036 H5061 0.950 . S
C5037 C5036 1.349 . S
C5037 C5053 1.349 . S
C5038 C5036 1.327 . S
C5038 C5057 1.429 . S
C5038 H5062 0.950 . S
C5039 C5056 1.574 . S
C5039 C5058 1.368 . S
C5039 H5063 0.949 . S
H5040 C5044 0.949 . S
C5041 C5042 1.349 . S
C5041 C5043 1.327 . S
C5041 H5064 0.950 . S
C5042 C5041 1.349 . S
C5042 C5054 1.349 . S
C5043 C5041 1.327 . S
C5043 C5059 1.429 . S
C5043 H5065 0.950 . S
C5044 H5040 0.949 . S
C5044 C5052 1.574 . S
C5044 C5060 1.368 . S
H5045 C5053 0.950 . S
H5046 C5051 0.950 . S
H5047 C5052 0.949 . S
H5048 C5054 0.950 . S
H5049 C5055 0.950 . S
H5050 C5056 0.949 . S
C5051 H5046 0.950 . S
C5051 C5053 1.327 . S
C5051 C5057 1.429 . S
C5052 C5044 1.574 . S
C5052 H5047 0.949 . S
C5052 C5058 1.368 . S
C5053 C5037 1.349 . S
C5053 H5045 0.950 . S
C5053 C5051 1.327 . S
C5054 C5042 1.349 . S
C5054 H5048 0.950 . S
C5054 C5055 1.327 . S
C5055 H5049 0.950 . S
C5055 C5054 1.327 . S
C5055 C5059 1.429 . S
C5056 C5039 1.574 . S
C5056 H5050 0.949 . S
C5056 C5060 1.368 . S
C5057 C5038 1.429 . S
C5057 C5051 1.429 . S
C5057 C5058 1.523 . S
C5058 C5039 1.368 . S
C5058 C5052 1.368 . S
C5058 C5057 1.523 . S
C5059 C5043 1.429 . S
C5059 C5055 1.429 . S
C5059 C5060 1.523 . S
C5060 C5044 1.368 . S
C5060 C5056 1.368 . S
C5060 C5059 1.523 . S
H5061 C5036 0.950 . S
H5062 C5038 0.950 . S
H5063 C5039 0.949 . S
H5064 C5041 0.950 . S
H5065 C5043 0.950 . S
C5066 C5067 1.349 . S
C5066 C5068 1.327 . S
C5066 H5091 0.950 . S
C5067 C5066 1.349 . S
C5067 C5083 1.349 . S
C5068 C5066 1.327 . S
C5068 C5087 1.429 . S
C5068 H5092 0.950 . S
C5069 C5086 1.574 . S
C5069 C5088 1.368 . S
C5069 H5093 0.949 . S
H5070 C5074 0.949 . S
C5071 C5072 1.349 . S
C5071 C5073 1.327 . S
C5071 H5094 0.950 . S
C5072 C5071 1.349 . S
C5072 C5084 1.349 . S
C5073 C5071 1.327 . S
C5073 C5089 1.429 . S
C5073 H5095 0.950 . S
C5074 H5070 0.949 . S
C5074 C5082 1.574 . S
C5074 C5090 1.368 . S
H5075 C5083 0.950 . S
H5076 C5081 0.950 . S
H5077 C5082 0.949 . S
H5078 C5084 0.950 . S
H5079 C5085 0.950 . S
H5080 C5086 0.949 . S
C5081 H5076 0.950 . S
C5081 C5083 1.327 . S
C5081 C5087 1.429 . S
C5082 C5074 1.574 . S
C5082 H5077 0.949 . S
C5082 C5088 1.368 . S
C5083 C5067 1.349 . S
C5083 H5075 0.950 . S
C5083 C5081 1.327 . S
C5084 C5072 1.349 . S
C5084 H5078 0.950 . S
C5084 C5085 1.327 . S
C5085 H5079 0.950 . S
C5085 C5084 1.327 . S
C5085 C5089 1.429 . S
C5086 C5069 1.574 . S
C5086 H5080 0.949 . S
C5086 C5090 1.368 . S
C5087 C5068 1.429 . S
C5087 C5081 1.429 . S
C5087 C5088 1.523 . S
C5088 C5069 1.368 . S
C5088 C5082 1.368 . S
C5088 C5087 1.523 . S
C5089 C5073 1.429 . S
C5089 C5085 1.429 . S
C5089 C5090 1.523 . S
C5090 C5074 1.368 . S
C5090 C5086 1.368 . S
C5090 C5089 1.523 . S
H5091 C5066 0.950 . S
H5092 C5068 0.950 . S
H5093 C5069 0.949 . S
H5094 C5071 0.950 . S
H5095 C5073 0.950 . S
C5096 C5097 1.349 . S
C5096 C5098 1.327 . S
C5096 H5121 0.950 . S
C5097 C5096 1.349 . S
C5097 C5113 1.349 . S
C5098 C5096 1.327 . S
C5098 C5117 1.429 . S
C5098 H5122 0.950 . S
C5099 C5116 1.574 . S
C5099 C5118 1.368 . S
C5099 H5123 0.949 . S
H5100 C5104 0.949 . S
C5101 C5102 1.349 . S
C5101 C5103 1.327 . S
C5101 H5124 0.950 . S
C5102 C5101 1.349 . S
C5102 C5114 1.349 . S
C5103 C5101 1.327 . S
C5103 C5119 1.429 . S
C5103 H5125 0.950 . S
C5104 H5100 0.949 . S
C5104 C5112 1.574 . S
C5104 C5120 1.368 . S
H5105 C5113 0.950 . S
H5106 C5111 0.950 . S
H5107 C5112 0.949 . S
H5108 C5114 0.950 . S
H5109 C5115 0.950 . S
H5110 C5116 0.949 . S
C5111 H5106 0.950 . S
C5111 C5113 1.327 . S
C5111 C5117 1.429 . S
C5112 C5104 1.574 . S
C5112 H5107 0.949 . S
C5112 C5118 1.368 . S
C5113 C5097 1.349 . S
C5113 H5105 0.950 . S
C5113 C5111 1.327 . S
C5114 C5102 1.349 . S
C5114 H5108 0.950 . S
C5114 C5115 1.327 . S
C5115 H5109 0.950 . S
C5115 C5114 1.327 . S
C5115 C5119 1.429 . S
C5116 C5099 1.574 . S
C5116 H5110 0.949 . S
C5116 C5120 1.368 . S
C5117 C5098 1.429 . S
C5117 C5111 1.429 . S
C5117 C5118 1.523 . S
C5118 C5099 1.368 . S
C5118 C5112 1.368 . S
C5118 C5117 1.523 . S
C5119 C5103 1.429 . S
C5119 C5115 1.429 . S
C5119 C5120 1.523 . S
C5120 C5104 1.368 . S
C5120 C5116 1.368 . S
C5120 C5119 1.523 . S
H5121 C5096 0.950 . S
H5122 C5098 0.950 . S
H5123 C5099 0.949 . S
H5124 C5101 0.950 . S
H5125 C5103 0.950 . S
C5126 C5127 1.349 . S
C5126 C5128 1.327 . S
C5126 H5151 0.950 . S
C5127 C5126 1.349 . S
C5127 C5143 1.349 . S
C5128 C5126 1.327 . S
C5128 C5147 1.429 . S
C5128 H5152 0.950 . S
C5129 C5146 1.574 . S
C5129 C5148 1.368 . S
C5129 H5153 0.949 . S
H5130 C5134 0.949 . S
C5131 C5132 1.349 . S
C5131 C5133 1.327 . S
C5131 H5154 0.950 . S
C5132 C5131 1.349 . S
C5132 C5144 1.349 . S
C5133 C5131 1.327 . S
C5133 C5149 1.429 . S
C5133 H5155 0.950 . S
C5134 H5130 0.949 . S
C5134 C5142 1.574 . S
C5134 C5150 1.368 . S
H5135 C5143 0.950 . S
H5136 C5141 0.950 . S
H5137 C5142 0.949 . S
H5138 C5144 0.950 . S
H5139 C5145 0.950 . S
H5140 C5146 0.949 . S
C5141 H5136 0.950 . S
C5141 C5143 1.327 . S
C5141 C5147 1.429 . S
C5142 C5134 1.574 . S
C5142 H5137 0.949 . S
C5142 C5148 1.368 . S
C5143 C5127 1.349 . S
C5143 H5135 0.950 . S
C5143 C5141 1.327 . S
C5144 C5132 1.349 . S
C5144 H5138 0.950 . S
C5144 C5145 1.327 . S
C5145 H5139 0.950 . S
C5145 C5144 1.327 . S
C5145 C5149 1.429 . S
C5146 C5129 1.574 . S
C5146 H5140 0.949 . S
C5146 C5150 1.368 . S
C5147 C5128 1.429 . S
C5147 C5141 1.429 . S
C5147 C5148 1.523 . S
C5148 C5129 1.368 . S
C5148 C5142 1.368 . S
C5148 C5147 1.523 . S
C5149 C5133 1.429 . S
C5149 C5145 1.429 . S
C5149 C5150 1.523 . S
C5150 C5134 1.368 . S
C5150 C5146 1.368 . S
C5150 C5149 1.523 . S
H5151 C5126 0.950 . S
H5152 C5128 0.950 . S
H5153 C5129 0.949 . S
H5154 C5131 0.950 . S
H5155 C5133 0.950 . S
C5156 C5157 1.349 . S
C5156 C5158 1.327 . S
C5156 H5181 0.950 . S
C5157 C5156 1.349 . S
C5157 C5173 1.349 . S
C5158 C5156 1.327 . S
C5158 C5177 1.429 . S
C5158 H5182 0.950 . S
C5159 C5176 1.574 . S
C5159 C5178 1.368 . S
C5159 H5183 0.949 . S
H5160 C5164 0.949 . S
C5161 C5162 1.349 . S
C5161 C5163 1.327 . S
C5161 H5184 0.950 . S
C5162 C5161 1.349 . S
C5162 C5174 1.349 . S
C5163 C5161 1.327 . S
C5163 C5179 1.429 . S
C5163 H5185 0.950 . S
C5164 H5160 0.949 . S
C5164 C5172 1.574 . S
C5164 C5180 1.368 . S
H5165 C5173 0.950 . S
H5166 C5171 0.950 . S
H5167 C5172 0.949 . S
H5168 C5174 0.950 . S
H5169 C5175 0.950 . S
H5170 C5176 0.949 . S
C5171 H5166 0.950 . S
C5171 C5173 1.327 . S
C5171 C5177 1.429 . S
C5172 C5164 1.574 . S
C5172 H5167 0.949 . S
C5172 C5178 1.368 . S
C5173 C5157 1.349 . S
C5173 H5165 0.950 . S
C5173 C5171 1.327 . S
C5174 C5162 1.349 . S
C5174 H5168 0.950 . S
C5174 C5175 1.327 . S
C5175 H5169 0.950 . S
C5175 C5174 1.327 . S
C5175 C5179 1.429 . S
C5176 C5159 1.574 . S
C5176 H5170 0.949 . S
C5176 C5180 1.368 . S
C5177 C5158 1.429 . S
C5177 C5171 1.429 . S
C5177 C5178 1.523 . S
C5178 C5159 1.368 . S
C5178 C5172 1.368 . S
C5178 C5177 1.523 . S
C5179 C5163 1.429 . S
C5179 C5175 1.429 . S
C5179 C5180 1.523 . S
C5180 C5164 1.368 . S
C5180 C5176 1.368 . S
C5180 C5179 1.523 . S
H5181 C5156 0.950 . S
H5182 C5158 0.950 . S
H5183 C5159 0.949 . S
H5184 C5161 0.950 . S
H5185 C5163 0.950 . S
C5186 C5187 1.349 . S
C5186 C5188 1.327 . S
C5186 H5211 0.950 . S
C5187 C5186 1.349 . S
C5187 C5203 1.349 . S
C5188 C5186 1.327 . S
C5188 C5207 1.429 . S
C5188 H5212 0.950 . S
C5189 C5206 1.574 . S
C5189 C5208 1.368 . S
C5189 H5213 0.949 . S
H5190 C5194 0.949 . S
C5191 C5192 1.349 . S
C5191 C5193 1.327 . S
C5191 H5214 0.950 . S
C5192 C5191 1.349 . S
C5192 C5204 1.349 . S
C5193 C5191 1.327 . S
C5193 C5209 1.429 . S
C5193 H5215 0.950 . S
C5194 H5190 0.949 . S
C5194 C5202 1.574 . S
C5194 C5210 1.368 . S
H5195 C5203 0.950 . S
H5196 C5201 0.950 . S
H5197 C5202 0.949 . S
H5198 C5204 0.950 . S
H5199 C5205 0.950 . S
H5200 C5206 0.949 . S
C5201 H5196 0.950 . S
C5201 C5203 1.327 . S
C5201 C5207 1.429 . S
C5202 C5194 1.574 . S
C5202 H5197 0.949 . S
C5202 C5208 1.368 . S
C5203 C5187 1.349 . S
C5203 H5195 0.950 . S
C5203 C5201 1.327 . S
C5204 C5192 1.349 . S
C5204 H5198 0.950 . S
C5204 C5205 1.327 . S
C5205 H5199 0.950 . S
C5205 C5204 1.327 . S
C5205 C5209 1.429 . S
C5206 C5189 1.574 . S
C5206 H5200 0.949 . S
C5206 C5210 1.368 . S
C5207 C5188 1.429 . S
C5207 C5201 1.429 . S
C5207 C5208 1.523 . S
C5208 C5189 1.368 . S
C5208 C5202 1.368 . S
C5208 C5207 1.523 . S
C5209 C5193 1.429 . S
C5209 C5205 1.429 . S
C5209 C5210 1.523 . S
C5210 C5194 1.368 . S
C5210 C5206 1.368 . S
C5210 C5209 1.523 . S
H5211 C5186 0.950 . S
H5212 C5188 0.950 . S
H5213 C5189 0.949 . S
H5214 C5191 0.950 . S
H5215 C5193 0.950 . S
C5216 C5217 1.349 . S
C5216 C5218 1.327 . S
C5216 H5241 0.950 . S
C5217 C5216 1.349 . S
C5217 C5233 1.349 . S
C5218 C5216 1.327 . S
C5218 C5237 1.429 . S
C5218 H5242 0.950 . S
C5219 C5236 1.574 . S
C5219 C5238 1.368 . S
C5219 H5243 0.949 . S
H5220 C5224 0.949 . S
C5221 C5222 1.349 . S
C5221 C5223 1.327 . S
C5221 H5244 0.950 . S
C5222 C5221 1.349 . S
C5222 C5234 1.349 . S
C5223 C5221 1.327 . S
C5223 C5239 1.429 . S
C5223 H5245 0.950 . S
C5224 H5220 0.949 . S
C5224 C5232 1.574 . S
C5224 C5240 1.368 . S
H5225 C5233 0.950 . S
H5226 C5231 0.950 . S
H5227 C5232 0.949 . S
H5228 C5234 0.950 . S
H5229 C5235 0.950 . S
H5230 C5236 0.949 . S
C5231 H5226 0.950 . S
C5231 C5233 1.327 . S
C5231 C5237 1.429 . S
C5232 C5224 1.574 . S
C5232 H5227 0.949 . S
C5232 C5238 1.368 . S
C5233 C5217 1.349 . S
C5233 H5225 0.950 . S
C5233 C5231 1.327 . S
C5234 C5222 1.349 . S
C5234 H5228 0.950 . S
C5234 C5235 1.327 . S
C5235 H5229 0.950 . S
C5235 C5234 1.327 . S
C5235 C5239 1.429 . S
C5236 C5219 1.574 . S
C5236 H5230 0.949 . S
C5236 C5240 1.368 . S
C5237 C5218 1.429 . S
C5237 C5231 1.429 . S
C5237 C5238 1.523 . S
C5238 C5219 1.368 . S
C5238 C5232 1.368 . S
C5238 C5237 1.523 . S
C5239 C5223 1.429 . S
C5239 C5235 1.429 . S
C5239 C5240 1.523 . S
C5240 C5224 1.368 . S
C5240 C5236 1.368 . S
C5240 C5239 1.523 . S
H5241 C5216 0.950 . S
H5242 C5218 0.950 . S
H5243 C5219 0.949 . S
H5244 C5221 0.950 . S
H5245 C5223 0.950 . S
C5246 C5247 1.349 . S
C5246 C5248 1.327 . S
C5246 H5271 0.950 . S
C5247 C5246 1.349 . S
C5247 C5263 1.349 . S
C5248 C5246 1.327 . S
C5248 C5267 1.429 . S
C5248 H5272 0.950 . S
C5249 C5266 1.574 . S
C5249 C5268 1.368 . S
C5249 H5273 0.949 . S
H5250 C5254 0.949 . S
C5251 C5252 1.349 . S
C5251 C5253 1.327 . S
C5251 H5274 0.950 . S
C5252 C5251 1.349 . S
C5252 C5264 1.349 . S
C5253 C5251 1.327 . S
C5253 C5269 1.429 . S
C5253 H5275 0.950 . S
C5254 H5250 0.949 . S
C5254 C5262 1.574 . S
C5254 C5270 1.368 . S
H5255 C5263 0.950 . S
H5256 C5261 0.950 . S
H5257 C5262 0.949 . S
H5258 C5264 0.950 . S
H5259 C5265 0.950 . S
H5260 C5266 0.949 . S
C5261 H5256 0.950 . S
C5261 C5263 1.327 . S
C5261 C5267 1.429 . S
C5262 C5254 1.574 . S
C5262 H5257 0.949 . S
C5262 C5268 1.368 . S
C5263 C5247 1.349 . S
C5263 H5255 0.950 . S
C5263 C5261 1.327 . S
C5264 C5252 1.349 . S
C5264 H5258 0.950 . S
C5264 C5265 1.327 . S
C5265 H5259 0.950 . S
C5265 C5264 1.327 . S
C5265 C5269 1.429 . S
C5266 C5249 1.574 . S
C5266 H5260 0.949 . S
C5266 C5270 1.368 . S
C5267 C5248 1.429 . S
C5267 C5261 1.429 . S
C5267 C5268 1.523 . S
C5268 C5249 1.368 . S
C5268 C5262 1.368 . S
C5268 C5267 1.523 . S
C5269 C5253 1.429 . S
C5269 C5265 1.429 . S
C5269 C5270 1.523 . S
C5270 C5254 1.368 . S
C5270 C5266 1.368 . S
C5270 C5269 1.523 . S
H5271 C5246 0.950 . S
H5272 C5248 0.950 . S
H5273 C5249 0.949 . S
H5274 C5251 0.950 . S
H5275 C5253 0.950 . S
C5276 C5277 1.349 . S
C5276 C5278 1.327 . S
C5276 H5301 0.950 . S
C5277 C5276 1.349 . S
C5277 C5293 1.349 . S
C5278 C5276 1.327 . S
C5278 C5297 1.429 . S
C5278 H5302 0.950 . S
C5279 C5296 1.574 . S
C5279 C5298 1.368 . S
C5279 H5303 0.949 . S
H5280 C5284 0.949 . S
C5281 C5282 1.349 . S
C5281 C5283 1.327 . S
C5281 H5304 0.950 . S
C5282 C5281 1.349 . S
C5282 C5294 1.349 . S
C5283 C5281 1.327 . S
C5283 C5299 1.429 . S
C5283 H5305 0.950 . S
C5284 H5280 0.949 . S
C5284 C5292 1.574 . S
C5284 C5300 1.368 . S
H5285 C5293 0.950 . S
H5286 C5291 0.950 . S
H5287 C5292 0.949 . S
H5288 C5294 0.950 . S
H5289 C5295 0.950 . S
H5290 C5296 0.949 . S
C5291 H5286 0.950 . S
C5291 C5293 1.327 . S
C5291 C5297 1.429 . S
C5292 C5284 1.574 . S
C5292 H5287 0.949 . S
C5292 C5298 1.368 . S
C5293 C5277 1.349 . S
C5293 H5285 0.950 . S
C5293 C5291 1.327 . S
C5294 C5282 1.349 . S
C5294 H5288 0.950 . S
C5294 C5295 1.327 . S
C5295 H5289 0.950 . S
C5295 C5294 1.327 . S
C5295 C5299 1.429 . S
C5296 C5279 1.574 . S
C5296 H5290 0.949 . S
C5296 C5300 1.368 . S
C5297 C5278 1.429 . S
C5297 C5291 1.429 . S
C5297 C5298 1.523 . S
C5298 C5279 1.368 . S
C5298 C5292 1.368 . S
C5298 C5297 1.523 . S
C5299 C5283 1.429 . S
C5299 C5295 1.429 . S
C5299 C5300 1.523 . S
C5300 C5284 1.368 . S
C5300 C5296 1.368 . S
C5300 C5299 1.523 . S
H5301 C5276 0.950 . S
H5302 C5278 0.950 . S
H5303 C5279 0.949 . S
H5304 C5281 0.950 . S
H5305 C5283 0.950 . S
C5306 C5307 1.349 . S
C5306 C5308 1.327 . S
C5306 H5331 0.950 . S
C5307 C5306 1.349 . S
C5307 C5323 1.349 . S
C5308 C5306 1.327 . S
C5308 C5327 1.429 . S
C5308 H5332 0.950 . S
C5309 C5326 1.574 . S
C5309 C5328 1.368 . S
C5309 H5333 0.949 . S
H5310 C5314 0.949 . S
C5311 C5312 1.349 . S
C5311 C5313 1.327 . S
C5311 H5334 0.950 . S
C5312 C5311 1.349 . S
C5312 C5324 1.349 . S
C5313 C5311 1.327 . S
C5313 C5329 1.429 . S
C5313 H5335 0.950 . S
C5314 H5310 0.949 . S
C5314 C5322 1.574 . S
C5314 C5330 1.368 . S
H5315 C5323 0.950 . S
H5316 C5321 0.950 . S
H5317 C5322 0.949 . S
H5318 C5324 0.950 . S
H5319 C5325 0.950 . S
H5320 C5326 0.949 . S
C5321 H5316 0.950 . S
C5321 C5323 1.327 . S
C5321 C5327 1.429 . S
C5322 C5314 1.574 . S
C5322 H5317 0.949 . S
C5322 C5328 1.368 . S
C5323 C5307 1.349 . S
C5323 H5315 0.950 . S
C5323 C5321 1.327 . S
C5324 C5312 1.349 . S
C5324 H5318 0.950 . S
C5324 C5325 1.327 . S
C5325 H5319 0.950 . S
C5325 C5324 1.327 . S
C5325 C5329 1.429 . S
C5326 C5309 1.574 . S
C5326 H5320 0.949 . S
C5326 C5330 1.368 . S
C5327 C5308 1.429 . S
C5327 C5321 1.429 . S
C5327 C5328 1.523 . S
C5328 C5309 1.368 . S
C5328 C5322 1.368 . S
C5328 C5327 1.523 . S
C5329 C5313 1.429 . S
C5329 C5325 1.429 . S
C5329 C5330 1.523 . S
C5330 C5314 1.368 . S
C5330 C5326 1.368 . S
C5330 C5329 1.523 . S
H5331 C5306 0.950 . S
H5332 C5308 0.950 . S
H5333 C5309 0.949 . S
H5334 C5311 0.950 . S
H5335 C5313 0.950 . S
C5336 C5337 1.349 . S
C5336 C5338 1.327 . S
C5336 H5361 0.950 . S
C5337 C5336 1.349 . S
C5337 C5353 1.349 . S
C5338 C5336 1.327 . S
C5338 C5357 1.429 . S
C5338 H5362 0.950 . S
C5339 C5356 1.574 . S
C5339 C5358 1.368 . S
C5339 H5363 0.949 . S
H5340 C5344 0.949 . S
C5341 C5342 1.349 . S
C5341 C5343 1.327 . S
C5341 H5364 0.950 . S
C5342 C5341 1.349 . S
C5342 C5354 1.349 . S
C5343 C5341 1.327 . S
C5343 C5359 1.429 . S
C5343 H5365 0.950 . S
C5344 H5340 0.949 . S
C5344 C5352 1.574 . S
C5344 C5360 1.368 . S
H5345 C5353 0.950 . S
H5346 C5351 0.950 . S
H5347 C5352 0.949 . S
H5348 C5354 0.950 . S
H5349 C5355 0.950 . S
H5350 C5356 0.949 . S
C5351 H5346 0.950 . S
C5351 C5353 1.327 . S
C5351 C5357 1.429 . S
C5352 C5344 1.574 . S
C5352 H5347 0.949 . S
C5352 C5358 1.368 . S
C5353 C5337 1.349 . S
C5353 H5345 0.950 . S
C5353 C5351 1.327 . S
C5354 C5342 1.349 . S
C5354 H5348 0.950 . S
C5354 C5355 1.327 . S
C5355 H5349 0.950 . S
C5355 C5354 1.327 . S
C5355 C5359 1.429 . S
C5356 C5339 1.574 . S
C5356 H5350 0.949 . S
C5356 C5360 1.368 . S
C5357 C5338 1.429 . S
C5357 C5351 1.429 . S
C5357 C5358 1.523 . S
C5358 C5339 1.368 . S
C5358 C5352 1.368 . S
C5358 C5357 1.523 . S
C5359 C5343 1.429 . S
C5359 C5355 1.429 . S
C5359 C5360 1.523 . S
C5360 C5344 1.368 . S
C5360 C5356 1.368 . S
C5360 C5359 1.523 . S
H5361 C5336 0.950 . S
H5362 C5338 0.950 . S
H5363 C5339 0.949 . S
H5364 C5341 0.950 . S
H5365 C5343 0.950 . S
C5366 C5367 1.349 . S
C5366 C5368 1.327 . S
C5366 H5391 0.950 . S
C5367 C5366 1.349 . S
C5367 C5383 1.349 . S
C5368 C5366 1.327 . S
C5368 C5387 1.429 . S
C5368 H5392 0.950 . S
C5369 C5386 1.574 . S
C5369 C5388 1.368 . S
C5369 H5393 0.949 . S
H5370 C5374 0.949 . S
C5371 C5372 1.349 . S
C5371 C5373 1.327 . S
C5371 H5394 0.950 . S
C5372 C5371 1.349 . S
C5372 C5384 1.349 . S
C5373 C5371 1.327 . S
C5373 C5389 1.429 . S
C5373 H5395 0.950 . S
C5374 H5370 0.949 . S
C5374 C5382 1.574 . S
C5374 C5390 1.368 . S
H5375 C5383 0.950 . S
H5376 C5381 0.950 . S
H5377 C5382 0.949 . S
H5378 C5384 0.950 . S
H5379 C5385 0.950 . S
H5380 C5386 0.949 . S
C5381 H5376 0.950 . S
C5381 C5383 1.327 . S
C5381 C5387 1.429 . S
C5382 C5374 1.574 . S
C5382 H5377 0.949 . S
C5382 C5388 1.368 . S
C5383 C5367 1.349 . S
C5383 H5375 0.950 . S
C5383 C5381 1.327 . S
C5384 C5372 1.349 . S
C5384 H5378 0.950 . S
C5384 C5385 1.327 . S
C5385 H5379 0.950 . S
C5385 C5384 1.327 . S
C5385 C5389 1.429 . S
C5386 C5369 1.574 . S
C5386 H5380 0.949 . S
C5386 C5390 1.368 . S
C5387 C5368 1.429 . S
C5387 C5381 1.429 . S
C5387 C5388 1.523 . S
C5388 C5369 1.368 . S
C5388 C5382 1.368 . S
C5388 C5387 1.523 . S
C5389 C5373 1.429 . S
C5389 C5385 1.429 . S
C5389 C5390 1.523 . S
C5390 C5374 1.368 . S
C5390 C5386 1.368 . S
C5390 C5389 1.523 . S
H5391 C5366 0.950 . S
H5392 C5368 0.950 . S
H5393 C5369 0.949 . S
H5394 C5371 0.950 . S
H5395 C5373 0.950 . S
C5396 C5397 1.349 . S
C5396 C5398 1.327 . S
C5396 H5421 0.950 . S
C5397 C5396 1.349 . S
C5397 C5413 1.349 . S
C5398 C5396 1.327 . S
C5398 C5417 1.429 . S
C5398 H5422 0.950 . S
C5399 C5416 1.574 . S
C5399 C5418 1.368 . S
C5399 H5423 0.949 . S
H5400 C5404 0.949 . S
C5401 C5402 1.349 . S
C5401 C5403 1.327 . S
C5401 H5424 0.950 . S
C5402 C5401 1.349 . S
C5402 C5414 1.349 . S
C5403 C5401 1.327 . S
C5403 C5419 1.429 . S
C5403 H5425 0.950 . S
C5404 H5400 0.949 . S
C5404 C5412 1.574 . S
C5404 C5420 1.368 . S
H5405 C5413 0.950 . S
H5406 C5411 0.950 . S
H5407 C5412 0.949 . S
H5408 C5414 0.950 . S
H5409 C5415 0.950 . S
H5410 C5416 0.949 . S
C5411 H5406 0.950 . S
C5411 C5413 1.327 . S
C5411 C5417 1.429 . S
C5412 C5404 1.574 . S
C5412 H5407 0.949 . S
C5412 C5418 1.368 . S
C5413 C5397 1.349 . S
C5413 H5405 0.950 . S
C5413 C5411 1.327 . S
C5414 C5402 1.349 . S
C5414 H5408 0.950 . S
C5414 C5415 1.327 . S
C5415 H5409 0.950 . S
C5415 C5414 1.327 . S
C5415 C5419 1.429 . S
C5416 C5399 1.574 . S
C5416 H5410 0.949 . S
C5416 C5420 1.368 . S
C5417 C5398 1.429 . S
C5417 C5411 1.429 . S
C5417 C5418 1.523 . S
C5418 C5399 1.368 . S
C5418 C5412 1.368 . S
C5418 C5417 1.523 . S
C5419 C5403 1.429 . S
C5419 C5415 1.429 . S
C5419 C5420 1.523 . S
C5420 C5404 1.368 . S
C5420 C5416 1.368 . S
C5420 C5419 1.523 . S
H5421 C5396 0.950 . S
H5422 C5398 0.950 . S
H5423 C5399 0.949 . S
H5424 C5401 0.950 . S
H5425 C5403 0.950 . S
C5426 C5427 1.349 . S
C5426 C5428 1.327 . S
C5426 H5451 0.950 . S
C5427 C5426 1.349 . S
C5427 C5443 1.349 . S
C5428 C5426 1.327 . S
C5428 C5447 1.429 . S
C5428 H5452 0.950 . S
C5429 C5446 1.574 . S
C5429 C5448 1.368 . S
C5429 H5453 0.949 . S
H5430 C5434 0.949 . S
C5431 C5432 1.349 . S
C5431 C5433 1.327 . S
C5431 H5454 0.950 . S
C5432 C5431 1.349 . S
C5432 C5444 1.349 . S
C5433 C5431 1.327 . S
C5433 C5449 1.429 . S
C5433 H5455 0.950 . S
C5434 H5430 0.949 . S
C5434 C5442 1.574 . S
C5434 C5450 1.368 . S
H5435 C5443 0.950 . S
H5436 C5441 0.950 . S
H5437 C5442 0.949 . S
H5438 C5444 0.950 . S
H5439 C5445 0.950 . S
H5440 C5446 0.949 . S
C5441 H5436 0.950 . S
C5441 C5443 1.327 . S
C5441 C5447 1.429 . S
C5442 C5434 1.574 . S
C5442 H5437 0.949 . S
C5442 C5448 1.368 . S
C5443 C5427 1.349 . S
C5443 H5435 0.950 . S
C5443 C5441 1.327 . S
C5444 C5432 1.349 . S
C5444 H5438 0.950 . S
C5444 C5445 1.327 . S
C5445 H5439 0.950 . S
C5445 C5444 1.327 . S
C5445 C5449 1.429 . S
C5446 C5429 1.574 . S
C5446 H5440 0.949 . S
C5446 C5450 1.368 . S
C5447 C5428 1.429 . S
C5447 C5441 1.429 . S
C5447 C5448 1.523 . S
C5448 C5429 1.368 . S
C5448 C5442 1.368 . S
C5448 C5447 1.523 . S
C5449 C5433 1.429 . S
C5449 C5445 1.429 . S
C5449 C5450 1.523 . S
C5450 C5434 1.368 . S
C5450 C5446 1.368 . S
C5450 C5449 1.523 . S
H5451 C5426 0.950 . S
H5452 C5428 0.950 . S
H5453 C5429 0.949 . S
H5454 C5431 0.950 . S
H5455 C5433 0.950 . S
C5456 C5457 1.349 . S
C5456 C5458 1.327 . S
C5456 H5481 0.950 . S
C5457 C5456 1.349 . S
C5457 C5473 1.349 . S
C5458 C5456 1.327 . S
C5458 C5477 1.429 . S
C5458 H5482 0.950 . S
C5459 C5476 1.574 . S
C5459 C5478 1.368 . S
C5459 H5483 0.949 . S
H5460 C5464 0.949 . S
C5461 C5462 1.349 . S
C5461 C5463 1.327 . S
C5461 H5484 0.950 . S
C5462 C5461 1.349 . S
C5462 C5474 1.349 . S
C5463 C5461 1.327 . S
C5463 C5479 1.429 . S
C5463 H5485 0.950 . S
C5464 H5460 0.949 . S
C5464 C5472 1.574 . S
C5464 C5480 1.368 . S
H5465 C5473 0.950 . S
H5466 C5471 0.950 . S
H5467 C5472 0.949 . S
H5468 C5474 0.950 . S
H5469 C5475 0.950 . S
H5470 C5476 0.949 . S
C5471 H5466 0.950 . S
C5471 C5473 1.327 . S
C5471 C5477 1.429 . S
C5472 C5464 1.574 . S
C5472 H5467 0.949 . S
C5472 C5478 1.368 . S
C5473 C5457 1.349 . S
C5473 H5465 0.950 . S
C5473 C5471 1.327 . S
C5474 C5462 1.349 . S
C5474 H5468 0.950 . S
C5474 C5475 1.327 . S
C5475 H5469 0.950 . S
C5475 C5474 1.327 . S
C5475 C5479 1.429 . S
C5476 C5459 1.574 . S
C5476 H5470 0.949 . S
C5476 C5480 1.368 . S
C5477 C5458 1.429 . S
C5477 C5471 1.429 . S
C5477 C5478 1.523 . S
C5478 C5459 1.368 . S
C5478 C5472 1.368 . S
C5478 C5477 1.523 . S
C5479 C5463 1.429 . S
C5479 C5475 1.429 . S
C5479 C5480 1.523 . S
C5480 C5464 1.368 . S
C5480 C5476 1.368 . S
C5480 C5479 1.523 . S
H5481 C5456 0.950 . S
H5482 C5458 0.950 . S
H5483 C5459 0.949 . S
H5484 C5461 0.950 . S
H5485 C5463 0.950 . S
C5486 C5487 1.349 . S
C5486 C5488 1.327 . S
C5486 H5511 0.950 . S
C5487 C5486 1.349 . S
C5487 C5503 1.349 . S
C5488 C5486 1.327 . S
C5488 C5507 1.429 . S
C5488 H5512 0.950 . S
C5489 C5506 1.574 . S
C5489 C5508 1.368 . S
C5489 H5513 0.949 . S
H5490 C5494 0.949 . S
C5491 C5492 1.349 . S
C5491 C5493 1.327 . S
C5491 H5514 0.950 . S
C5492 C5491 1.349 . S
C5492 C5504 1.349 . S
C5493 C5491 1.327 . S
C5493 C5509 1.429 . S
C5493 H5515 0.950 . S
C5494 H5490 0.949 . S
C5494 C5502 1.574 . S
C5494 C5510 1.368 . S
H5495 C5503 0.950 . S
H5496 C5501 0.950 . S
H5497 C5502 0.949 . S
H5498 C5504 0.950 . S
H5499 C5505 0.950 . S
H5500 C5506 0.949 . S
C5501 H5496 0.950 . S
C5501 C5503 1.327 . S
C5501 C5507 1.429 . S
C5502 C5494 1.574 . S
C5502 H5497 0.949 . S
C5502 C5508 1.368 . S
C5503 C5487 1.349 . S
C5503 H5495 0.950 . S
C5503 C5501 1.327 . S
C5504 C5492 1.349 . S
C5504 H5498 0.950 . S
C5504 C5505 1.327 . S
C5505 H5499 0.950 . S
C5505 C5504 1.327 . S
C5505 C5509 1.429 . S
C5506 C5489 1.574 . S
C5506 H5500 0.949 . S
C5506 C5510 1.368 . S
C5507 C5488 1.429 . S
C5507 C5501 1.429 . S
C5507 C5508 1.523 . S
C5508 C5489 1.368 . S
C5508 C5502 1.368 . S
C5508 C5507 1.523 . S
C5509 C5493 1.429 . S
C5509 C5505 1.429 . S
C5509 C5510 1.523 . S
C5510 C5494 1.368 . S
C5510 C5506 1.368 . S
C5510 C5509 1.523 . S
H5511 C5486 0.950 . S
H5512 C5488 0.950 . S
H5513 C5489 0.949 . S
H5514 C5491 0.950 . S
H5515 C5493 0.950 . S
C5516 C5517 1.349 . S
C5516 C5518 1.327 . S
C5516 H5541 0.950 . S
C5517 C5516 1.349 . S
C5517 C5533 1.349 . S
C5518 C5516 1.327 . S
C5518 C5537 1.429 . S
C5518 H5542 0.950 . S
C5519 C5536 1.574 . S
C5519 C5538 1.368 . S
C5519 H5543 0.949 . S
H5520 C5524 0.949 . S
C5521 C5522 1.349 . S
C5521 C5523 1.327 . S
C5521 H5544 0.950 . S
C5522 C5521 1.349 . S
C5522 C5534 1.349 . S
C5523 C5521 1.327 . S
C5523 C5539 1.429 . S
C5523 H5545 0.950 . S
C5524 H5520 0.949 . S
C5524 C5532 1.574 . S
C5524 C5540 1.368 . S
H5525 C5533 0.950 . S
H5526 C5531 0.950 . S
H5527 C5532 0.949 . S
H5528 C5534 0.950 . S
H5529 C5535 0.950 . S
H5530 C5536 0.949 . S
C5531 H5526 0.950 . S
C5531 C5533 1.327 . S
C5531 C5537 1.429 . S
C5532 C5524 1.574 . S
C5532 H5527 0.949 . S
C5532 C5538 1.368 . S
C5533 C5517 1.349 . S
C5533 H5525 0.950 . S
C5533 C5531 1.327 . S
C5534 C5522 1.349 . S
C5534 H5528 0.950 . S
C5534 C5535 1.327 . S
C5535 H5529 0.950 . S
C5535 C5534 1.327 . S
C5535 C5539 1.429 . S
C5536 C5519 1.574 . S
C5536 H5530 0.949 . S
C5536 C5540 1.368 . S
C5537 C5518 1.429 . S
C5537 C5531 1.429 . S
C5537 C5538 1.523 . S
C5538 C5519 1.368 . S
C5538 C5532 1.368 . S
C5538 C5537 1.523 . S
C5539 C5523 1.429 . S
C5539 C5535 1.429 . S
C5539 C5540 1.523 . S
C5540 C5524 1.368 . S
C5540 C5536 1.368 . S
C5540 C5539 1.523 . S
H5541 C5516 0.950 . S
H5542 C5518 0.950 . S
H5543 C5519 0.949 . S
H5544 C5521 0.950 . S
H5545 C5523 0.950 . S
C5546 C5547 1.349 . S
C5546 C5548 1.327 . S
C5546 H5571 0.950 . S
C5547 C5546 1.349 . S
C5547 C5563 1.349 . S
C5548 C5546 1.327 . S
C5548 C5567 1.429 . S
C5548 H5572 0.950 . S
C5549 C5566 1.574 . S
C5549 C5568 1.368 . S
C5549 H5573 0.949 . S
H5550 C5554 0.949 . S
C5551 C5552 1.349 . S
C5551 C5553 1.327 . S
C5551 H5574 0.950 . S
C5552 C5551 1.349 . S
C5552 C5564 1.349 . S
C5553 C5551 1.327 . S
C5553 C5569 1.429 . S
C5553 H5575 0.950 . S
C5554 H5550 0.949 . S
C5554 C5562 1.574 . S
C5554 C5570 1.368 . S
H5555 C5563 0.950 . S
H5556 C5561 0.950 . S
H5557 C5562 0.949 . S
H5558 C5564 0.950 . S
H5559 C5565 0.950 . S
H5560 C5566 0.949 . S
C5561 H5556 0.950 . S
C5561 C5563 1.327 . S
C5561 C5567 1.429 . S
C5562 C5554 1.574 . S
C5562 H5557 0.949 . S
C5562 C5568 1.368 . S
C5563 C5547 1.349 . S
C5563 H5555 0.950 . S
C5563 C5561 1.327 . S
C5564 C5552 1.349 . S
C5564 H5558 0.950 . S
C5564 C5565 1.327 . S
C5565 H5559 0.950 . S
C5565 C5564 1.327 . S
C5565 C5569 1.429 . S
C5566 C5549 1.574 . S
C5566 H5560 0.949 . S
C5566 C5570 1.368 . S
C5567 C5548 1.429 . S
C5567 C5561 1.429 . S
C5567 C5568 1.523 . S
C5568 C5549 1.368 . S
C5568 C5562 1.368 . S
C5568 C5567 1.523 . S
C5569 C5553 1.429 . S
C5569 C5565 1.429 . S
C5569 C5570 1.523 . S
C5570 C5554 1.368 . S
C5570 C5566 1.368 . S
C5570 C5569 1.523 . S
H5571 C5546 0.950 . S
H5572 C5548 0.950 . S
H5573 C5549 0.949 . S
H5574 C5551 0.950 . S
H5575 C5553 0.950 . S
C5576 C5577 1.349 . S
C5576 C5578 1.327 . S
C5576 H5601 0.950 . S
C5577 C5576 1.349 . S
C5577 C5593 1.349 . S
C5578 C5576 1.327 . S
C5578 C5597 1.429 . S
C5578 H5602 0.950 . S
C5579 C5596 1.574 . S
C5579 C5598 1.368 . S
C5579 H5603 0.949 . S
H5580 C5584 0.949 . S
C5581 C5582 1.349 . S
C5581 C5583 1.327 . S
C5581 H5604 0.950 . S
C5582 C5581 1.349 . S
C5582 C5594 1.349 . S
C5583 C5581 1.327 . S
C5583 C5599 1.429 . S
C5583 H5605 0.950 . S
C5584 H5580 0.949 . S
C5584 C5592 1.574 . S
C5584 C5600 1.368 . S
H5585 C5593 0.950 . S
H5586 C5591 0.950 . S
H5587 C5592 0.949 . S
H5588 C5594 0.950 . S
H5589 C5595 0.950 . S
H5590 C5596 0.949 . S
C5591 H5586 0.950 . S
C5591 C5593 1.327 . S
C5591 C5597 1.429 . S
C5592 C5584 1.574 . S
C5592 H5587 0.949 . S
C5592 C5598 1.368 . S
C5593 C5577 1.349 . S
C5593 H5585 0.950 . S
C5593 C5591 1.327 . S
C5594 C5582 1.349 . S
C5594 H5588 0.950 . S
C5594 C5595 1.327 . S
C5595 H5589 0.950 . S
C5595 C5594 1.327 . S
C5595 C5599 1.429 . S
C5596 C5579 1.574 . S
C5596 H5590 0.949 . S
C5596 C5600 1.368 . S
C5597 C5578 1.429 . S
C5597 C5591 1.429 . S
C5597 C5598 1.523 . S
C5598 C5579 1.368 . S
C5598 C5592 1.368 . S
C5598 C5597 1.523 . S
C5599 C5583 1.429 . S
C5599 C5595 1.429 . S
C5599 C5600 1.523 . S
C5600 C5584 1.368 . S
C5600 C5596 1.368 . S
C5600 C5599 1.523 . S
H5601 C5576 0.950 . S
H5602 C5578 0.950 . S
H5603 C5579 0.949 . S
H5604 C5581 0.950 . S
H5605 C5583 0.950 . S
C5606 C5607 1.349 . S
C5606 C5608 1.327 . S
C5606 H5631 0.950 . S
C5607 C5606 1.349 . S
C5607 C5623 1.349 . S
C5608 C5606 1.327 . S
C5608 C5627 1.429 . S
C5608 H5632 0.950 . S
C5609 C5626 1.574 . S
C5609 C5628 1.368 . S
C5609 H5633 0.949 . S
H5610 C5614 0.949 . S
C5611 C5612 1.349 . S
C5611 C5613 1.327 . S
C5611 H5634 0.950 . S
C5612 C5611 1.349 . S
C5612 C5624 1.349 . S
C5613 C5611 1.327 . S
C5613 C5629 1.429 . S
C5613 H5635 0.950 . S
C5614 H5610 0.949 . S
C5614 C5622 1.574 . S
C5614 C5630 1.368 . S
H5615 C5623 0.950 . S
H5616 C5621 0.950 . S
H5617 C5622 0.949 . S
H5618 C5624 0.950 . S
H5619 C5625 0.950 . S
H5620 C5626 0.949 . S
C5621 H5616 0.950 . S
C5621 C5623 1.327 . S
C5621 C5627 1.429 . S
C5622 C5614 1.574 . S
C5622 H5617 0.949 . S
C5622 C5628 1.368 . S
C5623 C5607 1.349 . S
C5623 H5615 0.950 . S
C5623 C5621 1.327 . S
C5624 C5612 1.349 . S
C5624 H5618 0.950 . S
C5624 C5625 1.327 . S
C5625 H5619 0.950 . S
C5625 C5624 1.327 . S
C5625 C5629 1.429 . S
C5626 C5609 1.574 . S
C5626 H5620 0.949 . S
C5626 C5630 1.368 . S
C5627 C5608 1.429 . S
C5627 C5621 1.429 . S
C5627 C5628 1.523 . S
C5628 C5609 1.368 . S
C5628 C5622 1.368 . S
C5628 C5627 1.523 . S
C5629 C5613 1.429 . S
C5629 C5625 1.429 . S
C5629 C5630 1.523 . S
C5630 C5614 1.368 . S
C5630 C5626 1.368 . S
C5630 C5629 1.523 . S
H5631 C5606 0.950 . S
H5632 C5608 0.950 . S
H5633 C5609 0.949 . S
H5634 C5611 0.950 . S
H5635 C5613 0.950 . S
C5636 C5637 1.349 . S
C5636 C5638 1.327 . S
C5636 H5661 0.950 . S
C5637 C5636 1.349 . S
C5637 C5653 1.349 . S
C5638 C5636 1.327 . S
C5638 C5657 1.429 . S
C5638 H5662 0.950 . S
C5639 C5656 1.574 . S
C5639 C5658 1.368 . S
C5639 H5663 0.949 . S
H5640 C5644 0.949 . S
C5641 C5642 1.349 . S
C5641 C5643 1.327 . S
C5641 H5664 0.950 . S
C5642 C5641 1.349 . S
C5642 C5654 1.349 . S
C5643 C5641 1.327 . S
C5643 C5659 1.429 . S
C5643 H5665 0.950 . S
C5644 H5640 0.949 . S
C5644 C5652 1.574 . S
C5644 C5660 1.368 . S
H5645 C5653 0.950 . S
H5646 C5651 0.950 . S
H5647 C5652 0.949 . S
H5648 C5654 0.950 . S
H5649 C5655 0.950 . S
H5650 C5656 0.949 . S
C5651 H5646 0.950 . S
C5651 C5653 1.327 . S
C5651 C5657 1.429 . S
C5652 C5644 1.574 . S
C5652 H5647 0.949 . S
C5652 C5658 1.368 . S
C5653 C5637 1.349 . S
C5653 H5645 0.950 . S
C5653 C5651 1.327 . S
C5654 C5642 1.349 . S
C5654 H5648 0.950 . S
C5654 C5655 1.327 . S
C5655 H5649 0.950 . S
C5655 C5654 1.327 . S
C5655 C5659 1.429 . S
C5656 C5639 1.574 . S
C5656 H5650 0.949 . S
C5656 C5660 1.368 . S
C5657 C5638 1.429 . S
C5657 C5651 1.429 . S
C5657 C5658 1.523 . S
C5658 C5639 1.368 . S
C5658 C5652 1.368 . S
C5658 C5657 1.523 . S
C5659 C5643 1.429 . S
C5659 C5655 1.429 . S
C5659 C5660 1.523 . S
C5660 C5644 1.368 . S
C5660 C5656 1.368 . S
C5660 C5659 1.523 . S
H5661 C5636 0.950 . S
H5662 C5638 0.950 . S
H5663 C5639 0.949 . S
H5664 C5641 0.950 . S
H5665 C5643 0.950 . S
C5666 C5667 1.349 . S
C5666 C5668 1.327 . S
C5666 H5691 0.950 . S
C5667 C5666 1.349 . S
C5667 C5683 1.349 . S
C5668 C5666 1.327 . S
C5668 C5687 1.429 . S
C5668 H5692 0.950 . S
C5669 C5686 1.574 . S
C5669 C5688 1.368 . S
C5669 H5693 0.949 . S
H5670 C5674 0.949 . S
C5671 C5672 1.349 . S
C5671 C5673 1.327 . S
C5671 H5694 0.950 . S
C5672 C5671 1.349 . S
C5672 C5684 1.349 . S
C5673 C5671 1.327 . S
C5673 C5689 1.429 . S
C5673 H5695 0.950 . S
C5674 H5670 0.949 . S
C5674 C5682 1.574 . S
C5674 C5690 1.368 . S
H5675 C5683 0.950 . S
H5676 C5681 0.950 . S
H5677 C5682 0.949 . S
H5678 C5684 0.950 . S
H5679 C5685 0.950 . S
H5680 C5686 0.949 . S
C5681 H5676 0.950 . S
C5681 C5683 1.327 . S
C5681 C5687 1.429 . S
C5682 C5674 1.574 . S
C5682 H5677 0.949 . S
C5682 C5688 1.368 . S
C5683 C5667 1.349 . S
C5683 H5675 0.950 . S
C5683 C5681 1.327 . S
C5684 C5672 1.349 . S
C5684 H5678 0.950 . S
C5684 C5685 1.327 . S
C5685 H5679 0.950 . S
C5685 C5684 1.327 . S
C5685 C5689 1.429 . S
C5686 C5669 1.574 . S
C5686 H5680 0.949 . S
C5686 C5690 1.368 . S
C5687 C5668 1.429 . S
C5687 C5681 1.429 . S
C5687 C5688 1.523 . S
C5688 C5669 1.368 . S
C5688 C5682 1.368 . S
C5688 C5687 1.523 . S
C5689 C5673 1.429 . S
C5689 C5685 1.429 . S
C5689 C5690 1.523 . S
C5690 C5674 1.368 . S
C5690 C5686 1.368 . S
C5690 C5689 1.523 . S
H5691 C5666 0.950 . S
H5692 C5668 0.950 . S
H5693 C5669 0.949 . S
H5694 C5671 0.950 . S
H5695 C5673 0.950 . S
C5696 C5697 1.349 . S
C5696 C5698 1.327 . S
C5696 H5721 0.950 . S
C5697 C5696 1.349 . S
C5697 C5713 1.349 . S
C5698 C5696 1.327 . S
C5698 C5717 1.429 . S
C5698 H5722 0.950 . S
C5699 C5716 1.574 . S
C5699 C5718 1.368 . S
C5699 H5723 0.949 . S
H5700 C5704 0.949 . S
C5701 C5702 1.349 . S
C5701 C5703 1.327 . S
C5701 H5724 0.950 . S
C5702 C5701 1.349 . S
C5702 C5714 1.349 . S
C5703 C5701 1.327 . S
C5703 C5719 1.429 . S
C5703 H5725 0.950 . S
C5704 H5700 0.949 . S
C5704 C5712 1.574 . S
C5704 C5720 1.368 . S
H5705 C5713 0.950 . S
H5706 C5711 0.950 . S
H5707 C5712 0.949 . S
H5708 C5714 0.950 . S
H5709 C5715 0.950 . S
H5710 C5716 0.949 . S
C5711 H5706 0.950 . S
C5711 C5713 1.327 . S
C5711 C5717 1.429 . S
C5712 C5704 1.574 . S
C5712 H5707 0.949 . S
C5712 C5718 1.368 . S
C5713 C5697 1.349 . S
C5713 H5705 0.950 . S
C5713 C5711 1.327 . S
C5714 C5702 1.349 . S
C5714 H5708 0.950 . S
C5714 C5715 1.327 . S
C5715 H5709 0.950 . S
C5715 C5714 1.327 . S
C5715 C5719 1.429 . S
C5716 C5699 1.574 . S
C5716 H5710 0.949 . S
C5716 C5720 1.368 . S
C5717 C5698 1.429 . S
C5717 C5711 1.429 . S
C5717 C5718 1.523 . S
C5718 C5699 1.368 . S
C5718 C5712 1.368 . S
C5718 C5717 1.523 . S
C5719 C5703 1.429 . S
C5719 C5715 1.429 . S
C5719 C5720 1.523 . S
C5720 C5704 1.368 . S
C5720 C5716 1.368 . S
C5720 C5719 1.523 . S
H5721 C5696 0.950 . S
H5722 C5698 0.950 . S
H5723 C5699 0.949 . S
H5724 C5701 0.950 . S
H5725 C5703 0.950 . S
C5726 C5727 1.349 . S
C5726 C5728 1.327 . S
C5726 H5751 0.950 . S
C5727 C5726 1.349 . S
C5727 C5743 1.349 . S
C5728 C5726 1.327 . S
C5728 C5747 1.429 . S
C5728 H5752 0.950 . S
C5729 C5746 1.574 . S
C5729 C5748 1.368 . S
C5729 H5753 0.949 . S
H5730 C5734 0.949 . S
C5731 C5732 1.349 . S
C5731 C5733 1.327 . S
C5731 H5754 0.950 . S
C5732 C5731 1.349 . S
C5732 C5744 1.349 . S
C5733 C5731 1.327 . S
C5733 C5749 1.429 . S
C5733 H5755 0.950 . S
C5734 H5730 0.949 . S
C5734 C5742 1.574 . S
C5734 C5750 1.368 . S
H5735 C5743 0.950 . S
H5736 C5741 0.950 . S
H5737 C5742 0.949 . S
H5738 C5744 0.950 . S
H5739 C5745 0.950 . S
H5740 C5746 0.949 . S
C5741 H5736 0.950 . S
C5741 C5743 1.327 . S
C5741 C5747 1.429 . S
C5742 C5734 1.574 . S
C5742 H5737 0.949 . S
C5742 C5748 1.368 . S
C5743 C5727 1.349 . S
C5743 H5735 0.950 . S
C5743 C5741 1.327 . S
C5744 C5732 1.349 . S
C5744 H5738 0.950 . S
C5744 C5745 1.327 . S
C5745 H5739 0.950 . S
C5745 C5744 1.327 . S
C5745 C5749 1.429 . S
C5746 C5729 1.574 . S
C5746 H5740 0.949 . S
C5746 C5750 1.368 . S
C5747 C5728 1.429 . S
C5747 C5741 1.429 . S
C5747 C5748 1.523 . S
C5748 C5729 1.368 . S
C5748 C5742 1.368 . S
C5748 C5747 1.523 . S
C5749 C5733 1.429 . S
C5749 C5745 1.429 . S
C5749 C5750 1.523 . S
C5750 C5734 1.368 . S
C5750 C5746 1.368 . S
C5750 C5749 1.523 . S
H5751 C5726 0.950 . S
H5752 C5728 0.950 . S
H5753 C5729 0.949 . S
H5754 C5731 0.950 . S
H5755 C5733 0.950 . S
C5756 C5757 1.349 . S
C5756 C5758 1.327 . S
C5756 H5781 0.950 . S
C5757 C5756 1.349 . S
C5757 C5773 1.349 . S
C5758 C5756 1.327 . S
C5758 C5777 1.429 . S
C5758 H5782 0.950 . S
C5759 C5776 1.574 . S
C5759 C5778 1.368 . S
C5759 H5783 0.949 . S
H5760 C5764 0.949 . S
C5761 C5762 1.349 . S
C5761 C5763 1.327 . S
C5761 H5784 0.950 . S
C5762 C5761 1.349 . S
C5762 C5774 1.349 . S
C5763 C5761 1.327 . S
C5763 C5779 1.429 . S
C5763 H5785 0.950 . S
C5764 H5760 0.949 . S
C5764 C5772 1.574 . S
C5764 C5780 1.368 . S
H5765 C5773 0.950 . S
H5766 C5771 0.950 . S
H5767 C5772 0.949 . S
H5768 C5774 0.950 . S
H5769 C5775 0.950 . S
H5770 C5776 0.949 . S
C5771 H5766 0.950 . S
C5771 C5773 1.327 . S
C5771 C5777 1.429 . S
C5772 C5764 1.574 . S
C5772 H5767 0.949 . S
C5772 C5778 1.368 . S
C5773 C5757 1.349 . S
C5773 H5765 0.950 . S
C5773 C5771 1.327 . S
C5774 C5762 1.349 . S
C5774 H5768 0.950 . S
C5774 C5775 1.327 . S
C5775 H5769 0.950 . S
C5775 C5774 1.327 . S
C5775 C5779 1.429 . S
C5776 C5759 1.574 . S
C5776 H5770 0.949 . S
C5776 C5780 1.368 . S
C5777 C5758 1.429 . S
C5777 C5771 1.429 . S
C5777 C5778 1.523 . S
C5778 C5759 1.368 . S
C5778 C5772 1.368 . S
C5778 C5777 1.523 . S
C5779 C5763 1.429 . S
C5779 C5775 1.429 . S
C5779 C5780 1.523 . S
C5780 C5764 1.368 . S
C5780 C5776 1.368 . S
C5780 C5779 1.523 . S
H5781 C5756 0.950 . S
H5782 C5758 0.950 . S
H5783 C5759 0.949 . S
H5784 C5761 0.950 . S
H5785 C5763 0.950 . S
C5786 C5787 1.349 . S
C5786 C5788 1.327 . S
C5786 H5811 0.950 . S
C5787 C5786 1.349 . S
C5787 C5803 1.349 . S
C5788 C5786 1.327 . S
C5788 C5807 1.429 . S
C5788 H5812 0.950 . S
C5789 C5806 1.574 . S
C5789 C5808 1.368 . S
C5789 H5813 0.949 . S
H5790 C5794 0.949 . S
C5791 C5792 1.349 . S
C5791 C5793 1.327 . S
C5791 H5814 0.950 . S
C5792 C5791 1.349 . S
C5792 C5804 1.349 . S
C5793 C5791 1.327 . S
C5793 C5809 1.429 . S
C5793 H5815 0.950 . S
C5794 H5790 0.949 . S
C5794 C5802 1.574 . S
C5794 C5810 1.368 . S
H5795 C5803 0.950 . S
H5796 C5801 0.950 . S
H5797 C5802 0.949 . S
H5798 C5804 0.950 . S
H5799 C5805 0.950 . S
H5800 C5806 0.949 . S
C5801 H5796 0.950 . S
C5801 C5803 1.327 . S
C5801 C5807 1.429 . S
C5802 C5794 1.574 . S
C5802 H5797 0.949 . S
C5802 C5808 1.368 . S
C5803 C5787 1.349 . S
C5803 H5795 0.950 . S
C5803 C5801 1.327 . S
C5804 C5792 1.349 . S
C5804 H5798 0.950 . S
C5804 C5805 1.327 . S
C5805 H5799 0.950 . S
C5805 C5804 1.327 . S
C5805 C5809 1.429 . S
C5806 C5789 1.574 . S
C5806 H5800 0.949 . S
C5806 C5810 1.368 . S
C5807 C5788 1.429 . S
C5807 C5801 1.429 . S
C5807 C5808 1.523 . S
C5808 C5789 1.368 . S
C5808 C5802 1.368 . S
C5808 C5807 1.523 . S
C5809 C5793 1.429 . S
C5809 C5805 1.429 . S
C5809 C5810 1.523 . S
C5810 C5794 1.368 . S
C5810 C5806 1.368 . S
C5810 C5809 1.523 . S
H5811 C5786 0.950 . S
H5812 C5788 0.950 . S
H5813 C5789 0.949 . S
H5814 C5791 0.950 . S
H5815 C5793 0.950 . S
C5816 C5817 1.349 . S
C5816 C5818 1.327 . S
C5816 H5841 0.950 . S
C5817 C5816 1.349 . S
C5817 C5833 1.349 . S
C5818 C5816 1.327 . S
C5818 C5837 1.429 . S
C5818 H5842 0.950 . S
C5819 C5836 1.574 . S
C5819 C5838 1.368 . S
C5819 H5843 0.949 . S
H5820 C5824 0.949 . S
C5821 C5822 1.349 . S
C5821 C5823 1.327 . S
C5821 H5844 0.950 . S
C5822 C5821 1.349 . S
C5822 C5834 1.349 . S
C5823 C5821 1.327 . S
C5823 C5839 1.429 . S
C5823 H5845 0.950 . S
C5824 H5820 0.949 . S
C5824 C5832 1.574 . S
C5824 C5840 1.368 . S
H5825 C5833 0.950 . S
H5826 C5831 0.950 . S
H5827 C5832 0.949 . S
H5828 C5834 0.950 . S
H5829 C5835 0.950 . S
H5830 C5836 0.949 . S
C5831 H5826 0.950 . S
C5831 C5833 1.327 . S
C5831 C5837 1.429 . S
C5832 C5824 1.574 . S
C5832 H5827 0.949 . S
C5832 C5838 1.368 . S
C5833 C5817 1.349 . S
C5833 H5825 0.950 . S
C5833 C5831 1.327 . S
C5834 C5822 1.349 . S
C5834 H5828 0.950 . S
C5834 C5835 1.327 . S
C5835 H5829 0.950 . S
C5835 C5834 1.327 . S
C5835 C5839 1.429 . S
C5836 C5819 1.574 . S
C5836 H5830 0.949 . S
C5836 C5840 1.368 . S
C5837 C5818 1.429 . S
C5837 C5831 1.429 . S
C5837 C5838 1.523 . S
C5838 C5819 1.368 . S
C5838 C5832 1.368 . S
C5838 C5837 1.523 . S
C5839 C5823 1.429 . S
C5839 C5835 1.429 . S
C5839 C5840 1.523 . S
C5840 C5824 1.368 . S
C5840 C5836 1.368 . S
C5840 C5839 1.523 . S
H5841 C5816 0.950 . S
H5842 C5818 0.950 . S
H5843 C5819 0.949 . S
H5844 C5821 0.950 . S
H5845 C5823 0.950 . S
C5846 C5847 1.349 . S
C5846 C5848 1.327 . S
C5846 H5871 0.950 . S
C5847 C5846 1.349 . S
C5847 C5863 1.349 . S
C5848 C5846 1.327 . S
C5848 C5867 1.429 . S
C5848 H5872 0.950 . S
C5849 C5866 1.574 . S
C5849 C5868 1.368 . S
C5849 H5873 0.949 . S
H5850 C5854 0.949 . S
C5851 C5852 1.349 . S
C5851 C5853 1.327 . S
C5851 H5874 0.950 . S
C5852 C5851 1.349 . S
C5852 C5864 1.349 . S
C5853 C5851 1.327 . S
C5853 C5869 1.429 . S
C5853 H5875 0.950 . S
C5854 H5850 0.949 . S
C5854 C5862 1.574 . S
C5854 C5870 1.368 . S
H5855 C5863 0.950 . S
H5856 C5861 0.950 . S
H5857 C5862 0.949 . S
H5858 C5864 0.950 . S
H5859 C5865 0.950 . S
H5860 C5866 0.949 . S
C5861 H5856 0.950 . S
C5861 C5863 1.327 . S
C5861 C5867 1.429 . S
C5862 C5854 1.574 . S
C5862 H5857 0.949 . S
C5862 C5868 1.368 . S
C5863 C5847 1.349 . S
C5863 H5855 0.950 . S
C5863 C5861 1.327 . S
C5864 C5852 1.349 . S
C5864 H5858 0.950 . S
C5864 C5865 1.327 . S
C5865 H5859 0.950 . S
C5865 C5864 1.327 . S
C5865 C5869 1.429 . S
C5866 C5849 1.574 . S
C5866 H5860 0.949 . S
C5866 C5870 1.368 . S
C5867 C5848 1.429 . S
C5867 C5861 1.429 . S
C5867 C5868 1.523 . S
C5868 C5849 1.368 . S
C5868 C5862 1.368 . S
C5868 C5867 1.523 . S
C5869 C5853 1.429 . S
C5869 C5865 1.429 . S
C5869 C5870 1.523 . S
C5870 C5854 1.368 . S
C5870 C5866 1.368 . S
C5870 C5869 1.523 . S
H5871 C5846 0.950 . S
H5872 C5848 0.950 . S
H5873 C5849 0.949 . S
H5874 C5851 0.950 . S
H5875 C5853 0.950 . S
C5876 C5877 1.349 . S
C5876 C5878 1.327 . S
C5876 H5901 0.950 . S
C5877 C5876 1.349 . S
C5877 C5893 1.349 . S
C5878 C5876 1.327 . S
C5878 C5897 1.429 . S
C5878 H5902 0.950 . S
C5879 C5896 1.574 . S
C5879 C5898 1.368 . S
C5879 H5903 0.949 . S
H5880 C5884 0.949 . S
C5881 C5882 1.349 . S
C5881 C5883 1.327 . S
C5881 H5904 0.950 . S
C5882 C5881 1.349 . S
C5882 C5894 1.349 . S
C5883 C5881 1.327 . S
C5883 C5899 1.429 . S
C5883 H5905 0.950 . S
C5884 H5880 0.949 . S
C5884 C5892 1.574 . S
C5884 C5900 1.368 . S
H5885 C5893 0.950 . S
H5886 C5891 0.950 . S
H5887 C5892 0.949 . S
H5888 C5894 0.950 . S
H5889 C5895 0.950 . S
H5890 C5896 0.949 . S
C5891 H5886 0.950 . S
C5891 C5893 1.327 . S
C5891 C5897 1.429 . S
C5892 C5884 1.574 . S
C5892 H5887 0.949 . S
C5892 C5898 1.368 . S
C5893 C5877 1.349 . S
C5893 H5885 0.950 . S
C5893 C5891 1.327 . S
C5894 C5882 1.349 . S
C5894 H5888 0.950 . S
C5894 C5895 1.327 . S
C5895 H5889 0.950 . S
C5895 C5894 1.327 . S
C5895 C5899 1.429 . S
C5896 C5879 1.574 . S
C5896 H5890 0.949 . S
C5896 C5900 1.368 . S
C5897 C5878 1.429 . S
C5897 C5891 1.429 . S
C5897 C5898 1.523 . S
C5898 C5879 1.368 . S
C5898 C5892 1.368 . S
C5898 C5897 1.523 . S
C5899 C5883 1.429 . S
C5899 C5895 1.429 . S
C5899 C5900 1.523 . S
C5900 C5884 1.368 . S
C5900 C5896 1.368 . S
C5900 C5899 1.523 . S
H5901 C5876 0.950 . S
H5902 C5878 0.950 . S
H5903 C5879 0.949 . S
H5904 C5881 0.950 . S
H5905 C5883 0.950 . S
C5906 C5907 1.349 . S
C5906 C5908 1.327 . S
C5906 H5931 0.950 . S
C5907 C5906 1.349 . S
C5907 C5923 1.349 . S
C5908 C5906 1.327 . S
C5908 C5927 1.429 . S
C5908 H5932 0.950 . S
C5909 C5926 1.574 . S
C5909 C5928 1.368 . S
C5909 H5933 0.949 . S
H5910 C5914 0.949 . S
C5911 C5912 1.349 . S
C5911 C5913 1.327 . S
C5911 H5934 0.950 . S
C5912 C5911 1.349 . S
C5912 C5924 1.349 . S
C5913 C5911 1.327 . S
C5913 C5929 1.429 . S
C5913 H5935 0.950 . S
C5914 H5910 0.949 . S
C5914 C5922 1.574 . S
C5914 C5930 1.368 . S
H5915 C5923 0.950 . S
H5916 C5921 0.950 . S
H5917 C5922 0.949 . S
H5918 C5924 0.950 . S
H5919 C5925 0.950 . S
H5920 C5926 0.949 . S
C5921 H5916 0.950 . S
C5921 C5923 1.327 . S
C5921 C5927 1.429 . S
C5922 C5914 1.574 . S
C5922 H5917 0.949 . S
C5922 C5928 1.368 . S
C5923 C5907 1.349 . S
C5923 H5915 0.950 . S
C5923 C5921 1.327 . S
C5924 C5912 1.349 . S
C5924 H5918 0.950 . S
C5924 C5925 1.327 . S
C5925 H5919 0.950 . S
C5925 C5924 1.327 . S
C5925 C5929 1.429 . S
C5926 C5909 1.574 . S
C5926 H5920 0.949 . S
C5926 C5930 1.368 . S
C5927 C5908 1.429 . S
C5927 C5921 1.429 . S
C5927 C5928 1.523 . S
C5928 C5909 1.368 . S
C5928 C5922 1.368 . S
C5928 C5927 1.523 . S
C5929 C5913 1.429 . S
C5929 C5925 1.429 . S
C5929 C5930 1.523 . S
C5930 C5914 1.368 . S
C5930 C5926 1.368 . S
C5930 C5929 1.523 . S
H5931 C5906 0.950 . S
H5932 C5908 0.950 . S
H5933 C5909 0.949 . S
H5934 C5911 0.950 . S
H5935 C5913 0.950 . S
C3062 C1331 1.048 . S
C3057 C21 1.037 . S
C3092 C1405 1.123 . S
C3087 C42 1.097 . S
C3117 C82 1.569 . S
C3122 C1497 1.570 . S
C3152 C1565 1.889 . S
C3147 C135 1.920 . S
C3177 C175 1.698 . S
C3182 C1571 1.700 . S
C3207 C221 1.969 . S
C3212 C1319 1.889 . S
C3237 C255 1.694 . S
C3242 C1393 1.636 . S
C3272 C1491 2.143 . S
C3267 C301 2.079 . S
C3302 C1627 0.768 . S
C3297 C15 0.768 . S
C3327 C55 0.855 . S
C3332 C1701 0.855 . S
C3357 C101 1.561 . S
C3362 C1787 1.546 . S
C3392 C1849 1.977 . S
C3387 C141 1.899 . S
C3417 C162 1.546 . S
C3422 C1923 1.533 . S
C3452 C2009 1.540 . S
C3447 C215 1.516 . S
C3477 C261 1.628 . S
C3482 C2059 1.602 . S
C3512 C2157 1.930 . S
C3507 C282 1.875 . S
C3537 C2 0.882 . S
C3542 C1837 0.883 . S
C3567 C181 1.708 . S
C3572 C2015 1.682 . S
C3602 C2071 1.658 . S
C3597 C202 1.650 . S
C3627 C242 2.002 . S
C3632 C2163 1.994 . S
C3662 C1911 2.095 . S
C3657 C295 2.113 . S
C3692 C1689 1.732 . S
C3687 C95 1.797 . S
C3717 C122 1.950 . S
C3722 C1793 2.026 . S
C3752 C1615 1.233 . S
C3747 C61 1.251 . S
C3782 C2207 2.538 . S
C3777 C341 2.605 . S
C3807 C362 1.466 . S
C3812 C2281 1.444 . S
C3837 C402 2.246 . S
C3842 C2385 2.247 . S
C3872 C2429 1.683 . S
C3867 C455 1.785 . S
C3897 C495 1.211 . S
C3902 C2441 1.236 . S
C3927 C541 1.612 . S
C3932 C2219 1.655 . S
C3957 C575 1.645 . S
C3962 C2293 1.658 . S
C3987 C621 1.645 . S
C3992 C2379 1.698 . S
C4022 C1935 2.140 . S
C4017 C335 2.105 . S
C4047 C375 1.585 . S
C4052 C2515 1.555 . S
C4082 C2089 1.988 . S
C4077 C421 1.989 . S
C4107 C461 1.919 . S
C4112 C2607 1.941 . S
C4137 C482 1.031 . S
C4142 C1639 1.029 . S
C4172 C2651 1.061 . S
C4167 C535 1.064 . S
C4197 C581 1.486 . S
C4202 C1775 1.556 . S
C4232 C2749 1.803 . S
C4227 C602 1.713 . S
C4257 C322 2.044 . S
C4262 C2601 2.034 . S
C4292 C2663 1.562 . S
C4287 C501 1.570 . S
C4317 C522 1.317 . S
C4322 C1763 1.360 . S
C4352 C2755 1.723 . S
C4347 C562 1.633 . S
C4377 C615 2.191 . S
C4382 C1645 2.223 . S
C4407 C415 1.994 . S
C4412 C2503 1.969 . S
C4437 C442 1.650 . S
C4442 C2083 1.649 . S
C4467 C381 1.692 . S
C4472 C1941 1.689 . S
C4497 C661 1.459 . S
C4502 C2355 1.409 . S
C4532 C2459 2.179 . S
C4527 C682 2.123 . S
C4557 C722 2.046 . S
C4562 C2237 2.040 . S
C4587 C775 2.272 . S
C4592 C2311 2.256 . S
C4617 C815 1.670 . S
C4622 C2305 1.658 . S
C4647 C861 1.447 . S
C4652 C2367 1.446 . S
C4682 C2453 1.766 . S
C4677 C895 1.812 . S
C4707 C941 1.683 . S
C4712 C2231 1.801 . S
C4742 C2823 1.243 . S
C4737 C655 1.260 . S
C4767 C695 1.637 . S
C4772 C1997 1.635 . S
C4802 C2903 1.851 . S
C4797 C741 1.837 . S
C4827 C781 1.699 . S
C4832 C2145 1.760 . S
C4857 C802 1.885 . S
C4862 C2977 1.895 . S
C4887 C855 1.140 . S
C4892 C1713 1.117 . S
C4922 C3033 1.710 . S
C4917 C901 1.663 . S
C4947 C922 2.135 . S
C4952 C1861 2.282 . S
C4982 C2133 1.462 . S
C4977 C642 1.489 . S
C5012 C1719 2.282 . S
C5007 C821 2.304 . S
C5037 C842 1.750 . S
C5042 C3021 1.673 . S
C5067 C882 1.894 . S
C5072 C1867 1.940 . S
C5102 C2971 2.287 . S
C5097 C935 2.224 . S
C5132 C1985 1.814 . S
C5127 C735 1.829 . S
C5162 C2897 1.971 . S
C5157 C762 1.934 . S
C5192 C2829 2.057 . S
C5187 C701 2.005 . S
C5217 C981 1.750 . S
C5222 C1467 1.811 . S
C5247 C1002 1.217 . S
C5252 C1553 1.277 . S
C5282 C1343 1.856 . S
C5277 C1042 1.873 . S
C5312 C1417 1.615 . S
C5307 C1095 1.635 . S
C5342 C1423 1.812 . S
C5337 C1135 1.821 . S
C5372 C1479 1.792 . S
C5367 C1181 1.784 . S
C5402 C1541 1.163 . S
C5397 C1215 1.213 . S
C5427 C1261 2.037 . S
C5432 C1349 2.042 . S
C5457 C975 1.463 . S
C5462 C2947 1.469 . S
C5492 C2681 1.712 . S
C5487 C1015 1.676 . S
C5522 C3045 2.113 . S
C5517 C1061 2.106 . S
C5552 C2737 1.767 . S
C5547 C1101 1.703 . S
C5577 C1122 1.494 . S
C5582 C2811 1.477 . S
C5612 C2527 1.376 . S
C5607 C1175 1.334 . S
C5642 C2873 1.177 . S
C5637 C1221 1.207 . S
C5667 C1242 1.728 . S
C5672 C2577 1.716 . S
C5702 C2725 1.870 . S
C5697 C962 1.795 . S
C5732 C2533 1.885 . S
C5727 C1141 1.933 . S
C5762 C2885 1.811 . S
C5757 C1162 1.796 . S
C5787 C1202 1.253 . S
C5792 C2589 1.239 . S
C5817 C1255 1.647 . S
C5822 C2799 1.636 . S
C5847 C1055 2.161 . S
C5852 C2675 2.213 . S
C5877 C1082 2.117 . S
C5882 C3051 2.186 . S
C5912 C2959 1.649 . S
C5907 C1021 1.568 . S
