# Generated by pormake.
# Topology pth, (4,4)-cn, num edge types: 1
# Building blocks:
#     Node 0, Type 0, BuildingBlock: CEKHIL_clean_sbu_0, # of connection points: 4
#     Node 1, Type 0, BuildingBlock: CEKHIL_clean_sbu_0, # of connection points: 4
#     Node 2, Type 0, BuildingBlock: CEKHIL_clean_sbu_0, # of connection points: 4
#     Node 3, Type 1, BuildingBlock: NAWXER_clean_linker_0, # of connection points: 4
#     Node 4, Type 1, BuildingBlock: NAWXER_clean_linker_0, # of connection points: 4
#     Node 5, Type 1, BuildingBlock: NAWXER_clean_linker_0, # of connection points: 4
#     Edge 6, Type (0, 1), BuildingBlock: FUNLAD_clean_linker_0, # of connection points: 2
#     Edge 7, Type (0, 1), BuildingBlock: FUNLAD_clean_linker_0, # of connection points: 2
#     Edge 8, Type (0, 1), BuildingBlock: FUNLAD_clean_linker_0, # of connection points: 2
#     Edge 9, Type (0, 1), BuildingBlock: FUNLAD_clean_linker_0, # of connection points: 2
#     Edge 10, Type (0, 1), BuildingBlock: FUNLAD_clean_linker_0, # of connection points: 2
#     Edge 11, Type (0, 1), BuildingBlock: FUNLAD_clean_linker_0, # of connection points: 2
#     Edge 12, Type (0, 1), BuildingBlock: FUNLAD_clean_linker_0, # of connection points: 2
#     Edge 13, Type (0, 1), BuildingBlock: FUNLAD_clean_linker_0, # of connection points: 2
#     Edge 14, Type (0, 1), BuildingBlock: FUNLAD_clean_linker_0, # of connection points: 2
#     Edge 15, Type (0, 1), BuildingBlock: FUNLAD_clean_linker_0, # of connection points: 2
#     Edge 16, Type (0, 1), BuildingBlock: FUNLAD_clean_linker_0, # of connection points: 2
#     Edge 17, Type (0, 1), BuildingBlock: FUNLAD_clean_linker_0, # of connection points: 2
# Relax obj value: 0.006
# Max RMSD: 0.048
# Mean RMSD: 0.037
data_MOF--net-pth--node1-CEKHIL_clean_sbu_0--node2-NAWXER_clean_linker_0--edge1-FUNLAD_clean_linker_0
_symmetry_space_group_name_H-M    P1
_symmetry_Int_Tables_number       1
_symmetry_cell_setting            triclinic
loop_
_symmetry_equiv_pos_as_xyz
'x, y, z'
_cell_length_a     32.465151
_cell_length_b     32.545793
_cell_length_c     75.213111
_cell_angle_alpha  90.949372
_cell_angle_beta   89.978072
_cell_angle_gamma 120.30395
loop_
_atom_site_label
_atom_site_type_symbol
_atom_site_fract_x
_atom_site_fract_y
_atom_site_fract_z
_atom_type_partial_charge
Co0 Co 0.01214 0.02756 0.06655 0.0
O1 O 0.98258 0.97843 0.08383 0.0
O2 O 0.04348 0.99016 0.06704 0.0
C3 C 0.0176 0.0868 0.08428 0.0
O4 O 0.05275 0.07574 0.04776 0.0
Co5 Co 0.95899 0.07804 0.05316 0.0
O6 O 0.02029 0.12066 0.04131 0.0
C7 C 0.92688 0.97976 0.04132 0.0
C8 C 0.01333 0.96586 0.07943 0.0
C9 C 0.05356 0.11089 0.03976 0.0
O10 O 0.96524 0.98343 0.04788 0.0
O11 O 0.91545 0.01183 0.04353 0.0
O12 O 0.04959 0.07412 0.08517 0.0
O13 O 0.98159 0.06076 0.07394 0.0
Co14 Co 0.99697 0.03372 0.38564 0.0
O15 O 0.96578 0.05291 0.36877 0.0
O16 O 0.0266 0.10256 0.38596 0.0
C17 C 0.00386 0.98218 0.36714 0.0
O18 O 0.03926 0.02673 0.40408 0.0
Co19 Co 0.9475 0.92849 0.39757 0.0
O20 O 0.01048 0.94874 0.40851 0.0
C21 C 0.91687 0.99278 0.41296 0.0
C22 C 0.99611 0.09648 0.37349 0.0
C23 C 0.0422 0.99231 0.41103 0.0
O24 O 0.9505 0.02814 0.40468 0.0
O25 O 0.90799 0.9499 0.41096 0.0
O26 O 0.0346 0.02745 0.36667 0.0
O27 O 0.9679 0.97024 0.37747 0.0
Co28 Co 0.99945 0.02518 0.72042 0.0
O29 O 0.05032 0.05831 0.70378 0.0
O30 O 0.03632 0.9936 0.71809 0.0
C31 C 0.94166 0.02439 0.70343 0.0
O32 O 0.94977 0.9805 0.7381 0.0
Co33 Co 0.94697 0.07397 0.73685 0.0
O34 O 0.90332 0.01017 0.74649 0.0
C35 C 0.04392 0.102 0.74945 0.0
C36 C 0.06202 0.02634 0.70673 0.0
C37 C 0.91372 0.97728 0.74655 0.0
O38 O 0.04234 0.06731 0.74039 0.0
O39 O 0.0111 0.1128 0.74867 0.0
O40 O 0.95409 0.99255 0.70093 0.0
O41 O 0.96703 0.0576 0.71495 0.0
C42 C 0.01801 0.40703 0.26149 0.0
C43 C 0.05286 0.42189 0.275 0.0
C44 C 0.01979 0.43938 0.24906 0.0
C45 C 0.05653 0.48722 0.24987 0.0
C46 C 0.08976 0.46973 0.2757 0.0
C47 C 0.09131 0.50212 0.26335 0.0
C48 C 0.05687 0.52268 0.23767 0.0
C49 C 0.08408 0.42572 0.20206 0.0
C50 C 0.05002 0.40241 0.18841 0.0
C51 C 0.08393 0.46178 0.21239 0.0
C52 C 0.04951 0.47498 0.20936 0.0
C53 C 0.01539 0.41546 0.18554 0.0
C54 C 0.01533 0.45153 0.19584 0.0
C55 C 0.05125 0.51585 0.21903 0.0
C56 C 0.08816 0.70545 0.19323 0.0
C57 C 0.05309 0.68999 0.17977 0.0
C58 C 0.08791 0.67316 0.20535 0.0
C59 C 0.05245 0.62481 0.20429 0.0
C60 C 0.01792 0.64151 0.17868 0.0
C61 C 0.01782 0.60926 0.19074 0.0
C62 C 0.05265 0.58966 0.21652 0.0
C63 C 0.02238 0.68537 0.25117 0.0
C64 C 0.05462 0.70818 0.26537 0.0
C65 C 0.02367 0.64949 0.24115 0.0
C66 C 0.05789 0.63639 0.24487 0.0
C67 C 0.08865 0.69488 0.26913 0.0
C68 C 0.09018 0.65929 0.25901 0.0
C69 C 0.0578 0.5963 0.23519 0.0
H70 H 0.98927 0.37037 0.26055 0.0
H71 H 0.99184 0.42721 0.23906 0.0
H72 H 0.11677 0.48241 0.28607 0.0
H73 H 0.11962 0.53898 0.26438 0.0
H74 H 0.11108 0.41632 0.20467 0.0
H75 H 0.1115 0.48015 0.22242 0.0
H76 H 0.98911 0.39875 0.17497 0.0
H77 H 0.9888 0.4615 0.1931 0.0
H78 H 0.11561 0.74259 0.19447 0.0
H79 H 0.11575 0.68588 0.2154 0.0
H80 H 0.99084 0.62832 0.16832 0.0
H81 H 0.99049 0.57205 0.18951 0.0
H82 H 0.99519 0.69425 0.24817 0.0
H83 H 0.9971 0.63121 0.23079 0.0
H84 H 0.11417 0.71204 0.2799 0.0
H85 H 0.11656 0.64949 0.26227 0.0
N86 N 0.06005 0.56269 0.24497 0.0
N87 N 0.04926 0.54956 0.20924 0.0
C88 C 0.66155 0.07621 0.5295 0.0
C89 C 0.649 0.04768 0.51397 0.0
C90 C 0.62627 0.07255 0.54116 0.0
C91 C 0.57787 0.03936 0.53773 0.0
C92 C 0.60066 0.01488 0.51049 0.0
C93 C 0.56555 0.01076 0.52224 0.0
C94 C 0.53936 0.03638 0.54927 0.0
C95 C 0.62607 0.99952 0.58534 0.0
C96 C 0.64667 0.03008 0.6002 0.0
C97 C 0.59239 0.00253 0.57472 0.0
C98 C 0.57911 0.03664 0.57858 0.0
C99 C 0.63307 0.06399 0.60409 0.0
C100 C 0.59948 0.06706 0.59343 0.0
C101 C 0.54135 0.03827 0.56807 0.0
C102 C 0.3448 0.98443 0.59054 0.0
C103 C 0.35409 0.01937 0.60374 0.0
C104 C 0.38059 0.98973 0.57883 0.0
C105 C 0.42648 0.02993 0.58012 0.0
C106 C 0.40007 0.05994 0.60474 0.0
C107 C 0.43596 0.06484 0.5932 0.0
C108 C 0.46564 0.03401 0.56885 0.0
C109 C 0.36678 0.05176 0.53109 0.0
C110 C 0.34891 0.01811 0.517 0.0
C111 C 0.40313 0.05546 0.54224 0.0
C112 C 0.4221 0.02544 0.53951 0.0
C113 C 0.36809 0.98824 0.51435 0.0
C114 C 0.40431 0.992 0.52542 0.0
C115 C 0.46301 0.03071 0.55011 0.0
H116 H 0.69854 0.10221 0.53238 0.0
H117 H 0.63683 0.09638 0.55262 0.0
H118 H 0.59001 0.99214 0.4987 0.0
H119 H 0.52855 0.98514 0.51917 0.0
H120 H 0.63501 0.97238 0.58218 0.0
H121 H 0.57599 0.97747 0.56372 0.0
H122 H 0.64854 0.08832 0.61535 0.0
H123 H 0.5894 0.09328 0.59679 0.0
H124 H 0.31025 0.95229 0.58952 0.0
H125 H 0.3728 0.96178 0.56909 0.0
H126 H 0.40849 0.08808 0.61445 0.0
H127 H 0.47123 0.09602 0.59446 0.0
H128 H 0.35268 0.07522 0.5335 0.0
H129 H 0.4171 0.08247 0.5527 0.0
H130 H 0.35585 0.96256 0.50343 0.0
H131 H 0.41875 0.96886 0.52289 0.0
N132 N 0.50004 0.03221 0.54113 0.0
N133 N 0.50469 0.03765 0.57708 0.0
C134 C 0.38667 0.35158 0.86786 0.0
C135 C 0.36121 0.36579 0.85687 0.0
C136 C 0.42612 0.38539 0.87779 0.0
C137 C 0.44074 0.43396 0.87688 0.0
C138 C 0.37618 0.41444 0.85595 0.0
C139 C 0.41569 0.44815 0.86576 0.0
C140 C 0.48335 0.47066 0.88671 0.0
C141 C 0.37516 0.38732 0.9284 0.0
C142 C 0.38892 0.36326 0.94023 0.0
C143 C 0.40819 0.42101 0.91684 0.0
C144 C 0.45568 0.43116 0.91671 0.0
C145 C 0.43666 0.37383 0.94018 0.0
C146 C 0.46973 0.40766 0.92861 0.0
C147 C 0.49133 0.46838 0.90503 0.0
C148 C 0.65358 0.66506 0.92236 0.0
C149 C 0.67663 0.65367 0.93554 0.0
C150 C 0.61767 0.62923 0.91175 0.0
C151 C 0.60515 0.5814 0.91371 0.0
C152 C 0.66377 0.60587 0.93767 0.0
C153 C 0.62845 0.57013 0.92684 0.0
C154 C 0.56489 0.54248 0.90346 0.0
C155 C 0.66867 0.63724 0.86163 0.0
C156 C 0.6495 0.65692 0.85001 0.0
C157 C 0.63898 0.6009 0.87318 0.0
C158 C 0.58965 0.58387 0.87341 0.0
C159 C 0.60001 0.63908 0.8501 0.0
C160 C 0.57051 0.60297 0.86161 0.0
C161 C 0.55687 0.54457 0.88507 0.0
H162 H 0.3759 0.31433 0.86886 0.0
H163 H 0.44553 0.37366 0.88598 0.0
H164 H 0.35778 0.42658 0.8474 0.0
H165 H 0.42661 0.48545 0.86471 0.0
H166 H 0.33907 0.38101 0.92836 0.0
H167 H 0.39676 0.43983 0.90825 0.0
H168 H 0.44845 0.35578 0.949 0.0
H169 H 0.50631 0.41531 0.92888 0.0
H170 H 0.66218 0.70154 0.9207 0.0
H171 H 0.5989 0.63894 0.90236 0.0
H172 H 0.68101 0.59615 0.94773 0.0
H173 H 0.619 0.53351 0.92883 0.0
H174 H 0.70664 0.6502 0.8619 0.0
H175 H 0.65451 0.58593 0.88182 0.0
H176 H 0.58384 0.65262 0.84109 0.0
H177 H 0.53252 0.59003 0.86134 0.0
N178 N 0.5163 0.50868 0.87754 0.0
N179 N 0.5319 0.50422 0.91264 0.0
C180 C 0.05675 0.14923 0.1082 0.0
C181 C 0.02052 0.12619 0.09532 0.0
C182 C 0.05775 0.18428 0.11951 0.0
C183 C 0.02271 0.19749 0.11802 0.0
C184 C 0.98693 0.17478 0.10493 0.0
C185 C 0.98582 0.13957 0.09369 0.0
C186 C 0.02064 0.23285 0.13028 0.0
C187 C 0.05711 0.26389 0.14084 0.0
C188 C 0.05408 0.29842 0.15323 0.0
C189 C 0.09643 0.33931 0.15879 0.0
C190 C 0.09521 0.37273 0.17036 0.0
C191 C 0.05151 0.36586 0.17675 0.0
H192 H 0.97704 0.25907 0.15662 0.0
C193 C 0.00916 0.3244 0.17152 0.0
C194 C 0.01038 0.29094 0.15997 0.0
H195 H 0.975 0.31758 0.1765 0.0
H196 H 0.08377 0.13938 0.10987 0.0
H197 H 0.08531 0.19967 0.12964 0.0
H198 H 0.95933 0.18395 0.10348 0.0
H199 H 0.95738 0.12241 0.0839 0.0
H200 H 0.98779 0.23399 0.13015 0.0
H201 H 0.09142 0.26591 0.13996 0.0
H202 H 0.13063 0.34581 0.15397 0.0
H203 H 0.12846 0.40448 0.17399 0.0
C204 C 0.88805 0.0451 0.42641 0.0
C205 C 0.88821 0.00194 0.4261 0.0
C206 C 0.8615 0.0535 0.43915 0.0
C207 C 0.83498 0.01902 0.45192 0.0
C208 C 0.83575 0.97634 0.45172 0.0
C209 C 0.86162 0.96767 0.43889 0.0
C210 C 0.8068 0.02638 0.46585 0.0
C211 C 0.78555 0.05227 0.46341 0.0
C212 C 0.75278 0.05418 0.47675 0.0
C213 C 0.71308 0.05655 0.47083 0.0
C214 C 0.67972 0.05503 0.48294 0.0
C215 C 0.68591 0.05207 0.50128 0.0
H216 H 0.79076 0.05215 0.50019 0.0
C217 C 0.72675 0.05186 0.5073 0.0
C218 C 0.75983 0.05273 0.49515 0.0
H219 H 0.73245 0.04973 0.52136 0.0
H220 H 0.90838 0.07236 0.41681 0.0
H221 H 0.86254 0.08727 0.43917 0.0
H222 H 0.81589 0.94933 0.46146 0.0
H223 H 0.86129 0.93424 0.4392 0.0
H224 H 0.79987 0.0062 0.47796 0.0
H225 H 0.7883 0.06853 0.45064 0.0
H226 H 0.70711 0.05818 0.45675 0.0
H227 H 0.64889 0.05595 0.47796 0.0
C228 C 0.84825 0.93369 0.76845 0.0
C229 C 0.88437 0.9351 0.75768 0.0
C230 C 0.82212 0.89577 0.77978 0.0
C231 C 0.83078 0.85757 0.7805 0.0
C232 C 0.86679 0.85884 0.76973 0.0
C233 C 0.89324 0.89708 0.75841 0.0
C234 C 0.80456 0.81725 0.79292 0.0
C235 C 0.76162 0.8055 0.79978 0.0
C236 C 0.73546 0.76764 0.81305 0.0
C237 C 0.69877 0.76856 0.82262 0.0
C238 C 0.67182 0.73334 0.83484 0.0
C239 C 0.68046 0.6958 0.83774 0.0
H240 H 0.77198 0.72771 0.80881 0.0
C241 C 0.71758 0.695 0.82836 0.0
C242 C 0.74477 0.73047 0.81611 0.0
H243 H 0.72474 0.66621 0.83011 0.0
H244 H 0.84068 0.96251 0.76847 0.0
H245 H 0.79622 0.89761 0.78827 0.0
H246 H 0.87465 0.83022 0.77011 0.0
H247 H 0.92094 0.89703 0.75039 0.0
H248 H 0.82166 0.79724 0.79651 0.0
H249 H 0.74441 0.8251 0.79577 0.0
H250 H 0.6908 0.79674 0.82063 0.0
H251 H 0.64408 0.73557 0.84203 0.0
C252 C 0.05511 0.92242 0.08899 0.0
C253 C 0.014 0.92642 0.08863 0.0
C254 C 0.05619 0.8871 0.09908 0.0
C255 C 0.01587 0.85488 0.10879 0.0
C256 C 0.97433 0.85786 0.10777 0.0
C257 C 0.97354 0.8935 0.09799 0.0
C258 C 0.01528 0.8176 0.12011 0.0
C259 C 0.05391 0.82312 0.12897 0.0
C260 C 0.05241 0.78793 0.14183 0.0
C261 C 0.09539 0.7906 0.14686 0.0
C262 C 0.09577 0.75905 0.1592 0.0
C263 C 0.05308 0.72408 0.16684 0.0
H264 H 0.97595 0.75088 0.14691 0.0
C265 C 0.01014 0.72171 0.16199 0.0
C266 C 0.00975 0.75333 0.14974 0.0
H267 H 0.97677 0.69585 0.16793 0.0
H268 H 0.08676 0.94727 0.08185 0.0
H269 H 0.08842 0.88501 0.09919 0.0
H270 H 0.94265 0.83324 0.11496 0.0
H271 H 0.94119 0.89543 0.09785 0.0
H272 H 0.98086 0.78581 0.1219 0.0
H273 H 0.08814 0.8552 0.12705 0.0
H274 H 0.12887 0.81709 0.14116 0.0
H275 H 0.12945 0.76164 0.16256 0.0
C276 C 0.08169 0.9658 0.43286 0.0
C277 C 0.08243 0.00291 0.42328 0.0
C278 C 0.11791 0.97485 0.44496 0.0
C279 C 0.15667 0.0213 0.44766 0.0
C280 C 0.1574 0.05859 0.4382 0.0
C281 C 0.12072 0.04953 0.4261 0.0
C282 C 0.1955 0.0319 0.46074 0.0
C283 C 0.20623 0.99875 0.4658 0.0
C284 C 0.24229 0.00592 0.47959 0.0
C285 C 0.2407 0.96528 0.48645 0.0
C286 C 0.27442 0.96933 0.49891 0.0
C287 C 0.31105 0.01428 0.50478 0.0
H288 H 0.28158 0.0834 0.4806 0.0
C289 C 0.31235 0.05514 0.49821 0.0
C290 C 0.2784 0.05109 0.48571 0.0
H291 H 0.34052 0.09031 0.50229 0.0
H292 H 0.05248 0.9295 0.43133 0.0
H293 H 0.11444 0.94522 0.45246 0.0
H294 H 0.18645 0.09482 0.44015 0.0
H295 H 0.12231 0.07903 0.41904 0.0
H296 H 0.21521 0.06778 0.46626 0.0
H297 H 0.1871 0.96349 0.45969 0.0
H298 H 0.21325 0.93 0.4821 0.0
H299 H 0.27189 0.93711 0.50389 0.0
C300 C 0.08751 0.16843 0.77175 0.0
C301 C 0.08497 0.1304 0.76169 0.0
C302 C 0.12541 0.19487 0.78354 0.0
C303 C 0.16171 0.18373 0.78571 0.0
C304 C 0.1598 0.14641 0.7754 0.0
C305 C 0.12176 0.11985 0.76358 0.0
C306 C 0.20288 0.21161 0.79803 0.0
C307 C 0.20041 0.23532 0.8125 0.0
C308 C 0.24178 0.26672 0.82424 0.0
C309 C 0.23966 0.30212 0.83443 0.0
C310 C 0.2781 0.33374 0.84519 0.0
C311 C 0.31949 0.33039 0.84617 0.0
H312 H 0.28534 0.23484 0.81837 0.0
C313 C 0.32117 0.29398 0.83646 0.0
C314 C 0.28273 0.26245 0.82558 0.0
H315 H 0.35263 0.29053 0.83696 0.0
H316 H 0.06023 0.17808 0.77053 0.0
H317 H 0.1264 0.22454 0.79063 0.0
H318 H 0.18761 0.13747 0.77662 0.0
H319 H 0.12118 0.09101 0.75597 0.0
H320 H 0.23599 0.21262 0.79489 0.0
H321 H 0.16685 0.23339 0.81565 0.0
H322 H 0.20841 0.30595 0.83384 0.0
H323 H 0.27542 0.36092 0.85274 0.0
C324 C 0.87796 0.98939 0.67986 0.0
C325 C 0.90239 0.02388 0.69329 0.0
C326 C 0.84252 0.99047 0.66964 0.0
C327 C 0.83092 0.02628 0.67263 0.0
C328 C 0.8544 0.05979 0.68642 0.0
C329 C 0.88991 0.05879 0.69659 0.0
C330 C 0.79425 0.02955 0.66186 0.0
C331 C 0.78226 0.01231 0.64505 0.0
C332 C 0.74716 0.01738 0.63395 0.0
C333 C 0.74905 0.01374 0.61536 0.0
C334 C 0.71671 0.01809 0.60442 0.0
C335 C 0.68142 0.0259 0.61181 0.0
H336 H 0.70751 0.02596 0.65561 0.0
C337 C 0.67911 0.029 0.63042 0.0
C338 C 0.71142 0.0246 0.64137 0.0
H339 H 0.65166 0.0339 0.63656 0.0
H340 H 0.8865 0.96176 0.67712 0.0
H341 H 0.82416 0.96298 0.65957 0.0
H342 H 0.84584 0.08742 0.68916 0.0
H343 H 0.9079 0.08571 0.70691 0.0
H344 H 0.77906 0.04964 0.66767 0.0
H345 H 0.80077 0.99612 0.6387 0.0
H346 H 0.77596 0.00791 0.60926 0.0
H347 H 0.71969 0.01584 0.59013 0.0
C348 C 0.91215 0.91053 0.02161 0.0
C349 C 0.8947 0.93699 0.03045 0.0
C350 C 0.88186 0.87119 0.01082 0.0
C351 C 0.83338 0.85716 0.00892 0.0
C352 C 0.81573 0.88275 0.01816 0.0
C353 C 0.84615 0.92262 0.02862 0.0
C354 C 0.80011 0.81552 0.9977 0.0
C355 C 0.81312 0.80425 0.98221 0.0
C356 C 0.77858 0.76467 0.97045 0.0
C357 C 0.78307 0.76955 0.95194 0.0
C358 C 0.75002 0.7335 0.94056 0.0
C359 C 0.71255 0.69137 0.94752 0.0
H360 H 0.73767 0.71694 0.99163 0.0
C361 C 0.70891 0.68584 0.96604 0.0
C362 C 0.74145 0.72222 0.97741 0.0
H363 H 0.6803 0.65373 0.97174 0.0
H364 H 0.94937 0.92067 0.02279 0.0
H365 H 0.89627 0.85149 0.00416 0.0
H366 H 0.77843 0.87237 0.01703 0.0
H367 H 0.83152 0.94198 0.03539 0.0
H368 H 0.76291 0.79593 1.00164 0.0
H369 H 0.84907 0.8269 0.97732 0.0
H370 H 0.81162 0.80176 0.94626 0.0
H371 H 0.75382 0.73843 0.92632 0.0
C372 C 0.04636 0.9617 0.34404 0.0
C373 C 0.00985 0.9468 0.35665 0.0
C374 C 0.05138 0.92833 0.33377 0.0
C375 C 0.01994 0.87928 0.33593 0.0
C376 C 0.98418 0.86446 0.34882 0.0
C377 C 0.9789 0.89784 0.35899 0.0
C378 C 0.02425 0.84275 0.3253 0.0
C379 C 0.04167 0.85018 0.30866 0.0
C380 C 0.04497 0.81329 0.29787 0.0
C381 C 0.04292 0.81446 0.27925 0.0
C382 C 0.04592 0.78033 0.26869 0.0
C383 C 0.05185 0.74474 0.27653 0.0
H384 H 0.05448 0.77668 0.32001 0.0
C385 C 0.05479 0.74407 0.29516 0.0
C386 C 0.05139 0.77795 0.30573 0.0
H387 H 0.05917 0.71697 0.3016 0.0
H388 H 0.07098 0.99922 0.34204 0.0
H389 H 0.08031 0.94111 0.32436 0.0
H390 H 0.95982 0.8269 0.35089 0.0
H391 H 0.95058 0.88527 0.36868 0.0
H392 H 0.00998 0.80778 0.33104 0.0
H393 H 0.05142 0.88351 0.30226 0.0
H394 H 0.03853 0.84161 0.27286 0.0
H395 H 0.04413 0.78209 0.25436 0.0
C396 C 0.10333 0.98512 0.69395 0.0
C397 C 0.10219 0.02716 0.69719 0.0
C398 C 0.13976 0.98595 0.68367 0.0
C399 C 0.17609 0.02906 0.6768 0.0
C400 C 0.17583 0.07122 0.68066 0.0
C401 C 0.1389 0.07021 0.69053 0.0
C402 C 0.21488 0.03139 0.66565 0.0
C403 C 0.20737 0.99788 0.65328 0.0
C404 C 0.24529 0.0029 0.64092 0.0
C405 C 0.23298 0.98532 0.6234 0.0
C406 C 0.26812 0.99085 0.61131 0.0
C407 C 0.3164 0.01325 0.61659 0.0
H408 H 0.30383 0.03744 0.65989 0.0
C409 C 0.32838 0.02963 0.63434 0.0
C410 C 0.29333 0.02473 0.64633 0.0
H411 H 0.36485 0.04579 0.6391 0.0
H412 H 0.07544 0.95146 0.69895 0.0
H413 H 0.13961 0.953 0.6812 0.0
H414 H 0.20365 0.1049 0.67564 0.0
H415 H 0.13906 0.10321 0.69293 0.0
H416 H 0.24949 0.06382 0.66649 0.0
H417 H 0.1715 0.96793 0.65113 0.0
H418 H 0.19617 0.96821 0.61893 0.0
H419 H 0.25741 0.97823 0.59776 0.0
C420 C 0.13345 0.13449 0.0261 0.0
C421 C 0.0935 0.14038 0.0276 0.0
C422 C 0.16998 0.16162 0.0141 0.0
C423 C 0.16713 0.1951 0.00331 0.0
C424 C 0.12728 0.20085 0.00484 0.0
C425 C 0.09116 0.17418 0.01687 0.0
C426 C 0.20356 0.2234 0.98977 0.0
C427 C 0.24954 0.23453 0.99057 0.0
C428 C 0.28524 0.26543 0.97723 0.0
C429 C 0.33305 0.29483 0.98248 0.0
C430 C 0.36688 0.32609 0.97046 0.0
C431 C 0.35371 0.3282 0.95282 0.0
H432 H 0.23628 0.24287 0.95469 0.0
C433 C 0.30619 0.29733 0.9474 0.0
C434 C 0.27238 0.26629 0.95943 0.0
H435 H 0.29504 0.29703 0.9338 0.0
H436 H 0.13635 0.10865 0.03408 0.0
H437 H 0.19963 0.1554 0.01303 0.0
H438 H 0.12397 0.22615 0.99666 0.0
H439 H 0.06097 0.17971 0.01753 0.0
H440 H 0.1924 0.23819 0.97923 0.0
H441 H 0.26231 0.22389 1.00195 0.0
H442 H 0.34402 0.29461 0.99607 0.0
H443 H 0.40305 0.34951 0.97515 0.0
C444 C 0.03516 0.18355 0.36647 0.0
C445 C 0.99702 0.13668 0.36419 0.0
C446 C 0.03745 0.22038 0.35629 0.0
C447 C 0.00153 0.21088 0.34363 0.0
C448 C 0.96261 0.16434 0.34196 0.0
C449 C 0.96047 0.12769 0.35202 0.0
C450 C 0.00284 0.24786 0.33183 0.0
C451 C 0.04306 0.28834 0.32757 0.0
C452 C 0.04444 0.32281 0.31438 0.0
C453 C 0.08829 0.3549 0.30665 0.0
C454 C 0.09113 0.38706 0.2939 0.0
C455 C 0.05008 0.38791 0.28859 0.0
H456 H 0.96928 0.30194 0.31538 0.0
C457 C 0.00632 0.35646 0.29652 0.0
C458 C 0.00352 0.32455 0.30935 0.0
H459 H 0.97426 0.35705 0.29302 0.0
H460 H 0.06372 0.19162 0.37583 0.0
H461 H 0.06732 0.25601 0.35841 0.0
H462 H 0.93414 0.15596 0.3325 0.0
H463 H 0.93038 0.09204 0.35001 0.0
H464 H 0.96949 0.2391 0.32534 0.0
H465 H 0.077 0.29519 0.33296 0.0
H466 H 0.12048 0.35472 0.3103 0.0
H467 H 0.12537 0.41077 0.28801 0.0
loop_
_geom_bond_atom_site_label_1
_geom_bond_atom_site_label_2
_geom_bond_distance
_geom_bond_site_symmetry_2
_ccdc_geom_bond_type
Co0 O1 2.216 1_445 S
Co0 O2 2.091 1_545 S
Co0 O4 2.004 . S
Co0 O10 2.021 1_445 S
Co0 O12 2.137 . S
Co0 O13 2.244 1_455 S
O1 Co0 2.216 1_665 S
O1 C8 1.247 1_655 S
O2 Co0 2.091 1_565 S
O2 C8 1.261 . S
C3 O12 1.247 . S
C3 O13 1.272 1_455 S
O4 Co0 2.004 . S
O4 C9 1.259 . S
Co5 O6 2.061 1_655 S
Co5 O11 2.052 . S
Co5 O13 2.135 . S
O6 Co5 2.061 1_455 S
O6 C9 1.235 . S
C7 O10 1.238 . S
C7 O11 1.241 1_565 S
C8 O1 1.247 1_455 S
C8 O2 1.261 . S
C9 O4 1.259 . S
C9 O6 1.235 . S
O10 Co0 2.021 1_665 S
O10 C7 1.238 . S
O11 Co5 2.052 . S
O11 C7 1.241 1_545 S
O12 Co0 2.137 . S
O12 C3 1.247 . S
O13 Co0 2.244 1_655 S
O13 C3 1.272 1_655 S
O13 Co5 2.135 . S
Co14 O15 2.216 1_455 S
Co14 O16 2.091 . S
Co14 O18 2.004 . S
Co14 O24 2.021 1_455 S
Co14 O26 2.137 . S
Co14 O27 2.244 1_445 S
O15 Co14 2.216 1_655 S
O15 C22 1.247 1_655 S
O16 Co14 2.091 . S
O16 C22 1.261 . S
C17 O26 1.247 1_565 S
C17 O27 1.272 1_455 S
O18 Co14 2.004 . S
O18 C23 1.259 . S
Co19 O20 2.061 1_655 S
Co19 O25 2.052 . S
Co19 O27 2.135 . S
O20 Co19 2.061 1_455 S
O20 C23 1.235 1_565 S
C21 O24 1.238 . S
C21 O25 1.241 1_545 S
C22 O15 1.247 1_455 S
C22 O16 1.261 . S
C23 O18 1.259 . S
C23 O20 1.235 1_545 S
O24 Co14 2.021 1_655 S
O24 C21 1.238 . S
O25 Co19 2.052 . S
O25 C21 1.241 1_565 S
O26 Co14 2.137 . S
O26 C17 1.247 1_545 S
O27 Co14 2.244 1_665 S
O27 C17 1.272 1_655 S
O27 Co19 2.135 . S
Co28 O29 2.216 . S
Co28 O30 2.091 1_545 S
Co28 O32 2.004 1_445 S
Co28 O38 2.021 . S
Co28 O40 2.137 1_445 S
Co28 O41 2.244 1_455 S
O29 Co28 2.216 . S
O29 C36 1.247 . S
O30 Co28 2.091 1_565 S
O30 C36 1.261 1_565 S
C31 O40 1.247 1_545 S
C31 O41 1.272 . S
O32 Co28 2.004 1_665 S
O32 C37 1.259 . S
Co33 O34 2.060 . S
Co33 O39 2.052 1_655 S
Co33 O41 2.135 . S
O34 Co33 2.060 . S
O34 C37 1.236 1_545 S
C35 O38 1.238 . S
C35 O39 1.241 . S
C36 O29 1.247 . S
C36 O30 1.261 1_545 S
C37 O32 1.259 . S
C37 O34 1.236 1_565 S
O38 Co28 2.021 . S
O38 C35 1.238 . S
O39 Co33 2.052 1_455 S
O39 C35 1.241 . S
O40 Co28 2.137 1_665 S
O40 C31 1.247 1_565 S
O41 Co28 2.244 1_655 S
O41 C31 1.272 . S
O41 Co33 2.135 . S
C42 C43 1.384 1_655 S
C42 C44 1.384 . S
C42 H70 0.931 . S
C43 C42 1.384 1_455 S
C43 C46 1.382 . S
C44 C42 1.384 . S
C44 C45 1.381 1_655 S
C44 H71 0.930 . S
C45 C44 1.381 1_455 S
C45 C47 1.381 . S
C45 C48 1.487 . S
C46 C43 1.382 . S
C46 C47 1.387 . S
C46 H72 0.930 . S
C47 C45 1.381 . S
C47 C46 1.387 . S
C47 H73 0.931 . S
C48 C45 1.487 . S
C48 C55 1.399 . S
C48 N86 1.343 . S
C49 C50 1.384 . S
C49 C51 1.384 . S
C49 H74 0.931 . S
C50 C49 1.384 . S
C50 C53 1.382 1_455 S
C51 C49 1.384 . S
C51 C52 1.381 . S
C51 H75 0.930 . S
C52 C51 1.381 . S
C52 C54 1.381 1_455 S
C52 C55 1.487 . S
C53 C50 1.382 1_655 S
C53 C54 1.387 . S
C53 H76 0.930 . S
C54 C52 1.381 1_655 S
C54 C53 1.387 . S
C54 H77 0.931 . S
C55 C48 1.399 . S
C55 C52 1.487 . S
C55 N87 1.343 . S
C56 C57 1.384 . S
C56 C58 1.384 . S
C56 H78 0.931 . S
C57 C56 1.384 . S
C57 C60 1.382 1_455 S
C58 C56 1.384 . S
C58 C59 1.381 . S
C58 H79 0.930 . S
C59 C58 1.381 . S
C59 C61 1.381 1_455 S
C59 C62 1.487 . S
C60 C57 1.382 1_655 S
C60 C61 1.387 . S
C60 H80 0.930 . S
C61 C59 1.381 1_655 S
C61 C60 1.387 . S
C61 H81 0.931 . S
C62 C59 1.487 . S
C62 C69 1.399 . S
C62 N87 1.343 . S
C63 C64 1.384 1_655 S
C63 C65 1.384 . S
C63 H82 0.931 . S
C64 C63 1.384 1_455 S
C64 C67 1.382 . S
C65 C63 1.384 . S
C65 C66 1.381 1_655 S
C65 H83 0.930 . S
C66 C65 1.381 1_455 S
C66 C68 1.381 . S
C66 C69 1.487 . S
C67 C64 1.382 . S
C67 C68 1.387 . S
C67 H84 0.930 . S
C68 C66 1.381 . S
C68 C67 1.387 . S
C68 H85 0.931 . S
C69 C62 1.399 . S
C69 C66 1.487 . S
C69 N86 1.343 . S
H70 C42 0.931 . S
H71 C44 0.930 . S
H72 C46 0.930 . S
H73 C47 0.931 . S
H74 C49 0.931 . S
H75 C51 0.930 . S
H76 C53 0.930 . S
H77 C54 0.931 . S
H78 C56 0.931 . S
H79 C58 0.930 . S
H80 C60 0.930 . S
H81 C61 0.931 . S
H82 C63 0.931 . S
H83 C65 0.930 . S
H84 C67 0.930 . S
H85 C68 0.931 . S
N86 C48 1.343 . S
N86 C69 1.343 . S
N87 C55 1.343 . S
N87 C62 1.343 . S
C88 C89 1.384 . S
C88 C90 1.384 . S
C88 H116 0.931 . S
C89 C88 1.384 . S
C89 C92 1.382 1_545 S
C90 C88 1.384 . S
C90 C91 1.381 . S
C90 H117 0.930 . S
C91 C90 1.381 . S
C91 C93 1.381 1_545 S
C91 C94 1.487 . S
C92 C89 1.382 1_565 S
C92 C93 1.387 . S
C92 H118 0.930 . S
C93 C91 1.381 1_565 S
C93 C92 1.387 . S
C93 H119 0.931 . S
C94 C91 1.487 . S
C94 C101 1.399 . S
C94 N132 1.343 . S
C95 C96 1.384 1_565 S
C95 C97 1.384 . S
C95 H120 0.931 . S
C96 C95 1.384 1_545 S
C96 C99 1.382 . S
C97 C95 1.384 . S
C97 C98 1.381 1_565 S
C97 H121 0.930 . S
C98 C97 1.381 1_545 S
C98 C100 1.381 . S
C98 C101 1.487 . S
C99 C96 1.382 . S
C99 C100 1.387 . S
C99 H122 0.930 . S
C100 C98 1.381 . S
C100 C99 1.387 . S
C100 H123 0.931 . S
C101 C94 1.399 . S
C101 C98 1.487 . S
C101 N133 1.343 . S
C102 C103 1.384 1_565 S
C102 C104 1.384 . S
C102 H124 0.931 . S
C103 C102 1.384 1_545 S
C103 C106 1.382 . S
C104 C102 1.384 . S
C104 C105 1.381 1_565 S
C104 H125 0.930 . S
C105 C104 1.381 1_545 S
C105 C107 1.381 . S
C105 C108 1.487 . S
C106 C103 1.382 . S
C106 C107 1.387 . S
C106 H126 0.930 . S
C107 C105 1.381 . S
C107 C106 1.387 . S
C107 H127 0.931 . S
C108 C105 1.487 . S
C108 C115 1.399 . S
C108 N133 1.343 . S
C109 C110 1.384 . S
C109 C111 1.384 . S
C109 H128 0.931 . S
C110 C109 1.384 . S
C110 C113 1.382 1_545 S
C111 C109 1.384 . S
C111 C112 1.381 . S
C111 H129 0.930 . S
C112 C111 1.381 . S
C112 C114 1.381 1_545 S
C112 C115 1.487 . S
C113 C110 1.382 1_565 S
C113 C114 1.387 . S
C113 H130 0.930 . S
C114 C112 1.381 1_565 S
C114 C113 1.387 . S
C114 H131 0.931 . S
C115 C108 1.399 . S
C115 C112 1.487 . S
C115 N132 1.343 . S
H116 C88 0.931 . S
H117 C90 0.930 . S
H118 C92 0.930 . S
H119 C93 0.931 . S
H120 C95 0.931 . S
H121 C97 0.930 . S
H122 C99 0.930 . S
H123 C100 0.931 . S
H124 C102 0.931 . S
H125 C104 0.930 . S
H126 C106 0.930 . S
H127 C107 0.931 . S
H128 C109 0.931 . S
H129 C111 0.930 . S
H130 C113 0.930 . S
H131 C114 0.931 . S
N132 C94 1.343 . S
N132 C115 1.343 . S
N133 C101 1.343 . S
N133 C108 1.343 . S
C134 C135 1.384 . S
C134 C136 1.384 . S
C134 H162 0.931 . S
C135 C134 1.384 . S
C135 C138 1.382 . S
C136 C134 1.384 . S
C136 C137 1.381 . S
C136 H163 0.930 . S
C137 C136 1.381 . S
C137 C139 1.381 . S
C137 C140 1.487 . S
C138 C135 1.382 . S
C138 C139 1.387 . S
C138 H164 0.930 . S
C139 C137 1.381 . S
C139 C138 1.387 . S
C139 H165 0.931 . S
C140 C137 1.487 . S
C140 C147 1.399 . S
C140 N178 1.343 . S
C141 C142 1.384 . S
C141 C143 1.384 . S
C141 H166 0.931 . S
C142 C141 1.384 . S
C142 C145 1.382 . S
C143 C141 1.384 . S
C143 C144 1.381 . S
C143 H167 0.930 . S
C144 C143 1.381 . S
C144 C146 1.381 . S
C144 C147 1.487 . S
C145 C142 1.382 . S
C145 C146 1.387 . S
C145 H168 0.930 . S
C146 C144 1.381 . S
C146 C145 1.387 . S
C146 H169 0.931 . S
C147 C140 1.399 . S
C147 C144 1.487 . S
C147 N179 1.343 . S
C148 C149 1.384 . S
C148 C150 1.384 . S
C148 H170 0.931 . S
C149 C148 1.384 . S
C149 C152 1.382 . S
C150 C148 1.384 . S
C150 C151 1.381 . S
C150 H171 0.930 . S
C151 C150 1.381 . S
C151 C153 1.381 . S
C151 C154 1.487 . S
C152 C149 1.382 . S
C152 C153 1.387 . S
C152 H172 0.930 . S
C153 C151 1.381 . S
C153 C152 1.387 . S
C153 H173 0.931 . S
C154 C151 1.487 . S
C154 C161 1.399 . S
C154 N179 1.343 . S
C155 C156 1.384 . S
C155 C157 1.384 . S
C155 H174 0.931 . S
C156 C155 1.384 . S
C156 C159 1.382 . S
C157 C155 1.384 . S
C157 C158 1.381 . S
C157 H175 0.930 . S
C158 C157 1.381 . S
C158 C160 1.381 . S
C158 C161 1.487 . S
C159 C156 1.382 . S
C159 C160 1.387 . S
C159 H176 0.930 . S
C160 C158 1.381 . S
C160 C159 1.387 . S
C160 H177 0.931 . S
C161 C154 1.399 . S
C161 C158 1.487 . S
C161 N178 1.343 . S
H162 C134 0.931 . S
H163 C136 0.930 . S
H164 C138 0.930 . S
H165 C139 0.931 . S
H166 C141 0.931 . S
H167 C143 0.930 . S
H168 C145 0.930 . S
H169 C146 0.931 . S
H170 C148 0.931 . S
H171 C150 0.930 . S
H172 C152 0.930 . S
H173 C153 0.931 . S
H174 C155 0.931 . S
H175 C157 0.930 . S
H176 C159 0.930 . S
H177 C160 0.931 . S
N178 C140 1.343 . S
N178 C161 1.343 . S
N179 C147 1.343 . S
N179 C154 1.343 . S
C180 C181 1.386 . S
C180 C182 1.383 . S
C180 H196 0.951 . S
C181 C180 1.386 . S
C181 C185 1.383 1_455 S
C182 C180 1.383 . S
C182 C183 1.402 . S
C182 H197 0.951 . S
C183 C182 1.402 . S
C183 C184 1.375 1_455 S
C183 C186 1.481 1_455 S
C184 C183 1.375 1_655 S
C184 C185 1.367 . S
C184 H198 0.951 . S
C185 C181 1.383 1_655 S
C185 C184 1.367 . S
C185 H199 0.950 . S
C186 C183 1.481 1_655 S
C186 C187 1.297 1_655 S
C186 H200 0.950 . S
C187 C186 1.297 1_455 S
C187 C188 1.479 . S
C187 H201 0.950 . S
C188 C187 1.479 . S
C188 C189 1.375 . S
C188 C194 1.404 1_455 S
C189 C188 1.375 . S
C189 C190 1.369 . S
C189 H202 0.950 . S
C190 C189 1.369 . S
C190 C191 1.392 . S
C190 H203 0.951 . S
C191 C190 1.392 . S
C191 C193 1.384 1_455 S
H192 C194 0.949 . S
C193 C191 1.384 1_655 S
C193 C194 1.385 . S
C193 H195 0.950 . S
C194 C188 1.404 1_655 S
C194 H192 0.949 . S
C194 C193 1.385 . S
H195 C193 0.950 . S
H196 C180 0.951 . S
H197 C182 0.951 . S
H198 C184 0.951 . S
H199 C185 0.950 . S
H200 C186 0.950 . S
H201 C187 0.950 . S
H202 C189 0.950 . S
H203 C190 0.951 . S
C204 C205 1.386 . S
C204 C206 1.383 . S
C204 H220 0.951 . S
C205 C204 1.386 . S
C205 C209 1.383 . S
C206 C204 1.383 . S
C206 C207 1.402 . S
C206 H221 0.951 . S
C207 C206 1.402 . S
C207 C208 1.357 1_545 S
C207 C210 1.481 . S
C208 C207 1.357 1_565 S
C208 C209 1.373 1_565 S
C208 H222 0.964 . S
C209 C205 1.383 . S
C209 C208 1.373 1_545 S
C209 H223 0.950 1_545 S
C210 C207 1.481 . S
C210 C211 1.297 . S
C210 H224 0.950 1_545 S
C211 C210 1.297 . S
C211 C212 1.479 . S
C211 H225 0.950 . S
C212 C211 1.479 . S
C212 C213 1.375 . S
C212 C218 1.404 1_545 S
C213 C212 1.375 . S
C213 C214 1.369 . S
C213 H226 0.950 . S
C214 C213 1.369 . S
C214 C215 1.392 . S
C214 H227 0.951 . S
C215 C214 1.392 . S
C215 C217 1.384 1_545 S
H216 C218 0.949 . S
C217 C215 1.384 1_565 S
C217 C218 1.385 . S
C217 H219 0.950 . S
C218 C212 1.404 1_565 S
C218 H216 0.949 . S
C218 C217 1.385 . S
H219 C217 0.950 . S
H220 C204 0.951 . S
H221 C206 0.951 . S
H222 C208 0.964 . S
H223 C209 0.950 1_565 S
H224 C210 0.950 1_565 S
H225 C211 0.950 . S
H226 C213 0.950 . S
H227 C214 0.951 . S
C228 C229 1.386 . S
C228 C230 1.383 . S
C228 H244 0.951 . S
C229 C228 1.386 . S
C229 C233 1.383 . S
C230 C228 1.383 . S
C230 C231 1.402 . S
C230 H245 0.951 . S
C231 C230 1.402 . S
C231 C232 1.375 . S
C231 C234 1.481 . S
C232 C231 1.375 . S
C232 C233 1.367 . S
C232 H246 0.951 . S
C233 C229 1.383 . S
C233 C232 1.367 . S
C233 H247 0.950 . S
C234 C231 1.481 . S
C234 C235 1.297 . S
C234 H248 0.950 . S
C235 C234 1.297 . S
C235 C236 1.479 . S
C235 H249 0.950 . S
C236 C235 1.479 . S
C236 C237 1.375 . S
C236 C242 1.404 . S
C237 C236 1.375 . S
C237 C238 1.369 . S
C237 H250 0.950 . S
C238 C237 1.369 . S
C238 C239 1.392 . S
C238 H251 0.951 . S
C239 C238 1.392 . S
C239 C241 1.384 . S
H240 C242 0.949 . S
C241 C239 1.384 . S
C241 C242 1.385 . S
C241 H243 0.950 . S
C242 C236 1.404 . S
C242 H240 0.949 . S
C242 C241 1.385 . S
H243 C241 0.950 . S
H244 C228 0.951 . S
H245 C230 0.951 . S
H246 C232 0.951 . S
H247 C233 0.950 . S
H248 C234 0.950 . S
H249 C235 0.950 . S
H250 C237 0.950 . S
H251 C238 0.951 . S
C252 C253 1.386 . S
C252 C254 1.383 . S
C252 H268 0.951 . S
C253 C252 1.386 . S
C253 C257 1.383 1_455 S
C254 C252 1.383 . S
C254 C255 1.402 . S
C254 H269 0.951 . S
C255 C254 1.402 . S
C255 C256 1.375 1_455 S
C255 C258 1.481 . S
C256 C255 1.375 1_655 S
C256 C257 1.367 . S
C256 H270 0.951 . S
C257 C253 1.383 1_655 S
C257 C256 1.367 . S
C257 H271 0.950 . S
C258 C255 1.481 . S
C258 C259 1.297 . S
C258 H272 0.950 1_455 S
C259 C258 1.297 . S
C259 C260 1.479 . S
C259 H273 0.950 . S
C260 C259 1.479 . S
C260 C261 1.375 . S
C260 C266 1.404 1_455 S
C261 C260 1.375 . S
C261 C262 1.369 . S
C261 H274 0.950 . S
C262 C261 1.369 . S
C262 C263 1.392 . S
C262 H275 0.951 . S
C263 C262 1.392 . S
C263 C265 1.384 1_455 S
H264 C266 0.949 . S
C265 C263 1.384 1_655 S
C265 C266 1.385 . S
C265 H267 0.950 . S
C266 C260 1.404 1_655 S
C266 H264 0.949 . S
C266 C265 1.385 . S
H267 C265 0.950 . S
H268 C252 0.951 . S
H269 C254 0.951 . S
H270 C256 0.951 . S
H271 C257 0.950 . S
H272 C258 0.950 1_655 S
H273 C259 0.950 . S
H274 C261 0.950 . S
H275 C262 0.951 . S
C276 C277 1.386 . S
C276 C278 1.383 . S
C276 H292 0.951 1_545 S
C277 C276 1.386 . S
C277 C281 1.383 . S
C278 C276 1.383 . S
C278 C279 1.402 . S
C278 H293 0.951 1_545 S
C279 C278 1.402 . S
C279 C280 1.375 . S
C279 C282 1.481 . S
C280 C279 1.375 . S
C280 C281 1.367 . S
C280 H294 0.951 . S
C281 C277 1.383 . S
C281 C280 1.367 . S
C281 H295 0.950 . S
C282 C279 1.481 . S
C282 C283 1.297 . S
C282 H296 0.950 . S
C283 C282 1.297 . S
C283 C284 1.479 . S
C283 H297 0.950 1_545 S
C284 C283 1.479 . S
C284 C285 1.375 1_545 S
C284 C290 1.404 . S
C285 C284 1.375 1_565 S
C285 C286 1.369 . S
C285 H298 0.950 . S
C286 C285 1.369 . S
C286 C287 1.392 1_565 S
C286 H299 0.951 . S
C287 C286 1.392 1_545 S
C287 C289 1.384 . S
H288 C290 0.949 . S
C289 C287 1.384 . S
C289 C290 1.385 . S
C289 H291 0.950 . S
C290 C284 1.404 . S
C290 H288 0.949 . S
C290 C289 1.385 . S
H291 C289 0.950 . S
H292 C276 0.951 1_565 S
H293 C278 0.951 1_565 S
H294 C280 0.951 . S
H295 C281 0.950 . S
H296 C282 0.950 . S
H297 C283 0.950 1_565 S
H298 C285 0.950 . S
H299 C286 0.951 . S
C300 C301 1.386 . S
C300 C302 1.383 . S
C300 H316 0.951 . S
C301 C300 1.386 . S
C301 C305 1.383 . S
C302 C300 1.383 . S
C302 C303 1.402 . S
C302 H317 0.951 . S
C303 C302 1.402 . S
C303 C304 1.375 . S
C303 C306 1.481 . S
C304 C303 1.375 . S
C304 C305 1.367 . S
C304 H318 0.951 . S
C305 C301 1.383 . S
C305 C304 1.367 . S
C305 H319 0.950 . S
C306 C303 1.481 . S
C306 C307 1.297 . S
C306 H320 0.950 . S
C307 C306 1.297 . S
C307 C308 1.479 . S
C307 H321 0.950 . S
C308 C307 1.479 . S
C308 C309 1.375 . S
C308 C314 1.404 . S
C309 C308 1.375 . S
C309 C310 1.369 . S
C309 H322 0.950 . S
C310 C309 1.369 . S
C310 C311 1.392 . S
C310 H323 0.951 . S
C311 C310 1.392 . S
C311 C313 1.384 . S
H312 C314 0.949 . S
C313 C311 1.384 . S
C313 C314 1.385 . S
C313 H315 0.950 . S
C314 C308 1.404 . S
C314 H312 0.949 . S
C314 C313 1.385 . S
H315 C313 0.950 . S
H316 C300 0.951 . S
H317 C302 0.951 . S
H318 C304 0.951 . S
H319 C305 0.950 . S
H320 C306 0.950 . S
H321 C307 0.950 . S
H322 C309 0.950 . S
H323 C310 0.951 . S
C324 C325 1.386 . S
C324 C326 1.383 . S
C324 H340 0.951 . S
C325 C324 1.386 . S
C325 C329 1.383 . S
C326 C324 1.383 . S
C326 C327 1.402 . S
C326 H341 0.951 . S
C327 C326 1.402 . S
C327 C328 1.375 . S
C327 C330 1.481 . S
C328 C327 1.375 . S
C328 C329 1.367 . S
C328 H342 0.951 . S
C329 C325 1.383 . S
C329 C328 1.367 . S
C329 H343 0.950 . S
C330 C327 1.481 . S
C330 C331 1.300 . S
C330 H344 0.950 . S
C331 C330 1.300 . S
C331 C332 1.486 . S
C331 H345 0.940 1_545 S
C332 C331 1.486 . S
C332 C333 1.375 1_545 S
C332 C338 1.404 . S
C333 C332 1.375 1_565 S
C333 C334 1.369 1_565 S
C333 H346 0.950 . S
C334 C333 1.369 1_545 S
C334 C335 1.392 . S
C334 H347 0.951 . S
C335 C334 1.392 . S
C335 C337 1.384 . S
H336 C338 0.949 . S
C337 C335 1.384 . S
C337 C338 1.385 . S
C337 H339 0.950 . S
C338 C332 1.404 . S
C338 H336 0.949 . S
C338 C337 1.385 . S
H339 C337 0.950 . S
H340 C324 0.951 . S
H341 C326 0.951 . S
H342 C328 0.951 . S
H343 C329 0.950 . S
H344 C330 0.950 . S
H345 C331 0.940 1_565 S
H346 C333 0.950 . S
H347 C334 0.951 . S
C348 C349 1.386 . S
C348 C350 1.383 . S
C348 H364 0.951 . S
C349 C348 1.386 . S
C349 C353 1.383 . S
C350 C348 1.383 . S
C350 C351 1.402 . S
C350 H365 0.951 1_554 S
C351 C350 1.402 . S
C351 C352 1.375 . S
C351 C354 1.481 1_554 S
C352 C351 1.375 . S
C352 C353 1.367 . S
C352 H366 0.951 . S
C353 C349 1.383 . S
C353 C352 1.367 . S
C353 H367 0.950 . S
C354 C351 1.481 1_556 S
C354 C355 1.297 . S
C354 H368 0.950 1_556 S
C355 C354 1.297 . S
C355 C356 1.479 . S
C355 H369 0.950 . S
C356 C355 1.479 . S
C356 C357 1.375 . S
C356 C362 1.404 . S
C357 C356 1.375 . S
C357 C358 1.369 . S
C357 H370 0.950 . S
C358 C357 1.369 . S
C358 C359 1.392 . S
C358 H371 0.951 . S
C359 C358 1.392 . S
C359 C361 1.384 . S
H360 C362 0.949 . S
C361 C359 1.384 . S
C361 C362 1.385 . S
C361 H363 0.950 . S
C362 C356 1.404 . S
C362 H360 0.949 . S
C362 C361 1.385 . S
H363 C361 0.950 . S
H364 C348 0.951 . S
H365 C350 0.951 1_556 S
H366 C352 0.951 . S
H367 C353 0.950 . S
H368 C354 0.950 1_554 S
H369 C355 0.950 . S
H370 C357 0.950 . S
H371 C358 0.951 . S
C372 C373 1.386 . S
C372 C374 1.383 . S
C372 H388 0.951 . S
C373 C372 1.386 . S
C373 C377 1.383 . S
C374 C372 1.383 . S
C374 C375 1.402 . S
C374 H389 0.951 . S
C375 C374 1.402 . S
C375 C376 1.375 . S
C375 C378 1.481 . S
C376 C375 1.375 . S
C376 C377 1.367 . S
C376 H390 0.951 . S
C377 C373 1.383 . S
C377 C376 1.367 . S
C377 H391 0.950 . S
C378 C375 1.481 . S
C378 C379 1.297 . S
C378 H392 0.950 . S
C379 C378 1.297 . S
C379 C380 1.479 . S
C379 H393 0.950 . S
C380 C379 1.479 . S
C380 C381 1.375 . S
C380 C386 1.404 . S
C381 C380 1.375 . S
C381 C382 1.369 . S
C381 H394 0.950 . S
C382 C381 1.369 . S
C382 C383 1.392 . S
C382 H395 0.951 . S
C383 C382 1.392 . S
C383 C385 1.384 . S
H384 C386 0.949 . S
C385 C383 1.384 . S
C385 C386 1.385 . S
C385 H387 0.950 . S
C386 C380 1.404 . S
C386 H384 0.949 . S
C386 C385 1.385 . S
H387 C385 0.950 . S
H388 C372 0.951 . S
H389 C374 0.951 . S
H390 C376 0.951 . S
H391 C377 0.950 . S
H392 C378 0.950 . S
H393 C379 0.950 . S
H394 C381 0.950 . S
H395 C382 0.951 . S
C396 C397 1.386 1_565 S
C396 C398 1.383 1_565 S
C396 H412 0.951 . S
C397 C396 1.386 1_545 S
C397 C401 1.383 . S
C398 C396 1.383 1_545 S
C398 C399 1.402 . S
C398 H413 0.951 1_545 S
C399 C398 1.402 . S
C399 C400 1.375 . S
C399 C402 1.481 . S
C400 C399 1.375 . S
C400 C401 1.367 . S
C400 H414 0.951 . S
C401 C397 1.383 . S
C401 C400 1.367 . S
C401 H415 0.950 . S
C402 C399 1.481 . S
C402 C403 1.297 . S
C402 H416 0.950 . S
C403 C402 1.297 . S
C403 C404 1.479 . S
C403 H417 0.950 . S
C404 C403 1.479 . S
C404 C405 1.375 1_545 S
C404 C410 1.404 . S
C405 C404 1.375 1_565 S
C405 C406 1.369 . S
C405 H418 0.950 . S
C406 C405 1.369 . S
C406 C407 1.392 1_565 S
C406 H419 0.951 . S
C407 C406 1.392 1_545 S
C407 C409 1.384 . S
H408 C410 0.949 . S
C409 C407 1.384 . S
C409 C410 1.385 . S
C409 H411 0.950 . S
C410 C404 1.404 . S
C410 H408 0.949 . S
C410 C409 1.385 . S
H411 C409 0.950 . S
H412 C396 0.951 . S
H413 C398 0.951 1_565 S
H414 C400 0.951 . S
H415 C401 0.950 . S
H416 C402 0.950 . S
H417 C403 0.950 . S
H418 C405 0.950 . S
H419 C406 0.951 . S
C420 C421 1.386 . S
C420 C422 1.383 . S
C420 H436 0.951 . S
C421 C420 1.386 . S
C421 C425 1.383 . S
C422 C420 1.383 . S
C422 C423 1.402 1_554 S
C422 H437 0.951 . S
C423 C422 1.402 1_556 S
C423 C424 1.375 . S
C423 C426 1.481 . S
C424 C423 1.375 . S
C424 C425 1.367 1_556 S
C424 H438 0.951 . S
C425 C421 1.383 . S
C425 C424 1.367 1_554 S
C425 H439 0.950 . S
C426 C423 1.481 . S
C426 C427 1.297 . S
C426 H440 0.950 . S
C427 C426 1.297 . S
C427 C428 1.479 . S
C427 H441 0.950 . S
C428 C427 1.479 . S
C428 C429 1.375 . S
C428 C434 1.404 . S
C429 C428 1.375 . S
C429 C430 1.369 . S
C429 H442 0.950 . S
C430 C429 1.369 . S
C430 C431 1.392 . S
C430 H443 0.951 . S
C431 C430 1.392 . S
C431 C433 1.384 . S
H432 C434 0.949 . S
C433 C431 1.384 . S
C433 C434 1.385 . S
C433 H435 0.950 . S
C434 C428 1.404 . S
C434 H432 0.949 . S
C434 C433 1.385 . S
H435 C433 0.950 . S
H436 C420 0.951 . S
H437 C422 0.951 . S
H438 C424 0.951 . S
H439 C425 0.950 . S
H440 C426 0.950 . S
H441 C427 0.950 . S
H442 C429 0.950 . S
H443 C430 0.951 . S
C444 C445 1.386 . S
C444 C446 1.383 . S
C444 H460 0.951 . S
C445 C444 1.386 . S
C445 C449 1.383 1_455 S
C446 C444 1.383 . S
C446 C447 1.402 . S
C446 H461 0.951 . S
C447 C446 1.402 . S
C447 C448 1.375 1_455 S
C447 C450 1.467 1_455 S
C448 C447 1.375 1_655 S
C448 C449 1.367 . S
C448 H462 0.951 . S
C449 C445 1.383 1_655 S
C449 C448 1.367 . S
C449 H463 0.950 . S
C450 C447 1.467 1_655 S
C450 C451 1.287 1_655 S
C450 H464 0.976 . S
C451 C450 1.287 1_455 S
C451 C452 1.479 . S
C451 H465 0.950 . S
C452 C451 1.479 . S
C452 C453 1.375 . S
C452 C458 1.404 1_455 S
C453 C452 1.375 . S
C453 C454 1.369 . S
C453 H466 0.950 . S
C454 C453 1.369 . S
C454 C455 1.392 . S
C454 H467 0.951 . S
C455 C454 1.392 . S
C455 C457 1.384 1_455 S
H456 C458 0.949 . S
C457 C455 1.384 1_655 S
C457 C458 1.385 . S
C457 H459 0.950 . S
C458 C452 1.404 1_655 S
C458 H456 0.949 . S
C458 C457 1.385 . S
H459 C457 0.950 . S
H460 C444 0.951 . S
H461 C446 0.951 . S
H462 C448 0.951 . S
H463 C449 0.950 . S
H464 C450 0.976 . S
H465 C451 0.950 . S
H466 C453 0.950 . S
H467 C454 0.951 . S
C191 C50 1.488 . S
C181 C3 1.493 . S
C205 C21 1.488 . S
C215 C89 1.516 . S
C229 C37 1.491 . S
C239 C156 1.501 . S
C253 C8 1.495 . S
C263 C57 1.486 . S
C287 C110 1.505 . S
C277 C23 1.497 . S
C301 C35 1.481 . S
C311 C135 1.496 . S
C335 C96 1.481 . S
C325 C31 1.478 . S
C349 C7 1.491 . S
C359 C149 1.492 . S
C383 C64 1.478 . S
C373 C17 1.486 . S
C407 C103 1.456 . S
C397 C36 1.472 . S
C431 C142 1.486 . S
C421 C9 1.487 . S
C445 C22 1.496 . S
C455 C43 1.483 . S
