# Generated by pormake.
# Topology ctn, (3,4)-cn, num edge types: 1
# Building blocks:
#     Node 0, Type 0, BuildingBlock: BETDAH_clean_linker_0, # of connection points: 3
#     Node 1, Type 0, BuildingBlock: BETDAH_clean_linker_0, # of connection points: 3
#     Node 2, Type 0, BuildingBlock: BETDAH_clean_linker_0, # of connection points: 3
#     Node 3, Type 0, BuildingBlock: BETDAH_clean_linker_0, # of connection points: 3
#     Node 4, Type 0, BuildingBlock: BETDAH_clean_linker_0, # of connection points: 3
#     Node 5, Type 0, BuildingBlock: BETDAH_clean_linker_0, # of connection points: 3
#     Node 6, Type 0, BuildingBlock: BETDAH_clean_linker_0, # of connection points: 3
#     Node 7, Type 0, BuildingBlock: BETDAH_clean_linker_0, # of connection points: 3
#     Node 8, Type 0, BuildingBlock: BETDAH_clean_linker_0, # of connection points: 3
#     Node 9, Type 0, BuildingBlock: BETDAH_clean_linker_0, # of connection points: 3
#     Node 10, Type 0, BuildingBlock: BETDAH_clean_linker_0, # of connection points: 3
#     Node 11, Type 0, BuildingBlock: BETDAH_clean_linker_0, # of connection points: 3
#     Node 12, Type 0, BuildingBlock: BETDAH_clean_linker_0, # of connection points: 3
#     Node 13, Type 0, BuildingBlock: BETDAH_clean_linker_0, # of connection points: 3
#     Node 14, Type 0, BuildingBlock: BETDAH_clean_linker_0, # of connection points: 3
#     Node 15, Type 0, BuildingBlock: BETDAH_clean_linker_0, # of connection points: 3
#     Node 16, Type 1, BuildingBlock: AZAVOO_clean_sbu_0, # of connection points: 4
#     Node 17, Type 1, BuildingBlock: AZAVOO_clean_sbu_0, # of connection points: 4
#     Node 18, Type 1, BuildingBlock: AZAVOO_clean_sbu_0, # of connection points: 4
#     Node 19, Type 1, BuildingBlock: AZAVOO_clean_sbu_0, # of connection points: 4
#     Node 20, Type 1, BuildingBlock: AZAVOO_clean_sbu_0, # of connection points: 4
#     Node 21, Type 1, BuildingBlock: AZAVOO_clean_sbu_0, # of connection points: 4
#     Node 22, Type 1, BuildingBlock: AZAVOO_clean_sbu_0, # of connection points: 4
#     Node 23, Type 1, BuildingBlock: AZAVOO_clean_sbu_0, # of connection points: 4
#     Node 24, Type 1, BuildingBlock: AZAVOO_clean_sbu_0, # of connection points: 4
#     Node 25, Type 1, BuildingBlock: AZAVOO_clean_sbu_0, # of connection points: 4
#     Node 26, Type 1, BuildingBlock: AZAVOO_clean_sbu_0, # of connection points: 4
#     Node 27, Type 1, BuildingBlock: AZAVOO_clean_sbu_0, # of connection points: 4
#     Edge 28, Type (0, 1), BuildingBlock: ZUJKAS_clean_linker_0, # of connection points: 2
#     Edge 29, Type (0, 1), BuildingBlock: ZUJKAS_clean_linker_0, # of connection points: 2
#     Edge 30, Type (0, 1), BuildingBlock: ZUJKAS_clean_linker_0, # of connection points: 2
#     Edge 31, Type (0, 1), BuildingBlock: ZUJKAS_clean_linker_0, # of connection points: 2
#     Edge 32, Type (0, 1), BuildingBlock: ZUJKAS_clean_linker_0, # of connection points: 2
#     Edge 33, Type (0, 1), BuildingBlock: ZUJKAS_clean_linker_0, # of connection points: 2
#     Edge 34, Type (0, 1), BuildingBlock: ZUJKAS_clean_linker_0, # of connection points: 2
#     Edge 35, Type (0, 1), BuildingBlock: ZUJKAS_clean_linker_0, # of connection points: 2
#     Edge 36, Type (0, 1), BuildingBlock: ZUJKAS_clean_linker_0, # of connection points: 2
#     Edge 37, Type (0, 1), BuildingBlock: ZUJKAS_clean_linker_0, # of connection points: 2
#     Edge 38, Type (0, 1), BuildingBlock: ZUJKAS_clean_linker_0, # of connection points: 2
#     Edge 39, Type (0, 1), BuildingBlock: ZUJKAS_clean_linker_0, # of connection points: 2
#     Edge 40, Type (0, 1), BuildingBlock: ZUJKAS_clean_linker_0, # of connection points: 2
#     Edge 41, Type (0, 1), BuildingBlock: ZUJKAS_clean_linker_0, # of connection points: 2
#     Edge 42, Type (0, 1), BuildingBlock: ZUJKAS_clean_linker_0, # of connection points: 2
#     Edge 43, Type (0, 1), BuildingBlock: ZUJKAS_clean_linker_0, # of connection points: 2
#     Edge 44, Type (0, 1), BuildingBlock: ZUJKAS_clean_linker_0, # of connection points: 2
#     Edge 45, Type (0, 1), BuildingBlock: ZUJKAS_clean_linker_0, # of connection points: 2
#     Edge 46, Type (0, 1), BuildingBlock: ZUJKAS_clean_linker_0, # of connection points: 2
#     Edge 47, Type (0, 1), BuildingBlock: ZUJKAS_clean_linker_0, # of connection points: 2
#     Edge 48, Type (0, 1), BuildingBlock: ZUJKAS_clean_linker_0, # of connection points: 2
#     Edge 49, Type (0, 1), BuildingBlock: ZUJKAS_clean_linker_0, # of connection points: 2
#     Edge 50, Type (0, 1), BuildingBlock: ZUJKAS_clean_linker_0, # of connection points: 2
#     Edge 51, Type (0, 1), BuildingBlock: ZUJKAS_clean_linker_0, # of connection points: 2
#     Edge 52, Type (0, 1), BuildingBlock: ZUJKAS_clean_linker_0, # of connection points: 2
#     Edge 53, Type (0, 1), BuildingBlock: ZUJKAS_clean_linker_0, # of connection points: 2
#     Edge 54, Type (0, 1), BuildingBlock: ZUJKAS_clean_linker_0, # of connection points: 2
#     Edge 55, Type (0, 1), BuildingBlock: ZUJKAS_clean_linker_0, # of connection points: 2
#     Edge 56, Type (0, 1), BuildingBlock: ZUJKAS_clean_linker_0, # of connection points: 2
#     Edge 57, Type (0, 1), BuildingBlock: ZUJKAS_clean_linker_0, # of connection points: 2
#     Edge 58, Type (0, 1), BuildingBlock: ZUJKAS_clean_linker_0, # of connection points: 2
#     Edge 59, Type (0, 1), BuildingBlock: ZUJKAS_clean_linker_0, # of connection points: 2
#     Edge 60, Type (0, 1), BuildingBlock: ZUJKAS_clean_linker_0, # of connection points: 2
#     Edge 61, Type (0, 1), BuildingBlock: ZUJKAS_clean_linker_0, # of connection points: 2
#     Edge 62, Type (0, 1), BuildingBlock: ZUJKAS_clean_linker_0, # of connection points: 2
#     Edge 63, Type (0, 1), BuildingBlock: ZUJKAS_clean_linker_0, # of connection points: 2
#     Edge 64, Type (0, 1), BuildingBlock: ZUJKAS_clean_linker_0, # of connection points: 2
#     Edge 65, Type (0, 1), BuildingBlock: ZUJKAS_clean_linker_0, # of connection points: 2
#     Edge 66, Type (0, 1), BuildingBlock: ZUJKAS_clean_linker_0, # of connection points: 2
#     Edge 67, Type (0, 1), BuildingBlock: ZUJKAS_clean_linker_0, # of connection points: 2
#     Edge 68, Type (0, 1), BuildingBlock: ZUJKAS_clean_linker_0, # of connection points: 2
#     Edge 69, Type (0, 1), BuildingBlock: ZUJKAS_clean_linker_0, # of connection points: 2
#     Edge 70, Type (0, 1), BuildingBlock: ZUJKAS_clean_linker_0, # of connection points: 2
#     Edge 71, Type (0, 1), BuildingBlock: ZUJKAS_clean_linker_0, # of connection points: 2
#     Edge 72, Type (0, 1), BuildingBlock: ZUJKAS_clean_linker_0, # of connection points: 2
#     Edge 73, Type (0, 1), BuildingBlock: ZUJKAS_clean_linker_0, # of connection points: 2
#     Edge 74, Type (0, 1), BuildingBlock: ZUJKAS_clean_linker_0, # of connection points: 2
#     Edge 75, Type (0, 1), BuildingBlock: ZUJKAS_clean_linker_0, # of connection points: 2
# Relax obj value: 0.050
# Max RMSD: 0.173
# Mean RMSD: 0.106
data_MOF--net-ctn--node1-AZAVOO_clean_sbu_0--node2-BETDAH_clean_linker_0--edge1-ZUJKAS_clean_linker_0
_symmetry_space_group_name_H-M    P1
_symmetry_Int_Tables_number       1
_symmetry_cell_setting            triclinic
loop_
_symmetry_equiv_pos_as_xyz
'x, y, z'
_cell_length_a     69.294134
_cell_length_b     70.36725
_cell_length_c     71.188426
_cell_angle_alpha  98.247034
_cell_angle_beta   92.682891
_cell_angle_gamma 97.126291
loop_
_atom_site_label
_atom_site_type_symbol
_atom_site_fract_x
_atom_site_fract_y
_atom_site_fract_z
_atom_type_partial_charge
H0 H 0.06641 0.00851 0.07698 0.0
H1 H 0.05854 0.01383 0.01755 0.0
H2 H 0.01409 0.02724 0.05526 0.0
C3 C 0.0578 0.01214 0.06522 0.0
C4 C 0.03969 0.01865 0.0685 0.0
C5 C 0.06473 0.01014 0.04683 0.0
C6 C 0.05341 0.01509 0.03176 0.0
C7 C 0.03516 0.02121 0.03489 0.0
C8 C 0.02832 0.02271 0.05311 0.0
N9 N 0.02312 0.02534 0.01978 0.0
C10 C 0.02996 0.03754 0.00718 0.0
H11 H 0.3347 0.7061 0.25787 0.0
H12 H 0.3727 0.74646 0.23204 0.0
H13 H 0.31525 0.7255 0.20636 0.0
C14 C 0.33737 0.71488 0.2467 0.0
C15 C 0.32282 0.71434 0.2321 0.0
C16 C 0.3554 0.7265 0.24694 0.0
C17 C 0.35876 0.73765 0.23231 0.0
C18 C 0.34439 0.73758 0.21784 0.0
C19 C 0.32637 0.72582 0.21765 0.0
N20 N 0.34893 0.74933 0.20362 0.0
C21 C 0.33553 0.75413 0.19056 0.0
H22 H 0.03272 0.45976 0.05007 0.0
H23 H 0.99815 0.50685 0.05654 0.0
H24 H 0.99106 0.46547 0.00525 0.0
C25 C 0.0218 0.46752 0.04434 0.0
C26 C 0.01244 0.4604 0.02636 0.0
C27 C 0.01686 0.4843 0.05531 0.0
C28 C 1.00201 0.49388 0.04823 0.0
C29 C 0.99275 0.48699 0.03005 0.0
C30 C 0.99812 0.47045 0.01931 0.0
N31 N 0.97831 0.49632 0.02159 0.0
C32 C 0.96885 0.5111 0.03047 0.0
H33 H 0.77522 0.83601 0.20778 0.0
H34 H 0.71693 0.81537 0.22116 0.0
H35 H 0.74481 0.87156 0.24718 0.0
C36 C 0.76237 0.83798 0.21557 0.0
C37 C 0.76207 0.85522 0.22807 0.0
C38 C 0.7462 0.8234 0.21299 0.0
C39 C 0.72953 0.82638 0.22309 0.0
C40 C 0.72907 0.84385 0.23539 0.0
C41 C 0.7453 0.85811 0.23774 0.0
N42 N 0.71231 0.84801 0.24504 0.0
C43 C 0.699 0.83425 0.25131 0.0
H44 H 0.07246 0.0193 0.47773 0.0
H45 H 0.08524 0.01632 0.53693 0.0
H46 H 0.03012 0.98959 0.5095 0.0
C47 C 0.06837 0.01429 0.49088 0.0
C48 C 0.04975 0.00398 0.49162 0.0
C49 C 0.08142 0.01882 0.50708 0.0
C50 C 0.0757 0.01252 0.52409 0.0
C51 C 0.05752 1.00158 0.52487 0.0
C52 C 0.04448 0.9974 0.50866 0.0
N53 N 0.05203 0.99645 0.54257 0.0
C54 C 0.04573 0.97753 0.54514 0.0
H55 H 0.2528 0.70259 0.81598 0.0
H56 H 0.20177 0.71718 0.7871 0.0
H57 H 0.22842 0.66795 0.76365 0.0
C58 C 0.24186 0.69977 0.80419 0.0
C59 C 0.24267 0.68406 0.78977 0.0
C60 C 0.22717 0.71189 0.80343 0.0
C61 C 0.21302 0.70791 0.788 0.0
C62 C 0.21348 0.69197 0.7737 0.0
C63 C 0.22825 0.68022 0.77473 0.0
N64 N 0.19935 0.68712 0.75809 0.0
C65 C 0.18552 0.69863 0.75327 0.0
H66 H 0.94908 0.52937 0.49898 0.0
H67 H 0.9939 0.53631 0.45948 0.0
H68 H 0.95045 0.48619 0.45007 0.0
C69 C 0.95605 0.52399 0.48634 0.0
C70 C 0.94786 0.50643 0.47535 0.0
C71 C 0.97265 0.53498 0.48078 0.0
C72 C 0.98107 0.52809 0.46387 0.0
C73 C 0.97295 0.51044 0.45279 0.0
C74 C 0.95645 0.49985 0.45861 0.0
N75 N 0.98073 0.50264 0.43568 0.0
C76 C 0.99732 0.51047 0.42779 0.0
H77 H 0.83584 0.75013 0.8055 0.0
H78 H 0.80402 0.7837 0.77171 0.0
H79 H 0.77737 0.75982 0.81773 0.0
C80 C 0.82285 0.75656 0.80245 0.0
C81 C 0.80683 0.75374 0.8136 0.0
C82 C 0.82203 0.76715 0.78708 0.0
C83 C 0.80515 0.77581 0.78362 0.0
C84 C 0.78907 0.77304 0.79472 0.0
C85 C 0.78992 0.76184 0.80935 0.0
N86 N 0.77122 0.77995 0.7906 0.0
C87 C 0.76964 0.79833 0.7862 0.0
H88 H 0.33581 0.2593 0.29325 0.0
H89 H 0.30606 0.29929 0.2658 0.0
H90 H 0.2815 0.27527 0.31287 0.0
C91 C 0.32363 0.26744 0.29212 0.0
C92 C 0.3088 0.26576 0.3048 0.0
C93 C 0.32278 0.27939 0.27787 0.0
C94 C 0.307 0.29019 0.27677 0.0
C95 C 0.29202 0.28849 0.28938 0.0
C96 C 0.29302 0.27624 0.30312 0.0
N97 N 0.27534 0.29828 0.28858 0.0
C98 C 0.27314 0.3138 0.27895 0.0
H99 H 0.52551 0.96382 0.55994 0.0
H100 H 0.51156 0.02065 0.5802 0.0
H101 H 0.48369 0.98898 0.52779 0.0
C102 C 0.51725 0.97565 0.55828 0.0
C103 C 0.50423 0.97428 0.54221 0.0
C104 C 0.5199 0.9922 0.57217 0.0
C105 C 0.50942 0.00759 0.56979 0.0
C106 C 0.4963 0.00653 0.55399 0.0
C107 C 0.49368 0.98982 0.54014 0.0
N108 N 0.4866 0.02289 0.55238 0.0
C109 C 0.46964 0.02291 0.54117 0.0
H110 H 0.28095 0.33785 0.69361 0.0
H111 H 0.22923 0.31126 0.71611 0.0
H112 H 0.25176 0.37051 0.7365 0.0
C113 C 0.26941 0.33848 0.70333 0.0
C114 C 0.26843 0.35594 0.71536 0.0
C115 C 0.25538 0.32213 0.70337 0.0
C116 C 0.24006 0.32365 0.71566 0.0
C117 C 0.23865 0.34128 0.72733 0.0
C118 C 0.25278 0.35721 0.72705 0.0
N119 N 0.22317 0.34383 0.7394 0.0
C120 C 0.21084 0.329 0.74525 0.0
H121 H 0.84305 0.20073 0.76048 0.0
H122 H 0.87545 0.24863 0.73963 0.0
H123 H 0.81774 0.22617 0.7153 0.0
C124 C 0.84398 0.21165 0.75114 0.0
C125 C 0.82824 0.21208 0.73806 0.0
C126 C 0.86115 0.22465 0.75179 0.0
C127 C 0.86242 0.23826 0.73916 0.0
C128 C 0.84693 0.23901 0.72608 0.0
C129 C 0.8298 0.22578 0.72542 0.0
N130 N 0.84933 0.25331 0.71391 0.0
C131 C 0.83499 0.25734 0.70135 0.0
H132 H 0.56742 0.5136 0.56867 0.0
H133 H 0.56531 0.50939 0.50762 0.0
H134 H 0.52338 0.53833 0.53896 0.0
C135 C 0.56087 0.51671 0.55553 0.0
C136 C 0.54424 0.52641 0.55598 0.0
C137 C 0.56885 0.51072 0.53817 0.0
C138 C 0.55983 0.51439 0.52121 0.0
C139 C 0.54379 0.52462 0.52151 0.0
C140 C 0.53604 0.53069 0.53887 0.0
N141 N 0.53527 0.52802 0.50405 0.0
C142 C 0.53082 0.54613 0.50124 0.0
H143 H 0.57074 0.5253 0.97429 0.0
H144 H 0.57227 0.49877 0.02517 0.0
H145 H 0.51926 0.49187 0.98968 0.0
C146 C 0.56346 0.51654 0.98387 0.0
C147 C 0.54383 0.50873 0.97971 0.0
C148 C 0.57386 0.51322 1.00029 0.0
C149 C 0.5646 0.50115 0.01228 0.0
C150 C 0.54485 0.49346 0.00836 0.0
C151 C 0.5346 0.49745 0.99226 0.0
N152 N 0.53428 0.48342 0.02131 0.0
C153 C 0.54076 0.46864 0.02992 0.0
H154 H 0.75746 0.20039 0.32099 0.0
H155 H 0.70609 0.21261 0.29089 0.0
H156 H 0.733 0.16248 0.27048 0.0
C157 C 0.74648 0.19673 0.30925 0.0
C158 C 0.74728 0.18018 0.29582 0.0
C159 C 0.73168 0.20857 0.30766 0.0
C160 C 0.71746 0.20356 0.29236 0.0
C161 C 0.71798 0.1869 0.27895 0.0
C162 C 0.73282 0.17536 0.28081 0.0
N163 N 0.70378 0.18109 0.26347 0.0
C164 C 0.68991 0.19224 0.25791 0.0
H165 H 0.4492 0.0331 0.9986 0.0
H166 H 0.49727 0.03486 0.96223 0.0
H167 H 0.45715 0.98269 0.95945 0.0
C168 C 0.45713 0.02618 0.98736 0.0
C169 C 0.45099 0.00675 0.97968 0.0
C170 C 0.47386 0.03648 0.98127 0.0
C171 C 0.48443 0.02708 0.96708 0.0
C172 C 0.47831 0.00761 0.95924 0.0
C173 C 0.46178 0.99764 0.96569 0.0
N174 N 0.48835 0.99724 0.94505 0.0
C175 C 0.503 0.00507 0.93463 0.0
Mg176 Mg 0.23954 0.86099 0.01879 0.0
O177 O 0.26944 0.87942 0.01769 0.0
O178 O 0.2918 0.85902 0.0161 0.0
Mg179 Mg 0.27688 0.82822 0.01589 0.0
C180 C 0.28713 0.87609 0.01673 0.0
C181 C 0.22587 0.90186 0.0259 0.0
O182 O 0.23932 0.90357 0.0399 0.0
O183 O 0.23923 0.84974 0.98688 0.0
O184 O 0.26172 0.82947 0.98677 0.0
O185 O 0.24348 0.86333 0.05058 0.0
O186 O 0.25279 0.83996 0.0304 0.0
C187 C 0.24903 0.8374 0.97811 0.0
C188 C 0.25187 0.84782 0.04773 0.0
O189 O 0.22322 0.88637 0.01393 0.0
Mg190 Mg 0.17001 0.51977 0.26083 0.0
O191 O 0.14985 0.51546 0.23321 0.0
O192 O 0.16964 0.51594 0.20933 0.0
Mg193 Mg 0.20144 0.5203 0.22085 0.0
C194 C 0.15257 0.51458 0.21546 0.0
C195 C 0.1472 0.5202 0.296 0.0
O196 O 0.16404 0.53083 0.30139 0.0
O197 O 0.17717 0.48845 0.25493 0.0
O198 O 0.19744 0.49083 0.23159 0.0
O199 O 0.1718 0.55201 0.26258 0.0
O200 O 0.19241 0.53458 0.2478 0.0
C201 C 0.1887 0.48108 0.24325 0.0
C202 C 0.18673 0.55126 0.25236 0.0
O203 O 0.14435 0.51207 0.27875 0.0
Mg204 Mg 0.79428 0.66489 0.02789 0.0
O205 O 0.76517 0.64409 0.02388 0.0
O206 O 0.74178 0.66303 0.02167 0.0
Mg207 Mg 0.75494 0.69474 0.0243 0.0
C208 C 0.74717 0.64634 0.02188 0.0
C209 C 0.83077 0.64535 0.02529 0.0
O210 O 0.83688 0.66401 0.02911 0.0
O211 O 0.79263 0.66881 0.99633 0.0
O212 O 0.76962 0.68842 0.99619 0.0
O213 O 0.79202 0.66943 0.05948 0.0
O214 O 0.78016 0.68765 0.04024 0.0
C215 C 0.78229 0.67919 0.98773 0.0
C216 C 0.78234 0.68362 0.05722 0.0
O217 O 0.8125 0.63987 0.02282 0.0
Mg218 Mg 0.94332 0.05033 0.28276 0.0
O219 O 0.92457 0.02124 0.27194 0.0
O220 O 0.94454 0.99918 0.26392 0.0
Mg221 Mg 0.97596 0.0143 0.26859 0.0
C222 C 0.92746 0.00393 0.26574 0.0
C223 C 0.91546 0.08033 0.29135 0.0
O224 O 0.92997 0.08944 0.28352 0.0
O225 O 0.95124 0.03942 0.31078 0.0
O226 O 0.97223 0.01907 0.30073 0.0
O227 O 0.94354 0.05718 0.25305 0.0
O228 O 0.96568 0.04208 0.26585 0.0
C229 C 0.96326 0.02767 0.31403 0.0
C230 C 0.95874 0.04826 0.25112 0.0
O231 O 0.91646 0.06299 0.29408 0.0
Mg232 Mg 0.30221 0.16854 0.51506 0.0
O233 O 0.27136 0.15133 0.51081 0.0
O234 O 0.25027 0.17301 0.51249 0.0
Mg235 Mg 0.26711 0.20355 0.51689 0.0
C236 C 0.25392 0.15551 0.51053 0.0
C237 C 0.31275 0.12625 0.51411 0.0
O238 O 0.29944 0.12602 0.52666 0.0
O239 O 0.30015 0.17554 0.48454 0.0
O240 O 0.27952 0.19766 0.48751 0.0
O241 O 0.30071 0.17033 0.54672 0.0
O242 O 0.29154 0.19225 0.53017 0.0
C243 C 0.29069 0.18768 0.47757 0.0
C244 C 0.29306 0.18614 0.54628 0.0
O245 O 0.31634 0.14119 0.50605 0.0
Mg246 Mg 0.4416 0.5589 0.7672 0.0
O247 O 0.42319 0.52937 0.75688 0.0
O248 O 0.44336 0.50788 0.74779 0.0
Mg249 Mg 0.47458 0.5234 0.75235 0.0
C250 C 0.42621 0.51223 0.75021 0.0
C251 C 0.39927 0.56916 0.76895 0.0
O252 O 0.3987 0.55919 0.75181 0.0
O253 O 0.45065 0.54844 0.79503 0.0
O254 O 0.47146 0.52801 0.78466 0.0
O255 O 0.441 0.56588 0.7375 0.0
O256 O 0.46367 0.55099 0.74972 0.0
C257 C 0.46275 0.53672 0.79812 0.0
C258 C 0.45636 0.55725 0.73519 0.0
O259 O 0.41492 0.5712 0.77956 0.0
Mg260 Mg 0.74244 0.35665 0.5225 0.0
O261 O 0.77231 0.37506 0.52146 0.0
O262 O 0.79482 0.35484 0.52083 0.0
Mg263 Mg 0.77991 0.32407 0.52097 0.0
C264 C 0.79005 0.37181 0.52093 0.0
C265 C 0.72686 0.39633 0.52989 0.0
O266 O 0.73811 0.39698 0.5454 0.0
O267 O 0.74274 0.34496 0.4908 0.0
O268 O 0.7651 0.32465 0.49148 0.0
O269 O 0.74573 0.35956 0.55432 0.0
O270 O 0.75554 0.33592 0.53487 0.0
C271 C 0.75258 0.33243 0.48241 0.0
C272 C 0.75421 0.34409 0.55203 0.0
O273 O 0.72627 0.38188 0.5168 0.0
Mg274 Mg 0.681 0.01571 0.77219 0.0
O275 O 0.66202 0.00948 0.74383 0.0
O276 O 0.68269 0.0079 0.72062 0.0
Mg277 Mg 0.71403 0.0134 0.7334 0.0
C278 C 0.66539 0.00705 0.72618 0.0
C279 C 0.65509 0.02014 0.80528 0.0
O280 O 0.67036 0.03333 0.80998 0.0
O281 O 0.68814 0.98437 0.76868 0.0
O282 O 0.70926 0.98495 0.7459 0.0
O283 O 0.68257 0.04758 0.77167 0.0
O284 O 0.70383 0.02958 0.75889 0.0
C285 C 0.69992 0.97616 0.75788 0.0
C286 C 0.69778 0.04626 0.76192 0.0
O287 O 0.65449 0.00903 0.78942 0.0
Mg288 Mg 0.06319 0.23968 0.9083 0.0
O289 O 0.03377 0.23262 0.89088 0.0
O290 O 0.01096 0.22445 0.91051 0.0
Mg291 Mg 0.02568 0.22599 0.94023 0.0
C292 C 0.01604 0.22735 0.89403 0.0
C293 C 0.09358 0.24704 0.8798 0.0
O294 O 0.10063 0.23486 0.88981 0.0
O295 O 0.05447 0.2687 0.92166 0.0
O296 O 0.03278 0.25904 0.94178 0.0
O297 O 0.06796 0.20858 0.90287 0.0
O298 O 0.05331 0.22149 0.92749 0.0
C299 C 0.04273 0.27245 0.93461 0.0
C300 C 0.05882 0.20634 0.91801 0.0
O301 O 0.07734 0.25269 0.88389 0.0
Mg302 Mg 0.54683 0.75824 0.41759 0.0
O303 O 0.51847 0.74836 0.39887 0.0
O304 O 0.49477 0.74039 0.41767 0.0
Mg305 Mg 0.50772 0.74572 0.44837 0.0
C306 C 0.50073 0.74226 0.40125 0.0
C307 C 0.57748 0.76246 0.38837 0.0
O308 O 0.58384 0.75024 0.39876 0.0
O309 O 0.53602 0.78728 0.4274 0.0
O310 O 0.51302 0.77839 0.44661 0.0
O311 O 0.55304 0.72766 0.41551 0.0
O312 O 0.53651 0.74168 0.43809 0.0
C313 C 0.52293 0.79137 0.43885 0.0
C314 C 0.54307 0.72631 0.43029 0.0
O315 O 0.56179 0.76929 0.3925 0.0
Mg316 Mg 0.99196 0.75238 0.61724 0.0
O317 O 0.02045 0.75044 0.63475 0.0
O318 O 0.04318 0.74657 0.61375 0.0
Mg319 Mg 0.02976 0.74503 0.58353 0.0
C320 C 0.03797 0.74838 0.63083 0.0
C321 C 0.97293 0.75208 0.65608 0.0
O322 O 0.97886 0.73493 0.65351 0.0
O323 O 1.00322 0.78318 0.6119 0.0
O324 O 0.02461 0.77689 0.59003 0.0
O325 O 0.98445 0.72002 0.61354 0.0
O326 O 1.00125 0.73549 0.59355 0.0
C327 C 0.01538 0.78877 0.60019 0.0
C328 C 0.99409 0.71927 0.59837 0.0
O329 O 0.97708 0.76352 0.6441 0.0
Mg330 Mg 0.5027 0.25426 0.11788 0.0
O331 O 0.52964 0.25014 0.1368 0.0
O332 O 0.55313 0.2452 0.11685 0.0
Mg333 Mg 0.54193 0.24535 0.08625 0.0
C334 C 0.54709 0.247 0.13361 0.0
C335 C 0.46809 0.26029 0.14123 0.0
O336 O 0.4612 0.24992 0.12492 0.0
O337 O 0.51644 0.28479 0.11395 0.0
O338 O 0.53903 0.27774 0.09354 0.0
O339 O 0.49302 0.22228 0.11315 0.0
O340 O 0.51233 0.23712 0.09454 0.0
C341 C 0.52998 0.29002 0.10341 0.0
C342 C 0.50355 0.22114 0.09859 0.0
O343 O 0.48641 0.2655 0.14374 0.0
H344 H 0.25808 0.73652 0.82222 0.0
H345 H 0.25752 0.76178 0.84937 0.0
H346 H 0.1947 0.75155 0.84598 0.0
H347 H 0.19514 0.72531 0.81954 0.0
H348 H 0.24249 0.79533 0.8546 0.0
H349 H 0.2068 0.74534 0.90027 0.0
H350 H 0.21585 0.7367 0.87772 0.0
H351 H 0.19297 0.7463 0.87856 0.0
C352 C 0.24412 0.73942 0.82736 0.0
C353 C 0.22667 0.72855 0.81886 0.0
C354 C 0.24382 0.75406 0.84278 0.0
C355 C 0.2261 0.75832 0.85 0.0
C356 C 0.20859 0.7482 0.84098 0.0
H357 H 0.2146 0.83557 0.95689 0.0
H358 H 0.20684 0.81932 0.92397 0.0
C359 C 0.20887 0.73335 0.82567 0.0
C360 C 0.22622 0.7729 0.86734 0.0
H361 H 0.21459 0.77803 0.91376 0.0
C362 C 0.2362 0.79159 0.86748 0.0
C363 C 0.21803 0.76804 0.88418 0.0
C364 C 0.20796 0.74798 0.88532 0.0
C365 C 0.23873 0.80528 0.88411 0.0
C366 C 0.23104 0.80019 0.90099 0.0
C367 C 0.22031 0.78189 0.90069 0.0
C368 C 0.23606 0.81255 0.91963 0.0
C369 C 0.25004 0.82494 0.88371 0.0
C370 C 0.25507 0.81429 0.9279 0.0
C371 C 0.25945 0.82326 0.94665 0.0
C372 C 0.24493 0.83082 0.95747 0.0
C373 C 0.22611 0.83 0.94884 0.0
C374 C 0.22164 0.8207 0.9301 0.0
H375 H 0.25099 0.82829 0.86897 0.0
H376 H 0.24324 0.83644 0.89234 0.0
H377 H 0.26508 0.82523 0.88994 0.0
H378 H 0.26633 0.80788 0.92013 0.0
H379 H 0.2741 0.82372 0.9529 0.0
H380 H 0.99713 0.5284 0.39686 0.0
H381 H 0.02309 0.53094 0.37464 0.0
H382 H 0.05989 0.50456 0.41108 0.0
H383 H 0.0338 0.50181 0.43316 0.0
H384 H 0.06185 0.54851 0.37849 0.0
H385 H 0.05697 0.46862 0.35997 0.0
H386 H 0.0388 0.48024 0.37299 0.0
H387 H 0.06148 0.47743 0.38494 0.0
C388 C 0.01094 0.52353 0.40025 0.0
C389 C 0.01367 0.51506 0.41666 0.0
C390 C 0.02569 0.52489 0.38754 0.0
C391 C 0.04329 0.5176 0.39102 0.0
C392 C 0.0463 0.50993 0.40793 0.0
H393 H 0.14991 0.53559 0.33356 0.0
H394 H 0.12442 0.53482 0.35602 0.0
C395 C 0.03153 0.50856 0.42062 0.0
C396 C 0.05817 0.51746 0.37665 0.0
H397 H 0.0827 0.48735 0.34734 0.0
C398 C 0.0664 0.53515 0.37166 0.0
C399 C 0.06381 0.49998 0.36747 0.0
C400 C 0.0547 0.48046 0.37144 0.0
C401 C 0.08045 0.53585 0.35807 0.0
C402 C 0.08662 0.51842 0.34942 0.0
C403 C 0.07808 0.50071 0.35409 0.0
C404 C 0.10217 0.51832 0.33574 0.0
C405 C 0.08837 0.55526 0.35292 0.0
C406 C 0.09834 0.50869 0.31698 0.0
C407 C 0.11298 0.50898 0.30403 0.0
C408 C 0.13175 0.51882 0.30969 0.0
C409 C 0.1356 0.528 0.32864 0.0
C410 C 0.121 0.5277 0.34151 0.0
H411 H 0.0785 0.5663 0.3567 0.0
H412 H 0.10266 0.56042 0.36087 0.0
H413 H 0.0906 0.55414 0.33747 0.0
H414 H 0.08393 0.50122 0.31227 0.0
H415 H 0.10954 0.50173 0.28957 0.0
H416 H 0.83667 0.75518 0.84069 0.0
H417 H 0.83663 0.7383 0.86852 0.0
H418 H 0.77832 0.71036 0.85104 0.0
H419 H 0.77847 0.72667 0.823 0.0
H420 H 0.81178 0.74261 0.89685 0.0
H421 H 0.80455 0.66535 0.86508 0.0
H422 H 0.81177 0.68477 0.85175 0.0
H423 H 0.78643 0.6779 0.8552 0.0
C424 C 0.82402 0.7451 0.84255 0.0
C425 C 0.80754 0.74234 0.82966 0.0
C426 C 0.82398 0.73552 0.8585 0.0
C427 C 0.80757 0.72285 0.86176 0.0
C428 C 0.79131 0.71972 0.84865 0.0
H429 H 0.76057 0.69697 0.96431 0.0
H430 H 0.76853 0.70599 0.93355 0.0
C431 C 0.79132 0.72929 0.83275 0.0
C432 C 0.80661 0.71442 0.87973 0.0
H433 H 0.79582 0.67199 0.89757 0.0
C434 C 0.8086 0.72715 0.897 0.0
C435 C 0.80263 0.69422 0.87998 0.0
C436 C 0.80142 0.67975 0.86202 0.0
C437 C 0.80578 0.72033 0.91437 0.0
C438 C 0.80062 0.70026 0.9145 0.0
C439 C 0.79957 0.68739 0.89739 0.0
C440 C 0.79506 0.69276 0.93219 0.0
C441 C 0.80794 0.7347 0.93248 0.0
C442 C 0.80698 0.68163 0.94129 0.0
C443 C 0.80246 0.67637 0.95903 0.0
C444 C 0.78592 0.68215 0.96786 0.0
C445 C 0.77354 0.69242 0.95811 0.0
C446 C 0.77806 0.69764 0.94049 0.0
H447 H 0.81648 0.74866 0.93061 0.0
H448 H 0.79327 0.73766 0.93674 0.0
H449 H 0.81517 0.72881 0.94422 0.0
H450 H 0.82012 0.67764 0.93502 0.0
H451 H 0.8123 0.66845 0.96611 0.0
H452 H 0.01271 0.01342 0.49089 0.0
H453 H 0.99145 0.01485 0.46266 0.0
H454 H 0.0339 0.99174 0.42658 0.0
H455 H 0.05517 0.99034 0.45467 0.0
H456 H 0.00473 0.03741 0.43326 0.0
H457 H 0.98059 0.96019 0.40455 0.0
H458 H 0.98909 0.96829 0.42914 0.0
H459 H 0.00626 0.96585 0.41107 0.0
C460 C 0.01723 0.00815 0.47694 0.0
C461 C 0.03555 1.00172 0.47493 0.0
C462 C 0.00515 0.00909 0.46086 0.0
C463 C 0.01105 0.00327 0.44256 0.0
C464 C 0.02895 0.99605 0.44058 0.0
H465 H 0.99066 0.00662 0.32598 0.0
H466 H 0.9989 1.00108 0.35808 0.0
C467 C 0.04111 0.99532 0.45661 0.0
C468 C 0.99959 0.00644 0.42543 0.0
H469 H 0.97771 0.98303 0.38306 0.0
C470 C 0.99846 0.02556 0.42239 0.0
C471 C 0.99149 0.99093 0.41134 0.0
C472 C 0.99172 0.97013 0.41419 0.0
C473 C 0.99055 0.02961 0.40508 0.0
C474 C 0.98315 0.01408 0.39062 0.0
C475 C 0.9834 0.99494 0.39411 0.0
C476 C 0.97716 0.01727 0.37111 0.0
C477 C 0.99131 0.05047 0.40201 0.0
C478 C 0.96199 0.02811 0.36761 0.0
C479 C 0.95729 0.03152 0.34909 0.0
C480 C 0.96754 0.02394 0.33374 0.0
C481 C 0.98241 0.01274 0.33736 0.0
C482 C 0.98714 0.00948 0.35577 0.0
H483 H 1.00101 0.06045 0.41301 0.0
H484 H 0.99653 0.05238 0.3878 0.0
H485 H 0.97646 0.05476 0.40267 0.0
H486 H 0.95381 0.03395 0.37917 0.0
H487 H 0.94567 0.04007 0.34681 0.0
H488 H 0.22542 0.29567 0.68469 0.0
H489 H 0.22786 0.26713 0.66149 0.0
H490 H 0.29058 0.27968 0.66737 0.0
H491 H 0.28834 0.3069 0.69186 0.0
H492 H 0.23973 0.26511 0.62868 0.0
H493 H 0.28675 0.22368 0.66653 0.0
H494 H 0.2763 0.24379 0.6788 0.0
H495 H 0.29904 0.24775 0.66765 0.0
C496 C 0.23976 0.29201 0.68158 0.0
C497 C 0.25667 0.30382 0.6902 0.0
C498 C 0.24113 0.27573 0.6681 0.0
C499 C 0.25941 0.27096 0.66276 0.0
C500 C 0.27628 0.28256 0.67154 0.0
H501 H 0.28741 0.22393 0.55221 0.0
H502 H 0.27716 0.2423 0.5808 0.0
C503 C 0.27494 0.29852 0.68531 0.0
C504 C 0.26095 0.25512 0.64677 0.0
H505 H 0.28798 0.21904 0.63195 0.0
C506 C 0.25001 0.2548 0.62957 0.0
C507 C 0.27391 0.24118 0.64786 0.0
C508 C 0.28445 0.23899 0.66631 0.0
C509 C 0.25255 0.24182 0.61325 0.0
C510 C 0.26712 0.22942 0.6138 0.0
C511 C 0.27715 0.22885 0.63128 0.0
C512 C 0.273 0.21789 0.59627 0.0
C513 C 0.23951 0.24163 0.59561 0.0
C514 C 0.27502 0.19815 0.59561 0.0
C515 C 0.28153 0.18771 0.57938 0.0
C516 C 0.28591 0.19678 0.56346 0.0
C517 C 0.28384 0.21646 0.56414 0.0
C518 C 0.27778 0.22696 0.58045 0.0
H519 H 0.22497 0.24551 0.59941 0.0
H520 H 0.24607 0.25263 0.58724 0.0
H521 H 0.23742 0.22723 0.58654 0.0
H522 H 0.27161 0.19083 0.60766 0.0
H523 H 0.28303 0.17256 0.57925 0.0
H524 H 0.56193 0.54242 0.59092 0.0
H525 H 0.54651 0.54826 0.62117 0.0
H526 H 0.4902 0.52704 0.59239 0.0
H527 H 0.50548 0.52095 0.56217 0.0
H528 H 0.51447 0.57166 0.6306 0.0
H529 H 0.49657 0.49346 0.63618 0.0
H530 H 0.51472 0.50222 0.62095 0.0
H531 H 0.48928 0.50066 0.61394 0.0
C532 C 0.54627 0.53899 0.59105 0.0
C533 C 0.53493 0.53117 0.57417 0.0
C534 C 0.53749 0.54242 0.6083 0.0
C535 C 0.51726 0.53789 0.609 0.0
C536 C 0.50585 0.53047 0.59215 0.0
H537 H 0.44336 0.5677 0.7017 0.0
H538 H 0.45801 0.56334 0.67097 0.0
C539 C 0.5146 0.52715 0.57488 0.0
C540 C 0.5081 0.54061 0.62742 0.0
H541 H 0.4847 0.51578 0.65945 0.0
C542 C 0.50793 0.55948 0.63693 0.0
C543 C 0.49978 0.52464 0.63567 0.0
C544 C 0.50016 0.50407 0.62629 0.0
C545 C 0.49942 0.56281 0.65444 0.0
C546 C 0.49081 0.54685 0.66253 0.0
C547 C 0.49119 0.52798 0.65311 0.0
C548 C 0.48178 0.54941 0.68103 0.0
C549 C 0.49997 0.58334 0.66432 0.0
C550 C 0.49011 0.54271 0.69676 0.0
C551 C 0.48181 0.54519 0.71432 0.0
C552 C 0.46486 0.55421 0.71644 0.0
C553 C 0.45641 0.5607 0.70057 0.0
C554 C 0.4648 0.55831 0.68302 0.0
H555 H 0.51043 0.59364 0.65815 0.0
H556 H 0.48526 0.58786 0.66285 0.0
H557 H 0.50406 0.58437 0.67974 0.0
H558 H 0.5032 0.53578 0.69549 0.0
H559 H 0.48882 0.54019 0.72624 0.0
H560 H 0.82906 0.24373 0.66396 0.0
H561 H 0.81221 0.25878 0.63997 0.0
H562 H 0.79666 0.3017 0.68427 0.0
H563 H 0.81369 0.28673 0.70821 0.0
H564 H 0.77307 0.26782 0.63559 0.0
H565 H 0.82831 0.33357 0.64891 0.0
H566 H 0.83208 0.31131 0.65749 0.0
H567 H 0.81644 0.327 0.6694 0.0
C568 C 0.82168 0.25614 0.66851 0.0
C569 C 0.82248 0.26413 0.68776 0.0
C570 C 0.81214 0.26474 0.65486 0.0
C571 C 0.80347 0.28152 0.66034 0.0
C572 C 0.80352 0.28894 0.67974 0.0
H573 H 0.75511 0.3588 0.5899 0.0
H574 H 0.76593 0.34386 0.61695 0.0
C575 C 0.81306 0.28033 0.69338 0.0
C576 C 0.79532 0.29176 0.64565 0.0
H577 H 0.8026 0.3334 0.62601 0.0
C578 C 0.77946 0.28219 0.63352 0.0
C579 C 0.80369 0.31051 0.64304 0.0
C580 C 0.82117 0.32121 0.65527 0.0
C581 C 0.77176 0.29087 0.61878 0.0
C582 C 0.78042 0.30943 0.61589 0.0
C583 C 0.79601 0.31917 0.62827 0.0
C584 C 0.77407 0.31863 0.5996 0.0
C585 C 0.75434 0.28014 0.60651 0.0
C586 C 0.77552 0.30961 0.58092 0.0
C587 C 0.7694 0.31809 0.56549 0.0
C588 C 0.76186 0.33586 0.56843 0.0
C589 C 0.76085 0.34511 0.58717 0.0
C590 C 0.76699 0.33659 0.60262 0.0
H591 H 0.74612 0.26906 0.6138 0.0
H592 H 0.74429 0.29026 0.60256 0.0
H593 H 0.75939 0.27257 0.59324 0.0
H594 H 0.78136 0.29597 0.57826 0.0
H595 H 0.77033 0.31053 0.55128 0.0
H596 H 0.55686 0.98241 0.57285 0.0
H597 H 0.57979 0.98456 0.60055 0.0
H598 H 0.53757 0.0074 0.63708 0.0
H599 H 0.51442 0.00506 0.60945 0.0
H600 H 0.5935 0.01992 0.62707 0.0
H601 H 0.55541 0.96131 0.66196 0.0
H602 H 0.55073 0.96285 0.63707 0.0
H603 H 0.54104 0.97904 0.65492 0.0
C604 C 0.55237 0.98768 0.5868 0.0
C605 C 0.53381 0.9935 0.58898 0.0
C606 C 0.56551 0.98898 0.60258 0.0
C607 C 0.56027 0.99593 0.62085 0.0
C608 C 0.54178 1.00176 0.62312 0.0
H609 H 0.62696 0.01165 0.73098 0.0
H610 H 0.60075 0.00928 0.70602 0.0
C611 C 0.52866 1.00058 0.60732 0.0
C612 C 0.57451 0.99769 0.63739 0.0
H613 H 0.58417 0.97891 0.67797 0.0
C614 C 0.59147 0.01098 0.63822 0.0
C615 C 0.57168 0.98613 0.65197 0.0
C616 C 0.55381 0.97141 0.6515 0.0
C617 C 0.60577 0.013 0.65324 0.0
C618 C 0.60327 1.00103 0.66756 0.0
C619 C 0.58609 0.98801 0.66694 0.0
C620 C 0.6187 1.00138 0.68283 0.0
C621 C 0.62335 0.02811 0.65372 0.0
C622 C 0.63727 0.99713 0.6781 0.0
C623 C 0.65224 0.99855 0.69224 0.0
C624 C 0.64892 0.00403 0.7115 0.0
C625 C 0.63004 0.00745 0.7163 0.0
C626 C 0.61505 0.00612 0.70206 0.0
H627 H 0.62032 0.03969 0.64535 0.0
H628 H 0.62814 0.03487 0.66854 0.0
H629 H 0.63553 0.02114 0.64739 0.0
H630 H 0.64027 0.99293 0.6634 0.0
H631 H 0.6665 0.99555 0.68801 0.0
H632 H 0.85972 0.21951 0.78913 0.0
H633 H 0.88706 0.21863 0.81188 0.0
H634 H 0.92735 0.22753 0.76865 0.0
H635 H 0.9001 0.22818 0.7457 0.0
H636 H 0.91666 0.19335 0.80904 0.0
H637 H 0.94715 0.27092 0.81348 0.0
H638 H 0.92272 0.26159 0.80376 0.0
H639 H 0.94319 0.25743 0.7899 0.0
C640 C 0.87438 0.22112 0.7844 0.0
C641 C 0.87773 0.224 0.76561 0.0
C642 C 0.88997 0.22069 0.79745 0.0
C643 C 0.9092 0.22326 0.79199 0.0
C644 C 0.91262 0.22589 0.77322 0.0
H645 H 0.02074 0.23201 0.85681 0.0
H646 H 0.99526 0.22959 0.83128 0.0
C647 C 0.89704 0.22629 0.76015 0.0
C648 C 0.92564 0.22309 0.80598 0.0
H649 H 0.96499 0.25155 0.83033 0.0
C650 C 0.92725 0.20606 0.81371 0.0
C651 C 0.93945 0.23967 0.81194 0.0
C652 C 0.93805 0.25851 0.80449 0.0
C653 C 0.94238 0.20513 0.82723 0.0
C654 C 0.956 0.22182 0.83345 0.0
C655 C 0.95453 0.23877 0.82551 0.0
C656 C 0.97147 0.22226 0.84867 0.0
C657 C 0.94378 0.18622 0.83455 0.0
C658 C 0.96653 0.21902 0.86693 0.0
C659 C 0.98102 0.22033 0.88155 0.0
C660 C 1.00078 0.2251 0.87825 0.0
C661 C 0.00568 0.22827 0.85988 0.0
C662 C 0.99115 0.22691 0.84525 0.0
H663 H 0.93613 0.17371 0.82452 0.0
H664 H 0.9592 0.18392 0.83698 0.0
H665 H 0.9368 0.1865 0.84829 0.0
H666 H 0.9514 0.21585 0.87001 0.0
H667 H 0.97667 0.21791 0.8955 0.0
H668 H 0.5006 0.93657 0.54798 0.0
H669 H 0.50284 0.90801 0.52463 0.0
H670 H 0.50603 0.9434 0.47993 0.0
H671 H 0.50412 0.9723 0.50338 0.0
H672 H 0.47975 0.90339 0.47303 0.0
H673 H 0.55687 0.90317 0.49803 0.0
H674 H 0.54015 0.90613 0.51649 0.0
H675 H 0.54475 0.9246 0.50168 0.0
C676 C 0.50165 0.93829 0.53317 0.0
C677 C 0.50245 0.95673 0.52756 0.0
C678 C 0.50288 0.92197 0.51986 0.0
C679 C 0.50487 0.92369 0.50066 0.0
C680 C 0.50457 0.94184 0.49474 0.0
H681 H 0.54427 0.82441 0.43043 0.0
H682 H 0.53959 0.85807 0.44149 0.0
C683 C 0.50337 0.95828 0.50811 0.0
C684 C 0.50834 0.90657 0.48721 0.0
H685 H 0.54105 0.87435 0.47906 0.0
C686 C 0.49325 0.89716 0.47407 0.0
C687 C 0.52607 0.89869 0.48842 0.0
C688 C 0.543 0.90871 0.50179 0.0
C689 C 0.49505 0.87939 0.46288 0.0
C690 C 0.51229 0.87079 0.46511 0.0
C691 C 0.5278 0.88086 0.47741 0.0
C692 C 0.51388 0.85063 0.45641 0.0
C693 C 0.47836 0.86979 0.44903 0.0
C694 C 0.50098 0.83529 0.4611 0.0
C695 C 0.50365 0.81612 0.45491 0.0
C696 C 0.51937 0.8118 0.44395 0.0
C697 C 0.53201 0.8272 0.43882 0.0
C698 C 0.52935 0.84644 0.44511 0.0
H699 H 0.46955 0.88063 0.44435 0.0
H700 H 0.48365 0.86143 0.43631 0.0
H701 H 0.46863 0.85967 0.45612 0.0
H702 H 0.48923 0.83813 0.47017 0.0
H703 H 0.4936 0.80469 0.45913 0.0
H704 H 0.21981 0.30068 0.76455 0.0
H705 H 0.19821 0.28329 0.78469 0.0
H706 H 0.15086 0.31277 0.7674 0.0
H707 H 0.17237 0.32986 0.7471 0.0
H708 H 0.18136 0.30221 0.81472 0.0
H709 H 0.12391 0.25758 0.76469 0.0
H710 H 0.14689 0.2678 0.757 0.0
H711 H 0.12774 0.28259 0.76149 0.0
C712 C 0.20462 0.30291 0.76466 0.0
C713 C 0.19754 0.3163 0.75423 0.0
C714 C 0.19234 0.29309 0.77619 0.0
C715 C 0.17285 0.29656 0.77739 0.0
C716 C 0.16567 0.30949 0.76637 0.0
H717 H 0.08334 0.27182 0.85564 0.0
H718 H 0.10231 0.28358 0.83038 0.0
C719 C 0.17795 0.31928 0.75483 0.0
C720 C 0.16076 0.28843 0.79173 0.0
H721 H 0.11748 0.26155 0.7976 0.0
C722 C 0.16748 0.29316 0.81095 0.0
C723 C 0.14255 0.27683 0.7868 0.0
C724 C 0.13489 0.27073 0.76636 0.0
C725 C 0.1564 0.28684 0.8254 0.0
C726 C 0.13822 0.27523 0.82048 0.0
C727 C 0.13142 0.2705 0.80129 0.0
C728 C 0.12633 0.26756 0.83516 0.0
C729 C 0.16406 0.29297 0.84585 0.0
C730 C 0.13344 0.25445 0.84595 0.0
C731 C 0.12271 0.24776 0.86034 0.0
C732 C 0.10459 0.25398 0.8642 0.0
C733 C 0.09729 0.26683 0.85309 0.0
C734 C 0.10806 0.27351 0.83863 0.0
H735 H 0.17572 0.30554 0.84745 0.0
H736 H 0.15216 0.29682 0.85501 0.0
H737 H 0.17028 0.28075 0.85107 0.0
H738 H 0.14738 0.24947 0.84329 0.0
H739 H 0.12872 0.23777 0.86852 0.0
H740 H 0.54461 0.58076 0.52172 0.0
H741 H 0.5436 0.61266 0.51168 0.0
H742 H 0.51094 0.58521 0.4597 0.0
H743 H 0.51176 0.55343 0.46988 0.0
H744 H 0.55974 0.62338 0.47972 0.0
H745 H 0.48089 0.63031 0.47658 0.0
H746 H 0.49108 0.61293 0.48915 0.0
H747 H 0.48638 0.60795 0.46374 0.0
C748 C 0.53685 0.5817 0.50838 0.0
C749 C 0.52808 0.5649 0.49659 0.0
C750 C 0.53632 0.59984 0.50263 0.0
C751 C 0.52698 0.60133 0.48505 0.0
C752 C 0.51782 0.58445 0.4735 0.0
H753 H 0.55275 0.69104 0.4153 0.0
H754 H 0.54821 0.66089 0.42887 0.0
C755 C 0.51835 0.56634 0.47926 0.0
C756 C 0.52836 0.62025 0.47799 0.0
H757 H 0.5013 0.65218 0.46085 0.0
C758 C 0.54696 0.62976 0.47575 0.0
C759 C 0.51169 0.62861 0.47294 0.0
C760 C 0.49138 0.61953 0.47588 0.0
C761 C 0.54934 0.64717 0.46817 0.0
C762 C 0.53266 0.65511 0.46237 0.0
C763 C 0.51406 0.6459 0.46508 0.0
C764 C 0.53433 0.67304 0.45358 0.0
C765 C 0.56971 0.65698 0.46655 0.0
C766 C 0.52744 0.68968 0.46266 0.0
C767 C 0.52992 0.70691 0.4549 0.0
C768 C 0.53924 0.70777 0.43785 0.0
C769 C 0.54561 0.6909 0.4285 0.0
C770 C 0.54311 0.67368 0.43627 0.0
H771 H 0.58056 0.65185 0.47598 0.0
H772 H 0.57383 0.65363 0.45168 0.0
H773 H 0.57054 0.67295 0.47022 0.0
H774 H 0.52056 0.68945 0.476 0.0
H775 H 0.52492 0.71965 0.4625 0.0
H776 H 0.83771 0.7979 0.77011 0.0
H777 H 0.86356 0.79829 0.74766 0.0
H778 H 0.86916 0.73882 0.75248 0.0
H779 H 0.84303 0.73804 0.77417 0.0
H780 H 0.90245 0.79137 0.75177 0.0
H781 H 0.86127 0.73726 0.69529 0.0
H782 H 0.84975 0.74908 0.71513 0.0
H783 H 0.86242 0.72869 0.71781 0.0
C784 C 0.84434 0.78486 0.76626 0.0
C785 C 0.83824 0.76794 0.77399 0.0
C786 C 0.85919 0.78515 0.75352 0.0
C787 C 0.86809 0.76849 0.74815 0.0
C788 C 0.86228 0.75174 0.75612 0.0
H789 H 0.95919 0.72939 0.68186 0.0
H790 H 0.93446 0.73549 0.70449 0.0
C791 C 0.84747 0.75142 0.76877 0.0
C792 C 0.88347 0.7684 0.73427 0.0
H793 H 0.89566 0.74369 0.69255 0.0
C794 C 0.9009 0.78113 0.7387 0.0
C795 C 0.88138 0.75511 0.71714 0.0
C796 C 0.86262 0.7419 0.71094 0.0
C797 C 0.91659 0.7803 0.72686 0.0
C798 C 0.91473 0.76647 0.71017 0.0
C799 C 0.89711 0.75417 0.70547 0.0
C800 C 0.93105 0.7639 0.69765 0.0
C801 C 0.93531 0.79369 0.73258 0.0
C802 C 0.93752 0.77797 0.68643 0.0
C803 C 0.95167 0.7745 0.67335 0.0
C804 C 0.95957 0.75687 0.67128 0.0
C805 C 0.95345 0.74311 0.68303 0.0
C806 C 0.93928 0.74655 0.69599 0.0
H807 H 0.93543 0.80155 0.74729 0.0
H808 H 0.94797 0.78542 0.73158 0.0
H809 H 0.93718 0.80452 0.72269 0.0
H810 H 0.93118 0.79137 0.68734 0.0
H811 H 0.95601 0.78539 0.66451 0.0
H812 H 0.01099 0.95438 0.53957 0.0
H813 H 1.0032 0.92281 0.55055 0.0
H814 H 0.06252 0.92674 0.5736 0.0
H815 H 0.07018 0.95822 0.5628 0.0
H816 H 0.01973 0.88866 0.5416 0.0
H817 H 0.03071 0.91575 0.61884 0.0
H818 H 0.02816 0.93159 0.60129 0.0
H819 H 0.05116 0.92316 0.60579 0.0
C820 C 0.02229 0.94837 0.54693 0.0
C821 C 0.04114 0.95851 0.5504 0.0
C822 C 0.01786 0.93044 0.55323 0.0
C823 C 0.03219 0.9226 0.56323 0.0
C824 C 0.05113 0.93269 0.56632 0.0
H825 H 0.04226 0.80605 0.57899 0.0
H826 H 0.04481 0.83869 0.57089 0.0
C827 C 0.05554 0.95055 0.56001 0.0
C828 C 0.02762 0.90363 0.56997 0.0
H829 H 0.02936 0.88148 0.60963 0.0
C830 C 0.02164 0.88711 0.55649 0.0
C831 C 0.02982 0.90166 0.58945 0.0
C832 C 0.03512 0.919 0.60471 0.0
C833 C 0.01862 0.86859 0.56186 0.0
C834 C 0.02193 0.8665 0.58119 0.0
C835 C 0.02706 0.88309 0.59479 0.0
C836 C 0.02096 0.84712 0.58731 0.0
C837 C 0.01203 0.85137 0.54674 0.0
C838 C 0.00724 0.84128 0.59996 0.0
C839 C 0.00577 0.82252 0.60476 0.0
C840 C 0.01809 0.80935 0.59705 0.0
C841 C 0.03237 0.81566 0.58506 0.0
C842 C 0.0338 0.83432 0.5803 0.0
H843 H 0.00496 0.85574 0.53399 0.0
H844 H 0.02488 0.84435 0.54221 0.0
H845 H 1.00164 0.8405 0.55226 0.0
H846 H 0.99731 0.85104 0.60568 0.0
H847 H 0.99464 0.81819 0.61406 0.0
H848 H 0.18927 0.71846 0.72392 0.0
H849 H 0.16307 0.73045 0.70646 0.0
H850 H 0.1223 0.7119 0.74626 0.0
H851 H 0.14862 0.69988 0.76377 0.0
H852 H 0.12871 0.70356 0.69078 0.0
H853 H 0.11021 0.76769 0.73853 0.0
H854 H 0.13375 0.75928 0.74034 0.0
H855 H 0.1129 0.74616 0.74882 0.0
C856 C 0.17481 0.71744 0.72918 0.0
C857 C 0.17084 0.70847 0.74517 0.0
C858 C 0.15988 0.72422 0.71922 0.0
C859 C 0.14079 0.72221 0.72516 0.0
C860 C 0.13699 0.71389 0.74163 0.0
H861 H 0.03187 0.74191 0.66746 0.0
H862 H 0.05622 0.73605 0.69141 0.0
C863 C 0.15196 0.70702 0.75158 0.0
C864 C 0.12465 0.72675 0.71285 0.0
H865 H 0.09088 0.75786 0.70969 0.0
C866 C 0.12044 0.71544 0.69491 0.0
C867 C 0.11371 0.74204 0.71842 0.0
C868 C 0.11784 0.75463 0.73753 0.0
C869 C 0.10569 0.71909 0.68227 0.0
C870 C 0.09519 0.73485 0.68749 0.0
C871 C 0.09905 0.7459 0.70565 0.0
C872 C 0.08064 0.74028 0.67391 0.0
C873 C 0.10138 0.70587 0.66348 0.0
C874 C 0.08638 0.74526 0.65643 0.0
C875 C 0.07256 0.74845 0.64272 0.0
C876 C 0.05267 0.747 0.64627 0.0
C877 C 0.04705 0.74308 0.66423 0.0
C878 C 0.06094 0.73973 0.67794 0.0
H879 H 0.1064 0.69156 0.66404 0.0
H880 H 0.08554 0.70353 0.65925 0.0
H881 H 0.10918 0.71256 0.65231 0.0
H882 H 0.10156 0.74624 0.6532 0.0
H883 H 0.07748 0.75173 0.62918 0.0
H884 H 0.98592 0.56929 0.46861 0.0
H885 H 0.9954 0.60099 0.48812 0.0
H886 H 0.98546 0.57529 0.53888 0.0
H887 H 0.97692 0.54354 0.51962 0.0
H888 H 0.9721 0.62023 0.51037 0.0
H889 H 0.03594 0.60925 0.55511 0.0
H890 H 0.02655 0.59237 0.53421 0.0
H891 H 0.01551 0.59132 0.55652 0.0
C892 C 0.9863 0.57029 0.48395 0.0
C893 C 0.98055 0.55386 0.49253 0.0
C894 C 0.9916 0.58846 0.49509 0.0
C895 C 0.99137 0.59054 0.51501 0.0
C896 C 0.9862 0.57406 0.5236 0.0
H897 H 0.98378 0.6827 0.60668 0.0
H898 H 0.9851 0.65186 0.58611 0.0
C899 C 0.98102 0.55592 0.51252 0.0
C900 C 0.99462 0.6101 0.52671 0.0
H901 H 0.01949 0.63647 0.56656 0.0
C902 C 0.98269 0.62387 0.52246 0.0
C903 C 0.0084 0.61487 0.54255 0.0
C904 C 0.02245 0.60123 0.54725 0.0
C905 C 0.98366 0.64195 0.53398 0.0
C906 C 0.99698 0.64645 0.55013 0.0
C907 C 0.00921 0.6329 0.55421 0.0
C908 C 0.99792 0.665 0.56317 0.0
C909 C 0.96998 0.65592 0.52919 0.0
C910 C 0.00511 0.68253 0.55722 0.0
C911 C 0.00444 0.70015 0.56894 0.0
C912 C 0.99652 0.70055 0.58681 0.0
C913 C 0.98992 0.6829 0.59298 0.0
C914 C 0.9907 0.66527 0.58128 0.0
H915 H 0.9585 0.64907 0.51801 0.0
H916 H 0.96287 0.6617 0.54207 0.0
H917 H 0.97841 0.66835 0.52396 0.0
H918 H 0.01085 0.68259 0.54333 0.0
H919 H 0.0096 0.71346 0.56372 0.0
H920 H 0.78114 0.87311 0.20141 0.0
H921 H 0.80915 0.89865 0.20682 0.0
H922 H 0.81013 0.896 0.26707 0.0
H923 H 0.78155 0.8712 0.26173 0.0
H924 H 0.81468 0.93178 0.26185 0.0
H925 H 0.86507 0.89388 0.21647 0.0
H926 H 0.84316 0.89661 0.2033 0.0
H927 H 0.84199 0.88187 0.22204 0.0
C928 C 0.78746 0.87797 0.21576 0.0
C929 C 0.77931 0.87023 0.23116 0.0
C930 C 0.80354 0.89244 0.21884 0.0
C931 C 0.81206 0.899 0.23732 0.0
C932 C 0.80387 0.89118 0.25268 0.0
H933 H 0.92657 0.96492 0.2647 0.0
H934 H 0.89831 0.93997 0.25788 0.0
C935 C 0.78758 0.87702 0.24965 0.0
C936 C 0.82908 0.91444 0.24083 0.0
H937 H 0.8751 0.92733 0.22775 0.0
C938 C 0.82793 0.93074 0.25446 0.0
C939 C 0.8465 0.91301 0.23138 0.0
C940 C 0.84936 0.89531 0.21764 0.0
C941 C 0.84364 0.94561 0.25891 0.0
C942 C 0.86075 0.94457 0.24889 0.0
C943 C 0.86192 0.92826 0.23528 0.0
C944 C 0.87787 0.95987 0.25276 0.0
C945 C 0.84189 0.9619 0.27477 0.0
C946 C 0.8759 0.97937 0.2519 0.0
C947 C 0.89199 0.99372 0.25618 0.0
C948 C 0.91046 0.98878 0.26088 0.0
C949 C 0.91253 0.96919 0.26111 0.0
C950 C 0.89638 0.95491 0.2572 0.0
H951 H 0.83082 0.9575 0.28467 0.0
H952 H 0.85602 0.96682 0.2831 0.0
H953 H 0.83719 0.97433 0.26861 0.0
H954 H 0.86193 0.98352 0.2479 0.0
H955 H 0.88999 0.00866 0.25563 0.0
H956 H 0.76837 0.16488 0.26722 0.0
H957 H 0.79536 0.1459 0.26965 0.0
H958 H 0.78988 0.14941 0.33011 0.0
H959 H 0.76282 0.16847 0.32779 0.0
H960 H 0.82752 0.15776 0.32165 0.0
H961 H 0.79432 0.0897 0.27682 0.0
H962 H 0.79368 0.11035 0.26477 0.0
H963 H 0.78021 0.10861 0.28561 0.0
C964 C 0.77269 0.16136 0.281 0.0
C965 C 0.76336 0.16813 0.29729 0.0
C966 C 0.78812 0.15046 0.28236 0.0
C967 C 0.79444 0.1459 0.30001 0.0
C968 C 0.78519 0.15266 0.31632 0.0
H969 H 0.88126 0.06506 0.30487 0.0
H970 H 0.85162 0.08051 0.30956 0.0
C971 C 0.76978 0.16363 0.31498 0.0
C972 C 0.81132 0.13492 0.3015 0.0
H973 H 0.82907 0.0936 0.28279 0.0
C974 C 0.82777 0.14362 0.31332 0.0
C975 C 0.81155 0.11632 0.29093 0.0
C976 C 0.79391 0.1056 0.27898 0.0
C977 C 0.84473 0.13464 0.31417 0.0
C978 C 0.84541 0.11663 0.30262 0.0
C979 C 0.82865 0.10751 0.29149 0.0
C980 C 0.86367 0.10759 0.30099 0.0
C981 C 0.86179 0.14459 0.32741 0.0
C982 C 0.88025 0.11762 0.29457 0.0
C983 C 0.89714 0.10888 0.29193 0.0
C984 C 0.89783 0.08981 0.29549 0.0
C985 C 0.88126 0.0798 0.30208 0.0
C986 C 0.8643 0.08859 0.30473 0.0
H987 H 0.85698 0.15443 0.33941 0.0
H988 H 0.86995 0.13391 0.33329 0.0
H989 H 0.87187 0.15348 0.31944 0.0
H990 H 0.87999 0.1321 0.29114 0.0
H991 H 0.90957 0.11701 0.28674 0.0
H992 H 0.4155 0.01906 0.98602 0.0
H993 H 0.38627 1.00057 0.99582 0.0
H994 H 0.41737 0.95137 0.99744 0.0
H995 H 0.44667 0.9698 0.98806 0.0
H996 H 0.36626 0.96538 0.97628 0.0
H997 H 0.3926 0.95697 0.04891 0.0
H998 H 0.40448 0.97481 0.03587 0.0
H999 H 0.4089 0.94998 0.03107 0.0
C1000 C 0.41618 0.00439 0.98875 0.0
C1001 C 0.43341 0.99589 0.98627 0.0
C1002 C 0.39945 0.99384 0.99426 0.0
C1003 C 0.39973 0.97469 0.99761 0.0
C1004 C 0.41693 0.96623 0.99526 0.0
H1005 H 0.3262 0.8743 0.01528 0.0
H1006 H 0.35194 0.9002 0.01188 0.0
C1007 C 0.4336 0.97672 0.98969 0.0
C1008 C 0.38182 0.96309 0.00256 0.0
H1009 H 0.36429 0.93549 0.03529 0.0
C1010 C 0.36565 0.95908 0.98931 0.0
C1011 C 0.38109 0.95495 0.0196 0.0
C1012 C 0.39762 0.95953 0.03478 0.0
C1013 C 0.34918 0.94626 0.99217 0.0
C1014 C 0.34877 0.93752 0.00888 0.0
C1015 C 0.36464 0.94216 0.02247 0.0
C1016 C 0.33284 0.92227 0.01177 0.0
C1017 C 0.3328 0.94142 0.97684 0.0
C1018 C 0.31351 0.92613 0.01317 0.0
C1019 C 0.29861 0.91125 0.01508 0.0
C1020 C 0.30282 0.89227 0.01569 0.0
C1021 C 0.32232 0.88867 0.01477 0.0
C1022 C 0.33712 0.90349 0.01287 0.0
H1023 H 0.33702 0.94649 0.96334 0.0
H1024 H 0.3281 0.92555 0.97393 0.0
H1025 H 0.32011 0.94855 0.98169 0.0
H1026 H 0.30993 0.94061 0.0127 0.0
H1027 H 0.28379 0.91458 0.01586 0.0
H1028 H 0.24912 0.31331 0.24793 0.0
H1029 H 0.23437 0.34092 0.23872 0.0
H1030 H 0.26757 0.37874 0.28534 0.0
H1031 H 0.28248 0.3512 0.2943 0.0
H1032 H 0.21153 0.36305 0.26071 0.0
H1033 H 0.27593 0.40966 0.24178 0.0
H1034 H 0.27637 0.38448 0.244 0.0
H1035 H 0.27908 0.40261 0.26486 0.0
C1036 C 0.25364 0.32766 0.2558 0.0
C1037 C 0.26715 0.33035 0.27154 0.0
C1038 C 0.24511 0.34336 0.25066 0.0
C1039 C 0.25 0.36197 0.2612 0.0
C1040 C 0.26388 0.36465 0.27672 0.0
H1041 H 0.18315 0.45922 0.27211 0.0
H1042 H 0.19653 0.42918 0.27553 0.0
C1043 C 0.27241 0.34895 0.28183 0.0
C1044 C 0.23967 0.37828 0.25684 0.0
H1045 H 0.2471 0.42454 0.24683 0.0
C1046 C 0.21929 0.37645 0.25751 0.0
C1047 C 0.24974 0.39569 0.2525 0.0
C1048 C 0.27146 0.39821 0.25054 0.0
C1049 C 0.20878 0.39171 0.2544 0.0
C1050 C 0.21896 0.4094 0.25083 0.0
C1051 C 0.23929 0.41105 0.24973 0.0
C1052 C 0.20896 0.42643 0.24807 0.0
C1053 C 0.18687 0.38864 0.25474 0.0
C1054 C 0.21137 0.43487 0.2315 0.0
C1055 C 0.20389 0.45209 0.22959 0.0
C1056 C 0.19381 0.46133 0.24423 0.0
C1057 C 0.19067 0.45242 0.2605 0.0
C1058 C 0.19829 0.4352 0.26245 0.0
H1059 H 0.18101 0.37299 0.25219 0.0
H1060 H 0.18267 0.39487 0.26894 0.0
H1061 H 0.17992 0.39592 0.24387 0.0
H1062 H 0.21949 0.42838 0.2202 0.0
H1063 H 0.20653 0.45846 0.21681 0.0
H1064 H 0.1168 0.0147 0.52403 0.0
H1065 H 0.1479 0.03553 0.52408 0.0
H1066 H 0.12068 0.07077 0.48867 0.0
H1067 H 0.08948 0.05043 0.48889 0.0
H1068 H 0.15879 0.05945 0.4774 0.0
H1069 H 0.15819 0.09269 0.55322 0.0
H1070 H 0.15436 0.06665 0.54811 0.0
H1071 H 0.13643 0.0803 0.53965 0.0
C1072 C 0.11738 0.02695 0.51634 0.0
C1073 C 0.10058 0.03089 0.5065 0.0
C1074 C 0.13518 0.03877 0.51633 0.0
C1075 C 0.13652 0.05471 0.50646 0.0
C1076 C 0.11994 0.05847 0.4963 0.0
H1077 H 0.21522 0.15905 0.51276 0.0
H1078 H 0.18795 0.13329 0.51129 0.0
C1079 C 0.10213 0.04675 0.49638 0.0
C1080 C 0.155 0.06792 0.50713 0.0
H1081 H 0.18496 0.10322 0.53643 0.0
C1082 C 0.16465 0.06891 0.49032 0.0
C1083 C 0.16246 0.08031 0.52399 0.0
C1084 C 0.15233 0.08014 0.54229 0.0
C1085 C 0.18152 0.08215 0.48991 0.0
C1086 C 0.18885 0.09466 0.50674 0.0
C1087 C 0.17932 0.0935 0.52359 0.0
C1088 C 0.2056 0.10997 0.50692 0.0
C1089 C 0.19106 0.08317 0.47141 0.0
C1090 C 0.22459 0.10535 0.50491 0.0
C1091 C 0.24034 0.12009 0.50581 0.0
C1092 C 0.23731 0.1397 0.5087 0.0
C1093 C 0.21816 0.14416 0.51048 0.0
C1094 C 0.20251 0.12946 0.50968 0.0
H1095 H 0.18212 0.07427 0.45914 0.0
H1096 H 0.19364 0.0984 0.4687 0.0
H1097 H 0.20543 0.07782 0.47234 0.0
H1098 H 0.22726 0.09037 0.50294 0.0
H1099 H 0.25487 0.11612 0.50444 0.0
H1100 H 0.80795 0.20286 0.76803 0.0
H1101 H 0.78256 0.17547 0.76821 0.0
H1102 H 0.78352 0.16102 0.70735 0.0
H1103 H 0.80899 0.1886 0.70706 0.0
H1104 H 0.74467 0.15625 0.72275 0.0
H1105 H 0.79977 0.12039 0.75871 0.0
H1106 H 0.79715 0.14424 0.77036 0.0
H1107 H 0.80628 0.1412 0.74704 0.0
C1108 C 0.80255 0.19401 0.75465 0.0
C1109 C 0.81061 0.19767 0.73756 0.0
C1110 C 0.78806 0.17839 0.75477 0.0
C1111 C 0.78146 0.16604 0.73785 0.0
C1112 C 0.78851 0.17037 0.72057 0.0
H1113 H 0.72985 0.04777 0.74091 0.0
H1114 H 0.74858 0.07641 0.73198 0.0
C1115 C 0.80299 0.18612 0.72041 0.0
C1116 C 0.76857 0.14776 0.73859 0.0
H1117 H 0.767 0.10556 0.75712 0.0
C1118 C 0.74953 0.14507 0.73014 0.0
C1119 C 0.7751 0.13308 0.74794 0.0
C1120 C 0.79575 0.13472 0.75639 0.0
C1121 C 0.73661 0.12827 0.73137 0.0
C1122 C 0.74289 0.11401 0.74151 0.0
C1123 C 0.76213 0.11653 0.74944 0.0
C1124 C 0.72984 0.09647 0.74456 0.0
C1125 C 0.71644 0.1259 0.7217 0.0
C1126 C 0.71288 0.09815 0.75438 0.0
C1127 C 0.702 0.08171 0.75937 0.0
C1128 C 0.70801 0.06332 0.75483 0.0
C1129 C 0.72471 0.06165 0.74454 0.0
C1130 C 0.73548 0.07804 0.73945 0.0
H1131 H 0.71589 0.1348 0.71004 0.0
H1132 H 0.71144 0.11051 0.71576 0.0
H1133 H 0.70611 0.13076 0.73225 0.0
H1134 H 0.70848 0.11224 0.75888 0.0
H1135 H 0.68927 0.08353 0.76738 0.0
H1136 H 0.46581 0.04818 0.51673 0.0
H1137 H 0.43547 0.06011 0.50741 0.0
H1138 H 0.40284 0.01881 0.53712 0.0
H1139 H 0.43326 0.00706 0.54663 0.0
H1140 H 0.39802 0.04297 0.48864 0.0
H1141 H 0.39389 0.07243 0.56497 0.0
H1142 H 0.41552 0.06373 0.55579 0.0
H1143 H 0.39503 0.04686 0.55986 0.0
C1144 C 0.45206 0.04132 0.52076 0.0
C1145 C 0.45168 0.02671 0.53227 0.0
C1146 C 0.43478 0.04814 0.51549 0.0
C1147 C 0.41695 0.04053 0.5218 0.0
C1148 C 0.41647 0.02502 0.53228 0.0
H1149 H 0.30908 0.09237 0.52907 0.0
H1150 H 0.33236 0.06891 0.52855 0.0
C1151 C 0.43378 0.01823 0.53759 0.0
C1152 C 0.39939 0.0502 0.51914 0.0
H1153 H 0.36921 0.07813 0.54363 0.0
C1154 C 0.39159 0.05055 0.50064 0.0
C1155 C 0.3911 0.06014 0.53483 0.0
C1156 C 0.39935 0.06098 0.55499 0.0
C1157 C 0.37569 0.06059 0.49744 0.0
C1158 C 0.36768 0.07086 0.51313 0.0
C1159 C 0.37527 0.07017 0.53161 0.0
C1160 C 0.35218 0.08337 0.5109 0.0
C1161 C 0.3676 0.06003 0.4773 0.0
C1162 C 0.35537 0.09914 0.50087 0.0
C1163 C 0.34203 0.11255 0.50107 0.0
C1164 C 0.32534 0.11059 0.51152 0.0
C1165 C 0.3218 0.09436 0.52092 0.0
C1166 C 0.3351 0.08092 0.52064 0.0
H1167 H 0.37085 0.04695 0.4679 0.0
H1168 H 0.35158 0.06019 0.47667 0.0
H1169 H 0.37445 0.07294 0.47162 0.0
H1170 H 0.36864 0.10163 0.49361 0.0
H1171 H 0.34527 0.12492 0.49373 0.0
H1172 H 0.59974 0.51555 0.51594 0.0
H1173 H 0.62749 0.49727 0.51334 0.0
H1174 H 0.60612 0.46506 0.55697 0.0
H1175 H 0.5778 0.48265 0.55904 0.0
H1176 H 0.65655 0.49366 0.53896 0.0
H1177 H 0.61296 0.42213 0.51435 0.0
H1178 H 0.60267 0.44455 0.51537 0.0
H1179 H 0.60593 0.43384 0.53659 0.0
C1180 C 0.6008 0.50442 0.52484 0.0
C1181 C 0.58637 0.50041 0.53753 0.0
C1182 C 0.61677 0.4941 0.52344 0.0
C1183 C 0.61869 0.47955 0.53469 0.0
C1184 C 0.6047 0.47593 0.54784 0.0
H1185 H 0.72104 0.42581 0.55756 0.0
H1186 H 0.69577 0.44703 0.55753 0.0
C1187 C 0.58864 0.48618 0.54918 0.0
C1188 C 0.63532 0.46815 0.53259 0.0
H1189 H 0.64655 0.42203 0.52283 0.0
C1190 C 0.65438 0.478 0.53535 0.0
C1191 C 0.63248 0.44776 0.52748 0.0
C1192 C 0.61242 0.43645 0.52308 0.0
C1193 C 0.67067 0.46796 0.53362 0.0
C1194 C 0.66781 0.4475 0.52939 0.0
C1195 C 0.64875 0.43771 0.52619 0.0
C1196 C 0.68428 0.43582 0.52873 0.0
C1197 C 0.69076 0.47943 0.53608 0.0
C1198 C 0.68619 0.42229 0.5126 0.0
C1199 C 0.70052 0.40993 0.51265 0.0
C1200 C 0.71319 0.41082 0.52887 0.0
C1201 C 0.71161 0.42479 0.54478 0.0
C1202 C 0.69722 0.43705 0.54476 0.0
H1203 H 0.69039 0.49447 0.53313 0.0
H1204 H 0.69659 0.4803 0.55101 0.0
H1205 H 0.70093 0.47245 0.52655 0.0
H1206 H 0.67632 0.42104 0.50009 0.0
H1207 H 0.70133 0.39934 0.50017 0.0
H1208 H 0.69962 0.22162 0.32382 0.0
H1209 H 0.69903 0.24848 0.34966 0.0
H1210 H 0.7617 0.26066 0.35119 0.0
H1211 H 0.76231 0.23464 0.32477 0.0
H1212 H 0.71431 0.25062 0.38452 0.0
H1213 H 0.74809 0.31448 0.35559 0.0
H1214 H 0.73961 0.29176 0.3406 0.0
H1215 H 0.76341 0.29568 0.35297 0.0
C1216 C 0.71323 0.23037 0.32929 0.0
C1217 C 0.73103 0.22588 0.32225 0.0
C1218 C 0.71287 0.24566 0.34414 0.0
C1219 C 0.73029 0.25682 0.35223 0.0
C1220 C 0.74801 0.25264 0.34492 0.0
H1221 H 0.77639 0.31432 0.45847 0.0
H1222 H 0.76856 0.29889 0.42559 0.0
C1223 C 0.74837 0.23749 0.33 0.0
C1224 C 0.73026 0.27137 0.36956 0.0
H1225 H 0.7504 0.31685 0.39014 0.0
C1226 C 0.72176 0.26526 0.38559 0.0
C1227 C 0.73993 0.29054 0.371 0.0
C1228 C 0.74807 0.29854 0.35403 0.0
C1229 C 0.72376 0.27733 0.40324 0.0
C1230 C 0.73454 0.29595 0.40492 0.0
C1231 C 0.74221 0.30249 0.38877 0.0
C1232 C 0.73984 0.30772 0.42378 0.0
C1233 C 0.71529 0.26977 0.4203 0.0
C1234 C 0.7264 0.31822 0.43343 0.0
C1235 C 0.73087 0.32721 0.45227 0.0
C1236 C 0.74875 0.32557 0.46175 0.0
C1237 C 0.76244 0.31573 0.45166 0.0
C1238 C 0.75804 0.30696 0.43284 0.0
H1239 H 0.70747 0.25482 0.41666 0.0
H1240 H 0.7271 0.26984 0.43141 0.0
H1241 H 0.70495 0.27943 0.42647 0.0
H1242 H 0.71225 0.31889 0.4266 0.0
H1243 H 0.72001 0.33464 0.45967 0.0
H1244 H 0.50309 0.98732 0.89892 0.0
H1245 H 0.52891 0.99123 0.87687 0.0
H1246 H 0.56159 0.03562 0.9185 0.0
H1247 H 0.53576 0.03137 0.94078 0.0
H1248 H 0.54461 0.02238 0.8609 0.0
H1249 H 0.60083 0.99781 0.9066 0.0
H1250 H 0.57532 0.99495 0.91118 0.0
H1251 H 0.59004 0.01807 0.91785 0.0
C1252 C 0.51575 0.99801 0.90325 0.0
C1253 C 0.51759 0.00907 0.92141 0.0
C1254 C 0.53047 1.00023 0.89069 0.0
C1255 C 0.54734 0.01349 0.89612 0.0
C1256 C 0.54889 0.02502 0.91415 0.0
H1257 H 0.65316 0.04172 0.83997 0.0
H1258 H 0.62671 0.04017 0.86134 0.0
C1259 C 0.53412 0.02273 0.92678 0.0
C1260 C 0.56331 0.01487 0.88294 0.0
H1261 H 0.61114 0.00886 0.87839 0.0
C1262 C 0.55916 0.01941 0.86471 0.0
C1263 C 0.58227 0.01088 0.88788 0.0
C1264 C 0.58741 0.00498 0.90687 0.0
C1265 C 0.5735 0.02034 0.85142 0.0
C1266 C 0.59243 0.01635 0.85638 0.0
C1267 C 0.59661 0.01189 0.87461 0.0
C1268 C 0.60829 0.01715 0.84305 0.0
C1269 C 0.56837 0.02594 0.83231 0.0
C1270 C 0.60684 0.00454 0.82569 0.0
C1271 C 0.62202 0.00537 0.81336 0.0
C1272 C 0.63895 0.01878 0.81822 0.0
C1273 C 0.64035 0.03123 0.83571 0.0
C1274 C 0.62523 0.03038 0.84799 0.0
H1275 H 0.55485 0.03295 0.83239 0.0
H1276 H 0.58042 0.03598 0.82795 0.0
H1277 H 0.56594 0.01274 0.82146 0.0
H1278 H 0.59404 0.99396 0.82175 0.0
H1279 H 0.6205 0.99553 0.80004 0.0
H1280 H 0.34042 0.26261 0.32824 0.0
H1281 H 0.3411 0.24464 0.35525 0.0
H1282 H 0.27992 0.22383 0.34341 0.0
H1283 H 0.27928 0.24121 0.31611 0.0
H1284 H 0.32032 0.25139 0.38629 0.0
H1285 H 0.30132 0.17484 0.3533 0.0
H1286 H 0.30923 0.19384 0.33972 0.0
H1287 H 0.28428 0.18992 0.34582 0.0
C1288 C 0.32724 0.25381 0.3311 0.0
C1289 C 0.30978 0.25341 0.32006 0.0
C1290 C 0.32763 0.24362 0.34659 0.0
C1291 C 0.31063 0.23268 0.35124 0.0
C1292 C 0.29333 0.23181 0.3399 0.0
H1293 H 0.27114 0.21063 0.45777 0.0
H1294 H 0.27775 0.2199 0.42681 0.0
C1295 C 0.29292 0.24199 0.32444 0.0
C1296 C 0.31038 0.22388 0.36901 0.0
H1297 H 0.29638 0.18202 0.3868 0.0
C1298 C 0.3154 0.23616 0.38635 0.0
C1299 C 0.30413 0.20396 0.36914 0.0
C1300 C 0.29963 0.18984 0.35097 0.0
C1301 C 0.31339 0.22928 0.4038 0.0
C1302 C 0.30594 0.20966 0.40393 0.0
C1303 C 0.30187 0.19712 0.38664 0.0
C1304 C 0.30111 0.20244 0.42194 0.0
C1305 C 0.31888 0.24317 0.422 0.0
C1306 C 0.3116 0.18895 0.42916 0.0
C1307 C 0.30786 0.18354 0.44699 0.0
C1308 C 0.29348 0.1915 0.45781 0.0
C1309 C 0.28245 0.20433 0.45001 0.0
C1310 C 0.28622 0.20971 0.43229 0.0
H1311 H 0.32892 0.25606 0.4196 0.0
H1312 H 0.30551 0.24827 0.42777 0.0
H1313 H 0.32594 0.23596 0.43286 0.0
H1314 H 0.32308 0.1831 0.42128 0.0
H1315 H 0.31659 0.17359 0.45252 0.0
H1316 H 0.54456 0.54316 0.96587 0.0
H1317 H 0.52782 0.5493 0.93676 0.0
H1318 H 0.50187 0.48951 0.9254 0.0
H1319 H 0.51855 0.48326 0.95452 0.0
H1320 H 0.53237 0.53279 0.90073 0.0
H1321 H 0.45507 0.51763 0.91707 0.0
H1322 H 0.47491 0.52117 0.93512 0.0
H1323 H 0.46883 0.49816 0.92009 0.0
C1324 C 0.53526 0.53131 0.95719 0.0
C1325 C 0.53293 0.5127 0.96249 0.0
C1326 C 0.52561 0.53488 0.94062 0.0
C1327 C 0.51336 0.51994 0.92903 0.0
C1328 C 0.51085 0.50138 0.93436 0.0
H1329 H 0.48472 0.5102 0.80929 0.0
H1330 H 0.49574 0.50687 0.84149 0.0
C1331 C 0.52045 0.49781 0.95097 0.0
C1332 C 0.50439 0.52347 0.91069 0.0
H1333 H 0.46107 0.51967 0.8845 0.0
C1334 C 0.51676 0.53008 0.89727 0.0
C1335 C 0.484 0.52016 0.90625 0.0
C1336 C 0.4699 0.51407 0.92046 0.0
C1337 C 0.50939 0.53289 0.87933 0.0
C1338 C 0.48911 0.52868 0.87453 0.0
C1339 C 0.47663 0.52269 0.88814 0.0
C1340 C 0.48085 0.5298 0.85518 0.0
C1341 C 0.52341 0.54035 0.86563 0.0
C1342 C 0.46814 0.5433 0.85222 0.0
C1343 C 0.46167 0.54524 0.83371 0.0
C1344 C 0.4678 0.53364 0.81788 0.0
C1345 C 0.47986 0.51957 0.82107 0.0
C1346 C 0.48625 0.51764 0.83949 0.0
H1347 H 0.53736 0.54772 0.8731 0.0
H1348 H 0.52675 0.52798 0.85533 0.0
H1349 H 0.51696 0.55064 0.85752 0.0
H1350 H 0.4637 0.55273 0.86419 0.0
H1351 H 0.45235 0.55617 0.8318 0.0
H1352 H 0.77609 0.80158 0.20831 0.0
H1353 H 0.77892 0.77518 0.18262 0.0
H1354 H 0.72056 0.77831 0.16064 0.0
H1355 H 0.71766 0.80498 0.18621 0.0
H1356 H 0.73226 0.73848 0.16083 0.0
H1357 H 0.78317 0.78879 0.127 0.0
H1358 H 0.78915 0.78784 0.15167 0.0
H1359 H 0.76732 0.79722 0.14492 0.0
C1360 C 0.76379 0.79658 0.19809 0.0
C1361 C 0.74675 0.80555 0.19913 0.0
C1362 C 0.76542 0.78146 0.18348 0.0
C1363 C 0.75005 0.77501 0.16964 0.0
C1364 C 0.73258 0.78313 0.17121 0.0
H1365 H 0.76351 0.71546 0.05683 0.0
H1366 H 0.75333 0.73623 0.08401 0.0
C1367 C 0.73094 0.79831 0.18585 0.0
C1368 C 0.75286 0.7609 0.15279 0.0
H1369 H 0.779 0.75579 0.11335 0.0
C1370 C 0.74241 0.74221 0.15039 0.0
C1371 C 0.76593 0.76596 0.13911 0.0
C1372 C 0.77695 0.78608 0.14062 0.0
C1373 C 0.74506 0.72828 0.13479 0.0
C1374 C 0.75858 0.7332 0.12141 0.0
C1375 C 0.76871 0.75202 0.12367 0.0
C1376 C 0.76263 0.71918 0.1049 0.0
C1377 C 0.73326 0.7085 0.13262 0.0
C1378 C 0.77106 0.70255 0.10759 0.0
C1379 C 0.77687 0.69056 0.09202 0.0
C1380 C 0.77443 0.69507 0.0735 0.0
C1381 C 0.76549 0.71145 0.07084 0.0
C1382 C 0.7597 0.7234 0.08639 0.0
H1383 H 0.72026 0.70856 0.14119 0.0
H1384 H 0.72838 0.70321 0.11749 0.0
H1385 H 0.74244 0.69813 0.13759 0.0
H1386 H 0.77381 0.69923 0.12178 0.0
H1387 H 0.78379 0.6781 0.09456 0.0
H1388 H 0.03967 0.99396 0.09504 0.0
H1389 H 0.02665 0.9982 0.12664 0.0
H1390 H 0.01042 0.05346 0.11727 0.0
H1391 H 0.02354 0.04943 0.08583 0.0
H1392 H 0.03087 0.05237 0.15415 0.0
H1393 H 0.96669 0.99564 0.13558 0.0
H1394 H 0.9901 0.98878 0.12968 0.0
H1395 H 0.98006 0.00648 0.11776 0.0
C1396 C 0.03347 0.00707 0.0998 0.0
C1397 C 0.03251 0.02131 0.08792 0.0
C1398 C 0.02592 0.0094 0.11776 0.0
C1399 C 0.0174 0.02604 0.12415 0.0
C1400 C 0.01684 0.04046 0.11253 0.0
H1401 H 0.94376 0.05375 0.21635 0.0
H1402 H 0.95837 0.04804 0.18568 0.0
C1403 C 0.02424 0.03809 0.09455 0.0
C1404 C 0.00897 0.0285 0.14294 0.0
H1405 H 0.97097 0.01134 0.1674 0.0
C1406 C 0.01783 0.04336 0.15711 0.0
C1407 C 0.99183 0.01685 0.14661 0.0
C1408 C 0.98145 1.0011 0.13162 0.0
C1409 C 0.01005 0.04681 0.17495 0.0
C1410 C 0.99303 0.03503 0.17869 0.0
C1411 C 0.98409 0.02025 0.16449 0.0
C1412 C 0.98411 0.0381 0.19719 0.0
C1413 C 0.01985 0.06324 0.18959 0.0
C1414 C 0.99367 0.03418 0.21372 0.0
C1415 C 0.98533 0.03733 0.23122 0.0
C1416 C 0.9673 0.0445 0.2325 0.0
C1417 C 0.95769 0.04827 0.21585 0.0
C1418 C 0.96598 0.04498 0.19833 0.0
H1419 H 0.03066 0.07311 0.18332 0.0
H1420 H 0.00887 0.07178 0.1963 0.0
H1421 H 0.02754 0.05722 0.20095 0.0
H1422 H 0.00759 0.02869 0.21308 0.0
H1423 H 0.99315 0.03435 0.24378 0.0
H1424 H 0.30021 0.76653 0.19384 0.0
H1425 H 0.28345 0.78298 0.17081 0.0
H1426 H 0.32972 0.77562 0.13299 0.0
H1427 H 0.34639 0.75929 0.15594 0.0
H1428 H 0.32001 0.81474 0.14184 0.0
H1429 H 0.25545 0.75983 0.1174 0.0
H1430 H 0.26076 0.76632 0.14267 0.0
H1431 H 0.27731 0.75368 0.12859 0.0
C1432 C 0.3065 0.76815 0.18042 0.0
C1433 C 0.32436 0.76159 0.1764 0.0
C1434 C 0.29699 0.77752 0.16734 0.0
C1435 C 0.30533 0.78041 0.15019 0.0
C1436 C 0.32305 0.77349 0.14612 0.0
H1437 H 0.26633 0.81336 0.04574 0.0
H1438 H 0.27864 0.79837 0.0719 0.0
C1439 C 0.33248 0.7641 0.15914 0.0
C1440 C 0.29624 0.79145 0.13677 0.0
H1441 H 0.25778 0.78892 0.10435 0.0
C1442 C 0.30632 0.80921 0.13374 0.0
C1443 C 0.27845 0.78409 0.12622 0.0
C1444 C 0.26733 0.76488 0.1287 0.0
C1445 C 0.29923 0.81968 0.12016 0.0
C1446 C 0.28154 0.81223 0.10945 0.0
C1447 C 0.27129 0.79462 0.1127 0.0
C1448 C 0.27418 0.82175 0.09383 0.0
C1449 C 0.31102 0.83828 0.11686 0.0
C1450 C 0.26761 0.83992 0.09752 0.0
C1451 C 0.26059 0.84862 0.08254 0.0
C1452 C 0.26007 0.83927 0.06365 0.0
C1453 C 0.26673 0.82109 0.06008 0.0
C1454 C 0.27365 0.81241 0.07502 0.0
H1455 H 0.32586 0.84039 0.12408 0.0
H1456 H 0.31239 0.83847 0.1014 0.0
H1457 H 0.30345 0.85071 0.12245 0.0
H1458 H 0.26772 0.84726 0.11199 0.0
H1459 H 0.25545 0.86257 0.08576 0.0
H1460 H 0.05611 0.49055 0.0626 0.0
H1461 H 0.07435 0.49887 0.09353 0.0
H1462 H 0.02063 0.5025 0.12122 0.0
H1463 H 1.00215 0.49414 0.09006 0.0
H1464 H 0.07206 0.53348 0.12432 0.0
H1465 H 0.05095 0.46045 0.14468 0.0
H1466 H 0.0502 0.46413 0.12008 0.0
H1467 H 0.03248 0.47313 0.13533 0.0
C1468 C 0.04817 0.49328 0.07526 0.0
C1469 C 0.02771 0.49158 0.07396 0.0
C1470 C 0.05861 0.49806 0.0929 0.0
C1471 C 0.04882 0.5011 0.10963 0.0
C1472 C 0.02842 0.50007 0.10843 0.0
H1473 H 0.11332 0.5102 0.22167 0.0
H1474 H 0.08584 0.50842 0.19809 0.0
C1475 C 0.01791 0.49544 0.09067 0.0
C1476 C 0.06027 0.50465 0.1282 0.0
H1477 H 0.0756 0.48126 0.1639 0.0
C1478 C 0.07259 0.52221 0.13319 0.0
C1479 C 0.06086 0.48995 0.13976 0.0
C1480 C 0.048 0.47078 0.13481 0.0
C1481 C 0.08605 0.52518 0.14903 0.0
C1482 C 0.08755 0.51 0.15988 0.0
C1483 C 0.07448 0.49284 0.15553 0.0
C1484 C 0.10391 0.51096 0.17437 0.0
C1485 C 0.09891 0.54438 0.15375 0.0
C1486 C 0.1231 0.5125 0.16878 0.0
C1487 C 0.13874 0.51341 0.18209 0.0
C1488 C 0.13561 0.51275 0.2014 0.0
C1489 C 0.11629 0.51083 0.20695 0.0
C1490 C 0.10057 0.50982 0.19352 0.0
H1491 H 0.09206 0.55613 0.14826 0.0
H1492 H 0.10211 0.54841 0.16934 0.0
H1493 H 0.11292 0.54333 0.14697 0.0
H1494 H 0.126 0.51296 0.15401 0.0
H1495 H 0.15334 0.5148 0.17719 0.0
H1496 H 0.37925 0.75812 0.26559 0.0
H1497 H 0.40469 0.75903 0.29076 0.0
H1498 H 0.39115 0.6973 0.28917 0.0
H1499 H 0.36618 0.69611 0.26341 0.0
H1500 H 0.40079 0.7489 0.32608 0.0
H1501 H 0.45008 0.70401 0.28596 0.0
H1502 H 0.43057 0.71374 0.27442 0.0
H1503 H 0.42543 0.69243 0.28552 0.0
C1504 C 0.38188 0.74467 0.27036 0.0
C1505 C 0.37074 0.72702 0.26239 0.0
C1506 C 0.39633 0.74525 0.28484 0.0
C1507 C 0.4 0.7282 0.29164 0.0
C1508 C 0.38882 0.71057 0.28387 0.0
H1509 H 0.46253 0.72622 0.39997 0.0
H1510 H 0.43827 0.72175 0.37318 0.0
C1511 C 0.37438 0.70997 0.26933 0.0
C1512 C 0.41507 0.72909 0.30733 0.0
H1513 H 0.4575 0.71236 0.31929 0.0
C1514 C 0.4132 0.74093 0.3246 0.0
C1515 C 0.43136 0.71885 0.30527 0.0
C1516 C 0.43464 0.70668 0.28674 0.0
C1517 C 0.42711 0.74272 0.33992 0.0
C1518 C 0.4431 0.73205 0.33805 0.0
C1519 C 0.44509 0.72034 0.32073 0.0
C1520 C 0.45816 0.73329 0.35381 0.0
C1521 C 0.42476 0.75637 0.35782 0.0
C1522 C 0.47758 0.74049 0.35156 0.0
C1523 C 0.49157 0.74292 0.36681 0.0
C1524 C 0.48637 0.73816 0.3846 0.0
C1525 C 0.46702 0.73025 0.38656 0.0
C1526 C 0.45309 0.72775 0.37128 0.0
H1527 H 0.41476 0.76703 0.35521 0.0
H1528 H 0.41852 0.7479 0.36861 0.0
H1529 H 0.43904 0.76439 0.36383 0.0
H1530 H 0.4818 0.74474 0.33814 0.0
H1531 H 0.50633 0.74898 0.36476 0.0
H1532 H 0.04859 0.44882 0.02188 0.0
H1533 H 0.05636 0.41861 0.00402 0.0
H1534 H 0.99541 0.40108 0.98735 0.0
H1535 H 0.98746 0.43101 0.00535 0.0
H1536 H 0.0428 0.38108 0.00997 0.0
H1537 H 0.02143 0.39214 0.93671 0.0
H1538 H 0.02546 0.41173 0.95645 0.0
H1539 H 1.00281 0.39577 0.95308 0.0
C1540 C 0.03683 0.43852 0.01444 0.0
C1541 C 0.01739 0.44238 0.01503 0.0
C1542 C 0.04132 0.42134 0.00414 0.0
C1543 C 0.0265 0.40777 0.99409 0.0
C1544 C 0.00712 0.41158 0.99459 0.0
H1545 H 0.01899 0.28555 0.96179 0.0
H1546 H 0.01668 0.31892 0.97532 0.0
C1547 C 1.00261 0.42871 0.00492 0.0
C1548 C 0.03107 0.38905 0.9841 0.0
H1549 H 0.02575 0.35974 0.94104 0.0
C1550 C 0.03929 0.37651 0.99486 0.0
C1551 C 0.02669 0.3832 0.96434 0.0
C1552 C 0.01878 0.39648 0.95191 0.0
C1553 C 0.04248 0.35794 0.98655 0.0
C1554 C 0.0371 0.35169 0.96702 0.0
C1555 C 0.02967 0.36452 0.95606 0.0
C1556 C 0.03817 0.33154 0.95805 0.0
C1557 C 0.05142 0.34508 0.9988 0.0
C1558 C 0.05061 0.32759 0.94339 0.0
C1559 C 0.05197 0.30841 0.93551 0.0
C1560 C 0.04079 0.29289 0.9421 0.0
C1561 C 0.02795 0.29705 0.95643 0.0
C1562 C 0.02665 0.31615 0.96427 0.0
H1563 H 0.05948 0.35362 0.01176 0.0
H1564 H 0.03967 0.33489 0.00339 0.0
H1565 H 0.06155 0.33644 0.99076 0.0
H1566 H 0.05951 0.33932 0.9383 0.0
H1567 H 0.06194 0.30576 0.92444 0.0
H1568 H 0.66231 0.84086 0.25701 0.0
H1569 H 0.64021 0.82547 0.27803 0.0
H1570 H 0.6822 0.7871 0.2884 0.0
H1571 H 0.70446 0.80277 0.26758 0.0
H1572 H 0.62314 0.78719 0.27939 0.0
H1573 H 0.67547 0.81594 0.34148 0.0
H1574 H 0.67788 0.82395 0.31864 0.0
H1575 H 0.68526 0.80114 0.32251 0.0
C1576 C 0.66657 0.82885 0.2635 0.0
C1577 C 0.68491 0.82286 0.26078 0.0
C1578 C 0.654 0.82012 0.27549 0.0
C1579 C 0.65971 0.80538 0.28502 0.0
C1580 C 0.67767 0.79868 0.28143 0.0
H1581 H 0.61093 0.74959 0.37618 0.0
H1582 H 0.62983 0.75902 0.35017 0.0
C1583 C 0.69027 0.80747 0.26946 0.0
C1584 C 0.64744 0.79805 0.29964 0.0
H1585 H 0.64705 0.79609 0.34727 0.0
C1586 C 0.62835 0.78909 0.29423 0.0
C1587 C 0.65424 0.80071 0.31902 0.0
C1588 C 0.67426 0.8111 0.32586 0.0
C1589 C 0.61596 0.78244 0.30767 0.0
C1590 C 0.62278 0.78512 0.32704 0.0
C1591 C 0.64188 0.79403 0.3324 0.0
C1592 C 0.61048 0.77875 0.34206 0.0
C1593 C 0.59581 0.77233 0.30101 0.0
C1594 C 0.59331 0.78678 0.34622 0.0
C1595 C 0.58242 0.78142 0.36116 0.0
C1596 C 0.58859 0.76802 0.37226 0.0
C1597 C 0.60574 0.75997 0.36796 0.0
C1598 C 0.61658 0.76531 0.35306 0.0
H1599 H 0.59457 0.76716 0.28545 0.0
H1600 H 0.59191 0.75977 0.30856 0.0
H1601 H 0.58506 0.78261 0.30412 0.0
H1602 H 0.58855 0.79747 0.33815 0.0
H1603 H 0.56931 0.78793 0.36413 0.0
H1604 H 0.05294 0.0714 0.01748 0.0
H1605 H 0.05844 0.09786 0.99851 0.0
H1606 H 0.02413 0.0624 0.95111 0.0
H1607 H 0.0184 0.03602 0.97024 0.0
H1608 H 0.07443 0.10049 0.96316 0.0
H1609 H 0.99606 0.11063 0.96132 0.0
H1610 H 0.00645 0.09606 0.97702 0.0
H1611 H 1.00106 0.08669 0.95225 0.0
C1612 C 0.04687 0.06923 0.0029 0.0
C1613 C 0.03532 0.05187 0.99517 0.0
C1614 C 0.04998 0.08429 0.99211 0.0
C1615 C 0.04145 0.08218 0.97351 0.0
C1616 C 0.03057 0.06443 0.96553 0.0
H1617 H 0.06691 0.17139 0.90005 0.0
H1618 H 0.0623 0.1401 0.91169 0.0
C1619 C 0.02743 0.04937 0.97636 0.0
C1620 C 0.04321 0.09892 0.96295 0.0
H1621 H 0.01683 0.1311 0.94536 0.0
C1622 C 0.06185 0.10711 0.9591 0.0
C1623 C 0.02675 0.10763 0.95792 0.0
C1624 C 0.00644 0.09996 0.96245 0.0
C1625 C 0.0645 0.12395 0.95054 0.0
C1626 C 0.04804 0.13264 0.94549 0.0
C1627 C 0.02938 0.12429 0.94911 0.0
C1628 C 0.04996 0.15119 0.93776 0.0
C1629 C 0.08495 0.13274 0.94766 0.0
C1630 C 0.04399 0.16761 0.94828 0.0
C1631 C 0.0465 0.18543 0.94165 0.0
C1632 C 0.05493 0.18715 0.92429 0.0
C1633 C 0.06043 0.17055 0.91351 0.0
C1634 C 0.05791 0.1527 0.92018 0.0
H1635 H 0.09609 0.12656 0.9558 0.0
H1636 H 0.08768 0.12982 0.93234 0.0
H1637 H 0.08683 0.14869 0.95204 0.0
H1638 H 0.03779 0.16674 0.96187 0.0
H1639 H 0.04221 0.19792 0.95036 0.0
H1640 H 0.34192 0.31115 0.26495 0.0
H1641 H 0.36819 0.31174 0.24298 0.0
H1642 H 0.36458 0.24954 0.23745 0.0
H1643 H 0.33854 0.24887 0.25937 0.0
H1644 H 0.40225 0.26726 0.24348 0.0
H1645 H 0.36363 0.29582 0.18555 0.0
H1646 H 0.36514 0.3106 0.20847 0.0
H1647 H 0.35117 0.28694 0.20488 0.0
C1648 C 0.34661 0.2976 0.25888 0.0
C1649 C 0.33818 0.27997 0.26396 0.0
C1650 C 0.36162 0.29795 0.24632 0.0
C1651 C 0.36828 0.28066 0.23843 0.0
C1652 C 0.35977 0.26307 0.24341 0.0
H1653 H 0.42895 0.24915 0.1398 0.0
H1654 H 0.40638 0.25613 0.16428 0.0
C1655 C 0.34489 0.26272 0.25598 0.0
C1656 C 0.38426 0.28064 0.22516 0.0
H1657 H 0.39612 0.29039 0.18116 0.0
C1658 C 0.40099 0.27245 0.2299 0.0
C1659 C 0.38254 0.28729 0.20739 0.0
C1660 C 0.36461 0.29551 0.20112 0.0
C1661 C 0.4158 0.2703 0.21722 0.0
C1662 C 0.41404 0.27688 0.19942 0.0
C1663 C 0.39753 0.28549 0.19486 0.0
C1664 C 0.42818 0.27332 0.1846 0.0
C1665 C 0.43275 0.2602 0.22266 0.0
C1666 C 0.44804 0.28081 0.18775 0.0
C1667 C 0.46114 0.27671 0.17371 0.0
C1668 C 0.45455 0.26518 0.15623 0.0
C1669 C 0.4346 0.25805 0.15307 0.0
C1670 C 0.42161 0.26207 0.16706 0.0
H1671 H 0.42981 0.25236 0.23492 0.0
H1672 H 0.43621 0.2497 0.2105 0.0
H1673 H 0.4458 0.27111 0.22674 0.0
H1674 H 0.45341 0.28983 0.20103 0.0
H1675 H 0.47638 0.28253 0.17656 0.0
H1676 H 0.51824 0.43463 0.02162 0.0
H1677 H 0.51959 0.40591 0.03713 0.0
H1678 H 0.56962 0.43534 0.07279 0.0
H1679 H 0.56793 0.46439 0.0574 0.0
H1680 H 0.54799 0.38312 0.03905 0.0
H1681 H 0.53346 0.41643 0.11173 0.0
H1682 H 0.53008 0.42816 0.0911 0.0
H1683 H 0.55414 0.42835 0.10177 0.0
C1684 C 0.52958 0.43488 0.03271 0.0
C1685 C 0.54302 0.45152 0.03835 0.0
C1686 C 0.53033 0.41852 0.04159 0.0
C1687 C 0.54452 0.41853 0.05633 0.0
C1688 C 0.55829 0.43512 0.06173 0.0
H1689 H 0.56339 0.30797 0.09153 0.0
H1690 H 0.56877 0.34024 0.08232 0.0
C1691 C 0.55747 0.4516 0.05284 0.0
C1692 C 0.54481 0.40093 0.06564 0.0
H1693 H 0.53926 0.38371 0.10789 0.0
C1694 C 0.5462 0.38328 0.05413 0.0
C1695 C 0.54219 0.40111 0.08528 0.0
C1696 C 0.5397 0.41947 0.09821 0.0
C1697 C 0.5448 0.36579 0.06158 0.0
C1698 C 0.54247 0.36596 0.08127 0.0
C1699 C 0.54123 0.38363 0.09286 0.0
C1700 C 0.54048 0.34776 0.08976 0.0
C1701 C 0.54507 0.34719 0.0481 0.0
C1702 C 0.52328 0.34173 0.09821 0.0
C1703 C 0.52027 0.32335 0.10382 0.0
C1704 C 0.53438 0.31066 0.10095 0.0
C1705 C 0.5521 0.31728 0.09366 0.0
C1706 C 0.55517 0.33569 0.0883 0.0
H1707 H 0.5418 0.34902 0.03309 0.0
H1708 H 0.55979 0.3426 0.04915 0.0
H1709 H 0.53433 0.33542 0.05173 0.0
H1710 H 0.51179 0.35088 0.09962 0.0
H1711 H 0.50648 0.3187 0.1094 0.0
H1712 H 0.693 0.20902 0.22653 0.0
H1713 H 0.66684 0.22108 0.20907 0.0
H1714 H 0.62749 0.20816 0.25209 0.0
H1715 H 0.65378 0.19607 0.26961 0.0
H1716 H 0.63046 0.19553 0.19637 0.0
H1717 H 0.61873 0.26418 0.24138 0.0
H1718 H 0.64155 0.2543 0.24261 0.0
H1719 H 0.62067 0.24321 0.25284 0.0
C1720 C 0.67887 0.2092 0.23243 0.0
C1721 C 0.67529 0.20183 0.24938 0.0
C1722 C 0.66397 0.21602 0.22247 0.0
C1723 C 0.64529 0.21565 0.22936 0.0
C1724 C 0.64188 0.20886 0.24669 0.0
H1725 H 0.53902 0.24156 0.17022 0.0
H1726 H 0.56167 0.23413 0.19495 0.0
C1727 C 0.65683 0.20195 0.25665 0.0
C1728 C 0.62908 0.22051 0.21735 0.0
H1729 H 0.59856 0.2545 0.21309 0.0
C1730 C 0.62342 0.20838 0.20007 0.0
C1731 C 0.61975 0.23711 0.22235 0.0
C1732 C 0.62545 0.25058 0.24075 0.0
C1733 C 0.60898 0.2126 0.18744 0.0
C1734 C 0.60024 0.22968 0.19199 0.0
C1735 C 0.60537 0.24149 0.2096 0.0
C1736 C 0.58675 0.23594 0.17798 0.0
C1737 C 0.60325 0.19874 0.16925 0.0
C1738 C 0.59348 0.24002 0.16055 0.0
C1739 C 0.58067 0.24416 0.14645 0.0
C1740 C 0.56078 0.24449 0.1495 0.0
C1741 C 0.55421 0.24135 0.16737 0.0
C1742 C 0.56712 0.23711 0.18151 0.0
H1743 H 0.60691 0.18401 0.17043 0.0
H1744 H 0.5874 0.19768 0.16538 0.0
H1745 H 0.61132 0.20407 0.15752 0.0
H1746 H 0.60865 0.23959 0.15767 0.0
H1747 H 0.58635 0.24677 0.13301 0.0
H1748 H 0.45133 0.06539 0.98974 0.0
H1749 H 0.46114 0.0975 0.00801 0.0
H1750 H 0.5208 0.08601 0.01161 0.0
H1751 H 0.51094 0.05347 0.99374 0.0
H1752 H 0.50854 0.10025 0.04629 0.0
H1753 H 0.48984 0.14632 0.99322 0.0
H1754 H 0.46977 0.12853 0.99616 0.0
H1755 H 0.49172 0.12088 0.98681 0.0
C1756 C 0.46657 0.06972 0.9943 0.0
C1757 C 0.48035 0.05683 0.99034 0.0
C1758 C 0.4722 0.08818 0.00458 0.0
C1759 C 0.49175 0.09429 0.01098 0.0
C1760 C 0.50565 0.08165 0.00669 0.0
H1761 H 0.52364 0.21432 0.06657 0.0
H1762 H 0.52383 0.18352 0.04578 0.0
C1763 C 0.50002 0.06312 0.99637 0.0
C1764 C 0.49726 0.11332 0.02325 0.0
H1765 H 0.493 0.16144 0.02593 0.0
C1766 C 0.50541 0.11368 0.04176 0.0
C1767 C 0.49345 0.1309 0.01727 0.0
C1768 C 0.4859 0.1317 0.99721 0.0
C1769 C 0.50898 0.13098 0.05471 0.0
C1770 C 0.50392 0.14833 0.04912 0.0
C1771 C 0.49665 0.14812 0.03033 0.0
C1772 C 0.50526 0.16668 0.06268 0.0
C1773 C 0.51808 0.13047 0.07427 0.0
C1774 C 0.49483 0.16749 0.07917 0.0
C1775 C 0.49482 0.18507 0.09116 0.0
C1776 C 0.50507 0.20226 0.08682 0.0
C1777 C 0.51572 0.20136 0.07045 0.0
C1778 C 0.51579 0.18376 0.05849 0.0
H1779 H 0.52671 0.11816 0.07425 0.0
H1780 H 0.52773 0.14415 0.07972 0.0
H1781 H 0.50638 0.12852 0.08422 0.0
H1782 H 0.4862 0.15463 0.08247 0.0
H1783 H 0.48633 0.18526 0.10357 0.0
H1784 H 0.30784 0.35527 0.71492 0.0
H1785 H 0.3336 0.38292 0.71882 0.0
H1786 H 0.29032 0.42209 0.72221 0.0
H1787 H 0.26441 0.39455 0.71796 0.0
H1788 H 0.33986 0.41504 0.69676 0.0
H1789 H 0.32597 0.43836 0.77242 0.0
H1790 H 0.31703 0.41446 0.75995 0.0
H1791 H 0.30519 0.43484 0.75559 0.0
C1792 C 0.30376 0.36974 0.71617 0.0
C1793 C 0.28404 0.37268 0.71626 0.0
C1794 C 0.31851 0.38552 0.7185 0.0
C1795 C 0.31384 0.40451 0.72108 0.0
C1796 C 0.29421 0.40753 0.72057 0.0
H1797 H 0.38725 0.51589 0.75091 0.0
H1798 H 0.35961 0.49033 0.74264 0.0
C1799 C 0.27944 0.39177 0.71818 0.0
C1800 C 0.32954 0.42113 0.72475 0.0
H1801 H 0.35021 0.45786 0.75911 0.0
C1802 C 0.34214 0.42444 0.71036 0.0
C1803 C 0.33238 0.43337 0.7425 0.0
C1804 C 0.31955 0.43009 0.7586 0.0
C1805 C 0.3575 0.43979 0.71323 0.0
C1806 C 0.36059 0.45182 0.73112 0.0
C1807 C 0.34781 0.44864 0.74541 0.0
C1808 C 0.37735 0.46741 0.73554 0.0
C1809 C 0.3701 0.44312 0.69697 0.0
C1810 C 0.3965 0.46298 0.73452 0.0
C1811 C 0.41232 0.47754 0.73916 0.0
C1812 C 0.40934 0.49685 0.74515 0.0
C1813 C 0.39011 0.50121 0.74633 0.0
C1814 C 0.37428 0.48662 0.7416 0.0
H1815 H 0.36243 0.43675 0.68302 0.0
H1816 H 0.37459 0.45882 0.69692 0.0
H1817 H 0.38343 0.43607 0.69851 0.0
H1818 H 0.39923 0.44819 0.73037 0.0
H1819 H 0.4269 0.47359 0.73822 0.0
H1820 H 0.26394 0.67147 0.76026 0.0
H1821 H 0.29037 0.65147 0.76059 0.0
H1822 H 0.28474 0.64955 0.82036 0.0
H1823 H 0.25798 0.66936 0.8201 0.0
H1824 H 0.3264 0.66017 0.78432 0.0
H1825 H 0.28195 0.59159 0.79526 0.0
H1826 H 0.27124 0.61118 0.78682 0.0
H1827 H 0.27922 0.61307 0.81144 0.0
C1828 C 0.26817 0.66663 0.77345 0.0
C1829 C 0.25877 0.67191 0.79013 0.0
C1830 C 0.28336 0.65531 0.77363 0.0
C1831 C 0.28939 0.64889 0.79045 0.0
C1832 C 0.28015 0.65418 0.80719 0.0
H1833 H 0.39766 0.59648 0.80036 0.0
H1834 H 0.37104 0.61565 0.80798 0.0
C1835 C 0.26499 0.66562 0.80704 0.0
C1836 C 0.30555 0.63689 0.79034 0.0
H1837 H 0.3157 0.59099 0.7929 0.0
C1838 C 0.32414 0.6451 0.78638 0.0
C1839 C 0.30246 0.6172 0.79291 0.0
C1840 C 0.28264 0.60759 0.79673 0.0
C1841 C 0.3397 0.63406 0.78462 0.0
C1842 C 0.33659 0.61432 0.78702 0.0
C1843 C 0.31805 0.60617 0.79124 0.0
C1844 C 0.35202 0.60161 0.78367 0.0
C1845 C 0.35916 0.64339 0.77951 0.0
C1846 C 0.34988 0.58697 0.76785 0.0
C1847 C 0.36502 0.57603 0.76345 0.0
C1848 C 0.38259 0.57942 0.77488 0.0
C1849 C 0.38436 0.59354 0.79123 0.0
C1850 C 0.36921 0.60456 0.79556 0.0
H1851 H 0.35825 0.65777 0.77505 0.0
H1852 H 0.36974 0.64542 0.79206 0.0
H1853 H 0.36494 0.63393 0.76783 0.0
H1854 H 0.33671 0.58442 0.75852 0.0
H1855 H 0.3631 0.5652 0.75082 0.0
H1856 H 0.94083 0.49791 0.51097 0.0
H1857 H 0.91304 0.47697 0.52026 0.0
H1858 H 0.88767 0.46802 0.46269 0.0
H1859 H 0.91542 0.48878 0.45329 0.0
H1860 H 0.87291 0.47828 0.51838 0.0
H1861 H 0.89135 0.41301 0.4729 0.0
H1862 H 0.90794 0.43524 0.47803 0.0
H1863 H 0.88819 0.43276 0.46016 0.0
C1864 C 0.92922 0.49163 0.50034 0.0
C1865 C 0.93043 0.49481 0.48134 0.0
C1866 C 0.91338 0.47965 0.50566 0.0
C1867 C 0.89847 0.47065 0.49209 0.0
C1868 C 0.89925 0.47444 0.4733 0.0
H1869 H 0.78613 0.40801 0.51219 0.0
H1870 H 0.81218 0.43299 0.50646 0.0
C1871 C 0.91511 0.4863 0.46794 0.0
C1872 C 0.88244 0.45681 0.49743 0.0
H1873 H 0.86122 0.40977 0.48727 0.0
C1874 C 0.87035 0.46328 0.51163 0.0
C1875 C 0.87931 0.43718 0.4888 0.0
C1876 C 0.89248 0.42904 0.47426 0.0
C1877 C 0.85503 0.45068 0.51724 0.0
C1878 C 0.85155 0.4312 0.50818 0.0
C1879 C 0.86379 0.42474 0.49412 0.0
C1880 C 0.83567 0.41698 0.51324 0.0
C1881 C 0.84299 0.45824 0.53308 0.0
C1882 C 0.84016 0.39964 0.51886 0.0
C1883 C 0.82534 0.38528 0.5219 0.0
C1884 C 0.80564 0.38791 0.51941 0.0
C1885 C 0.80114 0.40555 0.51435 0.0
C1886 C 0.81603 0.4199 0.51116 0.0
H1887 H 0.85069 0.47159 0.54187 0.0
H1888 H 0.82917 0.46185 0.52685 0.0
H1889 H 0.83933 0.44719 0.54248 0.0
H1890 H 0.85519 0.39706 0.52056 0.0
H1891 H 0.82937 0.37194 0.52589 0.0
H1892 H 0.77243 0.81551 0.75446 0.0
H1893 H 0.7604 0.84608 0.74962 0.0
H1894 H 0.74197 0.85287 0.80701 0.0
H1895 H 0.75432 0.82268 0.81188 0.0
H1896 H 0.72288 0.85454 0.75143 0.0
H1897 H 0.77108 0.90593 0.80518 0.0
H1898 H 0.776 0.88154 0.79745 0.0
H1899 H 0.75852 0.8861 0.81492 0.0
C1900 C 0.76615 0.82382 0.76609 0.0
C1901 C 0.76449 0.81708 0.78361 0.0
C1902 C 0.7592 0.84116 0.76332 0.0
C1903 C 0.75054 0.85195 0.77806 0.0
C1904 C 0.74902 0.84512 0.79559 0.0
H1905 H 0.69236 0.95588 0.7876 0.0
H1906 H 0.70307 0.9248 0.79221 0.0
C1907 C 0.75601 0.82787 0.79836 0.0
C1908 C 0.74216 0.86977 0.77487 0.0
H1909 H 0.74354 0.91787 0.79208 0.0
C1910 C 0.72749 0.86841 0.76024 0.0
C1911 C 0.7481 0.88787 0.78643 0.0
C1912 C 0.76442 0.89054 0.80175 0.0
C1913 C 0.71844 0.88457 0.75704 0.0
C1914 C 0.72431 0.9026 0.76867 0.0
C1915 C 0.73893 0.90397 0.78331 0.0
C1916 C 0.71627 0.92048 0.76524 0.0
C1917 C 0.70247 0.88219 0.74142 0.0
C1918 C 0.72 0.92823 0.74851 0.0
C1919 C 0.714 0.94595 0.74587 0.0
C1920 C 0.70411 0.95634 0.75993 0.0
C1921 C 0.69983 0.94823 0.77645 0.0
C1922 C 0.70601 0.93052 0.77914 0.0
H1923 H 0.69637 0.86675 0.73699 0.0
H1924 H 0.69047 0.89052 0.74601 0.0
H1925 H 0.70849 0.88784 0.72883 0.0
H1926 H 0.72812 0.92087 0.73772 0.0
H1927 H 0.71754 0.95172 0.73296 0.0
H1928 H 0.58578 0.55141 1.00018 0.0
H1929 H 0.61862 0.56889 0.00678 0.0
H1930 H 0.64009 0.51663 0.01864 0.0
H1931 H 0.60695 0.49883 0.01191 0.0
H1932 H 0.64426 0.57088 0.04282 0.0
H1933 H 0.67454 0.53905 0.97596 0.0
H1934 H 0.64864 0.53937 0.97754 0.0
H1935 H 0.66085 0.52344 0.99 0.0
C1936 C 0.59748 0.54357 0.00412 0.0
C1937 C 0.59383 0.52369 0.00532 0.0
C1938 C 0.61621 0.55361 0.00797 0.0
C1939 C 0.63178 0.54401 0.01301 0.0
C1940 C 0.62825 0.52423 0.0146 0.0
H1941 H 0.75142 0.60801 0.02326 0.0
H1942 H 0.72534 0.5808 0.02278 0.0
C1943 C 0.60935 0.51413 0.01087 0.0
C1944 C 0.65155 0.55512 0.01649 0.0
H1945 H 0.6933 0.5661 0.99432 0.0
C1946 C 0.65518 0.56959 0.03243 0.0
C1947 C 0.66577 0.55332 0.00295 0.0
C1948 C 0.66241 0.53802 0.98557 0.0
C1949 C 0.67224 0.58293 0.03472 0.0
C1950 C 0.68583 0.58203 0.0205 0.0
C1951 C 0.68282 0.56681 0.00516 0.0
C1952 C 0.70187 0.59805 0.02025 0.0
C1953 C 0.67528 0.59829 0.05208 0.0
C1954 C 0.69729 0.61659 0.01847 0.0
C1955 C 0.71202 0.63205 0.01867 0.0
C1956 C 0.73178 0.62937 0.02058 0.0
C1957 C 0.73638 0.61062 0.02184 0.0
C1958 C 0.72152 0.59506 0.02159 0.0
H1959 H 0.66717 0.59357 0.06407 0.0
H1960 H 0.69098 0.60197 0.05679 0.0
H1961 H 0.66978 0.61161 0.04859 0.0
H1962 H 0.68223 0.61914 0.01702 0.0
H1963 H 0.70783 0.64618 0.01751 0.0
H1964 H 0.30441 0.68879 0.20211 0.0
H1965 H 0.27723 0.66321 0.20323 0.0
H1966 H 0.27275 0.68404 0.26267 0.0
H1967 H 0.29989 0.70954 0.26163 0.0
H1968 H 0.27767 0.64552 0.25552 0.0
H1969 H 0.21805 0.66086 0.20738 0.0
H1970 H 0.24128 0.66081 0.19717 0.0
H1971 H 0.23828 0.67893 0.21694 0.0
C1972 C 0.29725 0.68824 0.21526 0.0
C1973 C 0.30436 0.70106 0.23182 0.0
C1974 C 0.2817 0.67363 0.21588 0.0
C1975 C 0.2729 0.67177 0.23302 0.0
C1976 C 0.27933 0.68521 0.2493 0.0
H1977 H 0.17785 0.58842 0.25913 0.0
H1978 H 0.19778 0.61798 0.2531 0.0
C1979 C 0.29487 0.69973 0.2487 0.0
C1980 C 0.2587 0.65458 0.23465 0.0
H1981 H 0.21427 0.62985 0.21766 0.0
C1982 C 0.26377 0.64218 0.24731 0.0
C1983 C 0.24053 0.65028 0.22399 0.0
C1984 C 0.23407 0.66349 0.21072 0.0
C1985 C 0.25132 0.62545 0.24942 0.0
C1986 C 0.23341 0.62083 0.23838 0.0
C1987 C 0.22811 0.63337 0.22595 0.0
C1988 C 0.22015 0.60297 0.23977 0.0
C1989 C 0.25737 0.61287 0.26355 0.0
C1990 C 0.2259 0.58478 0.23378 0.0
C1991 C 0.21462 0.56791 0.23722 0.0
C1992 C 0.19732 0.56892 0.24668 0.0
C1993 C 0.19112 0.58714 0.25186 0.0
C1994 C 0.20244 0.60404 0.24839 0.0
H1995 H 0.26942 0.62055 0.27375 0.0
H1996 H 0.24486 0.60804 0.27169 0.0
H1997 H 0.26249 0.59979 0.2558 0.0
H1998 H 0.23946 0.58367 0.22698 0.0
H1999 H 0.21986 0.55416 0.23306 0.0
H2000 H 0.97797 0.55 0.03442 0.0
H2001 H 0.95467 0.57377 0.03633 0.0
H2002 H 0.90749 0.5278 0.03736 0.0
H2003 H 0.9308 0.50424 0.03588 0.0
H2004 H 0.92579 0.57373 0.00931 0.0
H2005 H 0.89313 0.56856 0.07823 0.0
H2006 H 0.91546 0.55897 0.07239 0.0
H2007 H 0.89225 0.54545 0.06359 0.0
C2008 C 0.96269 0.54518 0.03573 0.0
C2009 C 0.95608 0.52548 0.03537 0.0
C2010 C 0.94939 0.55869 0.03667 0.0
C2011 C 0.92932 0.55263 0.03722 0.0
C2012 C 0.92289 0.53293 0.03745 0.0
H2013 H 0.82342 0.60573 0.02296 0.0
H2014 H 0.84735 0.58305 0.02526 0.0
C2015 C 0.93619 0.51948 0.03659 0.0
C2016 C 0.91497 0.56647 0.03561 0.0
H2017 H 0.87604 0.58425 0.05626 0.0
C2018 C 0.91504 0.57617 0.01968 0.0
C2019 C 0.90082 0.56952 0.04905 0.0
C2020 C 0.90048 0.56022 0.06687 0.0
C2021 C 0.90118 0.58856 0.01665 0.0
C2022 C 0.88697 0.59151 0.03002 0.0
C2023 C 0.88688 0.58185 0.04596 0.0
C2024 C 0.87247 0.60507 0.028 0.0
C2025 C 0.9016 0.5981 0.99897 0.0
C2026 C 0.87867 0.62492 0.0288 0.0
C2027 C 0.8651 0.63786 0.02749 0.0
C2028 C 0.84499 0.63123 0.02541 0.0
C2029 C 0.83879 0.61129 0.02444 0.0
C2030 C 0.85243 0.59833 0.02583 0.0
H2031 H 0.91005 0.59065 0.98794 0.0
H2032 H 0.88661 0.59827 0.99282 0.0
H2033 H 0.90863 0.61332 0.0027 0.0
H2034 H 0.89404 0.63047 0.03076 0.0
H2035 H 0.87041 0.65312 0.02836 0.0
H2036 H 0.09932 0.01854 0.0686 0.0
H2037 H 0.12919 0.00369 0.06364 0.0
H2038 H 0.10204 0.96867 0.01229 0.0
H2039 H 0.07219 0.98337 0.01715 0.0
H2040 H 0.13266 0.96515 0.06227 0.0
H2041 H 0.15451 0.98939 0.99475 0.0
H2042 H 0.13684 1.00038 0.00906 0.0
H2043 H 0.12978 0.97788 0.99343 0.0
C2044 C 0.09975 0.00774 0.0562 0.0
C2045 C 0.08337 1.00217 0.04326 0.0
C2046 C 0.11686 0.99935 0.05333 0.0
C2047 C 0.11797 0.98529 0.03743 0.0
C2048 C 0.10172 0.97986 0.02438 0.0
H2049 H 0.19383 0.90085 1.00148 0.0
H2050 H 0.16894 0.92274 0.00412 0.0
C2051 C 0.08463 0.98826 0.02721 0.0
C2052 C 0.13553 0.97523 0.03526 0.0
H2053 H 0.17012 0.96357 0.00447 0.0
C2054 C 0.141 0.965 0.04974 0.0
C2055 C 0.14634 0.97498 0.01886 0.0
C2056 C 0.14171 0.9864 0.00321 0.0
C2057 C 0.15659 0.95403 0.04803 0.0
C2058 C 0.16722 0.95354 0.03151 0.0
C2059 C 0.16194 0.96398 0.01712 0.0
C2060 C 0.1834 0.94166 0.02872 0.0
C2061 C 0.16111 0.94251 0.06364 0.0
C2062 C 0.20013 0.94545 0.04125 0.0
C2063 C 0.21437 0.93296 0.03982 0.0
C2064 C 0.21219 0.91648 0.02574 0.0
C2065 C 0.19593 0.91334 0.01255 0.0
C2066 C 0.18168 0.92584 0.01402 0.0
H2067 H 0.14895 0.94096 0.07317 0.0
H2068 H 0.16417 0.92782 0.05759 0.0
H2069 H 0.17425 0.95003 0.0724 0.0
H2070 H 0.20192 0.9578 0.05247 0.0
H2071 H 0.22678 0.93591 0.05011 0.0
loop_
_geom_bond_atom_site_label_1
_geom_bond_atom_site_label_2
_geom_bond_distance
_geom_bond_site_symmetry_2
_ccdc_geom_bond_type
H0 C3 0.929 . S
H1 C6 0.929 . S
H2 C8 0.930 . S
C3 H0 0.929 . S
C3 C4 1.398 . S
C3 C5 1.396 . S
C4 C3 1.398 . S
C4 C8 1.407 . S
C5 C3 1.396 . S
C5 C6 1.394 . S
C6 H1 0.929 . S
C6 C5 1.394 . S
C6 C7 1.382 . S
C7 C6 1.382 . S
C7 C8 1.392 . S
C7 N9 1.420 . S
C8 H2 0.930 . S
C8 C4 1.407 . S
C8 C7 1.392 . S
N9 C7 1.420 . S
N9 C10 1.244 . S
C10 N9 1.244 . S
H11 C14 0.929 . S
H12 C17 0.929 . S
H13 C19 0.930 . S
C14 H11 0.929 . S
C14 C15 1.398 . S
C14 C16 1.396 . S
C15 C14 1.398 . S
C15 C19 1.407 . S
C16 C14 1.396 . S
C16 C17 1.394 . S
C17 H12 0.929 . S
C17 C16 1.394 . S
C17 C18 1.382 . S
C18 C17 1.382 . S
C18 C19 1.392 . S
C18 N20 1.420 . S
C19 H13 0.930 . S
C19 C15 1.407 . S
C19 C18 1.392 . S
N20 C18 1.420 . S
N20 C21 1.244 . S
C21 N20 1.244 . S
H22 C25 0.929 . S
H23 C28 0.929 . S
H24 C30 0.930 . S
C25 H22 0.929 . S
C25 C26 1.398 1_455 S
C25 C27 1.396 . S
C26 C25 1.398 1_655 S
C26 C30 1.407 . S
C27 C25 1.396 . S
C27 C28 1.394 1_455 S
C28 H23 0.929 . S
C28 C27 1.394 1_655 S
C28 C29 1.382 . S
C29 C28 1.382 . S
C29 C30 1.392 . S
C29 N31 1.420 . S
C30 H24 0.930 . S
C30 C26 1.407 . S
C30 C29 1.392 . S
N31 C29 1.420 . S
N31 C32 1.244 . S
C32 N31 1.244 . S
H33 C36 0.929 . S
H34 C39 0.929 . S
H35 C41 0.930 . S
C36 H33 0.929 . S
C36 C37 1.398 . S
C36 C38 1.396 . S
C37 C36 1.398 . S
C37 C41 1.407 . S
C38 C36 1.396 . S
C38 C39 1.394 . S
C39 H34 0.929 . S
C39 C38 1.394 . S
C39 C40 1.382 . S
C40 C39 1.382 . S
C40 C41 1.392 . S
C40 N42 1.420 . S
C41 H35 0.930 . S
C41 C37 1.407 . S
C41 C40 1.392 . S
N42 C40 1.420 . S
N42 C43 1.244 . S
C43 N42 1.244 . S
H44 C47 0.931 . S
H45 C50 0.929 . S
H46 C52 0.930 . S
C47 H44 0.931 . S
C47 C48 1.398 . S
C47 C49 1.396 . S
C48 C47 1.398 . S
C48 C52 1.407 . S
C49 C47 1.396 . S
C49 C50 1.394 . S
C50 H45 0.929 . S
C50 C49 1.394 . S
C50 C51 1.382 . S
C51 C50 1.382 . S
C51 C52 1.392 . S
C51 N53 1.420 . S
C52 H46 0.930 . S
C52 C48 1.407 . S
C52 C51 1.392 . S
N53 C51 1.420 . S
N53 C54 1.244 . S
C54 N53 1.244 . S
H55 C58 0.929 . S
H56 C61 0.929 . S
H57 C63 0.930 . S
C58 H55 0.929 . S
C58 C59 1.398 . S
C58 C60 1.396 . S
C59 C58 1.398 . S
C59 C63 1.407 . S
C60 C58 1.396 . S
C60 C61 1.394 . S
C61 H56 0.929 . S
C61 C60 1.394 . S
C61 C62 1.382 . S
C62 C61 1.382 . S
C62 C63 1.392 . S
C62 N64 1.420 . S
C63 H57 0.930 . S
C63 C59 1.407 . S
C63 C62 1.392 . S
N64 C62 1.420 . S
N64 C65 1.244 . S
C65 N64 1.244 . S
H66 C69 0.929 . S
H67 C72 0.929 1_455 S
H68 C74 0.930 . S
C69 H66 0.929 . S
C69 C70 1.398 . S
C69 C71 1.396 . S
C70 C69 1.398 . S
C70 C74 1.407 . S
C71 C69 1.396 . S
C71 C72 1.394 . S
C72 H67 0.929 1_655 S
C72 C71 1.394 . S
C72 C73 1.382 . S
C73 C72 1.382 . S
C73 C74 1.392 . S
C73 N75 1.416 1_655 S
C74 H68 0.930 . S
C74 C70 1.407 . S
C74 C73 1.392 . S
N75 C73 1.416 1_455 S
N75 C76 1.247 . S
C76 N75 1.247 . S
H77 C80 0.929 . S
H78 C83 0.929 . S
H79 C85 0.930 . S
C80 H77 0.929 . S
C80 C81 1.398 . S
C80 C82 1.396 . S
C81 C80 1.398 . S
C81 C85 1.407 . S
C82 C80 1.396 . S
C82 C83 1.394 . S
C83 H78 0.929 . S
C83 C82 1.394 . S
C83 C84 1.382 . S
C84 C83 1.382 . S
C84 C85 1.392 . S
C84 N86 1.420 . S
C85 H79 0.930 . S
C85 C81 1.407 . S
C85 C84 1.392 . S
N86 C84 1.420 . S
N86 C87 1.244 . S
C87 N86 1.244 . S
H88 C91 0.929 . S
H89 C94 0.929 . S
H90 C96 0.930 . S
C91 H88 0.929 . S
C91 C92 1.398 . S
C91 C93 1.396 . S
C92 C91 1.398 . S
C92 C96 1.407 . S
C93 C91 1.396 . S
C93 C94 1.394 . S
C94 H89 0.929 . S
C94 C93 1.394 . S
C94 C95 1.382 . S
C95 C94 1.382 . S
C95 C96 1.392 . S
C95 N97 1.420 . S
C96 H90 0.930 . S
C96 C92 1.407 . S
C96 C95 1.392 . S
N97 C95 1.420 . S
N97 C98 1.244 . S
C98 N97 1.244 . S
H99 C102 0.929 . S
H100 C105 0.929 1_545 S
H101 C107 0.930 . S
C102 H99 0.929 . S
C102 C103 1.398 . S
C102 C104 1.396 . S
C103 C102 1.398 . S
C103 C107 1.407 . S
C104 C102 1.396 . S
C104 C105 1.394 . S
C105 H100 0.929 1_565 S
C105 C104 1.394 . S
C105 C106 1.382 . S
C106 C105 1.382 . S
C106 C107 1.392 . S
C106 N108 1.374 1_565 S
C107 H101 0.930 . S
C107 C103 1.407 . S
C107 C106 1.392 . S
N108 C106 1.374 1_545 S
N108 C109 1.276 . S
C109 N108 1.276 . S
H110 C113 0.929 . S
H111 C116 0.929 . S
H112 C118 0.930 . S
C113 H110 0.929 . S
C113 C114 1.398 . S
C113 C115 1.396 . S
C114 C113 1.398 . S
C114 C118 1.407 . S
C115 C113 1.396 . S
C115 C116 1.394 . S
C116 H111 0.929 . S
C116 C115 1.394 . S
C116 C117 1.382 . S
C117 C116 1.382 . S
C117 C118 1.392 . S
C117 N119 1.420 . S
C118 H112 0.930 . S
C118 C114 1.407 . S
C118 C117 1.392 . S
N119 C117 1.420 . S
N119 C120 1.244 . S
C120 N119 1.244 . S
H121 C124 0.929 . S
H122 C127 0.929 . S
H123 C129 0.930 . S
C124 H121 0.929 . S
C124 C125 1.398 . S
C124 C126 1.396 . S
C125 C124 1.398 . S
C125 C129 1.407 . S
C126 C124 1.396 . S
C126 C127 1.394 . S
C127 H122 0.929 . S
C127 C126 1.394 . S
C127 C128 1.382 . S
C128 C127 1.382 . S
C128 C129 1.392 . S
C128 N130 1.420 . S
C129 H123 0.930 . S
C129 C125 1.407 . S
C129 C128 1.392 . S
N130 C128 1.420 . S
N130 C131 1.244 . S
C131 N130 1.244 . S
H132 C135 0.929 . S
H133 C138 0.929 . S
H134 C140 0.930 . S
C135 H132 0.929 . S
C135 C136 1.398 . S
C135 C137 1.396 . S
C136 C135 1.398 . S
C136 C140 1.407 . S
C137 C135 1.396 . S
C137 C138 1.394 . S
C138 H133 0.929 . S
C138 C137 1.394 . S
C138 C139 1.382 . S
C139 C138 1.382 . S
C139 C140 1.392 . S
C139 N141 1.420 . S
C140 H134 0.930 . S
C140 C136 1.407 . S
C140 C139 1.392 . S
N141 C139 1.420 . S
N141 C142 1.244 . S
C142 N141 1.244 . S
H143 C146 0.929 . S
H144 C149 0.880 1_554 S
H145 C151 0.930 . S
C146 H143 0.929 . S
C146 C147 1.398 . S
C146 C148 1.396 . S
C147 C146 1.398 . S
C147 C151 1.407 . S
C148 C146 1.396 . S
C148 C149 1.437 . S
C149 H144 0.880 1_556 S
C149 C148 1.437 . S
C149 C150 1.390 . S
C150 C149 1.390 . S
C150 C151 1.392 . S
C150 N152 1.420 1_556 S
C151 H145 0.930 . S
C151 C147 1.407 . S
C151 C150 1.392 . S
N152 C150 1.420 1_554 S
N152 C153 1.244 . S
C153 N152 1.244 . S
H154 C157 0.929 . S
H155 C160 0.929 . S
H156 C162 0.930 . S
C157 H154 0.929 . S
C157 C158 1.398 . S
C157 C159 1.396 . S
C158 C157 1.398 . S
C158 C162 1.407 . S
C159 C157 1.396 . S
C159 C160 1.394 . S
C160 H155 0.929 . S
C160 C159 1.394 . S
C160 C161 1.382 . S
C161 C160 1.382 . S
C161 C162 1.392 . S
C161 N163 1.420 . S
C162 H156 0.930 . S
C162 C158 1.407 . S
C162 C161 1.392 . S
N163 C161 1.420 . S
N163 C164 1.244 . S
C164 N163 1.244 . S
H165 C168 0.929 . S
H166 C171 0.929 . S
H167 C173 0.930 1_565 S
C168 H165 0.929 . S
C168 C169 1.398 . S
C168 C170 1.396 . S
C169 C168 1.398 . S
C169 C173 1.407 . S
C170 C168 1.396 . S
C170 C171 1.394 . S
C171 H166 0.929 . S
C171 C170 1.394 . S
C171 C172 1.382 . S
C172 C171 1.382 . S
C172 C173 1.392 . S
C172 N174 1.420 . S
C173 H167 0.930 1_545 S
C173 C169 1.407 . S
C173 C172 1.392 . S
N174 C172 1.420 . S
N174 C175 1.244 . S
C175 N174 1.244 . S
Mg176 O177 2.028 . S
Mg176 O183 1.986 . S
Mg176 O185 2.114 . S
Mg176 O186 2.251 . S
Mg176 O189 2.010 . S
O177 Mg176 2.028 . S
O177 C180 1.250 . S
O178 Mg179 2.028 . S
O178 C180 1.248 . S
Mg179 O178 2.028 . S
Mg179 O184 2.032 1_554 S
Mg179 O186 2.079 . S
C180 O177 1.250 . S
C180 O178 1.248 . S
C181 O182 1.264 . S
C181 O189 1.249 . S
O182 C181 1.264 . S
O183 Mg176 1.986 . S
O183 C187 1.246 1_554 S
O184 Mg179 2.032 1_556 S
O184 C187 1.260 . S
O185 Mg176 2.114 . S
O185 C188 1.252 . S
O186 Mg176 2.251 . S
O186 Mg179 2.079 . S
O186 C188 1.273 . S
C187 O183 1.246 1_556 S
C187 O184 1.260 . S
C188 O185 1.252 . S
C188 O186 1.273 . S
O189 Mg176 2.010 . S
O189 C181 1.249 . S
Mg190 O191 2.028 . S
Mg190 O197 1.986 . S
Mg190 O199 2.114 . S
Mg190 O200 2.251 . S
Mg190 O203 2.010 . S
O191 Mg190 2.028 . S
O191 C194 1.250 . S
O192 Mg193 2.028 . S
O192 C194 1.248 . S
Mg193 O192 2.028 . S
Mg193 O198 2.032 . S
Mg193 O200 2.079 . S
C194 O191 1.250 . S
C194 O192 1.248 . S
C195 O196 1.264 . S
C195 O203 1.249 . S
O196 C195 1.264 . S
O197 Mg190 1.986 . S
O197 C201 1.246 . S
O198 Mg193 2.032 . S
O198 C201 1.259 . S
O199 Mg190 2.114 . S
O199 C202 1.252 . S
O200 Mg190 2.251 . S
O200 Mg193 2.079 . S
O200 C202 1.273 . S
C201 O197 1.246 . S
C201 O198 1.259 . S
C202 O199 1.252 . S
C202 O200 1.273 . S
O203 Mg190 2.010 . S
O203 C195 1.249 . S
Mg204 O205 2.028 1_554 S
Mg204 O211 1.986 1_554 S
Mg204 O213 2.114 . S
Mg204 O214 2.251 . S
Mg204 O217 2.010 . S
O205 Mg204 2.028 1_556 S
O205 C208 1.253 . S
O206 Mg207 2.028 . S
O206 C208 1.248 . S
Mg207 O206 2.028 . S
Mg207 O212 2.032 . S
Mg207 O214 2.079 1_556 S
C208 O205 1.253 . S
C208 O206 1.248 . S
C209 O210 1.264 . S
C209 O217 1.249 . S
O210 C209 1.264 . S
O211 Mg204 1.986 1_556 S
O211 C215 1.246 . S
O212 Mg207 2.032 . S
O212 C215 1.259 . S
O213 Mg204 2.114 . S
O213 C216 1.252 . S
O214 Mg204 2.251 . S
O214 Mg207 2.079 1_554 S
O214 C216 1.273 . S
C215 O211 1.246 . S
C215 O212 1.259 . S
C216 O213 1.252 . S
C216 O214 1.273 . S
O217 Mg204 2.010 . S
O217 C209 1.249 . S
Mg218 O219 2.028 . S
Mg218 O225 1.986 . S
Mg218 O227 2.114 . S
Mg218 O228 2.251 . S
Mg218 O231 2.010 . S
O219 Mg218 2.028 . S
O219 C222 1.250 . S
O220 Mg221 2.028 . S
O220 C222 1.248 1_565 S
Mg221 O220 2.028 . S
Mg221 O226 2.032 1_565 S
Mg221 O228 2.079 1_565 S
C222 O219 1.250 . S
C222 O220 1.248 1_545 S
C223 O224 1.264 . S
C223 O231 1.249 . S
O224 C223 1.264 . S
O225 Mg218 1.986 . S
O225 C229 1.246 . S
O226 Mg221 2.032 1_545 S
O226 C229 1.259 . S
O227 Mg218 2.114 . S
O227 C230 1.252 . S
O228 Mg218 2.251 . S
O228 Mg221 2.079 1_545 S
O228 C230 1.273 . S
C229 O225 1.246 . S
C229 O226 1.259 . S
C230 O227 1.252 . S
C230 O228 1.273 . S
O231 Mg218 2.010 . S
O231 C223 1.249 . S
Mg232 O233 2.028 . S
Mg232 O239 1.986 . S
Mg232 O241 2.114 . S
Mg232 O242 2.251 . S
Mg232 O245 2.010 . S
O233 Mg232 2.028 . S
O233 C236 1.250 . S
O234 Mg235 2.028 . S
O234 C236 1.248 . S
Mg235 O234 2.028 . S
Mg235 O240 2.032 . S
Mg235 O242 2.079 . S
C236 O233 1.250 . S
C236 O234 1.248 . S
C237 O238 1.264 . S
C237 O245 1.249 . S
O238 C237 1.264 . S
O239 Mg232 1.986 . S
O239 C243 1.246 . S
O240 Mg235 2.032 . S
O240 C243 1.259 . S
O241 Mg232 2.114 . S
O241 C244 1.252 . S
O242 Mg232 2.251 . S
O242 Mg235 2.079 . S
O242 C244 1.273 . S
C243 O239 1.246 . S
C243 O240 1.259 . S
C244 O241 1.252 . S
C244 O242 1.273 . S
O245 Mg232 2.010 . S
O245 C237 1.249 . S
Mg246 O247 2.028 . S
Mg246 O253 1.986 . S
Mg246 O255 2.114 . S
Mg246 O256 2.251 . S
Mg246 O259 2.010 . S
O247 Mg246 2.028 . S
O247 C250 1.250 . S
O248 Mg249 2.028 . S
O248 C250 1.248 . S
Mg249 O248 2.028 . S
Mg249 O254 2.032 . S
Mg249 O256 2.079 . S
C250 O247 1.250 . S
C250 O248 1.248 . S
C251 O252 1.264 . S
C251 O259 1.249 . S
O252 C251 1.264 . S
O253 Mg246 1.986 . S
O253 C257 1.246 . S
O254 Mg249 2.032 . S
O254 C257 1.259 . S
O255 Mg246 2.114 . S
O255 C258 1.252 . S
O256 Mg246 2.251 . S
O256 Mg249 2.079 . S
O256 C258 1.273 . S
C257 O253 1.246 . S
C257 O254 1.259 . S
C258 O255 1.252 . S
C258 O256 1.273 . S
O259 Mg246 2.010 . S
O259 C251 1.249 . S
Mg260 O261 2.028 . S
Mg260 O267 1.986 . S
Mg260 O269 2.114 . S
Mg260 O270 2.251 . S
Mg260 O273 2.010 . S
O261 Mg260 2.028 . S
O261 C264 1.250 . S
O262 Mg263 2.028 . S
O262 C264 1.248 . S
Mg263 O262 2.028 . S
Mg263 O268 2.032 . S
Mg263 O270 2.079 . S
C264 O261 1.250 . S
C264 O262 1.248 . S
C265 O266 1.264 . S
C265 O273 1.249 . S
O266 C265 1.264 . S
O267 Mg260 1.986 . S
O267 C271 1.246 . S
O268 Mg263 2.032 . S
O268 C271 1.259 . S
O269 Mg260 2.114 . S
O269 C272 1.252 . S
O270 Mg260 2.251 . S
O270 Mg263 2.079 . S
O270 C272 1.273 . S
C271 O267 1.246 . S
C271 O268 1.259 . S
C272 O269 1.252 . S
C272 O270 1.273 . S
O273 Mg260 2.010 . S
O273 C265 1.249 . S
Mg274 O275 2.028 1_545 S
Mg274 O281 1.986 1_545 S
Mg274 O283 2.114 . S
Mg274 O284 2.251 . S
Mg274 O287 2.010 . S
O275 Mg274 2.028 1_565 S
O275 C278 1.250 . S
O276 Mg277 2.028 . S
O276 C278 1.248 . S
Mg277 O276 2.028 . S
Mg277 O282 2.032 . S
Mg277 O284 2.079 1_565 S
C278 O275 1.250 . S
C278 O276 1.248 . S
C279 O280 1.264 . S
C279 O287 1.249 . S
O280 C279 1.264 . S
O281 Mg274 1.986 1_565 S
O281 C285 1.246 . S
O282 Mg277 2.032 . S
O282 C285 1.259 . S
O283 Mg274 2.114 . S
O283 C286 1.252 . S
O284 Mg274 2.251 . S
O284 Mg277 2.079 1_545 S
O284 C286 1.273 . S
C285 O281 1.246 . S
C285 O282 1.259 . S
C286 O283 1.252 . S
C286 O284 1.273 . S
O287 Mg274 2.010 . S
O287 C279 1.249 . S
Mg288 O289 2.028 . S
Mg288 O295 1.986 . S
Mg288 O297 2.114 . S
Mg288 O298 2.251 . S
Mg288 O301 2.010 . S
O289 Mg288 2.028 . S
O289 C292 1.250 1_455 S
O290 Mg291 2.028 . S
O290 C292 1.248 . S
Mg291 O290 2.028 . S
Mg291 O296 2.032 1_655 S
Mg291 O298 2.079 1_655 S
C292 O289 1.250 1_655 S
C292 O290 1.248 . S
C293 O294 1.264 . S
C293 O301 1.249 . S
O294 C293 1.264 . S
O295 Mg288 1.986 . S
O295 C299 1.246 . S
O296 Mg291 2.032 1_455 S
O296 C299 1.259 . S
O297 Mg288 2.114 . S
O297 C300 1.252 . S
O298 Mg288 2.251 . S
O298 Mg291 2.079 1_455 S
O298 C300 1.273 . S
C299 O295 1.246 . S
C299 O296 1.259 . S
C300 O297 1.252 . S
C300 O298 1.273 . S
O301 Mg288 2.010 . S
O301 C293 1.249 . S
Mg302 O303 2.028 . S
Mg302 O309 1.986 . S
Mg302 O311 2.114 . S
Mg302 O312 2.251 . S
Mg302 O315 2.010 . S
O303 Mg302 2.028 . S
O303 C306 1.250 . S
O304 Mg305 2.028 . S
O304 C306 1.248 . S
Mg305 O304 2.028 . S
Mg305 O310 2.032 . S
Mg305 O312 2.079 . S
C306 O303 1.250 . S
C306 O304 1.248 . S
C307 O308 1.264 . S
C307 O315 1.249 . S
O308 C307 1.264 . S
O309 Mg302 1.986 . S
O309 C313 1.246 . S
O310 Mg305 2.032 . S
O310 C313 1.259 . S
O311 Mg302 2.114 . S
O311 C314 1.252 . S
O312 Mg302 2.251 . S
O312 Mg305 2.079 . S
O312 C314 1.273 . S
C313 O309 1.246 . S
C313 O310 1.259 . S
C314 O311 1.252 . S
C314 O312 1.273 . S
O315 Mg302 2.010 . S
O315 C307 1.249 . S
Mg316 O317 2.028 1_655 S
Mg316 O323 1.986 1_655 S
Mg316 O325 2.114 . S
Mg316 O326 2.251 1_655 S
Mg316 O329 2.010 . S
O317 Mg316 2.028 1_455 S
O317 C320 1.250 . S
O318 Mg319 2.028 . S
O318 C320 1.248 . S
Mg319 O318 2.028 . S
Mg319 O324 2.032 . S
Mg319 O326 2.079 . S
C320 O317 1.250 . S
C320 O318 1.248 . S
C321 O322 1.264 . S
C321 O329 1.249 . S
O322 C321 1.264 . S
O323 Mg316 1.986 1_455 S
O323 C327 1.246 . S
O324 Mg319 2.032 . S
O324 C327 1.259 . S
O325 Mg316 2.114 . S
O325 C328 1.252 . S
O326 Mg316 2.251 1_455 S
O326 Mg319 2.079 . S
O326 C328 1.273 1_455 S
C327 O323 1.246 . S
C327 O324 1.259 . S
C328 O325 1.252 . S
C328 O326 1.273 1_655 S
O329 Mg316 2.010 . S
O329 C321 1.249 . S
Mg330 O331 2.028 . S
Mg330 O337 1.986 . S
Mg330 O339 2.114 . S
Mg330 O340 2.251 . S
Mg330 O343 2.010 . S
O331 Mg330 2.028 . S
O331 C334 1.250 . S
O332 Mg333 2.028 . S
O332 C334 1.248 . S
Mg333 O332 2.028 . S
Mg333 O338 2.032 . S
Mg333 O340 2.079 . S
C334 O331 1.250 . S
C334 O332 1.248 . S
C335 O336 1.264 . S
C335 O343 1.249 . S
O336 C335 1.264 . S
O337 Mg330 1.986 . S
O337 C341 1.246 . S
O338 Mg333 2.032 . S
O338 C341 1.259 . S
O339 Mg330 2.114 . S
O339 C342 1.252 . S
O340 Mg330 2.251 . S
O340 Mg333 2.079 . S
O340 C342 1.273 . S
C341 O337 1.246 . S
C341 O338 1.259 . S
C342 O339 1.252 . S
C342 O340 1.273 . S
O343 Mg330 2.010 . S
O343 C335 1.249 . S
H344 C352 0.929 . S
H345 C354 0.930 . S
H346 C356 0.930 . S
H347 C359 0.929 . S
H348 C362 0.930 . S
H349 C364 0.960 . S
H350 C364 0.960 . S
H351 C364 0.960 . S
C352 H344 0.929 . S
C352 C353 1.377 . S
C352 C354 1.384 . S
C353 C352 1.377 . S
C353 C359 1.390 . S
C354 H345 0.930 . S
C354 C352 1.384 . S
C354 C355 1.372 . S
C355 C354 1.372 . S
C355 C356 1.400 . S
C355 C360 1.490 . S
C356 H346 0.930 . S
C356 C355 1.400 . S
C356 C359 1.386 . S
H357 C373 0.930 . S
H358 C374 0.931 . S
C359 H347 0.929 . S
C359 C353 1.390 . S
C359 C356 1.386 . S
C360 C355 1.490 . S
C360 C362 1.395 . S
C360 C363 1.403 . S
H361 C367 0.930 . S
C362 H348 0.930 . S
C362 C360 1.395 . S
C362 C365 1.403 . S
C363 C360 1.403 . S
C363 C364 1.524 . S
C363 C367 1.400 . S
C364 H349 0.960 . S
C364 H350 0.960 . S
C364 H351 0.960 . S
C364 C363 1.524 . S
C365 C362 1.403 . S
C365 C366 1.392 . S
C365 C369 1.495 . S
C366 C365 1.392 . S
C366 C367 1.385 . S
C366 C368 1.478 . S
C367 H361 0.930 . S
C367 C363 1.400 . S
C367 C366 1.385 . S
C368 C366 1.478 . S
C368 C370 1.381 . S
C368 C374 1.383 . S
C369 C365 1.495 . S
C369 H375 0.959 . S
C369 H376 0.961 . S
C369 H377 0.960 . S
C370 C368 1.381 . S
C370 C371 1.394 . S
C370 H378 0.930 . S
C371 C370 1.394 . S
C371 C372 1.383 . S
C371 H379 0.929 . S
C372 C371 1.383 . S
C372 C373 1.377 . S
C373 H357 0.930 . S
C373 C372 1.377 . S
C373 C374 1.379 . S
C374 H358 0.931 . S
C374 C368 1.383 . S
C374 C373 1.379 . S
H375 C369 0.959 . S
H376 C369 0.961 . S
H377 C369 0.960 . S
H378 C370 0.930 . S
H379 C371 0.929 . S
H380 C388 0.929 1_655 S
H381 C390 0.930 . S
H382 C392 0.930 . S
H383 C395 0.929 . S
H384 C398 0.930 . S
H385 C400 0.960 . S
H386 C400 0.960 . S
H387 C400 0.960 . S
C388 H380 0.929 1_455 S
C388 C389 1.377 . S
C388 C390 1.384 . S
C389 C388 1.377 . S
C389 C395 1.390 . S
C390 H381 0.930 . S
C390 C388 1.384 . S
C390 C391 1.372 . S
C391 C390 1.372 . S
C391 C392 1.400 . S
C391 C396 1.490 . S
C392 H382 0.930 . S
C392 C391 1.400 . S
C392 C395 1.386 . S
H393 C409 0.930 . S
H394 C410 0.931 . S
C395 H383 0.929 . S
C395 C389 1.390 . S
C395 C392 1.386 . S
C396 C391 1.490 . S
C396 C398 1.395 . S
C396 C399 1.403 . S
H397 C403 0.930 . S
C398 H384 0.930 . S
C398 C396 1.395 . S
C398 C401 1.403 . S
C399 C396 1.403 . S
C399 C400 1.524 . S
C399 C403 1.400 . S
C400 H385 0.960 . S
C400 H386 0.960 . S
C400 H387 0.960 . S
C400 C399 1.524 . S
C401 C398 1.403 . S
C401 C402 1.392 . S
C401 C405 1.495 . S
C402 C401 1.392 . S
C402 C403 1.385 . S
C402 C404 1.478 . S
C403 H397 0.930 . S
C403 C399 1.400 . S
C403 C402 1.385 . S
C404 C402 1.478 . S
C404 C406 1.381 . S
C404 C410 1.383 . S
C405 C401 1.495 . S
C405 H411 0.959 . S
C405 H412 0.961 . S
C405 H413 0.960 . S
C406 C404 1.381 . S
C406 C407 1.394 . S
C406 H414 0.930 . S
C407 C406 1.394 . S
C407 C408 1.383 . S
C407 H415 0.929 . S
C408 C407 1.383 . S
C408 C409 1.377 . S
C409 H393 0.930 . S
C409 C408 1.377 . S
C409 C410 1.379 . S
C410 H394 0.931 . S
C410 C404 1.383 . S
C410 C409 1.379 . S
H411 C405 0.959 . S
H412 C405 0.961 . S
H413 C405 0.960 . S
H414 C406 0.930 . S
H415 C407 0.929 . S
H416 C424 0.929 . S
H417 C426 0.930 . S
H418 C428 0.930 . S
H419 C431 0.929 . S
H420 C434 0.930 . S
H421 C436 0.960 . S
H422 C436 0.960 . S
H423 C436 0.960 . S
C424 H416 0.929 . S
C424 C425 1.377 . S
C424 C426 1.384 . S
C425 C424 1.377 . S
C425 C431 1.390 . S
C426 H417 0.930 . S
C426 C424 1.384 . S
C426 C427 1.372 . S
C427 C426 1.372 . S
C427 C428 1.400 . S
C427 C432 1.490 . S
C428 H418 0.930 . S
C428 C427 1.400 . S
C428 C431 1.386 . S
H429 C445 0.930 . S
H430 C446 0.931 . S
C431 H419 0.929 . S
C431 C425 1.390 . S
C431 C428 1.386 . S
C432 C427 1.490 . S
C432 C434 1.395 . S
C432 C435 1.403 . S
H433 C439 0.930 . S
C434 H420 0.930 . S
C434 C432 1.395 . S
C434 C437 1.403 . S
C435 C432 1.403 . S
C435 C436 1.524 . S
C435 C439 1.400 . S
C436 H421 0.960 . S
C436 H422 0.960 . S
C436 H423 0.960 . S
C436 C435 1.524 . S
C437 C434 1.403 . S
C437 C438 1.392 . S
C437 C441 1.495 . S
C438 C437 1.392 . S
C438 C439 1.385 . S
C438 C440 1.478 . S
C439 H433 0.930 . S
C439 C435 1.400 . S
C439 C438 1.385 . S
C440 C438 1.478 . S
C440 C442 1.381 . S
C440 C446 1.383 . S
C441 C437 1.495 . S
C441 H447 0.959 . S
C441 H448 0.961 . S
C441 H449 0.960 . S
C442 C440 1.381 . S
C442 C443 1.394 . S
C442 H450 0.930 . S
C443 C442 1.394 . S
C443 C444 1.383 . S
C443 H451 0.929 . S
C444 C443 1.383 . S
C444 C445 1.377 . S
C445 H429 0.930 . S
C445 C444 1.377 . S
C445 C446 1.379 . S
C446 H430 0.931 . S
C446 C440 1.383 . S
C446 C445 1.379 . S
H447 C441 0.959 . S
H448 C441 0.961 . S
H449 C441 0.960 . S
H450 C442 0.930 . S
H451 C443 0.929 . S
H452 C460 0.929 . S
H453 C462 0.917 1_545 S
H454 C464 0.930 . S
H455 C467 0.929 . S
H456 C470 0.930 . S
H457 C472 0.960 1_655 S
H458 C472 0.960 1_655 S
H459 C472 0.960 . S
C460 H452 0.929 . S
C460 C461 1.377 . S
C460 C462 1.394 . S
C461 C460 1.377 . S
C461 C467 1.390 . S
C462 H453 0.917 1_565 S
C462 C460 1.394 . S
C462 C463 1.375 . S
C463 C462 1.375 . S
C463 C464 1.400 . S
C463 C468 1.490 1_565 S
C464 H454 0.930 . S
C464 C463 1.400 . S
C464 C467 1.386 . S
H465 C481 0.930 . S
H466 C482 0.931 1_455 S
C467 H455 0.929 . S
C467 C461 1.390 . S
C467 C464 1.386 . S
C468 C463 1.490 1_545 S
C468 C470 1.395 . S
C468 C471 1.403 1_545 S
H469 C475 0.930 . S
C470 H456 0.930 . S
C470 C468 1.395 . S
C470 C473 1.403 . S
C471 C468 1.403 1_565 S
C471 C472 1.524 . S
C471 C475 1.400 1_455 S
C472 H457 0.960 1_455 S
C472 H458 0.960 1_455 S
C472 H459 0.960 . S
C472 C471 1.524 . S
C473 C470 1.403 . S
C473 C474 1.392 1_455 S
C473 C477 1.495 . S
C474 C473 1.392 1_655 S
C474 C475 1.385 1_545 S
C474 C476 1.478 . S
C475 H469 0.930 . S
C475 C471 1.400 1_655 S
C475 C474 1.385 1_565 S
C476 C474 1.478 . S
C476 C478 1.381 . S
C476 C482 1.383 . S
C477 C473 1.495 . S
C477 H483 0.959 . S
C477 H484 0.961 . S
C477 H485 0.960 1_455 S
C478 C476 1.381 . S
C478 C479 1.394 . S
C478 H486 0.930 . S
C479 C478 1.394 . S
C479 C480 1.383 . S
C479 H487 0.929 . S
C480 C479 1.383 . S
C480 C481 1.377 . S
C481 H465 0.930 . S
C481 C480 1.377 . S
C481 C482 1.379 . S
C482 H466 0.931 1_655 S
C482 C476 1.383 . S
C482 C481 1.379 . S
H483 C477 0.959 . S
H484 C477 0.961 . S
H485 C477 0.960 1_655 S
H486 C478 0.930 . S
H487 C479 0.929 . S
H488 C496 0.929 . S
H489 C498 0.930 . S
H490 C500 0.930 . S
H491 C503 0.929 . S
H492 C506 0.930 . S
H493 C508 0.960 . S
H494 C508 0.960 . S
H495 C508 0.960 . S
C496 H488 0.929 . S
C496 C497 1.377 . S
C496 C498 1.384 . S
C497 C496 1.377 . S
C497 C503 1.390 . S
C498 H489 0.930 . S
C498 C496 1.384 . S
C498 C499 1.372 . S
C499 C498 1.372 . S
C499 C500 1.400 . S
C499 C504 1.490 . S
C500 H490 0.930 . S
C500 C499 1.400 . S
C500 C503 1.386 . S
H501 C517 0.930 . S
H502 C518 0.931 . S
C503 H491 0.929 . S
C503 C497 1.390 . S
C503 C500 1.386 . S
C504 C499 1.490 . S
C504 C506 1.395 . S
C504 C507 1.403 . S
H505 C511 0.930 . S
C506 H492 0.930 . S
C506 C504 1.395 . S
C506 C509 1.403 . S
C507 C504 1.403 . S
C507 C508 1.524 . S
C507 C511 1.400 . S
C508 H493 0.960 . S
C508 H494 0.960 . S
C508 H495 0.960 . S
C508 C507 1.524 . S
C509 C506 1.403 . S
C509 C510 1.392 . S
C509 C513 1.495 . S
C510 C509 1.392 . S
C510 C511 1.385 . S
C510 C512 1.478 . S
C511 H505 0.930 . S
C511 C507 1.400 . S
C511 C510 1.385 . S
C512 C510 1.478 . S
C512 C514 1.381 . S
C512 C518 1.383 . S
C513 C509 1.495 . S
C513 H519 0.959 . S
C513 H520 0.961 . S
C513 H521 0.960 . S
C514 C512 1.381 . S
C514 C515 1.394 . S
C514 H522 0.930 . S
C515 C514 1.394 . S
C515 C516 1.383 . S
C515 H523 0.929 . S
C516 C515 1.383 . S
C516 C517 1.377 . S
C517 H501 0.930 . S
C517 C516 1.377 . S
C517 C518 1.379 . S
C518 H502 0.931 . S
C518 C512 1.383 . S
C518 C517 1.379 . S
H519 C513 0.959 . S
H520 C513 0.961 . S
H521 C513 0.960 . S
H522 C514 0.930 . S
H523 C515 0.929 . S
H524 C532 0.929 . S
H525 C534 0.930 . S
H526 C536 0.930 . S
H527 C539 0.929 . S
H528 C542 0.930 . S
H529 C544 0.960 . S
H530 C544 0.960 . S
H531 C544 0.960 . S
C532 H524 0.929 . S
C532 C533 1.377 . S
C532 C534 1.384 . S
C533 C532 1.377 . S
C533 C539 1.390 . S
C534 H525 0.930 . S
C534 C532 1.384 . S
C534 C535 1.372 . S
C535 C534 1.372 . S
C535 C536 1.400 . S
C535 C540 1.490 . S
C536 H526 0.930 . S
C536 C535 1.400 . S
C536 C539 1.386 . S
H537 C553 0.930 . S
H538 C554 0.931 . S
C539 H527 0.929 . S
C539 C533 1.390 . S
C539 C536 1.386 . S
C540 C535 1.490 . S
C540 C542 1.395 . S
C540 C543 1.403 . S
H541 C547 0.930 . S
C542 H528 0.930 . S
C542 C540 1.395 . S
C542 C545 1.403 . S
C543 C540 1.403 . S
C543 C544 1.524 . S
C543 C547 1.400 . S
C544 H529 0.960 . S
C544 H530 0.960 . S
C544 H531 0.960 . S
C544 C543 1.524 . S
C545 C542 1.403 . S
C545 C546 1.392 . S
C545 C549 1.495 . S
C546 C545 1.392 . S
C546 C547 1.385 . S
C546 C548 1.478 . S
C547 H541 0.930 . S
C547 C543 1.400 . S
C547 C546 1.385 . S
C548 C546 1.478 . S
C548 C550 1.381 . S
C548 C554 1.383 . S
C549 C545 1.495 . S
C549 H555 0.959 . S
C549 H556 0.961 . S
C549 H557 0.960 . S
C550 C548 1.381 . S
C550 C551 1.394 . S
C550 H558 0.930 . S
C551 C550 1.394 . S
C551 C552 1.383 . S
C551 H559 0.929 . S
C552 C551 1.383 . S
C552 C553 1.377 . S
C553 H537 0.930 . S
C553 C552 1.377 . S
C553 C554 1.379 . S
C554 H538 0.931 . S
C554 C548 1.383 . S
C554 C553 1.379 . S
H555 C549 0.959 . S
H556 C549 0.961 . S
H557 C549 0.960 . S
H558 C550 0.930 . S
H559 C551 0.929 . S
H560 C568 0.929 . S
H561 C570 0.930 . S
H562 C572 0.930 . S
H563 C575 0.929 . S
H564 C578 0.930 . S
H565 C580 0.960 . S
H566 C580 0.960 . S
H567 C580 0.960 . S
C568 H560 0.929 . S
C568 C569 1.377 . S
C568 C570 1.384 . S
C569 C568 1.377 . S
C569 C575 1.390 . S
C570 H561 0.930 . S
C570 C568 1.384 . S
C570 C571 1.372 . S
C571 C570 1.372 . S
C571 C572 1.400 . S
C571 C576 1.490 . S
C572 H562 0.930 . S
C572 C571 1.400 . S
C572 C575 1.386 . S
H573 C589 0.930 . S
H574 C590 0.931 . S
C575 H563 0.929 . S
C575 C569 1.390 . S
C575 C572 1.386 . S
C576 C571 1.490 . S
C576 C578 1.395 . S
C576 C579 1.403 . S
H577 C583 0.930 . S
C578 H564 0.930 . S
C578 C576 1.395 . S
C578 C581 1.403 . S
C579 C576 1.403 . S
C579 C580 1.524 . S
C579 C583 1.400 . S
C580 H565 0.960 . S
C580 H566 0.960 . S
C580 H567 0.960 . S
C580 C579 1.524 . S
C581 C578 1.403 . S
C581 C582 1.392 . S
C581 C585 1.495 . S
C582 C581 1.392 . S
C582 C583 1.385 . S
C582 C584 1.478 . S
C583 H577 0.930 . S
C583 C579 1.400 . S
C583 C582 1.385 . S
C584 C582 1.478 . S
C584 C586 1.381 . S
C584 C590 1.383 . S
C585 C581 1.495 . S
C585 H591 0.959 . S
C585 H592 0.961 . S
C585 H593 0.960 . S
C586 C584 1.381 . S
C586 C587 1.394 . S
C586 H594 0.930 . S
C587 C586 1.394 . S
C587 C588 1.383 . S
C587 H595 0.929 . S
C588 C587 1.383 . S
C588 C589 1.377 . S
C589 H573 0.930 . S
C589 C588 1.377 . S
C589 C590 1.379 . S
C590 H574 0.931 . S
C590 C584 1.383 . S
C590 C589 1.379 . S
H591 C585 0.959 . S
H592 C585 0.961 . S
H593 C585 0.960 . S
H594 C586 0.930 . S
H595 C587 0.929 . S
H596 C604 0.929 . S
H597 C606 0.930 . S
H598 C608 0.941 . S
H599 C611 0.918 1_545 S
H600 C614 0.930 . S
H601 C616 0.960 . S
H602 C616 0.960 . S
H603 C616 0.960 . S
C604 H596 0.929 . S
C604 C605 1.377 . S
C604 C606 1.384 . S
C605 C604 1.377 . S
C605 C611 1.399 . S
C606 H597 0.930 . S
C606 C604 1.384 . S
C606 C607 1.372 . S
C607 C606 1.372 . S
C607 C608 1.387 1_565 S
C607 C612 1.490 . S
C608 H598 0.941 . S
C608 C607 1.387 1_545 S
C608 C611 1.391 1_545 S
H609 C625 0.930 . S
H610 C626 0.931 . S
C611 H599 0.918 1_565 S
C611 C605 1.399 . S
C611 C608 1.391 1_565 S
C612 C607 1.490 . S
C612 C614 1.395 . S
C612 C615 1.403 . S
H613 C619 0.930 . S
C614 H600 0.930 . S
C614 C612 1.395 . S
C614 C617 1.403 . S
C615 C612 1.403 . S
C615 C616 1.524 . S
C615 C619 1.400 . S
C616 H601 0.960 . S
C616 H602 0.960 . S
C616 H603 0.960 . S
C616 C615 1.524 . S
C617 C614 1.403 . S
C617 C618 1.392 . S
C617 C621 1.495 . S
C618 C617 1.392 . S
C618 C619 1.385 . S
C618 C620 1.478 . S
C619 H613 0.930 . S
C619 C615 1.400 . S
C619 C618 1.385 . S
C620 C618 1.478 . S
C620 C622 1.381 . S
C620 C626 1.383 1_565 S
C621 C617 1.495 . S
C621 H627 0.959 . S
C621 H628 1.001 . S
C621 H629 0.960 . S
C622 C620 1.381 . S
C622 C623 1.394 . S
C622 H630 0.930 . S
C623 C622 1.394 . S
C623 C624 1.383 . S
C623 H631 0.929 . S
C624 C623 1.383 . S
C624 C625 1.377 1_565 S
C625 H609 0.930 . S
C625 C624 1.377 1_545 S
C625 C626 1.379 . S
C626 H610 0.931 . S
C626 C620 1.383 1_545 S
C626 C625 1.379 . S
H627 C621 0.959 . S
H628 C621 1.001 . S
H629 C621 0.960 . S
H630 C622 0.930 . S
H631 C623 0.929 . S
H632 C640 0.929 . S
H633 C642 0.930 . S
H634 C644 0.930 . S
H635 C647 0.929 . S
H636 C650 0.930 . S
H637 C652 0.960 . S
H638 C652 0.960 . S
H639 C652 0.960 . S
C640 H632 0.929 . S
C640 C641 1.377 . S
C640 C642 1.384 . S
C641 C640 1.377 . S
C641 C647 1.390 . S
C642 H633 0.930 . S
C642 C640 1.384 . S
C642 C643 1.372 . S
C643 C642 1.372 . S
C643 C644 1.400 . S
C643 C648 1.490 . S
C644 H634 0.930 . S
C644 C643 1.400 . S
C644 C647 1.386 . S
H645 C661 0.930 . S
H646 C662 0.931 . S
C647 H635 0.929 . S
C647 C641 1.390 . S
C647 C644 1.386 . S
C648 C643 1.490 . S
C648 C650 1.395 . S
C648 C651 1.403 . S
H649 C655 0.930 . S
C650 H636 0.930 . S
C650 C648 1.395 . S
C650 C653 1.403 . S
C651 C648 1.403 . S
C651 C652 1.524 . S
C651 C655 1.400 . S
C652 H637 0.960 . S
C652 H638 0.960 . S
C652 H639 0.960 . S
C652 C651 1.524 . S
C653 C650 1.403 . S
C653 C654 1.392 . S
C653 C657 1.495 . S
C654 C653 1.392 . S
C654 C655 1.385 . S
C654 C656 1.478 . S
C655 H649 0.930 . S
C655 C651 1.400 . S
C655 C654 1.385 . S
C656 C654 1.478 . S
C656 C658 1.381 . S
C656 C662 1.383 . S
C657 C653 1.495 . S
C657 H663 0.959 . S
C657 H664 0.961 . S
C657 H665 0.960 . S
C658 C656 1.381 . S
C658 C659 1.394 . S
C658 H666 0.930 . S
C659 C658 1.394 . S
C659 C660 1.383 . S
C659 H667 0.929 . S
C660 C659 1.383 . S
C660 C661 1.377 . S
C661 H645 0.930 . S
C661 C660 1.377 . S
C661 C662 1.379 . S
C662 H646 0.931 . S
C662 C656 1.383 . S
C662 C661 1.379 . S
H663 C657 0.959 . S
H664 C657 0.961 . S
H665 C657 0.960 . S
H666 C658 0.930 . S
H667 C659 0.929 . S
H668 C676 0.929 . S
H669 C678 0.930 . S
H670 C680 0.930 . S
H671 C683 0.929 . S
H672 C686 0.930 . S
H673 C688 0.960 . S
H674 C688 0.960 . S
H675 C688 0.960 . S
C676 H668 0.929 . S
C676 C677 1.377 . S
C676 C678 1.384 . S
C677 C676 1.377 . S
C677 C683 1.390 . S
C678 H669 0.930 . S
C678 C676 1.384 . S
C678 C679 1.372 . S
C679 C678 1.372 . S
C679 C680 1.400 . S
C679 C684 1.490 . S
C680 H670 0.930 . S
C680 C679 1.400 . S
C680 C683 1.386 . S
H681 C697 0.930 . S
H682 C698 0.931 . S
C683 H671 0.929 . S
C683 C677 1.390 . S
C683 C680 1.386 . S
C684 C679 1.490 . S
C684 C686 1.395 . S
C684 C687 1.403 . S
H685 C691 0.930 . S
C686 H672 0.930 . S
C686 C684 1.395 . S
C686 C689 1.403 . S
C687 C684 1.403 . S
C687 C688 1.524 . S
C687 C691 1.400 . S
C688 H673 0.960 . S
C688 H674 0.960 . S
C688 H675 0.960 . S
C688 C687 1.524 . S
C689 C686 1.403 . S
C689 C690 1.392 . S
C689 C693 1.495 . S
C690 C689 1.392 . S
C690 C691 1.385 . S
C690 C692 1.478 . S
C691 H685 0.930 . S
C691 C687 1.400 . S
C691 C690 1.385 . S
C692 C690 1.478 . S
C692 C694 1.381 . S
C692 C698 1.383 . S
C693 C689 1.495 . S
C693 H699 0.959 . S
C693 H700 0.961 . S
C693 H701 0.960 . S
C694 C692 1.381 . S
C694 C695 1.394 . S
C694 H702 0.930 . S
C695 C694 1.394 . S
C695 C696 1.383 . S
C695 H703 0.929 . S
C696 C695 1.383 . S
C696 C697 1.377 . S
C697 H681 0.930 . S
C697 C696 1.377 . S
C697 C698 1.379 . S
C698 H682 0.931 . S
C698 C692 1.383 . S
C698 C697 1.379 . S
H699 C693 0.959 . S
H700 C693 0.961 . S
H701 C693 0.960 . S
H702 C694 0.930 . S
H703 C695 0.929 . S
H704 C712 0.929 . S
H705 C714 0.930 . S
H706 C716 0.930 . S
H707 C719 0.929 . S
H708 C722 0.930 . S
H709 C724 0.960 . S
H710 C724 0.960 . S
H711 C724 0.960 . S
C712 H704 0.929 . S
C712 C713 1.377 . S
C712 C714 1.384 . S
C713 C712 1.377 . S
C713 C719 1.390 . S
C714 H705 0.930 . S
C714 C712 1.384 . S
C714 C715 1.372 . S
C715 C714 1.372 . S
C715 C716 1.400 . S
C715 C720 1.490 . S
C716 H706 0.930 . S
C716 C715 1.400 . S
C716 C719 1.386 . S
H717 C733 0.930 . S
H718 C734 0.931 . S
C719 H707 0.929 . S
C719 C713 1.390 . S
C719 C716 1.386 . S
C720 C715 1.490 . S
C720 C722 1.395 . S
C720 C723 1.403 . S
H721 C727 0.930 . S
C722 H708 0.930 . S
C722 C720 1.395 . S
C722 C725 1.403 . S
C723 C720 1.403 . S
C723 C724 1.524 . S
C723 C727 1.400 . S
C724 H709 0.960 . S
C724 H710 0.960 . S
C724 H711 0.960 . S
C724 C723 1.524 . S
C725 C722 1.403 . S
C725 C726 1.392 . S
C725 C729 1.495 . S
C726 C725 1.392 . S
C726 C727 1.385 . S
C726 C728 1.478 . S
C727 H721 0.930 . S
C727 C723 1.400 . S
C727 C726 1.385 . S
C728 C726 1.478 . S
C728 C730 1.381 . S
C728 C734 1.383 . S
C729 C725 1.495 . S
C729 H735 0.959 . S
C729 H736 0.961 . S
C729 H737 0.960 . S
C730 C728 1.381 . S
C730 C731 1.394 . S
C730 H738 0.930 . S
C731 C730 1.394 . S
C731 C732 1.383 . S
C731 H739 0.929 . S
C732 C731 1.383 . S
C732 C733 1.377 . S
C733 H717 0.930 . S
C733 C732 1.377 . S
C733 C734 1.379 . S
C734 H718 0.931 . S
C734 C728 1.383 . S
C734 C733 1.379 . S
H735 C729 0.959 . S
H736 C729 0.961 . S
H737 C729 0.960 . S
H738 C730 0.930 . S
H739 C731 0.929 . S
H740 C748 0.929 . S
H741 C750 0.930 . S
H742 C752 0.930 . S
H743 C755 0.929 . S
H744 C758 0.930 . S
H745 C760 0.960 . S
H746 C760 0.960 . S
H747 C760 0.960 . S
C748 H740 0.929 . S
C748 C749 1.377 . S
C748 C750 1.384 . S
C749 C748 1.377 . S
C749 C755 1.390 . S
C750 H741 0.930 . S
C750 C748 1.384 . S
C750 C751 1.372 . S
C751 C750 1.372 . S
C751 C752 1.400 . S
C751 C756 1.490 . S
C752 H742 0.930 . S
C752 C751 1.400 . S
C752 C755 1.386 . S
H753 C769 0.930 . S
H754 C770 0.931 . S
C755 H743 0.929 . S
C755 C749 1.390 . S
C755 C752 1.386 . S
C756 C751 1.490 . S
C756 C758 1.395 . S
C756 C759 1.403 . S
H757 C763 0.930 . S
C758 H744 0.930 . S
C758 C756 1.395 . S
C758 C761 1.403 . S
C759 C756 1.403 . S
C759 C760 1.524 . S
C759 C763 1.400 . S
C760 H745 0.960 . S
C760 H746 0.960 . S
C760 H747 0.960 . S
C760 C759 1.524 . S
C761 C758 1.403 . S
C761 C762 1.392 . S
C761 C765 1.495 . S
C762 C761 1.392 . S
C762 C763 1.385 . S
C762 C764 1.478 . S
C763 H757 0.930 . S
C763 C759 1.400 . S
C763 C762 1.385 . S
C764 C762 1.478 . S
C764 C766 1.381 . S
C764 C770 1.383 . S
C765 C761 1.495 . S
C765 H771 0.959 . S
C765 H772 0.961 . S
C765 H773 0.960 . S
C766 C764 1.381 . S
C766 C767 1.394 . S
C766 H774 0.930 . S
C767 C766 1.394 . S
C767 C768 1.383 . S
C767 H775 0.929 . S
C768 C767 1.383 . S
C768 C769 1.377 . S
C769 H753 0.930 . S
C769 C768 1.377 . S
C769 C770 1.379 . S
C770 H754 0.931 . S
C770 C764 1.383 . S
C770 C769 1.379 . S
H771 C765 0.959 . S
H772 C765 0.961 . S
H773 C765 0.960 . S
H774 C766 0.930 . S
H775 C767 0.929 . S
H776 C784 0.929 . S
H777 C786 0.930 . S
H778 C788 0.930 . S
H779 C791 0.929 . S
H780 C794 0.930 . S
H781 C796 0.960 . S
H782 C796 0.960 . S
H783 C796 0.960 . S
C784 H776 0.929 . S
C784 C785 1.377 . S
C784 C786 1.384 . S
C785 C784 1.377 . S
C785 C791 1.390 . S
C786 H777 0.930 . S
C786 C784 1.384 . S
C786 C787 1.372 . S
C787 C786 1.372 . S
C787 C788 1.400 . S
C787 C792 1.490 . S
C788 H778 0.930 . S
C788 C787 1.400 . S
C788 C791 1.386 . S
H789 C805 0.930 . S
H790 C806 0.931 . S
C791 H779 0.929 . S
C791 C785 1.390 . S
C791 C788 1.386 . S
C792 C787 1.490 . S
C792 C794 1.395 . S
C792 C795 1.403 . S
H793 C799 0.930 . S
C794 H780 0.930 . S
C794 C792 1.395 . S
C794 C797 1.403 . S
C795 C792 1.403 . S
C795 C796 1.524 . S
C795 C799 1.400 . S
C796 H781 0.960 . S
C796 H782 0.960 . S
C796 H783 0.960 . S
C796 C795 1.524 . S
C797 C794 1.403 . S
C797 C798 1.392 . S
C797 C801 1.495 . S
C798 C797 1.392 . S
C798 C799 1.385 . S
C798 C800 1.478 . S
C799 H793 0.930 . S
C799 C795 1.400 . S
C799 C798 1.385 . S
C800 C798 1.478 . S
C800 C802 1.381 . S
C800 C806 1.383 . S
C801 C797 1.495 . S
C801 H807 0.959 . S
C801 H808 0.961 . S
C801 H809 0.960 . S
C802 C800 1.381 . S
C802 C803 1.394 . S
C802 H810 0.930 . S
C803 C802 1.394 . S
C803 C804 1.383 . S
C803 H811 0.929 . S
C804 C803 1.383 . S
C804 C805 1.377 . S
C805 H789 0.930 . S
C805 C804 1.377 . S
C805 C806 1.379 . S
C806 H790 0.931 . S
C806 C800 1.383 . S
C806 C805 1.379 . S
H807 C801 0.959 . S
H808 C801 0.961 . S
H809 C801 0.960 . S
H810 C802 0.930 . S
H811 C803 0.929 . S
H812 C820 0.929 . S
H813 C822 0.930 . S
H814 C824 0.930 . S
H815 C827 0.929 . S
H816 C830 0.930 . S
H817 C832 0.960 . S
H818 C832 0.960 . S
H819 C832 0.960 . S
C820 H812 0.929 . S
C820 C821 1.377 . S
C820 C822 1.384 . S
C821 C820 1.377 . S
C821 C827 1.390 . S
C822 H813 0.930 . S
C822 C820 1.384 . S
C822 C823 1.372 . S
C823 C822 1.372 . S
C823 C824 1.400 . S
C823 C828 1.490 . S
C824 H814 0.930 . S
C824 C823 1.400 . S
C824 C827 1.386 . S
H825 C841 0.930 . S
H826 C842 0.931 . S
C827 H815 0.929 . S
C827 C821 1.390 . S
C827 C824 1.386 . S
C828 C823 1.490 . S
C828 C830 1.395 . S
C828 C831 1.403 . S
H829 C835 0.930 . S
C830 H816 0.930 . S
C830 C828 1.395 . S
C830 C833 1.403 . S
C831 C828 1.403 . S
C831 C832 1.524 . S
C831 C835 1.400 . S
C832 H817 0.960 . S
C832 H818 0.960 . S
C832 H819 0.960 . S
C832 C831 1.524 . S
C833 C830 1.403 . S
C833 C834 1.392 . S
C833 C837 1.495 . S
C834 C833 1.392 . S
C834 C835 1.385 . S
C834 C836 1.478 . S
C835 H829 0.930 . S
C835 C831 1.400 . S
C835 C834 1.385 . S
C836 C834 1.478 . S
C836 C838 1.381 . S
C836 C842 1.383 . S
C837 C833 1.495 . S
C837 H843 0.959 . S
C837 H844 0.961 . S
C837 H845 0.960 . S
C838 C836 1.381 . S
C838 C839 1.394 . S
C838 H846 0.938 . S
C839 C838 1.394 . S
C839 C840 1.383 . S
C839 H847 0.929 1_455 S
C840 C839 1.383 . S
C840 C841 1.377 . S
C841 H825 0.930 . S
C841 C840 1.377 . S
C841 C842 1.379 . S
C842 H826 0.931 . S
C842 C836 1.383 . S
C842 C841 1.379 . S
H843 C837 0.959 . S
H844 C837 0.961 . S
H845 C837 0.960 . S
H846 C838 0.938 . S
H847 C839 0.929 1_655 S
H848 C856 0.929 . S
H849 C858 0.930 . S
H850 C860 0.930 . S
H851 C863 0.929 . S
H852 C866 0.930 . S
H853 C868 0.960 . S
H854 C868 0.960 . S
H855 C868 0.960 . S
C856 H848 0.929 . S
C856 C857 1.377 . S
C856 C858 1.384 . S
C857 C856 1.377 . S
C857 C863 1.390 . S
C858 H849 0.930 . S
C858 C856 1.384 . S
C858 C859 1.372 . S
C859 C858 1.372 . S
C859 C860 1.400 . S
C859 C864 1.490 . S
C860 H850 0.930 . S
C860 C859 1.400 . S
C860 C863 1.386 . S
H861 C877 0.930 . S
H862 C878 0.931 . S
C863 H851 0.929 . S
C863 C857 1.390 . S
C863 C860 1.386 . S
C864 C859 1.490 . S
C864 C866 1.395 . S
C864 C867 1.403 . S
H865 C871 0.930 . S
C866 H852 0.930 . S
C866 C864 1.395 . S
C866 C869 1.403 . S
C867 C864 1.403 . S
C867 C868 1.524 . S
C867 C871 1.400 . S
C868 H853 0.960 . S
C868 H854 0.960 . S
C868 H855 0.960 . S
C868 C867 1.524 . S
C869 C866 1.403 . S
C869 C870 1.392 . S
C869 C873 1.495 . S
C870 C869 1.392 . S
C870 C871 1.385 . S
C870 C872 1.478 . S
C871 H865 0.930 . S
C871 C867 1.400 . S
C871 C870 1.385 . S
C872 C870 1.478 . S
C872 C874 1.381 . S
C872 C878 1.383 . S
C873 C869 1.495 . S
C873 H879 0.959 . S
C873 H880 0.961 . S
C873 H881 0.960 . S
C874 C872 1.381 . S
C874 C875 1.394 . S
C874 H882 0.930 . S
C875 C874 1.394 . S
C875 C876 1.383 . S
C875 H883 0.929 . S
C876 C875 1.383 . S
C876 C877 1.377 . S
C877 H861 0.930 . S
C877 C876 1.377 . S
C877 C878 1.379 . S
C878 H862 0.931 . S
C878 C872 1.383 . S
C878 C877 1.379 . S
H879 C873 0.959 . S
H880 C873 0.961 . S
H881 C873 0.960 . S
H882 C874 0.930 . S
H883 C875 0.929 . S
H884 C892 0.929 . S
H885 C894 0.930 . S
H886 C896 0.930 . S
H887 C899 0.929 . S
H888 C902 0.930 . S
H889 C904 0.960 . S
H890 C904 0.960 . S
H891 C904 0.960 . S
C892 H884 0.929 . S
C892 C893 1.377 . S
C892 C894 1.384 . S
C893 C892 1.377 . S
C893 C899 1.390 . S
C894 H885 0.930 . S
C894 C892 1.384 . S
C894 C895 1.372 . S
C895 C894 1.372 . S
C895 C896 1.400 . S
C895 C900 1.490 . S
C896 H886 0.930 . S
C896 C895 1.400 . S
C896 C899 1.386 . S
H897 C913 0.930 . S
H898 C914 0.931 . S
C899 H887 0.929 . S
C899 C893 1.390 . S
C899 C896 1.386 . S
C900 C895 1.490 . S
C900 C902 1.395 . S
C900 C903 1.403 1_655 S
H901 C907 0.963 . S
C902 H888 0.930 . S
C902 C900 1.395 . S
C902 C905 1.403 . S
C903 C900 1.403 1_455 S
C903 C904 1.524 . S
C903 C907 1.410 . S
C904 H889 0.960 . S
C904 H890 0.960 . S
C904 H891 0.960 . S
C904 C903 1.524 . S
C905 C902 1.403 . S
C905 C906 1.392 . S
C905 C909 1.495 . S
C906 C905 1.392 . S
C906 C907 1.347 1_655 S
C906 C908 1.478 . S
C907 H901 0.963 . S
C907 C903 1.410 . S
C907 C906 1.347 1_455 S
C908 C906 1.478 . S
C908 C910 1.381 . S
C908 C914 1.383 . S
C909 C905 1.495 . S
C909 H915 0.959 . S
C909 H916 0.961 . S
C909 H917 0.960 . S
C910 C908 1.381 . S
C910 C911 1.395 1_655 S
C910 H918 0.930 1_655 S
C911 C910 1.395 1_455 S
C911 C912 1.376 1_455 S
C911 H919 0.936 . S
C912 C911 1.376 1_655 S
C912 C913 1.377 . S
C913 H897 0.930 . S
C913 C912 1.377 . S
C913 C914 1.379 . S
C914 H898 0.931 . S
C914 C908 1.383 . S
C914 C913 1.379 . S
H915 C909 0.959 . S
H916 C909 0.961 . S
H917 C909 0.960 . S
H918 C910 0.930 1_455 S
H919 C911 0.936 . S
H920 C928 0.929 . S
H921 C930 0.930 . S
H922 C932 0.930 . S
H923 C935 0.929 . S
H924 C938 0.930 . S
H925 C940 0.960 . S
H926 C940 0.960 . S
H927 C940 0.960 . S
C928 H920 0.929 . S
C928 C929 1.377 . S
C928 C930 1.384 . S
C929 C928 1.377 . S
C929 C935 1.390 . S
C930 H921 0.930 . S
C930 C928 1.384 . S
C930 C931 1.372 . S
C931 C930 1.372 . S
C931 C932 1.400 . S
C931 C936 1.490 . S
C932 H922 0.930 . S
C932 C931 1.400 . S
C932 C935 1.386 . S
H933 C949 0.930 . S
H934 C950 0.931 . S
C935 H923 0.929 . S
C935 C929 1.390 . S
C935 C932 1.386 . S
C936 C931 1.490 . S
C936 C938 1.395 . S
C936 C939 1.403 . S
H937 C943 0.930 . S
C938 H924 0.930 . S
C938 C936 1.395 . S
C938 C941 1.403 . S
C939 C936 1.403 . S
C939 C940 1.524 . S
C939 C943 1.400 . S
C940 H925 0.960 . S
C940 H926 0.960 . S
C940 H927 0.960 . S
C940 C939 1.524 . S
C941 C938 1.403 . S
C941 C942 1.392 . S
C941 C945 1.495 . S
C942 C941 1.392 . S
C942 C943 1.385 . S
C942 C944 1.478 . S
C943 H937 0.930 . S
C943 C939 1.400 . S
C943 C942 1.385 . S
C944 C942 1.478 . S
C944 C946 1.381 . S
C944 C950 1.383 . S
C945 C941 1.495 . S
C945 H951 0.959 . S
C945 H952 0.961 . S
C945 H953 0.960 . S
C946 C944 1.381 . S
C946 C947 1.394 . S
C946 H954 0.930 . S
C947 C946 1.394 . S
C947 C948 1.383 . S
C947 H955 0.929 . S
C948 C947 1.383 . S
C948 C949 1.377 . S
C949 H933 0.930 . S
C949 C948 1.377 . S
C949 C950 1.379 . S
C950 H934 0.931 . S
C950 C944 1.383 . S
C950 C949 1.379 . S
H951 C945 0.959 . S
H952 C945 0.961 . S
H953 C945 0.960 . S
H954 C946 0.930 . S
H955 C947 0.929 . S
H956 C964 0.929 . S
H957 C966 0.930 . S
H958 C968 0.930 . S
H959 C971 0.929 . S
H960 C974 0.930 . S
H961 C976 0.960 . S
H962 C976 0.960 . S
H963 C976 0.960 . S
C964 H956 0.929 . S
C964 C965 1.377 . S
C964 C966 1.384 . S
C965 C964 1.377 . S
C965 C971 1.390 . S
C966 H957 0.930 . S
C966 C964 1.384 . S
C966 C967 1.372 . S
C967 C966 1.372 . S
C967 C968 1.400 . S
C967 C972 1.490 . S
C968 H958 0.930 . S
C968 C967 1.400 . S
C968 C971 1.386 . S
H969 C985 0.930 . S
H970 C986 0.931 . S
C971 H959 0.929 . S
C971 C965 1.390 . S
C971 C968 1.386 . S
C972 C967 1.490 . S
C972 C974 1.395 . S
C972 C975 1.403 . S
H973 C979 0.930 . S
C974 H960 0.930 . S
C974 C972 1.395 . S
C974 C977 1.403 . S
C975 C972 1.403 . S
C975 C976 1.524 . S
C975 C979 1.400 . S
C976 H961 0.960 . S
C976 H962 0.960 . S
C976 H963 0.960 . S
C976 C975 1.524 . S
C977 C974 1.403 . S
C977 C978 1.392 . S
C977 C981 1.495 . S
C978 C977 1.392 . S
C978 C979 1.385 . S
C978 C980 1.478 . S
C979 H973 0.930 . S
C979 C975 1.400 . S
C979 C978 1.385 . S
C980 C978 1.478 . S
C980 C982 1.381 . S
C980 C986 1.383 . S
C981 C977 1.495 . S
C981 H987 0.959 . S
C981 H988 0.961 . S
C981 H989 0.960 . S
C982 C980 1.381 . S
C982 C983 1.394 . S
C982 H990 0.930 . S
C983 C982 1.394 . S
C983 C984 1.383 . S
C983 H991 0.929 . S
C984 C983 1.383 . S
C984 C985 1.377 . S
C985 H969 0.930 . S
C985 C984 1.377 . S
C985 C986 1.379 . S
C986 H970 0.931 . S
C986 C980 1.383 . S
C986 C985 1.379 . S
H987 C981 0.959 . S
H988 C981 0.961 . S
H989 C981 0.960 . S
H990 C982 0.930 . S
H991 C983 0.929 . S
H992 C1000 0.929 1_554 S
H993 C1002 0.930 . S
H994 C1004 0.930 . S
H995 C1007 0.929 . S
H996 C1010 0.930 . S
H997 C1012 0.960 . S
H998 C1012 0.960 . S
H999 C1012 0.958 . S
C1000 H992 0.929 1_556 S
C1000 C1001 1.377 . S
C1000 C1002 1.384 1_556 S
C1001 C1000 1.377 . S
C1001 C1007 1.390 1_545 S
C1002 H993 0.930 . S
C1002 C1000 1.384 1_554 S
C1002 C1003 1.372 1_544 S
C1003 C1002 1.372 1_566 S
C1003 C1004 1.400 . S
C1003 C1008 1.490 . S
C1004 H994 0.930 . S
C1004 C1003 1.400 . S
C1004 C1007 1.386 . S
H1005 C1021 0.930 . S
H1006 C1022 0.931 1_556 S
C1007 H995 0.929 . S
C1007 C1001 1.390 1_565 S
C1007 C1004 1.386 . S
C1008 C1003 1.490 . S
C1008 C1010 1.395 . S
C1008 C1011 1.403 1_556 S
H1009 C1015 0.930 . S
C1010 H996 0.930 . S
C1010 C1008 1.395 . S
C1010 C1013 1.408 . S
C1011 C1008 1.403 1_554 S
C1011 C1012 1.524 . S
C1011 C1015 1.400 . S
C1012 H997 0.960 . S
C1012 H998 0.960 . S
C1012 H999 0.958 . S
C1012 C1011 1.524 . S
C1013 C1010 1.408 . S
C1013 C1014 1.386 1_556 S
C1013 C1017 1.498 . S
C1014 C1013 1.386 1_554 S
C1014 C1015 1.385 . S
C1014 C1016 1.478 . S
C1015 H1009 0.930 . S
C1015 C1011 1.400 . S
C1015 C1014 1.385 . S
C1016 C1014 1.478 . S
C1016 C1018 1.381 . S
C1016 C1022 1.383 . S
C1017 C1013 1.498 . S
C1017 H1023 0.959 . S
C1017 H1024 0.961 . S
C1017 H1025 0.960 1_556 S
C1018 C1016 1.381 . S
C1018 C1019 1.394 . S
C1018 H1026 0.930 . S
C1019 C1018 1.394 . S
C1019 C1020 1.383 . S
C1019 H1027 0.929 . S
C1020 C1019 1.383 . S
C1020 C1021 1.377 . S
C1021 H1005 0.930 . S
C1021 C1020 1.377 . S
C1021 C1022 1.379 . S
C1022 H1006 0.931 1_554 S
C1022 C1016 1.383 . S
C1022 C1021 1.379 . S
H1023 C1017 0.959 . S
H1024 C1017 0.961 . S
H1025 C1017 0.960 1_554 S
H1026 C1018 0.930 . S
H1027 C1019 0.929 . S
H1028 C1036 0.929 . S
H1029 C1038 0.930 . S
H1030 C1040 0.930 . S
H1031 C1043 0.929 . S
H1032 C1046 0.930 . S
H1033 C1048 0.960 . S
H1034 C1048 0.960 . S
H1035 C1048 0.960 . S
C1036 H1028 0.929 . S
C1036 C1037 1.377 . S
C1036 C1038 1.384 . S
C1037 C1036 1.377 . S
C1037 C1043 1.390 . S
C1038 H1029 0.930 . S
C1038 C1036 1.384 . S
C1038 C1039 1.372 . S
C1039 C1038 1.372 . S
C1039 C1040 1.400 . S
C1039 C1044 1.490 . S
C1040 H1030 0.930 . S
C1040 C1039 1.400 . S
C1040 C1043 1.386 . S
H1041 C1057 0.930 . S
H1042 C1058 0.931 . S
C1043 H1031 0.929 . S
C1043 C1037 1.390 . S
C1043 C1040 1.386 . S
C1044 C1039 1.490 . S
C1044 C1046 1.395 . S
C1044 C1047 1.403 . S
H1045 C1051 0.930 . S
C1046 H1032 0.930 . S
C1046 C1044 1.395 . S
C1046 C1049 1.403 . S
C1047 C1044 1.403 . S
C1047 C1048 1.524 . S
C1047 C1051 1.400 . S
C1048 H1033 0.960 . S
C1048 H1034 0.960 . S
C1048 H1035 0.960 . S
C1048 C1047 1.524 . S
C1049 C1046 1.403 . S
C1049 C1050 1.392 . S
C1049 C1053 1.495 . S
C1050 C1049 1.392 . S
C1050 C1051 1.385 . S
C1050 C1052 1.478 . S
C1051 H1045 0.930 . S
C1051 C1047 1.400 . S
C1051 C1050 1.385 . S
C1052 C1050 1.478 . S
C1052 C1054 1.381 . S
C1052 C1058 1.383 . S
C1053 C1049 1.495 . S
C1053 H1059 0.959 . S
C1053 H1060 0.961 . S
C1053 H1061 0.960 . S
C1054 C1052 1.381 . S
C1054 C1055 1.394 . S
C1054 H1062 0.930 . S
C1055 C1054 1.394 . S
C1055 C1056 1.383 . S
C1055 H1063 0.929 . S
C1056 C1055 1.383 . S
C1056 C1057 1.377 . S
C1057 H1041 0.930 . S
C1057 C1056 1.377 . S
C1057 C1058 1.379 . S
C1058 H1042 0.931 . S
C1058 C1052 1.383 . S
C1058 C1057 1.379 . S
H1059 C1053 0.959 . S
H1060 C1053 0.961 . S
H1061 C1053 0.960 . S
H1062 C1054 0.930 . S
H1063 C1055 0.929 . S
H1064 C1072 0.929 1_565 S
H1065 C1074 0.930 . S
H1066 C1076 0.930 . S
H1067 C1079 0.929 . S
H1068 C1082 0.930 . S
H1069 C1084 0.960 . S
H1070 C1084 0.960 . S
H1071 C1084 0.960 . S
C1072 H1064 0.929 1_545 S
C1072 C1073 1.377 . S
C1072 C1074 1.384 . S
C1073 C1072 1.377 . S
C1073 C1079 1.390 . S
C1074 H1065 0.930 . S
C1074 C1072 1.384 . S
C1074 C1075 1.372 . S
C1075 C1074 1.372 . S
C1075 C1076 1.400 . S
C1075 C1080 1.490 . S
C1076 H1066 0.930 . S
C1076 C1075 1.400 . S
C1076 C1079 1.386 . S
H1077 C1093 0.930 . S
H1078 C1094 0.931 . S
C1079 H1067 0.929 . S
C1079 C1073 1.390 . S
C1079 C1076 1.386 . S
C1080 C1075 1.490 . S
C1080 C1082 1.395 . S
C1080 C1083 1.403 . S
H1081 C1087 0.930 . S
C1082 H1068 0.930 . S
C1082 C1080 1.395 . S
C1082 C1085 1.403 . S
C1083 C1080 1.403 . S
C1083 C1084 1.524 . S
C1083 C1087 1.400 . S
C1084 H1069 0.960 . S
C1084 H1070 0.960 . S
C1084 H1071 0.960 . S
C1084 C1083 1.524 . S
C1085 C1082 1.403 . S
C1085 C1086 1.392 . S
C1085 C1089 1.495 . S
C1086 C1085 1.392 . S
C1086 C1087 1.385 . S
C1086 C1088 1.478 . S
C1087 H1081 0.930 . S
C1087 C1083 1.400 . S
C1087 C1086 1.385 . S
C1088 C1086 1.478 . S
C1088 C1090 1.381 . S
C1088 C1094 1.383 . S
C1089 C1085 1.495 . S
C1089 H1095 0.959 . S
C1089 H1096 0.961 . S
C1089 H1097 0.960 . S
C1090 C1088 1.381 . S
C1090 C1091 1.394 . S
C1090 H1098 0.930 . S
C1091 C1090 1.394 . S
C1091 C1092 1.383 . S
C1091 H1099 0.929 . S
C1092 C1091 1.383 . S
C1092 C1093 1.377 . S
C1093 H1077 0.930 . S
C1093 C1092 1.377 . S
C1093 C1094 1.379 . S
C1094 H1078 0.931 . S
C1094 C1088 1.383 . S
C1094 C1093 1.379 . S
H1095 C1089 0.959 . S
H1096 C1089 0.961 . S
H1097 C1089 0.960 . S
H1098 C1090 0.930 . S
H1099 C1091 0.929 . S
H1100 C1108 0.929 . S
H1101 C1110 0.930 . S
H1102 C1112 0.930 . S
H1103 C1115 0.929 . S
H1104 C1118 0.930 . S
H1105 C1120 0.960 . S
H1106 C1120 0.960 . S
H1107 C1120 0.960 . S
C1108 H1100 0.929 . S
C1108 C1109 1.377 . S
C1108 C1110 1.384 . S
C1109 C1108 1.377 . S
C1109 C1115 1.390 . S
C1110 H1101 0.930 . S
C1110 C1108 1.384 . S
C1110 C1111 1.372 . S
C1111 C1110 1.372 . S
C1111 C1112 1.400 . S
C1111 C1116 1.490 . S
C1112 H1102 0.930 . S
C1112 C1111 1.400 . S
C1112 C1115 1.386 . S
H1113 C1129 0.930 . S
H1114 C1130 0.931 . S
C1115 H1103 0.929 . S
C1115 C1109 1.390 . S
C1115 C1112 1.386 . S
C1116 C1111 1.490 . S
C1116 C1118 1.395 . S
C1116 C1119 1.403 . S
H1117 C1123 0.930 . S
C1118 H1104 0.930 . S
C1118 C1116 1.395 . S
C1118 C1121 1.403 . S
C1119 C1116 1.403 . S
C1119 C1120 1.524 . S
C1119 C1123 1.400 . S
C1120 H1105 0.960 . S
C1120 H1106 0.960 . S
C1120 H1107 0.960 . S
C1120 C1119 1.524 . S
C1121 C1118 1.403 . S
C1121 C1122 1.392 . S
C1121 C1125 1.495 . S
C1122 C1121 1.392 . S
C1122 C1123 1.385 . S
C1122 C1124 1.478 . S
C1123 H1117 0.930 . S
C1123 C1119 1.400 . S
C1123 C1122 1.385 . S
C1124 C1122 1.478 . S
C1124 C1126 1.381 . S
C1124 C1130 1.383 . S
C1125 C1121 1.495 . S
C1125 H1131 0.959 . S
C1125 H1132 0.961 . S
C1125 H1133 0.960 . S
C1126 C1124 1.381 . S
C1126 C1127 1.394 . S
C1126 H1134 0.930 . S
C1127 C1126 1.394 . S
C1127 C1128 1.383 . S
C1127 H1135 0.929 . S
C1128 C1127 1.383 . S
C1128 C1129 1.377 . S
C1129 H1113 0.930 . S
C1129 C1128 1.377 . S
C1129 C1130 1.379 . S
C1130 H1114 0.931 . S
C1130 C1124 1.383 . S
C1130 C1129 1.379 . S
H1131 C1125 0.959 . S
H1132 C1125 0.961 . S
H1133 C1125 0.960 . S
H1134 C1126 0.930 . S
H1135 C1127 0.929 . S
H1136 C1144 0.929 . S
H1137 C1146 0.930 . S
H1138 C1148 0.930 . S
H1139 C1151 0.929 . S
H1140 C1154 0.930 . S
H1141 C1156 0.960 . S
H1142 C1156 0.960 . S
H1143 C1156 0.960 . S
C1144 H1136 0.929 . S
C1144 C1145 1.377 . S
C1144 C1146 1.384 . S
C1145 C1144 1.377 . S
C1145 C1151 1.390 . S
C1146 H1137 0.930 . S
C1146 C1144 1.384 . S
C1146 C1147 1.372 . S
C1147 C1146 1.372 . S
C1147 C1148 1.400 . S
C1147 C1152 1.490 . S
C1148 H1138 0.930 . S
C1148 C1147 1.400 . S
C1148 C1151 1.386 . S
H1149 C1165 0.930 . S
H1150 C1166 0.931 . S
C1151 H1139 0.929 . S
C1151 C1145 1.390 . S
C1151 C1148 1.386 . S
C1152 C1147 1.490 . S
C1152 C1154 1.395 . S
C1152 C1155 1.403 . S
H1153 C1159 0.930 . S
C1154 H1140 0.930 . S
C1154 C1152 1.395 . S
C1154 C1157 1.403 . S
C1155 C1152 1.403 . S
C1155 C1156 1.524 . S
C1155 C1159 1.400 . S
C1156 H1141 0.960 . S
C1156 H1142 0.960 . S
C1156 H1143 0.960 . S
C1156 C1155 1.524 . S
C1157 C1154 1.403 . S
C1157 C1158 1.392 . S
C1157 C1161 1.495 . S
C1158 C1157 1.392 . S
C1158 C1159 1.385 . S
C1158 C1160 1.478 . S
C1159 H1153 0.930 . S
C1159 C1155 1.400 . S
C1159 C1158 1.385 . S
C1160 C1158 1.478 . S
C1160 C1162 1.381 . S
C1160 C1166 1.383 . S
C1161 C1157 1.495 . S
C1161 H1167 0.959 . S
C1161 H1168 0.961 . S
C1161 H1169 0.960 . S
C1162 C1160 1.381 . S
C1162 C1163 1.394 . S
C1162 H1170 0.930 . S
C1163 C1162 1.394 . S
C1163 C1164 1.383 . S
C1163 H1171 0.929 . S
C1164 C1163 1.383 . S
C1164 C1165 1.377 . S
C1165 H1149 0.930 . S
C1165 C1164 1.377 . S
C1165 C1166 1.379 . S
C1166 H1150 0.931 . S
C1166 C1160 1.383 . S
C1166 C1165 1.379 . S
H1167 C1161 0.959 . S
H1168 C1161 0.961 . S
H1169 C1161 0.960 . S
H1170 C1162 0.930 . S
H1171 C1163 0.929 . S
H1172 C1180 0.929 . S
H1173 C1182 0.930 . S
H1174 C1184 0.930 . S
H1175 C1187 0.929 . S
H1176 C1190 0.930 . S
H1177 C1192 0.960 . S
H1178 C1192 0.960 . S
H1179 C1192 0.960 . S
C1180 H1172 0.929 . S
C1180 C1181 1.377 . S
C1180 C1182 1.384 . S
C1181 C1180 1.377 . S
C1181 C1187 1.390 . S
C1182 H1173 0.930 . S
C1182 C1180 1.384 . S
C1182 C1183 1.372 . S
C1183 C1182 1.372 . S
C1183 C1184 1.400 . S
C1183 C1188 1.490 . S
C1184 H1174 0.930 . S
C1184 C1183 1.400 . S
C1184 C1187 1.386 . S
H1185 C1201 0.930 . S
H1186 C1202 0.931 . S
C1187 H1175 0.929 . S
C1187 C1181 1.390 . S
C1187 C1184 1.386 . S
C1188 C1183 1.490 . S
C1188 C1190 1.395 . S
C1188 C1191 1.403 . S
H1189 C1195 0.930 . S
C1190 H1176 0.930 . S
C1190 C1188 1.395 . S
C1190 C1193 1.403 . S
C1191 C1188 1.403 . S
C1191 C1192 1.524 . S
C1191 C1195 1.400 . S
C1192 H1177 0.960 . S
C1192 H1178 0.960 . S
C1192 H1179 0.960 . S
C1192 C1191 1.524 . S
C1193 C1190 1.403 . S
C1193 C1194 1.392 . S
C1193 C1197 1.495 . S
C1194 C1193 1.392 . S
C1194 C1195 1.385 . S
C1194 C1196 1.478 . S
C1195 H1189 0.930 . S
C1195 C1191 1.400 . S
C1195 C1194 1.385 . S
C1196 C1194 1.478 . S
C1196 C1198 1.381 . S
C1196 C1202 1.383 . S
C1197 C1193 1.495 . S
C1197 H1203 0.959 . S
C1197 H1204 0.961 . S
C1197 H1205 0.960 . S
C1198 C1196 1.381 . S
C1198 C1199 1.394 . S
C1198 H1206 0.930 . S
C1199 C1198 1.394 . S
C1199 C1200 1.383 . S
C1199 H1207 0.929 . S
C1200 C1199 1.383 . S
C1200 C1201 1.377 . S
C1201 H1185 0.930 . S
C1201 C1200 1.377 . S
C1201 C1202 1.379 . S
C1202 H1186 0.931 . S
C1202 C1196 1.383 . S
C1202 C1201 1.379 . S
H1203 C1197 0.959 . S
H1204 C1197 0.961 . S
H1205 C1197 0.960 . S
H1206 C1198 0.930 . S
H1207 C1199 0.929 . S
H1208 C1216 0.929 . S
H1209 C1218 0.930 . S
H1210 C1220 0.930 . S
H1211 C1223 0.929 . S
H1212 C1226 0.930 . S
H1213 C1228 0.960 . S
H1214 C1228 0.960 . S
H1215 C1228 0.960 . S
C1216 H1208 0.929 . S
C1216 C1217 1.377 . S
C1216 C1218 1.384 . S
C1217 C1216 1.377 . S
C1217 C1223 1.390 . S
C1218 H1209 0.930 . S
C1218 C1216 1.384 . S
C1218 C1219 1.372 . S
C1219 C1218 1.372 . S
C1219 C1220 1.400 . S
C1219 C1224 1.490 . S
C1220 H1210 0.930 . S
C1220 C1219 1.400 . S
C1220 C1223 1.386 . S
H1221 C1237 0.930 . S
H1222 C1238 0.931 . S
C1223 H1211 0.929 . S
C1223 C1217 1.390 . S
C1223 C1220 1.386 . S
C1224 C1219 1.490 . S
C1224 C1226 1.395 . S
C1224 C1227 1.403 . S
H1225 C1231 0.930 . S
C1226 H1212 0.930 . S
C1226 C1224 1.395 . S
C1226 C1229 1.403 . S
C1227 C1224 1.403 . S
C1227 C1228 1.524 . S
C1227 C1231 1.400 . S
C1228 H1213 0.960 . S
C1228 H1214 0.960 . S
C1228 H1215 0.960 . S
C1228 C1227 1.524 . S
C1229 C1226 1.403 . S
C1229 C1230 1.392 . S
C1229 C1233 1.495 . S
C1230 C1229 1.392 . S
C1230 C1231 1.385 . S
C1230 C1232 1.478 . S
C1231 H1225 0.930 . S
C1231 C1227 1.400 . S
C1231 C1230 1.385 . S
C1232 C1230 1.478 . S
C1232 C1234 1.381 . S
C1232 C1238 1.383 . S
C1233 C1229 1.495 . S
C1233 H1239 0.959 . S
C1233 H1240 0.961 . S
C1233 H1241 0.960 . S
C1234 C1232 1.381 . S
C1234 C1235 1.394 . S
C1234 H1242 0.930 . S
C1235 C1234 1.394 . S
C1235 C1236 1.383 . S
C1235 H1243 0.929 . S
C1236 C1235 1.383 . S
C1236 C1237 1.377 . S
C1237 H1221 0.930 . S
C1237 C1236 1.377 . S
C1237 C1238 1.379 . S
C1238 H1222 0.931 . S
C1238 C1232 1.383 . S
C1238 C1237 1.379 . S
H1239 C1233 0.959 . S
H1240 C1233 0.961 . S
H1241 C1233 0.960 . S
H1242 C1234 0.930 . S
H1243 C1235 0.929 . S
H1244 C1252 0.929 1_565 S
H1245 C1254 0.930 1_565 S
H1246 C1256 0.930 . S
H1247 C1259 0.929 . S
H1248 C1262 0.930 . S
H1249 C1264 0.960 . S
H1250 C1264 0.960 . S
H1251 C1264 0.960 . S
C1252 H1244 0.929 1_545 S
C1252 C1253 1.377 . S
C1252 C1254 1.384 . S
C1253 C1252 1.377 . S
C1253 C1259 1.390 . S
C1254 H1245 0.930 1_545 S
C1254 C1252 1.384 . S
C1254 C1255 1.372 . S
C1255 C1254 1.372 . S
C1255 C1256 1.400 . S
C1255 C1260 1.490 . S
C1256 H1246 0.930 . S
C1256 C1255 1.400 . S
C1256 C1259 1.386 . S
H1257 C1273 0.930 . S
H1258 C1274 0.931 . S
C1259 H1247 0.929 . S
C1259 C1253 1.390 . S
C1259 C1256 1.386 . S
C1260 C1255 1.490 . S
C1260 C1262 1.395 . S
C1260 C1263 1.403 . S
H1261 C1267 0.930 . S
C1262 H1248 0.930 . S
C1262 C1260 1.395 . S
C1262 C1265 1.403 . S
C1263 C1260 1.403 . S
C1263 C1264 1.524 . S
C1263 C1267 1.400 . S
C1264 H1249 0.960 . S
C1264 H1250 0.960 . S
C1264 H1251 0.960 . S
C1264 C1263 1.524 . S
C1265 C1262 1.403 . S
C1265 C1266 1.392 . S
C1265 C1269 1.495 . S
C1266 C1265 1.392 . S
C1266 C1267 1.385 . S
C1266 C1268 1.478 . S
C1267 H1261 0.930 . S
C1267 C1263 1.400 . S
C1267 C1266 1.385 . S
C1268 C1266 1.478 . S
C1268 C1270 1.381 1_545 S
C1268 C1274 1.383 . S
C1269 C1265 1.495 . S
C1269 H1275 0.959 . S
C1269 H1276 0.961 . S
C1269 H1277 0.960 1_545 S
C1270 C1268 1.381 1_565 S
C1270 C1271 1.394 . S
C1270 H1278 0.930 . S
C1271 C1270 1.394 . S
C1271 C1272 1.383 1_565 S
C1271 H1279 0.929 . S
C1272 C1271 1.383 1_545 S
C1272 C1273 1.377 . S
C1273 H1257 0.930 . S
C1273 C1272 1.377 . S
C1273 C1274 1.379 . S
C1274 H1258 0.931 . S
C1274 C1268 1.383 . S
C1274 C1273 1.379 . S
H1275 C1269 0.959 . S
H1276 C1269 0.961 . S
H1277 C1269 0.960 1_565 S
H1278 C1270 0.930 . S
H1279 C1271 0.929 . S
H1280 C1288 0.929 . S
H1281 C1290 0.930 . S
H1282 C1292 0.930 . S
H1283 C1295 0.929 . S
H1284 C1298 0.930 . S
H1285 C1300 0.960 . S
H1286 C1300 0.960 . S
H1287 C1300 0.960 . S
C1288 H1280 0.929 . S
C1288 C1289 1.377 . S
C1288 C1290 1.384 . S
C1289 C1288 1.377 . S
C1289 C1295 1.390 . S
C1290 H1281 0.930 . S
C1290 C1288 1.384 . S
C1290 C1291 1.372 . S
C1291 C1290 1.372 . S
C1291 C1292 1.400 . S
C1291 C1296 1.490 . S
C1292 H1282 0.930 . S
C1292 C1291 1.400 . S
C1292 C1295 1.386 . S
H1293 C1309 0.930 . S
H1294 C1310 0.931 . S
C1295 H1283 0.929 . S
C1295 C1289 1.390 . S
C1295 C1292 1.386 . S
C1296 C1291 1.490 . S
C1296 C1298 1.395 . S
C1296 C1299 1.403 . S
H1297 C1303 0.930 . S
C1298 H1284 0.930 . S
C1298 C1296 1.395 . S
C1298 C1301 1.403 . S
C1299 C1296 1.403 . S
C1299 C1300 1.524 . S
C1299 C1303 1.400 . S
C1300 H1285 0.960 . S
C1300 H1286 0.960 . S
C1300 H1287 0.960 . S
C1300 C1299 1.524 . S
C1301 C1298 1.403 . S
C1301 C1302 1.392 . S
C1301 C1305 1.495 . S
C1302 C1301 1.392 . S
C1302 C1303 1.385 . S
C1302 C1304 1.478 . S
C1303 H1297 0.930 . S
C1303 C1299 1.400 . S
C1303 C1302 1.385 . S
C1304 C1302 1.478 . S
C1304 C1306 1.381 . S
C1304 C1310 1.383 . S
C1305 C1301 1.495 . S
C1305 H1311 0.959 . S
C1305 H1312 0.961 . S
C1305 H1313 0.960 . S
C1306 C1304 1.381 . S
C1306 C1307 1.394 . S
C1306 H1314 0.930 . S
C1307 C1306 1.394 . S
C1307 C1308 1.383 . S
C1307 H1315 0.929 . S
C1308 C1307 1.383 . S
C1308 C1309 1.377 . S
C1309 H1293 0.930 . S
C1309 C1308 1.377 . S
C1309 C1310 1.379 . S
C1310 H1294 0.931 . S
C1310 C1304 1.383 . S
C1310 C1309 1.379 . S
H1311 C1305 0.959 . S
H1312 C1305 0.961 . S
H1313 C1305 0.960 . S
H1314 C1306 0.930 . S
H1315 C1307 0.929 . S
H1316 C1324 0.929 . S
H1317 C1326 0.930 . S
H1318 C1328 0.930 . S
H1319 C1331 0.929 . S
H1320 C1334 0.930 . S
H1321 C1336 0.960 . S
H1322 C1336 0.960 . S
H1323 C1336 0.960 . S
C1324 H1316 0.929 . S
C1324 C1325 1.377 . S
C1324 C1326 1.384 . S
C1325 C1324 1.377 . S
C1325 C1331 1.390 . S
C1326 H1317 0.930 . S
C1326 C1324 1.384 . S
C1326 C1327 1.372 . S
C1327 C1326 1.372 . S
C1327 C1328 1.400 . S
C1327 C1332 1.490 . S
C1328 H1318 0.930 . S
C1328 C1327 1.400 . S
C1328 C1331 1.386 . S
H1329 C1345 0.930 . S
H1330 C1346 0.931 . S
C1331 H1319 0.929 . S
C1331 C1325 1.390 . S
C1331 C1328 1.386 . S
C1332 C1327 1.490 . S
C1332 C1334 1.395 . S
C1332 C1335 1.403 . S
H1333 C1339 0.930 . S
C1334 H1320 0.930 . S
C1334 C1332 1.395 . S
C1334 C1337 1.403 . S
C1335 C1332 1.403 . S
C1335 C1336 1.524 . S
C1335 C1339 1.400 . S
C1336 H1321 0.960 . S
C1336 H1322 0.960 . S
C1336 H1323 0.960 . S
C1336 C1335 1.524 . S
C1337 C1334 1.403 . S
C1337 C1338 1.392 . S
C1337 C1341 1.495 . S
C1338 C1337 1.392 . S
C1338 C1339 1.385 . S
C1338 C1340 1.478 . S
C1339 H1333 0.930 . S
C1339 C1335 1.400 . S
C1339 C1338 1.385 . S
C1340 C1338 1.478 . S
C1340 C1342 1.381 . S
C1340 C1346 1.383 . S
C1341 C1337 1.495 . S
C1341 H1347 0.959 . S
C1341 H1348 0.961 . S
C1341 H1349 0.960 . S
C1342 C1340 1.381 . S
C1342 C1343 1.394 . S
C1342 H1350 0.930 . S
C1343 C1342 1.394 . S
C1343 C1344 1.383 . S
C1343 H1351 0.929 . S
C1344 C1343 1.383 . S
C1344 C1345 1.377 . S
C1345 H1329 0.930 . S
C1345 C1344 1.377 . S
C1345 C1346 1.379 . S
C1346 H1330 0.931 . S
C1346 C1340 1.383 . S
C1346 C1345 1.379 . S
H1347 C1341 0.959 . S
H1348 C1341 0.961 . S
H1349 C1341 0.960 . S
H1350 C1342 0.930 . S
H1351 C1343 0.929 . S
H1352 C1360 0.929 . S
H1353 C1362 0.930 . S
H1354 C1364 0.930 . S
H1355 C1367 0.929 . S
H1356 C1370 0.930 . S
H1357 C1372 0.960 . S
H1358 C1372 0.960 . S
H1359 C1372 0.960 . S
C1360 H1352 0.929 . S
C1360 C1361 1.377 . S
C1360 C1362 1.384 . S
C1361 C1360 1.377 . S
C1361 C1367 1.390 . S
C1362 H1353 0.930 . S
C1362 C1360 1.384 . S
C1362 C1363 1.372 . S
C1363 C1362 1.372 . S
C1363 C1364 1.400 . S
C1363 C1368 1.490 . S
C1364 H1354 0.930 . S
C1364 C1363 1.400 . S
C1364 C1367 1.386 . S
H1365 C1381 0.930 . S
H1366 C1382 0.931 . S
C1367 H1355 0.929 . S
C1367 C1361 1.390 . S
C1367 C1364 1.386 . S
C1368 C1363 1.490 . S
C1368 C1370 1.395 . S
C1368 C1371 1.403 . S
H1369 C1375 0.930 . S
C1370 H1356 0.930 . S
C1370 C1368 1.395 . S
C1370 C1373 1.403 . S
C1371 C1368 1.403 . S
C1371 C1372 1.524 . S
C1371 C1375 1.400 . S
C1372 H1357 0.960 . S
C1372 H1358 0.960 . S
C1372 H1359 0.960 . S
C1372 C1371 1.524 . S
C1373 C1370 1.403 . S
C1373 C1374 1.392 . S
C1373 C1377 1.495 . S
C1374 C1373 1.392 . S
C1374 C1375 1.385 . S
C1374 C1376 1.478 . S
C1375 H1369 0.930 . S
C1375 C1371 1.400 . S
C1375 C1374 1.385 . S
C1376 C1374 1.478 . S
C1376 C1378 1.381 . S
C1376 C1382 1.383 . S
C1377 C1373 1.495 . S
C1377 H1383 0.959 . S
C1377 H1384 0.961 . S
C1377 H1385 0.960 . S
C1378 C1376 1.381 . S
C1378 C1379 1.394 . S
C1378 H1386 0.930 . S
C1379 C1378 1.394 . S
C1379 C1380 1.383 . S
C1379 H1387 0.929 . S
C1380 C1379 1.383 . S
C1380 C1381 1.377 . S
C1381 H1365 0.930 . S
C1381 C1380 1.377 . S
C1381 C1382 1.379 . S
C1382 H1366 0.931 . S
C1382 C1376 1.383 . S
C1382 C1381 1.379 . S
H1383 C1377 0.959 . S
H1384 C1377 0.961 . S
H1385 C1377 0.960 . S
H1386 C1378 0.930 . S
H1387 C1379 0.929 . S
H1388 C1396 0.929 . S
H1389 C1398 0.930 . S
H1390 C1400 0.930 . S
H1391 C1403 0.929 . S
H1392 C1406 0.930 . S
H1393 C1408 0.960 . S
H1394 C1408 0.960 . S
H1395 C1408 0.960 . S
C1396 H1388 0.929 . S
C1396 C1397 1.377 . S
C1396 C1398 1.384 . S
C1397 C1396 1.377 . S
C1397 C1403 1.390 . S
C1398 H1389 0.930 . S
C1398 C1396 1.384 . S
C1398 C1399 1.372 . S
C1399 C1398 1.372 . S
C1399 C1400 1.400 . S
C1399 C1404 1.490 . S
C1400 H1390 0.930 . S
C1400 C1399 1.400 . S
C1400 C1403 1.386 . S
H1401 C1417 0.930 . S
H1402 C1418 0.931 . S
C1403 H1391 0.929 . S
C1403 C1397 1.390 . S
C1403 C1400 1.386 . S
C1404 C1399 1.490 . S
C1404 C1406 1.395 . S
C1404 C1407 1.403 1_455 S
H1405 C1411 0.930 . S
C1406 H1392 0.930 . S
C1406 C1404 1.395 . S
C1406 C1409 1.403 . S
C1407 C1404 1.403 1_655 S
C1407 C1408 1.524 . S
C1407 C1411 1.400 . S
C1408 H1393 0.960 . S
C1408 H1394 0.960 . S
C1408 H1395 0.960 . S
C1408 C1407 1.524 . S
C1409 C1406 1.403 . S
C1409 C1410 1.392 1_455 S
C1409 C1413 1.495 . S
C1410 C1409 1.392 1_655 S
C1410 C1411 1.385 . S
C1410 C1412 1.478 . S
C1411 H1405 0.930 . S
C1411 C1407 1.400 . S
C1411 C1410 1.385 . S
C1412 C1410 1.478 . S
C1412 C1414 1.381 . S
C1412 C1418 1.383 . S
C1413 C1409 1.495 . S
C1413 H1419 0.959 . S
C1413 H1420 0.961 . S
C1413 H1421 0.960 . S
C1414 C1412 1.381 . S
C1414 C1415 1.394 . S
C1414 H1422 0.930 . S
C1415 C1414 1.394 . S
C1415 C1416 1.383 . S
C1415 H1423 0.929 . S
C1416 C1415 1.383 . S
C1416 C1417 1.377 . S
C1417 H1401 0.930 . S
C1417 C1416 1.377 . S
C1417 C1418 1.379 . S
C1418 H1402 0.931 . S
C1418 C1412 1.383 . S
C1418 C1417 1.379 . S
H1419 C1413 0.959 . S
H1420 C1413 0.961 . S
H1421 C1413 0.960 . S
H1422 C1414 0.930 . S
H1423 C1415 0.929 . S
H1424 C1432 0.929 . S
H1425 C1434 0.930 . S
H1426 C1436 0.930 . S
H1427 C1439 0.929 . S
H1428 C1442 0.930 . S
H1429 C1444 0.960 . S
H1430 C1444 0.960 . S
H1431 C1444 0.960 . S
C1432 H1424 0.929 . S
C1432 C1433 1.377 . S
C1432 C1434 1.384 . S
C1433 C1432 1.377 . S
C1433 C1439 1.390 . S
C1434 H1425 0.930 . S
C1434 C1432 1.384 . S
C1434 C1435 1.372 . S
C1435 C1434 1.372 . S
C1435 C1436 1.400 . S
C1435 C1440 1.490 . S
C1436 H1426 0.930 . S
C1436 C1435 1.400 . S
C1436 C1439 1.386 . S
H1437 C1453 0.930 . S
H1438 C1454 0.931 . S
C1439 H1427 0.929 . S
C1439 C1433 1.390 . S
C1439 C1436 1.386 . S
C1440 C1435 1.490 . S
C1440 C1442 1.395 . S
C1440 C1443 1.403 . S
H1441 C1447 0.930 . S
C1442 H1428 0.930 . S
C1442 C1440 1.395 . S
C1442 C1445 1.403 . S
C1443 C1440 1.403 . S
C1443 C1444 1.524 . S
C1443 C1447 1.400 . S
C1444 H1429 0.960 . S
C1444 H1430 0.960 . S
C1444 H1431 0.960 . S
C1444 C1443 1.524 . S
C1445 C1442 1.403 . S
C1445 C1446 1.392 . S
C1445 C1449 1.495 . S
C1446 C1445 1.392 . S
C1446 C1447 1.385 . S
C1446 C1448 1.478 . S
C1447 H1441 0.930 . S
C1447 C1443 1.400 . S
C1447 C1446 1.385 . S
C1448 C1446 1.478 . S
C1448 C1450 1.381 . S
C1448 C1454 1.383 . S
C1449 C1445 1.495 . S
C1449 H1455 0.959 . S
C1449 H1456 0.961 . S
C1449 H1457 0.960 . S
C1450 C1448 1.381 . S
C1450 C1451 1.394 . S
C1450 H1458 0.930 . S
C1451 C1450 1.394 . S
C1451 C1452 1.383 . S
C1451 H1459 0.929 . S
C1452 C1451 1.383 . S
C1452 C1453 1.377 . S
C1453 H1437 0.930 . S
C1453 C1452 1.377 . S
C1453 C1454 1.379 . S
C1454 H1438 0.931 . S
C1454 C1448 1.383 . S
C1454 C1453 1.379 . S
H1455 C1449 0.959 . S
H1456 C1449 0.961 . S
H1457 C1449 0.960 . S
H1458 C1450 0.930 . S
H1459 C1451 0.929 . S
H1460 C1468 0.929 . S
H1461 C1470 0.930 . S
H1462 C1472 0.930 . S
H1463 C1475 0.929 1_655 S
H1464 C1478 0.930 . S
H1465 C1480 0.960 . S
H1466 C1480 0.960 . S
H1467 C1480 0.960 . S
C1468 H1460 0.929 . S
C1468 C1469 1.377 . S
C1468 C1470 1.384 . S
C1469 C1468 1.377 . S
C1469 C1475 1.390 . S
C1470 H1461 0.930 . S
C1470 C1468 1.384 . S
C1470 C1471 1.372 . S
C1471 C1470 1.372 . S
C1471 C1472 1.400 . S
C1471 C1476 1.490 . S
C1472 H1462 0.930 . S
C1472 C1471 1.400 . S
C1472 C1475 1.386 . S
H1473 C1489 0.930 . S
H1474 C1490 0.931 . S
C1475 H1463 0.929 1_455 S
C1475 C1469 1.390 . S
C1475 C1472 1.386 . S
C1476 C1471 1.490 . S
C1476 C1478 1.395 . S
C1476 C1479 1.403 . S
H1477 C1483 0.930 . S
C1478 H1464 0.930 . S
C1478 C1476 1.395 . S
C1478 C1481 1.403 . S
C1479 C1476 1.403 . S
C1479 C1480 1.524 . S
C1479 C1483 1.400 . S
C1480 H1465 0.960 . S
C1480 H1466 0.960 . S
C1480 H1467 0.960 . S
C1480 C1479 1.524 . S
C1481 C1478 1.403 . S
C1481 C1482 1.392 . S
C1481 C1485 1.495 . S
C1482 C1481 1.392 . S
C1482 C1483 1.385 . S
C1482 C1484 1.478 . S
C1483 H1477 0.930 . S
C1483 C1479 1.400 . S
C1483 C1482 1.385 . S
C1484 C1482 1.478 . S
C1484 C1486 1.381 . S
C1484 C1490 1.383 . S
C1485 C1481 1.495 . S
C1485 H1491 0.959 . S
C1485 H1492 0.961 . S
C1485 H1493 0.960 . S
C1486 C1484 1.381 . S
C1486 C1487 1.394 . S
C1486 H1494 0.930 . S
C1487 C1486 1.394 . S
C1487 C1488 1.383 . S
C1487 H1495 0.929 . S
C1488 C1487 1.383 . S
C1488 C1489 1.377 . S
C1489 H1473 0.930 . S
C1489 C1488 1.377 . S
C1489 C1490 1.379 . S
C1490 H1474 0.931 . S
C1490 C1484 1.383 . S
C1490 C1489 1.379 . S
H1491 C1485 0.959 . S
H1492 C1485 0.961 . S
H1493 C1485 0.960 . S
H1494 C1486 0.930 . S
H1495 C1487 0.929 . S
H1496 C1504 0.929 . S
H1497 C1506 0.930 . S
H1498 C1508 0.930 . S
H1499 C1511 0.929 . S
H1500 C1514 0.930 . S
H1501 C1516 0.960 . S
H1502 C1516 0.960 . S
H1503 C1516 0.960 . S
C1504 H1496 0.929 . S
C1504 C1505 1.377 . S
C1504 C1506 1.384 . S
C1505 C1504 1.377 . S
C1505 C1511 1.390 . S
C1506 H1497 0.930 . S
C1506 C1504 1.384 . S
C1506 C1507 1.372 . S
C1507 C1506 1.372 . S
C1507 C1508 1.400 . S
C1507 C1512 1.490 . S
C1508 H1498 0.930 . S
C1508 C1507 1.400 . S
C1508 C1511 1.386 . S
H1509 C1525 0.930 . S
H1510 C1526 0.931 . S
C1511 H1499 0.929 . S
C1511 C1505 1.390 . S
C1511 C1508 1.386 . S
C1512 C1507 1.490 . S
C1512 C1514 1.395 . S
C1512 C1515 1.403 . S
H1513 C1519 0.930 . S
C1514 H1500 0.930 . S
C1514 C1512 1.395 . S
C1514 C1517 1.403 . S
C1515 C1512 1.403 . S
C1515 C1516 1.524 . S
C1515 C1519 1.400 . S
C1516 H1501 0.960 . S
C1516 H1502 0.960 . S
C1516 H1503 0.960 . S
C1516 C1515 1.524 . S
C1517 C1514 1.403 . S
C1517 C1518 1.392 . S
C1517 C1521 1.495 . S
C1518 C1517 1.392 . S
C1518 C1519 1.385 . S
C1518 C1520 1.478 . S
C1519 H1513 0.930 . S
C1519 C1515 1.400 . S
C1519 C1518 1.385 . S
C1520 C1518 1.478 . S
C1520 C1522 1.381 . S
C1520 C1526 1.383 . S
C1521 C1517 1.495 . S
C1521 H1527 0.959 . S
C1521 H1528 0.961 . S
C1521 H1529 0.960 . S
C1522 C1520 1.381 . S
C1522 C1523 1.394 . S
C1522 H1530 0.930 . S
C1523 C1522 1.394 . S
C1523 C1524 1.383 . S
C1523 H1531 0.929 . S
C1524 C1523 1.383 . S
C1524 C1525 1.377 . S
C1525 H1509 0.930 . S
C1525 C1524 1.377 . S
C1525 C1526 1.379 . S
C1526 H1510 0.931 . S
C1526 C1520 1.383 . S
C1526 C1525 1.379 . S
H1527 C1521 0.959 . S
H1528 C1521 0.961 . S
H1529 C1521 0.960 . S
H1530 C1522 0.930 . S
H1531 C1523 0.929 . S
H1532 C1540 0.929 . S
H1533 C1542 0.930 . S
H1534 C1544 0.930 . S
H1535 C1547 0.929 . S
H1536 C1550 0.930 1_554 S
H1537 C1552 0.960 . S
H1538 C1552 0.960 1_455 S
H1539 C1552 0.960 . S
C1540 H1532 0.929 . S
C1540 C1541 1.377 . S
C1540 C1542 1.384 . S
C1541 C1540 1.377 . S
C1541 C1547 1.390 1_455 S
C1542 H1533 0.930 . S
C1542 C1540 1.384 . S
C1542 C1543 1.372 1_554 S
C1543 C1542 1.372 1_556 S
C1543 C1544 1.400 1_455 S
C1543 C1548 1.490 . S
C1544 H1534 0.930 . S
C1544 C1543 1.400 1_655 S
C1544 C1547 1.386 1_556 S
H1545 C1561 0.930 1_655 S
H1546 C1562 0.894 1_655 S
C1547 H1535 0.929 . S
C1547 C1541 1.390 1_655 S
C1547 C1544 1.386 1_554 S
C1548 C1543 1.490 . S
C1548 C1550 1.395 . S
C1548 C1551 1.403 . S
H1549 C1555 0.930 . S
C1550 H1536 0.930 1_556 S
C1550 C1548 1.395 . S
C1550 C1553 1.403 . S
C1551 C1548 1.403 . S
C1551 C1552 1.524 1_455 S
C1551 C1555 1.400 . S
C1552 H1537 0.960 . S
C1552 H1538 0.960 1_655 S
C1552 H1539 0.960 . S
C1552 C1551 1.524 1_655 S
C1553 C1550 1.403 . S
C1553 C1554 1.392 . S
C1553 C1557 1.495 . S
C1554 C1553 1.392 . S
C1554 C1555 1.385 . S
C1554 C1556 1.478 . S
C1555 H1549 0.930 . S
C1555 C1551 1.400 . S
C1555 C1554 1.385 . S
C1556 C1554 1.478 . S
C1556 C1558 1.381 . S
C1556 C1562 1.411 . S
C1557 C1553 1.495 . S
C1557 H1563 0.959 1_556 S
C1557 H1564 0.961 . S
C1557 H1565 0.960 . S
C1558 C1556 1.381 . S
C1558 C1559 1.394 . S
C1558 H1566 0.930 . S
C1559 C1558 1.394 . S
C1559 C1560 1.383 . S
C1559 H1567 0.929 . S
C1560 C1559 1.383 . S
C1560 C1561 1.377 . S
C1561 H1545 0.930 1_455 S
C1561 C1560 1.377 . S
C1561 C1562 1.389 . S
C1562 H1546 0.894 1_455 S
C1562 C1556 1.411 . S
C1562 C1561 1.389 . S
H1563 C1557 0.959 1_554 S
H1564 C1557 0.961 . S
H1565 C1557 0.960 . S
H1566 C1558 0.930 . S
H1567 C1559 0.929 . S
H1568 C1576 0.929 . S
H1569 C1578 0.930 . S
H1570 C1580 0.930 . S
H1571 C1583 0.929 . S
H1572 C1586 0.930 . S
H1573 C1588 0.960 . S
H1574 C1588 0.960 . S
H1575 C1588 0.960 . S
C1576 H1568 0.929 . S
C1576 C1577 1.377 . S
C1576 C1578 1.384 . S
C1577 C1576 1.377 . S
C1577 C1583 1.390 . S
C1578 H1569 0.930 . S
C1578 C1576 1.384 . S
C1578 C1579 1.372 . S
C1579 C1578 1.372 . S
C1579 C1580 1.400 . S
C1579 C1584 1.490 . S
C1580 H1570 0.930 . S
C1580 C1579 1.400 . S
C1580 C1583 1.386 . S
H1581 C1597 0.930 . S
H1582 C1598 0.931 . S
C1583 H1571 0.929 . S
C1583 C1577 1.390 . S
C1583 C1580 1.386 . S
C1584 C1579 1.490 . S
C1584 C1586 1.395 . S
C1584 C1587 1.403 . S
H1585 C1591 0.930 . S
C1586 H1572 0.930 . S
C1586 C1584 1.395 . S
C1586 C1589 1.403 . S
C1587 C1584 1.403 . S
C1587 C1588 1.524 . S
C1587 C1591 1.400 . S
C1588 H1573 0.960 . S
C1588 H1574 0.960 . S
C1588 H1575 0.960 . S
C1588 C1587 1.524 . S
C1589 C1586 1.403 . S
C1589 C1590 1.392 . S
C1589 C1593 1.495 . S
C1590 C1589 1.392 . S
C1590 C1591 1.385 . S
C1590 C1592 1.478 . S
C1591 H1585 0.930 . S
C1591 C1587 1.400 . S
C1591 C1590 1.385 . S
C1592 C1590 1.478 . S
C1592 C1594 1.381 . S
C1592 C1598 1.383 . S
C1593 C1589 1.495 . S
C1593 H1599 0.959 . S
C1593 H1600 0.961 . S
C1593 H1601 0.960 . S
C1594 C1592 1.381 . S
C1594 C1595 1.394 . S
C1594 H1602 0.930 . S
C1595 C1594 1.394 . S
C1595 C1596 1.383 . S
C1595 H1603 0.929 . S
C1596 C1595 1.383 . S
C1596 C1597 1.377 . S
C1597 H1581 0.930 . S
C1597 C1596 1.377 . S
C1597 C1598 1.379 . S
C1598 H1582 0.931 . S
C1598 C1592 1.383 . S
C1598 C1597 1.379 . S
H1599 C1593 0.959 . S
H1600 C1593 0.961 . S
H1601 C1593 0.960 . S
H1602 C1594 0.930 . S
H1603 C1595 0.929 . S
H1604 C1612 0.929 . S
H1605 C1614 0.930 1_554 S
H1606 C1616 0.930 . S
H1607 C1619 0.929 . S
H1608 C1622 0.930 . S
H1609 C1624 0.960 . S
H1610 C1624 0.960 . S
H1611 C1624 0.960 . S
C1612 H1604 0.929 . S
C1612 C1613 1.377 . S
C1612 C1614 1.384 1_554 S
C1613 C1612 1.377 . S
C1613 C1619 1.390 1_554 S
C1614 H1605 0.930 1_556 S
C1614 C1612 1.384 1_556 S
C1614 C1615 1.372 . S
C1615 C1614 1.372 . S
C1615 C1616 1.400 . S
C1615 C1620 1.490 . S
C1616 H1606 0.930 . S
C1616 C1615 1.400 . S
C1616 C1619 1.386 . S
H1617 C1633 0.930 . S
H1618 C1634 0.931 . S
C1619 H1607 0.929 . S
C1619 C1613 1.390 1_556 S
C1619 C1616 1.386 . S
C1620 C1615 1.490 . S
C1620 C1622 1.395 . S
C1620 C1623 1.403 . S
H1621 C1627 0.930 . S
C1622 H1608 0.930 . S
C1622 C1620 1.395 . S
C1622 C1625 1.403 . S
C1623 C1620 1.403 . S
C1623 C1624 1.524 . S
C1623 C1627 1.400 . S
C1624 H1609 0.960 . S
C1624 H1610 0.960 . S
C1624 H1611 0.960 . S
C1624 C1623 1.524 . S
C1625 C1622 1.403 . S
C1625 C1626 1.392 . S
C1625 C1629 1.495 . S
C1626 C1625 1.392 . S
C1626 C1627 1.385 . S
C1626 C1628 1.478 . S
C1627 H1621 0.930 . S
C1627 C1623 1.400 . S
C1627 C1626 1.385 . S
C1628 C1626 1.478 . S
C1628 C1630 1.381 . S
C1628 C1634 1.383 . S
C1629 C1625 1.495 . S
C1629 H1635 0.959 . S
C1629 H1636 0.961 . S
C1629 H1637 0.960 . S
C1630 C1628 1.381 . S
C1630 C1631 1.394 . S
C1630 H1638 0.930 . S
C1631 C1630 1.394 . S
C1631 C1632 1.383 . S
C1631 H1639 0.929 . S
C1632 C1631 1.383 . S
C1632 C1633 1.377 . S
C1633 H1617 0.930 . S
C1633 C1632 1.377 . S
C1633 C1634 1.379 . S
C1634 H1618 0.931 . S
C1634 C1628 1.383 . S
C1634 C1633 1.379 . S
H1635 C1629 0.959 . S
H1636 C1629 0.961 . S
H1637 C1629 0.960 . S
H1638 C1630 0.930 . S
H1639 C1631 0.929 . S
H1640 C1648 0.929 . S
H1641 C1650 0.930 . S
H1642 C1652 0.930 . S
H1643 C1655 0.929 . S
H1644 C1658 0.930 . S
H1645 C1660 0.960 . S
H1646 C1660 0.960 . S
H1647 C1660 0.960 . S
C1648 H1640 0.929 . S
C1648 C1649 1.377 . S
C1648 C1650 1.384 . S
C1649 C1648 1.377 . S
C1649 C1655 1.390 . S
C1650 H1641 0.930 . S
C1650 C1648 1.384 . S
C1650 C1651 1.372 . S
C1651 C1650 1.372 . S
C1651 C1652 1.400 . S
C1651 C1656 1.490 . S
C1652 H1642 0.930 . S
C1652 C1651 1.400 . S
C1652 C1655 1.386 . S
H1653 C1669 0.930 . S
H1654 C1670 0.931 . S
C1655 H1643 0.929 . S
C1655 C1649 1.390 . S
C1655 C1652 1.386 . S
C1656 C1651 1.490 . S
C1656 C1658 1.395 . S
C1656 C1659 1.403 . S
H1657 C1663 0.930 . S
C1658 H1644 0.930 . S
C1658 C1656 1.395 . S
C1658 C1661 1.403 . S
C1659 C1656 1.403 . S
C1659 C1660 1.524 . S
C1659 C1663 1.400 . S
C1660 H1645 0.960 . S
C1660 H1646 0.960 . S
C1660 H1647 0.960 . S
C1660 C1659 1.524 . S
C1661 C1658 1.403 . S
C1661 C1662 1.392 . S
C1661 C1665 1.495 . S
C1662 C1661 1.392 . S
C1662 C1663 1.385 . S
C1662 C1664 1.478 . S
C1663 H1657 0.930 . S
C1663 C1659 1.400 . S
C1663 C1662 1.385 . S
C1664 C1662 1.478 . S
C1664 C1666 1.381 . S
C1664 C1670 1.383 . S
C1665 C1661 1.495 . S
C1665 H1671 0.959 . S
C1665 H1672 0.961 . S
C1665 H1673 0.960 . S
C1666 C1664 1.381 . S
C1666 C1667 1.394 . S
C1666 H1674 0.930 . S
C1667 C1666 1.394 . S
C1667 C1668 1.383 . S
C1667 H1675 0.929 . S
C1668 C1667 1.383 . S
C1668 C1669 1.377 . S
C1669 H1653 0.930 . S
C1669 C1668 1.377 . S
C1669 C1670 1.379 . S
C1670 H1654 0.931 . S
C1670 C1664 1.383 . S
C1670 C1669 1.379 . S
H1671 C1665 0.959 . S
H1672 C1665 0.961 . S
H1673 C1665 0.960 . S
H1674 C1666 0.930 . S
H1675 C1667 0.929 . S
H1676 C1684 0.929 . S
H1677 C1686 0.930 . S
H1678 C1688 0.930 . S
H1679 C1691 0.929 . S
H1680 C1694 0.930 . S
H1681 C1696 0.960 . S
H1682 C1696 0.960 . S
H1683 C1696 0.960 . S
C1684 H1676 0.929 . S
C1684 C1685 1.377 . S
C1684 C1686 1.384 . S
C1685 C1684 1.377 . S
C1685 C1691 1.390 . S
C1686 H1677 0.930 . S
C1686 C1684 1.384 . S
C1686 C1687 1.372 . S
C1687 C1686 1.372 . S
C1687 C1688 1.400 . S
C1687 C1692 1.490 . S
C1688 H1678 0.930 . S
C1688 C1687 1.400 . S
C1688 C1691 1.386 . S
H1689 C1705 0.930 . S
H1690 C1706 0.931 . S
C1691 H1679 0.929 . S
C1691 C1685 1.390 . S
C1691 C1688 1.386 . S
C1692 C1687 1.490 . S
C1692 C1694 1.395 . S
C1692 C1695 1.403 . S
H1693 C1699 0.930 . S
C1694 H1680 0.930 . S
C1694 C1692 1.395 . S
C1694 C1697 1.403 . S
C1695 C1692 1.403 . S
C1695 C1696 1.524 . S
C1695 C1699 1.400 . S
C1696 H1681 0.960 . S
C1696 H1682 0.960 . S
C1696 H1683 0.960 . S
C1696 C1695 1.524 . S
C1697 C1694 1.403 . S
C1697 C1698 1.392 . S
C1697 C1701 1.495 . S
C1698 C1697 1.392 . S
C1698 C1699 1.385 . S
C1698 C1700 1.478 . S
C1699 H1693 0.930 . S
C1699 C1695 1.400 . S
C1699 C1698 1.385 . S
C1700 C1698 1.478 . S
C1700 C1702 1.381 . S
C1700 C1706 1.383 . S
C1701 C1697 1.495 . S
C1701 H1707 0.959 . S
C1701 H1708 0.961 . S
C1701 H1709 0.960 . S
C1702 C1700 1.381 . S
C1702 C1703 1.394 . S
C1702 H1710 0.930 . S
C1703 C1702 1.394 . S
C1703 C1704 1.383 . S
C1703 H1711 0.929 . S
C1704 C1703 1.383 . S
C1704 C1705 1.377 . S
C1705 H1689 0.930 . S
C1705 C1704 1.377 . S
C1705 C1706 1.379 . S
C1706 H1690 0.931 . S
C1706 C1700 1.383 . S
C1706 C1705 1.379 . S
H1707 C1701 0.959 . S
H1708 C1701 0.961 . S
H1709 C1701 0.960 . S
H1710 C1702 0.930 . S
H1711 C1703 0.929 . S
H1712 C1720 0.929 . S
H1713 C1722 0.930 . S
H1714 C1724 0.930 . S
H1715 C1727 0.929 . S
H1716 C1730 0.930 . S
H1717 C1732 0.960 . S
H1718 C1732 0.960 . S
H1719 C1732 0.960 . S
C1720 H1712 0.929 . S
C1720 C1721 1.377 . S
C1720 C1722 1.384 . S
C1721 C1720 1.377 . S
C1721 C1727 1.390 . S
C1722 H1713 0.930 . S
C1722 C1720 1.384 . S
C1722 C1723 1.372 . S
C1723 C1722 1.372 . S
C1723 C1724 1.400 . S
C1723 C1728 1.490 . S
C1724 H1714 0.930 . S
C1724 C1723 1.400 . S
C1724 C1727 1.386 . S
H1725 C1741 0.930 . S
H1726 C1742 0.931 . S
C1727 H1715 0.929 . S
C1727 C1721 1.390 . S
C1727 C1724 1.386 . S
C1728 C1723 1.490 . S
C1728 C1730 1.395 . S
C1728 C1731 1.403 . S
H1729 C1735 0.930 . S
C1730 H1716 0.930 . S
C1730 C1728 1.395 . S
C1730 C1733 1.403 . S
C1731 C1728 1.403 . S
C1731 C1732 1.524 . S
C1731 C1735 1.400 . S
C1732 H1717 0.960 . S
C1732 H1718 0.960 . S
C1732 H1719 0.960 . S
C1732 C1731 1.524 . S
C1733 C1730 1.403 . S
C1733 C1734 1.392 . S
C1733 C1737 1.495 . S
C1734 C1733 1.392 . S
C1734 C1735 1.385 . S
C1734 C1736 1.478 . S
C1735 H1729 0.930 . S
C1735 C1731 1.400 . S
C1735 C1734 1.385 . S
C1736 C1734 1.478 . S
C1736 C1738 1.381 . S
C1736 C1742 1.383 . S
C1737 C1733 1.495 . S
C1737 H1743 0.959 . S
C1737 H1744 0.961 . S
C1737 H1745 0.960 . S
C1738 C1736 1.381 . S
C1738 C1739 1.394 . S
C1738 H1746 0.930 . S
C1739 C1738 1.394 . S
C1739 C1740 1.383 . S
C1739 H1747 0.929 . S
C1740 C1739 1.383 . S
C1740 C1741 1.377 . S
C1741 H1725 0.930 . S
C1741 C1740 1.377 . S
C1741 C1742 1.379 . S
C1742 H1726 0.931 . S
C1742 C1736 1.383 . S
C1742 C1741 1.379 . S
H1743 C1737 0.959 . S
H1744 C1737 0.961 . S
H1745 C1737 0.960 . S
H1746 C1738 0.930 . S
H1747 C1739 0.929 . S
H1748 C1756 0.921 1_556 S
H1749 C1758 0.930 . S
H1750 C1760 0.930 . S
H1751 C1763 0.929 1_556 S
H1752 C1766 0.930 . S
H1753 C1768 0.960 . S
H1754 C1768 0.960 . S
H1755 C1768 0.960 . S
C1756 H1748 0.921 1_554 S
C1756 C1757 1.377 1_554 S
C1756 C1758 1.384 . S
C1757 C1756 1.377 1_556 S
C1757 C1763 1.390 1_556 S
C1758 H1749 0.930 . S
C1758 C1756 1.384 . S
C1758 C1759 1.372 . S
C1759 C1758 1.372 . S
C1759 C1760 1.400 . S
C1759 C1764 1.490 . S
C1760 H1750 0.930 . S
C1760 C1759 1.400 . S
C1760 C1763 1.386 . S
H1761 C1777 0.930 . S
H1762 C1778 0.931 . S
C1763 H1751 0.929 1_554 S
C1763 C1757 1.390 1_554 S
C1763 C1760 1.386 . S
C1764 C1759 1.490 . S
C1764 C1766 1.395 . S
C1764 C1767 1.403 . S
H1765 C1771 0.930 . S
C1766 H1752 0.930 . S
C1766 C1764 1.395 . S
C1766 C1769 1.403 . S
C1767 C1764 1.403 . S
C1767 C1768 1.524 . S
C1767 C1771 1.400 . S
C1768 H1753 0.960 . S
C1768 H1754 0.960 . S
C1768 H1755 0.960 . S
C1768 C1767 1.524 . S
C1769 C1766 1.403 . S
C1769 C1770 1.392 . S
C1769 C1773 1.495 . S
C1770 C1769 1.392 . S
C1770 C1771 1.385 . S
C1770 C1772 1.478 . S
C1771 H1765 0.930 . S
C1771 C1767 1.400 . S
C1771 C1770 1.385 . S
C1772 C1770 1.478 . S
C1772 C1774 1.381 . S
C1772 C1778 1.383 . S
C1773 C1769 1.495 . S
C1773 H1779 0.959 . S
C1773 H1780 0.961 . S
C1773 H1781 0.960 . S
C1774 C1772 1.381 . S
C1774 C1775 1.394 . S
C1774 H1782 0.930 . S
C1775 C1774 1.394 . S
C1775 C1776 1.383 . S
C1775 H1783 0.929 . S
C1776 C1775 1.383 . S
C1776 C1777 1.377 . S
C1777 H1761 0.930 . S
C1777 C1776 1.377 . S
C1777 C1778 1.379 . S
C1778 H1762 0.931 . S
C1778 C1772 1.383 . S
C1778 C1777 1.379 . S
H1779 C1773 0.959 . S
H1780 C1773 0.961 . S
H1781 C1773 0.960 . S
H1782 C1774 0.930 . S
H1783 C1775 0.929 . S
H1784 C1792 0.929 . S
H1785 C1794 0.930 . S
H1786 C1796 0.930 . S
H1787 C1799 0.929 . S
H1788 C1802 0.930 . S
H1789 C1804 0.960 . S
H1790 C1804 0.960 . S
H1791 C1804 0.960 . S
C1792 H1784 0.929 . S
C1792 C1793 1.377 . S
C1792 C1794 1.384 . S
C1793 C1792 1.377 . S
C1793 C1799 1.390 . S
C1794 H1785 0.930 . S
C1794 C1792 1.384 . S
C1794 C1795 1.372 . S
C1795 C1794 1.372 . S
C1795 C1796 1.400 . S
C1795 C1800 1.490 . S
C1796 H1786 0.930 . S
C1796 C1795 1.400 . S
C1796 C1799 1.386 . S
H1797 C1813 0.930 . S
H1798 C1814 0.931 . S
C1799 H1787 0.929 . S
C1799 C1793 1.390 . S
C1799 C1796 1.386 . S
C1800 C1795 1.490 . S
C1800 C1802 1.395 . S
C1800 C1803 1.403 . S
H1801 C1807 0.930 . S
C1802 H1788 0.930 . S
C1802 C1800 1.395 . S
C1802 C1805 1.403 . S
C1803 C1800 1.403 . S
C1803 C1804 1.524 . S
C1803 C1807 1.400 . S
C1804 H1789 0.960 . S
C1804 H1790 0.960 . S
C1804 H1791 0.960 . S
C1804 C1803 1.524 . S
C1805 C1802 1.403 . S
C1805 C1806 1.392 . S
C1805 C1809 1.495 . S
C1806 C1805 1.392 . S
C1806 C1807 1.385 . S
C1806 C1808 1.478 . S
C1807 H1801 0.930 . S
C1807 C1803 1.400 . S
C1807 C1806 1.385 . S
C1808 C1806 1.478 . S
C1808 C1810 1.381 . S
C1808 C1814 1.383 . S
C1809 C1805 1.495 . S
C1809 H1815 0.959 . S
C1809 H1816 0.961 . S
C1809 H1817 0.960 . S
C1810 C1808 1.381 . S
C1810 C1811 1.394 . S
C1810 H1818 0.930 . S
C1811 C1810 1.394 . S
C1811 C1812 1.383 . S
C1811 H1819 0.929 . S
C1812 C1811 1.383 . S
C1812 C1813 1.377 . S
C1813 H1797 0.930 . S
C1813 C1812 1.377 . S
C1813 C1814 1.379 . S
C1814 H1798 0.931 . S
C1814 C1808 1.383 . S
C1814 C1813 1.379 . S
H1815 C1809 0.959 . S
H1816 C1809 0.961 . S
H1817 C1809 0.960 . S
H1818 C1810 0.930 . S
H1819 C1811 0.929 . S
H1820 C1828 0.929 . S
H1821 C1830 0.930 . S
H1822 C1832 0.930 . S
H1823 C1835 0.929 . S
H1824 C1838 0.930 . S
H1825 C1840 0.960 . S
H1826 C1840 0.960 . S
H1827 C1840 0.960 . S
C1828 H1820 0.929 . S
C1828 C1829 1.377 . S
C1828 C1830 1.384 . S
C1829 C1828 1.377 . S
C1829 C1835 1.390 . S
C1830 H1821 0.930 . S
C1830 C1828 1.384 . S
C1830 C1831 1.372 . S
C1831 C1830 1.372 . S
C1831 C1832 1.400 . S
C1831 C1836 1.490 . S
C1832 H1822 0.930 . S
C1832 C1831 1.400 . S
C1832 C1835 1.386 . S
H1833 C1849 0.930 . S
H1834 C1850 0.931 . S
C1835 H1823 0.929 . S
C1835 C1829 1.390 . S
C1835 C1832 1.386 . S
C1836 C1831 1.490 . S
C1836 C1838 1.395 . S
C1836 C1839 1.403 . S
H1837 C1843 0.930 . S
C1838 H1824 0.930 . S
C1838 C1836 1.395 . S
C1838 C1841 1.403 . S
C1839 C1836 1.403 . S
C1839 C1840 1.524 . S
C1839 C1843 1.400 . S
C1840 H1825 0.960 . S
C1840 H1826 0.960 . S
C1840 H1827 0.960 . S
C1840 C1839 1.524 . S
C1841 C1838 1.403 . S
C1841 C1842 1.392 . S
C1841 C1845 1.495 . S
C1842 C1841 1.392 . S
C1842 C1843 1.385 . S
C1842 C1844 1.478 . S
C1843 H1837 0.930 . S
C1843 C1839 1.400 . S
C1843 C1842 1.385 . S
C1844 C1842 1.478 . S
C1844 C1846 1.381 . S
C1844 C1850 1.383 . S
C1845 C1841 1.495 . S
C1845 H1851 0.959 . S
C1845 H1852 0.961 . S
C1845 H1853 0.960 . S
C1846 C1844 1.381 . S
C1846 C1847 1.394 . S
C1846 H1854 0.930 . S
C1847 C1846 1.394 . S
C1847 C1848 1.383 . S
C1847 H1855 0.929 . S
C1848 C1847 1.383 . S
C1848 C1849 1.377 . S
C1849 H1833 0.930 . S
C1849 C1848 1.377 . S
C1849 C1850 1.379 . S
C1850 H1834 0.931 . S
C1850 C1844 1.383 . S
C1850 C1849 1.379 . S
H1851 C1845 0.959 . S
H1852 C1845 0.961 . S
H1853 C1845 0.960 . S
H1854 C1846 0.930 . S
H1855 C1847 0.929 . S
H1856 C1864 0.929 . S
H1857 C1866 0.930 . S
H1858 C1868 0.930 . S
H1859 C1871 0.929 . S
H1860 C1874 0.930 . S
H1861 C1876 0.960 . S
H1862 C1876 0.960 . S
H1863 C1876 0.960 . S
C1864 H1856 0.929 . S
C1864 C1865 1.377 . S
C1864 C1866 1.384 . S
C1865 C1864 1.377 . S
C1865 C1871 1.390 . S
C1866 H1857 0.930 . S
C1866 C1864 1.384 . S
C1866 C1867 1.372 . S
C1867 C1866 1.372 . S
C1867 C1868 1.400 . S
C1867 C1872 1.490 . S
C1868 H1858 0.930 . S
C1868 C1867 1.400 . S
C1868 C1871 1.386 . S
H1869 C1885 0.930 . S
H1870 C1886 0.931 . S
C1871 H1859 0.929 . S
C1871 C1865 1.390 . S
C1871 C1868 1.386 . S
C1872 C1867 1.490 . S
C1872 C1874 1.395 . S
C1872 C1875 1.403 . S
H1873 C1879 0.930 . S
C1874 H1860 0.930 . S
C1874 C1872 1.395 . S
C1874 C1877 1.403 . S
C1875 C1872 1.403 . S
C1875 C1876 1.524 . S
C1875 C1879 1.400 . S
C1876 H1861 0.960 . S
C1876 H1862 0.960 . S
C1876 H1863 0.960 . S
C1876 C1875 1.524 . S
C1877 C1874 1.403 . S
C1877 C1878 1.392 . S
C1877 C1881 1.495 . S
C1878 C1877 1.392 . S
C1878 C1879 1.385 . S
C1878 C1880 1.478 . S
C1879 H1873 0.930 . S
C1879 C1875 1.400 . S
C1879 C1878 1.385 . S
C1880 C1878 1.478 . S
C1880 C1882 1.381 . S
C1880 C1886 1.383 . S
C1881 C1877 1.495 . S
C1881 H1887 0.959 . S
C1881 H1888 0.961 . S
C1881 H1889 0.960 . S
C1882 C1880 1.381 . S
C1882 C1883 1.394 . S
C1882 H1890 0.930 . S
C1883 C1882 1.394 . S
C1883 C1884 1.383 . S
C1883 H1891 0.929 . S
C1884 C1883 1.383 . S
C1884 C1885 1.377 . S
C1885 H1869 0.930 . S
C1885 C1884 1.377 . S
C1885 C1886 1.379 . S
C1886 H1870 0.931 . S
C1886 C1880 1.383 . S
C1886 C1885 1.379 . S
H1887 C1881 0.959 . S
H1888 C1881 0.961 . S
H1889 C1881 0.960 . S
H1890 C1882 0.930 . S
H1891 C1883 0.929 . S
H1892 C1900 0.929 . S
H1893 C1902 0.930 . S
H1894 C1904 0.930 . S
H1895 C1907 0.929 . S
H1896 C1910 0.930 . S
H1897 C1912 0.960 . S
H1898 C1912 0.960 . S
H1899 C1912 0.960 . S
C1900 H1892 0.929 . S
C1900 C1901 1.377 . S
C1900 C1902 1.384 . S
C1901 C1900 1.377 . S
C1901 C1907 1.390 . S
C1902 H1893 0.930 . S
C1902 C1900 1.384 . S
C1902 C1903 1.372 . S
C1903 C1902 1.372 . S
C1903 C1904 1.400 . S
C1903 C1908 1.490 . S
C1904 H1894 0.930 . S
C1904 C1903 1.400 . S
C1904 C1907 1.386 . S
H1905 C1921 0.930 . S
H1906 C1922 0.931 . S
C1907 H1895 0.929 . S
C1907 C1901 1.390 . S
C1907 C1904 1.386 . S
C1908 C1903 1.490 . S
C1908 C1910 1.395 . S
C1908 C1911 1.403 . S
H1909 C1915 0.930 . S
C1910 H1896 0.930 . S
C1910 C1908 1.395 . S
C1910 C1913 1.403 . S
C1911 C1908 1.403 . S
C1911 C1912 1.524 . S
C1911 C1915 1.400 . S
C1912 H1897 0.960 . S
C1912 H1898 0.960 . S
C1912 H1899 0.960 . S
C1912 C1911 1.524 . S
C1913 C1910 1.403 . S
C1913 C1914 1.392 . S
C1913 C1917 1.495 . S
C1914 C1913 1.392 . S
C1914 C1915 1.385 . S
C1914 C1916 1.478 . S
C1915 H1909 0.930 . S
C1915 C1911 1.400 . S
C1915 C1914 1.385 . S
C1916 C1914 1.478 . S
C1916 C1918 1.381 . S
C1916 C1922 1.383 . S
C1917 C1913 1.495 . S
C1917 H1923 0.959 . S
C1917 H1924 0.961 . S
C1917 H1925 0.960 . S
C1918 C1916 1.381 . S
C1918 C1919 1.394 . S
C1918 H1926 0.930 . S
C1919 C1918 1.394 . S
C1919 C1920 1.383 . S
C1919 H1927 0.929 . S
C1920 C1919 1.383 . S
C1920 C1921 1.377 . S
C1921 H1905 0.930 . S
C1921 C1920 1.377 . S
C1921 C1922 1.379 . S
C1922 H1906 0.931 . S
C1922 C1916 1.383 . S
C1922 C1921 1.379 . S
H1923 C1917 0.959 . S
H1924 C1917 0.961 . S
H1925 C1917 0.960 . S
H1926 C1918 0.930 . S
H1927 C1919 0.929 . S
H1928 C1936 0.929 . S
H1929 C1938 0.930 . S
H1930 C1940 0.930 . S
H1931 C1943 0.929 . S
H1932 C1946 0.930 . S
H1933 C1948 0.960 . S
H1934 C1948 0.960 . S
H1935 C1948 0.960 . S
C1936 H1928 0.929 . S
C1936 C1937 1.377 . S
C1936 C1938 1.384 . S
C1937 C1936 1.377 . S
C1937 C1943 1.390 1_556 S
C1938 H1929 0.930 . S
C1938 C1936 1.384 . S
C1938 C1939 1.372 . S
C1939 C1938 1.372 . S
C1939 C1940 1.400 1_556 S
C1939 C1944 1.490 . S
C1940 H1930 0.930 . S
C1940 C1939 1.400 1_554 S
C1940 C1943 1.386 . S
H1941 C1957 0.930 . S
H1942 C1958 0.931 . S
C1943 H1931 0.929 . S
C1943 C1937 1.390 1_554 S
C1943 C1940 1.386 . S
C1944 C1939 1.490 . S
C1944 C1946 1.395 . S
C1944 C1947 1.403 . S
H1945 C1951 0.930 . S
C1946 H1932 0.930 . S
C1946 C1944 1.395 . S
C1946 C1949 1.403 . S
C1947 C1944 1.403 . S
C1947 C1948 1.524 . S
C1947 C1951 1.400 . S
C1948 H1933 0.960 . S
C1948 H1934 0.960 . S
C1948 H1935 0.960 . S
C1948 C1947 1.524 . S
C1949 C1946 1.403 . S
C1949 C1950 1.392 . S
C1949 C1953 1.495 1_556 S
C1950 C1949 1.392 . S
C1950 C1951 1.385 . S
C1950 C1952 1.478 . S
C1951 H1945 0.930 . S
C1951 C1947 1.400 . S
C1951 C1950 1.385 . S
C1952 C1950 1.478 . S
C1952 C1954 1.381 . S
C1952 C1958 1.383 1_556 S
C1953 C1949 1.495 1_554 S
C1953 H1959 0.959 . S
C1953 H1960 0.961 . S
C1953 H1961 0.960 1_554 S
C1954 C1952 1.381 . S
C1954 C1955 1.394 . S
C1954 H1962 0.930 . S
C1955 C1954 1.394 . S
C1955 C1956 1.383 . S
C1955 H1963 0.929 . S
C1956 C1955 1.383 . S
C1956 C1957 1.377 1_556 S
C1957 H1941 0.930 . S
C1957 C1956 1.377 1_554 S
C1957 C1958 1.379 . S
C1958 H1942 0.931 . S
C1958 C1952 1.383 1_554 S
C1958 C1957 1.379 . S
H1959 C1953 0.959 . S
H1960 C1953 0.961 . S
H1961 C1953 0.960 1_556 S
H1962 C1954 0.930 . S
H1963 C1955 0.929 . S
H1964 C1972 0.929 . S
H1965 C1974 0.930 . S
H1966 C1976 0.930 . S
H1967 C1979 0.929 . S
H1968 C1982 0.930 . S
H1969 C1984 0.960 . S
H1970 C1984 0.960 . S
H1971 C1984 0.960 . S
C1972 H1964 0.929 . S
C1972 C1973 1.377 . S
C1972 C1974 1.384 . S
C1973 C1972 1.377 . S
C1973 C1979 1.390 . S
C1974 H1965 0.930 . S
C1974 C1972 1.384 . S
C1974 C1975 1.372 . S
C1975 C1974 1.372 . S
C1975 C1976 1.400 . S
C1975 C1980 1.490 . S
C1976 H1966 0.930 . S
C1976 C1975 1.400 . S
C1976 C1979 1.386 . S
H1977 C1993 0.930 . S
H1978 C1994 0.931 . S
C1979 H1967 0.929 . S
C1979 C1973 1.390 . S
C1979 C1976 1.386 . S
C1980 C1975 1.490 . S
C1980 C1982 1.395 . S
C1980 C1983 1.403 . S
H1981 C1987 0.930 . S
C1982 H1968 0.930 . S
C1982 C1980 1.395 . S
C1982 C1985 1.403 . S
C1983 C1980 1.403 . S
C1983 C1984 1.524 . S
C1983 C1987 1.400 . S
C1984 H1969 0.960 . S
C1984 H1970 0.960 . S
C1984 H1971 0.960 . S
C1984 C1983 1.524 . S
C1985 C1982 1.403 . S
C1985 C1986 1.392 . S
C1985 C1989 1.495 . S
C1986 C1985 1.392 . S
C1986 C1987 1.385 . S
C1986 C1988 1.478 . S
C1987 H1981 0.930 . S
C1987 C1983 1.400 . S
C1987 C1986 1.385 . S
C1988 C1986 1.478 . S
C1988 C1990 1.381 . S
C1988 C1994 1.383 . S
C1989 C1985 1.495 . S
C1989 H1995 0.959 . S
C1989 H1996 0.961 . S
C1989 H1997 0.960 . S
C1990 C1988 1.381 . S
C1990 C1991 1.394 . S
C1990 H1998 0.930 . S
C1991 C1990 1.394 . S
C1991 C1992 1.383 . S
C1991 H1999 0.929 . S
C1992 C1991 1.383 . S
C1992 C1993 1.377 . S
C1993 H1977 0.930 . S
C1993 C1992 1.377 . S
C1993 C1994 1.379 . S
C1994 H1978 0.931 . S
C1994 C1988 1.383 . S
C1994 C1993 1.379 . S
H1995 C1989 0.959 . S
H1996 C1989 0.961 . S
H1997 C1989 0.960 . S
H1998 C1990 0.930 . S
H1999 C1991 0.929 . S
H2000 C2008 0.929 . S
H2001 C2010 0.930 . S
H2002 C2012 0.930 . S
H2003 C2015 0.929 . S
H2004 C2018 0.930 . S
H2005 C2020 0.960 . S
H2006 C2020 0.960 . S
H2007 C2020 0.960 . S
C2008 H2000 0.929 . S
C2008 C2009 1.377 . S
C2008 C2010 1.384 . S
C2009 C2008 1.377 . S
C2009 C2015 1.390 . S
C2010 H2001 0.930 . S
C2010 C2008 1.384 . S
C2010 C2011 1.372 . S
C2011 C2010 1.372 . S
C2011 C2012 1.400 . S
C2011 C2016 1.490 . S
C2012 H2002 0.930 . S
C2012 C2011 1.400 . S
C2012 C2015 1.386 . S
H2013 C2029 0.930 1_556 S
H2014 C2030 0.931 . S
C2015 H2003 0.929 . S
C2015 C2009 1.390 . S
C2015 C2012 1.386 . S
C2016 C2011 1.490 . S
C2016 C2018 1.395 . S
C2016 C2019 1.403 . S
H2017 C2023 0.930 . S
C2018 H2004 0.930 . S
C2018 C2016 1.395 . S
C2018 C2021 1.403 . S
C2019 C2016 1.403 . S
C2019 C2020 1.524 . S
C2019 C2023 1.400 . S
C2020 H2005 0.960 . S
C2020 H2006 0.960 . S
C2020 H2007 0.960 . S
C2020 C2019 1.524 . S
C2021 C2018 1.403 . S
C2021 C2022 1.392 . S
C2021 C2025 1.495 1_554 S
C2022 C2021 1.392 . S
C2022 C2023 1.385 . S
C2022 C2024 1.478 . S
C2023 H2017 0.930 . S
C2023 C2019 1.400 . S
C2023 C2022 1.385 . S
C2024 C2022 1.478 . S
C2024 C2026 1.381 . S
C2024 C2030 1.383 . S
C2025 C2021 1.495 1_556 S
C2025 H2031 0.959 . S
C2025 H2032 0.961 . S
C2025 H2033 0.960 . S
C2026 C2024 1.381 . S
C2026 C2027 1.394 . S
C2026 H2034 0.930 . S
C2027 C2026 1.394 . S
C2027 C2028 1.383 . S
C2027 H2035 0.929 . S
C2028 C2027 1.383 . S
C2028 C2029 1.377 . S
C2029 H2013 0.930 1_554 S
C2029 C2028 1.377 . S
C2029 C2030 1.379 . S
C2030 H2014 0.931 . S
C2030 C2024 1.383 . S
C2030 C2029 1.379 . S
H2031 C2025 0.959 . S
H2032 C2025 0.961 . S
H2033 C2025 0.960 . S
H2034 C2026 0.930 . S
H2035 C2027 0.929 . S
H2036 C2044 0.929 . S
H2037 C2046 0.930 . S
H2038 C2048 0.930 . S
H2039 C2051 0.929 . S
H2040 C2054 0.930 . S
H2041 C2056 0.960 . S
H2042 C2056 0.960 1_545 S
H2043 C2056 0.960 . S
C2044 H2036 0.929 . S
C2044 C2045 1.377 . S
C2044 C2046 1.384 . S
C2045 C2044 1.377 . S
C2045 C2051 1.390 . S
C2046 H2037 0.930 . S
C2046 C2044 1.384 . S
C2046 C2047 1.372 1_545 S
C2047 C2046 1.372 1_565 S
C2047 C2048 1.400 . S
C2047 C2052 1.490 . S
C2048 H2038 0.930 . S
C2048 C2047 1.400 . S
C2048 C2051 1.386 1_565 S
H2049 C2065 0.930 . S
H2050 C2066 0.931 . S
C2051 H2039 0.929 . S
C2051 C2045 1.390 . S
C2051 C2048 1.386 1_545 S
C2052 C2047 1.490 . S
C2052 C2054 1.395 . S
C2052 C2055 1.403 . S
H2053 C2059 0.930 . S
C2054 H2040 0.930 . S
C2054 C2052 1.395 . S
C2054 C2057 1.403 . S
C2055 C2052 1.403 . S
C2055 C2056 1.524 . S
C2055 C2059 1.400 . S
C2056 H2041 0.960 . S
C2056 H2042 0.960 1_565 S
C2056 H2043 0.960 . S
C2056 C2055 1.524 . S
C2057 C2054 1.403 . S
C2057 C2058 1.392 . S
C2057 C2061 1.495 . S
C2058 C2057 1.392 . S
C2058 C2059 1.385 . S
C2058 C2060 1.478 . S
C2059 H2053 0.930 . S
C2059 C2055 1.400 . S
C2059 C2058 1.385 . S
C2060 C2058 1.478 . S
C2060 C2062 1.381 . S
C2060 C2066 1.383 . S
C2061 C2057 1.495 . S
C2061 H2067 0.959 . S
C2061 H2068 0.961 . S
C2061 H2069 0.960 . S
C2062 C2060 1.381 . S
C2062 C2063 1.394 . S
C2062 H2070 0.930 . S
C2063 C2062 1.394 . S
C2063 C2064 1.383 . S
C2063 H2071 0.929 . S
C2064 C2063 1.383 . S
C2064 C2065 1.377 . S
C2065 H2049 0.930 . S
C2065 C2064 1.377 . S
C2065 C2066 1.379 . S
C2066 H2050 0.931 . S
C2066 C2060 1.383 . S
C2066 C2065 1.379 . S
H2067 C2061 0.959 . S
H2068 C2061 0.961 . S
H2069 C2061 0.960 . S
H2070 C2062 0.930 . S
H2071 C2063 0.929 . S
C372 C187 1.519 . S
C353 C60 1.546 . S
C408 C195 1.110 . S
C389 C76 1.307 . S
C425 C81 1.651 . S
C444 C215 1.618 . S
C480 C229 1.597 . S
C461 C48 1.620 . S
C516 C244 1.536 . S
C497 C115 1.534 . S
C552 C258 1.621 . S
C533 C136 1.623 . S
C569 C131 1.370 . S
C588 C272 1.362 . S
C624 C278 1.470 . S
C605 C104 1.523 . S
C641 C126 1.526 . S
C660 C292 1.480 . S
C696 C313 1.403 . S
C677 C103 1.437 . S
C713 C120 1.368 . S
C732 C293 1.102 . S
C768 C314 1.405 . S
C749 C142 1.412 . S
C785 C82 1.457 . S
C804 C321 1.254 . S
C821 C54 1.871 . S
C840 C327 1.833 . S
C857 C65 1.391 . S
C876 C320 1.326 . S
C893 C71 1.184 . S
C912 C328 1.185 . S
C929 C37 1.582 . S
C948 C222 1.566 1_565 S
C965 C158 2.041 . S
C984 C223 1.778 . S
C1020 C180 1.374 . S
C1001 C169 1.400 . S
C1056 C201 1.164 . S
C1037 C98 1.157 . S
C1073 C49 1.753 1_545 S
C1092 C236 1.742 . S
C1128 C286 1.422 . S
C1109 C125 1.422 . S
C1164 C237 1.177 . S
C1145 C109 1.300 . S
C1200 C265 1.598 . S
C1181 C137 1.861 . S
C1236 C271 1.523 . S
C1217 C159 1.547 . S
C1253 C175 1.307 . S
C1272 C279 1.161 . S
C1289 C92 1.650 . S
C1308 C243 1.607 . S
C1344 C257 1.580 . S
C1325 C147 1.618 . S
C1361 C38 1.531 . S
C1380 C216 1.531 . S
C1416 C230 1.622 . S
C1397 C4 1.623 . S
C1452 C188 1.373 . S
C1433 C21 1.371 . S
C1488 C194 1.483 . S
C1469 C27 1.523 . S
C1505 C16 1.526 . S
C1524 C306 1.473 . S
C1541 C26 1.438 1_455 S
C1560 C299 1.414 . S
C1577 C43 1.369 . S
C1596 C307 1.214 . S
C1613 C10 1.412 . S
C1632 C300 1.405 . S
C1668 C335 1.257 . S
C1649 C93 1.457 . S
C1704 C341 1.830 . S
C1685 C153 1.871 . S
C1740 C334 1.329 . S
C1721 C164 1.393 . S
C1757 C170 1.180 . S
C1776 C342 1.187 . S
C1793 C114 1.580 . S
C1812 C250 1.538 . S
C1848 C251 1.786 . S
C1829 C59 2.042 . S
C1884 C264 1.382 . S
C1865 C70 1.401 . S
C1920 C285 1.161 . S
C1901 C87 1.163 . S
C1937 C148 1.749 . S
C1956 C208 1.706 . S
C1992 C202 1.428 . S
C1973 C15 1.428 . S
C2009 C32 1.298 . S
C2028 C209 1.102 . S
C2064 C181 1.528 . S
C2045 C5 1.860 . S
