# Generated by pormake.
# Topology anh, (6,3)-cn, num edge types: 1
# Building blocks:
#     Node 0, Type 0, BuildingBlock: BETDEL_clean_sbu_0, # of connection points: 6
#     Node 1, Type 0, BuildingBlock: BETDEL_clean_sbu_0, # of connection points: 6
#     Node 2, Type 0, BuildingBlock: BETDEL_clean_sbu_0, # of connection points: 6
#     Node 3, Type 1, BuildingBlock: BETDAH_clean_linker_0, # of connection points: 3
#     Node 4, Type 1, BuildingBlock: BETDAH_clean_linker_0, # of connection points: 3
#     Node 5, Type 1, BuildingBlock: BETDAH_clean_linker_0, # of connection points: 3
#     Node 6, Type 1, BuildingBlock: BETDAH_clean_linker_0, # of connection points: 3
#     Node 7, Type 1, BuildingBlock: BETDAH_clean_linker_0, # of connection points: 3
#     Node 8, Type 1, BuildingBlock: BETDAH_clean_linker_0, # of connection points: 3
#     Edge 9, Type (0, 1), BuildingBlock: AJUNOK_clean_linker_0, # of connection points: 2
#     Edge 10, Type (0, 1), BuildingBlock: AJUNOK_clean_linker_0, # of connection points: 2
#     Edge 11, Type (0, 1), BuildingBlock: AJUNOK_clean_linker_0, # of connection points: 2
#     Edge 12, Type (0, 1), BuildingBlock: AJUNOK_clean_linker_0, # of connection points: 2
#     Edge 13, Type (0, 1), BuildingBlock: AJUNOK_clean_linker_0, # of connection points: 2
#     Edge 14, Type (0, 1), BuildingBlock: AJUNOK_clean_linker_0, # of connection points: 2
#     Edge 15, Type (0, 1), BuildingBlock: AJUNOK_clean_linker_0, # of connection points: 2
#     Edge 16, Type (0, 1), BuildingBlock: AJUNOK_clean_linker_0, # of connection points: 2
#     Edge 17, Type (0, 1), BuildingBlock: AJUNOK_clean_linker_0, # of connection points: 2
#     Edge 18, Type (0, 1), BuildingBlock: AJUNOK_clean_linker_0, # of connection points: 2
#     Edge 19, Type (0, 1), BuildingBlock: AJUNOK_clean_linker_0, # of connection points: 2
#     Edge 20, Type (0, 1), BuildingBlock: AJUNOK_clean_linker_0, # of connection points: 2
#     Edge 21, Type (0, 1), BuildingBlock: AJUNOK_clean_linker_0, # of connection points: 2
#     Edge 22, Type (0, 1), BuildingBlock: AJUNOK_clean_linker_0, # of connection points: 2
#     Edge 23, Type (0, 1), BuildingBlock: AJUNOK_clean_linker_0, # of connection points: 2
#     Edge 24, Type (0, 1), BuildingBlock: AJUNOK_clean_linker_0, # of connection points: 2
#     Edge 25, Type (0, 1), BuildingBlock: AJUNOK_clean_linker_0, # of connection points: 2
#     Edge 26, Type (0, 1), BuildingBlock: AJUNOK_clean_linker_0, # of connection points: 2
# Relax obj value: 0.111
# Max RMSD: 0.134
# Mean RMSD: 0.100
data_MOF--net-anh--node1-BETDEL_clean_sbu_0--node2-BETDAH_clean_linker_0--edge1-AJUNOK_clean_linker_0
_symmetry_space_group_name_H-M    P1
_symmetry_Int_Tables_number       1
_symmetry_cell_setting            triclinic
loop_
_symmetry_equiv_pos_as_xyz
'x, y, z'
_cell_length_a     22.635931
_cell_length_b     22.837409
_cell_length_c     34.483146
_cell_angle_alpha  91.761599
_cell_angle_beta   92.529883
_cell_angle_gamma 120.14255
loop_
_atom_site_label
_atom_site_type_symbol
_atom_site_fract_x
_atom_site_fract_y
_atom_site_fract_z
_atom_type_partial_charge
Dy0 Dy 0.09077 0.52012 0.16881 0.0
C1 C 0.90906 0.59858 0.17631 0.0
C2 C 0.19752 0.50427 0.15926 0.0
Dy3 Dy 1.0117 0.57862 0.15725 0.0
O4 O 0.14738 0.46618 0.18029 0.0
O5 O 0.18449 0.54424 0.13966 0.0
O6 O 0.11535 0.52468 0.23066 0.0
O7 O 0.04819 0.55981 0.21248 0.0
C8 C 0.07603 0.54688 0.24122 0.0
C9 C 0.03056 0.55089 0.08451 0.0
O10 O 0.11155 0.68015 0.16734 0.0
O11 O 0.17557 0.62846 0.16772 0.0
O12 O 0.95609 0.63599 0.15322 0.0
O13 O 0.92093 0.55328 0.18996 0.0
O14 O 0.99639 0.58057 0.09288 0.0
O15 O 0.05434 0.53817 0.11472 0.0
O16 O 0.99121 0.4181 0.16101 0.0
O17 O 0.92558 0.46838 0.158 0.0
C18 C 0.17215 0.6842 0.16785 0.0
C19 C 0.92994 0.41285 0.15982 0.0
Dy20 Dy 0.44223 1.00783 0.50171 0.0
C21 C 0.69549 0.18276 0.51766 0.0
C22 C 0.31342 0.90234 0.49277 0.0
Dy23 Dy 0.57011 0.07743 0.49818 0.0
O24 O 0.34379 0.93236 0.52596 0.0
O25 O 0.35113 0.9328 0.46471 0.0
O26 O 0.45047 0.05289 0.5615 0.0
O27 O 0.51956 0.0203 0.54679 0.0
C28 C 0.50076 0.04458 0.5735 0.0
C29 C 0.53203 0.04837 0.42336 0.0
O30 O 0.57516 0.98103 0.50467 0.0
O31 O 0.45964 0.91776 0.49737 0.0
O32 O 0.68224 0.1321 0.4937 0.0
O33 O 0.64077 0.17226 0.5337 0.0
O34 O 0.59213 0.066 0.4387 0.0
O35 O 0.49377 0.05408 0.44792 0.0
O36 O 0.43557 0.10506 0.49663 0.0
O37 O 0.55076 0.16521 0.50472 0.0
C38 C 0.51919 0.92033 0.50104 0.0
C39 C 0.49267 0.16525 0.50098 0.0
Dy40 Dy 0.62435 0.59373 0.83823 0.0
C41 C 0.54179 0.3312 0.8427 0.0
C42 C 0.62426 0.70782 0.83047 0.0
Dy43 Dy 0.56205 0.45289 0.8247 0.0
O44 O 0.67211 0.70424 0.8508 0.0
O45 O 0.58319 0.65245 0.81012 0.0
O46 O 0.63721 0.61312 0.90275 0.0
O47 O 0.58973 0.5135 0.87741 0.0
C48 C 0.60603 0.54921 0.90862 0.0
C49 C 0.57777 0.49237 0.75241 0.0
O50 O 0.46086 0.44975 0.83103 0.0
O51 O 0.51311 0.56522 0.84103 0.0
O52 O 0.51343 0.34207 0.8123 0.0
O53 O 0.57533 0.3859 0.86489 0.0
O54 O 0.55771 0.43163 0.76264 0.0
O55 O 0.59553 0.53455 0.78193 0.0
O56 O 0.7257 0.59537 0.83175 0.0
O57 O 0.67291 0.47931 0.82974 0.0
C58 C 0.45683 0.50529 0.83697 0.0
C59 C 0.72983 0.53904 0.83159 0.0
H60 H 0.40078 0.92956 0.24915 0.0
H61 H 0.59816 0.10702 0.24086 0.0
H62 H 0.49605 0.96385 0.14202 0.0
C63 C 0.44363 0.96079 0.23309 0.0
C64 C 0.44102 0.9375 0.19471 0.0
C65 C 0.50014 0.01846 0.25158 0.0
C66 C 0.5547 0.06056 0.22823 0.0
C67 C 0.55375 0.04289 0.18834 0.0
C68 C 0.49663 0.97982 0.172 0.0
N69 N 0.60902 0.08512 0.16415 0.0
C70 C 0.66875 0.15063 0.17167 0.0
H71 H 0.55004 0.42294 0.58187 0.0
H72 H 0.53765 0.60494 0.57705 0.0
H73 H 0.4965 0.47497 0.47301 0.0
C74 C 0.53874 0.45628 0.56539 0.0
C75 C 0.51735 0.438 0.52608 0.0
C76 C 0.54096 0.51266 0.58494 0.0
C77 C 0.53407 0.56036 0.56264 0.0
C78 C 0.5202 0.54865 0.52168 0.0
C79 C 0.50952 0.48578 0.50399 0.0
N80 N 0.51489 0.59669 0.49727 0.0
C81 C 0.52087 0.66069 0.50666 0.0
H82 H 0.96251 0.53597 0.92134 0.0
H83 H 0.14351 0.52133 0.91009 0.0
H84 H 0.0229 0.51588 0.80752 0.0
C85 C 0.99747 0.53095 0.90283 0.0
C86 C 0.98506 0.52693 0.86245 0.0
C87 C 0.05357 0.5284 0.92009 0.0
C88 C 0.10037 0.5231 0.89656 0.0
C89 C 0.09017 0.51831 0.85564 0.0
C90 C 0.03157 0.51961 0.83886 0.0
N91 N 0.13658 0.5119 0.83058 0.0
C92 C 0.19848 0.51203 0.8401 0.0
H93 H 0.13509 0.63739 0.39551 0.0
H94 H 0.96046 0.44992 0.42108 0.0
H95 H 0.08921 0.59305 0.51416 0.0
C96 C 0.10152 0.60488 0.41666 0.0
C97 C 0.11503 0.62528 0.45617 0.0
C98 C 0.04271 0.545 0.40369 0.0
C99 C 1.00429 0.4986 0.43086 0.0
C100 C 0.02502 0.51579 0.47083 0.0
C101 C 0.07888 0.57905 0.48324 0.0
N102 N 0.99036 0.47279 0.49994 0.0
C103 C 0.921 0.43181 0.4962 0.0
H104 H 0.53039 0.12335 0.75389 0.0
H105 H 0.62938 1.0056 0.73841 0.0
H106 H 0.65971 0.11911 0.84569 0.0
C107 C 0.56587 0.10722 0.76327 0.0
C108 C 0.59898 0.13012 0.8003 0.0
C109 C 0.58301 0.06948 0.73813 0.0
C110 C 0.61812 0.03915 0.75519 0.0
C111 C 0.64102 0.05451 0.79486 0.0
C112 C 0.6359 0.10323 0.81636 0.0
N113 N 0.66905 0.02117 0.81439 0.0
C114 C 0.6293 0.95331 0.81934 0.0
H115 H 0.67361 0.52031 0.07089 0.0
H116 H 0.45927 0.45324 0.07322 0.0
H117 H 0.58261 0.4987 0.17992 0.0
C118 C 0.62855 0.50528 0.08693 0.0
C119 C 0.63533 0.5112 0.12758 0.0
C120 C 0.56547 0.48415 0.06685 0.0
C121 C 0.50855 0.46842 0.088 0.0
C122 C 0.51558 0.47178 0.12864 0.0
C123 C 0.5783 0.49334 0.14841 0.0
N124 N 0.45954 0.45417 0.15039 0.0
C125 C 0.43766 0.4995 0.15678 0.0
C126 C 0.3184 0.56187 0.14291 0.0
C127 C 0.26587 0.51446 0.16468 0.0
C128 C 0.38155 0.56489 0.14363 0.0
C129 C 0.39278 0.52218 0.16719 0.0
H130 H 0.30914 0.59299 0.12325 0.0
H131 H 0.41868 0.59571 0.12343 0.0
S132 S 0.27869 0.40264 0.23586 0.0
N133 N 0.23416 0.43397 0.21532 0.0
N134 N 0.35366 0.44089 0.21685 0.0
C135 C 0.34474 0.48243 0.19286 0.0
C136 C 0.28043 0.4781 0.1916 0.0
C137 C 0.77726 0.26378 0.47506 0.0
C138 C 0.74965 0.25078 0.51167 0.0
C139 C 0.82829 0.32839 0.46744 0.0
C140 C 0.85243 0.38058 0.49636 0.0
H141 H 0.76078 0.22361 0.45247 0.0
H142 H 0.85302 0.33594 0.44033 0.0
S143 S 0.78732 0.37734 0.59291 0.0
N144 N 0.74211 0.29816 0.57439 0.0
N145 N 0.83965 0.42084 0.55947 0.0
C146 C 0.82072 0.37071 0.53116 0.0
C147 C 0.76885 0.30487 0.53918 0.0
C148 C 0.68028 0.82712 0.82426 0.0
C149 C 0.6196 0.76767 0.8292 0.0
C150 C 0.68035 0.88676 0.82098 0.0
C151 C 0.62011 0.88862 0.82338 0.0
H152 H 0.72799 0.82732 0.82194 0.0
H153 H 0.72854 0.93208 0.81636 0.0
S154 S 0.44768 0.74672 0.84081 0.0
N155 N 0.49699 0.7124 0.83916 0.0
N156 N 0.49783 0.82824 0.83364 0.0
C157 C 0.5582 0.83002 0.82966 0.0
C158 C 0.55783 0.76798 0.83247 0.0
C159 C 0.82458 0.62077 0.14435 0.0
C160 C 0.84022 0.58822 0.17331 0.0
C161 C 0.75721 0.598 0.13186 0.0
C162 C 0.70343 0.54109 0.14736 0.0
H163 H 0.86457 0.66119 0.12926 0.0
H164 H 0.74737 0.62308 0.10837 0.0
S165 S 0.71713 0.44507 0.2287 0.0
N166 N 0.797 0.50207 0.22118 0.0
N167 N 0.66885 0.45804 0.19684 0.0
C168 C 0.71767 0.51153 0.17883 0.0
C169 C 0.78674 0.53529 0.19191 0.0
C170 C 0.25008 0.78435 0.51267 0.0
C171 C 0.25634 0.83396 0.48738 0.0
C172 C 0.20341 0.71599 0.50288 0.0
C173 C 0.16081 0.69674 0.46834 0.0
H174 H 0.2842 0.79792 0.53862 0.0
H175 H 0.20267 0.67839 0.52159 0.0
S176 S 0.155 0.81019 0.39542 0.0
N177 N 0.2187 0.86046 0.42713 0.0
N178 N 0.12142 0.73423 0.41242 0.0
C179 C 0.16348 0.74719 0.4449 0.0
C180 C 0.21411 0.81538 0.45338 0.0
C181 C 0.60905 0.29534 0.80661 0.0
C182 C 0.56996 0.28762 0.83852 0.0
C183 C 0.62618 0.24681 0.79709 0.0
C184 C 0.60284 0.18943 0.81885 0.0
H185 H 0.62264 0.33662 0.78762 0.0
H186 H 0.65185 0.25073 0.77064 0.0
S187 S 0.52231 0.1615 0.91255 0.0
N188 N 0.52696 0.23187 0.89794 0.0
N189 N 0.55593 0.13648 0.87879 0.0
C190 C 0.57382 0.18708 0.85415 0.0
C191 C 0.55782 0.23771 0.86429 0.0
C192 C 0.46257 0.79275 0.51056 0.0
C193 C 0.52152 0.85472 0.50287 0.0
C194 C 0.46321 0.7309 0.51261 0.0
C195 C 0.52269 0.72718 0.50698 0.0
H196 H 0.41511 0.79183 0.51522 0.0
H197 H 0.41622 0.68529 0.51831 0.0
S198 S 0.68844 0.87176 0.48115 0.0
N199 N 0.6399 0.90596 0.48683 0.0
N200 N 0.64066 0.7908 0.48986 0.0
C201 C 0.58127 0.78809 0.49808 0.0
C202 C 0.58085 0.85124 0.49635 0.0
C203 C 0.79813 0.47706 0.83244 0.0
C204 C 0.79792 0.53927 0.83503 0.0
C205 C 0.85885 0.47351 0.83848 0.0
C206 C 0.92352 0.53202 0.84722 0.0
H207 H 0.75034 0.42972 0.82664 0.0
H208 H 0.85458 0.42407 0.83782 0.0
S209 S 0.95401 0.70741 0.85837 0.0
N210 N 0.87061 0.66104 0.84746 0.0
N211 N 0.98314 0.65405 0.85876 0.0
C212 C 0.92446 0.59436 0.84951 0.0
C213 C 0.86264 0.59814 0.84336 0.0
C214 C 0.26663 0.79789 0.14426 0.0
C215 C 0.23968 0.75027 0.1733 0.0
C216 C 0.33415 0.85601 0.14895 0.0
C217 C 0.37851 0.86768 0.18228 0.0
H218 H 0.23526 0.79048 0.11789 0.0
H219 H 0.35053 0.89314 0.12712 0.0
S220 S 0.33492 0.7529 0.26419 0.0
N221 N 0.26398 0.7182 0.23552 0.0
N222 N 0.39134 0.81871 0.24176 0.0
C223 C 0.3533 0.81609 0.20935 0.0
C224 C 0.28411 0.7603 0.20571 0.0
C225 C 0.43837 0.24373 0.49994 0.0
C226 C 0.49627 0.23492 0.50278 0.0
C227 C 0.44456 0.30954 0.5041 0.0
C228 C 0.50897 0.37029 0.51057 0.0
H229 H 0.38769 0.19945 0.49563 0.0
H230 H 0.3983 0.31251 0.50393 0.0
S231 S 0.67617 0.37857 0.51853 0.0
N232 N 0.62084 0.29673 0.51154 0.0
N233 N 0.63063 0.41632 0.51837 0.0
C234 C 0.56637 0.36209 0.51204 0.0
C235 C 0.56056 0.29613 0.50838 0.0
C236 C 0.34819 0.49499 0.80446 0.0
C237 C 0.38876 0.50283 0.83869 0.0
C238 C 0.28725 0.49852 0.80535 0.0
C239 C 0.26353 0.51003 0.84048 0.0
H240 H 0.36425 0.48711 0.7766 0.0
H241 H 0.25841 0.49225 0.77809 0.0
S242 S 0.35373 0.53978 0.93792 0.0
N243 N 0.40258 0.52735 0.90847 0.0
N244 N 0.28864 0.53268 0.91023 0.0
C245 C 0.30452 0.51953 0.87473 0.0
C246 C 0.36681 0.51646 0.87378 0.0
C247 C 0.82958 0.32773 0.1975 0.0
C248 C 0.86426 0.34465 0.16269 0.0
C249 C 0.76682 0.26544 0.20063 0.0
C250 C 0.73449 0.21691 0.16886 0.0
H251 H 0.85134 0.36307 0.22278 0.0
H252 H 0.7434 0.25545 0.22819 0.0
S253 S 0.79863 0.23936 0.06975 0.0
N254 N 0.8574 0.30864 0.09503 0.0
N255 N 0.74086 0.19389 0.10044 0.0
C256 C 0.76761 0.23441 0.13363 0.0
C257 C 0.83168 0.29733 0.13062 0.0
C258 C 0.99869 0.48222 0.02185 0.0
C259 C 0.04595 0.54046 0.04462 0.0
C260 C 1.00524 0.47642 0.98185 0.0
C261 C 0.05924 0.52871 0.96322 0.0
H262 H 0.95447 0.44237 0.03465 0.0
H263 H 0.96551 0.43231 0.96488 0.0
S264 S 0.20062 0.6886 0.01122 0.0
N265 N 0.15203 0.64881 0.0469 0.0
N266 N 0.1639 0.63843 0.9714 0.0
C267 C 0.10944 0.58536 0.98626 0.0
C268 C 0.10281 0.59114 0.02711 0.0
C269 C 0.57719 0.07012 0.35695 0.0
C270 C 0.5206 0.04354 0.38011 0.0
C271 C 0.56931 0.06272 0.31617 0.0
C272 C 0.50432 0.02965 0.29578 0.0
H273 H 0.62881 0.09617 0.37045 0.0
H274 H 0.61549 0.08163 0.30082 0.0
S275 S 0.33833 0.94603 0.34459 0.0
N276 N 0.39773 0.97769 0.38083 0.0
N277 N 0.3802 0.96897 0.30475 0.0
C278 C 0.44651 1.00274 0.31928 0.0
C279 C 0.45537 1.00871 0.36108 0.0
C280 C 0.59878 0.56677 0.69399 0.0
C281 C 0.5649 0.50342 0.71094 0.0
C282 C 0.58896 0.57188 0.65337 0.0
C283 C 0.54357 0.51408 0.62883 0.0
H284 H 0.63517 0.61173 0.71168 0.0
H285 H 0.61909 0.6204 0.64096 0.0
S286 S 0.43309 0.33957 0.66041 0.0
N287 N 0.47943 0.38362 0.7 0.0
N288 N 0.45603 0.39478 0.6266 0.0
C289 C 0.50472 0.45263 0.64671 0.0
C290 C 0.51685 0.44682 0.68683 0.0
C291 C 0.54082 1.00609 0.6307 0.0
C292 C 0.52564 0.05296 0.61433 0.0
C293 C 0.55973 0.01158 0.67056 0.0
C294 C 0.56708 0.06594 0.69504 0.0
H295 H 0.53515 0.96333 0.61296 0.0
H296 H 0.56663 0.97175 0.68206 0.0
S297 S 0.54919 0.211 0.66174 0.0
N298 N 0.52515 0.15793 0.62312 0.0
N299 N 0.57172 0.17582 0.69597 0.0
C300 C 0.55855 0.11681 0.67721 0.0
C301 C 0.53494 0.10836 0.63743 0.0
C302 C 0.548 0.54108 0.96827 0.0
C303 C 0.58738 0.52236 0.94655 0.0
C304 C 0.53544 0.52298 0.00659 0.0
C305 C 0.56278 0.48628 0.02421 0.0
H306 H 0.52894 0.57205 0.95599 0.0
H307 H 0.50832 0.54187 0.02322 0.0
S308 S 0.66629 0.42232 0.97822 0.0
N309 N 0.65171 0.46362 0.94408 0.0
N310 N 0.62606 0.42692 0.01595 0.0
C311 C 0.59875 0.4637 0.00172 0.0
C312 C 0.61188 0.48265 0.96283 0.0
C313 C 0.03032 0.579 0.29849 0.0
C314 C 0.05362 0.53852 0.28118 0.0
C315 C 0.019 0.57589 0.33838 0.0
C316 C 0.02908 0.5311 0.36143 0.0
H317 H 0.02513 0.61591 0.28192 0.0
H318 H 1.00696 0.61178 0.35188 0.0
S319 S 0.08357 0.41115 0.32906 0.0
N320 N 0.08039 0.44853 0.28954 0.0
N321 N 0.0598 0.44421 0.36395 0.0
C322 C 0.04734 0.48751 0.34374 0.0
C323 C 0.0595 0.49091 0.30368 0.0
loop_
_geom_bond_atom_site_label_1
_geom_bond_atom_site_label_2
_geom_bond_distance
_geom_bond_site_symmetry_2
_ccdc_geom_bond_type
Dy0 O4 2.398 . S
Dy0 O5 2.491 . S
Dy0 O6 2.403 . S
Dy0 O7 2.664 . S
Dy0 O11 2.326 . S
Dy0 O15 2.310 . S
Dy0 O16 2.351 1_455 S
C1 O12 1.185 . S
C1 O13 1.355 . S
C2 O4 1.185 . S
C2 O5 1.355 . S
Dy3 O7 2.310 1_655 S
Dy3 O10 2.351 1_655 S
Dy3 O12 2.398 . S
Dy3 O13 2.491 . S
Dy3 O14 2.403 . S
Dy3 O15 2.664 1_655 S
Dy3 O17 2.326 . S
O4 Dy0 2.398 . S
O4 C2 1.185 . S
O5 Dy0 2.491 . S
O5 C2 1.355 . S
O6 Dy0 2.403 . S
O6 C8 1.254 . S
O7 Dy0 2.664 . S
O7 Dy3 2.310 1_455 S
O7 C8 1.268 . S
C8 O6 1.254 . S
C8 O7 1.268 . S
C9 O14 1.254 1_455 S
C9 O15 1.268 . S
O10 Dy3 2.351 1_455 S
O10 C18 1.249 . S
O11 Dy0 2.326 . S
O11 C18 1.267 . S
O12 C1 1.185 . S
O12 Dy3 2.398 . S
O13 C1 1.355 . S
O13 Dy3 2.491 . S
O14 Dy3 2.403 . S
O14 C9 1.254 1_655 S
O15 Dy0 2.310 . S
O15 Dy3 2.664 1_455 S
O15 C9 1.268 . S
O16 Dy0 2.351 1_655 S
O16 C19 1.249 . S
O17 Dy3 2.326 . S
O17 C19 1.267 . S
C18 O10 1.249 . S
C18 O11 1.267 . S
C19 O16 1.249 . S
C19 O17 1.267 . S
Dy20 O24 2.398 . S
Dy20 O25 2.491 . S
Dy20 O26 2.403 . S
Dy20 O27 2.664 1_565 S
Dy20 O31 2.326 . S
Dy20 O35 2.310 1_565 S
Dy20 O36 2.351 1_565 S
C21 O32 1.185 . S
C21 O33 1.355 . S
C22 O24 1.185 . S
C22 O25 1.355 . S
Dy23 O27 2.310 . S
Dy23 O30 2.351 1_545 S
Dy23 O32 2.398 . S
Dy23 O33 2.491 . S
Dy23 O34 2.403 . S
Dy23 O35 2.664 . S
Dy23 O37 2.326 . S
O24 Dy20 2.398 . S
O24 C22 1.185 . S
O25 Dy20 2.491 . S
O25 C22 1.355 . S
O26 Dy20 2.403 . S
O26 C28 1.254 1_565 S
O27 Dy20 2.664 1_545 S
O27 Dy23 2.310 . S
O27 C28 1.268 . S
C28 O26 1.254 1_545 S
C28 O27 1.268 . S
C29 O34 1.254 . S
C29 O35 1.268 . S
O30 Dy23 2.351 1_565 S
O30 C38 1.249 . S
O31 Dy20 2.326 . S
O31 C38 1.267 . S
O32 C21 1.185 . S
O32 Dy23 2.398 . S
O33 C21 1.355 . S
O33 Dy23 2.491 . S
O34 Dy23 2.403 . S
O34 C29 1.254 . S
O35 Dy20 2.310 1_545 S
O35 Dy23 2.664 . S
O35 C29 1.268 . S
O36 Dy20 2.351 1_545 S
O36 C39 1.249 . S
O37 Dy23 2.326 . S
O37 C39 1.267 . S
C38 O30 1.249 . S
C38 O31 1.267 . S
C39 O36 1.249 . S
C39 O37 1.267 . S
Dy40 O44 2.398 . S
Dy40 O45 2.491 . S
Dy40 O46 2.403 . S
Dy40 O47 2.664 . S
Dy40 O51 2.326 . S
Dy40 O55 2.310 . S
Dy40 O56 2.351 . S
C41 O52 1.185 . S
C41 O53 1.355 . S
C42 O44 1.185 . S
C42 O45 1.355 . S
Dy43 O47 2.310 . S
Dy43 O50 2.351 . S
Dy43 O52 2.398 . S
Dy43 O53 2.491 . S
Dy43 O54 2.403 . S
Dy43 O55 2.664 . S
Dy43 O57 2.326 . S
O44 Dy40 2.398 . S
O44 C42 1.185 . S
O45 Dy40 2.491 . S
O45 C42 1.355 . S
O46 Dy40 2.403 . S
O46 C48 1.254 . S
O47 Dy40 2.664 . S
O47 Dy43 2.310 . S
O47 C48 1.268 . S
C48 O46 1.254 . S
C48 O47 1.268 . S
C49 O54 1.254 . S
C49 O55 1.268 . S
O50 Dy43 2.351 . S
O50 C58 1.249 . S
O51 Dy40 2.326 . S
O51 C58 1.267 . S
O52 C41 1.185 . S
O52 Dy43 2.398 . S
O53 C41 1.355 . S
O53 Dy43 2.491 . S
O54 Dy43 2.403 . S
O54 C49 1.254 . S
O55 Dy40 2.310 . S
O55 Dy43 2.664 . S
O55 C49 1.268 . S
O56 Dy40 2.351 . S
O56 C59 1.249 . S
O57 Dy43 2.326 . S
O57 C59 1.267 . S
C58 O50 1.249 . S
C58 O51 1.267 . S
C59 O56 1.249 . S
C59 O57 1.267 . S
H60 C63 0.929 . S
H61 C66 0.929 . S
H62 C68 0.930 . S
C63 H60 0.929 . S
C63 C64 1.398 . S
C63 C65 1.396 1_565 S
C64 C63 1.398 . S
C64 C68 1.407 . S
C65 C63 1.396 1_545 S
C65 C66 1.394 . S
C66 H61 0.929 . S
C66 C65 1.394 . S
C66 C67 1.382 . S
C67 C66 1.382 . S
C67 C68 1.392 1_545 S
C67 N69 1.420 . S
C68 H62 0.930 . S
C68 C64 1.407 . S
C68 C67 1.392 1_565 S
N69 C67 1.420 . S
N69 C70 1.244 . S
C70 N69 1.244 . S
H71 C74 0.929 . S
H72 C77 0.929 . S
H73 C79 0.930 . S
C74 H71 0.929 . S
C74 C75 1.398 . S
C74 C76 1.396 . S
C75 C74 1.398 . S
C75 C79 1.407 . S
C76 C74 1.396 . S
C76 C77 1.394 . S
C77 H72 0.929 . S
C77 C76 1.394 . S
C77 C78 1.382 . S
C78 C77 1.382 . S
C78 C79 1.392 . S
C78 N80 1.420 . S
C79 H73 0.930 . S
C79 C75 1.407 . S
C79 C78 1.392 . S
N80 C78 1.420 . S
N80 C81 1.244 . S
C81 N80 1.244 . S
H82 C85 0.929 . S
H83 C88 0.929 . S
H84 C90 0.930 . S
C85 H82 0.929 . S
C85 C86 1.398 . S
C85 C87 1.396 1_655 S
C86 C85 1.398 . S
C86 C90 1.407 1_655 S
C87 C85 1.396 1_455 S
C87 C88 1.394 . S
C88 H83 0.929 . S
C88 C87 1.394 . S
C88 C89 1.382 . S
C89 C88 1.382 . S
C89 C90 1.392 . S
C89 N91 1.420 . S
C90 H84 0.930 . S
C90 C86 1.407 1_455 S
C90 C89 1.392 . S
N91 C89 1.420 . S
N91 C92 1.244 . S
C92 N91 1.244 . S
H93 C96 0.929 . S
H94 C99 0.929 . S
H95 C101 0.930 . S
C96 H93 0.929 . S
C96 C97 1.398 . S
C96 C98 1.396 . S
C97 C96 1.398 . S
C97 C101 1.407 . S
C98 C96 1.396 . S
C98 C99 1.394 1_455 S
C99 H94 0.929 . S
C99 C98 1.394 1_655 S
C99 C100 1.382 . S
C100 C99 1.382 . S
C100 C101 1.392 1_655 S
C100 N102 1.420 . S
C101 H95 0.930 . S
C101 C97 1.407 . S
C101 C100 1.392 1_455 S
N102 C100 1.420 . S
N102 C103 1.244 . S
C103 N102 1.244 . S
H104 C107 0.929 . S
H105 C110 0.929 1_565 S
H106 C112 0.930 . S
C107 H104 0.929 . S
C107 C108 1.398 . S
C107 C109 1.396 . S
C108 C107 1.398 . S
C108 C112 1.407 . S
C109 C107 1.396 . S
C109 C110 1.394 . S
C110 H105 0.929 1_545 S
C110 C109 1.394 . S
C110 C111 1.382 . S
C111 C110 1.382 . S
C111 C112 1.392 . S
C111 N113 1.420 1_545 S
C112 H106 0.930 . S
C112 C108 1.407 . S
C112 C111 1.392 . S
N113 C111 1.420 1_565 S
N113 C114 1.244 . S
C114 N113 1.244 . S
H115 C118 0.929 . S
H116 C121 0.929 . S
H117 C123 0.930 . S
C118 H115 0.929 . S
C118 C119 1.398 . S
C118 C120 1.396 . S
C119 C118 1.398 . S
C119 C123 1.407 . S
C120 C118 1.396 . S
C120 C121 1.394 . S
C121 H116 0.929 . S
C121 C120 1.394 . S
C121 C122 1.382 . S
C122 C121 1.382 . S
C122 C123 1.392 . S
C122 N124 1.420 . S
C123 H117 0.930 . S
C123 C119 1.407 . S
C123 C122 1.392 . S
N124 C122 1.420 . S
N124 C125 1.244 . S
C125 N124 1.244 . S
C126 C127 1.369 . S
C126 C128 1.419 . S
C126 H130 0.930 . S
C127 C126 1.369 . S
C127 C136 1.429 . S
C128 C126 1.419 . S
C128 C129 1.363 . S
C128 H131 0.929 . S
C129 C128 1.363 . S
C129 C135 1.428 . S
H130 C126 0.930 . S
H131 C128 0.929 . S
S132 N133 1.613 . S
S132 N134 1.610 . S
N133 S132 1.613 . S
N133 C136 1.350 . S
N134 S132 1.610 . S
N134 C135 1.351 . S
C135 C129 1.428 . S
C135 N134 1.351 . S
C135 C136 1.434 . S
C136 C127 1.429 . S
C136 N133 1.350 . S
C136 C135 1.434 . S
C137 C138 1.369 . S
C137 C139 1.419 . S
C137 H141 0.930 . S
C138 C137 1.369 . S
C138 C147 1.429 . S
C139 C137 1.419 . S
C139 C140 1.363 . S
C139 H142 0.929 . S
C140 C139 1.363 . S
C140 C146 1.428 . S
H141 C137 0.930 . S
H142 C139 0.929 . S
S143 N144 1.613 . S
S143 N145 1.610 . S
N144 S143 1.613 . S
N144 C147 1.350 . S
N145 S143 1.610 . S
N145 C146 1.351 . S
C146 C140 1.428 . S
C146 N145 1.351 . S
C146 C147 1.434 . S
C147 C138 1.429 . S
C147 N144 1.350 . S
C147 C146 1.434 . S
C148 C149 1.369 . S
C148 C150 1.419 . S
C148 H152 0.930 . S
C149 C148 1.369 . S
C149 C158 1.429 . S
C150 C148 1.419 . S
C150 C151 1.363 . S
C150 H153 0.929 . S
C151 C150 1.363 . S
C151 C157 1.428 . S
H152 C148 0.930 . S
H153 C150 0.929 . S
S154 N155 1.613 . S
S154 N156 1.610 . S
N155 S154 1.613 . S
N155 C158 1.350 . S
N156 S154 1.610 . S
N156 C157 1.351 . S
C157 C151 1.428 . S
C157 N156 1.351 . S
C157 C158 1.434 . S
C158 C149 1.429 . S
C158 N155 1.350 . S
C158 C157 1.434 . S
C159 C160 1.369 . S
C159 C161 1.419 . S
C159 H163 0.930 . S
C160 C159 1.369 . S
C160 C169 1.429 . S
C161 C159 1.419 . S
C161 C162 1.363 . S
C161 H164 0.929 . S
C162 C161 1.363 . S
C162 C168 1.428 . S
H163 C159 0.930 . S
H164 C161 0.929 . S
S165 N166 1.613 . S
S165 N167 1.610 . S
N166 S165 1.613 . S
N166 C169 1.350 . S
N167 S165 1.610 . S
N167 C168 1.351 . S
C168 C162 1.428 . S
C168 N167 1.351 . S
C168 C169 1.434 . S
C169 C160 1.429 . S
C169 N166 1.350 . S
C169 C168 1.434 . S
C170 C171 1.369 . S
C170 C172 1.419 . S
C170 H174 0.930 . S
C171 C170 1.369 . S
C171 C180 1.429 . S
C172 C170 1.419 . S
C172 C173 1.363 . S
C172 H175 0.929 . S
C173 C172 1.363 . S
C173 C179 1.428 . S
H174 C170 0.930 . S
H175 C172 0.929 . S
S176 N177 1.613 . S
S176 N178 1.610 . S
N177 S176 1.613 . S
N177 C180 1.350 . S
N178 S176 1.610 . S
N178 C179 1.351 . S
C179 C173 1.428 . S
C179 N178 1.351 . S
C179 C180 1.434 . S
C180 C171 1.429 . S
C180 N177 1.350 . S
C180 C179 1.434 . S
C181 C182 1.369 . S
C181 C183 1.419 . S
C181 H185 0.930 . S
C182 C181 1.369 . S
C182 C191 1.429 . S
C183 C181 1.419 . S
C183 C184 1.363 . S
C183 H186 0.929 . S
C184 C183 1.363 . S
C184 C190 1.428 . S
H185 C181 0.930 . S
H186 C183 0.929 . S
S187 N188 1.613 . S
S187 N189 1.610 . S
N188 S187 1.613 . S
N188 C191 1.350 . S
N189 S187 1.610 . S
N189 C190 1.351 . S
C190 C184 1.428 . S
C190 N189 1.351 . S
C190 C191 1.434 . S
C191 C182 1.429 . S
C191 N188 1.350 . S
C191 C190 1.434 . S
C192 C193 1.369 . S
C192 C194 1.419 . S
C192 H196 0.930 . S
C193 C192 1.369 . S
C193 C202 1.429 . S
C194 C192 1.419 . S
C194 C195 1.363 . S
C194 H197 0.929 . S
C195 C194 1.363 . S
C195 C201 1.428 . S
H196 C192 0.930 . S
H197 C194 0.929 . S
S198 N199 1.613 . S
S198 N200 1.610 . S
N199 S198 1.613 . S
N199 C202 1.350 . S
N200 S198 1.610 . S
N200 C201 1.351 . S
C201 C195 1.428 . S
C201 N200 1.351 . S
C201 C202 1.434 . S
C202 C193 1.429 . S
C202 N199 1.350 . S
C202 C201 1.434 . S
C203 C204 1.369 . S
C203 C205 1.419 . S
C203 H207 0.930 . S
C204 C203 1.369 . S
C204 C213 1.429 . S
C205 C203 1.419 . S
C205 C206 1.363 . S
C205 H208 0.929 . S
C206 C205 1.363 . S
C206 C212 1.428 . S
H207 C203 0.930 . S
H208 C205 0.929 . S
S209 N210 1.613 . S
S209 N211 1.610 . S
N210 S209 1.613 . S
N210 C213 1.350 . S
N211 S209 1.610 . S
N211 C212 1.351 . S
C212 C206 1.428 . S
C212 N211 1.351 . S
C212 C213 1.434 . S
C213 C204 1.429 . S
C213 N210 1.350 . S
C213 C212 1.434 . S
C214 C215 1.369 . S
C214 C216 1.419 . S
C214 H218 0.930 . S
C215 C214 1.369 . S
C215 C224 1.429 . S
C216 C214 1.419 . S
C216 C217 1.363 . S
C216 H219 0.929 . S
C217 C216 1.363 . S
C217 C223 1.428 . S
H218 C214 0.930 . S
H219 C216 0.929 . S
S220 N221 1.613 . S
S220 N222 1.610 . S
N221 S220 1.613 . S
N221 C224 1.350 . S
N222 S220 1.610 . S
N222 C223 1.351 . S
C223 C217 1.428 . S
C223 N222 1.351 . S
C223 C224 1.434 . S
C224 C215 1.429 . S
C224 N221 1.350 . S
C224 C223 1.434 . S
C225 C226 1.369 . S
C225 C227 1.419 . S
C225 H229 0.930 . S
C226 C225 1.369 . S
C226 C235 1.429 . S
C227 C225 1.419 . S
C227 C228 1.363 . S
C227 H230 0.929 . S
C228 C227 1.363 . S
C228 C234 1.428 . S
H229 C225 0.930 . S
H230 C227 0.929 . S
S231 N232 1.613 . S
S231 N233 1.610 . S
N232 S231 1.613 . S
N232 C235 1.350 . S
N233 S231 1.610 . S
N233 C234 1.351 . S
C234 C228 1.428 . S
C234 N233 1.351 . S
C234 C235 1.434 . S
C235 C226 1.429 . S
C235 N232 1.350 . S
C235 C234 1.434 . S
C236 C237 1.369 . S
C236 C238 1.419 . S
C236 H240 0.930 . S
C237 C236 1.369 . S
C237 C246 1.429 . S
C238 C236 1.419 . S
C238 C239 1.363 . S
C238 H241 0.929 . S
C239 C238 1.363 . S
C239 C245 1.428 . S
H240 C236 0.930 . S
H241 C238 0.929 . S
S242 N243 1.613 . S
S242 N244 1.610 . S
N243 S242 1.613 . S
N243 C246 1.350 . S
N244 S242 1.610 . S
N244 C245 1.351 . S
C245 C239 1.428 . S
C245 N244 1.351 . S
C245 C246 1.434 . S
C246 C237 1.429 . S
C246 N243 1.350 . S
C246 C245 1.434 . S
C247 C248 1.369 . S
C247 C249 1.419 . S
C247 H251 0.930 . S
C248 C247 1.369 . S
C248 C257 1.429 . S
C249 C247 1.419 . S
C249 C250 1.363 . S
C249 H252 0.929 . S
C250 C249 1.363 . S
C250 C256 1.428 . S
H251 C247 0.930 . S
H252 C249 0.929 . S
S253 N254 1.613 . S
S253 N255 1.610 . S
N254 S253 1.613 . S
N254 C257 1.350 . S
N255 S253 1.610 . S
N255 C256 1.351 . S
C256 C250 1.428 . S
C256 N255 1.351 . S
C256 C257 1.434 . S
C257 C248 1.429 . S
C257 N254 1.350 . S
C257 C256 1.434 . S
C258 C259 1.369 1_655 S
C258 C260 1.419 1_554 S
C258 H262 0.930 . S
C259 C258 1.369 1_455 S
C259 C268 1.429 . S
C260 C258 1.419 1_556 S
C260 C261 1.363 1_655 S
C260 H263 0.929 . S
C261 C260 1.363 1_455 S
C261 C267 1.428 . S
H262 C258 0.930 . S
H263 C260 0.929 . S
S264 N265 1.613 . S
S264 N266 1.610 1_554 S
N265 S264 1.613 . S
N265 C268 1.350 . S
N266 S264 1.610 1_556 S
N266 C267 1.351 . S
C267 C261 1.428 . S
C267 N266 1.351 . S
C267 C268 1.434 1_556 S
C268 C259 1.429 . S
C268 N265 1.350 . S
C268 C267 1.434 1_554 S
C269 C270 1.369 . S
C269 C271 1.419 . S
C269 H273 0.930 . S
C270 C269 1.369 . S
C270 C279 1.429 1_545 S
C271 C269 1.419 . S
C271 C272 1.363 . S
C271 H274 0.929 . S
C272 C271 1.363 . S
C272 C278 1.428 1_545 S
H273 C269 0.930 . S
H274 C271 0.929 . S
S275 N276 1.613 . S
S275 N277 1.610 . S
N276 S275 1.613 . S
N276 C279 1.350 . S
N277 S275 1.610 . S
N277 C278 1.351 . S
C278 C272 1.428 1_565 S
C278 N277 1.351 . S
C278 C279 1.434 . S
C279 C270 1.429 1_565 S
C279 N276 1.350 . S
C279 C278 1.434 . S
C280 C281 1.369 . S
C280 C282 1.419 . S
C280 H284 0.930 . S
C281 C280 1.369 . S
C281 C290 1.429 . S
C282 C280 1.419 . S
C282 C283 1.363 . S
C282 H285 0.929 . S
C283 C282 1.363 . S
C283 C289 1.428 . S
H284 C280 0.930 . S
H285 C282 0.929 . S
S286 N287 1.613 . S
S286 N288 1.610 . S
N287 S286 1.613 . S
N287 C290 1.350 . S
N288 S286 1.610 . S
N288 C289 1.351 . S
C289 C283 1.428 . S
C289 N288 1.351 . S
C289 C290 1.434 . S
C290 C281 1.429 . S
C290 N287 1.350 . S
C290 C289 1.434 . S
C291 C292 1.369 . S
C291 C293 1.419 . S
C291 H295 0.930 1_545 S
C292 C291 1.369 . S
C292 C301 1.429 . S
C293 C291 1.419 . S
C293 C294 1.363 . S
C293 H296 0.929 1_545 S
C294 C293 1.363 . S
C294 C300 1.428 . S
H295 C291 0.930 1_565 S
H296 C293 0.929 1_565 S
S297 N298 1.613 . S
S297 N299 1.610 . S
N298 S297 1.613 . S
N298 C301 1.350 . S
N299 S297 1.610 . S
N299 C300 1.351 . S
C300 C294 1.428 . S
C300 N299 1.351 . S
C300 C301 1.434 . S
C301 C292 1.429 . S
C301 N298 1.350 . S
C301 C300 1.434 . S
C302 C303 1.369 . S
C302 C304 1.419 1_556 S
C302 H306 0.930 . S
C303 C302 1.369 . S
C303 C312 1.429 . S
C304 C302 1.419 1_554 S
C304 C305 1.363 . S
C304 H307 0.929 . S
C305 C304 1.363 . S
C305 C311 1.428 . S
H306 C302 0.930 . S
H307 C304 0.929 . S
S308 N309 1.613 1_554 S
S308 N310 1.610 . S
N309 S308 1.613 1_556 S
N309 C312 1.350 . S
N310 S308 1.610 . S
N310 C311 1.351 . S
C311 C305 1.428 . S
C311 N310 1.351 . S
C311 C312 1.434 1_554 S
C312 C303 1.429 . S
C312 N309 1.350 . S
C312 C311 1.434 1_556 S
C313 C314 1.369 . S
C313 C315 1.419 . S
C313 H317 0.930 1_455 S
C314 C313 1.369 . S
C314 C323 1.429 . S
C315 C313 1.419 . S
C315 C316 1.363 . S
C315 H318 0.929 1_455 S
C316 C315 1.363 . S
C316 C322 1.428 . S
H317 C313 0.930 1_655 S
H318 C315 0.929 1_655 S
S319 N320 1.613 . S
S319 N321 1.610 . S
N320 S319 1.613 . S
N320 C323 1.350 . S
N321 S319 1.610 . S
N321 C322 1.351 . S
C322 C316 1.428 . S
C322 N321 1.351 . S
C322 C323 1.434 . S
C323 C314 1.429 . S
C323 N320 1.350 . S
C323 C322 1.434 . S
C127 C2 1.158 . S
C129 C125 1.160 . S
C138 C21 1.097 . S
C140 C103 1.100 . S
C149 C42 1.143 . S
C151 C114 1.125 . S
C160 C1 0.988 . S
C162 C119 0.984 . S
C173 C97 1.014 . S
C171 C22 1.024 . S
C184 C108 0.980 . S
C182 C41 0.978 . S
C193 C38 1.958 . S
C195 C81 1.913 . S
C204 C59 1.902 . S
C206 C86 1.866 . S
C215 C18 1.845 . S
C217 C64 1.816 . S
C228 C75 1.861 . S
C226 C39 1.900 . S
C239 C92 1.896 . S
C237 C58 1.947 . S
C248 C19 2.015 . S
C250 C70 1.955 . S
C261 C87 1.573 . S
C259 C9 1.540 . S
C270 C29 1.525 . S
C272 C65 1.618 . S
C281 C49 1.540 . S
C283 C76 1.590 . S
C294 C109 1.485 . S
C292 C28 1.479 . S
C305 C120 1.462 . S
C303 C48 1.438 . S
C314 C8 1.386 . S
C316 C98 1.439 . S
