# Generated by pormake.
# Topology pth, (4,4)-cn, num edge types: 1
# Building blocks:
#     Node 0, Type 0, BuildingBlock: TATPOV_clean_sbu_0, # of connection points: 4
#     Node 1, Type 0, BuildingBlock: TATPOV_clean_sbu_0, # of connection points: 4
#     Node 2, Type 0, BuildingBlock: TATPOV_clean_sbu_0, # of connection points: 4
#     Node 3, Type 1, BuildingBlock: MUDLON_clean_linker_0, # of connection points: 4
#     Node 4, Type 1, BuildingBlock: MUDLON_clean_linker_0, # of connection points: 4
#     Node 5, Type 1, BuildingBlock: MUDLON_clean_linker_0, # of connection points: 4
#     Edge 6, Type (0, 1), BuildingBlock: XIVTED_clean_linker_0, # of connection points: 2
#     Edge 7, Type (0, 1), BuildingBlock: XIVTED_clean_linker_0, # of connection points: 2
#     Edge 8, Type (0, 1), BuildingBlock: XIVTED_clean_linker_0, # of connection points: 2
#     Edge 9, Type (0, 1), BuildingBlock: XIVTED_clean_linker_0, # of connection points: 2
#     Edge 10, Type (0, 1), BuildingBlock: XIVTED_clean_linker_0, # of connection points: 2
#     Edge 11, Type (0, 1), BuildingBlock: XIVTED_clean_linker_0, # of connection points: 2
#     Edge 12, Type (0, 1), BuildingBlock: XIVTED_clean_linker_0, # of connection points: 2
#     Edge 13, Type (0, 1), BuildingBlock: XIVTED_clean_linker_0, # of connection points: 2
#     Edge 14, Type (0, 1), BuildingBlock: XIVTED_clean_linker_0, # of connection points: 2
#     Edge 15, Type (0, 1), BuildingBlock: XIVTED_clean_linker_0, # of connection points: 2
#     Edge 16, Type (0, 1), BuildingBlock: XIVTED_clean_linker_0, # of connection points: 2
#     Edge 17, Type (0, 1), BuildingBlock: XIVTED_clean_linker_0, # of connection points: 2
# Relax obj value: 0.054
# Max RMSD: 0.166
# Mean RMSD: 0.112
data_MOF--net-pth--node1-TATPOV_clean_sbu_0--node2-MUDLON_clean_linker_0--edge1-XIVTED_clean_linker_0
_symmetry_space_group_name_H-M    P1
_symmetry_Int_Tables_number       1
_symmetry_cell_setting            triclinic
loop_
_symmetry_equiv_pos_as_xyz
'x, y, z'
_cell_length_a     33.863117
_cell_length_b     33.565286
_cell_length_c     66.400222
_cell_angle_alpha  92.492633
_cell_angle_beta   92.303397
_cell_angle_gamma 120.91841
loop_
_atom_site_label
_atom_site_type_symbol
_atom_site_fract_x
_atom_site_fract_y
_atom_site_fract_z
_atom_type_partial_charge
Zn0 Zn 0.11245 0.00518 0.02778 0.0
Zn1 Zn 0.05908 0.03544 0.04355 0.0
O2 O 0.06945 0.00087 0.06617 0.0
O3 O 0.11356 0.97672 0.05382 0.0
O4 O 0.02663 0.06546 0.05644 0.0
O5 O 0.16163 0.07069 0.02235 0.0
O6 O 0.11559 0.09304 0.03389 0.0
C7 C 0.09085 0.97903 0.06806 0.0
C8 C 0.02025 0.96513 0.00721 0.0
O9 O 0.01457 0.99007 0.02044 0.0
O10 O 0.05837 0.96645 0.00712 0.0
C11 C 0.00669 0.05384 0.07282 0.0
O12 O 0.00336 0.01788 0.08147 0.0
C13 C 0.15296 0.10261 0.0261 0.0
Zn14 Zn 0.13495 0.09236 0.34492 0.0
Zn15 Zn 0.07205 0.08046 0.37107 0.0
O16 O 0.13206 0.1039 0.3891 0.0
O17 O 0.18494 0.11871 0.36759 0.0
O18 O 0.02617 0.07456 0.39089 0.0
O19 O 0.11922 0.1333 0.32928 0.0
O20 O 0.07115 0.12677 0.35207 0.0
C21 C 0.17387 0.11812 0.38561 0.0
C22 C 0.0606 0.99681 0.34541 0.0
O23 O 0.04441 0.01383 0.35783 0.0
O24 O 0.09908 0.02292 0.33826 0.0
C25 C 0.98335 0.05379 0.38547 0.0
O26 O 0.96915 0.03512 0.36685 0.0
C27 C 0.09068 0.14339 0.33596 0.0
Zn28 Zn 0.08555 0.94755 0.73213 0.0
Zn29 Zn 0.0423 0.97929 0.70871 0.0
O30 O 0.08867 0.97628 0.69058 0.0
O31 O 0.12656 0.95324 0.70978 0.0
O32 O 0.00505 0.99408 0.68938 0.0
O33 O 0.02561 0.88743 0.73508 0.0
O34 O 0.99117 0.91859 0.71907 0.0
C35 C 0.12018 0.96647 0.69303 0.0
C36 C 0.09558 0.03606 0.74727 0.0
O37 O 0.0733 0.03293 0.73076 0.0
O38 O 0.10346 0.00409 0.75135 0.0
C39 C 0.9873 0.01852 0.69367 0.0
O40 O 0.99501 0.03884 0.71195 0.0
C41 C 0.98894 0.88554 0.72865 0.0
H42 H 0.86144 0.67739 0.21714 0.0
N43 N 0.90182 0.62942 0.20739 0.0
H44 H 0.87246 0.72194 0.24892 0.0
H45 H 0.93326 0.61568 0.24469 0.0
H46 H 0.94236 0.65834 0.27638 0.0
H47 H 0.98072 0.71431 0.21741 0.0
H48 H 0.01962 0.77793 0.19541 0.0
H49 H 0.87964 0.6302 0.16846 0.0
H50 H 0.91955 0.69374 0.14617 0.0
H51 H 0.84862 0.53885 0.19616 0.0
H52 H 0.98914 0.64523 0.21453 0.0
H53 H 0.87253 0.48152 0.19167 0.0
H54 H 0.01301 0.58851 0.21081 0.0
H55 H 0.94163 0.32092 0.20833 0.0
H56 H 0.94452 0.27695 0.23609 0.0
H57 H 0.07787 0.39357 0.25793 0.0
H58 H 0.07515 0.43737 0.22979 0.0
H59 H 0.07875 0.39405 0.18426 0.0
H60 H 0.06945 0.33361 0.15917 0.0
H61 H 0.92604 0.28972 0.14743 0.0
H62 H 0.93518 0.34968 0.17294 0.0
H63 H 0.92662 0.38465 0.20845 0.0
H64 H 0.89879 0.43874 0.20992 0.0
H65 H 0.02498 0.54369 0.18619 0.0
N66 N 0.01274 0.40493 0.1984 0.0
H67 H 0.0534 0.48991 0.1858 0.0
C68 C 0.89874 0.64508 0.22777 0.0
C69 C 0.87852 0.67244 0.2301 0.0
C70 C 0.88457 0.69772 0.24841 0.0
C71 C 0.90984 0.69507 0.26509 0.0
C72 C 0.92453 0.66282 0.26358 0.0
C73 C 0.91933 0.63827 0.24517 0.0
C74 C 0.92654 0.66747 0.19463 0.0
C75 C 0.96681 0.70944 0.20193 0.0
C76 C 0.98908 0.74586 0.18938 0.0
C77 C 0.97239 0.74071 0.16918 0.0
C78 C 0.93309 0.69845 0.16171 0.0
C79 C 0.91024 0.66231 0.17438 0.0
C80 C 0.91684 0.5962 0.20567 0.0
C81 C 0.88451 0.54968 0.19936 0.0
C82 C 0.89826 0.51703 0.19688 0.0
C83 C 0.9448 0.53037 0.20076 0.0
C84 C 0.9771 0.57709 0.20721 0.0
C85 C 0.96343 0.60967 0.20947 0.0
C86 C 0.00865 0.38237 0.21685 0.0
C87 C 0.97101 0.33757 0.21931 0.0
C88 C 0.97268 0.3124 0.23517 0.0
C89 C 0.0116 0.33177 0.24899 0.0
C90 C 0.04737 0.37796 0.24753 0.0
C91 C 0.04592 0.40295 0.2315 0.0
C92 C 0.00792 0.37655 0.18046 0.0
C93 C 0.04567 0.3723 0.17585 0.0
C94 C 0.04025 0.3377 0.16167 0.0
C95 C 0.99699 0.30707 0.15156 0.0
C96 C 0.95976 0.31321 0.15502 0.0
C97 C 0.96503 0.34753 0.16952 0.0
C98 C 0.99268 0.4337 0.19736 0.0
C99 C 0.94831 0.41923 0.20356 0.0
C100 C 0.93222 0.45019 0.20422 0.0
C101 C 0.9599 0.49593 0.19847 0.0
C102 C 0.00321 0.50923 0.19127 0.0
C103 C 0.01939 0.47847 0.19084 0.0
H104 H 0.7648 0.0883 0.55402 0.0
N105 N 0.68329 0.01316 0.53751 0.0
H106 H 0.81148 0.08926 0.58312 0.0
H107 H 0.66168 0.94574 0.56215 0.0
H108 H 0.70866 0.94638 0.59143 0.0
H109 H 0.68384 0.94762 0.51402 0.0
H110 H 0.73147 0.95816 0.48564 0.0
H111 H 0.73878 0.09553 0.52082 0.0
H112 H 0.78682 0.10656 0.49251 0.0
H113 H 0.70016 0.09672 0.55538 0.0
H114 H 0.59763 0.9708 0.52097 0.0
H115 H 0.64529 0.12253 0.55744 0.0
H116 H 0.54298 0.99771 0.52182 0.0
H117 H 0.46853 0.14895 0.58787 0.0
H118 H 0.41022 0.11497 0.61267 0.0
H119 H 0.31475 0.01074 0.56672 0.0
H120 H 0.3729 0.04447 0.54218 0.0
H121 H 0.4295 0.07016 0.51239 0.0
H122 H 0.38956 0.0808 0.48364 0.0
H123 H 0.40447 0.20347 0.51528 0.0
H124 H 0.44505 0.1929 0.54406 0.0
H125 H 0.54897 0.17583 0.5443 0.0
H126 H 0.60481 0.15113 0.53998 0.0
H127 H 0.49601 0.00787 0.54353 0.0
N128 N 0.45916 0.12289 0.54869 0.0
H129 H 0.44051 0.03255 0.5465 0.0
C130 C 0.70937 0.0168 0.55593 0.0
C131 C 0.75166 0.05742 0.56227 0.0
C132 C 0.77841 0.058 0.57899 0.0
C133 C 0.76379 0.01787 0.58952 0.0
C134 C 0.72096 0.97772 0.5835 0.0
C135 C 0.694 0.97734 0.5669 0.0
C136 C 0.70792 0.02061 0.51954 0.0
C137 C 0.70571 0.98226 0.50914 0.0
C138 C 0.73283 0.98839 0.49293 0.0
C139 C 0.76305 0.03324 0.48691 0.0
C140 C 0.76424 0.07165 0.49697 0.0
C141 C 0.73672 0.0654 0.5131 0.0
C142 C 0.65269 0.03109 0.53832 0.0
C143 C 0.66594 0.07458 0.54815 0.0
C144 C 0.63445 0.08968 0.54911 0.0
C145 C 0.58934 0.06216 0.53992 0.0
C146 C 0.57689 0.01941 0.52952 0.0
C147 C 0.60816 0.00406 0.52886 0.0
C148 C 0.42514 0.09979 0.56317 0.0
C149 C 0.43516 0.11851 0.58326 0.0
C150 C 0.40192 0.09899 0.59737 0.0
C151 C 0.35783 0.06042 0.59156 0.0
C152 C 0.34819 0.04087 0.57154 0.0
C153 C 0.38152 0.06015 0.55751 0.0
C154 C 0.44077 0.13117 0.5304 0.0
C155 C 0.42532 0.10002 0.51302 0.0
C156 C 0.40236 0.10609 0.49657 0.0
C157 C 0.39381 0.1429 0.49727 0.0
C158 C 0.4103 0.17461 0.51441 0.0
C159 C 0.43372 0.16885 0.53075 0.0
C160 C 0.49073 0.10646 0.54605 0.0
C161 C 0.53733 0.13912 0.54405 0.0
C162 C 0.56921 0.12487 0.54173 0.0
C163 C 0.55518 0.07743 0.54156 0.0
C164 C 0.50819 0.04463 0.54331 0.0
C165 C 0.47626 0.05886 0.54531 0.0
H166 H 0.69518 0.71884 0.86946 0.0
N167 N 0.67105 0.62771 0.86344 0.0
H168 H 0.75063 0.77566 0.89578 0.0
H169 H 0.71119 0.61122 0.89448 0.0
H170 H 0.76633 0.66771 0.92109 0.0
H171 H 0.73533 0.61704 0.84713 0.0
H172 H 0.77409 0.64942 0.81672 0.0
H173 H 0.64687 0.67215 0.8364 0.0
H174 H 0.68375 0.70289 0.80518 0.0
H175 H 0.61834 0.65688 0.88287 0.0
H176 H 0.61117 0.54414 0.84582 0.0
H177 H 0.5364 0.61016 0.88695 0.0
H178 H 0.52804 0.4983 0.84848 0.0
H179 H 0.25951 0.40298 0.90669 0.0
H180 H 0.24035 0.36364 0.93793 0.0
H181 H 0.38115 0.39656 0.94791 0.0
H182 H 0.39987 0.43421 0.91673 0.0
H183 H 0.32548 0.34621 0.88708 0.0
H184 H 0.27852 0.28119 0.86244 0.0
H185 H 0.23596 0.36486 0.83119 0.0
H186 H 0.28502 0.43103 0.85577 0.0
H187 H 0.38039 0.52416 0.88296 0.0
H188 H 0.45989 0.57446 0.87395 0.0
H189 H 0.47834 0.45602 0.87228 0.0
N190 N 0.33663 0.43311 0.88776 0.0
H191 H 0.39925 0.40646 0.88005 0.0
C192 C 0.69933 0.66079 0.88002 0.0
C193 C 0.7102 0.70735 0.8808 0.0
C194 C 0.74166 0.73971 0.89592 0.0
C195 C 0.76306 0.72619 0.91041 0.0
C196 C 0.75084 0.67927 0.90997 0.0
C197 C 0.71922 0.64693 0.89492 0.0
C198 C 0.6884 0.64212 0.84397 0.0
C199 C 0.72355 0.63516 0.83782 0.0
C200 C 0.74537 0.65345 0.8203 0.0
C201 C 0.73213 0.67886 0.80834 0.0
C202 C 0.69536 0.68413 0.81412 0.0
C203 C 0.67391 0.66624 0.83187 0.0
C204 C 0.62152 0.60363 0.86433 0.0
C205 C 0.59927 0.62237 0.8753 0.0
C206 C 0.55183 0.59559 0.87745 0.0
C207 C 0.52535 0.54996 0.86832 0.0
C208 C 0.54733 0.53264 0.8563 0.0
C209 C 0.59484 0.55896 0.85456 0.0
C210 C 0.33048 0.42027 0.90856 0.0
C211 C 0.28651 0.40251 0.9158 0.0
C212 C 0.27566 0.38015 0.93377 0.0
C213 C 0.30896 0.37584 0.94521 0.0
C214 C 0.35424 0.39781 0.9391 0.0
C215 C 0.36494 0.41959 0.921 0.0
C216 C 0.30889 0.39379 0.87325 0.0
C217 C 0.30641 0.35089 0.87488 0.0
C218 C 0.27899 0.31341 0.86085 0.0
C219 C 0.25298 0.31756 0.84493 0.0
C220 C 0.25577 0.36056 0.84319 0.0
C221 C 0.28354 0.39829 0.85724 0.0
C222 C 0.38364 0.46164 0.88229 0.0
C223 C 0.4017 0.50924 0.88046 0.0
C224 C 0.44724 0.53791 0.87542 0.0
C225 C 0.47587 0.51948 0.87234 0.0
C226 C 0.45735 0.47153 0.87399 0.0
C227 C 0.41177 0.44291 0.87861 0.0
H228 H 0.9846 0.05281 0.11202 0.0
H229 H 0.96791 0.28214 0.11135 0.0
H230 H 0.00069 0.12597 0.0582 0.0
H231 H 0.0105 0.23906 0.164 0.0
H232 H 0.96175 0.21538 0.09121 0.0
H233 H 0.97454 0.11083 0.1308 0.0
C234 C 0.98532 0.08065 0.10406 0.0
C235 C 0.99403 0.08483 0.08355 0.0
C236 C 0.97212 0.22051 0.1072 0.0
C237 C 0.98255 0.15132 0.105 0.0
C238 C 0.97551 0.25833 0.11863 0.0
C239 C 0.99015 0.26604 0.13922 0.0
C240 C 0.98253 0.18995 0.11662 0.0
C241 C 0.99959 0.23441 0.14808 0.0
C242 C 0.97982 0.11387 0.11483 0.0
C243 C 0.99452 0.12169 0.07405 0.0
N244 N 0.99558 0.19773 0.13675 0.0
N245 N 0.98912 0.15371 0.08488 0.0
H246 H 0.8889 0.00405 0.38039 0.0
H247 H 0.85504 0.0985 0.48721 0.0
H248 H 0.00184 0.09869 0.42316 0.0
H249 H 0.74396 0.98255 0.45055 0.0
H250 H 0.90847 0.10529 0.46201 0.0
H251 H 0.83456 0.0012 0.4043 0.0
C252 C 0.9023 0.02426 0.3948 0.0
C253 C 0.95002 0.05153 0.39981 0.0
C254 C 0.87238 0.07847 0.45944 0.0
C255 C 0.88799 0.04865 0.42717 0.0
C256 C 0.84179 0.07484 0.47373 0.0
C257 C 0.79499 0.03985 0.47099 0.0
C258 C 0.85604 0.04708 0.44219 0.0
C259 C 0.77986 0.00971 0.45336 0.0
C260 C 0.87123 0.02258 0.40844 0.0
C261 C 0.96536 0.07701 0.41869 0.0
N262 N 0.8103 0.01399 0.43964 0.0
N263 N 0.93445 0.07501 0.43166 0.0
H264 H 0.96733 0.80001 0.74056 0.0
H265 H 0.75375 0.76433 0.7957 0.0
H266 H 0.90837 0.88546 0.73022 0.0
H267 H 0.77394 0.64935 0.7817 0.0
H268 H 0.8085 0.80848 0.77113 0.0
H269 H 0.89634 0.74344 0.75518 0.0
C270 C 0.93917 0.80651 0.74109 0.0
C271 C 0.94389 0.84769 0.73436 0.0
C272 C 0.80034 0.77328 0.77321 0.0
C273 C 0.86306 0.78363 0.75136 0.0
C274 C 0.76878 0.7478 0.7872 0.0
C275 C 0.75954 0.70309 0.79112 0.0
C276 C 0.82355 0.75437 0.76333 0.0
C277 C 0.78094 0.68416 0.7797 0.0
C278 C 0.89863 0.77416 0.74937 0.0
C279 C 0.90623 0.85423 0.73529 0.0
N280 N 0.81259 0.71021 0.76662 0.0
N281 N 0.8677 0.82297 0.74402 0.0
H282 H 0.11248 0.91168 0.07232 0.0
H283 H 0.99594 0.83126 0.17668 0.0
H284 H 0.05233 0.98109 0.10347 0.0
H285 H 0.00182 0.73811 0.13174 0.0
H286 H 0.03227 0.89445 0.15393 0.0
H287 H 0.08909 0.85654 0.0985 0.0
C288 C 0.09508 0.9159 0.08484 0.0
C289 C 0.0839 0.95083 0.08557 0.0
C290 C 0.02579 0.86022 0.14914 0.0
C291 C 0.05698 0.88762 0.11553 0.0
C292 C 0.00527 0.82431 0.16208 0.0
C293 C 0.99573 0.7795 0.15596 0.0
C294 C 0.03755 0.85133 0.13014 0.0
C295 C 0.00822 0.77211 0.13691 0.0
C296 C 0.08146 0.88416 0.09969 0.0
C297 C 0.06126 0.95445 0.1022 0.0
N298 N 0.02862 0.80771 0.12468 0.0
N299 N 0.04832 0.92304 0.1165 0.0
H300 H 0.16505 0.12449 0.42644 0.0
H301 H 0.40082 0.13566 0.45652 0.0
H302 H 0.26274 0.13866 0.38326 0.0
H303 H 0.32185 0.15749 0.50034 0.0
H304 H 0.34994 0.13603 0.42941 0.0
H305 H 0.22157 0.13664 0.45385 0.0
C306 C 0.19848 0.1306 0.42271 0.0
C307 C 0.209 0.13024 0.40249 0.0
C308 C 0.34397 0.14117 0.44495 0.0
C309 C 0.27356 0.14364 0.43375 0.0
C310 C 0.37287 0.14074 0.4604 0.0
C311 C 0.36546 0.14647 0.48067 0.0
C312 C 0.30695 0.14671 0.4498 0.0
C313 C 0.32897 0.15333 0.48489 0.0
C314 C 0.23073 0.13754 0.43837 0.0
C315 C 0.25296 0.13845 0.39859 0.0
N316 N 0.30078 0.15281 0.46959 0.0
N317 N 0.28338 0.14433 0.41405 0.0
H318 H 0.11971 0.04215 0.78734 0.0
H319 H 0.23833 0.31637 0.8037 0.0
H320 H 0.1113 0.12317 0.74045 0.0
H321 H 0.19986 0.22593 0.85273 0.0
H322 H 0.19429 0.24771 0.77982 0.0
H323 H 0.15253 0.11062 0.81111 0.0
C324 C 0.12467 0.0744 0.78205 0.0
C325 C 0.11299 0.07705 0.76186 0.0
C326 C 0.19526 0.24308 0.79584 0.0
C327 C 0.15095 0.15585 0.78903 0.0
C328 C 0.22023 0.28222 0.80949 0.0
C329 C 0.22343 0.27695 0.83027 0.0
C330 C 0.17374 0.19844 0.80302 0.0
C331 C 0.1995 0.23173 0.83684 0.0
C332 C 0.14322 0.11345 0.79567 0.0
C333 C 0.11984 0.11967 0.7559 0.0
N334 N 0.17613 0.19431 0.82326 0.0
N335 N 0.13891 0.15767 0.7694 0.0
H336 H 0.95034 0.07476 0.69527 0.0
H337 H 0.78449 0.95034 0.59491 0.0
H338 H 0.95066 0.96667 0.65769 0.0
H339 H 0.81382 0.08369 0.62086 0.0
H340 H 0.83862 0.95098 0.62054 0.0
H341 H 0.89466 0.0747 0.67044 0.0
C342 C 0.93884 0.05114 0.6818 0.0
C343 C 0.95525 0.02072 0.67855 0.0
C344 C 0.83318 0.98009 0.62067 0.0
C345 C 0.89129 0.0201 0.6503 0.0
C346 C 0.80197 0.97953 0.60616 0.0
C347 C 0.7946 0.01698 0.60579 0.0
C348 C 0.85702 0.0182 0.63507 0.0
C349 C 0.81877 0.05428 0.62055 0.0
C350 C 0.90713 0.05117 0.66765 0.0
C351 C 0.93914 0.99086 0.66082 0.0
N352 N 0.84886 0.05392 0.63464 0.0
N353 N 0.90792 0.99114 0.64745 0.0
H354 H 0.93337 0.95259 0.00153 0.0
H355 H 0.84575 0.73457 0.92098 0.0
H356 H 0.01955 0.9027 0.97928 0.0
H357 H 0.76536 0.79829 0.93289 0.0
H358 H 0.90782 0.79355 0.94429 0.0
H359 H 0.86976 0.89478 0.97797 0.0
C360 C 0.93902 0.92972 0.99166 0.0
C361 C 0.98189 0.9325 0.99243 0.0
C362 C 0.87664 0.79473 0.94186 0.0
C363 C 0.90931 0.86621 0.96566 0.0
C364 C 0.84099 0.76077 0.92867 0.0
C365 C 0.80021 0.76137 0.92507 0.0
C366 C 0.87158 0.82961 0.95166 0.0
C367 C 0.79636 0.79675 0.93516 0.0
C368 C 0.90271 0.89675 0.97824 0.0
C369 C 0.9872 0.90194 0.97927 0.0
N370 N 0.83158 0.82945 0.94807 0.0
N371 N 0.95135 0.87003 0.96655 0.0
H372 H 0.96674 0.93494 0.34354 0.0
H373 H 0.994 0.73704 0.28631 0.0
H374 H 0.09592 0.94496 0.33198 0.0
H375 H 0.86547 0.73543 0.28355 0.0
H376 H 0.027 0.80395 0.31063 0.0
H377 H 0.92552 0.85419 0.32839 0.0
C378 C 0.98637 0.91992 0.33812 0.0
C379 C 0.03474 0.94674 0.33874 0.0
C380 C 0.99137 0.7887 0.30491 0.0
C381 C 0.98817 0.85497 0.32169 0.0
C382 C 0.97215 0.7499 0.29114 0.0
C383 C 0.9268 0.73049 0.2826 0.0
C384 C 0.96546 0.8089 0.31016 0.0
C385 C 0.90087 0.74977 0.28936 0.0
C386 C 0.96289 0.87403 0.32944 0.0
C387 C 0.05859 0.92575 0.33152 0.0
N388 N 0.92076 0.78833 0.30256 0.0
N389 N 0.03509 0.88129 0.32325 0.0
H390 H 0.11333 0.9875 0.65405 0.0
H391 H 0.36532 0.04257 0.63097 0.0
H392 H 0.19923 0.96299 0.69529 0.0
H393 H 0.2677 0.03628 0.58523 0.0
H394 H 0.30538 0.01494 0.65504 0.0
H395 H 0.16957 0.00625 0.62868 0.0
C396 C 0.14381 0.9857 0.65772 0.0
C397 C 0.15163 0.97384 0.67687 0.0
C398 C 0.29697 0.01929 0.6397 0.0
C399 C 0.21635 0.99573 0.64797 0.0
C400 C 0.33124 0.03531 0.62601 0.0
C401 C 0.32145 0.04176 0.6061 0.0
C402 C 0.25275 0.0102 0.63351 0.0
C403 C 0.27658 0.03137 0.60039 0.0
C404 C 0.17589 0.99639 0.64323 0.0
C405 C 0.19173 0.97199 0.68075 0.0
N406 N 0.24398 0.01643 0.61407 0.0
N407 N 0.22275 0.98323 0.6665 0.0
H408 H 0.14134 0.17776 0.02852 0.0
H409 H 0.3394 0.31701 0.95455 0.0
H410 H 0.23471 0.13516 0.00839 0.0
H411 H 0.2464 0.36102 0.97369 0.0
H412 H 0.30939 0.25755 0.97863 0.0
H413 H 0.18661 0.25126 0.01293 0.0
C414 C 0.17172 0.18407 0.02108 0.0
C415 C 0.18382 0.14986 0.01951 0.0
C416 C 0.29587 0.28053 0.97778 0.0
C417 C 0.23561 0.23387 0.00153 0.0
C418 C 0.31335 0.31495 0.96411 0.0
C419 C 0.29525 0.3441 0.96191 0.0
C420 C 0.25961 0.27465 0.98927 0.0
C421 C 0.2608 0.33883 0.97454 0.0
C422 C 0.19751 0.22607 0.01215 0.0
C423 C 0.22372 0.1602 0.0098 0.0
N424 N 0.24374 0.30442 0.98752 0.0
N425 N 0.24784 0.20103 0.00099 0.0
H426 H 0.05495 0.19609 0.34955 0.0
H427 H 0.00202 0.24777 0.23951 0.0
H428 H 0.09748 0.15586 0.29579 0.0
H429 H 0.03682 0.34867 0.2898 0.0
H430 H 0.01967 0.20158 0.2615 0.0
H431 H 0.03279 0.24203 0.32913 0.0
C432 C 0.05962 0.19695 0.33349 0.0
C433 C 0.07824 0.17234 0.32432 0.0
C434 C 0.02308 0.23365 0.26775 0.0
C435 C 0.05215 0.22352 0.30106 0.0
C436 C 0.01262 0.25975 0.2553 0.0
C437 C 0.01785 0.30193 0.26292 0.0
C438 C 0.03825 0.24944 0.28806 0.0
C439 C 0.03248 0.31631 0.28341 0.0
C440 C 0.04711 0.22315 0.32193 0.0
C441 C 0.08361 0.17458 0.30349 0.0
N442 N 0.04207 0.28995 0.29536 0.0
N443 N 0.07021 0.19934 0.29254 0.0
loop_
_geom_bond_atom_site_label_1
_geom_bond_atom_site_label_2
_geom_bond_distance
_geom_bond_site_symmetry_2
_ccdc_geom_bond_type
Zn0 O3 2.031 . S
Zn0 O5 2.049 1_565 S
Zn0 O10 2.067 . S
Zn1 O2 1.962 . S
Zn1 O4 1.986 . S
Zn1 O6 1.996 . S
Zn1 O9 1.943 . S
O2 Zn1 1.962 . S
O2 C7 1.254 1_545 S
O3 Zn0 2.031 . S
O3 C7 1.269 . S
O4 Zn1 1.986 . S
O4 C11 1.262 . S
O5 Zn0 2.049 1_545 S
O5 C13 1.260 . S
O6 Zn1 1.996 . S
O6 C13 1.257 . S
C7 O2 1.254 1_565 S
C7 O3 1.269 . S
C8 O9 1.249 1_665 S
C8 O10 1.270 1_655 S
O9 Zn1 1.943 . S
O9 C8 1.249 1_445 S
O10 Zn0 2.067 . S
O10 C8 1.270 1_455 S
C11 O4 1.262 . S
C11 O12 1.232 . S
O12 C11 1.232 . S
C13 O5 1.260 . S
C13 O6 1.257 . S
Zn14 O17 2.031 . S
Zn14 O19 2.049 . S
Zn14 O24 2.067 . S
Zn15 O16 1.962 . S
Zn15 O18 1.986 1_455 S
Zn15 O20 1.996 . S
Zn15 O23 1.943 1_455 S
O16 Zn15 1.962 . S
O16 C21 1.254 . S
O17 Zn14 2.031 . S
O17 C21 1.269 . S
O18 Zn15 1.986 1_655 S
O18 C25 1.262 . S
O19 Zn14 2.049 . S
O19 C27 1.260 . S
O20 Zn15 1.996 . S
O20 C27 1.257 . S
C21 O16 1.254 . S
C21 O17 1.269 . S
C22 O23 1.249 1_465 S
C22 O24 1.270 1_565 S
O23 Zn15 1.943 1_655 S
O23 C22 1.249 1_645 S
O24 Zn14 2.067 . S
O24 C22 1.270 1_545 S
C25 O18 1.262 . S
C25 O26 1.232 . S
O26 C25 1.232 . S
C27 O19 1.260 . S
C27 O20 1.257 . S
Zn28 O31 2.031 1_565 S
Zn28 O33 2.049 . S
Zn28 O38 2.067 1_565 S
Zn29 O30 1.962 1_545 S
Zn29 O32 1.986 1_445 S
Zn29 O34 1.996 1_445 S
Zn29 O37 1.943 . S
O30 Zn29 1.962 1_565 S
O30 C35 1.254 . S
O31 Zn28 2.031 1_545 S
O31 C35 1.269 1_545 S
O32 Zn29 1.986 1_665 S
O32 C39 1.262 1_565 S
O33 Zn28 2.049 . S
O33 C41 1.260 1_455 S
O34 Zn29 1.996 1_665 S
O34 C41 1.257 . S
C35 O30 1.254 . S
C35 O31 1.269 1_565 S
C36 O37 1.249 . S
C36 O38 1.270 . S
O37 Zn29 1.943 . S
O37 C36 1.249 . S
O38 Zn28 2.067 1_545 S
O38 C36 1.270 . S
C39 O32 1.262 1_545 S
C39 O40 1.232 . S
O40 C39 1.232 . S
C41 O33 1.260 1_655 S
C41 O34 1.257 . S
H42 C69 0.929 . S
N43 C68 1.433 . S
N43 C74 1.435 . S
N43 C80 1.423 . S
H44 C70 0.930 . S
H45 C73 0.931 . S
H46 C72 0.929 . S
H47 C75 0.930 . S
H48 C76 0.932 . S
H49 C79 0.929 . S
H50 C78 0.931 1_655 S
H51 C81 0.929 . S
H52 C85 0.932 . S
H53 C82 0.931 . S
H54 C84 0.929 . S
H55 C87 0.929 . S
H56 C88 0.930 . S
H57 C90 0.929 . S
H58 C91 0.931 . S
H59 C93 0.930 . S
H60 C94 0.932 . S
H61 C96 0.931 1_655 S
H62 C97 0.929 . S
H63 C99 0.929 . S
H64 C100 0.931 . S
H65 C102 0.929 . S
N66 C86 1.433 . S
N66 C92 1.435 . S
N66 C98 1.423 . S
H67 C103 0.932 . S
C68 N43 1.433 . S
C68 C69 1.363 1_455 S
C68 C73 1.370 . S
C69 H42 0.929 . S
C69 C68 1.363 1_655 S
C69 C70 1.385 . S
C70 H44 0.930 . S
C70 C69 1.385 . S
C70 C71 1.357 1_655 S
C71 C70 1.357 1_455 S
C71 C72 1.406 . S
C72 H46 0.929 . S
C72 C71 1.406 . S
C72 C73 1.391 . S
C73 H45 0.931 . S
C73 C68 1.370 . S
C73 C72 1.391 . S
C74 N43 1.435 . S
C74 C75 1.358 . S
C74 C79 1.371 1_455 S
C75 H47 0.930 . S
C75 C74 1.358 . S
C75 C76 1.405 . S
C76 H48 0.932 . S
C76 C75 1.405 . S
C76 C77 1.383 . S
C77 C76 1.383 . S
C77 C78 1.393 . S
C78 H50 0.931 1_455 S
C78 C77 1.393 . S
C78 C79 1.382 1_455 S
C79 H49 0.929 . S
C79 C74 1.371 1_655 S
C79 C78 1.382 1_655 S
C80 N43 1.423 . S
C80 C81 1.362 1_455 S
C80 C85 1.388 . S
C81 H51 0.929 . S
C81 C80 1.362 1_655 S
C81 C82 1.376 . S
C82 H53 0.931 . S
C82 C81 1.376 . S
C82 C83 1.400 . S
C83 C82 1.400 . S
C83 C84 1.346 1_655 S
C83 C101 1.472 . S
C84 H54 0.929 . S
C84 C83 1.346 1_455 S
C84 C85 1.443 . S
C85 H52 0.932 . S
C85 C80 1.388 . S
C85 C84 1.443 . S
C86 N66 1.433 . S
C86 C87 1.363 1_455 S
C86 C91 1.370 . S
C87 H55 0.929 . S
C87 C86 1.363 1_655 S
C87 C88 1.385 . S
C88 H56 0.930 . S
C88 C87 1.385 . S
C88 C89 1.357 1_655 S
C89 C88 1.357 1_455 S
C89 C90 1.406 . S
C90 H57 0.929 . S
C90 C89 1.406 . S
C90 C91 1.391 . S
C91 H58 0.931 . S
C91 C86 1.370 . S
C91 C90 1.391 . S
C92 N66 1.435 . S
C92 C93 1.358 . S
C92 C97 1.371 1_455 S
C93 H59 0.930 . S
C93 C92 1.358 . S
C93 C94 1.405 . S
C94 H60 0.932 . S
C94 C93 1.405 . S
C94 C95 1.383 . S
C95 C94 1.383 . S
C95 C96 1.393 . S
C96 H61 0.931 1_455 S
C96 C95 1.393 . S
C96 C97 1.382 1_455 S
C97 H62 0.929 . S
C97 C92 1.371 1_655 S
C97 C96 1.382 1_655 S
C98 N66 1.423 . S
C98 C99 1.362 1_455 S
C98 C103 1.388 . S
C99 H63 0.929 . S
C99 C98 1.362 1_655 S
C99 C100 1.376 . S
C100 H64 0.931 . S
C100 C99 1.376 . S
C100 C101 1.397 . S
C101 C83 1.472 . S
C101 C100 1.397 . S
C101 C102 1.344 1_655 S
C102 H65 0.929 . S
C102 C101 1.344 1_455 S
C102 C103 1.443 . S
C103 H67 0.932 . S
C103 C98 1.388 . S
C103 C102 1.443 . S
H104 C131 0.929 . S
N105 C130 1.433 . S
N105 C136 1.435 . S
N105 C142 1.423 . S
H106 C132 0.930 . S
H107 C135 0.931 . S
H108 C134 0.929 1_565 S
H109 C137 0.930 1_565 S
H110 C138 0.932 1_565 S
H111 C141 0.929 . S
H112 C140 0.931 . S
H113 C143 0.929 . S
H114 C147 0.932 . S
H115 C144 0.931 . S
H116 C146 0.929 . S
H117 C149 0.929 . S
H118 C150 0.930 . S
H119 C152 0.929 1_565 S
H120 C153 0.931 . S
H121 C155 0.930 1_565 S
H122 C156 0.932 1_565 S
H123 C158 0.931 . S
H124 C159 0.929 . S
H125 C161 0.929 . S
H126 C162 0.931 . S
H127 C164 0.929 . S
N128 C148 1.433 . S
N128 C154 1.435 . S
N128 C160 1.423 . S
H129 C165 0.932 . S
C130 N105 1.433 . S
C130 C131 1.363 . S
C130 C135 1.370 . S
C131 H104 0.929 . S
C131 C130 1.363 . S
C131 C132 1.385 . S
C132 H106 0.930 . S
C132 C131 1.385 . S
C132 C133 1.357 . S
C133 C132 1.357 . S
C133 C134 1.406 . S
C134 H108 0.929 1_545 S
C134 C133 1.406 . S
C134 C135 1.391 . S
C135 H107 0.931 . S
C135 C130 1.370 . S
C135 C134 1.391 . S
C136 N105 1.435 . S
C136 C137 1.358 . S
C136 C141 1.371 . S
C137 H109 0.930 1_545 S
C137 C136 1.358 . S
C137 C138 1.405 . S
C138 H110 0.932 1_545 S
C138 C137 1.405 . S
C138 C139 1.383 . S
C139 C138 1.383 . S
C139 C140 1.393 . S
C140 H112 0.931 . S
C140 C139 1.393 . S
C140 C141 1.382 . S
C141 H111 0.929 . S
C141 C136 1.371 . S
C141 C140 1.382 . S
C142 N105 1.423 . S
C142 C143 1.362 . S
C142 C147 1.388 . S
C143 H113 0.929 . S
C143 C142 1.362 . S
C143 C144 1.376 . S
C144 H115 0.931 . S
C144 C143 1.376 . S
C144 C145 1.396 . S
C145 C144 1.396 . S
C145 C146 1.348 . S
C145 C163 1.472 . S
C146 H116 0.929 . S
C146 C145 1.348 . S
C146 C147 1.443 . S
C147 H114 0.932 . S
C147 C142 1.388 . S
C147 C146 1.443 . S
C148 N128 1.433 . S
C148 C149 1.363 . S
C148 C153 1.370 . S
C149 H117 0.929 . S
C149 C148 1.363 . S
C149 C150 1.385 . S
C150 H118 0.930 . S
C150 C149 1.385 . S
C150 C151 1.357 . S
C151 C150 1.357 . S
C151 C152 1.406 . S
C152 H119 0.929 1_545 S
C152 C151 1.406 . S
C152 C153 1.391 . S
C153 H120 0.931 . S
C153 C148 1.370 . S
C153 C152 1.391 . S
C154 N128 1.435 . S
C154 C155 1.358 . S
C154 C159 1.371 . S
C155 H121 0.930 1_545 S
C155 C154 1.358 . S
C155 C156 1.405 . S
C156 H122 0.932 1_545 S
C156 C155 1.405 . S
C156 C157 1.383 . S
C157 C156 1.383 . S
C157 C158 1.393 . S
C158 H123 0.931 . S
C158 C157 1.393 . S
C158 C159 1.382 . S
C159 H124 0.929 . S
C159 C154 1.371 . S
C159 C158 1.382 . S
C160 N128 1.423 . S
C160 C161 1.362 . S
C160 C165 1.388 . S
C161 H125 0.929 . S
C161 C160 1.362 . S
C161 C162 1.376 . S
C162 H126 0.931 . S
C162 C161 1.376 . S
C162 C163 1.396 . S
C163 C145 1.472 . S
C163 C162 1.396 . S
C163 C164 1.348 . S
C164 H127 0.929 . S
C164 C163 1.348 . S
C164 C165 1.443 . S
C165 H129 0.932 . S
C165 C160 1.388 . S
C165 C164 1.443 . S
H166 C193 0.929 . S
N167 C192 1.433 . S
N167 C198 1.435 . S
N167 C204 1.423 . S
H168 C194 0.930 . S
H169 C197 0.931 . S
H170 C196 0.929 . S
H171 C199 0.930 . S
H172 C200 0.932 . S
H173 C203 0.929 . S
H174 C202 0.931 . S
H175 C205 0.929 . S
H176 C209 0.932 . S
H177 C206 0.931 . S
H178 C208 0.929 . S
H179 C211 0.929 . S
H180 C212 0.930 . S
H181 C214 0.929 . S
H182 C215 0.931 . S
H183 C217 0.930 . S
H184 C218 0.932 . S
H185 C220 0.931 . S
H186 C221 0.929 . S
H187 C223 0.929 . S
H188 C224 0.931 . S
H189 C226 0.929 . S
N190 C210 1.433 . S
N190 C216 1.435 . S
N190 C222 1.423 . S
H191 C227 0.932 . S
C192 N167 1.433 . S
C192 C193 1.363 . S
C192 C197 1.370 . S
C193 H166 0.929 . S
C193 C192 1.363 . S
C193 C194 1.385 . S
C194 H168 0.930 . S
C194 C193 1.385 . S
C194 C195 1.357 . S
C195 C194 1.357 . S
C195 C196 1.406 . S
C196 H170 0.929 . S
C196 C195 1.406 . S
C196 C197 1.391 . S
C197 H169 0.931 . S
C197 C192 1.370 . S
C197 C196 1.391 . S
C198 N167 1.435 . S
C198 C199 1.358 . S
C198 C203 1.371 . S
C199 H171 0.930 . S
C199 C198 1.358 . S
C199 C200 1.405 . S
C200 H172 0.932 . S
C200 C199 1.405 . S
C200 C201 1.383 . S
C201 C200 1.383 . S
C201 C202 1.393 . S
C202 H174 0.931 . S
C202 C201 1.393 . S
C202 C203 1.382 . S
C203 H173 0.929 . S
C203 C198 1.371 . S
C203 C202 1.382 . S
C204 N167 1.423 . S
C204 C205 1.362 . S
C204 C209 1.388 . S
C205 H175 0.929 . S
C205 C204 1.362 . S
C205 C206 1.376 . S
C206 H177 0.931 . S
C206 C205 1.376 . S
C206 C207 1.396 . S
C207 C206 1.396 . S
C207 C208 1.348 . S
C207 C225 1.472 . S
C208 H178 0.929 . S
C208 C207 1.348 . S
C208 C209 1.443 . S
C209 H176 0.932 . S
C209 C204 1.388 . S
C209 C208 1.443 . S
C210 N190 1.433 . S
C210 C211 1.363 . S
C210 C215 1.370 . S
C211 H179 0.929 . S
C211 C210 1.363 . S
C211 C212 1.385 . S
C212 H180 0.930 . S
C212 C211 1.385 . S
C212 C213 1.357 . S
C213 C212 1.357 . S
C213 C214 1.406 . S
C214 H181 0.929 . S
C214 C213 1.406 . S
C214 C215 1.391 . S
C215 H182 0.931 . S
C215 C210 1.370 . S
C215 C214 1.391 . S
C216 N190 1.435 . S
C216 C217 1.358 . S
C216 C221 1.371 . S
C217 H183 0.930 . S
C217 C216 1.358 . S
C217 C218 1.405 . S
C218 H184 0.932 . S
C218 C217 1.405 . S
C218 C219 1.383 . S
C219 C218 1.383 . S
C219 C220 1.393 . S
C220 H185 0.931 . S
C220 C219 1.393 . S
C220 C221 1.382 . S
C221 H186 0.929 . S
C221 C216 1.371 . S
C221 C220 1.382 . S
C222 N190 1.423 . S
C222 C223 1.362 . S
C222 C227 1.388 . S
C223 H187 0.929 . S
C223 C222 1.362 . S
C223 C224 1.376 . S
C224 H188 0.931 . S
C224 C223 1.376 . S
C224 C225 1.396 . S
C225 C207 1.472 . S
C225 C224 1.396 . S
C225 C226 1.348 . S
C226 H189 0.929 . S
C226 C225 1.348 . S
C226 C227 1.443 . S
C227 H191 0.932 . S
C227 C222 1.388 . S
C227 C226 1.443 . S
H228 C234 0.930 . S
H229 C238 0.930 . S
H230 C243 0.929 . S
H231 C241 0.929 . S
H232 C236 0.929 . S
H233 C242 0.929 . S
C234 H228 0.930 . S
C234 C235 1.367 . S
C234 C242 1.378 . S
C235 C234 1.367 . S
C235 C243 1.433 . S
C236 H232 0.929 . S
C236 C238 1.378 . S
C236 C240 1.350 . S
C237 C240 1.463 . S
C237 C242 1.350 . S
C237 N245 1.427 . S
C238 H229 0.930 . S
C238 C236 1.378 . S
C238 C239 1.367 . S
C239 C238 1.367 . S
C239 C241 1.433 . S
C240 C236 1.350 . S
C240 C237 1.463 . S
C240 N244 1.427 . S
C241 H231 0.929 . S
C241 C239 1.433 . S
C241 N244 1.384 . S
C242 H233 0.929 . S
C242 C234 1.378 . S
C242 C237 1.350 . S
C243 H230 0.929 . S
C243 C235 1.433 . S
C243 N245 1.384 . S
N244 C240 1.427 . S
N244 C241 1.384 . S
N245 C237 1.427 . S
N245 C243 1.384 . S
H246 C252 0.930 . S
H247 C256 0.930 . S
H248 C261 0.929 . S
H249 C259 0.929 1_565 S
H250 C254 0.929 . S
H251 C260 0.929 . S
C252 H246 0.930 . S
C252 C253 1.367 1_565 S
C252 C260 1.378 . S
C253 C252 1.367 1_545 S
C253 C261 1.433 . S
C254 H250 0.929 . S
C254 C256 1.378 . S
C254 C258 1.350 . S
C255 C258 1.463 . S
C255 C260 1.350 1_545 S
C255 N263 1.427 . S
C256 H247 0.930 . S
C256 C254 1.378 . S
C256 C257 1.367 . S
C257 C256 1.367 . S
C257 C259 1.433 . S
C258 C254 1.350 . S
C258 C255 1.463 . S
C258 N262 1.427 . S
C259 H249 0.929 1_545 S
C259 C257 1.433 . S
C259 N262 1.384 . S
C260 H251 0.929 . S
C260 C252 1.378 . S
C260 C255 1.350 1_565 S
C261 H248 0.929 . S
C261 C253 1.433 . S
C261 N263 1.384 . S
N262 C258 1.427 . S
N262 C259 1.384 . S
N263 C255 1.427 . S
N263 C261 1.384 . S
H264 C270 0.930 . S
H265 C274 0.930 . S
H266 C279 0.929 . S
H267 C277 0.929 . S
H268 C272 0.929 . S
H269 C278 0.929 . S
C270 H264 0.930 . S
C270 C271 1.367 . S
C270 C278 1.378 . S
C271 C270 1.367 . S
C271 C279 1.433 . S
C272 H268 0.929 . S
C272 C274 1.378 . S
C272 C276 1.350 . S
C273 C276 1.463 . S
C273 C278 1.350 . S
C273 N281 1.427 . S
C274 H265 0.930 . S
C274 C272 1.378 . S
C274 C275 1.367 . S
C275 C274 1.367 . S
C275 C277 1.433 . S
C276 C272 1.350 . S
C276 C273 1.463 . S
C276 N280 1.427 . S
C277 H267 0.929 . S
C277 C275 1.433 . S
C277 N280 1.384 . S
C278 H269 0.929 . S
C278 C270 1.378 . S
C278 C273 1.350 . S
C279 H266 0.929 . S
C279 C271 1.433 . S
C279 N281 1.384 . S
N280 C276 1.427 . S
N280 C277 1.384 . S
N281 C273 1.427 . S
N281 C279 1.384 . S
H282 C288 0.930 . S
H283 C292 0.930 . S
H284 C297 0.929 . S
H285 C295 0.929 . S
H286 C290 0.929 . S
H287 C296 0.929 . S
C288 H282 0.930 . S
C288 C289 1.367 . S
C288 C296 1.378 . S
C289 C288 1.367 . S
C289 C297 1.433 . S
C290 H286 0.929 . S
C290 C292 1.378 . S
C290 C294 1.350 . S
C291 C294 1.463 . S
C291 C296 1.350 . S
C291 N299 1.427 . S
C292 H283 0.930 . S
C292 C290 1.378 . S
C292 C293 1.367 . S
C293 C292 1.367 . S
C293 C295 1.433 . S
C294 C290 1.350 . S
C294 C291 1.463 . S
C294 N298 1.427 . S
C295 H285 0.929 . S
C295 C293 1.433 . S
C295 N298 1.384 . S
C296 H287 0.929 . S
C296 C288 1.378 . S
C296 C291 1.350 . S
C297 H284 0.929 . S
C297 C289 1.433 . S
C297 N299 1.384 . S
N298 C294 1.427 . S
N298 C295 1.384 . S
N299 C291 1.427 . S
N299 C297 1.384 . S
H300 C306 0.930 . S
H301 C310 0.930 1_565 S
H302 C315 0.929 . S
H303 C313 0.929 . S
H304 C308 0.929 1_565 S
H305 C314 0.929 . S
C306 H300 0.930 . S
C306 C307 1.367 . S
C306 C314 1.378 . S
C307 C306 1.367 . S
C307 C315 1.433 . S
C308 H304 0.929 1_545 S
C308 C310 1.378 . S
C308 C312 1.350 . S
C309 C312 1.463 . S
C309 C314 1.350 . S
C309 N317 1.427 . S
C310 H301 0.930 1_545 S
C310 C308 1.378 . S
C310 C311 1.367 . S
C311 C310 1.367 . S
C311 C313 1.433 . S
C312 C308 1.350 . S
C312 C309 1.463 . S
C312 N316 1.427 . S
C313 H303 0.929 . S
C313 C311 1.433 . S
C313 N316 1.384 . S
C314 H305 0.929 . S
C314 C306 1.378 . S
C314 C309 1.350 . S
C315 H302 0.929 . S
C315 C307 1.433 . S
C315 N317 1.384 . S
N316 C312 1.427 . S
N316 C313 1.384 . S
N317 C309 1.427 . S
N317 C315 1.384 . S
H318 C324 0.930 . S
H319 C328 0.930 . S
H320 C333 0.929 . S
H321 C331 0.929 . S
H322 C326 0.929 . S
H323 C332 0.929 . S
C324 H318 0.930 . S
C324 C325 1.367 . S
C324 C332 1.378 . S
C325 C324 1.367 . S
C325 C333 1.433 . S
C326 H322 0.929 . S
C326 C328 1.378 . S
C326 C330 1.350 . S
C327 C330 1.463 . S
C327 C332 1.350 . S
C327 N335 1.427 . S
C328 H319 0.930 . S
C328 C326 1.378 . S
C328 C329 1.367 . S
C329 C328 1.367 . S
C329 C331 1.433 . S
C330 C326 1.350 . S
C330 C327 1.463 . S
C330 N334 1.427 . S
C331 H321 0.929 . S
C331 C329 1.433 . S
C331 N334 1.384 . S
C332 H323 0.929 . S
C332 C324 1.378 . S
C332 C327 1.350 . S
C333 H320 0.929 . S
C333 C325 1.433 . S
C333 N335 1.384 . S
N334 C330 1.427 . S
N334 C331 1.384 . S
N335 C327 1.427 . S
N335 C333 1.384 . S
H336 C342 0.930 . S
H337 C346 0.930 . S
H338 C351 0.929 1_565 S
H339 C349 0.929 . S
H340 C344 0.929 . S
H341 C350 0.929 . S
C342 H336 0.930 . S
C342 C343 1.367 . S
C342 C350 1.378 . S
C343 C342 1.367 . S
C343 C351 1.433 . S
C344 H340 0.929 . S
C344 C346 1.378 . S
C344 C348 1.350 1_565 S
C345 C348 1.463 . S
C345 C350 1.350 . S
C345 N353 1.428 . S
C346 H337 0.930 . S
C346 C344 1.378 . S
C346 C347 1.367 1_565 S
C347 C346 1.367 1_545 S
C347 C349 1.433 . S
C348 C344 1.350 1_545 S
C348 C345 1.463 . S
C348 N352 1.427 . S
C349 H339 0.929 . S
C349 C347 1.433 . S
C349 N352 1.384 . S
C350 H341 0.929 . S
C350 C342 1.378 . S
C350 C345 1.350 . S
C351 H338 0.929 1_545 S
C351 C343 1.433 . S
C351 N353 1.383 . S
N352 C348 1.427 . S
N352 C349 1.384 . S
N353 C345 1.428 . S
N353 C351 1.383 . S
H354 C360 0.930 . S
H355 C364 0.930 . S
H356 C369 0.929 . S
H357 C367 0.929 . S
H358 C362 0.929 . S
H359 C368 0.929 . S
C360 H354 0.930 . S
C360 C361 1.367 . S
C360 C368 1.378 . S
C361 C360 1.367 . S
C361 C369 1.433 1_554 S
C362 H358 0.929 . S
C362 C364 1.378 . S
C362 C366 1.350 . S
C363 C366 1.463 . S
C363 C368 1.350 1_556 S
C363 N371 1.427 . S
C364 H355 0.930 . S
C364 C362 1.378 . S
C364 C365 1.367 . S
C365 C364 1.367 . S
C365 C367 1.433 . S
C366 C362 1.350 . S
C366 C363 1.463 . S
C366 N370 1.427 . S
C367 H357 0.929 . S
C367 C365 1.433 . S
C367 N370 1.384 . S
C368 H359 0.929 . S
C368 C360 1.378 . S
C368 C363 1.350 1_554 S
C369 H356 0.929 . S
C369 C361 1.433 1_556 S
C369 N371 1.384 . S
N370 C366 1.427 . S
N370 C367 1.384 . S
N371 C363 1.427 . S
N371 C369 1.384 . S
H372 C378 0.930 . S
H373 C382 0.930 . S
H374 C387 0.929 . S
H375 C385 0.929 . S
H376 C380 0.929 . S
H377 C386 0.929 . S
C378 H372 0.930 . S
C378 C379 1.367 1_655 S
C378 C386 1.378 . S
C379 C378 1.367 1_455 S
C379 C387 1.433 . S
C380 H376 0.929 . S
C380 C382 1.378 . S
C380 C384 1.350 . S
C381 C384 1.463 . S
C381 C386 1.350 1_455 S
C381 N389 1.427 . S
C382 H373 0.930 . S
C382 C380 1.378 . S
C382 C383 1.367 . S
C383 C382 1.367 . S
C383 C385 1.433 1_455 S
C384 C380 1.350 . S
C384 C381 1.463 . S
C384 N388 1.427 1_455 S
C385 H375 0.929 . S
C385 C383 1.433 1_655 S
C385 N388 1.384 . S
C386 H377 0.929 . S
C386 C378 1.378 . S
C386 C381 1.350 1_655 S
C387 H374 0.929 . S
C387 C379 1.433 . S
C387 N389 1.384 . S
N388 C384 1.427 1_655 S
N388 C385 1.384 . S
N389 C381 1.427 . S
N389 C387 1.384 . S
H390 C396 0.930 . S
H391 C400 0.930 . S
H392 C405 0.929 . S
H393 C403 0.929 . S
H394 C398 0.929 . S
H395 C404 0.929 . S
C396 H390 0.930 . S
C396 C397 1.367 . S
C396 C404 1.378 . S
C397 C396 1.367 . S
C397 C405 1.433 1_565 S
C398 H394 0.929 . S
C398 C400 1.378 . S
C398 C402 1.350 . S
C399 C402 1.463 . S
C399 C404 1.350 1_545 S
C399 N407 1.427 . S
C400 H391 0.930 . S
C400 C398 1.378 . S
C400 C401 1.367 . S
C401 C400 1.367 . S
C401 C403 1.433 1_545 S
C402 C398 1.350 . S
C402 C399 1.463 . S
C402 N406 1.427 1_545 S
C403 H393 0.929 . S
C403 C401 1.433 1_565 S
C403 N406 1.384 . S
C404 H395 0.929 . S
C404 C396 1.378 . S
C404 C399 1.350 1_565 S
C405 H392 0.929 . S
C405 C397 1.433 1_545 S
C405 N407 1.384 . S
N406 C402 1.427 1_565 S
N406 C403 1.384 . S
N407 C399 1.427 . S
N407 C405 1.384 . S
H408 C414 0.930 . S
H409 C418 0.930 . S
H410 C423 0.929 . S
H411 C421 0.929 . S
H412 C416 0.929 . S
H413 C422 0.929 . S
C414 H408 0.930 . S
C414 C415 1.367 1_556 S
C414 C422 1.378 . S
C415 C414 1.367 1_554 S
C415 C423 1.433 . S
C416 H412 0.929 . S
C416 C418 1.378 . S
C416 C420 1.350 . S
C417 C420 1.463 . S
C417 C422 1.350 . S
C417 N425 1.423 1_556 S
C418 H409 0.930 . S
C418 C416 1.378 . S
C418 C419 1.367 . S
C419 C418 1.367 . S
C419 C421 1.433 . S
C420 C416 1.350 . S
C420 C417 1.463 . S
C420 N424 1.427 . S
C421 H411 0.929 . S
C421 C419 1.433 . S
C421 N424 1.384 . S
C422 H413 0.929 . S
C422 C414 1.378 . S
C422 C417 1.350 . S
C423 H410 0.929 . S
C423 C415 1.433 . S
C423 N425 1.387 . S
N424 C420 1.427 . S
N424 C421 1.384 . S
N425 C417 1.423 1_554 S
N425 C423 1.387 . S
H426 C432 0.930 . S
H427 C436 0.930 . S
H428 C441 0.929 . S
H429 C439 0.929 . S
H430 C434 0.929 . S
H431 C440 0.929 . S
C432 H426 0.930 . S
C432 C433 1.367 . S
C432 C440 1.378 . S
C433 C432 1.367 . S
C433 C441 1.433 . S
C434 H430 0.929 . S
C434 C436 1.378 . S
C434 C438 1.350 . S
C435 C438 1.463 . S
C435 C440 1.350 . S
C435 N443 1.427 . S
C436 H427 0.930 . S
C436 C434 1.378 . S
C436 C437 1.367 . S
C437 C436 1.367 . S
C437 C439 1.433 . S
C438 C434 1.350 . S
C438 C435 1.463 . S
C438 N442 1.427 . S
C439 H429 0.929 . S
C439 C437 1.433 . S
C439 N442 1.384 . S
C440 H431 0.929 . S
C440 C432 1.378 . S
C440 C435 1.350 . S
C441 H428 0.929 . S
C441 C433 1.433 . S
C441 N443 1.384 . S
N442 C438 1.427 . S
N442 C439 1.384 . S
N443 C435 1.427 . S
N443 C441 1.384 . S
C239 C95 1.214 . S
C235 C11 1.199 . S
C253 C25 1.263 . S
C257 C139 1.273 . S
C271 C41 1.274 . S
C275 C201 1.337 . S
C289 C7 1.231 . S
C293 C77 1.223 . S
C311 C157 1.287 . S
C307 C21 1.294 . S
C325 C36 1.295 . S
C329 C219 1.354 . S
C347 C133 1.510 . S
C343 C39 1.609 . S
C361 C8 1.620 . S
C365 C195 1.542 . S
C383 C71 1.599 . S
C379 C22 1.671 . S
C401 C151 1.522 . S
C397 C35 1.611 . S
C419 C213 1.559 . S
C415 C13 1.603 . S
C433 C27 1.668 . S
C437 C89 1.588 . S
