# Generated by pormake.
# Topology zzz, (3,6)-cn, num edge types: 1
# Building blocks:
#     Node 0, Type 0, BuildingBlock: KAKCAD_clean_linker_0, # of connection points: 3
#     Node 1, Type 0, BuildingBlock: KAKCAD_clean_linker_0, # of connection points: 3
#     Node 2, Type 0, BuildingBlock: KAKCAD_clean_linker_0, # of connection points: 3
#     Node 3, Type 0, BuildingBlock: KAKCAD_clean_linker_0, # of connection points: 3
#     Node 4, Type 0, BuildingBlock: KAKCAD_clean_linker_0, # of connection points: 3
#     Node 5, Type 0, BuildingBlock: KAKCAD_clean_linker_0, # of connection points: 3
#     Node 6, Type 0, BuildingBlock: KAKCAD_clean_linker_0, # of connection points: 3
#     Node 7, Type 0, BuildingBlock: KAKCAD_clean_linker_0, # of connection points: 3
#     Node 8, Type 1, BuildingBlock: INOVEN_clean_sbu_0, # of connection points: 6
#     Node 9, Type 1, BuildingBlock: INOVEN_clean_sbu_0, # of connection points: 6
#     Node 10, Type 1, BuildingBlock: INOVEN_clean_sbu_0, # of connection points: 6
#     Node 11, Type 1, BuildingBlock: INOVEN_clean_sbu_0, # of connection points: 6
#     Edge 12, Type (0, 1), BuildingBlock: XIVTED_clean_linker_0, # of connection points: 2
#     Edge 13, Type (0, 1), BuildingBlock: XIVTED_clean_linker_0, # of connection points: 2
#     Edge 14, Type (0, 1), BuildingBlock: XIVTED_clean_linker_0, # of connection points: 2
#     Edge 15, Type (0, 1), BuildingBlock: XIVTED_clean_linker_0, # of connection points: 2
#     Edge 16, Type (0, 1), BuildingBlock: XIVTED_clean_linker_0, # of connection points: 2
#     Edge 17, Type (0, 1), BuildingBlock: XIVTED_clean_linker_0, # of connection points: 2
#     Edge 18, Type (0, 1), BuildingBlock: XIVTED_clean_linker_0, # of connection points: 2
#     Edge 19, Type (0, 1), BuildingBlock: XIVTED_clean_linker_0, # of connection points: 2
#     Edge 20, Type (0, 1), BuildingBlock: XIVTED_clean_linker_0, # of connection points: 2
#     Edge 21, Type (0, 1), BuildingBlock: XIVTED_clean_linker_0, # of connection points: 2
#     Edge 22, Type (0, 1), BuildingBlock: XIVTED_clean_linker_0, # of connection points: 2
#     Edge 23, Type (0, 1), BuildingBlock: XIVTED_clean_linker_0, # of connection points: 2
#     Edge 24, Type (0, 1), BuildingBlock: XIVTED_clean_linker_0, # of connection points: 2
#     Edge 25, Type (0, 1), BuildingBlock: XIVTED_clean_linker_0, # of connection points: 2
#     Edge 26, Type (0, 1), BuildingBlock: XIVTED_clean_linker_0, # of connection points: 2
#     Edge 27, Type (0, 1), BuildingBlock: XIVTED_clean_linker_0, # of connection points: 2
#     Edge 28, Type (0, 1), BuildingBlock: XIVTED_clean_linker_0, # of connection points: 2
#     Edge 29, Type (0, 1), BuildingBlock: XIVTED_clean_linker_0, # of connection points: 2
#     Edge 30, Type (0, 1), BuildingBlock: XIVTED_clean_linker_0, # of connection points: 2
#     Edge 31, Type (0, 1), BuildingBlock: XIVTED_clean_linker_0, # of connection points: 2
#     Edge 32, Type (0, 1), BuildingBlock: XIVTED_clean_linker_0, # of connection points: 2
#     Edge 33, Type (0, 1), BuildingBlock: XIVTED_clean_linker_0, # of connection points: 2
#     Edge 34, Type (0, 1), BuildingBlock: XIVTED_clean_linker_0, # of connection points: 2
#     Edge 35, Type (0, 1), BuildingBlock: XIVTED_clean_linker_0, # of connection points: 2
# Relax obj value: 0.427
# Max RMSD: 0.269
# Mean RMSD: 0.251
data_MOF--net-zzz--node1-INOVEN_clean_sbu_0--node2-KAKCAD_clean_linker_0--edge1-XIVTED_clean_linker_0
_symmetry_space_group_name_H-M    P1
_symmetry_Int_Tables_number       1
_symmetry_cell_setting            triclinic
loop_
_symmetry_equiv_pos_as_xyz
'x, y, z'
_cell_length_a     59.492988
_cell_length_b     59.552295
_cell_length_c     18.216946
_cell_angle_alpha  89.98285
_cell_angle_beta   90.023311
_cell_angle_gamma 90.117053
loop_
_atom_site_label
_atom_site_type_symbol
_atom_site_fract_x
_atom_site_fract_y
_atom_site_fract_z
_atom_type_partial_charge
C0 C 0.77055 0.53387 0.12227 0.0
C1 C 0.78662 0.5167 0.12388 0.0
C2 C 0.75697 0.53758 0.18354 0.0
C3 C 0.75976 0.52438 0.24679 0.0
C4 C 0.77622 0.50759 0.24836 0.0
C5 C 0.78957 0.50384 0.18755 0.0
C6 C 0.74507 0.52702 0.31073 0.0
C7 C 0.72186 0.52704 0.3022 0.0
C8 C 0.70754 0.52582 0.36307 0.0
C9 C 0.71712 0.52412 0.43485 0.0
C10 C 0.74099 0.52461 0.44313 0.0
C11 C 0.7544 0.52663 0.38066 0.0
C12 C 0.75402 0.52213 0.51279 0.0
C13 C 0.76313 0.54158 0.54501 0.0
C14 C 0.76538 0.50169 0.52451 0.0
C15 C 0.78639 0.50113 0.56009 0.0
C16 C 0.79668 0.52102 0.58569 0.0
C17 C 0.68302 0.52585 0.34491 0.0
C18 C 0.67414 0.54505 0.31056 0.0
C19 C 0.67148 0.50542 0.33575 0.0
C20 C 0.65247 0.50399 0.28957 0.0
C21 C 0.6447 0.5229 0.2499 0.0
C22 C 0.65545 0.54362 0.26367 0.0
C23 C 0.78405 0.54104 0.58118 0.0
H24 H 0.76831 0.54406 0.07356 0.0
H25 H 0.74436 0.55067 0.18165 0.0
H26 H 0.77848 0.497 0.29619 0.0
H27 H 0.80225 0.49082 0.19024 0.0
H28 H 0.7148 0.52707 0.24722 0.0
H29 H 0.77258 0.52692 0.38641 0.0
H30 H 0.70639 0.52251 0.48253 0.0
H31 H 0.75526 0.55771 0.53538 0.0
H32 H 0.75934 0.48651 0.49825 0.0
H33 H 0.79533 0.48533 0.56167 0.0
H34 H 0.68307 0.56089 0.31418 0.0
H35 H 0.67821 0.49016 0.35946 0.0
H36 H 0.79088 0.55666 0.6018 0.0
H37 H 0.65061 0.55862 0.23424 0.0
H38 H 0.64455 0.48777 0.28264 0.0
C39 C 0.99469 0.77365 0.13675 0.0
C40 C 0.01385 0.78717 0.13051 0.0
C41 C 0.99357 0.75767 0.19255 0.0
C42 C 1.0115 0.75561 0.24209 0.0
C43 C 0.03117 0.76813 0.23252 0.0
C44 C 0.03238 0.78381 0.17662 0.0
C45 C 1.00887 0.74258 0.30898 0.0
C46 C 1.00692 0.71946 0.30573 0.0
C47 C 1.00582 0.70665 0.36997 0.0
C48 C 1.00609 0.71777 0.43953 0.0
C49 C 1.00759 0.7417 0.44203 0.0
C50 C 1.00915 0.75358 0.37617 0.0
C51 C 1.00733 0.75614 0.50908 0.0
C52 C 0.98693 0.76637 0.52901 0.0
C53 C 0.02744 0.7669 0.5302 0.0
C54 C 0.02717 0.78815 0.56411 0.0
C55 C 1.00674 0.7994 0.57757 0.0
C56 C 1.00552 0.68194 0.35728 0.0
C57 C 0.98593 0.67236 0.327 0.0
C58 C 0.02613 0.67118 0.34382 0.0
C59 C 0.02742 0.6528 0.29561 0.0
C60 C 1.00809 0.64461 0.25946 0.0
C61 C 0.98718 0.65393 0.27892 0.0
C62 C 0.98662 0.78763 0.56276 0.0
H63 H 0.98021 0.77646 0.10187 0.0
H64 H 0.97826 0.74806 0.20013 0.0
H65 H 0.04507 0.76662 0.27069 0.0
H66 H 0.04714 0.79444 0.1725 0.0
H67 H 1.007 0.71128 0.25243 0.0
H68 H 1.01047 0.77178 0.37708 0.0
H69 H 1.0052 0.70813 0.48985 0.0
H70 H 0.97114 0.759 0.51156 0.0
H71 H 0.04345 0.75997 0.51329 0.0
H72 H 0.04306 0.79651 0.57402 0.0
H73 H 0.96991 0.68072 0.33385 0.0
H74 H 0.04161 0.67852 0.36412 0.0
H75 H 0.97051 0.79537 0.5735 0.0
H76 H 0.97193 0.64831 0.25211 0.0
H77 H 0.0438 0.64588 0.2832 0.0
C78 C 0.75857 0.99693 0.12382 0.0
C79 C 0.74366 0.01506 0.11925 0.0
C80 C 0.77222 0.99456 0.18545 0.0
C81 C 0.77056 1.01004 0.24318 0.0
C82 C 0.75591 0.02831 0.23796 0.0
C83 C 0.74259 0.03085 0.17621 0.0
C84 C 0.78393 1.00729 0.30963 0.0
C85 C 0.80714 1.00633 0.30491 0.0
C86 C 0.82047 1.00577 0.36806 0.0
C87 C 0.80983 1.00606 0.43845 0.0
C88 C 0.78585 1.00668 0.44268 0.0
C89 C 0.77341 1.00719 0.37766 0.0
C90 C 0.77189 1.00781 0.51078 0.0
C91 C 0.76123 0.98806 0.53563 0.0
C92 C 0.76166 0.02848 0.52767 0.0
C93 C 0.74036 0.02929 0.56096 0.0
C94 C 0.72869 1.00945 0.57931 0.0
C95 C 0.84511 1.00504 0.35304 0.0
C96 C 0.85378 0.98506 0.32318 0.0
C97 C 0.85641 0.02527 0.3367 0.0
C98 C 0.87447 0.02572 0.28655 0.0
C99 C 0.88143 1.00597 0.25063 0.0
C100 C 0.87153 0.98552 0.27243 0.0
C101 C 0.73999 0.98887 0.56996 0.0
H102 H 0.75924 0.98443 0.08068 0.0
H103 H 0.78352 0.98036 0.18919 0.0
H104 H 0.75459 0.04045 0.28208 0.0
H105 H 0.7307 0.04462 0.17444 0.0
H106 H 0.815 1.00664 0.25108 0.0
H107 H 0.75517 1.00789 0.37998 0.0
H108 H 0.81985 1.00587 0.48805 0.0
H109 H 0.76815 0.97183 0.52131 0.0
H110 H 0.76895 0.04397 0.50734 0.0
H111 H 0.73239 0.04548 0.56811 0.0
H112 H 0.84507 0.9693 0.33236 0.0
H113 H 0.8497 0.04106 0.3564 0.0
H114 H 0.7316 0.97323 0.58309 0.0
H115 H 0.87656 0.96994 0.24663 0.0
H116 H 0.88161 0.04178 0.2711 0.0
C117 C 0.50027 0.74161 0.56799 0.0
C118 C 0.52048 0.72952 0.57688 0.0
C119 C 0.50011 0.76291 0.53395 0.0
C120 C 0.52014 0.77296 0.50863 0.0
C121 C 0.54047 0.76186 0.52425 0.0
C122 C 0.54065 0.74053 0.55759 0.0
C123 C 0.51929 0.78753 0.44163 0.0
C124 C 0.51962 0.81157 0.43918 0.0
C125 C 0.5193 0.82274 0.36956 0.0
C126 C 0.51883 0.80987 0.30555 0.0
C127 C 0.51887 0.78662 0.30829 0.0
C128 C 0.51883 0.77561 0.37561 0.0
C129 C 0.51825 0.77365 0.24023 0.0
C130 C 0.50209 0.77866 0.18671 0.0
C131 C 0.53264 0.75525 0.23096 0.0
C132 C 0.52972 0.74097 0.17145 0.0
C133 C 0.51234 0.745 0.12125 0.0
C134 C 0.52029 0.84747 0.35567 0.0
C135 C 0.50028 0.85866 0.33639 0.0
C136 C 0.54064 0.85629 0.32852 0.0
C137 C 0.54081 0.8741 0.27782 0.0
C138 C 0.52064 0.8839 0.25292 0.0
C139 C 0.50045 0.87669 0.28611 0.0
C140 C 0.49913 0.76435 0.12741 0.0
H141 H 0.48433 0.73387 0.58171 0.0
H142 H 0.48407 0.77047 0.52059 0.0
H143 H 0.55616 0.76861 0.50351 0.0
H144 H 0.55664 0.73213 0.56457 0.0
H145 H 0.52029 0.82121 0.4895 0.0
H146 H 0.51835 0.75738 0.37668 0.0
H147 H 0.51887 0.81814 0.25237 0.0
H148 H 0.49079 0.79277 0.19317 0.0
H149 H 0.5454 0.75137 0.2715 0.0
H150 H 0.53984 0.72589 0.16791 0.0
H151 H 0.48424 0.85189 0.35385 0.0
H152 H 0.55629 0.84768 0.33986 0.0
H153 H 0.48555 0.76751 0.08915 0.0
H154 H 0.48452 0.88366 0.26868 0.0
H155 H 0.55678 0.87935 0.25498 0.0
C156 C 0.26381 0.51867 0.29518 0.0
C157 C 0.24379 0.50628 0.29885 0.0
C158 C 0.27832 0.51578 0.23619 0.0
C159 C 0.27307 0.50031 0.1805 0.0
C160 C 0.25402 0.48663 0.1873 0.0
C161 C 0.23941 0.48967 0.24584 0.0
C162 C 0.28584 0.50069 0.11155 0.0
C163 C 0.30904 0.50297 0.11306 0.0
C164 C 0.32122 0.50774 0.04936 0.0
C165 C 0.30964 0.50892 0.98072 0.0
C166 C 0.2859 0.50529 0.97873 0.0
C167 C 0.27448 0.50157 0.04474 0.0
C168 C 0.27114 0.50565 0.91214 0.0
C169 C 0.26199 0.52605 0.88762 0.0
C170 C 0.25955 0.4858 0.89416 0.0
C171 C 0.23838 0.48638 0.86006 0.0
C172 C 0.228 0.50692 0.84074 0.0
C173 C 0.34548 0.51274 0.06281 0.0
C174 C 0.35056 0.5323 0.10292 0.0
C175 C 0.36088 0.49491 0.06606 0.0
C176 C 0.37976 0.49589 0.11277 0.0
C177 C 0.38352 0.51451 0.15963 0.0
C178 C 0.36898 0.53308 0.1511 0.0
C179 C 0.24099 0.52667 0.8515 0.0
H180 H 0.26761 0.53145 0.33564 0.0
H181 H 0.29283 0.52672 0.23184 0.0
H182 H 0.24979 0.47445 0.14529 0.0
H183 H 0.22392 0.48008 0.24651 0.0
H184 H 0.31771 0.50205 0.16546 0.0
H185 H 0.25628 0.50021 0.04416 0.0
H186 H 0.31875 0.51266 0.93075 0.0
H187 H 0.27012 0.54174 0.90194 0.0
H188 H 0.26574 0.4698 0.91403 0.0
H189 H 0.22977 0.47053 0.85431 0.0
H190 H 0.33866 0.54605 0.10392 0.0
H191 H 0.35721 0.47935 0.03766 0.0
H192 H 0.2347 0.54295 0.83559 0.0
H193 H 0.37055 0.54778 0.18546 0.0
H194 H 0.39069 0.48143 0.11443 0.0
C195 C 1.00857 0.26525 0.2893 0.0
C196 C 0.02066 0.24514 0.29241 0.0
C197 C 1.0123 0.28023 0.23235 0.0
C198 C 0.02828 0.27532 0.17799 0.0
C199 C 0.04192 0.25625 0.1852 0.0
C200 C 0.03811 0.24118 0.2423 0.0
C201 C 0.02786 0.28809 0.10905 0.0
C202 C 0.02511 0.31123 0.11072 0.0
C203 C 0.01977 0.32331 0.04736 0.0
C204 C 0.01792 0.31164 0.97908 0.0
C205 C 0.0218 0.28797 0.97685 0.0
C206 C 0.02663 0.2767 0.04236 0.0
C207 C 0.02012 0.27311 0.91076 0.0
C208 C 0.99922 0.26365 0.89192 0.0
C209 C 0.03964 0.26182 0.88744 0.0
C210 C 0.03839 0.24078 0.85256 0.0
C211 C 0.0175 0.23026 0.83913 0.0
C212 C 0.01591 0.34776 0.06033 0.0
C213 C 0.99562 0.35432 0.09402 0.0
C214 C 0.03488 0.36154 0.07085 0.0
C215 C 0.0342 0.3799 0.11933 0.0
C216 C 0.01449 0.38515 0.15869 0.0
C217 C 0.99488 0.37281 0.14227 0.0
C218 C 0.99792 0.24269 0.8561 0.0
H219 H 0.99509 0.26856 0.32781 0.0
H220 H 1.00137 0.29469 0.2277 0.0
H221 H 0.05447 0.25228 0.14414 0.0
H222 H 0.04753 0.22562 0.24364 0.0
H223 H 0.02627 0.31993 0.16301 0.0
H224 H 0.02823 0.25854 0.04178 0.0
H225 H 0.0136 0.32066 0.92945 0.0
H226 H 0.98385 0.27147 0.91075 0.0
H227 H 0.05602 0.26819 0.90316 0.0
H228 H 0.05398 0.23211 0.84153 0.0
H229 H 0.98091 0.34365 0.08956 0.0
H230 H 0.05094 0.35662 0.04797 0.0
H231 H 0.98143 0.23579 0.84512 0.0
H232 H 0.9794 0.37618 0.17147 0.0
H233 H 0.04957 0.38917 0.12937 0.0
C234 C 0.26355 0.01352 0.2882 0.0
C235 C 0.284 0.02515 0.29128 0.0
C236 C 0.2487 0.01748 0.23101 0.0
C237 C 0.25401 0.03328 0.17637 0.0
C238 C 0.27352 0.04639 0.18325 0.0
C239 C 0.28849 0.04231 0.24045 0.0
C240 C 0.24112 0.03309 0.10749 0.0
C241 C 0.21797 0.03007 0.1095 0.0
C242 C 0.20603 0.02335 0.04721 0.0
C243 C 0.21761 0.0213 0.97894 0.0
C244 C 0.24109 0.02618 0.97573 0.0
C245 C 0.25241 0.03173 0.04064 0.0
C246 C 0.25576 0.0247 0.90926 0.0
C247 C 0.26507 1.00394 0.88892 0.0
C248 C 0.26698 0.04432 0.88648 0.0
C249 C 0.28795 0.04331 0.85135 0.0
C250 C 0.29842 0.02254 0.83623 0.0
C251 C 0.18218 0.01705 0.0621 0.0
C252 C 0.17833 0.99787 0.1056 0.0
C253 C 0.16576 0.03397 0.06256 0.0
C254 C 0.14714 0.03268 0.11009 0.0
C255 C 0.14466 0.01469 0.16029 0.0
C256 C 0.16007 0.99679 0.15439 0.0
C257 C 0.28591 1.00287 0.85215 0.0
H258 H 0.25975 1.00033 0.32726 0.0
H259 H 0.23395 1.00686 0.22666 0.0
H260 H 0.27785 0.05878 0.142 0.0
H261 H 0.3043 0.05137 0.24162 0.0
H262 H 0.20931 0.03143 0.16178 0.0
H263 H 0.27055 0.03368 0.03953 0.0
H264 H 0.2087 0.01592 0.93017 0.0
H265 H 0.25722 0.98848 0.90708 0.0
H266 H 0.26066 0.0606 0.90312 0.0
H267 H 0.29653 0.05903 0.84153 0.0
H268 H 0.19102 0.98487 0.10857 0.0
H269 H 0.16844 0.04923 0.03139 0.0
H270 H 0.29258 0.98644 0.83964 0.0
H271 H 0.1593 0.98262 0.19144 0.0
H272 H 0.1354 0.04651 0.10994 0.0
C273 C 0.48922 0.28685 0.84344 0.0
C274 C 0.5093 0.29908 0.8344 0.0
C275 C 0.48926 0.26557 0.87686 0.0
C276 C 0.50932 0.25603 0.90338 0.0
C277 C 0.52963 0.26731 0.88788 0.0
C278 C 0.52964 0.2885 0.85335 0.0
C279 C 0.50794 0.24217 0.97152 0.0
C280 C 0.5108 0.21844 0.97699 0.0
C281 C 0.50958 0.20792 0.04736 0.0
C282 C 0.5058 0.22114 0.10962 0.0
C283 C 0.50372 0.24426 0.1039 0.0
C284 C 0.50428 0.25455 0.03545 0.0
C285 C 0.50433 0.25817 0.16981 0.0
C286 C 0.4883 0.25571 0.22577 0.0
C287 C 0.52148 0.27416 0.17629 0.0
C288 C 0.52242 0.28791 0.23732 0.0
C289 C 0.50615 0.28595 0.29246 0.0
C290 C 0.51271 0.18355 0.06282 0.0
C291 C 0.49347 0.17014 0.07249 0.0
C292 C 0.53278 0.17669 0.09716 0.0
C293 C 0.5331 0.15813 0.14499 0.0
C294 C 0.51329 0.146 0.16018 0.0
C295 C 0.49375 0.15162 0.12035 0.0
C296 C 0.48901 0.26989 0.28681 0.0
H297 H 0.47326 0.29437 0.82892 0.0
H298 H 0.47327 0.25778 0.88979 0.0
H299 H 0.54529 0.26094 0.90987 0.0
H300 H 0.54542 0.29744 0.8476 0.0
H301 H 0.51401 0.20853 0.92832 0.0
H302 H 0.50266 0.27269 0.03227 0.0
H303 H 0.50559 0.21344 0.16369 0.0
H304 H 0.47499 0.24335 0.22112 0.0
H305 H 0.53407 0.27612 0.13374 0.0
H306 H 0.53541 0.30067 0.24032 0.0
H307 H 0.47759 0.17533 0.04889 0.0
H308 H 0.54768 0.18712 0.0932 0.0
H309 H 0.47612 0.26864 0.3286 0.0
H310 H 0.47824 0.14249 0.1294 0.0
H311 H 0.54845 0.15453 0.1747 0.0
Gd312 Gd 0.03072 0.01338 0.74895 0.0
Gd313 Gd 0.9932 0.0173 0.65598 0.0
C314 C 1.0078 0.96743 0.68002 0.0
C315 C 0.0574 0.9996 0.84966 0.0
C316 C 0.05588 0.97744 0.88351 0.0
C317 C 0.07528 0.96463 0.8953 0.0
C318 C 0.03458 0.96746 0.89091 0.0
C319 C 0.05203 0.93185 0.91629 0.0
C320 C 0.03269 0.94479 0.90662 0.0
C321 C 0.07335 0.94186 0.91268 0.0
C322 C 0.04342 0.02217 0.60839 0.0
C323 C 0.01641 0.06328 0.72213 0.0
C324 C 0.96688 0.03122 0.55476 0.0
C325 C 0.96901 0.05324 0.51981 0.0
C326 C 0.95065 0.06793 0.51884 0.0
C327 C 0.99056 0.06132 0.50196 0.0
C328 C 0.9757 0.09881 0.48914 0.0
C329 C 0.99384 0.08387 0.48663 0.0
C330 C 0.95396 0.09065 0.50326 0.0
C331 C 0.97993 1.00754 0.79496 0.0
O332 O 0.02038 0.97645 0.73235 0.0
O333 O 0.99604 0.98045 0.63641 0.0
O334 O 0.06279 0.99912 0.78025 0.0
O335 O 0.04053 0.013 0.86336 0.0
O336 O 0.05212 0.03171 0.6657 0.0
O337 O 0.02834 1.00849 0.6284 0.0
O338 O 1.00339 0.05414 0.67145 0.0
O339 O 0.02856 0.05056 0.76554 0.0
O340 O 0.9614 0.03205 0.62411 0.0
O341 O 0.98328 0.0172 0.5417 0.0
O342 O 0.97158 0.99858 0.7361 0.0
O343 O 0.99531 0.02139 0.77764 0.0
H344 H 0.0918 0.97201 0.88844 0.0
H345 H 0.01931 0.97691 0.88118 0.0
H346 H 0.0161 0.93731 0.91077 0.0
H347 H 0.08838 0.93195 0.92119 0.0
H348 H 0.93404 0.06209 0.53409 0.0
H349 H 1.00518 0.0505 0.50375 0.0
H350 H 1.01069 0.08971 0.47435 0.0
H351 H 0.93974 0.10195 0.50541 0.0
Gd352 Gd 0.51568 0.03275 0.75129 0.0
Gd353 Gd 0.51132 0.99611 0.65651 0.0
C354 C 0.56102 1.0103 0.68257 0.0
C355 C 0.52985 0.05942 0.85144 0.0
C356 C 0.55047 0.0556 0.8929 0.0
C357 C 0.56591 0.07308 0.90334 0.0
C358 C 0.5569 0.03335 0.90717 0.0
C359 C 0.59453 0.04582 0.93612 0.0
C360 C 0.57872 0.0285 0.92804 0.0
C361 C 0.58785 0.06823 0.92537 0.0
C362 C 0.50621 0.04676 0.6123 0.0
C363 C 0.46563 0.01887 0.72444 0.0
C364 C 0.49696 0.96979 0.55565 0.0
C365 C 0.47476 0.97189 0.52151 0.0
C366 C 0.4595 0.95395 0.52506 0.0
C367 C 0.46715 0.99324 0.49988 0.0
C368 C 0.4291 0.97916 0.49256 0.0
C369 C 0.44456 0.9968 0.48538 0.0
C370 C 0.43676 0.95755 0.51042 0.0
C371 C 0.52145 0.98194 0.79472 0.0
O372 O 0.55202 0.02005 0.74073 0.0
O373 O 0.54788 1.00121 0.63288 0.0
O374 O 0.53326 0.06322 0.78176 0.0
O375 O 0.51377 0.04485 0.86318 0.0
O376 O 0.49717 0.05487 0.67117 0.0
O377 O 0.51987 0.0314 0.62964 0.0
O378 O 0.47465 1.0066 0.67173 0.0
O379 O 0.47855 0.03028 0.76948 0.0
O380 O 0.49642 0.96428 0.62497 0.0
O381 O 0.51104 0.98615 0.54219 0.0
O382 O 0.53041 0.97413 0.7351 0.0
O383 O 0.50753 0.99731 0.77869 0.0
H384 H 0.56134 0.09026 0.89081 0.0
H385 H 0.54551 0.01945 0.89731 0.0
H386 H 0.58343 1.01104 0.93401 0.0
H387 H 0.59971 0.0819 0.93195 0.0
H388 H 0.46496 0.93751 0.54318 0.0
H389 H 0.47839 1.00758 0.49799 0.0
H390 H 0.43912 0.01352 0.47008 0.0
H391 H 0.42506 0.9437 0.51621 0.0
Gd392 Gd 0.49288 0.51697 0.75994 0.0
Gd393 Gd 0.53532 0.51077 0.65192 0.0
C394 C 0.51748 0.5613 0.6835 0.0
C395 C 0.47056 0.52789 0.87349 0.0
C396 C 0.47238 0.54983 0.90886 0.0
C397 C 0.45328 0.56349 0.91304 0.0
C398 C 0.49377 0.5593 0.91978 0.0
C399 C 0.47709 0.59608 0.93162 0.0
C400 C 0.4961 0.58222 0.93129 0.0
C401 C 0.45562 0.58651 0.92412 0.0
C402 C 0.4787 0.5107 0.6185 0.0
C403 C 0.51028 0.46656 0.7265 0.0
C404 C 0.55869 0.49914 0.541 0.0
C405 C 0.5564 0.47785 0.50121 0.0
C406 C 0.57393 0.46208 0.50409 0.0
C407 C 0.53519 0.47122 0.47507 0.0
C408 C 0.54861 0.4332 0.46025 0.0
C409 C 0.53138 0.44911 0.45463 0.0
C410 C 0.57 0.43977 0.48423 0.0
C411 C 0.54911 0.5177 0.79362 0.0
O412 O 0.50372 0.55309 0.73475 0.0
O413 O 0.53032 0.5482 0.64193 0.0
O414 O 0.46199 0.52898 0.80739 0.0
O415 O 0.48832 0.51487 0.8777 0.0
O416 O 0.46538 0.51378 0.67382 0.0
O417 O 0.4986 0.51054 0.64319 0.0
O418 O 0.52376 0.47487 0.6748 0.0
O419 O 0.49775 0.47955 0.76923 0.0
O420 O 0.56586 0.49666 0.60845 0.0
O421 O 0.54191 0.5134 0.53532 0.0
O422 O 0.56267 0.5146 0.73902 0.0
O423 O 0.5294 0.51731 0.768 0.0
H424 H 0.43671 0.5566 0.90261 0.0
H425 H 0.50884 0.54926 0.91516 0.0
H426 H 0.51282 0.58911 0.93855 0.0
H427 H 0.4407 0.59691 0.92377 0.0
H428 H 0.59026 0.46673 0.5257 0.0
H429 H 0.52115 0.48276 0.47408 0.0
H430 H 0.51463 0.44423 0.43732 0.0
H431 H 0.58346 0.42762 0.48883 0.0
Gd432 Gd 1.01025 0.49493 0.75355 0.0
Gd433 Gd 0.01519 0.5344 0.65801 0.0
C434 C 0.9647 0.52038 0.69056 0.0
C435 C 0.99546 0.46701 0.84885 0.0
C436 C 0.97332 0.46857 0.88396 0.0
C437 C 0.95717 0.45189 0.87046 0.0
C438 C 0.96661 0.489 0.9156 0.0
C439 C 0.92772 0.4773 0.90994 0.0
C440 C 0.94404 0.49334 0.92835 0.0
C441 C 0.93448 0.45621 0.88343 0.0
C442 C 0.0212 0.48364 0.61372 0.0
C443 C 0.06006 0.51189 0.73262 0.0
C444 C 0.02701 0.55661 0.54399 0.0
C445 C 0.04799 0.55253 0.50472 0.0
C446 C 0.06162 0.57054 0.48282 0.0
C447 C 0.05672 0.53068 0.50503 0.0
C448 C 0.09285 0.54485 0.4653 0.0
C449 C 0.07893 0.52691 0.48627 0.0
C450 C 0.08396 0.5667 0.46267 0.0
C451 C 1.01123 0.55175 0.79499 0.0
O452 O 0.97361 0.50478 0.73354 0.0
O453 O 0.97754 0.5345 0.65362 0.0
O454 O 0.99458 0.46301 0.77836 0.0
O455 O 1.00992 0.48282 0.86566 0.0
O456 O 0.03004 0.47473 0.67184 0.0
O457 O 1.00726 0.49864 0.63285 0.0
O458 O 0.05153 0.52363 0.67762 0.0
O459 O 0.04685 0.50051 0.77716 0.0
O460 O 0.03015 0.56414 0.61044 0.0
O461 O 1.01208 0.54044 0.54101 0.0
O462 O 1.01228 0.56344 0.7354 0.0
O463 O 1.01087 0.53092 0.77987 0.0
H464 H 0.96193 0.43614 0.84512 0.0
H465 H 0.97862 0.5022 0.92651 0.0
H466 H 0.93932 0.50951 0.95078 0.0
H467 H 0.92218 0.44353 0.86902 0.0
H468 H 0.05532 0.58758 0.48456 0.0
H469 H 0.04681 0.51659 0.52426 0.0
H470 H 0.08539 0.50998 0.4912 0.0
H471 H 0.09433 0.58082 0.44646 0.0
H472 H 0.12566 0.05201 0.22757 0.0
H473 H 0.05932 0.98404 0.54156 0.0
H474 H 0.12451 0.97949 0.23844 0.0
H475 H 0.05738 0.05594 0.5178 0.0
H476 H 0.08306 0.9817 0.43115 0.0
H477 H 0.10003 0.05332 0.33103 0.0
C478 C 0.11994 0.03625 0.25039 0.0
C479 C 0.1276 0.01556 0.22223 0.0
C480 C 0.07721 0.99797 0.44937 0.0
C481 C 0.0983 0.01717 0.34508 0.0
C482 C 0.06356 0.9993 0.51221 0.0
C483 C 0.05619 0.02022 0.53837 0.0
C484 C 0.08337 0.01771 0.41171 0.0
C485 C 0.06267 0.03949 0.4994 0.0
C486 C 0.10535 0.0371 0.31076 0.0
C487 C 0.11966 0.99595 0.25764 0.0
N488 N 0.07576 0.03777 0.43813 0.0
N489 N 0.10565 0.99726 0.31696 0.0
H490 H 0.54485 0.1142 0.20308 0.0
H491 H 0.47852 0.08085 0.5711 0.0
H492 H 0.47976 0.14033 0.26213 0.0
H493 H 0.53493 0.04236 0.49306 0.0
H494 H 0.4802 0.10378 0.46006 0.0
H495 H 0.54312 0.08895 0.30997 0.0
C496 C 0.53015 0.1146 0.2381 0.0
C497 C 0.51232 0.1294 0.22254 0.0
C498 C 0.49217 0.09025 0.46666 0.0
C499 C 0.51035 0.10055 0.34588 0.0
C500 C 0.4912 0.0771 0.53028 0.0
C501 C 0.50655 0.05956 0.54165 0.0
C502 C 0.50876 0.08612 0.41341 0.0
C503 C 0.52268 0.05562 0.48659 0.0
C504 C 0.52916 0.1001 0.29907 0.0
C505 C 0.49374 0.12902 0.27041 0.0
N506 N 0.52346 0.06887 0.42517 0.0
N507 N 0.49333 0.11503 0.32961 0.0
H508 H 0.40352 0.47751 0.22822 0.0
H509 H 0.458 0.54639 0.55726 0.0
H510 H 0.40426 0.55014 0.23407 0.0
H511 H 0.47869 0.47887 0.50784 0.0
H512 H 0.43699 0.54762 0.44167 0.0
H513 H 0.4298 0.47713 0.33066 0.0
C514 C 0.40921 0.49348 0.24952 0.0
C515 C 0.40109 0.51394 0.22047 0.0
C516 C 0.44651 0.53268 0.45495 0.0
C517 C 0.43111 0.51332 0.342 0.0
C518 C 0.45869 0.53204 0.52077 0.0
C519 C 0.47076 0.51277 0.54121 0.0
C520 C 0.44574 0.51365 0.40941 0.0
C521 C 0.47026 0.49432 0.49314 0.0
C522 C 0.42424 0.49313 0.30912 0.0
C523 C 0.40917 0.5338 0.25403 0.0
N524 N 0.45779 0.49513 0.42993 0.0
N525 N 0.42336 0.53294 0.31289 0.0
H526 H 0.98297 0.41721 0.20063 0.0
H527 H 0.04886 0.44979 0.57097 0.0
H528 H 0.04731 0.39008 0.2634 0.0
H529 H 0.99259 0.48864 0.49353 0.0
H530 H 0.04703 0.42701 0.45991 0.0
H531 H 0.98454 0.44245 0.30781 0.0
C532 C 0.99746 0.41657 0.23656 0.0
C533 C 0.01516 0.40154 0.22185 0.0
C534 C 0.03513 0.4406 0.46651 0.0
C535 C 0.01694 0.43035 0.3456 0.0
C536 C 0.03619 0.4537 0.5302 0.0
C537 C 0.02092 0.47129 0.54198 0.0
C538 C 0.01855 0.44481 0.41328 0.0
C539 C 1.00481 0.47535 0.48685 0.0
C540 C 0.99836 0.43107 0.29771 0.0
C541 C 0.03345 0.40159 0.27096 0.0
N542 N 1.00395 0.46215 0.42522 0.0
N543 N 0.03377 0.41556 0.33022 0.0
H544 H 0.87543 0.98543 0.11809 0.0
H545 H 0.98961 0.02925 0.92686 0.0
H546 H 0.92192 0.02886 0.23145 0.0
H547 H 0.94025 0.98653 0.82388 0.0
H548 H 0.96625 0.02975 0.03911 0.0
H549 H 0.89964 0.98636 1.01038 0.0
C550 C 0.89093 0.99498 0.12075 0.0
C551 C 0.89673 1.00676 0.18487 0.0
C552 C 0.96059 0.02029 0.99184 0.0
C553 C 0.9249 1.00806 0.05984 0.0
C554 C 0.97396 0.01995 0.92779 0.0
C555 C 0.96699 1.00777 0.86555 0.0
C556 C 0.94005 1.00843 0.9936 0.0
C557 C 0.94648 0.99609 0.87018 0.0
C558 C 0.90477 0.99562 0.05872 0.0
C559 C 0.91678 0.01941 0.18354 0.0
N560 N 0.93386 0.99676 0.93245 0.0
N561 N 0.93019 0.01962 0.12237 0.0
H562 H 0.49414 0.92168 0.22755 0.0
H563 H 0.54627 0.9448 0.82644 0.0
H564 H 0.54661 0.8822 0.12793 0.0
H565 H 0.49716 0.9888 0.92357 0.0
H566 H 0.54585 0.92187 0.93729 0.0
H567 H 0.4941 0.94623 0.11875 0.0
C568 C 0.50569 0.91813 0.18315 0.0
C569 C 0.5206 0.89981 0.18815 0.0
C570 C 0.53519 0.93656 0.93498 0.0
C571 C 0.52055 0.92801 0.06246 0.0
C572 C 0.53545 0.94976 0.87135 0.0
C573 C 0.52176 0.96888 0.86518 0.0
C574 C 0.52113 0.94231 0.99408 0.0
C575 C 0.50804 0.97427 0.92568 0.0
C576 C 0.50569 0.93225 0.12097 0.0
C577 C 0.53514 0.89628 0.12822 0.0
N578 N 0.50803 0.96106 0.98737 0.0
N579 N 0.53469 0.9101 0.0685 0.0
H580 H 0.63423 0.4862 0.16183 0.0
H581 H 0.54969 0.55233 0.89389 0.0
H582 H 0.61426 0.55498 0.19903 0.0
H583 H 0.56838 0.4831 0.86641 0.0
H584 H 0.57053 0.55315 0.01093 0.0
H585 H 0.60772 0.48416 0.06027 0.0
C586 C 0.62419 0.50087 0.14987 0.0
C587 C 0.62694 0.52086 0.19038 0.0
C588 C 0.56966 0.53761 0.9802 0.0
C589 C 0.59649 0.5187 0.07048 0.0
C590 C 0.55746 0.53708 0.9139 0.0
C591 C 0.55669 0.51741 0.8715 0.0
C592 C 0.58145 0.51839 1.00391 0.0
C593 C 0.5681 0.49846 0.8982 0.0
C594 C 0.60907 0.49971 0.09077 0.0
C595 C 0.6134 0.53927 0.16943 0.0
N596 N 0.57998 0.49943 0.96216 0.0
N597 N 0.59901 0.53779 0.11108 0.0
H598 H 0.04026 0.64359 0.15129 0.0
H599 H 0.99073 0.53867 0.92551 0.0
H600 H 0.98006 0.6091 0.22073 0.0
H601 H 0.03308 0.58989 0.83209 0.0
H602 H 0.99055 0.55962 0.04272 0.0
H603 H 0.04203 0.61929 0.04366 0.0
C604 C 0.02756 0.63068 0.1448 0.0
C605 C 1.01003 0.62846 0.19614 0.0
C606 C 1.00001 0.56612 0.9966 0.0
C607 C 1.01188 0.60047 0.071 0.0
C608 C 1.00028 0.55404 0.93004 0.0
C609 C 1.01202 0.56243 0.86904 0.0
C610 C 1.01195 0.58651 1.00244 0.0
C611 C 0.02375 0.58277 0.87755 0.0
C612 C 0.02849 0.61691 0.08261 0.0
C613 C 0.99384 0.6116 0.18284 0.0
N614 N 0.02351 0.59398 0.94264 0.0
N615 N 0.99517 0.59827 0.12185 0.0
H616 H 0.9779 0.23016 0.30068 0.0
H617 H 1.00925 0.12452 0.54724 0.0
H618 H 0.04466 0.21795 0.38436 0.0
H619 H 0.95145 0.12755 0.40407 0.0
H620 H 0.01883 0.16304 0.51292 0.0
H621 H 0.96455 0.1967 0.364 0.0
C622 C 0.98961 0.22068 0.33407 0.0
C623 C 1.01234 0.22676 0.33829 0.0
C624 C 1.00394 0.1553 0.4897 0.0
C625 C 0.99731 0.18846 0.40933 0.0
C626 C 0.99852 0.13339 0.50892 0.0
C627 C 0.97979 0.12284 0.47709 0.0
C628 C 0.99043 0.16664 0.43885 0.0
C629 C 0.96604 0.13514 0.42957 0.0
C630 C 0.98203 0.20154 0.36955 0.0
C631 C 0.027 0.21368 0.38025 0.0
N632 N 0.97179 0.15641 0.41118 0.0
N633 N 0.01923 0.19496 0.41416 0.0
H634 H 0.29698 0.98196 0.30947 0.0
H635 H 0.40479 0.01445 0.54504 0.0
H636 H 0.31221 0.04964 0.37871 0.0
H637 H 0.39891 0.95403 0.41533 0.0
H638 H 0.36634 0.02443 0.51126 0.0
H639 H 0.32983 0.96858 0.37589 0.0
C640 C 0.30697 0.99392 0.34029 0.0
C641 C 0.30195 0.01691 0.33926 0.0
C642 C 0.37343 1.00888 0.49095 0.0
C643 C 0.33962 1.00179 0.41373 0.0
C644 C 0.39531 1.00323 0.50983 0.0
C645 C 0.40507 0.98364 0.48143 0.0
C646 C 0.3613 0.99474 0.44392 0.0
C647 C 0.39197 0.96931 0.43803 0.0
C648 C 0.32578 0.9863 0.37755 0.0
C649 C 0.31568 0.0318 0.3783 0.0
N650 N 0.37074 0.97529 0.41982 0.0
N651 N 0.33409 0.02397 0.4138 0.0
H652 H 0.53502 0.29026 0.40659 0.0
H653 H 0.52982 0.41754 0.33581 0.0
H654 H 0.47873 0.3215 0.29876 0.0
H655 H 0.55542 0.39605 0.54599 0.0
H656 H 0.51556 0.37973 0.31418 0.0
H657 H 0.5451 0.32665 0.46099 0.0
C658 C 0.52415 0.30459 0.39782 0.0
C659 C 0.506 0.30317 0.34906 0.0
C660 C 0.52417 0.38333 0.36526 0.0
C661 C 0.51793 0.34436 0.40679 0.0
C662 C 0.5325 0.40472 0.37711 0.0
C663 C 0.54351 0.40973 0.44285 0.0
C664 C 0.527 0.36686 0.4194 0.0
C665 C 0.547 0.3926 0.49449 0.0
C666 C 0.53003 0.32528 0.42788 0.0
C667 C 0.49266 0.32208 0.33704 0.0
N668 N 0.53869 0.37169 0.4817 0.0
N669 N 0.49927 0.34216 0.36418 0.0
H670 H 0.23089 0.54881 0.33563 0.0
H671 H 0.10986 0.50906 0.39145 0.0
H672 H 0.2154 0.47894 0.37547 0.0
H673 H 0.13 0.5704 0.50032 0.0
H674 H 0.1491 0.49968 0.37362 0.0
H675 H 0.1952 0.55922 0.39209 0.0
C676 C 0.22039 0.53569 0.35858 0.0
C677 C 0.22587 0.51291 0.34989 0.0
C678 C 0.14491 0.51509 0.40209 0.0
C679 C 0.18508 0.52474 0.41168 0.0
C680 C 0.12254 0.5205 0.41212 0.0
C681 C 0.11665 0.54038 0.44841 0.0
C682 C 0.16155 0.52989 0.42674 0.0
C683 C 0.13383 0.55497 0.47161 0.0
C684 C 0.20001 0.54169 0.39029 0.0
C685 C 0.2115 0.49664 0.37959 0.0
N686 N 0.15569 0.5495 0.45982 0.0
N687 N 0.19143 0.50285 0.40768 0.0
H688 H 1.00679 0.82837 0.1821 0.0
H689 H 0.03221 0.89942 0.83374 0.0
H690 H 0.0215 0.79179 0.9837 0.0
H691 H 0.06447 0.91153 0.04186 0.0
H692 H 0.02014 0.86226 0.87771 0.0
H693 H 0.01697 0.86333 0.12019 0.0
C694 C 1.01148 0.82794 0.1246 0.0
C695 C 0.01345 0.80758 0.08719 0.0
C696 C 0.03025 0.87296 0.91279 0.0
C697 C 0.02541 0.84682 0.01764 0.0
C698 C 0.03719 0.89391 0.88784 0.0
C699 C 0.04935 0.90818 0.93451 0.0
C700 C 0.03501 0.86694 0.98524 0.0
C701 C 0.05527 0.90076 1.00448 0.0
C702 C 0.01753 0.84767 0.08992 0.0
C703 C 0.01979 0.80745 0.01335 0.0
N704 N 0.04764 0.88067 0.02847 0.0
N705 N 0.02581 0.82701 0.98043 0.0
H706 H 0.73427 0.05028 0.02982 0.0
H707 H 0.60993 0.01333 0.02859 0.0
H708 H 0.71389 0.98267 0.08302 0.0
H709 H 0.63266 0.06492 0.87887 0.0
H710 H 0.64865 1.00216 0.04806 0.0
H711 H 0.69837 0.05602 0.96715 0.0
C712 C 0.72252 0.03641 0.02553 0.0
C713 C 0.7267 0.01608 0.06156 0.0
C714 C 0.64515 0.01575 1.01022 0.0
C715 C 0.68586 0.02261 0.99279 0.0
C716 C 0.62307 0.02222 0.99936 0.0
C717 C 0.61807 0.04006 0.95193 0.0
C718 C 0.66242 0.02752 0.97473 0.0
C719 C 0.63582 0.05132 0.91686 0.0
C720 C 0.7021 0.03968 0.99023 0.0
C721 C 0.71114 0.99856 0.05548 0.0
N722 N 0.65735 0.04498 0.92956 0.0
N723 N 0.69104 1.00241 0.02322 0.0
H724 H 0.47137 0.72625 0.12029 0.0
H725 H 0.50872 0.62372 0.86964 0.0
H726 H 0.53678 0.72191 0.01923 0.0
H727 H 0.45156 0.62367 0.0159 0.0
H728 H 0.51547 0.66317 0.89992 0.0
H729 H 0.46008 0.69214 0.05718 0.0
C730 C 0.48309 0.71838 0.08277 0.0
C731 C 0.50486 0.72682 0.07365 0.0
C732 C 0.50132 0.65452 0.92451 0.0
C733 C 0.49235 0.68768 1.0029 0.0
C734 C 0.49752 0.63206 0.90767 0.0
C735 C 0.47977 0.62041 0.94144 0.0
C736 C 0.48718 0.66522 0.97499 0.0
C737 C 0.46539 0.63205 0.98862 0.0
C738 C 0.47675 0.69885 0.04735 0.0
C739 C 0.51979 0.71577 0.02678 0.0
N740 N 0.46956 0.6538 1.00459 0.0
N741 N 0.51328 0.69652 0.99315 0.0
H742 H 0.79257 0.47669 0.05733 0.0
H743 H 0.90673 0.51651 0.87272 0.0
H744 H 0.81388 0.54592 0.05087 0.0
H745 H 0.89425 0.45066 0.96367 0.0
H746 H 0.86771 0.52672 0.89881 0.0
H747 H 0.8243 0.46661 0.97935 0.0
C748 C 0.80362 0.48983 0.03732 0.0
C749 C 0.80105 0.51203 0.06087 0.0
C750 C 0.87352 0.50996 0.91187 0.0
C751 C 0.83722 0.50071 0.97328 0.0
C752 C 0.89574 0.50417 0.89775 0.0
C753 C 0.90375 0.48284 0.91756 0.0
C754 C 0.85933 0.4942 0.94521 0.0
C755 C 0.88873 0.46726 0.94762 0.0
C756 C 0.82169 0.48409 0.99331 0.0
C757 C 0.81552 0.52859 0.03366 0.0
N758 N 0.86724 0.47335 0.96129 0.0
N759 N 0.83342 0.52251 0.99215 0.0
H760 H 0.98469 0.19827 0.86882 0.0
H761 H 0.05106 0.09313 0.69897 0.0
H762 H 0.04766 0.20568 0.75316 0.0
H763 H 0.98212 0.08992 0.76968 0.0
H764 H 0.0509 0.13401 0.72076 0.0
H765 H 0.984 0.15873 0.83505 0.0
C766 C 0.99828 0.19189 0.83544 0.0
C767 C 0.01625 0.20595 0.81408 0.0
C768 C 0.03578 0.1244 0.73146 0.0
C769 C 0.0158 0.15961 0.77678 0.0
C770 C 0.0359 0.10106 0.7191 0.0
C771 C 0.01655 0.08814 0.73237 0.0
C772 C 0.01632 0.13489 0.75905 0.0
C773 C 0.99734 0.09928 0.75823 0.0
C774 C 0.99794 0.16902 0.81671 0.0
C775 C 0.03355 0.19585 0.77246 0.0
N776 N 0.99777 0.12186 0.77133 0.0
N777 N 0.03295 0.17345 0.75575 0.0
H778 H 0.32376 0.05482 0.76044 0.0
H779 H 0.43625 0.98353 0.71778 0.0
H780 H 0.32985 0.98808 0.85216 0.0
H781 H 0.43824 0.055 0.75357 0.0
H782 H 0.39546 0.98395 0.74051 0.0
H783 H 0.3638 0.05421 0.73207 0.0
C784 C 0.3332 0.03999 0.77512 0.0
C785 C 0.32273 0.02156 0.81028 0.0
C786 C 0.4048 0.99955 0.7429 0.0
C787 C 0.36914 0.02062 0.77409 0.0
C788 C 0.42805 0.99935 0.72961 0.0
C789 C 0.4407 0.01925 0.73406 0.0
C790 C 0.39388 0.01992 0.75845 0.0
C791 C 0.42918 0.03925 0.75012 0.0
C792 C 0.35623 0.0397 0.75812 0.0
C793 C 0.33647 1.00269 0.82439 0.0
N794 N 0.40644 0.03912 0.76101 0.0
N795 N 0.35874 1.00271 0.80612 0.0
H796 H 0.48317 0.33198 0.89455 0.0
H797 H 0.5306 0.43305 0.64486 0.0
H798 H 0.53434 0.32227 0.73039 0.0
H799 H 0.48825 0.44265 0.83453 0.0
H800 H 0.53007 0.39243 0.66792 0.0
H801 H 0.4829 0.37216 0.86651 0.0
C802 C 0.49417 0.33826 0.85181 0.0
C803 C 0.50866 0.32357 0.8144 0.0
C804 C 0.52092 0.40344 0.70451 0.0
C805 C 0.50848 0.36999 0.78174 0.0
C806 C 0.52117 0.42672 0.69135 0.0
C807 C 0.5095 0.44157 0.73787 0.0
C808 C 0.50889 0.39473 0.76464 0.0
C809 C 0.4975 0.43207 0.79689 0.0
C810 C 0.49411 0.3613 0.8361 0.0
C811 C 0.52289 0.3329 0.76067 0.0
N812 N 0.49754 0.40943 0.80848 0.0
N813 N 0.52236 0.35542 0.74571 0.0
H814 H 0.2 0.47216 0.78826 0.0
H815 H 0.09128 0.54433 0.69816 0.0
H816 H 0.19821 0.54354 0.83384 0.0
H817 H 0.08594 0.47802 0.79146 0.0
H818 H 0.13213 0.54347 0.71989 0.0
H819 H 0.16003 0.47329 0.76262 0.0
C820 C 0.19167 0.48815 0.79364 0.0
C821 C 0.20346 0.50773 0.81556 0.0
C822 C 0.12199 0.5291 0.73541 0.0
C823 C 0.15678 0.509 0.78143 0.0
C824 C 0.09868 0.52953 0.72282 0.0
C825 C 0.08503 0.51129 0.74351 0.0
C826 C 0.13197 0.51 0.76685 0.0
C827 C 0.09569 0.49256 0.77526 0.0
C828 C 0.16855 0.48867 0.77803 0.0
C829 C 0.19076 0.52784 0.8171 0.0
N830 N 0.11846 0.49232 0.78528 0.0
N831 N 0.16837 0.52792 0.80011 0.0
H832 H 0.03534 0.82263 0.67197 0.0
H833 H 0.97954 0.94319 0.59067 0.0
H834 H 0.9777 0.83267 0.53202 0.0
H835 H 0.03435 0.93439 0.74283 0.0
H836 H 0.97889 0.90269 0.56963 0.0
H837 H 0.03546 0.863 0.6997 0.0
C838 C 0.02267 0.8332 0.64708 0.0
C839 C 1.00641 0.82388 0.59963 0.0
C840 C 0.99103 0.90952 0.60791 0.0
C841 C 1.00656 0.87052 0.63118 0.0
C842 C 0.99143 0.93277 0.62004 0.0
C843 C 1.00696 0.94244 0.66908 0.0
C844 C 1.00638 0.89549 0.64452 0.0
C845 C 0.02194 0.92783 0.70503 0.0
C846 C 0.02273 0.85633 0.66319 0.0
C847 C 0.99036 0.83871 0.56987 0.0
N848 N 0.02135 0.90521 0.6918 0.0
N849 N 0.99093 0.86109 0.5858 0.0
H850 H 0.69536 0.03427 0.51475 0.0
H851 H 0.59449 1.00165 0.784 0.0
H852 H 0.70554 0.98593 0.68777 0.0
H853 H 0.58428 0.01822 0.55625 0.0
H854 H 0.63549 1.00098 0.76213 0.0
H855 H 0.6551 0.03436 0.54211 0.0
C856 C 0.68922 0.02386 0.55922 0.0
C857 C 0.70411 1.01019 0.59924 0.0
C858 C 0.62425 1.00477 0.71707 0.0
C859 C 0.65755 1.01023 0.63096 0.0
C860 C 0.60088 1.00526 0.72958 0.0
C861 C 0.58592 1.00994 0.67178 0.0
C862 C 0.63278 1.00973 0.64679 0.0
C863 C 0.59515 0.01437 0.60225 0.0
C864 C 0.66613 0.02379 0.57436 0.0
C865 C 0.69482 0.99674 0.65535 0.0
N866 N 0.61786 0.01442 0.59197 0.0
N867 N 0.67223 0.99723 0.66991 0.0
H868 H 0.49373 0.70727 0.67957 0.0
H869 H 0.54394 0.58493 0.58614 0.0
H870 H 0.54677 0.69515 0.52327 0.0
H871 H 0.49342 0.59526 0.75255 0.0
H872 H 0.54501 0.62535 0.56428 0.0
H873 H 0.4932 0.66691 0.7086 0.0
C874 C 0.5053 0.69624 0.65131 0.0
C875 C 0.52043 0.70499 0.59896 0.0
C876 C 0.53369 0.61887 0.60575 0.0
C877 C 0.51977 0.65834 0.63191 0.0
C878 C 0.53305 0.59562 0.61839 0.0
C879 C 0.51853 0.58633 0.67137 0.0
C880 C 0.51966 0.63334 0.64598 0.0
C881 C 0.5049 0.60143 0.71104 0.0
C882 C 0.505 0.67312 0.66814 0.0
C883 C 0.53506 0.68957 0.5649 0.0
N884 N 0.50575 0.62405 0.69745 0.0
N885 N 0.53427 0.66724 0.58164 0.0
H886 H 0.82135 0.4879 0.65791 0.0
H887 H 0.93941 0.55319 0.62328 0.0
H888 H 0.8285 0.5545 0.56705 0.0
H889 H 0.93247 0.48985 0.73608 0.0
H890 H 0.89875 0.55377 0.60345 0.0
H891 H 0.86158 0.488 0.68705 0.0
C892 C 0.8312 0.5026 0.64415 0.0
C893 C 0.82106 0.52126 0.60983 0.0
C894 C 0.90605 0.53975 0.63275 0.0
C895 C 0.86763 0.52144 0.64374 0.0
C896 C 0.92939 0.53939 0.64413 0.0
C897 C 0.93962 0.52143 0.68142 0.0
C898 C 0.89258 0.5219 0.65801 0.0
C899 C 0.92548 0.50411 0.70716 0.0
C900 C 0.85428 0.50266 0.66127 0.0
C901 C 0.83508 0.53982 0.59456 0.0
N902 N 0.90282 0.50471 0.69461 0.0
N903 N 0.85745 0.53937 0.61119 0.0
loop_
_geom_bond_atom_site_label_1
_geom_bond_atom_site_label_2
_geom_bond_distance
_geom_bond_site_symmetry_2
_ccdc_geom_bond_type
C0 C1 1.386 . S
C0 C2 1.397 . S
C0 H24 0.931 . S
C1 C0 1.386 . S
C1 C5 1.397 . S
C2 C0 1.397 . S
C2 C3 1.384 . S
C2 H25 0.930 . S
C3 C2 1.384 . S
C3 C4 1.377 . S
C3 C6 1.481 . S
C4 C3 1.377 . S
C4 C5 1.389 . S
C4 H26 0.929 . S
C5 C1 1.397 . S
C5 C4 1.389 . S
C5 H27 0.931 . S
C6 C3 1.481 . S
C6 C7 1.387 . S
C6 C11 1.390 . S
C7 C6 1.387 . S
C7 C8 1.401 . S
C7 H28 0.930 . S
C8 C7 1.401 . S
C8 C9 1.376 . S
C8 C17 1.511 . S
C9 C8 1.376 . S
C9 C10 1.392 . S
C9 H30 0.931 . S
C10 C9 1.392 . S
C10 C11 1.361 . S
C10 C12 1.500 . S
C11 C6 1.390 . S
C11 C10 1.361 . S
C11 H29 0.931 . S
C12 C10 1.500 . S
C12 C13 1.371 . S
C12 C14 1.365 . S
C13 C12 1.371 . S
C13 C23 1.386 . S
C13 H31 0.931 . S
C14 C12 1.365 . S
C14 C15 1.409 . S
C14 H32 0.929 . S
C15 C14 1.409 . S
C15 C16 1.380 . S
C15 H33 0.930 . S
C16 C15 1.380 . S
C16 C23 1.357 . S
C17 C8 1.511 . S
C17 C18 1.341 . S
C17 C19 1.371 . S
C18 C17 1.341 . S
C18 C22 1.394 . S
C18 H34 0.930 . S
C19 C17 1.371 . S
C19 C20 1.392 . S
C19 H35 0.931 . S
C20 C19 1.392 . S
C20 C21 1.331 . S
C20 H38 0.932 . S
C21 C20 1.331 . S
C21 C22 1.336 . S
C22 C18 1.394 . S
C22 C21 1.336 . S
C22 H37 0.929 . S
C23 C13 1.386 . S
C23 C16 1.357 . S
C23 H36 0.928 . S
H24 C0 0.931 . S
H25 C2 0.930 . S
H26 C4 0.929 . S
H27 C5 0.931 . S
H28 C7 0.930 . S
H29 C11 0.931 . S
H30 C9 0.931 . S
H31 C13 0.931 . S
H32 C14 0.929 . S
H33 C15 0.930 . S
H34 C18 0.930 . S
H35 C19 0.931 . S
H36 C23 0.928 . S
H37 C22 0.929 . S
H38 C20 0.932 . S
C39 C40 1.386 . S
C39 C41 1.397 . S
C39 H63 0.931 . S
C40 C39 1.386 . S
C40 C44 1.397 1_655 S
C41 C39 1.397 . S
C41 C42 1.384 . S
C41 H64 0.930 . S
C42 C41 1.384 . S
C42 C43 1.377 1_655 S
C42 C45 1.481 . S
C43 C42 1.377 1_455 S
C43 C44 1.389 . S
C43 H65 0.929 . S
C44 C40 1.397 1_455 S
C44 C43 1.389 . S
C44 H66 0.931 . S
C45 C42 1.481 . S
C45 C46 1.387 . S
C45 C50 1.390 . S
C46 C45 1.387 . S
C46 C47 1.401 . S
C46 H67 0.930 . S
C47 C46 1.401 . S
C47 C48 1.376 . S
C47 C56 1.511 . S
C48 C47 1.376 . S
C48 C49 1.392 . S
C48 H69 0.931 . S
C49 C48 1.392 . S
C49 C50 1.361 . S
C49 C51 1.500 . S
C50 C45 1.390 . S
C50 C49 1.361 . S
C50 H68 0.931 . S
C51 C49 1.500 . S
C51 C52 1.371 . S
C51 C53 1.365 1_655 S
C52 C51 1.371 . S
C52 C62 1.386 . S
C52 H70 0.931 . S
C53 C51 1.365 1_455 S
C53 C54 1.409 . S
C53 H71 0.929 . S
C54 C53 1.409 . S
C54 C55 1.380 1_455 S
C54 H72 0.930 . S
C55 C54 1.380 1_655 S
C55 C62 1.357 . S
C56 C47 1.511 . S
C56 C57 1.341 . S
C56 C58 1.371 1_655 S
C57 C56 1.341 . S
C57 C61 1.394 . S
C57 H73 0.930 . S
C58 C56 1.371 1_455 S
C58 C59 1.392 . S
C58 H74 0.931 . S
C59 C58 1.392 . S
C59 C60 1.331 1_455 S
C59 H77 0.932 . S
C60 C59 1.331 1_655 S
C60 C61 1.336 . S
C61 C57 1.394 . S
C61 C60 1.336 . S
C61 H76 0.929 . S
C62 C52 1.386 . S
C62 C55 1.357 . S
C62 H75 0.928 . S
H63 C39 0.931 . S
H64 C41 0.930 . S
H65 C43 0.929 . S
H66 C44 0.931 . S
H67 C46 0.930 . S
H68 C50 0.931 . S
H69 C48 0.931 . S
H70 C52 0.931 . S
H71 C53 0.929 . S
H72 C54 0.930 . S
H73 C57 0.930 . S
H74 C58 0.931 . S
H75 C62 0.928 . S
H76 C61 0.929 . S
H77 C59 0.932 . S
C78 C79 1.386 . S
C78 C80 1.397 . S
C78 H102 0.931 . S
C79 C78 1.386 . S
C79 C83 1.397 1_565 S
C80 C78 1.397 . S
C80 C81 1.384 . S
C80 H103 0.930 . S
C81 C80 1.384 . S
C81 C82 1.377 1_565 S
C81 C84 1.481 . S
C82 C81 1.377 1_545 S
C82 C83 1.389 . S
C82 H104 0.929 . S
C83 C79 1.397 1_545 S
C83 C82 1.389 . S
C83 H105 0.931 . S
C84 C81 1.481 . S
C84 C85 1.387 . S
C84 C89 1.390 . S
C85 C84 1.387 . S
C85 C86 1.401 . S
C85 H106 0.930 . S
C86 C85 1.401 . S
C86 C87 1.376 . S
C86 C95 1.511 . S
C87 C86 1.376 . S
C87 C88 1.392 . S
C87 H108 0.931 . S
C88 C87 1.392 . S
C88 C89 1.361 . S
C88 C90 1.500 . S
C89 C84 1.390 . S
C89 C88 1.361 . S
C89 H107 0.931 . S
C90 C88 1.500 . S
C90 C91 1.371 . S
C90 C92 1.365 1_565 S
C91 C90 1.371 . S
C91 C101 1.386 . S
C91 H109 0.931 . S
C92 C90 1.365 1_545 S
C92 C93 1.409 . S
C92 H110 0.929 . S
C93 C92 1.409 . S
C93 C94 1.380 1_545 S
C93 H111 0.930 . S
C94 C93 1.380 1_565 S
C94 C101 1.357 . S
C95 C86 1.511 . S
C95 C96 1.341 . S
C95 C97 1.371 1_565 S
C96 C95 1.341 . S
C96 C100 1.394 . S
C96 H112 0.930 . S
C97 C95 1.371 1_545 S
C97 C98 1.392 . S
C97 H113 0.931 . S
C98 C97 1.392 . S
C98 C99 1.331 1_545 S
C98 H116 0.932 . S
C99 C98 1.331 1_565 S
C99 C100 1.336 . S
C100 C96 1.394 . S
C100 C99 1.336 . S
C100 H115 0.929 . S
C101 C91 1.386 . S
C101 C94 1.357 . S
C101 H114 0.928 . S
H102 C78 0.931 . S
H103 C80 0.930 . S
H104 C82 0.929 . S
H105 C83 0.931 . S
H106 C85 0.930 . S
H107 C89 0.931 . S
H108 C87 0.931 . S
H109 C91 0.931 . S
H110 C92 0.929 . S
H111 C93 0.930 . S
H112 C96 0.930 . S
H113 C97 0.931 . S
H114 C101 0.928 . S
H115 C100 0.929 . S
H116 C98 0.932 . S
C117 C118 1.386 . S
C117 C119 1.397 . S
C117 H141 0.931 . S
C118 C117 1.386 . S
C118 C122 1.397 . S
C119 C117 1.397 . S
C119 C120 1.384 . S
C119 H142 0.930 . S
C120 C119 1.384 . S
C120 C121 1.377 . S
C120 C123 1.481 . S
C121 C120 1.377 . S
C121 C122 1.389 . S
C121 H143 0.929 . S
C122 C118 1.397 . S
C122 C121 1.389 . S
C122 H144 0.931 . S
C123 C120 1.481 . S
C123 C124 1.387 . S
C123 C128 1.390 . S
C124 C123 1.387 . S
C124 C125 1.401 . S
C124 H145 0.930 . S
C125 C124 1.401 . S
C125 C126 1.376 . S
C125 C134 1.511 . S
C126 C125 1.376 . S
C126 C127 1.392 . S
C126 H147 0.931 . S
C127 C126 1.392 . S
C127 C128 1.361 . S
C127 C129 1.500 . S
C128 C123 1.390 . S
C128 C127 1.361 . S
C128 H146 0.931 . S
C129 C127 1.500 . S
C129 C130 1.371 . S
C129 C131 1.365 . S
C130 C129 1.371 . S
C130 C140 1.386 . S
C130 H148 0.931 . S
C131 C129 1.365 . S
C131 C132 1.409 . S
C131 H149 0.929 . S
C132 C131 1.409 . S
C132 C133 1.380 . S
C132 H150 0.930 . S
C133 C132 1.380 . S
C133 C140 1.357 . S
C134 C125 1.511 . S
C134 C135 1.341 . S
C134 C136 1.371 . S
C135 C134 1.341 . S
C135 C139 1.394 . S
C135 H151 0.930 . S
C136 C134 1.371 . S
C136 C137 1.392 . S
C136 H152 0.931 . S
C137 C136 1.392 . S
C137 C138 1.331 . S
C137 H155 0.932 . S
C138 C137 1.331 . S
C138 C139 1.336 . S
C139 C135 1.394 . S
C139 C138 1.336 . S
C139 H154 0.929 . S
C140 C130 1.386 . S
C140 C133 1.357 . S
C140 H153 0.928 . S
H141 C117 0.931 . S
H142 C119 0.930 . S
H143 C121 0.929 . S
H144 C122 0.931 . S
H145 C124 0.930 . S
H146 C128 0.931 . S
H147 C126 0.931 . S
H148 C130 0.931 . S
H149 C131 0.929 . S
H150 C132 0.930 . S
H151 C135 0.930 . S
H152 C136 0.931 . S
H153 C140 0.928 . S
H154 C139 0.929 . S
H155 C137 0.932 . S
C156 C157 1.386 . S
C156 C158 1.397 . S
C156 H180 0.931 . S
C157 C156 1.386 . S
C157 C161 1.397 . S
C158 C156 1.397 . S
C158 C159 1.384 . S
C158 H181 0.930 . S
C159 C158 1.384 . S
C159 C160 1.377 . S
C159 C162 1.481 . S
C160 C159 1.377 . S
C160 C161 1.389 . S
C160 H182 0.929 . S
C161 C157 1.397 . S
C161 C160 1.389 . S
C161 H183 0.931 . S
C162 C159 1.481 . S
C162 C163 1.387 . S
C162 C167 1.390 . S
C163 C162 1.387 . S
C163 C164 1.401 . S
C163 H184 0.930 . S
C164 C163 1.401 . S
C164 C165 1.376 1_554 S
C164 C173 1.511 . S
C165 C164 1.376 1_556 S
C165 C166 1.392 . S
C165 H186 0.931 . S
C166 C165 1.392 . S
C166 C167 1.361 1_556 S
C166 C168 1.500 . S
C167 C162 1.390 . S
C167 C166 1.361 1_554 S
C167 H185 0.931 . S
C168 C166 1.500 . S
C168 C169 1.371 . S
C168 C170 1.365 . S
C169 C168 1.371 . S
C169 C179 1.386 . S
C169 H187 0.931 . S
C170 C168 1.365 . S
C170 C171 1.409 . S
C170 H188 0.929 . S
C171 C170 1.409 . S
C171 C172 1.380 . S
C171 H189 0.930 . S
C172 C171 1.380 . S
C172 C179 1.357 . S
C173 C164 1.511 . S
C173 C174 1.341 . S
C173 C175 1.371 . S
C174 C173 1.341 . S
C174 C178 1.394 . S
C174 H190 0.930 . S
C175 C173 1.371 . S
C175 C176 1.392 . S
C175 H191 0.931 1_554 S
C176 C175 1.392 . S
C176 C177 1.331 . S
C176 H194 0.932 . S
C177 C176 1.331 . S
C177 C178 1.336 . S
C178 C174 1.394 . S
C178 C177 1.336 . S
C178 H193 0.929 . S
C179 C169 1.386 . S
C179 C172 1.357 . S
C179 H192 0.928 . S
H180 C156 0.931 . S
H181 C158 0.930 . S
H182 C160 0.929 . S
H183 C161 0.931 . S
H184 C163 0.930 . S
H185 C167 0.931 . S
H186 C165 0.931 . S
H187 C169 0.931 . S
H188 C170 0.929 . S
H189 C171 0.930 . S
H190 C174 0.930 . S
H191 C175 0.931 1_556 S
H192 C179 0.928 . S
H193 C178 0.929 . S
H194 C176 0.932 . S
C195 C196 1.386 1_655 S
C195 C197 1.397 . S
C195 H219 0.931 . S
C196 C195 1.386 1_455 S
C196 C200 1.397 . S
C197 C195 1.397 . S
C197 C198 1.384 1_655 S
C197 H220 0.930 . S
C198 C197 1.384 1_455 S
C198 C199 1.377 . S
C198 C201 1.481 . S
C199 C198 1.377 . S
C199 C200 1.389 . S
C199 H221 0.929 . S
C200 C196 1.397 . S
C200 C199 1.389 . S
C200 H222 0.931 . S
C201 C198 1.481 . S
C201 C202 1.387 . S
C201 C206 1.390 . S
C202 C201 1.387 . S
C202 C203 1.401 . S
C202 H223 0.932 . S
C203 C202 1.401 . S
C203 C204 1.376 1_554 S
C203 C212 1.511 . S
C204 C203 1.376 1_556 S
C204 C205 1.392 . S
C204 H225 0.931 . S
C205 C204 1.392 . S
C205 C206 1.361 1_556 S
C205 C207 1.500 . S
C206 C201 1.390 . S
C206 C205 1.361 1_554 S
C206 H224 0.931 . S
C207 C205 1.500 . S
C207 C208 1.371 1_455 S
C207 C209 1.365 . S
C208 C207 1.371 1_655 S
C208 C218 1.386 . S
C208 H226 0.931 . S
C209 C207 1.365 . S
C209 C210 1.409 . S
C209 H227 0.929 . S
C210 C209 1.409 . S
C210 C211 1.380 . S
C210 H228 0.930 . S
C211 C210 1.380 . S
C211 C218 1.357 1_455 S
C212 C203 1.511 . S
C212 C213 1.341 1_455 S
C212 C214 1.371 . S
C213 C212 1.341 1_655 S
C213 C217 1.394 . S
C213 H229 0.930 . S
C214 C212 1.371 . S
C214 C215 1.392 . S
C214 H230 0.931 1_554 S
C215 C214 1.392 . S
C215 C216 1.331 . S
C215 H233 0.932 . S
C216 C215 1.331 . S
C216 C217 1.336 1_455 S
C217 C213 1.394 . S
C217 C216 1.336 1_655 S
C217 H232 0.929 . S
C218 C208 1.386 . S
C218 C211 1.357 1_655 S
C218 H231 0.928 . S
H219 C195 0.931 . S
H220 C197 0.930 . S
H221 C199 0.929 . S
H222 C200 0.931 . S
H223 C202 0.932 . S
H224 C206 0.931 . S
H225 C204 0.931 . S
H226 C208 0.931 . S
H227 C209 0.929 . S
H228 C210 0.930 . S
H229 C213 0.930 . S
H230 C214 0.931 1_556 S
H231 C218 0.928 . S
H232 C217 0.929 . S
H233 C215 0.932 . S
C234 C235 1.386 1_565 S
C234 C236 1.397 . S
C234 H258 0.931 . S
C235 C234 1.386 1_545 S
C235 C239 1.397 . S
C236 C234 1.397 . S
C236 C237 1.384 1_565 S
C236 H259 0.930 . S
C237 C236 1.384 1_545 S
C237 C238 1.377 . S
C237 C240 1.481 . S
C238 C237 1.377 . S
C238 C239 1.389 . S
C238 H260 0.929 . S
C239 C235 1.397 . S
C239 C238 1.389 . S
C239 H261 0.931 . S
C240 C237 1.481 . S
C240 C241 1.387 . S
C240 C245 1.390 . S
C241 C240 1.387 . S
C241 C242 1.401 . S
C241 H262 0.930 . S
C242 C241 1.401 . S
C242 C243 1.376 1_554 S
C242 C251 1.511 . S
C243 C242 1.376 1_556 S
C243 C244 1.392 . S
C243 H264 0.931 . S
C244 C243 1.392 . S
C244 C245 1.361 1_556 S
C244 C246 1.500 . S
C245 C240 1.390 . S
C245 C244 1.361 1_554 S
C245 H263 0.931 . S
C246 C244 1.500 . S
C246 C247 1.371 1_545 S
C246 C248 1.365 . S
C247 C246 1.371 1_565 S
C247 C257 1.386 . S
C247 H265 0.931 . S
C248 C246 1.365 . S
C248 C249 1.409 . S
C248 H266 0.929 . S
C249 C248 1.409 . S
C249 C250 1.380 . S
C249 H267 0.930 . S
C250 C249 1.380 . S
C250 C257 1.357 1_545 S
C251 C242 1.511 . S
C251 C252 1.337 1_545 S
C251 C253 1.371 . S
C252 C251 1.337 1_565 S
C252 C256 1.393 1_565 S
C252 H268 0.935 . S
C253 C251 1.371 . S
C253 C254 1.392 . S
C253 H269 0.931 1_554 S
C254 C253 1.392 . S
C254 C255 1.331 . S
C254 H272 0.932 . S
C255 C254 1.331 . S
C255 C256 1.339 . S
C256 C252 1.393 1_545 S
C256 C255 1.339 . S
C256 H271 0.927 1_545 S
C257 C247 1.386 . S
C257 C250 1.357 1_565 S
C257 H270 0.928 . S
H258 C234 0.931 . S
H259 C236 0.930 . S
H260 C238 0.929 . S
H261 C239 0.931 . S
H262 C241 0.930 . S
H263 C245 0.931 . S
H264 C243 0.931 . S
H265 C247 0.931 . S
H266 C248 0.929 . S
H267 C249 0.930 . S
H268 C252 0.935 . S
H269 C253 0.931 1_556 S
H270 C257 0.928 . S
H271 C256 0.927 1_565 S
H272 C254 0.932 . S
C273 C274 1.386 . S
C273 C275 1.397 . S
C273 H297 0.931 . S
C274 C273 1.386 . S
C274 C278 1.397 . S
C275 C273 1.397 . S
C275 C276 1.384 . S
C275 H298 0.930 . S
C276 C275 1.384 . S
C276 C277 1.377 . S
C276 C279 1.481 . S
C277 C276 1.377 . S
C277 C278 1.389 . S
C277 H299 0.929 . S
C278 C274 1.397 . S
C278 C277 1.389 . S
C278 H300 0.931 . S
C279 C276 1.481 . S
C279 C280 1.387 . S
C279 C284 1.390 1_556 S
C280 C279 1.387 . S
C280 C281 1.401 1_556 S
C280 H301 0.930 . S
C281 C280 1.401 1_554 S
C281 C282 1.376 . S
C281 C290 1.511 . S
C282 C281 1.376 . S
C282 C283 1.392 . S
C282 H303 0.931 . S
C283 C282 1.392 . S
C283 C284 1.361 . S
C283 C285 1.500 . S
C284 C279 1.390 1_554 S
C284 C283 1.361 . S
C284 H302 0.931 . S
C285 C283 1.500 . S
C285 C286 1.371 . S
C285 C287 1.365 . S
C286 C285 1.371 . S
C286 C296 1.386 . S
C286 H304 0.931 . S
C287 C285 1.365 . S
C287 C288 1.409 . S
C287 H305 0.929 . S
C288 C287 1.409 . S
C288 C289 1.380 . S
C288 H306 0.930 . S
C289 C288 1.380 . S
C289 C296 1.357 . S
C290 C281 1.511 . S
C290 C291 1.341 . S
C290 C292 1.371 . S
C291 C290 1.341 . S
C291 C295 1.394 . S
C291 H307 0.930 1_554 S
C292 C290 1.371 . S
C292 C293 1.392 . S
C292 H308 0.931 . S
C293 C292 1.392 . S
C293 C294 1.331 . S
C293 H311 0.932 . S
C294 C293 1.331 . S
C294 C295 1.336 . S
C295 C291 1.394 . S
C295 C294 1.336 . S
C295 H310 0.929 . S
C296 C286 1.386 . S
C296 C289 1.357 . S
C296 H309 0.928 . S
H297 C273 0.931 . S
H298 C275 0.930 . S
H299 C277 0.929 . S
H300 C278 0.931 . S
H301 C280 0.930 . S
H302 C284 0.931 . S
H303 C282 0.931 . S
H304 C286 0.931 . S
H305 C287 0.929 . S
H306 C288 0.930 . S
H307 C291 0.930 1_556 S
H308 C292 0.931 . S
H309 C296 0.928 . S
H310 C295 0.929 . S
H311 C293 0.932 . S
Gd312 C315 2.818 . S
Gd312 O332 2.377 . S
Gd312 O334 2.448 . S
Gd312 O335 2.506 . S
Gd312 O336 2.435 . S
Gd312 O337 2.717 1_565 S
Gd312 O339 2.395 1_565 S
Gd312 O343 2.327 1_455 S
Gd313 C324 2.818 . S
Gd313 O333 2.395 1_545 S
Gd313 O337 2.327 1_655 S
Gd313 O338 2.377 . S
Gd313 O340 2.448 . S
Gd313 O341 2.506 . S
Gd313 O342 2.435 . S
Gd313 O343 2.717 1_545 S
C314 O332 1.240 1_655 S
C314 O333 1.240 . S
C315 Gd312 2.818 . S
C315 C316 1.510 . S
C315 O334 1.249 . S
C315 O335 1.252 . S
C316 C315 1.510 . S
C316 C317 1.404 . S
C316 C318 1.352 . S
C317 C316 1.404 . S
C317 C321 1.389 . S
C317 H344 0.930 . S
C318 C316 1.352 . S
C318 C320 1.374 . S
C318 H345 0.931 1_455 S
C319 C320 1.359 . S
C319 C321 1.364 . S
C320 C318 1.374 . S
C320 C319 1.359 . S
C320 H346 0.931 1_455 S
C321 C317 1.389 . S
C321 C319 1.364 . S
C321 H347 0.931 . S
C322 O336 1.256 1_545 S
C322 O337 1.257 . S
C323 O338 1.240 1_455 S
C323 O339 1.240 . S
C324 Gd313 2.818 . S
C324 C325 1.510 . S
C324 O340 1.249 . S
C324 O341 1.252 . S
C325 C324 1.510 . S
C325 C326 1.404 . S
C325 C327 1.352 . S
C326 C325 1.404 . S
C326 C330 1.389 . S
C326 H348 0.930 . S
C327 C325 1.352 . S
C327 C329 1.374 . S
C327 H349 0.931 1_655 S
C328 C329 1.359 . S
C328 C330 1.364 . S
C329 C327 1.374 . S
C329 C328 1.359 . S
C329 H350 0.931 1_655 S
C330 C326 1.389 . S
C330 C328 1.364 . S
C330 H351 0.931 . S
C331 O342 1.256 . S
C331 O343 1.257 1_545 S
O332 Gd312 2.377 . S
O332 C314 1.240 1_455 S
O333 Gd313 2.395 1_565 S
O333 C314 1.240 . S
O334 Gd312 2.448 . S
O334 C315 1.249 . S
O335 Gd312 2.506 . S
O335 C315 1.252 . S
O336 Gd312 2.435 . S
O336 C322 1.256 1_565 S
O337 Gd312 2.717 1_545 S
O337 Gd313 2.327 1_455 S
O337 C322 1.257 . S
O338 Gd313 2.377 . S
O338 C323 1.240 1_655 S
O339 Gd312 2.395 1_545 S
O339 C323 1.240 . S
O340 Gd313 2.448 . S
O340 C324 1.249 . S
O341 Gd313 2.506 . S
O341 C324 1.252 . S
O342 Gd313 2.435 . S
O342 C331 1.256 . S
O343 Gd312 2.327 1_655 S
O343 Gd313 2.717 1_565 S
O343 C331 1.257 1_565 S
H344 C317 0.930 . S
H345 C318 0.931 1_655 S
H346 C320 0.931 1_655 S
H347 C321 0.931 . S
H348 C326 0.930 . S
H349 C327 0.931 1_455 S
H350 C329 0.931 1_455 S
H351 C330 0.931 . S
Gd352 C355 2.818 . S
Gd352 O372 2.377 . S
Gd352 O374 2.448 . S
Gd352 O375 2.506 . S
Gd352 O376 2.435 . S
Gd352 O377 2.717 . S
Gd352 O379 2.395 . S
Gd352 O383 2.327 1_545 S
Gd353 C364 2.818 . S
Gd353 O373 2.395 . S
Gd353 O377 2.327 1_565 S
Gd353 O378 2.377 . S
Gd353 O380 2.448 . S
Gd353 O381 2.520 . S
Gd353 O382 2.435 . S
Gd353 O383 2.717 . S
C354 O372 1.240 1_565 S
C354 O373 1.240 . S
C355 Gd352 2.818 . S
C355 C356 1.510 . S
C355 O374 1.249 . S
C355 O375 1.252 . S
C356 C355 1.510 . S
C356 C357 1.404 . S
C356 C358 1.352 . S
C357 C356 1.404 . S
C357 C361 1.389 . S
C357 H384 0.930 . S
C358 C356 1.352 . S
C358 C360 1.374 . S
C358 H385 0.931 1_545 S
C359 C360 1.359 . S
C359 C361 1.364 . S
C360 C358 1.374 . S
C360 C359 1.359 . S
C360 H386 0.931 1_545 S
C361 C357 1.389 . S
C361 C359 1.364 . S
C361 H387 0.931 . S
C362 O376 1.256 . S
C362 O377 1.257 . S
C363 O378 1.240 1_545 S
C363 O379 1.240 . S
C364 Gd353 2.818 . S
C364 C365 1.510 . S
C364 O380 1.249 . S
C364 O381 1.287 . S
C365 C364 1.510 . S
C365 C366 1.404 . S
C365 C367 1.352 . S
C366 C365 1.404 . S
C366 C370 1.389 . S
C366 H388 0.930 . S
C367 C365 1.352 . S
C367 C369 1.374 . S
C367 H389 0.931 1_565 S
C368 C369 1.359 . S
C368 C370 1.364 . S
C369 C367 1.374 . S
C369 C368 1.359 . S
C369 H390 0.931 1_565 S
C370 C366 1.389 . S
C370 C368 1.364 . S
C370 H391 0.931 . S
C371 O382 1.256 . S
C371 O383 1.257 . S
O372 Gd352 2.377 . S
O372 C354 1.240 1_545 S
O373 Gd353 2.395 . S
O373 C354 1.240 . S
O374 Gd352 2.448 . S
O374 C355 1.249 . S
O375 Gd352 2.506 . S
O375 C355 1.252 . S
O376 Gd352 2.435 . S
O376 C362 1.256 . S
O377 Gd352 2.717 . S
O377 Gd353 2.327 1_545 S
O377 C362 1.257 . S
O378 Gd353 2.377 . S
O378 C363 1.240 1_565 S
O379 Gd352 2.395 . S
O379 C363 1.240 . S
O380 Gd353 2.448 . S
O380 C364 1.249 . S
O381 Gd353 2.520 . S
O381 C364 1.287 . S
O382 Gd353 2.435 . S
O382 C371 1.256 . S
O383 Gd352 2.327 1_565 S
O383 Gd353 2.717 . S
O383 C371 1.257 . S
H384 C357 0.930 . S
H385 C358 0.931 1_565 S
H386 C360 0.931 1_565 S
H387 C361 0.931 . S
H388 C366 0.930 . S
H389 C367 0.931 1_545 S
H390 C369 0.931 1_545 S
H391 C370 0.931 . S
Gd392 C395 2.818 . S
Gd392 O412 2.377 . S
Gd392 O414 2.448 . S
Gd392 O415 2.506 . S
Gd392 O416 2.435 . S
Gd392 O417 2.717 . S
Gd392 O419 2.395 . S
Gd392 O423 2.327 . S
Gd393 C404 2.818 . S
Gd393 O413 2.395 . S
Gd393 O417 2.327 . S
Gd393 O418 2.377 . S
Gd393 O420 2.448 . S
Gd393 O421 2.506 . S
Gd393 O422 2.435 . S
Gd393 O423 2.717 . S
C394 O412 1.240 . S
C394 O413 1.240 . S
C395 Gd392 2.818 . S
C395 C396 1.510 . S
C395 O414 1.249 . S
C395 O415 1.252 . S
C396 C395 1.510 . S
C396 C397 1.404 . S
C396 C398 1.352 . S
C397 C396 1.404 . S
C397 C401 1.389 . S
C397 H424 0.930 . S
C398 C396 1.352 . S
C398 C400 1.374 . S
C398 H425 0.931 . S
C399 C400 1.359 . S
C399 C401 1.364 . S
C400 C398 1.374 . S
C400 C399 1.359 . S
C400 H426 0.931 . S
C401 C397 1.389 . S
C401 C399 1.364 . S
C401 H427 0.931 . S
C402 O416 1.256 . S
C402 O417 1.257 . S
C403 O418 1.240 . S
C403 O419 1.240 . S
C404 Gd393 2.818 . S
C404 C405 1.510 . S
C404 O420 1.249 . S
C404 O421 1.252 . S
C405 C404 1.510 . S
C405 C406 1.404 . S
C405 C407 1.352 . S
C406 C405 1.404 . S
C406 C410 1.389 . S
C406 H428 0.930 . S
C407 C405 1.352 . S
C407 C409 1.374 . S
C407 H429 0.931 . S
C408 C409 1.359 . S
C408 C410 1.364 . S
C409 C407 1.374 . S
C409 C408 1.359 . S
C409 H430 0.931 . S
C410 C406 1.389 . S
C410 C408 1.364 . S
C410 H431 0.931 . S
C411 O422 1.256 . S
C411 O423 1.257 . S
O412 Gd392 2.377 . S
O412 C394 1.240 . S
O413 Gd393 2.395 . S
O413 C394 1.240 . S
O414 Gd392 2.448 . S
O414 C395 1.249 . S
O415 Gd392 2.506 . S
O415 C395 1.252 . S
O416 Gd392 2.435 . S
O416 C402 1.256 . S
O417 Gd392 2.717 . S
O417 Gd393 2.327 . S
O417 C402 1.257 . S
O418 Gd393 2.377 . S
O418 C403 1.240 . S
O419 Gd392 2.395 . S
O419 C403 1.240 . S
O420 Gd393 2.448 . S
O420 C404 1.249 . S
O421 Gd393 2.506 . S
O421 C404 1.252 . S
O422 Gd393 2.435 . S
O422 C411 1.256 . S
O423 Gd392 2.327 . S
O423 Gd393 2.717 . S
O423 C411 1.257 . S
H424 C397 0.930 . S
H425 C398 0.931 . S
H426 C400 0.931 . S
H427 C401 0.931 . S
H428 C406 0.930 . S
H429 C407 0.931 . S
H430 C409 0.931 . S
H431 C410 0.931 . S
Gd432 C435 2.818 . S
Gd432 O452 2.377 . S
Gd432 O454 2.448 . S
Gd432 O455 2.506 . S
Gd432 O456 2.435 . S
Gd432 O457 2.717 1_655 S
Gd432 O459 2.395 1_655 S
Gd432 O463 2.327 . S
Gd433 C444 2.818 . S
Gd433 O453 2.395 1_455 S
Gd433 O457 2.327 . S
Gd433 O458 2.377 . S
Gd433 O460 2.448 . S
Gd433 O461 2.506 . S
Gd433 O462 2.435 . S
Gd433 O463 2.717 1_455 S
C434 O452 1.240 . S
C434 O453 1.240 . S
C435 Gd432 2.818 . S
C435 C436 1.510 . S
C435 O454 1.249 . S
C435 O455 1.252 . S
C436 C435 1.510 . S
C436 C437 1.404 . S
C436 C438 1.352 . S
C437 C436 1.404 . S
C437 C441 1.389 . S
C437 H464 0.930 . S
C438 C436 1.352 . S
C438 C440 1.374 . S
C438 H465 0.931 . S
C439 C440 1.359 . S
C439 C441 1.364 . S
C440 C438 1.374 . S
C440 C439 1.359 . S
C440 H466 0.931 . S
C441 C437 1.389 . S
C441 C439 1.364 . S
C441 H467 0.931 . S
C442 O456 1.282 . S
C442 O457 1.244 1_655 S
C443 O458 1.240 . S
C443 O459 1.240 . S
C444 Gd433 2.818 . S
C444 C445 1.510 . S
C444 O460 1.249 . S
C444 O461 1.252 . S
C445 C444 1.510 . S
C445 C446 1.404 . S
C445 C447 1.352 . S
C446 C445 1.404 . S
C446 C450 1.389 . S
C446 H468 0.930 . S
C447 C445 1.352 . S
C447 C449 1.374 . S
C447 H469 0.931 . S
C448 C449 1.359 . S
C448 C450 1.364 . S
C449 C447 1.374 . S
C449 C448 1.359 . S
C449 H470 0.931 . S
C450 C446 1.389 . S
C450 C448 1.364 . S
C450 H471 0.931 . S
C451 O462 1.256 . S
C451 O463 1.257 1_455 S
O452 Gd432 2.377 . S
O452 C434 1.240 . S
O453 Gd433 2.395 1_655 S
O453 C434 1.240 . S
O454 Gd432 2.448 . S
O454 C435 1.249 . S
O455 Gd432 2.506 . S
O455 C435 1.252 . S
O456 Gd432 2.435 . S
O456 C442 1.282 . S
O457 Gd432 2.717 1_455 S
O457 Gd433 2.327 . S
O457 C442 1.244 1_455 S
O458 Gd433 2.377 . S
O458 C443 1.240 . S
O459 Gd432 2.395 1_455 S
O459 C443 1.240 . S
O460 Gd433 2.448 . S
O460 C444 1.249 . S
O461 Gd433 2.506 . S
O461 C444 1.252 . S
O462 Gd433 2.435 . S
O462 C451 1.256 . S
O463 Gd432 2.327 . S
O463 Gd433 2.717 1_655 S
O463 C451 1.257 1_655 S
H464 C437 0.930 . S
H465 C438 0.931 . S
H466 C440 0.931 . S
H467 C441 0.931 . S
H468 C446 0.930 . S
H469 C447 0.931 . S
H470 C449 0.931 . S
H471 C450 0.931 . S
H472 C478 0.930 . S
H473 C482 0.930 . S
H474 C487 0.929 . S
H475 C485 0.929 . S
H476 C480 0.929 . S
H477 C486 0.929 . S
C478 H472 0.930 . S
C478 C479 1.367 . S
C478 C486 1.378 . S
C479 C478 1.367 . S
C479 C487 1.433 1_545 S
C480 H476 0.929 . S
C480 C482 1.378 . S
C480 C484 1.350 1_565 S
C481 C484 1.463 . S
C481 C486 1.350 . S
C481 N489 1.427 1_545 S
C482 H473 0.930 . S
C482 C480 1.378 . S
C482 C483 1.367 1_565 S
C483 C482 1.367 1_545 S
C483 C485 1.433 . S
C484 C480 1.350 1_545 S
C484 C481 1.463 . S
C484 N488 1.427 . S
C485 H475 0.929 . S
C485 C483 1.433 . S
C485 N488 1.384 . S
C486 H477 0.929 . S
C486 C478 1.378 . S
C486 C481 1.350 . S
C487 H474 0.929 . S
C487 C479 1.433 1_565 S
C487 N489 1.384 . S
N488 C484 1.427 . S
N488 C485 1.384 . S
N489 C481 1.427 1_565 S
N489 C487 1.384 . S
H490 C496 0.930 . S
H491 C500 0.930 . S
H492 C505 0.929 . S
H493 C503 0.929 . S
H494 C498 0.929 . S
H495 C504 0.929 . S
C496 H490 0.930 . S
C496 C497 1.367 . S
C496 C504 1.378 . S
C497 C496 1.367 . S
C497 C505 1.433 . S
C498 H494 0.929 . S
C498 C500 1.378 . S
C498 C502 1.350 . S
C499 C502 1.463 . S
C499 C504 1.350 . S
C499 N507 1.427 . S
C500 H491 0.930 . S
C500 C498 1.378 . S
C500 C501 1.367 . S
C501 C500 1.367 . S
C501 C503 1.433 . S
C502 C498 1.350 . S
C502 C499 1.463 . S
C502 N506 1.427 . S
C503 H493 0.929 . S
C503 C501 1.433 . S
C503 N506 1.384 . S
C504 H495 0.929 . S
C504 C496 1.378 . S
C504 C499 1.350 . S
C505 H492 0.929 . S
C505 C497 1.433 . S
C505 N507 1.384 . S
N506 C502 1.427 . S
N506 C503 1.384 . S
N507 C499 1.427 . S
N507 C505 1.384 . S
H508 C514 0.930 . S
H509 C518 0.930 . S
H510 C523 0.929 . S
H511 C521 0.929 . S
H512 C516 0.929 . S
H513 C522 0.929 . S
C514 H508 0.930 . S
C514 C515 1.367 . S
C514 C522 1.378 . S
C515 C514 1.367 . S
C515 C523 1.433 . S
C516 H512 0.929 . S
C516 C518 1.378 . S
C516 C520 1.350 . S
C517 C520 1.463 . S
C517 C522 1.350 . S
C517 N525 1.427 . S
C518 H509 0.930 . S
C518 C516 1.378 . S
C518 C519 1.367 . S
C519 C518 1.367 . S
C519 C521 1.433 . S
C520 C516 1.350 . S
C520 C517 1.463 . S
C520 N524 1.427 . S
C521 H511 0.929 . S
C521 C519 1.433 . S
C521 N524 1.384 . S
C522 H513 0.929 . S
C522 C514 1.378 . S
C522 C517 1.350 . S
C523 H510 0.929 . S
C523 C515 1.433 . S
C523 N525 1.384 . S
N524 C520 1.427 . S
N524 C521 1.384 . S
N525 C517 1.427 . S
N525 C523 1.384 . S
H526 C532 0.930 . S
H527 C536 0.930 . S
H528 C541 0.929 . S
H529 C539 0.929 . S
H530 C534 0.929 . S
H531 C540 0.929 . S
C532 H526 0.930 . S
C532 C533 1.367 1_655 S
C532 C540 1.378 . S
C533 C532 1.367 1_455 S
C533 C541 1.433 . S
C534 H530 0.929 . S
C534 C536 1.378 . S
C534 C538 1.350 . S
C535 C538 1.463 . S
C535 C540 1.350 1_455 S
C535 N543 1.427 . S
C536 H527 0.930 . S
C536 C534 1.378 . S
C536 C537 1.367 . S
C537 C536 1.367 . S
C537 C539 1.433 1_455 S
C538 C534 1.350 . S
C538 C535 1.463 . S
C538 N542 1.427 1_455 S
C539 H529 0.929 . S
C539 C537 1.433 1_655 S
C539 N542 1.384 . S
C540 H531 0.929 . S
C540 C532 1.378 . S
C540 C535 1.350 1_655 S
C541 H528 0.929 . S
C541 C533 1.433 . S
C541 N543 1.384 . S
N542 C538 1.427 1_655 S
N542 C539 1.384 . S
N543 C535 1.427 . S
N543 C541 1.384 . S
H544 C550 0.930 . S
H545 C554 0.930 . S
H546 C559 0.929 . S
H547 C557 0.929 . S
H548 C552 0.929 1_554 S
H549 C558 0.929 . S
C550 H544 0.930 . S
C550 C551 1.367 . S
C550 C558 1.378 . S
C551 C550 1.367 . S
C551 C559 1.433 1_565 S
C552 H548 0.929 1_556 S
C552 C554 1.378 . S
C552 C556 1.335 1_545 S
C553 C556 1.465 1_554 S
C553 C558 1.350 . S
C553 N561 1.427 1_565 S
C554 H545 0.930 . S
C554 C552 1.378 . S
C554 C555 1.363 1_545 S
C555 C554 1.363 1_565 S
C555 C557 1.438 . S
C556 C552 1.335 1_565 S
C556 C553 1.465 1_556 S
C556 N560 1.444 . S
C557 H547 0.929 . S
C557 C555 1.438 . S
C557 N560 1.384 . S
C558 H549 0.929 . S
C558 C550 1.378 . S
C558 C553 1.350 . S
C559 H546 0.929 . S
C559 C551 1.433 1_545 S
C559 N561 1.384 . S
N560 C556 1.444 . S
N560 C557 1.384 . S
N561 C553 1.427 1_545 S
N561 C559 1.384 . S
H562 C568 0.930 . S
H563 C572 0.930 . S
H564 C577 0.929 . S
H565 C575 0.929 . S
H566 C570 0.929 . S
H567 C576 0.929 . S
C568 H562 0.930 . S
C568 C569 1.367 . S
C568 C576 1.378 . S
C569 C568 1.367 . S
C569 C577 1.433 . S
C570 H566 0.929 . S
C570 C572 1.378 . S
C570 C574 1.350 . S
C571 C574 1.463 1_554 S
C571 C576 1.350 . S
C571 N579 1.427 . S
C572 H563 0.930 . S
C572 C570 1.378 . S
C572 C573 1.367 . S
C573 C572 1.367 . S
C573 C575 1.433 . S
C574 C570 1.350 . S
C574 C571 1.463 1_556 S
C574 N578 1.427 . S
C575 H565 0.929 . S
C575 C573 1.433 . S
C575 N578 1.384 . S
C576 H567 0.929 . S
C576 C568 1.378 . S
C576 C571 1.350 . S
C577 H564 0.929 . S
C577 C569 1.433 . S
C577 N579 1.384 . S
N578 C574 1.427 . S
N578 C575 1.384 . S
N579 C571 1.427 . S
N579 C577 1.384 . S
H580 C586 0.930 . S
H581 C590 0.930 . S
H582 C595 0.929 . S
H583 C593 0.929 . S
H584 C588 0.929 . S
H585 C594 0.929 . S
C586 H580 0.930 . S
C586 C587 1.367 . S
C586 C594 1.378 . S
C587 C586 1.367 . S
C587 C595 1.433 . S
C588 H584 0.929 . S
C588 C590 1.378 . S
C588 C592 1.350 . S
C589 C592 1.463 1_554 S
C589 C594 1.350 . S
C589 N597 1.427 . S
C590 H581 0.930 . S
C590 C588 1.378 . S
C590 C591 1.367 . S
C591 C590 1.367 . S
C591 C593 1.433 . S
C592 C588 1.350 . S
C592 C589 1.463 1_556 S
C592 N596 1.427 . S
C593 H583 0.929 . S
C593 C591 1.433 . S
C593 N596 1.384 . S
C594 H585 0.929 . S
C594 C586 1.378 . S
C594 C589 1.350 . S
C595 H582 0.929 . S
C595 C587 1.433 . S
C595 N597 1.384 . S
N596 C592 1.427 . S
N596 C593 1.384 . S
N597 C589 1.427 . S
N597 C595 1.384 . S
H598 C604 0.930 . S
H599 C608 0.930 . S
H600 C613 0.929 . S
H601 C611 0.929 . S
H602 C606 0.929 1_554 S
H603 C612 0.929 . S
C604 H598 0.930 . S
C604 C605 1.367 1_455 S
C604 C612 1.378 . S
C605 C604 1.367 1_655 S
C605 C613 1.433 . S
C606 H602 0.929 1_556 S
C606 C608 1.378 . S
C606 C610 1.350 . S
C607 C610 1.463 1_554 S
C607 C612 1.350 1_655 S
C607 N615 1.427 . S
C608 H599 0.930 . S
C608 C606 1.378 . S
C608 C609 1.367 . S
C609 C608 1.367 . S
C609 C611 1.433 1_655 S
C610 C606 1.350 . S
C610 C607 1.463 1_556 S
C610 N614 1.427 1_655 S
C611 H601 0.929 . S
C611 C609 1.433 1_455 S
C611 N614 1.384 . S
C612 H603 0.929 . S
C612 C604 1.378 . S
C612 C607 1.350 1_455 S
C613 H600 0.929 . S
C613 C605 1.433 . S
C613 N615 1.384 . S
N614 C610 1.427 1_455 S
N614 C611 1.384 . S
N615 C607 1.427 . S
N615 C613 1.384 . S
H616 C622 0.930 . S
H617 C626 0.930 . S
H618 C631 0.929 . S
H619 C629 0.929 . S
H620 C624 0.929 1_455 S
H621 C630 0.929 . S
C622 H616 0.930 . S
C622 C623 1.367 1_655 S
C622 C630 1.378 . S
C623 C622 1.367 1_455 S
C623 C631 1.433 . S
C624 H620 0.929 1_655 S
C624 C626 1.378 . S
C624 C628 1.350 . S
C625 C628 1.463 . S
C625 C630 1.350 . S
C625 N633 1.427 1_655 S
C626 H617 0.930 . S
C626 C624 1.378 . S
C626 C627 1.367 . S
C627 C626 1.367 . S
C627 C629 1.433 . S
C628 C624 1.350 . S
C628 C625 1.463 . S
C628 N632 1.427 . S
C629 H619 0.929 . S
C629 C627 1.433 . S
C629 N632 1.384 . S
C630 H621 0.929 . S
C630 C622 1.378 . S
C630 C625 1.350 . S
C631 H618 0.929 . S
C631 C623 1.433 . S
C631 N633 1.384 . S
N632 C628 1.427 . S
N632 C629 1.384 . S
N633 C625 1.427 1_455 S
N633 C631 1.384 . S
H634 C640 0.930 . S
H635 C644 0.930 1_545 S
H636 C649 0.929 . S
H637 C647 0.929 . S
H638 C642 0.919 1_545 S
H639 C648 0.929 . S
C640 H634 0.930 . S
C640 C641 1.367 1_565 S
C640 C648 1.378 . S
C641 C640 1.367 1_545 S
C641 C649 1.433 . S
C642 H638 0.919 1_565 S
C642 C644 1.381 . S
C642 C646 1.356 . S
C643 C646 1.463 . S
C643 C648 1.350 . S
C643 N651 1.427 1_565 S
C644 H635 0.930 1_565 S
C644 C642 1.381 . S
C644 C645 1.367 . S
C645 C644 1.367 . S
C645 C647 1.433 . S
C646 C642 1.356 . S
C646 C643 1.463 . S
C646 N650 1.427 . S
C647 H637 0.929 . S
C647 C645 1.433 . S
C647 N650 1.384 . S
C648 H639 0.929 . S
C648 C640 1.378 . S
C648 C643 1.350 . S
C649 H636 0.929 . S
C649 C641 1.433 . S
C649 N651 1.384 . S
N650 C646 1.427 . S
N650 C647 1.384 . S
N651 C643 1.427 1_545 S
N651 C649 1.384 . S
H652 C658 0.930 . S
H653 C662 0.930 . S
H654 C667 0.929 . S
H655 C665 0.929 . S
H656 C660 0.929 . S
H657 C666 0.929 . S
C658 H652 0.930 . S
C658 C659 1.367 . S
C658 C666 1.378 . S
C659 C658 1.367 . S
C659 C667 1.433 . S
C660 H656 0.929 . S
C660 C662 1.378 . S
C660 C664 1.350 . S
C661 C664 1.463 . S
C661 C666 1.350 . S
C661 N669 1.427 . S
C662 H653 0.930 . S
C662 C660 1.378 . S
C662 C663 1.367 . S
C663 C662 1.367 . S
C663 C665 1.433 . S
C664 C660 1.350 . S
C664 C661 1.463 . S
C664 N668 1.427 . S
C665 H655 0.929 . S
C665 C663 1.433 . S
C665 N668 1.384 . S
C666 H657 0.929 . S
C666 C658 1.378 . S
C666 C661 1.350 . S
C667 H654 0.929 . S
C667 C659 1.433 . S
C667 N669 1.384 . S
N668 C664 1.427 . S
N668 C665 1.384 . S
N669 C661 1.427 . S
N669 C667 1.384 . S
H670 C676 0.930 . S
H671 C680 0.930 . S
H672 C685 0.929 . S
H673 C683 0.929 . S
H674 C678 0.929 . S
H675 C684 0.929 . S
C676 H670 0.930 . S
C676 C677 1.367 . S
C676 C684 1.378 . S
C677 C676 1.367 . S
C677 C685 1.433 . S
C678 H674 0.929 . S
C678 C680 1.378 . S
C678 C682 1.350 . S
C679 C682 1.463 . S
C679 C684 1.350 . S
C679 N687 1.427 . S
C680 H671 0.930 . S
C680 C678 1.378 . S
C680 C681 1.367 . S
C681 C680 1.367 . S
C681 C683 1.433 . S
C682 C678 1.350 . S
C682 C679 1.463 . S
C682 N686 1.427 . S
C683 H673 0.929 . S
C683 C681 1.433 . S
C683 N686 1.384 . S
C684 H675 0.929 . S
C684 C676 1.378 . S
C684 C679 1.350 . S
C685 H672 0.929 . S
C685 C677 1.433 . S
C685 N687 1.384 . S
N686 C682 1.427 . S
N686 C683 1.384 . S
N687 C679 1.427 . S
N687 C685 1.384 . S
H688 C694 0.930 . S
H689 C698 0.930 . S
H690 C703 0.929 . S
H691 C701 0.929 . S
H692 C696 0.929 . S
H693 C702 0.929 . S
C694 H688 0.930 . S
C694 C695 1.367 1_455 S
C694 C702 1.378 . S
C695 C694 1.367 1_655 S
C695 C703 1.433 . S
C696 H692 0.929 . S
C696 C698 1.378 . S
C696 C700 1.350 1_556 S
C697 C700 1.463 . S
C697 C702 1.350 . S
C697 N705 1.427 1_455 S
C698 H689 0.930 . S
C698 C696 1.378 . S
C698 C699 1.367 . S
C699 C698 1.367 . S
C699 C701 1.433 1_556 S
C700 C696 1.350 1_554 S
C700 C697 1.463 . S
C700 N704 1.427 . S
C701 H691 0.929 . S
C701 C699 1.433 1_554 S
C701 N704 1.384 . S
C702 H693 0.929 . S
C702 C694 1.378 . S
C702 C697 1.350 . S
C703 H690 0.929 . S
C703 C695 1.433 . S
C703 N705 1.384 . S
N704 C700 1.427 . S
N704 C701 1.384 . S
N705 C697 1.427 1_655 S
N705 C703 1.384 . S
H706 C712 0.930 . S
H707 C716 0.930 . S
H708 C721 0.929 . S
H709 C719 0.929 . S
H710 C714 0.929 1_565 S
H711 C720 0.929 . S
C712 H706 0.930 . S
C712 C713 1.367 1_545 S
C712 C720 1.378 . S
C713 C712 1.367 1_565 S
C713 C721 1.433 . S
C714 H710 0.929 1_545 S
C714 C716 1.378 1_554 S
C714 C718 1.350 . S
C715 C718 1.463 . S
C715 C720 1.350 . S
C715 N723 1.427 1_545 S
C716 H707 0.930 . S
C716 C714 1.378 1_556 S
C716 C717 1.367 . S
C717 C716 1.367 . S
C717 C719 1.433 . S
C718 C714 1.350 . S
C718 C715 1.463 . S
C718 N722 1.427 1_554 S
C719 H709 0.929 . S
C719 C717 1.433 . S
C719 N722 1.384 . S
C720 H711 0.929 . S
C720 C712 1.378 . S
C720 C715 1.350 . S
C721 H708 0.929 . S
C721 C713 1.433 . S
C721 N723 1.384 . S
N722 C718 1.427 1_556 S
N722 C719 1.384 . S
N723 C715 1.427 1_565 S
N723 C721 1.384 . S
H724 C730 0.930 . S
H725 C734 0.930 . S
H726 C739 0.929 . S
H727 C737 0.929 . S
H728 C732 0.929 . S
H729 C738 0.929 . S
C730 H724 0.930 . S
C730 C731 1.367 . S
C730 C738 1.378 . S
C731 C730 1.367 . S
C731 C739 1.433 . S
C732 H728 0.929 . S
C732 C734 1.378 . S
C732 C736 1.350 1_556 S
C733 C736 1.463 . S
C733 C738 1.350 . S
C733 N741 1.427 . S
C734 H725 0.930 . S
C734 C732 1.378 . S
C734 C735 1.367 . S
C735 C734 1.367 . S
C735 C737 1.433 1_556 S
C736 C732 1.350 1_554 S
C736 C733 1.463 . S
C736 N740 1.427 . S
C737 H727 0.929 . S
C737 C735 1.433 1_554 S
C737 N740 1.384 . S
C738 H729 0.929 . S
C738 C730 1.378 . S
C738 C733 1.350 . S
C739 H726 0.929 . S
C739 C731 1.433 . S
C739 N741 1.384 . S
N740 C736 1.427 . S
N740 C737 1.384 . S
N741 C733 1.427 . S
N741 C739 1.384 . S
H742 C748 0.930 . S
H743 C752 0.930 . S
H744 C757 0.929 . S
H745 C755 0.929 . S
H746 C750 0.929 . S
H747 C756 0.929 . S
C748 H742 0.930 . S
C748 C749 1.367 . S
C748 C756 1.378 . S
C749 C748 1.367 . S
C749 C757 1.433 . S
C750 H746 0.929 . S
C750 C752 1.378 . S
C750 C754 1.350 1_556 S
C751 C754 1.463 . S
C751 C756 1.350 . S
C751 N759 1.427 . S
C752 H743 0.930 . S
C752 C750 1.378 . S
C752 C753 1.367 . S
C753 C752 1.367 . S
C753 C755 1.433 . S
C754 C750 1.350 1_554 S
C754 C751 1.463 . S
C754 N758 1.427 . S
C755 H745 0.929 . S
C755 C753 1.433 . S
C755 N758 1.384 1_556 S
C756 H747 0.929 . S
C756 C748 1.378 . S
C756 C751 1.350 . S
C757 H744 0.929 . S
C757 C749 1.433 . S
C757 N759 1.384 . S
N758 C754 1.427 . S
N758 C755 1.384 1_554 S
N759 C751 1.427 . S
N759 C757 1.384 . S
H760 C766 0.930 . S
H761 C770 0.930 . S
H762 C775 0.929 . S
H763 C773 0.929 . S
H764 C768 0.929 . S
H765 C774 0.929 . S
C766 H760 0.930 . S
C766 C767 1.367 1_655 S
C766 C774 1.378 . S
C767 C766 1.367 1_455 S
C767 C775 1.433 . S
C768 H764 0.929 . S
C768 C770 1.378 . S
C768 C772 1.350 . S
C769 C772 1.463 . S
C769 C774 1.350 1_455 S
C769 N777 1.427 . S
C770 H761 0.930 . S
C770 C768 1.378 . S
C770 C771 1.367 . S
C771 C770 1.367 . S
C771 C773 1.433 1_455 S
C772 C768 1.350 . S
C772 C769 1.463 . S
C772 N776 1.427 1_455 S
C773 H763 0.929 . S
C773 C771 1.433 1_655 S
C773 N776 1.384 . S
C774 H765 0.929 . S
C774 C766 1.378 . S
C774 C769 1.350 1_655 S
C775 H762 0.929 . S
C775 C767 1.433 . S
C775 N777 1.384 . S
N776 C772 1.427 1_655 S
N776 C773 1.384 . S
N777 C769 1.427 . S
N777 C775 1.384 . S
H778 C784 0.930 . S
H779 C788 0.930 . S
H780 C793 0.929 . S
H781 C791 0.929 . S
H782 C786 0.929 . S
H783 C792 0.929 . S
C784 H778 0.930 . S
C784 C785 1.367 . S
C784 C792 1.378 . S
C785 C784 1.367 . S
C785 C793 1.433 1_545 S
C786 H782 0.929 . S
C786 C788 1.378 . S
C786 C790 1.350 1_565 S
C787 C790 1.463 . S
C787 C792 1.350 . S
C787 N795 1.427 1_545 S
C788 H779 0.930 . S
C788 C786 1.378 . S
C788 C789 1.367 1_565 S
C789 C788 1.367 1_545 S
C789 C791 1.433 . S
C790 C786 1.350 1_545 S
C790 C787 1.463 . S
C790 N794 1.427 . S
C791 H781 0.929 . S
C791 C789 1.433 . S
C791 N794 1.384 . S
C792 H783 0.929 . S
C792 C784 1.378 . S
C792 C787 1.350 . S
C793 H780 0.929 . S
C793 C785 1.433 1_565 S
C793 N795 1.384 . S
N794 C790 1.427 . S
N794 C791 1.384 . S
N795 C787 1.427 1_565 S
N795 C793 1.384 . S
H796 C802 0.930 . S
H797 C806 0.930 . S
H798 C811 0.929 . S
H799 C809 0.929 . S
H800 C804 0.929 . S
H801 C810 0.929 . S
C802 H796 0.930 . S
C802 C803 1.367 . S
C802 C810 1.378 . S
C803 C802 1.367 . S
C803 C811 1.433 . S
C804 H800 0.929 . S
C804 C806 1.378 . S
C804 C808 1.350 . S
C805 C808 1.463 . S
C805 C810 1.350 . S
C805 N813 1.427 . S
C806 H797 0.930 . S
C806 C804 1.378 . S
C806 C807 1.367 . S
C807 C806 1.367 . S
C807 C809 1.433 . S
C808 C804 1.350 . S
C808 C805 1.463 . S
C808 N812 1.427 . S
C809 H799 0.929 . S
C809 C807 1.433 . S
C809 N812 1.384 . S
C810 H801 0.929 . S
C810 C802 1.378 . S
C810 C805 1.350 . S
C811 H798 0.929 . S
C811 C803 1.433 . S
C811 N813 1.384 . S
N812 C808 1.427 . S
N812 C809 1.384 . S
N813 C805 1.427 . S
N813 C811 1.384 . S
H814 C820 0.930 . S
H815 C824 0.930 . S
H816 C829 0.929 . S
H817 C827 0.929 . S
H818 C822 0.929 . S
H819 C828 0.929 . S
C820 H814 0.930 . S
C820 C821 1.367 . S
C820 C828 1.378 . S
C821 C820 1.367 . S
C821 C829 1.433 . S
C822 H818 0.929 . S
C822 C824 1.378 . S
C822 C826 1.350 . S
C823 C826 1.463 . S
C823 C828 1.350 . S
C823 N831 1.427 . S
C824 H815 0.930 . S
C824 C822 1.378 . S
C824 C825 1.367 . S
C825 C824 1.367 . S
C825 C827 1.433 . S
C826 C822 1.350 . S
C826 C823 1.463 . S
C826 N830 1.427 . S
C827 H817 0.929 . S
C827 C825 1.433 . S
C827 N830 1.384 . S
C828 H819 0.929 . S
C828 C820 1.378 . S
C828 C823 1.350 . S
C829 H816 0.929 . S
C829 C821 1.433 . S
C829 N831 1.384 . S
N830 C826 1.427 . S
N830 C827 1.384 . S
N831 C823 1.427 . S
N831 C829 1.384 . S
H832 C838 0.930 . S
H833 C842 0.930 . S
H834 C847 0.929 . S
H835 C845 0.929 . S
H836 C840 0.929 . S
H837 C846 0.929 . S
C838 H832 0.930 . S
C838 C839 1.367 1_455 S
C838 C846 1.378 . S
C839 C838 1.367 1_655 S
C839 C847 1.433 . S
C840 H836 0.929 . S
C840 C842 1.378 . S
C840 C844 1.350 . S
C841 C844 1.463 . S
C841 C846 1.350 1_655 S
C841 N849 1.427 . S
C842 H833 0.930 . S
C842 C840 1.378 . S
C842 C843 1.367 . S
C843 C842 1.367 . S
C843 C845 1.433 1_655 S
C844 C840 1.350 . S
C844 C841 1.463 . S
C844 N848 1.427 1_655 S
C845 H835 0.929 . S
C845 C843 1.433 1_455 S
C845 N848 1.384 . S
C846 H837 0.929 . S
C846 C838 1.378 . S
C846 C841 1.350 1_455 S
C847 H834 0.929 . S
C847 C839 1.433 . S
C847 N849 1.384 . S
N848 C844 1.427 1_455 S
N848 C845 1.384 . S
N849 C841 1.427 . S
N849 C847 1.384 . S
H850 C856 0.930 . S
H851 C860 0.930 . S
H852 C865 0.929 . S
H853 C863 0.929 . S
H854 C858 0.929 . S
H855 C864 0.929 . S
C856 H850 0.930 . S
C856 C857 1.367 1_545 S
C856 C864 1.378 . S
C857 C856 1.367 1_565 S
C857 C865 1.433 . S
C858 H854 0.929 . S
C858 C860 1.378 . S
C858 C862 1.350 . S
C859 C862 1.463 . S
C859 C864 1.350 1_565 S
C859 N867 1.427 . S
C860 H851 0.930 . S
C860 C858 1.378 . S
C860 C861 1.367 . S
C861 C860 1.367 . S
C861 C863 1.433 1_565 S
C862 C858 1.350 . S
C862 C859 1.463 . S
C862 N866 1.427 1_565 S
C863 H853 0.929 . S
C863 C861 1.433 1_545 S
C863 N866 1.384 . S
C864 H855 0.929 . S
C864 C856 1.378 . S
C864 C859 1.350 1_545 S
C865 H852 0.929 . S
C865 C857 1.433 . S
C865 N867 1.384 . S
N866 C862 1.427 1_545 S
N866 C863 1.384 . S
N867 C859 1.427 . S
N867 C865 1.384 . S
H868 C874 0.930 . S
H869 C878 0.930 . S
H870 C883 0.929 . S
H871 C881 0.929 . S
H872 C876 0.929 . S
H873 C882 0.929 . S
C874 H868 0.930 . S
C874 C875 1.367 . S
C874 C882 1.378 . S
C875 C874 1.367 . S
C875 C883 1.433 . S
C876 H872 0.929 . S
C876 C878 1.378 . S
C876 C880 1.350 . S
C877 C880 1.463 . S
C877 C882 1.350 . S
C877 N885 1.427 . S
C878 H869 0.930 . S
C878 C876 1.378 . S
C878 C879 1.367 . S
C879 C878 1.367 . S
C879 C881 1.433 . S
C880 C876 1.350 . S
C880 C877 1.463 . S
C880 N884 1.427 . S
C881 H871 0.929 . S
C881 C879 1.433 . S
C881 N884 1.384 . S
C882 H873 0.929 . S
C882 C874 1.378 . S
C882 C877 1.350 . S
C883 H870 0.929 . S
C883 C875 1.433 . S
C883 N885 1.384 . S
N884 C880 1.427 . S
N884 C881 1.384 . S
N885 C877 1.427 . S
N885 C883 1.384 . S
H886 C892 0.930 . S
H887 C896 0.930 . S
H888 C901 0.929 . S
H889 C899 0.929 . S
H890 C894 0.929 . S
H891 C900 0.929 . S
C892 H886 0.930 . S
C892 C893 1.367 . S
C892 C900 1.378 . S
C893 C892 1.367 . S
C893 C901 1.433 . S
C894 H890 0.929 . S
C894 C896 1.378 . S
C894 C898 1.350 . S
C895 C898 1.463 . S
C895 C900 1.350 . S
C895 N903 1.427 . S
C896 H887 0.930 . S
C896 C894 1.378 . S
C896 C897 1.367 . S
C897 C896 1.367 . S
C897 C899 1.433 . S
C898 C894 1.350 . S
C898 C895 1.463 . S
C898 N902 1.427 . S
C899 H889 0.929 . S
C899 C897 1.433 . S
C899 N902 1.384 . S
C900 H891 0.929 . S
C900 C892 1.378 . S
C900 C895 1.350 . S
C901 H888 0.929 . S
C901 C893 1.433 . S
C901 N903 1.384 . S
N902 C898 1.427 . S
N902 C899 1.384 . S
N903 C895 1.427 . S
N903 C901 1.384 . S
C479 C255 2.179 . S
C483 C322 2.354 . S
C501 C362 2.370 . S
C497 C294 2.164 . S
C519 C402 2.356 . S
C515 C177 2.180 . S
C537 C442 2.361 1_455 S
C533 C216 2.187 . S
C555 C331 2.354 1_565 S
C551 C99 2.171 . S
C569 C138 2.165 . S
C573 C371 2.369 . S
C587 C21 2.177 . S
C591 C411 2.360 . S
C605 C60 2.177 . S
C609 C451 2.363 1_655 S
C627 C328 0.451 . S
C623 C196 0.429 . S
C645 C368 0.456 . S
C641 C235 0.440 . S
C663 C408 0.461 . S
C659 C289 0.454 . S
C677 C157 0.444 . S
C681 C448 0.455 . S
C695 C40 0.421 . S
C699 C319 0.462 . S
C717 C359 0.457 . S
C713 C79 0.441 . S
C735 C399 0.451 . S
C731 C133 0.419 . S
C749 C1 0.434 . S
C753 C439 0.457 . S
C767 C211 2.811 . S
C771 C323 3.223 . S
C785 C250 2.811 . S
C789 C363 3.214 . S
C807 C403 3.220 . S
C803 C274 2.814 . S
C825 C443 3.214 . S
C821 C172 2.807 . S
C839 C55 2.822 . S
C843 C314 3.225 . S
C861 C354 3.216 . S
C857 C94 2.804 . S
C879 C394 3.224 . S
C875 C118 2.828 . S
C893 C16 2.810 . S
C897 C434 3.220 . S
