# Generated by pormake.
# Topology zzz, (3,6)-cn, num edge types: 1
# Building blocks:
#     Node 0, Type 0, BuildingBlock: KAKCAD_clean_linker_0, # of connection points: 3
#     Node 1, Type 0, BuildingBlock: KAKCAD_clean_linker_0, # of connection points: 3
#     Node 2, Type 0, BuildingBlock: KAKCAD_clean_linker_0, # of connection points: 3
#     Node 3, Type 0, BuildingBlock: KAKCAD_clean_linker_0, # of connection points: 3
#     Node 4, Type 0, BuildingBlock: KAKCAD_clean_linker_0, # of connection points: 3
#     Node 5, Type 0, BuildingBlock: KAKCAD_clean_linker_0, # of connection points: 3
#     Node 6, Type 0, BuildingBlock: KAKCAD_clean_linker_0, # of connection points: 3
#     Node 7, Type 0, BuildingBlock: KAKCAD_clean_linker_0, # of connection points: 3
#     Node 8, Type 1, BuildingBlock: NUHQIS_clean_sbu_0, # of connection points: 6
#     Node 9, Type 1, BuildingBlock: NUHQIS_clean_sbu_0, # of connection points: 6
#     Node 10, Type 1, BuildingBlock: NUHQIS_clean_sbu_0, # of connection points: 6
#     Node 11, Type 1, BuildingBlock: NUHQIS_clean_sbu_0, # of connection points: 6
#     Edge 12, Type (0, 1), BuildingBlock: KIFKEQ_clean_linker_1, # of connection points: 2
#     Edge 13, Type (0, 1), BuildingBlock: KIFKEQ_clean_linker_1, # of connection points: 2
#     Edge 14, Type (0, 1), BuildingBlock: KIFKEQ_clean_linker_1, # of connection points: 2
#     Edge 15, Type (0, 1), BuildingBlock: KIFKEQ_clean_linker_1, # of connection points: 2
#     Edge 16, Type (0, 1), BuildingBlock: KIFKEQ_clean_linker_1, # of connection points: 2
#     Edge 17, Type (0, 1), BuildingBlock: KIFKEQ_clean_linker_1, # of connection points: 2
#     Edge 18, Type (0, 1), BuildingBlock: KIFKEQ_clean_linker_1, # of connection points: 2
#     Edge 19, Type (0, 1), BuildingBlock: KIFKEQ_clean_linker_1, # of connection points: 2
#     Edge 20, Type (0, 1), BuildingBlock: KIFKEQ_clean_linker_1, # of connection points: 2
#     Edge 21, Type (0, 1), BuildingBlock: KIFKEQ_clean_linker_1, # of connection points: 2
#     Edge 22, Type (0, 1), BuildingBlock: KIFKEQ_clean_linker_1, # of connection points: 2
#     Edge 23, Type (0, 1), BuildingBlock: KIFKEQ_clean_linker_1, # of connection points: 2
#     Edge 24, Type (0, 1), BuildingBlock: KIFKEQ_clean_linker_1, # of connection points: 2
#     Edge 25, Type (0, 1), BuildingBlock: KIFKEQ_clean_linker_1, # of connection points: 2
#     Edge 26, Type (0, 1), BuildingBlock: KIFKEQ_clean_linker_1, # of connection points: 2
#     Edge 27, Type (0, 1), BuildingBlock: KIFKEQ_clean_linker_1, # of connection points: 2
#     Edge 28, Type (0, 1), BuildingBlock: KIFKEQ_clean_linker_1, # of connection points: 2
#     Edge 29, Type (0, 1), BuildingBlock: KIFKEQ_clean_linker_1, # of connection points: 2
#     Edge 30, Type (0, 1), BuildingBlock: KIFKEQ_clean_linker_1, # of connection points: 2
#     Edge 31, Type (0, 1), BuildingBlock: KIFKEQ_clean_linker_1, # of connection points: 2
#     Edge 32, Type (0, 1), BuildingBlock: KIFKEQ_clean_linker_1, # of connection points: 2
#     Edge 33, Type (0, 1), BuildingBlock: KIFKEQ_clean_linker_1, # of connection points: 2
#     Edge 34, Type (0, 1), BuildingBlock: KIFKEQ_clean_linker_1, # of connection points: 2
#     Edge 35, Type (0, 1), BuildingBlock: KIFKEQ_clean_linker_1, # of connection points: 2
# Relax obj value: 0.415
# Max RMSD: 0.255
# Mean RMSD: 0.232
data_MOF--net-zzz--node1-NUHQIS_clean_sbu_0--node2-KAKCAD_clean_linker_0--edge1-KIFKEQ_clean_linker_1
_symmetry_space_group_name_H-M    P1
_symmetry_Int_Tables_number       1
_symmetry_cell_setting            triclinic
loop_
_symmetry_equiv_pos_as_xyz
'x, y, z'
_cell_length_a     60.897657
_cell_length_b     60.817601
_cell_length_c     19.366129
_cell_angle_alpha  89.998123
_cell_angle_beta   89.97579
_cell_angle_gamma 90.03935
loop_
_atom_site_label
_atom_site_type_symbol
_atom_site_fract_x
_atom_site_fract_y
_atom_site_fract_z
_atom_type_partial_charge
C0 C 0.76344 0.44022 0.01872 0.0
C1 C 0.77981 0.42497 0.03686 0.0
C2 C 0.75257 0.45233 0.06956 0.0
C3 C 0.75746 0.44907 0.1398 0.0
C4 C 0.77187 0.43199 0.15802 0.0
C5 C 0.78307 0.42022 0.10723 0.0
C6 C 0.74948 0.46484 0.19295 0.0
C7 C 0.72872 0.47449 0.18768 0.0
C8 C 0.72204 0.49099 0.23368 0.0
C9 C 0.73621 0.49761 0.28767 0.0
C10 C 0.75698 0.48744 0.29516 0.0
C11 C 0.76343 0.47151 0.24661 0.0
C12 C 0.77282 0.49298 0.35155 0.0
C13 C 0.7792 0.51475 0.36536 0.0
C14 C 0.7841 0.47586 0.38503 0.0
C15 C 0.80229 0.48014 0.42677 0.0
C16 C 0.80966 0.50181 0.43792 0.0
C17 C 0.7002 0.5009 0.2211 0.0
C18 C 0.69819 0.51748 0.17102 0.0
C19 C 0.68131 0.48946 0.24194 0.0
C20 C 0.6611 0.49335 0.20962 0.0
C21 C 0.65939 0.50863 0.15518 0.0
C22 C 0.67798 0.52138 0.13858 0.0
C23 C 0.79739 0.51912 0.40819 0.0
H24 H 0.76001 0.44387 0.96507 0.0
H25 H 0.74149 0.46524 0.05332 0.0
H26 H 0.77546 0.42851 0.21169 0.0
H27 H 0.79549 0.40863 0.12367 0.0
H28 H 0.71764 0.46937 0.14686 0.0
H29 H 0.77988 0.46478 0.24945 0.0
H30 H 0.73105 0.51023 0.32361 0.0
H31 H 0.7709 0.52831 0.34029 0.0
H32 H 0.77951 0.45888 0.37604 0.0
H33 H 0.81118 0.4662 0.44723 0.0
H34 H 0.71265 0.52607 0.15268 0.0
H35 H 0.68256 0.47625 0.27928 0.0
H36 H 0.80211 0.53607 0.41649 0.0
H37 H 0.67741 0.53315 0.09666 0.0
H38 H 0.64708 0.48349 0.22463 0.0
C39 C 0.0789 0.76106 0.0273 0.0
C40 C 0.09106 0.78001 0.04456 0.0
C41 C 0.06585 0.75051 0.07655 0.0
C42 C 0.0654 0.75788 0.14547 0.0
C43 C 0.07999 0.77474 0.16461 0.0
C44 C 0.09223 0.78594 0.1149 0.0
C45 C 0.04834 0.74974 0.195 0.0
C46 C 0.03925 0.72865 0.18856 0.0
C47 C 0.02109 0.72212 0.2284 0.0
C48 C 0.01249 0.73665 0.27862 0.0
C49 C 0.02244 0.75738 0.28913 0.0
C50 C 0.03976 0.76385 0.24573 0.0
C51 C 0.01548 0.77311 0.34413 0.0
C52 C 0.994 0.78146 0.34731 0.0
C53 C 0.03161 0.78257 0.38679 0.0
C54 C 0.02685 0.80077 0.42819 0.0
C55 C 0.00571 0.81011 0.42877 0.0
C56 C 0.01107 0.70044 0.21213 0.0
C57 C 0.9909 0.69942 0.17718 0.0
C58 C 0.02402 0.68136 0.21598 0.0
C59 C 0.01772 0.66211 0.18157 0.0
C60 C 0.9984 0.66154 0.14173 0.0
C61 C 0.98464 0.68018 0.1422 0.0
C62 C 0.98916 0.79978 0.38916 0.0
H63 H 0.07834 0.75495 0.97492 0.0
H64 H 0.05517 0.73745 0.05896 0.0
H65 H 0.08115 0.78022 0.21765 0.0
H66 H 0.10136 0.80016 0.13206 0.0
H67 H 0.04582 0.71729 0.15078 0.0
H68 H 0.04601 0.78044 0.25057 0.0
H69 H 0.99861 0.73168 0.30998 0.0
H70 H 0.98127 0.77463 0.31467 0.0
H71 H 0.04834 0.77653 0.38538 0.0
H72 H 0.04019 0.80821 0.45678 0.0
H73 H 0.98079 0.714 0.17242 0.0
H74 H 0.03982 0.68183 0.24165 0.0
H75 H 0.97258 0.80618 0.38898 0.0
H76 H 0.96951 0.68025 0.11283 0.0
H77 H 0.02884 0.64823 0.18209 0.0
C78 C 0.73921 0.08863 0.05089 0.0
C79 C 0.72117 0.10072 0.07564 0.0
C80 C 0.75132 0.07522 0.09528 0.0
C81 C 0.74608 0.07401 0.16598 0.0
C82 C 0.72959 0.08793 0.19186 0.0
C83 C 0.71714 0.10094 0.14722 0.0
C84 C 0.75612 0.05676 0.2106 0.0
C85 C 0.7778 0.04984 0.19999 0.0
C86 C 0.78647 0.03159 0.23527 0.0
C87 C 0.77322 0.0204 0.28386 0.0
C88 C 0.75168 0.02786 0.29723 0.0
C89 C 0.74333 0.04575 0.26001 0.0
C90 C 0.73676 0.01723 0.34772 0.0
C91 C 0.72188 1.00116 0.32504 0.0
C92 C 0.73336 0.02714 0.41235 0.0
C93 C 0.71475 0.02197 0.45191 0.0
C94 C 0.69898 0.00698 0.42715 0.0
C95 C 0.80895 0.02419 0.21597 0.0
C96 C 0.81247 1.00316 0.18796 0.0
C97 C 0.826 0.03976 0.21222 0.0
C98 C 0.84528 0.03515 0.17589 0.0
C99 C 0.84808 0.01481 0.14269 0.0
C100 C 0.83193 0.99847 0.15171 0.0
C101 C 0.70322 0.99604 0.36438 0.0
H102 H 0.74323 0.0885 0.99643 0.0
H103 H 0.76388 0.06481 0.07301 0.0
H104 H 0.72552 0.088 0.2463 0.0
H105 H 0.70341 0.10994 0.16866 0.0
H106 H 0.78789 0.05829 0.16227 0.0
H107 H 0.72637 0.05051 0.26816 0.0
H108 H 0.77959 0.00621 0.31109 0.0
H109 H 0.72387 0.99368 0.27466 0.0
H110 H 0.74429 0.04003 0.43001 0.0
H111 H 0.71199 0.03086 0.49956 0.0
H112 H 0.79953 0.99093 0.18943 0.0
H113 H 0.82379 0.05607 0.23362 0.0
H114 H 0.69161 0.98419 0.34412 0.0
H115 H 0.83363 0.98264 0.12668 0.0
H116 H 0.85758 0.04793 0.17095 0.0
C117 C 0.49383 0.71377 0.44078 0.0
C118 C 0.5089 0.69698 0.4245 0.0
C119 C 0.49071 0.73164 0.39601 0.0
C120 C 0.50257 0.73312 0.33399 0.0
C121 C 0.51855 0.71711 0.31964 0.0
C122 C 0.52183 0.69935 0.36465 0.0
C123 C 0.49409 0.74712 0.27722 0.0
C124 C 0.49878 0.76981 0.27098 0.0
C125 C 0.489 0.78221 0.21729 0.0
C126 C 0.47464 0.77172 0.17097 0.0
C127 C 0.47043 0.74922 0.1761 0.0
C128 C 0.4802 0.73704 0.22897 0.0
C129 C 0.4564 0.73813 0.1248 0.0
C130 C 0.43438 0.74435 0.1158 0.0
C131 C 0.46496 0.72068 0.08607 0.0
C132 C 0.45162 0.70927 0.03994 0.0
C133 C 0.42936 0.71489 0.03244 0.0
C134 C 0.49381 0.80587 0.20498 0.0
C135 C 0.47624 0.82064 0.19733 0.0
C136 C 0.51498 0.81274 0.18557 0.0
C137 C 0.51812 0.83328 0.15365 0.0
C138 C 0.50012 0.84719 0.14039 0.0
C139 C 0.47934 0.84102 0.16547 0.0
C140 C 0.42083 0.73261 0.07046 0.0
H141 H 0.48377 0.71262 0.48676 0.0
H142 H 0.47791 0.74347 0.40741 0.0
H143 H 0.52746 0.71756 0.27122 0.0
H144 H 0.53343 0.68668 0.35004 0.0
H145 H 0.50973 0.77771 0.30744 0.0
H146 H 0.47669 0.71959 0.23327 0.0
H147 H 0.46731 0.78095 0.12893 0.0
H148 H 0.42751 0.7578 0.14547 0.0
H149 H 0.48193 0.7157 0.09217 0.0
H150 H 0.45851 0.69544 0.01215 0.0
H151 H 0.45974 0.81575 0.21177 0.0
H152 H 0.52875 0.80156 0.18999 0.0
H153 H 0.4037 0.73712 0.06579 0.0
H154 H 0.46521 0.85151 0.15725 0.0
H155 H 0.53433 0.83754 0.13487 0.0
C156 C 0.23904 0.58735 0.34794 0.0
C157 C 0.21973 0.57889 0.37743 0.0
C158 C 0.24991 0.57564 0.29584 0.0
C159 C 0.2413 0.5556 0.27168 0.0
C160 C 0.22199 0.54727 0.30117 0.0
C161 C 0.21137 0.55874 0.35353 0.0
C162 C 0.25244 0.54289 0.21689 0.0
C163 C 0.27466 0.5376 0.22306 0.0
C164 C 0.28481 0.52322 0.17606 0.0
C165 C 0.27236 0.51437 0.1209 0.0
C166 C 0.25006 0.52034 0.11311 0.0
C167 C 0.24036 0.53445 0.16145 0.0
C168 C 0.23572 0.51184 0.05722 0.0
C169 C 0.23272 0.52429 0.99687 0.0
C170 C 0.22073 0.49496 0.0722 0.0
C171 C 0.20238 0.49145 0.02996 0.0
C172 C 0.19847 0.50486 0.97194 0.0
C173 C 0.30799 0.51699 0.19013 0.0
C174 C 0.32371 0.53363 0.19985 0.0
C175 C 0.31337 0.49536 0.20889 0.0
C176 C 0.33348 0.49078 0.24146 0.0
C177 C 0.34862 0.50776 0.25572 0.0
C178 C 0.34375 0.52909 0.23205 0.0
C179 C 0.21436 0.52075 0.95437 0.0
H180 H 0.24571 0.60292 0.36529 0.0
H181 H 0.26482 0.58235 0.27372 0.0
H182 H 0.21516 0.53174 0.28403 0.0
H183 H 0.19628 0.55202 0.3744 0.0
H184 H 0.28385 0.54376 0.26698 0.0
H185 H 0.22313 0.53867 0.15634 0.0
H186 H 0.27989 0.50305 0.08478 0.0
H187 H 0.2437 0.53782 0.98531 0.0
H188 H 0.2224 0.48548 0.11928 0.0
H189 H 0.1907 0.47883 0.04456 0.0
H190 H 0.31987 0.5505 0.18655 0.0
H191 H 0.30144 0.48228 0.20287 0.0
H192 H 0.21186 0.53151 0.91051 0.0
H193 H 0.35477 0.54267 0.24244 0.0
H194 H 0.33678 0.47409 0.25789 0.0
C195 C 0.93052 0.23695 0.36986 0.0
C196 C 0.93824 0.21735 0.39951 0.0
C197 C 0.9428 0.24757 0.31857 0.0
C198 C 0.96272 0.2385 0.29541 0.0
C199 C 0.97042 0.219 0.32539 0.0
C200 C 0.95835 0.20858 0.37691 0.0
C201 C 0.97566 0.24919 0.24016 0.0
C202 C 0.98065 0.27157 0.244 0.0
C203 C 0.99416 0.28165 0.19441 0.0
C204 C 1.00249 0.26893 0.13902 0.0
C205 C 0.99708 0.24636 0.1341 0.0
C206 C 0.98385 0.23675 0.18511 0.0
C207 C 1.00442 0.23195 0.07667 0.0
C208 C 0.99185 0.23063 0.01606 0.0
C209 C 0.02022 0.21562 0.08942 0.0
C210 C 0.02268 0.19776 0.04423 0.0
C211 C 0.00913 0.19562 0.9857 0.0
C212 C 0.99973 0.30522 0.20515 0.0
C213 C 0.9827 0.32044 0.2156 0.0
C214 C 0.02137 0.31166 0.22001 0.0
C215 C 0.02565 0.33235 0.24947 0.0
C216 C 0.00836 0.34704 0.26453 0.0
C217 C 0.98693 0.34104 0.24479 0.0
C218 C 0.99418 0.21268 0.97105 0.0
H219 H 0.91503 0.24398 0.3862 0.0
H220 H 0.93652 0.26261 0.296 0.0
H221 H 0.98583 0.21179 0.30895 0.0
H222 H 0.96453 0.19326 0.39781 0.0
H223 H 0.97468 0.28106 0.28757 0.0
H224 H 0.97975 0.21942 0.1815 0.0
H225 H 0.01292 0.27648 0.10036 0.0
H226 H 0.97919 0.24271 0.00592 0.0
H227 H 0.02968 0.21594 0.13678 0.0
H228 H 0.03421 0.18491 0.05771 0.0
H229 H 0.96583 0.31582 0.20528 0.0
H230 H 0.03478 0.30015 0.21333 0.0
H231 H 0.98365 0.21174 0.92609 0.0
H232 H 0.97311 0.35165 0.25595 0.0
H233 H 0.04241 0.3365 0.26281 0.0
C234 C 0.27209 0.93391 0.35116 0.0
C235 C 0.29496 0.93532 0.3582 0.0
C236 C 0.26095 0.94869 0.30801 0.0
C237 C 0.27256 0.96524 0.27236 0.0
C238 C 0.29537 0.96696 0.28204 0.0
C239 C 0.30642 0.95207 0.32391 0.0
C240 C 0.26131 0.98061 0.22433 0.0
C241 C 0.24063 0.98936 0.24003 0.0
C242 C 0.23043 1.00448 0.19557 0.0
C243 C 0.24132 0.01128 0.13472 0.0
C244 C 0.26218 1.00257 0.11874 0.0
C245 C 0.27171 0.98709 0.16302 0.0
C246 C 0.27537 0.00949 0.05816 0.0
C247 C 0.27871 0.99451 1.00404 0.0
C248 C 0.28949 0.02767 0.06393 0.0
C249 C 0.30756 0.02994 0.01948 0.0
C250 C 0.31196 0.01396 0.96863 0.0
C251 C 0.2083 0.01247 0.21497 0.0
C252 C 0.1896 1.003 0.18489 0.0
C253 C 0.20581 0.02569 0.27391 0.0
C254 C 0.18514 0.02846 0.30441 0.0
C255 C 0.16656 0.01776 0.27723 0.0
C256 C 0.16892 1.00558 0.21578 0.0
C257 C 0.2967 0.99678 0.95953 0.0
H258 H 0.26297 0.92117 0.37774 0.0
H259 H 0.24339 0.94688 0.30152 0.0
H260 H 0.30476 0.97988 0.25736 0.0
H261 H 0.32404 0.95377 0.33002 0.0
H262 H 0.23243 0.98459 0.28745 0.0
H263 H 0.28757 0.98021 0.14958 0.0
H264 H 0.23373 0.02319 0.10066 0.0
H265 H 0.26833 0.98011 0.99942 0.0
H266 H 0.28761 0.0391 0.10644 0.0
H267 H 0.31897 0.0433 0.02844 0.0
H268 H 0.19119 0.9924 0.14022 0.0
H269 H 0.22009 0.03278 0.29878 0.0
H270 H 0.29928 0.9844 0.92016 0.0
H271 H 0.15491 0.99731 0.19313 0.0
H272 H 0.18401 0.03777 0.35194 0.0
C273 C 0.49335 0.29971 0.00591 0.0
C274 C 0.5097 0.31029 0.96612 0.0
C275 C 0.49862 0.28183 0.04899 0.0
C276 C 0.52034 0.27417 0.05329 0.0
C277 C 0.5363 0.28384 0.01044 0.0
C278 C 0.53112 0.30162 0.96783 0.0
C279 C 0.52748 0.2588 0.10898 0.0
C280 C 0.51723 0.23834 0.12177 0.0
C281 C 0.52557 0.22429 0.17364 0.0
C282 C 0.54369 0.23102 0.21318 0.0
C283 C 0.55325 0.25174 0.20367 0.0
C284 C 0.54508 0.26537 0.15116 0.0
C285 C 0.5704 0.2601 0.25196 0.0
C286 C 0.56933 0.25525 0.32293 0.0
C287 C 0.58659 0.27487 0.22885 0.0
C288 C 0.59958 0.28637 0.27598 0.0
C289 C 0.59709 0.28302 0.34749 0.0
C290 C 0.51546 0.20284 0.19139 0.0
C291 C 0.49633 0.20221 0.23177 0.0
C292 C 0.52779 0.1835 0.18339 0.0
C293 C 0.52192 0.16426 0.21856 0.0
C294 C 0.50372 0.16401 0.26338 0.0
C295 C 0.49052 0.18299 0.26752 0.0
C296 C 0.58272 0.26635 0.36997 0.0
H297 H 0.47658 0.3056 1.00522 0.0
H298 H 0.48598 0.27481 0.08163 0.0
H299 H 0.55319 0.27828 0.01245 0.0
H300 H 0.54431 0.30928 0.93906 0.0
H301 H 0.50327 0.23322 0.09103 0.0
H302 H 0.55186 0.2817 0.14441 0.0
H303 H 0.54996 0.22014 0.2529 0.0
H304 H 0.55718 0.24394 0.34307 0.0
H305 H 0.58846 0.27847 0.1744 0.0
H306 H 0.61039 0.29899 0.25607 0.0
H307 H 0.4868 0.21703 0.23984 0.0
H308 H 0.54287 0.18372 0.15368 0.0
H309 H 0.58082 0.26277 0.4244 0.0
H310 H 0.47626 0.1833 0.30091 0.0
H311 H 0.53259 0.15008 0.21449 0.0
Tb312 Tb 0.01985 0.99647 0.74792 0.0
Eu313 Eu 0.9845 0.01352 0.63284 0.0
C314 C 0.03544 0.00943 0.5988 0.0
C315 C 1.00518 0.04681 0.74422 0.0
C316 C 0.06263 0.96201 0.82374 0.0
C317 C 0.08749 0.93608 0.8777 0.0
C318 C 0.07669 0.95637 0.87808 0.0
C319 C 0.06041 0.9478 0.76708 0.0
C320 C 0.07106 0.9275 0.76687 0.0
C321 C 0.08414 0.92116 0.8232 0.0
C322 C 0.04875 0.98161 0.82858 0.0
O323 O 0.99069 1.00373 0.80918 0.0
O324 O 0.96476 1.00133 0.72364 0.0
O325 O 0.99471 0.97957 0.59941 0.0
O326 O 1.00461 0.96663 0.70583 0.0
C327 C 0.97013 1.00199 0.78928 0.0
O328 O 0.953 0.00922 0.58074 0.0
O329 O 0.9748 0.03559 0.54976 0.0
O330 O 0.01815 0.02208 0.59206 0.0
O331 O 0.03635 0.99464 0.64804 0.0
O332 O 0.02104 0.03246 0.75528 0.0
O333 O 0.9878 0.04177 0.70723 0.0
C334 C 0.99913 0.96311 0.64097 0.0
O335 O 0.05253 0.99685 0.78278 0.0
O336 O 0.02783 0.97757 0.83487 0.0
C337 C 0.9372 0.04296 0.54671 0.0
C338 C 0.90934 0.07984 0.55389 0.0
C339 C 0.91379 0.06733 0.61345 0.0
C340 C 0.92778 0.04913 0.60998 0.0
C341 C 0.93142 0.0542 0.48653 0.0
C342 C 0.91767 0.07248 0.48997 0.0
C343 C 0.95525 0.02705 0.54402 0.0
H344 H 0.09727 0.93149 0.92213 0.0
H345 H 0.07853 0.96719 0.92215 0.0
H346 H 0.04965 0.95199 0.72453 0.0
H347 H 0.06828 0.91634 0.72416 0.0
H348 H 0.90743 0.07226 0.66332 0.0
H349 H 0.93215 0.04062 0.65718 0.0
H350 H 0.93868 0.04972 0.43739 0.0
H351 H 0.91507 0.08176 0.44299 0.0
Tb352 Tb 0.5135 0.02306 0.75745 0.0
Eu353 Eu 0.49759 0.98648 0.64317 0.0
C354 C 0.50256 0.03775 0.60527 0.0
C355 C 0.46361 0.00828 0.74903 0.0
C356 C 0.54416 0.06761 0.84596 0.0
C357 C 0.5605 0.10023 0.89654 0.0
C358 C 0.54248 0.08623 0.88812 0.0
C359 C 0.56362 0.06374 0.80927 0.0
C360 C 0.5817 0.07756 0.81813 0.0
C361 C 0.58056 0.09567 0.86334 0.0
C362 C 0.52594 0.05185 0.84279 0.0
O363 O 0.50626 0.99347 0.81754 0.0
O364 O 0.51188 0.9679 0.73293 0.0
O365 O 0.53171 0.99568 0.61061 0.0
O366 O 0.54418 0.0101 0.71332 0.0
C367 C 0.50984 0.97307 0.79832 0.0
O368 O 0.50045 0.95369 0.59794 0.0
O369 O 0.47617 0.97645 0.55889 0.0
O370 O 0.49092 0.0198 0.59597 0.0
O371 O 0.51577 0.03988 0.65843 0.0
O372 O 0.47755 0.02461 0.75751 0.0
O373 O 0.46939 0.99017 0.71717 0.0
C374 C 0.5478 1.00238 0.65058 0.0
O375 O 0.51132 0.05542 0.79507 0.0
O376 O 0.53139 0.03114 0.84625 0.0
C377 C 0.46592 0.93959 0.56618 0.0
C378 C 0.42725 0.9144 0.57316 0.0
C379 C 0.43552 0.92475 0.63264 0.0
C380 C 0.45473 0.93727 0.62914 0.0
C381 C 0.45869 0.928 0.50812 0.0
C382 C 0.43954 0.9154 0.51159 0.0
C383 C 0.48319 0.95621 0.55899 0.0
H384 H 0.55892 0.11422 0.93076 0.0
H385 H 0.52744 0.0896 0.91608 0.0
H386 H 0.56511 0.04954 0.77584 0.0
H387 H 0.59689 0.07329 0.79237 0.0
H388 H 0.42648 0.92419 0.68079 0.0
H389 H 0.46016 0.94613 0.67458 0.0
H390 H 0.46712 0.92972 0.45912 0.0
H391 H 0.43347 0.90791 0.46458 0.0
Tb392 Tb 0.48761 0.51164 0.75567 0.0
Eu393 Eu 0.52444 0.496 0.64269 0.0
C394 C 0.47419 0.50176 0.60007 0.0
C395 C 0.50152 0.46178 0.74638 0.0
C396 C 0.44067 0.54013 0.83805 0.0
C397 C 0.40873 0.55661 0.892 0.0
C398 C 0.42352 0.53912 0.88608 0.0
C399 C 0.4419 0.55795 0.79233 0.0
C400 C 0.42737 0.57554 0.79877 0.0
C401 C 0.41115 0.57553 0.85066 0.0
C402 C 0.45831 0.52371 0.83995 0.0
O403 O 0.51953 0.51876 0.80296 0.0
O404 O 0.54003 0.4928 0.7474 0.0
O405 O 0.52544 0.53315 0.64329 0.0
O406 O 0.49121 0.54014 0.68797 0.0
C407 C 0.53722 0.50643 0.79905 0.0
O408 O 0.55855 0.4967 0.60774 0.0
O409 O 0.53421 0.47817 0.55029 0.0
O410 O 0.49457 0.50444 0.57981 0.0
O411 O 0.46922 0.4998 0.66592 0.0
O412 O 0.49679 0.47844 0.78701 0.0
O413 O 0.50829 0.46496 0.68264 0.0
C414 C 0.50896 0.54662 0.65491 0.0
O415 O 0.45619 0.50692 0.79885 0.0
O416 O 0.47816 0.53167 0.83836 0.0
C417 C 0.56972 0.46334 0.5576 0.0
C418 C 0.59599 0.42537 0.54692 0.0
C419 C 0.60203 0.4449 0.51268 0.0
C420 C 0.58892 0.46371 0.51781 0.0
C421 C 0.56428 0.44436 0.59495 0.0
C422 C 0.57721 0.42552 0.58939 0.0
C423 C 0.55506 0.48246 0.55859 0.0
H424 H 0.39614 0.55579 0.93143 0.0
H425 H 0.42217 0.5253 0.92115 0.0
H426 H 0.45491 0.55886 0.75433 0.0
H427 H 0.43002 0.58979 0.76632 0.0
H428 H 0.61654 0.44548 0.48042 0.0
H429 H 0.59349 0.47837 0.4894 0.0
H430 H 0.54959 0.44386 0.62655 0.0
H431 H 0.57178 0.41078 0.61569 0.0
Tb432 Tb 0.99901 0.48924 0.74378 0.0
Eu433 Eu 0.01356 0.52745 0.63234 0.0
C434 C 0.01235 0.47723 0.59225 0.0
C435 C 0.04856 0.50536 0.73886 0.0
C436 C 0.96541 0.4481 0.83421 0.0
C437 C 0.94326 0.41668 0.8678 0.0
C438 C 0.96381 0.42674 0.86089 0.0
C439 C 0.94633 0.45931 0.81441 0.0
C440 C 0.92587 0.44926 0.82078 0.0
C441 C 0.9241 0.4278 0.84726 0.0
C442 C 0.98696 0.45796 0.82111 0.0
O443 O 0.98918 0.52045 0.79148 0.0
O444 O 0.01381 0.54307 0.73722 0.0
O445 O 0.97659 0.52678 0.62663 0.0
O446 O 0.96915 0.49426 0.6833 0.0
C447 C 1.00004 0.53917 0.78777 0.0
O448 O 0.01061 0.56099 0.59402 0.0
O449 O 0.03262 0.53806 0.54303 0.0
O450 O 0.00653 0.49681 0.57123 0.0
O451 O 0.01649 0.47374 0.65787 0.0
O452 O 0.03224 0.49748 0.77594 0.0
O453 O 0.04538 0.51456 0.67803 0.0
C454 C 0.96298 0.51106 0.64512 0.0
O455 O 0.99402 0.45545 0.75831 0.0
O456 O 0.98976 0.47807 0.84248 0.0
C457 C 0.04382 0.57492 0.5486 0.0
C458 C 0.08193 0.60126 0.54912 0.0
C459 C 0.07028 0.59737 0.61074 0.0
C460 C 0.05147 0.58416 0.61057 0.0
C461 C 0.05452 0.57985 0.48666 0.0
C462 C 0.07341 0.59282 0.48682 0.0
C463 C 0.02618 0.55847 0.54833 0.0
H464 H 0.94236 0.40015 0.8884 0.0
H465 H 0.97846 0.41778 0.87556 0.0
H466 H 0.94732 0.4758 0.79362 0.0
H467 H 0.91138 0.45845 0.80595 0.0
H468 H 0.07617 0.60379 0.65949 0.0
H469 H 0.04344 0.58049 0.65915 0.0
H470 H 0.04891 0.57275 0.43846 0.0
H471 H 0.08205 0.59495 0.43842 0.0
H472 H 0.1398 0.98257 0.30245 0.0
H473 H 0.14595 0.05208 0.34344 0.0
H474 H 0.10738 0.98097 0.37624 0.0
H475 H 0.11358 0.0504 0.41831 0.0
H476 H 0.0424 0.04109 0.49979 0.0
H477 H 0.07289 0.04363 0.41776 0.0
H478 H 0.10067 0.98413 0.50213 0.0
H479 H 0.07034 0.98154 0.58379 0.0
C480 C 0.13404 0.9976 0.32631 0.0
C481 C 0.14551 0.01747 0.31684 0.0
C482 C 0.11558 0.99662 0.36933 0.0
C483 C 0.10796 0.01551 0.40369 0.0
C484 C 0.11895 0.03556 0.39241 0.0
C485 C 0.13758 0.0365 0.34985 0.0
C486 C 0.05499 0.02853 0.50076 0.0
C487 C 0.05386 0.0111 0.54848 0.0
C488 C 0.07252 0.03005 0.45393 0.0
C489 C 0.08919 0.01404 0.45313 0.0
C490 C 0.08797 0.99659 0.50066 0.0
C491 C 0.07062 0.99519 0.54786 0.0
H492 H 0.49332 0.16517 0.40076 0.0
H493 H 0.50667 0.11974 0.23462 0.0
H494 H 0.49135 0.13459 0.48185 0.0
H495 H 0.50511 0.08909 0.31635 0.0
H496 H 0.48214 0.03785 0.47844 0.0
H497 H 0.48032 0.06796 0.39478 0.0
H498 H 0.51821 0.10897 0.53232 0.0
H499 H 0.51997 0.07909 0.61578 0.0
C500 C 0.49547 0.14863 0.38121 0.0
C501 C 0.50014 0.14497 0.31096 0.0
C502 C 0.49462 0.13109 0.42798 0.0
C503 C 0.49828 0.10937 0.40584 0.0
C504 C 0.50213 0.10558 0.33517 0.0
C505 C 0.50316 0.12318 0.28838 0.0
C506 C 0.49004 0.05331 0.49092 0.0
C507 C 0.50121 0.05598 0.55402 0.0
C508 C 0.48908 0.07054 0.44277 0.0
C509 C 0.49904 0.09094 0.45686 0.0
C510 C 0.51009 0.0936 0.52009 0.0
C511 C 0.51123 0.07637 0.56784 0.0
H512 H 0.38997 0.52578 0.24387 0.0
H513 H 0.3519 0.48142 0.37052 0.0
H514 H 0.42028 0.52334 0.32549 0.0
H515 H 0.3826 0.47811 0.45031 0.0
H516 H 0.42974 0.49982 0.62212 0.0
H517 H 0.40045 0.49957 0.53666 0.0
H518 H 0.44867 0.501 0.37302 0.0
H519 H 0.47799 0.50184 0.45869 0.0
C520 C 0.38812 0.5153 0.2887 0.0
C521 C 0.36831 0.50393 0.3005 0.0
C522 C 0.40565 0.51371 0.33533 0.0
C523 C 0.40395 0.50065 0.39515 0.0
C524 C 0.38445 0.48864 0.40559 0.0
C525 C 0.3669 0.49027 0.35904 0.0
C526 C 0.43415 0.5 0.56794 0.0
C527 C 0.45631 0.50089 0.54755 0.0
C528 C 0.41729 0.49971 0.5187 0.0
C529 C 0.42206 0.50022 0.44754 0.0
C530 C 0.44426 0.50089 0.42719 0.0
C531 C 0.46113 0.50126 0.47647 0.0
H532 H 0.98822 0.38738 0.25111 0.0
H533 H 0.03666 0.3532 0.37353 0.0
H534 H 0.99058 0.41881 0.32839 0.0
H535 H 0.03996 0.38514 0.44855 0.0
H536 H 0.01907 0.43347 0.61875 0.0
H537 H 0.01997 0.40313 0.5368 0.0
H538 H 0.01144 0.44898 0.36848 0.0
H539 H 0.00981 0.47925 0.45086 0.0
C540 C 0.99958 0.38662 0.29403 0.0
C541 C 0.01209 0.36753 0.30603 0.0
C542 C 1.00113 0.40483 0.33812 0.0
C543 C 0.01536 0.40462 0.39546 0.0
C544 C 0.02852 0.38586 0.40585 0.0
C545 C 0.02688 0.3676 0.36192 0.0
C546 C 0.01752 0.43712 0.56423 0.0
C547 C 0.01431 0.45886 0.54162 0.0
C548 C 0.01818 0.41967 0.51695 0.0
C549 C 0.01577 0.42344 0.44555 0.0
C550 C 0.01299 0.44529 0.42294 0.0
C551 C 0.0122 0.46272 0.47029 0.0
H552 H 0.87676 0.97989 0.13083 0.0
H553 H 0.86078 0.04282 0.04098 0.0
H554 H 0.90662 0.97545 0.04625 0.0
H555 H 0.89024 0.03833 0.95689 0.0
H556 H 0.92654 0.0104 0.76923 0.0
H557 H 0.89744 0.01225 0.85557 0.0
H558 H 0.94388 0.99525 0.01502 0.0
H559 H 0.97327 0.99362 0.92851 0.0
C560 C 0.87963 0.99274 0.09314 0.0
C561 C 0.86653 0.01178 0.09292 0.0
C562 C 0.89675 0.99025 0.04502 0.0
C563 C 0.90072 0.00652 0.99481 0.0
C564 C 0.8875 0.02544 0.99455 0.0
C565 C 0.87074 0.02809 0.04314 0.0
C566 C 0.9306 0.00689 0.82255 0.0
C567 C 0.9523 1.00192 0.84187 0.0
C568 C 0.91391 0.00805 0.87209 0.0
C569 C 0.91838 1.00396 0.94212 0.0
C570 C 0.93993 0.99837 0.96139 0.0
C571 C 0.95676 0.99756 0.91188 0.0
H572 H 0.53154 0.87999 0.14162 0.0
H573 H 0.47371 0.8581 0.03255 0.0
H574 H 0.53501 0.91109 0.061 0.0
H575 H 0.4772 0.88885 0.95274 0.0
H576 H 0.50623 0.92893 0.77544 0.0
H577 H 0.50488 0.89936 0.86012 0.0
H578 H 0.51289 0.94646 0.02478 0.0
H579 H 0.51407 0.97637 0.93966 0.0
C580 C 0.51957 0.88185 0.1007 0.0
C581 C 0.50226 0.86665 0.09385 0.0
C582 C 0.52148 0.89969 0.05484 0.0
C583 C 0.50641 0.90237 1.00036 0.0
C584 C 0.48916 0.88717 0.99379 0.0
C585 C 0.48706 0.86965 0.04 0.0
C586 C 0.50786 0.93308 0.82959 0.0
C587 C 0.51021 0.9551 0.85061 0.0
C588 C 0.50697 0.91609 0.87818 0.0
C589 C 0.50867 0.92057 0.94918 0.0
C590 C 0.51164 0.94249 0.9704 0.0
C591 C 0.5122 0.95961 0.92166 0.0
H592 H 0.63895 0.54463 0.09658 0.0
H593 H 0.63476 0.47386 0.11018 0.0
H594 H 0.60873 0.54466 0.01313 0.0
H595 H 0.6044 0.47399 0.0287 0.0
H596 H 0.57287 0.47969 0.81539 0.0
H597 H 0.60088 0.48101 0.90468 0.0
H598 H 0.56859 0.53679 0.99782 0.0
H599 H 0.54038 0.53558 0.90765 0.0
C600 C 0.63147 0.52912 0.08244 0.0
C601 C 0.63937 0.50926 0.11039 0.0
C602 C 0.61403 0.52915 0.03495 0.0
C603 C 0.60423 0.5093 0.01368 0.0
C604 C 0.61173 0.48955 0.04314 0.0
C605 C 0.629 0.48953 0.09076 0.0
C606 C 0.57165 0.49228 0.85476 0.0
C607 C 0.55427 0.50752 0.85414 0.0
C608 C 0.58769 0.49293 0.90639 0.0
C609 C 0.58696 0.50891 0.95884 0.0
C610 C 0.56972 0.52433 0.95802 0.0
C611 C 0.55349 0.52356 0.9065 0.0
H612 H 1.00391 0.61716 0.16587 0.0
H613 H 0.98389 0.66313 0.00809 0.0
H614 H 1.0019 0.58715 0.08183 0.0
H615 H 0.98146 0.63318 0.92496 0.0
H616 H 0.01292 0.58202 0.78057 0.0
H617 H 0.00958 0.61054 0.86764 0.0
H618 H 0.9771 0.56479 1.00417 0.0
H619 H 0.98046 0.53589 0.91618 0.0
C620 C 0.99879 0.62084 0.11359 0.0
C621 C 0.99415 0.64265 0.09391 0.0
C622 C 0.99748 0.60359 0.06553 0.0
C623 C 0.99172 0.60776 0.99639 0.0
C624 C 0.98622 0.62941 0.97752 0.0
C625 C 0.98736 0.64658 0.02556 0.0
C626 C 1.00496 0.57794 0.82893 0.0
C627 C 0.99698 0.55656 0.84118 0.0
C628 C 1.0029 0.59441 0.87883 0.0
C629 C 0.99297 0.59005 0.94291 0.0
C630 C 0.98492 0.56869 0.95544 0.0
C631 C 0.98675 0.55216 0.90491 0.0
H632 H 0.95229 0.19898 0.51942 0.0
H633 H 0.89442 0.20729 0.3937 0.0
H634 H 0.93471 0.16941 0.5813 0.0
H635 H 0.87596 0.17824 0.45856 0.0
H636 H 0.91424 0.10993 0.65883 0.0
H637 H 0.91053 0.14936 0.64774 0.0
H638 H 0.88107 0.14064 0.44646 0.0
H639 H 0.88269 0.10122 0.46082 0.0
C640 C 0.93543 0.19494 0.5068 0.0
C641 C 0.92501 0.20485 0.45027 0.0
C642 C 0.9251 0.17809 0.54304 0.0
C643 C 0.90399 0.17083 0.52381 0.0
C644 C 0.89246 0.1829 0.47341 0.0
C645 C 0.90295 0.19971 0.43661 0.0
C646 C 0.90588 0.11627 0.61375 0.0
C647 C 0.89978 0.10234 0.55897 0.0
C648 C 0.90404 0.13906 0.60696 0.0
C649 C 0.89674 0.14833 0.5445 0.0
C650 C 0.88726 0.13431 0.4949 0.0
C651 C 0.88853 0.11153 0.50256 0.0
H652 H 0.29069 0.92811 0.49671 0.0
H653 H 0.3279 0.90869 0.31746 0.0
H654 H 0.31883 0.91204 0.57167 0.0
H655 H 0.35612 0.89325 0.39086 0.0
H656 H 0.41119 0.87701 0.51142 0.0
H657 H 0.37314 0.87107 0.47616 0.0
H658 H 0.35368 0.92862 0.59199 0.0
H659 H 0.39121 0.93413 0.62798 0.0
C660 C 0.30447 0.91962 0.4735 0.0
C661 C 0.30748 0.9199 0.40171 0.0
C662 C 0.32066 0.91056 0.51624 0.0
C663 C 0.34004 0.90179 0.48751 0.0
C664 C 0.34149 0.89972 0.41527 0.0
C665 C 0.32539 0.90874 0.37287 0.0
C666 C 0.39858 0.88787 0.53123 0.0
C667 C 0.40426 0.90636 0.57093 0.0
C668 C 0.37679 0.88449 0.51106 0.0
C669 C 0.36042 0.89975 0.52937 0.0
C670 C 0.36573 0.91647 0.57672 0.0
C671 C 0.38742 0.91971 0.59735 0.0
H672 H 0.57854 0.2978 0.46767 0.0
H673 H 0.63643 0.30571 0.34031 0.0
H674 H 0.58811 0.3305 0.53103 0.0
H675 H 0.64539 0.33945 0.40274 0.0
H676 H 0.61263 0.41139 0.42333 0.0
H677 H 0.62236 0.37412 0.39186 0.0
H678 H 0.61383 0.35347 0.60343 0.0
H679 H 0.60469 0.39117 0.63596 0.0
C680 C 0.5938 0.30592 0.45461 0.0
C681 C 0.6064 0.29922 0.39737 0.0
C682 C 0.59928 0.32485 0.49127 0.0
C683 C 0.61731 0.33772 0.47114 0.0
C684 C 0.63121 0.32995 0.41867 0.0
C685 C 0.62593 0.31073 0.38257 0.0
C686 C 0.61376 0.39923 0.464 0.0
C687 C 0.60735 0.40424 0.53198 0.0
C688 C 0.6194 0.37777 0.44582 0.0
C689 C 0.61855 0.36083 0.49504 0.0
C690 C 0.61434 0.36619 0.56433 0.0
C691 C 0.60893 0.38774 0.58273 0.0
H692 H 0.2074 0.62215 0.37452 0.0
H693 H 0.2034 0.5633 0.49819 0.0
H694 H 0.17787 0.63863 0.44246 0.0
H695 H 0.17345 0.57891 0.56336 0.0
H696 H 0.10146 0.62779 0.45191 0.0
H697 H 0.14054 0.63099 0.43278 0.0
H698 H 0.15284 0.60186 0.63277 0.0
H699 H 0.11374 0.59667 0.64879 0.0
C700 C 0.20067 0.61304 0.41769 0.0
C701 C 0.20714 0.59124 0.43 0.0
C702 C 0.1836 0.62237 0.45625 0.0
C703 C 0.17265 0.60992 0.50707 0.0
C704 C 0.18125 0.58918 0.52484 0.0
C705 C 0.19834 0.58 0.48681 0.0
C706 C 0.11248 0.62232 0.49229 0.0
C707 C 0.10442 0.6109 0.55009 0.0
C708 C 0.13505 0.62453 0.48191 0.0
C709 C 0.15002 0.61576 0.52996 0.0
C710 C 0.14181 0.60793 0.59329 0.0
C711 C 0.11923 0.60521 0.60289 0.0
H712 H 0.07728 0.78388 0.90841 0.0
H713 H 0.12423 0.81151 0.05245 0.0
H714 H 0.08307 0.81437 0.83239 0.0
H715 H 0.12716 0.84377 0.98096 0.0
H716 H 0.12466 0.90524 0.8608 0.0
H717 H 0.13367 0.8673 0.89148 0.0
H718 H 0.06732 0.84785 0.83856 0.0
H719 H 0.05915 0.88498 0.80472 0.0
C720 C 0.08906 0.79614 0.9244 0.0
C721 C 0.09929 0.79541 0.9897 0.0
C722 C 0.09201 0.81412 0.88068 0.0
C723 C 0.10442 0.83238 0.9021 0.0
C724 C 0.11696 0.8304 0.9628 0.0
C725 C 0.1148 0.81192 1.00519 0.0
C726 C 0.11232 0.89258 0.8542 0.0
C727 C 0.09121 0.89801 0.83061 0.0
C728 C 0.11738 0.87085 0.87219 0.0
C729 C 0.10123 0.85427 0.86855 0.0
C730 C 0.08052 0.85974 0.84101 0.0
C731 C 0.07567 0.88124 0.82182 0.0
H732 H 0.70855 0.08396 0.95071 0.0
H733 H 0.69559 0.13797 0.09032 0.0
H734 H 0.67583 0.09277 0.88655 0.0
H735 H 0.66197 0.14622 0.02656 0.0
H736 H 0.61518 0.10751 0.77963 0.0
H737 H 0.65196 0.118 0.81772 0.0
H738 H 0.62876 0.12168 0.02809 0.0
H739 H 0.59244 0.11073 0.99095 0.0
C740 C 0.69927 0.09828 0.96643 0.0
C741 C 0.70461 0.10993 0.02695 0.0
C742 C 0.68035 0.10334 0.92929 0.0
C743 C 0.66615 0.11999 0.95209 0.0
C744 C 0.6725 0.13308 0.00844 0.0
C745 C 0.69166 0.12821 0.04521 0.0
C746 C 0.61784 0.11098 0.83384 0.0
C747 C 0.60094 0.10772 0.88239 0.0
C748 C 0.63886 0.11715 0.85547 0.0
C749 C 0.64329 0.12038 0.92594 0.0
C750 C 0.62585 0.1195 0.97333 0.0
C751 C 0.60492 0.11316 0.95187 0.0
H752 H 0.43599 0.70154 0.90006 0.0
H753 H 0.39097 0.69545 0.07107 0.0
H754 H 0.41956 0.6695 0.84564 0.0
H755 H 0.37416 0.66339 0.01615 0.0
H756 H 0.40108 0.59062 0.97974 0.0
H757 H 0.39406 0.6282 0.01206 0.0
H758 H 0.3897 0.64653 0.79707 0.0
H759 H 0.39617 0.60832 0.764 0.0
C760 C 0.42197 0.69381 0.92456 0.0
C761 C 0.41503 0.70059 0.99028 0.0
C762 C 0.41237 0.67555 0.89314 0.0
C763 C 0.39579 0.66365 0.92725 0.0
C764 C 0.38709 0.67209 0.98911 0.0
C765 C 0.39664 0.69048 0.02039 0.0
C766 C 0.39755 0.60227 0.93897 0.0
C767 C 0.39987 0.59645 0.86906 0.0
C768 C 0.39348 0.62401 0.95773 0.0
C769 C 0.3918 0.64046 0.90708 0.0
C770 C 0.39135 0.63423 0.83722 0.0
C771 C 0.39521 0.61237 0.81836 0.0
H772 H 0.80141 0.38505 0.03021 0.0
H773 H 0.79576 0.44774 0.9261 0.0
H774 H 0.83532 0.37775 0.96676 0.0
H775 H 0.82878 0.44012 0.86225 0.0
H776 H 0.88972 0.42762 0.75665 0.0
H777 H 0.85149 0.41873 0.78273 0.0
H778 H 0.87072 0.39705 0.98638 0.0
H779 H 0.90879 0.4058 0.96018 0.0
C780 C 0.80699 0.397 0.99265 0.0
C781 C 0.79604 0.41723 0.98474 0.0
C782 C 0.82635 0.39274 0.95612 0.0
C783 C 0.8349 0.40849 0.91033 0.0
C784 C 0.82259 0.42752 0.89667 0.0
C785 C 0.80347 0.43188 0.93356 0.0
C786 C 0.88578 0.42049 0.80642 0.0
C787 C 0.90211 0.41787 0.85701 0.0
C788 C 0.86395 0.41531 0.82118 0.0
C789 C 0.85805 0.40751 0.88692 0.0
C790 C 0.87472 0.40285 0.93502 0.0
C791 C 0.89656 0.40798 0.92017 0.0
H792 H 0.9738 0.17275 0.93548 0.0
H793 H 0.0446 0.17098 0.94292 0.0
H794 H 0.97344 0.13764 0.87551 0.0
H795 H 0.04436 0.13594 0.88137 0.0
H796 H 0.03493 0.06207 0.83972 0.0
H797 H 0.03627 0.09817 0.89428 0.0
H798 H 0.98059 0.11883 0.77221 0.0
H799 H 0.97881 0.08254 0.71966 0.0
C800 C 0.98936 0.16509 0.92308 0.0
C801 C 0.00924 0.17484 0.94402 0.0
C802 C 0.98917 0.14483 0.88849 0.0
C803 C 0.00887 0.1337 0.87321 0.0
C804 C 0.0288 0.14368 0.89311 0.0
C805 C 0.02897 0.16389 0.92822 0.0
C806 C 0.02301 0.07433 0.82432 0.0
C807 C 0.00671 0.06924 0.77535 0.0
C808 C 0.02385 0.09518 0.85541 0.0
C809 C 0.00851 0.11164 0.83814 0.0
C810 C 0.99246 0.1066 0.78814 0.0
C811 C 0.99152 0.08572 0.75749 0.0
H812 H 0.33794 0.97854 0.93895 0.0
H813 H 0.33504 0.04903 0.91404 0.0
H814 H 0.3737 0.97793 0.8837 0.0
H815 H 0.37099 0.04843 0.85773 0.0
H816 H 0.4462 0.04084 0.83109 0.0
H817 H 0.40935 0.04277 0.88033 0.0
H818 H 0.39232 0.98212 0.7772 0.0
H819 H 0.42923 0.97987 0.72981 0.0
C820 C 0.34471 0.99392 0.9204 0.0
C821 C 0.33338 0.01382 0.93057 0.0
C822 C 0.36535 0.99357 0.88862 0.0
C823 C 0.37538 0.01311 0.86573 0.0
C824 C 0.36399 0.03306 0.87539 0.0
C825 C 0.3433 0.03341 0.90751 0.0
C826 C 0.43457 0.02795 0.81874 0.0
C827 C 0.44083 0.01013 0.77674 0.0
C828 C 0.41333 0.02912 0.8467 0.0
C829 C 0.39773 0.01255 0.83324 0.0
C830 C 0.40391 0.99499 0.79 0.0
C831 C 0.42514 0.99376 0.76238 0.0
H832 H 0.48187 0.34423 1.00131 0.0
H833 H 0.52738 0.3241 0.84225 0.0
H834 H 0.47746 0.37957 0.94443 0.0
H835 H 0.52426 0.35998 0.78837 0.0
H836 H 0.50487 0.42245 0.67677 0.0
H837 H 0.50397 0.38537 0.72477 0.0
H838 H 0.49615 0.41261 0.9295 0.0
H839 H 0.49607 0.44942 0.88115 0.0
C840 C 0.49081 0.34717 0.95388 0.0
C841 C 0.50516 0.33114 0.9271 0.0
C842 C 0.48857 0.36772 0.92171 0.0
C843 C 0.50076 0.37303 0.86206 0.0
C844 C 0.51445 0.35668 0.83383 0.0
C845 C 0.5165 0.33606 0.86553 0.0
C846 C 0.50279 0.4205 0.73198 0.0
C847 C 0.50049 0.43901 0.77492 0.0
C848 C 0.50242 0.39916 0.75974 0.0
C849 C 0.49999 0.39573 0.8314 0.0
C850 C 0.49759 0.41434 0.87406 0.0
C851 C 0.49771 0.4356 0.84624 0.0
H852 H 0.1906 0.50745 0.83163 0.0
H853 H 0.15744 0.50041 0.0274 0.0
H854 H 0.15513 0.50676 0.77226 0.0
H855 H 0.12223 0.50017 0.96891 0.0
H856 H 0.0627 0.48041 0.84738 0.0
H857 H 0.09897 0.47913 0.89911 0.0
H858 H 0.12218 0.52686 0.75073 0.0
H859 H 0.08583 0.52752 0.69718 0.0
C860 C 0.17576 0.50578 0.86205 0.0
C861 C 0.17699 0.50371 0.93436 0.0
C862 C 0.15537 0.50548 0.82801 0.0
C863 C 0.13561 0.50326 0.86542 0.0
C864 C 0.13695 0.50133 0.93778 0.0
C865 C 0.15726 0.50148 0.97158 0.0
C866 C 0.07552 0.49061 0.82546 0.0
C867 C 0.0712 0.50416 0.76817 0.0
C868 C 0.0964 0.48999 0.85556 0.0
C869 C 0.11366 0.50309 0.82998 0.0
C870 C 0.10947 0.51636 0.77171 0.0
C871 C 0.08854 0.51682 0.74108 0.0
H872 H 0.97889 0.84461 0.39107 0.0
H873 H 0.02359 0.8243 0.55201 0.0
H874 H 0.97524 0.88037 0.44583 0.0
H875 H 0.02125 0.86057 0.6038 0.0
H876 H 1.00241 0.92404 0.71223 0.0
H877 H 1.00144 0.88675 0.66582 0.0
H878 H 0.99445 0.91313 0.45971 0.0
H879 H 0.99444 0.95015 0.50645 0.0
C880 C 0.98782 0.84761 0.43845 0.0
C881 C 1.0017 0.83137 0.4664 0.0
C882 C 0.98604 0.8684 0.4694 0.0
C883 C 0.99822 0.87377 0.529 0.0
C884 C 0.01147 0.85725 0.55834 0.0
C885 C 0.01306 0.83639 0.52783 0.0
C886 C 1.00051 0.92186 0.65705 0.0
C887 C 0.9984 0.9402 0.61329 0.0
C888 C 1.0001 0.9004 0.63018 0.0
C889 C 0.99781 0.89664 0.55863 0.0
C890 C 0.99574 0.91509 0.51511 0.0
C891 C 0.99591 0.93648 0.54201 0.0
H892 H 0.65825 1.00497 0.36827 0.0
H893 H 0.69038 1.00407 0.56688 0.0
H894 H 0.62271 1.00319 0.42463 0.0
H895 H 0.65458 1.00186 0.62388 0.0
H896 H 0.58534 0.02192 0.70184 0.0
H897 H 0.622 0.02214 0.65037 0.0
H898 H 0.59869 0.9802 0.48585 0.0
H899 H 0.56214 0.98067 0.53567 0.0
C900 C 0.65777 1.00393 0.42408 0.0
C901 C 0.6773 1.00446 0.46283 0.0
C902 C 0.63727 1.00291 0.45664 0.0
C903 C 0.63557 1.00224 0.52915 0.0
C904 C 0.65512 1.00263 0.56806 0.0
C905 C 0.6757 1.0038 0.53534 0.0
C906 C 0.58807 0.0127 0.65481 0.0
C907 C 0.57063 1.00148 0.62269 0.0
C908 C 0.60918 0.01271 0.62536 0.0
C909 C 0.61344 1.00136 0.56327 0.0
C910 C 0.59608 0.9896 0.53261 0.0
C911 C 0.57503 0.98976 0.56159 0.0
H912 H 0.4743 0.67327 0.47543 0.0
H913 H 0.54508 0.67315 0.46538 0.0
H914 H 0.47492 0.6379 0.53386 0.0
H915 H 0.54585 0.63791 0.52576 0.0
H916 H 0.53838 0.56369 0.56179 0.0
H917 H 0.53877 0.60025 0.51077 0.0
H918 H 0.48261 0.6183 0.63493 0.0
H919 H 0.48175 0.58143 0.68384 0.0
C920 C 0.49006 0.66591 0.48704 0.0
C921 C 0.50964 0.67617 0.46573 0.0
C922 C 0.49044 0.64552 0.52078 0.0
C923 C 0.51044 0.63478 0.53486 0.0
C924 C 0.53007 0.64533 0.51486 0.0
C925 C 0.52967 0.66565 0.48048 0.0
C926 C 0.52616 0.57548 0.57852 0.0
C927 C 0.50996 0.56947 0.62684 0.0
C928 C 0.52646 0.5966 0.54944 0.0
C929 C 0.51069 0.61247 0.56826 0.0
C930 C 0.49479 0.60654 0.61783 0.0
C931 C 0.49437 0.58535 0.64639 0.0
H932 H 0.84025 0.53496 0.41871 0.0
H933 H 0.82752 0.47784 0.54539 0.0
H934 H 0.87567 0.53943 0.47404 0.0
H935 H 0.86373 0.48079 0.59478 0.0
H936 H 0.92589 0.49579 0.70898 0.0
H937 H 0.88837 0.49626 0.66639 0.0
H938 H 0.91079 0.52713 0.47764 0.0
H939 H 0.94797 0.52801 0.52328 0.0
C940 C 0.84484 0.52334 0.45848 0.0
C941 C 0.83077 0.50585 0.47644 0.0
C942 C 0.86557 0.52564 0.48949 0.0
C943 C 0.87317 0.51029 0.53862 0.0
C944 C 0.85878 0.4932 0.55798 0.0
C945 C 0.8379 0.49122 0.52824 0.0
C946 C 0.92272 0.50278 0.65858 0.0
C947 C 0.93995 0.51182 0.61957 0.0
C948 C 0.90111 0.50292 0.63356 0.0
C949 C 0.89612 0.51155 0.56771 0.0
C950 C 0.91352 0.52071 0.52901 0.0
C951 C 0.93503 0.52108 0.55495 0.0
loop_
_geom_bond_atom_site_label_1
_geom_bond_atom_site_label_2
_geom_bond_distance
_geom_bond_site_symmetry_2
_ccdc_geom_bond_type
C0 C1 1.386 . S
C0 C2 1.397 . S
C0 H24 0.931 . S
C1 C0 1.386 . S
C1 C5 1.397 . S
C2 C0 1.397 . S
C2 C3 1.384 . S
C2 H25 0.930 . S
C3 C2 1.384 . S
C3 C4 1.377 . S
C3 C6 1.481 . S
C4 C3 1.377 . S
C4 C5 1.389 . S
C4 H26 0.929 . S
C5 C1 1.397 . S
C5 C4 1.389 . S
C5 H27 0.931 . S
C6 C3 1.481 . S
C6 C7 1.387 . S
C6 C11 1.390 . S
C7 C6 1.387 . S
C7 C8 1.401 . S
C7 H28 0.930 . S
C8 C7 1.401 . S
C8 C9 1.376 . S
C8 C17 1.511 . S
C9 C8 1.376 . S
C9 C10 1.392 . S
C9 H30 0.931 . S
C10 C9 1.392 . S
C10 C11 1.361 . S
C10 C12 1.500 . S
C11 C6 1.390 . S
C11 C10 1.361 . S
C11 H29 0.931 . S
C12 C10 1.500 . S
C12 C13 1.371 . S
C12 C14 1.365 . S
C13 C12 1.371 . S
C13 C23 1.386 . S
C13 H31 0.931 . S
C14 C12 1.365 . S
C14 C15 1.409 . S
C14 H32 0.929 . S
C15 C14 1.409 . S
C15 C16 1.380 . S
C15 H33 0.930 . S
C16 C15 1.380 . S
C16 C23 1.357 . S
C17 C8 1.511 . S
C17 C18 1.341 . S
C17 C19 1.371 . S
C18 C17 1.341 . S
C18 C22 1.394 . S
C18 H34 0.930 . S
C19 C17 1.371 . S
C19 C20 1.392 . S
C19 H35 0.931 . S
C20 C19 1.392 . S
C20 C21 1.331 . S
C20 H38 0.932 . S
C21 C20 1.331 . S
C21 C22 1.336 . S
C22 C18 1.394 . S
C22 C21 1.336 . S
C22 H37 0.929 . S
C23 C13 1.386 . S
C23 C16 1.357 . S
C23 H36 0.928 . S
H24 C0 0.931 . S
H25 C2 0.930 . S
H26 C4 0.929 . S
H27 C5 0.931 . S
H28 C7 0.930 . S
H29 C11 0.931 . S
H30 C9 0.931 . S
H31 C13 0.931 . S
H32 C14 0.929 . S
H33 C15 0.930 . S
H34 C18 0.930 . S
H35 C19 0.931 . S
H36 C23 0.928 . S
H37 C22 0.929 . S
H38 C20 0.932 . S
C39 C40 1.394 . S
C39 C41 1.397 . S
C39 H63 0.931 . S
C40 C39 1.394 . S
C40 C44 1.389 1_655 S
C41 C39 1.397 . S
C41 C42 1.389 . S
C41 H64 0.930 . S
C42 C41 1.389 . S
C42 C43 1.373 1_655 S
C42 C45 1.480 . S
C43 C42 1.373 1_455 S
C43 C44 1.389 . S
C43 H65 0.929 . S
C44 C40 1.389 1_455 S
C44 C43 1.389 . S
C44 H66 0.931 . S
C45 C42 1.480 . S
C45 C46 1.388 . S
C45 C50 1.390 . S
C46 C45 1.388 . S
C46 C47 1.402 . S
C46 H67 0.930 . S
C47 C46 1.402 . S
C47 C48 1.376 . S
C47 C56 1.513 . S
C48 C47 1.376 . S
C48 C49 1.392 . S
C48 H69 0.934 . S
C49 C48 1.392 . S
C49 C50 1.361 . S
C49 C51 1.499 1_655 S
C50 C45 1.390 . S
C50 C49 1.361 . S
C50 H68 0.931 . S
C51 C49 1.499 1_455 S
C51 C52 1.362 1_455 S
C51 C53 1.374 . S
C52 C51 1.362 1_655 S
C52 C62 1.386 . S
C52 H70 0.931 . S
C53 C51 1.374 . S
C53 C54 1.409 . S
C53 H71 0.929 . S
C54 C53 1.409 . S
C54 C55 1.379 . S
C54 H72 0.930 . S
C55 C54 1.379 . S
C55 C62 1.359 1_455 S
C56 C47 1.513 . S
C56 C57 1.341 . S
C56 C58 1.371 1_655 S
C57 C56 1.341 . S
C57 C61 1.394 . S
C57 H73 0.930 . S
C58 C56 1.371 1_455 S
C58 C59 1.392 . S
C58 H74 0.931 . S
C59 C58 1.392 . S
C59 C60 1.322 1_455 S
C59 H77 0.932 . S
C60 C59 1.322 1_655 S
C60 C61 1.345 . S
C61 C57 1.394 . S
C61 C60 1.345 . S
C61 H76 0.929 . S
C62 C52 1.386 . S
C62 C55 1.359 1_655 S
C62 H75 0.928 . S
H63 C39 0.931 . S
H64 C41 0.930 . S
H65 C43 0.929 . S
H66 C44 0.931 . S
H67 C46 0.930 . S
H68 C50 0.931 . S
H69 C48 0.934 . S
H70 C52 0.931 . S
H71 C53 0.929 . S
H72 C54 0.930 . S
H73 C57 0.930 . S
H74 C58 0.931 . S
H75 C62 0.928 . S
H76 C61 0.929 . S
H77 C59 0.932 . S
C78 C79 1.394 . S
C78 C80 1.397 . S
C78 H102 0.931 . S
C79 C78 1.394 . S
C79 C83 1.389 1_565 S
C80 C78 1.397 . S
C80 C81 1.389 . S
C80 H103 0.930 . S
C81 C80 1.389 . S
C81 C82 1.373 1_565 S
C81 C84 1.480 . S
C82 C81 1.373 1_545 S
C82 C83 1.389 . S
C82 H104 0.929 . S
C83 C79 1.389 1_545 S
C83 C82 1.389 . S
C83 H105 0.931 . S
C84 C81 1.480 . S
C84 C85 1.388 . S
C84 C89 1.390 . S
C85 C84 1.388 . S
C85 C86 1.402 . S
C85 H106 0.930 . S
C86 C85 1.402 . S
C86 C87 1.376 . S
C86 C95 1.513 . S
C87 C86 1.376 . S
C87 C88 1.392 . S
C87 H108 0.934 . S
C88 C87 1.392 . S
C88 C89 1.361 . S
C88 C90 1.499 1_565 S
C89 C84 1.390 . S
C89 C88 1.361 . S
C89 H107 0.931 . S
C90 C88 1.499 1_545 S
C90 C91 1.362 1_545 S
C90 C92 1.374 . S
C91 C90 1.362 1_565 S
C91 C101 1.386 . S
C91 H109 0.931 . S
C92 C90 1.374 . S
C92 C93 1.409 . S
C92 H110 0.929 . S
C93 C92 1.409 . S
C93 C94 1.379 . S
C93 H111 0.930 . S
C94 C93 1.379 . S
C94 C101 1.359 1_545 S
C95 C86 1.513 . S
C95 C96 1.341 . S
C95 C97 1.371 1_565 S
C96 C95 1.341 . S
C96 C100 1.394 . S
C96 H112 0.930 . S
C97 C95 1.371 1_545 S
C97 C98 1.392 . S
C97 H113 0.931 . S
C98 C97 1.392 . S
C98 C99 1.322 1_545 S
C98 H116 0.932 . S
C99 C98 1.322 1_565 S
C99 C100 1.345 . S
C100 C96 1.394 . S
C100 C99 1.345 . S
C100 H115 0.929 . S
C101 C91 1.386 . S
C101 C94 1.359 1_565 S
C101 H114 0.928 . S
H102 C78 0.931 . S
H103 C80 0.930 . S
H104 C82 0.929 . S
H105 C83 0.931 . S
H106 C85 0.930 . S
H107 C89 0.931 . S
H108 C87 0.934 . S
H109 C91 0.931 . S
H110 C92 0.929 . S
H111 C93 0.930 . S
H112 C96 0.930 . S
H113 C97 0.931 . S
H114 C101 0.928 . S
H115 C100 0.929 . S
H116 C98 0.932 . S
C117 C118 1.386 . S
C117 C119 1.397 . S
C117 H141 0.931 . S
C118 C117 1.386 . S
C118 C122 1.397 . S
C119 C117 1.397 . S
C119 C120 1.384 . S
C119 H142 0.930 . S
C120 C119 1.384 . S
C120 C121 1.377 . S
C120 C123 1.481 . S
C121 C120 1.377 . S
C121 C122 1.389 . S
C121 H143 0.929 . S
C122 C118 1.397 . S
C122 C121 1.389 . S
C122 H144 0.931 . S
C123 C120 1.481 . S
C123 C124 1.387 . S
C123 C128 1.390 . S
C124 C123 1.387 . S
C124 C125 1.401 . S
C124 H145 0.930 . S
C125 C124 1.401 . S
C125 C126 1.376 . S
C125 C134 1.511 . S
C126 C125 1.376 . S
C126 C127 1.392 . S
C126 H147 0.931 . S
C127 C126 1.392 . S
C127 C128 1.361 . S
C127 C129 1.500 . S
C128 C123 1.390 . S
C128 C127 1.361 . S
C128 H146 0.931 . S
C129 C127 1.500 . S
C129 C130 1.371 . S
C129 C131 1.365 . S
C130 C129 1.371 . S
C130 C140 1.386 . S
C130 H148 0.931 . S
C131 C129 1.365 . S
C131 C132 1.409 . S
C131 H149 0.929 . S
C132 C131 1.409 . S
C132 C133 1.380 . S
C132 H150 0.930 . S
C133 C132 1.380 . S
C133 C140 1.357 . S
C134 C125 1.511 . S
C134 C135 1.341 . S
C134 C136 1.371 . S
C135 C134 1.341 . S
C135 C139 1.394 . S
C135 H151 0.930 . S
C136 C134 1.371 . S
C136 C137 1.392 . S
C136 H152 0.931 . S
C137 C136 1.392 . S
C137 C138 1.331 . S
C137 H155 0.932 . S
C138 C137 1.331 . S
C138 C139 1.336 . S
C139 C135 1.394 . S
C139 C138 1.336 . S
C139 H154 0.929 . S
C140 C130 1.386 . S
C140 C133 1.357 . S
C140 H153 0.928 . S
H141 C117 0.931 . S
H142 C119 0.930 . S
H143 C121 0.929 . S
H144 C122 0.931 . S
H145 C124 0.930 . S
H146 C128 0.931 . S
H147 C126 0.931 . S
H148 C130 0.931 . S
H149 C131 0.929 . S
H150 C132 0.930 . S
H151 C135 0.930 . S
H152 C136 0.931 . S
H153 C140 0.928 . S
H154 C139 0.929 . S
H155 C137 0.932 . S
C156 C157 1.386 . S
C156 C158 1.397 . S
C156 H180 0.931 . S
C157 C156 1.386 . S
C157 C161 1.397 . S
C158 C156 1.397 . S
C158 C159 1.384 . S
C158 H181 0.930 . S
C159 C158 1.384 . S
C159 C160 1.377 . S
C159 C162 1.481 . S
C160 C159 1.377 . S
C160 C161 1.389 . S
C160 H182 0.929 . S
C161 C157 1.397 . S
C161 C160 1.389 . S
C161 H183 0.931 . S
C162 C159 1.481 . S
C162 C163 1.387 . S
C162 C167 1.390 . S
C163 C162 1.387 . S
C163 C164 1.401 . S
C163 H184 0.930 . S
C164 C163 1.401 . S
C164 C165 1.376 1_554 S
C164 C173 1.511 . S
C165 C164 1.376 1_556 S
C165 C166 1.392 . S
C165 H186 0.931 . S
C166 C165 1.392 . S
C166 C167 1.361 1_556 S
C166 C168 1.500 . S
C167 C162 1.390 . S
C167 C166 1.361 1_554 S
C167 H185 0.931 . S
C168 C166 1.500 . S
C168 C169 1.371 . S
C168 C170 1.365 . S
C169 C168 1.371 . S
C169 C179 1.386 . S
C169 H187 0.931 . S
C170 C168 1.365 . S
C170 C171 1.409 . S
C170 H188 0.929 . S
C171 C170 1.409 . S
C171 C172 1.380 . S
C171 H189 0.930 . S
C172 C171 1.380 . S
C172 C179 1.357 . S
C173 C164 1.511 . S
C173 C174 1.341 . S
C173 C175 1.371 . S
C174 C173 1.341 . S
C174 C178 1.394 . S
C174 H190 0.930 . S
C175 C173 1.371 . S
C175 C176 1.392 . S
C175 H191 0.931 1_554 S
C176 C175 1.392 . S
C176 C177 1.331 . S
C176 H194 0.932 . S
C177 C176 1.331 . S
C177 C178 1.336 . S
C178 C174 1.394 . S
C178 C177 1.336 . S
C178 H193 0.929 . S
C179 C169 1.386 . S
C179 C172 1.357 . S
C179 H192 0.928 . S
H180 C156 0.931 . S
H181 C158 0.930 . S
H182 C160 0.929 . S
H183 C161 0.931 . S
H184 C163 0.930 . S
H185 C167 0.931 . S
H186 C165 0.931 . S
H187 C169 0.931 . S
H188 C170 0.929 . S
H189 C171 0.930 . S
H190 C174 0.930 . S
H191 C175 0.931 1_556 S
H192 C179 0.928 . S
H193 C178 0.929 . S
H194 C176 0.932 . S
C195 C196 1.387 . S
C195 C197 1.397 . S
C195 H219 0.931 . S
C196 C195 1.387 . S
C196 C200 1.396 1_655 S
C197 C195 1.397 . S
C197 C198 1.381 . S
C197 H220 0.930 . S
C198 C197 1.381 . S
C198 C199 1.380 1_655 S
C198 C201 1.480 . S
C199 C198 1.380 1_455 S
C199 C200 1.389 . S
C199 H221 0.929 . S
C200 C196 1.396 1_455 S
C200 C199 1.389 . S
C200 H222 0.931 . S
C201 C198 1.480 . S
C201 C202 1.388 . S
C201 C206 1.390 . S
C202 C201 1.388 . S
C202 C203 1.402 . S
C202 H223 0.930 . S
C203 C202 1.402 . S
C203 C204 1.371 1_554 S
C203 C212 1.512 . S
C204 C203 1.371 1_556 S
C204 C205 1.393 1_655 S
C204 H225 0.937 . S
C205 C204 1.393 1_455 S
C205 C206 1.361 1_456 S
C205 C207 1.499 . S
C206 C201 1.390 . S
C206 C205 1.361 1_654 S
C206 H224 0.931 . S
C207 C205 1.499 . S
C207 C208 1.357 1_455 S
C207 C209 1.380 . S
C208 C207 1.357 1_655 S
C208 C218 1.386 . S
C208 H226 0.931 . S
C209 C207 1.380 . S
C209 C210 1.409 . S
C209 H227 0.929 . S
C210 C209 1.409 . S
C210 C211 1.384 . S
C210 H228 0.930 . S
C211 C210 1.384 . S
C211 C218 1.353 1_455 S
C212 C203 1.512 . S
C212 C213 1.341 . S
C212 C214 1.371 1_655 S
C213 C212 1.341 . S
C213 C217 1.394 . S
C213 H229 0.930 . S
C214 C212 1.371 1_455 S
C214 C215 1.392 . S
C214 H230 0.931 1_554 S
C215 C214 1.392 . S
C215 C216 1.326 1_455 S
C215 H233 0.932 . S
C216 C215 1.326 1_655 S
C216 C217 1.341 . S
C217 C213 1.394 . S
C217 C216 1.341 . S
C217 H232 0.929 . S
C218 C208 1.386 . S
C218 C211 1.353 1_655 S
C218 H231 0.928 . S
H219 C195 0.931 . S
H220 C197 0.930 . S
H221 C199 0.929 . S
H222 C200 0.931 . S
H223 C202 0.930 . S
H224 C206 0.931 . S
H225 C204 0.937 . S
H226 C208 0.931 . S
H227 C209 0.929 . S
H228 C210 0.930 . S
H229 C213 0.930 . S
H230 C214 0.931 1_556 S
H231 C218 0.928 . S
H232 C217 0.929 . S
H233 C215 0.932 . S
C234 C235 1.387 . S
C234 C236 1.397 . S
C234 H258 0.931 . S
C235 C234 1.387 . S
C235 C239 1.396 1_565 S
C236 C234 1.397 . S
C236 C237 1.381 . S
C236 H259 0.930 . S
C237 C236 1.381 . S
C237 C238 1.380 1_565 S
C237 C240 1.480 . S
C238 C237 1.380 1_545 S
C238 C239 1.389 . S
C238 H260 0.929 . S
C239 C235 1.396 1_545 S
C239 C238 1.389 . S
C239 H261 0.931 . S
C240 C237 1.480 . S
C240 C241 1.388 . S
C240 C245 1.390 . S
C241 C240 1.388 . S
C241 C242 1.402 . S
C241 H262 0.930 . S
C242 C241 1.402 . S
C242 C243 1.376 1_554 S
C242 C251 1.512 . S
C243 C242 1.376 1_556 S
C243 C244 1.392 1_565 S
C243 H264 0.933 . S
C244 C243 1.392 1_545 S
C244 C245 1.361 1_546 S
C244 C246 1.499 . S
C245 C240 1.390 . S
C245 C244 1.361 1_564 S
C245 H263 0.931 . S
C246 C244 1.499 . S
C246 C247 1.357 1_545 S
C246 C248 1.380 . S
C247 C246 1.357 1_565 S
C247 C257 1.386 . S
C247 H265 0.931 . S
C248 C246 1.380 . S
C248 C249 1.409 . S
C248 H266 0.929 . S
C249 C248 1.409 . S
C249 C250 1.384 . S
C249 H267 0.930 . S
C250 C249 1.384 . S
C250 C257 1.353 1_545 S
C251 C242 1.512 . S
C251 C252 1.341 . S
C251 C253 1.371 1_565 S
C252 C251 1.341 . S
C252 C256 1.394 . S
C252 H268 0.930 . S
C253 C251 1.371 1_545 S
C253 C254 1.392 . S
C253 H269 0.931 1_554 S
C254 C253 1.392 . S
C254 C255 1.326 1_545 S
C254 H272 0.932 . S
C255 C254 1.326 1_565 S
C255 C256 1.341 . S
C256 C252 1.394 . S
C256 C255 1.341 . S
C256 H271 0.929 . S
C257 C247 1.386 . S
C257 C250 1.353 1_565 S
C257 H270 0.928 . S
H258 C234 0.931 . S
H259 C236 0.930 . S
H260 C238 0.929 . S
H261 C239 0.931 . S
H262 C241 0.930 . S
H263 C245 0.931 . S
H264 C243 0.933 . S
H265 C247 0.931 . S
H266 C248 0.929 . S
H267 C249 0.930 . S
H268 C252 0.930 . S
H269 C253 0.931 1_556 S
H270 C257 0.928 . S
H271 C256 0.929 . S
H272 C254 0.932 . S
C273 C274 1.386 . S
C273 C275 1.397 . S
C273 H297 0.931 . S
C274 C273 1.386 . S
C274 C278 1.397 . S
C275 C273 1.397 . S
C275 C276 1.384 . S
C275 H298 0.930 . S
C276 C275 1.384 . S
C276 C277 1.377 . S
C276 C279 1.481 . S
C277 C276 1.377 . S
C277 C278 1.389 . S
C277 H299 0.929 . S
C278 C274 1.397 . S
C278 C277 1.389 . S
C278 H300 0.931 . S
C279 C276 1.481 . S
C279 C280 1.390 . S
C279 C284 1.390 1_556 S
C280 C279 1.390 . S
C280 C281 1.388 1_556 S
C280 H301 0.940 . S
C281 C280 1.388 1_554 S
C281 C282 1.376 . S
C281 C290 1.511 . S
C282 C281 1.376 . S
C282 C283 1.392 . S
C282 H303 0.931 . S
C283 C282 1.392 . S
C283 C284 1.361 . S
C283 C285 1.500 . S
C284 C279 1.390 1_554 S
C284 C283 1.361 . S
C284 H302 0.931 . S
C285 C283 1.500 . S
C285 C286 1.371 . S
C285 C287 1.365 . S
C286 C285 1.371 . S
C286 C296 1.386 . S
C286 H304 0.931 . S
C287 C285 1.365 . S
C287 C288 1.409 . S
C287 H305 0.929 . S
C288 C287 1.409 . S
C288 C289 1.380 . S
C288 H306 0.930 . S
C289 C288 1.380 . S
C289 C296 1.357 . S
C290 C281 1.511 . S
C290 C291 1.341 . S
C290 C292 1.371 . S
C291 C290 1.341 . S
C291 C295 1.394 . S
C291 H307 0.930 1_554 S
C292 C290 1.371 . S
C292 C293 1.392 . S
C292 H308 0.931 . S
C293 C292 1.392 . S
C293 C294 1.331 . S
C293 H311 0.932 . S
C294 C293 1.331 . S
C294 C295 1.336 . S
C295 C291 1.394 . S
C295 C294 1.336 . S
C295 H310 0.929 . S
C296 C286 1.386 . S
C296 C289 1.357 . S
C296 H309 0.928 . S
H297 C273 0.931 . S
H298 C275 0.930 . S
H299 C277 0.929 . S
H300 C278 0.931 . S
H301 C280 0.940 . S
H302 C284 0.931 . S
H303 C282 0.931 . S
H304 C286 0.931 . S
H305 C287 0.929 . S
H306 C288 0.930 . S
H307 C291 0.930 1_556 S
H308 C292 0.931 . S
H309 C296 0.928 . S
H310 C295 0.929 . S
H311 C293 0.932 . S
Tb312 C322 2.825 . S
Tb312 O323 2.347 1_455 S
Tb312 O326 2.366 . S
Tb312 O331 2.418 . S
Tb312 O332 2.384 1_565 S
Tb312 O335 2.479 . S
Tb312 O336 2.471 . S
Eu313 O324 2.418 . S
Eu313 O325 2.384 1_545 S
Eu313 O328 2.479 . S
Eu313 O329 2.471 . S
Eu313 O330 2.347 1_655 S
Eu313 O333 2.366 . S
Eu313 C343 2.825 . S
C314 O330 1.259 1_565 S
C314 O331 1.265 . S
C315 O332 1.255 . S
C315 O333 1.265 1_455 S
C316 C318 1.380 . S
C316 C319 1.374 . S
C316 C322 1.507 . S
C317 C318 1.384 . S
C317 C321 1.387 . S
C317 H344 0.930 . S
C318 C316 1.380 . S
C318 C317 1.384 . S
C318 H345 0.931 . S
C319 C316 1.374 . S
C319 C320 1.390 . S
C319 H346 0.930 1_455 S
C320 C319 1.390 . S
C320 C321 1.391 . S
C320 H347 0.930 1_455 S
C321 C317 1.387 . S
C321 C320 1.391 . S
C322 Tb312 2.825 . S
C322 C316 1.507 . S
C322 O335 1.238 . S
C322 O336 1.247 . S
O323 Tb312 2.347 1_655 S
O323 C327 1.259 1_565 S
O324 Eu313 2.418 . S
O324 C327 1.265 . S
O325 Eu313 2.384 1_565 S
O325 C334 1.255 . S
O326 Tb312 2.366 . S
O326 C334 1.265 1_455 S
C327 O323 1.259 1_545 S
C327 O324 1.265 . S
O328 Eu313 2.479 . S
O328 C343 1.238 . S
O329 Eu313 2.471 . S
O329 C343 1.247 . S
O330 Eu313 2.347 1_455 S
O330 C314 1.259 1_545 S
O331 Tb312 2.418 . S
O331 C314 1.265 . S
O332 Tb312 2.384 1_545 S
O332 C315 1.255 . S
O333 Eu313 2.366 . S
O333 C315 1.265 1_655 S
C334 O325 1.255 . S
C334 O326 1.265 1_655 S
O335 Tb312 2.479 . S
O335 C322 1.238 . S
O336 Tb312 2.471 . S
O336 C322 1.247 . S
C337 C340 1.380 . S
C337 C341 1.374 . S
C337 C343 1.507 . S
C338 C339 1.387 . S
C338 C342 1.391 . S
C339 C338 1.387 . S
C339 C340 1.384 . S
C339 H348 0.930 . S
C340 C337 1.380 . S
C340 C339 1.384 . S
C340 H349 0.931 . S
C341 C337 1.374 . S
C341 C342 1.390 . S
C341 H350 0.930 1_655 S
C342 C338 1.391 . S
C342 C341 1.390 . S
C342 H351 0.930 1_655 S
C343 Eu313 2.825 . S
C343 O328 1.238 . S
C343 O329 1.247 . S
C343 C337 1.507 . S
H344 C317 0.930 . S
H345 C318 0.931 . S
H346 C319 0.930 1_655 S
H347 C320 0.930 1_655 S
H348 C339 0.930 . S
H349 C340 0.931 . S
H350 C341 0.930 1_455 S
H351 C342 0.930 1_455 S
Tb352 C362 2.825 . S
Tb352 O363 2.347 1_545 S
Tb352 O366 2.366 . S
Tb352 O371 2.418 . S
Tb352 O372 2.384 . S
Tb352 O375 2.479 . S
Tb352 O376 2.471 . S
Eu353 O364 2.418 . S
Eu353 O365 2.384 . S
Eu353 O368 2.479 . S
Eu353 O369 2.471 . S
Eu353 O370 2.347 1_565 S
Eu353 O373 2.366 . S
Eu353 C383 2.825 . S
C354 O370 1.259 . S
C354 O371 1.265 . S
C355 O372 1.255 . S
C355 O373 1.265 1_545 S
C356 C358 1.380 . S
C356 C359 1.374 . S
C356 C362 1.507 . S
C357 C358 1.384 . S
C357 C361 1.387 . S
C357 H384 0.930 . S
C358 C356 1.380 . S
C358 C357 1.384 . S
C358 H385 0.931 . S
C359 C356 1.374 . S
C359 C360 1.390 . S
C359 H386 0.930 1_545 S
C360 C359 1.390 . S
C360 C361 1.391 . S
C360 H387 0.930 1_545 S
C361 C357 1.387 . S
C361 C360 1.391 . S
C362 Tb352 2.825 . S
C362 C356 1.507 . S
C362 O375 1.238 . S
C362 O376 1.247 . S
O363 Tb352 2.347 1_565 S
O363 C367 1.259 . S
O364 Eu353 2.418 . S
O364 C367 1.265 . S
O365 Eu353 2.384 . S
O365 C374 1.255 . S
O366 Tb352 2.366 . S
O366 C374 1.265 1_545 S
C367 O363 1.259 . S
C367 O364 1.265 . S
O368 Eu353 2.479 . S
O368 C383 1.238 . S
O369 Eu353 2.471 . S
O369 C383 1.247 . S
O370 Eu353 2.347 1_545 S
O370 C354 1.259 . S
O371 Tb352 2.418 . S
O371 C354 1.265 . S
O372 Tb352 2.384 . S
O372 C355 1.255 . S
O373 Eu353 2.366 . S
O373 C355 1.265 1_565 S
C374 O365 1.255 . S
C374 O366 1.265 1_565 S
O375 Tb352 2.479 . S
O375 C362 1.238 . S
O376 Tb352 2.471 . S
O376 C362 1.247 . S
C377 C380 1.380 . S
C377 C381 1.374 . S
C377 C383 1.507 . S
C378 C379 1.387 . S
C378 C382 1.391 . S
C379 C378 1.387 . S
C379 C380 1.384 . S
C379 H388 0.930 . S
C380 C377 1.380 . S
C380 C379 1.384 . S
C380 H389 0.931 . S
C381 C377 1.374 . S
C381 C382 1.390 . S
C381 H390 0.930 1_565 S
C382 C378 1.391 . S
C382 C381 1.390 . S
C382 H391 0.930 1_565 S
C383 Eu353 2.825 . S
C383 O368 1.238 . S
C383 O369 1.247 . S
C383 C377 1.507 . S
H384 C357 0.930 . S
H385 C358 0.931 . S
H386 C359 0.930 1_565 S
H387 C360 0.930 1_565 S
H388 C379 0.930 . S
H389 C380 0.931 . S
H390 C381 0.930 1_545 S
H391 C382 0.930 1_545 S
Tb392 C402 2.825 . S
Tb392 O403 2.347 . S
Tb392 O406 2.366 . S
Tb392 O411 2.418 . S
Tb392 O412 2.384 . S
Tb392 O415 2.479 . S
Tb392 O416 2.471 . S
Eu393 O404 2.418 . S
Eu393 O405 2.384 . S
Eu393 O408 2.479 . S
Eu393 O409 2.471 . S
Eu393 O410 2.347 . S
Eu393 O413 2.366 . S
Eu393 C423 2.825 . S
C394 O410 1.259 . S
C394 O411 1.265 . S
C395 O412 1.255 . S
C395 O413 1.265 . S
C396 C398 1.380 . S
C396 C399 1.374 . S
C396 C402 1.507 . S
C397 C398 1.384 . S
C397 C401 1.387 . S
C397 H424 0.930 . S
C398 C396 1.380 . S
C398 C397 1.384 . S
C398 H425 0.931 . S
C399 C396 1.374 . S
C399 C400 1.390 . S
C399 H426 0.930 . S
C400 C399 1.390 . S
C400 C401 1.391 . S
C400 H427 0.930 . S
C401 C397 1.387 . S
C401 C400 1.391 . S
C402 Tb392 2.825 . S
C402 C396 1.507 . S
C402 O415 1.238 . S
C402 O416 1.247 . S
O403 Tb392 2.347 . S
O403 C407 1.259 . S
O404 Eu393 2.418 . S
O404 C407 1.265 . S
O405 Eu393 2.384 . S
O405 C414 1.255 . S
O406 Tb392 2.366 . S
O406 C414 1.265 . S
C407 O403 1.259 . S
C407 O404 1.265 . S
O408 Eu393 2.479 . S
O408 C423 1.238 . S
O409 Eu393 2.471 . S
O409 C423 1.247 . S
O410 Eu393 2.347 . S
O410 C394 1.259 . S
O411 Tb392 2.418 . S
O411 C394 1.265 . S
O412 Tb392 2.384 . S
O412 C395 1.255 . S
O413 Eu393 2.366 . S
O413 C395 1.265 . S
C414 O405 1.255 . S
C414 O406 1.265 . S
O415 Tb392 2.479 . S
O415 C402 1.238 . S
O416 Tb392 2.471 . S
O416 C402 1.247 . S
C417 C420 1.380 . S
C417 C421 1.374 . S
C417 C423 1.507 . S
C418 C419 1.387 . S
C418 C422 1.391 . S
C419 C418 1.387 . S
C419 C420 1.384 . S
C419 H428 0.930 . S
C420 C417 1.380 . S
C420 C419 1.384 . S
C420 H429 0.931 . S
C421 C417 1.374 . S
C421 C422 1.390 . S
C421 H430 0.930 . S
C422 C418 1.391 . S
C422 C421 1.390 . S
C422 H431 0.930 . S
C423 Eu393 2.825 . S
C423 O408 1.238 . S
C423 O409 1.247 . S
C423 C417 1.507 . S
H424 C397 0.930 . S
H425 C398 0.931 . S
H426 C399 0.930 . S
H427 C400 0.930 . S
H428 C419 0.930 . S
H429 C420 0.931 . S
H430 C421 0.930 . S
H431 C422 0.930 . S
Tb432 C442 2.825 . S
Tb432 O443 2.347 . S
Tb432 O446 2.366 . S
Tb432 O451 2.418 . S
Tb432 O452 2.384 1_655 S
Tb432 O455 2.479 . S
Tb432 O456 2.471 . S
Eu433 O444 2.418 . S
Eu433 O445 2.384 1_455 S
Eu433 O448 2.479 . S
Eu433 O449 2.471 . S
Eu433 O450 2.347 . S
Eu433 O453 2.366 . S
Eu433 C463 2.825 . S
C434 O450 1.259 1_655 S
C434 O451 1.265 . S
C435 O452 1.255 . S
C435 O453 1.265 . S
C436 C438 1.380 . S
C436 C439 1.374 . S
C436 C442 1.507 . S
C437 C438 1.384 . S
C437 C441 1.387 . S
C437 H464 0.930 . S
C438 C436 1.380 . S
C438 C437 1.384 . S
C438 H465 0.931 . S
C439 C436 1.374 . S
C439 C440 1.390 . S
C439 H466 0.930 . S
C440 C439 1.390 . S
C440 C441 1.391 . S
C440 H467 0.930 . S
C441 C437 1.387 . S
C441 C440 1.391 . S
C442 Tb432 2.825 . S
C442 C436 1.507 . S
C442 O455 1.238 . S
C442 O456 1.247 . S
O443 Tb432 2.347 . S
O443 C447 1.259 1_655 S
O444 Eu433 2.418 . S
O444 C447 1.265 . S
O445 Eu433 2.384 1_655 S
O445 C454 1.255 . S
O446 Tb432 2.366 . S
O446 C454 1.265 . S
C447 O443 1.259 1_455 S
C447 O444 1.265 . S
O448 Eu433 2.479 . S
O448 C463 1.238 . S
O449 Eu433 2.471 . S
O449 C463 1.247 . S
O450 Eu433 2.347 . S
O450 C434 1.259 1_455 S
O451 Tb432 2.418 . S
O451 C434 1.265 . S
O452 Tb432 2.384 1_455 S
O452 C435 1.255 . S
O453 Eu433 2.366 . S
O453 C435 1.265 . S
C454 O445 1.255 . S
C454 O446 1.265 . S
O455 Tb432 2.479 . S
O455 C442 1.238 . S
O456 Tb432 2.471 . S
O456 C442 1.247 . S
C457 C460 1.380 . S
C457 C461 1.374 . S
C457 C463 1.507 . S
C458 C459 1.387 . S
C458 C462 1.391 . S
C459 C458 1.387 . S
C459 C460 1.384 . S
C459 H468 0.930 . S
C460 C457 1.380 . S
C460 C459 1.384 . S
C460 H469 0.931 . S
C461 C457 1.374 . S
C461 C462 1.390 . S
C461 H470 0.930 . S
C462 C458 1.391 . S
C462 C461 1.390 . S
C462 H471 0.930 . S
C463 Eu433 2.825 . S
C463 O448 1.238 . S
C463 O449 1.247 . S
C463 C457 1.507 . S
H464 C437 0.930 . S
H465 C438 0.931 . S
H466 C439 0.930 . S
H467 C440 0.930 . S
H468 C459 0.930 . S
H469 C460 0.931 . S
H470 C461 0.930 . S
H471 C462 0.930 . S
H472 C480 0.950 . S
H473 C485 0.950 . S
H474 C482 0.950 . S
H475 C484 0.950 . S
H476 C486 0.950 . S
H477 C488 0.950 . S
H478 C490 0.950 . S
H479 C491 0.950 . S
C480 H472 0.950 . S
C480 C481 1.374 1_565 S
C480 C482 1.391 . S
C481 C480 1.374 1_545 S
C481 C485 1.408 . S
C482 H474 0.950 . S
C482 C480 1.391 . S
C482 C483 1.391 1_565 S
C483 C482 1.391 1_545 S
C483 C484 1.409 . S
C483 C489 1.490 1_545 S
C484 H475 0.950 . S
C484 C483 1.409 . S
C484 C485 1.391 . S
C485 H473 0.950 . S
C485 C481 1.408 . S
C485 C484 1.391 . S
C486 H476 0.950 . S
C486 C487 1.383 1_545 S
C486 C488 1.391 . S
C487 C486 1.383 1_565 S
C487 C491 1.396 . S
C488 H477 0.950 . S
C488 C486 1.391 . S
C488 C489 1.401 1_545 S
C489 C483 1.490 1_565 S
C489 C488 1.401 1_565 S
C489 C490 1.397 . S
C490 H478 0.950 . S
C490 C489 1.397 . S
C490 C491 1.391 . S
C491 H479 0.950 . S
C491 C487 1.396 . S
C491 C490 1.391 . S
H492 C500 0.950 . S
H493 C505 0.950 . S
H494 C502 0.950 . S
H495 C504 0.950 . S
H496 C506 0.950 . S
H497 C508 0.950 . S
H498 C510 0.950 . S
H499 C511 0.950 . S
C500 H492 0.950 . S
C500 C501 1.386 . S
C500 C502 1.391 . S
C501 C500 1.386 . S
C501 C505 1.393 . S
C502 H494 0.950 . S
C502 C500 1.391 . S
C502 C503 1.400 . S
C503 C502 1.400 . S
C503 C504 1.398 . S
C503 C509 1.491 . S
C504 H495 0.950 . S
C504 C503 1.398 . S
C504 C505 1.391 . S
C505 H493 0.950 . S
C505 C501 1.393 . S
C505 C504 1.391 . S
C506 H496 0.950 . S
C506 C507 1.386 . S
C506 C508 1.391 . S
C507 C506 1.386 . S
C507 C511 1.393 . S
C508 H497 0.950 . S
C508 C506 1.391 . S
C508 C509 1.400 . S
C509 C503 1.491 . S
C509 C508 1.400 . S
C509 C510 1.398 . S
C510 H498 0.950 . S
C510 C509 1.398 . S
C510 C511 1.391 . S
C511 H499 0.950 . S
C511 C507 1.393 . S
C511 C510 1.391 . S
H512 C520 0.950 . S
H513 C525 0.950 . S
H514 C522 0.950 . S
H515 C524 0.950 . S
H516 C526 0.950 . S
H517 C528 0.950 . S
H518 C530 0.950 . S
H519 C531 0.950 . S
C520 H512 0.950 . S
C520 C521 1.386 . S
C520 C522 1.391 . S
C521 C520 1.386 . S
C521 C525 1.393 . S
C522 H514 0.950 . S
C522 C520 1.391 . S
C522 C523 1.400 . S
C523 C522 1.400 . S
C523 C524 1.398 . S
C523 C529 1.491 . S
C524 H515 0.950 . S
C524 C523 1.398 . S
C524 C525 1.391 . S
C525 H513 0.950 . S
C525 C521 1.393 . S
C525 C524 1.391 . S
C526 H516 0.950 . S
C526 C527 1.386 . S
C526 C528 1.391 . S
C527 C526 1.386 . S
C527 C531 1.393 . S
C528 H517 0.950 . S
C528 C526 1.391 . S
C528 C529 1.400 . S
C529 C523 1.491 . S
C529 C528 1.400 . S
C529 C530 1.398 . S
C530 H518 0.950 . S
C530 C529 1.398 . S
C530 C531 1.391 . S
C531 H519 0.950 . S
C531 C527 1.393 . S
C531 C530 1.391 . S
H532 C540 0.950 . S
H533 C545 0.950 . S
H534 C542 0.950 . S
H535 C544 0.950 . S
H536 C546 0.950 . S
H537 C548 0.950 . S
H538 C550 0.950 . S
H539 C551 0.950 . S
C540 H532 0.950 . S
C540 C541 1.389 . S
C540 C542 1.391 . S
C541 C540 1.389 . S
C541 C545 1.390 1_655 S
C542 H534 0.950 . S
C542 C540 1.391 . S
C542 C543 1.391 1_655 S
C543 C542 1.391 1_455 S
C543 C544 1.407 . S
C543 C549 1.490 . S
C544 H535 0.950 . S
C544 C543 1.407 . S
C544 C545 1.391 . S
C545 H533 0.950 . S
C545 C541 1.390 1_455 S
C545 C544 1.391 . S
C546 H536 0.950 . S
C546 C547 1.386 . S
C546 C548 1.391 . S
C547 C546 1.386 . S
C547 C551 1.393 1_455 S
C548 H537 0.950 . S
C548 C546 1.391 . S
C548 C549 1.435 . S
C549 C543 1.490 . S
C549 C548 1.435 . S
C549 C550 1.366 1_455 S
C550 H538 0.950 . S
C550 C549 1.366 1_655 S
C550 C551 1.391 . S
C551 H539 0.950 . S
C551 C547 1.393 1_655 S
C551 C550 1.391 . S
H552 C560 0.950 . S
H553 C565 0.950 . S
H554 C562 0.950 . S
H555 C564 0.950 . S
H556 C566 0.950 . S
H557 C568 0.950 . S
H558 C570 0.950 1_554 S
H559 C571 0.950 . S
C560 H552 0.950 . S
C560 C561 1.398 . S
C560 C562 1.391 . S
C561 C560 1.398 . S
C561 C565 1.381 1_565 S
C562 H554 0.950 . S
C562 C560 1.391 . S
C562 C563 1.410 . S
C563 C562 1.410 . S
C563 C564 1.389 1_565 S
C563 C569 1.491 1_564 S
C564 H555 0.950 . S
C564 C563 1.389 1_545 S
C564 C565 1.391 . S
C565 H553 0.950 . S
C565 C561 1.381 1_545 S
C565 C564 1.391 . S
C566 H556 0.950 . S
C566 C567 1.386 . S
C566 C568 1.391 . S
C567 C566 1.386 . S
C567 C571 1.393 1_545 S
C568 H557 0.950 . S
C568 C566 1.391 . S
C568 C569 1.398 . S
C569 C563 1.491 1_546 S
C569 C568 1.398 . S
C569 C570 1.401 1_545 S
C570 H558 0.950 1_556 S
C570 C569 1.401 1_565 S
C570 C571 1.391 . S
C571 H559 0.950 . S
C571 C567 1.393 1_565 S
C571 C570 1.391 . S
H572 C580 0.950 . S
H573 C585 0.950 . S
H574 C582 0.950 . S
H575 C584 0.950 . S
H576 C586 0.950 . S
H577 C588 0.950 . S
H578 C590 0.950 1_554 S
H579 C591 0.950 . S
C580 H572 0.950 . S
C580 C581 1.386 . S
C580 C582 1.391 . S
C581 C580 1.386 . S
C581 C585 1.393 . S
C582 H574 0.950 . S
C582 C580 1.391 . S
C582 C583 1.400 . S
C583 C582 1.400 . S
C583 C584 1.398 . S
C583 C589 1.491 1_554 S
C584 H575 0.950 . S
C584 C583 1.398 . S
C584 C585 1.391 . S
C585 H573 0.950 . S
C585 C581 1.393 . S
C585 C584 1.391 . S
C586 H576 0.950 . S
C586 C587 1.386 . S
C586 C588 1.391 . S
C587 C586 1.386 . S
C587 C591 1.393 . S
C588 H577 0.950 . S
C588 C586 1.391 . S
C588 C589 1.400 . S
C589 C583 1.491 1_556 S
C589 C588 1.400 . S
C589 C590 1.398 . S
C590 H578 0.950 1_556 S
C590 C589 1.398 . S
C590 C591 1.391 . S
C591 H579 0.950 . S
C591 C587 1.393 . S
C591 C590 1.391 . S
H592 C600 0.950 . S
H593 C605 0.950 . S
H594 C602 0.950 . S
H595 C604 0.950 . S
H596 C606 0.950 . S
H597 C608 0.950 . S
H598 C610 0.950 1_554 S
H599 C611 0.950 . S
C600 H592 0.950 . S
C600 C601 1.386 . S
C600 C602 1.391 . S
C601 C600 1.386 . S
C601 C605 1.393 . S
C602 H594 0.950 . S
C602 C600 1.391 . S
C602 C603 1.400 . S
C603 C602 1.400 . S
C603 C604 1.398 . S
C603 C609 1.491 1_554 S
C604 H595 0.950 . S
C604 C603 1.398 . S
C604 C605 1.391 . S
C605 H593 0.950 . S
C605 C601 1.393 . S
C605 C604 1.391 . S
C606 H596 0.950 . S
C606 C607 1.386 . S
C606 C608 1.391 . S
C607 C606 1.386 . S
C607 C611 1.393 . S
C608 H597 0.950 . S
C608 C606 1.391 . S
C608 C609 1.400 . S
C609 C603 1.491 1_556 S
C609 C608 1.400 . S
C609 C610 1.398 . S
C610 H598 0.950 1_556 S
C610 C609 1.398 . S
C610 C611 1.391 . S
C611 H599 0.950 . S
C611 C607 1.393 . S
C611 C610 1.391 . S
H612 C620 0.950 . S
H613 C625 0.950 . S
H614 C622 0.950 . S
H615 C624 0.950 . S
H616 C626 0.950 . S
H617 C628 0.950 . S
H618 C630 0.950 1_554 S
H619 C631 0.950 . S
C620 H612 0.950 . S
C620 C621 1.386 1_455 S
C620 C622 1.391 . S
C621 C620 1.386 1_655 S
C621 C625 1.393 . S
C622 H614 0.950 . S
C622 C620 1.391 . S
C622 C623 1.393 1_455 S
C623 C622 1.393 1_655 S
C623 C624 1.409 . S
C623 C629 1.490 1_554 S
C624 H615 0.950 . S
C624 C623 1.409 . S
C624 C625 1.391 . S
C625 H613 0.950 . S
C625 C621 1.393 . S
C625 C624 1.391 . S
C626 H616 0.950 . S
C626 C627 1.387 . S
C626 C628 1.391 . S
C627 C626 1.387 . S
C627 C631 1.392 1_655 S
C628 H617 0.950 . S
C628 C626 1.391 . S
C628 C629 1.402 . S
C629 C623 1.490 1_556 S
C629 C628 1.402 . S
C629 C630 1.396 1_655 S
C630 H618 0.950 1_556 S
C630 C629 1.396 1_455 S
C630 C631 1.391 . S
C631 H619 0.950 . S
C631 C627 1.392 1_455 S
C631 C630 1.391 . S
H632 C640 0.950 . S
H633 C645 0.950 . S
H634 C642 0.950 . S
H635 C644 0.950 . S
H636 C646 0.950 . S
H637 C648 0.950 . S
H638 C650 0.950 1_455 S
H639 C651 0.950 . S
C640 H632 0.950 . S
C640 C641 1.386 . S
C640 C642 1.391 . S
C641 C640 1.386 . S
C641 C645 1.393 1_455 S
C642 H634 0.950 . S
C642 C640 1.391 . S
C642 C643 1.400 1_455 S
C643 C642 1.400 1_655 S
C643 C644 1.398 . S
C643 C649 1.491 . S
C644 H635 0.950 . S
C644 C643 1.398 . S
C644 C645 1.391 . S
C645 H633 0.950 . S
C645 C641 1.393 1_655 S
C645 C644 1.391 . S
C646 H636 0.950 . S
C646 C647 1.386 . S
C646 C648 1.391 . S
C647 C646 1.386 . S
C647 C651 1.393 . S
C648 H637 0.950 . S
C648 C646 1.391 . S
C648 C649 1.400 . S
C649 C643 1.491 . S
C649 C648 1.400 . S
C649 C650 1.398 . S
C650 H638 0.950 1_655 S
C650 C649 1.398 . S
C650 C651 1.391 . S
C651 H639 0.950 . S
C651 C647 1.393 . S
C651 C650 1.391 . S
H652 C660 0.950 . S
H653 C665 0.950 . S
H654 C662 0.950 . S
H655 C664 0.950 . S
H656 C666 0.950 . S
H657 C668 0.950 1_545 S
H658 C670 0.950 . S
H659 C671 0.950 . S
C660 H652 0.950 . S
C660 C661 1.386 1_565 S
C660 C662 1.391 . S
C661 C660 1.386 1_545 S
C661 C665 1.393 . S
C662 H654 0.950 . S
C662 C660 1.391 . S
C662 C663 1.400 . S
C663 C662 1.400 . S
C663 C664 1.398 1_565 S
C663 C669 1.491 . S
C664 H655 0.950 . S
C664 C663 1.398 1_545 S
C664 C665 1.391 . S
C665 H653 0.950 . S
C665 C661 1.393 . S
C665 C664 1.391 . S
C666 H656 0.950 . S
C666 C667 1.386 . S
C666 C668 1.391 . S
C667 C666 1.386 . S
C667 C671 1.393 . S
C668 H657 0.950 1_565 S
C668 C666 1.391 . S
C668 C669 1.400 . S
C669 C663 1.491 . S
C669 C668 1.400 . S
C669 C670 1.398 . S
C670 H658 0.950 . S
C670 C669 1.398 . S
C670 C671 1.391 . S
C671 H659 0.950 . S
C671 C667 1.393 . S
C671 C670 1.391 . S
H672 C680 0.950 . S
H673 C685 0.950 . S
H674 C682 0.950 . S
H675 C684 0.950 . S
H676 C686 0.950 . S
H677 C688 0.950 . S
H678 C690 0.950 . S
H679 C691 0.950 . S
C680 H672 0.950 . S
C680 C681 1.386 . S
C680 C682 1.391 . S
C681 C680 1.386 . S
C681 C685 1.393 . S
C682 H674 0.950 . S
C682 C680 1.391 . S
C682 C683 1.400 . S
C683 C682 1.400 . S
C683 C684 1.398 . S
C683 C689 1.491 . S
C684 H675 0.950 . S
C684 C683 1.398 . S
C684 C685 1.391 . S
C685 H673 0.950 . S
C685 C681 1.393 . S
C685 C684 1.391 . S
C686 H676 0.950 . S
C686 C687 1.386 . S
C686 C688 1.391 . S
C687 C686 1.386 . S
C687 C691 1.393 . S
C688 H677 0.950 . S
C688 C686 1.391 . S
C688 C689 1.400 . S
C689 C683 1.491 . S
C689 C688 1.400 . S
C689 C690 1.398 . S
C690 H678 0.950 . S
C690 C689 1.398 . S
C690 C691 1.391 . S
C691 H679 0.950 . S
C691 C687 1.393 . S
C691 C690 1.391 . S
H692 C700 0.950 . S
H693 C705 0.950 . S
H694 C702 0.950 . S
H695 C704 0.950 . S
H696 C706 0.950 . S
H697 C708 0.950 . S
H698 C710 0.950 . S
H699 C711 0.950 . S
C700 H692 0.950 . S
C700 C701 1.386 . S
C700 C702 1.391 . S
C701 C700 1.386 . S
C701 C705 1.393 . S
C702 H694 0.950 . S
C702 C700 1.391 . S
C702 C703 1.400 . S
C703 C702 1.400 . S
C703 C704 1.398 . S
C703 C709 1.491 . S
C704 H695 0.950 . S
C704 C703 1.398 . S
C704 C705 1.391 . S
C705 H693 0.950 . S
C705 C701 1.393 . S
C705 C704 1.391 . S
C706 H696 0.950 . S
C706 C707 1.386 . S
C706 C708 1.391 . S
C707 C706 1.386 . S
C707 C711 1.393 . S
C708 H697 0.950 . S
C708 C706 1.391 . S
C708 C709 1.400 . S
C709 C703 1.491 . S
C709 C708 1.400 . S
C709 C710 1.398 . S
C710 H698 0.950 . S
C710 C709 1.398 . S
C710 C711 1.391 . S
C711 H699 0.950 . S
C711 C707 1.393 . S
C711 C710 1.391 . S
H712 C720 0.950 . S
H713 C725 0.950 . S
H714 C722 0.950 . S
H715 C724 0.950 1_556 S
H716 C726 0.950 . S
H717 C728 0.950 . S
H718 C730 0.950 1_655 S
H719 C731 0.950 1_554 S
C720 H712 0.950 . S
C720 C721 1.386 . S
C720 C722 1.391 . S
C721 C720 1.386 . S
C721 C725 1.393 1_655 S
C722 H714 0.950 . S
C722 C720 1.391 . S
C722 C723 1.400 1_655 S
C723 C722 1.400 1_455 S
C723 C724 1.398 . S
C723 C729 1.491 . S
C724 H715 0.950 1_554 S
C724 C723 1.398 . S
C724 C725 1.391 . S
C725 H713 0.950 . S
C725 C721 1.393 1_455 S
C725 C724 1.391 . S
C726 H716 0.950 . S
C726 C727 1.386 . S
C726 C728 1.391 . S
C727 C726 1.386 . S
C727 C731 1.393 . S
C728 H717 0.950 . S
C728 C726 1.391 . S
C728 C729 1.400 1_556 S
C729 C723 1.491 . S
C729 C728 1.400 1_554 S
C729 C730 1.398 . S
C730 H718 0.950 1_455 S
C730 C729 1.398 . S
C730 C731 1.391 1_554 S
C731 H719 0.950 1_556 S
C731 C727 1.393 . S
C731 C730 1.391 1_556 S
H732 C740 0.950 . S
H733 C745 0.950 . S
H734 C742 0.950 . S
H735 C744 0.950 1_566 S
H736 C746 0.950 . S
H737 C748 0.950 . S
H738 C750 0.950 . S
H739 C751 0.950 . S
C740 H732 0.950 . S
C740 C741 1.386 1_545 S
C740 C742 1.391 . S
C741 C740 1.386 1_565 S
C741 C745 1.393 . S
C742 H734 0.950 . S
C742 C740 1.391 . S
C742 C743 1.400 . S
C743 C742 1.400 . S
C743 C744 1.399 . S
C743 C749 1.491 . S
C744 H735 0.950 1_544 S
C744 C743 1.399 . S
C744 C745 1.390 1_545 S
C745 H733 0.950 . S
C745 C741 1.393 . S
C745 C744 1.390 1_565 S
C746 H736 0.950 . S
C746 C747 1.386 . S
C746 C748 1.391 . S
C747 C746 1.386 . S
C747 C751 1.393 1_556 S
C748 H737 0.950 . S
C748 C746 1.391 . S
C748 C749 1.400 1_556 S
C749 C743 1.491 . S
C749 C748 1.400 1_554 S
C749 C750 1.398 . S
C750 H738 0.950 . S
C750 C749 1.398 . S
C750 C751 1.391 . S
C751 H739 0.950 . S
C751 C747 1.393 1_554 S
C751 C750 1.391 . S
H752 C760 0.950 . S
H753 C765 0.950 . S
H754 C762 0.950 1_556 S
H755 C764 0.950 . S
H756 C766 0.950 . S
H757 C768 0.950 . S
H758 C770 0.950 . S
H759 C771 0.950 . S
C760 H752 0.950 . S
C760 C761 1.386 . S
C760 C762 1.391 . S
C761 C760 1.386 . S
C761 C765 1.393 . S
C762 H754 0.950 1_554 S
C762 C760 1.391 . S
C762 C763 1.400 . S
C763 C762 1.400 . S
C763 C764 1.398 . S
C763 C769 1.491 . S
C764 H755 0.950 . S
C764 C763 1.398 . S
C764 C765 1.391 . S
C765 H753 0.950 . S
C765 C761 1.393 . S
C765 C764 1.391 . S
C766 H756 0.950 . S
C766 C767 1.386 1_554 S
C766 C768 1.391 . S
C767 C766 1.386 1_556 S
C767 C771 1.393 . S
C768 H757 0.950 . S
C768 C766 1.391 . S
C768 C769 1.400 . S
C769 C763 1.491 . S
C769 C768 1.400 . S
C769 C770 1.398 1_554 S
C770 H758 0.950 . S
C770 C769 1.398 1_556 S
C770 C771 1.391 . S
C771 H759 0.950 . S
C771 C767 1.393 . S
C771 C770 1.391 . S
H772 C780 0.950 . S
H773 C785 0.950 . S
H774 C782 0.950 . S
H775 C784 0.950 1_556 S
H776 C786 0.950 . S
H777 C788 0.950 . S
H778 C790 0.950 . S
H779 C791 0.950 . S
C780 H772 0.950 . S
C780 C781 1.386 . S
C780 C782 1.391 . S
C781 C780 1.386 . S
C781 C785 1.393 . S
C782 H774 0.950 . S
C782 C780 1.391 . S
C782 C783 1.400 . S
C783 C782 1.400 . S
C783 C784 1.398 . S
C783 C789 1.491 . S
C784 H775 0.950 1_554 S
C784 C783 1.398 . S
C784 C785 1.391 . S
C785 H773 0.950 . S
C785 C781 1.393 . S
C785 C784 1.391 . S
C786 H776 0.950 . S
C786 C787 1.386 . S
C786 C788 1.391 . S
C787 C786 1.386 . S
C787 C791 1.393 1_556 S
C788 H777 0.950 . S
C788 C786 1.391 . S
C788 C789 1.400 1_556 S
C789 C783 1.491 . S
C789 C788 1.400 1_554 S
C789 C790 1.398 . S
C790 H778 0.950 . S
C790 C789 1.398 . S
C790 C791 1.391 . S
C791 H779 0.950 . S
C791 C787 1.393 1_554 S
C791 C790 1.391 . S
H792 C800 0.950 . S
H793 C805 0.950 . S
H794 C802 0.950 . S
H795 C804 0.950 . S
H796 C806 0.950 . S
H797 C808 0.950 . S
H798 C810 0.950 . S
H799 C811 0.950 . S
C800 H792 0.950 . S
C800 C801 1.386 1_655 S
C800 C802 1.391 . S
C801 C800 1.386 1_455 S
C801 C805 1.393 . S
C802 H794 0.950 . S
C802 C800 1.391 . S
C802 C803 1.400 1_655 S
C803 C802 1.400 1_455 S
C803 C804 1.398 . S
C803 C809 1.491 . S
C804 H795 0.950 . S
C804 C803 1.398 . S
C804 C805 1.391 . S
C805 H793 0.950 . S
C805 C801 1.393 . S
C805 C804 1.391 . S
C806 H796 0.950 . S
C806 C807 1.386 . S
C806 C808 1.391 . S
C807 C806 1.386 . S
C807 C811 1.393 1_455 S
C808 H797 0.950 . S
C808 C806 1.391 . S
C808 C809 1.400 . S
C809 C803 1.491 . S
C809 C808 1.400 . S
C809 C810 1.398 1_455 S
C810 H798 0.950 . S
C810 C809 1.398 1_655 S
C810 C811 1.391 . S
C811 H799 0.950 . S
C811 C807 1.393 1_655 S
C811 C810 1.391 . S
H812 C820 0.950 . S
H813 C825 0.950 . S
H814 C822 0.950 . S
H815 C824 0.950 . S
H816 C826 0.950 . S
H817 C828 0.950 . S
H818 C830 0.950 . S
H819 C831 0.950 . S
C820 H812 0.950 . S
C820 C821 1.386 1_565 S
C820 C822 1.391 . S
C821 C820 1.386 1_545 S
C821 C825 1.393 . S
C822 H814 0.950 . S
C822 C820 1.391 . S
C822 C823 1.400 1_565 S
C823 C822 1.400 1_545 S
C823 C824 1.398 . S
C823 C829 1.491 . S
C824 H815 0.950 . S
C824 C823 1.398 . S
C824 C825 1.391 . S
C825 H813 0.950 . S
C825 C821 1.393 . S
C825 C824 1.391 . S
C826 H816 0.950 . S
C826 C827 1.386 . S
C826 C828 1.391 . S
C827 C826 1.386 . S
C827 C831 1.393 1_545 S
C828 H817 0.950 . S
C828 C826 1.391 . S
C828 C829 1.400 . S
C829 C823 1.491 . S
C829 C828 1.400 . S
C829 C830 1.398 1_545 S
C830 H818 0.950 . S
C830 C829 1.398 1_565 S
C830 C831 1.391 . S
C831 H819 0.950 . S
C831 C827 1.393 1_565 S
C831 C830 1.391 . S
H832 C840 0.950 . S
H833 C845 0.950 . S
H834 C842 0.950 . S
H835 C844 0.950 . S
H836 C846 0.950 . S
H837 C848 0.950 . S
H838 C850 0.950 . S
H839 C851 0.950 . S
C840 H832 0.950 . S
C840 C841 1.386 . S
C840 C842 1.391 . S
C841 C840 1.386 . S
C841 C845 1.393 . S
C842 H834 0.950 . S
C842 C840 1.391 . S
C842 C843 1.400 . S
C843 C842 1.400 . S
C843 C844 1.398 . S
C843 C849 1.491 . S
C844 H835 0.950 . S
C844 C843 1.398 . S
C844 C845 1.391 . S
C845 H833 0.950 . S
C845 C841 1.393 . S
C845 C844 1.391 . S
C846 H836 0.950 . S
C846 C847 1.386 . S
C846 C848 1.391 . S
C847 C846 1.386 . S
C847 C851 1.393 . S
C848 H837 0.950 . S
C848 C846 1.391 . S
C848 C849 1.400 . S
C849 C843 1.491 . S
C849 C848 1.400 . S
C849 C850 1.398 . S
C850 H838 0.950 . S
C850 C849 1.398 . S
C850 C851 1.391 . S
C851 H839 0.950 . S
C851 C847 1.393 . S
C851 C850 1.391 . S
H852 C860 0.950 . S
H853 C865 0.950 . S
H854 C862 0.950 . S
H855 C864 0.950 . S
H856 C866 0.950 . S
H857 C868 0.950 . S
H858 C870 0.950 . S
H859 C871 0.950 . S
C860 H852 0.950 . S
C860 C861 1.386 . S
C860 C862 1.391 . S
C861 C860 1.386 . S
C861 C865 1.393 . S
C862 H854 0.950 . S
C862 C860 1.391 . S
C862 C863 1.400 . S
C863 C862 1.400 . S
C863 C864 1.398 . S
C863 C869 1.491 . S
C864 H855 0.950 . S
C864 C863 1.398 . S
C864 C865 1.391 . S
C865 H853 0.950 . S
C865 C861 1.393 . S
C865 C864 1.391 . S
C866 H856 0.950 . S
C866 C867 1.386 . S
C866 C868 1.391 . S
C867 C866 1.386 . S
C867 C871 1.393 . S
C868 H857 0.950 . S
C868 C866 1.391 . S
C868 C869 1.400 . S
C869 C863 1.491 . S
C869 C868 1.400 . S
C869 C870 1.398 . S
C870 H858 0.950 . S
C870 C869 1.398 . S
C870 C871 1.391 . S
C871 H859 0.950 . S
C871 C867 1.393 . S
C871 C870 1.391 . S
H872 C880 0.950 . S
H873 C885 0.950 . S
H874 C882 0.950 . S
H875 C884 0.950 . S
H876 C886 0.950 . S
H877 C888 0.950 . S
H878 C890 0.950 . S
H879 C891 0.950 . S
C880 H872 0.950 . S
C880 C881 1.386 . S
C880 C882 1.391 . S
C881 C880 1.386 . S
C881 C885 1.393 1_655 S
C882 H874 0.950 . S
C882 C880 1.391 . S
C882 C883 1.400 . S
C883 C882 1.400 . S
C883 C884 1.398 1_655 S
C883 C889 1.491 . S
C884 H875 0.950 . S
C884 C883 1.398 1_455 S
C884 C885 1.391 . S
C885 H873 0.950 . S
C885 C881 1.393 1_455 S
C885 C884 1.391 . S
C886 H876 0.950 . S
C886 C887 1.386 1_455 S
C886 C888 1.391 . S
C887 C886 1.386 1_655 S
C887 C891 1.393 . S
C888 H877 0.950 . S
C888 C886 1.391 . S
C888 C889 1.400 1_455 S
C889 C883 1.491 . S
C889 C888 1.400 1_655 S
C889 C890 1.398 . S
C890 H878 0.950 . S
C890 C889 1.398 . S
C890 C891 1.391 . S
C891 H879 0.950 . S
C891 C887 1.393 . S
C891 C890 1.391 . S
H892 C900 0.950 . S
H893 C905 0.946 1_545 S
H894 C902 0.950 . S
H895 C904 0.955 . S
H896 C906 0.950 . S
H897 C908 0.951 . S
H898 C910 0.950 . S
H899 C911 0.950 . S
C900 H892 0.950 . S
C900 C901 1.386 . S
C900 C902 1.391 . S
C901 C900 1.386 . S
C901 C905 1.396 . S
C902 H894 0.950 . S
C902 C900 1.391 . S
C902 C903 1.400 . S
C903 C902 1.400 . S
C903 C904 1.398 . S
C903 C909 1.491 . S
C904 H895 0.955 . S
C904 C903 1.398 . S
C904 C905 1.393 . S
C905 H893 0.946 1_565 S
C905 C901 1.396 . S
C905 C904 1.393 . S
C906 H896 0.950 . S
C906 C907 1.386 . S
C906 C908 1.391 . S
C907 C906 1.386 . S
C907 C911 1.393 . S
C908 H897 0.951 . S
C908 C906 1.391 . S
C908 C909 1.400 . S
C909 C903 1.491 . S
C909 C908 1.400 . S
C909 C910 1.398 . S
C910 H898 0.950 . S
C910 C909 1.398 . S
C910 C911 1.391 . S
C911 H899 0.950 . S
C911 C907 1.393 . S
C911 C910 1.391 . S
H912 C920 0.950 . S
H913 C925 0.950 . S
H914 C922 0.950 . S
H915 C924 0.950 . S
H916 C926 0.950 . S
H917 C928 0.950 . S
H918 C930 0.950 . S
H919 C931 0.950 . S
C920 H912 0.950 . S
C920 C921 1.386 . S
C920 C922 1.391 . S
C921 C920 1.386 . S
C921 C925 1.393 . S
C922 H914 0.950 . S
C922 C920 1.391 . S
C922 C923 1.400 . S
C923 C922 1.400 . S
C923 C924 1.398 . S
C923 C929 1.491 . S
C924 H915 0.950 . S
C924 C923 1.398 . S
C924 C925 1.391 . S
C925 H913 0.950 . S
C925 C921 1.393 . S
C925 C924 1.391 . S
C926 H916 0.950 . S
C926 C927 1.386 . S
C926 C928 1.391 . S
C927 C926 1.386 . S
C927 C931 1.393 . S
C928 H917 0.950 . S
C928 C926 1.391 . S
C928 C929 1.400 . S
C929 C923 1.491 . S
C929 C928 1.400 . S
C929 C930 1.398 . S
C930 H918 0.950 . S
C930 C929 1.398 . S
C930 C931 1.391 . S
C931 H919 0.950 . S
C931 C927 1.393 . S
C931 C930 1.391 . S
H932 C940 0.950 . S
H933 C945 0.950 . S
H934 C942 0.950 . S
H935 C944 0.950 . S
H936 C946 0.950 . S
H937 C948 0.950 . S
H938 C950 0.950 . S
H939 C951 0.950 . S
C940 H932 0.950 . S
C940 C941 1.386 . S
C940 C942 1.391 . S
C941 C940 1.386 . S
C941 C945 1.393 . S
C942 H934 0.950 . S
C942 C940 1.391 . S
C942 C943 1.400 . S
C943 C942 1.400 . S
C943 C944 1.398 . S
C943 C949 1.491 . S
C944 H935 0.950 . S
C944 C943 1.398 . S
C944 C945 1.391 . S
C945 H933 0.950 . S
C945 C941 1.393 . S
C945 C944 1.391 . S
C946 H936 0.950 . S
C946 C947 1.386 . S
C946 C948 1.391 . S
C947 C946 1.386 . S
C947 C951 1.393 . S
C948 H937 0.950 . S
C948 C946 1.391 . S
C948 C949 1.400 . S
C949 C943 1.491 . S
C949 C948 1.400 . S
C949 C950 1.398 . S
C950 H938 0.950 . S
C950 C949 1.398 . S
C950 C951 1.391 . S
C951 H939 0.950 . S
C951 C947 1.393 . S
C951 C950 1.391 . S
C481 C255 2.174 1_545 S
C487 C314 2.353 . S
C507 C354 2.376 . S
C501 C294 2.164 . S
C527 C394 2.374 . S
C521 C177 2.187 . S
C547 C434 2.368 1_455 S
C541 C216 2.177 . S
C567 C327 2.356 . S
C561 C99 2.170 . S
C581 C138 2.169 . S
C587 C367 2.380 . S
C601 C21 2.183 . S
C607 C407 2.368 . S
C621 C60 2.188 . S
C627 C447 2.366 1_655 S
C647 C338 0.374 . S
C641 C196 0.416 1_455 S
C667 C378 0.348 . S
C661 C235 0.348 1_545 S
C687 C418 0.329 . S
C681 C289 0.387 . S
C701 C157 0.346 . S
C707 C458 0.356 . S
C721 C40 0.337 . S
C727 C321 0.333 . S
C747 C361 0.332 . S
C741 C79 0.375 . S
C767 C401 0.382 . S
C761 C133 0.374 . S
C781 C1 0.378 . S
C787 C441 0.334 . S
C801 C211 2.821 . S
C807 C315 3.197 . S
C821 C250 2.790 . S
C827 C355 3.173 . S
C847 C395 3.164 . S
C841 C274 2.767 . S
C867 C435 3.182 . S
C861 C172 2.787 . S
C881 C55 2.817 1_655 S
C887 C334 3.206 . S
C907 C374 3.170 . S
C901 C94 2.782 1_565 S
C927 C414 3.163 . S
C921 C118 2.771 . S
C941 C16 2.804 . S
C947 C454 3.194 . S
