# Generated by pormake.
# Topology anh, (6,3)-cn, num edge types: 1
# Building blocks:
#     Node 0, Type 0, BuildingBlock: NUHQIS_clean_sbu_0, # of connection points: 6
#     Node 1, Type 0, BuildingBlock: NUHQIS_clean_sbu_0, # of connection points: 6
#     Node 2, Type 0, BuildingBlock: NUHQIS_clean_sbu_0, # of connection points: 6
#     Node 3, Type 1, BuildingBlock: CUQRIR_clean_linker_1, # of connection points: 3
#     Node 4, Type 1, BuildingBlock: CUQRIR_clean_linker_1, # of connection points: 3
#     Node 5, Type 1, BuildingBlock: CUQRIR_clean_linker_1, # of connection points: 3
#     Node 6, Type 1, BuildingBlock: CUQRIR_clean_linker_1, # of connection points: 3
#     Node 7, Type 1, BuildingBlock: CUQRIR_clean_linker_1, # of connection points: 3
#     Node 8, Type 1, BuildingBlock: CUQRIR_clean_linker_1, # of connection points: 3
#     Edge 9, Type (0, 1), BuildingBlock: KIFKEQ_clean_linker_1, # of connection points: 2
#     Edge 10, Type (0, 1), BuildingBlock: KIFKEQ_clean_linker_1, # of connection points: 2
#     Edge 11, Type (0, 1), BuildingBlock: KIFKEQ_clean_linker_1, # of connection points: 2
#     Edge 12, Type (0, 1), BuildingBlock: KIFKEQ_clean_linker_1, # of connection points: 2
#     Edge 13, Type (0, 1), BuildingBlock: KIFKEQ_clean_linker_1, # of connection points: 2
#     Edge 14, Type (0, 1), BuildingBlock: KIFKEQ_clean_linker_1, # of connection points: 2
#     Edge 15, Type (0, 1), BuildingBlock: KIFKEQ_clean_linker_1, # of connection points: 2
#     Edge 16, Type (0, 1), BuildingBlock: KIFKEQ_clean_linker_1, # of connection points: 2
#     Edge 17, Type (0, 1), BuildingBlock: KIFKEQ_clean_linker_1, # of connection points: 2
#     Edge 18, Type (0, 1), BuildingBlock: KIFKEQ_clean_linker_1, # of connection points: 2
#     Edge 19, Type (0, 1), BuildingBlock: KIFKEQ_clean_linker_1, # of connection points: 2
#     Edge 20, Type (0, 1), BuildingBlock: KIFKEQ_clean_linker_1, # of connection points: 2
#     Edge 21, Type (0, 1), BuildingBlock: KIFKEQ_clean_linker_1, # of connection points: 2
#     Edge 22, Type (0, 1), BuildingBlock: KIFKEQ_clean_linker_1, # of connection points: 2
#     Edge 23, Type (0, 1), BuildingBlock: KIFKEQ_clean_linker_1, # of connection points: 2
#     Edge 24, Type (0, 1), BuildingBlock: KIFKEQ_clean_linker_1, # of connection points: 2
#     Edge 25, Type (0, 1), BuildingBlock: KIFKEQ_clean_linker_1, # of connection points: 2
#     Edge 26, Type (0, 1), BuildingBlock: KIFKEQ_clean_linker_1, # of connection points: 2
# Relax obj value: 0.295
# Max RMSD: 0.223
# Mean RMSD: 0.160
data_MOF--net-anh--node1-NUHQIS_clean_sbu_0--node2-CUQRIR_clean_linker_1--edge1-KIFKEQ_clean_linker_1
_symmetry_space_group_name_H-M    P1
_symmetry_Int_Tables_number       1
_symmetry_cell_setting            triclinic
loop_
_symmetry_equiv_pos_as_xyz
'x, y, z'
_cell_length_a     28.6352
_cell_length_b     28.616347
_cell_length_c     47.967455
_cell_angle_alpha  88.049
_cell_angle_beta   90.903327
_cell_angle_gamma 119.72983
loop_
_atom_site_label
_atom_site_type_symbol
_atom_site_fract_x
_atom_site_fract_y
_atom_site_fract_z
_atom_type_partial_charge
Tb0 Tb 0.26734 0.64702 0.17678 0.0
Eu1 Eu 0.21606 0.70916 0.14579 0.0
C2 C 0.21232 0.69915 0.21121 0.0
C3 C 0.13909 0.57989 0.16727 0.0
C4 C 0.35352 0.59766 0.21554 0.0
C5 C 0.37797 0.55131 0.25117 0.0
C6 C 0.341 0.56514 0.23992 0.0
C7 C 0.40588 0.62193 0.20479 0.0
C8 C 0.44256 0.60768 0.21578 0.0
C9 C 0.42752 0.56888 0.23777 0.0
C10 C 0.30925 0.59517 0.19846 0.0
O11 O 0.2507 0.62252 0.13262 0.0
O12 O 0.27636 0.70622 0.11812 0.0
O13 O 0.29641 0.779 0.16156 0.0
O14 O 0.33854 0.73026 0.17226 0.0
C15 C 0.26831 0.65895 0.11222 0.0
O16 O 0.18555 0.71854 0.10554 0.0
O17 O 0.18989 0.76857 0.13972 0.0
O18 O 0.1855 0.69883 0.18891 0.0
O19 O 0.25254 0.68923 0.21 0.0
O20 O 0.18166 0.58504 0.18092 0.0
O21 O 0.14429 0.62012 0.15029 0.0
C22 C 0.3407 0.77763 0.16867 0.0
O23 O 0.27245 0.60123 0.21073 0.0
O24 O 0.32047 0.61727 0.17343 0.0
C25 C 1.11469 0.73512 0.10975 0.0
C26 C 1.00448 0.67983 0.09773 0.0
C27 C 1.04202 0.70734 0.07632 0.0
C28 C 1.09691 0.73502 0.08234 0.0
C29 C 1.07708 0.70964 0.13132 0.0
C30 C 1.02238 0.68245 0.12536 0.0
C31 C 0.17126 0.75202 0.11474 0.0
H32 H 0.36568 0.52284 0.2687 0.0
H33 H 0.30093 0.54637 0.24878 0.0
H34 H 0.41696 0.64774 0.18619 0.0
H35 H 0.48023 0.6226 0.20477 0.0
H36 H 1.02899 0.70606 0.05489 0.0
H37 H 1.12556 0.75378 0.06542 0.0
H38 H 1.08994 0.70808 0.15253 0.0
H39 H 0.99425 0.66092 0.14218 0.0
Tb40 Tb 0.79574 0.17798 0.50585 0.0
Eu41 Eu 0.67015 0.11723 0.49246 0.0
C42 C 0.70989 0.12402 0.55414 0.0
C43 C 0.73199 1.04663 0.50595 0.0
C44 C 0.93152 0.28216 0.49721 0.0
C45 C 0.96698 0.37872 0.49448 0.0
C46 C 0.95131 0.33152 0.51036 0.0
C47 C 0.93444 0.28201 0.46791 0.0
C48 C 0.95055 0.32932 0.45205 0.0
C49 C 0.96387 0.37731 0.46524 0.0
C50 C 0.89549 0.232 0.51296 0.0
O51 O 0.79368 0.17692 0.45979 0.0
O52 O 0.70707 0.15658 0.4512 0.0
O53 O 0.69075 0.20163 0.50708 0.0
O54 O 0.78049 0.24656 0.49784 0.0
C55 C 0.75597 0.17315 0.4424 0.0
O56 O 0.59726 1.05775 0.47129 0.0
O57 O 0.59454 0.11503 0.49889 0.0
O58 O 0.6752 0.09205 0.53616 0.0
O59 O 0.75518 0.16641 0.54611 0.0
O60 O 0.77382 0.09217 0.51425 0.0
O61 O 0.69039 1.04786 0.49397 0.0
C62 C 0.73616 0.24779 0.50388 0.0
O63 O 0.86083 0.23537 0.52883 0.0
O64 O 0.87258 0.18809 0.49876 0.0
C65 C 0.51431 1.03163 0.49466 0.0
C66 C 0.40584 0.96373 0.50953 0.0
C67 C 0.42687 0.95516 0.48513 0.0
C68 C 0.48051 0.98891 0.47774 0.0
C69 C 0.49431 1.03818 0.52001 0.0
C70 C 0.44042 1.00457 0.52732 0.0
C71 C 0.56701 1.07309 0.48369 0.0
H72 H 0.97832 0.4157 0.50507 0.0
H73 H 0.94973 0.33283 0.53286 0.0
H74 H 0.91974 0.24473 0.45703 0.0
H75 H 0.94819 0.32733 0.42952 0.0
H76 H 0.40105 0.92455 0.47073 0.0
H77 H 0.49478 0.98339 0.458 0.0
H78 H 0.51945 1.07081 0.53356 0.0
H79 H 0.42531 1.0118 0.5463 0.0
Tb80 Tb 0.71383 0.67439 0.84308 0.0
Eu81 Eu 0.65041 0.54953 0.82721 0.0
C82 C 0.65783 0.58385 0.88955 0.0
C83 C 0.78143 0.61046 0.84198 0.0
C84 C 0.74271 0.81219 0.84093 0.0
C85 C 0.68026 0.84623 0.84342 0.0
C86 C 0.70762 0.82246 0.85637 0.0
C87 C 0.75417 0.83143 0.81307 0.0
C88 C 0.72695 0.85539 0.80016 0.0
C89 C 0.68793 0.8607 0.81489 0.0
C90 C 0.75875 0.77336 0.85208 0.0
O91 O 0.69774 0.67502 0.79785 0.0
O92 O 0.68755 0.59359 0.78701 0.0
O93 O 0.58173 0.5699 0.83039 0.0
O94 O 0.62873 0.65683 0.84536 0.0
C95 C 0.69533 0.64109 0.77924 0.0
O96 O 0.62859 0.46606 0.83694 0.0
O97 O 0.60066 0.48683 0.7985 0.0
O98 O 0.62595 0.55289 0.87033 0.0
O99 O 0.70191 0.62895 0.88278 0.0
O100 O 0.78149 0.65685 0.84145 0.0
O101 O 0.73541 0.56475 0.83934 0.0
C102 C 0.58231 0.61358 0.83939 0.0
O103 O 0.7247 0.73627 0.86933 0.0
O104 O 0.77625 0.75287 0.83382 0.0
C105 C 0.54377 0.40067 0.81954 0.0
C106 C 0.44529 0.3031 0.82029 0.0
C107 C 0.4912 0.30618 0.83316 0.0
C108 C 0.53996 0.35443 0.83267 0.0
C109 C 0.49703 0.3989 0.80864 0.0
C110 C 0.44819 0.35042 0.80897 0.0
C111 C 0.5974 0.4482 0.81514 0.0
H112 H 0.65129 0.85109 0.85542 0.0
H113 H 0.69849 0.8088 0.87796 0.0
H114 H 0.78138 0.82469 0.8006 0.0
H115 H 0.73382 0.86634 0.77816 0.0
H116 H 0.49071 0.2704 0.84168 0.0
H117 H 0.57541 0.35486 0.84123 0.0
H118 H 0.49863 0.43419 0.79866 0.0
H119 H 0.41341 0.34929 0.79904 0.0
C120 C 0.74073 0.18009 0.19175 0.0
N121 N 0.77913 0.21603 0.20985 0.0
N122 N 0.70039 0.13514 0.20544 0.0
C123 C 0.74431 0.18654 0.16059 0.0
C124 C 0.71562 0.14552 0.23247 0.0
N125 N 0.76242 0.19293 0.23525 0.0
C126 C 0.68315 0.10973 0.25676 0.0
H127 H 0.72593 0.21112 0.15359 0.0
H128 H 0.72201 0.14681 0.15072 0.0
H129 H 0.78689 0.20733 0.15366 0.0
H130 H 0.69806 1.08151 0.26239 0.0
H131 H 0.63985 1.08599 0.25144 0.0
H132 H 0.68728 0.13351 0.27534 0.0
C133 C 0.73274 0.64694 0.52926 0.0
N134 N 0.73198 0.683 0.54758 0.0
N135 N 0.73628 0.60542 0.5428 0.0
C136 C 0.73334 0.65362 0.49813 0.0
C137 C 0.73734 0.61766 0.56997 0.0
N138 N 0.73503 0.6637 0.57298 0.0
C139 C 0.73899 0.58315 0.59402 0.0
H140 H 0.69135 0.63632 0.49056 0.0
H141 H 0.75174 0.63203 0.48832 0.0
H142 H 0.75579 0.69689 0.49173 0.0
H143 H 0.78155 0.59809 0.60001 0.0
H144 H 0.72106 0.54048 0.58817 0.0
H145 H 0.71732 0.58513 0.6125 0.0
C146 C 0.18597 0.61327 0.86509 0.0
N147 N 0.22306 0.61058 0.88297 0.0
N148 N 0.14189 0.6085 0.87901 0.0
C149 C 0.19132 0.6178 0.83396 0.0
C150 C 0.15425 0.60351 0.90601 0.0
N151 N 0.20205 0.60397 0.90849 0.0
C152 C 1.12132 0.60279 0.93043 0.0
H153 H 0.21632 0.66088 0.82762 0.0
H154 H 0.15136 0.6018 0.82387 0.0
H155 H 0.21156 0.59589 0.8267 0.0
H156 H 1.09389 0.56043 0.93728 0.0
H157 H 1.09676 0.62185 0.92474 0.0
H158 H 0.14749 0.6244 0.94825 0.0
C159 C 1.02937 0.75195 0.4248 0.0
N160 N 1.03336 0.73187 0.40036 0.0
N161 N 1.07047 0.80291 0.42809 0.0
C162 C 0.98855 0.7193 0.4471 0.0
C163 C 1.09694 0.81458 0.40331 0.0
N164 N 1.07503 0.77141 0.38679 0.0
C165 C 0.14728 0.86684 0.39629 0.0
H166 H 0.94757 0.70097 0.43804 0.0
H167 H 0.99095 0.74462 0.46469 0.0
H168 H 0.99488 0.68592 0.45497 0.0
H169 H 0.18127 0.86956 0.40896 0.0
H170 H 0.14165 0.90125 0.40125 0.0
H171 H 0.15759 0.87063 0.37385 0.0
C172 C 0.39521 0.96161 0.74205 0.0
N173 N 0.43446 0.96524 0.72529 0.0
N174 N 0.38079 0.99881 0.73443 0.0
C175 C 0.3763 0.92674 0.76823 0.0
C176 C 0.41219 1.02439 0.71183 0.0
N177 N 0.44485 1.00422 0.70645 0.0
C178 C 0.41558 1.07341 0.69729 0.0
H179 H 0.36665 0.88516 0.76364 0.0
H180 H 0.34016 0.92567 0.77703 0.0
H181 H 0.40907 0.94247 0.78393 0.0
H182 H 0.43743 0.10855 0.71083 0.0
H183 H 0.3747 1.06744 0.69357 0.0
H184 H 0.43673 1.08226 0.67698 0.0
C185 C 0.60214 0.40155 0.12095 0.0
N186 N 0.6156 0.41826 0.09412 0.0
N187 N 0.55534 0.39932 0.12794 0.0
C188 C 0.63799 0.3926 0.14113 0.0
C189 C 0.53888 0.41188 0.10347 0.0
N190 N 0.57521 0.42278 0.08303 0.0
C191 C 0.49086 0.41981 0.10042 0.0
H192 H 0.6524 0.36742 0.1314 0.0
H193 H 0.61641 0.37231 0.16077 0.0
H194 H 0.67393 0.43173 0.14586 0.0
H195 H 0.45425 0.38302 0.10789 0.0
H196 H 0.48411 0.42822 0.07845 0.0
H197 H 0.49662 0.45362 0.11342 0.0
H198 H 0.53612 0.60584 0.23335 0.0
H199 H 0.38506 0.4606 0.24999 0.0
H200 H 0.57285 0.55305 0.21613 0.0
H201 H 0.42383 0.40699 0.23604 0.0
H202 H 0.45732 0.35196 0.15274 0.0
H203 H 0.43306 0.38518 0.1927 0.0
H204 H 0.60177 0.49643 0.20766 0.0
H205 H 0.62402 0.46966 0.16509 0.0
C206 C 0.51135 0.5624 0.23443 0.0
C207 C 0.45659 0.53798 0.24127 0.0
C208 C 0.53273 0.53151 0.22479 0.0
C209 C 0.50026 0.47516 0.22291 0.0
C210 C 0.44907 0.45034 0.2354 0.0
C211 C 0.42709 0.48141 0.24411 0.0
C212 C 0.4889 0.38369 0.16459 0.0
C213 C 0.54227 0.40883 0.15534 0.0
C214 C 0.47534 0.40219 0.18806 0.0
C215 C 0.51532 0.44511 0.20338 0.0
C216 C 0.56939 0.46516 0.19597 0.0
C217 C 0.58249 0.44865 0.17177 0.0
H218 H 0.91306 0.43351 0.47537 0.0
H219 H 1.02244 0.42441 0.41773 0.0
H220 H 0.92233 0.51293 0.45008 0.0
H221 H 1.03143 0.50409 0.39209 0.0
H222 H 1.10028 0.69224 0.4023 0.0
H223 H 1.07654 0.59884 0.40937 0.0
H224 H 0.90812 0.55154 0.40424 0.0
H225 H 0.93278 0.64639 0.39581 0.0
C226 C 0.93894 0.44852 0.45718 0.0
C227 C 0.96818 0.42388 0.44885 0.0
C228 C 0.94339 0.49328 0.44239 0.0
C229 C 0.97742 0.51446 0.41908 0.0
C230 C 1.0049 0.48842 0.41001 0.0
C231 C 1.00002 0.44318 0.4247 0.0
C232 C 1.05834 0.66167 0.40106 0.0
C233 C 1.01831 0.67616 0.3981 0.0
C234 C 1.04466 0.60813 0.4053 0.0
C235 C 0.99052 0.568 0.40739 0.0
C236 C 0.95022 0.58192 0.40274 0.0
C237 C 0.96412 0.63581 0.39792 0.0
H238 H 0.71506 0.94223 0.77588 0.0
H239 H 0.57916 0.81303 0.8196 0.0
H240 H 0.65433 0.96518 0.75022 0.0
H241 H 0.51881 0.8368 0.79456 0.0
H242 H 0.41997 0.86449 0.72752 0.0
H243 H 0.48329 0.83731 0.74696 0.0
H244 H 0.59739 1.00391 0.76265 0.0
H245 H 0.53396 1.03011 0.74354 0.0
C246 C 0.67228 0.91887 0.78001 0.0
C247 C 0.65189 0.87633 0.79997 0.0
C248 C 0.63758 0.93204 0.76542 0.0
C249 C 0.58186 0.90267 0.77037 0.0
C250 C 0.56148 0.85973 0.79007 0.0
C251 C 0.59614 0.84674 0.80474 0.0
C252 C 0.45896 0.89489 0.73485 0.0
C253 C 0.47283 0.9492 0.73387 0.0
C254 C 0.49498 0.87959 0.74602 0.0
C255 C 0.54531 0.91859 0.75626 0.0
C256 C 0.55939 0.97308 0.7545 0.0
C257 C 0.52331 0.98814 0.74356 0.0
H258 H 0.91978 0.67508 0.1247 0.0
H259 H 0.9602 0.60541 0.05715 0.0
H260 H 0.82516 0.61049 0.11851 0.0
H261 H 0.86448 0.54121 0.05025 0.0
H262 H 0.69434 0.3953 0.08195 0.0
H263 H 0.79093 0.46173 0.0776 0.0
H264 H 0.75438 0.59038 0.08484 0.0
H265 H 0.66026 0.5246 0.09137 0.0
C266 C 0.90818 0.64636 0.10825 0.0
C267 C 0.94704 0.64518 0.09139 0.0
C268 C 0.85405 0.60962 0.10453 0.0
C269 C 0.83756 0.57106 0.08375 0.0
C270 C 0.87628 0.57045 0.06645 0.0
C271 C 0.93075 0.60748 0.07017 0.0
C272 C 0.70748 0.43788 0.08205 0.0
C273 C 0.67037 0.45528 0.08648 0.0
C274 C 0.76229 0.47577 0.0794 0.0
C275 C 0.77996 0.53112 0.08115 0.0
C276 C 0.74202 0.54804 0.08377 0.0
C277 C 0.68806 0.51052 0.08696 0.0
H278 H 0.33649 0.85683 0.50383 0.0
H279 H 0.34224 1.00512 0.52469 0.0
H280 H 0.24092 0.81527 0.49654 0.0
H281 H 0.24498 0.96248 0.51916 0.0
H282 H 1.11836 0.90582 0.44597 0.0
H283 H 0.19225 0.94273 0.4792 0.0
H284 H 0.15222 0.78122 0.50593 0.0
H285 H 1.08568 0.74559 0.4697 0.0
C286 C 0.31678 0.87991 0.50784 0.0
C287 C 0.34696 0.93451 0.51402 0.0
C288 C 0.26146 0.8559 0.50403 0.0
C289 C 0.23477 0.88578 0.50667 0.0
C290 C 0.26424 0.93864 0.51622 0.0
C291 C 0.31996 0.9629 0.51975 0.0
C292 C 1.1254 0.87844 0.45909 0.0
C293 C 1.0976 0.82305 0.45427 0.0
C294 C 0.16715 0.89944 0.47863 0.0
C295 C 0.18006 0.86492 0.49445 0.0
C296 C 0.14532 0.80917 0.49318 0.0
C297 C 1.10586 0.7885 0.4727 0.0
H298 H 0.39497 0.21337 0.85492 0.0
H299 H 0.39304 0.27102 0.77077 0.0
H300 H 0.34813 0.12092 0.83911 0.0
H301 H 0.34706 0.17949 0.75505 0.0
H302 H 0.29932 1.02002 0.72539 0.0
H303 H 0.28282 1.08218 0.75223 0.0
H304 H 0.40311 0.09524 0.81194 0.0
H305 H 0.42017 1.03566 0.78488 0.0
C306 C 0.38258 0.20619 0.83331 0.0
C307 C 0.3993 0.24945 0.81391 0.0
C308 C 0.35567 0.15329 0.82426 0.0
C309 C 0.34562 0.14308 0.79568 0.0
C310 C 0.35439 0.18583 0.77719 0.0
C311 C 0.38105 0.23865 0.78625 0.0
C312 C 0.32087 1.03532 0.74469 0.0
C313 C 0.36113 1.0235 0.75307 0.0
C314 C 0.31132 1.07049 0.7601 0.0
C315 C 0.34164 0.09373 0.78422 0.0
C316 C 0.37815 1.07745 0.79385 0.0
C317 C 0.38814 1.04324 0.7783 0.0
H318 H 0.81141 1.02753 0.52902 0.0
H319 H 0.65128 0.94033 0.49568 0.0
H320 H 0.81141 0.94323 0.53817 0.0
H321 H 0.65029 0.85532 0.50548 0.0
H322 H 0.66982 0.70323 0.50946 0.0
H323 H 0.67006 0.78764 0.49892 0.0
H324 H 0.79083 0.86544 0.56215 0.0
H325 H 0.79225 0.78186 0.57138 0.0
C326 C 0.77576 0.99042 0.52362 0.0
C327 C 0.73143 0.9925 0.51136 0.0
C328 C 0.77549 0.94094 0.52918 0.0
C329 C 0.73073 0.88998 0.52296 0.0
C330 C 0.68635 0.89222 0.51057 0.0
C331 C 0.68671 0.94187 0.50495 0.0
C332 C 0.69704 0.73837 0.52095 0.0
C333 C 0.73111 0.73413 0.54143 0.0
C334 C 0.69676 0.78762 0.51511 0.0
C335 C 0.73053 0.83582 0.52938 0.0
C336 C 0.76436 0.83108 0.54997 0.0
C337 C 0.76466 0.78194 0.55576 0.0
H338 H 0.80011 0.52319 0.8461 0.0
H339 H 0.88696 0.69632 0.84654 0.0
H340 H 0.8844 0.52198 0.85217 0.0
H341 H 0.97147 0.69539 0.85307 0.0
H342 H 1.12843 0.68465 0.8483 0.0
H343 H 1.04415 0.68549 0.83839 0.0
H344 H 0.95474 0.52961 0.87966 0.0
H345 H 1.03858 0.52899 0.88884 0.0
C346 C 0.83704 0.56132 0.84755 0.0
C347 C 0.83504 0.60983 0.84575 0.0
C348 C 0.88631 0.5607 0.85127 0.0
C349 C 0.9369 0.60859 0.85337 0.0
C350 C 0.9348 0.65717 0.85133 0.0
C351 C 0.88544 0.65774 0.84771 0.0
C352 C 1.0907 0.65002 0.85471 0.0
C353 C 1.09136 0.60639 0.86914 0.0
C354 C 1.04166 0.65069 0.84939 0.0
C355 C 0.99052 0.60765 0.8581 0.0
C356 C 0.99169 0.56363 0.87197 0.0
C357 C 1.04051 0.56316 0.87737 0.0
H358 H 0.44408 0.79372 0.17889 0.0
H359 H 0.36219 0.88465 0.16705 0.0
H360 H 0.52906 0.87688 0.18448 0.0
H361 H 0.44691 0.96827 0.1736 0.0
H362 H 0.61416 0.12364 0.17336 0.0
H363 H 0.5302 1.04033 0.16333 0.0
H364 H 0.59182 0.9482 0.2073 0.0
H365 H 0.67542 1.03088 0.21597 0.0
C366 C 0.44372 0.83139 0.17762 0.0
C367 C 0.39459 0.83078 0.17244 0.0
C368 C 0.4934 0.8802 0.18109 0.0
C369 C 0.49731 0.93181 0.17983 0.0
C370 C 0.44789 0.93097 0.17454 0.0
C371 C 0.39821 0.88207 0.1709 0.0
C372 C 0.61029 1.08548 0.18028 0.0
C373 C 0.653 1.08516 0.19537 0.0
C374 C 0.56107 1.03685 0.17492 0.0
C375 C 0.55167 0.9851 0.18442 0.0
C376 C 0.59545 0.9854 0.19893 0.0
C377 C 0.64437 1.03371 0.20414 0.0
H378 H 0.65119 0.26732 0.51294 0.0
H379 H 0.82331 0.35346 0.50337 0.0
H380 H 0.65221 0.35221 0.51971 0.0
H381 H 0.82454 0.43863 0.50997 0.0
H382 H 0.8173 0.58184 0.55023 0.0
H383 H 0.81784 0.49877 0.54007 0.0
H384 H 0.66058 0.43526 0.50304 0.0
H385 H 0.66057 0.51895 0.51352 0.0
C386 C 0.68955 0.30426 0.51213 0.0
C387 C 0.73714 0.30192 0.50751 0.0
C388 C 0.69014 0.35385 0.51591 0.0
C389 C 0.73846 0.40429 0.51558 0.0
C390 C 0.78611 0.40184 0.51088 0.0
C391 C 0.78544 0.35223 0.50685 0.0
C392 C 0.78318 0.55065 0.53939 0.0
C393 C 0.73933 0.55861 0.53239 0.0
C394 C 0.78334 0.50222 0.53349 0.0
C395 C 0.73919 0.45825 0.52059 0.0
C396 C 0.69551 0.4667 0.51322 0.0
C397 C 0.69567 0.51559 0.51888 0.0
H398 H 0.47727 0.52691 0.84448 0.0
H399 H 0.56393 0.69996 0.84647 0.0
H400 H 0.39329 0.5264 0.85462 0.0
H401 H 0.47983 0.6996 0.85612 0.0
H402 H 0.30796 0.68382 0.8501 0.0
H403 H 0.3923 0.68504 0.83929 0.0
H404 H 0.34026 0.53997 0.88953 0.0
H405 H 0.25636 0.53931 0.90038 0.0
C406 C 0.4788 0.56514 0.84683 0.0
C407 C 0.52889 0.61346 0.84438 0.0
C408 C 0.42997 0.56486 0.85294 0.0
C409 C 0.42802 0.61294 0.85645 0.0
C410 C 0.47807 0.66134 0.85351 0.0
C411 C 0.52709 0.66156 0.84797 0.0
C412 C 0.3142 0.65194 0.8588 0.0
C413 C 0.27405 0.61133 0.87618 0.0
C414 C 0.36336 0.6528 0.85273 0.0
C415 C 0.37476 0.61251 0.86325 0.0
C416 C 0.33419 0.57173 0.88051 0.0
C417 C 0.28556 0.57148 0.88701 0.0
H418 H 1.12019 0.48472 0.19413 0.0
H419 H 1.0321 0.55146 0.15176 0.0
H420 H 1.03759 0.4012 0.20318 0.0
H421 H 0.94775 0.4677 0.16174 0.0
H422 H 0.79535 0.29809 0.17173 0.0
H423 H 0.87798 0.38201 0.16054 0.0
H424 H 0.9619 0.34069 0.22346 0.0
H425 H 0.88049 0.25582 0.23291 0.0
C426 C 1.08306 0.48209 0.18674 0.0
C427 C 1.08474 0.52671 0.17198 0.0
C428 C 1.03426 0.43307 0.19229 0.0
C429 C 0.98302 0.42498 0.18382 0.0
C430 C 0.98473 0.46981 0.16884 0.0
C431 C 1.03402 0.51901 0.16302 0.0
C432 C 0.83154 0.30621 0.18294 0.0
C433 C 0.82943 0.26814 0.20339 0.0
C434 C 0.87991 0.35578 0.1767 0.0
C435 C 0.92949 0.3709 0.19063 0.0
C436 C 0.92674 0.33266 0.21133 0.0
C437 C 0.87859 0.28305 0.21736 0.0
H438 H 0.30052 0.72963 0.06775 0.0
H439 H 0.23898 0.56108 0.08794 0.0
H440 H 0.294 0.71193 0.01863 0.0
H441 H 0.23455 0.54314 0.03802 0.0
H442 H 0.16159 0.52541 0.94842 0.0
H443 H 0.18527 0.53552 -0.00226 0.0
H444 H 0.3225 0.69184 0.97859 0.0
H445 H 0.29603 0.68212 0.9294 0.0
C446 C 0.28645 0.68862 0.06175 0.0
C447 C 0.26995 0.64678 0.08214 0.0
C448 C 0.28321 0.67843 0.03321 0.0
C449 C 0.26378 0.62594 0.02371 0.0
C450 C 0.24904 0.58411 0.04417 0.0
C451 C 0.25198 0.59437 0.07296 0.0
C452 C 0.19772 0.56121 0.95477 0.0
C453 C 0.22674 0.60308 0.93506 0.0
C454 C 0.21146 0.56721 0.98319 0.0
C455 C 0.25525 0.61521 0.99281 0.0
C456 C 0.28741 0.65493 0.97247 0.0
C457 C 0.2731 0.64907 0.94404 0.0
H458 H 0.69183 0.18415 0.40284 0.0
H459 H 0.84658 0.1939 0.41215 0.0
H460 H 0.70708 0.20236 0.35302 0.0
H461 H 0.862 0.2124 0.36175 0.0
H462 H 0.82005 0.16069 0.26689 0.0
H463 H 0.82736 0.16474 0.31776 0.0
H464 H 0.75843 0.26901 0.31677 0.0
H465 H 0.7512 0.26423 0.26578 0.0
C466 C 0.72944 0.1905 0.39435 0.0
C467 C 0.76773 0.18703 0.41182 0.0
C468 C 0.73845 0.20157 0.36558 0.0
C469 C 0.78598 0.20927 0.35302 0.0
C470 C 0.82476 0.2065 0.3705 0.0
C471 C 0.81596 0.19597 0.3995 0.0
C472 C 0.80925 0.18679 0.2775 0.0
C473 C 0.78623 0.21316 0.26222 0.0
C474 C 0.81279 0.18867 0.30677 0.0
C475 C 0.79265 0.21645 0.32172 0.0
C476 C 0.77361 0.24643 0.30617 0.0
C477 C 0.77053 0.24482 0.27685 0.0
H478 H 0.75292 0.74009 0.75138 0.0
H479 H 0.64561 0.57157 0.73736 0.0
H480 H 0.7624 0.75783 0.70048 0.0
H481 H 0.65368 0.58945 0.6871 0.0
H482 H 0.64266 0.64029 0.59848 0.0
H483 H 0.63076 0.64234 0.64895 0.0
H484 H 0.80287 0.72558 0.65974 0.0
H485 H 0.81414 0.72191 0.6093 0.0
C486 C 0.73077 0.70703 0.73753 0.0
C487 C 0.69867 0.65434 0.74856 0.0
C488 C 0.73631 0.71716 0.70837 0.0
C489 C 0.70851 0.67511 0.68961 0.0
C490 C 0.67521 0.62291 0.7008 0.0
C491 C 0.67086 0.61262 0.72972 0.0
C492 C 0.67785 0.66126 0.61151 0.0
C493 C 0.72933 0.6822 0.59982 0.0
C494 C 0.67114 0.66174 0.64048 0.0
C495 C 0.71587 0.68393 0.65853 0.0
C496 C 0.76756 0.70869 0.64653 0.0
C497 C 0.77413 0.70713 0.61761 0.0
H498 H 0.68086 1.03532 0.58682 0.0
H499 H 0.69293 0.19157 0.58512 0.0
H500 H 0.62359 1.00892 0.62806 0.0
H501 H 0.63287 0.16459 0.62532 0.0
H502 H 0.53117 0.10448 0.70413 0.0
H503 H 0.60806 0.13811 0.67232 0.0
H504 H 0.53323 0.98329 0.63334 0.0
H505 H 0.4583 0.95004 0.66606 0.0
C506 C 0.67248 1.06454 0.59594 0.0
C507 C 0.69156 0.11555 0.58318 0.0
C508 C 0.63882 1.04919 0.6192 0.0
C509 C 0.62213 1.08398 0.62961 0.0
C510 C 0.64489 0.13671 0.61806 0.0
C511 C 0.67961 0.15243 0.5951 0.0
C512 C 0.53149 1.07821 0.68851 0.0
C513 C 0.48879 1.02517 0.68692 0.0
C514 C 0.57542 0.09721 0.67037 0.0
C515 C 0.57726 1.0635 0.65022 0.0
C516 C 0.53416 1.01023 0.64892 0.0
C517 C 0.49078 0.99121 0.66729 0.0
H518 H 0.70808 0.63425 0.93836 0.0
H519 H 0.57326 0.48894 0.90733 0.0
H520 H 0.68304 0.59677 0.98634 0.0
H521 H 0.54946 0.45251 0.95441 0.0
H522 H 0.58491 0.38197 0.03591 0.0
H523 H 0.60422 0.42521 0.98935 0.0
H524 H 0.5957 0.5597 0.02173 0.0
H525 H 0.57523 0.51535 0.06838 0.0
C526 C 0.6732 0.59478 0.94169 0.0
C527 C 0.64314 0.56456 0.91893 0.0
C528 C 0.65874 0.57354 0.96906 0.0
C529 C 0.6145 0.52167 0.97389 0.0
C530 C 0.58395 0.49235 0.95122 0.0
C531 C 0.59784 0.51351 0.92418 0.0
C532 C 0.58574 0.42003 0.03277 0.0
C533 C 0.57722 0.44471 0.05531 0.0
C534 C 0.59725 0.445 0.00635 0.0
C535 C 0.60162 0.49583 0.00208 0.0
C536 C 0.59274 0.52061 0.02459 0.0
C537 C 0.58014 0.49495 0.05102 0.0
H538 H 0.14852 0.74327 0.21737 0.0
H539 H 0.24051 0.68591 0.26498 0.0
H540 H 1.11805 0.76221 0.26001 0.0
H541 H 0.20849 0.70398 0.30827 0.0
H542 H 0.17718 0.79205 0.37863 0.0
H543 H 0.21353 0.77611 0.33643 0.0
H544 H 1.05735 0.7121 0.29748 0.0
H545 H 1.02225 0.73047 0.33935 0.0
C546 C 0.16213 0.73439 0.23701 0.0
C547 C 0.19665 0.71254 0.23776 0.0
C548 C 0.1443 0.74505 0.26152 0.0
C549 C 0.16011 0.73388 0.28758 0.0
C550 C 0.19574 0.71324 0.28848 0.0
C551 C 0.21397 0.70274 0.26374 0.0
C552 C 0.15129 0.77602 0.36067 0.0
C553 C 1.0975 0.76435 0.36164 0.0
C554 C 0.17171 0.76587 0.33676 0.0
C555 C 0.13853 0.74334 0.31346 0.0
C556 C 1.08437 0.73064 0.3148 0.0
C557 C 1.06414 0.74098 0.33866 0.0
loop_
_geom_bond_atom_site_label_1
_geom_bond_atom_site_label_2
_geom_bond_distance
_geom_bond_site_symmetry_2
_ccdc_geom_bond_type
Tb0 C10 2.825 . S
Tb0 O11 2.347 . S
Tb0 O14 2.366 . S
Tb0 O19 2.418 . S
Tb0 O20 2.384 1_455 S
Tb0 O23 2.479 . S
Tb0 O24 2.471 . S
Eu1 O12 2.418 . S
Eu1 O13 2.384 1_655 S
Eu1 O16 2.479 . S
Eu1 O17 2.471 . S
Eu1 O18 2.347 . S
Eu1 O21 2.366 . S
Eu1 C31 2.825 . S
C2 O18 1.259 1_455 S
C2 O19 1.265 . S
C3 O20 1.255 . S
C3 O21 1.265 . S
C4 C6 1.380 . S
C4 C7 1.374 . S
C4 C10 1.507 . S
C5 C6 1.384 . S
C5 C9 1.387 . S
C5 H32 0.930 . S
C6 C4 1.380 . S
C6 C5 1.384 . S
C6 H33 0.931 . S
C7 C4 1.374 . S
C7 C8 1.390 . S
C7 H34 0.930 . S
C8 C7 1.390 . S
C8 C9 1.391 . S
C8 H35 0.930 . S
C9 C5 1.387 . S
C9 C8 1.391 . S
C10 Tb0 2.825 . S
C10 C4 1.507 . S
C10 O23 1.238 . S
C10 O24 1.247 . S
O11 Tb0 2.347 . S
O11 C15 1.265 . S
O12 Eu1 2.418 . S
O12 C15 1.252 1_655 S
O13 Eu1 2.384 1_455 S
O13 C22 1.255 . S
O14 Tb0 2.366 . S
O14 C22 1.265 . S
C15 O11 1.265 . S
C15 O12 1.252 1_455 S
O16 Eu1 2.479 . S
O16 C31 1.238 . S
O17 Eu1 2.471 . S
O17 C31 1.247 . S
O18 Eu1 2.347 . S
O18 C2 1.259 1_655 S
O19 Tb0 2.418 . S
O19 C2 1.265 . S
O20 Tb0 2.384 1_655 S
O20 C3 1.255 . S
O21 Eu1 2.366 . S
O21 C3 1.265 . S
C22 O13 1.255 . S
C22 O14 1.265 . S
O23 Tb0 2.479 . S
O23 C10 1.238 . S
O24 Tb0 2.471 . S
O24 C10 1.247 . S
C25 C28 1.380 . S
C25 C29 1.374 . S
C25 C31 1.507 . S
C26 C27 1.387 . S
C26 C30 1.391 . S
C27 C26 1.387 . S
C27 C28 1.384 . S
C27 H36 0.930 . S
C28 C25 1.380 . S
C28 C27 1.384 . S
C28 H37 0.931 . S
C29 C25 1.374 . S
C29 C30 1.390 . S
C29 H38 0.930 . S
C30 C26 1.391 . S
C30 C29 1.390 . S
C30 H39 0.930 . S
C31 Eu1 2.825 . S
C31 O16 1.238 . S
C31 O17 1.247 . S
C31 C25 1.507 . S
H32 C5 0.930 . S
H33 C6 0.931 . S
H34 C7 0.930 . S
H35 C8 0.930 . S
H36 C27 0.930 . S
H37 C28 0.931 . S
H38 C29 0.930 . S
H39 C30 0.930 . S
Tb40 C50 2.825 . S
Tb40 O51 2.347 . S
Tb40 O54 2.366 . S
Tb40 O59 2.418 . S
Tb40 O60 2.384 1_545 S
Tb40 O63 2.479 . S
Tb40 O64 2.471 . S
Eu41 O52 2.418 . S
Eu41 O53 2.384 . S
Eu41 O56 2.479 1_545 S
Eu41 O57 2.471 1_545 S
Eu41 O58 2.347 . S
Eu41 O61 2.366 1_545 S
Eu41 C71 2.825 1_545 S
C42 O58 1.259 . S
C42 O59 1.265 . S
C43 O60 1.255 . S
C43 O61 1.265 . S
C44 C46 1.380 . S
C44 C47 1.374 . S
C44 C50 1.507 . S
C45 C46 1.384 . S
C45 C49 1.387 . S
C45 H72 0.930 . S
C46 C44 1.380 . S
C46 C45 1.384 . S
C46 H73 0.931 . S
C47 C44 1.374 . S
C47 C48 1.390 . S
C47 H74 0.930 . S
C48 C47 1.390 . S
C48 C49 1.391 . S
C48 H75 0.930 . S
C49 C45 1.387 . S
C49 C48 1.391 . S
C50 Tb40 2.825 . S
C50 C44 1.507 . S
C50 O63 1.238 . S
C50 O64 1.247 . S
O51 Tb40 2.347 . S
O51 C55 1.259 . S
O52 Eu41 2.418 . S
O52 C55 1.265 . S
O53 Eu41 2.384 . S
O53 C62 1.255 . S
O54 Tb40 2.366 . S
O54 C62 1.265 . S
C55 O51 1.259 . S
C55 O52 1.265 . S
O56 Eu41 2.479 1_565 S
O56 C71 1.238 . S
O57 Eu41 2.471 1_565 S
O57 C71 1.247 . S
O58 Eu41 2.347 . S
O58 C42 1.259 . S
O59 Tb40 2.418 . S
O59 C42 1.265 . S
O60 Tb40 2.384 1_565 S
O60 C43 1.255 . S
O61 Eu41 2.366 1_565 S
O61 C43 1.265 . S
C62 O53 1.255 . S
C62 O54 1.265 . S
O63 Tb40 2.479 . S
O63 C50 1.238 . S
O64 Tb40 2.471 . S
O64 C50 1.247 . S
C65 C68 1.380 . S
C65 C69 1.374 . S
C65 C71 1.507 . S
C66 C67 1.387 . S
C66 C70 1.391 . S
C67 C66 1.387 . S
C67 C68 1.384 . S
C67 H76 0.930 . S
C68 C65 1.380 . S
C68 C67 1.384 . S
C68 H77 0.931 . S
C69 C65 1.374 . S
C69 C70 1.390 . S
C69 H78 0.930 . S
C70 C66 1.391 . S
C70 C69 1.390 . S
C70 H79 0.930 . S
C71 Eu41 2.825 1_565 S
C71 O56 1.238 . S
C71 O57 1.247 . S
C71 C65 1.507 . S
H72 C45 0.930 . S
H73 C46 0.931 . S
H74 C47 0.930 . S
H75 C48 0.930 . S
H76 C67 0.930 . S
H77 C68 0.931 . S
H78 C69 0.930 . S
H79 C70 0.930 . S
Tb80 C90 2.825 . S
Tb80 O91 2.347 . S
Tb80 O94 2.366 . S
Tb80 O99 2.418 . S
Tb80 O100 2.384 . S
Tb80 O103 2.479 . S
Tb80 O104 2.471 . S
Eu81 O92 2.418 . S
Eu81 O93 2.384 . S
Eu81 O96 2.479 . S
Eu81 O97 2.471 . S
Eu81 O98 2.347 . S
Eu81 O101 2.366 . S
Eu81 C111 2.825 . S
C82 O98 1.259 . S
C82 O99 1.265 . S
C83 O100 1.255 . S
C83 O101 1.265 . S
C84 C86 1.380 . S
C84 C87 1.374 . S
C84 C90 1.507 . S
C85 C86 1.384 . S
C85 C89 1.387 . S
C85 H112 0.930 . S
C86 C84 1.380 . S
C86 C85 1.384 . S
C86 H113 0.931 . S
C87 C84 1.374 . S
C87 C88 1.390 . S
C87 H114 0.930 . S
C88 C87 1.390 . S
C88 C89 1.391 . S
C88 H115 0.930 . S
C89 C85 1.387 . S
C89 C88 1.391 . S
C90 Tb80 2.825 . S
C90 C84 1.507 . S
C90 O103 1.238 . S
C90 O104 1.247 . S
O91 Tb80 2.347 . S
O91 C95 1.259 . S
O92 Eu81 2.418 . S
O92 C95 1.265 . S
O93 Eu81 2.384 . S
O93 C102 1.255 . S
O94 Tb80 2.366 . S
O94 C102 1.265 . S
C95 O91 1.259 . S
C95 O92 1.265 . S
O96 Eu81 2.479 . S
O96 C111 1.238 . S
O97 Eu81 2.471 . S
O97 C111 1.247 . S
O98 Eu81 2.347 . S
O98 C82 1.259 . S
O99 Tb80 2.418 . S
O99 C82 1.265 . S
O100 Tb80 2.384 . S
O100 C83 1.255 . S
O101 Eu81 2.366 . S
O101 C83 1.265 . S
C102 O93 1.255 . S
C102 O94 1.265 . S
O103 Tb80 2.479 . S
O103 C90 1.238 . S
O104 Tb80 2.471 . S
O104 C90 1.247 . S
C105 C108 1.380 . S
C105 C109 1.374 . S
C105 C111 1.507 . S
C106 C107 1.387 . S
C106 C110 1.391 . S
C107 C106 1.387 . S
C107 C108 1.384 . S
C107 H116 0.930 . S
C108 C105 1.380 . S
C108 C107 1.384 . S
C108 H117 0.931 . S
C109 C105 1.374 . S
C109 C110 1.390 . S
C109 H118 0.930 . S
C110 C106 1.391 . S
C110 C109 1.390 . S
C110 H119 0.930 . S
C111 Eu81 2.825 . S
C111 O96 1.238 . S
C111 O97 1.247 . S
C111 C105 1.507 . S
H112 C85 0.930 . S
H113 C86 0.931 . S
H114 C87 0.930 . S
H115 C88 0.930 . S
H116 C107 0.930 . S
H117 C108 0.931 . S
H118 C109 0.930 . S
H119 C110 0.930 . S
C120 N121 1.317 . S
C120 N122 1.348 1_545 S
C120 C123 1.485 . S
N121 C120 1.317 . S
N121 N125 1.370 . S
N122 C120 1.348 1_565 S
N122 C124 1.346 . S
C123 C120 1.485 . S
C123 H127 0.960 . S
C123 H128 0.961 1_545 S
C123 H129 0.960 . S
C124 N122 1.346 . S
C124 N125 1.307 1_565 S
C124 C126 1.486 . S
N125 N121 1.370 . S
N125 C124 1.307 1_545 S
C126 C124 1.486 . S
C126 H130 0.960 . S
C126 H131 0.960 . S
C126 H132 0.959 . S
H127 C123 0.960 . S
H128 C123 0.961 1_565 S
H129 C123 0.960 . S
H130 C126 0.960 . S
H131 C126 0.960 . S
H132 C126 0.959 . S
C133 N134 1.317 . S
C133 N135 1.348 . S
C133 C136 1.485 . S
N134 C133 1.317 . S
N134 N138 1.370 . S
N135 C133 1.348 . S
N135 C137 1.346 . S
C136 C133 1.485 . S
C136 H140 0.960 . S
C136 H141 0.961 . S
C136 H142 0.960 . S
C137 N135 1.346 . S
C137 N138 1.307 . S
C137 C139 1.486 . S
N138 N134 1.370 . S
N138 C137 1.307 . S
C139 C137 1.486 . S
C139 H143 0.960 . S
C139 H144 0.960 . S
C139 H145 0.959 . S
H140 C136 0.960 . S
H141 C136 0.961 . S
H142 C136 0.960 . S
H143 C139 0.960 . S
H144 C139 0.960 . S
H145 C139 0.959 . S
C146 N147 1.317 . S
C146 N148 1.348 1_455 S
C146 C149 1.485 . S
N147 C146 1.317 . S
N147 N151 1.370 . S
N148 C146 1.348 1_655 S
N148 C150 1.346 . S
C149 C146 1.485 . S
C149 H153 0.960 . S
C149 H154 0.961 . S
C149 H155 0.960 . S
C150 N148 1.346 . S
C150 N151 1.307 1_655 S
C150 C152 1.486 . S
N151 N147 1.370 . S
N151 C150 1.307 1_455 S
C152 C150 1.486 . S
C152 H156 0.960 . S
C152 H157 0.960 . S
C152 H158 0.959 . S
H153 C149 0.960 . S
H154 C149 0.961 . S
H155 C149 0.960 . S
H156 C152 0.960 . S
H157 C152 0.960 . S
H158 C152 0.959 . S
C159 N160 1.317 . S
C159 N161 1.348 . S
C159 C162 1.485 . S
N160 C159 1.317 . S
N160 N164 1.370 . S
N161 C159 1.348 . S
N161 C163 1.346 . S
C162 C159 1.485 . S
C162 H166 0.960 . S
C162 H167 0.961 . S
C162 H168 0.960 . S
C163 N161 1.346 . S
C163 N164 1.307 . S
C163 C165 1.486 . S
N164 N160 1.370 . S
N164 C163 1.307 . S
C165 C163 1.486 . S
C165 H169 0.960 . S
C165 H170 0.960 . S
C165 H171 0.959 . S
H166 C162 0.960 . S
H167 C162 0.961 . S
H168 C162 0.960 . S
H169 C165 0.960 . S
H170 C165 0.960 . S
H171 C165 0.959 . S
C172 N173 1.317 . S
C172 N174 1.348 . S
C172 C175 1.485 . S
N173 C172 1.317 . S
N173 N177 1.370 . S
N174 C172 1.348 . S
N174 C176 1.346 . S
C175 C172 1.485 . S
C175 H179 0.960 . S
C175 H180 0.961 . S
C175 H181 0.960 . S
C176 N174 1.346 . S
C176 N177 1.307 . S
C176 C178 1.486 . S
N177 N173 1.370 . S
N177 C176 1.307 . S
C178 C176 1.486 . S
C178 H182 0.960 . S
C178 H183 0.960 . S
C178 H184 0.959 . S
H179 C175 0.960 . S
H180 C175 0.961 . S
H181 C175 0.960 . S
H182 C178 0.960 . S
H183 C178 0.960 . S
H184 C178 0.959 . S
C185 N186 1.317 . S
C185 N187 1.348 . S
C185 C188 1.485 . S
N186 C185 1.317 . S
N186 N190 1.370 . S
N187 C185 1.348 . S
N187 C189 1.346 . S
C188 C185 1.485 . S
C188 H192 0.960 . S
C188 H193 0.961 . S
C188 H194 0.960 . S
C189 N187 1.346 . S
C189 N190 1.307 . S
C189 C191 1.486 . S
N190 N186 1.370 . S
N190 C189 1.307 . S
C191 C189 1.486 . S
C191 H195 0.960 . S
C191 H196 0.960 . S
C191 H197 0.959 . S
H192 C188 0.960 . S
H193 C188 0.961 . S
H194 C188 0.960 . S
H195 C191 0.960 . S
H196 C191 0.960 . S
H197 C191 0.959 . S
H198 C206 0.950 . S
H199 C211 0.950 . S
H200 C208 0.950 . S
H201 C210 0.950 . S
H202 C212 0.950 . S
H203 C214 0.950 . S
H204 C216 0.950 . S
H205 C217 0.950 . S
C206 H198 0.950 . S
C206 C207 1.386 . S
C206 C208 1.391 . S
C207 C206 1.386 . S
C207 C211 1.393 . S
C208 H200 0.950 . S
C208 C206 1.391 . S
C208 C209 1.400 . S
C209 C208 1.400 . S
C209 C210 1.398 . S
C209 C215 1.491 . S
C210 H201 0.950 . S
C210 C209 1.398 . S
C210 C211 1.391 . S
C211 H199 0.950 . S
C211 C207 1.393 . S
C211 C210 1.391 . S
C212 H202 0.950 . S
C212 C213 1.386 . S
C212 C214 1.391 . S
C213 C212 1.386 . S
C213 C217 1.393 . S
C214 H203 0.950 . S
C214 C212 1.391 . S
C214 C215 1.400 . S
C215 C209 1.491 . S
C215 C214 1.400 . S
C215 C216 1.398 . S
C216 H204 0.950 . S
C216 C215 1.398 . S
C216 C217 1.391 . S
C217 H205 0.950 . S
C217 C213 1.393 . S
C217 C216 1.391 . S
H218 C226 0.950 . S
H219 C231 0.950 . S
H220 C228 0.950 . S
H221 C230 0.950 . S
H222 C232 0.950 . S
H223 C234 0.950 . S
H224 C236 0.950 . S
H225 C237 0.950 . S
C226 H218 0.950 . S
C226 C227 1.386 . S
C226 C228 1.391 . S
C227 C226 1.386 . S
C227 C231 1.393 . S
C228 H220 0.950 . S
C228 C226 1.391 . S
C228 C229 1.400 . S
C229 C228 1.400 . S
C229 C230 1.398 . S
C229 C235 1.491 . S
C230 H221 0.950 . S
C230 C229 1.398 . S
C230 C231 1.391 . S
C231 H219 0.950 . S
C231 C227 1.393 . S
C231 C230 1.391 . S
C232 H222 0.950 . S
C232 C233 1.386 . S
C232 C234 1.391 . S
C233 C232 1.386 . S
C233 C237 1.393 . S
C234 H223 0.950 . S
C234 C232 1.391 . S
C234 C235 1.400 . S
C235 C229 1.491 . S
C235 C234 1.400 . S
C235 C236 1.398 . S
C236 H224 0.950 . S
C236 C235 1.398 . S
C236 C237 1.391 . S
C237 H225 0.950 . S
C237 C233 1.393 . S
C237 C236 1.391 . S
H238 C246 0.950 . S
H239 C251 0.950 . S
H240 C248 0.950 . S
H241 C250 0.950 . S
H242 C252 0.950 1_545 S
H243 C254 0.950 . S
H244 C256 0.950 . S
H245 C257 0.947 1_545 S
C246 H238 0.950 . S
C246 C247 1.386 . S
C246 C248 1.391 . S
C247 C246 1.386 . S
C247 C251 1.393 . S
C248 H240 0.950 . S
C248 C246 1.391 . S
C248 C249 1.400 . S
C249 C248 1.400 . S
C249 C250 1.398 . S
C249 C255 1.491 . S
C250 H241 0.950 . S
C250 C249 1.398 . S
C250 C251 1.391 . S
C251 H239 0.950 . S
C251 C247 1.393 . S
C251 C250 1.391 . S
C252 H242 0.950 1_565 S
C252 C253 1.386 1_565 S
C252 C254 1.391 . S
C253 C252 1.386 1_545 S
C253 C257 1.393 1_545 S
C254 H243 0.950 . S
C254 C252 1.391 . S
C254 C255 1.400 . S
C255 C249 1.491 . S
C255 C254 1.400 . S
C255 C256 1.398 . S
C256 H244 0.950 . S
C256 C255 1.398 . S
C256 C257 1.391 . S
C257 H245 0.947 1_565 S
C257 C253 1.393 1_565 S
C257 C256 1.391 . S
H258 C266 0.950 . S
H259 C271 0.950 . S
H260 C268 0.950 . S
H261 C270 0.950 . S
H262 C272 0.950 . S
H263 C274 0.950 . S
H264 C276 0.950 . S
H265 C277 0.950 . S
C266 H258 0.950 . S
C266 C267 1.386 . S
C266 C268 1.391 . S
C267 C266 1.386 . S
C267 C271 1.393 . S
C268 H260 0.950 . S
C268 C266 1.391 . S
C268 C269 1.400 . S
C269 C268 1.400 . S
C269 C270 1.398 . S
C269 C275 1.491 . S
C270 H261 0.950 . S
C270 C269 1.398 . S
C270 C271 1.391 . S
C271 H259 0.950 . S
C271 C267 1.393 . S
C271 C270 1.391 . S
C272 H262 0.950 . S
C272 C273 1.386 . S
C272 C274 1.391 . S
C273 C272 1.386 . S
C273 C277 1.393 . S
C274 H263 0.950 . S
C274 C272 1.391 . S
C274 C275 1.400 . S
C275 C269 1.491 . S
C275 C274 1.400 . S
C275 C276 1.398 . S
C276 H264 0.950 . S
C276 C275 1.398 . S
C276 C277 1.391 . S
C277 H265 0.950 . S
C277 C273 1.393 . S
C277 C276 1.391 . S
H278 C286 0.950 . S
H279 C291 0.950 . S
H280 C288 0.950 . S
H281 C290 0.950 . S
H282 C292 0.950 . S
H283 C294 0.950 . S
H284 C296 0.950 . S
H285 C297 0.950 . S
C286 H278 0.950 . S
C286 C287 1.386 . S
C286 C288 1.391 . S
C287 C286 1.386 . S
C287 C291 1.393 . S
C288 H280 0.950 . S
C288 C286 1.391 . S
C288 C289 1.400 . S
C289 C288 1.400 . S
C289 C290 1.398 . S
C289 C295 1.491 . S
C290 H281 0.950 . S
C290 C289 1.398 . S
C290 C291 1.391 . S
C291 H279 0.950 . S
C291 C287 1.393 . S
C291 C290 1.391 . S
C292 H282 0.950 . S
C292 C293 1.386 . S
C292 C294 1.391 . S
C293 C292 1.386 . S
C293 C297 1.393 . S
C294 H283 0.950 . S
C294 C292 1.391 . S
C294 C295 1.400 . S
C295 C289 1.491 . S
C295 C294 1.400 . S
C295 C296 1.398 . S
C296 H284 0.950 . S
C296 C295 1.398 . S
C296 C297 1.391 . S
C297 H285 0.950 . S
C297 C293 1.393 . S
C297 C296 1.391 . S
H298 C306 0.950 . S
H299 C311 0.950 . S
H300 C308 0.950 . S
H301 C310 0.950 . S
H302 C312 0.950 . S
H303 C314 0.950 . S
H304 C316 0.950 . S
H305 C317 0.950 . S
C306 H298 0.950 . S
C306 C307 1.386 . S
C306 C308 1.391 . S
C307 C306 1.386 . S
C307 C311 1.393 . S
C308 H300 0.950 . S
C308 C306 1.391 . S
C308 C309 1.400 . S
C309 C308 1.400 . S
C309 C310 1.398 . S
C309 C315 1.491 . S
C310 H301 0.950 . S
C310 C309 1.398 . S
C310 C311 1.391 . S
C311 H299 0.950 . S
C311 C307 1.393 . S
C311 C310 1.391 . S
C312 H302 0.950 . S
C312 C313 1.386 . S
C312 C314 1.391 . S
C313 C312 1.386 . S
C313 C317 1.393 . S
C314 H303 0.950 . S
C314 C312 1.391 . S
C314 C315 1.400 . S
C315 C309 1.491 . S
C315 C314 1.400 . S
C315 C316 1.398 . S
C316 H304 0.950 . S
C316 C315 1.398 . S
C316 C317 1.391 . S
C317 H305 0.950 . S
C317 C313 1.393 . S
C317 C316 1.391 . S
H318 C326 0.950 . S
H319 C331 0.950 . S
H320 C328 0.950 . S
H321 C330 0.950 . S
H322 C332 0.950 . S
H323 C334 0.950 . S
H324 C336 0.950 . S
H325 C337 0.950 . S
C326 H318 0.950 . S
C326 C327 1.386 . S
C326 C328 1.391 . S
C327 C326 1.386 . S
C327 C331 1.393 . S
C328 H320 0.950 . S
C328 C326 1.391 . S
C328 C329 1.400 . S
C329 C328 1.400 . S
C329 C330 1.398 . S
C329 C335 1.491 . S
C330 H321 0.950 . S
C330 C329 1.398 . S
C330 C331 1.391 . S
C331 H319 0.950 . S
C331 C327 1.393 . S
C331 C330 1.391 . S
C332 H322 0.950 . S
C332 C333 1.386 . S
C332 C334 1.391 . S
C333 C332 1.386 . S
C333 C337 1.393 . S
C334 H323 0.950 . S
C334 C332 1.391 . S
C334 C335 1.400 . S
C335 C329 1.491 . S
C335 C334 1.400 . S
C335 C336 1.398 . S
C336 H324 0.950 . S
C336 C335 1.398 . S
C336 C337 1.391 . S
C337 H325 0.950 . S
C337 C333 1.393 . S
C337 C336 1.391 . S
H338 C346 0.950 . S
H339 C351 0.950 . S
H340 C348 0.950 . S
H341 C350 0.950 . S
H342 C352 0.950 . S
H343 C354 0.950 . S
H344 C356 0.950 . S
H345 C357 0.950 . S
C346 H338 0.950 . S
C346 C347 1.386 . S
C346 C348 1.391 . S
C347 C346 1.386 . S
C347 C351 1.393 . S
C348 H340 0.950 . S
C348 C346 1.391 . S
C348 C349 1.400 . S
C349 C348 1.400 . S
C349 C350 1.398 . S
C349 C355 1.491 . S
C350 H341 0.950 . S
C350 C349 1.398 . S
C350 C351 1.391 . S
C351 H339 0.950 . S
C351 C347 1.393 . S
C351 C350 1.391 . S
C352 H342 0.950 . S
C352 C353 1.386 . S
C352 C354 1.391 . S
C353 C352 1.386 . S
C353 C357 1.393 . S
C354 H343 0.950 . S
C354 C352 1.391 . S
C354 C355 1.400 . S
C355 C349 1.491 . S
C355 C354 1.400 . S
C355 C356 1.398 . S
C356 H344 0.950 . S
C356 C355 1.398 . S
C356 C357 1.391 . S
C357 H345 0.950 . S
C357 C353 1.393 . S
C357 C356 1.391 . S
H358 C366 0.950 . S
H359 C371 0.950 . S
H360 C368 0.950 . S
H361 C370 0.950 . S
H362 C372 0.950 . S
H363 C374 0.950 . S
H364 C376 0.950 . S
H365 C377 0.950 . S
C366 H358 0.950 . S
C366 C367 1.386 . S
C366 C368 1.391 . S
C367 C366 1.386 . S
C367 C371 1.393 . S
C368 H360 0.950 . S
C368 C366 1.391 . S
C368 C369 1.400 . S
C369 C368 1.400 . S
C369 C370 1.398 . S
C369 C375 1.491 . S
C370 H361 0.950 . S
C370 C369 1.398 . S
C370 C371 1.391 . S
C371 H359 0.950 . S
C371 C367 1.393 . S
C371 C370 1.391 . S
C372 H362 0.950 . S
C372 C373 1.386 . S
C372 C374 1.391 . S
C373 C372 1.386 . S
C373 C377 1.393 . S
C374 H363 0.950 . S
C374 C372 1.391 . S
C374 C375 1.400 . S
C375 C369 1.491 . S
C375 C374 1.400 . S
C375 C376 1.398 . S
C376 H364 0.950 . S
C376 C375 1.398 . S
C376 C377 1.391 . S
C377 H365 0.950 . S
C377 C373 1.393 . S
C377 C376 1.391 . S
H378 C386 0.950 . S
H379 C391 0.950 . S
H380 C388 0.950 . S
H381 C390 0.950 . S
H382 C392 0.950 . S
H383 C394 0.950 . S
H384 C396 0.950 . S
H385 C397 0.950 . S
C386 H378 0.950 . S
C386 C387 1.386 . S
C386 C388 1.391 . S
C387 C386 1.386 . S
C387 C391 1.393 . S
C388 H380 0.950 . S
C388 C386 1.391 . S
C388 C389 1.400 . S
C389 C388 1.400 . S
C389 C390 1.398 . S
C389 C395 1.491 . S
C390 H381 0.950 . S
C390 C389 1.398 . S
C390 C391 1.391 . S
C391 H379 0.950 . S
C391 C387 1.393 . S
C391 C390 1.391 . S
C392 H382 0.950 . S
C392 C393 1.386 . S
C392 C394 1.391 . S
C393 C392 1.386 . S
C393 C397 1.393 . S
C394 H383 0.950 . S
C394 C392 1.391 . S
C394 C395 1.400 . S
C395 C389 1.491 . S
C395 C394 1.400 . S
C395 C396 1.398 . S
C396 H384 0.950 . S
C396 C395 1.398 . S
C396 C397 1.391 . S
C397 H385 0.950 . S
C397 C393 1.393 . S
C397 C396 1.391 . S
H398 C406 0.950 . S
H399 C411 0.950 . S
H400 C408 0.950 . S
H401 C410 0.950 . S
H402 C412 0.950 . S
H403 C414 0.950 . S
H404 C416 0.950 . S
H405 C417 0.950 . S
C406 H398 0.950 . S
C406 C407 1.386 . S
C406 C408 1.391 . S
C407 C406 1.386 . S
C407 C411 1.393 . S
C408 H400 0.950 . S
C408 C406 1.391 . S
C408 C409 1.400 . S
C409 C408 1.400 . S
C409 C410 1.398 . S
C409 C415 1.491 . S
C410 H401 0.950 . S
C410 C409 1.398 . S
C410 C411 1.391 . S
C411 H399 0.950 . S
C411 C407 1.393 . S
C411 C410 1.391 . S
C412 H402 0.950 . S
C412 C413 1.386 . S
C412 C414 1.391 . S
C413 C412 1.386 . S
C413 C417 1.393 . S
C414 H403 0.950 . S
C414 C412 1.391 . S
C414 C415 1.400 . S
C415 C409 1.491 . S
C415 C414 1.400 . S
C415 C416 1.398 . S
C416 H404 0.950 . S
C416 C415 1.398 . S
C416 C417 1.391 . S
C417 H405 0.950 . S
C417 C413 1.393 . S
C417 C416 1.391 . S
H418 C426 0.950 . S
H419 C431 0.950 . S
H420 C428 0.950 . S
H421 C430 0.950 . S
H422 C432 0.950 . S
H423 C434 0.950 . S
H424 C436 0.950 . S
H425 C437 0.950 . S
C426 H418 0.950 . S
C426 C427 1.386 . S
C426 C428 1.391 . S
C427 C426 1.386 . S
C427 C431 1.393 . S
C428 H420 0.950 . S
C428 C426 1.391 . S
C428 C429 1.400 . S
C429 C428 1.400 . S
C429 C430 1.398 . S
C429 C435 1.491 . S
C430 H421 0.950 . S
C430 C429 1.398 . S
C430 C431 1.391 . S
C431 H419 0.950 . S
C431 C427 1.393 . S
C431 C430 1.391 . S
C432 H422 0.950 . S
C432 C433 1.386 . S
C432 C434 1.391 . S
C433 C432 1.386 . S
C433 C437 1.393 . S
C434 H423 0.950 . S
C434 C432 1.391 . S
C434 C435 1.400 . S
C435 C429 1.491 . S
C435 C434 1.400 . S
C435 C436 1.398 . S
C436 H424 0.950 . S
C436 C435 1.398 . S
C436 C437 1.391 . S
C437 H425 0.950 . S
C437 C433 1.393 . S
C437 C436 1.391 . S
H438 C446 0.950 . S
H439 C451 0.950 . S
H440 C448 0.950 . S
H441 C450 0.950 . S
H442 C452 0.950 . S
H443 C454 0.950 . S
H444 C456 0.947 1_655 S
H445 C457 0.950 1_655 S
C446 H438 0.950 . S
C446 C447 1.386 1_655 S
C446 C448 1.391 . S
C447 C446 1.386 1_455 S
C447 C451 1.393 . S
C448 H440 0.950 . S
C448 C446 1.391 . S
C448 C449 1.400 1_655 S
C449 C448 1.400 1_455 S
C449 C450 1.398 . S
C449 C455 1.491 1_554 S
C450 H441 0.950 . S
C450 C449 1.398 . S
C450 C451 1.391 . S
C451 H439 0.950 . S
C451 C447 1.393 . S
C451 C450 1.391 . S
C452 H442 0.950 . S
C452 C453 1.386 . S
C452 C454 1.391 . S
C453 C452 1.386 . S
C453 C457 1.393 . S
C454 H443 0.950 . S
C454 C452 1.391 . S
C454 C455 1.400 . S
C455 C449 1.491 1_556 S
C455 C454 1.400 . S
C455 C456 1.401 . S
C456 H444 0.947 1_455 S
C456 C455 1.401 . S
C456 C457 1.391 . S
C457 H445 0.950 1_455 S
C457 C453 1.393 . S
C457 C456 1.391 . S
H458 C466 0.950 . S
H459 C471 0.950 . S
H460 C468 0.950 . S
H461 C470 0.950 1_565 S
H462 C472 0.970 . S
H463 C474 0.950 1_565 S
H464 C476 0.950 . S
H465 C477 0.950 . S
C466 H458 0.950 . S
C466 C467 1.386 . S
C466 C468 1.391 . S
C467 C466 1.386 . S
C467 C471 1.393 . S
C468 H460 0.950 . S
C468 C466 1.391 . S
C468 C469 1.400 . S
C469 C468 1.400 . S
C469 C470 1.398 . S
C469 C475 1.491 . S
C470 H461 0.950 1_545 S
C470 C469 1.398 . S
C470 C471 1.391 . S
C471 H459 0.950 . S
C471 C467 1.393 . S
C471 C470 1.391 . S
C472 H462 0.970 . S
C472 C473 1.368 1_565 S
C472 C474 1.389 1_565 S
C473 C472 1.368 1_545 S
C473 C477 1.393 . S
C474 H463 0.950 1_545 S
C474 C472 1.389 1_545 S
C474 C475 1.400 . S
C475 C469 1.491 . S
C475 C474 1.400 . S
C475 C476 1.398 . S
C476 H464 0.950 . S
C476 C475 1.398 . S
C476 C477 1.391 . S
C477 H465 0.950 . S
C477 C473 1.393 . S
C477 C476 1.391 . S
H478 C486 0.950 . S
H479 C491 0.950 . S
H480 C488 0.950 . S
H481 C490 0.950 . S
H482 C492 0.950 . S
H483 C494 0.950 . S
H484 C496 0.950 . S
H485 C497 0.950 . S
C486 H478 0.950 . S
C486 C487 1.386 . S
C486 C488 1.391 . S
C487 C486 1.386 . S
C487 C491 1.393 . S
C488 H480 0.950 . S
C488 C486 1.391 . S
C488 C489 1.400 . S
C489 C488 1.400 . S
C489 C490 1.398 . S
C489 C495 1.491 . S
C490 H481 0.950 . S
C490 C489 1.398 . S
C490 C491 1.391 . S
C491 H479 0.950 . S
C491 C487 1.393 . S
C491 C490 1.391 . S
C492 H482 0.950 . S
C492 C493 1.386 . S
C492 C494 1.391 . S
C493 C492 1.386 . S
C493 C497 1.393 . S
C494 H483 0.950 . S
C494 C492 1.391 . S
C494 C495 1.400 . S
C495 C489 1.491 . S
C495 C494 1.400 . S
C495 C496 1.398 . S
C496 H484 0.950 . S
C496 C495 1.398 . S
C496 C497 1.391 . S
C497 H485 0.950 . S
C497 C493 1.393 . S
C497 C496 1.391 . S
H498 C506 0.950 1_565 S
H499 C511 0.950 . S
H500 C508 0.950 1_565 S
H501 C510 0.950 . S
H502 C512 0.950 . S
H503 C514 0.950 . S
H504 C516 0.950 . S
H505 C517 0.950 . S
C506 H498 0.950 1_545 S
C506 C507 1.386 . S
C506 C508 1.391 . S
C507 C506 1.386 . S
C507 C511 1.393 . S
C508 H500 0.950 1_545 S
C508 C506 1.391 . S
C508 C509 1.400 . S
C509 C508 1.400 . S
C509 C510 1.398 . S
C509 C515 1.491 . S
C510 H501 0.950 . S
C510 C509 1.398 . S
C510 C511 1.391 . S
C511 H499 0.950 . S
C511 C507 1.393 . S
C511 C510 1.391 . S
C512 H502 0.950 . S
C512 C513 1.386 . S
C512 C514 1.391 . S
C513 C512 1.386 . S
C513 C517 1.393 1_545 S
C514 H503 0.950 . S
C514 C512 1.391 . S
C514 C515 1.400 . S
C515 C509 1.491 . S
C515 C514 1.400 . S
C515 C516 1.398 1_545 S
C516 H504 0.950 . S
C516 C515 1.398 1_565 S
C516 C517 1.391 . S
C517 H505 0.950 . S
C517 C513 1.393 1_565 S
C517 C516 1.391 . S
H518 C526 0.950 . S
H519 C531 0.950 . S
H520 C528 0.950 . S
H521 C530 0.950 . S
H522 C532 0.950 . S
H523 C534 0.950 . S
H524 C536 0.950 . S
H525 C537 0.950 . S
C526 H518 0.950 . S
C526 C527 1.386 . S
C526 C528 1.391 . S
C527 C526 1.386 . S
C527 C531 1.393 . S
C528 H520 0.950 . S
C528 C526 1.391 . S
C528 C529 1.400 . S
C529 C528 1.400 . S
C529 C530 1.398 . S
C529 C535 1.491 1_556 S
C530 H521 0.950 . S
C530 C529 1.398 . S
C530 C531 1.391 . S
C531 H519 0.950 . S
C531 C527 1.393 . S
C531 C530 1.391 . S
C532 H522 0.950 . S
C532 C533 1.386 . S
C532 C534 1.391 . S
C533 C532 1.386 . S
C533 C537 1.393 . S
C534 H523 0.950 . S
C534 C532 1.391 . S
C534 C535 1.400 . S
C535 C529 1.491 1_554 S
C535 C534 1.400 . S
C535 C536 1.398 . S
C536 H524 0.950 . S
C536 C535 1.398 . S
C536 C537 1.391 . S
C537 H525 0.950 . S
C537 C533 1.393 . S
C537 C536 1.391 . S
H538 C546 0.950 . S
H539 C551 0.950 . S
H540 C548 0.950 . S
H541 C550 0.950 . S
H542 C552 0.950 . S
H543 C554 0.950 . S
H544 C556 0.950 . S
H545 C557 0.950 . S
C546 H538 0.950 . S
C546 C547 1.386 1_655 S
C546 C548 1.391 . S
C547 C546 1.386 1_455 S
C547 C551 1.393 . S
C548 H540 0.950 . S
C548 C546 1.391 . S
C548 C549 1.400 1_655 S
C549 C548 1.400 1_455 S
C549 C550 1.398 . S
C549 C555 1.491 . S
C550 H541 0.950 . S
C550 C549 1.398 . S
C550 C551 1.391 . S
C551 H539 0.950 . S
C551 C547 1.393 . S
C551 C550 1.391 . S
C552 H542 0.950 . S
C552 C553 1.386 . S
C552 C554 1.391 . S
C553 C552 1.386 . S
C553 C557 1.393 1_455 S
C554 H543 0.950 . S
C554 C552 1.391 . S
C554 C555 1.400 . S
C555 C549 1.491 . S
C555 C554 1.400 . S
C555 C556 1.398 1_455 S
C556 H544 0.950 . S
C556 C555 1.398 1_655 S
C556 C557 1.391 . S
C557 H545 0.950 . S
C557 C553 1.393 1_655 S
C557 C556 1.391 . S
C207 C9 0.318 . S
C213 N187 0.186 . S
C227 C49 0.285 . S
C233 N160 0.365 1_655 S
C247 C89 0.261 . S
C253 N173 0.272 . S
C267 C26 0.625 . S
C273 N186 0.584 . S
C293 N161 0.587 . S
C287 C66 0.637 . S
C313 N174 0.601 . S
C307 C106 0.677 . S
C327 C43 2.863 . S
C333 N134 2.862 . S
C347 C83 2.798 . S
C353 N148 2.739 . S
C367 C22 3.150 . S
C373 N122 3.111 . S
C393 N135 3.132 . S
C387 C62 3.154 . S
C413 N147 3.286 . S
C407 C102 3.273 . S
C427 C3 2.867 . S
C433 N121 2.869 . S
C453 N151 1.767 . S
C447 C15 1.758 . S
C467 C55 1.729 . S
C473 N125 1.778 . S
C487 C95 1.709 . S
C493 N138 1.773 . S
C513 N177 1.233 . S
C507 C42 1.242 . S
C533 N190 1.204 . S
C527 C82 1.197 . S
C547 C2 1.236 . S
C553 N164 1.224 . S
