# Generated by pormake.
# Topology tsx, (6,3)-cn, num edge types: 1
# Building blocks:
#     Node 0, Type 0, BuildingBlock: VOLQOD_clean_sbu_1, # of connection points: 6
#     Node 1, Type 0, BuildingBlock: VOLQOD_clean_sbu_1, # of connection points: 6
#     Node 2, Type 1, BuildingBlock: INOVEN_clean_linker_0, # of connection points: 3
#     Node 3, Type 1, BuildingBlock: INOVEN_clean_linker_0, # of connection points: 3
#     Node 4, Type 1, BuildingBlock: INOVEN_clean_linker_0, # of connection points: 3
#     Node 5, Type 1, BuildingBlock: INOVEN_clean_linker_0, # of connection points: 3
#     Edge 6, Type (0, 1), BuildingBlock: FUNLAD_clean_linker_1, # of connection points: 2
#     Edge 7, Type (0, 1), BuildingBlock: FUNLAD_clean_linker_1, # of connection points: 2
#     Edge 8, Type (0, 1), BuildingBlock: FUNLAD_clean_linker_1, # of connection points: 2
#     Edge 9, Type (0, 1), BuildingBlock: FUNLAD_clean_linker_1, # of connection points: 2
#     Edge 10, Type (0, 1), BuildingBlock: FUNLAD_clean_linker_1, # of connection points: 2
#     Edge 11, Type (0, 1), BuildingBlock: FUNLAD_clean_linker_1, # of connection points: 2
#     Edge 12, Type (0, 1), BuildingBlock: FUNLAD_clean_linker_1, # of connection points: 2
#     Edge 13, Type (0, 1), BuildingBlock: FUNLAD_clean_linker_1, # of connection points: 2
#     Edge 14, Type (0, 1), BuildingBlock: FUNLAD_clean_linker_1, # of connection points: 2
#     Edge 15, Type (0, 1), BuildingBlock: FUNLAD_clean_linker_1, # of connection points: 2
#     Edge 16, Type (0, 1), BuildingBlock: FUNLAD_clean_linker_1, # of connection points: 2
#     Edge 17, Type (0, 1), BuildingBlock: FUNLAD_clean_linker_1, # of connection points: 2
# Relax obj value: 0.049
# Max RMSD: 0.107
# Mean RMSD: 0.096
data_MOF--net-tsx--node1-VOLQOD_clean_sbu_1--node2-INOVEN_clean_linker_0--edge1-FUNLAD_clean_linker_1
_symmetry_space_group_name_H-M    P1
_symmetry_Int_Tables_number       1
_symmetry_cell_setting            triclinic
loop_
_symmetry_equiv_pos_as_xyz
'x, y, z'
_cell_length_a     22.01873
_cell_length_b     22.67125
_cell_length_c     39.02373
_cell_angle_alpha  90.349142
_cell_angle_beta   98.197292
_cell_angle_gamma 89.805996
loop_
_atom_site_label
_atom_site_type_symbol
_atom_site_fract_x
_atom_site_fract_y
_atom_site_fract_z
_atom_type_partial_charge
O0 O 0.08288 0.98517 0.07832 0.0
Zn1 Zn 0.08919 0.98418 0.02722 0.0
O2 O 0.00697 0.98195 1.00005 0.0
Zn3 Zn 0.99684 0.90744 0.97428 0.0
Zn4 Zn 0.944 0.98898 0.03055 0.0
Zn5 Zn 0.99765 0.04798 0.9678 0.0
O6 O 0.98182 0.92239 0.9227 0.0
O7 O 0.99169 0.01962 0.91856 0.0
O8 O 0.14102 0.91404 0.01678 0.0
O9 O 0.0742 0.85869 0.98271 0.0
O10 O 0.92733 0.85899 0.98813 0.0
O11 O 0.88986 0.91721 0.0262 0.0
O12 O 0.88868 0.05938 0.01887 0.0
O13 O 0.13342 0.05912 0.01789 0.0
O14 O 0.92272 0.09651 0.97267 0.0
O15 O 0.06823 0.10395 0.97754 0.0
C16 C 0.03822 0.99233 0.09538 0.0
C17 C 0.98381 0.96875 0.90463 0.0
C18 C 0.8886 0.86946 0.00873 0.0
C19 C 0.12767 0.86716 0.99915 0.0
C20 C 0.88529 0.09716 0.99471 0.0
C21 C 0.11878 0.10258 0.99781 0.0
O22 O 0.98299 0.99623 0.08041 0.0
O23 O 0.56201 0.49794 0.57411 0.0
Zn24 Zn 0.57208 0.5087 0.52403 0.0
O25 O 0.49217 0.51649 0.49509 0.0
Zn26 Zn 0.48313 0.45276 0.46061 0.0
Zn27 Zn 0.42644 0.51247 0.52399 0.0
Zn28 Zn 0.48727 0.59253 0.47162 0.0
O29 O 0.4667 0.4851 0.41192 0.0
O30 O 0.47866 0.58183 0.41994 0.0
O31 O 0.62181 0.44118 0.50869 0.0
O32 O 0.56081 0.40483 0.46328 0.0
O33 O 0.41623 0.39635 0.46924 0.0
O34 O 0.37611 0.43936 0.51229 0.0
O35 O 0.36977 0.58325 0.51747 0.0
O36 O 0.62207 0.58217 0.52177 0.0
O37 O 0.41451 0.63936 0.48194 0.0
O38 O 0.56183 0.64185 0.48689 0.0
C39 C 0.51598 0.50052 0.59044 0.0
C40 C 0.46905 0.53718 0.40003 0.0
C41 C 0.37741 0.39747 0.49048 0.0
C42 C 0.61131 0.4046 0.48367 0.0
C43 C 0.37202 0.63048 0.50025 0.0
C44 C 0.61192 0.63135 0.50642 0.0
O45 O 0.46162 0.50775 0.57475 0.0
H46 H 0.08376 0.02287 0.46395 0.0
H47 H 0.11795 0.9616 0.36392 0.0
H48 H 0.98932 0.10233 0.3716 0.0
N49 N 0.00094 0.10281 0.44163 0.0
N50 N 0.96192 0.13936 0.42882 0.0
C51 C 0.07542 0.02524 0.43596 0.0
C52 C 0.10616 0.98717 0.41557 0.0
C53 C 0.03332 0.06686 0.42034 0.0
C54 C 0.0224 0.0708 0.38395 0.0
C55 C 0.05354 0.03395 0.36325 0.0
C56 C 0.09541 0.99227 0.37939 0.0
H57 H 0.98058 0.96679 0.53874 0.0
H58 H 0.94137 0.90704 0.63742 0.0
H59 H 0.06105 0.0553 0.63194 0.0
N60 N 0.05303 0.05485 0.56254 0.0
N61 N 0.10352 0.07753 0.57352 0.0
C62 C 0.98647 0.97093 0.56672 0.0
C63 C 0.95574 0.93255 0.5863 0.0
C64 C 0.02481 0.01481 0.58305 0.0
C65 C 0.03221 0.02056 0.61934 0.0
C66 C 0.00057 0.9833 0.63927 0.0
C67 C 0.96331 0.93853 0.62249 0.0
H68 H 0.59003 0.48202 0.95881 0.0
H69 H 0.59979 0.4203 0.85514 0.0
H70 H 0.47856 0.56283 0.8724 0.0
N71 N 0.50594 0.56334 0.94228 0.0
N72 N 0.4605 0.59511 0.93263 0.0
C73 C 0.57549 0.48406 0.93117 0.0
C74 C 0.60015 0.44533 0.90835 0.0
C75 C 0.53122 0.52602 0.91848 0.0
C76 C 0.51251 0.53028 0.8825 0.0
C77 C 0.53822 0.49356 0.85932 0.0
C78 C 0.58152 0.45081 0.87257 0.0
H79 H 0.42588 0.49906 0.03234 0.0
H80 H 0.3604 0.43898 0.12485 0.0
H81 H 0.47836 0.59032 0.12866 0.0
N82 N 0.49203 0.58782 0.0617 0.0
N83 N 0.5418 0.60674 0.07691 0.0
C84 C 0.42302 0.50398 0.05972 0.0
C85 C 0.38813 0.46428 0.07615 0.0
C86 C 0.4558 0.54912 0.07869 0.0
C87 C 0.45358 0.55468 0.11443 0.0
C88 C 0.41883 0.51506 0.13127 0.0
C89 C 0.38569 0.47064 0.11177 0.0
H90 H 0.13596 0.19649 0.98969 0.0
C91 C 0.15687 0.15612 0.00082 0.0
H92 H 0.23366 0.11813 0.03116 0.0
H93 H 0.29168 0.40294 0.99539 0.0
H94 H 0.27967 0.37346 0.93501 0.0
H95 H 0.25407 0.27068 0.91761 0.0
H96 H 0.23849 0.19725 0.96053 0.0
C97 C 0.2129 0.15816 0.01956 0.0
C98 C 0.242 0.21594 0.03015 0.0
C99 C 0.25511 0.25723 0.00502 0.0
C100 C 0.27398 0.31544 0.0153 0.0
C101 C 0.28094 0.35724 0.98932 0.0
C102 C 0.27359 0.34104 0.95448 0.0
C103 C 0.25888 0.28326 0.94467 0.0
C104 C 0.24962 0.24167 0.96952 0.0
H105 H 0.38624 0.38934 0.03951 0.0
C106 C 0.35994 0.41236 0.05703 0.0
H107 H 0.27899 0.41464 0.07988 0.0
H108 H 0.22181 0.14737 0.08531 0.0
H109 H 0.24148 0.17432 0.14585 0.0
H110 H 0.28307 0.27221 0.16408 0.0
H111 H 0.30416 0.34393 0.12177 0.0
C112 C 0.30539 0.39098 0.06267 0.0
C113 C 0.28431 0.33084 0.05097 0.0
C114 C 0.27432 0.28846 0.07623 0.0
C115 C 0.25229 0.23131 0.0658 0.0
C116 C 0.23998 0.19095 0.09159 0.0
C117 C 0.25091 0.20586 0.12658 0.0
C118 C 0.27419 0.26097 0.13682 0.0
C119 C 0.28587 0.30189 0.11213 0.0
H120 H 0.16139 0.78339 0.98006 0.0
C121 C 0.17531 0.82253 0.99542 0.0
H122 H 0.25061 0.87056 0.02121 0.0
H123 H 0.35235 0.59661 0.99409 0.0
H124 H 0.29921 0.569 0.04183 0.0
H125 H 0.23866 0.64217 0.06965 0.0
H126 H 0.23031 0.74359 0.04949 0.0
C127 C 0.23511 0.83053 0.00723 0.0
C128 C 0.28172 0.78971 0.99599 0.0
C129 C 0.28775 0.7312 0.00868 0.0
C130 C 0.3241 0.68943 0.9932 0.0
C131 C 0.32677 0.6306 0.00534 0.0
C132 C 0.29629 0.61406 0.03271 0.0
C133 C 0.26204 0.65523 0.04832 0.0
C134 C 0.25743 0.71314 0.03645 0.0
H135 H 0.45749 0.63824 0.98245 0.0
C136 C 0.43516 0.63296 0.95589 0.0
H137 H 0.36365 0.65742 0.91739 0.0
H138 H 0.2863 0.90038 0.96872 0.0
H139 H 0.34475 0.93005 0.92355 0.0
H140 H 0.40964 0.85837 0.89757 0.0
H141 H 0.41622 0.7565 0.91652 0.0
C142 C 0.38356 0.66238 0.9444 0.0
C143 C 0.35521 0.70686 0.96546 0.0
C144 C 0.35313 0.76661 0.9548 0.0
C145 C 0.31637 0.80808 0.97007 0.0
C146 C 0.31378 0.86708 0.95816 0.0
C147 C 0.34715 0.88474 0.93226 0.0
C148 C 0.38362 0.84438 0.9176 0.0
C149 C 0.38675 0.78598 0.92862 0.0
H150 H 0.85285 0.77839 0.00711 0.0
C151 C 0.84323 0.82376 0.01378 0.0
H152 H 0.78262 0.88218 0.03402 0.0
H153 H 0.63597 0.62154 0.00879 0.0
H154 H 0.64592 0.63118 0.94812 0.0
H155 H 0.70086 0.71565 0.92751 0.0
H156 H 0.74782 0.78982 0.96775 0.0
C157 C 0.79197 0.83673 0.02737 0.0
C158 C 0.75137 0.79003 0.03831 0.0
C159 C 0.72063 0.74933 0.01404 0.0
C160 C 0.68493 0.70313 0.02554 0.0
C161 C 0.65996 0.65979 0.00126 0.0
C162 C 0.66594 0.6644 0.96633 0.0
C163 C 0.69715 0.71175 0.95477 0.0
C164 C 0.72433 0.7538 0.97821 0.0
H165 H 0.55606 0.67286 0.03882 0.0
C166 C 0.57727 0.64726 0.06084 0.0
H167 H 0.65604 0.62816 0.09563 0.0
H168 H 0.80586 0.85918 0.09205 0.0
H169 H 0.78961 0.854 0.15193 0.0
H170 H 0.71931 0.78041 0.17082 0.0
H171 H 0.66586 0.71093 0.13005 0.0
C172 C 0.63666 0.65427 0.07342 0.0
C173 C 0.6757 0.70076 0.06082 0.0
C174 C 0.70494 0.74264 0.08486 0.0
C175 C 0.74365 0.78652 0.07373 0.0
C176 C 0.77448 0.82595 0.0987 0.0
C177 C 0.76579 0.82339 0.1333 0.0
C178 C 0.72638 0.78188 0.14394 0.0
C179 C 0.69617 0.74197 0.12018 0.0
H180 H 0.80216 0.13943 0.00962 0.0
C181 C 0.83693 0.14276 0.99254 0.0
H182 H 0.87113 0.19369 0.95433 0.0
H183 H 0.58691 0.28997 0.92831 0.0
H184 H 0.56179 0.1924 0.90458 0.0
H185 H 0.6398 0.11335 0.90948 0.0
H186 H 0.74309 0.13116 0.93843 0.0
C187 C 0.83536 0.1883 0.97057 0.0
C188 C 0.78721 0.23467 0.96895 0.0
C189 C 0.72727 0.22349 0.95159 0.0
C190 C 0.68279 0.26947 0.9479 0.0
C191 C 0.62289 0.25699 0.93103 0.0
C192 C 0.60778 0.20112 0.91745 0.0
C193 C 0.65166 0.15659 0.92029 0.0
C194 C 0.71078 0.16738 0.93708 0.0
H195 H 0.66951 0.37766 0.90088 0.0
C196 C 0.64525 0.39824 0.92028 0.0
H197 H 0.63234 0.39454 0.97323 0.0
H198 H 0.89656 0.2695 0.00561 0.0
H199 H 0.92128 0.36712 0.02949 0.0
H200 H 0.8444 0.44719 0.02231 0.0
H201 H 0.74221 0.43014 0.99125 0.0
C202 C 0.65535 0.37677 0.95264 0.0
C203 C 0.69884 0.3268 0.96079 0.0
C204 C 0.7579 0.33732 0.97934 0.0
C205 C 0.80226 0.29123 0.98333 0.0
C206 C 0.86124 0.30307 0.00165 0.0
C207 C 0.87598 0.35885 0.01552 0.0
C208 C 0.83269 0.40394 0.01149 0.0
C209 C 0.77427 0.39359 0.9936 0.0
H210 H 0.64203 0.72382 0.50667 0.0
C211 C 0.65723 0.67903 0.51307 0.0
H212 H 0.73041 0.62449 0.53466 0.0
H213 H 0.83574 0.8994 0.51279 0.0
H214 H 0.80415 0.88413 0.45135 0.0
H215 H 0.75418 0.79138 0.42944 0.0
H216 H 0.73375 0.71426 0.46908 0.0
C217 C 0.71514 0.66913 0.52797 0.0
C218 C 0.7567 0.71897 0.53996 0.0
C219 C 0.77225 0.76164 0.51623 0.0
C220 C 0.80503 0.81318 0.52865 0.0
C221 C 0.81447 0.85776 0.50468 0.0
C222 C 0.79601 0.84981 0.46931 0.0
C223 C 0.76759 0.79775 0.457 0.0
C224 C 0.75569 0.75405 0.48005 0.0
H225 H 0.93375 0.86046 0.54812 0.0
C226 C 0.91705 0.88507 0.5689 0.0
H227 H 0.84528 0.89765 0.59858 0.0
H228 H 0.73565 0.645 0.59254 0.0
H229 H 0.77421 0.65652 0.65341 0.0
H230 H 0.83897 0.74149 0.67439 0.0
H231 H 0.86458 0.81591 0.63468 0.0
C232 C 0.86222 0.87221 0.57819 0.0
C233 C 0.82659 0.81949 0.56453 0.0
C234 C 0.81376 0.77529 0.58805 0.0
C235 C 0.77806 0.72538 0.57582 0.0
C236 C 0.76372 0.68321 0.60013 0.0
C237 C 0.78547 0.68929 0.63527 0.0
C238 C 0.8218 0.73717 0.64709 0.0
C239 C 0.83595 0.77975 0.62393 0.0
H240 H 0.64832 0.3323 0.45485 0.0
C241 C 0.65896 0.36201 0.47687 0.0
H242 H 0.72758 0.39113 0.51682 0.0
H243 H 0.81772 0.13059 0.45717 0.0
H244 H 0.73574 0.08841 0.48437 0.0
H245 H 0.66699 0.15201 0.51319 0.0
H246 H 0.67941 0.25844 0.51449 0.0
C247 C 0.71518 0.36039 0.49552 0.0
C248 C 0.76362 0.32137 0.48469 0.0
C249 C 0.75747 0.25916 0.48548 0.0
C250 C 0.79855 0.22241 0.46998 0.0
C251 C 0.7891 0.16061 0.46942 0.0
C252 C 0.742 0.13576 0.48484 0.0
C253 C 0.70319 0.17158 0.50099 0.0
C254 C 0.71057 0.23258 0.50136 0.0
H255 H 0.93615 0.16923 0.47789 0.0
C256 C 0.92836 0.174 0.44988 0.0
H257 H 0.87951 0.21627 0.40681 0.0
H258 H 0.79231 0.43868 0.48224 0.0
H259 H 0.87826 0.48063 0.45835 0.0
H260 H 0.95134 0.41669 0.43302 0.0
H261 H 0.93868 0.31033 0.43129 0.0
C262 C 0.88548 0.21109 0.43476 0.0
C263 C 0.84697 0.24802 0.4548 0.0
C264 C 0.85563 0.30993 0.45621 0.0
C265 C 0.81393 0.3467 0.47119 0.0
C266 C 0.82286 0.40857 0.47145 0.0
C267 C 0.87202 0.43327 0.4578 0.0
C268 C 0.91313 0.39728 0.44351 0.0
C269 C 0.90523 0.33633 0.4426 0.0
H270 H 0.35382 0.30329 0.48384 0.0
C271 C 0.33828 0.34548 0.4928 0.0
H272 H 0.27347 0.39036 0.51805 0.0
H273 H 0.17914 0.10762 0.49671 0.0
H274 H 0.17234 0.12323 0.43489 0.0
H275 H 0.20286 0.21819 0.41205 0.0
H276 H 0.24221 0.29745 0.451 0.0
C277 C 0.28858 0.34799 0.50911 0.0
C278 C 0.26143 0.29372 0.5219 0.0
C279 C 0.23519 0.24923 0.4987 0.0
C280 C 0.21364 0.19597 0.51183 0.0
C281 C 0.19262 0.15029 0.48818 0.0
C282 C 0.18904 0.15843 0.45259 0.0
C283 C 0.20654 0.21178 0.43974 0.0
C284 C 0.22946 0.25677 0.46239 0.0
H285 H 0.09958 0.14458 0.53387 0.0
C286 C 0.12895 0.12111 0.55414 0.0
H287 H 0.2159 0.11202 0.58312 0.0
H288 H 0.31152 0.369 0.57386 0.0
H289 H 0.31129 0.35657 0.6352 0.0
H290 H 0.26545 0.26837 0.65776 0.0
H291 H 0.21999 0.19198 0.61895 0.0
C292 C 0.18802 0.13578 0.56241 0.0
C293 C 0.21415 0.18924 0.54805 0.0
C294 C 0.239 0.23444 0.57118 0.0
C295 C 0.26357 0.28621 0.55814 0.0
C296 C 0.29044 0.32946 0.58202 0.0
C297 C 0.29102 0.3228 0.61749 0.0
C298 C 0.26529 0.27315 0.63016 0.0
C299 C 0.23952 0.22942 0.60746 0.0
H300 H 0.28304 0.66392 0.51269 0.0
C301 C 0.32309 0.67505 0.50068 0.0
H302 H 0.36674 0.74039 0.47449 0.0
H303 H 0.08855 0.83236 0.42324 0.0
H304 H 0.07752 0.7424 0.38887 0.0
H305 H 0.15734 0.66508 0.39676 0.0
H306 H 0.24804 0.6768 0.43933 0.0
C307 C 0.32619 0.7279 0.48563 0.0
C308 C 0.27507 0.77125 0.48318 0.0
C309 C 0.22268 0.76368 0.45786 0.0
C310 C 0.1777 0.80904 0.45246 0.0
C311 C 0.12505 0.80001 0.42759 0.0
C312 C 0.11796 0.74846 0.40784 0.0
C313 C 0.16282 0.70488 0.41235 0.0
C314 C 0.21467 0.71215 0.43699 0.0
H315 H 0.18134 0.92304 0.41442 0.0
C316 C 0.14893 0.9404 0.43059 0.0
H317 H 0.11397 0.92858 0.47812 0.0
H318 H 0.36658 0.79673 0.53613 0.0
H319 H 0.37666 0.88651 0.57087 0.0
H320 H 0.29951 0.96606 0.56056 0.0
H321 H 0.21169 0.95634 0.51549 0.0
C322 C 0.14609 0.91415 0.46112 0.0
C323 C 0.18634 0.86259 0.47149 0.0
C324 C 0.23659 0.86863 0.49823 0.0
C325 C 0.28118 0.8229 0.50402 0.0
C326 C 0.33164 0.83037 0.53052 0.0
C327 C 0.33787 0.88157 0.55066 0.0
C328 C 0.29441 0.92637 0.54486 0.0
C329 C 0.24431 0.92029 0.51892 0.0
H330 H 0.09842 0.98816 0.1456 0.0
C331 C 0.05173 0.99693 0.13342 0.0
H332 H 0.96203 0.02104 0.14149 0.0
H333 H 0.99656 0.9323 0.29651 0.0
H334 H 0.92165 0.86289 0.26858 0.0
H335 H 0.89239 0.86282 0.20516 0.0
H336 H 0.93816 0.93199 0.1693 0.0
C337 C 0.00912 0.01299 0.15317 0.0
C338 C 0.0239 0.01633 0.19157 0.0
C339 C 0.99571 0.97637 0.21223 0.0
C340 C 0.01208 0.97685 0.24884 0.0
C341 C 0.98492 0.93489 0.26869 0.0
C342 C 0.94204 0.8945 0.25297 0.0
C343 C 0.92561 0.89442 0.21727 0.0
C344 C 0.95217 0.93453 0.19699 0.0
H345 H 0.99397 0.05616 0.31429 0.0
C346 C 0.03797 0.03704 0.32492 0.0
H347 H 0.12123 0.0017 0.31217 0.0
H348 H 0.07986 0.10486 0.16012 0.0
H349 H 0.15419 0.1748 0.18813 0.0
H350 H 0.1848 0.1736 0.25144 0.0
H351 H 0.14067 0.10274 0.28716 0.0
C352 C 0.07515 0.01707 0.30285 0.0
C353 C 0.05596 0.01793 0.26474 0.0
C354 C 0.08315 0.05871 0.24417 0.0
C355 C 0.06651 0.05851 0.20758 0.0
C356 C 0.09239 0.10155 0.18785 0.0
C357 C 0.13478 0.14234 0.20365 0.0
C358 C 0.15193 0.14174 0.2393 0.0
C359 C 0.12638 0.1007 0.25948 0.0
H360 H 0.96886 0.91908 0.85533 0.0
C361 C 0.97886 0.9625 0.86669 0.0
H362 H 0.99791 0.05175 0.857 0.0
H363 H 0.05909 0.90373 0.71711 0.0
H364 H 0.14215 0.85863 0.75558 0.0
H365 H 0.15634 0.87995 0.81827 0.0
H366 H 0.08666 0.94547 0.84291 0.0
C367 C 0.98887 0.00784 0.84618 0.0
C368 C 0.98512 1.00024 0.80803 0.0
C369 C 0.02818 0.96409 0.79387 0.0
C370 C 0.02192 0.95425 0.7575 0.0
C371 C 0.06313 0.91485 0.74432 0.0
C372 C 0.11086 0.8883 0.76616 0.0
C373 C 0.11871 0.90011 0.80146 0.0
C374 C 0.07805 0.93752 0.8153 0.0
H375 H 0.04775 0.016 0.68982 0.0
C376 C 0.00795 0.99169 0.67747 0.0
H377 H 0.92402 0.95239 0.68556 0.0
H378 H 0.89635 0.07386 0.82668 0.0
H379 H 0.81657 0.12332 0.78792 0.0
H380 H 0.80859 0.10993 0.72466 0.0
H381 H 0.88011 0.04672 0.69977 0.0
C382 C 0.96673 0.97246 0.69722 0.0
C383 C 0.97453 0.98307 0.73524 0.0
C384 C 0.93282 0.0208 0.74934 0.0
C385 C 0.938 0.02925 0.78577 0.0
C386 C 0.89502 0.06637 0.79917 0.0
C387 C 0.84891 0.09499 0.77722 0.0
C388 C 0.84437 0.0874 0.74161 0.0
C389 C 0.88567 0.05083 0.72768 0.0
H390 H 0.57416 0.48906 0.64079 0.0
C391 C 0.52726 0.49658 0.62855 0.0
H392 H 0.43541 0.51027 0.63688 0.0
H393 H 0.4796 0.39495 0.78639 0.0
H394 H 0.41181 0.32334 0.75436 0.0
H395 H 0.38222 0.33224 0.69125 0.0
H396 H 0.42001 0.41303 0.65969 0.0
C397 C 0.48282 0.50402 0.64852 0.0
C398 C 0.49699 0.50139 0.68698 0.0
C399 C 0.47346 0.45457 0.70507 0.0
C400 C 0.49048 0.44941 0.74151 0.0
C401 C 0.46768 0.40132 0.7588 0.0
C402 C 0.42885 0.3598 0.74071 0.0
C403 C 0.41216 0.36484 0.70516 0.0
C404 C 0.43415 0.41147 0.68739 0.0
H405 H 0.47285 0.51933 0.81314 0.0
C406 C 0.51753 0.49953 0.8215 0.0
H407 H 0.59905 0.46794 0.80462 0.0
H408 H 0.54226 0.60198 0.66127 0.0
H409 H 0.60981 0.67353 0.6934 0.0
H410 H 0.64225 0.66242 0.7562 0.0
H411 H 0.60678 0.57987 0.78729 0.0
C412 C 0.55243 0.48365 0.79733 0.0
C413 C 0.53073 0.49126 0.75976 0.0
C414 C 0.55274 0.53906 0.74187 0.0
C415 C 0.53516 0.54468 0.70553 0.0
C416 C 0.55587 0.59429 0.68861 0.0
C417 C 0.59427 0.63603 0.70681 0.0
C418 C 0.61246 0.62983 0.74217 0.0
C419 C 0.5919 0.58214 0.75967 0.0
H420 H 0.46742 0.59174 0.35333 0.0
C421 C 0.46284 0.54689 0.36234 0.0
H422 H 0.45166 0.45732 0.34771 0.0
H423 H 0.36636 0.60812 0.20153 0.0
H424 H 0.28215 0.64537 0.22937 0.0
H425 H 0.27456 0.62072 0.2901 0.0
H426 H 0.3517 0.55964 0.32352 0.0
C427 C 0.4541 0.50265 0.33912 0.0
C428 C 0.45494 0.5135 0.30159 0.0
C429 C 0.40803 0.54737 0.28205 0.0
C430 C 0.41082 0.55928 0.24655 0.0
C431 C 0.36518 0.59578 0.22815 0.0
C432 C 0.31679 0.61777 0.24389 0.0
C433 C 0.31265 0.60408 0.27811 0.0
C434 C 0.35752 0.56927 0.29708 0.0
H435 H 0.38063 0.49222 0.17889 0.0
C436 C 0.41683 0.51696 0.1692 0.0
H437 H 0.49906 0.56447 0.18431 0.0
H438 H 0.55275 0.44783 0.33167 0.0
H439 H 0.63478 0.40766 0.30322 0.0
H440 H 0.63705 0.42451 0.24104 0.0
H441 H 0.5576 0.48205 0.20699 0.0
C442 C 0.4596 0.54297 0.19242 0.0
C443 C 0.45892 0.53501 0.23023 0.0
C444 C 0.50556 0.50087 0.24971 0.0
C445 C 0.50367 0.49027 0.28543 0.0
C446 C 0.55135 0.45663 0.30435 0.0
C447 C 0.59884 0.43335 0.28836 0.0
C448 C 0.60016 0.4429 0.25337 0.0
C449 C 0.55422 0.47615 0.23414 0.0
loop_
_geom_bond_atom_site_label_1
_geom_bond_atom_site_label_2
_geom_bond_distance
_geom_bond_site_symmetry_2
_ccdc_geom_bond_type
O0 Zn1 1.953 . S
O0 C16 1.225 1_565 S
Zn1 O0 1.953 . S
Zn1 O2 1.949 1_565 S
Zn1 O8 1.919 . S
Zn1 O13 1.924 1_565 S
O2 Zn1 1.949 1_545 S
O2 Zn3 1.923 1_444 S
O2 Zn4 1.950 1_455 S
O2 Zn5 1.945 1_554 S
Zn3 O2 1.923 1_666 S
Zn3 O6 1.933 . S
Zn3 O9 1.941 1_655 S
Zn3 O10 1.965 . S
Zn4 O2 1.950 1_655 S
Zn4 O11 1.938 1_545 S
Zn4 O12 1.906 . S
Zn4 O22 1.953 . S
Zn5 O2 1.945 1_556 S
Zn5 O7 1.932 . S
Zn5 O14 1.977 1_455 S
Zn5 O15 1.910 . S
O6 Zn3 1.933 . S
O6 C17 1.226 1_665 S
O7 Zn5 1.932 . S
O7 C17 1.307 . S
O8 Zn1 1.919 . S
O8 C19 1.253 1_554 S
O9 Zn3 1.941 1_455 S
O9 C19 1.283 . S
O10 Zn3 1.965 . S
O10 C18 1.303 1_556 S
O11 Zn4 1.938 1_565 S
O11 C18 1.247 . S
O12 Zn4 1.906 . S
O12 C20 1.304 1_554 S
O13 Zn1 1.924 1_545 S
O13 C21 1.311 . S
O14 Zn5 1.977 1_655 S
O14 C20 1.272 . S
O15 Zn5 1.910 . S
O15 C21 1.231 1_556 S
C16 O0 1.225 1_545 S
C16 O22 1.298 1_455 S
C17 O6 1.226 1_445 S
C17 O7 1.307 . S
C18 O10 1.303 1_554 S
C18 O11 1.247 . S
C19 O8 1.253 1_556 S
C19 O9 1.283 . S
C20 O12 1.304 1_556 S
C20 O14 1.272 . S
C21 O13 1.311 . S
C21 O15 1.231 1_554 S
O22 Zn4 1.953 . S
O22 C16 1.298 1_655 S
O23 Zn24 1.953 . S
O23 C39 1.225 . S
Zn24 O23 1.953 . S
Zn24 O25 1.949 . S
Zn24 O31 1.919 . S
Zn24 O36 1.924 . S
O25 Zn24 1.949 . S
O25 Zn26 1.923 . S
O25 Zn27 1.950 . S
O25 Zn28 1.945 . S
Zn26 O25 1.923 . S
Zn26 O29 1.933 . S
Zn26 O32 1.941 . S
Zn26 O33 1.965 . S
Zn27 O25 1.950 . S
Zn27 O34 1.938 . S
Zn27 O35 1.906 . S
Zn27 O45 1.953 . S
Zn28 O25 1.945 . S
Zn28 O30 1.932 . S
Zn28 O37 1.977 . S
Zn28 O38 1.910 . S
O29 Zn26 1.933 . S
O29 C40 1.226 . S
O30 Zn28 1.932 . S
O30 C40 1.307 . S
O31 Zn24 1.919 . S
O31 C42 1.253 . S
O32 Zn26 1.941 . S
O32 C42 1.283 . S
O33 Zn26 1.965 . S
O33 C41 1.303 . S
O34 Zn27 1.938 . S
O34 C41 1.247 . S
O35 Zn27 1.906 . S
O35 C43 1.304 . S
O36 Zn24 1.924 . S
O36 C44 1.311 . S
O37 Zn28 1.977 . S
O37 C43 1.272 . S
O38 Zn28 1.910 . S
O38 C44 1.231 . S
C39 O23 1.225 . S
C39 O45 1.298 . S
C40 O29 1.226 . S
C40 O30 1.307 . S
C41 O33 1.303 . S
C41 O34 1.247 . S
C42 O31 1.253 . S
C42 O32 1.283 . S
C43 O35 1.304 . S
C43 O37 1.272 . S
C44 O36 1.311 . S
C44 O38 1.231 . S
O45 Zn27 1.953 . S
O45 C39 1.298 . S
H46 C51 0.929 . S
H47 C56 0.931 . S
H48 C54 0.930 . S
N49 N50 1.234 . S
N49 C53 1.453 . S
N50 N49 1.234 . S
C51 H46 0.929 . S
C51 C52 1.373 . S
C51 C53 1.368 1_465 S
C52 C51 1.373 . S
C52 C56 1.397 . S
C53 N49 1.453 . S
C53 C51 1.368 1_645 S
C53 C54 1.373 . S
C54 H48 0.930 . S
C54 C53 1.373 . S
C54 C55 1.371 1_655 S
C55 C54 1.371 1_455 S
C55 C56 1.383 1_545 S
C56 H47 0.931 . S
C56 C52 1.397 . S
C56 C55 1.383 1_565 S
H57 C62 0.929 . S
H58 C67 0.931 . S
H59 C65 0.930 . S
N60 N61 1.234 . S
N60 C64 1.453 . S
N61 N60 1.234 . S
C62 H57 0.929 . S
C62 C63 1.373 . S
C62 C64 1.368 1_665 S
C63 C62 1.373 . S
C63 C67 1.397 . S
C64 N60 1.453 . S
C64 C62 1.368 1_445 S
C64 C65 1.373 . S
C65 H59 0.930 . S
C65 C64 1.373 . S
C65 C66 1.360 1_455 S
C66 C65 1.360 1_655 S
C66 C67 1.394 1_545 S
C67 H58 0.931 . S
C67 C63 1.397 . S
C67 C66 1.394 1_565 S
H68 C73 0.929 . S
H69 C78 0.931 . S
H70 C76 0.930 . S
N71 N72 1.234 . S
N71 C75 1.453 . S
N72 N71 1.234 . S
C73 H68 0.929 . S
C73 C74 1.373 . S
C73 C75 1.368 . S
C74 C73 1.373 . S
C74 C78 1.397 . S
C75 N71 1.453 . S
C75 C73 1.368 . S
C75 C76 1.373 . S
C76 H70 0.930 . S
C76 C75 1.373 . S
C76 C77 1.371 . S
C77 C76 1.371 . S
C77 C78 1.383 . S
C78 H69 0.931 . S
C78 C74 1.397 . S
C78 C77 1.383 . S
H79 C84 0.929 . S
H80 C89 0.931 . S
H81 C87 0.930 . S
N82 N83 1.234 . S
N82 C86 1.453 . S
N83 N82 1.234 . S
C84 H79 0.929 . S
C84 C85 1.373 . S
C84 C86 1.368 . S
C85 C84 1.373 . S
C85 C89 1.397 . S
C86 N82 1.453 . S
C86 C84 1.368 . S
C86 C87 1.373 . S
C87 H81 0.930 . S
C87 C86 1.373 . S
C87 C88 1.371 . S
C88 C87 1.371 . S
C88 C89 1.383 . S
C89 H80 0.931 . S
C89 C85 1.397 . S
C89 C88 1.383 . S
H90 C91 0.951 . S
C91 H90 0.951 . S
C91 C97 1.265 . S
H92 C97 0.950 . S
H93 C101 0.949 . S
H94 C102 0.950 . S
H95 C103 0.951 . S
H96 C104 0.951 . S
C97 C91 1.265 . S
C97 H92 0.950 . S
C97 C98 1.478 . S
C98 C97 1.478 . S
C98 C99 1.397 . S
C98 C115 1.394 . S
C99 C98 1.397 . S
C99 C100 1.438 . S
C99 C104 1.429 1_554 S
C100 C99 1.438 . S
C100 C101 1.428 . S
C100 C113 1.394 . S
C101 H93 0.949 . S
C101 C100 1.428 . S
C101 C102 1.345 1_554 S
C102 H94 0.950 . S
C102 C101 1.345 1_556 S
C102 C103 1.424 . S
C103 H95 0.951 . S
C103 C102 1.424 . S
C103 C104 1.347 . S
C104 H96 0.951 . S
C104 C99 1.429 1_556 S
C104 C103 1.347 . S
H105 C106 0.951 . S
C106 H105 0.951 . S
C106 C112 1.265 . S
H107 C112 0.950 . S
H108 C116 0.949 . S
H109 C117 0.950 . S
H110 C118 0.951 . S
H111 C119 0.951 . S
C112 C106 1.265 . S
C112 H107 0.950 . S
C112 C113 1.478 . S
C113 C100 1.394 . S
C113 C112 1.478 . S
C113 C114 1.397 . S
C114 C113 1.397 . S
C114 C115 1.438 . S
C114 C119 1.429 . S
C115 C98 1.394 . S
C115 C114 1.438 . S
C115 C116 1.428 . S
C116 H108 0.949 . S
C116 C115 1.428 . S
C116 C117 1.345 . S
C117 H109 0.950 . S
C117 C116 1.345 . S
C117 C118 1.424 . S
C118 H110 0.951 . S
C118 C117 1.424 . S
C118 C119 1.347 . S
C119 H111 0.951 . S
C119 C114 1.429 . S
C119 C118 1.347 . S
H120 C121 0.951 . S
C121 H120 0.951 . S
C121 C127 1.265 . S
H122 C127 0.950 . S
H123 C131 0.949 . S
H124 C132 0.950 . S
H125 C133 0.951 . S
H126 C134 0.951 . S
C127 C121 1.265 . S
C127 H122 0.950 . S
C127 C128 1.478 . S
C128 C127 1.478 . S
C128 C129 1.408 . S
C128 C145 1.394 . S
C129 C128 1.408 . S
C129 C130 1.445 . S
C129 C134 1.410 1_556 S
C130 C129 1.445 . S
C130 C131 1.428 1_556 S
C130 C143 1.394 . S
C131 H123 0.949 . S
C131 C130 1.428 1_554 S
C131 C132 1.345 . S
C132 H124 0.950 . S
C132 C131 1.345 . S
C132 C133 1.424 . S
C133 H125 0.951 . S
C133 C132 1.424 . S
C133 C134 1.347 . S
C134 H126 0.951 . S
C134 C129 1.410 1_554 S
C134 C133 1.347 . S
H135 C136 0.951 . S
C136 H135 0.951 . S
C136 C142 1.265 . S
H137 C142 0.950 . S
H138 C146 0.949 . S
H139 C147 0.950 . S
H140 C148 0.951 . S
H141 C149 0.951 . S
C142 C136 1.265 . S
C142 H137 0.950 . S
C142 C143 1.478 . S
C143 C130 1.394 . S
C143 C142 1.478 . S
C143 C144 1.397 . S
C144 C143 1.397 . S
C144 C145 1.438 . S
C144 C149 1.429 . S
C145 C128 1.394 . S
C145 C144 1.438 . S
C145 C146 1.428 . S
C146 H138 0.949 . S
C146 C145 1.428 . S
C146 C147 1.345 . S
C147 H139 0.950 . S
C147 C146 1.345 . S
C147 C148 1.424 . S
C148 H140 0.951 . S
C148 C147 1.424 . S
C148 C149 1.347 . S
C149 H141 0.951 . S
C149 C144 1.429 . S
C149 C148 1.347 . S
H150 C151 0.951 . S
C151 H150 0.951 . S
C151 C157 1.265 . S
H152 C157 0.950 . S
H153 C161 0.949 . S
H154 C162 0.950 . S
H155 C163 0.951 . S
H156 C164 0.951 . S
C157 C151 1.265 . S
C157 H152 0.950 . S
C157 C158 1.478 . S
C158 C157 1.478 . S
C158 C159 1.397 . S
C158 C175 1.394 . S
C159 C158 1.397 . S
C159 C160 1.438 . S
C159 C164 1.429 1_554 S
C160 C159 1.438 . S
C160 C161 1.428 1_554 S
C160 C173 1.394 . S
C161 H153 0.949 . S
C161 C160 1.428 1_556 S
C161 C162 1.345 . S
C162 H154 0.950 . S
C162 C161 1.345 . S
C162 C163 1.424 . S
C163 H155 0.951 . S
C163 C162 1.424 . S
C163 C164 1.347 . S
C164 H156 0.951 . S
C164 C159 1.429 1_556 S
C164 C163 1.347 . S
H165 C166 0.951 . S
C166 H165 0.951 . S
C166 C172 1.265 . S
H167 C172 0.950 . S
H168 C176 0.949 . S
H169 C177 0.950 . S
H170 C178 0.951 . S
H171 C179 0.951 . S
C172 C166 1.265 . S
C172 H167 0.950 . S
C172 C173 1.478 . S
C173 C160 1.394 . S
C173 C172 1.478 . S
C173 C174 1.397 . S
C174 C173 1.397 . S
C174 C175 1.438 . S
C174 C179 1.429 . S
C175 C158 1.394 . S
C175 C174 1.438 . S
C175 C176 1.428 . S
C176 H168 0.949 . S
C176 C175 1.428 . S
C176 C177 1.345 . S
C177 H169 0.950 . S
C177 C176 1.345 . S
C177 C178 1.424 . S
C178 H170 0.951 . S
C178 C177 1.424 . S
C178 C179 1.347 . S
C179 H171 0.951 . S
C179 C174 1.429 . S
C179 C178 1.347 . S
H180 C181 0.951 . S
C181 H180 0.951 . S
C181 C187 1.265 . S
H182 C187 0.950 . S
H183 C191 0.949 . S
H184 C192 0.950 . S
H185 C193 0.951 . S
H186 C194 0.951 . S
C187 C181 1.265 . S
C187 H182 0.950 . S
C187 C188 1.478 . S
C188 C187 1.478 . S
C188 C189 1.397 . S
C188 C205 1.394 . S
C189 C188 1.397 . S
C189 C190 1.438 . S
C189 C194 1.429 . S
C190 C189 1.438 . S
C190 C191 1.428 . S
C190 C203 1.394 . S
C191 H183 0.949 . S
C191 C190 1.428 . S
C191 C192 1.345 . S
C192 H184 0.950 . S
C192 C191 1.345 . S
C192 C193 1.424 . S
C193 H185 0.951 . S
C193 C192 1.424 . S
C193 C194 1.347 . S
C194 H186 0.951 . S
C194 C189 1.429 . S
C194 C193 1.347 . S
H195 C196 0.951 . S
C196 H195 0.951 . S
C196 C202 1.265 . S
H197 C202 0.950 . S
H198 C206 0.951 1_554 S
H199 C207 0.950 . S
H200 C208 0.951 . S
H201 C209 0.951 . S
C202 C196 1.265 . S
C202 H197 0.950 . S
C202 C203 1.478 . S
C203 C190 1.394 . S
C203 C202 1.478 . S
C203 C204 1.397 . S
C204 C203 1.397 . S
C204 C205 1.438 . S
C204 C209 1.429 . S
C205 C188 1.394 . S
C205 C204 1.438 . S
C205 C206 1.436 . S
C206 H198 0.951 1_556 S
C206 C205 1.436 . S
C206 C207 1.335 1_556 S
C207 H199 0.950 . S
C207 C206 1.335 1_554 S
C207 C208 1.424 . S
C208 H200 0.951 . S
C208 C207 1.424 . S
C208 C209 1.347 1_554 S
C209 H201 0.951 . S
C209 C204 1.429 . S
C209 C208 1.347 1_556 S
H210 C211 0.951 . S
C211 H210 0.951 . S
C211 C217 1.265 . S
H212 C217 0.950 . S
H213 C221 0.949 . S
H214 C222 0.950 . S
H215 C223 0.951 . S
H216 C224 0.951 . S
C217 C211 1.265 . S
C217 H212 0.950 . S
C217 C218 1.478 . S
C218 C217 1.478 . S
C218 C219 1.397 . S
C218 C235 1.394 . S
C219 C218 1.397 . S
C219 C220 1.438 . S
C219 C224 1.429 . S
C220 C219 1.438 . S
C220 C221 1.428 . S
C220 C233 1.394 . S
C221 H213 0.949 . S
C221 C220 1.428 . S
C221 C222 1.345 . S
C222 H214 0.950 . S
C222 C221 1.345 . S
C222 C223 1.424 . S
C223 H215 0.951 . S
C223 C222 1.424 . S
C223 C224 1.347 . S
C224 H216 0.951 . S
C224 C219 1.429 . S
C224 C223 1.347 . S
H225 C226 0.951 . S
C226 H225 0.951 . S
C226 C232 1.265 . S
H227 C232 0.950 . S
H228 C236 0.949 . S
H229 C237 0.950 . S
H230 C238 0.951 . S
H231 C239 0.951 . S
C232 C226 1.265 . S
C232 H227 0.950 . S
C232 C233 1.478 . S
C233 C220 1.394 . S
C233 C232 1.478 . S
C233 C234 1.397 . S
C234 C233 1.397 . S
C234 C235 1.438 . S
C234 C239 1.429 . S
C235 C218 1.394 . S
C235 C234 1.438 . S
C235 C236 1.428 . S
C236 H228 0.949 . S
C236 C235 1.428 . S
C236 C237 1.345 . S
C237 H229 0.950 . S
C237 C236 1.345 . S
C237 C238 1.424 . S
C238 H230 0.951 . S
C238 C237 1.424 . S
C238 C239 1.347 . S
C239 H231 0.951 . S
C239 C234 1.429 . S
C239 C238 1.347 . S
H240 C241 0.951 . S
C241 H240 0.951 . S
C241 C247 1.265 . S
H242 C247 0.950 . S
H243 C251 0.949 . S
H244 C252 0.950 . S
H245 C253 0.951 . S
H246 C254 0.951 . S
C247 C241 1.265 . S
C247 H242 0.950 . S
C247 C248 1.478 . S
C248 C247 1.478 . S
C248 C249 1.397 . S
C248 C265 1.394 . S
C249 C248 1.397 . S
C249 C250 1.438 . S
C249 C254 1.429 . S
C250 C249 1.438 . S
C250 C251 1.428 . S
C250 C263 1.394 . S
C251 H243 0.949 . S
C251 C250 1.428 . S
C251 C252 1.345 . S
C252 H244 0.950 . S
C252 C251 1.345 . S
C252 C253 1.424 . S
C253 H245 0.951 . S
C253 C252 1.424 . S
C253 C254 1.347 . S
C254 H246 0.951 . S
C254 C249 1.429 . S
C254 C253 1.347 . S
H255 C256 0.951 . S
C256 H255 0.951 . S
C256 C262 1.265 . S
H257 C262 0.950 . S
H258 C266 0.949 . S
H259 C267 0.950 . S
H260 C268 0.951 . S
H261 C269 0.951 . S
C262 C256 1.265 . S
C262 H257 0.950 . S
C262 C263 1.478 . S
C263 C250 1.394 . S
C263 C262 1.478 . S
C263 C264 1.397 . S
C264 C263 1.397 . S
C264 C265 1.438 . S
C264 C269 1.429 . S
C265 C248 1.394 . S
C265 C264 1.438 . S
C265 C266 1.428 . S
C266 H258 0.949 . S
C266 C265 1.428 . S
C266 C267 1.345 . S
C267 H259 0.950 . S
C267 C266 1.345 . S
C267 C268 1.424 . S
C268 H260 0.951 . S
C268 C267 1.424 . S
C268 C269 1.347 . S
C269 H261 0.951 . S
C269 C264 1.429 . S
C269 C268 1.347 . S
H270 C271 0.951 . S
C271 H270 0.951 . S
C271 C277 1.265 . S
H272 C277 0.950 . S
H273 C281 0.949 . S
H274 C282 0.950 . S
H275 C283 0.951 . S
H276 C284 0.951 . S
C277 C271 1.265 . S
C277 H272 0.950 . S
C277 C278 1.478 . S
C278 C277 1.478 . S
C278 C279 1.397 . S
C278 C295 1.394 . S
C279 C278 1.397 . S
C279 C280 1.438 . S
C279 C284 1.429 . S
C280 C279 1.438 . S
C280 C281 1.428 . S
C280 C293 1.394 . S
C281 H273 0.949 . S
C281 C280 1.428 . S
C281 C282 1.345 . S
C282 H274 0.950 . S
C282 C281 1.345 . S
C282 C283 1.424 . S
C283 H275 0.951 . S
C283 C282 1.424 . S
C283 C284 1.347 . S
C284 H276 0.951 . S
C284 C279 1.429 . S
C284 C283 1.347 . S
H285 C286 0.951 . S
C286 H285 0.951 . S
C286 C292 1.265 . S
H287 C292 0.950 . S
H288 C296 0.949 . S
H289 C297 0.950 . S
H290 C298 0.951 . S
H291 C299 0.951 . S
C292 C286 1.265 . S
C292 H287 0.950 . S
C292 C293 1.478 . S
C293 C280 1.394 . S
C293 C292 1.478 . S
C293 C294 1.397 . S
C294 C293 1.397 . S
C294 C295 1.438 . S
C294 C299 1.429 . S
C295 C278 1.394 . S
C295 C294 1.438 . S
C295 C296 1.428 . S
C296 H288 0.949 . S
C296 C295 1.428 . S
C296 C297 1.345 . S
C297 H289 0.950 . S
C297 C296 1.345 . S
C297 C298 1.424 . S
C298 H290 0.951 . S
C298 C297 1.424 . S
C298 C299 1.347 . S
C299 H291 0.951 . S
C299 C294 1.429 . S
C299 C298 1.347 . S
H300 C301 0.951 . S
C301 H300 0.951 . S
C301 C307 1.265 . S
H302 C307 0.950 . S
H303 C311 0.949 . S
H304 C312 0.950 . S
H305 C313 0.951 . S
H306 C314 0.951 . S
C307 C301 1.265 . S
C307 H302 0.950 . S
C307 C308 1.478 . S
C308 C307 1.478 . S
C308 C309 1.397 . S
C308 C325 1.394 . S
C309 C308 1.397 . S
C309 C310 1.438 . S
C309 C314 1.429 . S
C310 C309 1.438 . S
C310 C311 1.428 . S
C310 C323 1.394 . S
C311 H303 0.949 . S
C311 C310 1.428 . S
C311 C312 1.345 . S
C312 H304 0.950 . S
C312 C311 1.345 . S
C312 C313 1.424 . S
C313 H305 0.951 . S
C313 C312 1.424 . S
C313 C314 1.347 . S
C314 H306 0.951 . S
C314 C309 1.429 . S
C314 C313 1.347 . S
H315 C316 0.951 . S
C316 H315 0.951 . S
C316 C322 1.265 . S
H317 C322 0.950 . S
H318 C326 0.949 . S
H319 C327 0.950 . S
H320 C328 0.951 . S
H321 C329 0.951 . S
C322 C316 1.265 . S
C322 H317 0.950 . S
C322 C323 1.478 . S
C323 C310 1.394 . S
C323 C322 1.478 . S
C323 C324 1.397 . S
C324 C323 1.397 . S
C324 C325 1.438 . S
C324 C329 1.429 . S
C325 C308 1.394 . S
C325 C324 1.438 . S
C325 C326 1.428 . S
C326 H318 0.949 . S
C326 C325 1.428 . S
C326 C327 1.345 . S
C327 H319 0.950 . S
C327 C326 1.345 . S
C327 C328 1.424 . S
C328 H320 0.951 . S
C328 C327 1.424 . S
C328 C329 1.347 . S
C329 H321 0.951 . S
C329 C324 1.429 . S
C329 C328 1.347 . S
H330 C331 0.951 . S
C331 H330 0.951 . S
C331 C337 1.265 1_455 S
H332 C337 0.950 1_565 S
H333 C341 0.949 1_455 S
H334 C342 0.950 . S
H335 C343 0.951 . S
H336 C344 0.951 . S
C337 C331 1.265 1_655 S
C337 H332 0.950 1_545 S
C337 C338 1.478 1_655 S
C338 C337 1.478 1_455 S
C338 C339 1.397 1_445 S
C338 C355 1.394 . S
C339 C338 1.397 1_665 S
C339 C340 1.438 1_655 S
C339 C344 1.429 . S
C340 C339 1.438 1_455 S
C340 C341 1.428 1_455 S
C340 C353 1.394 1_565 S
C341 H333 0.949 1_655 S
C341 C340 1.428 1_655 S
C341 C342 1.345 . S
C342 H334 0.950 . S
C342 C341 1.345 . S
C342 C343 1.424 . S
C343 H335 0.951 . S
C343 C342 1.424 . S
C343 C344 1.347 . S
C344 H336 0.951 . S
C344 C339 1.429 . S
C344 C343 1.347 . S
H345 C346 0.951 1_665 S
C346 H345 0.951 1_445 S
C346 C352 1.265 . S
H347 C352 0.950 . S
H348 C356 0.949 . S
H349 C357 0.950 . S
H350 C358 0.951 . S
H351 C359 0.951 . S
C352 C346 1.265 . S
C352 H347 0.950 . S
C352 C353 1.478 . S
C353 C340 1.394 1_545 S
C353 C352 1.478 . S
C353 C354 1.397 . S
C354 C353 1.397 . S
C354 C355 1.438 . S
C354 C359 1.429 . S
C355 C338 1.394 . S
C355 C354 1.438 . S
C355 C356 1.428 . S
C356 H348 0.949 . S
C356 C355 1.428 . S
C356 C357 1.345 . S
C357 H349 0.950 . S
C357 C356 1.345 . S
C357 C358 1.424 . S
C358 H350 0.951 . S
C358 C357 1.424 . S
C358 C359 1.347 . S
C359 H351 0.951 . S
C359 C354 1.429 . S
C359 C358 1.347 . S
H360 C361 0.951 . S
C361 H360 0.951 . S
C361 C367 1.265 1_655 S
H362 C367 0.952 . S
H363 C371 0.949 . S
H364 C372 0.950 . S
H365 C373 0.951 . S
H366 C374 0.951 . S
C367 C361 1.265 1_455 S
C367 H362 0.952 . S
C367 C368 1.478 . S
C368 C367 1.478 . S
C368 C369 1.397 1_545 S
C368 C385 1.394 1_455 S
C369 C368 1.397 1_565 S
C369 C370 1.438 . S
C369 C374 1.429 . S
C370 C369 1.438 . S
C370 C371 1.428 . S
C370 C383 1.394 1_465 S
C371 H363 0.949 . S
C371 C370 1.428 . S
C371 C372 1.345 . S
C372 H364 0.950 . S
C372 C371 1.345 . S
C372 C373 1.424 . S
C373 H365 0.951 . S
C373 C372 1.424 . S
C373 C374 1.347 . S
C374 H366 0.951 . S
C374 C369 1.429 . S
C374 C373 1.347 . S
H375 C376 0.951 . S
C376 H375 0.951 . S
C376 C382 1.265 1_455 S
H377 C382 0.950 . S
H378 C386 0.949 . S
H379 C387 0.950 . S
H380 C388 0.951 . S
H381 C389 0.951 . S
C382 C376 1.265 1_655 S
C382 H377 0.950 . S
C382 C383 1.478 . S
C383 C370 1.394 1_645 S
C383 C382 1.478 . S
C383 C384 1.397 . S
C384 C383 1.397 . S
C384 C385 1.438 . S
C384 C389 1.429 . S
C385 C368 1.394 1_655 S
C385 C384 1.438 . S
C385 C386 1.428 . S
C386 H378 0.949 . S
C386 C385 1.428 . S
C386 C387 1.345 . S
C387 H379 0.950 . S
C387 C386 1.345 . S
C387 C388 1.424 . S
C388 H380 0.951 . S
C388 C387 1.424 . S
C388 C389 1.347 . S
C389 H381 0.951 . S
C389 C384 1.429 . S
C389 C388 1.347 . S
H390 C391 0.951 . S
C391 H390 0.951 . S
C391 C397 1.265 . S
H392 C397 0.950 . S
H393 C401 0.949 . S
H394 C402 0.950 . S
H395 C403 0.951 . S
H396 C404 0.951 . S
C397 C391 1.265 . S
C397 H392 0.950 . S
C397 C398 1.478 . S
C398 C397 1.478 . S
C398 C399 1.397 . S
C398 C415 1.394 . S
C399 C398 1.397 . S
C399 C400 1.438 . S
C399 C404 1.429 . S
C400 C399 1.438 . S
C400 C401 1.428 . S
C400 C413 1.394 . S
C401 H393 0.949 . S
C401 C400 1.428 . S
C401 C402 1.345 . S
C402 H394 0.950 . S
C402 C401 1.345 . S
C402 C403 1.424 . S
C403 H395 0.951 . S
C403 C402 1.424 . S
C403 C404 1.347 . S
C404 H396 0.951 . S
C404 C399 1.429 . S
C404 C403 1.347 . S
H405 C406 0.951 . S
C406 H405 0.951 . S
C406 C412 1.265 . S
H407 C412 0.950 . S
H408 C416 0.949 . S
H409 C417 0.950 . S
H410 C418 0.951 . S
H411 C419 0.951 . S
C412 C406 1.265 . S
C412 H407 0.950 . S
C412 C413 1.478 . S
C413 C400 1.394 . S
C413 C412 1.478 . S
C413 C414 1.397 . S
C414 C413 1.397 . S
C414 C415 1.438 . S
C414 C419 1.429 . S
C415 C398 1.394 . S
C415 C414 1.438 . S
C415 C416 1.428 . S
C416 H408 0.949 . S
C416 C415 1.428 . S
C416 C417 1.345 . S
C417 H409 0.950 . S
C417 C416 1.345 . S
C417 C418 1.424 . S
C418 H410 0.951 . S
C418 C417 1.424 . S
C418 C419 1.347 . S
C419 H411 0.951 . S
C419 C414 1.429 . S
C419 C418 1.347 . S
H420 C421 0.951 . S
C421 H420 0.951 . S
C421 C427 1.265 . S
H422 C427 0.950 . S
H423 C431 0.949 . S
H424 C432 0.950 . S
H425 C433 0.951 . S
H426 C434 0.951 . S
C427 C421 1.265 . S
C427 H422 0.950 . S
C427 C428 1.478 . S
C428 C427 1.478 . S
C428 C429 1.397 . S
C428 C445 1.394 . S
C429 C428 1.397 . S
C429 C430 1.438 . S
C429 C434 1.429 . S
C430 C429 1.438 . S
C430 C431 1.428 . S
C430 C443 1.394 . S
C431 H423 0.949 . S
C431 C430 1.428 . S
C431 C432 1.345 . S
C432 H424 0.950 . S
C432 C431 1.345 . S
C432 C433 1.424 . S
C433 H425 0.951 . S
C433 C432 1.424 . S
C433 C434 1.347 . S
C434 H426 0.951 . S
C434 C429 1.429 . S
C434 C433 1.347 . S
H435 C436 0.951 . S
C436 H435 0.951 . S
C436 C442 1.265 . S
H437 C442 0.950 . S
H438 C446 0.949 . S
H439 C447 0.950 . S
H440 C448 0.951 . S
H441 C449 0.951 . S
C442 C436 1.265 . S
C442 H437 0.950 . S
C442 C443 1.478 . S
C443 C430 1.394 . S
C443 C442 1.478 . S
C443 C444 1.397 . S
C444 C443 1.397 . S
C444 C445 1.438 . S
C444 C449 1.429 . S
C445 C428 1.394 . S
C445 C444 1.438 . S
C445 C446 1.428 . S
C446 H438 0.949 . S
C446 C445 1.428 . S
C446 C447 1.345 . S
C447 H439 0.950 . S
C447 C446 1.345 . S
C447 C448 1.424 . S
C448 H440 0.951 . S
C448 C447 1.424 . S
C448 C449 1.347 . S
C449 H441 0.951 . S
C449 C444 1.429 . S
C449 C448 1.347 . S
C106 C85 1.514 . S
C91 C21 1.525 . S
C121 C19 1.390 . S
C136 N72 1.380 . S
C151 C18 1.399 . S
C166 N83 1.358 . S
C181 C20 1.480 . S
C196 C74 1.478 . S
C211 C44 1.520 . S
C226 C63 1.507 . S
C241 C42 1.416 . S
C256 N50 1.416 . S
C286 N61 1.369 . S
C271 C41 1.400 . S
C316 C52 1.498 . S
C301 C43 1.505 . S
C331 C16 1.519 . S
C346 C55 1.518 . S
C361 C17 1.479 1_655 S
C376 C66 1.481 1_455 S
C406 C77 1.518 . S
C391 C39 1.519 . S
C421 C40 1.480 . S
C436 C88 1.466 . S
