# Generated by pormake.
# Topology ssa, (4,4)-cn, num edge types: 1
# Building blocks:
#     Node 0, Type 0, BuildingBlock: NAWXER_clean_sbu_0, # of connection points: 4
#     Node 1, Type 0, BuildingBlock: NAWXER_clean_sbu_0, # of connection points: 4
#     Node 2, Type 0, BuildingBlock: NAWXER_clean_sbu_0, # of connection points: 4
#     Node 3, Type 0, BuildingBlock: NAWXER_clean_sbu_0, # of connection points: 4
#     Node 4, Type 0, BuildingBlock: NAWXER_clean_sbu_0, # of connection points: 4
#     Node 5, Type 0, BuildingBlock: NAWXER_clean_sbu_0, # of connection points: 4
#     Node 6, Type 1, BuildingBlock: KUFVIS_clean_linker_0, # of connection points: 4
#     Node 7, Type 1, BuildingBlock: KUFVIS_clean_linker_0, # of connection points: 4
#     Node 8, Type 1, BuildingBlock: KUFVIS_clean_linker_0, # of connection points: 4
#     Node 9, Type 1, BuildingBlock: KUFVIS_clean_linker_0, # of connection points: 4
#     Node 10, Type 1, BuildingBlock: KUFVIS_clean_linker_0, # of connection points: 4
#     Node 11, Type 1, BuildingBlock: KUFVIS_clean_linker_0, # of connection points: 4
#     Edge 12, Type (0, 1), BuildingBlock: ZUJKAS_clean_linker_0, # of connection points: 2
#     Edge 13, Type (0, 1), BuildingBlock: ZUJKAS_clean_linker_0, # of connection points: 2
#     Edge 14, Type (0, 1), BuildingBlock: ZUJKAS_clean_linker_0, # of connection points: 2
#     Edge 15, Type (0, 1), BuildingBlock: ZUJKAS_clean_linker_0, # of connection points: 2
#     Edge 16, Type (0, 1), BuildingBlock: ZUJKAS_clean_linker_0, # of connection points: 2
#     Edge 17, Type (0, 1), BuildingBlock: ZUJKAS_clean_linker_0, # of connection points: 2
#     Edge 18, Type (0, 1), BuildingBlock: ZUJKAS_clean_linker_0, # of connection points: 2
#     Edge 19, Type (0, 1), BuildingBlock: ZUJKAS_clean_linker_0, # of connection points: 2
#     Edge 20, Type (0, 1), BuildingBlock: ZUJKAS_clean_linker_0, # of connection points: 2
#     Edge 21, Type (0, 1), BuildingBlock: ZUJKAS_clean_linker_0, # of connection points: 2
#     Edge 22, Type (0, 1), BuildingBlock: ZUJKAS_clean_linker_0, # of connection points: 2
#     Edge 23, Type (0, 1), BuildingBlock: ZUJKAS_clean_linker_0, # of connection points: 2
#     Edge 24, Type (0, 1), BuildingBlock: ZUJKAS_clean_linker_0, # of connection points: 2
#     Edge 25, Type (0, 1), BuildingBlock: ZUJKAS_clean_linker_0, # of connection points: 2
#     Edge 26, Type (0, 1), BuildingBlock: ZUJKAS_clean_linker_0, # of connection points: 2
#     Edge 27, Type (0, 1), BuildingBlock: ZUJKAS_clean_linker_0, # of connection points: 2
#     Edge 28, Type (0, 1), BuildingBlock: ZUJKAS_clean_linker_0, # of connection points: 2
#     Edge 29, Type (0, 1), BuildingBlock: ZUJKAS_clean_linker_0, # of connection points: 2
#     Edge 30, Type (0, 1), BuildingBlock: ZUJKAS_clean_linker_0, # of connection points: 2
#     Edge 31, Type (0, 1), BuildingBlock: ZUJKAS_clean_linker_0, # of connection points: 2
#     Edge 32, Type (0, 1), BuildingBlock: ZUJKAS_clean_linker_0, # of connection points: 2
#     Edge 33, Type (0, 1), BuildingBlock: ZUJKAS_clean_linker_0, # of connection points: 2
#     Edge 34, Type (0, 1), BuildingBlock: ZUJKAS_clean_linker_0, # of connection points: 2
#     Edge 35, Type (0, 1), BuildingBlock: ZUJKAS_clean_linker_0, # of connection points: 2
# Relax obj value: 0.007
# Max RMSD: 0.057
# Mean RMSD: 0.038
data_MOF--net-ssa--node1-NAWXER_clean_sbu_0--node2-KUFVIS_clean_linker_0--edge1-ZUJKAS_clean_linker_0
_symmetry_space_group_name_H-M    P1
_symmetry_Int_Tables_number       1
_symmetry_cell_setting            triclinic
loop_
_symmetry_equiv_pos_as_xyz
'x, y, z'
_cell_length_a     67.367805
_cell_length_b     67.451378
_cell_length_c     36.785062
_cell_angle_alpha  90.130463
_cell_angle_beta   90.003845
_cell_angle_gamma 120.00437
loop_
_atom_site_label
_atom_site_type_symbol
_atom_site_fract_x
_atom_site_fract_y
_atom_site_fract_z
_atom_type_partial_charge
C0 C 0.04329 0.54679 0.98218 0.0
C1 C 0.9919 0.46823 0.94007 0.0
O2 O 0.02976 0.53362 0.007 0.0
Zn3 Zn 1.00298 0.49852 0.01296 0.0
O4 O 0.04195 0.53887 0.9503 0.0
Zn5 Zn 0.01775 0.50775 0.96026 0.0
O6 O 0.98835 0.51164 0.96913 0.0
O7 O 0.97633 0.50112 0.02531 0.0
O8 O 1.00704 0.48496 0.92181 0.0
O9 O 0.98905 0.47119 0.97371 0.0
O10 O 0.01614 0.48766 0.04918 0.0
O11 O 0.03477 0.49638 0.99706 0.0
C12 C 0.97409 0.50847 0.99466 0.0
C13 C 0.03265 0.48941 0.03001 0.0
C14 C 0.48176 0.04046 0.49882 0.0
C15 C 0.50384 0.98498 0.45607 0.0
O16 O 0.47907 0.0253 0.52228 0.0
Zn17 Zn 0.48421 0.99679 0.52762 0.0
O18 O 0.4893 0.03993 0.46731 0.0
Zn19 Zn 0.49258 0.01296 0.4747 0.0
O20 O 0.45822 0.98557 0.48034 0.0
O21 O 0.45333 0.97078 0.53531 0.0
O22 O 0.50381 1.00062 0.43671 0.0
O23 O 0.49712 0.9825 0.48914 0.0
O24 O 0.50811 0.00792 0.5651 0.0
O25 O 0.52025 0.02568 0.5125 0.0
C26 C 0.44537 0.97068 0.50386 0.0
C27 C 0.5243 0.02274 0.54546 0.0
C28 C 0.50035 0.462 0.01533 0.0
C29 C 0.52137 0.54012 0.0508 0.0
O30 O 0.49799 0.47341 0.98947 0.0
Zn31 Zn 0.50377 0.50746 0.98025 0.0
O32 O 0.5079 0.47155 0.04602 0.0
Zn33 Zn 0.51146 0.50106 0.0335 0.0
O34 O 0.47658 0.49304 0.0248 0.0
O35 O 0.47333 0.50182 0.96814 0.0
O36 O 0.52199 0.52486 0.07019 0.0
O37 O 0.51515 0.5357 0.01743 0.0
O38 O 0.52745 0.51891 0.94318 0.0
O39 O 0.53957 0.51384 0.9961 0.0
C40 C 0.46433 0.49423 -0.00091 0.0
C41 C 0.54348 0.51978 0.96262 0.0
C42 C 0.03849 0.542 0.45079 0.0
C43 C 0.98026 0.46448 0.48614 0.0
O44 O 0.04074 0.53721 0.48372 0.0
Zn45 Zn 0.024 0.50885 0.52045 0.0
O46 O 0.02204 0.52715 0.43157 0.0
Zn47 Zn 1.00908 0.50318 0.46771 0.0
O48 O 0.99517 0.5165 0.507 0.0
O49 O 0.01328 0.52087 0.55893 0.0
O50 O 0.98242 0.47395 0.45542 0.0
O51 O 0.9946 0.47562 0.51161 0.0
O52 O 0.04827 0.50198 0.53032 0.0
O53 O 0.03586 0.49487 0.47368 0.0
C54 C 0.99806 0.52235 0.54063 0.0
C55 C 0.04947 0.49528 0.49847 0.0
C56 C 0.54212 0.98743 0.04912 0.0
C57 C 0.51707 0.04087 0.00898 0.0
O58 O 0.54095 1.00251 0.06838 0.0
Zn59 Zn 0.52942 0.01434 0.0307 0.0
O60 O 0.53621 0.98513 0.01557 0.0
Zn61 Zn 0.52331 0.99973 0.97726 0.0
O62 O 0.54751 0.01278 0.94112 0.0
O63 O 0.5578 0.03043 0.99418 0.0
O64 O 0.51607 0.02701 0.98417 0.0
O65 O 0.52376 0.03951 0.04076 0.0
O66 O 0.49572 0.98596 0.02155 0.0
O67 O 0.4935 0.97363 0.96526 0.0
C68 C 0.56261 0.02854 0.9611 0.0
C69 C 0.48417 0.97187 0.99605 0.0
C70 C 0.56717 0.5195 0.49873 0.0
C71 C 0.48903 0.49965 0.46457 0.0
O72 O 0.55566 0.52144 0.52492 0.0
Zn73 Zn 0.52195 0.51635 0.53468 0.0
O74 O 0.55792 0.51314 0.46754 0.0
Zn75 Zn 0.52828 0.50933 0.48077 0.0
O76 O 0.53623 0.54398 0.49074 0.0
O77 O 0.52803 0.54676 0.54794 0.0
O78 O 0.50412 0.49906 0.44456 0.0
O79 O 0.49368 0.50554 0.49802 0.0
O80 O 0.51041 0.49235 0.57097 0.0
O81 O 0.51602 0.48098 0.51766 0.0
C82 C 0.53527 0.556 0.51704 0.0
C83 C 0.51008 0.47672 0.55113 0.0
H84 H 0.31897 0.47685 0.23601 0.0
H85 H 0.27231 0.48397 0.30605 0.0
H86 H 0.25457 0.4641 0.19311 0.0
H87 H 0.23439 0.48151 0.19947 0.0
H88 H 0.18005 0.47301 0.26945 0.0
H89 H 0.23475 0.46568 0.31375 0.0
C90 C 0.30256 0.47591 0.23995 0.0
C91 C 0.28745 0.47021 0.21062 0.0
C92 C 0.29697 0.48048 0.2743 0.0
C93 C 0.27591 0.47961 0.27949 0.0
C94 C 0.26018 0.47399 0.25035 0.0
C95 C 0.26628 0.46915 0.21588 0.0
C96 C 0.23774 0.47345 0.25575 0.0
C97 C 0.22669 0.47746 0.2262 0.0
C98 C 0.20589 0.47719 0.23113 0.0
C99 C 0.19603 0.47302 0.26565 0.0
C100 C 0.2065 0.46914 0.29543 0.0
C101 C 0.22724 0.46926 0.2905 0.0
H102 H 0.70656 0.17499 0.73373 0.0
H103 H 0.76804 0.22955 0.77901 0.0
H104 H 0.76251 0.21522 0.6628 0.0
H105 H 0.78867 0.25067 0.65679 0.0
H106 H 0.8543 0.29838 0.70021 0.0
H107 H 0.80421 0.24821 0.77081 0.0
C108 C 0.72381 0.1893 0.72994 0.0
C109 C 0.73299 0.19451 0.6951 0.0
C110 C 0.73668 0.20152 0.76007 0.0
C111 C 0.75899 0.21993 0.75514 0.0
C112 C 0.76896 0.22585 0.71993 0.0
C113 C 0.75563 0.2123 0.69004 0.0
C114 C 0.7929 0.24592 0.71443 0.0
C115 C 0.80019 0.25632 0.6798 0.0
C116 C 0.82259 0.27453 0.6744 0.0
C117 C 0.83751 0.2834 0.70403 0.0
C118 C 0.83063 0.2744 0.73887 0.0
C119 C 0.80863 0.25537 0.74383 0.0
H120 H 0.55088 0.70671 0.29121 0.0
H121 H 0.54626 0.7567 0.22579 0.0
H122 H 0.5637 0.76976 0.34012 0.0
H123 H 0.5434 0.78867 0.33352 0.0
H124 H 0.5613 0.84902 0.27195 0.0
H125 H 0.5693 0.79561 0.22347 0.0
C126 C 0.55212 0.72333 0.28882 0.0
C127 C 0.55765 0.73742 0.31947 0.0
C128 C 0.54816 0.73023 0.25511 0.0
C129 C 0.54979 0.75174 0.2519 0.0
C130 C 0.55515 0.76632 0.28252 0.0
C131 C 0.55903 0.75882 0.31635 0.0
C132 C 0.55672 0.78923 0.27929 0.0
C133 C 0.55031 0.79838 0.30877 0.0
C134 C 0.55229 0.82003 0.30607 0.0
C135 C 0.56041 0.83254 0.27409 0.0
C136 C 0.56621 0.82371 0.24419 0.0
C137 C 0.56442 0.80209 0.24671 0.0
H138 H 0.84687 0.53564 0.77311 0.0
H139 H 0.78073 0.52035 0.81116 0.0
H140 H 0.80224 0.54488 0.70116 0.0
H141 H 0.7649 0.52361 0.69005 0.0
H142 H 0.70472 0.52257 0.73002 0.0
H143 H 0.75931 0.5369 0.80398 0.0
C144 C 0.83073 0.53512 0.76825 0.0
C145 C 0.82628 0.54096 0.73402 0.0
C146 C 0.81447 0.52789 0.79604 0.0
C147 C 0.79338 0.52675 0.78967 0.0
C148 C 0.78836 0.53272 0.75532 0.0
C149 C 0.8052 0.5399 0.72764 0.0
C150 C 0.76539 0.53061 0.74805 0.0
C151 C 0.75585 0.52581 0.71257 0.0
C152 C 0.73403 0.52297 0.70597 0.0
C153 C 0.72147 0.52449 0.73502 0.0
C154 C 0.73031 0.52907 0.77033 0.0
C155 C 0.75246 0.53272 0.77666 0.0
H156 H 0.18011 0.70251 0.20859 0.0
H157 H 0.23332 0.76314 0.15863 0.0
H158 H 0.23664 0.75033 0.27345 0.0
H159 H 0.25654 0.78839 0.27648 0.0
H160 H 0.31956 0.83852 0.22787 0.0
H161 H 0.27134 0.78138 0.16413 0.0
C162 C 0.19618 0.71856 0.21078 0.0
C163 C 0.20717 0.72525 0.24444 0.0
C164 C 0.20562 0.73201 0.17983 0.0
C165 C 0.22652 0.75271 0.18272 0.0
C166 C 0.23812 0.75998 0.21658 0.0
C167 C 0.22807 0.74586 0.24735 0.0
C168 C 0.2607 0.78193 0.21975 0.0
C169 C 0.26769 0.79419 0.25301 0.0
C170 C 0.28897 0.81448 0.25614 0.0
C171 C 0.30322 0.8228 0.22561 0.0
C172 C 0.2968 0.81111 0.19232 0.0
C173 C 0.27566 0.79067 0.18961 0.0
H174 H 0.4895 0.31303 0.78743 0.0
H175 H 0.47897 0.25088 0.83609 0.0
H176 H 0.49719 0.26481 0.7221 0.0
H177 H 0.47763 0.22663 0.71837 0.0
H178 H 0.48733 0.17439 0.76664 0.0
H179 H 0.49838 0.23204 0.83107 0.0
C180 C 0.48899 0.29675 0.78505 0.0
C181 C 0.49344 0.29019 0.7514 0.0
C182 C 0.4839 0.28275 0.81561 0.0
C183 C 0.48347 0.26177 0.8124 0.0
C184 C 0.48811 0.2547 0.77865 0.0
C185 C 0.49305 0.26926 0.74818 0.0
C186 C 0.48789 0.23235 0.77527 0.0
C187 C 0.4824 0.22029 0.74184 0.0
C188 C 0.48236 0.1995 0.73855 0.0
C189 C 0.48752 0.19051 0.76906 0.0
C190 C 0.49303 0.202 0.80255 0.0
C191 C 0.49332 0.22293 0.80543 0.0
H192 H 0.06937 0.49119 0.99543 0.0
H193 H 0.10037 0.48722 0.02209 0.0
H194 H 0.06767 0.47443 0.12695 0.0
H195 H 0.03635 0.47814 0.10042 0.0
H196 H 0.12974 0.5143 0.07615 0.0
H197 H 0.08336 0.42334 0.11862 0.0
H198 H 0.07139 0.43499 0.08695 0.0
H199 H 0.07046 0.43936 0.13503 0.0
C200 C 0.06855 0.48723 0.0241 0.0
C201 C 0.05032 0.48497 0.04579 0.0
C202 C 0.08634 0.48499 0.03928 0.0
C203 C 0.08624 0.4803 0.07641 0.0
C204 C 0.06788 0.47761 0.09807 0.0
H205 H 0.19225 0.50877 0.22787 0.0
H206 H 0.16544 0.51007 0.18452 0.0
C207 C 0.05003 0.47984 0.08289 0.0
C208 C 0.10607 0.47974 0.09288 0.0
H209 H 0.12077 0.44683 0.14395 0.0
C210 C 0.12782 0.49945 0.09062 0.0
C211 C 0.10366 0.46026 0.11125 0.0
C212 C 0.08101 0.4382 0.11286 0.0
C213 C 0.14701 0.50053 0.10761 0.0
C214 C 0.14432 0.48151 0.12772 0.0
C215 C 0.12279 0.46145 0.12864 0.0
C216 C 0.16302 0.48269 0.15059 0.0
C217 C 0.16995 0.52213 0.10419 0.0
C218 C 0.17081 0.46703 0.1457 0.0
C219 C 0.18627 0.46634 0.17048 0.0
C220 C 0.1938 0.48105 0.20074 0.0
C221 C 0.18675 0.49734 0.20463 0.0
C222 C 0.1715 0.49813 0.17982 0.0
H223 H 0.17073 0.53193 0.07948 0.0
H224 H 0.17269 0.53323 0.12817 0.0
H225 H 0.18413 0.51824 0.10315 0.0
H226 H 0.16435 0.45487 0.12343 0.0
H227 H 0.19124 0.45345 0.1672 0.0
H228 H 0.56358 0.04105 0.50655 0.0
H229 H 0.60226 0.0685 0.52671 0.0
H230 H 0.57715 0.06572 0.63557 0.0
H231 H 0.53828 0.03741 0.61561 0.0
H232 H 0.61645 0.10989 0.55048 0.0
H233 H 0.63395 0.06277 0.65691 0.0
H234 H 0.61 0.0487 0.62604 0.0
H235 H 0.6081 0.06346 0.66558 0.0
C236 C 0.56634 0.04597 0.53497 0.0
C237 C 0.54789 0.03711 0.55954 0.0
C238 C 0.58849 0.06171 0.54644 0.0
C239 C 0.59276 0.06916 0.5827 0.0
C240 C 0.57445 0.05989 0.60762 0.0
H241 H 0.6977 0.1972 0.66616 0.0
H242 H 0.66532 0.16684 0.63297 0.0
C243 C 0.55221 0.04377 0.59621 0.0
C244 C 0.61598 0.0879 0.59335 0.0
H245 H 0.65897 0.10343 0.65547 0.0
C246 C 0.62583 0.10834 0.57322 0.0
C247 C 0.6285 0.08586 0.62258 0.0
C248 C 0.61971 0.06393 0.64377 0.0
C249 C 0.64742 0.12695 0.58216 0.0
C250 C 0.65931 0.12539 0.6127 0.0
C251 C 0.64984 0.10471 0.63213 0.0
C252 C 0.68064 0.14543 0.62674 0.0
C253 C 0.65726 0.14807 0.55866 0.0
C254 C 0.7003 0.14381 0.63378 0.0
C255 C 0.71888 0.16127 0.65279 0.0
C256 C 0.71802 0.18055 0.66498 0.0
C257 C 0.69898 0.18279 0.65603 0.0
C258 C 0.68044 0.16538 0.63717 0.0
H259 H 0.65057 0.14378 0.53041 0.0
H260 H 0.65214 0.16013 0.56988 0.0
H261 H 0.67627 0.15687 0.55779 0.0
H262 H 0.70078 0.12852 0.62621 0.0
H263 H 0.73311 0.15892 0.66034 0.0
H264 H 0.52115 0.57584 0.01624 0.0
H265 H 0.52734 0.61172 0.04277 0.0
H266 H 0.53894 0.5909 0.14765 0.0
H267 H 0.53301 0.55498 0.12128 0.0
H268 H 0.50209 0.61678 0.09708 0.0
H269 H 0.59318 0.65597 0.13823 0.0
H270 H 0.57982 0.63219 0.10687 0.0
H271 H 0.57571 0.62738 0.15505 0.0
C272 C 0.52528 0.57895 0.0449 0.0
C273 C 0.52663 0.5625 0.06663 0.0
C274 C 0.52878 0.59949 0.06 0.0
C275 C 0.53387 0.60413 0.09708 0.0
C276 C 0.53549 0.58789 0.11881 0.0
H277 H 0.51356 0.68627 0.25 0.0
H278 H 0.50959 0.65765 0.20535 0.0
C279 C 0.53198 0.5673 0.10372 0.0
C280 C 0.53618 0.62534 0.11343 0.0
H281 H 0.57191 0.67217 0.16443 0.0
C282 C 0.51746 0.62904 0.11143 0.0
C283 C 0.55637 0.64156 0.13159 0.0
C284 C 0.57751 0.63925 0.1328 0.0
C285 C 0.51799 0.64792 0.12861 0.0
C286 C 0.53766 0.66336 0.14867 0.0
C287 C 0.55678 0.66027 0.14919 0.0
C288 C 0.53803 0.68151 0.17206 0.0
C289 C 0.49739 0.65104 0.12546 0.0
C290 C 0.55515 0.70455 0.16798 0.0
C291 C 0.55738 0.72101 0.19353 0.0
C292 C 0.54272 0.71453 0.22374 0.0
C293 C 0.52495 0.6917 0.22677 0.0
C294 C 0.52264 0.67535 0.20121 0.0
H295 H 0.48733 0.6427 0.1005 0.0
H296 H 0.48602 0.64296 0.14921 0.0
H297 H 0.50253 0.66945 0.12505 0.0
H298 H 0.5673 0.70963 0.14581 0.0
H299 H 0.5714 0.73844 0.19093 0.0
H300 H 0.96712 0.53122 0.50729 0.0
H301 H 0.93915 0.53923 0.53583 0.0
H302 H 0.96562 0.53714 0.64157 0.0
H303 H 0.99373 0.529 0.61322 0.0
H304 H 0.91738 0.50873 0.63349 0.0
H305 H 0.94697 0.59748 0.58691 0.0
H306 H 0.944 0.57763 0.55173 0.0
H307 H 0.96526 0.585 0.58657 0.0
C308 C 0.96725 0.53275 0.53662 0.0
C309 C 0.98268 0.52943 0.55799 0.0
C310 C 0.9513 0.53748 0.55285 0.0
C311 C 0.95045 0.53901 0.59077 0.0
C312 C 0.9661 0.53616 0.61221 0.0
H313 H 0.87167 0.57295 0.73528 0.0
H314 H 0.90149 0.57411 0.69573 0.0
C315 C 0.98218 0.53155 0.59597 0.0
C316 C 0.93211 0.54181 0.6081 0.0
H317 H 0.91066 0.57809 0.61606 0.0
C318 C 0.91592 0.5239 0.6297 0.0
C319 C 0.93028 0.56164 0.60313 0.0
C320 C 0.94763 0.58166 0.58108 0.0
C321 C 0.89787 0.5252 0.64635 0.0
C322 C 0.8958 0.54486 0.64095 0.0
C323 C 0.9121 0.5629 0.61963 0.0
C324 C 0.87771 0.54742 0.65963 0.0
C325 C 0.88138 0.50573 0.67028 0.0
C326 C 0.85445 0.53286 0.65126 0.0
C327 C 0.83737 0.53229 0.67369 0.0
C328 C 0.84338 0.54619 0.70486 0.0
C329 C 0.86662 0.56206 0.71139 0.0
C330 C 0.88364 0.56272 0.68888 0.0
H331 H 0.88765 0.49371 0.67664 0.0
H332 H 0.87848 0.51238 0.69619 0.0
H333 H 0.86463 0.49599 0.65617 0.0
H334 H 0.84955 0.52104 0.6286 0.0
H335 H 0.8196 0.51977 0.66827 0.0
H336 H 0.45722 0.9328 0.95608 0.0
H337 H 0.41969 0.90046 0.97346 0.0
H338 H 0.42089 0.93626 0.07145 0.0
H339 H 0.45788 0.96839 0.05436 0.0
H340 H 0.41053 0.87401 0.03544 0.0
H341 H 0.35638 0.91399 0.03409 0.0
H342 H 0.38374 0.92655 0.01124 0.0
H343 H 0.38228 0.93123 0.05918 0.0
C344 C 0.44924 0.93391 0.98097 0.0
C345 C 0.46055 0.95317 0.00383 0.0
C346 C 0.42784 0.91542 0.99088 0.0
C347 C 0.41731 0.9161 0.02348 0.0
C348 C 0.42838 0.93554 0.04578 0.0
H349 H 0.34297 0.82795 0.1906 0.0
H350 H 0.36947 0.84924 0.14167 0.0
C351 C 0.44969 0.95386 0.03606 0.0
C352 C 0.39581 0.89596 0.0364 0.0
H353 H 0.34456 0.88198 0.07559 0.0
C354 C 0.39583 0.87552 0.04342 0.0
C355 C 0.37641 0.89768 0.04615 0.0
C356 C 0.37458 0.91848 0.03688 0.0
C357 C 0.37786 0.85757 0.06272 0.0
C358 C 0.35964 0.86033 0.07589 0.0
C359 C 0.35867 0.87994 0.06605 0.0
C360 C 0.34308 0.84468 0.10338 0.0
C361 C 0.37894 0.83611 0.06977 0.0
C362 C 0.31933 0.83505 0.09837 0.0
C363 C 0.30408 0.82304 0.12665 0.0
C364 C 0.31238 0.82073 0.16054 0.0
C365 C 0.33607 0.82961 0.16491 0.0
C366 C 0.35124 0.84154 0.13674 0.0
H367 H 0.38816 0.83292 0.04752 0.0
H368 H 0.38857 0.83824 0.09534 0.0
H369 H 0.36156 0.82091 0.0725 0.0
H370 H 0.31265 0.83743 0.07298 0.0
H371 H 0.28593 0.81654 0.12259 0.0
H372 H 0.50841 0.44036 0.51547 0.0
H373 H 0.50348 0.40494 0.54162 0.0
H374 H 0.49552 0.42695 0.64805 0.0
H375 H 0.50025 0.46246 0.62207 0.0
H376 H 0.53168 0.40196 0.59332 0.0
H377 H 0.44207 0.36092 0.64276 0.0
H378 H 0.45357 0.38412 0.6104 0.0
H379 H 0.45955 0.38993 0.65811 0.0
C380 C 0.50528 0.43758 0.54439 0.0
C381 C 0.50472 0.4543 0.56669 0.0
C382 C 0.5025 0.41731 0.55928 0.0
C383 C 0.49893 0.41319 0.59671 0.0
C384 C 0.49784 0.42957 0.61897 0.0
H385 H 0.52705 0.3345 0.74527 0.0
H386 H 0.52889 0.36253 0.70138 0.0
C387 C 0.50063 0.44991 0.6041 0.0
C388 C 0.49792 0.39253 0.61275 0.0
H389 H 0.4651 0.34589 0.66574 0.0
C390 C 0.51701 0.38954 0.6088 0.0
C391 C 0.47865 0.37614 0.63245 0.0
C392 C 0.45719 0.37776 0.63594 0.0
C393 C 0.51775 0.37119 0.62541 0.0
C394 C 0.49901 0.35556 0.64683 0.0
C395 C 0.47951 0.35795 0.64942 0.0
C396 C 0.50004 0.33788 0.6694 0.0
C397 C 0.53869 0.36885 0.62022 0.0
C398 C 0.48345 0.31461 0.66568 0.0
C399 C 0.48249 0.29851 0.69071 0.0
C400 C 0.49789 0.30557 0.72004 0.0
C401 C 0.51515 0.32865 0.72262 0.0
C402 C 0.51622 0.34464 0.69754 0.0
H403 H 0.54796 0.37737 0.59485 0.0
H404 H 0.5506 0.37715 0.64338 0.0
H405 H 0.53406 0.35057 0.61925 0.0
H406 H 0.47071 0.30907 0.64428 0.0
H407 H 0.46881 0.28087 0.68854 0.0
H408 H 0.51616 0.95883 0.49507 0.0
H409 H 0.52468 0.92989 0.47307 0.0
H410 H 0.51558 0.94507 0.36253 0.0
H411 H 0.50736 0.97468 0.38453 0.0
H412 H 0.49627 0.8914 0.43533 0.0
H413 H 0.576 0.94513 0.35717 0.0
H414 H 0.56423 0.95718 0.3885 0.0
H415 H 0.55209 0.94831 0.34384 0.0
C416 C 0.51616 0.95624 0.46599 0.0
C417 C 0.51102 0.96905 0.4415 0.0
C418 C 0.52102 0.93962 0.45349 0.0
C419 C 0.52085 0.93532 0.4162 0.0
C420 C 0.51616 0.94835 0.39145 0.0
H421 H 0.51002 0.81437 0.31555 0.0
H422 H 0.50139 0.84114 0.34715 0.0
C423 C 0.51143 0.96522 0.40401 0.0
C424 C 0.5247 0.91654 0.40386 0.0
H425 H 0.55985 0.90492 0.3525 0.0
C426 C 0.51021 0.89436 0.41726 0.0
C427 C 0.54308 0.92047 0.38075 0.0
C428 C 0.5599 0.94408 0.36695 0.0
C429 C 0.51347 0.87598 0.40796 0.0
C430 C 0.53146 0.87979 0.38406 0.0
C431 C 0.54606 0.902 0.37088 0.0
C432 C 0.53513 0.86098 0.37119 0.0
C433 C 0.49786 0.85277 0.4243 0.0
C434 C 0.55674 0.8628 0.37496 0.0
C435 C 0.56163 0.84747 0.35692 0.0
C436 C 0.54494 0.83005 0.33503 0.0
C437 C 0.52287 0.82724 0.33328 0.0
C438 C 0.518 0.84262 0.35116 0.0
H439 H 0.48993 0.85418 0.44995 0.0
H440 H 0.48382 0.84241 0.40485 0.0
H441 H 0.50726 0.8435 0.43 0.0
H442 H 0.57023 0.87688 0.39014 0.0
H443 H 0.57894 0.85032 0.35774 0.0
H444 H 0.58244 0.5287 -0.00113 0.0
H445 H 0.61871 0.53552 0.97314 0.0
H446 H 0.59203 0.53117 0.86502 0.0
H447 H 0.55579 0.52486 0.89061 0.0
H448 H 0.62488 0.5065 0.93227 0.0
H449 H 0.65487 0.58696 0.85564 0.0
H450 H 0.63214 0.57705 0.8888 0.0
H451 H 0.62623 0.5657 0.84324 0.0
C452 C 0.58437 0.52955 0.96959 0.0
C453 C 0.56617 0.52621 0.94678 0.0
C454 C 0.60516 0.53346 0.95493 0.0
C455 C 0.60826 0.53412 0.91714 0.0
C456 C 0.5903 0.53129 0.89427 0.0
H457 H 0.68718 0.49597 0.78689 0.0
H458 H 0.66016 0.49868 0.82787 0.0
C459 C 0.5695 0.52754 0.90894 0.0
C460 C 0.62946 0.53575 0.90179 0.0
H461 H 0.672 0.56423 0.83946 0.0
C462 C 0.63535 0.51935 0.91237 0.0
C463 C 0.64343 0.55273 0.87629 0.0
C464 C 0.639 0.57175 0.86561 0.0
C465 C 0.65409 0.51876 0.89685 0.0
C466 C 0.66706 0.53473 0.8695 0.0
C467 C 0.66193 0.55186 0.86023 0.0
C468 C 0.68446 0.53255 0.84776 0.0
C469 C 0.65962 0.50082 0.90959 0.0
C470 C 0.7072 0.55069 0.84527 0.0
C471 C 0.72277 0.54914 0.82171 0.0
C472 C 0.71564 0.52957 0.79997 0.0
C473 C 0.69311 0.51121 0.80346 0.0
C474 C 0.67769 0.51271 0.82699 0.0
H475 H 0.65358 0.49533 0.93786 0.0
H476 H 0.65076 0.48552 0.89178 0.0
H477 H 0.67833 0.5072 0.90843 0.0
H478 H 0.71273 0.56622 0.86089 0.0
H479 H 0.73997 0.56361 0.81917 0.0
H480 H 0.07486 0.57725 0.48559 0.0
H481 H 0.10543 0.6125 0.45909 0.0
H482 H 0.07278 0.59217 0.3541 0.0
H483 H 0.04189 0.55689 0.38046 0.0
H484 H 0.13501 0.61534 0.40541 0.0
H485 H 0.08736 0.65852 0.36222 0.0
H486 H 0.07569 0.63494 0.39387 0.0
H487 H 0.07477 0.62964 0.34577 0.0
C488 C 0.07396 0.58037 0.45693 0.0
C489 C 0.05588 0.56421 0.43513 0.0
C490 C 0.0915 0.60055 0.44185 0.0
C491 C 0.09128 0.60509 0.40474 0.0
C492 C 0.07306 0.58923 0.38298 0.0
H493 H 0.19466 0.68048 0.25067 0.0
H494 H 0.16911 0.65339 0.29613 0.0
C495 C 0.05546 0.56901 0.39805 0.0
C496 C 0.11088 0.6256 0.3883 0.0
H497 H 0.12458 0.67244 0.33597 0.0
C498 C 0.13279 0.628 0.39063 0.0
C499 C 0.10807 0.64232 0.36958 0.0
C500 C 0.08525 0.64141 0.36797 0.0
C501 C 0.15172 0.64603 0.37318 0.0
C502 C 0.14859 0.6619 0.35251 0.0
C503 C 0.12694 0.66018 0.3517 0.0
C504 C 0.16684 0.67898 0.32864 0.0
C505 C 0.17484 0.64774 0.37659 0.0
C506 C 0.17433 0.70244 0.33204 0.0
C507 C 0.18906 0.718 0.30605 0.0
C508 C 0.19616 0.71019 0.27608 0.0
C509 C 0.18951 0.68689 0.2737 0.0
C510 C 0.17498 0.67144 0.29971 0.0
H511 H 0.17602 0.63936 0.40182 0.0
H512 H 0.17743 0.6389 0.35313 0.0
H513 H 0.18889 0.66587 0.37662 0.0
H514 H 0.1681 0.70856 0.35405 0.0
H515 H 0.19375 0.73584 0.30813 0.0
H516 H 0.49694 0.04387 0.94683 0.0
H517 H 0.49254 0.07566 0.92613 0.0
H518 H 0.52085 0.11127 0.02716 0.0
H519 H 0.52571 0.07935 0.04814 0.0
H520 H 0.46896 0.09642 0.95404 0.0
H521 H 0.56317 0.15675 0.94964 0.0
H522 H 0.55123 0.12629 0.95493 0.0
H523 H 0.55114 0.14329 0.99247 0.0
C524 C 0.5021 0.05834 0.96492 0.0
C525 C 0.51191 0.05914 -0.00095 0.0
C526 C 0.49949 0.07651 0.95302 0.0
C527 C 0.50666 0.096 0.97482 0.0
C528 C 0.51555 0.09654 0.00963 0.0
H529 H 0.47701 0.19731 0.87252 0.0
H530 H 0.4813 0.17524 0.92186 0.0
C531 C 0.51815 0.07823 0.02169 0.0
C532 C 0.50564 0.11588 0.95966 0.0
H533 H 0.53948 0.16922 0.92404 0.0
C534 C 0.48431 0.11255 0.9481 0.0
C535 C 0.52574 0.13681 0.95169 0.0
C536 C 0.54918 0.14111 0.96254 0.0
C537 C 0.48263 0.12904 0.92712 0.0
C538 C 0.50282 0.14964 0.91803 0.0
C539 C 0.52403 0.15348 0.93123 0.0
C540 C 0.50261 0.16579 0.89079 0.0
C541 C 0.45942 0.12356 0.91283 0.0
C542 C 0.51412 0.16881 0.85769 0.0
C543 C 0.51192 0.18156 0.82978 0.0
C544 C 0.49813 0.19159 0.83427 0.0
C545 C 0.48772 0.18976 0.86822 0.0
C546 C 0.48997 0.17697 0.89629 0.0
H547 H 0.44622 0.10534 0.91718 0.0
H548 H 0.45374 0.13438 0.92708 0.0
H549 H 0.46032 0.12731 0.8833 0.0
H550 H 0.5241 0.16049 0.85288 0.0
H551 H 0.52051 0.18301 0.80419 0.0
H552 H 0.45367 0.49956 0.50094 0.0
H553 H 0.41807 0.49492 0.47577 0.0
H554 H 0.43817 0.48529 0.36887 0.0
H555 H 0.47388 0.48972 0.39388 0.0
H556 H 0.4142 0.52234 0.42369 0.0
H557 H 0.37214 0.43201 0.37732 0.0
H558 H 0.396 0.44402 0.40866 0.0
H559 H 0.40087 0.4493 0.3607 0.0
C560 C 0.45046 0.49618 0.47211 0.0
C561 C 0.46667 0.49499 0.44942 0.0
C562 C 0.43008 0.49357 0.45779 0.0
C563 C 0.42534 0.48955 0.42054 0.0
C564 C 0.44128 0.48797 0.39783 0.0
H565 H 0.34142 0.51438 0.27677 0.0
H566 H 0.37111 0.51728 0.31826 0.0
C567 C 0.46173 0.4906 0.41215 0.0
C568 C 0.40435 0.4883 0.40521 0.0
H569 H 0.35626 0.45442 0.35539 0.0
C570 C 0.4014 0.5074 0.40906 0.0
C571 C 0.38749 0.46868 0.38666 0.0
C572 C 0.3891 0.44724 0.38333 0.0
C573 C 0.38252 0.50774 0.39357 0.0
C574 C 0.36629 0.48858 0.37339 0.0
C575 C 0.36875 0.46914 0.37078 0.0
C576 C 0.34775 0.48899 0.35221 0.0
C577 C 0.38019 0.52868 0.39871 0.0
C578 C 0.32466 0.47237 0.35784 0.0
C579 C 0.30761 0.47079 0.33417 0.0
C580 C 0.31352 0.4856 0.3043 0.0
C581 C 0.33645 0.50291 0.29983 0.0
C582 C 0.3534 0.50459 0.32355 0.0
H583 H 0.38952 0.53849 0.42334 0.0
H584 H 0.38767 0.54009 0.37486 0.0
H585 H 0.36192 0.52398 0.40103 0.0
H586 H 0.31997 0.46008 0.37968 0.0
H587 H 0.2901 0.45709 0.33781 0.0
H588 H 0.98811 0.45707 0.86756 0.0
H589 H 0.96059 0.42061 0.83907 0.0
H590 H 0.93365 0.39211 0.94451 0.0
H591 H 0.96103 0.42836 0.97324 0.0
H592 H 0.94065 0.36219 0.89536 0.0
H593 H 0.89062 0.39886 0.83422 0.0
H594 H 0.92085 0.41427 0.8248 0.0
H595 H 0.91097 0.41286 0.87058 0.0
C596 C 0.97648 0.44299 0.88472 0.0
C597 C 0.97669 0.44572 0.92267 0.0
C598 C 0.9607 0.42221 0.86839 0.0
C599 C 0.94491 0.40377 0.88968 0.0
C600 C 0.94563 0.40615 0.92759 0.0
H601 H 0.81999 0.28961 0.80055 0.0
H602 H 0.84713 0.31854 0.84307 0.0
C603 C 0.96129 0.42693 0.94393 0.0
C604 C 0.92706 0.38229 0.87239 0.0
H605 H 0.88014 0.36104 0.817 0.0
C606 C 0.92736 0.36187 0.87831 0.0
C607 C 0.9095 0.38186 0.85075 0.0
C608 C 0.90773 0.40305 0.84485 0.0
C609 C 0.91092 0.34115 0.86217 0.0
C610 C 0.89385 0.34091 0.83945 0.0
C611 C 0.89323 0.36122 0.83441 0.0
C612 C 0.87722 0.32023 0.81883 0.0
C613 C 0.91189 0.31968 0.86967 0.0
C614 C 0.88503 0.311 0.79193 0.0
C615 C 0.86956 0.29445 0.76777 0.0
C616 C 0.84598 0.28687 0.76995 0.0
C617 C 0.83801 0.29491 0.7985 0.0
C618 C 0.85352 0.31158 0.8226 0.0
H619 H 0.92141 0.32121 0.89517 0.0
H620 H 0.8944 0.30455 0.87175 0.0
H621 H 0.92092 0.31666 0.84697 0.0
H622 H 0.90322 0.31764 0.7881 0.0
H623 H 0.87617 0.28857 0.74596 0.0
H624 H 0.96736 0.52753 0.9342 0.0
H625 H 0.93425 0.53116 0.91879 0.0
H626 H 0.90331 0.50187 0.02206 0.0
H627 H 0.93659 0.49785 0.03772 0.0
H628 H 0.87353 0.48171 0.96511 0.0
H629 H 0.91412 0.5754 0.95295 0.0
H630 H 0.92989 0.56527 0.92728 0.0
H631 H 0.92789 0.56185 0.97598 0.0
C632 C 0.95371 0.52209 0.95397 0.0
C633 C 0.95468 0.5124 0.98725 0.0
C634 C 0.93481 0.52438 0.94519 0.0
C635 C 0.91646 0.51721 0.96952 0.0
C636 C 0.9174 0.50775 0.00303 0.0
H637 H 0.81783 0.54681 0.86324 0.0
H638 H 0.83702 0.54215 0.91678 0.0
C639 C 0.93644 0.5055 0.01195 0.0
C640 C 0.89574 0.51803 0.95805 0.0
H641 H 0.88038 0.55305 0.91492 0.0
C642 C 0.87483 0.4974 0.95499 0.0
C643 C 0.89713 0.53854 0.94574 0.0
C644 C 0.91843 0.56153 0.95106 0.0
C645 C 0.85603 0.49645 0.93673 0.0
C646 C 0.85841 0.51654 0.92049 0.0
C647 C 0.87855 0.53751 0.92678 0.0
C648 C 0.84215 0.51579 0.89241 0.0
C649 C 0.83412 0.47375 0.93392 0.0
C650 C 0.838 0.50207 0.8614 0.0
C651 C 0.82702 0.50464 0.83117 0.0
C652 C 0.8201 0.52112 0.8311 0.0
C653 C 0.82277 0.5338 0.86288 0.0
C654 C 0.83384 0.53123 0.8933 0.0
H655 H 0.83149 0.46331 0.95869 0.0
H656 H 0.81899 0.47596 0.93011 0.0
H657 H 0.83528 0.46401 0.91044 0.0
H658 H 0.84473 0.4905 0.85945 0.0
H659 H 0.8253 0.49481 0.80683 0.0
H660 H 0.41868 0.97372 0.45156 0.0
H661 H 0.38467 0.9425 0.4232 0.0
H662 H 0.38624 0.89484 0.49944 0.0
H663 H 0.42057 0.92631 0.52824 0.0
H664 H 0.38589 0.88286 0.4262 0.0
H665 H 0.31711 0.90325 0.45063 0.0
H666 H 0.34295 0.92756 0.43451 0.0
H667 H 0.3429 0.91519 0.47786 0.0
C668 C 0.41147 0.9567 0.46297 0.0
C669 C 0.4223 0.95248 0.49217 0.0
C670 C 0.3919 0.93886 0.44682 0.0
C671 C 0.38271 0.91633 0.45938 0.0
C672 C 0.39291 0.91213 0.48953 0.0
H673 H 0.28973 0.79706 0.32308 0.0
H674 H 0.30905 0.81879 0.3783 0.0
C675 C 0.41244 0.93012 0.50608 0.0
C676 C 0.36436 0.89722 0.43793 0.0
H677 H 0.31245 0.87986 0.39776 0.0
C678 C 0.36955 0.88177 0.42069 0.0
C679 C 0.34311 0.8959 0.43061 0.0
C680 C 0.33607 0.91123 0.44968 0.0
C681 C 0.35479 0.86612 0.39449 0.0
C682 C 0.33407 0.86563 0.38577 0.0
C683 C 0.32833 0.88026 0.40441 0.0
C684 C 0.31957 0.85194 0.35464 0.0
C685 C 0.36216 0.85127 0.37462 0.0
C686 C 0.3182 0.86327 0.32364 0.0
C687 C 0.30717 0.85095 0.29227 0.0
C688 C 0.29711 0.82698 0.29129 0.0
C689 C 0.29725 0.8155 0.32309 0.0
C690 C 0.30845 0.8279 0.35451 0.0
H691 H 0.38024 0.85626 0.38061 0.0
H692 H 0.35106 0.83317 0.38291 0.0
H693 H 0.36027 0.85229 0.3448 0.0
H694 H 0.32656 0.88179 0.32316 0.0
H695 H 0.30713 0.86024 0.26831 0.0
H696 H 0.47307 0.43327 0.96209 0.0
H697 H 0.46731 0.39562 0.94602 0.0
H698 H 0.51042 0.39935 0.03544 0.0
H699 H 0.51609 0.43717 0.05215 0.0
H700 H 0.52253 0.39051 0.96252 0.0
H701 H 0.43147 0.33156 0.997 0.0
H702 H 0.43651 0.35705 0.97367 0.0
H703 H 0.44838 0.3593 0.01827 0.0
C704 C 0.48105 0.42596 0.97875 0.0
C705 C 0.49508 0.43822 0.00835 0.0
C706 C 0.4776 0.40436 0.96967 0.0
C707 C 0.48821 0.39459 0.98979 0.0
C708 C 0.50188 0.40652 0.01984 0.0
H709 H 0.50442 0.2864 0.88168 0.0
H710 H 0.50439 0.3091 0.93407 0.0
C711 C 0.50508 0.42808 0.02934 0.0
C712 C 0.4868 0.37314 0.97659 0.0
H713 H 0.44806 0.31827 0.95206 0.0
C714 C 0.50642 0.37447 0.96101 0.0
C715 C 0.46573 0.35234 0.97467 0.0
C716 C 0.44433 0.34983 0.99208 0.0
C717 C 0.50516 0.35616 0.94083 0.0
C718 C 0.48375 0.3357 0.93709 0.0
C719 C 0.46446 0.33388 0.95495 0.0
C720 C 0.48034 0.31777 0.91016 0.0
C721 C 0.52638 0.35964 0.9213 0.0
C722 C 0.4655 0.3136 0.88072 0.0
C723 C 0.46518 0.30036 0.85132 0.0
C724 C 0.47977 0.29108 0.85061 0.0
C725 C 0.49305 0.29341 0.88151 0.0
C726 C 0.49326 0.30662 0.9112 0.0
H727 H 0.54038 0.3778 0.92194 0.0
H728 H 0.5328 0.34916 0.93454 0.0
H729 H 0.52245 0.35413 0.89246 0.0
H730 H 0.4552 0.32181 0.87934 0.0
H731 H 0.45456 0.29859 0.82802 0.0
H732 H 0.05449 0.47857 0.4338 0.0
H733 H 0.08563 0.47237 0.41489 0.0
H734 H 0.11627 0.49241 0.5212 0.0
H735 H 0.08495 0.4988 0.54067 0.0
H736 H 0.13665 0.51239 0.42519 0.0
H737 H 0.11249 0.4276 0.48568 0.0
H738 H 0.09071 0.43443 0.47288 0.0
H739 H 0.10894 0.44862 0.51098 0.0
C740 C 0.06765 0.48145 0.45345 0.0
C741 C 0.06725 0.48931 0.48876 0.0
C742 C 0.08543 0.47786 0.44254 0.0
C743 C 0.10317 0.48191 0.46665 0.0
C744 C 0.1026 0.48906 0.5023 0.0
H745 H 0.22515 0.49499 0.35658 0.0
H746 H 0.20358 0.49773 0.40839 0.0
C747 C 0.08472 0.49271 0.51333 0.0
C748 C 0.12293 0.4802 0.45296 0.0
H749 H 0.14265 0.44268 0.44294 0.0
C750 C 0.13839 0.49743 0.42968 0.0
C751 C 0.12489 0.46057 0.45878 0.0
C752 C 0.10845 0.44163 0.48342 0.0
C753 C 0.15508 0.49505 0.41047 0.0
C754 C 0.15655 0.47497 0.41513 0.0
C755 C 0.1417 0.45816 0.43974 0.0
C756 C 0.17085 0.46979 0.39047 0.0
C757 C 0.16989 0.51332 0.3834 0.0
C758 C 0.15992 0.45211 0.36486 0.0
C759 C 0.17221 0.4504 0.33565 0.0
C760 C 0.19566 0.46629 0.33158 0.0
C761 C 0.20711 0.48247 0.35923 0.0
C762 C 0.19476 0.48419 0.38858 0.0
H763 H 0.16407 0.52591 0.37904 0.0
H764 H 0.1878 0.52275 0.39353 0.0
H765 H 0.16987 0.50552 0.35678 0.0
H766 H 0.14153 0.44076 0.36582 0.0
H767 H 0.16302 0.43775 0.31469 0.0
H768 H 0.57589 0.03736 0.88965 0.0
H769 H 0.6115 0.06931 0.866 0.0
H770 H 0.63576 0.09089 0.97549 0.0
H771 H 0.60013 0.05939 -0.00071 0.0
H772 H 0.63996 0.12592 0.93558 0.0
H773 H 0.6762 0.08061 0.85939 0.0
H774 H 0.64726 0.07136 0.84595 0.0
H775 H 0.65315 0.06625 0.89166 0.0
C776 C 0.58898 0.04866 0.90866 0.0
C777 C 0.58514 0.04585 0.94632 0.0
C778 C 0.60939 0.06687 0.89513 0.0
C779 C 0.62643 0.08237 0.919 0.0
C780 C 0.62289 0.07914 0.95658 0.0
H781 H 0.75234 0.18493 0.81329 0.0
H782 H 0.72887 0.15887 0.86193 0.0
C783 C 0.60249 0.06109 0.9701 0.0
C784 C 0.64709 0.10293 0.90485 0.0
H785 H 0.69064 0.1201 0.84367 0.0
C786 C 0.65127 0.12465 0.91591 0.0
C787 C 0.66216 0.10134 0.8798 0.0
C788 C 0.65963 0.07863 0.86881 0.0
C789 C 0.6693 0.14476 0.90102 0.0
C790 C 0.68325 0.1431 0.87387 0.0
C791 C 0.67989 0.12143 0.86436 0.0
C792 C 0.69953 0.16309 0.85183 0.0
C793 C 0.67297 0.16756 0.91415 0.0
C794 C 0.69127 0.17496 0.83127 0.0
C795 C 0.7047 0.18994 0.80388 0.0
C796 C 0.72656 0.19318 0.79636 0.0
C797 C 0.73567 0.18297 0.81901 0.0
C798 C 0.72218 0.16791 0.84649 0.0
H799 H 0.66734 0.16649 0.94283 0.0
H800 H 0.69125 0.18114 0.91208 0.0
H801 H 0.66254 0.17259 0.89733 0.0
H802 H 0.67373 0.17121 0.83425 0.0
H803 H 0.69724 0.19741 0.78641 0.0
H804 H 0.52439 0.5835 0.55781 0.0
H805 H 0.53108 0.62172 0.54157 0.0
H806 H 0.56649 0.62079 0.44457 0.0
H807 H 0.55983 0.58282 0.46027 0.0
H808 H 0.58739 0.66504 0.49025 0.0
H809 H 0.49588 0.62826 0.4491 0.0
H810 H 0.5027 0.62091 0.4926 0.0
H811 H 0.50897 0.61059 0.45175 0.0
C812 C 0.5339 0.59161 0.53333 0.0
C813 C 0.54143 0.58006 0.51018 0.0
C814 C 0.53765 0.61339 0.52408 0.0
C815 C 0.54917 0.62397 0.4918 0.0
C816 C 0.55758 0.61291 0.46961 0.0
H817 H 0.58687 0.72156 0.33214 0.0
H818 H 0.58639 0.69868 0.38357 0.0
C819 C 0.55367 0.59116 0.47859 0.0
C820 C 0.55118 0.64573 0.47915 0.0
H821 H 0.52159 0.66582 0.43122 0.0
C822 C 0.57293 0.66543 0.47804 0.0
C823 C 0.53226 0.64624 0.46359 0.0
C824 C 0.50857 0.62543 0.46408 0.0
C825 C 0.57648 0.68529 0.46001 0.0
C826 C 0.55791 0.68516 0.44172 0.0
C827 C 0.53586 0.66597 0.44513 0.0
C828 C 0.56137 0.70289 0.4145 0.0
C829 C 0.60023 0.70597 0.45989 0.0
C830 C 0.54765 0.71321 0.41466 0.0
C831 C 0.5478 0.72625 0.38488 0.0
C832 C 0.56147 0.7289 0.3544 0.0
C833 C 0.57622 0.71981 0.35536 0.0
C834 C 0.57608 0.70687 0.38496 0.0
H835 H 0.60943 0.70704 0.48555 0.0
H836 H 0.61021 0.7044 0.43719 0.0
H837 H 0.59976 0.72208 0.45647 0.0
H838 H 0.53601 0.71023 0.437 0.0
H839 H 0.53611 0.73288 0.38462 0.0
H840 H 0.49831 0.08327 0.46854 0.0
H841 H 0.49586 0.11559 0.49472 0.0
H842 H 0.45397 0.0722 0.58187 0.0
H843 H 0.45614 0.04009 0.556 0.0
H844 H 0.43938 0.10242 0.55446 0.0
H845 H 0.53257 0.14723 0.58821 0.0
H846 H 0.52446 0.13945 0.54149 0.0
H847 H 0.51716 0.11749 0.57483 0.0
C848 C 0.48821 0.08056 0.49286 0.0
C849 C 0.47761 0.05917 0.51038 0.0
C850 C 0.48697 0.09906 0.50793 0.0
C851 C 0.47502 0.09638 0.54058 0.0
C852 C 0.46335 0.07471 0.55676 0.0
H853 H 0.45319 0.1541 0.72602 0.0
H854 H 0.45031 0.13231 0.67127 0.0
C855 C 0.46468 0.05636 0.54195 0.0
C856 C 0.47576 0.11612 0.55991 0.0
H857 H 0.51074 0.16191 0.61349 0.0
C858 C 0.45506 0.11571 0.56679 0.0
C859 C 0.49623 0.13352 0.57592 0.0
C860 C 0.51891 0.13455 0.57005 0.0
C861 C 0.4541 0.13156 0.59058 0.0
C862 C 0.47431 0.14797 0.60851 0.0
C863 C 0.49525 0.14931 0.5998 0.0
C864 C 0.47376 0.16185 0.63958 0.0
C865 C 0.43134 0.13017 0.59699 0.0
C866 C 0.48789 0.1858 0.64016 0.0
C867 C 0.48964 0.19833 0.67168 0.0
C868 C 0.47757 0.18706 0.7033 0.0
C869 C 0.46276 0.16323 0.70211 0.0
C870 C 0.46093 0.15078 0.67068 0.0
H871 H 0.41999 0.12305 0.57284 0.0
H872 H 0.4226 0.11857 0.62021 0.0
H873 H 0.43352 0.14725 0.60343 0.0
H874 H 0.49811 0.19469 0.61661 0.0
H875 H 0.50135 0.21664 0.67194 0.0
H876 H 0.43688 0.46577 0.0521 0.0
H877 H 0.39882 0.45822 0.06981 0.0
H878 H 0.39926 0.50079 0.98222 0.0
H879 H 0.43752 0.50826 0.96388 0.0
H880 H 0.39101 0.51211 0.05565 0.0
H881 H 0.33396 0.42061 0.02194 0.0
H882 H 0.36019 0.4265 0.0439 0.0
H883 H 0.36118 0.43821 -0.00036 0.0
C884 C 0.42875 0.47322 0.03615 0.0
C885 C 0.44022 0.48765 0.00664 0.0
C886 C 0.40691 0.46874 0.04615 0.0
C887 C 0.39611 0.47872 0.02707 0.0
C888 C 0.40722 0.49272 0.99702 0.0
H889 H 0.28796 0.48995 0.14523 0.0
H890 H 0.30938 0.49068 0.09064 0.0
C891 C 0.42903 0.49694 0.98658 0.0
C892 C 0.37452 0.47642 0.04159 0.0
H893 H 0.32089 0.43619 0.06905 0.0
C894 C 0.37539 0.49567 0.05781 0.0
C895 C 0.35427 0.45493 0.04432 0.0
C896 C 0.35219 0.43389 0.02624 0.0
C897 C 0.35729 0.49366 0.07944 0.0
C898 C 0.33748 0.47184 0.08407 0.0
C899 C 0.336 0.4529 0.06553 0.0
C900 C 0.32015 0.46776 0.11252 0.0
C901 C 0.36041 0.51459 0.09953 0.0
C902 C 0.31754 0.45324 0.14162 0.0
C903 C 0.30501 0.45247 0.17229 0.0
C904 C 0.2949 0.46629 0.17463 0.0
C905 C 0.29563 0.47917 0.14415 0.0
C906 C 0.30812 0.47983 0.11319 0.0
H907 H 0.37829 0.52912 0.09781 0.0
H908 H 0.34895 0.52024 0.08755 0.0
H909 H 0.35588 0.51064 0.12867 0.0
H910 H 0.32645 0.4436 0.14169 0.0
H911 H 0.30446 0.44215 0.19523 0.0
H912 H 0.97384 0.4389 0.54664 0.0
H913 H 0.94036 0.40264 0.56299 0.0
H914 H 0.9085 0.40114 0.46059 0.0
H915 H 0.9423 0.43775 0.44367 0.0
H916 H 0.89449 0.39707 0.56619 0.0
H917 H 0.90117 0.33526 0.47333 0.0
H918 H 0.92588 0.36251 0.48479 0.0
H919 H 0.90433 0.36146 0.45501 0.0
C920 C 0.95989 0.43084 0.52729 0.0
C921 C 0.96074 0.44132 0.49388 0.0
C922 C 0.94074 0.41008 0.53673 0.0
C923 C 0.92199 0.39922 0.51302 0.0
C924 C 0.92291 0.40918 0.47913 0.0
H925 H 0.80243 0.2921 0.63009 0.0
H926 H 0.82131 0.31968 0.58059 0.0
C927 C 0.9422 0.43008 0.46955 0.0
C928 C 0.90119 0.37826 0.52549 0.0
H929 H 0.87326 0.31995 0.51934 0.0
C930 C 0.88944 0.38018 0.55552 0.0
C931 C 0.8948 0.35637 0.51143 0.0
C932 C 0.90715 0.35354 0.47942 0.0
C933 C 0.87243 0.36075 0.57342 0.0
C934 C 0.86666 0.33872 0.5604 0.0
C935 C 0.87753 0.33682 0.52903 0.0
C936 C 0.85255 0.31797 0.58262 0.0
C937 C 0.8621 0.36404 0.60775 0.0
C938 C 0.86313 0.30662 0.59813 0.0
C939 C 0.8523 0.29075 0.62588 0.0
C940 C 0.83069 0.28593 0.63869 0.0
C941 C 0.81909 0.29552 0.6207 0.0
C942 C 0.82995 0.31142 0.5927 0.0
H943 H 0.87112 0.38215 0.6171 0.0
H944 H 0.8439 0.35886 0.60269 0.0
H945 H 0.86264 0.35323 0.63001 0.0
H946 H 0.88049 0.31129 0.5907 0.0
H947 H 0.86151 0.28342 0.6391 0.0
H948 H 0.5506 0.95709 0.013 0.0
H949 H 0.55877 0.92862 0.03881 0.0
H950 H 0.55782 0.95331 0.14663 0.0
H951 H 0.54947 0.98192 0.12102 0.0
H952 H 0.59482 0.93276 0.08549 0.0
H953 H 0.5085 0.88425 0.14831 0.0
H954 H 0.51535 0.90581 0.11399 0.0
H955 H 0.52438 0.91409 0.16022 0.0
C956 C 0.55227 0.95663 0.04223 0.0
C957 C 0.54916 0.97168 0.065 0.0
C958 C 0.55702 0.94036 0.05689 0.0
C959 C 0.5586 0.93866 0.0946 0.0
C960 C 0.55635 0.95416 0.11742 0.0
H961 H 0.60188 0.86642 0.2322 0.0
H962 H 0.60213 0.89336 0.18771 0.0
C963 C 0.55168 0.97056 0.10276 0.0
C964 C 0.5616 0.92001 0.10998 0.0
H965 H 0.5351 0.87231 0.16305 0.0
C966 C 0.58175 0.91947 0.10234 0.0
C967 C 0.5443 0.90241 0.13123 0.0
C968 C 0.5218 0.90144 0.13873 0.0
C969 C 0.58539 0.90218 0.11652 0.0
C970 C 0.56848 0.88513 0.13904 0.0
C971 C 0.54805 0.88534 0.14569 0.0
C972 C 0.57212 0.86799 0.15869 0.0
C973 C 0.60726 0.90232 0.10726 0.0
C974 C 0.55579 0.84455 0.15628 0.0
C975 C 0.55571 0.82909 0.1817 0.0
C976 C 0.57184 0.83694 0.21003 0.0
C977 C 0.5895 0.85993 0.21021 0.0
C978 C 0.58961 0.87535 0.18481 0.0
H979 H 0.61468 0.91146 0.08133 0.0
H980 H 0.62005 0.91136 0.12909 0.0
H981 H 0.60436 0.88464 0.10502 0.0
H982 H 0.54209 0.83852 0.13643 0.0
H983 H 0.5417 0.81155 0.18142 0.0
H984 H 0.59196 0.53626 0.56083 0.0
H985 H 0.62805 0.53868 0.57674 0.0
H986 H 0.6317 0.51372 0.47032 0.0
H987 H 0.59489 0.51077 0.4542 0.0
H988 H 0.63963 0.49083 0.52302 0.0
H989 H 0.69343 0.58292 0.55074 0.0
H990 H 0.66697 0.57216 0.57494 0.0
H991 H 0.66679 0.57139 0.5259 0.0
C992 C 0.60051 0.53158 0.54046 0.0
C993 C 0.59047 0.52332 0.50619 0.0
C994 C 0.62135 0.53319 0.54954 0.0
C995 C 0.6329 0.52684 0.52452 0.0
C996 C 0.62321 0.51896 0.48993 0.0
H997 H 0.75379 0.54747 0.64405 0.0
H998 H 0.73374 0.54697 0.58798 0.0
C999 C 0.60222 0.51734 0.48075 0.0
C1000 C 0.65383 0.52653 0.53641 0.0
H1001 H 0.70202 0.5577 0.58727 0.0
C1002 C 0.65364 0.50562 0.5362 0.0
C1003 C 0.67255 0.54591 0.55261 0.0
C1004 C 0.67506 0.5694 0.55065 0.0
C1005 C 0.67035 0.50304 0.55508 0.0
C1006 C 0.68727 0.52168 0.57549 0.0
C1007 C 0.68885 0.54318 0.57235 0.0
C1008 C 0.70092 0.51862 0.60451 0.0
C1009 C 0.66914 0.48011 0.55397 0.0
C1010 C 0.68945 0.50235 0.63189 0.0
C1011 C 0.70091 0.50246 0.66352 0.0
C1012 C 0.72402 0.51911 0.66889 0.0
C1013 C 0.73602 0.53435 0.6405 0.0
C1014 C 0.72452 0.53416 0.60858 0.0
H1015 H 0.66315 0.47194 0.52688 0.0
H1016 H 0.68601 0.48164 0.55989 0.0
H1017 H 0.65649 0.46859 0.57433 0.0
H1018 H 0.67119 0.49056 0.63012 0.0
H1019 H 0.69126 0.49045 0.68492 0.0
H1020 H 0.04911 0.56836 0.04729 0.0
H1021 H 0.08051 0.60562 0.06603 0.0
H1022 H 0.10985 0.61643 0.95883 0.0
H1023 H 0.0783 0.57882 0.93954 0.0
H1024 H 0.13152 0.61674 0.05392 0.0
H1025 H 0.10633 0.67731 0.99617 0.0
H1026 H 0.08482 0.64868 0.0092 0.0
H1027 H 0.10245 0.65281 0.97032 0.0
C1028 C 0.06204 0.57867 0.02742 0.0
C1029 C 0.0612 0.57049 0.9919 0.0
C1030 C 0.07997 0.6 0.03824 0.0
C1031 C 0.09743 0.61373 0.01381 0.0
C1032 C 0.09642 0.60608 0.97798 0.0
H1033 H 0.22219 0.72336 0.11758 0.0
H1034 H 0.19899 0.69815 0.06755 0.0
C1035 C 0.0784 0.58461 0.96705 0.0
C1036 C 0.11735 0.63518 0.02724 0.0
H1037 H 0.13745 0.69248 0.03727 0.0
C1038 C 0.13321 0.63343 0.04968 0.0
C1039 C 0.11925 0.65678 0.02178 0.0
C1040 C 0.10238 0.65926 -0.00192 0.0
C1041 C 0.15033 0.65254 0.0683 0.0
C1042 C 0.15182 0.67412 0.06391 0.0
C1043 C 0.13648 0.67603 0.04024 0.0
C1044 C 0.16687 0.69378 0.08781 0.0
C1045 C 0.16568 0.64915 0.09439 0.0
C1046 C 0.15677 0.70095 0.1142 0.0
C1047 C 0.16997 0.71544 0.14242 0.0
C1048 C 0.19355 0.72309 0.1447 0.0
C1049 C 0.20408 0.71779 0.11631 0.0
C1050 C 0.1908 0.70322 0.08798 0.0
H1051 H 0.15984 0.63075 0.09887 0.0
H1052 H 0.18334 0.65743 0.08328 0.0
H1053 H 0.16636 0.65718 0.12109 0.0
H1054 H 0.13837 0.69398 0.11457 0.0
H1055 H 0.16147 0.71932 0.16397 0.0
loop_
_geom_bond_atom_site_label_1
_geom_bond_atom_site_label_2
_geom_bond_distance
_geom_bond_site_symmetry_2
_ccdc_geom_bond_type
C0 O2 1.247 . S
C0 O4 1.262 . S
C1 O8 1.247 . S
C1 O9 1.258 1_556 S
O2 C0 1.247 . S
O2 Zn3 2.028 1_455 S
Zn3 O2 2.028 1_655 S
Zn3 O7 2.035 . S
Zn3 O9 2.035 . S
Zn3 O10 2.028 1_655 S
O4 C0 1.262 . S
O4 Zn5 2.033 1_554 S
Zn5 O4 2.033 1_556 S
Zn5 O6 2.028 1_455 S
Zn5 O8 2.028 1_455 S
Zn5 O11 2.033 1_556 S
O6 Zn5 2.028 1_655 S
O6 C12 1.247 . S
O7 Zn3 2.035 . S
O7 C12 1.258 1_554 S
O8 C1 1.247 . S
O8 Zn5 2.028 1_655 S
O9 C1 1.258 1_554 S
O9 Zn3 2.035 . S
O10 Zn3 2.028 1_455 S
O10 C13 1.247 . S
O11 Zn5 2.033 1_554 S
O11 C13 1.262 . S
C12 O6 1.247 . S
C12 O7 1.258 1_556 S
C13 O10 1.247 . S
C13 O11 1.262 . S
C14 O16 1.247 . S
C14 O18 1.258 . S
C15 O22 1.247 . S
C15 O23 1.258 . S
O16 C14 1.247 . S
O16 Zn17 2.028 1_545 S
Zn17 O16 2.028 1_565 S
Zn17 O21 2.035 . S
Zn17 O23 2.035 . S
Zn17 O24 2.028 1_565 S
O18 C14 1.258 . S
O18 Zn19 2.035 . S
Zn19 O18 2.035 . S
Zn19 O20 2.028 1_545 S
Zn19 O22 2.028 1_545 S
Zn19 O25 2.035 . S
O20 Zn19 2.028 1_565 S
O20 C26 1.247 . S
O21 Zn17 2.035 . S
O21 C26 1.258 . S
O22 C15 1.247 . S
O22 Zn19 2.028 1_565 S
O23 C15 1.258 . S
O23 Zn17 2.035 . S
O24 Zn17 2.028 1_545 S
O24 C27 1.247 . S
O25 Zn19 2.035 . S
O25 C27 1.258 . S
C26 O20 1.247 . S
C26 O21 1.258 . S
C27 O24 1.247 . S
C27 O25 1.258 . S
C28 O30 1.247 . S
C28 O32 1.258 1_556 S
C29 O36 1.247 . S
C29 O37 1.261 . S
O30 C28 1.247 . S
O30 Zn31 2.028 . S
Zn31 O30 2.028 . S
Zn31 O35 2.034 1_556 S
Zn31 O37 2.034 1_556 S
Zn31 O38 2.028 . S
O32 C28 1.258 1_554 S
O32 Zn33 2.035 . S
Zn33 O32 2.035 . S
Zn33 O34 2.028 . S
Zn33 O36 2.028 . S
Zn33 O39 2.035 . S
O34 Zn33 2.028 . S
O34 C40 1.247 . S
O35 Zn31 2.034 1_554 S
O35 C40 1.261 . S
O36 C29 1.247 . S
O36 Zn33 2.028 . S
O37 C29 1.261 . S
O37 Zn31 2.034 1_554 S
O38 Zn31 2.028 . S
O38 C41 1.247 . S
O39 Zn33 2.035 . S
O39 C41 1.258 1_554 S
C40 O34 1.247 . S
C40 O35 1.261 . S
C41 O38 1.247 . S
C41 O39 1.258 1_556 S
C42 O44 1.247 . S
C42 O46 1.258 . S
C43 O50 1.247 . S
C43 O51 1.258 . S
O44 C42 1.247 . S
O44 Zn45 2.028 . S
Zn45 O44 2.028 . S
Zn45 O49 2.035 1_455 S
Zn45 O51 2.035 1_455 S
Zn45 O52 2.028 . S
O46 C42 1.258 . S
O46 Zn47 2.035 1_455 S
Zn47 O46 2.035 1_655 S
Zn47 O48 2.028 . S
Zn47 O50 2.028 . S
Zn47 O53 2.035 1_655 S
O48 Zn47 2.028 . S
O48 C54 1.247 . S
O49 Zn45 2.035 1_655 S
O49 C54 1.258 . S
O50 C43 1.247 . S
O50 Zn47 2.028 . S
O51 C43 1.258 . S
O51 Zn45 2.035 1_655 S
O52 Zn45 2.028 . S
O52 C55 1.247 . S
O53 Zn47 2.035 1_455 S
O53 C55 1.258 . S
C54 O48 1.247 . S
C54 O49 1.258 . S
C55 O52 1.247 . S
C55 O53 1.258 . S
C56 O58 1.247 . S
C56 O60 1.258 . S
C57 O64 1.247 . S
C57 O65 1.258 1_556 S
O58 C56 1.247 . S
O58 Zn59 2.028 1_565 S
Zn59 O58 2.028 1_545 S
Zn59 O63 2.035 . S
Zn59 O65 2.035 . S
Zn59 O66 2.028 1_545 S
O60 C56 1.258 . S
O60 Zn61 2.035 1_554 S
Zn61 O60 2.035 1_556 S
Zn61 O62 2.028 1_565 S
Zn61 O64 2.028 1_565 S
Zn61 O67 2.035 1_556 S
O62 Zn61 2.028 1_545 S
O62 C68 1.247 . S
O63 Zn59 2.035 . S
O63 C68 1.258 1_554 S
O64 C57 1.247 . S
O64 Zn61 2.028 1_545 S
O65 C57 1.258 1_554 S
O65 Zn59 2.035 . S
O66 Zn59 2.028 1_565 S
O66 C69 1.247 . S
O67 Zn61 2.035 1_554 S
O67 C69 1.258 . S
C68 O62 1.247 . S
C68 O63 1.258 1_556 S
C69 O66 1.247 . S
C69 O67 1.258 . S
C70 O72 1.247 . S
C70 O74 1.258 . S
C71 O78 1.247 . S
C71 O79 1.258 . S
O72 C70 1.247 . S
O72 Zn73 2.028 . S
Zn73 O72 2.028 . S
Zn73 O77 2.035 . S
Zn73 O79 2.035 . S
Zn73 O80 2.028 . S
O74 C70 1.258 . S
O74 Zn75 2.035 . S
Zn75 O74 2.035 . S
Zn75 O76 2.028 . S
Zn75 O78 2.028 . S
Zn75 O81 2.035 . S
O76 Zn75 2.028 . S
O76 C82 1.247 . S
O77 Zn73 2.035 . S
O77 C82 1.258 . S
O78 C71 1.247 . S
O78 Zn75 2.028 . S
O79 C71 1.258 . S
O79 Zn73 2.035 . S
O80 Zn73 2.028 . S
O80 C83 1.247 . S
O81 Zn75 2.035 . S
O81 C83 1.258 . S
C82 O76 1.247 . S
C82 O77 1.258 . S
C83 O80 1.247 . S
C83 O81 1.258 . S
H84 C90 0.930 . S
H85 C93 0.931 . S
H86 C95 0.931 . S
H87 C97 0.930 . S
H88 C99 0.930 . S
H89 C101 0.931 . S
C90 H84 0.930 . S
C90 C91 1.380 . S
C90 C92 1.394 . S
C91 C90 1.380 . S
C91 C95 1.382 . S
C92 C90 1.394 . S
C92 C93 1.400 . S
C93 H85 0.931 . S
C93 C92 1.400 . S
C93 C94 1.375 . S
C94 C93 1.375 . S
C94 C95 1.415 . S
C94 C96 1.501 . S
C95 H86 0.931 . S
C95 C91 1.382 . S
C95 C94 1.415 . S
C96 C94 1.501 . S
C96 C97 1.384 . S
C96 C101 1.408 . S
C97 H87 0.930 . S
C97 C96 1.384 . S
C97 C98 1.389 . S
C98 C97 1.389 . S
C98 C99 1.405 . S
C99 H88 0.930 . S
C99 C98 1.405 . S
C99 C100 1.364 . S
C100 C99 1.364 . S
C100 C101 1.400 . S
C101 H89 0.931 . S
C101 C96 1.408 . S
C101 C100 1.400 . S
H102 C108 0.930 . S
H103 C111 0.931 . S
H104 C113 0.931 . S
H105 C115 0.930 . S
H106 C117 0.930 . S
H107 C119 0.931 . S
C108 H102 0.930 . S
C108 C109 1.380 . S
C108 C110 1.394 . S
C109 C108 1.380 . S
C109 C113 1.382 . S
C110 C108 1.394 . S
C110 C111 1.400 . S
C111 H103 0.931 . S
C111 C110 1.400 . S
C111 C112 1.375 . S
C112 C111 1.375 . S
C112 C113 1.415 . S
C112 C114 1.501 . S
C113 H104 0.931 . S
C113 C109 1.382 . S
C113 C112 1.415 . S
C114 C112 1.501 . S
C114 C115 1.384 . S
C114 C119 1.408 . S
C115 H105 0.930 . S
C115 C114 1.384 . S
C115 C116 1.389 . S
C116 C115 1.389 . S
C116 C117 1.405 . S
C117 H106 0.930 . S
C117 C116 1.405 . S
C117 C118 1.364 . S
C118 C117 1.364 . S
C118 C119 1.400 . S
C119 H107 0.931 . S
C119 C114 1.408 . S
C119 C118 1.400 . S
H120 C126 0.930 . S
H121 C129 0.931 . S
H122 C131 0.931 . S
H123 C133 0.930 . S
H124 C135 0.930 . S
H125 C137 0.931 . S
C126 H120 0.930 . S
C126 C127 1.380 . S
C126 C128 1.394 . S
C127 C126 1.380 . S
C127 C131 1.382 . S
C128 C126 1.394 . S
C128 C129 1.400 . S
C129 H121 0.931 . S
C129 C128 1.400 . S
C129 C130 1.375 . S
C130 C129 1.375 . S
C130 C131 1.415 . S
C130 C132 1.501 . S
C131 H122 0.931 . S
C131 C127 1.382 . S
C131 C130 1.415 . S
C132 C130 1.501 . S
C132 C133 1.384 . S
C132 C137 1.408 . S
C133 H123 0.930 . S
C133 C132 1.384 . S
C133 C134 1.389 . S
C134 C133 1.389 . S
C134 C135 1.405 . S
C135 H124 0.930 . S
C135 C134 1.405 . S
C135 C136 1.364 . S
C136 C135 1.364 . S
C136 C137 1.400 . S
C137 H125 0.931 . S
C137 C132 1.408 . S
C137 C136 1.400 . S
H138 C144 0.930 . S
H139 C147 0.931 . S
H140 C149 0.931 . S
H141 C151 0.930 . S
H142 C153 0.930 . S
H143 C155 0.931 . S
C144 H138 0.930 . S
C144 C145 1.380 . S
C144 C146 1.394 . S
C145 C144 1.380 . S
C145 C149 1.382 . S
C146 C144 1.394 . S
C146 C147 1.400 . S
C147 H139 0.931 . S
C147 C146 1.400 . S
C147 C148 1.375 . S
C148 C147 1.375 . S
C148 C149 1.415 . S
C148 C150 1.501 . S
C149 H140 0.931 . S
C149 C145 1.382 . S
C149 C148 1.415 . S
C150 C148 1.501 . S
C150 C151 1.384 . S
C150 C155 1.408 . S
C151 H141 0.930 . S
C151 C150 1.384 . S
C151 C152 1.389 . S
C152 C151 1.389 . S
C152 C153 1.405 . S
C153 H142 0.930 . S
C153 C152 1.405 . S
C153 C154 1.364 . S
C154 C153 1.364 . S
C154 C155 1.400 . S
C155 H143 0.931 . S
C155 C150 1.408 . S
C155 C154 1.400 . S
H156 C162 0.930 . S
H157 C165 0.931 . S
H158 C167 0.931 . S
H159 C169 0.930 . S
H160 C171 0.930 . S
H161 C173 0.931 . S
C162 H156 0.930 . S
C162 C163 1.380 . S
C162 C164 1.394 . S
C163 C162 1.380 . S
C163 C167 1.382 . S
C164 C162 1.394 . S
C164 C165 1.400 . S
C165 H157 0.931 . S
C165 C164 1.400 . S
C165 C166 1.375 . S
C166 C165 1.375 . S
C166 C167 1.415 . S
C166 C168 1.501 . S
C167 H158 0.931 . S
C167 C163 1.382 . S
C167 C166 1.415 . S
C168 C166 1.501 . S
C168 C169 1.384 . S
C168 C173 1.408 . S
C169 H159 0.930 . S
C169 C168 1.384 . S
C169 C170 1.389 . S
C170 C169 1.389 . S
C170 C171 1.405 . S
C171 H160 0.930 . S
C171 C170 1.405 . S
C171 C172 1.364 . S
C172 C171 1.364 . S
C172 C173 1.400 . S
C173 H161 0.931 . S
C173 C168 1.408 . S
C173 C172 1.400 . S
H174 C180 0.930 . S
H175 C183 0.931 . S
H176 C185 0.931 . S
H177 C187 0.930 . S
H178 C189 0.930 . S
H179 C191 0.931 . S
C180 H174 0.930 . S
C180 C181 1.380 . S
C180 C182 1.394 . S
C181 C180 1.380 . S
C181 C185 1.382 . S
C182 C180 1.394 . S
C182 C183 1.400 . S
C183 H175 0.931 . S
C183 C182 1.400 . S
C183 C184 1.375 . S
C184 C183 1.375 . S
C184 C185 1.415 . S
C184 C186 1.501 . S
C185 H176 0.931 . S
C185 C181 1.382 . S
C185 C184 1.415 . S
C186 C184 1.501 . S
C186 C187 1.384 . S
C186 C191 1.408 . S
C187 H177 0.930 . S
C187 C186 1.384 . S
C187 C188 1.389 . S
C188 C187 1.389 . S
C188 C189 1.405 . S
C189 H178 0.930 . S
C189 C188 1.405 . S
C189 C190 1.364 . S
C190 C189 1.364 . S
C190 C191 1.400 . S
C191 H179 0.931 . S
C191 C186 1.408 . S
C191 C190 1.400 . S
H192 C200 0.929 . S
H193 C202 0.930 . S
H194 C204 0.930 . S
H195 C207 0.929 . S
H196 C210 0.930 . S
H197 C212 0.960 . S
H198 C212 0.960 . S
H199 C212 0.960 . S
C200 H192 0.929 . S
C200 C201 1.377 . S
C200 C202 1.384 . S
C201 C200 1.377 . S
C201 C207 1.390 . S
C202 H193 0.930 . S
C202 C200 1.384 . S
C202 C203 1.372 . S
C203 C202 1.372 . S
C203 C204 1.400 . S
C203 C208 1.490 . S
C204 H194 0.930 . S
C204 C203 1.400 . S
C204 C207 1.386 . S
H205 C221 0.930 . S
H206 C222 0.931 . S
C207 H195 0.929 . S
C207 C201 1.390 . S
C207 C204 1.386 . S
C208 C203 1.490 . S
C208 C210 1.395 . S
C208 C211 1.403 . S
H209 C215 0.930 . S
C210 H196 0.930 . S
C210 C208 1.395 . S
C210 C213 1.403 . S
C211 C208 1.403 . S
C211 C212 1.524 . S
C211 C215 1.400 . S
C212 H197 0.960 . S
C212 H198 0.960 . S
C212 H199 0.960 . S
C212 C211 1.524 . S
C213 C210 1.403 . S
C213 C214 1.392 . S
C213 C217 1.495 . S
C214 C213 1.392 . S
C214 C215 1.385 . S
C214 C216 1.478 . S
C215 H209 0.930 . S
C215 C211 1.400 . S
C215 C214 1.385 . S
C216 C214 1.478 . S
C216 C218 1.381 . S
C216 C222 1.383 . S
C217 C213 1.495 . S
C217 H223 0.959 . S
C217 H224 0.961 . S
C217 H225 0.960 . S
C218 C216 1.381 . S
C218 C219 1.394 . S
C218 H226 0.930 . S
C219 C218 1.394 . S
C219 C220 1.383 . S
C219 H227 0.929 . S
C220 C219 1.383 . S
C220 C221 1.377 . S
C221 H205 0.930 . S
C221 C220 1.377 . S
C221 C222 1.379 . S
C222 H206 0.931 . S
C222 C216 1.383 . S
C222 C221 1.379 . S
H223 C217 0.959 . S
H224 C217 0.961 . S
H225 C217 0.960 . S
H226 C218 0.930 . S
H227 C219 0.929 . S
H228 C236 0.929 . S
H229 C238 0.930 . S
H230 C240 0.930 . S
H231 C243 0.929 . S
H232 C246 0.930 . S
H233 C248 0.960 . S
H234 C248 0.960 . S
H235 C248 0.960 . S
C236 H228 0.929 . S
C236 C237 1.377 . S
C236 C238 1.384 . S
C237 C236 1.377 . S
C237 C243 1.390 . S
C238 H229 0.930 . S
C238 C236 1.384 . S
C238 C239 1.372 . S
C239 C238 1.372 . S
C239 C240 1.400 . S
C239 C244 1.490 . S
C240 H230 0.930 . S
C240 C239 1.400 . S
C240 C243 1.386 . S
H241 C257 0.930 . S
H242 C258 0.931 . S
C243 H231 0.929 . S
C243 C237 1.390 . S
C243 C240 1.386 . S
C244 C239 1.490 . S
C244 C246 1.395 . S
C244 C247 1.403 . S
H245 C251 0.930 . S
C246 H232 0.930 . S
C246 C244 1.395 . S
C246 C249 1.403 . S
C247 C244 1.403 . S
C247 C248 1.524 . S
C247 C251 1.400 . S
C248 H233 0.960 . S
C248 H234 0.960 . S
C248 H235 0.960 . S
C248 C247 1.524 . S
C249 C246 1.403 . S
C249 C250 1.392 . S
C249 C253 1.495 . S
C250 C249 1.392 . S
C250 C251 1.385 . S
C250 C252 1.478 . S
C251 H245 0.930 . S
C251 C247 1.400 . S
C251 C250 1.385 . S
C252 C250 1.478 . S
C252 C254 1.381 . S
C252 C258 1.383 . S
C253 C249 1.495 . S
C253 H259 0.959 . S
C253 H260 0.961 . S
C253 H261 0.960 . S
C254 C252 1.381 . S
C254 C255 1.394 . S
C254 H262 0.930 . S
C255 C254 1.394 . S
C255 C256 1.383 . S
C255 H263 0.929 . S
C256 C255 1.383 . S
C256 C257 1.377 . S
C257 H241 0.930 . S
C257 C256 1.377 . S
C257 C258 1.379 . S
C258 H242 0.931 . S
C258 C252 1.383 . S
C258 C257 1.379 . S
H259 C253 0.959 . S
H260 C253 0.961 . S
H261 C253 0.960 . S
H262 C254 0.930 . S
H263 C255 0.929 . S
H264 C272 0.929 . S
H265 C274 0.930 . S
H266 C276 0.930 . S
H267 C279 0.929 . S
H268 C282 0.930 . S
H269 C284 0.960 . S
H270 C284 0.960 . S
H271 C284 0.960 . S
C272 H264 0.929 . S
C272 C273 1.377 . S
C272 C274 1.384 . S
C273 C272 1.377 . S
C273 C279 1.390 . S
C274 H265 0.930 . S
C274 C272 1.384 . S
C274 C275 1.372 . S
C275 C274 1.372 . S
C275 C276 1.400 . S
C275 C280 1.490 . S
C276 H266 0.930 . S
C276 C275 1.400 . S
C276 C279 1.386 . S
H277 C293 0.930 . S
H278 C294 0.931 . S
C279 H267 0.929 . S
C279 C273 1.390 . S
C279 C276 1.386 . S
C280 C275 1.490 . S
C280 C282 1.395 . S
C280 C283 1.403 . S
H281 C287 0.930 . S
C282 H268 0.930 . S
C282 C280 1.395 . S
C282 C285 1.403 . S
C283 C280 1.403 . S
C283 C284 1.524 . S
C283 C287 1.400 . S
C284 H269 0.960 . S
C284 H270 0.960 . S
C284 H271 0.960 . S
C284 C283 1.524 . S
C285 C282 1.403 . S
C285 C286 1.392 . S
C285 C289 1.495 . S
C286 C285 1.392 . S
C286 C287 1.385 . S
C286 C288 1.478 . S
C287 H281 0.930 . S
C287 C283 1.400 . S
C287 C286 1.385 . S
C288 C286 1.478 . S
C288 C290 1.381 . S
C288 C294 1.383 . S
C289 C285 1.495 . S
C289 H295 0.959 . S
C289 H296 0.961 . S
C289 H297 0.960 . S
C290 C288 1.381 . S
C290 C291 1.394 . S
C290 H298 0.930 . S
C291 C290 1.394 . S
C291 C292 1.383 . S
C291 H299 0.929 . S
C292 C291 1.383 . S
C292 C293 1.377 . S
C293 H277 0.930 . S
C293 C292 1.377 . S
C293 C294 1.379 . S
C294 H278 0.931 . S
C294 C288 1.383 . S
C294 C293 1.379 . S
H295 C289 0.959 . S
H296 C289 0.961 . S
H297 C289 0.960 . S
H298 C290 0.930 . S
H299 C291 0.929 . S
H300 C308 0.929 . S
H301 C310 0.930 . S
H302 C312 0.930 . S
H303 C315 0.929 . S
H304 C318 0.930 . S
H305 C320 0.960 . S
H306 C320 0.960 . S
H307 C320 0.960 . S
C308 H300 0.929 . S
C308 C309 1.377 . S
C308 C310 1.384 . S
C309 C308 1.377 . S
C309 C315 1.390 . S
C310 H301 0.930 . S
C310 C308 1.384 . S
C310 C311 1.372 . S
C311 C310 1.372 . S
C311 C312 1.400 . S
C311 C316 1.490 . S
C312 H302 0.930 . S
C312 C311 1.400 . S
C312 C315 1.386 . S
H313 C329 0.930 . S
H314 C330 0.931 . S
C315 H303 0.929 . S
C315 C309 1.390 . S
C315 C312 1.386 . S
C316 C311 1.490 . S
C316 C318 1.395 . S
C316 C319 1.403 . S
H317 C323 0.930 . S
C318 H304 0.930 . S
C318 C316 1.395 . S
C318 C321 1.403 . S
C319 C316 1.403 . S
C319 C320 1.524 . S
C319 C323 1.400 . S
C320 H305 0.960 . S
C320 H306 0.960 . S
C320 H307 0.960 . S
C320 C319 1.524 . S
C321 C318 1.403 . S
C321 C322 1.392 . S
C321 C325 1.495 . S
C322 C321 1.392 . S
C322 C323 1.385 . S
C322 C324 1.478 . S
C323 H317 0.930 . S
C323 C319 1.400 . S
C323 C322 1.385 . S
C324 C322 1.478 . S
C324 C326 1.381 . S
C324 C330 1.383 . S
C325 C321 1.495 . S
C325 H331 0.959 . S
C325 H332 0.961 . S
C325 H333 0.960 . S
C326 C324 1.381 . S
C326 C327 1.394 . S
C326 H334 0.930 . S
C327 C326 1.394 . S
C327 C328 1.383 . S
C327 H335 0.929 . S
C328 C327 1.383 . S
C328 C329 1.377 . S
C329 H313 0.930 . S
C329 C328 1.377 . S
C329 C330 1.379 . S
C330 H314 0.931 . S
C330 C324 1.383 . S
C330 C329 1.379 . S
H331 C325 0.959 . S
H332 C325 0.961 . S
H333 C325 0.960 . S
H334 C326 0.930 . S
H335 C327 0.929 . S
H336 C344 0.929 . S
H337 C346 0.930 . S
H338 C348 0.930 . S
H339 C351 0.929 . S
H340 C354 0.930 . S
H341 C356 0.960 . S
H342 C356 0.960 . S
H343 C356 0.960 . S
C344 H336 0.929 . S
C344 C345 1.377 . S
C344 C346 1.384 . S
C345 C344 1.377 . S
C345 C351 1.390 . S
C346 H337 0.930 . S
C346 C344 1.384 . S
C346 C347 1.372 . S
C347 C346 1.372 . S
C347 C348 1.400 . S
C347 C352 1.490 . S
C348 H338 0.930 . S
C348 C347 1.400 . S
C348 C351 1.386 . S
H349 C365 0.930 . S
H350 C366 0.931 . S
C351 H339 0.929 . S
C351 C345 1.390 . S
C351 C348 1.386 . S
C352 C347 1.490 . S
C352 C354 1.395 . S
C352 C355 1.403 . S
H353 C359 0.930 . S
C354 H340 0.930 . S
C354 C352 1.395 . S
C354 C357 1.403 . S
C355 C352 1.403 . S
C355 C356 1.524 . S
C355 C359 1.400 . S
C356 H341 0.960 . S
C356 H342 0.960 . S
C356 H343 0.960 . S
C356 C355 1.524 . S
C357 C354 1.403 . S
C357 C358 1.392 . S
C357 C361 1.495 . S
C358 C357 1.392 . S
C358 C359 1.385 . S
C358 C360 1.478 . S
C359 H353 0.930 . S
C359 C355 1.400 . S
C359 C358 1.385 . S
C360 C358 1.478 . S
C360 C362 1.381 . S
C360 C366 1.383 . S
C361 C357 1.495 . S
C361 H367 0.959 . S
C361 H368 0.961 . S
C361 H369 0.960 . S
C362 C360 1.381 . S
C362 C363 1.394 . S
C362 H370 0.930 . S
C363 C362 1.394 . S
C363 C364 1.383 . S
C363 H371 0.929 . S
C364 C363 1.383 . S
C364 C365 1.377 . S
C365 H349 0.930 . S
C365 C364 1.377 . S
C365 C366 1.379 . S
C366 H350 0.931 . S
C366 C360 1.383 . S
C366 C365 1.379 . S
H367 C361 0.959 . S
H368 C361 0.961 . S
H369 C361 0.960 . S
H370 C362 0.930 . S
H371 C363 0.929 . S
H372 C380 0.929 . S
H373 C382 0.930 . S
H374 C384 0.930 . S
H375 C387 0.929 . S
H376 C390 0.930 . S
H377 C392 0.960 . S
H378 C392 0.960 . S
H379 C392 0.960 . S
C380 H372 0.929 . S
C380 C381 1.377 . S
C380 C382 1.384 . S
C381 C380 1.377 . S
C381 C387 1.390 . S
C382 H373 0.930 . S
C382 C380 1.384 . S
C382 C383 1.372 . S
C383 C382 1.372 . S
C383 C384 1.400 . S
C383 C388 1.490 . S
C384 H374 0.930 . S
C384 C383 1.400 . S
C384 C387 1.386 . S
H385 C401 0.930 . S
H386 C402 0.931 . S
C387 H375 0.929 . S
C387 C381 1.390 . S
C387 C384 1.386 . S
C388 C383 1.490 . S
C388 C390 1.395 . S
C388 C391 1.403 . S
H389 C395 0.930 . S
C390 H376 0.930 . S
C390 C388 1.395 . S
C390 C393 1.403 . S
C391 C388 1.403 . S
C391 C392 1.524 . S
C391 C395 1.400 . S
C392 H377 0.960 . S
C392 H378 0.960 . S
C392 H379 0.960 . S
C392 C391 1.524 . S
C393 C390 1.403 . S
C393 C394 1.392 . S
C393 C397 1.495 . S
C394 C393 1.392 . S
C394 C395 1.385 . S
C394 C396 1.478 . S
C395 H389 0.930 . S
C395 C391 1.400 . S
C395 C394 1.385 . S
C396 C394 1.478 . S
C396 C398 1.381 . S
C396 C402 1.383 . S
C397 C393 1.495 . S
C397 H403 0.959 . S
C397 H404 0.961 . S
C397 H405 0.960 . S
C398 C396 1.381 . S
C398 C399 1.394 . S
C398 H406 0.930 . S
C399 C398 1.394 . S
C399 C400 1.383 . S
C399 H407 0.929 . S
C400 C399 1.383 . S
C400 C401 1.377 . S
C401 H385 0.930 . S
C401 C400 1.377 . S
C401 C402 1.379 . S
C402 H386 0.931 . S
C402 C396 1.383 . S
C402 C401 1.379 . S
H403 C397 0.959 . S
H404 C397 0.961 . S
H405 C397 0.960 . S
H406 C398 0.930 . S
H407 C399 0.929 . S
H408 C416 0.929 . S
H409 C418 0.930 . S
H410 C420 0.930 . S
H411 C423 0.929 . S
H412 C426 0.930 . S
H413 C428 0.960 . S
H414 C428 0.960 . S
H415 C428 0.960 . S
C416 H408 0.929 . S
C416 C417 1.377 . S
C416 C418 1.384 . S
C417 C416 1.377 . S
C417 C423 1.390 . S
C418 H409 0.930 . S
C418 C416 1.384 . S
C418 C419 1.372 . S
C419 C418 1.372 . S
C419 C420 1.400 . S
C419 C424 1.490 . S
C420 H410 0.930 . S
C420 C419 1.400 . S
C420 C423 1.386 . S
H421 C437 0.930 . S
H422 C438 0.931 . S
C423 H411 0.929 . S
C423 C417 1.390 . S
C423 C420 1.386 . S
C424 C419 1.490 . S
C424 C426 1.395 . S
C424 C427 1.403 . S
H425 C431 0.930 . S
C426 H412 0.930 . S
C426 C424 1.395 . S
C426 C429 1.403 . S
C427 C424 1.403 . S
C427 C428 1.524 . S
C427 C431 1.400 . S
C428 H413 0.960 . S
C428 H414 0.960 . S
C428 H415 0.960 . S
C428 C427 1.524 . S
C429 C426 1.403 . S
C429 C430 1.392 . S
C429 C433 1.495 . S
C430 C429 1.392 . S
C430 C431 1.385 . S
C430 C432 1.478 . S
C431 H425 0.930 . S
C431 C427 1.400 . S
C431 C430 1.385 . S
C432 C430 1.478 . S
C432 C434 1.381 . S
C432 C438 1.383 . S
C433 C429 1.495 . S
C433 H439 0.959 . S
C433 H440 0.961 . S
C433 H441 0.960 . S
C434 C432 1.381 . S
C434 C435 1.394 . S
C434 H442 0.930 . S
C435 C434 1.394 . S
C435 C436 1.383 . S
C435 H443 0.929 . S
C436 C435 1.383 . S
C436 C437 1.377 . S
C437 H421 0.930 . S
C437 C436 1.377 . S
C437 C438 1.379 . S
C438 H422 0.931 . S
C438 C432 1.383 . S
C438 C437 1.379 . S
H439 C433 0.959 . S
H440 C433 0.961 . S
H441 C433 0.960 . S
H442 C434 0.930 . S
H443 C435 0.929 . S
H444 C452 0.929 . S
H445 C454 0.930 . S
H446 C456 0.930 . S
H447 C459 0.929 . S
H448 C462 0.930 . S
H449 C464 0.960 . S
H450 C464 0.960 . S
H451 C464 0.960 . S
C452 H444 0.929 . S
C452 C453 1.377 . S
C452 C454 1.384 . S
C453 C452 1.377 . S
C453 C459 1.390 . S
C454 H445 0.930 . S
C454 C452 1.384 . S
C454 C455 1.372 . S
C455 C454 1.372 . S
C455 C456 1.400 . S
C455 C460 1.490 . S
C456 H446 0.930 . S
C456 C455 1.400 . S
C456 C459 1.386 . S
H457 C473 0.930 . S
H458 C474 0.931 . S
C459 H447 0.929 . S
C459 C453 1.390 . S
C459 C456 1.386 . S
C460 C455 1.490 . S
C460 C462 1.395 . S
C460 C463 1.403 . S
H461 C467 0.930 . S
C462 H448 0.930 . S
C462 C460 1.395 . S
C462 C465 1.403 . S
C463 C460 1.403 . S
C463 C464 1.524 . S
C463 C467 1.400 . S
C464 H449 0.960 . S
C464 H450 0.960 . S
C464 H451 0.960 . S
C464 C463 1.524 . S
C465 C462 1.403 . S
C465 C466 1.392 . S
C465 C469 1.495 . S
C466 C465 1.392 . S
C466 C467 1.385 . S
C466 C468 1.478 . S
C467 H461 0.930 . S
C467 C463 1.400 . S
C467 C466 1.385 . S
C468 C466 1.478 . S
C468 C470 1.381 . S
C468 C474 1.383 . S
C469 C465 1.495 . S
C469 H475 0.959 . S
C469 H476 0.961 . S
C469 H477 0.960 . S
C470 C468 1.381 . S
C470 C471 1.394 . S
C470 H478 0.930 . S
C471 C470 1.394 . S
C471 C472 1.383 . S
C471 H479 0.929 . S
C472 C471 1.383 . S
C472 C473 1.377 . S
C473 H457 0.930 . S
C473 C472 1.377 . S
C473 C474 1.379 . S
C474 H458 0.931 . S
C474 C468 1.383 . S
C474 C473 1.379 . S
H475 C469 0.959 . S
H476 C469 0.961 . S
H477 C469 0.960 . S
H478 C470 0.930 . S
H479 C471 0.929 . S
H480 C488 0.929 . S
H481 C490 0.930 . S
H482 C492 0.930 . S
H483 C495 0.929 . S
H484 C498 0.930 . S
H485 C500 0.960 . S
H486 C500 0.960 . S
H487 C500 0.960 . S
C488 H480 0.929 . S
C488 C489 1.377 . S
C488 C490 1.384 . S
C489 C488 1.377 . S
C489 C495 1.390 . S
C490 H481 0.930 . S
C490 C488 1.384 . S
C490 C491 1.372 . S
C491 C490 1.372 . S
C491 C492 1.400 . S
C491 C496 1.490 . S
C492 H482 0.930 . S
C492 C491 1.400 . S
C492 C495 1.386 . S
H493 C509 0.930 . S
H494 C510 0.931 . S
C495 H483 0.929 . S
C495 C489 1.390 . S
C495 C492 1.386 . S
C496 C491 1.490 . S
C496 C498 1.395 . S
C496 C499 1.403 . S
H497 C503 0.930 . S
C498 H484 0.930 . S
C498 C496 1.395 . S
C498 C501 1.403 . S
C499 C496 1.403 . S
C499 C500 1.524 . S
C499 C503 1.400 . S
C500 H485 0.960 . S
C500 H486 0.960 . S
C500 H487 0.960 . S
C500 C499 1.524 . S
C501 C498 1.403 . S
C501 C502 1.392 . S
C501 C505 1.495 . S
C502 C501 1.392 . S
C502 C503 1.385 . S
C502 C504 1.478 . S
C503 H497 0.930 . S
C503 C499 1.400 . S
C503 C502 1.385 . S
C504 C502 1.478 . S
C504 C506 1.381 . S
C504 C510 1.383 . S
C505 C501 1.495 . S
C505 H511 0.959 . S
C505 H512 0.961 . S
C505 H513 0.960 . S
C506 C504 1.381 . S
C506 C507 1.394 . S
C506 H514 0.930 . S
C507 C506 1.394 . S
C507 C508 1.383 . S
C507 H515 0.929 . S
C508 C507 1.383 . S
C508 C509 1.377 . S
C509 H493 0.930 . S
C509 C508 1.377 . S
C509 C510 1.379 . S
C510 H494 0.931 . S
C510 C504 1.383 . S
C510 C509 1.379 . S
H511 C505 0.959 . S
H512 C505 0.961 . S
H513 C505 0.960 . S
H514 C506 0.930 . S
H515 C507 0.929 . S
H516 C524 0.929 . S
H517 C526 0.930 . S
H518 C528 0.930 . S
H519 C531 0.929 . S
H520 C534 0.930 . S
H521 C536 0.960 . S
H522 C536 0.960 . S
H523 C536 0.960 . S
C524 H516 0.929 . S
C524 C525 1.377 . S
C524 C526 1.384 . S
C525 C524 1.377 . S
C525 C531 1.390 . S
C526 H517 0.930 . S
C526 C524 1.384 . S
C526 C527 1.372 . S
C527 C526 1.372 . S
C527 C528 1.400 . S
C527 C532 1.490 . S
C528 H518 0.930 . S
C528 C527 1.400 . S
C528 C531 1.386 . S
H529 C545 0.930 . S
H530 C546 0.931 . S
C531 H519 0.929 . S
C531 C525 1.390 . S
C531 C528 1.386 . S
C532 C527 1.490 . S
C532 C534 1.395 . S
C532 C535 1.403 . S
H533 C539 0.930 . S
C534 H520 0.930 . S
C534 C532 1.395 . S
C534 C537 1.403 . S
C535 C532 1.403 . S
C535 C536 1.524 . S
C535 C539 1.400 . S
C536 H521 0.960 . S
C536 H522 0.960 . S
C536 H523 0.960 . S
C536 C535 1.524 . S
C537 C534 1.403 . S
C537 C538 1.392 . S
C537 C541 1.495 . S
C538 C537 1.392 . S
C538 C539 1.385 . S
C538 C540 1.478 . S
C539 H533 0.930 . S
C539 C535 1.400 . S
C539 C538 1.385 . S
C540 C538 1.478 . S
C540 C542 1.381 . S
C540 C546 1.383 . S
C541 C537 1.495 . S
C541 H547 0.959 . S
C541 H548 0.961 . S
C541 H549 0.960 . S
C542 C540 1.381 . S
C542 C543 1.394 . S
C542 H550 0.930 . S
C543 C542 1.394 . S
C543 C544 1.383 . S
C543 H551 0.929 . S
C544 C543 1.383 . S
C544 C545 1.377 . S
C545 H529 0.930 . S
C545 C544 1.377 . S
C545 C546 1.379 . S
C546 H530 0.931 . S
C546 C540 1.383 . S
C546 C545 1.379 . S
H547 C541 0.959 . S
H548 C541 0.961 . S
H549 C541 0.960 . S
H550 C542 0.930 . S
H551 C543 0.929 . S
H552 C560 0.929 . S
H553 C562 0.930 . S
H554 C564 0.930 . S
H555 C567 0.929 . S
H556 C570 0.930 . S
H557 C572 0.960 . S
H558 C572 0.960 . S
H559 C572 0.960 . S
C560 H552 0.929 . S
C560 C561 1.377 . S
C560 C562 1.384 . S
C561 C560 1.377 . S
C561 C567 1.390 . S
C562 H553 0.930 . S
C562 C560 1.384 . S
C562 C563 1.372 . S
C563 C562 1.372 . S
C563 C564 1.400 . S
C563 C568 1.490 . S
C564 H554 0.930 . S
C564 C563 1.400 . S
C564 C567 1.386 . S
H565 C581 0.930 . S
H566 C582 0.931 . S
C567 H555 0.929 . S
C567 C561 1.390 . S
C567 C564 1.386 . S
C568 C563 1.490 . S
C568 C570 1.395 . S
C568 C571 1.403 . S
H569 C575 0.930 . S
C570 H556 0.930 . S
C570 C568 1.395 . S
C570 C573 1.403 . S
C571 C568 1.403 . S
C571 C572 1.524 . S
C571 C575 1.400 . S
C572 H557 0.960 . S
C572 H558 0.960 . S
C572 H559 0.960 . S
C572 C571 1.524 . S
C573 C570 1.403 . S
C573 C574 1.392 . S
C573 C577 1.495 . S
C574 C573 1.392 . S
C574 C575 1.385 . S
C574 C576 1.478 . S
C575 H569 0.930 . S
C575 C571 1.400 . S
C575 C574 1.385 . S
C576 C574 1.478 . S
C576 C578 1.381 . S
C576 C582 1.383 . S
C577 C573 1.495 . S
C577 H583 0.959 . S
C577 H584 0.961 . S
C577 H585 0.960 . S
C578 C576 1.381 . S
C578 C579 1.394 . S
C578 H586 0.930 . S
C579 C578 1.394 . S
C579 C580 1.383 . S
C579 H587 0.929 . S
C580 C579 1.383 . S
C580 C581 1.377 . S
C581 H565 0.930 . S
C581 C580 1.377 . S
C581 C582 1.379 . S
C582 H566 0.931 . S
C582 C576 1.383 . S
C582 C581 1.379 . S
H583 C577 0.959 . S
H584 C577 0.961 . S
H585 C577 0.960 . S
H586 C578 0.930 . S
H587 C579 0.929 . S
H588 C596 0.929 . S
H589 C598 0.930 . S
H590 C600 0.930 . S
H591 C603 0.929 . S
H592 C606 0.930 . S
H593 C608 0.960 . S
H594 C608 0.960 . S
H595 C608 0.960 . S
C596 H588 0.929 . S
C596 C597 1.377 . S
C596 C598 1.384 . S
C597 C596 1.377 . S
C597 C603 1.390 . S
C598 H589 0.930 . S
C598 C596 1.384 . S
C598 C599 1.372 . S
C599 C598 1.372 . S
C599 C600 1.400 . S
C599 C604 1.490 . S
C600 H590 0.930 . S
C600 C599 1.400 . S
C600 C603 1.386 . S
H601 C617 0.930 . S
H602 C618 0.931 . S
C603 H591 0.929 . S
C603 C597 1.390 . S
C603 C600 1.386 . S
C604 C599 1.490 . S
C604 C606 1.395 . S
C604 C607 1.403 . S
H605 C611 0.930 . S
C606 H592 0.930 . S
C606 C604 1.395 . S
C606 C609 1.403 . S
C607 C604 1.403 . S
C607 C608 1.524 . S
C607 C611 1.400 . S
C608 H593 0.960 . S
C608 H594 0.960 . S
C608 H595 0.960 . S
C608 C607 1.524 . S
C609 C606 1.403 . S
C609 C610 1.392 . S
C609 C613 1.495 . S
C610 C609 1.392 . S
C610 C611 1.385 . S
C610 C612 1.478 . S
C611 H605 0.930 . S
C611 C607 1.400 . S
C611 C610 1.385 . S
C612 C610 1.478 . S
C612 C614 1.381 . S
C612 C618 1.383 . S
C613 C609 1.495 . S
C613 H619 0.959 . S
C613 H620 0.961 . S
C613 H621 0.960 . S
C614 C612 1.381 . S
C614 C615 1.394 . S
C614 H622 0.930 . S
C615 C614 1.394 . S
C615 C616 1.383 . S
C615 H623 0.929 . S
C616 C615 1.383 . S
C616 C617 1.377 . S
C617 H601 0.930 . S
C617 C616 1.377 . S
C617 C618 1.379 . S
C618 H602 0.931 . S
C618 C612 1.383 . S
C618 C617 1.379 . S
H619 C613 0.959 . S
H620 C613 0.961 . S
H621 C613 0.960 . S
H622 C614 0.930 . S
H623 C615 0.929 . S
H624 C632 0.929 . S
H625 C634 0.930 . S
H626 C636 0.930 . S
H627 C639 0.929 . S
H628 C642 0.930 . S
H629 C644 0.960 . S
H630 C644 0.960 . S
H631 C644 0.960 . S
C632 H624 0.929 . S
C632 C633 1.377 . S
C632 C634 1.384 . S
C633 C632 1.377 . S
C633 C639 1.390 . S
C634 H625 0.930 . S
C634 C632 1.384 . S
C634 C635 1.372 . S
C635 C634 1.372 . S
C635 C636 1.400 . S
C635 C640 1.490 . S
C636 H626 0.930 . S
C636 C635 1.400 . S
C636 C639 1.386 . S
H637 C653 0.930 . S
H638 C654 0.931 . S
C639 H627 0.929 . S
C639 C633 1.390 . S
C639 C636 1.386 . S
C640 C635 1.490 . S
C640 C642 1.395 . S
C640 C643 1.403 . S
H641 C647 0.930 . S
C642 H628 0.930 . S
C642 C640 1.395 . S
C642 C645 1.403 . S
C643 C640 1.403 . S
C643 C644 1.524 . S
C643 C647 1.400 . S
C644 H629 0.960 . S
C644 H630 0.960 . S
C644 H631 0.960 . S
C644 C643 1.524 . S
C645 C642 1.403 . S
C645 C646 1.392 . S
C645 C649 1.495 . S
C646 C645 1.392 . S
C646 C647 1.385 . S
C646 C648 1.478 . S
C647 H641 0.930 . S
C647 C643 1.400 . S
C647 C646 1.385 . S
C648 C646 1.478 . S
C648 C650 1.381 . S
C648 C654 1.383 . S
C649 C645 1.495 . S
C649 H655 0.959 . S
C649 H656 0.961 . S
C649 H657 0.960 . S
C650 C648 1.381 . S
C650 C651 1.394 . S
C650 H658 0.930 . S
C651 C650 1.394 . S
C651 C652 1.383 . S
C651 H659 0.929 . S
C652 C651 1.383 . S
C652 C653 1.377 . S
C653 H637 0.930 . S
C653 C652 1.377 . S
C653 C654 1.379 . S
C654 H638 0.931 . S
C654 C648 1.383 . S
C654 C653 1.379 . S
H655 C649 0.959 . S
H656 C649 0.961 . S
H657 C649 0.960 . S
H658 C650 0.930 . S
H659 C651 0.929 . S
H660 C668 0.929 . S
H661 C670 0.930 . S
H662 C672 0.930 . S
H663 C675 0.929 . S
H664 C678 0.930 . S
H665 C680 0.960 . S
H666 C680 0.960 . S
H667 C680 0.960 . S
C668 H660 0.929 . S
C668 C669 1.377 . S
C668 C670 1.384 . S
C669 C668 1.377 . S
C669 C675 1.390 . S
C670 H661 0.930 . S
C670 C668 1.384 . S
C670 C671 1.372 . S
C671 C670 1.372 . S
C671 C672 1.400 . S
C671 C676 1.490 . S
C672 H662 0.930 . S
C672 C671 1.400 . S
C672 C675 1.386 . S
H673 C689 0.930 . S
H674 C690 0.931 . S
C675 H663 0.929 . S
C675 C669 1.390 . S
C675 C672 1.386 . S
C676 C671 1.490 . S
C676 C678 1.395 . S
C676 C679 1.403 . S
H677 C683 0.930 . S
C678 H664 0.930 . S
C678 C676 1.395 . S
C678 C681 1.403 . S
C679 C676 1.403 . S
C679 C680 1.524 . S
C679 C683 1.400 . S
C680 H665 0.960 . S
C680 H666 0.960 . S
C680 H667 0.960 . S
C680 C679 1.524 . S
C681 C678 1.403 . S
C681 C682 1.392 . S
C681 C685 1.495 . S
C682 C681 1.392 . S
C682 C683 1.385 . S
C682 C684 1.478 . S
C683 H677 0.930 . S
C683 C679 1.400 . S
C683 C682 1.385 . S
C684 C682 1.478 . S
C684 C686 1.381 . S
C684 C690 1.383 . S
C685 C681 1.495 . S
C685 H691 0.959 . S
C685 H692 0.961 . S
C685 H693 0.960 . S
C686 C684 1.381 . S
C686 C687 1.394 . S
C686 H694 0.930 . S
C687 C686 1.394 . S
C687 C688 1.383 . S
C687 H695 0.929 . S
C688 C687 1.383 . S
C688 C689 1.377 . S
C689 H673 0.930 . S
C689 C688 1.377 . S
C689 C690 1.379 . S
C690 H674 0.931 . S
C690 C684 1.383 . S
C690 C689 1.379 . S
H691 C685 0.959 . S
H692 C685 0.961 . S
H693 C685 0.960 . S
H694 C686 0.930 . S
H695 C687 0.929 . S
H696 C704 0.929 . S
H697 C706 0.930 . S
H698 C708 0.930 . S
H699 C711 0.929 . S
H700 C714 0.930 . S
H701 C716 0.960 . S
H702 C716 0.960 . S
H703 C716 0.960 . S
C704 H696 0.929 . S
C704 C705 1.377 . S
C704 C706 1.384 . S
C705 C704 1.377 . S
C705 C711 1.390 . S
C706 H697 0.930 . S
C706 C704 1.384 . S
C706 C707 1.372 . S
C707 C706 1.372 . S
C707 C708 1.400 . S
C707 C712 1.490 . S
C708 H698 0.930 . S
C708 C707 1.400 . S
C708 C711 1.386 . S
H709 C725 0.930 . S
H710 C726 0.931 . S
C711 H699 0.929 . S
C711 C705 1.390 . S
C711 C708 1.386 . S
C712 C707 1.490 . S
C712 C714 1.395 . S
C712 C715 1.403 . S
H713 C719 0.930 . S
C714 H700 0.930 . S
C714 C712 1.395 . S
C714 C717 1.403 . S
C715 C712 1.403 . S
C715 C716 1.524 . S
C715 C719 1.400 . S
C716 H701 0.960 . S
C716 H702 0.960 . S
C716 H703 0.960 . S
C716 C715 1.524 . S
C717 C714 1.403 . S
C717 C718 1.392 . S
C717 C721 1.495 . S
C718 C717 1.392 . S
C718 C719 1.385 . S
C718 C720 1.478 . S
C719 H713 0.930 . S
C719 C715 1.400 . S
C719 C718 1.385 . S
C720 C718 1.478 . S
C720 C722 1.381 . S
C720 C726 1.383 . S
C721 C717 1.495 . S
C721 H727 0.959 . S
C721 H728 0.961 . S
C721 H729 0.960 . S
C722 C720 1.381 . S
C722 C723 1.394 . S
C722 H730 0.930 . S
C723 C722 1.394 . S
C723 C724 1.383 . S
C723 H731 0.929 . S
C724 C723 1.383 . S
C724 C725 1.377 . S
C725 H709 0.930 . S
C725 C724 1.377 . S
C725 C726 1.379 . S
C726 H710 0.931 . S
C726 C720 1.383 . S
C726 C725 1.379 . S
H727 C721 0.959 . S
H728 C721 0.961 . S
H729 C721 0.960 . S
H730 C722 0.930 . S
H731 C723 0.929 . S
H732 C740 0.929 . S
H733 C742 0.930 . S
H734 C744 0.930 . S
H735 C747 0.929 . S
H736 C750 0.930 . S
H737 C752 0.960 . S
H738 C752 0.960 . S
H739 C752 0.960 . S
C740 H732 0.929 . S
C740 C741 1.377 . S
C740 C742 1.384 . S
C741 C740 1.377 . S
C741 C747 1.390 . S
C742 H733 0.930 . S
C742 C740 1.384 . S
C742 C743 1.372 . S
C743 C742 1.372 . S
C743 C744 1.400 . S
C743 C748 1.490 . S
C744 H734 0.930 . S
C744 C743 1.400 . S
C744 C747 1.386 . S
H745 C761 0.930 . S
H746 C762 0.931 . S
C747 H735 0.929 . S
C747 C741 1.390 . S
C747 C744 1.386 . S
C748 C743 1.490 . S
C748 C750 1.395 . S
C748 C751 1.403 . S
H749 C755 0.930 . S
C750 H736 0.930 . S
C750 C748 1.395 . S
C750 C753 1.403 . S
C751 C748 1.403 . S
C751 C752 1.524 . S
C751 C755 1.400 . S
C752 H737 0.960 . S
C752 H738 0.960 . S
C752 H739 0.960 . S
C752 C751 1.524 . S
C753 C750 1.403 . S
C753 C754 1.392 . S
C753 C757 1.495 . S
C754 C753 1.392 . S
C754 C755 1.385 . S
C754 C756 1.478 . S
C755 H749 0.930 . S
C755 C751 1.400 . S
C755 C754 1.385 . S
C756 C754 1.478 . S
C756 C758 1.381 . S
C756 C762 1.383 . S
C757 C753 1.495 . S
C757 H763 0.959 . S
C757 H764 0.961 . S
C757 H765 0.960 . S
C758 C756 1.381 . S
C758 C759 1.394 . S
C758 H766 0.930 . S
C759 C758 1.394 . S
C759 C760 1.383 . S
C759 H767 0.929 . S
C760 C759 1.383 . S
C760 C761 1.377 . S
C761 H745 0.930 . S
C761 C760 1.377 . S
C761 C762 1.379 . S
C762 H746 0.931 . S
C762 C756 1.383 . S
C762 C761 1.379 . S
H763 C757 0.959 . S
H764 C757 0.961 . S
H765 C757 0.960 . S
H766 C758 0.930 . S
H767 C759 0.929 . S
H768 C776 0.929 . S
H769 C778 0.930 . S
H770 C780 0.930 . S
H771 C783 0.929 . S
H772 C786 0.930 . S
H773 C788 0.960 . S
H774 C788 0.960 . S
H775 C788 0.960 . S
C776 H768 0.929 . S
C776 C777 1.377 . S
C776 C778 1.384 . S
C777 C776 1.377 . S
C777 C783 1.390 . S
C778 H769 0.930 . S
C778 C776 1.384 . S
C778 C779 1.372 . S
C779 C778 1.372 . S
C779 C780 1.400 . S
C779 C784 1.490 . S
C780 H770 0.930 . S
C780 C779 1.400 . S
C780 C783 1.386 . S
H781 C797 0.930 . S
H782 C798 0.931 . S
C783 H771 0.929 . S
C783 C777 1.390 . S
C783 C780 1.386 . S
C784 C779 1.490 . S
C784 C786 1.395 . S
C784 C787 1.403 . S
H785 C791 0.930 . S
C786 H772 0.930 . S
C786 C784 1.395 . S
C786 C789 1.403 . S
C787 C784 1.403 . S
C787 C788 1.524 . S
C787 C791 1.400 . S
C788 H773 0.960 . S
C788 H774 0.960 . S
C788 H775 0.960 . S
C788 C787 1.524 . S
C789 C786 1.403 . S
C789 C790 1.392 . S
C789 C793 1.495 . S
C790 C789 1.392 . S
C790 C791 1.385 . S
C790 C792 1.478 . S
C791 H785 0.930 . S
C791 C787 1.400 . S
C791 C790 1.385 . S
C792 C790 1.478 . S
C792 C794 1.381 . S
C792 C798 1.383 . S
C793 C789 1.495 . S
C793 H799 0.959 . S
C793 H800 0.961 . S
C793 H801 0.960 . S
C794 C792 1.381 . S
C794 C795 1.394 . S
C794 H802 0.930 . S
C795 C794 1.394 . S
C795 C796 1.383 . S
C795 H803 0.929 . S
C796 C795 1.383 . S
C796 C797 1.377 . S
C797 H781 0.930 . S
C797 C796 1.377 . S
C797 C798 1.379 . S
C798 H782 0.931 . S
C798 C792 1.383 . S
C798 C797 1.379 . S
H799 C793 0.959 . S
H800 C793 0.961 . S
H801 C793 0.960 . S
H802 C794 0.930 . S
H803 C795 0.929 . S
H804 C812 0.929 . S
H805 C814 0.930 . S
H806 C816 0.930 . S
H807 C819 0.929 . S
H808 C822 0.930 . S
H809 C824 0.960 . S
H810 C824 0.960 . S
H811 C824 0.960 . S
C812 H804 0.929 . S
C812 C813 1.377 . S
C812 C814 1.384 . S
C813 C812 1.377 . S
C813 C819 1.390 . S
C814 H805 0.930 . S
C814 C812 1.384 . S
C814 C815 1.372 . S
C815 C814 1.372 . S
C815 C816 1.400 . S
C815 C820 1.490 . S
C816 H806 0.930 . S
C816 C815 1.400 . S
C816 C819 1.386 . S
H817 C833 0.930 . S
H818 C834 0.931 . S
C819 H807 0.929 . S
C819 C813 1.390 . S
C819 C816 1.386 . S
C820 C815 1.490 . S
C820 C822 1.395 . S
C820 C823 1.403 . S
H821 C827 0.930 . S
C822 H808 0.930 . S
C822 C820 1.395 . S
C822 C825 1.403 . S
C823 C820 1.403 . S
C823 C824 1.524 . S
C823 C827 1.400 . S
C824 H809 0.960 . S
C824 H810 0.960 . S
C824 H811 0.960 . S
C824 C823 1.524 . S
C825 C822 1.403 . S
C825 C826 1.392 . S
C825 C829 1.495 . S
C826 C825 1.392 . S
C826 C827 1.385 . S
C826 C828 1.478 . S
C827 H821 0.930 . S
C827 C823 1.400 . S
C827 C826 1.385 . S
C828 C826 1.478 . S
C828 C830 1.381 . S
C828 C834 1.383 . S
C829 C825 1.495 . S
C829 H835 0.959 . S
C829 H836 0.961 . S
C829 H837 0.960 . S
C830 C828 1.381 . S
C830 C831 1.394 . S
C830 H838 0.930 . S
C831 C830 1.394 . S
C831 C832 1.383 . S
C831 H839 0.929 . S
C832 C831 1.383 . S
C832 C833 1.377 . S
C833 H817 0.930 . S
C833 C832 1.377 . S
C833 C834 1.379 . S
C834 H818 0.931 . S
C834 C828 1.383 . S
C834 C833 1.379 . S
H835 C829 0.959 . S
H836 C829 0.961 . S
H837 C829 0.960 . S
H838 C830 0.930 . S
H839 C831 0.929 . S
H840 C848 0.929 . S
H841 C850 0.930 . S
H842 C852 0.930 . S
H843 C855 0.929 . S
H844 C858 0.930 . S
H845 C860 0.960 . S
H846 C860 0.960 . S
H847 C860 0.960 . S
C848 H840 0.929 . S
C848 C849 1.377 . S
C848 C850 1.384 . S
C849 C848 1.377 . S
C849 C855 1.390 . S
C850 H841 0.930 . S
C850 C848 1.384 . S
C850 C851 1.372 . S
C851 C850 1.372 . S
C851 C852 1.400 . S
C851 C856 1.490 . S
C852 H842 0.930 . S
C852 C851 1.400 . S
C852 C855 1.386 . S
H853 C869 0.930 . S
H854 C870 0.931 . S
C855 H843 0.929 . S
C855 C849 1.390 . S
C855 C852 1.386 . S
C856 C851 1.490 . S
C856 C858 1.395 . S
C856 C859 1.403 . S
H857 C863 0.930 . S
C858 H844 0.930 . S
C858 C856 1.395 . S
C858 C861 1.403 . S
C859 C856 1.403 . S
C859 C860 1.524 . S
C859 C863 1.400 . S
C860 H845 0.960 . S
C860 H846 0.960 . S
C860 H847 0.960 . S
C860 C859 1.524 . S
C861 C858 1.403 . S
C861 C862 1.392 . S
C861 C865 1.495 . S
C862 C861 1.392 . S
C862 C863 1.385 . S
C862 C864 1.478 . S
C863 H857 0.930 . S
C863 C859 1.400 . S
C863 C862 1.385 . S
C864 C862 1.478 . S
C864 C866 1.381 . S
C864 C870 1.383 . S
C865 C861 1.495 . S
C865 H871 0.959 . S
C865 H872 0.961 . S
C865 H873 0.960 . S
C866 C864 1.381 . S
C866 C867 1.394 . S
C866 H874 0.930 . S
C867 C866 1.394 . S
C867 C868 1.383 . S
C867 H875 0.929 . S
C868 C867 1.383 . S
C868 C869 1.377 . S
C869 H853 0.930 . S
C869 C868 1.377 . S
C869 C870 1.379 . S
C870 H854 0.931 . S
C870 C864 1.383 . S
C870 C869 1.379 . S
H871 C865 0.959 . S
H872 C865 0.961 . S
H873 C865 0.960 . S
H874 C866 0.930 . S
H875 C867 0.929 . S
H876 C884 0.929 . S
H877 C886 0.930 . S
H878 C888 0.930 . S
H879 C891 0.929 . S
H880 C894 0.930 . S
H881 C896 0.960 . S
H882 C896 0.960 . S
H883 C896 0.960 . S
C884 H876 0.929 . S
C884 C885 1.377 . S
C884 C886 1.384 . S
C885 C884 1.377 . S
C885 C891 1.390 . S
C886 H877 0.930 . S
C886 C884 1.384 . S
C886 C887 1.372 . S
C887 C886 1.372 . S
C887 C888 1.400 . S
C887 C892 1.490 . S
C888 H878 0.930 . S
C888 C887 1.400 . S
C888 C891 1.386 . S
H889 C905 0.930 . S
H890 C906 0.931 . S
C891 H879 0.929 . S
C891 C885 1.390 . S
C891 C888 1.386 . S
C892 C887 1.490 . S
C892 C894 1.395 . S
C892 C895 1.403 . S
H893 C899 0.930 . S
C894 H880 0.930 . S
C894 C892 1.395 . S
C894 C897 1.403 . S
C895 C892 1.403 . S
C895 C896 1.524 . S
C895 C899 1.400 . S
C896 H881 0.960 . S
C896 H882 0.960 . S
C896 H883 0.960 . S
C896 C895 1.524 . S
C897 C894 1.403 . S
C897 C898 1.392 . S
C897 C901 1.495 . S
C898 C897 1.392 . S
C898 C899 1.385 . S
C898 C900 1.478 . S
C899 H893 0.930 . S
C899 C895 1.400 . S
C899 C898 1.385 . S
C900 C898 1.478 . S
C900 C902 1.381 . S
C900 C906 1.383 . S
C901 C897 1.495 . S
C901 H907 0.959 . S
C901 H908 0.961 . S
C901 H909 0.960 . S
C902 C900 1.381 . S
C902 C903 1.394 . S
C902 H910 0.930 . S
C903 C902 1.394 . S
C903 C904 1.383 . S
C903 H911 0.929 . S
C904 C903 1.383 . S
C904 C905 1.377 . S
C905 H889 0.930 . S
C905 C904 1.377 . S
C905 C906 1.379 . S
C906 H890 0.931 . S
C906 C900 1.383 . S
C906 C905 1.379 . S
H907 C901 0.959 . S
H908 C901 0.961 . S
H909 C901 0.960 . S
H910 C902 0.930 . S
H911 C903 0.929 . S
H912 C920 0.929 . S
H913 C922 0.930 . S
H914 C924 0.930 . S
H915 C927 0.929 . S
H916 C930 0.930 . S
H917 C932 0.960 . S
H918 C932 0.960 . S
H919 C932 0.960 . S
C920 H912 0.929 . S
C920 C921 1.377 . S
C920 C922 1.384 . S
C921 C920 1.377 . S
C921 C927 1.390 . S
C922 H913 0.930 . S
C922 C920 1.384 . S
C922 C923 1.372 . S
C923 C922 1.372 . S
C923 C924 1.400 . S
C923 C928 1.490 . S
C924 H914 0.930 . S
C924 C923 1.400 . S
C924 C927 1.386 . S
H925 C941 0.930 . S
H926 C942 0.931 . S
C927 H915 0.929 . S
C927 C921 1.390 . S
C927 C924 1.386 . S
C928 C923 1.490 . S
C928 C930 1.395 . S
C928 C931 1.403 . S
H929 C935 0.930 . S
C930 H916 0.930 . S
C930 C928 1.395 . S
C930 C933 1.403 . S
C931 C928 1.403 . S
C931 C932 1.524 . S
C931 C935 1.400 . S
C932 H917 0.960 . S
C932 H918 0.960 . S
C932 H919 0.960 . S
C932 C931 1.524 . S
C933 C930 1.403 . S
C933 C934 1.392 . S
C933 C937 1.495 . S
C934 C933 1.392 . S
C934 C935 1.385 . S
C934 C936 1.478 . S
C935 H929 0.930 . S
C935 C931 1.400 . S
C935 C934 1.385 . S
C936 C934 1.478 . S
C936 C938 1.381 . S
C936 C942 1.383 . S
C937 C933 1.495 . S
C937 H943 0.959 . S
C937 H944 0.961 . S
C937 H945 0.960 . S
C938 C936 1.381 . S
C938 C939 1.394 . S
C938 H946 0.930 . S
C939 C938 1.394 . S
C939 C940 1.383 . S
C939 H947 0.929 . S
C940 C939 1.383 . S
C940 C941 1.377 . S
C941 H925 0.930 . S
C941 C940 1.377 . S
C941 C942 1.379 . S
C942 H926 0.931 . S
C942 C936 1.383 . S
C942 C941 1.379 . S
H943 C937 0.959 . S
H944 C937 0.961 . S
H945 C937 0.960 . S
H946 C938 0.930 . S
H947 C939 0.929 . S
H948 C956 0.929 . S
H949 C958 0.930 . S
H950 C960 0.930 . S
H951 C963 0.929 . S
H952 C966 0.930 . S
H953 C968 0.960 . S
H954 C968 0.960 . S
H955 C968 0.960 . S
C956 H948 0.929 . S
C956 C957 1.377 . S
C956 C958 1.384 . S
C957 C956 1.377 . S
C957 C963 1.390 . S
C958 H949 0.930 . S
C958 C956 1.384 . S
C958 C959 1.372 . S
C959 C958 1.372 . S
C959 C960 1.400 . S
C959 C964 1.490 . S
C960 H950 0.930 . S
C960 C959 1.400 . S
C960 C963 1.386 . S
H961 C977 0.930 . S
H962 C978 0.931 . S
C963 H951 0.929 . S
C963 C957 1.390 . S
C963 C960 1.386 . S
C964 C959 1.490 . S
C964 C966 1.395 . S
C964 C967 1.403 . S
H965 C971 0.930 . S
C966 H952 0.930 . S
C966 C964 1.395 . S
C966 C969 1.403 . S
C967 C964 1.403 . S
C967 C968 1.524 . S
C967 C971 1.400 . S
C968 H953 0.960 . S
C968 H954 0.960 . S
C968 H955 0.960 . S
C968 C967 1.524 . S
C969 C966 1.403 . S
C969 C970 1.392 . S
C969 C973 1.495 . S
C970 C969 1.392 . S
C970 C971 1.385 . S
C970 C972 1.478 . S
C971 H965 0.930 . S
C971 C967 1.400 . S
C971 C970 1.385 . S
C972 C970 1.478 . S
C972 C974 1.381 . S
C972 C978 1.383 . S
C973 C969 1.495 . S
C973 H979 0.959 . S
C973 H980 0.961 . S
C973 H981 0.960 . S
C974 C972 1.381 . S
C974 C975 1.394 . S
C974 H982 0.930 . S
C975 C974 1.394 . S
C975 C976 1.383 . S
C975 H983 0.929 . S
C976 C975 1.383 . S
C976 C977 1.377 . S
C977 H961 0.930 . S
C977 C976 1.377 . S
C977 C978 1.379 . S
C978 H962 0.931 . S
C978 C972 1.383 . S
C978 C977 1.379 . S
H979 C973 0.959 . S
H980 C973 0.961 . S
H981 C973 0.960 . S
H982 C974 0.930 . S
H983 C975 0.929 . S
H984 C992 0.929 . S
H985 C994 0.930 . S
H986 C996 0.930 . S
H987 C999 0.929 . S
H988 C1002 0.930 . S
H989 C1004 0.960 . S
H990 C1004 0.960 . S
H991 C1004 0.960 . S
C992 H984 0.929 . S
C992 C993 1.377 . S
C992 C994 1.384 . S
C993 C992 1.377 . S
C993 C999 1.390 . S
C994 H985 0.930 . S
C994 C992 1.384 . S
C994 C995 1.372 . S
C995 C994 1.372 . S
C995 C996 1.400 . S
C995 C1000 1.490 . S
C996 H986 0.930 . S
C996 C995 1.400 . S
C996 C999 1.386 . S
H997 C1013 0.930 . S
H998 C1014 0.931 . S
C999 H987 0.929 . S
C999 C993 1.390 . S
C999 C996 1.386 . S
C1000 C995 1.490 . S
C1000 C1002 1.395 . S
C1000 C1003 1.403 . S
H1001 C1007 0.930 . S
C1002 H988 0.930 . S
C1002 C1000 1.395 . S
C1002 C1005 1.403 . S
C1003 C1000 1.403 . S
C1003 C1004 1.524 . S
C1003 C1007 1.400 . S
C1004 H989 0.960 . S
C1004 H990 0.960 . S
C1004 H991 0.960 . S
C1004 C1003 1.524 . S
C1005 C1002 1.403 . S
C1005 C1006 1.392 . S
C1005 C1009 1.495 . S
C1006 C1005 1.392 . S
C1006 C1007 1.385 . S
C1006 C1008 1.478 . S
C1007 H1001 0.930 . S
C1007 C1003 1.400 . S
C1007 C1006 1.385 . S
C1008 C1006 1.478 . S
C1008 C1010 1.381 . S
C1008 C1014 1.383 . S
C1009 C1005 1.495 . S
C1009 H1015 0.959 . S
C1009 H1016 0.961 . S
C1009 H1017 0.960 . S
C1010 C1008 1.381 . S
C1010 C1011 1.394 . S
C1010 H1018 0.930 . S
C1011 C1010 1.394 . S
C1011 C1012 1.383 . S
C1011 H1019 0.929 . S
C1012 C1011 1.383 . S
C1012 C1013 1.377 . S
C1013 H997 0.930 . S
C1013 C1012 1.377 . S
C1013 C1014 1.379 . S
C1014 H998 0.931 . S
C1014 C1008 1.383 . S
C1014 C1013 1.379 . S
H1015 C1009 0.959 . S
H1016 C1009 0.961 . S
H1017 C1009 0.960 . S
H1018 C1010 0.930 . S
H1019 C1011 0.929 . S
H1020 C1028 0.929 . S
H1021 C1030 0.930 . S
H1022 C1032 0.930 . S
H1023 C1035 0.929 . S
H1024 C1038 0.930 . S
H1025 C1040 0.960 . S
H1026 C1040 0.960 . S
H1027 C1040 0.960 . S
C1028 H1020 0.929 . S
C1028 C1029 1.377 . S
C1028 C1030 1.384 . S
C1029 C1028 1.377 . S
C1029 C1035 1.390 . S
C1030 H1021 0.930 . S
C1030 C1028 1.384 . S
C1030 C1031 1.372 . S
C1031 C1030 1.372 . S
C1031 C1032 1.400 . S
C1031 C1036 1.490 . S
C1032 H1022 0.930 . S
C1032 C1031 1.400 . S
C1032 C1035 1.386 . S
H1033 C1049 0.930 . S
H1034 C1050 0.931 . S
C1035 H1023 0.929 . S
C1035 C1029 1.390 . S
C1035 C1032 1.386 . S
C1036 C1031 1.490 . S
C1036 C1038 1.395 . S
C1036 C1039 1.403 . S
H1037 C1043 0.930 . S
C1038 H1024 0.930 . S
C1038 C1036 1.395 . S
C1038 C1041 1.403 . S
C1039 C1036 1.403 . S
C1039 C1040 1.524 . S
C1039 C1043 1.400 . S
C1040 H1025 0.960 . S
C1040 H1026 0.960 . S
C1040 H1027 0.960 . S
C1040 C1039 1.524 . S
C1041 C1038 1.403 . S
C1041 C1042 1.392 . S
C1041 C1045 1.495 . S
C1042 C1041 1.392 . S
C1042 C1043 1.385 . S
C1042 C1044 1.478 . S
C1043 H1037 0.930 . S
C1043 C1039 1.400 . S
C1043 C1042 1.385 . S
C1044 C1042 1.478 . S
C1044 C1046 1.381 . S
C1044 C1050 1.383 . S
C1045 C1041 1.495 . S
C1045 H1051 0.959 . S
C1045 H1052 0.961 . S
C1045 H1053 0.960 . S
C1046 C1044 1.381 . S
C1046 C1047 1.394 . S
C1046 H1054 0.930 . S
C1047 C1046 1.394 . S
C1047 C1048 1.383 . S
C1047 H1055 0.929 . S
C1048 C1047 1.383 . S
C1048 C1049 1.377 . S
C1049 H1033 0.930 . S
C1049 C1048 1.377 . S
C1049 C1050 1.379 . S
C1050 H1034 0.931 . S
C1050 C1044 1.383 . S
C1050 C1049 1.379 . S
H1051 C1045 0.959 . S
H1052 C1045 0.961 . S
H1053 C1045 0.960 . S
H1054 C1046 0.930 . S
H1055 C1047 0.929 . S
C201 C13 1.598 . S
C220 C98 1.540 . S
C237 C27 1.604 . S
C256 C109 1.553 . S
C292 C128 1.514 . S
C273 C29 1.595 . S
C328 C145 1.508 . S
C309 C54 1.602 . S
C364 C172 1.544 . S
C345 C69 1.594 . S
C400 C181 1.557 . S
C381 C83 1.605 . S
C417 C15 1.601 . S
C436 C134 1.520 . S
C453 C41 1.603 . S
C472 C154 1.564 . S
C508 C163 1.552 . S
C489 C42 1.599 . S
C544 C190 1.513 . S
C525 C57 1.604 . S
C561 C71 1.597 . S
C580 C92 1.544 . S
C616 C118 1.554 . S
C597 C1 1.600 . S
C652 C146 1.571 . S
C633 C12 1.653 . S
C669 C26 1.662 . S
C688 C170 1.549 . S
C724 C182 1.533 . S
C705 C28 1.647 . S
C741 C55 1.660 . S
C760 C100 1.525 . S
C777 C68 1.652 . S
C796 C110 1.571 . S
C813 C82 1.662 . S
C832 C127 1.576 . S
C849 C14 1.659 . S
C868 C188 1.598 . S
C904 C91 1.527 . S
C885 C40 1.658 . S
C921 C43 1.659 . S
C940 C116 1.546 . S
C957 C56 1.657 . S
C976 C136 1.573 . S
C993 C70 1.655 . S
C1012 C152 1.552 . S
C1029 C0 1.654 . S
C1048 C164 1.548 . S
