# Generated by pormake.
# Topology zzz, (3,6)-cn, num edge types: 1
# Building blocks:
#     Node 0, Type 0, BuildingBlock: BETDAH_clean_linker_0, # of connection points: 3
#     Node 1, Type 0, BuildingBlock: BETDAH_clean_linker_0, # of connection points: 3
#     Node 2, Type 0, BuildingBlock: BETDAH_clean_linker_0, # of connection points: 3
#     Node 3, Type 0, BuildingBlock: BETDAH_clean_linker_0, # of connection points: 3
#     Node 4, Type 0, BuildingBlock: BETDAH_clean_linker_0, # of connection points: 3
#     Node 5, Type 0, BuildingBlock: BETDAH_clean_linker_0, # of connection points: 3
#     Node 6, Type 0, BuildingBlock: BETDAH_clean_linker_0, # of connection points: 3
#     Node 7, Type 0, BuildingBlock: BETDAH_clean_linker_0, # of connection points: 3
#     Node 8, Type 1, BuildingBlock: KUMJIN_clean_sbu_0, # of connection points: 6
#     Node 9, Type 1, BuildingBlock: KUMJIN_clean_sbu_0, # of connection points: 6
#     Node 10, Type 1, BuildingBlock: KUMJIN_clean_sbu_0, # of connection points: 6
#     Node 11, Type 1, BuildingBlock: KUMJIN_clean_sbu_0, # of connection points: 6
#     Edge 12, Type (0, 1), BuildingBlock: XIVTED_clean_linker_0, # of connection points: 2
#     Edge 13, Type (0, 1), BuildingBlock: XIVTED_clean_linker_0, # of connection points: 2
#     Edge 14, Type (0, 1), BuildingBlock: XIVTED_clean_linker_0, # of connection points: 2
#     Edge 15, Type (0, 1), BuildingBlock: XIVTED_clean_linker_0, # of connection points: 2
#     Edge 16, Type (0, 1), BuildingBlock: XIVTED_clean_linker_0, # of connection points: 2
#     Edge 17, Type (0, 1), BuildingBlock: XIVTED_clean_linker_0, # of connection points: 2
#     Edge 18, Type (0, 1), BuildingBlock: XIVTED_clean_linker_0, # of connection points: 2
#     Edge 19, Type (0, 1), BuildingBlock: XIVTED_clean_linker_0, # of connection points: 2
#     Edge 20, Type (0, 1), BuildingBlock: XIVTED_clean_linker_0, # of connection points: 2
#     Edge 21, Type (0, 1), BuildingBlock: XIVTED_clean_linker_0, # of connection points: 2
#     Edge 22, Type (0, 1), BuildingBlock: XIVTED_clean_linker_0, # of connection points: 2
#     Edge 23, Type (0, 1), BuildingBlock: XIVTED_clean_linker_0, # of connection points: 2
#     Edge 24, Type (0, 1), BuildingBlock: XIVTED_clean_linker_0, # of connection points: 2
#     Edge 25, Type (0, 1), BuildingBlock: XIVTED_clean_linker_0, # of connection points: 2
#     Edge 26, Type (0, 1), BuildingBlock: XIVTED_clean_linker_0, # of connection points: 2
#     Edge 27, Type (0, 1), BuildingBlock: XIVTED_clean_linker_0, # of connection points: 2
#     Edge 28, Type (0, 1), BuildingBlock: XIVTED_clean_linker_0, # of connection points: 2
#     Edge 29, Type (0, 1), BuildingBlock: XIVTED_clean_linker_0, # of connection points: 2
#     Edge 30, Type (0, 1), BuildingBlock: XIVTED_clean_linker_0, # of connection points: 2
#     Edge 31, Type (0, 1), BuildingBlock: XIVTED_clean_linker_0, # of connection points: 2
#     Edge 32, Type (0, 1), BuildingBlock: XIVTED_clean_linker_0, # of connection points: 2
#     Edge 33, Type (0, 1), BuildingBlock: XIVTED_clean_linker_0, # of connection points: 2
#     Edge 34, Type (0, 1), BuildingBlock: XIVTED_clean_linker_0, # of connection points: 2
#     Edge 35, Type (0, 1), BuildingBlock: XIVTED_clean_linker_0, # of connection points: 2
# Relax obj value: 0.177
# Max RMSD: 0.165
# Mean RMSD: 0.117
data_MOF--net-zzz--node1-KUMJIN_clean_sbu_0--node2-BETDAH_clean_linker_0--edge1-XIVTED_clean_linker_0
_symmetry_space_group_name_H-M    P1
_symmetry_Int_Tables_number       1
_symmetry_cell_setting            triclinic
loop_
_symmetry_equiv_pos_as_xyz
'x, y, z'
_cell_length_a     50.82363
_cell_length_b     50.689332
_cell_length_c     14.79112
_cell_angle_alpha  91.275957
_cell_angle_beta   89.998996
_cell_angle_gamma 90.011897
loop_
_atom_site_label
_atom_site_type_symbol
_atom_site_fract_x
_atom_site_fract_y
_atom_site_fract_z
_atom_type_partial_charge
H0 H 0.81441 0.57025 0.20719 0.0
H1 H 0.73601 0.55591 0.11233 0.0
H2 H 0.76396 0.5181 0.35316 0.0
C3 C 0.79528 0.56126 0.21706 0.0
C4 C 0.79197 0.54367 0.28799 0.0
C5 C 0.77537 0.56553 0.15339 0.0
C6 C 0.75098 0.55313 0.1633 0.0
C7 C 0.74636 0.5365 0.23665 0.0
C8 C 0.76701 0.53183 0.29905 0.0
N9 N 0.72172 0.52329 0.24643 0.0
C10 C 0.70088 0.52428 0.1844 0.0
H11 H 0.96516 0.83378 0.21479 0.0
H12 H 0.97605 0.75472 0.11055 0.0
H13 H 0.01294 0.77941 0.36107 0.0
C14 C 0.97263 0.81396 0.22328 0.0
C15 C 0.98869 0.80898 0.29811 0.0
C16 C 0.96829 0.79471 0.15481 0.0
C17 C 0.97932 0.7695 0.16337 0.0
C18 C 0.99533 0.76366 0.23772 0.0
C19 C 1.00016 0.78362 0.30459 0.0
N20 N 1.00744 0.73833 0.24545 0.0
C21 C 1.00646 0.71764 0.18057 0.0
H22 H 0.70612 0.96932 0.23504 0.0
H23 H 0.78543 0.97574 0.1376 0.0
H24 H 0.76409 1.00986 0.39718 0.0
C25 C 0.72645 0.97499 0.24645 0.0
C26 C 0.73278 0.98924 0.32578 0.0
C27 C 0.74513 0.97043 0.17776 0.0
C28 C 0.7711 0.97918 0.19071 0.0
C29 C 0.77827 0.99321 0.27006 0.0
C30 C 0.75888 0.99846 0.33699 0.0
N31 N 0.80443 1.003 0.28282 0.0
C32 C 0.82489 1.00079 0.21934 0.0
H33 H 0.57139 0.72205 0.26288 0.0
H34 H 0.56011 0.79983 0.16219 0.0
H35 H 0.5356 0.78165 0.43358 0.0
C36 C 0.56546 0.7424 0.27471 0.0
C37 C 0.55382 0.74954 0.35749 0.0
C38 C 0.56749 0.76033 0.20419 0.0
C39 C 0.55869 0.78628 0.21746 0.0
C40 C 0.5476 0.79443 0.30072 0.0
C41 C 0.54475 0.77575 0.37015 0.0
N42 N 0.5387 0.82093 0.3154 0.0
C43 C 0.54035 0.84093 0.25161 0.0
H44 H 0.2211 0.47017 0.10231 0.0
H45 H 0.29827 0.48741 0.20445 0.0
H46 H 0.27521 0.51425 0.94095 0.0
C47 C 0.24064 0.47811 0.09147 0.0
C48 C 0.24578 0.4917 0.0118 0.0
C49 C 0.25936 0.47669 0.16104 0.0
C50 C 0.28412 0.48827 0.14988 0.0
C51 C 0.29023 0.50153 0.07008 0.0
C52 C 0.27081 0.50352 1.00164 0.0
N53 N 0.31537 0.51358 0.05817 0.0
C54 C 0.33566 0.51391 0.12251 0.0
H55 H 0.06778 0.21501 0.13002 0.0
H56 H 0.05814 0.2948 0.22919 0.0
H57 H 0.02052 0.26917 0.98117 0.0
C58 C 0.06059 0.23489 0.1206 0.0
C59 C 0.04465 0.2397 0.04529 0.0
C60 C 0.06523 0.25442 0.188 0.0
C61 C 0.05451 0.2797 0.17776 0.0
C62 C 0.03831 0.28528 0.10368 0.0
C63 C 0.03332 0.2651 0.03774 0.0
N64 N 0.02619 0.31061 0.0955 0.0
C65 C 0.0272 0.33132 0.16031 0.0
H66 H 0.33195 0.07642 0.10786 0.0
H67 H 0.25264 0.0706 0.2059 0.0
H68 H 0.27337 0.03703 0.94496 0.0
C69 C 0.31155 0.07101 0.09645 0.0
C70 C 0.30498 0.05708 0.01668 0.0
C71 C 0.29297 0.07557 0.16551 0.0
C72 C 0.2669 0.06716 0.15252 0.0
C73 C 0.2595 0.05344 0.07282 0.0
C74 C 0.27877 0.04818 1.00548 0.0
N75 N 0.23323 0.04394 0.06008 0.0
C76 C 0.21287 0.0461 0.12397 0.0
H77 H 0.46291 0.31966 0.06211 0.0
H78 H 0.47379 0.24202 0.16433 0.0
H79 H 0.49951 0.2599 0.89405 0.0
C80 C 0.46886 0.2993 0.0507 0.0
C81 C 0.48088 0.29208 0.96858 0.0
C82 C 0.46655 0.28146 0.12138 0.0
C83 C 0.47543 0.2555 0.10892 0.0
C84 C 0.48693 0.24728 0.02643 0.0
C85 C 0.49004 0.26587 0.95685 0.0
N86 N 0.49603 0.22081 0.01279 0.0
C87 C 0.49446 0.20102 0.07739 0.0
Eu88 Eu 0.04325 0.01703 0.7599 0.0
C89 C 0.94539 0.99703 0.50472 0.0
C90 C 0.96128 0.96714 0.3871 0.0
C91 C 0.91483 0.96766 0.42528 0.0
C92 C 0.96604 0.98704 0.45368 0.0
C93 C 0.91948 0.9878 0.4899 0.0
C94 C 0.93571 0.95729 0.37418 0.0
C95 C 0.90422 0.0203 0.59956 0.0
N96 N 0.9504 0.01654 0.56635 0.0
C97 C 0.93017 0.02878 0.61183 0.0
C98 C 0.89887 0.99951 0.539 0.0
Eu99 Eu 0.99473 0.0304 0.58469 0.0
N100 N 0.99056 0.99719 0.46722 0.0
C101 C 1.01086 0.98881 0.41267 0.0
C102 C 0.98227 0.95798 0.33422 0.0
C103 C 1.00709 0.96902 0.34665 0.0
H104 H 0.93421 0.04488 0.65897 0.0
H105 H 0.02347 0.96219 0.30563 0.0
H106 H 0.93179 0.94198 0.32367 0.0
H107 H 0.8884 0.02978 0.63695 0.0
H108 H 0.03048 0.99625 0.42067 0.0
H109 H 0.01405 0.08477 0.03936 0.0
H110 H 0.97944 0.94265 0.2829 0.0
H111 H 0.10388 1.00311 0.68533 0.0
H112 H 1.00736 0.05063 0.92417 0.0
H113 H 0.14956 0.01866 0.70704 0.0
H114 H 0.8951 0.96026 0.41329 0.0
H115 H 0.05787 0.10484 0.06169 0.0
H116 H 0.10548 0.1061 0.02033 0.0
H117 H 0.87874 0.993 0.52939 0.0
H118 H 0.14229 0.08823 0.93033 0.0
N119 N 0.04721 0.05029 0.87717 0.0
C120 C 0.02687 0.05837 0.93198 0.0
C121 C 0.05517 0.08951 1.01029 0.0
C122 C 0.07621 0.08062 0.95713 0.0
C123 C 0.03046 0.07817 0.99808 0.0
C124 C 0.07163 0.0607 0.89051 0.0
H125 H 0.15892 0.0556 0.81425 0.0
N126 N 0.08747 0.03136 0.77777 0.0
C127 C 0.13367 0.02801 0.74443 0.0
C128 C 0.09232 0.05094 0.8393 0.0
C129 C 0.1078 0.01927 0.73236 0.0
C130 C 0.13885 0.04889 0.80479 0.0
C131 C 0.11815 0.06042 0.85394 0.0
O132 O 0.06959 0.98755 0.81535 0.0
O133 O 0.01687 0.9988 0.6539 0.0
O134 O 0.9732 1.01038 0.70011 0.0
O135 O 1.00181 0.01688 0.82161 0.0
O136 O 0.05517 0.98556 0.6555 0.0
O137 O 0.02926 0.98908 0.85983 0.0
O138 O 0.96859 0.05952 0.52577 0.0
O139 O 0.02091 0.04855 0.69119 0.0
O140 O 0.06461 0.03714 0.64423 0.0
O141 O 0.03614 0.02993 0.52282 0.0
O142 O 0.98259 0.06161 0.68995 0.0
O143 O 1.00957 0.05921 0.48914 0.0
C144 C 0.03242 0.98198 0.61892 0.0
C145 C 0.04754 0.94692 0.82423 0.0
C146 C 0.0196 0.90871 0.78763 0.0
C147 C 0.02251 0.93514 0.81775 0.0
C148 C 0.04224 0.89483 0.75852 0.0
C149 C 0.06972 0.93237 0.79623 0.0
C150 C 0.06697 0.90669 0.76223 0.0
C151 C 0.97824 1.01093 0.78808 0.0
C152 C 0.05057 0.97485 0.85362 0.0
C153 C 0.12264 0.08062 0.9185 0.0
C154 C 0.10169 0.09075 0.96981 0.0
C155 C 1.00532 0.06525 0.72664 0.0
C156 C 0.99008 0.10071 0.52519 0.0
C157 C 0.01462 0.11356 0.52776 0.0
C158 C 0.01698 0.13961 0.56222 0.0
C159 C 0.99445 0.15204 0.59893 0.0
C160 C 0.96789 0.11386 0.56068 0.0
C161 C 0.97022 0.13916 0.59849 0.0
C162 C 0.05967 0.03614 0.5562 0.0
C163 C 0.98792 0.07297 0.49254 0.0
H164 H 1.00532 0.94656 0.83696 0.0
H165 H 0.04127 0.87435 0.73666 0.0
H166 H 0.08922 0.94099 0.79943 0.0
H167 H 0.08418 0.89568 0.74056 0.0
H168 H 0.03184 0.10326 0.50236 0.0
H169 H 0.99508 0.17219 0.62446 0.0
H170 H 0.94877 0.10443 0.56063 0.0
H171 H 0.95304 0.14906 0.62604 0.0
Eu172 Eu 0.52325 0.04915 0.75137 0.0
C173 C 0.55013 0.94577 0.52362 0.0
C174 C 0.5795 0.96016 0.40567 0.0
C175 C 0.58142 0.91488 0.45533 0.0
C176 C 0.55912 0.96552 0.46856 0.0
C177 C 0.56085 0.92009 0.51644 0.0
C178 C 0.59077 0.93489 0.40025 0.0
C179 C 0.52893 0.90597 0.6261 0.0
N180 N 0.53021 0.95131 0.58182 0.0
C181 C 0.51894 0.93165 0.63073 0.0
C182 C 0.55018 0.90022 0.56939 0.0
Eu183 Eu 0.51344 0.99505 0.58559 0.0
N184 N 0.54768 0.98977 0.47504 0.0
C185 C 0.55531 1.00911 0.41724 0.0
C186 C 0.58779 0.98022 0.34911 0.0
C187 C 0.57551 1.00473 0.35461 0.0
H188 H 0.50245 0.93602 0.67477 0.0
H189 H 0.5817 0.0204 0.31082 0.0
H190 H 0.60646 0.93052 0.35263 0.0
H191 H 0.52023 0.89067 0.66631 0.0
H192 H 0.54685 0.02848 0.42003 0.0
H193 H 0.45472 0.02467 0.02662 0.0
H194 H 0.60344 0.97692 0.30042 0.0
H195 H 0.53495 0.10795 0.66199 0.0
H196 H 0.48883 0.01591 0.91541 0.0
H197 H 0.51836 0.15372 0.67248 0.0
H198 H 0.58996 0.89533 0.44921 0.0
H199 H 0.43452 0.06882 0.04047 0.0
H200 H 0.43279 0.11552 0.9907 0.0
H201 H 0.55785 0.88028 0.56566 0.0
H202 H 0.44984 0.1505 0.89441 0.0
N203 N 0.48925 0.05493 0.86281 0.0
C204 C 0.48113 0.03557 0.91976 0.0
C205 C 0.44988 0.06522 0.9909 0.0
C206 C 0.45859 0.08524 0.93492 0.0
C207 C 0.46129 0.04033 0.98348 0.0
C208 C 0.47855 0.07948 0.87083 0.0
H209 H 0.48165 0.16492 0.77609 0.0
N210 N 0.50733 0.0932 0.7565 0.0
C211 C 0.5095 0.13857 0.71294 0.0
C212 C 0.48785 0.09914 0.81599 0.0
C213 C 0.51878 0.11264 0.70711 0.0
C214 C 0.48876 0.14479 0.77134 0.0
C215 C 0.47786 0.12509 0.82453 0.0
O216 O 0.55147 0.07812 0.80308 0.0
O217 O 0.54299 0.02058 0.65555 0.0
O218 O 0.53362 0.97813 0.70922 0.0
O219 O 0.52399 1.00935 0.8224 0.0
O220 O 0.55539 0.05919 0.65032 0.0
O221 O 0.5505 0.03937 0.8602 0.0
O222 O 0.48549 0.96558 0.5358 0.0
O223 O 0.49371 0.02378 0.68074 0.0
O224 O 0.50317 0.06633 0.62779 0.0
O225 O 0.51189 0.03479 0.51459 0.0
O226 O 0.48081 0.98536 0.68549 0.0
O227 O 0.48694 1.00363 0.47336 0.0
C228 C 0.55973 0.03557 0.62002 0.0
C229 C 0.59236 0.05841 0.83006 0.0
C230 C 0.63149 0.03123 0.80183 0.0
C231 C 0.60456 0.03352 0.82345 0.0
C232 C 0.64558 0.05434 0.78156 0.0
C233 C 0.60704 0.08107 0.8109 0.0
C234 C 0.63335 0.07895 0.7855 0.0
C235 C 0.53151 0.98532 0.79562 0.0
C236 C 0.56402 0.06101 0.85077 0.0
C237 C 0.45777 0.13073 0.88709 0.0
C238 C 0.44811 0.11083 0.94201 0.0
C239 C 0.47671 1.00902 0.71582 0.0
C240 C 0.44493 0.98467 0.50162 0.0
C241 C 0.43299 1.00957 0.51307 0.0
C242 C 0.40592 1.01174 0.53233 0.0
C243 C 0.39135 0.98843 0.54506 0.0
C244 C 0.42983 0.96182 0.51335 0.0
C245 C 0.40331 0.96376 0.53618 0.0
C246 C 0.50471 0.05892 0.54138 0.0
C247 C 0.4734 0.98205 0.48426 0.0
H248 H 0.59312 0.01595 0.83589 0.0
H249 H 0.66641 0.05377 0.76662 0.0
H250 H 0.59806 0.10045 0.81453 0.0
H251 H 0.64449 0.09653 0.77074 0.0
H252 H 0.44473 0.02725 0.50626 0.0
H253 H 0.37039 0.989 0.55781 0.0
H254 H 0.43866 0.94244 0.50601 0.0
H255 H 0.39181 0.94603 0.54517 0.0
Eu256 Eu 0.54497 0.51286 0.58491 0.0
C257 C 0.43072 0.50283 0.74607 0.0
C258 C 0.40233 0.52663 0.6451 0.0
C259 C 0.38494 0.4897 0.72836 0.0
C260 C 0.42725 0.52259 0.68463 0.0
C261 C 0.40949 0.48648 0.7702 0.0
C262 C 0.38137 0.50974 0.66581 0.0
C263 C 0.43784 0.46632 0.88009 0.0
N264 N 0.4546 0.50037 0.78552 0.0
C265 C 0.45823 0.48302 0.85395 0.0
C266 C 0.41342 0.46783 0.83725 0.0
Eu267 Eu 0.48894 0.52804 0.73477 0.0
N268 N 0.44791 0.53861 0.66657 0.0
C269 C 0.44434 0.56024 0.61437 0.0
C270 C 0.39905 0.54791 0.58766 0.0
C271 C 0.42006 0.56499 0.57328 0.0
H272 H 0.47717 0.48155 0.88664 0.0
H273 H 0.41764 0.58179 0.53014 0.0
H274 H 0.36217 0.51239 0.63543 0.0
H275 H 0.441 0.45223 0.93292 0.0
H276 H 0.46022 0.57363 0.60154 0.0
H277 H 0.61619 0.45817 0.78673 0.0
H278 H 0.38027 0.55164 0.55568 0.0
H279 H 0.55698 0.55954 0.43395 0.0
H280 H 0.57366 0.46659 0.71519 0.0
H281 H 0.59325 0.58892 0.38871 0.0
H282 H 0.36845 0.47719 0.74536 0.0
H283 H 0.6535 0.48859 0.76373 0.0
H284 H 0.67162 0.52824 0.68627 0.0
H285 H 0.39762 0.4549 0.85767 0.0
H286 H 0.66545 0.56376 0.5775 0.0
N287 N 0.58594 0.50206 0.65294 0.0
C288 C 0.58952 0.48012 0.70361 0.0
C289 C 0.63474 0.49244 0.73176 0.0
C290 C 0.63148 0.514 0.67551 0.0
C291 C 0.61376 0.4752 0.7447 0.0
C292 C 0.6066 0.51819 0.63594 0.0
H293 H 0.63647 0.58622 0.46501 0.0
N294 N 0.57935 0.5407 0.5355 0.0
C295 C 0.5963 0.5748 0.44151 0.0
C296 C 0.60317 0.53816 0.57526 0.0
C297 C 0.57585 0.55807 0.46705 0.0
C298 C 0.62063 0.57328 0.48495 0.0
C299 C 0.62444 0.55454 0.55181 0.0
O300 O 0.55014 0.50499 0.44063 0.0
O301 O 0.50121 0.51555 0.5965 0.0
O302 O 0.48732 0.48427 0.69749 0.0
O303 O 0.53121 0.47604 0.66117 0.0
O304 O 0.5175 0.53124 0.48201 0.0
O305 O 0.55031 0.47252 0.53319 0.0
O306 O 0.48389 0.53636 0.87894 0.0
O307 O 0.53269 0.52515 0.72328 0.0
O308 O 0.54641 0.55675 0.62184 0.0
O309 O 0.50246 0.56469 0.65768 0.0
O310 O 0.51627 0.50931 0.83726 0.0
O311 O 0.48411 0.56858 0.78547 0.0
C312 C 0.49571 0.52612 0.52238 0.0
C313 C 0.52503 0.46755 0.39902 0.0
C314 C 0.49054 0.43398 0.38603 0.0
C315 C 0.51299 0.4444 0.42961 0.0
C316 C 0.47986 0.44757 0.31247 0.0
C317 C 0.51418 0.48042 0.32442 0.0
C318 C 0.49159 0.47062 0.28232 0.0
C319 C 0.50741 0.46786 0.68574 0.0
C320 C 0.54727 0.47963 0.44947 0.0
C321 C 0.64894 0.55122 0.59392 0.0
C322 C 0.65245 0.53099 0.6558 0.0
C323 C 0.5381 0.51437 0.7971 0.0
C324 C 0.51003 0.57342 0.91785 0.0
C325 C 0.52043 0.59776 0.89114 0.0
C326 C 0.54389 0.60759 0.9294 0.0
C327 C 0.55709 0.59256 0.99416 0.0
C328 C 0.52327 0.55914 0.98458 0.0
C329 C 0.54676 0.56856 0.02158 0.0
C330 C 0.52621 0.57303 0.63347 0.0
C331 C 0.48727 0.56164 0.86929 0.0
H332 H 0.52102 0.43454 0.48769 0.0
H333 H 0.463 0.43996 0.27562 0.0
H334 H 0.52285 0.49838 0.29953 0.0
H335 H 0.4833 0.48076 0.22534 0.0
H336 H 0.51044 0.60893 0.83975 0.0
H337 H 0.57493 0.59976 0.02625 0.0
H338 H 0.51589 0.54029 1.00665 0.0
H339 H 0.55696 0.55726 0.07198 0.0
Eu340 Eu 0.02856 0.55137 0.58507 0.0
C341 C 0.03279 0.44154 0.77249 0.0
C342 C 1.00975 0.41118 0.67186 0.0
C343 C 0.045 0.39512 0.76694 0.0
C344 C 0.01381 0.43697 0.70726 0.0
C345 C 0.04819 0.42058 0.80473 0.0
C346 C 0.02585 0.39044 0.70047 0.0
C347 C 0.06726 0.45102 0.9143 0.0
N348 N 0.0353 0.46628 0.80782 0.0
C349 C 0.05159 0.47113 0.87998 0.0
C350 C 0.06582 0.42568 0.87568 0.0
Eu351 Eu 1.00936 0.49995 0.74369 0.0
N352 N 0.99847 0.45744 0.68164 0.0
C353 C 0.97738 0.45285 0.62588 0.0
C354 C 0.98919 0.40682 0.6106 0.0
C355 C 0.9727 0.42768 0.58869 0.0
H356 H 0.05306 0.4908 0.90928 0.0
H357 H 0.95638 0.42442 0.54274 0.0
H358 H 0.02317 0.37059 0.67332 0.0
H359 H 0.08053 0.45511 0.97009 0.0
H360 H 0.96426 0.46843 0.60718 0.0
H361 H 0.07926 0.62454 0.80269 0.0
H362 H 0.9855 0.38735 0.58163 0.0
H363 H 0.99167 0.5647 0.40498 0.0
H364 H 0.07231 0.58154 0.72868 0.0
H365 H 0.96407 0.6008 0.34721 0.0
H366 H 0.05682 0.37882 0.79014 0.0
H367 H 0.04952 0.66176 0.77066 0.0
H368 H 1.01205 0.67953 0.6796 0.0
H369 H 0.07797 0.41011 0.90235 0.0
H370 H 0.98035 0.67304 0.55522 0.0
N371 N 0.03823 0.59326 0.65551 0.0
C372 C 0.05908 0.59726 0.71274 0.0
C373 C 0.04632 0.64276 0.73745 0.0
C374 C 0.02618 0.63917 0.67407 0.0
C375 C 0.06317 0.62184 0.75543 0.0
C376 C 0.02283 0.61396 0.63306 0.0
H377 H 0.96269 0.64387 0.42938 0.0
N378 N 1.00432 0.58651 0.5213 0.0
C379 C 0.97529 0.60374 0.40882 0.0
C380 C 1.00512 0.61039 0.56375 0.0
C381 C 0.99081 0.58331 0.44189 0.0
C382 C 0.97451 0.62797 0.45547 0.0
C383 C 0.99008 0.63177 0.53271 0.0
O384 O 0.04091 0.55424 0.44433 0.0
O385 O 0.02453 0.50799 0.60641 0.0
O386 O 0.05352 0.49626 0.71908 0.0
O387 O 0.06312 0.53894 0.67561 0.0
O388 O 0.0127 0.52136 0.48209 0.0
O389 O 0.07024 0.55318 0.54931 0.0
O390 O 1.00036 0.49835 0.88752 0.0
O391 O 1.01209 0.54372 0.72198 0.0
O392 O 0.98366 0.5501 0.58307 0.0
O393 O 0.97368 0.51093 0.65674 0.0
O394 O 0.02714 0.52998 0.84192 0.0
O395 O 0.96865 0.49727 0.79005 0.0
C396 C 0.01574 0.50063 0.52981 0.0
C397 C 0.07726 0.52601 0.4194 0.0
C398 C 0.11069 0.49122 0.41737 0.0
C399 C 0.09998 0.5145 0.45583 0.0
C400 C 0.09755 0.47906 0.3435 0.0
C401 C 0.06482 0.51361 0.34491 0.0
C402 C 0.07476 0.49012 0.30819 0.0
C403 C 0.07046 0.51575 0.70728 0.0
C404 C 0.06543 0.54967 0.46338 0.0
C405 C 0.99199 0.65646 0.57719 0.0
C406 C 1.01004 0.66016 0.64791 0.0
C407 C 0.02193 0.55086 0.79736 0.0
C408 C 0.96326 0.52489 0.92071 0.0
C409 C 0.93957 0.53551 0.88883 0.0
C410 C 0.9284 0.55828 0.92948 0.0
C411 C 0.94196 0.57071 1.0019 0.0
C412 C 0.97618 0.53761 0.99357 0.0
C413 C 0.96569 0.5605 0.03306 0.0
C414 C 0.96696 0.53131 0.60676 0.0
C415 C 0.97526 0.50162 0.87445 0.0
H416 H 0.10931 0.52376 0.51422 0.0
H417 H 0.10534 0.46154 0.31008 0.0
H418 H 0.04716 0.5218 0.31567 0.0
H419 H 0.06499 0.48067 0.25107 0.0
H420 H 0.92989 0.52592 0.83215 0.0
H421 H 0.93393 0.58782 0.03712 0.0
H422 H 0.99457 0.53009 0.01951 0.0
H423 H 0.97582 0.57019 0.08897 0.0
H424 H 0.16155 0.03922 0.08015 0.0
H425 H 0.10963 0.05509 0.5927 0.0
H426 H 0.2129 0.05445 0.30691 0.0
H427 H 0.06064 0.02877 0.37042 0.0
H428 H 0.14678 0.05847 0.48843 0.0
H429 H 0.12375 0.03881 0.18376 0.0
C430 C 0.16481 0.04257 0.15191 0.0
C431 C 0.19033 0.04685 0.18519 0.0
C432 C 0.12793 0.05185 0.46245 0.0
C433 C 0.14715 0.04639 0.30465 0.0
C434 C 0.10665 0.04971 0.52233 0.0
C435 C 0.08194 0.04072 0.49166 0.0
C436 C 0.1246 0.04536 0.37022 0.0
C437 C 0.07927 0.03526 0.3983 0.0
C438 C 0.14324 0.0423 0.21113 0.0
C439 C 0.1935 0.0511 0.27861 0.0
N440 N 0.10025 0.03754 0.34137 0.0
N441 N 0.17221 0.05075 0.33502 0.0
H442 H 0.50015 0.14852 0.04273 0.0
H443 H 0.48384 0.10891 0.5634 0.0
H444 H 0.48711 0.20518 0.25942 0.0
H445 H 0.51284 0.05506 0.35669 0.0
H446 H 0.48013 0.14316 0.45044 0.0
H447 H 0.50021 0.113 0.15349 0.0
C448 C 0.49722 0.15343 0.11371 0.0
C449 C 0.49367 0.17977 0.1422 0.0
C450 C 0.48739 0.12388 0.42976 0.0
C451 C 0.49367 0.13931 0.26945 0.0
C452 C 0.48972 0.10427 0.49463 0.0
C453 C 0.49962 0.07914 0.47099 0.0
C454 C 0.49459 0.11838 0.33951 0.0
C455 C 0.50565 0.07418 0.37921 0.0
C456 C 0.49729 0.13318 0.17694 0.0
C457 C 0.48989 0.18511 0.23472 0.0
N458 N 0.50318 0.09358 0.31724 0.0
N459 N 0.49 0.16511 0.29495 0.0
H460 H 0.37335 0.55134 0.1254 0.0
H461 H 0.45551 0.48953 0.53598 0.0
H462 H 0.34866 0.4811 0.26 0.0
H463 H 0.47919 0.55816 0.38991 0.0
H464 H 0.4156 0.4864 0.44164 0.0
H465 H 0.41141 0.55462 0.22672 0.0
C466 C 0.37598 0.53663 0.17667 0.0
C467 C 0.35793 0.51595 0.18449 0.0
C468 C 0.42943 0.50226 0.43067 0.0
C469 C 0.40159 0.51941 0.3012 0.0
C470 C 0.4521 0.50416 0.48503 0.0
C471 C 0.47038 0.52453 0.47215 0.0
C472 C 0.42512 0.52075 0.36247 0.0
C473 C 0.46543 0.54239 0.40305 0.0
C474 C 0.39773 0.53846 0.2346 0.0
C475 C 0.3622 0.49737 0.25195 0.0
N476 N 0.44335 0.54016 0.35137 0.0
N477 N 0.3836 0.4995 0.30769 0.0
H478 H 0.05912 0.34458 0.30426 0.0
H479 H 0.98349 0.48222 0.39816 0.0
H480 H 0.99198 0.37103 0.15378 0.0
H481 H 0.04993 0.45865 0.55789 0.0
H482 H 0.986 0.44053 0.31284 0.0
H483 H 0.05604 0.38474 0.40163 0.0
C484 C 0.04371 0.35882 0.29194 0.0
C485 C 0.02576 0.35453 0.22085 0.0
C486 C 0.99996 0.44417 0.36697 0.0
C487 C 0.02211 0.4005 0.33164 0.0
C488 C 0.99845 0.46803 0.41605 0.0
C489 C 0.0161 0.47373 0.48676 0.0
C490 C 0.01965 0.42571 0.38694 0.0
C491 C 0.03546 0.45478 0.50554 0.0
C492 C 0.04195 0.38173 0.34749 0.0
C493 C 1.00621 0.37357 0.20779 0.0
N494 N 0.03675 0.43165 0.45591 0.0
N495 N 1.00495 0.3956 0.26223 0.0
H496 H 0.87626 1.00702 0.26375 0.0
H497 H 0.92814 0.99255 0.7508 0.0
H498 H 0.8249 0.99296 0.03624 0.0
H499 H 0.97739 0.01751 0.97417 0.0
H500 H 0.89099 0.98902 0.85494 0.0
H501 H 0.91412 1.00739 0.16038 0.0
C502 C 0.87301 1.00391 0.19188 0.0
C503 C 0.84747 0.99998 0.15831 0.0
C504 C 0.9099 0.99536 0.88121 0.0
C505 C 0.89071 1.0004 0.03914 0.0
C506 C 0.93119 0.99758 0.82142 0.0
C507 C 0.95598 1.00622 0.85248 0.0
C508 C 0.91329 1.00145 0.9737 0.0
C509 C 0.95871 1.01127 0.94605 0.0
C510 C 0.89462 1.00416 0.13281 0.0
C511 C 0.84431 0.99604 0.06475 0.0
N512 N 0.9377 1.00894 1.00289 0.0
N513 N 0.86563 0.99637 1.0085 0.0
H514 H 0.53222 0.89297 0.28838 0.0
H515 H 0.55425 0.93622 0.77391 0.0
H516 H 0.55037 0.83811 0.07075 0.0
H517 H 0.52097 0.98793 0.97914 0.0
H518 H 0.55752 0.9014 0.88502 0.0
H519 H 0.53238 0.92912 0.18005 0.0
C520 C 0.5363 0.88859 0.21771 0.0
C521 C 0.54122 0.86256 0.18825 0.0
C522 C 0.54941 0.92034 0.90577 0.0
C523 C 0.54153 0.90376 0.06379 0.0
C524 C 0.54733 0.94026 0.84193 0.0
C525 C 0.53636 0.96493 0.86558 0.0
C526 C 0.54087 0.92507 0.99507 0.0
C527 C 0.52902 0.96918 0.95657 0.0
C528 C 0.53638 0.9092 0.15588 0.0
C529 C 0.54649 0.85791 0.0962 0.0
N530 N 0.53127 0.94948 0.01756 0.0
N531 N 0.5465 0.87826 0.03733 0.0
H532 H 0.68883 0.5577 0.04768 0.0
H533 H 0.55406 0.48124 0.92673 0.0
H534 H 0.6613 0.48881 0.18405 0.0
H535 H 0.57898 0.55038 0.78589 0.0
H536 H 0.59396 0.48367 0.01864 0.0
H537 H 0.64984 0.55542 0.94845 0.0
C538 C 0.67457 0.54209 0.05654 0.0
C539 C 0.67819 0.52339 0.124 0.0
C540 C 0.59095 0.49826 0.9673 0.0
C541 C 0.63359 0.52065 0.01125 0.0
C542 C 0.56815 0.49682 0.91459 0.0
C543 C 0.5635 0.5152 0.84699 0.0
C544 C 0.60931 0.51855 0.95381 0.0
C545 C 0.58216 0.53534 0.83557 0.0
C546 C 0.65233 0.54079 0.99999 0.0
C547 C 0.6592 0.5036 0.13283 0.0
N548 N 0.60425 0.53647 0.88831 0.0
N549 N 0.63779 0.50276 0.07738 0.0
H550 H 0.04239 0.67881 0.18968 0.0
H551 H 0.98516 0.59085 0.77244 0.0
H552 H 0.97492 0.70309 0.03659 0.0
H553 H 0.05146 0.56945 0.9366 0.0
H554 H 0.98072 0.63217 0.86319 0.0
H555 H 0.04588 0.63905 0.0935 0.0
C556 C 0.02831 0.67573 0.13544 0.0
C557 C 1.00839 0.69424 0.12107 0.0
C558 C 0.99633 0.61849 0.87892 0.0
C559 C 1.0121 0.64845 1.00974 0.0
C560 C 0.99897 0.59501 0.82666 0.0
C561 C 0.01915 0.57695 0.84548 0.0
C562 C 0.01387 0.62386 0.95095 0.0
C563 C 0.0359 0.58295 0.91863 0.0
C564 C 0.03026 0.65297 0.08036 0.0
C565 C 0.99061 0.68926 0.04984 0.0
N566 N 0.03298 0.60576 0.96791 0.0
N567 N 0.99286 0.66685 0.99683 0.0
H568 H 0.05043 0.27008 0.35939 0.0
H569 H 0.03763 0.18106 0.66617 0.0
H570 H 0.10667 0.22048 0.2181 0.0
H571 H 0.05353 0.13375 0.42546 0.0
H572 H 0.06708 0.21504 0.60905 0.0
H573 H 0.05635 0.24426 0.49296 0.0
C574 C 0.06498 0.25448 0.35725 0.0
C575 C 0.077 0.24657 0.27555 0.0
C576 C 0.06453 0.19686 0.57023 0.0
C577 C 0.08336 0.21628 0.42879 0.0
C578 C 0.04754 0.1775 0.60225 0.0
C579 C 0.04151 0.15516 0.54782 0.0
C580 C 0.0756 0.19362 0.48372 0.0
C581 C 0.05655 0.15086 0.46909 0.0
C582 C 0.06842 0.23959 0.43447 0.0
C583 C 0.09586 0.22635 0.27832 0.0
N584 N 0.07238 0.17021 0.43848 0.0
N585 N 0.09763 0.21115 0.35251 0.0
H586 H 0.32774 0.11561 0.20884 0.0
H587 H 0.41816 0.0534 0.42369 0.0
H588 H 0.28027 0.05527 0.32958 0.0
H589 H 0.36165 0.02971 0.62452 0.0
H590 H 0.38796 0.08636 0.37348 0.0
H591 H 0.35567 0.11657 0.34354 0.0
C592 C 0.32275 0.10311 0.26477 0.0
C593 C 0.30248 0.08437 0.25617 0.0
C594 C 0.3823 0.07479 0.43089 0.0
C595 C 0.33474 0.08471 0.40827 0.0
C596 C 0.39979 0.05564 0.46002 0.0
C597 C 0.392 0.03752 0.5254 0.0
C598 C 0.35654 0.07537 0.46552 0.0
C599 C 0.36789 0.04207 0.56977 0.0
C600 C 0.3388 0.10354 0.34136 0.0
C601 C 0.29618 0.06946 0.33198 0.0
N602 N 0.35054 0.05979 0.53646 0.0
N603 N 0.31278 0.06935 0.40383 0.0
H604 H 0.42213 0.30885 0.16904 0.0
H605 H 0.51787 0.39072 0.44491 0.0
H606 H 0.49458 0.27887 0.27749 0.0
H607 H 0.43905 0.41649 0.38262 0.0
H608 H 0.50299 0.34541 0.43713 0.0
H609 H 0.42005 0.34115 0.29353 0.0
C610 C 0.43703 0.30841 0.22139 0.0
C611 C 0.45902 0.2919 0.21172 0.0
C612 C 0.4887 0.36092 0.42718 0.0
C613 C 0.45747 0.3294 0.35176 0.0
C614 C 0.49721 0.38705 0.43209 0.0
C615 C 0.48002 0.40758 0.40953 0.0
C616 C 0.4631 0.35526 0.39664 0.0
C617 C 0.45341 0.40123 0.39507 0.0
C618 C 0.43595 0.32694 0.29238 0.0
C619 C 0.47759 0.29172 0.28169 0.0
N620 N 0.44595 0.37559 0.38578 0.0
N621 N 0.47691 0.31088 0.34726 0.0
H622 H 0.23496 0.4301 0.19993 0.0
H623 H 0.15266 0.52003 0.48535 0.0
H624 H 0.26326 0.50236 0.32416 0.0
H625 H 0.12967 0.43997 0.41687 0.0
H626 H 0.19813 0.50659 0.48261 0.0
H627 H 0.20464 0.42479 0.32594 0.0
C628 C 0.2355 0.44429 0.25579 0.0
C629 C 0.25073 0.46726 0.25013 0.0
C630 C 0.1832 0.49171 0.47008 0.0
C631 C 0.21549 0.46198 0.39232 0.0
C632 C 0.1569 0.4994 0.47209 0.0
C633 C 0.13707 0.48149 0.44565 0.0
C634 C 0.18978 0.46629 0.43782 0.0
C635 C 0.14432 0.45495 0.4314 0.0
C636 C 0.21813 0.44134 0.32781 0.0
C637 C 0.25125 0.48473 0.32487 0.0
N638 N 0.17015 0.44834 0.42418 0.0
N639 N 0.23313 0.48224 0.39154 0.0
H640 H 0.92492 0.82618 0.12671 0.0
H641 H 0.98037 0.91879 0.91297 0.0
H642 H 0.98536 0.78256 0.98341 0.0
H643 H 0.9996 0.86566 0.68989 0.0
H644 H 0.94888 0.88756 0.9654 0.0
H645 H 0.91929 0.85385 0.99469 0.0
C646 C 0.93644 0.82189 0.06652 0.0
C647 C 0.95668 0.80303 0.06782 0.0
C648 C 0.95916 0.88289 0.90299 0.0
C649 C 0.95087 0.83491 0.91853 0.0
C650 C 0.9775 0.901 0.87244 0.0
C651 C 0.99416 0.89439 0.79946 0.0
C652 C 0.95806 0.85758 0.8625 0.0
C653 C 0.98867 0.87091 0.75042 0.0
C654 C 0.93327 0.83775 0.99136 0.0
C655 C 0.97014 0.79748 0.98677 0.0
N656 N 0.97197 0.8528 0.78517 0.0
N657 N 0.9676 0.81395 0.91626 0.0
H658 H 0.71091 0.92983 0.13582 0.0
H659 H 0.62016 0.99131 0.91926 0.0
H660 H 0.75763 0.99038 0.01296 0.0
H661 H 0.67582 1.01227 0.71179 0.0
H662 H 0.65061 0.95916 0.97315 0.0
H663 H 0.68292 0.92821 1.00123 0.0
C664 C 0.71575 0.94221 0.07942 0.0
C665 C 0.73579 0.96122 0.08736 0.0
C666 C 0.65601 0.96996 0.91364 0.0
C667 C 0.70354 0.96004 0.9353 0.0
C668 C 0.63837 0.98865 0.88233 0.0
C669 C 0.64581 1.00581 0.81347 0.0
C670 C 0.6816 0.96889 0.87782 0.0
C671 C 0.66982 1.00075 0.76897 0.0
C672 C 0.69969 0.94138 1.00289 0.0
C673 C 0.7419 0.97598 0.01102 0.0
N674 N 0.68734 0.98355 0.80437 0.0
N675 N 0.7253 0.97568 0.93914 0.0
H676 H 0.61169 0.73291 0.15572 0.0
H677 H 0.59472 0.62506 0.90563 0.0
H678 H 0.53917 0.76305 0.04863 0.0
H679 H 0.51419 0.652 0.90785 0.0
H680 H 0.60941 0.67088 0.91925 0.0
H681 H 0.61341 0.7005 0.03283 0.0
C682 C 0.59677 0.73343 0.10347 0.0
C683 C 0.57485 0.74999 0.11354 0.0
C684 C 0.58853 0.66683 0.91599 0.0
C685 C 0.57616 0.71257 0.97308 0.0
C686 C 0.58014 0.64065 0.90784 0.0
C687 C 0.55317 0.63464 0.91009 0.0
C688 C 0.56974 0.68694 0.92845 0.0
C689 C 0.53518 0.65559 0.90829 0.0
C690 C 0.59768 0.71484 0.0327 0.0
C691 C 0.55616 0.7502 0.04398 0.0
N692 N 0.54378 0.68076 0.91994 0.0
N693 N 0.55673 0.73107 0.97826 0.0
H694 H 0.79738 0.61424 0.12971 0.0
H695 H 0.88713 0.5288 0.85866 0.0
H696 H 0.77217 0.54435 0.9834 0.0
H697 H 0.90761 0.6089 0.9372 0.0
H698 H 0.84158 0.54143 0.85316 0.0
H699 H 0.83055 0.62175 0.01416 0.0
C700 C 0.79795 0.60124 0.0706 0.0
C701 C 0.78297 0.578 0.06788 0.0
C702 C 0.85599 0.5565 0.86991 0.0
C703 C 0.82148 0.58567 0.93802 0.0
C704 C 0.88239 0.54928 0.87277 0.0
C705 C 0.90156 0.56743 0.90319 0.0
C706 C 0.84842 0.58171 0.90137 0.0
C707 C 0.89351 0.59368 0.91918 0.0
C708 C 0.81709 0.60535 1.0048 0.0
C709 C 0.78401 0.56207 0.98935 0.0
N710 N 0.86749 0.59982 0.92127 0.0
N711 N 0.80377 0.56558 0.92908 0.0
H712 H 0.99648 0.22211 0.98112 0.0
H713 H 0.05367 0.09088 0.73199 0.0
H714 H 0.07933 0.20456 0.96575 0.0
H715 H 0.97272 0.10019 0.81271 0.0
H716 H 0.06338 0.13477 0.79899 0.0
H717 H 0.98723 0.18055 0.89798 0.0
C718 C 0.01277 0.20985 0.95866 0.0
C719 C 0.03874 0.21699 0.98087 0.0
C720 C 0.0435 0.12716 0.80237 0.0
C721 C 0.02827 0.16893 0.8863 0.0
C722 C 0.03802 0.10198 0.76475 0.0
C723 C 0.01249 0.09141 0.7691 0.0
C724 C 0.02321 0.14224 0.84297 0.0
C725 C 0.99279 0.10726 0.80928 0.0
C726 C 1.00747 0.18592 0.912 0.0
C727 C 0.05898 0.1999 0.95076 0.0
N728 N 0.99853 0.13169 0.84454 0.0
N729 N 0.05335 0.17678 0.9056 0.0
H730 H 0.31905 1.00817 0.94765 0.0
H731 H 0.45186 0.05758 0.70717 0.0
H732 H 0.34142 0.0901 0.94171 0.0
H733 H 0.44085 0.97857 0.80173 0.0
H734 H 0.40822 0.06953 0.76779 0.0
H735 H 0.35976 0.99661 0.86598 0.0
C736 C 0.33217 0.02379 0.92719 0.0
C737 C 0.3267 0.05016 0.95155 0.0
C738 C 0.41539 0.04959 0.77541 0.0
C739 C 0.37365 0.03704 0.85893 0.0
C740 C 0.4404 0.04283 0.74148 0.0
C741 C 0.45047 0.01727 0.75223 0.0
C742 C 0.39994 0.03046 0.81818 0.0
C743 C 0.43417 0.99866 0.79371 0.0
C744 C 0.35559 0.01716 0.8815 0.0
C745 C 0.3448 0.06951 0.92446 0.0
N746 N 0.40987 1.0056 0.82522 0.0
N747 N 0.3674 0.0626 0.88006 0.0
H748 H 0.52702 0.30835 0.8883 0.0
H749 H 0.46075 0.44137 0.70779 0.0
H750 H 0.44398 0.32508 0.89857 0.0
H751 H 0.54466 0.42893 0.7127 0.0
H752 H 0.45426 0.39642 0.75944 0.0
H753 H 0.53382 0.34933 0.80478 0.0
C754 C 0.51014 0.32024 0.8708 0.0
C755 C 0.48488 0.31318 0.90043 0.0
C756 C 0.47414 0.40341 0.74895 0.0
C757 C 0.49253 0.36047 0.80643 0.0
C758 C 0.47788 0.42924 0.7197 0.0
C759 C 0.50335 0.43941 0.70768 0.0
C760 C 0.49599 0.38726 0.76642 0.0
C761 C 0.52467 0.42224 0.72195 0.0
C762 C 0.51405 0.34381 0.824 0.0
C763 C 0.4638 0.3297 0.87722 0.0
N764 N 0.52053 0.39719 0.75129 0.0
N765 N 0.46811 0.35251 0.83252 0.0
H766 H 0.21327 0.45303 0.9435 0.0
H767 H 0.10968 0.55324 0.72699 0.0
H768 H 0.2272 0.53671 0.93016 0.0
H769 H 0.09596 0.46976 0.75179 0.0
H770 H 0.15421 0.54731 0.78633 0.0
H771 H 0.17247 0.45847 0.85848 0.0
C772 C 0.20795 0.47256 0.92143 0.0
C773 C 0.2238 0.49445 0.94463 0.0
C774 C 0.14148 0.53027 0.77872 0.0
C775 C 0.17646 0.50094 0.84736 0.0
C776 C 0.11591 0.53363 0.74475 0.0
C777 C 0.09851 0.51209 0.73626 0.0
C778 C 0.15002 0.50512 0.80416 0.0
C779 C 0.10822 0.48713 0.75925 0.0
C780 C 0.18451 0.47567 0.87303 0.0
C781 C 0.2158 0.51923 0.9135 0.0
N782 N 0.1331 0.48439 0.79251 0.0
N783 N 0.19261 0.52184 0.86749 0.0
H784 H 0.95396 0.84346 0.38046 0.0
H785 H 0.06509 0.94728 0.53282 0.0
H786 H 0.03693 0.82699 0.36019 0.0
H787 H 0.98395 0.95639 0.61144 0.0
H788 H 0.05483 0.90374 0.46722 0.0
H789 H 0.96401 0.88461 0.46384 0.0
C790 C 0.97433 0.84828 0.39479 0.0
C791 C 0.99461 0.83152 0.36309 0.0
C792 C 0.03917 0.91521 0.49842 0.0
C793 C 1.00634 0.87926 0.4577 0.0
C794 C 0.045 0.9402 0.53561 0.0
C795 C 0.02525 0.95595 0.57568 0.0
C796 C 0.01327 0.90556 0.50079 0.0
C797 C 0.99968 0.94536 0.5789 0.0
C798 C 0.98004 0.87188 0.44233 0.0
C799 C 0.02061 0.839 0.38382 0.0
N800 N 0.99439 0.92101 0.54127 0.0
N801 N 0.0257 0.86235 0.42862 0.0
H802 H 0.71777 0.03821 0.39157 0.0
H803 H 0.58541 0.98756 0.63182 0.0
H804 H 0.69695 0.95596 0.40252 0.0
H805 H 0.59518 0.06627 0.53318 0.0
H806 H 0.62941 0.97615 0.57315 0.0
H807 H 0.67671 0.04945 0.47169 0.0
C808 C 0.70492 0.02248 0.41286 0.0
C809 C 0.71092 0.99609 0.39036 0.0
C810 C 0.62188 0.9959 0.56415 0.0
C811 C 0.66357 1.00882 0.48113 0.0
C812 C 0.59667 1.00234 0.59694 0.0
C813 C 0.58616 0.02764 0.58448 0.0
C814 C 0.63708 0.01511 0.52077 0.0
C815 C 0.60221 0.04635 0.54245 0.0
C816 C 0.6813 0.0289 0.45764 0.0
C817 C 0.69315 0.97656 0.41839 0.0
N818 N 0.62671 0.03973 0.51203 0.0
N819 N 0.67035 0.98328 0.46185 0.0
H820 H 0.59152 0.71793 0.42933 0.0
H821 H 0.48847 0.61162 0.6111 0.0
H822 H 0.5079 0.73155 0.43464 0.0
H823 H 0.57254 0.60016 0.60826 0.0
H824 H 0.49502 0.65696 0.56176 0.0
H825 H 0.58494 0.67696 0.51064 0.0
C826 C 0.57178 0.71259 0.44967 0.0
C827 C 0.55025 0.72836 0.42548 0.0
C828 C 0.51205 0.64457 0.57223 0.0
C829 C 0.54238 0.68072 0.51697 0.0
C830 C 0.50833 0.61855 0.60052 0.0
C831 C 0.52993 0.60156 0.61195 0.0
C832 C 0.5376 0.65393 0.5554 0.0
C833 C 0.55519 0.6121 0.59814 0.0
C834 C 0.56799 0.68903 0.49557 0.0
C835 C 0.52509 0.72023 0.45281 0.0
N836 N 0.55828 0.63737 0.57006 0.0
N837 N 0.52181 0.69686 0.49599 0.0
H838 H 0.83988 0.52928 0.22193 0.0
H839 H 0.91946 0.51686 0.68398 0.0
H840 H 0.79928 0.54165 0.47525 0.0
H841 H 0.9526 0.54462 0.43605 0.0
H842 H 0.8754 0.51756 0.61356 0.0
H843 H 0.8812 0.52507 0.30345 0.0
C844 C 0.83959 0.53092 0.2951 0.0
C845 C 0.81597 0.5364 0.34142 0.0
C846 C 0.89237 0.52378 0.57519 0.0
C847 C 0.8638 0.53128 0.43619 0.0
C848 C 0.91752 0.52348 0.61541 0.0
C849 C 0.93985 0.53172 0.56719 0.0
C850 C 0.88968 0.53138 0.48479 0.0
C851 C 0.93609 0.53925 0.47739 0.0
C852 C 0.8633 0.52857 0.34165 0.0
C853 C 0.81696 0.53759 0.43661 0.0
N854 N 0.91173 0.53872 0.43926 0.0
N855 N 0.84052 0.53524 0.48099 0.0
loop_
_geom_bond_atom_site_label_1
_geom_bond_atom_site_label_2
_geom_bond_distance
_geom_bond_site_symmetry_2
_ccdc_geom_bond_type
H0 C3 0.929 . S
H1 C6 0.929 . S
H2 C8 0.930 . S
C3 H0 0.929 . S
C3 C4 1.398 . S
C3 C5 1.396 . S
C4 C3 1.398 . S
C4 C8 1.407 . S
C5 C3 1.396 . S
C5 C6 1.394 . S
C6 H1 0.929 . S
C6 C5 1.394 . S
C6 C7 1.382 . S
C7 C6 1.382 . S
C7 C8 1.392 . S
C7 N9 1.420 . S
C8 H2 0.930 . S
C8 C4 1.407 . S
C8 C7 1.392 . S
N9 C7 1.420 . S
N9 C10 1.244 . S
C10 N9 1.244 . S
H11 C14 0.929 . S
H12 C17 0.929 . S
H13 C19 0.930 . S
C14 H11 0.929 . S
C14 C15 1.398 . S
C14 C16 1.396 . S
C15 C14 1.398 . S
C15 C19 1.407 . S
C16 C14 1.396 . S
C16 C17 1.394 . S
C17 H12 0.929 . S
C17 C16 1.394 . S
C17 C18 1.382 . S
C18 C17 1.382 . S
C18 C19 1.392 . S
C18 N20 1.420 . S
C19 H13 0.930 . S
C19 C15 1.407 . S
C19 C18 1.392 . S
N20 C18 1.420 . S
N20 C21 1.244 . S
C21 N20 1.244 . S
H22 C25 0.929 . S
H23 C28 0.929 . S
H24 C30 0.930 . S
C25 H22 0.929 . S
C25 C26 1.398 . S
C25 C27 1.396 . S
C26 C25 1.398 . S
C26 C30 1.407 . S
C27 C25 1.396 . S
C27 C28 1.394 . S
C28 H23 0.929 . S
C28 C27 1.394 . S
C28 C29 1.382 . S
C29 C28 1.382 . S
C29 C30 1.392 . S
C29 N31 1.420 . S
C30 H24 0.930 . S
C30 C26 1.407 . S
C30 C29 1.392 . S
N31 C29 1.420 . S
N31 C32 1.244 . S
C32 N31 1.244 . S
H33 C36 0.929 . S
H34 C39 0.929 . S
H35 C41 0.930 . S
C36 H33 0.929 . S
C36 C37 1.398 . S
C36 C38 1.396 . S
C37 C36 1.398 . S
C37 C41 1.407 . S
C38 C36 1.396 . S
C38 C39 1.394 . S
C39 H34 0.929 . S
C39 C38 1.394 . S
C39 C40 1.382 . S
C40 C39 1.382 . S
C40 C41 1.392 . S
C40 N42 1.420 . S
C41 H35 0.930 . S
C41 C37 1.407 . S
C41 C40 1.392 . S
N42 C40 1.420 . S
N42 C43 1.244 . S
C43 N42 1.244 . S
H44 C47 0.929 . S
H45 C50 0.929 . S
H46 C52 0.930 . S
C47 H44 0.929 . S
C47 C48 1.398 . S
C47 C49 1.396 1_556 S
C48 C47 1.398 . S
C48 C52 1.407 . S
C49 C47 1.396 1_554 S
C49 C50 1.394 . S
C50 H45 0.929 . S
C50 C49 1.394 . S
C50 C51 1.382 . S
C51 C50 1.382 . S
C51 C52 1.392 1_554 S
C51 N53 1.420 . S
C52 H46 0.930 . S
C52 C48 1.407 . S
C52 C51 1.392 1_556 S
N53 C51 1.420 . S
N53 C54 1.244 . S
C54 N53 1.244 . S
H55 C58 0.929 . S
H56 C61 0.929 . S
H57 C63 0.930 . S
C58 H55 0.929 . S
C58 C59 1.398 . S
C58 C60 1.396 1_556 S
C59 C58 1.398 . S
C59 C63 1.407 . S
C60 C58 1.396 1_554 S
C60 C61 1.394 . S
C61 H56 0.929 . S
C61 C60 1.394 . S
C61 C62 1.382 . S
C62 C61 1.382 . S
C62 C63 1.392 1_554 S
C62 N64 1.420 . S
C63 H57 0.930 . S
C63 C59 1.407 . S
C63 C62 1.392 1_556 S
N64 C62 1.420 . S
N64 C65 1.244 . S
C65 N64 1.244 . S
H66 C69 0.929 . S
H67 C72 0.929 . S
H68 C74 0.930 . S
C69 H66 0.929 . S
C69 C70 1.398 . S
C69 C71 1.396 1_556 S
C70 C69 1.398 . S
C70 C74 1.407 . S
C71 C69 1.396 1_554 S
C71 C72 1.394 . S
C72 H67 0.929 . S
C72 C71 1.394 . S
C72 C73 1.383 1_554 S
C73 C72 1.383 1_556 S
C73 C74 1.391 . S
C73 N75 1.420 1_556 S
C74 H68 0.930 . S
C74 C70 1.407 . S
C74 C73 1.391 . S
N75 C73 1.420 1_554 S
N75 C76 1.244 . S
C76 N75 1.244 . S
H77 C80 0.929 . S
H78 C83 0.929 . S
H79 C85 0.930 . S
C80 H77 0.929 . S
C80 C81 1.398 . S
C80 C82 1.396 1_556 S
C81 C80 1.398 . S
C81 C85 1.407 . S
C82 C80 1.396 1_554 S
C82 C83 1.394 . S
C83 H78 0.929 . S
C83 C82 1.394 . S
C83 C84 1.382 . S
C84 C83 1.382 . S
C84 C85 1.392 1_554 S
C84 N86 1.420 . S
C85 H79 0.930 . S
C85 C81 1.407 . S
C85 C84 1.392 1_556 S
N86 C84 1.420 . S
N86 C87 1.244 . S
C87 N86 1.244 . S
Eu88 N119 2.657 1_565 S
Eu88 N126 2.609 1_565 S
Eu88 O132 2.558 . S
Eu88 O133 2.612 1_455 S
Eu88 O135 2.339 1_455 S
Eu88 O136 2.563 . S
Eu88 O137 2.419 . S
Eu88 O139 2.380 1_565 S
Eu88 O140 2.432 . S
Eu88 C152 2.848 . S
C89 C92 1.429 1_545 S
C89 C93 1.407 1_545 S
C89 N96 1.377 . S
C90 C92 1.420 . S
C90 C94 1.423 . S
C90 C102 1.392 . S
C91 C93 1.437 . S
C91 C94 1.351 . S
C91 H114 0.931 . S
C92 C89 1.429 1_565 S
C92 C90 1.420 . S
C92 N100 1.372 . S
C93 C89 1.407 1_565 S
C93 C91 1.437 . S
C93 C98 1.383 1_565 S
C94 C90 1.423 . S
C94 C91 1.351 . S
C94 H106 0.930 . S
C95 C97 1.400 . S
C95 C98 1.386 . S
C95 H107 0.930 . S
N96 C89 1.377 . S
N96 C97 1.321 . S
N96 Eu99 2.609 . S
C97 C95 1.400 . S
C97 N96 1.321 . S
C97 H104 0.930 . S
C98 C93 1.383 1_545 S
C98 C95 1.386 . S
C98 H117 0.930 . S
Eu99 N96 2.609 . S
Eu99 N100 2.632 1_545 S
Eu99 O133 2.380 1_545 S
Eu99 O134 2.432 . S
Eu99 O138 2.558 . S
Eu99 O139 2.612 1_655 S
Eu99 O141 2.339 1_655 S
Eu99 O142 2.563 1_655 S
Eu99 O143 2.419 . S
Eu99 C163 2.848 . S
N100 C92 1.372 . S
N100 Eu99 2.632 1_565 S
N100 C101 1.351 1_655 S
C101 N100 1.351 1_455 S
C101 C103 1.413 . S
C101 H108 0.929 . S
C102 C90 1.392 . S
C102 C103 1.367 1_655 S
C102 H110 0.930 . S
C103 C101 1.413 . S
C103 C102 1.367 1_455 S
C103 H105 0.930 . S
H104 C97 0.930 . S
H105 C103 0.930 . S
H106 C94 0.930 . S
H107 C95 0.930 . S
H108 C101 0.929 . S
H109 C123 0.930 1_655 S
H110 C102 0.930 . S
H111 C129 0.930 . S
H112 C120 0.929 1_655 S
H113 C127 0.930 . S
H114 C91 0.931 . S
H115 C121 0.930 . S
H116 C154 0.930 . S
H117 C98 0.930 . S
H118 C153 0.931 . S
N119 Eu88 2.657 1_545 S
N119 C120 1.334 . S
N119 C124 1.362 . S
C120 H112 0.929 1_455 S
C120 N119 1.334 . S
C120 C123 1.413 1_556 S
C121 H115 0.930 . S
C121 C122 1.392 . S
C121 C123 1.367 . S
C122 C121 1.392 . S
C122 C124 1.420 1_554 S
C122 C154 1.423 . S
C123 H109 0.930 1_455 S
C123 C120 1.413 1_554 S
C123 C121 1.367 . S
C124 N119 1.362 . S
C124 C122 1.420 1_556 S
C124 C128 1.429 . S
H125 C130 0.930 . S
N126 Eu88 2.609 1_545 S
N126 C128 1.377 . S
N126 C129 1.321 1_545 S
C127 H113 0.930 . S
C127 C129 1.400 . S
C127 C130 1.386 1_565 S
C128 C124 1.429 . S
C128 N126 1.377 . S
C128 C131 1.411 . S
C129 H111 0.930 . S
C129 N126 1.321 1_565 S
C129 C127 1.400 . S
C130 H125 0.930 . S
C130 C127 1.386 1_545 S
C130 C131 1.395 . S
C131 C128 1.411 . S
C131 C130 1.395 . S
C131 C153 1.420 1_556 S
O132 Eu88 2.558 . S
O132 C152 1.257 . S
O133 Eu88 2.612 1_655 S
O133 Eu99 2.380 1_565 S
O133 C144 1.276 . S
O134 Eu99 2.432 . S
O134 C151 1.264 . S
O135 Eu88 2.339 1_655 S
O135 C151 1.254 1_565 S
O136 Eu88 2.563 . S
O136 C144 1.235 1_455 S
O137 Eu88 2.419 . S
O137 C152 1.249 . S
O138 Eu99 2.558 . S
O138 C163 1.257 . S
O139 Eu88 2.380 1_545 S
O139 Eu99 2.612 1_455 S
O139 C155 1.276 . S
O140 Eu88 2.432 . S
O140 C162 1.264 1_565 S
O141 Eu99 2.339 1_455 S
O141 C162 1.254 . S
O142 Eu99 2.563 1_455 S
O142 C155 1.235 . S
O143 Eu99 2.419 . S
O143 C163 1.249 . S
C144 O133 1.276 . S
C144 O136 1.235 1_655 S
C145 C147 1.393 . S
C145 C149 1.395 . S
C145 C152 1.492 . S
C146 C147 1.392 . S
C146 C148 1.386 1_556 S
C147 C145 1.393 . S
C147 C146 1.392 . S
C147 H164 0.968 . S
C148 C146 1.386 1_554 S
C148 C150 1.395 1_554 S
C148 H165 0.930 . S
C149 C145 1.395 . S
C149 C150 1.379 . S
C149 H166 0.930 . S
C150 C148 1.395 1_556 S
C150 C149 1.379 . S
C150 H167 0.930 . S
C151 O134 1.264 . S
C151 O135 1.254 1_545 S
C152 Eu88 2.848 . S
C152 O132 1.257 . S
C152 O137 1.249 . S
C152 C145 1.492 . S
C153 H118 0.931 . S
C153 C131 1.420 1_554 S
C153 C154 1.351 . S
C154 H116 0.930 . S
C154 C122 1.423 . S
C154 C153 1.351 . S
C155 O139 1.276 . S
C155 O142 1.235 . S
C156 C157 1.393 . S
C156 C160 1.395 . S
C156 C163 1.492 . S
C157 C156 1.393 . S
C157 C158 1.392 . S
C157 H168 0.930 1_655 S
C158 C157 1.392 . S
C158 C159 1.386 . S
C159 C158 1.386 . S
C159 C161 1.395 . S
C159 H169 0.930 . S
C160 C156 1.395 . S
C160 C161 1.379 . S
C160 H170 0.930 . S
C161 C159 1.395 . S
C161 C160 1.379 . S
C161 H171 0.930 . S
C162 O140 1.264 1_545 S
C162 O141 1.254 . S
C163 Eu99 2.848 . S
C163 O138 1.257 . S
C163 O143 1.249 . S
C163 C156 1.492 . S
H164 C147 0.968 . S
H165 C148 0.930 . S
H166 C149 0.930 . S
H167 C150 0.930 . S
H168 C157 0.930 1_455 S
H169 C159 0.930 . S
H170 C160 0.930 . S
H171 C161 0.930 . S
Eu172 N203 2.657 . S
Eu172 N210 2.609 . S
Eu172 O216 2.558 . S
Eu172 O217 2.612 1_545 S
Eu172 O219 2.339 1_545 S
Eu172 O220 2.563 . S
Eu172 O221 2.419 . S
Eu172 O223 2.380 . S
Eu172 O224 2.432 . S
Eu172 C236 2.848 . S
C173 C176 1.429 . S
C173 C177 1.411 . S
C173 N180 1.377 . S
C174 C176 1.420 . S
C174 C178 1.423 . S
C174 C186 1.392 . S
C175 C177 1.420 . S
C175 C178 1.351 . S
C175 H198 0.931 . S
C176 C173 1.429 . S
C176 C174 1.420 . S
C176 N184 1.362 . S
C177 C173 1.411 . S
C177 C175 1.420 . S
C177 C182 1.395 . S
C178 C174 1.423 . S
C178 C175 1.351 . S
C178 H190 0.930 . S
C179 C181 1.400 . S
C179 C182 1.386 . S
C179 H191 0.930 . S
N180 C173 1.377 . S
N180 C181 1.321 . S
N180 Eu183 2.609 . S
C181 C179 1.400 . S
C181 N180 1.321 . S
C181 H188 0.930 . S
C182 C177 1.395 . S
C182 C179 1.386 . S
C182 H201 0.930 . S
Eu183 N180 2.609 . S
Eu183 N184 2.657 . S
Eu183 O217 2.380 . S
Eu183 O218 2.432 . S
Eu183 O222 2.558 . S
Eu183 O223 2.612 1_565 S
Eu183 O225 2.339 1_565 S
Eu183 O226 2.563 1_565 S
Eu183 O227 2.419 . S
Eu183 C247 2.848 . S
N184 C176 1.362 . S
N184 Eu183 2.657 . S
N184 C185 1.334 1_565 S
C185 N184 1.334 1_545 S
C185 C187 1.413 . S
C185 H192 0.929 . S
C186 C174 1.392 . S
C186 C187 1.367 1_565 S
C186 H194 0.930 . S
C187 C185 1.413 . S
C187 C186 1.367 1_545 S
C187 H189 0.930 . S
H188 C181 0.930 . S
H189 C187 0.930 . S
H190 C178 0.930 . S
H191 C179 0.930 . S
H192 C185 0.929 . S
H193 C207 0.930 1_565 S
H194 C186 0.930 . S
H195 C213 0.930 . S
H196 C204 0.929 1_565 S
H197 C211 0.930 . S
H198 C175 0.931 . S
H199 C205 0.930 . S
H200 C238 0.930 . S
H201 C182 0.930 . S
H202 C237 0.931 . S
N203 Eu172 2.657 . S
N203 C204 1.334 . S
N203 C208 1.362 . S
C204 H196 0.929 1_545 S
C204 N203 1.334 . S
C204 C207 1.413 1_556 S
C205 H199 0.930 . S
C205 C206 1.392 . S
C205 C207 1.367 . S
C206 C205 1.392 . S
C206 C208 1.420 1_554 S
C206 C238 1.423 . S
C207 H193 0.930 1_545 S
C207 C204 1.413 1_554 S
C207 C205 1.367 . S
C208 N203 1.362 . S
C208 C206 1.420 1_556 S
C208 C212 1.429 . S
H209 C214 0.930 . S
N210 Eu172 2.609 . S
N210 C212 1.377 . S
N210 C213 1.321 . S
C211 H197 0.930 . S
C211 C213 1.400 . S
C211 C214 1.386 . S
C212 C208 1.429 . S
C212 N210 1.377 . S
C212 C215 1.411 . S
C213 H195 0.930 . S
C213 N210 1.321 . S
C213 C211 1.400 . S
C214 H209 0.930 . S
C214 C211 1.386 . S
C214 C215 1.395 . S
C215 C212 1.411 . S
C215 C214 1.395 . S
C215 C237 1.420 1_556 S
O216 Eu172 2.558 . S
O216 C236 1.257 . S
O217 Eu172 2.612 1_565 S
O217 Eu183 2.380 . S
O217 C228 1.276 . S
O218 Eu183 2.432 . S
O218 C235 1.264 . S
O219 Eu172 2.339 1_565 S
O219 C235 1.254 . S
O220 Eu172 2.563 . S
O220 C228 1.235 1_545 S
O221 Eu172 2.419 . S
O221 C236 1.249 . S
O222 Eu183 2.558 . S
O222 C247 1.257 . S
O223 Eu172 2.380 . S
O223 Eu183 2.612 1_545 S
O223 C239 1.276 . S
O224 Eu172 2.432 . S
O224 C246 1.264 . S
O225 Eu183 2.339 1_545 S
O225 C246 1.254 . S
O226 Eu183 2.563 1_545 S
O226 C239 1.235 . S
O227 Eu183 2.419 . S
O227 C247 1.249 . S
C228 O217 1.276 . S
C228 O220 1.235 1_565 S
C229 C231 1.393 . S
C229 C233 1.395 . S
C229 C236 1.492 . S
C230 C231 1.392 . S
C230 C232 1.386 1_556 S
C231 C229 1.393 . S
C231 C230 1.392 . S
C231 H248 0.930 . S
C232 C230 1.386 1_554 S
C232 C234 1.395 1_554 S
C232 H249 0.930 . S
C233 C229 1.395 . S
C233 C234 1.379 . S
C233 H250 0.930 . S
C234 C232 1.395 1_556 S
C234 C233 1.379 . S
C234 H251 0.930 . S
C235 O218 1.264 . S
C235 O219 1.254 . S
C236 Eu172 2.848 . S
C236 O216 1.257 . S
C236 O221 1.249 . S
C236 C229 1.492 . S
C237 H202 0.931 . S
C237 C215 1.420 1_554 S
C237 C238 1.351 . S
C238 H200 0.930 . S
C238 C206 1.423 . S
C238 C237 1.351 . S
C239 O223 1.276 . S
C239 O226 1.235 . S
C240 C241 1.393 . S
C240 C244 1.395 . S
C240 C247 1.492 . S
C241 C240 1.393 . S
C241 C242 1.392 . S
C241 H252 0.930 1_565 S
C242 C241 1.392 . S
C242 C243 1.386 . S
C243 C242 1.386 . S
C243 C245 1.395 . S
C243 H253 0.930 . S
C244 C240 1.395 . S
C244 C245 1.379 . S
C244 H254 0.930 . S
C245 C243 1.395 . S
C245 C244 1.379 . S
C245 H255 0.930 . S
C246 O224 1.264 . S
C246 O225 1.254 . S
C247 Eu183 2.848 . S
C247 O222 1.257 . S
C247 O227 1.249 . S
C247 C240 1.492 . S
H248 C231 0.930 . S
H249 C232 0.930 . S
H250 C233 0.930 . S
H251 C234 0.930 . S
H252 C241 0.930 1_545 S
H253 C243 0.930 . S
H254 C244 0.930 . S
H255 C245 0.930 . S
Eu256 N287 2.657 . S
Eu256 N294 2.609 . S
Eu256 O300 2.558 . S
Eu256 O301 2.612 . S
Eu256 O303 2.339 . S
Eu256 O304 2.563 . S
Eu256 O305 2.419 . S
Eu256 O307 2.380 . S
Eu256 O308 2.432 . S
Eu256 C320 2.848 . S
C257 C260 1.429 . S
C257 C261 1.411 . S
C257 N264 1.377 . S
C258 C260 1.420 . S
C258 C262 1.423 . S
C258 C270 1.392 . S
C259 C261 1.420 . S
C259 C262 1.351 . S
C259 H282 0.931 . S
C260 C257 1.429 . S
C260 C258 1.420 . S
C260 N268 1.362 . S
C261 C257 1.411 . S
C261 C259 1.420 . S
C261 C266 1.395 . S
C262 C258 1.423 . S
C262 C259 1.351 . S
C262 H274 0.930 . S
C263 C265 1.400 . S
C263 C266 1.386 . S
C263 H275 0.930 . S
N264 C257 1.377 . S
N264 C265 1.321 . S
N264 Eu267 2.609 . S
C265 C263 1.400 . S
C265 N264 1.321 . S
C265 H272 0.930 . S
C266 C261 1.395 . S
C266 C263 1.386 . S
C266 H285 0.930 . S
Eu267 N264 2.609 . S
Eu267 N268 2.657 . S
Eu267 O301 2.380 . S
Eu267 O302 2.432 . S
Eu267 O306 2.558 . S
Eu267 O307 2.612 . S
Eu267 O309 2.339 . S
Eu267 O310 2.563 . S
Eu267 O311 2.419 . S
Eu267 C331 2.848 . S
N268 C260 1.362 . S
N268 Eu267 2.657 . S
N268 C269 1.334 . S
C269 N268 1.334 . S
C269 C271 1.413 . S
C269 H276 0.929 . S
C270 C258 1.392 . S
C270 C271 1.367 . S
C270 H278 0.930 . S
C271 C269 1.413 . S
C271 C270 1.367 . S
C271 H273 0.930 . S
H272 C265 0.930 . S
H273 C271 0.930 . S
H274 C262 0.930 . S
H275 C263 0.930 . S
H276 C269 0.929 . S
H277 C291 0.930 . S
H278 C270 0.930 . S
H279 C297 0.930 . S
H280 C288 0.929 . S
H281 C295 0.930 . S
H282 C259 0.931 . S
H283 C289 0.930 . S
H284 C322 0.930 . S
H285 C266 0.930 . S
H286 C321 0.931 . S
N287 Eu256 2.657 . S
N287 C288 1.334 . S
N287 C292 1.362 . S
C288 H280 0.929 . S
C288 N287 1.334 . S
C288 C291 1.413 . S
C289 H283 0.930 . S
C289 C290 1.392 . S
C289 C291 1.367 . S
C290 C289 1.392 . S
C290 C292 1.420 . S
C290 C322 1.423 . S
C291 H277 0.930 . S
C291 C288 1.413 . S
C291 C289 1.367 . S
C292 N287 1.362 . S
C292 C290 1.420 . S
C292 C296 1.429 . S
H293 C298 0.930 . S
N294 Eu256 2.609 . S
N294 C296 1.377 . S
N294 C297 1.321 . S
C295 H281 0.930 . S
C295 C297 1.400 . S
C295 C298 1.386 . S
C296 C292 1.429 . S
C296 N294 1.377 . S
C296 C299 1.411 . S
C297 H279 0.930 . S
C297 N294 1.321 . S
C297 C295 1.400 . S
C298 H293 0.930 . S
C298 C295 1.386 . S
C298 C299 1.395 . S
C299 C296 1.411 . S
C299 C298 1.395 . S
C299 C321 1.420 . S
O300 Eu256 2.558 . S
O300 C320 1.257 . S
O301 Eu256 2.612 . S
O301 Eu267 2.380 . S
O301 C312 1.276 . S
O302 Eu267 2.432 . S
O302 C319 1.264 . S
O303 Eu256 2.339 . S
O303 C319 1.254 . S
O304 Eu256 2.563 . S
O304 C312 1.235 . S
O305 Eu256 2.419 . S
O305 C320 1.249 . S
O306 Eu267 2.558 . S
O306 C331 1.257 . S
O307 Eu256 2.380 . S
O307 Eu267 2.612 . S
O307 C323 1.276 . S
O308 Eu256 2.432 . S
O308 C330 1.264 . S
O309 Eu267 2.339 . S
O309 C330 1.254 . S
O310 Eu267 2.563 . S
O310 C323 1.235 . S
O311 Eu267 2.419 . S
O311 C331 1.249 . S
C312 O301 1.276 . S
C312 O304 1.235 . S
C313 C315 1.393 . S
C313 C317 1.395 . S
C313 C320 1.492 . S
C314 C315 1.392 . S
C314 C316 1.386 . S
C315 C313 1.393 . S
C315 C314 1.392 . S
C315 H332 0.930 . S
C316 C314 1.386 . S
C316 C318 1.395 . S
C316 H333 0.930 . S
C317 C313 1.395 . S
C317 C318 1.379 . S
C317 H334 0.930 . S
C318 C316 1.395 . S
C318 C317 1.379 . S
C318 H335 0.930 . S
C319 O302 1.264 . S
C319 O303 1.254 . S
C320 Eu256 2.848 . S
C320 O300 1.257 . S
C320 O305 1.249 . S
C320 C313 1.492 . S
C321 H286 0.931 . S
C321 C299 1.420 . S
C321 C322 1.351 . S
C322 H284 0.930 . S
C322 C290 1.423 . S
C322 C321 1.351 . S
C323 O307 1.276 . S
C323 O310 1.235 . S
C324 C325 1.393 . S
C324 C328 1.395 1_556 S
C324 C331 1.492 . S
C325 C324 1.393 . S
C325 C326 1.392 1_556 S
C325 H336 0.930 . S
C326 C325 1.392 1_554 S
C326 C327 1.386 . S
C327 C326 1.386 . S
C327 C329 1.395 . S
C327 H337 0.930 . S
C328 C324 1.395 1_554 S
C328 C329 1.379 . S
C328 H338 0.930 . S
C329 C327 1.395 . S
C329 C328 1.379 . S
C329 H339 0.930 . S
C330 O308 1.264 . S
C330 O309 1.254 . S
C331 Eu267 2.848 . S
C331 O306 1.257 . S
C331 O311 1.249 . S
C331 C324 1.492 . S
H332 C315 0.930 . S
H333 C316 0.930 . S
H334 C317 0.930 . S
H335 C318 0.930 . S
H336 C325 0.930 . S
H337 C327 0.930 . S
H338 C328 0.930 . S
H339 C329 0.930 . S
Eu340 N371 2.657 . S
Eu340 N378 2.609 . S
Eu340 O384 2.558 . S
Eu340 O385 2.612 . S
Eu340 O387 2.339 . S
Eu340 O388 2.563 . S
Eu340 O389 2.419 . S
Eu340 O391 2.380 . S
Eu340 O392 2.432 1_455 S
Eu340 C404 2.848 . S
C341 C344 1.429 . S
C341 C345 1.411 . S
C341 N348 1.377 . S
C342 C344 1.420 . S
C342 C346 1.423 . S
C342 C354 1.392 . S
C343 C345 1.420 . S
C343 C346 1.351 . S
C343 H366 0.931 . S
C344 C341 1.429 . S
C344 C342 1.420 . S
C344 N352 1.362 . S
C345 C341 1.411 . S
C345 C343 1.420 . S
C345 C350 1.395 1_655 S
C346 C342 1.423 . S
C346 C343 1.351 . S
C346 H358 0.930 . S
C347 C349 1.400 . S
C347 C350 1.386 . S
C347 H359 0.930 . S
N348 C341 1.377 . S
N348 C349 1.321 1_655 S
N348 Eu351 2.609 . S
C349 C347 1.400 . S
C349 N348 1.321 1_455 S
C349 H356 0.930 . S
C350 C345 1.395 1_455 S
C350 C347 1.386 . S
C350 H369 0.930 . S
Eu351 N348 2.609 . S
Eu351 N352 2.657 . S
Eu351 O385 2.380 1_655 S
Eu351 O386 2.432 1_655 S
Eu351 O390 2.558 . S
Eu351 O391 2.612 1_655 S
Eu351 O393 2.339 . S
Eu351 O394 2.563 . S
Eu351 O395 2.419 . S
Eu351 C415 2.848 . S
N352 C344 1.362 . S
N352 Eu351 2.657 . S
N352 C353 1.334 . S
C353 N352 1.334 . S
C353 C355 1.413 . S
C353 H360 0.929 . S
C354 C342 1.392 . S
C354 C355 1.367 . S
C354 H362 0.930 . S
C355 C353 1.413 . S
C355 C354 1.367 . S
C355 H357 0.930 . S
H356 C349 0.930 . S
H357 C355 0.930 . S
H358 C346 0.930 . S
H359 C347 0.930 . S
H360 C353 0.929 . S
H361 C375 0.930 . S
H362 C354 0.930 . S
H363 C381 0.926 1_655 S
H364 C372 0.929 . S
H365 C379 0.930 . S
H366 C343 0.931 . S
H367 C373 0.930 . S
H368 C406 0.930 . S
H369 C350 0.930 . S
H370 C405 0.931 . S
N371 Eu340 2.657 . S
N371 C372 1.334 . S
N371 C376 1.362 . S
C372 H364 0.929 . S
C372 N371 1.334 . S
C372 C375 1.413 . S
C373 H367 0.930 . S
C373 C374 1.392 . S
C373 C375 1.367 . S
C374 C373 1.392 . S
C374 C376 1.420 . S
C374 C406 1.423 . S
C375 H361 0.930 . S
C375 C372 1.413 . S
C375 C373 1.367 . S
C376 N371 1.362 . S
C376 C374 1.420 . S
C376 C380 1.429 . S
H377 C382 0.930 . S
N378 Eu340 2.609 . S
N378 C380 1.377 . S
N378 C381 1.327 . S
C379 H365 0.930 . S
C379 C381 1.398 1_655 S
C379 C382 1.386 1_655 S
C380 C376 1.429 . S
C380 N378 1.377 . S
C380 C383 1.411 . S
C381 H363 0.926 1_455 S
C381 N378 1.327 . S
C381 C379 1.398 1_455 S
C382 H377 0.930 . S
C382 C379 1.386 1_455 S
C382 C383 1.395 . S
C383 C380 1.411 . S
C383 C382 1.395 . S
C383 C405 1.420 . S
O384 Eu340 2.558 . S
O384 C404 1.257 . S
O385 Eu340 2.612 . S
O385 Eu351 2.380 1_455 S
O385 C396 1.276 . S
O386 Eu351 2.432 1_455 S
O386 C403 1.264 . S
O387 Eu340 2.339 . S
O387 C403 1.254 . S
O388 Eu340 2.563 . S
O388 C396 1.235 . S
O389 Eu340 2.419 . S
O389 C404 1.249 . S
O390 Eu351 2.558 . S
O390 C415 1.257 . S
O391 Eu340 2.380 . S
O391 Eu351 2.612 1_455 S
O391 C407 1.276 1_455 S
O392 Eu340 2.432 1_655 S
O392 C414 1.264 . S
O393 Eu351 2.339 . S
O393 C414 1.254 . S
O394 Eu351 2.563 . S
O394 C407 1.235 . S
O395 Eu351 2.419 . S
O395 C415 1.249 . S
C396 O385 1.276 . S
C396 O388 1.235 . S
C397 C399 1.393 . S
C397 C401 1.395 . S
C397 C404 1.492 . S
C398 C399 1.392 . S
C398 C400 1.386 . S
C399 C397 1.393 . S
C399 C398 1.392 . S
C399 H416 0.930 . S
C400 C398 1.386 . S
C400 C402 1.395 . S
C400 H417 0.930 . S
C401 C397 1.395 . S
C401 C402 1.379 . S
C401 H418 0.930 . S
C402 C400 1.395 . S
C402 C401 1.379 . S
C402 H419 0.930 . S
C403 O386 1.264 . S
C403 O387 1.254 . S
C404 Eu340 2.848 . S
C404 O384 1.257 . S
C404 O389 1.249 . S
C404 C397 1.492 . S
C405 H370 0.931 . S
C405 C383 1.420 . S
C405 C406 1.351 . S
C406 H368 0.930 . S
C406 C374 1.423 . S
C406 C405 1.351 . S
C407 O391 1.276 1_655 S
C407 O394 1.235 . S
C408 C409 1.393 . S
C408 C412 1.395 1_556 S
C408 C415 1.492 . S
C409 C408 1.393 . S
C409 C410 1.392 1_556 S
C409 H420 0.930 . S
C410 C409 1.392 1_554 S
C410 C411 1.386 . S
C411 C410 1.386 . S
C411 C413 1.395 . S
C411 H421 0.930 . S
C412 C408 1.395 1_554 S
C412 C413 1.379 . S
C412 H422 0.930 . S
C413 C411 1.395 . S
C413 C412 1.379 . S
C413 H423 0.930 . S
C414 O392 1.264 . S
C414 O393 1.254 . S
C415 Eu351 2.848 . S
C415 O390 1.257 . S
C415 O395 1.249 . S
C415 C408 1.492 . S
H416 C399 0.930 . S
H417 C400 0.930 . S
H418 C401 0.930 . S
H419 C402 0.930 . S
H420 C409 0.930 . S
H421 C411 0.930 . S
H422 C412 0.930 . S
H423 C413 0.930 . S
H424 C430 0.930 . S
H425 C434 0.930 . S
H426 C439 0.929 . S
H427 C437 0.929 . S
H428 C432 0.929 . S
H429 C438 0.929 . S
C430 H424 0.930 . S
C430 C431 1.367 . S
C430 C438 1.378 . S
C431 C430 1.367 . S
C431 C439 1.433 . S
C432 H428 0.929 . S
C432 C434 1.378 . S
C432 C436 1.350 . S
C433 C436 1.463 . S
C433 C438 1.350 . S
C433 N441 1.427 . S
C434 H425 0.930 . S
C434 C432 1.378 . S
C434 C435 1.367 . S
C435 C434 1.367 . S
C435 C437 1.433 . S
C436 C432 1.350 . S
C436 C433 1.463 . S
C436 N440 1.427 . S
C437 H427 0.929 . S
C437 C435 1.433 . S
C437 N440 1.384 . S
C438 H429 0.929 . S
C438 C430 1.378 . S
C438 C433 1.350 . S
C439 H426 0.929 . S
C439 C431 1.433 . S
C439 N441 1.384 . S
N440 C436 1.427 . S
N440 C437 1.384 . S
N441 C433 1.427 . S
N441 C439 1.384 . S
H442 C448 0.930 . S
H443 C452 0.930 . S
H444 C457 0.929 . S
H445 C455 0.929 . S
H446 C450 0.929 . S
H447 C456 0.929 . S
C448 H442 0.930 . S
C448 C449 1.367 . S
C448 C456 1.378 . S
C449 C448 1.367 . S
C449 C457 1.433 . S
C450 H446 0.929 . S
C450 C452 1.378 . S
C450 C454 1.350 . S
C451 C454 1.463 . S
C451 C456 1.350 . S
C451 N459 1.427 . S
C452 H443 0.930 . S
C452 C450 1.378 . S
C452 C453 1.367 . S
C453 C452 1.367 . S
C453 C455 1.433 . S
C454 C450 1.350 . S
C454 C451 1.463 . S
C454 N458 1.427 . S
C455 H445 0.929 . S
C455 C453 1.433 . S
C455 N458 1.384 . S
C456 H447 0.929 . S
C456 C448 1.378 . S
C456 C451 1.350 . S
C457 H444 0.929 . S
C457 C449 1.433 . S
C457 N459 1.384 . S
N458 C454 1.427 . S
N458 C455 1.384 . S
N459 C451 1.427 . S
N459 C457 1.384 . S
H460 C466 0.930 . S
H461 C470 0.930 . S
H462 C475 0.929 . S
H463 C473 0.929 . S
H464 C468 0.929 . S
H465 C474 0.929 . S
C466 H460 0.930 . S
C466 C467 1.367 . S
C466 C474 1.378 . S
C467 C466 1.367 . S
C467 C475 1.433 . S
C468 H464 0.929 . S
C468 C470 1.378 . S
C468 C472 1.350 . S
C469 C472 1.463 . S
C469 C474 1.350 . S
C469 N477 1.427 . S
C470 H461 0.930 . S
C470 C468 1.378 . S
C470 C471 1.367 . S
C471 C470 1.367 . S
C471 C473 1.433 . S
C472 C468 1.350 . S
C472 C469 1.463 . S
C472 N476 1.427 . S
C473 H463 0.929 . S
C473 C471 1.433 . S
C473 N476 1.384 . S
C474 H465 0.929 . S
C474 C466 1.378 . S
C474 C469 1.350 . S
C475 H462 0.929 . S
C475 C467 1.433 . S
C475 N477 1.384 . S
N476 C472 1.427 . S
N476 C473 1.384 . S
N477 C469 1.427 . S
N477 C475 1.384 . S
H478 C484 0.930 . S
H479 C488 0.930 1_655 S
H480 C493 0.929 . S
H481 C491 0.929 . S
H482 C486 0.941 . S
H483 C492 0.929 . S
C484 H478 0.930 . S
C484 C485 1.367 . S
C484 C492 1.378 . S
C485 C484 1.367 . S
C485 C493 1.433 . S
C486 H482 0.941 . S
C486 C488 1.378 . S
C486 C490 1.350 . S
C487 C490 1.463 . S
C487 C492 1.350 . S
C487 N495 1.427 . S
C488 H479 0.930 1_455 S
C488 C486 1.378 . S
C488 C489 1.367 . S
C489 C488 1.367 . S
C489 C491 1.433 . S
C490 C486 1.350 . S
C490 C487 1.463 . S
C490 N494 1.427 . S
C491 H481 0.929 . S
C491 C489 1.433 . S
C491 N494 1.384 . S
C492 H483 0.929 . S
C492 C484 1.378 . S
C492 C487 1.350 . S
C493 H480 0.929 . S
C493 C485 1.433 . S
C493 N495 1.384 . S
N494 C490 1.427 . S
N494 C491 1.384 . S
N495 C487 1.427 . S
N495 C493 1.384 . S
H496 C502 0.930 . S
H497 C506 0.930 . S
H498 C511 0.929 . S
H499 C509 0.929 . S
H500 C504 0.929 . S
H501 C510 0.929 . S
C502 H496 0.930 . S
C502 C503 1.367 . S
C502 C510 1.378 . S
C503 C502 1.367 . S
C503 C511 1.433 . S
C504 H500 0.929 . S
C504 C506 1.378 . S
C504 C508 1.350 . S
C505 C508 1.463 1_554 S
C505 C510 1.350 . S
C505 N513 1.427 . S
C506 H497 0.930 . S
C506 C504 1.378 . S
C506 C507 1.367 . S
C507 C506 1.367 . S
C507 C509 1.433 . S
C508 C504 1.350 . S
C508 C505 1.463 1_556 S
C508 N512 1.427 . S
C509 H499 0.929 . S
C509 C507 1.433 . S
C509 N512 1.384 . S
C510 H501 0.929 . S
C510 C502 1.378 . S
C510 C505 1.350 . S
C511 H498 0.929 . S
C511 C503 1.433 . S
C511 N513 1.384 . S
N512 C508 1.427 . S
N512 C509 1.384 . S
N513 C505 1.427 . S
N513 C511 1.384 . S
H514 C520 0.930 . S
H515 C524 0.930 . S
H516 C529 0.929 . S
H517 C527 0.929 . S
H518 C522 0.929 . S
H519 C528 0.929 . S
C520 H514 0.930 . S
C520 C521 1.367 . S
C520 C528 1.378 . S
C521 C520 1.367 . S
C521 C529 1.433 . S
C522 H518 0.929 . S
C522 C524 1.378 . S
C522 C526 1.350 . S
C523 C526 1.463 1_554 S
C523 C528 1.350 . S
C523 N531 1.427 . S
C524 H515 0.930 . S
C524 C522 1.378 . S
C524 C525 1.367 . S
C525 C524 1.367 . S
C525 C527 1.433 . S
C526 C522 1.350 . S
C526 C523 1.463 1_556 S
C526 N530 1.427 . S
C527 H517 0.929 . S
C527 C525 1.433 . S
C527 N530 1.384 . S
C528 H519 0.929 . S
C528 C520 1.378 . S
C528 C523 1.350 . S
C529 H516 0.929 . S
C529 C521 1.433 . S
C529 N531 1.384 . S
N530 C526 1.427 . S
N530 C527 1.384 . S
N531 C523 1.427 . S
N531 C529 1.384 . S
H532 C538 0.930 . S
H533 C542 0.930 . S
H534 C547 0.929 . S
H535 C545 0.929 . S
H536 C540 0.929 1_554 S
H537 C546 0.929 1_556 S
C538 H532 0.930 . S
C538 C539 1.367 . S
C538 C546 1.378 . S
C539 C538 1.367 . S
C539 C547 1.433 . S
C540 H536 0.929 1_556 S
C540 C542 1.378 . S
C540 C544 1.350 . S
C541 C544 1.463 1_554 S
C541 C546 1.350 . S
C541 N549 1.427 . S
C542 H533 0.930 . S
C542 C540 1.378 . S
C542 C543 1.367 . S
C543 C542 1.367 . S
C543 C545 1.433 . S
C544 C540 1.350 . S
C544 C541 1.463 1_556 S
C544 N548 1.427 . S
C545 H535 0.929 . S
C545 C543 1.433 . S
C545 N548 1.384 . S
C546 H537 0.929 1_554 S
C546 C538 1.378 . S
C546 C541 1.350 . S
C547 H534 0.929 . S
C547 C539 1.433 . S
C547 N549 1.384 . S
N548 C544 1.427 . S
N548 C545 1.384 . S
N549 C541 1.427 . S
N549 C547 1.384 . S
H550 C556 0.930 . S
H551 C560 0.930 . S
H552 C565 0.929 . S
H553 C563 0.929 . S
H554 C558 0.929 . S
H555 C564 0.939 . S
C556 H550 0.930 . S
C556 C557 1.367 . S
C556 C564 1.378 . S
C557 C556 1.367 . S
C557 C565 1.433 . S
C558 H554 0.929 . S
C558 C560 1.378 . S
C558 C562 1.350 . S
C559 C562 1.463 1_554 S
C559 C564 1.350 . S
C559 N567 1.427 . S
C560 H551 0.930 . S
C560 C558 1.378 . S
C560 C561 1.367 . S
C561 C560 1.367 . S
C561 C563 1.433 1_655 S
C562 C558 1.350 . S
C562 C559 1.463 1_556 S
C562 N566 1.427 . S
C563 H553 0.929 . S
C563 C561 1.433 1_455 S
C563 N566 1.384 1_455 S
C564 H555 0.939 . S
C564 C556 1.378 . S
C564 C559 1.350 . S
C565 H552 0.929 . S
C565 C557 1.433 . S
C565 N567 1.384 . S
N566 C562 1.427 . S
N566 C563 1.384 1_655 S
N567 C559 1.427 . S
N567 C565 1.384 . S
H568 C574 0.930 . S
H569 C578 0.930 . S
H570 C583 0.929 . S
H571 C581 0.929 . S
H572 C576 0.929 . S
H573 C582 0.929 . S
C574 H568 0.930 . S
C574 C575 1.367 . S
C574 C582 1.378 . S
C575 C574 1.367 . S
C575 C583 1.433 . S
C576 H572 0.929 . S
C576 C578 1.378 . S
C576 C580 1.350 . S
C577 C580 1.463 . S
C577 C582 1.350 . S
C577 N585 1.427 . S
C578 H569 0.930 . S
C578 C576 1.378 . S
C578 C579 1.367 . S
C579 C578 1.367 . S
C579 C581 1.433 1_455 S
C580 C576 1.350 . S
C580 C577 1.463 . S
C580 N584 1.427 . S
C581 H571 0.929 . S
C581 C579 1.433 1_655 S
C581 N584 1.384 1_655 S
C582 H573 0.929 . S
C582 C574 1.378 . S
C582 C577 1.350 . S
C583 H570 0.929 . S
C583 C575 1.433 . S
C583 N585 1.384 . S
N584 C580 1.427 . S
N584 C581 1.384 1_455 S
N585 C577 1.427 . S
N585 C583 1.384 . S
H586 C592 0.930 . S
H587 C596 0.930 . S
H588 C601 0.929 . S
H589 C599 0.929 . S
H590 C594 0.907 1_565 S
H591 C600 0.929 . S
C592 H586 0.930 . S
C592 C593 1.367 . S
C592 C600 1.378 . S
C593 C592 1.367 . S
C593 C601 1.433 . S
C594 H590 0.907 1_545 S
C594 C596 1.361 1_545 S
C594 C598 1.389 . S
C595 C598 1.463 . S
C595 C600 1.350 . S
C595 N603 1.427 . S
C596 H587 0.930 . S
C596 C594 1.361 1_565 S
C596 C597 1.367 1_565 S
C597 C596 1.367 1_545 S
C597 C599 1.433 . S
C598 C594 1.389 . S
C598 C595 1.463 . S
C598 N602 1.427 . S
C599 H589 0.929 . S
C599 C597 1.433 . S
C599 N602 1.384 . S
C600 H591 0.929 . S
C600 C592 1.378 . S
C600 C595 1.350 . S
C601 H588 0.929 . S
C601 C593 1.433 . S
C601 N603 1.384 . S
N602 C598 1.427 . S
N602 C599 1.384 . S
N603 C595 1.427 . S
N603 C601 1.384 . S
H604 C610 0.930 . S
H605 C614 0.930 . S
H606 C619 0.929 . S
H607 C617 0.929 . S
H608 C612 0.929 . S
H609 C618 0.929 . S
C610 H604 0.930 . S
C610 C611 1.367 . S
C610 C618 1.378 . S
C611 C610 1.367 . S
C611 C619 1.433 . S
C612 H608 0.929 . S
C612 C614 1.378 . S
C612 C616 1.350 . S
C613 C616 1.463 . S
C613 C618 1.350 . S
C613 N621 1.427 . S
C614 H605 0.930 . S
C614 C612 1.378 . S
C614 C615 1.367 . S
C615 C614 1.367 . S
C615 C617 1.433 . S
C616 C612 1.350 . S
C616 C613 1.463 . S
C616 N620 1.427 . S
C617 H607 0.929 . S
C617 C615 1.433 . S
C617 N620 1.384 . S
C618 H609 0.929 . S
C618 C610 1.378 . S
C618 C613 1.350 . S
C619 H606 0.929 . S
C619 C611 1.433 . S
C619 N621 1.384 . S
N620 C616 1.427 . S
N620 C617 1.384 . S
N621 C613 1.427 . S
N621 C619 1.384 . S
H622 C628 0.930 . S
H623 C632 0.930 . S
H624 C637 0.929 . S
H625 C635 0.929 . S
H626 C630 0.929 . S
H627 C636 0.929 . S
C628 H622 0.930 . S
C628 C629 1.367 . S
C628 C636 1.378 . S
C629 C628 1.367 . S
C629 C637 1.433 . S
C630 H626 0.929 . S
C630 C632 1.378 . S
C630 C634 1.350 . S
C631 C634 1.463 . S
C631 C636 1.350 . S
C631 N639 1.427 . S
C632 H623 0.930 . S
C632 C630 1.378 . S
C632 C633 1.367 . S
C633 C632 1.367 . S
C633 C635 1.433 . S
C634 C630 1.350 . S
C634 C631 1.463 . S
C634 N638 1.427 . S
C635 H625 0.929 . S
C635 C633 1.433 . S
C635 N638 1.384 . S
C636 H627 0.929 . S
C636 C628 1.378 . S
C636 C631 1.350 . S
C637 H624 0.929 . S
C637 C629 1.433 . S
C637 N639 1.384 . S
N638 C634 1.427 . S
N638 C635 1.384 . S
N639 C631 1.427 . S
N639 C637 1.384 . S
H640 C646 0.930 . S
H641 C650 0.930 . S
H642 C655 0.929 . S
H643 C653 0.929 . S
H644 C648 0.926 1_455 S
H645 C654 0.929 . S
C646 H640 0.930 . S
C646 C647 1.367 . S
C646 C654 1.378 . S
C647 C646 1.367 . S
C647 C655 1.433 . S
C648 H644 0.926 1_655 S
C648 C650 1.360 1_655 S
C648 C652 1.372 . S
C649 C652 1.463 . S
C649 C654 1.350 . S
C649 N657 1.427 . S
C650 H641 0.930 . S
C650 C648 1.360 1_455 S
C650 C651 1.367 1_554 S
C651 C650 1.367 1_556 S
C651 C653 1.433 1_455 S
C652 C648 1.372 . S
C652 C649 1.463 . S
C652 N656 1.427 1_554 S
C653 H643 0.929 . S
C653 C651 1.433 1_655 S
C653 N656 1.384 . S
C654 H645 0.929 . S
C654 C646 1.378 . S
C654 C649 1.350 . S
C655 H642 0.929 . S
C655 C647 1.433 . S
C655 N657 1.384 . S
N656 C652 1.427 1_556 S
N656 C653 1.384 . S
N657 C649 1.427 . S
N657 C655 1.384 . S
H658 C664 0.930 . S
H659 C668 0.930 . S
H660 C673 0.929 . S
H661 C671 0.929 . S
H662 C666 0.929 . S
H663 C672 0.929 . S
C664 H658 0.930 . S
C664 C665 1.367 . S
C664 C672 1.378 . S
C665 C664 1.367 . S
C665 C673 1.433 . S
C666 H662 0.929 . S
C666 C668 1.378 . S
C666 C670 1.350 1_545 S
C667 C670 1.463 . S
C667 C672 1.350 . S
C667 N675 1.427 . S
C668 H659 0.930 . S
C668 C666 1.378 . S
C668 C669 1.367 1_554 S
C669 C668 1.367 1_556 S
C669 C671 1.433 1_545 S
C670 C666 1.350 1_565 S
C670 C667 1.463 . S
C670 N674 1.427 . S
C671 H661 0.929 . S
C671 C669 1.433 1_565 S
C671 N674 1.384 1_556 S
C672 H663 0.929 . S
C672 C664 1.378 . S
C672 C667 1.350 . S
C673 H660 0.929 . S
C673 C665 1.433 . S
C673 N675 1.384 . S
N674 C670 1.427 . S
N674 C671 1.384 1_554 S
N675 C667 1.427 . S
N675 C673 1.384 . S
H676 C682 0.930 . S
H677 C686 0.930 . S
H678 C691 0.929 . S
H679 C689 0.929 . S
H680 C684 0.929 . S
H681 C690 0.929 . S
C682 H676 0.930 . S
C682 C683 1.367 . S
C682 C690 1.378 . S
C683 C682 1.367 . S
C683 C691 1.433 . S
C684 H680 0.929 . S
C684 C686 1.378 . S
C684 C688 1.350 . S
C685 C688 1.463 . S
C685 C690 1.350 . S
C685 N693 1.427 . S
C686 H677 0.930 . S
C686 C684 1.378 . S
C686 C687 1.367 . S
C687 C686 1.367 . S
C687 C689 1.433 1_554 S
C688 C684 1.350 . S
C688 C685 1.463 . S
C688 N692 1.427 1_554 S
C689 H679 0.929 . S
C689 C687 1.433 1_556 S
C689 N692 1.384 . S
C690 H681 0.929 . S
C690 C682 1.378 . S
C690 C685 1.350 . S
C691 H678 0.929 . S
C691 C683 1.433 . S
C691 N693 1.384 . S
N692 C688 1.427 1_556 S
N692 C689 1.384 . S
N693 C685 1.427 . S
N693 C691 1.384 . S
H694 C700 0.930 . S
H695 C704 0.930 . S
H696 C709 0.929 . S
H697 C707 0.929 . S
H698 C702 0.929 . S
H699 C708 0.929 . S
C700 H694 0.930 . S
C700 C701 1.367 . S
C700 C708 1.378 . S
C701 C700 1.367 . S
C701 C709 1.433 . S
C702 H698 0.929 . S
C702 C704 1.378 . S
C702 C706 1.350 . S
C703 C706 1.463 . S
C703 C708 1.350 . S
C703 N711 1.427 . S
C704 H695 0.930 . S
C704 C702 1.378 . S
C704 C705 1.367 . S
C705 C704 1.367 . S
C705 C707 1.433 1_554 S
C706 C702 1.350 . S
C706 C703 1.463 . S
C706 N710 1.427 . S
C707 H697 0.929 . S
C707 C705 1.433 1_556 S
C707 N710 1.384 1_556 S
C708 H699 0.929 . S
C708 C700 1.378 . S
C708 C703 1.350 . S
C709 H696 0.929 . S
C709 C701 1.433 . S
C709 N711 1.384 . S
N710 C706 1.427 . S
N710 C707 1.384 1_554 S
N711 C703 1.427 . S
N711 C709 1.384 . S
H712 C718 0.930 . S
H713 C722 0.930 . S
H714 C727 0.929 . S
H715 C725 0.929 . S
H716 C720 0.929 . S
H717 C726 0.929 . S
C718 H712 0.930 . S
C718 C719 1.367 . S
C718 C726 1.378 . S
C719 C718 1.367 . S
C719 C727 1.433 . S
C720 H716 0.929 . S
C720 C722 1.378 . S
C720 C724 1.350 . S
C721 C724 1.463 . S
C721 C726 1.350 . S
C721 N729 1.427 . S
C722 H713 0.930 . S
C722 C720 1.378 . S
C722 C723 1.367 . S
C723 C722 1.367 . S
C723 C725 1.433 . S
C724 C720 1.350 . S
C724 C721 1.463 . S
C724 N728 1.427 . S
C725 H715 0.929 . S
C725 C723 1.433 . S
C725 N728 1.384 . S
C726 H717 0.929 . S
C726 C718 1.378 . S
C726 C721 1.350 . S
C727 H714 0.929 . S
C727 C719 1.433 . S
C727 N729 1.384 . S
N728 C724 1.427 . S
N728 C725 1.384 . S
N729 C721 1.427 . S
N729 C727 1.384 . S
H730 C736 0.930 . S
H731 C740 0.930 . S
H732 C745 0.929 . S
H733 C743 0.929 1_565 S
H734 C738 0.929 . S
H735 C744 0.929 . S
C736 H730 0.930 . S
C736 C737 1.367 . S
C736 C744 1.378 . S
C737 C736 1.367 . S
C737 C745 1.433 . S
C738 H734 0.929 . S
C738 C740 1.378 . S
C738 C742 1.350 . S
C739 C742 1.463 . S
C739 C744 1.350 . S
C739 N747 1.427 . S
C740 H731 0.930 . S
C740 C738 1.378 . S
C740 C741 1.367 . S
C741 C740 1.367 . S
C741 C743 1.433 . S
C742 C738 1.350 . S
C742 C739 1.463 . S
C742 N746 1.427 . S
C743 H733 0.929 1_545 S
C743 C741 1.433 . S
C743 N746 1.384 . S
C744 H735 0.929 . S
C744 C736 1.378 . S
C744 C739 1.350 . S
C745 H732 0.929 . S
C745 C737 1.433 . S
C745 N747 1.384 . S
N746 C742 1.427 . S
N746 C743 1.384 . S
N747 C739 1.427 . S
N747 C745 1.384 . S
H748 C754 0.930 . S
H749 C758 0.930 . S
H750 C763 0.929 . S
H751 C761 0.929 . S
H752 C756 0.929 . S
H753 C762 0.929 . S
C754 H748 0.930 . S
C754 C755 1.367 . S
C754 C762 1.378 . S
C755 C754 1.367 . S
C755 C763 1.433 . S
C756 H752 0.929 . S
C756 C758 1.378 . S
C756 C760 1.350 . S
C757 C760 1.463 . S
C757 C762 1.350 . S
C757 N765 1.427 . S
C758 H749 0.930 . S
C758 C756 1.378 . S
C758 C759 1.367 . S
C759 C758 1.367 . S
C759 C761 1.433 . S
C760 C756 1.350 . S
C760 C757 1.463 . S
C760 N764 1.427 . S
C761 H751 0.929 . S
C761 C759 1.433 . S
C761 N764 1.384 . S
C762 H753 0.929 . S
C762 C754 1.378 . S
C762 C757 1.350 . S
C763 H750 0.929 . S
C763 C755 1.433 . S
C763 N765 1.384 . S
N764 C760 1.427 . S
N764 C761 1.384 . S
N765 C757 1.427 . S
N765 C763 1.384 . S
H766 C772 0.930 . S
H767 C776 0.930 . S
H768 C781 0.929 . S
H769 C779 0.929 . S
H770 C774 0.929 . S
H771 C780 0.929 . S
C772 H766 0.930 . S
C772 C773 1.367 . S
C772 C780 1.378 . S
C773 C772 1.367 . S
C773 C781 1.433 . S
C774 H770 0.929 . S
C774 C776 1.378 . S
C774 C778 1.350 . S
C775 C778 1.463 . S
C775 C780 1.350 . S
C775 N783 1.427 . S
C776 H767 0.930 . S
C776 C774 1.378 . S
C776 C777 1.367 . S
C777 C776 1.367 . S
C777 C779 1.433 . S
C778 C774 1.350 . S
C778 C775 1.463 . S
C778 N782 1.427 . S
C779 H769 0.929 . S
C779 C777 1.433 . S
C779 N782 1.384 . S
C780 H771 0.929 . S
C780 C772 1.378 . S
C780 C775 1.350 . S
C781 H768 0.929 . S
C781 C773 1.433 . S
C781 N783 1.384 . S
N782 C778 1.427 . S
N782 C779 1.384 . S
N783 C775 1.427 . S
N783 C781 1.384 . S
H784 C790 0.930 . S
H785 C794 0.946 . S
H786 C799 0.929 . S
H787 C797 0.929 . S
H788 C792 0.929 1_455 S
H789 C798 0.929 . S
C790 H784 0.930 . S
C790 C791 1.367 . S
C790 C798 1.378 . S
C791 C790 1.367 . S
C791 C799 1.433 . S
C792 H788 0.929 1_655 S
C792 C794 1.375 1_655 S
C792 C796 1.350 . S
C793 C796 1.463 . S
C793 C798 1.350 . S
C793 N801 1.427 . S
C794 H785 0.946 . S
C794 C792 1.375 1_455 S
C794 C795 1.354 1_455 S
C795 C794 1.354 1_655 S
C795 C797 1.433 . S
C796 C792 1.350 . S
C796 C793 1.463 . S
C796 N800 1.427 . S
C797 H787 0.929 . S
C797 C795 1.433 . S
C797 N800 1.384 . S
C798 H789 0.929 . S
C798 C790 1.378 . S
C798 C793 1.350 . S
C799 H786 0.929 . S
C799 C791 1.433 . S
C799 N801 1.384 . S
N800 C796 1.427 . S
N800 C797 1.384 . S
N801 C793 1.427 . S
N801 C799 1.384 . S
H802 C808 0.930 . S
H803 C812 0.930 . S
H804 C817 0.929 . S
H805 C815 0.929 1_545 S
H806 C810 0.929 . S
H807 C816 0.929 . S
C808 H802 0.930 . S
C808 C809 1.367 . S
C808 C816 1.378 . S
C809 C808 1.367 . S
C809 C817 1.433 . S
C810 H806 0.929 . S
C810 C812 1.378 . S
C810 C814 1.350 . S
C811 C814 1.463 . S
C811 C816 1.350 . S
C811 N819 1.427 . S
C812 H803 0.930 . S
C812 C810 1.378 . S
C812 C813 1.367 . S
C813 C812 1.367 . S
C813 C815 1.433 . S
C814 C810 1.350 . S
C814 C811 1.463 . S
C814 N818 1.427 . S
C815 H805 0.929 1_565 S
C815 C813 1.433 . S
C815 N818 1.384 . S
C816 H807 0.929 . S
C816 C808 1.378 . S
C816 C811 1.350 . S
C817 H804 0.929 . S
C817 C809 1.433 . S
C817 N819 1.384 . S
N818 C814 1.427 . S
N818 C815 1.384 . S
N819 C811 1.427 . S
N819 C817 1.384 . S
H820 C826 0.930 . S
H821 C830 0.930 . S
H822 C835 0.929 . S
H823 C833 0.929 . S
H824 C828 0.929 . S
H825 C834 0.929 . S
C826 H820 0.930 . S
C826 C827 1.367 . S
C826 C834 1.378 . S
C827 C826 1.367 . S
C827 C835 1.433 . S
C828 H824 0.929 . S
C828 C830 1.378 . S
C828 C832 1.350 . S
C829 C832 1.463 . S
C829 C834 1.350 . S
C829 N837 1.427 . S
C830 H821 0.930 . S
C830 C828 1.378 . S
C830 C831 1.367 . S
C831 C830 1.367 . S
C831 C833 1.433 . S
C832 C828 1.350 . S
C832 C829 1.463 . S
C832 N836 1.427 . S
C833 H823 0.929 . S
C833 C831 1.433 . S
C833 N836 1.384 . S
C834 H825 0.929 . S
C834 C826 1.378 . S
C834 C829 1.350 . S
C835 H822 0.929 . S
C835 C827 1.433 . S
C835 N837 1.384 . S
N836 C832 1.427 . S
N836 C833 1.384 . S
N837 C829 1.427 . S
N837 C835 1.384 . S
H838 C844 0.930 . S
H839 C848 0.930 . S
H840 C853 0.929 . S
H841 C851 0.929 . S
H842 C846 0.929 . S
H843 C852 0.929 . S
C844 H838 0.930 . S
C844 C845 1.367 . S
C844 C852 1.378 . S
C845 C844 1.367 . S
C845 C853 1.433 . S
C846 H842 0.929 . S
C846 C848 1.378 . S
C846 C850 1.350 . S
C847 C850 1.463 . S
C847 C852 1.350 . S
C847 N855 1.427 . S
C848 H839 0.930 . S
C848 C846 1.378 . S
C848 C849 1.367 . S
C849 C848 1.367 . S
C849 C851 1.433 . S
C850 C846 1.350 . S
C850 C847 1.463 . S
C850 N854 1.427 . S
C851 H841 0.929 . S
C851 C849 1.433 . S
C851 N854 1.384 . S
C852 H843 0.929 . S
C852 C844 1.378 . S
C852 C847 1.350 . S
C853 H840 0.929 . S
C853 C845 1.433 . S
C853 N855 1.384 . S
N854 C850 1.427 . S
N854 C851 1.384 . S
N855 C847 1.427 . S
N855 C853 1.384 . S
C431 C76 1.870 . S
C435 C162 1.942 . S
C453 C246 1.959 . S
C449 C87 1.888 . S
C471 C312 1.938 . S
C467 C54 1.976 . S
C489 C396 1.916 . S
C485 C65 1.957 . S
C507 C151 1.941 1_565 S
C503 C32 1.878 . S
C521 C43 1.893 . S
C525 C235 1.961 . S
C539 C10 1.980 . S
C543 C323 1.931 . S
C557 C21 1.961 . S
C561 C407 1.912 . S
C579 C158 0.658 1_455 S
C575 C60 0.632 . S
C597 C242 0.602 1_545 S
C593 C71 0.635 . S
C615 C314 0.601 . S
C611 C82 0.591 . S
C629 C49 0.642 . S
C633 C398 0.603 . S
C647 C16 0.670 . S
C651 C146 0.640 . S
C669 C230 0.602 . S
C665 C27 0.640 . S
C687 C326 0.574 . S
C683 C38 0.622 . S
C701 C5 0.650 . S
C705 C410 0.601 . S
C719 C59 2.004 . S
C723 C155 2.079 . S
C737 C70 1.980 . S
C741 C239 2.056 . S
C759 C319 2.074 . S
C755 C81 1.897 . S
C777 C403 2.097 . S
C773 C48 1.914 . S
C791 C15 2.005 . S
C795 C144 2.078 . S
C813 C228 2.051 . S
C809 C26 1.964 . S
C831 C330 2.069 . S
C827 C37 1.876 . S
C845 C4 1.897 . S
C849 C414 2.102 . S
