# Generated by pormake.
# Topology dag, (6,3)-cn, num edge types: 1
# Building blocks:
#     Node 0, Type 0, BuildingBlock: OJICUG_clean_sbu_0, # of connection points: 6
#     Node 1, Type 0, BuildingBlock: OJICUG_clean_sbu_0, # of connection points: 6
#     Node 2, Type 0, BuildingBlock: OJICUG_clean_sbu_0, # of connection points: 6
#     Node 3, Type 0, BuildingBlock: OJICUG_clean_sbu_0, # of connection points: 6
#     Node 4, Type 1, BuildingBlock: BETDAH_clean_linker_0, # of connection points: 3
#     Node 5, Type 1, BuildingBlock: BETDAH_clean_linker_0, # of connection points: 3
#     Node 6, Type 1, BuildingBlock: BETDAH_clean_linker_0, # of connection points: 3
#     Node 7, Type 1, BuildingBlock: BETDAH_clean_linker_0, # of connection points: 3
#     Node 8, Type 1, BuildingBlock: BETDAH_clean_linker_0, # of connection points: 3
#     Node 9, Type 1, BuildingBlock: BETDAH_clean_linker_0, # of connection points: 3
#     Node 10, Type 1, BuildingBlock: BETDAH_clean_linker_0, # of connection points: 3
#     Node 11, Type 1, BuildingBlock: BETDAH_clean_linker_0, # of connection points: 3
#     Edge 12, Type (0, 1), BuildingBlock: XIVTED_clean_linker_0, # of connection points: 2
#     Edge 13, Type (0, 1), BuildingBlock: XIVTED_clean_linker_0, # of connection points: 2
#     Edge 14, Type (0, 1), BuildingBlock: XIVTED_clean_linker_0, # of connection points: 2
#     Edge 15, Type (0, 1), BuildingBlock: XIVTED_clean_linker_0, # of connection points: 2
#     Edge 16, Type (0, 1), BuildingBlock: XIVTED_clean_linker_0, # of connection points: 2
#     Edge 17, Type (0, 1), BuildingBlock: XIVTED_clean_linker_0, # of connection points: 2
#     Edge 18, Type (0, 1), BuildingBlock: XIVTED_clean_linker_0, # of connection points: 2
#     Edge 19, Type (0, 1), BuildingBlock: XIVTED_clean_linker_0, # of connection points: 2
#     Edge 20, Type (0, 1), BuildingBlock: XIVTED_clean_linker_0, # of connection points: 2
#     Edge 21, Type (0, 1), BuildingBlock: XIVTED_clean_linker_0, # of connection points: 2
#     Edge 22, Type (0, 1), BuildingBlock: XIVTED_clean_linker_0, # of connection points: 2
#     Edge 23, Type (0, 1), BuildingBlock: XIVTED_clean_linker_0, # of connection points: 2
#     Edge 24, Type (0, 1), BuildingBlock: XIVTED_clean_linker_0, # of connection points: 2
#     Edge 25, Type (0, 1), BuildingBlock: XIVTED_clean_linker_0, # of connection points: 2
#     Edge 26, Type (0, 1), BuildingBlock: XIVTED_clean_linker_0, # of connection points: 2
#     Edge 27, Type (0, 1), BuildingBlock: XIVTED_clean_linker_0, # of connection points: 2
#     Edge 28, Type (0, 1), BuildingBlock: XIVTED_clean_linker_0, # of connection points: 2
#     Edge 29, Type (0, 1), BuildingBlock: XIVTED_clean_linker_0, # of connection points: 2
#     Edge 30, Type (0, 1), BuildingBlock: XIVTED_clean_linker_0, # of connection points: 2
#     Edge 31, Type (0, 1), BuildingBlock: XIVTED_clean_linker_0, # of connection points: 2
#     Edge 32, Type (0, 1), BuildingBlock: XIVTED_clean_linker_0, # of connection points: 2
#     Edge 33, Type (0, 1), BuildingBlock: XIVTED_clean_linker_0, # of connection points: 2
#     Edge 34, Type (0, 1), BuildingBlock: XIVTED_clean_linker_0, # of connection points: 2
#     Edge 35, Type (0, 1), BuildingBlock: XIVTED_clean_linker_0, # of connection points: 2
# Relax obj value: 0.096
# Max RMSD: 0.111
# Mean RMSD: 0.094
data_MOF--net-dag--node1-OJICUG_clean_sbu_0--node2-BETDAH_clean_linker_0--edge1-XIVTED_clean_linker_0
_symmetry_space_group_name_H-M    P1
_symmetry_Int_Tables_number       1
_symmetry_cell_setting            triclinic
loop_
_symmetry_equiv_pos_as_xyz
'x, y, z'
_cell_length_a     36.601082
_cell_length_b     39.224151
_cell_length_c     38.898304
_cell_angle_alpha  94.34991
_cell_angle_beta   89.97709
_cell_angle_gamma 89.984512
loop_
_atom_site_label
_atom_site_type_symbol
_atom_site_fract_x
_atom_site_fract_y
_atom_site_fract_z
_atom_type_partial_charge
Sc0 Sc 0.0994 0.87155 0.07745 0.0
Sc1 Sc 0.1119 0.78257 0.07307 0.0
Sc2 Sc 0.18518 0.83871 0.09832 0.0
O3 O 0.13221 0.83088 0.08295 0.0
C4 C 0.175 0.89676 0.04664 0.0
C5 C 0.07714 0.82172 0.01203 0.0
C6 C 0.19262 0.7753 0.0417 0.0
C7 C 0.04361 0.82031 0.11003 0.0
C8 C 0.14351 0.89681 0.14527 0.0
C9 C 0.15968 0.77666 0.14131 0.0
O10 O 0.14051 0.89776 0.05023 0.0
O11 O 0.08689 0.7942 0.02481 0.0
O12 O 0.20566 0.80068 0.06002 0.0
O13 O 0.05441 0.84997 0.10379 0.0
O14 O 0.17149 0.8783 0.13828 0.0
O15 O 0.13438 0.76641 0.12055 0.0
O16 O 0.11536 0.8963 0.12617 0.0
O17 O 0.06119 0.79328 0.10042 0.0
O18 O 0.18018 0.80201 0.13634 0.0
O19 O 0.08017 0.85101 0.02809 0.0
O20 O 0.1954 0.87666 0.06213 0.0
O21 O 0.15953 0.76587 0.04382 0.0
Sc22 Sc 0.68664 0.65926 0.44962 0.0
Sc23 Sc 0.61317 0.71504 0.47536 0.0
Sc24 Sc 0.60171 0.62599 0.47257 0.0
O25 O 0.63388 0.66683 0.46581 0.0
C26 C 0.64511 0.59997 0.40432 0.0
C27 C 0.66035 0.72102 0.40675 0.0
C28 C 0.54533 0.67607 0.43909 0.0
C29 C 0.6941 0.723 0.50588 0.0
C30 C 0.67805 0.60213 0.50265 0.0
C31 C 0.57896 0.67668 0.53722 0.0
O32 O 0.67269 0.61929 0.41014 0.0
O33 O 0.63525 0.73121 0.42776 0.0
O34 O 0.55646 0.64666 0.4459 0.0
O35 O 0.70716 0.69771 0.48741 0.0
O36 O 0.64346 0.60102 0.50014 0.0
O37 O 0.58844 0.70395 0.52386 0.0
O38 O 0.69786 0.62171 0.48594 0.0
O39 O 0.66086 0.73216 0.50422 0.0
O40 O 0.58231 0.64717 0.52169 0.0
O41 O 0.68088 0.69564 0.41143 0.0
O42 O 0.6176 0.60021 0.42425 0.0
O43 O 0.56253 0.70344 0.44823 0.0
Sc44 Sc 0.88859 0.22028 0.97344 0.0
Sc45 Sc 0.8165 0.16305 0.94773 0.0
Sc46 Sc 0.90374 0.1316 0.96455 0.0
O47 O 0.86956 0.17173 0.96198 0.0
C48 C 0.95781 0.18631 0.93507 0.0
C49 C 0.83944 0.22699 0.90625 0.0
C50 C 0.85911 0.10796 0.89715 0.0
C51 C 0.80826 0.22471 0.0061 0.0
C52 C 0.92461 0.17877 0.03231 0.0
C53 C 0.82947 0.10118 0.99355 0.0
O54 O 0.93932 0.21254 0.94531 0.0
O55 O 0.81986 0.20093 0.91084 0.0
O56 O 0.8886 0.10974 0.91442 0.0
O57 O 0.84109 0.23485 0.0039 0.0
O58 O 0.92172 0.14989 0.01527 0.0
O59 O 0.80819 0.12366 0.98279 0.0
O60 O 0.91468 0.20678 0.02055 0.0
O61 O 0.79559 0.19957 0.98722 0.0
O62 O 0.86367 0.10105 0.98805 0.0
O63 O 0.86475 0.23752 0.92692 0.0
O64 O 0.94811 0.15616 0.94044 0.0
O65 O 0.83043 0.12455 0.9066 0.0
Sc66 Sc 0.39751 0.36943 0.57652 0.0
Sc67 Sc 0.3126 0.33644 0.59967 0.0
Sc68 Sc 0.38564 0.28038 0.57324 0.0
O69 O 0.36522 0.32868 0.58316 0.0
C70 C 0.41914 0.31902 0.51124 0.0
C71 C 0.32107 0.39365 0.5468 0.0
C72 C 0.30431 0.27274 0.54352 0.0
C73 C 0.35472 0.39529 0.64504 0.0
C74 C 0.45415 0.31884 0.60885 0.0
C75 C 0.33951 0.2749 0.64262 0.0
O76 O 0.41622 0.34841 0.52712 0.0
O77 O 0.30124 0.37389 0.56329 0.0
O78 O 0.33751 0.2634 0.5449 0.0
O79 O 0.38226 0.39486 0.62517 0.0
O80 O 0.43682 0.2916 0.59957 0.0
O81 O 0.31882 0.30017 0.63789 0.0
O82 O 0.44295 0.34839 0.6026 0.0
O83 O 0.32685 0.37639 0.63904 0.0
O84 O 0.3643 0.26446 0.62135 0.0
O85 O 0.35564 0.39483 0.54947 0.0
O86 O 0.40966 0.29162 0.5244 0.0
O87 O 0.29157 0.29807 0.56212 0.0
H88 H 0.07394 0.10531 0.22739 0.0
H89 H 0.15027 0.13521 0.30793 0.0
H90 H 0.08328 0.21113 0.26396 0.0
C91 C 0.08555 0.12511 0.24508 0.0
C92 C 0.07472 0.15918 0.24307 0.0
C93 C 0.11264 0.11627 0.2683 0.0
C94 C 0.12907 0.14194 0.29024 0.0
C95 C 0.11807 0.17629 0.28882 0.0
C96 C 0.09136 0.18465 0.265 0.0
N97 N 0.13355 0.20336 0.3103 0.0
C98 C 0.15416 0.19942 0.33972 0.0
H99 H 0.42857 0.6029 0.73082 0.0
H100 H 0.41759 0.70887 0.76612 0.0
H101 H 0.3489 0.63322 0.8084 0.0
C102 C 0.41623 0.62274 0.748 0.0
C103 C 0.38814 0.614 0.77025 0.0
C104 C 0.42709 0.65681 0.74609 0.0
C105 C 0.40953 0.68238 0.76717 0.0
C106 C 0.38195 0.67414 0.79017 0.0
C107 C 0.37088 0.6398 0.79147 0.0
N108 N 0.36551 0.70137 0.81074 0.0
C109 C 0.34506 0.69786 0.84036 0.0
H110 H 0.81305 0.89005 0.11198 0.0
H111 H 0.75163 0.82168 0.17055 0.0
H112 H 0.69566 0.89495 0.11199 0.0
C113 C 0.78682 0.88065 0.12019 0.0
C114 C 0.75452 0.89542 0.10896 0.0
C115 C 0.7859 0.85416 0.14226 0.0
C116 C 0.75218 0.84226 0.15352 0.0
C117 C 0.71941 0.85725 0.14274 0.0
C118 C 0.72083 0.88357 0.12031 0.0
N119 N 0.68471 0.84676 0.15425 0.0
C120 C 0.68021 0.82975 0.18393 0.0
H121 H 0.68991 0.4008 0.6286 0.0
H122 H 0.745 0.31047 0.65703 0.0
H123 H 0.80671 0.39324 0.61893 0.0
C124 C 0.71507 0.3868 0.63193 0.0
C125 C 0.74843 0.40121 0.62286 0.0
C126 C 0.71348 0.35407 0.64398 0.0
C127 C 0.74595 0.33569 0.64747 0.0
C128 C 0.77971 0.35004 0.6387 0.0
C129 C 0.78067 0.38231 0.62553 0.0
N130 N 0.81308 0.33309 0.64433 0.0
C131 C 0.81846 0.31639 0.67407 0.0
H132 H 0.5703 0.39199 0.3186 0.0
H133 H 0.649 0.363 0.23973 0.0
H134 H 0.58147 0.28639 0.28186 0.0
C135 C 0.58254 0.37237 0.3011 0.0
C136 C 0.57195 0.33819 0.30272 0.0
C137 C 0.61022 0.38153 0.2786 0.0
C138 C 0.62736 0.35606 0.25688 0.0
C139 C 0.61656 0.32162 0.25788 0.0
C140 C 0.58935 0.31295 0.28109 0.0
N141 N 0.63283 0.29469 0.23675 0.0
C142 C 0.65357 0.29863 0.20739 0.0
H143 H 0.18858 0.10233 0.92057 0.0
H144 H 0.24919 0.18841 0.88946 0.0
H145 H 0.30582 0.10304 0.92841 0.0
C146 C 0.21462 0.11468 0.91672 0.0
C147 C 0.24706 0.0985 0.92566 0.0
C148 C 0.21512 0.1471 0.90391 0.0
C149 C 0.24867 0.16344 0.89958 0.0
C150 C 0.28152 0.14731 0.90816 0.0
C151 C 0.28047 0.11536 0.92202 0.0
N152 N 0.31593 0.1621 0.90175 0.0
C153 C 0.32168 0.17979 0.87268 0.0
H154 H 0.31203 0.58995 0.41144 0.0
H155 H 0.25679 0.68027 0.38325 0.0
H156 H 0.19533 0.59775 0.42215 0.0
C157 C 0.28683 0.60391 0.40817 0.0
C158 C 0.25355 0.58962 0.41767 0.0
C159 C 0.28832 0.6366 0.39604 0.0
C160 C 0.25584 0.65502 0.39273 0.0
C161 C 0.22215 0.64075 0.40182 0.0
C162 C 0.2213 0.60854 0.41512 0.0
N163 N 0.18872 0.65791 0.3969 0.0
C164 C 0.1833 0.6765 0.36839 0.0
H165 H 0.92655 0.89604 0.81858 0.0
H166 H 0.91337 0.79 0.78432 0.0
H167 H 0.84734 0.86653 0.74039 0.0
C168 C 0.91401 0.87629 0.80146 0.0
C169 C 0.8865 0.88538 0.77873 0.0
C170 C 0.92391 0.84202 0.80392 0.0
C171 C 0.90604 0.81663 0.78291 0.0
C172 C 0.879 0.82518 0.75954 0.0
C173 C 0.8689 0.8597 0.75766 0.0
N174 N 0.8621 0.7981 0.73919 0.0
C175 C 0.84192 0.80175 0.70946 0.0
H176 H 0.08635 0.91618 0.18673 0.0
H177 H 0.18014 0.08969 0.25219 0.0
H178 H 0.20115 0.93495 0.17208 0.0
H179 H 0.07085 0.06099 0.27921 0.0
H180 H 0.19276 0.0299 0.23237 0.0
H181 H 0.08386 0.96486 0.22943 0.0
C182 C 0.11121 0.93032 0.19299 0.0
C183 C 0.14389 0.92185 0.1756 0.0
C184 C 0.16636 0.03647 0.24357 0.0
C185 C 0.14116 0.97832 0.22395 0.0
C186 C 0.15931 0.07052 0.25515 0.0
C187 C 0.12435 0.08012 0.26704 0.0
C188 C 0.13808 0.01218 0.2437 0.0
C189 C 0.09809 0.05451 0.26997 0.0
C190 C 0.10983 0.95814 0.21742 0.0
C191 C 0.17539 0.94076 0.18489 0.0
N192 N 0.10527 0.02187 0.25781 0.0
N193 N 0.17309 0.96864 0.20792 0.0
H194 H 0.54131 0.73032 0.57038 0.0
H195 H 0.49112 0.62294 0.73093 0.0
H196 H 0.57883 0.62773 0.58319 0.0
H197 H 0.42786 0.70968 0.70344 0.0
H198 H 0.53307 0.63183 0.6837 0.0
H199 H 0.5089 0.73009 0.62573 0.0
C200 C 0.54313 0.70797 0.58503 0.0
C201 C 0.5624 0.67884 0.572 0.0
C202 C 0.5102 0.64912 0.68817 0.0
C203 C 0.52579 0.67853 0.63513 0.0
C204 C 0.48618 0.64402 0.71508 0.0
C205 C 0.45553 0.66522 0.72078 0.0
C206 C 0.50369 0.67568 0.66673 0.0
C207 C 0.45109 0.69269 0.69997 0.0
C208 C 0.52455 0.70782 0.61648 0.0
C209 C 0.56386 0.65056 0.592 0.0
N210 N 0.4747 0.69693 0.67358 0.0
N211 N 0.54572 0.65109 0.62245 0.0
H212 H 0.76172 0.09508 0.02409 0.0
H213 H 0.79508 0.89777 0.05075 0.0
H214 H 0.86174 0.03977 1.00002 0.0
H215 H 0.72013 0.95784 0.11602 0.0
H216 H 0.80881 0.94817 0.0201 0.0
H217 H 0.73699 0.04369 0.04863 0.0
C218 C 0.77845 0.07229 0.02403 0.0
C219 C 0.81396 0.07181 0.01023 0.0
C220 C 0.78907 0.9503 0.04091 0.0
C221 C 0.78562 0.01327 0.03712 0.0
C222 C 0.78117 0.92156 0.0583 0.0
C223 C 0.757 0.92392 0.0863 0.0
C224 C 0.77272 0.9817 0.05156 0.0
C225 C 0.73908 0.95513 0.09462 0.0
C226 C 0.76431 0.0431 0.03791 0.0
C227 C 0.83441 0.04158 0.01066 0.0
N228 N 0.74767 0.98312 0.07755 0.0
N229 N 0.81988 0.01359 0.02368 0.0
H230 H 0.48545 0.36528 0.65524 0.0
H231 H 0.68419 0.29309 0.61828 0.0
H232 H 0.50519 0.26764 0.59967 0.0
H233 H 0.66014 0.38281 0.68536 0.0
H234 H 0.61929 0.27733 0.61917 0.0
H235 H 0.54878 0.36663 0.67444 0.0
C236 C 0.50309 0.34386 0.64749 0.0
C237 C 0.49026 0.31655 0.62545 0.0
C238 C 0.62835 0.30003 0.63436 0.0
C239 C 0.56321 0.31819 0.64675 0.0
C240 C 0.66539 0.30887 0.63402 0.0
C241 C 0.67725 0.33954 0.65134 0.0
C242 C 0.60323 0.32216 0.65202 0.0
C243 C 0.65188 0.35923 0.67121 0.0
C244 C 0.53929 0.34458 0.6585 0.0
C245 C 0.51411 0.28925 0.61654 0.0
N246 N 0.61602 0.35051 0.67056 0.0
N247 N 0.54972 0.29108 0.62664 0.0
H248 H 0.7033 0.56419 0.375 0.0
H249 H 0.56865 0.4368 0.26707 0.0
H250 H 0.58679 0.57724 0.36595 0.0
H251 H 0.67714 0.40827 0.29677 0.0
H252 H 0.58163 0.49601 0.28747 0.0
H253 H 0.69995 0.51466 0.33231 0.0
C254 C 0.67721 0.55715 0.36341 0.0
C255 C 0.64518 0.57448 0.3743 0.0
C256 C 0.60297 0.47703 0.28884 0.0
C257 C 0.6412 0.51827 0.32561 0.0
C258 C 0.59565 0.44333 0.27692 0.0
C259 C 0.62181 0.41775 0.2805 0.0
C260 C 0.63653 0.48514 0.30495 0.0
C261 C 0.65632 0.42738 0.29355 0.0
C262 C 0.67529 0.52884 0.33922 0.0
C263 C 0.61206 0.56426 0.35863 0.0
N264 N 0.6625 0.46028 0.30599 0.0
N265 N 0.6109 0.53673 0.33533 0.0
H266 H 0.98778 0.14504 0.88351 0.0
H267 H 0.18781 0.20843 0.93083 0.0
H268 H 0.0095 0.23598 0.94965 0.0
H269 H 0.16217 0.12167 0.86038 0.0
H270 H 0.1237 0.22681 0.92867 0.0
H271 H 0.05138 0.14402 0.86506 0.0
C272 C 0.00593 0.16519 0.89365 0.0
C273 C 0.99361 0.19035 0.91845 0.0
C274 C 0.13229 0.20423 0.91301 0.0
C275 C 0.06688 0.18887 0.89825 0.0
C276 C 0.16887 0.1939 0.91409 0.0
C277 C 0.17993 0.16331 0.89609 0.0
C278 C 0.10687 0.18367 0.89387 0.0
C279 C 0.15447 0.1452 0.87495 0.0
C280 C 0.0423 0.16462 0.88316 0.0
C281 C 0.01806 0.21607 0.93053 0.0
N282 N 0.11906 0.15536 0.87482 0.0
N283 N 0.05384 0.21425 0.92091 0.0
H284 H 0.25374 0.42437 0.55323 0.0
H285 H 0.28855 0.53261 0.39037 0.0
H286 H 0.34895 0.41548 0.4877 0.0
H287 H 0.21875 0.56845 0.47493 0.0
H288 H 0.29809 0.47939 0.41776 0.0
H289 H 0.22903 0.46777 0.51704 0.0
C290 C 0.2691 0.43117 0.53095 0.0
C291 C 0.3036 0.41677 0.52361 0.0
C292 C 0.2803 0.4987 0.43013 0.0
C293 C 0.2755 0.46561 0.48223 0.0
C294 C 0.27487 0.52904 0.41455 0.0
C295 C 0.25351 0.55519 0.43084 0.0
C296 C 0.26427 0.49442 0.46227 0.0
C297 C 0.23564 0.54896 0.46168 0.0
C298 C 0.25509 0.45591 0.51047 0.0
C299 C 0.3225 0.42638 0.49453 0.0
N300 N 0.24186 0.5193 0.47676 0.0
N301 N 0.30824 0.45026 0.47498 0.0
H302 H 0.07974 0.87063 0.96625 0.0
H303 H 0.92283 0.78902 0.84641 0.0
H304 H 0.03715 0.76976 0.97879 0.0
H305 H 0.98825 0.87492 0.82037 0.0
H306 H 0.96533 0.77948 0.89335 0.0
H307 H 0.04741 0.87125 0.91162 0.0
C308 C 0.06372 0.84847 0.95733 0.0
C309 C 0.0608 0.82023 0.97723 0.0
C310 C 0.9706 0.80013 0.87705 0.0
C311 C 0.02329 0.82089 0.91469 0.0
C312 C 0.94644 0.80552 0.85015 0.0
C313 C 0.95167 0.83314 0.82969 0.0
C314 C 1.0 0.82268 0.88367 0.0
C315 C 0.98261 0.85383 0.83598 0.0
C316 C 0.04536 0.84877 0.92604 0.0
C317 C 0.04006 0.79204 0.96422 0.0
N318 N 0.0053 0.84842 0.86261 0.0
N319 N 0.02158 0.79329 0.93395 0.0
H320 H 0.79852 0.07757 0.86597 0.0
H321 H 0.81862 0.91228 0.79227 0.0
H322 H 0.91621 0.07967 0.85992 0.0
H323 H 0.92927 0.94076 0.77001 0.0
H324 H 0.80519 0.97176 0.81099 0.0
H325 H 0.79805 0.02741 0.82468 0.0
C326 C 0.82423 0.06779 0.85556 0.0
C327 C 0.85751 0.08239 0.86709 0.0
C328 C 0.83208 0.96555 0.8009 0.0
C329 C 0.85737 0.02422 0.82055 0.0
C330 C 0.83966 0.93141 0.79005 0.0
C331 C 0.87514 0.92169 0.77991 0.0
C332 C 0.86036 0.98998 0.80156 0.0
C333 C 0.90162 0.94727 0.77797 0.0
C334 C 0.82401 0.03875 0.83225 0.0
C335 C 0.88993 0.06884 0.85243 0.0
N336 N 0.89387 0.98006 0.78927 0.0
N337 N 0.88903 0.04038 0.83033 0.0
H338 H 0.41641 0.36769 0.46519 0.0
H339 H 0.57197 0.28446 0.34435 0.0
H340 H 0.45858 0.26668 0.47785 0.0
H341 H 0.50807 0.37175 0.31947 0.0
H342 H 0.52939 0.27516 0.39135 0.0
H343 H 0.44839 0.36793 0.41033 0.0
C344 C 0.43225 0.34541 0.45625 0.0
C345 C 0.43516 0.31725 0.47626 0.0
C346 C 0.52446 0.29606 0.37529 0.0
C347 C 0.47231 0.31748 0.41343 0.0
C348 C 0.54867 0.30131 0.34835 0.0
C349 C 0.54392 0.32926 0.32824 0.0
C350 C 0.4955 0.31907 0.38228 0.0
C351 C 0.51334 0.35038 0.33482 0.0
C352 C 0.45043 0.3455 0.42482 0.0
C353 C 0.45569 0.28892 0.46321 0.0
N354 N 0.49061 0.34509 0.36147 0.0
N355 N 0.47399 0.28994 0.4328 0.0
H356 H 0.14532 0.92043 0.98918 0.0
H357 H 0.2829 0.07441 0.98107 0.0
H358 H 0.2421 0.92796 0.05258 0.0
H359 H 0.20686 0.04408 0.89971 0.0
H360 H 0.27145 0.02006 0.00664 0.0
H361 H 0.16939 0.96495 0.95517 0.0
C362 C 0.17184 0.93134 0.99574 0.0
C363 C 0.19163 0.92081 0.02387 0.0
C364 C 0.25775 0.02514 0.9829 0.0
C365 C 0.21925 0.97216 0.98531 0.0
C366 C 0.26434 0.05606 0.96827 0.0
C367 C 0.2452 0.06399 0.93866 0.0
C368 C 0.23173 0.0023 0.96781 0.0
C369 C 0.22145 0.03937 0.92309 0.0
C370 C 0.18568 0.95666 0.97622 0.0
C371 C 0.22603 0.93548 0.03105 0.0
N372 N 0.21501 0.00989 0.9381 0.0
N373 N 0.23855 0.96092 0.01222 0.0
H374 H 0.49538 0.72853 0.44448 0.0
H375 H 0.34173 0.60853 0.35431 0.0
H376 H 0.51363 0.62788 0.39474 0.0
H377 H 0.31748 0.69719 0.42281 0.0
H378 H 0.40607 0.62504 0.35475 0.0
H379 H 0.43205 0.72624 0.42353 0.0
C380 C 0.48631 0.70631 0.42853 0.0
C381 C 0.50954 0.6781 0.42179 0.0
C382 C 0.38665 0.64131 0.36919 0.0
C383 C 0.43751 0.67538 0.39778 0.0
C384 C 0.34994 0.63197 0.36878 0.0
C385 C 0.32453 0.6513 0.38894 0.0
C386 C 0.39812 0.66997 0.39026 0.0
C387 C 0.33637 0.68158 0.40703 0.0
C388 C 0.45018 0.70497 0.41672 0.0
C389 C 0.49643 0.64994 0.40104 0.0
N390 N 0.37255 0.68968 0.40784 0.0
N391 N 0.46126 0.64919 0.39006 0.0
H392 H 0.41284 0.41497 0.68504 0.0
H393 H 0.32049 0.58814 0.75344 0.0
H394 H 0.29757 0.43338 0.67313 0.0
H395 H 0.42926 0.55805 0.78065 0.0
H396 H 0.30743 0.52868 0.73274 0.0
H397 H 0.41608 0.46344 0.72794 0.0
C398 C 0.38805 0.429 0.69192 0.0
C399 C 0.35499 0.42046 0.67528 0.0
C400 C 0.3338 0.53487 0.74416 0.0
C401 C 0.35855 0.47668 0.7239 0.0
C402 C 0.34111 0.56873 0.75624 0.0
C403 C 0.37608 0.57789 0.76842 0.0
C404 C 0.36184 0.51031 0.74407 0.0
C405 C 0.40205 0.55196 0.77114 0.0
C406 C 0.38985 0.45669 0.71648 0.0
C407 C 0.32361 0.43925 0.68536 0.0
N408 N 0.39464 0.51952 0.75848 0.0
N409 N 0.3263 0.467 0.70852 0.0
H410 H 0.99549 0.76639 0.10462 0.0
H411 H 0.83549 0.8842 0.18631 0.0
H412 H 0.00937 0.86816 0.15317 0.0
H413 H 0.81662 0.79315 0.11976 0.0
H414 H 0.9002 0.86917 0.18942 0.0
H415 H 0.93164 0.76721 0.12399 0.0
C416 C 0.98537 0.78857 0.12001 0.0
C417 C 0.00755 0.81751 0.12678 0.0
C418 C 0.88184 0.85194 0.17481 0.0
C419 C 0.9348 0.81856 0.14898 0.0
C420 C 0.84491 0.86038 0.17336 0.0
C421 C 0.82099 0.83979 0.15282 0.0
C422 C 0.895 0.82305 0.15504 0.0
C423 C 0.83438 0.80946 0.13604 0.0
C424 C 0.94892 0.78906 0.13093 0.0
C425 C 0.99304 0.84554 0.14682 0.0
N426 N 0.87074 0.80226 0.13698 0.0
N427 N 0.95754 0.84549 0.15689 0.0
H428 H 0.65113 0.5811 0.56244 0.0
H429 H 0.78347 0.42354 0.56626 0.0
H430 H 0.74439 0.56995 0.49466 0.0
H431 H 0.71355 0.45776 0.65129 0.0
H432 H 0.77359 0.47834 0.54107 0.0
H433 H 0.6763 0.53731 0.59674 0.0
C434 C 0.67715 0.56957 0.555 0.0
C435 C 0.69557 0.5788 0.52555 0.0
C436 C 0.761 0.47405 0.56557 0.0
C437 C 0.72439 0.52827 0.56439 0.0
C438 C 0.76671 0.44287 0.57996 0.0
C439 C 0.74863 0.43595 0.61046 0.0
C440 C 0.7369 0.49811 0.58179 0.0
C441 C 0.72722 0.46179 0.62724 0.0
C442 C 0.69163 0.54468 0.57467 0.0
C443 C 0.72937 0.5634 0.51722 0.0
N444 N 0.72149 0.49149 0.61242 0.0
N445 N 0.74245 0.53833 0.53622 0.0
H446 H 0.92567 0.12736 0.07555 0.0
H447 H 0.07485 0.21305 0.20159 0.0
H448 H 0.96127 0.23142 0.06806 0.0
H449 H 0.0119 0.12458 0.22468 0.0
H450 H 0.03338 0.22171 0.15358 0.0
H451 H 0.95725 0.12651 0.13059 0.0
C452 C 0.94001 0.15014 0.08561 0.0
C453 C 0.9411 0.17942 0.06706 0.0
C454 C 0.02843 0.20068 0.16947 0.0
C455 C 0.97769 0.17853 0.13009 0.0
C456 C 0.05199 0.19579 0.19698 0.0
C457 C 0.04722 0.1677 0.2169 0.0
C458 C 0.00015 0.17714 0.1617 0.0
C459 C 0.01722 0.14606 0.20951 0.0
C460 C 0.95792 0.1497 0.11715 0.0
C461 C 0.95978 0.20831 0.08154 0.0
N462 N 0.99517 0.15098 0.18229 0.0
N463 N 0.97782 0.207 0.11203 0.0
H464 H 0.11845 0.72495 0.16535 0.0
H465 H 0.22558 0.72613 0.34515 0.0
H466 H 0.2108 0.79032 0.19196 0.0
H467 H 0.1324 0.66213 0.31961 0.0
H468 H 0.22069 0.75004 0.28884 0.0
H469 H 0.12378 0.70079 0.22115 0.0
C470 C 0.14002 0.73408 0.18276 0.0
C471 C 0.16416 0.7598 0.17386 0.0
C472 C 0.20116 0.7309 0.29555 0.0
C473 C 0.17019 0.73239 0.23797 0.0
C474 C 0.2039 0.71745 0.32765 0.0
C475 C 0.17913 0.69255 0.33667 0.0
C476 C 0.17354 0.71909 0.27248 0.0
C477 C 0.15175 0.68161 0.31335 0.0
C478 C 0.14294 0.72035 0.2147 0.0
C479 C 0.19149 0.77061 0.19762 0.0
N480 N 0.14966 0.69494 0.28219 0.0
N481 N 0.19367 0.75692 0.22857 0.0
H482 H 0.76822 0.71644 0.5139 0.0
H483 H 0.77168 0.82004 0.69858 0.0
H484 H 0.67458 0.77057 0.55816 0.0
H485 H 0.86718 0.77569 0.6483 0.0
H486 H 0.73643 0.80648 0.6455 0.0
H487 H 0.80582 0.74184 0.56084 0.0
C488 C 0.75557 0.7339 0.53329 0.0
C489 C 0.71802 0.74108 0.53214 0.0
C490 C 0.76522 0.80018 0.64586 0.0
C491 C 0.76103 0.77014 0.5863 0.0
C492 C 0.78526 0.80803 0.67604 0.0
C493 C 0.82215 0.79898 0.67738 0.0
C494 C 0.78231 0.7828 0.6172 0.0
C495 C 0.83869 0.78313 0.64795 0.0
C496 C 0.77712 0.74845 0.56013 0.0
C497 C 0.70334 0.76413 0.55798 0.0
N498 N 0.81857 0.77524 0.6191 0.0
N499 N 0.72477 0.77752 0.58417 0.0
H500 H 0.82736 0.27196 0.05882 0.0
H501 H 0.62853 0.27524 0.14521 0.0
H502 H 0.73448 0.21623 0.01523 0.0
H503 H 0.72483 0.31448 0.19803 0.0
H504 H 0.6651 0.26216 0.09305 0.0
H505 H 0.78844 0.29591 0.1057 0.0
C506 C 0.79873 0.26497 0.05885 0.0
C507 C 0.78431 0.24174 0.03307 0.0
C508 C 0.67823 0.27402 0.11586 0.0
C509 C 0.7396 0.26919 0.08682 0.0
C510 C 0.65734 0.28166 0.14547 0.0
C511 C 0.6739 0.29599 0.17557 0.0
C512 C 0.71597 0.28067 0.11655 0.0
C513 C 0.71124 0.30355 0.17505 0.0
C514 C 0.77656 0.27863 0.08573 0.0
C515 C 0.74695 0.23376 0.03461 0.0
N516 N 0.73117 0.2956 0.14598 0.0
N517 N 0.72599 0.24734 0.06107 0.0
H518 H 0.38174 0.22379 0.66669 0.0
H519 H 0.28032 0.23016 0.84977 0.0
H520 H 0.28954 0.28912 0.69415 0.0
H521 H 0.37063 0.16303 0.82252 0.0
H522 H 0.28388 0.25266 0.79276 0.0
H523 H 0.37807 0.20079 0.72324 0.0
C524 C 0.36055 0.23313 0.68443 0.0
C525 C 0.33597 0.25852 0.67556 0.0
C526 C 0.30307 0.23313 0.79922 0.0
C527 C 0.33187 0.23251 0.74049 0.0
C528 C 0.30111 0.22049 0.83174 0.0
C529 C 0.32542 0.1951 0.84048 0.0
C530 C 0.32949 0.22006 0.77545 0.0
C531 C 0.35165 0.18291 0.81647 0.0
C532 C 0.35857 0.22007 0.71679 0.0
C533 C 0.30917 0.26966 0.69975 0.0
N534 N 0.35302 0.1955 0.7849 0.0
N535 N 0.30794 0.25667 0.73108 0.0
H536 H 0.71043 0.70696 0.35523 0.0
H537 H 0.63278 0.84726 0.23509 0.0
H538 H 0.62047 0.77445 0.38444 0.0
H539 H 0.7196 0.77709 0.20493 0.0
H540 H 0.62835 0.82164 0.29057 0.0
H541 H 0.71531 0.73355 0.30086 0.0
C542 C 0.69177 0.72748 0.35035 0.0
C543 C 0.66491 0.7384 0.37454 0.0
C544 C 0.64833 0.81176 0.27184 0.0
C545 C 0.67032 0.76888 0.31203 0.0
C546 C 0.65075 0.8263 0.24028 0.0
C547 C 0.67645 0.81397 0.21584 0.0
C548 C 0.67196 0.78486 0.27877 0.0
C549 C 0.69938 0.78706 0.22338 0.0
C550 C 0.69456 0.74261 0.31919 0.0
C551 C 0.64159 0.76515 0.36663 0.0
N552 N 0.69663 0.77334 0.2543 0.0
N553 N 0.64479 0.77941 0.33602 0.0
H554 H 0.88123 0.27755 0.88064 0.0
H555 H 0.77459 0.26972 0.70027 0.0
H556 H 0.78652 0.21425 0.85725 0.0
H557 H 0.86926 0.33275 0.72254 0.0
H558 H 0.77809 0.24965 0.75836 0.0
H559 H 0.8761 0.29986 0.82387 0.0
C560 C 0.85912 0.2686 0.8638 0.0
C561 C 0.83439 0.24382 0.87377 0.0
C562 C 0.79823 0.26776 0.75058 0.0
C563 C 0.82865 0.26898 0.80858 0.0
C564 C 0.79631 0.27899 0.71746 0.0
C565 C 0.82192 0.30247 0.70698 0.0
C566 C 0.82591 0.28034 0.77321 0.0
C567 C 0.8493 0.31428 0.72993 0.0
C568 C 0.85634 0.28122 0.83129 0.0
C569 C 0.80637 0.23317 0.85071 0.0
N570 N 0.85062 0.30307 0.76211 0.0
N571 N 0.8044 0.24567 0.81919 0.0
H572 H 0.23007 0.27927 0.53661 0.0
H573 H 0.22454 0.18078 0.34942 0.0
H574 H 0.32322 0.22624 0.49005 0.0
H575 H 0.12971 0.22419 0.40167 0.0
H576 H 0.26037 0.19277 0.40242 0.0
H577 H 0.19196 0.25517 0.48944 0.0
C578 C 0.2425 0.2623 0.51666 0.0
C579 C 0.28007 0.25508 0.51724 0.0
C580 C 0.2316 0.19922 0.4025 0.0
C581 C 0.23646 0.22754 0.46277 0.0
C582 C 0.21123 0.19227 0.37235 0.0
C583 C 0.17436 0.2015 0.37159 0.0
C584 C 0.21485 0.21586 0.43174 0.0
C585 C 0.15818 0.21664 0.40154 0.0
C586 C 0.22066 0.2485 0.48968 0.0
C587 C 0.29446 0.23267 0.4907 0.0
N588 N 0.17861 0.22364 0.43037 0.0
N589 N 0.27274 0.22003 0.46437 0.0
H590 H 0.17297 0.727 0.99017 0.0
H591 H 0.3709 0.72179 0.90206 0.0
H592 H 0.26653 0.78267 0.03238 0.0
H593 H 0.27392 0.68221 0.85067 0.0
H594 H 0.33501 0.73541 0.95454 0.0
H595 H 0.21142 0.70198 0.94347 0.0
C596 C 0.20166 0.73372 0.9899 0.0
C597 C 0.21639 0.7573 0.0152 0.0
C598 C 0.32159 0.72335 0.93198 0.0
C599 C 0.26057 0.72865 0.96162 0.0
C600 C 0.34209 0.71542 0.90219 0.0
C601 C 0.32514 0.70084 0.8724 0.0
C602 C 0.28384 0.71676 0.93178 0.0
C603 C 0.28781 0.69333 0.87341 0.0
C604 C 0.22357 0.71946 0.96312 0.0
C605 C 0.25382 0.76489 0.01337 0.0
N606 N 0.26826 0.70158 0.90264 0.0
N607 N 0.27452 0.75077 0.98697 0.0
loop_
_geom_bond_atom_site_label_1
_geom_bond_atom_site_label_2
_geom_bond_distance
_geom_bond_site_symmetry_2
_ccdc_geom_bond_type
Sc0 O3 2.025 . S
Sc0 O10 2.105 . S
Sc0 O13 2.105 . S
Sc0 O16 2.105 . S
Sc0 O19 2.105 1_554 S
Sc1 O3 2.025 . S
Sc1 O11 2.105 1_554 S
Sc1 O15 2.105 . S
Sc1 O17 2.105 . S
Sc1 O21 2.105 . S
Sc2 O3 2.025 . S
Sc2 O12 2.105 . S
Sc2 O14 2.105 . S
Sc2 O18 2.105 . S
Sc2 O20 2.105 . S
O3 Sc0 2.025 . S
O3 Sc1 2.025 . S
O3 Sc2 2.025 . S
C4 O10 1.268 . S
C4 O20 1.268 . S
C5 O11 1.268 . S
C5 O19 1.268 . S
C6 O12 1.261 1_556 S
C6 O21 1.266 1_556 S
C7 O13 1.268 . S
C7 O17 1.268 . S
C8 O14 1.268 . S
C8 O16 1.268 . S
C9 O15 1.268 . S
C9 O18 1.268 . S
O10 Sc0 2.105 . S
O10 C4 1.268 . S
O11 Sc1 2.105 1_556 S
O11 C5 1.268 . S
O12 Sc2 2.105 . S
O12 C6 1.261 1_554 S
O13 Sc0 2.105 . S
O13 C7 1.268 . S
O14 Sc2 2.105 . S
O14 C8 1.268 . S
O15 Sc1 2.105 . S
O15 C9 1.268 . S
O16 Sc0 2.105 . S
O16 C8 1.268 . S
O17 Sc1 2.105 . S
O17 C7 1.268 . S
O18 Sc2 2.105 . S
O18 C9 1.268 . S
O19 Sc0 2.105 1_556 S
O19 C5 1.268 . S
O20 Sc2 2.105 . S
O20 C4 1.268 . S
O21 Sc1 2.105 . S
O21 C6 1.266 1_554 S
Sc22 O25 2.025 . S
Sc22 O32 2.105 . S
Sc22 O35 2.105 . S
Sc22 O38 2.105 . S
Sc22 O41 2.105 . S
Sc23 O25 2.025 . S
Sc23 O33 2.105 . S
Sc23 O37 2.105 . S
Sc23 O39 2.105 . S
Sc23 O43 2.105 . S
Sc24 O25 2.025 . S
Sc24 O34 2.105 . S
Sc24 O36 2.105 . S
Sc24 O40 2.105 . S
Sc24 O42 2.105 . S
O25 Sc22 2.025 . S
O25 Sc23 2.025 . S
O25 Sc24 2.025 . S
C26 O32 1.268 . S
C26 O42 1.268 . S
C27 O33 1.268 . S
C27 O41 1.268 . S
C28 O34 1.268 . S
C28 O43 1.268 . S
C29 O35 1.268 . S
C29 O39 1.268 . S
C30 O36 1.268 . S
C30 O38 1.268 . S
C31 O37 1.268 . S
C31 O40 1.268 . S
O32 Sc22 2.105 . S
O32 C26 1.268 . S
O33 Sc23 2.105 . S
O33 C27 1.268 . S
O34 Sc24 2.105 . S
O34 C28 1.268 . S
O35 Sc22 2.105 . S
O35 C29 1.268 . S
O36 Sc24 2.105 . S
O36 C30 1.268 . S
O37 Sc23 2.105 . S
O37 C31 1.268 . S
O38 Sc22 2.105 . S
O38 C30 1.268 . S
O39 Sc23 2.105 . S
O39 C29 1.268 . S
O40 Sc24 2.105 . S
O40 C31 1.268 . S
O41 Sc22 2.105 . S
O41 C27 1.268 . S
O42 Sc24 2.105 . S
O42 C26 1.268 . S
O43 Sc23 2.105 . S
O43 C28 1.268 . S
Sc44 O47 2.025 . S
Sc44 O54 2.105 1_554 S
Sc44 O57 2.105 . S
Sc44 O60 2.105 . S
Sc44 O63 2.105 1_554 S
Sc45 O47 2.025 1_556 S
Sc45 O55 2.105 . S
Sc45 O59 2.105 1_556 S
Sc45 O61 2.105 1_556 S
Sc45 O65 2.105 . S
Sc46 O47 2.025 . S
Sc46 O56 2.105 1_554 S
Sc46 O58 2.105 . S
Sc46 O62 2.105 . S
Sc46 O64 2.105 1_554 S
O47 Sc44 2.025 . S
O47 Sc45 2.025 1_554 S
O47 Sc46 2.025 . S
C48 O54 1.268 . S
C48 O64 1.268 . S
C49 O55 1.268 . S
C49 O63 1.268 . S
C50 O56 1.268 . S
C50 O65 1.268 . S
C51 O57 1.268 . S
C51 O61 1.268 . S
C52 O58 1.268 . S
C52 O60 1.268 . S
C53 O59 1.268 . S
C53 O62 1.268 . S
O54 Sc44 2.105 1_556 S
O54 C48 1.268 . S
O55 Sc45 2.105 . S
O55 C49 1.268 . S
O56 Sc46 2.105 1_556 S
O56 C50 1.268 . S
O57 Sc44 2.105 . S
O57 C51 1.268 . S
O58 Sc46 2.105 . S
O58 C52 1.268 . S
O59 Sc45 2.105 1_554 S
O59 C53 1.268 . S
O60 Sc44 2.105 . S
O60 C52 1.268 . S
O61 Sc45 2.105 1_554 S
O61 C51 1.268 . S
O62 Sc46 2.105 . S
O62 C53 1.268 . S
O63 Sc44 2.105 1_556 S
O63 C49 1.268 . S
O64 Sc46 2.105 1_556 S
O64 C48 1.268 . S
O65 Sc45 2.105 . S
O65 C50 1.268 . S
Sc66 O69 2.025 . S
Sc66 O76 2.105 . S
Sc66 O79 2.105 . S
Sc66 O82 2.105 . S
Sc66 O85 2.105 . S
Sc67 O69 2.025 . S
Sc67 O77 2.105 . S
Sc67 O81 2.105 . S
Sc67 O83 2.105 . S
Sc67 O87 2.105 . S
Sc68 O69 2.025 . S
Sc68 O78 2.105 . S
Sc68 O80 2.105 . S
Sc68 O84 2.105 . S
Sc68 O86 2.105 . S
O69 Sc66 2.025 . S
O69 Sc67 2.025 . S
O69 Sc68 2.025 . S
C70 O76 1.268 . S
C70 O86 1.268 . S
C71 O77 1.268 . S
C71 O85 1.268 . S
C72 O78 1.268 . S
C72 O87 1.268 . S
C73 O79 1.268 . S
C73 O83 1.268 . S
C74 O80 1.268 . S
C74 O82 1.268 . S
C75 O81 1.268 . S
C75 O84 1.268 . S
O76 Sc66 2.105 . S
O76 C70 1.268 . S
O77 Sc67 2.105 . S
O77 C71 1.268 . S
O78 Sc68 2.105 . S
O78 C72 1.268 . S
O79 Sc66 2.105 . S
O79 C73 1.268 . S
O80 Sc68 2.105 . S
O80 C74 1.268 . S
O81 Sc67 2.105 . S
O81 C75 1.268 . S
O82 Sc66 2.105 . S
O82 C74 1.268 . S
O83 Sc67 2.105 . S
O83 C73 1.268 . S
O84 Sc68 2.105 . S
O84 C75 1.268 . S
O85 Sc66 2.105 . S
O85 C71 1.268 . S
O86 Sc68 2.105 . S
O86 C70 1.268 . S
O87 Sc67 2.105 . S
O87 C72 1.268 . S
H88 C91 0.929 . S
H89 C94 0.929 . S
H90 C96 0.930 . S
C91 H88 0.929 . S
C91 C92 1.398 . S
C91 C93 1.396 . S
C92 C91 1.398 . S
C92 C96 1.407 . S
C93 C91 1.396 . S
C93 C94 1.394 . S
C94 H89 0.929 . S
C94 C93 1.394 . S
C94 C95 1.382 . S
C95 C94 1.382 . S
C95 C96 1.392 . S
C95 N97 1.420 . S
C96 H90 0.930 . S
C96 C92 1.407 . S
C96 C95 1.392 . S
N97 C95 1.420 . S
N97 C98 1.244 . S
C98 N97 1.244 . S
H99 C102 0.929 . S
H100 C105 0.929 . S
H101 C107 0.930 . S
C102 H99 0.929 . S
C102 C103 1.398 . S
C102 C104 1.396 . S
C103 C102 1.398 . S
C103 C107 1.407 . S
C104 C102 1.396 . S
C104 C105 1.394 . S
C105 H100 0.929 . S
C105 C104 1.394 . S
C105 C106 1.382 . S
C106 C105 1.382 . S
C106 C107 1.392 . S
C106 N108 1.420 . S
C107 H101 0.930 . S
C107 C103 1.407 . S
C107 C106 1.392 . S
N108 C106 1.420 . S
N108 C109 1.244 . S
C109 N108 1.244 . S
H110 C113 0.929 . S
H111 C116 0.929 . S
H112 C118 0.930 . S
C113 H110 0.929 . S
C113 C114 1.398 . S
C113 C115 1.396 . S
C114 C113 1.398 . S
C114 C118 1.407 . S
C115 C113 1.396 . S
C115 C116 1.394 . S
C116 H111 0.929 . S
C116 C115 1.394 . S
C116 C117 1.382 . S
C117 C116 1.382 . S
C117 C118 1.392 . S
C117 N119 1.420 . S
C118 H112 0.930 . S
C118 C114 1.407 . S
C118 C117 1.392 . S
N119 C117 1.420 . S
N119 C120 1.244 . S
C120 N119 1.244 . S
H121 C124 0.929 . S
H122 C127 0.929 . S
H123 C129 0.930 . S
C124 H121 0.929 . S
C124 C125 1.398 . S
C124 C126 1.396 . S
C125 C124 1.398 . S
C125 C129 1.407 . S
C126 C124 1.396 . S
C126 C127 1.394 . S
C127 H122 0.929 . S
C127 C126 1.394 . S
C127 C128 1.382 . S
C128 C127 1.382 . S
C128 C129 1.392 . S
C128 N130 1.420 . S
C129 H123 0.930 . S
C129 C125 1.407 . S
C129 C128 1.392 . S
N130 C128 1.420 . S
N130 C131 1.244 . S
C131 N130 1.244 . S
H132 C135 0.929 . S
H133 C138 0.929 . S
H134 C140 0.930 . S
C135 H132 0.929 . S
C135 C136 1.398 . S
C135 C137 1.396 . S
C136 C135 1.398 . S
C136 C140 1.407 . S
C137 C135 1.396 . S
C137 C138 1.394 . S
C138 H133 0.929 . S
C138 C137 1.394 . S
C138 C139 1.382 . S
C139 C138 1.382 . S
C139 C140 1.392 . S
C139 N141 1.420 . S
C140 H134 0.930 . S
C140 C136 1.407 . S
C140 C139 1.392 . S
N141 C139 1.420 . S
N141 C142 1.244 . S
C142 N141 1.244 . S
H143 C146 0.929 . S
H144 C149 0.929 . S
H145 C151 0.930 . S
C146 H143 0.929 . S
C146 C147 1.398 . S
C146 C148 1.396 . S
C147 C146 1.398 . S
C147 C151 1.407 . S
C148 C146 1.396 . S
C148 C149 1.394 . S
C149 H144 0.929 . S
C149 C148 1.394 . S
C149 C150 1.382 . S
C150 C149 1.382 . S
C150 C151 1.392 . S
C150 N152 1.420 . S
C151 H145 0.930 . S
C151 C147 1.407 . S
C151 C150 1.392 . S
N152 C150 1.420 . S
N152 C153 1.244 . S
C153 N152 1.244 . S
H154 C157 0.929 . S
H155 C160 0.929 . S
H156 C162 0.930 . S
C157 H154 0.929 . S
C157 C158 1.398 . S
C157 C159 1.396 . S
C158 C157 1.398 . S
C158 C162 1.407 . S
C159 C157 1.396 . S
C159 C160 1.394 . S
C160 H155 0.929 . S
C160 C159 1.394 . S
C160 C161 1.382 . S
C161 C160 1.382 . S
C161 C162 1.392 . S
C161 N163 1.420 . S
C162 H156 0.930 . S
C162 C158 1.407 . S
C162 C161 1.392 . S
N163 C161 1.420 . S
N163 C164 1.244 . S
C164 N163 1.244 . S
H165 C168 0.929 . S
H166 C171 0.929 . S
H167 C173 0.930 . S
C168 H165 0.929 . S
C168 C169 1.398 . S
C168 C170 1.396 . S
C169 C168 1.398 . S
C169 C173 1.407 . S
C170 C168 1.396 . S
C170 C171 1.394 . S
C171 H166 0.929 . S
C171 C170 1.394 . S
C171 C172 1.382 . S
C172 C171 1.382 . S
C172 C173 1.392 . S
C172 N174 1.420 . S
C173 H167 0.930 . S
C173 C169 1.407 . S
C173 C172 1.392 . S
N174 C172 1.420 . S
N174 C175 1.244 . S
C175 N174 1.244 . S
H176 C182 0.930 . S
H177 C186 0.930 . S
H178 C191 0.929 . S
H179 C189 0.929 . S
H180 C184 0.929 . S
H181 C190 0.929 . S
C182 H176 0.930 . S
C182 C183 1.367 . S
C182 C190 1.378 . S
C183 C182 1.367 . S
C183 C191 1.433 . S
C184 H180 0.929 . S
C184 C186 1.378 . S
C184 C188 1.350 . S
C185 C188 1.463 1_565 S
C185 C190 1.350 . S
C185 N193 1.427 . S
C186 H177 0.930 . S
C186 C184 1.378 . S
C186 C187 1.367 . S
C187 C186 1.367 . S
C187 C189 1.433 . S
C188 C184 1.350 . S
C188 C185 1.463 1_545 S
C188 N192 1.427 . S
C189 H179 0.929 . S
C189 C187 1.433 . S
C189 N192 1.384 . S
C190 H181 0.929 . S
C190 C182 1.378 . S
C190 C185 1.350 . S
C191 H178 0.929 . S
C191 C183 1.433 . S
C191 N193 1.384 . S
N192 C188 1.427 . S
N192 C189 1.384 . S
N193 C185 1.427 . S
N193 C191 1.384 . S
H194 C200 0.930 . S
H195 C204 0.930 . S
H196 C209 0.929 . S
H197 C207 0.929 . S
H198 C202 0.929 . S
H199 C208 0.929 . S
C200 H194 0.930 . S
C200 C201 1.367 . S
C200 C208 1.378 . S
C201 C200 1.367 . S
C201 C209 1.433 . S
C202 H198 0.929 . S
C202 C204 1.378 . S
C202 C206 1.350 . S
C203 C206 1.463 . S
C203 C208 1.350 . S
C203 N211 1.427 . S
C204 H195 0.930 . S
C204 C202 1.378 . S
C204 C205 1.367 . S
C205 C204 1.367 . S
C205 C207 1.433 . S
C206 C202 1.350 . S
C206 C203 1.463 . S
C206 N210 1.427 . S
C207 H197 0.929 . S
C207 C205 1.433 . S
C207 N210 1.384 . S
C208 H199 0.929 . S
C208 C200 1.378 . S
C208 C203 1.350 . S
C209 H196 0.929 . S
C209 C201 1.433 . S
C209 N211 1.384 . S
N210 C206 1.427 . S
N210 C207 1.384 . S
N211 C203 1.427 . S
N211 C209 1.384 . S
H212 C218 0.930 . S
H213 C222 0.930 . S
H214 C227 0.929 . S
H215 C225 0.929 . S
H216 C220 0.929 . S
H217 C226 0.929 . S
C218 H212 0.930 . S
C218 C219 1.367 . S
C218 C226 1.378 . S
C219 C218 1.367 . S
C219 C227 1.433 . S
C220 H216 0.929 . S
C220 C222 1.378 . S
C220 C224 1.350 . S
C221 C224 1.463 1_545 S
C221 C226 1.350 . S
C221 N229 1.427 1_545 S
C222 H213 0.930 . S
C222 C220 1.378 . S
C222 C223 1.367 . S
C223 C222 1.367 . S
C223 C225 1.433 . S
C224 C220 1.350 . S
C224 C221 1.463 1_565 S
C224 N228 1.427 . S
C225 H215 0.929 . S
C225 C223 1.433 . S
C225 N228 1.384 . S
C226 H217 0.929 . S
C226 C218 1.378 . S
C226 C221 1.350 . S
C227 H214 0.929 . S
C227 C219 1.433 . S
C227 N229 1.384 1_545 S
N228 C224 1.427 . S
N228 C225 1.384 . S
N229 C221 1.427 1_565 S
N229 C227 1.384 1_565 S
H230 C236 0.930 . S
H231 C240 0.930 . S
H232 C245 0.929 . S
H233 C243 0.929 . S
H234 C238 0.929 . S
H235 C244 0.929 . S
C236 H230 0.930 . S
C236 C237 1.367 . S
C236 C244 1.378 . S
C237 C236 1.367 . S
C237 C245 1.433 . S
C238 H234 0.929 . S
C238 C240 1.378 . S
C238 C242 1.350 . S
C239 C242 1.463 . S
C239 C244 1.350 . S
C239 N247 1.427 . S
C240 H231 0.930 . S
C240 C238 1.378 . S
C240 C241 1.367 . S
C241 C240 1.367 . S
C241 C243 1.433 . S
C242 C238 1.350 . S
C242 C239 1.463 . S
C242 N246 1.427 . S
C243 H233 0.929 . S
C243 C241 1.433 . S
C243 N246 1.384 . S
C244 H235 0.929 . S
C244 C236 1.378 . S
C244 C239 1.350 . S
C245 H232 0.929 . S
C245 C237 1.433 . S
C245 N247 1.384 . S
N246 C242 1.427 . S
N246 C243 1.384 . S
N247 C239 1.427 . S
N247 C245 1.384 . S
H248 C254 0.930 . S
H249 C258 0.930 . S
H250 C263 0.929 . S
H251 C261 0.929 . S
H252 C256 0.929 . S
H253 C262 0.929 . S
C254 H248 0.930 . S
C254 C255 1.367 . S
C254 C262 1.378 . S
C255 C254 1.367 . S
C255 C263 1.433 . S
C256 H252 0.929 . S
C256 C258 1.378 . S
C256 C260 1.350 . S
C257 C260 1.463 . S
C257 C262 1.350 . S
C257 N265 1.427 . S
C258 H249 0.930 . S
C258 C256 1.378 . S
C258 C259 1.367 . S
C259 C258 1.367 . S
C259 C261 1.433 . S
C260 C256 1.350 . S
C260 C257 1.463 . S
C260 N264 1.427 . S
C261 H251 0.929 . S
C261 C259 1.433 . S
C261 N264 1.384 . S
C262 H253 0.929 . S
C262 C254 1.378 . S
C262 C257 1.350 . S
C263 H250 0.929 . S
C263 C255 1.433 . S
C263 N265 1.384 . S
N264 C260 1.427 . S
N264 C261 1.384 . S
N265 C257 1.427 . S
N265 C263 1.384 . S
H266 C272 0.926 1_655 S
H267 C276 0.930 . S
H268 C281 0.929 . S
H269 C279 0.929 . S
H270 C274 0.929 . S
H271 C280 0.929 . S
C272 H266 0.926 1_455 S
C272 C273 1.362 1_455 S
C272 C280 1.387 . S
C273 C272 1.362 1_655 S
C273 C281 1.433 . S
C274 H270 0.929 . S
C274 C276 1.378 . S
C274 C278 1.350 . S
C275 C278 1.463 . S
C275 C280 1.350 . S
C275 N283 1.427 . S
C276 H267 0.930 . S
C276 C274 1.378 . S
C276 C277 1.367 . S
C277 C276 1.367 . S
C277 C279 1.433 . S
C278 C274 1.350 . S
C278 C275 1.463 . S
C278 N282 1.427 . S
C279 H269 0.929 . S
C279 C277 1.433 . S
C279 N282 1.384 . S
C280 H271 0.929 . S
C280 C272 1.387 . S
C280 C275 1.350 . S
C281 H268 0.929 . S
C281 C273 1.433 . S
C281 N283 1.384 1_655 S
N282 C278 1.427 . S
N282 C279 1.384 . S
N283 C275 1.427 . S
N283 C281 1.384 1_455 S
H284 C290 0.930 . S
H285 C294 0.930 . S
H286 C299 0.929 . S
H287 C297 0.929 . S
H288 C292 0.929 . S
H289 C298 0.929 . S
C290 H284 0.930 . S
C290 C291 1.367 . S
C290 C298 1.378 . S
C291 C290 1.367 . S
C291 C299 1.433 . S
C292 H288 0.929 . S
C292 C294 1.378 . S
C292 C296 1.350 . S
C293 C296 1.463 . S
C293 C298 1.350 . S
C293 N301 1.427 . S
C294 H285 0.930 . S
C294 C292 1.378 . S
C294 C295 1.367 . S
C295 C294 1.367 . S
C295 C297 1.433 . S
C296 C292 1.350 . S
C296 C293 1.463 . S
C296 N300 1.427 . S
C297 H287 0.929 . S
C297 C295 1.433 . S
C297 N300 1.384 . S
C298 H289 0.929 . S
C298 C290 1.378 . S
C298 C293 1.350 . S
C299 H286 0.929 . S
C299 C291 1.433 . S
C299 N301 1.384 . S
N300 C296 1.427 . S
N300 C297 1.384 . S
N301 C293 1.427 . S
N301 C299 1.384 . S
H302 C308 0.930 . S
H303 C312 0.930 . S
H304 C317 0.929 . S
H305 C315 0.929 1_455 S
H306 C310 0.929 . S
H307 C316 0.929 . S
C308 H302 0.930 . S
C308 C309 1.367 . S
C308 C316 1.378 . S
C309 C308 1.367 . S
C309 C317 1.433 . S
C310 H306 0.929 . S
C310 C312 1.378 . S
C310 C314 1.347 . S
C311 C314 1.464 1_455 S
C311 C316 1.350 . S
C311 N319 1.427 . S
C312 H303 0.930 . S
C312 C310 1.378 . S
C312 C313 1.367 . S
C313 C312 1.367 . S
C313 C315 1.433 . S
C314 C310 1.347 . S
C314 C311 1.464 1_655 S
C314 N318 1.429 1_655 S
C315 H305 0.929 1_655 S
C315 C313 1.433 . S
C315 N318 1.384 1_655 S
C316 H307 0.929 . S
C316 C308 1.378 . S
C316 C311 1.350 . S
C317 H304 0.929 . S
C317 C309 1.433 . S
C317 N319 1.384 . S
N318 C314 1.429 1_455 S
N318 C315 1.384 1_455 S
N319 C311 1.427 . S
N319 C317 1.384 . S
H320 C326 0.930 . S
H321 C330 0.930 . S
H322 C335 0.929 . S
H323 C333 0.929 . S
H324 C328 0.929 . S
H325 C334 0.929 . S
C326 H320 0.930 . S
C326 C327 1.367 . S
C326 C334 1.378 . S
C327 C326 1.367 . S
C327 C335 1.433 . S
C328 H324 0.929 . S
C328 C330 1.378 . S
C328 C332 1.350 . S
C329 C332 1.463 1_545 S
C329 C334 1.350 . S
C329 N337 1.427 . S
C330 H321 0.930 . S
C330 C328 1.378 . S
C330 C331 1.367 . S
C331 C330 1.367 . S
C331 C333 1.433 . S
C332 C328 1.350 . S
C332 C329 1.463 1_565 S
C332 N336 1.427 . S
C333 H323 0.929 . S
C333 C331 1.433 . S
C333 N336 1.384 . S
C334 H325 0.929 . S
C334 C326 1.378 . S
C334 C329 1.350 . S
C335 H322 0.929 . S
C335 C327 1.433 . S
C335 N337 1.384 . S
N336 C332 1.427 . S
N336 C333 1.384 . S
N337 C329 1.427 . S
N337 C335 1.384 . S
H338 C344 0.930 . S
H339 C348 0.930 . S
H340 C353 0.929 . S
H341 C351 0.929 . S
H342 C346 0.929 . S
H343 C352 0.929 . S
C344 H338 0.930 . S
C344 C345 1.367 . S
C344 C352 1.378 . S
C345 C344 1.367 . S
C345 C353 1.433 . S
C346 H342 0.929 . S
C346 C348 1.378 . S
C346 C350 1.350 . S
C347 C350 1.463 . S
C347 C352 1.350 . S
C347 N355 1.427 . S
C348 H339 0.930 . S
C348 C346 1.378 . S
C348 C349 1.367 . S
C349 C348 1.367 . S
C349 C351 1.433 . S
C350 C346 1.350 . S
C350 C347 1.463 . S
C350 N354 1.427 . S
C351 H341 0.929 . S
C351 C349 1.433 . S
C351 N354 1.384 . S
C352 H343 0.929 . S
C352 C344 1.378 . S
C352 C347 1.350 . S
C353 H340 0.929 . S
C353 C345 1.433 . S
C353 N355 1.384 . S
N354 C350 1.427 . S
N354 C351 1.384 . S
N355 C347 1.427 . S
N355 C353 1.384 . S
H356 C362 0.930 . S
H357 C366 0.930 . S
H358 C371 0.929 1_554 S
H359 C369 0.929 . S
H360 C364 0.929 . S
H361 C370 0.929 . S
C362 H356 0.930 . S
C362 C363 1.367 . S
C362 C370 1.378 . S
C363 C362 1.367 . S
C363 C371 1.433 . S
C364 H360 0.929 . S
C364 C366 1.378 . S
C364 C368 1.350 . S
C365 C368 1.487 . S
C365 C370 1.339 1_545 S
C365 N373 1.415 1_545 S
C366 H357 0.930 . S
C366 C364 1.378 . S
C366 C367 1.367 . S
C367 C366 1.367 . S
C367 C369 1.433 . S
C368 C364 1.350 . S
C368 C365 1.487 . S
C368 N372 1.427 . S
C369 H359 0.929 . S
C369 C367 1.433 . S
C369 N372 1.384 . S
C370 H361 0.929 . S
C370 C362 1.378 . S
C370 C365 1.339 1_565 S
C371 H358 0.929 1_556 S
C371 C363 1.433 . S
C371 N373 1.384 . S
N372 C368 1.427 . S
N372 C369 1.384 . S
N373 C365 1.415 1_565 S
N373 C371 1.384 . S
H374 C380 0.930 . S
H375 C384 0.930 . S
H376 C389 0.929 . S
H377 C387 0.929 . S
H378 C382 0.929 . S
H379 C388 0.929 . S
C380 H374 0.930 . S
C380 C381 1.367 . S
C380 C388 1.378 . S
C381 C380 1.367 . S
C381 C389 1.433 . S
C382 H378 0.929 . S
C382 C384 1.378 . S
C382 C386 1.350 . S
C383 C386 1.463 . S
C383 C388 1.350 . S
C383 N391 1.427 . S
C384 H375 0.930 . S
C384 C382 1.378 . S
C384 C385 1.367 . S
C385 C384 1.367 . S
C385 C387 1.433 . S
C386 C382 1.350 . S
C386 C383 1.463 . S
C386 N390 1.427 . S
C387 H377 0.929 . S
C387 C385 1.433 . S
C387 N390 1.384 . S
C388 H379 0.929 . S
C388 C380 1.378 . S
C388 C383 1.350 . S
C389 H376 0.929 . S
C389 C381 1.433 . S
C389 N391 1.384 . S
N390 C386 1.427 . S
N390 C387 1.384 . S
N391 C383 1.427 . S
N391 C389 1.384 . S
H392 C398 0.930 . S
H393 C402 0.930 . S
H394 C407 0.929 . S
H395 C405 0.929 . S
H396 C400 0.929 . S
H397 C406 0.929 . S
C398 H392 0.930 . S
C398 C399 1.367 . S
C398 C406 1.378 . S
C399 C398 1.367 . S
C399 C407 1.433 . S
C400 H396 0.929 . S
C400 C402 1.378 . S
C400 C404 1.350 . S
C401 C404 1.463 . S
C401 C406 1.350 . S
C401 N409 1.427 . S
C402 H393 0.930 . S
C402 C400 1.378 . S
C402 C403 1.367 . S
C403 C402 1.367 . S
C403 C405 1.433 . S
C404 C400 1.350 . S
C404 C401 1.463 . S
C404 N408 1.427 . S
C405 H395 0.929 . S
C405 C403 1.433 . S
C405 N408 1.384 . S
C406 H397 0.929 . S
C406 C398 1.378 . S
C406 C401 1.350 . S
C407 H394 0.929 . S
C407 C399 1.433 . S
C407 N409 1.384 . S
N408 C404 1.427 . S
N408 C405 1.384 . S
N409 C401 1.427 . S
N409 C407 1.384 . S
H410 C416 0.930 . S
H411 C420 0.930 . S
H412 C425 0.938 . S
H413 C423 0.929 . S
H414 C418 0.929 . S
H415 C424 0.929 . S
C416 H410 0.930 . S
C416 C417 1.367 . S
C416 C424 1.378 1_455 S
C417 C416 1.367 . S
C417 C425 1.433 1_455 S
C418 H414 0.929 . S
C418 C420 1.378 . S
C418 C422 1.350 . S
C419 C422 1.463 . S
C419 C424 1.350 . S
C419 N427 1.427 . S
C420 H411 0.930 . S
C420 C418 1.378 . S
C420 C421 1.367 . S
C421 C420 1.367 . S
C421 C423 1.433 . S
C422 C418 1.350 . S
C422 C419 1.463 . S
C422 N426 1.427 . S
C423 H413 0.929 . S
C423 C421 1.433 . S
C423 N426 1.384 . S
C424 H415 0.929 . S
C424 C416 1.378 1_655 S
C424 C419 1.350 . S
C425 H412 0.938 . S
C425 C417 1.433 1_655 S
C425 N427 1.384 . S
N426 C422 1.427 . S
N426 C423 1.384 . S
N427 C419 1.427 . S
N427 C425 1.384 . S
H428 C434 0.930 . S
H429 C438 0.930 . S
H430 C443 0.929 . S
H431 C441 0.929 . S
H432 C436 0.929 . S
H433 C442 0.929 . S
C434 H428 0.930 . S
C434 C435 1.367 . S
C434 C442 1.378 . S
C435 C434 1.367 . S
C435 C443 1.433 . S
C436 H432 0.929 . S
C436 C438 1.378 . S
C436 C440 1.350 . S
C437 C440 1.463 . S
C437 C442 1.350 . S
C437 N445 1.427 . S
C438 H429 0.930 . S
C438 C436 1.378 . S
C438 C439 1.367 . S
C439 C438 1.367 . S
C439 C441 1.433 . S
C440 C436 1.350 . S
C440 C437 1.463 . S
C440 N444 1.427 . S
C441 H431 0.929 . S
C441 C439 1.433 . S
C441 N444 1.384 . S
C442 H433 0.929 . S
C442 C434 1.378 . S
C442 C437 1.350 . S
C443 H430 0.929 . S
C443 C435 1.433 . S
C443 N445 1.384 . S
N444 C440 1.427 . S
N444 C441 1.384 . S
N445 C437 1.427 . S
N445 C443 1.384 . S
H446 C452 0.930 . S
H447 C456 0.930 . S
H448 C461 0.929 . S
H449 C459 0.929 . S
H450 C454 0.929 . S
H451 C460 0.929 . S
C452 H446 0.930 . S
C452 C453 1.367 . S
C452 C460 1.378 . S
C453 C452 1.367 . S
C453 C461 1.433 . S
C454 H450 0.929 . S
C454 C456 1.378 . S
C454 C458 1.350 1_455 S
C455 C458 1.463 . S
C455 C460 1.350 . S
C455 N463 1.427 . S
C456 H447 0.930 . S
C456 C454 1.378 . S
C456 C457 1.367 . S
C457 C456 1.367 . S
C457 C459 1.433 1_455 S
C458 C454 1.350 1_655 S
C458 C455 1.463 . S
C458 N462 1.427 . S
C459 H449 0.929 . S
C459 C457 1.433 1_655 S
C459 N462 1.384 . S
C460 H451 0.929 . S
C460 C452 1.378 . S
C460 C455 1.350 . S
C461 H448 0.929 . S
C461 C453 1.433 . S
C461 N463 1.384 . S
N462 C458 1.427 . S
N462 C459 1.384 . S
N463 C455 1.427 . S
N463 C461 1.384 . S
H464 C470 0.930 . S
H465 C474 0.930 . S
H466 C479 0.929 . S
H467 C477 0.929 . S
H468 C472 0.929 . S
H469 C478 0.929 . S
C470 H464 0.930 . S
C470 C471 1.367 . S
C470 C478 1.378 . S
C471 C470 1.367 . S
C471 C479 1.433 . S
C472 H468 0.929 . S
C472 C474 1.378 . S
C472 C476 1.350 . S
C473 C476 1.463 . S
C473 C478 1.350 . S
C473 N481 1.427 . S
C474 H465 0.930 . S
C474 C472 1.378 . S
C474 C475 1.367 . S
C475 C474 1.367 . S
C475 C477 1.433 . S
C476 C472 1.350 . S
C476 C473 1.463 . S
C476 N480 1.427 . S
C477 H467 0.929 . S
C477 C475 1.433 . S
C477 N480 1.384 . S
C478 H469 0.929 . S
C478 C470 1.378 . S
C478 C473 1.350 . S
C479 H466 0.929 . S
C479 C471 1.433 . S
C479 N481 1.384 . S
N480 C476 1.427 . S
N480 C477 1.384 . S
N481 C473 1.427 . S
N481 C479 1.384 . S
H482 C488 0.930 . S
H483 C492 0.930 . S
H484 C497 0.929 . S
H485 C495 0.929 . S
H486 C490 0.929 . S
H487 C496 0.929 . S
C488 H482 0.930 . S
C488 C489 1.367 . S
C488 C496 1.378 . S
C489 C488 1.367 . S
C489 C497 1.433 . S
C490 H486 0.929 . S
C490 C492 1.378 . S
C490 C494 1.350 . S
C491 C494 1.463 . S
C491 C496 1.350 . S
C491 N499 1.427 . S
C492 H483 0.930 . S
C492 C490 1.378 . S
C492 C493 1.367 . S
C493 C492 1.367 . S
C493 C495 1.433 . S
C494 C490 1.350 . S
C494 C491 1.463 . S
C494 N498 1.427 . S
C495 H485 0.929 . S
C495 C493 1.433 . S
C495 N498 1.384 . S
C496 H487 0.929 . S
C496 C488 1.378 . S
C496 C491 1.350 . S
C497 H484 0.929 . S
C497 C489 1.433 . S
C497 N499 1.384 . S
N498 C494 1.427 . S
N498 C495 1.384 . S
N499 C491 1.427 . S
N499 C497 1.384 . S
H500 C506 0.930 . S
H501 C510 0.930 . S
H502 C515 0.929 . S
H503 C513 0.929 . S
H504 C508 0.929 . S
H505 C514 0.929 . S
C506 H500 0.930 . S
C506 C507 1.367 . S
C506 C514 1.378 . S
C507 C506 1.367 . S
C507 C515 1.433 . S
C508 H504 0.929 . S
C508 C510 1.378 . S
C508 C512 1.350 . S
C509 C512 1.463 . S
C509 C514 1.350 . S
C509 N517 1.427 . S
C510 H501 0.930 . S
C510 C508 1.378 . S
C510 C511 1.367 . S
C511 C510 1.367 . S
C511 C513 1.433 . S
C512 C508 1.350 . S
C512 C509 1.463 . S
C512 N516 1.427 . S
C513 H503 0.929 . S
C513 C511 1.433 . S
C513 N516 1.384 . S
C514 H505 0.929 . S
C514 C506 1.378 . S
C514 C509 1.350 . S
C515 H502 0.929 . S
C515 C507 1.433 . S
C515 N517 1.384 . S
N516 C512 1.427 . S
N516 C513 1.384 . S
N517 C509 1.427 . S
N517 C515 1.384 . S
H518 C524 0.930 . S
H519 C528 0.930 . S
H520 C533 0.929 . S
H521 C531 0.929 . S
H522 C526 0.929 . S
H523 C532 0.929 . S
C524 H518 0.930 . S
C524 C525 1.367 . S
C524 C532 1.378 . S
C525 C524 1.367 . S
C525 C533 1.433 . S
C526 H522 0.929 . S
C526 C528 1.378 . S
C526 C530 1.350 . S
C527 C530 1.463 . S
C527 C532 1.350 . S
C527 N535 1.427 . S
C528 H519 0.930 . S
C528 C526 1.378 . S
C528 C529 1.367 . S
C529 C528 1.367 . S
C529 C531 1.433 . S
C530 C526 1.350 . S
C530 C527 1.463 . S
C530 N534 1.427 . S
C531 H521 0.929 . S
C531 C529 1.433 . S
C531 N534 1.384 . S
C532 H523 0.929 . S
C532 C524 1.378 . S
C532 C527 1.350 . S
C533 H520 0.929 . S
C533 C525 1.433 . S
C533 N535 1.384 . S
N534 C530 1.427 . S
N534 C531 1.384 . S
N535 C527 1.427 . S
N535 C533 1.384 . S
H536 C542 0.930 . S
H537 C546 0.930 . S
H538 C551 0.929 . S
H539 C549 0.929 . S
H540 C544 0.929 . S
H541 C550 0.929 . S
C542 H536 0.930 . S
C542 C543 1.367 . S
C542 C550 1.378 . S
C543 C542 1.367 . S
C543 C551 1.433 . S
C544 H540 0.929 . S
C544 C546 1.378 . S
C544 C548 1.350 . S
C545 C548 1.463 . S
C545 C550 1.350 . S
C545 N553 1.427 . S
C546 H537 0.930 . S
C546 C544 1.378 . S
C546 C547 1.367 . S
C547 C546 1.367 . S
C547 C549 1.433 . S
C548 C544 1.350 . S
C548 C545 1.463 . S
C548 N552 1.427 . S
C549 H539 0.929 . S
C549 C547 1.433 . S
C549 N552 1.384 . S
C550 H541 0.929 . S
C550 C542 1.378 . S
C550 C545 1.350 . S
C551 H538 0.929 . S
C551 C543 1.433 . S
C551 N553 1.384 . S
N552 C548 1.427 . S
N552 C549 1.384 . S
N553 C545 1.427 . S
N553 C551 1.384 . S
H554 C560 0.930 . S
H555 C564 0.930 . S
H556 C569 0.929 . S
H557 C567 0.929 . S
H558 C562 0.929 . S
H559 C568 0.929 . S
C560 H554 0.930 . S
C560 C561 1.367 . S
C560 C568 1.378 . S
C561 C560 1.367 . S
C561 C569 1.433 . S
C562 H558 0.929 . S
C562 C564 1.378 . S
C562 C566 1.350 . S
C563 C566 1.463 . S
C563 C568 1.350 . S
C563 N571 1.427 . S
C564 H555 0.930 . S
C564 C562 1.378 . S
C564 C565 1.367 . S
C565 C564 1.367 . S
C565 C567 1.433 . S
C566 C562 1.350 . S
C566 C563 1.463 . S
C566 N570 1.427 . S
C567 H557 0.929 . S
C567 C565 1.433 . S
C567 N570 1.384 . S
C568 H559 0.929 . S
C568 C560 1.378 . S
C568 C563 1.350 . S
C569 H556 0.929 . S
C569 C561 1.433 . S
C569 N571 1.384 . S
N570 C566 1.427 . S
N570 C567 1.384 . S
N571 C563 1.427 . S
N571 C569 1.384 . S
H572 C578 0.930 . S
H573 C582 0.930 . S
H574 C587 0.929 . S
H575 C585 0.929 . S
H576 C580 0.929 . S
H577 C586 0.929 . S
C578 H572 0.930 . S
C578 C579 1.367 . S
C578 C586 1.378 . S
C579 C578 1.367 . S
C579 C587 1.433 . S
C580 H576 0.929 . S
C580 C582 1.378 . S
C580 C584 1.350 . S
C581 C584 1.463 . S
C581 C586 1.350 . S
C581 N589 1.427 . S
C582 H573 0.930 . S
C582 C580 1.378 . S
C582 C583 1.367 . S
C583 C582 1.367 . S
C583 C585 1.433 . S
C584 C580 1.350 . S
C584 C581 1.463 . S
C584 N588 1.427 . S
C585 H575 0.929 . S
C585 C583 1.433 . S
C585 N588 1.384 . S
C586 H577 0.929 . S
C586 C578 1.378 . S
C586 C581 1.350 . S
C587 H574 0.929 . S
C587 C579 1.433 . S
C587 N589 1.384 . S
N588 C584 1.427 . S
N588 C585 1.384 . S
N589 C581 1.427 . S
N589 C587 1.384 . S
H590 C596 0.930 . S
H591 C600 0.930 . S
H592 C605 0.929 . S
H593 C603 0.929 . S
H594 C598 0.929 . S
H595 C604 0.929 . S
C596 H590 0.930 . S
C596 C597 1.367 . S
C596 C604 1.378 . S
C597 C596 1.367 . S
C597 C605 1.433 . S
C598 H594 0.929 . S
C598 C600 1.378 . S
C598 C602 1.350 . S
C599 C602 1.463 . S
C599 C604 1.350 . S
C599 N607 1.427 . S
C600 H591 0.930 . S
C600 C598 1.378 . S
C600 C601 1.367 . S
C601 C600 1.367 . S
C601 C603 1.433 . S
C602 C598 1.350 . S
C602 C599 1.463 . S
C602 N606 1.427 . S
C603 H593 0.929 . S
C603 C601 1.433 . S
C603 N606 1.384 . S
C604 H595 0.929 . S
C604 C596 1.378 . S
C604 C599 1.350 . S
C605 H592 0.929 . S
C605 C597 1.433 . S
C605 N607 1.384 . S
N606 C602 1.427 . S
N606 C603 1.384 . S
N607 C599 1.427 . S
N607 C605 1.384 . S
C183 C8 1.435 . S
C187 C93 1.390 . S
C201 C31 1.375 . S
C205 C104 1.320 . S
C219 C53 1.375 . S
C223 C114 1.324 . S
C241 C126 1.350 . S
C237 C74 1.370 . S
C259 C137 1.394 . S
C255 C26 1.433 . S
C273 C48 1.362 . S
C277 C148 1.362 . S
C291 C71 1.370 . S
C295 C158 1.318 . S
C309 C5 1.384 . S
C313 C170 1.305 . S
C327 C50 1.305 . S
C331 C169 1.276 . S
C349 C136 1.167 . S
C345 C70 1.210 . S
C367 C147 1.310 . S
C363 C4 1.334 1_556 S
C381 C28 1.373 . S
C385 C159 1.356 . S
C403 C103 1.278 . S
C399 C73 1.304 . S
C417 C7 1.380 . S
C421 C115 1.354 . S
C439 C125 1.300 . S
C435 C30 1.339 . S
C457 C92 1.165 . S
C453 C52 1.211 . S
C475 C164 1.430 . S
C471 C9 1.445 . S
C493 C175 1.431 . S
C489 C29 1.422 . S
C507 C51 1.372 . S
C511 C142 1.378 . S
C529 C153 1.373 . S
C525 C75 1.407 . S
C547 C120 1.432 . S
C543 C27 1.448 . S
C561 C49 1.406 . S
C565 C131 1.375 . S
C583 C98 1.374 . S
C579 C72 1.372 . S
C601 C109 1.427 . S
C597 C6 1.423 . S
