# Generated by pormake.
# Topology hwx, (6,3)-cn, num edge types: 1
# Building blocks:
#     Node 0, Type 0, BuildingBlock: OJICUG_clean_sbu_0, # of connection points: 6
#     Node 1, Type 0, BuildingBlock: OJICUG_clean_sbu_0, # of connection points: 6
#     Node 2, Type 0, BuildingBlock: OJICUG_clean_sbu_0, # of connection points: 6
#     Node 3, Type 0, BuildingBlock: OJICUG_clean_sbu_0, # of connection points: 6
#     Node 4, Type 1, BuildingBlock: MIDCAF_clean_linker_0, # of connection points: 3
#     Node 5, Type 1, BuildingBlock: MIDCAF_clean_linker_0, # of connection points: 3
#     Node 6, Type 1, BuildingBlock: MIDCAF_clean_linker_0, # of connection points: 3
#     Node 7, Type 1, BuildingBlock: MIDCAF_clean_linker_0, # of connection points: 3
#     Node 8, Type 1, BuildingBlock: MIDCAF_clean_linker_0, # of connection points: 3
#     Node 9, Type 1, BuildingBlock: MIDCAF_clean_linker_0, # of connection points: 3
#     Node 10, Type 1, BuildingBlock: MIDCAF_clean_linker_0, # of connection points: 3
#     Node 11, Type 1, BuildingBlock: MIDCAF_clean_linker_0, # of connection points: 3
#     Edge 12, Type (0, 1), BuildingBlock: UVAHIK_clean_linker_0, # of connection points: 2
#     Edge 13, Type (0, 1), BuildingBlock: UVAHIK_clean_linker_0, # of connection points: 2
#     Edge 14, Type (0, 1), BuildingBlock: UVAHIK_clean_linker_0, # of connection points: 2
#     Edge 15, Type (0, 1), BuildingBlock: UVAHIK_clean_linker_0, # of connection points: 2
#     Edge 16, Type (0, 1), BuildingBlock: UVAHIK_clean_linker_0, # of connection points: 2
#     Edge 17, Type (0, 1), BuildingBlock: UVAHIK_clean_linker_0, # of connection points: 2
#     Edge 18, Type (0, 1), BuildingBlock: UVAHIK_clean_linker_0, # of connection points: 2
#     Edge 19, Type (0, 1), BuildingBlock: UVAHIK_clean_linker_0, # of connection points: 2
#     Edge 20, Type (0, 1), BuildingBlock: UVAHIK_clean_linker_0, # of connection points: 2
#     Edge 21, Type (0, 1), BuildingBlock: UVAHIK_clean_linker_0, # of connection points: 2
#     Edge 22, Type (0, 1), BuildingBlock: UVAHIK_clean_linker_0, # of connection points: 2
#     Edge 23, Type (0, 1), BuildingBlock: UVAHIK_clean_linker_0, # of connection points: 2
#     Edge 24, Type (0, 1), BuildingBlock: UVAHIK_clean_linker_0, # of connection points: 2
#     Edge 25, Type (0, 1), BuildingBlock: UVAHIK_clean_linker_0, # of connection points: 2
#     Edge 26, Type (0, 1), BuildingBlock: UVAHIK_clean_linker_0, # of connection points: 2
#     Edge 27, Type (0, 1), BuildingBlock: UVAHIK_clean_linker_0, # of connection points: 2
#     Edge 28, Type (0, 1), BuildingBlock: UVAHIK_clean_linker_0, # of connection points: 2
#     Edge 29, Type (0, 1), BuildingBlock: UVAHIK_clean_linker_0, # of connection points: 2
#     Edge 30, Type (0, 1), BuildingBlock: UVAHIK_clean_linker_0, # of connection points: 2
#     Edge 31, Type (0, 1), BuildingBlock: UVAHIK_clean_linker_0, # of connection points: 2
#     Edge 32, Type (0, 1), BuildingBlock: UVAHIK_clean_linker_0, # of connection points: 2
#     Edge 33, Type (0, 1), BuildingBlock: UVAHIK_clean_linker_0, # of connection points: 2
#     Edge 34, Type (0, 1), BuildingBlock: UVAHIK_clean_linker_0, # of connection points: 2
#     Edge 35, Type (0, 1), BuildingBlock: UVAHIK_clean_linker_0, # of connection points: 2
# Relax obj value: 0.078
# Max RMSD: 0.103
# Mean RMSD: 0.095
data_MOF--net-hwx--node1-OJICUG_clean_sbu_0--node2-MIDCAF_clean_linker_0--edge1-UVAHIK_clean_linker_0
_symmetry_space_group_name_H-M    P1
_symmetry_Int_Tables_number       1
_symmetry_cell_setting            triclinic
loop_
_symmetry_equiv_pos_as_xyz
'x, y, z'
_cell_length_a     74.918514
_cell_length_b     74.893158
_cell_length_c     33.909485
_cell_angle_alpha  89.777235
_cell_angle_beta   90.098525
_cell_angle_gamma 89.991749
loop_
_atom_site_label
_atom_site_type_symbol
_atom_site_fract_x
_atom_site_fract_y
_atom_site_fract_z
_atom_type_partial_charge
Sc0 Sc 0.21653 0.21279 0.05669 0.0
Sc1 Sc 0.18565 0.1882 -0.00054 0.0
Sc2 Sc 0.21636 0.21742 0.95384 0.0
O3 O 0.20615 0.2061 0.00333 0.0
C4 C 0.21478 0.25046 0.01288 0.0
C5 C 0.17463 0.21067 0.07492 0.0
C6 C 0.17483 0.21675 0.93337 0.0
C7 C 0.21055 0.17101 0.06659 0.0
C8 C 0.25174 0.21139 0.00414 0.0
C9 C 0.21076 0.17683 0.92781 0.0
O10 O 0.21497 0.24105 0.0442 0.0
O11 O 0.1704 0.20157 0.0447 0.0
O12 O 0.19051 0.22293 0.92996 0.0
O13 O 0.219 0.18532 0.07395 0.0
O14 O 0.24358 0.21335 0.97159 0.0
O15 O 0.19896 0.17317 0.95364 0.0
O16 O 0.24375 0.21127 0.03712 0.0
O17 O 0.1977 0.17022 0.04205 0.0
O18 O 0.21778 0.1922 0.92439 0.0
O19 O 0.19063 0.21489 0.08313 0.0
O20 O 0.21566 0.24374 0.97859 0.0
O21 O 0.171 0.20392 0.95653 0.0
Sc22 Sc 0.28239 0.71648 0.44869 0.0
Sc23 Sc 0.31097 0.68685 0.4993 0.0
Sc24 Sc 0.27973 0.71272 0.55138 0.0
O25 O 0.29105 0.70531 0.49976 0.0
C26 C 0.28298 0.74986 0.50733 0.0
C27 C 0.32416 0.71515 0.43439 0.0
C28 C 0.32096 0.70909 0.57516 0.0
C29 C 0.28827 0.67565 0.42441 0.0
C30 C 0.24586 0.7116 0.49383 0.0
C31 C 0.28384 0.6711 0.56387 0.0
O32 O 0.28119 0.7429 0.4734 0.0
O33 O 0.32664 0.7015 0.45623 0.0
O34 O 0.30479 0.71305 0.58219 0.0
O35 O 0.28279 0.69146 0.418 0.0
O36 O 0.25308 0.71325 0.52755 0.0
O37 O 0.29778 0.67002 0.54255 0.0
O38 O 0.25481 0.71138 0.46207 0.0
O39 O 0.29783 0.67139 0.45404 0.0
O40 O 0.27501 0.68547 0.56795 0.0
O41 O 0.30902 0.72257 0.43037 0.0
O42 O 0.2837 0.74065 0.53886 0.0
O43 O 0.32581 0.70066 0.54451 0.0
Sc44 Sc 0.7806 0.77833 0.93857 0.0
Sc45 Sc 0.80797 0.80931 0.98855 0.0
Sc46 Sc 0.78009 0.77978 0.0417 0.0
O47 O 0.7896 0.78917 0.98961 0.0
C48 C 0.74489 0.77951 0.98824 0.0
C49 C 0.78266 0.81983 0.91648 0.0
C50 C 0.78079 0.82166 0.05616 0.0
C51 C 0.82213 0.78301 0.92129 0.0
C52 C 0.78512 0.7439 0.9938 0.0
C53 C 0.82114 0.78676 0.06262 0.0
O54 O 0.75312 0.78032 0.95562 0.0
O55 O 0.79363 0.82403 0.94357 0.0
O56 O 0.7743 0.80617 0.0616 0.0
O57 O 0.80716 0.77538 0.9164 0.0
O58 O 0.78525 0.7525 0.02603 0.0
O59 O 0.82437 0.7969 0.03335 0.0
O60 O 0.78267 0.75135 0.96047 0.0
O61 O 0.82441 0.79589 0.94521 0.0
O62 O 0.80581 0.78029 0.0696 0.0
O63 O 0.77739 0.80392 0.91095 0.0
O64 O 0.75289 0.77831 0.0212 0.0
O65 O 0.7935 0.8248 0.03217 0.0
Sc66 Sc 0.71346 0.28 0.55362 0.0
Sc67 Sc 0.68551 0.31147 0.50624 0.0
Sc68 Sc 0.71429 0.28388 0.45085 0.0
O69 O 0.70436 0.29182 0.50358 0.0
C70 C 0.74929 0.28288 0.50482 0.0
C71 C 0.71031 0.32085 0.57979 0.0
C72 C 0.71278 0.32602 0.44071 0.0
C73 C 0.67181 0.28337 0.57081 0.0
C74 C 0.70988 0.24683 0.49495 0.0
C75 C 0.67316 0.29044 0.42981 0.0
O76 O 0.74097 0.28304 0.53738 0.0
O77 O 0.69946 0.32551 0.55274 0.0
O78 O 0.71975 0.31086 0.43403 0.0
O79 O 0.68691 0.27588 0.57495 0.0
O80 O 0.7095 0.25613 0.46353 0.0
O81 O 0.66943 0.29961 0.46016 0.0
O82 O 0.71217 0.2536 0.52892 0.0
O83 O 0.66931 0.29677 0.54822 0.0
O84 O 0.68874 0.28471 0.42254 0.0
O85 O 0.71583 0.30492 0.58387 0.0
O86 O 0.74138 0.28219 0.47172 0.0
O87 O 0.69975 0.32823 0.46436 0.0
C88 C 0.20956 0.5644 0.1004 0.0
C89 C 0.21688 0.5564 0.1344 0.0
C90 C 0.21896 0.53772 0.13524 0.0
C91 C 0.21452 0.52744 0.10232 0.0
H92 H 0.18814 0.47875 0.06271 0.0
H93 H 0.18501 0.44652 0.06864 0.0
H94 H 0.20305 0.44046 0.94841 0.0
H95 H 0.20561 0.47268 0.94203 0.0
H96 H 0.19756 0.51379 0.8875 0.0
H97 H 0.20691 0.52751 0.82486 0.0
H98 H 0.23987 0.56479 0.88863 0.0
H99 H 0.2303 0.55159 0.95095 0.0
H100 H 0.20043 0.56083 0.04113 0.0
H101 H 0.20723 0.57866 0.099 0.0
H102 H 0.2247 0.53106 0.16066 0.0
H103 H 0.21684 0.51316 0.10337 0.0
N104 N 0.20176 0.50759 0.03298 0.0
N105 N 0.20387 0.50571 0.96403 0.0
N106 N 0.20907 0.53297 0.99578 0.0
C107 C 0.20061 0.49776 -0.00054 0.0
C108 C 0.20811 0.52332 0.96205 0.0
C109 C 0.20583 0.52523 0.03127 0.0
C110 C 0.19725 0.47832 0.00197 0.0
C111 C 0.19129 0.47056 0.0374 0.0
C112 C 0.18958 0.45205 0.04089 0.0
C113 C 0.19393 0.44086 0.00915 0.0
C114 C 0.19937 0.44867 0.97333 0.0
C115 C 0.20093 0.46718 0.96972 0.0
C116 C 0.21316 0.53166 0.9241 0.0
C117 C 0.20673 0.52496 0.88806 0.0
C118 C 0.21203 0.53278 0.85235 0.0
C119 C 0.22415 0.54706 0.85225 0.0
C120 C 0.23058 0.5537 0.88814 0.0
C121 C 0.225 0.54621 0.92373 0.0
C122 C 0.20824 0.53566 0.06769 0.0
C123 C 0.20551 0.55418 0.06727 0.0
C124 C 0.93517 0.7115 0.60908 0.0
C125 C 0.94525 0.71409 0.64356 0.0
C126 C 0.9639 0.71233 0.64182 0.0
C127 C 0.97233 0.70853 0.60607 0.0
H128 H 0.01982 0.68976 0.55449 0.0
H129 H 0.05216 0.68696 0.55252 0.0
H130 H 0.05205 0.7043 0.43079 0.0
H131 H 0.0197 0.70654 0.4323 0.0
H132 H 0.98331 0.71933 0.39307 0.0
H133 H 0.96633 0.72942 0.33595 0.0
H134 H 0.91738 0.71333 0.3934 0.0
H135 H 0.93432 0.70403 0.45118 0.0
H136 H 0.9354 0.70637 0.54717 0.0
H137 H 0.92078 0.71294 0.6094 0.0
H138 H 0.97198 0.71409 0.66804 0.0
H139 H 0.98675 0.70766 0.6056 0.0
N140 N 0.98908 0.70152 0.53068 0.0
N141 N 0.9881 0.70392 0.46172 0.0
N142 N 0.96191 0.70716 0.49869 0.0
C143 C 0.99758 0.70105 0.49533 0.0
C144 C 0.97023 0.70685 0.46317 0.0
C145 C 0.97124 0.70456 0.5326 0.0
C146 C 0.01715 0.69847 0.49362 0.0
C147 C 0.02667 0.69287 0.52721 0.0
C148 C 0.04524 0.69135 0.52615 0.0
C149 C 0.05473 0.69552 0.49158 0.0
C150 C 0.04516 0.70075 0.45776 0.0
C151 C 0.02659 0.70213 0.45871 0.0
C152 C 0.96013 0.71107 0.42682 0.0
C153 C 0.96893 0.7178 0.39334 0.0
C154 C 0.95918 0.72351 0.36046 0.0
C155 C 0.94044 0.7224 0.36013 0.0
C156 C 0.93176 0.71485 0.39297 0.0
C157 C 0.94147 0.7094 0.42604 0.0
C158 C 0.96228 0.70661 0.57124 0.0
C159 C 0.94358 0.70784 0.57332 0.0
C160 C 0.78647 0.43018 0.90554 0.0
C161 C 0.78456 0.43899 0.86911 0.0
C162 C 0.78763 0.45749 0.86721 0.0
C163 C 0.79207 0.46703 0.90124 0.0
H164 H 0.80749 0.51718 0.94273 0.0
H165 H 0.80893 0.54977 0.94091 0.0
H166 H 0.80221 0.55135 0.06725 0.0
H167 H 0.80072 0.51898 0.0694 0.0
H168 H 0.79129 0.4856 0.11622 0.0
H169 H 0.78324 0.47142 0.17848 0.0
H170 H 0.78365 0.41986 0.12193 0.0
H171 H 0.79181 0.43392 0.05964 0.0
H172 H 0.7918 0.43244 0.96713 0.0
H173 H 0.78398 0.41598 0.90816 0.0
H174 H 0.78643 0.46461 0.83947 0.0
H175 H 0.79399 0.48132 0.89888 0.0
N176 N 0.79975 0.48628 0.97349 0.0
N177 N 0.7991 0.48741 0.04255 0.0
N178 N 0.79432 0.46027 0.0103 0.0
C179 C 0.80125 0.49582 0.00735 0.0
C180 C 0.79569 0.46965 0.04433 0.0
C181 C 0.79635 0.46846 0.97475 0.0
C182 C 0.8038 0.51542 0.00615 0.0
C183 C 0.80647 0.52445 0.97018 0.0
C184 C 0.80739 0.5431 0.9691 0.0
C185 C 0.8055 0.55303 0.00389 0.0
C186 C 0.80345 0.544 0.03993 0.0
C187 C 0.80267 0.52542 0.04109 0.0
C188 C 0.79213 0.46092 0.08279 0.0
C189 C 0.78984 0.47122 0.11704 0.0
C190 C 0.78512 0.46313 0.1527 0.0
C191 C 0.78275 0.44457 0.15499 0.0
C192 C 0.78553 0.4342 0.1211 0.0
C193 C 0.79012 0.44229 0.08536 0.0
C194 C 0.7934 0.45826 0.93792 0.0
C195 C 0.79084 0.43968 0.93949 0.0
C196 C 0.06267 0.29471 0.39015 0.0
C197 C 0.05482 0.28528 0.35875 0.0
C198 C 0.03657 0.28093 0.36105 0.0
C199 C 0.02668 0.28516 0.39467 0.0
H200 H 0.97533 0.30363 0.43857 0.0
H201 H 0.94276 0.30293 0.43975 0.0
H202 H 0.94397 0.29064 0.56422 0.0
H203 H 0.97645 0.29127 0.56331 0.0
H204 H 0.01227 0.29051 0.60846 0.0
H205 H 0.02892 0.28445 0.66887 0.0
H206 H 0.07845 0.29007 0.60502 0.0
H207 H 0.06194 0.29634 0.54477 0.0
H208 H 0.05949 0.30535 0.44817 0.0
H209 H 0.07653 0.29877 0.389 0.0
H210 H 0.03008 0.27354 0.3377 0.0
H211 H 0.01284 0.28103 0.39616 0.0
N212 N 0.00715 0.29651 0.46517 0.0
N213 N 0.00763 0.29661 0.53434 0.0
N214 N 0.03444 0.29536 0.49908 0.0
C215 C -0.00174 0.29714 0.50004 0.0
C216 C 0.02572 0.29577 0.53414 0.0
C217 C 0.02525 0.29571 0.46453 0.0
C218 C 0.97852 0.29744 0.5008 0.0
C219 C 0.96867 0.30083 0.46623 0.0
C220 C 0.95003 0.30053 0.4669 0.0
C221 C 0.9409 0.29666 0.50204 0.0
C222 C 0.95071 0.29347 0.53665 0.0
C223 C 0.96931 0.29394 0.53611 0.0
C224 C 0.03575 0.2938 0.5716 0.0
C225 C 0.02672 0.29068 0.60732 0.0
C226 C 0.03623 0.2871 0.64194 0.0
C227 C 0.05497 0.2867 0.64164 0.0
C228 C 0.06401 0.29045 0.60629 0.0
C229 C 0.05452 0.29393 0.57165 0.0
C230 C 0.0349 0.29357 0.42692 0.0
C231 C 0.05288 0.29862 0.42399 0.0
C232 C 0.71186 0.93333 0.38341 0.0
C233 C 0.71559 0.94253 0.34818 0.0
C234 C 0.71492 0.96126 0.34786 0.0
C235 C 0.71082 0.97062 0.38225 0.0
H236 H 0.7029 0.0205 0.42425 0.0
H237 H 0.70075 0.05287 0.42242 0.0
H238 H 0.68966 0.05353 0.54731 0.0
H239 H 0.6917 0.02101 0.54941 0.0
H240 H 0.70742 0.98579 0.59847 0.0
H241 H 0.7132 0.96954 0.65984 0.0
H242 H 0.70885 0.91958 0.59732 0.0
H243 H 0.70286 0.93562 0.5365 0.0
H244 H 0.70537 0.93513 0.44455 0.0
H245 H 0.71248 0.91889 0.38466 0.0
H246 H 0.7176 0.96868 0.32102 0.0
H247 H 0.71063 0.98508 0.38111 0.0
N248 N 0.70182 0.98922 0.45426 0.0
N249 N 0.70041 0.98961 0.52338 0.0
N250 N 0.70488 0.96262 0.49002 0.0
C251 C 0.69973 -0.00153 0.48832 0.0
C252 C 0.70295 0.97165 0.52441 0.0
C253 C 0.70435 0.97129 0.45484 0.0
C254 C 0.69757 0.01811 0.48706 0.0
C255 C 0.69989 0.02746 0.45137 0.0
C256 C 0.69875 0.04603 0.45028 0.0
C257 C 0.69514 0.05568 0.48474 0.0
C258 C 0.69235 0.04638 0.52025 0.0
C259 C 0.69363 0.02777 0.52145 0.0
C260 C 0.70479 0.96202 0.56245 0.0
C261 C 0.70745 0.97134 0.59795 0.0
C262 C 0.71086 0.96205 0.63307 0.0
C263 C 0.7115 0.94329 0.63342 0.0
C264 C 0.70823 0.93403 0.59819 0.0
C265 C 0.70493 0.94326 0.56318 0.0
C266 C 0.70749 0.96142 0.41775 0.0
C267 C 0.7079 0.94266 0.41781 0.0
C268 C 0.56191 0.20874 0.88616 0.0
C269 C 0.55177 0.21089 0.85157 0.0
C270 C 0.53321 0.20842 0.85326 0.0
C271 C 0.52489 0.2044 0.88907 0.0
H272 H 0.47809 0.18419 0.9407 0.0
H273 H 0.44574 0.18146 0.94117 0.0
H274 H 0.44457 0.20051 0.06131 0.0
H275 H 0.47694 0.2027 0.06132 0.0
H276 H 0.51325 0.21653 0.101 0.0
H277 H 0.52999 0.22708 0.158 0.0
H278 H 0.57916 0.21051 0.10246 0.0
H279 H 0.5625 0.20076 0.04489 0.0
H280 H 0.5618 0.20376 0.94824 0.0
H281 H 0.57624 0.21071 0.88583 0.0
H282 H 0.52509 0.20983 0.82697 0.0
H283 H 0.5105 0.20299 0.88947 0.0
N284 N 0.50825 0.19724 0.96441 0.0
N285 N 0.50889 0.20003 0.03326 0.0
N286 N 0.53514 0.20375 0.99658 0.0
C287 C 0.49962 0.19673 -0.0004 0.0
C288 C 0.52669 0.2034 0.03197 0.0
C289 C 0.526 0.20075 0.96263 0.0
C290 C 0.48011 0.19381 0.00087 0.0
C291 C 0.47096 0.18767 0.96734 0.0
C292 C 0.45239 0.18617 0.96754 0.0
C293 C 0.44254 0.19092 0.00114 0.0
C294 C 0.45174 0.19653 0.03507 0.0
C295 C 0.47033 0.19788 0.035 0.0
C296 C 0.53658 0.208 0.06828 0.0
C297 C 0.52763 0.21501 0.10116 0.0
C298 C 0.53723 0.221 0.13393 0.0
C299 C 0.55597 0.21989 0.1347 0.0
C300 C 0.56479 0.21207 0.10248 0.0
C301 C 0.55523 0.20635 0.06954 0.0
C302 C 0.53496 0.20295 0.92401 0.0
C303 C 0.55361 0.20486 0.92199 0.0
C304 C 0.27455 0.06204 0.59984 0.0
C305 C 0.27381 0.0536 0.63686 0.0
C306 C 0.27711 0.03516 0.63937 0.0
C307 C 0.28095 0.02534 0.60539 0.0
H308 H 0.29203 0.97479 0.56458 0.0
H309 H 0.29675 0.94273 0.56659 0.0
H310 H 0.30998 0.94329 0.44254 0.0
H311 H 0.30461 0.97533 0.44019 0.0
H312 H 0.29555 0.01345 0.38856 0.0
H313 H 0.2861 0.02679 0.32556 0.0
H314 H 0.24869 0.06032 0.38734 0.0
H315 H 0.2583 0.04748 0.45004 0.0
H316 H 0.27849 0.05922 0.53791 0.0
H317 H 0.27183 0.07619 0.59687 0.0
H318 H 0.27671 0.02835 0.66759 0.0
H319 H 0.28327 0.01112 0.6082 0.0
N320 N 0.29021 0.00625 0.53347 0.0
N321 N 0.28905 0.00442 0.46437 0.0
N322 N 0.28073 0.03086 0.49613 0.0
C323 C 0.29265 0.99669 0.49988 0.0
C324 C 0.28301 0.02149 0.46236 0.0
C325 C 0.28442 0.02342 0.53176 0.0
C326 C 0.29771 0.97761 0.50209 0.0
C327 C 0.29615 0.96814 0.5378 0.0
C328 C 0.29897 0.94972 0.53901 0.0
C329 C 0.30359 0.94036 0.50464 0.0
C330 C 0.30604 0.95 0.46938 0.0
C331 C 0.30304 0.9684 0.46807 0.0
C332 C 0.2777 0.02947 0.4242 0.0
C333 C 0.28534 0.02369 0.38861 0.0
C334 C 0.27999 0.03129 0.35269 0.0
C335 C 0.26661 0.04442 0.35185 0.0
C336 C 0.25892 0.05009 0.38733 0.0
C337 C 0.26453 0.04282 0.42317 0.0
C338 C 0.28135 0.03377 0.56823 0.0
C339 C 0.27824 0.05225 0.56596 0.0
C340 C 0.43465 0.79015 0.11907 0.0
C341 C 0.44492 0.78664 0.15293 0.0
C342 C 0.4636 0.7877 0.1504 0.0
C343 C 0.47186 0.79164 0.11446 0.0
H344 H 0.52043 0.80558 0.06199 0.0
H345 H 0.55293 0.80504 0.05801 0.0
H346 H 0.54961 0.79325 0.93368 0.0
H347 H 0.51718 0.79368 0.9374 0.0
H348 H 0.48008 0.78282 0.90085 0.0
H349 H 0.46207 0.77458 0.84409 0.0
H350 H 0.41479 0.7936 0.90368 0.0
H351 H 0.43273 0.80102 0.9612 0.0
H352 H 0.43452 0.79613 0.05744 0.0
H353 H 0.42022 0.78927 0.11997 0.0
H354 H 0.47185 0.78525 0.17613 0.0
H355 H 0.4863 0.79192 0.11338 0.0
N356 N 0.48829 0.79825 0.03855 0.0
N357 N 0.48645 0.79705 0.96958 0.0
N358 N 0.46046 0.79517 0.00766 0.0
C359 C 0.49646 0.79864 0.0028 0.0
C360 C 0.46844 0.79544 0.97176 0.0
C361 C 0.47028 0.79654 0.04123 0.0
C362 C 0.51616 0.79955 8e-05 0.0
C363 C 0.5266 0.80297 0.03373 0.0
C364 C 0.54522 0.80277 0.03145 0.0
C365 C 0.55374 0.79899 0.99559 0.0
C366 C 0.54335 0.79598 0.9618 0.0
C367 C 0.52476 0.79633 0.96396 0.0
C368 C 0.45779 0.7924 0.93568 0.0
C369 C 0.46586 0.78541 0.90168 0.0
C370 C 0.45552 0.78076 0.86898 0.0
C371 C 0.43691 0.78323 0.86932 0.0
C372 C 0.42901 0.79105 0.9027 0.0
C373 C 0.4393 0.79543 0.93563 0.0
C374 C 0.46159 0.79444 0.0802 0.0
C375 C 0.44288 0.79398 0.08312 0.0
C376 C 0.14274 0.21924 0.08845 0.0
C377 C 0.16048 0.21734 0.10142 0.0
C378 C 0.12995 0.22725 0.1128 0.0
C379 C 0.12728 0.25745 0.19883 0.0
H380 H 0.07891 0.23969 0.20968 0.0
C381 C 0.08357 0.27332 0.33192 0.0
C382 C 0.06593 0.279 0.32518 0.0
C383 C 0.09402 0.26699 0.30105 0.0
C384 C 0.09232 0.24492 0.20645 0.0
H385 H 0.17846 0.22139 0.15085 0.0
H386 H 0.15624 0.23479 0.1933 0.0
H387 H 0.09921 0.22563 0.16245 0.0
H388 H 0.0455 0.28241 0.28022 0.0
H389 H 0.06377 0.27073 0.22632 0.0
H390 H 0.12064 0.27626 0.24378 0.0
C391 C 0.15225 0.23073 0.16396 0.0
C392 C 0.10392 0.23689 0.17946 0.0
C393 C 0.16498 0.22291 0.13967 0.0
C394 C 0.05896 0.27799 0.28663 0.0
C395 C 0.06939 0.27137 0.25573 0.0
C396 C 0.11579 0.26531 0.22593 0.0
C397 C 0.1347 0.23339 0.15056 0.0
C398 C 0.12168 0.24281 0.17609 0.0
C399 C 0.08704 0.26591 0.26273 0.0
C400 C 0.09834 0.25888 0.23061 0.0
H401 H 0.13888 0.21511 0.05907 0.0
H402 H 0.11653 0.22912 0.10161 0.0
H403 H 0.14071 0.26267 0.19617 0.0
H404 H 0.08928 0.27337 0.36127 0.0
H405 H 0.1075 0.26256 0.30734 0.0
C406 C 0.28979 0.64131 0.59526 0.0
C407 C 0.27779 0.65511 0.58582 0.0
C408 C 0.28432 0.62692 0.61871 0.0
C409 C 0.24527 0.60217 0.65462 0.0
H410 H 0.27346 0.59451 0.74912 0.0
C411 C 0.21811 0.56408 0.79022 0.0
C412 C 0.23024 0.55524 0.81502 0.0
C413 C 0.22426 0.57388 0.75777 0.0
C414 C 0.2656 0.59608 0.72251 0.0
H415 H 0.25043 0.66422 0.5919 0.0
H416 H 0.24086 0.63895 0.63231 0.0
H417 H 0.2837 0.61561 0.69952 0.0
H418 H 0.25801 0.54865 0.82459 0.0
H419 H 0.26877 0.56493 0.76691 0.0
H420 H 0.22719 0.58259 0.67736 0.0
C421 C 0.2545 0.63934 0.62179 0.0
C422 C 0.27148 0.60827 0.69416 0.0
C423 C 0.26003 0.65386 0.59893 0.0
C424 C 0.24847 0.55552 0.80588 0.0
C425 C 0.2546 0.56499 0.77306 0.0
C426 C 0.23951 0.58973 0.68272 0.0
C427 C 0.26667 0.62592 0.6325 0.0
C428 C 0.26123 0.61165 0.66029 0.0
C429 C 0.24265 0.57476 0.74921 0.0
C430 C 0.24945 0.58674 0.71741 0.0
H431 H 0.30356 0.6419 0.58562 0.0
H432 H 0.29393 0.61668 0.62649 0.0
H433 H 0.2372 0.60447 0.62855 0.0
H434 H 0.20399 0.56412 0.79703 0.0
H435 H 0.21465 0.58137 0.74053 0.0
C436 C 0.85349 0.78121 0.07782 0.0
C437 C 0.83566 0.78237 0.09044 0.0
C438 C 0.86694 0.77616 0.10436 0.0
C439 C 0.87851 0.77588 0.20835 0.0
H440 H 0.90519 0.73243 0.18888 0.0
C441 C 0.91372 0.73879 0.33391 0.0
C442 C 0.92992 0.72992 0.32671 0.0
C443 C 0.90393 0.74625 0.30299 0.0
C444 C 0.89816 0.74479 0.19451 0.0
H445 H 0.81799 0.7797 0.14073 0.0
H446 H 0.8415 0.77142 0.18709 0.0
H447 H 0.88546 0.74441 0.13771 0.0
H448 H 0.94842 0.72187 0.28089 0.0
H449 H 0.93165 0.73553 0.22701 0.0
H450 H 0.8911 0.77651 0.26483 0.0
C451 C 0.84503 0.77419 0.1567 0.0
C452 C 0.88685 0.75159 0.16521 0.0
C453 C 0.83159 0.77883 0.13013 0.0
C454 C 0.9361 0.72876 0.28763 0.0
C455 C 0.92637 0.73642 0.25663 0.0
C456 C 0.88999 0.76927 0.23735 0.0
C457 C 0.86277 0.77267 0.14401 0.0
C458 C 0.87661 0.76692 0.17236 0.0
C459 C 0.91017 0.7453 0.26397 0.0
C460 C 0.89956 0.75335 0.23129 0.0
H461 H 0.85695 0.78379 0.04732 0.0
H462 H 0.88056 0.77504 0.09403 0.0
H463 H 0.87084 0.78784 0.2143 0.0
H464 H 0.90865 0.74025 0.36361 0.0
H465 H 0.89135 0.75264 0.30978 0.0
C466 C 0.71105 0.35213 0.60724 0.0
C467 C 0.71734 0.33442 0.60752 0.0
C468 C 0.71795 0.36467 0.63378 0.0
C469 C 0.74202 0.36706 0.72892 0.0
H470 H 0.7541 0.4153 0.6967 0.0
C471 C 0.78491 0.41161 0.82692 0.0
C472 C 0.77845 0.42892 0.83398 0.0
C473 C 0.77759 0.40121 0.79695 0.0
C474 C 0.75065 0.4019 0.70611 0.0
H475 H 0.73617 0.31622 0.63542 0.0
H476 H 0.74819 0.33795 0.68078 0.0
H477 H 0.74023 0.39494 0.64924 0.0
H478 H 0.7598 0.44918 0.81387 0.0
H479 H 0.74712 0.43098 0.76108 0.0
H480 H 0.75259 0.37383 0.78546 0.0
C481 C 0.73767 0.34211 0.66081 0.0
C482 C 0.74267 0.39028 0.67904 0.0
C483 C 0.73079 0.32964 0.63455 0.0
C484 C 0.76516 0.43594 0.80899 0.0
C485 C 0.75787 0.42552 0.77883 0.0
C486 C 0.75005 0.37858 0.75575 0.0
C487 C 0.73126 0.35972 0.66105 0.0
C488 C 0.73851 0.37264 0.69006 0.0
C489 C 0.7637 0.40789 0.77325 0.0
C490 C 0.75469 0.39603 0.74453 0.0
H491 H 0.70073 0.35627 0.58674 0.0
H492 H 0.71269 0.37814 0.63339 0.0
H493 H 0.73859 0.3537 0.73866 0.0
H494 H 0.79539 0.40596 0.84512 0.0
H495 H 0.78261 0.38778 0.79275 0.0
C496 C 0.64135 0.28249 0.41397 0.0
C497 C 0.65896 0.28567 0.40156 0.0
C498 C 0.62872 0.27567 0.38744 0.0
C499 C 0.62728 0.25062 0.29354 0.0
H500 H 0.57746 0.26461 0.28986 0.0
C501 C 0.58279 0.23604 0.16077 0.0
C502 C 0.56641 0.22747 0.16805 0.0
C503 C 0.59288 0.2429 0.19172 0.0
C504 C 0.59132 0.26049 0.29095 0.0
H505 H 0.67682 0.28556 0.35133 0.0
H506 H 0.6548 0.27443 0.30507 0.0
H507 H 0.59733 0.27786 0.33936 0.0
H508 H 0.54769 0.21978 0.21393 0.0
H509 H 0.56528 0.23233 0.2681 0.0
H510 H 0.62144 0.23374 0.24448 0.0
C511 C 0.65083 0.2764 0.33543 0.0
C512 C 0.60267 0.26802 0.31924 0.0
C513 C 0.66343 0.28292 0.36188 0.0
C514 C 0.56016 0.22641 0.20716 0.0
C515 C 0.57021 0.23354 0.23819 0.0
C516 C 0.61603 0.2433 0.26516 0.0
C517 C 0.63348 0.27214 0.34809 0.0
C518 C 0.62088 0.26342 0.32028 0.0
C519 C 0.58676 0.24162 0.23069 0.0
C520 C 0.59805 0.24838 0.26316 0.0
H521 H 0.63759 0.28446 0.44447 0.0
H522 H 0.61547 0.27253 0.39812 0.0
H523 H 0.64108 0.24632 0.29426 0.0
H524 H 0.5878 0.23761 0.13103 0.0
H525 H 0.60549 0.24935 0.18516 0.0
C526 C 0.2094 0.14547 0.90104 0.0
C527 C 0.21689 0.16271 0.90046 0.0
C528 C 0.21533 0.13242 0.87461 0.0
C529 C 0.23804 0.12828 0.77876 0.0
H530 H 0.24786 0.07951 0.81103 0.0
C531 C 0.27622 0.08118 0.6778 0.0
C532 C 0.26895 0.0641 0.67221 0.0
C533 C 0.2701 0.09206 0.70816 0.0
C534 C 0.24502 0.09305 0.80159 0.0
H535 H 0.23682 0.17951 0.87216 0.0
H536 H 0.2471 0.15688 0.82683 0.0
H537 H 0.23593 0.10079 0.85903 0.0
H538 H 0.25016 0.04467 0.69516 0.0
H539 H 0.23942 0.06377 0.7485 0.0
H540 H 0.24716 0.12073 0.72159 0.0
C541 C 0.23644 0.1535 0.84709 0.0
C542 C 0.23817 0.1052 0.82899 0.0
C543 C 0.23056 0.16648 0.87331 0.0
C544 C 0.25607 0.05775 0.69892 0.0
C545 C 0.24992 0.06867 0.72939 0.0
C546 C 0.2449 0.11622 0.75156 0.0
C547 C 0.2288 0.13639 0.84711 0.0
C548 C 0.23487 0.12301 0.81793 0.0
C549 C 0.25654 0.08612 0.73361 0.0
C550 C 0.24872 0.09856 0.76277 0.0
H551 H 0.19889 0.14209 0.92164 0.0
H552 H 0.20915 0.11935 0.87519 0.0
H553 H 0.23525 0.1418 0.76908 0.0
H554 H 0.28642 0.08629 0.65815 0.0
H555 H 0.27576 0.10529 0.71128 0.0
C556 C 0.35598 0.71406 0.41063 0.0
C557 C 0.33943 0.7229 0.41247 0.0
C558 C 0.37007 0.72132 0.38872 0.0
C559 C 0.38573 0.76349 0.34272 0.0
H560 H 0.41018 0.73239 0.26936 0.0
C561 C 0.42037 0.78928 0.20271 0.0
C562 C 0.4361 0.78091 0.19001 0.0
C563 C 0.4111 0.78276 0.23542 0.0
C564 C 0.40374 0.74122 0.29019 0.0
H565 H 0.32493 0.74654 0.39342 0.0
H566 H 0.34929 0.759 0.35528 0.0
H567 H 0.38935 0.71967 0.31695 0.0
H568 H 0.45474 0.75942 0.20229 0.0
H569 H 0.43863 0.74814 0.25978 0.0
H570 H 0.39972 0.7851 0.31519 0.0
C571 C 0.35149 0.74656 0.37098 0.0
C572 C 0.3918 0.73391 0.31747 0.0
C573 C 0.33743 0.7393 0.3926 0.0
C574 C 0.44272 0.76624 0.21155 0.0
C575 C 0.4334 0.75968 0.24421 0.0
C576 C 0.39765 0.77079 0.31547 0.0
C577 C 0.36792 0.73763 0.36855 0.0
C578 C 0.38233 0.74503 0.34334 0.0
C579 C 0.41734 0.7677 0.25612 0.0
C580 C 0.40646 0.75978 0.28827 0.0
H581 H 0.358 0.70143 0.42565 0.0
H582 H 0.38263 0.71419 0.38755 0.0
H583 H 0.37887 0.77236 0.36281 0.0
H584 H 0.41504 0.8007 0.18692 0.0
H585 H 0.39868 0.78915 0.24357 0.0
C586 C 0.78252 0.85124 0.88952 0.0
C587 C 0.77517 0.83396 0.89061 0.0
C588 C 0.77535 0.8643 0.86439 0.0
C589 C 0.74772 0.86841 0.77429 0.0
H590 H 0.74222 0.91786 0.80559 0.0
C591 C 0.70799 0.91713 0.67894 0.0
C592 C 0.7166 0.93325 0.66951 0.0
C593 C 0.71445 0.90626 0.70925 0.0
C594 C 0.74378 0.9041 0.79647 0.0
H595 H 0.75408 0.81711 0.86723 0.0
H596 H 0.74152 0.8398 0.82438 0.0
H597 H 0.75541 0.89631 0.85176 0.0
H598 H 0.73815 0.95109 0.68595 0.0
H599 H 0.74937 0.93208 0.7393 0.0
H600 H 0.73602 0.87606 0.7193 0.0
C601 C 0.75311 0.84319 0.84197 0.0
C602 C 0.75138 0.89179 0.82278 0.0
C603 C 0.7603 0.83017 0.86673 0.0
C604 C 0.73116 0.9388 0.69268 0.0
C605 C 0.7376 0.92791 0.72317 0.0
C606 C 0.74005 0.88063 0.74826 0.0
C607 C 0.76065 0.86034 0.84006 0.0
C608 C 0.75328 0.87376 0.81205 0.0
C609 C 0.72964 0.91129 0.73089 0.0
C610 C 0.73784 0.89856 0.75914 0.0
H611 H 0.79395 0.8546 0.90761 0.0
H612 H 0.78154 0.87736 0.86342 0.0
H613 H 0.7494 0.85474 0.76466 0.0
H614 H 0.69653 0.91267 0.66214 0.0
H615 H 0.70782 0.89368 0.71513 0.0
C616 C 0.8542 0.78475 0.89909 0.0
C617 C 0.83756 0.77605 0.89873 0.0
C618 C 0.8686 0.77784 0.87769 0.0
C619 C 0.88465 0.73623 0.83105 0.0
H620 H 0.91079 0.76771 0.76089 0.0
C621 C 0.92022 0.71146 0.69213 0.0
C622 C 0.93629 0.71956 0.68056 0.0
C623 C 0.91083 0.71778 0.72472 0.0
C624 C 0.90387 0.75877 0.78088 0.0
H625 H 0.82314 0.75312 0.87583 0.0
H626 H 0.84803 0.74129 0.83871 0.0
H627 H 0.8894 0.78027 0.80738 0.0
H628 H 0.9554 0.74033 0.69472 0.0
H629 H 0.93903 0.7513 0.75201 0.0
H630 H 0.89869 0.71469 0.80379 0.0
C631 C 0.85006 0.75333 0.85577 0.0
C632 C 0.89162 0.76598 0.80749 0.0
C633 C 0.83571 0.76025 0.8768 0.0
C634 C 0.94311 0.73373 0.70311 0.0
C635 C 0.93366 0.74013 0.73566 0.0
C636 C 0.89688 0.72903 0.8045 0.0
C637 C 0.86665 0.76201 0.85593 0.0
C638 C 0.88151 0.75473 0.83202 0.0
C639 C 0.91728 0.73239 0.74642 0.0
C640 C 0.90626 0.74018 0.77836 0.0
H641 H 0.8561 0.79692 0.91573 0.0
H642 H 0.88127 0.78479 0.87839 0.0
H643 H 0.87729 0.72726 0.85017 0.0
H644 H 0.91473 0.70041 0.67552 0.0
H645 H 0.89816 0.71165 0.73197 0.0
C646 C 0.71145 0.35815 0.41851 0.0
C647 C 0.72037 0.34163 0.41967 0.0
C648 C 0.71851 0.37245 0.39683 0.0
C649 C 0.76025 0.38839 0.34951 0.0
H650 H 0.72856 0.41205 0.27541 0.0
C651 C 0.78467 0.42009 0.20531 0.0
C652 C 0.77677 0.43604 0.19218 0.0
C653 C 0.77827 0.41143 0.23894 0.0
C654 C 0.73754 0.40583 0.29644 0.0
H655 H 0.74402 0.32742 0.40004 0.0
H656 H 0.7561 0.35211 0.36236 0.0
H657 H 0.71621 0.3918 0.32487 0.0
H658 H 0.75617 0.45561 0.20425 0.0
H659 H 0.74498 0.44043 0.26321 0.0
H660 H 0.78164 0.40187 0.32009 0.0
C661 C 0.74376 0.35414 0.37833 0.0
C662 C 0.73046 0.39426 0.3248 0.0
C663 C 0.7367 0.3399 0.39965 0.0
C664 C 0.7626 0.44339 0.21388 0.0
C665 C 0.75611 0.43465 0.2474 0.0
C666 C 0.76732 0.39991 0.32113 0.0
C667 C 0.73471 0.37053 0.37634 0.0
C668 C 0.7418 0.385 0.35084 0.0
C669 C 0.76377 0.41848 0.26004 0.0
C670 C 0.75609 0.40835 0.29358 0.0
H671 H 0.69887 0.35994 0.43367 0.0
H672 H 0.71129 0.38497 0.39593 0.0
H673 H 0.76929 0.38171 0.3697 0.0
H674 H 0.7957 0.41421 0.18934 0.0
H675 H 0.78432 0.39888 0.24767 0.0
C676 C 0.144 0.21658 0.90357 0.0
C677 C 0.16067 0.2249 0.90864 0.0
C678 C 0.13128 0.22395 0.87791 0.0
C679 C 0.12877 0.25346 0.79109 0.0
H680 H 0.07807 0.25548 0.81345 0.0
C681 C 0.08095 0.29041 0.68752 0.0
C682 C 0.06515 0.28144 0.67738 0.0
C683 C 0.0915 0.28432 0.71873 0.0
C684 C 0.09219 0.25489 0.80674 0.0
H685 H 0.17663 0.248 0.89239 0.0
H686 H 0.15452 0.26081 0.84838 0.0
H687 H 0.09857 0.24291 0.8626 0.0
H688 H 0.04772 0.25937 0.69278 0.0
H689 H 0.06621 0.24868 0.74729 0.0
H690 H 0.12254 0.26524 0.73532 0.0
C691 C 0.1514 0.24839 0.86334 0.0
C692 C 0.1039 0.24767 0.83482 0.0
C693 C 0.16407 0.24104 0.88872 0.0
C694 C 0.05975 0.26667 0.70014 0.0
C695 C 0.07033 0.26054 0.73136 0.0
C696 C 0.11713 0.26065 0.76317 0.0
C697 C 0.13502 0.23977 0.85699 0.0
C698 C 0.12233 0.24701 0.82734 0.0
C699 C 0.08652 0.26908 0.74043 0.0
C700 C 0.09873 0.26155 0.77072 0.0
H701 H 0.14095 0.20416 0.91855 0.0
H702 H 0.11878 0.21697 0.87349 0.0
H703 H 0.14285 0.25277 0.78404 0.0
H704 H 0.08529 0.30201 0.67094 0.0
H705 H 0.10372 0.29141 0.72554 0.0
C706 C 0.28007 0.64393 0.40886 0.0
C707 C 0.2825 0.6617 0.39652 0.0
C708 C 0.27258 0.63137 0.38318 0.0
C709 C 0.24502 0.6296 0.29217 0.0
H710 H 0.2605 0.58025 0.2872 0.0
C711 C 0.23101 0.58441 0.16012 0.0
C712 C 0.22326 0.56763 0.16773 0.0
C713 C 0.23726 0.59498 0.1909 0.0
C714 C 0.25594 0.59396 0.28872 0.0
H715 H 0.2801 0.67999 0.34708 0.0
H716 H 0.2678 0.6581 0.30208 0.0
H717 H 0.27418 0.60042 0.33527 0.0
H718 H 0.21615 0.54888 0.21417 0.0
H719 H 0.22779 0.56725 0.26796 0.0
H720 H 0.22734 0.62331 0.24457 0.0
C721 C 0.27092 0.65392 0.33192 0.0
C722 C 0.26372 0.6055 0.3162 0.0
C723 C 0.27812 0.66646 0.35762 0.0
C724 C 0.2222 0.56161 0.20708 0.0
C725 C 0.22878 0.57212 0.23792 0.0
C726 C 0.23746 0.61817 0.26448 0.0
C727 C 0.26759 0.63634 0.34462 0.0
C728 C 0.25859 0.62356 0.31768 0.0
C729 C 0.23624 0.58893 0.23 0.0
C730 C 0.24305 0.60035 0.26208 0.0
H731 H 0.28325 0.63993 0.43879 0.0
H732 H 0.27016 0.61796 0.39396 0.0
H733 H 0.24032 0.64326 0.29326 0.0
H734 H 0.23259 0.58933 0.13027 0.0
H735 H 0.24322 0.6078 0.18406 0.0
C736 C 0.3295 0.71877 0.64272 0.0
C737 C 0.33453 0.71528 0.60364 0.0
C738 C 0.34158 0.72626 0.66913 0.0
C739 C 0.38946 0.73568 0.68655 0.0
H740 H 0.36978 0.77049 0.75895 0.0
C741 C 0.43182 0.77764 0.79681 0.0
C742 C 0.42568 0.7768 0.83602 0.0
C743 C 0.42145 0.77083 0.76598 0.0
C744 C 0.37544 0.76079 0.73892 0.0
H745 H 0.35635 0.71639 0.56183 0.0
H746 H 0.37751 0.72994 0.60797 0.0
H747 H 0.35056 0.75697 0.70947 0.0
H748 H 0.40384 0.76784 0.87328 0.0
H749 H 0.38562 0.75666 0.81945 0.0
H750 H 0.41445 0.73982 0.7162 0.0
C751 C 0.36424 0.72663 0.61828 0.0
C752 C 0.36444 0.75294 0.71072 0.0
C753 C 0.35214 0.71888 0.59185 0.0
C754 C 0.40886 0.76916 0.84349 0.0
C755 C 0.39843 0.76263 0.81268 0.0
C756 C 0.40054 0.74373 0.71459 0.0
C757 C 0.35895 0.73072 0.65703 0.0
C758 C 0.37119 0.73997 0.6848 0.0
C759 C 0.40465 0.76333 0.7737 0.0
C760 C 0.39351 0.75607 0.74151 0.0
H761 H 0.3161 0.71588 0.65288 0.0
H762 H 0.33721 0.72869 0.69906 0.0
H763 H 0.39507 0.72569 0.66718 0.0
H764 H 0.44458 0.78363 0.78985 0.0
H765 H 0.42645 0.77163 0.73607 0.0
C766 C 0.75693 0.83384 0.09956 0.0
C767 C 0.77324 0.83639 0.07987 0.0
C768 C 0.7503 0.84683 0.12484 0.0
C769 C 0.75333 0.89396 0.15429 0.0
H770 H 0.73604 0.87522 0.25397 0.0
C771 C 0.7356 0.93784 0.28989 0.0
C772 C 0.72079 0.93249 0.31244 0.0
C773 C 0.74155 0.92733 0.25855 0.0
C774 C 0.74058 0.88068 0.2261 0.0
H775 H 0.79495 0.85502 0.06988 0.0
H776 H 0.78334 0.8778 0.11477 0.0
H777 H 0.74751 0.85486 0.2046 0.0
H778 H 0.69995 0.9126 0.31841 0.0
H779 H 0.71022 0.89435 0.26361 0.0
H780 H 0.7464 0.91988 0.17624 0.0
C781 C 0.77572 0.86569 0.1103 0.0
C782 C 0.74719 0.869 0.19782 0.0
C783 C 0.78238 0.85263 0.08473 0.0
C784 C 0.7116 0.91687 0.302 0.0
C785 C 0.7175 0.90642 0.27067 0.0
C786 C 0.74667 0.90571 0.18273 0.0
C787 C 0.75982 0.86269 0.1313 0.0
C788 C 0.75345 0.87546 0.16144 0.0
C789 C 0.73279 0.91131 0.2492 0.0
C790 C 0.74006 0.89914 0.21878 0.0
H791 H 0.74934 0.82164 0.09598 0.0
H792 H 0.73779 0.84432 0.13985 0.0
H793 H 0.75802 0.89929 0.12644 0.0
H794 H 0.74302 0.94975 0.29748 0.0
H795 H 0.75344 0.93138 0.24273 0.0
C796 C 0.63978 0.2842 0.59352 0.0
C797 C 0.65656 0.27576 0.59306 0.0
C798 C 0.62564 0.27684 0.61512 0.0
C799 C 0.61072 0.23463 0.6621 0.0
H800 H 0.58453 0.26544 0.73308 0.0
C801 C 0.5768 0.20907 0.80288 0.0
C802 C 0.56051 0.21666 0.81448 0.0
C803 C 0.58587 0.21564 0.76997 0.0
C804 C 0.59146 0.25669 0.71289 0.0
H805 H 0.67146 0.25277 0.61453 0.0
H806 H 0.64704 0.24019 0.65208 0.0
H807 H 0.60527 0.27852 0.6857 0.0
H808 H 0.54071 0.23681 0.80017 0.0
H809 H 0.55656 0.24825 0.74241 0.0
H810 H 0.59739 0.21276 0.69021 0.0
C811 C 0.64469 0.25236 0.63549 0.0
C812 C 0.60334 0.26419 0.68574 0.0
C813 C 0.65878 0.25972 0.6142 0.0
C814 C 0.55318 0.2306 0.79175 0.0
C815 C 0.56232 0.23726 0.75893 0.0
C816 C 0.59888 0.22714 0.68925 0.0
C817 C 0.62798 0.26082 0.63632 0.0
C818 C 0.61347 0.25319 0.66085 0.0
C819 C 0.57888 0.23 0.74804 0.0
C820 C 0.5895 0.23805 0.71565 0.0
H821 H 0.6376 0.29655 0.57749 0.0
H822 H 0.61287 0.28362 0.61513 0.0
H823 H 0.61807 0.22583 0.64273 0.0
H824 H 0.58268 0.19822 0.81967 0.0
H825 H 0.5987 0.20988 0.76259 0.0
C826 C 0.20373 0.14074 0.09471 0.0
C827 C 0.21596 0.15464 0.08795 0.0
C828 C 0.20866 0.12589 0.11737 0.0
C829 C 0.24694 0.10028 0.15456 0.0
H830 H 0.21762 0.09146 0.24662 0.0
C831 C 0.27298 0.06173 0.2904 0.0
C832 C 0.26075 0.05261 0.31437 0.0
C833 C 0.26701 0.07152 0.25775 0.0
C834 C 0.22579 0.09334 0.22064 0.0
H835 H 0.24317 0.16349 0.09792 0.0
H836 H 0.25182 0.13742 0.13684 0.0
H837 H 0.20792 0.1131 0.19751 0.0
H838 H 0.23299 0.0455 0.32206 0.0
H839 H 0.22258 0.06183 0.26404 0.0
H840 H 0.26483 0.08052 0.17744 0.0
C841 C 0.23841 0.13809 0.1249 0.0
C842 C 0.22022 0.10584 0.19257 0.0
C843 C 0.2334 0.15306 0.10292 0.0
C844 C 0.24261 0.0526 0.30408 0.0
C845 C 0.23668 0.06209 0.27106 0.0
C846 C 0.2524 0.08754 0.18232 0.0
C847 C 0.22601 0.12452 0.13289 0.0
C848 C 0.23092 0.10969 0.15974 0.0
C849 C 0.24871 0.07213 0.24811 0.0
C850 C 0.24208 0.08418 0.21622 0.0
H851 H 0.19019 0.14161 0.08356 0.0
H852 H 0.19888 0.11555 0.12313 0.0
H853 H 0.25536 0.10294 0.12926 0.0
H854 H 0.28702 0.06201 0.29805 0.0
H855 H 0.27668 0.07924 0.24125 0.0
C856 C 0.21432 0.27881 0.05241 0.0
C857 C 0.21245 0.27003 0.01603 0.0
C858 C 0.21137 0.29721 0.05515 0.0
C859 C 0.18767 0.33398 0.00626 0.0
H860 H 0.22268 0.36467 0.05603 0.0
C861 C 0.18819 0.41009 0.98268 0.0
C862 C 0.19366 0.42112 0.01387 0.0
C863 C 0.18918 0.39154 0.98618 0.0
C864 C 0.21259 0.35629 0.04267 0.0
H865 H 0.20597 0.27377 0.95405 0.0
H866 H 0.20077 0.30571 0.95903 0.0
H867 H 0.22703 0.33239 0.05677 0.0
H868 H 0.20417 0.42119 0.07359 0.0
H869 H 0.20523 0.38887 0.08021 0.0
H870 H 0.17316 0.35775 0.99218 0.0
C871 C 0.20447 0.29836 0.98538 0.0
C872 C 0.21513 0.33781 0.04302 0.0
C873 C 0.20762 0.28007 0.98252 0.0
C874 C 0.19965 0.41313 0.04909 0.0
C875 C 0.20052 0.39457 0.0527 0.0
C876 C 0.18503 0.35243 0.00622 0.0
C877 C 0.20625 0.3071 0.02169 0.0
C878 C 0.20286 0.32652 0.02422 0.0
C879 C 0.19553 0.38354 0.0211 0.0
C880 C 0.19761 0.36384 0.02383 0.0
H881 H 0.21802 0.27147 0.07877 0.0
H882 H 0.21278 0.30366 0.08352 0.0
H883 H 0.17786 0.32553 0.99206 0.0
H884 H 0.18328 0.41578 0.95533 0.0
H885 H 0.1854 0.38348 0.96106 0.0
C886 C 0.21785 0.70407 0.4567 0.0
C887 C 0.22625 0.70944 0.49184 0.0
C888 C 0.19939 0.70141 0.45549 0.0
C889 C 0.16063 0.6934 0.52087 0.0
H890 H 0.13303 0.70916 0.43035 0.0
C891 C 0.08427 0.70125 0.52401 0.0
C892 C 0.07455 0.69513 0.49124 0.0
C893 C 0.10288 0.70161 0.52327 0.0
C894 C 0.14061 0.70449 0.4556 0.0
H895 H 0.22173 0.71659 0.55302 0.0
H896 H 0.18962 0.71236 0.55061 0.0
H897 H 0.1654 0.71284 0.43032 0.0
H898 H 0.07685 0.68417 0.43229 0.0
H899 H 0.10943 0.68511 0.43083 0.0
H900 H 0.13576 0.68546 0.54648 0.0
C901 C 0.19732 0.70977 0.52424 0.0
C902 C 0.15914 0.70658 0.45559 0.0
C903 C 0.21574 0.71232 0.52553 0.0
C904 C 0.08391 0.68922 0.45781 0.0
C905 C 0.10255 0.68972 0.45696 0.0
C906 C 0.14211 0.69143 0.52097 0.0
C907 C 0.18893 0.70415 0.48933 0.0
C908 C 0.16934 0.70122 0.48841 0.0
C909 C 0.11219 0.69598 0.48964 0.0
C910 C 0.13191 0.69711 0.48851 0.0
H911 H 0.22556 0.70164 0.43027 0.0
H912 H 0.19337 0.69691 0.42823 0.0
H913 H 0.16812 0.68877 0.54627 0.0
H914 H 0.07751 0.70623 0.54994 0.0
H915 H 0.10998 0.70675 0.54867 0.0
C916 C 0.78412 0.71376 0.96221 0.0
C917 C 0.78826 0.72442 0.99498 0.0
C918 C 0.78717 0.69538 0.96326 0.0
C919 C 0.79417 0.658 0.03319 0.0
H920 H 0.80915 0.63301 0.93892 0.0
C921 C 0.79107 0.58171 0.02293 0.0
C922 C 0.80468 0.57274 0.00265 0.0
C923 C 0.79007 0.60028 0.02198 0.0
C924 C 0.80519 0.6398 0.96565 0.0
H925 H 0.7992 0.72419 0.05428 0.0
H926 H 0.80492 0.69223 0.05575 0.0
H927 H 0.80618 0.66538 0.93752 0.0
H928 H 0.82796 0.57607 0.96555 0.0
H929 H 0.82648 0.6087 0.96453 0.0
H930 H 0.79368 0.63253 0.06168 0.0
C931 C 0.7989 0.69797 0.02957 0.0
C932 C 0.80323 0.65834 0.96469 0.0
C933 C 0.79567 0.71633 0.02869 0.0
C934 C 0.81727 0.5827 0.98124 0.0
C935 C 0.81638 0.60135 0.9806 0.0
C936 C 0.79628 0.6395 0.03424 0.0
C937 C 0.7946 0.68726 0.99694 0.0
C938 C 0.7975 0.66764 0.99833 0.0
C939 C 0.80276 0.61035 0.00103 0.0
C940 C 0.80157 0.63014 0.00035 0.0
H941 H 0.77831 0.71957 0.93584 0.0
H942 H 0.7834 0.6875 0.93786 0.0
H943 H 0.78956 0.66467 0.05955 0.0
H944 H 0.781 0.57433 0.03906 0.0
H945 H 0.77915 0.60672 0.03725 0.0
C946 C 0.77811 0.28927 0.53951 0.0
C947 C 0.76899 0.28396 0.50527 0.0
C948 C 0.79668 0.2909 0.53944 0.0
C949 C 0.83515 0.29567 0.4717 0.0
H950 H 0.86234 0.28154 0.56406 0.0
C951 C 0.91078 0.30888 0.48457 0.0
C952 C 0.9212 0.29555 0.50253 0.0
C953 C 0.89218 0.3078 0.48533 0.0
C954 C 0.85497 0.2854 0.53787 0.0
H955 H 0.77223 0.27584 0.44432 0.0
H956 H 0.80461 0.27818 0.44456 0.0
H957 H 0.83004 0.27835 0.5642 0.0
H958 H 0.92046 0.27046 0.53455 0.0
H959 H 0.88802 0.26833 0.53516 0.0
H960 H 0.86014 0.30207 0.44482 0.0
C961 C 0.79741 0.28155 0.47118 0.0
C962 C 0.83641 0.2838 0.53817 0.0
C963 C 0.77884 0.28009 0.47112 0.0
C964 C 0.91271 0.28106 0.52098 0.0
C965 C 0.89413 0.27988 0.52143 0.0
C966 C 0.85372 0.29713 0.47129 0.0
C967 C 0.80654 0.28708 0.50525 0.0
C968 C 0.82628 0.28889 0.50506 0.0
C969 C 0.88363 0.29327 0.50374 0.0
C970 C 0.86386 0.29198 0.50435 0.0
H971 H 0.7709 0.2925 0.56621 0.0
H972 H 0.80325 0.29545 0.56603 0.0
H973 H 0.82775 0.29996 0.4459 0.0
H974 H 0.91703 0.32028 0.47048 0.0
H975 H 0.8845 0.31848 0.47195 0.0
C976 C 0.71111 0.21625 0.52473 0.0
C977 C 0.70729 0.2273 0.4922 0.0
C978 C 0.70842 0.19786 0.52256 0.0
C979 C 0.70328 0.16106 0.45128 0.0
H980 H 0.68665 0.13537 0.54368 0.0
C981 C 0.7086 0.08477 0.46431 0.0
C982 C 0.69494 0.07543 0.48377 0.0
C983 C 0.70876 0.10338 0.46392 0.0
C984 C 0.69107 0.14234 0.51742 0.0
H985 H 0.69746 0.22769 0.43196 0.0
H986 H 0.69243 0.19559 0.42845 0.0
H987 H 0.6889 0.16775 0.54547 0.0
H988 H 0.67056 0.07815 0.51746 0.0
H989 H 0.67061 0.11077 0.51623 0.0
H990 H 0.70505 0.13569 0.42292 0.0
C991 C 0.69785 0.20112 0.4554 0.0
C992 C 0.69261 0.1609 0.51863 0.0
C993 C 0.70068 0.21953 0.45745 0.0
C994 C 0.68134 0.08505 0.50258 0.0
C995 C 0.6814 0.10371 0.50192 0.0
C996 C 0.70161 0.14251 0.44996 0.0
C997 C 0.70169 0.19007 0.48795 0.0
C998 C 0.69899 0.17046 0.48578 0.0
C999 C 0.69517 0.11309 0.48273 0.0
C1000 C 0.69574 0.13291 0.48321 0.0
H1001 H 0.71632 0.22177 0.55188 0.0
H1002 H 0.71187 0.18972 0.54792 0.0
H1003 H 0.70836 0.16797 0.42553 0.0
H1004 H 0.71941 0.07767 0.45009 0.0
H1005 H 0.71977 0.11015 0.4496 0.0
C1006 C 0.28049 0.20348 0.03786 0.0
C1007 C 0.27131 0.20883 0.00356 0.0
C1008 C 0.29892 0.20076 0.03709 0.0
C1009 C 0.3392 0.21342 0.98291 0.0
H1010 H 0.35992 0.17133 0.03183 0.0
C1011 C 0.41364 0.19707 0.96635 0.0
C1012 C 0.42273 0.191 0.00013 0.0
C1013 C 0.39506 0.19826 0.96605 0.0
C1014 C 0.35436 0.18325 0.01841 0.0
H1015 H 0.27437 0.21554 0.94157 0.0
H1016 H 0.30655 0.21086 0.94042 0.0
H1017 H 0.32762 0.17566 0.03323 0.0
H1018 H 0.41935 0.18086 0.05967 0.0
H1019 H 0.38693 0.18348 0.05959 0.0
H1020 H 0.36584 0.22123 0.96864 0.0
C1021 C 0.29945 0.20885 0.96787 0.0
C1022 C 0.33588 0.1857 0.01918 0.0
C1023 C 0.28101 0.21144 0.96853 0.0
C1024 C 0.41277 0.1858 0.03335 0.0
C1025 C 0.39417 0.1871 0.03313 0.0
C1026 C 0.35766 0.21104 0.98235 0.0
C1027 C 0.30857 0.20345 0.00211 0.0
C1028 C 0.32814 0.2008 0.00138 0.0
C1029 C 0.38512 0.19355 -0.00038 0.0
C1030 C 0.36546 0.19591 1e-05 0.0
H1031 H 0.27343 0.20128 0.06531 0.0
H1032 H 0.30566 0.19676 0.064 0.0
H1033 H 0.3336 0.22531 0.96946 0.0
H1034 H 0.42088 0.20138 0.9404 0.0
H1035 H 0.38849 0.20302 0.93954 0.0
C1036 C 0.29168 0.77756 0.5442 0.0
C1037 C 0.28525 0.76947 0.50962 0.0
C1038 C 0.29509 0.79591 0.54509 0.0
C1039 C 0.3036 0.83421 0.47827 0.0
H1040 H 0.29144 0.86278 0.5695 0.0
C1041 C 0.29768 0.91069 0.47323 0.0
C1042 C 0.30459 0.92053 0.50502 0.0
C1043 C 0.2973 0.89208 0.47458 0.0
C1044 C 0.29514 0.85492 0.54404 0.0
H1045 H 0.27677 0.77446 0.44931 0.0
H1046 H 0.28228 0.80639 0.45122 0.0
H1047 H 0.28623 0.8306 0.57091 0.0
H1048 H 0.31711 0.9184 0.56264 0.0
H1049 H 0.3161 0.88581 0.56521 0.0
H1050 H 0.31206 0.85861 0.45106 0.0
C1051 C 0.28517 0.79852 0.47732 0.0
C1052 C 0.29216 0.8365 0.54483 0.0
C1053 C 0.28187 0.78021 0.47635 0.0
C1054 C 0.31144 0.91126 0.5379 0.0
C1055 C 0.31091 0.89261 0.53938 0.0
C1056 C 0.30647 0.85262 0.47741 0.0
C1057 C 0.29206 0.80656 0.51149 0.0
C1058 C 0.29612 0.82597 0.51172 0.0
C1059 C 0.30368 0.88286 0.50786 0.0
C1060 C 0.30205 0.86318 0.51008 0.0
H1061 H 0.29453 0.76966 0.57029 0.0
H1062 H 0.30052 0.80167 0.57179 0.0
H1063 H 0.3072 0.82645 0.45261 0.0
H1064 H 0.29195 0.91734 0.44779 0.0
H1065 H 0.29142 0.88492 0.45009 0.0
C1066 C 0.71532 0.77675 0.02213 0.0
C1067 C 0.72518 0.78076 0.98801 0.0
C1068 C 0.69678 0.77868 0.02236 0.0
C1069 C 0.65764 0.78298 0.956 0.0
H1070 H 0.63484 0.80132 0.05009 0.0
C1071 C 0.58133 0.78295 0.97448 0.0
C1072 C 0.57342 0.7975 0.9937 0.0
C1073 C 0.59986 0.78119 0.97336 0.0
C1074 C 0.641 0.79637 0.02342 0.0
H1075 H 0.72329 0.78999 0.92738 0.0
H1076 H 0.69106 0.79372 0.92807 0.0
H1077 H 0.66712 0.79786 0.04866 0.0
H1078 H 0.57859 0.82179 0.02625 0.0
H1079 H 0.61105 0.81896 0.02364 0.0
H1080 H 0.63161 0.78206 0.93028 0.0
C1081 C 0.69758 0.7887 0.95441 0.0
C1082 C 0.6595 0.79413 0.02281 0.0
C1083 C 0.71609 0.78662 0.95406 0.0
C1084 C 0.58438 0.81035 0.01157 0.0
C1085 C 0.60294 0.80868 0.01016 0.0
C1086 C 0.63917 0.78535 0.95651 0.0
C1087 C 0.6877 0.78483 0.98861 0.0
C1088 C 0.66804 0.78732 0.98916 0.0
C1089 C 0.6109 0.79403 0.99118 0.0
C1090 C 0.63061 0.79199 0.99029 0.0
H1091 H 0.7219 0.77211 0.04872 0.0
H1092 H 0.68956 0.77526 0.04898 0.0
H1093 H 0.66374 0.77754 0.92973 0.0
H1094 H 0.57318 0.7727 0.96099 0.0
H1095 H 0.6055 0.76956 0.95917 0.0
loop_
_geom_bond_atom_site_label_1
_geom_bond_atom_site_label_2
_geom_bond_distance
_geom_bond_site_symmetry_2
_ccdc_geom_bond_type
Sc0 O3 2.039 . S
Sc0 O10 2.105 . S
Sc0 O13 2.105 . S
Sc0 O16 2.105 . S
Sc0 O19 2.105 . S
Sc1 O3 2.025 . S
Sc1 O11 2.116 . S
Sc1 O15 2.094 1_554 S
Sc1 O17 2.116 . S
Sc1 O21 2.094 1_554 S
Sc2 O3 2.012 1_556 S
Sc2 O12 2.105 . S
Sc2 O14 2.105 . S
Sc2 O18 2.105 . S
Sc2 O20 2.105 . S
O3 Sc0 2.039 . S
O3 Sc1 2.025 . S
O3 Sc2 2.012 1_554 S
C4 O10 1.279 . S
C4 O20 1.258 1_554 S
C5 O11 1.268 . S
C5 O19 1.268 . S
C6 O12 1.268 . S
C6 O21 1.268 . S
C7 O13 1.268 . S
C7 O17 1.268 . S
C8 O14 1.251 1_554 S
C8 O16 1.286 . S
C9 O15 1.268 . S
C9 O18 1.268 . S
O10 Sc0 2.105 . S
O10 C4 1.279 . S
O11 Sc1 2.116 . S
O11 C5 1.268 . S
O12 Sc2 2.105 . S
O12 C6 1.268 . S
O13 Sc0 2.105 . S
O13 C7 1.268 . S
O14 Sc2 2.105 . S
O14 C8 1.251 1_556 S
O15 Sc1 2.094 1_556 S
O15 C9 1.268 . S
O16 Sc0 2.105 . S
O16 C8 1.286 . S
O17 Sc1 2.116 . S
O17 C7 1.268 . S
O18 Sc2 2.105 . S
O18 C9 1.268 . S
O19 Sc0 2.105 . S
O19 C5 1.268 . S
O20 Sc2 2.105 . S
O20 C4 1.258 1_556 S
O21 Sc1 2.094 1_556 S
O21 C6 1.268 . S
Sc22 O25 2.025 . S
Sc22 O32 2.105 . S
Sc22 O35 2.105 . S
Sc22 O38 2.105 . S
Sc22 O41 2.105 . S
Sc23 O25 2.025 . S
Sc23 O33 2.105 . S
Sc23 O37 2.105 . S
Sc23 O39 2.105 . S
Sc23 O43 2.105 . S
Sc24 O25 2.025 . S
Sc24 O34 2.105 . S
Sc24 O36 2.105 . S
Sc24 O40 2.105 . S
Sc24 O42 2.105 . S
O25 Sc22 2.025 . S
O25 Sc23 2.025 . S
O25 Sc24 2.025 . S
C26 O32 1.268 . S
C26 O42 1.268 . S
C27 O33 1.268 . S
C27 O41 1.268 . S
C28 O34 1.268 . S
C28 O43 1.268 . S
C29 O35 1.268 . S
C29 O39 1.268 . S
C30 O36 1.268 . S
C30 O38 1.268 . S
C31 O37 1.268 . S
C31 O40 1.268 . S
O32 Sc22 2.105 . S
O32 C26 1.268 . S
O33 Sc23 2.105 . S
O33 C27 1.268 . S
O34 Sc24 2.105 . S
O34 C28 1.268 . S
O35 Sc22 2.105 . S
O35 C29 1.268 . S
O36 Sc24 2.105 . S
O36 C30 1.268 . S
O37 Sc23 2.105 . S
O37 C31 1.268 . S
O38 Sc22 2.105 . S
O38 C30 1.268 . S
O39 Sc23 2.105 . S
O39 C29 1.268 . S
O40 Sc24 2.105 . S
O40 C31 1.268 . S
O41 Sc22 2.105 . S
O41 C27 1.268 . S
O42 Sc24 2.105 . S
O42 C26 1.268 . S
O43 Sc23 2.105 . S
O43 C28 1.268 . S
Sc44 O47 2.012 1_556 S
Sc44 O54 2.105 . S
Sc44 O57 2.105 . S
Sc44 O60 2.105 . S
Sc44 O63 2.105 . S
Sc45 O47 2.025 . S
Sc45 O55 2.094 1_554 S
Sc45 O59 2.116 . S
Sc45 O61 2.094 1_554 S
Sc45 O65 2.116 . S
Sc46 O47 2.039 . S
Sc46 O56 2.105 . S
Sc46 O58 2.105 . S
Sc46 O62 2.105 . S
Sc46 O64 2.105 . S
O47 Sc44 2.012 1_554 S
O47 Sc45 2.025 . S
O47 Sc46 2.039 . S
C48 O54 1.258 1_554 S
C48 O64 1.279 . S
C49 O55 1.268 . S
C49 O63 1.268 . S
C50 O56 1.268 . S
C50 O65 1.268 . S
C51 O57 1.268 . S
C51 O61 1.268 . S
C52 O58 1.286 . S
C52 O60 1.251 1_554 S
C53 O59 1.268 . S
C53 O62 1.268 . S
O54 Sc44 2.105 . S
O54 C48 1.258 1_556 S
O55 Sc45 2.094 1_556 S
O55 C49 1.268 . S
O56 Sc46 2.105 . S
O56 C50 1.268 . S
O57 Sc44 2.105 . S
O57 C51 1.268 . S
O58 Sc46 2.105 . S
O58 C52 1.286 . S
O59 Sc45 2.116 . S
O59 C53 1.268 . S
O60 Sc44 2.105 . S
O60 C52 1.251 1_556 S
O61 Sc45 2.094 1_556 S
O61 C51 1.268 . S
O62 Sc46 2.105 . S
O62 C53 1.268 . S
O63 Sc44 2.105 . S
O63 C49 1.268 . S
O64 Sc46 2.105 . S
O64 C48 1.279 . S
O65 Sc45 2.116 . S
O65 C50 1.268 . S
Sc66 O69 2.025 . S
Sc66 O76 2.105 . S
Sc66 O79 2.105 . S
Sc66 O82 2.105 . S
Sc66 O85 2.105 . S
Sc67 O69 2.025 . S
Sc67 O77 2.105 . S
Sc67 O81 2.105 . S
Sc67 O83 2.105 . S
Sc67 O87 2.105 . S
Sc68 O69 2.025 . S
Sc68 O78 2.105 . S
Sc68 O80 2.105 . S
Sc68 O84 2.105 . S
Sc68 O86 2.105 . S
O69 Sc66 2.025 . S
O69 Sc67 2.025 . S
O69 Sc68 2.025 . S
C70 O76 1.268 . S
C70 O86 1.268 . S
C71 O77 1.268 . S
C71 O85 1.268 . S
C72 O78 1.268 . S
C72 O87 1.268 . S
C73 O79 1.268 . S
C73 O83 1.268 . S
C74 O80 1.268 . S
C74 O82 1.268 . S
C75 O81 1.268 . S
C75 O84 1.268 . S
O76 Sc66 2.105 . S
O76 C70 1.268 . S
O77 Sc67 2.105 . S
O77 C71 1.268 . S
O78 Sc68 2.105 . S
O78 C72 1.268 . S
O79 Sc66 2.105 . S
O79 C73 1.268 . S
O80 Sc68 2.105 . S
O80 C74 1.268 . S
O81 Sc67 2.105 . S
O81 C75 1.268 . S
O82 Sc66 2.105 . S
O82 C74 1.268 . S
O83 Sc67 2.105 . S
O83 C73 1.268 . S
O84 Sc68 2.105 . S
O84 C75 1.268 . S
O85 Sc66 2.105 . S
O85 C71 1.268 . S
O86 Sc68 2.105 . S
O86 C70 1.268 . S
O87 Sc67 2.105 . S
O87 C72 1.268 . S
C88 C89 1.384 . S
C88 H101 0.947 . S
C88 C123 1.382 . S
C89 C88 1.384 . S
C89 C90 1.378 . S
C90 C89 1.378 . S
C90 C91 1.378 . S
C90 H102 0.952 . S
C91 C90 1.378 . S
C91 H103 0.950 . S
C91 C122 1.383 . S
H92 C111 0.947 . S
H93 C112 0.946 . S
H94 C114 0.953 . S
H95 C115 0.945 . S
H96 C117 0.952 . S
H97 C118 0.949 . S
H98 C120 0.950 . S
H99 C121 0.948 . S
H100 C123 0.951 . S
H101 C88 0.947 . S
H102 C90 0.952 . S
H103 C91 0.950 . S
N104 C107 1.376 1_554 S
N104 C109 1.363 . S
N105 C107 1.377 . S
N105 C108 1.372 . S
N106 C108 1.361 . S
N106 C109 1.377 1_556 S
C107 N104 1.376 1_556 S
C107 N105 1.377 . S
C107 C110 1.480 . S
C108 N105 1.372 . S
C108 N106 1.361 . S
C108 C116 1.457 . S
C109 N104 1.363 . S
C109 N106 1.377 1_554 S
C109 C122 1.479 . S
C110 C107 1.480 . S
C110 C111 1.383 1_556 S
C110 C115 1.385 . S
C111 H92 0.947 . S
C111 C110 1.383 1_554 S
C111 C112 1.388 . S
C112 H93 0.946 . S
C112 C111 1.388 . S
C112 C113 1.384 1_554 S
C113 C112 1.384 1_556 S
C113 C114 1.377 . S
C114 H94 0.953 . S
C114 C113 1.377 . S
C114 C115 1.369 . S
C115 H95 0.945 . S
C115 C110 1.385 . S
C115 C114 1.369 . S
C116 C108 1.457 . S
C116 C117 1.372 . S
C116 C121 1.364 . S
C117 H96 0.952 . S
C117 C116 1.372 . S
C117 C118 1.389 . S
C118 H97 0.949 . S
C118 C117 1.389 . S
C118 C119 1.387 . S
C119 C118 1.387 . S
C119 C120 1.372 . S
C120 H98 0.950 . S
C120 C119 1.372 . S
C120 C121 1.379 . S
C121 H99 0.948 . S
C121 C116 1.364 . S
C121 C120 1.379 . S
C122 C91 1.383 . S
C122 C109 1.479 . S
C122 C123 1.398 . S
C123 C88 1.382 . S
C123 H100 0.951 . S
C123 C122 1.398 . S
C124 C125 1.384 . S
C124 H137 0.947 . S
C124 C159 1.382 . S
C125 C124 1.384 . S
C125 C126 1.378 . S
C126 C125 1.378 . S
C126 C127 1.378 . S
C126 H138 0.952 . S
C127 C126 1.378 . S
C127 H139 0.950 . S
C127 C158 1.383 . S
H128 C147 0.947 . S
H129 C148 0.946 . S
H130 C150 0.953 . S
H131 C151 0.945 . S
H132 C153 0.952 . S
H133 C154 0.949 . S
H134 C156 0.950 . S
H135 C157 0.948 . S
H136 C159 0.951 . S
H137 C124 0.947 . S
H138 C126 0.952 . S
H139 C127 0.950 . S
N140 C143 1.382 . S
N140 C145 1.363 . S
N141 C143 1.371 . S
N141 C144 1.372 . S
N142 C144 1.361 . S
N142 C145 1.377 . S
C143 N140 1.382 . S
C143 N141 1.371 . S
C143 C146 1.480 1_655 S
C144 N141 1.372 . S
C144 N142 1.361 . S
C144 C152 1.457 . S
C145 N140 1.363 . S
C145 N142 1.377 . S
C145 C158 1.479 . S
C146 C143 1.480 1_455 S
C146 C147 1.383 . S
C146 C151 1.385 . S
C147 H128 0.947 . S
C147 C146 1.383 . S
C147 C148 1.388 . S
C148 H129 0.946 . S
C148 C147 1.388 . S
C148 C149 1.384 . S
C149 C148 1.384 . S
C149 C150 1.377 . S
C150 H130 0.953 . S
C150 C149 1.377 . S
C150 C151 1.369 . S
C151 H131 0.945 . S
C151 C146 1.385 . S
C151 C150 1.369 . S
C152 C144 1.457 . S
C152 C153 1.372 . S
C152 C157 1.364 . S
C153 H132 0.952 . S
C153 C152 1.372 . S
C153 C154 1.389 . S
C154 H133 0.949 . S
C154 C153 1.389 . S
C154 C155 1.387 . S
C155 C154 1.387 . S
C155 C156 1.372 . S
C156 H134 0.950 . S
C156 C155 1.372 . S
C156 C157 1.379 . S
C157 H135 0.948 . S
C157 C152 1.364 . S
C157 C156 1.379 . S
C158 C127 1.383 . S
C158 C145 1.479 . S
C158 C159 1.398 . S
C159 C124 1.382 . S
C159 H136 0.951 . S
C159 C158 1.398 . S
C160 C161 1.384 . S
C160 H173 0.947 . S
C160 C195 1.382 . S
C161 C160 1.384 . S
C161 C162 1.378 . S
C162 C161 1.378 . S
C162 C163 1.378 . S
C162 H174 0.952 . S
C163 C162 1.378 . S
C163 H175 0.950 . S
C163 C194 1.383 . S
H164 C183 0.947 . S
H165 C184 0.946 . S
H166 C186 0.953 . S
H167 C187 0.945 . S
H168 C189 0.952 . S
H169 C190 0.949 . S
H170 C192 0.950 . S
H171 C193 0.948 . S
H172 C195 0.951 . S
H173 C160 0.947 . S
H174 C162 0.952 . S
H175 C163 0.950 . S
N176 C179 1.382 1_556 S
N176 C181 1.363 . S
N177 C179 1.371 . S
N177 C180 1.372 . S
N178 C180 1.361 . S
N178 C181 1.377 1_554 S
C179 N176 1.382 1_554 S
C179 N177 1.371 . S
C179 C182 1.480 . S
C180 N177 1.372 . S
C180 N178 1.361 . S
C180 C188 1.457 . S
C181 N176 1.363 . S
C181 N178 1.377 1_556 S
C181 C194 1.479 . S
C182 C179 1.480 . S
C182 C183 1.383 1_554 S
C182 C187 1.385 . S
C183 H164 0.947 . S
C183 C182 1.383 1_556 S
C183 C184 1.388 . S
C184 H165 0.946 . S
C184 C183 1.388 . S
C184 C185 1.384 1_556 S
C185 C184 1.384 1_554 S
C185 C186 1.377 . S
C186 H166 0.953 . S
C186 C185 1.377 . S
C186 C187 1.369 . S
C187 H167 0.945 . S
C187 C182 1.385 . S
C187 C186 1.369 . S
C188 C180 1.457 . S
C188 C189 1.372 . S
C188 C193 1.364 . S
C189 H168 0.952 . S
C189 C188 1.372 . S
C189 C190 1.389 . S
C190 H169 0.949 . S
C190 C189 1.389 . S
C190 C191 1.387 . S
C191 C190 1.387 . S
C191 C192 1.372 . S
C192 H170 0.950 . S
C192 C191 1.372 . S
C192 C193 1.379 . S
C193 H171 0.948 . S
C193 C188 1.364 . S
C193 C192 1.379 . S
C194 C163 1.383 . S
C194 C181 1.479 . S
C194 C195 1.398 . S
C195 C160 1.382 . S
C195 H172 0.951 . S
C195 C194 1.398 . S
C196 C197 1.384 . S
C196 H209 0.947 . S
C196 C231 1.382 . S
C197 C196 1.384 . S
C197 C198 1.378 . S
C198 C197 1.378 . S
C198 C199 1.378 . S
C198 H210 0.952 . S
C199 C198 1.378 . S
C199 H211 0.950 . S
C199 C230 1.383 . S
H200 C219 0.947 . S
H201 C220 0.946 . S
H202 C222 0.953 . S
H203 C223 0.945 . S
H204 C225 0.952 . S
H205 C226 0.949 . S
H206 C228 0.950 . S
H207 C229 0.948 . S
H208 C231 0.951 . S
H209 C196 0.947 . S
H210 C198 0.952 . S
H211 C199 0.950 . S
N212 C215 1.382 . S
N212 C217 1.363 . S
N213 C215 1.371 . S
N213 C216 1.372 . S
N214 C216 1.361 . S
N214 C217 1.377 . S
C215 N212 1.382 . S
C215 N213 1.371 . S
C215 C218 1.480 1_455 S
C216 N213 1.372 . S
C216 N214 1.361 . S
C216 C224 1.457 . S
C217 N212 1.363 . S
C217 N214 1.377 . S
C217 C230 1.479 . S
C218 C215 1.480 1_655 S
C218 C219 1.383 . S
C218 C223 1.385 . S
C219 H200 0.947 . S
C219 C218 1.383 . S
C219 C220 1.388 . S
C220 H201 0.946 . S
C220 C219 1.388 . S
C220 C221 1.384 . S
C221 C220 1.384 . S
C221 C222 1.377 . S
C222 H202 0.953 . S
C222 C221 1.377 . S
C222 C223 1.369 . S
C223 H203 0.945 . S
C223 C218 1.385 . S
C223 C222 1.369 . S
C224 C216 1.457 . S
C224 C225 1.372 . S
C224 C229 1.364 . S
C225 H204 0.952 . S
C225 C224 1.372 . S
C225 C226 1.389 . S
C226 H205 0.949 . S
C226 C225 1.389 . S
C226 C227 1.387 . S
C227 C226 1.387 . S
C227 C228 1.372 . S
C228 H206 0.950 . S
C228 C227 1.372 . S
C228 C229 1.379 . S
C229 H207 0.948 . S
C229 C224 1.364 . S
C229 C228 1.379 . S
C230 C199 1.383 . S
C230 C217 1.479 . S
C230 C231 1.398 . S
C231 C196 1.382 . S
C231 H208 0.951 . S
C231 C230 1.398 . S
C232 C233 1.384 . S
C232 H245 0.947 . S
C232 C267 1.382 . S
C233 C232 1.384 . S
C233 C234 1.378 . S
C234 C233 1.378 . S
C234 C235 1.378 . S
C234 H246 0.952 . S
C235 C234 1.378 . S
C235 H247 0.950 . S
C235 C266 1.383 . S
H236 C255 0.947 . S
H237 C256 0.946 . S
H238 C258 0.953 . S
H239 C259 0.945 . S
H240 C261 0.952 . S
H241 C262 0.949 . S
H242 C264 0.950 . S
H243 C265 0.948 . S
H244 C267 0.951 . S
H245 C232 0.947 . S
H246 C234 0.952 . S
H247 C235 0.950 . S
N248 C251 1.382 . S
N248 C253 1.363 . S
N249 C251 1.371 . S
N249 C252 1.372 . S
N250 C252 1.361 . S
N250 C253 1.377 . S
C251 N248 1.382 . S
C251 N249 1.371 . S
C251 C254 1.480 1_565 S
C252 N249 1.372 . S
C252 N250 1.361 . S
C252 C260 1.457 . S
C253 N248 1.363 . S
C253 N250 1.377 . S
C253 C266 1.479 . S
C254 C251 1.480 1_545 S
C254 C255 1.383 . S
C254 C259 1.385 . S
C255 H236 0.947 . S
C255 C254 1.383 . S
C255 C256 1.388 . S
C256 H237 0.946 . S
C256 C255 1.388 . S
C256 C257 1.384 . S
C257 C256 1.384 . S
C257 C258 1.377 . S
C258 H238 0.953 . S
C258 C257 1.377 . S
C258 C259 1.369 . S
C259 H239 0.945 . S
C259 C254 1.385 . S
C259 C258 1.369 . S
C260 C252 1.457 . S
C260 C261 1.372 . S
C260 C265 1.364 . S
C261 H240 0.952 . S
C261 C260 1.372 . S
C261 C262 1.389 . S
C262 H241 0.949 . S
C262 C261 1.389 . S
C262 C263 1.387 . S
C263 C262 1.387 . S
C263 C264 1.372 . S
C264 H242 0.950 . S
C264 C263 1.372 . S
C264 C265 1.379 . S
C265 H243 0.948 . S
C265 C260 1.364 . S
C265 C264 1.379 . S
C266 C235 1.383 . S
C266 C253 1.479 . S
C266 C267 1.398 . S
C267 C232 1.382 . S
C267 H244 0.951 . S
C267 C266 1.398 . S
C268 C269 1.384 . S
C268 H281 0.947 . S
C268 C303 1.382 . S
C269 C268 1.384 . S
C269 C270 1.378 . S
C270 C269 1.378 . S
C270 C271 1.378 . S
C270 H282 0.952 . S
C271 C270 1.378 . S
C271 H283 0.950 . S
C271 C302 1.383 . S
H272 C291 0.947 . S
H273 C292 0.946 . S
H274 C294 0.953 . S
H275 C295 0.945 . S
H276 C297 0.952 . S
H277 C298 0.949 . S
H278 C300 0.950 . S
H279 C301 0.948 . S
H280 C303 0.951 . S
H281 C268 0.947 . S
H282 C270 0.952 . S
H283 C271 0.950 . S
N284 C287 1.382 1_556 S
N284 C289 1.363 . S
N285 C287 1.371 . S
N285 C288 1.372 . S
N286 C288 1.361 . S
N286 C289 1.377 1_554 S
C287 N284 1.382 1_554 S
C287 N285 1.371 . S
C287 C290 1.480 . S
C288 N285 1.372 . S
C288 N286 1.361 . S
C288 C296 1.457 . S
C289 N284 1.363 . S
C289 N286 1.377 1_556 S
C289 C302 1.479 . S
C290 C287 1.480 . S
C290 C291 1.383 1_554 S
C290 C295 1.385 . S
C291 H272 0.947 . S
C291 C290 1.383 1_556 S
C291 C292 1.388 . S
C292 H273 0.946 . S
C292 C291 1.388 . S
C292 C293 1.384 1_556 S
C293 C292 1.384 1_554 S
C293 C294 1.377 . S
C294 H274 0.953 . S
C294 C293 1.377 . S
C294 C295 1.369 . S
C295 H275 0.945 . S
C295 C290 1.385 . S
C295 C294 1.369 . S
C296 C288 1.457 . S
C296 C297 1.372 . S
C296 C301 1.364 . S
C297 H276 0.952 . S
C297 C296 1.372 . S
C297 C298 1.389 . S
C298 H277 0.949 . S
C298 C297 1.389 . S
C298 C299 1.387 . S
C299 C298 1.387 . S
C299 C300 1.372 . S
C300 H278 0.950 . S
C300 C299 1.372 . S
C300 C301 1.379 . S
C301 H279 0.948 . S
C301 C296 1.364 . S
C301 C300 1.379 . S
C302 C271 1.383 . S
C302 C289 1.479 . S
C302 C303 1.398 . S
C303 C268 1.382 . S
C303 H280 0.951 . S
C303 C302 1.398 . S
C304 C305 1.384 . S
C304 H317 0.947 . S
C304 C339 1.382 . S
C305 C304 1.384 . S
C305 C306 1.378 . S
C306 C305 1.378 . S
C306 C307 1.378 . S
C306 H318 0.952 . S
C307 C306 1.378 . S
C307 H319 0.950 . S
C307 C338 1.383 . S
H308 C327 0.947 . S
H309 C328 0.946 . S
H310 C330 0.953 . S
H311 C331 0.945 . S
H312 C333 0.952 . S
H313 C334 0.949 . S
H314 C336 0.950 . S
H315 C337 0.948 . S
H316 C339 0.951 . S
H317 C304 0.947 . S
H318 C306 0.952 . S
H319 C307 0.950 . S
N320 C323 1.382 . S
N320 C325 1.363 . S
N321 C323 1.371 . S
N321 C324 1.372 . S
N322 C324 1.361 . S
N322 C325 1.377 . S
C323 N320 1.382 . S
C323 N321 1.371 . S
C323 C326 1.480 1_545 S
C324 N321 1.372 . S
C324 N322 1.361 . S
C324 C332 1.457 . S
C325 N320 1.363 . S
C325 N322 1.377 . S
C325 C338 1.479 . S
C326 C323 1.480 1_565 S
C326 C327 1.383 . S
C326 C331 1.385 . S
C327 H308 0.947 . S
C327 C326 1.383 . S
C327 C328 1.388 . S
C328 H309 0.946 . S
C328 C327 1.388 . S
C328 C329 1.384 . S
C329 C328 1.384 . S
C329 C330 1.377 . S
C330 H310 0.953 . S
C330 C329 1.377 . S
C330 C331 1.369 . S
C331 H311 0.945 . S
C331 C326 1.385 . S
C331 C330 1.369 . S
C332 C324 1.457 . S
C332 C333 1.372 . S
C332 C337 1.364 . S
C333 H312 0.952 . S
C333 C332 1.372 . S
C333 C334 1.389 . S
C334 H313 0.949 . S
C334 C333 1.389 . S
C334 C335 1.387 . S
C335 C334 1.387 . S
C335 C336 1.372 . S
C336 H314 0.950 . S
C336 C335 1.372 . S
C336 C337 1.379 . S
C337 H315 0.948 . S
C337 C332 1.364 . S
C337 C336 1.379 . S
C338 C307 1.383 . S
C338 C325 1.479 . S
C338 C339 1.398 . S
C339 C304 1.382 . S
C339 H316 0.951 . S
C339 C338 1.398 . S
C340 C341 1.384 . S
C340 H353 0.947 . S
C340 C375 1.382 . S
C341 C340 1.384 . S
C341 C342 1.378 . S
C342 C341 1.378 . S
C342 C343 1.378 . S
C342 H354 0.952 . S
C343 C342 1.378 . S
C343 H355 0.950 . S
C343 C374 1.383 . S
H344 C363 0.947 . S
H345 C364 0.946 . S
H346 C366 0.953 . S
H347 C367 0.945 . S
H348 C369 0.952 . S
H349 C370 0.949 . S
H350 C372 0.950 . S
H351 C373 0.948 . S
H352 C375 0.951 . S
H353 C340 0.947 . S
H354 C342 0.952 . S
H355 C343 0.950 . S
N356 C359 1.375 1_554 S
N356 C361 1.363 . S
N357 C359 1.378 . S
N357 C360 1.372 . S
N358 C360 1.361 . S
N358 C361 1.377 1_556 S
C359 N356 1.375 1_556 S
C359 N357 1.378 . S
C359 C362 1.480 . S
C360 N357 1.372 . S
C360 N358 1.361 . S
C360 C368 1.457 . S
C361 N356 1.363 . S
C361 N358 1.377 1_554 S
C361 C374 1.479 . S
C362 C359 1.480 . S
C362 C363 1.383 1_556 S
C362 C367 1.385 . S
C363 H344 0.947 . S
C363 C362 1.383 1_554 S
C363 C364 1.388 . S
C364 H345 0.946 . S
C364 C363 1.388 . S
C364 C365 1.384 1_554 S
C365 C364 1.384 1_556 S
C365 C366 1.377 . S
C366 H346 0.953 . S
C366 C365 1.377 . S
C366 C367 1.369 . S
C367 H347 0.945 . S
C367 C362 1.385 . S
C367 C366 1.369 . S
C368 C360 1.457 . S
C368 C369 1.372 . S
C368 C373 1.364 . S
C369 H348 0.952 . S
C369 C368 1.372 . S
C369 C370 1.389 . S
C370 H349 0.949 . S
C370 C369 1.389 . S
C370 C371 1.387 . S
C371 C370 1.387 . S
C371 C372 1.372 . S
C372 H350 0.950 . S
C372 C371 1.372 . S
C372 C373 1.379 . S
C373 H351 0.948 . S
C373 C368 1.364 . S
C373 C372 1.379 . S
C374 C343 1.383 . S
C374 C361 1.479 . S
C374 C375 1.398 . S
C375 C340 1.382 . S
C375 H352 0.951 . S
C375 C374 1.398 . S
C376 C377 1.349 . S
C376 C378 1.327 . S
C376 H401 0.950 . S
C377 C376 1.349 . S
C377 C393 1.349 . S
C378 C376 1.327 . S
C378 C397 1.429 . S
C378 H402 0.950 . S
C379 C396 1.574 . S
C379 C398 1.368 . S
C379 H403 0.949 . S
H380 C384 0.949 . S
C381 C382 1.349 . S
C381 C383 1.327 . S
C381 H404 0.950 . S
C382 C381 1.349 . S
C382 C394 1.349 . S
C383 C381 1.327 . S
C383 C399 1.429 . S
C383 H405 0.950 . S
C384 H380 0.949 . S
C384 C392 1.574 . S
C384 C400 1.368 . S
H385 C393 0.950 . S
H386 C391 0.950 . S
H387 C392 0.949 . S
H388 C394 0.950 . S
H389 C395 0.950 . S
H390 C396 0.949 . S
C391 H386 0.950 . S
C391 C393 1.327 . S
C391 C397 1.429 . S
C392 C384 1.574 . S
C392 H387 0.949 . S
C392 C398 1.368 . S
C393 C377 1.349 . S
C393 H385 0.950 . S
C393 C391 1.327 . S
C394 C382 1.349 . S
C394 H388 0.950 . S
C394 C395 1.327 . S
C395 H389 0.950 . S
C395 C394 1.327 . S
C395 C399 1.429 . S
C396 C379 1.574 . S
C396 H390 0.949 . S
C396 C400 1.368 . S
C397 C378 1.429 . S
C397 C391 1.429 . S
C397 C398 1.523 . S
C398 C379 1.368 . S
C398 C392 1.368 . S
C398 C397 1.523 . S
C399 C383 1.429 . S
C399 C395 1.429 . S
C399 C400 1.523 . S
C400 C384 1.368 . S
C400 C396 1.368 . S
C400 C399 1.523 . S
H401 C376 0.950 . S
H402 C378 0.950 . S
H403 C379 0.949 . S
H404 C381 0.950 . S
H405 C383 0.950 . S
C406 C407 1.349 . S
C406 C408 1.327 . S
C406 H431 0.950 . S
C407 C406 1.349 . S
C407 C423 1.349 . S
C408 C406 1.327 . S
C408 C427 1.429 . S
C408 H432 0.950 . S
C409 C426 1.574 . S
C409 C428 1.368 . S
C409 H433 0.949 . S
H410 C414 0.949 . S
C411 C412 1.349 . S
C411 C413 1.327 . S
C411 H434 0.950 . S
C412 C411 1.349 . S
C412 C424 1.349 . S
C413 C411 1.327 . S
C413 C429 1.429 . S
C413 H435 0.950 . S
C414 H410 0.949 . S
C414 C422 1.574 . S
C414 C430 1.368 . S
H415 C423 0.950 . S
H416 C421 0.950 . S
H417 C422 0.949 . S
H418 C424 0.950 . S
H419 C425 0.950 . S
H420 C426 0.949 . S
C421 H416 0.950 . S
C421 C423 1.327 . S
C421 C427 1.429 . S
C422 C414 1.574 . S
C422 H417 0.949 . S
C422 C428 1.368 . S
C423 C407 1.349 . S
C423 H415 0.950 . S
C423 C421 1.327 . S
C424 C412 1.349 . S
C424 H418 0.950 . S
C424 C425 1.327 . S
C425 H419 0.950 . S
C425 C424 1.327 . S
C425 C429 1.429 . S
C426 C409 1.574 . S
C426 H420 0.949 . S
C426 C430 1.368 . S
C427 C408 1.429 . S
C427 C421 1.429 . S
C427 C428 1.523 . S
C428 C409 1.368 . S
C428 C422 1.368 . S
C428 C427 1.523 . S
C429 C413 1.429 . S
C429 C425 1.429 . S
C429 C430 1.523 . S
C430 C414 1.368 . S
C430 C426 1.368 . S
C430 C429 1.523 . S
H431 C406 0.950 . S
H432 C408 0.950 . S
H433 C409 0.949 . S
H434 C411 0.950 . S
H435 C413 0.950 . S
C436 C437 1.349 . S
C436 C438 1.327 . S
C436 H461 0.950 . S
C437 C436 1.349 . S
C437 C453 1.349 . S
C438 C436 1.327 . S
C438 C457 1.429 . S
C438 H462 0.950 . S
C439 C456 1.574 . S
C439 C458 1.368 . S
C439 H463 0.949 . S
H440 C444 0.949 . S
C441 C442 1.349 . S
C441 C443 1.327 . S
C441 H464 0.950 . S
C442 C441 1.349 . S
C442 C454 1.349 . S
C443 C441 1.327 . S
C443 C459 1.429 . S
C443 H465 0.950 . S
C444 H440 0.949 . S
C444 C452 1.574 . S
C444 C460 1.368 . S
H445 C453 0.950 . S
H446 C451 0.950 . S
H447 C452 0.949 . S
H448 C454 0.950 . S
H449 C455 0.950 . S
H450 C456 0.949 . S
C451 H446 0.950 . S
C451 C453 1.327 . S
C451 C457 1.429 . S
C452 C444 1.574 . S
C452 H447 0.949 . S
C452 C458 1.368 . S
C453 C437 1.349 . S
C453 H445 0.950 . S
C453 C451 1.327 . S
C454 C442 1.349 . S
C454 H448 0.950 . S
C454 C455 1.327 . S
C455 H449 0.950 . S
C455 C454 1.327 . S
C455 C459 1.429 . S
C456 C439 1.574 . S
C456 H450 0.949 . S
C456 C460 1.368 . S
C457 C438 1.429 . S
C457 C451 1.429 . S
C457 C458 1.523 . S
C458 C439 1.368 . S
C458 C452 1.368 . S
C458 C457 1.523 . S
C459 C443 1.429 . S
C459 C455 1.429 . S
C459 C460 1.523 . S
C460 C444 1.368 . S
C460 C456 1.368 . S
C460 C459 1.523 . S
H461 C436 0.950 . S
H462 C438 0.950 . S
H463 C439 0.949 . S
H464 C441 0.950 . S
H465 C443 0.950 . S
C466 C467 1.349 . S
C466 C468 1.327 . S
C466 H491 0.950 . S
C467 C466 1.349 . S
C467 C483 1.349 . S
C468 C466 1.327 . S
C468 C487 1.429 . S
C468 H492 0.950 . S
C469 C486 1.574 . S
C469 C488 1.368 . S
C469 H493 0.949 . S
H470 C474 0.949 . S
C471 C472 1.349 . S
C471 C473 1.327 . S
C471 H494 0.950 . S
C472 C471 1.349 . S
C472 C484 1.349 . S
C473 C471 1.327 . S
C473 C489 1.429 . S
C473 H495 0.950 . S
C474 H470 0.949 . S
C474 C482 1.574 . S
C474 C490 1.368 . S
H475 C483 0.950 . S
H476 C481 0.950 . S
H477 C482 0.949 . S
H478 C484 0.950 . S
H479 C485 0.950 . S
H480 C486 0.949 . S
C481 H476 0.950 . S
C481 C483 1.327 . S
C481 C487 1.429 . S
C482 C474 1.574 . S
C482 H477 0.949 . S
C482 C488 1.368 . S
C483 C467 1.349 . S
C483 H475 0.950 . S
C483 C481 1.327 . S
C484 C472 1.349 . S
C484 H478 0.950 . S
C484 C485 1.327 . S
C485 H479 0.950 . S
C485 C484 1.327 . S
C485 C489 1.429 . S
C486 C469 1.574 . S
C486 H480 0.949 . S
C486 C490 1.368 . S
C487 C468 1.429 . S
C487 C481 1.429 . S
C487 C488 1.523 . S
C488 C469 1.368 . S
C488 C482 1.368 . S
C488 C487 1.523 . S
C489 C473 1.429 . S
C489 C485 1.429 . S
C489 C490 1.523 . S
C490 C474 1.368 . S
C490 C486 1.368 . S
C490 C489 1.523 . S
H491 C466 0.950 . S
H492 C468 0.950 . S
H493 C469 0.949 . S
H494 C471 0.950 . S
H495 C473 0.950 . S
C496 C497 1.349 . S
C496 C498 1.327 . S
C496 H521 0.950 . S
C497 C496 1.349 . S
C497 C513 1.349 . S
C498 C496 1.327 . S
C498 C517 1.429 . S
C498 H522 0.950 . S
C499 C516 1.574 . S
C499 C518 1.368 . S
C499 H523 0.949 . S
H500 C504 0.949 . S
C501 C502 1.349 . S
C501 C503 1.327 . S
C501 H524 0.950 . S
C502 C501 1.349 . S
C502 C514 1.349 . S
C503 C501 1.327 . S
C503 C519 1.429 . S
C503 H525 0.950 . S
C504 H500 0.949 . S
C504 C512 1.574 . S
C504 C520 1.368 . S
H505 C513 0.950 . S
H506 C511 0.950 . S
H507 C512 0.949 . S
H508 C514 0.950 . S
H509 C515 0.950 . S
H510 C516 0.949 . S
C511 H506 0.950 . S
C511 C513 1.327 . S
C511 C517 1.429 . S
C512 C504 1.574 . S
C512 H507 0.949 . S
C512 C518 1.368 . S
C513 C497 1.349 . S
C513 H505 0.950 . S
C513 C511 1.327 . S
C514 C502 1.349 . S
C514 H508 0.950 . S
C514 C515 1.327 . S
C515 H509 0.950 . S
C515 C514 1.327 . S
C515 C519 1.429 . S
C516 C499 1.574 . S
C516 H510 0.949 . S
C516 C520 1.368 . S
C517 C498 1.429 . S
C517 C511 1.429 . S
C517 C518 1.523 . S
C518 C499 1.368 . S
C518 C512 1.368 . S
C518 C517 1.523 . S
C519 C503 1.429 . S
C519 C515 1.429 . S
C519 C520 1.523 . S
C520 C504 1.368 . S
C520 C516 1.368 . S
C520 C519 1.523 . S
H521 C496 0.950 . S
H522 C498 0.950 . S
H523 C499 0.949 . S
H524 C501 0.950 . S
H525 C503 0.950 . S
C526 C527 1.349 . S
C526 C528 1.327 . S
C526 H551 0.950 . S
C527 C526 1.349 . S
C527 C543 1.349 . S
C528 C526 1.327 . S
C528 C547 1.429 . S
C528 H552 0.950 . S
C529 C546 1.574 . S
C529 C548 1.368 . S
C529 H553 0.949 . S
H530 C534 0.949 . S
C531 C532 1.349 . S
C531 C533 1.327 . S
C531 H554 0.950 . S
C532 C531 1.349 . S
C532 C544 1.349 . S
C533 C531 1.327 . S
C533 C549 1.429 . S
C533 H555 0.950 . S
C534 H530 0.949 . S
C534 C542 1.574 . S
C534 C550 1.368 . S
H535 C543 0.950 . S
H536 C541 0.950 . S
H537 C542 0.949 . S
H538 C544 0.950 . S
H539 C545 0.950 . S
H540 C546 0.949 . S
C541 H536 0.950 . S
C541 C543 1.327 . S
C541 C547 1.429 . S
C542 C534 1.574 . S
C542 H537 0.949 . S
C542 C548 1.368 . S
C543 C527 1.349 . S
C543 H535 0.950 . S
C543 C541 1.327 . S
C544 C532 1.349 . S
C544 H538 0.950 . S
C544 C545 1.327 . S
C545 H539 0.950 . S
C545 C544 1.327 . S
C545 C549 1.429 . S
C546 C529 1.574 . S
C546 H540 0.949 . S
C546 C550 1.368 . S
C547 C528 1.429 . S
C547 C541 1.429 . S
C547 C548 1.523 . S
C548 C529 1.368 . S
C548 C542 1.368 . S
C548 C547 1.523 . S
C549 C533 1.429 . S
C549 C545 1.429 . S
C549 C550 1.523 . S
C550 C534 1.368 . S
C550 C546 1.368 . S
C550 C549 1.523 . S
H551 C526 0.950 . S
H552 C528 0.950 . S
H553 C529 0.949 . S
H554 C531 0.950 . S
H555 C533 0.950 . S
C556 C557 1.349 . S
C556 C558 1.327 . S
C556 H581 0.950 . S
C557 C556 1.349 . S
C557 C573 1.349 . S
C558 C556 1.327 . S
C558 C577 1.429 . S
C558 H582 0.950 . S
C559 C576 1.574 . S
C559 C578 1.368 . S
C559 H583 0.949 . S
H560 C564 0.949 . S
C561 C562 1.349 . S
C561 C563 1.327 . S
C561 H584 0.950 . S
C562 C561 1.349 . S
C562 C574 1.349 . S
C563 C561 1.327 . S
C563 C579 1.429 . S
C563 H585 0.950 . S
C564 H560 0.949 . S
C564 C572 1.574 . S
C564 C580 1.368 . S
H565 C573 0.950 . S
H566 C571 0.950 . S
H567 C572 0.949 . S
H568 C574 0.950 . S
H569 C575 0.950 . S
H570 C576 0.949 . S
C571 H566 0.950 . S
C571 C573 1.327 . S
C571 C577 1.429 . S
C572 C564 1.574 . S
C572 H567 0.949 . S
C572 C578 1.368 . S
C573 C557 1.349 . S
C573 H565 0.950 . S
C573 C571 1.327 . S
C574 C562 1.349 . S
C574 H568 0.950 . S
C574 C575 1.327 . S
C575 H569 0.950 . S
C575 C574 1.327 . S
C575 C579 1.429 . S
C576 C559 1.574 . S
C576 H570 0.949 . S
C576 C580 1.368 . S
C577 C558 1.429 . S
C577 C571 1.429 . S
C577 C578 1.523 . S
C578 C559 1.368 . S
C578 C572 1.368 . S
C578 C577 1.523 . S
C579 C563 1.429 . S
C579 C575 1.429 . S
C579 C580 1.523 . S
C580 C564 1.368 . S
C580 C576 1.368 . S
C580 C579 1.523 . S
H581 C556 0.950 . S
H582 C558 0.950 . S
H583 C559 0.949 . S
H584 C561 0.950 . S
H585 C563 0.950 . S
C586 C587 1.349 . S
C586 C588 1.327 . S
C586 H611 0.950 . S
C587 C586 1.349 . S
C587 C603 1.349 . S
C588 C586 1.327 . S
C588 C607 1.429 . S
C588 H612 0.950 . S
C589 C606 1.574 . S
C589 C608 1.368 . S
C589 H613 0.949 . S
H590 C594 0.949 . S
C591 C592 1.349 . S
C591 C593 1.327 . S
C591 H614 0.950 . S
C592 C591 1.349 . S
C592 C604 1.349 . S
C593 C591 1.327 . S
C593 C609 1.429 . S
C593 H615 0.950 . S
C594 H590 0.949 . S
C594 C602 1.574 . S
C594 C610 1.368 . S
H595 C603 0.950 . S
H596 C601 0.950 . S
H597 C602 0.949 . S
H598 C604 0.950 . S
H599 C605 0.950 . S
H600 C606 0.949 . S
C601 H596 0.950 . S
C601 C603 1.327 . S
C601 C607 1.429 . S
C602 C594 1.574 . S
C602 H597 0.949 . S
C602 C608 1.368 . S
C603 C587 1.349 . S
C603 H595 0.950 . S
C603 C601 1.327 . S
C604 C592 1.349 . S
C604 H598 0.950 . S
C604 C605 1.327 . S
C605 H599 0.950 . S
C605 C604 1.327 . S
C605 C609 1.429 . S
C606 C589 1.574 . S
C606 H600 0.949 . S
C606 C610 1.368 . S
C607 C588 1.429 . S
C607 C601 1.429 . S
C607 C608 1.523 . S
C608 C589 1.368 . S
C608 C602 1.368 . S
C608 C607 1.523 . S
C609 C593 1.429 . S
C609 C605 1.429 . S
C609 C610 1.523 . S
C610 C594 1.368 . S
C610 C606 1.368 . S
C610 C609 1.523 . S
H611 C586 0.950 . S
H612 C588 0.950 . S
H613 C589 0.949 . S
H614 C591 0.950 . S
H615 C593 0.950 . S
C616 C617 1.349 . S
C616 C618 1.327 . S
C616 H641 0.950 . S
C617 C616 1.349 . S
C617 C633 1.349 . S
C618 C616 1.327 . S
C618 C637 1.429 . S
C618 H642 0.950 . S
C619 C636 1.574 . S
C619 C638 1.368 . S
C619 H643 0.949 . S
H620 C624 0.949 . S
C621 C622 1.349 . S
C621 C623 1.327 . S
C621 H644 0.950 . S
C622 C621 1.349 . S
C622 C634 1.349 . S
C623 C621 1.327 . S
C623 C639 1.429 . S
C623 H645 0.950 . S
C624 H620 0.949 . S
C624 C632 1.574 . S
C624 C640 1.368 . S
H625 C633 0.950 . S
H626 C631 0.950 . S
H627 C632 0.949 . S
H628 C634 0.950 . S
H629 C635 0.950 . S
H630 C636 0.949 . S
C631 H626 0.950 . S
C631 C633 1.327 . S
C631 C637 1.429 . S
C632 C624 1.574 . S
C632 H627 0.949 . S
C632 C638 1.368 . S
C633 C617 1.349 . S
C633 H625 0.950 . S
C633 C631 1.327 . S
C634 C622 1.349 . S
C634 H628 0.950 . S
C634 C635 1.327 . S
C635 H629 0.950 . S
C635 C634 1.327 . S
C635 C639 1.429 . S
C636 C619 1.574 . S
C636 H630 0.949 . S
C636 C640 1.368 . S
C637 C618 1.429 . S
C637 C631 1.429 . S
C637 C638 1.523 . S
C638 C619 1.368 . S
C638 C632 1.368 . S
C638 C637 1.523 . S
C639 C623 1.429 . S
C639 C635 1.429 . S
C639 C640 1.523 . S
C640 C624 1.368 . S
C640 C636 1.368 . S
C640 C639 1.523 . S
H641 C616 0.950 . S
H642 C618 0.950 . S
H643 C619 0.949 . S
H644 C621 0.950 . S
H645 C623 0.950 . S
C646 C647 1.349 . S
C646 C648 1.327 . S
C646 H671 0.950 . S
C647 C646 1.349 . S
C647 C663 1.349 . S
C648 C646 1.327 . S
C648 C667 1.429 . S
C648 H672 0.950 . S
C649 C666 1.574 . S
C649 C668 1.368 . S
C649 H673 0.949 . S
H650 C654 0.949 . S
C651 C652 1.349 . S
C651 C653 1.327 . S
C651 H674 0.950 . S
C652 C651 1.349 . S
C652 C664 1.349 . S
C653 C651 1.327 . S
C653 C669 1.429 . S
C653 H675 0.950 . S
C654 H650 0.949 . S
C654 C662 1.574 . S
C654 C670 1.368 . S
H655 C663 0.950 . S
H656 C661 0.950 . S
H657 C662 0.949 . S
H658 C664 0.950 . S
H659 C665 0.950 . S
H660 C666 0.949 . S
C661 H656 0.950 . S
C661 C663 1.327 . S
C661 C667 1.429 . S
C662 C654 1.574 . S
C662 H657 0.949 . S
C662 C668 1.368 . S
C663 C647 1.349 . S
C663 H655 0.950 . S
C663 C661 1.327 . S
C664 C652 1.349 . S
C664 H658 0.950 . S
C664 C665 1.327 . S
C665 H659 0.950 . S
C665 C664 1.327 . S
C665 C669 1.429 . S
C666 C649 1.574 . S
C666 H660 0.949 . S
C666 C670 1.368 . S
C667 C648 1.429 . S
C667 C661 1.429 . S
C667 C668 1.523 . S
C668 C649 1.368 . S
C668 C662 1.368 . S
C668 C667 1.523 . S
C669 C653 1.429 . S
C669 C665 1.429 . S
C669 C670 1.523 . S
C670 C654 1.368 . S
C670 C666 1.368 . S
C670 C669 1.523 . S
H671 C646 0.950 . S
H672 C648 0.950 . S
H673 C649 0.949 . S
H674 C651 0.950 . S
H675 C653 0.950 . S
C676 C677 1.349 . S
C676 C678 1.327 . S
C676 H701 0.950 . S
C677 C676 1.349 . S
C677 C693 1.349 . S
C678 C676 1.327 . S
C678 C697 1.429 . S
C678 H702 0.950 . S
C679 C696 1.574 . S
C679 C698 1.368 . S
C679 H703 0.949 . S
H680 C684 0.949 . S
C681 C682 1.349 . S
C681 C683 1.327 . S
C681 H704 0.950 . S
C682 C681 1.349 . S
C682 C694 1.349 . S
C683 C681 1.327 . S
C683 C699 1.429 . S
C683 H705 0.950 . S
C684 H680 0.949 . S
C684 C692 1.574 . S
C684 C700 1.368 . S
H685 C693 0.950 . S
H686 C691 0.950 . S
H687 C692 0.949 . S
H688 C694 0.950 . S
H689 C695 0.950 . S
H690 C696 0.949 . S
C691 H686 0.950 . S
C691 C693 1.327 . S
C691 C697 1.429 . S
C692 C684 1.574 . S
C692 H687 0.949 . S
C692 C698 1.368 . S
C693 C677 1.349 . S
C693 H685 0.950 . S
C693 C691 1.327 . S
C694 C682 1.349 . S
C694 H688 0.950 . S
C694 C695 1.327 . S
C695 H689 0.950 . S
C695 C694 1.327 . S
C695 C699 1.429 . S
C696 C679 1.574 . S
C696 H690 0.949 . S
C696 C700 1.368 . S
C697 C678 1.429 . S
C697 C691 1.429 . S
C697 C698 1.523 . S
C698 C679 1.368 . S
C698 C692 1.368 . S
C698 C697 1.523 . S
C699 C683 1.429 . S
C699 C695 1.429 . S
C699 C700 1.523 . S
C700 C684 1.368 . S
C700 C696 1.368 . S
C700 C699 1.523 . S
H701 C676 0.950 . S
H702 C678 0.950 . S
H703 C679 0.949 . S
H704 C681 0.950 . S
H705 C683 0.950 . S
C706 C707 1.349 . S
C706 C708 1.327 . S
C706 H731 0.950 . S
C707 C706 1.349 . S
C707 C723 1.349 . S
C708 C706 1.327 . S
C708 C727 1.429 . S
C708 H732 0.950 . S
C709 C726 1.574 . S
C709 C728 1.368 . S
C709 H733 0.949 . S
H710 C714 0.949 . S
C711 C712 1.349 . S
C711 C713 1.327 . S
C711 H734 0.950 . S
C712 C711 1.349 . S
C712 C724 1.349 . S
C713 C711 1.327 . S
C713 C729 1.429 . S
C713 H735 0.950 . S
C714 H710 0.949 . S
C714 C722 1.574 . S
C714 C730 1.368 . S
H715 C723 0.950 . S
H716 C721 0.950 . S
H717 C722 0.949 . S
H718 C724 0.950 . S
H719 C725 0.950 . S
H720 C726 0.949 . S
C721 H716 0.950 . S
C721 C723 1.327 . S
C721 C727 1.429 . S
C722 C714 1.574 . S
C722 H717 0.949 . S
C722 C728 1.368 . S
C723 C707 1.349 . S
C723 H715 0.950 . S
C723 C721 1.327 . S
C724 C712 1.349 . S
C724 H718 0.950 . S
C724 C725 1.327 . S
C725 H719 0.950 . S
C725 C724 1.327 . S
C725 C729 1.429 . S
C726 C709 1.574 . S
C726 H720 0.949 . S
C726 C730 1.368 . S
C727 C708 1.429 . S
C727 C721 1.429 . S
C727 C728 1.523 . S
C728 C709 1.368 . S
C728 C722 1.368 . S
C728 C727 1.523 . S
C729 C713 1.429 . S
C729 C725 1.429 . S
C729 C730 1.523 . S
C730 C714 1.368 . S
C730 C726 1.368 . S
C730 C729 1.523 . S
H731 C706 0.950 . S
H732 C708 0.950 . S
H733 C709 0.949 . S
H734 C711 0.950 . S
H735 C713 0.950 . S
C736 C737 1.349 . S
C736 C738 1.327 . S
C736 H761 0.950 . S
C737 C736 1.349 . S
C737 C753 1.349 . S
C738 C736 1.327 . S
C738 C757 1.429 . S
C738 H762 0.950 . S
C739 C756 1.574 . S
C739 C758 1.368 . S
C739 H763 0.949 . S
H740 C744 0.949 . S
C741 C742 1.349 . S
C741 C743 1.327 . S
C741 H764 0.950 . S
C742 C741 1.349 . S
C742 C754 1.349 . S
C743 C741 1.327 . S
C743 C759 1.429 . S
C743 H765 0.950 . S
C744 H740 0.949 . S
C744 C752 1.574 . S
C744 C760 1.368 . S
H745 C753 0.950 . S
H746 C751 0.950 . S
H747 C752 0.949 . S
H748 C754 0.950 . S
H749 C755 0.950 . S
H750 C756 0.949 . S
C751 H746 0.950 . S
C751 C753 1.327 . S
C751 C757 1.429 . S
C752 C744 1.574 . S
C752 H747 0.949 . S
C752 C758 1.368 . S
C753 C737 1.349 . S
C753 H745 0.950 . S
C753 C751 1.327 . S
C754 C742 1.349 . S
C754 H748 0.950 . S
C754 C755 1.327 . S
C755 H749 0.950 . S
C755 C754 1.327 . S
C755 C759 1.429 . S
C756 C739 1.574 . S
C756 H750 0.949 . S
C756 C760 1.368 . S
C757 C738 1.429 . S
C757 C751 1.429 . S
C757 C758 1.523 . S
C758 C739 1.368 . S
C758 C752 1.368 . S
C758 C757 1.523 . S
C759 C743 1.429 . S
C759 C755 1.429 . S
C759 C760 1.523 . S
C760 C744 1.368 . S
C760 C756 1.368 . S
C760 C759 1.523 . S
H761 C736 0.950 . S
H762 C738 0.950 . S
H763 C739 0.949 . S
H764 C741 0.950 . S
H765 C743 0.950 . S
C766 C767 1.349 . S
C766 C768 1.327 . S
C766 H791 0.950 . S
C767 C766 1.349 . S
C767 C783 1.349 . S
C768 C766 1.327 . S
C768 C787 1.429 . S
C768 H792 0.950 . S
C769 C786 1.574 . S
C769 C788 1.368 . S
C769 H793 0.949 . S
H770 C774 0.949 . S
C771 C772 1.349 . S
C771 C773 1.327 . S
C771 H794 0.950 . S
C772 C771 1.349 . S
C772 C784 1.349 . S
C773 C771 1.327 . S
C773 C789 1.429 . S
C773 H795 0.950 . S
C774 H770 0.949 . S
C774 C782 1.574 . S
C774 C790 1.368 . S
H775 C783 0.950 . S
H776 C781 0.950 . S
H777 C782 0.949 . S
H778 C784 0.950 . S
H779 C785 0.950 . S
H780 C786 0.949 . S
C781 H776 0.950 . S
C781 C783 1.327 . S
C781 C787 1.429 . S
C782 C774 1.574 . S
C782 H777 0.949 . S
C782 C788 1.368 . S
C783 C767 1.349 . S
C783 H775 0.950 . S
C783 C781 1.327 . S
C784 C772 1.349 . S
C784 H778 0.950 . S
C784 C785 1.327 . S
C785 H779 0.950 . S
C785 C784 1.327 . S
C785 C789 1.429 . S
C786 C769 1.574 . S
C786 H780 0.949 . S
C786 C790 1.368 . S
C787 C768 1.429 . S
C787 C781 1.429 . S
C787 C788 1.523 . S
C788 C769 1.368 . S
C788 C782 1.368 . S
C788 C787 1.523 . S
C789 C773 1.429 . S
C789 C785 1.429 . S
C789 C790 1.523 . S
C790 C774 1.368 . S
C790 C786 1.368 . S
C790 C789 1.523 . S
H791 C766 0.950 . S
H792 C768 0.950 . S
H793 C769 0.949 . S
H794 C771 0.950 . S
H795 C773 0.950 . S
C796 C797 1.349 . S
C796 C798 1.327 . S
C796 H821 0.950 . S
C797 C796 1.349 . S
C797 C813 1.349 . S
C798 C796 1.327 . S
C798 C817 1.429 . S
C798 H822 0.950 . S
C799 C816 1.574 . S
C799 C818 1.368 . S
C799 H823 0.949 . S
H800 C804 0.949 . S
C801 C802 1.349 . S
C801 C803 1.327 . S
C801 H824 0.950 . S
C802 C801 1.349 . S
C802 C814 1.349 . S
C803 C801 1.327 . S
C803 C819 1.429 . S
C803 H825 0.950 . S
C804 H800 0.949 . S
C804 C812 1.574 . S
C804 C820 1.368 . S
H805 C813 0.950 . S
H806 C811 0.950 . S
H807 C812 0.949 . S
H808 C814 0.950 . S
H809 C815 0.950 . S
H810 C816 0.949 . S
C811 H806 0.950 . S
C811 C813 1.327 . S
C811 C817 1.429 . S
C812 C804 1.574 . S
C812 H807 0.949 . S
C812 C818 1.368 . S
C813 C797 1.349 . S
C813 H805 0.950 . S
C813 C811 1.327 . S
C814 C802 1.349 . S
C814 H808 0.950 . S
C814 C815 1.327 . S
C815 H809 0.950 . S
C815 C814 1.327 . S
C815 C819 1.429 . S
C816 C799 1.574 . S
C816 H810 0.949 . S
C816 C820 1.368 . S
C817 C798 1.429 . S
C817 C811 1.429 . S
C817 C818 1.523 . S
C818 C799 1.368 . S
C818 C812 1.368 . S
C818 C817 1.523 . S
C819 C803 1.429 . S
C819 C815 1.429 . S
C819 C820 1.523 . S
C820 C804 1.368 . S
C820 C816 1.368 . S
C820 C819 1.523 . S
H821 C796 0.950 . S
H822 C798 0.950 . S
H823 C799 0.949 . S
H824 C801 0.950 . S
H825 C803 0.950 . S
C826 C827 1.349 . S
C826 C828 1.327 . S
C826 H851 0.950 . S
C827 C826 1.349 . S
C827 C843 1.349 . S
C828 C826 1.327 . S
C828 C847 1.429 . S
C828 H852 0.950 . S
C829 C846 1.574 . S
C829 C848 1.368 . S
C829 H853 0.949 . S
H830 C834 0.949 . S
C831 C832 1.349 . S
C831 C833 1.327 . S
C831 H854 0.950 . S
C832 C831 1.349 . S
C832 C844 1.349 . S
C833 C831 1.327 . S
C833 C849 1.429 . S
C833 H855 0.950 . S
C834 H830 0.949 . S
C834 C842 1.574 . S
C834 C850 1.368 . S
H835 C843 0.950 . S
H836 C841 0.950 . S
H837 C842 0.949 . S
H838 C844 0.950 . S
H839 C845 0.950 . S
H840 C846 0.949 . S
C841 H836 0.950 . S
C841 C843 1.327 . S
C841 C847 1.429 . S
C842 C834 1.574 . S
C842 H837 0.949 . S
C842 C848 1.368 . S
C843 C827 1.349 . S
C843 H835 0.950 . S
C843 C841 1.327 . S
C844 C832 1.349 . S
C844 H838 0.950 . S
C844 C845 1.327 . S
C845 H839 0.950 . S
C845 C844 1.327 . S
C845 C849 1.429 . S
C846 C829 1.574 . S
C846 H840 0.949 . S
C846 C850 1.368 . S
C847 C828 1.429 . S
C847 C841 1.429 . S
C847 C848 1.523 . S
C848 C829 1.368 . S
C848 C842 1.368 . S
C848 C847 1.523 . S
C849 C833 1.429 . S
C849 C845 1.429 . S
C849 C850 1.523 . S
C850 C834 1.368 . S
C850 C846 1.368 . S
C850 C849 1.523 . S
H851 C826 0.950 . S
H852 C828 0.950 . S
H853 C829 0.949 . S
H854 C831 0.950 . S
H855 C833 0.950 . S
C856 C857 1.356 . S
C856 C858 1.327 . S
C856 H881 0.950 . S
C857 C856 1.356 . S
C857 C873 1.342 1_554 S
C858 C856 1.327 . S
C858 C877 1.435 . S
C858 H882 0.950 . S
C859 C876 1.574 . S
C859 C878 1.361 1_556 S
C859 H883 0.949 . S
H860 C864 0.949 . S
C861 C862 1.344 1_556 S
C861 C863 1.327 . S
C861 H884 0.950 . S
C862 C861 1.344 1_554 S
C862 C874 1.354 . S
C863 C861 1.327 . S
C863 C879 1.423 1_556 S
C863 H885 0.950 . S
C864 H860 0.949 . S
C864 C872 1.574 . S
C864 C880 1.375 . S
H865 C873 0.950 . S
H866 C871 0.950 . S
H867 C872 0.949 . S
H868 C874 0.950 . S
H869 C875 0.950 . S
H870 C876 0.949 . S
C871 H866 0.950 . S
C871 C873 1.327 . S
C871 C877 1.422 1_556 S
C872 C864 1.574 . S
C872 H867 0.949 . S
C872 C878 1.375 . S
C873 C857 1.342 1_556 S
C873 H865 0.950 . S
C873 C871 1.327 . S
C874 C862 1.354 . S
C874 H868 0.950 . S
C874 C875 1.327 . S
C875 H869 0.950 . S
C875 C874 1.327 . S
C875 C879 1.434 . S
C876 C859 1.574 . S
C876 H870 0.949 . S
C876 C880 1.362 1_556 S
C877 C858 1.435 . S
C877 C871 1.422 1_554 S
C877 C878 1.523 . S
C878 C859 1.361 1_554 S
C878 C872 1.375 . S
C878 C877 1.523 . S
C879 C863 1.423 1_554 S
C879 C875 1.434 . S
C879 C880 1.523 . S
C880 C864 1.375 . S
C880 C876 1.362 1_554 S
C880 C879 1.523 . S
H881 C856 0.950 . S
H882 C858 0.950 . S
H883 C859 0.949 . S
H884 C861 0.950 . S
H885 C863 0.950 . S
C886 C887 1.349 . S
C886 C888 1.327 . S
C886 H911 0.950 . S
C887 C886 1.349 . S
C887 C903 1.349 . S
C888 C886 1.327 . S
C888 C907 1.429 . S
C888 H912 0.950 . S
C889 C906 1.574 . S
C889 C908 1.368 . S
C889 H913 0.949 . S
H890 C894 0.949 . S
C891 C892 1.349 . S
C891 C893 1.327 . S
C891 H914 0.950 . S
C892 C891 1.349 . S
C892 C904 1.349 . S
C893 C891 1.327 . S
C893 C909 1.429 . S
C893 H915 0.950 . S
C894 H890 0.949 . S
C894 C902 1.574 . S
C894 C910 1.368 . S
H895 C903 0.950 . S
H896 C901 0.950 . S
H897 C902 0.949 . S
H898 C904 0.950 . S
H899 C905 0.950 . S
H900 C906 0.949 . S
C901 H896 0.950 . S
C901 C903 1.327 . S
C901 C907 1.429 . S
C902 C894 1.574 . S
C902 H897 0.949 . S
C902 C908 1.368 . S
C903 C887 1.349 . S
C903 H895 0.950 . S
C903 C901 1.327 . S
C904 C892 1.349 . S
C904 H898 0.950 . S
C904 C905 1.327 . S
C905 H899 0.950 . S
C905 C904 1.327 . S
C905 C909 1.429 . S
C906 C889 1.574 . S
C906 H900 0.949 . S
C906 C910 1.368 . S
C907 C888 1.429 . S
C907 C901 1.429 . S
C907 C908 1.523 . S
C908 C889 1.368 . S
C908 C902 1.368 . S
C908 C907 1.523 . S
C909 C893 1.429 . S
C909 C905 1.429 . S
C909 C910 1.523 . S
C910 C894 1.368 . S
C910 C906 1.368 . S
C910 C909 1.523 . S
H911 C886 0.950 . S
H912 C888 0.950 . S
H913 C889 0.949 . S
H914 C891 0.950 . S
H915 C893 0.950 . S
C916 C917 1.334 1_556 S
C916 C918 1.327 . S
C916 H941 0.950 . S
C917 C916 1.334 1_554 S
C917 C933 1.364 . S
C918 C916 1.327 . S
C918 C937 1.414 1_556 S
C918 H942 0.950 . S
C919 C936 1.574 . S
C919 C938 1.385 . S
C919 H943 0.949 . S
H920 C924 0.949 . S
C921 C922 1.366 . S
C921 C923 1.327 . S
C921 H944 0.950 . S
C922 C921 1.366 . S
C922 C934 1.332 1_554 S
C923 C921 1.327 . S
C923 C939 1.445 . S
C923 H945 0.950 . S
C924 H920 0.949 . S
C924 C932 1.574 . S
C924 C940 1.351 1_556 S
H925 C933 0.950 . S
H926 C931 0.950 . S
H927 C932 0.949 . S
H928 C934 0.950 . S
H929 C935 0.950 . S
H930 C936 0.949 . S
C931 H926 0.950 . S
C931 C933 1.327 . S
C931 C937 1.444 . S
C932 C924 1.574 . S
C932 H927 0.949 . S
C932 C938 1.352 1_556 S
C933 C917 1.364 . S
C933 H925 0.950 . S
C933 C931 1.327 . S
C934 C922 1.332 1_556 S
C934 H928 0.950 . S
C934 C935 1.327 . S
C935 H929 0.950 . S
C935 C934 1.327 . S
C935 C939 1.413 1_556 S
C936 C919 1.574 . S
C936 H930 0.949 . S
C936 C940 1.386 . S
C937 C918 1.414 1_554 S
C937 C931 1.444 . S
C937 C938 1.523 . S
C938 C919 1.385 . S
C938 C932 1.352 1_554 S
C938 C937 1.523 . S
C939 C923 1.445 . S
C939 C935 1.413 1_554 S
C939 C940 1.523 . S
C940 C924 1.351 1_554 S
C940 C936 1.386 . S
C940 C939 1.523 . S
H941 C916 0.950 . S
H942 C918 0.950 . S
H943 C919 0.949 . S
H944 C921 0.950 . S
H945 C923 0.950 . S
C946 C947 1.349 . S
C946 C948 1.327 . S
C946 H971 0.950 . S
C947 C946 1.349 . S
C947 C963 1.349 . S
C948 C946 1.327 . S
C948 C967 1.429 . S
C948 H972 0.950 . S
C949 C966 1.574 . S
C949 C968 1.368 . S
C949 H973 0.949 . S
H950 C954 0.949 . S
C951 C952 1.349 . S
C951 C953 1.327 . S
C951 H974 0.950 . S
C952 C951 1.349 . S
C952 C964 1.349 . S
C953 C951 1.327 . S
C953 C969 1.429 . S
C953 H975 0.950 . S
C954 H950 0.949 . S
C954 C962 1.574 . S
C954 C970 1.368 . S
H955 C963 0.950 . S
H956 C961 0.950 . S
H957 C962 0.949 . S
H958 C964 0.950 . S
H959 C965 0.950 . S
H960 C966 0.949 . S
C961 H956 0.950 . S
C961 C963 1.327 . S
C961 C967 1.429 . S
C962 C954 1.574 . S
C962 H957 0.949 . S
C962 C968 1.368 . S
C963 C947 1.349 . S
C963 H955 0.950 . S
C963 C961 1.327 . S
C964 C952 1.349 . S
C964 H958 0.950 . S
C964 C965 1.327 . S
C965 H959 0.950 . S
C965 C964 1.327 . S
C965 C969 1.429 . S
C966 C949 1.574 . S
C966 H960 0.949 . S
C966 C970 1.368 . S
C967 C948 1.429 . S
C967 C961 1.429 . S
C967 C968 1.523 . S
C968 C949 1.368 . S
C968 C962 1.368 . S
C968 C967 1.523 . S
C969 C953 1.429 . S
C969 C965 1.429 . S
C969 C970 1.523 . S
C970 C954 1.368 . S
C970 C966 1.368 . S
C970 C969 1.523 . S
H971 C946 0.950 . S
H972 C948 0.950 . S
H973 C949 0.949 . S
H974 C951 0.950 . S
H975 C953 0.950 . S
C976 C977 1.349 . S
C976 C978 1.327 . S
C976 H1001 0.950 . S
C977 C976 1.349 . S
C977 C993 1.349 . S
C978 C976 1.327 . S
C978 C997 1.429 . S
C978 H1002 0.950 . S
C979 C996 1.574 . S
C979 C998 1.368 . S
C979 H1003 0.949 . S
H980 C984 0.949 . S
C981 C982 1.349 . S
C981 C983 1.327 . S
C981 H1004 0.950 . S
C982 C981 1.349 . S
C982 C994 1.349 . S
C983 C981 1.327 . S
C983 C999 1.429 . S
C983 H1005 0.950 . S
C984 H980 0.949 . S
C984 C992 1.574 . S
C984 C1000 1.368 . S
H985 C993 0.950 . S
H986 C991 0.950 . S
H987 C992 0.949 . S
H988 C994 0.950 . S
H989 C995 0.950 . S
H990 C996 0.949 . S
C991 H986 0.950 . S
C991 C993 1.327 . S
C991 C997 1.429 . S
C992 C984 1.574 . S
C992 H987 0.949 . S
C992 C998 1.368 . S
C993 C977 1.349 . S
C993 H985 0.950 . S
C993 C991 1.327 . S
C994 C982 1.349 . S
C994 H988 0.950 . S
C994 C995 1.327 . S
C995 H989 0.950 . S
C995 C994 1.327 . S
C995 C999 1.429 . S
C996 C979 1.574 . S
C996 H990 0.949 . S
C996 C1000 1.368 . S
C997 C978 1.429 . S
C997 C991 1.429 . S
C997 C998 1.523 . S
C998 C979 1.368 . S
C998 C992 1.368 . S
C998 C997 1.523 . S
C999 C983 1.429 . S
C999 C995 1.429 . S
C999 C1000 1.523 . S
C1000 C984 1.368 . S
C1000 C996 1.368 . S
C1000 C999 1.523 . S
H1001 C976 0.950 . S
H1002 C978 0.950 . S
H1003 C979 0.949 . S
H1004 C981 0.950 . S
H1005 C983 0.950 . S
C1006 C1007 1.364 . S
C1006 C1008 1.327 . S
C1006 H1031 0.950 . S
C1007 C1006 1.364 . S
C1007 C1023 1.334 1_554 S
C1008 C1006 1.327 . S
C1008 C1027 1.443 . S
C1008 H1032 0.950 . S
C1009 C1026 1.574 . S
C1009 C1028 1.352 1_556 S
C1009 H1033 0.949 . S
H1010 C1014 0.949 . S
C1011 C1012 1.332 1_556 S
C1011 C1013 1.327 . S
C1011 H1034 0.950 . S
C1012 C1011 1.332 1_554 S
C1012 C1024 1.366 . S
C1013 C1011 1.327 . S
C1013 C1029 1.413 1_556 S
C1013 H1035 0.950 . S
C1014 H1010 0.949 . S
C1014 C1022 1.574 . S
C1014 C1030 1.385 . S
H1015 C1023 0.950 . S
H1016 C1021 0.950 . S
H1017 C1022 0.949 . S
H1018 C1024 0.950 . S
H1019 C1025 0.950 . S
H1020 C1026 0.949 . S
C1021 H1016 0.950 . S
C1021 C1023 1.327 . S
C1021 C1027 1.414 1_556 S
C1022 C1014 1.574 . S
C1022 H1017 0.949 . S
C1022 C1028 1.385 . S
C1023 C1007 1.334 1_556 S
C1023 H1015 0.950 . S
C1023 C1021 1.327 . S
C1024 C1012 1.366 . S
C1024 H1018 0.950 . S
C1024 C1025 1.327 . S
C1025 H1019 0.950 . S
C1025 C1024 1.327 . S
C1025 C1029 1.444 . S
C1026 C1009 1.574 . S
C1026 H1020 0.949 . S
C1026 C1030 1.351 1_556 S
C1027 C1008 1.443 . S
C1027 C1021 1.414 1_554 S
C1027 C1028 1.523 . S
C1028 C1009 1.352 1_554 S
C1028 C1022 1.385 . S
C1028 C1027 1.523 . S
C1029 C1013 1.413 1_554 S
C1029 C1025 1.444 . S
C1029 C1030 1.523 . S
C1030 C1014 1.385 . S
C1030 C1026 1.351 1_554 S
C1030 C1029 1.523 . S
H1031 C1006 0.950 . S
H1032 C1008 0.950 . S
H1033 C1009 0.949 . S
H1034 C1011 0.950 . S
H1035 C1013 0.950 . S
C1036 C1037 1.349 . S
C1036 C1038 1.327 . S
C1036 H1061 0.950 . S
C1037 C1036 1.349 . S
C1037 C1053 1.349 . S
C1038 C1036 1.327 . S
C1038 C1057 1.429 . S
C1038 H1062 0.950 . S
C1039 C1056 1.574 . S
C1039 C1058 1.368 . S
C1039 H1063 0.949 . S
H1040 C1044 0.949 . S
C1041 C1042 1.349 . S
C1041 C1043 1.327 . S
C1041 H1064 0.950 . S
C1042 C1041 1.349 . S
C1042 C1054 1.349 . S
C1043 C1041 1.327 . S
C1043 C1059 1.429 . S
C1043 H1065 0.950 . S
C1044 H1040 0.949 . S
C1044 C1052 1.574 . S
C1044 C1060 1.368 . S
H1045 C1053 0.950 . S
H1046 C1051 0.950 . S
H1047 C1052 0.949 . S
H1048 C1054 0.950 . S
H1049 C1055 0.950 . S
H1050 C1056 0.949 . S
C1051 H1046 0.950 . S
C1051 C1053 1.327 . S
C1051 C1057 1.429 . S
C1052 C1044 1.574 . S
C1052 H1047 0.949 . S
C1052 C1058 1.368 . S
C1053 C1037 1.349 . S
C1053 H1045 0.950 . S
C1053 C1051 1.327 . S
C1054 C1042 1.349 . S
C1054 H1048 0.950 . S
C1054 C1055 1.327 . S
C1055 H1049 0.950 . S
C1055 C1054 1.327 . S
C1055 C1059 1.429 . S
C1056 C1039 1.574 . S
C1056 H1050 0.949 . S
C1056 C1060 1.368 . S
C1057 C1038 1.429 . S
C1057 C1051 1.429 . S
C1057 C1058 1.523 . S
C1058 C1039 1.368 . S
C1058 C1052 1.368 . S
C1058 C1057 1.523 . S
C1059 C1043 1.429 . S
C1059 C1055 1.429 . S
C1059 C1060 1.523 . S
C1060 C1044 1.368 . S
C1060 C1056 1.368 . S
C1060 C1059 1.523 . S
H1061 C1036 0.950 . S
H1062 C1038 0.950 . S
H1063 C1039 0.949 . S
H1064 C1041 0.950 . S
H1065 C1043 0.950 . S
C1066 C1067 1.356 . S
C1066 C1068 1.327 . S
C1066 H1091 0.950 . S
C1067 C1066 1.356 . S
C1067 C1083 1.342 1_554 S
C1068 C1066 1.327 . S
C1068 C1087 1.435 . S
C1068 H1092 0.950 . S
C1069 C1086 1.574 . S
C1069 C1088 1.361 1_556 S
C1069 H1093 0.949 . S
H1070 C1074 0.949 . S
C1071 C1072 1.344 1_556 S
C1071 C1073 1.327 . S
C1071 H1094 0.950 . S
C1072 C1071 1.344 1_554 S
C1072 C1084 1.354 . S
C1073 C1071 1.327 . S
C1073 C1089 1.423 1_556 S
C1073 H1095 0.950 . S
C1074 H1070 0.949 . S
C1074 C1082 1.574 . S
C1074 C1090 1.375 . S
H1075 C1083 0.950 . S
H1076 C1081 0.950 . S
H1077 C1082 0.949 . S
H1078 C1084 0.950 . S
H1079 C1085 0.950 . S
H1080 C1086 0.949 . S
C1081 H1076 0.950 . S
C1081 C1083 1.327 . S
C1081 C1087 1.422 1_556 S
C1082 C1074 1.574 . S
C1082 H1077 0.949 . S
C1082 C1088 1.375 . S
C1083 C1067 1.342 1_556 S
C1083 H1075 0.950 . S
C1083 C1081 1.327 . S
C1084 C1072 1.354 . S
C1084 H1078 0.950 . S
C1084 C1085 1.327 . S
C1085 H1079 0.950 . S
C1085 C1084 1.327 . S
C1085 C1089 1.434 . S
C1086 C1069 1.574 . S
C1086 H1080 0.949 . S
C1086 C1090 1.362 1_556 S
C1087 C1068 1.435 . S
C1087 C1081 1.422 1_554 S
C1087 C1088 1.523 . S
C1088 C1069 1.361 1_554 S
C1088 C1082 1.375 . S
C1088 C1087 1.523 . S
C1089 C1073 1.423 1_554 S
C1089 C1085 1.434 . S
C1089 C1090 1.523 . S
C1090 C1074 1.375 . S
C1090 C1086 1.362 1_554 S
C1090 C1089 1.523 . S
H1091 C1066 0.950 . S
H1092 C1068 0.950 . S
H1093 C1069 0.949 . S
H1094 C1071 0.950 . S
H1095 C1073 0.950 . S
C377 C5 1.431 . S
C382 C197 1.445 . S
C407 C31 1.435 . S
C412 C119 1.422 . S
C442 C155 1.420 . S
C437 C53 1.433 . S
C467 C71 1.429 . S
C472 C161 1.444 . S
C502 C299 1.422 . S
C497 C75 1.435 . S
C532 C305 1.445 . S
C527 C9 1.431 . S
C562 C341 1.444 . S
C557 C27 1.429 . S
C592 C263 1.420 . S
C587 C49 1.433 . S
C617 C51 1.431 . S
C622 C125 1.431 . S
C647 C72 1.435 . S
C652 C191 1.440 . S
C677 C6 1.433 . S
C682 C227 1.439 . S
C712 C89 1.430 . S
C707 C29 1.429 . S
C737 C28 1.435 . S
C742 C371 1.440 . S
C772 C233 1.431 . S
C767 C50 1.431 . S
C802 C269 1.430 . S
C797 C73 1.429 . S
C827 C7 1.433 . S
C832 C335 1.439 . S
C862 C113 1.472 1_554 S
C857 C4 1.483 . S
C892 C149 1.473 . S
C887 C30 1.483 . S
C917 C52 1.483 . S
C922 C185 1.493 . S
C947 C70 1.483 . S
C952 C221 1.492 . S
C982 C257 1.473 . S
C977 C74 1.483 . S
C1007 C8 1.483 . S
C1012 C293 1.474 . S
C1037 C26 1.483 . S
C1042 C329 1.492 . S
C1067 C48 1.483 . S
C1072 C365 1.492 1_554 S
