# Generated by pormake.
# Topology rtl, (3,6)-cn, num edge types: 1
# Building blocks:
#     Node 0, Type 0, BuildingBlock: KAKCAD_clean_linker_0, # of connection points: 3
#     Node 1, Type 0, BuildingBlock: KAKCAD_clean_linker_0, # of connection points: 3
#     Node 2, Type 0, BuildingBlock: KAKCAD_clean_linker_0, # of connection points: 3
#     Node 3, Type 0, BuildingBlock: KAKCAD_clean_linker_0, # of connection points: 3
#     Node 4, Type 1, BuildingBlock: FUNLAD_clean_sbu_0, # of connection points: 6
#     Node 5, Type 1, BuildingBlock: FUNLAD_clean_sbu_0, # of connection points: 6
#     Edge 6, Type (0, 1), BuildingBlock: OJICUG_clean_linker_0, # of connection points: 2
#     Edge 7, Type (0, 1), BuildingBlock: OJICUG_clean_linker_0, # of connection points: 2
#     Edge 8, Type (0, 1), BuildingBlock: OJICUG_clean_linker_0, # of connection points: 2
#     Edge 9, Type (0, 1), BuildingBlock: OJICUG_clean_linker_0, # of connection points: 2
#     Edge 10, Type (0, 1), BuildingBlock: OJICUG_clean_linker_0, # of connection points: 2
#     Edge 11, Type (0, 1), BuildingBlock: OJICUG_clean_linker_0, # of connection points: 2
#     Edge 12, Type (0, 1), BuildingBlock: OJICUG_clean_linker_0, # of connection points: 2
#     Edge 13, Type (0, 1), BuildingBlock: OJICUG_clean_linker_0, # of connection points: 2
#     Edge 14, Type (0, 1), BuildingBlock: OJICUG_clean_linker_0, # of connection points: 2
#     Edge 15, Type (0, 1), BuildingBlock: OJICUG_clean_linker_0, # of connection points: 2
#     Edge 16, Type (0, 1), BuildingBlock: OJICUG_clean_linker_0, # of connection points: 2
#     Edge 17, Type (0, 1), BuildingBlock: OJICUG_clean_linker_0, # of connection points: 2
# Relax obj value: 0.025
# Max RMSD: 0.105
# Mean RMSD: 0.087
data_MOF--net-rtl--node1-FUNLAD_clean_sbu_0--node2-KAKCAD_clean_linker_0--edge1-OJICUG_clean_linker_0
_symmetry_space_group_name_H-M    P1
_symmetry_Int_Tables_number       1
_symmetry_cell_setting            triclinic
loop_
_symmetry_equiv_pos_as_xyz
'x, y, z'
_cell_length_a     39.623371
_cell_length_b     31.812386
_cell_length_c     22.165693
_cell_angle_alpha  89.819572
_cell_angle_beta   90.859936
_cell_angle_gamma 90.312961
loop_
_atom_site_label
_atom_site_type_symbol
_atom_site_fract_x
_atom_site_fract_y
_atom_site_fract_z
_atom_type_partial_charge
C0 C 0.075 0.79873 0.79456 0.0
C1 C 0.07758 0.84266 0.78858 0.0
C2 C 0.08551 0.77894 0.84818 0.0
C3 C 0.098 0.80302 0.89666 0.0
C4 C 0.10075 0.84679 0.89029 0.0
C5 C 0.09075 0.86637 0.83683 0.0
C6 C 0.10772 0.78354 0.95485 0.0
C7 C 0.13305 0.75299 0.95814 0.0
C8 C 0.14641 0.74046 0.01449 0.0
C9 C 0.13323 0.75751 0.06762 0.0
C10 C 0.10753 0.7876 0.06457 0.0
C11 C 0.09469 0.80001 0.00812 0.0
C12 C 0.09645 0.80975 0.11929 0.0
C13 C 0.08602 0.78751 0.17063 0.0
C14 C 0.09593 0.85388 0.11972 0.0
C15 C 0.08489 0.87546 0.1702 0.0
C16 C 0.07396 0.85341 0.22131 0.0
C17 C 0.17715 0.71433 0.01729 0.0
C18 C 0.17881 0.67619 0.98591 0.0
C19 C 0.20588 0.72912 0.04844 0.0
C20 C 0.23602 0.70672 0.04717 0.0
C21 C 0.23804 0.66854 0.01551 0.0
C22 C 0.20885 0.65328 0.98554 0.0
C23 C 0.07455 0.80922 0.22117 0.0
H24 H 0.06499 0.77982 0.75782 0.0
H25 H 0.08323 0.74511 0.85229 0.0
H26 H 0.11059 0.86595 0.92694 0.0
H27 H 0.09267 0.9003 0.83372 0.0
H28 H 0.14415 0.74152 0.91696 0.0
H29 H 0.07524 0.82385 0.00549 0.0
H30 H 0.14411 0.74889 0.11108 0.0
H31 H 0.0862 0.75347 0.17121 0.0
H32 H 0.10419 0.87176 0.08091 0.0
H33 H 0.08444 0.9095 0.1689 0.0
H34 H 0.15689 0.66419 0.96162 0.0
H35 H 0.2054 0.75889 0.07202 0.0
H36 H 0.06643 0.79154 0.26024 0.0
H37 H 0.20916 0.62369 0.9616 0.0
H38 H 0.25799 0.72016 0.0696 0.0
C39 C 0.57345 0.71296 0.71509 0.0
C40 C 0.57719 0.66932 0.7228 0.0
C41 C 0.58351 0.73238 0.66136 0.0
C42 C 0.59666 0.70814 0.61452 0.0
C43 C 0.60064 0.6647 0.62265 0.0
C44 C 0.59113 0.64553 0.67624 0.0
C45 C 0.60561 0.72695 0.55601 0.0
C46 C 0.63131 0.75725 0.55218 0.0
C47 C 0.64417 0.76871 0.49566 0.0
C48 C 0.63011 0.75098 0.44292 0.0
C49 C 0.60408 0.72109 0.4465 0.0
C50 C 0.59175 0.70966 0.50311 0.0
C51 C 0.59237 0.69808 0.39221 0.0
C52 C 0.58272 0.71954 0.33932 0.0
C53 C 0.59111 0.65396 0.39329 0.0
C54 C 0.5803 0.63163 0.34259 0.0
C55 C 0.57035 0.65295 0.28979 0.0
C56 C 0.67541 0.79411 0.49233 0.0
C57 C 0.67815 0.83308 0.52144 0.0
C58 C 0.70347 0.77794 0.46257 0.0
C59 C 0.734 0.79991 0.46277 0.0
C60 C 0.73707 0.83901 0.49192 0.0
C61 C 0.70859 0.85556 0.52071 0.0
C62 C 0.57151 0.69713 0.28857 0.0
H63 H 0.56281 0.73191 0.7505 0.0
H64 H 0.58028 0.76596 0.65579 0.0
H65 H 0.61096 0.64548 0.58717 0.0
H66 H 0.5939 0.61179 0.68067 0.0
H67 H 0.64311 0.76922 0.59315 0.0
H68 H 0.57213 0.68586 0.50628 0.0
H69 H 0.64068 0.75875 0.39941 0.0
H70 H 0.58351 0.75357 0.33751 0.0
H71 H 0.59882 0.63663 0.4333 0.0
H72 H 0.57939 0.59762 0.34488 0.0
H73 H 0.65675 0.84611 0.54465 0.0
H74 H 0.70212 0.74751 0.44079 0.0
H75 H 0.56414 0.71423 0.24818 0.0
H76 H 0.70975 0.88586 0.54276 0.0
H77 H 0.75542 0.78552 0.44143 0.0
C78 C 0.89723 0.17814 0.22546 0.0
C79 C 0.93142 0.16758 0.23342 0.0
C80 C 0.88599 0.19765 0.17242 0.0
C81 C 0.90872 0.20732 0.1262 0.0
C82 C 0.94316 0.19863 0.13539 0.0
C83 C 0.95438 0.1789 0.18834 0.0
C84 C 0.89603 0.2232 0.06699 0.0
C85 C 0.86944 0.25213 0.06387 0.0
C86 C 0.85441 0.26317 0.00817 0.0
C87 C 0.86757 0.24627 0.95488 0.0
C88 C 0.89482 0.21816 0.957 0.0
C89 C 0.90868 0.20667 0.01329 0.0
C90 C 0.90761 0.19852 0.90108 0.0
C91 C 0.88512 0.18454 0.85569 0.0
C92 C 0.94236 0.19167 0.8941 0.0
C93 C 0.95424 0.17013 0.84395 0.0
C94 C 0.93167 0.15514 0.79935 0.0
C95 C 0.82373 0.2901 0.0061 0.0
C96 C 0.79939 0.28671 0.05155 0.0
C97 C 0.81777 0.31817 0.95787 0.0
C98 C 0.78796 0.34146 0.95462 0.0
C99 C 0.76387 0.33781 0.00011 0.0
C100 C 0.76999 0.31061 0.04887 0.0
C101 C 0.89702 0.16323 0.80534 0.0
H102 H 0.87897 0.17048 0.25971 0.0
H103 H 0.85924 0.20354 0.1667 0.0
H104 H 0.96138 0.20619 0.10101 0.0
H105 H 0.98085 0.171 0.19277 0.0
H106 H 0.86021 0.2657 0.10519 0.0
H107 H 0.92827 0.18306 0.01544 0.0
H108 H 0.85614 0.25416 0.91167 0.0
H109 H 0.85817 0.18889 0.85984 0.0
H110 H 0.96041 0.2025 0.92787 0.0
H111 H 0.98105 0.16418 0.84114 0.0
H112 H 0.80251 0.26476 0.08861 0.0
H113 H 0.8361 0.32223 0.92257 0.0
H114 H 0.87898 0.15273 0.77136 0.0
H115 H 0.75153 0.30692 0.08409 0.0
H116 H 0.7838 0.36254 0.91678 0.0
C117 C 0.39809 0.32405 0.26755 0.0
C118 C 0.43211 0.33555 0.2606 0.0
C119 C 0.38735 0.3048 0.32064 0.0
C120 C 0.41043 0.29639 0.36789 0.0
C121 C 0.44475 0.30583 0.35963 0.0
C122 C 0.45547 0.32528 0.30665 0.0
C123 C 0.39822 0.28134 0.42724 0.0
C124 C 0.37186 0.25181 0.4306 0.0
C125 C 0.35718 0.24165 0.4862 0.0
C126 C 0.3704 0.2601 0.53916 0.0
C127 C 0.39731 0.28895 0.53683 0.0
C128 C 0.41093 0.29946 0.48065 0.0
C129 C 0.40985 0.31035 0.59235 0.0
C130 C 0.38715 0.32443 0.63593 0.0
C131 C 0.44451 0.3184 0.60099 0.0
C132 C 0.45611 0.34089 0.65126 0.0
C133 C 0.43334 0.35564 0.69426 0.0
C134 C 0.32655 0.21437 0.48852 0.0
C135 C 0.30173 0.21672 0.44249 0.0
C136 C 0.32089 0.18751 0.53802 0.0
C137 C 0.29076 0.16472 0.54226 0.0
C138 C 0.26605 0.16762 0.49649 0.0
C139 C 0.27198 0.19327 0.4462 0.0
C140 C 0.39877 0.34666 0.68639 0.0
H141 H 0.37955 0.33091 0.23254 0.0
H142 H 0.36068 0.29828 0.32563 0.0
H143 H 0.46323 0.29923 0.39486 0.0
H144 H 0.48183 0.33394 0.30299 0.0
H145 H 0.36247 0.23717 0.38956 0.0
H146 H 0.43029 0.32356 0.47822 0.0
H147 H 0.35917 0.25292 0.58224 0.0
H148 H 0.36025 0.31925 0.63039 0.0
H149 H 0.4627 0.30759 0.56859 0.0
H150 H 0.48286 0.34756 0.65557 0.0
H151 H 0.30468 0.23768 0.40435 0.0
H152 H 0.33962 0.18422 0.57376 0.0
H153 H 0.38058 0.35699 0.7191 0.0
H154 H 0.25305 0.19628 0.41066 0.0
H155 H 0.28675 0.14476 0.58123 0.0
C156 C 0.02394 0.95241 0.41829 0.0
N157 N 0.07302 0.04854 0.51362 0.0
C158 C 0.10075 0.02427 0.50533 0.0
C159 C 0.1328 0.04247 0.50386 0.0
C160 C 0.13638 0.0859 0.51222 0.0
C161 C 0.10755 0.11018 0.52208 0.0
C162 C 0.07584 0.09078 0.52207 0.0
Zn163 Zn 0.02672 0.02021 0.51194 0.0
C164 C 0.97888 0.06061 0.42788 0.0
N165 N 0.93167 0.95684 0.50785 0.0
C166 C 0.92892 0.91483 0.49727 0.0
C167 C 0.90383 0.98095 0.51613 0.0
C168 C 0.87169 0.96288 0.51445 0.0
C169 C 0.86818 0.91982 0.50279 0.0
C170 C 0.89717 0.89564 0.49393 0.0
Zn171 Zn 0.97801 0.98521 0.50998 0.0
O172 O 0.04232 0.98148 0.44048 0.0
C173 C 0.02629 0.94468 0.59328 0.0
O174 O 0.99453 0.94647 0.43876 0.0
H175 H 0.90649 0.01437 0.52366 0.0
H176 H 0.09804 0.99069 0.49943 0.0
H177 H 0.95134 0.89621 0.49112 0.0
O178 O 0.04419 0.97529 0.57494 0.0
O179 O 0.99616 0.94058 0.57356 0.0
H180 H 0.05347 0.1095 0.5283 0.0
O181 O 0.96235 0.02421 0.58165 0.0
O182 O 0.01039 0.05874 0.58332 0.0
O183 O 0.96062 0.03022 0.44596 0.0
O184 O 0.00875 0.06465 0.44873 0.0
C185 C 0.98099 0.053 0.604 0.0
H186 H 0.1546 0.0228 0.49662 0.0
H187 H 0.10947 0.14387 0.52829 0.0
H188 H 0.84976 0.98245 0.521 0.0
H189 H 0.89527 0.86222 0.48518 0.0
C190 C 0.48071 0.45704 0.89497 0.0
N191 N 0.57262 0.46013 0.991 0.0
C192 C 0.57486 0.41826 0.97932 0.0
C193 C 0.60631 0.39872 0.97835 0.0
C194 C 0.63558 0.42238 0.99061 0.0
C195 C 0.6326 0.4654 0.00276 0.0
C196 C 0.60073 0.48383 0.00213 0.0
Zn197 Zn 0.52645 0.48841 0.99183 0.0
C198 C 0.52608 0.56544 0.91369 0.0
N199 N 0.4311 0.55036 0.99262 0.0
C200 C 0.40295 0.52661 0.98202 0.0
C201 C 0.42884 0.59201 0.00577 0.0
C202 C 0.39731 0.6111 0.00981 0.0
C203 C 0.36797 0.58726 -0.00099 0.0
C204 C 0.37096 0.54465 0.98434 0.0
Zn205 Zn 0.47735 0.52213 0.99137 0.0
O206 O 0.51003 0.4517 0.91751 0.0
C207 C 0.4782 0.44521 0.07032 0.0
O208 O 0.46163 0.48478 0.91716 0.0
H209 H 0.45149 0.61041 0.01367 0.0
H210 H 0.55221 0.39994 0.97094 0.0
H211 H 0.40523 0.49346 0.97239 0.0
O212 O 0.50823 0.44233 0.05152 0.0
O213 O 0.45981 0.47551 0.05222 0.0
H214 H 0.59848 0.51714 0.01064 0.0
O215 O 0.49397 0.55921 0.06518 0.0
O216 O 0.54204 0.52541 0.06617 0.0
O217 O 0.49573 0.5683 0.93097 0.0
O218 O 0.54413 0.53502 0.93235 0.0
C219 C 0.52321 0.55359 0.08786 0.0
H220 H 0.60772 0.36534 0.9693 0.0
H221 H 0.65473 0.48461 0.01202 0.0
H222 H 0.39584 0.64418 0.02084 0.0
H223 H 0.34878 0.52533 0.97615 0.0
C224 C 0.21345 0.15113 0.5527 0.0
C225 C 0.23357 0.14514 0.50185 0.0
H226 H 0.1664 0.13734 0.59534 0.0
C227 C 0.22186 0.11903 0.45504 0.0
H228 H 0.22195 0.17144 0.58908 0.0
C229 C 0.19046 0.09918 0.45898 0.0
C230 C 0.17002 0.10585 0.50922 0.0
H231 H 0.23702 0.11401 0.41546 0.0
H232 H 0.18182 0.07929 0.42222 0.0
C233 C 0.18173 0.13196 0.55608 0.0
C234 C 0.27972 0.62412 0.95956 0.0
C235 C 0.27076 0.64576 0.01226 0.0
H236 H 0.3175 0.58842 0.91436 0.0
C237 C 0.29393 0.64677 0.06107 0.0
H238 H 0.26294 0.62319 0.9206 0.0
C239 C 0.32551 0.62786 0.05661 0.0
C240 C 0.33436 0.6067 0.00382 0.0
H241 H 0.28776 0.66215 0.10295 0.0
H242 H 0.34296 0.62945 0.09465 0.0
C243 C 0.31107 0.60445 0.95565 0.0
C244 C 0.79241 0.85884 0.44489 0.0
C245 C 0.77015 0.86152 0.49369 0.0
H246 H 0.84104 0.87478 0.41007 0.0
C247 C 0.78035 0.88461 0.54498 0.0
H248 H 0.78525 0.84227 0.40404 0.0
C249 C 0.81201 0.90412 0.54753 0.0
C250 C 0.83436 0.90027 0.49942 0.0
H251 H 0.76428 0.88683 0.58389 0.0
H252 H 0.81939 0.92136 0.58774 0.0
C253 C 0.82431 0.87761 0.44805 0.0
C254 C 0.71081 0.35765 0.945 0.0
C255 C 0.73187 0.36131 -0.00376 0.0
H256 H 0.66335 0.37384 0.9035 0.0
C257 C 0.72151 0.38601 0.04489 0.0
H258 H 0.71824 0.3385 0.90716 0.0
C259 C 0.69048 0.40659 0.04247 0.0
C260 C 0.66903 0.40209 0.99187 0.0
H261 H 0.73742 0.38928 0.08481 0.0
H262 H 0.68286 0.42523 0.08071 0.0
C263 C 0.67945 0.37755 0.94309 0.0
C264 C 0.03118 0.86631 0.30136 0.0
C265 C 0.06186 0.87698 0.27413 0.0
H266 H 0.99481 0.88215 0.36806 0.0
C267 C 0.08028 0.91178 0.2957 0.0
H268 H 0.01639 0.83979 0.28521 0.0
C269 C 0.06805 0.93592 0.34286 0.0
C270 C 0.03697 0.92598 0.36926 0.0
H271 H 0.10418 0.92042 0.27588 0.0
H272 H 0.08283 0.96271 0.35812 0.0
C273 C 0.01875 0.89073 0.34838 0.0
C274 C 0.58621 0.6172 0.80557 0.0
C275 C 0.56558 0.64757 0.7778 0.0
H276 H 0.58999 0.56774 0.87046 0.0
C277 C 0.53271 0.65355 0.79889 0.0
H278 H 0.61179 0.61234 0.79057 0.0
C279 C 0.52004 0.6278 0.84468 0.0
C280 C 0.54015 0.59584 0.87014 0.0
H281 H 0.51627 0.67663 0.77793 0.0
H282 H 0.49419 0.63197 0.85858 0.0
C283 C 0.57366 0.59166 0.85128 0.0
C284 C 0.9741 0.14998 0.3147 0.0
C285 C 0.94267 0.14232 0.28643 0.0
H286 H 0.01016 0.13034 0.38178 0.0
C287 C 0.92266 0.10876 0.30715 0.0
H288 H 0.98993 0.1759 0.30035 0.0
C289 C 0.93409 0.08292 0.35406 0.0
C290 C 0.96589 0.08986 0.38118 0.0
H291 H 0.89856 0.10152 0.28582 0.0
H292 H 0.91829 0.05687 0.36802 0.0
C293 C 0.98561 0.12399 0.36155 0.0
C294 C 0.47605 0.37186 0.77611 0.0
C295 C 0.44545 0.3813 0.74622 0.0
H296 H 0.51124 0.38837 0.84643 0.0
C297 C 0.42665 0.41593 0.76576 0.0
H298 H 0.49093 0.34509 0.76276 0.0
C299 C 0.43808 0.44042 0.81411 0.0
C300 C 0.46873 0.43107 0.84375 0.0
H301 H 0.40329 0.4246 0.74312 0.0
H302 H 0.423 0.46692 0.82789 0.0
C303 C 0.48762 0.39656 0.82424 0.0
C304 C 0.5288 0.63936 0.20574 0.0
C305 C 0.55883 0.62875 0.23645 0.0
H306 H 0.49369 0.62354 0.13491 0.0
C307 C 0.5773 0.59382 0.21732 0.0
H308 H 0.514 0.66599 0.21995 0.0
C309 C 0.56581 0.56962 0.16879 0.0
C310 C 0.53544 0.57967 0.13869 0.0
H311 H 0.6007 0.58522 0.23992 0.0
H312 H 0.5806 0.5428 0.15527 0.0
C313 C 0.5171 0.61489 0.15745 0.0
C314 C 0.97487 0.13952 0.72044 0.0
C315 C 0.94408 0.12971 0.74813 0.0
H316 H 0.01073 0.12301 0.6533 0.0
C317 C 0.92555 0.09461 0.72759 0.0
H318 H 0.98957 0.16664 0.73458 0.0
C319 C 0.93749 0.06991 0.68066 0.0
C320 C 0.96839 0.0795 0.65339 0.0
H321 H 0.90206 0.08563 0.74855 0.0
H322 H 0.92262 0.04298 0.66622 0.0
C323 C 0.98694 0.11461 0.67368 0.0
C324 C 0.42234 0.39409 0.1866 0.0
C325 C 0.44276 0.36104 0.20789 0.0
H326 H 0.41741 0.44639 0.12642 0.0
C327 C 0.47416 0.3544 0.18093 0.0
H328 H 0.39823 0.40052 0.20693 0.0
C329 C 0.48535 0.38107 0.13508 0.0
C330 C 0.46533 0.41488 0.11518 0.0
H331 H 0.49029 0.32888 0.19573 0.0
H332 H 0.50996 0.37562 0.11603 0.0
C333 C 0.43345 0.42063 0.14068 0.0
C334 C 0.03344 0.85703 0.70906 0.0
C335 C 0.06585 0.86463 0.7333 0.0
H336 H 0.99524 0.87669 0.64568 0.0
C337 C 0.08596 0.89633 0.70793 0.0
H338 H 0.01739 0.83289 0.72812 0.0
C339 C 0.07339 0.92135 0.66116 0.0
C340 C 0.04034 0.91533 0.63882 0.0
H341 H 0.11119 0.90247 0.72536 0.0
H342 H 0.08933 0.94619 0.6437 0.0
C343 C 0.02072 0.88228 0.66224 0.0
loop_
_geom_bond_atom_site_label_1
_geom_bond_atom_site_label_2
_geom_bond_distance
_geom_bond_site_symmetry_2
_ccdc_geom_bond_type
C0 C1 1.386 . S
C0 C2 1.397 . S
C0 H24 0.931 . S
C1 C0 1.386 . S
C1 C5 1.397 . S
C2 C0 1.397 . S
C2 C3 1.384 . S
C2 H25 0.930 . S
C3 C2 1.384 . S
C3 C4 1.377 . S
C3 C6 1.481 . S
C4 C3 1.377 . S
C4 C5 1.389 . S
C4 H26 0.929 . S
C5 C1 1.397 . S
C5 C4 1.389 . S
C5 H27 0.931 . S
C6 C3 1.481 . S
C6 C7 1.387 . S
C6 C11 1.390 1_556 S
C7 C6 1.387 . S
C7 C8 1.401 1_556 S
C7 H28 0.930 . S
C8 C7 1.401 1_554 S
C8 C9 1.376 . S
C8 C17 1.511 . S
C9 C8 1.376 . S
C9 C10 1.392 . S
C9 H30 0.931 . S
C10 C9 1.392 . S
C10 C11 1.361 . S
C10 C12 1.500 . S
C11 C6 1.390 1_554 S
C11 C10 1.361 . S
C11 H29 0.931 . S
C12 C10 1.500 . S
C12 C13 1.371 . S
C12 C14 1.365 . S
C13 C12 1.371 . S
C13 C23 1.386 . S
C13 H31 0.931 . S
C14 C12 1.365 . S
C14 C15 1.409 . S
C14 H32 0.929 . S
C15 C14 1.409 . S
C15 C16 1.380 . S
C15 H33 0.930 . S
C16 C15 1.380 . S
C16 C23 1.357 . S
C17 C8 1.511 . S
C17 C18 1.341 1_554 S
C17 C19 1.371 . S
C18 C17 1.341 1_556 S
C18 C22 1.394 . S
C18 H34 0.930 . S
C19 C17 1.371 . S
C19 C20 1.392 . S
C19 H35 0.931 . S
C20 C19 1.392 . S
C20 C21 1.331 . S
C20 H38 0.932 . S
C21 C20 1.331 . S
C21 C22 1.336 1_554 S
C22 C18 1.394 . S
C22 C21 1.336 1_556 S
C22 H37 0.929 . S
C23 C13 1.386 . S
C23 C16 1.357 . S
C23 H36 0.928 . S
H24 C0 0.931 . S
H25 C2 0.930 . S
H26 C4 0.929 . S
H27 C5 0.931 . S
H28 C7 0.930 . S
H29 C11 0.931 . S
H30 C9 0.931 . S
H31 C13 0.931 . S
H32 C14 0.929 . S
H33 C15 0.930 . S
H34 C18 0.930 . S
H35 C19 0.931 . S
H36 C23 0.928 . S
H37 C22 0.929 . S
H38 C20 0.932 . S
C39 C40 1.386 . S
C39 C41 1.397 . S
C39 H63 0.931 . S
C40 C39 1.386 . S
C40 C44 1.397 . S
C41 C39 1.397 . S
C41 C42 1.384 . S
C41 H64 0.930 . S
C42 C41 1.384 . S
C42 C43 1.377 . S
C42 C45 1.481 . S
C43 C42 1.377 . S
C43 C44 1.389 . S
C43 H65 0.929 . S
C44 C40 1.397 . S
C44 C43 1.389 . S
C44 H66 0.931 . S
C45 C42 1.481 . S
C45 C46 1.387 . S
C45 C50 1.390 . S
C46 C45 1.387 . S
C46 C47 1.401 . S
C46 H67 0.930 . S
C47 C46 1.401 . S
C47 C48 1.376 . S
C47 C56 1.511 . S
C48 C47 1.376 . S
C48 C49 1.392 . S
C48 H69 0.931 . S
C49 C48 1.392 . S
C49 C50 1.361 . S
C49 C51 1.500 . S
C50 C45 1.390 . S
C50 C49 1.361 . S
C50 H68 0.931 . S
C51 C49 1.500 . S
C51 C52 1.371 . S
C51 C53 1.365 . S
C52 C51 1.371 . S
C52 C62 1.386 . S
C52 H70 0.931 . S
C53 C51 1.365 . S
C53 C54 1.409 . S
C53 H71 0.929 . S
C54 C53 1.409 . S
C54 C55 1.380 . S
C54 H72 0.930 . S
C55 C54 1.380 . S
C55 C62 1.357 . S
C56 C47 1.511 . S
C56 C57 1.341 . S
C56 C58 1.371 . S
C57 C56 1.341 . S
C57 C61 1.394 . S
C57 H73 0.930 . S
C58 C56 1.371 . S
C58 C59 1.392 . S
C58 H74 0.931 . S
C59 C58 1.392 . S
C59 C60 1.331 . S
C59 H77 0.932 . S
C60 C59 1.331 . S
C60 C61 1.336 . S
C61 C57 1.394 . S
C61 C60 1.336 . S
C61 H76 0.929 . S
C62 C52 1.386 . S
C62 C55 1.357 . S
C62 H75 0.928 . S
H63 C39 0.931 . S
H64 C41 0.930 . S
H65 C43 0.929 . S
H66 C44 0.931 . S
H67 C46 0.930 . S
H68 C50 0.931 . S
H69 C48 0.931 . S
H70 C52 0.931 . S
H71 C53 0.929 . S
H72 C54 0.930 . S
H73 C57 0.930 . S
H74 C58 0.931 . S
H75 C62 0.928 . S
H76 C61 0.929 . S
H77 C59 0.932 . S
C78 C79 1.386 . S
C78 C80 1.397 . S
C78 H102 0.931 . S
C79 C78 1.386 . S
C79 C83 1.397 . S
C80 C78 1.397 . S
C80 C81 1.384 . S
C80 H103 0.930 . S
C81 C80 1.384 . S
C81 C82 1.377 . S
C81 C84 1.481 . S
C82 C81 1.377 . S
C82 C83 1.389 . S
C82 H104 0.929 . S
C83 C79 1.397 . S
C83 C82 1.389 . S
C83 H105 0.931 . S
C84 C81 1.481 . S
C84 C85 1.387 . S
C84 C89 1.390 . S
C85 C84 1.387 . S
C85 C86 1.401 . S
C85 H106 0.930 . S
C86 C85 1.401 . S
C86 C87 1.376 1_554 S
C86 C95 1.511 . S
C87 C86 1.376 1_556 S
C87 C88 1.392 . S
C87 H108 0.931 . S
C88 C87 1.392 . S
C88 C89 1.361 1_556 S
C88 C90 1.500 . S
C89 C84 1.390 . S
C89 C88 1.361 1_554 S
C89 H107 0.931 . S
C90 C88 1.500 . S
C90 C91 1.371 . S
C90 C92 1.365 . S
C91 C90 1.371 . S
C91 C101 1.386 . S
C91 H109 0.931 . S
C92 C90 1.365 . S
C92 C93 1.409 . S
C92 H110 0.929 . S
C93 C92 1.409 . S
C93 C94 1.380 . S
C93 H111 0.930 . S
C94 C93 1.380 . S
C94 C101 1.357 . S
C95 C86 1.511 . S
C95 C96 1.341 . S
C95 C97 1.371 1_554 S
C96 C95 1.341 . S
C96 C100 1.394 . S
C96 H112 0.930 . S
C97 C95 1.371 1_556 S
C97 C98 1.392 . S
C97 H113 0.931 . S
C98 C97 1.392 . S
C98 C99 1.331 1_556 S
C98 H116 0.932 . S
C99 C98 1.331 1_554 S
C99 C100 1.336 . S
C100 C96 1.394 . S
C100 C99 1.336 . S
C100 H115 0.929 . S
C101 C91 1.386 . S
C101 C94 1.357 . S
C101 H114 0.928 . S
H102 C78 0.931 . S
H103 C80 0.930 . S
H104 C82 0.929 . S
H105 C83 0.931 . S
H106 C85 0.930 . S
H107 C89 0.931 . S
H108 C87 0.931 . S
H109 C91 0.931 . S
H110 C92 0.929 . S
H111 C93 0.930 . S
H112 C96 0.930 . S
H113 C97 0.931 . S
H114 C101 0.928 . S
H115 C100 0.929 . S
H116 C98 0.932 . S
C117 C118 1.386 . S
C117 C119 1.397 . S
C117 H141 0.931 . S
C118 C117 1.386 . S
C118 C122 1.397 . S
C119 C117 1.397 . S
C119 C120 1.384 . S
C119 H142 0.930 . S
C120 C119 1.384 . S
C120 C121 1.377 . S
C120 C123 1.481 . S
C121 C120 1.377 . S
C121 C122 1.389 . S
C121 H143 0.929 . S
C122 C118 1.397 . S
C122 C121 1.389 . S
C122 H144 0.931 . S
C123 C120 1.481 . S
C123 C124 1.387 . S
C123 C128 1.390 . S
C124 C123 1.387 . S
C124 C125 1.401 . S
C124 H145 0.930 . S
C125 C124 1.401 . S
C125 C126 1.376 . S
C125 C134 1.511 . S
C126 C125 1.376 . S
C126 C127 1.392 . S
C126 H147 0.931 . S
C127 C126 1.392 . S
C127 C128 1.361 . S
C127 C129 1.500 . S
C128 C123 1.390 . S
C128 C127 1.361 . S
C128 H146 0.931 . S
C129 C127 1.500 . S
C129 C130 1.371 . S
C129 C131 1.365 . S
C130 C129 1.371 . S
C130 C140 1.386 . S
C130 H148 0.931 . S
C131 C129 1.365 . S
C131 C132 1.409 . S
C131 H149 0.929 . S
C132 C131 1.409 . S
C132 C133 1.380 . S
C132 H150 0.930 . S
C133 C132 1.380 . S
C133 C140 1.357 . S
C134 C125 1.511 . S
C134 C135 1.341 . S
C134 C136 1.371 . S
C135 C134 1.341 . S
C135 C139 1.394 . S
C135 H151 0.930 . S
C136 C134 1.371 . S
C136 C137 1.392 . S
C136 H152 0.931 . S
C137 C136 1.392 . S
C137 C138 1.331 . S
C137 H155 0.932 . S
C138 C137 1.331 . S
C138 C139 1.336 . S
C139 C135 1.394 . S
C139 C138 1.336 . S
C139 H154 0.929 . S
C140 C130 1.386 . S
C140 C133 1.357 . S
C140 H153 0.928 . S
H141 C117 0.931 . S
H142 C119 0.930 . S
H143 C121 0.929 . S
H144 C122 0.931 . S
H145 C124 0.930 . S
H146 C128 0.931 . S
H147 C126 0.931 . S
H148 C130 0.931 . S
H149 C131 0.929 . S
H150 C132 0.930 . S
H151 C135 0.930 . S
H152 C136 0.931 . S
H153 C140 0.928 . S
H154 C139 0.929 . S
H155 C137 0.932 . S
C156 O172 1.251 . S
C156 O174 1.254 1_455 S
N157 C158 1.333 . S
N157 C162 1.307 . S
N157 Zn163 2.020 . S
C158 N157 1.333 . S
C158 C159 1.379 . S
C158 H176 0.952 . S
C159 C158 1.379 . S
C159 C160 1.390 . S
C159 H186 0.949 . S
C160 C159 1.390 . S
C160 C161 1.357 . S
C161 C160 1.357 . S
C161 C162 1.370 . S
C161 H187 0.950 . S
C162 N157 1.307 . S
C162 C161 1.370 . S
C162 H180 0.948 . S
Zn163 N157 2.020 . S
Zn163 O172 2.039 1_545 S
Zn163 O178 2.034 1_545 S
Zn163 O182 2.025 . S
Zn163 O184 2.024 . S
C164 O183 1.246 . S
C164 O184 1.249 1_655 S
N165 C166 1.307 . S
N165 C167 1.333 . S
N165 Zn171 2.020 . S
C166 N165 1.307 . S
C166 C170 1.370 . S
C166 H177 0.948 . S
C167 N165 1.333 . S
C167 C168 1.379 . S
C167 H175 0.955 . S
C168 C167 1.379 . S
C168 C169 1.390 . S
C168 H188 0.949 . S
C169 C168 1.390 . S
C169 C170 1.357 . S
C170 C166 1.370 . S
C170 C169 1.357 . S
C170 H189 0.950 . S
Zn171 N165 2.020 . S
Zn171 O174 2.025 . S
Zn171 O179 2.024 . S
Zn171 O181 2.039 1_565 S
Zn171 O183 2.034 1_565 S
O172 C156 1.251 . S
O172 Zn163 2.039 1_565 S
C173 O178 1.246 . S
C173 O179 1.249 1_455 S
O174 C156 1.254 1_655 S
O174 Zn171 2.025 . S
H175 C167 0.955 . S
H176 C158 0.952 . S
H177 C166 0.948 . S
O178 Zn163 2.034 1_565 S
O178 C173 1.246 . S
O179 Zn171 2.024 . S
O179 C173 1.249 1_655 S
H180 C162 0.948 . S
O181 Zn171 2.039 1_545 S
O181 C185 1.251 . S
O182 Zn163 2.025 . S
O182 C185 1.254 1_455 S
O183 C164 1.246 . S
O183 Zn171 2.034 1_545 S
O184 Zn163 2.024 . S
O184 C164 1.249 1_455 S
C185 O181 1.251 . S
C185 O182 1.254 1_655 S
H186 C159 0.949 . S
H187 C161 0.950 . S
H188 C168 0.949 . S
H189 C170 0.950 . S
C190 O206 1.251 . S
C190 O208 1.254 . S
N191 C192 1.333 1_554 S
N191 C196 1.307 . S
N191 Zn197 2.020 . S
C192 N191 1.333 1_556 S
C192 C193 1.379 . S
C192 H210 0.952 . S
C193 C192 1.379 . S
C193 C194 1.390 1_556 S
C193 H220 0.949 . S
C194 C193 1.390 1_554 S
C194 C195 1.357 . S
C195 C194 1.357 . S
C195 C196 1.370 . S
C195 H221 0.950 . S
C196 N191 1.307 . S
C196 C195 1.370 . S
C196 H214 0.948 . S
Zn197 N191 2.020 . S
Zn197 O206 2.039 1_554 S
Zn197 O212 2.034 . S
Zn197 O216 2.025 . S
Zn197 O218 2.024 1_554 S
C198 O217 1.246 . S
C198 O218 1.249 . S
N199 C200 1.307 1_554 S
N199 C201 1.333 . S
N199 Zn205 2.020 . S
C200 N199 1.307 1_556 S
C200 C204 1.370 . S
C200 H211 0.948 . S
C201 N199 1.333 . S
C201 C202 1.379 . S
C201 H209 0.952 . S
C202 C201 1.379 . S
C202 C203 1.390 . S
C202 H222 0.949 . S
C203 C202 1.390 . S
C203 C204 1.357 1_554 S
C204 C200 1.370 . S
C204 C203 1.357 1_556 S
C204 H223 0.950 . S
Zn205 N199 2.020 . S
Zn205 O208 2.025 1_554 S
Zn205 O213 2.024 . S
Zn205 O215 2.039 . S
Zn205 O217 2.034 1_554 S
O206 C190 1.251 . S
O206 Zn197 2.039 1_556 S
C207 O212 1.246 . S
C207 O213 1.249 . S
O208 C190 1.254 . S
O208 Zn205 2.025 1_556 S
H209 C201 0.952 . S
H210 C192 0.952 . S
H211 C200 0.948 . S
O212 Zn197 2.034 . S
O212 C207 1.246 . S
O213 Zn205 2.024 . S
O213 C207 1.249 . S
H214 C196 0.948 . S
O215 Zn205 2.039 . S
O215 C219 1.251 . S
O216 Zn197 2.025 . S
O216 C219 1.254 . S
O217 C198 1.246 . S
O217 Zn205 2.034 1_556 S
O218 Zn197 2.024 1_556 S
O218 C198 1.249 . S
C219 O215 1.251 . S
C219 O216 1.254 . S
H220 C193 0.949 . S
H221 C195 0.950 . S
H222 C202 0.949 . S
H223 C204 0.950 . S
C224 C225 1.387 . S
C224 H228 0.950 . S
C224 C233 1.390 . S
C225 C224 1.387 . S
C225 C227 1.387 . S
H226 C233 0.950 . S
C227 C225 1.387 . S
C227 C229 1.390 . S
C227 H231 0.950 . S
H228 C224 0.950 . S
C229 C227 1.390 . S
C229 C230 1.387 . S
C229 H232 0.950 . S
C230 C229 1.387 . S
C230 C233 1.387 . S
H231 C227 0.950 . S
H232 C229 0.950 . S
C233 C224 1.390 . S
C233 H226 0.950 . S
C233 C230 1.387 . S
C234 C235 1.387 1_556 S
C234 H238 0.950 . S
C234 C243 1.390 . S
C235 C234 1.387 1_554 S
C235 C237 1.387 . S
H236 C243 0.950 . S
C237 C235 1.387 . S
C237 C239 1.390 . S
C237 H241 0.950 . S
H238 C234 0.950 . S
C239 C237 1.390 . S
C239 C240 1.387 . S
C239 H242 0.950 . S
C240 C239 1.387 . S
C240 C243 1.387 1_554 S
H241 C237 0.950 . S
H242 C239 0.950 . S
C243 C234 1.390 . S
C243 H236 0.950 . S
C243 C240 1.387 1_556 S
C244 C245 1.387 . S
C244 H248 0.950 . S
C244 C253 1.390 . S
C245 C244 1.387 . S
C245 C247 1.387 . S
H246 C253 0.950 . S
C247 C245 1.387 . S
C247 C249 1.390 . S
C247 H251 0.950 . S
H248 C244 0.950 . S
C249 C247 1.390 . S
C249 C250 1.387 . S
C249 H252 0.950 . S
C250 C249 1.387 . S
C250 C253 1.387 . S
H251 C247 0.950 . S
H252 C249 0.950 . S
C253 C244 1.390 . S
C253 H246 0.950 . S
C253 C250 1.387 . S
C254 C255 1.387 1_556 S
C254 H258 0.950 . S
C254 C263 1.390 . S
C255 C254 1.387 1_554 S
C255 C257 1.387 . S
H256 C263 0.950 . S
C257 C255 1.387 . S
C257 C259 1.390 . S
C257 H261 0.950 . S
H258 C254 0.950 . S
C259 C257 1.390 . S
C259 C260 1.387 . S
C259 H262 0.950 . S
C260 C259 1.387 . S
C260 C263 1.387 1_554 S
H261 C257 0.950 . S
H262 C259 0.950 . S
C263 C254 1.390 . S
C263 H256 0.950 . S
C263 C260 1.387 1_556 S
C264 C265 1.387 . S
C264 H268 0.950 . S
C264 C273 1.390 . S
C265 C264 1.387 . S
C265 C267 1.387 . S
H266 C273 0.950 . S
C267 C265 1.387 . S
C267 C269 1.390 . S
C267 H271 0.950 . S
H268 C264 0.950 . S
C269 C267 1.390 . S
C269 C270 1.387 . S
C269 H272 0.950 . S
C270 C269 1.387 . S
C270 C273 1.387 . S
H271 C267 0.950 . S
H272 C269 0.950 . S
C273 C264 1.390 . S
C273 H266 0.950 . S
C273 C270 1.387 . S
C274 C275 1.387 . S
C274 H278 0.950 . S
C274 C283 1.390 . S
C275 C274 1.387 . S
C275 C277 1.387 . S
H276 C283 0.950 . S
C277 C275 1.387 . S
C277 C279 1.390 . S
C277 H281 0.950 . S
H278 C274 0.950 . S
C279 C277 1.390 . S
C279 C280 1.387 . S
C279 H282 0.950 . S
C280 C279 1.387 . S
C280 C283 1.387 . S
H281 C277 0.950 . S
H282 C279 0.950 . S
C283 C274 1.390 . S
C283 H276 0.950 . S
C283 C280 1.387 . S
C284 C285 1.387 . S
C284 H288 0.950 1_655 S
C284 C293 1.390 1_655 S
C285 C284 1.387 . S
C285 C287 1.387 . S
H286 C293 0.949 . S
C287 C285 1.387 . S
C287 C289 1.390 . S
C287 H291 0.950 . S
H288 C284 0.950 1_455 S
C289 C287 1.390 . S
C289 C290 1.387 . S
C289 H292 0.950 . S
C290 C289 1.387 . S
C290 C293 1.388 1_655 S
H291 C287 0.950 . S
H292 C289 0.950 . S
C293 C284 1.390 1_455 S
C293 H286 0.949 . S
C293 C290 1.388 1_455 S
C294 C295 1.387 . S
C294 H298 0.950 . S
C294 C303 1.390 . S
C295 C294 1.387 . S
C295 C297 1.387 . S
H296 C303 0.950 . S
C297 C295 1.387 . S
C297 C299 1.390 . S
C297 H301 0.950 . S
H298 C294 0.950 . S
C299 C297 1.390 . S
C299 C300 1.387 . S
C299 H302 0.950 . S
C300 C299 1.387 . S
C300 C303 1.387 . S
H301 C297 0.950 . S
H302 C299 0.950 . S
C303 C294 1.390 . S
C303 H296 0.950 . S
C303 C300 1.387 . S
C304 C305 1.387 . S
C304 H308 0.950 . S
C304 C313 1.390 . S
C305 C304 1.387 . S
C305 C307 1.387 . S
H306 C313 0.950 . S
C307 C305 1.387 . S
C307 C309 1.390 . S
C307 H311 0.950 . S
H308 C304 0.950 . S
C309 C307 1.390 . S
C309 C310 1.387 . S
C309 H312 0.950 . S
C310 C309 1.387 . S
C310 C313 1.387 . S
H311 C307 0.950 . S
H312 C309 0.950 . S
C313 C304 1.390 . S
C313 H306 0.950 . S
C313 C310 1.387 . S
C314 C315 1.387 . S
C314 H318 0.950 . S
C314 C323 1.390 . S
C315 C314 1.387 . S
C315 C317 1.387 . S
H316 C323 0.950 . S
C317 C315 1.387 . S
C317 C319 1.390 . S
C317 H321 0.950 . S
H318 C314 0.950 . S
C319 C317 1.390 . S
C319 C320 1.387 . S
C319 H322 0.950 . S
C320 C319 1.387 . S
C320 C323 1.387 . S
H321 C317 0.950 . S
H322 C319 0.950 . S
C323 C314 1.390 . S
C323 H316 0.950 . S
C323 C320 1.387 . S
C324 C325 1.387 . S
C324 H328 0.950 . S
C324 C333 1.390 . S
C325 C324 1.387 . S
C325 C327 1.387 . S
H326 C333 0.950 . S
C327 C325 1.387 . S
C327 C329 1.390 . S
C327 H331 0.950 . S
H328 C324 0.950 . S
C329 C327 1.390 . S
C329 C330 1.387 . S
C329 H332 0.950 . S
C330 C329 1.387 . S
C330 C333 1.387 . S
H331 C327 0.950 . S
H332 C329 0.950 . S
C333 C324 1.390 . S
C333 H326 0.950 . S
C333 C330 1.387 . S
C334 C335 1.387 . S
C334 H338 0.950 . S
C334 C343 1.390 . S
C335 C334 1.387 . S
C335 C337 1.387 . S
H336 C343 0.950 . S
C337 C335 1.387 . S
C337 C339 1.390 . S
C337 H341 0.950 . S
H338 C334 0.950 . S
C339 C337 1.390 . S
C339 C340 1.387 . S
C339 H342 0.950 . S
C340 C339 1.387 . S
C340 C343 1.387 . S
H341 C337 0.950 . S
H342 C339 0.950 . S
C343 C334 1.390 . S
C343 H336 0.950 . S
C343 C340 1.387 . S
C230 C160 1.681 . S
C225 C138 1.629 . S
C235 C21 1.586 . S
C240 C203 1.595 . S
C245 C60 1.643 . S
C250 C169 1.680 . S
C255 C99 1.572 . S
C260 C194 1.595 . S
C270 C156 1.683 . S
C265 C16 1.634 . S
C280 C198 1.787 . S
C275 C40 1.728 . S
C285 C79 1.625 . S
C290 C164 1.664 . S
C295 C133 1.719 . S
C300 C190 1.782 . S
C310 C219 1.781 . S
C305 C55 1.710 . S
C320 C185 1.683 . S
C315 C94 1.639 . S
C330 C207 1.787 . S
C325 C118 1.718 . S
C335 C1 1.634 . S
C340 C173 1.664 . S
