# Generated by pormake.
# Topology ftw, (4,12)-cn, num edge types: 1
# Building blocks:
#     Node 0, Type 0, BuildingBlock: MIFKUJ_clean_linker_1, # of connection points: 4
#     Node 1, Type 0, BuildingBlock: MIFKUJ_clean_linker_1, # of connection points: 4
#     Node 2, Type 0, BuildingBlock: MIFKUJ_clean_linker_1, # of connection points: 4
#     Node 3, Type 1, BuildingBlock: EZIPEK_clean_sbu_0, # of connection points: 12
#     Edge 4, Type (0, 1), BuildingBlock: AJUNOK_clean_linker_0, # of connection points: 2
#     Edge 5, Type (0, 1), BuildingBlock: AJUNOK_clean_linker_0, # of connection points: 2
#     Edge 6, Type (0, 1), BuildingBlock: AJUNOK_clean_linker_0, # of connection points: 2
#     Edge 7, Type (0, 1), BuildingBlock: AJUNOK_clean_linker_0, # of connection points: 2
#     Edge 8, Type (0, 1), BuildingBlock: AJUNOK_clean_linker_0, # of connection points: 2
#     Edge 9, Type (0, 1), BuildingBlock: AJUNOK_clean_linker_0, # of connection points: 2
#     Edge 10, Type (0, 1), BuildingBlock: AJUNOK_clean_linker_0, # of connection points: 2
#     Edge 11, Type (0, 1), BuildingBlock: AJUNOK_clean_linker_0, # of connection points: 2
#     Edge 12, Type (0, 1), BuildingBlock: AJUNOK_clean_linker_0, # of connection points: 2
#     Edge 13, Type (0, 1), BuildingBlock: AJUNOK_clean_linker_0, # of connection points: 2
#     Edge 14, Type (0, 1), BuildingBlock: AJUNOK_clean_linker_0, # of connection points: 2
#     Edge 15, Type (0, 1), BuildingBlock: AJUNOK_clean_linker_0, # of connection points: 2
# Relax obj value: 0.048
# Max RMSD: 0.168
# Mean RMSD: 0.128
data_MOF--net-ftw--node1-EZIPEK_clean_sbu_0--node2-MIFKUJ_clean_linker_1--edge1-AJUNOK_clean_linker_0
_symmetry_space_group_name_H-M    P1
_symmetry_Int_Tables_number       1
_symmetry_cell_setting            triclinic
loop_
_symmetry_equiv_pos_as_xyz
'x, y, z'
_cell_length_a     22.235707
_cell_length_b     23.091142
_cell_length_c     22.54732
_cell_angle_alpha  89.99871
_cell_angle_beta   90.052253
_cell_angle_gamma 89.8907
loop_
_atom_site_label
_atom_site_type_symbol
_atom_site_fract_x
_atom_site_fract_y
_atom_site_fract_z
_atom_type_partial_charge
H0 H 0.09093 0.61475 0.6157 0.0
H1 H 0.08914 0.6892 0.69272 0.0
H2 H 0.91194 0.74167 0.63552 0.0
H3 H 0.9142 0.66722 0.55773 0.0
H4 H 0.01245 0.52823 0.62038 0.0
H5 H 0.06811 0.67135 0.4723 0.0
H6 H 0.06976 0.74726 0.39585 0.0
H7 H 0.89849 0.6878 0.32997 0.0
H8 H 0.89649 0.61278 0.40636 0.0
H9 H 0.89586 0.44633 0.4056 0.0
H10 H 0.89746 0.37228 0.32821 0.0
H11 H 0.06854 0.31072 0.39318 0.0
H12 H 0.0672 0.38558 0.4707 0.0
H13 H 0.97343 0.52915 0.4046 0.0
H14 H 0.91397 0.38929 0.55393 0.0
H15 H 0.91 0.3135 0.62996 0.0
H16 H 0.08411 0.36647 0.69478 0.0
H17 H 0.08779 0.44222 0.61907 0.0
C18 C 0.00275 0.63524 0.58066 0.0
C19 C 0.05211 0.64301 0.61886 0.0
C20 C 0.05071 0.68508 0.66347 0.0
C21 C -0.00033 0.72023 0.67139 0.0
C22 C 0.95175 0.71496 0.63083 0.0
C23 C 0.9532 0.67274 0.58598 0.0
C24 C -0.00086 0.58194 0.54351 0.0
C25 C 0.005 0.52834 0.57281 0.0
C26 C 0.98654 0.58227 0.48191 0.0
C27 C 0.98221 0.63602 0.44529 0.0
C28 C 0.03005 0.67569 0.44261 0.0
C29 C 0.03124 0.71874 0.39853 0.0
C30 C 0.98496 0.72245 0.35601 0.0
C31 C 0.93551 0.68507 0.36113 0.0
C32 C 0.93411 0.64251 0.40522 0.0
C33 C 0.98145 0.42191 0.44424 0.0
C34 C 0.93336 0.41634 0.40402 0.0
C35 C 0.93457 0.37439 0.35928 0.0
C36 C 0.98386 0.33668 0.3536 0.0
C37 C 0.03016 0.33952 0.39619 0.0
C38 C 0.02914 0.38195 0.44093 0.0
C39 C 0.98611 0.47524 0.48149 0.0
C40 C 0.9807 0.52891 0.4522 0.0
C41 C -0.00135 0.47496 0.54319 0.0
C42 C 0.00142 0.42136 0.58014 0.0
C43 C 0.95214 0.38349 0.58324 0.0
C44 C 0.94978 0.34033 0.62707 0.0
C45 C -0.00328 0.33406 0.66868 0.0
C46 C 0.04697 0.37053 0.66393 0.0
C47 C 0.04934 0.41349 0.6202 0.0
H48 H 0.40392 0.14293 0.41144 0.0
H49 H 0.3272 0.1427 0.33325 0.0
H50 H 0.35961 0.96061 0.30337 0.0
H51 H 0.43651 0.96097 0.38132 0.0
H52 H 0.38418 0.07123 0.50915 0.0
H53 H 0.54483 0.11096 0.37393 0.0
H54 H 0.62228 0.10534 0.29687 0.0
H55 H 0.65779 0.92746 0.3449 0.0
H56 H 0.57996 0.93295 0.42133 0.0
H57 H 0.58442 0.93464 0.59781 0.0
H58 H 0.66087 0.93045 0.67585 0.0
H59 H 0.61019 0.10192 0.73355 0.0
H60 H 0.53453 0.10679 0.65461 0.0
H61 H 0.59704 1.00783 0.51186 0.0
H62 H 0.43817 0.961 0.64126 0.0
H63 H 0.35943 0.958 0.71667 0.0
H64 H 0.31696 0.13742 0.68153 0.0
H65 H 0.3953 0.14 0.60527 0.0
C66 C 0.4259 0.0521 0.40151 0.0
C67 C 0.39568 0.10346 0.38675 0.0
C68 C 0.35201 0.10327 0.34245 0.0
C69 C 0.33781 0.05154 0.31309 0.0
C70 C 0.37004 1.00082 0.3259 0.0
C71 C 0.41418 1.00117 0.36974 0.0
C72 C 0.46126 0.04896 0.45641 0.0
C73 C 0.43129 0.0588 0.50991 0.0
C74 C 0.52117 0.02955 0.4572 0.0
C75 C 0.55683 1.02229 0.40291 0.0
C76 C 0.56788 0.07023 0.36643 0.0
C77 C 0.61238 0.06721 0.3231 0.0
C78 C 0.64581 1.01613 0.31568 0.0
C79 C 0.6321 0.9671 0.34971 0.0
C80 C 0.58785 0.9702 0.39318 0.0
C81 C 0.55422 1.02117 0.62031 0.0
C82 C 0.58888 0.97084 0.62805 0.0
C83 C 0.63255 0.96853 0.67219 0.0
C84 C 0.6416 1.01632 0.70934 0.0
C85 C 0.60374 0.06478 0.70489 0.0
C86 C 0.56036 0.06735 0.66028 0.0
C87 C 0.51976 1.02905 0.56507 0.0
C88 C 0.54999 1.02049 0.51144 0.0
C89 C 0.45967 0.0484 0.56427 0.0
C90 C 0.42241 0.05075 0.618 0.0
C91 C 0.41307 1.00013 0.65098 0.0
C92 C 0.36787 0.99833 0.69361 0.0
C93 C 0.33148 0.0471 0.70359 0.0
C94 C 0.34349 0.09886 0.67328 0.0
C95 C 0.38853 0.10058 0.63046 0.0
H96 H 0.60198 0.60678 0.92011 0.0
H97 H 0.67841 0.68282 0.92171 0.0
H98 H 0.6055 0.74785 0.08595 0.0
H99 H 0.53017 0.67035 0.08574 0.0
H100 H 0.59973 0.5248 0.9935 0.0
H101 H 0.44791 0.6661 0.93733 0.0
H102 H 0.37141 0.743 0.93584 0.0
H103 H 0.31229 0.69134 0.11021 0.0
H104 H 0.38849 0.61492 0.11171 0.0
H105 H 0.3887 0.44016 0.11426 0.0
H106 H 0.31284 0.36357 0.11379 0.0
H107 H 0.36771 0.31429 0.93718 0.0
H108 H 0.4444 0.39038 0.93826 0.0
H109 H 0.38159 0.52833 0.03639 0.0
H110 H 0.54868 0.40135 0.1002 0.0
H111 H 0.62534 0.32441 0.10009 0.0
H112 H 0.65282 0.3505 0.91256 0.0
H113 H 0.57708 0.42787 0.91302 0.0
C114 C 0.55996 0.63275 1.00271 0.0
C115 C 0.6018 0.63776 0.9562 0.0
C116 C 0.64566 0.6809 0.9572 0.0
C117 C 0.64793 0.72055 1.00418 0.0
C118 C 0.60437 0.71765 0.0492 0.0
C119 C 0.56094 0.67381 0.04871 0.0
C120 C 0.52239 0.57974 1.00733 0.0
C121 C 0.55165 0.52599 1.00171 0.0
C122 C 0.4602 0.58064 0.0209 0.0
C123 C 0.42386 0.63458 0.02456 0.0
C124 C 0.41963 0.67237 0.9759 0.0
C125 C 0.37566 0.71597 0.97489 0.0
C126 C 0.33506 0.72203 0.02231 0.0
C127 C 0.34201 0.68662 0.07246 0.0
C128 C 0.38589 0.64334 0.07354 0.0
C129 C 0.42228 0.42098 0.02635 0.0
C130 C 0.38524 0.41208 0.07592 0.0
C131 C 0.34146 0.3688 0.07532 0.0
C132 C 0.33332 0.33405 0.0248 0.0
C133 C 0.37284 0.34063 0.9766 0.0
C134 C 0.41692 0.38383 0.97733 0.0
C135 C 0.45908 0.47431 0.02227 0.0
C136 C 0.42966 0.52782 0.02807 0.0
C137 C 0.52099 0.47352 1.00898 0.0
C138 C 0.55681 0.41963 1.00646 0.0
C139 C 0.5701 0.38937 0.05883 0.0
C140 C 0.61419 0.34604 0.05887 0.0
C141 C 0.64481 0.3319 1.00635 0.0
C142 C 0.62944 0.36043 0.95346 0.0
C143 C 0.58612 0.40431 0.95363 0.0
C144 C 0.9874 0.16651 0.86463 0.0
C145 C -0.00954 0.1699 0.15705 0.0
C146 C -0.00991 0.88653 0.86793 0.0
C147 C -0.00733 0.88872 0.15928 0.0
C148 C 0.13697 0.88836 0.01321 0.0
C149 C 0.13577 0.1683 1.01153 0.0
C150 C 0.84274 0.88939 1.01208 0.0
C151 C 0.84263 0.16746 1.01071 0.0
C152 C 0.84679 1.02273 0.15583 0.0
C153 C 0.13749 0.03644 0.15203 0.0
C154 C 0.84225 1.02481 0.8726 0.0
C155 C 0.13363 0.02958 0.86877 0.0
Eu156 Eu -0.0108 0.13986 1.01129 0.0
O157 O 0.04238 0.08059 0.06351 0.0
O158 O 0.93649 0.08011 0.95954 0.0
Eu159 Eu 0.10162 1.0283 1.01103 0.0
Eu160 Eu 0.87873 1.0284 0.01384 0.0
O161 O 0.04147 0.08004 0.9587 0.0
O162 O 0.93761 0.0814 0.06605 0.0
Eu163 Eu -0.01148 1.02696 0.90036 0.0
Eu164 Eu -0.00838 0.02914 0.12496 0.0
O165 O 0.04216 0.97515 0.95949 0.0
O166 O 0.04361 0.97613 0.06526 0.0
O167 O 0.93865 0.97653 0.06619 0.0
O168 O 0.937 0.97544 0.961 0.0
Eu169 Eu -0.00988 0.91659 0.01342 0.0
O170 O -0.01107 0.18622 0.92074 0.0
O171 O -0.01011 0.18787 0.10042 0.0
O172 O -0.00943 0.8685 0.92451 0.0
O173 O -0.00955 0.87005 0.103 0.0
O174 O 0.15365 0.94388 1.01249 0.0
O175 O 0.15284 0.11288 1.00995 0.0
O176 O 0.82711 0.94499 1.01256 0.0
O177 O 0.82627 0.11202 1.012 0.0
O178 O 0.90336 1.02644 0.17506 0.0
O179 O 0.08138 0.03327 0.17265 0.0
O180 O 0.89874 1.02486 0.8527 0.0
O181 O 0.07668 1.02894 0.8502 0.0
O182 O 0.89949 0.86965 0.01271 0.0
O183 O 0.0801 0.86962 0.01347 0.0
O184 O 0.89914 0.18716 1.01142 0.0
O185 O 0.07884 0.18701 1.01206 0.0
O186 O -0.00921 0.11455 0.17437 0.0
O187 O -0.00573 0.94431 0.17581 0.0
O188 O 0.98691 0.11079 0.84919 0.0
O189 O -0.01079 0.94183 0.8506 0.0
O190 O 0.15155 1.02876 0.92499 0.0
O191 O 0.15396 0.03433 0.09551 0.0
O192 O 0.82618 1.02646 0.92929 0.0
O193 O 0.82871 1.0234 0.0997 0.0
C194 C -0.00194 0.23636 0.31237 0.0
C195 C 0.9873 0.29554 0.30254 0.0
C196 C -0.0007 0.19663 0.26517 0.0
C197 C -0.00956 0.21424 0.2057 0.0
H198 H 0.00445 0.22039 0.35712 0.0
H199 H 0.00719 0.15152 0.27582 0.0
S200 S 0.96504 0.36584 0.15602 0.0
N201 N 0.97072 0.3707 0.22887 0.0
N202 N 0.97306 0.29646 0.14017 0.0
C203 C 0.9811 0.27382 0.19524 0.0
C204 C 0.97945 0.31421 0.24353 0.0
C205 C 0.74366 0.05701 0.28306 0.0
C206 C 0.69802 1.01545 0.27584 0.0
C207 C 0.7938 0.05755 0.24567 0.0
C208 C 0.79896 1.01707 0.19966 0.0
H209 H 0.74044 0.08932 0.31777 0.0
H210 H 0.8275 0.09093 0.25141 0.0
S211 S 0.6938 0.89748 0.16468 0.0
N212 N 0.6626 0.93133 0.22141 0.0
N213 N 0.75673 0.93272 0.15046 0.0
C214 C 0.75449 0.97451 0.19289 0.0
C215 C 0.70393 0.97354 0.23128 0.0
C216 C -0.00103 0.82288 0.31501 0.0
C217 C -0.01109 0.76363 0.30512 0.0
C218 C 0.00051 0.86253 0.26771 0.0
C219 C -0.00733 0.84468 0.20821 0.0
H220 H 0.00455 0.83893 0.35982 0.0
H221 H 0.0077 0.90774 0.27829 0.0
S222 S 0.96982 0.69268 0.1586 0.0
N223 N 0.97434 0.68813 0.23153 0.0
N224 N 0.97731 0.76207 0.14268 0.0
C225 C 0.98415 0.78498 0.19778 0.0
C226 C 0.98219 0.74474 0.24612 0.0
C227 C 0.23817 1.01198 0.28418 0.0
C228 C 0.28645 0.04948 0.27226 0.0
C229 C 0.18851 1.00939 0.24614 0.0
C230 C 0.18652 0.04349 0.19471 0.0
H231 H 0.23885 0.98463 0.32324 0.0
H232 H 0.15246 0.97941 0.25604 0.0
S233 S 0.30049 0.15031 0.14543 0.0
N234 N 0.32841 0.12276 0.20722 0.0
N235 N 0.23539 0.11752 0.13496 0.0
C236 C 0.23409 0.08182 0.1829 0.0
C237 C 0.28409 0.08496 0.22197 0.0
C238 C 0.97837 0.81903 0.71362 0.0
C239 C -0.00399 0.76121 0.72261 0.0
C240 C 0.97615 0.85867 0.76084 0.0
C241 C -0.00903 0.84225 0.81945 0.0
H242 H 0.96718 0.83412 0.66947 0.0
H243 H 0.96266 0.90274 0.75097 0.0
S244 S 0.03659 0.69454 0.86722 0.0
N245 N 0.02584 0.68854 0.79501 0.0
N246 N 0.02225 0.76287 0.88355 0.0
C247 C 0.00748 0.78407 0.82922 0.0
C248 C 0.00997 0.74374 0.78095 0.0
C249 C 0.28838 1.01965 0.80105 0.0
C250 C 0.27992 0.043 0.74427 0.0
C251 C 0.24035 1.0145 0.84035 0.0
C252 C 0.18198 0.0324 0.82428 0.0
H253 H 0.33263 1.0058 0.81545 0.0
H254 H 0.24934 0.99639 0.88382 0.0
S255 S 0.13606 0.09464 0.67936 0.0
N256 N 0.20892 0.08233 0.67254 0.0
N257 N 0.11829 0.07371 0.74713 0.0
C258 C 0.17268 0.05513 0.76715 0.0
C259 C 0.22182 0.06038 0.72705 0.0
C260 C 0.00511 0.30764 0.77703 0.0
C261 C -0.00716 0.29095 0.71807 0.0
C262 C 0.00216 0.26774 0.82421 0.0
C263 C 0.9873 0.2092 0.81445 0.0
H264 H 0.01682 0.35213 0.78689 0.0
H265 H 0.01249 0.28288 0.86851 0.0
S266 S 0.95147 0.14347 0.66758 0.0
N267 N 0.96581 0.21196 0.65243 0.0
N268 N 0.95927 0.13717 0.74005 0.0
C269 C 0.97453 0.19218 0.75539 0.0
C270 C 0.97747 0.2329 0.7076 0.0
C271 C 0.68393 1.02471 0.81065 0.0
C272 C 0.69326 1.01739 0.7498 0.0
C273 C 0.73252 1.02669 0.84973 0.0
C274 C 0.79237 1.02243 0.82922 0.0
H275 H 0.63872 1.0285 0.82817 0.0
H276 H 0.7226 0.03183 0.89645 0.0
S277 S 0.83955 1.00446 0.67226 0.0
N278 N 0.76538 1.0067 0.6697 0.0
N279 N 0.85751 1.01102 0.74299 0.0
C280 C 0.80206 1.01546 0.76793 0.0
C281 C 0.75228 1.01281 0.72826 0.0
C282 C 0.29173 0.23554 1.00258 0.0
C283 C 0.28213 0.29284 0.02131 0.0
C284 C 0.24411 0.19599 0.99907 0.0
C285 C 0.18473 0.21215 0.01377 0.0
H286 H 0.3366 0.22089 0.99133 0.0
H287 H 0.25422 0.15225 0.98478 0.0
S288 S 0.13549 0.35839 0.06282 0.0
N289 N 0.20865 0.36477 0.05243 0.0
N290 N 0.11927 0.29044 0.04687 0.0
C291 C 0.17445 0.26976 0.0318 0.0
C292 C 0.22308 0.30998 0.03542 0.0
C293 C 0.29386 0.8218 1.00514 0.0
C294 C 0.28381 0.76327 0.01863 0.0
C295 C 0.24614 0.8616 1.00322 0.0
C296 C 0.18623 0.84442 0.01413 0.0
H297 H 0.33911 0.83715 0.997 0.0
H298 H 0.25662 0.90632 0.99306 0.0
S299 S 0.13604 0.69441 0.04756 0.0
N300 N 0.2097 0.68903 0.04019 0.0
N301 N 0.11995 0.76343 0.03688 0.0
C302 C 0.17559 0.78542 0.02639 0.0
C303 C 0.22435 0.74505 0.02863 0.0
C304 C 0.7454 0.29891 0.04334 0.0
C305 C 0.69478 0.28947 1.00706 0.0
C306 C 0.79416 0.26013 0.0432 0.0
C307 C 0.79314 0.21009 1.00771 0.0
H308 H 0.74753 0.33687 0.0715 0.0
H309 H 0.8322 0.26867 0.07194 0.0
S310 S 0.67156 0.16648 0.90413 0.0
N311 N 0.64715 0.22746 0.93397 0.0
N312 N 0.73799 0.15396 0.93442 0.0
C313 C 0.74282 0.20037 0.97119 0.0
C314 C 0.69382 0.24025 0.97064 0.0
C315 C 0.75723 0.74627 1.00772 0.0
C316 C 0.69671 0.76402 1.00667 0.0
C317 C 0.80414 0.78687 1.00989 0.0
C318 C 0.79227 0.84685 1.0103 0.0
H319 H 0.76836 0.70056 1.00738 0.0
H320 H 0.84996 0.77093 1.01106 0.0
S321 S 0.63995 0.91475 1.00441 0.0
N322 N 0.62679 0.84447 1.00449 0.0
N323 N 0.71377 0.9213 1.00717 0.0
C324 C 0.7313 0.86484 1.00835 0.0
C325 C 0.68385 0.82334 1.00696 0.0
loop_
_geom_bond_atom_site_label_1
_geom_bond_atom_site_label_2
_geom_bond_distance
_geom_bond_site_symmetry_2
_ccdc_geom_bond_type
H0 C19 0.949 . S
H1 C20 0.950 . S
H2 C22 0.950 . S
H3 C23 0.950 . S
H4 C25 0.950 . S
H5 C28 0.950 . S
H6 C29 0.950 . S
H7 C31 0.951 . S
H8 C32 0.949 . S
H9 C34 0.949 . S
H10 C35 0.950 . S
H11 C37 0.950 . S
H12 C38 0.950 . S
H13 C40 0.950 . S
H14 C43 0.950 . S
H15 C44 0.950 . S
H16 C46 0.951 . S
H17 C47 0.949 . S
C18 C19 1.376 . S
C18 C23 1.386 1_455 S
C18 C24 1.483 . S
C19 H0 0.949 . S
C19 C18 1.376 . S
C19 C20 1.397 . S
C20 H1 0.950 . S
C20 C19 1.397 . S
C20 C21 1.391 . S
C21 C20 1.391 . S
C21 C22 1.405 1_455 S
C22 H2 0.950 . S
C22 C21 1.405 1_655 S
C22 C23 1.367 . S
C23 H3 0.950 . S
C23 C18 1.386 1_655 S
C23 C22 1.367 . S
C24 C18 1.483 . S
C24 C25 1.382 . S
C24 C26 1.403 1_455 S
C25 H4 0.950 . S
C25 C24 1.382 . S
C25 C41 1.411 . S
C26 C24 1.403 1_655 S
C26 C27 1.489 . S
C26 C40 1.411 . S
C27 C26 1.489 . S
C27 C28 1.383 1_655 S
C27 C32 1.382 . S
C28 H5 0.950 . S
C28 C27 1.383 1_455 S
C28 C29 1.395 . S
C29 H6 0.950 . S
C29 C28 1.395 . S
C29 C30 1.288 1_455 S
C30 C29 1.288 1_655 S
C30 C31 1.392 . S
C31 H7 0.951 . S
C31 C30 1.392 . S
C31 C32 1.392 . S
C32 H8 0.949 . S
C32 C27 1.382 . S
C32 C31 1.392 . S
C33 C34 1.376 . S
C33 C38 1.386 1_655 S
C33 C39 1.483 . S
C34 H9 0.949 . S
C34 C33 1.376 . S
C34 C35 1.397 . S
C35 H10 0.950 . S
C35 C34 1.397 . S
C35 C36 1.391 . S
C36 C35 1.391 . S
C36 C37 1.405 1_655 S
C37 H11 0.950 . S
C37 C36 1.405 1_455 S
C37 C38 1.367 . S
C38 H12 0.950 . S
C38 C33 1.386 1_455 S
C38 C37 1.367 . S
C39 C33 1.483 . S
C39 C40 1.382 . S
C39 C41 1.403 1_655 S
C40 H13 0.950 . S
C40 C26 1.411 . S
C40 C39 1.382 . S
C41 C25 1.411 . S
C41 C39 1.403 1_455 S
C41 C42 1.489 . S
C42 C41 1.489 . S
C42 C43 1.383 1_455 S
C42 C47 1.382 . S
C43 H14 0.950 . S
C43 C42 1.383 1_655 S
C43 C44 1.395 . S
C44 H15 0.950 . S
C44 C43 1.395 . S
C44 C45 1.288 1_655 S
C45 C44 1.288 1_455 S
C45 C46 1.392 . S
C46 H16 0.951 . S
C46 C45 1.392 . S
C46 C47 1.392 . S
C47 H17 0.949 . S
C47 C42 1.382 . S
C47 C46 1.392 . S
H48 C67 0.949 . S
H49 C68 0.950 . S
H50 C70 0.950 . S
H51 C71 0.950 . S
H52 C73 0.950 . S
H53 C76 0.950 . S
H54 C77 0.950 . S
H55 C79 0.951 . S
H56 C80 0.949 . S
H57 C82 0.949 . S
H58 C83 0.950 . S
H59 C85 0.950 . S
H60 C86 0.950 . S
H61 C88 0.950 . S
H62 C91 0.950 . S
H63 C92 0.950 . S
H64 C94 0.951 . S
H65 C95 0.949 . S
C66 C67 1.376 . S
C66 C71 1.386 1_545 S
C66 C72 1.483 . S
C67 H48 0.949 . S
C67 C66 1.376 . S
C67 C68 1.397 . S
C68 H49 0.950 . S
C68 C67 1.397 . S
C68 C69 1.391 . S
C69 C68 1.391 . S
C69 C70 1.405 1_545 S
C70 H50 0.950 . S
C70 C69 1.405 1_565 S
C70 C71 1.367 . S
C71 H51 0.950 . S
C71 C66 1.386 1_565 S
C71 C70 1.367 . S
C72 C66 1.483 . S
C72 C73 1.382 . S
C72 C74 1.403 1_545 S
C73 H52 0.950 . S
C73 C72 1.382 . S
C73 C89 1.411 . S
C74 C72 1.403 1_565 S
C74 C75 1.489 . S
C74 C88 1.411 . S
C75 C74 1.489 . S
C75 C76 1.383 1_565 S
C75 C80 1.382 . S
C76 H53 0.950 . S
C76 C75 1.383 1_545 S
C76 C77 1.395 . S
C77 H54 0.950 . S
C77 C76 1.395 . S
C77 C78 1.288 1_545 S
C78 C77 1.288 1_565 S
C78 C79 1.392 . S
C79 H55 0.951 . S
C79 C78 1.392 . S
C79 C80 1.392 . S
C80 H56 0.949 . S
C80 C75 1.382 . S
C80 C79 1.392 . S
C81 C82 1.376 . S
C81 C86 1.386 1_565 S
C81 C87 1.483 . S
C82 H57 0.949 . S
C82 C81 1.376 . S
C82 C83 1.397 . S
C83 H58 0.950 . S
C83 C82 1.397 . S
C83 C84 1.391 . S
C84 C83 1.391 . S
C84 C85 1.405 1_565 S
C85 H59 0.950 . S
C85 C84 1.405 1_545 S
C85 C86 1.367 . S
C86 H60 0.950 . S
C86 C81 1.386 1_545 S
C86 C85 1.367 . S
C87 C81 1.483 . S
C87 C88 1.382 . S
C87 C89 1.403 1_565 S
C88 H61 0.950 . S
C88 C74 1.411 . S
C88 C87 1.382 . S
C89 C73 1.411 . S
C89 C87 1.403 1_545 S
C89 C90 1.489 . S
C90 C89 1.489 . S
C90 C91 1.383 1_545 S
C90 C95 1.382 . S
C91 H62 0.950 . S
C91 C90 1.383 1_565 S
C91 C92 1.395 . S
C92 H63 0.950 . S
C92 C91 1.395 . S
C92 C93 1.288 1_565 S
C93 C92 1.288 1_545 S
C93 C94 1.392 . S
C94 H64 0.951 . S
C94 C93 1.392 . S
C94 C95 1.392 . S
C95 H65 0.949 . S
C95 C90 1.382 . S
C95 C94 1.392 . S
H96 C115 0.949 . S
H97 C116 0.950 . S
H98 C118 0.950 . S
H99 C119 0.950 . S
H100 C121 0.950 . S
H101 C124 0.950 . S
H102 C125 0.950 . S
H103 C127 0.951 . S
H104 C128 0.949 . S
H105 C130 0.949 . S
H106 C131 0.950 . S
H107 C133 0.950 . S
H108 C134 0.950 . S
H109 C136 0.950 . S
H110 C139 0.950 . S
H111 C140 0.950 . S
H112 C142 0.951 . S
H113 C143 0.949 . S
C114 C115 1.376 . S
C114 C119 1.386 1_556 S
C114 C120 1.483 . S
C115 H96 0.949 . S
C115 C114 1.376 . S
C115 C116 1.397 . S
C116 H97 0.950 . S
C116 C115 1.397 . S
C116 C117 1.391 . S
C117 C116 1.391 . S
C117 C118 1.405 1_556 S
C118 H98 0.950 . S
C118 C117 1.405 1_554 S
C118 C119 1.367 . S
C119 H99 0.950 . S
C119 C114 1.386 1_554 S
C119 C118 1.367 . S
C120 C114 1.483 . S
C120 C121 1.382 . S
C120 C122 1.403 1_556 S
C121 H100 0.950 . S
C121 C120 1.382 . S
C121 C137 1.411 . S
C122 C120 1.403 1_554 S
C122 C123 1.489 . S
C122 C136 1.411 . S
C123 C122 1.489 . S
C123 C124 1.383 1_554 S
C123 C128 1.382 . S
C124 H101 0.950 . S
C124 C123 1.383 1_556 S
C124 C125 1.395 . S
C125 H102 0.950 . S
C125 C124 1.395 . S
C125 C126 1.288 1_556 S
C126 C125 1.288 1_554 S
C126 C127 1.392 . S
C127 H103 0.951 . S
C127 C126 1.392 . S
C127 C128 1.392 . S
C128 H104 0.949 . S
C128 C123 1.382 . S
C128 C127 1.392 . S
C129 C130 1.376 . S
C129 C134 1.386 1_554 S
C129 C135 1.483 . S
C130 H105 0.949 . S
C130 C129 1.376 . S
C130 C131 1.397 . S
C131 H106 0.950 . S
C131 C130 1.397 . S
C131 C132 1.391 . S
C132 C131 1.391 . S
C132 C133 1.405 1_554 S
C133 H107 0.950 . S
C133 C132 1.405 1_556 S
C133 C134 1.367 . S
C134 H108 0.950 . S
C134 C129 1.386 1_556 S
C134 C133 1.367 . S
C135 C129 1.483 . S
C135 C136 1.382 . S
C135 C137 1.403 1_554 S
C136 H109 0.950 . S
C136 C122 1.411 . S
C136 C135 1.382 . S
C137 C121 1.411 . S
C137 C135 1.403 1_556 S
C137 C138 1.489 . S
C138 C137 1.489 . S
C138 C139 1.383 1_556 S
C138 C143 1.382 . S
C139 H110 0.950 . S
C139 C138 1.383 1_554 S
C139 C140 1.395 . S
C140 H111 0.950 . S
C140 C139 1.395 . S
C140 C141 1.288 1_554 S
C141 C140 1.288 1_556 S
C141 C142 1.392 . S
C142 H112 0.951 . S
C142 C141 1.392 . S
C142 C143 1.392 . S
C143 H113 0.949 . S
C143 C138 1.382 . S
C143 C142 1.392 . S
C144 O170 1.283 . S
C144 O188 1.283 . S
C145 O171 1.283 . S
C145 O186 1.283 . S
C146 O172 1.283 . S
C146 O189 1.283 . S
C147 O173 1.283 . S
C147 O187 1.283 . S
C148 O174 1.283 . S
C148 O183 1.283 . S
C149 O175 1.283 . S
C149 O185 1.283 . S
C150 O176 1.283 . S
C150 O182 1.283 . S
C151 O177 1.283 . S
C151 O184 1.283 . S
C152 O178 1.283 . S
C152 O193 1.283 . S
C153 O179 1.283 . S
C153 O191 1.283 . S
C154 O180 1.283 . S
C154 O192 1.283 . S
C155 O181 1.283 . S
C155 O190 1.283 . S
Eu156 O157 2.371 . S
Eu156 O158 2.369 1_454 S
Eu156 O161 2.370 1_554 S
Eu156 O162 2.370 1_455 S
Eu156 O170 2.362 1_554 S
Eu156 O171 2.363 . S
Eu156 O184 2.362 1_455 S
Eu156 O185 2.363 . S
O157 Eu156 2.371 . S
O157 Eu159 2.371 . S
O157 Eu164 2.371 . S
O158 Eu156 2.369 1_656 S
O158 Eu160 2.370 1_556 S
O158 Eu163 2.370 1_655 S
Eu159 O157 2.371 . S
Eu159 O161 2.370 1_554 S
Eu159 O165 2.369 1_544 S
Eu159 O166 2.370 1_545 S
Eu159 O174 2.362 1_545 S
Eu159 O175 2.364 . S
Eu159 O190 2.362 1_554 S
Eu159 O191 2.364 . S
Eu160 O158 2.370 1_554 S
Eu160 O162 2.369 . S
Eu160 O167 2.370 1_545 S
Eu160 O168 2.371 1_544 S
Eu160 O176 2.364 1_545 S
Eu160 O177 2.362 . S
Eu160 O192 2.364 1_554 S
Eu160 O193 2.362 . S
O161 Eu156 2.370 1_556 S
O161 Eu159 2.370 1_556 S
O161 Eu163 2.369 . S
O162 Eu156 2.370 1_655 S
O162 Eu160 2.369 . S
O162 Eu164 2.370 1_655 S
Eu163 O158 2.370 1_455 S
Eu163 O161 2.369 . S
Eu163 O165 2.370 1_545 S
Eu163 O168 2.371 1_445 S
Eu163 O180 2.364 1_455 S
Eu163 O181 2.362 . S
Eu163 O188 2.362 . S
Eu163 O189 2.363 1_545 S
Eu164 O157 2.371 . S
Eu164 O162 2.370 1_455 S
Eu164 O166 2.370 1_545 S
Eu164 O167 2.369 1_445 S
Eu164 O178 2.362 1_455 S
Eu164 O179 2.364 . S
Eu164 O186 2.363 . S
Eu164 O187 2.362 1_545 S
O165 Eu159 2.369 1_566 S
O165 Eu163 2.370 1_565 S
O165 Eu169 2.370 1_556 S
O166 Eu159 2.370 1_565 S
O166 Eu164 2.370 1_565 S
O166 Eu169 2.369 . S
O167 Eu160 2.370 1_565 S
O167 Eu164 2.369 1_665 S
O167 Eu169 2.370 1_655 S
O168 Eu160 2.371 1_566 S
O168 Eu163 2.371 1_665 S
O168 Eu169 2.371 1_656 S
Eu169 O165 2.370 1_554 S
Eu169 O166 2.369 . S
Eu169 O167 2.370 1_455 S
Eu169 O168 2.371 1_454 S
Eu169 O172 2.363 1_554 S
Eu169 O173 2.362 . S
Eu169 O182 2.363 1_455 S
Eu169 O183 2.362 . S
O170 C144 1.283 . S
O170 Eu156 2.362 1_556 S
O171 C145 1.283 . S
O171 Eu156 2.363 . S
O172 C146 1.283 . S
O172 Eu169 2.363 1_556 S
O173 C147 1.283 . S
O173 Eu169 2.362 . S
O174 C148 1.283 . S
O174 Eu159 2.362 1_565 S
O175 C149 1.283 . S
O175 Eu159 2.364 . S
O176 C150 1.283 . S
O176 Eu160 2.364 1_565 S
O177 C151 1.283 . S
O177 Eu160 2.362 . S
O178 C152 1.283 . S
O178 Eu164 2.362 1_655 S
O179 C153 1.283 . S
O179 Eu164 2.364 . S
O180 C154 1.283 . S
O180 Eu163 2.364 1_655 S
O181 C155 1.283 . S
O181 Eu163 2.362 . S
O182 C150 1.283 . S
O182 Eu169 2.363 1_655 S
O183 C148 1.283 . S
O183 Eu169 2.362 . S
O184 C151 1.283 . S
O184 Eu156 2.362 1_655 S
O185 C149 1.283 . S
O185 Eu156 2.363 . S
O186 C145 1.283 . S
O186 Eu164 2.363 . S
O187 C147 1.283 . S
O187 Eu164 2.362 1_565 S
O188 C144 1.283 . S
O188 Eu163 2.362 . S
O189 C146 1.283 . S
O189 Eu163 2.363 1_565 S
O190 C155 1.283 . S
O190 Eu159 2.362 1_556 S
O191 C153 1.283 . S
O191 Eu159 2.364 . S
O192 C154 1.283 . S
O192 Eu160 2.364 1_556 S
O193 C152 1.283 . S
O193 Eu160 2.362 . S
C194 C195 1.369 1_655 S
C194 C196 1.419 . S
C194 H198 0.930 . S
C195 C194 1.369 1_455 S
C195 C204 1.429 . S
C196 C194 1.419 . S
C196 C197 1.362 1_655 S
C196 H199 0.929 . S
C197 C196 1.362 1_455 S
C197 C203 1.430 . S
H198 C194 0.930 . S
H199 C196 0.929 . S
S200 N201 1.613 . S
S200 N202 1.610 . S
N201 S200 1.613 . S
N201 C204 1.350 . S
N202 S200 1.610 . S
N202 C203 1.351 . S
C203 C197 1.430 . S
C203 N202 1.351 . S
C203 C204 1.434 . S
C204 C195 1.429 . S
C204 N201 1.350 . S
C204 C203 1.434 . S
C205 C206 1.360 1_545 S
C205 C207 1.419 . S
C205 H209 0.930 . S
C206 C205 1.360 1_565 S
C206 C215 1.437 . S
C207 C205 1.419 . S
C207 C208 1.357 1_545 S
C207 H210 0.929 . S
C208 C207 1.357 1_565 S
C208 C214 1.435 . S
H209 C205 0.930 . S
H210 C207 0.929 . S
S211 N212 1.613 . S
S211 N213 1.610 . S
N212 S211 1.613 . S
N212 C215 1.350 . S
N213 S211 1.610 . S
N213 C214 1.351 . S
C214 C208 1.435 . S
C214 N213 1.351 . S
C214 C215 1.434 . S
C215 C206 1.437 . S
C215 N212 1.350 . S
C215 C214 1.434 . S
C216 C217 1.364 1_655 S
C216 C218 1.419 . S
C216 H220 0.930 . S
C217 C216 1.364 1_455 S
C217 C226 1.434 . S
C218 C216 1.419 . S
C218 C219 1.360 1_655 S
C218 H221 0.929 . S
C219 C218 1.360 1_455 S
C219 C225 1.432 . S
H220 C216 0.930 . S
H221 C218 0.929 . S
S222 N223 1.613 . S
S222 N224 1.610 . S
N223 S222 1.613 . S
N223 C226 1.350 . S
N224 S222 1.610 . S
N224 C225 1.351 . S
C225 C219 1.432 . S
C225 N224 1.351 . S
C225 C226 1.434 . S
C226 C217 1.434 . S
C226 N223 1.350 . S
C226 C225 1.434 . S
C227 C228 1.358 1_565 S
C227 C229 1.419 . S
C227 H231 0.930 . S
C228 C227 1.358 1_545 S
C228 C237 1.441 . S
C229 C227 1.419 . S
C229 C230 1.354 1_565 S
C229 H232 0.929 . S
C230 C229 1.354 1_545 S
C230 C236 1.438 . S
H231 C227 0.930 . S
H232 C229 0.929 . S
S233 N234 1.613 . S
S233 N235 1.610 . S
N234 S233 1.613 . S
N234 C237 1.350 . S
N235 S233 1.610 . S
N235 C236 1.351 . S
C236 C230 1.438 . S
C236 N235 1.351 . S
C236 C237 1.434 . S
C237 C228 1.441 . S
C237 N234 1.350 . S
C237 C236 1.434 . S
C238 C239 1.362 1_655 S
C238 C240 1.419 . S
C238 H242 0.930 . S
C239 C238 1.362 1_455 S
C239 C248 1.436 . S
C240 C238 1.419 . S
C240 C241 1.358 1_655 S
C240 H243 0.929 . S
C241 C240 1.358 1_455 S
C241 C247 1.434 . S
H242 C238 0.930 . S
H243 C240 0.929 . S
S244 N245 1.613 . S
S244 N246 1.610 . S
N245 S244 1.613 . S
N245 C248 1.350 . S
N246 S244 1.610 . S
N246 C247 1.351 . S
C247 C241 1.434 . S
C247 N246 1.351 . S
C247 C248 1.434 . S
C248 C239 1.436 . S
C248 N245 1.350 . S
C248 C247 1.434 . S
C249 C250 1.368 1_565 S
C249 C251 1.419 . S
C249 H253 0.930 . S
C250 C249 1.368 1_545 S
C250 C259 1.430 . S
C251 C249 1.419 . S
C251 C252 1.362 1_565 S
C251 H254 0.929 . S
C252 C251 1.362 1_545 S
C252 C258 1.429 . S
H253 C249 0.930 . S
H254 C251 0.929 . S
S255 N256 1.613 . S
S255 N257 1.610 . S
N256 S255 1.613 . S
N256 C259 1.350 . S
N257 S255 1.610 . S
N257 C258 1.351 . S
C258 C252 1.429 . S
C258 N257 1.351 . S
C258 C259 1.434 . S
C259 C250 1.430 . S
C259 N256 1.350 . S
C259 C258 1.434 . S
C260 C261 1.369 . S
C260 C262 1.419 . S
C260 H264 0.930 . S
C261 C260 1.369 . S
C261 C270 1.429 1_655 S
C262 C260 1.419 . S
C262 C263 1.363 . S
C262 H265 0.929 . S
C263 C262 1.363 . S
C263 C269 1.428 1_655 S
H264 C260 0.930 . S
H265 C262 0.929 . S
S266 N267 1.613 . S
S266 N268 1.610 . S
N267 S266 1.613 . S
N267 C270 1.350 . S
N268 S266 1.610 . S
N268 C269 1.351 . S
C269 C263 1.428 1_455 S
C269 N268 1.351 . S
C269 C270 1.434 . S
C270 C261 1.429 1_455 S
C270 N267 1.350 . S
C270 C269 1.434 . S
C271 C272 1.369 . S
C271 C273 1.419 . S
C271 H275 0.930 . S
C272 C271 1.369 . S
C272 C281 1.429 1_565 S
C273 C271 1.419 . S
C273 C274 1.363 . S
C273 H276 0.929 . S
C274 C273 1.363 . S
C274 C280 1.429 1_565 S
H275 C271 0.930 . S
H276 C273 0.929 . S
S277 N278 1.613 . S
S277 N279 1.610 . S
N278 S277 1.613 . S
N278 C281 1.350 . S
N279 S277 1.610 . S
N279 C280 1.351 . S
C280 C274 1.429 1_545 S
C280 N279 1.351 . S
C280 C281 1.434 . S
C281 C272 1.429 1_545 S
C281 N278 1.350 . S
C281 C280 1.434 . S
C282 C283 1.369 . S
C282 C284 1.419 . S
C282 H286 0.930 . S
C283 C282 1.369 . S
C283 C292 1.429 1_554 S
C284 C282 1.419 . S
C284 C285 1.363 . S
C284 H287 0.929 . S
C285 C284 1.363 . S
C285 C291 1.428 1_554 S
H286 C282 0.930 . S
H287 C284 0.929 . S
S288 N289 1.613 . S
S288 N290 1.610 . S
N289 S288 1.613 . S
N289 C292 1.350 . S
N290 S288 1.610 . S
N290 C291 1.351 . S
C291 C285 1.428 1_556 S
C291 N290 1.351 . S
C291 C292 1.434 . S
C292 C283 1.429 1_556 S
C292 N289 1.350 . S
C292 C291 1.434 . S
C293 C294 1.369 1_554 S
C293 C295 1.419 . S
C293 H297 0.930 . S
C294 C293 1.369 1_556 S
C294 C303 1.429 . S
C295 C293 1.419 . S
C295 C296 1.363 1_554 S
C295 H298 0.929 . S
C296 C295 1.363 1_556 S
C296 C302 1.428 . S
H297 C293 0.930 . S
H298 C295 0.929 . S
S299 N300 1.613 . S
S299 N301 1.610 . S
N300 S299 1.613 . S
N300 C303 1.350 . S
N301 S299 1.610 . S
N301 C302 1.351 . S
C302 C296 1.428 . S
C302 N301 1.351 . S
C302 C303 1.434 . S
C303 C294 1.429 . S
C303 N300 1.350 . S
C303 C302 1.434 . S
C304 C305 1.360 1_554 S
C304 C306 1.419 . S
C304 H308 0.930 . S
C305 C304 1.360 1_556 S
C305 C314 1.438 . S
C306 C304 1.419 . S
C306 C307 1.356 1_554 S
C306 H309 0.929 . S
C307 C306 1.356 1_556 S
C307 C313 1.435 . S
H308 C304 0.930 . S
H309 C306 0.929 . S
S310 N311 1.613 . S
S310 N312 1.610 . S
N311 S310 1.613 . S
N311 C314 1.350 . S
N312 S310 1.610 . S
N312 C313 1.351 . S
C313 C307 1.435 . S
C313 N312 1.351 . S
C313 C314 1.434 . S
C314 C305 1.438 . S
C314 N311 1.350 . S
C314 C313 1.434 . S
C315 C316 1.359 1_556 S
C315 C317 1.419 . S
C315 H319 0.930 . S
C316 C315 1.359 1_554 S
C316 C325 1.439 . S
C317 C315 1.419 . S
C317 C318 1.356 1_556 S
C317 H320 0.929 . S
C318 C317 1.356 1_554 S
C318 C324 1.436 . S
H319 C315 0.930 . S
H320 C317 0.929 . S
S321 N322 1.613 . S
S321 N323 1.610 . S
N322 S321 1.613 . S
N322 C325 1.350 . S
N323 S321 1.610 . S
N323 C324 1.351 . S
C324 C318 1.436 . S
C324 N323 1.351 . S
C324 C325 1.434 . S
C325 C316 1.439 . S
C325 N322 1.350 . S
C325 C324 1.434 . S
C197 C145 1.821 . S
C195 C36 1.804 1_455 S
C208 C152 1.343 1_565 S
C206 C78 1.314 . S
C219 C147 1.819 . S
C217 C30 1.784 1_455 S
C230 C153 1.343 . S
C228 C69 1.331 . S
C239 C21 1.807 . S
C241 C146 1.823 . S
C252 C155 1.344 . S
C250 C93 1.313 . S
C261 C45 1.790 1_655 S
C263 C144 1.818 1_655 S
C272 C84 1.331 . S
C274 C154 1.348 1_565 S
C283 C132 1.544 . S
C285 C149 1.550 . S
C294 C126 1.528 1_556 S
C296 C148 1.550 1_556 S
C307 C151 1.550 1_556 S
C305 C141 1.531 . S
C318 C150 1.551 . S
C316 C117 1.549 1_554 S
