# Generated by pormake.
# Topology hwx, (6,3)-cn, num edge types: 1
# Building blocks:
#     Node 0, Type 0, BuildingBlock: IZENUY_clean_sbu_0, # of connection points: 6
#     Node 1, Type 0, BuildingBlock: IZENUY_clean_sbu_0, # of connection points: 6
#     Node 2, Type 0, BuildingBlock: IZENUY_clean_sbu_0, # of connection points: 6
#     Node 3, Type 0, BuildingBlock: IZENUY_clean_sbu_0, # of connection points: 6
#     Node 4, Type 1, BuildingBlock: ESEHIV_clean_linker_0, # of connection points: 3
#     Node 5, Type 1, BuildingBlock: ESEHIV_clean_linker_0, # of connection points: 3
#     Node 6, Type 1, BuildingBlock: ESEHIV_clean_linker_0, # of connection points: 3
#     Node 7, Type 1, BuildingBlock: ESEHIV_clean_linker_0, # of connection points: 3
#     Node 8, Type 1, BuildingBlock: ESEHIV_clean_linker_0, # of connection points: 3
#     Node 9, Type 1, BuildingBlock: ESEHIV_clean_linker_0, # of connection points: 3
#     Node 10, Type 1, BuildingBlock: ESEHIV_clean_linker_0, # of connection points: 3
#     Node 11, Type 1, BuildingBlock: ESEHIV_clean_linker_0, # of connection points: 3
#     Edge 12, Type (0, 1), BuildingBlock: KIFKEQ_clean_linker_1, # of connection points: 2
#     Edge 13, Type (0, 1), BuildingBlock: KIFKEQ_clean_linker_1, # of connection points: 2
#     Edge 14, Type (0, 1), BuildingBlock: KIFKEQ_clean_linker_1, # of connection points: 2
#     Edge 15, Type (0, 1), BuildingBlock: KIFKEQ_clean_linker_1, # of connection points: 2
#     Edge 16, Type (0, 1), BuildingBlock: KIFKEQ_clean_linker_1, # of connection points: 2
#     Edge 17, Type (0, 1), BuildingBlock: KIFKEQ_clean_linker_1, # of connection points: 2
#     Edge 18, Type (0, 1), BuildingBlock: KIFKEQ_clean_linker_1, # of connection points: 2
#     Edge 19, Type (0, 1), BuildingBlock: KIFKEQ_clean_linker_1, # of connection points: 2
#     Edge 20, Type (0, 1), BuildingBlock: KIFKEQ_clean_linker_1, # of connection points: 2
#     Edge 21, Type (0, 1), BuildingBlock: KIFKEQ_clean_linker_1, # of connection points: 2
#     Edge 22, Type (0, 1), BuildingBlock: KIFKEQ_clean_linker_1, # of connection points: 2
#     Edge 23, Type (0, 1), BuildingBlock: KIFKEQ_clean_linker_1, # of connection points: 2
#     Edge 24, Type (0, 1), BuildingBlock: KIFKEQ_clean_linker_1, # of connection points: 2
#     Edge 25, Type (0, 1), BuildingBlock: KIFKEQ_clean_linker_1, # of connection points: 2
#     Edge 26, Type (0, 1), BuildingBlock: KIFKEQ_clean_linker_1, # of connection points: 2
#     Edge 27, Type (0, 1), BuildingBlock: KIFKEQ_clean_linker_1, # of connection points: 2
#     Edge 28, Type (0, 1), BuildingBlock: KIFKEQ_clean_linker_1, # of connection points: 2
#     Edge 29, Type (0, 1), BuildingBlock: KIFKEQ_clean_linker_1, # of connection points: 2
#     Edge 30, Type (0, 1), BuildingBlock: KIFKEQ_clean_linker_1, # of connection points: 2
#     Edge 31, Type (0, 1), BuildingBlock: KIFKEQ_clean_linker_1, # of connection points: 2
#     Edge 32, Type (0, 1), BuildingBlock: KIFKEQ_clean_linker_1, # of connection points: 2
#     Edge 33, Type (0, 1), BuildingBlock: KIFKEQ_clean_linker_1, # of connection points: 2
#     Edge 34, Type (0, 1), BuildingBlock: KIFKEQ_clean_linker_1, # of connection points: 2
#     Edge 35, Type (0, 1), BuildingBlock: KIFKEQ_clean_linker_1, # of connection points: 2
# Relax obj value: 0.051
# Max RMSD: 0.076
# Mean RMSD: 0.067
data_MOF--net-hwx--node1-IZENUY_clean_sbu_0--node2-ESEHIV_clean_linker_0--edge1-KIFKEQ_clean_linker_1
_symmetry_space_group_name_H-M    P1
_symmetry_Int_Tables_number       1
_symmetry_cell_setting            triclinic
loop_
_symmetry_equiv_pos_as_xyz
'x, y, z'
_cell_length_a     45.653872
_cell_length_b     45.559747
_cell_length_c     22.079972
_cell_angle_alpha  90.055701
_cell_angle_beta   90.031024
_cell_angle_gamma 89.995604
loop_
_atom_site_label
_atom_site_type_symbol
_atom_site_fract_x
_atom_site_fract_y
_atom_site_fract_z
_atom_type_partial_charge
Fe0 Fe 0.23802 0.21522 0.0706 0.0
Fe1 Fe 0.24045 0.21296 0.93191 0.0
O2 O 0.22987 0.19694 0.00176 0.0
Fe3 Fe 0.21117 0.1627 0.00332 0.0
O4 O 0.18931 0.1715 0.0711 0.0
O5 O 0.19956 0.21773 0.09006 0.0
O6 O 0.23506 0.25231 0.03975 0.0
C7 C 0.22233 0.26198 0.99308 0.0
C8 C 0.24866 0.1557 0.09879 0.0
O9 O 0.21951 0.24611 0.9467 0.0
C10 C 0.25267 0.15515 0.9085 0.0
O11 O 0.27699 0.21385 0.05568 0.0
O12 O 0.27432 0.22928 0.96147 0.0
O13 O 0.23996 0.1458 0.04851 0.0
O14 O 0.24261 0.18166 0.11466 0.0
C15 C 0.18398 0.18996 0.9079 0.0
O16 O 0.2621 0.18114 0.91111 0.0
O17 O 0.2295 0.14773 0.93604 0.0
C18 C 0.28912 0.2238 0.00869 0.0
O19 O 0.20857 0.19949 0.89031 0.0
O20 O 0.18113 0.17702 0.9581 0.0
C21 C 0.18289 0.19583 0.09575 0.0
Fe22 Fe 0.259 0.71483 0.55395 0.0
Fe23 Fe 0.28619 0.66395 0.48178 0.0
O24 O 0.26675 0.69768 0.48386 0.0
Fe25 Fe 0.25502 0.71443 0.4157 0.0
O26 O 0.27674 0.74711 0.43074 0.0
O27 O 0.26169 0.75229 0.52465 0.0
O28 O 0.29753 0.71749 0.5724 0.0
C29 C 0.31491 0.69602 0.57504 0.0
C30 C 0.20746 0.72445 0.49465 0.0
O31 O 0.30896 0.67206 0.54851 0.0
C32 C 0.2423 0.65703 0.39153 0.0
O33 O 0.25505 0.68053 0.59595 0.0
O34 O 0.25866 0.64564 0.52766 0.0
O35 O 0.22217 0.73114 0.4482 0.0
O36 O 0.2198 0.71336 0.54032 0.0
C37 C 0.31068 0.69165 0.38462 0.0
O38 O 0.2666 0.64979 0.41508 0.0
O39 O 0.23267 0.68291 0.39631 0.0
C40 C 0.24996 0.65455 0.57867 0.0
O41 O 0.31523 0.67976 0.43537 0.0
O42 O 0.28546 0.7007 0.37032 0.0
C43 C 0.27451 0.76236 0.47832 0.0
Fe44 Fe 0.75824 0.79106 0.933 0.0
Fe45 Fe 0.75544 0.79496 0.07102 0.0
O46 O 0.7671 0.80962 0.00083 0.0
Fe47 Fe 0.78758 0.84263 0.99872 0.0
O48 O 0.76033 0.86073 0.95163 0.0
O49 O 0.75524 0.82437 0.88714 0.0
O50 O 0.7193 0.79444 0.94775 0.0
C51 C 0.70709 0.78417 0.99428 0.0
C52 C 0.81451 0.80728 0.90839 0.0
O53 O 0.72192 0.77813 0.04103 0.0
C54 C 0.81206 0.81678 0.09789 0.0
O55 O 0.75998 0.75425 0.96644 0.0
O56 O 0.77632 0.76153 0.05885 0.0
O57 O 0.80955 0.8321 0.93231 0.0
O58 O 0.79646 0.78654 0.91388 0.0
C59 C 0.74474 0.85309 0.08986 0.0
O60 O 0.78668 0.80902 0.11424 0.0
O61 O 0.81641 0.82699 0.04559 0.0
C62 C 0.77329 0.74514 0.01314 0.0
O63 O 0.73401 0.82756 0.08733 0.0
O64 O 0.76906 0.85889 0.0647 0.0
C65 C 0.75159 0.85105 0.90119 0.0
Fe66 Fe 0.7102 0.34404 0.51883 0.0
Fe67 Fe 0.7395 0.2924 0.5848 0.0
O68 O 0.72968 0.3103 0.51656 0.0
Fe69 Fe 0.73934 0.29441 0.44611 0.0
O70 O 0.76047 0.32648 0.42461 0.0
O71 O 0.72688 0.35883 0.44962 0.0
O72 O 0.73932 0.36185 0.56149 0.0
C73 C 0.74894 0.35263 0.61162 0.0
C74 C 0.68212 0.31605 0.42576 0.0
O75 O 0.74453 0.32637 0.62798 0.0
C76 C 0.72251 0.24542 0.50848 0.0
O77 O 0.68987 0.33527 0.58839 0.0
O78 O 0.70151 0.28943 0.60777 0.0
O79 O 0.70677 0.30757 0.40633 0.0
O80 O 0.67969 0.32869 0.47639 0.0
C81 C 0.78943 0.28414 0.51864 0.0
O82 O 0.73619 0.25508 0.55421 0.0
O83 O 0.71881 0.26131 0.46245 0.0
C84 C 0.68446 0.311 0.61406 0.0
O85 O 0.77821 0.29416 0.56657 0.0
O86 O 0.77365 0.27822 0.47313 0.0
C87 C 0.75009 0.35207 0.42142 0.0
H88 H 0.19164 0.56639 0.98175 0.0
H89 H 0.19732 0.48366 0.88972 0.0
H90 H 0.19305 0.48628 0.08441 0.0
C91 C 0.19267 0.54265 0.98365 0.0
C92 C 0.19288 0.52849 0.04006 0.0
C93 C 0.19526 0.52682 0.92942 0.0
C94 C 0.19482 0.49607 0.9313 0.0
C95 C 0.1934 0.48126 0.98713 0.0
C96 C 0.19277 0.49763 0.04135 0.0
H97 H 0.91408 0.81136 0.49739 0.0
H98 H 0.99496 0.79625 0.40244 0.0
H99 H 0.99064 0.78459 0.59577 0.0
C100 C 0.93713 0.80565 0.49781 0.0
C101 C 0.95055 0.79827 0.55288 0.0
C102 C 0.95296 0.80518 0.44326 0.0
C103 C 0.98265 0.79708 0.44436 0.0
C104 C 0.99637 0.78954 0.49926 0.0
C105 C 0.98022 0.79043 0.55333 0.0
H106 H 0.80346 0.44229 0.01211 0.0
H107 H 0.81358 0.52214 0.1143 0.0
H108 H 0.80635 0.52506 0.92014 0.0
C109 C 0.80646 0.46586 0.014 0.0
C110 C 0.8063 0.48189 0.95968 0.0
C111 C 0.80843 0.48012 0.07039 0.0
C112 C 0.81105 0.51088 0.07141 0.0
C113 C 0.80986 0.5274 0.01771 0.0
C114 C 0.80767 0.51265 0.96189 0.0
H115 H 0.08181 0.1927 0.50533 0.0
H116 H 0.00446 0.21781 0.60306 0.0
H117 H 0.00431 0.21888 0.40819 0.0
C118 C 0.05903 0.19941 0.50518 0.0
C119 C 0.04476 0.20487 0.44987 0.0
C120 C 0.04469 0.20429 0.56051 0.0
C121 C 0.01566 0.21431 0.56037 0.0
C122 C 0.00086 0.21941 0.50565 0.0
C123 C 0.01553 0.21461 0.45055 0.0
H124 H 0.69799 0.94213 0.49165 0.0
H125 H 0.6993 0.02293 0.59159 0.0
H126 H 0.68104 0.02362 0.40034 0.0
C127 C 0.69504 0.9657 0.49291 0.0
C128 C 0.68936 0.98099 0.43893 0.0
C129 C 0.69821 0.98056 0.54834 0.0
C130 C 0.69543 0.01126 0.54957 0.0
C131 C 0.68973 0.02705 0.49609 0.0
C132 C 0.68603 0.01162 0.44139 0.0
H133 H 0.582 0.31339 0.0251 0.0
H134 H 0.50275 0.2895 0.1176 0.0
H135 H 0.50565 0.28857 0.9228 0.0
C136 C 0.55912 0.30704 0.02348 0.0
C137 C 0.54563 0.30178 0.96728 0.0
C138 C 0.54385 0.30242 0.07781 0.0
C139 C 0.51466 0.29287 0.07571 0.0
C140 C 0.50064 0.28814 0.01994 0.0
C141 C 0.51626 0.29263 0.96594 0.0
H142 H 0.30717 0.06583 0.51286 0.0
H143 H 0.30445 0.98809 0.40247 0.0
H144 H 0.30598 0.98098 0.59697 0.0
C145 C 0.30719 0.04212 0.50871 0.0
C146 C 0.30725 0.02495 0.56136 0.0
C147 C 0.30548 0.02907 0.45112 0.0
C148 C 0.30566 0.99833 0.44668 0.0
C149 C 0.30621 0.98067 0.49889 0.0
C150 C 0.30671 0.99423 0.55625 0.0
H151 H 0.41417 0.70028 0.97999 0.0
H152 H 0.49508 0.717 0.88631 0.0
H153 H 0.49149 0.72312 0.08072 0.0
C154 C 0.43733 0.70556 0.98093 0.0
C155 C 0.45108 0.71098 0.03672 0.0
C156 C 0.45297 0.70766 0.92638 0.0
C157 C 0.4828 0.71507 0.92814 0.0
C158 C 0.49672 0.7207 0.98364 0.0
C159 C 0.48084 0.71849 0.03786 0.0
H160 H 0.16297 0.24388 0.15792 0.0
H161 H 0.14744 0.15099 0.1339 0.0
H162 H 0.12661 0.24509 0.23854 0.0
H163 H 0.11075 0.15238 0.21407 0.0
H164 H 0.08194 0.16082 0.41533 0.0
H165 H 0.11222 0.15852 0.32444 0.0
H166 H 0.0744 0.23995 0.26187 0.0
H167 H 0.04474 0.24268 0.35366 0.0
C168 C 0.15153 0.22379 0.16921 0.0
C169 C 0.15837 0.19728 0.13974 0.0
C170 C 0.13054 0.22453 0.21526 0.0
C171 C 0.11591 0.19878 0.23302 0.0
C172 C 0.12194 0.1725 0.20203 0.0
C173 C 0.14286 0.17177 0.15581 0.0
C174 C 0.08004 0.17818 0.38206 0.0
C175 C 0.06105 0.202 0.39186 0.0
C176 C 0.09716 0.17672 0.32968 0.0
C177 C 0.09577 0.1991 0.28595 0.0
C178 C 0.07618 0.22251 0.29496 0.0
C179 C 0.05896 0.22391 0.34725 0.0
H180 H 0.22337 0.66825 0.68479 0.0
H181 H 0.24669 0.59414 0.57214 0.0
H182 H 0.20762 0.63503 0.76418 0.0
H183 H 0.23069 0.56067 0.65281 0.0
H184 H 0.17334 0.51712 0.81434 0.0
H185 H 0.18358 0.54611 0.72261 0.0
H186 H 0.24239 0.6011 0.82548 0.0
H187 H 0.23295 0.57224 0.91552 0.0
C188 C 0.2249 0.64485 0.67666 0.0
C189 C 0.23689 0.63385 0.6226 0.0
C190 C 0.2158 0.62585 0.72217 0.0
C191 C 0.21838 0.59538 0.7148 0.0
C192 C 0.22851 0.58413 0.65939 0.0
C193 C 0.23776 0.60327 0.6135 0.0
C194 C 0.18861 0.53527 0.81696 0.0
C195 C 0.20175 0.54287 0.87248 0.0
C196 C 0.19443 0.55177 0.76467 0.0
C197 C 0.21331 0.5761 0.76755 0.0
C198 C 0.2272 0.58287 0.82244 0.0
C199 C 0.22164 0.56641 0.87407 0.0
H200 H 0.80544 0.8171 0.21986 0.0
H201 H 0.87174 0.81832 0.08019 0.0
H202 H 0.84325 0.81813 0.2971 0.0
H203 H 0.91 0.81902 0.15875 0.0
H204 H 0.95738 0.77585 0.33502 0.0
H205 H 0.92636 0.78204 0.24547 0.0
H206 H 0.88264 0.85487 0.33184 0.0
H207 H 0.9139 0.8492 0.42065 0.0
C208 C 0.82813 0.81755 0.20558 0.0
C209 C 0.83561 0.81756 0.14385 0.0
C210 C 0.84978 0.8184 0.24993 0.0
C211 C 0.87949 0.81892 0.23382 0.0
C212 C 0.88719 0.8187 0.17219 0.0
C213 C 0.86537 0.81836 0.12743 0.0
C214 C 0.94173 0.79371 0.3342 0.0
C215 C 0.93773 0.81172 0.38534 0.0
C216 C 0.924 0.79722 0.28295 0.0
C217 C 0.90192 0.81867 0.28225 0.0
C218 C 0.89925 0.83788 0.3317 0.0
C219 C 0.91704 0.83453 0.38257 0.0
H220 H 0.75521 0.41267 0.60269 0.0
H221 H 0.77232 0.33929 0.72152 0.0
H222 H 0.77337 0.44629 0.6807 0.0
H223 H 0.78945 0.37257 0.79919 0.0
H224 H 0.83669 0.43433 0.91927 0.0
H225 H 0.82739 0.40527 0.82845 0.0
H226 H 0.75757 0.4646 0.77842 0.0
H227 H 0.76755 0.49406 0.86857 0.0
C228 C 0.76301 0.40369 0.64514 0.0
C229 C 0.7621 0.37328 0.65592 0.0
C230 C 0.77325 0.42296 0.68997 0.0
C231 C 0.78287 0.41218 0.74634 0.0
C232 C 0.78271 0.38171 0.75612 0.0
C233 C 0.77258 0.36256 0.71156 0.0
C234 C 0.81959 0.44128 0.88841 0.0
C235 C 0.80268 0.46627 0.90117 0.0
C236 C 0.81417 0.42462 0.83649 0.0
C237 C 0.79145 0.43234 0.79645 0.0
C238 C 0.77542 0.45814 0.80785 0.0
C239 C 0.78106 0.47499 0.8596 0.0
H240 H 0.67054 0.27131 0.34927 0.0
H241 H 0.63715 0.3551 0.40923 0.0
H242 H 0.63233 0.26877 0.27214 0.0
H243 H 0.59904 0.35284 0.33056 0.0
H244 H 0.57616 0.34922 0.11667 0.0
H245 H 0.60502 0.35289 0.21002 0.0
H246 H 0.57502 0.26696 0.26387 0.0
H247 H 0.54596 0.26338 0.17093 0.0
C248 C 0.65474 0.28901 0.34631 0.0
C249 C 0.65674 0.31342 0.38493 0.0
C250 C 0.63284 0.28749 0.30244 0.0
C251 C 0.61283 0.31063 0.29552 0.0
C252 C 0.61429 0.33476 0.33514 0.0
C253 C 0.6359 0.33597 0.38016 0.0
C254 C 0.57547 0.33134 0.14895 0.0
C255 C 0.559 0.30598 0.13665 0.0
C256 C 0.59173 0.33354 0.20243 0.0
C257 C 0.59215 0.31021 0.24395 0.0
C258 C 0.575 0.28523 0.23249 0.0
C259 C 0.55836 0.28323 0.17953 0.0
H260 H 0.24914 0.09532 0.91006 0.0
H261 H 0.28663 0.16744 0.8099 0.0
H262 H 0.2673 0.06097 0.83422 0.0
H263 H 0.30337 0.13354 0.73238 0.0
H264 H 0.34266 0.06743 0.60867 0.0
H265 H 0.33437 0.09642 0.70011 0.0
H266 H 0.25608 0.04591 0.73659 0.0
H267 H 0.26554 0.01615 0.64715 0.0
C268 C 0.26134 0.10381 0.87183 0.0
C269 C 0.2663 0.1341 0.8658 0.0
C270 C 0.27159 0.08414 0.82801 0.0
C271 C 0.28658 0.09432 0.7764 0.0
C272 C 0.29237 0.12462 0.77168 0.0
C273 C 0.28259 0.14421 0.81608 0.0
C274 C 0.32407 0.06225 0.63722 0.0
C275 C 0.30475 0.03959 0.62108 0.0
C276 C 0.31909 0.07902 0.6893 0.0
C277 C 0.29428 0.07393 0.72575 0.0
C278 C 0.27566 0.05036 0.71056 0.0
C279 C 0.28098 0.03327 0.65909 0.0
H280 H 0.37077 0.69238 0.39873 0.0
H281 H 0.30225 0.69233 0.26369 0.0
H282 H 0.4075 0.69827 0.31811 0.0
H283 H 0.33834 0.69723 0.18438 0.0
H284 H 0.40073 0.74011 0.06021 0.0
H285 H 0.36935 0.73572 0.14873 0.0
H286 H 0.43046 0.67451 0.22879 0.0
H287 H 0.46251 0.67985 0.14017 0.0
C288 C 0.36364 0.69328 0.35198 0.0
C289 C 0.33366 0.69241 0.33757 0.0
C290 C 0.38458 0.69662 0.3059 0.0
C291 C 0.37577 0.69892 0.24493 0.0
C292 C 0.34587 0.69657 0.2309 0.0
C293 C 0.32514 0.69357 0.2765 0.0
C294 C 0.40751 0.72588 0.09694 0.0
C295 C 0.43372 0.70998 0.09318 0.0
C296 C 0.38953 0.72324 0.14755 0.0
C297 C 0.39708 0.70423 0.19527 0.0
C298 C 0.42404 0.68933 0.19283 0.0
C299 C 0.4423 0.69229 0.14217 0.0
H300 H 0.73268 0.83707 0.78792 0.0
H301 H 0.74558 0.91125 0.90738 0.0
H302 H 0.71921 0.8701 0.70644 0.0
H303 H 0.73193 0.94451 0.82469 0.0
H304 H 0.67696 0.98755 0.66404 0.0
H305 H 0.68851 0.95779 0.75352 0.0
H306 H 0.74908 0.90651 0.64699 0.0
H307 H 0.73815 0.9363 0.55859 0.0
C308 C 0.73249 0.86043 0.79704 0.0
C309 C 0.74062 0.87149 0.85412 0.0
C310 C 0.72486 0.87936 0.75013 0.0
C311 C 0.72497 0.90986 0.75899 0.0
C312 C 0.73171 0.92105 0.8167 0.0
C313 C 0.73958 0.90202 0.86388 0.0
C314 C 0.69299 0.97013 0.66006 0.0
C315 C 0.70621 0.96393 0.6039 0.0
C316 C 0.69955 0.95313 0.71119 0.0
C317 C 0.71932 0.92957 0.70686 0.0
C318 C 0.73325 0.92411 0.65131 0.0
C319 C 0.72688 0.94112 0.60059 0.0
H320 H 0.83052 0.75793 0.84623 0.0
H321 H 0.85394 0.84906 0.8722 0.0
H322 H 0.86637 0.7541 0.76506 0.0
H323 H 0.88958 0.84518 0.79034 0.0
H324 H 0.96535 0.82137 0.66319 0.0
H325 H 0.93588 0.82151 0.75587 0.0
H326 H 0.86711 0.77482 0.66197 0.0
H327 H 0.8967 0.77413 0.57026 0.0
C328 C 0.8435 0.77707 0.83511 0.0
C329 C 0.83904 0.80393 0.86515 0.0
C330 C 0.86395 0.77488 0.78841 0.0
C331 C 0.88046 0.79944 0.77082 0.0
C332 C 0.87725 0.82585 0.80308 0.0
C333 C 0.85672 0.82808 0.8498 0.0
C334 C 0.94405 0.81089 0.66276 0.0
C335 C 0.93321 0.79787 0.60954 0.0
C336 C 0.92715 0.81114 0.71556 0.0
C337 C 0.89925 0.79811 0.71618 0.0
C338 C 0.88868 0.7847 0.66315 0.0
C339 C 0.90545 0.78462 0.61043 0.0
H340 H 0.72345 0.40039 0.37448 0.0
H341 H 0.80396 0.35072 0.36635 0.0
H342 H 0.74074 0.43202 0.29421 0.0
H343 H 0.82218 0.38356 0.28751 0.0
H344 H 0.82751 0.42404 0.09638 0.0
H345 H 0.81574 0.39454 0.18467 0.0
H346 H 0.77224 0.46915 0.26575 0.0
H347 H 0.78134 0.4976 0.17544 0.0
C348 C 0.74518 0.39661 0.3564 0.0
C349 C 0.76228 0.37296 0.37671 0.0
C350 C 0.75526 0.41496 0.31041 0.0
C351 C 0.78299 0.41054 0.2841 0.0
C352 C 0.80052 0.38739 0.30584 0.0
C353 C 0.79019 0.36867 0.35136 0.0
C354 C 0.8152 0.43411 0.13277 0.0
C355 C 0.80509 0.46321 0.1279 0.0
C356 C 0.80886 0.41728 0.18409 0.0
C357 C 0.79267 0.42925 0.23239 0.0
C358 C 0.78409 0.45885 0.22897 0.0
C359 C 0.78988 0.47546 0.17728 0.0
H360 H 0.13929 0.15067 0.8897 0.0
H361 H 0.17297 0.23444 0.83051 0.0
H362 H 0.10147 0.15297 0.81042 0.0
H363 H 0.13509 0.23697 0.75279 0.0
H364 H 0.04816 0.24318 0.65381 0.0
H365 H 0.07786 0.23916 0.74567 0.0
H366 H 0.10696 0.15321 0.68955 0.0
H367 H 0.07736 0.15729 0.59721 0.0
C368 C 0.13822 0.16976 0.86055 0.0
C369 C 0.15904 0.19232 0.86584 0.0
C370 C 0.11678 0.17099 0.81519 0.0
C371 C 0.11546 0.19516 0.77574 0.0
C372 C 0.13551 0.21823 0.78295 0.0
C373 C 0.15724 0.2167 0.82715 0.0
C374 C 0.06052 0.22324 0.66162 0.0
C375 C 0.06063 0.20059 0.61842 0.0
C376 C 0.07753 0.221 0.71398 0.0
C377 C 0.09459 0.19587 0.72453 0.0
C378 C 0.09375 0.17267 0.68263 0.0
C379 C 0.07708 0.17511 0.62972 0.0
H380 H 0.24831 0.5974 0.38626 0.0
H381 H 0.20426 0.67022 0.29995 0.0
H382 H 0.23097 0.56462 0.30582 0.0
H383 H 0.18759 0.63747 0.2193 0.0
H384 H 0.22428 0.57907 0.05526 0.0
H385 H 0.22928 0.60894 0.14542 0.0
H386 H 0.17672 0.54743 0.24617 0.0
H387 H 0.16972 0.51792 0.15407 0.0
C388 C 0.2345 0.60628 0.35082 0.0
C389 C 0.22794 0.63645 0.34903 0.0
C390 C 0.22445 0.58749 0.30518 0.0
C391 C 0.20806 0.59866 0.25669 0.0
C392 C 0.20016 0.62843 0.25653 0.0
C393 C 0.20973 0.64712 0.30264 0.0
C394 C 0.21289 0.57212 0.09578 0.0
C395 C 0.19598 0.54625 0.09658 0.0
C396 C 0.21604 0.58922 0.14761 0.0
C397 C 0.20307 0.5806 0.20216 0.0
C398 C 0.18674 0.55451 0.2042 0.0
C399 C 0.18296 0.53759 0.15162 0.0
H400 H 0.34996 0.6509 0.61324 0.0
H401 H 0.33663 0.74437 0.63315 0.0
H402 H 0.38749 0.65245 0.69192 0.0
H403 H 0.37393 0.74576 0.71202 0.0
H404 H 0.45609 0.74256 0.82606 0.0
H405 H 0.42691 0.73887 0.73349 0.0
H406 H 0.38516 0.6608 0.80307 0.0
H407 H 0.4147 0.66419 0.89497 0.0
C408 C 0.35528 0.67184 0.63377 0.0
C409 C 0.34007 0.69747 0.6173 0.0
C410 C 0.37667 0.67266 0.67906 0.0
C411 C 0.38351 0.69917 0.70841 0.0
C412 C 0.36932 0.72503 0.68991 0.0
C413 C 0.3478 0.72419 0.64497 0.0
C414 C 0.4411 0.72429 0.82097 0.0
C415 C 0.43755 0.70373 0.8678 0.0
C416 C 0.42424 0.72233 0.76826 0.0
C417 C 0.40367 0.69963 0.76114 0.0
C418 C 0.40101 0.6784 0.80696 0.0
C419 C 0.4177 0.68048 0.85981 0.0
H420 H 0.69036 0.85203 0.14284 0.0
H421 H 0.76965 0.90352 0.13164 0.0
H422 H 0.67118 0.8858 0.21903 0.0
H423 H 0.75132 0.93622 0.20915 0.0
H424 H 0.71149 0.00053 0.33069 0.0
H425 H 0.71874 0.97278 0.23829 0.0
H426 H 0.6788 0.89689 0.32174 0.0
H427 H 0.66909 0.9255 0.41233 0.0
C428 C 0.70363 0.87062 0.15641 0.0
C429 C 0.73161 0.87496 0.13141 0.0
C430 C 0.69272 0.8899 0.20037 0.0
C431 C 0.7097 0.91375 0.22078 0.0
C432 C 0.73727 0.91852 0.19406 0.0
C433 C 0.74796 0.89954 0.1497 0.0
C434 C 0.70329 0.97825 0.32886 0.0
C435 C 0.69003 0.96522 0.37968 0.0
C436 C 0.70796 0.9621 0.27596 0.0
C437 C 0.70004 0.9323 0.27275 0.0
C438 C 0.68519 0.91977 0.3222 0.0
C439 C 0.68003 0.93609 0.37476 0.0
H440 H 0.6486 0.35536 0.65268 0.0
H441 H 0.66606 0.26289 0.6779 0.0
H442 H 0.61231 0.35366 0.73352 0.0
H443 H 0.62998 0.26138 0.75916 0.0
H444 H 0.54674 0.26355 0.87184 0.0
H445 H 0.57716 0.26608 0.78108 0.0
H446 H 0.61447 0.34763 0.84458 0.0
H447 H 0.58352 0.34547 0.93458 0.0
C448 C 0.64456 0.3346 0.67506 0.0
C449 C 0.66045 0.3093 0.65908 0.0
C450 C 0.62387 0.33371 0.72163 0.0
C451 C 0.61844 0.30745 0.75302 0.0
C452 C 0.6335 0.2819 0.73553 0.0
C453 C 0.65431 0.28281 0.68915 0.0
C454 C 0.56107 0.28227 0.86589 0.0
C455 C 0.56277 0.30431 0.91037 0.0
C456 C 0.5787 0.28355 0.81422 0.0
C457 C 0.59828 0.30699 0.80575 0.0
C458 C 0.59941 0.32942 0.84949 0.0
C459 C 0.58191 0.32805 0.90131 0.0
H460 H 0.25396 0.09536 0.09664 0.0
H461 H 0.27501 0.17209 0.20358 0.0
H462 H 0.27139 0.06391 0.17941 0.0
H463 H 0.29217 0.14087 0.28517 0.0
H464 H 0.27107 0.07774 0.44139 0.0
H465 H 0.26168 0.10741 0.35237 0.0
H466 H 0.31769 0.05115 0.24593 0.0
H467 H 0.32813 0.02163 0.33622 0.0
C468 C 0.26268 0.1055 0.13721 0.0
C469 C 0.26254 0.1362 0.14402 0.0
C470 C 0.27272 0.08752 0.18438 0.0
C471 C 0.28266 0.10004 0.23888 0.0
C472 C 0.28411 0.13067 0.24404 0.0
C473 C 0.27425 0.14853 0.1972 0.0
C474 C 0.28202 0.07195 0.39956 0.0
C475 C 0.30073 0.04749 0.39637 0.0
C476 C 0.27644 0.08888 0.3484 0.0
C477 C 0.28913 0.08166 0.29245 0.0
C478 C 0.30757 0.05707 0.28859 0.0
C479 C 0.31348 0.04022 0.34023 0.0
H480 H 0.21005 0.29624 0.89385 0.0
H481 H 0.21521 0.29856 0.0892 0.0
H482 H 0.20099 0.34912 0.89256 0.0
H483 H 0.20534 0.35093 0.08807 0.0
H484 H 0.22764 0.4473 0.06013 0.0
H485 H 0.23185 0.39412 0.06087 0.0
H486 H 0.16726 0.3883 0.91816 0.0
H487 H 0.16339 0.44184 0.91697 0.0
C488 C 0.20882 0.30794 0.93649 0.0
C489 C 0.21379 0.2933 0.99155 0.0
C490 C 0.20352 0.33822 0.93581 0.0
C491 C 0.20284 0.35436 0.99021 0.0
C492 C 0.20646 0.33935 0.04527 0.0
C493 C 0.21198 0.30926 0.04592 0.0
C494 C 0.21404 0.43467 0.02949 0.0
C495 C 0.19503 0.44873 0.9888 0.0
C496 C 0.21642 0.40414 0.0299 0.0
C497 C 0.19975 0.38686 0.98982 0.0
C498 C 0.18064 0.40094 0.94917 0.0
C499 C 0.17836 0.43157 0.94859 0.0
H500 H 0.17373 0.74351 0.40112 0.0
H501 H 0.17033 0.72395 0.59257 0.0
H502 H 0.12286 0.75884 0.4036 0.0
H503 H 0.11928 0.74006 0.59526 0.0
H504 H 0.01979 0.74265 0.55898 0.0
H505 H 0.0707 0.72639 0.55946 0.0
H506 H 0.09379 0.7988 0.4425 0.0
H507 H 0.04281 0.8148 0.44156 0.0
C508 C 0.16216 0.7426 0.4439 0.0
C509 C 0.17616 0.73269 0.49678 0.0
C510 C 0.13301 0.75158 0.44534 0.0
C511 C 0.11711 0.75098 0.49972 0.0
C512 C 0.1309 0.74059 0.55254 0.0
C513 C 0.16016 0.73147 0.55106 0.0
C514 C 0.03583 0.7552 0.5338 0.0
C515 C 0.02737 0.77996 0.50012 0.0
C516 C 0.06498 0.74592 0.53417 0.0
C517 C 0.08627 0.76125 0.50092 0.0
C518 C 0.07781 0.7862 0.46774 0.0
C519 C 0.04865 0.79541 0.4672 0.0
H520 H 0.79066 0.71327 0.1124 0.0
H521 H 0.77723 0.70668 0.91905 0.0
H522 H 0.80343 0.66115 0.11573 0.0
H523 H 0.78973 0.65481 0.92261 0.0
H524 H 0.83631 0.56722 0.94193 0.0
H525 H 0.83102 0.6206 0.94272 0.0
H526 H 0.7755 0.61465 0.10049 0.0
H527 H 0.78025 0.5615 0.0992 0.0
C528 C 0.7906 0.70079 0.07064 0.0
C529 C 0.78264 0.71405 0.01558 0.0
C530 C 0.79781 0.67095 0.07258 0.0
C531 C 0.79752 0.6539 0.01943 0.0
C532 C 0.79045 0.66741 0.96421 0.0
C533 C 0.78302 0.6971 0.96232 0.0
C534 C 0.82297 0.57731 0.97676 0.0
C535 C 0.80869 0.56002 0.02043 0.0
C536 C 0.82002 0.60786 0.9773 0.0
C537 C 0.80286 0.62179 0.0217 0.0
C538 C 0.78926 0.60461 0.06629 0.0
C539 C 0.79203 0.5741 0.06554 0.0
H540 H 0.82814 0.28084 0.61351 0.0
H541 H 0.82202 0.27032 0.41936 0.0
H542 H 0.87936 0.26569 0.60991 0.0
H543 H 0.87329 0.25612 0.41551 0.0
H544 H 0.95476 0.19932 0.43869 0.0
H545 H 0.90398 0.21581 0.44224 0.0
H546 H 0.92718 0.28053 0.57733 0.0
H547 H 0.97782 0.26351 0.57452 0.0
C548 C 0.83779 0.27558 0.57002 0.0
C549 C 0.82093 0.27654 0.51681 0.0
C550 C 0.86721 0.26703 0.56788 0.0
C551 C 0.88044 0.2595 0.51243 0.0
C552 C 0.86368 0.26115 0.45914 0.0
C553 C 0.83429 0.26946 0.46132 0.0
C554 C 0.94899 0.2172 0.46876 0.0
C555 C 0.97019 0.23009 0.50639 0.0
C556 C 0.91992 0.22673 0.47077 0.0
C557 C 0.91145 0.24954 0.5101 0.0
C558 C 0.9328 0.2626 0.54729 0.0
C559 C 0.96182 0.25292 0.54557 0.0
H560 H 0.72407 0.2058 0.60121 0.0
H561 H 0.70045 0.21431 0.41237 0.0
H562 H 0.71245 0.15366 0.5973 0.0
H563 H 0.68857 0.1621 0.40883 0.0
H564 H 0.71419 0.06332 0.41156 0.0
H565 H 0.71802 0.11649 0.41406 0.0
H566 H 0.6715 0.11827 0.58425 0.0
H567 H 0.66714 0.06479 0.58138 0.0
C568 C 0.71619 0.19662 0.55895 0.0
C569 C 0.71352 0.21419 0.5069 0.0
C570 C 0.7093 0.16677 0.55691 0.0
C571 C 0.6997 0.15377 0.50272 0.0
C572 C 0.69624 0.17146 0.45107 0.0
C573 C 0.70297 0.20138 0.45318 0.0
C574 C 0.70414 0.07499 0.4489 0.0
C575 C 0.69025 0.05971 0.49621 0.0
C576 C 0.7064 0.10552 0.45033 0.0
C577 C 0.69505 0.12157 0.49931 0.0
C578 C 0.68072 0.10644 0.5462 0.0
C579 C 0.67827 0.07583 0.54459 0.0
H580 H 0.324 0.23893 0.91341 0.0
H581 H 0.32529 0.22675 0.10751 0.0
H582 H 0.37527 0.25336 0.91581 0.0
H583 H 0.37637 0.24215 0.11018 0.0
H584 H 0.47556 0.24416 0.08581 0.0
H585 H 0.42482 0.22744 0.08259 0.0
H586 H 0.40534 0.29332 0.94761 0.0
H587 H 0.45624 0.30947 0.95001 0.0
C588 C 0.33519 0.23947 0.95667 0.0
C589 C 0.32051 0.2318 0.0103 0.0
C590 C 0.36457 0.24792 0.95809 0.0
C591 C 0.37994 0.24913 0.01323 0.0
C592 C 0.36533 0.24113 0.06682 0.0
C593 C 0.33598 0.23244 0.06534 0.0
C594 C 0.46034 0.25509 0.05568 0.0
C595 C 0.46979 0.27809 0.01813 0.0
C596 C 0.43127 0.24558 0.0539 0.0
C597 C 0.41096 0.25902 0.01484 0.0
C598 C 0.42049 0.28211 0.97743 0.0
C599 C 0.44961 0.29145 0.97889 0.0
H600 H 0.28284 0.79709 0.57689 0.0
H601 H 0.28707 0.79802 0.38135 0.0
H602 H 0.2936 0.84933 0.57936 0.0
H603 H 0.29812 0.85061 0.384 0.0
H604 H 0.33602 0.93933 0.56477 0.0
H605 H 0.33225 0.88595 0.55709 0.0
H606 H 0.26927 0.89521 0.41239 0.0
H607 H 0.27258 0.94837 0.42062 0.0
C608 C 0.28632 0.80842 0.53437 0.0
C609 C 0.28378 0.79347 0.47885 0.0
C610 C 0.29273 0.83833 0.53588 0.0
C611 C 0.2966 0.8541 0.4819 0.0
C612 C 0.29495 0.83904 0.42632 0.0
C613 C 0.28878 0.80893 0.42481 0.0
C614 C 0.3213 0.92997 0.53149 0.0
C615 C 0.30464 0.94816 0.49332 0.0
C616 C 0.31924 0.89942 0.52692 0.0
C617 C 0.30056 0.88641 0.48392 0.0
C618 C 0.28426 0.90457 0.44517 0.0
C619 C 0.28618 0.93507 0.44997 0.0
H620 H 0.68065 0.74075 0.05852 0.0
H621 H 0.66361 0.80757 0.92419 0.0
H622 H 0.62937 0.72538 0.05368 0.0
H623 H 0.61193 0.79251 0.92094 0.0
H624 H 0.51866 0.77146 0.02942 0.0
H625 H 0.56999 0.78769 0.02934 0.0
H626 H 0.59534 0.70711 0.94106 0.0
H627 H 0.54389 0.6912 0.93947 0.0
C628 C 0.66591 0.75227 0.02831 0.0
C629 C 0.67604 0.77538 0.99172 0.0
C630 C 0.63671 0.74338 0.02545 0.0
C631 C 0.61706 0.75784 0.98698 0.0
C632 C 0.62692 0.78114 0.95087 0.0
C633 C 0.65635 0.78965 0.95268 0.0
C634 C 0.53527 0.75731 0.01002 0.0
C635 C 0.5276 0.73011 0.98461 0.0
C636 C 0.56441 0.76663 0.00967 0.0
C637 C 0.58624 0.74859 0.98503 0.0
C638 C 0.57866 0.72129 0.9601 0.0
C639 C 0.54943 0.71225 0.95924 0.0
loop_
_geom_bond_atom_site_label_1
_geom_bond_atom_site_label_2
_geom_bond_distance
_geom_bond_site_symmetry_2
_ccdc_geom_bond_type
Fe0 O2 1.927 . S
Fe0 O5 1.997 . S
Fe0 O6 2.002 . S
Fe0 O11 1.976 . S
Fe0 O14 1.996 . S
Fe1 O2 1.910 1_556 S
Fe1 O9 1.997 . S
Fe1 O12 1.996 . S
Fe1 O16 1.976 . S
Fe1 O19 2.002 . S
O2 Fe0 1.927 . S
O2 Fe1 1.910 1_554 S
O2 Fe3 1.918 1_554 S
Fe3 O2 1.918 1_556 S
Fe3 O4 2.004 1_556 S
Fe3 O13 1.977 1_556 S
Fe3 O17 1.994 . S
Fe3 O20 1.995 . S
O4 Fe3 2.004 1_554 S
O4 C21 1.295 . S
O5 Fe0 1.997 . S
O5 C21 1.235 . S
O6 Fe0 2.002 . S
O6 C7 1.295 . S
C7 O6 1.295 . S
C7 O9 1.235 1_554 S
C8 O13 1.287 . S
C8 O14 1.255 . S
O9 Fe1 1.997 . S
O9 C7 1.235 1_556 S
C10 O16 1.287 . S
C10 O17 1.255 . S
O11 Fe0 1.976 . S
O11 C18 1.287 1_554 S
O12 Fe1 1.996 . S
O12 C18 1.255 . S
O13 Fe3 1.977 1_554 S
O13 C8 1.287 . S
O14 Fe0 1.996 . S
O14 C8 1.255 . S
C15 O19 1.295 . S
C15 O20 1.235 . S
O16 Fe1 1.976 . S
O16 C10 1.287 . S
O17 Fe3 1.994 . S
O17 C10 1.255 . S
C18 O11 1.287 1_556 S
C18 O12 1.255 . S
O19 Fe1 2.002 . S
O19 C15 1.295 . S
O20 Fe3 1.995 . S
O20 C15 1.235 . S
C21 O4 1.295 . S
C21 O5 1.235 . S
Fe22 O24 1.918 . S
Fe22 O27 1.997 . S
Fe22 O28 2.002 . S
Fe22 O33 1.976 . S
Fe22 O36 1.996 . S
Fe23 O24 1.918 . S
Fe23 O31 1.997 . S
Fe23 O34 1.996 . S
Fe23 O38 1.976 . S
Fe23 O41 2.002 . S
O24 Fe22 1.918 . S
O24 Fe23 1.918 . S
O24 Fe25 1.918 . S
Fe25 O24 1.918 . S
Fe25 O26 2.002 . S
Fe25 O35 1.976 . S
Fe25 O39 1.996 . S
Fe25 O42 1.997 . S
O26 Fe25 2.002 . S
O26 C43 1.295 . S
O27 Fe22 1.997 . S
O27 C43 1.235 . S
O28 Fe22 2.002 . S
O28 C29 1.295 . S
C29 O28 1.295 . S
C29 O31 1.235 . S
C30 O35 1.287 . S
C30 O36 1.255 . S
O31 Fe23 1.997 . S
O31 C29 1.235 . S
C32 O38 1.287 . S
C32 O39 1.255 . S
O33 Fe22 1.976 . S
O33 C40 1.287 . S
O34 Fe23 1.996 . S
O34 C40 1.255 . S
O35 Fe25 1.976 . S
O35 C30 1.287 . S
O36 Fe22 1.996 . S
O36 C30 1.255 . S
C37 O41 1.295 . S
C37 O42 1.235 . S
O38 Fe23 1.976 . S
O38 C32 1.287 . S
O39 Fe25 1.996 . S
O39 C32 1.255 . S
C40 O33 1.287 . S
C40 O34 1.255 . S
O41 Fe23 2.002 . S
O41 C37 1.295 . S
O42 Fe25 1.997 . S
O42 C37 1.235 . S
C43 O26 1.295 . S
C43 O27 1.235 . S
Fe44 O46 1.912 1_556 S
Fe44 O49 1.997 . S
Fe44 O50 2.002 . S
Fe44 O55 1.976 . S
Fe44 O58 1.996 . S
Fe45 O46 1.924 . S
Fe45 O53 1.997 . S
Fe45 O56 1.996 . S
Fe45 O60 1.976 . S
Fe45 O63 2.002 . S
O46 Fe44 1.912 1_554 S
O46 Fe45 1.924 . S
O46 Fe47 1.918 . S
Fe47 O46 1.918 . S
Fe47 O48 1.990 1_554 S
Fe47 O57 1.963 1_554 S
Fe47 O61 2.009 . S
Fe47 O64 2.010 . S
O48 Fe47 1.990 1_556 S
O48 C65 1.295 . S
O49 Fe44 1.997 . S
O49 C65 1.235 . S
O50 Fe44 2.002 . S
O50 C51 1.295 . S
C51 O50 1.295 . S
C51 O53 1.235 1_556 S
C52 O57 1.287 . S
C52 O58 1.255 . S
O53 Fe45 1.997 . S
O53 C51 1.235 1_554 S
C54 O60 1.287 . S
C54 O61 1.255 . S
O55 Fe44 1.976 . S
O55 C62 1.287 1_556 S
O56 Fe45 1.996 . S
O56 C62 1.255 . S
O57 Fe47 1.963 1_556 S
O57 C52 1.287 . S
O58 Fe44 1.996 . S
O58 C52 1.255 . S
C59 O63 1.295 . S
C59 O64 1.235 . S
O60 Fe45 1.976 . S
O60 C54 1.287 . S
O61 Fe47 2.009 . S
O61 C54 1.255 . S
C62 O55 1.287 1_554 S
C62 O56 1.255 . S
O63 Fe45 2.002 . S
O63 C59 1.295 . S
O64 Fe47 2.010 . S
O64 C59 1.235 . S
C65 O48 1.295 . S
C65 O49 1.235 . S
Fe66 O68 1.918 . S
Fe66 O71 1.997 . S
Fe66 O72 2.002 . S
Fe66 O77 1.976 . S
Fe66 O80 1.996 . S
Fe67 O68 1.918 . S
Fe67 O75 1.997 . S
Fe67 O78 1.996 . S
Fe67 O82 1.976 . S
Fe67 O85 2.002 . S
O68 Fe66 1.918 . S
O68 Fe67 1.918 . S
O68 Fe69 1.918 . S
Fe69 O68 1.918 . S
Fe69 O70 2.002 . S
Fe69 O79 1.976 . S
Fe69 O83 1.996 . S
Fe69 O86 1.997 . S
O70 Fe69 2.002 . S
O70 C87 1.295 . S
O71 Fe66 1.997 . S
O71 C87 1.235 . S
O72 Fe66 2.002 . S
O72 C73 1.295 . S
C73 O72 1.295 . S
C73 O75 1.235 . S
C74 O79 1.287 . S
C74 O80 1.255 . S
O75 Fe67 1.997 . S
O75 C73 1.235 . S
C76 O82 1.287 . S
C76 O83 1.255 . S
O77 Fe66 1.976 . S
O77 C84 1.287 . S
O78 Fe67 1.996 . S
O78 C84 1.255 . S
O79 Fe69 1.976 . S
O79 C74 1.287 . S
O80 Fe66 1.996 . S
O80 C74 1.255 . S
C81 O85 1.295 . S
C81 O86 1.235 . S
O82 Fe67 1.976 . S
O82 C76 1.287 . S
O83 Fe69 1.996 . S
O83 C76 1.255 . S
C84 O77 1.287 . S
C84 O78 1.255 . S
O85 Fe67 2.002 . S
O85 C81 1.295 . S
O86 Fe69 1.997 . S
O86 C81 1.235 . S
C87 O70 1.295 . S
C87 O71 1.235 . S
H88 C91 0.931 . S
H89 C94 0.928 . S
H90 C96 0.930 . S
C91 H88 0.931 . S
C91 C92 1.400 1_556 S
C91 C93 1.374 . S
C92 C91 1.400 1_554 S
C92 C96 1.429 . S
C93 C91 1.374 . S
C93 C94 1.372 . S
C94 H89 0.928 . S
C94 C93 1.372 . S
C94 C95 1.405 . S
C95 C94 1.405 . S
C95 C96 1.389 1_556 S
C96 H90 0.930 . S
C96 C92 1.429 . S
C96 C95 1.389 1_554 S
H97 C100 0.931 . S
H98 C103 0.928 1_455 S
H99 C105 0.930 1_455 S
C100 H97 0.931 . S
C100 C101 1.413 . S
C100 C102 1.360 . S
C101 C100 1.413 . S
C101 C105 1.429 . S
C102 C100 1.360 . S
C102 C103 1.372 . S
C103 H98 0.928 1_655 S
C103 C102 1.372 . S
C103 C104 1.404 1_655 S
C104 C103 1.404 1_455 S
C104 C105 1.391 1_455 S
C105 H99 0.930 1_655 S
C105 C101 1.429 . S
C105 C104 1.391 1_655 S
H106 C109 0.931 . S
H107 C112 0.928 . S
H108 C114 0.930 . S
C109 H106 0.931 . S
C109 C110 1.413 1_554 S
C109 C111 1.360 . S
C110 C109 1.413 1_556 S
C110 C114 1.429 . S
C111 C109 1.360 . S
C111 C112 1.372 . S
C112 H107 0.928 . S
C112 C111 1.372 . S
C112 C113 1.404 . S
C113 C112 1.404 . S
C113 C114 1.391 1_554 S
C114 H108 0.930 . S
C114 C110 1.429 . S
C114 C113 1.391 1_556 S
H115 C118 0.931 . S
H116 C121 0.928 1_655 S
H117 C123 0.930 1_655 S
C118 H115 0.931 . S
C118 C119 1.413 . S
C118 C120 1.360 . S
C119 C118 1.413 . S
C119 C123 1.429 . S
C120 C118 1.360 . S
C120 C121 1.372 . S
C121 H116 0.928 1_455 S
C121 C120 1.372 . S
C121 C122 1.404 1_455 S
C122 C121 1.404 1_655 S
C122 C123 1.391 1_655 S
C123 H117 0.930 1_455 S
C123 C119 1.429 . S
C123 C122 1.391 1_455 S
H124 C127 0.931 . S
H125 C130 0.928 . S
H126 C132 0.930 . S
C127 H124 0.931 . S
C127 C128 1.413 . S
C127 C129 1.360 . S
C128 C127 1.413 . S
C128 C132 1.429 1_565 S
C129 C127 1.360 . S
C129 C130 1.372 1_565 S
C130 H125 0.928 . S
C130 C129 1.372 1_545 S
C130 C131 1.404 . S
C131 C130 1.404 . S
C131 C132 1.391 . S
C132 H126 0.930 . S
C132 C128 1.429 1_545 S
C132 C131 1.391 . S
H133 C136 0.931 . S
H134 C139 0.928 . S
H135 C141 0.930 . S
C136 H133 0.931 . S
C136 C137 1.413 1_554 S
C136 C138 1.360 . S
C137 C136 1.413 1_556 S
C137 C141 1.429 . S
C138 C136 1.360 . S
C138 C139 1.372 . S
C139 H134 0.928 . S
C139 C138 1.372 . S
C139 C140 1.418 . S
C140 C139 1.418 . S
C140 C141 1.376 1_554 S
C141 H135 0.930 . S
C141 C137 1.429 . S
C141 C140 1.376 1_556 S
H142 C145 0.931 . S
H143 C148 0.928 . S
H144 C150 0.930 . S
C145 H142 0.931 . S
C145 C146 1.413 . S
C145 C147 1.360 . S
C146 C145 1.413 . S
C146 C150 1.429 1_545 S
C147 C145 1.360 . S
C147 C148 1.372 1_545 S
C148 H143 0.928 . S
C148 C147 1.372 1_565 S
C148 C149 1.404 . S
C149 C148 1.404 . S
C149 C150 1.391 . S
C150 H144 0.930 . S
C150 C146 1.429 1_565 S
C150 C149 1.391 . S
H151 C154 0.931 . S
H152 C157 0.928 . S
H153 C159 0.930 . S
C154 H151 0.931 . S
C154 C155 1.406 1_556 S
C154 C156 1.368 . S
C155 C154 1.406 1_554 S
C155 C159 1.429 . S
C156 C154 1.368 . S
C156 C157 1.372 . S
C157 H152 0.928 . S
C157 C156 1.372 . S
C157 C158 1.403 1_556 S
C158 C157 1.403 1_554 S
C158 C159 1.391 . S
C159 H153 0.930 . S
C159 C155 1.429 . S
C159 C158 1.391 . S
H160 C168 0.950 . S
H161 C173 0.950 . S
H162 C170 0.950 . S
H163 C172 0.950 . S
H164 C174 0.950 . S
H165 C176 0.950 . S
H166 C178 0.950 . S
H167 C179 0.950 . S
C168 H160 0.950 . S
C168 C169 1.386 . S
C168 C170 1.391 . S
C169 C168 1.386 . S
C169 C173 1.393 . S
C170 H162 0.950 . S
C170 C168 1.391 . S
C170 C171 1.400 . S
C171 C170 1.400 . S
C171 C172 1.398 . S
C171 C177 1.491 . S
C172 H163 0.950 . S
C172 C171 1.398 . S
C172 C173 1.391 . S
C173 H161 0.950 . S
C173 C169 1.393 . S
C173 C172 1.391 . S
C174 H164 0.950 . S
C174 C175 1.386 . S
C174 C176 1.391 . S
C175 C174 1.386 . S
C175 C179 1.393 . S
C176 H165 0.950 . S
C176 C174 1.391 . S
C176 C177 1.400 . S
C177 C171 1.491 . S
C177 C176 1.400 . S
C177 C178 1.398 . S
C178 H166 0.950 . S
C178 C177 1.398 . S
C178 C179 1.391 . S
C179 H167 0.950 . S
C179 C175 1.393 . S
C179 C178 1.391 . S
H180 C188 0.950 . S
H181 C193 0.950 . S
H182 C190 0.950 . S
H183 C192 0.950 . S
H184 C194 0.950 . S
H185 C196 0.950 . S
H186 C198 0.950 . S
H187 C199 0.950 . S
C188 H180 0.950 . S
C188 C189 1.386 . S
C188 C190 1.391 . S
C189 C188 1.386 . S
C189 C193 1.393 . S
C190 H182 0.950 . S
C190 C188 1.391 . S
C190 C191 1.400 . S
C191 C190 1.400 . S
C191 C192 1.398 . S
C191 C197 1.491 . S
C192 H183 0.950 . S
C192 C191 1.398 . S
C192 C193 1.391 . S
C193 H181 0.950 . S
C193 C189 1.393 . S
C193 C192 1.391 . S
C194 H184 0.950 . S
C194 C195 1.386 . S
C194 C196 1.391 . S
C195 C194 1.386 . S
C195 C199 1.393 . S
C196 H185 0.950 . S
C196 C194 1.391 . S
C196 C197 1.400 . S
C197 C191 1.491 . S
C197 C196 1.400 . S
C197 C198 1.398 . S
C198 H186 0.950 . S
C198 C197 1.398 . S
C198 C199 1.391 . S
C199 H187 0.950 . S
C199 C195 1.393 . S
C199 C198 1.391 . S
H200 C208 0.950 . S
H201 C213 0.950 . S
H202 C210 0.950 . S
H203 C212 0.950 . S
H204 C214 0.950 . S
H205 C216 0.950 . S
H206 C218 0.950 . S
H207 C219 0.950 . S
C208 H200 0.950 . S
C208 C209 1.386 . S
C208 C210 1.391 . S
C209 C208 1.386 . S
C209 C213 1.393 . S
C210 H202 0.950 . S
C210 C208 1.391 . S
C210 C211 1.400 . S
C211 C210 1.400 . S
C211 C212 1.398 . S
C211 C217 1.491 . S
C212 H203 0.950 . S
C212 C211 1.398 . S
C212 C213 1.391 . S
C213 H201 0.950 . S
C213 C209 1.393 . S
C213 C212 1.391 . S
C214 H204 0.950 . S
C214 C215 1.386 . S
C214 C216 1.391 . S
C215 C214 1.386 . S
C215 C219 1.393 . S
C216 H205 0.950 . S
C216 C214 1.391 . S
C216 C217 1.400 . S
C217 C211 1.491 . S
C217 C216 1.400 . S
C217 C218 1.398 . S
C218 H206 0.950 . S
C218 C217 1.398 . S
C218 C219 1.391 . S
C219 H207 0.950 . S
C219 C215 1.393 . S
C219 C218 1.391 . S
H220 C228 0.950 . S
H221 C233 0.950 . S
H222 C230 0.950 . S
H223 C232 0.950 . S
H224 C234 0.950 . S
H225 C236 0.950 . S
H226 C238 0.950 . S
H227 C239 0.950 . S
C228 H220 0.950 . S
C228 C229 1.386 . S
C228 C230 1.391 . S
C229 C228 1.386 . S
C229 C233 1.393 . S
C230 H222 0.950 . S
C230 C228 1.391 . S
C230 C231 1.400 . S
C231 C230 1.400 . S
C231 C232 1.398 . S
C231 C237 1.491 . S
C232 H223 0.950 . S
C232 C231 1.398 . S
C232 C233 1.391 . S
C233 H221 0.950 . S
C233 C229 1.393 . S
C233 C232 1.391 . S
C234 H224 0.950 . S
C234 C235 1.386 . S
C234 C236 1.391 . S
C235 C234 1.386 . S
C235 C239 1.393 . S
C236 H225 0.950 . S
C236 C234 1.391 . S
C236 C237 1.400 . S
C237 C231 1.491 . S
C237 C236 1.400 . S
C237 C238 1.398 . S
C238 H226 0.950 . S
C238 C237 1.398 . S
C238 C239 1.391 . S
C239 H227 0.950 . S
C239 C235 1.393 . S
C239 C238 1.391 . S
H240 C248 0.950 . S
H241 C253 0.950 . S
H242 C250 0.950 . S
H243 C252 0.950 . S
H244 C254 0.950 . S
H245 C256 0.950 . S
H246 C258 0.950 . S
H247 C259 0.950 . S
C248 H240 0.950 . S
C248 C249 1.386 . S
C248 C250 1.391 . S
C249 C248 1.386 . S
C249 C253 1.393 . S
C250 H242 0.950 . S
C250 C248 1.391 . S
C250 C251 1.400 . S
C251 C250 1.400 . S
C251 C252 1.398 . S
C251 C257 1.491 . S
C252 H243 0.950 . S
C252 C251 1.398 . S
C252 C253 1.391 . S
C253 H241 0.950 . S
C253 C249 1.393 . S
C253 C252 1.391 . S
C254 H244 0.950 . S
C254 C255 1.386 . S
C254 C256 1.391 . S
C255 C254 1.386 . S
C255 C259 1.393 . S
C256 H245 0.950 . S
C256 C254 1.391 . S
C256 C257 1.400 . S
C257 C251 1.491 . S
C257 C256 1.400 . S
C257 C258 1.398 . S
C258 H246 0.950 . S
C258 C257 1.398 . S
C258 C259 1.391 . S
C259 H247 0.950 . S
C259 C255 1.393 . S
C259 C258 1.391 . S
H260 C268 0.950 . S
H261 C273 0.950 . S
H262 C270 0.950 . S
H263 C272 0.950 . S
H264 C274 0.950 . S
H265 C276 0.950 . S
H266 C278 0.950 . S
H267 C279 0.950 . S
C268 H260 0.950 . S
C268 C269 1.386 . S
C268 C270 1.391 . S
C269 C268 1.386 . S
C269 C273 1.393 . S
C270 H262 0.950 . S
C270 C268 1.391 . S
C270 C271 1.400 . S
C271 C270 1.400 . S
C271 C272 1.398 . S
C271 C277 1.491 . S
C272 H263 0.950 . S
C272 C271 1.398 . S
C272 C273 1.391 . S
C273 H261 0.950 . S
C273 C269 1.393 . S
C273 C272 1.391 . S
C274 H264 0.950 . S
C274 C275 1.386 . S
C274 C276 1.391 . S
C275 C274 1.386 . S
C275 C279 1.393 . S
C276 H265 0.950 . S
C276 C274 1.391 . S
C276 C277 1.400 . S
C277 C271 1.491 . S
C277 C276 1.400 . S
C277 C278 1.398 . S
C278 H266 0.950 . S
C278 C277 1.398 . S
C278 C279 1.391 . S
C279 H267 0.950 . S
C279 C275 1.393 . S
C279 C278 1.391 . S
H280 C288 0.950 . S
H281 C293 0.950 . S
H282 C290 0.950 . S
H283 C292 0.950 . S
H284 C294 0.950 . S
H285 C296 0.950 . S
H286 C298 0.950 . S
H287 C299 0.950 . S
C288 H280 0.950 . S
C288 C289 1.386 . S
C288 C290 1.391 . S
C289 C288 1.386 . S
C289 C293 1.393 . S
C290 H282 0.950 . S
C290 C288 1.391 . S
C290 C291 1.400 . S
C291 C290 1.400 . S
C291 C292 1.398 . S
C291 C297 1.491 . S
C292 H283 0.950 . S
C292 C291 1.398 . S
C292 C293 1.391 . S
C293 H281 0.950 . S
C293 C289 1.393 . S
C293 C292 1.391 . S
C294 H284 0.950 . S
C294 C295 1.386 . S
C294 C296 1.391 . S
C295 C294 1.386 . S
C295 C299 1.393 . S
C296 H285 0.950 . S
C296 C294 1.391 . S
C296 C297 1.400 . S
C297 C291 1.491 . S
C297 C296 1.400 . S
C297 C298 1.398 . S
C298 H286 0.950 . S
C298 C297 1.398 . S
C298 C299 1.391 . S
C299 H287 0.950 . S
C299 C295 1.393 . S
C299 C298 1.391 . S
H300 C308 0.950 . S
H301 C313 0.950 . S
H302 C310 0.950 . S
H303 C312 0.950 . S
H304 C314 0.950 . S
H305 C316 0.950 . S
H306 C318 0.950 . S
H307 C319 0.950 . S
C308 H300 0.950 . S
C308 C309 1.386 . S
C308 C310 1.391 . S
C309 C308 1.386 . S
C309 C313 1.393 . S
C310 H302 0.950 . S
C310 C308 1.391 . S
C310 C311 1.400 . S
C311 C310 1.400 . S
C311 C312 1.398 . S
C311 C317 1.491 . S
C312 H303 0.950 . S
C312 C311 1.398 . S
C312 C313 1.391 . S
C313 H301 0.950 . S
C313 C309 1.393 . S
C313 C312 1.391 . S
C314 H304 0.950 . S
C314 C315 1.386 . S
C314 C316 1.391 . S
C315 C314 1.386 . S
C315 C319 1.393 . S
C316 H305 0.950 . S
C316 C314 1.391 . S
C316 C317 1.400 . S
C317 C311 1.491 . S
C317 C316 1.400 . S
C317 C318 1.398 . S
C318 H306 0.950 . S
C318 C317 1.398 . S
C318 C319 1.391 . S
C319 H307 0.950 . S
C319 C315 1.393 . S
C319 C318 1.391 . S
H320 C328 0.950 . S
H321 C333 0.950 . S
H322 C330 0.950 . S
H323 C332 0.950 . S
H324 C334 0.950 . S
H325 C336 0.950 . S
H326 C338 0.950 . S
H327 C339 0.950 . S
C328 H320 0.950 . S
C328 C329 1.386 . S
C328 C330 1.391 . S
C329 C328 1.386 . S
C329 C333 1.393 . S
C330 H322 0.950 . S
C330 C328 1.391 . S
C330 C331 1.400 . S
C331 C330 1.400 . S
C331 C332 1.398 . S
C331 C337 1.491 . S
C332 H323 0.950 . S
C332 C331 1.398 . S
C332 C333 1.391 . S
C333 H321 0.950 . S
C333 C329 1.393 . S
C333 C332 1.391 . S
C334 H324 0.950 . S
C334 C335 1.386 . S
C334 C336 1.391 . S
C335 C334 1.386 . S
C335 C339 1.393 . S
C336 H325 0.950 . S
C336 C334 1.391 . S
C336 C337 1.400 . S
C337 C331 1.491 . S
C337 C336 1.400 . S
C337 C338 1.398 . S
C338 H326 0.950 . S
C338 C337 1.398 . S
C338 C339 1.391 . S
C339 H327 0.950 . S
C339 C335 1.393 . S
C339 C338 1.391 . S
H340 C348 0.950 . S
H341 C353 0.950 . S
H342 C350 0.950 . S
H343 C352 0.950 . S
H344 C354 0.950 . S
H345 C356 0.950 . S
H346 C358 0.950 . S
H347 C359 0.950 . S
C348 H340 0.950 . S
C348 C349 1.386 . S
C348 C350 1.391 . S
C349 C348 1.386 . S
C349 C353 1.393 . S
C350 H342 0.950 . S
C350 C348 1.391 . S
C350 C351 1.400 . S
C351 C350 1.400 . S
C351 C352 1.398 . S
C351 C357 1.491 . S
C352 H343 0.950 . S
C352 C351 1.398 . S
C352 C353 1.391 . S
C353 H341 0.950 . S
C353 C349 1.393 . S
C353 C352 1.391 . S
C354 H344 0.950 . S
C354 C355 1.386 . S
C354 C356 1.391 . S
C355 C354 1.386 . S
C355 C359 1.393 . S
C356 H345 0.950 . S
C356 C354 1.391 . S
C356 C357 1.400 . S
C357 C351 1.491 . S
C357 C356 1.400 . S
C357 C358 1.398 . S
C358 H346 0.950 . S
C358 C357 1.398 . S
C358 C359 1.391 . S
C359 H347 0.950 . S
C359 C355 1.393 . S
C359 C358 1.391 . S
H360 C368 0.950 . S
H361 C373 0.950 . S
H362 C370 0.950 . S
H363 C372 0.950 . S
H364 C374 0.950 . S
H365 C376 0.950 . S
H366 C378 0.950 . S
H367 C379 0.950 . S
C368 H360 0.950 . S
C368 C369 1.386 . S
C368 C370 1.391 . S
C369 C368 1.386 . S
C369 C373 1.393 . S
C370 H362 0.950 . S
C370 C368 1.391 . S
C370 C371 1.400 . S
C371 C370 1.400 . S
C371 C372 1.398 . S
C371 C377 1.491 . S
C372 H363 0.950 . S
C372 C371 1.398 . S
C372 C373 1.391 . S
C373 H361 0.950 . S
C373 C369 1.393 . S
C373 C372 1.391 . S
C374 H364 0.950 . S
C374 C375 1.386 . S
C374 C376 1.391 . S
C375 C374 1.386 . S
C375 C379 1.393 . S
C376 H365 0.950 . S
C376 C374 1.391 . S
C376 C377 1.400 . S
C377 C371 1.491 . S
C377 C376 1.400 . S
C377 C378 1.398 . S
C378 H366 0.950 . S
C378 C377 1.398 . S
C378 C379 1.391 . S
C379 H367 0.950 . S
C379 C375 1.393 . S
C379 C378 1.391 . S
H380 C388 0.950 . S
H381 C393 0.950 . S
H382 C390 0.950 . S
H383 C392 0.950 . S
H384 C394 0.950 . S
H385 C396 0.950 . S
H386 C398 0.950 . S
H387 C399 0.950 . S
C388 H380 0.950 . S
C388 C389 1.386 . S
C388 C390 1.391 . S
C389 C388 1.386 . S
C389 C393 1.393 . S
C390 H382 0.950 . S
C390 C388 1.391 . S
C390 C391 1.400 . S
C391 C390 1.400 . S
C391 C392 1.398 . S
C391 C397 1.491 . S
C392 H383 0.950 . S
C392 C391 1.398 . S
C392 C393 1.391 . S
C393 H381 0.950 . S
C393 C389 1.393 . S
C393 C392 1.391 . S
C394 H384 0.950 . S
C394 C395 1.386 . S
C394 C396 1.391 . S
C395 C394 1.386 . S
C395 C399 1.393 . S
C396 H385 0.950 . S
C396 C394 1.391 . S
C396 C397 1.400 . S
C397 C391 1.491 . S
C397 C396 1.400 . S
C397 C398 1.398 . S
C398 H386 0.950 . S
C398 C397 1.398 . S
C398 C399 1.391 . S
C399 H387 0.950 . S
C399 C395 1.393 . S
C399 C398 1.391 . S
H400 C408 0.950 . S
H401 C413 0.950 . S
H402 C410 0.950 . S
H403 C412 0.950 . S
H404 C414 0.950 . S
H405 C416 0.950 . S
H406 C418 0.950 . S
H407 C419 0.950 . S
C408 H400 0.950 . S
C408 C409 1.386 . S
C408 C410 1.391 . S
C409 C408 1.386 . S
C409 C413 1.393 . S
C410 H402 0.950 . S
C410 C408 1.391 . S
C410 C411 1.400 . S
C411 C410 1.400 . S
C411 C412 1.398 . S
C411 C417 1.491 . S
C412 H403 0.950 . S
C412 C411 1.398 . S
C412 C413 1.391 . S
C413 H401 0.950 . S
C413 C409 1.393 . S
C413 C412 1.391 . S
C414 H404 0.950 . S
C414 C415 1.386 . S
C414 C416 1.391 . S
C415 C414 1.386 . S
C415 C419 1.393 . S
C416 H405 0.950 . S
C416 C414 1.391 . S
C416 C417 1.400 . S
C417 C411 1.491 . S
C417 C416 1.400 . S
C417 C418 1.398 . S
C418 H406 0.950 . S
C418 C417 1.398 . S
C418 C419 1.391 . S
C419 H407 0.950 . S
C419 C415 1.393 . S
C419 C418 1.391 . S
H420 C428 0.950 . S
H421 C433 0.950 . S
H422 C430 0.950 . S
H423 C432 0.950 . S
H424 C434 0.950 . S
H425 C436 0.950 . S
H426 C438 0.950 . S
H427 C439 0.950 . S
C428 H420 0.950 . S
C428 C429 1.386 . S
C428 C430 1.391 . S
C429 C428 1.386 . S
C429 C433 1.393 . S
C430 H422 0.950 . S
C430 C428 1.391 . S
C430 C431 1.400 . S
C431 C430 1.400 . S
C431 C432 1.398 . S
C431 C437 1.491 . S
C432 H423 0.950 . S
C432 C431 1.398 . S
C432 C433 1.391 . S
C433 H421 0.950 . S
C433 C429 1.393 . S
C433 C432 1.391 . S
C434 H424 0.950 . S
C434 C435 1.386 . S
C434 C436 1.391 . S
C435 C434 1.386 . S
C435 C439 1.393 . S
C436 H425 0.950 . S
C436 C434 1.391 . S
C436 C437 1.400 . S
C437 C431 1.491 . S
C437 C436 1.400 . S
C437 C438 1.398 . S
C438 H426 0.950 . S
C438 C437 1.398 . S
C438 C439 1.391 . S
C439 H427 0.950 . S
C439 C435 1.393 . S
C439 C438 1.391 . S
H440 C448 0.950 . S
H441 C453 0.950 . S
H442 C450 0.950 . S
H443 C452 0.950 . S
H444 C454 0.950 . S
H445 C456 0.950 . S
H446 C458 0.950 . S
H447 C459 0.950 . S
C448 H440 0.950 . S
C448 C449 1.386 . S
C448 C450 1.391 . S
C449 C448 1.386 . S
C449 C453 1.393 . S
C450 H442 0.950 . S
C450 C448 1.391 . S
C450 C451 1.400 . S
C451 C450 1.400 . S
C451 C452 1.398 . S
C451 C457 1.491 . S
C452 H443 0.950 . S
C452 C451 1.398 . S
C452 C453 1.391 . S
C453 H441 0.950 . S
C453 C449 1.393 . S
C453 C452 1.391 . S
C454 H444 0.950 . S
C454 C455 1.386 . S
C454 C456 1.391 . S
C455 C454 1.386 . S
C455 C459 1.393 . S
C456 H445 0.950 . S
C456 C454 1.391 . S
C456 C457 1.400 . S
C457 C451 1.491 . S
C457 C456 1.400 . S
C457 C458 1.398 . S
C458 H446 0.950 . S
C458 C457 1.398 . S
C458 C459 1.391 . S
C459 H447 0.950 . S
C459 C455 1.393 . S
C459 C458 1.391 . S
H460 C468 0.950 . S
H461 C473 0.950 . S
H462 C470 0.950 . S
H463 C472 0.950 . S
H464 C474 0.950 . S
H465 C476 0.950 . S
H466 C478 0.950 . S
H467 C479 0.950 . S
C468 H460 0.950 . S
C468 C469 1.386 . S
C468 C470 1.391 . S
C469 C468 1.386 . S
C469 C473 1.393 . S
C470 H462 0.950 . S
C470 C468 1.391 . S
C470 C471 1.400 . S
C471 C470 1.400 . S
C471 C472 1.398 . S
C471 C477 1.491 . S
C472 H463 0.950 . S
C472 C471 1.398 . S
C472 C473 1.391 . S
C473 H461 0.950 . S
C473 C469 1.393 . S
C473 C472 1.391 . S
C474 H464 0.950 . S
C474 C475 1.386 . S
C474 C476 1.391 . S
C475 C474 1.386 . S
C475 C479 1.393 . S
C476 H465 0.950 . S
C476 C474 1.391 . S
C476 C477 1.400 . S
C477 C471 1.491 . S
C477 C476 1.400 . S
C477 C478 1.398 . S
C478 H466 0.950 . S
C478 C477 1.398 . S
C478 C479 1.391 . S
C479 H467 0.950 . S
C479 C475 1.393 . S
C479 C478 1.391 . S
H480 C488 0.950 . S
H481 C493 0.950 . S
H482 C490 0.950 . S
H483 C492 0.950 . S
H484 C494 0.950 . S
H485 C496 0.950 . S
H486 C498 0.950 . S
H487 C499 0.950 . S
C488 H480 0.950 . S
C488 C489 1.386 1_556 S
C488 C490 1.391 . S
C489 C488 1.386 1_554 S
C489 C493 1.393 . S
C490 H482 0.950 . S
C490 C488 1.391 . S
C490 C491 1.400 1_556 S
C491 C490 1.400 1_554 S
C491 C492 1.398 . S
C491 C497 1.491 . S
C492 H483 0.950 . S
C492 C491 1.398 . S
C492 C493 1.391 . S
C493 H481 0.950 . S
C493 C489 1.393 . S
C493 C492 1.391 . S
C494 H484 0.950 . S
C494 C495 1.380 1_554 S
C494 C496 1.391 . S
C495 C494 1.380 1_556 S
C495 C499 1.398 . S
C496 H485 0.950 . S
C496 C494 1.391 . S
C496 C497 1.403 . S
C497 C491 1.491 . S
C497 C496 1.403 . S
C497 C498 1.396 1_554 S
C498 H486 0.950 . S
C498 C497 1.396 1_556 S
C498 C499 1.391 . S
C499 H487 0.950 . S
C499 C495 1.398 . S
C499 C498 1.391 . S
H500 C508 0.950 . S
H501 C513 0.950 . S
H502 C510 0.950 . S
H503 C512 0.950 . S
H504 C514 0.950 . S
H505 C516 0.950 . S
H506 C518 0.950 . S
H507 C519 0.950 . S
C508 H500 0.950 . S
C508 C509 1.386 . S
C508 C510 1.391 . S
C509 C508 1.386 . S
C509 C513 1.393 . S
C510 H502 0.950 . S
C510 C508 1.391 . S
C510 C511 1.400 . S
C511 C510 1.400 . S
C511 C512 1.398 . S
C511 C517 1.491 . S
C512 H503 0.950 . S
C512 C511 1.398 . S
C512 C513 1.391 . S
C513 H501 0.950 . S
C513 C509 1.393 . S
C513 C512 1.391 . S
C514 H504 0.950 . S
C514 C515 1.386 . S
C514 C516 1.391 . S
C515 C514 1.386 . S
C515 C519 1.393 . S
C516 H505 0.950 . S
C516 C514 1.391 . S
C516 C517 1.400 . S
C517 C511 1.491 . S
C517 C516 1.400 . S
C517 C518 1.398 . S
C518 H506 0.950 . S
C518 C517 1.398 . S
C518 C519 1.391 . S
C519 H507 0.950 . S
C519 C515 1.393 . S
C519 C518 1.391 . S
H520 C528 0.950 . S
H521 C533 0.950 . S
H522 C530 0.950 . S
H523 C532 0.950 . S
H524 C534 0.950 . S
H525 C536 0.950 . S
H526 C538 0.950 . S
H527 C539 0.950 . S
C528 H520 0.950 . S
C528 C529 1.388 . S
C528 C530 1.391 . S
C529 C528 1.388 . S
C529 C533 1.391 1_554 S
C530 H522 0.950 . S
C530 C528 1.391 . S
C530 C531 1.407 . S
C531 C530 1.407 . S
C531 C532 1.392 1_554 S
C531 C537 1.491 . S
C532 H523 0.950 . S
C532 C531 1.392 1_556 S
C532 C533 1.391 . S
C533 H521 0.950 . S
C533 C529 1.391 1_556 S
C533 C532 1.391 . S
C534 H524 0.950 . S
C534 C535 1.386 1_556 S
C534 C536 1.391 . S
C535 C534 1.386 1_554 S
C535 C539 1.393 . S
C536 H525 0.950 . S
C536 C534 1.391 . S
C536 C537 1.400 1_556 S
C537 C531 1.491 . S
C537 C536 1.400 1_554 S
C537 C538 1.398 . S
C538 H526 0.950 . S
C538 C537 1.398 . S
C538 C539 1.391 . S
C539 H527 0.950 . S
C539 C535 1.393 . S
C539 C538 1.391 . S
H540 C548 0.950 . S
H541 C553 0.950 . S
H542 C550 0.950 . S
H543 C552 0.950 . S
H544 C554 0.950 . S
H545 C556 0.950 . S
H546 C558 0.950 . S
H547 C559 0.950 . S
C548 H540 0.950 . S
C548 C549 1.386 . S
C548 C550 1.391 . S
C549 C548 1.386 . S
C549 C553 1.393 . S
C550 H542 0.950 . S
C550 C548 1.391 . S
C550 C551 1.400 . S
C551 C550 1.400 . S
C551 C552 1.398 . S
C551 C557 1.491 . S
C552 H543 0.950 . S
C552 C551 1.398 . S
C552 C553 1.391 . S
C553 H541 0.950 . S
C553 C549 1.393 . S
C553 C552 1.391 . S
C554 H544 0.950 . S
C554 C555 1.386 . S
C554 C556 1.391 . S
C555 C554 1.386 . S
C555 C559 1.393 . S
C556 H545 0.950 . S
C556 C554 1.391 . S
C556 C557 1.400 . S
C557 C551 1.491 . S
C557 C556 1.400 . S
C557 C558 1.398 . S
C558 H546 0.950 . S
C558 C557 1.398 . S
C558 C559 1.391 . S
C559 H547 0.950 . S
C559 C555 1.393 . S
C559 C558 1.391 . S
H560 C568 0.950 . S
H561 C573 0.950 . S
H562 C570 0.950 . S
H563 C572 0.950 . S
H564 C574 0.950 . S
H565 C576 0.950 . S
H566 C578 0.950 . S
H567 C579 0.950 . S
C568 H560 0.950 . S
C568 C569 1.386 . S
C568 C570 1.391 . S
C569 C568 1.386 . S
C569 C573 1.393 . S
C570 H562 0.950 . S
C570 C568 1.391 . S
C570 C571 1.400 . S
C571 C570 1.400 . S
C571 C572 1.398 . S
C571 C577 1.491 . S
C572 H563 0.950 . S
C572 C571 1.398 . S
C572 C573 1.391 . S
C573 H561 0.950 . S
C573 C569 1.393 . S
C573 C572 1.391 . S
C574 H564 0.950 . S
C574 C575 1.386 . S
C574 C576 1.391 . S
C575 C574 1.386 . S
C575 C579 1.393 . S
C576 H565 0.950 . S
C576 C574 1.391 . S
C576 C577 1.400 . S
C577 C571 1.491 . S
C577 C576 1.400 . S
C577 C578 1.398 . S
C578 H566 0.950 . S
C578 C577 1.398 . S
C578 C579 1.391 . S
C579 H567 0.950 . S
C579 C575 1.393 . S
C579 C578 1.391 . S
H580 C588 0.950 . S
H581 C593 0.950 . S
H582 C590 0.950 . S
H583 C592 0.950 . S
H584 C594 0.950 . S
H585 C596 0.950 . S
H586 C598 0.950 . S
H587 C599 0.950 . S
C588 H580 0.950 . S
C588 C589 1.386 1_556 S
C588 C590 1.391 . S
C589 C588 1.386 1_554 S
C589 C593 1.393 . S
C590 H582 0.950 . S
C590 C588 1.391 . S
C590 C591 1.400 1_556 S
C591 C590 1.400 1_554 S
C591 C592 1.398 . S
C591 C597 1.491 1_554 S
C592 H583 0.950 . S
C592 C591 1.398 . S
C592 C593 1.391 . S
C593 H581 0.950 . S
C593 C589 1.393 . S
C593 C592 1.391 . S
C594 H584 0.950 . S
C594 C595 1.386 1_554 S
C594 C596 1.391 . S
C595 C594 1.386 1_556 S
C595 C599 1.393 . S
C596 H585 0.950 . S
C596 C594 1.391 . S
C596 C597 1.400 1_554 S
C597 C591 1.491 1_556 S
C597 C596 1.400 1_556 S
C597 C598 1.398 . S
C598 H586 0.950 . S
C598 C597 1.398 . S
C598 C599 1.391 . S
C599 H587 0.950 . S
C599 C595 1.393 . S
C599 C598 1.391 . S
H600 C608 0.950 . S
H601 C613 0.950 . S
H602 C610 0.950 . S
H603 C612 0.950 . S
H604 C614 0.950 . S
H605 C616 0.950 . S
H606 C618 0.950 . S
H607 C619 0.950 . S
C608 H600 0.950 . S
C608 C609 1.386 . S
C608 C610 1.391 . S
C609 C608 1.386 . S
C609 C613 1.393 . S
C610 H602 0.950 . S
C610 C608 1.391 . S
C610 C611 1.400 . S
C611 C610 1.400 . S
C611 C612 1.398 . S
C611 C617 1.491 . S
C612 H603 0.950 . S
C612 C611 1.398 . S
C612 C613 1.391 . S
C613 H601 0.950 . S
C613 C609 1.393 . S
C613 C612 1.391 . S
C614 H604 0.950 . S
C614 C615 1.386 . S
C614 C616 1.391 . S
C615 C614 1.386 . S
C615 C619 1.393 . S
C616 H605 0.950 . S
C616 C614 1.391 . S
C616 C617 1.400 . S
C617 C611 1.491 . S
C617 C616 1.400 . S
C617 C618 1.398 . S
C618 H606 0.950 . S
C618 C617 1.398 . S
C618 C619 1.391 . S
C619 H607 0.950 . S
C619 C615 1.393 . S
C619 C618 1.391 . S
H620 C628 0.950 . S
H621 C633 0.950 . S
H622 C630 0.950 . S
H623 C632 0.950 . S
H624 C634 0.950 . S
H625 C636 0.950 . S
H626 C638 0.950 . S
H627 C639 0.950 . S
C628 H620 0.950 . S
C628 C629 1.386 1_556 S
C628 C630 1.391 . S
C629 C628 1.386 1_554 S
C629 C633 1.393 . S
C630 H622 0.950 . S
C630 C628 1.391 . S
C630 C631 1.400 1_556 S
C631 C630 1.400 1_554 S
C631 C632 1.398 . S
C631 C637 1.490 1_554 S
C632 H623 0.950 . S
C632 C631 1.398 . S
C632 C633 1.391 . S
C633 H621 0.950 . S
C633 C629 1.393 . S
C633 C632 1.391 . S
C634 H624 0.950 . S
C634 C635 1.386 1_554 S
C634 C636 1.391 . S
C635 C634 1.386 1_556 S
C635 C639 1.393 . S
C636 H625 0.950 . S
C636 C634 1.391 . S
C636 C637 1.398 1_554 S
C637 C631 1.490 1_556 S
C637 C636 1.398 1_556 S
C637 C638 1.401 . S
C638 H626 0.950 . S
C638 C637 1.401 . S
C638 C639 1.391 . S
C639 H627 0.950 . S
C639 C635 1.393 . S
C639 C638 1.391 . S
C169 C21 1.508 . S
C175 C119 1.506 . S
C189 C40 1.537 . S
C195 C93 1.513 . S
C215 C102 1.464 . S
C209 C54 1.473 . S
C229 C73 1.560 . S
C235 C110 1.561 . S
C255 C138 1.453 . S
C249 C74 1.474 . S
C275 C146 1.511 . S
C269 C10 1.535 . S
C295 C155 1.510 . S
C289 C37 1.496 . S
C315 C129 1.553 . S
C309 C65 1.567 . S
C329 C52 1.467 . S
C335 C101 1.465 . S
C349 C87 1.569 . S
C355 C111 1.541 . S
C369 C15 1.508 . S
C375 C120 1.507 . S
C395 C92 1.508 . S
C389 C32 1.532 . S
C409 C29 1.509 . S
C415 C156 1.508 . S
C435 C128 1.559 . S
C429 C59 1.556 . S
C455 C137 1.450 . S
C449 C84 1.473 . S
C469 C8 1.532 . S
C475 C147 1.502 . S
C495 C95 1.615 . S
C489 C7 1.643 . S
C515 C104 1.558 . S
C509 C30 1.569 . S
C529 C62 1.654 . S
C535 C113 1.630 . S
C549 C81 1.558 . S
C555 C122 1.563 . S
C575 C131 1.625 . S
C569 C76 1.653 . S
C589 C18 1.567 1_554 S
C595 C140 1.552 1_556 S
C609 C43 1.640 . S
C615 C149 1.614 . S
C629 C51 1.564 1_554 S
C635 C158 1.567 1_556 S
