# Generated by pormake.
# Topology tbo, (3,4)-cn, num edge types: 1
# Building blocks:
#     Node 0, Type 0, BuildingBlock: WUSLED_clean_sbu_0, # of connection points: 3
#     Node 1, Type 0, BuildingBlock: WUSLED_clean_sbu_0, # of connection points: 3
#     Node 2, Type 0, BuildingBlock: WUSLED_clean_sbu_0, # of connection points: 3
#     Node 3, Type 0, BuildingBlock: WUSLED_clean_sbu_0, # of connection points: 3
#     Node 4, Type 0, BuildingBlock: WUSLED_clean_sbu_0, # of connection points: 3
#     Node 5, Type 0, BuildingBlock: WUSLED_clean_sbu_0, # of connection points: 3
#     Node 6, Type 0, BuildingBlock: WUSLED_clean_sbu_0, # of connection points: 3
#     Node 7, Type 0, BuildingBlock: WUSLED_clean_sbu_0, # of connection points: 3
#     Node 8, Type 0, BuildingBlock: WUSLED_clean_sbu_0, # of connection points: 3
#     Node 9, Type 0, BuildingBlock: WUSLED_clean_sbu_0, # of connection points: 3
#     Node 10, Type 0, BuildingBlock: WUSLED_clean_sbu_0, # of connection points: 3
#     Node 11, Type 0, BuildingBlock: WUSLED_clean_sbu_0, # of connection points: 3
#     Node 12, Type 0, BuildingBlock: WUSLED_clean_sbu_0, # of connection points: 3
#     Node 13, Type 0, BuildingBlock: WUSLED_clean_sbu_0, # of connection points: 3
#     Node 14, Type 0, BuildingBlock: WUSLED_clean_sbu_0, # of connection points: 3
#     Node 15, Type 0, BuildingBlock: WUSLED_clean_sbu_0, # of connection points: 3
#     Node 16, Type 0, BuildingBlock: WUSLED_clean_sbu_0, # of connection points: 3
#     Node 17, Type 0, BuildingBlock: WUSLED_clean_sbu_0, # of connection points: 3
#     Node 18, Type 0, BuildingBlock: WUSLED_clean_sbu_0, # of connection points: 3
#     Node 19, Type 0, BuildingBlock: WUSLED_clean_sbu_0, # of connection points: 3
#     Node 20, Type 0, BuildingBlock: WUSLED_clean_sbu_0, # of connection points: 3
#     Node 21, Type 0, BuildingBlock: WUSLED_clean_sbu_0, # of connection points: 3
#     Node 22, Type 0, BuildingBlock: WUSLED_clean_sbu_0, # of connection points: 3
#     Node 23, Type 0, BuildingBlock: WUSLED_clean_sbu_0, # of connection points: 3
#     Node 24, Type 0, BuildingBlock: WUSLED_clean_sbu_0, # of connection points: 3
#     Node 25, Type 0, BuildingBlock: WUSLED_clean_sbu_0, # of connection points: 3
#     Node 26, Type 0, BuildingBlock: WUSLED_clean_sbu_0, # of connection points: 3
#     Node 27, Type 0, BuildingBlock: WUSLED_clean_sbu_0, # of connection points: 3
#     Node 28, Type 0, BuildingBlock: WUSLED_clean_sbu_0, # of connection points: 3
#     Node 29, Type 0, BuildingBlock: WUSLED_clean_sbu_0, # of connection points: 3
#     Node 30, Type 0, BuildingBlock: WUSLED_clean_sbu_0, # of connection points: 3
#     Node 31, Type 0, BuildingBlock: WUSLED_clean_sbu_0, # of connection points: 3
#     Node 32, Type 1, BuildingBlock: MUDLON_clean_linker_0, # of connection points: 4
#     Node 33, Type 1, BuildingBlock: MUDLON_clean_linker_0, # of connection points: 4
#     Node 34, Type 1, BuildingBlock: MUDLON_clean_linker_0, # of connection points: 4
#     Node 35, Type 1, BuildingBlock: MUDLON_clean_linker_0, # of connection points: 4
#     Node 36, Type 1, BuildingBlock: MUDLON_clean_linker_0, # of connection points: 4
#     Node 37, Type 1, BuildingBlock: MUDLON_clean_linker_0, # of connection points: 4
#     Node 38, Type 1, BuildingBlock: MUDLON_clean_linker_0, # of connection points: 4
#     Node 39, Type 1, BuildingBlock: MUDLON_clean_linker_0, # of connection points: 4
#     Node 40, Type 1, BuildingBlock: MUDLON_clean_linker_0, # of connection points: 4
#     Node 41, Type 1, BuildingBlock: MUDLON_clean_linker_0, # of connection points: 4
#     Node 42, Type 1, BuildingBlock: MUDLON_clean_linker_0, # of connection points: 4
#     Node 43, Type 1, BuildingBlock: MUDLON_clean_linker_0, # of connection points: 4
#     Node 44, Type 1, BuildingBlock: MUDLON_clean_linker_0, # of connection points: 4
#     Node 45, Type 1, BuildingBlock: MUDLON_clean_linker_0, # of connection points: 4
#     Node 46, Type 1, BuildingBlock: MUDLON_clean_linker_0, # of connection points: 4
#     Node 47, Type 1, BuildingBlock: MUDLON_clean_linker_0, # of connection points: 4
#     Node 48, Type 1, BuildingBlock: MUDLON_clean_linker_0, # of connection points: 4
#     Node 49, Type 1, BuildingBlock: MUDLON_clean_linker_0, # of connection points: 4
#     Node 50, Type 1, BuildingBlock: MUDLON_clean_linker_0, # of connection points: 4
#     Node 51, Type 1, BuildingBlock: MUDLON_clean_linker_0, # of connection points: 4
#     Node 52, Type 1, BuildingBlock: MUDLON_clean_linker_0, # of connection points: 4
#     Node 53, Type 1, BuildingBlock: MUDLON_clean_linker_0, # of connection points: 4
#     Node 54, Type 1, BuildingBlock: MUDLON_clean_linker_0, # of connection points: 4
#     Node 55, Type 1, BuildingBlock: MUDLON_clean_linker_0, # of connection points: 4
#     Edge 56, Type (0, 1), BuildingBlock: KIFKEQ_clean_linker_1, # of connection points: 2
#     Edge 57, Type (0, 1), BuildingBlock: KIFKEQ_clean_linker_1, # of connection points: 2
#     Edge 58, Type (0, 1), BuildingBlock: KIFKEQ_clean_linker_1, # of connection points: 2
#     Edge 59, Type (0, 1), BuildingBlock: KIFKEQ_clean_linker_1, # of connection points: 2
#     Edge 60, Type (0, 1), BuildingBlock: KIFKEQ_clean_linker_1, # of connection points: 2
#     Edge 61, Type (0, 1), BuildingBlock: KIFKEQ_clean_linker_1, # of connection points: 2
#     Edge 62, Type (0, 1), BuildingBlock: KIFKEQ_clean_linker_1, # of connection points: 2
#     Edge 63, Type (0, 1), BuildingBlock: KIFKEQ_clean_linker_1, # of connection points: 2
#     Edge 64, Type (0, 1), BuildingBlock: KIFKEQ_clean_linker_1, # of connection points: 2
#     Edge 65, Type (0, 1), BuildingBlock: KIFKEQ_clean_linker_1, # of connection points: 2
#     Edge 66, Type (0, 1), BuildingBlock: KIFKEQ_clean_linker_1, # of connection points: 2
#     Edge 67, Type (0, 1), BuildingBlock: KIFKEQ_clean_linker_1, # of connection points: 2
#     Edge 68, Type (0, 1), BuildingBlock: KIFKEQ_clean_linker_1, # of connection points: 2
#     Edge 69, Type (0, 1), BuildingBlock: KIFKEQ_clean_linker_1, # of connection points: 2
#     Edge 70, Type (0, 1), BuildingBlock: KIFKEQ_clean_linker_1, # of connection points: 2
#     Edge 71, Type (0, 1), BuildingBlock: KIFKEQ_clean_linker_1, # of connection points: 2
#     Edge 72, Type (0, 1), BuildingBlock: KIFKEQ_clean_linker_1, # of connection points: 2
#     Edge 73, Type (0, 1), BuildingBlock: KIFKEQ_clean_linker_1, # of connection points: 2
#     Edge 74, Type (0, 1), BuildingBlock: KIFKEQ_clean_linker_1, # of connection points: 2
#     Edge 75, Type (0, 1), BuildingBlock: KIFKEQ_clean_linker_1, # of connection points: 2
#     Edge 76, Type (0, 1), BuildingBlock: KIFKEQ_clean_linker_1, # of connection points: 2
#     Edge 77, Type (0, 1), BuildingBlock: KIFKEQ_clean_linker_1, # of connection points: 2
#     Edge 78, Type (0, 1), BuildingBlock: KIFKEQ_clean_linker_1, # of connection points: 2
#     Edge 79, Type (0, 1), BuildingBlock: KIFKEQ_clean_linker_1, # of connection points: 2
#     Edge 80, Type (0, 1), BuildingBlock: KIFKEQ_clean_linker_1, # of connection points: 2
#     Edge 81, Type (0, 1), BuildingBlock: KIFKEQ_clean_linker_1, # of connection points: 2
#     Edge 82, Type (0, 1), BuildingBlock: KIFKEQ_clean_linker_1, # of connection points: 2
#     Edge 83, Type (0, 1), BuildingBlock: KIFKEQ_clean_linker_1, # of connection points: 2
#     Edge 84, Type (0, 1), BuildingBlock: KIFKEQ_clean_linker_1, # of connection points: 2
#     Edge 85, Type (0, 1), BuildingBlock: KIFKEQ_clean_linker_1, # of connection points: 2
#     Edge 86, Type (0, 1), BuildingBlock: KIFKEQ_clean_linker_1, # of connection points: 2
#     Edge 87, Type (0, 1), BuildingBlock: KIFKEQ_clean_linker_1, # of connection points: 2
#     Edge 88, Type (0, 1), BuildingBlock: KIFKEQ_clean_linker_1, # of connection points: 2
#     Edge 89, Type (0, 1), BuildingBlock: KIFKEQ_clean_linker_1, # of connection points: 2
#     Edge 90, Type (0, 1), BuildingBlock: KIFKEQ_clean_linker_1, # of connection points: 2
#     Edge 91, Type (0, 1), BuildingBlock: KIFKEQ_clean_linker_1, # of connection points: 2
#     Edge 92, Type (0, 1), BuildingBlock: KIFKEQ_clean_linker_1, # of connection points: 2
#     Edge 93, Type (0, 1), BuildingBlock: KIFKEQ_clean_linker_1, # of connection points: 2
#     Edge 94, Type (0, 1), BuildingBlock: KIFKEQ_clean_linker_1, # of connection points: 2
#     Edge 95, Type (0, 1), BuildingBlock: KIFKEQ_clean_linker_1, # of connection points: 2
#     Edge 96, Type (0, 1), BuildingBlock: KIFKEQ_clean_linker_1, # of connection points: 2
#     Edge 97, Type (0, 1), BuildingBlock: KIFKEQ_clean_linker_1, # of connection points: 2
#     Edge 98, Type (0, 1), BuildingBlock: KIFKEQ_clean_linker_1, # of connection points: 2
#     Edge 99, Type (0, 1), BuildingBlock: KIFKEQ_clean_linker_1, # of connection points: 2
#     Edge 100, Type (0, 1), BuildingBlock: KIFKEQ_clean_linker_1, # of connection points: 2
#     Edge 101, Type (0, 1), BuildingBlock: KIFKEQ_clean_linker_1, # of connection points: 2
#     Edge 102, Type (0, 1), BuildingBlock: KIFKEQ_clean_linker_1, # of connection points: 2
#     Edge 103, Type (0, 1), BuildingBlock: KIFKEQ_clean_linker_1, # of connection points: 2
#     Edge 104, Type (0, 1), BuildingBlock: KIFKEQ_clean_linker_1, # of connection points: 2
#     Edge 105, Type (0, 1), BuildingBlock: KIFKEQ_clean_linker_1, # of connection points: 2
#     Edge 106, Type (0, 1), BuildingBlock: KIFKEQ_clean_linker_1, # of connection points: 2
#     Edge 107, Type (0, 1), BuildingBlock: KIFKEQ_clean_linker_1, # of connection points: 2
#     Edge 108, Type (0, 1), BuildingBlock: KIFKEQ_clean_linker_1, # of connection points: 2
#     Edge 109, Type (0, 1), BuildingBlock: KIFKEQ_clean_linker_1, # of connection points: 2
#     Edge 110, Type (0, 1), BuildingBlock: KIFKEQ_clean_linker_1, # of connection points: 2
#     Edge 111, Type (0, 1), BuildingBlock: KIFKEQ_clean_linker_1, # of connection points: 2
#     Edge 112, Type (0, 1), BuildingBlock: KIFKEQ_clean_linker_1, # of connection points: 2
#     Edge 113, Type (0, 1), BuildingBlock: KIFKEQ_clean_linker_1, # of connection points: 2
#     Edge 114, Type (0, 1), BuildingBlock: KIFKEQ_clean_linker_1, # of connection points: 2
#     Edge 115, Type (0, 1), BuildingBlock: KIFKEQ_clean_linker_1, # of connection points: 2
#     Edge 116, Type (0, 1), BuildingBlock: KIFKEQ_clean_linker_1, # of connection points: 2
#     Edge 117, Type (0, 1), BuildingBlock: KIFKEQ_clean_linker_1, # of connection points: 2
#     Edge 118, Type (0, 1), BuildingBlock: KIFKEQ_clean_linker_1, # of connection points: 2
#     Edge 119, Type (0, 1), BuildingBlock: KIFKEQ_clean_linker_1, # of connection points: 2
#     Edge 120, Type (0, 1), BuildingBlock: KIFKEQ_clean_linker_1, # of connection points: 2
#     Edge 121, Type (0, 1), BuildingBlock: KIFKEQ_clean_linker_1, # of connection points: 2
#     Edge 122, Type (0, 1), BuildingBlock: KIFKEQ_clean_linker_1, # of connection points: 2
#     Edge 123, Type (0, 1), BuildingBlock: KIFKEQ_clean_linker_1, # of connection points: 2
#     Edge 124, Type (0, 1), BuildingBlock: KIFKEQ_clean_linker_1, # of connection points: 2
#     Edge 125, Type (0, 1), BuildingBlock: KIFKEQ_clean_linker_1, # of connection points: 2
#     Edge 126, Type (0, 1), BuildingBlock: KIFKEQ_clean_linker_1, # of connection points: 2
#     Edge 127, Type (0, 1), BuildingBlock: KIFKEQ_clean_linker_1, # of connection points: 2
#     Edge 128, Type (0, 1), BuildingBlock: KIFKEQ_clean_linker_1, # of connection points: 2
#     Edge 129, Type (0, 1), BuildingBlock: KIFKEQ_clean_linker_1, # of connection points: 2
#     Edge 130, Type (0, 1), BuildingBlock: KIFKEQ_clean_linker_1, # of connection points: 2
#     Edge 131, Type (0, 1), BuildingBlock: KIFKEQ_clean_linker_1, # of connection points: 2
#     Edge 132, Type (0, 1), BuildingBlock: KIFKEQ_clean_linker_1, # of connection points: 2
#     Edge 133, Type (0, 1), BuildingBlock: KIFKEQ_clean_linker_1, # of connection points: 2
#     Edge 134, Type (0, 1), BuildingBlock: KIFKEQ_clean_linker_1, # of connection points: 2
#     Edge 135, Type (0, 1), BuildingBlock: KIFKEQ_clean_linker_1, # of connection points: 2
#     Edge 136, Type (0, 1), BuildingBlock: KIFKEQ_clean_linker_1, # of connection points: 2
#     Edge 137, Type (0, 1), BuildingBlock: KIFKEQ_clean_linker_1, # of connection points: 2
#     Edge 138, Type (0, 1), BuildingBlock: KIFKEQ_clean_linker_1, # of connection points: 2
#     Edge 139, Type (0, 1), BuildingBlock: KIFKEQ_clean_linker_1, # of connection points: 2
#     Edge 140, Type (0, 1), BuildingBlock: KIFKEQ_clean_linker_1, # of connection points: 2
#     Edge 141, Type (0, 1), BuildingBlock: KIFKEQ_clean_linker_1, # of connection points: 2
#     Edge 142, Type (0, 1), BuildingBlock: KIFKEQ_clean_linker_1, # of connection points: 2
#     Edge 143, Type (0, 1), BuildingBlock: KIFKEQ_clean_linker_1, # of connection points: 2
#     Edge 144, Type (0, 1), BuildingBlock: KIFKEQ_clean_linker_1, # of connection points: 2
#     Edge 145, Type (0, 1), BuildingBlock: KIFKEQ_clean_linker_1, # of connection points: 2
#     Edge 146, Type (0, 1), BuildingBlock: KIFKEQ_clean_linker_1, # of connection points: 2
#     Edge 147, Type (0, 1), BuildingBlock: KIFKEQ_clean_linker_1, # of connection points: 2
#     Edge 148, Type (0, 1), BuildingBlock: KIFKEQ_clean_linker_1, # of connection points: 2
#     Edge 149, Type (0, 1), BuildingBlock: KIFKEQ_clean_linker_1, # of connection points: 2
#     Edge 150, Type (0, 1), BuildingBlock: KIFKEQ_clean_linker_1, # of connection points: 2
#     Edge 151, Type (0, 1), BuildingBlock: KIFKEQ_clean_linker_1, # of connection points: 2
# Relax obj value: 0.001
# Max RMSD: 0.045
# Mean RMSD: 0.021
data_MOF--net-tbo--node1-WUSLED_clean_sbu_0--node2-MUDLON_clean_linker_0--edge1-KIFKEQ_clean_linker_1
_symmetry_space_group_name_H-M    P1
_symmetry_Int_Tables_number       1
_symmetry_cell_setting            triclinic
loop_
_symmetry_equiv_pos_as_xyz
'x, y, z'
_cell_length_a     119.86705
_cell_length_b     120.25522
_cell_length_c     119.99228
_cell_angle_alpha  89.530407
_cell_angle_beta   90.401982
_cell_angle_gamma 90.96221
loop_
_atom_site_label
_atom_site_type_symbol
_atom_site_fract_x
_atom_site_fract_y
_atom_site_fract_z
_atom_type_partial_charge
C0 C 0.19316 0.1521 0.19968 0.0
C1 C 0.20489 0.15237 0.19959 0.0
C2 C 0.20533 0.13361 0.20744 0.0
C3 C 0.21091 0.14324 0.20349 0.0
C4 C 0.1936 0.13331 0.20733 0.0
C5 C 0.18758 0.14248 0.20352 0.0
U6 U 0.18806 0.177 0.18023 0.0
O7 O 0.17233 0.18298 0.17289 0.0
O8 O 0.18221 0.19378 0.18399 0.0
C9 C 0.17284 0.1924 0.17837 0.0
C10 C 0.1866 0.16175 0.19597 0.0
C11 C 0.16259 0.1955 0.18418 0.0
C12 C 0.15077 0.19529 0.20059 0.0
C13 C 0.16044 0.19194 0.19515 0.0
C14 C 0.14521 0.20561 0.1841 0.0
C15 C 0.14305 0.20221 0.19514 0.0
C16 C 0.15488 0.2023 0.1787 0.0
C17 C 0.20886 0.18316 0.15648 0.0
C18 C 0.21336 0.20072 0.14717 0.0
C19 C 0.2177 0.18332 0.13831 0.0
C20 C 0.21324 0.17747 0.1474 0.0
C21 C 0.21797 0.19503 0.13812 0.0
C22 C 0.20883 0.19485 0.15625 0.0
C23 C 0.20477 0.1767 0.1662 0.0
O24 O 0.19125 0.17161 0.19749 0.0
O25 O 0.18161 0.16076 0.18623 0.0
O26 O 0.19545 0.17098 0.16467 0.0
O27 O 0.20532 0.18164 0.17593 0.0
H28 H 0.20939 0.15966 0.19656 0.0
H29 H 0.21994 0.14367 0.20333 0.0
H30 H 0.18905 0.12607 0.21041 0.0
H31 H 0.17855 0.1421 0.20366 0.0
H32 H 0.14931 0.19243 0.20904 0.0
H33 H 0.16627 0.18662 0.1995 0.0
H34 H 0.13953 0.21106 0.17971 0.0
H35 H 0.15641 0.20514 0.17024 0.0
H36 H 0.2135 0.20972 0.14738 0.0
H37 H 0.22096 0.17864 0.13142 0.0
H38 H 0.2133 0.16846 0.14738 0.0
H39 H 0.20546 0.19945 0.16315 0.0
C40 C 0.82062 0.18573 0.15867 0.0
C41 C 0.82808 0.19275 0.15287 0.0
C42 C 0.81311 0.19847 0.14031 0.0
C43 C 0.82437 0.19903 0.14373 0.0
C44 C 0.80569 0.19144 0.1462 0.0
C45 C 0.80942 0.18513 0.15528 0.0
U46 U 0.84104 0.17962 0.18254 0.0
O47 O 0.8377 0.17436 0.1998 0.0
O48 O 0.84721 0.16357 0.18882 0.0
C49 C 0.8423 0.16461 0.1985 0.0
C50 C 0.82429 0.17905 0.16831 0.0
C51 C 0.83571 0.15488 0.20234 0.0
C52 C 0.818 0.14501 0.20477 0.0
C53 C 0.8241 0.1542 0.20071 0.0
C54 C 0.83505 0.13698 0.21187 0.0
C55 C 0.8234 0.13631 0.21044 0.0
C56 C 0.84113 0.14619 0.20788 0.0
C57 C 0.86667 0.19838 0.18729 0.0
C58 C 0.87708 0.19962 0.20471 0.0
C59 C 0.88507 0.2072 0.18772 0.0
C60 C 0.87551 0.20384 0.1818 0.0
C61 C 0.88592 0.20523 0.19927 0.0
C62 C 0.86757 0.19618 0.19876 0.0
C63 C 0.85652 0.19525 0.18097 0.0
O64 O 0.83351 0.17344 0.16697 0.0
O65 O 0.82382 0.18402 0.17801 0.0
O66 O 0.84703 0.19658 0.18618 0.0
O67 O 0.85694 0.18583 0.17552 0.0
H68 H 0.83676 0.19338 0.15542 0.0
H69 H 0.83027 0.20446 0.13945 0.0
H70 H 0.79701 0.19072 0.14371 0.0
H71 H 0.80354 0.17976 0.15966 0.0
H72 H 0.80906 0.14469 0.20342 0.0
H73 H 0.81976 0.16079 0.19636 0.0
H74 H 0.83946 0.13049 0.21631 0.0
H75 H 0.85008 0.14657 0.20922 0.0
H76 H 0.87755 0.19785 0.21356 0.0
H77 H 0.89169 0.21158 0.18331 0.0
H78 H 0.87497 0.2056 0.17295 0.0
H79 H 0.86089 0.19188 0.20315 0.0
C80 C 0.82133 0.83891 0.15747 0.0
C81 C 0.82888 0.83445 0.14987 0.0
C82 C 0.81348 0.82624 0.1392 0.0
C83 C 0.82498 0.82822 0.14078 0.0
C84 C 0.80597 0.83068 0.14687 0.0
C85 C 0.80987 0.83697 0.15589 0.0
U86 U 0.84204 0.84565 0.18115 0.0
O87 O 0.84807 0.86189 0.1873 0.0
O88 O 0.83876 0.85058 0.19841 0.0
C89 C 0.84328 0.86053 0.19704 0.0
C90 C 0.82516 0.8456 0.16707 0.0
C91 C 0.83655 0.86988 0.20085 0.0
C92 C 0.8192 0.88008 0.20111 0.0
C93 C 0.82553 0.87127 0.19714 0.0
C94 C 0.83492 0.88628 0.21237 0.0
C95 C 0.8238 0.88766 0.20884 0.0
C96 C 0.84121 0.87748 0.20842 0.0
C97 C 0.86791 0.8276 0.1854 0.0
C98 C 0.87934 0.82705 0.20222 0.0
C99 C 0.88554 0.8179 0.18552 0.0
C100 C 0.87593 0.82136 0.1799 0.0
C101 C 0.88732 0.82058 0.1968 0.0
C102 C 0.86973 0.83054 0.19657 0.0
C103 C 0.85761 0.83064 0.17942 0.0
O104 O 0.82483 0.84052 0.1768 0.0
O105 O 0.83427 0.85167 0.16563 0.0
O106 O 0.85791 0.84018 0.17399 0.0
O107 O 0.84826 0.82893 0.18489 0.0
H108 H 0.83779 0.83576 0.15096 0.0
H109 H 0.83098 0.8248 0.13509 0.0
H110 H 0.79706 0.82941 0.14583 0.0
H111 H 0.8039 0.84035 0.16165 0.0
H112 H 0.81064 0.88081 0.19829 0.0
H113 H 0.82179 0.86548 0.19127 0.0
H114 H 0.83881 0.89205 0.21816 0.0
H115 H 0.84973 0.87657 0.21132 0.0
H116 H 0.88036 0.82919 0.21092 0.0
H117 H 0.89158 0.81311 0.18101 0.0
H118 H 0.87469 0.81906 0.17126 0.0
H119 H 0.86364 0.83538 0.20096 0.0
C120 C 0.16483 0.81749 0.18524 0.0
C121 C 0.16443 0.81801 0.19692 0.0
C122 C 0.14536 0.81062 0.19673 0.0
C123 C 0.1548 0.81456 0.20261 0.0
C124 C 0.14573 0.81031 0.18502 0.0
C125 C 0.15539 0.81368 0.17934 0.0
U126 U 0.19043 0.83641 0.18053 0.0
O127 O 0.20766 0.83216 0.17618 0.0
O128 O 0.19783 0.84273 0.16496 0.0
C129 C 0.20715 0.83729 0.16649 0.0
C130 C 0.17502 0.82071 0.17906 0.0
C131 C 0.21113 0.83097 0.15688 0.0
C132 C 0.2081 0.81783 0.1418 0.0
C133 C 0.20412 0.82352 0.15108 0.0
C134 C 0.22616 0.82688 0.14417 0.0
C135 C 0.21917 0.81951 0.13818 0.0
C136 C 0.22217 0.83255 0.1534 0.0
C137 C 0.19564 0.8612 0.1999 0.0
C138 C 0.2129 0.87213 0.20042 0.0
C139 C 0.19672 0.87833 0.21048 0.0
C140 C 0.19065 0.86903 0.20676 0.0
C141 C 0.20795 0.87998 0.20742 0.0
C142 C 0.20679 0.86284 0.19668 0.0
C143 C 0.1891 0.85141 0.19625 0.0
O144 O 0.17456 0.8301 0.17341 0.0
O145 O 0.18454 0.81942 0.18439 0.0
O146 O 0.19385 0.84173 0.19773 0.0
O147 O 0.18412 0.85237 0.1865 0.0
H148 H 0.17156 0.82103 0.20167 0.0
H149 H 0.15473 0.81503 0.21162 0.0
H150 H 0.13863 0.80724 0.18026 0.0
H151 H 0.15552 0.81321 0.17033 0.0
H152 H 0.20247 0.81228 0.13735 0.0
H153 H 0.19556 0.82218 0.15367 0.0
H154 H 0.23478 0.82821 0.14178 0.0
H155 H 0.22772 0.83822 0.15782 0.0
H156 H 0.22155 0.87306 0.19799 0.0
H157 H 0.19257 0.88428 0.21568 0.0
H158 H 0.18203 0.86794 0.20927 0.0
H159 H 0.21078 0.85688 0.19135 0.0
C160 C 0.16476 0.81256 0.83957 0.0
C161 C 0.1592 0.82014 0.83262 0.0
C162 C 0.14553 0.80577 0.82753 0.0
C163 C 0.14964 0.81678 0.82668 0.0
C164 C 0.15119 0.79822 0.83449 0.0
C165 C 0.1607 0.8016 0.84046 0.0
U166 U 0.18946 0.83238 0.84502 0.0
O167 O 0.19666 0.83829 0.86084 0.0
O168 O 0.20687 0.82862 0.84945 0.0
C169 C 0.20614 0.83319 0.85932 0.0
C170 C 0.17483 0.81589 0.84588 0.0
C171 C 0.21008 0.82637 0.86876 0.0
C172 C 0.20684 0.81241 0.88321 0.0
C173 C 0.20296 0.81868 0.87413 0.0
C174 C 0.22503 0.82133 0.88149 0.0
C175 C 0.21794 0.81367 0.887 0.0
C176 C 0.22113 0.82762 0.87247 0.0
C177 C 0.19362 0.85821 0.82655 0.0
C178 C 0.21027 0.87003 0.82724 0.0
C179 C 0.19443 0.87548 0.81592 0.0
C180 C 0.18864 0.86583 0.81925 0.0
C181 C 0.20535 0.87768 0.81981 0.0
C182 C 0.20445 0.86039 0.83059 0.0
C183 C 0.18743 0.84803 0.82977 0.0
O184 O 0.18426 0.81538 0.8404 0.0
O185 O 0.17402 0.82498 0.85182 0.0
O186 O 0.18243 0.84832 0.83947 0.0
O187 O 0.19259 0.83865 0.82804 0.0
H188 H 0.16227 0.82862 0.83177 0.0
H189 H 0.14557 0.82276 0.82129 0.0
H190 H 0.14818 0.78972 0.83543 0.0
H191 H 0.16489 0.79564 0.84579 0.0
H192 H 0.20121 0.80649 0.88717 0.0
H193 H 0.19441 0.81755 0.87133 0.0
H194 H 0.23358 0.82259 0.88427 0.0
H195 H 0.22673 0.83353 0.86843 0.0
H196 H 0.21869 0.87139 0.83032 0.0
H197 H 0.19031 0.88125 0.81035 0.0
H198 H 0.18027 0.86431 0.8161 0.0
H199 H 0.20842 0.85459 0.83626 0.0
C200 C 0.1596 0.18197 0.82921 0.0
C201 C 0.15803 0.19304 0.83239 0.0
C202 C 0.14075 0.19367 0.82153 0.0
C203 C 0.14869 0.19884 0.82857 0.0
C204 C 0.14229 0.18249 0.81858 0.0
C205 C 0.15163 0.17672 0.82237 0.0
U206 U 0.18519 0.17819 0.84805 0.0
O207 O 0.19229 0.16296 0.85525 0.0
O208 O 0.20222 0.17324 0.84368 0.0
C209 C 0.20144 0.16383 0.84929 0.0
C210 C 0.1696 0.17587 0.83272 0.0
C211 C 0.20473 0.1538 0.84319 0.0
C212 C 0.20016 0.13667 0.83336 0.0
C213 C 0.19678 0.14617 0.83903 0.0
C214 C 0.21948 0.14242 0.83576 0.0
C215 C 0.21157 0.13466 0.83165 0.0
C216 C 0.21609 0.15186 0.84149 0.0
C217 C 0.19083 0.19966 0.87125 0.0
C218 C 0.20439 0.19792 0.88633 0.0
C219 C 0.19454 0.21517 0.88364 0.0
C220 C 0.18886 0.2106 0.87452 0.0
C221 C 0.2023 0.20887 0.88975 0.0
C222 C 0.19869 0.19335 0.87716 0.0
C223 C 0.1844 0.19503 0.86183 0.0
O224 O 0.17919 0.18102 0.83094 0.0
O225 O 0.16907 0.17099 0.84254 0.0
O226 O 0.17928 0.18544 0.86365 0.0
O227 O 0.18922 0.19565 0.85204 0.0
H228 H 0.16409 0.19723 0.83769 0.0
H229 H 0.14785 0.20746 0.83092 0.0
H230 H 0.13627 0.17818 0.81334 0.0
H231 H 0.15268 0.16816 0.81989 0.0
H232 H 0.19383 0.13085 0.83044 0.0
H233 H 0.18795 0.14751 0.84019 0.0
H234 H 0.22831 0.1413 0.83444 0.0
H235 H 0.22236 0.15768 0.84456 0.0
H236 H 0.21026 0.19282 0.89087 0.0
H237 H 0.19288 0.22369 0.88587 0.0
H238 H 0.18287 0.21562 0.87002 0.0
H239 H 0.20033 0.18487 0.87474 0.0
C240 C 0.82411 0.15417 0.84214 0.0
C241 C 0.82705 0.15344 0.83086 0.0
C242 C 0.81698 0.13573 0.82935 0.0
C243 C 0.82347 0.14433 0.82451 0.0
C244 C 0.81426 0.1364 0.8407 0.0
C245 C 0.81777 0.14555 0.84702 0.0
U246 U 0.84364 0.17886 0.84824 0.0
O247 O 0.83984 0.19592 0.85322 0.0
O248 O 0.84984 0.18536 0.86428 0.0
C249 C 0.84464 0.19483 0.86304 0.0
C250 C 0.82745 0.16389 0.84886 0.0
C251 C 0.83801 0.19837 0.87262 0.0
C252 C 0.82074 0.19832 0.88314 0.0
C253 C 0.82699 0.19456 0.87414 0.0
C254 C 0.83654 0.20956 0.88929 0.0
C255 C 0.82541 0.20594 0.89079 0.0
C256 C 0.84275 0.20582 0.88029 0.0
C257 C 0.86893 0.18415 0.82925 0.0
C258 C 0.87912 0.20162 0.82655 0.0
C259 C 0.88726 0.18434 0.8207 0.0
C260 C 0.87781 0.1785 0.82446 0.0
C261 C 0.88799 0.19598 0.8216 0.0
C262 C 0.86969 0.19576 0.83039 0.0
C263 C 0.85888 0.17779 0.83268 0.0
O264 O 0.83678 0.16292 0.85457 0.0
O265 O 0.82652 0.17362 0.84389 0.0
O266 O 0.84929 0.18277 0.83125 0.0
O267 O 0.85962 0.17244 0.84224 0.0
H268 H 0.83204 0.15996 0.82695 0.0
H269 H 0.82583 0.14399 0.81582 0.0
H270 H 0.80918 0.12998 0.84465 0.0
H271 H 0.81544 0.14597 0.85572 0.0
H272 H 0.81218 0.19543 0.88396 0.0
H273 H 0.8232 0.18878 0.8683 0.0
H274 H 0.84048 0.21526 0.89511 0.0
H275 H 0.85127 0.2088 0.87928 0.0
H276 H 0.87948 0.21057 0.82748 0.0
H277 H 0.89387 0.17976 0.81682 0.0
H278 H 0.87737 0.16955 0.8235 0.0
H279 H 0.86297 0.20029 0.83414 0.0
C280 C 0.83955 0.8666 0.82447 0.0
C281 C 0.82892 0.86857 0.82879 0.0
C282 C 0.82736 0.88527 0.81723 0.0
C283 C 0.82287 0.87781 0.82519 0.0
C284 C 0.83809 0.8833 0.81304 0.0
C285 C 0.8441 0.87405 0.81662 0.0
U286 U 0.84435 0.84195 0.84409 0.0
O287 O 0.84897 0.82472 0.84035 0.0
O288 O 0.85993 0.83512 0.85084 0.0
C289 C 0.85861 0.82563 0.84558 0.0
C290 C 0.8459 0.85677 0.82794 0.0
C291 C 0.86839 0.82146 0.83959 0.0
C292 C 0.88608 0.82434 0.83003 0.0
C293 C 0.87661 0.82865 0.83513 0.0
C294 C 0.87908 0.80564 0.83355 0.0
C295 C 0.8875 0.81276 0.82929 0.0
C296 C 0.86967 0.80995 0.83866 0.0
C297 C 0.82443 0.83722 0.8687 0.0
C298 C 0.82303 0.82022 0.87977 0.0
C299 C 0.81379 0.83685 0.88586 0.0
C300 C 0.81781 0.8426 0.8765 0.0
C301 C 0.8163 0.82557 0.8876 0.0
C302 C 0.8271 0.82601 0.87042 0.0
C303 C 0.82831 0.84343 0.85879 0.0
O304 O 0.85137 0.85768 0.83743 0.0
O305 O 0.84062 0.84716 0.82688 0.0
O306 O 0.82708 0.83834 0.8492 0.0
O307 O 0.83799 0.84862 0.85982 0.0
H308 H 0.8253 0.86294 0.83492 0.0
H309 H 0.81471 0.87915 0.82869 0.0
H310 H 0.84174 0.8888 0.80681 0.0
H311 H 0.85229 0.87265 0.81318 0.0
H312 H 0.89241 0.83007 0.82691 0.0
H313 H 0.87578 0.83759 0.83571 0.0
H314 H 0.87974 0.7967 0.83292 0.0
H315 H 0.86341 0.80426 0.84199 0.0
H316 H 0.82521 0.81158 0.88092 0.0
H317 H 0.80852 0.84119 0.89162 0.0
H318 H 0.81566 0.85124 0.8753 0.0
H319 H 0.83226 0.82172 0.86452 0.0
C320 C 0.18572 0.65363 0.70094 0.0
C321 C 0.19259 0.64816 0.69338 0.0
C322 C 0.19758 0.63456 0.70772 0.0
C323 C 0.19843 0.6387 0.69673 0.0
C324 C 0.19072 0.64015 0.71525 0.0
C325 C 0.18485 0.64957 0.71188 0.0
U326 U 0.18118 0.67892 0.68195 0.0
O327 O 0.16564 0.68597 0.67533 0.0
O328 O 0.17651 0.69598 0.68627 0.0
C329 C 0.16693 0.69528 0.6809 0.0
C330 C 0.1795 0.66361 0.69762 0.0
C331 C 0.15712 0.69904 0.68707 0.0
C332 C 0.14185 0.69572 0.69999 0.0
C333 C 0.1512 0.6919 0.69431 0.0
C334 C 0.14434 0.71385 0.69134 0.0
C335 C 0.13828 0.70675 0.69855 0.0
C336 C 0.15364 0.71002 0.68566 0.0
C337 C 0.20147 0.68481 0.65784 0.0
C338 C 0.19822 0.69602 0.64118 0.0
C339 C 0.21712 0.69225 0.6472 0.0
C340 C 0.21299 0.68606 0.65623 0.0
C341 C 0.2098 0.69729 0.63955 0.0
C342 C 0.19409 0.68988 0.65028 0.0
C343 C 0.19743 0.67813 0.66742 0.0
O344 O 0.18483 0.67314 0.69904 0.0
O345 O 0.1741 0.66303 0.68806 0.0
O346 O 0.18781 0.67286 0.66612 0.0
O347 O 0.19854 0.68282 0.67723 0.0
H348 H 0.19341 0.65119 0.6849 0.0
H349 H 0.20352 0.63456 0.69066 0.0
H350 H 0.19 0.63735 0.72382 0.0
H351 H 0.17965 0.65373 0.71785 0.0
H352 H 0.13734 0.68999 0.7054 0.0
H353 H 0.15379 0.68338 0.69552 0.0
H354 H 0.14199 0.72244 0.69018 0.0
H355 H 0.15815 0.71567 0.68016 0.0
H356 H 0.19237 0.69989 0.6355 0.0
H357 H 0.22607 0.69296 0.64612 0.0
H358 H 0.21883 0.6822 0.66195 0.0
H359 H 0.18515 0.6891 0.65139 0.0
C360 C 0.82514 0.68766 0.66057 0.0
C361 C 0.82675 0.69926 0.66026 0.0
C362 C 0.81855 0.70008 0.64163 0.0
C363 C 0.82343 0.70541 0.6509 0.0
C364 C 0.81718 0.68844 0.64189 0.0
C365 C 0.82041 0.6823 0.65129 0.0
U366 U 0.84361 0.68219 0.6861 0.0
O367 O 0.83896 0.67702 0.70312 0.0
O368 O 0.8497 0.66645 0.69311 0.0
C369 C 0.84399 0.66743 0.70235 0.0
C370 C 0.82814 0.68107 0.67053 0.0
C371 C 0.83732 0.6576 0.70574 0.0
C372 C 0.82384 0.64283 0.70167 0.0
C373 C 0.83 0.65225 0.69827 0.0
C374 C 0.83218 0.64413 0.72007 0.0
C375 C 0.82489 0.63862 0.71261 0.0
C376 C 0.83834 0.65351 0.71665 0.0
C377 C 0.86848 0.70168 0.69227 0.0
C378 C 0.87801 0.70342 0.71015 0.0
C379 C 0.88674 0.7107 0.6934 0.0
C380 C 0.87752 0.70711 0.68711 0.0
C381 C 0.88707 0.70897 0.70501 0.0
C382 C 0.86882 0.69976 0.70382 0.0
C383 C 0.85879 0.69818 0.68545 0.0
O384 O 0.83758 0.67568 0.66998 0.0
O385 O 0.8267 0.68593 0.68018 0.0
O386 O 0.84894 0.69929 0.69003 0.0
O387 O 0.85981 0.68872 0.68017 0.0
H388 H 0.83049 0.70357 0.66728 0.0
H389 H 0.82473 0.71435 0.65089 0.0
H390 H 0.81337 0.6841 0.63492 0.0
H391 H 0.81911 0.67336 0.65137 0.0
H392 H 0.8184 0.63875 0.69567 0.0
H393 H 0.82909 0.65532 0.6898 0.0
H394 H 0.83305 0.64128 0.72861 0.0
H395 H 0.8439 0.65759 0.72256 0.0
H396 H 0.87807 0.70184 0.71905 0.0
H397 H 0.89352 0.71505 0.68921 0.0
H398 H 0.87742 0.70866 0.6782 0.0
H399 H 0.86196 0.69548 0.70796 0.0
C400 C 0.8264 0.33623 0.66091 0.0
C401 C 0.83406 0.32995 0.65492 0.0
C402 C 0.81945 0.32445 0.64169 0.0
C403 C 0.83063 0.32414 0.64538 0.0
C404 C 0.81181 0.33068 0.64782 0.0
C405 C 0.81527 0.33652 0.65731 0.0
U406 U 0.84524 0.34076 0.68647 0.0
O407 O 0.85222 0.35623 0.69351 0.0
O408 O 0.84082 0.34578 0.70346 0.0
C409 C 0.84645 0.35522 0.70276 0.0
C410 C 0.82981 0.34249 0.67092 0.0
C411 C 0.84046 0.36518 0.70627 0.0
C412 C 0.82784 0.38042 0.70251 0.0
C413 C 0.83334 0.37089 0.69895 0.0
C414 C 0.83642 0.3785 0.72074 0.0
C415 C 0.82935 0.38437 0.71345 0.0
C416 C 0.84192 0.36903 0.71717 0.0
C417 C 0.86872 0.32008 0.69261 0.0
C418 C 0.88497 0.323 0.70459 0.0
C419 C 0.8794 0.30433 0.69924 0.0
C420 C 0.87049 0.3086 0.69308 0.0
C421 C 0.88677 0.31146 0.70505 0.0
C422 C 0.87599 0.32727 0.69846 0.0
C423 C 0.85932 0.32428 0.68588 0.0
O424 O 0.82811 0.33734 0.68048 0.0
O425 O 0.83952 0.3477 0.67044 0.0
O426 O 0.86098 0.33379 0.68062 0.0
O427 O 0.84944 0.32343 0.69052 0.0
H428 H 0.8427 0.32957 0.65758 0.0
H429 H 0.83677 0.31954 0.64082 0.0
H430 H 0.8031 0.33096 0.64539 0.0
H431 H 0.80922 0.34125 0.66187 0.0
H432 H 0.82253 0.38476 0.69664 0.0
H433 H 0.83209 0.36802 0.69049 0.0
H434 H 0.83763 0.38115 0.72927 0.0
H435 H 0.84733 0.36468 0.72296 0.0
H436 H 0.89044 0.3287 0.70905 0.0
H437 H 0.88062 0.29542 0.69928 0.0
H438 H 0.86499 0.30292 0.6886 0.0
H439 H 0.87473 0.33617 0.69828 0.0
C440 C 0.16111 0.31239 0.68913 0.0
C441 C 0.15615 0.31966 0.69666 0.0
C442 C 0.1424 0.30533 0.70168 0.0
C443 C 0.14685 0.31617 0.70285 0.0
C444 C 0.14744 0.29809 0.69413 0.0
C445 C 0.1567 0.30161 0.68792 0.0
U446 U 0.18586 0.33207 0.68379 0.0
O447 O 0.20303 0.32838 0.67876 0.0
O448 O 0.19254 0.33887 0.66809 0.0
C449 C 0.20204 0.33365 0.66918 0.0
C450 C 0.17093 0.31588 0.6826 0.0
C451 C 0.20581 0.32759 0.65932 0.0
C452 C 0.20255 0.31461 0.64414 0.0
C453 C 0.19876 0.32007 0.65365 0.0
C454 C 0.22049 0.32402 0.64604 0.0
C455 C 0.21345 0.31658 0.64018 0.0
C456 C 0.21669 0.32946 0.65549 0.0
C457 C 0.1911 0.35653 0.70368 0.0
C458 C 0.20314 0.37264 0.70007 0.0
C459 C 0.19678 0.36869 0.71883 0.0
C460 C 0.19092 0.35932 0.71498 0.0
C461 C 0.20295 0.37548 0.71142 0.0
C462 C 0.1973 0.36321 0.69623 0.0
C463 C 0.18473 0.34666 0.6999 0.0
O464 O 0.17004 0.32533 0.6771 0.0
O465 O 0.18059 0.31486 0.68771 0.0
O466 O 0.18982 0.33712 0.701 0.0
O467 O 0.17934 0.34767 0.69037 0.0
H468 H 0.1595 0.328 0.69778 0.0
H469 H 0.14326 0.3219 0.70869 0.0
H470 H 0.14416 0.28974 0.69294 0.0
H471 H 0.16042 0.29589 0.68214 0.0
H472 H 0.19688 0.30901 0.6398 0.0
H473 H 0.19033 0.3185 0.65652 0.0
H474 H 0.22899 0.32557 0.64338 0.0
H475 H 0.22228 0.33518 0.65981 0.0
H476 H 0.20789 0.37764 0.69418 0.0
H477 H 0.19633 0.37071 0.72759 0.0
H478 H 0.18617 0.35428 0.72085 0.0
H479 H 0.19762 0.36115 0.68747 0.0
C480 C 0.16 0.31211 0.33862 0.0
C481 C 0.15793 0.31643 0.32791 0.0
C482 C 0.14158 0.30422 0.32598 0.0
C483 C 0.14882 0.3125 0.32164 0.0
C484 C 0.14362 0.30009 0.33681 0.0
C485 C 0.15275 0.30399 0.34304 0.0
U486 U 0.18398 0.33267 0.3444 0.0
O487 O 0.19057 0.33901 0.36032 0.0
O488 O 0.20136 0.32945 0.34938 0.0
C489 C 0.20021 0.3341 0.35917 0.0
C490 C 0.16975 0.31584 0.34519 0.0
C491 C 0.20396 0.32743 0.36879 0.0
C492 C 0.20049 0.31349 0.38321 0.0
C493 C 0.19679 0.31968 0.374 0.0
C494 C 0.21861 0.32263 0.38199 0.0
C495 C 0.21145 0.3149 0.38734 0.0
C496 C 0.21488 0.32883 0.37282 0.0
C497 C 0.1878 0.35837 0.32551 0.0
C498 C 0.2048 0.36943 0.32307 0.0
C499 C 0.18699 0.37696 0.31747 0.0
C500 C 0.18164 0.36713 0.32096 0.0
C501 C 0.19866 0.37822 0.31839 0.0
C502 C 0.19942 0.35962 0.32663 0.0
C503 C 0.18194 0.34801 0.32886 0.0
O504 O 0.17939 0.31547 0.34007 0.0
O505 O 0.16847 0.32503 0.35087 0.0
O506 O 0.17666 0.34832 0.33841 0.0
O507 O 0.18737 0.33872 0.32741 0.0
H508 H 0.16345 0.32273 0.32436 0.0
H509 H 0.14759 0.31579 0.3133 0.0
H510 H 0.13813 0.29386 0.34049 0.0
H511 H 0.15418 0.30061 0.35132 0.0
H512 H 0.1947 0.30772 0.38717 0.0
H513 H 0.18832 0.31845 0.37098 0.0
H514 H 0.22715 0.32381 0.38479 0.0
H515 H 0.22056 0.33473 0.36886 0.0
H516 H 0.2138 0.37004 0.32381 0.0
H517 H 0.18196 0.3836 0.3141 0.0
H518 H 0.17266 0.36635 0.32009 0.0
H519 H 0.20436 0.35298 0.33016 0.0
C520 C 0.15615 0.68738 0.32321 0.0
C521 C 0.15084 0.69494 0.33018 0.0
C522 C 0.13816 0.70005 0.31506 0.0
C523 C 0.14189 0.70119 0.32616 0.0
C524 C 0.14354 0.69245 0.30814 0.0
C525 C 0.15243 0.68618 0.31219 0.0
U526 U 0.18041 0.68247 0.34344 0.0
O527 O 0.18655 0.66696 0.35093 0.0
O528 O 0.19748 0.67697 0.34007 0.0
C529 C 0.19612 0.66762 0.34566 0.0
C530 C 0.16568 0.68082 0.3272 0.0
C531 C 0.19954 0.6575 0.33984 0.0
C532 C 0.19575 0.64227 0.32707 0.0
C533 C 0.19225 0.65183 0.33256 0.0
C534 C 0.21386 0.64402 0.33603 0.0
C535 C 0.20662 0.63827 0.32871 0.0
C536 C 0.21034 0.65353 0.34154 0.0
C537 C 0.18577 0.70371 0.36682 0.0
C538 C 0.19899 0.70152 0.38214 0.0
C539 C 0.19016 0.71925 0.37897 0.0
C540 C 0.18432 0.7148 0.36989 0.0
C541 C 0.19759 0.71269 0.38521 0.0
C542 C 0.19316 0.69708 0.37299 0.0
C543 C 0.17951 0.69934 0.35716 0.0
O544 O 0.17553 0.68562 0.32599 0.0
O545 O 0.16445 0.67587 0.33693 0.0
O546 O 0.17398 0.68993 0.35874 0.0
O547 O 0.18477 0.69981 0.3476 0.0
H548 H 0.15365 0.69605 0.33871 0.0
H549 H 0.13802 0.70706 0.33167 0.0
H550 H 0.1408 0.69128 0.2996 0.0
H551 H 0.15643 0.68038 0.30668 0.0
H552 H 0.19001 0.63812 0.3214 0.0
H553 H 0.18389 0.65483 0.33109 0.0
H554 H 0.22223 0.6411 0.33759 0.0
H555 H 0.21608 0.65779 0.34713 0.0
H556 H 0.20472 0.69628 0.3867 0.0
H557 H 0.18874 0.72782 0.3812 0.0
H558 H 0.17864 0.72004 0.36524 0.0
H559 H 0.19443 0.68849 0.3707 0.0
C560 C 0.83018 0.6578 0.33862 0.0
C561 C 0.83216 0.65691 0.32714 0.0
C562 C 0.82319 0.63854 0.32696 0.0
C563 C 0.82868 0.64738 0.32136 0.0
C564 C 0.82148 0.63941 0.33851 0.0
C565 C 0.82492 0.64895 0.34426 0.0
U566 U 0.84831 0.684 0.34276 0.0
O567 O 0.84352 0.70084 0.34768 0.0
O568 O 0.85509 0.69134 0.35816 0.0
C569 C 0.84911 0.70036 0.35713 0.0
C570 C 0.83332 0.66794 0.3448 0.0
C571 C 0.84292 0.70368 0.36709 0.0
C572 C 0.82984 0.69963 0.38206 0.0
C573 C 0.83571 0.69621 0.37266 0.0
C574 C 0.83828 0.71801 0.38036 0.0
C575 C 0.83102 0.7106 0.38599 0.0
C576 C 0.84416 0.71458 0.37101 0.0
C577 C 0.87172 0.69075 0.32201 0.0
C578 C 0.88601 0.70507 0.32484 0.0
C579 C 0.88419 0.69603 0.30693 0.0
C580 C 0.87532 0.68954 0.31101 0.0
C581 C 0.88967 0.70386 0.31379 0.0
C582 C 0.87708 0.69859 0.3289 0.0
C583 C 0.86244 0.68372 0.32612 0.0
O584 O 0.84308 0.66778 0.34986 0.0
O585 O 0.83136 0.67742 0.33967 0.0
O586 O 0.85248 0.68806 0.32533 0.0
O587 O 0.86417 0.67859 0.33569 0.0
H588 H 0.83626 0.66364 0.32262 0.0
H589 H 0.83005 0.64706 0.31246 0.0
H590 H 0.81747 0.6327 0.34314 0.0
H591 H 0.82339 0.64945 0.35313 0.0
H592 H 0.82423 0.69375 0.38612 0.0
H593 H 0.8346 0.68778 0.3697 0.0
H594 H 0.8395 0.72646 0.38324 0.0
H595 H 0.84969 0.72045 0.36682 0.0
H596 H 0.88996 0.71111 0.33029 0.0
H597 H 0.88687 0.6948 0.29843 0.0
H598 H 0.87128 0.68352 0.30558 0.0
H599 H 0.87437 0.69969 0.33741 0.0
C600 C 0.84827 0.3642 0.32342 0.0
C601 C 0.83746 0.36631 0.32719 0.0
C602 C 0.8368 0.38315 0.31571 0.0
C603 C 0.83177 0.37569 0.32336 0.0
C604 C 0.84771 0.38104 0.31212 0.0
C605 C 0.85337 0.37165 0.31593 0.0
U606 U 0.85267 0.33948 0.34329 0.0
O607 O 0.85712 0.32225 0.33965 0.0
O608 O 0.86838 0.33261 0.34984 0.0
C609 C 0.86692 0.32315 0.34458 0.0
C610 C 0.85432 0.35425 0.32709 0.0
C611 C 0.87655 0.31925 0.33817 0.0
C612 C 0.88577 0.31574 0.32057 0.0
C613 C 0.87683 0.32008 0.32649 0.0
C614 C 0.89445 0.31003 0.33794 0.0
C615 C 0.89465 0.31059 0.32623 0.0
C616 C 0.88547 0.31429 0.34384 0.0
C617 C 0.83297 0.33468 0.36796 0.0
C618 C 0.83614 0.32105 0.38268 0.0
C619 C 0.81843 0.33042 0.38143 0.0
C620 C 0.82222 0.33635 0.37208 0.0
C621 C 0.82534 0.3227 0.38687 0.0
C622 C 0.83991 0.32697 0.37329 0.0
C623 C 0.83673 0.34101 0.35809 0.0
O624 O 0.85978 0.35515 0.33658 0.0
O625 O 0.84886 0.34473 0.3261 0.0
O626 O 0.83539 0.33594 0.3485 0.0
O627 O 0.84644 0.34617 0.35903 0.0
H628 H 0.83339 0.36065 0.33301 0.0
H629 H 0.82334 0.37698 0.32622 0.0
H630 H 0.85193 0.38668 0.30639 0.0
H631 H 0.86174 0.37019 0.31298 0.0
H632 H 0.88575 0.31643 0.31157 0.0
H633 H 0.87008 0.32396 0.32193 0.0
H634 H 0.9011 0.30603 0.34254 0.0
H635 H 0.88541 0.31356 0.35285 0.0
H636 H 0.84173 0.31527 0.38671 0.0
H637 H 0.81002 0.33177 0.38427 0.0
H638 H 0.81673 0.34222 0.36802 0.0
H639 H 0.84823 0.32556 0.37021 0.0
C640 C 0.6927 0.15733 0.70397 0.0
C641 C 0.69849 0.15085 0.69629 0.0
C642 C 0.70509 0.13884 0.71135 0.0
C643 C 0.70458 0.14166 0.69995 0.0
C644 C 0.69931 0.1454 0.71899 0.0
C645 C 0.69317 0.15453 0.71532 0.0
U646 U 0.68716 0.18207 0.6844 0.0
O647 O 0.67135 0.18842 0.67771 0.0
O648 O 0.68186 0.19902 0.68844 0.0
C649 C 0.67228 0.19784 0.68316 0.0
C650 C 0.68616 0.16702 0.70037 0.0
C651 C 0.66234 0.20139 0.68928 0.0
C652 C 0.64567 0.19736 0.70016 0.0
C653 C 0.65524 0.19372 0.69471 0.0
C654 C 0.65034 0.21637 0.69498 0.0
C655 C 0.64306 0.20874 0.7003 0.0
C656 C 0.65985 0.21272 0.68951 0.0
C657 C 0.70699 0.18833 0.65999 0.0
C658 C 0.70328 0.19769 0.64229 0.0
C659 C 0.72211 0.1973 0.64971 0.0
C660 C 0.71832 0.19123 0.65896 0.0
C661 C 0.71466 0.20056 0.64123 0.0
C662 C 0.69947 0.19168 0.65161 0.0
C663 C 0.70332 0.18167 0.66975 0.0
O664 O 0.69114 0.17676 0.70157 0.0
O665 O 0.68072 0.16606 0.69086 0.0
O666 O 0.69394 0.17593 0.66866 0.0
O667 O 0.70434 0.18658 0.67946 0.0
H668 H 0.69831 0.15292 0.68749 0.0
H669 H 0.70904 0.13685 0.69388 0.0
H670 H 0.69943 0.1434 0.7278 0.0
H671 H 0.68876 0.15942 0.72137 0.0
H672 H 0.64023 0.19124 0.70408 0.0
H673 H 0.65703 0.18492 0.69467 0.0
H674 H 0.64874 0.22521 0.69509 0.0
H675 H 0.66526 0.21878 0.68542 0.0
H676 H 0.69732 0.20017 0.63596 0.0
H677 H 0.73094 0.19926 0.64909 0.0
H678 H 0.72427 0.18871 0.66529 0.0
H679 H 0.69066 0.18962 0.65222 0.0
C680 C 0.32195 0.18052 0.66123 0.0
C681 C 0.32928 0.18731 0.65501 0.0
C682 C 0.31418 0.19213 0.64224 0.0
C683 C 0.32544 0.19302 0.64557 0.0
C684 C 0.30687 0.18536 0.64855 0.0
C685 C 0.31073 0.1796 0.65795 0.0
U686 U 0.34277 0.17628 0.68506 0.0
O687 O 0.33997 0.17191 0.70264 0.0
O688 O 0.34955 0.16078 0.69209 0.0
C689 C 0.34469 0.16218 0.70175 0.0
C690 C 0.32582 0.17442 0.67118 0.0
C691 C 0.33817 0.15256 0.706 0.0
C692 C 0.32044 0.14291 0.70904 0.0
C693 C 0.32653 0.15195 0.70467 0.0
C694 C 0.33757 0.13481 0.71585 0.0
C695 C 0.32589 0.13426 0.71473 0.0
C696 C 0.34365 0.1439 0.71156 0.0
C697 C 0.36768 0.19671 0.68763 0.0
C698 C 0.38326 0.19456 0.7005 0.0
C699 C 0.38106 0.21185 0.69028 0.0
C700 C 0.37146 0.20752 0.68515 0.0
C701 C 0.38712 0.20543 0.69801 0.0
C702 C 0.37361 0.19024 0.69537 0.0
C703 C 0.35748 0.19246 0.68213 0.0
O704 O 0.33515 0.16896 0.67004 0.0
O705 O 0.32533 0.17988 0.6806 0.0
O706 O 0.3482 0.19363 0.68773 0.0
O707 O 0.3582 0.1827 0.67734 0.0
H708 H 0.33796 0.18819 0.65748 0.0
H709 H 0.33125 0.19828 0.64096 0.0
H710 H 0.29818 0.1844 0.64615 0.0
H711 H 0.30495 0.1744 0.66265 0.0
H712 H 0.31147 0.14266 0.7079 0.0
H713 H 0.32213 0.15849 0.7003 0.0
H714 H 0.342 0.12832 0.72026 0.0
H715 H 0.35263 0.14421 0.71266 0.0
H716 H 0.38777 0.18934 0.70634 0.0
H717 H 0.38363 0.22031 0.68831 0.0
H718 H 0.36693 0.21265 0.67925 0.0
H719 H 0.37078 0.18187 0.69741 0.0
C720 C 0.32252 0.83666 0.65959 0.0
C721 C 0.32355 0.82505 0.65925 0.0
C722 C 0.31497 0.82463 0.64073 0.0
C723 C 0.31977 0.8191 0.64994 0.0
C724 C 0.31409 0.83628 0.6411 0.0
C725 C 0.31781 0.84222 0.65044 0.0
U726 U 0.34233 0.8416 0.68431 0.0
O727 O 0.34974 0.85725 0.69063 0.0
O728 O 0.33888 0.84699 0.70137 0.0
C729 C 0.34451 0.8564 0.7002 0.0
C730 C 0.32629 0.84311 0.66937 0.0
C731 C 0.33893 0.86649 0.70405 0.0
C732 C 0.32232 0.87751 0.70665 0.0
C733 C 0.3275 0.86818 0.70221 0.0
C734 C 0.34 0.88369 0.71451 0.0
C735 C 0.32848 0.88531 0.71299 0.0
C736 C 0.34515 0.87437 0.71011 0.0
C737 C 0.3662 0.8212 0.68977 0.0
C738 C 0.38413 0.82451 0.69892 0.0
C739 C 0.37653 0.80578 0.6977 0.0
C740 C 0.36717 0.80981 0.69206 0.0
C741 C 0.38521 0.81305 0.70112 0.0
C742 C 0.37471 0.82855 0.69333 0.0
C743 C 0.35639 0.82512 0.68341 0.0
O744 O 0.32497 0.83825 0.67915 0.0
O745 O 0.33599 0.84826 0.66836 0.0
O746 O 0.35768 0.83446 0.67775 0.0
O747 O 0.34676 0.82434 0.68855 0.0
H748 H 0.32721 0.82058 0.6662 0.0
H749 H 0.32046 0.81013 0.65005 0.0
H750 H 0.31063 0.84086 0.63412 0.0
H751 H 0.317 0.85118 0.6505 0.0
H752 H 0.31343 0.87844 0.70537 0.0
H753 H 0.32255 0.86219 0.69753 0.0
H754 H 0.34506 0.88962 0.71915 0.0
H755 H 0.35399 0.87324 0.71157 0.0
H756 H 0.39067 0.83036 0.70132 0.0
H757 H 0.37693 0.79694 0.69944 0.0
H758 H 0.36068 0.804 0.68944 0.0
H759 H 0.37416 0.8374 0.6917 0.0
C760 C 0.66281 0.81899 0.68602 0.0
C761 C 0.65703 0.82586 0.69332 0.0
C762 C 0.64347 0.81092 0.69699 0.0
C763 C 0.64743 0.82187 0.69875 0.0
C764 C 0.6494 0.80407 0.68973 0.0
C765 C 0.65895 0.80808 0.6843 0.0
U766 U 0.68717 0.83969 0.68183 0.0
O767 O 0.70464 0.83647 0.67747 0.0
O768 O 0.69423 0.84658 0.66634 0.0
C769 C 0.70382 0.84159 0.66779 0.0
C770 C 0.67284 0.823 0.68012 0.0
C771 C 0.70799 0.83548 0.65812 0.0
C772 C 0.70512 0.82284 0.6426 0.0
C773 C 0.70101 0.82832 0.65194 0.0
C774 C 0.72327 0.83147 0.64566 0.0
C775 C 0.7163 0.82439 0.6393 0.0
C776 C 0.71914 0.83696 0.65495 0.0
C777 C 0.69086 0.86462 0.70132 0.0
C778 C 0.70761 0.87628 0.70237 0.0
C779 C 0.69079 0.88186 0.71174 0.0
C780 C 0.68527 0.87228 0.70791 0.0
C781 C 0.70205 0.88396 0.70907 0.0
C782 C 0.70205 0.86671 0.69849 0.0
C783 C 0.68489 0.85449 0.69761 0.0
O784 O 0.67185 0.83241 0.67456 0.0
O785 O 0.68226 0.82238 0.68575 0.0
O786 O 0.69021 0.84511 0.69906 0.0
O787 O 0.67986 0.8552 0.68787 0.0
H788 H 0.6599 0.83432 0.69477 0.0
H789 H 0.64304 0.82741 0.7042 0.0
H790 H 0.64675 0.79554 0.68833 0.0
H791 H 0.66335 0.80263 0.67875 0.0
H792 H 0.69948 0.81754 0.63786 0.0
H793 H 0.69236 0.82704 0.65427 0.0
H794 H 0.73197 0.83271 0.64352 0.0
H795 H 0.72467 0.84241 0.65966 0.0
H796 H 0.71624 0.8777 0.70006 0.0
H797 H 0.6863 0.88751 0.717 0.0
H798 H 0.67664 0.8708 0.71019 0.0
H799 H 0.70649 0.86092 0.69334 0.0
C800 C 0.65952 0.81789 0.34023 0.0
C801 C 0.65292 0.82536 0.33415 0.0
C802 C 0.64083 0.81009 0.32789 0.0
C803 C 0.64365 0.82151 0.32808 0.0
C804 C 0.64754 0.80265 0.33397 0.0
C805 C 0.65677 0.80652 0.34008 0.0
U806 U 0.68311 0.83895 0.34541 0.0
O807 O 0.68986 0.84565 0.36114 0.0
O808 O 0.70068 0.83638 0.34998 0.0
C809 C 0.69964 0.84111 0.35975 0.0
C810 C 0.66935 0.82177 0.34662 0.0
C811 C 0.70394 0.83475 0.36935 0.0
C812 C 0.70495 0.8177 0.38032 0.0
C813 C 0.70059 0.82366 0.37126 0.0
C814 C 0.7159 0.83391 0.38575 0.0
C815 C 0.71272 0.82274 0.38765 0.0
C816 C 0.71155 0.83984 0.37668 0.0
C817 C 0.6856 0.86429 0.32572 0.0
C818 C 0.70195 0.87636 0.32364 0.0
C819 C 0.68447 0.88135 0.31483 0.0
C820 C 0.67942 0.87172 0.3192 0.0
C821 C 0.69584 0.88373 0.31685 0.0
C822 C 0.69687 0.86672 0.32804 0.0
C823 C 0.68019 0.8539 0.32963 0.0
O824 O 0.67888 0.82156 0.34128 0.0
O825 O 0.66807 0.83091 0.35238 0.0
O826 O 0.67526 0.85432 0.33936 0.0
O827 O 0.6859 0.84478 0.32825 0.0
H828 H 0.65494 0.83418 0.33412 0.0
H829 H 0.63862 0.82751 0.32362 0.0
H830 H 0.64577 0.79379 0.33387 0.0
H831 H 0.66181 0.80062 0.34465 0.0
H832 H 0.7024 0.80909 0.38145 0.0
H833 H 0.69468 0.8196 0.36569 0.0
H834 H 0.7217 0.83812 0.39131 0.0
H835 H 0.71417 0.84842 0.37537 0.0
H836 H 0.71074 0.87788 0.32529 0.0
H837 H 0.67945 0.88692 0.30983 0.0
H838 H 0.6707 0.87 0.31738 0.0
H839 H 0.70178 0.86108 0.33308 0.0
C840 C 0.65909 0.18899 0.32469 0.0
C841 C 0.65369 0.19589 0.33227 0.0
C842 C 0.64074 0.2018 0.31768 0.0
C843 C 0.64455 0.2022 0.3288 0.0
C844 C 0.64622 0.19488 0.31015 0.0
C845 C 0.65529 0.18854 0.31363 0.0
U846 U 0.68401 0.1828 0.34388 0.0
O847 O 0.69023 0.16679 0.3501 0.0
O848 O 0.70088 0.17738 0.33947 0.0
C849 C 0.69961 0.16771 0.34453 0.0
C850 C 0.66874 0.1823 0.32806 0.0
C851 C 0.7028 0.1579 0.33807 0.0
C852 C 0.6982 0.14233 0.32595 0.0
C853 C 0.69498 0.15186 0.33167 0.0
C854 C 0.71712 0.14494 0.33276 0.0
C855 C 0.70931 0.1387 0.3265 0.0
C856 C 0.71389 0.15442 0.3385 0.0
C857 C 0.69076 0.2017 0.36872 0.0
C858 C 0.70872 0.20347 0.37816 0.0
C859 C 0.6921 0.21036 0.38694 0.0
C860 C 0.6857 0.20687 0.37777 0.0
C861 C 0.7037 0.2088 0.3872 0.0
C862 C 0.70231 0.19991 0.36903 0.0
C863 C 0.68388 0.19847 0.35899 0.0
O864 O 0.67854 0.1872 0.32687 0.0
O865 O 0.66778 0.17674 0.3375 0.0
O866 O 0.67816 0.1891 0.35999 0.0
O867 O 0.68862 0.19971 0.34919 0.0
H868 H 0.65655 0.19641 0.34083 0.0
H869 H 0.6406 0.20754 0.33477 0.0
H870 H 0.64342 0.19426 0.30157 0.0
H871 H 0.65935 0.18326 0.30767 0.0
H872 H 0.69194 0.1377 0.32128 0.0
H873 H 0.68637 0.15444 0.33121 0.0
H874 H 0.72578 0.14255 0.3332 0.0
H875 H 0.72006 0.15902 0.34333 0.0
H876 H 0.71762 0.20202 0.37817 0.0
H877 H 0.68799 0.21452 0.3937 0.0
H878 H 0.67681 0.20832 0.37769 0.0
H879 H 0.70638 0.19584 0.36218 0.0
C880 C 0.32714 0.15298 0.33674 0.0
C881 C 0.33465 0.14791 0.32952 0.0
C882 C 0.32009 0.13483 0.32351 0.0
C883 C 0.33117 0.13888 0.32299 0.0
C884 C 0.31261 0.14 0.33074 0.0
C885 C 0.31612 0.14897 0.33729 0.0
U886 U 0.34648 0.17777 0.34346 0.0
O887 O 0.34236 0.1944 0.3495 0.0
O888 O 0.35293 0.18354 0.35969 0.0
C889 C 0.34738 0.19287 0.35915 0.0
C890 C 0.33059 0.16246 0.34373 0.0
C891 C 0.34072 0.19546 0.36903 0.0
C892 C 0.32368 0.19359 0.37981 0.0
C893 C 0.33003 0.19077 0.37053 0.0
C894 C 0.33872 0.20563 0.3863 0.0
C895 C 0.32793 0.20109 0.38778 0.0
C896 C 0.34504 0.20285 0.377 0.0
C897 C 0.3709 0.18494 0.324 0.0
C898 C 0.3853 0.19884 0.32803 0.0
C899 C 0.38394 0.19079 0.30961 0.0
C900 C 0.37485 0.18423 0.31308 0.0
C901 C 0.38927 0.1982 0.31703 0.0
C902 C 0.37616 0.19229 0.33147 0.0
C903 C 0.36121 0.17804 0.32734 0.0
O904 O 0.34011 0.16144 0.34912 0.0
O905 O 0.32936 0.17234 0.33916 0.0
O906 O 0.35149 0.18288 0.32654 0.0
O907 O 0.36238 0.17219 0.33657 0.0
H908 H 0.34319 0.15095 0.32892 0.0
H909 H 0.3371 0.13516 0.31742 0.0
H910 H 0.30407 0.13701 0.33144 0.0
H911 H 0.31021 0.15278 0.34282 0.0
H912 H 0.31546 0.18984 0.38077 0.0
H913 H 0.32658 0.18499 0.36449 0.0
H914 H 0.3422 0.21153 0.3922 0.0
H915 H 0.35328 0.20655 0.37597 0.0
H916 H 0.38914 0.20455 0.33391 0.0
H917 H 0.38685 0.18999 0.30114 0.0
H918 H 0.37089 0.17859 0.3072 0.0
H919 H 0.37317 0.193 0.33993 0.0
C920 C 0.34493 0.86303 0.32204 0.0
C921 C 0.33375 0.86534 0.32442 0.0
C922 C 0.3348 0.88214 0.31287 0.0
C923 C 0.32873 0.8748 0.31986 0.0
C924 C 0.34607 0.87987 0.31076 0.0
C925 C 0.35106 0.87041 0.31528 0.0
U926 U 0.34739 0.83872 0.34285 0.0
O927 O 0.35127 0.82119 0.33973 0.0
O928 O 0.36239 0.83133 0.35027 0.0
C929 C 0.3608 0.82179 0.34519 0.0
C930 C 0.3503 0.8529 0.3263 0.0
C931 C 0.37053 0.81742 0.33932 0.0
C932 C 0.38581 0.81966 0.32622 0.0
C933 C 0.37648 0.82395 0.33157 0.0
C934 C 0.38322 0.80224 0.33622 0.0
C935 C 0.38933 0.80875 0.32851 0.0
C936 C 0.37393 0.80655 0.34157 0.0
C937 C 0.32668 0.83593 0.36709 0.0
C938 C 0.3234 0.81933 0.37841 0.0
C939 C 0.31618 0.83702 0.38428 0.0
C940 C 0.3208 0.84215 0.37484 0.0
C941 C 0.31731 0.82552 0.38614 0.0
C942 C 0.32806 0.82449 0.36898 0.0
C943 C 0.33113 0.84155 0.35706 0.0
O944 O 0.35548 0.85384 0.33594 0.0
O945 O 0.34442 0.84362 0.32541 0.0
O946 O 0.32985 0.83618 0.34762 0.0
O947 O 0.34103 0.84628 0.35817 0.0
H948 H 0.32888 0.85975 0.32966 0.0
H949 H 0.32002 0.87623 0.3216 0.0
H950 H 0.35108 0.88542 0.3056 0.0
H951 H 0.35972 0.8688 0.31341 0.0
H952 H 0.39036 0.82494 0.32041 0.0
H953 H 0.37395 0.83238 0.32971 0.0
H954 H 0.38554 0.79375 0.33805 0.0
H955 H 0.36939 0.80136 0.34749 0.0
H956 H 0.32437 0.81045 0.37952 0.0
H957 H 0.31175 0.8421 0.39014 0.0
H958 H 0.31971 0.851 0.37357 0.0
H959 H 0.33262 0.81954 0.3631 0.0
C960 C 0.69398 0.65387 0.20565 0.0
C961 C 0.70569 0.65452 0.20628 0.0
C962 C 0.70636 0.63538 0.21309 0.0
C963 C 0.71181 0.64538 0.21002 0.0
C964 C 0.69466 0.63468 0.21222 0.0
C965 C 0.68854 0.64385 0.20858 0.0
U966 U 0.68766 0.67861 0.18629 0.0
O967 O 0.67159 0.68488 0.18018 0.0
O968 O 0.68252 0.69559 0.19038 0.0
C969 C 0.67278 0.6944 0.1854 0.0
C970 C 0.68726 0.66356 0.20228 0.0
C971 C 0.66304 0.69816 0.19169 0.0
C972 C 0.64725 0.69469 0.20396 0.0
C973 C 0.65675 0.69089 0.19848 0.0
C974 C 0.65041 0.71306 0.19606 0.0
C975 C 0.6439 0.70581 0.20271 0.0
C976 C 0.65985 0.70927 0.19061 0.0
C977 C 0.70632 0.68451 0.16095 0.0
C978 C 0.70956 0.70219 0.15137 0.0
C979 C 0.71333 0.68492 0.14197 0.0
C980 C 0.70991 0.67895 0.15143 0.0
C981 C 0.71329 0.69662 0.14186 0.0
C982 C 0.70605 0.69619 0.16081 0.0
C983 C 0.70314 0.67797 0.17094 0.0
O984 O 0.69209 0.67341 0.20333 0.0
O985 O 0.68148 0.66252 0.19298 0.0
O986 O 0.69366 0.67236 0.17023 0.0
O987 O 0.7046 0.68287 0.18061 0.0
H988 H 0.71013 0.66211 0.20399 0.0
H989 H 0.72082 0.64613 0.21048 0.0
H990 H 0.69022 0.62712 0.2146 0.0
H991 H 0.67952 0.64316 0.20818 0.0
H992 H 0.64241 0.68886 0.20896 0.0
H993 H 0.6591 0.68228 0.19945 0.0
H994 H 0.64823 0.72172 0.19509 0.0
H995 H 0.66464 0.71502 0.18545 0.0
H996 H 0.7093 0.71119 0.1515 0.0
H997 H 0.71626 0.68039 0.13483 0.0
H998 H 0.71019 0.66994 0.15136 0.0
H999 H 0.70322 0.7007 0.16801 0.0
C1000 C 0.32391 0.67997 0.1627 0.0
C1001 C 0.33161 0.68659 0.15675 0.0
C1002 C 0.31702 0.69194 0.14358 0.0
C1003 C 0.32821 0.69248 0.14724 0.0
C1004 C 0.30935 0.68533 0.14964 0.0
C1005 C 0.31278 0.67939 0.15909 0.0
U1006 U 0.34337 0.67493 0.18762 0.0
O1007 O 0.33935 0.67007 0.20484 0.0
O1008 O 0.34955 0.65918 0.19463 0.0
C1009 C 0.34416 0.66037 0.20403 0.0
C1010 C 0.32728 0.67365 0.1727 0.0
C1011 C 0.33739 0.65071 0.20768 0.0
C1012 C 0.32014 0.63979 0.20727 0.0
C1013 C 0.32658 0.64885 0.20345 0.0
C1014 C 0.33533 0.63427 0.21942 0.0
C1015 C 0.32441 0.63242 0.21537 0.0
C1016 C 0.34174 0.64334 0.21562 0.0
C1017 C 0.36833 0.69467 0.19279 0.0
C1018 C 0.38433 0.6909 0.20475 0.0
C1019 C 0.38015 0.70986 0.19944 0.0
C1020 C 0.37095 0.70605 0.19325 0.0
C1021 C 0.38694 0.70234 0.20528 0.0
C1022 C 0.37506 0.6871 0.19861 0.0
C1023 C 0.35849 0.69094 0.18629 0.0
O1024 O 0.33665 0.66817 0.17193 0.0
O1025 O 0.32628 0.67886 0.18221 0.0
O1026 O 0.34883 0.69212 0.19121 0.0
O1027 O 0.35933 0.68141 0.1811 0.0
H1028 H 0.34024 0.68721 0.15946 0.0
H1029 H 0.33428 0.6976 0.14284 0.0
H1030 H 0.30072 0.68463 0.14698 0.0
H1031 H 0.30672 0.67433 0.16358 0.0
H1032 H 0.31173 0.6387 0.20405 0.0
H1033 H 0.32308 0.65446 0.19729 0.0
H1034 H 0.33897 0.62868 0.22551 0.0
H1035 H 0.35009 0.64462 0.21892 0.0
H1036 H 0.38932 0.68491 0.20925 0.0
H1037 H 0.382 0.71871 0.19959 0.0
H1038 H 0.36586 0.71202 0.18882 0.0
H1039 H 0.37314 0.67826 0.19845 0.0
C1040 C 0.32437 0.34007 0.16205 0.0
C1041 C 0.32627 0.32863 0.16106 0.0
C1042 C 0.31738 0.32854 0.14269 0.0
C1043 C 0.32278 0.32292 0.15149 0.0
C1044 C 0.31567 0.34004 0.14368 0.0
C1045 C 0.3191 0.34572 0.15327 0.0
U1046 U 0.34345 0.34527 0.1874 0.0
O1047 O 0.34951 0.36118 0.1944 0.0
O1048 O 0.33922 0.34978 0.20455 0.0
C1049 C 0.34401 0.35967 0.20375 0.0
C1050 C 0.32764 0.34624 0.17217 0.0
C1051 C 0.33737 0.36916 0.20749 0.0
C1052 C 0.31956 0.37792 0.21089 0.0
C1053 C 0.32566 0.36901 0.20679 0.0
C1054 C 0.33679 0.38736 0.21613 0.0
C1055 C 0.32506 0.38717 0.21567 0.0
C1056 C 0.34287 0.37843 0.21211 0.0
C1057 C 0.36863 0.32666 0.19275 0.0
C1058 C 0.37938 0.32645 0.21002 0.0
C1059 C 0.38602 0.3166 0.19391 0.0
C1060 C 0.3767 0.32004 0.18781 0.0
C1061 C 0.38746 0.31969 0.20513 0.0
C1062 C 0.37006 0.32992 0.20388 0.0
C1063 C 0.35878 0.32997 0.1862 0.0
O1064 O 0.32649 0.34087 0.18169 0.0
O1065 O 0.33701 0.35204 0.17153 0.0
O1066 O 0.3596 0.33964 0.18106 0.0
O1067 O 0.34907 0.32831 0.19102 0.0
H1068 H 0.33036 0.32409 0.16773 0.0
H1069 H 0.32413 0.31405 0.1511 0.0
H1070 H 0.31173 0.3447 0.13702 0.0
H1071 H 0.31762 0.35456 0.15384 0.0
H1072 H 0.31054 0.37757 0.21029 0.0
H1073 H 0.32122 0.36199 0.20317 0.0
H1074 H 0.34127 0.3943 0.21986 0.0
H1075 H 0.35189 0.37871 0.21274 0.0
H1076 H 0.38013 0.3289 0.21866 0.0
H1077 H 0.39215 0.31157 0.1898 0.0
H1078 H 0.37577 0.31749 0.1792 0.0
H1079 H 0.36392 0.33506 0.20784 0.0
C1080 C 0.66214 0.32212 0.19139 0.0
C1081 C 0.66111 0.32516 0.2026 0.0
C1082 C 0.64319 0.31532 0.20372 0.0
C1083 C 0.65174 0.32175 0.20872 0.0
C1084 C 0.6442 0.31245 0.19242 0.0
C1085 C 0.6536 0.31581 0.18634 0.0
U1086 U 0.68758 0.34102 0.18635 0.0
O1087 O 0.7046 0.33683 0.18122 0.0
O1088 O 0.69445 0.34782 0.17073 0.0
C1089 C 0.70373 0.34221 0.17168 0.0
C1090 C 0.67207 0.32539 0.1849 0.0
C1091 C 0.70708 0.33602 0.16175 0.0
C1092 C 0.70287 0.32337 0.14651 0.0
C1093 C 0.69953 0.329 0.15607 0.0
C1094 C 0.72138 0.33159 0.14832 0.0
C1095 C 0.71384 0.32464 0.14247 0.0
C1096 C 0.71802 0.33722 0.15784 0.0
C1097 C 0.69321 0.36521 0.20659 0.0
C1098 C 0.7104 0.37621 0.20782 0.0
C1099 C 0.69399 0.38193 0.21779 0.0
C1100 C 0.68805 0.37277 0.21362 0.0
C1101 C 0.70528 0.38373 0.21504 0.0
C1102 C 0.70441 0.36702 0.20362 0.0
C1103 C 0.68676 0.35548 0.20261 0.0
O1104 O 0.67148 0.33496 0.17958 0.0
O1105 O 0.68173 0.32395 0.18993 0.0
O1106 O 0.69164 0.34581 0.20358 0.0
O1107 O 0.6815 0.35678 0.19306 0.0
H1108 H 0.66757 0.33012 0.20663 0.0
H1109 H 0.65115 0.32422 0.21735 0.0
H1110 H 0.63782 0.30742 0.18835 0.0
H1111 H 0.65425 0.31339 0.17769 0.0
H1112 H 0.69682 0.31817 0.14217 0.0
H1113 H 0.69104 0.32794 0.15899 0.0
H1114 H 0.72993 0.33261 0.14561 0.0
H1115 H 0.72398 0.34255 0.16216 0.0
H1116 H 0.71909 0.37728 0.20559 0.0
H1117 H 0.68971 0.38765 0.22314 0.0
H1118 H 0.67939 0.37154 0.21594 0.0
H1119 H 0.70854 0.36129 0.19816 0.0
C1120 C 0.66053 0.31994 0.83705 0.0
C1121 C 0.65414 0.32709 0.83035 0.0
C1122 C 0.64242 0.31145 0.82437 0.0
C1123 C 0.64512 0.32289 0.8241 0.0
C1124 C 0.64889 0.30435 0.83107 0.0
C1125 C 0.65784 0.30856 0.83735 0.0
U1126 U 0.68439 0.34081 0.84266 0.0
O1127 O 0.69048 0.34785 0.85848 0.0
O1128 O 0.70157 0.33773 0.84839 0.0
C1129 C 0.70012 0.34284 0.85789 0.0
C1130 C 0.67006 0.32409 0.84372 0.0
C1131 C 0.70356 0.3366 0.86792 0.0
C1132 C 0.69962 0.32332 0.88283 0.0
C1133 C 0.69615 0.32923 0.87335 0.0
C1134 C 0.71795 0.332 0.88146 0.0
C1135 C 0.71057 0.32462 0.88701 0.0
C1136 C 0.71446 0.33793 0.87203 0.0
C1137 C 0.68947 0.36527 0.82262 0.0
C1138 C 0.70248 0.3805 0.82643 0.0
C1139 C 0.69441 0.37848 0.80798 0.0
C1140 C 0.68845 0.36905 0.81159 0.0
C1141 C 0.7015 0.38435 0.81535 0.0
C1142 C 0.69654 0.37103 0.83002 0.0
C1143 C 0.68319 0.35526 0.82618 0.0
O1144 O 0.67986 0.3234 0.83897 0.0
O1145 O 0.66864 0.33356 0.84889 0.0
O1146 O 0.67752 0.35614 0.83547 0.0
O1147 O 0.68859 0.34587 0.8255 0.0
H1148 H 0.65615 0.33591 0.82994 0.0
H1149 H 0.64037 0.32855 0.81895 0.0
H1150 H 0.64694 0.29553 0.83157 0.0
H1151 H 0.66267 0.30292 0.84247 0.0
H1152 H 0.69367 0.31782 0.88693 0.0
H1153 H 0.6877 0.32806 0.87027 0.0
H1154 H 0.72649 0.33307 0.8843 0.0
H1155 H 0.72031 0.34352 0.86789 0.0
H1156 H 0.70776 0.38487 0.83237 0.0
H1157 H 0.69359 0.38107 0.79935 0.0
H1158 H 0.68308 0.36465 0.80574 0.0
H1159 H 0.69746 0.3682 0.83858 0.0
C1160 C 0.65885 0.68371 0.82166 0.0
C1161 C 0.65101 0.6884 0.82881 0.0
C1162 C 0.64014 0.69489 0.81283 0.0
C1163 C 0.64173 0.69391 0.82444 0.0
C1164 C 0.64817 0.69036 0.80574 0.0
C1165 C 0.65739 0.68481 0.81012 0.0
U1166 U 0.68256 0.67873 0.84281 0.0
O1167 O 0.68857 0.66299 0.84997 0.0
O1168 O 0.69979 0.67353 0.83992 0.0
C1169 C 0.69831 0.66393 0.84508 0.0
C1170 C 0.66848 0.67745 0.82598 0.0
C1171 C 0.70193 0.65408 0.83894 0.0
C1172 C 0.70188 0.64271 0.82228 0.0
C1173 C 0.69814 0.652 0.82806 0.0
C1174 C 0.71309 0.63742 0.83828 0.0
C1175 C 0.70945 0.63533 0.8273 0.0
C1176 C 0.70936 0.64671 0.84402 0.0
C1177 C 0.68681 0.69882 0.86728 0.0
C1178 C 0.69996 0.69598 0.88253 0.0
C1179 C 0.69028 0.71344 0.88078 0.0
C1180 C 0.68478 0.70951 0.87125 0.0
C1181 C 0.69792 0.70672 0.88659 0.0
C1182 C 0.69445 0.69207 0.87295 0.0
C1183 C 0.6809 0.69497 0.85719 0.0
O1184 O 0.67823 0.68255 0.82532 0.0
O1185 O 0.66701 0.67207 0.83546 0.0
O1186 O 0.67538 0.68547 0.85811 0.0
O1187 O 0.68653 0.69591 0.84787 0.0
H1188 H 0.65199 0.6877 0.83777 0.0
H1189 H 0.63569 0.69719 0.83016 0.0
H1190 H 0.64737 0.69114 0.79677 0.0
H1191 H 0.66338 0.68132 0.80446 0.0
H1192 H 0.699 0.64145 0.8138 0.0
H1193 H 0.69238 0.6576 0.824 0.0
H1194 H 0.71876 0.63184 0.84248 0.0
H1195 H 0.71233 0.64816 0.85245 0.0
H1196 H 0.70571 0.69054 0.88683 0.0
H1197 H 0.68865 0.72181 0.88351 0.0
H1198 H 0.67896 0.71487 0.86693 0.0
H1199 H 0.69614 0.68378 0.86998 0.0
C1200 C 0.32655 0.65083 0.8334 0.0
C1201 C 0.33275 0.64105 0.83238 0.0
C1202 C 0.31846 0.63297 0.82021 0.0
C1203 C 0.32874 0.63222 0.82587 0.0
C1204 C 0.31229 0.64274 0.82122 0.0
C1205 C 0.31627 0.65154 0.82778 0.0
U1206 U 0.34656 0.67522 0.84016 0.0
O1207 O 0.34301 0.69185 0.84657 0.0
O1208 O 0.35367 0.68063 0.85626 0.0
C1209 C 0.3484 0.69012 0.85599 0.0
C1210 C 0.33044 0.66016 0.84053 0.0
C1211 C 0.34241 0.69304 0.86621 0.0
C1212 C 0.32556 0.69321 0.87738 0.0
C1213 C 0.33122 0.68984 0.86784 0.0
C1214 C 0.34229 0.70278 0.88386 0.0
C1215 C 0.331 0.69984 0.88547 0.0
C1216 C 0.34792 0.69943 0.87433 0.0
C1217 C 0.37045 0.68229 0.81995 0.0
C1218 C 0.38685 0.69383 0.82391 0.0
C1219 C 0.38145 0.69014 0.80479 0.0
C1220 C 0.3724 0.68369 0.80852 0.0
C1221 C 0.38879 0.6953 0.81243 0.0
C1222 C 0.37773 0.68742 0.82765 0.0
C1223 C 0.36076 0.6755 0.82358 0.0
O1224 O 0.34001 0.65895 0.8458 0.0
O1225 O 0.32921 0.67021 0.83633 0.0
O1226 O 0.3511 0.6805 0.82315 0.0
O1227 O 0.3621 0.66944 0.83265 0.0
H1228 H 0.3407 0.64018 0.83662 0.0
H1229 H 0.33374 0.62484 0.82519 0.0
H1230 H 0.30427 0.64353 0.81709 0.0
H1231 H 0.31124 0.6589 0.82851 0.0
H1232 H 0.31685 0.69088 0.87828 0.0
H1233 H 0.32683 0.68488 0.86167 0.0
H1234 H 0.34681 0.70769 0.88999 0.0
H1235 H 0.35658 0.70193 0.87323 0.0
H1236 H 0.39228 0.69779 0.83 0.0
H1237 H 0.38278 0.69101 0.7959 0.0
H1238 H 0.36689 0.67979 0.80246 0.0
H1239 H 0.37633 0.68652 0.83652 0.0
C1240 C 0.34016 0.36428 0.81842 0.0
C1241 C 0.33416 0.37074 0.82594 0.0
C1242 C 0.32772 0.38258 0.81068 0.0
C1243 C 0.32804 0.37984 0.82211 0.0
C1244 C 0.33371 0.37603 0.8032 0.0
C1245 C 0.33987 0.36698 0.80705 0.0
U1246 U 0.34633 0.34069 0.83916 0.0
O1247 O 0.35112 0.32341 0.83591 0.0
O1248 O 0.36239 0.33447 0.84533 0.0
C1249 C 0.36104 0.32477 0.84048 0.0
C1250 C 0.3467 0.35467 0.82222 0.0
C1251 C 0.3705 0.321 0.83379 0.0
C1252 C 0.38501 0.32441 0.82004 0.0
C1253 C 0.37593 0.32815 0.82618 0.0
C1254 C 0.38322 0.30631 0.82892 0.0
C1255 C 0.38876 0.31344 0.82133 0.0
C1256 C 0.37419 0.31007 0.83509 0.0
C1257 C 0.32771 0.33704 0.86507 0.0
C1258 C 0.32533 0.32039 0.87654 0.0
C1259 C 0.31858 0.33805 0.88304 0.0
C1260 C 0.32247 0.34322 0.87331 0.0
C1261 C 0.31981 0.32654 0.88473 0.0
C1262 C 0.32925 0.3256 0.8668 0.0
C1263 C 0.33111 0.34267 0.85464 0.0
O1264 O 0.35269 0.35611 0.83133 0.0
O1265 O 0.34144 0.345 0.82195 0.0
O1266 O 0.32946 0.33705 0.8454 0.0
O1267 O 0.34075 0.34803 0.85491 0.0
H1268 H 0.33421 0.36873 0.83476 0.0
H1269 H 0.32342 0.38464 0.82806 0.0
H1270 H 0.33375 0.37798 0.79437 0.0
H1271 H 0.34444 0.3621 0.80112 0.0
H1272 H 0.389 0.33007 0.81417 0.0
H1273 H 0.37315 0.33661 0.82501 0.0
H1274 H 0.38596 0.29786 0.83021 0.0
H1275 H 0.37012 0.30444 0.84093 0.0
H1276 H 0.32635 0.3115 0.87752 0.0
H1277 H 0.31459 0.3431 0.88923 0.0
H1278 H 0.32126 0.35207 0.87215 0.0
H1279 H 0.33332 0.32066 0.86055 0.0
H1280 H 0.26918 0.25316 0.96242 0.0
N1281 N 0.26112 0.27136 0.97309 0.0
H1282 H 0.2587 0.24102 0.9498 0.0
H1283 H 0.23914 0.27059 0.97013 0.0
H1284 H 0.22844 0.2582 0.95783 0.0
H1285 H 0.25676 0.29004 0.96217 0.0
H1286 H 0.26868 0.29997 0.94883 0.0
H1287 H 0.28299 0.26684 0.96887 0.0
H1288 H 0.29508 0.27676 0.95556 0.0
H1289 H 0.27246 0.25405 0.98257 0.0
H1290 H 0.25568 0.28452 0.98974 0.0
H1291 H 0.27594 0.25108 1.00248 0.0
H1292 H 0.25944 0.28189 0.00964 0.0
H1293 H 0.27983 0.23804 0.06008 0.0
H1294 H 0.26905 0.22612 0.07286 0.0
H1295 H 0.24509 0.25224 0.0766 0.0
H1296 H 0.25583 0.264 0.06384 0.0
H1297 H 0.26744 0.27959 0.05906 0.0
H1298 H 0.27493 0.29315 0.0724 0.0
H1299 H 0.30332 0.27222 0.07837 0.0
H1300 H 0.29572 0.25869 0.06508 0.0
H1301 H 0.28963 0.2546 0.03805 0.0
H1302 H 0.28647 0.25761 0.01808 0.0
H1303 H 0.25402 0.27088 0.02522 0.0
N1304 N 0.27611 0.25914 0.05475 0.0
H1305 H 0.25746 0.26821 0.04509 0.0
C1306 C 0.25493 0.26286 0.96717 0.0
C1307 C 0.26027 0.25421 0.96161 0.0
C1308 C 0.25423 0.24722 0.95439 0.0
C1309 C 0.24272 0.24871 0.95264 0.0
C1310 C 0.23732 0.25696 0.95875 0.0
C1311 C 0.24338 0.26398 0.96589 0.0
C1312 C 0.26896 0.27775 0.9665 0.0
C1313 C 0.2652 0.28725 0.96091 0.0
C1314 C 0.27204 0.29291 0.95331 0.0
C1315 C 0.28285 0.28916 0.95109 0.0
C1316 C 0.28676 0.2798 0.95697 0.0
C1317 C 0.27989 0.27416 0.96464 0.0
C1318 C 0.26371 0.26949 0.98469 0.0
C1319 C 0.26958 0.26014 0.98843 0.0
C1320 C 0.27163 0.2585 0.99985 0.0
C1321 C 0.26792 0.26621 0.00775 0.0
C1322 C 0.26222 0.27565 1.00389 0.0
C1323 C 0.26014 0.27723 0.99251 0.0
C1324 C 0.26865 0.25186 0.0609 0.0
C1325 C 0.27212 0.24107 0.06348 0.0
C1326 C 0.26601 0.23433 0.07087 0.0
C1327 C 0.25624 0.23826 0.07583 0.0
C1328 C 0.2525 0.24891 0.07285 0.0
C1329 C 0.25866 0.25567 0.0655 0.0
C1330 C 0.28104 0.26809 0.06111 0.0
C1331 C 0.27534 0.27799 0.06312 0.0
C1332 C 0.27961 0.28571 0.07079 0.0
C1333 C 0.28969 0.28373 0.07651 0.0
C1334 C 0.2956 0.27406 0.07405 0.0
C1335 C 0.29128 0.26632 0.06647 0.0
C1336 C 0.27381 0.26111 0.04309 0.0
C1337 C 0.28185 0.25818 0.03526 0.0
C1338 C 0.27998 0.25983 0.02384 0.0
C1339 C 0.26995 0.26446 0.01996 0.0
C1340 C 0.2619 0.26743 0.02786 0.0
C1341 C 0.26382 0.26583 0.03929 0.0
H1342 H 0.77344 0.26357 0.96278 0.0
N1343 N 0.75499 0.2543 0.97277 0.0
H1344 H 0.78621 0.25425 0.95036 0.0
H1345 H 0.75584 0.23259 0.96874 0.0
H1346 H 0.76882 0.22304 0.95651 0.0
H1347 H 0.73769 0.25074 0.95928 0.0
H1348 H 0.72918 0.26387 0.94626 0.0
H1349 H 0.75983 0.2766 0.97132 0.0
H1350 H 0.7512 0.28994 0.9585 0.0
H1351 H 0.77498 0.25947 0.98338 0.0
H1352 H 0.73961 0.25509 0.98856 0.0
H1353 H 0.77776 0.26257 1.00312 0.0
H1354 H 0.74219 0.25904 0.00832 0.0
H1355 H 0.78601 0.27166 0.06659 0.0
H1356 H 0.79482 0.25883 0.07973 0.0
H1357 H 0.77139 0.23297 0.06983 0.0
H1358 H 0.76248 0.24593 0.05704 0.0
H1359 H 0.74887 0.2595 0.06443 0.0
H1360 H 0.73693 0.26908 0.07757 0.0
H1361 H 0.75614 0.29938 0.07239 0.0
H1362 H 0.76799 0.28972 0.0592 0.0
H1363 H 0.77915 0.27698 0.03778 0.0
H1364 H 0.776 0.27445 0.01784 0.0
H1365 H 0.74828 0.25211 0.02515 0.0
N1366 N 0.76766 0.26818 0.05456 0.0
H1367 H 0.75099 0.25547 0.04496 0.0
C1368 C 0.76363 0.24875 0.96669 0.0
C1369 C 0.77244 0.2547 0.96157 0.0
C1370 C 0.77979 0.24933 0.9545 0.0
C1371 C 0.77852 0.23788 0.95236 0.0
C1372 C 0.76995 0.23189 0.95783 0.0
C1373 C 0.76259 0.23729 0.96491 0.0
C1374 C 0.74933 0.26267 0.96627 0.0
C1375 C 0.74053 0.25933 0.95926 0.0
C1376 C 0.73567 0.26688 0.95185 0.0
C1377 C 0.7395 0.27799 0.9513 0.0
C1378 C 0.74813 0.28142 0.9586 0.0
C1379 C 0.75302 0.27383 0.966 0.0
C1380 C 0.75703 0.25686 0.98439 0.0
C1381 C 0.76775 0.25926 0.9887 0.0
C1382 C 0.76933 0.26118 1.0001 0.0
C1383 C 0.76022 0.26104 0.00749 0.0
C1384 C 0.74948 0.25896 1.00306 0.0
C1385 C 0.74795 0.25681 0.9917 0.0
C1386 C 0.77363 0.25982 0.06077 0.0
C1387 C 0.78294 0.26315 0.06711 0.0
C1388 C 0.78797 0.25578 0.07461 0.0
C1389 C 0.78378 0.24485 0.07592 0.0
C1390 C 0.77473 0.24137 0.06918 0.0
C1391 C 0.76967 0.24878 0.06173 0.0
C1392 C 0.75935 0.27393 0.06082 0.0
C1393 C 0.75036 0.26826 0.06592 0.0
C1394 C 0.7436 0.27372 0.07352 0.0
C1395 C 0.74563 0.28497 0.07611 0.0
C1396 C 0.75426 0.29075 0.07053 0.0
C1397 C 0.76105 0.28526 0.06299 0.0
C1398 C 0.76547 0.2663 0.04288 0.0
C1399 C 0.77238 0.27157 0.03503 0.0
C1400 C 0.77061 0.27001 0.0236 0.0
C1401 C 0.76193 0.26296 0.01973 0.0
C1402 C 0.75496 0.25772 0.02769 0.0
C1403 C 0.75661 0.25948 0.03912 0.0
H1404 H 0.74939 0.78585 0.96014 0.0
N1405 N 0.75408 0.76787 0.97208 0.0
H1406 H 0.76162 0.79606 0.9473 0.0
H1407 H 0.77645 0.76448 0.96941 0.0
H1408 H 0.78886 0.77474 0.95669 0.0
H1409 H 0.76361 0.75019 0.96172 0.0
H1410 H 0.75424 0.73724 0.94903 0.0
H1411 H 0.73229 0.76587 0.96822 0.0
H1412 H 0.72282 0.753 0.95541 0.0
H1413 H 0.74881 0.78117 0.98869 0.0
H1414 H 0.76516 0.7504 0.98174 0.0
H1415 H 0.75259 0.77864 0.00859 0.0
H1416 H 0.76856 0.7475 1.00162 0.0
H1417 H 0.76319 0.77717 0.05678 0.0
H1418 H 0.7718 0.79007 0.07016 0.0
H1419 H 0.79637 0.76544 0.07854 0.0
H1420 H 0.78761 0.75258 0.06528 0.0
H1421 H 0.7701 0.73405 0.05928 0.0
H1422 H 0.75862 0.72382 0.07279 0.0
H1423 H 0.73786 0.75262 0.07634 0.0
H1424 H 0.74969 0.76287 0.06327 0.0
H1425 H 0.75062 0.76533 0.04419 0.0
H1426 H 0.7472 0.76808 0.02435 0.0
H1427 H 0.77914 0.75369 0.01711 0.0
N1428 N 0.7689 0.75543 0.0538 0.0
H1429 H 0.78223 0.75053 0.03705 0.0
C1430 C 0.76198 0.77446 0.96574 0.0
C1431 C 0.75805 0.78352 0.95955 0.0
C1432 C 0.76508 0.78935 0.95224 0.0
C1433 C 0.77625 0.78622 0.95093 0.0
C1434 C 0.78028 0.77729 0.95739 0.0
C1435 C 0.77322 0.77147 0.96474 0.0
C1436 C 0.74862 0.75904 0.96595 0.0
C1437 C 0.75468 0.75073 0.96059 0.0
C1438 C 0.74932 0.74338 0.95324 0.0
C1439 C 0.73779 0.74414 0.95112 0.0
C1440 C 0.73168 0.7521 0.95692 0.0
C1441 C 0.73706 0.75947 0.96423 0.0
C1442 C 0.75659 0.76598 0.98372 0.0
C1443 C 0.75316 0.77382 0.9915 0.0
C1444 C 0.75525 0.7723 1.00289 0.0
C1445 C 0.76082 0.76281 0.00681 0.0
C1446 C 0.76436 0.75498 0.99895 0.0
C1447 C 0.76233 0.75657 0.98753 0.0
C1448 C 0.77479 0.76389 0.06005 0.0
C1449 C 0.77055 0.77464 0.06134 0.0
C1450 C 0.7755 0.78201 0.06898 0.0
C1451 C 0.78469 0.77872 0.07552 0.0
C1452 C 0.78919 0.76816 0.07378 0.0
C1453 C 0.78428 0.76085 0.06614 0.0
C1454 C 0.76074 0.74915 0.06014 0.0
C1455 C 0.76291 0.73804 0.0628 0.0
C1456 C 0.75631 0.73221 0.07053 0.0
C1457 C 0.74732 0.7374 0.07576 0.0
C1458 C 0.74482 0.7484 0.07265 0.0
C1459 C 0.75149 0.75424 0.06499 0.0
C1460 C 0.76668 0.75759 0.04215 0.0
C1461 C 0.75687 0.7627 0.03838 0.0
C1462 C 0.75497 0.76437 0.02696 0.0
C1463 C 0.76287 0.76109 0.01902 0.0
C1464 C 0.77274 0.75614 0.02289 0.0
C1465 C 0.77459 0.7544 0.0343 0.0
H1466 H 0.28219 0.75381 0.96378 0.0
N1467 N 0.26352 0.74364 0.97245 0.0
H1468 H 0.295 0.74581 0.95044 0.0
H1469 H 0.26443 0.72244 0.96631 0.0
H1470 H 0.27716 0.71436 0.9528 0.0
H1471 H 0.24626 0.73977 0.95897 0.0
H1472 H 0.23755 0.75275 0.94593 0.0
H1473 H 0.26769 0.76607 0.97128 0.0
H1474 H 0.25887 0.77925 0.95844 0.0
H1475 H 0.28377 0.74643 0.98366 0.0
H1476 H 0.24804 0.7466 0.98789 0.0
H1477 H 0.28639 0.74993 1.00331 0.0
H1478 H 0.25063 0.75078 0.0076 0.0
H1479 H 0.29399 0.76263 0.06632 0.0
H1480 H 0.30198 0.74994 0.08012 0.0
H1481 H 0.27772 0.72467 0.07065 0.0
H1482 H 0.26962 0.73753 0.05718 0.0
H1483 H 0.25682 0.75215 0.06451 0.0
H1484 H 0.24559 0.76297 0.07725 0.0
H1485 H 0.26535 0.79233 0.06925 0.0
H1486 H 0.27681 0.78128 0.05687 0.0
H1487 H 0.28836 0.76635 0.03713 0.0
H1488 H 0.28543 0.76308 0.01726 0.0
H1489 H 0.25575 0.74357 0.02489 0.0
N1490 N 0.27581 0.75943 0.05398 0.0
H1491 H 0.25842 0.74757 0.04464 0.0
C1492 C 0.27233 0.73869 0.96608 0.0
C1493 C 0.28114 0.74514 0.96159 0.0
C1494 C 0.28842 0.74057 0.95388 0.0
C1495 C 0.28704 0.72947 0.95043 0.0
C1496 C 0.27854 0.7229 0.95533 0.0
C1497 C 0.27126 0.72749 0.96305 0.0
C1498 C 0.25757 0.75193 0.96609 0.0
C1499 C 0.24889 0.74842 0.95901 0.0
C1500 C 0.24391 0.75588 0.95159 0.0
C1501 C 0.24753 0.76707 0.95108 0.0
C1502 C 0.25599 0.77067 0.95849 0.0
C1503 C 0.26098 0.76317 0.96591 0.0
C1504 C 0.26561 0.74626 0.98409 0.0
C1505 C 0.27643 0.74736 0.98869 0.0
C1506 C 0.27794 0.74946 1.00007 0.0
C1507 C 0.26874 0.75069 0.00717 0.0
C1508 C 0.25796 0.7497 1.00253 0.0
C1509 C 0.25645 0.74743 0.99119 0.0
C1510 C 0.28127 0.75107 0.06067 0.0
C1511 C 0.29056 0.75427 0.0671 0.0
C1512 C 0.29512 0.74698 0.07496 0.0
C1513 C 0.29047 0.73627 0.07657 0.0
C1514 C 0.28141 0.73291 0.06978 0.0
C1515 C 0.27683 0.74025 0.06194 0.0
C1516 C 0.26774 0.76592 0.05981 0.0
C1517 C 0.25861 0.76095 0.06535 0.0
C1518 C 0.25216 0.76718 0.07263 0.0
C1519 C 0.25466 0.77851 0.07445 0.0
C1520 C 0.26334 0.78357 0.06829 0.0
C1521 C 0.26982 0.77732 0.0611 0.0
C1522 C 0.27373 0.75712 0.04237 0.0
C1523 C 0.28122 0.76139 0.03446 0.0
C1524 C 0.27956 0.75941 0.0231 0.0
C1525 C 0.27039 0.75295 0.01935 0.0
C1526 C 0.26284 0.7487 0.02736 0.0
C1527 C 0.26443 0.75084 0.03873 0.0
H1528 H 0.96988 0.24679 0.28752 0.0
N1529 N 0.97565 0.24895 0.26628 0.0
H1530 H 0.9576 0.25877 0.29809 0.0
H1531 H 0.96805 0.26936 0.25952 0.0
H1532 H 0.95631 0.28161 0.27012 0.0
H1533 H 0.97007 0.25617 0.24533 0.0
H1534 H 0.95585 0.24782 0.23316 0.0
H1535 H 0.96572 0.22925 0.26885 0.0
H1536 H 0.95195 0.22045 0.2565 0.0
H1537 H 0.99167 0.2349 0.27165 0.0
H1538 H 0.98607 0.2663 0.25521 0.0
H1539 H 0.01162 0.23668 0.26781 0.0
H1540 H 0.00597 0.26853 0.25192 0.0
H1541 H 0.06788 0.24828 0.26916 0.0
H1542 H 0.08076 0.256 0.28299 0.0
H1543 H 0.07562 0.28892 0.26941 0.0
H1544 H 0.06254 0.28109 0.25565 0.0
H1545 H 0.06992 0.26543 0.23464 0.0
H1546 H 0.0825 0.25372 0.22415 0.0
H1547 H 0.07178 0.22519 0.2437 0.0
H1548 H 0.05928 0.23708 0.25423 0.0
H1549 H 0.04793 0.24844 0.2697 0.0
H1550 H 0.02803 0.24598 0.27293 0.0
H1551 H 0.02105 0.26253 0.24157 0.0
N1552 N 0.05772 0.25972 0.25216 0.0
H1553 H 0.04105 0.26552 0.23877 0.0
C1554 C 0.97004 0.25717 0.27279 0.0
C1555 C 0.96712 0.25451 0.28379 0.0
C1556 C 0.9601 0.2614 0.28982 0.0
C1557 C 0.95586 0.27117 0.28496 0.0
C1558 C 0.95923 0.27407 0.27409 0.0
C1559 C 0.96615 0.26712 0.26804 0.0
C1560 C 0.96881 0.24337 0.25808 0.0
C1561 C 0.96619 0.24835 0.24778 0.0
C1562 C 0.9581 0.2435 0.24078 0.0
C1563 C 0.95258 0.23352 0.2439 0.0
C1564 C 0.95577 0.22827 0.25393 0.0
C1565 C 0.96374 0.2332 0.26095 0.0
C1566 C 0.98736 0.25049 0.26389 0.0
C1567 C 0.99478 0.24225 0.26732 0.0
C1568 C 0.00621 0.24334 0.26518 0.0
C1569 C 0.01053 0.2528 0.25961 0.0
C1570 C 1.00301 0.26104 0.2561 0.0
C1571 C 0.99155 0.25986 0.25811 0.0
C1572 C 0.06421 0.26414 0.26134 0.0
C1573 C 0.06934 0.25717 0.26925 0.0
C1574 C 0.07681 0.2616 0.27712 0.0
C1575 C 0.07932 0.27306 0.27724 0.0
C1576 C 0.07381 0.28006 0.26961 0.0
C1577 C 0.06635 0.27562 0.26174 0.0
C1578 C 0.06367 0.25216 0.24517 0.0
C1579 C 0.07013 0.2566 0.23648 0.0
C1580 C 0.0773 0.24987 0.2305 0.0
C1581 C 0.0782 0.23849 0.2331 0.0
C1582 C 0.0714 0.23394 0.24158 0.0
C1583 C 0.06418 0.24071 0.24755 0.0
C1584 C 0.04602 0.25736 0.25403 0.0
C1585 C 0.04216 0.25159 0.26353 0.0
C1586 C 0.03069 0.25009 0.26532 0.0
C1587 C 0.0228 0.25412 0.25756 0.0
C1588 C 0.02677 0.25954 0.24789 0.0
C1589 C 0.03822 0.26117 0.2462 0.0
H1590 H 0.78303 0.0596 0.27371 0.0
N1591 N 0.76277 0.05127 0.26971 0.0
H1592 H 0.7937 0.07273 0.26213 0.0
H1593 H 0.75738 0.05782 0.24843 0.0
H1594 H 0.76809 0.07059 0.23666 0.0
H1595 H 0.74302 0.05939 0.26188 0.0
H1596 H 0.73102 0.07242 0.27156 0.0
H1597 H 0.76421 0.05723 0.29091 0.0
H1598 H 0.75226 0.07018 0.3007 0.0
H1599 H 0.7717 0.03455 0.28101 0.0
H1600 H 0.74904 0.04168 0.25401 0.0
H1601 H 0.76888 0.01463 0.27805 0.0
H1602 H 0.74676 0.02189 0.25037 0.0
H1603 H 0.76961 0.96007 0.26554 0.0
H1604 H 0.78302 0.94751 0.25742 0.0
H1605 H 0.76767 0.9522 0.22507 0.0
H1606 H 0.75435 0.96496 0.2333 0.0
H1607 H 0.73413 0.95712 0.24971 0.0
H1608 H 0.72386 0.94427 0.26192 0.0
H1609 H 0.74464 0.95453 0.28969 0.0
H1610 H 0.75491 0.96735 0.27732 0.0
H1611 H 0.77067 0.98011 0.26337 0.0
H1612 H 0.77308 0.99988 0.26673 0.0
H1613 H 0.73896 1.0052 0.25625 0.0
N1614 N 0.75187 0.96958 0.25478 0.0
H1615 H 0.73691 0.98542 0.25219 0.0
C1616 C 0.76947 0.05764 0.26196 0.0
C1617 C 0.77985 0.06183 0.26553 0.0
C1618 C 0.78594 0.06932 0.25888 0.0
C1619 C 0.78175 0.07279 0.24845 0.0
C1620 C 0.7715 0.06825 0.24471 0.0
C1621 C 0.7654 0.06079 0.2514 0.0
C1622 C 0.75455 0.05738 0.2757 0.0
C1623 C 0.74499 0.06156 0.27039 0.0
C1624 C 0.73816 0.06906 0.27593 0.0
C1625 C 0.74072 0.0724 0.28688 0.0
C1626 C 0.74998 0.06771 0.29232 0.0
C1627 C 0.75682 0.06032 0.28675 0.0
C1628 C 0.76075 0.03962 0.26766 0.0
C1629 C 0.76621 0.03179 0.27435 0.0
C1630 C 0.76466 0.02038 0.27255 0.0
C1631 C 0.75767 0.01651 0.26387 0.0
C1632 C 0.75211 0.02445 0.25722 0.0
C1633 C 0.75353 0.03586 0.25918 0.0
C1634 C 0.76095 0.96351 0.24999 0.0
C1635 C 0.76924 0.95859 0.25667 0.0
C1636 C 0.77686 0.9513 0.25202 0.0
C1637 C 0.77636 0.94873 0.2406 0.0
C1638 C 0.76837 0.95405 0.23387 0.0
C1639 C 0.76075 0.96135 0.23854 0.0
C1640 C 0.74524 0.96316 0.26258 0.0
C1641 C 0.73632 0.95672 0.25847 0.0
C1642 C 0.73046 0.94941 0.26548 0.0
C1643 C 0.73343 0.94835 0.2768 0.0
C1644 C 0.74222 0.95506 0.281 0.0
C1645 C 0.74806 0.96243 0.27396 0.0
C1646 C 0.75361 0.98122 0.25732 0.0
C1647 C 0.76372 0.98548 0.26168 0.0
C1648 C 0.76505 0.99688 0.26374 0.0
C1649 C 0.75624 1.00429 0.26174 0.0
C1650 C 0.74606 0.9999 0.25765 0.0
C1651 C 0.74481 0.98855 0.25541 0.0
H1652 H 0.06923 0.7751 0.2842 0.0
N1653 N 0.05678 0.7716 0.26616 0.0
H1654 H 0.08138 0.76186 0.29368 0.0
H1655 H 0.05725 0.7492 0.26239 0.0
H1656 H 0.06907 0.73581 0.27199 0.0
H1657 H 0.06173 0.7614 0.24664 0.0
H1658 H 0.07502 0.76826 0.23264 0.0
H1659 H 0.06602 0.79179 0.26501 0.0
H1660 H 0.07928 0.79877 0.25107 0.0
H1661 H 0.0441 0.78567 0.27696 0.0
H1662 H 0.04243 0.75826 0.25415 0.0
H1663 H 0.02381 0.7868 0.27669 0.0
H1664 H 0.02205 0.75876 0.25435 0.0
H1665 H 0.95927 0.78001 0.28357 0.0
H1666 H 0.94658 0.76654 0.29239 0.0
H1667 H 0.96005 0.74051 0.27207 0.0
H1668 H 0.97258 0.7542 0.26315 0.0
H1669 H 0.96555 0.76646 0.24791 0.0
H1670 H 0.95278 0.77441 0.23415 0.0
H1671 H 0.95421 0.80573 0.25155 0.0
H1672 H 0.96715 0.79771 0.26517 0.0
H1673 H 0.98757 0.78013 0.28335 0.0
H1674 H 0.00776 0.77819 0.28321 0.0
H1675 H 0.00599 0.76822 0.24868 0.0
N1676 N 0.97316 0.77658 0.2669 0.0
H1677 H 0.98571 0.76953 0.24918 0.0
C1678 C 0.06229 0.76317 0.27265 0.0
C1679 C 0.069 0.76647 0.28168 0.0
C1680 C 0.07593 0.75887 0.28709 0.0
C1681 C 0.07629 0.74774 0.28357 0.0
C1682 C 0.06916 0.74434 0.27481 0.0
C1683 C 0.06226 0.75198 0.26938 0.0
C1684 C 0.06294 0.77611 0.25687 0.0
C1685 C 0.06537 0.76963 0.24754 0.0
C1686 C 0.07302 0.77354 0.23959 0.0
C1687 C 0.07827 0.78403 0.24079 0.0
C1688 C 0.07532 0.79071 0.24983 0.0
C1689 C 0.06776 0.78675 0.2578 0.0
C1690 C 0.04477 0.77179 0.26577 0.0
C1691 C 0.0393 0.77979 0.27202 0.0
C1692 C 0.02766 0.78033 0.27191 0.0
C1693 C 0.02115 0.77275 0.26564 0.0
C1694 C 0.02671 0.76478 0.25924 0.0
C1695 C 0.03841 0.76437 0.25923 0.0
C1696 C 0.96685 0.76811 0.27276 0.0
C1697 C 0.95958 0.77136 0.28117 0.0
C1698 C 0.95237 0.76362 0.28622 0.0
C1699 C 0.95227 0.75241 0.28294 0.0
C1700 C 0.95981 0.7491 0.2747 0.0
C1701 C 0.96704 0.75688 0.26964 0.0
C1702 C 0.96734 0.78153 0.25757 0.0
C1703 C 0.96334 0.77511 0.24861 0.0
C1704 C 0.95593 0.77964 0.24081 0.0
C1705 C 0.95235 0.79068 0.24181 0.0
C1706 C 0.95685 0.79724 0.25045 0.0
C1707 C 0.96425 0.79269 0.25825 0.0
C1708 C 0.98509 0.77516 0.26629 0.0
C1709 C 0.99156 0.77749 0.27577 0.0
C1710 C 1.00315 0.77646 0.27562 0.0
C1711 C 0.00866 0.77323 0.26586 0.0
C1712 C 1.00211 0.77067 0.25638 0.0
C1713 C 0.99045 0.77153 0.25661 0.0
H1714 H 0.29708 0.95442 0.24529 0.0
N1715 N 0.27946 0.96646 0.25004 0.0
H1716 H 0.30727 0.94197 0.25776 0.0
H1717 H 0.27654 0.96459 0.27253 0.0
H1718 H 0.28673 0.95213 0.28521 0.0
H1719 H 0.26099 0.95833 0.26078 0.0
H1720 H 0.24721 0.94517 0.25322 0.0
H1721 H 0.27728 0.96018 0.22892 0.0
H1722 H 0.2636 0.94689 0.22128 0.0
H1723 H 0.29588 0.98124 0.24718 0.0
H1724 H 0.26123 0.97858 0.25635 0.0
H1725 H 0.29515 1.00141 0.24854 0.0
H1726 H 0.26017 0.99879 0.25698 0.0
H1727 H 0.29403 0.06291 0.24854 0.0
H1728 H 0.30267 0.07589 0.26174 0.0
H1729 H 0.28041 0.06371 0.28744 0.0
H1730 H 0.27165 0.05106 0.2741 0.0
H1731 H 0.25625 0.05461 0.2612 0.0
H1732 H 0.24218 0.06705 0.25336 0.0
H1733 H 0.26158 0.07045 0.22327 0.0
H1734 H 0.27558 0.05803 0.23123 0.0
H1735 H 0.2882 0.0369 0.23898 0.0
H1736 H 0.28864 0.01664 0.2389 0.0
H1737 H 0.2648 0.01554 0.26581 0.0
N1738 N 0.27627 0.04986 0.25183 0.0
H1739 H 0.2639 0.03583 0.26521 0.0
C1740 C 0.2861 0.96038 0.25798 0.0
C1741 C 0.29494 0.95409 0.25404 0.0
C1742 C 0.30075 0.94701 0.2612 0.0
C1743 C 0.29781 0.94603 0.2725 0.0
C1744 C 0.28912 0.9526 0.27653 0.0
C1745 C 0.28333 0.95976 0.26933 0.0
C1746 C 0.27017 0.96026 0.24537 0.0
C1747 C 0.26149 0.95606 0.2521 0.0
C1748 C 0.25366 0.94845 0.24778 0.0
C1749 C 0.25436 0.94487 0.23667 0.0
C1750 C 0.26274 0.94952 0.22983 0.0
C1751 C 0.27056 0.95712 0.23417 0.0
C1752 C 0.27864 0.97834 0.25151 0.0
C1753 C 0.28809 0.98503 0.24944 0.0
C1754 C 0.28759 0.9966 0.2501 0.0
C1755 C 0.27753 1.00187 0.25265 0.0
C1756 C 0.2681 0.99512 0.25505 0.0
C1757 C 0.26867 0.98347 0.25459 0.0
C1758 C 0.28226 0.05598 0.2603 0.0
C1759 C 0.2912 0.06291 0.2571 0.0
C1760 C 0.29613 0.07031 0.26467 0.0
C1761 C 0.29221 0.07092 0.27567 0.0
C1762 C 0.28353 0.0636 0.279 0.0
C1763 C 0.27858 0.05624 0.27139 0.0
C1764 C 0.26697 0.05543 0.24677 0.0
C1765 C 0.25735 0.05785 0.25285 0.0
C1766 C 0.24936 0.06503 0.24838 0.0
C1767 C 0.25081 0.06982 0.23772 0.0
C1768 C 0.26015 0.06684 0.23145 0.0
C1769 C 0.26815 0.05975 0.23596 0.0
C1770 C 0.2762 0.03788 0.25219 0.0
C1771 C 0.28307 0.03225 0.24484 0.0
C1772 C 0.28337 0.02064 0.24491 0.0
C1773 C 0.2769 0.01432 0.2525 0.0
C1774 C 0.26987 0.02004 0.25981 0.0
C1775 C 0.26945 0.0317 0.25959 0.0
H1776 H 0.06549 0.74722 0.76622 0.0
N1777 N 0.05604 0.76621 0.75791 0.0
H1778 H 0.07745 0.73465 0.75606 0.0
H1779 H 0.05951 0.76594 0.73605 0.0
H1780 H 0.0716 0.75344 0.7258 0.0
H1781 H 0.06999 0.78325 0.75469 0.0
H1782 H 0.08377 0.79085 0.76778 0.0
H1783 H 0.05785 0.76065 0.78004 0.0
H1784 H 0.07142 0.76837 0.79333 0.0
H1785 H 0.04542 0.74765 0.76665 0.0
H1786 H 0.04024 0.78119 0.75509 0.0
H1787 H 0.02554 0.74545 0.77026 0.0
H1788 H 0.02035 0.77929 0.7592 0.0
H1789 H 0.96857 0.73414 0.77185 0.0
H1790 H 0.95493 0.72562 0.75906 0.0
H1791 H 0.95099 0.75734 0.74245 0.0
H1792 H 0.96445 0.76575 0.75526 0.0
H1793 H 0.96982 0.77763 0.76988 0.0
H1794 H 0.95638 0.78851 0.78027 0.0
H1795 H 0.95213 0.76115 0.80355 0.0
H1796 H 0.96504 0.75017 0.79268 0.0
H1797 H 0.99106 0.74778 0.78527 0.0
H1798 H 0.01104 0.75056 0.78209 0.0
H1799 H 1.00355 0.77091 0.75319 0.0
N1800 N 0.97419 0.75557 0.77331 0.0
H1801 H 0.98367 0.7685 0.75683 0.0
C1802 C 0.06157 0.75757 0.75187 0.0
C1803 C 0.06656 0.74852 0.75736 0.0
C1804 C 0.0735 0.74137 0.75155 0.0
C1805 C 0.07559 0.7431 0.74014 0.0
C1806 C 0.07012 0.75181 0.73456 0.0
C1807 C 0.0632 0.75897 0.74039 0.0
C1808 C 0.06288 0.77145 0.76637 0.0
C1809 C 0.07015 0.78013 0.76318 0.0
C1810 C 0.078 0.78447 0.7707 0.0
C1811 C 0.07875 0.78022 0.78164 0.0
C1812 C 0.07118 0.77175 0.78494 0.0
C1813 C 0.06333 0.76739 0.77738 0.0
C1814 C 0.04434 0.76458 0.76042 0.0
C1815 C 0.04003 0.75458 0.76491 0.0
C1816 C 0.0286 0.75337 0.76709 0.0
C1817 C 0.02123 0.76218 0.76502 0.0
C1818 C 0.02566 0.77223 0.76071 0.0
C1819 C 0.03705 0.77338 0.75842 0.0
C1820 C 0.96758 0.75055 0.76455 0.0
C1821 C 0.96493 0.73917 0.76528 0.0
C1822 C 0.95714 0.73433 0.75797 0.0
C1823 C 0.95179 0.74083 0.7498 0.0
C1824 C 0.95484 0.75214 0.74876 0.0
C1825 C 0.96265 0.75695 0.75604 0.0
C1826 C 0.96827 0.763 0.78043 0.0
C1827 C 0.96605 0.77403 0.77727 0.0
C1828 C 0.9584 0.78027 0.78329 0.0
C1829 C 0.95295 0.77565 0.79265 0.0
C1830 C 0.95588 0.76489 0.79621 0.0
C1831 C 0.96338 0.75864 0.79011 0.0
C1832 C 0.98586 0.75782 0.77127 0.0
C1833 C 0.99377 0.7529 0.7783 0.0
C1834 C 1.0052 0.75442 0.77639 0.0
C1835 C 0.00901 0.76088 0.76729 0.0
C1836 C 1.001 0.76597 0.76034 0.0
C1837 C 0.98956 0.76453 0.76236 0.0
H1838 H 0.27946 0.05393 0.77131 0.0
N1839 N 0.25792 0.04875 0.76541 0.0
H1840 H 0.29168 0.06748 0.76195 0.0
H1841 H 0.25458 0.05821 0.74567 0.0
H1842 H 0.26694 0.0713 0.73585 0.0
H1843 H 0.23665 0.05453 0.76434 0.0
H1844 H 0.22696 0.06737 0.77661 0.0
H1845 H 0.26605 0.05727 0.78507 0.0
H1846 H 0.25648 0.06995 0.79732 0.0
H1847 H 0.26936 0.03887 0.7827 0.0
H1848 H 0.25176 0.03233 0.75198 0.0
H1849 H 0.27258 0.01909 0.78521 0.0
H1850 H 0.25546 0.01249 0.75405 0.0
H1851 H 0.29115 0.95626 0.78067 0.0
H1852 H 0.30133 0.94426 0.7681 0.0
H1853 H 0.27894 0.9532 0.74122 0.0
H1854 H 0.26877 0.96519 0.75396 0.0
H1855 H 0.25494 0.95663 0.76624 0.0
H1856 H 0.24242 0.94295 0.7748 0.0
H1857 H 0.25835 0.94865 0.80671 0.0
H1858 H 0.2711 0.96221 0.79794 0.0
H1859 H 0.28599 0.98424 0.78169 0.0
H1860 H 0.28281 1.00408 0.77885 0.0
H1861 H 0.25071 0.99628 0.76391 0.0
N1862 N 0.27263 0.96727 0.77638 0.0
H1863 H 0.25429 0.97652 0.76625 0.0
C1864 C 0.26603 0.05521 0.75924 0.0
C1865 C 0.27671 0.05766 0.76356 0.0
C1866 C 0.28373 0.06536 0.75812 0.0
C1867 C 0.28025 0.07066 0.7482 0.0
C1868 C 0.2698 0.06764 0.74361 0.0
C1869 C 0.26277 0.06006 0.74912 0.0
C1870 C 0.25201 0.05478 0.77381 0.0
C1871 C 0.24092 0.05767 0.77168 0.0
C1872 C 0.23545 0.06508 0.77863 0.0
C1873 C 0.24097 0.06972 0.78792 0.0
C1874 C 0.25194 0.06643 0.79032 0.0
C1875 C 0.25743 0.0591 0.7833 0.0
C1876 C 0.26014 0.03711 0.7672 0.0
C1877 C 0.26618 0.0332 0.77647 0.0
C1878 C 0.26814 0.02181 0.77782 0.0
C1879 C 0.26428 0.01407 0.76985 0.0
C1880 C 0.25838 0.01809 0.7605 0.0
C1881 C 0.25631 0.02945 0.75925 0.0
C1882 C 0.27924 0.9616 0.76828 0.0
C1883 C 0.2886 0.95579 0.77201 0.0
C1884 C 0.2944 0.94895 0.76479 0.0
C1885 C 0.29093 0.94773 0.75364 0.0
C1886 C 0.28174 0.95386 0.74979 0.0
C1887 C 0.27597 0.96077 0.75704 0.0
C1888 C 0.26399 0.96047 0.78148 0.0
C1889 C 0.25564 0.95512 0.77511 0.0
C1890 C 0.24843 0.94728 0.78004 0.0
C1891 C 0.24941 0.94461 0.79145 0.0
C1892 C 0.25747 0.95035 0.79788 0.0
C1893 C 0.26468 0.95819 0.79292 0.0
C1894 C 0.27038 0.97887 0.77432 0.0
C1895 C 0.2783 0.98685 0.77776 0.0
C1896 C 0.2764 0.99821 0.77621 0.0
C1897 C 0.26643 1.0019 0.77125 0.0
C1898 C 0.25854 0.99383 0.76766 0.0
C1899 C 0.26053 0.98245 0.76909 0.0
H1900 H 0.96611 0.23285 0.75874 0.0
N1901 N 0.97411 0.25337 0.76134 0.0
H1902 H 0.95297 0.22278 0.7708 0.0
H1903 H 0.96751 0.25987 0.78206 0.0
H1904 H 0.95474 0.24978 0.79436 0.0
H1905 H 0.96683 0.27375 0.76772 0.0
H1906 H 0.95316 0.28505 0.75771 0.0
H1907 H 0.96707 0.25061 0.74054 0.0
H1908 H 0.95376 0.26204 0.73024 0.0
H1909 H 0.99036 0.24431 0.74982 0.0
H1910 H 0.98441 0.26701 0.77659 0.0
H1911 H 0.01048 0.24692 0.75232 0.0
H1912 H 1.00444 0.26915 0.77972 0.0
H1913 H 0.06534 0.24494 0.76415 0.0
H1914 H 0.07799 0.23171 0.77277 0.0
H1915 H 0.07507 0.24869 0.80418 0.0
H1916 H 0.06217 0.26182 0.79547 0.0
H1917 H 0.07111 0.28009 0.77714 0.0
H1918 H 0.08408 0.28828 0.76365 0.0
H1919 H 0.06957 0.26759 0.73787 0.0
H1920 H 0.05681 0.25926 0.75155 0.0
H1921 H 0.04548 0.24462 0.76646 0.0
H1922 H 0.0255 0.24248 0.76368 0.0
H1923 H 0.02111 0.27676 0.77311 0.0
N1924 N 0.05673 0.26339 0.77397 0.0
H1925 H 0.04117 0.27859 0.77653 0.0
C1926 C 0.96787 0.24704 0.7695 0.0
C1927 C 0.96381 0.23646 0.76662 0.0
C1928 C 0.95632 0.23072 0.77356 0.0
C1929 C 0.95272 0.23548 0.78357 0.0
C1930 C 0.95718 0.24593 0.78664 0.0
C1931 C 0.96463 0.25168 0.77966 0.0
C1932 C 0.96787 0.26128 0.75488 0.0
C1933 C 0.96414 0.27124 0.75948 0.0
C1934 C 0.95634 0.27772 0.75371 0.0
C1935 C 0.95219 0.27436 0.74323 0.0
C1936 C 0.95655 0.26475 0.73839 0.0
C1937 C 0.96426 0.25827 0.74419 0.0
C1938 C 0.98589 0.25532 0.76308 0.0
C1939 C 0.99344 0.24978 0.75632 0.0
C1940 C 1.00495 0.25122 0.75786 0.0
C1941 C 0.00921 0.25817 0.76633 0.0
C1942 C 1.00156 0.26382 0.77303 0.0
C1943 C 0.99002 0.2625 0.77136 0.0
C1944 C 0.06274 0.2544 0.7792 0.0
C1945 C 0.0672 0.24569 0.77294 0.0
C1946 C 0.07455 0.23818 0.77787 0.0
C1947 C 0.07767 0.23921 0.78914 0.0
C1948 C 0.07279 0.24759 0.79551 0.0
C1949 C 0.06542 0.2551 0.79056 0.0
C1950 C 0.06299 0.26912 0.76538 0.0
C1951 C 0.0706 0.2775 0.76852 0.0
C1952 C 0.07799 0.28218 0.76078 0.0
C1953 C 0.07792 0.27858 0.74965 0.0
C1954 C 0.06997 0.27045 0.7464 0.0
C1955 C 0.06259 0.26575 0.75418 0.0
C1956 C 0.0449 0.26178 0.7719 0.0
C1957 C 0.04028 0.25167 0.76804 0.0
C1958 C 0.02875 0.25049 0.76632 0.0
C1959 C 0.02155 0.25944 0.76817 0.0
C1960 C 0.02627 0.26959 0.77181 0.0
C1961 C 0.03777 0.2707 0.77369 0.0
H1962 H 0.77592 0.95973 0.76039 0.0
N1963 N 0.75824 0.96986 0.7702 0.0
H1964 H 0.78877 0.94696 0.76942 0.0
H1965 H 0.76041 0.96598 0.79195 0.0
H1966 H 0.77352 0.95344 0.8012 0.0
H1967 H 0.74035 0.95755 0.77497 0.0
H1968 H 0.73028 0.94462 0.76276 0.0
H1969 H 0.76163 0.96756 0.7478 0.0
H1970 H 0.75152 0.95473 0.73539 0.0
H1971 H 0.77612 0.97992 0.75973 0.0
H1972 H 0.74442 0.98613 0.77496 0.0
H1973 H 0.77901 0.99983 0.75666 0.0
H1974 H 0.74692 0.00605 0.77141 0.0
H1975 H 0.7931 0.05611 0.7612 0.0
H1976 H 0.80123 0.06897 0.77491 0.0
H1977 H 0.76844 0.07421 0.7884 0.0
H1978 H 0.76042 0.0615 0.77469 0.0
H1979 H 0.74882 0.05324 0.75944 0.0
H1980 H 0.73704 0.06693 0.75003 0.0
H1981 H 0.76549 0.07869 0.73113 0.0
H1982 H 0.77721 0.0651 0.74071 0.0
H1983 H 0.77713 0.03546 0.74399 0.0
H1984 H 0.77359 0.01549 0.74631 0.0
H1985 H 0.75688 0.0218 0.7774 0.0
N1986 N 0.77155 0.05178 0.75751 0.0
H1987 H 0.75995 0.04168 0.77467 0.0
C1988 C 0.76714 0.96381 0.77552 0.0
C1989 C 0.77545 0.95857 0.76932 0.0
C1990 C 0.78284 0.95126 0.77453 0.0
C1991 C 0.78213 0.94905 0.78605 0.0
C1992 C 0.77418 0.95476 0.79229 0.0
C1993 C 0.76676 0.96203 0.78706 0.0
C1994 C 0.75168 0.96351 0.76232 0.0
C1995 C 0.74267 0.9571 0.76629 0.0
C1996 C 0.73693 0.94974 0.75927 0.0
C1997 C 0.7401 0.9486 0.74807 0.0
C1998 C 0.74895 0.9553 0.744 0.0
C1999 C 0.75468 0.9627 0.75105 0.0
C2000 C 0.76009 0.98153 0.76775 0.0
C2001 C 0.76974 0.98555 0.76236 0.0
C2002 C 0.77133 0.997 0.76051 0.0
C2003 C 0.76324 1.00467 0.76383 0.0
C2004 C 0.75347 1.00051 0.76895 0.0
C2005 C 0.75197 0.9891 0.77091 0.0
C2006 C 0.77619 0.05782 0.76687 0.0
C2007 C 0.78773 0.05985 0.7673 0.0
C2008 C 0.79235 0.06719 0.77513 0.0
C2009 C 0.78546 0.07271 0.78267 0.0
C2010 C 0.77395 0.07023 0.78259 0.0
C2011 C 0.76936 0.06286 0.7748 0.0
C2012 C 0.76393 0.05817 0.75076 0.0
C2013 C 0.75246 0.0586 0.7531 0.0
C2014 C 0.74573 0.06643 0.7477 0.0
C2015 C 0.75036 0.074 0.73993 0.0
C2016 C 0.7617 0.07312 0.73721 0.0
C2017 C 0.76838 0.06529 0.74257 0.0
C2018 C 0.76894 0.0401 0.75915 0.0
C2019 C 0.77264 0.0325 0.75126 0.0
C2020 C 0.77069 0.02107 0.75267 0.0
C2021 C 0.76502 0.01692 0.76211 0.0
C2022 C 0.76115 0.02461 0.76995 0.0
C2023 C 0.76301 0.03606 0.76845 0.0
H2024 H 0.26236 0.75342 0.46163 0.0
N2025 N 0.25436 0.77161 0.47239 0.0
H2026 H 0.25206 0.74184 0.44837 0.0
H2027 H 0.23248 0.77139 0.46872 0.0
H2028 H 0.22196 0.7596 0.45569 0.0
H2029 H 0.25069 0.79036 0.46133 0.0
H2030 H 0.26318 0.80004 0.44836 0.0
H2031 H 0.27629 0.76673 0.46893 0.0
H2032 H 0.28898 0.77643 0.45602 0.0
H2033 H 0.26459 0.75348 0.48169 0.0
H2034 H 0.24962 0.78481 0.48925 0.0
H2035 H 0.2677 0.74998 0.50154 0.0
H2036 H 0.25311 0.78166 0.50912 0.0
H2037 H 0.26805 0.73519 0.55845 0.0
H2038 H 0.25594 0.72493 0.57145 0.0
H2039 H 0.23688 0.75463 0.57648 0.0
H2040 H 0.24906 0.76479 0.56366 0.0
H2041 H 0.26245 0.77847 0.55798 0.0
H2042 H 0.27139 0.79072 0.57165 0.0
H2043 H 0.29653 0.76598 0.57777 0.0
H2044 H 0.28713 0.7536 0.56451 0.0
H2045 H 0.28119 0.75169 0.53717 0.0
H2046 H 0.2784 0.75538 0.51728 0.0
H2047 H 0.24707 0.77096 0.52456 0.0
N2048 N 0.26796 0.75686 0.55392 0.0
H2049 H 0.2502 0.76765 0.54439 0.0
C2050 C 0.24818 0.76334 0.46614 0.0
C2051 C 0.25351 0.7547 0.46056 0.0
C2052 C 0.24758 0.74804 0.45297 0.0
C2053 C 0.23619 0.74986 0.45083 0.0
C2054 C 0.23076 0.7581 0.45695 0.0
C2055 C 0.23672 0.76477 0.46449 0.0
C2056 C 0.26254 0.77788 0.46609 0.0
C2057 C 0.25912 0.78742 0.46036 0.0
C2058 C 0.26629 0.79295 0.45296 0.0
C2059 C 0.27711 0.78901 0.45111 0.0
C2060 C 0.28067 0.77961 0.45715 0.0
C2061 C 0.27346 0.77409 0.4646 0.0
C2062 C 0.25675 0.76939 0.48399 0.0
C2063 C 0.26203 0.75964 0.48761 0.0
C2064 C 0.26388 0.7577 0.49902 0.0
C2065 C 0.26061 0.76551 0.50703 0.0
C2066 C 0.25553 0.77533 0.50328 0.0
C2067 C 0.25361 0.77721 0.49191 0.0
C2068 C 0.25952 0.75073 0.56003 0.0
C2069 C 0.2611 0.73939 0.56217 0.0
C2070 C 0.25416 0.73355 0.56959 0.0
C2071 C 0.2455 0.73899 0.57509 0.0
C2072 C 0.24358 0.75023 0.57252 0.0
C2073 C 0.2505 0.75605 0.56507 0.0
C2074 C 0.27408 0.76504 0.56033 0.0
C2075 C 0.26992 0.77573 0.5622 0.0
C2076 C 0.27512 0.78276 0.56999 0.0
C2077 C 0.28462 0.7793 0.57599 0.0
C2078 C 0.28908 0.76884 0.57356 0.0
C2079 C 0.28382 0.7618 0.56588 0.0
C2080 C 0.26592 0.7593 0.54229 0.0
C2081 C 0.27374 0.75593 0.53444 0.0
C2082 C 0.27208 0.75798 0.52305 0.0
C2083 C 0.26246 0.76342 0.51922 0.0
C2084 C 0.25464 0.76687 0.52716 0.0
C2085 C 0.25637 0.7649 0.53856 0.0
H2086 H 0.77499 0.78968 0.55816 0.0
N2087 N 0.77454 0.76808 0.55367 0.0
H2088 H 0.76295 0.79957 0.57104 0.0
H2089 H 0.75536 0.75974 0.56319 0.0
H2090 H 0.74326 0.76953 0.5759 0.0
H2091 H 0.76859 0.74638 0.5579 0.0
H2092 H 0.77722 0.73417 0.57173 0.0
H2093 H 0.79374 0.77155 0.56428 0.0
H2094 H 0.80285 0.75921 0.57768 0.0
H2095 H 0.7882 0.7735 0.53716 0.0
H2096 H 0.7567 0.75715 0.54392 0.0
H2097 H 0.78577 0.76983 0.51727 0.0
H2098 H 0.75393 0.75385 0.52406 0.0
H2099 H 0.77249 0.77192 0.46183 0.0
H2100 H 0.76369 0.78488 0.44892 0.0
H2101 H 0.73193 0.76816 0.45404 0.0
H2102 H 0.74082 0.7553 0.46719 0.0
H2103 H 0.75864 0.73652 0.45892 0.0
H2104 H 0.77159 0.72795 0.44606 0.0
H2105 H 0.79815 0.74937 0.45841 0.0
H2106 H 0.78503 0.75806 0.47104 0.0
H2107 H 0.77286 0.77205 0.48157 0.0
H2108 H 0.77549 0.77532 0.5014 0.0
H2109 H 0.76006 0.74335 0.50873 0.0
N2110 N 0.76247 0.75387 0.47197 0.0
H2111 H 0.75703 0.7404 0.48877 0.0
C2112 C 0.76612 0.774 0.55966 0.0
C2113 C 0.76791 0.78533 0.56181 0.0
C2114 C 0.76102 0.79095 0.56917 0.0
C2115 C 0.7522 0.78531 0.57459 0.0
C2116 C 0.75008 0.77408 0.572 0.0
C2117 C 0.75696 0.76848 0.56461 0.0
C2118 C 0.78047 0.75995 0.56019 0.0
C2119 C 0.7761 0.74919 0.56213 0.0
C2120 C 0.78112 0.74218 0.57001 0.0
C2121 C 0.79066 0.74575 0.576 0.0
C2122 C 0.79536 0.75627 0.57348 0.0
C2123 C 0.79026 0.7633 0.56572 0.0
C2124 C 0.77263 0.76572 0.54203 0.0
C2125 C 0.78071 0.76919 0.53432 0.0
C2126 C 0.77926 0.76715 0.52294 0.0
C2127 C 0.7696 0.7616 0.51897 0.0
C2128 C 0.76153 0.75803 0.52677 0.0
C2129 C 0.76305 0.76 0.53819 0.0
C2130 C 0.75728 0.76261 0.46554 0.0
C2131 C 0.7636 0.77116 0.4604 0.0
C2132 C 0.75856 0.77851 0.4529 0.0
C2133 C 0.74712 0.77749 0.45034 0.0
C2134 C 0.74074 0.76925 0.45588 0.0
C2135 C 0.74579 0.76188 0.46338 0.0
C2136 C 0.77082 0.74788 0.46595 0.0
C2137 C 0.76732 0.73918 0.459 0.0
C2138 C 0.77476 0.73428 0.45167 0.0
C2139 C 0.78594 0.73799 0.45113 0.0
C2140 C 0.78957 0.74641 0.45847 0.0
C2141 C 0.78209 0.75133 0.4658 0.0
C2142 C 0.76461 0.75598 0.48364 0.0
C2143 C 0.76999 0.76575 0.48739 0.0
C2144 C 0.77158 0.76757 0.49881 0.0
C2145 C 0.76797 0.75962 0.50676 0.0
C2146 C 0.76277 0.74977 0.50292 0.0
C2147 C 0.76111 0.74801 0.49151 0.0
H2148 H 0.79387 0.2531 0.56606 0.0
N2149 N 0.77485 0.25565 0.5549 0.0
H2150 H 0.80254 0.26607 0.57924 0.0
H2151 H 0.76875 0.27712 0.55811 0.0
H2152 H 0.77753 0.29034 0.57092 0.0
H2153 H 0.75413 0.26269 0.56023 0.0
H2154 H 0.74106 0.25326 0.573 0.0
H2155 H 0.77645 0.23513 0.56304 0.0
H2156 H 0.76349 0.22559 0.57573 0.0
H2157 H 0.78579 0.24203 0.54179 0.0
H2158 H 0.76329 0.26952 0.54105 0.0
H2159 H 0.78586 0.24168 0.52147 0.0
H2160 H 0.76381 0.2698 0.52065 0.0
H2161 H 0.79319 0.24883 0.45745 0.0
H2162 H 0.80258 0.26188 0.44478 0.0
H2163 H 0.78338 0.28872 0.4582 0.0
H2164 H 0.77388 0.27545 0.47074 0.0
H2165 H 0.75828 0.26366 0.46324 0.0
H2166 H 0.74419 0.25592 0.45053 0.0
H2167 H 0.75976 0.22385 0.45299 0.0
H2168 H 0.77382 0.2317 0.46574 0.0
H2169 H 0.79303 0.24927 0.48569 0.0
H2170 H 0.79271 0.25081 0.50592 0.0
H2171 H 0.75829 0.26097 0.50411 0.0
N2172 N 0.77663 0.25294 0.47127 0.0
H2173 H 0.75899 0.2601 0.48381 0.0
C2174 C 0.78075 0.26416 0.56104 0.0
C2175 C 0.79043 0.26132 0.56693 0.0
C2176 C 0.79537 0.26877 0.57445 0.0
C2177 C 0.79072 0.27928 0.57623 0.0
C2178 C 0.78125 0.28227 0.56992 0.0
C2179 C 0.77629 0.27476 0.56245 0.0
C2180 C 0.76625 0.24957 0.56075 0.0
C2181 C 0.75611 0.25452 0.56344 0.0
C2182 C 0.74869 0.24915 0.57078 0.0
C2183 C 0.75127 0.2387 0.57544 0.0
C2184 C 0.76118 0.23356 0.57222 0.0
C2185 C 0.76861 0.23898 0.56498 0.0
C2186 C 0.77471 0.25588 0.54291 0.0
C2187 C 0.78098 0.2481 0.53718 0.0
C2188 C 0.78108 0.24801 0.52554 0.0
C2189 C 0.77499 0.25584 0.51928 0.0
C2190 C 0.76857 0.2636 0.52511 0.0
C2191 C 0.76836 0.26356 0.53681 0.0
C2192 C 0.7829 0.26116 0.46501 0.0
C2193 C 0.79117 0.25757 0.45777 0.0
C2194 C 0.79654 0.26506 0.45056 0.0
C2195 C 0.79375 0.27638 0.45044 0.0
C2196 C 0.78564 0.28004 0.45797 0.0
C2197 C 0.78026 0.2725 0.4652 0.0
C2198 C 0.76713 0.24823 0.46543 0.0
C2199 C 0.75854 0.25492 0.46122 0.0
C2200 C 0.75053 0.2505 0.45389 0.0
C2201 C 0.75092 0.23929 0.45065 0.0
C2202 C 0.75916 0.23248 0.45537 0.0
C2203 C 0.7672 0.23694 0.46265 0.0
C2204 C 0.77604 0.25439 0.4832 0.0
C2205 C 0.78545 0.25191 0.48968 0.0
C2206 C 0.78518 0.25269 0.50128 0.0
C2207 C 0.77539 0.2558 0.50679 0.0
C2208 C 0.76601 0.25859 0.50024 0.0
C2209 C 0.76636 0.25799 0.48856 0.0
H2210 H 0.27532 0.25419 0.4624 0.0
N2211 N 0.25712 0.24423 0.47221 0.0
H2212 H 0.2882 0.24552 0.44964 0.0
H2213 H 0.2586 0.22263 0.46781 0.0
H2214 H 0.27176 0.21373 0.45528 0.0
H2215 H 0.24001 0.24036 0.45855 0.0
H2216 H 0.23127 0.25341 0.44559 0.0
H2217 H 0.26131 0.26666 0.47112 0.0
H2218 H 0.25243 0.27991 0.45837 0.0
H2219 H 0.27713 0.24903 0.483 0.0
H2220 H 0.24165 0.24529 0.48791 0.0
H2221 H 0.27979 0.25223 0.50272 0.0
H2222 H 0.24414 0.24934 0.50766 0.0
H2223 H 0.2878 0.26244 0.56581 0.0
H2224 H 0.29637 0.24986 0.57935 0.0
H2225 H 0.2724 0.22416 0.57033 0.0
H2226 H 0.26372 0.2369 0.55713 0.0
H2227 H 0.25063 0.25113 0.5645 0.0
H2228 H 0.23939 0.2615 0.57763 0.0
H2229 H 0.25851 0.29135 0.56987 0.0
H2230 H 0.27 0.28073 0.55715 0.0
H2231 H 0.28114 0.26722 0.5371 0.0
H2232 H 0.2781 0.26438 0.51719 0.0
H2233 H 0.24997 0.24261 0.52468 0.0
N2234 N 0.26937 0.25893 0.55392 0.0
H2235 H 0.25261 0.24631 0.54448 0.0
C2236 C 0.26593 0.23904 0.46605 0.0
C2237 C 0.27454 0.24534 0.46101 0.0
C2238 C 0.28198 0.24033 0.45373 0.0
C2239 C 0.28099 0.22892 0.45133 0.0
C2240 C 0.27266 0.22257 0.45678 0.0
C2241 C 0.26521 0.2276 0.46403 0.0
C2242 C 0.25125 0.25252 0.4658 0.0
C2243 C 0.24261 0.24903 0.45866 0.0
C2244 C 0.23761 0.25653 0.45129 0.0
C2245 C 0.24115 0.26774 0.4509 0.0
C2246 C 0.2496 0.27131 0.45834 0.0
C2247 C 0.25462 0.26378 0.4657 0.0
C2248 C 0.25912 0.24678 0.48385 0.0
C2249 C 0.26984 0.249 0.48824 0.0
C2250 C 0.27136 0.25097 0.49965 0.0
C2251 C 0.2622 0.25105 0.50696 0.0
C2252 C 0.25147 0.2491 0.50246 0.0
C2253 C 0.24999 0.2469 0.49111 0.0
C2254 C 0.27518 0.25066 0.5604 0.0
C2255 C 0.28456 0.25401 0.56661 0.0
C2256 C 0.28945 0.24678 0.57434 0.0
C2257 C 0.28505 0.23598 0.576 0.0
C2258 C 0.27591 0.23247 0.56941 0.0
C2259 C 0.27099 0.23974 0.56172 0.0
C2260 C 0.26125 0.26517 0.55994 0.0
C2261 C 0.25228 0.25994 0.5655 0.0
C2262 C 0.24582 0.26591 0.57299 0.0
C2263 C 0.24815 0.27725 0.57499 0.0
C2264 C 0.25665 0.28258 0.56879 0.0
C2265 C 0.26314 0.27658 0.5614 0.0
C2266 C 0.26726 0.25685 0.54228 0.0
C2267 C 0.27431 0.26186 0.53439 0.0
C2268 C 0.2726 0.26012 0.52299 0.0
C2269 C 0.26384 0.25313 0.51918 0.0
C2270 C 0.25672 0.24815 0.52718 0.0
C2271 C 0.25832 0.2501 0.53859 0.0
H2272 H 0.77573 0.45699 0.78758 0.0
N2273 N 0.77242 0.47011 0.77003 0.0
H2274 H 0.76246 0.44392 0.79615 0.0
H2275 H 0.75023 0.46809 0.76482 0.0
H2276 H 0.73674 0.45521 0.7735 0.0
H2277 H 0.76378 0.46016 0.75134 0.0
H2278 H 0.77351 0.44741 0.73916 0.0
H2279 H 0.79419 0.4662 0.76982 0.0
H2280 H 0.80402 0.45338 0.7577 0.0
H2281 H 0.77156 0.4857 0.78551 0.0
H2282 H 0.76721 0.48075 0.75019 0.0
H2283 H 0.76719 0.5053 0.78318 0.0
H2284 H 0.76363 0.50042 0.74764 0.0
H2285 H 0.76608 0.56128 0.77703 0.0
H2286 H 0.75708 0.57383 0.78989 0.0
H2287 H 0.72543 0.56757 0.77344 0.0
H2288 H 0.73463 0.5552 0.76038 0.0
H2289 H 0.75179 0.56425 0.74138 0.0
H2290 H 0.76421 0.57778 0.73222 0.0
H2291 H 0.79144 0.56694 0.75323 0.0
H2292 H 0.77894 0.55377 0.76251 0.0
H2293 H 0.76969 0.54198 0.77494 0.0
H2294 H 0.77375 0.52235 0.77716 0.0
H2295 H 0.75124 0.51468 0.74983 0.0
N2296 N 0.75633 0.55138 0.75884 0.0
H2297 H 0.74794 0.53452 0.74719 0.0
C2298 C 0.76397 0.46351 0.77563 0.0
C2299 C 0.76718 0.45673 0.7846 0.0
C2300 C 0.75956 0.44931 0.7895 0.0
C2301 C 0.74851 0.44849 0.78552 0.0
C2302 C 0.74521 0.45552 0.77669 0.0
C2303 C 0.75288 0.46295 0.77177 0.0
C2304 C 0.77828 0.46415 0.76153 0.0
C2305 C 0.7726 0.4589 0.75266 0.0
C2306 C 0.77817 0.45154 0.74574 0.0
C2307 C 0.78953 0.44928 0.74752 0.0
C2308 C 0.7953 0.45499 0.75603 0.0
C2309 C 0.78971 0.46233 0.76296 0.0
C2310 C 0.76984 0.48169 0.76809 0.0
C2311 C 0.76978 0.48888 0.77722 0.0
C2312 C 0.76738 0.50015 0.77583 0.0
C2313 C 0.76514 0.50462 0.76518 0.0
C2314 C 0.76514 0.49735 0.756 0.0
C2315 C 0.76733 0.48601 0.75744 0.0
C2316 C 0.751 0.55729 0.7677 0.0
C2317 C 0.75717 0.5624 0.77632 0.0
C2318 C 0.75199 0.5696 0.7837 0.0
C2319 C 0.74053 0.57183 0.78265 0.0
C2320 C 0.7343 0.56623 0.77437 0.0
C2321 C 0.7395 0.55906 0.76698 0.0
C2322 C 0.76436 0.55793 0.75259 0.0
C2323 C 0.7605 0.56467 0.74384 0.0
C2324 C 0.76763 0.57238 0.73861 0.0
C2325 C 0.77884 0.57352 0.74202 0.0
C2326 C 0.78282 0.56643 0.7505 0.0
C2327 C 0.77566 0.55876 0.75576 0.0
C2328 C 0.75863 0.53977 0.76073 0.0
C2329 C 0.76575 0.53612 0.76931 0.0
C2330 C 0.76795 0.52478 0.77068 0.0
C2331 C 0.76286 0.51677 0.76368 0.0
C2332 C 0.75555 0.52051 0.75525 0.0
C2333 C 0.75355 0.53186 0.75377 0.0
H2334 H 0.25977 0.5588 0.76952 0.0
N2335 N 0.26825 0.5494 0.75073 0.0
H2336 H 0.26956 0.57159 0.78204 0.0
H2337 H 0.28989 0.55473 0.75069 0.0
H2338 H 0.29984 0.56751 0.76329 0.0
H2339 H 0.27104 0.56246 0.73304 0.0
H2340 H 0.25763 0.5752 0.72474 0.0
H2341 H 0.24612 0.55049 0.75606 0.0
H2342 H 0.23247 0.56306 0.74765 0.0
H2343 H 0.2631 0.53884 0.77066 0.0
H2344 H 0.26825 0.53338 0.73561 0.0
H2345 H 0.26091 0.519 0.77372 0.0
H2346 H 0.26524 0.51343 0.73845 0.0
H2347 H 0.25607 0.45683 0.78409 0.0
H2348 H 0.2692 0.44407 0.79288 0.0
H2349 H 0.29311 0.45155 0.76697 0.0
H2350 H 0.27981 0.46397 0.75811 0.0
H2351 H 0.26509 0.45796 0.74512 0.0
H2352 H 0.25501 0.44369 0.7345 0.0
H2353 H 0.22662 0.44706 0.75616 0.0
H2354 H 0.23697 0.46105 0.76694 0.0
H2355 H 0.24835 0.48341 0.77538 0.0
H2356 H 0.24984 0.5034 0.77185 0.0
H2357 H 0.273 0.4973 0.74516 0.0
N2358 N 0.25819 0.46717 0.7646 0.0
H2359 H 0.27067 0.47736 0.74824 0.0
C2360 C 0.27414 0.55574 0.75917 0.0
C2361 C 0.26856 0.56048 0.7682 0.0
C2362 C 0.27419 0.56779 0.77539 0.0
C2363 C 0.28548 0.57061 0.77364 0.0
C2364 C 0.29112 0.5656 0.7648 0.0
C2365 C 0.28549 0.55823 0.75766 0.0
C2366 C 0.25959 0.55553 0.74511 0.0
C2367 C 0.26257 0.56242 0.73611 0.0
C2368 C 0.25486 0.56968 0.73137 0.0
C2369 C 0.24393 0.57021 0.73553 0.0
C2370 C 0.24084 0.56299 0.74433 0.0
C2371 C 0.2486 0.55572 0.74909 0.0
C2372 C 0.26604 0.5377 0.75286 0.0
C2373 C 0.26366 0.53343 0.76355 0.0
C2374 C 0.26227 0.52196 0.76529 0.0
C2375 C 0.26294 0.51444 0.75636 0.0
C2376 C 0.26494 0.51882 0.74562 0.0
C2377 C 0.26654 0.53027 0.74394 0.0
C2378 C 0.26692 0.46142 0.7705 0.0
C2379 C 0.26425 0.45589 0.78047 0.0
C2380 C 0.27179 0.44861 0.78549 0.0
C2381 C 0.28222 0.44669 0.78061 0.0
C2382 C 0.28509 0.45267 0.77087 0.0
C2383 C 0.27751 0.45992 0.76584 0.0
C2384 C 0.25177 0.4605 0.75689 0.0
C2385 C 0.25663 0.45579 0.74745 0.0
C2386 C 0.25082 0.44762 0.74135 0.0
C2387 C 0.24005 0.44407 0.74457 0.0
C2388 C 0.23499 0.44939 0.75359 0.0
C2389 C 0.24082 0.45748 0.75969 0.0
C2390 C 0.25954 0.4789 0.76226 0.0
C2391 C 0.25372 0.48644 0.76876 0.0
C2392 C 0.25468 0.4979 0.76677 0.0
C2393 C 0.26166 0.50213 0.75828 0.0
C2394 C 0.26744 0.49447 0.7517 0.0
C2395 C 0.26628 0.48298 0.75357 0.0
H2396 H 0.26861 0.56092 0.27319 0.0
N2397 N 0.25064 0.55045 0.26338 0.0
H2398 H 0.28206 0.57326 0.26403 0.0
H2399 H 0.25271 0.55416 0.24159 0.0
H2400 H 0.26638 0.56634 0.23223 0.0
H2401 H 0.23354 0.5635 0.25897 0.0
H2402 H 0.22484 0.5767 0.27143 0.0
H2403 H 0.25439 0.55197 0.28591 0.0
H2404 H 0.24555 0.56495 0.29856 0.0
H2405 H 0.2684 0.54098 0.27431 0.0
H2406 H 0.23704 0.53366 0.25799 0.0
H2407 H 0.27152 0.52118 0.27703 0.0
H2408 H 0.23982 0.51377 0.2611 0.0
H2409 H 0.28559 0.46367 0.27737 0.0
H2410 H 0.29626 0.45123 0.26564 0.0
H2411 H 0.26821 0.44865 0.2429 0.0
H2412 H 0.25752 0.4606 0.25492 0.0
H2413 H 0.24302 0.46432 0.26782 0.0
H2414 H 0.23011 0.45046 0.27582 0.0
H2415 H 0.2537 0.44421 0.30244 0.0
H2416 H 0.26655 0.45804 0.29432 0.0
H2417 H 0.26946 0.4852 0.28912 0.0
H2418 H 0.26585 0.50507 0.28698 0.0
H2419 H 0.25051 0.49873 0.25489 0.0
N2420 N 0.26426 0.46892 0.27516 0.0
H2421 H 0.25372 0.47893 0.25736 0.0
C2422 C 0.25961 0.5566 0.25805 0.0
C2423 C 0.26814 0.5619 0.26424 0.0
C2424 C 0.27588 0.56895 0.25896 0.0
C2425 C 0.27528 0.57087 0.24739 0.0
C2426 C 0.26699 0.56521 0.24118 0.0
C2427 C 0.25924 0.55816 0.24648 0.0
C2428 C 0.24457 0.55673 0.27147 0.0
C2429 C 0.23602 0.56363 0.26767 0.0
C2430 C 0.23104 0.57116 0.27483 0.0
C2431 C 0.23451 0.57196 0.28603 0.0
C2432 C 0.24278 0.56469 0.28996 0.0
C2433 C 0.24778 0.55716 0.28275 0.0
C2434 C 0.2525 0.53883 0.2658 0.0
C2435 C 0.26213 0.53513 0.27137 0.0
C2436 C 0.26386 0.52374 0.27301 0.0
C2437 C 0.25596 0.51578 0.26923 0.0
C2438 C 0.24621 0.51958 0.26392 0.0
C2439 C 0.24454 0.53096 0.26222 0.0
C2440 C 0.27082 0.46321 0.26703 0.0
C2441 C 0.28186 0.46059 0.26972 0.0
C2442 C 0.28794 0.45348 0.26297 0.0
C2443 C 0.28309 0.44883 0.25332 0.0
C2444 C 0.27217 0.45189 0.25036 0.0
C2445 C 0.26607 0.45893 0.25717 0.0
C2446 C 0.25578 0.46216 0.28048 0.0
C2447 C 0.24535 0.46008 0.27544 0.0
C2448 C 0.238 0.45211 0.28 0.0
C2449 C 0.24091 0.44618 0.28973 0.0
C2450 C 0.25114 0.4487 0.29501 0.0
C2451 C 0.2585 0.45658 0.2904 0.0
C2452 C 0.26199 0.48055 0.27341 0.0
C2453 C 0.26531 0.48814 0.28164 0.0
C2454 C 0.2633 0.49951 0.28035 0.0
C2455 C 0.25793 0.50359 0.27072 0.0
C2456 C 0.25453 0.49593 0.26249 0.0
C2457 C 0.25648 0.48453 0.26384 0.0
H2458 H 0.78443 0.45986 0.26076 0.0
N2459 N 0.76709 0.46891 0.27212 0.0
H2460 H 0.79808 0.44696 0.26833 0.0
H2461 H 0.77047 0.46376 0.29345 0.0
H2462 H 0.78401 0.45067 0.30112 0.0
H2463 H 0.74943 0.45691 0.27829 0.0
H2464 H 0.7383 0.44405 0.26693 0.0
H2465 H 0.76877 0.46642 0.24955 0.0
H2466 H 0.75762 0.45357 0.23801 0.0
H2467 H 0.78425 0.47976 0.26115 0.0
H2468 H 0.75292 0.48459 0.27764 0.0
H2469 H 0.78633 0.49977 0.25831 0.0
H2470 H 0.75455 0.5046 0.27428 0.0
H2471 H 0.79697 0.55881 0.25903 0.0
H2472 H 0.80595 0.57243 0.27142 0.0
H2473 H 0.77632 0.57247 0.29171 0.0
H2474 H 0.76735 0.55932 0.27916 0.0
H2475 H 0.75411 0.55377 0.26574 0.0
H2476 H 0.74074 0.56651 0.25715 0.0
H2477 H 0.76473 0.57488 0.23162 0.0
H2478 H 0.77815 0.56235 0.24044 0.0
H2479 H 0.7824 0.53549 0.24608 0.0
H2480 H 0.7801 0.51537 0.24845 0.0
H2481 H 0.76396 0.52066 0.28005 0.0
N2482 N 0.77594 0.55144 0.25963 0.0
H2483 H 0.76577 0.54063 0.27728 0.0
C2484 C 0.77642 0.46284 0.27658 0.0
C2485 C 0.78443 0.45813 0.26962 0.0
C2486 C 0.79218 0.45064 0.27395 0.0
C2487 C 0.79208 0.44766 0.28532 0.0
C2488 C 0.78441 0.45283 0.29235 0.0
C2489 C 0.77666 0.46031 0.288 0.0
C2490 C 0.75988 0.4626 0.26479 0.0
C2491 C 0.7511 0.45636 0.26946 0.0
C2492 C 0.74475 0.44903 0.26293 0.0
C2493 C 0.74707 0.44776 0.25154 0.0
C2494 C 0.7557 0.45427 0.24677 0.0
C2495 C 0.76203 0.46166 0.25334 0.0
C2496 C 0.76847 0.48065 0.2698 0.0
C2497 C 0.77777 0.4851 0.26412 0.0
C2498 C 0.77889 0.49662 0.2624 0.0
C2499 C 0.77065 0.50394 0.26613 0.0
C2500 C 0.76123 0.49936 0.27152 0.0
C2501 C 0.76021 0.48789 0.27337 0.0
C2502 C 0.78154 0.55791 0.26814 0.0
C2503 C 0.79253 0.5616 0.2663 0.0
C2504 C 0.79764 0.56938 0.2734 0.0
C2505 C 0.79182 0.57364 0.28252 0.0
C2506 C 0.78098 0.56952 0.28466 0.0
C2507 C 0.77587 0.56182 0.27753 0.0
C2508 C 0.7672 0.55721 0.25377 0.0
C2509 C 0.75646 0.55826 0.25825 0.0
C2510 C 0.74883 0.56555 0.25334 0.0
C2511 C 0.75173 0.57175 0.24376 0.0
C2512 C 0.76223 0.57017 0.23895 0.0
C2513 C 0.7699 0.56302 0.24396 0.0
C2514 C 0.77438 0.53963 0.26149 0.0
C2515 C 0.77834 0.53227 0.25349 0.0
C2516 C 0.77709 0.52075 0.25493 0.0
C2517 C 0.77189 0.51627 0.26449 0.0
C2518 C 0.76787 0.52371 0.27249 0.0
C2519 C 0.76901 0.53524 0.27097 0.0
H2520 H 0.56474 0.27492 0.75771 0.0
N2521 N 0.55521 0.25515 0.76424 0.0
H2522 H 0.5783 0.28593 0.76844 0.0
H2523 H 0.56027 0.25265 0.78565 0.0
H2524 H 0.57349 0.26381 0.79665 0.0
H2525 H 0.56453 0.23547 0.7671 0.0
H2526 H 0.57791 0.22656 0.75491 0.0
H2527 H 0.56048 0.26183 0.74296 0.0
H2528 H 0.57351 0.25286 0.73058 0.0
H2529 H 0.54586 0.27079 0.75046 0.0
H2530 H 0.5383 0.24475 0.77418 0.0
H2531 H 0.52603 0.27378 0.74745 0.0
H2532 H 0.5184 0.24824 0.77199 0.0
H2533 H 0.46037 0.28612 0.74805 0.0
H2534 H 0.4476 0.29471 0.76107 0.0
H2535 H 0.45987 0.27338 0.78745 0.0
H2536 H 0.47243 0.26465 0.77422 0.0
H2537 H 0.46287 0.25092 0.76145 0.0
H2538 H 0.44985 0.23806 0.75232 0.0
H2539 H 0.45592 0.25464 0.72081 0.0
H2540 H 0.46906 0.26748 0.73005 0.0
H2541 H 0.49005 0.28381 0.75106 0.0
H2542 H 0.50988 0.28093 0.75451 0.0
H2543 H 0.50299 0.24601 0.76077 0.0
N2544 N 0.47345 0.2689 0.75178 0.0
H2545 H 0.48324 0.24916 0.75815 0.0
C2546 C 0.56158 0.2629 0.77089 0.0
C2547 C 0.56648 0.27255 0.76625 0.0
C2548 C 0.57422 0.27887 0.77243 0.0
C2549 C 0.57714 0.27567 0.78337 0.0
C2550 C 0.57165 0.26638 0.78817 0.0
C2551 C 0.564 0.26006 0.78197 0.0
C2552 C 0.56142 0.24926 0.75597 0.0
C2553 C 0.56629 0.23916 0.75902 0.0
C2554 C 0.57393 0.23408 0.75202 0.0
C2555 C 0.57689 0.23902 0.74176 0.0
C2556 C 0.57159 0.24891 0.73849 0.0
C2557 C 0.56399 0.254 0.74554 0.0
C2558 C 0.54356 0.25732 0.76235 0.0
C2559 C 0.53993 0.26566 0.75499 0.0
C2560 C 0.52851 0.2675 0.75344 0.0
C2561 C 0.52045 0.26124 0.75943 0.0
C2562 C 0.52422 0.25306 0.76698 0.0
C2563 C 0.53562 0.2511 0.76833 0.0
C2564 C 0.46736 0.27481 0.76014 0.0
C2565 C 0.46044 0.28347 0.7567 0.0
C2566 C 0.45316 0.28838 0.76418 0.0
C2567 C 0.45265 0.28472 0.77534 0.0
C2568 C 0.45992 0.2763 0.77889 0.0
C2569 C 0.4672 0.27137 0.77137 0.0
C2570 C 0.46694 0.26022 0.7464 0.0
C2571 C 0.46154 0.25172 0.75255 0.0
C2572 C 0.45403 0.24439 0.74733 0.0
C2573 C 0.45176 0.24538 0.73585 0.0
C2574 C 0.45755 0.25358 0.72964 0.0
C2575 C 0.46504 0.26093 0.73489 0.0
C2576 C 0.48508 0.26676 0.75421 0.0
C2577 C 0.49284 0.27556 0.75328 0.0
C2578 C 0.50423 0.27384 0.75513 0.0
C2579 C 0.50821 0.26318 0.75782 0.0
C2580 C 0.50035 0.25438 0.75888 0.0
C2581 C 0.48893 0.25616 0.75725 0.0
H2582 H 0.47136 0.74384 0.76206 0.0
N2583 N 0.47387 0.76618 0.76593 0.0
H2584 H 0.4581 0.7312 0.77139 0.0
H2585 H 0.46212 0.77023 0.78404 0.0
H2586 H 0.44899 0.75764 0.79355 0.0
H2587 H 0.46832 0.78747 0.76504 0.0
H2588 H 0.45456 0.79606 0.75268 0.0
H2589 H 0.4641 0.75649 0.7476 0.0
H2590 H 0.45085 0.76507 0.7349 0.0
H2591 H 0.48327 0.75581 0.74794 0.0
H2592 H 0.49079 0.7714 0.77937 0.0
H2593 H 0.50301 0.75283 0.74493 0.0
H2594 H 0.51064 0.76795 0.77671 0.0
H2595 H 0.56478 0.73305 0.74874 0.0
H2596 H 0.57726 0.72262 0.76104 0.0
H2597 H 0.57211 0.74653 0.7871 0.0
H2598 H 0.55948 0.75682 0.77474 0.0
H2599 H 0.56603 0.77048 0.76172 0.0
H2600 H 0.57936 0.78272 0.7522 0.0
H2601 H 0.57313 0.7651 0.72149 0.0
H2602 H 0.55966 0.75293 0.73111 0.0
H2603 H 0.53806 0.73927 0.74726 0.0
H2604 H 0.51826 0.74223 0.75065 0.0
H2605 H 0.52654 0.77347 0.76654 0.0
N2606 N 0.55524 0.75231 0.75277 0.0
H2607 H 0.54632 0.77011 0.76358 0.0
C2608 C 0.4677 0.75801 0.77237 0.0
C2609 C 0.46666 0.74685 0.76905 0.0
C2610 C 0.45909 0.73962 0.77442 0.0
C2611 C 0.45239 0.74345 0.78313 0.0
C2612 C 0.45388 0.75447 0.78675 0.0
C2613 C 0.46145 0.76165 0.78142 0.0
C2614 C 0.46739 0.77141 0.75722 0.0
C2615 C 0.4647 0.78263 0.7583 0.0
C2616 C 0.45683 0.78752 0.75121 0.0
C2617 C 0.45147 0.78125 0.7428 0.0
C2618 C 0.45461 0.77012 0.74139 0.0
C2619 C 0.46239 0.76523 0.74856 0.0
C2620 C 0.48549 0.76399 0.76387 0.0
C2621 C 0.48912 0.75858 0.75424 0.0
C2622 C 0.50051 0.75676 0.75257 0.0
C2623 C 0.50853 0.76015 0.76056 0.0
C2624 C 0.5048 0.76541 0.77025 0.0
C2625 C 0.49344 0.76732 0.77185 0.0
C2626 C 0.56126 0.74569 0.76078 0.0
C2627 C 0.56618 0.73589 0.75718 0.0
C2628 C 0.57329 0.72995 0.76423 0.0
C2629 C 0.57572 0.73378 0.77503 0.0
C2630 C 0.57049 0.74344 0.77878 0.0
C2631 C 0.56325 0.74931 0.77174 0.0
C2632 C 0.5618 0.76075 0.7471 0.0
C2633 C 0.56733 0.76936 0.7529 0.0
C2634 C 0.57505 0.77632 0.74746 0.0
C2635 C 0.57741 0.77484 0.7361 0.0
C2636 C 0.57146 0.76656 0.73021 0.0
C2637 C 0.56376 0.75959 0.73568 0.0
C2638 C 0.54367 0.75447 0.75504 0.0
C2639 C 0.53557 0.74673 0.75151 0.0
C2640 C 0.52423 0.7485 0.75337 0.0
C2641 C 0.52069 0.75816 0.75879 0.0
C2642 C 0.52889 0.76588 0.76245 0.0
C2643 C 0.54026 0.76402 0.76067 0.0
H2644 H 0.56535 0.78015 0.25554 0.0
N2645 N 0.55581 0.76038 0.2591 0.0
H2646 H 0.57839 0.79018 0.26782 0.0
H2647 H 0.56088 0.75477 0.28074 0.0
H2648 H 0.57392 0.76463 0.29298 0.0
H2649 H 0.56567 0.74138 0.26665 0.0
H2650 H 0.57929 0.7305 0.25653 0.0
H2651 H 0.56042 0.76186 0.23755 0.0
H2652 H 0.57367 0.75077 0.22716 0.0
H2653 H 0.53888 0.77058 0.24933 0.0
H2654 H 0.54646 0.74469 0.27303 0.0
H2655 H 0.51895 0.76728 0.25218 0.0
H2656 H 0.52664 0.74187 0.27668 0.0
H2657 H 0.46408 0.76553 0.26481 0.0
H2658 H 0.45141 0.77819 0.27396 0.0
H2659 H 0.45756 0.7616 0.30543 0.0
H2660 H 0.47033 0.749 0.29618 0.0
H2661 H 0.46097 0.73018 0.27906 0.0
H2662 H 0.44726 0.72119 0.26674 0.0
H2663 H 0.45812 0.74246 0.23959 0.0
H2664 H 0.47193 0.75133 0.252 0.0
H2665 H 0.48456 0.76708 0.26761 0.0
H2666 H 0.5043 0.76989 0.26409 0.0
H2667 H 0.50978 0.73491 0.2703 0.0
N2668 N 0.47416 0.74751 0.27442 0.0
H2669 H 0.49004 0.73238 0.27461 0.0
C2670 C 0.56207 0.76676 0.26719 0.0
C2671 C 0.56702 0.77686 0.2638 0.0
C2672 C 0.57454 0.78251 0.27078 0.0
C2673 C 0.57727 0.77815 0.28135 0.0
C2674 C 0.57193 0.76826 0.28494 0.0
C2675 C 0.56444 0.76259 0.27791 0.0
C2676 C 0.56211 0.75251 0.25285 0.0
C2677 C 0.56724 0.74337 0.25799 0.0
C2678 C 0.57502 0.73712 0.25216 0.0
C2679 C 0.57775 0.73987 0.24106 0.0
C2680 C 0.57201 0.74858 0.23577 0.0
C2681 C 0.56432 0.75485 0.24163 0.0
C2682 C 0.54416 0.75805 0.26107 0.0
C2683 C 0.53621 0.76427 0.25527 0.0
C2684 C 0.5248 0.76242 0.25702 0.0
C2685 C 0.52104 0.75437 0.26479 0.0
C2686 C 0.5291 0.74806 0.27054 0.0
C2687 C 0.54053 0.74978 0.2686 0.0
C2688 C 0.46818 0.75627 0.27984 0.0
C2689 C 0.46288 0.76473 0.27371 0.0
C2690 C 0.45556 0.77193 0.27894 0.0
C2691 C 0.45337 0.77085 0.29041 0.0
C2692 C 0.45911 0.76274 0.29661 0.0
C2693 C 0.46642 0.75553 0.29135 0.0
C2694 C 0.46745 0.74138 0.26646 0.0
C2695 C 0.46053 0.73273 0.27039 0.0
C2696 C 0.45264 0.72769 0.26337 0.0
C2697 C 0.45151 0.7312 0.25222 0.0
C2698 C 0.45883 0.73953 0.24812 0.0
C2699 C 0.46671 0.74462 0.25519 0.0
C2700 C 0.48574 0.74948 0.27157 0.0
C2701 C 0.48995 0.76 0.26831 0.0
C2702 C 0.50134 0.76158 0.26615 0.0
C2703 C 0.50881 0.75265 0.26693 0.0
C2704 C 0.50446 0.74208 0.26987 0.0
C2705 C 0.49312 0.74057 0.27223 0.0
H2706 H 0.56863 0.27573 0.29187 0.0
N2707 N 0.55614 0.27268 0.27377 0.0
H2708 H 0.58139 0.26251 0.30053 0.0
H2709 H 0.5574 0.25059 0.26884 0.0
H2710 H 0.56985 0.23719 0.27761 0.0
H2711 H 0.56226 0.2639 0.25391 0.0
H2712 H 0.57563 0.2722 0.24084 0.0
H2713 H 0.56372 0.29356 0.27374 0.0
H2714 H 0.57668 0.30221 0.26047 0.0
H2715 H 0.543 0.28537 0.28569 0.0
H2716 H 0.54227 0.25972 0.2609 0.0
H2717 H 0.52267 0.28562 0.28571 0.0
H2718 H 0.52185 0.25929 0.26133 0.0
H2719 H 0.45841 0.27658 0.29248 0.0
H2720 H 0.44593 0.26236 0.30037 0.0
H2721 H 0.45997 0.23795 0.27849 0.0
H2722 H 0.47227 0.2524 0.27049 0.0
H2723 H 0.46428 0.26556 0.2563 0.0
H2724 H 0.45144 0.27445 0.24327 0.0
H2725 H 0.45436 0.30498 0.26192 0.0
H2726 H 0.46693 0.29582 0.27515 0.0
H2727 H 0.48687 0.27706 0.29228 0.0
H2728 H 0.50712 0.2758 0.29178 0.0
H2729 H 0.50529 0.26844 0.25658 0.0
N2730 N 0.47242 0.27449 0.27567 0.0
H2731 H 0.48495 0.26902 0.25739 0.0
C2732 C 0.56203 0.26416 0.27978 0.0
C2733 C 0.56871 0.26725 0.2889 0.0
C2734 C 0.57598 0.25966 0.29384 0.0
C2735 C 0.57673 0.24877 0.28974 0.0
C2736 C 0.56964 0.24555 0.28088 0.0
C2737 C 0.56239 0.25318 0.27592 0.0
C2738 C 0.56211 0.27811 0.26484 0.0
C2739 C 0.56525 0.27232 0.25528 0.0
C2740 C 0.57288 0.27712 0.24779 0.0
C2741 C 0.57742 0.28783 0.24968 0.0
C2742 C 0.57361 0.29385 0.25888 0.0
C2743 C 0.56609 0.289 0.2664 0.0
C2744 C 0.54413 0.27243 0.27347 0.0
C2745 C 0.5384 0.27967 0.28036 0.0
C2746 C 0.52675 0.2797 0.28041 0.0
C2747 C 0.52048 0.27233 0.27366 0.0
C2748 C 0.52631 0.26513 0.26662 0.0
C2749 C 0.53803 0.26524 0.26646 0.0
C2750 C 0.46625 0.26554 0.28096 0.0
C2751 C 0.45889 0.26811 0.28954 0.0
C2752 C 0.4518 0.25995 0.29405 0.0
C2753 C 0.45191 0.24898 0.29007 0.0
C2754 C 0.45956 0.24634 0.28166 0.0
C2755 C 0.46666 0.25455 0.27713 0.0
C2756 C 0.46654 0.28004 0.26675 0.0
C2757 C 0.46231 0.27421 0.25748 0.0
C2758 C 0.45497 0.27934 0.24999 0.0
C2759 C 0.45173 0.29042 0.25159 0.0
C2760 C 0.45648 0.29638 0.26054 0.0
C2761 C 0.46377 0.29122 0.26804 0.0
C2762 C 0.48437 0.27333 0.27489 0.0
C2763 C 0.49086 0.27511 0.28448 0.0
C2764 C 0.50248 0.27449 0.28412 0.0
C2765 C 0.50798 0.27223 0.27408 0.0
C2766 C 0.50142 0.27015 0.26449 0.0
C2767 C 0.48973 0.27059 0.26491 0.0
H2768 H 0.21121 0.21445 0.12804 0.0
H2769 H 0.23689 0.1897 0.12678 0.0
H2770 H 0.22033 0.22478 0.11297 0.0
H2771 H 0.24563 0.19967 0.11137 0.0
H2772 H 0.26559 0.22658 0.09302 0.0
H2773 H 0.25621 0.2162 0.1078 0.0
H2774 H 0.22424 0.22443 0.09336 0.0
H2775 H 0.23369 0.23499 0.07861 0.0
C2776 C 0.21878 0.21119 0.12455 0.0
C2777 C 0.2233 0.20123 0.12867 0.0
C2778 C 0.22394 0.21704 0.1158 0.0
C2779 C 0.23374 0.21308 0.11093 0.0
C2780 C 0.23819 0.20307 0.11499 0.0
C2781 C 0.23306 0.19726 0.12375 0.0
C2782 C 0.25656 0.22607 0.09291 0.0
C2783 C 0.2504 0.23157 0.08458 0.0
C2784 C 0.25116 0.2201 0.1014 0.0
C2785 C 0.23944 0.21942 0.10179 0.0
C2786 C 0.23327 0.2249 0.09343 0.0
C2787 C 0.23868 0.23092 0.08495 0.0
H2788 H 0.79387 0.21028 0.13874 0.0
H2789 H 0.82322 0.20195 0.12012 0.0
H2790 H 0.78704 0.2211 0.12296 0.0
H2791 H 0.81632 0.21268 0.10421 0.0
H2792 H 0.80566 0.24248 0.08246 0.0
H2793 H 0.81286 0.23137 0.09792 0.0
H2794 H 0.77954 0.21889 0.10459 0.0
H2795 H 0.77228 0.2304 0.08956 0.0
C2796 C 0.79882 0.21067 0.13123 0.0
C2797 C 0.80907 0.20521 0.13068 0.0
C2798 C 0.79489 0.21686 0.12215 0.0
C2799 C 0.80108 0.21772 0.11226 0.0
C2800 C 0.81139 0.21232 0.11174 0.0
C2801 C 0.81535 0.20616 0.12085 0.0
C2802 C 0.79986 0.2374 0.08726 0.0
C2803 C 0.78837 0.23738 0.08475 0.0
C2804 C 0.80401 0.23093 0.09606 0.0
C2805 C 0.79678 0.22426 0.10257 0.0
C2806 C 0.78534 0.22405 0.09989 0.0
C2807 C 0.78119 0.23054 0.09113 0.0
H2808 H 0.82013 0.82722 0.11738 0.0
H2809 H 0.79733 0.80992 0.13947 0.0
H2810 H 0.81327 0.81594 0.10181 0.0
H2811 H 0.79036 0.79881 0.12392 0.0
H2812 H 0.79032 0.77245 0.09668 0.0
H2813 H 0.79741 0.78405 0.11178 0.0
H2814 H 0.79594 0.81296 0.09027 0.0
H2815 H 0.78899 0.80126 0.07501 0.0
C2816 C 0.81368 0.821 0.11891 0.0
C2817 C 0.80929 0.81946 0.12967 0.0
C2818 C 0.80967 0.81462 0.10998 0.0
C2819 C 0.80128 0.80647 0.11163 0.0
C2820 C 0.7969 0.80495 0.12238 0.0
C2821 C 0.80082 0.81138 0.13128 0.0
C2822 C 0.79162 0.78126 0.09511 0.0
C2823 C 0.78915 0.78592 0.08461 0.0
C2824 C 0.79557 0.78793 0.10382 0.0
C2825 C 0.79721 0.79943 0.10225 0.0
C2826 C 0.79483 0.80411 0.09172 0.0
C2827 C 0.79078 0.79743 0.08301 0.0
H2828 H 0.21525 0.79786 0.1318 0.0
H2829 H 0.23282 0.82796 0.12188 0.0
H2830 H 0.22316 0.78817 0.11595 0.0
H2831 H 0.24078 0.81827 0.10617 0.0
H2832 H 0.26371 0.7937 0.0889 0.0
H2833 H 0.25452 0.80368 0.10367 0.0
H2834 H 0.22324 0.78741 0.09524 0.0
H2835 H 0.23243 0.77747 0.08024 0.0
C2836 C 0.22068 0.80245 0.12618 0.0
C2837 C 0.22348 0.81367 0.12821 0.0
C2838 C 0.22522 0.79689 0.11709 0.0
C2839 C 0.23268 0.80242 0.10984 0.0
C2840 C 0.23523 0.8137 0.11171 0.0
C2841 C 0.23068 0.81926 0.12075 0.0
C2842 C 0.25482 0.79238 0.09001 0.0
C2843 C 0.24881 0.78483 0.08327 0.0
C2844 C 0.24956 0.79809 0.09853 0.0
C2845 C 0.23813 0.79639 0.10061 0.0
C2846 C 0.23208 0.78883 0.09391 0.0
C2847 C 0.23735 0.78314 0.08532 0.0
H2848 H 0.20734 0.80906 0.90671 0.0
H2849 H 0.23799 0.8033 0.88913 0.0
H2850 H 0.21434 0.79843 0.92263 0.0
H2851 H 0.24494 0.79258 0.90494 0.0
H2852 H 0.25876 0.78283 0.93868 0.0
H2853 H 0.25149 0.79451 0.92375 0.0
H2854 H 0.21869 0.77983 0.92839 0.0
H2855 H 0.22585 0.76855 0.94371 0.0
C2856 C 0.21553 0.80543 0.90621 0.0
C2857 C 0.22211 0.80704 0.89665 0.0
C2858 C 0.21955 0.79934 0.91533 0.0
C2859 C 0.23023 0.79466 0.91511 0.0
C2860 C 0.23677 0.79624 0.90552 0.0
C2861 C 0.23278 0.80236 0.89642 0.0
C2862 C 0.24995 0.78224 0.93668 0.0
C2863 C 0.2429 0.77472 0.94242 0.0
C2864 C 0.2458 0.78883 0.92799 0.0
C2865 C 0.23451 0.78806 0.92477 0.0
C2866 C 0.22741 0.78072 0.93068 0.0
C2867 C 0.23155 0.77415 0.9394 0.0
H2868 H 0.22426 0.20682 0.89614 0.0
H2869 H 0.19344 0.22201 0.90584 0.0
H2870 H 0.23385 0.21579 0.91181 0.0
H2871 H 0.20301 0.231 0.92138 0.0
H2872 H 0.22671 0.25615 0.93818 0.0
H2873 H 0.21691 0.24592 0.92364 0.0
H2874 H 0.23505 0.21636 0.93245 0.0
H2875 H 0.24482 0.2266 0.9472 0.0
C2876 C 0.2195 0.21196 0.90168 0.0
C2877 C 0.2081 0.21378 0.89964 0.0
C2878 C 0.225 0.2171 0.91066 0.0
C2879 C 0.21922 0.2242 0.91779 0.0
C2880 C 0.20777 0.22577 0.91592 0.0
C2881 C 0.20228 0.22062 0.90698 0.0
C2882 C 0.22849 0.24742 0.9372 0.0
C2883 C 0.23651 0.24221 0.94397 0.0
C2884 C 0.22288 0.24155 0.92881 0.0
C2885 C 0.22515 0.2303 0.92689 0.0
C2886 C 0.23318 0.22505 0.93363 0.0
C2887 C 0.23878 0.23093 0.94209 0.0
H2888 H 0.8104 0.1945 0.904 0.0
H2889 H 0.82515 0.22717 0.89889 0.0
H2890 H 0.79935 0.20168 0.91928 0.0
H2891 H 0.81419 0.23429 0.91419 0.0
H2892 H 0.80099 0.24104 0.94894 0.0
H2893 H 0.81244 0.23299 0.93445 0.0
H2894 H 0.78384 0.21429 0.92234 0.0
H2895 H 0.77236 0.22239 0.93675 0.0
C2896 C 0.81125 0.20322 0.90608 0.0
C2897 C 0.8187 0.21024 0.9002 0.0
C2898 C 0.80493 0.20733 0.91486 0.0
C2899 C 0.80591 0.21855 0.918 0.0
C2900 C 0.81337 0.22556 0.91214 0.0
C2901 C 0.81966 0.22146 0.90335 0.0
C2902 C 0.79713 0.23523 0.94317 0.0
C2903 C 0.78573 0.2324 0.94402 0.0
C2904 C 0.8037 0.23062 0.93486 0.0
C2905 C 0.79905 0.22303 0.92719 0.0
C2906 C 0.78772 0.22 0.92819 0.0
C2907 C 0.78114 0.22463 0.93648 0.0
H2908 H 0.81478 0.83276 0.90913 0.0
H2909 H 0.80728 0.80448 0.88827 0.0
H2910 H 0.8062 0.82315 0.92494 0.0
H2911 H 0.79861 0.79489 0.90405 0.0
H2912 H 0.79114 0.77694 0.93661 0.0
H2913 H 0.80191 0.78619 0.92194 0.0
H2914 H 0.78788 0.81767 0.93107 0.0
H2915 H 0.77751 0.8085 0.94601 0.0
C2916 C 0.81127 0.8245 0.90791 0.0
C2917 C 0.81167 0.81942 0.89741 0.0
C2918 C 0.80634 0.81899 0.91698 0.0
C2919 C 0.80165 0.80826 0.91578 0.0
C2920 C 0.80228 0.80308 0.90533 0.0
C2921 C 0.80724 0.80859 0.89627 0.0
C2922 C 0.79052 0.78586 0.93563 0.0
C2923 C 0.78343 0.79196 0.94249 0.0
C2924 C 0.79659 0.79115 0.92711 0.0
C2925 C 0.79573 0.80268 0.92525 0.0
C2926 C 0.78885 0.80881 0.9323 0.0
C2927 C 0.78279 0.80352 0.94081 0.0
H2928 H 0.14139 0.20948 0.21664 0.0
H2929 H 0.12178 0.20388 0.18683 0.0
H2930 H 0.12513 0.21707 0.22578 0.0
H2931 H 0.10548 0.2114 0.19598 0.0
H2932 H 0.08379 0.23877 0.21098 0.0
H2933 H 0.099 0.22915 0.20206 0.0
H2934 H 0.10689 0.21285 0.23329 0.0
H2935 H 0.09194 0.22285 0.24232 0.0
C2936 C 0.13356 0.2097 0.2121 0.0
C2937 C 0.13292 0.20613 0.20098 0.0
C2938 C 0.12421 0.21404 0.21734 0.0
C2939 C 0.11397 0.2149 0.21162 0.0
C2940 C 0.11327 0.21105 0.20059 0.0
C2941 C 0.12262 0.20674 0.19534 0.0
C2942 C 0.08876 0.23313 0.21595 0.0
C2943 C 0.08667 0.23165 0.22739 0.0
C2944 C 0.09743 0.22751 0.2108 0.0
C2945 C 0.10424 0.22024 0.21696 0.0
C2946 C 0.10192 0.2185 0.22832 0.0
C2947 C 0.09324 0.22412 0.23347 0.0
H2948 H 0.80367 0.13666 0.22173 0.0
H2949 H 0.82855 0.11422 0.20974 0.0
H2950 H 0.79354 0.12105 0.23019 0.0
H2951 H 0.81835 0.09855 0.21805 0.0
H2952 H 0.80435 0.07556 0.24554 0.0
H2953 H 0.81412 0.09071 0.23595 0.0
H2954 H 0.78252 0.10479 0.22634 0.0
H2955 H 0.77276 0.08998 0.23643 0.0
C2956 C 0.80689 0.12837 0.22076 0.0
C2957 C 0.81693 0.1267 0.21509 0.0
C2958 C 0.80107 0.1194 0.2256 0.0
C2959 C 0.80512 0.10851 0.22484 0.0
C2960 C 0.81507 0.10683 0.21898 0.0
C2961 C 0.82092 0.11581 0.2142 0.0
C2962 C 0.79948 0.08191 0.24144 0.0
C2963 C 0.78775 0.08154 0.24182 0.0
C2964 C 0.80509 0.09054 0.2358 0.0
C2965 C 0.79913 0.09902 0.23037 0.0
C2966 C 0.7874 0.0985 0.23055 0.0
C2967 C 0.78179 0.0899 0.23621 0.0
H2968 H 0.89693 0.80014 0.19519 0.0
H2969 H 0.90034 0.83147 0.21236 0.0
H2970 H 0.9131 0.79317 0.20522 0.0
H2971 H 0.91624 0.82429 0.2228 0.0
H2972 H 0.95081 0.81149 0.2323 0.0
H2973 H 0.93549 0.81884 0.22106 0.0
H2974 H 0.9181 0.78718 0.22365 0.0
H2975 H 0.93337 0.77985 0.23478 0.0
C2976 C 0.90115 0.80558 0.20106 0.0
C2977 C 0.89731 0.81639 0.20293 0.0
C2978 C 0.91037 0.80152 0.20694 0.0
C2979 C 0.91598 0.80814 0.21487 0.0
C2980 C 0.91221 0.81899 0.21668 0.0
C2981 C 0.90299 0.82306 0.21078 0.0
C2982 C 0.94371 0.8061 0.23046 0.0
C2983 C 0.94336 0.79506 0.23441 0.0
C2984 C 0.93491 0.81033 0.22404 0.0
C2985 C 0.92553 0.80361 0.22143 0.0
C2986 C 0.92526 0.79254 0.22531 0.0
C2987 C 0.93405 0.78832 0.23169 0.0
H2988 H 0.20742 0.88917 0.22823 0.0
H2989 H 0.22329 0.893 0.19618 0.0
H2990 H 0.2179 0.90523 0.23512 0.0
H2991 H 0.23418 0.90877 0.20325 0.0
H2992 H 0.24409 0.94326 0.21618 0.0
H2993 H 0.23263 0.92787 0.20907 0.0
H2994 H 0.23656 0.91041 0.24043 0.0
H2995 H 0.24791 0.92578 0.24753 0.0
C2996 C 0.21312 0.89345 0.22263 0.0
C2997 C 0.21447 0.88977 0.21163 0.0
C2998 C 0.21924 0.9026 0.22663 0.0
C2999 C 0.22693 0.9083 0.21977 0.0
C3000 C 0.22826 0.90466 0.20875 0.0
C3001 C 0.22211 0.89551 0.20473 0.0
C3002 C 0.2425 0.93613 0.22155 0.0
C3003 C 0.24688 0.93579 0.23245 0.0
C3004 C 0.23595 0.92728 0.21746 0.0
C3005 C 0.23366 0.91787 0.22416 0.0
C3006 C 0.23798 0.91759 0.23509 0.0
C3007 C 0.24449 0.92643 0.23918 0.0
H3008 H 0.12597 0.81692 0.82449 0.0
H3009 H 0.14226 0.78637 0.81612 0.0
H3010 H 0.1094 0.81085 0.81412 0.0
H3011 H 0.12579 0.78035 0.80566 0.0
H3012 H 0.09128 0.76789 0.79624 0.0
H3013 H 0.10684 0.77414 0.80786 0.0
H3014 H 0.10282 0.80768 0.79547 0.0
H3015 H 0.08689 0.80153 0.78428 0.0
C3016 C 0.12605 0.80895 0.82036 0.0
C3017 C 0.13544 0.80212 0.82115 0.0
C3018 C 0.11654 0.80546 0.81441 0.0
C3019 C 0.11621 0.79508 0.80906 0.0
C3020 C 0.12564 0.78829 0.80985 0.0
C3021 C 0.13511 0.79175 0.81583 0.0
C3022 C 0.09356 0.77664 0.79615 0.0
C3023 C 0.08781 0.78419 0.78928 0.0
C3024 C 0.10261 0.78021 0.80271 0.0
C3025 C 0.10619 0.79141 0.80255 0.0
C3026 C 0.10027 0.79901 0.79588 0.0
C3027 C 0.0912 0.79545 0.78935 0.0
H3028 H 0.20168 0.1246 0.81351 0.0
H3029 H 0.2298 0.12175 0.83602 0.0
H3030 H 0.20783 0.10831 0.80351 0.0
H3031 H 0.23632 0.10591 0.82561 0.0
H3032 H 0.24071 0.07184 0.81065 0.0
H3033 H 0.23293 0.08692 0.82149 0.0
H3034 H 0.22186 0.10283 0.79102 0.0
H3035 H 0.22939 0.08764 0.78029 0.0
C3036 C 0.20915 0.1205 0.81637 0.0
C3037 C 0.21524 0.12457 0.82559 0.0
C3038 C 0.21277 0.11121 0.81052 0.0
C3039 C 0.22262 0.10577 0.81369 0.0
C3040 C 0.22864 0.10976 0.82298 0.0
C3041 C 0.22498 0.119 0.82887 0.0
C3042 C 0.23657 0.07855 0.8063 0.0
C3043 C 0.23565 0.07852 0.79461 0.0
C3044 C 0.23214 0.08723 0.8125 0.0
C3045 C 0.22679 0.09617 0.80716 0.0
C3046 C 0.22574 0.09603 0.79547 0.0
C3047 C 0.23008 0.08731 0.78929 0.0
H3048 H 0.8881 0.2152 0.80926 0.0
H3049 H 0.91009 0.19078 0.82359 0.0
H3050 H 0.90403 0.22485 0.80091 0.0
H3051 H 0.9261 0.20053 0.8154 0.0
H3052 H 0.94988 0.21314 0.78798 0.0
H3053 H 0.93448 0.20393 0.79766 0.0
H3054 H 0.92029 0.23589 0.80469 0.0
H3055 H 0.93534 0.24506 0.79447 0.0
C3056 C 0.89636 0.21199 0.81078 0.0
C3057 C 0.89781 0.20221 0.81707 0.0
C3058 C 0.90553 0.21754 0.806 0.0
C3059 C 0.91639 0.21348 0.80745 0.0
C3060 C 0.91785 0.2038 0.81393 0.0
C3061 C 0.90867 0.19822 0.81865 0.0
C3062 C 0.94346 0.21821 0.79154 0.0
C3063 C 0.94387 0.22986 0.79037 0.0
C3064 C 0.93468 0.21292 0.79723 0.0
C3065 C 0.92609 0.21914 0.80195 0.0
C3066 C 0.92666 0.23081 0.80103 0.0
C3067 C 0.93541 0.23609 0.7953 0.0
H3068 H 0.80515 0.88578 0.81184 0.0
H3069 H 0.83479 0.90664 0.81333 0.0
H3070 H 0.79452 0.90145 0.80477 0.0
H3071 H 0.82413 0.92238 0.80635 0.0
H3072 H 0.80413 0.94435 0.78203 0.0
H3073 H 0.81503 0.92914 0.78974 0.0
H3074 H 0.78703 0.91894 0.8101 0.0
H3075 H 0.77598 0.93377 0.80201 0.0
C3076 C 0.80937 0.89376 0.81079 0.0
C3077 C 0.82083 0.89494 0.81316 0.0
C3078 C 0.80327 0.90276 0.80674 0.0
C3079 C 0.80844 0.91322 0.80499 0.0
C3080 C 0.81989 0.91442 0.80743 0.0
C3081 C 0.82601 0.9054 0.81145 0.0
C3082 C 0.80028 0.93883 0.78811 0.0
C3083 C 0.78914 0.94031 0.79136 0.0
C3084 C 0.80658 0.93017 0.79263 0.0
C3085 C 0.80192 0.92275 0.80053 0.0
C3086 C 0.79086 0.92437 0.80393 0.0
C3087 C 0.78456 0.93301 0.7994 0.0
H3088 H 0.22345 0.13403 0.22142 0.0
H3089 H 0.20163 0.11144 0.20345 0.0
H3090 H 0.23386 0.11829 0.22878 0.0
H3091 H 0.21196 0.09566 0.21096 0.0
H3092 H 0.24205 0.07212 0.21666 0.0
H3093 H 0.23081 0.08736 0.20936 0.0
H3094 H 0.23102 0.10244 0.2419 0.0
H3095 H 0.2424 0.08733 0.24913 0.0
C3096 C 0.2209 0.1257 0.21901 0.0
C3097 C 0.21172 0.12399 0.21184 0.0
C3098 C 0.2268 0.11667 0.22332 0.0
C3099 C 0.22371 0.10571 0.22049 0.0
C3100 C 0.21458 0.104 0.21325 0.0
C3101 C 0.20862 0.11303 0.20902 0.0
C3102 C 0.23965 0.07867 0.22225 0.0
C3103 C 0.24312 0.07851 0.23347 0.0
C3104 C 0.23316 0.08736 0.21809 0.0
C3105 C 0.23008 0.09614 0.22503 0.0
C3106 C 0.23336 0.09586 0.2363 0.0
C3107 C 0.23977 0.08713 0.24048 0.0
H3108 H 0.20574 0.88699 0.7989 0.0
H3109 H 0.21915 0.89139 0.83212 0.0
H3110 H 0.21594 0.90354 0.79263 0.0
H3111 H 0.22944 0.90793 0.8258 0.0
H3112 H 0.25597 0.9287 0.80648 0.0
H3113 H 0.24511 0.91296 0.8137 0.0
H3114 H 0.21645 0.92376 0.79475 0.0
H3115 H 0.22729 0.93958 0.78757 0.0
C3116 C 0.21076 0.89155 0.80491 0.0
C3117 C 0.21159 0.88784 0.81603 0.0
C3118 C 0.21662 0.90106 0.80131 0.0
C3119 C 0.22349 0.90709 0.80872 0.0
C3120 C 0.22432 0.9034 0.81984 0.0
C3121 C 0.21844 0.8939 0.82346 0.0
C3122 C 0.24729 0.92785 0.804 0.0
C3123 C 0.24252 0.93543 0.79642 0.0
C3124 C 0.24107 0.9188 0.80813 0.0
C3125 C 0.22992 0.91706 0.80477 0.0
C3126 C 0.22508 0.92475 0.79737 0.0
C3127 C 0.23129 0.93382 0.79325 0.0
H3128 H 0.13173 0.19278 0.80051 0.0
H3129 H 0.12784 0.20888 0.83226 0.0
H3130 H 0.11609 0.20312 0.79299 0.0
H3131 H 0.11246 0.21963 0.82456 0.0
H3132 H 0.07843 0.22943 0.80994 0.0
H3133 H 0.09331 0.21815 0.81793 0.0
H3134 H 0.11193 0.22179 0.78738 0.0
H3135 H 0.09711 0.23296 0.77943 0.0
C3136 C 0.12751 0.19848 0.80592 0.0
C3137 C 0.13107 0.19997 0.81701 0.0
C3138 C 0.11861 0.20453 0.80155 0.0
C3139 C 0.11303 0.21227 0.80814 0.0
C3140 C 0.1165 0.21368 0.81927 0.0
C3141 C 0.12541 0.20761 0.82365 0.0
C3142 C 0.08572 0.22782 0.80495 0.0
C3143 C 0.08652 0.23204 0.79401 0.0
C3144 C 0.09426 0.22138 0.80954 0.0
C3145 C 0.10382 0.21901 0.8033 0.0
C3146 C 0.1046 0.22324 0.79236 0.0
C3147 C 0.09608 0.22965 0.78778 0.0
H3148 H 0.80792 0.13649 0.8084 0.0
H3149 H 0.8165 0.11354 0.83485 0.0
H3150 H 0.80057 0.12106 0.79732 0.0
H3151 H 0.80895 0.0981 0.82382 0.0
H3152 H 0.80484 0.07259 0.79503 0.0
H3153 H 0.81277 0.08768 0.80632 0.0
H3154 H 0.78445 0.10798 0.79813 0.0
H3155 H 0.77666 0.09305 0.78673 0.0
C3156 C 0.8083 0.12814 0.81182 0.0
C3157 C 0.81279 0.12625 0.82251 0.0
C3158 C 0.80399 0.11931 0.80552 0.0
C3159 C 0.80413 0.10836 0.80971 0.0
C3160 C 0.80878 0.10643 0.82033 0.0
C3161 C 0.81302 0.11528 0.82668 0.0
C3162 C 0.80033 0.08028 0.79565 0.0
C3163 C 0.7901 0.0816 0.79001 0.0
C3164 C 0.80483 0.08889 0.80217 0.0
C3165 C 0.79926 0.09905 0.80308 0.0
C3166 C 0.78901 0.10032 0.7975 0.0
C3167 C 0.78447 0.0917 0.79107 0.0
H3168 H 0.89913 0.82021 0.81088 0.0
H3169 H 0.89918 0.79464 0.8364 0.0
H3170 H 0.9154 0.81181 0.80232 0.0
H3171 H 0.91523 0.78621 0.82774 0.0
H3172 H 0.93358 0.76673 0.80104 0.0
H3173 H 0.91845 0.77618 0.81013 0.0
H3174 H 0.93577 0.80765 0.80569 0.0
H3175 H 0.95119 0.79813 0.79676 0.0
C3176 C 0.90266 0.81288 0.81473 0.0
C3177 C 0.89773 0.80804 0.82427 0.0
C3178 C 0.91198 0.80807 0.80982 0.0
C3179 C 0.91654 0.79829 0.81429 0.0
C3180 C 0.91179 0.79362 0.82397 0.0
C3181 C 0.90255 0.79845 0.8289 0.0
C3182 C 0.93433 0.77564 0.80216 0.0
C3183 C 0.94374 0.78162 0.79827 0.0
C3184 C 0.92559 0.78107 0.80735 0.0
C3185 C 0.92593 0.79266 0.80871 0.0
C3186 C 0.93523 0.79871 0.8047 0.0
C3187 C 0.94406 0.79325 0.79957 0.0
H3188 H 0.82339 0.89532 0.23027 0.0
H3189 H 0.80878 0.90084 0.19772 0.0
H3190 H 0.81247 0.91038 0.23773 0.0
H3191 H 0.79746 0.91562 0.20531 0.0
H3192 H 0.78714 0.94889 0.22045 0.0
H3193 H 0.79871 0.93436 0.21268 0.0
H3194 H 0.79347 0.91434 0.24229 0.0
H3195 H 0.78199 0.92882 0.25004 0.0
C3196 C 0.81788 0.89977 0.22468 0.0
C3197 C 0.81701 0.89686 0.21337 0.0
C3198 C 0.8115 0.90833 0.229 0.0
C3199 C 0.80404 0.91422 0.22214 0.0
C3200 C 0.8032 0.91135 0.21082 0.0
C3201 C 0.80959 0.90277 0.20649 0.0
C3202 C 0.78844 0.94137 0.22528 0.0
C3203 C 0.78369 0.94007 0.23591 0.0
C3204 C 0.79506 0.93302 0.22081 0.0
C3205 C 0.79706 0.92317 0.22686 0.0
C3206 C 0.7923 0.92189 0.23748 0.0
C3207 C 0.78571 0.93022 0.24194 0.0
H3208 H 0.14434 0.79722 0.21521 0.0
H3209 H 0.12349 0.81506 0.19192 0.0
H3210 H 0.12777 0.79069 0.22518 0.0
H3211 H 0.10687 0.80839 0.20182 0.0
H3212 H 0.08181 0.80463 0.23135 0.0
H3213 H 0.09782 0.81097 0.22034 0.0
H3214 H 0.11146 0.778 0.22212 0.0
H3215 H 0.09557 0.77171 0.23326 0.0
C3216 C 0.13622 0.79978 0.21224 0.0
C3217 C 0.13523 0.80668 0.20279 0.0
C3218 C 0.12672 0.79594 0.21789 0.0
C3219 C 0.116 0.79899 0.21427 0.0
C3220 C 0.11501 0.80594 0.20485 0.0
C3221 C 0.12452 0.80969 0.19913 0.0
C3222 C 0.08821 0.79873 0.22934 0.0
C3223 C 0.08742 0.78767 0.23319 0.0
C3224 C 0.09734 0.80234 0.22298 0.0
C3225 C 0.10594 0.795 0.22041 0.0
C3226 C 0.10503 0.78388 0.22406 0.0
C3227 C 0.09586 0.78025 0.23033 0.0
H3228 H 0.90797 0.2037 0.19367 0.0
H3229 H 0.88631 0.21588 0.21927 0.0
H3230 H 0.92424 0.21021 0.20427 0.0
H3231 H 0.90248 0.22262 0.22974 0.0
H3232 H 0.93329 0.22358 0.25139 0.0
H3233 H 0.91769 0.21633 0.24056 0.0
H3234 H 0.93423 0.22652 0.21017 0.0
H3235 H 0.95023 0.23317 0.22103 0.0
C3236 C 0.90669 0.20785 0.20152 0.0
C3237 C 0.89586 0.20922 0.20566 0.0
C3238 C 0.91601 0.21162 0.20759 0.0
C3239 C 0.91472 0.21692 0.21791 0.0
C3240 C 0.90385 0.21837 0.22196 0.0
C3241 C 0.89455 0.21453 0.21595 0.0
C3242 C 0.93374 0.2241 0.24239 0.0
C3243 C 0.94311 0.22893 0.23712 0.0
C3244 C 0.92467 0.22009 0.23616 0.0
C3245 C 0.92461 0.2209 0.22447 0.0
C3246 C 0.934 0.22565 0.21916 0.0
C3247 C 0.94314 0.2296 0.2254 0.0
H3248 H 0.22706 0.71243 0.63956 0.0
H3249 H 0.20269 0.69689 0.61777 0.0
H3250 H 0.23494 0.72261 0.62374 0.0
H3251 H 0.21046 0.70728 0.60193 0.0
H3252 H 0.23706 0.71759 0.57534 0.0
H3253 H 0.22786 0.70779 0.59076 0.0
H3254 H 0.23016 0.73757 0.61058 0.0
H3255 H 0.23958 0.74725 0.59532 0.0
C3256 C 0.22337 0.7112 0.63139 0.0
C3257 C 0.21427 0.70382 0.62993 0.0
C3258 C 0.22782 0.71712 0.62233 0.0
C3259 C 0.22332 0.71577 0.61157 0.0
C3260 C 0.21417 0.70844 0.6101 0.0
C3261 C 0.20966 0.70257 0.61919 0.0
C3262 C 0.23558 0.72204 0.58298 0.0
C3263 C 0.23908 0.73321 0.58408 0.0
C3264 C 0.23022 0.71646 0.59179 0.0
C3265 C 0.22832 0.72188 0.60192 0.0
C3266 C 0.23161 0.73311 0.60293 0.0
C3267 C 0.2369 0.7387 0.59412 0.0
H3268 H 0.82154 0.69571 0.61948 0.0
H3269 H 0.80672 0.71927 0.64166 0.0
H3270 H 0.81521 0.70661 0.60345 0.0
H3271 H 0.80015 0.73002 0.62572 0.0
H3272 H 0.79927 0.75295 0.59593 0.0
H3273 H 0.8065 0.74194 0.61129 0.0
H3274 H 0.79904 0.71185 0.59306 0.0
H3275 H 0.79244 0.72294 0.57733 0.0
C3276 C 0.81685 0.70318 0.62092 0.0
C3277 C 0.81469 0.70666 0.63184 0.0
C3278 C 0.81318 0.70941 0.61173 0.0
C3279 C 0.80719 0.71924 0.61325 0.0
C3280 C 0.80495 0.72265 0.6242 0.0
C3281 C 0.80869 0.71647 0.63336 0.0
C3282 C 0.79937 0.744 0.59506 0.0
C3283 C 0.7953 0.73887 0.5853 0.0
C3284 C 0.80335 0.73765 0.60399 0.0
C3285 C 0.80329 0.72597 0.60351 0.0
C3286 C 0.79932 0.72082 0.59372 0.0
C3287 C 0.7954 0.72719 0.58473 0.0
H3288 H 0.80445 0.331 0.62563 0.0
H3289 H 0.82596 0.30385 0.63468 0.0
H3290 H 0.79782 0.32063 0.60945 0.0
H3291 H 0.81946 0.29359 0.61837 0.0
H3292 H 0.81267 0.28295 0.58224 0.0
H3293 H 0.81992 0.29412 0.59765 0.0
H3294 H 0.78642 0.3037 0.60576 0.0
H3295 H 0.77912 0.2924 0.59055 0.0
C3296 C 0.80774 0.32281 0.62422 0.0
C3297 C 0.81571 0.31826 0.63154 0.0
C3298 C 0.80395 0.31688 0.61491 0.0
C3299 C 0.8081 0.30628 0.61262 0.0
C3300 C 0.81621 0.3018 0.61981 0.0
C3301 C 0.81994 0.3077 0.62917 0.0
C3302 C 0.80683 0.2874 0.58733 0.0
C3303 C 0.79529 0.28674 0.58511 0.0
C3304 C 0.811 0.29381 0.59616 0.0
C3305 C 0.80375 0.29979 0.60295 0.0
C3306 C 0.79225 0.29932 0.6006 0.0
C3307 C 0.78807 0.29286 0.59183 0.0
H3308 H 0.22637 0.32555 0.62356 0.0
H3309 H 0.20976 0.29495 0.6336 0.0
H3310 H 0.23408 0.31623 0.60749 0.0
H3311 H 0.21742 0.28565 0.61739 0.0
H3312 H 0.22606 0.27567 0.58123 0.0
H3313 H 0.21699 0.28519 0.59657 0.0
H3314 H 0.24813 0.30192 0.60462 0.0
H3315 H 0.2572 0.29235 0.58953 0.0
C3316 C 0.22439 0.31682 0.62238 0.0
C3317 C 0.21754 0.31098 0.62998 0.0
C3318 C 0.2288 0.31148 0.61314 0.0
C3319 C 0.22645 0.30017 0.6112 0.0
C3320 C 0.21932 0.29439 0.61859 0.0
C3321 C 0.21493 0.29974 0.62788 0.0
C3322 C 0.23098 0.28135 0.5863 0.0
C3323 C 0.24236 0.28329 0.58404 0.0
C3324 C 0.22577 0.2868 0.59509 0.0
C3325 C 0.23182 0.29437 0.60177 0.0
C3326 C 0.24317 0.29632 0.5995 0.0
C3327 C 0.24837 0.29084 0.59079 0.0
H3328 H 0.22502 0.32189 0.40452 0.0
H3329 H 0.20694 0.29299 0.39241 0.0
H3330 H 0.23191 0.31102 0.42029 0.0
H3331 H 0.21371 0.28218 0.40826 0.0
H3332 H 0.21941 0.26911 0.44368 0.0
H3333 H 0.212 0.28074 0.42871 0.0
H3334 H 0.2447 0.2955 0.42381 0.0
H3335 H 0.25217 0.28379 0.43866 0.0
C3336 C 0.22255 0.31321 0.40517 0.0
C3337 C 0.21544 0.30833 0.39714 0.0
C3338 C 0.22649 0.30698 0.41424 0.0
C3339 C 0.22336 0.29573 0.41555 0.0
C3340 C 0.21615 0.29088 0.4076 0.0
C3341 C 0.21226 0.29709 0.3985 0.0
C3342 C 0.22504 0.27481 0.4394 0.0
C3343 C 0.23641 0.27546 0.44238 0.0
C3344 C 0.22078 0.28148 0.43081 0.0
C3345 C 0.22777 0.28901 0.42503 0.0
C3346 C 0.23906 0.28988 0.42818 0.0
C3347 C 0.24334 0.28317 0.43673 0.0
H3348 H 0.20154 0.70328 0.40578 0.0
H3349 H 0.20772 0.73317 0.38644 0.0
H3350 H 0.21082 0.71184 0.42186 0.0
H3351 H 0.21701 0.74167 0.40241 0.0
H3352 H 0.22127 0.75832 0.43579 0.0
H3353 H 0.21209 0.74893 0.42033 0.0
H3354 H 0.22883 0.71852 0.42907 0.0
H3355 H 0.23772 0.72784 0.44493 0.0
C3356 C 0.20499 0.71162 0.40492 0.0
C3357 C 0.20379 0.71758 0.39485 0.0
C3358 C 0.21031 0.71653 0.41413 0.0
C3359 C 0.21456 0.72749 0.41348 0.0
C3360 C 0.21361 0.73331 0.40331 0.0
C3361 C 0.20829 0.72843 0.39414 0.0
C3362 C 0.22287 0.74958 0.43458 0.0
C3363 C 0.23023 0.74385 0.44167 0.0
C3364 C 0.21771 0.74423 0.42558 0.0
C3365 C 0.21979 0.73299 0.42337 0.0
C3366 C 0.227 0.72717 0.43056 0.0
C3367 C 0.23217 0.73254 0.43959 0.0
H3368 H 0.82724 0.69942 0.40568 0.0
H3369 H 0.82036 0.73033 0.38862 0.0
H3370 H 0.81705 0.70581 0.42191 0.0
H3371 H 0.81011 0.73667 0.40474 0.0
H3372 H 0.80137 0.74956 0.43867 0.0
H3373 H 0.81274 0.74275 0.42354 0.0
H3374 H 0.79852 0.70981 0.42818 0.0
H3375 H 0.78754 0.71651 0.44369 0.0
C3376 C 0.82348 0.70754 0.40536 0.0
C3377 C 0.82466 0.71437 0.39586 0.0
C3378 C 0.81763 0.71121 0.41467 0.0
C3379 C 0.8128 0.7218 0.41469 0.0
C3380 C 0.81392 0.72858 0.40514 0.0
C3381 C 0.81979 0.72493 0.39586 0.0
C3382 C 0.80082 0.74081 0.43664 0.0
C3383 C 0.79349 0.7336 0.44242 0.0
C3384 C 0.80723 0.73694 0.42783 0.0
C3385 C 0.80648 0.72574 0.42453 0.0
C3386 C 0.79938 0.71846 0.43051 0.0
C3387 C 0.79298 0.72234 0.43935 0.0
H3388 H 0.81249 0.33016 0.40404 0.0
H3389 H 0.82882 0.30079 0.39223 0.0
H3390 H 0.80523 0.31959 0.41991 0.0
H3391 H 0.82167 0.29028 0.40817 0.0
H3392 H 0.81548 0.27727 0.44338 0.0
H3393 H 0.82345 0.28878 0.42852 0.0
H3394 H 0.79164 0.3045 0.42363 0.0
H3395 H 0.78363 0.29293 0.43841 0.0
C3396 C 0.8145 0.32144 0.40478 0.0
C3397 C 0.82123 0.31634 0.3968 0.0
C3398 C 0.81035 0.31538 0.41391 0.0
C3399 C 0.81286 0.30408 0.41532 0.0
C3400 C 0.81971 0.29901 0.40743 0.0
C3401 C 0.82382 0.30505 0.39828 0.0
C3402 C 0.81017 0.28317 0.43913 0.0
C3403 C 0.79888 0.28411 0.44208 0.0
C3404 C 0.81475 0.28977 0.43061 0.0
C3405 C 0.80817 0.29752 0.42483 0.0
C3406 C 0.79698 0.2987 0.42799 0.0
C3407 C 0.79239 0.29207 0.43649 0.0
H3408 H 0.13191 0.70232 0.72012 0.0
H3409 H 0.12211 0.72069 0.69064 0.0
H3410 H 0.1161 0.70979 0.73012 0.0
H3411 H 0.10667 0.72857 0.70078 0.0
H3412 H 0.07442 0.73447 0.71902 0.0
H3413 H 0.0889 0.72467 0.70903 0.0
H3414 H 0.11052 0.72708 0.73791 0.0
H3415 H 0.09603 0.73673 0.74789 0.0
C3416 C 0.12636 0.70789 0.71574 0.0
C3417 C 0.12835 0.71093 0.70457 0.0
C3418 C 0.11735 0.71229 0.72152 0.0
C3419 C 0.11011 0.71985 0.7163 0.0
C3420 C 0.11198 0.72269 0.70506 0.0
C3421 C 0.12095 0.71828 0.69928 0.0
C3422 C 0.08226 0.73287 0.72324 0.0
C3423 C 0.08405 0.73639 0.73426 0.0
C3424 C 0.09058 0.72727 0.7175 0.0
C3425 C 0.10093 0.7251 0.72263 0.0
C3426 C 0.10261 0.72842 0.73373 0.0
C3427 C 0.09428 0.73397 0.73947 0.0
H3428 H 0.80318 0.63287 0.70753 0.0
H3429 H 0.83194 0.62155 0.72605 0.0
H3430 H 0.79247 0.61671 0.71412 0.0
H3431 H 0.82118 0.6055 0.73272 0.0
H3432 H 0.79417 0.58668 0.75294 0.0
H3433 H 0.80551 0.60188 0.74538 0.0
H3434 H 0.79123 0.59621 0.71274 0.0
H3435 H 0.77994 0.58085 0.72027 0.0
C3436 C 0.80727 0.62688 0.7129 0.0
C3437 C 0.81842 0.62857 0.7163 0.0
C3438 C 0.80111 0.61762 0.71668 0.0
C3439 C 0.80595 0.60984 0.72399 0.0
C3440 C 0.81715 0.61143 0.72725 0.0
C3441 C 0.82331 0.62066 0.72344 0.0
C3442 C 0.79358 0.58851 0.7441 0.0
C3443 C 0.78614 0.58248 0.73722 0.0
C3444 C 0.80007 0.59727 0.73978 0.0
C3445 C 0.79927 0.60027 0.72846 0.0
C3446 C 0.79192 0.5942 0.72153 0.0
C3447 C 0.78546 0.5854 0.72585 0.0
H3448 H 0.90844 0.3192 0.70588 0.0
H3449 H 0.88674 0.29317 0.71871 0.0
H3450 H 0.92433 0.31071 0.71535 0.0
H3451 H 0.90252 0.28476 0.72824 0.0
H3452 H 0.93429 0.26527 0.73218 0.0
H3453 H 0.91882 0.2747 0.72331 0.0
H3454 H 0.93282 0.30642 0.73337 0.0
H3455 H 0.94868 0.29695 0.74188 0.0
C3456 C 0.90703 0.31176 0.71085 0.0
C3457 C 0.89634 0.3068 0.71144 0.0
C3458 C 0.91614 0.30689 0.71629 0.0
C3459 C 0.91475 0.29697 0.72247 0.0
C3460 C 0.90397 0.29225 0.72334 0.0
C3461 C 0.8949 0.29708 0.71789 0.0
C3462 C 0.93421 0.27427 0.73237 0.0
C3463 C 0.94282 0.28033 0.73769 0.0
C3464 C 0.92521 0.27968 0.72742 0.0
C3465 C 0.92449 0.29133 0.72769 0.0
C3466 C 0.93313 0.29744 0.73294 0.0
C3467 C 0.94217 0.292 0.73792 0.0
H3468 H 0.21558 0.37734 0.73039 0.0
H3469 H 0.20416 0.39632 0.70194 0.0
H3470 H 0.2247 0.39392 0.73788 0.0
H3471 H 0.21324 0.413 0.7095 0.0
H3472 H 0.23956 0.4385 0.72233 0.0
H3473 H 0.23118 0.42188 0.71388 0.0
H3474 H 0.21935 0.4111 0.7462 0.0
H3475 H 0.22807 0.42734 0.75466 0.0
C3476 C 0.21497 0.38507 0.72575 0.0
C3477 C 0.20906 0.38551 0.71561 0.0
C3478 C 0.22019 0.3946 0.73006 0.0
C3479 C 0.21961 0.40485 0.72437 0.0
C3480 C 0.21394 0.40524 0.71406 0.0
C3481 C 0.20873 0.39567 0.70973 0.0
C3482 C 0.23521 0.43255 0.72763 0.0
C3483 C 0.23447 0.43431 0.73918 0.0
C3484 C 0.23033 0.42306 0.72277 0.0
C3485 C 0.22464 0.4151 0.72936 0.0
C3486 C 0.22381 0.41695 0.74088 0.0
C3487 C 0.22867 0.42639 0.74572 0.0
H3488 H 0.1275 0.31565 0.312 0.0
H3489 H 0.13415 0.28261 0.32452 0.0
H3490 H 0.11238 0.30815 0.30046 0.0
H3491 H 0.11873 0.27521 0.3134 0.0
H3492 H 0.09952 0.26407 0.2823 0.0
H3493 H 0.11422 0.27164 0.29424 0.0
H3494 H 0.09381 0.29996 0.30134 0.0
H3495 H 0.07909 0.29239 0.28929 0.0
C3496 C 0.12573 0.30679 0.31231 0.0
C3497 C 0.13209 0.29974 0.31919 0.0
C3498 C 0.11696 0.3025 0.30579 0.0
C3499 C 0.11432 0.29106 0.30598 0.0
C3500 C 0.12061 0.28404 0.31294 0.0
C3501 C 0.12938 0.28832 0.31943 0.0
C3502 C 0.0981 0.27184 0.28653 0.0
C3503 C 0.0881 0.2776 0.28487 0.0
C3504 C 0.10654 0.27619 0.29338 0.0
C3505 C 0.10521 0.28641 0.29879 0.0
C3506 C 0.09519 0.29215 0.29719 0.0
C3507 C 0.08673 0.2878 0.29029 0.0
H3508 H 0.22677 0.63519 0.31872 0.0
H3509 H 0.19522 0.61861 0.32519 0.0
H3510 H 0.23322 0.6188 0.30909 0.0
H3511 H 0.20172 0.6021 0.31564 0.0
H3512 H 0.21302 0.57953 0.28705 0.0
H3513 H 0.20622 0.59531 0.29748 0.0
H3514 H 0.23892 0.60008 0.31221 0.0
H3515 H 0.24586 0.58469 0.30136 0.0
C3516 C 0.22125 0.62799 0.31819 0.0
C3517 C 0.21048 0.62822 0.32276 0.0
C3518 C 0.22496 0.61856 0.31268 0.0
C3519 C 0.21803 0.60906 0.31162 0.0
C3520 C 0.20724 0.60929 0.31617 0.0
C3521 C 0.20351 0.61877 0.32165 0.0
C3522 C 0.21878 0.58397 0.29249 0.0
C3523 C 0.23002 0.58084 0.29329 0.0
C3524 C 0.21484 0.59296 0.29858 0.0
C3525 C 0.22203 0.59905 0.30565 0.0
C3526 C 0.23318 0.59571 0.30671 0.0
C3527 C 0.23713 0.58675 0.3006 0.0
H3528 H 0.90946 0.70909 0.32424 0.0
H3529 H 0.89136 0.71412 0.29342 0.0
H3530 H 0.92509 0.72012 0.31693 0.0
H3531 H 0.90689 0.72523 0.28615 0.0
H3532 H 0.94028 0.73609 0.27215 0.0
H3533 H 0.92573 0.72388 0.27971 0.0
H3534 H 0.93029 0.7389 0.31205 0.0
H3535 H 0.9452 0.75072 0.30461 0.0
C3536 C 0.90878 0.71264 0.31594 0.0
C3537 C 0.89916 0.71071 0.30941 0.0
C3538 C 0.91774 0.71896 0.31174 0.0
C3539 C 0.91729 0.72355 0.30093 0.0
C3540 C 0.90764 0.72165 0.29443 0.0
C3541 C 0.89871 0.7153 0.29861 0.0
C3542 C 0.93834 0.73664 0.28092 0.0
C3543 C 0.94392 0.74443 0.28775 0.0
C3544 C 0.92987 0.72974 0.28523 0.0
C3545 C 0.92674 0.73046 0.29648 0.0
C3546 C 0.93251 0.73805 0.30338 0.0
C3547 C 0.94099 0.74493 0.29907 0.0
H3548 H 0.83669 0.39155 0.29441 0.0
H3549 H 0.82294 0.39702 0.32706 0.0
H3550 H 0.82671 0.40755 0.28719 0.0
H3551 H 0.81253 0.41274 0.3197 0.0
H3552 H 0.80354 0.44681 0.30523 0.0
H3553 H 0.81468 0.43156 0.31262 0.0
H3554 H 0.80797 0.41279 0.28269 0.0
H3555 H 0.79693 0.42799 0.27533 0.0
C3556 C 0.83158 0.39619 0.30007 0.0
C3557 C 0.83065 0.39297 0.31134 0.0
C3558 C 0.82573 0.4053 0.29589 0.0
C3559 C 0.81876 0.41144 0.30284 0.0
C3560 C 0.8179 0.40829 0.31413 0.0
C3561 C 0.82376 0.39917 0.31832 0.0
C3562 C 0.80445 0.43942 0.30024 0.0
C3563 C 0.79937 0.43866 0.28966 0.0
C3564 C 0.81082 0.43066 0.30448 0.0
C3565 C 0.81224 0.42092 0.29826 0.0
C3566 C 0.80724 0.42023 0.28765 0.0
C3567 C 0.8009 0.42897 0.28341 0.0
H3568 H 0.19065 0.61766 0.72173 0.0
H3569 H 0.21883 0.62871 0.70203 0.0
H3570 H 0.20117 0.60163 0.72816 0.0
H3571 H 0.22926 0.61259 0.70834 0.0
H3572 H 0.24105 0.57707 0.71381 0.0
H3573 H 0.2295 0.59215 0.70683 0.0
H3574 H 0.21749 0.59773 0.74013 0.0
H3575 H 0.22914 0.58277 0.74716 0.0
C3576 C 0.1991 0.61672 0.7188 0.0
C3577 C 0.20388 0.62454 0.71137 0.0
C3578 C 0.20512 0.6075 0.72247 0.0
C3579 C 0.21606 0.60581 0.71877 0.0
C3580 C 0.22079 0.61354 0.71123 0.0
C3581 C 0.2148 0.62279 0.7076 0.0
C3582 C 0.23597 0.58152 0.71966 0.0
C3583 C 0.2361 0.57871 0.73108 0.0
C3584 C 0.22935 0.59017 0.71565 0.0
C3585 C 0.22262 0.5962 0.72292 0.0
C3586 C 0.22248 0.59318 0.73427 0.0
C3587 C 0.22915 0.58456 0.7383 0.0
H3588 H 0.19376 0.39071 0.29979 0.0
H3589 H 0.21657 0.38929 0.3278 0.0
H3590 H 0.20302 0.40765 0.29322 0.0
H3591 H 0.22624 0.40588 0.32087 0.0
H3592 H 0.23527 0.44147 0.31138 0.0
H3593 H 0.22458 0.4255 0.31842 0.0
H3594 H 0.21994 0.41375 0.28473 0.0
H3595 H 0.23044 0.42982 0.27773 0.0
C3596 C 0.20073 0.39402 0.30458 0.0
C3597 C 0.20439 0.3886 0.31436 0.0
C3598 C 0.20615 0.40368 0.30072 0.0
C3599 C 0.21542 0.40816 0.30648 0.0
C3600 C 0.21905 0.40277 0.31628 0.0
C3601 C 0.21359 0.39314 0.32017 0.0
C3602 C 0.23192 0.43549 0.30549 0.0
C3603 C 0.2337 0.43692 0.29399 0.0
C3604 C 0.22583 0.4263 0.30952 0.0
C3605 C 0.22143 0.41826 0.30217 0.0
C3606 C 0.22304 0.41983 0.29065 0.0
C3607 C 0.22907 0.42905 0.28662 0.0
H3608 H 0.11839 0.70478 0.32525 0.0
H3609 H 0.13677 0.71072 0.29491 0.0
H3610 H 0.10299 0.7157 0.31786 0.0
H3611 H 0.1215 0.72175 0.28757 0.0
H3612 H 0.08854 0.73207 0.27287 0.0
H3613 H 0.10285 0.72015 0.28064 0.0
H3614 H 0.0978 0.73436 0.31314 0.0
H3615 H 0.08303 0.74588 0.30547 0.0
C3616 C 0.11918 0.7085 0.31704 0.0
C3617 C 0.1288 0.70684 0.31066 0.0
C3618 C 0.11035 0.71477 0.3128 0.0
C3619 C 0.11094 0.71959 0.30208 0.0
C3620 C 0.12062 0.71798 0.29575 0.0
C3621 C 0.12941 0.71167 0.29997 0.0
C3622 C 0.09029 0.73251 0.28172 0.0
C3623 C 0.08459 0.73997 0.28853 0.0
C3624 C 0.09865 0.72578 0.28616 0.0
C3625 C 0.1016 0.72634 0.29751 0.0
C3626 C 0.09573 0.73362 0.30438 0.0
C3627 C 0.08732 0.74033 0.29994 0.0
H3628 H 0.83326 0.62749 0.30985 0.0
H3629 H 0.80348 0.62709 0.32994 0.0
H3630 H 0.8259 0.6117 0.29927 0.0
H3631 H 0.79638 0.61106 0.31972 0.0
H3632 H 0.78121 0.59183 0.29055 0.0
H3633 H 0.78902 0.60707 0.30141 0.0
H3634 H 0.82138 0.59183 0.30071 0.0
H3635 H 0.81352 0.57646 0.28982 0.0
C3636 C 0.82517 0.62403 0.31203 0.0
C3637 C 0.81897 0.62861 0.32074 0.0
C3638 C 0.821 0.61489 0.30605 0.0
C3639 C 0.81053 0.61011 0.30862 0.0
C3640 C 0.80441 0.6146 0.31742 0.0
C3641 C 0.80856 0.62373 0.32338 0.0
C3642 C 0.78996 0.5916 0.29284 0.0
C3643 C 0.7967 0.58283 0.28937 0.0
C3644 C 0.79445 0.60038 0.29907 0.0
C3645 C 0.80583 0.60067 0.302 0.0
C3646 C 0.81261 0.59194 0.2985 0.0
C3647 C 0.8081 0.58312 0.29227 0.0
H3648 H 0.91711 0.31191 0.33067 0.0
H3649 H 0.89313 0.29767 0.30763 0.0
H3650 H 0.93221 0.30316 0.3206 0.0
H3651 H 0.90813 0.28872 0.29771 0.0
H3652 H 0.93765 0.28168 0.27612 0.0
H3653 H 0.92348 0.29199 0.2858 0.0
H3654 H 0.94019 0.28554 0.31716 0.0
H3655 H 0.95479 0.27582 0.30737 0.0
C3656 C 0.91506 0.30686 0.32348 0.0
C3657 C 0.90392 0.30551 0.31994 0.0
C3658 C 0.92371 0.30181 0.31772 0.0
C3659 C 0.92143 0.29521 0.30831 0.0
C3660 C 0.91027 0.29391 0.30477 0.0
C3661 C 0.90164 0.29902 0.31048 0.0
C3662 C 0.93847 0.28265 0.28505 0.0
C3663 C 0.94744 0.2779 0.29093 0.0
C3664 C 0.93021 0.28843 0.29065 0.0
C3665 C 0.93059 0.28954 0.3023 0.0
C3666 C 0.93965 0.28495 0.30817 0.0
C3667 C 0.94797 0.27923 0.30256 0.0
H3668 H 0.83765 0.40091 0.72689 0.0
H3669 H 0.80792 0.39086 0.70881 0.0
H3670 H 0.82793 0.41683 0.73421 0.0
H3671 H 0.79833 0.40712 0.71571 0.0
H3672 H 0.78113 0.42879 0.74189 0.0
H3673 H 0.79067 0.41368 0.7328 0.0
H3674 H 0.82021 0.43451 0.72956 0.0
H3675 H 0.81066 0.44961 0.73881 0.0
C3676 C 0.82904 0.40211 0.72444 0.0
C3677 C 0.82356 0.39451 0.71733 0.0
C3678 C 0.8235 0.41136 0.72852 0.0
C3679 C 0.81232 0.4133 0.72558 0.0
C3680 C 0.80689 0.40583 0.71828 0.0
C3681 C 0.81244 0.39656 0.71421 0.0
C3682 C 0.78959 0.43022 0.73907 0.0
C3683 C 0.79512 0.44042 0.7411 0.0
C3684 C 0.79508 0.42154 0.73384 0.0
C3685 C 0.80625 0.42283 0.73046 0.0
C3686 C 0.81169 0.43314 0.73222 0.0
C3687 C 0.8062 0.44182 0.7375 0.0
H3688 H 0.12336 0.31675 0.70616 0.0
H3689 H 0.13927 0.28532 0.71231 0.0
H3690 H 0.10729 0.31046 0.71704 0.0
H3691 H 0.12331 0.27907 0.72329 0.0
H3692 H 0.08916 0.26687 0.73388 0.0
H3693 H 0.10412 0.27347 0.72177 0.0
H3694 H 0.10176 0.30631 0.73581 0.0
H3695 H 0.08641 0.29985 0.74751 0.0
C3696 C 0.12346 0.30853 0.70991 0.0
C3697 C 0.1326 0.30153 0.70835 0.0
C3698 C 0.11425 0.30491 0.71616 0.0
C3699 C 0.11396 0.29423 0.72103 0.0
C3700 C 0.12312 0.28726 0.71948 0.0
C3701 C 0.1323 0.29085 0.7132 0.0
C3702 C 0.09166 0.27556 0.73423 0.0
C3703 C 0.08656 0.28281 0.74171 0.0
C3704 C 0.10037 0.27931 0.72739 0.0
C3705 C 0.10425 0.2904 0.72787 0.0
C3706 C 0.09896 0.29773 0.73514 0.0
C3707 C 0.09023 0.29399 0.74196 0.0
H3708 H 0.90932 0.70768 0.70022 0.0
H3709 H 0.88662 0.71977 0.72496 0.0
H3710 H 0.9251 0.71527 0.71089 0.0
H3711 H 0.90239 0.72715 0.73573 0.0
H3712 H 0.93181 0.75023 0.74465 0.0
H3713 H 0.91639 0.7423 0.73383 0.0
H3714 H 0.93523 0.71248 0.72881 0.0
H3715 H 0.95081 0.72054 0.73947 0.0
C3716 C 0.90771 0.71195 0.70794 0.0
C3717 C 0.89672 0.71315 0.71173 0.0
C3718 C 0.91675 0.7162 0.7141 0.0
C3719 C 0.915 0.72185 0.72414 0.0
C3720 C 0.90402 0.72295 0.72797 0.0
C3721 C 0.89499 0.71863 0.72186 0.0
C3722 C 0.93273 0.74204 0.74113 0.0
C3723 C 0.94257 0.73604 0.74288 0.0
C3724 C 0.92383 0.73743 0.73504 0.0
C3725 C 0.92456 0.72673 0.73051 0.0
C3726 C 0.93444 0.72077 0.73214 0.0
C3727 C 0.94333 0.72535 0.73831 0.0
H3728 H 0.70924 0.19708 0.6193 0.0
H3729 H 0.72954 0.21804 0.64064 0.0
H3730 H 0.71677 0.20674 0.60291 0.0
H3731 H 0.7372 0.22754 0.62429 0.0
H3732 H 0.74187 0.24884 0.5933 0.0
H3733 H 0.73188 0.24011 0.60882 0.0
H3734 H 0.73502 0.20805 0.59331 0.0
H3735 H 0.74482 0.21682 0.57768 0.0
C3736 C 0.71523 0.20381 0.62049 0.0
C3737 C 0.71882 0.20677 0.63127 0.0
C3738 C 0.71961 0.20928 0.61111 0.0
C3739 C 0.7276 0.2179 0.61229 0.0
C3740 C 0.73099 0.22102 0.62308 0.0
C3741 C 0.72668 0.21549 0.63245 0.0
C3742 C 0.74023 0.23996 0.59309 0.0
C3743 C 0.74416 0.23352 0.58426 0.0
C3744 C 0.73461 0.23494 0.60204 0.0
C3745 C 0.73272 0.22337 0.60234 0.0
C3746 C 0.73628 0.21699 0.59331 0.0
C3747 C 0.74197 0.222 0.58439 0.0
H3748 H 0.29483 0.20369 0.64008 0.0
H3749 H 0.32416 0.1945 0.62185 0.0
H3750 H 0.28797 0.21377 0.6238 0.0
H3751 H 0.31723 0.20445 0.60547 0.0
H3752 H 0.30689 0.23345 0.58258 0.0
H3753 H 0.31394 0.22282 0.59842 0.0
H3754 H 0.28047 0.21104 0.60554 0.0
H3755 H 0.27336 0.22213 0.59011 0.0
C3756 C 0.29976 0.20372 0.63254 0.0
C3757 C 0.31004 0.19828 0.63226 0.0
C3758 C 0.29582 0.20948 0.62319 0.0
C3759 C 0.30201 0.2099 0.61327 0.0
C3760 C 0.3123 0.20444 0.61299 0.0
C3761 C 0.31628 0.19873 0.62239 0.0
C3762 C 0.30102 0.22864 0.58756 0.0
C3763 C 0.28954 0.22871 0.58506 0.0
C3764 C 0.30509 0.22243 0.59658 0.0
C3765 C 0.29778 0.2161 0.60333 0.0
C3766 C 0.28634 0.21595 0.60065 0.0
C3767 C 0.28227 0.22219 0.59167 0.0
H3768 H 0.32423 0.80634 0.63108 0.0
H3769 H 0.29632 0.82847 0.62789 0.0
H3770 H 0.31719 0.79567 0.61526 0.0
H3771 H 0.28945 0.81791 0.61192 0.0
H3772 H 0.28694 0.80213 0.57693 0.0
H3773 H 0.29442 0.81329 0.59227 0.0
H3774 H 0.30089 0.78333 0.61111 0.0
H3775 H 0.29321 0.77219 0.59599 0.0
C3776 C 0.31657 0.80892 0.62706 0.0
C3777 C 0.31084 0.81827 0.63084 0.0
C3778 C 0.31255 0.80281 0.61796 0.0
C3779 C 0.30275 0.80593 0.61233 0.0
C3780 C 0.2971 0.81537 0.61598 0.0
C3781 C 0.30107 0.82143 0.62514 0.0
C3782 C 0.28988 0.79791 0.58436 0.0
C3783 C 0.28951 0.78622 0.58514 0.0
C3784 C 0.29419 0.80432 0.59315 0.0
C3785 C 0.2983 0.7992 0.60289 0.0
C3786 C 0.29797 0.78753 0.60365 0.0
C3787 C 0.2936 0.78114 0.59493 0.0
H3788 H 0.73078 0.8328 0.62364 0.0
H3789 H 0.71184 0.8031 0.6322 0.0
H3790 H 0.73874 0.82329 0.60783 0.0
H3791 H 0.71938 0.79375 0.61602 0.0
H3792 H 0.7459 0.77673 0.59479 0.0
H3793 H 0.73658 0.78612 0.60992 0.0
H3794 H 0.73467 0.81596 0.58973 0.0
H3795 H 0.74415 0.80656 0.57462 0.0
C3796 C 0.72829 0.82424 0.62214 0.0
C3797 C 0.72072 0.8187 0.62928 0.0
C3798 C 0.73274 0.81882 0.61295 0.0
C3799 C 0.72972 0.80773 0.61061 0.0
C3800 C 0.72201 0.80225 0.61763 0.0
C3801 C 0.71757 0.80766 0.62685 0.0
C3802 C 0.74333 0.78524 0.5935 0.0
C3803 C 0.74577 0.79088 0.58348 0.0
C3804 C 0.73798 0.79064 0.60219 0.0
C3805 C 0.73488 0.80182 0.60109 0.0
C3806 C 0.73711 0.8074 0.59096 0.0
C3807 C 0.74251 0.80201 0.58228 0.0
H3808 H 0.70229 0.80761 0.40155 0.0
H3809 H 0.73433 0.82334 0.39524 0.0
H3810 H 0.71053 0.79686 0.41675 0.0
H3811 H 0.74242 0.813 0.41073 0.0
H3812 H 0.75602 0.78332 0.43018 0.0
H3813 H 0.74764 0.79433 0.41535 0.0
H3814 H 0.71824 0.79858 0.4354 0.0
H3815 H 0.72664 0.78745 0.45028 0.0
C3816 C 0.71108 0.80879 0.4034 0.0
C3817 C 0.71764 0.81634 0.39713 0.0
C3818 C 0.71578 0.80273 0.41222 0.0
C3819 C 0.72715 0.80405 0.41498 0.0
C3820 C 0.73367 0.81166 0.40876 0.0
C3821 C 0.72899 0.8177 0.39995 0.0
C3822 C 0.74783 0.78672 0.43151 0.0
C3823 C 0.74204 0.78455 0.44146 0.0
C3824 C 0.74301 0.79305 0.42298 0.0
C3825 C 0.73227 0.79739 0.42417 0.0
C3826 C 0.72647 0.79524 0.43414 0.0
C3827 C 0.73129 0.78889 0.44268 0.0
H3828 H 0.69914 0.20715 0.40952 0.0
H3829 H 0.72375 0.21997 0.38643 0.0
H3830 H 0.71014 0.21459 0.42509 0.0
H3831 H 0.73483 0.22721 0.40198 0.0
H3832 H 0.74503 0.24946 0.43109 0.0
H3833 H 0.73343 0.24203 0.41604 0.0
H3834 H 0.7283 0.21161 0.43483 0.0
H3835 H 0.73976 0.21916 0.45003 0.0
C3836 C 0.70689 0.21155 0.40777 0.0
C3837 C 0.71056 0.21297 0.39673 0.0
C3838 C 0.71324 0.21573 0.41669 0.0
C3839 C 0.72334 0.22152 0.41477 0.0
C3840 C 0.72702 0.22289 0.40373 0.0
C3841 C 0.72073 0.21864 0.39483 0.0
C3842 C 0.7413 0.24125 0.4321 0.0
C3843 C 0.7433 0.23492 0.44179 0.0
C3844 C 0.73476 0.23694 0.42341 0.0
C3845 C 0.73 0.2262 0.4242 0.0
C3846 C 0.7318 0.21994 0.43398 0.0
C3847 C 0.73843 0.22422 0.44266 0.0
H3848 H 0.30573 0.20605 0.38798 0.0
H3849 H 0.33461 0.20366 0.40953 0.0
H3850 H 0.29463 0.21209 0.40367 0.0
H3851 H 0.32348 0.20959 0.42529 0.0
H3852 H 0.30327 0.23293 0.4474 0.0
H3853 H 0.31453 0.22582 0.43229 0.0
H3854 H 0.2864 0.20598 0.42084 0.0
H3855 H 0.275 0.21351 0.43559 0.0
C3856 C 0.30968 0.20667 0.39611 0.0
C3857 C 0.32107 0.20438 0.39749 0.0
C3858 C 0.3033 0.21012 0.40512 0.0
C3859 C 0.30814 0.21134 0.41578 0.0
C3860 C 0.31951 0.20892 0.41718 0.0
C3861 C 0.3259 0.20551 0.40815 0.0
C3862 C 0.29946 0.22709 0.44163 0.0
C3863 C 0.28819 0.22385 0.44271 0.0
C3864 C 0.30597 0.2229 0.43303 0.0
C3865 C 0.30138 0.21535 0.42529 0.0
C3866 C 0.29018 0.21191 0.42654 0.0
C3867 C 0.28367 0.21611 0.43512 0.0
H3868 H 0.3256 0.8089 0.3996 0.0
H3869 H 0.29682 0.82964 0.39499 0.0
H3870 H 0.31674 0.8001 0.41578 0.0
H3871 H 0.28807 0.82096 0.41116 0.0
H3872 H 0.27996 0.81128 0.44672 0.0
H3873 H 0.29019 0.82001 0.43141 0.0
H3874 H 0.30079 0.78774 0.42054 0.0
H3875 H 0.29049 0.77897 0.43583 0.0
C3876 C 0.31737 0.81154 0.40199 0.0
C3877 C 0.31197 0.82004 0.396 0.0
C3878 C 0.3123 0.80651 0.41128 0.0
C3879 C 0.30173 0.80988 0.41483 0.0
C3880 C 0.29632 0.81832 0.40881 0.0
C3881 C 0.30135 0.82331 0.39952 0.0
C3882 C 0.28447 0.80603 0.44107 0.0
C3883 C 0.28431 0.79441 0.44247 0.0
C3884 C 0.29033 0.81104 0.43228 0.0
C3885 C 0.29622 0.80457 0.42467 0.0
C3886 C 0.29642 0.79298 0.4263 0.0
C3887 C 0.29053 0.78796 0.43509 0.0
H3888 H 0.62891 0.22512 0.69333 0.0
H3889 H 0.6339 0.20133 0.72001 0.0
H3890 H 0.61259 0.23212 0.70281 0.0
H3891 H 0.61745 0.20826 0.72941 0.0
H3892 H 0.58131 0.21699 0.73791 0.0
H3893 H 0.5969 0.20936 0.72763 0.0
H3894 H 0.60861 0.24263 0.71977 0.0
H3895 H 0.59319 0.25027 0.73015 0.0
C3896 C 0.62658 0.22141 0.70124 0.0
C3897 C 0.6328 0.2127 0.70592 0.0
C3898 C 0.61719 0.22542 0.70667 0.0
C3899 C 0.61373 0.22078 0.71689 0.0
C3900 C 0.61981 0.21193 0.72148 0.0
C3901 C 0.62924 0.20795 0.71608 0.0
C3902 C 0.58723 0.22269 0.73403 0.0
C3903 C 0.58595 0.23427 0.73488 0.0
C3904 C 0.59616 0.2183 0.72813 0.0
C3905 C 0.60401 0.22538 0.72288 0.0
C3906 C 0.60263 0.23694 0.72357 0.0
C3907 C 0.59374 0.24132 0.72951 0.0
H3908 H 0.30666 0.13511 0.72672 0.0
H3909 H 0.33046 0.11203 0.71384 0.0
H3910 H 0.29596 0.1197 0.7348 0.0
H3911 H 0.31962 0.09652 0.72169 0.0
H3912 H 0.30316 0.07219 0.74646 0.0
H3913 H 0.31429 0.08749 0.73867 0.0
H3914 H 0.28409 0.10468 0.72979 0.0
H3915 H 0.27304 0.08981 0.73818 0.0
C3916 C 0.30953 0.12671 0.72551 0.0
C3917 C 0.31938 0.12479 0.7196 0.0
C3918 C 0.30338 0.11785 0.73012 0.0
C3919 C 0.30686 0.10681 0.72886 0.0
C3920 C 0.31675 0.1049 0.72298 0.0
C3921 C 0.32296 0.11379 0.71844 0.0
C3922 C 0.29889 0.07928 0.74295 0.0
C3923 C 0.28717 0.07971 0.74297 0.0
C3924 C 0.30528 0.08801 0.73834 0.0
C3925 C 0.30012 0.09737 0.7336 0.0
C3926 C 0.2884 0.09771 0.73351 0.0
C3927 C 0.28203 0.08905 0.73817 0.0
H3928 H 0.39619 0.79372 0.69687 0.0
H3929 H 0.3973 0.82241 0.71833 0.0
H3930 H 0.41238 0.78623 0.70653 0.0
H3931 H 0.41368 0.81499 0.72782 0.0
H3932 H 0.44947 0.80264 0.73466 0.0
H3933 H 0.43375 0.81054 0.72442 0.0
H3934 H 0.4167 0.77865 0.72537 0.0
H3935 H 0.43219 0.77081 0.7358 0.0
C3936 C 0.39982 0.79841 0.70369 0.0
C3937 C 0.39534 0.80865 0.70685 0.0
C3938 C 0.40915 0.79413 0.7092 0.0
C3939 C 0.41431 0.8 0.71796 0.0
C3940 C 0.40998 0.81032 0.72102 0.0
C3941 C 0.40059 0.81458 0.71556 0.0
C3942 C 0.44235 0.79732 0.73275 0.0
C3943 C 0.44217 0.78605 0.73605 0.0
C3944 C 0.43334 0.80185 0.72687 0.0
C3945 C 0.42399 0.79521 0.72406 0.0
C3946 C 0.42385 0.78395 0.72725 0.0
C3947 C 0.43279 0.77944 0.7332 0.0
H3948 H 0.72321 0.88544 0.71779 0.0
H3949 H 0.6943 0.90521 0.71041 0.0
H3950 H 0.73246 0.90159 0.72611 0.0
H3951 H 0.70357 0.9214 0.71864 0.0
H3952 H 0.71783 0.9431 0.74698 0.0
H3953 H 0.70896 0.92789 0.7368 0.0
H3954 H 0.74074 0.91968 0.72251 0.0
H3955 H 0.7497 0.93462 0.7331 0.0
C3956 C 0.71889 0.89328 0.71778 0.0
C3957 C 0.70798 0.894 0.71349 0.0
C3958 C 0.7242 0.90256 0.72255 0.0
C3959 C 0.71875 0.91282 0.72311 0.0
C3960 C 0.70795 0.9136 0.71854 0.0
C3961 C 0.70263 0.90431 0.71382 0.0
C3962 C 0.72294 0.93805 0.74168 0.0
C3963 C 0.7345 0.94006 0.74093 0.0
C3964 C 0.71782 0.92938 0.73572 0.0
C3965 C 0.72413 0.9225 0.72884 0.0
C3966 C 0.73564 0.92471 0.72784 0.0
C3967 C 0.74077 0.93338 0.7338 0.0
H3968 H 0.62589 0.79341 0.33341 0.0
H3969 H 0.63355 0.81732 0.30737 0.0
H3970 H 0.61044 0.78607 0.32226 0.0
H3971 H 0.61773 0.81039 0.29651 0.0
H3972 H 0.59742 0.78653 0.27452 0.0
H3973 H 0.61235 0.79456 0.28585 0.0
H3974 H 0.59217 0.79 0.3153 0.0
H3975 H 0.57726 0.78178 0.30391 0.0
C3976 C 0.62428 0.79713 0.32532 0.0
C3977 C 0.63105 0.80593 0.32129 0.0
C3978 C 0.6153 0.79302 0.31898 0.0
C3979 C 0.61281 0.79762 0.30846 0.0
C3980 C 0.61947 0.80653 0.3045 0.0
C3981 C 0.62848 0.81061 0.31082 0.0
C3982 C 0.5961 0.78737 0.28339 0.0
C3983 C 0.58613 0.78354 0.2883 0.0
C3984 C 0.60468 0.79199 0.28991 0.0
C3985 C 0.6035 0.79296 0.30151 0.0
C3986 C 0.59346 0.78924 0.30641 0.0
C3987 C 0.58489 0.78455 0.29989 0.0
H3988 H 0.72366 0.12279 0.33405 0.0
H3989 H 0.70281 0.13119 0.30581 0.0
H3990 H 0.73014 0.10651 0.32432 0.0
H3991 H 0.70888 0.11453 0.29626 0.0
H3992 H 0.73366 0.09201 0.27779 0.0
H3993 H 0.72512 0.10751 0.28729 0.0
H3994 H 0.72478 0.08846 0.31798 0.0
H3995 H 0.7335 0.07303 0.30849 0.0
C3996 C 0.72043 0.12116 0.32576 0.0
C3997 C 0.71278 0.1284 0.32069 0.0
C3998 C 0.72402 0.1117 0.32023 0.0
C3999 C 0.72003 0.10915 0.30949 0.0
C4000 C 0.71223 0.11628 0.30447 0.0
C4001 C 0.70865 0.12578 0.31001 0.0
C4002 C 0.73158 0.09106 0.28652 0.0
C4003 C 0.73432 0.0813 0.29239 0.0
C4004 C 0.72667 0.09996 0.29198 0.0
C4005 C 0.72433 0.09931 0.30345 0.0
C4006 C 0.72668 0.08937 0.30921 0.0
C4007 C 0.73164 0.0805 0.30376 0.0
H4008 H 0.39134 0.20957 0.29731 0.0
H4009 H 0.40884 0.20289 0.32815 0.0
H4010 H 0.40695 0.22114 0.29098 0.0
H4011 H 0.42456 0.21437 0.32178 0.0
H4012 H 0.44464 0.24582 0.31154 0.0
H4013 H 0.42978 0.2334 0.31806 0.0
H4014 H 0.42587 0.22031 0.28481 0.0
H4015 H 0.44034 0.23314 0.27817 0.0
C4016 C 0.39858 0.21047 0.30269 0.0
C4017 C 0.39884 0.20529 0.31323 0.0
C4018 C 0.40756 0.21709 0.29905 0.0
C4019 C 0.41707 0.21866 0.30583 0.0
C4020 C 0.41733 0.21347 0.31639 0.0
C4021 C 0.40831 0.20688 0.32005 0.0
C4022 C 0.44059 0.24032 0.3056 0.0
C4023 C 0.44366 0.24056 0.2943 0.0
C4024 C 0.43214 0.23309 0.30938 0.0
C4025 C 0.42655 0.22588 0.30196 0.0
C4026 C 0.42986 0.22587 0.29073 0.0
C4027 C 0.43829 0.23313 0.28695 0.0
H4028 H 0.33758 0.89013 0.29164 0.0
H4029 H 0.31967 0.89636 0.32202 0.0
H4030 H 0.32892 0.90614 0.28289 0.0
H4031 H 0.31089 0.91241 0.31317 0.0
H4032 H 0.28837 0.93186 0.28794 0.0
H4033 H 0.29738 0.9169 0.29833 0.0
H4034 H 0.32905 0.92636 0.28383 0.0
H4035 H 0.32007 0.9413 0.27348 0.0
C4036 C 0.3319 0.89499 0.29651 0.0
C4037 C 0.3294 0.89196 0.30758 0.0
C4038 C 0.32692 0.90419 0.29148 0.0
C4039 C 0.31926 0.91062 0.29734 0.0
C4040 C 0.31668 0.90758 0.30838 0.0
C4041 C 0.3217 0.89836 0.31345 0.0
C4042 C 0.29729 0.93088 0.28713 0.0
C4043 C 0.30348 0.93773 0.27979 0.0
C4044 C 0.30246 0.92229 0.29308 0.0
C4045 C 0.31392 0.92034 0.29181 0.0
C4046 C 0.32016 0.92747 0.28481 0.0
C4047 C 0.31502 0.93605 0.27889 0.0
H4048 H 0.71905 0.13781 0.72943 0.0
H4049 H 0.70603 0.11801 0.70228 0.0
H4050 H 0.72972 0.12198 0.73613 0.0
H4051 H 0.71691 0.10219 0.70888 0.0
H4052 H 0.72876 0.07332 0.73201 0.0
H4053 H 0.71772 0.08887 0.72497 0.0
H4054 H 0.74585 0.11116 0.73021 0.0
H4055 H 0.75675 0.09576 0.73743 0.0
C4056 C 0.71844 0.13006 0.72491 0.0
C4057 C 0.71168 0.12917 0.71532 0.0
C4058 C 0.72464 0.12101 0.72869 0.0
C4059 C 0.72419 0.11082 0.72303 0.0
C4060 C 0.71737 0.1099 0.71348 0.0
C4061 C 0.71124 0.11899 0.70963 0.0
C4062 C 0.73256 0.08155 0.73167 0.0
C4063 C 0.74365 0.08328 0.73525 0.0
C4064 C 0.72627 0.09044 0.72756 0.0
C4065 C 0.7309 0.10126 0.72705 0.0
C4066 C 0.742 0.10296 0.73059 0.0
C4067 C 0.74829 0.09409 0.73461 0.0
H4068 H 0.69279 0.89178 0.2957 0.0
H4069 H 0.71139 0.89812 0.32602 0.0
H4070 H 0.70162 0.90794 0.28697 0.0
H4071 H 0.72031 0.91434 0.31721 0.0
H4072 H 0.7428 0.93421 0.29212 0.0
H4073 H 0.73364 0.91907 0.30242 0.0
H4074 H 0.70197 0.92811 0.28787 0.0
H4075 H 0.71111 0.94321 0.27758 0.0
C4076 C 0.69866 0.8967 0.30056 0.0
C4077 C 0.70131 0.89366 0.3116 0.0
C4078 C 0.70373 0.90599 0.29554 0.0
C4079 C 0.71162 0.9125 0.3014 0.0
C4080 C 0.71434 0.90945 0.31242 0.0
C4081 C 0.70924 0.90014 0.31747 0.0
C4082 C 0.73385 0.93309 0.29128 0.0
C4083 C 0.7277 0.93987 0.28395 0.0
C4084 C 0.7286 0.9244 0.29718 0.0
C4085 C 0.71709 0.92229 0.29588 0.0
C4086 C 0.71089 0.92934 0.28888 0.0
C4087 C 0.71613 0.93801 0.28299 0.0
H4088 H 0.62095 0.20519 0.3284 0.0
H4089 H 0.63883 0.21382 0.29835 0.0
H4090 H 0.60507 0.21598 0.32187 0.0
H4091 H 0.62308 0.2247 0.29188 0.0
H4092 H 0.58952 0.23429 0.27805 0.0
H4093 H 0.60442 0.2226 0.28501 0.0
H4094 H 0.59909 0.23469 0.31832 0.0
H4095 H 0.58376 0.24598 0.31144 0.0
C4096 C 0.62153 0.20948 0.32045 0.0
C4097 C 0.63114 0.2086 0.31388 0.0
C4098 C 0.61243 0.21567 0.3167 0.0
C4099 C 0.61274 0.22117 0.3063 0.0
C4100 C 0.62242 0.22039 0.29981 0.0
C4101 C 0.63148 0.21416 0.30353 0.0
C4102 C 0.59134 0.2343 0.2869 0.0
C4103 C 0.5854 0.24111 0.29417 0.0
C4104 C 0.60003 0.22771 0.29087 0.0
C4105 C 0.60307 0.22777 0.30222 0.0
C4106 C 0.59696 0.23437 0.30955 0.0
C4107 C 0.58823 0.24095 0.30557 0.0
H4108 H 0.30057 0.13266 0.31175 0.0
H4109 H 0.33101 0.11542 0.31947 0.0
H4110 H 0.29412 0.11698 0.30059 0.0
H4111 H 0.3245 0.09961 0.3084 0.0
H4112 H 0.31387 0.07849 0.27812 0.0
H4113 H 0.32072 0.09384 0.28958 0.0
H4114 H 0.28752 0.09821 0.30242 0.0
H4115 H 0.28057 0.08329 0.29057 0.0
C4116 C 0.30585 0.12547 0.31115 0.0
C4117 C 0.31629 0.12528 0.31654 0.0
C4118 C 0.30213 0.11645 0.30476 0.0
C4119 C 0.30874 0.10697 0.30364 0.0
C4120 C 0.31924 0.10682 0.30897 0.0
C4121 C 0.32298 0.11588 0.31532 0.0
C4122 C 0.30801 0.08276 0.28335 0.0
C4123 C 0.29664 0.07965 0.28337 0.0
C4124 C 0.31198 0.09149 0.29002 0.0
C4125 C 0.30467 0.09733 0.2969 0.0
C4126 C 0.29336 0.09403 0.29711 0.0
C4127 C 0.2894 0.08534 0.29042 0.0
H4128 H 0.40545 0.79545 0.33757 0.0
H4129 H 0.39581 0.81153 0.30673 0.0
H4130 H 0.42113 0.78704 0.32823 0.0
H4131 H 0.41183 0.80355 0.29751 0.0
H4132 H 0.43281 0.77596 0.282 0.0
H4133 H 0.41788 0.78582 0.29108 0.0
H4134 H 0.43898 0.79082 0.32001 0.0
H4135 H 0.45391 0.78082 0.31092 0.0
C4136 C 0.40669 0.79722 0.3288 0.0
C4137 C 0.39928 0.80411 0.3229 0.0
C4138 C 0.41579 0.79252 0.32347 0.0
C4139 C 0.41778 0.79459 0.31209 0.0
C4140 C 0.4105 0.80165 0.30624 0.0
C4141 C 0.40137 0.80634 0.31157 0.0
C4142 C 0.43434 0.77932 0.29022 0.0
C4143 C 0.44458 0.77759 0.29573 0.0
C4144 C 0.42576 0.78499 0.29545 0.0
C4145 C 0.42718 0.78911 0.30631 0.0
C4146 C 0.43751 0.7876 0.31172 0.0
C4147 C 0.44609 0.78189 0.30651 0.0
H4148 H 0.31203 0.89862 0.70433 0.0
H4149 H 0.33228 0.89368 0.73382 0.0
H4150 H 0.30306 0.91432 0.71324 0.0
H4151 H 0.3234 0.90931 0.74265 0.0
H4152 H 0.31332 0.94396 0.75185 0.0
H4153 H 0.32239 0.9294 0.7414 0.0
H4154 H 0.29036 0.91839 0.72853 0.0
H4155 H 0.28128 0.933 0.73898 0.0
C4156 C 0.31453 0.90083 0.71272 0.0
C4157 C 0.32294 0.89491 0.71832 0.0
C4158 C 0.3094 0.90984 0.71783 0.0
C4159 C 0.31256 0.91314 0.72864 0.0
C4160 C 0.32092 0.90717 0.73423 0.0
C4161 C 0.32603 0.89818 0.72915 0.0
C4162 C 0.30821 0.93846 0.74677 0.0
C4163 C 0.29656 0.93961 0.74633 0.0
C4164 C 0.3134 0.93008 0.7408 0.0
C4165 C 0.30709 0.92263 0.73422 0.0
C4166 C 0.29549 0.92404 0.73344 0.0
C4167 C 0.29028 0.93243 0.73942 0.0
H4168 H 0.62691 0.79743 0.68843 0.0
H4169 H 0.63682 0.81457 0.71851 0.0
H4170 H 0.61078 0.78949 0.69799 0.0
H4171 H 0.62036 0.80704 0.72793 0.0
H4172 H 0.59803 0.78018 0.74457 0.0
H4173 H 0.61348 0.78962 0.73521 0.0
H4174 H 0.59299 0.79369 0.70574 0.0
H4175 H 0.57754 0.78411 0.71511 0.0
C4176 C 0.62564 0.79954 0.69708 0.0
C4177 C 0.63325 0.80658 0.70271 0.0
C4178 C 0.61628 0.7951 0.70253 0.0
C4179 C 0.61423 0.7976 0.71375 0.0
C4180 C 0.62173 0.80482 0.71933 0.0
C4181 C 0.63111 0.80924 0.71388 0.0
C4182 C 0.59675 0.78325 0.73616 0.0
C4183 C 0.58653 0.78137 0.73059 0.0
C4184 C 0.60563 0.78868 0.73077 0.0
C4185 C 0.60453 0.79241 0.71968 0.0
C4186 C 0.59422 0.79076 0.71421 0.0
C4187 C 0.58534 0.78529 0.71958 0.0
H4188 H 0.39386 0.20298 0.7198 0.0
H4189 H 0.40348 0.21866 0.68872 0.0
H4190 H 0.41008 0.21143 0.72895 0.0
H4191 H 0.41935 0.22755 0.69797 0.0
H4192 H 0.45219 0.23514 0.7155 0.0
H4193 H 0.4372 0.22451 0.70644 0.0
H4194 H 0.41619 0.22945 0.73504 0.0
H4195 H 0.43119 0.23992 0.7441 0.0
C4196 C 0.39946 0.20817 0.71489 0.0
C4197 C 0.3973 0.21017 0.70352 0.0
C4198 C 0.4087 0.21313 0.72018 0.0
C4199 C 0.41601 0.22025 0.71423 0.0
C4200 C 0.41398 0.22204 0.70281 0.0
C4201 C 0.40477 0.21706 0.69752 0.0
C4202 C 0.44437 0.23393 0.71985 0.0
C4203 C 0.4429 0.23837 0.73053 0.0
C4204 C 0.43576 0.22785 0.71465 0.0
C4205 C 0.42545 0.22612 0.71999 0.0
C4206 C 0.42406 0.23043 0.73075 0.0
C4207 C 0.43268 0.23645 0.73595 0.0
H4208 H 0.72715 0.7149 0.14153 0.0
H4209 H 0.70884 0.69262 0.1198 0.0
H4210 H 0.73461 0.72481 0.12539 0.0
H4211 H 0.71609 0.70269 0.10359 0.0
H4212 H 0.74134 0.71525 0.07753 0.0
H4213 H 0.73278 0.70566 0.09332 0.0
H4214 H 0.73016 0.73697 0.11046 0.0
H4215 H 0.73934 0.74643 0.095 0.0
C4216 C 0.72458 0.71223 0.13329 0.0
C4217 C 0.71741 0.70296 0.13196 0.0
C4218 C 0.72884 0.71793 0.12401 0.0
C4219 C 0.72597 0.71459 0.11313 0.0
C4220 C 0.71865 0.7054 0.11181 0.0
C4221 C 0.71446 0.69964 0.12111 0.0
C4222 C 0.739 0.72009 0.08468 0.0
C4223 C 0.74111 0.73163 0.08495 0.0
C4224 C 0.73395 0.7146 0.09371 0.0
C4225 C 0.7308 0.72051 0.10324 0.0
C4226 C 0.73263 0.73209 0.10337 0.0
C4227 C 0.73775 0.73756 0.09438 0.0
H4228 H 0.32762 0.69413 0.12349 0.0
H4229 H 0.29807 0.70403 0.14096 0.0
H4230 H 0.32133 0.70423 0.10693 0.0
H4231 H 0.29186 0.71425 0.12452 0.0
H4232 H 0.27819 0.72271 0.09046 0.0
H4233 H 0.28473 0.71156 0.1061 0.0
H4234 H 0.31857 0.72265 0.09972 0.0
H4235 H 0.3121 0.73334 0.08366 0.0
C4236 C 0.31983 0.69855 0.12383 0.0
C4237 C 0.31333 0.69825 0.13353 0.0
C4238 C 0.31622 0.70435 0.11433 0.0
C4239 C 0.30605 0.71003 0.11434 0.0
C4240 C 0.29961 0.70978 0.1241 0.0
C4241 C 0.30319 0.70395 0.13356 0.0
C4242 C 0.28706 0.7226 0.09223 0.0
C4243 C 0.2946 0.72895 0.08576 0.0
C4244 C 0.2908 0.71633 0.10133 0.0
C4245 C 0.30218 0.71627 0.10427 0.0
C4246 C 0.30976 0.72242 0.09767 0.0
C4247 C 0.30602 0.72867 0.08852 0.0
H4248 H 0.29809 0.33162 0.13065 0.0
H4249 H 0.32766 0.31157 0.13175 0.0
H4250 H 0.29167 0.32176 0.11413 0.0
H4251 H 0.32092 0.30127 0.11561 0.0
H4252 H 0.31105 0.2913 0.08047 0.0
H4253 H 0.31779 0.3026 0.096 0.0
H4254 H 0.28419 0.30419 0.10864 0.0
H4255 H 0.27746 0.2931 0.09301 0.0
C4256 C 0.30326 0.32513 0.12736 0.0
C4257 C 0.31343 0.32243 0.13257 0.0
C4258 C 0.29949 0.31936 0.11795 0.0
C4259 C 0.30574 0.31067 0.1135 0.0
C4260 C 0.31593 0.308 0.11868 0.0
C4261 C 0.31973 0.31381 0.12807 0.0
C4262 C 0.30511 0.29411 0.08656 0.0
C4263 C 0.29372 0.2913 0.08549 0.0
C4264 C 0.30897 0.30055 0.0955 0.0
C4265 C 0.30156 0.30428 0.10365 0.0
C4266 C 0.29013 0.30163 0.10246 0.0
C4267 C 0.28626 0.29526 0.09348 0.0
H4268 H 0.70851 0.30337 0.13582 0.0
H4269 H 0.72734 0.33269 0.12582 0.0
H4270 H 0.7148 0.29377 0.11924 0.0
H4271 H 0.73406 0.32294 0.10959 0.0
H4272 H 0.73733 0.30609 0.07634 0.0
H4273 H 0.72863 0.31557 0.09186 0.0
H4274 H 0.73149 0.28583 0.11206 0.0
H4275 H 0.74003 0.27635 0.09651 0.0
C4276 C 0.71394 0.3078 0.13007 0.0
C4277 C 0.71744 0.31881 0.13221 0.0
C4278 C 0.71766 0.30224 0.12062 0.0
C4279 C 0.72497 0.30755 0.11306 0.0
C4280 C 0.72833 0.31861 0.11513 0.0
C4281 C 0.7246 0.32416 0.12455 0.0
C4282 C 0.73604 0.30157 0.08408 0.0
C4283 C 0.7394 0.29047 0.08518 0.0
C4284 C 0.73109 0.30701 0.093 0.0
C4285 C 0.72942 0.30151 0.10327 0.0
C4286 C 0.73249 0.2903 0.10425 0.0
C4287 C 0.7374 0.28485 0.09532 0.0
H4288 H 0.72429 0.33173 0.90404 0.0
H4289 H 0.7055 0.30296 0.89266 0.0
H4290 H 0.73097 0.32106 0.92005 0.0
H4291 H 0.71206 0.29238 0.90876 0.0
H4292 H 0.71773 0.27985 0.94432 0.0
H4293 H 0.71046 0.29143 0.92925 0.0
H4294 H 0.74344 0.3053 0.92379 0.0
H4295 H 0.75077 0.29363 0.93874 0.0
C4296 C 0.72161 0.32312 0.90491 0.0
C4297 C 0.71436 0.31822 0.89701 0.0
C4298 C 0.72543 0.31702 0.91411 0.0
C4299 C 0.72205 0.30587 0.91569 0.0
C4300 C 0.7147 0.301 0.90788 0.0
C4301 C 0.71092 0.30708 0.89865 0.0
C4302 C 0.72345 0.28534 0.9399 0.0
C4303 C 0.73486 0.28575 0.94274 0.0
C4304 C 0.71927 0.29198 0.93125 0.0
C4305 C 0.72638 0.29925 0.92527 0.0
C4306 C 0.73772 0.29989 0.92831 0.0
C4307 C 0.74192 0.29321 0.93692 0.0
H4308 H 0.68935 0.71934 0.90331 0.0
H4309 H 0.71978 0.70386 0.89288 0.0
H4310 H 0.69916 0.72745 0.91916 0.0
H4311 H 0.72948 0.71154 0.90908 0.0
H4312 H 0.74578 0.7392 0.93048 0.0
H4313 H 0.73628 0.72925 0.9155 0.0
H4314 H 0.70779 0.72353 0.93678 0.0
H4315 H 0.71729 0.73362 0.95176 0.0
C4316 C 0.69813 0.71762 0.90442 0.0
C4317 C 0.70378 0.71101 0.89673 0.0
C4318 C 0.70373 0.72216 0.91362 0.0
C4319 C 0.71514 0.72018 0.91543 0.0
C4320 C 0.72074 0.71336 0.90789 0.0
C4321 C 0.71513 0.70884 0.89865 0.0
C4322 C 0.73757 0.73565 0.93204 0.0
C4323 C 0.7323 0.73723 0.94233 0.0
C4324 C 0.73211 0.72993 0.92343 0.0
C4325 C 0.72123 0.7256 0.92488 0.0
C4326 C 0.71608 0.72692 0.93529 0.0
C4327 C 0.72153 0.73268 0.94389 0.0
H4328 H 0.31547 0.68864 0.89829 0.0
H4329 H 0.33258 0.7204 0.89505 0.0
H4330 H 0.30507 0.69568 0.91409 0.0
H4331 H 0.32259 0.72724 0.9111 0.0
H4332 H 0.29334 0.74004 0.93118 0.0
H4333 H 0.30407 0.73274 0.91586 0.0
H4334 H 0.30705 0.7014 0.9334 0.0
H4335 H 0.29622 0.70874 0.94879 0.0
C4336 C 0.31704 0.69711 0.90095 0.0
C4337 C 0.32487 0.70394 0.89536 0.0
C4338 C 0.31117 0.70111 0.9101 0.0
C4339 C 0.31297 0.71204 0.91388 0.0
C4340 C 0.32088 0.71883 0.90835 0.0
C4341 C 0.32672 0.71484 0.89921 0.0
C4342 C 0.29641 0.73164 0.93187 0.0
C4343 C 0.29396 0.72501 0.94127 0.0
C4344 C 0.30257 0.72744 0.92305 0.0
C4345 C 0.30648 0.71648 0.92338 0.0
C4346 C 0.30406 0.70983 0.93279 0.0
C4347 C 0.29787 0.71404 0.94163 0.0
H4348 H 0.29987 0.33058 0.89474 0.0
H4349 H 0.32883 0.30981 0.89756 0.0
H4350 H 0.29198 0.3217 0.91123 0.0
H4351 H 0.32085 0.30083 0.91411 0.0
H4352 H 0.29573 0.27939 0.93521 0.0
H4353 H 0.30532 0.2884 0.9196 0.0
H4354 H 0.29493 0.32046 0.93126 0.0
H4355 H 0.28536 0.31147 0.94686 0.0
C4356 C 0.30463 0.32421 0.89896 0.0
C4357 C 0.31504 0.32098 0.89484 0.0
C4358 C 0.30009 0.3191 0.90843 0.0
C4359 C 0.30581 0.3106 0.91406 0.0
C4360 C 0.31618 0.30729 0.90992 0.0
C4361 C 0.32075 0.31243 0.90043 0.0
C4362 C 0.29566 0.28838 0.93456 0.0
C4363 C 0.28969 0.2947 0.94225 0.0
C4364 C 0.30116 0.29354 0.92559 0.0
C4365 C 0.30079 0.30515 0.92409 0.0
C4366 C 0.29518 0.31149 0.93202 0.0
C4367 C 0.2897 0.30633 0.94098 0.0
H4368 H 0.63612 0.70103 0.22378 0.0
H4369 H 0.62829 0.71979 0.19396 0.0
H4370 H 0.61977 0.70862 0.23291 0.0
H4371 H 0.61207 0.72739 0.20308 0.0
H4372 H 0.59344 0.74936 0.22739 0.0
H4373 H 0.60884 0.74052 0.2181 0.0
H4374 H 0.59901 0.70886 0.23249 0.0
H4375 H 0.58339 0.71771 0.24176 0.0
C4376 C 0.63086 0.70667 0.21913 0.0
C4377 C 0.63362 0.70989 0.20817 0.0
C4378 C 0.62148 0.71102 0.22436 0.0
C4379 C 0.61467 0.7187 0.21876 0.0
C4380 C 0.61726 0.72167 0.20772 0.0
C4381 C 0.62659 0.71732 0.20249 0.0
C4382 C 0.5944 0.74047 0.22845 0.0
C4383 C 0.58705 0.73424 0.23525 0.0
C4384 C 0.60328 0.7354 0.22313 0.0
C4385 C 0.60513 0.72396 0.22448 0.0
C4386 C 0.59786 0.71771 0.23135 0.0
C4387 C 0.58891 0.72279 0.23665 0.0
H4388 H 0.32298 0.62472 0.23688 0.0
H4389 H 0.31005 0.61868 0.20373 0.0
H4390 H 0.31155 0.60939 0.24406 0.0
H4391 H 0.29851 0.60338 0.21097 0.0
H4392 H 0.27017 0.58607 0.23108 0.0
H4393 H 0.28226 0.60044 0.223 0.0
H4394 H 0.30967 0.58909 0.24343 0.0
H4395 H 0.2976 0.57464 0.25147 0.0
C4396 C 0.3178 0.62005 0.23109 0.0
C4397 C 0.31747 0.62295 0.21971 0.0
C4398 C 0.31123 0.61124 0.23522 0.0
C4399 C 0.30412 0.60513 0.2281 0.0
C4400 C 0.30379 0.608 0.21671 0.0
C4401 C 0.3104 0.6168 0.21257 0.0
C4402 C 0.27882 0.5865 0.23372 0.0
C4403 C 0.28289 0.57918 0.24195 0.0
C4404 C 0.28575 0.59476 0.22909 0.0
C4405 C 0.29692 0.59596 0.2326 0.0
C4406 C 0.30105 0.58852 0.24067 0.0
C4407 C 0.29413 0.58023 0.24528 0.0
H4408 H 0.39716 0.2992 0.20465 0.0
H4409 H 0.40003 0.33125 0.22054 0.0
H4410 H 0.41309 0.29272 0.21544 0.0
H4411 H 0.41591 0.32469 0.23143 0.0
H4412 H 0.4348 0.30396 0.25795 0.0
H4413 H 0.41977 0.3114 0.24653 0.0
H4414 H 0.43334 0.29555 0.21757 0.0
H4415 H 0.4485 0.28818 0.22898 0.0
C4416 C 0.40125 0.30492 0.21035 0.0
C4417 C 0.39728 0.31577 0.2117 0.0
C4418 C 0.4104 0.30119 0.21655 0.0
C4419 C 0.4158 0.30818 0.2243 0.0
C4420 C 0.41186 0.31904 0.22564 0.0
C4421 C 0.40273 0.32279 0.21941 0.0
C4422 C 0.43473 0.30222 0.24911 0.0
C4423 C 0.44291 0.29547 0.24441 0.0
C4424 C 0.42607 0.30648 0.24256 0.0
C4425 C 0.42532 0.30406 0.23114 0.0
C4426 C 0.43358 0.29744 0.22638 0.0
C4427 C 0.44227 0.29321 0.23293 0.0
H4428 H 0.70432 0.39167 0.2363 0.0
H4429 H 0.72076 0.39749 0.20482 0.0
H4430 H 0.71424 0.40757 0.24421 0.0
H4431 H 0.73081 0.41343 0.21281 0.0
H4432 H 0.75527 0.43326 0.23619 0.0
H4433 H 0.74527 0.41809 0.22682 0.0
H4434 H 0.71471 0.42778 0.24262 0.0
H4435 H 0.72467 0.44292 0.25195 0.0
C4436 C 0.70997 0.39641 0.23102 0.0
C4437 C 0.71165 0.39333 0.21988 0.0
C4438 C 0.71567 0.40554 0.23556 0.0
C4439 C 0.72325 0.41186 0.22912 0.0
C4440 C 0.72508 0.4087 0.21803 0.0
C4441 C 0.71934 0.39955 0.21345 0.0
C4442 C 0.74638 0.43227 0.23751 0.0
C4443 C 0.7408 0.43926 0.24491 0.0
C4444 C 0.74065 0.42356 0.23215 0.0
C4445 C 0.72921 0.42163 0.23407 0.0
C4446 C 0.72357 0.42888 0.24114 0.0
C4447 C 0.72928 0.43757 0.24648 0.0
H4448 H 0.64188 0.29255 0.81191 0.0
H4449 H 0.62146 0.31999 0.82176 0.0
H4450 H 0.62611 0.28442 0.8018 0.0
H4451 H 0.60557 0.31177 0.81172 0.0
H4452 H 0.58223 0.2981 0.78405 0.0
H4453 H 0.5981 0.30718 0.79337 0.0
H4454 H 0.60872 0.2753 0.80603 0.0
H4455 H 0.59327 0.26623 0.79636 0.0
C4456 C 0.63399 0.29682 0.81196 0.0
C4457 C 0.6329 0.30687 0.81772 0.0
C4458 C 0.62493 0.29215 0.80618 0.0
C4459 C 0.61451 0.29737 0.80604 0.0
C4460 C 0.61349 0.30757 0.81157 0.0
C4461 C 0.62259 0.31228 0.81733 0.0
C4462 C 0.588 0.29303 0.78877 0.0
C4463 C 0.58643 0.28142 0.78946 0.0
C4464 C 0.59703 0.29825 0.7942 0.0
C4465 C 0.60473 0.29197 0.80041 0.0
C4466 C 0.60307 0.28039 0.80118 0.0
C4467 C 0.59408 0.27519 0.79577 0.0
H4468 H 0.69783 0.62142 0.81316 0.0
H4469 H 0.73066 0.62712 0.8273 0.0
H4470 H 0.70486 0.60567 0.80279 0.0
H4471 H 0.73764 0.61134 0.81701 0.0
H4472 H 0.74409 0.57613 0.80489 0.0
H4473 H 0.7363 0.59105 0.81593 0.0
H4474 H 0.71737 0.60211 0.78729 0.0
H4475 H 0.72519 0.5873 0.77624 0.0
C4476 C 0.70656 0.61936 0.81402 0.0
C4477 C 0.71367 0.62557 0.82108 0.0
C4478 C 0.71059 0.61031 0.80808 0.0
C4479 C 0.72182 0.60722 0.80907 0.0
C4480 C 0.7289 0.61337 0.81619 0.0
C4481 C 0.72489 0.62243 0.8221 0.0
C4482 C 0.73828 0.58175 0.80094 0.0
C4483 C 0.73528 0.58047 0.78966 0.0
C4484 C 0.73382 0.59031 0.80727 0.0
C4485 C 0.72621 0.5978 0.8025 0.0
C4486 C 0.72306 0.5964 0.79128 0.0
C4487 C 0.72755 0.58787 0.78495 0.0
H4488 H 0.41042 0.6957 0.82008 0.0
H4489 H 0.38867 0.71074 0.79561 0.0
H4490 H 0.426 0.70725 0.81331 0.0
H4491 H 0.40424 0.72209 0.78873 0.0
H4492 H 0.43108 0.74934 0.78786 0.0
H4493 H 0.41601 0.73772 0.79529 0.0
H4494 H 0.43793 0.70959 0.79635 0.0
H4495 H 0.45316 0.72134 0.7891 0.0
C4496 C 0.40896 0.70149 0.81328 0.0
C4497 C 0.39831 0.70231 0.80839 0.0
C4498 C 0.41791 0.70802 0.80934 0.0
C4499 C 0.41636 0.7156 0.80049 0.0
C4500 C 0.40569 0.71642 0.79563 0.0
C4501 C 0.39679 0.70984 0.79951 0.0
C4502 C 0.43275 0.74072 0.78981 0.0
C4503 C 0.44335 0.73629 0.78793 0.0
C4504 C 0.42407 0.73402 0.79395 0.0
C4505 C 0.42575 0.72272 0.79637 0.0
C4506 C 0.43639 0.71829 0.79464 0.0
C4507 C 0.44508 0.72499 0.7904 0.0
H4508 H 0.32636 0.4034 0.81969 0.0
H4509 H 0.31422 0.38349 0.79224 0.0
H4510 H 0.31593 0.41925 0.81256 0.0
H4511 H 0.30369 0.39922 0.7852 0.0
H4512 H 0.29481 0.43191 0.76907 0.0
H4513 H 0.30616 0.41697 0.77644 0.0
H4514 H 0.29736 0.42609 0.80996 0.0
H4515 H 0.28645 0.44145 0.80259 0.0
C4516 C 0.32137 0.40238 0.81219 0.0
C4517 C 0.32116 0.39219 0.80651 0.0
C4518 C 0.31538 0.41146 0.8081 0.0
C4519 C 0.30899 0.41057 0.79825 0.0
C4520 C 0.3087 0.40032 0.79266 0.0
C4521 C 0.31472 0.39127 0.79672 0.0
C4522 C 0.29546 0.4309 0.77803 0.0
C4523 C 0.28969 0.43794 0.78522 0.0
C4524 C 0.30185 0.42219 0.78226 0.0
C4525 C 0.30262 0.42022 0.79381 0.0
C4526 C 0.29704 0.42739 0.80103 0.0
C4527 C 0.29067 0.43614 0.79679 0.0
H4528 H 0.72321 0.63569 0.22854 0.0
H4529 H 0.70408 0.61341 0.20749 0.0
H4530 H 0.73369 0.61995 0.2359 0.0
H4531 H 0.71454 0.59764 0.21491 0.0
H4532 H 0.74573 0.57548 0.22199 0.0
H4533 H 0.73449 0.59068 0.2145 0.0
H4534 H 0.72972 0.6029 0.24783 0.0
H4535 H 0.74095 0.58775 0.2553 0.0
C4536 C 0.72129 0.62743 0.22544 0.0
C4537 C 0.71283 0.62579 0.21742 0.0
C4538 C 0.72721 0.61842 0.22973 0.0
C4539 C 0.7249 0.60756 0.22601 0.0
C4540 C 0.71653 0.60592 0.2179 0.0
C4541 C 0.7105 0.61493 0.21371 0.0
C4542 C 0.74221 0.58139 0.22771 0.0
C4543 C 0.7442 0.58041 0.23923 0.0
C4544 C 0.73574 0.59004 0.22343 0.0
C4545 C 0.73127 0.59801 0.23057 0.0
C4546 C 0.73314 0.59695 0.24211 0.0
C4547 C 0.73947 0.58821 0.24639 0.0
H4548 H 0.69458 0.40087 0.8011 0.0
H4549 H 0.72302 0.39051 0.82068 0.0
H4550 H 0.70532 0.41685 0.79418 0.0
H4551 H 0.73368 0.40657 0.81387 0.0
H4552 H 0.74612 0.44209 0.8074 0.0
H4553 H 0.73442 0.42706 0.8149 0.0
H4554 H 0.72145 0.42049 0.7819 0.0
H4555 H 0.73324 0.43541 0.77436 0.0
C4556 C 0.70313 0.40196 0.8039 0.0
C4557 C 0.70793 0.39435 0.81143 0.0
C4558 C 0.70928 0.41114 0.79994 0.0
C4559 C 0.72036 0.41299 0.80347 0.0
C4560 C 0.72511 0.40548 0.81111 0.0
C4561 C 0.71898 0.39627 0.81503 0.0
C4562 C 0.7408 0.43743 0.80173 0.0
C4563 C 0.74068 0.43995 0.79025 0.0
C4564 C 0.73409 0.42881 0.80603 0.0
C4565 C 0.72704 0.42254 0.79899 0.0
C4566 C 0.72668 0.42525 0.78757 0.0
C4567 C 0.73343 0.43383 0.78325 0.0
H4568 H 0.62779 0.68886 0.79447 0.0
H4569 H 0.62965 0.71353 0.82042 0.0
H4570 H 0.61194 0.69825 0.78623 0.0
H4571 H 0.61333 0.7226 0.81251 0.0
H4572 H 0.59284 0.74314 0.78709 0.0
H4573 H 0.6079 0.73369 0.79687 0.0
H4574 H 0.59275 0.70191 0.78861 0.0
H4575 H 0.57785 0.71141 0.77861 0.0
C4576 C 0.62482 0.69629 0.79844 0.0
C4577 C 0.63011 0.70046 0.80808 0.0
C4578 C 0.61558 0.70159 0.7938 0.0
C4579 C 0.61128 0.71119 0.7987 0.0
C4580 C 0.61647 0.7153 0.80843 0.0
C4581 C 0.62576 0.71001 0.81305 0.0
C4582 C 0.59264 0.73414 0.78752 0.0
C4583 C 0.58419 0.72803 0.78202 0.0
C4584 C 0.60128 0.7287 0.79314 0.0
C4585 C 0.60163 0.71701 0.79346 0.0
C4586 C 0.59291 0.71092 0.78832 0.0
C4587 C 0.58433 0.71636 0.78263 0.0
H4588 H 0.3087 0.63396 0.79955 0.0
H4589 H 0.31842 0.61072 0.82533 0.0
H4590 H 0.30119 0.61861 0.78846 0.0
H4591 H 0.3111 0.59533 0.81411 0.0
H4592 H 0.28445 0.57313 0.79631 0.0
H4593 H 0.29276 0.58802 0.80753 0.0
H4594 H 0.30767 0.60241 0.77798 0.0
H4595 H 0.29917 0.58769 0.76674 0.0
C4596 C 0.30923 0.62557 0.80285 0.0
C4597 C 0.31414 0.62356 0.81333 0.0
C4598 C 0.30503 0.61676 0.79644 0.0
C4599 C 0.30556 0.60574 0.80039 0.0
C4600 C 0.31049 0.60373 0.81087 0.0
C4601 C 0.31477 0.61253 0.81725 0.0
C4602 C 0.2895 0.57947 0.79222 0.0
C4603 C 0.29114 0.57922 0.78063 0.0
C4604 C 0.29435 0.58795 0.79866 0.0
C4605 C 0.30085 0.59642 0.79364 0.0
C4606 C 0.30261 0.59608 0.78208 0.0
C4607 C 0.29784 0.58756 0.77566 0.0
H4608 H 0.40856 0.32433 0.81699 0.0
H4609 H 0.3908 0.29341 0.81094 0.0
H4610 H 0.42446 0.31757 0.80657 0.0
H4611 H 0.40658 0.28669 0.80042 0.0
H4612 H 0.44016 0.2734 0.79093 0.0
H4613 H 0.42532 0.28048 0.8025 0.0
H4614 H 0.4303 0.31322 0.78809 0.0
H4615 H 0.44555 0.30627 0.77696 0.0
C4616 C 0.40801 0.31613 0.81335 0.0
C4617 C 0.39841 0.30941 0.81482 0.0
C4618 C 0.41713 0.31224 0.80737 0.0
C4619 C 0.41686 0.30155 0.80267 0.0
C4620 C 0.40721 0.29487 0.8041 0.0
C4621 C 0.39813 0.29874 0.81012 0.0
C4622 C 0.43827 0.28216 0.79039 0.0
C4623 C 0.44408 0.28924 0.78297 0.0
C4624 C 0.42961 0.28619 0.79691 0.0
C4625 C 0.4265 0.29741 0.79617 0.0
C4626 C 0.43249 0.30455 0.78896 0.0
C4627 C 0.44118 0.30053 0.78246 0.0
H4628 H 0.32907 0.40958 0.21346 0.0
H4629 H 0.30651 0.38574 0.22877 0.0
H4630 H 0.3188 0.42475 0.22175 0.0
H4631 H 0.29637 0.40083 0.23725 0.0
H4632 H 0.27438 0.43009 0.24342 0.0
H4633 H 0.28419 0.41574 0.23352 0.0
H4634 H 0.31542 0.43333 0.2392 0.0
H4635 H 0.3055 0.44806 0.24853 0.0
C4636 C 0.32195 0.40758 0.21865 0.0
C4637 C 0.3186 0.39645 0.22044 0.0
C4638 C 0.31607 0.41628 0.22343 0.0
C4639 C 0.30673 0.41406 0.2302 0.0
C4640 C 0.30337 0.4029 0.23193 0.0
C4641 C 0.30921 0.39422 0.22708 0.0
C4642 C 0.28331 0.43105 0.24237 0.0
C4643 C 0.28911 0.4403 0.2468 0.0
C4644 C 0.28897 0.4227 0.23682 0.0
C4645 C 0.30063 0.42328 0.23561 0.0
C4646 C 0.30643 0.43262 0.23987 0.0
C4647 C 0.30074 0.44102 0.24536 0.0
H4648 H 0.62115 0.31509 0.1974 0.0
H4649 H 0.64298 0.30675 0.22488 0.0
H4650 H 0.60505 0.30879 0.20825 0.0
H4651 H 0.62697 0.30029 0.23566 0.0
H4652 H 0.59577 0.29994 0.25638 0.0
H4653 H 0.61114 0.30697 0.24517 0.0
H4654 H 0.59595 0.29247 0.21582 0.0
H4655 H 0.58017 0.28594 0.22698 0.0
C4656 C 0.62252 0.31183 0.20573 0.0
C4657 C 0.63335 0.31147 0.21029 0.0
C4658 C 0.61329 0.30819 0.21195 0.0
C4659 C 0.61467 0.30406 0.22287 0.0
C4660 C 0.62554 0.30363 0.22738 0.0
C4661 C 0.63474 0.30732 0.22119 0.0
C4662 C 0.59555 0.29842 0.2475 0.0
C4663 C 0.58664 0.2924 0.24261 0.0
C4664 C 0.6045 0.30231 0.24108 0.0
C4665 C 0.60488 0.30022 0.22958 0.0
C4666 C 0.59592 0.29432 0.22463 0.0
C4667 C 0.58692 0.29046 0.23106 0.0
H4668 H 0.40808 0.69399 0.20636 0.0
H4669 H 0.38763 0.72002 0.21942 0.0
H4670 H 0.42388 0.70081 0.21757 0.0
H4671 H 0.40342 0.72692 0.23043 0.0
H4672 H 0.42981 0.72775 0.25812 0.0
H4673 H 0.41446 0.72056 0.24671 0.0
H4674 H 0.43678 0.71749 0.21885 0.0
H4675 H 0.45226 0.72455 0.23038 0.0
C4676 C 0.40696 0.70115 0.21164 0.0
C4677 C 0.3966 0.70646 0.21201 0.0
C4678 C 0.41603 0.70511 0.21796 0.0
C4679 C 0.41489 0.7144 0.22489 0.0
C4680 C 0.40454 0.71969 0.22526 0.0
C4681 C 0.39552 0.7158 0.21887 0.0
C4682 C 0.43148 0.72543 0.24959 0.0
C4683 C 0.44227 0.72666 0.24517 0.0
C4684 C 0.42266 0.72142 0.24302 0.0
C4685 C 0.4244 0.71849 0.23186 0.0
C4686 C 0.4352 0.71961 0.22744 0.0
C4687 C 0.44404 0.72373 0.23401 0.0
loop_
_geom_bond_atom_site_label_1
_geom_bond_atom_site_label_2
_geom_bond_distance
_geom_bond_site_symmetry_2
_ccdc_geom_bond_type
C0 C1 1.264 . S
C0 C5 1.479 . S
C0 C10 1.465 . S
C1 C0 1.264 . S
C1 C3 1.339 . S
C1 H28 0.931 . S
C2 C3 1.395 . S
C2 C4 1.320 . S
C3 C1 1.339 . S
C3 C2 1.395 . S
C3 H29 0.929 . S
C4 C2 1.320 . S
C4 C5 1.405 . S
C4 H30 0.930 . S
C5 C0 1.479 . S
C5 C4 1.405 . S
C5 H31 0.931 . S
U6 O7 2.454 . S
U6 O8 2.458 . S
U6 C9 2.984 . S
U6 C10 2.847 . S
U6 C23 2.882 . S
U6 O24 2.441 . S
U6 O25 2.420 . S
U6 O26 2.455 . S
U6 O27 2.449 . S
O7 U6 2.454 . S
O7 C9 1.353 . S
O8 U6 2.458 . S
O8 C9 1.286 . S
C9 U6 2.984 . S
C9 O7 1.353 . S
C9 O8 1.286 . S
C9 C11 1.363 . S
C10 C0 1.465 . S
C10 U6 2.847 . S
C10 O24 1.249 . S
C10 O25 1.202 . S
C11 C9 1.363 . S
C11 C13 1.408 . S
C11 C16 1.342 . S
C12 C13 1.310 . S
C12 C15 1.461 . S
C12 H32 0.932 . S
C13 C11 1.408 . S
C13 C12 1.310 . S
C13 H33 0.930 . S
C14 C15 1.474 . S
C14 C16 1.285 . S
C14 H34 0.929 . S
C15 C12 1.461 . S
C15 C14 1.474 . S
C16 C11 1.342 . S
C16 C14 1.285 . S
C16 H35 0.930 . S
C17 C20 1.424 . S
C17 C22 1.245 . S
C17 C23 1.428 . S
C18 C21 1.260 . S
C18 C22 1.477 . S
C18 H36 0.932 . S
C19 C20 1.384 . S
C19 C21 1.479 . S
C19 H37 0.929 . S
C20 C17 1.424 . S
C20 C19 1.384 . S
C20 H38 0.928 . S
C21 C18 1.260 . S
C21 C19 1.479 . S
C22 C17 1.245 . S
C22 C18 1.477 . S
C22 H39 0.932 . S
C23 U6 2.882 . S
C23 C17 1.428 . S
C23 O26 1.301 . S
C23 O27 1.282 . S
O24 U6 2.441 . S
O24 C10 1.249 . S
O25 U6 2.420 . S
O25 C10 1.202 . S
O26 U6 2.455 . S
O26 C23 1.301 . S
O27 U6 2.449 . S
O27 C23 1.282 . S
H28 C1 0.931 . S
H29 C3 0.929 . S
H30 C4 0.930 . S
H31 C5 0.931 . S
H32 C12 0.932 . S
H33 C13 0.930 . S
H34 C14 0.929 . S
H35 C16 0.930 . S
H36 C18 0.932 . S
H37 C19 0.929 . S
H38 C20 0.928 . S
H39 C22 0.932 . S
C40 C41 1.264 . S
C40 C45 1.479 . S
C40 C50 1.465 . S
C41 C40 1.264 . S
C41 C43 1.339 . S
C41 H68 0.931 . S
C42 C43 1.395 . S
C42 C44 1.320 . S
C43 C41 1.339 . S
C43 C42 1.395 . S
C43 H69 0.929 . S
C44 C42 1.320 . S
C44 C45 1.405 . S
C44 H70 0.930 . S
C45 C40 1.479 . S
C45 C44 1.405 . S
C45 H71 0.931 . S
U46 O47 2.454 . S
U46 O48 2.458 . S
U46 C49 2.984 . S
U46 C50 2.847 . S
U46 C63 2.882 . S
U46 O64 2.441 . S
U46 O65 2.420 . S
U46 O66 2.455 . S
U46 O67 2.449 . S
O47 U46 2.454 . S
O47 C49 1.353 . S
O48 U46 2.458 . S
O48 C49 1.286 . S
C49 U46 2.984 . S
C49 O47 1.353 . S
C49 O48 1.286 . S
C49 C51 1.363 . S
C50 C40 1.465 . S
C50 U46 2.847 . S
C50 O64 1.249 . S
C50 O65 1.202 . S
C51 C49 1.363 . S
C51 C53 1.408 . S
C51 C56 1.342 . S
C52 C53 1.310 . S
C52 C55 1.461 . S
C52 H72 0.932 . S
C53 C51 1.408 . S
C53 C52 1.310 . S
C53 H73 0.930 . S
C54 C55 1.474 . S
C54 C56 1.285 . S
C54 H74 0.929 . S
C55 C52 1.461 . S
C55 C54 1.474 . S
C56 C51 1.342 . S
C56 C54 1.285 . S
C56 H75 0.930 . S
C57 C60 1.424 . S
C57 C62 1.245 . S
C57 C63 1.428 . S
C58 C61 1.260 . S
C58 C62 1.477 . S
C58 H76 0.932 . S
C59 C60 1.384 . S
C59 C61 1.479 . S
C59 H77 0.929 . S
C60 C57 1.424 . S
C60 C59 1.384 . S
C60 H78 0.928 . S
C61 C58 1.260 . S
C61 C59 1.479 . S
C62 C57 1.245 . S
C62 C58 1.477 . S
C62 H79 0.932 . S
C63 U46 2.882 . S
C63 C57 1.428 . S
C63 O66 1.301 . S
C63 O67 1.282 . S
O64 U46 2.441 . S
O64 C50 1.249 . S
O65 U46 2.420 . S
O65 C50 1.202 . S
O66 U46 2.455 . S
O66 C63 1.301 . S
O67 U46 2.449 . S
O67 C63 1.282 . S
H68 C41 0.931 . S
H69 C43 0.929 . S
H70 C44 0.930 . S
H71 C45 0.931 . S
H72 C52 0.932 . S
H73 C53 0.930 . S
H74 C54 0.929 . S
H75 C56 0.930 . S
H76 C58 0.932 . S
H77 C59 0.929 . S
H78 C60 0.928 . S
H79 C62 0.932 . S
C80 C81 1.264 . S
C80 C85 1.479 . S
C80 C90 1.465 . S
C81 C80 1.264 . S
C81 C83 1.339 . S
C81 H108 0.931 . S
C82 C83 1.395 . S
C82 C84 1.320 . S
C83 C81 1.339 . S
C83 C82 1.395 . S
C83 H109 0.929 . S
C84 C82 1.320 . S
C84 C85 1.405 . S
C84 H110 0.930 . S
C85 C80 1.479 . S
C85 C84 1.405 . S
C85 H111 0.931 . S
U86 O87 2.454 . S
U86 O88 2.458 . S
U86 C89 2.984 . S
U86 C90 2.847 . S
U86 C103 2.882 . S
U86 O104 2.441 . S
U86 O105 2.420 . S
U86 O106 2.455 . S
U86 O107 2.449 . S
O87 U86 2.454 . S
O87 C89 1.353 . S
O88 U86 2.458 . S
O88 C89 1.286 . S
C89 U86 2.984 . S
C89 O87 1.353 . S
C89 O88 1.286 . S
C89 C91 1.363 . S
C90 C80 1.465 . S
C90 U86 2.847 . S
C90 O104 1.249 . S
C90 O105 1.202 . S
C91 C89 1.363 . S
C91 C93 1.408 . S
C91 C96 1.342 . S
C92 C93 1.310 . S
C92 C95 1.461 . S
C92 H112 0.932 . S
C93 C91 1.408 . S
C93 C92 1.310 . S
C93 H113 0.930 . S
C94 C95 1.474 . S
C94 C96 1.285 . S
C94 H114 0.929 . S
C95 C92 1.461 . S
C95 C94 1.474 . S
C96 C91 1.342 . S
C96 C94 1.285 . S
C96 H115 0.930 . S
C97 C100 1.424 . S
C97 C102 1.245 . S
C97 C103 1.428 . S
C98 C101 1.260 . S
C98 C102 1.477 . S
C98 H116 0.932 . S
C99 C100 1.384 . S
C99 C101 1.479 . S
C99 H117 0.929 . S
C100 C97 1.424 . S
C100 C99 1.384 . S
C100 H118 0.928 . S
C101 C98 1.260 . S
C101 C99 1.479 . S
C102 C97 1.245 . S
C102 C98 1.477 . S
C102 H119 0.932 . S
C103 U86 2.882 . S
C103 C97 1.428 . S
C103 O106 1.301 . S
C103 O107 1.282 . S
O104 U86 2.441 . S
O104 C90 1.249 . S
O105 U86 2.420 . S
O105 C90 1.202 . S
O106 U86 2.455 . S
O106 C103 1.301 . S
O107 U86 2.449 . S
O107 C103 1.282 . S
H108 C81 0.931 . S
H109 C83 0.929 . S
H110 C84 0.930 . S
H111 C85 0.931 . S
H112 C92 0.932 . S
H113 C93 0.930 . S
H114 C94 0.929 . S
H115 C96 0.930 . S
H116 C98 0.932 . S
H117 C99 0.929 . S
H118 C100 0.928 . S
H119 C102 0.932 . S
C120 C121 1.264 . S
C120 C125 1.479 . S
C120 C130 1.465 . S
C121 C120 1.264 . S
C121 C123 1.339 . S
C121 H148 0.931 . S
C122 C123 1.395 . S
C122 C124 1.320 . S
C123 C121 1.339 . S
C123 C122 1.395 . S
C123 H149 0.929 . S
C124 C122 1.320 . S
C124 C125 1.405 . S
C124 H150 0.930 . S
C125 C120 1.479 . S
C125 C124 1.405 . S
C125 H151 0.931 . S
U126 O127 2.454 . S
U126 O128 2.458 . S
U126 C129 2.984 . S
U126 C130 2.847 . S
U126 C143 2.882 . S
U126 O144 2.441 . S
U126 O145 2.420 . S
U126 O146 2.455 . S
U126 O147 2.449 . S
O127 U126 2.454 . S
O127 C129 1.353 . S
O128 U126 2.458 . S
O128 C129 1.286 . S
C129 U126 2.984 . S
C129 O127 1.353 . S
C129 O128 1.286 . S
C129 C131 1.363 . S
C130 C120 1.465 . S
C130 U126 2.847 . S
C130 O144 1.249 . S
C130 O145 1.202 . S
C131 C129 1.363 . S
C131 C133 1.408 . S
C131 C136 1.342 . S
C132 C133 1.310 . S
C132 C135 1.461 . S
C132 H152 0.932 . S
C133 C131 1.408 . S
C133 C132 1.310 . S
C133 H153 0.930 . S
C134 C135 1.474 . S
C134 C136 1.285 . S
C134 H154 0.929 . S
C135 C132 1.461 . S
C135 C134 1.474 . S
C136 C131 1.342 . S
C136 C134 1.285 . S
C136 H155 0.930 . S
C137 C140 1.424 . S
C137 C142 1.245 . S
C137 C143 1.428 . S
C138 C141 1.260 . S
C138 C142 1.477 . S
C138 H156 0.932 . S
C139 C140 1.384 . S
C139 C141 1.479 . S
C139 H157 0.929 . S
C140 C137 1.424 . S
C140 C139 1.384 . S
C140 H158 0.928 . S
C141 C138 1.260 . S
C141 C139 1.479 . S
C142 C137 1.245 . S
C142 C138 1.477 . S
C142 H159 0.932 . S
C143 U126 2.882 . S
C143 C137 1.428 . S
C143 O146 1.301 . S
C143 O147 1.282 . S
O144 U126 2.441 . S
O144 C130 1.249 . S
O145 U126 2.420 . S
O145 C130 1.202 . S
O146 U126 2.455 . S
O146 C143 1.301 . S
O147 U126 2.449 . S
O147 C143 1.282 . S
H148 C121 0.931 . S
H149 C123 0.929 . S
H150 C124 0.930 . S
H151 C125 0.931 . S
H152 C132 0.932 . S
H153 C133 0.930 . S
H154 C134 0.929 . S
H155 C136 0.930 . S
H156 C138 0.932 . S
H157 C139 0.929 . S
H158 C140 0.928 . S
H159 C142 0.932 . S
C160 C161 1.264 . S
C160 C165 1.479 . S
C160 C170 1.465 . S
C161 C160 1.264 . S
C161 C163 1.339 . S
C161 H188 0.931 . S
C162 C163 1.395 . S
C162 C164 1.320 . S
C163 C161 1.339 . S
C163 C162 1.395 . S
C163 H189 0.929 . S
C164 C162 1.320 . S
C164 C165 1.405 . S
C164 H190 0.930 . S
C165 C160 1.479 . S
C165 C164 1.405 . S
C165 H191 0.931 . S
U166 O167 2.454 . S
U166 O168 2.458 . S
U166 C169 2.984 . S
U166 C170 2.847 . S
U166 C183 2.882 . S
U166 O184 2.441 . S
U166 O185 2.420 . S
U166 O186 2.455 . S
U166 O187 2.449 . S
O167 U166 2.454 . S
O167 C169 1.353 . S
O168 U166 2.458 . S
O168 C169 1.286 . S
C169 U166 2.984 . S
C169 O167 1.353 . S
C169 O168 1.286 . S
C169 C171 1.363 . S
C170 C160 1.465 . S
C170 U166 2.847 . S
C170 O184 1.249 . S
C170 O185 1.202 . S
C171 C169 1.363 . S
C171 C173 1.408 . S
C171 C176 1.342 . S
C172 C173 1.310 . S
C172 C175 1.461 . S
C172 H192 0.932 . S
C173 C171 1.408 . S
C173 C172 1.310 . S
C173 H193 0.930 . S
C174 C175 1.474 . S
C174 C176 1.285 . S
C174 H194 0.929 . S
C175 C172 1.461 . S
C175 C174 1.474 . S
C176 C171 1.342 . S
C176 C174 1.285 . S
C176 H195 0.930 . S
C177 C180 1.424 . S
C177 C182 1.245 . S
C177 C183 1.428 . S
C178 C181 1.260 . S
C178 C182 1.477 . S
C178 H196 0.932 . S
C179 C180 1.384 . S
C179 C181 1.479 . S
C179 H197 0.929 . S
C180 C177 1.424 . S
C180 C179 1.384 . S
C180 H198 0.928 . S
C181 C178 1.260 . S
C181 C179 1.479 . S
C182 C177 1.245 . S
C182 C178 1.477 . S
C182 H199 0.932 . S
C183 U166 2.882 . S
C183 C177 1.428 . S
C183 O186 1.301 . S
C183 O187 1.282 . S
O184 U166 2.441 . S
O184 C170 1.249 . S
O185 U166 2.420 . S
O185 C170 1.202 . S
O186 U166 2.455 . S
O186 C183 1.301 . S
O187 U166 2.449 . S
O187 C183 1.282 . S
H188 C161 0.931 . S
H189 C163 0.929 . S
H190 C164 0.930 . S
H191 C165 0.931 . S
H192 C172 0.932 . S
H193 C173 0.930 . S
H194 C174 0.929 . S
H195 C176 0.930 . S
H196 C178 0.932 . S
H197 C179 0.929 . S
H198 C180 0.928 . S
H199 C182 0.932 . S
C200 C201 1.264 . S
C200 C205 1.479 . S
C200 C210 1.465 . S
C201 C200 1.264 . S
C201 C203 1.339 . S
C201 H228 0.931 . S
C202 C203 1.395 . S
C202 C204 1.320 . S
C203 C201 1.339 . S
C203 C202 1.395 . S
C203 H229 0.929 . S
C204 C202 1.320 . S
C204 C205 1.405 . S
C204 H230 0.930 . S
C205 C200 1.479 . S
C205 C204 1.405 . S
C205 H231 0.931 . S
U206 O207 2.454 . S
U206 O208 2.458 . S
U206 C209 2.984 . S
U206 C210 2.847 . S
U206 C223 2.882 . S
U206 O224 2.441 . S
U206 O225 2.420 . S
U206 O226 2.455 . S
U206 O227 2.449 . S
O207 U206 2.454 . S
O207 C209 1.353 . S
O208 U206 2.458 . S
O208 C209 1.286 . S
C209 U206 2.984 . S
C209 O207 1.353 . S
C209 O208 1.286 . S
C209 C211 1.363 . S
C210 C200 1.465 . S
C210 U206 2.847 . S
C210 O224 1.249 . S
C210 O225 1.202 . S
C211 C209 1.363 . S
C211 C213 1.408 . S
C211 C216 1.342 . S
C212 C213 1.310 . S
C212 C215 1.461 . S
C212 H232 0.932 . S
C213 C211 1.408 . S
C213 C212 1.310 . S
C213 H233 0.930 . S
C214 C215 1.474 . S
C214 C216 1.285 . S
C214 H234 0.929 . S
C215 C212 1.461 . S
C215 C214 1.474 . S
C216 C211 1.342 . S
C216 C214 1.285 . S
C216 H235 0.930 . S
C217 C220 1.424 . S
C217 C222 1.245 . S
C217 C223 1.428 . S
C218 C221 1.260 . S
C218 C222 1.477 . S
C218 H236 0.932 . S
C219 C220 1.384 . S
C219 C221 1.479 . S
C219 H237 0.929 . S
C220 C217 1.424 . S
C220 C219 1.384 . S
C220 H238 0.928 . S
C221 C218 1.260 . S
C221 C219 1.479 . S
C222 C217 1.245 . S
C222 C218 1.477 . S
C222 H239 0.932 . S
C223 U206 2.882 . S
C223 C217 1.428 . S
C223 O226 1.301 . S
C223 O227 1.282 . S
O224 U206 2.441 . S
O224 C210 1.249 . S
O225 U206 2.420 . S
O225 C210 1.202 . S
O226 U206 2.455 . S
O226 C223 1.301 . S
O227 U206 2.449 . S
O227 C223 1.282 . S
H228 C201 0.931 . S
H229 C203 0.929 . S
H230 C204 0.930 . S
H231 C205 0.931 . S
H232 C212 0.932 . S
H233 C213 0.930 . S
H234 C214 0.929 . S
H235 C216 0.930 . S
H236 C218 0.932 . S
H237 C219 0.929 . S
H238 C220 0.928 . S
H239 C222 0.932 . S
C240 C241 1.264 . S
C240 C245 1.479 . S
C240 C250 1.465 . S
C241 C240 1.264 . S
C241 C243 1.339 . S
C241 H268 0.931 . S
C242 C243 1.395 . S
C242 C244 1.320 . S
C243 C241 1.339 . S
C243 C242 1.395 . S
C243 H269 0.929 . S
C244 C242 1.320 . S
C244 C245 1.405 . S
C244 H270 0.930 . S
C245 C240 1.479 . S
C245 C244 1.405 . S
C245 H271 0.931 . S
U246 O247 2.454 . S
U246 O248 2.458 . S
U246 C249 2.984 . S
U246 C250 2.847 . S
U246 C263 2.882 . S
U246 O264 2.441 . S
U246 O265 2.420 . S
U246 O266 2.455 . S
U246 O267 2.449 . S
O247 U246 2.454 . S
O247 C249 1.353 . S
O248 U246 2.458 . S
O248 C249 1.286 . S
C249 U246 2.984 . S
C249 O247 1.353 . S
C249 O248 1.286 . S
C249 C251 1.363 . S
C250 C240 1.465 . S
C250 U246 2.847 . S
C250 O264 1.249 . S
C250 O265 1.202 . S
C251 C249 1.363 . S
C251 C253 1.408 . S
C251 C256 1.342 . S
C252 C253 1.310 . S
C252 C255 1.461 . S
C252 H272 0.932 . S
C253 C251 1.408 . S
C253 C252 1.310 . S
C253 H273 0.930 . S
C254 C255 1.474 . S
C254 C256 1.285 . S
C254 H274 0.929 . S
C255 C252 1.461 . S
C255 C254 1.474 . S
C256 C251 1.342 . S
C256 C254 1.285 . S
C256 H275 0.930 . S
C257 C260 1.424 . S
C257 C262 1.245 . S
C257 C263 1.428 . S
C258 C261 1.260 . S
C258 C262 1.477 . S
C258 H276 0.932 . S
C259 C260 1.384 . S
C259 C261 1.479 . S
C259 H277 0.929 . S
C260 C257 1.424 . S
C260 C259 1.384 . S
C260 H278 0.928 . S
C261 C258 1.260 . S
C261 C259 1.479 . S
C262 C257 1.245 . S
C262 C258 1.477 . S
C262 H279 0.932 . S
C263 U246 2.882 . S
C263 C257 1.428 . S
C263 O266 1.301 . S
C263 O267 1.282 . S
O264 U246 2.441 . S
O264 C250 1.249 . S
O265 U246 2.420 . S
O265 C250 1.202 . S
O266 U246 2.455 . S
O266 C263 1.301 . S
O267 U246 2.449 . S
O267 C263 1.282 . S
H268 C241 0.931 . S
H269 C243 0.929 . S
H270 C244 0.930 . S
H271 C245 0.931 . S
H272 C252 0.932 . S
H273 C253 0.930 . S
H274 C254 0.929 . S
H275 C256 0.930 . S
H276 C258 0.932 . S
H277 C259 0.929 . S
H278 C260 0.928 . S
H279 C262 0.932 . S
C280 C281 1.264 . S
C280 C285 1.479 . S
C280 C290 1.465 . S
C281 C280 1.264 . S
C281 C283 1.339 . S
C281 H308 0.931 . S
C282 C283 1.395 . S
C282 C284 1.320 . S
C283 C281 1.339 . S
C283 C282 1.395 . S
C283 H309 0.929 . S
C284 C282 1.320 . S
C284 C285 1.405 . S
C284 H310 0.930 . S
C285 C280 1.479 . S
C285 C284 1.405 . S
C285 H311 0.931 . S
U286 O287 2.454 . S
U286 O288 2.458 . S
U286 C289 2.984 . S
U286 C290 2.847 . S
U286 C303 2.882 . S
U286 O304 2.441 . S
U286 O305 2.420 . S
U286 O306 2.455 . S
U286 O307 2.449 . S
O287 U286 2.454 . S
O287 C289 1.353 . S
O288 U286 2.458 . S
O288 C289 1.286 . S
C289 U286 2.984 . S
C289 O287 1.353 . S
C289 O288 1.286 . S
C289 C291 1.363 . S
C290 C280 1.465 . S
C290 U286 2.847 . S
C290 O304 1.249 . S
C290 O305 1.202 . S
C291 C289 1.363 . S
C291 C293 1.408 . S
C291 C296 1.342 . S
C292 C293 1.310 . S
C292 C295 1.461 . S
C292 H312 0.932 . S
C293 C291 1.408 . S
C293 C292 1.310 . S
C293 H313 0.930 . S
C294 C295 1.474 . S
C294 C296 1.285 . S
C294 H314 0.929 . S
C295 C292 1.461 . S
C295 C294 1.474 . S
C296 C291 1.342 . S
C296 C294 1.285 . S
C296 H315 0.930 . S
C297 C300 1.424 . S
C297 C302 1.245 . S
C297 C303 1.428 . S
C298 C301 1.260 . S
C298 C302 1.477 . S
C298 H316 0.932 . S
C299 C300 1.384 . S
C299 C301 1.479 . S
C299 H317 0.929 . S
C300 C297 1.424 . S
C300 C299 1.384 . S
C300 H318 0.928 . S
C301 C298 1.260 . S
C301 C299 1.479 . S
C302 C297 1.245 . S
C302 C298 1.477 . S
C302 H319 0.932 . S
C303 U286 2.882 . S
C303 C297 1.428 . S
C303 O306 1.301 . S
C303 O307 1.282 . S
O304 U286 2.441 . S
O304 C290 1.249 . S
O305 U286 2.420 . S
O305 C290 1.202 . S
O306 U286 2.455 . S
O306 C303 1.301 . S
O307 U286 2.449 . S
O307 C303 1.282 . S
H308 C281 0.931 . S
H309 C283 0.929 . S
H310 C284 0.930 . S
H311 C285 0.931 . S
H312 C292 0.932 . S
H313 C293 0.930 . S
H314 C294 0.929 . S
H315 C296 0.930 . S
H316 C298 0.932 . S
H317 C299 0.929 . S
H318 C300 0.928 . S
H319 C302 0.932 . S
C320 C321 1.264 . S
C320 C325 1.479 . S
C320 C330 1.465 . S
C321 C320 1.264 . S
C321 C323 1.339 . S
C321 H348 0.931 . S
C322 C323 1.395 . S
C322 C324 1.320 . S
C323 C321 1.339 . S
C323 C322 1.395 . S
C323 H349 0.929 . S
C324 C322 1.320 . S
C324 C325 1.405 . S
C324 H350 0.930 . S
C325 C320 1.479 . S
C325 C324 1.405 . S
C325 H351 0.931 . S
U326 O327 2.454 . S
U326 O328 2.458 . S
U326 C329 2.984 . S
U326 C330 2.847 . S
U326 C343 2.882 . S
U326 O344 2.441 . S
U326 O345 2.420 . S
U326 O346 2.455 . S
U326 O347 2.449 . S
O327 U326 2.454 . S
O327 C329 1.353 . S
O328 U326 2.458 . S
O328 C329 1.286 . S
C329 U326 2.984 . S
C329 O327 1.353 . S
C329 O328 1.286 . S
C329 C331 1.363 . S
C330 C320 1.465 . S
C330 U326 2.847 . S
C330 O344 1.249 . S
C330 O345 1.202 . S
C331 C329 1.363 . S
C331 C333 1.408 . S
C331 C336 1.342 . S
C332 C333 1.310 . S
C332 C335 1.461 . S
C332 H352 0.932 . S
C333 C331 1.408 . S
C333 C332 1.310 . S
C333 H353 0.930 . S
C334 C335 1.474 . S
C334 C336 1.285 . S
C334 H354 0.929 . S
C335 C332 1.461 . S
C335 C334 1.474 . S
C336 C331 1.342 . S
C336 C334 1.285 . S
C336 H355 0.930 . S
C337 C340 1.424 . S
C337 C342 1.245 . S
C337 C343 1.428 . S
C338 C341 1.260 . S
C338 C342 1.477 . S
C338 H356 0.932 . S
C339 C340 1.384 . S
C339 C341 1.479 . S
C339 H357 0.929 . S
C340 C337 1.424 . S
C340 C339 1.384 . S
C340 H358 0.928 . S
C341 C338 1.260 . S
C341 C339 1.479 . S
C342 C337 1.245 . S
C342 C338 1.477 . S
C342 H359 0.932 . S
C343 U326 2.882 . S
C343 C337 1.428 . S
C343 O346 1.301 . S
C343 O347 1.282 . S
O344 U326 2.441 . S
O344 C330 1.249 . S
O345 U326 2.420 . S
O345 C330 1.202 . S
O346 U326 2.455 . S
O346 C343 1.301 . S
O347 U326 2.449 . S
O347 C343 1.282 . S
H348 C321 0.931 . S
H349 C323 0.929 . S
H350 C324 0.930 . S
H351 C325 0.931 . S
H352 C332 0.932 . S
H353 C333 0.930 . S
H354 C334 0.929 . S
H355 C336 0.930 . S
H356 C338 0.932 . S
H357 C339 0.929 . S
H358 C340 0.928 . S
H359 C342 0.932 . S
C360 C361 1.264 . S
C360 C365 1.479 . S
C360 C370 1.465 . S
C361 C360 1.264 . S
C361 C363 1.339 . S
C361 H388 0.931 . S
C362 C363 1.395 . S
C362 C364 1.320 . S
C363 C361 1.339 . S
C363 C362 1.395 . S
C363 H389 0.929 . S
C364 C362 1.320 . S
C364 C365 1.405 . S
C364 H390 0.930 . S
C365 C360 1.479 . S
C365 C364 1.405 . S
C365 H391 0.931 . S
U366 O367 2.454 . S
U366 O368 2.458 . S
U366 C369 2.984 . S
U366 C370 2.847 . S
U366 C383 2.882 . S
U366 O384 2.441 . S
U366 O385 2.420 . S
U366 O386 2.455 . S
U366 O387 2.449 . S
O367 U366 2.454 . S
O367 C369 1.353 . S
O368 U366 2.458 . S
O368 C369 1.286 . S
C369 U366 2.984 . S
C369 O367 1.353 . S
C369 O368 1.286 . S
C369 C371 1.363 . S
C370 C360 1.465 . S
C370 U366 2.847 . S
C370 O384 1.249 . S
C370 O385 1.202 . S
C371 C369 1.363 . S
C371 C373 1.408 . S
C371 C376 1.342 . S
C372 C373 1.310 . S
C372 C375 1.461 . S
C372 H392 0.932 . S
C373 C371 1.408 . S
C373 C372 1.310 . S
C373 H393 0.930 . S
C374 C375 1.474 . S
C374 C376 1.285 . S
C374 H394 0.929 . S
C375 C372 1.461 . S
C375 C374 1.474 . S
C376 C371 1.342 . S
C376 C374 1.285 . S
C376 H395 0.930 . S
C377 C380 1.424 . S
C377 C382 1.245 . S
C377 C383 1.428 . S
C378 C381 1.260 . S
C378 C382 1.477 . S
C378 H396 0.932 . S
C379 C380 1.384 . S
C379 C381 1.479 . S
C379 H397 0.929 . S
C380 C377 1.424 . S
C380 C379 1.384 . S
C380 H398 0.928 . S
C381 C378 1.260 . S
C381 C379 1.479 . S
C382 C377 1.245 . S
C382 C378 1.477 . S
C382 H399 0.932 . S
C383 U366 2.882 . S
C383 C377 1.428 . S
C383 O386 1.301 . S
C383 O387 1.282 . S
O384 U366 2.441 . S
O384 C370 1.249 . S
O385 U366 2.420 . S
O385 C370 1.202 . S
O386 U366 2.455 . S
O386 C383 1.301 . S
O387 U366 2.449 . S
O387 C383 1.282 . S
H388 C361 0.931 . S
H389 C363 0.929 . S
H390 C364 0.930 . S
H391 C365 0.931 . S
H392 C372 0.932 . S
H393 C373 0.930 . S
H394 C374 0.929 . S
H395 C376 0.930 . S
H396 C378 0.932 . S
H397 C379 0.929 . S
H398 C380 0.928 . S
H399 C382 0.932 . S
C400 C401 1.264 . S
C400 C405 1.479 . S
C400 C410 1.465 . S
C401 C400 1.264 . S
C401 C403 1.339 . S
C401 H428 0.931 . S
C402 C403 1.395 . S
C402 C404 1.320 . S
C403 C401 1.339 . S
C403 C402 1.395 . S
C403 H429 0.929 . S
C404 C402 1.320 . S
C404 C405 1.405 . S
C404 H430 0.930 . S
C405 C400 1.479 . S
C405 C404 1.405 . S
C405 H431 0.931 . S
U406 O407 2.454 . S
U406 O408 2.458 . S
U406 C409 2.984 . S
U406 C410 2.847 . S
U406 C423 2.882 . S
U406 O424 2.441 . S
U406 O425 2.420 . S
U406 O426 2.455 . S
U406 O427 2.449 . S
O407 U406 2.454 . S
O407 C409 1.353 . S
O408 U406 2.458 . S
O408 C409 1.286 . S
C409 U406 2.984 . S
C409 O407 1.353 . S
C409 O408 1.286 . S
C409 C411 1.363 . S
C410 C400 1.465 . S
C410 U406 2.847 . S
C410 O424 1.249 . S
C410 O425 1.202 . S
C411 C409 1.363 . S
C411 C413 1.408 . S
C411 C416 1.342 . S
C412 C413 1.310 . S
C412 C415 1.461 . S
C412 H432 0.932 . S
C413 C411 1.408 . S
C413 C412 1.310 . S
C413 H433 0.930 . S
C414 C415 1.474 . S
C414 C416 1.285 . S
C414 H434 0.929 . S
C415 C412 1.461 . S
C415 C414 1.474 . S
C416 C411 1.342 . S
C416 C414 1.285 . S
C416 H435 0.930 . S
C417 C420 1.424 . S
C417 C422 1.245 . S
C417 C423 1.428 . S
C418 C421 1.260 . S
C418 C422 1.477 . S
C418 H436 0.932 . S
C419 C420 1.384 . S
C419 C421 1.479 . S
C419 H437 0.929 . S
C420 C417 1.424 . S
C420 C419 1.384 . S
C420 H438 0.928 . S
C421 C418 1.260 . S
C421 C419 1.479 . S
C422 C417 1.245 . S
C422 C418 1.477 . S
C422 H439 0.932 . S
C423 U406 2.882 . S
C423 C417 1.428 . S
C423 O426 1.301 . S
C423 O427 1.282 . S
O424 U406 2.441 . S
O424 C410 1.249 . S
O425 U406 2.420 . S
O425 C410 1.202 . S
O426 U406 2.455 . S
O426 C423 1.301 . S
O427 U406 2.449 . S
O427 C423 1.282 . S
H428 C401 0.931 . S
H429 C403 0.929 . S
H430 C404 0.930 . S
H431 C405 0.931 . S
H432 C412 0.932 . S
H433 C413 0.930 . S
H434 C414 0.929 . S
H435 C416 0.930 . S
H436 C418 0.932 . S
H437 C419 0.929 . S
H438 C420 0.928 . S
H439 C422 0.932 . S
C440 C441 1.264 . S
C440 C445 1.479 . S
C440 C450 1.465 . S
C441 C440 1.264 . S
C441 C443 1.339 . S
C441 H468 0.931 . S
C442 C443 1.395 . S
C442 C444 1.320 . S
C443 C441 1.339 . S
C443 C442 1.395 . S
C443 H469 0.929 . S
C444 C442 1.320 . S
C444 C445 1.405 . S
C444 H470 0.930 . S
C445 C440 1.479 . S
C445 C444 1.405 . S
C445 H471 0.931 . S
U446 O447 2.454 . S
U446 O448 2.458 . S
U446 C449 2.984 . S
U446 C450 2.847 . S
U446 C463 2.882 . S
U446 O464 2.441 . S
U446 O465 2.420 . S
U446 O466 2.455 . S
U446 O467 2.449 . S
O447 U446 2.454 . S
O447 C449 1.353 . S
O448 U446 2.458 . S
O448 C449 1.286 . S
C449 U446 2.984 . S
C449 O447 1.353 . S
C449 O448 1.286 . S
C449 C451 1.363 . S
C450 C440 1.465 . S
C450 U446 2.847 . S
C450 O464 1.249 . S
C450 O465 1.202 . S
C451 C449 1.363 . S
C451 C453 1.408 . S
C451 C456 1.342 . S
C452 C453 1.310 . S
C452 C455 1.461 . S
C452 H472 0.932 . S
C453 C451 1.408 . S
C453 C452 1.310 . S
C453 H473 0.930 . S
C454 C455 1.474 . S
C454 C456 1.285 . S
C454 H474 0.929 . S
C455 C452 1.461 . S
C455 C454 1.474 . S
C456 C451 1.342 . S
C456 C454 1.285 . S
C456 H475 0.930 . S
C457 C460 1.424 . S
C457 C462 1.245 . S
C457 C463 1.428 . S
C458 C461 1.260 . S
C458 C462 1.477 . S
C458 H476 0.932 . S
C459 C460 1.384 . S
C459 C461 1.479 . S
C459 H477 0.929 . S
C460 C457 1.424 . S
C460 C459 1.384 . S
C460 H478 0.928 . S
C461 C458 1.260 . S
C461 C459 1.479 . S
C462 C457 1.245 . S
C462 C458 1.477 . S
C462 H479 0.932 . S
C463 U446 2.882 . S
C463 C457 1.428 . S
C463 O466 1.301 . S
C463 O467 1.282 . S
O464 U446 2.441 . S
O464 C450 1.249 . S
O465 U446 2.420 . S
O465 C450 1.202 . S
O466 U446 2.455 . S
O466 C463 1.301 . S
O467 U446 2.449 . S
O467 C463 1.282 . S
H468 C441 0.931 . S
H469 C443 0.929 . S
H470 C444 0.930 . S
H471 C445 0.931 . S
H472 C452 0.932 . S
H473 C453 0.930 . S
H474 C454 0.929 . S
H475 C456 0.930 . S
H476 C458 0.932 . S
H477 C459 0.929 . S
H478 C460 0.928 . S
H479 C462 0.932 . S
C480 C481 1.264 . S
C480 C485 1.479 . S
C480 C490 1.465 . S
C481 C480 1.264 . S
C481 C483 1.339 . S
C481 H508 0.931 . S
C482 C483 1.395 . S
C482 C484 1.320 . S
C483 C481 1.339 . S
C483 C482 1.395 . S
C483 H509 0.929 . S
C484 C482 1.320 . S
C484 C485 1.405 . S
C484 H510 0.930 . S
C485 C480 1.479 . S
C485 C484 1.405 . S
C485 H511 0.931 . S
U486 O487 2.454 . S
U486 O488 2.458 . S
U486 C489 2.984 . S
U486 C490 2.847 . S
U486 C503 2.882 . S
U486 O504 2.441 . S
U486 O505 2.420 . S
U486 O506 2.455 . S
U486 O507 2.449 . S
O487 U486 2.454 . S
O487 C489 1.353 . S
O488 U486 2.458 . S
O488 C489 1.286 . S
C489 U486 2.984 . S
C489 O487 1.353 . S
C489 O488 1.286 . S
C489 C491 1.363 . S
C490 C480 1.465 . S
C490 U486 2.847 . S
C490 O504 1.249 . S
C490 O505 1.202 . S
C491 C489 1.363 . S
C491 C493 1.408 . S
C491 C496 1.342 . S
C492 C493 1.310 . S
C492 C495 1.461 . S
C492 H512 0.932 . S
C493 C491 1.408 . S
C493 C492 1.310 . S
C493 H513 0.930 . S
C494 C495 1.474 . S
C494 C496 1.285 . S
C494 H514 0.929 . S
C495 C492 1.461 . S
C495 C494 1.474 . S
C496 C491 1.342 . S
C496 C494 1.285 . S
C496 H515 0.930 . S
C497 C500 1.424 . S
C497 C502 1.245 . S
C497 C503 1.428 . S
C498 C501 1.260 . S
C498 C502 1.477 . S
C498 H516 0.932 . S
C499 C500 1.384 . S
C499 C501 1.479 . S
C499 H517 0.929 . S
C500 C497 1.424 . S
C500 C499 1.384 . S
C500 H518 0.928 . S
C501 C498 1.260 . S
C501 C499 1.479 . S
C502 C497 1.245 . S
C502 C498 1.477 . S
C502 H519 0.932 . S
C503 U486 2.882 . S
C503 C497 1.428 . S
C503 O506 1.301 . S
C503 O507 1.282 . S
O504 U486 2.441 . S
O504 C490 1.249 . S
O505 U486 2.420 . S
O505 C490 1.202 . S
O506 U486 2.455 . S
O506 C503 1.301 . S
O507 U486 2.449 . S
O507 C503 1.282 . S
H508 C481 0.931 . S
H509 C483 0.929 . S
H510 C484 0.930 . S
H511 C485 0.931 . S
H512 C492 0.932 . S
H513 C493 0.930 . S
H514 C494 0.929 . S
H515 C496 0.930 . S
H516 C498 0.932 . S
H517 C499 0.929 . S
H518 C500 0.928 . S
H519 C502 0.932 . S
C520 C521 1.264 . S
C520 C525 1.479 . S
C520 C530 1.465 . S
C521 C520 1.264 . S
C521 C523 1.339 . S
C521 H548 0.931 . S
C522 C523 1.395 . S
C522 C524 1.320 . S
C523 C521 1.339 . S
C523 C522 1.395 . S
C523 H549 0.929 . S
C524 C522 1.320 . S
C524 C525 1.405 . S
C524 H550 0.930 . S
C525 C520 1.479 . S
C525 C524 1.405 . S
C525 H551 0.931 . S
U526 O527 2.454 . S
U526 O528 2.458 . S
U526 C529 2.984 . S
U526 C530 2.847 . S
U526 C543 2.882 . S
U526 O544 2.441 . S
U526 O545 2.420 . S
U526 O546 2.455 . S
U526 O547 2.449 . S
O527 U526 2.454 . S
O527 C529 1.353 . S
O528 U526 2.458 . S
O528 C529 1.286 . S
C529 U526 2.984 . S
C529 O527 1.353 . S
C529 O528 1.286 . S
C529 C531 1.363 . S
C530 C520 1.465 . S
C530 U526 2.847 . S
C530 O544 1.249 . S
C530 O545 1.202 . S
C531 C529 1.363 . S
C531 C533 1.408 . S
C531 C536 1.342 . S
C532 C533 1.310 . S
C532 C535 1.461 . S
C532 H552 0.932 . S
C533 C531 1.408 . S
C533 C532 1.310 . S
C533 H553 0.930 . S
C534 C535 1.474 . S
C534 C536 1.285 . S
C534 H554 0.929 . S
C535 C532 1.461 . S
C535 C534 1.474 . S
C536 C531 1.342 . S
C536 C534 1.285 . S
C536 H555 0.930 . S
C537 C540 1.424 . S
C537 C542 1.245 . S
C537 C543 1.428 . S
C538 C541 1.260 . S
C538 C542 1.477 . S
C538 H556 0.932 . S
C539 C540 1.384 . S
C539 C541 1.479 . S
C539 H557 0.929 . S
C540 C537 1.424 . S
C540 C539 1.384 . S
C540 H558 0.928 . S
C541 C538 1.260 . S
C541 C539 1.479 . S
C542 C537 1.245 . S
C542 C538 1.477 . S
C542 H559 0.932 . S
C543 U526 2.882 . S
C543 C537 1.428 . S
C543 O546 1.301 . S
C543 O547 1.282 . S
O544 U526 2.441 . S
O544 C530 1.249 . S
O545 U526 2.420 . S
O545 C530 1.202 . S
O546 U526 2.455 . S
O546 C543 1.301 . S
O547 U526 2.449 . S
O547 C543 1.282 . S
H548 C521 0.931 . S
H549 C523 0.929 . S
H550 C524 0.930 . S
H551 C525 0.931 . S
H552 C532 0.932 . S
H553 C533 0.930 . S
H554 C534 0.929 . S
H555 C536 0.930 . S
H556 C538 0.932 . S
H557 C539 0.929 . S
H558 C540 0.928 . S
H559 C542 0.932 . S
C560 C561 1.264 . S
C560 C565 1.479 . S
C560 C570 1.465 . S
C561 C560 1.264 . S
C561 C563 1.339 . S
C561 H588 0.931 . S
C562 C563 1.395 . S
C562 C564 1.320 . S
C563 C561 1.339 . S
C563 C562 1.395 . S
C563 H589 0.929 . S
C564 C562 1.320 . S
C564 C565 1.405 . S
C564 H590 0.930 . S
C565 C560 1.479 . S
C565 C564 1.405 . S
C565 H591 0.931 . S
U566 O567 2.454 . S
U566 O568 2.458 . S
U566 C569 2.984 . S
U566 C570 2.847 . S
U566 C583 2.882 . S
U566 O584 2.441 . S
U566 O585 2.420 . S
U566 O586 2.455 . S
U566 O587 2.449 . S
O567 U566 2.454 . S
O567 C569 1.353 . S
O568 U566 2.458 . S
O568 C569 1.286 . S
C569 U566 2.984 . S
C569 O567 1.353 . S
C569 O568 1.286 . S
C569 C571 1.363 . S
C570 C560 1.465 . S
C570 U566 2.847 . S
C570 O584 1.249 . S
C570 O585 1.202 . S
C571 C569 1.363 . S
C571 C573 1.408 . S
C571 C576 1.342 . S
C572 C573 1.310 . S
C572 C575 1.461 . S
C572 H592 0.932 . S
C573 C571 1.408 . S
C573 C572 1.310 . S
C573 H593 0.930 . S
C574 C575 1.474 . S
C574 C576 1.285 . S
C574 H594 0.929 . S
C575 C572 1.461 . S
C575 C574 1.474 . S
C576 C571 1.342 . S
C576 C574 1.285 . S
C576 H595 0.930 . S
C577 C580 1.424 . S
C577 C582 1.245 . S
C577 C583 1.428 . S
C578 C581 1.260 . S
C578 C582 1.477 . S
C578 H596 0.932 . S
C579 C580 1.384 . S
C579 C581 1.479 . S
C579 H597 0.929 . S
C580 C577 1.424 . S
C580 C579 1.384 . S
C580 H598 0.928 . S
C581 C578 1.260 . S
C581 C579 1.479 . S
C582 C577 1.245 . S
C582 C578 1.477 . S
C582 H599 0.932 . S
C583 U566 2.882 . S
C583 C577 1.428 . S
C583 O586 1.301 . S
C583 O587 1.282 . S
O584 U566 2.441 . S
O584 C570 1.249 . S
O585 U566 2.420 . S
O585 C570 1.202 . S
O586 U566 2.455 . S
O586 C583 1.301 . S
O587 U566 2.449 . S
O587 C583 1.282 . S
H588 C561 0.931 . S
H589 C563 0.929 . S
H590 C564 0.930 . S
H591 C565 0.931 . S
H592 C572 0.932 . S
H593 C573 0.930 . S
H594 C574 0.929 . S
H595 C576 0.930 . S
H596 C578 0.932 . S
H597 C579 0.929 . S
H598 C580 0.928 . S
H599 C582 0.932 . S
C600 C601 1.264 . S
C600 C605 1.479 . S
C600 C610 1.465 . S
C601 C600 1.264 . S
C601 C603 1.339 . S
C601 H628 0.931 . S
C602 C603 1.395 . S
C602 C604 1.320 . S
C603 C601 1.339 . S
C603 C602 1.395 . S
C603 H629 0.929 . S
C604 C602 1.320 . S
C604 C605 1.405 . S
C604 H630 0.930 . S
C605 C600 1.479 . S
C605 C604 1.405 . S
C605 H631 0.931 . S
U606 O607 2.454 . S
U606 O608 2.458 . S
U606 C609 2.984 . S
U606 C610 2.847 . S
U606 C623 2.882 . S
U606 O624 2.441 . S
U606 O625 2.420 . S
U606 O626 2.455 . S
U606 O627 2.449 . S
O607 U606 2.454 . S
O607 C609 1.353 . S
O608 U606 2.458 . S
O608 C609 1.286 . S
C609 U606 2.984 . S
C609 O607 1.353 . S
C609 O608 1.286 . S
C609 C611 1.363 . S
C610 C600 1.465 . S
C610 U606 2.847 . S
C610 O624 1.249 . S
C610 O625 1.202 . S
C611 C609 1.363 . S
C611 C613 1.408 . S
C611 C616 1.342 . S
C612 C613 1.310 . S
C612 C615 1.461 . S
C612 H632 0.932 . S
C613 C611 1.408 . S
C613 C612 1.310 . S
C613 H633 0.930 . S
C614 C615 1.474 . S
C614 C616 1.285 . S
C614 H634 0.929 . S
C615 C612 1.461 . S
C615 C614 1.474 . S
C616 C611 1.342 . S
C616 C614 1.285 . S
C616 H635 0.930 . S
C617 C620 1.424 . S
C617 C622 1.245 . S
C617 C623 1.428 . S
C618 C621 1.260 . S
C618 C622 1.477 . S
C618 H636 0.932 . S
C619 C620 1.384 . S
C619 C621 1.479 . S
C619 H637 0.929 . S
C620 C617 1.424 . S
C620 C619 1.384 . S
C620 H638 0.928 . S
C621 C618 1.260 . S
C621 C619 1.479 . S
C622 C617 1.245 . S
C622 C618 1.477 . S
C622 H639 0.932 . S
C623 U606 2.882 . S
C623 C617 1.428 . S
C623 O626 1.301 . S
C623 O627 1.282 . S
O624 U606 2.441 . S
O624 C610 1.249 . S
O625 U606 2.420 . S
O625 C610 1.202 . S
O626 U606 2.455 . S
O626 C623 1.301 . S
O627 U606 2.449 . S
O627 C623 1.282 . S
H628 C601 0.931 . S
H629 C603 0.929 . S
H630 C604 0.930 . S
H631 C605 0.931 . S
H632 C612 0.932 . S
H633 C613 0.930 . S
H634 C614 0.929 . S
H635 C616 0.930 . S
H636 C618 0.932 . S
H637 C619 0.929 . S
H638 C620 0.928 . S
H639 C622 0.932 . S
C640 C641 1.264 . S
C640 C645 1.479 . S
C640 C650 1.465 . S
C641 C640 1.264 . S
C641 C643 1.339 . S
C641 H668 0.931 . S
C642 C643 1.395 . S
C642 C644 1.320 . S
C643 C641 1.339 . S
C643 C642 1.395 . S
C643 H669 0.929 . S
C644 C642 1.320 . S
C644 C645 1.405 . S
C644 H670 0.930 . S
C645 C640 1.479 . S
C645 C644 1.405 . S
C645 H671 0.931 . S
U646 O647 2.454 . S
U646 O648 2.458 . S
U646 C649 2.984 . S
U646 C650 2.847 . S
U646 C663 2.882 . S
U646 O664 2.441 . S
U646 O665 2.420 . S
U646 O666 2.455 . S
U646 O667 2.449 . S
O647 U646 2.454 . S
O647 C649 1.353 . S
O648 U646 2.458 . S
O648 C649 1.286 . S
C649 U646 2.984 . S
C649 O647 1.353 . S
C649 O648 1.286 . S
C649 C651 1.363 . S
C650 C640 1.465 . S
C650 U646 2.847 . S
C650 O664 1.249 . S
C650 O665 1.202 . S
C651 C649 1.363 . S
C651 C653 1.408 . S
C651 C656 1.342 . S
C652 C653 1.310 . S
C652 C655 1.461 . S
C652 H672 0.932 . S
C653 C651 1.408 . S
C653 C652 1.310 . S
C653 H673 0.930 . S
C654 C655 1.474 . S
C654 C656 1.285 . S
C654 H674 0.929 . S
C655 C652 1.461 . S
C655 C654 1.474 . S
C656 C651 1.342 . S
C656 C654 1.285 . S
C656 H675 0.930 . S
C657 C660 1.424 . S
C657 C662 1.245 . S
C657 C663 1.428 . S
C658 C661 1.260 . S
C658 C662 1.477 . S
C658 H676 0.932 . S
C659 C660 1.384 . S
C659 C661 1.479 . S
C659 H677 0.929 . S
C660 C657 1.424 . S
C660 C659 1.384 . S
C660 H678 0.928 . S
C661 C658 1.260 . S
C661 C659 1.479 . S
C662 C657 1.245 . S
C662 C658 1.477 . S
C662 H679 0.932 . S
C663 U646 2.882 . S
C663 C657 1.428 . S
C663 O666 1.301 . S
C663 O667 1.282 . S
O664 U646 2.441 . S
O664 C650 1.249 . S
O665 U646 2.420 . S
O665 C650 1.202 . S
O666 U646 2.455 . S
O666 C663 1.301 . S
O667 U646 2.449 . S
O667 C663 1.282 . S
H668 C641 0.931 . S
H669 C643 0.929 . S
H670 C644 0.930 . S
H671 C645 0.931 . S
H672 C652 0.932 . S
H673 C653 0.930 . S
H674 C654 0.929 . S
H675 C656 0.930 . S
H676 C658 0.932 . S
H677 C659 0.929 . S
H678 C660 0.928 . S
H679 C662 0.932 . S
C680 C681 1.264 . S
C680 C685 1.479 . S
C680 C690 1.465 . S
C681 C680 1.264 . S
C681 C683 1.339 . S
C681 H708 0.931 . S
C682 C683 1.395 . S
C682 C684 1.320 . S
C683 C681 1.339 . S
C683 C682 1.395 . S
C683 H709 0.929 . S
C684 C682 1.320 . S
C684 C685 1.405 . S
C684 H710 0.930 . S
C685 C680 1.479 . S
C685 C684 1.405 . S
C685 H711 0.931 . S
U686 O687 2.454 . S
U686 O688 2.458 . S
U686 C689 2.984 . S
U686 C690 2.847 . S
U686 C703 2.882 . S
U686 O704 2.441 . S
U686 O705 2.420 . S
U686 O706 2.455 . S
U686 O707 2.449 . S
O687 U686 2.454 . S
O687 C689 1.353 . S
O688 U686 2.458 . S
O688 C689 1.286 . S
C689 U686 2.984 . S
C689 O687 1.353 . S
C689 O688 1.286 . S
C689 C691 1.363 . S
C690 C680 1.465 . S
C690 U686 2.847 . S
C690 O704 1.249 . S
C690 O705 1.202 . S
C691 C689 1.363 . S
C691 C693 1.408 . S
C691 C696 1.342 . S
C692 C693 1.310 . S
C692 C695 1.461 . S
C692 H712 0.932 . S
C693 C691 1.408 . S
C693 C692 1.310 . S
C693 H713 0.930 . S
C694 C695 1.474 . S
C694 C696 1.285 . S
C694 H714 0.929 . S
C695 C692 1.461 . S
C695 C694 1.474 . S
C696 C691 1.342 . S
C696 C694 1.285 . S
C696 H715 0.930 . S
C697 C700 1.424 . S
C697 C702 1.245 . S
C697 C703 1.428 . S
C698 C701 1.260 . S
C698 C702 1.477 . S
C698 H716 0.932 . S
C699 C700 1.384 . S
C699 C701 1.479 . S
C699 H717 0.929 . S
C700 C697 1.424 . S
C700 C699 1.384 . S
C700 H718 0.928 . S
C701 C698 1.260 . S
C701 C699 1.479 . S
C702 C697 1.245 . S
C702 C698 1.477 . S
C702 H719 0.932 . S
C703 U686 2.882 . S
C703 C697 1.428 . S
C703 O706 1.301 . S
C703 O707 1.282 . S
O704 U686 2.441 . S
O704 C690 1.249 . S
O705 U686 2.420 . S
O705 C690 1.202 . S
O706 U686 2.455 . S
O706 C703 1.301 . S
O707 U686 2.449 . S
O707 C703 1.282 . S
H708 C681 0.931 . S
H709 C683 0.929 . S
H710 C684 0.930 . S
H711 C685 0.931 . S
H712 C692 0.932 . S
H713 C693 0.930 . S
H714 C694 0.929 . S
H715 C696 0.930 . S
H716 C698 0.932 . S
H717 C699 0.929 . S
H718 C700 0.928 . S
H719 C702 0.932 . S
C720 C721 1.264 . S
C720 C725 1.479 . S
C720 C730 1.465 . S
C721 C720 1.264 . S
C721 C723 1.339 . S
C721 H748 0.931 . S
C722 C723 1.395 . S
C722 C724 1.320 . S
C723 C721 1.339 . S
C723 C722 1.395 . S
C723 H749 0.929 . S
C724 C722 1.320 . S
C724 C725 1.405 . S
C724 H750 0.930 . S
C725 C720 1.479 . S
C725 C724 1.405 . S
C725 H751 0.931 . S
U726 O727 2.454 . S
U726 O728 2.458 . S
U726 C729 2.984 . S
U726 C730 2.847 . S
U726 C743 2.882 . S
U726 O744 2.441 . S
U726 O745 2.420 . S
U726 O746 2.455 . S
U726 O747 2.449 . S
O727 U726 2.454 . S
O727 C729 1.353 . S
O728 U726 2.458 . S
O728 C729 1.286 . S
C729 U726 2.984 . S
C729 O727 1.353 . S
C729 O728 1.286 . S
C729 C731 1.363 . S
C730 C720 1.465 . S
C730 U726 2.847 . S
C730 O744 1.249 . S
C730 O745 1.202 . S
C731 C729 1.363 . S
C731 C733 1.408 . S
C731 C736 1.342 . S
C732 C733 1.310 . S
C732 C735 1.461 . S
C732 H752 0.932 . S
C733 C731 1.408 . S
C733 C732 1.310 . S
C733 H753 0.930 . S
C734 C735 1.474 . S
C734 C736 1.285 . S
C734 H754 0.929 . S
C735 C732 1.461 . S
C735 C734 1.474 . S
C736 C731 1.342 . S
C736 C734 1.285 . S
C736 H755 0.930 . S
C737 C740 1.424 . S
C737 C742 1.245 . S
C737 C743 1.428 . S
C738 C741 1.260 . S
C738 C742 1.477 . S
C738 H756 0.932 . S
C739 C740 1.384 . S
C739 C741 1.479 . S
C739 H757 0.929 . S
C740 C737 1.424 . S
C740 C739 1.384 . S
C740 H758 0.928 . S
C741 C738 1.260 . S
C741 C739 1.479 . S
C742 C737 1.245 . S
C742 C738 1.477 . S
C742 H759 0.932 . S
C743 U726 2.882 . S
C743 C737 1.428 . S
C743 O746 1.301 . S
C743 O747 1.282 . S
O744 U726 2.441 . S
O744 C730 1.249 . S
O745 U726 2.420 . S
O745 C730 1.202 . S
O746 U726 2.455 . S
O746 C743 1.301 . S
O747 U726 2.449 . S
O747 C743 1.282 . S
H748 C721 0.931 . S
H749 C723 0.929 . S
H750 C724 0.930 . S
H751 C725 0.931 . S
H752 C732 0.932 . S
H753 C733 0.930 . S
H754 C734 0.929 . S
H755 C736 0.930 . S
H756 C738 0.932 . S
H757 C739 0.929 . S
H758 C740 0.928 . S
H759 C742 0.932 . S
C760 C761 1.264 . S
C760 C765 1.479 . S
C760 C770 1.465 . S
C761 C760 1.264 . S
C761 C763 1.339 . S
C761 H788 0.931 . S
C762 C763 1.395 . S
C762 C764 1.320 . S
C763 C761 1.339 . S
C763 C762 1.395 . S
C763 H789 0.929 . S
C764 C762 1.320 . S
C764 C765 1.405 . S
C764 H790 0.930 . S
C765 C760 1.479 . S
C765 C764 1.405 . S
C765 H791 0.931 . S
U766 O767 2.454 . S
U766 O768 2.458 . S
U766 C769 2.984 . S
U766 C770 2.847 . S
U766 C783 2.882 . S
U766 O784 2.441 . S
U766 O785 2.420 . S
U766 O786 2.455 . S
U766 O787 2.449 . S
O767 U766 2.454 . S
O767 C769 1.353 . S
O768 U766 2.458 . S
O768 C769 1.286 . S
C769 U766 2.984 . S
C769 O767 1.353 . S
C769 O768 1.286 . S
C769 C771 1.363 . S
C770 C760 1.465 . S
C770 U766 2.847 . S
C770 O784 1.249 . S
C770 O785 1.202 . S
C771 C769 1.363 . S
C771 C773 1.408 . S
C771 C776 1.342 . S
C772 C773 1.310 . S
C772 C775 1.461 . S
C772 H792 0.932 . S
C773 C771 1.408 . S
C773 C772 1.310 . S
C773 H793 0.930 . S
C774 C775 1.474 . S
C774 C776 1.285 . S
C774 H794 0.929 . S
C775 C772 1.461 . S
C775 C774 1.474 . S
C776 C771 1.342 . S
C776 C774 1.285 . S
C776 H795 0.930 . S
C777 C780 1.424 . S
C777 C782 1.245 . S
C777 C783 1.428 . S
C778 C781 1.260 . S
C778 C782 1.477 . S
C778 H796 0.932 . S
C779 C780 1.384 . S
C779 C781 1.479 . S
C779 H797 0.929 . S
C780 C777 1.424 . S
C780 C779 1.384 . S
C780 H798 0.928 . S
C781 C778 1.260 . S
C781 C779 1.479 . S
C782 C777 1.245 . S
C782 C778 1.477 . S
C782 H799 0.932 . S
C783 U766 2.882 . S
C783 C777 1.428 . S
C783 O786 1.301 . S
C783 O787 1.282 . S
O784 U766 2.441 . S
O784 C770 1.249 . S
O785 U766 2.420 . S
O785 C770 1.202 . S
O786 U766 2.455 . S
O786 C783 1.301 . S
O787 U766 2.449 . S
O787 C783 1.282 . S
H788 C761 0.931 . S
H789 C763 0.929 . S
H790 C764 0.930 . S
H791 C765 0.931 . S
H792 C772 0.932 . S
H793 C773 0.930 . S
H794 C774 0.929 . S
H795 C776 0.930 . S
H796 C778 0.932 . S
H797 C779 0.929 . S
H798 C780 0.928 . S
H799 C782 0.932 . S
C800 C801 1.264 . S
C800 C805 1.479 . S
C800 C810 1.465 . S
C801 C800 1.264 . S
C801 C803 1.339 . S
C801 H828 0.931 . S
C802 C803 1.395 . S
C802 C804 1.320 . S
C803 C801 1.339 . S
C803 C802 1.395 . S
C803 H829 0.929 . S
C804 C802 1.320 . S
C804 C805 1.405 . S
C804 H830 0.930 . S
C805 C800 1.479 . S
C805 C804 1.405 . S
C805 H831 0.931 . S
U806 O807 2.454 . S
U806 O808 2.458 . S
U806 C809 2.984 . S
U806 C810 2.847 . S
U806 C823 2.882 . S
U806 O824 2.441 . S
U806 O825 2.420 . S
U806 O826 2.455 . S
U806 O827 2.449 . S
O807 U806 2.454 . S
O807 C809 1.353 . S
O808 U806 2.458 . S
O808 C809 1.286 . S
C809 U806 2.984 . S
C809 O807 1.353 . S
C809 O808 1.286 . S
C809 C811 1.363 . S
C810 C800 1.465 . S
C810 U806 2.847 . S
C810 O824 1.249 . S
C810 O825 1.202 . S
C811 C809 1.363 . S
C811 C813 1.408 . S
C811 C816 1.342 . S
C812 C813 1.310 . S
C812 C815 1.461 . S
C812 H832 0.932 . S
C813 C811 1.408 . S
C813 C812 1.310 . S
C813 H833 0.930 . S
C814 C815 1.474 . S
C814 C816 1.285 . S
C814 H834 0.929 . S
C815 C812 1.461 . S
C815 C814 1.474 . S
C816 C811 1.342 . S
C816 C814 1.285 . S
C816 H835 0.930 . S
C817 C820 1.424 . S
C817 C822 1.245 . S
C817 C823 1.428 . S
C818 C821 1.260 . S
C818 C822 1.477 . S
C818 H836 0.932 . S
C819 C820 1.384 . S
C819 C821 1.479 . S
C819 H837 0.929 . S
C820 C817 1.424 . S
C820 C819 1.384 . S
C820 H838 0.928 . S
C821 C818 1.260 . S
C821 C819 1.479 . S
C822 C817 1.245 . S
C822 C818 1.477 . S
C822 H839 0.932 . S
C823 U806 2.882 . S
C823 C817 1.428 . S
C823 O826 1.301 . S
C823 O827 1.282 . S
O824 U806 2.441 . S
O824 C810 1.249 . S
O825 U806 2.420 . S
O825 C810 1.202 . S
O826 U806 2.455 . S
O826 C823 1.301 . S
O827 U806 2.449 . S
O827 C823 1.282 . S
H828 C801 0.931 . S
H829 C803 0.929 . S
H830 C804 0.930 . S
H831 C805 0.931 . S
H832 C812 0.932 . S
H833 C813 0.930 . S
H834 C814 0.929 . S
H835 C816 0.930 . S
H836 C818 0.932 . S
H837 C819 0.929 . S
H838 C820 0.928 . S
H839 C822 0.932 . S
C840 C841 1.264 . S
C840 C845 1.479 . S
C840 C850 1.465 . S
C841 C840 1.264 . S
C841 C843 1.339 . S
C841 H868 0.931 . S
C842 C843 1.395 . S
C842 C844 1.320 . S
C843 C841 1.339 . S
C843 C842 1.395 . S
C843 H869 0.929 . S
C844 C842 1.320 . S
C844 C845 1.405 . S
C844 H870 0.930 . S
C845 C840 1.479 . S
C845 C844 1.405 . S
C845 H871 0.931 . S
U846 O847 2.454 . S
U846 O848 2.458 . S
U846 C849 2.984 . S
U846 C850 2.847 . S
U846 C863 2.882 . S
U846 O864 2.441 . S
U846 O865 2.420 . S
U846 O866 2.455 . S
U846 O867 2.449 . S
O847 U846 2.454 . S
O847 C849 1.353 . S
O848 U846 2.458 . S
O848 C849 1.286 . S
C849 U846 2.984 . S
C849 O847 1.353 . S
C849 O848 1.286 . S
C849 C851 1.363 . S
C850 C840 1.465 . S
C850 U846 2.847 . S
C850 O864 1.249 . S
C850 O865 1.202 . S
C851 C849 1.363 . S
C851 C853 1.408 . S
C851 C856 1.342 . S
C852 C853 1.310 . S
C852 C855 1.461 . S
C852 H872 0.932 . S
C853 C851 1.408 . S
C853 C852 1.310 . S
C853 H873 0.930 . S
C854 C855 1.474 . S
C854 C856 1.285 . S
C854 H874 0.929 . S
C855 C852 1.461 . S
C855 C854 1.474 . S
C856 C851 1.342 . S
C856 C854 1.285 . S
C856 H875 0.930 . S
C857 C860 1.424 . S
C857 C862 1.245 . S
C857 C863 1.428 . S
C858 C861 1.260 . S
C858 C862 1.477 . S
C858 H876 0.932 . S
C859 C860 1.384 . S
C859 C861 1.479 . S
C859 H877 0.929 . S
C860 C857 1.424 . S
C860 C859 1.384 . S
C860 H878 0.928 . S
C861 C858 1.260 . S
C861 C859 1.479 . S
C862 C857 1.245 . S
C862 C858 1.477 . S
C862 H879 0.932 . S
C863 U846 2.882 . S
C863 C857 1.428 . S
C863 O866 1.301 . S
C863 O867 1.282 . S
O864 U846 2.441 . S
O864 C850 1.249 . S
O865 U846 2.420 . S
O865 C850 1.202 . S
O866 U846 2.455 . S
O866 C863 1.301 . S
O867 U846 2.449 . S
O867 C863 1.282 . S
H868 C841 0.931 . S
H869 C843 0.929 . S
H870 C844 0.930 . S
H871 C845 0.931 . S
H872 C852 0.932 . S
H873 C853 0.930 . S
H874 C854 0.929 . S
H875 C856 0.930 . S
H876 C858 0.932 . S
H877 C859 0.929 . S
H878 C860 0.928 . S
H879 C862 0.932 . S
C880 C881 1.264 . S
C880 C885 1.479 . S
C880 C890 1.465 . S
C881 C880 1.264 . S
C881 C883 1.339 . S
C881 H908 0.931 . S
C882 C883 1.395 . S
C882 C884 1.320 . S
C883 C881 1.339 . S
C883 C882 1.395 . S
C883 H909 0.929 . S
C884 C882 1.320 . S
C884 C885 1.405 . S
C884 H910 0.930 . S
C885 C880 1.479 . S
C885 C884 1.405 . S
C885 H911 0.931 . S
U886 O887 2.454 . S
U886 O888 2.458 . S
U886 C889 2.984 . S
U886 C890 2.847 . S
U886 C903 2.882 . S
U886 O904 2.441 . S
U886 O905 2.420 . S
U886 O906 2.455 . S
U886 O907 2.449 . S
O887 U886 2.454 . S
O887 C889 1.353 . S
O888 U886 2.458 . S
O888 C889 1.286 . S
C889 U886 2.984 . S
C889 O887 1.353 . S
C889 O888 1.286 . S
C889 C891 1.363 . S
C890 C880 1.465 . S
C890 U886 2.847 . S
C890 O904 1.249 . S
C890 O905 1.202 . S
C891 C889 1.363 . S
C891 C893 1.408 . S
C891 C896 1.342 . S
C892 C893 1.310 . S
C892 C895 1.461 . S
C892 H912 0.932 . S
C893 C891 1.408 . S
C893 C892 1.310 . S
C893 H913 0.930 . S
C894 C895 1.474 . S
C894 C896 1.285 . S
C894 H914 0.929 . S
C895 C892 1.461 . S
C895 C894 1.474 . S
C896 C891 1.342 . S
C896 C894 1.285 . S
C896 H915 0.930 . S
C897 C900 1.424 . S
C897 C902 1.245 . S
C897 C903 1.428 . S
C898 C901 1.260 . S
C898 C902 1.477 . S
C898 H916 0.932 . S
C899 C900 1.384 . S
C899 C901 1.479 . S
C899 H917 0.929 . S
C900 C897 1.424 . S
C900 C899 1.384 . S
C900 H918 0.928 . S
C901 C898 1.260 . S
C901 C899 1.479 . S
C902 C897 1.245 . S
C902 C898 1.477 . S
C902 H919 0.932 . S
C903 U886 2.882 . S
C903 C897 1.428 . S
C903 O906 1.301 . S
C903 O907 1.282 . S
O904 U886 2.441 . S
O904 C890 1.249 . S
O905 U886 2.420 . S
O905 C890 1.202 . S
O906 U886 2.455 . S
O906 C903 1.301 . S
O907 U886 2.449 . S
O907 C903 1.282 . S
H908 C881 0.931 . S
H909 C883 0.929 . S
H910 C884 0.930 . S
H911 C885 0.931 . S
H912 C892 0.932 . S
H913 C893 0.930 . S
H914 C894 0.929 . S
H915 C896 0.930 . S
H916 C898 0.932 . S
H917 C899 0.929 . S
H918 C900 0.928 . S
H919 C902 0.932 . S
C920 C921 1.264 . S
C920 C925 1.479 . S
C920 C930 1.465 . S
C921 C920 1.264 . S
C921 C923 1.339 . S
C921 H948 0.931 . S
C922 C923 1.395 . S
C922 C924 1.320 . S
C923 C921 1.339 . S
C923 C922 1.395 . S
C923 H949 0.929 . S
C924 C922 1.320 . S
C924 C925 1.405 . S
C924 H950 0.930 . S
C925 C920 1.479 . S
C925 C924 1.405 . S
C925 H951 0.931 . S
U926 O927 2.454 . S
U926 O928 2.458 . S
U926 C929 2.984 . S
U926 C930 2.847 . S
U926 C943 2.882 . S
U926 O944 2.441 . S
U926 O945 2.420 . S
U926 O946 2.455 . S
U926 O947 2.449 . S
O927 U926 2.454 . S
O927 C929 1.353 . S
O928 U926 2.458 . S
O928 C929 1.286 . S
C929 U926 2.984 . S
C929 O927 1.353 . S
C929 O928 1.286 . S
C929 C931 1.363 . S
C930 C920 1.465 . S
C930 U926 2.847 . S
C930 O944 1.249 . S
C930 O945 1.202 . S
C931 C929 1.363 . S
C931 C933 1.408 . S
C931 C936 1.342 . S
C932 C933 1.310 . S
C932 C935 1.461 . S
C932 H952 0.932 . S
C933 C931 1.408 . S
C933 C932 1.310 . S
C933 H953 0.930 . S
C934 C935 1.474 . S
C934 C936 1.285 . S
C934 H954 0.929 . S
C935 C932 1.461 . S
C935 C934 1.474 . S
C936 C931 1.342 . S
C936 C934 1.285 . S
C936 H955 0.930 . S
C937 C940 1.424 . S
C937 C942 1.245 . S
C937 C943 1.428 . S
C938 C941 1.260 . S
C938 C942 1.477 . S
C938 H956 0.932 . S
C939 C940 1.384 . S
C939 C941 1.479 . S
C939 H957 0.929 . S
C940 C937 1.424 . S
C940 C939 1.384 . S
C940 H958 0.928 . S
C941 C938 1.260 . S
C941 C939 1.479 . S
C942 C937 1.245 . S
C942 C938 1.477 . S
C942 H959 0.932 . S
C943 U926 2.882 . S
C943 C937 1.428 . S
C943 O946 1.301 . S
C943 O947 1.282 . S
O944 U926 2.441 . S
O944 C930 1.249 . S
O945 U926 2.420 . S
O945 C930 1.202 . S
O946 U926 2.455 . S
O946 C943 1.301 . S
O947 U926 2.449 . S
O947 C943 1.282 . S
H948 C921 0.931 . S
H949 C923 0.929 . S
H950 C924 0.930 . S
H951 C925 0.931 . S
H952 C932 0.932 . S
H953 C933 0.930 . S
H954 C934 0.929 . S
H955 C936 0.930 . S
H956 C938 0.932 . S
H957 C939 0.929 . S
H958 C940 0.928 . S
H959 C942 0.932 . S
C960 C961 1.264 . S
C960 C965 1.479 . S
C960 C970 1.465 . S
C961 C960 1.264 . S
C961 C963 1.339 . S
C961 H988 0.931 . S
C962 C963 1.395 . S
C962 C964 1.320 . S
C963 C961 1.339 . S
C963 C962 1.395 . S
C963 H989 0.929 . S
C964 C962 1.320 . S
C964 C965 1.405 . S
C964 H990 0.930 . S
C965 C960 1.479 . S
C965 C964 1.405 . S
C965 H991 0.931 . S
U966 O967 2.454 . S
U966 O968 2.458 . S
U966 C969 2.984 . S
U966 C970 2.847 . S
U966 C983 2.882 . S
U966 O984 2.441 . S
U966 O985 2.420 . S
U966 O986 2.455 . S
U966 O987 2.449 . S
O967 U966 2.454 . S
O967 C969 1.353 . S
O968 U966 2.458 . S
O968 C969 1.286 . S
C969 U966 2.984 . S
C969 O967 1.353 . S
C969 O968 1.286 . S
C969 C971 1.363 . S
C970 C960 1.465 . S
C970 U966 2.847 . S
C970 O984 1.249 . S
C970 O985 1.202 . S
C971 C969 1.363 . S
C971 C973 1.408 . S
C971 C976 1.342 . S
C972 C973 1.310 . S
C972 C975 1.461 . S
C972 H992 0.932 . S
C973 C971 1.408 . S
C973 C972 1.310 . S
C973 H993 0.930 . S
C974 C975 1.474 . S
C974 C976 1.285 . S
C974 H994 0.929 . S
C975 C972 1.461 . S
C975 C974 1.474 . S
C976 C971 1.342 . S
C976 C974 1.285 . S
C976 H995 0.930 . S
C977 C980 1.424 . S
C977 C982 1.245 . S
C977 C983 1.428 . S
C978 C981 1.260 . S
C978 C982 1.477 . S
C978 H996 0.932 . S
C979 C980 1.384 . S
C979 C981 1.479 . S
C979 H997 0.929 . S
C980 C977 1.424 . S
C980 C979 1.384 . S
C980 H998 0.928 . S
C981 C978 1.260 . S
C981 C979 1.479 . S
C982 C977 1.245 . S
C982 C978 1.477 . S
C982 H999 0.932 . S
C983 U966 2.882 . S
C983 C977 1.428 . S
C983 O986 1.301 . S
C983 O987 1.282 . S
O984 U966 2.441 . S
O984 C970 1.249 . S
O985 U966 2.420 . S
O985 C970 1.202 . S
O986 U966 2.455 . S
O986 C983 1.301 . S
O987 U966 2.449 . S
O987 C983 1.282 . S
H988 C961 0.931 . S
H989 C963 0.929 . S
H990 C964 0.930 . S
H991 C965 0.931 . S
H992 C972 0.932 . S
H993 C973 0.930 . S
H994 C974 0.929 . S
H995 C976 0.930 . S
H996 C978 0.932 . S
H997 C979 0.929 . S
H998 C980 0.928 . S
H999 C982 0.932 . S
C1000 C1001 1.264 . S
C1000 C1005 1.479 . S
C1000 C1010 1.465 . S
C1001 C1000 1.264 . S
C1001 C1003 1.339 . S
C1001 H1028 0.931 . S
C1002 C1003 1.395 . S
C1002 C1004 1.320 . S
C1003 C1001 1.339 . S
C1003 C1002 1.395 . S
C1003 H1029 0.929 . S
C1004 C1002 1.320 . S
C1004 C1005 1.405 . S
C1004 H1030 0.930 . S
C1005 C1000 1.479 . S
C1005 C1004 1.405 . S
C1005 H1031 0.931 . S
U1006 O1007 2.454 . S
U1006 O1008 2.458 . S
U1006 C1009 2.984 . S
U1006 C1010 2.847 . S
U1006 C1023 2.882 . S
U1006 O1024 2.441 . S
U1006 O1025 2.420 . S
U1006 O1026 2.455 . S
U1006 O1027 2.449 . S
O1007 U1006 2.454 . S
O1007 C1009 1.353 . S
O1008 U1006 2.458 . S
O1008 C1009 1.286 . S
C1009 U1006 2.984 . S
C1009 O1007 1.353 . S
C1009 O1008 1.286 . S
C1009 C1011 1.363 . S
C1010 C1000 1.465 . S
C1010 U1006 2.847 . S
C1010 O1024 1.249 . S
C1010 O1025 1.202 . S
C1011 C1009 1.363 . S
C1011 C1013 1.408 . S
C1011 C1016 1.342 . S
C1012 C1013 1.310 . S
C1012 C1015 1.461 . S
C1012 H1032 0.932 . S
C1013 C1011 1.408 . S
C1013 C1012 1.310 . S
C1013 H1033 0.930 . S
C1014 C1015 1.474 . S
C1014 C1016 1.285 . S
C1014 H1034 0.929 . S
C1015 C1012 1.461 . S
C1015 C1014 1.474 . S
C1016 C1011 1.342 . S
C1016 C1014 1.285 . S
C1016 H1035 0.930 . S
C1017 C1020 1.424 . S
C1017 C1022 1.245 . S
C1017 C1023 1.428 . S
C1018 C1021 1.260 . S
C1018 C1022 1.477 . S
C1018 H1036 0.932 . S
C1019 C1020 1.384 . S
C1019 C1021 1.479 . S
C1019 H1037 0.929 . S
C1020 C1017 1.424 . S
C1020 C1019 1.384 . S
C1020 H1038 0.928 . S
C1021 C1018 1.260 . S
C1021 C1019 1.479 . S
C1022 C1017 1.245 . S
C1022 C1018 1.477 . S
C1022 H1039 0.932 . S
C1023 U1006 2.882 . S
C1023 C1017 1.428 . S
C1023 O1026 1.301 . S
C1023 O1027 1.282 . S
O1024 U1006 2.441 . S
O1024 C1010 1.249 . S
O1025 U1006 2.420 . S
O1025 C1010 1.202 . S
O1026 U1006 2.455 . S
O1026 C1023 1.301 . S
O1027 U1006 2.449 . S
O1027 C1023 1.282 . S
H1028 C1001 0.931 . S
H1029 C1003 0.929 . S
H1030 C1004 0.930 . S
H1031 C1005 0.931 . S
H1032 C1012 0.932 . S
H1033 C1013 0.930 . S
H1034 C1014 0.929 . S
H1035 C1016 0.930 . S
H1036 C1018 0.932 . S
H1037 C1019 0.929 . S
H1038 C1020 0.928 . S
H1039 C1022 0.932 . S
C1040 C1041 1.264 . S
C1040 C1045 1.479 . S
C1040 C1050 1.465 . S
C1041 C1040 1.264 . S
C1041 C1043 1.339 . S
C1041 H1068 0.931 . S
C1042 C1043 1.395 . S
C1042 C1044 1.320 . S
C1043 C1041 1.339 . S
C1043 C1042 1.395 . S
C1043 H1069 0.929 . S
C1044 C1042 1.320 . S
C1044 C1045 1.405 . S
C1044 H1070 0.930 . S
C1045 C1040 1.479 . S
C1045 C1044 1.405 . S
C1045 H1071 0.931 . S
U1046 O1047 2.454 . S
U1046 O1048 2.458 . S
U1046 C1049 2.984 . S
U1046 C1050 2.847 . S
U1046 C1063 2.882 . S
U1046 O1064 2.441 . S
U1046 O1065 2.420 . S
U1046 O1066 2.455 . S
U1046 O1067 2.449 . S
O1047 U1046 2.454 . S
O1047 C1049 1.353 . S
O1048 U1046 2.458 . S
O1048 C1049 1.286 . S
C1049 U1046 2.984 . S
C1049 O1047 1.353 . S
C1049 O1048 1.286 . S
C1049 C1051 1.363 . S
C1050 C1040 1.465 . S
C1050 U1046 2.847 . S
C1050 O1064 1.249 . S
C1050 O1065 1.202 . S
C1051 C1049 1.363 . S
C1051 C1053 1.408 . S
C1051 C1056 1.342 . S
C1052 C1053 1.310 . S
C1052 C1055 1.461 . S
C1052 H1072 0.932 . S
C1053 C1051 1.408 . S
C1053 C1052 1.310 . S
C1053 H1073 0.930 . S
C1054 C1055 1.474 . S
C1054 C1056 1.285 . S
C1054 H1074 0.929 . S
C1055 C1052 1.461 . S
C1055 C1054 1.474 . S
C1056 C1051 1.342 . S
C1056 C1054 1.285 . S
C1056 H1075 0.930 . S
C1057 C1060 1.424 . S
C1057 C1062 1.245 . S
C1057 C1063 1.428 . S
C1058 C1061 1.260 . S
C1058 C1062 1.477 . S
C1058 H1076 0.932 . S
C1059 C1060 1.384 . S
C1059 C1061 1.479 . S
C1059 H1077 0.929 . S
C1060 C1057 1.424 . S
C1060 C1059 1.384 . S
C1060 H1078 0.928 . S
C1061 C1058 1.260 . S
C1061 C1059 1.479 . S
C1062 C1057 1.245 . S
C1062 C1058 1.477 . S
C1062 H1079 0.932 . S
C1063 U1046 2.882 . S
C1063 C1057 1.428 . S
C1063 O1066 1.301 . S
C1063 O1067 1.282 . S
O1064 U1046 2.441 . S
O1064 C1050 1.249 . S
O1065 U1046 2.420 . S
O1065 C1050 1.202 . S
O1066 U1046 2.455 . S
O1066 C1063 1.301 . S
O1067 U1046 2.449 . S
O1067 C1063 1.282 . S
H1068 C1041 0.931 . S
H1069 C1043 0.929 . S
H1070 C1044 0.930 . S
H1071 C1045 0.931 . S
H1072 C1052 0.932 . S
H1073 C1053 0.930 . S
H1074 C1054 0.929 . S
H1075 C1056 0.930 . S
H1076 C1058 0.932 . S
H1077 C1059 0.929 . S
H1078 C1060 0.928 . S
H1079 C1062 0.932 . S
C1080 C1081 1.264 . S
C1080 C1085 1.479 . S
C1080 C1090 1.465 . S
C1081 C1080 1.264 . S
C1081 C1083 1.339 . S
C1081 H1108 0.931 . S
C1082 C1083 1.395 . S
C1082 C1084 1.320 . S
C1083 C1081 1.339 . S
C1083 C1082 1.395 . S
C1083 H1109 0.929 . S
C1084 C1082 1.320 . S
C1084 C1085 1.405 . S
C1084 H1110 0.930 . S
C1085 C1080 1.479 . S
C1085 C1084 1.405 . S
C1085 H1111 0.931 . S
U1086 O1087 2.454 . S
U1086 O1088 2.458 . S
U1086 C1089 2.984 . S
U1086 C1090 2.847 . S
U1086 C1103 2.882 . S
U1086 O1104 2.441 . S
U1086 O1105 2.420 . S
U1086 O1106 2.455 . S
U1086 O1107 2.449 . S
O1087 U1086 2.454 . S
O1087 C1089 1.353 . S
O1088 U1086 2.458 . S
O1088 C1089 1.286 . S
C1089 U1086 2.984 . S
C1089 O1087 1.353 . S
C1089 O1088 1.286 . S
C1089 C1091 1.363 . S
C1090 C1080 1.465 . S
C1090 U1086 2.847 . S
C1090 O1104 1.249 . S
C1090 O1105 1.202 . S
C1091 C1089 1.363 . S
C1091 C1093 1.408 . S
C1091 C1096 1.342 . S
C1092 C1093 1.310 . S
C1092 C1095 1.461 . S
C1092 H1112 0.932 . S
C1093 C1091 1.408 . S
C1093 C1092 1.310 . S
C1093 H1113 0.930 . S
C1094 C1095 1.474 . S
C1094 C1096 1.285 . S
C1094 H1114 0.929 . S
C1095 C1092 1.461 . S
C1095 C1094 1.474 . S
C1096 C1091 1.342 . S
C1096 C1094 1.285 . S
C1096 H1115 0.930 . S
C1097 C1100 1.424 . S
C1097 C1102 1.245 . S
C1097 C1103 1.428 . S
C1098 C1101 1.260 . S
C1098 C1102 1.477 . S
C1098 H1116 0.932 . S
C1099 C1100 1.384 . S
C1099 C1101 1.479 . S
C1099 H1117 0.929 . S
C1100 C1097 1.424 . S
C1100 C1099 1.384 . S
C1100 H1118 0.928 . S
C1101 C1098 1.260 . S
C1101 C1099 1.479 . S
C1102 C1097 1.245 . S
C1102 C1098 1.477 . S
C1102 H1119 0.932 . S
C1103 U1086 2.882 . S
C1103 C1097 1.428 . S
C1103 O1106 1.301 . S
C1103 O1107 1.282 . S
O1104 U1086 2.441 . S
O1104 C1090 1.249 . S
O1105 U1086 2.420 . S
O1105 C1090 1.202 . S
O1106 U1086 2.455 . S
O1106 C1103 1.301 . S
O1107 U1086 2.449 . S
O1107 C1103 1.282 . S
H1108 C1081 0.931 . S
H1109 C1083 0.929 . S
H1110 C1084 0.930 . S
H1111 C1085 0.931 . S
H1112 C1092 0.932 . S
H1113 C1093 0.930 . S
H1114 C1094 0.929 . S
H1115 C1096 0.930 . S
H1116 C1098 0.932 . S
H1117 C1099 0.929 . S
H1118 C1100 0.928 . S
H1119 C1102 0.932 . S
C1120 C1121 1.264 . S
C1120 C1125 1.479 . S
C1120 C1130 1.465 . S
C1121 C1120 1.264 . S
C1121 C1123 1.339 . S
C1121 H1148 0.931 . S
C1122 C1123 1.395 . S
C1122 C1124 1.320 . S
C1123 C1121 1.339 . S
C1123 C1122 1.395 . S
C1123 H1149 0.929 . S
C1124 C1122 1.320 . S
C1124 C1125 1.405 . S
C1124 H1150 0.930 . S
C1125 C1120 1.479 . S
C1125 C1124 1.405 . S
C1125 H1151 0.931 . S
U1126 O1127 2.454 . S
U1126 O1128 2.458 . S
U1126 C1129 2.984 . S
U1126 C1130 2.847 . S
U1126 C1143 2.882 . S
U1126 O1144 2.441 . S
U1126 O1145 2.420 . S
U1126 O1146 2.455 . S
U1126 O1147 2.449 . S
O1127 U1126 2.454 . S
O1127 C1129 1.353 . S
O1128 U1126 2.458 . S
O1128 C1129 1.286 . S
C1129 U1126 2.984 . S
C1129 O1127 1.353 . S
C1129 O1128 1.286 . S
C1129 C1131 1.363 . S
C1130 C1120 1.465 . S
C1130 U1126 2.847 . S
C1130 O1144 1.249 . S
C1130 O1145 1.202 . S
C1131 C1129 1.363 . S
C1131 C1133 1.408 . S
C1131 C1136 1.342 . S
C1132 C1133 1.310 . S
C1132 C1135 1.461 . S
C1132 H1152 0.932 . S
C1133 C1131 1.408 . S
C1133 C1132 1.310 . S
C1133 H1153 0.930 . S
C1134 C1135 1.474 . S
C1134 C1136 1.285 . S
C1134 H1154 0.929 . S
C1135 C1132 1.461 . S
C1135 C1134 1.474 . S
C1136 C1131 1.342 . S
C1136 C1134 1.285 . S
C1136 H1155 0.930 . S
C1137 C1140 1.424 . S
C1137 C1142 1.245 . S
C1137 C1143 1.428 . S
C1138 C1141 1.260 . S
C1138 C1142 1.477 . S
C1138 H1156 0.932 . S
C1139 C1140 1.384 . S
C1139 C1141 1.479 . S
C1139 H1157 0.929 . S
C1140 C1137 1.424 . S
C1140 C1139 1.384 . S
C1140 H1158 0.928 . S
C1141 C1138 1.260 . S
C1141 C1139 1.479 . S
C1142 C1137 1.245 . S
C1142 C1138 1.477 . S
C1142 H1159 0.932 . S
C1143 U1126 2.882 . S
C1143 C1137 1.428 . S
C1143 O1146 1.301 . S
C1143 O1147 1.282 . S
O1144 U1126 2.441 . S
O1144 C1130 1.249 . S
O1145 U1126 2.420 . S
O1145 C1130 1.202 . S
O1146 U1126 2.455 . S
O1146 C1143 1.301 . S
O1147 U1126 2.449 . S
O1147 C1143 1.282 . S
H1148 C1121 0.931 . S
H1149 C1123 0.929 . S
H1150 C1124 0.930 . S
H1151 C1125 0.931 . S
H1152 C1132 0.932 . S
H1153 C1133 0.930 . S
H1154 C1134 0.929 . S
H1155 C1136 0.930 . S
H1156 C1138 0.932 . S
H1157 C1139 0.929 . S
H1158 C1140 0.928 . S
H1159 C1142 0.932 . S
C1160 C1161 1.264 . S
C1160 C1165 1.479 . S
C1160 C1170 1.465 . S
C1161 C1160 1.264 . S
C1161 C1163 1.339 . S
C1161 H1188 0.931 . S
C1162 C1163 1.395 . S
C1162 C1164 1.320 . S
C1163 C1161 1.339 . S
C1163 C1162 1.395 . S
C1163 H1189 0.929 . S
C1164 C1162 1.320 . S
C1164 C1165 1.405 . S
C1164 H1190 0.930 . S
C1165 C1160 1.479 . S
C1165 C1164 1.405 . S
C1165 H1191 0.931 . S
U1166 O1167 2.454 . S
U1166 O1168 2.458 . S
U1166 C1169 2.984 . S
U1166 C1170 2.847 . S
U1166 C1183 2.882 . S
U1166 O1184 2.441 . S
U1166 O1185 2.420 . S
U1166 O1186 2.455 . S
U1166 O1187 2.449 . S
O1167 U1166 2.454 . S
O1167 C1169 1.353 . S
O1168 U1166 2.458 . S
O1168 C1169 1.286 . S
C1169 U1166 2.984 . S
C1169 O1167 1.353 . S
C1169 O1168 1.286 . S
C1169 C1171 1.363 . S
C1170 C1160 1.465 . S
C1170 U1166 2.847 . S
C1170 O1184 1.249 . S
C1170 O1185 1.202 . S
C1171 C1169 1.363 . S
C1171 C1173 1.408 . S
C1171 C1176 1.342 . S
C1172 C1173 1.310 . S
C1172 C1175 1.461 . S
C1172 H1192 0.932 . S
C1173 C1171 1.408 . S
C1173 C1172 1.310 . S
C1173 H1193 0.930 . S
C1174 C1175 1.474 . S
C1174 C1176 1.285 . S
C1174 H1194 0.929 . S
C1175 C1172 1.461 . S
C1175 C1174 1.474 . S
C1176 C1171 1.342 . S
C1176 C1174 1.285 . S
C1176 H1195 0.930 . S
C1177 C1180 1.424 . S
C1177 C1182 1.245 . S
C1177 C1183 1.428 . S
C1178 C1181 1.260 . S
C1178 C1182 1.477 . S
C1178 H1196 0.932 . S
C1179 C1180 1.384 . S
C1179 C1181 1.479 . S
C1179 H1197 0.929 . S
C1180 C1177 1.424 . S
C1180 C1179 1.384 . S
C1180 H1198 0.928 . S
C1181 C1178 1.260 . S
C1181 C1179 1.479 . S
C1182 C1177 1.245 . S
C1182 C1178 1.477 . S
C1182 H1199 0.932 . S
C1183 U1166 2.882 . S
C1183 C1177 1.428 . S
C1183 O1186 1.301 . S
C1183 O1187 1.282 . S
O1184 U1166 2.441 . S
O1184 C1170 1.249 . S
O1185 U1166 2.420 . S
O1185 C1170 1.202 . S
O1186 U1166 2.455 . S
O1186 C1183 1.301 . S
O1187 U1166 2.449 . S
O1187 C1183 1.282 . S
H1188 C1161 0.931 . S
H1189 C1163 0.929 . S
H1190 C1164 0.930 . S
H1191 C1165 0.931 . S
H1192 C1172 0.932 . S
H1193 C1173 0.930 . S
H1194 C1174 0.929 . S
H1195 C1176 0.930 . S
H1196 C1178 0.932 . S
H1197 C1179 0.929 . S
H1198 C1180 0.928 . S
H1199 C1182 0.932 . S
C1200 C1201 1.264 . S
C1200 C1205 1.479 . S
C1200 C1210 1.465 . S
C1201 C1200 1.264 . S
C1201 C1203 1.339 . S
C1201 H1228 0.931 . S
C1202 C1203 1.395 . S
C1202 C1204 1.320 . S
C1203 C1201 1.339 . S
C1203 C1202 1.395 . S
C1203 H1229 0.929 . S
C1204 C1202 1.320 . S
C1204 C1205 1.405 . S
C1204 H1230 0.930 . S
C1205 C1200 1.479 . S
C1205 C1204 1.405 . S
C1205 H1231 0.931 . S
U1206 O1207 2.454 . S
U1206 O1208 2.458 . S
U1206 C1209 2.984 . S
U1206 C1210 2.847 . S
U1206 C1223 2.882 . S
U1206 O1224 2.441 . S
U1206 O1225 2.420 . S
U1206 O1226 2.455 . S
U1206 O1227 2.449 . S
O1207 U1206 2.454 . S
O1207 C1209 1.353 . S
O1208 U1206 2.458 . S
O1208 C1209 1.286 . S
C1209 U1206 2.984 . S
C1209 O1207 1.353 . S
C1209 O1208 1.286 . S
C1209 C1211 1.363 . S
C1210 C1200 1.465 . S
C1210 U1206 2.847 . S
C1210 O1224 1.249 . S
C1210 O1225 1.202 . S
C1211 C1209 1.363 . S
C1211 C1213 1.408 . S
C1211 C1216 1.342 . S
C1212 C1213 1.310 . S
C1212 C1215 1.461 . S
C1212 H1232 0.932 . S
C1213 C1211 1.408 . S
C1213 C1212 1.310 . S
C1213 H1233 0.930 . S
C1214 C1215 1.474 . S
C1214 C1216 1.285 . S
C1214 H1234 0.929 . S
C1215 C1212 1.461 . S
C1215 C1214 1.474 . S
C1216 C1211 1.342 . S
C1216 C1214 1.285 . S
C1216 H1235 0.930 . S
C1217 C1220 1.424 . S
C1217 C1222 1.245 . S
C1217 C1223 1.428 . S
C1218 C1221 1.260 . S
C1218 C1222 1.477 . S
C1218 H1236 0.932 . S
C1219 C1220 1.384 . S
C1219 C1221 1.479 . S
C1219 H1237 0.929 . S
C1220 C1217 1.424 . S
C1220 C1219 1.384 . S
C1220 H1238 0.928 . S
C1221 C1218 1.260 . S
C1221 C1219 1.479 . S
C1222 C1217 1.245 . S
C1222 C1218 1.477 . S
C1222 H1239 0.932 . S
C1223 U1206 2.882 . S
C1223 C1217 1.428 . S
C1223 O1226 1.301 . S
C1223 O1227 1.282 . S
O1224 U1206 2.441 . S
O1224 C1210 1.249 . S
O1225 U1206 2.420 . S
O1225 C1210 1.202 . S
O1226 U1206 2.455 . S
O1226 C1223 1.301 . S
O1227 U1206 2.449 . S
O1227 C1223 1.282 . S
H1228 C1201 0.931 . S
H1229 C1203 0.929 . S
H1230 C1204 0.930 . S
H1231 C1205 0.931 . S
H1232 C1212 0.932 . S
H1233 C1213 0.930 . S
H1234 C1214 0.929 . S
H1235 C1216 0.930 . S
H1236 C1218 0.932 . S
H1237 C1219 0.929 . S
H1238 C1220 0.928 . S
H1239 C1222 0.932 . S
C1240 C1241 1.264 . S
C1240 C1245 1.479 . S
C1240 C1250 1.465 . S
C1241 C1240 1.264 . S
C1241 C1243 1.339 . S
C1241 H1268 0.931 . S
C1242 C1243 1.395 . S
C1242 C1244 1.320 . S
C1243 C1241 1.339 . S
C1243 C1242 1.395 . S
C1243 H1269 0.929 . S
C1244 C1242 1.320 . S
C1244 C1245 1.405 . S
C1244 H1270 0.930 . S
C1245 C1240 1.479 . S
C1245 C1244 1.405 . S
C1245 H1271 0.931 . S
U1246 O1247 2.454 . S
U1246 O1248 2.458 . S
U1246 C1249 2.984 . S
U1246 C1250 2.847 . S
U1246 C1263 2.882 . S
U1246 O1264 2.441 . S
U1246 O1265 2.420 . S
U1246 O1266 2.455 . S
U1246 O1267 2.449 . S
O1247 U1246 2.454 . S
O1247 C1249 1.353 . S
O1248 U1246 2.458 . S
O1248 C1249 1.286 . S
C1249 U1246 2.984 . S
C1249 O1247 1.353 . S
C1249 O1248 1.286 . S
C1249 C1251 1.363 . S
C1250 C1240 1.465 . S
C1250 U1246 2.847 . S
C1250 O1264 1.249 . S
C1250 O1265 1.202 . S
C1251 C1249 1.363 . S
C1251 C1253 1.408 . S
C1251 C1256 1.342 . S
C1252 C1253 1.310 . S
C1252 C1255 1.461 . S
C1252 H1272 0.932 . S
C1253 C1251 1.408 . S
C1253 C1252 1.310 . S
C1253 H1273 0.930 . S
C1254 C1255 1.474 . S
C1254 C1256 1.285 . S
C1254 H1274 0.929 . S
C1255 C1252 1.461 . S
C1255 C1254 1.474 . S
C1256 C1251 1.342 . S
C1256 C1254 1.285 . S
C1256 H1275 0.930 . S
C1257 C1260 1.424 . S
C1257 C1262 1.245 . S
C1257 C1263 1.428 . S
C1258 C1261 1.260 . S
C1258 C1262 1.477 . S
C1258 H1276 0.932 . S
C1259 C1260 1.384 . S
C1259 C1261 1.479 . S
C1259 H1277 0.929 . S
C1260 C1257 1.424 . S
C1260 C1259 1.384 . S
C1260 H1278 0.928 . S
C1261 C1258 1.260 . S
C1261 C1259 1.479 . S
C1262 C1257 1.245 . S
C1262 C1258 1.477 . S
C1262 H1279 0.932 . S
C1263 U1246 2.882 . S
C1263 C1257 1.428 . S
C1263 O1266 1.301 . S
C1263 O1267 1.282 . S
O1264 U1246 2.441 . S
O1264 C1250 1.249 . S
O1265 U1246 2.420 . S
O1265 C1250 1.202 . S
O1266 U1246 2.455 . S
O1266 C1263 1.301 . S
O1267 U1246 2.449 . S
O1267 C1263 1.282 . S
H1268 C1241 0.931 . S
H1269 C1243 0.929 . S
H1270 C1244 0.930 . S
H1271 C1245 0.931 . S
H1272 C1252 0.932 . S
H1273 C1253 0.930 . S
H1274 C1254 0.929 . S
H1275 C1256 0.930 . S
H1276 C1258 0.932 . S
H1277 C1259 0.929 . S
H1278 C1260 0.928 . S
H1279 C1262 0.932 . S
H1280 C1307 0.929 . S
N1281 C1306 1.433 . S
N1281 C1312 1.435 . S
N1281 C1318 1.423 . S
H1282 C1308 0.930 . S
H1283 C1311 0.931 . S
H1284 C1310 0.929 . S
H1285 C1313 0.930 . S
H1286 C1314 0.932 . S
H1287 C1317 0.929 . S
H1288 C1316 0.931 . S
H1289 C1319 0.929 . S
H1290 C1323 0.932 . S
H1291 C1320 0.931 . S
H1292 C1322 0.929 . S
H1293 C1325 0.929 . S
H1294 C1326 0.930 . S
H1295 C1328 0.929 . S
H1296 C1329 0.931 . S
H1297 C1331 0.930 . S
H1298 C1332 0.932 . S
H1299 C1334 0.931 . S
H1300 C1335 0.929 . S
H1301 C1337 0.929 . S
H1302 C1338 0.931 . S
H1303 C1340 0.929 . S
N1304 C1324 1.433 . S
N1304 C1330 1.435 . S
N1304 C1336 1.423 . S
H1305 C1341 0.932 . S
C1306 N1281 1.433 . S
C1306 C1307 1.363 . S
C1306 C1311 1.370 . S
C1307 H1280 0.929 . S
C1307 C1306 1.363 . S
C1307 C1308 1.385 . S
C1308 H1282 0.930 . S
C1308 C1307 1.385 . S
C1308 C1309 1.357 . S
C1309 C1308 1.357 . S
C1309 C1310 1.406 . S
C1310 H1284 0.929 . S
C1310 C1309 1.406 . S
C1310 C1311 1.391 . S
C1311 H1283 0.931 . S
C1311 C1306 1.370 . S
C1311 C1310 1.391 . S
C1312 N1281 1.435 . S
C1312 C1313 1.358 . S
C1312 C1317 1.371 . S
C1313 H1285 0.930 . S
C1313 C1312 1.358 . S
C1313 C1314 1.405 . S
C1314 H1286 0.932 . S
C1314 C1313 1.405 . S
C1314 C1315 1.383 . S
C1315 C1314 1.383 . S
C1315 C1316 1.393 . S
C1316 H1288 0.931 . S
C1316 C1315 1.393 . S
C1316 C1317 1.382 . S
C1317 H1287 0.929 . S
C1317 C1312 1.371 . S
C1317 C1316 1.382 . S
C1318 N1281 1.423 . S
C1318 C1319 1.362 . S
C1318 C1323 1.388 . S
C1319 H1289 0.929 . S
C1319 C1318 1.362 . S
C1319 C1320 1.376 . S
C1320 H1291 0.931 . S
C1320 C1319 1.376 . S
C1320 C1321 1.397 . S
C1321 C1320 1.397 . S
C1321 C1322 1.349 . S
C1321 C1339 1.470 1_556 S
C1322 H1292 0.929 . S
C1322 C1321 1.349 . S
C1322 C1323 1.443 . S
C1323 H1290 0.932 . S
C1323 C1318 1.388 . S
C1323 C1322 1.443 . S
C1324 N1304 1.433 . S
C1324 C1325 1.363 . S
C1324 C1329 1.370 . S
C1325 H1293 0.929 . S
C1325 C1324 1.363 . S
C1325 C1326 1.385 . S
C1326 H1294 0.930 . S
C1326 C1325 1.385 . S
C1326 C1327 1.357 . S
C1327 C1326 1.357 . S
C1327 C1328 1.406 . S
C1328 H1295 0.929 . S
C1328 C1327 1.406 . S
C1328 C1329 1.391 . S
C1329 H1296 0.931 . S
C1329 C1324 1.370 . S
C1329 C1328 1.391 . S
C1330 N1304 1.435 . S
C1330 C1331 1.358 . S
C1330 C1335 1.371 . S
C1331 H1297 0.930 . S
C1331 C1330 1.358 . S
C1331 C1332 1.405 . S
C1332 H1298 0.932 . S
C1332 C1331 1.405 . S
C1332 C1333 1.383 . S
C1333 C1332 1.383 . S
C1333 C1334 1.393 . S
C1334 H1299 0.931 . S
C1334 C1333 1.393 . S
C1334 C1335 1.382 . S
C1335 H1300 0.929 . S
C1335 C1330 1.371 . S
C1335 C1334 1.382 . S
C1336 N1304 1.423 . S
C1336 C1337 1.362 . S
C1336 C1341 1.388 . S
C1337 H1301 0.929 . S
C1337 C1336 1.362 . S
C1337 C1338 1.376 . S
C1338 H1302 0.931 . S
C1338 C1337 1.376 . S
C1338 C1339 1.396 . S
C1339 C1321 1.470 1_554 S
C1339 C1338 1.396 . S
C1339 C1340 1.348 . S
C1340 H1303 0.929 . S
C1340 C1339 1.348 . S
C1340 C1341 1.443 . S
C1341 H1305 0.932 . S
C1341 C1336 1.388 . S
C1341 C1340 1.443 . S
H1342 C1369 0.929 . S
N1343 C1368 1.433 . S
N1343 C1374 1.435 . S
N1343 C1380 1.423 . S
H1344 C1370 0.930 . S
H1345 C1373 0.931 . S
H1346 C1372 0.929 . S
H1347 C1375 0.930 . S
H1348 C1376 0.932 . S
H1349 C1379 0.929 . S
H1350 C1378 0.931 . S
H1351 C1381 0.929 . S
H1352 C1385 0.932 . S
H1353 C1382 0.931 . S
H1354 C1384 0.934 1_554 S
H1355 C1387 0.929 . S
H1356 C1388 0.930 . S
H1357 C1390 0.929 . S
H1358 C1391 0.931 . S
H1359 C1393 0.930 . S
H1360 C1394 0.932 . S
H1361 C1396 0.931 . S
H1362 C1397 0.929 . S
H1363 C1399 0.929 . S
H1364 C1400 0.931 . S
H1365 C1402 0.929 . S
N1366 C1386 1.433 . S
N1366 C1392 1.435 . S
N1366 C1398 1.423 . S
H1367 C1403 0.932 . S
C1368 N1343 1.433 . S
C1368 C1369 1.363 . S
C1368 C1373 1.370 . S
C1369 H1342 0.929 . S
C1369 C1368 1.363 . S
C1369 C1370 1.385 . S
C1370 H1344 0.930 . S
C1370 C1369 1.385 . S
C1370 C1371 1.357 . S
C1371 C1370 1.357 . S
C1371 C1372 1.406 . S
C1372 H1346 0.929 . S
C1372 C1371 1.406 . S
C1372 C1373 1.391 . S
C1373 H1345 0.931 . S
C1373 C1368 1.370 . S
C1373 C1372 1.391 . S
C1374 N1343 1.435 . S
C1374 C1375 1.358 . S
C1374 C1379 1.371 . S
C1375 H1347 0.930 . S
C1375 C1374 1.358 . S
C1375 C1376 1.405 . S
C1376 H1348 0.932 . S
C1376 C1375 1.405 . S
C1376 C1377 1.383 . S
C1377 C1376 1.383 . S
C1377 C1378 1.393 . S
C1378 H1350 0.931 . S
C1378 C1377 1.393 . S
C1378 C1379 1.382 . S
C1379 H1349 0.929 . S
C1379 C1374 1.371 . S
C1379 C1378 1.382 . S
C1380 N1343 1.423 . S
C1380 C1381 1.362 . S
C1380 C1385 1.388 . S
C1381 H1351 0.929 . S
C1381 C1380 1.362 . S
C1381 C1382 1.376 . S
C1382 H1353 0.931 . S
C1382 C1381 1.376 . S
C1382 C1383 1.396 1_556 S
C1383 C1382 1.396 1_554 S
C1383 C1384 1.348 1_554 S
C1383 C1401 1.472 . S
C1384 H1354 0.934 1_556 S
C1384 C1383 1.348 1_556 S
C1384 C1385 1.443 . S
C1385 H1352 0.932 . S
C1385 C1380 1.388 . S
C1385 C1384 1.443 . S
C1386 N1366 1.433 . S
C1386 C1387 1.363 . S
C1386 C1391 1.370 . S
C1387 H1355 0.929 . S
C1387 C1386 1.363 . S
C1387 C1388 1.385 . S
C1388 H1356 0.930 . S
C1388 C1387 1.385 . S
C1388 C1389 1.357 . S
C1389 C1388 1.357 . S
C1389 C1390 1.406 . S
C1390 H1357 0.929 . S
C1390 C1389 1.406 . S
C1390 C1391 1.391 . S
C1391 H1358 0.931 . S
C1391 C1386 1.370 . S
C1391 C1390 1.391 . S
C1392 N1366 1.435 . S
C1392 C1393 1.358 . S
C1392 C1397 1.371 . S
C1393 H1359 0.930 . S
C1393 C1392 1.358 . S
C1393 C1394 1.405 . S
C1394 H1360 0.932 . S
C1394 C1393 1.405 . S
C1394 C1395 1.383 . S
C1395 C1394 1.383 . S
C1395 C1396 1.393 . S
C1396 H1361 0.931 . S
C1396 C1395 1.393 . S
C1396 C1397 1.382 . S
C1397 H1362 0.929 . S
C1397 C1392 1.371 . S
C1397 C1396 1.382 . S
C1398 N1366 1.423 . S
C1398 C1399 1.362 . S
C1398 C1403 1.388 . S
C1399 H1363 0.929 . S
C1399 C1398 1.362 . S
C1399 C1400 1.376 . S
C1400 H1364 0.931 . S
C1400 C1399 1.376 . S
C1400 C1401 1.396 . S
C1401 C1383 1.472 . S
C1401 C1400 1.396 . S
C1401 C1402 1.348 . S
C1402 H1365 0.929 . S
C1402 C1401 1.348 . S
C1402 C1403 1.443 . S
C1403 H1367 0.932 . S
C1403 C1398 1.388 . S
C1403 C1402 1.443 . S
H1404 C1431 0.929 . S
N1405 C1430 1.433 . S
N1405 C1436 1.435 . S
N1405 C1442 1.423 . S
H1406 C1432 0.930 . S
H1407 C1435 0.931 . S
H1408 C1434 0.929 . S
H1409 C1437 0.930 . S
H1410 C1438 0.932 . S
H1411 C1441 0.929 . S
H1412 C1440 0.931 . S
H1413 C1443 0.929 . S
H1414 C1447 0.932 . S
H1415 C1444 0.931 . S
H1416 C1446 0.929 . S
H1417 C1449 0.929 . S
H1418 C1450 0.930 . S
H1419 C1452 0.929 . S
H1420 C1453 0.931 . S
H1421 C1455 0.930 . S
H1422 C1456 0.932 . S
H1423 C1458 0.931 . S
H1424 C1459 0.929 . S
H1425 C1461 0.929 . S
H1426 C1462 0.931 . S
H1427 C1464 0.929 . S
N1428 C1448 1.433 . S
N1428 C1454 1.435 . S
N1428 C1460 1.423 . S
H1429 C1465 0.932 . S
C1430 N1405 1.433 . S
C1430 C1431 1.363 . S
C1430 C1435 1.370 . S
C1431 H1404 0.929 . S
C1431 C1430 1.363 . S
C1431 C1432 1.385 . S
C1432 H1406 0.930 . S
C1432 C1431 1.385 . S
C1432 C1433 1.357 . S
C1433 C1432 1.357 . S
C1433 C1434 1.406 . S
C1434 H1408 0.929 . S
C1434 C1433 1.406 . S
C1434 C1435 1.391 . S
C1435 H1407 0.931 . S
C1435 C1430 1.370 . S
C1435 C1434 1.391 . S
C1436 N1405 1.435 . S
C1436 C1437 1.358 . S
C1436 C1441 1.371 . S
C1437 H1409 0.930 . S
C1437 C1436 1.358 . S
C1437 C1438 1.405 . S
C1438 H1410 0.932 . S
C1438 C1437 1.405 . S
C1438 C1439 1.383 . S
C1439 C1438 1.383 . S
C1439 C1440 1.393 . S
C1440 H1412 0.931 . S
C1440 C1439 1.393 . S
C1440 C1441 1.382 . S
C1441 H1411 0.929 . S
C1441 C1436 1.371 . S
C1441 C1440 1.382 . S
C1442 N1405 1.423 . S
C1442 C1443 1.362 . S
C1442 C1447 1.388 . S
C1443 H1413 0.929 . S
C1443 C1442 1.362 . S
C1443 C1444 1.376 . S
C1444 H1415 0.931 . S
C1444 C1443 1.376 . S
C1444 C1445 1.390 . S
C1445 C1444 1.390 . S
C1445 C1446 1.342 . S
C1445 C1463 1.483 1_556 S
C1446 H1416 0.929 . S
C1446 C1445 1.342 . S
C1446 C1447 1.443 . S
C1447 H1414 0.932 . S
C1447 C1442 1.388 . S
C1447 C1446 1.443 . S
C1448 N1428 1.433 . S
C1448 C1449 1.363 . S
C1448 C1453 1.370 . S
C1449 H1417 0.929 . S
C1449 C1448 1.363 . S
C1449 C1450 1.385 . S
C1450 H1418 0.930 . S
C1450 C1449 1.385 . S
C1450 C1451 1.357 . S
C1451 C1450 1.357 . S
C1451 C1452 1.406 . S
C1452 H1419 0.929 . S
C1452 C1451 1.406 . S
C1452 C1453 1.391 . S
C1453 H1420 0.931 . S
C1453 C1448 1.370 . S
C1453 C1452 1.391 . S
C1454 N1428 1.435 . S
C1454 C1455 1.358 . S
C1454 C1459 1.371 . S
C1455 H1421 0.930 . S
C1455 C1454 1.358 . S
C1455 C1456 1.405 . S
C1456 H1422 0.932 . S
C1456 C1455 1.405 . S
C1456 C1457 1.383 . S
C1457 C1456 1.383 . S
C1457 C1458 1.393 . S
C1458 H1423 0.931 . S
C1458 C1457 1.393 . S
C1458 C1459 1.382 . S
C1459 H1424 0.929 . S
C1459 C1454 1.371 . S
C1459 C1458 1.382 . S
C1460 N1428 1.423 . S
C1460 C1461 1.362 . S
C1460 C1465 1.388 . S
C1461 H1425 0.929 . S
C1461 C1460 1.362 . S
C1461 C1462 1.376 . S
C1462 H1426 0.931 . S
C1462 C1461 1.376 . S
C1462 C1463 1.396 . S
C1463 C1445 1.483 1_554 S
C1463 C1462 1.396 . S
C1463 C1464 1.348 . S
C1464 H1427 0.929 . S
C1464 C1463 1.348 . S
C1464 C1465 1.443 . S
C1465 H1429 0.932 . S
C1465 C1460 1.388 . S
C1465 C1464 1.443 . S
H1466 C1493 0.929 . S
N1467 C1492 1.433 . S
N1467 C1498 1.435 . S
N1467 C1504 1.423 . S
H1468 C1494 0.930 . S
H1469 C1497 0.931 . S
H1470 C1496 0.929 . S
H1471 C1499 0.930 . S
H1472 C1500 0.932 . S
H1473 C1503 0.929 . S
H1474 C1502 0.931 . S
H1475 C1505 0.929 . S
H1476 C1509 0.932 . S
H1477 C1506 0.962 . S
H1478 C1508 0.986 . S
H1479 C1511 0.929 . S
H1480 C1512 0.930 . S
H1481 C1514 0.929 . S
H1482 C1515 0.931 . S
H1483 C1517 0.930 . S
H1484 C1518 0.932 . S
H1485 C1520 0.931 . S
H1486 C1521 0.929 . S
H1487 C1523 0.929 . S
H1488 C1524 0.931 . S
H1489 C1526 0.929 . S
N1490 C1510 1.433 . S
N1490 C1516 1.435 . S
N1490 C1522 1.423 . S
H1491 C1527 0.932 . S
C1492 N1467 1.433 . S
C1492 C1493 1.363 . S
C1492 C1497 1.370 . S
C1493 H1466 0.929 . S
C1493 C1492 1.363 . S
C1493 C1494 1.385 . S
C1494 H1468 0.930 . S
C1494 C1493 1.385 . S
C1494 C1495 1.357 . S
C1495 C1494 1.357 . S
C1495 C1496 1.406 . S
C1496 H1470 0.929 . S
C1496 C1495 1.406 . S
C1496 C1497 1.391 . S
C1497 H1469 0.931 . S
C1497 C1492 1.370 . S
C1497 C1496 1.391 . S
C1498 N1467 1.435 . S
C1498 C1499 1.358 . S
C1498 C1503 1.371 . S
C1499 H1471 0.930 . S
C1499 C1498 1.358 . S
C1499 C1500 1.405 . S
C1500 H1472 0.932 . S
C1500 C1499 1.405 . S
C1500 C1501 1.383 . S
C1501 C1500 1.383 . S
C1501 C1502 1.393 . S
C1502 H1474 0.931 . S
C1502 C1501 1.393 . S
C1502 C1503 1.382 . S
C1503 H1473 0.929 . S
C1503 C1498 1.371 . S
C1503 C1502 1.382 . S
C1504 N1467 1.423 . S
C1504 C1505 1.362 . S
C1504 C1509 1.388 . S
C1505 H1475 0.929 . S
C1505 C1504 1.362 . S
C1505 C1506 1.376 . S
C1506 H1477 0.962 . S
C1506 C1505 1.376 . S
C1506 C1507 1.396 1_556 S
C1507 C1506 1.396 1_554 S
C1507 C1508 1.348 1_554 S
C1507 C1525 1.472 . S
C1508 H1478 0.986 . S
C1508 C1507 1.348 1_556 S
C1508 C1509 1.443 . S
C1509 H1476 0.932 . S
C1509 C1504 1.388 . S
C1509 C1508 1.443 . S
C1510 N1490 1.433 . S
C1510 C1511 1.363 . S
C1510 C1515 1.370 . S
C1511 H1479 0.929 . S
C1511 C1510 1.363 . S
C1511 C1512 1.385 . S
C1512 H1480 0.930 . S
C1512 C1511 1.385 . S
C1512 C1513 1.357 . S
C1513 C1512 1.357 . S
C1513 C1514 1.406 . S
C1514 H1481 0.929 . S
C1514 C1513 1.406 . S
C1514 C1515 1.391 . S
C1515 H1482 0.931 . S
C1515 C1510 1.370 . S
C1515 C1514 1.391 . S
C1516 N1490 1.435 . S
C1516 C1517 1.358 . S
C1516 C1521 1.371 . S
C1517 H1483 0.930 . S
C1517 C1516 1.358 . S
C1517 C1518 1.405 . S
C1518 H1484 0.932 . S
C1518 C1517 1.405 . S
C1518 C1519 1.383 . S
C1519 C1518 1.383 . S
C1519 C1520 1.393 . S
C1520 H1485 0.931 . S
C1520 C1519 1.393 . S
C1520 C1521 1.382 . S
C1521 H1486 0.929 . S
C1521 C1516 1.371 . S
C1521 C1520 1.382 . S
C1522 N1490 1.423 . S
C1522 C1523 1.362 . S
C1522 C1527 1.388 . S
C1523 H1487 0.929 . S
C1523 C1522 1.362 . S
C1523 C1524 1.376 . S
C1524 H1488 0.931 . S
C1524 C1523 1.376 . S
C1524 C1525 1.396 . S
C1525 C1507 1.472 . S
C1525 C1524 1.396 . S
C1525 C1526 1.348 . S
C1526 H1489 0.929 . S
C1526 C1525 1.348 . S
C1526 C1527 1.443 . S
C1527 H1491 0.932 . S
C1527 C1522 1.388 . S
C1527 C1526 1.443 . S
H1528 C1555 0.929 . S
N1529 C1554 1.433 . S
N1529 C1560 1.435 . S
N1529 C1566 1.423 . S
H1530 C1556 0.930 . S
H1531 C1559 0.931 . S
H1532 C1558 0.929 . S
H1533 C1561 0.930 . S
H1534 C1562 0.932 . S
H1535 C1565 0.929 . S
H1536 C1564 0.931 . S
H1537 C1567 0.929 . S
H1538 C1571 0.932 . S
H1539 C1568 0.931 1_455 S
H1540 C1570 0.956 . S
H1541 C1573 0.929 . S
H1542 C1574 0.930 . S
H1543 C1576 0.929 . S
H1544 C1577 0.931 . S
H1545 C1579 0.930 . S
H1546 C1580 0.932 . S
H1547 C1582 0.931 . S
H1548 C1583 0.929 . S
H1549 C1585 0.929 . S
H1550 C1586 0.931 . S
H1551 C1588 0.929 . S
N1552 C1572 1.433 . S
N1552 C1578 1.435 . S
N1552 C1584 1.423 . S
H1553 C1589 0.932 . S
C1554 N1529 1.433 . S
C1554 C1555 1.363 . S
C1554 C1559 1.370 . S
C1555 H1528 0.929 . S
C1555 C1554 1.363 . S
C1555 C1556 1.385 . S
C1556 H1530 0.930 . S
C1556 C1555 1.385 . S
C1556 C1557 1.357 . S
C1557 C1556 1.357 . S
C1557 C1558 1.406 . S
C1558 H1532 0.929 . S
C1558 C1557 1.406 . S
C1558 C1559 1.391 . S
C1559 H1531 0.931 . S
C1559 C1554 1.370 . S
C1559 C1558 1.391 . S
C1560 N1529 1.435 . S
C1560 C1561 1.358 . S
C1560 C1565 1.371 . S
C1561 H1533 0.930 . S
C1561 C1560 1.358 . S
C1561 C1562 1.405 . S
C1562 H1534 0.932 . S
C1562 C1561 1.405 . S
C1562 C1563 1.383 . S
C1563 C1562 1.383 . S
C1563 C1564 1.393 . S
C1564 H1536 0.931 . S
C1564 C1563 1.393 . S
C1564 C1565 1.382 . S
C1565 H1535 0.929 . S
C1565 C1560 1.371 . S
C1565 C1564 1.382 . S
C1566 N1529 1.423 . S
C1566 C1567 1.362 . S
C1566 C1571 1.388 . S
C1567 H1537 0.929 . S
C1567 C1566 1.362 . S
C1567 C1568 1.376 . S
C1568 H1539 0.931 1_655 S
C1568 C1567 1.376 . S
C1568 C1569 1.396 1_655 S
C1569 C1568 1.396 1_455 S
C1569 C1570 1.348 1_455 S
C1569 C1587 1.472 . S
C1570 H1540 0.956 . S
C1570 C1569 1.348 1_655 S
C1570 C1571 1.443 . S
C1571 H1538 0.932 . S
C1571 C1566 1.388 . S
C1571 C1570 1.443 . S
C1572 N1552 1.433 . S
C1572 C1573 1.363 . S
C1572 C1577 1.370 . S
C1573 H1541 0.929 . S
C1573 C1572 1.363 . S
C1573 C1574 1.385 . S
C1574 H1542 0.930 . S
C1574 C1573 1.385 . S
C1574 C1575 1.357 . S
C1575 C1574 1.357 . S
C1575 C1576 1.406 . S
C1576 H1543 0.929 . S
C1576 C1575 1.406 . S
C1576 C1577 1.391 . S
C1577 H1544 0.931 . S
C1577 C1572 1.370 . S
C1577 C1576 1.391 . S
C1578 N1552 1.435 . S
C1578 C1579 1.358 . S
C1578 C1583 1.371 . S
C1579 H1545 0.930 . S
C1579 C1578 1.358 . S
C1579 C1580 1.405 . S
C1580 H1546 0.932 . S
C1580 C1579 1.405 . S
C1580 C1581 1.383 . S
C1581 C1580 1.383 . S
C1581 C1582 1.393 . S
C1582 H1547 0.931 . S
C1582 C1581 1.393 . S
C1582 C1583 1.382 . S
C1583 H1548 0.929 . S
C1583 C1578 1.371 . S
C1583 C1582 1.382 . S
C1584 N1552 1.423 . S
C1584 C1585 1.362 . S
C1584 C1589 1.388 . S
C1585 H1549 0.929 . S
C1585 C1584 1.362 . S
C1585 C1586 1.376 . S
C1586 H1550 0.931 . S
C1586 C1585 1.376 . S
C1586 C1587 1.396 . S
C1587 C1569 1.472 . S
C1587 C1586 1.396 . S
C1587 C1588 1.348 . S
C1588 H1551 0.929 . S
C1588 C1587 1.348 . S
C1588 C1589 1.443 . S
C1589 H1553 0.932 . S
C1589 C1584 1.388 . S
C1589 C1588 1.443 . S
H1590 C1617 0.929 . S
N1591 C1616 1.433 . S
N1591 C1622 1.435 . S
N1591 C1628 1.423 . S
H1592 C1618 0.930 . S
H1593 C1621 0.931 . S
H1594 C1620 0.929 . S
H1595 C1623 0.930 . S
H1596 C1624 0.932 . S
H1597 C1627 0.929 . S
H1598 C1626 0.931 . S
H1599 C1629 0.929 . S
H1600 C1633 0.932 . S
H1601 C1630 0.931 . S
H1602 C1632 0.929 . S
H1603 C1635 0.929 . S
H1604 C1636 0.930 . S
H1605 C1638 0.929 . S
H1606 C1639 0.931 . S
H1607 C1641 0.930 . S
H1608 C1642 0.932 . S
H1609 C1644 0.931 . S
H1610 C1645 0.929 . S
H1611 C1647 0.929 . S
H1612 C1648 0.931 . S
H1613 C1650 0.929 . S
N1614 C1634 1.433 . S
N1614 C1640 1.435 . S
N1614 C1646 1.423 . S
H1615 C1651 0.932 . S
C1616 N1591 1.433 . S
C1616 C1617 1.363 . S
C1616 C1621 1.370 . S
C1617 H1590 0.929 . S
C1617 C1616 1.363 . S
C1617 C1618 1.385 . S
C1618 H1592 0.930 . S
C1618 C1617 1.385 . S
C1618 C1619 1.357 . S
C1619 C1618 1.357 . S
C1619 C1620 1.406 . S
C1620 H1594 0.929 . S
C1620 C1619 1.406 . S
C1620 C1621 1.391 . S
C1621 H1593 0.931 . S
C1621 C1616 1.370 . S
C1621 C1620 1.391 . S
C1622 N1591 1.435 . S
C1622 C1623 1.358 . S
C1622 C1627 1.371 . S
C1623 H1595 0.930 . S
C1623 C1622 1.358 . S
C1623 C1624 1.405 . S
C1624 H1596 0.932 . S
C1624 C1623 1.405 . S
C1624 C1625 1.383 . S
C1625 C1624 1.383 . S
C1625 C1626 1.393 . S
C1626 H1598 0.931 . S
C1626 C1625 1.393 . S
C1626 C1627 1.382 . S
C1627 H1597 0.929 . S
C1627 C1622 1.371 . S
C1627 C1626 1.382 . S
C1628 N1591 1.423 . S
C1628 C1629 1.362 . S
C1628 C1633 1.388 . S
C1629 H1599 0.929 . S
C1629 C1628 1.362 . S
C1629 C1630 1.376 . S
C1630 H1601 0.931 . S
C1630 C1629 1.376 . S
C1630 C1631 1.396 . S
C1631 C1630 1.396 . S
C1631 C1632 1.348 . S
C1631 C1649 1.472 1_545 S
C1632 H1602 0.929 . S
C1632 C1631 1.348 . S
C1632 C1633 1.443 . S
C1633 H1600 0.932 . S
C1633 C1628 1.388 . S
C1633 C1632 1.443 . S
C1634 N1614 1.433 . S
C1634 C1635 1.363 . S
C1634 C1639 1.370 . S
C1635 H1603 0.929 . S
C1635 C1634 1.363 . S
C1635 C1636 1.385 . S
C1636 H1604 0.930 . S
C1636 C1635 1.385 . S
C1636 C1637 1.357 . S
C1637 C1636 1.357 . S
C1637 C1638 1.406 . S
C1638 H1605 0.929 . S
C1638 C1637 1.406 . S
C1638 C1639 1.391 . S
C1639 H1606 0.931 . S
C1639 C1634 1.370 . S
C1639 C1638 1.391 . S
C1640 N1614 1.435 . S
C1640 C1641 1.358 . S
C1640 C1645 1.371 . S
C1641 H1607 0.930 . S
C1641 C1640 1.358 . S
C1641 C1642 1.405 . S
C1642 H1608 0.932 . S
C1642 C1641 1.405 . S
C1642 C1643 1.383 . S
C1643 C1642 1.383 . S
C1643 C1644 1.393 . S
C1644 H1609 0.931 . S
C1644 C1643 1.393 . S
C1644 C1645 1.382 . S
C1645 H1610 0.929 . S
C1645 C1640 1.371 . S
C1645 C1644 1.382 . S
C1646 N1614 1.423 . S
C1646 C1647 1.362 . S
C1646 C1651 1.388 . S
C1647 H1611 0.929 . S
C1647 C1646 1.362 . S
C1647 C1648 1.376 . S
C1648 H1612 0.931 . S
C1648 C1647 1.376 . S
C1648 C1649 1.396 . S
C1649 C1631 1.472 1_565 S
C1649 C1648 1.396 . S
C1649 C1650 1.348 . S
C1650 H1613 0.929 . S
C1650 C1649 1.348 . S
C1650 C1651 1.443 . S
C1651 H1615 0.932 . S
C1651 C1646 1.388 . S
C1651 C1650 1.443 . S
H1652 C1679 0.929 . S
N1653 C1678 1.433 . S
N1653 C1684 1.435 . S
N1653 C1690 1.423 . S
H1654 C1680 0.930 . S
H1655 C1683 0.931 . S
H1656 C1682 0.929 . S
H1657 C1685 0.930 . S
H1658 C1686 0.932 . S
H1659 C1689 0.929 . S
H1660 C1688 0.931 . S
H1661 C1691 0.929 . S
H1662 C1695 0.932 . S
H1663 C1692 0.931 . S
H1664 C1694 0.929 . S
H1665 C1697 0.929 . S
H1666 C1698 0.930 . S
H1667 C1700 0.929 . S
H1668 C1701 0.931 . S
H1669 C1703 0.930 . S
H1670 C1704 0.932 . S
H1671 C1706 0.931 . S
H1672 C1707 0.929 . S
H1673 C1709 0.929 . S
H1674 C1710 0.974 . S
H1675 C1712 0.934 1_455 S
N1676 C1696 1.433 . S
N1676 C1702 1.435 . S
N1676 C1708 1.423 . S
H1677 C1713 0.932 . S
C1678 N1653 1.433 . S
C1678 C1679 1.363 . S
C1678 C1683 1.370 . S
C1679 H1652 0.929 . S
C1679 C1678 1.363 . S
C1679 C1680 1.385 . S
C1680 H1654 0.930 . S
C1680 C1679 1.385 . S
C1680 C1681 1.357 . S
C1681 C1680 1.357 . S
C1681 C1682 1.406 . S
C1682 H1656 0.929 . S
C1682 C1681 1.406 . S
C1682 C1683 1.391 . S
C1683 H1655 0.931 . S
C1683 C1678 1.370 . S
C1683 C1682 1.391 . S
C1684 N1653 1.435 . S
C1684 C1685 1.358 . S
C1684 C1689 1.371 . S
C1685 H1657 0.930 . S
C1685 C1684 1.358 . S
C1685 C1686 1.405 . S
C1686 H1658 0.932 . S
C1686 C1685 1.405 . S
C1686 C1687 1.383 . S
C1687 C1686 1.383 . S
C1687 C1688 1.393 . S
C1688 H1660 0.931 . S
C1688 C1687 1.393 . S
C1688 C1689 1.382 . S
C1689 H1659 0.929 . S
C1689 C1684 1.371 . S
C1689 C1688 1.382 . S
C1690 N1653 1.423 . S
C1690 C1691 1.362 . S
C1690 C1695 1.388 . S
C1691 H1661 0.929 . S
C1691 C1690 1.362 . S
C1691 C1692 1.376 . S
C1692 H1663 0.931 . S
C1692 C1691 1.376 . S
C1692 C1693 1.396 . S
C1693 C1692 1.396 . S
C1693 C1694 1.348 . S
C1693 C1711 1.472 . S
C1694 H1664 0.929 . S
C1694 C1693 1.348 . S
C1694 C1695 1.443 . S
C1695 H1662 0.932 . S
C1695 C1690 1.388 . S
C1695 C1694 1.443 . S
C1696 N1676 1.433 . S
C1696 C1697 1.363 . S
C1696 C1701 1.370 . S
C1697 H1665 0.929 . S
C1697 C1696 1.363 . S
C1697 C1698 1.385 . S
C1698 H1666 0.930 . S
C1698 C1697 1.385 . S
C1698 C1699 1.357 . S
C1699 C1698 1.357 . S
C1699 C1700 1.406 . S
C1700 H1667 0.929 . S
C1700 C1699 1.406 . S
C1700 C1701 1.391 . S
C1701 H1668 0.931 . S
C1701 C1696 1.370 . S
C1701 C1700 1.391 . S
C1702 N1676 1.435 . S
C1702 C1703 1.358 . S
C1702 C1707 1.371 . S
C1703 H1669 0.930 . S
C1703 C1702 1.358 . S
C1703 C1704 1.405 . S
C1704 H1670 0.932 . S
C1704 C1703 1.405 . S
C1704 C1705 1.383 . S
C1705 C1704 1.383 . S
C1705 C1706 1.393 . S
C1706 H1671 0.931 . S
C1706 C1705 1.393 . S
C1706 C1707 1.382 . S
C1707 H1672 0.929 . S
C1707 C1702 1.371 . S
C1707 C1706 1.382 . S
C1708 N1676 1.423 . S
C1708 C1709 1.362 . S
C1708 C1713 1.388 . S
C1709 H1673 0.929 . S
C1709 C1708 1.362 . S
C1709 C1710 1.376 . S
C1710 H1674 0.974 . S
C1710 C1709 1.376 . S
C1710 C1711 1.396 1_655 S
C1711 C1693 1.472 . S
C1711 C1710 1.396 1_455 S
C1711 C1712 1.348 1_455 S
C1712 H1675 0.934 1_655 S
C1712 C1711 1.348 1_655 S
C1712 C1713 1.443 . S
C1713 H1677 0.932 . S
C1713 C1708 1.388 . S
C1713 C1712 1.443 . S
H1714 C1741 0.929 . S
N1715 C1740 1.433 . S
N1715 C1746 1.435 . S
N1715 C1752 1.423 . S
H1716 C1742 0.930 . S
H1717 C1745 0.931 . S
H1718 C1744 0.929 . S
H1719 C1747 0.930 . S
H1720 C1748 0.932 . S
H1721 C1751 0.929 . S
H1722 C1750 0.931 . S
H1723 C1753 0.929 . S
H1724 C1757 0.932 . S
H1725 C1754 0.931 . S
H1726 C1756 0.929 . S
H1727 C1759 0.929 . S
H1728 C1760 0.930 . S
H1729 C1762 0.929 . S
H1730 C1763 0.931 . S
H1731 C1765 0.930 . S
H1732 C1766 0.932 . S
H1733 C1768 0.931 . S
H1734 C1769 0.929 . S
H1735 C1771 0.929 . S
H1736 C1772 0.931 . S
H1737 C1774 0.929 . S
N1738 C1758 1.433 . S
N1738 C1764 1.435 . S
N1738 C1770 1.423 . S
H1739 C1775 0.932 . S
C1740 N1715 1.433 . S
C1740 C1741 1.363 . S
C1740 C1745 1.370 . S
C1741 H1714 0.929 . S
C1741 C1740 1.363 . S
C1741 C1742 1.385 . S
C1742 H1716 0.930 . S
C1742 C1741 1.385 . S
C1742 C1743 1.357 . S
C1743 C1742 1.357 . S
C1743 C1744 1.406 . S
C1744 H1718 0.929 . S
C1744 C1743 1.406 . S
C1744 C1745 1.391 . S
C1745 H1717 0.931 . S
C1745 C1740 1.370 . S
C1745 C1744 1.391 . S
C1746 N1715 1.435 . S
C1746 C1747 1.358 . S
C1746 C1751 1.371 . S
C1747 H1719 0.930 . S
C1747 C1746 1.358 . S
C1747 C1748 1.405 . S
C1748 H1720 0.932 . S
C1748 C1747 1.405 . S
C1748 C1749 1.383 . S
C1749 C1748 1.383 . S
C1749 C1750 1.393 . S
C1750 H1722 0.931 . S
C1750 C1749 1.393 . S
C1750 C1751 1.382 . S
C1751 H1721 0.929 . S
C1751 C1746 1.371 . S
C1751 C1750 1.382 . S
C1752 N1715 1.423 . S
C1752 C1753 1.362 . S
C1752 C1757 1.388 . S
C1753 H1723 0.929 . S
C1753 C1752 1.362 . S
C1753 C1754 1.376 . S
C1754 H1725 0.931 . S
C1754 C1753 1.376 . S
C1754 C1755 1.396 . S
C1755 C1754 1.396 . S
C1755 C1756 1.348 . S
C1755 C1773 1.472 1_565 S
C1756 H1726 0.929 . S
C1756 C1755 1.348 . S
C1756 C1757 1.443 . S
C1757 H1724 0.932 . S
C1757 C1752 1.388 . S
C1757 C1756 1.443 . S
C1758 N1738 1.433 . S
C1758 C1759 1.363 . S
C1758 C1763 1.370 . S
C1759 H1727 0.929 . S
C1759 C1758 1.363 . S
C1759 C1760 1.385 . S
C1760 H1728 0.930 . S
C1760 C1759 1.385 . S
C1760 C1761 1.357 . S
C1761 C1760 1.357 . S
C1761 C1762 1.406 . S
C1762 H1729 0.929 . S
C1762 C1761 1.406 . S
C1762 C1763 1.391 . S
C1763 H1730 0.931 . S
C1763 C1758 1.370 . S
C1763 C1762 1.391 . S
C1764 N1738 1.435 . S
C1764 C1765 1.358 . S
C1764 C1769 1.371 . S
C1765 H1731 0.930 . S
C1765 C1764 1.358 . S
C1765 C1766 1.405 . S
C1766 H1732 0.932 . S
C1766 C1765 1.405 . S
C1766 C1767 1.383 . S
C1767 C1766 1.383 . S
C1767 C1768 1.393 . S
C1768 H1733 0.931 . S
C1768 C1767 1.393 . S
C1768 C1769 1.382 . S
C1769 H1734 0.929 . S
C1769 C1764 1.371 . S
C1769 C1768 1.382 . S
C1770 N1738 1.423 . S
C1770 C1771 1.362 . S
C1770 C1775 1.388 . S
C1771 H1735 0.929 . S
C1771 C1770 1.362 . S
C1771 C1772 1.376 . S
C1772 H1736 0.931 . S
C1772 C1771 1.376 . S
C1772 C1773 1.396 . S
C1773 C1755 1.472 1_545 S
C1773 C1772 1.396 . S
C1773 C1774 1.348 . S
C1774 H1737 0.929 . S
C1774 C1773 1.348 . S
C1774 C1775 1.443 . S
C1775 H1739 0.932 . S
C1775 C1770 1.388 . S
C1775 C1774 1.443 . S
H1776 C1803 0.929 . S
N1777 C1802 1.433 . S
N1777 C1808 1.435 . S
N1777 C1814 1.423 . S
H1778 C1804 0.930 . S
H1779 C1807 0.931 . S
H1780 C1806 0.929 . S
H1781 C1809 0.930 . S
H1782 C1810 0.932 . S
H1783 C1813 0.929 . S
H1784 C1812 0.931 . S
H1785 C1815 0.929 . S
H1786 C1819 0.932 . S
H1787 C1816 0.931 . S
H1788 C1818 0.929 . S
H1789 C1821 0.929 . S
H1790 C1822 0.930 . S
H1791 C1824 0.929 . S
H1792 C1825 0.931 . S
H1793 C1827 0.930 . S
H1794 C1828 0.932 . S
H1795 C1830 0.931 . S
H1796 C1831 0.929 . S
H1797 C1833 0.929 . S
H1798 C1834 0.958 . S
H1799 C1836 0.929 1_455 S
N1800 C1820 1.433 . S
N1800 C1826 1.435 . S
N1800 C1832 1.423 . S
H1801 C1837 0.932 . S
C1802 N1777 1.433 . S
C1802 C1803 1.363 . S
C1802 C1807 1.370 . S
C1803 H1776 0.929 . S
C1803 C1802 1.363 . S
C1803 C1804 1.385 . S
C1804 H1778 0.930 . S
C1804 C1803 1.385 . S
C1804 C1805 1.357 . S
C1805 C1804 1.357 . S
C1805 C1806 1.406 . S
C1806 H1780 0.929 . S
C1806 C1805 1.406 . S
C1806 C1807 1.391 . S
C1807 H1779 0.931 . S
C1807 C1802 1.370 . S
C1807 C1806 1.391 . S
C1808 N1777 1.435 . S
C1808 C1809 1.358 . S
C1808 C1813 1.371 . S
C1809 H1781 0.930 . S
C1809 C1808 1.358 . S
C1809 C1810 1.405 . S
C1810 H1782 0.932 . S
C1810 C1809 1.405 . S
C1810 C1811 1.383 . S
C1811 C1810 1.383 . S
C1811 C1812 1.393 . S
C1812 H1784 0.931 . S
C1812 C1811 1.393 . S
C1812 C1813 1.382 . S
C1813 H1783 0.929 . S
C1813 C1808 1.371 . S
C1813 C1812 1.382 . S
C1814 N1777 1.423 . S
C1814 C1815 1.362 . S
C1814 C1819 1.388 . S
C1815 H1785 0.929 . S
C1815 C1814 1.362 . S
C1815 C1816 1.376 . S
C1816 H1787 0.931 . S
C1816 C1815 1.376 . S
C1816 C1817 1.396 . S
C1817 C1816 1.396 . S
C1817 C1818 1.348 . S
C1817 C1835 1.472 . S
C1818 H1788 0.929 . S
C1818 C1817 1.348 . S
C1818 C1819 1.443 . S
C1819 H1786 0.932 . S
C1819 C1814 1.388 . S
C1819 C1818 1.443 . S
C1820 N1800 1.433 . S
C1820 C1821 1.363 . S
C1820 C1825 1.370 . S
C1821 H1789 0.929 . S
C1821 C1820 1.363 . S
C1821 C1822 1.385 . S
C1822 H1790 0.930 . S
C1822 C1821 1.385 . S
C1822 C1823 1.357 . S
C1823 C1822 1.357 . S
C1823 C1824 1.406 . S
C1824 H1791 0.929 . S
C1824 C1823 1.406 . S
C1824 C1825 1.391 . S
C1825 H1792 0.931 . S
C1825 C1820 1.370 . S
C1825 C1824 1.391 . S
C1826 N1800 1.435 . S
C1826 C1827 1.358 . S
C1826 C1831 1.371 . S
C1827 H1793 0.930 . S
C1827 C1826 1.358 . S
C1827 C1828 1.405 . S
C1828 H1794 0.932 . S
C1828 C1827 1.405 . S
C1828 C1829 1.383 . S
C1829 C1828 1.383 . S
C1829 C1830 1.393 . S
C1830 H1795 0.931 . S
C1830 C1829 1.393 . S
C1830 C1831 1.382 . S
C1831 H1796 0.929 . S
C1831 C1826 1.371 . S
C1831 C1830 1.382 . S
C1832 N1800 1.423 . S
C1832 C1833 1.362 . S
C1832 C1837 1.388 . S
C1833 H1797 0.929 . S
C1833 C1832 1.362 . S
C1833 C1834 1.376 . S
C1834 H1798 0.958 . S
C1834 C1833 1.376 . S
C1834 C1835 1.396 1_655 S
C1835 C1817 1.472 . S
C1835 C1834 1.396 1_455 S
C1835 C1836 1.348 1_455 S
C1836 H1799 0.929 1_655 S
C1836 C1835 1.348 1_655 S
C1836 C1837 1.443 . S
C1837 H1801 0.932 . S
C1837 C1832 1.388 . S
C1837 C1836 1.443 . S
H1838 C1865 0.929 . S
N1839 C1864 1.433 . S
N1839 C1870 1.435 . S
N1839 C1876 1.423 . S
H1840 C1866 0.930 . S
H1841 C1869 0.931 . S
H1842 C1868 0.929 . S
H1843 C1871 0.930 . S
H1844 C1872 0.932 . S
H1845 C1875 0.929 . S
H1846 C1874 0.931 . S
H1847 C1877 0.929 . S
H1848 C1881 0.932 . S
H1849 C1878 0.931 . S
H1850 C1880 0.929 . S
H1851 C1883 0.929 . S
H1852 C1884 0.930 . S
H1853 C1886 0.929 . S
H1854 C1887 0.931 . S
H1855 C1889 0.930 . S
H1856 C1890 0.932 . S
H1857 C1892 0.931 . S
H1858 C1893 0.929 . S
H1859 C1895 0.929 . S
H1860 C1896 0.931 . S
H1861 C1898 0.929 . S
N1862 C1882 1.433 . S
N1862 C1888 1.435 . S
N1862 C1894 1.423 . S
H1863 C1899 0.932 . S
C1864 N1839 1.433 . S
C1864 C1865 1.363 . S
C1864 C1869 1.370 . S
C1865 H1838 0.929 . S
C1865 C1864 1.363 . S
C1865 C1866 1.385 . S
C1866 H1840 0.930 . S
C1866 C1865 1.385 . S
C1866 C1867 1.357 . S
C1867 C1866 1.357 . S
C1867 C1868 1.406 . S
C1868 H1842 0.929 . S
C1868 C1867 1.406 . S
C1868 C1869 1.391 . S
C1869 H1841 0.931 . S
C1869 C1864 1.370 . S
C1869 C1868 1.391 . S
C1870 N1839 1.435 . S
C1870 C1871 1.358 . S
C1870 C1875 1.371 . S
C1871 H1843 0.930 . S
C1871 C1870 1.358 . S
C1871 C1872 1.405 . S
C1872 H1844 0.932 . S
C1872 C1871 1.405 . S
C1872 C1873 1.383 . S
C1873 C1872 1.383 . S
C1873 C1874 1.393 . S
C1874 H1846 0.931 . S
C1874 C1873 1.393 . S
C1874 C1875 1.382 . S
C1875 H1845 0.929 . S
C1875 C1870 1.371 . S
C1875 C1874 1.382 . S
C1876 N1839 1.423 . S
C1876 C1877 1.362 . S
C1876 C1881 1.388 . S
C1877 H1847 0.929 . S
C1877 C1876 1.362 . S
C1877 C1878 1.376 . S
C1878 H1849 0.931 . S
C1878 C1877 1.376 . S
C1878 C1879 1.396 . S
C1879 C1878 1.396 . S
C1879 C1880 1.348 . S
C1879 C1897 1.472 1_545 S
C1880 H1850 0.929 . S
C1880 C1879 1.348 . S
C1880 C1881 1.443 . S
C1881 H1848 0.932 . S
C1881 C1876 1.388 . S
C1881 C1880 1.443 . S
C1882 N1862 1.433 . S
C1882 C1883 1.363 . S
C1882 C1887 1.370 . S
C1883 H1851 0.929 . S
C1883 C1882 1.363 . S
C1883 C1884 1.385 . S
C1884 H1852 0.930 . S
C1884 C1883 1.385 . S
C1884 C1885 1.357 . S
C1885 C1884 1.357 . S
C1885 C1886 1.406 . S
C1886 H1853 0.929 . S
C1886 C1885 1.406 . S
C1886 C1887 1.391 . S
C1887 H1854 0.931 . S
C1887 C1882 1.370 . S
C1887 C1886 1.391 . S
C1888 N1862 1.435 . S
C1888 C1889 1.358 . S
C1888 C1893 1.371 . S
C1889 H1855 0.930 . S
C1889 C1888 1.358 . S
C1889 C1890 1.405 . S
C1890 H1856 0.932 . S
C1890 C1889 1.405 . S
C1890 C1891 1.383 . S
C1891 C1890 1.383 . S
C1891 C1892 1.393 . S
C1892 H1857 0.931 . S
C1892 C1891 1.393 . S
C1892 C1893 1.382 . S
C1893 H1858 0.929 . S
C1893 C1888 1.371 . S
C1893 C1892 1.382 . S
C1894 N1862 1.423 . S
C1894 C1895 1.362 . S
C1894 C1899 1.388 . S
C1895 H1859 0.929 . S
C1895 C1894 1.362 . S
C1895 C1896 1.376 . S
C1896 H1860 0.931 . S
C1896 C1895 1.376 . S
C1896 C1897 1.396 . S
C1897 C1879 1.472 1_565 S
C1897 C1896 1.396 . S
C1897 C1898 1.348 . S
C1898 H1861 0.929 . S
C1898 C1897 1.348 . S
C1898 C1899 1.443 . S
C1899 H1863 0.932 . S
C1899 C1894 1.388 . S
C1899 C1898 1.443 . S
H1900 C1927 0.929 . S
N1901 C1926 1.433 . S
N1901 C1932 1.435 . S
N1901 C1938 1.423 . S
H1902 C1928 0.930 . S
H1903 C1931 0.931 . S
H1904 C1930 0.929 . S
H1905 C1933 0.930 . S
H1906 C1934 0.932 . S
H1907 C1937 0.929 . S
H1908 C1936 0.931 . S
H1909 C1939 0.929 . S
H1910 C1943 0.932 . S
H1911 C1940 0.931 . S
H1912 C1942 0.960 . S
H1913 C1945 0.929 . S
H1914 C1946 0.930 . S
H1915 C1948 0.929 . S
H1916 C1949 0.931 . S
H1917 C1951 0.930 . S
H1918 C1952 0.932 . S
H1919 C1954 0.931 . S
H1920 C1955 0.929 . S
H1921 C1957 0.929 . S
H1922 C1958 0.931 . S
H1923 C1960 0.929 . S
N1924 C1944 1.433 . S
N1924 C1950 1.435 . S
N1924 C1956 1.423 . S
H1925 C1961 0.932 . S
C1926 N1901 1.433 . S
C1926 C1927 1.363 . S
C1926 C1931 1.370 . S
C1927 H1900 0.929 . S
C1927 C1926 1.363 . S
C1927 C1928 1.385 . S
C1928 H1902 0.930 . S
C1928 C1927 1.385 . S
C1928 C1929 1.357 . S
C1929 C1928 1.357 . S
C1929 C1930 1.406 . S
C1930 H1904 0.929 . S
C1930 C1929 1.406 . S
C1930 C1931 1.391 . S
C1931 H1903 0.931 . S
C1931 C1926 1.370 . S
C1931 C1930 1.391 . S
C1932 N1901 1.435 . S
C1932 C1933 1.358 . S
C1932 C1937 1.371 . S
C1933 H1905 0.930 . S
C1933 C1932 1.358 . S
C1933 C1934 1.405 . S
C1934 H1906 0.932 . S
C1934 C1933 1.405 . S
C1934 C1935 1.383 . S
C1935 C1934 1.383 . S
C1935 C1936 1.393 . S
C1936 H1908 0.931 . S
C1936 C1935 1.393 . S
C1936 C1937 1.382 . S
C1937 H1907 0.929 . S
C1937 C1932 1.371 . S
C1937 C1936 1.382 . S
C1938 N1901 1.423 . S
C1938 C1939 1.362 . S
C1938 C1943 1.388 . S
C1939 H1909 0.929 . S
C1939 C1938 1.362 . S
C1939 C1940 1.376 . S
C1940 H1911 0.931 . S
C1940 C1939 1.376 . S
C1940 C1941 1.396 1_655 S
C1941 C1940 1.396 1_455 S
C1941 C1942 1.348 1_455 S
C1941 C1959 1.472 . S
C1942 H1912 0.960 . S
C1942 C1941 1.348 1_655 S
C1942 C1943 1.443 . S
C1943 H1910 0.932 . S
C1943 C1938 1.388 . S
C1943 C1942 1.443 . S
C1944 N1924 1.433 . S
C1944 C1945 1.363 . S
C1944 C1949 1.370 . S
C1945 H1913 0.929 . S
C1945 C1944 1.363 . S
C1945 C1946 1.385 . S
C1946 H1914 0.930 . S
C1946 C1945 1.385 . S
C1946 C1947 1.357 . S
C1947 C1946 1.357 . S
C1947 C1948 1.406 . S
C1948 H1915 0.929 . S
C1948 C1947 1.406 . S
C1948 C1949 1.391 . S
C1949 H1916 0.931 . S
C1949 C1944 1.370 . S
C1949 C1948 1.391 . S
C1950 N1924 1.435 . S
C1950 C1951 1.358 . S
C1950 C1955 1.371 . S
C1951 H1917 0.930 . S
C1951 C1950 1.358 . S
C1951 C1952 1.405 . S
C1952 H1918 0.932 . S
C1952 C1951 1.405 . S
C1952 C1953 1.383 . S
C1953 C1952 1.383 . S
C1953 C1954 1.393 . S
C1954 H1919 0.931 . S
C1954 C1953 1.393 . S
C1954 C1955 1.382 . S
C1955 H1920 0.929 . S
C1955 C1950 1.371 . S
C1955 C1954 1.382 . S
C1956 N1924 1.423 . S
C1956 C1957 1.362 . S
C1956 C1961 1.388 . S
C1957 H1921 0.929 . S
C1957 C1956 1.362 . S
C1957 C1958 1.376 . S
C1958 H1922 0.931 . S
C1958 C1957 1.376 . S
C1958 C1959 1.396 . S
C1959 C1941 1.472 . S
C1959 C1958 1.396 . S
C1959 C1960 1.348 . S
C1960 H1923 0.929 . S
C1960 C1959 1.348 . S
C1960 C1961 1.443 . S
C1961 H1925 0.932 . S
C1961 C1956 1.388 . S
C1961 C1960 1.443 . S
H1962 C1989 0.929 . S
N1963 C1988 1.433 . S
N1963 C1994 1.435 . S
N1963 C2000 1.423 . S
H1964 C1990 0.930 . S
H1965 C1993 0.931 . S
H1966 C1992 0.929 . S
H1967 C1995 0.930 . S
H1968 C1996 0.932 . S
H1969 C1999 0.929 . S
H1970 C1998 0.931 . S
H1971 C2001 0.929 . S
H1972 C2005 0.932 . S
H1973 C2002 0.931 . S
H1974 C2004 0.929 . S
H1975 C2007 0.929 . S
H1976 C2008 0.930 . S
H1977 C2010 0.929 . S
H1978 C2011 0.931 . S
H1979 C2013 0.930 . S
H1980 C2014 0.932 . S
H1981 C2016 0.931 . S
H1982 C2017 0.929 . S
H1983 C2019 0.929 . S
H1984 C2020 0.931 . S
H1985 C2022 0.929 . S
N1986 C2006 1.433 . S
N1986 C2012 1.435 . S
N1986 C2018 1.423 . S
H1987 C2023 0.932 . S
C1988 N1963 1.433 . S
C1988 C1989 1.363 . S
C1988 C1993 1.370 . S
C1989 H1962 0.929 . S
C1989 C1988 1.363 . S
C1989 C1990 1.385 . S
C1990 H1964 0.930 . S
C1990 C1989 1.385 . S
C1990 C1991 1.357 . S
C1991 C1990 1.357 . S
C1991 C1992 1.406 . S
C1992 H1966 0.929 . S
C1992 C1991 1.406 . S
C1992 C1993 1.391 . S
C1993 H1965 0.931 . S
C1993 C1988 1.370 . S
C1993 C1992 1.391 . S
C1994 N1963 1.435 . S
C1994 C1995 1.358 . S
C1994 C1999 1.371 . S
C1995 H1967 0.930 . S
C1995 C1994 1.358 . S
C1995 C1996 1.405 . S
C1996 H1968 0.932 . S
C1996 C1995 1.405 . S
C1996 C1997 1.383 . S
C1997 C1996 1.383 . S
C1997 C1998 1.393 . S
C1998 H1970 0.931 . S
C1998 C1997 1.393 . S
C1998 C1999 1.382 . S
C1999 H1969 0.929 . S
C1999 C1994 1.371 . S
C1999 C1998 1.382 . S
C2000 N1963 1.423 . S
C2000 C2001 1.362 . S
C2000 C2005 1.388 . S
C2001 H1971 0.929 . S
C2001 C2000 1.362 . S
C2001 C2002 1.376 . S
C2002 H1973 0.931 . S
C2002 C2001 1.376 . S
C2002 C2003 1.438 . S
C2003 C2002 1.438 . S
C2003 C2004 1.388 . S
C2003 C2021 1.398 1_565 S
C2004 H1974 0.929 . S
C2004 C2003 1.388 . S
C2004 C2005 1.443 . S
C2005 H1972 0.932 . S
C2005 C2000 1.388 . S
C2005 C2004 1.443 . S
C2006 N1986 1.433 . S
C2006 C2007 1.363 . S
C2006 C2011 1.370 . S
C2007 H1975 0.929 . S
C2007 C2006 1.363 . S
C2007 C2008 1.385 . S
C2008 H1976 0.930 . S
C2008 C2007 1.385 . S
C2008 C2009 1.357 . S
C2009 C2008 1.357 . S
C2009 C2010 1.406 . S
C2010 H1977 0.929 . S
C2010 C2009 1.406 . S
C2010 C2011 1.391 . S
C2011 H1978 0.931 . S
C2011 C2006 1.370 . S
C2011 C2010 1.391 . S
C2012 N1986 1.435 . S
C2012 C2013 1.358 . S
C2012 C2017 1.371 . S
C2013 H1979 0.930 . S
C2013 C2012 1.358 . S
C2013 C2014 1.405 . S
C2014 H1980 0.932 . S
C2014 C2013 1.405 . S
C2014 C2015 1.383 . S
C2015 C2014 1.383 . S
C2015 C2016 1.393 . S
C2016 H1981 0.931 . S
C2016 C2015 1.393 . S
C2016 C2017 1.382 . S
C2017 H1982 0.929 . S
C2017 C2012 1.371 . S
C2017 C2016 1.382 . S
C2018 N1986 1.423 . S
C2018 C2019 1.362 . S
C2018 C2023 1.388 . S
C2019 H1983 0.929 . S
C2019 C2018 1.362 . S
C2019 C2020 1.376 . S
C2020 H1984 0.931 . S
C2020 C2019 1.376 . S
C2020 C2021 1.396 . S
C2021 C2003 1.398 1_545 S
C2021 C2020 1.396 . S
C2021 C2022 1.348 . S
C2022 H1985 0.929 . S
C2022 C2021 1.348 . S
C2022 C2023 1.443 . S
C2023 H1987 0.932 . S
C2023 C2018 1.388 . S
C2023 C2022 1.443 . S
H2024 C2051 0.929 . S
N2025 C2050 1.433 . S
N2025 C2056 1.435 . S
N2025 C2062 1.423 . S
H2026 C2052 0.930 . S
H2027 C2055 0.931 . S
H2028 C2054 0.929 . S
H2029 C2057 0.930 . S
H2030 C2058 0.932 . S
H2031 C2061 0.929 . S
H2032 C2060 0.931 . S
H2033 C2063 0.929 . S
H2034 C2067 0.932 . S
H2035 C2064 0.931 . S
H2036 C2066 0.929 . S
H2037 C2069 0.929 . S
H2038 C2070 0.930 . S
H2039 C2072 0.929 . S
H2040 C2073 0.931 . S
H2041 C2075 0.930 . S
H2042 C2076 0.932 . S
H2043 C2078 0.931 . S
H2044 C2079 0.929 . S
H2045 C2081 0.929 . S
H2046 C2082 0.931 . S
H2047 C2084 0.929 . S
N2048 C2068 1.433 . S
N2048 C2074 1.435 . S
N2048 C2080 1.423 . S
H2049 C2085 0.932 . S
C2050 N2025 1.433 . S
C2050 C2051 1.363 . S
C2050 C2055 1.370 . S
C2051 H2024 0.929 . S
C2051 C2050 1.363 . S
C2051 C2052 1.385 . S
C2052 H2026 0.930 . S
C2052 C2051 1.385 . S
C2052 C2053 1.357 . S
C2053 C2052 1.357 . S
C2053 C2054 1.406 . S
C2054 H2028 0.929 . S
C2054 C2053 1.406 . S
C2054 C2055 1.391 . S
C2055 H2027 0.931 . S
C2055 C2050 1.370 . S
C2055 C2054 1.391 . S
C2056 N2025 1.435 . S
C2056 C2057 1.358 . S
C2056 C2061 1.371 . S
C2057 H2029 0.930 . S
C2057 C2056 1.358 . S
C2057 C2058 1.405 . S
C2058 H2030 0.932 . S
C2058 C2057 1.405 . S
C2058 C2059 1.383 . S
C2059 C2058 1.383 . S
C2059 C2060 1.393 . S
C2060 H2032 0.931 . S
C2060 C2059 1.393 . S
C2060 C2061 1.382 . S
C2061 H2031 0.929 . S
C2061 C2056 1.371 . S
C2061 C2060 1.382 . S
C2062 N2025 1.423 . S
C2062 C2063 1.362 . S
C2062 C2067 1.388 . S
C2063 H2033 0.929 . S
C2063 C2062 1.362 . S
C2063 C2064 1.376 . S
C2064 H2035 0.931 . S
C2064 C2063 1.376 . S
C2064 C2065 1.396 . S
C2065 C2064 1.396 . S
C2065 C2066 1.348 . S
C2065 C2083 1.472 . S
C2066 H2036 0.929 . S
C2066 C2065 1.348 . S
C2066 C2067 1.443 . S
C2067 H2034 0.932 . S
C2067 C2062 1.388 . S
C2067 C2066 1.443 . S
C2068 N2048 1.433 . S
C2068 C2069 1.363 . S
C2068 C2073 1.370 . S
C2069 H2037 0.929 . S
C2069 C2068 1.363 . S
C2069 C2070 1.385 . S
C2070 H2038 0.930 . S
C2070 C2069 1.385 . S
C2070 C2071 1.357 . S
C2071 C2070 1.357 . S
C2071 C2072 1.406 . S
C2072 H2039 0.929 . S
C2072 C2071 1.406 . S
C2072 C2073 1.391 . S
C2073 H2040 0.931 . S
C2073 C2068 1.370 . S
C2073 C2072 1.391 . S
C2074 N2048 1.435 . S
C2074 C2075 1.358 . S
C2074 C2079 1.371 . S
C2075 H2041 0.930 . S
C2075 C2074 1.358 . S
C2075 C2076 1.405 . S
C2076 H2042 0.932 . S
C2076 C2075 1.405 . S
C2076 C2077 1.383 . S
C2077 C2076 1.383 . S
C2077 C2078 1.393 . S
C2078 H2043 0.931 . S
C2078 C2077 1.393 . S
C2078 C2079 1.382 . S
C2079 H2044 0.929 . S
C2079 C2074 1.371 . S
C2079 C2078 1.382 . S
C2080 N2048 1.423 . S
C2080 C2081 1.362 . S
C2080 C2085 1.388 . S
C2081 H2045 0.929 . S
C2081 C2080 1.362 . S
C2081 C2082 1.376 . S
C2082 H2046 0.931 . S
C2082 C2081 1.376 . S
C2082 C2083 1.396 . S
C2083 C2065 1.472 . S
C2083 C2082 1.396 . S
C2083 C2084 1.348 . S
C2084 H2047 0.929 . S
C2084 C2083 1.348 . S
C2084 C2085 1.443 . S
C2085 H2049 0.932 . S
C2085 C2080 1.388 . S
C2085 C2084 1.443 . S
H2086 C2113 0.929 . S
N2087 C2112 1.433 . S
N2087 C2118 1.435 . S
N2087 C2124 1.423 . S
H2088 C2114 0.930 . S
H2089 C2117 0.931 . S
H2090 C2116 0.929 . S
H2091 C2119 0.930 . S
H2092 C2120 0.932 . S
H2093 C2123 0.929 . S
H2094 C2122 0.931 . S
H2095 C2125 0.929 . S
H2096 C2129 0.932 . S
H2097 C2126 0.931 . S
H2098 C2128 0.929 . S
H2099 C2131 0.929 . S
H2100 C2132 0.930 . S
H2101 C2134 0.929 . S
H2102 C2135 0.931 . S
H2103 C2137 0.930 . S
H2104 C2138 0.932 . S
H2105 C2140 0.931 . S
H2106 C2141 0.929 . S
H2107 C2143 0.929 . S
H2108 C2144 0.931 . S
H2109 C2146 0.929 . S
N2110 C2130 1.433 . S
N2110 C2136 1.435 . S
N2110 C2142 1.423 . S
H2111 C2147 0.932 . S
C2112 N2087 1.433 . S
C2112 C2113 1.363 . S
C2112 C2117 1.370 . S
C2113 H2086 0.929 . S
C2113 C2112 1.363 . S
C2113 C2114 1.385 . S
C2114 H2088 0.930 . S
C2114 C2113 1.385 . S
C2114 C2115 1.357 . S
C2115 C2114 1.357 . S
C2115 C2116 1.406 . S
C2116 H2090 0.929 . S
C2116 C2115 1.406 . S
C2116 C2117 1.391 . S
C2117 H2089 0.931 . S
C2117 C2112 1.370 . S
C2117 C2116 1.391 . S
C2118 N2087 1.435 . S
C2118 C2119 1.358 . S
C2118 C2123 1.371 . S
C2119 H2091 0.930 . S
C2119 C2118 1.358 . S
C2119 C2120 1.405 . S
C2120 H2092 0.932 . S
C2120 C2119 1.405 . S
C2120 C2121 1.383 . S
C2121 C2120 1.383 . S
C2121 C2122 1.393 . S
C2122 H2094 0.931 . S
C2122 C2121 1.393 . S
C2122 C2123 1.382 . S
C2123 H2093 0.929 . S
C2123 C2118 1.371 . S
C2123 C2122 1.382 . S
C2124 N2087 1.423 . S
C2124 C2125 1.362 . S
C2124 C2129 1.388 . S
C2125 H2095 0.929 . S
C2125 C2124 1.362 . S
C2125 C2126 1.376 . S
C2126 H2097 0.931 . S
C2126 C2125 1.376 . S
C2126 C2127 1.396 . S
C2127 C2126 1.396 . S
C2127 C2128 1.348 . S
C2127 C2145 1.472 . S
C2128 H2098 0.929 . S
C2128 C2127 1.348 . S
C2128 C2129 1.443 . S
C2129 H2096 0.932 . S
C2129 C2124 1.388 . S
C2129 C2128 1.443 . S
C2130 N2110 1.433 . S
C2130 C2131 1.363 . S
C2130 C2135 1.370 . S
C2131 H2099 0.929 . S
C2131 C2130 1.363 . S
C2131 C2132 1.385 . S
C2132 H2100 0.930 . S
C2132 C2131 1.385 . S
C2132 C2133 1.357 . S
C2133 C2132 1.357 . S
C2133 C2134 1.406 . S
C2134 H2101 0.929 . S
C2134 C2133 1.406 . S
C2134 C2135 1.391 . S
C2135 H2102 0.931 . S
C2135 C2130 1.370 . S
C2135 C2134 1.391 . S
C2136 N2110 1.435 . S
C2136 C2137 1.358 . S
C2136 C2141 1.371 . S
C2137 H2103 0.930 . S
C2137 C2136 1.358 . S
C2137 C2138 1.405 . S
C2138 H2104 0.932 . S
C2138 C2137 1.405 . S
C2138 C2139 1.383 . S
C2139 C2138 1.383 . S
C2139 C2140 1.393 . S
C2140 H2105 0.931 . S
C2140 C2139 1.393 . S
C2140 C2141 1.382 . S
C2141 H2106 0.929 . S
C2141 C2136 1.371 . S
C2141 C2140 1.382 . S
C2142 N2110 1.423 . S
C2142 C2143 1.362 . S
C2142 C2147 1.388 . S
C2143 H2107 0.929 . S
C2143 C2142 1.362 . S
C2143 C2144 1.376 . S
C2144 H2108 0.931 . S
C2144 C2143 1.376 . S
C2144 C2145 1.396 . S
C2145 C2127 1.472 . S
C2145 C2144 1.396 . S
C2145 C2146 1.348 . S
C2146 H2109 0.929 . S
C2146 C2145 1.348 . S
C2146 C2147 1.443 . S
C2147 H2111 0.932 . S
C2147 C2142 1.388 . S
C2147 C2146 1.443 . S
H2148 C2175 0.929 . S
N2149 C2174 1.433 . S
N2149 C2180 1.435 . S
N2149 C2186 1.423 . S
H2150 C2176 0.930 . S
H2151 C2179 0.931 . S
H2152 C2178 0.929 . S
H2153 C2181 0.930 . S
H2154 C2182 0.932 . S
H2155 C2185 0.929 . S
H2156 C2184 0.931 . S
H2157 C2187 0.929 . S
H2158 C2191 0.932 . S
H2159 C2188 0.931 . S
H2160 C2190 0.929 . S
H2161 C2193 0.929 . S
H2162 C2194 0.930 . S
H2163 C2196 0.929 . S
H2164 C2197 0.931 . S
H2165 C2199 0.930 . S
H2166 C2200 0.932 . S
H2167 C2202 0.931 . S
H2168 C2203 0.929 . S
H2169 C2205 0.929 . S
H2170 C2206 0.931 . S
H2171 C2208 0.929 . S
N2172 C2192 1.433 . S
N2172 C2198 1.435 . S
N2172 C2204 1.423 . S
H2173 C2209 0.932 . S
C2174 N2149 1.433 . S
C2174 C2175 1.363 . S
C2174 C2179 1.370 . S
C2175 H2148 0.929 . S
C2175 C2174 1.363 . S
C2175 C2176 1.385 . S
C2176 H2150 0.930 . S
C2176 C2175 1.385 . S
C2176 C2177 1.357 . S
C2177 C2176 1.357 . S
C2177 C2178 1.406 . S
C2178 H2152 0.929 . S
C2178 C2177 1.406 . S
C2178 C2179 1.391 . S
C2179 H2151 0.931 . S
C2179 C2174 1.370 . S
C2179 C2178 1.391 . S
C2180 N2149 1.435 . S
C2180 C2181 1.358 . S
C2180 C2185 1.371 . S
C2181 H2153 0.930 . S
C2181 C2180 1.358 . S
C2181 C2182 1.405 . S
C2182 H2154 0.932 . S
C2182 C2181 1.405 . S
C2182 C2183 1.383 . S
C2183 C2182 1.383 . S
C2183 C2184 1.393 . S
C2184 H2156 0.931 . S
C2184 C2183 1.393 . S
C2184 C2185 1.382 . S
C2185 H2155 0.929 . S
C2185 C2180 1.371 . S
C2185 C2184 1.382 . S
C2186 N2149 1.423 . S
C2186 C2187 1.362 . S
C2186 C2191 1.388 . S
C2187 H2157 0.929 . S
C2187 C2186 1.362 . S
C2187 C2188 1.376 . S
C2188 H2159 0.931 . S
C2188 C2187 1.376 . S
C2188 C2189 1.396 . S
C2189 C2188 1.396 . S
C2189 C2190 1.348 . S
C2189 C2207 1.472 . S
C2190 H2160 0.929 . S
C2190 C2189 1.348 . S
C2190 C2191 1.443 . S
C2191 H2158 0.932 . S
C2191 C2186 1.388 . S
C2191 C2190 1.443 . S
C2192 N2172 1.433 . S
C2192 C2193 1.363 . S
C2192 C2197 1.370 . S
C2193 H2161 0.929 . S
C2193 C2192 1.363 . S
C2193 C2194 1.385 . S
C2194 H2162 0.930 . S
C2194 C2193 1.385 . S
C2194 C2195 1.357 . S
C2195 C2194 1.357 . S
C2195 C2196 1.406 . S
C2196 H2163 0.929 . S
C2196 C2195 1.406 . S
C2196 C2197 1.391 . S
C2197 H2164 0.931 . S
C2197 C2192 1.370 . S
C2197 C2196 1.391 . S
C2198 N2172 1.435 . S
C2198 C2199 1.358 . S
C2198 C2203 1.371 . S
C2199 H2165 0.930 . S
C2199 C2198 1.358 . S
C2199 C2200 1.405 . S
C2200 H2166 0.932 . S
C2200 C2199 1.405 . S
C2200 C2201 1.383 . S
C2201 C2200 1.383 . S
C2201 C2202 1.393 . S
C2202 H2167 0.931 . S
C2202 C2201 1.393 . S
C2202 C2203 1.382 . S
C2203 H2168 0.929 . S
C2203 C2198 1.371 . S
C2203 C2202 1.382 . S
C2204 N2172 1.423 . S
C2204 C2205 1.362 . S
C2204 C2209 1.388 . S
C2205 H2169 0.929 . S
C2205 C2204 1.362 . S
C2205 C2206 1.376 . S
C2206 H2170 0.931 . S
C2206 C2205 1.376 . S
C2206 C2207 1.396 . S
C2207 C2189 1.472 . S
C2207 C2206 1.396 . S
C2207 C2208 1.348 . S
C2208 H2171 0.929 . S
C2208 C2207 1.348 . S
C2208 C2209 1.443 . S
C2209 H2173 0.932 . S
C2209 C2204 1.388 . S
C2209 C2208 1.443 . S
H2210 C2237 0.929 . S
N2211 C2236 1.433 . S
N2211 C2242 1.435 . S
N2211 C2248 1.423 . S
H2212 C2238 0.930 . S
H2213 C2241 0.931 . S
H2214 C2240 0.929 . S
H2215 C2243 0.930 . S
H2216 C2244 0.932 . S
H2217 C2247 0.929 . S
H2218 C2246 0.931 . S
H2219 C2249 0.929 . S
H2220 C2253 0.932 . S
H2221 C2250 0.931 . S
H2222 C2252 0.929 . S
H2223 C2255 0.929 . S
H2224 C2256 0.930 . S
H2225 C2258 0.929 . S
H2226 C2259 0.931 . S
H2227 C2261 0.930 . S
H2228 C2262 0.932 . S
H2229 C2264 0.931 . S
H2230 C2265 0.929 . S
H2231 C2267 0.929 . S
H2232 C2268 0.931 . S
H2233 C2270 0.929 . S
N2234 C2254 1.433 . S
N2234 C2260 1.435 . S
N2234 C2266 1.423 . S
H2235 C2271 0.932 . S
C2236 N2211 1.433 . S
C2236 C2237 1.363 . S
C2236 C2241 1.370 . S
C2237 H2210 0.929 . S
C2237 C2236 1.363 . S
C2237 C2238 1.385 . S
C2238 H2212 0.930 . S
C2238 C2237 1.385 . S
C2238 C2239 1.357 . S
C2239 C2238 1.357 . S
C2239 C2240 1.406 . S
C2240 H2214 0.929 . S
C2240 C2239 1.406 . S
C2240 C2241 1.391 . S
C2241 H2213 0.931 . S
C2241 C2236 1.370 . S
C2241 C2240 1.391 . S
C2242 N2211 1.435 . S
C2242 C2243 1.358 . S
C2242 C2247 1.371 . S
C2243 H2215 0.930 . S
C2243 C2242 1.358 . S
C2243 C2244 1.405 . S
C2244 H2216 0.932 . S
C2244 C2243 1.405 . S
C2244 C2245 1.383 . S
C2245 C2244 1.383 . S
C2245 C2246 1.393 . S
C2246 H2218 0.931 . S
C2246 C2245 1.393 . S
C2246 C2247 1.382 . S
C2247 H2217 0.929 . S
C2247 C2242 1.371 . S
C2247 C2246 1.382 . S
C2248 N2211 1.423 . S
C2248 C2249 1.362 . S
C2248 C2253 1.388 . S
C2249 H2219 0.929 . S
C2249 C2248 1.362 . S
C2249 C2250 1.376 . S
C2250 H2221 0.931 . S
C2250 C2249 1.376 . S
C2250 C2251 1.396 . S
C2251 C2250 1.396 . S
C2251 C2252 1.348 . S
C2251 C2269 1.472 . S
C2252 H2222 0.929 . S
C2252 C2251 1.348 . S
C2252 C2253 1.443 . S
C2253 H2220 0.932 . S
C2253 C2248 1.388 . S
C2253 C2252 1.443 . S
C2254 N2234 1.433 . S
C2254 C2255 1.363 . S
C2254 C2259 1.370 . S
C2255 H2223 0.929 . S
C2255 C2254 1.363 . S
C2255 C2256 1.385 . S
C2256 H2224 0.930 . S
C2256 C2255 1.385 . S
C2256 C2257 1.357 . S
C2257 C2256 1.357 . S
C2257 C2258 1.406 . S
C2258 H2225 0.929 . S
C2258 C2257 1.406 . S
C2258 C2259 1.391 . S
C2259 H2226 0.931 . S
C2259 C2254 1.370 . S
C2259 C2258 1.391 . S
C2260 N2234 1.435 . S
C2260 C2261 1.358 . S
C2260 C2265 1.371 . S
C2261 H2227 0.930 . S
C2261 C2260 1.358 . S
C2261 C2262 1.405 . S
C2262 H2228 0.932 . S
C2262 C2261 1.405 . S
C2262 C2263 1.383 . S
C2263 C2262 1.383 . S
C2263 C2264 1.393 . S
C2264 H2229 0.931 . S
C2264 C2263 1.393 . S
C2264 C2265 1.382 . S
C2265 H2230 0.929 . S
C2265 C2260 1.371 . S
C2265 C2264 1.382 . S
C2266 N2234 1.423 . S
C2266 C2267 1.362 . S
C2266 C2271 1.388 . S
C2267 H2231 0.929 . S
C2267 C2266 1.362 . S
C2267 C2268 1.376 . S
C2268 H2232 0.931 . S
C2268 C2267 1.376 . S
C2268 C2269 1.396 . S
C2269 C2251 1.472 . S
C2269 C2268 1.396 . S
C2269 C2270 1.348 . S
C2270 H2233 0.929 . S
C2270 C2269 1.348 . S
C2270 C2271 1.443 . S
C2271 H2235 0.932 . S
C2271 C2266 1.388 . S
C2271 C2270 1.443 . S
H2272 C2299 0.929 . S
N2273 C2298 1.433 . S
N2273 C2304 1.435 . S
N2273 C2310 1.423 . S
H2274 C2300 0.930 . S
H2275 C2303 0.931 . S
H2276 C2302 0.929 . S
H2277 C2305 0.930 . S
H2278 C2306 0.932 . S
H2279 C2309 0.929 . S
H2280 C2308 0.931 . S
H2281 C2311 0.929 . S
H2282 C2315 0.932 . S
H2283 C2312 0.931 . S
H2284 C2314 0.929 . S
H2285 C2317 0.929 . S
H2286 C2318 0.930 . S
H2287 C2320 0.929 . S
H2288 C2321 0.931 . S
H2289 C2323 0.930 . S
H2290 C2324 0.932 . S
H2291 C2326 0.931 . S
H2292 C2327 0.929 . S
H2293 C2329 0.929 . S
H2294 C2330 0.931 . S
H2295 C2332 0.929 . S
N2296 C2316 1.433 . S
N2296 C2322 1.435 . S
N2296 C2328 1.423 . S
H2297 C2333 0.932 . S
C2298 N2273 1.433 . S
C2298 C2299 1.363 . S
C2298 C2303 1.370 . S
C2299 H2272 0.929 . S
C2299 C2298 1.363 . S
C2299 C2300 1.385 . S
C2300 H2274 0.930 . S
C2300 C2299 1.385 . S
C2300 C2301 1.357 . S
C2301 C2300 1.357 . S
C2301 C2302 1.406 . S
C2302 H2276 0.929 . S
C2302 C2301 1.406 . S
C2302 C2303 1.391 . S
C2303 H2275 0.931 . S
C2303 C2298 1.370 . S
C2303 C2302 1.391 . S
C2304 N2273 1.435 . S
C2304 C2305 1.358 . S
C2304 C2309 1.371 . S
C2305 H2277 0.930 . S
C2305 C2304 1.358 . S
C2305 C2306 1.405 . S
C2306 H2278 0.932 . S
C2306 C2305 1.405 . S
C2306 C2307 1.383 . S
C2307 C2306 1.383 . S
C2307 C2308 1.393 . S
C2308 H2280 0.931 . S
C2308 C2307 1.393 . S
C2308 C2309 1.382 . S
C2309 H2279 0.929 . S
C2309 C2304 1.371 . S
C2309 C2308 1.382 . S
C2310 N2273 1.423 . S
C2310 C2311 1.362 . S
C2310 C2315 1.388 . S
C2311 H2281 0.929 . S
C2311 C2310 1.362 . S
C2311 C2312 1.376 . S
C2312 H2283 0.931 . S
C2312 C2311 1.376 . S
C2312 C2313 1.396 . S
C2313 C2312 1.396 . S
C2313 C2314 1.348 . S
C2313 C2331 1.472 . S
C2314 H2284 0.929 . S
C2314 C2313 1.348 . S
C2314 C2315 1.443 . S
C2315 H2282 0.932 . S
C2315 C2310 1.388 . S
C2315 C2314 1.443 . S
C2316 N2296 1.433 . S
C2316 C2317 1.363 . S
C2316 C2321 1.370 . S
C2317 H2285 0.929 . S
C2317 C2316 1.363 . S
C2317 C2318 1.385 . S
C2318 H2286 0.930 . S
C2318 C2317 1.385 . S
C2318 C2319 1.357 . S
C2319 C2318 1.357 . S
C2319 C2320 1.406 . S
C2320 H2287 0.929 . S
C2320 C2319 1.406 . S
C2320 C2321 1.391 . S
C2321 H2288 0.931 . S
C2321 C2316 1.370 . S
C2321 C2320 1.391 . S
C2322 N2296 1.435 . S
C2322 C2323 1.358 . S
C2322 C2327 1.371 . S
C2323 H2289 0.930 . S
C2323 C2322 1.358 . S
C2323 C2324 1.405 . S
C2324 H2290 0.932 . S
C2324 C2323 1.405 . S
C2324 C2325 1.383 . S
C2325 C2324 1.383 . S
C2325 C2326 1.393 . S
C2326 H2291 0.931 . S
C2326 C2325 1.393 . S
C2326 C2327 1.382 . S
C2327 H2292 0.929 . S
C2327 C2322 1.371 . S
C2327 C2326 1.382 . S
C2328 N2296 1.423 . S
C2328 C2329 1.362 . S
C2328 C2333 1.388 . S
C2329 H2293 0.929 . S
C2329 C2328 1.362 . S
C2329 C2330 1.376 . S
C2330 H2294 0.931 . S
C2330 C2329 1.376 . S
C2330 C2331 1.396 . S
C2331 C2313 1.472 . S
C2331 C2330 1.396 . S
C2331 C2332 1.348 . S
C2332 H2295 0.929 . S
C2332 C2331 1.348 . S
C2332 C2333 1.443 . S
C2333 H2297 0.932 . S
C2333 C2328 1.388 . S
C2333 C2332 1.443 . S
H2334 C2361 0.929 . S
N2335 C2360 1.433 . S
N2335 C2366 1.435 . S
N2335 C2372 1.423 . S
H2336 C2362 0.930 . S
H2337 C2365 0.931 . S
H2338 C2364 0.929 . S
H2339 C2367 0.930 . S
H2340 C2368 0.932 . S
H2341 C2371 0.929 . S
H2342 C2370 0.931 . S
H2343 C2373 0.929 . S
H2344 C2377 0.932 . S
H2345 C2374 0.931 . S
H2346 C2376 0.929 . S
H2347 C2379 0.929 . S
H2348 C2380 0.930 . S
H2349 C2382 0.929 . S
H2350 C2383 0.931 . S
H2351 C2385 0.930 . S
H2352 C2386 0.932 . S
H2353 C2388 0.931 . S
H2354 C2389 0.929 . S
H2355 C2391 0.929 . S
H2356 C2392 0.931 . S
H2357 C2394 0.929 . S
N2358 C2378 1.433 . S
N2358 C2384 1.435 . S
N2358 C2390 1.423 . S
H2359 C2395 0.932 . S
C2360 N2335 1.433 . S
C2360 C2361 1.363 . S
C2360 C2365 1.370 . S
C2361 H2334 0.929 . S
C2361 C2360 1.363 . S
C2361 C2362 1.385 . S
C2362 H2336 0.930 . S
C2362 C2361 1.385 . S
C2362 C2363 1.357 . S
C2363 C2362 1.357 . S
C2363 C2364 1.406 . S
C2364 H2338 0.929 . S
C2364 C2363 1.406 . S
C2364 C2365 1.391 . S
C2365 H2337 0.931 . S
C2365 C2360 1.370 . S
C2365 C2364 1.391 . S
C2366 N2335 1.435 . S
C2366 C2367 1.358 . S
C2366 C2371 1.371 . S
C2367 H2339 0.930 . S
C2367 C2366 1.358 . S
C2367 C2368 1.405 . S
C2368 H2340 0.932 . S
C2368 C2367 1.405 . S
C2368 C2369 1.383 . S
C2369 C2368 1.383 . S
C2369 C2370 1.393 . S
C2370 H2342 0.931 . S
C2370 C2369 1.393 . S
C2370 C2371 1.382 . S
C2371 H2341 0.929 . S
C2371 C2366 1.371 . S
C2371 C2370 1.382 . S
C2372 N2335 1.423 . S
C2372 C2373 1.362 . S
C2372 C2377 1.388 . S
C2373 H2343 0.929 . S
C2373 C2372 1.362 . S
C2373 C2374 1.376 . S
C2374 H2345 0.931 . S
C2374 C2373 1.376 . S
C2374 C2375 1.396 . S
C2375 C2374 1.396 . S
C2375 C2376 1.348 . S
C2375 C2393 1.472 . S
C2376 H2346 0.929 . S
C2376 C2375 1.348 . S
C2376 C2377 1.443 . S
C2377 H2344 0.932 . S
C2377 C2372 1.388 . S
C2377 C2376 1.443 . S
C2378 N2358 1.433 . S
C2378 C2379 1.363 . S
C2378 C2383 1.370 . S
C2379 H2347 0.929 . S
C2379 C2378 1.363 . S
C2379 C2380 1.385 . S
C2380 H2348 0.930 . S
C2380 C2379 1.385 . S
C2380 C2381 1.357 . S
C2381 C2380 1.357 . S
C2381 C2382 1.406 . S
C2382 H2349 0.929 . S
C2382 C2381 1.406 . S
C2382 C2383 1.391 . S
C2383 H2350 0.931 . S
C2383 C2378 1.370 . S
C2383 C2382 1.391 . S
C2384 N2358 1.435 . S
C2384 C2385 1.358 . S
C2384 C2389 1.371 . S
C2385 H2351 0.930 . S
C2385 C2384 1.358 . S
C2385 C2386 1.405 . S
C2386 H2352 0.932 . S
C2386 C2385 1.405 . S
C2386 C2387 1.383 . S
C2387 C2386 1.383 . S
C2387 C2388 1.393 . S
C2388 H2353 0.931 . S
C2388 C2387 1.393 . S
C2388 C2389 1.382 . S
C2389 H2354 0.929 . S
C2389 C2384 1.371 . S
C2389 C2388 1.382 . S
C2390 N2358 1.423 . S
C2390 C2391 1.362 . S
C2390 C2395 1.388 . S
C2391 H2355 0.929 . S
C2391 C2390 1.362 . S
C2391 C2392 1.376 . S
C2392 H2356 0.931 . S
C2392 C2391 1.376 . S
C2392 C2393 1.396 . S
C2393 C2375 1.472 . S
C2393 C2392 1.396 . S
C2393 C2394 1.348 . S
C2394 H2357 0.929 . S
C2394 C2393 1.348 . S
C2394 C2395 1.443 . S
C2395 H2359 0.932 . S
C2395 C2390 1.388 . S
C2395 C2394 1.443 . S
H2396 C2423 0.929 . S
N2397 C2422 1.433 . S
N2397 C2428 1.435 . S
N2397 C2434 1.423 . S
H2398 C2424 0.930 . S
H2399 C2427 0.931 . S
H2400 C2426 0.929 . S
H2401 C2429 0.930 . S
H2402 C2430 0.932 . S
H2403 C2433 0.929 . S
H2404 C2432 0.931 . S
H2405 C2435 0.929 . S
H2406 C2439 0.932 . S
H2407 C2436 0.931 . S
H2408 C2438 0.929 . S
H2409 C2441 0.929 . S
H2410 C2442 0.930 . S
H2411 C2444 0.929 . S
H2412 C2445 0.931 . S
H2413 C2447 0.930 . S
H2414 C2448 0.932 . S
H2415 C2450 0.931 . S
H2416 C2451 0.929 . S
H2417 C2453 0.929 . S
H2418 C2454 0.931 . S
H2419 C2456 0.929 . S
N2420 C2440 1.433 . S
N2420 C2446 1.435 . S
N2420 C2452 1.423 . S
H2421 C2457 0.932 . S
C2422 N2397 1.433 . S
C2422 C2423 1.363 . S
C2422 C2427 1.370 . S
C2423 H2396 0.929 . S
C2423 C2422 1.363 . S
C2423 C2424 1.385 . S
C2424 H2398 0.930 . S
C2424 C2423 1.385 . S
C2424 C2425 1.357 . S
C2425 C2424 1.357 . S
C2425 C2426 1.406 . S
C2426 H2400 0.929 . S
C2426 C2425 1.406 . S
C2426 C2427 1.391 . S
C2427 H2399 0.931 . S
C2427 C2422 1.370 . S
C2427 C2426 1.391 . S
C2428 N2397 1.435 . S
C2428 C2429 1.358 . S
C2428 C2433 1.371 . S
C2429 H2401 0.930 . S
C2429 C2428 1.358 . S
C2429 C2430 1.405 . S
C2430 H2402 0.932 . S
C2430 C2429 1.405 . S
C2430 C2431 1.383 . S
C2431 C2430 1.383 . S
C2431 C2432 1.393 . S
C2432 H2404 0.931 . S
C2432 C2431 1.393 . S
C2432 C2433 1.382 . S
C2433 H2403 0.929 . S
C2433 C2428 1.371 . S
C2433 C2432 1.382 . S
C2434 N2397 1.423 . S
C2434 C2435 1.362 . S
C2434 C2439 1.388 . S
C2435 H2405 0.929 . S
C2435 C2434 1.362 . S
C2435 C2436 1.376 . S
C2436 H2407 0.931 . S
C2436 C2435 1.376 . S
C2436 C2437 1.396 . S
C2437 C2436 1.396 . S
C2437 C2438 1.348 . S
C2437 C2455 1.472 . S
C2438 H2408 0.929 . S
C2438 C2437 1.348 . S
C2438 C2439 1.443 . S
C2439 H2406 0.932 . S
C2439 C2434 1.388 . S
C2439 C2438 1.443 . S
C2440 N2420 1.433 . S
C2440 C2441 1.363 . S
C2440 C2445 1.370 . S
C2441 H2409 0.929 . S
C2441 C2440 1.363 . S
C2441 C2442 1.385 . S
C2442 H2410 0.930 . S
C2442 C2441 1.385 . S
C2442 C2443 1.357 . S
C2443 C2442 1.357 . S
C2443 C2444 1.406 . S
C2444 H2411 0.929 . S
C2444 C2443 1.406 . S
C2444 C2445 1.391 . S
C2445 H2412 0.931 . S
C2445 C2440 1.370 . S
C2445 C2444 1.391 . S
C2446 N2420 1.435 . S
C2446 C2447 1.358 . S
C2446 C2451 1.371 . S
C2447 H2413 0.930 . S
C2447 C2446 1.358 . S
C2447 C2448 1.405 . S
C2448 H2414 0.932 . S
C2448 C2447 1.405 . S
C2448 C2449 1.383 . S
C2449 C2448 1.383 . S
C2449 C2450 1.393 . S
C2450 H2415 0.931 . S
C2450 C2449 1.393 . S
C2450 C2451 1.382 . S
C2451 H2416 0.929 . S
C2451 C2446 1.371 . S
C2451 C2450 1.382 . S
C2452 N2420 1.423 . S
C2452 C2453 1.362 . S
C2452 C2457 1.388 . S
C2453 H2417 0.929 . S
C2453 C2452 1.362 . S
C2453 C2454 1.376 . S
C2454 H2418 0.931 . S
C2454 C2453 1.376 . S
C2454 C2455 1.396 . S
C2455 C2437 1.472 . S
C2455 C2454 1.396 . S
C2455 C2456 1.348 . S
C2456 H2419 0.929 . S
C2456 C2455 1.348 . S
C2456 C2457 1.443 . S
C2457 H2421 0.932 . S
C2457 C2452 1.388 . S
C2457 C2456 1.443 . S
H2458 C2485 0.929 . S
N2459 C2484 1.433 . S
N2459 C2490 1.435 . S
N2459 C2496 1.423 . S
H2460 C2486 0.930 . S
H2461 C2489 0.931 . S
H2462 C2488 0.929 . S
H2463 C2491 0.930 . S
H2464 C2492 0.932 . S
H2465 C2495 0.929 . S
H2466 C2494 0.931 . S
H2467 C2497 0.929 . S
H2468 C2501 0.932 . S
H2469 C2498 0.931 . S
H2470 C2500 0.929 . S
H2471 C2503 0.929 . S
H2472 C2504 0.930 . S
H2473 C2506 0.929 . S
H2474 C2507 0.931 . S
H2475 C2509 0.930 . S
H2476 C2510 0.932 . S
H2477 C2512 0.931 . S
H2478 C2513 0.929 . S
H2479 C2515 0.929 . S
H2480 C2516 0.931 . S
H2481 C2518 0.929 . S
N2482 C2502 1.433 . S
N2482 C2508 1.435 . S
N2482 C2514 1.423 . S
H2483 C2519 0.932 . S
C2484 N2459 1.433 . S
C2484 C2485 1.363 . S
C2484 C2489 1.370 . S
C2485 H2458 0.929 . S
C2485 C2484 1.363 . S
C2485 C2486 1.385 . S
C2486 H2460 0.930 . S
C2486 C2485 1.385 . S
C2486 C2487 1.357 . S
C2487 C2486 1.357 . S
C2487 C2488 1.406 . S
C2488 H2462 0.929 . S
C2488 C2487 1.406 . S
C2488 C2489 1.391 . S
C2489 H2461 0.931 . S
C2489 C2484 1.370 . S
C2489 C2488 1.391 . S
C2490 N2459 1.435 . S
C2490 C2491 1.358 . S
C2490 C2495 1.371 . S
C2491 H2463 0.930 . S
C2491 C2490 1.358 . S
C2491 C2492 1.405 . S
C2492 H2464 0.932 . S
C2492 C2491 1.405 . S
C2492 C2493 1.383 . S
C2493 C2492 1.383 . S
C2493 C2494 1.393 . S
C2494 H2466 0.931 . S
C2494 C2493 1.393 . S
C2494 C2495 1.382 . S
C2495 H2465 0.929 . S
C2495 C2490 1.371 . S
C2495 C2494 1.382 . S
C2496 N2459 1.423 . S
C2496 C2497 1.362 . S
C2496 C2501 1.388 . S
C2497 H2467 0.929 . S
C2497 C2496 1.362 . S
C2497 C2498 1.376 . S
C2498 H2469 0.931 . S
C2498 C2497 1.376 . S
C2498 C2499 1.396 . S
C2499 C2498 1.396 . S
C2499 C2500 1.348 . S
C2499 C2517 1.472 . S
C2500 H2470 0.929 . S
C2500 C2499 1.348 . S
C2500 C2501 1.443 . S
C2501 H2468 0.932 . S
C2501 C2496 1.388 . S
C2501 C2500 1.443 . S
C2502 N2482 1.433 . S
C2502 C2503 1.363 . S
C2502 C2507 1.370 . S
C2503 H2471 0.929 . S
C2503 C2502 1.363 . S
C2503 C2504 1.385 . S
C2504 H2472 0.930 . S
C2504 C2503 1.385 . S
C2504 C2505 1.357 . S
C2505 C2504 1.357 . S
C2505 C2506 1.406 . S
C2506 H2473 0.929 . S
C2506 C2505 1.406 . S
C2506 C2507 1.391 . S
C2507 H2474 0.931 . S
C2507 C2502 1.370 . S
C2507 C2506 1.391 . S
C2508 N2482 1.435 . S
C2508 C2509 1.358 . S
C2508 C2513 1.371 . S
C2509 H2475 0.930 . S
C2509 C2508 1.358 . S
C2509 C2510 1.405 . S
C2510 H2476 0.932 . S
C2510 C2509 1.405 . S
C2510 C2511 1.383 . S
C2511 C2510 1.383 . S
C2511 C2512 1.393 . S
C2512 H2477 0.931 . S
C2512 C2511 1.393 . S
C2512 C2513 1.382 . S
C2513 H2478 0.929 . S
C2513 C2508 1.371 . S
C2513 C2512 1.382 . S
C2514 N2482 1.423 . S
C2514 C2515 1.362 . S
C2514 C2519 1.388 . S
C2515 H2479 0.929 . S
C2515 C2514 1.362 . S
C2515 C2516 1.376 . S
C2516 H2480 0.931 . S
C2516 C2515 1.376 . S
C2516 C2517 1.396 . S
C2517 C2499 1.472 . S
C2517 C2516 1.396 . S
C2517 C2518 1.348 . S
C2518 H2481 0.929 . S
C2518 C2517 1.348 . S
C2518 C2519 1.443 . S
C2519 H2483 0.932 . S
C2519 C2514 1.388 . S
C2519 C2518 1.443 . S
H2520 C2547 0.929 . S
N2521 C2546 1.433 . S
N2521 C2552 1.435 . S
N2521 C2558 1.423 . S
H2522 C2548 0.930 . S
H2523 C2551 0.931 . S
H2524 C2550 0.929 . S
H2525 C2553 0.930 . S
H2526 C2554 0.932 . S
H2527 C2557 0.929 . S
H2528 C2556 0.931 . S
H2529 C2559 0.929 . S
H2530 C2563 0.932 . S
H2531 C2560 0.931 . S
H2532 C2562 0.929 . S
H2533 C2565 0.929 . S
H2534 C2566 0.930 . S
H2535 C2568 0.929 . S
H2536 C2569 0.931 . S
H2537 C2571 0.930 . S
H2538 C2572 0.932 . S
H2539 C2574 0.931 . S
H2540 C2575 0.929 . S
H2541 C2577 0.929 . S
H2542 C2578 0.931 . S
H2543 C2580 0.929 . S
N2544 C2564 1.433 . S
N2544 C2570 1.435 . S
N2544 C2576 1.423 . S
H2545 C2581 0.932 . S
C2546 N2521 1.433 . S
C2546 C2547 1.363 . S
C2546 C2551 1.370 . S
C2547 H2520 0.929 . S
C2547 C2546 1.363 . S
C2547 C2548 1.385 . S
C2548 H2522 0.930 . S
C2548 C2547 1.385 . S
C2548 C2549 1.357 . S
C2549 C2548 1.357 . S
C2549 C2550 1.406 . S
C2550 H2524 0.929 . S
C2550 C2549 1.406 . S
C2550 C2551 1.391 . S
C2551 H2523 0.931 . S
C2551 C2546 1.370 . S
C2551 C2550 1.391 . S
C2552 N2521 1.435 . S
C2552 C2553 1.358 . S
C2552 C2557 1.371 . S
C2553 H2525 0.930 . S
C2553 C2552 1.358 . S
C2553 C2554 1.405 . S
C2554 H2526 0.932 . S
C2554 C2553 1.405 . S
C2554 C2555 1.383 . S
C2555 C2554 1.383 . S
C2555 C2556 1.393 . S
C2556 H2528 0.931 . S
C2556 C2555 1.393 . S
C2556 C2557 1.382 . S
C2557 H2527 0.929 . S
C2557 C2552 1.371 . S
C2557 C2556 1.382 . S
C2558 N2521 1.423 . S
C2558 C2559 1.362 . S
C2558 C2563 1.388 . S
C2559 H2529 0.929 . S
C2559 C2558 1.362 . S
C2559 C2560 1.376 . S
C2560 H2531 0.931 . S
C2560 C2559 1.376 . S
C2560 C2561 1.396 . S
C2561 C2560 1.396 . S
C2561 C2562 1.348 . S
C2561 C2579 1.472 . S
C2562 H2532 0.929 . S
C2562 C2561 1.348 . S
C2562 C2563 1.443 . S
C2563 H2530 0.932 . S
C2563 C2558 1.388 . S
C2563 C2562 1.443 . S
C2564 N2544 1.433 . S
C2564 C2565 1.363 . S
C2564 C2569 1.370 . S
C2565 H2533 0.929 . S
C2565 C2564 1.363 . S
C2565 C2566 1.385 . S
C2566 H2534 0.930 . S
C2566 C2565 1.385 . S
C2566 C2567 1.357 . S
C2567 C2566 1.357 . S
C2567 C2568 1.406 . S
C2568 H2535 0.929 . S
C2568 C2567 1.406 . S
C2568 C2569 1.391 . S
C2569 H2536 0.931 . S
C2569 C2564 1.370 . S
C2569 C2568 1.391 . S
C2570 N2544 1.435 . S
C2570 C2571 1.358 . S
C2570 C2575 1.371 . S
C2571 H2537 0.930 . S
C2571 C2570 1.358 . S
C2571 C2572 1.405 . S
C2572 H2538 0.932 . S
C2572 C2571 1.405 . S
C2572 C2573 1.383 . S
C2573 C2572 1.383 . S
C2573 C2574 1.393 . S
C2574 H2539 0.931 . S
C2574 C2573 1.393 . S
C2574 C2575 1.382 . S
C2575 H2540 0.929 . S
C2575 C2570 1.371 . S
C2575 C2574 1.382 . S
C2576 N2544 1.423 . S
C2576 C2577 1.362 . S
C2576 C2581 1.388 . S
C2577 H2541 0.929 . S
C2577 C2576 1.362 . S
C2577 C2578 1.376 . S
C2578 H2542 0.931 . S
C2578 C2577 1.376 . S
C2578 C2579 1.396 . S
C2579 C2561 1.472 . S
C2579 C2578 1.396 . S
C2579 C2580 1.348 . S
C2580 H2543 0.929 . S
C2580 C2579 1.348 . S
C2580 C2581 1.443 . S
C2581 H2545 0.932 . S
C2581 C2576 1.388 . S
C2581 C2580 1.443 . S
H2582 C2609 0.929 . S
N2583 C2608 1.433 . S
N2583 C2614 1.435 . S
N2583 C2620 1.423 . S
H2584 C2610 0.930 . S
H2585 C2613 0.931 . S
H2586 C2612 0.929 . S
H2587 C2615 0.930 . S
H2588 C2616 0.932 . S
H2589 C2619 0.929 . S
H2590 C2618 0.931 . S
H2591 C2621 0.929 . S
H2592 C2625 0.932 . S
H2593 C2622 0.931 . S
H2594 C2624 0.929 . S
H2595 C2627 0.929 . S
H2596 C2628 0.930 . S
H2597 C2630 0.929 . S
H2598 C2631 0.931 . S
H2599 C2633 0.930 . S
H2600 C2634 0.932 . S
H2601 C2636 0.931 . S
H2602 C2637 0.929 . S
H2603 C2639 0.929 . S
H2604 C2640 0.931 . S
H2605 C2642 0.929 . S
N2606 C2626 1.433 . S
N2606 C2632 1.435 . S
N2606 C2638 1.423 . S
H2607 C2643 0.932 . S
C2608 N2583 1.433 . S
C2608 C2609 1.363 . S
C2608 C2613 1.370 . S
C2609 H2582 0.929 . S
C2609 C2608 1.363 . S
C2609 C2610 1.385 . S
C2610 H2584 0.930 . S
C2610 C2609 1.385 . S
C2610 C2611 1.357 . S
C2611 C2610 1.357 . S
C2611 C2612 1.406 . S
C2612 H2586 0.929 . S
C2612 C2611 1.406 . S
C2612 C2613 1.391 . S
C2613 H2585 0.931 . S
C2613 C2608 1.370 . S
C2613 C2612 1.391 . S
C2614 N2583 1.435 . S
C2614 C2615 1.358 . S
C2614 C2619 1.371 . S
C2615 H2587 0.930 . S
C2615 C2614 1.358 . S
C2615 C2616 1.405 . S
C2616 H2588 0.932 . S
C2616 C2615 1.405 . S
C2616 C2617 1.383 . S
C2617 C2616 1.383 . S
C2617 C2618 1.393 . S
C2618 H2590 0.931 . S
C2618 C2617 1.393 . S
C2618 C2619 1.382 . S
C2619 H2589 0.929 . S
C2619 C2614 1.371 . S
C2619 C2618 1.382 . S
C2620 N2583 1.423 . S
C2620 C2621 1.362 . S
C2620 C2625 1.388 . S
C2621 H2591 0.929 . S
C2621 C2620 1.362 . S
C2621 C2622 1.376 . S
C2622 H2593 0.931 . S
C2622 C2621 1.376 . S
C2622 C2623 1.396 . S
C2623 C2622 1.396 . S
C2623 C2624 1.348 . S
C2623 C2641 1.472 . S
C2624 H2594 0.929 . S
C2624 C2623 1.348 . S
C2624 C2625 1.443 . S
C2625 H2592 0.932 . S
C2625 C2620 1.388 . S
C2625 C2624 1.443 . S
C2626 N2606 1.433 . S
C2626 C2627 1.363 . S
C2626 C2631 1.370 . S
C2627 H2595 0.929 . S
C2627 C2626 1.363 . S
C2627 C2628 1.385 . S
C2628 H2596 0.930 . S
C2628 C2627 1.385 . S
C2628 C2629 1.357 . S
C2629 C2628 1.357 . S
C2629 C2630 1.406 . S
C2630 H2597 0.929 . S
C2630 C2629 1.406 . S
C2630 C2631 1.391 . S
C2631 H2598 0.931 . S
C2631 C2626 1.370 . S
C2631 C2630 1.391 . S
C2632 N2606 1.435 . S
C2632 C2633 1.358 . S
C2632 C2637 1.371 . S
C2633 H2599 0.930 . S
C2633 C2632 1.358 . S
C2633 C2634 1.405 . S
C2634 H2600 0.932 . S
C2634 C2633 1.405 . S
C2634 C2635 1.383 . S
C2635 C2634 1.383 . S
C2635 C2636 1.393 . S
C2636 H2601 0.931 . S
C2636 C2635 1.393 . S
C2636 C2637 1.382 . S
C2637 H2602 0.929 . S
C2637 C2632 1.371 . S
C2637 C2636 1.382 . S
C2638 N2606 1.423 . S
C2638 C2639 1.362 . S
C2638 C2643 1.388 . S
C2639 H2603 0.929 . S
C2639 C2638 1.362 . S
C2639 C2640 1.376 . S
C2640 H2604 0.931 . S
C2640 C2639 1.376 . S
C2640 C2641 1.396 . S
C2641 C2623 1.472 . S
C2641 C2640 1.396 . S
C2641 C2642 1.348 . S
C2642 H2605 0.929 . S
C2642 C2641 1.348 . S
C2642 C2643 1.443 . S
C2643 H2607 0.932 . S
C2643 C2638 1.388 . S
C2643 C2642 1.443 . S
H2644 C2671 0.929 . S
N2645 C2670 1.433 . S
N2645 C2676 1.435 . S
N2645 C2682 1.423 . S
H2646 C2672 0.930 . S
H2647 C2675 0.931 . S
H2648 C2674 0.929 . S
H2649 C2677 0.930 . S
H2650 C2678 0.932 . S
H2651 C2681 0.929 . S
H2652 C2680 0.931 . S
H2653 C2683 0.929 . S
H2654 C2687 0.932 . S
H2655 C2684 0.931 . S
H2656 C2686 0.929 . S
H2657 C2689 0.929 . S
H2658 C2690 0.930 . S
H2659 C2692 0.929 . S
H2660 C2693 0.931 . S
H2661 C2695 0.930 . S
H2662 C2696 0.932 . S
H2663 C2698 0.931 . S
H2664 C2699 0.929 . S
H2665 C2701 0.929 . S
H2666 C2702 0.931 . S
H2667 C2704 0.929 . S
N2668 C2688 1.433 . S
N2668 C2694 1.435 . S
N2668 C2700 1.423 . S
H2669 C2705 0.932 . S
C2670 N2645 1.433 . S
C2670 C2671 1.363 . S
C2670 C2675 1.370 . S
C2671 H2644 0.929 . S
C2671 C2670 1.363 . S
C2671 C2672 1.385 . S
C2672 H2646 0.930 . S
C2672 C2671 1.385 . S
C2672 C2673 1.357 . S
C2673 C2672 1.357 . S
C2673 C2674 1.406 . S
C2674 H2648 0.929 . S
C2674 C2673 1.406 . S
C2674 C2675 1.391 . S
C2675 H2647 0.931 . S
C2675 C2670 1.370 . S
C2675 C2674 1.391 . S
C2676 N2645 1.435 . S
C2676 C2677 1.358 . S
C2676 C2681 1.371 . S
C2677 H2649 0.930 . S
C2677 C2676 1.358 . S
C2677 C2678 1.405 . S
C2678 H2650 0.932 . S
C2678 C2677 1.405 . S
C2678 C2679 1.383 . S
C2679 C2678 1.383 . S
C2679 C2680 1.393 . S
C2680 H2652 0.931 . S
C2680 C2679 1.393 . S
C2680 C2681 1.382 . S
C2681 H2651 0.929 . S
C2681 C2676 1.371 . S
C2681 C2680 1.382 . S
C2682 N2645 1.423 . S
C2682 C2683 1.362 . S
C2682 C2687 1.388 . S
C2683 H2653 0.929 . S
C2683 C2682 1.362 . S
C2683 C2684 1.376 . S
C2684 H2655 0.931 . S
C2684 C2683 1.376 . S
C2684 C2685 1.396 . S
C2685 C2684 1.396 . S
C2685 C2686 1.348 . S
C2685 C2703 1.472 . S
C2686 H2656 0.929 . S
C2686 C2685 1.348 . S
C2686 C2687 1.443 . S
C2687 H2654 0.932 . S
C2687 C2682 1.388 . S
C2687 C2686 1.443 . S
C2688 N2668 1.433 . S
C2688 C2689 1.363 . S
C2688 C2693 1.370 . S
C2689 H2657 0.929 . S
C2689 C2688 1.363 . S
C2689 C2690 1.385 . S
C2690 H2658 0.930 . S
C2690 C2689 1.385 . S
C2690 C2691 1.357 . S
C2691 C2690 1.357 . S
C2691 C2692 1.406 . S
C2692 H2659 0.929 . S
C2692 C2691 1.406 . S
C2692 C2693 1.391 . S
C2693 H2660 0.931 . S
C2693 C2688 1.370 . S
C2693 C2692 1.391 . S
C2694 N2668 1.435 . S
C2694 C2695 1.358 . S
C2694 C2699 1.371 . S
C2695 H2661 0.930 . S
C2695 C2694 1.358 . S
C2695 C2696 1.405 . S
C2696 H2662 0.932 . S
C2696 C2695 1.405 . S
C2696 C2697 1.383 . S
C2697 C2696 1.383 . S
C2697 C2698 1.393 . S
C2698 H2663 0.931 . S
C2698 C2697 1.393 . S
C2698 C2699 1.382 . S
C2699 H2664 0.929 . S
C2699 C2694 1.371 . S
C2699 C2698 1.382 . S
C2700 N2668 1.423 . S
C2700 C2701 1.362 . S
C2700 C2705 1.388 . S
C2701 H2665 0.929 . S
C2701 C2700 1.362 . S
C2701 C2702 1.376 . S
C2702 H2666 0.931 . S
C2702 C2701 1.376 . S
C2702 C2703 1.396 . S
C2703 C2685 1.472 . S
C2703 C2702 1.396 . S
C2703 C2704 1.348 . S
C2704 H2667 0.929 . S
C2704 C2703 1.348 . S
C2704 C2705 1.443 . S
C2705 H2669 0.932 . S
C2705 C2700 1.388 . S
C2705 C2704 1.443 . S
H2706 C2733 0.929 . S
N2707 C2732 1.433 . S
N2707 C2738 1.435 . S
N2707 C2744 1.423 . S
H2708 C2734 0.930 . S
H2709 C2737 0.931 . S
H2710 C2736 0.929 . S
H2711 C2739 0.930 . S
H2712 C2740 0.932 . S
H2713 C2743 0.929 . S
H2714 C2742 0.931 . S
H2715 C2745 0.929 . S
H2716 C2749 0.932 . S
H2717 C2746 0.931 . S
H2718 C2748 0.929 . S
H2719 C2751 0.929 . S
H2720 C2752 0.930 . S
H2721 C2754 0.929 . S
H2722 C2755 0.931 . S
H2723 C2757 0.930 . S
H2724 C2758 0.932 . S
H2725 C2760 0.931 . S
H2726 C2761 0.929 . S
H2727 C2763 0.929 . S
H2728 C2764 0.931 . S
H2729 C2766 0.929 . S
N2730 C2750 1.433 . S
N2730 C2756 1.435 . S
N2730 C2762 1.423 . S
H2731 C2767 0.932 . S
C2732 N2707 1.433 . S
C2732 C2733 1.363 . S
C2732 C2737 1.370 . S
C2733 H2706 0.929 . S
C2733 C2732 1.363 . S
C2733 C2734 1.385 . S
C2734 H2708 0.930 . S
C2734 C2733 1.385 . S
C2734 C2735 1.357 . S
C2735 C2734 1.357 . S
C2735 C2736 1.406 . S
C2736 H2710 0.929 . S
C2736 C2735 1.406 . S
C2736 C2737 1.391 . S
C2737 H2709 0.931 . S
C2737 C2732 1.370 . S
C2737 C2736 1.391 . S
C2738 N2707 1.435 . S
C2738 C2739 1.358 . S
C2738 C2743 1.371 . S
C2739 H2711 0.930 . S
C2739 C2738 1.358 . S
C2739 C2740 1.405 . S
C2740 H2712 0.932 . S
C2740 C2739 1.405 . S
C2740 C2741 1.383 . S
C2741 C2740 1.383 . S
C2741 C2742 1.393 . S
C2742 H2714 0.931 . S
C2742 C2741 1.393 . S
C2742 C2743 1.382 . S
C2743 H2713 0.929 . S
C2743 C2738 1.371 . S
C2743 C2742 1.382 . S
C2744 N2707 1.423 . S
C2744 C2745 1.362 . S
C2744 C2749 1.388 . S
C2745 H2715 0.929 . S
C2745 C2744 1.362 . S
C2745 C2746 1.376 . S
C2746 H2717 0.931 . S
C2746 C2745 1.376 . S
C2746 C2747 1.396 . S
C2747 C2746 1.396 . S
C2747 C2748 1.348 . S
C2747 C2765 1.472 . S
C2748 H2718 0.929 . S
C2748 C2747 1.348 . S
C2748 C2749 1.443 . S
C2749 H2716 0.932 . S
C2749 C2744 1.388 . S
C2749 C2748 1.443 . S
C2750 N2730 1.433 . S
C2750 C2751 1.363 . S
C2750 C2755 1.370 . S
C2751 H2719 0.929 . S
C2751 C2750 1.363 . S
C2751 C2752 1.385 . S
C2752 H2720 0.930 . S
C2752 C2751 1.385 . S
C2752 C2753 1.357 . S
C2753 C2752 1.357 . S
C2753 C2754 1.406 . S
C2754 H2721 0.929 . S
C2754 C2753 1.406 . S
C2754 C2755 1.391 . S
C2755 H2722 0.931 . S
C2755 C2750 1.370 . S
C2755 C2754 1.391 . S
C2756 N2730 1.435 . S
C2756 C2757 1.358 . S
C2756 C2761 1.371 . S
C2757 H2723 0.930 . S
C2757 C2756 1.358 . S
C2757 C2758 1.405 . S
C2758 H2724 0.932 . S
C2758 C2757 1.405 . S
C2758 C2759 1.383 . S
C2759 C2758 1.383 . S
C2759 C2760 1.393 . S
C2760 H2725 0.931 . S
C2760 C2759 1.393 . S
C2760 C2761 1.382 . S
C2761 H2726 0.929 . S
C2761 C2756 1.371 . S
C2761 C2760 1.382 . S
C2762 N2730 1.423 . S
C2762 C2763 1.362 . S
C2762 C2767 1.388 . S
C2763 H2727 0.929 . S
C2763 C2762 1.362 . S
C2763 C2764 1.376 . S
C2764 H2728 0.931 . S
C2764 C2763 1.376 . S
C2764 C2765 1.396 . S
C2765 C2747 1.472 . S
C2765 C2764 1.396 . S
C2765 C2766 1.348 . S
C2766 H2729 0.929 . S
C2766 C2765 1.348 . S
C2766 C2767 1.443 . S
C2767 H2731 0.932 . S
C2767 C2762 1.388 . S
C2767 C2766 1.443 . S
H2768 C2776 0.950 . S
H2769 C2781 0.950 . S
H2770 C2778 0.950 . S
H2771 C2780 0.950 . S
H2772 C2782 0.950 . S
H2773 C2784 0.950 . S
H2774 C2786 0.950 . S
H2775 C2787 0.950 . S
C2776 H2768 0.950 . S
C2776 C2777 1.386 . S
C2776 C2778 1.391 . S
C2777 C2776 1.386 . S
C2777 C2781 1.393 . S
C2778 H2770 0.950 . S
C2778 C2776 1.391 . S
C2778 C2779 1.400 . S
C2779 C2778 1.400 . S
C2779 C2780 1.398 . S
C2779 C2785 1.491 . S
C2780 H2771 0.950 . S
C2780 C2779 1.398 . S
C2780 C2781 1.391 . S
C2781 H2769 0.950 . S
C2781 C2777 1.393 . S
C2781 C2780 1.391 . S
C2782 H2772 0.950 . S
C2782 C2783 1.386 . S
C2782 C2784 1.391 . S
C2783 C2782 1.386 . S
C2783 C2787 1.393 . S
C2784 H2773 0.950 . S
C2784 C2782 1.391 . S
C2784 C2785 1.400 . S
C2785 C2779 1.491 . S
C2785 C2784 1.400 . S
C2785 C2786 1.398 . S
C2786 H2774 0.950 . S
C2786 C2785 1.398 . S
C2786 C2787 1.391 . S
C2787 H2775 0.950 . S
C2787 C2783 1.393 . S
C2787 C2786 1.391 . S
H2788 C2796 0.950 . S
H2789 C2801 0.950 . S
H2790 C2798 0.950 . S
H2791 C2800 0.950 . S
H2792 C2802 0.950 . S
H2793 C2804 0.950 . S
H2794 C2806 0.950 . S
H2795 C2807 0.950 . S
C2796 H2788 0.950 . S
C2796 C2797 1.386 . S
C2796 C2798 1.391 . S
C2797 C2796 1.386 . S
C2797 C2801 1.393 . S
C2798 H2790 0.950 . S
C2798 C2796 1.391 . S
C2798 C2799 1.400 . S
C2799 C2798 1.400 . S
C2799 C2800 1.398 . S
C2799 C2805 1.491 . S
C2800 H2791 0.950 . S
C2800 C2799 1.398 . S
C2800 C2801 1.391 . S
C2801 H2789 0.950 . S
C2801 C2797 1.393 . S
C2801 C2800 1.391 . S
C2802 H2792 0.950 . S
C2802 C2803 1.386 . S
C2802 C2804 1.391 . S
C2803 C2802 1.386 . S
C2803 C2807 1.393 . S
C2804 H2793 0.950 . S
C2804 C2802 1.391 . S
C2804 C2805 1.400 . S
C2805 C2799 1.491 . S
C2805 C2804 1.400 . S
C2805 C2806 1.398 . S
C2806 H2794 0.950 . S
C2806 C2805 1.398 . S
C2806 C2807 1.391 . S
C2807 H2795 0.950 . S
C2807 C2803 1.393 . S
C2807 C2806 1.391 . S
H2808 C2816 0.950 . S
H2809 C2821 0.950 . S
H2810 C2818 0.950 . S
H2811 C2820 0.950 . S
H2812 C2822 0.950 . S
H2813 C2824 0.950 . S
H2814 C2826 0.950 . S
H2815 C2827 0.950 . S
C2816 H2808 0.950 . S
C2816 C2817 1.386 . S
C2816 C2818 1.391 . S
C2817 C2816 1.386 . S
C2817 C2821 1.393 . S
C2818 H2810 0.950 . S
C2818 C2816 1.391 . S
C2818 C2819 1.400 . S
C2819 C2818 1.400 . S
C2819 C2820 1.398 . S
C2819 C2825 1.491 . S
C2820 H2811 0.950 . S
C2820 C2819 1.398 . S
C2820 C2821 1.391 . S
C2821 H2809 0.950 . S
C2821 C2817 1.393 . S
C2821 C2820 1.391 . S
C2822 H2812 0.950 . S
C2822 C2823 1.386 . S
C2822 C2824 1.391 . S
C2823 C2822 1.386 . S
C2823 C2827 1.393 . S
C2824 H2813 0.950 . S
C2824 C2822 1.391 . S
C2824 C2825 1.400 . S
C2825 C2819 1.491 . S
C2825 C2824 1.400 . S
C2825 C2826 1.398 . S
C2826 H2814 0.950 . S
C2826 C2825 1.398 . S
C2826 C2827 1.391 . S
C2827 H2815 0.950 . S
C2827 C2823 1.393 . S
C2827 C2826 1.391 . S
H2828 C2836 0.950 . S
H2829 C2841 0.950 . S
H2830 C2838 0.950 . S
H2831 C2840 0.950 . S
H2832 C2842 0.950 . S
H2833 C2844 0.950 . S
H2834 C2846 0.950 . S
H2835 C2847 0.950 . S
C2836 H2828 0.950 . S
C2836 C2837 1.386 . S
C2836 C2838 1.391 . S
C2837 C2836 1.386 . S
C2837 C2841 1.393 . S
C2838 H2830 0.950 . S
C2838 C2836 1.391 . S
C2838 C2839 1.400 . S
C2839 C2838 1.400 . S
C2839 C2840 1.398 . S
C2839 C2845 1.491 . S
C2840 H2831 0.950 . S
C2840 C2839 1.398 . S
C2840 C2841 1.391 . S
C2841 H2829 0.950 . S
C2841 C2837 1.393 . S
C2841 C2840 1.391 . S
C2842 H2832 0.950 . S
C2842 C2843 1.386 . S
C2842 C2844 1.391 . S
C2843 C2842 1.386 . S
C2843 C2847 1.393 . S
C2844 H2833 0.950 . S
C2844 C2842 1.391 . S
C2844 C2845 1.400 . S
C2845 C2839 1.491 . S
C2845 C2844 1.400 . S
C2845 C2846 1.398 . S
C2846 H2834 0.950 . S
C2846 C2845 1.398 . S
C2846 C2847 1.391 . S
C2847 H2835 0.950 . S
C2847 C2843 1.393 . S
C2847 C2846 1.391 . S
H2848 C2856 0.950 . S
H2849 C2861 0.950 . S
H2850 C2858 0.950 . S
H2851 C2860 0.950 . S
H2852 C2862 0.950 . S
H2853 C2864 0.950 . S
H2854 C2866 0.950 . S
H2855 C2867 0.950 . S
C2856 H2848 0.950 . S
C2856 C2857 1.386 . S
C2856 C2858 1.391 . S
C2857 C2856 1.386 . S
C2857 C2861 1.393 . S
C2858 H2850 0.950 . S
C2858 C2856 1.391 . S
C2858 C2859 1.400 . S
C2859 C2858 1.400 . S
C2859 C2860 1.398 . S
C2859 C2865 1.491 . S
C2860 H2851 0.950 . S
C2860 C2859 1.398 . S
C2860 C2861 1.391 . S
C2861 H2849 0.950 . S
C2861 C2857 1.393 . S
C2861 C2860 1.391 . S
C2862 H2852 0.950 . S
C2862 C2863 1.386 . S
C2862 C2864 1.391 . S
C2863 C2862 1.386 . S
C2863 C2867 1.393 . S
C2864 H2853 0.950 . S
C2864 C2862 1.391 . S
C2864 C2865 1.400 . S
C2865 C2859 1.491 . S
C2865 C2864 1.400 . S
C2865 C2866 1.398 . S
C2866 H2854 0.950 . S
C2866 C2865 1.398 . S
C2866 C2867 1.391 . S
C2867 H2855 0.950 . S
C2867 C2863 1.393 . S
C2867 C2866 1.391 . S
H2868 C2876 0.950 . S
H2869 C2881 0.950 . S
H2870 C2878 0.950 . S
H2871 C2880 0.950 . S
H2872 C2882 0.950 . S
H2873 C2884 0.950 . S
H2874 C2886 0.950 . S
H2875 C2887 0.950 . S
C2876 H2868 0.950 . S
C2876 C2877 1.386 . S
C2876 C2878 1.391 . S
C2877 C2876 1.386 . S
C2877 C2881 1.393 . S
C2878 H2870 0.950 . S
C2878 C2876 1.391 . S
C2878 C2879 1.400 . S
C2879 C2878 1.400 . S
C2879 C2880 1.398 . S
C2879 C2885 1.491 . S
C2880 H2871 0.950 . S
C2880 C2879 1.398 . S
C2880 C2881 1.391 . S
C2881 H2869 0.950 . S
C2881 C2877 1.393 . S
C2881 C2880 1.391 . S
C2882 H2872 0.950 . S
C2882 C2883 1.386 . S
C2882 C2884 1.391 . S
C2883 C2882 1.386 . S
C2883 C2887 1.393 . S
C2884 H2873 0.950 . S
C2884 C2882 1.391 . S
C2884 C2885 1.400 . S
C2885 C2879 1.491 . S
C2885 C2884 1.400 . S
C2885 C2886 1.398 . S
C2886 H2874 0.950 . S
C2886 C2885 1.398 . S
C2886 C2887 1.391 . S
C2887 H2875 0.950 . S
C2887 C2883 1.393 . S
C2887 C2886 1.391 . S
H2888 C2896 0.950 . S
H2889 C2901 0.950 . S
H2890 C2898 0.950 . S
H2891 C2900 0.950 . S
H2892 C2902 0.950 . S
H2893 C2904 0.950 . S
H2894 C2906 0.950 . S
H2895 C2907 0.950 . S
C2896 H2888 0.950 . S
C2896 C2897 1.386 . S
C2896 C2898 1.391 . S
C2897 C2896 1.386 . S
C2897 C2901 1.393 . S
C2898 H2890 0.950 . S
C2898 C2896 1.391 . S
C2898 C2899 1.400 . S
C2899 C2898 1.400 . S
C2899 C2900 1.398 . S
C2899 C2905 1.491 . S
C2900 H2891 0.950 . S
C2900 C2899 1.398 . S
C2900 C2901 1.391 . S
C2901 H2889 0.950 . S
C2901 C2897 1.393 . S
C2901 C2900 1.391 . S
C2902 H2892 0.950 . S
C2902 C2903 1.386 . S
C2902 C2904 1.391 . S
C2903 C2902 1.386 . S
C2903 C2907 1.393 . S
C2904 H2893 0.950 . S
C2904 C2902 1.391 . S
C2904 C2905 1.400 . S
C2905 C2899 1.491 . S
C2905 C2904 1.400 . S
C2905 C2906 1.398 . S
C2906 H2894 0.950 . S
C2906 C2905 1.398 . S
C2906 C2907 1.391 . S
C2907 H2895 0.950 . S
C2907 C2903 1.393 . S
C2907 C2906 1.391 . S
H2908 C2916 0.950 . S
H2909 C2921 0.950 . S
H2910 C2918 0.950 . S
H2911 C2920 0.950 . S
H2912 C2922 0.950 . S
H2913 C2924 0.950 . S
H2914 C2926 0.950 . S
H2915 C2927 0.950 . S
C2916 H2908 0.950 . S
C2916 C2917 1.386 . S
C2916 C2918 1.391 . S
C2917 C2916 1.386 . S
C2917 C2921 1.393 . S
C2918 H2910 0.950 . S
C2918 C2916 1.391 . S
C2918 C2919 1.400 . S
C2919 C2918 1.400 . S
C2919 C2920 1.398 . S
C2919 C2925 1.491 . S
C2920 H2911 0.950 . S
C2920 C2919 1.398 . S
C2920 C2921 1.391 . S
C2921 H2909 0.950 . S
C2921 C2917 1.393 . S
C2921 C2920 1.391 . S
C2922 H2912 0.950 . S
C2922 C2923 1.386 . S
C2922 C2924 1.391 . S
C2923 C2922 1.386 . S
C2923 C2927 1.393 . S
C2924 H2913 0.950 . S
C2924 C2922 1.391 . S
C2924 C2925 1.400 . S
C2925 C2919 1.491 . S
C2925 C2924 1.400 . S
C2925 C2926 1.398 . S
C2926 H2914 0.950 . S
C2926 C2925 1.398 . S
C2926 C2927 1.391 . S
C2927 H2915 0.950 . S
C2927 C2923 1.393 . S
C2927 C2926 1.391 . S
H2928 C2936 0.950 . S
H2929 C2941 0.950 . S
H2930 C2938 0.950 . S
H2931 C2940 0.950 . S
H2932 C2942 0.950 . S
H2933 C2944 0.950 . S
H2934 C2946 0.950 . S
H2935 C2947 0.950 . S
C2936 H2928 0.950 . S
C2936 C2937 1.386 . S
C2936 C2938 1.391 . S
C2937 C2936 1.386 . S
C2937 C2941 1.393 . S
C2938 H2930 0.950 . S
C2938 C2936 1.391 . S
C2938 C2939 1.400 . S
C2939 C2938 1.400 . S
C2939 C2940 1.398 . S
C2939 C2945 1.491 . S
C2940 H2931 0.950 . S
C2940 C2939 1.398 . S
C2940 C2941 1.391 . S
C2941 H2929 0.950 . S
C2941 C2937 1.393 . S
C2941 C2940 1.391 . S
C2942 H2932 0.950 . S
C2942 C2943 1.386 . S
C2942 C2944 1.391 . S
C2943 C2942 1.386 . S
C2943 C2947 1.393 . S
C2944 H2933 0.950 . S
C2944 C2942 1.391 . S
C2944 C2945 1.400 . S
C2945 C2939 1.491 . S
C2945 C2944 1.400 . S
C2945 C2946 1.398 . S
C2946 H2934 0.950 . S
C2946 C2945 1.398 . S
C2946 C2947 1.391 . S
C2947 H2935 0.950 . S
C2947 C2943 1.393 . S
C2947 C2946 1.391 . S
H2948 C2956 0.950 . S
H2949 C2961 0.950 . S
H2950 C2958 0.950 . S
H2951 C2960 0.950 . S
H2952 C2962 0.950 . S
H2953 C2964 0.950 . S
H2954 C2966 0.950 . S
H2955 C2967 0.950 . S
C2956 H2948 0.950 . S
C2956 C2957 1.386 . S
C2956 C2958 1.391 . S
C2957 C2956 1.386 . S
C2957 C2961 1.393 . S
C2958 H2950 0.950 . S
C2958 C2956 1.391 . S
C2958 C2959 1.400 . S
C2959 C2958 1.400 . S
C2959 C2960 1.398 . S
C2959 C2965 1.491 . S
C2960 H2951 0.950 . S
C2960 C2959 1.398 . S
C2960 C2961 1.391 . S
C2961 H2949 0.950 . S
C2961 C2957 1.393 . S
C2961 C2960 1.391 . S
C2962 H2952 0.950 . S
C2962 C2963 1.386 . S
C2962 C2964 1.391 . S
C2963 C2962 1.386 . S
C2963 C2967 1.393 . S
C2964 H2953 0.950 . S
C2964 C2962 1.391 . S
C2964 C2965 1.400 . S
C2965 C2959 1.491 . S
C2965 C2964 1.400 . S
C2965 C2966 1.398 . S
C2966 H2954 0.950 . S
C2966 C2965 1.398 . S
C2966 C2967 1.391 . S
C2967 H2955 0.950 . S
C2967 C2963 1.393 . S
C2967 C2966 1.391 . S
H2968 C2976 0.950 . S
H2969 C2981 0.950 . S
H2970 C2978 0.950 . S
H2971 C2980 0.950 . S
H2972 C2982 0.950 . S
H2973 C2984 0.950 . S
H2974 C2986 0.950 . S
H2975 C2987 0.950 . S
C2976 H2968 0.950 . S
C2976 C2977 1.386 . S
C2976 C2978 1.391 . S
C2977 C2976 1.386 . S
C2977 C2981 1.393 . S
C2978 H2970 0.950 . S
C2978 C2976 1.391 . S
C2978 C2979 1.400 . S
C2979 C2978 1.400 . S
C2979 C2980 1.398 . S
C2979 C2985 1.491 . S
C2980 H2971 0.950 . S
C2980 C2979 1.398 . S
C2980 C2981 1.391 . S
C2981 H2969 0.950 . S
C2981 C2977 1.393 . S
C2981 C2980 1.391 . S
C2982 H2972 0.950 . S
C2982 C2983 1.386 . S
C2982 C2984 1.391 . S
C2983 C2982 1.386 . S
C2983 C2987 1.393 . S
C2984 H2973 0.950 . S
C2984 C2982 1.391 . S
C2984 C2985 1.400 . S
C2985 C2979 1.491 . S
C2985 C2984 1.400 . S
C2985 C2986 1.398 . S
C2986 H2974 0.950 . S
C2986 C2985 1.398 . S
C2986 C2987 1.391 . S
C2987 H2975 0.950 . S
C2987 C2983 1.393 . S
C2987 C2986 1.391 . S
H2988 C2996 0.950 . S
H2989 C3001 0.950 . S
H2990 C2998 0.950 . S
H2991 C3000 0.950 . S
H2992 C3002 0.950 . S
H2993 C3004 0.950 . S
H2994 C3006 0.950 . S
H2995 C3007 0.950 . S
C2996 H2988 0.950 . S
C2996 C2997 1.386 . S
C2996 C2998 1.391 . S
C2997 C2996 1.386 . S
C2997 C3001 1.393 . S
C2998 H2990 0.950 . S
C2998 C2996 1.391 . S
C2998 C2999 1.400 . S
C2999 C2998 1.400 . S
C2999 C3000 1.398 . S
C2999 C3005 1.491 . S
C3000 H2991 0.950 . S
C3000 C2999 1.398 . S
C3000 C3001 1.391 . S
C3001 H2989 0.950 . S
C3001 C2997 1.393 . S
C3001 C3000 1.391 . S
C3002 H2992 0.950 . S
C3002 C3003 1.386 . S
C3002 C3004 1.391 . S
C3003 C3002 1.386 . S
C3003 C3007 1.393 . S
C3004 H2993 0.950 . S
C3004 C3002 1.391 . S
C3004 C3005 1.400 . S
C3005 C2999 1.491 . S
C3005 C3004 1.400 . S
C3005 C3006 1.398 . S
C3006 H2994 0.950 . S
C3006 C3005 1.398 . S
C3006 C3007 1.391 . S
C3007 H2995 0.950 . S
C3007 C3003 1.393 . S
C3007 C3006 1.391 . S
H3008 C3016 0.950 . S
H3009 C3021 0.950 . S
H3010 C3018 0.950 . S
H3011 C3020 0.950 . S
H3012 C3022 0.950 . S
H3013 C3024 0.950 . S
H3014 C3026 0.950 . S
H3015 C3027 0.950 . S
C3016 H3008 0.950 . S
C3016 C3017 1.386 . S
C3016 C3018 1.391 . S
C3017 C3016 1.386 . S
C3017 C3021 1.393 . S
C3018 H3010 0.950 . S
C3018 C3016 1.391 . S
C3018 C3019 1.400 . S
C3019 C3018 1.400 . S
C3019 C3020 1.398 . S
C3019 C3025 1.491 . S
C3020 H3011 0.950 . S
C3020 C3019 1.398 . S
C3020 C3021 1.391 . S
C3021 H3009 0.950 . S
C3021 C3017 1.393 . S
C3021 C3020 1.391 . S
C3022 H3012 0.950 . S
C3022 C3023 1.386 . S
C3022 C3024 1.391 . S
C3023 C3022 1.386 . S
C3023 C3027 1.393 . S
C3024 H3013 0.950 . S
C3024 C3022 1.391 . S
C3024 C3025 1.400 . S
C3025 C3019 1.491 . S
C3025 C3024 1.400 . S
C3025 C3026 1.398 . S
C3026 H3014 0.950 . S
C3026 C3025 1.398 . S
C3026 C3027 1.391 . S
C3027 H3015 0.950 . S
C3027 C3023 1.393 . S
C3027 C3026 1.391 . S
H3028 C3036 0.950 . S
H3029 C3041 0.950 . S
H3030 C3038 0.950 . S
H3031 C3040 0.950 . S
H3032 C3042 0.950 . S
H3033 C3044 0.950 . S
H3034 C3046 0.950 . S
H3035 C3047 0.950 . S
C3036 H3028 0.950 . S
C3036 C3037 1.386 . S
C3036 C3038 1.391 . S
C3037 C3036 1.386 . S
C3037 C3041 1.393 . S
C3038 H3030 0.950 . S
C3038 C3036 1.391 . S
C3038 C3039 1.400 . S
C3039 C3038 1.400 . S
C3039 C3040 1.398 . S
C3039 C3045 1.491 . S
C3040 H3031 0.950 . S
C3040 C3039 1.398 . S
C3040 C3041 1.391 . S
C3041 H3029 0.950 . S
C3041 C3037 1.393 . S
C3041 C3040 1.391 . S
C3042 H3032 0.950 . S
C3042 C3043 1.386 . S
C3042 C3044 1.391 . S
C3043 C3042 1.386 . S
C3043 C3047 1.393 . S
C3044 H3033 0.950 . S
C3044 C3042 1.391 . S
C3044 C3045 1.400 . S
C3045 C3039 1.491 . S
C3045 C3044 1.400 . S
C3045 C3046 1.398 . S
C3046 H3034 0.950 . S
C3046 C3045 1.398 . S
C3046 C3047 1.391 . S
C3047 H3035 0.950 . S
C3047 C3043 1.393 . S
C3047 C3046 1.391 . S
H3048 C3056 0.950 . S
H3049 C3061 0.950 . S
H3050 C3058 0.950 . S
H3051 C3060 0.950 . S
H3052 C3062 0.950 . S
H3053 C3064 0.950 . S
H3054 C3066 0.950 . S
H3055 C3067 0.950 . S
C3056 H3048 0.950 . S
C3056 C3057 1.386 . S
C3056 C3058 1.391 . S
C3057 C3056 1.386 . S
C3057 C3061 1.393 . S
C3058 H3050 0.950 . S
C3058 C3056 1.391 . S
C3058 C3059 1.400 . S
C3059 C3058 1.400 . S
C3059 C3060 1.398 . S
C3059 C3065 1.491 . S
C3060 H3051 0.950 . S
C3060 C3059 1.398 . S
C3060 C3061 1.391 . S
C3061 H3049 0.950 . S
C3061 C3057 1.393 . S
C3061 C3060 1.391 . S
C3062 H3052 0.950 . S
C3062 C3063 1.386 . S
C3062 C3064 1.391 . S
C3063 C3062 1.386 . S
C3063 C3067 1.393 . S
C3064 H3053 0.950 . S
C3064 C3062 1.391 . S
C3064 C3065 1.400 . S
C3065 C3059 1.491 . S
C3065 C3064 1.400 . S
C3065 C3066 1.398 . S
C3066 H3054 0.950 . S
C3066 C3065 1.398 . S
C3066 C3067 1.391 . S
C3067 H3055 0.950 . S
C3067 C3063 1.393 . S
C3067 C3066 1.391 . S
H3068 C3076 0.950 . S
H3069 C3081 0.950 . S
H3070 C3078 0.950 . S
H3071 C3080 0.950 . S
H3072 C3082 0.950 . S
H3073 C3084 0.950 . S
H3074 C3086 0.950 . S
H3075 C3087 0.950 . S
C3076 H3068 0.950 . S
C3076 C3077 1.386 . S
C3076 C3078 1.391 . S
C3077 C3076 1.386 . S
C3077 C3081 1.393 . S
C3078 H3070 0.950 . S
C3078 C3076 1.391 . S
C3078 C3079 1.400 . S
C3079 C3078 1.400 . S
C3079 C3080 1.398 . S
C3079 C3085 1.491 . S
C3080 H3071 0.950 . S
C3080 C3079 1.398 . S
C3080 C3081 1.391 . S
C3081 H3069 0.950 . S
C3081 C3077 1.393 . S
C3081 C3080 1.391 . S
C3082 H3072 0.950 . S
C3082 C3083 1.386 . S
C3082 C3084 1.391 . S
C3083 C3082 1.386 . S
C3083 C3087 1.393 . S
C3084 H3073 0.950 . S
C3084 C3082 1.391 . S
C3084 C3085 1.400 . S
C3085 C3079 1.491 . S
C3085 C3084 1.400 . S
C3085 C3086 1.398 . S
C3086 H3074 0.950 . S
C3086 C3085 1.398 . S
C3086 C3087 1.391 . S
C3087 H3075 0.950 . S
C3087 C3083 1.393 . S
C3087 C3086 1.391 . S
H3088 C3096 0.950 . S
H3089 C3101 0.950 . S
H3090 C3098 0.950 . S
H3091 C3100 0.950 . S
H3092 C3102 0.950 . S
H3093 C3104 0.950 . S
H3094 C3106 0.950 . S
H3095 C3107 0.950 . S
C3096 H3088 0.950 . S
C3096 C3097 1.386 . S
C3096 C3098 1.391 . S
C3097 C3096 1.386 . S
C3097 C3101 1.393 . S
C3098 H3090 0.950 . S
C3098 C3096 1.391 . S
C3098 C3099 1.400 . S
C3099 C3098 1.400 . S
C3099 C3100 1.398 . S
C3099 C3105 1.491 . S
C3100 H3091 0.950 . S
C3100 C3099 1.398 . S
C3100 C3101 1.391 . S
C3101 H3089 0.950 . S
C3101 C3097 1.393 . S
C3101 C3100 1.391 . S
C3102 H3092 0.950 . S
C3102 C3103 1.386 . S
C3102 C3104 1.391 . S
C3103 C3102 1.386 . S
C3103 C3107 1.393 . S
C3104 H3093 0.950 . S
C3104 C3102 1.391 . S
C3104 C3105 1.400 . S
C3105 C3099 1.491 . S
C3105 C3104 1.400 . S
C3105 C3106 1.398 . S
C3106 H3094 0.950 . S
C3106 C3105 1.398 . S
C3106 C3107 1.391 . S
C3107 H3095 0.950 . S
C3107 C3103 1.393 . S
C3107 C3106 1.391 . S
H3108 C3116 0.950 . S
H3109 C3121 0.950 . S
H3110 C3118 0.950 . S
H3111 C3120 0.950 . S
H3112 C3122 0.950 . S
H3113 C3124 0.950 . S
H3114 C3126 0.950 . S
H3115 C3127 0.950 . S
C3116 H3108 0.950 . S
C3116 C3117 1.386 . S
C3116 C3118 1.391 . S
C3117 C3116 1.386 . S
C3117 C3121 1.393 . S
C3118 H3110 0.950 . S
C3118 C3116 1.391 . S
C3118 C3119 1.400 . S
C3119 C3118 1.400 . S
C3119 C3120 1.398 . S
C3119 C3125 1.491 . S
C3120 H3111 0.950 . S
C3120 C3119 1.398 . S
C3120 C3121 1.391 . S
C3121 H3109 0.950 . S
C3121 C3117 1.393 . S
C3121 C3120 1.391 . S
C3122 H3112 0.950 . S
C3122 C3123 1.386 . S
C3122 C3124 1.391 . S
C3123 C3122 1.386 . S
C3123 C3127 1.393 . S
C3124 H3113 0.950 . S
C3124 C3122 1.391 . S
C3124 C3125 1.400 . S
C3125 C3119 1.491 . S
C3125 C3124 1.400 . S
C3125 C3126 1.398 . S
C3126 H3114 0.950 . S
C3126 C3125 1.398 . S
C3126 C3127 1.391 . S
C3127 H3115 0.950 . S
C3127 C3123 1.393 . S
C3127 C3126 1.391 . S
H3128 C3136 0.950 . S
H3129 C3141 0.950 . S
H3130 C3138 0.950 . S
H3131 C3140 0.950 . S
H3132 C3142 0.950 . S
H3133 C3144 0.950 . S
H3134 C3146 0.950 . S
H3135 C3147 0.950 . S
C3136 H3128 0.950 . S
C3136 C3137 1.386 . S
C3136 C3138 1.391 . S
C3137 C3136 1.386 . S
C3137 C3141 1.393 . S
C3138 H3130 0.950 . S
C3138 C3136 1.391 . S
C3138 C3139 1.400 . S
C3139 C3138 1.400 . S
C3139 C3140 1.398 . S
C3139 C3145 1.491 . S
C3140 H3131 0.950 . S
C3140 C3139 1.398 . S
C3140 C3141 1.391 . S
C3141 H3129 0.950 . S
C3141 C3137 1.393 . S
C3141 C3140 1.391 . S
C3142 H3132 0.950 . S
C3142 C3143 1.386 . S
C3142 C3144 1.391 . S
C3143 C3142 1.386 . S
C3143 C3147 1.393 . S
C3144 H3133 0.950 . S
C3144 C3142 1.391 . S
C3144 C3145 1.400 . S
C3145 C3139 1.491 . S
C3145 C3144 1.400 . S
C3145 C3146 1.398 . S
C3146 H3134 0.950 . S
C3146 C3145 1.398 . S
C3146 C3147 1.391 . S
C3147 H3135 0.950 . S
C3147 C3143 1.393 . S
C3147 C3146 1.391 . S
H3148 C3156 0.950 . S
H3149 C3161 0.950 . S
H3150 C3158 0.950 . S
H3151 C3160 0.950 . S
H3152 C3162 0.950 . S
H3153 C3164 0.950 . S
H3154 C3166 0.950 . S
H3155 C3167 0.950 . S
C3156 H3148 0.950 . S
C3156 C3157 1.386 . S
C3156 C3158 1.391 . S
C3157 C3156 1.386 . S
C3157 C3161 1.393 . S
C3158 H3150 0.950 . S
C3158 C3156 1.391 . S
C3158 C3159 1.400 . S
C3159 C3158 1.400 . S
C3159 C3160 1.398 . S
C3159 C3165 1.491 . S
C3160 H3151 0.950 . S
C3160 C3159 1.398 . S
C3160 C3161 1.391 . S
C3161 H3149 0.950 . S
C3161 C3157 1.393 . S
C3161 C3160 1.391 . S
C3162 H3152 0.950 . S
C3162 C3163 1.386 . S
C3162 C3164 1.391 . S
C3163 C3162 1.386 . S
C3163 C3167 1.393 . S
C3164 H3153 0.950 . S
C3164 C3162 1.391 . S
C3164 C3165 1.400 . S
C3165 C3159 1.491 . S
C3165 C3164 1.400 . S
C3165 C3166 1.398 . S
C3166 H3154 0.950 . S
C3166 C3165 1.398 . S
C3166 C3167 1.391 . S
C3167 H3155 0.950 . S
C3167 C3163 1.393 . S
C3167 C3166 1.391 . S
H3168 C3176 0.950 . S
H3169 C3181 0.950 . S
H3170 C3178 0.950 . S
H3171 C3180 0.950 . S
H3172 C3182 0.950 . S
H3173 C3184 0.950 . S
H3174 C3186 0.950 . S
H3175 C3187 0.950 . S
C3176 H3168 0.950 . S
C3176 C3177 1.386 . S
C3176 C3178 1.391 . S
C3177 C3176 1.386 . S
C3177 C3181 1.393 . S
C3178 H3170 0.950 . S
C3178 C3176 1.391 . S
C3178 C3179 1.400 . S
C3179 C3178 1.400 . S
C3179 C3180 1.398 . S
C3179 C3185 1.491 . S
C3180 H3171 0.950 . S
C3180 C3179 1.398 . S
C3180 C3181 1.391 . S
C3181 H3169 0.950 . S
C3181 C3177 1.393 . S
C3181 C3180 1.391 . S
C3182 H3172 0.950 . S
C3182 C3183 1.386 . S
C3182 C3184 1.391 . S
C3183 C3182 1.386 . S
C3183 C3187 1.393 . S
C3184 H3173 0.950 . S
C3184 C3182 1.391 . S
C3184 C3185 1.400 . S
C3185 C3179 1.491 . S
C3185 C3184 1.400 . S
C3185 C3186 1.398 . S
C3186 H3174 0.950 . S
C3186 C3185 1.398 . S
C3186 C3187 1.391 . S
C3187 H3175 0.950 . S
C3187 C3183 1.393 . S
C3187 C3186 1.391 . S
H3188 C3196 0.950 . S
H3189 C3201 0.950 . S
H3190 C3198 0.950 . S
H3191 C3200 0.950 . S
H3192 C3202 0.950 . S
H3193 C3204 0.950 . S
H3194 C3206 0.950 . S
H3195 C3207 0.950 . S
C3196 H3188 0.950 . S
C3196 C3197 1.386 . S
C3196 C3198 1.391 . S
C3197 C3196 1.386 . S
C3197 C3201 1.393 . S
C3198 H3190 0.950 . S
C3198 C3196 1.391 . S
C3198 C3199 1.400 . S
C3199 C3198 1.400 . S
C3199 C3200 1.398 . S
C3199 C3205 1.491 . S
C3200 H3191 0.950 . S
C3200 C3199 1.398 . S
C3200 C3201 1.391 . S
C3201 H3189 0.950 . S
C3201 C3197 1.393 . S
C3201 C3200 1.391 . S
C3202 H3192 0.950 . S
C3202 C3203 1.386 . S
C3202 C3204 1.391 . S
C3203 C3202 1.386 . S
C3203 C3207 1.393 . S
C3204 H3193 0.950 . S
C3204 C3202 1.391 . S
C3204 C3205 1.400 . S
C3205 C3199 1.491 . S
C3205 C3204 1.400 . S
C3205 C3206 1.398 . S
C3206 H3194 0.950 . S
C3206 C3205 1.398 . S
C3206 C3207 1.391 . S
C3207 H3195 0.950 . S
C3207 C3203 1.393 . S
C3207 C3206 1.391 . S
H3208 C3216 0.950 . S
H3209 C3221 0.950 . S
H3210 C3218 0.950 . S
H3211 C3220 0.950 . S
H3212 C3222 0.950 . S
H3213 C3224 0.950 . S
H3214 C3226 0.950 . S
H3215 C3227 0.950 . S
C3216 H3208 0.950 . S
C3216 C3217 1.386 . S
C3216 C3218 1.391 . S
C3217 C3216 1.386 . S
C3217 C3221 1.393 . S
C3218 H3210 0.950 . S
C3218 C3216 1.391 . S
C3218 C3219 1.400 . S
C3219 C3218 1.400 . S
C3219 C3220 1.398 . S
C3219 C3225 1.491 . S
C3220 H3211 0.950 . S
C3220 C3219 1.398 . S
C3220 C3221 1.391 . S
C3221 H3209 0.950 . S
C3221 C3217 1.393 . S
C3221 C3220 1.391 . S
C3222 H3212 0.950 . S
C3222 C3223 1.386 . S
C3222 C3224 1.391 . S
C3223 C3222 1.386 . S
C3223 C3227 1.393 . S
C3224 H3213 0.950 . S
C3224 C3222 1.391 . S
C3224 C3225 1.400 . S
C3225 C3219 1.491 . S
C3225 C3224 1.400 . S
C3225 C3226 1.398 . S
C3226 H3214 0.950 . S
C3226 C3225 1.398 . S
C3226 C3227 1.391 . S
C3227 H3215 0.950 . S
C3227 C3223 1.393 . S
C3227 C3226 1.391 . S
H3228 C3236 0.950 . S
H3229 C3241 0.950 . S
H3230 C3238 0.950 . S
H3231 C3240 0.950 . S
H3232 C3242 0.950 . S
H3233 C3244 0.950 . S
H3234 C3246 0.950 . S
H3235 C3247 0.950 . S
C3236 H3228 0.950 . S
C3236 C3237 1.386 . S
C3236 C3238 1.391 . S
C3237 C3236 1.386 . S
C3237 C3241 1.393 . S
C3238 H3230 0.950 . S
C3238 C3236 1.391 . S
C3238 C3239 1.400 . S
C3239 C3238 1.400 . S
C3239 C3240 1.398 . S
C3239 C3245 1.491 . S
C3240 H3231 0.950 . S
C3240 C3239 1.398 . S
C3240 C3241 1.391 . S
C3241 H3229 0.950 . S
C3241 C3237 1.393 . S
C3241 C3240 1.391 . S
C3242 H3232 0.950 . S
C3242 C3243 1.386 . S
C3242 C3244 1.391 . S
C3243 C3242 1.386 . S
C3243 C3247 1.393 . S
C3244 H3233 0.950 . S
C3244 C3242 1.391 . S
C3244 C3245 1.400 . S
C3245 C3239 1.491 . S
C3245 C3244 1.400 . S
C3245 C3246 1.398 . S
C3246 H3234 0.950 . S
C3246 C3245 1.398 . S
C3246 C3247 1.391 . S
C3247 H3235 0.950 . S
C3247 C3243 1.393 . S
C3247 C3246 1.391 . S
H3248 C3256 0.950 . S
H3249 C3261 0.950 . S
H3250 C3258 0.950 . S
H3251 C3260 0.950 . S
H3252 C3262 0.950 . S
H3253 C3264 0.950 . S
H3254 C3266 0.950 . S
H3255 C3267 0.950 . S
C3256 H3248 0.950 . S
C3256 C3257 1.386 . S
C3256 C3258 1.391 . S
C3257 C3256 1.386 . S
C3257 C3261 1.393 . S
C3258 H3250 0.950 . S
C3258 C3256 1.391 . S
C3258 C3259 1.400 . S
C3259 C3258 1.400 . S
C3259 C3260 1.398 . S
C3259 C3265 1.491 . S
C3260 H3251 0.950 . S
C3260 C3259 1.398 . S
C3260 C3261 1.391 . S
C3261 H3249 0.950 . S
C3261 C3257 1.393 . S
C3261 C3260 1.391 . S
C3262 H3252 0.950 . S
C3262 C3263 1.386 . S
C3262 C3264 1.391 . S
C3263 C3262 1.386 . S
C3263 C3267 1.393 . S
C3264 H3253 0.950 . S
C3264 C3262 1.391 . S
C3264 C3265 1.400 . S
C3265 C3259 1.491 . S
C3265 C3264 1.400 . S
C3265 C3266 1.398 . S
C3266 H3254 0.950 . S
C3266 C3265 1.398 . S
C3266 C3267 1.391 . S
C3267 H3255 0.950 . S
C3267 C3263 1.393 . S
C3267 C3266 1.391 . S
H3268 C3276 0.950 . S
H3269 C3281 0.950 . S
H3270 C3278 0.950 . S
H3271 C3280 0.950 . S
H3272 C3282 0.950 . S
H3273 C3284 0.950 . S
H3274 C3286 0.950 . S
H3275 C3287 0.950 . S
C3276 H3268 0.950 . S
C3276 C3277 1.386 . S
C3276 C3278 1.391 . S
C3277 C3276 1.386 . S
C3277 C3281 1.393 . S
C3278 H3270 0.950 . S
C3278 C3276 1.391 . S
C3278 C3279 1.400 . S
C3279 C3278 1.400 . S
C3279 C3280 1.398 . S
C3279 C3285 1.491 . S
C3280 H3271 0.950 . S
C3280 C3279 1.398 . S
C3280 C3281 1.391 . S
C3281 H3269 0.950 . S
C3281 C3277 1.393 . S
C3281 C3280 1.391 . S
C3282 H3272 0.950 . S
C3282 C3283 1.386 . S
C3282 C3284 1.391 . S
C3283 C3282 1.386 . S
C3283 C3287 1.393 . S
C3284 H3273 0.950 . S
C3284 C3282 1.391 . S
C3284 C3285 1.400 . S
C3285 C3279 1.491 . S
C3285 C3284 1.400 . S
C3285 C3286 1.398 . S
C3286 H3274 0.950 . S
C3286 C3285 1.398 . S
C3286 C3287 1.391 . S
C3287 H3275 0.950 . S
C3287 C3283 1.393 . S
C3287 C3286 1.391 . S
H3288 C3296 0.950 . S
H3289 C3301 0.950 . S
H3290 C3298 0.950 . S
H3291 C3300 0.950 . S
H3292 C3302 0.950 . S
H3293 C3304 0.950 . S
H3294 C3306 0.950 . S
H3295 C3307 0.950 . S
C3296 H3288 0.950 . S
C3296 C3297 1.386 . S
C3296 C3298 1.391 . S
C3297 C3296 1.386 . S
C3297 C3301 1.393 . S
C3298 H3290 0.950 . S
C3298 C3296 1.391 . S
C3298 C3299 1.400 . S
C3299 C3298 1.400 . S
C3299 C3300 1.398 . S
C3299 C3305 1.491 . S
C3300 H3291 0.950 . S
C3300 C3299 1.398 . S
C3300 C3301 1.391 . S
C3301 H3289 0.950 . S
C3301 C3297 1.393 . S
C3301 C3300 1.391 . S
C3302 H3292 0.950 . S
C3302 C3303 1.386 . S
C3302 C3304 1.391 . S
C3303 C3302 1.386 . S
C3303 C3307 1.393 . S
C3304 H3293 0.950 . S
C3304 C3302 1.391 . S
C3304 C3305 1.400 . S
C3305 C3299 1.491 . S
C3305 C3304 1.400 . S
C3305 C3306 1.398 . S
C3306 H3294 0.950 . S
C3306 C3305 1.398 . S
C3306 C3307 1.391 . S
C3307 H3295 0.950 . S
C3307 C3303 1.393 . S
C3307 C3306 1.391 . S
H3308 C3316 0.950 . S
H3309 C3321 0.950 . S
H3310 C3318 0.950 . S
H3311 C3320 0.950 . S
H3312 C3322 0.950 . S
H3313 C3324 0.950 . S
H3314 C3326 0.950 . S
H3315 C3327 0.950 . S
C3316 H3308 0.950 . S
C3316 C3317 1.386 . S
C3316 C3318 1.391 . S
C3317 C3316 1.386 . S
C3317 C3321 1.393 . S
C3318 H3310 0.950 . S
C3318 C3316 1.391 . S
C3318 C3319 1.400 . S
C3319 C3318 1.400 . S
C3319 C3320 1.398 . S
C3319 C3325 1.491 . S
C3320 H3311 0.950 . S
C3320 C3319 1.398 . S
C3320 C3321 1.391 . S
C3321 H3309 0.950 . S
C3321 C3317 1.393 . S
C3321 C3320 1.391 . S
C3322 H3312 0.950 . S
C3322 C3323 1.386 . S
C3322 C3324 1.391 . S
C3323 C3322 1.386 . S
C3323 C3327 1.393 . S
C3324 H3313 0.950 . S
C3324 C3322 1.391 . S
C3324 C3325 1.400 . S
C3325 C3319 1.491 . S
C3325 C3324 1.400 . S
C3325 C3326 1.398 . S
C3326 H3314 0.950 . S
C3326 C3325 1.398 . S
C3326 C3327 1.391 . S
C3327 H3315 0.950 . S
C3327 C3323 1.393 . S
C3327 C3326 1.391 . S
H3328 C3336 0.950 . S
H3329 C3341 0.950 . S
H3330 C3338 0.950 . S
H3331 C3340 0.950 . S
H3332 C3342 0.950 . S
H3333 C3344 0.950 . S
H3334 C3346 0.950 . S
H3335 C3347 0.950 . S
C3336 H3328 0.950 . S
C3336 C3337 1.386 . S
C3336 C3338 1.391 . S
C3337 C3336 1.386 . S
C3337 C3341 1.393 . S
C3338 H3330 0.950 . S
C3338 C3336 1.391 . S
C3338 C3339 1.400 . S
C3339 C3338 1.400 . S
C3339 C3340 1.398 . S
C3339 C3345 1.491 . S
C3340 H3331 0.950 . S
C3340 C3339 1.398 . S
C3340 C3341 1.391 . S
C3341 H3329 0.950 . S
C3341 C3337 1.393 . S
C3341 C3340 1.391 . S
C3342 H3332 0.950 . S
C3342 C3343 1.386 . S
C3342 C3344 1.391 . S
C3343 C3342 1.386 . S
C3343 C3347 1.393 . S
C3344 H3333 0.950 . S
C3344 C3342 1.391 . S
C3344 C3345 1.400 . S
C3345 C3339 1.491 . S
C3345 C3344 1.400 . S
C3345 C3346 1.398 . S
C3346 H3334 0.950 . S
C3346 C3345 1.398 . S
C3346 C3347 1.391 . S
C3347 H3335 0.950 . S
C3347 C3343 1.393 . S
C3347 C3346 1.391 . S
H3348 C3356 0.950 . S
H3349 C3361 0.950 . S
H3350 C3358 0.950 . S
H3351 C3360 0.950 . S
H3352 C3362 0.950 . S
H3353 C3364 0.950 . S
H3354 C3366 0.950 . S
H3355 C3367 0.950 . S
C3356 H3348 0.950 . S
C3356 C3357 1.386 . S
C3356 C3358 1.391 . S
C3357 C3356 1.386 . S
C3357 C3361 1.393 . S
C3358 H3350 0.950 . S
C3358 C3356 1.391 . S
C3358 C3359 1.400 . S
C3359 C3358 1.400 . S
C3359 C3360 1.398 . S
C3359 C3365 1.491 . S
C3360 H3351 0.950 . S
C3360 C3359 1.398 . S
C3360 C3361 1.391 . S
C3361 H3349 0.950 . S
C3361 C3357 1.393 . S
C3361 C3360 1.391 . S
C3362 H3352 0.950 . S
C3362 C3363 1.386 . S
C3362 C3364 1.391 . S
C3363 C3362 1.386 . S
C3363 C3367 1.393 . S
C3364 H3353 0.950 . S
C3364 C3362 1.391 . S
C3364 C3365 1.400 . S
C3365 C3359 1.491 . S
C3365 C3364 1.400 . S
C3365 C3366 1.398 . S
C3366 H3354 0.950 . S
C3366 C3365 1.398 . S
C3366 C3367 1.391 . S
C3367 H3355 0.950 . S
C3367 C3363 1.393 . S
C3367 C3366 1.391 . S
H3368 C3376 0.950 . S
H3369 C3381 0.950 . S
H3370 C3378 0.950 . S
H3371 C3380 0.950 . S
H3372 C3382 0.950 . S
H3373 C3384 0.950 . S
H3374 C3386 0.950 . S
H3375 C3387 0.950 . S
C3376 H3368 0.950 . S
C3376 C3377 1.386 . S
C3376 C3378 1.391 . S
C3377 C3376 1.386 . S
C3377 C3381 1.393 . S
C3378 H3370 0.950 . S
C3378 C3376 1.391 . S
C3378 C3379 1.400 . S
C3379 C3378 1.400 . S
C3379 C3380 1.398 . S
C3379 C3385 1.491 . S
C3380 H3371 0.950 . S
C3380 C3379 1.398 . S
C3380 C3381 1.391 . S
C3381 H3369 0.950 . S
C3381 C3377 1.393 . S
C3381 C3380 1.391 . S
C3382 H3372 0.950 . S
C3382 C3383 1.386 . S
C3382 C3384 1.391 . S
C3383 C3382 1.386 . S
C3383 C3387 1.393 . S
C3384 H3373 0.950 . S
C3384 C3382 1.391 . S
C3384 C3385 1.400 . S
C3385 C3379 1.491 . S
C3385 C3384 1.400 . S
C3385 C3386 1.398 . S
C3386 H3374 0.950 . S
C3386 C3385 1.398 . S
C3386 C3387 1.391 . S
C3387 H3375 0.950 . S
C3387 C3383 1.393 . S
C3387 C3386 1.391 . S
H3388 C3396 0.950 . S
H3389 C3401 0.950 . S
H3390 C3398 0.950 . S
H3391 C3400 0.950 . S
H3392 C3402 0.950 . S
H3393 C3404 0.950 . S
H3394 C3406 0.950 . S
H3395 C3407 0.950 . S
C3396 H3388 0.950 . S
C3396 C3397 1.386 . S
C3396 C3398 1.391 . S
C3397 C3396 1.386 . S
C3397 C3401 1.393 . S
C3398 H3390 0.950 . S
C3398 C3396 1.391 . S
C3398 C3399 1.400 . S
C3399 C3398 1.400 . S
C3399 C3400 1.398 . S
C3399 C3405 1.491 . S
C3400 H3391 0.950 . S
C3400 C3399 1.398 . S
C3400 C3401 1.391 . S
C3401 H3389 0.950 . S
C3401 C3397 1.393 . S
C3401 C3400 1.391 . S
C3402 H3392 0.950 . S
C3402 C3403 1.386 . S
C3402 C3404 1.391 . S
C3403 C3402 1.386 . S
C3403 C3407 1.393 . S
C3404 H3393 0.950 . S
C3404 C3402 1.391 . S
C3404 C3405 1.400 . S
C3405 C3399 1.491 . S
C3405 C3404 1.400 . S
C3405 C3406 1.398 . S
C3406 H3394 0.950 . S
C3406 C3405 1.398 . S
C3406 C3407 1.391 . S
C3407 H3395 0.950 . S
C3407 C3403 1.393 . S
C3407 C3406 1.391 . S
H3408 C3416 0.950 . S
H3409 C3421 0.950 . S
H3410 C3418 0.950 . S
H3411 C3420 0.950 . S
H3412 C3422 0.950 . S
H3413 C3424 0.950 . S
H3414 C3426 0.950 . S
H3415 C3427 0.950 . S
C3416 H3408 0.950 . S
C3416 C3417 1.386 . S
C3416 C3418 1.391 . S
C3417 C3416 1.386 . S
C3417 C3421 1.393 . S
C3418 H3410 0.950 . S
C3418 C3416 1.391 . S
C3418 C3419 1.400 . S
C3419 C3418 1.400 . S
C3419 C3420 1.398 . S
C3419 C3425 1.491 . S
C3420 H3411 0.950 . S
C3420 C3419 1.398 . S
C3420 C3421 1.391 . S
C3421 H3409 0.950 . S
C3421 C3417 1.393 . S
C3421 C3420 1.391 . S
C3422 H3412 0.950 . S
C3422 C3423 1.386 . S
C3422 C3424 1.391 . S
C3423 C3422 1.386 . S
C3423 C3427 1.393 . S
C3424 H3413 0.950 . S
C3424 C3422 1.391 . S
C3424 C3425 1.400 . S
C3425 C3419 1.491 . S
C3425 C3424 1.400 . S
C3425 C3426 1.398 . S
C3426 H3414 0.950 . S
C3426 C3425 1.398 . S
C3426 C3427 1.391 . S
C3427 H3415 0.950 . S
C3427 C3423 1.393 . S
C3427 C3426 1.391 . S
H3428 C3436 0.950 . S
H3429 C3441 0.950 . S
H3430 C3438 0.950 . S
H3431 C3440 0.950 . S
H3432 C3442 0.950 . S
H3433 C3444 0.950 . S
H3434 C3446 0.950 . S
H3435 C3447 0.950 . S
C3436 H3428 0.950 . S
C3436 C3437 1.386 . S
C3436 C3438 1.391 . S
C3437 C3436 1.386 . S
C3437 C3441 1.393 . S
C3438 H3430 0.950 . S
C3438 C3436 1.391 . S
C3438 C3439 1.400 . S
C3439 C3438 1.400 . S
C3439 C3440 1.398 . S
C3439 C3445 1.491 . S
C3440 H3431 0.950 . S
C3440 C3439 1.398 . S
C3440 C3441 1.391 . S
C3441 H3429 0.950 . S
C3441 C3437 1.393 . S
C3441 C3440 1.391 . S
C3442 H3432 0.950 . S
C3442 C3443 1.386 . S
C3442 C3444 1.391 . S
C3443 C3442 1.386 . S
C3443 C3447 1.393 . S
C3444 H3433 0.950 . S
C3444 C3442 1.391 . S
C3444 C3445 1.400 . S
C3445 C3439 1.491 . S
C3445 C3444 1.400 . S
C3445 C3446 1.398 . S
C3446 H3434 0.950 . S
C3446 C3445 1.398 . S
C3446 C3447 1.391 . S
C3447 H3435 0.950 . S
C3447 C3443 1.393 . S
C3447 C3446 1.391 . S
H3448 C3456 0.950 . S
H3449 C3461 0.950 . S
H3450 C3458 0.950 . S
H3451 C3460 0.950 . S
H3452 C3462 0.950 . S
H3453 C3464 0.950 . S
H3454 C3466 0.950 . S
H3455 C3467 0.950 . S
C3456 H3448 0.950 . S
C3456 C3457 1.386 . S
C3456 C3458 1.391 . S
C3457 C3456 1.386 . S
C3457 C3461 1.393 . S
C3458 H3450 0.950 . S
C3458 C3456 1.391 . S
C3458 C3459 1.400 . S
C3459 C3458 1.400 . S
C3459 C3460 1.398 . S
C3459 C3465 1.491 . S
C3460 H3451 0.950 . S
C3460 C3459 1.398 . S
C3460 C3461 1.391 . S
C3461 H3449 0.950 . S
C3461 C3457 1.393 . S
C3461 C3460 1.391 . S
C3462 H3452 0.950 . S
C3462 C3463 1.386 . S
C3462 C3464 1.391 . S
C3463 C3462 1.386 . S
C3463 C3467 1.393 . S
C3464 H3453 0.950 . S
C3464 C3462 1.391 . S
C3464 C3465 1.400 . S
C3465 C3459 1.491 . S
C3465 C3464 1.400 . S
C3465 C3466 1.398 . S
C3466 H3454 0.950 . S
C3466 C3465 1.398 . S
C3466 C3467 1.391 . S
C3467 H3455 0.950 . S
C3467 C3463 1.393 . S
C3467 C3466 1.391 . S
H3468 C3476 0.950 . S
H3469 C3481 0.950 . S
H3470 C3478 0.950 . S
H3471 C3480 0.950 . S
H3472 C3482 0.950 . S
H3473 C3484 0.950 . S
H3474 C3486 0.950 . S
H3475 C3487 0.950 . S
C3476 H3468 0.950 . S
C3476 C3477 1.386 . S
C3476 C3478 1.391 . S
C3477 C3476 1.386 . S
C3477 C3481 1.393 . S
C3478 H3470 0.950 . S
C3478 C3476 1.391 . S
C3478 C3479 1.400 . S
C3479 C3478 1.400 . S
C3479 C3480 1.398 . S
C3479 C3485 1.491 . S
C3480 H3471 0.950 . S
C3480 C3479 1.398 . S
C3480 C3481 1.391 . S
C3481 H3469 0.950 . S
C3481 C3477 1.393 . S
C3481 C3480 1.391 . S
C3482 H3472 0.950 . S
C3482 C3483 1.386 . S
C3482 C3484 1.391 . S
C3483 C3482 1.386 . S
C3483 C3487 1.393 . S
C3484 H3473 0.950 . S
C3484 C3482 1.391 . S
C3484 C3485 1.400 . S
C3485 C3479 1.491 . S
C3485 C3484 1.400 . S
C3485 C3486 1.398 . S
C3486 H3474 0.950 . S
C3486 C3485 1.398 . S
C3486 C3487 1.391 . S
C3487 H3475 0.950 . S
C3487 C3483 1.393 . S
C3487 C3486 1.391 . S
H3488 C3496 0.950 . S
H3489 C3501 0.950 . S
H3490 C3498 0.950 . S
H3491 C3500 0.950 . S
H3492 C3502 0.950 . S
H3493 C3504 0.950 . S
H3494 C3506 0.950 . S
H3495 C3507 0.950 . S
C3496 H3488 0.950 . S
C3496 C3497 1.386 . S
C3496 C3498 1.391 . S
C3497 C3496 1.386 . S
C3497 C3501 1.393 . S
C3498 H3490 0.950 . S
C3498 C3496 1.391 . S
C3498 C3499 1.400 . S
C3499 C3498 1.400 . S
C3499 C3500 1.398 . S
C3499 C3505 1.491 . S
C3500 H3491 0.950 . S
C3500 C3499 1.398 . S
C3500 C3501 1.391 . S
C3501 H3489 0.950 . S
C3501 C3497 1.393 . S
C3501 C3500 1.391 . S
C3502 H3492 0.950 . S
C3502 C3503 1.386 . S
C3502 C3504 1.391 . S
C3503 C3502 1.386 . S
C3503 C3507 1.393 . S
C3504 H3493 0.950 . S
C3504 C3502 1.391 . S
C3504 C3505 1.400 . S
C3505 C3499 1.491 . S
C3505 C3504 1.400 . S
C3505 C3506 1.398 . S
C3506 H3494 0.950 . S
C3506 C3505 1.398 . S
C3506 C3507 1.391 . S
C3507 H3495 0.950 . S
C3507 C3503 1.393 . S
C3507 C3506 1.391 . S
H3508 C3516 0.950 . S
H3509 C3521 0.950 . S
H3510 C3518 0.950 . S
H3511 C3520 0.950 . S
H3512 C3522 0.950 . S
H3513 C3524 0.950 . S
H3514 C3526 0.950 . S
H3515 C3527 0.950 . S
C3516 H3508 0.950 . S
C3516 C3517 1.386 . S
C3516 C3518 1.391 . S
C3517 C3516 1.386 . S
C3517 C3521 1.393 . S
C3518 H3510 0.950 . S
C3518 C3516 1.391 . S
C3518 C3519 1.400 . S
C3519 C3518 1.400 . S
C3519 C3520 1.398 . S
C3519 C3525 1.491 . S
C3520 H3511 0.950 . S
C3520 C3519 1.398 . S
C3520 C3521 1.391 . S
C3521 H3509 0.950 . S
C3521 C3517 1.393 . S
C3521 C3520 1.391 . S
C3522 H3512 0.950 . S
C3522 C3523 1.386 . S
C3522 C3524 1.391 . S
C3523 C3522 1.386 . S
C3523 C3527 1.393 . S
C3524 H3513 0.950 . S
C3524 C3522 1.391 . S
C3524 C3525 1.400 . S
C3525 C3519 1.491 . S
C3525 C3524 1.400 . S
C3525 C3526 1.398 . S
C3526 H3514 0.950 . S
C3526 C3525 1.398 . S
C3526 C3527 1.391 . S
C3527 H3515 0.950 . S
C3527 C3523 1.393 . S
C3527 C3526 1.391 . S
H3528 C3536 0.950 . S
H3529 C3541 0.950 . S
H3530 C3538 0.950 . S
H3531 C3540 0.950 . S
H3532 C3542 0.950 . S
H3533 C3544 0.950 . S
H3534 C3546 0.950 . S
H3535 C3547 0.950 . S
C3536 H3528 0.950 . S
C3536 C3537 1.386 . S
C3536 C3538 1.391 . S
C3537 C3536 1.386 . S
C3537 C3541 1.393 . S
C3538 H3530 0.950 . S
C3538 C3536 1.391 . S
C3538 C3539 1.400 . S
C3539 C3538 1.400 . S
C3539 C3540 1.398 . S
C3539 C3545 1.491 . S
C3540 H3531 0.950 . S
C3540 C3539 1.398 . S
C3540 C3541 1.391 . S
C3541 H3529 0.950 . S
C3541 C3537 1.393 . S
C3541 C3540 1.391 . S
C3542 H3532 0.950 . S
C3542 C3543 1.386 . S
C3542 C3544 1.391 . S
C3543 C3542 1.386 . S
C3543 C3547 1.393 . S
C3544 H3533 0.950 . S
C3544 C3542 1.391 . S
C3544 C3545 1.400 . S
C3545 C3539 1.491 . S
C3545 C3544 1.400 . S
C3545 C3546 1.398 . S
C3546 H3534 0.950 . S
C3546 C3545 1.398 . S
C3546 C3547 1.391 . S
C3547 H3535 0.950 . S
C3547 C3543 1.393 . S
C3547 C3546 1.391 . S
H3548 C3556 0.950 . S
H3549 C3561 0.950 . S
H3550 C3558 0.950 . S
H3551 C3560 0.950 . S
H3552 C3562 0.950 . S
H3553 C3564 0.950 . S
H3554 C3566 0.950 . S
H3555 C3567 0.950 . S
C3556 H3548 0.950 . S
C3556 C3557 1.386 . S
C3556 C3558 1.391 . S
C3557 C3556 1.386 . S
C3557 C3561 1.393 . S
C3558 H3550 0.950 . S
C3558 C3556 1.391 . S
C3558 C3559 1.400 . S
C3559 C3558 1.400 . S
C3559 C3560 1.398 . S
C3559 C3565 1.491 . S
C3560 H3551 0.950 . S
C3560 C3559 1.398 . S
C3560 C3561 1.391 . S
C3561 H3549 0.950 . S
C3561 C3557 1.393 . S
C3561 C3560 1.391 . S
C3562 H3552 0.950 . S
C3562 C3563 1.386 . S
C3562 C3564 1.391 . S
C3563 C3562 1.386 . S
C3563 C3567 1.393 . S
C3564 H3553 0.950 . S
C3564 C3562 1.391 . S
C3564 C3565 1.400 . S
C3565 C3559 1.491 . S
C3565 C3564 1.400 . S
C3565 C3566 1.398 . S
C3566 H3554 0.950 . S
C3566 C3565 1.398 . S
C3566 C3567 1.391 . S
C3567 H3555 0.950 . S
C3567 C3563 1.393 . S
C3567 C3566 1.391 . S
H3568 C3576 0.950 . S
H3569 C3581 0.950 . S
H3570 C3578 0.950 . S
H3571 C3580 0.950 . S
H3572 C3582 0.950 . S
H3573 C3584 0.950 . S
H3574 C3586 0.950 . S
H3575 C3587 0.950 . S
C3576 H3568 0.950 . S
C3576 C3577 1.386 . S
C3576 C3578 1.391 . S
C3577 C3576 1.386 . S
C3577 C3581 1.393 . S
C3578 H3570 0.950 . S
C3578 C3576 1.391 . S
C3578 C3579 1.400 . S
C3579 C3578 1.400 . S
C3579 C3580 1.398 . S
C3579 C3585 1.491 . S
C3580 H3571 0.950 . S
C3580 C3579 1.398 . S
C3580 C3581 1.391 . S
C3581 H3569 0.950 . S
C3581 C3577 1.393 . S
C3581 C3580 1.391 . S
C3582 H3572 0.950 . S
C3582 C3583 1.386 . S
C3582 C3584 1.391 . S
C3583 C3582 1.386 . S
C3583 C3587 1.393 . S
C3584 H3573 0.950 . S
C3584 C3582 1.391 . S
C3584 C3585 1.400 . S
C3585 C3579 1.491 . S
C3585 C3584 1.400 . S
C3585 C3586 1.398 . S
C3586 H3574 0.950 . S
C3586 C3585 1.398 . S
C3586 C3587 1.391 . S
C3587 H3575 0.950 . S
C3587 C3583 1.393 . S
C3587 C3586 1.391 . S
H3588 C3596 0.950 . S
H3589 C3601 0.950 . S
H3590 C3598 0.950 . S
H3591 C3600 0.950 . S
H3592 C3602 0.950 . S
H3593 C3604 0.950 . S
H3594 C3606 0.950 . S
H3595 C3607 0.950 . S
C3596 H3588 0.950 . S
C3596 C3597 1.386 . S
C3596 C3598 1.391 . S
C3597 C3596 1.386 . S
C3597 C3601 1.393 . S
C3598 H3590 0.950 . S
C3598 C3596 1.391 . S
C3598 C3599 1.400 . S
C3599 C3598 1.400 . S
C3599 C3600 1.398 . S
C3599 C3605 1.491 . S
C3600 H3591 0.950 . S
C3600 C3599 1.398 . S
C3600 C3601 1.391 . S
C3601 H3589 0.950 . S
C3601 C3597 1.393 . S
C3601 C3600 1.391 . S
C3602 H3592 0.950 . S
C3602 C3603 1.386 . S
C3602 C3604 1.391 . S
C3603 C3602 1.386 . S
C3603 C3607 1.393 . S
C3604 H3593 0.950 . S
C3604 C3602 1.391 . S
C3604 C3605 1.400 . S
C3605 C3599 1.491 . S
C3605 C3604 1.400 . S
C3605 C3606 1.398 . S
C3606 H3594 0.950 . S
C3606 C3605 1.398 . S
C3606 C3607 1.391 . S
C3607 H3595 0.950 . S
C3607 C3603 1.393 . S
C3607 C3606 1.391 . S
H3608 C3616 0.950 . S
H3609 C3621 0.950 . S
H3610 C3618 0.950 . S
H3611 C3620 0.950 . S
H3612 C3622 0.950 . S
H3613 C3624 0.950 . S
H3614 C3626 0.950 . S
H3615 C3627 0.950 . S
C3616 H3608 0.950 . S
C3616 C3617 1.386 . S
C3616 C3618 1.391 . S
C3617 C3616 1.386 . S
C3617 C3621 1.393 . S
C3618 H3610 0.950 . S
C3618 C3616 1.391 . S
C3618 C3619 1.400 . S
C3619 C3618 1.400 . S
C3619 C3620 1.398 . S
C3619 C3625 1.491 . S
C3620 H3611 0.950 . S
C3620 C3619 1.398 . S
C3620 C3621 1.391 . S
C3621 H3609 0.950 . S
C3621 C3617 1.393 . S
C3621 C3620 1.391 . S
C3622 H3612 0.950 . S
C3622 C3623 1.386 . S
C3622 C3624 1.391 . S
C3623 C3622 1.386 . S
C3623 C3627 1.393 . S
C3624 H3613 0.950 . S
C3624 C3622 1.391 . S
C3624 C3625 1.400 . S
C3625 C3619 1.491 . S
C3625 C3624 1.400 . S
C3625 C3626 1.398 . S
C3626 H3614 0.950 . S
C3626 C3625 1.398 . S
C3626 C3627 1.391 . S
C3627 H3615 0.950 . S
C3627 C3623 1.393 . S
C3627 C3626 1.391 . S
H3628 C3636 0.950 . S
H3629 C3641 0.950 . S
H3630 C3638 0.950 . S
H3631 C3640 0.950 . S
H3632 C3642 0.950 . S
H3633 C3644 0.950 . S
H3634 C3646 0.950 . S
H3635 C3647 0.950 . S
C3636 H3628 0.950 . S
C3636 C3637 1.386 . S
C3636 C3638 1.391 . S
C3637 C3636 1.386 . S
C3637 C3641 1.393 . S
C3638 H3630 0.950 . S
C3638 C3636 1.391 . S
C3638 C3639 1.400 . S
C3639 C3638 1.400 . S
C3639 C3640 1.398 . S
C3639 C3645 1.491 . S
C3640 H3631 0.950 . S
C3640 C3639 1.398 . S
C3640 C3641 1.391 . S
C3641 H3629 0.950 . S
C3641 C3637 1.393 . S
C3641 C3640 1.391 . S
C3642 H3632 0.950 . S
C3642 C3643 1.386 . S
C3642 C3644 1.391 . S
C3643 C3642 1.386 . S
C3643 C3647 1.393 . S
C3644 H3633 0.950 . S
C3644 C3642 1.391 . S
C3644 C3645 1.400 . S
C3645 C3639 1.491 . S
C3645 C3644 1.400 . S
C3645 C3646 1.398 . S
C3646 H3634 0.950 . S
C3646 C3645 1.398 . S
C3646 C3647 1.391 . S
C3647 H3635 0.950 . S
C3647 C3643 1.393 . S
C3647 C3646 1.391 . S
H3648 C3656 0.950 . S
H3649 C3661 0.950 . S
H3650 C3658 0.950 . S
H3651 C3660 0.950 . S
H3652 C3662 0.950 . S
H3653 C3664 0.950 . S
H3654 C3666 0.950 . S
H3655 C3667 0.950 . S
C3656 H3648 0.950 . S
C3656 C3657 1.386 . S
C3656 C3658 1.391 . S
C3657 C3656 1.386 . S
C3657 C3661 1.393 . S
C3658 H3650 0.950 . S
C3658 C3656 1.391 . S
C3658 C3659 1.400 . S
C3659 C3658 1.400 . S
C3659 C3660 1.398 . S
C3659 C3665 1.491 . S
C3660 H3651 0.950 . S
C3660 C3659 1.398 . S
C3660 C3661 1.391 . S
C3661 H3649 0.950 . S
C3661 C3657 1.393 . S
C3661 C3660 1.391 . S
C3662 H3652 0.950 . S
C3662 C3663 1.386 . S
C3662 C3664 1.391 . S
C3663 C3662 1.386 . S
C3663 C3667 1.393 . S
C3664 H3653 0.950 . S
C3664 C3662 1.391 . S
C3664 C3665 1.400 . S
C3665 C3659 1.491 . S
C3665 C3664 1.400 . S
C3665 C3666 1.398 . S
C3666 H3654 0.950 . S
C3666 C3665 1.398 . S
C3666 C3667 1.391 . S
C3667 H3655 0.950 . S
C3667 C3663 1.393 . S
C3667 C3666 1.391 . S
H3668 C3676 0.950 . S
H3669 C3681 0.950 . S
H3670 C3678 0.950 . S
H3671 C3680 0.950 . S
H3672 C3682 0.950 . S
H3673 C3684 0.950 . S
H3674 C3686 0.950 . S
H3675 C3687 0.950 . S
C3676 H3668 0.950 . S
C3676 C3677 1.386 . S
C3676 C3678 1.391 . S
C3677 C3676 1.386 . S
C3677 C3681 1.393 . S
C3678 H3670 0.950 . S
C3678 C3676 1.391 . S
C3678 C3679 1.400 . S
C3679 C3678 1.400 . S
C3679 C3680 1.398 . S
C3679 C3685 1.491 . S
C3680 H3671 0.950 . S
C3680 C3679 1.398 . S
C3680 C3681 1.391 . S
C3681 H3669 0.950 . S
C3681 C3677 1.393 . S
C3681 C3680 1.391 . S
C3682 H3672 0.950 . S
C3682 C3683 1.386 . S
C3682 C3684 1.391 . S
C3683 C3682 1.386 . S
C3683 C3687 1.393 . S
C3684 H3673 0.950 . S
C3684 C3682 1.391 . S
C3684 C3685 1.400 . S
C3685 C3679 1.491 . S
C3685 C3684 1.400 . S
C3685 C3686 1.398 . S
C3686 H3674 0.950 . S
C3686 C3685 1.398 . S
C3686 C3687 1.391 . S
C3687 H3675 0.950 . S
C3687 C3683 1.393 . S
C3687 C3686 1.391 . S
H3688 C3696 0.950 . S
H3689 C3701 0.950 . S
H3690 C3698 0.950 . S
H3691 C3700 0.950 . S
H3692 C3702 0.950 . S
H3693 C3704 0.950 . S
H3694 C3706 0.950 . S
H3695 C3707 0.950 . S
C3696 H3688 0.950 . S
C3696 C3697 1.386 . S
C3696 C3698 1.391 . S
C3697 C3696 1.386 . S
C3697 C3701 1.393 . S
C3698 H3690 0.950 . S
C3698 C3696 1.391 . S
C3698 C3699 1.400 . S
C3699 C3698 1.400 . S
C3699 C3700 1.398 . S
C3699 C3705 1.491 . S
C3700 H3691 0.950 . S
C3700 C3699 1.398 . S
C3700 C3701 1.391 . S
C3701 H3689 0.950 . S
C3701 C3697 1.393 . S
C3701 C3700 1.391 . S
C3702 H3692 0.950 . S
C3702 C3703 1.386 . S
C3702 C3704 1.391 . S
C3703 C3702 1.386 . S
C3703 C3707 1.393 . S
C3704 H3693 0.950 . S
C3704 C3702 1.391 . S
C3704 C3705 1.400 . S
C3705 C3699 1.491 . S
C3705 C3704 1.400 . S
C3705 C3706 1.398 . S
C3706 H3694 0.950 . S
C3706 C3705 1.398 . S
C3706 C3707 1.391 . S
C3707 H3695 0.950 . S
C3707 C3703 1.393 . S
C3707 C3706 1.391 . S
H3708 C3716 0.950 . S
H3709 C3721 0.950 . S
H3710 C3718 0.950 . S
H3711 C3720 0.950 . S
H3712 C3722 0.950 . S
H3713 C3724 0.950 . S
H3714 C3726 0.950 . S
H3715 C3727 0.950 . S
C3716 H3708 0.950 . S
C3716 C3717 1.386 . S
C3716 C3718 1.391 . S
C3717 C3716 1.386 . S
C3717 C3721 1.393 . S
C3718 H3710 0.950 . S
C3718 C3716 1.391 . S
C3718 C3719 1.400 . S
C3719 C3718 1.400 . S
C3719 C3720 1.398 . S
C3719 C3725 1.491 . S
C3720 H3711 0.950 . S
C3720 C3719 1.398 . S
C3720 C3721 1.391 . S
C3721 H3709 0.950 . S
C3721 C3717 1.393 . S
C3721 C3720 1.391 . S
C3722 H3712 0.950 . S
C3722 C3723 1.386 . S
C3722 C3724 1.391 . S
C3723 C3722 1.386 . S
C3723 C3727 1.393 . S
C3724 H3713 0.950 . S
C3724 C3722 1.391 . S
C3724 C3725 1.400 . S
C3725 C3719 1.491 . S
C3725 C3724 1.400 . S
C3725 C3726 1.398 . S
C3726 H3714 0.950 . S
C3726 C3725 1.398 . S
C3726 C3727 1.391 . S
C3727 H3715 0.950 . S
C3727 C3723 1.393 . S
C3727 C3726 1.391 . S
H3728 C3736 0.950 . S
H3729 C3741 0.950 . S
H3730 C3738 0.950 . S
H3731 C3740 0.950 . S
H3732 C3742 0.950 . S
H3733 C3744 0.950 . S
H3734 C3746 0.950 . S
H3735 C3747 0.950 . S
C3736 H3728 0.950 . S
C3736 C3737 1.386 . S
C3736 C3738 1.391 . S
C3737 C3736 1.386 . S
C3737 C3741 1.393 . S
C3738 H3730 0.950 . S
C3738 C3736 1.391 . S
C3738 C3739 1.400 . S
C3739 C3738 1.400 . S
C3739 C3740 1.398 . S
C3739 C3745 1.491 . S
C3740 H3731 0.950 . S
C3740 C3739 1.398 . S
C3740 C3741 1.391 . S
C3741 H3729 0.950 . S
C3741 C3737 1.393 . S
C3741 C3740 1.391 . S
C3742 H3732 0.950 . S
C3742 C3743 1.386 . S
C3742 C3744 1.391 . S
C3743 C3742 1.386 . S
C3743 C3747 1.393 . S
C3744 H3733 0.950 . S
C3744 C3742 1.391 . S
C3744 C3745 1.400 . S
C3745 C3739 1.491 . S
C3745 C3744 1.400 . S
C3745 C3746 1.398 . S
C3746 H3734 0.950 . S
C3746 C3745 1.398 . S
C3746 C3747 1.391 . S
C3747 H3735 0.950 . S
C3747 C3743 1.393 . S
C3747 C3746 1.391 . S
H3748 C3756 0.950 . S
H3749 C3761 0.950 . S
H3750 C3758 0.950 . S
H3751 C3760 0.950 . S
H3752 C3762 0.950 . S
H3753 C3764 0.950 . S
H3754 C3766 0.950 . S
H3755 C3767 0.950 . S
C3756 H3748 0.950 . S
C3756 C3757 1.386 . S
C3756 C3758 1.391 . S
C3757 C3756 1.386 . S
C3757 C3761 1.393 . S
C3758 H3750 0.950 . S
C3758 C3756 1.391 . S
C3758 C3759 1.400 . S
C3759 C3758 1.400 . S
C3759 C3760 1.398 . S
C3759 C3765 1.491 . S
C3760 H3751 0.950 . S
C3760 C3759 1.398 . S
C3760 C3761 1.391 . S
C3761 H3749 0.950 . S
C3761 C3757 1.393 . S
C3761 C3760 1.391 . S
C3762 H3752 0.950 . S
C3762 C3763 1.386 . S
C3762 C3764 1.391 . S
C3763 C3762 1.386 . S
C3763 C3767 1.393 . S
C3764 H3753 0.950 . S
C3764 C3762 1.391 . S
C3764 C3765 1.400 . S
C3765 C3759 1.491 . S
C3765 C3764 1.400 . S
C3765 C3766 1.398 . S
C3766 H3754 0.950 . S
C3766 C3765 1.398 . S
C3766 C3767 1.391 . S
C3767 H3755 0.950 . S
C3767 C3763 1.393 . S
C3767 C3766 1.391 . S
H3768 C3776 0.950 . S
H3769 C3781 0.950 . S
H3770 C3778 0.950 . S
H3771 C3780 0.950 . S
H3772 C3782 0.950 . S
H3773 C3784 0.950 . S
H3774 C3786 0.950 . S
H3775 C3787 0.950 . S
C3776 H3768 0.950 . S
C3776 C3777 1.386 . S
C3776 C3778 1.391 . S
C3777 C3776 1.386 . S
C3777 C3781 1.393 . S
C3778 H3770 0.950 . S
C3778 C3776 1.391 . S
C3778 C3779 1.400 . S
C3779 C3778 1.400 . S
C3779 C3780 1.398 . S
C3779 C3785 1.491 . S
C3780 H3771 0.950 . S
C3780 C3779 1.398 . S
C3780 C3781 1.391 . S
C3781 H3769 0.950 . S
C3781 C3777 1.393 . S
C3781 C3780 1.391 . S
C3782 H3772 0.950 . S
C3782 C3783 1.386 . S
C3782 C3784 1.391 . S
C3783 C3782 1.386 . S
C3783 C3787 1.393 . S
C3784 H3773 0.950 . S
C3784 C3782 1.391 . S
C3784 C3785 1.400 . S
C3785 C3779 1.491 . S
C3785 C3784 1.400 . S
C3785 C3786 1.398 . S
C3786 H3774 0.950 . S
C3786 C3785 1.398 . S
C3786 C3787 1.391 . S
C3787 H3775 0.950 . S
C3787 C3783 1.393 . S
C3787 C3786 1.391 . S
H3788 C3796 0.950 . S
H3789 C3801 0.950 . S
H3790 C3798 0.950 . S
H3791 C3800 0.950 . S
H3792 C3802 0.950 . S
H3793 C3804 0.950 . S
H3794 C3806 0.950 . S
H3795 C3807 0.950 . S
C3796 H3788 0.950 . S
C3796 C3797 1.386 . S
C3796 C3798 1.391 . S
C3797 C3796 1.386 . S
C3797 C3801 1.393 . S
C3798 H3790 0.950 . S
C3798 C3796 1.391 . S
C3798 C3799 1.400 . S
C3799 C3798 1.400 . S
C3799 C3800 1.398 . S
C3799 C3805 1.491 . S
C3800 H3791 0.950 . S
C3800 C3799 1.398 . S
C3800 C3801 1.391 . S
C3801 H3789 0.950 . S
C3801 C3797 1.393 . S
C3801 C3800 1.391 . S
C3802 H3792 0.950 . S
C3802 C3803 1.386 . S
C3802 C3804 1.391 . S
C3803 C3802 1.386 . S
C3803 C3807 1.393 . S
C3804 H3793 0.950 . S
C3804 C3802 1.391 . S
C3804 C3805 1.400 . S
C3805 C3799 1.491 . S
C3805 C3804 1.400 . S
C3805 C3806 1.398 . S
C3806 H3794 0.950 . S
C3806 C3805 1.398 . S
C3806 C3807 1.391 . S
C3807 H3795 0.950 . S
C3807 C3803 1.393 . S
C3807 C3806 1.391 . S
H3808 C3816 0.950 . S
H3809 C3821 0.950 . S
H3810 C3818 0.950 . S
H3811 C3820 0.950 . S
H3812 C3822 0.950 . S
H3813 C3824 0.950 . S
H3814 C3826 0.950 . S
H3815 C3827 0.950 . S
C3816 H3808 0.950 . S
C3816 C3817 1.386 . S
C3816 C3818 1.391 . S
C3817 C3816 1.386 . S
C3817 C3821 1.393 . S
C3818 H3810 0.950 . S
C3818 C3816 1.391 . S
C3818 C3819 1.400 . S
C3819 C3818 1.400 . S
C3819 C3820 1.398 . S
C3819 C3825 1.491 . S
C3820 H3811 0.950 . S
C3820 C3819 1.398 . S
C3820 C3821 1.391 . S
C3821 H3809 0.950 . S
C3821 C3817 1.393 . S
C3821 C3820 1.391 . S
C3822 H3812 0.950 . S
C3822 C3823 1.386 . S
C3822 C3824 1.391 . S
C3823 C3822 1.386 . S
C3823 C3827 1.393 . S
C3824 H3813 0.950 . S
C3824 C3822 1.391 . S
C3824 C3825 1.400 . S
C3825 C3819 1.491 . S
C3825 C3824 1.400 . S
C3825 C3826 1.398 . S
C3826 H3814 0.950 . S
C3826 C3825 1.398 . S
C3826 C3827 1.391 . S
C3827 H3815 0.950 . S
C3827 C3823 1.393 . S
C3827 C3826 1.391 . S
H3828 C3836 0.950 . S
H3829 C3841 0.950 . S
H3830 C3838 0.950 . S
H3831 C3840 0.950 . S
H3832 C3842 0.950 . S
H3833 C3844 0.950 . S
H3834 C3846 0.950 . S
H3835 C3847 0.950 . S
C3836 H3828 0.950 . S
C3836 C3837 1.386 . S
C3836 C3838 1.391 . S
C3837 C3836 1.386 . S
C3837 C3841 1.393 . S
C3838 H3830 0.950 . S
C3838 C3836 1.391 . S
C3838 C3839 1.400 . S
C3839 C3838 1.400 . S
C3839 C3840 1.398 . S
C3839 C3845 1.491 . S
C3840 H3831 0.950 . S
C3840 C3839 1.398 . S
C3840 C3841 1.391 . S
C3841 H3829 0.950 . S
C3841 C3837 1.393 . S
C3841 C3840 1.391 . S
C3842 H3832 0.950 . S
C3842 C3843 1.386 . S
C3842 C3844 1.391 . S
C3843 C3842 1.386 . S
C3843 C3847 1.393 . S
C3844 H3833 0.950 . S
C3844 C3842 1.391 . S
C3844 C3845 1.400 . S
C3845 C3839 1.491 . S
C3845 C3844 1.400 . S
C3845 C3846 1.398 . S
C3846 H3834 0.950 . S
C3846 C3845 1.398 . S
C3846 C3847 1.391 . S
C3847 H3835 0.950 . S
C3847 C3843 1.393 . S
C3847 C3846 1.391 . S
H3848 C3856 0.950 . S
H3849 C3861 0.950 . S
H3850 C3858 0.950 . S
H3851 C3860 0.950 . S
H3852 C3862 0.950 . S
H3853 C3864 0.950 . S
H3854 C3866 0.950 . S
H3855 C3867 0.950 . S
C3856 H3848 0.950 . S
C3856 C3857 1.386 . S
C3856 C3858 1.391 . S
C3857 C3856 1.386 . S
C3857 C3861 1.393 . S
C3858 H3850 0.950 . S
C3858 C3856 1.391 . S
C3858 C3859 1.400 . S
C3859 C3858 1.400 . S
C3859 C3860 1.398 . S
C3859 C3865 1.491 . S
C3860 H3851 0.950 . S
C3860 C3859 1.398 . S
C3860 C3861 1.391 . S
C3861 H3849 0.950 . S
C3861 C3857 1.393 . S
C3861 C3860 1.391 . S
C3862 H3852 0.950 . S
C3862 C3863 1.386 . S
C3862 C3864 1.391 . S
C3863 C3862 1.386 . S
C3863 C3867 1.393 . S
C3864 H3853 0.950 . S
C3864 C3862 1.391 . S
C3864 C3865 1.400 . S
C3865 C3859 1.491 . S
C3865 C3864 1.400 . S
C3865 C3866 1.398 . S
C3866 H3854 0.950 . S
C3866 C3865 1.398 . S
C3866 C3867 1.391 . S
C3867 H3855 0.950 . S
C3867 C3863 1.393 . S
C3867 C3866 1.391 . S
H3868 C3876 0.950 . S
H3869 C3881 0.950 . S
H3870 C3878 0.950 . S
H3871 C3880 0.950 . S
H3872 C3882 0.950 . S
H3873 C3884 0.950 . S
H3874 C3886 0.950 . S
H3875 C3887 0.950 . S
C3876 H3868 0.950 . S
C3876 C3877 1.386 . S
C3876 C3878 1.391 . S
C3877 C3876 1.386 . S
C3877 C3881 1.393 . S
C3878 H3870 0.950 . S
C3878 C3876 1.391 . S
C3878 C3879 1.400 . S
C3879 C3878 1.400 . S
C3879 C3880 1.398 . S
C3879 C3885 1.491 . S
C3880 H3871 0.950 . S
C3880 C3879 1.398 . S
C3880 C3881 1.391 . S
C3881 H3869 0.950 . S
C3881 C3877 1.393 . S
C3881 C3880 1.391 . S
C3882 H3872 0.950 . S
C3882 C3883 1.386 . S
C3882 C3884 1.391 . S
C3883 C3882 1.386 . S
C3883 C3887 1.393 . S
C3884 H3873 0.950 . S
C3884 C3882 1.391 . S
C3884 C3885 1.400 . S
C3885 C3879 1.491 . S
C3885 C3884 1.400 . S
C3885 C3886 1.398 . S
C3886 H3874 0.950 . S
C3886 C3885 1.398 . S
C3886 C3887 1.391 . S
C3887 H3875 0.950 . S
C3887 C3883 1.393 . S
C3887 C3886 1.391 . S
H3888 C3896 0.950 . S
H3889 C3901 0.950 . S
H3890 C3898 0.950 . S
H3891 C3900 0.950 . S
H3892 C3902 0.950 . S
H3893 C3904 0.950 . S
H3894 C3906 0.950 . S
H3895 C3907 0.950 . S
C3896 H3888 0.950 . S
C3896 C3897 1.386 . S
C3896 C3898 1.391 . S
C3897 C3896 1.386 . S
C3897 C3901 1.393 . S
C3898 H3890 0.950 . S
C3898 C3896 1.391 . S
C3898 C3899 1.400 . S
C3899 C3898 1.400 . S
C3899 C3900 1.398 . S
C3899 C3905 1.491 . S
C3900 H3891 0.950 . S
C3900 C3899 1.398 . S
C3900 C3901 1.391 . S
C3901 H3889 0.950 . S
C3901 C3897 1.393 . S
C3901 C3900 1.391 . S
C3902 H3892 0.950 . S
C3902 C3903 1.386 . S
C3902 C3904 1.391 . S
C3903 C3902 1.386 . S
C3903 C3907 1.393 . S
C3904 H3893 0.950 . S
C3904 C3902 1.391 . S
C3904 C3905 1.400 . S
C3905 C3899 1.491 . S
C3905 C3904 1.400 . S
C3905 C3906 1.398 . S
C3906 H3894 0.950 . S
C3906 C3905 1.398 . S
C3906 C3907 1.391 . S
C3907 H3895 0.950 . S
C3907 C3903 1.393 . S
C3907 C3906 1.391 . S
H3908 C3916 0.950 . S
H3909 C3921 0.950 . S
H3910 C3918 0.950 . S
H3911 C3920 0.950 . S
H3912 C3922 0.950 . S
H3913 C3924 0.950 . S
H3914 C3926 0.950 . S
H3915 C3927 0.950 . S
C3916 H3908 0.950 . S
C3916 C3917 1.386 . S
C3916 C3918 1.391 . S
C3917 C3916 1.386 . S
C3917 C3921 1.393 . S
C3918 H3910 0.950 . S
C3918 C3916 1.391 . S
C3918 C3919 1.400 . S
C3919 C3918 1.400 . S
C3919 C3920 1.398 . S
C3919 C3925 1.491 . S
C3920 H3911 0.950 . S
C3920 C3919 1.398 . S
C3920 C3921 1.391 . S
C3921 H3909 0.950 . S
C3921 C3917 1.393 . S
C3921 C3920 1.391 . S
C3922 H3912 0.950 . S
C3922 C3923 1.386 . S
C3922 C3924 1.391 . S
C3923 C3922 1.386 . S
C3923 C3927 1.393 . S
C3924 H3913 0.950 . S
C3924 C3922 1.391 . S
C3924 C3925 1.400 . S
C3925 C3919 1.491 . S
C3925 C3924 1.400 . S
C3925 C3926 1.398 . S
C3926 H3914 0.950 . S
C3926 C3925 1.398 . S
C3926 C3927 1.391 . S
C3927 H3915 0.950 . S
C3927 C3923 1.393 . S
C3927 C3926 1.391 . S
H3928 C3936 0.950 . S
H3929 C3941 0.950 . S
H3930 C3938 0.950 . S
H3931 C3940 0.950 . S
H3932 C3942 0.950 . S
H3933 C3944 0.950 . S
H3934 C3946 0.950 . S
H3935 C3947 0.950 . S
C3936 H3928 0.950 . S
C3936 C3937 1.386 . S
C3936 C3938 1.391 . S
C3937 C3936 1.386 . S
C3937 C3941 1.393 . S
C3938 H3930 0.950 . S
C3938 C3936 1.391 . S
C3938 C3939 1.400 . S
C3939 C3938 1.400 . S
C3939 C3940 1.398 . S
C3939 C3945 1.491 . S
C3940 H3931 0.950 . S
C3940 C3939 1.398 . S
C3940 C3941 1.391 . S
C3941 H3929 0.950 . S
C3941 C3937 1.393 . S
C3941 C3940 1.391 . S
C3942 H3932 0.950 . S
C3942 C3943 1.386 . S
C3942 C3944 1.391 . S
C3943 C3942 1.386 . S
C3943 C3947 1.393 . S
C3944 H3933 0.950 . S
C3944 C3942 1.391 . S
C3944 C3945 1.400 . S
C3945 C3939 1.491 . S
C3945 C3944 1.400 . S
C3945 C3946 1.398 . S
C3946 H3934 0.950 . S
C3946 C3945 1.398 . S
C3946 C3947 1.391 . S
C3947 H3935 0.950 . S
C3947 C3943 1.393 . S
C3947 C3946 1.391 . S
H3948 C3956 0.950 . S
H3949 C3961 0.950 . S
H3950 C3958 0.950 . S
H3951 C3960 0.950 . S
H3952 C3962 0.950 . S
H3953 C3964 0.950 . S
H3954 C3966 0.950 . S
H3955 C3967 0.950 . S
C3956 H3948 0.950 . S
C3956 C3957 1.386 . S
C3956 C3958 1.391 . S
C3957 C3956 1.386 . S
C3957 C3961 1.393 . S
C3958 H3950 0.950 . S
C3958 C3956 1.391 . S
C3958 C3959 1.400 . S
C3959 C3958 1.400 . S
C3959 C3960 1.398 . S
C3959 C3965 1.491 . S
C3960 H3951 0.950 . S
C3960 C3959 1.398 . S
C3960 C3961 1.391 . S
C3961 H3949 0.950 . S
C3961 C3957 1.393 . S
C3961 C3960 1.391 . S
C3962 H3952 0.950 . S
C3962 C3963 1.386 . S
C3962 C3964 1.391 . S
C3963 C3962 1.386 . S
C3963 C3967 1.393 . S
C3964 H3953 0.950 . S
C3964 C3962 1.391 . S
C3964 C3965 1.400 . S
C3965 C3959 1.491 . S
C3965 C3964 1.400 . S
C3965 C3966 1.398 . S
C3966 H3954 0.950 . S
C3966 C3965 1.398 . S
C3966 C3967 1.391 . S
C3967 H3955 0.950 . S
C3967 C3963 1.393 . S
C3967 C3966 1.391 . S
H3968 C3976 0.950 . S
H3969 C3981 0.950 . S
H3970 C3978 0.950 . S
H3971 C3980 0.950 . S
H3972 C3982 0.950 . S
H3973 C3984 0.950 . S
H3974 C3986 0.950 . S
H3975 C3987 0.950 . S
C3976 H3968 0.950 . S
C3976 C3977 1.386 . S
C3976 C3978 1.391 . S
C3977 C3976 1.386 . S
C3977 C3981 1.393 . S
C3978 H3970 0.950 . S
C3978 C3976 1.391 . S
C3978 C3979 1.400 . S
C3979 C3978 1.400 . S
C3979 C3980 1.398 . S
C3979 C3985 1.491 . S
C3980 H3971 0.950 . S
C3980 C3979 1.398 . S
C3980 C3981 1.391 . S
C3981 H3969 0.950 . S
C3981 C3977 1.393 . S
C3981 C3980 1.391 . S
C3982 H3972 0.950 . S
C3982 C3983 1.386 . S
C3982 C3984 1.391 . S
C3983 C3982 1.386 . S
C3983 C3987 1.393 . S
C3984 H3973 0.950 . S
C3984 C3982 1.391 . S
C3984 C3985 1.400 . S
C3985 C3979 1.491 . S
C3985 C3984 1.400 . S
C3985 C3986 1.398 . S
C3986 H3974 0.950 . S
C3986 C3985 1.398 . S
C3986 C3987 1.391 . S
C3987 H3975 0.950 . S
C3987 C3983 1.393 . S
C3987 C3986 1.391 . S
H3988 C3996 0.950 . S
H3989 C4001 0.950 . S
H3990 C3998 0.950 . S
H3991 C4000 0.950 . S
H3992 C4002 0.950 . S
H3993 C4004 0.950 . S
H3994 C4006 0.950 . S
H3995 C4007 0.950 . S
C3996 H3988 0.950 . S
C3996 C3997 1.386 . S
C3996 C3998 1.391 . S
C3997 C3996 1.386 . S
C3997 C4001 1.393 . S
C3998 H3990 0.950 . S
C3998 C3996 1.391 . S
C3998 C3999 1.400 . S
C3999 C3998 1.400 . S
C3999 C4000 1.398 . S
C3999 C4005 1.491 . S
C4000 H3991 0.950 . S
C4000 C3999 1.398 . S
C4000 C4001 1.391 . S
C4001 H3989 0.950 . S
C4001 C3997 1.393 . S
C4001 C4000 1.391 . S
C4002 H3992 0.950 . S
C4002 C4003 1.386 . S
C4002 C4004 1.391 . S
C4003 C4002 1.386 . S
C4003 C4007 1.393 . S
C4004 H3993 0.950 . S
C4004 C4002 1.391 . S
C4004 C4005 1.400 . S
C4005 C3999 1.491 . S
C4005 C4004 1.400 . S
C4005 C4006 1.398 . S
C4006 H3994 0.950 . S
C4006 C4005 1.398 . S
C4006 C4007 1.391 . S
C4007 H3995 0.950 . S
C4007 C4003 1.393 . S
C4007 C4006 1.391 . S
H4008 C4016 0.950 . S
H4009 C4021 0.950 . S
H4010 C4018 0.950 . S
H4011 C4020 0.950 . S
H4012 C4022 0.950 . S
H4013 C4024 0.950 . S
H4014 C4026 0.950 . S
H4015 C4027 0.950 . S
C4016 H4008 0.950 . S
C4016 C4017 1.386 . S
C4016 C4018 1.391 . S
C4017 C4016 1.386 . S
C4017 C4021 1.393 . S
C4018 H4010 0.950 . S
C4018 C4016 1.391 . S
C4018 C4019 1.400 . S
C4019 C4018 1.400 . S
C4019 C4020 1.398 . S
C4019 C4025 1.491 . S
C4020 H4011 0.950 . S
C4020 C4019 1.398 . S
C4020 C4021 1.391 . S
C4021 H4009 0.950 . S
C4021 C4017 1.393 . S
C4021 C4020 1.391 . S
C4022 H4012 0.950 . S
C4022 C4023 1.386 . S
C4022 C4024 1.391 . S
C4023 C4022 1.386 . S
C4023 C4027 1.393 . S
C4024 H4013 0.950 . S
C4024 C4022 1.391 . S
C4024 C4025 1.400 . S
C4025 C4019 1.491 . S
C4025 C4024 1.400 . S
C4025 C4026 1.398 . S
C4026 H4014 0.950 . S
C4026 C4025 1.398 . S
C4026 C4027 1.391 . S
C4027 H4015 0.950 . S
C4027 C4023 1.393 . S
C4027 C4026 1.391 . S
H4028 C4036 0.950 . S
H4029 C4041 0.950 . S
H4030 C4038 0.950 . S
H4031 C4040 0.950 . S
H4032 C4042 0.950 . S
H4033 C4044 0.950 . S
H4034 C4046 0.950 . S
H4035 C4047 0.950 . S
C4036 H4028 0.950 . S
C4036 C4037 1.386 . S
C4036 C4038 1.391 . S
C4037 C4036 1.386 . S
C4037 C4041 1.393 . S
C4038 H4030 0.950 . S
C4038 C4036 1.391 . S
C4038 C4039 1.400 . S
C4039 C4038 1.400 . S
C4039 C4040 1.398 . S
C4039 C4045 1.491 . S
C4040 H4031 0.950 . S
C4040 C4039 1.398 . S
C4040 C4041 1.391 . S
C4041 H4029 0.950 . S
C4041 C4037 1.393 . S
C4041 C4040 1.391 . S
C4042 H4032 0.950 . S
C4042 C4043 1.386 . S
C4042 C4044 1.391 . S
C4043 C4042 1.386 . S
C4043 C4047 1.393 . S
C4044 H4033 0.950 . S
C4044 C4042 1.391 . S
C4044 C4045 1.400 . S
C4045 C4039 1.491 . S
C4045 C4044 1.400 . S
C4045 C4046 1.398 . S
C4046 H4034 0.950 . S
C4046 C4045 1.398 . S
C4046 C4047 1.391 . S
C4047 H4035 0.950 . S
C4047 C4043 1.393 . S
C4047 C4046 1.391 . S
H4048 C4056 0.950 . S
H4049 C4061 0.950 . S
H4050 C4058 0.950 . S
H4051 C4060 0.950 . S
H4052 C4062 0.950 . S
H4053 C4064 0.950 . S
H4054 C4066 0.950 . S
H4055 C4067 0.950 . S
C4056 H4048 0.950 . S
C4056 C4057 1.386 . S
C4056 C4058 1.391 . S
C4057 C4056 1.386 . S
C4057 C4061 1.393 . S
C4058 H4050 0.950 . S
C4058 C4056 1.391 . S
C4058 C4059 1.400 . S
C4059 C4058 1.400 . S
C4059 C4060 1.398 . S
C4059 C4065 1.491 . S
C4060 H4051 0.950 . S
C4060 C4059 1.398 . S
C4060 C4061 1.391 . S
C4061 H4049 0.950 . S
C4061 C4057 1.393 . S
C4061 C4060 1.391 . S
C4062 H4052 0.950 . S
C4062 C4063 1.386 . S
C4062 C4064 1.391 . S
C4063 C4062 1.386 . S
C4063 C4067 1.393 . S
C4064 H4053 0.950 . S
C4064 C4062 1.391 . S
C4064 C4065 1.400 . S
C4065 C4059 1.491 . S
C4065 C4064 1.400 . S
C4065 C4066 1.398 . S
C4066 H4054 0.950 . S
C4066 C4065 1.398 . S
C4066 C4067 1.391 . S
C4067 H4055 0.950 . S
C4067 C4063 1.393 . S
C4067 C4066 1.391 . S
H4068 C4076 0.950 . S
H4069 C4081 0.950 . S
H4070 C4078 0.950 . S
H4071 C4080 0.950 . S
H4072 C4082 0.950 . S
H4073 C4084 0.950 . S
H4074 C4086 0.950 . S
H4075 C4087 0.950 . S
C4076 H4068 0.950 . S
C4076 C4077 1.386 . S
C4076 C4078 1.391 . S
C4077 C4076 1.386 . S
C4077 C4081 1.393 . S
C4078 H4070 0.950 . S
C4078 C4076 1.391 . S
C4078 C4079 1.400 . S
C4079 C4078 1.400 . S
C4079 C4080 1.398 . S
C4079 C4085 1.491 . S
C4080 H4071 0.950 . S
C4080 C4079 1.398 . S
C4080 C4081 1.391 . S
C4081 H4069 0.950 . S
C4081 C4077 1.393 . S
C4081 C4080 1.391 . S
C4082 H4072 0.950 . S
C4082 C4083 1.386 . S
C4082 C4084 1.391 . S
C4083 C4082 1.386 . S
C4083 C4087 1.393 . S
C4084 H4073 0.950 . S
C4084 C4082 1.391 . S
C4084 C4085 1.400 . S
C4085 C4079 1.491 . S
C4085 C4084 1.400 . S
C4085 C4086 1.398 . S
C4086 H4074 0.950 . S
C4086 C4085 1.398 . S
C4086 C4087 1.391 . S
C4087 H4075 0.950 . S
C4087 C4083 1.393 . S
C4087 C4086 1.391 . S
H4088 C4096 0.950 . S
H4089 C4101 0.950 . S
H4090 C4098 0.950 . S
H4091 C4100 0.950 . S
H4092 C4102 0.950 . S
H4093 C4104 0.950 . S
H4094 C4106 0.950 . S
H4095 C4107 0.950 . S
C4096 H4088 0.950 . S
C4096 C4097 1.386 . S
C4096 C4098 1.391 . S
C4097 C4096 1.386 . S
C4097 C4101 1.393 . S
C4098 H4090 0.950 . S
C4098 C4096 1.391 . S
C4098 C4099 1.400 . S
C4099 C4098 1.400 . S
C4099 C4100 1.398 . S
C4099 C4105 1.491 . S
C4100 H4091 0.950 . S
C4100 C4099 1.398 . S
C4100 C4101 1.391 . S
C4101 H4089 0.950 . S
C4101 C4097 1.393 . S
C4101 C4100 1.391 . S
C4102 H4092 0.950 . S
C4102 C4103 1.386 . S
C4102 C4104 1.391 . S
C4103 C4102 1.386 . S
C4103 C4107 1.393 . S
C4104 H4093 0.950 . S
C4104 C4102 1.391 . S
C4104 C4105 1.400 . S
C4105 C4099 1.491 . S
C4105 C4104 1.400 . S
C4105 C4106 1.398 . S
C4106 H4094 0.950 . S
C4106 C4105 1.398 . S
C4106 C4107 1.391 . S
C4107 H4095 0.950 . S
C4107 C4103 1.393 . S
C4107 C4106 1.391 . S
H4108 C4116 0.950 . S
H4109 C4121 0.950 . S
H4110 C4118 0.950 . S
H4111 C4120 0.950 . S
H4112 C4122 0.950 . S
H4113 C4124 0.950 . S
H4114 C4126 0.950 . S
H4115 C4127 0.950 . S
C4116 H4108 0.950 . S
C4116 C4117 1.386 . S
C4116 C4118 1.391 . S
C4117 C4116 1.386 . S
C4117 C4121 1.393 . S
C4118 H4110 0.950 . S
C4118 C4116 1.391 . S
C4118 C4119 1.400 . S
C4119 C4118 1.400 . S
C4119 C4120 1.398 . S
C4119 C4125 1.491 . S
C4120 H4111 0.950 . S
C4120 C4119 1.398 . S
C4120 C4121 1.391 . S
C4121 H4109 0.950 . S
C4121 C4117 1.393 . S
C4121 C4120 1.391 . S
C4122 H4112 0.950 . S
C4122 C4123 1.386 . S
C4122 C4124 1.391 . S
C4123 C4122 1.386 . S
C4123 C4127 1.393 . S
C4124 H4113 0.950 . S
C4124 C4122 1.391 . S
C4124 C4125 1.400 . S
C4125 C4119 1.491 . S
C4125 C4124 1.400 . S
C4125 C4126 1.398 . S
C4126 H4114 0.950 . S
C4126 C4125 1.398 . S
C4126 C4127 1.391 . S
C4127 H4115 0.950 . S
C4127 C4123 1.393 . S
C4127 C4126 1.391 . S
H4128 C4136 0.950 . S
H4129 C4141 0.950 . S
H4130 C4138 0.950 . S
H4131 C4140 0.950 . S
H4132 C4142 0.950 . S
H4133 C4144 0.950 . S
H4134 C4146 0.950 . S
H4135 C4147 0.950 . S
C4136 H4128 0.950 . S
C4136 C4137 1.386 . S
C4136 C4138 1.391 . S
C4137 C4136 1.386 . S
C4137 C4141 1.393 . S
C4138 H4130 0.950 . S
C4138 C4136 1.391 . S
C4138 C4139 1.400 . S
C4139 C4138 1.400 . S
C4139 C4140 1.398 . S
C4139 C4145 1.491 . S
C4140 H4131 0.950 . S
C4140 C4139 1.398 . S
C4140 C4141 1.391 . S
C4141 H4129 0.950 . S
C4141 C4137 1.393 . S
C4141 C4140 1.391 . S
C4142 H4132 0.950 . S
C4142 C4143 1.386 . S
C4142 C4144 1.391 . S
C4143 C4142 1.386 . S
C4143 C4147 1.393 . S
C4144 H4133 0.950 . S
C4144 C4142 1.391 . S
C4144 C4145 1.400 . S
C4145 C4139 1.491 . S
C4145 C4144 1.400 . S
C4145 C4146 1.398 . S
C4146 H4134 0.950 . S
C4146 C4145 1.398 . S
C4146 C4147 1.391 . S
C4147 H4135 0.950 . S
C4147 C4143 1.393 . S
C4147 C4146 1.391 . S
H4148 C4156 0.950 . S
H4149 C4161 0.950 . S
H4150 C4158 0.950 . S
H4151 C4160 0.950 . S
H4152 C4162 0.950 . S
H4153 C4164 0.950 . S
H4154 C4166 0.950 . S
H4155 C4167 0.950 . S
C4156 H4148 0.950 . S
C4156 C4157 1.386 . S
C4156 C4158 1.391 . S
C4157 C4156 1.386 . S
C4157 C4161 1.393 . S
C4158 H4150 0.950 . S
C4158 C4156 1.391 . S
C4158 C4159 1.400 . S
C4159 C4158 1.400 . S
C4159 C4160 1.398 . S
C4159 C4165 1.491 . S
C4160 H4151 0.950 . S
C4160 C4159 1.398 . S
C4160 C4161 1.391 . S
C4161 H4149 0.950 . S
C4161 C4157 1.393 . S
C4161 C4160 1.391 . S
C4162 H4152 0.950 . S
C4162 C4163 1.386 . S
C4162 C4164 1.391 . S
C4163 C4162 1.386 . S
C4163 C4167 1.393 . S
C4164 H4153 0.950 . S
C4164 C4162 1.391 . S
C4164 C4165 1.400 . S
C4165 C4159 1.491 . S
C4165 C4164 1.400 . S
C4165 C4166 1.398 . S
C4166 H4154 0.950 . S
C4166 C4165 1.398 . S
C4166 C4167 1.391 . S
C4167 H4155 0.950 . S
C4167 C4163 1.393 . S
C4167 C4166 1.391 . S
H4168 C4176 0.950 . S
H4169 C4181 0.950 . S
H4170 C4178 0.950 . S
H4171 C4180 0.950 . S
H4172 C4182 0.950 . S
H4173 C4184 0.950 . S
H4174 C4186 0.950 . S
H4175 C4187 0.950 . S
C4176 H4168 0.950 . S
C4176 C4177 1.386 . S
C4176 C4178 1.391 . S
C4177 C4176 1.386 . S
C4177 C4181 1.393 . S
C4178 H4170 0.950 . S
C4178 C4176 1.391 . S
C4178 C4179 1.400 . S
C4179 C4178 1.400 . S
C4179 C4180 1.398 . S
C4179 C4185 1.491 . S
C4180 H4171 0.950 . S
C4180 C4179 1.398 . S
C4180 C4181 1.391 . S
C4181 H4169 0.950 . S
C4181 C4177 1.393 . S
C4181 C4180 1.391 . S
C4182 H4172 0.950 . S
C4182 C4183 1.386 . S
C4182 C4184 1.391 . S
C4183 C4182 1.386 . S
C4183 C4187 1.393 . S
C4184 H4173 0.950 . S
C4184 C4182 1.391 . S
C4184 C4185 1.400 . S
C4185 C4179 1.491 . S
C4185 C4184 1.400 . S
C4185 C4186 1.398 . S
C4186 H4174 0.950 . S
C4186 C4185 1.398 . S
C4186 C4187 1.391 . S
C4187 H4175 0.950 . S
C4187 C4183 1.393 . S
C4187 C4186 1.391 . S
H4188 C4196 0.950 . S
H4189 C4201 0.950 . S
H4190 C4198 0.950 . S
H4191 C4200 0.950 . S
H4192 C4202 0.950 . S
H4193 C4204 0.950 . S
H4194 C4206 0.950 . S
H4195 C4207 0.950 . S
C4196 H4188 0.950 . S
C4196 C4197 1.386 . S
C4196 C4198 1.391 . S
C4197 C4196 1.386 . S
C4197 C4201 1.393 . S
C4198 H4190 0.950 . S
C4198 C4196 1.391 . S
C4198 C4199 1.400 . S
C4199 C4198 1.400 . S
C4199 C4200 1.398 . S
C4199 C4205 1.491 . S
C4200 H4191 0.950 . S
C4200 C4199 1.398 . S
C4200 C4201 1.391 . S
C4201 H4189 0.950 . S
C4201 C4197 1.393 . S
C4201 C4200 1.391 . S
C4202 H4192 0.950 . S
C4202 C4203 1.386 . S
C4202 C4204 1.391 . S
C4203 C4202 1.386 . S
C4203 C4207 1.393 . S
C4204 H4193 0.950 . S
C4204 C4202 1.391 . S
C4204 C4205 1.400 . S
C4205 C4199 1.491 . S
C4205 C4204 1.400 . S
C4205 C4206 1.398 . S
C4206 H4194 0.950 . S
C4206 C4205 1.398 . S
C4206 C4207 1.391 . S
C4207 H4195 0.950 . S
C4207 C4203 1.393 . S
C4207 C4206 1.391 . S
H4208 C4216 0.950 . S
H4209 C4221 0.950 . S
H4210 C4218 0.950 . S
H4211 C4220 0.950 . S
H4212 C4222 0.950 . S
H4213 C4224 0.950 . S
H4214 C4226 0.950 . S
H4215 C4227 0.950 . S
C4216 H4208 0.950 . S
C4216 C4217 1.386 . S
C4216 C4218 1.391 . S
C4217 C4216 1.386 . S
C4217 C4221 1.393 . S
C4218 H4210 0.950 . S
C4218 C4216 1.391 . S
C4218 C4219 1.400 . S
C4219 C4218 1.400 . S
C4219 C4220 1.398 . S
C4219 C4225 1.491 . S
C4220 H4211 0.950 . S
C4220 C4219 1.398 . S
C4220 C4221 1.391 . S
C4221 H4209 0.950 . S
C4221 C4217 1.393 . S
C4221 C4220 1.391 . S
C4222 H4212 0.950 . S
C4222 C4223 1.386 . S
C4222 C4224 1.391 . S
C4223 C4222 1.386 . S
C4223 C4227 1.393 . S
C4224 H4213 0.950 . S
C4224 C4222 1.391 . S
C4224 C4225 1.400 . S
C4225 C4219 1.491 . S
C4225 C4224 1.400 . S
C4225 C4226 1.398 . S
C4226 H4214 0.950 . S
C4226 C4225 1.398 . S
C4226 C4227 1.391 . S
C4227 H4215 0.950 . S
C4227 C4223 1.393 . S
C4227 C4226 1.391 . S
H4228 C4236 0.950 . S
H4229 C4241 0.950 . S
H4230 C4238 0.950 . S
H4231 C4240 0.950 . S
H4232 C4242 0.950 . S
H4233 C4244 0.950 . S
H4234 C4246 0.950 . S
H4235 C4247 0.950 . S
C4236 H4228 0.950 . S
C4236 C4237 1.386 . S
C4236 C4238 1.391 . S
C4237 C4236 1.386 . S
C4237 C4241 1.393 . S
C4238 H4230 0.950 . S
C4238 C4236 1.391 . S
C4238 C4239 1.400 . S
C4239 C4238 1.400 . S
C4239 C4240 1.398 . S
C4239 C4245 1.491 . S
C4240 H4231 0.950 . S
C4240 C4239 1.398 . S
C4240 C4241 1.391 . S
C4241 H4229 0.950 . S
C4241 C4237 1.393 . S
C4241 C4240 1.391 . S
C4242 H4232 0.950 . S
C4242 C4243 1.386 . S
C4242 C4244 1.391 . S
C4243 C4242 1.386 . S
C4243 C4247 1.393 . S
C4244 H4233 0.950 . S
C4244 C4242 1.391 . S
C4244 C4245 1.400 . S
C4245 C4239 1.491 . S
C4245 C4244 1.400 . S
C4245 C4246 1.398 . S
C4246 H4234 0.950 . S
C4246 C4245 1.398 . S
C4246 C4247 1.391 . S
C4247 H4235 0.950 . S
C4247 C4243 1.393 . S
C4247 C4246 1.391 . S
H4248 C4256 0.950 . S
H4249 C4261 0.950 . S
H4250 C4258 0.950 . S
H4251 C4260 0.950 . S
H4252 C4262 0.950 . S
H4253 C4264 0.950 . S
H4254 C4266 0.950 . S
H4255 C4267 0.950 . S
C4256 H4248 0.950 . S
C4256 C4257 1.386 . S
C4256 C4258 1.391 . S
C4257 C4256 1.386 . S
C4257 C4261 1.393 . S
C4258 H4250 0.950 . S
C4258 C4256 1.391 . S
C4258 C4259 1.400 . S
C4259 C4258 1.400 . S
C4259 C4260 1.398 . S
C4259 C4265 1.491 . S
C4260 H4251 0.950 . S
C4260 C4259 1.398 . S
C4260 C4261 1.391 . S
C4261 H4249 0.950 . S
C4261 C4257 1.393 . S
C4261 C4260 1.391 . S
C4262 H4252 0.950 . S
C4262 C4263 1.386 . S
C4262 C4264 1.391 . S
C4263 C4262 1.386 . S
C4263 C4267 1.393 . S
C4264 H4253 0.950 . S
C4264 C4262 1.391 . S
C4264 C4265 1.400 . S
C4265 C4259 1.491 . S
C4265 C4264 1.400 . S
C4265 C4266 1.398 . S
C4266 H4254 0.950 . S
C4266 C4265 1.398 . S
C4266 C4267 1.391 . S
C4267 H4255 0.950 . S
C4267 C4263 1.393 . S
C4267 C4266 1.391 . S
H4268 C4276 0.950 . S
H4269 C4281 0.950 . S
H4270 C4278 0.950 . S
H4271 C4280 0.950 . S
H4272 C4282 0.950 . S
H4273 C4284 0.950 . S
H4274 C4286 0.950 . S
H4275 C4287 0.950 . S
C4276 H4268 0.950 . S
C4276 C4277 1.386 . S
C4276 C4278 1.391 . S
C4277 C4276 1.386 . S
C4277 C4281 1.393 . S
C4278 H4270 0.950 . S
C4278 C4276 1.391 . S
C4278 C4279 1.400 . S
C4279 C4278 1.400 . S
C4279 C4280 1.398 . S
C4279 C4285 1.491 . S
C4280 H4271 0.950 . S
C4280 C4279 1.398 . S
C4280 C4281 1.391 . S
C4281 H4269 0.950 . S
C4281 C4277 1.393 . S
C4281 C4280 1.391 . S
C4282 H4272 0.950 . S
C4282 C4283 1.386 . S
C4282 C4284 1.391 . S
C4283 C4282 1.386 . S
C4283 C4287 1.393 . S
C4284 H4273 0.950 . S
C4284 C4282 1.391 . S
C4284 C4285 1.400 . S
C4285 C4279 1.491 . S
C4285 C4284 1.400 . S
C4285 C4286 1.398 . S
C4286 H4274 0.950 . S
C4286 C4285 1.398 . S
C4286 C4287 1.391 . S
C4287 H4275 0.950 . S
C4287 C4283 1.393 . S
C4287 C4286 1.391 . S
H4288 C4296 0.950 . S
H4289 C4301 0.950 . S
H4290 C4298 0.950 . S
H4291 C4300 0.950 . S
H4292 C4302 0.950 . S
H4293 C4304 0.950 . S
H4294 C4306 0.950 . S
H4295 C4307 0.950 . S
C4296 H4288 0.950 . S
C4296 C4297 1.386 . S
C4296 C4298 1.391 . S
C4297 C4296 1.386 . S
C4297 C4301 1.393 . S
C4298 H4290 0.950 . S
C4298 C4296 1.391 . S
C4298 C4299 1.400 . S
C4299 C4298 1.400 . S
C4299 C4300 1.398 . S
C4299 C4305 1.491 . S
C4300 H4291 0.950 . S
C4300 C4299 1.398 . S
C4300 C4301 1.391 . S
C4301 H4289 0.950 . S
C4301 C4297 1.393 . S
C4301 C4300 1.391 . S
C4302 H4292 0.950 . S
C4302 C4303 1.386 . S
C4302 C4304 1.391 . S
C4303 C4302 1.386 . S
C4303 C4307 1.393 . S
C4304 H4293 0.950 . S
C4304 C4302 1.391 . S
C4304 C4305 1.400 . S
C4305 C4299 1.491 . S
C4305 C4304 1.400 . S
C4305 C4306 1.398 . S
C4306 H4294 0.950 . S
C4306 C4305 1.398 . S
C4306 C4307 1.391 . S
C4307 H4295 0.950 . S
C4307 C4303 1.393 . S
C4307 C4306 1.391 . S
H4308 C4316 0.950 . S
H4309 C4321 0.950 . S
H4310 C4318 0.950 . S
H4311 C4320 0.950 . S
H4312 C4322 0.950 . S
H4313 C4324 0.950 . S
H4314 C4326 0.950 . S
H4315 C4327 0.950 . S
C4316 H4308 0.950 . S
C4316 C4317 1.386 . S
C4316 C4318 1.391 . S
C4317 C4316 1.386 . S
C4317 C4321 1.393 . S
C4318 H4310 0.950 . S
C4318 C4316 1.391 . S
C4318 C4319 1.400 . S
C4319 C4318 1.400 . S
C4319 C4320 1.398 . S
C4319 C4325 1.491 . S
C4320 H4311 0.950 . S
C4320 C4319 1.398 . S
C4320 C4321 1.391 . S
C4321 H4309 0.950 . S
C4321 C4317 1.393 . S
C4321 C4320 1.391 . S
C4322 H4312 0.950 . S
C4322 C4323 1.386 . S
C4322 C4324 1.391 . S
C4323 C4322 1.386 . S
C4323 C4327 1.393 . S
C4324 H4313 0.950 . S
C4324 C4322 1.391 . S
C4324 C4325 1.400 . S
C4325 C4319 1.491 . S
C4325 C4324 1.400 . S
C4325 C4326 1.398 . S
C4326 H4314 0.950 . S
C4326 C4325 1.398 . S
C4326 C4327 1.391 . S
C4327 H4315 0.950 . S
C4327 C4323 1.393 . S
C4327 C4326 1.391 . S
H4328 C4336 0.950 . S
H4329 C4341 0.950 . S
H4330 C4338 0.950 . S
H4331 C4340 0.950 . S
H4332 C4342 0.950 . S
H4333 C4344 0.950 . S
H4334 C4346 0.950 . S
H4335 C4347 0.950 . S
C4336 H4328 0.950 . S
C4336 C4337 1.386 . S
C4336 C4338 1.391 . S
C4337 C4336 1.386 . S
C4337 C4341 1.393 . S
C4338 H4330 0.950 . S
C4338 C4336 1.391 . S
C4338 C4339 1.400 . S
C4339 C4338 1.400 . S
C4339 C4340 1.398 . S
C4339 C4345 1.491 . S
C4340 H4331 0.950 . S
C4340 C4339 1.398 . S
C4340 C4341 1.391 . S
C4341 H4329 0.950 . S
C4341 C4337 1.393 . S
C4341 C4340 1.391 . S
C4342 H4332 0.950 . S
C4342 C4343 1.386 . S
C4342 C4344 1.391 . S
C4343 C4342 1.386 . S
C4343 C4347 1.393 . S
C4344 H4333 0.950 . S
C4344 C4342 1.391 . S
C4344 C4345 1.400 . S
C4345 C4339 1.491 . S
C4345 C4344 1.400 . S
C4345 C4346 1.398 . S
C4346 H4334 0.950 . S
C4346 C4345 1.398 . S
C4346 C4347 1.391 . S
C4347 H4335 0.950 . S
C4347 C4343 1.393 . S
C4347 C4346 1.391 . S
H4348 C4356 0.950 . S
H4349 C4361 0.950 . S
H4350 C4358 0.950 . S
H4351 C4360 0.950 . S
H4352 C4362 0.950 . S
H4353 C4364 0.950 . S
H4354 C4366 0.950 . S
H4355 C4367 0.950 . S
C4356 H4348 0.950 . S
C4356 C4357 1.386 . S
C4356 C4358 1.391 . S
C4357 C4356 1.386 . S
C4357 C4361 1.393 . S
C4358 H4350 0.950 . S
C4358 C4356 1.391 . S
C4358 C4359 1.400 . S
C4359 C4358 1.400 . S
C4359 C4360 1.398 . S
C4359 C4365 1.491 . S
C4360 H4351 0.950 . S
C4360 C4359 1.398 . S
C4360 C4361 1.391 . S
C4361 H4349 0.950 . S
C4361 C4357 1.393 . S
C4361 C4360 1.391 . S
C4362 H4352 0.950 . S
C4362 C4363 1.386 . S
C4362 C4364 1.391 . S
C4363 C4362 1.386 . S
C4363 C4367 1.393 . S
C4364 H4353 0.950 . S
C4364 C4362 1.391 . S
C4364 C4365 1.400 . S
C4365 C4359 1.491 . S
C4365 C4364 1.400 . S
C4365 C4366 1.398 . S
C4366 H4354 0.950 . S
C4366 C4365 1.398 . S
C4366 C4367 1.391 . S
C4367 H4355 0.950 . S
C4367 C4363 1.393 . S
C4367 C4366 1.391 . S
H4368 C4376 0.950 . S
H4369 C4381 0.950 . S
H4370 C4378 0.950 . S
H4371 C4380 0.950 . S
H4372 C4382 0.950 . S
H4373 C4384 0.950 . S
H4374 C4386 0.950 . S
H4375 C4387 0.950 . S
C4376 H4368 0.950 . S
C4376 C4377 1.386 . S
C4376 C4378 1.391 . S
C4377 C4376 1.386 . S
C4377 C4381 1.393 . S
C4378 H4370 0.950 . S
C4378 C4376 1.391 . S
C4378 C4379 1.400 . S
C4379 C4378 1.400 . S
C4379 C4380 1.398 . S
C4379 C4385 1.491 . S
C4380 H4371 0.950 . S
C4380 C4379 1.398 . S
C4380 C4381 1.391 . S
C4381 H4369 0.950 . S
C4381 C4377 1.393 . S
C4381 C4380 1.391 . S
C4382 H4372 0.950 . S
C4382 C4383 1.386 . S
C4382 C4384 1.391 . S
C4383 C4382 1.386 . S
C4383 C4387 1.393 . S
C4384 H4373 0.950 . S
C4384 C4382 1.391 . S
C4384 C4385 1.400 . S
C4385 C4379 1.491 . S
C4385 C4384 1.400 . S
C4385 C4386 1.398 . S
C4386 H4374 0.950 . S
C4386 C4385 1.398 . S
C4386 C4387 1.391 . S
C4387 H4375 0.950 . S
C4387 C4383 1.393 . S
C4387 C4386 1.391 . S
H4388 C4396 0.950 . S
H4389 C4401 0.950 . S
H4390 C4398 0.950 . S
H4391 C4400 0.950 . S
H4392 C4402 0.950 . S
H4393 C4404 0.950 . S
H4394 C4406 0.950 . S
H4395 C4407 0.950 . S
C4396 H4388 0.950 . S
C4396 C4397 1.386 . S
C4396 C4398 1.391 . S
C4397 C4396 1.386 . S
C4397 C4401 1.393 . S
C4398 H4390 0.950 . S
C4398 C4396 1.391 . S
C4398 C4399 1.400 . S
C4399 C4398 1.400 . S
C4399 C4400 1.398 . S
C4399 C4405 1.491 . S
C4400 H4391 0.950 . S
C4400 C4399 1.398 . S
C4400 C4401 1.391 . S
C4401 H4389 0.950 . S
C4401 C4397 1.393 . S
C4401 C4400 1.391 . S
C4402 H4392 0.950 . S
C4402 C4403 1.386 . S
C4402 C4404 1.391 . S
C4403 C4402 1.386 . S
C4403 C4407 1.393 . S
C4404 H4393 0.950 . S
C4404 C4402 1.391 . S
C4404 C4405 1.400 . S
C4405 C4399 1.491 . S
C4405 C4404 1.400 . S
C4405 C4406 1.398 . S
C4406 H4394 0.950 . S
C4406 C4405 1.398 . S
C4406 C4407 1.391 . S
C4407 H4395 0.950 . S
C4407 C4403 1.393 . S
C4407 C4406 1.391 . S
H4408 C4416 0.950 . S
H4409 C4421 0.950 . S
H4410 C4418 0.950 . S
H4411 C4420 0.950 . S
H4412 C4422 0.950 . S
H4413 C4424 0.950 . S
H4414 C4426 0.950 . S
H4415 C4427 0.950 . S
C4416 H4408 0.950 . S
C4416 C4417 1.386 . S
C4416 C4418 1.391 . S
C4417 C4416 1.386 . S
C4417 C4421 1.393 . S
C4418 H4410 0.950 . S
C4418 C4416 1.391 . S
C4418 C4419 1.400 . S
C4419 C4418 1.400 . S
C4419 C4420 1.398 . S
C4419 C4425 1.491 . S
C4420 H4411 0.950 . S
C4420 C4419 1.398 . S
C4420 C4421 1.391 . S
C4421 H4409 0.950 . S
C4421 C4417 1.393 . S
C4421 C4420 1.391 . S
C4422 H4412 0.950 . S
C4422 C4423 1.386 . S
C4422 C4424 1.391 . S
C4423 C4422 1.386 . S
C4423 C4427 1.393 . S
C4424 H4413 0.950 . S
C4424 C4422 1.391 . S
C4424 C4425 1.400 . S
C4425 C4419 1.491 . S
C4425 C4424 1.400 . S
C4425 C4426 1.398 . S
C4426 H4414 0.950 . S
C4426 C4425 1.398 . S
C4426 C4427 1.391 . S
C4427 H4415 0.950 . S
C4427 C4423 1.393 . S
C4427 C4426 1.391 . S
H4428 C4436 0.950 . S
H4429 C4441 0.950 . S
H4430 C4438 0.950 . S
H4431 C4440 0.950 . S
H4432 C4442 0.950 . S
H4433 C4444 0.950 . S
H4434 C4446 0.950 . S
H4435 C4447 0.950 . S
C4436 H4428 0.950 . S
C4436 C4437 1.386 . S
C4436 C4438 1.391 . S
C4437 C4436 1.386 . S
C4437 C4441 1.393 . S
C4438 H4430 0.950 . S
C4438 C4436 1.391 . S
C4438 C4439 1.400 . S
C4439 C4438 1.400 . S
C4439 C4440 1.398 . S
C4439 C4445 1.491 . S
C4440 H4431 0.950 . S
C4440 C4439 1.398 . S
C4440 C4441 1.391 . S
C4441 H4429 0.950 . S
C4441 C4437 1.393 . S
C4441 C4440 1.391 . S
C4442 H4432 0.950 . S
C4442 C4443 1.386 . S
C4442 C4444 1.391 . S
C4443 C4442 1.386 . S
C4443 C4447 1.393 . S
C4444 H4433 0.950 . S
C4444 C4442 1.391 . S
C4444 C4445 1.400 . S
C4445 C4439 1.491 . S
C4445 C4444 1.400 . S
C4445 C4446 1.398 . S
C4446 H4434 0.950 . S
C4446 C4445 1.398 . S
C4446 C4447 1.391 . S
C4447 H4435 0.950 . S
C4447 C4443 1.393 . S
C4447 C4446 1.391 . S
H4448 C4456 0.950 . S
H4449 C4461 0.950 . S
H4450 C4458 0.950 . S
H4451 C4460 0.950 . S
H4452 C4462 0.950 . S
H4453 C4464 0.950 . S
H4454 C4466 0.950 . S
H4455 C4467 0.950 . S
C4456 H4448 0.950 . S
C4456 C4457 1.386 . S
C4456 C4458 1.391 . S
C4457 C4456 1.386 . S
C4457 C4461 1.393 . S
C4458 H4450 0.950 . S
C4458 C4456 1.391 . S
C4458 C4459 1.400 . S
C4459 C4458 1.400 . S
C4459 C4460 1.398 . S
C4459 C4465 1.491 . S
C4460 H4451 0.950 . S
C4460 C4459 1.398 . S
C4460 C4461 1.391 . S
C4461 H4449 0.950 . S
C4461 C4457 1.393 . S
C4461 C4460 1.391 . S
C4462 H4452 0.950 . S
C4462 C4463 1.386 . S
C4462 C4464 1.391 . S
C4463 C4462 1.386 . S
C4463 C4467 1.393 . S
C4464 H4453 0.950 . S
C4464 C4462 1.391 . S
C4464 C4465 1.400 . S
C4465 C4459 1.491 . S
C4465 C4464 1.400 . S
C4465 C4466 1.398 . S
C4466 H4454 0.950 . S
C4466 C4465 1.398 . S
C4466 C4467 1.391 . S
C4467 H4455 0.950 . S
C4467 C4463 1.393 . S
C4467 C4466 1.391 . S
H4468 C4476 0.950 . S
H4469 C4481 0.950 . S
H4470 C4478 0.950 . S
H4471 C4480 0.950 . S
H4472 C4482 0.950 . S
H4473 C4484 0.950 . S
H4474 C4486 0.950 . S
H4475 C4487 0.950 . S
C4476 H4468 0.950 . S
C4476 C4477 1.386 . S
C4476 C4478 1.391 . S
C4477 C4476 1.386 . S
C4477 C4481 1.393 . S
C4478 H4470 0.950 . S
C4478 C4476 1.391 . S
C4478 C4479 1.400 . S
C4479 C4478 1.400 . S
C4479 C4480 1.398 . S
C4479 C4485 1.491 . S
C4480 H4471 0.950 . S
C4480 C4479 1.398 . S
C4480 C4481 1.391 . S
C4481 H4469 0.950 . S
C4481 C4477 1.393 . S
C4481 C4480 1.391 . S
C4482 H4472 0.950 . S
C4482 C4483 1.386 . S
C4482 C4484 1.391 . S
C4483 C4482 1.386 . S
C4483 C4487 1.393 . S
C4484 H4473 0.950 . S
C4484 C4482 1.391 . S
C4484 C4485 1.400 . S
C4485 C4479 1.491 . S
C4485 C4484 1.400 . S
C4485 C4486 1.398 . S
C4486 H4474 0.950 . S
C4486 C4485 1.398 . S
C4486 C4487 1.391 . S
C4487 H4475 0.950 . S
C4487 C4483 1.393 . S
C4487 C4486 1.391 . S
H4488 C4496 0.950 . S
H4489 C4501 0.950 . S
H4490 C4498 0.950 . S
H4491 C4500 0.950 . S
H4492 C4502 0.950 . S
H4493 C4504 0.950 . S
H4494 C4506 0.950 . S
H4495 C4507 0.950 . S
C4496 H4488 0.950 . S
C4496 C4497 1.386 . S
C4496 C4498 1.391 . S
C4497 C4496 1.386 . S
C4497 C4501 1.393 . S
C4498 H4490 0.950 . S
C4498 C4496 1.391 . S
C4498 C4499 1.400 . S
C4499 C4498 1.400 . S
C4499 C4500 1.398 . S
C4499 C4505 1.491 . S
C4500 H4491 0.950 . S
C4500 C4499 1.398 . S
C4500 C4501 1.391 . S
C4501 H4489 0.950 . S
C4501 C4497 1.393 . S
C4501 C4500 1.391 . S
C4502 H4492 0.950 . S
C4502 C4503 1.386 . S
C4502 C4504 1.391 . S
C4503 C4502 1.386 . S
C4503 C4507 1.393 . S
C4504 H4493 0.950 . S
C4504 C4502 1.391 . S
C4504 C4505 1.400 . S
C4505 C4499 1.491 . S
C4505 C4504 1.400 . S
C4505 C4506 1.398 . S
C4506 H4494 0.950 . S
C4506 C4505 1.398 . S
C4506 C4507 1.391 . S
C4507 H4495 0.950 . S
C4507 C4503 1.393 . S
C4507 C4506 1.391 . S
H4508 C4516 0.950 . S
H4509 C4521 0.950 . S
H4510 C4518 0.950 . S
H4511 C4520 0.950 . S
H4512 C4522 0.950 . S
H4513 C4524 0.950 . S
H4514 C4526 0.950 . S
H4515 C4527 0.950 . S
C4516 H4508 0.950 . S
C4516 C4517 1.386 . S
C4516 C4518 1.391 . S
C4517 C4516 1.386 . S
C4517 C4521 1.393 . S
C4518 H4510 0.950 . S
C4518 C4516 1.391 . S
C4518 C4519 1.400 . S
C4519 C4518 1.400 . S
C4519 C4520 1.398 . S
C4519 C4525 1.491 . S
C4520 H4511 0.950 . S
C4520 C4519 1.398 . S
C4520 C4521 1.391 . S
C4521 H4509 0.950 . S
C4521 C4517 1.393 . S
C4521 C4520 1.391 . S
C4522 H4512 0.950 . S
C4522 C4523 1.386 . S
C4522 C4524 1.391 . S
C4523 C4522 1.386 . S
C4523 C4527 1.393 . S
C4524 H4513 0.950 . S
C4524 C4522 1.391 . S
C4524 C4525 1.400 . S
C4525 C4519 1.491 . S
C4525 C4524 1.400 . S
C4525 C4526 1.398 . S
C4526 H4514 0.950 . S
C4526 C4525 1.398 . S
C4526 C4527 1.391 . S
C4527 H4515 0.950 . S
C4527 C4523 1.393 . S
C4527 C4526 1.391 . S
H4528 C4536 0.950 . S
H4529 C4541 0.950 . S
H4530 C4538 0.950 . S
H4531 C4540 0.950 . S
H4532 C4542 0.950 . S
H4533 C4544 0.950 . S
H4534 C4546 0.950 . S
H4535 C4547 0.950 . S
C4536 H4528 0.950 . S
C4536 C4537 1.386 . S
C4536 C4538 1.391 . S
C4537 C4536 1.386 . S
C4537 C4541 1.393 . S
C4538 H4530 0.950 . S
C4538 C4536 1.391 . S
C4538 C4539 1.400 . S
C4539 C4538 1.400 . S
C4539 C4540 1.398 . S
C4539 C4545 1.491 . S
C4540 H4531 0.950 . S
C4540 C4539 1.398 . S
C4540 C4541 1.391 . S
C4541 H4529 0.950 . S
C4541 C4537 1.393 . S
C4541 C4540 1.391 . S
C4542 H4532 0.950 . S
C4542 C4543 1.386 . S
C4542 C4544 1.391 . S
C4543 C4542 1.386 . S
C4543 C4547 1.393 . S
C4544 H4533 0.950 . S
C4544 C4542 1.391 . S
C4544 C4545 1.400 . S
C4545 C4539 1.491 . S
C4545 C4544 1.400 . S
C4545 C4546 1.398 . S
C4546 H4534 0.950 . S
C4546 C4545 1.398 . S
C4546 C4547 1.391 . S
C4547 H4535 0.950 . S
C4547 C4543 1.393 . S
C4547 C4546 1.391 . S
H4548 C4556 0.950 . S
H4549 C4561 0.950 . S
H4550 C4558 0.950 . S
H4551 C4560 0.950 . S
H4552 C4562 0.950 . S
H4553 C4564 0.950 . S
H4554 C4566 0.950 . S
H4555 C4567 0.950 . S
C4556 H4548 0.950 . S
C4556 C4557 1.386 . S
C4556 C4558 1.391 . S
C4557 C4556 1.386 . S
C4557 C4561 1.393 . S
C4558 H4550 0.950 . S
C4558 C4556 1.391 . S
C4558 C4559 1.400 . S
C4559 C4558 1.400 . S
C4559 C4560 1.398 . S
C4559 C4565 1.491 . S
C4560 H4551 0.950 . S
C4560 C4559 1.398 . S
C4560 C4561 1.391 . S
C4561 H4549 0.950 . S
C4561 C4557 1.393 . S
C4561 C4560 1.391 . S
C4562 H4552 0.950 . S
C4562 C4563 1.386 . S
C4562 C4564 1.391 . S
C4563 C4562 1.386 . S
C4563 C4567 1.393 . S
C4564 H4553 0.950 . S
C4564 C4562 1.391 . S
C4564 C4565 1.400 . S
C4565 C4559 1.491 . S
C4565 C4564 1.400 . S
C4565 C4566 1.398 . S
C4566 H4554 0.950 . S
C4566 C4565 1.398 . S
C4566 C4567 1.391 . S
C4567 H4555 0.950 . S
C4567 C4563 1.393 . S
C4567 C4566 1.391 . S
H4568 C4576 0.950 . S
H4569 C4581 0.950 . S
H4570 C4578 0.950 . S
H4571 C4580 0.950 . S
H4572 C4582 0.950 . S
H4573 C4584 0.950 . S
H4574 C4586 0.950 . S
H4575 C4587 0.950 . S
C4576 H4568 0.950 . S
C4576 C4577 1.386 . S
C4576 C4578 1.391 . S
C4577 C4576 1.386 . S
C4577 C4581 1.393 . S
C4578 H4570 0.950 . S
C4578 C4576 1.391 . S
C4578 C4579 1.400 . S
C4579 C4578 1.400 . S
C4579 C4580 1.398 . S
C4579 C4585 1.491 . S
C4580 H4571 0.950 . S
C4580 C4579 1.398 . S
C4580 C4581 1.391 . S
C4581 H4569 0.950 . S
C4581 C4577 1.393 . S
C4581 C4580 1.391 . S
C4582 H4572 0.950 . S
C4582 C4583 1.386 . S
C4582 C4584 1.391 . S
C4583 C4582 1.386 . S
C4583 C4587 1.393 . S
C4584 H4573 0.950 . S
C4584 C4582 1.391 . S
C4584 C4585 1.400 . S
C4585 C4579 1.491 . S
C4585 C4584 1.400 . S
C4585 C4586 1.398 . S
C4586 H4574 0.950 . S
C4586 C4585 1.398 . S
C4586 C4587 1.391 . S
C4587 H4575 0.950 . S
C4587 C4583 1.393 . S
C4587 C4586 1.391 . S
H4588 C4596 0.950 . S
H4589 C4601 0.950 . S
H4590 C4598 0.950 . S
H4591 C4600 0.950 . S
H4592 C4602 0.950 . S
H4593 C4604 0.950 . S
H4594 C4606 0.950 . S
H4595 C4607 0.950 . S
C4596 H4588 0.950 . S
C4596 C4597 1.386 . S
C4596 C4598 1.391 . S
C4597 C4596 1.386 . S
C4597 C4601 1.393 . S
C4598 H4590 0.950 . S
C4598 C4596 1.391 . S
C4598 C4599 1.400 . S
C4599 C4598 1.400 . S
C4599 C4600 1.398 . S
C4599 C4605 1.491 . S
C4600 H4591 0.950 . S
C4600 C4599 1.398 . S
C4600 C4601 1.391 . S
C4601 H4589 0.950 . S
C4601 C4597 1.393 . S
C4601 C4600 1.391 . S
C4602 H4592 0.950 . S
C4602 C4603 1.386 . S
C4602 C4604 1.391 . S
C4603 C4602 1.386 . S
C4603 C4607 1.393 . S
C4604 H4593 0.950 . S
C4604 C4602 1.391 . S
C4604 C4605 1.400 . S
C4605 C4599 1.491 . S
C4605 C4604 1.400 . S
C4605 C4606 1.398 . S
C4606 H4594 0.950 . S
C4606 C4605 1.398 . S
C4606 C4607 1.391 . S
C4607 H4595 0.950 . S
C4607 C4603 1.393 . S
C4607 C4606 1.391 . S
H4608 C4616 0.950 . S
H4609 C4621 0.950 . S
H4610 C4618 0.950 . S
H4611 C4620 0.950 . S
H4612 C4622 0.950 . S
H4613 C4624 0.950 . S
H4614 C4626 0.950 . S
H4615 C4627 0.950 . S
C4616 H4608 0.950 . S
C4616 C4617 1.386 . S
C4616 C4618 1.391 . S
C4617 C4616 1.386 . S
C4617 C4621 1.393 . S
C4618 H4610 0.950 . S
C4618 C4616 1.391 . S
C4618 C4619 1.400 . S
C4619 C4618 1.400 . S
C4619 C4620 1.398 . S
C4619 C4625 1.491 . S
C4620 H4611 0.950 . S
C4620 C4619 1.398 . S
C4620 C4621 1.391 . S
C4621 H4609 0.950 . S
C4621 C4617 1.393 . S
C4621 C4620 1.391 . S
C4622 H4612 0.950 . S
C4622 C4623 1.386 . S
C4622 C4624 1.391 . S
C4623 C4622 1.386 . S
C4623 C4627 1.393 . S
C4624 H4613 0.950 . S
C4624 C4622 1.391 . S
C4624 C4625 1.400 . S
C4625 C4619 1.491 . S
C4625 C4624 1.400 . S
C4625 C4626 1.398 . S
C4626 H4614 0.950 . S
C4626 C4625 1.398 . S
C4626 C4627 1.391 . S
C4627 H4615 0.950 . S
C4627 C4623 1.393 . S
C4627 C4626 1.391 . S
H4628 C4636 0.950 . S
H4629 C4641 0.950 . S
H4630 C4638 0.950 . S
H4631 C4640 0.950 . S
H4632 C4642 0.950 . S
H4633 C4644 0.950 . S
H4634 C4646 0.950 . S
H4635 C4647 0.950 . S
C4636 H4628 0.950 . S
C4636 C4637 1.386 . S
C4636 C4638 1.391 . S
C4637 C4636 1.386 . S
C4637 C4641 1.393 . S
C4638 H4630 0.950 . S
C4638 C4636 1.391 . S
C4638 C4639 1.400 . S
C4639 C4638 1.400 . S
C4639 C4640 1.398 . S
C4639 C4645 1.491 . S
C4640 H4631 0.950 . S
C4640 C4639 1.398 . S
C4640 C4641 1.391 . S
C4641 H4629 0.950 . S
C4641 C4637 1.393 . S
C4641 C4640 1.391 . S
C4642 H4632 0.950 . S
C4642 C4643 1.386 . S
C4642 C4644 1.391 . S
C4643 C4642 1.386 . S
C4643 C4647 1.393 . S
C4644 H4633 0.950 . S
C4644 C4642 1.391 . S
C4644 C4645 1.400 . S
C4645 C4639 1.491 . S
C4645 C4644 1.400 . S
C4645 C4646 1.398 . S
C4646 H4634 0.950 . S
C4646 C4645 1.398 . S
C4646 C4647 1.391 . S
C4647 H4635 0.950 . S
C4647 C4643 1.393 . S
C4647 C4646 1.391 . S
H4648 C4656 0.950 . S
H4649 C4661 0.950 . S
H4650 C4658 0.950 . S
H4651 C4660 0.950 . S
H4652 C4662 0.950 . S
H4653 C4664 0.950 . S
H4654 C4666 0.950 . S
H4655 C4667 0.950 . S
C4656 H4648 0.950 . S
C4656 C4657 1.386 . S
C4656 C4658 1.391 . S
C4657 C4656 1.386 . S
C4657 C4661 1.393 . S
C4658 H4650 0.950 . S
C4658 C4656 1.391 . S
C4658 C4659 1.400 . S
C4659 C4658 1.400 . S
C4659 C4660 1.398 . S
C4659 C4665 1.491 . S
C4660 H4651 0.950 . S
C4660 C4659 1.398 . S
C4660 C4661 1.391 . S
C4661 H4649 0.950 . S
C4661 C4657 1.393 . S
C4661 C4660 1.391 . S
C4662 H4652 0.950 . S
C4662 C4663 1.386 . S
C4662 C4664 1.391 . S
C4663 C4662 1.386 . S
C4663 C4667 1.393 . S
C4664 H4653 0.950 . S
C4664 C4662 1.391 . S
C4664 C4665 1.400 . S
C4665 C4659 1.491 . S
C4665 C4664 1.400 . S
C4665 C4666 1.398 . S
C4666 H4654 0.950 . S
C4666 C4665 1.398 . S
C4666 C4667 1.391 . S
C4667 H4655 0.950 . S
C4667 C4663 1.393 . S
C4667 C4666 1.391 . S
H4668 C4676 0.950 . S
H4669 C4681 0.950 . S
H4670 C4678 0.950 . S
H4671 C4680 0.950 . S
H4672 C4682 0.950 . S
H4673 C4684 0.950 . S
H4674 C4686 0.950 . S
H4675 C4687 0.950 . S
C4676 H4668 0.950 . S
C4676 C4677 1.386 . S
C4676 C4678 1.391 . S
C4677 C4676 1.386 . S
C4677 C4681 1.393 . S
C4678 H4670 0.950 . S
C4678 C4676 1.391 . S
C4678 C4679 1.400 . S
C4679 C4678 1.400 . S
C4679 C4680 1.398 . S
C4679 C4685 1.491 . S
C4680 H4671 0.950 . S
C4680 C4679 1.398 . S
C4680 C4681 1.391 . S
C4681 H4669 0.950 . S
C4681 C4677 1.393 . S
C4681 C4680 1.391 . S
C4682 H4672 0.950 . S
C4682 C4683 1.386 . S
C4682 C4684 1.391 . S
C4683 C4682 1.386 . S
C4683 C4687 1.393 . S
C4684 H4673 0.950 . S
C4684 C4682 1.391 . S
C4684 C4685 1.400 . S
C4685 C4679 1.491 . S
C4685 C4684 1.400 . S
C4685 C4686 1.398 . S
C4686 H4674 0.950 . S
C4686 C4685 1.398 . S
C4686 C4687 1.391 . S
C4687 H4675 0.950 . S
C4687 C4683 1.393 . S
C4687 C4686 1.391 . S
C2783 C1327 1.434 . S
C2777 C21 1.538 . S
C2803 C1389 1.377 . S
C2797 C42 1.498 . S
C2817 C82 1.541 . S
C2823 C1451 1.430 . S
C2843 C1519 1.413 . S
C2837 C135 1.466 . S
C2857 C175 1.425 . S
C2863 C1501 1.393 . S
C2877 C221 1.608 . S
C2883 C1309 1.533 . S
C2897 C255 1.621 . S
C2903 C1371 1.505 . S
C2923 C1433 1.531 . S
C2917 C301 1.620 . S
C2943 C1581 1.493 . S
C2937 C15 1.541 . S
C2957 C55 1.520 . S
C2963 C1619 1.370 . S
C2977 C101 1.612 . S
C2983 C1705 1.588 . S
C3003 C1749 1.481 . S
C2997 C141 1.539 . S
C3017 C162 1.412 . S
C3023 C1811 1.398 . S
C3043 C1873 1.550 . S
C3037 C215 1.581 . S
C3057 C261 1.615 . S
C3063 C1929 1.482 . S
C3083 C1991 1.419 . S
C3077 C282 1.554 . S
C3097 C2 1.571 . S
C3103 C1767 1.562 . S
C3117 C181 1.377 . S
C3123 C1891 1.356 . S
C3143 C1947 1.430 . S
C3137 C202 1.535 . S
C3157 C242 1.573 . S
C3163 C2009 1.459 . S
C3183 C1829 1.463 . S
C3177 C295 1.514 . S
C3203 C1637 1.510 . S
C3197 C95 1.624 . S
C3217 C122 1.525 . S
C3223 C1687 1.451 . S
C3243 C1563 1.542 . S
C3237 C61 1.569 . S
C3263 C2071 1.519 . S
C3257 C341 1.623 . S
C3277 C362 1.432 . S
C3283 C2121 1.388 . S
C3297 C402 1.494 . S
C3303 C2177 1.369 . S
C3323 C2263 1.472 . S
C3317 C455 1.521 . S
C3337 C495 1.485 . S
C3343 C2245 1.441 . S
C3357 C541 1.607 . S
C3363 C2053 1.520 . S
C3377 C575 1.516 . S
C3383 C2139 1.473 . S
C3397 C621 1.666 . S
C3403 C2195 1.584 . S
C3423 C1805 1.450 . S
C3417 C335 1.578 . S
C3437 C375 1.448 . S
C3443 C2325 1.394 . S
C3463 C1935 1.559 . S
C3457 C421 1.571 . S
C3477 C461 1.552 . S
C3483 C2387 1.479 . S
C3497 C482 1.449 . S
C3503 C1575 1.353 . S
C3523 C2431 1.533 . S
C3517 C535 1.581 . S
C3537 C581 1.568 . S
C3543 C1699 1.464 . S
C3563 C2487 1.494 . S
C3557 C602 1.599 . S
C3577 C322 1.646 . S
C3583 C2369 1.626 . S
C3603 C2449 1.409 . S
C3597 C501 1.436 . S
C3617 C522 1.541 . S
C3623 C1681 1.452 . S
C3643 C2505 1.366 . S
C3637 C562 1.533 . S
C3657 C615 1.669 . S
C3663 C1557 1.591 . S
C3677 C415 1.516 . S
C3683 C2307 1.474 . S
C3697 C442 1.501 . S
C3703 C1953 1.437 . S
C3717 C381 1.513 . S
C3723 C1823 1.366 . S
C3737 C661 1.460 . S
C3743 C2183 1.440 . S
C3763 C2257 1.344 . S
C3757 C682 1.467 . S
C3777 C722 1.520 . S
C3783 C2077 1.506 . S
C3797 C775 1.549 . S
C3803 C2115 1.427 . S
C3817 C815 1.561 . S
C3823 C2133 1.453 . S
C3837 C861 1.552 . S
C3843 C2201 1.546 . S
C3863 C2239 1.452 . S
C3857 C895 1.588 . S
C3877 C941 1.624 . S
C3883 C2059 1.574 . S
C3903 C2555 1.429 . S
C3897 C655 1.483 . S
C3917 C695 1.541 . S
C3923 C1867 1.427 . S
C3943 C2617 1.550 . S
C3937 C741 1.564 . S
C3957 C781 1.552 . S
C3963 C1997 1.493 . S
C3977 C802 1.485 . S
C3983 C2673 1.381 . S
C3997 C855 1.510 . S
C4003 C1625 1.460 . S
C4023 C2753 1.555 . S
C4017 C901 1.626 . S
C4037 C922 1.563 . S
C4043 C1743 1.439 . S
C4063 C2015 1.474 . S
C4057 C642 1.484 . S
C4083 C1643 1.483 . S
C4077 C821 1.503 . S
C4097 C842 1.501 . S
C4103 C2735 1.399 . S
C4117 C882 1.630 . S
C4123 C1761 1.548 . S
C4143 C2691 1.484 . S
C4137 C935 1.611 . S
C4163 C1885 1.391 . S
C4157 C735 1.526 . S
C4183 C2635 1.503 . S
C4177 C762 1.536 . S
C4203 C2573 1.488 . S
C4197 C701 1.531 . S
C4217 C981 1.496 . S
C4223 C1457 1.480 . S
C4237 C1002 1.486 . S
C4243 C1513 1.330 . S
C4263 C1333 1.454 . S
C4257 C1042 1.478 . S
C4283 C1395 1.418 . S
C4277 C1095 1.481 . S
C4303 C1377 1.509 . S
C4297 C1135 1.546 . S
C4323 C1439 1.571 . S
C4317 C1181 1.591 . S
C4343 C1495 1.420 . S
C4337 C1215 1.562 . S
C4357 C1261 1.609 . S
C4363 C1315 1.585 . S
C4377 C975 1.511 . S
C4383 C2679 1.464 . S
C4403 C2425 1.434 . S
C4397 C1015 1.523 . S
C4423 C2759 1.552 . S
C4417 C1061 1.565 . S
C4443 C2493 1.484 . S
C4437 C1101 1.517 . S
C4457 C1122 1.481 . S
C4463 C2549 1.377 . S
C4483 C2319 1.472 . S
C4477 C1175 1.584 . S
C4503 C2611 1.507 . S
C4497 C1221 1.602 . S
C4517 C1242 1.524 . S
C4523 C2381 1.384 . S
C4543 C2511 1.452 . S
C4537 C962 1.463 . S
C4563 C2301 1.384 . S
C4557 C1141 1.488 . S
C4583 C2629 1.461 . S
C4577 C1162 1.562 . S
C4597 C1202 1.654 . S
C4603 C2363 1.554 . S
C4617 C1255 1.586 . S
C4623 C2567 1.462 . S
C4637 C1055 1.498 . S
C4643 C2443 1.364 . S
C4657 C1082 1.516 . S
C4663 C2741 1.456 . S
C4683 C2697 1.487 . S
C4677 C1021 1.520 . S
