# Generated by pormake.
# Topology zzz, (3,6)-cn, num edge types: 1
# Building blocks:
#     Node 0, Type 0, BuildingBlock: CUQRIR_clean_linker_1, # of connection points: 3
#     Node 1, Type 0, BuildingBlock: CUQRIR_clean_linker_1, # of connection points: 3
#     Node 2, Type 0, BuildingBlock: CUQRIR_clean_linker_1, # of connection points: 3
#     Node 3, Type 0, BuildingBlock: CUQRIR_clean_linker_1, # of connection points: 3
#     Node 4, Type 0, BuildingBlock: CUQRIR_clean_linker_1, # of connection points: 3
#     Node 5, Type 0, BuildingBlock: CUQRIR_clean_linker_1, # of connection points: 3
#     Node 6, Type 0, BuildingBlock: CUQRIR_clean_linker_1, # of connection points: 3
#     Node 7, Type 0, BuildingBlock: CUQRIR_clean_linker_1, # of connection points: 3
#     Node 8, Type 1, BuildingBlock: INOVEN_clean_sbu_0, # of connection points: 6
#     Node 9, Type 1, BuildingBlock: INOVEN_clean_sbu_0, # of connection points: 6
#     Node 10, Type 1, BuildingBlock: INOVEN_clean_sbu_0, # of connection points: 6
#     Node 11, Type 1, BuildingBlock: INOVEN_clean_sbu_0, # of connection points: 6
#     Edge 12, Type (0, 1), BuildingBlock: UVAHIK_clean_linker_0, # of connection points: 2
#     Edge 13, Type (0, 1), BuildingBlock: UVAHIK_clean_linker_0, # of connection points: 2
#     Edge 14, Type (0, 1), BuildingBlock: UVAHIK_clean_linker_0, # of connection points: 2
#     Edge 15, Type (0, 1), BuildingBlock: UVAHIK_clean_linker_0, # of connection points: 2
#     Edge 16, Type (0, 1), BuildingBlock: UVAHIK_clean_linker_0, # of connection points: 2
#     Edge 17, Type (0, 1), BuildingBlock: UVAHIK_clean_linker_0, # of connection points: 2
#     Edge 18, Type (0, 1), BuildingBlock: UVAHIK_clean_linker_0, # of connection points: 2
#     Edge 19, Type (0, 1), BuildingBlock: UVAHIK_clean_linker_0, # of connection points: 2
#     Edge 20, Type (0, 1), BuildingBlock: UVAHIK_clean_linker_0, # of connection points: 2
#     Edge 21, Type (0, 1), BuildingBlock: UVAHIK_clean_linker_0, # of connection points: 2
#     Edge 22, Type (0, 1), BuildingBlock: UVAHIK_clean_linker_0, # of connection points: 2
#     Edge 23, Type (0, 1), BuildingBlock: UVAHIK_clean_linker_0, # of connection points: 2
#     Edge 24, Type (0, 1), BuildingBlock: UVAHIK_clean_linker_0, # of connection points: 2
#     Edge 25, Type (0, 1), BuildingBlock: UVAHIK_clean_linker_0, # of connection points: 2
#     Edge 26, Type (0, 1), BuildingBlock: UVAHIK_clean_linker_0, # of connection points: 2
#     Edge 27, Type (0, 1), BuildingBlock: UVAHIK_clean_linker_0, # of connection points: 2
#     Edge 28, Type (0, 1), BuildingBlock: UVAHIK_clean_linker_0, # of connection points: 2
#     Edge 29, Type (0, 1), BuildingBlock: UVAHIK_clean_linker_0, # of connection points: 2
#     Edge 30, Type (0, 1), BuildingBlock: UVAHIK_clean_linker_0, # of connection points: 2
#     Edge 31, Type (0, 1), BuildingBlock: UVAHIK_clean_linker_0, # of connection points: 2
#     Edge 32, Type (0, 1), BuildingBlock: UVAHIK_clean_linker_0, # of connection points: 2
#     Edge 33, Type (0, 1), BuildingBlock: UVAHIK_clean_linker_0, # of connection points: 2
#     Edge 34, Type (0, 1), BuildingBlock: UVAHIK_clean_linker_0, # of connection points: 2
#     Edge 35, Type (0, 1), BuildingBlock: UVAHIK_clean_linker_0, # of connection points: 2
# Relax obj value: 0.237
# Max RMSD: 0.173
# Mean RMSD: 0.156
data_MOF--net-zzz--node1-INOVEN_clean_sbu_0--node2-CUQRIR_clean_linker_1--edge1-UVAHIK_clean_linker_0
_symmetry_space_group_name_H-M    P1
_symmetry_Int_Tables_number       1
_symmetry_cell_setting            triclinic
loop_
_symmetry_equiv_pos_as_xyz
'x, y, z'
_cell_length_a     63.673048
_cell_length_b     63.706229
_cell_length_c     15.653004
_cell_angle_alpha  89.963671
_cell_angle_beta   89.926329
_cell_angle_gamma 89.876766
loop_
_atom_site_label
_atom_site_type_symbol
_atom_site_fract_x
_atom_site_fract_y
_atom_site_fract_z
_atom_type_partial_charge
C0 C 0.74317 0.51694 0.39492 0.0
N1 N 0.76268 0.50832 0.39896 0.0
N2 N 0.73173 0.5079 0.33127 0.0
C3 C 0.73515 0.53357 0.45446 0.0
C4 C 0.74519 0.49375 0.29631 0.0
N5 N 0.76377 0.49396 0.33766 0.0
C6 C 0.741 0.48128 0.21643 0.0
H7 H 0.74291 0.5323 0.5177 0.0
H8 H 0.71787 0.53234 0.46231 0.0
H9 H 0.73885 0.54921 0.42722 0.0
H10 H 0.73025 0.4899 0.17303 0.0
H11 H 0.73355 0.46618 0.23436 0.0
H12 H 0.75578 0.47773 0.18169 0.0
C13 C 0.03272 0.7418 0.38386 0.0
N14 N 0.04314 0.76022 0.39368 0.0
N15 N 0.0444 0.72795 0.33774 0.0
C16 C 1.01113 0.73748 0.41796 0.0
C17 C 0.06205 0.73882 0.31859 0.0
N18 N 0.06136 0.7583 0.35282 0.0
C19 C 0.07906 0.73102 0.25952 0.0
H20 H 1.00847 0.74616 0.47848 0.0
H21 H 1.00887 0.72041 0.4286 0.0
H22 H 0.99937 0.74294 0.37062 0.0
H23 H 0.07194 0.7246 0.2004 0.0
H24 H 0.08778 0.7181 0.29119 0.0
H25 H 0.09046 0.74347 0.24256 0.0
C26 C 0.79043 0.02437 0.38205 0.0
N27 N 0.77103 0.03318 0.38685 0.0
N28 N 0.80147 0.03263 0.31545 0.0
C29 C 0.79875 1.00833 0.44352 0.0
C30 C 0.7879 0.04651 0.27961 0.0
N31 N 0.76961 0.0469 0.32318 0.0
C32 C 0.79172 0.0582 0.19741 0.0
H33 H 0.79139 1.01027 0.50735 0.0
H34 H 0.81608 1.00954 0.44914 0.0
H35 H 0.79483 0.99244 0.41942 0.0
H36 H 0.80234 0.04921 0.15465 0.0
H37 H 0.79918 0.07349 0.21223 0.0
H38 H 0.77678 0.06134 0.1633 0.0
C39 C 0.50602 0.79848 0.39669 0.0
N40 N 0.49509 0.78066 0.41227 0.0
N41 N 0.49436 0.81218 0.34989 0.0
C42 C 0.52833 0.80204 0.42359 0.0
C43 C 0.47613 0.80175 0.33623 0.0
N44 N 0.47655 0.78265 0.37412 0.0
C45 C 0.45886 0.80942 0.27842 0.0
H46 H 0.53174 0.81907 0.42853 0.0
H47 H 0.53896 0.79504 0.3751 0.0
H48 H 0.53145 0.79424 0.48572 0.0
H49 H 0.46526 0.81193 0.21322 0.0
H50 H 0.45286 0.82472 0.30178 0.0
H51 H 0.44554 0.79826 0.27551 0.0
C52 C 0.29438 0.53683 0.05593 0.0
N53 N 0.27564 0.54663 0.04427 0.0
N54 N 0.30682 0.54811 0.10949 0.0
C55 C 0.30048 0.51639 0.01532 0.0
C56 C 0.29472 0.56484 0.13105 0.0
N57 N 0.27598 0.56404 0.09088 0.0
C58 C 0.30057 0.58096 0.19717 0.0
H59 H 0.31777 0.51537 0.00728 0.0
H60 H 0.29265 0.51456 0.95248 0.0
H61 H 0.29535 0.50334 0.05734 0.0
H62 H 0.31144 0.5925 0.16793 0.0
H63 H 0.30882 0.57336 0.25145 0.0
H64 H 0.28665 0.58958 0.22147 0.0
C65 C 0.02256 0.29557 0.03069 0.0
N66 N 0.03126 0.27642 0.01681 0.0
N67 N 0.03504 0.30731 0.08231 0.0
C68 C 1.0017 0.30248 0.99632 0.0
C69 C 0.05137 0.29436 0.10055 0.0
N70 N 0.04913 0.27571 0.06042 0.0
C71 C 0.06859 0.29945 0.16287 0.0
H72 H 1.00116 0.3198 0.98919 0.0
H73 H 0.98922 0.29768 0.04183 0.0
H74 H 0.99852 0.29485 0.93393 0.0
H75 H 0.06168 0.30564 0.22294 0.0
H76 H 0.07871 0.31191 0.13547 0.0
H77 H 0.07857 0.28562 0.17729 0.0
C78 C 0.23863 1.01751 0.02874 0.0
N79 N 0.25756 1.0078 0.02169 0.0
N80 N 0.22674 1.00809 0.08979 0.0
C81 C 0.2318 0.03612 0.97704 0.0
C82 C 0.2392 0.99257 0.12031 0.0
N83 N 0.25782 0.99238 0.07895 0.0
C84 C 0.23392 0.97867 0.195 0.0
H85 H 0.21445 0.03639 0.97018 0.0
H86 H 0.23932 0.03592 0.91305 0.0
H87 H 0.23668 0.05065 0.01058 0.0
H88 H 0.23019 0.96273 0.17088 0.0
H89 H 0.22025 0.98466 0.23161 0.0
H90 H 0.24764 0.97724 0.23827 0.0
C91 C 0.52364 0.24565 0.02959 0.0
N92 N 0.53306 0.26472 0.02688 0.0
N93 N 0.53303 0.23312 0.08874 0.0
C94 C 0.5055 0.23921 0.97459 0.0
C95 C 0.54821 0.24542 0.12273 0.0
N96 N 0.54825 0.26449 0.08504 0.0
C97 C 0.56157 0.23945 0.19826 0.0
H98 H 0.50546 0.22195 0.96489 0.0
H99 H 0.50613 0.24733 0.9119 0.0
H100 H 0.49065 0.24373 0.00695 0.0
H101 H 0.57529 0.23029 0.17525 0.0
H102 H 0.55259 0.22945 0.24336 0.0
H103 H 0.56742 0.25347 0.2327 0.0
Gd104 Gd 0.02619 1.01529 0.78507 0.0
Gd105 Gd 1.00292 0.02304 0.62352 0.0
C106 C 1.01442 0.97519 0.66382 0.0
C107 C 0.04032 1.00337 0.932 0.0
C108 C 0.0522 0.98535 0.96544 0.0
C109 C 0.06935 0.9888 0.01977 0.0
C110 C 0.04685 0.96475 0.94282 0.0
C111 C 0.07542 0.95116 0.03021 0.0
C112 C 0.05825 0.94784 0.9753 0.0
C113 C 0.08091 0.97186 0.05179 0.0
C114 C 0.05108 0.02513 0.64943 0.0
C115 C 1.01555 0.06224 0.74485 0.0
C116 C 0.99263 0.03577 0.4722 0.0
C117 C 1.00311 0.05032 0.41355 0.0
C118 C 0.99559 0.05329 0.33039 0.0
C119 C 0.02147 0.06054 0.43963 0.0
C120 C 0.02446 0.07731 0.30049 0.0
C121 C 0.03197 0.07399 0.38395 0.0
C122 C 1.00619 0.06669 0.27413 0.0
C123 C 0.97748 1.01328 0.75689 0.0
O124 O 0.02052 0.98172 0.74019 0.0
O125 O 1.00829 0.98856 0.60447 0.0
O126 O 0.05068 1.01586 0.88099 0.0
O127 O 0.0211 0.99976 0.90617 0.0
O128 O 0.0546 0.03134 0.72682 0.0
O129 O 0.03533 1.01329 0.6487 0.0
O130 O 1.01402 0.05561 0.66484 0.0
O131 O 1.0167 0.04859 0.8079 0.0
O132 O 0.98494 0.04402 0.54207 0.0
O133 O 1.00307 0.0185 0.4867 0.0
O134 O 0.97377 1.008 0.67827 0.0
O135 O 0.99349 0.02486 0.75985 0.0
H136 H 0.0738 1.00462 0.0374 0.0
H137 H 0.03375 0.96165 0.9006 0.0
H138 H 0.05326 0.93212 0.95869 0.0
H139 H 0.09415 0.97499 0.09319 0.0
H140 H 0.9816 0.04521 0.30894 0.0
H141 H 0.0277 0.05815 0.50326 0.0
H142 H 0.04572 0.08215 0.40728 0.0
H143 H 1.00011 0.06871 0.21008 0.0
Gd144 Gd 0.51659 0.03302 0.77633 0.0
Gd145 Gd 0.5126 1.00675 0.62694 0.0
C146 C 0.55865 0.02151 0.66808 0.0
C147 C 0.52566 0.05187 0.91804 0.0
C148 C 0.54288 0.06472 0.95131 0.0
C149 C 0.53882 0.07977 0.01454 0.0
C150 C 0.56342 0.06195 0.9212 0.0
C151 C 0.57605 0.08811 0.02207 0.0
C152 C 0.57986 0.07343 0.95651 0.0
C153 C 0.55527 0.09142 0.04964 0.0
C154 C 0.50854 0.05499 0.6309 0.0
C155 C 0.47058 0.01833 0.73603 0.0
C156 C 0.50331 0.98804 0.48508 0.0
C157 C 0.48589 0.97542 0.45178 0.0
C158 C 0.48965 0.96062 0.38725 0.0
C159 C 0.46545 0.97821 0.48301 0.0
C160 C 0.45231 0.95261 0.3808 0.0
C161 C 0.44882 0.96701 0.44763 0.0
C162 C 0.473 0.94926 0.35205 0.0
C163 C 0.52062 0.98478 0.77225 0.0
O164 O 0.55097 0.02595 0.74459 0.0
O165 O 0.54586 1.01682 0.60488 0.0
O166 O 0.51441 0.06045 0.85777 0.0
O167 O 0.52996 0.03211 0.90325 0.0
O168 O 0.49959 0.05849 0.70372 0.0
O169 O 0.52142 0.04005 0.63798 0.0
O170 O 0.4782 1.01383 0.65941 0.0
O171 O 0.48346 0.02295 0.79895 0.0
O172 O 0.51447 0.97932 0.54527 0.0
O173 O 0.49924 1.00784 0.50001 0.0
O174 O 0.52949 0.98121 0.6993 0.0
O175 O 0.50776 0.99975 0.76524 0.0
H176 H 0.52297 0.08224 0.0378 0.0
H177 H 0.56687 0.05051 0.87196 0.0
H178 H 0.59566 0.0701 0.93474 0.0
H179 H 0.55176 0.10271 0.09935 0.0
H180 H 0.50541 0.95812 0.36306 0.0
H181 H 0.46224 0.98945 0.53321 0.0
H182 H 0.4331 0.97037 0.4704 0.0
H183 H 0.47628 0.93815 0.30139 0.0
Gd184 Gd 0.50731 0.52739 0.81837 0.0
Gd185 Gd 0.5293 0.519 0.64181 0.0
C186 C 0.51603 0.56574 0.68769 0.0
C187 C 0.50053 0.53666 0.97617 0.0
C188 C 0.48693 0.55171 0.02052 0.0
C189 C 0.47038 0.56154 0.977 0.0
C190 C 0.49122 0.55725 0.10524 0.0
C191 C 0.46349 0.58361 0.10071 0.0
C192 C 0.47957 0.57308 0.14519 0.0
C193 C 0.45868 0.57729 0.01689 0.0
C194 C 0.47808 0.52766 0.69014 0.0
C195 C 0.51716 0.47906 0.76337 0.0
C196 C 0.54194 0.50764 0.49206 0.0
C197 C 0.55551 0.49092 0.45804 0.0
C198 C 0.56997 0.49551 0.39305 0.0
C199 C 0.5543 0.47042 0.49023 0.0
C200 C 0.58089 0.45887 0.38849 0.0
C201 C 0.56675 0.45455 0.4555 0.0
C202 C 0.58261 0.47964 0.35864 0.0
C203 C 0.55511 0.52713 0.7764 0.0
O204 O 0.51595 0.55989 0.76914 0.0
O205 O 0.51708 0.55183 0.62514 0.0
O206 O 0.49087 0.52133 0.93656 0.0
O207 O 0.51582 0.54498 0.93119 0.0
O208 O 0.47357 0.53072 0.76996 0.0
O209 O 0.49752 0.52465 0.68519 0.0
O210 O 0.5237 0.48566 0.68742 0.0
O211 O 0.51152 0.49221 0.82498 0.0
O212 O 0.55143 0.52202 0.53728 0.0
O213 O 0.52391 0.50182 0.52487 0.0
O214 O 0.5589 0.53284 0.69848 0.0
O215 O 0.53858 0.51634 0.77799 0.0
H216 H 0.46687 0.55744 0.9114 0.0
H217 H 0.50401 0.54983 0.13953 0.0
H218 H 0.48386 0.57776 0.20934 0.0
H219 H 0.44625 0.58492 0.9813 0.0
H220 H 0.5713 0.51133 0.3682 0.0
H221 H 0.54343 0.46652 0.54107 0.0
H222 H 0.56462 0.43872 0.47911 0.0
H223 H 0.59348 0.48358 0.30784 0.0
Gd224 Gd 1.01741 0.50743 0.7886 0.0
Gd225 Gd 0.02474 0.53136 0.61667 0.0
C226 C 0.97669 0.52039 0.67304 0.0
C227 C 1.00735 0.49317 0.93757 0.0
C228 C 0.99055 0.4801 0.97338 0.0
C229 C 0.99511 0.46594 0.03944 0.0
C230 C 0.96999 0.48158 0.94219 0.0
C231 C 0.95829 0.4559 0.04718 0.0
C232 C 0.95401 0.46971 0.97902 0.0
C233 C 0.97912 0.45389 0.07602 0.0
C234 C 0.0259 0.48319 0.64984 0.0
C235 C 0.06392 0.52192 0.74254 0.0
C236 C 0.03228 0.54018 0.45891 0.0
C237 C 0.04649 0.55447 0.41387 0.0
C238 C 0.04444 0.55747 0.32561 0.0
C239 C 0.06235 0.56495 0.45858 0.0
C240 C 0.07522 0.58008 0.32565 0.0
C241 C 0.07662 0.57763 0.41486 0.0
C242 C 0.0587 0.5702 0.2817 0.0
C243 C 0.02508 0.55923 0.7497 0.0
O244 O 0.98368 0.51261 0.7464 0.0
O245 O 0.98955 0.52731 0.6127 0.0
O246 O 0.02044 0.48356 0.88642 0.0
O247 O 1.0019 0.51185 0.91019 0.0
O248 O 0.03253 0.47922 0.72636 0.0
O249 O 1.01443 0.49934 0.65097 0.0
O250 O 0.05781 0.52314 0.66152 0.0
O251 O 0.05016 0.51966 0.80528 0.0
O252 O 1.01735 0.54927 0.5033 0.0
O253 O 0.04132 0.52451 0.49939 0.0
O254 O 0.028 0.56457 0.67064 0.0
O255 O 0.02232 0.53975 0.75153 0.0
H256 H 1.01099 0.46442 0.06352 0.0
H257 H 0.96616 0.49225 0.89062 0.0
H258 H 0.93813 0.47206 0.95613 0.0
H259 H 0.98302 0.44326 0.12769 0.0
H260 H 0.03209 0.54962 0.29044 0.0
H261 H 0.06404 0.56287 0.52696 0.0
H262 H 0.08934 0.5847 0.45054 0.0
H263 H 0.0571 0.57193 0.21317 0.0
C264 C 0.18891 1.00163 0.10735 0.0
C265 C 0.20652 1.01419 0.12298 0.0
C266 C 0.1701 1.00509 0.15173 0.0
C267 C 0.1427 0.0426 0.3008 0.0
H268 H 0.11322 0.99224 0.37069 0.0
C269 C 0.06366 1.01522 0.50287 0.0
C270 C 0.06641 0.02685 0.57832 0.0
C271 C 0.07907 1.01537 0.43883 0.0
C272 C 0.12106 1.00651 0.35087 0.0
H273 H 0.21851 0.04027 0.19565 0.0
H274 H 0.1859 0.04625 0.27513 0.0
H275 H 0.14301 0.98948 0.27423 0.0
H276 H 0.08695 0.04853 0.644 0.0
H277 H 0.11379 0.04893 0.53202 0.0
H278 H 0.12106 0.05945 0.38081 0.0
C279 C 0.18619 0.03406 0.22703 0.0
C280 C 0.13819 1.00496 0.29501 0.0
C281 C 0.20491 0.0307 0.18168 0.0
C282 C 0.08445 0.03933 0.58675 0.0
C283 C 0.09977 0.03964 0.52235 0.0
C284 C 0.12568 0.04411 0.35749 0.0
C285 C 0.16861 0.02098 0.21422 0.0
C286 C 0.14943 0.02295 0.26953 0.0
C287 C 0.09748 0.02733 0.44831 0.0
C288 C 0.11475 0.02606 0.38379 0.0
H289 H 0.19 0.98866 0.06284 0.0
H290 H 0.15688 0.99496 0.13835 0.0
H291 H 0.15062 0.05688 0.28174 0.0
H292 H 0.04984 1.00556 0.49422 0.0
H293 H 0.07667 1.00593 0.38216 0.0
C294 C 0.54199 0.19622 0.11966 0.0
C295 C 0.5271 0.2125 0.11822 0.0
C296 C 0.53776 0.17737 0.16242 0.0
C297 C 0.50661 0.15815 0.34338 0.0
H298 H 0.52453 0.10297 0.26802 0.0
C299 C 0.49252 0.08576 0.55616 0.0
C300 C 0.50831 0.07039 0.55977 0.0
C301 C 0.49306 0.10155 0.49399 0.0
C302 C 0.5196 0.11827 0.29059 0.0
H303 H 0.49589 0.22171 0.15739 0.0
H304 H 0.48826 0.18869 0.23207 0.0
H305 H 0.52831 0.1331 0.17249 0.0
H306 H 0.53681 0.05912 0.49946 0.0
H307 H 0.53822 0.08705 0.39243 0.0
H308 H 0.49864 0.14378 0.46225 0.0
C309 C 0.50328 0.19048 0.20041 0.0
C310 C 0.5217 0.13555 0.23549 0.0
C311 C 0.50749 0.20926 0.15693 0.0
C312 C 0.52437 0.07075 0.49813 0.0
C313 C 0.5251 0.08675 0.43644 0.0
C314 C 0.5047 0.14098 0.39861 0.0
C315 C 0.51857 0.17449 0.20556 0.0
C316 C 0.51527 0.15573 0.26132 0.0
C317 C 0.50963 0.10263 0.43435 0.0
C318 C 0.51119 0.12075 0.37335 0.0
H319 H 0.55726 0.19849 0.0906 0.0
H320 H 0.54995 0.16551 0.1655 0.0
H321 H 0.50192 0.1735 0.36622 0.0
H322 H 0.47981 0.08575 0.60227 0.0
H323 H 0.48053 0.11305 0.4934 0.0
C324 C 0.34344 0.5581 0.13988 0.0
C325 C 0.32731 0.54314 0.14372 0.0
C326 C 0.36199 0.55534 0.18642 0.0
C327 C 0.39461 0.51716 0.30755 0.0
H328 H 0.40931 0.56592 0.44306 0.0
C329 C 0.46773 0.52198 0.53602 0.0
C330 C 0.46278 0.52892 0.6189 0.0
C331 C 0.4527 0.5231 0.47035 0.0
C332 C 0.40548 0.55219 0.40537 0.0
H333 H 0.31832 0.51303 0.19565 0.0
H334 H 0.351 0.50788 0.27641 0.0
H335 H 0.38078 0.56829 0.3397 0.0
H336 H 0.43837 0.54268 0.69767 0.0
H337 H 0.4125 0.54512 0.58335 0.0
H338 H 0.41931 0.50107 0.37478 0.0
C339 C 0.34931 0.5218 0.23724 0.0
C340 C 0.38921 0.55358 0.34562 0.0
C341 C 0.33063 0.52467 0.19089 0.0
C342 C 0.44267 0.53719 0.63452 0.0
C343 C 0.42786 0.53867 0.56893 0.0
C344 C 0.41116 0.51587 0.36668 0.0
C345 C 0.36494 0.53743 0.23771 0.0
C346 C 0.38334 0.53602 0.29669 0.0
C347 C 0.43263 0.53161 0.4861 0.0
C348 C 0.41652 0.53329 0.41733 0.0
H349 H 0.34129 0.57237 0.10324 0.0
H350 H 0.37382 0.56751 0.18407 0.0
H351 H 0.39056 0.50339 0.27059 0.0
H352 H 0.4831 0.51552 0.5222 0.0
H353 H 0.45684 0.51761 0.40705 0.0
C354 C 0.04626 0.34378 0.10784 0.0
C355 C 0.03131 0.32785 0.11846 0.0
C356 C 0.04464 0.36261 0.15351 0.0
C357 C 1.00898 0.39547 0.28834 0.0
H358 H 0.06132 0.41408 0.38918 0.0
C359 C 1.01492 0.47012 0.50433 0.0
C360 C 0.02707 0.46779 0.57873 0.0
C361 C 1.01512 0.45455 0.44069 0.0
C362 C 0.04653 0.40912 0.36177 0.0
H363 H 1.00251 0.3193 0.18246 0.0
H364 H 0.99947 0.35228 0.26275 0.0
H365 H 0.06136 0.38439 0.29169 0.0
H366 H 0.04924 0.44753 0.64381 0.0
H367 H 0.04967 0.42058 0.53366 0.0
H368 H 0.99412 0.41998 0.36085 0.0
C369 C 1.01242 0.35036 0.2185 0.0
C370 C 0.04658 0.39218 0.30485 0.0
C371 C 1.01409 0.33148 0.17257 0.0
C372 C 0.03974 0.44983 0.58721 0.0
C373 C 0.04005 0.4344 0.52368 0.0
C374 C 1.00895 0.41255 0.34519 0.0
C375 C 0.028 0.36597 0.21132 0.0
C376 C 0.0278 0.38493 0.26794 0.0
C377 C 0.02765 0.43641 0.44973 0.0
C378 C 0.0277 0.41939 0.38375 0.0
H379 H 0.05957 0.34137 0.06582 0.0
H380 H 0.05669 0.37438 0.14478 0.0
H381 H 0.99424 0.39048 0.26062 0.0
H382 H 1.00498 0.48379 0.496 0.0
H383 H 1.00552 0.45673 0.3843 0.0
C384 C 0.8365 0.04409 0.26745 0.0
C385 C 0.82241 0.02777 0.28551 0.0
C386 C 0.85525 0.04018 0.22361 0.0
C387 C 0.87944 1.00038 0.07843 0.0
H388 H 0.92681 0.03825 0.09358 0.0
C389 C 0.94105 1.00536 0.80804 0.0
C390 C 0.96163 1.01181 0.82626 0.0
C391 C 0.92562 1.00525 0.87186 0.0
C392 C 0.91397 0.02722 0.08892 0.0
H393 H 0.81752 0.99429 0.27698 0.0
H394 H 0.85087 0.98706 0.20455 0.0
H395 H 0.89852 0.04096 0.19657 0.0
H396 H 0.98239 0.02251 0.92649 0.0
H397 H 0.95584 0.02137 0.03903 0.0
H398 H 0.89531 0.98603 0.97314 0.0
C399 C 0.84713 1.00312 0.22117 0.0
C400 C 0.89741 0.02903 0.1476 0.0
C401 C 0.82815 1.00715 0.26408 0.0
C402 C 0.96662 1.01755 0.91043 0.0
C403 C 0.95127 1.01708 0.97482 0.0
C404 C 0.89618 0.99831 0.02075 0.0
C405 C 0.8607 0.01969 0.19782 0.0
C406 C 0.87959 1.01602 0.14201 0.0
C407 C 0.9304 1.0112 0.95639 0.0
C408 C 0.91349 1.01204 0.02351 0.0
H409 H 0.83249 0.06011 0.28397 0.0
H410 H 0.86491 0.05349 0.20653 0.0
H411 H 0.86607 0.9901 0.07086 0.0
H412 H 0.93667 1.00094 0.74369 0.0
H413 H 0.90978 1.00104 0.85382 0.0
C414 C 0.5174 0.83127 0.24943 0.0
C415 C 0.50084 0.83139 0.30859 0.0
C416 C 0.52164 0.84909 0.19976 0.0
C417 C 0.51003 0.90648 0.17637 0.0
H418 H 0.52196 0.89533 0.93779 0.0
C419 C 0.50622 0.97079 0.911 0.0
C420 C 0.5207 0.96935 0.84334 0.0
C421 C 0.50522 0.955 0.97357 0.0
C422 C 0.51897 0.89882 0.0044 0.0
H423 H 0.47642 0.85035 0.36556 0.0
H424 H 0.48347 0.88144 0.27815 0.0
H425 H 0.51822 0.86624 0.03675 0.0
H426 H 0.54611 0.95078 0.79048 0.0
H427 H 0.54467 0.92358 0.89978 0.0
H428 H 0.51047 0.93916 0.14313 0.0
C429 C 0.49337 0.86774 0.27018 0.0
C430 C 0.51685 0.88205 0.06146 0.0
C431 C 0.48919 0.84992 0.3199 0.0
C432 C 0.53464 0.95224 0.84134 0.0
C433 C 0.5337 0.93655 0.90381 0.0
C434 C 0.51216 0.92331 0.11907 0.0
C435 C 0.50935 0.86742 0.20788 0.0
C436 C 0.51235 0.88558 0.14831 0.0
C437 C 0.51871 0.93746 0.96993 0.0
C438 C 0.51668 0.91971 0.03219 0.0
H439 H 0.52647 0.81711 0.23919 0.0
H440 H 0.53433 0.84833 0.15371 0.0
H441 H 0.50674 0.90986 0.24284 0.0
H442 H 0.49526 0.98379 0.91425 0.0
H443 H 0.49338 0.95622 0.02306 0.0
C444 C 0.70472 0.53304 0.27999 0.0
C445 C 0.71065 0.51253 0.30229 0.0
C446 C 0.68554 0.53683 0.23841 0.0
C447 C 0.63525 0.51033 0.16724 0.0
H448 H 0.63668 0.55372 0.99405 0.0
C449 C 0.56583 0.52171 0.92985 0.0
C450 C 0.57082 0.52809 0.84633 0.0
C451 C 0.58116 0.5219 0.99437 0.0
C452 C 0.63599 0.5413 0.04119 0.0
H453 H 0.70064 0.48016 0.30387 0.0
H454 H 0.66794 0.48635 0.22807 0.0
H455 H 0.66602 0.54979 0.09044 0.0
H456 H 0.5958 0.53958 0.76493 0.0
H457 H 0.62258 0.53896 0.87481 0.0
H458 H 0.6059 0.50086 0.11361 0.0
C459 C 0.6776 0.49976 0.2436 0.0
C460 C 0.6528 0.53932 0.0983 0.0
C461 C 0.69653 0.49609 0.28641 0.0
C462 C 0.59139 0.53473 0.82881 0.0
C463 C 0.60677 0.53455 0.89258 0.0
C464 C 0.61861 0.51205 0.10891 0.0
C465 C 0.67196 0.52014 0.21682 0.0
C466 C 0.65293 0.52358 0.16155 0.0
C467 C 0.60198 0.52813 0.97662 0.0
C468 C 0.61886 0.52733 0.04378 0.0
H469 H 0.71532 0.546 0.29118 0.0
H470 H 0.68167 0.55284 0.22136 0.0
H471 H 0.63431 0.49832 0.216 0.0
H472 H 0.55009 0.5165 0.9453 0.0
H473 H 0.57659 0.51717 0.05814 0.0
C474 C 0.02158 0.7053 0.24915 0.0
C475 C 0.03879 0.70757 0.30437 0.0
C476 C 0.01868 0.68658 0.20327 0.0
C477 C 0.05033 0.64398 0.11216 0.0
H478 H 0.99682 0.61807 0.05943 0.0
C479 C 0.0362 0.59337 0.81256 0.0
C480 C 0.02654 0.57375 0.82351 0.0
C481 C 0.03759 0.60756 0.88042 0.0
C482 C 1.01189 0.62503 0.07426 0.0
H483 H 0.06556 0.69172 0.35953 0.0
H484 H 0.06071 0.6591 0.27926 0.0
H485 H 0.99843 0.64665 0.16455 0.0
H486 H 1.01057 0.55366 0.91413 0.0
H487 H 1.01241 0.57891 0.03305 0.0
H488 H 0.06367 0.62296 0.01977 0.0
C489 C 0.04955 0.67178 0.27045 0.0
C490 C 1.01279 0.64148 0.13391 0.0
C491 C 0.05231 0.69039 0.31663 0.0
C492 C 0.01817 0.56863 0.90403 0.0
C493 C 0.01915 0.58309 0.9718 0.0
C494 C 0.04936 0.62783 0.05167 0.0
C495 C 0.03306 0.66985 0.21127 0.0
C496 C 0.03201 0.6513 0.15297 0.0
C497 C 0.02896 0.60269 0.96065 0.0
C498 C 0.03011 0.61835 0.0312 0.0
H499 H 1.01112 0.71842 0.23783 0.0
H500 H 1.00589 0.68568 0.1579 0.0
H501 H 0.06537 0.65127 0.1246 0.0
H502 H 0.04281 0.59776 0.75132 0.0
H503 H 0.04509 0.62258 0.86966 0.0
C504 C 0.07065 0.24558 0.01543 0.0
C505 C 0.05991 0.25648 0.07989 0.0
C506 C 0.0756 0.22434 0.02606 0.0
C507 C 0.07799 0.18109 0.18369 0.0
H508 H 0.04918 0.14839 0.01096 0.0
C509 C 0.02296 0.10672 0.19385 0.0
C510 C 0.03496 0.0929 0.24416 0.0
C511 C 0.03243 0.12375 0.15307 0.0
C512 C 0.05754 0.15728 0.05898 0.0
H513 H 0.04739 0.25472 0.2078 0.0
H514 H 0.05671 0.21787 0.22851 0.0
H515 H 0.05615 0.18563 0.98567 0.0
H516 H 0.06671 0.08487 0.28312 0.0
H517 H 0.08308 0.11509 0.21426 0.0
H518 H 0.07819 0.15315 0.2593 0.0
C519 C 0.06125 0.22551 0.1695 0.0
C520 C 0.0617 0.17851 0.04432 0.0
C521 C 0.05598 0.24657 0.15808 0.0
C522 C 0.0569 0.09557 0.24699 0.0
C523 C 0.06633 0.11275 0.20705 0.0
C524 C 0.074 0.15985 0.19801 0.0
C525 C 0.07028 0.21396 0.10225 0.0
C526 C 0.07108 0.1908 0.10828 0.0
C527 C 0.05406 0.12741 0.16235 0.0
C528 C 0.06287 0.148 0.13742 0.0
H529 H 0.07383 0.25311 0.95481 0.0
H530 H 0.08263 0.21581 0.97343 0.0
H531 H 0.08536 0.19021 0.23371 0.0
H532 H 1.00604 0.10528 0.19056 0.0
H533 H 0.02255 0.13492 0.11972 0.0
C534 C 0.27781 0.95942 0.09803 0.0
C535 C 0.27644 0.98134 0.10487 0.0
C536 C 0.29688 0.94919 0.11488 0.0
C537 C 0.35338 0.95983 0.1164 0.0
H538 H 0.35866 0.91515 0.28327 0.0
C539 C 0.43376 0.94186 0.24649 0.0
C540 C 0.4341 0.94304 0.33619 0.0
C541 C 0.41499 0.93785 0.20347 0.0
C542 C 0.35743 0.92747 0.23582 0.0
H543 H 0.29296 1.00971 0.13839 0.0
H544 H 0.32626 0.99208 0.16719 0.0
H545 H 0.32372 0.92665 0.23723 0.0
H546 H 0.41569 0.93793 0.451 0.0
H547 H 0.38287 0.93208 0.37644 0.0
H548 H 0.38669 0.96199 0.11879 0.0
C549 C 0.31291 0.98274 0.14754 0.0
C550 C 0.33745 0.93392 0.20911 0.0
C551 C 0.29393 0.99282 0.13168 0.0
C552 C 0.41581 0.9378 0.38181 0.0
C553 C 0.397 0.93408 0.33883 0.0
C554 C 0.37325 0.95346 0.14296 0.0
C555 C 0.31469 0.96089 0.13782 0.0
C556 C 0.33532 0.95082 0.1522 0.0
C557 C 0.39614 0.93525 0.24919 0.0
C558 C 0.37552 0.93784 0.20587 0.0
H559 H 0.26437 0.95042 0.07718 0.0
H560 H 0.29788 0.93232 0.10753 0.0
H561 H 0.35212 0.97268 0.07127 0.0
H562 H 0.44755 0.94567 0.20907 0.0
H563 H 0.41499 0.93829 0.1343 0.0
C564 C 0.58074 0.28496 0.10601 0.0
C565 C 0.55891 0.28292 0.11474 0.0
C566 C 0.59047 0.30412 0.12484 0.0
C567 C 0.57785 0.35998 0.13073 0.0
H568 H 0.62338 0.36683 0.29235 0.0
C569 C 0.59322 0.44085 0.25505 0.0
C570 C 0.59187 0.44128 0.34471 0.0
C571 C 0.59833 0.42224 0.21268 0.0
C572 C 0.61085 0.36516 0.24617 0.0
H573 H 0.53021 0.29829 0.15356 0.0
H574 H 0.54698 0.33176 0.18613 0.0
H575 H 0.61282 0.33148 0.24796 0.0
H576 H 0.59807 0.42345 0.46013 0.0
H577 H 0.60576 0.39082 0.3866 0.0
H578 H 0.57463 0.39318 0.13233 0.0
C579 C 0.55662 0.31884 0.16377 0.0
C580 C 0.60491 0.34496 0.22055 0.0
C581 C 0.54704 0.29978 0.14581 0.0
C582 C 0.59823 0.42344 0.39094 0.0
C583 C 0.60302 0.40476 0.34858 0.0
C584 C 0.58377 0.38004 0.15582 0.0
C585 C 0.57833 0.32136 0.15166 0.0
C586 C 0.58772 0.34226 0.1656 0.0
C587 C 0.60182 0.40364 0.25903 0.0
C588 C 0.59973 0.38288 0.21671 0.0
H589 H 0.59002 0.272 0.08178 0.0
H590 H 0.60725 0.30571 0.11546 0.0
H591 H 0.56468 0.35829 0.08762 0.0
H592 H 0.58862 0.45431 0.2171 0.0
H593 H 0.59786 0.42204 0.14351 0.0
C594 C 0.25071 0.59265 0.06435 0.0
C595 C 0.25753 0.57566 0.11402 0.0
C596 C 0.23124 0.60206 0.08106 0.0
C597 C 0.18964 0.60665 0.24465 0.0
H598 H 0.15059 0.60482 0.0549 0.0
C599 C 0.10228 0.60856 0.3126 0.0
C600 C 0.09243 0.5907 0.27852 0.0
C601 C 0.12146 0.61546 0.27954 0.0
C602 C 0.16135 0.60574 0.1083 0.0
H603 H 0.25045 0.55551 0.22087 0.0
H604 H 0.21662 0.5721 0.25201 0.0
H605 H 0.18816 0.60017 0.02854 0.0
H606 H 0.09396 0.56736 0.17777 0.0
H607 H 0.12723 0.57928 0.1206 0.0
H608 H 0.16292 0.61058 0.32536 0.0
C609 C 0.22612 0.5783 0.2004 0.0
C610 C 0.18286 0.60324 0.09313 0.0
C611 C 0.24533 0.56876 0.18276 0.0
C612 C 0.10106 0.58122 0.20539 0.0
C613 C 0.1202 0.58812 0.17238 0.0
C614 C 0.1682 0.6092 0.2598 0.0
C615 C 0.21868 0.59478 0.14877 0.0
C616 C 0.19705 0.60268 0.16174 0.0
C617 C 0.13112 0.60463 0.21179 0.0
C618 C 0.15372 0.60777 0.19228 0.0
H619 H 0.2601 0.59807 0.01105 0.0
H620 H 0.22584 0.61472 0.04036 0.0
H621 H 0.20031 0.6065 0.29851 0.0
H622 H 0.09574 0.61649 0.36776 0.0
H623 H 0.12931 0.6285 0.31019 0.0
C624 C 0.07062 0.78411 0.24352 0.0
C625 C 0.07379 0.77582 0.32532 0.0
C626 C 0.08078 0.80246 0.21877 0.0
C627 C 0.09395 0.85139 0.30228 0.0
H628 H 0.12197 0.86048 0.08533 0.0
C629 C 0.09299 0.93299 0.1537 0.0
C630 C 0.08675 0.93293 0.06755 0.0
C631 C 0.10055 0.91466 0.19209 0.0
C632 C 0.11419 0.85827 0.14621 0.0
H633 H 0.09083 0.77905 0.44384 0.0
H634 H 0.10776 0.81232 0.40256 0.0
H635 H 0.1179 0.82482 0.14024 0.0
H636 H 0.08567 0.91416 0.95207 0.0
H637 H 0.09751 0.88212 0.01941 0.0
H638 H 0.0881 0.88431 0.30491 0.0
C639 C 0.0977 0.80434 0.35731 0.0
C640 C 0.11209 0.83788 0.17785 0.0
C641 C 0.08793 0.78558 0.38113 0.0
C642 C 0.08976 0.9146 0.01919 0.0
C643 C 0.09699 0.89625 0.05773 0.0
C644 C 0.09564 0.87172 0.26989 0.0
C645 C 0.09396 0.81301 0.27625 0.0
C646 C 0.10123 0.83427 0.2544 0.0
C647 C 0.10176 0.89581 0.14548 0.0
C648 C 0.1049 0.87531 0.18942 0.0
H649 H 0.05969 0.77669 0.20007 0.0
H650 H 0.07743 0.80906 0.15641 0.0
H651 H 0.08532 0.8489 0.36114 0.0
H652 H 0.09096 0.94684 0.19293 0.0
H653 H 0.10452 0.91505 0.25931 0.0
C654 C 0.73264 0.04625 0.28091 0.0
C655 C 0.75074 0.05777 0.29939 0.0
C656 C 0.71368 0.0565 0.26623 0.0
C657 C 0.69038 0.10577 0.19602 0.0
H658 H 0.64041 0.07939 0.28787 0.0
C659 C 0.61246 0.10305 0.02189 0.0
C660 C 0.59405 0.09797 0.06694 0.0
C661 C 0.63117 0.10676 0.06553 0.0
C662 C 0.65408 0.08748 0.26326 0.0
H663 H 0.76381 0.08879 0.31477 0.0
H664 H 0.73037 0.10711 0.28714 0.0
H665 H 0.67461 0.06797 0.33624 0.0
H666 H 0.5802 0.09585 0.19353 0.0
H667 H 0.61258 0.1033 0.26942 0.0
H668 H 0.66975 0.12491 0.12103 0.0
C669 C 0.73085 0.09013 0.28481 0.0
C670 C 0.67375 0.08065 0.29025 0.0
C671 C 0.74989 0.07977 0.30013 0.0
C672 C 0.59411 0.09948 0.15656 0.0
C673 C 0.61278 0.10353 0.20024 0.0
C674 C 0.67061 0.11271 0.16909 0.0
C675 C 0.7125 0.07853 0.26918 0.0
C676 C 0.69207 0.08898 0.25384 0.0
C677 C 0.63178 0.1058 0.15526 0.0
C678 C 0.65224 0.10293 0.19943 0.0
H679 H 0.73318 0.02927 0.27917 0.0
H680 H 0.69992 0.04714 0.25214 0.0
H681 H 0.70428 0.11257 0.16733 0.0
H682 H 0.61278 0.1027 0.95272 0.0
H683 H 0.64541 0.10853 0.0284 0.0
C684 C 0.45271 0.75428 0.41924 0.0
C685 C 0.46325 0.76514 0.35413 0.0
C686 C 0.44379 0.73466 0.40287 0.0
C687 C 0.42703 0.69844 0.23339 0.0
H688 H 0.45642 0.65541 0.36185 0.0
C689 C 0.45085 0.62057 0.08715 0.0
C690 C 0.45348 0.60258 0.13791 0.0
C691 C 0.4443 0.63944 0.12344 0.0
C692 C 0.44751 0.66708 0.32683 0.0
H693 H 0.47164 0.76506 0.22043 0.0
H694 H 0.45524 0.73121 0.19029 0.0
H695 H 0.45812 0.69181 0.4086 0.0
H696 H 0.44992 0.5899 0.2657 0.0
H697 H 0.43839 0.62305 0.32951 0.0
H698 H 0.41709 0.67391 0.1496 0.0
C699 C 0.45398 0.73767 0.2541 0.0
C700 C 0.44853 0.68795 0.35367 0.0
C701 C 0.46331 0.75699 0.27104 0.0
C702 C 0.44832 0.6036 0.2252 0.0
C703 C 0.44171 0.62255 0.26166 0.0
C704 C 0.42578 0.67754 0.20713 0.0
C705 C 0.4448 0.726 0.32048 0.0
C706 C 0.43908 0.70388 0.30494 0.0
C707 C 0.44017 0.64083 0.21151 0.0
C708 C 0.4369 0.66178 0.25108 0.0
H709 H 0.45232 0.76053 0.48347 0.0
H710 H 0.43677 0.72593 0.45496 0.0
H711 H 0.41949 0.71048 0.19527 0.0
H712 H 0.45503 0.62046 0.02005 0.0
H713 H 0.44374 0.65323 0.08302 0.0
C714 C 0.80032 0.49475 0.2897 0.0
C715 C 0.78262 0.48313 0.31313 0.0
C716 C 0.81947 0.48474 0.27636 0.0
C717 C 0.84433 0.43545 0.21904 0.0
H718 H 0.89309 0.46423 0.30909 0.0
C719 C 0.92263 0.43926 0.04815 0.0
C720 C 0.94065 0.44559 0.09296 0.0
C721 C 0.90398 0.43512 0.09172 0.0
C722 C 0.87979 0.45548 0.28514 0.0
H723 H 0.77035 0.45213 0.33778 0.0
H724 H 0.80414 0.43418 0.3123 0.0
H725 H 0.85835 0.47509 0.35352 0.0
H726 H 0.954 0.44946 0.21959 0.0
H727 H 0.92177 0.44125 0.29551 0.0
H728 H 0.86585 0.41619 0.14863 0.0
C729 C 0.8032 0.45107 0.30529 0.0
C730 C 0.85981 0.46198 0.30979 0.0
C731 C 0.78397 0.46121 0.31935 0.0
C732 C 0.94039 0.44487 0.18274 0.0
C733 C 0.9218 0.44038 0.22641 0.0
C734 C 0.86442 0.42883 0.1945 0.0
C735 C 0.8212 0.46286 0.28559 0.0
C736 C 0.84192 0.45276 0.27364 0.0
C737 C 0.90305 0.43691 0.18119 0.0
C738 C 0.88235 0.43948 0.22406 0.0
H739 H 0.79937 0.51166 0.28384 0.0
H740 H 0.83297 0.49416 0.25908 0.0
H741 H 0.83075 0.42797 0.19084 0.0
H742 H 0.92251 0.43896 0.97897 0.0
H743 H 0.88994 0.4324 0.0544 0.0
C744 C 1.00869 0.24501 0.0169 0.0
C745 C 0.02238 0.25851 0.97341 0.0
C746 C 1.0047 0.22475 0.98559 0.0
C747 C 1.01535 0.18864 0.79747 0.0
H748 H 1.00729 0.14574 0.96957 0.0
C749 C 1.00811 0.10012 0.70681 0.0
C750 C 1.01556 0.08511 0.76532 0.0
C751 C 1.00718 0.12149 0.729 0.0
C752 C 1.00983 0.1574 0.92033 0.0
H753 H 0.04201 0.26193 0.86211 0.0
H754 H 0.03589 0.22662 0.80838 0.0
H755 H 1.00861 0.18217 0.01182 0.0
H756 H 0.02855 0.08101 0.8922 0.0
H757 H 0.0279 0.11796 0.9293 0.0
H758 H 0.01814 0.16364 0.70692 0.0
C759 C 0.02752 0.2315 0.86521 0.0
C760 C 1.0101 0.17858 0.94455 0.0
C761 C 0.03109 0.25186 0.89574 0.0
C762 C 0.0225 0.09207 0.84571 0.0
C763 C 0.02192 0.1134 0.86736 0.0
C764 C 1.01553 0.1674 0.77349 0.0
C765 C 1.01472 0.21731 0.91083 0.0
C766 C 1.01302 0.19465 0.88372 0.0
C767 C 1.014 0.12851 0.80991 0.0
C768 C 1.01298 0.15136 0.83464 0.0
H769 H 1.00206 0.24974 0.07765 0.0
H770 H 0.99425 0.21475 0.02182 0.0
H771 H 1.01719 0.20031 0.74781 0.0
H772 H 1.00251 0.09531 0.64451 0.0
H773 H 1.0007 0.13241 0.68302 0.0
C774 C 0.28439 0.99634 0.9184 0.0
C775 C 0.27499 1.01258 0.96555 0.0
C776 C 0.30416 0.99899 0.88078 0.0
C777 C 0.35218 0.03148 0.90537 0.0
H778 H 0.3707 0.99974 0.70781 0.0
C779 C 0.44024 0.01866 0.83824 0.0
C780 C 0.44756 0.01793 0.75346 0.0
C781 C 0.41873 0.01912 0.85638 0.0
C782 C 0.36584 1.00895 0.76248 0.0
H783 H 0.27835 0.04477 0.0064 0.0
H784 H 0.31252 0.04996 0.93718 0.0
H785 H 0.33366 1.00003 0.74665 0.0
H786 H 0.43776 1.01692 0.62105 0.0
H787 H 0.40009 0.01819 0.65248 0.0
H788 H 0.38419 0.04083 0.92016 0.0
C789 C 0.3049 0.03486 0.93105 0.0
C790 C 0.34452 1.00891 0.78556 0.0
C791 C 0.28512 0.0321 0.96937 0.0
C792 C 0.43269 1.01742 0.68709 0.0
C793 C 0.41105 0.01807 0.70529 0.0
C794 C 0.37342 0.03167 0.88192 0.0
C795 C 0.31505 0.01811 0.88851 0.0
C796 C 0.33738 0.01988 0.8583 0.0
C797 C 0.40374 0.01911 0.79036 0.0
C798 C 0.3807 0.02007 0.81112 0.0
H799 H 0.27693 0.9811 0.91526 0.0
H800 H 0.31134 0.98559 0.84985 0.0
H801 H 0.34754 0.03994 0.9623 0.0
H802 H 0.45116 0.01884 0.89122 0.0
H803 H 0.41389 0.01931 0.92271 0.0
C804 C 0.50875 0.29285 0.97846 0.0
C805 C 0.52834 0.28271 0.9736 0.0
C806 C 0.50609 0.31311 0.94418 0.0
C807 C 0.53725 0.36037 0.90832 0.0
H808 H 0.49053 0.38121 0.77391 0.0
C809 C 0.51863 0.44894 0.86705 0.0
C810 C 0.5172 0.45612 0.7822 0.0
C811 C 0.51925 0.42741 0.88534 0.0
C812 C 0.50367 0.37556 0.81143 0.0
H813 H 0.55998 0.28512 0.92485 0.0
H814 H 0.55551 0.32038 0.8657 0.0
H815 H 0.49242 0.34371 0.81134 0.0
H816 H 0.51488 0.44615 0.65016 0.0
H817 H 0.51528 0.40842 0.68268 0.0
H818 H 0.5482 0.39219 0.91088 0.0
C819 C 0.54221 0.31285 0.89609 0.0
C820 C 0.50469 0.35416 0.83314 0.0
C821 C 0.54474 0.29262 0.92918 0.0
C822 C 0.51603 0.44117 0.71617 0.0
C823 C 0.51616 0.41958 0.73473 0.0
C824 C 0.53596 0.38177 0.88854 0.0
C825 C 0.52307 0.32364 0.90544 0.0
C826 C 0.52159 0.3463 0.88149 0.0
C827 C 0.51798 0.41248 0.8195 0.0
C828 C 0.51921 0.38962 0.83962 0.0
H829 H 0.49599 0.28572 0.01374 0.0
H830 H 0.49117 0.32104 0.95268 0.0
H831 H 0.55042 0.35484 0.94581 0.0
H832 H 0.51966 0.45997 0.9195 0.0
H833 H 0.52063 0.42241 0.95126 0.0
C834 C 0.24641 0.52167 0.02049 0.0
C835 C 0.25754 0.53969 0.99625 0.0
C836 C 0.22663 0.51737 0.98481 0.0
C837 C 0.18922 0.53433 0.8106 0.0
H838 H 0.14746 0.51165 0.96496 0.0
C839 C 0.10253 0.52032 0.70382 0.0
C840 C 0.08664 0.52328 0.76518 0.0
C841 C 0.12384 0.52086 0.72738 0.0
C842 C 0.1588 0.51823 0.92093 0.0
H843 H 0.25738 0.56674 0.91335 0.0
H844 H 0.22282 0.55987 0.85297 0.0
H845 H 0.18354 0.51498 0.01223 0.0
H846 H 0.08089 0.52985 0.89916 0.0
H847 H 0.1176 0.53154 0.9393 0.0
H848 H 0.1642 0.53863 0.72093 0.0
C849 C 0.22922 0.54867 0.89803 0.0
C850 C 0.17974 0.51978 0.94772 0.0
C851 C 0.24902 0.55277 0.93301 0.0
C852 C 0.09263 0.52721 0.85016 0.0
C853 C 0.11383 0.52801 0.87345 0.0
C854 C 0.16821 0.53299 0.7841 0.0
C855 C 0.21744 0.53114 0.92462 0.0
C856 C 0.19531 0.52805 0.89339 0.0
C857 C 0.12985 0.52462 0.81282 0.0
C858 C 0.15257 0.52514 0.83918 0.0
H859 H 0.25259 0.51147 0.06981 0.0
H860 H 0.21836 0.50347 0.00595 0.0
H861 H 0.20068 0.54046 0.76598 0.0
H862 H 0.09851 0.51718 0.63784 0.0
H863 H 0.13557 0.51795 0.67868 0.0
C864 C 0.0474 0.78802 0.50167 0.0
C865 C 0.03594 0.77938 0.43397 0.0
C866 C 0.04314 0.80833 0.53135 0.0
C867 C 1.01517 0.85804 0.46664 0.0
H868 H 0.03225 0.87535 0.69319 0.0
C869 C 1.01798 0.94616 0.55634 0.0
C870 C 1.01552 0.95243 0.64185 0.0
C871 C 0.01935 0.92487 0.53445 0.0
C872 C 0.027 0.87093 0.63004 0.0
H873 H 1.01006 0.78456 0.34759 0.0
H874 H 1.00136 0.81947 0.40294 0.0
H875 H 0.03468 0.83878 0.65339 0.0
H876 H 1.01228 0.94108 0.77151 0.0
H877 H 1.01343 0.90396 0.73351 0.0
H878 H 1.00621 0.88991 0.44511 0.0
C879 C 1.01446 0.81112 0.43098 0.0
C880 C 0.02882 0.84975 0.60628 0.0
C881 C 0.01911 0.79091 0.40003 0.0
C882 C 1.01428 0.9368 0.70503 0.0
C883 C 1.01512 0.91541 0.68293 0.0
C884 C 1.01288 0.87912 0.49108 0.0
C885 C 0.02678 0.82047 0.49572 0.0
C886 C 0.02329 0.84292 0.52356 0.0
C887 C 1.01776 0.90901 0.5971 0.0
C888 C 0.01911 0.88609 0.57275 0.0
H889 H 0.06023 0.77926 0.52967 0.0
H890 H 0.05331 0.81467 0.58018 0.0
H891 H 1.01092 0.85382 0.40201 0.0
H892 H 0.01931 0.95777 0.50604 0.0
H893 H 0.02202 0.92099 0.46805 0.0
C894 C 0.74531 0.04653 0.49075 0.0
C895 C 0.7543 0.0294 0.44756 0.0
C896 C 0.72545 0.0449 0.52838 0.0
C897 C 0.68366 1.00931 0.60365 0.0
H898 H 0.64613 0.05272 0.51965 0.0
C899 C 0.59643 0.02099 0.71782 0.0
C900 C 0.58167 0.02252 0.65122 0.0
C901 C 0.6181 0.0213 0.7002 0.0
C902 C 0.65641 0.04053 0.54393 0.0
H903 H 0.7503 0.9967 0.41531 0.0
H904 H 0.71567 0.99348 0.48427 0.0
H905 H 0.68335 0.05365 0.48177 0.0
H906 H 0.57821 0.02597 0.51408 0.0
H907 H 0.6158 0.02713 0.48401 0.0
H908 H 0.65655 0.99632 0.66643 0.0
C909 C 0.72398 1.00827 0.48823 0.0
C910 C 0.67776 0.04111 0.52259 0.0
C911 C 0.74385 1.01001 0.44948 0.0
C912 C 0.58909 0.02468 0.56697 0.0
C913 C 0.61066 0.02542 0.54965 0.0
C914 C 0.6623 1.00897 0.62658 0.0
C915 C 0.71418 0.02597 0.52488 0.0
C916 C 0.69165 0.02545 0.55155 0.0
C917 C 0.62544 0.02364 0.61586 0.0
C918 C 0.64838 0.02447 0.59614 0.0
H919 H 0.75305 0.06165 0.48966 0.0
H920 H 0.71849 0.05874 0.55703 0.0
H921 H 0.69396 0.99704 0.62701 0.0
H922 H 0.59125 0.01927 0.78338 0.0
H923 H 0.62912 0.02002 0.75261 0.0
C924 C 0.49484 0.755 0.52988 0.0
C925 C 0.50261 0.76141 0.45029 0.0
C926 C 0.49809 0.73445 0.55909 0.0
C927 C 0.51249 0.68098 0.47696 0.0
H928 H 0.51127 0.6671 0.71783 0.0
C929 C 0.50578 0.59456 0.58679 0.0
C930 C 0.51468 0.58838 0.66495 0.0
C931 C 0.50488 0.61577 0.56338 0.0
C932 C 0.51198 0.67053 0.6502 0.0
H933 H 0.52082 0.752 0.34055 0.0
H934 H 0.52791 0.71648 0.39327 0.0
H935 H 0.51099 0.70356 0.67401 0.0
H936 H 0.52977 0.59968 0.77979 0.0
H937 H 0.52932 0.63654 0.73754 0.0
H938 H 0.51473 0.64808 0.45301 0.0
C939 C 0.51849 0.72689 0.43231 0.0
C940 C 0.51143 0.69166 0.62477 0.0
C941 C 0.51485 0.74736 0.40254 0.0
C942 C 0.52266 0.60395 0.71937 0.0
C943 C 0.52225 0.62519 0.69505 0.0
C944 C 0.51349 0.6599 0.50238 0.0
C945 C 0.50961 0.71985 0.50998 0.0
C946 C 0.51145 0.69728 0.53763 0.0
C947 C 0.51338 0.6315 0.61641 0.0
C948 C 0.513 0.65423 0.58948 0.0
H949 H 0.4852 0.76561 0.56719 0.0
H950 H 0.49067 0.72985 0.6184 0.0
H951 H 0.51215 0.68437 0.40923 0.0
H952 H 0.49922 0.58297 0.54383 0.0
H953 H 0.49731 0.61973 0.50366 0.0
C954 C 0.78961 0.53291 0.45366 0.0
C955 C 0.77991 0.51316 0.45592 0.0
C956 C 0.80956 0.53581 0.49021 0.0
C957 C 0.85078 0.5092 0.62668 0.0
H958 H 0.88867 0.54433 0.4964 0.0
C959 C 0.93882 0.51823 0.72161 0.0
C960 C 0.95362 0.52069 0.65557 0.0
C961 C 0.91716 0.5188 0.7043 0.0
C962 C 0.87844 0.53424 0.53328 0.0
H963 H 0.78279 0.48137 0.50217 0.0
H964 H 0.81748 0.48605 0.56423 0.0
H965 H 0.85188 0.54275 0.45721 0.0
H966 H 0.95703 0.52527 0.51895 0.0
H967 H 0.91968 0.5255 0.48847 0.0
H968 H 0.8776 0.49975 0.6996 0.0
C969 C 0.80985 0.49956 0.53598 0.0
C970 C 0.85707 0.53364 0.51165 0.0
C971 C 0.78989 0.4968 0.50035 0.0
C972 C 0.94616 0.52354 0.57177 0.0
C973 C 0.92458 0.52384 0.55431 0.0
C974 C 0.87221 0.5096 0.64769 0.0
C975 C 0.82035 0.51894 0.52932 0.0
C976 C 0.84287 0.52094 0.55735 0.0
C977 C 0.90965 0.52161 0.62023 0.0
C978 C 0.88649 0.52194 0.60072 0.0
H979 H 0.78236 0.54569 0.4188 0.0
H980 H 0.8168 0.55111 0.4852 0.0
H981 H 0.84044 0.49947 0.66468 0.0
H982 H 0.94394 0.51614 0.78701 0.0
H983 H 0.90633 0.51732 0.7573 0.0
loop_
_geom_bond_atom_site_label_1
_geom_bond_atom_site_label_2
_geom_bond_distance
_geom_bond_site_symmetry_2
_ccdc_geom_bond_type
C0 N1 1.317 . S
C0 N2 1.348 . S
C0 C3 1.485 . S
N1 C0 1.317 . S
N1 N5 1.370 . S
N2 C0 1.348 . S
N2 C4 1.346 . S
C3 C0 1.485 . S
C3 H7 0.960 . S
C3 H8 0.961 . S
C3 H9 0.960 . S
C4 N2 1.346 . S
C4 N5 1.307 . S
C4 C6 1.486 . S
N5 N1 1.370 . S
N5 C4 1.307 . S
C6 C4 1.486 . S
C6 H10 0.960 . S
C6 H11 0.960 . S
C6 H12 0.959 . S
H7 C3 0.960 . S
H8 C3 0.961 . S
H9 C3 0.960 . S
H10 C6 0.960 . S
H11 C6 0.960 . S
H12 C6 0.959 . S
C13 N14 1.317 . S
C13 N15 1.348 . S
C13 C16 1.485 . S
N14 C13 1.317 . S
N14 N18 1.373 . S
N15 C13 1.348 . S
N15 C17 1.347 . S
C16 C13 1.485 . S
C16 H20 0.960 1_655 S
C16 H21 0.961 . S
C16 H22 0.960 . S
C17 N15 1.347 . S
C17 N18 1.307 . S
C17 C19 1.486 1_655 S
N18 N14 1.373 . S
N18 C17 1.307 . S
C19 C17 1.486 1_455 S
C19 H23 0.950 1_455 S
C19 H24 0.968 . S
C19 H25 0.961 . S
H20 C16 0.960 1_455 S
H21 C16 0.961 . S
H22 C16 0.960 . S
H23 C19 0.950 1_655 S
H24 C19 0.968 . S
H25 C19 0.961 . S
C26 N27 1.317 . S
C26 N28 1.348 . S
C26 C29 1.485 . S
N27 C26 1.317 . S
N27 N31 1.370 . S
N28 C26 1.348 . S
N28 C30 1.349 . S
C29 C26 1.485 . S
C29 H33 0.960 1_565 S
C29 H34 0.961 . S
C29 H35 0.960 . S
C30 N28 1.349 . S
C30 N31 1.309 . S
C30 C32 1.485 . S
N31 N27 1.370 . S
N31 C30 1.309 . S
C32 C30 1.485 . S
C32 H36 0.970 . S
C32 H37 0.952 1_565 S
C32 H38 0.957 1_565 S
H33 C29 0.960 1_545 S
H34 C29 0.961 . S
H35 C29 0.960 . S
H36 C32 0.970 . S
H37 C32 0.952 1_545 S
H38 C32 0.957 1_545 S
C39 N40 1.317 . S
C39 N41 1.348 . S
C39 C42 1.485 . S
N40 C39 1.317 . S
N40 N44 1.370 . S
N41 C39 1.348 . S
N41 C43 1.346 . S
C42 C39 1.485 . S
C42 H46 0.960 . S
C42 H47 0.961 . S
C42 H48 0.960 . S
C43 N41 1.346 . S
C43 N44 1.307 . S
C43 C45 1.486 . S
N44 N40 1.370 . S
N44 C43 1.307 . S
C45 C43 1.486 . S
C45 H49 0.960 . S
C45 H50 0.960 . S
C45 H51 0.959 . S
H46 C42 0.960 . S
H47 C42 0.961 . S
H48 C42 0.960 . S
H49 C45 0.960 . S
H50 C45 0.960 . S
H51 C45 0.959 . S
C52 N53 1.317 . S
C52 N54 1.348 1_556 S
C52 C55 1.485 . S
N53 C52 1.317 . S
N53 N57 1.370 1_556 S
N54 C52 1.348 1_554 S
N54 C56 1.346 . S
C55 C52 1.485 . S
C55 H59 0.960 . S
C55 H60 0.961 . S
C55 H61 0.960 . S
C56 N54 1.346 . S
C56 N57 1.307 . S
C56 C58 1.486 . S
N57 N53 1.370 1_554 S
N57 C56 1.307 . S
C58 C56 1.486 . S
C58 H62 0.960 . S
C58 H63 0.960 . S
C58 H64 0.959 . S
H59 C55 0.960 . S
H60 C55 0.961 . S
H61 C55 0.960 . S
H62 C58 0.960 . S
H63 C58 0.960 . S
H64 C58 0.959 . S
C65 N66 1.317 . S
C65 N67 1.348 1_556 S
C65 C68 1.485 . S
N66 C65 1.317 . S
N66 N70 1.370 1_556 S
N67 C65 1.348 1_554 S
N67 C69 1.346 . S
C68 C65 1.485 . S
C68 H72 0.960 . S
C68 H73 0.961 1_455 S
C68 H74 0.961 . S
C69 N67 1.346 . S
C69 N70 1.307 . S
C69 C71 1.486 . S
N70 N66 1.370 1_554 S
N70 C69 1.307 . S
C71 C69 1.486 . S
C71 H75 0.960 1_455 S
C71 H76 0.960 . S
C71 H77 0.959 . S
H72 C68 0.960 . S
H73 C68 0.961 1_655 S
H74 C68 0.961 . S
H75 C71 0.960 1_655 S
H76 C71 0.960 . S
H77 C71 0.959 . S
C78 N79 1.317 . S
C78 N80 1.348 1_556 S
C78 C81 1.485 . S
N79 C78 1.317 . S
N79 N83 1.370 1_556 S
N80 C78 1.348 1_554 S
N80 C82 1.346 . S
C81 C78 1.485 . S
C81 H85 0.960 . S
C81 H86 0.961 1_545 S
C81 H87 0.949 1_545 S
C82 N80 1.346 . S
C82 N83 1.307 . S
C82 C84 1.486 . S
N83 N79 1.370 1_554 S
N83 C82 1.307 . S
C84 C82 1.486 . S
C84 H88 0.960 1_545 S
C84 H89 0.960 . S
C84 H90 0.959 . S
H85 C81 0.960 . S
H86 C81 0.961 1_565 S
H87 C81 0.949 1_565 S
H88 C84 0.960 1_565 S
H89 C84 0.960 . S
H90 C84 0.959 . S
C91 N92 1.317 . S
C91 N93 1.348 1_556 S
C91 C94 1.485 . S
N92 C91 1.317 . S
N92 N96 1.370 1_556 S
N93 C91 1.348 1_554 S
N93 C95 1.346 . S
C94 C91 1.485 . S
C94 H98 0.960 . S
C94 H99 0.961 . S
C94 H100 0.960 . S
C95 N93 1.346 . S
C95 N96 1.307 . S
C95 C97 1.486 . S
N96 N92 1.370 1_554 S
N96 C95 1.307 . S
C97 C95 1.486 . S
C97 H101 0.960 . S
C97 H102 0.960 . S
C97 H103 0.959 . S
H98 C94 0.960 . S
H99 C94 0.961 . S
H100 C94 0.960 . S
H101 C97 0.960 . S
H102 C97 0.960 . S
H103 C97 0.959 . S
Gd104 C107 2.818 . S
Gd104 O124 2.377 . S
Gd104 O126 2.448 . S
Gd104 O127 2.506 . S
Gd104 O128 2.435 . S
Gd104 O129 2.717 1_565 S
Gd104 O131 2.395 1_565 S
Gd104 O135 2.327 1_455 S
Gd105 C116 2.818 . S
Gd105 O125 2.395 1_545 S
Gd105 O129 2.327 1_655 S
Gd105 O130 2.377 . S
Gd105 O132 2.448 . S
Gd105 O133 2.506 1_655 S
Gd105 O134 2.435 . S
Gd105 O135 2.717 1_545 S
C106 O124 1.240 1_655 S
C106 O125 1.240 . S
C107 Gd104 2.818 . S
C107 C108 1.510 . S
C107 O126 1.249 . S
C107 O127 1.252 . S
C108 C107 1.510 . S
C108 C109 1.404 . S
C108 C110 1.352 . S
C109 C108 1.404 . S
C109 C113 1.389 . S
C109 H136 0.930 . S
C110 C108 1.352 . S
C110 C112 1.374 . S
C110 H137 0.931 1_455 S
C111 C112 1.359 1_554 S
C111 C113 1.364 1_554 S
C112 C110 1.374 . S
C112 C111 1.359 1_556 S
C112 H138 0.931 1_456 S
C113 C109 1.389 . S
C113 C111 1.364 1_556 S
C113 H139 0.931 . S
C114 O128 1.256 1_545 S
C114 O129 1.257 . S
C115 O130 1.240 1_455 S
C115 O131 1.240 . S
C116 Gd105 2.818 . S
C116 C117 1.510 . S
C116 O132 1.249 . S
C116 O133 1.252 1_655 S
C117 C116 1.510 . S
C117 C118 1.404 . S
C117 C119 1.352 1_655 S
C118 C117 1.404 . S
C118 C122 1.389 . S
C118 H140 0.930 . S
C119 C117 1.352 1_455 S
C119 C121 1.376 . S
C119 H141 0.931 . S
C120 C121 1.332 1_655 S
C120 C122 1.364 . S
C121 C119 1.376 . S
C121 C120 1.332 1_455 S
C121 H142 0.956 . S
C122 C118 1.389 . S
C122 C120 1.364 . S
C122 H143 0.931 . S
C123 O134 1.256 . S
C123 O135 1.257 1_545 S
O124 Gd104 2.377 . S
O124 C106 1.240 1_455 S
O125 Gd105 2.395 1_565 S
O125 C106 1.240 . S
O126 Gd104 2.448 . S
O126 C107 1.249 . S
O127 Gd104 2.506 . S
O127 C107 1.252 . S
O128 Gd104 2.435 . S
O128 C114 1.256 1_565 S
O129 Gd104 2.717 1_545 S
O129 Gd105 2.327 1_455 S
O129 C114 1.257 . S
O130 Gd105 2.377 . S
O130 C115 1.240 1_655 S
O131 Gd104 2.395 1_545 S
O131 C115 1.240 . S
O132 Gd105 2.448 . S
O132 C116 1.249 . S
O133 Gd105 2.506 1_455 S
O133 C116 1.252 1_455 S
O134 Gd105 2.435 . S
O134 C123 1.256 . S
O135 Gd104 2.327 1_655 S
O135 Gd105 2.717 1_565 S
O135 C123 1.257 1_565 S
H136 C109 0.930 . S
H137 C110 0.931 1_655 S
H138 C112 0.931 1_654 S
H139 C113 0.931 . S
H140 C118 0.930 . S
H141 C119 0.931 . S
H142 C121 0.956 . S
H143 C122 0.931 . S
Gd144 C147 2.818 . S
Gd144 O164 2.377 . S
Gd144 O166 2.448 . S
Gd144 O167 2.506 . S
Gd144 O168 2.435 . S
Gd144 O169 2.717 . S
Gd144 O171 2.395 . S
Gd144 O175 2.327 1_545 S
Gd145 C156 2.818 . S
Gd145 O165 2.395 . S
Gd145 O169 2.327 1_565 S
Gd145 O170 2.377 . S
Gd145 O172 2.448 . S
Gd145 O173 2.506 1_565 S
Gd145 O174 2.435 . S
Gd145 O175 2.717 . S
C146 O164 1.240 1_565 S
C146 O165 1.240 . S
C147 Gd144 2.818 . S
C147 C148 1.510 . S
C147 O166 1.249 . S
C147 O167 1.252 . S
C148 C147 1.510 . S
C148 C149 1.404 . S
C148 C150 1.352 . S
C149 C148 1.404 . S
C149 C153 1.389 . S
C149 H176 0.930 . S
C150 C148 1.352 . S
C150 C152 1.374 . S
C150 H177 0.931 1_545 S
C151 C152 1.359 1_554 S
C151 C153 1.364 1_554 S
C152 C150 1.374 . S
C152 C151 1.359 1_556 S
C152 H178 0.931 1_546 S
C153 C149 1.389 . S
C153 C151 1.364 1_556 S
C153 H179 0.931 . S
C154 O168 1.256 . S
C154 O169 1.257 . S
C155 O170 1.240 1_545 S
C155 O171 1.240 . S
C156 Gd145 2.818 . S
C156 C157 1.510 . S
C156 O172 1.249 . S
C156 O173 1.252 1_565 S
C157 C156 1.510 . S
C157 C158 1.404 . S
C157 C159 1.352 1_565 S
C158 C157 1.404 . S
C158 C162 1.389 . S
C158 H180 0.930 . S
C159 C157 1.352 1_545 S
C159 C161 1.374 1_545 S
C159 H181 0.931 . S
C160 C161 1.357 . S
C160 C162 1.364 . S
C161 C159 1.374 1_565 S
C161 C160 1.357 . S
C161 H182 0.932 1_565 S
C162 C158 1.389 . S
C162 C160 1.364 . S
C162 H183 0.931 . S
C163 O174 1.256 . S
C163 O175 1.257 . S
O164 Gd144 2.377 . S
O164 C146 1.240 1_545 S
O165 Gd145 2.395 . S
O165 C146 1.240 . S
O166 Gd144 2.448 . S
O166 C147 1.249 . S
O167 Gd144 2.506 . S
O167 C147 1.252 . S
O168 Gd144 2.435 . S
O168 C154 1.256 . S
O169 Gd144 2.717 . S
O169 Gd145 2.327 1_545 S
O169 C154 1.257 . S
O170 Gd145 2.377 . S
O170 C155 1.240 1_565 S
O171 Gd144 2.395 . S
O171 C155 1.240 . S
O172 Gd145 2.448 . S
O172 C156 1.249 . S
O173 Gd145 2.506 1_545 S
O173 C156 1.252 1_545 S
O174 Gd145 2.435 . S
O174 C163 1.256 . S
O175 Gd144 2.327 1_565 S
O175 Gd145 2.717 . S
O175 C163 1.257 . S
H176 C149 0.930 . S
H177 C150 0.931 1_565 S
H178 C152 0.931 1_564 S
H179 C153 0.931 . S
H180 C158 0.930 . S
H181 C159 0.931 . S
H182 C161 0.932 1_545 S
H183 C162 0.931 . S
Gd184 C187 2.818 . S
Gd184 O204 2.377 . S
Gd184 O206 2.448 . S
Gd184 O207 2.506 . S
Gd184 O208 2.435 . S
Gd184 O209 2.717 . S
Gd184 O211 2.395 . S
Gd184 O215 2.327 . S
Gd185 C196 2.818 . S
Gd185 O205 2.395 . S
Gd185 O209 2.327 . S
Gd185 O210 2.377 . S
Gd185 O212 2.448 . S
Gd185 O213 2.506 . S
Gd185 O214 2.435 . S
Gd185 O215 2.717 . S
C186 O204 1.240 . S
C186 O205 1.240 . S
C187 Gd184 2.818 . S
C187 C188 1.510 . S
C187 O206 1.249 . S
C187 O207 1.252 . S
C188 C187 1.510 . S
C188 C189 1.404 . S
C188 C190 1.352 . S
C189 C188 1.404 . S
C189 C193 1.389 . S
C189 H216 0.930 . S
C190 C188 1.352 . S
C190 C192 1.374 . S
C190 H217 0.931 . S
C191 C192 1.359 1_554 S
C191 C193 1.364 1_554 S
C192 C190 1.374 . S
C192 C191 1.359 1_556 S
C192 H218 0.931 1_556 S
C193 C189 1.389 . S
C193 C191 1.364 1_556 S
C193 H219 0.931 . S
C194 O208 1.256 . S
C194 O209 1.257 . S
C195 O210 1.240 . S
C195 O211 1.240 . S
C196 Gd185 2.818 . S
C196 C197 1.510 . S
C196 O212 1.249 . S
C196 O213 1.252 . S
C197 C196 1.510 . S
C197 C198 1.404 . S
C197 C199 1.352 . S
C198 C197 1.404 . S
C198 C202 1.389 . S
C198 H220 0.930 . S
C199 C197 1.352 . S
C199 C201 1.374 . S
C199 H221 0.931 . S
C200 C201 1.359 . S
C200 C202 1.364 . S
C201 C199 1.374 . S
C201 C200 1.359 . S
C201 H222 0.931 . S
C202 C198 1.389 . S
C202 C200 1.364 . S
C202 H223 0.931 . S
C203 O214 1.256 . S
C203 O215 1.257 . S
O204 Gd184 2.377 . S
O204 C186 1.240 . S
O205 Gd185 2.395 . S
O205 C186 1.240 . S
O206 Gd184 2.448 . S
O206 C187 1.249 . S
O207 Gd184 2.506 . S
O207 C187 1.252 . S
O208 Gd184 2.435 . S
O208 C194 1.256 . S
O209 Gd184 2.717 . S
O209 Gd185 2.327 . S
O209 C194 1.257 . S
O210 Gd185 2.377 . S
O210 C195 1.240 . S
O211 Gd184 2.395 . S
O211 C195 1.240 . S
O212 Gd185 2.448 . S
O212 C196 1.249 . S
O213 Gd185 2.506 . S
O213 C196 1.252 . S
O214 Gd185 2.435 . S
O214 C203 1.256 . S
O215 Gd184 2.327 . S
O215 Gd185 2.717 . S
O215 C203 1.257 . S
H216 C189 0.930 . S
H217 C190 0.931 . S
H218 C192 0.931 1_554 S
H219 C193 0.931 . S
H220 C198 0.930 . S
H221 C199 0.931 . S
H222 C201 0.931 . S
H223 C202 0.931 . S
Gd224 C227 2.818 . S
Gd224 O244 2.377 . S
Gd224 O246 2.448 . S
Gd224 O247 2.506 . S
Gd224 O248 2.435 . S
Gd224 O249 2.717 1_655 S
Gd224 O251 2.395 1_655 S
Gd224 O255 2.335 . S
Gd225 C236 2.818 . S
Gd225 O245 2.395 1_455 S
Gd225 O249 2.327 . S
Gd225 O250 2.377 . S
Gd225 O252 2.448 . S
Gd225 O253 2.506 . S
Gd225 O254 2.435 . S
Gd225 O255 2.703 1_455 S
C226 O244 1.240 . S
C226 O245 1.240 . S
C227 Gd224 2.818 . S
C227 C228 1.510 . S
C227 O246 1.249 . S
C227 O247 1.252 . S
C228 C227 1.510 . S
C228 C229 1.404 . S
C228 C230 1.352 . S
C229 C228 1.404 . S
C229 C233 1.389 . S
C229 H256 0.930 . S
C230 C228 1.352 . S
C230 C232 1.374 . S
C230 H257 0.931 . S
C231 C232 1.359 1_554 S
C231 C233 1.364 1_554 S
C232 C230 1.374 . S
C232 C231 1.359 1_556 S
C232 H258 0.931 1_556 S
C233 C229 1.389 . S
C233 C231 1.364 1_556 S
C233 H259 0.931 . S
C234 O248 1.256 1_455 S
C234 O249 1.257 . S
C235 O250 1.240 . S
C235 O251 1.240 . S
C236 Gd225 2.818 . S
C236 C237 1.510 . S
C236 O252 1.249 . S
C236 O253 1.252 . S
C237 C236 1.510 . S
C237 C238 1.404 . S
C237 C239 1.352 . S
C238 C237 1.404 . S
C238 C242 1.389 . S
C238 H260 0.930 . S
C239 C237 1.352 . S
C239 C241 1.374 . S
C239 H261 0.931 . S
C240 C241 1.359 . S
C240 C242 1.364 . S
C241 C239 1.374 . S
C241 C240 1.359 . S
C241 H262 0.931 . S
C242 C238 1.389 . S
C242 C240 1.364 . S
C242 H263 0.931 . S
C243 O254 1.256 . S
C243 O255 1.247 1_455 S
O244 Gd224 2.377 . S
O244 C226 1.240 . S
O245 Gd225 2.395 1_655 S
O245 C226 1.240 . S
O246 Gd224 2.448 . S
O246 C227 1.249 . S
O247 Gd224 2.506 . S
O247 C227 1.252 . S
O248 Gd224 2.435 . S
O248 C234 1.256 1_655 S
O249 Gd224 2.717 1_455 S
O249 Gd225 2.327 . S
O249 C234 1.257 . S
O250 Gd225 2.377 . S
O250 C235 1.240 . S
O251 Gd224 2.395 1_455 S
O251 C235 1.240 . S
O252 Gd225 2.448 . S
O252 C236 1.249 . S
O253 Gd225 2.506 . S
O253 C236 1.252 . S
O254 Gd225 2.435 . S
O254 C243 1.256 . S
O255 Gd224 2.335 . S
O255 Gd225 2.703 1_655 S
O255 C243 1.247 1_655 S
H256 C229 0.930 . S
H257 C230 0.931 . S
H258 C232 0.931 1_554 S
H259 C233 0.931 . S
H260 C238 0.930 . S
H261 C239 0.931 . S
H262 C241 0.931 . S
H263 C242 0.931 . S
C264 C265 1.349 1_565 S
C264 C266 1.327 . S
C264 H289 0.950 . S
C265 C264 1.349 1_545 S
C265 C281 1.349 . S
C266 C264 1.327 . S
C266 C285 1.429 1_565 S
C266 H290 0.950 . S
C267 C284 1.574 . S
C267 C286 1.368 . S
C267 H291 0.949 . S
H268 C272 0.949 . S
C269 C270 1.349 . S
C269 C271 1.327 . S
C269 H292 0.950 . S
C270 C269 1.349 . S
C270 C282 1.349 1_545 S
C271 C269 1.327 . S
C271 C287 1.429 . S
C271 H293 0.950 . S
C272 H268 0.949 . S
C272 C280 1.574 . S
C272 C288 1.368 1_565 S
H273 C281 0.950 . S
H274 C279 0.950 . S
H275 C280 0.949 . S
H276 C282 0.950 . S
H277 C283 0.950 . S
H278 C284 0.949 . S
C279 H274 0.950 . S
C279 C281 1.327 . S
C279 C285 1.429 . S
C280 C272 1.574 . S
C280 H275 0.949 . S
C280 C286 1.368 1_565 S
C281 C265 1.349 . S
C281 H273 0.950 . S
C281 C279 1.327 . S
C282 C270 1.349 1_565 S
C282 H276 0.950 . S
C282 C283 1.327 . S
C283 H277 0.950 . S
C283 C282 1.327 . S
C283 C287 1.429 1_565 S
C284 C267 1.574 . S
C284 H278 0.949 . S
C284 C288 1.368 . S
C285 C266 1.429 1_545 S
C285 C279 1.429 . S
C285 C286 1.523 . S
C286 C267 1.368 . S
C286 C280 1.368 1_545 S
C286 C285 1.523 . S
C287 C271 1.429 . S
C287 C283 1.429 1_545 S
C287 C288 1.523 . S
C288 C272 1.368 1_545 S
C288 C284 1.368 . S
C288 C287 1.523 . S
H289 C264 0.950 . S
H290 C266 0.950 . S
H291 C267 0.949 . S
H292 C269 0.950 . S
H293 C271 0.950 . S
C294 C295 1.349 . S
C294 C296 1.327 . S
C294 H319 0.950 . S
C295 C294 1.349 . S
C295 C311 1.349 . S
C296 C294 1.327 . S
C296 C315 1.429 . S
C296 H320 0.950 . S
C297 C314 1.574 . S
C297 C316 1.368 . S
C297 H321 0.949 . S
H298 C302 0.949 . S
C299 C300 1.349 . S
C299 C301 1.327 . S
C299 H322 0.950 . S
C300 C299 1.349 . S
C300 C312 1.349 . S
C301 C299 1.327 . S
C301 C317 1.429 . S
C301 H323 0.950 . S
C302 H298 0.949 . S
C302 C310 1.574 . S
C302 C318 1.368 . S
H303 C311 0.950 . S
H304 C309 0.950 . S
H305 C310 0.949 . S
H306 C312 0.950 . S
H307 C313 0.950 . S
H308 C314 0.949 . S
C309 H304 0.950 . S
C309 C311 1.327 . S
C309 C315 1.429 . S
C310 C302 1.574 . S
C310 H305 0.949 . S
C310 C316 1.368 . S
C311 C295 1.349 . S
C311 H303 0.950 . S
C311 C309 1.327 . S
C312 C300 1.349 . S
C312 H306 0.950 . S
C312 C313 1.327 . S
C313 H307 0.950 . S
C313 C312 1.327 . S
C313 C317 1.429 . S
C314 C297 1.574 . S
C314 H308 0.949 . S
C314 C318 1.368 . S
C315 C296 1.429 . S
C315 C309 1.429 . S
C315 C316 1.523 . S
C316 C297 1.368 . S
C316 C310 1.368 . S
C316 C315 1.523 . S
C317 C301 1.429 . S
C317 C313 1.429 . S
C317 C318 1.523 . S
C318 C302 1.368 . S
C318 C314 1.368 . S
C318 C317 1.523 . S
H319 C294 0.950 . S
H320 C296 0.950 . S
H321 C297 0.949 . S
H322 C299 0.950 . S
H323 C301 0.950 . S
C324 C325 1.349 . S
C324 C326 1.327 . S
C324 H349 0.950 . S
C325 C324 1.349 . S
C325 C341 1.349 . S
C326 C324 1.327 . S
C326 C345 1.429 . S
C326 H350 0.950 . S
C327 C344 1.574 . S
C327 C346 1.368 . S
C327 H351 0.949 . S
H328 C332 0.949 . S
C329 C330 1.349 . S
C329 C331 1.327 . S
C329 H352 0.950 . S
C330 C329 1.349 . S
C330 C342 1.349 . S
C331 C329 1.327 . S
C331 C347 1.429 . S
C331 H353 0.950 . S
C332 H328 0.949 . S
C332 C340 1.574 . S
C332 C348 1.368 . S
H333 C341 0.950 . S
H334 C339 0.950 . S
H335 C340 0.949 . S
H336 C342 0.950 . S
H337 C343 0.950 . S
H338 C344 0.949 . S
C339 H334 0.950 . S
C339 C341 1.327 . S
C339 C345 1.429 . S
C340 C332 1.574 . S
C340 H335 0.949 . S
C340 C346 1.368 . S
C341 C325 1.349 . S
C341 H333 0.950 . S
C341 C339 1.327 . S
C342 C330 1.349 . S
C342 H336 0.950 . S
C342 C343 1.327 . S
C343 H337 0.950 . S
C343 C342 1.327 . S
C343 C347 1.429 . S
C344 C327 1.574 . S
C344 H338 0.949 . S
C344 C348 1.368 . S
C345 C326 1.429 . S
C345 C339 1.429 . S
C345 C346 1.523 . S
C346 C327 1.368 . S
C346 C340 1.368 . S
C346 C345 1.523 . S
C347 C331 1.429 . S
C347 C343 1.429 . S
C347 C348 1.523 . S
C348 C332 1.368 . S
C348 C344 1.368 . S
C348 C347 1.523 . S
H349 C324 0.950 . S
H350 C326 0.950 . S
H351 C327 0.949 . S
H352 C329 0.950 . S
H353 C331 0.950 . S
C354 C355 1.349 . S
C354 C356 1.327 . S
C354 H379 0.950 . S
C355 C354 1.349 . S
C355 C371 1.349 1_455 S
C356 C354 1.327 . S
C356 C375 1.429 . S
C356 H380 0.950 . S
C357 C374 1.574 . S
C357 C376 1.368 1_655 S
C357 H381 0.949 . S
H358 C362 0.949 . S
C359 C360 1.349 1_655 S
C359 C361 1.327 . S
C359 H382 0.950 . S
C360 C359 1.349 1_455 S
C360 C372 1.349 . S
C361 C359 1.327 . S
C361 C377 1.429 1_655 S
C361 H383 0.950 . S
C362 H358 0.949 . S
C362 C370 1.574 . S
C362 C378 1.368 . S
H363 C371 0.950 . S
H364 C369 0.950 . S
H365 C370 0.949 . S
H366 C372 0.950 . S
H367 C373 0.950 . S
H368 C374 0.949 . S
C369 H364 0.950 . S
C369 C371 1.327 . S
C369 C375 1.429 1_655 S
C370 C362 1.574 . S
C370 H365 0.949 . S
C370 C376 1.368 . S
C371 C355 1.349 1_655 S
C371 H363 0.950 . S
C371 C369 1.327 . S
C372 C360 1.349 . S
C372 H366 0.950 . S
C372 C373 1.327 . S
C373 H367 0.950 . S
C373 C372 1.327 . S
C373 C377 1.429 . S
C374 C357 1.574 . S
C374 H368 0.949 . S
C374 C378 1.368 1_655 S
C375 C356 1.429 . S
C375 C369 1.429 1_455 S
C375 C376 1.523 . S
C376 C357 1.368 1_455 S
C376 C370 1.368 . S
C376 C375 1.523 . S
C377 C361 1.429 1_455 S
C377 C373 1.429 . S
C377 C378 1.523 . S
C378 C362 1.368 . S
C378 C374 1.368 1_455 S
C378 C377 1.523 . S
H379 C354 0.950 . S
H380 C356 0.950 . S
H381 C357 0.949 . S
H382 C359 0.950 . S
H383 C361 0.950 . S
C384 C385 1.313 1_545 S
C384 C386 1.327 . S
C384 H409 0.950 . S
C385 C384 1.313 1_565 S
C385 C401 1.385 . S
C386 C384 1.327 . S
C386 C405 1.416 1_545 S
C386 H410 0.950 . S
C387 C404 1.574 . S
C387 C406 1.369 . S
C387 H411 0.949 . S
H388 C392 0.949 . S
C389 C390 1.349 1_565 S
C389 C391 1.327 . S
C389 H412 0.950 . S
C390 C389 1.349 1_545 S
C390 C402 1.349 . S
C391 C389 1.327 . S
C391 C407 1.405 1_565 S
C391 H413 0.950 . S
C392 H388 0.949 . S
C392 C400 1.574 . S
C392 C408 1.381 . S
H393 C401 0.950 . S
H394 C399 0.950 . S
H395 C400 0.949 . S
H396 C402 0.950 . S
H397 C403 0.950 1_554 S
H398 C404 0.949 1_556 S
C399 H394 0.950 . S
C399 C401 1.327 . S
C399 C405 1.441 . S
C400 C392 1.574 . S
C400 H395 0.949 . S
C400 C406 1.368 1_545 S
C401 C385 1.385 . S
C401 H393 0.950 . S
C401 C399 1.327 . S
C402 C390 1.349 . S
C402 H396 0.950 . S
C402 C403 1.327 . S
C403 H397 0.950 1_556 S
C403 C402 1.327 . S
C403 C407 1.453 . S
C404 C387 1.574 . S
C404 H398 0.949 1_554 S
C404 C408 1.356 1_565 S
C405 C386 1.416 1_565 S
C405 C399 1.441 . S
C405 C406 1.523 . S
C406 C387 1.369 . S
C406 C400 1.368 1_565 S
C406 C405 1.523 . S
C407 C391 1.405 1_545 S
C407 C403 1.453 . S
C407 C408 1.523 1_556 S
C408 C392 1.381 . S
C408 C404 1.356 1_545 S
C408 C407 1.523 1_554 S
H409 C384 0.950 . S
H410 C386 0.950 . S
H411 C387 0.949 . S
H412 C389 0.950 . S
H413 C391 0.950 . S
C414 C415 1.349 . S
C414 C416 1.327 . S
C414 H439 0.950 . S
C415 C414 1.349 . S
C415 C431 1.349 . S
C416 C414 1.327 . S
C416 C435 1.429 . S
C416 H440 0.950 . S
C417 C434 1.574 . S
C417 C436 1.368 . S
C417 H441 0.949 . S
H418 C422 0.949 . S
C419 C420 1.349 . S
C419 C421 1.327 . S
C419 H442 0.950 . S
C420 C419 1.349 . S
C420 C432 1.349 . S
C421 C419 1.327 . S
C421 C437 1.429 . S
C421 H443 0.950 1_556 S
C422 H418 0.949 . S
C422 C430 1.574 1_556 S
C422 C438 1.368 1_556 S
H423 C431 0.950 . S
H424 C429 0.950 . S
H425 C430 0.949 . S
H426 C432 0.950 . S
H427 C433 0.950 . S
H428 C434 0.949 . S
C429 H424 0.950 . S
C429 C431 1.327 . S
C429 C435 1.429 . S
C430 C422 1.574 1_554 S
C430 H425 0.949 . S
C430 C436 1.368 . S
C431 C415 1.349 . S
C431 H423 0.950 . S
C431 C429 1.327 . S
C432 C420 1.349 . S
C432 H426 0.950 . S
C432 C433 1.327 . S
C433 H427 0.950 . S
C433 C432 1.327 . S
C433 C437 1.429 . S
C434 C417 1.574 . S
C434 H428 0.949 . S
C434 C438 1.368 . S
C435 C416 1.429 . S
C435 C429 1.429 . S
C435 C436 1.523 . S
C436 C417 1.368 . S
C436 C430 1.368 . S
C436 C435 1.523 . S
C437 C421 1.429 . S
C437 C433 1.429 . S
C437 C438 1.523 1_556 S
C438 C422 1.368 1_554 S
C438 C434 1.368 . S
C438 C437 1.523 1_554 S
H439 C414 0.950 . S
H440 C416 0.950 . S
H441 C417 0.949 . S
H442 C419 0.950 . S
H443 C421 0.950 1_554 S
C444 C445 1.349 . S
C444 C446 1.327 . S
C444 H469 0.950 . S
C445 C444 1.349 . S
C445 C461 1.349 . S
C446 C444 1.327 . S
C446 C465 1.429 . S
C446 H470 0.950 . S
C447 C464 1.574 . S
C447 C466 1.368 . S
C447 H471 0.949 . S
H448 C452 0.949 1_556 S
C449 C450 1.349 . S
C449 C451 1.327 . S
C449 H472 0.950 . S
C450 C449 1.349 . S
C450 C462 1.349 . S
C451 C449 1.327 . S
C451 C467 1.429 . S
C451 H473 0.950 1_556 S
C452 H448 0.949 1_554 S
C452 C460 1.574 . S
C452 C468 1.368 . S
H453 C461 0.950 . S
H454 C459 0.950 . S
H455 C460 0.949 . S
H456 C462 0.950 . S
H457 C463 0.950 . S
H458 C464 0.949 . S
C459 H454 0.950 . S
C459 C461 1.327 . S
C459 C465 1.429 . S
C460 C452 1.574 . S
C460 H455 0.949 . S
C460 C466 1.368 . S
C461 C445 1.349 . S
C461 H453 0.950 . S
C461 C459 1.327 . S
C462 C450 1.349 . S
C462 H456 0.950 . S
C462 C463 1.327 . S
C463 H457 0.950 . S
C463 C462 1.327 . S
C463 C467 1.429 . S
C464 C447 1.574 . S
C464 H458 0.949 . S
C464 C468 1.368 . S
C465 C446 1.429 . S
C465 C459 1.429 . S
C465 C466 1.523 . S
C466 C447 1.368 . S
C466 C460 1.368 . S
C466 C465 1.523 . S
C467 C451 1.429 . S
C467 C463 1.429 . S
C467 C468 1.523 1_556 S
C468 C452 1.368 . S
C468 C464 1.368 . S
C468 C467 1.523 1_554 S
H469 C444 0.950 . S
H470 C446 0.950 . S
H471 C447 0.949 . S
H472 C449 0.950 . S
H473 C451 0.950 1_554 S
C474 C475 1.362 . S
C474 C476 1.327 . S
C474 H499 0.950 . S
C475 C474 1.362 . S
C475 C491 1.336 1_655 S
C476 C474 1.327 . S
C476 C495 1.424 1_655 S
C476 H500 0.950 . S
C477 C494 1.574 . S
C477 C496 1.390 . S
C477 H501 0.949 . S
H478 C482 0.949 . S
C479 C480 1.349 . S
C479 C481 1.327 . S
C479 H502 0.950 . S
C480 C479 1.349 . S
C480 C492 1.349 1_455 S
C481 C479 1.327 . S
C481 C497 1.429 . S
C481 H503 0.950 . S
C482 H478 0.949 . S
C482 C490 1.574 . S
C482 C498 1.317 1_655 S
H483 C491 0.950 . S
H484 C489 0.950 . S
H485 C490 0.949 . S
H486 C492 0.950 . S
H487 C493 0.950 . S
H488 C494 0.949 . S
C489 H484 0.950 . S
C489 C491 1.327 . S
C489 C495 1.433 . S
C490 C482 1.574 . S
C490 H485 0.949 . S
C490 C496 1.347 1_655 S
C491 C475 1.336 1_455 S
C491 H483 0.950 . S
C491 C489 1.327 . S
C492 C480 1.349 1_655 S
C492 H486 0.950 . S
C492 C493 1.327 . S
C493 H487 0.950 . S
C493 C492 1.327 . S
C493 C497 1.429 1_655 S
C494 C477 1.574 . S
C494 H488 0.949 . S
C494 C498 1.419 . S
C495 C476 1.424 1_455 S
C495 C489 1.433 . S
C495 C496 1.523 . S
C496 C477 1.390 . S
C496 C490 1.347 1_455 S
C496 C495 1.523 . S
C497 C481 1.429 . S
C497 C493 1.429 1_455 S
C497 C498 1.525 1_556 S
C498 C482 1.317 1_455 S
C498 C494 1.419 . S
C498 C497 1.525 1_554 S
H499 C474 0.950 . S
H500 C476 0.950 . S
H501 C477 0.949 . S
H502 C479 0.950 . S
H503 C481 0.950 . S
C504 C505 1.349 . S
C504 C506 1.327 . S
C504 H529 0.950 1_554 S
C505 C504 1.349 . S
C505 C521 1.349 1_455 S
C506 C504 1.327 . S
C506 C525 1.429 . S
C506 H530 0.950 . S
C507 C524 1.574 . S
C507 C526 1.368 . S
C507 H531 0.949 . S
H508 C512 0.949 . S
C509 C510 1.349 . S
C509 C511 1.327 . S
C509 H532 0.950 . S
C510 C509 1.349 . S
C510 C522 1.349 . S
C511 C509 1.327 . S
C511 C527 1.429 . S
C511 H533 0.950 . S
C512 H508 0.949 . S
C512 C520 1.574 . S
C512 C528 1.368 1_455 S
H513 C521 0.950 . S
H514 C519 0.950 . S
H515 C520 0.949 . S
H516 C522 0.950 . S
H517 C523 0.950 1_455 S
H518 C524 0.949 . S
C519 H514 0.950 . S
C519 C521 1.327 . S
C519 C525 1.429 1_655 S
C520 C512 1.574 . S
C520 H515 0.949 . S
C520 C526 1.368 1_455 S
C521 C505 1.349 1_655 S
C521 H513 0.950 . S
C521 C519 1.327 . S
C522 C510 1.349 . S
C522 H516 0.950 . S
C522 C523 1.327 . S
C523 H517 0.950 1_655 S
C523 C522 1.327 . S
C523 C527 1.429 . S
C524 C507 1.574 . S
C524 H518 0.949 . S
C524 C528 1.368 . S
C525 C506 1.429 . S
C525 C519 1.429 1_455 S
C525 C526 1.523 1_455 S
C526 C507 1.368 . S
C526 C520 1.368 1_655 S
C526 C525 1.523 1_655 S
C527 C511 1.429 . S
C527 C523 1.429 . S
C527 C528 1.523 . S
C528 C512 1.368 1_655 S
C528 C524 1.368 . S
C528 C527 1.523 . S
H529 C504 0.950 1_556 S
H530 C506 0.950 . S
H531 C507 0.949 . S
H532 C509 0.950 . S
H533 C511 0.950 . S
C534 C535 1.349 1_565 S
C534 C536 1.327 . S
C534 H559 0.950 . S
C535 C534 1.349 1_545 S
C535 C551 1.349 . S
C536 C534 1.327 . S
C536 C555 1.429 1_565 S
C536 H560 0.950 . S
C537 C554 1.574 . S
C537 C556 1.368 1_545 S
C537 H561 0.949 . S
H538 C542 0.949 . S
C539 C540 1.349 . S
C539 C541 1.327 . S
C539 H562 0.950 . S
C540 C539 1.349 . S
C540 C552 1.349 . S
C541 C539 1.327 . S
C541 C557 1.429 . S
C541 H563 0.950 1_565 S
C542 H538 0.949 . S
C542 C550 1.574 . S
C542 C558 1.368 . S
H543 C551 0.950 1_556 S
H544 C549 0.950 . S
H545 C550 0.949 . S
H546 C552 0.950 . S
H547 C553 0.950 . S
H548 C554 0.949 . S
C549 H544 0.950 . S
C549 C551 1.327 . S
C549 C555 1.429 . S
C550 C542 1.574 . S
C550 H545 0.949 . S
C550 C556 1.368 . S
C551 C535 1.349 . S
C551 H543 0.950 1_554 S
C551 C549 1.327 . S
C552 C540 1.349 . S
C552 H546 0.950 . S
C552 C553 1.327 . S
C553 H547 0.950 . S
C553 C552 1.327 . S
C553 C557 1.429 . S
C554 C537 1.574 . S
C554 H548 0.949 . S
C554 C558 1.368 1_545 S
C555 C536 1.429 1_545 S
C555 C549 1.429 . S
C555 C556 1.523 1_545 S
C556 C537 1.368 1_565 S
C556 C550 1.368 . S
C556 C555 1.523 1_565 S
C557 C541 1.429 . S
C557 C553 1.429 . S
C557 C558 1.523 . S
C558 C542 1.368 . S
C558 C554 1.368 1_565 S
C558 C557 1.523 . S
H559 C534 0.950 . S
H560 C536 0.950 . S
H561 C537 0.949 . S
H562 C539 0.950 . S
H563 C541 0.950 1_545 S
C564 C565 1.349 . S
C564 C566 1.327 . S
C564 H589 0.950 . S
C565 C564 1.349 . S
C565 C581 1.349 . S
C566 C564 1.327 . S
C566 C585 1.429 . S
C566 H590 0.950 . S
C567 C584 1.574 . S
C567 C586 1.368 . S
C567 H591 0.949 . S
H568 C572 0.949 . S
C569 C570 1.349 . S
C569 C571 1.327 . S
C569 H592 0.950 . S
C570 C569 1.349 . S
C570 C582 1.349 . S
C571 C569 1.327 . S
C571 C587 1.429 . S
C571 H593 0.950 . S
C572 H568 0.949 . S
C572 C580 1.574 . S
C572 C588 1.368 . S
H573 C581 0.950 . S
H574 C579 0.950 . S
H575 C580 0.949 . S
H576 C582 0.950 . S
H577 C583 0.950 . S
H578 C584 0.949 . S
C579 H574 0.950 . S
C579 C581 1.327 . S
C579 C585 1.429 . S
C580 C572 1.574 . S
C580 H575 0.949 . S
C580 C586 1.368 . S
C581 C565 1.349 . S
C581 H573 0.950 . S
C581 C579 1.327 . S
C582 C570 1.349 . S
C582 H576 0.950 . S
C582 C583 1.327 . S
C583 H577 0.950 . S
C583 C582 1.327 . S
C583 C587 1.429 . S
C584 C567 1.574 . S
C584 H578 0.949 . S
C584 C588 1.368 . S
C585 C566 1.429 . S
C585 C579 1.429 . S
C585 C586 1.523 . S
C586 C567 1.368 . S
C586 C580 1.368 . S
C586 C585 1.523 . S
C587 C571 1.429 . S
C587 C583 1.429 . S
C587 C588 1.523 . S
C588 C572 1.368 . S
C588 C584 1.368 . S
C588 C587 1.523 . S
H589 C564 0.950 . S
H590 C566 0.950 . S
H591 C567 0.949 . S
H592 C569 0.950 . S
H593 C571 0.950 . S
C594 C595 1.349 . S
C594 C596 1.327 . S
C594 H619 0.950 1_554 S
C595 C594 1.349 . S
C595 C611 1.349 . S
C596 C594 1.327 . S
C596 C615 1.429 . S
C596 H620 0.950 . S
C597 C614 1.574 . S
C597 C616 1.368 . S
C597 H621 0.949 . S
H598 C602 0.949 . S
C599 C600 1.349 . S
C599 C601 1.327 . S
C599 H622 0.950 . S
C600 C599 1.349 . S
C600 C612 1.349 . S
C601 C599 1.327 . S
C601 C617 1.429 . S
C601 H623 0.950 . S
C602 H598 0.949 . S
C602 C610 1.574 . S
C602 C618 1.368 . S
H603 C611 0.950 . S
H604 C609 0.950 . S
H605 C610 0.949 . S
H606 C612 0.950 . S
H607 C613 0.950 . S
H608 C614 0.949 . S
C609 H604 0.950 . S
C609 C611 1.327 . S
C609 C615 1.429 . S
C610 C602 1.574 . S
C610 H605 0.949 . S
C610 C616 1.368 . S
C611 C595 1.349 . S
C611 H603 0.950 . S
C611 C609 1.327 . S
C612 C600 1.349 . S
C612 H606 0.950 . S
C612 C613 1.327 . S
C613 H607 0.950 . S
C613 C612 1.327 . S
C613 C617 1.429 . S
C614 C597 1.574 . S
C614 H608 0.949 . S
C614 C618 1.368 . S
C615 C596 1.429 . S
C615 C609 1.429 . S
C615 C616 1.523 . S
C616 C597 1.368 . S
C616 C610 1.368 . S
C616 C615 1.523 . S
C617 C601 1.429 . S
C617 C613 1.429 . S
C617 C618 1.523 . S
C618 C602 1.368 . S
C618 C614 1.368 . S
C618 C617 1.523 . S
H619 C594 0.950 1_556 S
H620 C596 0.950 . S
H621 C597 0.949 . S
H622 C599 0.950 . S
H623 C601 0.950 . S
C624 C625 1.349 . S
C624 C626 1.327 . S
C624 H649 0.950 . S
C625 C624 1.349 . S
C625 C641 1.349 1_655 S
C626 C624 1.327 . S
C626 C645 1.429 1_655 S
C626 H650 0.950 . S
C627 C644 1.574 . S
C627 C646 1.368 . S
C627 H651 0.949 . S
H628 C632 0.949 . S
C629 C630 1.349 . S
C629 C631 1.327 . S
C629 H652 0.950 . S
C630 C629 1.349 . S
C630 C642 1.349 1_554 S
C631 C629 1.327 . S
C631 C647 1.429 . S
C631 H653 0.950 . S
C632 H628 0.949 . S
C632 C640 1.574 . S
C632 C648 1.368 . S
H633 C641 0.950 . S
H634 C639 0.950 . S
H635 C640 0.949 1_655 S
H636 C642 0.950 . S
H637 C643 0.950 1_556 S
H638 C644 0.949 . S
C639 H634 0.950 . S
C639 C641 1.327 . S
C639 C645 1.429 . S
C640 C632 1.574 . S
C640 H635 0.949 1_455 S
C640 C646 1.368 . S
C641 C625 1.349 1_455 S
C641 H633 0.950 . S
C641 C639 1.327 . S
C642 C630 1.349 1_556 S
C642 H636 0.950 . S
C642 C643 1.327 1_556 S
C643 H637 0.950 1_554 S
C643 C642 1.327 1_554 S
C643 C647 1.429 . S
C644 C627 1.574 . S
C644 H638 0.949 . S
C644 C648 1.368 . S
C645 C626 1.429 1_455 S
C645 C639 1.429 . S
C645 C646 1.523 . S
C646 C627 1.368 . S
C646 C640 1.368 . S
C646 C645 1.523 . S
C647 C631 1.429 . S
C647 C643 1.429 . S
C647 C648 1.523 . S
C648 C632 1.368 . S
C648 C644 1.368 . S
C648 C647 1.523 . S
H649 C624 0.950 . S
H650 C626 0.950 . S
H651 C627 0.949 . S
H652 C629 0.950 . S
H653 C631 0.950 . S
C654 C655 1.349 . S
C654 C656 1.327 . S
C654 H679 0.950 . S
C655 C654 1.349 . S
C655 C671 1.349 1_565 S
C656 C654 1.327 . S
C656 C675 1.429 1_565 S
C656 H680 0.950 . S
C657 C674 1.574 . S
C657 C676 1.368 . S
C657 H681 0.949 . S
H658 C662 0.949 . S
C659 C660 1.349 . S
C659 C661 1.327 . S
C659 H682 0.950 1_554 S
C660 C659 1.349 . S
C660 C672 1.349 . S
C661 C659 1.327 . S
C661 C677 1.429 . S
C661 H683 0.950 . S
C662 H658 0.949 . S
C662 C670 1.574 . S
C662 C678 1.368 1_565 S
H663 C671 0.950 . S
H664 C669 0.950 . S
H665 C670 0.949 . S
H666 C672 0.950 . S
H667 C673 0.950 1_565 S
H668 C674 0.949 . S
C669 H664 0.950 . S
C669 C671 1.327 . S
C669 C675 1.429 . S
C670 C662 1.574 . S
C670 H665 0.949 . S
C670 C676 1.368 1_565 S
C671 C655 1.349 1_545 S
C671 H663 0.950 . S
C671 C669 1.327 . S
C672 C660 1.349 . S
C672 H666 0.950 . S
C672 C673 1.327 . S
C673 H667 0.950 1_545 S
C673 C672 1.327 . S
C673 C677 1.429 . S
C674 C657 1.574 . S
C674 H668 0.949 . S
C674 C678 1.368 . S
C675 C656 1.429 1_545 S
C675 C669 1.429 . S
C675 C676 1.523 . S
C676 C657 1.368 . S
C676 C670 1.368 1_545 S
C676 C675 1.523 . S
C677 C661 1.429 . S
C677 C673 1.429 . S
C677 C678 1.523 . S
C678 C662 1.368 1_545 S
C678 C674 1.368 . S
C678 C677 1.523 . S
H679 C654 0.950 . S
H680 C656 0.950 . S
H681 C657 0.949 . S
H682 C659 0.950 1_556 S
H683 C661 0.950 . S
C684 C685 1.349 . S
C684 C686 1.327 . S
C684 H709 0.950 . S
C685 C684 1.349 . S
C685 C701 1.349 . S
C686 C684 1.327 . S
C686 C705 1.429 . S
C686 H710 0.950 . S
C687 C704 1.574 . S
C687 C706 1.368 . S
C687 H711 0.949 . S
H688 C692 0.949 . S
C689 C690 1.349 1_556 S
C689 C691 1.327 1_556 S
C689 H712 0.950 . S
C690 C689 1.349 1_554 S
C690 C702 1.349 . S
C691 C689 1.327 1_554 S
C691 C707 1.429 . S
C691 H713 0.950 1_554 S
C692 H688 0.949 . S
C692 C700 1.574 . S
C692 C708 1.368 . S
H693 C701 0.950 . S
H694 C699 0.950 . S
H695 C700 0.949 . S
H696 C702 0.950 . S
H697 C703 0.950 . S
H698 C704 0.949 . S
C699 H694 0.950 . S
C699 C701 1.327 . S
C699 C705 1.429 . S
C700 C692 1.574 . S
C700 H695 0.949 . S
C700 C706 1.368 . S
C701 C685 1.349 . S
C701 H693 0.950 . S
C701 C699 1.327 . S
C702 C690 1.349 . S
C702 H696 0.950 . S
C702 C703 1.327 . S
C703 H697 0.950 . S
C703 C702 1.327 . S
C703 C707 1.429 . S
C704 C687 1.574 . S
C704 H698 0.949 . S
C704 C708 1.368 . S
C705 C686 1.429 . S
C705 C699 1.429 . S
C705 C706 1.523 . S
C706 C687 1.368 . S
C706 C700 1.368 . S
C706 C705 1.523 . S
C707 C691 1.429 . S
C707 C703 1.429 . S
C707 C708 1.523 . S
C708 C692 1.368 . S
C708 C704 1.368 . S
C708 C707 1.523 . S
H709 C684 0.950 . S
H710 C686 0.950 . S
H711 C687 0.949 . S
H712 C689 0.950 . S
H713 C691 0.950 1_556 S
C714 C715 1.349 . S
C714 C716 1.327 . S
C714 H739 0.950 . S
C715 C714 1.349 . S
C715 C731 1.349 . S
C716 C714 1.327 . S
C716 C735 1.429 . S
C716 H740 0.950 . S
C717 C734 1.574 . S
C717 C736 1.368 . S
C717 H741 0.949 . S
H718 C722 0.949 . S
C719 C720 1.349 . S
C719 C721 1.327 . S
C719 H742 0.950 1_554 S
C720 C719 1.349 . S
C720 C732 1.349 . S
C721 C719 1.327 . S
C721 C737 1.429 . S
C721 H743 0.950 . S
C722 H718 0.949 . S
C722 C730 1.574 . S
C722 C738 1.368 . S
H723 C731 0.950 . S
H724 C729 0.950 . S
H725 C730 0.949 . S
H726 C732 0.950 . S
H727 C733 0.950 . S
H728 C734 0.949 . S
C729 H724 0.950 . S
C729 C731 1.327 . S
C729 C735 1.429 . S
C730 C722 1.574 . S
C730 H725 0.949 . S
C730 C736 1.368 . S
C731 C715 1.349 . S
C731 H723 0.950 . S
C731 C729 1.327 . S
C732 C720 1.349 . S
C732 H726 0.950 . S
C732 C733 1.327 . S
C733 H727 0.950 . S
C733 C732 1.327 . S
C733 C737 1.429 . S
C734 C717 1.574 . S
C734 H728 0.949 . S
C734 C738 1.368 . S
C735 C716 1.429 . S
C735 C729 1.429 . S
C735 C736 1.523 . S
C736 C717 1.368 . S
C736 C730 1.368 . S
C736 C735 1.523 . S
C737 C721 1.429 . S
C737 C733 1.429 . S
C737 C738 1.523 . S
C738 C722 1.368 . S
C738 C734 1.368 . S
C738 C737 1.523 . S
H739 C714 0.950 . S
H740 C716 0.950 . S
H741 C717 0.949 . S
H742 C719 0.950 1_556 S
H743 C721 0.950 . S
C744 C745 1.349 1_655 S
C744 C746 1.329 . S
C744 H769 0.950 1_556 S
C745 C744 1.349 1_455 S
C745 C761 1.349 . S
C746 C744 1.329 . S
C746 C765 1.399 1_655 S
C746 H770 0.981 . S
C747 C764 1.574 . S
C747 C766 1.368 . S
C747 H771 0.949 . S
H748 C752 0.942 1_655 S
C749 C750 1.349 . S
C749 C751 1.327 . S
C749 H772 0.950 . S
C750 C749 1.349 . S
C750 C762 1.349 . S
C751 C749 1.327 . S
C751 C767 1.429 . S
C751 H773 0.950 . S
C752 H748 0.942 1_455 S
C752 C760 1.573 1_455 S
C752 C768 1.377 . S
H753 C761 0.950 . S
H754 C759 0.950 . S
H755 C760 0.957 . S
H756 C762 0.950 1_655 S
H757 C763 0.950 1_655 S
H758 C764 0.949 . S
C759 H754 0.950 . S
C759 C761 1.327 . S
C759 C765 1.429 . S
C760 C752 1.573 1_655 S
C760 H755 0.957 . S
C760 C766 1.360 1_655 S
C761 C745 1.349 . S
C761 H753 0.950 . S
C761 C759 1.327 . S
C762 C750 1.349 . S
C762 H756 0.950 1_455 S
C762 C763 1.327 . S
C763 H757 0.950 1_455 S
C763 C762 1.327 . S
C763 C767 1.429 . S
C764 C747 1.574 . S
C764 H758 0.949 . S
C764 C768 1.368 . S
C765 C746 1.399 1_455 S
C765 C759 1.429 . S
C765 C766 1.523 . S
C766 C747 1.368 . S
C766 C760 1.360 1_455 S
C766 C765 1.523 . S
C767 C751 1.429 . S
C767 C763 1.429 . S
C767 C768 1.523 . S
C768 C752 1.377 . S
C768 C764 1.368 . S
C768 C767 1.523 . S
H769 C744 0.950 1_554 S
H770 C746 0.981 . S
H771 C747 0.949 . S
H772 C749 0.950 . S
H773 C751 0.950 . S
C774 C775 1.349 1_565 S
C774 C776 1.327 . S
C774 H799 0.950 . S
C775 C774 1.349 1_545 S
C775 C791 1.349 . S
C776 C774 1.327 . S
C776 C795 1.429 1_565 S
C776 H800 0.950 . S
C777 C794 1.574 . S
C777 C796 1.368 . S
C777 H801 0.949 . S
H778 C782 0.951 1_565 S
C779 C780 1.349 . S
C779 C781 1.327 . S
C779 H802 0.950 . S
C780 C779 1.349 . S
C780 C792 1.349 . S
C781 C779 1.327 . S
C781 C797 1.429 . S
C781 H803 0.950 . S
C782 H778 0.951 1_545 S
C782 C790 1.573 1_545 S
C782 C798 1.366 . S
H783 C791 0.950 1_554 S
H784 C789 0.950 . S
H785 C790 0.968 . S
H786 C792 0.950 1_565 S
H787 C793 0.950 1_565 S
H788 C794 0.949 . S
C789 H784 0.950 . S
C789 C791 1.327 . S
C789 C795 1.429 . S
C790 C782 1.573 1_565 S
C790 H785 0.968 . S
C790 C796 1.349 1_565 S
C791 C775 1.349 . S
C791 H783 0.950 1_556 S
C791 C789 1.327 . S
C792 C780 1.349 . S
C792 H786 0.950 1_545 S
C792 C793 1.327 . S
C793 H787 0.950 1_545 S
C793 C792 1.327 . S
C793 C797 1.429 . S
C794 C777 1.574 . S
C794 H788 0.949 . S
C794 C798 1.368 . S
C795 C776 1.429 1_545 S
C795 C789 1.429 . S
C795 C796 1.523 . S
C796 C777 1.368 . S
C796 C790 1.349 1_545 S
C796 C795 1.523 . S
C797 C781 1.429 . S
C797 C793 1.429 . S
C797 C798 1.523 . S
C798 C782 1.366 . S
C798 C794 1.368 . S
C798 C797 1.523 . S
H799 C774 0.950 . S
H800 C776 0.950 . S
H801 C777 0.949 . S
H802 C779 0.950 . S
H803 C781 0.950 . S
C804 C805 1.349 . S
C804 C806 1.327 . S
C804 H829 0.950 . S
C805 C804 1.349 . S
C805 C821 1.349 . S
C806 C804 1.327 . S
C806 C825 1.429 . S
C806 H830 0.950 . S
C807 C824 1.574 . S
C807 C826 1.368 . S
C807 H831 0.949 . S
H808 C812 0.949 . S
C809 C810 1.349 . S
C809 C811 1.327 . S
C809 H832 0.950 . S
C810 C809 1.349 . S
C810 C822 1.349 . S
C811 C809 1.327 . S
C811 C827 1.429 . S
C811 H833 0.950 . S
C812 H808 0.949 . S
C812 C820 1.574 . S
C812 C828 1.368 . S
H813 C821 0.950 1_554 S
H814 C819 0.950 . S
H815 C820 0.949 . S
H816 C822 0.950 . S
H817 C823 0.950 . S
H818 C824 0.949 . S
C819 H814 0.950 . S
C819 C821 1.327 . S
C819 C825 1.429 . S
C820 C812 1.574 . S
C820 H815 0.949 . S
C820 C826 1.368 . S
C821 C805 1.349 . S
C821 H813 0.950 1_556 S
C821 C819 1.327 . S
C822 C810 1.349 . S
C822 H816 0.950 . S
C822 C823 1.327 . S
C823 H817 0.950 . S
C823 C822 1.327 . S
C823 C827 1.429 . S
C824 C807 1.574 . S
C824 H818 0.949 . S
C824 C828 1.368 . S
C825 C806 1.429 . S
C825 C819 1.429 . S
C825 C826 1.523 . S
C826 C807 1.368 . S
C826 C820 1.368 . S
C826 C825 1.523 . S
C827 C811 1.429 . S
C827 C823 1.429 . S
C827 C828 1.523 . S
C828 C812 1.368 . S
C828 C824 1.368 . S
C828 C827 1.523 . S
H829 C804 0.950 . S
H830 C806 0.950 . S
H831 C807 0.949 . S
H832 C809 0.950 . S
H833 C811 0.950 . S
C834 C835 1.349 . S
C834 C836 1.327 . S
C834 H859 0.949 1_556 S
C835 C834 1.349 . S
C835 C851 1.349 . S
C836 C834 1.327 . S
C836 C855 1.429 . S
C836 H860 0.950 . S
C837 C854 1.574 . S
C837 C856 1.368 . S
C837 H861 0.949 . S
H838 C842 0.949 . S
C839 C840 1.349 . S
C839 C841 1.327 . S
C839 H862 0.950 . S
C840 C839 1.349 . S
C840 C852 1.349 . S
C841 C839 1.327 . S
C841 C857 1.429 . S
C841 H863 0.950 . S
C842 H838 0.949 . S
C842 C850 1.574 . S
C842 C858 1.368 . S
H843 C851 0.950 . S
H844 C849 0.950 . S
H845 C850 0.949 . S
H846 C852 0.950 . S
H847 C853 0.950 . S
H848 C854 0.949 . S
C849 H844 0.950 . S
C849 C851 1.327 . S
C849 C855 1.429 . S
C850 C842 1.574 . S
C850 H845 0.949 . S
C850 C856 1.368 . S
C851 C835 1.349 . S
C851 H843 0.950 . S
C851 C849 1.327 . S
C852 C840 1.349 . S
C852 H846 0.950 . S
C852 C853 1.327 . S
C853 H847 0.950 . S
C853 C852 1.327 . S
C853 C857 1.429 . S
C854 C837 1.574 . S
C854 H848 0.949 . S
C854 C858 1.368 . S
C855 C836 1.429 . S
C855 C849 1.429 . S
C855 C856 1.523 . S
C856 C837 1.368 . S
C856 C850 1.368 . S
C856 C855 1.523 . S
C857 C841 1.429 . S
C857 C853 1.429 . S
C857 C858 1.523 . S
C858 C842 1.368 . S
C858 C854 1.368 . S
C858 C857 1.523 . S
H859 C834 0.949 1_554 S
H860 C836 0.950 . S
H861 C837 0.949 . S
H862 C839 0.950 . S
H863 C841 0.950 . S
C864 C865 1.349 1_455 S
C864 C866 1.327 . S
C864 H889 0.950 . S
C865 C864 1.349 1_655 S
C865 C881 1.349 . S
C866 C864 1.327 . S
C866 C885 1.429 1_455 S
C866 H890 0.950 . S
C867 C884 1.574 . S
C867 C886 1.368 . S
C867 H891 0.949 . S
H868 C872 0.949 . S
C869 C870 1.349 . S
C869 C871 1.327 . S
C869 H892 0.950 . S
C870 C869 1.349 . S
C870 C882 1.349 1_655 S
C871 C869 1.327 . S
C871 C887 1.429 . S
C871 H893 0.950 . S
C872 H868 0.949 . S
C872 C880 1.574 . S
C872 C888 1.368 1_455 S
H873 C881 0.950 . S
H874 C879 0.950 . S
H875 C880 0.949 . S
H876 C882 0.950 . S
H877 C883 0.950 . S
H878 C884 0.949 . S
C879 H874 0.950 . S
C879 C881 1.327 . S
C879 C885 1.429 . S
C880 C872 1.574 . S
C880 H875 0.949 . S
C880 C886 1.368 1_455 S
C881 C865 1.349 . S
C881 H873 0.950 . S
C881 C879 1.327 . S
C882 C870 1.349 1_455 S
C882 H876 0.950 . S
C882 C883 1.327 . S
C883 H877 0.950 . S
C883 C882 1.327 . S
C883 C887 1.429 1_455 S
C884 C867 1.574 . S
C884 H878 0.949 . S
C884 C888 1.368 . S
C885 C866 1.429 1_655 S
C885 C879 1.429 . S
C885 C886 1.523 . S
C886 C867 1.368 . S
C886 C880 1.368 1_655 S
C886 C885 1.523 . S
C887 C871 1.429 . S
C887 C883 1.429 1_655 S
C887 C888 1.523 . S
C888 C872 1.368 1_655 S
C888 C884 1.368 . S
C888 C887 1.523 . S
H889 C864 0.950 . S
H890 C866 0.950 . S
H891 C867 0.949 . S
H892 C869 0.950 . S
H893 C871 0.950 . S
C894 C895 1.349 1_545 S
C894 C896 1.327 . S
C894 H919 0.950 . S
C895 C894 1.349 1_565 S
C895 C911 1.349 . S
C896 C894 1.327 . S
C896 C915 1.429 1_545 S
C896 H920 0.950 . S
C897 C914 1.574 . S
C897 C916 1.368 . S
C897 H921 0.949 . S
H898 C902 0.949 . S
C899 C900 1.349 . S
C899 C901 1.327 . S
C899 H922 0.950 . S
C900 C899 1.349 . S
C900 C912 1.349 1_565 S
C901 C899 1.327 . S
C901 C917 1.429 . S
C901 H923 0.950 . S
C902 H898 0.949 . S
C902 C910 1.574 . S
C902 C918 1.368 1_545 S
H903 C911 0.950 . S
H904 C909 0.950 . S
H905 C910 0.949 . S
H906 C912 0.950 . S
H907 C913 0.950 . S
H908 C914 0.949 . S
C909 H904 0.950 . S
C909 C911 1.327 . S
C909 C915 1.429 . S
C910 C902 1.574 . S
C910 H905 0.949 . S
C910 C916 1.368 1_545 S
C911 C895 1.349 . S
C911 H903 0.950 . S
C911 C909 1.327 . S
C912 C900 1.349 1_545 S
C912 H906 0.950 . S
C912 C913 1.327 . S
C913 H907 0.950 . S
C913 C912 1.327 . S
C913 C917 1.429 1_545 S
C914 C897 1.574 . S
C914 H908 0.949 . S
C914 C918 1.368 . S
C915 C896 1.429 1_565 S
C915 C909 1.429 . S
C915 C916 1.523 . S
C916 C897 1.368 . S
C916 C910 1.368 1_565 S
C916 C915 1.523 . S
C917 C901 1.429 . S
C917 C913 1.429 1_565 S
C917 C918 1.523 . S
C918 C902 1.368 1_565 S
C918 C914 1.368 . S
C918 C917 1.523 . S
H919 C894 0.950 . S
H920 C896 0.950 . S
H921 C897 0.949 . S
H922 C899 0.950 . S
H923 C901 0.950 . S
C924 C925 1.349 . S
C924 C926 1.327 . S
C924 H949 0.950 . S
C925 C924 1.349 . S
C925 C941 1.349 . S
C926 C924 1.327 . S
C926 C945 1.429 . S
C926 H950 0.950 . S
C927 C944 1.574 . S
C927 C946 1.368 . S
C927 H951 0.949 . S
H928 C932 0.949 . S
C929 C930 1.349 . S
C929 C931 1.327 . S
C929 H952 0.950 . S
C930 C929 1.349 . S
C930 C942 1.349 . S
C931 C929 1.327 . S
C931 C947 1.429 . S
C931 H953 0.950 . S
C932 H928 0.949 . S
C932 C940 1.574 . S
C932 C948 1.368 . S
H933 C941 0.950 . S
H934 C939 0.950 . S
H935 C940 0.949 . S
H936 C942 0.950 . S
H937 C943 0.950 . S
H938 C944 0.949 . S
C939 H934 0.950 . S
C939 C941 1.327 . S
C939 C945 1.429 . S
C940 C932 1.574 . S
C940 H935 0.949 . S
C940 C946 1.368 . S
C941 C925 1.349 . S
C941 H933 0.950 . S
C941 C939 1.327 . S
C942 C930 1.349 . S
C942 H936 0.950 . S
C942 C943 1.327 . S
C943 H937 0.950 . S
C943 C942 1.327 . S
C943 C947 1.429 . S
C944 C927 1.574 . S
C944 H938 0.949 . S
C944 C948 1.368 . S
C945 C926 1.429 . S
C945 C939 1.429 . S
C945 C946 1.523 . S
C946 C927 1.368 . S
C946 C940 1.368 . S
C946 C945 1.523 . S
C947 C931 1.429 . S
C947 C943 1.429 . S
C947 C948 1.523 . S
C948 C932 1.368 . S
C948 C944 1.368 . S
C948 C947 1.523 . S
H949 C924 0.950 . S
H950 C926 0.950 . S
H951 C927 0.949 . S
H952 C929 0.950 . S
H953 C931 0.950 . S
C954 C955 1.349 . S
C954 C956 1.327 . S
C954 H979 0.950 . S
C955 C954 1.349 . S
C955 C971 1.349 . S
C956 C954 1.327 . S
C956 C975 1.429 . S
C956 H980 0.950 . S
C957 C974 1.574 . S
C957 C976 1.368 . S
C957 H981 0.949 . S
H958 C962 0.949 . S
C959 C960 1.349 . S
C959 C961 1.327 . S
C959 H982 0.950 . S
C960 C959 1.349 . S
C960 C972 1.349 . S
C961 C959 1.327 . S
C961 C977 1.429 . S
C961 H983 0.950 . S
C962 H958 0.949 . S
C962 C970 1.574 . S
C962 C978 1.368 . S
H963 C971 0.950 . S
H964 C969 0.950 . S
H965 C970 0.949 . S
H966 C972 0.950 . S
H967 C973 0.950 . S
H968 C974 0.949 . S
C969 H964 0.950 . S
C969 C971 1.327 . S
C969 C975 1.429 . S
C970 C962 1.574 . S
C970 H965 0.949 . S
C970 C976 1.368 . S
C971 C955 1.349 . S
C971 H963 0.950 . S
C971 C969 1.327 . S
C972 C960 1.349 . S
C972 H966 0.950 . S
C972 C973 1.327 . S
C973 H967 0.950 . S
C973 C972 1.327 . S
C973 C977 1.429 . S
C974 C957 1.574 . S
C974 H968 0.949 . S
C974 C978 1.368 . S
C975 C956 1.429 . S
C975 C969 1.429 . S
C975 C976 1.523 . S
C976 C957 1.368 . S
C976 C970 1.368 . S
C976 C975 1.523 . S
C977 C961 1.429 . S
C977 C973 1.429 . S
C977 C978 1.523 . S
C978 C962 1.368 . S
C978 C974 1.368 . S
C978 C977 1.523 . S
H979 C954 0.950 . S
H980 C956 0.950 . S
H981 C957 0.949 . S
H982 C959 0.950 . S
H983 C961 0.950 . S
C265 N80 1.801 . S
C270 C114 1.841 . S
C300 C154 1.842 . S
C295 N93 1.802 . S
C330 C194 1.842 . S
C325 N54 1.802 . S
C360 C234 1.841 . S
C355 N67 1.800 . S
C390 C123 1.842 . S
C385 N28 1.805 . S
C415 N41 1.801 . S
C420 C163 1.841 . S
C445 N2 1.801 . S
C450 C203 1.841 . S
C475 N15 1.803 . S
C480 C243 1.842 . S
C510 C120 0.323 . S
C505 N70 0.264 . S
C540 C160 0.323 . S
C535 N83 0.264 . S
C570 C200 0.323 . S
C565 N96 0.264 . S
C595 N57 0.264 . S
C600 C240 0.323 . S
C625 N18 0.271 . S
C630 C111 0.323 . S
C660 C151 0.323 . S
C655 N31 0.255 . S
C690 C191 0.323 . S
C685 N44 0.255 . S
C715 N5 0.255 . S
C720 C231 0.323 . S
C745 N66 1.972 . S
C750 C115 2.043 . S
C775 N79 1.973 . S
C780 C155 2.043 . S
C810 C195 2.044 . S
C805 N92 1.974 . S
C840 C235 2.043 . S
C835 N53 1.973 . S
C865 N14 1.970 . S
C870 C106 2.043 . S
C900 C146 2.043 . S
C895 N27 1.970 . S
C930 C186 2.043 . S
C925 N40 1.970 . S
C955 N1 1.970 . S
C960 C226 2.043 . S
