# Generated by pormake.
# Topology rtl, (3,6)-cn, num edge types: 1
# Building blocks:
#     Node 0, Type 0, BuildingBlock: PAMTOO_clean_linker_0, # of connection points: 3
#     Node 1, Type 0, BuildingBlock: PAMTOO_clean_linker_0, # of connection points: 3
#     Node 2, Type 0, BuildingBlock: PAMTOO_clean_linker_0, # of connection points: 3
#     Node 3, Type 0, BuildingBlock: PAMTOO_clean_linker_0, # of connection points: 3
#     Node 4, Type 1, BuildingBlock: KUMBOL_clean_sbu_1, # of connection points: 6
#     Node 5, Type 1, BuildingBlock: KUMBOL_clean_sbu_1, # of connection points: 6
#     Edge 6, Type (0, 1), BuildingBlock: ZUJKAS_clean_linker_0, # of connection points: 2
#     Edge 7, Type (0, 1), BuildingBlock: ZUJKAS_clean_linker_0, # of connection points: 2
#     Edge 8, Type (0, 1), BuildingBlock: ZUJKAS_clean_linker_0, # of connection points: 2
#     Edge 9, Type (0, 1), BuildingBlock: ZUJKAS_clean_linker_0, # of connection points: 2
#     Edge 10, Type (0, 1), BuildingBlock: ZUJKAS_clean_linker_0, # of connection points: 2
#     Edge 11, Type (0, 1), BuildingBlock: ZUJKAS_clean_linker_0, # of connection points: 2
#     Edge 12, Type (0, 1), BuildingBlock: ZUJKAS_clean_linker_0, # of connection points: 2
#     Edge 13, Type (0, 1), BuildingBlock: ZUJKAS_clean_linker_0, # of connection points: 2
#     Edge 14, Type (0, 1), BuildingBlock: ZUJKAS_clean_linker_0, # of connection points: 2
#     Edge 15, Type (0, 1), BuildingBlock: ZUJKAS_clean_linker_0, # of connection points: 2
#     Edge 16, Type (0, 1), BuildingBlock: ZUJKAS_clean_linker_0, # of connection points: 2
#     Edge 17, Type (0, 1), BuildingBlock: ZUJKAS_clean_linker_0, # of connection points: 2
# Relax obj value: 0.051
# Max RMSD: 0.206
# Mean RMSD: 0.157
data_MOF--net-rtl--node1-KUMBOL_clean_sbu_1--node2-PAMTOO_clean_linker_0--edge1-ZUJKAS_clean_linker_0
_symmetry_space_group_name_H-M    P1
_symmetry_Int_Tables_number       1
_symmetry_cell_setting            triclinic
loop_
_symmetry_equiv_pos_as_xyz
'x, y, z'
_cell_length_a     45.285931
_cell_length_b     45.451242
_cell_length_c     34.196802
_cell_angle_alpha  81.889016
_cell_angle_beta   99.14701
_cell_angle_gamma 91.103472
loop_
_atom_site_label
_atom_site_type_symbol
_atom_site_fract_x
_atom_site_fract_y
_atom_site_fract_z
_atom_type_partial_charge
H0 H 0.16514 0.86886 0.00817 0.0
H1 H 0.22678 0.80552 0.08262 0.0
H2 H 0.22351 0.81805 0.95524 0.0
H3 H 0.22562 0.75695 0.99335 0.0
C4 C 0.24109 0.75903 0.02157 0.0
O5 O 0.24879 0.78842 0.02306 0.0
H6 H 0.22921 0.75079 0.04707 0.0
C7 C 0.18235 0.85206 0.01127 0.0
C8 C 0.19257 0.84515 0.97697 0.0
C9 C 0.19445 0.83802 0.04958 0.0
C10 C 0.21741 0.81694 0.05342 0.0
C11 C 0.22772 0.80974 0.01936 0.0
C12 C 0.21557 0.82406 0.98133 0.0
H13 H 0.6707 0.65423 0.62749 0.0
H14 H 0.72854 0.71499 0.56726 0.0
H15 H 0.72521 0.71591 0.69178 0.0
H16 H 0.73275 0.77642 0.64847 0.0
C17 C 0.74128 0.76987 0.62217 0.0
O18 O 0.74931 0.74022 0.63001 0.0
H19 H 0.72292 0.77368 0.59613 0.0
C20 C 0.68738 0.67166 0.62817 0.0
C21 C 0.6968 0.68325 0.66409 0.0
C22 C 0.69852 0.68284 0.59292 0.0
C23 C 0.71931 0.70622 0.59387 0.0
C24 C 0.72877 0.71817 0.62939 0.0
C25 C 0.71749 0.70675 0.66439 0.0
H26 H 0.86129 0.14456 0.05661 0.0
H27 H 0.80295 0.21072 0.98157 0.0
H28 H 0.80829 0.20116 0.10912 0.0
H29 H 0.74814 0.20616 0.06146 0.0
C30 C 0.75256 0.22389 0.03709 0.0
O31 O 0.78275 0.2301 0.04097 0.0
H32 H 0.74509 0.21545 0.00812 0.0
C33 C 0.84475 0.16204 0.05319 0.0
C34 C 0.83609 0.17086 0.08745 0.0
C35 C 0.83319 0.17633 0.01474 0.0
C36 C 0.81247 0.19963 0.01089 0.0
C37 C 0.80338 0.20833 0.04491 0.0
C38 C 0.81546 0.19423 0.08305 0.0
H39 H 0.37695 0.36539 0.44483 0.0
H40 H 0.31591 0.30338 0.49638 0.0
H41 H 0.32764 0.30361 0.37454 0.0
H42 H 0.26432 0.28991 0.38553 0.0
C43 C 0.26858 0.28563 0.41878 0.0
O44 O 0.29863 0.27967 0.43158 0.0
H45 H 0.26189 0.30605 0.42985 0.0
C46 C 0.36146 0.34705 0.44227 0.0
C47 C 0.35457 0.3358 0.40554 0.0
C48 C 0.3478 0.33559 0.4754 0.0
C49 C 0.32661 0.31277 0.47129 0.0
C50 C 0.3192 0.30158 0.43491 0.0
C51 C 0.33326 0.3129 0.40225 0.0
C52 C 0.95237 0.08826 0.50054 0.0
C53 C 0.9031 0.06609 0.49585 0.0
C54 C 0.93391 0.06488 0.51138 0.0
C55 C 0.89155 0.09049 0.46804 0.0
C56 C 0.94068 0.11342 0.47406 0.0
C57 C 0.91026 0.11419 0.45739 0.0
N58 N 0.98174 0.08676 0.51686 0.0
C59 C 1.00024 0.11041 0.51047 0.0
C60 C 0.95984 0.13726 0.46577 0.0
C61 C 0.98967 0.13588 0.48445 0.0
Gd62 Gd 0.03971 0.98622 0.50633 0.0
Gd63 Gd 0.99785 0.04349 0.56006 0.0
N64 N 0.94566 0.04197 0.53912 0.0
C65 C 0.8846 0.04337 0.51001 0.0
C66 C 0.92719 0.02142 0.55572 0.0
C67 C 0.89662 0.02125 0.54066 0.0
H68 H 0.93571 0.0054 0.58118 0.0
H69 H 0.88226 1.00441 0.55327 0.0
H70 H 0.11 0.00947 0.52054 0.0
H71 H 0.02325 0.10935 0.52509 0.0
H72 H 0.15898 0.99189 0.55918 0.0
H73 H 0.86083 0.04345 0.49881 0.0
H74 H 0.86799 0.09169 0.45558 0.0
H75 H 0.99524 0.92531 0.50777 0.0
H76 H 0.95171 0.15699 0.44557 0.0
H77 H 1.00451 0.15441 0.47881 0.0
H78 H 0.13769 0.89556 0.62625 0.0
H79 H 0.90086 0.13329 0.43691 0.0
H80 H 0.0389 0.85698 0.59526 0.0
H81 H 0.99455 0.87549 0.5466 0.0
N82 N 0.0375 0.93698 0.53859 0.0
C83 C 0.06287 0.92644 0.56298 0.0
C84 C 0.01385 0.91842 0.53088 0.0
C85 C 0.03883 0.87939 0.57942 0.0
C86 C 0.01373 0.88977 0.55207 0.0
C87 C 0.06419 0.89739 0.58417 0.0
H88 H 0.09249 0.86458 0.62452 0.0
N89 N 0.08652 0.97145 0.54275 0.0
C90 C 0.08832 0.94395 0.56442 0.0
C91 C 0.14127 0.95065 0.58526 0.0
C92 C 0.11572 0.93293 0.58671 0.0
C93 C 0.11157 0.98824 0.53948 0.0
C94 C 0.13925 0.97829 0.56115 0.0
O95 O 1.00048 0.05186 0.49382 0.0
O96 O 0.99529 0.00561 0.47511 0.0
O97 O 0.05798 1.00048 0.4518 0.0
O98 O 0.04783 0.95419 0.46766 0.0
O99 O 0.98503 0.99468 0.56998 0.0
O100 O 0.9907 0.97732 0.51131 0.0
O101 O 0.059 0.99802 0.56753 0.0
O102 O 0.01773 1.00155 0.59696 0.0
O103 O 0.9738 0.06059 0.60235 0.0
O104 O 0.02124 0.06821 0.60536 0.0
O105 O 0.05595 0.03383 0.4983 0.0
O106 O 0.04576 0.05564 0.55251 0.0
C107 C 0.98967 0.03422 0.46788 0.0
C108 C 0.97777 0.9763 0.54341 0.0
C109 C 0.0441 0.9722 0.39919 0.0
C110 C 0.04966 0.9572 0.33496 0.0
C111 C 1.00365 0.98083 0.34322 0.0
C112 C 0.01525 0.98281 0.3831 0.0
C113 C 0.02069 0.96812 0.31923 0.0
C114 C 0.06119 0.95944 0.37515 0.0
C115 C 0.05676 0.97412 0.44097 0.0
C116 C 0.11686 0.90442 0.60889 0.0
C117 C 0.0911 0.88678 0.60788 0.0
H118 H 0.16274 0.94298 0.60199 0.0
C119 C 0.04552 0.99322 0.599 0.0
C120 C 0.06088 0.0541 0.52276 0.0
C121 C 1.00183 0.06112 0.6663 0.0
C122 C 0.98643 0.06506 0.73073 0.0
C123 C 0.0256 0.03024 0.72637 0.0
C124 C 0.02277 0.03918 0.68521 0.0
C125 C 1.0076 0.04303 0.74905 0.0
C126 C 0.98375 0.07399 0.68915 0.0
C127 C 0.99788 0.07016 0.62268 0.0
H128 H 0.98135 0.98905 0.33092 0.0
H129 H 1.0018 0.99255 0.40139 0.0
H130 H 0.01101 0.96644 0.28856 0.0
H131 H 0.08362 0.95157 0.38772 0.0
H132 H 0.04183 0.01333 0.74076 0.0
H133 H 0.03691 0.02896 0.66821 0.0
H134 H 0.01052 0.03594 0.78102 0.0
H135 H 0.96726 0.09057 0.67437 0.0
C136 C 0.61078 0.55047 0.04192 0.0
C137 C 0.60749 0.60286 0.01509 0.0
C138 C 0.59472 0.57682 0.03283 0.0
C139 C 0.63611 0.60158 1.00454 0.0
C140 C 0.64019 0.54949 0.0334 0.0
C141 C 0.65242 0.57492 0.01362 0.0
N142 N 0.59853 0.52651 0.06188 0.0
C143 C 0.61585 0.50225 0.07839 0.0
C144 C 0.65689 0.52338 0.04661 0.0
C145 C 0.64487 0.49989 0.06997 0.0
Gd146 Gd 0.49197 0.49234 0.98942 0.0
Gd147 Gd 0.54843 0.53199 0.07092 0.0
N148 N 0.56691 0.57721 0.04274 0.0
C149 C 0.59128 0.6295 0.00924 0.0
C150 C 0.55161 0.6033 0.03914 0.0
C151 C 0.56341 0.62979 0.02189 0.0
H152 H 0.53004 0.60341 0.04886 0.0
H153 H 0.55098 0.65035 0.01822 0.0
H154 H 0.53004 0.43056 0.98149 0.0
H155 H 0.60752 0.48474 0.09846 0.0
H156 H 0.53106 0.37731 0.00828 0.0
H157 H 0.60032 0.65001 0.99573 0.0
H158 H 0.64613 0.62123 0.99024 0.0
H159 H 0.4254 0.51801 0.9989 0.0
H160 H 0.67953 0.52169 0.0406 0.0
H161 H 0.65812 0.48018 0.0821 0.0
H162 H 0.44352 0.36359 0.07149 0.0
H163 H 0.67483 0.57447 0.00637 0.0
H164 H 0.3775 0.44701 0.05708 0.0
H165 H 0.38002 0.4995 0.02629 0.0
N166 N 0.44791 0.47645 0.01391 0.0
C167 C 0.44643 0.44728 0.02894 0.0
C168 C 0.42419 0.49501 0.01179 0.0
C169 C 0.39726 0.45497 0.04474 0.0
C170 C 0.39859 0.48461 0.02738 0.0
C171 C 0.42127 0.43582 0.04543 0.0
H172 H 0.40177 0.39653 0.07487 0.0
N173 N 0.49308 0.44043 0.00894 0.0
C174 C 0.47001 0.42883 0.0271 0.0
C175 C 0.49183 0.37978 0.03601 0.0
C176 C 0.46893 0.39825 0.04157 0.0
C177 C 0.51382 0.42201 1.00009 0.0
C178 C 0.51404 0.39163 0.01444 0.0
O179 O 0.53817 0.55213 1.00554 0.0
O180 O 0.53512 0.51181 0.97235 0.0
O181 O 0.47716 0.46923 0.93818 0.0
O182 O 0.46957 0.5164 0.93353 0.0
O183 O 0.50122 0.55054 0.05648 0.0
O184 O 0.47977 0.53993 0.99317 0.0
O185 O 0.48173 0.49562 0.05158 0.0
O186 O 0.52695 0.48859 0.09182 0.0
O187 O 0.53242 0.55027 0.11905 0.0
O188 O 0.57915 0.53956 0.12421 0.0
O189 O 0.541 0.47917 1.00134 0.0
O190 O 0.55579 0.48302 0.06809 0.0
C191 C 0.54376 0.53917 0.97559 0.0
C192 C 0.48116 0.55528 0.02356 0.0
C193 C 0.43494 0.48901 0.8931 0.0
C194 C 0.4038 0.47099 0.8361 0.0
C195 C 0.38126 0.49705 0.88151 0.0
C196 C 0.40935 0.50056 0.90389 0.0
C197 C 0.37843 0.48241 0.84786 0.0
C198 C 0.43204 0.47419 0.85925 0.0
C199 C 0.46493 0.49274 0.91594 0.0
C200 C 0.44455 0.38695 0.05975 0.0
C201 C 0.42073 0.40568 0.06157 0.0
H202 H 0.49185 0.35617 0.04672 0.0
C203 C 0.49801 0.48407 0.08524 0.0
C204 C 0.55794 0.47074 0.03599 0.0
C205 C 0.55881 0.53561 0.18384 0.0
C206 C 0.57234 0.53986 0.25491 0.0
C207 C 0.54759 0.49536 0.23372 0.0
C208 C 0.54693 0.50733 0.19369 0.0
C209 C 0.5602 0.51144 0.26417 0.0
C210 C 0.57145 0.55178 0.2144 0.0
C211 C 0.55836 0.54856 0.14191 0.0
H212 H 0.3616 0.50589 0.89014 0.0
H213 H 0.41104 0.51253 0.92929 0.0
H214 H 0.35634 0.47993 0.83112 0.0
H215 H 0.45189 0.46581 0.85044 0.0
H216 H 0.53842 0.47349 0.24118 0.0
H217 H 0.53723 0.49455 0.17049 0.0
H218 H 0.56086 0.5014 0.29496 0.0
H219 H 0.58029 0.57378 0.20652 0.0
H220 H 0.24933 0.23744 0.38164 0.0
H221 H 0.21628 0.19714 0.40388 0.0
H222 H 0.21381 0.23497 0.5121 0.0
H223 H 0.24668 0.2754 0.48973 0.0
H224 H 0.22252 0.15483 0.47443 0.0
H225 H 0.12481 0.22935 0.46379 0.0
H226 H 0.15735 0.24078 0.44117 0.0
H227 H 0.15843 0.23985 0.49408 0.0
C228 C 0.24172 0.23705 0.41018 0.0
C229 C 0.24994 0.25981 0.43361 0.0
C230 C 0.22292 0.21406 0.42289 0.0
C231 C 0.21205 0.2134 0.45926 0.0
C232 C 0.22135 0.23542 0.48352 0.0
H233 H 0.08067 0.0986 0.56718 0.0
H234 H 0.11862 0.13625 0.55418 0.0
C235 C 0.24018 0.25839 0.47084 0.0
C236 C 0.19066 0.18993 0.47139 0.0
H237 H 0.11882 0.17895 0.48921 0.0
C238 C 0.19985 0.16008 0.4777 0.0
C239 C 0.16111 0.19682 0.47578 0.0
C240 C 0.14963 0.22839 0.46806 0.0
C241 C 0.18036 0.13695 0.4885 0.0
C242 C 0.15064 0.1438 0.49222 0.0
C243 C 0.14159 0.17369 0.48641 0.0
C244 C 0.12827 0.12031 0.50084 0.0
C245 C 0.19196 0.10542 0.49638 0.0
C246 C 0.12078 0.09899 0.47497 0.0
C247 C 0.09917 0.0774 0.48235 0.0
C248 C 0.08426 0.07678 0.51559 0.0
C249 C 0.09168 0.09831 0.54135 0.0
C250 C 0.11339 0.11988 0.53396 0.0
H251 H 0.21673 0.10468 0.50428 0.0
H252 H 0.18217 0.09215 0.52097 0.0
H253 H 0.18576 0.09481 0.46894 0.0
H254 H 0.13135 0.09929 0.44865 0.0
H255 H 0.09397 0.06139 0.46163 0.0
H256 H 0.2646 0.71365 0.07923 0.0
H257 H 0.30733 0.68151 0.07867 0.0
H258 H 0.32163 0.73021 0.96556 0.0
H259 H 0.27886 0.76254 0.96617 0.0
H260 H 0.31278 0.64545 0.01954 0.0
H261 H 0.40556 0.72692 0.03424 0.0
H262 H 0.36907 0.73373 0.04615 0.0
H263 H 0.3749 0.73797 0.99492 0.0
C264 C 0.27708 0.71767 0.0545 0.0
C265 C 0.26857 0.74057 0.02276 0.0
C266 C 0.30142 0.6993 0.05416 0.0
C267 C 0.31781 0.70363 0.02226 0.0
C268 C 0.30959 0.72678 0.99078 0.0
H269 H 0.43477 0.5719 0.96265 0.0
H270 H 0.39556 0.6085 0.96094 0.0
C271 C 0.28518 0.74513 0.99106 0.0
C272 C 0.3425 0.68295 0.02111 0.0
H273 H 0.41779 0.67911 0.02125 0.0
C274 C 0.33575 0.65278 0.01991 0.0
C275 C 0.37245 0.69257 0.0219 0.0
C276 C 0.38112 0.72451 0.02472 0.0
C277 C 0.35812 0.63198 0.01926 0.0
C278 C 0.38799 0.64168 0.01931 0.0
C279 C 0.39481 0.67181 0.02081 0.0
C280 C 0.4126 0.62062 0.01925 0.0
C281 C 0.3497 0.59967 0.01939 0.0
C282 C 0.43566 0.61593 0.0521 0.0
C283 C 0.45816 0.59507 0.05321 0.0
C284 C 0.45815 0.57855 0.02133 0.0
C285 C 0.43543 0.58399 0.98789 0.0
C286 C 0.41289 0.60483 0.98689 0.0
H287 H 0.32741 0.59496 0.0285 0.0
H288 H 0.34886 0.5938 0.98882 0.0
H289 H 0.36657 0.5851 0.03994 0.0
H290 H 0.43591 0.62799 0.07731 0.0
H291 H 0.47533 0.59166 0.07937 0.0
H292 H 0.78225 0.79607 0.67459 0.0
H293 H 0.82381 0.82902 0.65941 0.0
H294 H 0.80225 0.81796 0.53488 0.0
H295 H 0.76053 0.78524 0.55001 0.0
H296 H 0.87431 0.81965 0.62322 0.0
H297 H 0.80047 0.90868 0.53234 0.0
H298 H 0.78648 0.87862 0.56475 0.0
H299 H 0.79484 0.87255 0.51687 0.0
C300 C 0.78645 0.80073 0.64402 0.0
C301 C 0.76784 0.78874 0.61329 0.0
C302 C 0.81018 0.81946 0.63538 0.0
C303 C 0.81574 0.82647 0.59587 0.0
C304 C 0.79794 0.81345 0.56541 0.0
H305 H 0.94114 0.94882 0.48796 0.0
H306 H 0.903 0.91104 0.50014 0.0
C307 C 0.77423 0.7947 0.57406 0.0
C308 C 0.83989 0.84772 0.58656 0.0
H309 H 0.85253 0.91565 0.53502 0.0
C310 C 0.86957 0.84065 0.60395 0.0
C311 C 0.83369 0.87509 0.56133 0.0
C312 C 0.80214 0.88442 0.54295 0.0
C313 C 0.89322 0.86008 0.59652 0.0
C314 C 0.88696 0.88762 0.57169 0.0
C315 C 0.85732 0.89454 0.554 0.0
C316 C 0.91069 0.9099 0.56444 0.0
C317 C 0.92477 0.85072 0.61482 0.0
C318 C 0.92747 0.92207 0.59644 0.0
C319 C 0.94931 0.94352 0.58957 0.0
C320 C 0.95469 0.95342 0.55049 0.0
C321 C 0.9377 0.94142 0.51842 0.0
C322 C 0.91585 0.91992 0.52533 0.0
H323 H 0.92669 0.82622 0.62305 0.0
H324 H 0.94078 0.85816 0.594 0.0
H325 H 0.93136 0.86098 0.64249 0.0
H326 H 0.92345 0.91522 0.62678 0.0
H327 H 0.96202 0.95235 0.6149 0.0
H328 H 0.73356 0.24209 0.10213 0.0
H329 H 0.70249 0.28551 0.10362 0.0
H330 H 0.70267 0.31173 0.97741 0.0
H331 H 0.73337 0.2681 0.97581 0.0
H332 H 0.71119 0.34688 0.08264 0.0
H333 H 0.61334 0.30594 0.98578 0.0
H334 H 0.64482 0.28245 0.00885 0.0
H335 H 0.64723 0.30824 0.96449 0.0
C336 C 0.72691 0.25717 0.07478 0.0
C337 C 0.73515 0.25148 0.03864 0.0
C338 C 0.70928 0.28196 0.07566 0.0
C339 C 0.69972 0.30147 0.04045 0.0
C340 C 0.70918 0.29655 1.00472 0.0
H341 H 0.58501 0.45622 0.97572 0.0
H342 H 0.62052 0.4158 0.97858 0.0
C343 C 0.72676 0.27176 1.00382 0.0
C344 C 0.67934 0.32657 0.04089 0.0
H345 H 0.61007 0.35493 1.00094 0.0
C346 C 0.68903 0.34862 0.06493 0.0
C347 C 0.65038 0.32869 0.0179 0.0
C348 C 0.63814 0.30496 0.99306 0.0
C349 C 0.67078 0.37314 0.06577 0.0
C350 C 0.64197 0.37537 0.04243 0.0
C351 C 0.63222 0.35321 0.01868 0.0
C352 C 0.62157 0.40066 0.04167 0.0
C353 C 0.68269 0.39683 0.09085 0.0
C354 C 0.61031 0.40551 0.07621 0.0
C355 C 0.5899 0.42855 0.07461 0.0
C356 C 0.58034 0.44701 0.0384 0.0
C357 C 0.59185 0.44223 1.00399 0.0
C358 C 0.61218 0.41922 1.00559 0.0
H359 H 0.70737 0.39536 0.09959 0.0
H360 H 0.67675 0.41935 0.07451 0.0
H361 H 0.67251 0.39406 0.11859 0.0
H362 H 0.61683 0.39109 0.10419 0.0
H363 H 0.58116 0.43157 0.10149 0.0
H364 H 0.22593 0.84937 0.12128 0.0
H365 H 0.20578 0.86539 0.17749 0.0
H366 H 0.11622 0.86032 0.11328 0.0
H367 H 0.13604 0.84375 0.05773 0.0
H368 H 0.17181 0.91648 0.17414 0.0
H369 H 0.10889 0.81622 0.22384 0.0
H370 H 0.13713 0.81553 0.19215 0.0
H371 H 0.09984 0.82822 0.17105 0.0
C372 C 0.20193 0.85113 0.11957 0.0
C373 C 0.18257 0.8454 0.08507 0.0
C374 C 0.19047 0.86042 0.15155 0.0
C375 C 0.15949 0.86371 0.14973 0.0
C376 C 0.14015 0.85742 0.11565 0.0
H377 H 0.05527 0.97571 0.25671 0.0
H378 H 0.08438 0.95249 0.2149 0.0
C379 C 0.15154 0.84826 0.08374 0.0
C380 C 0.14719 0.87562 0.18201 0.0
H381 H 0.09524 0.86181 0.24445 0.0
C382 C 0.15538 0.90439 0.18995 0.0
C383 C 0.12604 0.85968 0.20296 0.0
C384 C 0.11767 0.82808 0.1974 0.0
C385 C 0.14192 0.91817 0.21693 0.0
C386 C 0.11937 0.90293 0.23593 0.0
C387 C 0.11223 0.87363 0.22944 0.0
C388 C 0.1022 0.91727 0.26162 0.0
C389 C 0.15188 0.94897 0.22468 0.0
C390 C 0.10192 0.90474 0.30147 0.0
C391 C 0.08497 0.91774 0.32531 0.0
C392 C 0.06781 0.94344 0.30966 0.0
C393 C 0.06804 0.95582 0.26962 0.0
C394 C 0.08499 0.9428 0.24582 0.0
H395 H 0.17477 0.95378 0.21768 0.0
H396 H 0.13641 0.96556 0.20525 0.0
H397 H 0.15159 0.95187 0.25632 0.0
H398 H 0.1148 0.88486 0.31412 0.0
H399 H 0.08494 0.90737 0.35583 0.0
H400 H 0.69069 0.62469 0.69274 0.0
H401 H 0.66662 0.60346 0.74946 0.0
H402 H 0.65151 0.69152 0.77553 0.0
H403 H 0.67537 0.71302 0.71833 0.0
H404 H 0.68048 0.61158 0.8337 0.0
H405 H 0.56695 0.65182 0.76072 0.0
H406 H 0.59741 0.64998 0.73288 0.0
H407 H 0.59633 0.67902 0.76314 0.0
C408 C 0.68228 0.63956 0.71057 0.0
C409 C 0.68467 0.67055 0.70083 0.0
C410 C 0.66867 0.62739 0.74307 0.0
C411 C 0.65695 0.64591 0.76635 0.0
C412 C 0.66011 0.67685 0.7576 0.0
H413 H 0.54467 0.59898 0.95158 0.0
H414 H 0.57392 0.62604 0.90375 0.0
C415 C 0.67394 0.68908 0.72515 0.0
C416 C 0.64073 0.63262 0.799 0.0
H417 H 0.57094 0.6242 0.82488 0.0
C418 C 0.65656 0.61443 0.83194 0.0
C419 C 0.60955 0.63646 0.79663 0.0
C420 C 0.59138 0.65519 0.76138 0.0
C421 C 0.64201 0.59991 0.86259 0.0
C422 C 0.61064 0.60303 0.85967 0.0
C423 C 0.59495 0.62173 0.82708 0.0
C424 C 0.59354 0.58659 0.88953 0.0
C425 C 0.66048 0.58166 0.89802 0.0
C426 C 0.59444 0.55538 0.89709 0.0
C427 C 0.57804 0.53995 0.92481 0.0
C428 C 0.5603 0.55542 0.94533 0.0
C429 C 0.55875 0.58656 0.93693 0.0
C430 C 0.57528 0.60201 0.9094 0.0
H431 H 0.68414 0.58912 0.90214 0.0
H432 H 0.65134 0.58293 0.92596 0.0
H433 H 0.66027 0.55807 0.89295 0.0
H434 H 0.60767 0.54291 0.88134 0.0
H435 H 0.57952 0.51592 0.93051 0.0
H436 H 0.86058 0.19643 0.15276 0.0
H437 H 0.88511 0.17132 0.21762 0.0
H438 H 0.86456 0.08621 0.17789 0.0
H439 H 0.8408 0.11125 0.1127 0.0
H440 H 0.86556 0.13319 0.27484 0.0
H441 H 0.953 0.07774 0.21438 0.0
H442 H 0.92879 0.10619 0.18433 0.0
H443 H 0.91578 0.06852 0.19309 0.0
C444 C 0.8612 0.17236 0.15801 0.0
C445 C 0.84908 0.15576 0.12764 0.0
C446 C 0.87527 0.15804 0.19499 0.0
C447 C 0.87731 0.12688 0.20233 0.0
C448 C 0.86413 0.11027 0.17253 0.0
H449 H 0.94923 0.00624 0.41743 0.0
H450 H 0.92087 0.02792 0.35283 0.0
C451 C 0.85041 0.12457 0.1354 0.0
C452 C 0.89315 0.11186 0.24118 0.0
H453 H 0.95016 0.06358 0.28324 0.0
C454 C 0.88407 0.118 0.27661 0.0
C455 C 0.91744 0.09213 0.24355 0.0
C456 C 0.92955 0.08595 0.20684 0.0
C457 C 0.8985 0.10487 0.31424 0.0
C458 C 0.92253 0.08506 0.31646 0.0
C459 C 0.93149 0.07862 0.28122 0.0
C460 C 0.93954 0.07189 0.35528 0.0
C461 C 0.88823 0.11237 0.35148 0.0
C462 C 0.95964 0.08941 0.37749 0.0
C463 C 0.97617 0.07702 0.41387 0.0
C464 C 0.97257 0.047 0.42895 0.0
C465 C 0.95248 0.02944 0.40651 0.0
C466 C 0.93622 0.04177 0.36977 0.0
H467 H 0.86621 0.12388 0.3448 0.0
H468 H 0.88663 0.09194 0.37308 0.0
H469 H 0.90494 0.12722 0.36603 0.0
H470 H 0.96273 0.11263 0.36647 0.0
H471 H 0.99199 0.09089 0.43 0.0
H472 H 0.40315 0.351 0.51196 0.0
H473 H 0.41561 0.37197 0.5746 0.0
H474 H 0.32269 0.36854 0.58901 0.0
H475 H 0.30995 0.34784 0.52623 0.0
H476 H 0.39506 0.42454 0.5937 0.0
H477 H 0.36484 0.32772 0.69751 0.0
H478 H 0.36975 0.32501 0.64676 0.0
H479 H 0.33546 0.33948 0.65677 0.0
C480 C 0.38532 0.35479 0.52836 0.0
C481 C 0.35553 0.34768 0.51404 0.0
C482 C 0.39252 0.36664 0.56427 0.0
C483 C 0.37016 0.37142 0.58678 0.0
C484 C 0.34041 0.3644 0.57261 0.0
H485 H 0.36896 0.48846 0.76384 0.0
H486 H 0.36283 0.46386 0.704 0.0
C487 C 0.33317 0.35257 0.53668 0.0
C488 C 0.37774 0.38483 0.62426 0.0
H489 H 0.3733 0.37351 0.72407 0.0
C490 C 0.39049 0.4133 0.62226 0.0
C491 C 0.37221 0.36997 0.66162 0.0
C492 C 0.36008 0.33874 0.66603 0.0
C493 C 0.39695 0.4277 0.65636 0.0
C494 C 0.39008 0.41341 0.69333 0.0
C495 C 0.37827 0.38455 0.69562 0.0
C496 C 0.39421 0.42839 0.72969 0.0
C497 C 0.41118 0.45805 0.65254 0.0
C498 C 0.41343 0.41629 0.76435 0.0
C499 C 0.4168 0.43019 0.79883 0.0
C500 C 0.40074 0.4563 0.79939 0.0
C501 C 0.38143 0.46824 0.76459 0.0
C502 C 0.37816 0.4544 0.73018 0.0
H503 H 0.42252 0.4622 0.62576 0.0
H504 H 0.39358 0.47526 0.64939 0.0
H505 H 0.42774 0.46065 0.67948 0.0
H506 H 0.42586 0.3961 0.76469 0.0
H507 H 0.43158 0.42023 0.82524 0.0
H508 H 0.68408 0.71218 0.51641 0.0
H509 H 0.66476 0.6907 0.45558 0.0
H510 H 0.66941 0.60316 0.52398 0.0
H511 H 0.68971 0.62424 0.58444 0.0
H512 H 0.69049 0.60444 0.45267 0.0
H513 H 0.57957 0.65999 0.42916 0.0
H514 H 0.61106 0.68467 0.4319 0.0
H515 H 0.60559 0.65899 0.47515 0.0
C516 C 0.68133 0.68832 0.5184 0.0
C517 C 0.68817 0.66997 0.5554 0.0
C518 C 0.66996 0.67612 0.48369 0.0
C519 C 0.66509 0.64538 0.48539 0.0
C520 C 0.67274 0.62696 0.52202 0.0
H521 H 0.55239 0.54466 0.32536 0.0
H522 H 0.57588 0.57112 0.37965 0.0
C523 C 0.68413 0.63909 0.55663 0.0
C524 C 0.6519 0.63216 0.44927 0.0
H525 H 0.5886 0.63086 0.38024 0.0
C526 C 0.66827 0.6103 0.43669 0.0
C527 C 0.62275 0.63958 0.4288 0.0
C528 C 0.60354 0.66189 0.44204 0.0
C529 C 0.65623 0.59553 0.40438 0.0
C530 C 0.62722 0.60321 0.3836 0.0
C531 C 0.61091 0.62518 0.39602 0.0
C532 C 0.61289 0.58775 0.35003 0.0
C533 C 0.67431 0.57115 0.39364 0.0
C534 C 0.62566 0.58863 0.31509 0.0
C535 C 0.61245 0.57326 0.28414 0.0
C536 C 0.58604 0.55686 0.28739 0.0
C537 C 0.57298 0.5566 0.32213 0.0
C538 C 0.58625 0.57192 0.35307 0.0
H539 H 0.69263 0.56311 0.41828 0.0
H540 H 0.6599 0.55199 0.38638 0.0
H541 H 0.68454 0.57981 0.36692 0.0
H542 H 0.64593 0.60114 0.31179 0.0
H543 H 0.62324 0.57381 0.25797 0.0
H544 H 0.84905 0.21178 0.94964 0.0
H545 H 0.86988 0.19608 0.89388 0.0
H546 H 0.86236 0.10434 0.94454 0.0
H547 H 0.84086 0.11977 0.99958 0.0
H548 H 0.92238 0.16401 0.90133 0.0
H549 H 0.82737 0.10291 0.82753 0.0
H550 H 0.82285 0.12813 0.86253 0.0
H551 H 0.83604 0.0908 0.88034 0.0
C552 C 0.85122 0.18825 0.94839 0.0
C553 C 0.84337 0.16701 0.97907 0.0
C554 C 0.86327 0.17933 0.91665 0.0
C555 C 0.86734 0.14904 0.9148 0.0
C556 C 0.8589 0.12781 0.94491 0.0
H557 H 0.95868 0.0371 0.79121 0.0
H558 H 0.92903 0.05964 0.83308 0.0
C559 C 0.84693 0.13668 0.97662 0.0
C560 C 0.88256 0.13952 0.88329 0.0
H561 H 0.87569 0.09355 0.8115 0.0
C562 C 0.91204 0.14897 0.88124 0.0
C563 C 0.86904 0.11983 0.85721 0.0
C564 C 0.83698 0.11004 0.85667 0.0
C565 C 0.92883 0.13824 0.85504 0.0
C566 C 0.91558 0.1179 0.82975 0.0
C567 C 0.88583 0.10907 0.83102 0.0
C568 C 0.93271 0.10447 0.80316 0.0
C569 C 0.961 0.14779 0.85586 0.0
C570 C 0.94423 0.12215 0.77204 0.0
C571 C 0.9614 0.10936 0.74823 0.0
C572 C 0.96728 0.07861 0.75502 0.0
C573 C 0.95505 0.06091 0.78564 0.0
C574 C 0.93789 0.07371 0.80938 0.0
H575 H 0.96963 0.15828 0.88285 0.0
H576 H 0.97553 0.12854 0.85508 0.0
H577 H 0.96275 0.16427 0.82911 0.0
H578 H 0.9401 0.14588 0.76633 0.0
H579 H 0.97059 0.12366 0.72505 0.0
H580 H 0.41297 0.35345 0.40642 0.0
H581 H 0.43638 0.37737 0.35053 0.0
H582 H 0.35411 0.36993 0.26983 0.0
H583 H 0.33002 0.34679 0.32579 0.0
H584 H 0.41373 0.35186 0.24569 0.0
H585 H 0.41011 0.46474 0.29025 0.0
H586 H 0.42347 0.43484 0.32908 0.0
H587 H 0.38515 0.43533 0.30541 0.0
C588 C 0.39967 0.35706 0.37689 0.0
C589 C 0.36942 0.34842 0.37084 0.0
C590 C 0.4132 0.37058 0.34494 0.0
C591 C 0.39691 0.3756 0.30617 0.0
C592 C 0.36705 0.36622 0.2996 0.0
H593 H 0.44173 0.49253 0.10022 0.0
H594 H 0.41668 0.46491 0.15234 0.0
C595 C 0.35338 0.35286 0.33163 0.0
C596 C 0.41092 0.39143 0.27282 0.0
H597 H 0.43604 0.45972 0.23684 0.0
C598 C 0.41859 0.37544 0.24364 0.0
C599 C 0.41697 0.42222 0.27011 0.0
C600 C 0.40838 0.44049 0.30015 0.0
C601 C 0.43265 0.38942 0.2121 0.0
C602 C 0.43931 0.4201 0.20993 0.0
C603 C 0.43112 0.43616 0.23874 0.0
C604 C 0.45442 0.43612 0.1777 0.0
C605 C 0.43997 0.3714 0.18106 0.0
C606 C 0.48406 0.42929 0.17484 0.0
C607 C 0.49837 0.44501 0.14493 0.0
C608 C 0.48324 0.46775 0.11735 0.0
C609 C 0.45372 0.47473 0.12058 0.0
C610 C 0.43946 0.4591 0.15048 0.0
H611 H 0.42771 0.34997 0.18197 0.0
H612 H 0.43446 0.38406 0.1506 0.0
H613 H 0.4643 0.36646 0.18666 0.0
H614 H 0.49621 0.41199 0.19597 0.0
H615 H 0.52118 0.43922 0.14318 0.0
H616 H 0.22043 0.86888 0.91416 0.0
H617 H 0.19702 0.89528 0.84936 0.0
H618 H 0.11002 0.88032 0.8845 0.0
H619 H 0.13316 0.85413 0.94909 0.0
H620 H 0.15488 0.87638 0.79007 0.0
H621 H 0.10985 0.96988 0.85094 0.0
H622 H 0.13753 0.94431 0.88034 0.0
H623 H 0.09866 0.93412 0.87319 0.0
C624 C 0.19631 0.8711 0.90791 0.0
C625 C 0.17865 0.85976 0.93686 0.0
C626 C 0.18299 0.88628 0.87102 0.0
C627 C 0.15184 0.89037 0.86254 0.0
C628 C 0.13415 0.87821 0.89088 0.0
H629 H 0.02176 0.96274 0.66109 0.0
H630 H 0.0487 0.93814 0.72479 0.0
C631 C 0.1474 0.86318 0.92773 0.0
C632 C 0.13765 0.90684 0.82379 0.0
H633 H 0.09153 0.96551 0.78263 0.0
C634 C 0.14129 0.89604 0.78838 0.0
C635 C 0.11992 0.93251 0.82171 0.0
C636 C 0.11646 0.94609 0.85854 0.0
C637 C 0.12691 0.90971 0.751 0.0
C638 C 0.10873 0.93497 0.74904 0.0
C639 C 0.1054 0.94603 0.78434 0.0
C640 C 0.09264 0.95002 0.71058 0.0
C641 C 0.13048 0.89657 0.71395 0.0
C642 C 0.10847 0.96526 0.68191 0.0
C643 C 0.09313 0.97957 0.64574 0.0
C644 C 0.06177 0.97861 0.6375 0.0
C645 C 0.04596 0.96371 0.66654 0.0
C646 C 0.06129 0.94962 0.70285 0.0
H647 H 0.14103 0.87419 0.72114 0.0
H648 H 0.10839 0.89483 0.69501 0.0
H649 H 0.1448 0.91139 0.69629 0.0
H650 H 0.13266 0.96631 0.68767 0.0
H651 H 0.1058 0.99164 0.62441 0.0
loop_
_geom_bond_atom_site_label_1
_geom_bond_atom_site_label_2
_geom_bond_distance
_geom_bond_site_symmetry_2
_ccdc_geom_bond_type
H0 C7 0.929 . S
H1 C10 0.930 . S
H2 C12 0.929 . S
H3 C4 0.969 . S
C4 H3 0.969 . S
C4 O5 1.550 . S
C4 H6 0.973 . S
O5 C4 1.550 . S
O5 C11 1.412 . S
H6 C4 0.973 . S
C7 H0 0.929 . S
C7 C8 1.400 1_554 S
C7 C9 1.364 . S
C8 C7 1.400 1_556 S
C8 C12 1.377 . S
C9 C7 1.364 . S
C9 C10 1.374 . S
C10 H1 0.930 . S
C10 C9 1.374 . S
C10 C11 1.383 . S
C11 O5 1.412 . S
C11 C10 1.383 . S
C11 C12 1.394 1_554 S
C12 H2 0.929 . S
C12 C8 1.377 . S
C12 C11 1.394 1_556 S
H13 C20 0.929 . S
H14 C23 0.930 . S
H15 C25 0.929 . S
H16 C17 0.969 . S
C17 H16 0.969 . S
C17 O18 1.550 . S
C17 H19 0.973 . S
O18 C17 1.550 . S
O18 C24 1.412 . S
H19 C17 0.973 . S
C20 H13 0.929 . S
C20 C21 1.400 . S
C20 C22 1.364 . S
C21 C20 1.400 . S
C21 C25 1.377 . S
C22 C20 1.364 . S
C22 C23 1.374 . S
C23 H14 0.930 . S
C23 C22 1.374 . S
C23 C24 1.383 . S
C24 O18 1.412 . S
C24 C23 1.383 . S
C24 C25 1.394 . S
C25 H15 0.929 . S
C25 C21 1.377 . S
C25 C24 1.394 . S
H26 C33 0.929 . S
H27 C36 0.930 1_556 S
H28 C38 0.929 . S
H29 C30 0.969 . S
C30 H29 0.969 . S
C30 O31 1.550 . S
C30 H32 0.973 1_554 S
O31 C30 1.550 . S
O31 C37 1.412 . S
H32 C30 0.973 1_556 S
C33 H26 0.929 . S
C33 C34 1.400 . S
C33 C35 1.364 . S
C34 C33 1.400 . S
C34 C38 1.377 . S
C35 C33 1.364 . S
C35 C36 1.374 . S
C36 H27 0.930 1_554 S
C36 C35 1.374 . S
C36 C37 1.383 . S
C37 O31 1.412 . S
C37 C36 1.383 . S
C37 C38 1.394 . S
C38 H28 0.929 . S
C38 C34 1.377 . S
C38 C37 1.394 . S
H39 C46 0.929 . S
H40 C49 0.930 . S
H41 C51 0.929 . S
H42 C43 0.969 . S
C43 H42 0.969 . S
C43 O44 1.550 . S
C43 H45 0.973 . S
O44 C43 1.550 . S
O44 C50 1.412 . S
H45 C43 0.973 . S
C46 H39 0.929 . S
C46 C47 1.400 . S
C46 C48 1.364 . S
C47 C46 1.400 . S
C47 C51 1.377 . S
C48 C46 1.364 . S
C48 C49 1.374 . S
C49 H40 0.930 . S
C49 C48 1.374 . S
C49 C50 1.383 . S
C50 O44 1.412 . S
C50 C49 1.383 . S
C50 C51 1.394 . S
C51 H41 0.929 . S
C51 C47 1.377 . S
C51 C50 1.394 . S
C52 C54 1.422 . S
C52 C56 1.415 . S
C52 N58 1.369 . S
C53 C54 1.421 . S
C53 C55 1.417 . S
C53 C65 1.422 . S
C54 C52 1.422 . S
C54 C53 1.421 . S
C54 N64 1.359 . S
C55 C53 1.417 . S
C55 C57 1.329 . S
C55 H74 0.930 . S
C56 C52 1.415 . S
C56 C57 1.437 . S
C56 C60 1.413 . S
C57 C55 1.329 . S
C57 C56 1.437 . S
C57 H79 0.929 . S
N58 C52 1.369 . S
N58 C59 1.338 1_655 S
N58 Gd63 2.622 . S
C59 N58 1.338 1_455 S
C59 C61 1.378 . S
C59 H71 0.929 . S
C60 C56 1.413 . S
C60 C61 1.348 1_655 S
C60 H76 0.931 . S
C61 C59 1.378 . S
C61 C60 1.348 1_455 S
C61 H77 0.930 . S
Gd62 N82 2.622 . S
Gd62 N89 2.570 . S
Gd62 O96 2.353 1_465 S
Gd62 O97 2.468 . S
Gd62 O98 2.427 . S
Gd62 O100 2.388 1_455 S
Gd62 O101 2.386 . S
Gd62 O105 2.307 1_565 S
Gd62 C115 2.805 . S
Gd63 N58 2.622 . S
Gd63 N64 2.570 . S
Gd63 O95 2.386 . S
Gd63 O99 2.307 1_545 S
Gd63 O102 2.353 1_655 S
Gd63 O103 2.468 . S
Gd63 O104 2.427 . S
Gd63 O106 2.388 1_655 S
Gd63 C127 2.805 . S
N64 C54 1.359 . S
N64 Gd63 2.570 . S
N64 C66 1.343 . S
C65 C53 1.422 . S
C65 C67 1.321 . S
C65 H73 0.931 . S
C66 N64 1.343 . S
C66 C67 1.390 . S
C66 H68 0.931 . S
C67 C65 1.321 . S
C67 C66 1.390 . S
C67 H69 0.930 . S
H68 C66 0.931 . S
H69 C67 0.930 . S
H70 C93 0.931 . S
H71 C59 0.929 . S
H72 C94 0.930 . S
H73 C65 0.931 . S
H74 C55 0.930 . S
H75 C84 0.929 1_655 S
H76 C60 0.931 . S
H77 C61 0.930 . S
H78 C116 0.930 . S
H79 C57 0.929 . S
H80 C85 0.931 . S
H81 C86 0.930 1_655 S
N82 Gd62 2.622 . S
N82 C83 1.369 . S
N82 C84 1.338 . S
C83 N82 1.369 . S
C83 C87 1.415 . S
C83 C90 1.422 . S
C84 H75 0.929 1_455 S
C84 N82 1.338 . S
C84 C86 1.378 . S
C85 H80 0.931 . S
C85 C86 1.348 . S
C85 C87 1.413 . S
C86 H81 0.930 1_455 S
C86 C84 1.378 . S
C86 C85 1.348 . S
C87 C83 1.415 . S
C87 C85 1.413 . S
C87 C117 1.437 . S
H88 C117 0.929 . S
N89 Gd62 2.570 . S
N89 C90 1.359 . S
N89 C93 1.343 . S
C90 C83 1.422 . S
C90 N89 1.359 . S
C90 C92 1.421 . S
C91 C92 1.422 . S
C91 C94 1.321 . S
C91 H118 0.931 . S
C92 C90 1.421 . S
C92 C91 1.422 . S
C92 C116 1.417 . S
C93 H70 0.931 . S
C93 N89 1.343 . S
C93 C94 1.390 . S
C94 H72 0.930 . S
C94 C91 1.321 . S
C94 C93 1.390 . S
O95 Gd63 2.386 . S
O95 C107 1.265 . S
O96 Gd62 2.353 1_645 S
O96 C107 1.242 . S
O97 Gd62 2.468 . S
O97 C115 1.263 . S
O98 Gd62 2.427 . S
O98 C115 1.252 . S
O99 Gd63 2.307 1_565 S
O99 C108 1.261 . S
O100 Gd62 2.388 1_655 S
O100 C108 1.252 . S
O101 Gd62 2.386 . S
O101 C119 1.265 . S
O102 Gd63 2.353 1_455 S
O102 C119 1.242 1_545 S
O103 Gd63 2.468 . S
O103 C127 1.263 . S
O104 Gd63 2.427 . S
O104 C127 1.252 . S
O105 Gd62 2.307 1_545 S
O105 C120 1.261 . S
O106 Gd63 2.388 1_455 S
O106 C120 1.252 . S
C107 O95 1.265 . S
C107 O96 1.242 . S
C108 O99 1.261 . S
C108 O100 1.252 . S
C109 C112 1.394 . S
C109 C114 1.370 . S
C109 C115 1.500 . S
C110 C113 1.383 . S
C110 C114 1.395 . S
C111 C112 1.396 . S
C111 C113 1.365 . S
C111 H128 0.929 . S
C112 C109 1.394 . S
C112 C111 1.396 . S
C112 H129 0.930 . S
C113 C110 1.383 . S
C113 C111 1.365 . S
C113 H130 0.931 . S
C114 C109 1.370 . S
C114 C110 1.395 . S
C114 H131 0.930 . S
C115 Gd62 2.805 . S
C115 O97 1.263 . S
C115 O98 1.252 . S
C115 C109 1.500 . S
C116 H78 0.930 . S
C116 C92 1.417 . S
C116 C117 1.329 . S
C117 C87 1.437 . S
C117 H88 0.929 . S
C117 C116 1.329 . S
H118 C91 0.931 . S
C119 O101 1.265 . S
C119 O102 1.242 1_565 S
C120 O105 1.261 . S
C120 O106 1.252 . S
C121 C124 1.394 . S
C121 C126 1.370 . S
C121 C127 1.500 . S
C122 C125 1.383 . S
C122 C126 1.395 . S
C123 C124 1.396 . S
C123 C125 1.365 . S
C123 H132 0.929 . S
C124 C121 1.394 . S
C124 C123 1.396 . S
C124 H133 0.930 . S
C125 C122 1.383 . S
C125 C123 1.365 . S
C125 H134 0.931 . S
C126 C121 1.370 . S
C126 C122 1.395 . S
C126 H135 0.930 . S
C127 Gd63 2.805 . S
C127 O103 1.263 . S
C127 O104 1.252 . S
C127 C121 1.500 . S
H128 C111 0.929 . S
H129 C112 0.930 . S
H130 C113 0.931 . S
H131 C114 0.930 . S
H132 C123 0.929 . S
H133 C124 0.930 . S
H134 C125 0.931 . S
H135 C126 0.930 . S
C136 C138 1.422 . S
C136 C140 1.415 . S
C136 N142 1.369 . S
C137 C138 1.421 . S
C137 C139 1.417 . S
C137 C149 1.422 . S
C138 C136 1.422 . S
C138 C137 1.421 . S
C138 N148 1.359 . S
C139 C137 1.417 . S
C139 C141 1.329 . S
C139 H158 0.930 . S
C140 C136 1.415 . S
C140 C141 1.437 . S
C140 C144 1.413 . S
C141 C139 1.329 . S
C141 C140 1.437 . S
C141 H163 0.929 . S
N142 C136 1.369 . S
N142 C143 1.338 . S
N142 Gd147 2.622 . S
C143 N142 1.338 . S
C143 C145 1.378 . S
C143 H155 0.929 . S
C144 C140 1.413 . S
C144 C145 1.348 . S
C144 H160 0.931 . S
C145 C143 1.378 . S
C145 C144 1.348 . S
C145 H161 0.930 . S
Gd146 N166 2.622 . S
Gd146 N173 2.570 1_556 S
Gd146 O180 2.353 . S
Gd146 O181 2.468 . S
Gd146 O182 2.427 . S
Gd146 O184 2.388 . S
Gd146 O185 2.386 1_556 S
Gd146 O189 2.307 1_556 S
Gd146 C199 2.805 . S
Gd147 N142 2.622 . S
Gd147 N148 2.570 . S
Gd147 O179 2.386 1_554 S
Gd147 O183 2.307 . S
Gd147 O186 2.353 . S
Gd147 O187 2.468 . S
Gd147 O188 2.427 . S
Gd147 O190 2.388 . S
Gd147 C211 2.805 . S
N148 C138 1.359 . S
N148 Gd147 2.570 . S
N148 C150 1.343 . S
C149 C137 1.422 . S
C149 C151 1.321 . S
C149 H157 0.931 . S
C150 N148 1.343 . S
C150 C151 1.390 . S
C150 H152 0.931 . S
C151 C149 1.321 . S
C151 C150 1.390 . S
C151 H153 0.930 . S
H152 C150 0.931 . S
H153 C151 0.930 . S
H154 C177 0.931 . S
H155 C143 0.929 . S
H156 C178 0.930 . S
H157 C149 0.931 . S
H158 C139 0.930 . S
H159 C168 0.929 . S
H160 C144 0.931 . S
H161 C145 0.930 . S
H162 C200 0.930 . S
H163 C141 0.929 . S
H164 C169 0.931 . S
H165 C170 0.930 . S
N166 Gd146 2.622 . S
N166 C167 1.369 1_556 S
N166 C168 1.338 . S
C167 N166 1.369 1_554 S
C167 C171 1.415 . S
C167 C174 1.422 . S
C168 H159 0.929 . S
C168 N166 1.338 . S
C168 C170 1.378 . S
C169 H164 0.931 . S
C169 C170 1.348 1_554 S
C169 C171 1.413 . S
C170 H165 0.930 . S
C170 C168 1.378 . S
C170 C169 1.348 1_556 S
C171 C167 1.415 . S
C171 C169 1.413 . S
C171 C201 1.437 . S
H172 C201 0.929 . S
N173 Gd146 2.570 1_554 S
N173 C174 1.359 . S
N173 C177 1.343 . S
C174 C167 1.422 . S
C174 N173 1.359 . S
C174 C176 1.421 . S
C175 C176 1.422 . S
C175 C178 1.321 . S
C175 H202 0.931 . S
C176 C174 1.421 . S
C176 C175 1.422 . S
C176 C200 1.417 . S
C177 H154 0.931 . S
C177 N173 1.343 . S
C177 C178 1.390 . S
C178 H156 0.930 . S
C178 C175 1.321 . S
C178 C177 1.390 . S
O179 Gd147 2.386 1_556 S
O179 C191 1.265 . S
O180 Gd146 2.353 . S
O180 C191 1.242 . S
O181 Gd146 2.468 . S
O181 C199 1.263 . S
O182 Gd146 2.427 . S
O182 C199 1.252 . S
O183 Gd147 2.307 . S
O183 C192 1.261 . S
O184 Gd146 2.388 . S
O184 C192 1.252 1_556 S
O185 Gd146 2.386 1_554 S
O185 C203 1.265 . S
O186 Gd147 2.353 . S
O186 C203 1.242 . S
O187 Gd147 2.468 . S
O187 C211 1.263 . S
O188 Gd147 2.427 . S
O188 C211 1.252 . S
O189 Gd146 2.307 1_554 S
O189 C204 1.261 . S
O190 Gd147 2.388 . S
O190 C204 1.252 . S
C191 O179 1.265 . S
C191 O180 1.242 . S
C192 O183 1.261 . S
C192 O184 1.252 1_554 S
C193 C196 1.394 . S
C193 C198 1.370 . S
C193 C199 1.500 . S
C194 C197 1.383 . S
C194 C198 1.395 . S
C195 C196 1.396 . S
C195 C197 1.365 . S
C195 H212 0.929 . S
C196 C193 1.394 . S
C196 C195 1.396 . S
C196 H213 0.930 . S
C197 C194 1.383 . S
C197 C195 1.365 . S
C197 H214 0.931 . S
C198 C193 1.370 . S
C198 C194 1.395 . S
C198 H215 0.930 . S
C199 Gd146 2.805 . S
C199 O181 1.263 . S
C199 O182 1.252 . S
C199 C193 1.500 . S
C200 H162 0.930 . S
C200 C176 1.417 . S
C200 C201 1.329 . S
C201 C171 1.437 . S
C201 H172 0.929 . S
C201 C200 1.329 . S
H202 C175 0.931 . S
C203 O185 1.265 . S
C203 O186 1.242 . S
C204 O189 1.261 . S
C204 O190 1.252 . S
C205 C208 1.394 . S
C205 C210 1.370 . S
C205 C211 1.500 . S
C206 C209 1.383 . S
C206 C210 1.395 . S
C207 C208 1.396 . S
C207 C209 1.365 . S
C207 H216 0.929 . S
C208 C205 1.394 . S
C208 C207 1.396 . S
C208 H217 0.930 . S
C209 C206 1.383 . S
C209 C207 1.365 . S
C209 H218 0.931 . S
C210 C205 1.370 . S
C210 C206 1.395 . S
C210 H219 0.930 . S
C211 Gd147 2.805 . S
C211 O187 1.263 . S
C211 O188 1.252 . S
C211 C205 1.500 . S
H212 C195 0.929 . S
H213 C196 0.930 . S
H214 C197 0.931 . S
H215 C198 0.930 . S
H216 C207 0.929 . S
H217 C208 0.930 . S
H218 C209 0.931 . S
H219 C210 0.930 . S
H220 C228 0.929 . S
H221 C230 0.930 . S
H222 C232 0.930 . S
H223 C235 0.929 . S
H224 C238 0.930 . S
H225 C240 0.960 . S
H226 C240 0.960 . S
H227 C240 0.960 . S
C228 H220 0.929 . S
C228 C229 1.377 . S
C228 C230 1.384 . S
C229 C228 1.377 . S
C229 C235 1.390 . S
C230 H221 0.930 . S
C230 C228 1.384 . S
C230 C231 1.372 . S
C231 C230 1.372 . S
C231 C232 1.400 . S
C231 C236 1.490 . S
C232 H222 0.930 . S
C232 C231 1.400 . S
C232 C235 1.386 . S
H233 C249 0.930 . S
H234 C250 0.931 . S
C235 H223 0.929 . S
C235 C229 1.390 . S
C235 C232 1.386 . S
C236 C231 1.490 . S
C236 C238 1.395 . S
C236 C239 1.403 . S
H237 C243 0.930 . S
C238 H224 0.930 . S
C238 C236 1.395 . S
C238 C241 1.403 . S
C239 C236 1.403 . S
C239 C240 1.524 . S
C239 C243 1.400 . S
C240 H225 0.960 . S
C240 H226 0.960 . S
C240 H227 0.960 . S
C240 C239 1.524 . S
C241 C238 1.403 . S
C241 C242 1.392 . S
C241 C245 1.495 . S
C242 C241 1.392 . S
C242 C243 1.385 . S
C242 C244 1.478 . S
C243 H237 0.930 . S
C243 C239 1.400 . S
C243 C242 1.385 . S
C244 C242 1.478 . S
C244 C246 1.381 . S
C244 C250 1.383 . S
C245 C241 1.495 . S
C245 H251 0.959 . S
C245 H252 0.961 . S
C245 H253 0.960 . S
C246 C244 1.381 . S
C246 C247 1.394 . S
C246 H254 0.930 . S
C247 C246 1.394 . S
C247 C248 1.383 . S
C247 H255 0.929 . S
C248 C247 1.383 . S
C248 C249 1.377 . S
C249 H233 0.930 . S
C249 C248 1.377 . S
C249 C250 1.379 . S
C250 H234 0.931 . S
C250 C244 1.383 . S
C250 C249 1.379 . S
H251 C245 0.959 . S
H252 C245 0.961 . S
H253 C245 0.960 . S
H254 C246 0.930 . S
H255 C247 0.929 . S
H256 C264 0.929 . S
H257 C266 0.930 . S
H258 C268 0.930 . S
H259 C271 0.929 . S
H260 C274 0.930 1_556 S
H261 C276 0.960 . S
H262 C276 0.960 . S
H263 C276 0.960 . S
C264 H256 0.929 . S
C264 C265 1.377 . S
C264 C266 1.384 . S
C265 C264 1.377 . S
C265 C271 1.390 . S
C266 H257 0.930 . S
C266 C264 1.384 . S
C266 C267 1.372 . S
C267 C266 1.372 . S
C267 C268 1.400 . S
C267 C272 1.490 . S
C268 H258 0.930 . S
C268 C267 1.400 . S
C268 C271 1.386 . S
H269 C285 0.930 . S
H270 C286 0.931 . S
C271 H259 0.929 . S
C271 C265 1.390 . S
C271 C268 1.386 . S
C272 C267 1.490 . S
C272 C274 1.395 . S
C272 C275 1.403 . S
H273 C279 0.930 . S
C274 H260 0.930 1_554 S
C274 C272 1.395 . S
C274 C277 1.403 . S
C275 C272 1.403 . S
C275 C276 1.524 . S
C275 C279 1.400 . S
C276 H261 0.960 . S
C276 H262 0.960 . S
C276 H263 0.960 . S
C276 C275 1.524 . S
C277 C274 1.403 . S
C277 C278 1.392 . S
C277 C281 1.495 1_554 S
C278 C277 1.392 . S
C278 C279 1.385 . S
C278 C280 1.478 . S
C279 H273 0.930 . S
C279 C275 1.400 . S
C279 C278 1.385 . S
C280 C278 1.478 . S
C280 C282 1.381 . S
C280 C286 1.383 . S
C281 C277 1.495 1_556 S
C281 H287 0.959 . S
C281 H288 0.961 . S
C281 H289 0.960 . S
C282 C280 1.381 . S
C282 C283 1.394 . S
C282 H290 0.930 . S
C283 C282 1.394 . S
C283 C284 1.383 . S
C283 H291 0.929 . S
C284 C283 1.383 . S
C284 C285 1.377 . S
C285 H269 0.930 . S
C285 C284 1.377 . S
C285 C286 1.379 . S
C286 H270 0.931 . S
C286 C280 1.383 . S
C286 C285 1.379 . S
H287 C281 0.959 . S
H288 C281 0.961 . S
H289 C281 0.960 . S
H290 C282 0.930 . S
H291 C283 0.929 . S
H292 C300 0.929 . S
H293 C302 0.930 . S
H294 C304 0.930 . S
H295 C307 0.929 . S
H296 C310 0.930 . S
H297 C312 0.960 . S
H298 C312 0.960 . S
H299 C312 0.960 . S
C300 H292 0.929 . S
C300 C301 1.377 . S
C300 C302 1.384 . S
C301 C300 1.377 . S
C301 C307 1.390 . S
C302 H293 0.930 . S
C302 C300 1.384 . S
C302 C303 1.372 . S
C303 C302 1.372 . S
C303 C304 1.400 . S
C303 C308 1.490 . S
C304 H294 0.930 . S
C304 C303 1.400 . S
C304 C307 1.386 . S
H305 C321 0.930 . S
H306 C322 0.931 . S
C307 H295 0.929 . S
C307 C301 1.390 . S
C307 C304 1.386 . S
C308 C303 1.490 . S
C308 C310 1.395 . S
C308 C311 1.403 . S
H309 C315 0.930 . S
C310 H296 0.930 . S
C310 C308 1.395 . S
C310 C313 1.403 . S
C311 C308 1.403 . S
C311 C312 1.524 . S
C311 C315 1.400 . S
C312 H297 0.960 . S
C312 H298 0.960 . S
C312 H299 0.960 . S
C312 C311 1.524 . S
C313 C310 1.403 . S
C313 C314 1.392 . S
C313 C317 1.495 . S
C314 C313 1.392 . S
C314 C315 1.385 . S
C314 C316 1.478 . S
C315 H309 0.930 . S
C315 C311 1.400 . S
C315 C314 1.385 . S
C316 C314 1.478 . S
C316 C318 1.381 . S
C316 C322 1.383 . S
C317 C313 1.495 . S
C317 H323 0.959 . S
C317 H324 0.961 . S
C317 H325 0.960 . S
C318 C316 1.381 . S
C318 C319 1.394 . S
C318 H326 0.930 . S
C319 C318 1.394 . S
C319 C320 1.383 . S
C319 H327 0.929 . S
C320 C319 1.383 . S
C320 C321 1.377 . S
C321 H305 0.930 . S
C321 C320 1.377 . S
C321 C322 1.379 . S
C322 H306 0.931 . S
C322 C316 1.383 . S
C322 C321 1.379 . S
H323 C317 0.959 . S
H324 C317 0.961 . S
H325 C317 0.960 . S
H326 C318 0.930 . S
H327 C319 0.929 . S
H328 C336 0.929 . S
H329 C338 0.930 . S
H330 C340 0.930 . S
H331 C343 0.929 . S
H332 C346 0.930 . S
H333 C348 0.960 . S
H334 C348 0.960 . S
H335 C348 0.960 . S
C336 H328 0.929 . S
C336 C337 1.377 . S
C336 C338 1.384 . S
C337 C336 1.377 . S
C337 C343 1.390 1_554 S
C338 H329 0.930 . S
C338 C336 1.384 . S
C338 C339 1.372 . S
C339 C338 1.372 . S
C339 C340 1.400 1_554 S
C339 C344 1.490 . S
C340 H330 0.930 . S
C340 C339 1.400 1_556 S
C340 C343 1.386 . S
H341 C357 0.930 1_556 S
H342 C358 0.931 1_556 S
C343 H331 0.929 . S
C343 C337 1.390 1_556 S
C343 C340 1.386 . S
C344 C339 1.490 . S
C344 C346 1.395 . S
C344 C347 1.403 1_554 S
H345 C351 0.930 . S
C346 H332 0.930 . S
C346 C344 1.395 . S
C346 C349 1.403 . S
C347 C344 1.403 1_556 S
C347 C348 1.524 . S
C347 C351 1.400 . S
C348 H333 0.960 . S
C348 H334 0.960 . S
C348 H335 0.960 . S
C348 C347 1.524 . S
C349 C346 1.403 . S
C349 C350 1.392 . S
C349 C353 1.495 . S
C350 C349 1.392 . S
C350 C351 1.385 1_554 S
C350 C352 1.478 . S
C351 H345 0.930 . S
C351 C347 1.400 . S
C351 C350 1.385 1_556 S
C352 C350 1.478 . S
C352 C354 1.381 . S
C352 C358 1.383 . S
C353 C349 1.495 . S
C353 H359 0.959 . S
C353 H360 0.961 . S
C353 H361 0.960 . S
C354 C352 1.381 . S
C354 C355 1.394 . S
C354 H362 0.930 . S
C355 C354 1.394 . S
C355 C356 1.383 . S
C355 H363 0.929 . S
C356 C355 1.383 . S
C356 C357 1.377 . S
C357 H341 0.930 1_554 S
C357 C356 1.377 . S
C357 C358 1.379 . S
C358 H342 0.931 1_554 S
C358 C352 1.383 . S
C358 C357 1.379 . S
H359 C353 0.959 . S
H360 C353 0.961 . S
H361 C353 0.960 . S
H362 C354 0.930 . S
H363 C355 0.929 . S
H364 C372 0.929 . S
H365 C374 0.930 . S
H366 C376 0.930 . S
H367 C379 0.929 . S
H368 C382 0.930 . S
H369 C384 0.960 . S
H370 C384 0.960 . S
H371 C384 0.960 . S
C372 H364 0.929 . S
C372 C373 1.377 . S
C372 C374 1.384 . S
C373 C372 1.377 . S
C373 C379 1.390 . S
C374 H365 0.930 . S
C374 C372 1.384 . S
C374 C375 1.372 . S
C375 C374 1.372 . S
C375 C376 1.400 . S
C375 C380 1.490 . S
C376 H366 0.930 . S
C376 C375 1.400 . S
C376 C379 1.386 . S
H377 C393 0.930 . S
H378 C394 0.931 . S
C379 H367 0.929 . S
C379 C373 1.390 . S
C379 C376 1.386 . S
C380 C375 1.490 . S
C380 C382 1.395 . S
C380 C383 1.403 . S
H381 C387 0.930 . S
C382 H368 0.930 . S
C382 C380 1.395 . S
C382 C385 1.403 . S
C383 C380 1.403 . S
C383 C384 1.524 . S
C383 C387 1.400 . S
C384 H369 0.960 . S
C384 H370 0.960 . S
C384 H371 0.960 . S
C384 C383 1.524 . S
C385 C382 1.403 . S
C385 C386 1.392 . S
C385 C389 1.495 . S
C386 C385 1.392 . S
C386 C387 1.385 . S
C386 C388 1.478 . S
C387 H381 0.930 . S
C387 C383 1.400 . S
C387 C386 1.385 . S
C388 C386 1.478 . S
C388 C390 1.381 . S
C388 C394 1.383 . S
C389 C385 1.495 . S
C389 H395 0.959 . S
C389 H396 0.961 . S
C389 H397 0.960 . S
C390 C388 1.381 . S
C390 C391 1.394 . S
C390 H398 0.930 . S
C391 C390 1.394 . S
C391 C392 1.383 . S
C391 H399 0.929 . S
C392 C391 1.383 . S
C392 C393 1.377 . S
C393 H377 0.930 . S
C393 C392 1.377 . S
C393 C394 1.379 . S
C394 H378 0.931 . S
C394 C388 1.383 . S
C394 C393 1.379 . S
H395 C389 0.959 . S
H396 C389 0.961 . S
H397 C389 0.960 . S
H398 C390 0.930 . S
H399 C391 0.929 . S
H400 C408 0.929 . S
H401 C410 0.930 . S
H402 C412 0.930 . S
H403 C415 0.929 . S
H404 C418 0.930 . S
H405 C420 0.960 . S
H406 C420 0.960 . S
H407 C420 0.960 . S
C408 H400 0.929 . S
C408 C409 1.377 . S
C408 C410 1.384 . S
C409 C408 1.377 . S
C409 C415 1.390 . S
C410 H401 0.930 . S
C410 C408 1.384 . S
C410 C411 1.372 . S
C411 C410 1.372 . S
C411 C412 1.400 . S
C411 C416 1.490 . S
C412 H402 0.930 . S
C412 C411 1.400 . S
C412 C415 1.386 . S
H413 C429 0.930 . S
H414 C430 0.931 . S
C415 H403 0.929 . S
C415 C409 1.390 . S
C415 C412 1.386 . S
C416 C411 1.490 . S
C416 C418 1.395 . S
C416 C419 1.403 . S
H417 C423 0.930 . S
C418 H404 0.930 . S
C418 C416 1.395 . S
C418 C421 1.403 . S
C419 C416 1.403 . S
C419 C420 1.524 . S
C419 C423 1.400 . S
C420 H405 0.960 . S
C420 H406 0.960 . S
C420 H407 0.960 . S
C420 C419 1.524 . S
C421 C418 1.403 . S
C421 C422 1.392 . S
C421 C425 1.495 . S
C422 C421 1.392 . S
C422 C423 1.385 . S
C422 C424 1.478 . S
C423 H417 0.930 . S
C423 C419 1.400 . S
C423 C422 1.385 . S
C424 C422 1.478 . S
C424 C426 1.381 . S
C424 C430 1.383 . S
C425 C421 1.495 . S
C425 H431 0.959 . S
C425 H432 0.961 . S
C425 H433 0.960 . S
C426 C424 1.381 . S
C426 C427 1.394 . S
C426 H434 0.930 . S
C427 C426 1.394 . S
C427 C428 1.383 . S
C427 H435 0.929 . S
C428 C427 1.383 . S
C428 C429 1.377 . S
C429 H413 0.930 . S
C429 C428 1.377 . S
C429 C430 1.379 . S
C430 H414 0.931 . S
C430 C424 1.383 . S
C430 C429 1.379 . S
H431 C425 0.959 . S
H432 C425 0.961 . S
H433 C425 0.960 . S
H434 C426 0.930 . S
H435 C427 0.929 . S
H436 C444 0.929 . S
H437 C446 0.930 . S
H438 C448 0.930 . S
H439 C451 0.929 . S
H440 C454 0.930 . S
H441 C456 0.960 . S
H442 C456 0.960 . S
H443 C456 0.960 . S
C444 H436 0.929 . S
C444 C445 1.377 . S
C444 C446 1.384 . S
C445 C444 1.377 . S
C445 C451 1.390 . S
C446 H437 0.930 . S
C446 C444 1.384 . S
C446 C447 1.372 . S
C447 C446 1.372 . S
C447 C448 1.400 . S
C447 C452 1.490 . S
C448 H438 0.930 . S
C448 C447 1.400 . S
C448 C451 1.386 . S
H449 C465 0.930 1_565 S
H450 C466 0.931 . S
C451 H439 0.929 . S
C451 C445 1.390 . S
C451 C448 1.386 . S
C452 C447 1.490 . S
C452 C454 1.395 . S
C452 C455 1.403 . S
H453 C459 0.930 . S
C454 H440 0.930 . S
C454 C452 1.395 . S
C454 C457 1.403 . S
C455 C452 1.403 . S
C455 C456 1.524 . S
C455 C459 1.400 . S
C456 H441 0.960 . S
C456 H442 0.960 . S
C456 H443 0.960 . S
C456 C455 1.524 . S
C457 C454 1.403 . S
C457 C458 1.392 . S
C457 C461 1.495 . S
C458 C457 1.392 . S
C458 C459 1.385 . S
C458 C460 1.478 . S
C459 H453 0.930 . S
C459 C455 1.400 . S
C459 C458 1.385 . S
C460 C458 1.478 . S
C460 C462 1.381 . S
C460 C466 1.383 . S
C461 C457 1.495 . S
C461 H467 0.959 . S
C461 H468 0.961 . S
C461 H469 0.960 . S
C462 C460 1.381 . S
C462 C463 1.394 . S
C462 H470 0.930 . S
C463 C462 1.394 . S
C463 C464 1.383 . S
C463 H471 0.929 . S
C464 C463 1.383 . S
C464 C465 1.377 . S
C465 H449 0.930 1_545 S
C465 C464 1.377 . S
C465 C466 1.379 . S
C466 H450 0.931 . S
C466 C460 1.383 . S
C466 C465 1.379 . S
H467 C461 0.959 . S
H468 C461 0.961 . S
H469 C461 0.960 . S
H470 C462 0.930 . S
H471 C463 0.929 . S
H472 C480 0.929 . S
H473 C482 0.930 . S
H474 C484 0.930 . S
H475 C487 0.929 . S
H476 C490 0.930 . S
H477 C492 0.960 . S
H478 C492 0.960 . S
H479 C492 0.960 . S
C480 H472 0.929 . S
C480 C481 1.377 . S
C480 C482 1.384 . S
C481 C480 1.377 . S
C481 C487 1.390 . S
C482 H473 0.930 . S
C482 C480 1.384 . S
C482 C483 1.372 . S
C483 C482 1.372 . S
C483 C484 1.400 . S
C483 C488 1.490 . S
C484 H474 0.930 . S
C484 C483 1.400 . S
C484 C487 1.386 . S
H485 C501 0.930 . S
H486 C502 0.931 . S
C487 H475 0.929 . S
C487 C481 1.390 . S
C487 C484 1.386 . S
C488 C483 1.490 . S
C488 C490 1.395 . S
C488 C491 1.403 . S
H489 C495 0.930 . S
C490 H476 0.930 . S
C490 C488 1.395 . S
C490 C493 1.403 . S
C491 C488 1.403 . S
C491 C492 1.524 . S
C491 C495 1.400 . S
C492 H477 0.960 . S
C492 H478 0.960 . S
C492 H479 0.960 . S
C492 C491 1.524 . S
C493 C490 1.403 . S
C493 C494 1.392 . S
C493 C497 1.495 . S
C494 C493 1.392 . S
C494 C495 1.385 . S
C494 C496 1.478 . S
C495 H489 0.930 . S
C495 C491 1.400 . S
C495 C494 1.385 . S
C496 C494 1.478 . S
C496 C498 1.381 . S
C496 C502 1.383 . S
C497 C493 1.495 . S
C497 H503 0.959 . S
C497 H504 0.961 . S
C497 H505 0.960 . S
C498 C496 1.381 . S
C498 C499 1.394 . S
C498 H506 0.930 . S
C499 C498 1.394 . S
C499 C500 1.383 . S
C499 H507 0.929 . S
C500 C499 1.383 . S
C500 C501 1.377 . S
C501 H485 0.930 . S
C501 C500 1.377 . S
C501 C502 1.379 . S
C502 H486 0.931 . S
C502 C496 1.383 . S
C502 C501 1.379 . S
H503 C497 0.959 . S
H504 C497 0.961 . S
H505 C497 0.960 . S
H506 C498 0.930 . S
H507 C499 0.929 . S
H508 C516 0.929 . S
H509 C518 0.930 . S
H510 C520 0.930 . S
H511 C523 0.929 . S
H512 C526 0.930 . S
H513 C528 0.960 . S
H514 C528 0.960 . S
H515 C528 0.960 . S
C516 H508 0.929 . S
C516 C517 1.377 . S
C516 C518 1.384 . S
C517 C516 1.377 . S
C517 C523 1.390 . S
C518 H509 0.930 . S
C518 C516 1.384 . S
C518 C519 1.372 . S
C519 C518 1.372 . S
C519 C520 1.400 . S
C519 C524 1.490 . S
C520 H510 0.930 . S
C520 C519 1.400 . S
C520 C523 1.386 . S
H521 C537 0.930 . S
H522 C538 0.931 . S
C523 H511 0.929 . S
C523 C517 1.390 . S
C523 C520 1.386 . S
C524 C519 1.490 . S
C524 C526 1.395 . S
C524 C527 1.403 . S
H525 C531 0.930 . S
C526 H512 0.930 . S
C526 C524 1.395 . S
C526 C529 1.403 . S
C527 C524 1.403 . S
C527 C528 1.524 . S
C527 C531 1.400 . S
C528 H513 0.960 . S
C528 H514 0.960 . S
C528 H515 0.960 . S
C528 C527 1.524 . S
C529 C526 1.403 . S
C529 C530 1.392 . S
C529 C533 1.495 . S
C530 C529 1.392 . S
C530 C531 1.385 . S
C530 C532 1.478 . S
C531 H525 0.930 . S
C531 C527 1.400 . S
C531 C530 1.385 . S
C532 C530 1.478 . S
C532 C534 1.381 . S
C532 C538 1.383 . S
C533 C529 1.495 . S
C533 H539 0.959 . S
C533 H540 0.961 . S
C533 H541 0.960 . S
C534 C532 1.381 . S
C534 C535 1.394 . S
C534 H542 0.930 . S
C535 C534 1.394 . S
C535 C536 1.383 . S
C535 H543 0.929 . S
C536 C535 1.383 . S
C536 C537 1.377 . S
C537 H521 0.930 . S
C537 C536 1.377 . S
C537 C538 1.379 . S
C538 H522 0.931 . S
C538 C532 1.383 . S
C538 C537 1.379 . S
H539 C533 0.959 . S
H540 C533 0.961 . S
H541 C533 0.960 . S
H542 C534 0.930 . S
H543 C535 0.929 . S
H544 C552 0.929 . S
H545 C554 0.930 . S
H546 C556 0.930 . S
H547 C559 0.929 . S
H548 C562 0.930 . S
H549 C564 0.960 . S
H550 C564 0.960 . S
H551 C564 0.960 . S
C552 H544 0.929 . S
C552 C553 1.377 . S
C552 C554 1.384 . S
C553 C552 1.377 . S
C553 C559 1.390 . S
C554 H545 0.930 . S
C554 C552 1.384 . S
C554 C555 1.372 . S
C555 C554 1.372 . S
C555 C556 1.400 . S
C555 C560 1.490 . S
C556 H546 0.930 . S
C556 C555 1.400 . S
C556 C559 1.386 . S
H557 C573 0.930 . S
H558 C574 0.931 . S
C559 H547 0.929 . S
C559 C553 1.390 . S
C559 C556 1.386 . S
C560 C555 1.490 . S
C560 C562 1.395 . S
C560 C563 1.403 . S
H561 C567 0.930 . S
C562 H548 0.930 . S
C562 C560 1.395 . S
C562 C565 1.403 . S
C563 C560 1.403 . S
C563 C564 1.524 . S
C563 C567 1.400 . S
C564 H549 0.960 . S
C564 H550 0.960 . S
C564 H551 0.960 . S
C564 C563 1.524 . S
C565 C562 1.403 . S
C565 C566 1.392 . S
C565 C569 1.495 . S
C566 C565 1.392 . S
C566 C567 1.385 . S
C566 C568 1.478 . S
C567 H561 0.930 . S
C567 C563 1.400 . S
C567 C566 1.385 . S
C568 C566 1.478 . S
C568 C570 1.381 . S
C568 C574 1.383 . S
C569 C565 1.495 . S
C569 H575 0.959 . S
C569 H576 0.961 . S
C569 H577 0.960 . S
C570 C568 1.381 . S
C570 C571 1.394 . S
C570 H578 0.930 . S
C571 C570 1.394 . S
C571 C572 1.383 . S
C571 H579 0.929 . S
C572 C571 1.383 . S
C572 C573 1.377 . S
C573 H557 0.930 . S
C573 C572 1.377 . S
C573 C574 1.379 . S
C574 H558 0.931 . S
C574 C568 1.383 . S
C574 C573 1.379 . S
H575 C569 0.959 . S
H576 C569 0.961 . S
H577 C569 0.960 . S
H578 C570 0.930 . S
H579 C571 0.929 . S
H580 C588 0.929 . S
H581 C590 0.930 . S
H582 C592 0.930 . S
H583 C595 0.929 . S
H584 C598 0.930 . S
H585 C600 0.960 . S
H586 C600 0.960 . S
H587 C600 0.960 . S
C588 H580 0.929 . S
C588 C589 1.377 . S
C588 C590 1.384 . S
C589 C588 1.377 . S
C589 C595 1.390 . S
C590 H581 0.930 . S
C590 C588 1.384 . S
C590 C591 1.372 . S
C591 C590 1.372 . S
C591 C592 1.400 . S
C591 C596 1.490 . S
C592 H582 0.930 . S
C592 C591 1.400 . S
C592 C595 1.386 . S
H593 C609 0.930 . S
H594 C610 0.931 . S
C595 H583 0.929 . S
C595 C589 1.390 . S
C595 C592 1.386 . S
C596 C591 1.490 . S
C596 C598 1.395 . S
C596 C599 1.403 . S
H597 C603 0.930 . S
C598 H584 0.930 . S
C598 C596 1.395 . S
C598 C601 1.403 . S
C599 C596 1.403 . S
C599 C600 1.524 . S
C599 C603 1.400 . S
C600 H585 0.960 . S
C600 H586 0.960 . S
C600 H587 0.960 . S
C600 C599 1.524 . S
C601 C598 1.403 . S
C601 C602 1.392 . S
C601 C605 1.495 . S
C602 C601 1.392 . S
C602 C603 1.385 . S
C602 C604 1.478 . S
C603 H597 0.930 . S
C603 C599 1.400 . S
C603 C602 1.385 . S
C604 C602 1.478 . S
C604 C606 1.381 . S
C604 C610 1.383 . S
C605 C601 1.495 . S
C605 H611 0.959 . S
C605 H612 0.961 . S
C605 H613 0.960 . S
C606 C604 1.381 . S
C606 C607 1.394 . S
C606 H614 0.930 . S
C607 C606 1.394 . S
C607 C608 1.383 . S
C607 H615 0.929 . S
C608 C607 1.383 . S
C608 C609 1.377 . S
C609 H593 0.930 . S
C609 C608 1.377 . S
C609 C610 1.379 . S
C610 H594 0.931 . S
C610 C604 1.383 . S
C610 C609 1.379 . S
H611 C605 0.959 . S
H612 C605 0.961 . S
H613 C605 0.960 . S
H614 C606 0.930 . S
H615 C607 0.929 . S
H616 C624 0.929 . S
H617 C626 0.930 . S
H618 C628 0.930 . S
H619 C631 0.929 . S
H620 C634 0.930 . S
H621 C636 0.960 . S
H622 C636 0.960 . S
H623 C636 0.960 . S
C624 H616 0.929 . S
C624 C625 1.377 . S
C624 C626 1.384 . S
C625 C624 1.377 . S
C625 C631 1.390 . S
C626 H617 0.930 . S
C626 C624 1.384 . S
C626 C627 1.372 . S
C627 C626 1.372 . S
C627 C628 1.400 . S
C627 C632 1.490 . S
C628 H618 0.930 . S
C628 C627 1.400 . S
C628 C631 1.386 . S
H629 C645 0.930 . S
H630 C646 0.931 . S
C631 H619 0.929 . S
C631 C625 1.390 . S
C631 C628 1.386 . S
C632 C627 1.490 . S
C632 C634 1.395 . S
C632 C635 1.403 . S
H633 C639 0.930 . S
C634 H620 0.930 . S
C634 C632 1.395 . S
C634 C637 1.403 . S
C635 C632 1.403 . S
C635 C636 1.524 . S
C635 C639 1.400 . S
C636 H621 0.960 . S
C636 H622 0.960 . S
C636 H623 0.960 . S
C636 C635 1.524 . S
C637 C634 1.403 . S
C637 C638 1.392 . S
C637 C641 1.495 . S
C638 C637 1.392 . S
C638 C639 1.385 . S
C638 C640 1.478 . S
C639 H633 0.930 . S
C639 C635 1.400 . S
C639 C638 1.385 . S
C640 C638 1.478 . S
C640 C642 1.381 . S
C640 C646 1.383 . S
C641 C637 1.495 . S
C641 H647 0.959 . S
C641 H648 0.961 . S
C641 H649 0.960 . S
C642 C640 1.381 . S
C642 C643 1.394 . S
C642 H650 0.930 . S
C643 C642 1.394 . S
C643 C644 1.383 . S
C643 H651 0.929 . S
C644 C643 1.383 . S
C644 C645 1.377 . S
C645 H629 0.930 . S
C645 C644 1.377 . S
C645 C646 1.379 . S
C646 H630 0.931 . S
C646 C640 1.383 . S
C646 C645 1.379 . S
H647 C641 0.959 . S
H648 C641 0.961 . S
H649 C641 0.960 . S
H650 C642 0.930 . S
H651 C643 0.929 . S
C248 C120 1.691 . S
C229 C43 1.596 . S
C265 C4 1.624 . S
C284 C192 1.646 . S
C301 C17 1.629 . S
C320 C108 1.688 . S
C337 C30 1.664 . S
C356 C204 1.644 . S
C392 C110 1.461 . S
C373 C9 1.600 . S
C428 C191 1.686 . S
C409 C21 1.691 . S
C445 C34 1.632 . S
C464 C107 1.633 . S
C481 C48 1.597 . S
C500 C194 1.443 . S
C536 C206 1.401 . S
C517 C22 1.597 . S
C572 C122 1.392 . S
C553 C35 1.601 1_556 S
C608 C203 1.691 . S
C589 C47 1.688 . S
C625 C8 1.631 . S
C644 C119 1.629 . S
