# Generated by pormake.
# Topology pyr, (3,6)-cn, num edge types: 1
# Building blocks:
#     Node 0, Type 0, BuildingBlock: ESEHIV_clean_linker_0, # of connection points: 3
#     Node 1, Type 0, BuildingBlock: ESEHIV_clean_linker_0, # of connection points: 3
#     Node 2, Type 0, BuildingBlock: ESEHIV_clean_linker_0, # of connection points: 3
#     Node 3, Type 0, BuildingBlock: ESEHIV_clean_linker_0, # of connection points: 3
#     Node 4, Type 0, BuildingBlock: ESEHIV_clean_linker_0, # of connection points: 3
#     Node 5, Type 0, BuildingBlock: ESEHIV_clean_linker_0, # of connection points: 3
#     Node 6, Type 0, BuildingBlock: ESEHIV_clean_linker_0, # of connection points: 3
#     Node 7, Type 0, BuildingBlock: ESEHIV_clean_linker_0, # of connection points: 3
#     Node 8, Type 1, BuildingBlock: BETDIP_clean_sbu_0, # of connection points: 6
#     Node 9, Type 1, BuildingBlock: BETDIP_clean_sbu_0, # of connection points: 6
#     Node 10, Type 1, BuildingBlock: BETDIP_clean_sbu_0, # of connection points: 6
#     Node 11, Type 1, BuildingBlock: BETDIP_clean_sbu_0, # of connection points: 6
#     Edge 12, Type (0, 1), BuildingBlock: XUDNAN_clean_linker_2, # of connection points: 2
#     Edge 13, Type (0, 1), BuildingBlock: XUDNAN_clean_linker_2, # of connection points: 2
#     Edge 14, Type (0, 1), BuildingBlock: XUDNAN_clean_linker_2, # of connection points: 2
#     Edge 15, Type (0, 1), BuildingBlock: XUDNAN_clean_linker_2, # of connection points: 2
#     Edge 16, Type (0, 1), BuildingBlock: XUDNAN_clean_linker_2, # of connection points: 2
#     Edge 17, Type (0, 1), BuildingBlock: XUDNAN_clean_linker_2, # of connection points: 2
#     Edge 18, Type (0, 1), BuildingBlock: XUDNAN_clean_linker_2, # of connection points: 2
#     Edge 19, Type (0, 1), BuildingBlock: XUDNAN_clean_linker_2, # of connection points: 2
#     Edge 20, Type (0, 1), BuildingBlock: XUDNAN_clean_linker_2, # of connection points: 2
#     Edge 21, Type (0, 1), BuildingBlock: XUDNAN_clean_linker_2, # of connection points: 2
#     Edge 22, Type (0, 1), BuildingBlock: XUDNAN_clean_linker_2, # of connection points: 2
#     Edge 23, Type (0, 1), BuildingBlock: XUDNAN_clean_linker_2, # of connection points: 2
#     Edge 24, Type (0, 1), BuildingBlock: XUDNAN_clean_linker_2, # of connection points: 2
#     Edge 25, Type (0, 1), BuildingBlock: XUDNAN_clean_linker_2, # of connection points: 2
#     Edge 26, Type (0, 1), BuildingBlock: XUDNAN_clean_linker_2, # of connection points: 2
#     Edge 27, Type (0, 1), BuildingBlock: XUDNAN_clean_linker_2, # of connection points: 2
#     Edge 28, Type (0, 1), BuildingBlock: XUDNAN_clean_linker_2, # of connection points: 2
#     Edge 29, Type (0, 1), BuildingBlock: XUDNAN_clean_linker_2, # of connection points: 2
#     Edge 30, Type (0, 1), BuildingBlock: XUDNAN_clean_linker_2, # of connection points: 2
#     Edge 31, Type (0, 1), BuildingBlock: XUDNAN_clean_linker_2, # of connection points: 2
#     Edge 32, Type (0, 1), BuildingBlock: XUDNAN_clean_linker_2, # of connection points: 2
#     Edge 33, Type (0, 1), BuildingBlock: XUDNAN_clean_linker_2, # of connection points: 2
#     Edge 34, Type (0, 1), BuildingBlock: XUDNAN_clean_linker_2, # of connection points: 2
#     Edge 35, Type (0, 1), BuildingBlock: XUDNAN_clean_linker_2, # of connection points: 2
# Relax obj value: 0.156
# Max RMSD: 0.205
# Mean RMSD: 0.092
data_MOF--net-pyr--node1-BETDIP_clean_sbu_0--node2-ESEHIV_clean_linker_0--edge1-XUDNAN_clean_linker_2
_symmetry_space_group_name_H-M    P1
_symmetry_Int_Tables_number       1
_symmetry_cell_setting            triclinic
loop_
_symmetry_equiv_pos_as_xyz
'x, y, z'
_cell_length_a     33.586084
_cell_length_b     36.750833
_cell_length_c     35.788573
_cell_angle_alpha  88.651329
_cell_angle_beta   92.887299
_cell_angle_gamma 104.69074
loop_
_atom_site_label
_atom_site_type_symbol
_atom_site_fract_x
_atom_site_fract_y
_atom_site_fract_z
_atom_type_partial_charge
H0 H 0.31954 0.32301 0.27734 0.0
H1 H 0.42377 0.27557 0.29252 0.0
H2 H 0.38705 0.30775 0.18266 0.0
C3 C 0.3461 0.31621 0.26611 0.0
C4 C 0.35118 0.31901 0.22731 0.0
C5 C 0.37231 0.3009 0.29001 0.0
C6 C 0.40442 0.28886 0.27466 0.0
C7 C 0.40891 0.29011 0.2359 0.0
C8 C 0.38329 0.30659 0.2126 0.0
H9 H 0.11438 0.8023 0.79834 0.0
H10 H 0.2322 0.778 0.82189 0.0
H11 H 0.19325 0.79754 0.70915 0.0
C12 C 0.14278 0.79734 0.78938 0.0
C13 C 0.15073 0.80143 0.7512 0.0
C14 C 0.17258 0.79072 0.81594 0.0
C15 C 0.20854 0.78333 0.8026 0.0
C16 C 0.21559 0.78426 0.76416 0.0
C17 C 0.18685 0.79413 0.7386 0.0
H18 H 0.67658 0.35264 0.92294 0.0
H19 H 0.68547 0.44113 0.84094 0.0
H20 H 0.59278 0.33635 0.82611 0.0
C21 C 0.66518 0.3629 0.89696 0.0
C22 C 0.6326 0.33926 0.87593 0.0
C23 C 0.68427 0.39951 0.88454 0.0
C24 C 0.67042 0.413 0.85034 0.0
C25 C 0.63726 0.39052 0.82855 0.0
C26 C 0.61876 0.35367 0.84189 0.0
H27 H 0.85581 0.73243 0.42255 0.0
H28 H 0.93619 0.74948 0.3301 0.0
H29 H 0.83974 0.64761 0.33807 0.0
C30 C 0.86465 0.72319 0.39643 0.0
C31 C 0.84297 0.68764 0.38244 0.0
C32 C 0.89872 0.74601 0.37833 0.0
C33 C 0.91063 0.73227 0.34486 0.0
C34 C 0.89008 0.69648 0.33008 0.0
C35 C 0.85641 0.67452 0.34946 0.0
H36 H 0.60625 0.84988 0.85297 0.0
H37 H 0.69859 0.79333 0.82866 0.0
H38 H 0.62255 0.7569 0.92229 0.0
C39 C 0.62038 0.82675 0.85852 0.0
C40 C 0.60928 0.80296 0.88965 0.0
C41 C 0.65249 0.82352 0.83649 0.0
C42 C 0.67266 0.7951 0.84476 0.0
C43 C 0.66205 0.771 0.87567 0.0
C44 C 0.62964 0.77442 0.8975 0.0
H45 H 0.82583 0.30869 0.35462 0.0
H46 H 0.93158 0.26375 0.37092 0.0
H47 H 0.90649 0.3374 0.45274 0.0
C48 C 0.85398 0.30774 0.37034 0.0
C49 C 0.86479 0.3281 0.40375 0.0
C50 C 0.87741 0.2838 0.35879 0.0
C51 C 0.91365 0.28269 0.37931 0.0
C52 C 0.92407 0.30161 0.41326 0.0
C53 C 0.89977 0.32452 0.42544 0.0
H54 H 0.33368 0.73675 0.18754 0.0
H55 H 0.33441 0.65264 0.27167 0.0
H56 H 0.43883 0.74947 0.26423 0.0
C57 C 0.34985 0.7259 0.21038 0.0
C58 C 0.38926 0.74703 0.22288 0.0
C59 C 0.33061 0.69114 0.22652 0.0
C60 C 0.34997 0.67874 0.2585 0.0
C61 C 0.38878 0.69955 0.27352 0.0
C62 C 0.40836 0.73374 0.25482 0.0
H63 H 0.09724 0.33982 0.78413 0.0
H64 H 0.18191 0.34095 0.69675 0.0
H65 H 0.20351 0.43342 0.77156 0.0
C66 C 0.12471 0.3531 0.76959 0.0
C67 C 0.14748 0.38978 0.78093 0.0
C68 C 0.13695 0.33418 0.73925 0.0
C69 C 0.17278 0.35322 0.72103 0.0
C70 C 0.19751 0.38835 0.73288 0.0
C71 C 0.18434 0.40647 0.76242 0.0
Tb72 Tb 0.98119 1.02963 0.56725 0.0
Tb73 Tb 0.06763 0.04328 0.55545 0.0
C74 C 0.90489 1.00064 0.56337 0.0
C75 C 0.87236 0.99389 0.59017 0.0
C76 C 0.83264 0.97316 0.57938 0.0
C77 C 0.80222 0.96397 0.60562 0.0
C78 C 0.81125 0.97561 0.6429 0.0
C79 C 0.85068 0.99773 0.65322 0.0
C80 C 0.88114 1.00664 0.62704 0.0
C81 C 0.01576 0.08597 0.61365 0.0
C82 C 0.03691 0.99128 0.62088 0.0
C83 C 0.14145 0.06256 0.53753 0.0
C84 C 0.17152 0.09506 0.52227 0.0
C85 C 0.185 0.12936 0.54124 0.0
C86 C 0.2137 0.1594 0.52526 0.0
C87 C 0.22913 0.15556 0.49011 0.0
C88 C 0.21523 0.12113 0.47137 0.0
C89 C 0.18713 0.0912 0.48744 0.0
C90 C 0.02063 0.97944 0.52497 0.0
C91 C 0.01908 0.09599 0.51561 0.0
O92 O 0.93237 0.98122 0.56933 0.0
O93 O 0.9216 1.03595 0.55552 0.0
O94 O 0.03532 0.07028 0.59205 0.0
O95 O 0.9774 0.06822 0.611 0.0
O96 O 0.99969 0.9886 0.60546 0.0
O97 O 0.06883 1.01716 0.60959 0.0
O98 O 0.13014 0.06416 0.57184 0.0
O99 O 0.11056 0.04737 0.51453 0.0
O100 O 1.0132 1.01162 0.52394 0.0
O101 O 0.05494 0.98304 0.54405 0.0
O102 O 0.05508 0.09354 0.52988 0.0
O103 O 0.98575 0.06888 0.52074 0.0
H104 H 0.82547 0.96323 0.55095 0.0
H105 H 0.77195 0.94696 0.59706 0.0
H106 H 0.85855 1.00655 0.68191 0.0
H107 H 0.9118 1.02243 0.63589 0.0
H108 H 0.1734 0.13302 0.56822 0.0
H109 H 0.22391 0.18549 0.54047 0.0
H110 H 0.2254 0.11735 0.44382 0.0
H111 H 0.17715 0.06499 0.47232 0.0
Tb112 Tb 0.55548 0.05408 0.06762 0.0
Tb113 Tb 0.46891 1.03992 1.04221 0.0
C114 C 0.6328 0.07162 0.07363 0.0
C115 C 0.66314 0.08784 0.10361 0.0
C116 C 0.69626 0.1184 0.0955 0.0
C117 C 0.72412 0.13554 0.12403 0.0
C118 C 0.71943 0.12207 0.161 0.0
C119 C 0.6865 0.09121 0.16901 0.0
C120 C 0.65841 0.07437 0.1406 0.0
C121 C 0.50497 0.99804 0.10473 0.0
C122 C 0.50492 0.098 0.10899 0.0
C123 C 0.39183 1.01924 1.04284 0.0
C124 C 0.36043 0.98362 1.03773 0.0
C125 C 0.3662 0.95606 1.01363 0.0
C126 C 0.33434 0.92402 1.0063 0.0
C127 C 0.29632 0.91883 1.02328 0.0
C128 C 0.292 0.94521 1.04965 0.0
C129 C 0.32377 0.97744 1.05666 0.0
C130 C 0.51738 0.09223 1.00134 0.0
C131 C 0.52135 0.99615 1.00344 0.0
O132 O 0.61131 0.09403 1.05924 0.0
O133 O 0.61009 1.03757 0.07938 0.0
O134 O 0.50387 1.00653 0.07058 0.0
O135 O 0.53743 1.02099 0.11982 0.0
O136 O 0.54208 0.09322 0.10594 0.0
O137 O 0.47321 0.07993 0.0875 0.0
O138 O 0.41597 1.02106 0.07294 0.0
O139 O 0.41191 1.03352 1.01323 0.0
O140 O 0.52085 0.08809 1.0366 0.0
O141 O 0.48454 0.068 0.98879 0.0
O142 O 0.4842 0.99336 1.01529 0.0
O143 O 0.55229 1.02429 1.0147 0.0
H144 H 0.70024 0.12929 0.06716 0.0
H145 H 0.7494 0.15921 0.1172 0.0
H146 H 0.68194 0.08066 0.19741 0.0
H147 H 0.63275 0.05117 0.1477 0.0
H148 H 0.39467 0.96002 0.99929 0.0
H149 H 0.33873 0.90461 0.98553 0.0
H150 H 0.26341 0.94174 0.06366 0.0
H151 H 0.31921 0.99814 0.07597 0.0
Tb152 Tb 0.51816 0.5819 0.56967 0.0
Tb153 Tb 0.50805 0.50794 0.52751 0.0
C154 C 0.50423 0.64443 0.5808 0.0
C155 C 0.4813 0.6618 0.60608 0.0
C156 C 0.45453 0.68216 0.59008 0.0
C157 C 0.43028 0.6974 0.61254 0.0
C158 C 0.43256 0.69289 0.65158 0.0
C159 C 0.46001 0.67312 0.66779 0.0
C160 C 0.48405 0.65741 0.64516 0.0
C161 C 0.54525 0.53318 0.61444 0.0
C162 C 0.44233 0.51002 0.5865 0.0
C163 C 0.51949 0.45037 0.49827 0.0
C164 C 0.55741 0.43869 0.49277 0.0
C165 C 0.59114 0.44884 0.51858 0.0
C166 C 0.62864 0.44131 0.5112 0.0
C167 C 0.63311 0.42365 0.47783 0.0
C168 C 0.59902 0.41299 0.45234 0.0
C169 C 0.56148 0.42051 0.45977 0.0
C170 C 0.47516 0.55944 0.49306 0.0
C171 C 0.59273 0.57171 0.52397 0.0
O172 O 0.48105 0.61886 0.5586 0.0
O173 O 0.53759 0.63521 0.59423 0.0
O174 O 0.53043 0.52889 0.5811 0.0
O175 O 0.5461 0.56747 0.6235 0.0
O176 O 0.45783 0.54716 0.58905 0.0
O177 O 0.45837 0.48906 0.56508 0.0
O178 O 0.50903 0.45127 0.53295 0.0
O179 O 0.51621 0.48025 0.47906 0.0
O180 O 0.5084 0.5646 0.5126 0.0
O181 O 0.45912 0.52339 0.49184 0.0
O182 O 0.57368 0.53539 0.52294 0.0
O183 O 0.57526 0.59661 0.53837 0.0
H184 H 0.45198 0.68587 0.55999 0.0
H185 H 0.40983 0.71292 0.59934 0.0
H186 H 0.46218 0.66914 0.69784 0.0
H187 H 0.50428 0.64155 0.65813 0.0
H188 H 0.58883 0.46335 0.54407 0.0
H189 H 0.65416 0.44944 0.53157 0.0
H190 H 0.60165 0.39973 0.42618 0.0
H191 H 0.53593 0.41299 0.43932 0.0
Tb192 Tb 1.0133 0.57561 1.02871 0.0
Tb193 Tb 1.00359 0.50773 0.07406 0.0
C194 C 1.00014 0.62986 0.99014 0.0
C195 C 0.96337 0.64385 0.98294 0.0
C196 C 0.92845 0.63012 1.00396 0.0
C197 C 0.89178 0.63986 0.99419 0.0
C198 C 0.88922 0.66309 0.96286 0.0
C199 C 0.92459 0.6773 0.94225 0.0
C200 C 0.9614 0.66774 0.95227 0.0
C201 C 0.08144 0.57321 0.06952 0.0
C202 C 0.97385 0.57357 0.10869 0.0
C203 C 1.01344 0.45192 0.11208 0.0
C204 C 0.04343 0.42903 0.11449 0.0
C205 C 0.06632 0.4251 0.08373 0.0
C206 C 0.09903 0.40801 0.08836 0.0
C207 C 0.10938 0.39499 0.12385 0.0
C208 C 0.08505 0.39737 0.15407 0.0
C209 C 0.05237 0.41428 0.1494 0.0
C210 C 0.93415 0.51283 1.03827 0.0
C211 C 0.04469 0.51199 0.99325 0.0
O212 O 0.9969 0.59643 0.97691 0.0
O213 O 0.01642 0.6334 1.02423 0.0
O214 O 0.04464 0.562 0.07855 0.0
O215 O 0.08108 0.58896 1.03679 0.0
O216 O 0.9755 0.58674 0.07382 0.0
O217 O 0.98671 0.54295 0.117 0.0
O218 O 0.02824 0.48681 0.12227 0.0
O219 O 0.98948 0.44906 0.08176 0.0
O220 O 0.96968 0.52156 1.02518 0.0
O221 O 0.93692 0.49926 0.07169 0.0
O222 O 0.04006 0.49538 1.02684 0.0
O223 O 0.0329 0.54318 0.98685 0.0
H224 H 0.9291 0.61106 1.0273 0.0
H225 H 0.86535 0.62889 1.01098 0.0
H226 H 0.92352 0.69481 0.91765 0.0
H227 H 0.98792 0.67802 0.93538 0.0
H228 H 0.05993 0.43634 1.05652 0.0
H229 H 0.11737 0.4066 0.06464 0.0
H230 H 0.09198 0.387 0.18159 0.0
H231 H 0.03503 0.41713 0.17342 0.0
H232 H 0.37452 0.23617 0.32821 0.0
H233 H 0.34245 0.34241 0.33987 0.0
H234 H 0.31091 0.31986 0.39976 0.0
H235 H 0.28686 0.1802 0.3564 0.0
H236 H 0.30855 0.14623 0.38165 0.0
H237 H 0.33575 0.17312 0.34412 0.0
H238 H 0.40003 0.19729 0.38842 0.0
H239 H 0.37324 0.16986 0.42619 0.0
H240 H 0.39499 0.2197 0.43159 0.0
H241 H 0.27111 0.28103 0.45073 0.0
H242 H 0.22957 0.23054 0.48965 0.0
H243 H 0.29365 0.15218 0.4478 0.0
C244 C 0.36285 0.25559 0.34412 0.0
C245 C 0.36127 0.29121 0.32936 0.0
C246 C 0.34389 0.31493 0.35053 0.0
C247 C 0.32617 0.30248 0.38471 0.0
C248 C 0.3269 0.26658 0.39768 0.0
C249 C 0.34556 0.24378 0.37833 0.0
C250 C 0.33839 0.20496 0.39581 0.0
C251 C 0.31605 0.17437 0.36783 0.0
C252 C 0.37909 0.19753 0.41144 0.0
C253 C 0.31099 0.20882 0.42689 0.0
C254 C 0.30498 0.24461 0.42787 0.0
C255 C 0.27661 0.25326 0.45108 0.0
C256 C 0.25321 0.2244 0.47321 0.0
C257 C 0.25834 0.18736 0.47185 0.0
C258 C 0.28879 0.18011 0.4494 0.0
H259 H 0.21226 0.76495 0.87773 0.0
H260 H 0.12727 0.83427 0.84862 0.0
H261 H 0.13458 0.85708 0.91185 0.0
H262 H 0.19842 0.75805 0.9846 0.0
H263 H 0.25327 0.76545 0.99284 0.0
H264 H 0.22785 0.73992 0.95222 0.0
H265 H 0.27795 0.78593 0.90953 0.0
H266 H 0.30328 0.81133 0.94975 0.0
H267 H 0.28232 0.83574 0.91244 0.0
H268 H 0.16465 0.88783 0.96872 0.0
H269 H 0.21851 0.927 1.00934 0.0
H270 H 0.2924 0.84648 1.00179 0.0
C271 C 0.19455 0.78449 0.88438 0.0
C272 C 0.16931 0.79743 0.85686 0.0
C273 C 0.14606 0.82232 0.86823 0.0
C274 C 0.15011 0.83592 0.9047 0.0
C275 C 0.17815 0.8253 0.92984 0.0
C276 C 0.20014 0.80011 0.92017 0.0
C277 C 0.23579 0.80082 0.94817 0.0
C278 C 0.22837 0.76386 0.97081 0.0
C279 C 0.27723 0.80898 0.9288 0.0
C280 C 0.23293 0.83316 0.97255 0.0
C281 C 0.19799 0.84528 0.96282 0.0
C282 C 0.19146 0.87797 0.97743 0.0
C283 C 0.22239 0.90012 1.00071 0.0
C284 C 0.25982 0.88985 1.00877 0.0
C285 C 0.26403 0.8549 0.99616 0.0
H286 H 0.63187 0.46347 0.80982 0.0
H287 H 0.60792 0.35154 0.76336 0.0
H288 H 0.58228 0.37496 0.70407 0.0
H289 H 0.54375 0.48857 0.76641 0.0
H290 H 0.57059 0.53688 0.75788 0.0
H291 H 0.58706 0.51125 0.79665 0.0
H292 H 0.6606 0.52636 0.7718 0.0
H293 H 0.64435 0.55205 0.73295 0.0
H294 H 0.66763 0.51406 0.72454 0.0
H295 H 0.55865 0.41167 0.64809 0.0
H296 H 0.53932 0.45751 0.60313 0.0
H297 H 0.57958 0.54517 0.68562 0.0
C298 C 0.62167 0.44378 0.78718 0.0
C299 C 0.62202 0.40531 0.79199 0.0
C300 C 0.60756 0.38089 0.76125 0.0
C301 C 0.59312 0.39405 0.72709 0.0
C302 C 0.59316 0.43199 0.72346 0.0
C303 C 0.60714 0.45649 0.75279 0.0
C304 C 0.60384 0.49593 0.74186 0.0
C305 C 0.57456 0.50891 0.76721 0.0
C306 C 0.64665 0.52374 0.74285 0.0
C307 C 0.5857 0.48986 0.70196 0.0
C308 C 0.57983 0.45282 0.69168 0.0
C309 C 0.56329 0.44073 0.65602 0.0
C310 C 0.55242 0.467 0.63049 0.0
C311 C 0.55797 0.50507 0.64051 0.0
C312 C 0.57497 0.51634 0.67685 0.0
H313 H 0.89873 0.62486 0.31088 0.0
H314 H 0.9102 0.7374 0.26553 0.0
H315 H 0.93095 0.71757 0.20576 0.0
H316 H 0.98719 0.60822 0.26596 0.0
H317 H 0.96378 0.55927 0.25666 0.0
H318 H 0.94851 0.58147 0.29598 0.0
H319 H 0.87256 0.56138 0.27126 0.0
H320 H 0.88762 0.53914 0.23184 0.0
H321 H 0.85915 0.57437 0.2243 0.0
H322 H 0.94889 0.68575 0.14966 0.0
H323 H 0.96756 0.64597 0.10281 0.0
H324 H 0.94917 0.55311 0.18271 0.0
C325 C 0.90543 0.64532 0.28833 0.0
C326 C 0.90276 0.68308 0.29355 0.0
C327 C 0.91231 0.70866 0.26301 0.0
C328 C 0.92395 0.69751 0.22862 0.0
C329 C 0.92646 0.66045 0.22452 0.0
C330 C 0.9178 0.6347 0.25358 0.0
C331 C 0.92414 0.59682 0.24161 0.0
C332 C 0.95792 0.5858 0.26655 0.0
C333 C 0.88344 0.5661 0.24231 0.0
C334 C 0.93786 0.60542 0.20146 0.0
C335 C 0.93833 0.64227 0.19225 0.0
C336 C 0.94878 0.65694 0.15675 0.0
C337 C 0.95929 0.63381 0.13008 0.0
C338 C 0.96013 0.59601 0.13846 0.0
C339 C 0.94914 0.58176 0.17503 0.0
H340 H 0.38407 0.23964 0.18036 0.0
H341 H 0.48843 0.28698 0.25596 0.0
H342 H 0.52532 0.2421 0.23245 0.0
H343 H 0.38745 0.14548 0.19209 0.0
H344 H 0.37234 0.13296 0.14411 0.0
H345 H 0.35583 0.17039 0.16505 0.0
H346 H 0.38821 0.21649 0.11233 0.0
H347 H 0.40412 0.17899 0.09083 0.0
H348 H 0.44162 0.22218 0.10265 0.0
H349 H 0.54964 0.19043 0.20043 0.0
H350 H 0.55939 0.13797 0.16261 0.0
H351 H 0.43685 0.12499 0.11099 0.0
C352 C 0.41516 0.24138 0.19129 0.0
C353 C 0.43383 0.26723 0.21939 0.0
C354 C 0.47388 0.26756 0.23407 0.0
C355 C 0.49492 0.24219 0.22096 0.0
C356 C 0.47519 0.21663 0.19353 0.0
C357 C 0.43621 0.21624 0.17888 0.0
C358 C 0.42076 0.18535 0.15076 0.0
C359 C 0.3818 0.15687 0.1638 0.0
C360 C 0.41326 0.20174 0.11184 0.0
C361 C 0.45715 0.16829 0.15166 0.0
C362 C 0.48839 0.18662 0.17632 0.0
C363 C 0.52532 0.17589 0.18108 0.0
C364 C 0.53054 0.14605 0.15958 0.0
C365 C 0.49882 0.12729 0.13397 0.0
C366 C 0.46161 0.13844 0.13051 0.0
H367 H 0.17737 0.86389 0.70823 0.0
H368 H 0.06636 0.78327 0.74158 0.0
H369 H 0.02412 0.82351 0.71228 0.0
H370 H 0.14678 0.94369 0.72894 0.0
H371 H 0.17004 0.97178 0.69002 0.0
H372 H 0.19135 0.93456 0.70874 0.0
H373 H 0.18365 0.90364 0.64351 0.0
H374 H 0.16353 0.94146 0.62432 0.0
H375 H 0.1343 0.89339 0.61832 0.0
H376 H 0.99461 0.87547 0.68306 0.0
H377 H 0.98032 0.93216 0.65217 0.0
H378 H 0.1117 0.97906 0.64173 0.0
C379 C 0.14411 0.85399 0.70809 0.0
C380 C 0.12501 0.82024 0.72661 0.0
C381 C 0.08145 0.8089 0.72711 0.0
C382 C 0.0573 0.83164 0.71074 0.0
C383 C 0.07726 0.86563 0.69413 0.0
C384 C 0.11968 0.87649 0.69228 0.0
C385 C 0.13389 0.9152 0.67483 0.0
C386 C 0.16217 0.94292 0.70229 0.0
C387 C 0.15508 0.91329 0.63806 0.0
C388 C 0.09294 0.92473 0.66772 0.0
C389 C 0.06054 0.8958 0.67872 0.0
C390 C 0.01978 0.89826 0.67425 0.0
C391 C 1.01197 0.93067 0.65697 0.0
C392 C 0.04483 0.96023 0.64477 0.0
C393 C 0.08579 0.95731 0.65108 0.0
H394 H 0.76806 0.4249 0.87332 0.0
H395 H 0.67481 0.42746 0.95186 0.0
H396 H 0.72859 0.46299 0.99632 0.0
H397 H 0.84217 0.40859 0.94088 0.0
H398 H 0.88652 0.43733 0.91865 0.0
H399 H 0.84062 0.41615 0.89093 0.0
H400 H 0.83796 0.4817 0.86444 0.0
H401 H 0.88392 0.50309 0.89216 0.0
H402 H 0.8378 0.519 0.89622 0.0
H403 H 0.79188 0.49308 1.03444 0.0
H404 H 0.86115 0.51414 0.06505 0.0
H405 H 0.916 0.49294 0.96332 0.0
C406 C 0.75908 0.43382 0.89955 0.0
C407 C 0.71714 0.42399 0.909 0.0
C408 C 0.70662 0.4351 0.94398 0.0
C409 C 0.73698 0.45532 0.96936 0.0
C410 C 0.77804 0.46423 0.95957 0.0
C411 C 0.78931 0.45387 0.92554 0.0
C412 C 0.83611 0.46462 0.92348 0.0
C413 C 0.8523 0.42959 0.91818 0.0
C414 C 0.84975 0.49384 0.89221 0.0
C415 C 0.8493 0.48179 0.96191 0.0
C416 C 0.8151 0.48158 0.98196 0.0
C417 C 0.81885 0.49382 1.01883 0.0
C418 C 0.85837 0.50577 1.03601 0.0
C419 C 0.89399 0.50566 1.01654 0.0
C420 C 0.8894 0.49418 0.97865 0.0
H421 H 0.78197 0.71051 0.41893 0.0
H422 H 0.82197 0.61075 0.39338 0.0
H423 H 0.76435 0.57177 0.42796 0.0
H424 H 0.751 0.68179 0.51318 0.0
H425 H 0.70697 0.70152 0.51021 0.0
H426 H 0.75123 0.722 0.48327 0.0
H427 H 0.70484 0.71361 0.4225 0.0
H428 H 0.66043 0.69327 0.44926 0.0
H429 H 0.67267 0.66768 0.41092 0.0
H430 H 0.70273 0.54316 0.46589 0.0
H431 H 0.63992 0.52647 0.50142 0.0
H432 H 0.63807 0.64412 0.50379 0.0
C433 C 0.7789 0.68049 0.42076 0.0
C434 C 0.80699 0.66395 0.40304 0.0
C435 C 0.80096 0.62436 0.40595 0.0
C436 C 0.76836 0.6019 0.42591 0.0
C437 C 0.74161 0.61913 0.44309 0.0
C438 C 0.74634 0.65752 0.44063 0.0
C439 C 0.71276 0.66876 0.46138 0.0
C440 C 0.73162 0.69509 0.49394 0.0
C441 C 0.6861 0.6869 0.4344 0.0
C442 C 0.68828 0.63069 0.47576 0.0
C443 C 0.70578 0.60256 0.46497 0.0
C444 C 0.68887 0.56503 0.47442 0.0
C445 C 0.65293 0.55583 0.4948 0.0
C446 C 0.63354 0.58381 0.50579 0.0
C447 C 0.65203 0.62195 0.49632 0.0
H448 H 0.31068 0.37369 0.23863 0.0
H449 H 0.31861 0.28811 0.15968 0.0
H450 H 0.26109 0.30196 0.12141 0.0
H451 H 0.20314 0.34936 0.23825 0.0
H452 H 0.19846 0.39681 0.2429 0.0
H453 H 0.24413 0.38424 0.26114 0.0
H454 H 0.28942 0.43745 0.22151 0.0
H455 H 0.24384 0.45039 0.20333 0.0
H456 H 0.27901 0.43923 0.17167 0.0
H457 H 0.19857 0.32155 0.09437 0.0
H458 H 0.1361 0.34498 0.08177 0.0
H459 H 0.16771 0.41485 0.18027 0.0
C460 C 0.30071 0.35813 0.21308 0.0
C461 C 0.31963 0.33014 0.20207 0.0
C462 C 0.30548 0.31042 0.16835 0.0
C463 C 0.27254 0.31786 0.14649 0.0
C464 C 0.25395 0.34496 0.15877 0.0
C465 C 0.2676 0.3648 0.19126 0.0
C466 C 0.24041 0.39025 0.20002 0.0
C467 C 0.22036 0.3795 0.23781 0.0
C468 C 0.26462 0.43179 0.19906 0.0
C469 C 0.20892 0.38117 0.16772 0.0
C470 C 0.2174 0.35532 0.14393 0.0
C471 C 0.19179 0.34202 0.11267 0.0
C472 C 0.15648 0.35543 0.10571 0.0
C473 C 0.14705 0.38143 0.13022 0.0
C474 C 0.17391 0.3946 0.16133 0.0
H475 H 0.61885 0.31082 0.94895 0.0
H476 H 0.60506 0.27599 0.83283 0.0
H477 H 0.57691 0.21041 0.85304 0.0
H478 H 0.65063 0.22917 0.98651 0.0
H479 H 0.62291 0.2264 1.02875 0.0
H480 H 0.64164 0.27117 1.00566 0.0
H481 H 0.56796 0.28105 1.00183 0.0
H482 H 0.54906 0.23641 1.02506 0.0
H483 H 0.52642 0.24569 0.98025 0.0
H484 H 0.54969 0.14836 0.88504 0.0
H485 H 0.52343 0.0941 0.92661 0.0
H486 H 0.5562 0.16634 1.02334 0.0
C487 C 0.61021 0.28946 0.92766 0.0
C488 C 0.61422 0.29926 0.88895 0.0
C489 C 0.6018 0.26997 0.86243 0.0
C490 C 0.58605 0.23233 0.87372 0.0
C491 C 0.58279 0.2238 0.91182 0.0
C492 C 0.59442 0.25146 0.93849 0.0
C493 C 0.58723 0.23434 0.97769 0.0
C494 C 0.62804 0.24066 1.00103 0.0
C495 C 0.55579 0.25033 0.99737 0.0
C496 C 0.56972 0.19277 0.96883 0.0
C497 C 0.56754 0.18756 0.93054 0.0
C498 C 0.55147 0.15215 0.91503 0.0
C499 C 0.53665 0.12139 0.93897 0.0
C500 C 0.53799 0.12563 0.9783 0.0
C501 C 0.55533 0.16193 0.99347 0.0
H502 H 0.87092 0.7977 0.42088 0.0
H503 H 0.98212 0.77949 0.376 0.0
H504 H 0.02227 0.83849 0.40429 0.0
H505 H 0.89759 0.90007 0.41128 0.0
H506 H 0.87658 0.90751 0.455 0.0
H507 H 0.85524 0.86473 0.42947 0.0
H508 H 0.86788 0.82545 0.48766 0.0
H509 H 0.88907 0.86808 0.51341 0.0
H510 H 0.91889 0.834 0.50954 0.0
H511 H 0.05209 0.89791 0.43983 0.0
H512 H 0.06967 0.95291 0.48111 0.0
H513 H 0.94094 0.93492 0.50557 0.0
C514 C 0.90373 0.80589 0.41691 0.0
C515 C 0.92277 0.78328 0.39529 0.0
C516 C 0.96595 0.79602 0.39115 0.0
C517 C 0.98935 0.82965 0.40754 0.0
C518 C 0.96967 0.8509 0.42848 0.0
C519 C 0.92783 0.83957 0.43338 0.0
C520 C 0.91485 0.8673 0.45851 0.0
C521 C 0.88424 0.88601 0.43729 0.0
C522 C 0.89659 0.84752 0.49441 0.0
C523 C 0.95598 0.89583 0.46711 0.0
C524 C 0.98704 0.88561 0.44925 0.0
C525 C 0.02793 0.90626 0.45364 0.0
C526 C 0.03763 0.93767 0.4772 0.0
C527 C 1.00684 0.94895 0.49629 0.0
C528 C 0.96518 0.92778 0.49075 0.0
H529 H 0.22402 0.74142 0.70466 0.0
H530 H 0.29423 0.80976 0.7946 0.0
H531 H 0.35697 0.79244 0.7768 0.0
H532 H 0.27444 0.66709 0.71262 0.0
H533 H 0.27394 0.6598 0.66295 0.0
H534 H 0.23445 0.67796 0.68224 0.0
H535 H 0.25228 0.73605 0.63789 0.0
H536 H 0.29146 0.71781 0.61814 0.0
H537 H 0.30463 0.76443 0.63745 0.0
H538 H 0.41168 0.76557 0.75075 0.0
H539 H 0.4554 0.73546 0.71459 0.0
H540 H 0.34994 0.68635 0.64083 0.0
C541 C 0.2527 0.75315 0.72028 0.0
C542 C 0.25406 0.77656 0.7513 0.0
C543 C 0.29221 0.79113 0.7712 0.0
C544 C 0.32808 0.78158 0.76122 0.0
C545 C 0.32544 0.75768 0.7311 0.0
C546 C 0.28886 0.74401 0.71063 0.0
C547 C 0.29439 0.7189 0.6794 0.0
C548 C 0.26772 0.67855 0.68463 0.0
C549 C 0.28515 0.73529 0.64095 0.0
C550 C 0.33978 0.72068 0.68547 0.0
C551 C 0.3571 0.74292 0.71562 0.0
C552 C 0.39851 0.74825 0.72695 0.0
C553 C 0.42302 0.73089 0.70646 0.0
C554 C 0.40605 0.70883 0.67488 0.0
C555 C 0.3638 0.70345 0.66461 0.0
H556 H 0.67676 0.8138 0.76642 0.0
H557 H 0.6673 0.89975 0.84416 0.0
H558 H 0.70114 0.94907 0.79995 0.0
H559 H 0.77621 0.85833 0.74003 0.0
H560 H 0.76771 0.8438 0.69191 0.0
H561 H 0.73828 0.81556 0.72765 0.0
H562 H 0.67041 0.81964 0.69179 0.0
H563 H 0.6997 0.84795 0.65587 0.0
H564 H 0.6621 0.86512 0.67959 0.0
H565 H 0.74296 0.98864 0.75043 0.0
H566 H 0.78781 1.01511 0.69834 0.0
H567 H 0.76943 0.9031 0.65368 0.0
C568 C 0.68121 0.84301 0.77383 0.0
C569 C 0.66891 0.85296 0.8084 0.0
C570 C 0.67558 0.89149 0.81736 0.0
C571 C 0.69498 0.91972 0.79255 0.0
C572 C 0.70733 0.9089 0.7589 0.0
C573 C 0.7005 0.87147 0.74945 0.0
C574 C 0.71926 0.86716 0.71288 0.0
C575 C 0.75232 0.84491 0.71847 0.0
C576 C 0.68586 0.84889 0.68328 0.0
C577 C 0.7382 0.90795 0.70347 0.0
C578 C 0.731 0.93168 0.73027 0.0
C579 C 0.74818 0.97042 0.72889 0.0
C580 C 0.77362 0.98517 0.69939 0.0
C581 C 0.7813 0.96113 0.67181 0.0
C582 C 0.76297 0.92219 0.67378 0.0
H583 H 0.83795 0.29256 0.29089 0.0
H584 H 0.87629 0.20941 0.36259 0.0
H585 H 0.84392 0.15997 0.31765 0.0
H586 H 0.73937 0.23441 0.26565 0.0
H587 H 0.73837 0.25171 0.21816 0.0
H588 H 0.76785 0.28157 0.25426 0.0
H589 H 0.83344 0.29152 0.21612 0.0
H590 H 0.80413 0.26169 0.17983 0.0
H591 H 0.84969 0.2512 0.20133 0.0
H592 H 0.80349 0.11873 0.26803 0.0
H593 H 0.75799 0.08827 0.21519 0.0
H594 H 0.74475 0.19731 0.17573 0.0
C595 C 0.83995 0.26404 0.29685 0.0
C596 C 0.86047 0.25508 0.32986 0.0
C597 C 0.86196 0.21727 0.33692 0.0
C598 C 0.84335 0.18885 0.31172 0.0
C599 C 0.82321 0.19857 0.27962 0.0
C600 C 0.8214 0.23518 0.27198 0.0
C601 C 0.79597 0.23755 0.23628 0.0
C602 C 0.75815 0.25217 0.24407 0.0
C603 C 0.8224 0.26194 0.20663 0.0
C604 C 0.78353 0.19652 0.22536 0.0
C605 C 0.79963 0.17456 0.25077 0.0
C606 C 0.79099 0.1356 0.24769 0.0
C607 C 0.76504 0.11856 0.21778 0.0
C608 C 0.74823 0.14053 0.19143 0.0
C609 C 0.75786 0.18 0.19517 0.0
H610 H 0.378 0.62537 0.30101 0.0
H611 H 0.44407 0.74048 0.32732 0.0
H612 H 0.47357 0.71761 0.38486 0.0
H613 H 0.34999 0.59964 0.39604 0.0
H614 H 0.35414 0.552 0.39165 0.0
H615 H 0.34047 0.57707 0.35114 0.0
H616 H 0.40151 0.56468 0.31654 0.0
H617 H 0.41538 0.53957 0.3569 0.0
H618 H 0.45284 0.57877 0.33776 0.0
H619 H 0.49697 0.68116 0.44078 0.0
H620 H 0.50927 0.63567 0.48935 0.0
H621 H 0.42184 0.54576 0.43031 0.0
C622 C 0.39804 0.64632 0.31877 0.0
C623 C 0.40818 0.68527 0.30854 0.0
C624 C 0.43592 0.71057 0.33317 0.0
C625 C 0.45271 0.69781 0.36647 0.0
C626 C 0.44131 0.65952 0.37568 0.0
C627 C 0.4143 0.63423 0.35258 0.0
C628 C 0.40571 0.59467 0.36938 0.0
C629 C 0.35985 0.57999 0.37753 0.0
C630 C 0.4197 0.56785 0.34361 0.0
C631 C 0.43235 0.60147 0.40546 0.0
C632 C 0.45295 0.63905 0.40847 0.0
C633 C 0.48049 0.65182 0.43877 0.0
C634 C 0.48716 0.62571 0.46645 0.0
C635 C 0.46599 0.5871 0.46435 0.0
C636 C 0.43807 0.5751 0.43329 0.0
H637 H 0.10927 0.36636 0.85009 0.0
H638 H 0.15126 0.46494 0.77928 0.0
H639 H 0.13236 0.50426 0.82622 0.0
H640 H 0.02074 0.39543 0.88487 0.0
H641 H 0.02595 0.37759 0.93172 0.0
H642 H 0.0429 0.35593 0.89289 0.0
H643 H 0.1153 0.36644 0.92543 0.0
H644 H 0.09865 0.38839 0.96423 0.0
H645 H 0.14299 0.41321 0.93935 0.0
H646 H 0.11026 0.53441 0.8798 0.0
H647 H 0.0827 0.55367 0.93593 0.0
H648 H 0.05176 0.43795 0.97632 0.0
C649 C 0.11431 0.39618 0.84436 0.0
C650 C 0.13284 0.41221 0.81053 0.0
C651 C 0.13845 0.45155 0.80479 0.0
C652 C 0.12748 0.47437 0.83143 0.0
C653 C 0.11034 0.45803 0.8644 0.0
C654 C 0.10337 0.41984 0.87112 0.0
C655 C 0.08383 0.41021 0.90926 0.0
C656 C 0.04079 0.38317 0.90439 0.0
C657 C 0.11186 0.39356 0.93616 0.0
C658 C 0.08106 0.4489 0.92263 0.0
C659 C 0.09677 0.47581 0.89594 0.0
C660 C 0.09777 0.51351 0.90078 0.0
C661 C 0.08183 0.5242 0.93313 0.0
C662 C 0.06463 0.49771 0.96124 0.0
C663 C 0.06483 0.45926 0.95589 0.0
H664 H 0.54 0.82892 0.87716 0.0
H665 H 0.62384 0.80557 0.96535 0.0
H666 H 0.59925 0.8453 1.00798 0.0
H667 H 0.56354 0.91929 0.88919 0.0
H668 H 0.51368 0.92862 0.88063 0.0
H669 H 0.52442 0.88804 0.86052 0.0
H670 H 0.46211 0.8439 0.89183 0.0
H671 H 0.44988 0.8845 0.91101 0.0
H672 H 0.45688 0.84666 0.94151 0.0
H673 H 0.58403 0.90061 1.03365 0.0
H674 H 0.56891 0.96141 1.04526 0.0
H675 H 0.4951 0.95209 0.94139 0.0
C676 C 0.55163 0.83077 0.90601 0.0
C677 C 0.58388 0.81418 0.91782 0.0
C678 C 0.59865 0.81734 0.95566 0.0
C679 C 0.58506 0.84022 0.98013 0.0
C680 C 0.55643 0.85936 0.96644 0.0
C681 C 0.53886 0.85412 0.93056 0.0
C682 C 0.51418 0.88267 0.92079 0.0
C683 C 0.52993 0.90602 0.88573 0.0
C684 C 0.46801 0.86327 0.91602 0.0
C685 C 0.52335 0.90648 0.95559 0.0
C686 C 0.54726 0.89208 0.98174 0.0
C687 C 0.56425 0.91151 1.014 0.0
C688 C 0.55615 0.94626 1.02 0.0
C689 C 0.53131 0.96117 0.99392 0.0
C690 C 0.51408 0.9409 0.96163 0.0
H691 H 0.90177 0.25369 0.46994 0.0
H692 H 1.00756 0.31382 0.40996 0.0
H693 H 0.04758 0.27039 0.43634 0.0
H694 H 0.95846 0.21839 0.55321 0.0
H695 H 0.92042 0.17386 0.55202 0.0
H696 H 0.90571 0.21648 0.53896 0.0
H697 H 0.87538 0.18616 0.47576 0.0
H698 H 0.89152 0.14419 0.48761 0.0
H699 H 0.90829 0.16992 0.44532 0.0
H700 H 0.07126 0.21366 0.45999 0.0
H701 H 0.07729 0.15029 0.48061 0.0
H702 H 0.95224 0.12439 0.51794 0.0
C703 C 0.93424 0.25916 0.46458 0.0
C704 C 0.95231 0.28774 0.43925 0.0
C705 C 0.99396 0.29285 0.43053 0.0
C706 C 0.01665 0.26808 0.4451 0.0
C707 C 0.99688 0.23826 0.46786 0.0
C708 C 0.95666 0.23401 0.47791 0.0
C709 C 0.93982 0.19637 0.49679 0.0
C710 C 0.93058 0.2016 0.53768 0.0
C711 C 0.90152 0.1728 0.47505 0.0
C712 C 0.97611 0.17946 0.49445 0.0
C713 C 1.00914 0.20425 0.47859 0.0
C714 C 0.04569 0.19418 0.47277 0.0
C715 C 0.04871 0.1581 0.48416 0.0
C716 C 0.01493 0.13234 0.50009 0.0
C717 C 0.97825 0.14324 0.50508 0.0
H718 H 0.3051 0.6844 0.15139 0.0
H719 H 0.2643 0.64501 0.2619 0.0
H720 H 0.19889 0.6075 0.23323 0.0
H721 H 0.2071 0.69611 0.11605 0.0
H722 H 0.21318 0.68172 0.06933 0.0
H723 H 0.25788 0.70339 0.09835 0.0
H724 H 0.28777 0.64602 0.08909 0.0
H725 H 0.243 0.62402 1.06024 0.0
H726 H 0.25766 0.59952 0.10078 0.0
H727 H 0.13634 0.57543 0.19244 0.0
H728 H 0.08118 0.55413 0.14367 0.0
H729 H 0.16094 0.6164 1.05976 0.0
C730 C 0.28245 0.66821 0.16984 0.0
C731 C 0.29055 0.6679 0.20925 0.0
C732 C 0.25977 0.6455 0.23176 0.0
C733 C 0.2222 0.62416 0.21568 0.0
C734 C 0.21536 0.62544 0.17692 0.0
C735 C 0.24458 0.6471 0.15431 0.0
C736 C 0.22897 0.64485 0.11356 0.0
C737 C 0.22664 0.68383 0.09844 0.0
C738 C 0.25596 0.62757 0.0895 0.0
C739 C 0.18625 0.61864 0.11672 0.0
C740 C 0.17917 0.60755 0.15351 0.0
C741 C 0.1417 0.5839 0.16358 0.0
C742 C 0.11052 0.5718 0.13558 0.0
C743 C 0.11662 0.58335 0.09776 0.0
C744 C 0.15533 0.60679 0.0883 0.0
H745 H 0.23384 0.46175 0.70616 0.0
H746 H 0.25423 0.34999 0.71931 0.0
H747 H 0.31807 0.3705 0.68566 0.0
H748 H 0.27102 0.48006 0.61372 0.0
H749 H 0.29708 0.52886 0.62085 0.0
H750 H 0.25337 0.50696 0.6479 0.0
H751 H 0.29718 0.52624 0.70909 0.0
H752 H 0.34099 0.54836 0.6822 0.0
H753 H 0.34502 0.51285 0.71676 0.0
H754 H 0.37647 0.39982 0.64797 0.0
H755 H 0.43017 0.43787 0.60972 0.0
H756 H 0.37802 0.5339 0.61953 0.0
C757 C 0.25215 0.44185 0.7024 0.0
C758 C 0.23836 0.40387 0.71522 0.0
C759 C 0.26335 0.37886 0.70941 0.0
C760 C 0.29995 0.39032 0.69038 0.0
C761 C 0.31207 0.42727 0.67731 0.0
C762 C 0.28943 0.45299 0.68323 0.0
C763 C 0.31012 0.4909 0.6652 0.0
C764 C 0.28116 0.50236 0.63513 0.0
C765 C 0.32416 0.5214 0.6951 0.0
C766 C 0.34718 0.48192 0.6477 0.0
C767 C 0.34726 0.44492 0.65542 0.0
C768 C 0.37689 0.4289 0.6419 0.0
C769 C 0.40731 0.45093 0.61982 0.0
C770 C 0.40867 0.4891 0.61103 0.0
C771 C 0.37818 0.50496 0.62568 0.0
H772 H 0.74554 0.79159 0.88364 0.0
H773 H 0.63994 0.69686 0.89824 0.0
H774 H 0.68672 0.65811 0.922 0.0
H775 H 0.81497 0.73917 0.85288 0.0
H776 H 0.85917 0.76855 0.87754 0.0
H777 H 0.81728 0.78792 0.86093 0.0
H778 H 0.80997 0.8096 0.92812 0.0
H779 H 0.85175 0.79021 0.94493 0.0
H780 H 0.80246 0.77561 0.96594 0.0
H781 H 0.74571 0.63022 0.94378 0.0
H782 H 0.81155 0.61553 0.96314 0.0
H783 H 0.87726 0.73012 0.93597 0.0
C784 C 0.73226 0.76248 0.89121 0.0
C785 C 0.68927 0.74688 0.88857 0.0
C786 C 0.6729 0.70911 0.8999 0.0
C787 C 0.69918 0.687 0.91331 0.0
C788 C 0.74152 0.70333 0.91543 0.0
C789 C 0.75787 0.74027 0.90477 0.0
C790 C 0.80422 0.75164 0.91064 0.0
C791 C 0.82513 0.76244 0.87327 0.0
C792 C 0.81788 0.78365 0.93911 0.0
C793 C 0.81156 0.71528 0.92627 0.0
C794 C 0.77513 0.68769 0.92872 0.0
C795 C 0.77439 0.65168 0.94217 0.0
C796 C 0.81192 0.64371 0.95336 0.0
C797 C 0.8496 0.67174 0.95125 0.0
C798 C 0.84913 0.70795 0.93755 0.0
H799 H 0.44085 0.81736 0.2465 0.0
H800 H 0.38562 0.75541 0.14688 0.0
H801 H 0.40714 0.81245 0.10892 0.0
H802 H 0.42006 0.90543 0.22319 0.0
H803 H 0.46954 0.93467 0.23859 0.0
H804 H 0.45038 0.88896 0.25969 0.0
H805 H 0.51635 0.86999 0.24302 0.0
H806 H 0.53594 0.91583 0.22225 0.0
H807 H 0.53166 0.87413 0.19523 0.0
H808 H 0.4263 0.8761 0.08199 0.0
H809 H 0.45539 0.9417 0.06416 0.0
H810 H 0.50882 0.96543 0.17681 0.0
C811 C 0.43381 0.81567 0.21665 0.0
C812 C 0.40961 0.78162 0.20033 0.0
C813 C 0.40207 0.78103 0.16086 0.0
C814 C 0.41453 0.81342 0.13872 0.0
C815 C 0.43624 0.84661 0.15573 0.0
C816 C 0.44726 0.84801 0.19347 0.0
C817 C 0.47282 0.88767 0.20346 0.0
C818 C 0.45194 0.90521 0.23299 0.0
C819 C 0.51681 0.88685 0.21679 0.0
C820 C 0.47277 0.90826 0.16574 0.0
C821 C 0.45102 0.88366 0.13894 0.0
C822 C 0.44427 0.89547 0.10249 0.0
C823 C 0.461 0.93313 0.09264 0.0
C824 C 0.4852 0.95909 0.11868 0.0
C825 C 0.49088 0.94638 0.15603 0.0
H826 H 0.16393 0.27983 0.69905 0.0
H827 H 0.0538 0.29825 0.74642 0.0
H828 H 0.01441 0.237 0.72224 0.0
H829 H 0.11088 0.23956 0.61255 0.0
H830 H 0.14246 0.20703 0.60814 0.0
H831 H 0.1633 0.25122 0.6314 0.0
H832 H 0.18235 0.21569 0.69011 0.0
H833 H 0.16133 0.1714 0.66709 0.0
H834 H 0.14292 0.17992 0.7117 0.0
H835 H 0.9859 0.17376 0.69254 0.0
H836 H 0.96896 0.11521 0.65719 0.0
H837 H 0.09497 0.13811 0.62223 0.0
C838 C 0.13142 0.27189 0.70413 0.0
C839 C 0.1127 0.29533 0.72529 0.0
C840 C 0.06999 0.28165 0.73143 0.0
C841 C 0.04695 0.24664 0.71733 0.0
C842 C 0.06637 0.2251 0.69635 0.0
C843 C 0.10757 0.23734 0.68937 0.0
C844 C 0.12042 0.20931 0.66441 0.0
C845 C 0.13514 0.22789 0.6269 0.0
C846 C 0.15374 0.19312 0.68454 0.0
C847 C 0.08002 0.17904 0.6588 0.0
C848 C 0.04948 0.18894 0.67782 0.0
C849 C 1.0096 0.16597 0.6775 0.0
C850 C 1.00034 0.13243 0.65716 0.0
C851 C 0.0304 0.12136 0.63659 0.0
C852 C 0.07113 0.14525 0.63763 0.0
H853 H 0.78098 0.30497 0.40544 0.0
H854 H 0.88503 0.39841 0.4348 0.0
H855 H 0.83713 0.43355 0.45749 0.0
H856 H 0.71258 0.36001 0.37148 0.0
H857 H 0.66755 0.32822 0.38978 0.0
H858 H 0.71017 0.31059 0.37665 0.0
H859 H 0.71503 0.28191 0.44311 0.0
H860 H 0.67234 0.29935 0.4564 0.0
H861 H 0.72056 0.3117 0.48335 0.0
H862 H 0.77704 0.45863 0.47554 0.0
H863 H 0.7102 0.47102 0.48896 0.0
H864 H 0.64664 0.36032 0.44779 0.0
C865 C 0.79375 0.333 0.41627 0.0
C866 C 0.83666 0.34924 0.41798 0.0
C867 C 0.8522 0.38553 0.43329 0.0
C868 C 0.82526 0.40568 0.44608 0.0
C869 C 0.78303 0.38894 0.44349 0.0
C870 C 0.76745 0.35334 0.42909 0.0
C871 C 0.72096 0.34144 0.42941 0.0
C872 C 0.7017 0.33468 0.38945 0.0
C873 C 0.70639 0.30654 0.45458 0.0
C874 C 0.71266 0.37597 0.44616 0.0
C875 C 0.74876 0.4031 0.45411 0.0
C876 C 0.74862 0.43748 0.46963 0.0
C877 C 0.71056 0.44417 0.47733 0.0
C878 C 0.67325 0.41656 0.46953 0.0
C879 C 0.67456 0.38211 0.45371 0.0
loop_
_geom_bond_atom_site_label_1
_geom_bond_atom_site_label_2
_geom_bond_distance
_geom_bond_site_symmetry_2
_ccdc_geom_bond_type
H0 C3 0.931 . S
H1 C6 0.928 . S
H2 C8 0.930 . S
C3 H0 0.931 . S
C3 C4 1.413 . S
C3 C5 1.360 . S
C4 C3 1.413 . S
C4 C8 1.429 . S
C5 C3 1.360 . S
C5 C6 1.372 . S
C6 H1 0.928 . S
C6 C5 1.372 . S
C6 C7 1.404 . S
C7 C6 1.404 . S
C7 C8 1.391 . S
C8 H2 0.930 . S
C8 C4 1.429 . S
C8 C7 1.391 . S
H9 C12 0.931 . S
H10 C15 0.928 . S
H11 C17 0.930 . S
C12 H9 0.931 . S
C12 C13 1.413 . S
C12 C14 1.360 . S
C13 C12 1.413 . S
C13 C17 1.429 . S
C14 C12 1.360 . S
C14 C15 1.372 . S
C15 H10 0.928 . S
C15 C14 1.372 . S
C15 C16 1.404 . S
C16 C15 1.404 . S
C16 C17 1.391 . S
C17 H11 0.930 . S
C17 C13 1.429 . S
C17 C16 1.391 . S
H18 C21 0.931 . S
H19 C24 0.928 . S
H20 C26 0.930 . S
C21 H18 0.931 . S
C21 C22 1.413 . S
C21 C23 1.360 . S
C22 C21 1.413 . S
C22 C26 1.429 . S
C23 C21 1.360 . S
C23 C24 1.372 . S
C24 H19 0.928 . S
C24 C23 1.372 . S
C24 C25 1.404 . S
C25 C24 1.404 . S
C25 C26 1.391 . S
C26 H20 0.930 . S
C26 C22 1.429 . S
C26 C25 1.391 . S
H27 C30 0.931 . S
H28 C33 0.928 . S
H29 C35 0.930 . S
C30 H27 0.931 . S
C30 C31 1.413 . S
C30 C32 1.360 . S
C31 C30 1.413 . S
C31 C35 1.429 . S
C32 C30 1.360 . S
C32 C33 1.372 . S
C33 H28 0.928 . S
C33 C32 1.372 . S
C33 C34 1.404 . S
C34 C33 1.404 . S
C34 C35 1.391 . S
C35 H29 0.930 . S
C35 C31 1.429 . S
C35 C34 1.391 . S
H36 C39 0.931 . S
H37 C42 0.928 . S
H38 C44 0.930 . S
C39 H36 0.931 . S
C39 C40 1.413 . S
C39 C41 1.360 . S
C40 C39 1.413 . S
C40 C44 1.429 . S
C41 C39 1.360 . S
C41 C42 1.372 . S
C42 H37 0.928 . S
C42 C41 1.372 . S
C42 C43 1.404 . S
C43 C42 1.404 . S
C43 C44 1.391 . S
C44 H38 0.930 . S
C44 C40 1.429 . S
C44 C43 1.391 . S
H45 C48 0.931 . S
H46 C51 0.928 . S
H47 C53 0.930 . S
C48 H45 0.931 . S
C48 C49 1.413 . S
C48 C50 1.360 . S
C49 C48 1.413 . S
C49 C53 1.429 . S
C50 C48 1.360 . S
C50 C51 1.372 . S
C51 H46 0.928 . S
C51 C50 1.372 . S
C51 C52 1.404 . S
C52 C51 1.404 . S
C52 C53 1.391 . S
C53 H47 0.930 . S
C53 C49 1.429 . S
C53 C52 1.391 . S
H54 C57 0.931 . S
H55 C60 0.928 . S
H56 C62 0.930 . S
C57 H54 0.931 . S
C57 C58 1.413 . S
C57 C59 1.360 . S
C58 C57 1.413 . S
C58 C62 1.429 . S
C59 C57 1.360 . S
C59 C60 1.372 . S
C60 H55 0.928 . S
C60 C59 1.372 . S
C60 C61 1.404 . S
C61 C60 1.404 . S
C61 C62 1.391 . S
C62 H56 0.930 . S
C62 C58 1.429 . S
C62 C61 1.391 . S
H63 C66 0.931 . S
H64 C69 0.928 . S
H65 C71 0.930 . S
C66 H63 0.931 . S
C66 C67 1.413 . S
C66 C68 1.360 . S
C67 C66 1.413 . S
C67 C71 1.429 . S
C68 C66 1.360 . S
C68 C69 1.372 . S
C69 H64 0.928 . S
C69 C68 1.372 . S
C69 C70 1.404 . S
C70 C69 1.404 . S
C70 C71 1.391 . S
C71 H65 0.930 . S
C71 C67 1.429 . S
C71 C70 1.391 . S
Tb72 C74 2.791 1_545 S
Tb72 O92 2.456 1_545 S
Tb72 O93 2.437 1_545 S
Tb72 O94 2.669 1_655 S
Tb72 O95 2.431 . S
Tb72 O96 2.359 1_645 S
Tb72 O100 2.302 1_545 S
Tb72 O103 2.362 . S
Tb73 C83 2.809 . S
Tb73 O94 2.325 . S
Tb73 O97 2.341 1_545 S
Tb73 O98 2.484 . S
Tb73 O99 2.440 . S
Tb73 O100 2.658 1_445 S
Tb73 O101 2.409 1_545 S
Tb73 O102 2.378 . S
C74 Tb72 2.791 1_565 S
C74 C75 1.514 . S
C74 O92 1.248 . S
C74 O93 1.266 . S
C75 C74 1.514 . S
C75 C76 1.359 . S
C75 C80 1.348 . S
C76 C75 1.359 . S
C76 C77 1.380 . S
C76 H104 0.929 . S
C77 C76 1.380 . S
C77 C78 1.347 . S
C77 H105 0.931 . S
C78 C77 1.347 . S
C78 C79 1.369 . S
C79 C78 1.369 . S
C79 C80 1.408 . S
C79 H106 0.930 . S
C80 C75 1.348 . S
C80 C79 1.408 . S
C80 H107 0.930 . S
C81 O94 1.281 . S
C81 O95 1.254 1_455 S
C82 O96 1.236 . S
C82 O97 1.266 . S
C83 Tb73 2.809 . S
C83 C84 1.514 . S
C83 O98 1.248 . S
C83 O99 1.266 . S
C84 C83 1.514 . S
C84 C85 1.359 . S
C84 C89 1.348 . S
C85 C84 1.359 . S
C85 C86 1.380 . S
C85 H108 0.929 . S
C86 C85 1.380 . S
C86 C87 1.347 . S
C86 H109 0.931 . S
C87 C86 1.347 . S
C87 C88 1.369 . S
C88 C87 1.369 . S
C88 C89 1.408 . S
C88 H110 0.930 . S
C89 C84 1.348 . S
C89 C88 1.408 . S
C89 H111 0.930 . S
C90 O100 1.281 . S
C90 O101 1.254 1_655 S
C91 O102 1.236 1_655 S
C91 O103 1.266 . S
O92 Tb72 2.456 1_565 S
O92 C74 1.248 . S
O93 Tb72 2.437 1_565 S
O93 C74 1.266 . S
O94 Tb72 2.669 1_455 S
O94 Tb73 2.325 . S
O94 C81 1.281 . S
O95 Tb72 2.431 . S
O95 C81 1.254 1_655 S
O96 Tb72 2.359 1_465 S
O96 C82 1.236 . S
O97 Tb73 2.341 1_565 S
O97 C82 1.266 . S
O98 Tb73 2.484 . S
O98 C83 1.248 . S
O99 Tb73 2.440 . S
O99 C83 1.266 . S
O100 Tb72 2.302 1_565 S
O100 Tb73 2.658 1_665 S
O100 C90 1.281 . S
O101 Tb73 2.409 1_565 S
O101 C90 1.254 1_455 S
O102 Tb73 2.378 . S
O102 C91 1.236 1_455 S
O103 Tb72 2.362 . S
O103 C91 1.266 . S
H104 C76 0.929 . S
H105 C77 0.931 . S
H106 C79 0.930 . S
H107 C80 0.930 . S
H108 C85 0.929 . S
H109 C86 0.931 . S
H110 C88 0.930 . S
H111 C89 0.930 . S
Tb112 C114 2.809 . S
Tb112 O132 2.484 . S
Tb112 O133 2.440 . S
Tb112 O134 2.658 1_545 S
Tb112 O135 2.409 1_545 S
Tb112 O136 2.378 . S
Tb112 O140 2.325 1_554 S
Tb112 O143 2.341 1_544 S
Tb113 C123 2.809 . S
Tb113 O134 2.325 1_556 S
Tb113 O137 2.341 1_566 S
Tb113 O138 2.484 . S
Tb113 O139 2.440 . S
Tb113 O140 2.658 1_565 S
Tb113 O141 2.409 1_565 S
Tb113 O142 2.378 . S
C114 Tb112 2.809 . S
C114 C115 1.514 . S
C114 O132 1.248 . S
C114 O133 1.266 . S
C115 C114 1.514 . S
C115 C116 1.359 . S
C115 C120 1.348 . S
C116 C115 1.359 . S
C116 C117 1.380 . S
C116 H144 0.929 . S
C117 C116 1.380 . S
C117 C118 1.347 . S
C117 H145 0.931 . S
C118 C117 1.347 . S
C118 C119 1.369 . S
C119 C118 1.369 . S
C119 C120 1.408 . S
C119 H146 0.930 . S
C120 C115 1.348 . S
C120 C119 1.408 . S
C120 H147 0.930 . S
C121 O134 1.281 . S
C121 O135 1.254 . S
C122 O136 1.236 . S
C122 O137 1.266 . S
C123 Tb113 2.809 . S
C123 C124 1.514 . S
C123 O138 1.248 . S
C123 O139 1.266 . S
C124 C123 1.514 . S
C124 C125 1.359 . S
C124 C129 1.348 . S
C125 C124 1.359 . S
C125 C126 1.380 . S
C125 H148 0.929 . S
C126 C125 1.380 . S
C126 C127 1.347 . S
C126 H149 0.931 . S
C127 C126 1.347 . S
C127 C128 1.369 . S
C128 C127 1.369 . S
C128 C129 1.408 . S
C128 H150 0.930 . S
C129 C124 1.348 . S
C129 C128 1.408 . S
C129 H151 0.930 . S
C130 O140 1.281 . S
C130 O141 1.254 . S
C131 O142 1.236 . S
C131 O143 1.266 . S
O132 Tb112 2.484 . S
O132 C114 1.248 . S
O133 Tb112 2.440 . S
O133 C114 1.266 . S
O134 Tb112 2.658 1_565 S
O134 Tb113 2.325 1_554 S
O134 C121 1.281 . S
O135 Tb112 2.409 1_565 S
O135 C121 1.254 . S
O136 Tb112 2.378 . S
O136 C122 1.236 . S
O137 Tb113 2.341 1_544 S
O137 C122 1.266 . S
O138 Tb113 2.484 . S
O138 C123 1.248 . S
O139 Tb113 2.440 . S
O139 C123 1.266 . S
O140 Tb112 2.325 1_556 S
O140 Tb113 2.658 1_545 S
O140 C130 1.281 . S
O141 Tb113 2.409 1_545 S
O141 C130 1.254 . S
O142 Tb113 2.378 . S
O142 C131 1.236 . S
O143 Tb112 2.341 1_566 S
O143 C131 1.266 . S
H144 C116 0.929 . S
H145 C117 0.931 . S
H146 C119 0.930 . S
H147 C120 0.930 . S
H148 C125 0.929 . S
H149 C126 0.931 . S
H150 C128 0.930 . S
H151 C129 0.930 . S
Tb152 C154 2.809 . S
Tb152 O172 2.484 . S
Tb152 O173 2.440 . S
Tb152 O174 2.658 . S
Tb152 O175 2.409 . S
Tb152 O176 2.378 . S
Tb152 O180 2.325 . S
Tb152 O183 2.341 . S
Tb153 C163 2.809 . S
Tb153 O174 2.325 . S
Tb153 O177 2.341 . S
Tb153 O178 2.484 . S
Tb153 O179 2.440 . S
Tb153 O180 2.658 . S
Tb153 O181 2.409 . S
Tb153 O182 2.378 . S
C154 Tb152 2.809 . S
C154 C155 1.514 . S
C154 O172 1.248 . S
C154 O173 1.266 . S
C155 C154 1.514 . S
C155 C156 1.359 . S
C155 C160 1.348 . S
C156 C155 1.359 . S
C156 C157 1.380 . S
C156 H184 0.929 . S
C157 C156 1.380 . S
C157 C158 1.347 . S
C157 H185 0.931 . S
C158 C157 1.347 . S
C158 C159 1.369 . S
C159 C158 1.369 . S
C159 C160 1.408 . S
C159 H186 0.930 . S
C160 C155 1.348 . S
C160 C159 1.408 . S
C160 H187 0.930 . S
C161 O174 1.281 . S
C161 O175 1.254 . S
C162 O176 1.236 . S
C162 O177 1.266 . S
C163 Tb153 2.809 . S
C163 C164 1.514 . S
C163 O178 1.248 . S
C163 O179 1.266 . S
C164 C163 1.514 . S
C164 C165 1.359 . S
C164 C169 1.348 . S
C165 C164 1.359 . S
C165 C166 1.380 . S
C165 H188 0.929 . S
C166 C165 1.380 . S
C166 C167 1.347 . S
C166 H189 0.931 . S
C167 C166 1.347 . S
C167 C168 1.369 . S
C168 C167 1.369 . S
C168 C169 1.408 . S
C168 H190 0.930 . S
C169 C164 1.348 . S
C169 C168 1.408 . S
C169 H191 0.930 . S
C170 O180 1.281 . S
C170 O181 1.254 . S
C171 O182 1.236 . S
C171 O183 1.266 . S
O172 Tb152 2.484 . S
O172 C154 1.248 . S
O173 Tb152 2.440 . S
O173 C154 1.266 . S
O174 Tb152 2.658 . S
O174 Tb153 2.325 . S
O174 C161 1.281 . S
O175 Tb152 2.409 . S
O175 C161 1.254 . S
O176 Tb152 2.378 . S
O176 C162 1.236 . S
O177 Tb153 2.341 . S
O177 C162 1.266 . S
O178 Tb153 2.484 . S
O178 C163 1.248 . S
O179 Tb153 2.440 . S
O179 C163 1.266 . S
O180 Tb152 2.325 . S
O180 Tb153 2.658 . S
O180 C170 1.281 . S
O181 Tb153 2.409 . S
O181 C170 1.254 . S
O182 Tb153 2.378 . S
O182 C171 1.236 . S
O183 Tb152 2.341 . S
O183 C171 1.266 . S
H184 C156 0.929 . S
H185 C157 0.931 . S
H186 C159 0.930 . S
H187 C160 0.930 . S
H188 C165 0.929 . S
H189 C166 0.931 . S
H190 C168 0.930 . S
H191 C169 0.930 . S
Tb192 C194 2.809 . S
Tb192 O212 2.484 . S
Tb192 O213 2.440 . S
Tb192 O214 2.658 1_656 S
Tb192 O215 2.409 1_656 S
Tb192 O216 2.378 1_556 S
Tb192 O220 2.325 . S
Tb192 O223 2.341 1_655 S
Tb193 C203 2.809 . S
Tb193 O214 2.325 . S
Tb193 O217 2.341 1_455 S
Tb193 O218 2.484 . S
Tb193 O219 2.440 . S
Tb193 O220 2.658 1_454 S
Tb193 O221 2.409 1_455 S
Tb193 O222 2.378 1_554 S
C194 Tb192 2.809 . S
C194 C195 1.514 . S
C194 O212 1.248 . S
C194 O213 1.266 . S
C195 C194 1.514 . S
C195 C196 1.359 . S
C195 C200 1.348 . S
C196 C195 1.359 . S
C196 C197 1.380 . S
C196 H224 0.929 . S
C197 C196 1.380 . S
C197 C198 1.347 . S
C197 H225 0.931 . S
C198 C197 1.347 . S
C198 C199 1.369 . S
C199 C198 1.369 . S
C199 C200 1.408 . S
C199 H226 0.930 . S
C200 C195 1.348 . S
C200 C199 1.408 . S
C200 H227 0.930 . S
C201 O214 1.281 . S
C201 O215 1.254 . S
C202 O216 1.236 . S
C202 O217 1.266 . S
C203 Tb193 2.809 . S
C203 C204 1.514 . S
C203 O218 1.248 . S
C203 O219 1.266 . S
C204 C203 1.514 . S
C204 C205 1.359 . S
C204 C209 1.348 . S
C205 C204 1.359 . S
C205 C206 1.380 . S
C205 H228 0.929 . S
C206 C205 1.380 . S
C206 C207 1.347 . S
C206 H229 0.931 . S
C207 C206 1.347 . S
C207 C208 1.369 . S
C208 C207 1.369 . S
C208 C209 1.408 . S
C208 H230 0.930 . S
C209 C204 1.348 . S
C209 C208 1.408 . S
C209 H231 0.930 . S
C210 O220 1.281 . S
C210 O221 1.254 1_556 S
C211 O222 1.236 . S
C211 O223 1.266 . S
O212 Tb192 2.484 . S
O212 C194 1.248 . S
O213 Tb192 2.440 . S
O213 C194 1.266 . S
O214 Tb192 2.658 1_454 S
O214 Tb193 2.325 . S
O214 C201 1.281 . S
O215 Tb192 2.409 1_454 S
O215 C201 1.254 . S
O216 Tb192 2.378 1_554 S
O216 C202 1.236 . S
O217 Tb193 2.341 1_655 S
O217 C202 1.266 . S
O218 Tb193 2.484 . S
O218 C203 1.248 . S
O219 Tb193 2.440 . S
O219 C203 1.266 . S
O220 Tb192 2.325 . S
O220 Tb193 2.658 1_656 S
O220 C210 1.281 . S
O221 Tb193 2.409 1_655 S
O221 C210 1.254 1_554 S
O222 Tb193 2.378 1_556 S
O222 C211 1.236 . S
O223 Tb192 2.341 1_455 S
O223 C211 1.266 . S
H224 C196 0.929 . S
H225 C197 0.931 . S
H226 C199 0.930 . S
H227 C200 0.930 . S
H228 C205 0.929 . S
H229 C206 0.931 . S
H230 C208 0.930 . S
H231 C209 0.930 . S
H232 C244 0.930 . S
H233 C246 0.930 . S
H234 C247 0.930 . S
H235 C251 0.959 . S
H236 C251 0.959 . S
H237 C251 0.961 . S
H238 C252 0.960 . S
H239 C252 0.961 . S
H240 C252 0.959 . S
H241 C255 0.929 . S
H242 C256 0.931 . S
H243 C258 0.930 . S
C244 H232 0.930 . S
C244 C245 1.399 . S
C244 C249 1.399 . S
C245 C244 1.399 . S
C245 C246 1.376 . S
C246 H233 0.930 . S
C246 C245 1.376 . S
C246 C247 1.388 . S
C247 H234 0.930 . S
C247 C246 1.388 . S
C247 C248 1.390 . S
C248 C247 1.390 . S
C248 C249 1.394 . S
C248 C254 1.465 . S
C249 C244 1.399 . S
C249 C248 1.394 . S
C249 C250 1.516 . S
C250 C249 1.516 . S
C250 C251 1.502 . S
C250 C252 1.561 . S
C250 C253 1.526 . S
C251 H235 0.959 . S
C251 H236 0.959 . S
C251 H237 0.961 . S
C251 C250 1.502 . S
C252 H238 0.960 . S
C252 H239 0.961 . S
C252 H240 0.959 . S
C252 C250 1.561 . S
C253 C250 1.526 . S
C253 C254 1.396 . S
C253 C258 1.390 . S
C254 C248 1.465 . S
C254 C253 1.396 . S
C254 C255 1.399 . S
C255 H241 0.929 . S
C255 C254 1.399 . S
C255 C256 1.385 . S
C256 H242 0.931 . S
C256 C255 1.385 . S
C256 C257 1.389 . S
C257 C256 1.389 . S
C257 C258 1.387 . S
C258 H243 0.930 . S
C258 C253 1.390 . S
C258 C257 1.387 . S
H259 C271 0.930 . S
H260 C273 0.930 . S
H261 C274 0.930 . S
H262 C278 0.959 . S
H263 C278 0.959 . S
H264 C278 0.961 . S
H265 C279 0.960 . S
H266 C279 0.961 . S
H267 C279 0.959 . S
H268 C282 0.929 . S
H269 C283 0.931 . S
H270 C285 0.930 . S
C271 H259 0.930 . S
C271 C272 1.399 . S
C271 C276 1.399 . S
C272 C271 1.399 . S
C272 C273 1.376 . S
C273 H260 0.930 . S
C273 C272 1.376 . S
C273 C274 1.388 . S
C274 H261 0.930 . S
C274 C273 1.388 . S
C274 C275 1.390 . S
C275 C274 1.390 . S
C275 C276 1.394 . S
C275 C281 1.465 . S
C276 C271 1.399 . S
C276 C275 1.394 . S
C276 C277 1.516 . S
C277 C276 1.516 . S
C277 C278 1.502 . S
C277 C279 1.561 . S
C277 C280 1.526 . S
C278 H262 0.959 . S
C278 H263 0.959 . S
C278 H264 0.961 . S
C278 C277 1.502 . S
C279 H265 0.960 . S
C279 H266 0.961 . S
C279 H267 0.959 . S
C279 C277 1.561 . S
C280 C277 1.526 . S
C280 C281 1.396 . S
C280 C285 1.390 . S
C281 C275 1.465 . S
C281 C280 1.396 . S
C281 C282 1.399 . S
C282 H268 0.929 . S
C282 C281 1.399 . S
C282 C283 1.385 . S
C283 H269 0.931 . S
C283 C282 1.385 . S
C283 C284 1.389 . S
C284 C283 1.389 . S
C284 C285 1.387 . S
C285 H270 0.930 . S
C285 C280 1.390 . S
C285 C284 1.387 . S
H286 C298 0.930 . S
H287 C300 0.930 . S
H288 C301 0.930 . S
H289 C305 0.959 . S
H290 C305 0.959 . S
H291 C305 0.961 . S
H292 C306 0.960 . S
H293 C306 0.961 . S
H294 C306 0.959 . S
H295 C309 0.929 . S
H296 C310 0.931 . S
H297 C312 0.930 . S
C298 H286 0.930 . S
C298 C299 1.399 . S
C298 C303 1.399 . S
C299 C298 1.399 . S
C299 C300 1.376 . S
C300 H287 0.930 . S
C300 C299 1.376 . S
C300 C301 1.388 . S
C301 H288 0.930 . S
C301 C300 1.388 . S
C301 C302 1.390 . S
C302 C301 1.390 . S
C302 C303 1.394 . S
C302 C308 1.465 . S
C303 C298 1.399 . S
C303 C302 1.394 . S
C303 C304 1.516 . S
C304 C303 1.516 . S
C304 C305 1.502 . S
C304 C306 1.561 . S
C304 C307 1.526 . S
C305 H289 0.959 . S
C305 H290 0.959 . S
C305 H291 0.961 . S
C305 C304 1.502 . S
C306 H292 0.960 . S
C306 H293 0.961 . S
C306 H294 0.959 . S
C306 C304 1.561 . S
C307 C304 1.526 . S
C307 C308 1.396 . S
C307 C312 1.390 . S
C308 C302 1.465 . S
C308 C307 1.396 . S
C308 C309 1.399 . S
C309 H295 0.929 . S
C309 C308 1.399 . S
C309 C310 1.385 . S
C310 H296 0.931 . S
C310 C309 1.385 . S
C310 C311 1.389 . S
C311 C310 1.389 . S
C311 C312 1.387 . S
C312 H297 0.930 . S
C312 C307 1.390 . S
C312 C311 1.387 . S
H313 C325 0.930 . S
H314 C327 0.930 . S
H315 C328 0.930 . S
H316 C332 0.959 . S
H317 C332 0.959 . S
H318 C332 0.961 . S
H319 C333 0.960 . S
H320 C333 0.961 . S
H321 C333 0.959 . S
H322 C336 0.929 . S
H323 C337 0.931 . S
H324 C339 0.930 . S
C325 H313 0.930 . S
C325 C326 1.399 . S
C325 C330 1.399 . S
C326 C325 1.399 . S
C326 C327 1.376 . S
C327 H314 0.930 . S
C327 C326 1.376 . S
C327 C328 1.388 . S
C328 H315 0.930 . S
C328 C327 1.388 . S
C328 C329 1.390 . S
C329 C328 1.390 . S
C329 C330 1.394 . S
C329 C335 1.465 . S
C330 C325 1.399 . S
C330 C329 1.394 . S
C330 C331 1.516 . S
C331 C330 1.516 . S
C331 C332 1.502 . S
C331 C333 1.561 . S
C331 C334 1.526 . S
C332 H316 0.959 . S
C332 H317 0.959 . S
C332 H318 0.961 . S
C332 C331 1.502 . S
C333 H319 0.960 . S
C333 H320 0.961 . S
C333 H321 0.959 . S
C333 C331 1.561 . S
C334 C331 1.526 . S
C334 C335 1.396 . S
C334 C339 1.390 . S
C335 C329 1.465 . S
C335 C334 1.396 . S
C335 C336 1.399 . S
C336 H322 0.929 . S
C336 C335 1.399 . S
C336 C337 1.385 . S
C337 H323 0.931 . S
C337 C336 1.385 . S
C337 C338 1.389 . S
C338 C337 1.389 . S
C338 C339 1.387 . S
C339 H324 0.930 . S
C339 C334 1.390 . S
C339 C338 1.387 . S
H340 C352 0.930 . S
H341 C354 0.930 . S
H342 C355 0.930 . S
H343 C359 0.959 . S
H344 C359 0.959 . S
H345 C359 0.961 . S
H346 C360 0.960 . S
H347 C360 0.961 . S
H348 C360 0.959 . S
H349 C363 0.929 . S
H350 C364 0.931 . S
H351 C366 0.930 . S
C352 H340 0.930 . S
C352 C353 1.399 . S
C352 C357 1.399 . S
C353 C352 1.399 . S
C353 C354 1.376 . S
C354 H341 0.930 . S
C354 C353 1.376 . S
C354 C355 1.388 . S
C355 H342 0.930 . S
C355 C354 1.388 . S
C355 C356 1.390 . S
C356 C355 1.390 . S
C356 C357 1.394 . S
C356 C362 1.465 . S
C357 C352 1.399 . S
C357 C356 1.394 . S
C357 C358 1.516 . S
C358 C357 1.516 . S
C358 C359 1.502 . S
C358 C360 1.561 . S
C358 C361 1.526 . S
C359 H343 0.959 . S
C359 H344 0.959 . S
C359 H345 0.961 . S
C359 C358 1.502 . S
C360 H346 0.960 . S
C360 H347 0.961 . S
C360 H348 0.959 . S
C360 C358 1.561 . S
C361 C358 1.526 . S
C361 C362 1.396 . S
C361 C366 1.390 . S
C362 C356 1.465 . S
C362 C361 1.396 . S
C362 C363 1.399 . S
C363 H349 0.929 . S
C363 C362 1.399 . S
C363 C364 1.385 . S
C364 H350 0.931 . S
C364 C363 1.385 . S
C364 C365 1.389 . S
C365 C364 1.389 . S
C365 C366 1.387 . S
C366 H351 0.930 . S
C366 C361 1.390 . S
C366 C365 1.387 . S
H367 C379 0.930 . S
H368 C381 0.930 . S
H369 C382 0.930 . S
H370 C386 0.959 . S
H371 C386 0.959 . S
H372 C386 0.961 . S
H373 C387 0.960 . S
H374 C387 0.961 . S
H375 C387 0.959 . S
H376 C390 0.929 . S
H377 C391 0.931 . S
H378 C393 0.930 . S
C379 H367 0.930 . S
C379 C380 1.399 . S
C379 C384 1.399 . S
C380 C379 1.399 . S
C380 C381 1.376 . S
C381 H368 0.930 . S
C381 C380 1.376 . S
C381 C382 1.388 . S
C382 H369 0.930 . S
C382 C381 1.388 . S
C382 C383 1.390 . S
C383 C382 1.390 . S
C383 C384 1.394 . S
C383 C389 1.465 . S
C384 C379 1.399 . S
C384 C383 1.394 . S
C384 C385 1.516 . S
C385 C384 1.516 . S
C385 C386 1.502 . S
C385 C387 1.561 . S
C385 C388 1.526 . S
C386 H370 0.959 . S
C386 H371 0.959 . S
C386 H372 0.961 . S
C386 C385 1.502 . S
C387 H373 0.960 . S
C387 H374 0.961 . S
C387 H375 0.959 . S
C387 C385 1.561 . S
C388 C385 1.526 . S
C388 C389 1.396 . S
C388 C393 1.390 . S
C389 C383 1.465 . S
C389 C388 1.396 . S
C389 C390 1.399 . S
C390 H376 0.929 . S
C390 C389 1.399 . S
C390 C391 1.385 . S
C391 H377 0.931 . S
C391 C390 1.385 . S
C391 C392 1.389 . S
C392 C391 1.389 . S
C392 C393 1.387 . S
C393 H378 0.930 . S
C393 C388 1.390 . S
C393 C392 1.387 . S
H394 C406 0.930 . S
H395 C408 0.930 . S
H396 C409 0.930 . S
H397 C413 0.959 . S
H398 C413 0.959 . S
H399 C413 0.961 . S
H400 C414 0.960 . S
H401 C414 0.961 . S
H402 C414 0.959 . S
H403 C417 0.929 . S
H404 C418 0.931 . S
H405 C420 0.930 . S
C406 H394 0.930 . S
C406 C407 1.399 . S
C406 C411 1.399 . S
C407 C406 1.399 . S
C407 C408 1.376 . S
C408 H395 0.930 . S
C408 C407 1.376 . S
C408 C409 1.388 . S
C409 H396 0.930 . S
C409 C408 1.388 . S
C409 C410 1.390 . S
C410 C409 1.390 . S
C410 C411 1.394 . S
C410 C416 1.465 . S
C411 C406 1.399 . S
C411 C410 1.394 . S
C411 C412 1.516 . S
C412 C411 1.516 . S
C412 C413 1.502 . S
C412 C414 1.561 . S
C412 C415 1.526 . S
C413 H397 0.959 . S
C413 H398 0.959 . S
C413 H399 0.961 . S
C413 C412 1.502 . S
C414 H400 0.960 . S
C414 H401 0.961 . S
C414 H402 0.959 . S
C414 C412 1.561 . S
C415 C412 1.526 . S
C415 C416 1.396 . S
C415 C420 1.390 . S
C416 C410 1.465 . S
C416 C415 1.396 . S
C416 C417 1.399 . S
C417 H403 0.929 . S
C417 C416 1.399 . S
C417 C418 1.385 . S
C418 H404 0.931 . S
C418 C417 1.385 . S
C418 C419 1.389 . S
C419 C418 1.389 . S
C419 C420 1.387 . S
C420 H405 0.930 . S
C420 C415 1.390 . S
C420 C419 1.387 . S
H421 C433 0.930 . S
H422 C435 0.930 . S
H423 C436 0.930 . S
H424 C440 0.959 . S
H425 C440 0.959 . S
H426 C440 0.961 . S
H427 C441 0.960 . S
H428 C441 0.961 . S
H429 C441 0.959 . S
H430 C444 0.929 . S
H431 C445 0.931 . S
H432 C447 0.930 . S
C433 H421 0.930 . S
C433 C434 1.399 . S
C433 C438 1.399 . S
C434 C433 1.399 . S
C434 C435 1.376 . S
C435 H422 0.930 . S
C435 C434 1.376 . S
C435 C436 1.388 . S
C436 H423 0.930 . S
C436 C435 1.388 . S
C436 C437 1.390 . S
C437 C436 1.390 . S
C437 C438 1.394 . S
C437 C443 1.465 . S
C438 C433 1.399 . S
C438 C437 1.394 . S
C438 C439 1.516 . S
C439 C438 1.516 . S
C439 C440 1.502 . S
C439 C441 1.561 . S
C439 C442 1.526 . S
C440 H424 0.959 . S
C440 H425 0.959 . S
C440 H426 0.961 . S
C440 C439 1.502 . S
C441 H427 0.960 . S
C441 H428 0.961 . S
C441 H429 0.959 . S
C441 C439 1.561 . S
C442 C439 1.526 . S
C442 C443 1.396 . S
C442 C447 1.390 . S
C443 C437 1.465 . S
C443 C442 1.396 . S
C443 C444 1.399 . S
C444 H430 0.929 . S
C444 C443 1.399 . S
C444 C445 1.385 . S
C445 H431 0.931 . S
C445 C444 1.385 . S
C445 C446 1.389 . S
C446 C445 1.389 . S
C446 C447 1.387 . S
C447 H432 0.930 . S
C447 C442 1.390 . S
C447 C446 1.387 . S
H448 C460 0.930 . S
H449 C462 0.930 . S
H450 C463 0.930 . S
H451 C467 0.959 . S
H452 C467 0.959 . S
H453 C467 0.961 . S
H454 C468 0.960 . S
H455 C468 0.961 . S
H456 C468 0.959 . S
H457 C471 0.929 . S
H458 C472 0.931 . S
H459 C474 0.930 . S
C460 H448 0.930 . S
C460 C461 1.399 . S
C460 C465 1.399 . S
C461 C460 1.399 . S
C461 C462 1.376 . S
C462 H449 0.930 . S
C462 C461 1.376 . S
C462 C463 1.388 . S
C463 H450 0.930 . S
C463 C462 1.388 . S
C463 C464 1.390 . S
C464 C463 1.390 . S
C464 C465 1.394 . S
C464 C470 1.465 . S
C465 C460 1.399 . S
C465 C464 1.394 . S
C465 C466 1.516 . S
C466 C465 1.516 . S
C466 C467 1.502 . S
C466 C468 1.561 . S
C466 C469 1.526 . S
C467 H451 0.959 . S
C467 H452 0.959 . S
C467 H453 0.961 . S
C467 C466 1.502 . S
C468 H454 0.960 . S
C468 H455 0.961 . S
C468 H456 0.959 . S
C468 C466 1.561 . S
C469 C466 1.526 . S
C469 C470 1.396 . S
C469 C474 1.390 . S
C470 C464 1.465 . S
C470 C469 1.396 . S
C470 C471 1.399 . S
C471 H457 0.929 . S
C471 C470 1.399 . S
C471 C472 1.385 . S
C472 H458 0.931 . S
C472 C471 1.385 . S
C472 C473 1.389 . S
C473 C472 1.389 . S
C473 C474 1.387 . S
C474 H459 0.930 . S
C474 C469 1.390 . S
C474 C473 1.387 . S
H475 C487 0.930 . S
H476 C489 0.930 . S
H477 C490 0.930 . S
H478 C494 0.959 . S
H479 C494 0.959 . S
H480 C494 0.961 . S
H481 C495 0.960 . S
H482 C495 0.961 . S
H483 C495 0.959 . S
H484 C498 0.929 . S
H485 C499 0.931 . S
H486 C501 0.930 . S
C487 H475 0.930 . S
C487 C488 1.399 . S
C487 C492 1.399 . S
C488 C487 1.399 . S
C488 C489 1.376 . S
C489 H476 0.930 . S
C489 C488 1.376 . S
C489 C490 1.388 . S
C490 H477 0.930 . S
C490 C489 1.388 . S
C490 C491 1.390 . S
C491 C490 1.390 . S
C491 C492 1.394 . S
C491 C497 1.465 . S
C492 C487 1.399 . S
C492 C491 1.394 . S
C492 C493 1.516 . S
C493 C492 1.516 . S
C493 C494 1.502 . S
C493 C495 1.561 . S
C493 C496 1.526 . S
C494 H478 0.959 . S
C494 H479 0.959 . S
C494 H480 0.961 . S
C494 C493 1.502 . S
C495 H481 0.960 . S
C495 H482 0.961 . S
C495 H483 0.959 . S
C495 C493 1.561 . S
C496 C493 1.526 . S
C496 C497 1.396 . S
C496 C501 1.390 . S
C497 C491 1.465 . S
C497 C496 1.396 . S
C497 C498 1.399 . S
C498 H484 0.929 . S
C498 C497 1.399 . S
C498 C499 1.385 . S
C499 H485 0.931 . S
C499 C498 1.385 . S
C499 C500 1.389 . S
C500 C499 1.389 . S
C500 C501 1.387 . S
C501 H486 0.930 . S
C501 C496 1.390 . S
C501 C500 1.387 . S
H502 C514 0.930 . S
H503 C516 0.930 . S
H504 C517 0.930 . S
H505 C521 0.959 . S
H506 C521 0.959 . S
H507 C521 0.961 . S
H508 C522 0.960 . S
H509 C522 0.961 . S
H510 C522 0.959 . S
H511 C525 0.929 . S
H512 C526 0.931 . S
H513 C528 0.930 . S
C514 H502 0.930 . S
C514 C515 1.399 . S
C514 C519 1.399 . S
C515 C514 1.399 . S
C515 C516 1.376 . S
C516 H503 0.930 . S
C516 C515 1.376 . S
C516 C517 1.388 . S
C517 H504 0.930 . S
C517 C516 1.388 . S
C517 C518 1.390 . S
C518 C517 1.390 . S
C518 C519 1.394 . S
C518 C524 1.465 . S
C519 C514 1.399 . S
C519 C518 1.394 . S
C519 C520 1.516 . S
C520 C519 1.516 . S
C520 C521 1.502 . S
C520 C522 1.561 . S
C520 C523 1.526 . S
C521 H505 0.959 . S
C521 H506 0.959 . S
C521 H507 0.961 . S
C521 C520 1.502 . S
C522 H508 0.960 . S
C522 H509 0.961 . S
C522 H510 0.959 . S
C522 C520 1.561 . S
C523 C520 1.526 . S
C523 C524 1.396 . S
C523 C528 1.390 . S
C524 C518 1.465 . S
C524 C523 1.396 . S
C524 C525 1.399 . S
C525 H511 0.929 . S
C525 C524 1.399 . S
C525 C526 1.385 . S
C526 H512 0.931 . S
C526 C525 1.385 . S
C526 C527 1.389 . S
C527 C526 1.389 . S
C527 C528 1.387 . S
C528 H513 0.930 . S
C528 C523 1.390 . S
C528 C527 1.387 . S
H529 C541 0.930 . S
H530 C543 0.930 . S
H531 C544 0.930 . S
H532 C548 0.959 . S
H533 C548 0.959 . S
H534 C548 0.961 . S
H535 C549 0.960 . S
H536 C549 0.961 . S
H537 C549 0.959 . S
H538 C552 0.929 . S
H539 C553 0.931 . S
H540 C555 0.930 . S
C541 H529 0.930 . S
C541 C542 1.399 . S
C541 C546 1.399 . S
C542 C541 1.399 . S
C542 C543 1.376 . S
C543 H530 0.930 . S
C543 C542 1.376 . S
C543 C544 1.388 . S
C544 H531 0.930 . S
C544 C543 1.388 . S
C544 C545 1.390 . S
C545 C544 1.390 . S
C545 C546 1.394 . S
C545 C551 1.465 . S
C546 C541 1.399 . S
C546 C545 1.394 . S
C546 C547 1.516 . S
C547 C546 1.516 . S
C547 C548 1.502 . S
C547 C549 1.561 . S
C547 C550 1.526 . S
C548 H532 0.959 . S
C548 H533 0.959 . S
C548 H534 0.961 . S
C548 C547 1.502 . S
C549 H535 0.960 . S
C549 H536 0.961 . S
C549 H537 0.959 . S
C549 C547 1.561 . S
C550 C547 1.526 . S
C550 C551 1.396 . S
C550 C555 1.390 . S
C551 C545 1.465 . S
C551 C550 1.396 . S
C551 C552 1.399 . S
C552 H538 0.929 . S
C552 C551 1.399 . S
C552 C553 1.385 . S
C553 H539 0.931 . S
C553 C552 1.385 . S
C553 C554 1.389 . S
C554 C553 1.389 . S
C554 C555 1.387 . S
C555 H540 0.930 . S
C555 C550 1.390 . S
C555 C554 1.387 . S
H556 C568 0.930 . S
H557 C570 0.930 . S
H558 C571 0.930 . S
H559 C575 0.959 . S
H560 C575 0.959 . S
H561 C575 0.961 . S
H562 C576 0.960 . S
H563 C576 0.961 . S
H564 C576 0.959 . S
H565 C579 0.929 . S
H566 C580 0.931 . S
H567 C582 0.930 . S
C568 H556 0.930 . S
C568 C569 1.399 . S
C568 C573 1.399 . S
C569 C568 1.399 . S
C569 C570 1.376 . S
C570 H557 0.930 . S
C570 C569 1.376 . S
C570 C571 1.388 . S
C571 H558 0.930 . S
C571 C570 1.388 . S
C571 C572 1.390 . S
C572 C571 1.390 . S
C572 C573 1.394 . S
C572 C578 1.465 . S
C573 C568 1.399 . S
C573 C572 1.394 . S
C573 C574 1.516 . S
C574 C573 1.516 . S
C574 C575 1.502 . S
C574 C576 1.561 . S
C574 C577 1.526 . S
C575 H559 0.959 . S
C575 H560 0.959 . S
C575 H561 0.961 . S
C575 C574 1.502 . S
C576 H562 0.960 . S
C576 H563 0.961 . S
C576 H564 0.959 . S
C576 C574 1.561 . S
C577 C574 1.526 . S
C577 C578 1.396 . S
C577 C582 1.390 . S
C578 C572 1.465 . S
C578 C577 1.396 . S
C578 C579 1.399 . S
C579 H565 0.929 . S
C579 C578 1.399 . S
C579 C580 1.385 . S
C580 H566 0.931 . S
C580 C579 1.385 . S
C580 C581 1.389 . S
C581 C580 1.389 . S
C581 C582 1.387 . S
C582 H567 0.930 . S
C582 C577 1.390 . S
C582 C581 1.387 . S
H583 C595 0.930 . S
H584 C597 0.930 . S
H585 C598 0.930 . S
H586 C602 0.959 . S
H587 C602 0.959 . S
H588 C602 0.961 . S
H589 C603 0.960 . S
H590 C603 0.961 . S
H591 C603 0.959 . S
H592 C606 0.929 . S
H593 C607 0.931 . S
H594 C609 0.930 . S
C595 H583 0.930 . S
C595 C596 1.399 . S
C595 C600 1.399 . S
C596 C595 1.399 . S
C596 C597 1.376 . S
C597 H584 0.930 . S
C597 C596 1.376 . S
C597 C598 1.388 . S
C598 H585 0.930 . S
C598 C597 1.388 . S
C598 C599 1.390 . S
C599 C598 1.390 . S
C599 C600 1.394 . S
C599 C605 1.465 . S
C600 C595 1.399 . S
C600 C599 1.394 . S
C600 C601 1.516 . S
C601 C600 1.516 . S
C601 C602 1.502 . S
C601 C603 1.561 . S
C601 C604 1.526 . S
C602 H586 0.959 . S
C602 H587 0.959 . S
C602 H588 0.961 . S
C602 C601 1.502 . S
C603 H589 0.960 . S
C603 H590 0.961 . S
C603 H591 0.959 . S
C603 C601 1.561 . S
C604 C601 1.526 . S
C604 C605 1.396 . S
C604 C609 1.390 . S
C605 C599 1.465 . S
C605 C604 1.396 . S
C605 C606 1.399 . S
C606 H592 0.929 . S
C606 C605 1.399 . S
C606 C607 1.385 . S
C607 H593 0.931 . S
C607 C606 1.385 . S
C607 C608 1.389 . S
C608 C607 1.389 . S
C608 C609 1.387 . S
C609 H594 0.930 . S
C609 C604 1.390 . S
C609 C608 1.387 . S
H610 C622 0.930 . S
H611 C624 0.930 . S
H612 C625 0.930 . S
H613 C629 0.959 . S
H614 C629 0.959 . S
H615 C629 0.961 . S
H616 C630 0.960 . S
H617 C630 0.961 . S
H618 C630 0.959 . S
H619 C633 0.929 . S
H620 C634 0.931 . S
H621 C636 0.930 . S
C622 H610 0.930 . S
C622 C623 1.399 . S
C622 C627 1.399 . S
C623 C622 1.399 . S
C623 C624 1.376 . S
C624 H611 0.930 . S
C624 C623 1.376 . S
C624 C625 1.388 . S
C625 H612 0.930 . S
C625 C624 1.388 . S
C625 C626 1.390 . S
C626 C625 1.390 . S
C626 C627 1.394 . S
C626 C632 1.465 . S
C627 C622 1.399 . S
C627 C626 1.394 . S
C627 C628 1.516 . S
C628 C627 1.516 . S
C628 C629 1.502 . S
C628 C630 1.561 . S
C628 C631 1.526 . S
C629 H613 0.959 . S
C629 H614 0.959 . S
C629 H615 0.961 . S
C629 C628 1.502 . S
C630 H616 0.960 . S
C630 H617 0.961 . S
C630 H618 0.959 . S
C630 C628 1.561 . S
C631 C628 1.526 . S
C631 C632 1.396 . S
C631 C636 1.390 . S
C632 C626 1.465 . S
C632 C631 1.396 . S
C632 C633 1.399 . S
C633 H619 0.929 . S
C633 C632 1.399 . S
C633 C634 1.385 . S
C634 H620 0.931 . S
C634 C633 1.385 . S
C634 C635 1.389 . S
C635 C634 1.389 . S
C635 C636 1.387 . S
C636 H621 0.930 . S
C636 C631 1.390 . S
C636 C635 1.387 . S
H637 C649 0.930 . S
H638 C651 0.930 . S
H639 C652 0.930 . S
H640 C656 0.959 . S
H641 C656 0.959 . S
H642 C656 0.961 . S
H643 C657 0.960 . S
H644 C657 0.961 . S
H645 C657 0.959 . S
H646 C660 0.929 . S
H647 C661 0.931 . S
H648 C663 0.930 . S
C649 H637 0.930 . S
C649 C650 1.399 . S
C649 C654 1.399 . S
C650 C649 1.399 . S
C650 C651 1.376 . S
C651 H638 0.930 . S
C651 C650 1.376 . S
C651 C652 1.388 . S
C652 H639 0.930 . S
C652 C651 1.388 . S
C652 C653 1.390 . S
C653 C652 1.390 . S
C653 C654 1.394 . S
C653 C659 1.465 . S
C654 C649 1.399 . S
C654 C653 1.394 . S
C654 C655 1.516 . S
C655 C654 1.516 . S
C655 C656 1.502 . S
C655 C657 1.561 . S
C655 C658 1.526 . S
C656 H640 0.959 . S
C656 H641 0.959 . S
C656 H642 0.961 . S
C656 C655 1.502 . S
C657 H643 0.960 . S
C657 H644 0.961 . S
C657 H645 0.959 . S
C657 C655 1.561 . S
C658 C655 1.526 . S
C658 C659 1.396 . S
C658 C663 1.390 . S
C659 C653 1.465 . S
C659 C658 1.396 . S
C659 C660 1.399 . S
C660 H646 0.929 . S
C660 C659 1.399 . S
C660 C661 1.385 . S
C661 H647 0.931 . S
C661 C660 1.385 . S
C661 C662 1.389 . S
C662 C661 1.389 . S
C662 C663 1.387 . S
C663 H648 0.930 . S
C663 C658 1.390 . S
C663 C662 1.387 . S
H664 C676 0.930 . S
H665 C678 0.930 . S
H666 C679 0.930 . S
H667 C683 0.959 . S
H668 C683 0.959 . S
H669 C683 0.961 . S
H670 C684 0.960 . S
H671 C684 0.961 . S
H672 C684 0.959 . S
H673 C687 0.929 . S
H674 C688 0.931 . S
H675 C690 0.930 . S
C676 H664 0.930 . S
C676 C677 1.399 . S
C676 C681 1.399 . S
C677 C676 1.399 . S
C677 C678 1.376 . S
C678 H665 0.930 . S
C678 C677 1.376 . S
C678 C679 1.388 . S
C679 H666 0.930 . S
C679 C678 1.388 . S
C679 C680 1.390 . S
C680 C679 1.390 . S
C680 C681 1.394 . S
C680 C686 1.465 . S
C681 C676 1.399 . S
C681 C680 1.394 . S
C681 C682 1.516 . S
C682 C681 1.516 . S
C682 C683 1.502 . S
C682 C684 1.561 . S
C682 C685 1.526 . S
C683 H667 0.959 . S
C683 H668 0.959 . S
C683 H669 0.961 . S
C683 C682 1.502 . S
C684 H670 0.960 . S
C684 H671 0.961 . S
C684 H672 0.959 . S
C684 C682 1.561 . S
C685 C682 1.526 . S
C685 C686 1.396 . S
C685 C690 1.390 . S
C686 C680 1.465 . S
C686 C685 1.396 . S
C686 C687 1.399 . S
C687 H673 0.929 . S
C687 C686 1.399 . S
C687 C688 1.385 . S
C688 H674 0.931 . S
C688 C687 1.385 . S
C688 C689 1.389 . S
C689 C688 1.389 . S
C689 C690 1.387 . S
C690 H675 0.930 . S
C690 C685 1.390 . S
C690 C689 1.387 . S
H691 C703 0.930 . S
H692 C705 0.930 . S
H693 C706 0.930 . S
H694 C710 0.959 1_455 S
H695 C710 0.959 1_455 S
H696 C710 0.961 . S
H697 C711 0.960 . S
H698 C711 0.961 . S
H699 C711 0.959 . S
H700 C714 0.929 . S
H701 C715 0.931 . S
H702 C717 0.930 . S
C703 H691 0.930 . S
C703 C704 1.399 . S
C703 C708 1.399 . S
C704 C703 1.399 . S
C704 C705 1.376 . S
C705 H692 0.930 . S
C705 C704 1.376 . S
C705 C706 1.388 . S
C706 H693 0.930 . S
C706 C705 1.388 . S
C706 C707 1.390 . S
C707 C706 1.390 . S
C707 C708 1.394 . S
C707 C713 1.465 . S
C708 C703 1.399 . S
C708 C707 1.394 . S
C708 C709 1.516 . S
C709 C708 1.516 . S
C709 C710 1.502 . S
C709 C711 1.561 . S
C709 C712 1.526 . S
C710 H694 0.959 1_655 S
C710 H695 0.959 1_655 S
C710 H696 0.961 . S
C710 C709 1.502 . S
C711 H697 0.960 . S
C711 H698 0.961 . S
C711 H699 0.959 . S
C711 C709 1.561 . S
C712 C709 1.526 . S
C712 C713 1.396 . S
C712 C717 1.390 . S
C713 C707 1.465 . S
C713 C712 1.396 . S
C713 C714 1.399 . S
C714 H700 0.929 . S
C714 C713 1.399 . S
C714 C715 1.385 . S
C715 H701 0.931 . S
C715 C714 1.385 . S
C715 C716 1.389 . S
C716 C715 1.389 . S
C716 C717 1.387 . S
C717 H702 0.930 . S
C717 C712 1.390 . S
C717 C716 1.387 . S
H718 C730 0.930 . S
H719 C732 0.930 . S
H720 C733 0.930 . S
H721 C737 0.959 . S
H722 C737 0.959 . S
H723 C737 0.961 . S
H724 C738 0.960 . S
H725 C738 0.961 . S
H726 C738 0.959 . S
H727 C741 0.929 . S
H728 C742 0.931 . S
H729 C744 0.930 . S
C730 H718 0.930 . S
C730 C731 1.399 . S
C730 C735 1.399 . S
C731 C730 1.399 . S
C731 C732 1.376 . S
C732 H719 0.930 . S
C732 C731 1.376 . S
C732 C733 1.388 . S
C733 H720 0.930 . S
C733 C732 1.388 . S
C733 C734 1.390 . S
C734 C733 1.390 . S
C734 C735 1.394 . S
C734 C740 1.465 . S
C735 C730 1.399 . S
C735 C734 1.394 . S
C735 C736 1.516 . S
C736 C735 1.516 . S
C736 C737 1.502 . S
C736 C738 1.561 . S
C736 C739 1.526 . S
C737 H721 0.959 . S
C737 H722 0.959 . S
C737 H723 0.961 . S
C737 C736 1.502 . S
C738 H724 0.960 . S
C738 H725 0.961 . S
C738 H726 0.959 . S
C738 C736 1.561 . S
C739 C736 1.526 . S
C739 C740 1.396 . S
C739 C744 1.390 . S
C740 C734 1.465 . S
C740 C739 1.396 . S
C740 C741 1.399 . S
C741 H727 0.929 . S
C741 C740 1.399 . S
C741 C742 1.385 . S
C742 H728 0.931 . S
C742 C741 1.385 . S
C742 C743 1.389 . S
C743 C742 1.389 . S
C743 C744 1.387 . S
C744 H729 0.930 . S
C744 C739 1.390 . S
C744 C743 1.387 . S
H745 C757 0.930 . S
H746 C759 0.930 . S
H747 C760 0.930 . S
H748 C764 0.959 . S
H749 C764 0.959 . S
H750 C764 0.961 . S
H751 C765 0.960 . S
H752 C765 0.961 . S
H753 C765 0.959 . S
H754 C768 0.929 . S
H755 C769 0.931 . S
H756 C771 0.930 . S
C757 H745 0.930 . S
C757 C758 1.399 . S
C757 C762 1.399 . S
C758 C757 1.399 . S
C758 C759 1.376 . S
C759 H746 0.930 . S
C759 C758 1.376 . S
C759 C760 1.388 . S
C760 H747 0.930 . S
C760 C759 1.388 . S
C760 C761 1.390 . S
C761 C760 1.390 . S
C761 C762 1.394 . S
C761 C767 1.465 . S
C762 C757 1.399 . S
C762 C761 1.394 . S
C762 C763 1.516 . S
C763 C762 1.516 . S
C763 C764 1.502 . S
C763 C765 1.561 . S
C763 C766 1.526 . S
C764 H748 0.959 . S
C764 H749 0.959 . S
C764 H750 0.961 . S
C764 C763 1.502 . S
C765 H751 0.960 . S
C765 H752 0.961 . S
C765 H753 0.959 . S
C765 C763 1.561 . S
C766 C763 1.526 . S
C766 C767 1.396 . S
C766 C771 1.390 . S
C767 C761 1.465 . S
C767 C766 1.396 . S
C767 C768 1.399 . S
C768 H754 0.929 . S
C768 C767 1.399 . S
C768 C769 1.385 . S
C769 H755 0.931 . S
C769 C768 1.385 . S
C769 C770 1.389 . S
C770 C769 1.389 . S
C770 C771 1.387 . S
C771 H756 0.930 . S
C771 C766 1.390 . S
C771 C770 1.387 . S
H772 C784 0.930 . S
H773 C786 0.930 . S
H774 C787 0.930 . S
H775 C791 0.959 . S
H776 C791 0.959 . S
H777 C791 0.961 . S
H778 C792 0.960 . S
H779 C792 0.961 . S
H780 C792 0.959 . S
H781 C795 0.929 . S
H782 C796 0.931 . S
H783 C798 0.930 . S
C784 H772 0.930 . S
C784 C785 1.399 . S
C784 C789 1.399 . S
C785 C784 1.399 . S
C785 C786 1.376 . S
C786 H773 0.930 . S
C786 C785 1.376 . S
C786 C787 1.388 . S
C787 H774 0.930 . S
C787 C786 1.388 . S
C787 C788 1.390 . S
C788 C787 1.390 . S
C788 C789 1.394 . S
C788 C794 1.465 . S
C789 C784 1.399 . S
C789 C788 1.394 . S
C789 C790 1.516 . S
C790 C789 1.516 . S
C790 C791 1.502 . S
C790 C792 1.561 . S
C790 C793 1.526 . S
C791 H775 0.959 . S
C791 H776 0.959 . S
C791 H777 0.961 . S
C791 C790 1.502 . S
C792 H778 0.960 . S
C792 H779 0.961 . S
C792 H780 0.959 . S
C792 C790 1.561 . S
C793 C790 1.526 . S
C793 C794 1.396 . S
C793 C798 1.390 . S
C794 C788 1.465 . S
C794 C793 1.396 . S
C794 C795 1.399 . S
C795 H781 0.929 . S
C795 C794 1.399 . S
C795 C796 1.385 . S
C796 H782 0.931 . S
C796 C795 1.385 . S
C796 C797 1.389 . S
C797 C796 1.389 . S
C797 C798 1.387 . S
C798 H783 0.930 . S
C798 C793 1.390 . S
C798 C797 1.387 . S
H799 C811 0.930 . S
H800 C813 0.930 . S
H801 C814 0.930 . S
H802 C818 0.959 . S
H803 C818 0.959 . S
H804 C818 0.961 . S
H805 C819 0.960 . S
H806 C819 0.961 . S
H807 C819 0.959 . S
H808 C822 0.929 . S
H809 C823 0.931 . S
H810 C825 0.930 . S
C811 H799 0.930 . S
C811 C812 1.399 . S
C811 C816 1.399 . S
C812 C811 1.399 . S
C812 C813 1.376 . S
C813 H800 0.930 . S
C813 C812 1.376 . S
C813 C814 1.388 . S
C814 H801 0.930 . S
C814 C813 1.388 . S
C814 C815 1.390 . S
C815 C814 1.390 . S
C815 C816 1.394 . S
C815 C821 1.465 . S
C816 C811 1.399 . S
C816 C815 1.394 . S
C816 C817 1.516 . S
C817 C816 1.516 . S
C817 C818 1.502 . S
C817 C819 1.561 . S
C817 C820 1.526 . S
C818 H802 0.959 . S
C818 H803 0.959 . S
C818 H804 0.961 . S
C818 C817 1.502 . S
C819 H805 0.960 . S
C819 H806 0.961 . S
C819 H807 0.959 . S
C819 C817 1.561 . S
C820 C817 1.526 . S
C820 C821 1.396 . S
C820 C825 1.390 . S
C821 C815 1.465 . S
C821 C820 1.396 . S
C821 C822 1.399 . S
C822 H808 0.929 . S
C822 C821 1.399 . S
C822 C823 1.385 . S
C823 H809 0.931 . S
C823 C822 1.385 . S
C823 C824 1.389 . S
C824 C823 1.389 . S
C824 C825 1.387 . S
C825 H810 0.930 . S
C825 C820 1.390 . S
C825 C824 1.387 . S
H826 C838 0.930 . S
H827 C840 0.930 . S
H828 C841 0.930 . S
H829 C845 0.959 . S
H830 C845 0.959 . S
H831 C845 0.961 . S
H832 C846 0.960 . S
H833 C846 0.961 . S
H834 C846 0.959 . S
H835 C849 0.929 . S
H836 C850 0.931 . S
H837 C852 0.930 . S
C838 H826 0.930 . S
C838 C839 1.399 . S
C838 C843 1.399 . S
C839 C838 1.399 . S
C839 C840 1.376 . S
C840 H827 0.930 . S
C840 C839 1.376 . S
C840 C841 1.388 . S
C841 H828 0.930 . S
C841 C840 1.388 . S
C841 C842 1.390 . S
C842 C841 1.390 . S
C842 C843 1.394 . S
C842 C848 1.465 . S
C843 C838 1.399 . S
C843 C842 1.394 . S
C843 C844 1.516 . S
C844 C843 1.516 . S
C844 C845 1.502 . S
C844 C846 1.561 . S
C844 C847 1.526 . S
C845 H829 0.959 . S
C845 H830 0.959 . S
C845 H831 0.961 . S
C845 C844 1.502 . S
C846 H832 0.960 . S
C846 H833 0.961 . S
C846 H834 0.959 . S
C846 C844 1.561 . S
C847 C844 1.526 . S
C847 C848 1.396 . S
C847 C852 1.390 . S
C848 C842 1.465 . S
C848 C847 1.396 . S
C848 C849 1.399 . S
C849 H835 0.929 . S
C849 C848 1.399 . S
C849 C850 1.385 . S
C850 H836 0.931 . S
C850 C849 1.385 . S
C850 C851 1.389 . S
C851 C850 1.389 . S
C851 C852 1.387 . S
C852 H837 0.930 . S
C852 C847 1.390 . S
C852 C851 1.387 . S
H853 C865 0.930 . S
H854 C867 0.930 . S
H855 C868 0.930 . S
H856 C872 0.959 . S
H857 C872 0.959 . S
H858 C872 0.961 . S
H859 C873 0.960 . S
H860 C873 0.961 . S
H861 C873 0.959 . S
H862 C876 0.929 . S
H863 C877 0.931 . S
H864 C879 0.930 . S
C865 H853 0.930 . S
C865 C866 1.399 . S
C865 C870 1.399 . S
C866 C865 1.399 . S
C866 C867 1.376 . S
C867 H854 0.930 . S
C867 C866 1.376 . S
C867 C868 1.388 . S
C868 H855 0.930 . S
C868 C867 1.388 . S
C868 C869 1.390 . S
C869 C868 1.390 . S
C869 C870 1.394 . S
C869 C875 1.465 . S
C870 C865 1.399 . S
C870 C869 1.394 . S
C870 C871 1.516 . S
C871 C870 1.516 . S
C871 C872 1.502 . S
C871 C873 1.561 . S
C871 C874 1.526 . S
C872 H856 0.959 . S
C872 H857 0.959 . S
C872 H858 0.961 . S
C872 C871 1.502 . S
C873 H859 0.960 . S
C873 H860 0.961 . S
C873 H861 0.959 . S
C873 C871 1.561 . S
C874 C871 1.526 . S
C874 C875 1.396 . S
C874 C879 1.390 . S
C875 C869 1.465 . S
C875 C874 1.396 . S
C875 C876 1.399 . S
C876 H862 0.929 . S
C876 C875 1.399 . S
C876 C877 1.385 . S
C877 H863 0.931 . S
C877 C876 1.385 . S
C877 C878 1.389 . S
C878 C877 1.389 . S
C878 C879 1.387 . S
C879 H864 0.930 . S
C879 C874 1.390 . S
C879 C878 1.387 . S
C245 C5 1.119 . S
C257 C87 1.171 . S
C272 C14 0.916 . S
C284 C127 1.035 . S
C311 C161 2.320 . S
C299 C25 2.335 . S
C326 C34 2.633 . S
C338 C202 2.576 . S
C365 C122 1.247 . S
C353 C7 1.244 . S
C392 C82 1.784 . S
C380 C13 1.725 . S
C419 C210 1.612 . S
C407 C23 1.621 . S
C446 C171 1.751 . S
C434 C31 1.851 . S
C461 C4 1.254 . S
C473 C207 1.282 . S
C500 C130 1.990 . S
C488 C22 2.071 . S
C515 C32 2.391 . S
C527 C90 2.341 . S
C542 C16 1.310 . S
C554 C158 1.407 . S
C581 C78 1.101 . S
C569 C41 1.150 . S
C596 C50 0.990 . S
C608 C118 1.007 . S
C623 C61 2.331 . S
C635 C170 2.300 . S
C650 C67 2.636 . S
C662 C211 2.568 . S
C677 C40 1.201 . S
C689 C131 1.250 . S
C716 C91 1.759 . S
C704 C52 1.641 . S
C743 C201 1.612 . S
C731 C59 1.642 . S
C770 C162 1.750 . S
C758 C70 1.853 . S
C785 C43 1.283 . S
C797 C198 1.207 . S
C824 C121 2.034 . S
C812 C58 2.073 . S
C851 C81 2.288 . S
C839 C68 2.380 . S
C866 C49 1.373 . S
C878 C167 1.374 . S
