# Generated by pormake.
# Topology anh, (6,3)-cn, num edge types: 1
# Building blocks:
#     Node 0, Type 0, BuildingBlock: CUKXOW_clean_sbu_0, # of connection points: 6
#     Node 1, Type 0, BuildingBlock: CUKXOW_clean_sbu_0, # of connection points: 6
#     Node 2, Type 0, BuildingBlock: CUKXOW_clean_sbu_0, # of connection points: 6
#     Node 3, Type 1, BuildingBlock: BETDIP_clean_linker_0, # of connection points: 3
#     Node 4, Type 1, BuildingBlock: BETDIP_clean_linker_0, # of connection points: 3
#     Node 5, Type 1, BuildingBlock: BETDIP_clean_linker_0, # of connection points: 3
#     Node 6, Type 1, BuildingBlock: BETDIP_clean_linker_0, # of connection points: 3
#     Node 7, Type 1, BuildingBlock: BETDIP_clean_linker_0, # of connection points: 3
#     Node 8, Type 1, BuildingBlock: BETDIP_clean_linker_0, # of connection points: 3
#     Edge 9, Type (0, 1), BuildingBlock: ZUJKAS_clean_linker_0, # of connection points: 2
#     Edge 10, Type (0, 1), BuildingBlock: ZUJKAS_clean_linker_0, # of connection points: 2
#     Edge 11, Type (0, 1), BuildingBlock: ZUJKAS_clean_linker_0, # of connection points: 2
#     Edge 12, Type (0, 1), BuildingBlock: ZUJKAS_clean_linker_0, # of connection points: 2
#     Edge 13, Type (0, 1), BuildingBlock: ZUJKAS_clean_linker_0, # of connection points: 2
#     Edge 14, Type (0, 1), BuildingBlock: ZUJKAS_clean_linker_0, # of connection points: 2
#     Edge 15, Type (0, 1), BuildingBlock: ZUJKAS_clean_linker_0, # of connection points: 2
#     Edge 16, Type (0, 1), BuildingBlock: ZUJKAS_clean_linker_0, # of connection points: 2
#     Edge 17, Type (0, 1), BuildingBlock: ZUJKAS_clean_linker_0, # of connection points: 2
#     Edge 18, Type (0, 1), BuildingBlock: ZUJKAS_clean_linker_0, # of connection points: 2
#     Edge 19, Type (0, 1), BuildingBlock: ZUJKAS_clean_linker_0, # of connection points: 2
#     Edge 20, Type (0, 1), BuildingBlock: ZUJKAS_clean_linker_0, # of connection points: 2
#     Edge 21, Type (0, 1), BuildingBlock: ZUJKAS_clean_linker_0, # of connection points: 2
#     Edge 22, Type (0, 1), BuildingBlock: ZUJKAS_clean_linker_0, # of connection points: 2
#     Edge 23, Type (0, 1), BuildingBlock: ZUJKAS_clean_linker_0, # of connection points: 2
#     Edge 24, Type (0, 1), BuildingBlock: ZUJKAS_clean_linker_0, # of connection points: 2
#     Edge 25, Type (0, 1), BuildingBlock: ZUJKAS_clean_linker_0, # of connection points: 2
#     Edge 26, Type (0, 1), BuildingBlock: ZUJKAS_clean_linker_0, # of connection points: 2
# Relax obj value: 0.077
# Max RMSD: 0.171
# Mean RMSD: 0.106
data_MOF--net-anh--node1-CUKXOW_clean_sbu_0--node2-BETDIP_clean_linker_0--edge1-ZUJKAS_clean_linker_0
_symmetry_space_group_name_H-M    P1
_symmetry_Int_Tables_number       1
_symmetry_cell_setting            triclinic
loop_
_symmetry_equiv_pos_as_xyz
'x, y, z'
_cell_length_a     37.947644
_cell_length_b     37.076151
_cell_length_c     63.484399
_cell_angle_alpha  98.676255
_cell_angle_beta   90.056677
_cell_angle_gamma 114.74131
loop_
_atom_site_label
_atom_site_type_symbol
_atom_site_fract_x
_atom_site_fract_y
_atom_site_fract_z
_atom_type_partial_charge
Tb0 Tb 0.1136 0.5803 0.1548 0.0
C1 C 0.08562 0.53857 0.1949 0.0
Tb2 Tb 0.05623 0.48864 0.14783 0.0
O3 O 0.06631 0.5961 0.16601 0.0
O4 O 0.05401 0.54383 0.14422 0.0
O5 O 0.11263 0.56941 0.18749 0.0
C6 C 0.9861 0.42817 0.1467 0.0
O7 O 0.05942 0.50639 0.18237 0.0
C8 C 0.12978 0.49915 0.15314 0.0
C9 C 0.09243 0.52802 0.10806 0.0
O10 O 0.99772 0.46337 0.15846 0.0
O11 O 1.0143 0.42651 0.13548 0.0
O12 O 0.10006 0.46394 0.15025 0.0
O13 O 0.11584 0.52463 0.15333 0.0
O14 O 0.063 0.4981 0.11483 0.0
O15 O 0.11751 0.5603 0.1211 0.0
C16 C 0.17463 0.65078 0.15559 0.0
O17 O 0.14153 0.63941 0.14486 0.0
O18 O 0.17311 0.62271 0.16604 0.0
C19 C 0.03863 0.56333 0.15583 0.0
Tb20 Tb 0.51267 0.03092 0.50192 0.0
C21 C 0.55399 0.05308 0.45897 0.0
Tb22 Tb 0.60225 0.09088 0.50395 0.0
O23 O 0.50052 0.08145 0.51691 0.0
O24 O 0.54747 0.09117 0.49804 0.0
O25 O 0.52348 0.02819 0.46792 0.0
C26 C 0.66486 0.16054 0.50709 0.0
O27 O 0.58552 0.08184 0.47011 0.0
C28 C 0.59135 0.01548 0.50318 0.0
C29 C 0.56181 0.06306 0.54623 0.0
O30 O 0.65927 0.12796 0.49383 0.0
O31 O 0.63538 0.15369 0.51881 0.0
O32 O 0.62574 0.04505 0.50367 0.0
O33 O 0.56729 0.03043 0.50304 0.0
O34 O 0.59044 0.09104 0.53771 0.0
O35 O 0.53077 0.03408 0.53486 0.0
C36 C 0.44309 0.96839 0.49653 0.0
O37 O 0.44951 0.00528 0.49542 0.0
O38 O 0.47588 0.96662 0.50031 0.0
C39 C 0.53097 0.10851 0.51008 0.0
Tb40 Tb 0.53098 0.54294 0.82957 0.0
C41 C 0.56861 0.55797 0.8759 0.0
Tb42 Tb 0.61914 0.55958 0.83552 0.0
O43 O 0.51412 0.48334 0.83836 0.0
O44 O 0.56562 0.51053 0.82359 0.0
O45 O 0.54005 0.55915 0.8642 0.0
C46 C 0.67862 0.54091 0.83928 0.0
O47 O 0.59932 0.55406 0.86763 0.0
C48 C 0.60982 0.62708 0.84045 0.0
C49 C 0.58491 0.55843 0.79048 0.0
O50 O 0.67844 0.56874 0.82909 0.0
O51 O 0.64572 0.52434 0.84774 0.0
O52 O 0.64373 0.62644 0.84261 0.0
O53 O 0.58528 0.59113 0.83647 0.0
O54 O 0.61149 0.552 0.80094 0.0
O55 O 0.55437 0.56109 0.79955 0.0
C56 C 0.46399 0.5409 0.81613 0.0
O57 O 0.47876 0.51653 0.80801 0.0
O58 O 0.4864 0.56592 0.83235 0.0
C59 C 0.54585 0.48079 0.83241 0.0
H60 H 0.54201 0.03528 0.17021 0.0
H61 H 0.59556 0.10631 0.23132 0.0
H62 H 0.49692 0.99209 0.22805 0.0
H63 H 0.61134 0.15759 0.21125 0.0
C64 C 0.62092 0.14441 0.19724 0.0
C65 C 0.54296 0.03944 0.18751 0.0
C66 C 0.51591 0.00968 0.19777 0.0
C67 C 0.57156 0.07451 0.19945 0.0
C68 C 0.57318 0.07967 0.22194 0.0
C69 C 0.54611 0.05014 0.23242 0.0
C70 C 0.51772 0.01526 0.22015 0.0
N71 N 0.59939 0.10313 0.18842 0.0
H72 H 0.55622 0.52741 0.50432 0.0
H73 H 0.56637 0.60891 0.56249 0.0
H74 H 0.59171 0.50685 0.56407 0.0
H75 H 0.50813 0.60453 0.54167 0.0
C76 C 0.52661 0.6154 0.52883 0.0
C77 C 0.56318 0.5364 0.52141 0.0
C78 C 0.57499 0.51336 0.53296 0.0
C79 C 0.55971 0.57078 0.53201 0.0
C80 C 0.56834 0.58208 0.55426 0.0
C81 C 0.58054 0.55951 0.56586 0.0
C82 C 0.58385 0.52535 0.55506 0.0
N83 N 0.54868 0.59448 0.52015 0.0
H84 H 0.05369 0.53664 0.82673 0.0
H85 H 0.14445 0.56648 0.87586 0.0
H86 H 0.02461 0.51808 0.89063 0.0
H87 H 0.09756 0.53915 0.80444 0.0
C88 C 0.1262 0.5579 0.81229 0.0
C89 C 0.06296 0.53791 0.84302 0.0
C90 C 0.03467 0.52486 0.85773 0.0
C91 C 0.10265 0.55274 0.84944 0.0
C92 C 0.11385 0.55485 0.87082 0.0
C93 C 0.08575 0.54241 0.88571 0.0
C94 C 0.0463 0.52737 0.87905 0.0
N95 N 0.13209 0.56603 0.83496 0.0
H96 H 0.04273 0.62105 0.48154 0.0
H97 H 0.99148 0.53824 0.42301 0.0
H98 H 0.09859 0.64293 0.42289 0.0
H99 H 0.93551 0.53255 0.43962 0.0
C100 C 0.94375 0.52877 0.45527 0.0
C101 C 0.04335 0.61232 0.46451 0.0
C102 C 0.07409 0.63632 0.45342 0.0
C103 C 1.01269 0.57765 0.45353 0.0
C104 C 1.01396 0.56598 0.43146 0.0
C105 C 0.04509 0.5892 0.42036 0.0
C106 C 0.07468 0.62453 0.43142 0.0
N107 N 0.98152 0.55425 0.46504 0.0
H108 H 0.58905 0.09104 0.8347 0.0
H109 H 0.58143 0.01408 0.77515 0.0
H110 H 0.59939 0.13617 0.77526 0.0
H111 H 0.53299 0.9688 0.79596 0.0
C112 C 0.55476 0.97557 0.80889 0.0
C113 C 0.5897 0.08664 0.81747 0.0
C114 C 0.59556 0.11866 0.80636 0.0
C115 C 0.58399 0.04861 0.80627 0.0
C116 C 0.58483 0.04294 0.78387 0.0
C117 C 0.5912 0.07471 0.77269 0.0
C118 C 0.59631 0.11221 0.78403 0.0
N119 N 0.5784 0.01657 0.81766 0.0
H120 H 0.55075 0.52898 0.16024 0.0
H121 H 0.61211 0.53811 0.10264 0.0
H122 H 0.5031 0.54705 0.10316 0.0
H123 H 0.62174 0.48503 0.11723 0.0
C124 C 0.63627 0.506 0.13176 0.0
C125 C 0.55276 0.53296 0.14366 0.0
C126 C 0.52297 0.53871 0.13305 0.0
C127 C 0.58511 0.5322 0.13263 0.0
C128 C 0.58712 0.53747 0.1111 0.0
C129 C 0.55789 0.54315 0.10048 0.0
C130 C 0.5262 0.54374 0.11156 0.0
N131 N 0.61599 0.52715 0.14307 0.0
H132 H 0.15869 0.44517 0.15884 0.0
H133 H 0.22637 0.45418 0.15968 0.0
H134 H 0.26344 0.5772 0.15029 0.0
H135 H 0.19551 0.56821 0.14969 0.0
H136 H 0.27686 0.47029 0.12965 0.0
H137 H 0.33962 0.59361 0.19882 0.0
H138 H 0.28784 0.56586 0.19273 0.0
H139 H 0.31582 0.6057 0.17835 0.0
C140 C 0.18129 0.47434 0.15721 0.0
C141 C 0.17159 0.50619 0.15455 0.0
C142 C 0.22013 0.47946 0.15765 0.0
C143 C 0.25061 0.51661 0.15545 0.0
C144 C 0.24094 0.54852 0.15269 0.0
H145 H 0.49747 0.59785 0.13677 0.0
H146 H 0.43213 0.59195 0.14413 0.0
C147 C 0.20195 0.5434 0.15233 0.0
C148 C 0.29193 0.52093 0.15501 0.0
H149 H 0.38464 0.57724 0.17793 0.0
C150 C 0.30028 0.49351 0.14038 0.0
C151 C 0.32293 0.55122 0.1689 0.0
C152 C 0.31615 0.58055 0.18573 0.0
C153 C 0.33835 0.49601 0.1389 0.0
C154 C 0.36937 0.52636 0.15272 0.0
C155 C 0.36108 0.55376 0.1674 0.0
C156 C 0.41077 0.53146 0.15123 0.0
C157 C 0.3452 0.46685 0.12196 0.0
C158 C 0.42167 0.50025 0.15377 0.0
C159 C 0.45944 0.50377 0.14974 0.0
C160 C 0.4872 0.53863 0.14314 0.0
C161 C 0.47692 0.57072 0.14199 0.0
C162 C 0.43939 0.56728 0.14608 0.0
H163 H 0.32066 0.45195 0.10949 0.0
H164 H 0.37236 0.48236 0.11411 0.0
H165 H 0.34819 0.44305 0.1295 0.0
H166 H 0.40056 0.47256 0.15815 0.0
H167 H 0.46615 0.47831 0.1505 0.0
H168 H 0.67941 0.231 0.53369 0.0
H169 H 0.72996 0.29808 0.53117 0.0
H170 H 0.77231 0.24657 0.47708 0.0
H171 H 0.72275 0.17953 0.47997 0.0
H172 H 0.83142 0.30363 0.50404 0.0
H173 H 0.72275 0.36088 0.48575 0.0
H174 H 0.71857 0.34317 0.51084 0.0
H175 H 0.70947 0.30833 0.48631 0.0
C176 C 0.69986 0.23405 0.52145 0.0
C177 C 0.69718 0.20026 0.50695 0.0
C178 C 0.72849 0.27236 0.51992 0.0
C179 C 0.75439 0.2774 0.50367 0.0
C180 C 0.75254 0.24338 0.4897 0.0
H181 H 0.87518 0.47104 0.43728 0.0
H182 H 0.83034 0.41254 0.45185 0.0
C183 C 0.72421 0.20512 0.49134 0.0
C184 C 0.78259 0.31802 0.50049 0.0
H185 H 0.78875 0.4059 0.48674 0.0
C186 C 0.8222 0.32619 0.50044 0.0
C187 C 0.77033 0.34719 0.49561 0.0
C188 C 0.72797 0.33948 0.49442 0.0
C189 C 0.8498 0.36222 0.49498 0.0
C190 C 0.83752 0.39129 0.48999 0.0
C191 C 0.79808 0.38365 0.49071 0.0
C192 C 0.86429 0.42801 0.48196 0.0
C193 C 0.89145 0.36786 0.49358 0.0
C194 C 0.89798 0.45653 0.49419 0.0
C195 C 0.92389 0.48981 0.48576 0.0
C196 C 0.91612 0.49525 0.46511 0.0
C197 C 0.88181 0.46744 0.45323 0.0
C198 C 0.85618 0.4341 0.46155 0.0
H199 H 0.89422 0.3391 0.4932 0.0
H200 H 0.90369 0.3806 0.47909 0.0
H201 H 0.90926 0.38917 0.50778 0.0
H202 H 0.90435 0.45292 0.51016 0.0
H203 H 0.95 0.51102 0.49535 0.0
H204 H 0.65973 0.70471 0.85536 0.0
H205 H 0.64964 0.76547 0.8541 0.0
H206 H 0.53461 0.69206 0.82381 0.0
H207 H 0.54448 0.63135 0.82546 0.0
H208 H 0.63757 0.79335 0.81975 0.0
H209 H 0.51146 0.76583 0.86908 0.0
H210 H 0.53962 0.73675 0.86843 0.0
H211 H 0.50258 0.72513 0.84751 0.0
C212 C 0.63209 0.70159 0.84874 0.0
C213 C 0.60262 0.66334 0.8408 0.0
C214 C 0.62635 0.7363 0.84799 0.0
C215 C 0.59109 0.73345 0.83922 0.0
C216 C 0.56161 0.69512 0.83126 0.0
H217 H 0.5093 0.8963 0.79666 0.0
H218 H 0.51888 0.83901 0.8058 0.0
C219 C 0.56726 0.66038 0.83217 0.0
C220 C 0.5862 0.77061 0.83715 0.0
H221 H 0.5263 0.81796 0.84791 0.0
C222 C 0.61349 0.79894 0.82615 0.0
C223 C 0.55478 0.77798 0.84548 0.0
C224 C 0.52567 0.75001 0.85847 0.0
C225 C 0.6096 0.8337 0.82271 0.0
C226 C 0.57775 0.84056 0.83063 0.0
C227 C 0.55071 0.8126 0.84186 0.0
C228 C 0.57101 0.87557 0.8264 0.0
C229 C 0.63887 0.8622 0.81 0.0
C230 C 0.59675 0.91516 0.83529 0.0
C231 C 0.59119 0.94801 0.83018 0.0
C232 C 0.55983 0.94166 0.81603 0.0
C233 C 0.53369 0.90201 0.80759 0.0
C234 C 0.53909 0.86928 0.81281 0.0
H235 H 0.65777 0.84908 0.80189 0.0
H236 H 0.6239 0.87043 0.79778 0.0
H237 H 0.6577 0.89028 0.82089 0.0
H238 H 0.62136 0.92062 0.84599 0.0
H239 H 0.61184 0.97823 0.83692 0.0
H240 H 1.00398 0.60392 0.18074 0.0
H241 H 0.93568 0.59285 0.1792 0.0
H242 H 0.90925 0.49353 0.12752 0.0
H243 H 0.97768 0.50429 0.12923 0.0
H244 H 0.89162 0.59807 0.14799 0.0
H245 H 0.82321 0.44217 0.16505 0.0
H246 H 0.87501 0.47254 0.16895 0.0
H247 H 0.85276 0.44713 0.14269 0.0
C248 C 0.98358 0.57945 0.16916 0.0
C249 C 0.99641 0.55485 0.15521 0.0
C250 C 0.94439 0.57317 0.16826 0.0
C251 C 0.91669 0.54195 0.15345 0.0
C252 C 0.92948 0.51723 0.13948 0.0
H253 H 0.67448 0.46491 0.11212 0.0
H254 H 0.74144 0.4746 0.11885 0.0
C255 C 0.96879 0.52351 0.14039 0.0
C256 C 0.87507 0.53665 0.15213 0.0
H257 H 0.78042 0.46801 0.15279 0.0
C258 C 0.86737 0.56967 0.14923 0.0
C259 C 0.84305 0.49969 0.15375 0.0
C260 C 0.84883 0.46347 0.15799 0.0
C261 C 0.82903 0.56651 0.14728 0.0
C262 C 0.79698 0.52944 0.14863 0.0
C263 C 0.80469 0.49653 0.15178 0.0
C264 C 0.75535 0.52337 0.14544 0.0
C265 C 0.82322 0.60264 0.14295 0.0
C266 C 0.73989 0.54703 0.15832 0.0
C267 C 0.70109 0.54145 0.15446 0.0
C268 C 0.67687 0.51195 0.13767 0.0
C269 C 0.69223 0.48791 0.12519 0.0
C270 C 0.73068 0.4934 0.12905 0.0
H271 H 0.84975 0.62531 0.13726 0.0
H272 H 0.79865 0.59357 0.13083 0.0
H273 H 0.81635 0.61728 0.15794 0.0
H274 H 0.75781 0.56986 0.17138 0.0
H275 H 0.6903 0.56048 0.1644 0.0
H276 H 0.37252 0.97024 0.49236 0.0
H277 H 0.30827 0.91359 0.49045 0.0
H278 H 0.36251 0.83341 0.49574 0.0
H279 H 0.42687 0.88997 0.49762 0.0
H280 H 0.30496 0.80709 0.46171 0.0
H281 H 0.25168 0.8512 0.53835 0.0
H282 H 0.27031 0.89013 0.52218 0.0
H283 H 0.30253 0.8722 0.53304 0.0
C284 C 0.37067 0.94054 0.49318 0.0
C285 C 0.4045 0.93433 0.49509 0.0
C286 C 0.33404 0.90834 0.49229 0.0
C287 C 0.33074 0.86953 0.49334 0.0
C288 C 0.36453 0.86326 0.49513 0.0
H289 H 0.12018 0.6453 0.48873 0.0
H290 H 0.18219 0.70326 0.50163 0.0
C291 C 0.40118 0.89548 0.49612 0.0
C292 C 0.29203 0.83504 0.49108 0.0
H293 H 0.20436 0.79831 0.51317 0.0
C294 C 0.28313 0.80494 0.47308 0.0
C295 C 0.26375 0.83227 0.50604 0.0
C296 C 0.27254 0.86296 0.52611 0.0
C297 C 0.24615 0.7728 0.46922 0.0
C298 C 0.2174 0.77091 0.48369 0.0
C299 C 0.22655 0.80018 0.50208 0.0
C300 C 0.17726 0.7395 0.47909 0.0
C301 C 0.23773 0.74137 0.44947 0.0
C302 C 0.15364 0.74169 0.46282 0.0
C303 C 0.11854 0.70891 0.4555 0.0
C304 C 0.10653 0.67346 0.46435 0.0
C305 C 0.1288 0.67241 0.48175 0.0
C306 C 0.16413 0.70533 0.48906 0.0
H307 H 0.26475 0.7432 0.44197 0.0
H308 H 0.22171 0.71067 0.45338 0.0
H309 H 0.21907 0.74584 0.4376 0.0
H310 H 0.16336 0.76797 0.45504 0.0
H311 H 0.10166 0.7105 0.44218 0.0
H312 H 0.50892 0.41979 0.85462 0.0
H313 H 0.52226 0.36114 0.85647 0.0
H314 H 0.61697 0.40528 0.81587 0.0
H315 H 0.60367 0.46404 0.81397 0.0
H316 H 0.51892 0.30438 0.82202 0.0
H317 H 0.66633 0.37536 0.86372 0.0
H318 H 0.63543 0.40147 0.8636 0.0
H319 H 0.66194 0.39646 0.84073 0.0
C320 C 0.53282 0.41716 0.84625 0.0
C321 C 0.55541 0.44655 0.83425 0.0
C322 C 0.54046 0.3837 0.84736 0.0
C323 C 0.57097 0.37906 0.83658 0.0
C324 C 0.59385 0.40864 0.82473 0.0
H325 H 0.64695 0.19338 0.80006 0.0
H326 H 0.64157 0.25681 0.81083 0.0
C327 C 0.58613 0.44211 0.82357 0.0
C328 C 0.5767 0.34172 0.83636 0.0
H329 H 0.64344 0.30639 0.84749 0.0
C330 C 0.54597 0.30473 0.82784 0.0
C331 C 0.61209 0.34228 0.84384 0.0
C332 C 0.64576 0.38098 0.85368 0.0
C333 C 0.55005 0.26846 0.82586 0.0
C334 C 0.58557 0.26896 0.83318 0.0
C335 C 0.61612 0.30592 0.84207 0.0
C336 C 0.59254 0.23193 0.8299 0.0
C337 C 0.51687 0.23024 0.81496 0.0
C338 C 0.56814 0.1972 0.83796 0.0
C339 C 0.5709 0.16063 0.83161 0.0
C340 C 0.59835 0.15835 0.81724 0.0
C341 C 0.62502 0.19402 0.81084 0.0
C342 C 0.62208 0.23037 0.81706 0.0
H343 H 0.49561 0.23656 0.80589 0.0
H344 H 0.52776 0.21181 0.80377 0.0
H345 H 0.50118 0.21215 0.82719 0.0
H346 H 0.54579 0.19794 0.84838 0.0
H347 H 0.54998 0.13373 0.83685 0.0
H348 H 0.52994 0.95923 0.51954 0.0
H349 H 0.51777 0.88931 0.52086 0.0
H350 H 0.62317 0.90677 0.4895 0.0
H351 H 0.6353 0.97672 0.48824 0.0
H352 H 0.50768 0.8254 0.48932 0.0
H353 H 0.63934 0.8653 0.5424 0.0
H354 H 0.62199 0.90198 0.53755 0.0
H355 H 0.64973 0.88642 0.51827 0.0
C356 C 0.54993 0.94781 0.51249 0.0
C357 C 0.5831 0.97301 0.50343 0.0
C358 C 0.54323 0.90802 0.51346 0.0
C359 C 0.5698 0.8929 0.50551 0.0
C360 C 0.60267 0.91797 0.49613 0.0
H361 H 0.57873 0.66044 0.50244 0.0
H362 H 0.58783 0.72662 0.49478 0.0
C363 C 0.60948 0.95782 0.49531 0.0
C364 C 0.56328 0.85108 0.50724 0.0
H365 H 0.6038 0.79617 0.52804 0.0
C366 C 0.52867 0.81901 0.4978 0.0
C367 C 0.59065 0.84276 0.51838 0.0
C368 C 0.62733 0.87592 0.52991 0.0
C369 C 0.52089 0.77887 0.49904 0.0
C370 C 0.54831 0.77065 0.51011 0.0
C371 C 0.58301 0.80261 0.5194 0.0
C372 C 0.54081 0.72929 0.51321 0.0
C373 C 0.48354 0.74549 0.4884 0.0
C374 C 0.51134 0.70894 0.52607 0.0
C375 C 0.50627 0.67139 0.53057 0.0
C376 C 0.53048 0.65344 0.52224 0.0
C377 C 0.55946 0.67341 0.50897 0.0
C378 C 0.56474 0.71121 0.50461 0.0
H379 H 0.46997 0.75583 0.4765 0.0
H380 H 0.48873 0.71961 0.4803 0.0
H381 H 0.46259 0.73473 0.50071 0.0
H382 H 0.49299 0.72266 0.53315 0.0
H383 H 0.48389 0.65671 0.54095 0.0
H384 H 0.67791 0.47698 0.8556 0.0
H385 H 0.73018 0.45446 0.8557 0.0
H386 H 0.80157 0.55265 0.82395 0.0
H387 H 0.74931 0.57483 0.82349 0.0
H388 H 0.80138 0.47718 0.80677 0.0
H389 H 0.82979 0.51438 0.89539 0.0
H390 H 0.78105 0.4806 0.88506 0.0
H391 H 0.80063 0.53225 0.88131 0.0
C392 C 0.70486 0.49373 0.84871 0.0
C393 C 0.71 0.52784 0.83974 0.0
C394 C 0.73452 0.48083 0.84875 0.0
C395 C 0.76965 0.50212 0.83997 0.0
C396 C 0.77453 0.53583 0.83075 0.0
H397 H 1.002 0.55804 0.83281 0.0
H398 H 0.933 0.53943 0.8256 0.0
C399 C 0.74487 0.54861 0.83061 0.0
C400 C 0.80231 0.49073 0.84105 0.0
H401 H 0.87308 0.49535 0.87578 0.0
C402 C 0.81675 0.48041 0.82185 0.0
C403 C 0.82189 0.49461 0.86078 0.0
C404 C 0.80784 0.50629 0.88185 0.0
C405 C 0.85171 0.47616 0.82184 0.0
C406 C 0.87268 0.4829 0.84151 0.0
C407 C 0.85677 0.49023 0.86074 0.0
C408 C 0.91353 0.48878 0.84261 0.0
C409 C 0.8666 0.466 0.8008 0.0
C410 C 0.92533 0.4664 0.85455 0.0
C411 C 0.96483 0.47704 0.85873 0.0
C412 C 0.993 0.51046 0.85119 0.0
C413 C 0.98099 0.53179 0.83854 0.0
C414 C 0.94156 0.52107 0.83433 0.0
H415 H 0.84226 0.4484 0.78843 0.0
H416 H 0.88556 0.49432 0.79513 0.0
H417 H 0.88387 0.44854 0.80241 0.0
H418 H 0.90401 0.44163 0.86123 0.0
H419 H 0.97337 0.45981 0.86832 0.0
H420 H 0.24511 0.6754 0.17665 0.0
H421 H 0.3031 0.73798 0.17603 0.0
H422 H 0.24077 0.77364 0.1327 0.0
H423 H 0.18231 0.71107 0.13348 0.0
H424 H 0.34434 0.76742 0.14022 0.0
H425 H 0.28398 0.86997 0.18224 0.0
H426 H 0.26156 0.81637 0.18223 0.0
H427 H 0.25623 0.83591 0.15882 0.0
C428 C 0.24373 0.69667 0.16707 0.0
C429 C 0.20925 0.68869 0.15525 0.0
C430 C 0.27687 0.73226 0.16665 0.0
C431 C 0.27607 0.76051 0.15446 0.0
C432 C 0.24177 0.75244 0.14243 0.0
H433 H 0.46491 1.00398 0.16565 0.0
H434 H 0.4076 0.94337 0.14949 0.0
C435 C 0.20851 0.71675 0.14287 0.0
C436 C 0.31129 0.7985 0.15473 0.0
H437 H 0.34918 0.89922 0.17405 0.0
C438 C 0.34534 0.79636 0.14736 0.0
C439 C 0.31234 0.83619 0.16386 0.0
C440 C 0.27673 0.84002 0.17239 0.0
C441 C 0.38083 0.83074 0.14967 0.0
C442 C 0.38232 0.86799 0.15991 0.0
C443 C 0.34788 0.87056 0.16618 0.0
C444 C 0.41967 0.90333 0.16681 0.0
C445 C 0.41659 0.82671 0.14159 0.0
C446 C 0.44557 0.90067 0.18163 0.0
C447 C 0.47802 0.93503 0.19084 0.0
C448 C 0.48511 0.97273 0.18547 0.0
C449 C 0.46021 0.97516 0.1699 0.0
C450 C 0.42749 0.94069 0.16075 0.0
H451 H 0.40881 0.80102 0.12823 0.0
H452 H 0.43701 0.85465 0.13609 0.0
H453 H 0.43184 0.82092 0.15471 0.0
H454 H 0.43969 0.87233 0.18686 0.0
H455 H 0.49688 0.93238 0.20275 0.0
H456 H 0.49296 0.14836 0.53235 0.0
H457 H 0.50307 0.21817 0.53257 0.0
H458 H 0.59716 0.23517 0.49139 0.0
H459 H 0.58644 0.16509 0.49064 0.0
H460 H 0.56725 0.28876 0.54586 0.0
H461 H 0.52892 0.27297 0.45951 0.0
H462 H 0.51853 0.23014 0.47272 0.0
H463 H 0.56681 0.25799 0.46504 0.0
C464 C 0.51582 0.16704 0.52338 0.0
C465 C 0.5389 0.15136 0.51148 0.0
C466 C 0.52155 0.20686 0.52349 0.0
C467 C 0.55037 0.23166 0.51166 0.0
C468 C 0.57414 0.21633 0.50021 0.0
H469 H 0.6351 0.49185 0.53429 0.0
H470 H 0.6311 0.42348 0.52626 0.0
C471 C 0.5683 0.17644 0.50002 0.0
C472 C 0.55588 0.27374 0.51171 0.0
H473 H 0.55413 0.33921 0.47952 0.0
C474 C 0.56441 0.29978 0.53136 0.0
C475 C 0.55167 0.28792 0.49277 0.0
C476 C 0.54062 0.26076 0.47132 0.0
C477 C 0.5691 0.33965 0.53261 0.0
C478 C 0.56598 0.35419 0.51364 0.0
C479 C 0.55704 0.32811 0.49398 0.0
C480 C 0.57071 0.39613 0.51424 0.0
C481 C 0.57649 0.36559 0.55435 0.0
C482 C 0.53888 0.40373 0.50874 0.0
C483 C 0.54131 0.44293 0.51303 0.0
C484 C 0.57557 0.47489 0.52292 0.0
C485 C 0.60833 0.46763 0.52673 0.0
C486 C 0.60599 0.42862 0.5223 0.0
H487 H 0.56875 0.34728 0.56738 0.0
H488 H 0.60786 0.38637 0.55701 0.0
H489 H 0.55962 0.38402 0.55545 0.0
H490 H 0.51145 0.37905 0.5024 0.0
H491 H 0.51558 0.44772 0.51012 0.0
H492 H 0.42977 0.58997 0.83138 0.0
H493 H 0.37274 0.59319 0.81526 0.0
H494 H 0.36503 0.50041 0.76304 0.0
H495 H 0.42153 0.49639 0.77937 0.0
H496 H 0.35872 0.60837 0.7737 0.0
H497 H 0.25818 0.45456 0.78767 0.0
H498 H 0.30672 0.48037 0.80041 0.0
H499 H 0.29947 0.45965 0.77248 0.0
C500 C 0.41576 0.57018 0.81653 0.0
C501 C 0.4295 0.54255 0.80674 0.0
C502 C 0.38352 0.57228 0.80724 0.0
C503 C 0.36471 0.5469 0.78804 0.0
C504 C 0.37894 0.51989 0.77798 0.0
H505 H 0.12776 0.51859 0.77284 0.0
H506 H 0.18592 0.51882 0.75586 0.0
C507 C 0.41105 0.51758 0.78735 0.0
C508 C 0.32878 0.54741 0.77959 0.0
H509 H 0.23048 0.49619 0.77902 0.0
C510 C 0.33059 0.58352 0.7743 0.0
C511 C 0.29225 0.51461 0.77992 0.0
C512 C 0.28871 0.47509 0.78549 0.0
C513 C 0.29667 0.58901 0.7714 0.0
C514 C 0.26042 0.55781 0.7742 0.0
C515 C 0.25841 0.52016 0.77697 0.0
C516 C 0.22646 0.566 0.77984 0.0
C517 C 0.3001 0.629 0.76678 0.0
C518 C 0.23012 0.59344 0.79846 0.0
C519 C 0.19718 0.59294 0.80826 0.0
C520 C 0.16009 0.56499 0.79956 0.0
C521 C 0.15621 0.54027 0.77983 0.0
C522 C 0.1893 0.5405 0.77009 0.0
H523 H 0.32458 0.64203 0.75659 0.0
H524 H 0.27286 0.62614 0.7587 0.0
H525 H 0.30639 0.65039 0.78202 0.0
H526 H 0.25841 0.61277 0.80654 0.0
H527 H 0.20087 0.61265 0.82334 0.0
H528 H 0.92636 0.43307 0.1681 0.0
H529 H 0.86228 0.37926 0.17037 0.0
H530 H 0.89236 0.29632 0.12736 0.0
H531 H 0.95736 0.35036 0.12537 0.0
H532 H 0.80347 0.33171 0.13981 0.0
H533 H 0.85917 0.23909 0.17877 0.0
H534 H 0.88965 0.29041 0.17591 0.0
H535 H 0.87749 0.25063 0.15338 0.0
C536 C 0.91939 0.40336 0.15913 0.0
C537 C 0.94691 0.39562 0.14678 0.0
C538 C 0.8827 0.37268 0.16037 0.0
C539 C 0.87277 0.33363 0.14932 0.0
C540 C 0.89975 0.32607 0.13637 0.0
H541 H 0.65859 0.12209 0.16431 0.0
H542 H 0.71807 0.16579 0.14944 0.0
C543 C 0.9367 0.3569 0.13514 0.0
C544 C 0.8344 0.30114 0.15204 0.0
H545 H 0.79135 0.21546 0.17385 0.0
C546 C 0.80077 0.30603 0.14703 0.0
C547 C 0.83098 0.26767 0.16147 0.0
C548 C 0.86617 0.2616 0.16788 0.0
C549 C 0.76394 0.27902 0.15177 0.0
C550 C 0.76074 0.24651 0.16193 0.0
C551 C 0.79404 0.24051 0.16606 0.0
C552 C 0.72368 0.22034 0.16997 0.0
C553 C 0.7288 0.28585 0.14623 0.0
C554 C 0.70743 0.2366 0.18651 0.0
C555 C 0.67372 0.21177 0.19511 0.0
C556 C 0.65565 0.17029 0.18728 0.0
C557 C 0.67176 0.15403 0.17058 0.0
C558 C 0.70571 0.17889 0.16208 0.0
H559 H 0.73439 0.30493 0.13359 0.0
H560 H 0.70325 0.2568 0.14074 0.0
H561 H 0.7214 0.30149 0.16066 0.0
H562 H 0.72131 0.26842 0.19308 0.0
H563 H 0.66198 0.22494 0.20806 0.0
H564 H 0.05877 0.46264 0.07627 0.0
H565 H 0.06549 0.46079 0.03784 0.0
H566 H 0.14228 0.58758 0.04906 0.0
H567 H 0.13679 0.58941 0.08736 0.0
H568 H 0.04348 0.49875 0.01294 0.0
H569 H 0.20145 0.54672 0.00744 0.0
H570 H 0.1776 0.53188 0.03132 0.0
H571 H 0.19196 0.5824 0.02611 0.0
C572 C 0.07744 0.49001 0.07056 0.0
C573 C 0.09727 0.52615 0.08488 0.0
C574 C 0.08136 0.48888 0.0486 0.0
C575 C 0.10501 0.52387 0.04058 0.0
C576 C 0.12489 0.5599 0.05488 0.0
H577 H 0.06773 0.58243 0.92015 0.0
H578 H 0.07598 0.57755 0.95768 0.0
C579 C 0.12138 0.56096 0.07681 0.0
C580 C 0.106 0.52374 0.01722 0.0
H581 H 0.16712 0.55473 0.97761 0.0
C582 C 0.07053 0.51044 0.00518 0.0
C583 C 0.14125 0.53841 0.00699 0.0
C584 C 0.18015 0.55022 0.01862 0.0
C585 C 0.06936 0.51305 0.98344 0.0
C586 C 0.10467 0.5306 0.97362 0.0
C587 C 0.14013 0.5421 0.98532 0.0
C588 C 0.10496 0.53805 0.95136 0.0
C589 C 0.03021 0.49704 0.97124 0.0
C590 C 0.12084 0.51962 0.93558 0.0
C591 C 0.11678 0.52304 0.91414 0.0
C592 C 0.09668 0.54478 0.90834 0.0
C593 C 0.083 0.5652 0.9243 0.0
C594 C 0.08746 0.56219 0.94566 0.0
H595 H 1.00731 0.47395 0.97898 0.0
H596 H 0.02166 0.52215 0.97089 0.0
H597 H 0.03114 0.48353 0.95452 0.0
H598 H 0.13477 0.50116 0.93972 0.0
H599 H 0.12743 0.50698 0.90203 0.0
H600 H 0.61423 0.08731 0.43445 0.0
H601 H 0.6115 0.0867 0.39598 0.0
H602 H 0.48786 0.01333 0.39164 0.0
H603 H 0.49015 0.01355 0.43029 0.0
H604 H 0.57758 0.01258 0.36153 0.0
H605 H 0.50759 0.11852 0.36428 0.0
H606 H 0.53431 0.11634 0.38726 0.0
H607 H 0.48685 0.07715 0.37884 0.0
C608 C 0.58638 0.07092 0.42537 0.0
C609 C 0.55234 0.0506 0.43548 0.0
C610 C 0.58496 0.07059 0.40338 0.0
C611 C 0.54947 0.05033 0.39111 0.0
C612 C 0.51547 0.02943 0.40098 0.0
H613 H 0.48508 0.03242 0.25794 0.0
H614 H 0.48667 0.03286 0.29643 0.0
C615 C 0.51689 0.02943 0.42301 0.0
C616 C 0.54829 0.05132 0.36796 0.0
H617 H 0.52035 0.09272 0.33037 0.0
C618 C 0.56507 0.03003 0.35465 0.0
C619 C 0.5319 0.07413 0.35919 0.0
C620 C 0.51427 0.09811 0.37305 0.0
C621 C 0.56546 0.03051 0.33259 0.0
C622 C 0.54962 0.05388 0.32379 0.0
C623 C 0.53269 0.07505 0.33717 0.0
C624 C 0.54929 0.05576 0.30064 0.0
C625 C 0.58197 0.00519 0.31887 0.0
C626 C 0.58408 0.06958 0.2903 0.0
C627 C 0.58325 0.06888 0.26821 0.0
C628 C 0.5476 0.05469 0.25612 0.0
C629 C 0.51297 0.0427 0.26672 0.0
C630 C 0.51383 0.0432 0.28874 0.0
H631 H 0.583 0.98107 0.32699 0.0
H632 H 0.56453 0.99103 0.30338 0.0
H633 H 0.61215 0.02464 0.31555 0.0
H634 H 0.61186 0.08036 0.29928 0.0
H635 H 0.61042 0.07822 0.26055 0.0
H636 H 0.53602 0.57091 0.76384 0.0
H637 H 0.54208 0.57724 0.7262 0.0
H638 H 0.64932 0.56343 0.72782 0.0
H639 H 0.64339 0.55653 0.76556 0.0
H640 H 0.60257 0.6335 0.7064 0.0
H641 H 0.58208 0.47604 0.67814 0.0
H642 H 0.57058 0.49219 0.70445 0.0
H643 H 0.62027 0.50436 0.69879 0.0
C644 C 0.56095 0.56916 0.75627 0.0
C645 C 0.58911 0.56291 0.76772 0.0
C646 C 0.56437 0.57292 0.73474 0.0
C647 C 0.59588 0.57036 0.72421 0.0
C648 C 0.62444 0.56484 0.73562 0.0
H649 H 0.64126 0.56151 0.58983 0.0
H650 H 0.64887 0.56941 0.62876 0.0
C651 C 0.62105 0.56102 0.75719 0.0
C652 C 0.59835 0.57302 0.70121 0.0
H653 H 0.59497 0.51853 0.6523 0.0
C654 C 0.60106 0.60846 0.69454 0.0
C655 C 0.5963 0.54024 0.68584 0.0
C656 C 0.59182 0.50089 0.69206 0.0
C657 C 0.60183 0.61202 0.67282 0.0
C658 C 0.59924 0.57902 0.65745 0.0
C659 C 0.59712 0.54383 0.66416 0.0
C660 C 0.5972 0.57948 0.63422 0.0
C661 C 0.60569 0.65109 0.66655 0.0
C662 C 0.56592 0.58314 0.62444 0.0
C663 C 0.56149 0.57862 0.6022 0.0
C664 C 0.58807 0.56994 0.5894 0.0
C665 C 0.62013 0.56778 0.5993 0.0
C666 C 0.62458 0.5724 0.6215 0.0
H667 H 0.61834 0.67656 0.68007 0.0
H668 H 0.62418 0.65834 0.65286 0.0
H669 H 0.57644 0.64826 0.66168 0.0
H670 H 0.544 0.58773 0.63393 0.0
H671 H 0.53624 0.57991 0.595 0.0
H672 H 0.61828 0.1185 0.576 0.0
H673 H 0.62438 0.11729 0.61422 0.0
H674 H 0.51933 0.00719 0.60742 0.0
H675 H 0.51302 0.00779 0.56924 0.0
H676 H 0.56941 0.11661 0.64476 0.0
H677 H 0.59899 0.98084 0.63858 0.0
H678 H 0.60368 0.00793 0.6166 0.0
H679 H 0.55643 0.97427 0.6231 0.0
C680 C 0.59648 0.09395 0.58259 0.0
C681 C 0.56521 0.06319 0.56949 0.0
C682 C 0.60005 0.09332 0.60443 0.0
C683 C 0.57266 0.06181 0.61353 0.0
C684 C 0.5412 0.03134 0.6006 0.0
H685 H 0.53938 0.01277 0.74354 0.0
H686 H 0.53556 0.00828 0.70456 0.0
C687 C 0.53752 0.03195 0.57879 0.0
C688 C 0.57629 0.06154 0.6367 0.0
H689 H 0.58898 0.00816 0.67311 0.0
C690 C 0.57388 0.09303 0.65099 0.0
C691 C 0.58182 0.03052 0.64469 0.0
C692 C 0.58572 0.9966 0.62999 0.0
C693 C 0.57641 0.09416 0.67313 0.0
C694 C 0.58236 0.06339 0.68115 0.0
C695 C 0.58452 0.03172 0.66687 0.0
C696 C 0.58669 0.06398 0.70438 0.0
C697 C 0.57191 0.12787 0.68772 0.0
C698 C 0.61749 0.09597 0.71701 0.0
C699 C 0.61972 0.09858 0.73916 0.0
C700 C 0.59135 0.06906 0.74907 0.0
C701 C 0.56169 0.03586 0.7363 0.0
C702 C 0.5594 0.03335 0.71409 0.0
H703 H 0.5575 0.1426 0.67912 0.0
H704 H 0.5547 0.11664 0.70137 0.0
H705 H 0.6011 0.15107 0.69421 0.0
H706 H 0.63936 0.11939 0.70975 0.0
H707 H 0.64327 0.12413 0.74859 0.0
H708 H 0.50734 0.55559 0.89966 0.0
H709 H 0.50387 0.55737 0.93836 0.0
H710 H 0.62091 0.56716 0.9437 0.0
H711 H 0.62488 0.56567 0.90533 0.0
H712 H 0.51403 0.5023 0.96218 0.0
H713 H 0.62222 0.65963 0.98953 0.0
H714 H 0.59974 0.64187 0.96263 0.0
H715 H 0.63932 0.63089 0.97035 0.0
C716 C 0.53247 0.55851 0.90909 0.0
C717 C 0.5664 0.56055 0.89935 0.0
C718 C 0.53039 0.55944 0.93117 0.0
C719 C 0.56232 0.56293 0.94387 0.0
C720 C 0.59621 0.56519 0.93422 0.0
H721 H 0.57727 0.49935 0.06771 0.0
H722 H 0.57744 0.50502 0.02977 0.0
C723 C 0.59827 0.56406 0.91222 0.0
C724 C 0.55993 0.56237 0.96709 0.0
H725 H 0.60353 0.61648 0.01578 0.0
C726 C 0.53331 0.52737 0.97394 0.0
C727 C 0.58496 0.59526 0.98236 0.0
C728 C 0.61295 0.63421 0.97592 0.0
C729 C 0.53189 0.5239 0.99567 0.0
C730 C 0.55808 0.55613 0.01084 0.0
C731 C 0.58382 0.59164 0.00406 0.0
C732 C 0.55919 0.55353 0.03385 0.0
C733 C 0.50234 0.48582 0.00222 0.0
C734 C 0.55005 0.57976 0.04875 0.0
C735 C 0.55022 0.5768 0.07042 0.0
C736 C 0.55982 0.54772 0.07761 0.0
C737 C 0.56995 0.52218 0.06269 0.0
C738 C 0.56966 0.52509 0.041 0.0
H739 H 0.47847 0.46847 0.98957 0.0
H740 H 0.51688 0.46641 0.0052 0.0
H741 H 0.48955 0.49272 0.01717 0.0
H742 H 0.54225 0.60215 0.04355 0.0
H743 H 0.5428 0.59726 0.08158 0.0
H744 H 0.03643 0.48055 0.21628 0.0
H745 H 0.02901 0.48558 0.25463 0.0
H746 H 0.12167 0.60548 0.26503 0.0
H747 H 0.12923 0.60105 0.22659 0.0
H748 H 0.08351 0.50104 0.28927 0.0
H749 H 0.02832 0.61887 0.29285 0.0
H750 H 0.03094 0.58941 0.26802 0.0
H751 H 0.07408 0.63073 0.28108 0.0
C752 C 0.05542 0.50801 0.22666 0.0
C753 C 0.08324 0.54057 0.21829 0.0
C754 C 0.05113 0.51074 0.2486 0.0
C755 C 0.07437 0.54609 0.26256 0.0
C756 C 0.10301 0.57818 0.25441 0.0
H757 H 0.10822 0.58929 0.3998 0.0
H758 H 0.11335 0.57541 0.36135 0.0
C759 C 0.1074 0.57549 0.23245 0.0
C760 C 0.06807 0.54953 0.28561 0.0
H761 H 0.04096 0.60253 0.32588 0.0
C762 C 0.07412 0.52314 0.29731 0.0
C763 C 0.05516 0.57793 0.29588 0.0
C764 C 0.04637 0.60565 0.28383 0.0
C765 C 0.06845 0.52504 0.31922 0.0
C766 C 0.05686 0.55439 0.32964 0.0
C767 C 0.05 0.58017 0.31783 0.0
C768 C 0.05287 0.55986 0.35294 0.0
C769 C 0.07459 0.49544 0.33097 0.0
C770 C 1.01721 0.55603 0.36092 0.0
C771 C 1.01427 0.56432 0.38291 0.0
C772 C 0.04709 0.577 0.39721 0.0
C773 C 0.08254 0.57997 0.38914 0.0
C774 C 0.08542 0.57163 0.36721 0.0
H775 H 0.07272 0.46841 0.31985 0.0
H776 H 0.10398 0.51011 0.33943 0.0
H777 H 0.05282 0.48562 0.34302 0.0
H778 H 0.99183 0.54723 0.35011 0.0
H779 H 0.98669 0.56213 0.38865 0.0
loop_
_geom_bond_atom_site_label_1
_geom_bond_atom_site_label_2
_geom_bond_distance
_geom_bond_site_symmetry_2
_ccdc_geom_bond_type
Tb0 O3 2.453 . S
Tb0 O4 2.596 . S
Tb0 O5 2.374 . S
Tb0 O13 2.343 . S
Tb0 O15 2.353 . S
Tb0 O17 2.427 . S
Tb0 O18 2.513 . S
C1 O5 1.251 . S
C1 O7 1.263 . S
Tb2 O4 2.343 . S
Tb2 O7 2.353 . S
Tb2 O10 2.427 1_455 S
Tb2 O11 2.513 1_455 S
Tb2 O12 2.453 . S
Tb2 O13 2.596 . S
Tb2 O14 2.374 . S
O3 Tb0 2.453 . S
O3 C19 1.245 . S
O4 Tb0 2.596 . S
O4 Tb2 2.343 . S
O4 C19 1.259 . S
O5 Tb0 2.374 . S
O5 C1 1.251 . S
C6 O10 1.275 . S
C6 O11 1.246 . S
O7 C1 1.263 . S
O7 Tb2 2.353 . S
C8 O12 1.245 . S
C8 O13 1.259 . S
C9 O14 1.250 . S
C9 O15 1.263 . S
O10 Tb2 2.427 1_655 S
O10 C6 1.275 . S
O11 Tb2 2.513 1_655 S
O11 C6 1.246 . S
O12 Tb2 2.453 . S
O12 C8 1.245 . S
O13 Tb0 2.343 . S
O13 Tb2 2.596 . S
O13 C8 1.259 . S
O14 Tb2 2.374 . S
O14 C9 1.250 . S
O15 Tb0 2.353 . S
O15 C9 1.263 . S
C16 O17 1.275 . S
C16 O18 1.246 . S
O17 Tb0 2.427 . S
O17 C16 1.275 . S
O18 Tb0 2.513 . S
O18 C16 1.246 . S
C19 O3 1.245 . S
C19 O4 1.259 . S
Tb20 O23 2.453 . S
Tb20 O24 2.596 . S
Tb20 O25 2.374 . S
Tb20 O33 2.343 . S
Tb20 O35 2.353 . S
Tb20 O37 2.427 1_545 S
Tb20 O38 2.513 1_545 S
C21 O25 1.251 . S
C21 O27 1.263 . S
Tb22 O24 2.343 . S
Tb22 O27 2.353 . S
Tb22 O30 2.427 . S
Tb22 O31 2.513 . S
Tb22 O32 2.453 . S
Tb22 O33 2.596 . S
Tb22 O34 2.374 . S
O23 Tb20 2.453 . S
O23 C39 1.245 . S
O24 Tb20 2.596 . S
O24 Tb22 2.343 . S
O24 C39 1.259 . S
O25 Tb20 2.374 . S
O25 C21 1.251 . S
C26 O30 1.275 . S
C26 O31 1.246 . S
O27 C21 1.263 . S
O27 Tb22 2.353 . S
C28 O32 1.245 1_565 S
C28 O33 1.259 1_565 S
C29 O34 1.250 . S
C29 O35 1.263 . S
O30 Tb22 2.427 . S
O30 C26 1.275 . S
O31 Tb22 2.513 . S
O31 C26 1.246 . S
O32 Tb22 2.453 . S
O32 C28 1.245 1_545 S
O33 Tb20 2.343 . S
O33 Tb22 2.596 . S
O33 C28 1.259 1_545 S
O34 Tb22 2.374 . S
O34 C29 1.250 . S
O35 Tb20 2.353 . S
O35 C29 1.263 . S
C36 O37 1.275 . S
C36 O38 1.246 . S
O37 Tb20 2.427 1_565 S
O37 C36 1.275 . S
O38 Tb20 2.513 1_565 S
O38 C36 1.246 . S
C39 O23 1.245 . S
C39 O24 1.259 . S
Tb40 O43 2.453 . S
Tb40 O44 2.596 . S
Tb40 O45 2.374 . S
Tb40 O53 2.343 . S
Tb40 O55 2.353 . S
Tb40 O57 2.427 . S
Tb40 O58 2.513 . S
C41 O45 1.251 . S
C41 O47 1.263 . S
Tb42 O44 2.343 . S
Tb42 O47 2.353 . S
Tb42 O50 2.427 . S
Tb42 O51 2.513 . S
Tb42 O52 2.453 . S
Tb42 O53 2.596 . S
Tb42 O54 2.374 . S
O43 Tb40 2.453 . S
O43 C59 1.245 . S
O44 Tb40 2.596 . S
O44 Tb42 2.343 . S
O44 C59 1.259 . S
O45 Tb40 2.374 . S
O45 C41 1.251 . S
C46 O50 1.275 . S
C46 O51 1.246 . S
O47 C41 1.263 . S
O47 Tb42 2.353 . S
C48 O52 1.245 . S
C48 O53 1.259 . S
C49 O54 1.250 . S
C49 O55 1.263 . S
O50 Tb42 2.427 . S
O50 C46 1.275 . S
O51 Tb42 2.513 . S
O51 C46 1.246 . S
O52 Tb42 2.453 . S
O52 C48 1.245 . S
O53 Tb40 2.343 . S
O53 Tb42 2.596 . S
O53 C48 1.259 . S
O54 Tb42 2.374 . S
O54 C49 1.250 . S
O55 Tb40 2.353 . S
O55 C49 1.263 . S
C56 O57 1.275 . S
C56 O58 1.246 . S
O57 Tb40 2.427 . S
O57 C56 1.275 . S
O58 Tb40 2.513 . S
O58 C56 1.246 . S
C59 O43 1.245 . S
C59 O44 1.259 . S
H60 C65 0.930 . S
H61 C68 0.930 . S
H62 C70 0.930 . S
H63 C64 1.016 . S
C64 H63 1.016 . S
C64 N71 1.286 . S
C65 H60 0.930 . S
C65 C66 1.397 . S
C65 C67 1.361 . S
C66 C65 1.397 . S
C66 C70 1.390 . S
C67 C65 1.361 . S
C67 C68 1.393 . S
C67 N71 1.413 . S
C68 H61 0.930 . S
C68 C67 1.393 . S
C68 C69 1.399 . S
C69 C68 1.399 . S
C69 C70 1.381 . S
C70 H62 0.930 . S
C70 C66 1.390 . S
C70 C69 1.381 . S
N71 C64 1.286 . S
N71 C67 1.413 . S
H72 C77 0.930 . S
H73 C80 0.930 . S
H74 C82 0.930 . S
H75 C76 1.016 . S
C76 H75 1.016 . S
C76 N83 1.286 . S
C77 H72 0.930 . S
C77 C78 1.397 . S
C77 C79 1.361 . S
C78 C77 1.397 . S
C78 C82 1.390 . S
C79 C77 1.361 . S
C79 C80 1.393 . S
C79 N83 1.413 . S
C80 H73 0.930 . S
C80 C79 1.393 . S
C80 C81 1.399 . S
C81 C80 1.399 . S
C81 C82 1.381 . S
C82 H74 0.930 . S
C82 C78 1.390 . S
C82 C81 1.381 . S
N83 C76 1.286 . S
N83 C79 1.413 . S
H84 C89 0.930 . S
H85 C92 0.930 . S
H86 C94 0.930 . S
H87 C88 1.016 . S
C88 H87 1.016 . S
C88 N95 1.286 . S
C89 H84 0.930 . S
C89 C90 1.397 . S
C89 C91 1.361 . S
C90 C89 1.397 . S
C90 C94 1.390 . S
C91 C89 1.361 . S
C91 C92 1.393 . S
C91 N95 1.413 . S
C92 H85 0.930 . S
C92 C91 1.393 . S
C92 C93 1.399 . S
C93 C92 1.399 . S
C93 C94 1.381 . S
C94 H86 0.930 . S
C94 C90 1.390 . S
C94 C93 1.381 . S
N95 C88 1.286 . S
N95 C91 1.413 . S
H96 C101 0.930 . S
H97 C104 0.930 . S
H98 C106 0.930 . S
H99 C100 1.016 . S
C100 H99 1.016 . S
C100 N107 1.286 . S
C101 H96 0.930 . S
C101 C102 1.397 . S
C101 C103 1.361 1_455 S
C102 C101 1.397 . S
C102 C106 1.390 . S
C103 C101 1.361 1_655 S
C103 C104 1.393 . S
C103 N107 1.413 . S
C104 H97 0.930 . S
C104 C103 1.393 . S
C104 C105 1.399 1_655 S
C105 C104 1.399 1_455 S
C105 C106 1.381 . S
C106 H98 0.930 . S
C106 C102 1.390 . S
C106 C105 1.381 . S
N107 C100 1.286 . S
N107 C103 1.413 . S
H108 C113 0.930 . S
H109 C116 0.930 1_565 S
H110 C118 0.930 . S
H111 C112 1.016 . S
C112 H111 1.016 . S
C112 N119 1.286 . S
C113 H108 0.930 . S
C113 C114 1.397 . S
C113 C115 1.361 . S
C114 C113 1.397 . S
C114 C118 1.390 . S
C115 C113 1.361 . S
C115 C116 1.393 . S
C115 N119 1.413 1_545 S
C116 H109 0.930 1_545 S
C116 C115 1.393 . S
C116 C117 1.399 . S
C117 C116 1.399 . S
C117 C118 1.381 . S
C118 H110 0.930 . S
C118 C114 1.390 . S
C118 C117 1.381 . S
N119 C112 1.286 . S
N119 C115 1.413 1_565 S
H120 C125 0.930 . S
H121 C128 0.930 . S
H122 C130 0.930 . S
H123 C124 1.016 . S
C124 H123 1.016 . S
C124 N131 1.286 . S
C125 H120 0.930 . S
C125 C126 1.397 . S
C125 C127 1.361 . S
C126 C125 1.397 . S
C126 C130 1.390 . S
C127 C125 1.361 . S
C127 C128 1.393 . S
C127 N131 1.413 . S
C128 H121 0.930 . S
C128 C127 1.393 . S
C128 C129 1.399 . S
C129 C128 1.399 . S
C129 C130 1.381 . S
C130 H122 0.930 . S
C130 C126 1.390 . S
C130 C129 1.381 . S
N131 C124 1.286 . S
N131 C127 1.413 . S
H132 C140 0.929 . S
H133 C142 0.930 . S
H134 C144 0.930 . S
H135 C147 0.929 . S
H136 C150 0.930 . S
H137 C152 0.960 . S
H138 C152 0.960 . S
H139 C152 0.960 . S
C140 H132 0.929 . S
C140 C141 1.377 . S
C140 C142 1.384 . S
C141 C140 1.377 . S
C141 C147 1.390 . S
C142 H133 0.930 . S
C142 C140 1.384 . S
C142 C143 1.372 . S
C143 C142 1.372 . S
C143 C144 1.400 . S
C143 C148 1.490 . S
C144 H134 0.930 . S
C144 C143 1.400 . S
C144 C147 1.386 . S
H145 C161 0.930 . S
H146 C162 0.931 . S
C147 H135 0.929 . S
C147 C141 1.390 . S
C147 C144 1.386 . S
C148 C143 1.490 . S
C148 C150 1.395 . S
C148 C151 1.403 . S
H149 C155 0.930 . S
C150 H136 0.930 . S
C150 C148 1.395 . S
C150 C153 1.403 . S
C151 C148 1.403 . S
C151 C152 1.524 . S
C151 C155 1.400 . S
C152 H137 0.960 . S
C152 H138 0.960 . S
C152 H139 0.960 . S
C152 C151 1.524 . S
C153 C150 1.403 . S
C153 C154 1.392 . S
C153 C157 1.495 . S
C154 C153 1.392 . S
C154 C155 1.385 . S
C154 C156 1.478 . S
C155 H149 0.930 . S
C155 C151 1.400 . S
C155 C154 1.385 . S
C156 C154 1.478 . S
C156 C158 1.381 . S
C156 C162 1.383 . S
C157 C153 1.495 . S
C157 H163 0.959 . S
C157 H164 0.961 . S
C157 H165 0.960 . S
C158 C156 1.381 . S
C158 C159 1.394 . S
C158 H166 0.930 . S
C159 C158 1.394 . S
C159 C160 1.383 . S
C159 H167 0.929 . S
C160 C159 1.383 . S
C160 C161 1.377 . S
C161 H145 0.930 . S
C161 C160 1.377 . S
C161 C162 1.379 . S
C162 H146 0.931 . S
C162 C156 1.383 . S
C162 C161 1.379 . S
H163 C157 0.959 . S
H164 C157 0.961 . S
H165 C157 0.960 . S
H166 C158 0.930 . S
H167 C159 0.929 . S
H168 C176 0.929 . S
H169 C178 0.930 . S
H170 C180 0.930 . S
H171 C183 0.929 . S
H172 C186 0.930 . S
H173 C188 0.960 . S
H174 C188 0.960 . S
H175 C188 0.960 . S
C176 H168 0.929 . S
C176 C177 1.377 . S
C176 C178 1.384 . S
C177 C176 1.377 . S
C177 C183 1.390 . S
C178 H169 0.930 . S
C178 C176 1.384 . S
C178 C179 1.372 . S
C179 C178 1.372 . S
C179 C180 1.400 . S
C179 C184 1.490 . S
C180 H170 0.930 . S
C180 C179 1.400 . S
C180 C183 1.386 . S
H181 C197 0.930 . S
H182 C198 0.931 . S
C183 H171 0.929 . S
C183 C177 1.390 . S
C183 C180 1.386 . S
C184 C179 1.490 . S
C184 C186 1.395 . S
C184 C187 1.403 . S
H185 C191 0.930 . S
C186 H172 0.930 . S
C186 C184 1.395 . S
C186 C189 1.403 . S
C187 C184 1.403 . S
C187 C188 1.524 . S
C187 C191 1.400 . S
C188 H173 0.960 . S
C188 H174 0.960 . S
C188 H175 0.960 . S
C188 C187 1.524 . S
C189 C186 1.403 . S
C189 C190 1.392 . S
C189 C193 1.495 . S
C190 C189 1.392 . S
C190 C191 1.385 . S
C190 C192 1.478 . S
C191 H185 0.930 . S
C191 C187 1.400 . S
C191 C190 1.385 . S
C192 C190 1.478 . S
C192 C194 1.381 . S
C192 C198 1.383 . S
C193 C189 1.495 . S
C193 H199 0.959 . S
C193 H200 0.961 . S
C193 H201 0.960 . S
C194 C192 1.381 . S
C194 C195 1.394 . S
C194 H202 0.930 . S
C195 C194 1.394 . S
C195 C196 1.383 . S
C195 H203 0.929 . S
C196 C195 1.383 . S
C196 C197 1.377 . S
C197 H181 0.930 . S
C197 C196 1.377 . S
C197 C198 1.379 . S
C198 H182 0.931 . S
C198 C192 1.383 . S
C198 C197 1.379 . S
H199 C193 0.959 . S
H200 C193 0.961 . S
H201 C193 0.960 . S
H202 C194 0.930 . S
H203 C195 0.929 . S
H204 C212 0.929 . S
H205 C214 0.930 . S
H206 C216 0.930 . S
H207 C219 0.929 . S
H208 C222 0.930 . S
H209 C224 0.960 . S
H210 C224 0.960 . S
H211 C224 0.960 . S
C212 H204 0.929 . S
C212 C213 1.377 . S
C212 C214 1.384 . S
C213 C212 1.377 . S
C213 C219 1.390 . S
C214 H205 0.930 . S
C214 C212 1.384 . S
C214 C215 1.372 . S
C215 C214 1.372 . S
C215 C216 1.400 . S
C215 C220 1.490 . S
C216 H206 0.930 . S
C216 C215 1.400 . S
C216 C219 1.386 . S
H217 C233 0.930 . S
H218 C234 0.931 . S
C219 H207 0.929 . S
C219 C213 1.390 . S
C219 C216 1.386 . S
C220 C215 1.490 . S
C220 C222 1.395 . S
C220 C223 1.403 . S
H221 C227 0.930 . S
C222 H208 0.930 . S
C222 C220 1.395 . S
C222 C225 1.403 . S
C223 C220 1.403 . S
C223 C224 1.524 . S
C223 C227 1.400 . S
C224 H209 0.960 . S
C224 H210 0.960 . S
C224 H211 0.960 . S
C224 C223 1.524 . S
C225 C222 1.403 . S
C225 C226 1.392 . S
C225 C229 1.495 . S
C226 C225 1.392 . S
C226 C227 1.385 . S
C226 C228 1.478 . S
C227 H221 0.930 . S
C227 C223 1.400 . S
C227 C226 1.385 . S
C228 C226 1.478 . S
C228 C230 1.381 . S
C228 C234 1.383 . S
C229 C225 1.495 . S
C229 H235 0.959 . S
C229 H236 0.961 . S
C229 H237 0.960 . S
C230 C228 1.381 . S
C230 C231 1.394 . S
C230 H238 0.930 . S
C231 C230 1.394 . S
C231 C232 1.383 . S
C231 H239 0.929 . S
C232 C231 1.383 . S
C232 C233 1.377 . S
C233 H217 0.930 . S
C233 C232 1.377 . S
C233 C234 1.379 . S
C234 H218 0.931 . S
C234 C228 1.383 . S
C234 C233 1.379 . S
H235 C229 0.959 . S
H236 C229 0.961 . S
H237 C229 0.960 . S
H238 C230 0.930 . S
H239 C231 0.929 . S
H240 C248 0.929 . S
H241 C250 0.930 . S
H242 C252 0.930 . S
H243 C255 0.929 . S
H244 C258 0.930 . S
H245 C260 0.960 . S
H246 C260 0.960 . S
H247 C260 0.960 . S
C248 H240 0.929 . S
C248 C249 1.377 . S
C248 C250 1.384 . S
C249 C248 1.377 . S
C249 C255 1.390 . S
C250 H241 0.930 . S
C250 C248 1.384 . S
C250 C251 1.372 . S
C251 C250 1.372 . S
C251 C252 1.400 . S
C251 C256 1.490 . S
C252 H242 0.930 . S
C252 C251 1.400 . S
C252 C255 1.386 . S
H253 C269 0.930 . S
H254 C270 0.931 . S
C255 H243 0.929 . S
C255 C249 1.390 . S
C255 C252 1.386 . S
C256 C251 1.490 . S
C256 C258 1.395 . S
C256 C259 1.403 . S
H257 C263 0.930 . S
C258 H244 0.930 . S
C258 C256 1.395 . S
C258 C261 1.403 . S
C259 C256 1.403 . S
C259 C260 1.524 . S
C259 C263 1.400 . S
C260 H245 0.960 . S
C260 H246 0.960 . S
C260 H247 0.960 . S
C260 C259 1.524 . S
C261 C258 1.403 . S
C261 C262 1.392 . S
C261 C265 1.495 . S
C262 C261 1.392 . S
C262 C263 1.385 . S
C262 C264 1.478 . S
C263 H257 0.930 . S
C263 C259 1.400 . S
C263 C262 1.385 . S
C264 C262 1.478 . S
C264 C266 1.381 . S
C264 C270 1.383 . S
C265 C261 1.495 . S
C265 H271 0.959 . S
C265 H272 0.961 . S
C265 H273 0.960 . S
C266 C264 1.381 . S
C266 C267 1.394 . S
C266 H274 0.930 . S
C267 C266 1.394 . S
C267 C268 1.383 . S
C267 H275 0.929 . S
C268 C267 1.383 . S
C268 C269 1.377 . S
C269 H253 0.930 . S
C269 C268 1.377 . S
C269 C270 1.379 . S
C270 H254 0.931 . S
C270 C264 1.383 . S
C270 C269 1.379 . S
H271 C265 0.959 . S
H272 C265 0.961 . S
H273 C265 0.960 . S
H274 C266 0.930 . S
H275 C267 0.929 . S
H276 C284 0.929 . S
H277 C286 0.930 . S
H278 C288 0.930 . S
H279 C291 0.929 . S
H280 C294 0.930 . S
H281 C296 0.960 . S
H282 C296 0.960 . S
H283 C296 0.960 . S
C284 H276 0.929 . S
C284 C285 1.377 . S
C284 C286 1.384 . S
C285 C284 1.377 . S
C285 C291 1.390 . S
C286 H277 0.930 . S
C286 C284 1.384 . S
C286 C287 1.372 . S
C287 C286 1.372 . S
C287 C288 1.400 . S
C287 C292 1.490 . S
C288 H278 0.930 . S
C288 C287 1.400 . S
C288 C291 1.386 . S
H289 C305 0.930 . S
H290 C306 0.931 . S
C291 H279 0.929 . S
C291 C285 1.390 . S
C291 C288 1.386 . S
C292 C287 1.490 . S
C292 C294 1.395 . S
C292 C295 1.403 . S
H293 C299 0.930 . S
C294 H280 0.930 . S
C294 C292 1.395 . S
C294 C297 1.403 . S
C295 C292 1.403 . S
C295 C296 1.524 . S
C295 C299 1.400 . S
C296 H281 0.960 . S
C296 H282 0.960 . S
C296 H283 0.960 . S
C296 C295 1.524 . S
C297 C294 1.403 . S
C297 C298 1.392 . S
C297 C301 1.495 . S
C298 C297 1.392 . S
C298 C299 1.385 . S
C298 C300 1.478 . S
C299 H293 0.930 . S
C299 C295 1.400 . S
C299 C298 1.385 . S
C300 C298 1.478 . S
C300 C302 1.381 . S
C300 C306 1.383 . S
C301 C297 1.495 . S
C301 H307 0.959 . S
C301 H308 0.961 . S
C301 H309 0.960 . S
C302 C300 1.381 . S
C302 C303 1.394 . S
C302 H310 0.930 . S
C303 C302 1.394 . S
C303 C304 1.383 . S
C303 H311 0.929 . S
C304 C303 1.383 . S
C304 C305 1.377 . S
C305 H289 0.930 . S
C305 C304 1.377 . S
C305 C306 1.379 . S
C306 H290 0.931 . S
C306 C300 1.383 . S
C306 C305 1.379 . S
H307 C301 0.959 . S
H308 C301 0.961 . S
H309 C301 0.960 . S
H310 C302 0.930 . S
H311 C303 0.929 . S
H312 C320 0.929 . S
H313 C322 0.930 . S
H314 C324 0.930 . S
H315 C327 0.929 . S
H316 C330 0.930 . S
H317 C332 0.960 . S
H318 C332 0.960 . S
H319 C332 0.960 . S
C320 H312 0.929 . S
C320 C321 1.377 . S
C320 C322 1.384 . S
C321 C320 1.377 . S
C321 C327 1.390 . S
C322 H313 0.930 . S
C322 C320 1.384 . S
C322 C323 1.372 . S
C323 C322 1.372 . S
C323 C324 1.400 . S
C323 C328 1.490 . S
C324 H314 0.930 . S
C324 C323 1.400 . S
C324 C327 1.386 . S
H325 C341 0.930 . S
H326 C342 0.931 . S
C327 H315 0.929 . S
C327 C321 1.390 . S
C327 C324 1.386 . S
C328 C323 1.490 . S
C328 C330 1.395 . S
C328 C331 1.403 . S
H329 C335 0.930 . S
C330 H316 0.930 . S
C330 C328 1.395 . S
C330 C333 1.403 . S
C331 C328 1.403 . S
C331 C332 1.524 . S
C331 C335 1.400 . S
C332 H317 0.960 . S
C332 H318 0.960 . S
C332 H319 0.960 . S
C332 C331 1.524 . S
C333 C330 1.403 . S
C333 C334 1.392 . S
C333 C337 1.495 . S
C334 C333 1.392 . S
C334 C335 1.385 . S
C334 C336 1.478 . S
C335 H329 0.930 . S
C335 C331 1.400 . S
C335 C334 1.385 . S
C336 C334 1.478 . S
C336 C338 1.381 . S
C336 C342 1.383 . S
C337 C333 1.495 . S
C337 H343 0.959 . S
C337 H344 0.961 . S
C337 H345 0.960 . S
C338 C336 1.381 . S
C338 C339 1.394 . S
C338 H346 0.930 . S
C339 C338 1.394 . S
C339 C340 1.383 . S
C339 H347 0.929 . S
C340 C339 1.383 . S
C340 C341 1.377 . S
C341 H325 0.930 . S
C341 C340 1.377 . S
C341 C342 1.379 . S
C342 H326 0.931 . S
C342 C336 1.383 . S
C342 C341 1.379 . S
H343 C337 0.959 . S
H344 C337 0.961 . S
H345 C337 0.960 . S
H346 C338 0.930 . S
H347 C339 0.929 . S
H348 C356 0.929 . S
H349 C358 0.930 . S
H350 C360 0.930 . S
H351 C363 0.929 . S
H352 C366 0.930 . S
H353 C368 0.960 . S
H354 C368 0.960 . S
H355 C368 0.960 . S
C356 H348 0.929 . S
C356 C357 1.377 . S
C356 C358 1.384 . S
C357 C356 1.377 . S
C357 C363 1.390 . S
C358 H349 0.930 . S
C358 C356 1.384 . S
C358 C359 1.372 . S
C359 C358 1.372 . S
C359 C360 1.400 . S
C359 C364 1.490 . S
C360 H350 0.930 . S
C360 C359 1.400 . S
C360 C363 1.386 . S
H361 C377 0.930 . S
H362 C378 0.931 . S
C363 H351 0.929 . S
C363 C357 1.390 . S
C363 C360 1.386 . S
C364 C359 1.490 . S
C364 C366 1.395 . S
C364 C367 1.403 . S
H365 C371 0.930 . S
C366 H352 0.930 . S
C366 C364 1.395 . S
C366 C369 1.403 . S
C367 C364 1.403 . S
C367 C368 1.524 . S
C367 C371 1.400 . S
C368 H353 0.960 . S
C368 H354 0.960 . S
C368 H355 0.960 . S
C368 C367 1.524 . S
C369 C366 1.403 . S
C369 C370 1.392 . S
C369 C373 1.495 . S
C370 C369 1.392 . S
C370 C371 1.385 . S
C370 C372 1.478 . S
C371 H365 0.930 . S
C371 C367 1.400 . S
C371 C370 1.385 . S
C372 C370 1.478 . S
C372 C374 1.381 . S
C372 C378 1.383 . S
C373 C369 1.495 . S
C373 H379 0.959 . S
C373 H380 0.961 . S
C373 H381 0.960 . S
C374 C372 1.381 . S
C374 C375 1.394 . S
C374 H382 0.930 . S
C375 C374 1.394 . S
C375 C376 1.383 . S
C375 H383 0.929 . S
C376 C375 1.383 . S
C376 C377 1.377 . S
C377 H361 0.930 . S
C377 C376 1.377 . S
C377 C378 1.379 . S
C378 H362 0.931 . S
C378 C372 1.383 . S
C378 C377 1.379 . S
H379 C373 0.959 . S
H380 C373 0.961 . S
H381 C373 0.960 . S
H382 C374 0.930 . S
H383 C375 0.929 . S
H384 C392 0.929 . S
H385 C394 0.930 . S
H386 C396 0.930 . S
H387 C399 0.929 . S
H388 C402 0.930 . S
H389 C404 0.960 . S
H390 C404 0.960 . S
H391 C404 0.960 . S
C392 H384 0.929 . S
C392 C393 1.377 . S
C392 C394 1.384 . S
C393 C392 1.377 . S
C393 C399 1.390 . S
C394 H385 0.930 . S
C394 C392 1.384 . S
C394 C395 1.372 . S
C395 C394 1.372 . S
C395 C396 1.400 . S
C395 C400 1.490 . S
C396 H386 0.930 . S
C396 C395 1.400 . S
C396 C399 1.386 . S
H397 C413 0.930 1_455 S
H398 C414 0.931 . S
C399 H387 0.929 . S
C399 C393 1.390 . S
C399 C396 1.386 . S
C400 C395 1.490 . S
C400 C402 1.395 . S
C400 C403 1.403 . S
H401 C407 0.930 . S
C402 H388 0.930 . S
C402 C400 1.395 . S
C402 C405 1.403 . S
C403 C400 1.403 . S
C403 C404 1.524 . S
C403 C407 1.400 . S
C404 H389 0.960 . S
C404 H390 0.960 . S
C404 H391 0.960 . S
C404 C403 1.524 . S
C405 C402 1.403 . S
C405 C406 1.392 . S
C405 C409 1.495 . S
C406 C405 1.392 . S
C406 C407 1.385 . S
C406 C408 1.478 . S
C407 H401 0.930 . S
C407 C403 1.400 . S
C407 C406 1.385 . S
C408 C406 1.478 . S
C408 C410 1.381 . S
C408 C414 1.383 . S
C409 C405 1.495 . S
C409 H415 0.959 . S
C409 H416 0.961 . S
C409 H417 0.960 . S
C410 C408 1.381 . S
C410 C411 1.394 . S
C410 H418 0.930 . S
C411 C410 1.394 . S
C411 C412 1.383 1_655 S
C411 H419 0.929 . S
C412 C411 1.383 1_455 S
C412 C413 1.377 1_455 S
C413 H397 0.930 1_655 S
C413 C412 1.377 1_655 S
C413 C414 1.379 . S
C414 H398 0.931 . S
C414 C408 1.383 . S
C414 C413 1.379 . S
H415 C409 0.959 . S
H416 C409 0.961 . S
H417 C409 0.960 . S
H418 C410 0.930 . S
H419 C411 0.929 . S
H420 C428 0.929 . S
H421 C430 0.930 . S
H422 C432 0.930 . S
H423 C435 0.929 . S
H424 C438 0.930 . S
H425 C440 0.960 . S
H426 C440 0.960 . S
H427 C440 0.960 . S
C428 H420 0.929 . S
C428 C429 1.377 . S
C428 C430 1.384 . S
C429 C428 1.377 . S
C429 C435 1.390 . S
C430 H421 0.930 . S
C430 C428 1.384 . S
C430 C431 1.372 . S
C431 C430 1.372 . S
C431 C432 1.400 . S
C431 C436 1.490 . S
C432 H422 0.930 . S
C432 C431 1.400 . S
C432 C435 1.386 . S
H433 C449 0.930 1_545 S
H434 C450 0.931 . S
C435 H423 0.929 . S
C435 C429 1.390 . S
C435 C432 1.386 . S
C436 C431 1.490 . S
C436 C438 1.395 . S
C436 C439 1.403 . S
H437 C443 0.930 . S
C438 H424 0.930 . S
C438 C436 1.395 . S
C438 C441 1.403 . S
C439 C436 1.403 . S
C439 C440 1.524 . S
C439 C443 1.400 . S
C440 H425 0.960 . S
C440 H426 0.960 . S
C440 H427 0.960 . S
C440 C439 1.524 . S
C441 C438 1.403 . S
C441 C442 1.392 . S
C441 C445 1.495 . S
C442 C441 1.392 . S
C442 C443 1.385 . S
C442 C444 1.478 . S
C443 H437 0.930 . S
C443 C439 1.400 . S
C443 C442 1.385 . S
C444 C442 1.478 . S
C444 C446 1.381 . S
C444 C450 1.383 . S
C445 C441 1.495 . S
C445 H451 0.959 . S
C445 H452 0.961 . S
C445 H453 0.960 . S
C446 C444 1.381 . S
C446 C447 1.394 . S
C446 H454 0.930 . S
C447 C446 1.394 . S
C447 C448 1.383 . S
C447 H455 0.929 . S
C448 C447 1.383 . S
C448 C449 1.377 . S
C449 H433 0.930 1_565 S
C449 C448 1.377 . S
C449 C450 1.379 . S
C450 H434 0.931 . S
C450 C444 1.383 . S
C450 C449 1.379 . S
H451 C445 0.959 . S
H452 C445 0.961 . S
H453 C445 0.960 . S
H454 C446 0.930 . S
H455 C447 0.929 . S
H456 C464 0.929 . S
H457 C466 0.930 . S
H458 C468 0.930 . S
H459 C471 0.929 . S
H460 C474 0.930 . S
H461 C476 0.960 . S
H462 C476 0.960 . S
H463 C476 0.960 . S
C464 H456 0.929 . S
C464 C465 1.377 . S
C464 C466 1.384 . S
C465 C464 1.377 . S
C465 C471 1.390 . S
C466 H457 0.930 . S
C466 C464 1.384 . S
C466 C467 1.372 . S
C467 C466 1.372 . S
C467 C468 1.400 . S
C467 C472 1.490 . S
C468 H458 0.930 . S
C468 C467 1.400 . S
C468 C471 1.386 . S
H469 C485 0.930 . S
H470 C486 0.931 . S
C471 H459 0.929 . S
C471 C465 1.390 . S
C471 C468 1.386 . S
C472 C467 1.490 . S
C472 C474 1.395 . S
C472 C475 1.403 . S
H473 C479 0.930 . S
C474 H460 0.930 . S
C474 C472 1.395 . S
C474 C477 1.403 . S
C475 C472 1.403 . S
C475 C476 1.524 . S
C475 C479 1.400 . S
C476 H461 0.960 . S
C476 H462 0.960 . S
C476 H463 0.960 . S
C476 C475 1.524 . S
C477 C474 1.403 . S
C477 C478 1.392 . S
C477 C481 1.495 . S
C478 C477 1.392 . S
C478 C479 1.385 . S
C478 C480 1.478 . S
C479 H473 0.930 . S
C479 C475 1.400 . S
C479 C478 1.385 . S
C480 C478 1.478 . S
C480 C482 1.381 . S
C480 C486 1.383 . S
C481 C477 1.495 . S
C481 H487 0.959 . S
C481 H488 0.961 . S
C481 H489 0.960 . S
C482 C480 1.381 . S
C482 C483 1.394 . S
C482 H490 0.930 . S
C483 C482 1.394 . S
C483 C484 1.383 . S
C483 H491 0.929 . S
C484 C483 1.383 . S
C484 C485 1.377 . S
C485 H469 0.930 . S
C485 C484 1.377 . S
C485 C486 1.379 . S
C486 H470 0.931 . S
C486 C480 1.383 . S
C486 C485 1.379 . S
H487 C481 0.959 . S
H488 C481 0.961 . S
H489 C481 0.960 . S
H490 C482 0.930 . S
H491 C483 0.929 . S
H492 C500 0.929 . S
H493 C502 0.930 . S
H494 C504 0.930 . S
H495 C507 0.929 . S
H496 C510 0.930 . S
H497 C512 0.960 . S
H498 C512 0.960 . S
H499 C512 0.960 . S
C500 H492 0.929 . S
C500 C501 1.377 . S
C500 C502 1.384 . S
C501 C500 1.377 . S
C501 C507 1.390 . S
C502 H493 0.930 . S
C502 C500 1.384 . S
C502 C503 1.372 . S
C503 C502 1.372 . S
C503 C504 1.400 . S
C503 C508 1.490 . S
C504 H494 0.930 . S
C504 C503 1.400 . S
C504 C507 1.386 . S
H505 C521 0.930 . S
H506 C522 0.931 . S
C507 H495 0.929 . S
C507 C501 1.390 . S
C507 C504 1.386 . S
C508 C503 1.490 . S
C508 C510 1.395 . S
C508 C511 1.403 . S
H509 C515 0.930 . S
C510 H496 0.930 . S
C510 C508 1.395 . S
C510 C513 1.403 . S
C511 C508 1.403 . S
C511 C512 1.524 . S
C511 C515 1.400 . S
C512 H497 0.960 . S
C512 H498 0.960 . S
C512 H499 0.960 . S
C512 C511 1.524 . S
C513 C510 1.403 . S
C513 C514 1.392 . S
C513 C517 1.495 . S
C514 C513 1.392 . S
C514 C515 1.385 . S
C514 C516 1.478 . S
C515 H509 0.930 . S
C515 C511 1.400 . S
C515 C514 1.385 . S
C516 C514 1.478 . S
C516 C518 1.381 . S
C516 C522 1.383 . S
C517 C513 1.495 . S
C517 H523 0.959 . S
C517 H524 0.961 . S
C517 H525 0.960 . S
C518 C516 1.381 . S
C518 C519 1.394 . S
C518 H526 0.930 . S
C519 C518 1.394 . S
C519 C520 1.383 . S
C519 H527 0.929 . S
C520 C519 1.383 . S
C520 C521 1.377 . S
C521 H505 0.930 . S
C521 C520 1.377 . S
C521 C522 1.379 . S
C522 H506 0.931 . S
C522 C516 1.383 . S
C522 C521 1.379 . S
H523 C517 0.959 . S
H524 C517 0.961 . S
H525 C517 0.960 . S
H526 C518 0.930 . S
H527 C519 0.929 . S
H528 C536 0.929 . S
H529 C538 0.930 . S
H530 C540 0.930 . S
H531 C543 0.929 . S
H532 C546 0.930 . S
H533 C548 0.960 . S
H534 C548 0.960 . S
H535 C548 0.960 . S
C536 H528 0.929 . S
C536 C537 1.377 . S
C536 C538 1.384 . S
C537 C536 1.377 . S
C537 C543 1.390 . S
C538 H529 0.930 . S
C538 C536 1.384 . S
C538 C539 1.372 . S
C539 C538 1.372 . S
C539 C540 1.400 . S
C539 C544 1.490 . S
C540 H530 0.930 . S
C540 C539 1.400 . S
C540 C543 1.386 . S
H541 C557 0.930 . S
H542 C558 0.931 . S
C543 H531 0.929 . S
C543 C537 1.390 . S
C543 C540 1.386 . S
C544 C539 1.490 . S
C544 C546 1.395 . S
C544 C547 1.403 . S
H545 C551 0.930 . S
C546 H532 0.930 . S
C546 C544 1.395 . S
C546 C549 1.403 . S
C547 C544 1.403 . S
C547 C548 1.524 . S
C547 C551 1.400 . S
C548 H533 0.960 . S
C548 H534 0.960 . S
C548 H535 0.960 . S
C548 C547 1.524 . S
C549 C546 1.403 . S
C549 C550 1.392 . S
C549 C553 1.495 . S
C550 C549 1.392 . S
C550 C551 1.385 . S
C550 C552 1.478 . S
C551 H545 0.930 . S
C551 C547 1.400 . S
C551 C550 1.385 . S
C552 C550 1.478 . S
C552 C554 1.381 . S
C552 C558 1.383 . S
C553 C549 1.495 . S
C553 H559 0.959 . S
C553 H560 0.961 . S
C553 H561 0.960 . S
C554 C552 1.381 . S
C554 C555 1.394 . S
C554 H562 0.930 . S
C555 C554 1.394 . S
C555 C556 1.383 . S
C555 H563 0.929 . S
C556 C555 1.383 . S
C556 C557 1.377 . S
C557 H541 0.930 . S
C557 C556 1.377 . S
C557 C558 1.379 . S
C558 H542 0.931 . S
C558 C552 1.383 . S
C558 C557 1.379 . S
H559 C553 0.959 . S
H560 C553 0.961 . S
H561 C553 0.960 . S
H562 C554 0.930 . S
H563 C555 0.929 . S
H564 C572 0.929 . S
H565 C574 0.930 . S
H566 C576 0.930 . S
H567 C579 0.929 . S
H568 C582 0.930 . S
H569 C584 0.960 . S
H570 C584 0.960 . S
H571 C584 0.960 . S
C572 H564 0.929 . S
C572 C573 1.377 . S
C572 C574 1.384 . S
C573 C572 1.377 . S
C573 C579 1.390 . S
C574 H565 0.930 . S
C574 C572 1.384 . S
C574 C575 1.372 . S
C575 C574 1.372 . S
C575 C576 1.400 . S
C575 C580 1.490 . S
C576 H566 0.930 . S
C576 C575 1.400 . S
C576 C579 1.386 . S
H577 C593 0.930 . S
H578 C594 0.931 . S
C579 H567 0.929 . S
C579 C573 1.390 . S
C579 C576 1.386 . S
C580 C575 1.490 . S
C580 C582 1.395 . S
C580 C583 1.403 . S
H581 C587 0.924 1_556 S
C582 H568 0.930 . S
C582 C580 1.395 . S
C582 C585 1.403 1_554 S
C583 C580 1.403 . S
C583 C584 1.524 . S
C583 C587 1.412 . S
C584 H569 0.960 . S
C584 H570 0.960 . S
C584 H571 0.960 . S
C584 C583 1.524 . S
C585 C582 1.403 1_556 S
C585 C586 1.392 . S
C585 C589 1.495 . S
C586 C585 1.392 . S
C586 C587 1.380 1_556 S
C586 C588 1.478 . S
C587 H581 0.924 1_554 S
C587 C583 1.412 . S
C587 C586 1.380 1_554 S
C588 C586 1.478 . S
C588 C590 1.381 . S
C588 C594 1.383 . S
C589 C585 1.495 . S
C589 H595 0.959 . S
C589 H596 0.961 . S
C589 H597 0.960 . S
C590 C588 1.381 . S
C590 C591 1.394 . S
C590 H598 0.930 . S
C591 C590 1.394 . S
C591 C592 1.383 . S
C591 H599 0.929 . S
C592 C591 1.383 . S
C592 C593 1.377 . S
C593 H577 0.930 . S
C593 C592 1.377 . S
C593 C594 1.379 . S
C594 H578 0.931 . S
C594 C588 1.383 . S
C594 C593 1.379 . S
H595 C589 0.959 . S
H596 C589 0.961 . S
H597 C589 0.960 . S
H598 C590 0.930 . S
H599 C591 0.929 . S
H600 C608 0.929 . S
H601 C610 0.930 . S
H602 C612 0.930 . S
H603 C615 0.929 . S
H604 C618 0.930 . S
H605 C620 0.960 . S
H606 C620 0.960 . S
H607 C620 0.960 . S
C608 H600 0.929 . S
C608 C609 1.377 . S
C608 C610 1.384 . S
C609 C608 1.377 . S
C609 C615 1.390 . S
C610 H601 0.930 . S
C610 C608 1.384 . S
C610 C611 1.372 . S
C611 C610 1.372 . S
C611 C612 1.400 . S
C611 C616 1.490 . S
C612 H602 0.930 . S
C612 C611 1.400 . S
C612 C615 1.386 . S
H613 C629 0.930 . S
H614 C630 0.931 . S
C615 H603 0.929 . S
C615 C609 1.390 . S
C615 C612 1.386 . S
C616 C611 1.490 . S
C616 C618 1.395 . S
C616 C619 1.403 . S
H617 C623 0.930 . S
C618 H604 0.930 . S
C618 C616 1.395 . S
C618 C621 1.403 . S
C619 C616 1.403 . S
C619 C620 1.524 . S
C619 C623 1.400 . S
C620 H605 0.960 . S
C620 H606 0.960 . S
C620 H607 0.960 . S
C620 C619 1.524 . S
C621 C618 1.403 . S
C621 C622 1.392 . S
C621 C625 1.495 1_545 S
C622 C621 1.392 . S
C622 C623 1.385 . S
C622 C624 1.478 . S
C623 H617 0.930 . S
C623 C619 1.400 . S
C623 C622 1.385 . S
C624 C622 1.478 . S
C624 C626 1.381 . S
C624 C630 1.383 . S
C625 C621 1.495 1_565 S
C625 H631 0.959 . S
C625 H632 0.961 . S
C625 H633 0.960 1_565 S
C626 C624 1.381 . S
C626 C627 1.394 . S
C626 H634 0.930 . S
C627 C626 1.394 . S
C627 C628 1.383 . S
C627 H635 0.929 . S
C628 C627 1.383 . S
C628 C629 1.377 . S
C629 H613 0.930 . S
C629 C628 1.377 . S
C629 C630 1.379 . S
C630 H614 0.931 . S
C630 C624 1.383 . S
C630 C629 1.379 . S
H631 C625 0.959 . S
H632 C625 0.961 . S
H633 C625 0.960 1_545 S
H634 C626 0.930 . S
H635 C627 0.929 . S
H636 C644 0.929 . S
H637 C646 0.930 . S
H638 C648 0.930 . S
H639 C651 0.929 . S
H640 C654 0.930 . S
H641 C656 0.960 . S
H642 C656 0.960 . S
H643 C656 0.960 . S
C644 H636 0.929 . S
C644 C645 1.377 . S
C644 C646 1.384 . S
C645 C644 1.377 . S
C645 C651 1.390 . S
C646 H637 0.930 . S
C646 C644 1.384 . S
C646 C647 1.372 . S
C647 C646 1.372 . S
C647 C648 1.400 . S
C647 C652 1.490 . S
C648 H638 0.930 . S
C648 C647 1.400 . S
C648 C651 1.386 . S
H649 C665 0.930 . S
H650 C666 0.931 . S
C651 H639 0.929 . S
C651 C645 1.390 . S
C651 C648 1.386 . S
C652 C647 1.490 . S
C652 C654 1.395 . S
C652 C655 1.403 . S
H653 C659 0.930 . S
C654 H640 0.930 . S
C654 C652 1.395 . S
C654 C657 1.403 . S
C655 C652 1.403 . S
C655 C656 1.524 . S
C655 C659 1.400 . S
C656 H641 0.960 . S
C656 H642 0.960 . S
C656 H643 0.960 . S
C656 C655 1.524 . S
C657 C654 1.403 . S
C657 C658 1.392 . S
C657 C661 1.495 . S
C658 C657 1.392 . S
C658 C659 1.385 . S
C658 C660 1.478 . S
C659 H653 0.930 . S
C659 C655 1.400 . S
C659 C658 1.385 . S
C660 C658 1.478 . S
C660 C662 1.381 . S
C660 C666 1.383 . S
C661 C657 1.495 . S
C661 H667 0.959 . S
C661 H668 0.961 . S
C661 H669 0.960 . S
C662 C660 1.381 . S
C662 C663 1.394 . S
C662 H670 0.930 . S
C663 C662 1.394 . S
C663 C664 1.383 . S
C663 H671 0.929 . S
C664 C663 1.383 . S
C664 C665 1.377 . S
C665 H649 0.930 . S
C665 C664 1.377 . S
C665 C666 1.379 . S
C666 H650 0.931 . S
C666 C660 1.383 . S
C666 C665 1.379 . S
H667 C661 0.959 . S
H668 C661 0.961 . S
H669 C661 0.960 . S
H670 C662 0.930 . S
H671 C663 0.929 . S
H672 C680 0.929 . S
H673 C682 0.930 . S
H674 C684 0.930 1_565 S
H675 C687 0.929 1_565 S
H676 C690 0.930 . S
H677 C692 0.960 1_565 S
H678 C692 0.960 . S
H679 C692 0.960 1_565 S
C680 H672 0.929 . S
C680 C681 1.377 . S
C680 C682 1.384 . S
C681 C680 1.377 . S
C681 C687 1.390 . S
C682 H673 0.930 . S
C682 C680 1.384 . S
C682 C683 1.372 . S
C683 C682 1.372 . S
C683 C684 1.400 . S
C683 C688 1.490 . S
C684 H674 0.930 1_545 S
C684 C683 1.400 . S
C684 C687 1.386 . S
H685 C701 0.930 1_565 S
H686 C702 0.931 1_565 S
C687 H675 0.929 1_545 S
C687 C681 1.390 . S
C687 C684 1.386 . S
C688 C683 1.490 . S
C688 C690 1.395 . S
C688 C691 1.403 . S
H689 C695 0.930 . S
C690 H676 0.930 . S
C690 C688 1.395 . S
C690 C693 1.403 . S
C691 C688 1.403 . S
C691 C692 1.524 . S
C691 C695 1.400 . S
C692 H677 0.960 1_545 S
C692 H678 0.960 . S
C692 H679 0.960 1_545 S
C692 C691 1.524 . S
C693 C690 1.403 . S
C693 C694 1.392 . S
C693 C697 1.495 . S
C694 C693 1.392 . S
C694 C695 1.385 . S
C694 C696 1.478 . S
C695 H689 0.930 . S
C695 C691 1.400 . S
C695 C694 1.385 . S
C696 C694 1.478 . S
C696 C698 1.381 . S
C696 C702 1.383 . S
C697 C693 1.495 . S
C697 H703 0.959 . S
C697 H704 0.961 . S
C697 H705 0.960 . S
C698 C696 1.381 . S
C698 C699 1.394 . S
C698 H706 0.930 . S
C699 C698 1.394 . S
C699 C700 1.383 . S
C699 H707 0.929 . S
C700 C699 1.383 . S
C700 C701 1.377 . S
C701 H685 0.930 1_545 S
C701 C700 1.377 . S
C701 C702 1.379 . S
C702 H686 0.931 1_545 S
C702 C696 1.383 . S
C702 C701 1.379 . S
H703 C697 0.959 . S
H704 C697 0.961 . S
H705 C697 0.960 . S
H706 C698 0.930 . S
H707 C699 0.929 . S
H708 C716 0.929 . S
H709 C718 0.930 . S
H710 C720 0.930 . S
H711 C723 0.929 . S
H712 C726 0.930 . S
H713 C728 0.960 . S
H714 C728 0.960 . S
H715 C728 0.960 . S
C716 H708 0.929 . S
C716 C717 1.377 . S
C716 C718 1.384 . S
C717 C716 1.377 . S
C717 C723 1.390 . S
C718 H709 0.930 . S
C718 C716 1.384 . S
C718 C719 1.372 . S
C719 C718 1.372 . S
C719 C720 1.400 . S
C719 C724 1.490 . S
C720 H710 0.930 . S
C720 C719 1.400 . S
C720 C723 1.386 . S
H721 C737 0.930 . S
H722 C738 0.931 . S
C723 H711 0.929 . S
C723 C717 1.390 . S
C723 C720 1.386 . S
C724 C719 1.490 . S
C724 C726 1.395 . S
C724 C727 1.403 . S
H725 C731 0.928 1_554 S
C726 H712 0.930 . S
C726 C724 1.395 . S
C726 C729 1.403 . S
C727 C724 1.403 . S
C727 C728 1.524 . S
C727 C731 1.404 . S
C728 H713 0.960 . S
C728 H714 0.960 . S
C728 H715 0.960 . S
C728 C727 1.524 . S
C729 C726 1.403 . S
C729 C730 1.392 1_556 S
C729 C733 1.495 . S
C730 C729 1.392 1_554 S
C730 C731 1.383 1_554 S
C730 C732 1.478 . S
C731 H725 0.928 1_556 S
C731 C727 1.404 . S
C731 C730 1.383 1_556 S
C732 C730 1.478 . S
C732 C734 1.381 . S
C732 C738 1.383 . S
C733 C729 1.495 . S
C733 H739 0.959 . S
C733 H740 0.961 1_556 S
C733 H741 0.960 1_556 S
C734 C732 1.381 . S
C734 C735 1.394 . S
C734 H742 0.930 . S
C735 C734 1.394 . S
C735 C736 1.383 . S
C735 H743 0.929 . S
C736 C735 1.383 . S
C736 C737 1.377 . S
C737 H721 0.930 . S
C737 C736 1.377 . S
C737 C738 1.379 . S
C738 H722 0.931 . S
C738 C732 1.383 . S
C738 C737 1.379 . S
H739 C733 0.959 . S
H740 C733 0.961 1_554 S
H741 C733 0.960 1_554 S
H742 C734 0.930 . S
H743 C735 0.929 . S
H744 C752 0.933 . S
H745 C754 0.930 1_655 S
H746 C756 0.930 . S
H747 C759 0.929 . S
H748 C762 0.930 . S
H749 C764 0.960 . S
H750 C764 0.960 . S
H751 C764 0.960 . S
C752 H744 0.933 . S
C752 C753 1.377 . S
C752 C754 1.384 . S
C753 C752 1.377 . S
C753 C759 1.390 . S
C754 H745 0.930 1_455 S
C754 C752 1.384 . S
C754 C755 1.372 . S
C755 C754 1.372 . S
C755 C756 1.400 . S
C755 C760 1.490 . S
C756 H746 0.930 . S
C756 C755 1.400 . S
C756 C759 1.386 . S
H757 C773 0.930 . S
H758 C774 0.931 . S
C759 H747 0.929 . S
C759 C753 1.390 . S
C759 C756 1.386 . S
C760 C755 1.490 . S
C760 C762 1.395 . S
C760 C763 1.403 . S
H761 C767 0.930 . S
C762 H748 0.930 . S
C762 C760 1.395 . S
C762 C765 1.403 . S
C763 C760 1.403 . S
C763 C764 1.524 . S
C763 C767 1.400 . S
C764 H749 0.960 . S
C764 H750 0.960 . S
C764 H751 0.960 . S
C764 C763 1.524 . S
C765 C762 1.403 . S
C765 C766 1.392 . S
C765 C769 1.495 1_455 S
C766 C765 1.392 . S
C766 C767 1.385 . S
C766 C768 1.478 . S
C767 H761 0.930 . S
C767 C763 1.400 . S
C767 C766 1.385 . S
C768 C766 1.478 . S
C768 C770 1.381 1_455 S
C768 C774 1.383 . S
C769 C765 1.495 1_655 S
C769 H775 0.959 . S
C769 H776 0.961 1_655 S
C769 H777 0.960 . S
C770 C768 1.381 1_655 S
C770 C771 1.394 . S
C770 H778 0.930 . S
C771 C770 1.394 . S
C771 C772 1.383 1_655 S
C771 H779 0.929 . S
C772 C771 1.383 1_455 S
C772 C773 1.377 . S
C773 H757 0.930 . S
C773 C772 1.377 . S
C773 C774 1.379 . S
C774 H758 0.931 . S
C774 C768 1.383 . S
C774 C773 1.379 . S
H775 C769 0.959 . S
H776 C769 0.961 1_455 S
H777 C769 0.960 . S
H778 C770 0.930 . S
H779 C771 0.929 . S
C141 C8 2.282 . S
C160 C126 2.353 . S
C177 C26 1.372 . S
C196 C100 1.375 . S
C213 C48 1.550 . S
C232 C112 1.576 . S
C249 C19 1.475 1_655 S
C268 C124 1.459 . S
C304 C102 1.309 . S
C285 C36 1.326 . S
C340 C114 1.521 . S
C321 C59 1.479 . S
C357 C28 1.563 . S
C376 C76 1.602 . S
C393 C46 1.472 . S
C412 C90 1.501 . S
C429 C16 1.357 . S
C448 C66 1.361 1_565 S
C484 C78 1.497 . S
C465 C39 1.473 . S
C520 C88 0.743 . S
C501 C56 0.688 . S
C537 C6 1.385 . S
C556 C64 1.368 . S
C592 C93 1.468 . S
C573 C9 1.451 . S
C609 C21 1.532 . S
C628 C69 1.530 . S
C645 C49 1.481 . S
C664 C81 1.488 . S
C700 C117 1.492 . S
C681 C29 1.508 . S
C736 C129 1.618 . S
C717 C41 1.587 . S
C753 C1 1.506 . S
C772 C105 1.511 . S
