# Generated by pormake.
# Topology llj, (12,3)-cn, num edge types: 1
# Building blocks:
#     Node 0, Type 0, BuildingBlock: QEWDON_clean_sbu_0, # of connection points: 12
#     Node 1, Type 0, BuildingBlock: QEWDON_clean_sbu_0, # of connection points: 12
#     Node 2, Type 1, BuildingBlock: BETDAH_clean_linker_0, # of connection points: 3
#     Node 3, Type 1, BuildingBlock: BETDAH_clean_linker_0, # of connection points: 3
#     Node 4, Type 1, BuildingBlock: BETDAH_clean_linker_0, # of connection points: 3
#     Node 5, Type 1, BuildingBlock: BETDAH_clean_linker_0, # of connection points: 3
#     Node 6, Type 1, BuildingBlock: BETDAH_clean_linker_0, # of connection points: 3
#     Node 7, Type 1, BuildingBlock: BETDAH_clean_linker_0, # of connection points: 3
#     Node 8, Type 1, BuildingBlock: BETDAH_clean_linker_0, # of connection points: 3
#     Node 9, Type 1, BuildingBlock: BETDAH_clean_linker_0, # of connection points: 3
#     Edge 10, Type (0, 1), BuildingBlock: AJUNOK_clean_linker_0, # of connection points: 2
#     Edge 11, Type (0, 1), BuildingBlock: AJUNOK_clean_linker_0, # of connection points: 2
#     Edge 12, Type (0, 1), BuildingBlock: AJUNOK_clean_linker_0, # of connection points: 2
#     Edge 13, Type (0, 1), BuildingBlock: AJUNOK_clean_linker_0, # of connection points: 2
#     Edge 14, Type (0, 1), BuildingBlock: AJUNOK_clean_linker_0, # of connection points: 2
#     Edge 15, Type (0, 1), BuildingBlock: AJUNOK_clean_linker_0, # of connection points: 2
#     Edge 16, Type (0, 1), BuildingBlock: AJUNOK_clean_linker_0, # of connection points: 2
#     Edge 17, Type (0, 1), BuildingBlock: AJUNOK_clean_linker_0, # of connection points: 2
#     Edge 18, Type (0, 1), BuildingBlock: AJUNOK_clean_linker_0, # of connection points: 2
#     Edge 19, Type (0, 1), BuildingBlock: AJUNOK_clean_linker_0, # of connection points: 2
#     Edge 20, Type (0, 1), BuildingBlock: AJUNOK_clean_linker_0, # of connection points: 2
#     Edge 21, Type (0, 1), BuildingBlock: AJUNOK_clean_linker_0, # of connection points: 2
#     Edge 22, Type (0, 1), BuildingBlock: AJUNOK_clean_linker_0, # of connection points: 2
#     Edge 23, Type (0, 1), BuildingBlock: AJUNOK_clean_linker_0, # of connection points: 2
#     Edge 24, Type (0, 1), BuildingBlock: AJUNOK_clean_linker_0, # of connection points: 2
#     Edge 25, Type (0, 1), BuildingBlock: AJUNOK_clean_linker_0, # of connection points: 2
#     Edge 26, Type (0, 1), BuildingBlock: AJUNOK_clean_linker_0, # of connection points: 2
#     Edge 27, Type (0, 1), BuildingBlock: AJUNOK_clean_linker_0, # of connection points: 2
#     Edge 28, Type (0, 1), BuildingBlock: AJUNOK_clean_linker_0, # of connection points: 2
#     Edge 29, Type (0, 1), BuildingBlock: AJUNOK_clean_linker_0, # of connection points: 2
#     Edge 30, Type (0, 1), BuildingBlock: AJUNOK_clean_linker_0, # of connection points: 2
#     Edge 31, Type (0, 1), BuildingBlock: AJUNOK_clean_linker_0, # of connection points: 2
#     Edge 32, Type (0, 1), BuildingBlock: AJUNOK_clean_linker_0, # of connection points: 2
#     Edge 33, Type (0, 1), BuildingBlock: AJUNOK_clean_linker_0, # of connection points: 2
# Relax obj value: 0.009
# Max RMSD: 0.092
# Mean RMSD: 0.078
data_MOF--net-llj--node1-QEWDON_clean_sbu_0--node2-BETDAH_clean_linker_0--edge1-AJUNOK_clean_linker_0
_symmetry_space_group_name_H-M    P1
_symmetry_Int_Tables_number       1
_symmetry_cell_setting            triclinic
loop_
_symmetry_equiv_pos_as_xyz
'x, y, z'
_cell_length_a     30.479206
_cell_length_b     30.537014
_cell_length_c     18.555704
_cell_angle_alpha  91.606697
_cell_angle_beta   90.507395
_cell_angle_gamma 89.984013
loop_
_atom_site_label
_atom_site_type_symbol
_atom_site_fract_x
_atom_site_fract_y
_atom_site_fract_z
_atom_type_partial_charge
Zn0 Zn 0.94599 0.07931 0.97198 0.0
Zn1 Zn 0.95406 0.1006 0.13363 0.0
O2 O 0.99212 0.08415 0.05057 0.0
H3 H 0.02039 0.09661 0.04 0.0
C4 C 0.87507 0.01476 0.85011 0.0
O5 O 0.86399 0.03119 0.91355 0.0
Zn6 Zn 0.05432 0.91091 0.11135 0.0
Zn7 Zn 0.05782 0.91602 0.94104 0.0
O8 O 0.01821 0.92772 0.02609 0.0
H9 H 0.99549 0.94974 0.02626 0.0
Zn10 Zn 0.90377 0.94824 0.94479 0.0
O11 O 0.91598 0.98863 0.03055 0.0
Zn12 Zn 0.90146 0.95262 0.11522 0.0
H13 H 0.93863 0.01069 0.03011 0.0
Zn14 Zn 0.09891 0.06172 0.94848 0.0
O15 O 0.08047 0.02778 0.03499 0.0
H16 H 0.0551 0.00885 0.0338 0.0
Zn17 Zn 0.10238 0.06173 0.12237 0.0
C18 C 0.12077 0.98938 0.84787 0.0
O19 O 0.12272 0.9674 0.90762 0.0
O20 O 0.90008 0.12737 0.98784 0.0
O21 O 0.91126 0.14772 0.10259 0.0
O22 O 0.10476 0.86997 0.96309 0.0
O23 O 0.09905 0.86403 0.08181 0.0
O24 O 0.85648 0.90361 0.96894 0.0
O25 O 0.85377 0.90758 0.0886 0.0
C26 C 0.03358 0.11619 0.21642 0.0
O27 O 0.14017 0.11238 0.9743 0.0
O28 O 0.1467 0.10926 0.0936 0.0
O29 O 0.02789 0.90938 0.84085 0.0
C30 C 0.89262 0.15303 0.04158 0.0
O31 O 0.97574 0.0864 0.87491 0.0
C32 C 0.97366 0.89804 0.18835 0.0
O33 O 0.89455 0.97802 0.84711 0.0
C34 C 0.11615 0.85222 0.02167 0.0
O35 O 0.11046 0.02964 0.85092 0.0
C36 C 0.89354 0.03233 0.19986 0.0
O37 O 0.99258 0.12412 0.21491 0.0
O38 O 0.04905 0.09196 0.16571 0.0
C39 C 0.83976 0.89195 0.02805 0.0
O40 O 0.01378 0.88672 0.18601 0.0
O41 O 0.95926 0.92462 0.14231 0.0
C42 C 0.11221 0.97899 0.19364 0.0
O43 O 0.87873 0.99353 0.19336 0.0
O44 O 0.92249 0.04464 0.15603 0.0
C45 C 0.15677 0.12633 0.0338 0.0
O46 O 0.12659 0.01807 0.19372 0.0
O47 O 0.0849 0.96688 0.14486 0.0
C48 C 0.98842 0.89616 0.83931 0.0
O49 O 0.9688 0.88917 0.90066 0.0
C50 C 0.99406 0.05803 0.83405 0.0
O51 O 0.99266 0.01641 0.84993 0.0
Zn52 Zn 0.45571 0.58623 0.40777 0.0
Zn53 Zn 0.44117 0.58399 0.57823 0.0
O54 O 0.48109 0.56365 0.49974 0.0
H55 H 0.50093 0.53911 0.50188 0.0
C56 C 0.3731 0.50094 0.30635 0.0
O57 O 0.40622 0.51535 0.34602 0.0
Zn58 Zn 0.55834 0.4193 0.58828 0.0
Zn59 Zn 0.54422 0.41898 0.41631 0.0
O60 O 0.51777 0.43902 0.51109 0.0
H61 H 0.49807 0.46356 0.51677 0.0
Zn62 Zn 0.37948 0.4304 0.40852 0.0
O63 O 0.4113 0.46521 0.48772 0.0
Zn64 Zn 0.40375 0.43268 0.5783 0.0
H65 H 0.42618 0.49281 0.48237 0.0
Zn66 Zn 0.59256 0.54849 0.40503 0.0
O67 O 0.58425 0.51752 0.49769 0.0
H68 H 0.59151 0.48674 0.49688 0.0
Zn69 Zn 0.59635 0.56284 0.57574 0.0
C70 C 0.63579 0.48376 0.32086 0.0
O71 O 0.6627 0.48961 0.37601 0.0
O72 O 0.40663 0.63169 0.42129 0.0
O73 O 0.39802 0.62933 0.53995 0.0
O74 O 0.59099 0.37044 0.42645 0.0
O75 O 0.60016 0.37322 0.54565 0.0
O76 O 0.34645 0.37579 0.44344 0.0
O77 O 0.36454 0.37989 0.55984 0.0
C78 C 0.51923 0.60458 0.66132 0.0
O79 O 0.63983 0.59609 0.41644 0.0
O80 O 0.63863 0.60813 0.53534 0.0
O81 O 0.50243 0.41621 0.32787 0.0
C82 C 0.38773 0.6448 0.4788 0.0
O83 O 0.49682 0.59396 0.32204 0.0
C84 C 0.48174 0.39702 0.66903 0.0
O85 O 0.35567 0.46448 0.32115 0.0
C86 C 0.60957 0.35692 0.48348 0.0
O87 O 0.60075 0.50616 0.31844 0.0
C88 C 0.38801 0.51287 0.66033 0.0
O89 O 0.47771 0.60892 0.66073 0.0
O90 O 0.53728 0.58743 0.60564 0.0
C91 C 0.34447 0.36096 0.5069 0.0
O92 O 0.52334 0.3943 0.66964 0.0
O93 O 0.46367 0.4138 0.61405 0.0
C94 C 0.61303 0.49359 0.67149 0.0
O95 O 0.3781 0.47257 0.65438 0.0
O96 O 0.41015 0.52941 0.60998 0.0
C97 C 0.65314 0.61679 0.47294 0.0
O98 O 0.62263 0.53355 0.66248 0.0
O99 O 0.58953 0.47442 0.62334 0.0
C100 C 0.46815 0.39266 0.33028 0.0
O101 O 0.45997 0.37148 0.38934 0.0
C102 C 0.53158 0.61685 0.32621 0.0
O103 O 0.54327 0.63468 0.3887 0.0
H104 H 0.4307 0.38456 0.00236 0.0
H105 H 0.31041 0.34415 0.09998 0.0
H106 H 0.32299 0.33585 0.87071 0.0
C107 C 0.39814 0.37073 -0.00308 0.0
C108 C 0.38087 0.36008 0.92788 0.0
C109 C 0.37368 0.36372 0.05962 0.0
C110 C 0.33052 0.34799 0.05271 0.0
C111 C 0.31244 0.33864 0.98451 0.0
C112 C 0.33751 0.34435 0.92272 0.0
N113 N 0.26813 0.32567 0.97701 0.0
C114 C 0.25315 0.28603 0.00199 0.0
H115 H 0.6407 0.44 0.00186 0.0
H116 H 0.74776 0.36438 0.08815 0.0
H117 H 0.73911 0.38681 0.86125 0.0
C118 C 0.66954 0.41967 0.99428 0.0
C119 C 0.68595 0.41319 0.92475 0.0
C120 C 0.69122 0.40177 0.05387 0.0
C121 C 0.72992 0.37736 0.04271 0.0
C122 C 0.74721 0.37238 0.97311 0.0
C123 C 0.72514 0.39019 0.91467 0.0
N124 N 0.78897 0.35377 0.96097 0.0
C125 C 0.80323 0.31522 0.99097 0.0
H126 H 0.58839 0.61485 0.99283 0.0
H127 H 0.61715 0.72951 0.87302 0.0
H128 H 0.62381 0.73649 0.10273 0.0
C129 C 0.5991 0.64867 0.99196 0.0
C130 C 0.60633 0.6725 0.05704 0.0
C131 C 0.60233 0.66901 0.92548 0.0
C132 C 0.61597 0.71282 0.92376 0.0
C133 C 0.62572 0.73615 0.98771 0.0
C134 C 0.62028 0.71636 0.05408 0.0
N135 N 0.63546 0.78123 0.98516 0.0
C136 C 0.67663 0.79731 0.00387 0.0
H137 H 0.36781 0.56337 -0.00239 0.0
H138 H 0.27018 0.62489 0.8655 0.0
H139 H 0.25296 0.62074 0.09446 0.0
C140 C 0.33794 0.58243 0.99261 0.0
C141 C 0.31287 0.59181 0.05396 0.0
C142 C 0.32305 0.59452 0.92426 0.0
C143 C 0.28329 0.61735 0.91822 0.0
C144 C 0.25859 0.62777 0.97958 0.0
C145 C 0.2733 0.61487 0.04756 0.0
N146 N 0.21599 0.64502 0.9709 0.0
C147 C 0.20566 0.6878 0.99105 0.0
H148 H 0.93544 0.87683 0.50176 0.0
H149 H 0.88767 0.77145 0.62721 0.0
H150 H 0.86171 0.77109 0.39967 0.0
C151 C 0.9164 0.847 0.50503 0.0
C152 C 0.89826 0.82706 0.44221 0.0
C153 C 0.91131 0.82806 0.57223 0.0
C154 C 0.88992 0.78762 0.57609 0.0
C155 C 0.87157 0.76744 0.51452 0.0
C156 C 0.87513 0.78738 0.44759 0.0
N157 N 0.85309 0.7253 0.52071 0.0
C158 C 0.81249 0.71351 0.49206 0.0
H159 H 0.12737 0.93411 0.51014 0.0
H160 H 0.22607 0.87204 0.63707 0.0
H161 H 0.22677 0.85399 0.40695 0.0
C162 C 0.15458 0.91135 0.51302 0.0
C163 C 0.17314 0.89336 0.44948 0.0
C164 C 0.17275 0.90256 0.58067 0.0
C165 C 0.2104 0.87677 0.58515 0.0
C166 C 0.22977 0.85923 0.52297 0.0
C167 C 0.21081 0.86672 0.4551 0.0
N168 N 0.27177 0.84022 0.52977 0.0
C169 C 0.28296 0.79943 0.50112 0.0
H170 H 0.05978 0.11614 0.52612 0.0
H171 H 0.17956 0.18206 0.47184 0.0
H172 H 0.15819 0.14153 0.68875 0.0
C173 C 0.09154 0.12953 0.54175 0.0
C174 C 0.10587 0.12652 0.61309 0.0
C175 C 0.11775 0.14983 0.49054 0.0
C176 C 0.15899 0.16687 0.5113 0.0
C177 C 0.1737 0.16337 0.583 0.0
C178 C 0.14683 0.14376 0.63341 0.0
N179 N 0.2158 0.17774 0.60618 0.0
C180 C 0.23912 0.21101 0.57462 0.0
H181 H 0.86516 0.07049 0.5196 0.0
H182 H 0.75251 0.11697 0.63538 0.0
H183 H 0.76655 0.14779 0.41321 0.0
C184 C 0.83556 0.09003 0.52117 0.0
C185 C 0.8193 0.10894 0.45778 0.0
C186 C 0.8129 0.09452 0.5865 0.0
C187 C 0.77218 0.11589 0.58698 0.0
C188 C 0.75603 0.1358 0.52541 0.0
C189 C 0.77992 0.13316 0.46118 0.0
N190 N 0.7137 0.15468 0.52808 0.0
C191 C 0.70382 0.19575 0.50227 0.0
C192 C 0.20697 0.17442 0.96629 0.0
C193 C 0.18665 0.16459 0.03186 0.0
C194 C 0.23036 0.21335 0.95852 0.0
C195 C 0.23432 0.24386 0.01588 0.0
H196 H 0.20372 0.15245 0.91967 0.0
H197 H 0.24412 0.2203 0.90637 0.0
S198 S 0.19043 0.23339 0.19997 0.0
N199 N 0.17445 0.18807 0.15664 0.0
N200 N 0.21863 0.26157 0.1413 0.0
C201 C 0.21613 0.23403 0.08262 0.0
C202 C 0.19232 0.19416 0.09087 0.0
C203 C 0.84044 0.21256 0.08164 0.0
C204 C 0.86783 0.19357 0.02858 0.0
C205 C 0.81852 0.25231 0.0695 0.0
C206 C 0.82411 0.27404 0.00453 0.0
H207 H 0.83593 0.19661 0.13246 0.0
H208 H 0.79756 0.26621 0.11108 0.0
S209 S 0.89511 0.24059 0.85197 0.0
N210 N 0.90114 0.2014 0.91075 0.0
N211 N 0.85986 0.27552 0.88854 0.0
C212 C 0.85165 0.25583 0.95189 0.0
C213 C 0.87363 0.21565 0.96377 0.0
C214 C 0.77799 0.85808 0.95757 0.0
C215 C 0.80012 0.86366 0.02428 0.0
C216 C 0.73835 0.83535 0.95172 0.0
C217 C 0.71915 0.81736 0.01224 0.0
H218 H 0.7904 0.87278 0.9095 0.0
H219 H 0.72206 0.83279 0.89958 0.0
S220 S 0.76354 0.81991 0.19862 0.0
N221 N 0.80002 0.84718 0.15208 0.0
N222 N 0.72481 0.80445 0.14039 0.0
C223 C 0.74082 0.82136 0.07902 0.0
C224 C 0.78151 0.84458 0.08523 0.0
C225 C 0.14679 0.78391 0.07471 0.0
C226 C 0.14595 0.81376 0.01804 0.0
C227 C 0.16838 0.74345 0.06718 0.0
C228 C 0.19018 0.73191 0.00324 0.0
H229 H 0.12871 0.79071 0.12376 0.0
H230 H 0.1664 0.72039 0.11037 0.0
S231 S 0.20278 0.7996 0.84242 0.0
N232 N 0.1728 0.82995 0.89821 0.0
N233 N 0.21309 0.75384 0.88486 0.0
C234 C 0.19204 0.76213 0.94808 0.0
C235 C 0.17004 0.80319 0.95534 0.0
C236 C 0.72673 0.63482 0.42514 0.0
C237 C 0.6904 0.6472 0.46739 0.0
C238 C 0.76605 0.6586 0.4295 0.0
C239 C 0.76978 0.69575 0.47524 0.0
H240 H 0.72571 0.60501 0.39207 0.0
H241 H 0.79429 0.6465 0.39997 0.0
S242 S 0.68215 0.74614 0.58668 0.0
N243 N 0.65899 0.70218 0.54886 0.0
N244 N 0.73312 0.74686 0.55706 0.0
C245 C 0.73287 0.71041 0.51334 0.0
C246 C 0.69298 0.68608 0.50938 0.0
C247 C 0.32534 0.68714 0.53237 0.0
C248 C 0.35544 0.68097 0.47589 0.0
C249 C 0.29914 0.72477 0.53724 0.0
C250 C 0.30199 0.75719 0.48552 0.0
H251 H 0.323 0.66345 0.57446 0.0
H252 H 0.27817 0.7295 0.58369 0.0
S253 S 0.37189 0.75552 0.32358 0.0
N254 N 0.38378 0.70943 0.36399 0.0
N255 N 0.33427 0.78014 0.37387 0.0
C256 C 0.32969 0.7505 0.42655 0.0
C257 C 0.35642 0.7122 0.42136 0.0
C258 C 0.31457 0.30692 0.59226 0.0
C259 C 0.31775 0.3215 0.52103 0.0
C260 C 0.28894 0.27065 0.60857 0.0
C261 C 0.26562 0.24756 0.5545 0.0
H262 H 0.33174 0.32375 0.63626 0.0
H263 H 0.28719 0.26076 0.66414 0.0
S264 S 0.26288 0.27044 0.35981 0.0
N265 N 0.29532 0.30871 0.39559 0.0
N266 N 0.24713 0.24025 0.42741 0.0
C267 C 0.26847 0.26095 0.4832 0.0
C268 C 0.29459 0.29804 0.46617 0.0
C269 C 0.66929 0.31158 0.53652 0.0
C270 C 0.63978 0.31885 0.47925 0.0
C271 C 0.69256 0.27217 0.54097 0.0
C272 C 0.68735 0.2389 0.48805 0.0
H273 H 0.67328 0.33587 0.57967 0.0
H274 H 0.7131 0.26692 0.58793 0.0
S275 S 0.61829 0.24261 0.32339 0.0
N276 N 0.60978 0.29033 0.3651 0.0
N277 N 0.65375 0.21622 0.37419 0.0
C278 C 0.66039 0.24649 0.42825 0.0
C279 C 0.63664 0.28666 0.42346 0.0
C280 C 0.03868 0.15705 0.3344 0.0
C281 C 0.06011 0.13284 0.2793 0.0
C282 C 0.05883 0.16537 0.4013 0.0
C283 C 0.10166 0.15083 0.41525 0.0
H284 H 0.00497 0.16752 0.32771 0.0
H285 H 0.03991 0.1813 0.44371 0.0
S286 S 0.17685 0.09794 0.28374 0.0
N287 N 0.13013 0.10336 0.23915 0.0
N288 N 0.16787 0.11852 0.36542 0.0
C289 C 0.12543 0.1315 0.35844 0.0
C290 C 0.10471 0.12273 0.29019 0.0
C291 C 0.83147 0.06712 0.26466 0.0
C292 C 0.87689 0.06111 0.25818 0.0
C293 C 0.81343 0.08558 0.32763 0.0
C294 C 0.84018 0.09834 0.38694 0.0
H295 H 0.80952 0.05537 0.2221 0.0
H296 H 0.77802 0.08701 0.33141 0.0
S297 S 0.96156 0.08929 0.39589 0.0
N298 N 0.94839 0.06896 0.3152 0.0
N299 N 0.91509 0.10585 0.43258 0.0
C300 C 0.88605 0.09453 0.37928 0.0
C301 C 0.90429 0.0754 0.31511 0.0
C302 C 0.94401 0.83522 0.25425 0.0
C303 C 0.9458 0.88067 0.24508 0.0
C304 C 0.92534 0.81782 0.31593 0.0
C305 C 0.90819 0.84538 0.37086 0.0
H306 H 0.95904 0.81308 0.21504 0.0
H307 H 0.92707 0.78274 0.32272 0.0
S308 S 0.90402 0.96669 0.37125 0.0
N309 N 0.92913 0.95279 0.29549 0.0
N310 N 0.89116 0.92024 0.40915 0.0
C311 C 0.90752 0.89081 0.36007 0.0
C312 C 0.9271 0.90846 0.29774 0.0
C313 C 0.17149 0.94376 0.2646 0.0
C314 C 0.1265 0.94981 0.25124 0.0
C315 C 0.18628 0.92277 0.32659 0.0
C316 C 0.15656 0.90754 0.37798 0.0
H317 H 0.19547 0.95688 0.22823 0.0
H318 H 0.22131 0.92086 0.33629 0.0
S319 S 0.03522 0.91571 0.36766 0.0
N320 N 0.05243 0.93985 0.29453 0.0
N321 N 0.07979 0.89815 0.40893 0.0
C322 C 0.11134 0.91192 0.36348 0.0
C323 C 0.09641 0.93367 0.30071 0.0
C324 C 0.1269 0.92248 0.76771 0.0
C325 C 0.13241 0.96799 0.77825 0.0
C326 C 0.13872 0.90143 0.70259 0.0
C327 C 0.15654 0.92527 0.64624 0.0
H328 H 0.11369 0.90291 0.81017 0.0
H329 H 0.13449 0.86629 0.69656 0.0
S330 S 0.18385 0.04316 0.65009 0.0
N331 N 0.16064 0.03526 0.72875 0.0
N332 N 0.18278 0.99534 0.60663 0.0
C333 C 0.16297 0.9704 0.65637 0.0
C334 C 0.15093 0.99189 0.72237 0.0
C335 C 0.03862 0.11669 0.78106 0.0
C336 C 0.02198 0.07369 0.77557 0.0
C337 C 0.06596 0.1331 0.72841 0.0
C338 C 0.07722 0.10745 0.6676 0.0
H339 H 0.03102 0.1379 0.82706 0.0
H340 H 0.07806 0.16635 0.73498 0.0
S341 S 0.04273 0.99286 0.6269 0.0
N342 N 0.01927 0.00546 0.70472 0.0
N343 N 0.07008 0.03702 0.60402 0.0
C344 C 0.06073 0.0645 0.66067 0.0
C345 C 0.03337 0.04738 0.71526 0.0
C346 C 0.86463 0.01438 0.71604 0.0
C347 C 0.86184 0.03685 0.78317 0.0
C348 C 0.84924 0.03331 0.65265 0.0
C349 C 0.83084 0.07563 0.65375 0.0
H350 H 0.87772 0.9814 0.71249 0.0
H351 H 0.85076 0.01412 0.60275 0.0
S352 S 0.81927 0.14967 0.81456 0.0
N353 N 0.84107 0.10458 0.84625 0.0
N354 N 0.81364 0.1406 0.72693 0.0
C355 C 0.82933 0.09902 0.72013 0.0
C356 C 0.84451 0.07958 0.78478 0.0
C357 C 0.99189 0.87998 0.70638 0.0
C358 C 0.96691 0.88363 0.76984 0.0
C359 C 0.97346 0.86319 0.64184 0.0
C360 C 0.92939 0.84963 0.6385 0.0
H361 H 0.02636 0.88866 0.70698 0.0
H362 H 0.99424 0.85936 0.59502 0.0
S363 S 0.84822 0.85865 0.78547 0.0
N364 N 0.89453 0.87635 0.82267 0.0
N365 N 0.86 0.8456 0.701 0.0
C366 C 0.90347 0.85548 0.70012 0.0
C367 C 0.92217 0.87232 0.76584 0.0
C368 C 0.52139 0.61613 0.79459 0.0
C369 C 0.5438 0.61629 0.72851 0.0
C370 C 0.54144 0.63112 0.85873 0.0
C371 C 0.58469 0.64703 0.85934 0.0
H372 H 0.48758 0.60526 0.7967 0.0
H373 H 0.52226 0.63203 0.90764 0.0
S374 S 0.65913 0.65111 0.70346 0.0
N375 N 0.61248 0.63204 0.66919 0.0
N376 N 0.65059 0.65895 0.79052 0.0
C377 C 0.6082 0.6456 0.79477 0.0
C378 C 0.58769 0.63046 0.72921 0.0
C379 C 0.36707 0.51173 0.789 0.0
C380 C 0.37604 0.53673 0.72811 0.0
C381 C 0.35176 0.53109 0.85287 0.0
C382 C 0.34467 0.57641 0.85889 0.0
H383 H 0.37104 0.47649 0.78718 0.0
H384 H 0.3438 0.51005 0.89699 0.0
S385 S 0.36723 0.65761 0.71945 0.0
N386 N 0.37953 0.60993 0.68044 0.0
N387 N 0.35088 0.64658 0.80157 0.0
C388 C 0.3552 0.60229 0.8001 0.0
C389 C 0.37104 0.58243 0.73459 0.0
C390 C 0.41059 0.38823 0.73511 0.0
C391 C 0.45642 0.38393 0.73352 0.0
C392 C 0.38669 0.3807 0.7977 0.0
C393 C 0.40729 0.36644 0.86118 0.0
H394 H 0.39276 0.39783 0.68797 0.0
H395 H 0.35175 0.387 0.79623 0.0
S396 S 0.52606 0.34091 0.88127 0.0
N397 N 0.52128 0.35994 0.79925 0.0
N398 N 0.47604 0.34185 0.91454 0.0
C399 C 0.4529 0.35864 0.85876 0.0
C400 C 0.47744 0.36797 0.7956 0.0
C401 C 0.64235 0.49744 0.79729 0.0
C402 C 0.6286 0.47161 0.73708 0.0
C403 C 0.6595 0.47827 0.85911 0.0
C404 C 0.6638 0.43265 0.86256 0.0
H405 H 0.64028 0.53286 0.79655 0.0
H406 H 0.67064 0.49927 0.90362 0.0
S407 S 0.63037 0.35009 0.72318 0.0
N408 N 0.61904 0.39769 0.68723 0.0
N409 N 0.65099 0.36187 0.8039 0.0
C410 C 0.64911 0.40635 0.80425 0.0
C411 C 0.63149 0.42578 0.74138 0.0
C412 C 0.69379 0.45098 0.24291 0.0
C413 C 0.649 0.45619 0.25835 0.0
C414 C 0.70733 0.43064 0.1784 0.0
C415 C 0.67655 0.41417 0.12761 0.0
H416 H 0.71858 0.46498 0.27884 0.0
H417 H 0.74206 0.43026 0.16647 0.0
S418 S 0.55569 0.4117 0.14962 0.0
N419 N 0.57406 0.43847 0.22236 0.0
N420 N 0.5996 0.39837 0.10232 0.0
C421 C 0.63179 0.41579 0.14543 0.0
C422 C 0.61797 0.4373 0.21048 0.0
C423 C 0.53537 0.61566 0.19244 0.0
C424 C 0.5548 0.62748 0.25916 0.0
C425 C 0.55314 0.62919 0.12779 0.0
C426 C 0.59205 0.654 0.12646 0.0
H427 H 0.50498 0.59729 0.18978 0.0
H428 H 0.53483 0.62157 0.07877 0.0
S429 S 0.6592 0.68876 0.28596 0.0
N430 N 0.61647 0.66368 0.32007 0.0
N431 N 0.65219 0.68573 0.19766 0.0
C432 C 0.61347 0.66374 0.19257 0.0
C433 C 0.5944 0.65122 0.259 0.0
C434 C 0.32348 0.50843 0.19921 0.0
C435 C 0.3566 0.52631 0.24461 0.0
C436 C 0.30823 0.53082 0.13908 0.0
C437 C 0.32551 0.57182 0.12227 0.0
H438 H 0.30967 0.47652 0.20928 0.0
H439 H 0.28358 0.51546 0.10435 0.0
S440 S 0.41089 0.63422 0.22368 0.0
N441 N 0.40485 0.58881 0.2689 0.0
N442 N 0.37621 0.63019 0.15497 0.0
C443 C 0.35786 0.59056 0.16719 0.0
C444 C 0.37338 0.56798 0.22867 0.0
C445 C 0.44135 0.41764 0.2106 0.0
C446 C 0.44001 0.38668 0.26528 0.0
C447 C 0.41854 0.41074 0.1454 0.0
C448 C 0.39377 0.37242 0.13201 0.0
H449 H 0.46069 0.44723 0.21775 0.0
H450 H 0.42086 0.43537 0.10471 0.0
S451 S 0.37837 0.2818 0.25875 0.0
N452 N 0.41018 0.3172 0.30317 0.0
N453 N 0.36846 0.30355 0.17981 0.0
C454 C 0.39098 0.34186 0.18722 0.0
C455 C 0.4138 0.34916 0.25402 0.0
loop_
_geom_bond_atom_site_label_1
_geom_bond_atom_site_label_2
_geom_bond_distance
_geom_bond_site_symmetry_2
_ccdc_geom_bond_type
Zn0 O2 1.933 1_556 S
Zn0 O20 1.985 . S
Zn0 O31 1.955 . S
Zn1 O2 1.911 . S
Zn1 O21 1.970 . S
Zn1 O37 1.945 . S
Zn1 O44 1.981 . S
O2 Zn0 1.933 1_554 S
O2 Zn1 1.911 . S
O2 H3 0.841 1_655 S
H3 O2 0.841 1_455 S
C4 O5 1.246 . S
C4 O33 1.276 1_545 S
O5 C4 1.246 . S
Zn6 O8 1.911 . S
Zn6 O23 1.970 . S
Zn6 O40 1.945 . S
Zn6 O47 1.981 . S
Zn7 O8 1.933 1_556 S
Zn7 O22 1.985 . S
Zn7 O29 1.955 . S
O8 Zn6 1.911 . S
O8 Zn7 1.933 1_554 S
O8 H9 0.841 1_455 S
H9 O8 0.841 1_655 S
Zn10 O11 1.933 1_556 S
Zn10 O24 1.985 . S
Zn10 O33 1.955 . S
O11 Zn10 1.933 1_554 S
O11 Zn12 1.911 . S
O11 H13 0.841 1_565 S
Zn12 O11 1.911 . S
Zn12 O25 1.970 . S
Zn12 O41 1.981 . S
Zn12 O43 1.945 . S
H13 O11 0.841 1_545 S
Zn14 O15 1.933 1_556 S
Zn14 O27 1.985 . S
Zn14 O35 1.955 . S
O15 Zn14 1.933 1_554 S
O15 H16 0.841 1_545 S
O15 Zn17 1.911 . S
H16 O15 0.841 1_565 S
Zn17 O15 1.911 . S
Zn17 O28 1.970 . S
Zn17 O38 1.981 . S
Zn17 O46 1.945 . S
C18 O19 1.246 . S
C18 O35 1.276 1_565 S
O19 C18 1.246 . S
O20 Zn0 1.985 . S
O20 C30 1.245 1_556 S
O21 Zn1 1.970 . S
O21 C30 1.263 . S
O22 Zn7 1.985 . S
O22 C34 1.245 1_556 S
O23 Zn6 1.970 . S
O23 C34 1.263 . S
O24 Zn10 1.985 . S
O24 C39 1.245 1_556 S
O25 Zn12 1.970 . S
O25 C39 1.263 . S
C26 O37 1.262 1_455 S
C26 O38 1.245 . S
O27 Zn14 1.985 . S
O27 C45 1.245 1_556 S
O28 Zn17 1.970 . S
O28 C45 1.263 . S
O29 Zn7 1.955 . S
O29 C48 1.276 1_455 S
C30 O20 1.245 1_554 S
C30 O21 1.263 . S
O31 Zn0 1.955 . S
O31 C50 1.276 1_655 S
C32 O40 1.262 1_655 S
C32 O41 1.245 . S
O33 C4 1.276 1_565 S
O33 Zn10 1.955 . S
C34 O22 1.245 1_554 S
C34 O23 1.263 . S
O35 Zn14 1.955 . S
O35 C18 1.276 1_545 S
C36 O43 1.262 1_545 S
C36 O44 1.245 . S
O37 Zn1 1.945 . S
O37 C26 1.262 1_655 S
O38 Zn17 1.981 . S
O38 C26 1.245 . S
C39 O24 1.245 1_554 S
C39 O25 1.263 . S
O40 Zn6 1.945 . S
O40 C32 1.262 1_455 S
O41 Zn12 1.981 . S
O41 C32 1.245 . S
C42 O46 1.262 1_565 S
C42 O47 1.245 . S
O43 Zn12 1.945 . S
O43 C36 1.262 1_565 S
O44 Zn1 1.981 . S
O44 C36 1.245 . S
C45 O27 1.245 1_554 S
C45 O28 1.263 . S
O46 Zn17 1.945 . S
O46 C42 1.262 1_545 S
O47 Zn6 1.981 . S
O47 C42 1.245 . S
C48 O29 1.276 1_655 S
C48 O49 1.246 . S
O49 C48 1.246 . S
C50 O31 1.276 1_455 S
C50 O51 1.246 . S
O51 C50 1.246 . S
Zn52 O54 1.933 . S
Zn52 O72 1.985 . S
Zn52 O83 1.955 . S
Zn53 O54 1.911 . S
Zn53 O73 1.970 . S
Zn53 O89 1.945 . S
Zn53 O96 1.981 . S
O54 Zn52 1.933 . S
O54 Zn53 1.911 . S
O54 H55 0.841 . S
H55 O54 0.841 . S
C56 O57 1.246 . S
C56 O85 1.276 . S
O57 C56 1.246 . S
Zn58 O60 1.911 . S
Zn58 O75 1.970 . S
Zn58 O92 1.945 . S
Zn58 O99 1.981 . S
Zn59 O60 1.933 . S
Zn59 O74 1.985 . S
Zn59 O81 1.955 . S
O60 Zn58 1.911 . S
O60 Zn59 1.933 . S
O60 H61 0.841 . S
H61 O60 0.841 . S
Zn62 O63 1.933 . S
Zn62 O76 1.985 . S
Zn62 O85 1.955 . S
O63 Zn62 1.933 . S
O63 Zn64 1.911 . S
O63 H65 0.841 . S
Zn64 O63 1.911 . S
Zn64 O77 1.970 . S
Zn64 O93 1.981 . S
Zn64 O95 1.945 . S
H65 O63 0.841 . S
Zn66 O67 1.933 . S
Zn66 O79 1.985 . S
Zn66 O87 1.955 . S
O67 Zn66 1.933 . S
O67 H68 0.841 . S
O67 Zn69 1.911 . S
H68 O67 0.841 . S
Zn69 O67 1.911 . S
Zn69 O80 1.970 . S
Zn69 O90 1.981 . S
Zn69 O98 1.945 . S
C70 O71 1.246 . S
C70 O87 1.276 . S
O71 C70 1.246 . S
O72 Zn52 1.985 . S
O72 C82 1.245 . S
O73 Zn53 1.970 . S
O73 C82 1.263 . S
O74 Zn59 1.985 . S
O74 C86 1.245 . S
O75 Zn58 1.970 . S
O75 C86 1.263 . S
O76 Zn62 1.985 . S
O76 C91 1.245 . S
O77 Zn64 1.970 . S
O77 C91 1.263 . S
C78 O89 1.262 . S
C78 O90 1.245 . S
O79 Zn66 1.985 . S
O79 C97 1.245 . S
O80 Zn69 1.970 . S
O80 C97 1.263 . S
O81 Zn59 1.955 . S
O81 C100 1.276 . S
C82 O72 1.245 . S
C82 O73 1.263 . S
O83 Zn52 1.955 . S
O83 C102 1.276 . S
C84 O92 1.262 . S
C84 O93 1.245 . S
O85 C56 1.276 . S
O85 Zn62 1.955 . S
C86 O74 1.245 . S
C86 O75 1.263 . S
O87 Zn66 1.955 . S
O87 C70 1.276 . S
C88 O95 1.262 . S
C88 O96 1.245 . S
O89 Zn53 1.945 . S
O89 C78 1.262 . S
O90 Zn69 1.981 . S
O90 C78 1.245 . S
C91 O76 1.245 . S
C91 O77 1.263 . S
O92 Zn58 1.945 . S
O92 C84 1.262 . S
O93 Zn64 1.981 . S
O93 C84 1.245 . S
C94 O98 1.262 . S
C94 O99 1.245 . S
O95 Zn64 1.945 . S
O95 C88 1.262 . S
O96 Zn53 1.981 . S
O96 C88 1.245 . S
C97 O79 1.245 . S
C97 O80 1.263 . S
O98 Zn69 1.945 . S
O98 C94 1.262 . S
O99 Zn58 1.981 . S
O99 C94 1.245 . S
C100 O81 1.276 . S
C100 O101 1.246 . S
O101 C100 1.246 . S
C102 O83 1.276 . S
C102 O103 1.246 . S
O103 C102 1.246 . S
H104 C107 0.929 . S
H105 C110 0.929 . S
H106 C112 0.930 . S
C107 H104 0.929 . S
C107 C108 1.398 1_554 S
C107 C109 1.396 . S
C108 C107 1.398 1_556 S
C108 C112 1.407 . S
C109 C107 1.396 . S
C109 C110 1.394 . S
C110 H105 0.929 . S
C110 C109 1.394 . S
C110 C111 1.382 1_554 S
C111 C110 1.382 1_556 S
C111 C112 1.392 . S
C111 N113 1.420 . S
C112 H106 0.930 . S
C112 C108 1.407 . S
C112 C111 1.392 . S
N113 C111 1.420 . S
N113 C114 1.244 1_556 S
C114 N113 1.244 1_554 S
H115 C118 0.929 . S
H116 C121 0.929 . S
H117 C123 0.930 . S
C118 H115 0.929 . S
C118 C119 1.398 1_554 S
C118 C120 1.396 . S
C119 C118 1.398 1_556 S
C119 C123 1.407 . S
C120 C118 1.396 . S
C120 C121 1.394 . S
C121 H116 0.929 . S
C121 C120 1.394 . S
C121 C122 1.375 1_554 S
C122 C121 1.375 1_556 S
C122 C123 1.398 . S
C122 N124 1.421 . S
C123 H117 0.930 . S
C123 C119 1.407 . S
C123 C122 1.398 . S
N124 C122 1.421 . S
N124 C125 1.244 1_556 S
C125 N124 1.244 1_554 S
H126 C129 0.929 . S
H127 C132 0.929 . S
H128 C134 0.930 . S
C129 H126 0.929 . S
C129 C130 1.398 . S
C129 C131 1.396 1_554 S
C130 C129 1.398 . S
C130 C134 1.407 . S
C131 C129 1.396 1_556 S
C131 C132 1.394 . S
C132 H127 0.929 . S
C132 C131 1.394 . S
C132 C133 1.382 1_556 S
C133 C132 1.382 1_554 S
C133 C134 1.392 . S
C133 N135 1.420 . S
C134 H128 0.930 . S
C134 C130 1.407 . S
C134 C133 1.392 . S
N135 C133 1.420 . S
N135 C136 1.244 1_554 S
C136 N135 1.244 1_556 S
H137 C140 0.929 . S
H138 C143 0.929 . S
H139 C145 0.930 . S
C140 H137 0.929 . S
C140 C141 1.398 . S
C140 C142 1.396 1_554 S
C141 C140 1.398 . S
C141 C145 1.407 . S
C142 C140 1.396 1_556 S
C142 C143 1.394 . S
C143 H138 0.929 . S
C143 C142 1.394 . S
C143 C144 1.382 1_556 S
C144 C143 1.382 1_554 S
C144 C145 1.392 . S
C144 N146 1.420 . S
C145 H139 0.930 . S
C145 C141 1.407 . S
C145 C144 1.392 . S
N146 C144 1.420 . S
N146 C147 1.244 1_554 S
C147 N146 1.244 1_556 S
H148 C151 0.929 . S
H149 C154 0.929 . S
H150 C156 0.930 . S
C151 H148 0.929 . S
C151 C152 1.398 . S
C151 C153 1.396 . S
C152 C151 1.398 . S
C152 C156 1.407 . S
C153 C151 1.396 . S
C153 C154 1.394 . S
C154 H149 0.929 . S
C154 C153 1.394 . S
C154 C155 1.382 . S
C155 C154 1.382 . S
C155 C156 1.392 . S
C155 N157 1.420 . S
C156 H150 0.930 . S
C156 C152 1.407 . S
C156 C155 1.392 . S
N157 C155 1.420 . S
N157 C158 1.244 . S
C158 N157 1.244 . S
H159 C162 0.929 . S
H160 C165 0.929 . S
H161 C167 0.930 . S
C162 H159 0.929 . S
C162 C163 1.398 . S
C162 C164 1.396 . S
C163 C162 1.398 . S
C163 C167 1.407 . S
C164 C162 1.396 . S
C164 C165 1.394 . S
C165 H160 0.929 . S
C165 C164 1.394 . S
C165 C166 1.382 . S
C166 C165 1.382 . S
C166 C167 1.392 . S
C166 N168 1.420 . S
C167 H161 0.930 . S
C167 C163 1.407 . S
C167 C166 1.392 . S
N168 C166 1.420 . S
N168 C169 1.244 . S
C169 N168 1.244 . S
H170 C173 0.929 . S
H171 C176 0.929 . S
H172 C178 0.930 . S
C173 H170 0.929 . S
C173 C174 1.398 . S
C173 C175 1.396 . S
C174 C173 1.398 . S
C174 C178 1.407 . S
C175 C173 1.396 . S
C175 C176 1.394 . S
C176 H171 0.929 . S
C176 C175 1.394 . S
C176 C177 1.382 . S
C177 C176 1.382 . S
C177 C178 1.392 . S
C177 N179 1.420 . S
C178 H172 0.930 . S
C178 C174 1.407 . S
C178 C177 1.392 . S
N179 C177 1.420 . S
N179 C180 1.244 . S
C180 N179 1.244 . S
H181 C184 0.929 . S
H182 C187 0.929 . S
H183 C189 0.930 . S
C184 H181 0.929 . S
C184 C185 1.398 . S
C184 C186 1.396 . S
C185 C184 1.398 . S
C185 C189 1.407 . S
C186 C184 1.396 . S
C186 C187 1.394 . S
C187 H182 0.929 . S
C187 C186 1.394 . S
C187 C188 1.382 . S
C188 C187 1.382 . S
C188 C189 1.392 . S
C188 N190 1.420 . S
C189 H183 0.930 . S
C189 C185 1.407 . S
C189 C188 1.392 . S
N190 C188 1.420 . S
N190 C191 1.244 . S
C191 N190 1.244 . S
C192 C193 1.370 . S
C192 C194 1.419 . S
C192 H196 0.929 1_554 S
C193 C192 1.370 . S
C193 C202 1.429 . S
C194 C192 1.419 . S
C194 C195 1.363 . S
C194 H197 0.929 1_554 S
C195 C194 1.363 . S
C195 C201 1.428 . S
H196 C192 0.929 1_556 S
H197 C194 0.929 1_556 S
S198 N199 1.613 . S
S198 N200 1.610 . S
N199 S198 1.613 . S
N199 C202 1.350 . S
N200 S198 1.610 . S
N200 C201 1.351 . S
C201 C195 1.428 . S
C201 N200 1.351 . S
C201 C202 1.434 . S
C202 C193 1.429 . S
C202 N199 1.350 . S
C202 C201 1.434 . S
C203 C204 1.369 . S
C203 C205 1.419 . S
C203 H207 0.930 . S
C204 C203 1.369 . S
C204 C213 1.429 1_554 S
C205 C203 1.419 . S
C205 C206 1.363 . S
C205 H208 0.929 . S
C206 C205 1.363 . S
C206 C212 1.428 1_554 S
H207 C203 0.930 . S
H208 C205 0.929 . S
S209 N210 1.613 . S
S209 N211 1.610 . S
N210 S209 1.613 . S
N210 C213 1.350 . S
N211 S209 1.610 . S
N211 C212 1.351 . S
C212 C206 1.428 1_556 S
C212 N211 1.351 . S
C212 C213 1.434 . S
C213 C204 1.429 1_556 S
C213 N210 1.350 . S
C213 C212 1.434 . S
C214 C215 1.369 1_556 S
C214 C216 1.419 . S
C214 H218 0.930 . S
C215 C214 1.369 1_554 S
C215 C224 1.429 . S
C216 C214 1.419 . S
C216 C217 1.363 1_556 S
C216 H219 0.929 . S
C217 C216 1.363 1_554 S
C217 C223 1.428 . S
H218 C214 0.930 . S
H219 C216 0.929 . S
S220 N221 1.613 . S
S220 N222 1.610 . S
N221 S220 1.613 . S
N221 C224 1.350 . S
N222 S220 1.610 . S
N222 C223 1.351 . S
C223 C217 1.428 . S
C223 N222 1.351 . S
C223 C224 1.434 . S
C224 C215 1.429 . S
C224 N221 1.350 . S
C224 C223 1.434 . S
C225 C226 1.369 . S
C225 C227 1.419 . S
C225 H229 0.930 . S
C226 C225 1.369 . S
C226 C235 1.429 1_554 S
C227 C225 1.419 . S
C227 C228 1.363 1_554 S
C227 H230 0.929 . S
C228 C227 1.363 1_556 S
C228 C234 1.428 . S
H229 C225 0.930 . S
H230 C227 0.929 . S
S231 N232 1.613 . S
S231 N233 1.610 . S
N232 S231 1.613 . S
N232 C235 1.350 . S
N233 S231 1.610 . S
N233 C234 1.351 . S
C234 C228 1.428 . S
C234 N233 1.351 . S
C234 C235 1.434 . S
C235 C226 1.429 1_556 S
C235 N232 1.350 . S
C235 C234 1.434 . S
C236 C237 1.369 . S
C236 C238 1.419 . S
C236 H240 0.930 . S
C237 C236 1.369 . S
C237 C246 1.429 . S
C238 C236 1.419 . S
C238 C239 1.363 . S
C238 H241 0.929 . S
C239 C238 1.363 . S
C239 C245 1.428 . S
H240 C236 0.930 . S
H241 C238 0.929 . S
S242 N243 1.613 . S
S242 N244 1.610 . S
N243 S242 1.613 . S
N243 C246 1.350 . S
N244 S242 1.610 . S
N244 C245 1.351 . S
C245 C239 1.428 . S
C245 N244 1.351 . S
C245 C246 1.434 . S
C246 C237 1.429 . S
C246 N243 1.350 . S
C246 C245 1.434 . S
C247 C248 1.369 . S
C247 C249 1.419 . S
C247 H251 0.930 . S
C248 C247 1.369 . S
C248 C257 1.429 . S
C249 C247 1.419 . S
C249 C250 1.363 . S
C249 H252 0.929 . S
C250 C249 1.363 . S
C250 C256 1.428 . S
H251 C247 0.930 . S
H252 C249 0.929 . S
S253 N254 1.613 . S
S253 N255 1.610 . S
N254 S253 1.613 . S
N254 C257 1.350 . S
N255 S253 1.610 . S
N255 C256 1.351 . S
C256 C250 1.428 . S
C256 N255 1.351 . S
C256 C257 1.434 . S
C257 C248 1.429 . S
C257 N254 1.350 . S
C257 C256 1.434 . S
C258 C259 1.369 . S
C258 C260 1.419 . S
C258 H262 0.930 . S
C259 C258 1.369 . S
C259 C268 1.429 . S
C260 C258 1.419 . S
C260 C261 1.363 . S
C260 H263 0.929 . S
C261 C260 1.363 . S
C261 C267 1.428 . S
H262 C258 0.930 . S
H263 C260 0.929 . S
S264 N265 1.613 . S
S264 N266 1.610 . S
N265 S264 1.613 . S
N265 C268 1.350 . S
N266 S264 1.610 . S
N266 C267 1.351 . S
C267 C261 1.428 . S
C267 N266 1.351 . S
C267 C268 1.434 . S
C268 C259 1.429 . S
C268 N265 1.350 . S
C268 C267 1.434 . S
C269 C270 1.369 . S
C269 C271 1.419 . S
C269 H273 0.930 . S
C270 C269 1.369 . S
C270 C279 1.429 . S
C271 C269 1.419 . S
C271 C272 1.363 . S
C271 H274 0.929 . S
C272 C271 1.363 . S
C272 C278 1.428 . S
H273 C269 0.930 . S
H274 C271 0.929 . S
S275 N276 1.613 . S
S275 N277 1.610 . S
N276 S275 1.613 . S
N276 C279 1.350 . S
N277 S275 1.610 . S
N277 C278 1.351 . S
C278 C272 1.428 . S
C278 N277 1.351 . S
C278 C279 1.434 . S
C279 C270 1.429 . S
C279 N276 1.350 . S
C279 C278 1.434 . S
C280 C281 1.369 . S
C280 C282 1.419 . S
C280 H284 0.931 1_455 S
C281 C280 1.369 . S
C281 C290 1.429 . S
C282 C280 1.419 . S
C282 C283 1.363 . S
C282 H285 0.929 . S
C283 C282 1.363 . S
C283 C289 1.428 . S
H284 C280 0.931 1_655 S
H285 C282 0.929 . S
S286 N287 1.613 . S
S286 N288 1.610 . S
N287 S286 1.613 . S
N287 C290 1.350 . S
N288 S286 1.610 . S
N288 C289 1.351 . S
C289 C283 1.428 . S
C289 N288 1.351 . S
C289 C290 1.434 . S
C290 C281 1.429 . S
C290 N287 1.350 . S
C290 C289 1.434 . S
C291 C292 1.369 . S
C291 C293 1.419 . S
C291 H295 0.930 . S
C292 C291 1.369 . S
C292 C301 1.429 . S
C293 C291 1.419 . S
C293 C294 1.363 . S
C293 H296 0.929 . S
C294 C293 1.363 . S
C294 C300 1.428 . S
H295 C291 0.930 . S
H296 C293 0.929 . S
S297 N298 1.613 . S
S297 N299 1.610 . S
N298 S297 1.613 . S
N298 C301 1.350 . S
N299 S297 1.610 . S
N299 C300 1.351 . S
C300 C294 1.428 . S
C300 N299 1.351 . S
C300 C301 1.434 . S
C301 C292 1.429 . S
C301 N298 1.350 . S
C301 C300 1.434 . S
C302 C303 1.369 . S
C302 C304 1.419 . S
C302 H306 0.930 . S
C303 C302 1.369 . S
C303 C312 1.429 . S
C304 C302 1.419 . S
C304 C305 1.363 . S
C304 H307 0.929 . S
C305 C304 1.363 . S
C305 C311 1.428 . S
H306 C302 0.930 . S
H307 C304 0.929 . S
S308 N309 1.613 . S
S308 N310 1.610 . S
N309 S308 1.613 . S
N309 C312 1.350 . S
N310 S308 1.610 . S
N310 C311 1.351 . S
C311 C305 1.428 . S
C311 N310 1.351 . S
C311 C312 1.434 . S
C312 C303 1.429 . S
C312 N309 1.350 . S
C312 C311 1.434 . S
C313 C314 1.369 . S
C313 C315 1.419 . S
C313 H317 0.930 . S
C314 C313 1.369 . S
C314 C323 1.429 . S
C315 C313 1.419 . S
C315 C316 1.363 . S
C315 H318 0.929 . S
C316 C315 1.363 . S
C316 C322 1.428 . S
H317 C313 0.930 . S
H318 C315 0.929 . S
S319 N320 1.613 . S
S319 N321 1.610 . S
N320 S319 1.613 . S
N320 C323 1.350 . S
N321 S319 1.610 . S
N321 C322 1.351 . S
C322 C316 1.428 . S
C322 N321 1.351 . S
C322 C323 1.434 . S
C323 C314 1.429 . S
C323 N320 1.350 . S
C323 C322 1.434 . S
C324 C325 1.369 . S
C324 C326 1.419 . S
C324 H328 0.930 . S
C325 C324 1.369 . S
C325 C334 1.429 . S
C326 C324 1.419 . S
C326 C327 1.363 . S
C326 H329 0.929 . S
C327 C326 1.363 . S
C327 C333 1.428 . S
H328 C324 0.930 . S
H329 C326 0.929 . S
S330 N331 1.613 . S
S330 N332 1.598 1_545 S
N331 S330 1.613 . S
N331 C334 1.350 1_545 S
N332 S330 1.598 1_565 S
N332 C333 1.364 . S
C333 C327 1.428 . S
C333 N332 1.364 . S
C333 C334 1.434 . S
C334 C325 1.429 . S
C334 N331 1.350 1_565 S
C334 C333 1.434 . S
C335 C336 1.369 . S
C335 C337 1.419 . S
C335 H339 0.930 . S
C336 C335 1.369 . S
C336 C345 1.429 . S
C337 C335 1.419 . S
C337 C338 1.363 . S
C337 H340 0.929 . S
C338 C337 1.363 . S
C338 C344 1.428 . S
H339 C335 0.930 . S
H340 C337 0.929 . S
S341 N342 1.613 . S
S341 N343 1.610 . S
N342 S341 1.613 . S
N342 C345 1.350 . S
N343 S341 1.610 . S
N343 C344 1.351 . S
C344 C338 1.428 . S
C344 N343 1.351 . S
C344 C345 1.434 . S
C345 C336 1.429 . S
C345 N342 1.350 . S
C345 C344 1.434 . S
C346 C347 1.369 . S
C346 C348 1.419 . S
C346 H350 0.930 1_545 S
C347 C346 1.369 . S
C347 C356 1.429 . S
C348 C346 1.419 . S
C348 C349 1.363 . S
C348 H351 0.929 . S
C349 C348 1.363 . S
C349 C355 1.428 . S
H350 C346 0.930 1_565 S
H351 C348 0.929 . S
S352 N353 1.613 . S
S352 N354 1.610 . S
N353 S352 1.613 . S
N353 C356 1.350 . S
N354 S352 1.610 . S
N354 C355 1.351 . S
C355 C349 1.428 . S
C355 N354 1.351 . S
C355 C356 1.434 . S
C356 C347 1.429 . S
C356 N353 1.350 . S
C356 C355 1.434 . S
C357 C358 1.369 . S
C357 C359 1.419 . S
C357 H361 0.930 1_655 S
C358 C357 1.369 . S
C358 C367 1.429 . S
C359 C357 1.419 . S
C359 C360 1.363 . S
C359 H362 0.929 . S
C360 C359 1.363 . S
C360 C366 1.428 . S
H361 C357 0.930 1_455 S
H362 C359 0.929 . S
S363 N364 1.613 . S
S363 N365 1.610 . S
N364 S363 1.613 . S
N364 C367 1.350 . S
N365 S363 1.610 . S
N365 C366 1.351 . S
C366 C360 1.428 . S
C366 N365 1.351 . S
C366 C367 1.434 . S
C367 C358 1.429 . S
C367 N364 1.350 . S
C367 C366 1.434 . S
C368 C369 1.369 . S
C368 C370 1.419 . S
C368 H372 0.930 . S
C369 C368 1.369 . S
C369 C378 1.429 . S
C370 C368 1.419 . S
C370 C371 1.363 . S
C370 H373 0.929 . S
C371 C370 1.363 . S
C371 C377 1.428 . S
H372 C368 0.930 . S
H373 C370 0.929 . S
S374 N375 1.613 . S
S374 N376 1.610 . S
N375 S374 1.613 . S
N375 C378 1.350 . S
N376 S374 1.610 . S
N376 C377 1.351 . S
C377 C371 1.428 . S
C377 N376 1.351 . S
C377 C378 1.434 . S
C378 C369 1.429 . S
C378 N375 1.350 . S
C378 C377 1.434 . S
C379 C380 1.369 . S
C379 C381 1.419 . S
C379 H383 0.930 . S
C380 C379 1.369 . S
C380 C389 1.429 . S
C381 C379 1.419 . S
C381 C382 1.363 . S
C381 H384 0.929 . S
C382 C381 1.363 . S
C382 C388 1.428 . S
H383 C379 0.930 . S
H384 C381 0.929 . S
S385 N386 1.613 . S
S385 N387 1.610 . S
N386 S385 1.613 . S
N386 C389 1.350 . S
N387 S385 1.610 . S
N387 C388 1.351 . S
C388 C382 1.428 . S
C388 N387 1.351 . S
C388 C389 1.434 . S
C389 C380 1.429 . S
C389 N386 1.350 . S
C389 C388 1.434 . S
C390 C391 1.369 . S
C390 C392 1.419 . S
C390 H394 0.930 . S
C391 C390 1.369 . S
C391 C400 1.429 . S
C392 C390 1.419 . S
C392 C393 1.363 . S
C392 H395 0.929 . S
C393 C392 1.363 . S
C393 C399 1.428 . S
H394 C390 0.930 . S
H395 C392 0.929 . S
S396 N397 1.613 . S
S396 N398 1.610 . S
N397 S396 1.613 . S
N397 C400 1.350 . S
N398 S396 1.610 . S
N398 C399 1.351 . S
C399 C393 1.428 . S
C399 N398 1.351 . S
C399 C400 1.434 . S
C400 C391 1.429 . S
C400 N397 1.350 . S
C400 C399 1.434 . S
C401 C402 1.369 . S
C401 C403 1.419 . S
C401 H405 0.930 . S
C402 C401 1.369 . S
C402 C411 1.429 . S
C403 C401 1.419 . S
C403 C404 1.363 . S
C403 H406 0.929 . S
C404 C403 1.363 . S
C404 C410 1.428 . S
H405 C401 0.930 . S
H406 C403 0.929 . S
S407 N408 1.613 . S
S407 N409 1.610 . S
N408 S407 1.613 . S
N408 C411 1.350 . S
N409 S407 1.610 . S
N409 C410 1.351 . S
C410 C404 1.428 . S
C410 N409 1.351 . S
C410 C411 1.434 . S
C411 C402 1.429 . S
C411 N408 1.350 . S
C411 C410 1.434 . S
C412 C413 1.369 . S
C412 C414 1.419 . S
C412 H416 0.930 . S
C413 C412 1.369 . S
C413 C422 1.429 . S
C414 C412 1.419 . S
C414 C415 1.363 . S
C414 H417 0.929 . S
C415 C414 1.363 . S
C415 C421 1.428 . S
H416 C412 0.930 . S
H417 C414 0.929 . S
S418 N419 1.613 . S
S418 N420 1.610 . S
N419 S418 1.613 . S
N419 C422 1.350 . S
N420 S418 1.610 . S
N420 C421 1.351 . S
C421 C415 1.428 . S
C421 N420 1.351 . S
C421 C422 1.434 . S
C422 C413 1.429 . S
C422 N419 1.350 . S
C422 C421 1.434 . S
C423 C424 1.369 . S
C423 C425 1.419 . S
C423 H427 0.930 . S
C424 C423 1.369 . S
C424 C433 1.429 . S
C425 C423 1.419 . S
C425 C426 1.363 . S
C425 H428 0.929 . S
C426 C425 1.363 . S
C426 C432 1.428 . S
H427 C423 0.930 . S
H428 C425 0.929 . S
S429 N430 1.613 . S
S429 N431 1.610 . S
N430 S429 1.613 . S
N430 C433 1.350 . S
N431 S429 1.610 . S
N431 C432 1.351 . S
C432 C426 1.428 . S
C432 N431 1.351 . S
C432 C433 1.434 . S
C433 C424 1.429 . S
C433 N430 1.350 . S
C433 C432 1.434 . S
C434 C435 1.369 . S
C434 C436 1.419 . S
C434 H438 0.930 . S
C435 C434 1.369 . S
C435 C444 1.429 . S
C436 C434 1.419 . S
C436 C437 1.363 . S
C436 H439 0.929 . S
C437 C436 1.363 . S
C437 C443 1.428 . S
H438 C434 0.930 . S
H439 C436 0.929 . S
S440 N441 1.613 . S
S440 N442 1.610 . S
N441 S440 1.613 . S
N441 C444 1.350 . S
N442 S440 1.610 . S
N442 C443 1.351 . S
C443 C437 1.428 . S
C443 N442 1.351 . S
C443 C444 1.434 . S
C444 C435 1.429 . S
C444 N441 1.350 . S
C444 C443 1.434 . S
C445 C446 1.369 . S
C445 C447 1.419 . S
C445 H449 0.930 . S
C446 C445 1.369 . S
C446 C455 1.429 . S
C447 C445 1.419 . S
C447 C448 1.363 . S
C447 H450 0.929 . S
C448 C447 1.363 . S
C448 C454 1.428 . S
H449 C445 0.930 . S
H450 C447 0.929 . S
S451 N452 1.613 . S
S451 N453 1.610 . S
N452 S451 1.613 . S
N452 C455 1.350 . S
N453 S451 1.610 . S
N453 C454 1.351 . S
C454 C448 1.428 . S
C454 N453 1.351 . S
C454 C455 1.434 . S
C455 C446 1.429 . S
C455 N452 1.350 . S
C455 C454 1.434 . S
C193 C45 1.554 . S
C195 C114 1.562 . S
C204 C30 1.549 . S
C206 C125 1.568 . S
C215 C39 1.554 . S
C217 C136 1.552 1_554 S
C228 C147 1.558 . S
C226 C34 1.548 . S
C237 C97 1.554 . S
C239 C158 1.561 . S
C250 C169 1.565 . S
C248 C82 1.547 . S
C261 C180 1.558 . S
C259 C91 1.548 . S
C272 C191 1.571 . S
C270 C86 1.552 . S
C283 C175 1.546 . S
C281 C26 1.508 . S
C294 C185 1.465 . S
C292 C36 1.429 . S
C305 C152 1.539 . S
C303 C32 1.500 . S
C316 C163 1.504 . S
C314 C42 1.471 . S
C325 C18 1.562 . S
C327 C164 1.621 . S
C338 C174 1.597 . S
C336 C50 1.528 . S
C347 C4 1.611 . S
C349 C186 1.654 . S
C358 C48 1.531 . S
C360 C153 1.582 . S
C371 C131 1.527 . S
C369 C78 1.489 . S
C380 C88 1.503 . S
C382 C142 1.548 . S
C393 C108 1.515 . S
C391 C84 1.468 . S
C404 C119 1.493 . S
C402 C94 1.462 . S
C415 C120 1.625 . S
C413 C70 1.581 . S
C426 C130 1.619 . S
C424 C102 1.536 . S
C435 C56 1.529 . S
C437 C141 1.595 . S
C446 C100 1.555 . S
C448 C109 1.609 . S
