# Generated by pormake.
# Topology rtl, (3,6)-cn, num edge types: 1
# Building blocks:
#     Node 0, Type 0, BuildingBlock: ESEHIV_clean_linker_0, # of connection points: 3
#     Node 1, Type 0, BuildingBlock: ESEHIV_clean_linker_0, # of connection points: 3
#     Node 2, Type 0, BuildingBlock: ESEHIV_clean_linker_0, # of connection points: 3
#     Node 3, Type 0, BuildingBlock: ESEHIV_clean_linker_0, # of connection points: 3
#     Node 4, Type 1, BuildingBlock: KUMBUR_clean_sbu_1, # of connection points: 6
#     Node 5, Type 1, BuildingBlock: KUMBUR_clean_sbu_1, # of connection points: 6
#     Edge 6, Type (0, 1), BuildingBlock: TEMPAE_clean_linker_10, # of connection points: 2
#     Edge 7, Type (0, 1), BuildingBlock: TEMPAE_clean_linker_10, # of connection points: 2
#     Edge 8, Type (0, 1), BuildingBlock: TEMPAE_clean_linker_10, # of connection points: 2
#     Edge 9, Type (0, 1), BuildingBlock: TEMPAE_clean_linker_10, # of connection points: 2
#     Edge 10, Type (0, 1), BuildingBlock: TEMPAE_clean_linker_10, # of connection points: 2
#     Edge 11, Type (0, 1), BuildingBlock: TEMPAE_clean_linker_10, # of connection points: 2
#     Edge 12, Type (0, 1), BuildingBlock: TEMPAE_clean_linker_10, # of connection points: 2
#     Edge 13, Type (0, 1), BuildingBlock: TEMPAE_clean_linker_10, # of connection points: 2
#     Edge 14, Type (0, 1), BuildingBlock: TEMPAE_clean_linker_10, # of connection points: 2
#     Edge 15, Type (0, 1), BuildingBlock: TEMPAE_clean_linker_10, # of connection points: 2
#     Edge 16, Type (0, 1), BuildingBlock: TEMPAE_clean_linker_10, # of connection points: 2
#     Edge 17, Type (0, 1), BuildingBlock: TEMPAE_clean_linker_10, # of connection points: 2
# Relax obj value: 0.018
# Max RMSD: 0.116
# Mean RMSD: 0.069
data_MOF--net-rtl--node1-KUMBUR_clean_sbu_1--node2-ESEHIV_clean_linker_0--edge1-TEMPAE_clean_linker_10
_symmetry_space_group_name_H-M    P1
_symmetry_Int_Tables_number       1
_symmetry_cell_setting            triclinic
loop_
_symmetry_equiv_pos_as_xyz
'x, y, z'
_cell_length_a     31.102573
_cell_length_b     31.815577
_cell_length_c     28.228274
_cell_angle_alpha  77.482652
_cell_angle_beta   99.465675
_cell_angle_gamma 91.139235
loop_
_atom_site_label
_atom_site_type_symbol
_atom_site_fract_x
_atom_site_fract_y
_atom_site_fract_z
_atom_type_partial_charge
H0 H 0.14816 0.87248 0.0227 0.0
H1 H 0.24962 0.78742 0.11308 0.0
H2 H 0.23365 0.80677 0.95588 0.0
C3 C 0.17579 0.85127 0.0257 0.0
C4 C 0.18842 0.84284 0.9831 0.0
C5 C 0.19805 0.83186 0.07252 0.0
C6 C 0.23308 0.8034 0.07697 0.0
C7 C 0.24507 0.79374 0.03475 0.0
C8 C 0.22326 0.81389 0.98816 0.0
H9 H 0.6461 0.63847 0.64523 0.0
H10 H 0.71955 0.72912 0.55587 0.0
H11 H 0.72057 0.73522 0.70702 0.0
C12 C 0.66746 0.66593 0.6414 0.0
C13 C 0.68096 0.68523 0.68165 0.0
C14 C 0.68094 0.68186 0.59599 0.0
C15 C 0.70856 0.71727 0.59081 0.0
C16 C 0.72356 0.73635 0.63082 0.0
C17 C 0.70981 0.72004 0.67634 0.0
H18 H 0.8592 0.10897 0.08137 0.0
H19 H 0.79363 0.19178 0.14974 0.0
H20 H 0.76622 0.20516 0.99347 0.0
C21 C 0.83604 0.13471 0.07855 0.0
C22 C 0.81449 0.15607 0.0319 0.0
C23 C 0.82819 0.14678 0.12154 0.0
C24 C 0.79906 0.18107 0.11724 0.0
C25 C 0.7766 0.20186 0.07132 0.0
C26 C 0.78393 0.18898 0.02889 0.0
H27 H 0.36842 0.3868 0.45155 0.0
H28 H 0.27637 0.30356 0.52171 0.0
H29 H 0.29131 0.29958 0.37513 0.0
C30 C 0.34393 0.36238 0.45003 0.0
C31 C 0.33349 0.34507 0.40735 0.0
C32 C 0.32259 0.34874 0.49103 0.0
C33 C 0.29183 0.31593 0.48987 0.0
C34 C 0.28113 0.29798 0.44848 0.0
C35 C 0.30153 0.31279 0.40734 0.0
Tb36 Tb 0.0531 0.95541 0.53429 0.0
C37 C 0.97462 0.14503 0.5094 0.0
N38 N 0.00575 0.12322 0.54524 0.0
C39 C 0.04818 0.18714 0.5428 0.0
C40 C 0.97943 0.1888 0.48799 0.0
C41 C 0.04192 0.14368 0.5628 0.0
C42 C 0.01702 0.20973 0.50489 0.0
C43 C 0.9041 0.14467 0.45794 0.0
C44 C 0.93755 0.12337 0.49458 0.0
C45 C 0.90892 0.18816 0.43584 0.0
C46 C 0.94652 0.21018 0.45081 0.0
Tb47 Tb 0.99326 0.05205 0.57332 0.0
N48 N 0.93482 0.08091 0.5157 0.0
C49 C 0.86693 0.12155 0.44468 0.0
C50 C 0.89772 0.05873 0.50467 0.0
C51 C 0.86356 0.07855 0.46852 0.0
H52 H 0.0657 0.12652 0.59268 0.0
H53 H 0.83466 0.06063 0.45904 0.0
H54 H 0.00929 0.86654 0.58955 0.0
H55 H 0.21875 0.01476 0.5589 0.0
H56 H 0.89468 0.02563 0.52301 0.0
H57 H 0.84051 0.13671 0.41655 0.0
H58 H 0.14529 0.01025 0.51376 0.0
H59 H 0.07689 0.20318 0.5569 0.0
H60 H 0.88372 0.20508 0.4073 0.0
H61 H 0.94968 0.24378 0.43367 0.0
H62 H 0.03165 0.80556 0.65996 0.0
H63 H 0.02201 0.24338 0.48943 0.0
H64 H 0.24329 0.96305 0.63733 0.0
N65 N 0.0698 0.89845 0.5993 0.0
C66 C 0.11078 0.89742 0.62516 0.0
C67 C 0.05415 0.83124 0.65063 0.0
C68 C 0.12488 0.86336 0.66554 0.0
C69 C 0.04159 0.8657 0.61086 0.0
C70 C 0.09597 0.83004 0.67808 0.0
N71 N 0.12413 0.96221 0.5705 0.0
C72 C 0.15359 0.98999 0.54997 0.0
C73 C 0.18162 0.93024 0.63637 0.0
C74 C 0.13853 0.93074 0.61086 0.0
C75 C 0.21002 0.96222 0.61872 0.0
C76 C 0.1962 0.99163 0.57467 0.0
H77 H 0.10566 0.80315 0.7087 0.0
H78 H 0.17895 0.83749 0.72271 0.0
H79 H 0.22843 0.89621 0.69754 0.0
O80 O 0.08927 0.94603 0.48025 0.0
O81 O 0.03971 0.95176 0.60915 0.0
O82 O 0.05205 0.02035 0.61844 0.0
O83 O 0.04623 0.89775 0.50916 0.0
O84 O 0.06973 0.02286 0.5055 0.0
O85 O 0.06291 0.05231 0.57097 0.0
O86 O 0.95639 0.03116 0.63009 0.0
O87 O 0.98492 0.05363 0.49437 0.0
O88 O 0.99949 0.98667 0.47841 0.0
O89 O 0.98686 0.09294 0.62123 0.0
O90 O 0.95981 0.98989 0.58036 0.0
O91 O 0.98329 0.9454 0.53299 0.0
C92 C 0.0525 0.97903 0.63696 0.0
C93 C 0.05089 0.90719 0.42537 0.0
C94 C 0.05959 0.90018 0.34328 0.0
C95 C 0.01435 0.90553 0.32814 0.0
C96 C 0.00558 0.91157 0.40991 0.0
C97 C 0.98751 0.91076 0.36151 0.0
C98 C 0.07776 0.90095 0.39205 0.0
C99 C 0.07719 0.05417 0.52941 0.0
C100 C 0.07039 0.91008 0.47567 0.0
C101 C 0.16736 0.86345 0.69172 0.0
C102 C 0.19555 0.89693 0.67739 0.0
C103 C 0.98287 0.02605 0.46543 0.0
C104 C 0.92096 0.08702 0.65264 0.0
C105 C 0.87593 0.10543 0.70875 0.0
C106 C 0.84637 0.127 0.66781 0.0
C107 C 0.89102 0.10874 0.61255 0.0
C108 C 0.91321 0.08523 0.70066 0.0
C109 C 0.85387 0.12841 0.62014 0.0
C110 C 0.95567 0.95625 0.55946 0.0
C111 C 0.96094 0.06721 0.64506 0.0
H112 H 0.99971 0.90468 0.29078 0.0
H113 H 0.98415 0.91556 0.43525 0.0
H114 H 0.95261 0.91391 0.34991 0.0
H115 H 0.11272 0.89719 0.40385 0.0
H116 H 0.8179 0.14369 0.67253 0.0
H117 H 0.89643 0.11106 0.57544 0.0
H118 H 0.93628 0.0682 0.73159 0.0
H119 H 0.8311 0.14535 0.58895 0.0
Tb120 Tb 0.4739 0.48181 0.9953 0.0
C121 C 0.64911 0.55017 0.05636 0.0
N122 N 0.63014 0.51537 0.08149 0.0
C123 C 0.69505 0.47321 0.08859 0.0
C124 C 0.69076 0.54717 0.0437 0.0
C125 C 0.65397 0.47817 0.10094 0.0
C126 C 0.71312 0.50757 0.05882 0.0
C127 C 0.64731 0.62725 0.02326 0.0
C128 C 0.62792 0.58965 0.04634 0.0
C129 C 0.68774 0.62413 0.00815 0.0
C130 C 0.70938 0.58411 0.01821 0.0
Tb131 Tb 0.56098 0.52702 0.09532 0.0
N132 N 0.58815 0.59111 0.05982 0.0
C133 C 0.62558 0.66677 0.01659 0.0
C134 C 0.56781 0.62968 0.05594 0.0
C135 C 0.58596 0.66805 0.03368 0.0
H136 H 0.64178 0.45225 0.12653 0.0
H137 H 0.56932 0.69851 0.02948 0.0
H138 H 0.38234 0.532 0.9956 0.0
H139 H 0.51273 0.31168 0.02447 0.0
H140 H 0.53711 0.63056 0.06898 0.0
H141 H 0.63937 0.69646 0.99899 0.0
H142 H 0.52202 0.38888 0.99196 0.0
H143 H 0.71307 0.44314 0.10281 0.0
H144 H 0.70294 0.65254 0.98961 0.0
H145 H 0.74108 0.58234 0.00753 0.0
H146 H 0.3112 0.51326 0.02232 0.0
H147 H 0.74517 0.50382 0.04982 0.0
H148 H 0.44866 0.28678 0.06395 0.0
N149 N 0.40699 0.46766 0.01739 0.0
C150 C 0.39843 0.42572 0.03501 0.0
C151 C 0.33556 0.48835 0.02636 0.0
C152 C 0.3586 0.41349 0.05112 0.0
C153 C 0.37587 0.49891 0.01139 0.0
C154 C 0.32706 0.44551 0.04685 0.0
N155 N 0.46696 0.40855 0.01849 0.0
C156 C 0.49527 0.37893 0.01157 0.0
C157 C 0.42223 0.35115 0.05382 0.0
C158 C 0.42991 0.39519 0.03652 0.0
C159 C 0.45327 0.32094 0.05101 0.0
C160 C 0.48953 0.33487 0.02891 0.0
H161 H 0.29597 0.43746 0.05877 0.0
H162 H 0.32134 0.35977 0.08366 0.0
H163 H 0.37703 0.30508 0.08584 0.0
O164 O 0.45334 0.45433 0.93388 0.0
O165 O 0.45859 0.48034 0.06921 0.0
O166 O 0.52439 0.46913 0.12153 0.0
O167 O 0.44823 0.52259 0.92779 0.0
O168 O 0.54109 0.45648 0.01341 0.0
O169 O 0.56533 0.45803 0.09496 0.0
O170 O 0.54395 0.55542 0.15055 0.0
O171 O 0.5479 0.55924 0.01681 0.0
O172 O 0.53783 0.5031 0.97844 0.0
O173 O 0.60752 0.52783 0.15834 0.0
O174 O 0.49486 0.55417 0.08065 0.0
O175 O 0.46389 0.54894 1.00076 0.0
C176 C 0.48187 0.46421 0.11245 0.0
C177 C 0.39947 0.49203 0.87058 0.0
C178 C 0.36101 0.4772 0.79328 0.0
C179 C 0.3241 0.49908 0.79914 0.0
C180 C 0.36219 0.51359 0.87588 0.0
C181 C 0.32465 0.5168 0.84042 0.0
C182 C 0.39849 0.4734 0.8295 0.0
C183 C 0.56452 0.44045 0.05663 0.0
C184 C 0.44077 0.49106 0.90503 0.0
C185 C 0.35153 0.36985 0.07047 0.0
C186 C 0.38331 0.33873 0.07186 0.0
C187 C 0.55287 0.5415 0.98025 0.0
C188 C 0.579 0.52605 0.23084 0.0
C189 C 0.58667 0.53209 0.31646 0.0
C190 C 0.57289 0.48939 0.32913 0.0
C191 C 0.56629 0.48321 0.24427 0.0
C192 C 0.58959 0.55031 0.26705 0.0
C193 C 0.56313 0.46506 0.29321 0.0
C194 C 0.4665 0.56629 0.03975 0.0
C195 C 0.58111 0.54592 0.17927 0.0
H196 H 0.29478 0.50227 0.77186 0.0
H197 H 0.36226 0.52858 0.9068 0.0
H198 H 0.29605 0.53358 0.84461 0.0
H199 H 0.42737 0.45719 0.82488 0.0
H200 H 0.57069 0.47455 0.36699 0.0
H201 H 0.55917 0.46392 0.21692 0.0
H202 H 0.59977 0.58338 0.25676 0.0
H203 H 0.55354 0.43194 0.3035 0.0
C204 C 0.20651 0.2709 0.45779 0.0
C205 C 0.24847 0.2634 0.44919 0.0
C206 C 0.1768 0.23726 0.46506 0.0
C207 C 0.18986 0.19481 0.46519 0.0
C208 C 0.23173 0.18742 0.4546 0.0
C209 C 0.26044 0.22197 0.44625 0.0
C210 C 0.13249 0.24709 0.47555 0.0
C211 C 0.24711 0.14265 0.45491 0.0
C212 C 0.13675 0.10485 0.54682 0.0
C213 C 0.10655 0.08926 0.51246 0.0
C214 C 0.16437 0.13875 0.53176 0.0
C215 C 0.16149 0.1578 0.48106 0.0
C216 C 0.13105 0.142 0.44615 0.0
C217 C 0.1042 0.10752 0.46227 0.0
C218 C 0.19641 0.15442 0.57023 0.0
C219 C 0.1261 0.16225 0.39199 0.0
H220 H 0.19731 0.30303 0.46003 0.0
H221 H 0.29307 0.21621 0.43996 0.0
H222 H 0.10698 0.2265 0.46039 0.0
H223 H 0.13371 0.24093 0.51594 0.0
H224 H 0.12286 0.28139 0.46011 0.0
H225 H 0.27914 0.14273 0.44235 0.0
H226 H 0.25018 0.12256 0.49276 0.0
H227 H 0.22292 0.12714 0.43093 0.0
H228 H 0.13887 0.09033 0.58562 0.0
H229 H 0.08058 0.09555 0.43577 0.0
H230 H 0.18848 0.18832 0.56999 0.0
H231 H 0.22991 0.15367 0.56166 0.0
H232 H 0.19607 0.13473 0.60783 0.0
H233 H 0.11622 0.1966 0.3857 0.0
H234 H 0.10143 0.14579 0.36949 0.0
H235 H 0.15778 0.16138 0.37899 0.0
C236 C 0.26485 0.72041 0.02829 0.0
C237 C 0.27811 0.76018 0.03867 0.0
C238 C 0.29558 0.6886 0.02895 0.0
C239 C 0.34056 0.6973 0.03927 0.0
C240 C 0.35404 0.73757 0.04986 0.0
C241 C 0.32248 0.76855 0.04981 0.0
C242 C 0.27994 0.64578 0.01843 0.0
C243 C 0.40172 0.74812 0.06041 0.0
C244 C 0.42024 0.60294 0.08288 0.0
C245 C 0.43438 0.59987 0.03908 0.0
C246 C 0.38956 0.63439 0.08341 0.0
C247 C 0.3734 0.66407 0.03924 0.0
C248 C 0.38787 0.66134 0.99492 0.0
C249 C 0.41785 0.62882 0.99526 0.0
C250 C 0.37404 0.6355 0.1311 0.0
C251 C 0.37182 0.69288 0.94727 0.0
H252 H 0.23032 0.71435 0.01954 0.0
H253 H 0.33237 0.79963 0.05734 0.0
H254 H 0.29161 0.6405 0.98507 0.0
H255 H 0.29366 0.61923 0.0494 0.0
H256 H 0.24382 0.64373 0.01267 0.0
H257 H 0.40674 0.78104 0.06745 0.0
H258 H 0.41826 0.72459 0.09294 0.0
H259 H 0.41774 0.74552 0.0288 0.0
H260 H 0.43258 0.58013 0.11671 0.0
H261 H 0.42898 0.62652 0.96145 0.0
H262 H 0.33816 0.63163 0.12676 0.0
H263 H 0.38127 0.66715 0.14082 0.0
H264 H 0.38955 0.60978 0.1621 0.0
H265 H 0.33601 0.69034 0.9372 0.0
H266 H 0.38744 0.68728 0.91645 0.0
H267 H 0.37852 0.72629 0.95183 0.0
C268 C 0.74595 0.80688 0.58328 0.0
C269 C 0.75434 0.77268 0.62448 0.0
C270 C 0.77679 0.83906 0.57354 0.0
C271 C 0.81723 0.83678 0.60551 0.0
C272 C 0.82529 0.80311 0.64812 0.0
C273 C 0.7936 0.77156 0.65725 0.0
C274 C 0.76665 0.8747 0.52812 0.0
C275 C 0.86811 0.79941 0.68294 0.0
C276 C 0.91436 0.88891 0.55117 0.0
C277 C 0.91875 0.92691 0.56908 0.0
C278 C 0.88158 0.85937 0.56288 0.0
C279 C 0.85198 0.86814 0.59277 0.0
C280 C 0.85553 0.9068 0.61012 0.0
C281 C 0.8889 0.93564 0.59821 0.0
C282 C 0.87897 0.81844 0.54371 0.0
C283 C 0.82433 0.91752 0.64166 0.0
H284 H 0.7154 0.80804 0.55815 0.0
H285 H 0.80031 0.74497 0.68891 0.0
H286 H 0.77206 0.90655 0.53792 0.0
H287 H 0.78896 0.87201 0.502 0.0
H288 H 0.73253 0.87368 0.5091 0.0
H289 H 0.86831 0.77289 0.71586 0.0
H290 H 0.89494 0.79343 0.6636 0.0
H291 H 0.87516 0.83003 0.69525 0.0
H292 H 0.93699 0.88175 0.5285 0.0
H293 H 0.89172 0.96488 0.61221 0.0
H294 H 0.8466 0.8165 0.52101 0.0
H295 H 0.88248 0.79007 0.57495 0.0
H296 H 0.90458 0.81633 0.5211 0.0
H297 H 0.79029 0.91756 0.6222 0.0
H298 H 0.83082 0.94939 0.65122 0.0
H299 H 0.82684 0.89254 0.67621 0.0
C300 C 0.70206 0.23504 0.04681 0.0
C301 C 0.74573 0.2374 0.0681 0.0
C302 C 0.672 0.26765 0.04581 0.0
C303 C 0.68638 0.30372 0.06565 0.0
C304 C 0.73068 0.3065 0.08648 0.0
C305 C 0.75979 0.27301 0.08788 0.0
C306 C 0.62485 0.26338 0.02395 0.0
C307 C 0.74738 0.34501 0.1068 0.0
C308 C 0.61768 0.40582 0.02007 0.0
C309 C 0.59579 0.40558 0.05967 0.0
C310 C 0.64775 0.37315 0.02185 0.0
C311 C 0.65521 0.33896 0.06381 0.0
C312 C 0.63293 0.33849 0.10387 0.0
C313 C 0.60374 0.37224 0.10154 0.0
C314 C 0.67163 0.37535 0.97894 0.0
C315 C 0.63964 0.30219 0.14888 0.0
H316 H 0.6913 0.2072 0.03194 0.0
H317 H 0.79373 0.27477 0.10406 0.0
H318 H 0.60365 0.26489 0.05157 0.0
H319 H 0.615 0.2906 0.99222 0.0
H320 H 0.61876 0.23274 0.01132 0.0
H321 H 0.78262 0.34177 0.1226 0.0
H322 H 0.74227 0.37457 0.07715 0.0
H323 H 0.72889 0.34952 0.13579 0.0
H324 H 0.61179 0.43204 0.98793 0.0
H325 H 0.58652 0.3722 0.13198 0.0
H326 H 0.66401 0.34679 0.96265 0.0
H327 H 0.70735 0.37481 0.99175 0.0
H328 H 0.66291 0.40483 0.94971 0.0
H329 H 0.63151 0.27109 0.13808 0.0
H330 H 0.61928 0.30635 0.17646 0.0
H331 H 0.67438 0.30012 0.16645 0.0
C332 C 0.13987 0.83003 0.12345 0.0
C333 C 0.18275 0.83986 0.11656 0.0
C334 C 0.1236 0.83952 0.16338 0.0
C335 C 0.15069 0.86018 0.19658 0.0
C336 C 0.19431 0.86971 0.1901 0.0
C337 C 0.21002 0.85897 0.15026 0.0
C338 C 0.07716 0.82811 0.16953 0.0
C339 C 0.22381 0.89243 0.22423 0.0
C340 C 0.08621 0.9215 0.26305 0.0
C341 C 0.08731 0.89245 0.30824 0.0
C342 C 0.10898 0.91252 0.22737 0.0
C343 C 0.13241 0.87306 0.23684 0.0
C344 C 0.13477 0.84427 0.28315 0.0
C345 C 0.11246 0.85456 0.31859 0.0
C346 C 0.10645 0.94445 0.17883 0.0
C347 C 0.15876 0.80157 0.29426 0.0
H348 H 0.11901 0.81499 0.09732 0.0
H349 H 0.24313 0.86674 0.14449 0.0
H350 H 0.07626 0.80862 0.20704 0.0
H351 H 0.05765 0.85791 0.16523 0.0
H352 H 0.06138 0.80974 0.14226 0.0
H353 H 0.25736 0.89593 0.21531 0.0
H354 H 0.21018 0.92495 0.22177 0.0
H355 H 0.22561 0.87456 0.2629 0.0
H356 H 0.06692 0.95095 0.2554 0.0
H357 H 0.11296 0.83206 0.35355 0.0
H358 H 0.087 0.93087 0.14923 0.0
H359 H 0.13952 0.95075 0.16924 0.0
H360 H 0.09112 0.97553 0.17943 0.0
H361 H 0.14179 0.78066 0.27056 0.0
H362 H 0.16062 0.78457 0.33333 0.0
H363 H 0.19232 0.80618 0.28576 0.0
C364 C 0.61978 0.65843 0.72716 0.0
C365 C 0.66392 0.66901 0.72851 0.0
C366 C 0.60335 0.63991 0.77017 0.0
C367 C 0.63161 0.632 0.81599 0.0
C368 C 0.67588 0.64401 0.81802 0.0
C369 C 0.69155 0.66242 0.7742 0.0
C370 C 0.55589 0.62774 0.76635 0.0
C371 C 0.70685 0.6364 0.86631 0.0
C372 C 0.5747 0.61 0.92805 0.0
C373 C 0.575 0.56491 0.94009 0.0
C374 C 0.59477 0.63242 0.88914 0.0
C375 C 0.61492 0.6091 0.86109 0.0
C376 C 0.61589 0.5635 0.8737 0.0
C377 C 0.5959 0.54198 0.91303 0.0
C378 C 0.59339 0.68101 0.87723 0.0
C379 C 0.63692 0.53736 0.84474 0.0
H380 H 0.598 0.6643 0.69215 0.0
H381 H 0.72571 0.6704 0.77554 0.0
H382 H 0.55325 0.59237 0.77889 0.0
H383 H 0.53974 0.64307 0.79068 0.0
H384 H 0.5379 0.63746 0.72817 0.0
H385 H 0.73991 0.64884 0.86192 0.0
H386 H 0.69396 0.65218 0.89258 0.0
H387 H 0.70966 0.60141 0.88298 0.0
H388 H 0.55791 0.62778 0.94837 0.0
H389 H 0.59642 0.50707 0.92244 0.0
H390 H 0.57444 0.69301 0.83997 0.0
H391 H 0.62685 0.69366 0.87688 0.0
H392 H 0.57836 0.69428 0.9041 0.0
H393 H 0.61891 0.54286 0.80652 0.0
H394 H 0.63732 0.50229 0.86118 0.0
H395 H 0.67092 0.54779 0.84259 0.0
C396 C 0.89457 0.1117 0.17878 0.0
C397 C 0.85057 0.12441 0.17109 0.0
C398 C 0.91641 0.09296 0.22605 0.0
C399 C 0.89397 0.08768 0.26662 0.0
C400 C 0.84939 0.09951 0.25906 0.0
C401 C 0.82811 0.11718 0.21136 0.0
C402 C 0.96374 0.07969 0.2328 0.0
C403 C 0.82439 0.09414 0.30152 0.0
C404 C 0.93975 0.01234 0.38753 0.0
C405 C 0.96086 0.04124 0.41427 0.0
C406 C 0.91798 0.02688 0.33921 0.0
C407 C 0.91744 0.07138 0.31734 0.0
C408 C 0.93854 0.10072 0.34435 0.0
C409 C 0.96029 0.08522 0.39235 0.0
C410 C 0.89595 0.9945 0.31165 0.0
C411 C 0.93767 0.14856 0.32286 0.0
H412 H 0.91236 0.11742 0.14811 0.0
H413 H 0.79381 0.12574 0.20568 0.0
H414 H 0.98403 0.09924 0.25578 0.0
H415 H 0.96829 0.04547 0.25247 0.0
H416 H 0.97584 0.08374 0.1972 0.0
H417 H 0.78972 0.10459 0.28935 0.0
H418 H 0.82555 0.05992 0.32138 0.0
H419 H 0.83975 0.11325 0.32816 0.0
H420 H 0.9394 0.97848 0.40471 0.0
H421 H 0.97704 0.10765 0.4127 0.0
H422 H 0.917 0.98784 0.28588 0.0
H423 H 0.86415 0.00695 0.28958 0.0
H424 H 0.89037 0.96365 0.33696 0.0
H425 H 0.95161 0.15512 0.28829 0.0
H426 H 0.95621 0.16691 0.34861 0.0
H427 H 0.90347 0.16073 0.31353 0.0
C428 C 0.29725 0.37476 0.56007 0.0
C429 C 0.33138 0.3689 0.53493 0.0
C430 C 0.30463 0.39197 0.6024 0.0
C431 C 0.34698 0.40517 0.61953 0.0
C432 C 0.38148 0.40045 0.59386 0.0
C433 C 0.3734 0.38195 0.55226 0.0
C434 C 0.26695 0.39589 0.62891 0.0
C435 C 0.42691 0.41497 0.61035 0.0
C436 C 0.34919 0.48562 0.70185 0.0
C437 C 0.36047 0.45921 0.74885 0.0
C438 C 0.34671 0.46883 0.65938 0.0
C439 C 0.35462 0.42429 0.66403 0.0
C440 C 0.36673 0.39762 0.71149 0.0
C441 C 0.37002 0.41553 0.75333 0.0
C442 C 0.33472 0.4986 0.60954 0.0
C443 C 0.37452 0.34986 0.71818 0.0
H444 H 0.26439 0.36603 0.54656 0.0
H445 H 0.40022 0.37725 0.53376 0.0
H446 H 0.27508 0.37887 0.66804 0.0
H447 H 0.26081 0.43022 0.62834 0.0
H448 H 0.23645 0.38234 0.61215 0.0
H449 H 0.44981 0.41059 0.5854 0.0
H450 H 0.42615 0.44948 0.61199 0.0
H451 H 0.43974 0.39657 0.64797 0.0
H452 H 0.34228 0.51952 0.69838 0.0
H453 H 0.37858 0.39508 0.78971 0.0
H454 H 0.30229 0.49007 0.59151 0.0
H455 H 0.35859 0.49486 0.58547 0.0
H456 H 0.33357 0.53292 0.61205 0.0
H457 H 0.3439 0.33457 0.70464 0.0
H458 H 0.38572 0.33395 0.75728 0.0
H459 H 0.39923 0.34386 0.69612 0.0
C460 C 0.64664 0.6858 0.50853 0.0
C461 C 0.66645 0.66117 0.55399 0.0
C462 C 0.63242 0.66647 0.46857 0.0
C463 C 0.63904 0.62164 0.47404 0.0
C464 C 0.65949 0.59676 0.51981 0.0
C465 C 0.67256 0.61678 0.5594 0.0
C466 C 0.61 0.69391 0.42067 0.0
C467 C 0.66788 0.54904 0.52685 0.0
C468 C 0.57086 0.55978 0.38832 0.0
C469 C 0.59903 0.55704 0.35511 0.0
C470 C 0.58299 0.58176 0.42643 0.0
C471 C 0.62465 0.60063 0.43198 0.0
C472 C 0.65307 0.59822 0.39822 0.0
C473 C 0.63972 0.57678 0.35987 0.0
C474 C 0.55144 0.58439 0.46106 0.0
C475 C 0.69802 0.61726 0.40342 0.0
H476 H 0.64168 0.72011 0.50455 0.0
H477 H 0.68824 0.59786 0.59449 0.0
H478 H 0.62862 0.69245 0.39075 0.0
H479 H 0.57706 0.68128 0.41041 0.0
H480 H 0.60664 0.72814 0.42275 0.0
H481 H 0.68501 0.53452 0.56443 0.0
H482 H 0.6366 0.53224 0.52017 0.0
H483 H 0.68789 0.54317 0.49973 0.0
H484 H 0.53925 0.54477 0.38435 0.0
H485 H 0.66165 0.57429 0.33441 0.0
H486 H 0.54611 0.61847 0.46239 0.0
H487 H 0.56532 0.56713 0.49886 0.0
H488 H 0.51942 0.5702 0.45002 0.0
H489 H 0.69572 0.65207 0.40308 0.0
H490 H 0.71582 0.61331 0.37358 0.0
H491 H 0.71741 0.60151 0.43929 0.0
C492 C 0.82766 0.17792 0.94474 0.0
C493 C 0.82471 0.14511 0.98622 0.0
C494 C 0.83683 0.16849 0.90115 0.0
C495 C 0.84399 0.12519 0.89906 0.0
C496 C 0.84184 0.0919 0.94092 0.0
C497 C 0.83192 0.10221 0.98391 0.0
C498 C 0.83857 0.20492 0.85719 0.0
C499 C 0.84978 0.0454 0.94019 0.0
C500 C 0.82606 0.10257 0.77081 0.0
C501 C 0.86846 0.10577 0.75945 0.0
C502 C 0.81781 0.10747 0.8167 0.0
C503 C 0.85287 0.11506 0.85251 0.0
C504 C 0.89599 0.11614 0.84229 0.0
C505 C 0.90325 0.11179 0.79577 0.0
C506 C 0.77133 0.10633 0.82608 0.0
C507 C 0.93431 0.12362 0.87978 0.0
H508 H 0.82315 0.21122 0.94642 0.0
H509 H 0.82929 0.07658 0.01552 0.0
H510 H 0.87118 0.2056 0.84601 0.0
H511 H 0.81431 0.19981 0.82552 0.0
H512 H 0.83187 0.2368 0.86475 0.0
H513 H 0.84866 0.02351 0.97642 0.0
H514 H 0.82488 0.03519 0.91218 0.0
H515 H 0.88207 0.04164 0.92961 0.0
H516 H 0.79908 0.09698 0.74341 0.0
H517 H 0.93607 0.11473 0.78732 0.0
H518 H 0.7617 0.1384 0.83076 0.0
H519 H 0.76838 0.0828 0.86063 0.0
H520 H 0.74805 0.09764 0.79553 0.0
H521 H 0.93257 0.15693 0.88546 0.0
H522 H 0.966 0.11905 0.86813 0.0
H523 H 0.93331 0.10138 0.91576 0.0
C524 C 0.37238 0.40277 0.35327 0.0
C525 C 0.3552 0.36102 0.36283 0.0
C526 C 0.39351 0.41764 0.31255 0.0
C527 C 0.39542 0.39139 0.27837 0.0
C528 C 0.37709 0.34993 0.28648 0.0
C529 C 0.35858 0.33479 0.32917 0.0
C530 C 0.41402 0.46155 0.30623 0.0
C531 C 0.37681 0.32149 0.24995 0.0
C532 C 0.41486 0.45219 0.15202 0.0
C533 C 0.45915 0.44342 0.15364 0.0
C534 C 0.39325 0.43401 0.19141 0.0
C535 C 0.41684 0.4075 0.23433 0.0
C536 C 0.46141 0.39795 0.2359 0.0
C537 C 0.48181 0.41547 0.19525 0.0
C538 C 0.34522 0.44339 0.18719 0.0
C539 C 0.48786 0.37011 0.28101 0.0
H540 H 0.36923 0.42443 0.37723 0.0
H541 H 0.34698 0.30211 0.33588 0.0
H542 H 0.44881 0.45882 0.30259 0.0
H543 H 0.39747 0.48305 0.27202 0.0
H544 H 0.41217 0.47693 0.33763 0.0
H545 H 0.35655 0.29253 0.25842 0.0
H546 H 0.36417 0.33973 0.21215 0.0
H547 H 0.41049 0.3107 0.25007 0.0
H548 H 0.39716 0.47401 0.1203 0.0
H549 H 0.51568 0.40749 0.19623 0.0
H550 H 0.33968 0.46053 0.21598 0.0
H551 H 0.32721 0.41273 0.19324 0.0
H552 H 0.33127 0.46334 0.15067 0.0
H553 H 0.48755 0.38471 0.31328 0.0
H554 H 0.52222 0.36589 0.27648 0.0
H555 H 0.47323 0.33786 0.28942 0.0
C556 C 0.14976 0.90621 0.92309 0.0
C557 C 0.16483 0.86336 0.93347 0.0
C558 C 0.12835 0.92595 0.87598 0.0
C559 C 0.12322 0.90281 0.83792 0.0
C560 C 0.13739 0.85924 0.84851 0.0
C561 C 0.1575 0.84002 0.89616 0.0
C562 C 0.11105 0.9715 0.86699 0.0
C563 C 0.13177 0.83191 0.81049 0.0
C564 C 0.04321 0.93697 0.71917 0.0
C565 C 0.06946 0.96244 0.68901 0.0
C566 C 0.05976 0.91883 0.76851 0.0
C567 C 0.10415 0.92461 0.78695 0.0
C568 C 0.13096 0.94964 0.75591 0.0
C569 C 0.1128 0.9695 0.70761 0.0
C570 C 0.03018 0.89242 0.80039 0.0
C571 C 0.17922 0.95357 0.77282 0.0
H572 H 0.15522 0.92463 0.95156 0.0
H573 H 0.16748 0.80643 0.90403 0.0
H574 H 0.12939 0.99338 0.84152 0.0
H575 H 0.07632 0.9733 0.84924 0.0
H576 H 0.11367 0.98341 0.90154 0.0
H577 H 0.10957 0.80505 0.82127 0.0
H578 H 0.11837 0.84988 0.77305 0.0
H579 H 0.16364 0.81718 0.80966 0.0
H580 H 0.00969 0.93145 0.70415 0.0
H581 H 0.13302 0.98874 0.68355 0.0
H582 H 0.03363 0.90185 0.83645 0.0
H583 H 0.03965 0.85789 0.80755 0.0
H584 H 0.99541 0.89612 0.78272 0.0
H585 H 0.18483 0.969 0.8049 0.0
H586 H 0.19575 0.97269 0.74336 0.0
H587 H 0.19461 0.92098 0.78484 0.0
loop_
_geom_bond_atom_site_label_1
_geom_bond_atom_site_label_2
_geom_bond_distance
_geom_bond_site_symmetry_2
_ccdc_geom_bond_type
H0 C3 0.931 . S
H1 C6 0.928 . S
H2 C8 0.930 . S
C3 H0 0.931 . S
C3 C4 1.413 1_554 S
C3 C5 1.360 . S
C4 C3 1.413 1_556 S
C4 C8 1.429 . S
C5 C3 1.360 . S
C5 C6 1.372 . S
C6 H1 0.928 . S
C6 C5 1.372 . S
C6 C7 1.404 . S
C7 C6 1.404 . S
C7 C8 1.391 1_554 S
C8 H2 0.930 . S
C8 C4 1.429 . S
C8 C7 1.391 1_556 S
H9 C12 0.931 . S
H10 C15 0.928 . S
H11 C17 0.930 . S
C12 H9 0.931 . S
C12 C13 1.413 . S
C12 C14 1.360 . S
C13 C12 1.413 . S
C13 C17 1.429 . S
C14 C12 1.360 . S
C14 C15 1.372 . S
C15 H10 0.928 . S
C15 C14 1.372 . S
C15 C16 1.404 . S
C16 C15 1.404 . S
C16 C17 1.391 . S
C17 H11 0.930 . S
C17 C13 1.429 . S
C17 C16 1.391 . S
H18 C21 0.931 . S
H19 C24 0.928 . S
H20 C26 0.930 1_556 S
C21 H18 0.931 . S
C21 C22 1.413 . S
C21 C23 1.360 . S
C22 C21 1.413 . S
C22 C26 1.429 . S
C23 C21 1.360 . S
C23 C24 1.372 . S
C24 H19 0.928 . S
C24 C23 1.372 . S
C24 C25 1.404 . S
C25 C24 1.404 . S
C25 C26 1.391 . S
C26 H20 0.930 1_554 S
C26 C22 1.429 . S
C26 C25 1.391 . S
H27 C30 0.931 . S
H28 C33 0.928 . S
H29 C35 0.930 . S
C30 H27 0.931 . S
C30 C31 1.413 . S
C30 C32 1.360 . S
C31 C30 1.413 . S
C31 C35 1.429 . S
C32 C30 1.360 . S
C32 C33 1.372 . S
C33 H28 0.928 . S
C33 C32 1.372 . S
C33 C34 1.404 . S
C34 C33 1.404 . S
C34 C35 1.391 . S
C35 H29 0.930 . S
C35 C31 1.429 . S
C35 C34 1.391 . S
Tb36 N65 2.617 . S
Tb36 N71 2.572 . S
Tb36 O80 2.465 . S
Tb36 O81 2.387 . S
Tb36 O83 2.428 . S
Tb36 O84 2.308 1_565 S
Tb36 O88 2.347 1_465 S
Tb36 O91 2.393 1_455 S
Tb36 C100 2.802 . S
C37 N38 1.379 . S
C37 C40 1.416 . S
C37 C44 1.424 . S
N38 C37 1.379 . S
N38 C41 1.334 . S
N38 Tb47 2.617 . S
C39 C41 1.390 . S
C39 C42 1.339 . S
C39 H59 0.930 1_655 S
C40 C37 1.416 . S
C40 C42 1.416 . S
C40 C46 1.448 . S
C41 N38 1.334 . S
C41 C39 1.390 . S
C41 H52 0.930 1_655 S
C42 C39 1.339 . S
C42 C40 1.416 . S
C42 H63 0.930 . S
C43 C44 1.413 . S
C43 C45 1.427 . S
C43 C49 1.416 . S
C44 C37 1.424 . S
C44 C43 1.413 . S
C44 N48 1.361 . S
C45 C43 1.427 . S
C45 C46 1.328 . S
C45 H60 0.929 . S
C46 C40 1.448 . S
C46 C45 1.328 . S
C46 H61 0.930 . S
Tb47 N38 2.617 . S
Tb47 N48 2.572 . S
Tb47 O82 2.349 1_655 S
Tb47 O85 2.393 1_655 S
Tb47 O86 2.465 . S
Tb47 O87 2.387 . S
Tb47 O89 2.428 . S
Tb47 O90 2.308 1_545 S
Tb47 C111 2.802 . S
N48 C44 1.361 . S
N48 Tb47 2.572 . S
N48 C50 1.340 . S
C49 C43 1.416 . S
C49 C51 1.332 . S
C49 H57 0.931 . S
C50 N48 1.340 . S
C50 C51 1.407 . S
C50 H56 0.930 . S
C51 C49 1.332 . S
C51 C50 1.407 . S
C51 H53 0.929 . S
H52 C41 0.930 1_455 S
H53 C51 0.929 . S
H54 C69 0.930 1_655 S
H55 C76 0.929 . S
H56 C50 0.930 . S
H57 C49 0.931 . S
H58 C72 0.930 . S
H59 C39 0.930 1_455 S
H60 C45 0.929 . S
H61 C46 0.930 . S
H62 C67 0.930 1_655 S
H63 C42 0.930 . S
H64 C75 0.931 . S
N65 Tb36 2.617 . S
N65 C66 1.379 . S
N65 C69 1.334 . S
C66 N65 1.379 . S
C66 C68 1.416 . S
C66 C74 1.424 . S
C67 H62 0.930 1_455 S
C67 C69 1.390 . S
C67 C70 1.339 . S
C68 C66 1.416 . S
C68 C70 1.416 . S
C68 C101 1.448 . S
C69 H54 0.930 1_455 S
C69 N65 1.334 . S
C69 C67 1.390 . S
C70 C67 1.339 . S
C70 C68 1.416 . S
C70 H77 0.930 . S
N71 Tb36 2.572 . S
N71 C72 1.340 . S
N71 C74 1.361 . S
C72 H58 0.930 . S
C72 N71 1.340 . S
C72 C76 1.407 . S
C73 C74 1.413 . S
C73 C75 1.416 . S
C73 C102 1.427 . S
C74 C66 1.424 . S
C74 N71 1.361 . S
C74 C73 1.413 . S
C75 H64 0.931 . S
C75 C73 1.416 . S
C75 C76 1.332 . S
C76 H55 0.929 . S
C76 C72 1.407 . S
C76 C75 1.332 . S
H77 C70 0.930 . S
H78 C101 0.930 . S
H79 C102 0.929 . S
O80 Tb36 2.465 . S
O80 C100 1.264 . S
O81 Tb36 2.387 . S
O81 C92 1.264 . S
O82 Tb47 2.349 1_455 S
O82 C92 1.243 1_545 S
O83 Tb36 2.428 . S
O83 C100 1.256 . S
O84 Tb36 2.308 1_545 S
O84 C99 1.266 . S
O85 Tb47 2.393 1_455 S
O85 C99 1.248 . S
O86 Tb47 2.465 . S
O86 C111 1.264 . S
O87 Tb47 2.387 . S
O87 C103 1.264 . S
O88 Tb36 2.347 1_645 S
O88 C103 1.247 . S
O89 Tb47 2.428 . S
O89 C111 1.256 . S
O90 Tb47 2.308 1_565 S
O90 C110 1.266 . S
O91 Tb36 2.393 1_655 S
O91 C110 1.248 . S
C92 O81 1.264 . S
C92 O82 1.243 1_565 S
C93 C96 1.399 . S
C93 C98 1.383 . S
C93 C100 1.496 . S
C94 C95 1.399 . S
C94 C98 1.389 . S
C95 C94 1.399 . S
C95 C97 1.380 . S
C95 H112 0.929 . S
C96 C93 1.399 . S
C96 C97 1.392 . S
C96 H113 0.929 . S
C97 C95 1.380 . S
C97 C96 1.392 . S
C97 H114 0.929 . S
C98 C93 1.383 . S
C98 C94 1.389 . S
C98 H115 0.931 . S
C99 O84 1.266 . S
C99 O85 1.248 . S
C100 Tb36 2.802 . S
C100 O80 1.264 . S
C100 O83 1.256 . S
C100 C93 1.496 . S
C101 C68 1.448 . S
C101 H78 0.930 . S
C101 C102 1.328 . S
C102 C73 1.427 . S
C102 H79 0.929 . S
C102 C101 1.328 . S
C103 O87 1.264 . S
C103 O88 1.247 . S
C104 C107 1.399 . S
C104 C108 1.383 . S
C104 C111 1.496 . S
C105 C106 1.399 . S
C105 C108 1.389 . S
C106 C105 1.399 . S
C106 C109 1.380 . S
C106 H116 0.929 . S
C107 C104 1.399 . S
C107 C109 1.392 . S
C107 H117 0.929 . S
C108 C104 1.383 . S
C108 C105 1.389 . S
C108 H118 0.931 . S
C109 C106 1.380 . S
C109 C107 1.392 . S
C109 H119 0.929 . S
C110 O90 1.266 . S
C110 O91 1.248 . S
C111 Tb47 2.802 . S
C111 O86 1.264 . S
C111 O89 1.256 . S
C111 C104 1.496 . S
H112 C95 0.929 . S
H113 C96 0.929 . S
H114 C97 0.929 . S
H115 C98 0.931 . S
H116 C106 0.929 . S
H117 C107 0.929 . S
H118 C108 0.931 . S
H119 C109 0.929 . S
Tb120 N149 2.617 . S
Tb120 N155 2.572 1_556 S
Tb120 O164 2.465 . S
Tb120 O165 2.387 1_556 S
Tb120 O167 2.428 . S
Tb120 O168 2.308 1_556 S
Tb120 O172 2.349 . S
Tb120 O175 2.393 1_556 S
Tb120 C184 2.802 . S
C121 N122 1.379 . S
C121 C124 1.416 . S
C121 C128 1.424 . S
N122 C121 1.379 . S
N122 C125 1.334 . S
N122 Tb131 2.617 . S
C123 C125 1.390 . S
C123 C126 1.339 . S
C123 H143 0.930 . S
C124 C121 1.416 . S
C124 C126 1.416 . S
C124 C130 1.448 . S
C125 N122 1.334 . S
C125 C123 1.390 . S
C125 H136 0.930 . S
C126 C123 1.339 . S
C126 C124 1.416 . S
C126 H147 0.930 . S
C127 C128 1.413 . S
C127 C129 1.427 . S
C127 C133 1.416 . S
C128 C121 1.424 . S
C128 C127 1.413 . S
C128 N132 1.361 . S
C129 C127 1.427 . S
C129 C130 1.328 . S
C129 H144 0.929 . S
C130 C124 1.448 . S
C130 C129 1.328 . S
C130 H145 0.930 . S
Tb131 N122 2.617 . S
Tb131 N132 2.572 . S
Tb131 O166 2.349 . S
Tb131 O169 2.393 . S
Tb131 O170 2.465 . S
Tb131 O171 2.387 . S
Tb131 O173 2.428 . S
Tb131 O174 2.308 . S
Tb131 C195 2.802 . S
N132 C128 1.361 . S
N132 Tb131 2.572 . S
N132 C134 1.340 . S
C133 C127 1.416 . S
C133 C135 1.332 . S
C133 H141 0.931 . S
C134 N132 1.340 . S
C134 C135 1.407 . S
C134 H140 0.930 . S
C135 C133 1.332 . S
C135 C134 1.407 . S
C135 H137 0.929 . S
H136 C125 0.930 . S
H137 C135 0.929 . S
H138 C153 0.930 . S
H139 C160 0.929 . S
H140 C134 0.930 . S
H141 C133 0.931 . S
H142 C156 0.930 . S
H143 C123 0.930 . S
H144 C129 0.929 . S
H145 C130 0.930 . S
H146 C151 0.930 . S
H147 C126 0.930 . S
H148 C159 0.931 . S
N149 Tb120 2.617 . S
N149 C150 1.379 1_556 S
N149 C153 1.334 . S
C150 N149 1.379 1_554 S
C150 C152 1.416 . S
C150 C158 1.424 . S
C151 H146 0.930 . S
C151 C153 1.390 . S
C151 C154 1.339 1_556 S
C152 C150 1.416 . S
C152 C154 1.416 . S
C152 C185 1.448 . S
C153 H138 0.930 . S
C153 N149 1.334 . S
C153 C151 1.390 . S
C154 C151 1.339 1_554 S
C154 C152 1.416 . S
C154 H161 0.930 . S
N155 Tb120 2.572 1_554 S
N155 C156 1.340 . S
N155 C158 1.361 . S
C156 H142 0.930 . S
C156 N155 1.340 . S
C156 C160 1.407 . S
C157 C158 1.413 . S
C157 C159 1.416 . S
C157 C186 1.427 . S
C158 C150 1.424 . S
C158 N155 1.361 . S
C158 C157 1.413 . S
C159 H148 0.931 . S
C159 C157 1.416 . S
C159 C160 1.332 . S
C160 H139 0.929 . S
C160 C156 1.407 . S
C160 C159 1.332 . S
H161 C154 0.930 . S
H162 C185 0.930 . S
H163 C186 0.929 . S
O164 Tb120 2.465 . S
O164 C184 1.264 . S
O165 Tb120 2.387 1_554 S
O165 C176 1.264 . S
O166 Tb131 2.349 . S
O166 C176 1.243 . S
O167 Tb120 2.428 . S
O167 C184 1.256 . S
O168 Tb120 2.308 1_554 S
O168 C183 1.266 . S
O169 Tb131 2.393 . S
O169 C183 1.248 . S
O170 Tb131 2.465 . S
O170 C195 1.264 . S
O171 Tb131 2.387 . S
O171 C187 1.264 1_554 S
O172 Tb120 2.349 . S
O172 C187 1.243 . S
O173 Tb131 2.428 . S
O173 C195 1.256 . S
O174 Tb131 2.308 . S
O174 C194 1.266 . S
O175 Tb120 2.393 1_554 S
O175 C194 1.248 . S
C176 O165 1.264 . S
C176 O166 1.243 . S
C177 C180 1.399 . S
C177 C182 1.383 . S
C177 C184 1.496 . S
C178 C179 1.399 . S
C178 C182 1.389 . S
C179 C178 1.399 . S
C179 C181 1.380 . S
C179 H196 0.929 . S
C180 C177 1.399 . S
C180 C181 1.392 . S
C180 H197 0.929 . S
C181 C179 1.380 . S
C181 C180 1.392 . S
C181 H198 0.929 . S
C182 C177 1.383 . S
C182 C178 1.389 . S
C182 H199 0.931 . S
C183 O168 1.266 . S
C183 O169 1.248 . S
C184 Tb120 2.802 . S
C184 O164 1.264 . S
C184 O167 1.256 . S
C184 C177 1.496 . S
C185 C152 1.448 . S
C185 H162 0.930 . S
C185 C186 1.328 . S
C186 C157 1.427 . S
C186 H163 0.929 . S
C186 C185 1.328 . S
C187 O171 1.264 1_556 S
C187 O172 1.243 . S
C188 C191 1.399 . S
C188 C192 1.383 . S
C188 C195 1.496 . S
C189 C190 1.399 . S
C189 C192 1.389 . S
C190 C189 1.399 . S
C190 C193 1.380 . S
C190 H200 0.929 . S
C191 C188 1.399 . S
C191 C193 1.392 . S
C191 H201 0.929 . S
C192 C188 1.383 . S
C192 C189 1.389 . S
C192 H202 0.931 . S
C193 C190 1.380 . S
C193 C191 1.392 . S
C193 H203 0.929 . S
C194 O174 1.266 . S
C194 O175 1.248 . S
C195 Tb131 2.802 . S
C195 O170 1.264 . S
C195 O173 1.256 . S
C195 C188 1.496 . S
H196 C179 0.929 . S
H197 C180 0.929 . S
H198 C181 0.929 . S
H199 C182 0.931 . S
H200 C190 0.929 . S
H201 C191 0.929 . S
H202 C192 0.931 . S
H203 C193 0.929 . S
C204 C205 1.391 . S
C204 C206 1.394 . S
C204 H220 0.931 . S
C205 C204 1.391 . S
C205 C209 1.376 . S
C206 C204 1.394 . S
C206 C207 1.369 . S
C206 C210 1.531 . S
C207 C206 1.369 . S
C207 C208 1.410 . S
C207 C215 1.503 . S
C208 C207 1.410 . S
C208 C209 1.392 . S
C208 C211 1.511 . S
C209 C205 1.376 . S
C209 C208 1.392 . S
C209 H221 0.929 . S
C210 C206 1.531 . S
C210 H222 0.960 . S
C210 H223 0.962 . S
C210 H224 0.960 . S
C211 C208 1.511 . S
C211 H225 0.961 . S
C211 H226 0.961 . S
C211 H227 0.961 . S
C212 C213 1.370 . S
C212 C214 1.363 . S
C212 H228 0.931 . S
C213 C212 1.370 . S
C213 C217 1.408 . S
C214 C212 1.363 . S
C214 C215 1.370 . S
C214 C218 1.524 . S
C215 C207 1.503 . S
C215 C214 1.370 . S
C215 C216 1.403 . S
C216 C215 1.403 . S
C216 C217 1.404 . S
C216 C219 1.539 . S
C217 C213 1.408 . S
C217 C216 1.404 . S
C217 H229 0.930 . S
C218 C214 1.524 . S
C218 H230 0.956 . S
C218 H231 0.961 . S
C218 H232 0.961 . S
C219 C216 1.539 . S
C219 H233 0.958 . S
C219 H234 0.961 . S
C219 H235 0.960 . S
H220 C204 0.931 . S
H221 C209 0.929 . S
H222 C210 0.960 . S
H223 C210 0.962 . S
H224 C210 0.960 . S
H225 C211 0.961 . S
H226 C211 0.961 . S
H227 C211 0.961 . S
H228 C212 0.931 . S
H229 C217 0.930 . S
H230 C218 0.956 . S
H231 C218 0.961 . S
H232 C218 0.961 . S
H233 C219 0.958 . S
H234 C219 0.961 . S
H235 C219 0.960 . S
C236 C237 1.391 1_556 S
C236 C238 1.394 . S
C236 H252 0.931 . S
C237 C236 1.391 1_554 S
C237 C241 1.376 . S
C238 C236 1.394 . S
C238 C239 1.369 1_556 S
C238 C242 1.531 . S
C239 C238 1.369 1_554 S
C239 C240 1.410 . S
C239 C247 1.503 . S
C240 C239 1.410 . S
C240 C241 1.392 . S
C240 C243 1.511 . S
C241 C237 1.376 . S
C241 C240 1.392 . S
C241 H253 0.929 . S
C242 C238 1.531 . S
C242 H254 0.960 . S
C242 H255 0.962 . S
C242 H256 0.960 . S
C243 C240 1.511 . S
C243 H257 0.961 . S
C243 H258 0.961 . S
C243 H259 0.961 . S
C244 C245 1.370 . S
C244 C246 1.363 . S
C244 H260 0.931 . S
C245 C244 1.370 . S
C245 C249 1.408 . S
C246 C244 1.363 . S
C246 C247 1.370 . S
C246 C250 1.524 . S
C247 C239 1.503 . S
C247 C246 1.370 . S
C247 C248 1.403 . S
C248 C247 1.403 . S
C248 C249 1.404 . S
C248 C251 1.539 . S
C249 C245 1.408 . S
C249 C248 1.404 . S
C249 H261 0.930 . S
C250 C246 1.524 . S
C250 H262 0.956 . S
C250 H263 0.961 . S
C250 H264 0.961 . S
C251 C248 1.539 . S
C251 H265 0.958 1_554 S
C251 H266 0.961 . S
C251 H267 0.960 . S
H252 C236 0.931 . S
H253 C241 0.929 . S
H254 C242 0.960 . S
H255 C242 0.962 . S
H256 C242 0.960 . S
H257 C243 0.961 . S
H258 C243 0.961 . S
H259 C243 0.961 . S
H260 C244 0.931 . S
H261 C249 0.930 . S
H262 C250 0.956 . S
H263 C250 0.961 . S
H264 C250 0.961 . S
H265 C251 0.958 1_556 S
H266 C251 0.961 . S
H267 C251 0.960 . S
C268 C269 1.391 . S
C268 C270 1.394 . S
C268 H284 0.931 . S
C269 C268 1.391 . S
C269 C273 1.376 . S
C270 C268 1.394 . S
C270 C271 1.369 . S
C270 C274 1.531 . S
C271 C270 1.369 . S
C271 C272 1.410 . S
C271 C279 1.503 . S
C272 C271 1.410 . S
C272 C273 1.392 . S
C272 C275 1.511 . S
C273 C269 1.376 . S
C273 C272 1.392 . S
C273 H285 0.929 . S
C274 C270 1.531 . S
C274 H286 0.960 . S
C274 H287 0.962 . S
C274 H288 0.960 . S
C275 C272 1.511 . S
C275 H289 0.961 . S
C275 H290 0.961 . S
C275 H291 0.961 . S
C276 C277 1.370 . S
C276 C278 1.363 . S
C276 H292 0.931 . S
C277 C276 1.370 . S
C277 C281 1.408 . S
C278 C276 1.363 . S
C278 C279 1.370 . S
C278 C282 1.524 . S
C279 C271 1.503 . S
C279 C278 1.370 . S
C279 C280 1.403 . S
C280 C279 1.403 . S
C280 C281 1.404 . S
C280 C283 1.539 . S
C281 C277 1.408 . S
C281 C280 1.404 . S
C281 H293 0.930 . S
C282 C278 1.524 . S
C282 H294 0.956 . S
C282 H295 0.961 . S
C282 H296 0.961 . S
C283 C280 1.539 . S
C283 H297 0.958 . S
C283 H298 0.961 . S
C283 H299 0.960 . S
H284 C268 0.931 . S
H285 C273 0.929 . S
H286 C274 0.960 . S
H287 C274 0.962 . S
H288 C274 0.960 . S
H289 C275 0.961 . S
H290 C275 0.961 . S
H291 C275 0.961 . S
H292 C276 0.931 . S
H293 C281 0.930 . S
H294 C282 0.956 . S
H295 C282 0.961 . S
H296 C282 0.961 . S
H297 C283 0.958 . S
H298 C283 0.961 . S
H299 C283 0.960 . S
C300 C301 1.391 . S
C300 C302 1.394 . S
C300 H316 0.931 . S
C301 C300 1.391 . S
C301 C305 1.376 . S
C302 C300 1.394 . S
C302 C303 1.369 . S
C302 C306 1.531 . S
C303 C302 1.369 . S
C303 C304 1.410 . S
C303 C311 1.503 . S
C304 C303 1.410 . S
C304 C305 1.392 . S
C304 C307 1.511 . S
C305 C301 1.376 . S
C305 C304 1.392 . S
C305 H317 0.929 . S
C306 C302 1.531 . S
C306 H318 0.960 . S
C306 H319 0.962 . S
C306 H320 0.960 . S
C307 C304 1.511 . S
C307 H321 0.961 . S
C307 H322 0.961 . S
C307 H323 0.961 . S
C308 C309 1.370 . S
C308 C310 1.363 . S
C308 H324 0.931 1_554 S
C309 C308 1.370 . S
C309 C313 1.408 . S
C310 C308 1.363 . S
C310 C311 1.370 . S
C310 C314 1.524 1_554 S
C311 C303 1.503 . S
C311 C310 1.370 . S
C311 C312 1.403 . S
C312 C311 1.403 . S
C312 C313 1.404 . S
C312 C315 1.539 . S
C313 C309 1.408 . S
C313 C312 1.404 . S
C313 H325 0.930 . S
C314 C310 1.524 1_556 S
C314 H326 0.956 . S
C314 H327 0.961 . S
C314 H328 0.961 . S
C315 C312 1.539 . S
C315 H329 0.958 . S
C315 H330 0.961 . S
C315 H331 0.960 . S
H316 C300 0.931 . S
H317 C305 0.929 . S
H318 C306 0.960 . S
H319 C306 0.962 . S
H320 C306 0.960 . S
H321 C307 0.961 . S
H322 C307 0.961 . S
H323 C307 0.961 . S
H324 C308 0.931 1_556 S
H325 C313 0.930 . S
H326 C314 0.956 . S
H327 C314 0.961 . S
H328 C314 0.961 . S
H329 C315 0.958 . S
H330 C315 0.961 . S
H331 C315 0.960 . S
C332 C333 1.391 . S
C332 C334 1.394 . S
C332 H348 0.931 . S
C333 C332 1.391 . S
C333 C337 1.376 . S
C334 C332 1.394 . S
C334 C335 1.369 . S
C334 C338 1.531 . S
C335 C334 1.369 . S
C335 C336 1.410 . S
C335 C343 1.503 . S
C336 C335 1.410 . S
C336 C337 1.392 . S
C336 C339 1.511 . S
C337 C333 1.376 . S
C337 C336 1.392 . S
C337 H349 0.929 . S
C338 C334 1.531 . S
C338 H350 0.960 . S
C338 H351 0.962 . S
C338 H352 0.960 . S
C339 C336 1.511 . S
C339 H353 0.961 . S
C339 H354 0.961 . S
C339 H355 0.961 . S
C340 C341 1.370 . S
C340 C342 1.363 . S
C340 H356 0.931 . S
C341 C340 1.370 . S
C341 C345 1.408 . S
C342 C340 1.363 . S
C342 C343 1.370 . S
C342 C346 1.524 . S
C343 C335 1.503 . S
C343 C342 1.370 . S
C343 C344 1.403 . S
C344 C343 1.403 . S
C344 C345 1.404 . S
C344 C347 1.539 . S
C345 C341 1.408 . S
C345 C344 1.404 . S
C345 H357 0.930 . S
C346 C342 1.524 . S
C346 H358 0.956 . S
C346 H359 0.961 . S
C346 H360 0.961 1_565 S
C347 C344 1.539 . S
C347 H361 0.958 . S
C347 H362 0.961 . S
C347 H363 0.960 . S
H348 C332 0.931 . S
H349 C337 0.929 . S
H350 C338 0.960 . S
H351 C338 0.962 . S
H352 C338 0.960 . S
H353 C339 0.961 . S
H354 C339 0.961 . S
H355 C339 0.961 . S
H356 C340 0.931 . S
H357 C345 0.930 . S
H358 C346 0.956 . S
H359 C346 0.961 . S
H360 C346 0.961 1_545 S
H361 C347 0.958 . S
H362 C347 0.961 . S
H363 C347 0.960 . S
C364 C365 1.391 . S
C364 C366 1.394 . S
C364 H380 0.931 . S
C365 C364 1.391 . S
C365 C369 1.376 . S
C366 C364 1.394 . S
C366 C367 1.369 . S
C366 C370 1.531 . S
C367 C366 1.369 . S
C367 C368 1.410 . S
C367 C375 1.503 . S
C368 C367 1.410 . S
C368 C369 1.392 . S
C368 C371 1.511 . S
C369 C365 1.376 . S
C369 C368 1.392 . S
C369 H381 0.929 . S
C370 C366 1.531 . S
C370 H382 0.960 . S
C370 H383 0.962 . S
C370 H384 0.960 . S
C371 C368 1.511 . S
C371 H385 0.961 . S
C371 H386 0.961 . S
C371 H387 0.961 . S
C372 C373 1.370 . S
C372 C374 1.363 . S
C372 H388 0.931 . S
C373 C372 1.370 . S
C373 C377 1.408 . S
C374 C372 1.363 . S
C374 C375 1.370 . S
C374 C378 1.524 . S
C375 C367 1.503 . S
C375 C374 1.370 . S
C375 C376 1.403 . S
C376 C375 1.403 . S
C376 C377 1.404 . S
C376 C379 1.539 . S
C377 C373 1.408 . S
C377 C376 1.404 . S
C377 H389 0.930 . S
C378 C374 1.524 . S
C378 H390 0.956 . S
C378 H391 0.961 . S
C378 H392 0.961 . S
C379 C376 1.539 . S
C379 H393 0.958 . S
C379 H394 0.961 . S
C379 H395 0.960 . S
H380 C364 0.931 . S
H381 C369 0.929 . S
H382 C370 0.960 . S
H383 C370 0.962 . S
H384 C370 0.960 . S
H385 C371 0.961 . S
H386 C371 0.961 . S
H387 C371 0.961 . S
H388 C372 0.931 . S
H389 C377 0.930 . S
H390 C378 0.956 . S
H391 C378 0.961 . S
H392 C378 0.961 . S
H393 C379 0.958 . S
H394 C379 0.961 . S
H395 C379 0.960 . S
C396 C397 1.391 . S
C396 C398 1.394 . S
C396 H412 0.931 . S
C397 C396 1.391 . S
C397 C401 1.376 . S
C398 C396 1.394 . S
C398 C399 1.369 . S
C398 C402 1.531 . S
C399 C398 1.369 . S
C399 C400 1.410 . S
C399 C407 1.503 . S
C400 C399 1.410 . S
C400 C401 1.392 . S
C400 C403 1.511 . S
C401 C397 1.376 . S
C401 C400 1.392 . S
C401 H413 0.929 . S
C402 C398 1.531 . S
C402 H414 0.960 . S
C402 H415 0.962 . S
C402 H416 0.960 . S
C403 C400 1.511 . S
C403 H417 0.961 . S
C403 H418 0.961 . S
C403 H419 0.961 . S
C404 C405 1.370 . S
C404 C406 1.363 . S
C404 H420 0.931 . S
C405 C404 1.370 . S
C405 C409 1.408 . S
C406 C404 1.363 . S
C406 C407 1.370 . S
C406 C410 1.524 . S
C407 C399 1.503 . S
C407 C406 1.370 . S
C407 C408 1.403 . S
C408 C407 1.403 . S
C408 C409 1.404 . S
C408 C411 1.539 . S
C409 C405 1.408 . S
C409 C408 1.404 . S
C409 H421 0.930 . S
C410 C406 1.524 . S
C410 H422 0.956 . S
C410 H423 0.961 . S
C410 H424 0.961 1_545 S
C411 C408 1.539 . S
C411 H425 0.958 . S
C411 H426 0.961 . S
C411 H427 0.960 . S
H412 C396 0.931 . S
H413 C401 0.929 . S
H414 C402 0.960 . S
H415 C402 0.962 . S
H416 C402 0.960 . S
H417 C403 0.961 . S
H418 C403 0.961 . S
H419 C403 0.961 . S
H420 C404 0.931 . S
H421 C409 0.930 . S
H422 C410 0.956 . S
H423 C410 0.961 . S
H424 C410 0.961 1_565 S
H425 C411 0.958 . S
H426 C411 0.961 . S
H427 C411 0.960 . S
C428 C429 1.391 . S
C428 C430 1.394 . S
C428 H444 0.931 . S
C429 C428 1.391 . S
C429 C433 1.376 . S
C430 C428 1.394 . S
C430 C431 1.369 . S
C430 C434 1.531 . S
C431 C430 1.369 . S
C431 C432 1.410 . S
C431 C439 1.503 . S
C432 C431 1.410 . S
C432 C433 1.392 . S
C432 C435 1.511 . S
C433 C429 1.376 . S
C433 C432 1.392 . S
C433 H445 0.929 . S
C434 C430 1.531 . S
C434 H446 0.960 . S
C434 H447 0.962 . S
C434 H448 0.960 . S
C435 C432 1.511 . S
C435 H449 0.961 . S
C435 H450 0.961 . S
C435 H451 0.961 . S
C436 C437 1.370 . S
C436 C438 1.363 . S
C436 H452 0.931 . S
C437 C436 1.370 . S
C437 C441 1.408 . S
C438 C436 1.363 . S
C438 C439 1.370 . S
C438 C442 1.524 . S
C439 C431 1.503 . S
C439 C438 1.370 . S
C439 C440 1.403 . S
C440 C439 1.403 . S
C440 C441 1.404 . S
C440 C443 1.539 . S
C441 C437 1.408 . S
C441 C440 1.404 . S
C441 H453 0.930 . S
C442 C438 1.524 . S
C442 H454 0.956 . S
C442 H455 0.961 . S
C442 H456 0.961 . S
C443 C440 1.539 . S
C443 H457 0.958 . S
C443 H458 0.961 . S
C443 H459 0.960 . S
H444 C428 0.931 . S
H445 C433 0.929 . S
H446 C434 0.960 . S
H447 C434 0.962 . S
H448 C434 0.960 . S
H449 C435 0.961 . S
H450 C435 0.961 . S
H451 C435 0.961 . S
H452 C436 0.931 . S
H453 C441 0.930 . S
H454 C442 0.956 . S
H455 C442 0.961 . S
H456 C442 0.961 . S
H457 C443 0.958 . S
H458 C443 0.961 . S
H459 C443 0.960 . S
C460 C461 1.391 . S
C460 C462 1.394 . S
C460 H476 0.931 . S
C461 C460 1.391 . S
C461 C465 1.376 . S
C462 C460 1.394 . S
C462 C463 1.369 . S
C462 C466 1.531 . S
C463 C462 1.369 . S
C463 C464 1.410 . S
C463 C471 1.503 . S
C464 C463 1.410 . S
C464 C465 1.392 . S
C464 C467 1.511 . S
C465 C461 1.376 . S
C465 C464 1.392 . S
C465 H477 0.929 . S
C466 C462 1.531 . S
C466 H478 0.960 . S
C466 H479 0.962 . S
C466 H480 0.960 . S
C467 C464 1.511 . S
C467 H481 0.961 . S
C467 H482 0.961 . S
C467 H483 0.961 . S
C468 C469 1.370 . S
C468 C470 1.363 . S
C468 H484 0.931 . S
C469 C468 1.370 . S
C469 C473 1.408 . S
C470 C468 1.363 . S
C470 C471 1.370 . S
C470 C474 1.524 . S
C471 C463 1.503 . S
C471 C470 1.370 . S
C471 C472 1.403 . S
C472 C471 1.403 . S
C472 C473 1.404 . S
C472 C475 1.539 . S
C473 C469 1.408 . S
C473 C472 1.404 . S
C473 H485 0.930 . S
C474 C470 1.524 . S
C474 H486 0.956 . S
C474 H487 0.961 . S
C474 H488 0.961 . S
C475 C472 1.539 . S
C475 H489 0.958 . S
C475 H490 0.961 . S
C475 H491 0.960 . S
H476 C460 0.931 . S
H477 C465 0.929 . S
H478 C466 0.960 . S
H479 C466 0.962 . S
H480 C466 0.960 . S
H481 C467 0.961 . S
H482 C467 0.961 . S
H483 C467 0.961 . S
H484 C468 0.931 . S
H485 C473 0.930 . S
H486 C474 0.956 . S
H487 C474 0.961 . S
H488 C474 0.961 . S
H489 C475 0.958 . S
H490 C475 0.961 . S
H491 C475 0.960 . S
C492 C493 1.391 . S
C492 C494 1.394 . S
C492 H508 0.931 . S
C493 C492 1.391 . S
C493 C497 1.376 . S
C494 C492 1.394 . S
C494 C495 1.369 . S
C494 C498 1.531 . S
C495 C494 1.369 . S
C495 C496 1.410 . S
C495 C503 1.503 . S
C496 C495 1.410 . S
C496 C497 1.392 . S
C496 C499 1.511 . S
C497 C493 1.376 . S
C497 C496 1.392 . S
C497 H509 0.929 1_556 S
C498 C494 1.531 . S
C498 H510 0.960 . S
C498 H511 0.962 . S
C498 H512 0.960 . S
C499 C496 1.511 . S
C499 H513 0.961 1_545 S
C499 H514 0.961 . S
C499 H515 0.961 . S
C500 C501 1.370 . S
C500 C502 1.363 . S
C500 H516 0.931 . S
C501 C500 1.370 . S
C501 C505 1.408 . S
C502 C500 1.363 . S
C502 C503 1.370 . S
C502 C506 1.524 . S
C503 C495 1.503 . S
C503 C502 1.370 . S
C503 C504 1.403 . S
C504 C503 1.403 . S
C504 C505 1.404 . S
C504 C507 1.539 . S
C505 C501 1.408 . S
C505 C504 1.404 . S
C505 H517 0.930 . S
C506 C502 1.524 . S
C506 H518 0.956 . S
C506 H519 0.961 . S
C506 H520 0.961 . S
C507 C504 1.539 . S
C507 H521 0.958 . S
C507 H522 0.961 . S
C507 H523 0.960 . S
H508 C492 0.931 . S
H509 C497 0.929 1_554 S
H510 C498 0.960 . S
H511 C498 0.962 . S
H512 C498 0.960 . S
H513 C499 0.961 1_565 S
H514 C499 0.961 . S
H515 C499 0.961 . S
H516 C500 0.931 . S
H517 C505 0.930 . S
H518 C506 0.956 . S
H519 C506 0.961 . S
H520 C506 0.961 . S
H521 C507 0.958 . S
H522 C507 0.961 . S
H523 C507 0.960 . S
C524 C525 1.391 . S
C524 C526 1.394 . S
C524 H540 0.931 . S
C525 C524 1.391 . S
C525 C529 1.376 . S
C526 C524 1.394 . S
C526 C527 1.369 . S
C526 C530 1.531 . S
C527 C526 1.369 . S
C527 C528 1.410 . S
C527 C535 1.503 . S
C528 C527 1.410 . S
C528 C529 1.392 . S
C528 C531 1.511 . S
C529 C525 1.376 . S
C529 C528 1.392 . S
C529 H541 0.929 . S
C530 C526 1.531 . S
C530 H542 0.960 . S
C530 H543 0.962 . S
C530 H544 0.960 . S
C531 C528 1.511 . S
C531 H545 0.961 . S
C531 H546 0.961 . S
C531 H547 0.961 . S
C532 C533 1.370 . S
C532 C534 1.363 . S
C532 H548 0.931 . S
C533 C532 1.370 . S
C533 C537 1.408 . S
C534 C532 1.363 . S
C534 C535 1.370 . S
C534 C538 1.524 . S
C535 C527 1.503 . S
C535 C534 1.370 . S
C535 C536 1.403 . S
C536 C535 1.403 . S
C536 C537 1.404 . S
C536 C539 1.539 . S
C537 C533 1.408 . S
C537 C536 1.404 . S
C537 H549 0.930 . S
C538 C534 1.524 . S
C538 H550 0.956 . S
C538 H551 0.961 . S
C538 H552 0.961 . S
C539 C536 1.539 . S
C539 H553 0.958 . S
C539 H554 0.961 . S
C539 H555 0.960 . S
H540 C524 0.931 . S
H541 C529 0.929 . S
H542 C530 0.960 . S
H543 C530 0.962 . S
H544 C530 0.960 . S
H545 C531 0.961 . S
H546 C531 0.961 . S
H547 C531 0.961 . S
H548 C532 0.931 . S
H549 C537 0.930 . S
H550 C538 0.956 . S
H551 C538 0.961 . S
H552 C538 0.961 . S
H553 C539 0.958 . S
H554 C539 0.961 . S
H555 C539 0.960 . S
C556 C557 1.391 . S
C556 C558 1.394 . S
C556 H572 0.931 . S
C557 C556 1.391 . S
C557 C561 1.376 . S
C558 C556 1.394 . S
C558 C559 1.369 . S
C558 C562 1.531 . S
C559 C558 1.369 . S
C559 C560 1.410 . S
C559 C567 1.503 . S
C560 C559 1.410 . S
C560 C561 1.392 . S
C560 C563 1.511 . S
C561 C557 1.376 . S
C561 C560 1.392 . S
C561 H573 0.929 . S
C562 C558 1.531 . S
C562 H574 0.960 1_565 S
C562 H575 0.962 . S
C562 H576 0.960 1_565 S
C563 C560 1.511 . S
C563 H577 0.961 . S
C563 H578 0.961 . S
C563 H579 0.961 . S
C564 C565 1.370 . S
C564 C566 1.363 . S
C564 H580 0.931 . S
C565 C564 1.370 . S
C565 C569 1.408 . S
C566 C564 1.363 . S
C566 C567 1.370 . S
C566 C570 1.524 . S
C567 C559 1.503 . S
C567 C566 1.370 . S
C567 C568 1.403 . S
C568 C567 1.403 . S
C568 C569 1.404 . S
C568 C571 1.539 1_565 S
C569 C565 1.408 . S
C569 C568 1.404 . S
C569 H581 0.930 1_565 S
C570 C566 1.524 . S
C570 H582 0.956 . S
C570 H583 0.961 . S
C570 H584 0.961 . S
C571 C568 1.539 1_545 S
C571 H585 0.958 . S
C571 H586 0.961 . S
C571 H587 0.960 1_545 S
H572 C556 0.931 . S
H573 C561 0.929 . S
H574 C562 0.960 1_545 S
H575 C562 0.962 . S
H576 C562 0.960 1_545 S
H577 C563 0.961 . S
H578 C563 0.961 . S
H579 C563 0.961 . S
H580 C564 0.931 . S
H581 C569 0.930 1_545 S
H582 C570 0.956 . S
H583 C570 0.961 . S
H584 C570 0.961 . S
H585 C571 0.958 . S
H586 C571 0.961 . S
H587 C571 0.960 1_565 S
C213 C99 1.550 . S
C205 C34 1.573 . S
C237 C7 1.554 . S
C245 C194 1.533 . S
C269 C16 1.576 . S
C277 C110 1.558 . S
C301 C25 1.532 . S
C309 C183 1.526 . S
C341 C94 1.357 . S
C333 C5 1.521 . S
C373 C187 1.562 . S
C365 C13 1.545 . S
C397 C23 1.530 . S
C405 C103 1.551 . S
C429 C32 1.512 . S
C437 C178 1.381 . S
C469 C189 1.367 . S
C461 C14 1.509 . S
C501 C105 1.354 . S
C493 C22 1.514 1_556 S
C533 C176 1.565 . S
C525 C31 1.561 . S
C557 C4 1.546 . S
C565 C92 1.549 . S
