# Generated by pormake.
# Topology wbl, (4,4)-cn, num edge types: 1
# Building blocks:
#     Node 0, Type 0, BuildingBlock: MUDLON_clean_linker_0, # of connection points: 4
#     Node 1, Type 0, BuildingBlock: MUDLON_clean_linker_0, # of connection points: 4
#     Node 2, Type 0, BuildingBlock: MUDLON_clean_linker_0, # of connection points: 4
#     Node 3, Type 0, BuildingBlock: MUDLON_clean_linker_0, # of connection points: 4
#     Node 4, Type 0, BuildingBlock: MUDLON_clean_linker_0, # of connection points: 4
#     Node 5, Type 0, BuildingBlock: MUDLON_clean_linker_0, # of connection points: 4
#     Node 6, Type 0, BuildingBlock: MUDLON_clean_linker_0, # of connection points: 4
#     Node 7, Type 0, BuildingBlock: MUDLON_clean_linker_0, # of connection points: 4
#     Node 8, Type 1, BuildingBlock: CEKHIL_clean_sbu_0, # of connection points: 4
#     Node 9, Type 1, BuildingBlock: CEKHIL_clean_sbu_0, # of connection points: 4
#     Node 10, Type 1, BuildingBlock: CEKHIL_clean_sbu_0, # of connection points: 4
#     Node 11, Type 1, BuildingBlock: CEKHIL_clean_sbu_0, # of connection points: 4
#     Node 12, Type 1, BuildingBlock: CEKHIL_clean_sbu_0, # of connection points: 4
#     Node 13, Type 1, BuildingBlock: CEKHIL_clean_sbu_0, # of connection points: 4
#     Node 14, Type 1, BuildingBlock: CEKHIL_clean_sbu_0, # of connection points: 4
#     Node 15, Type 1, BuildingBlock: CEKHIL_clean_sbu_0, # of connection points: 4
#     Edge 16, Type (0, 1), BuildingBlock: EZIPEK_clean_linker_0, # of connection points: 2
#     Edge 17, Type (0, 1), BuildingBlock: EZIPEK_clean_linker_0, # of connection points: 2
#     Edge 18, Type (0, 1), BuildingBlock: EZIPEK_clean_linker_0, # of connection points: 2
#     Edge 19, Type (0, 1), BuildingBlock: EZIPEK_clean_linker_0, # of connection points: 2
#     Edge 20, Type (0, 1), BuildingBlock: EZIPEK_clean_linker_0, # of connection points: 2
#     Edge 21, Type (0, 1), BuildingBlock: EZIPEK_clean_linker_0, # of connection points: 2
#     Edge 22, Type (0, 1), BuildingBlock: EZIPEK_clean_linker_0, # of connection points: 2
#     Edge 23, Type (0, 1), BuildingBlock: EZIPEK_clean_linker_0, # of connection points: 2
#     Edge 24, Type (0, 1), BuildingBlock: EZIPEK_clean_linker_0, # of connection points: 2
#     Edge 25, Type (0, 1), BuildingBlock: EZIPEK_clean_linker_0, # of connection points: 2
#     Edge 26, Type (0, 1), BuildingBlock: EZIPEK_clean_linker_0, # of connection points: 2
#     Edge 27, Type (0, 1), BuildingBlock: EZIPEK_clean_linker_0, # of connection points: 2
#     Edge 28, Type (0, 1), BuildingBlock: EZIPEK_clean_linker_0, # of connection points: 2
#     Edge 29, Type (0, 1), BuildingBlock: EZIPEK_clean_linker_0, # of connection points: 2
#     Edge 30, Type (0, 1), BuildingBlock: EZIPEK_clean_linker_0, # of connection points: 2
#     Edge 31, Type (0, 1), BuildingBlock: EZIPEK_clean_linker_0, # of connection points: 2
#     Edge 32, Type (0, 1), BuildingBlock: EZIPEK_clean_linker_0, # of connection points: 2
#     Edge 33, Type (0, 1), BuildingBlock: EZIPEK_clean_linker_0, # of connection points: 2
#     Edge 34, Type (0, 1), BuildingBlock: EZIPEK_clean_linker_0, # of connection points: 2
#     Edge 35, Type (0, 1), BuildingBlock: EZIPEK_clean_linker_0, # of connection points: 2
#     Edge 36, Type (0, 1), BuildingBlock: EZIPEK_clean_linker_0, # of connection points: 2
#     Edge 37, Type (0, 1), BuildingBlock: EZIPEK_clean_linker_0, # of connection points: 2
#     Edge 38, Type (0, 1), BuildingBlock: EZIPEK_clean_linker_0, # of connection points: 2
#     Edge 39, Type (0, 1), BuildingBlock: EZIPEK_clean_linker_0, # of connection points: 2
#     Edge 40, Type (0, 1), BuildingBlock: EZIPEK_clean_linker_0, # of connection points: 2
#     Edge 41, Type (0, 1), BuildingBlock: EZIPEK_clean_linker_0, # of connection points: 2
#     Edge 42, Type (0, 1), BuildingBlock: EZIPEK_clean_linker_0, # of connection points: 2
#     Edge 43, Type (0, 1), BuildingBlock: EZIPEK_clean_linker_0, # of connection points: 2
#     Edge 44, Type (0, 1), BuildingBlock: EZIPEK_clean_linker_0, # of connection points: 2
#     Edge 45, Type (0, 1), BuildingBlock: EZIPEK_clean_linker_0, # of connection points: 2
#     Edge 46, Type (0, 1), BuildingBlock: EZIPEK_clean_linker_0, # of connection points: 2
#     Edge 47, Type (0, 1), BuildingBlock: EZIPEK_clean_linker_0, # of connection points: 2
# Relax obj value: 0.121
# Max RMSD: 0.154
# Mean RMSD: 0.138
data_MOF--net-wbl--node1-CEKHIL_clean_sbu_0--node2-MUDLON_clean_linker_0--edge1-EZIPEK_clean_linker_0
_symmetry_space_group_name_H-M    P1
_symmetry_Int_Tables_number       1
_symmetry_cell_setting            triclinic
loop_
_symmetry_equiv_pos_as_xyz
'x, y, z'
_cell_length_a     42.948498
_cell_length_b     43.15789
_cell_length_c     61.219683
_cell_angle_alpha  90.333786
_cell_angle_beta   90.114586
_cell_angle_gamma 90.019643
loop_
_atom_site_label
_atom_site_type_symbol
_atom_site_fract_x
_atom_site_fract_y
_atom_site_fract_z
_atom_type_partial_charge
H0 H 0.1412 0.92876 0.32992 0.0
N1 N 0.08901 0.91369 0.30597 0.0
H2 H 0.15141 0.91535 0.36786 0.0
H3 H 0.0511 0.8847 0.33361 0.0
H4 H 0.06082 0.87271 0.37232 0.0
H5 H 0.10942 0.85903 0.29227 0.0
H6 H 0.1609 0.8473 0.27697 0.0
H7 H 0.12993 0.95686 0.28826 0.0
H8 H 0.1809 0.94492 0.27317 0.0
H9 H 0.10305 0.97263 0.31972 0.0
H10 H 0.03343 0.91736 0.287 0.0
H11 H 0.06897 0.01742 0.31844 0.0
H12 H 0.99786 0.96162 0.28712 0.0
H13 H 0.9453 0.14996 0.33284 0.0
H14 H 0.92895 0.1642 0.37012 0.0
H15 H 0.90501 0.06895 0.38265 0.0
H16 H 0.9217 0.05461 0.3457 0.0
H17 H 0.89589 0.05069 0.31241 0.0
H18 H 0.84325 0.05962 0.29826 0.0
H19 H 0.8728 0.14709 0.27169 0.0
H20 H 0.92521 0.13889 0.28688 0.0
H21 H 0.99014 0.07761 0.34073 0.0
H22 H 0.0258 0.03502 0.33667 0.0
H23 H 0.98369 0.01125 0.27462 0.0
N24 N 0.94257 0.09417 0.314 0.0
H25 H 0.94631 0.05294 0.27934 0.0
C26 C 0.09546 0.9071 0.32868 0.0
C27 C 0.12357 0.91616 0.33879 0.0
C28 C 0.12942 0.90863 0.36053 0.0
C29 C 0.107 0.89279 0.3728 0.0
C30 C 0.07853 0.88464 0.36301 0.0
C31 C 0.07298 0.8915 0.34105 0.0
C32 C 0.11552 0.90869 0.29178 0.0
C33 C 0.12445 0.87795 0.28746 0.0
C34 C 0.15381 0.87125 0.27889 0.0
C35 C 0.17463 0.89529 0.27425 0.0
C36 C 0.16504 0.92612 0.27679 0.0
C37 C 0.13571 0.93286 0.28547 0.0
C38 C 0.07099 0.94162 0.30306 0.0
C39 C 0.08055 0.97023 0.31192 0.0
C40 C 0.06066 0.99579 0.31154 0.0
C41 C 0.03027 0.99319 0.30302 0.0
C42 C 0.02113 0.96476 0.2936 0.0
C43 C 0.04138 0.93935 0.29355 0.0
C44 C 0.93473 0.10137 0.33645 0.0
C45 C 0.93681 0.13217 0.34371 0.0
C46 C 0.92746 0.14025 0.36484 0.0
C47 C 0.91576 0.11756 0.37893 0.0
C48 C 0.91393 0.08668 0.37188 0.0
C49 C 0.92332 0.07859 0.3508 0.0
C50 C 0.91441 0.09449 0.30101 0.0
C51 C 0.89126 0.07159 0.30332 0.0
C52 C 0.86127 0.07661 0.2952 0.0
C53 C 0.85417 0.1042 0.28426 0.0
C54 C 0.87791 0.12574 0.2802 0.0
C55 C 0.90774 0.121 0.28871 0.0
C56 C 0.96345 0.06774 0.31125 0.0
C57 C 0.9876 0.06282 0.32649 0.0
C58 C 0.00876 0.03864 0.32388 0.0
C59 C 0.00771 0.01933 0.30534 0.0
C60 C 0.98473 0.02503 0.28944 0.0
C61 C 0.96308 0.04903 0.29224 0.0
H62 H 0.95364 0.3911 0.58694 0.0
N63 N 0.92261 0.43064 0.55957 0.0
H64 H 0.93916 0.37877 0.62447 0.0
H65 H 0.87932 0.45817 0.58377 0.0
H66 H 0.86467 0.44555 0.62156 0.0
H67 H 0.86814 0.41451 0.54275 0.0
H68 H 0.8534 0.36325 0.52843 0.0
H69 H 0.96363 0.38436 0.5477 0.0
H70 H 0.9488 0.33331 0.53363 0.0
H71 H 0.98546 0.42378 0.56727 0.0
H72 H 0.91625 0.48522 0.54052 0.0
H73 H 0.02532 0.46304 0.56199 0.0
H74 H 0.9563 0.52514 0.5355 0.0
H75 H 0.12686 0.55698 0.58371 0.0
H76 H 0.13695 0.56718 0.62271 0.0
H77 H 0.07411 0.64502 0.62079 0.0
H78 H 0.06337 0.63444 0.58228 0.0
H79 H 0.14428 0.60607 0.54102 0.0
H80 H 0.15732 0.65684 0.52558 0.0
H81 H 0.06051 0.68281 0.52783 0.0
H82 H 0.04734 0.63211 0.54283 0.0
H83 H 0.09444 0.53418 0.53706 0.0
H84 H 0.0539 0.49437 0.53332 0.0
H85 H 0.98749 0.55659 0.5631 0.0
N86 N 0.0899 0.58867 0.55705 0.0
H87 H 0.02796 0.59581 0.5671 0.0
C88 C 0.91756 0.4258 0.58255 0.0
C89 C 0.9347 0.40373 0.5944 0.0
C90 C 0.92638 0.39652 0.61581 0.0
C91 C 0.90086 0.41122 0.62562 0.0
C92 C 0.88449 0.43408 0.61416 0.0
C93 C 0.89284 0.4413 0.59275 0.0
C94 C 0.91691 0.40351 0.54629 0.0
C95 C 0.88605 0.39724 0.54009 0.0
C96 C 0.87761 0.36802 0.53213 0.0
C97 C 0.9 0.34458 0.53024 0.0
C98 C 0.93125 0.35121 0.53509 0.0
C99 C 0.9397 0.3805 0.54303 0.0
C100 C 0.94768 0.45135 0.55399 0.0
C101 C 0.97883 0.44531 0.55969 0.0
C102 C 0.00175 0.46793 0.55671 0.0
C103 C 0.99394 0.49719 0.54834 0.0
C104 C 0.96298 0.50285 0.54207 0.0
C105 C 0.94017 0.48006 0.54479 0.0
C106 C 0.09457 0.59488 0.58001 0.0
C107 C 0.11519 0.57611 0.59177 0.0
C108 C 0.121 0.58199 0.61387 0.0
C109 C 0.10635 0.60692 0.62448 0.0
C110 C 0.08567 0.62574 0.6128 0.0
C111 C 0.07956 0.61963 0.59079 0.0
C112 C 0.09497 0.61514 0.54321 0.0
C113 C 0.12574 0.62228 0.53745 0.0
C114 C 0.13318 0.65121 0.5288 0.0
C115 C 0.10987 0.67349 0.52583 0.0
C116 C 0.07875 0.6658 0.5301 0.0
C117 C 0.07128 0.63673 0.53862 0.0
C118 C 0.06433 0.5681 0.55207 0.0
C119 C 0.07094 0.5394 0.54231 0.0
C120 C 0.04786 0.51667 0.54033 0.0
C121 C 0.01753 0.52238 0.54792 0.0
C122 C 0.01053 0.55166 0.55682 0.0
C123 C 0.03373 0.57422 0.55906 0.0
H124 H 0.62261 0.4678 0.83961 0.0
N125 N 0.58781 0.43827 0.80817 0.0
H126 H 0.63223 0.44959 0.87665 0.0
H127 H 0.56262 0.38935 0.82746 0.0
H128 H 0.57301 0.37058 0.86468 0.0
H129 H 0.60133 0.38764 0.78558 0.0
H130 H 0.6527 0.37248 0.77156 0.0
H131 H 0.63763 0.47764 0.80292 0.0
H132 H 0.68901 0.46229 0.78925 0.0
H133 H 0.59416 0.5001 0.81875 0.0
H134 H 0.53356 0.43347 0.78773 0.0
H135 H 0.55365 0.53905 0.81671 0.0
H136 H 0.49292 0.47297 0.78467 0.0
H137 H 0.41389 0.65671 0.82861 0.0
H138 H 0.40347 0.67259 0.86659 0.0
H139 H 0.41843 0.57869 0.88774 0.0
H140 H 0.42796 0.56264 0.85018 0.0
H141 H 0.36678 0.585 0.83418 0.0
H142 H 0.31546 0.5868 0.81813 0.0
H143 H 0.35555 0.60104 0.75444 0.0
H144 H 0.40781 0.6027 0.77102 0.0
H145 H 0.48085 0.61022 0.80153 0.0
H146 H 0.52251 0.57245 0.79551 0.0
H147 H 0.45766 0.4982 0.80862 0.0
N148 N 0.42242 0.5993 0.81354 0.0
H149 H 0.4161 0.53613 0.8137 0.0
C150 C 0.59141 0.43009 0.83079 0.0
C151 C 0.61093 0.44706 0.84496 0.0
C152 C 0.61668 0.43656 0.86609 0.0
C153 C 0.60338 0.40878 0.87327 0.0
C154 C 0.5834 0.39213 0.85935 0.0
C155 C 0.57741 0.40282 0.83827 0.0
C156 C 0.61546 0.43371 0.79525 0.0
C157 C 0.62007 0.40444 0.78572 0.0
C158 C 0.64936 0.39569 0.77797 0.0
C159 C 0.67458 0.41615 0.77967 0.0
C160 C 0.66974 0.44617 0.78795 0.0
C161 C 0.64032 0.45497 0.79563 0.0
C162 C 0.56692 0.46355 0.80348 0.0
C163 C 0.57246 0.4939 0.81098 0.0
C164 C 0.54909 0.51642 0.80968 0.0
C165 C 0.5197 0.50922 0.80072 0.0
C166 C 0.51495 0.47928 0.7921 0.0
C167 C 0.53828 0.45675 0.79356 0.0
C168 C 0.42217 0.60866 0.83633 0.0
C169 C 0.41566 0.63973 0.84151 0.0
C170 C 0.40952 0.64872 0.86307 0.0
C171 C 0.41014 0.62674 0.87987 0.0
C172 C 0.41792 0.59594 0.87496 0.0
C173 C 0.4237 0.58688 0.85342 0.0
C174 C 0.39176 0.59466 0.80393 0.0
C175 C 0.36514 0.58888 0.8168 0.0
C176 C 0.33547 0.58973 0.80759 0.0
C177 C 0.33145 0.59466 0.78511 0.0
C178 C 0.35799 0.59786 0.7719 0.0
C179 C 0.38779 0.59851 0.78131 0.0
C180 C 0.44547 0.5761 0.8081 0.0
C181 C 0.47564 0.58573 0.80272 0.0
C182 C 0.49945 0.56409 0.79948 0.0
C183 C 0.49366 0.53216 0.80175 0.0
C184 C 0.46303 0.52248 0.80642 0.0
C185 C 0.43917 0.54418 0.80945 0.0
H186 H 0.44199 0.88334 0.08329 0.0
N187 N 0.42209 0.93435 0.06037 0.0
H188 H 0.42864 0.87038 0.12074 0.0
H189 H 0.39178 0.96962 0.08932 0.0
H190 H 0.38015 0.95737 0.12771 0.0
H191 H 0.36745 0.9116 0.04804 0.0
H192 H 0.35727 0.85905 0.0343 0.0
H193 H 0.46625 0.89576 0.0416 0.0
H194 H 0.4559 0.84369 0.02759 0.0
H195 H 0.48217 0.92609 0.07451 0.0
H196 H 0.42221 0.98725 0.03828 0.0
H197 H 0.52423 0.96374 0.07241 0.0
H198 H 0.46468 0.02501 0.03552 0.0
H199 H 0.65346 0.0925 0.07994 0.0
H200 H 0.67026 0.10192 0.11786 0.0
H201 H 0.57495 0.0953 0.13927 0.0
H202 H 0.55806 0.08688 0.10168 0.0
H203 H 0.58005 0.14435 0.08344 0.0
H204 H 0.58956 0.19471 0.06728 0.0
H205 H 0.61364 0.15073 0.00616 0.0
H206 H 0.60721 0.09961 0.02313 0.0
H207 H 0.60193 0.02827 0.05466 0.0
H208 H 0.56093 0.9895 0.04948 0.0
H209 H 0.49136 0.06043 0.05982 0.0
N210 N 0.59536 0.0877 0.06507 0.0
H211 H 0.5326 0.09907 0.06433 0.0
C212 C 0.41712 0.92728 0.08319 0.0
C213 C 0.42819 0.89963 0.09261 0.0
C214 C 0.42074 0.89223 0.1141 0.0
C215 C 0.40309 0.91273 0.1269 0.0
C216 C 0.39347 0.94109 0.11797 0.0
C217 C 0.40016 0.9481 0.09619 0.0
C218 C 0.4175 0.90784 0.0461 0.0
C219 C 0.38685 0.89739 0.04278 0.0
C220 C 0.38103 0.86741 0.03507 0.0
C221 C 0.40586 0.84753 0.03014 0.0
C222 C 0.43647 0.85882 0.03131 0.0
C223 C 0.44233 0.88872 0.03929 0.0
C224 C 0.44887 0.95387 0.05653 0.0
C225 C 0.47823 0.94736 0.06567 0.0
C226 C 0.5024 0.96897 0.06436 0.0
C227 C 0.49788 0.99758 0.05388 0.0
C228 C 0.46887 0.00345 0.044 0.0
C229 C 0.44468 0.98179 0.04534 0.0
C230 C 0.60466 0.08848 0.08782 0.0
C231 C 0.6363 0.09249 0.09288 0.0
C232 C 0.64582 0.09803 0.1144 0.0
C233 C 0.62378 0.09929 0.13127 0.0
C234 C 0.59225 0.09432 0.12643 0.0
C235 C 0.58268 0.08919 0.1049 0.0
C236 C 0.59395 0.11778 0.05469 0.0
C237 C 0.58748 0.14514 0.06659 0.0
C238 C 0.59273 0.17413 0.05732 0.0
C239 C 0.6029 0.17658 0.03561 0.0
C240 C 0.60633 0.14941 0.02306 0.0
C241 C 0.60245 0.12029 0.03265 0.0
C242 C 0.5704 0.06643 0.05989 0.0
C243 C 0.5778 0.03543 0.05543 0.0
C244 C 0.55432 0.01331 0.05266 0.0
C245 C 0.52277 0.02171 0.05442 0.0
C246 C 0.51535 0.05313 0.0581 0.0
C247 C 0.53891 0.07529 0.06076 0.0
H248 H 0.12826 0.56867 0.91938 0.0
N249 N 0.07805 0.58669 0.94424 0.0
H250 H 0.13742 0.58146 0.88126 0.0
H251 H 0.03851 0.61352 0.91654 0.0
H252 H 0.04691 0.62442 0.87755 0.0
H253 H 0.09617 0.64255 0.95709 0.0
H254 H 0.14753 0.6573 0.97149 0.0
H255 H 0.12232 0.54616 0.96007 0.0
H256 H 0.17351 0.56099 0.9745 0.0
H257 H 0.08697 0.52633 0.93163 0.0
H258 H 0.02624 0.58703 0.96789 0.0
H259 H 0.04932 0.48435 0.93503 0.0
H260 H 0.9885 0.54484 0.97186 0.0
H261 H 0.9255 0.35901 0.92318 0.0
H262 H 0.91808 0.34417 0.88464 0.0
H263 H 0.91974 0.44051 0.86648 0.0
H264 H 0.9256 0.45539 0.90465 0.0
H265 H 0.86818 0.41213 0.9163 0.0
H266 H 0.8166 0.40905 0.93086 0.0
H267 H 0.85184 0.42474 0.99594 0.0
H268 H 0.90532 0.4252 0.98162 0.0
H269 H 0.98277 0.40827 0.95211 0.0
H270 H 0.02237 0.44828 0.95814 0.0
H271 H 0.95285 0.51895 0.94729 0.0
N272 N 0.92382 0.41612 0.93993 0.0
H273 H 0.91345 0.47884 0.94182 0.0
C274 C 0.08292 0.59104 0.92111 0.0
C275 C 0.1104 0.58114 0.91062 0.0
C276 C 0.1156 0.58823 0.88875 0.0
C277 C 0.09304 0.60427 0.87669 0.0
C278 C 0.06477 0.61239 0.8867 0.0
C279 C 0.05996 0.60616 0.90883 0.0
C280 C 0.10514 0.59335 0.95753 0.0
C281 C 0.11256 0.62456 0.96151 0.0
C282 C 0.14187 0.63298 0.96951 0.0
C283 C 0.16427 0.61022 0.9738 0.0
C284 C 0.15643 0.57884 0.9712 0.0
C285 C 0.12706 0.57039 0.96312 0.0
C286 C 0.0594 0.55993 0.94956 0.0
C287 C 0.06592 0.53038 0.9409 0.0
C288 C 0.04428 0.50631 0.94289 0.0
C289 C 0.01565 0.51122 0.95357 0.0
C290 C 0.01004 0.54035 0.96323 0.0
C291 C 0.0317 0.56439 0.96121 0.0
C292 C 0.9266 0.40819 0.91698 0.0
C293 C 0.92515 0.37684 0.91081 0.0
C294 C 0.92071 0.36842 0.88892 0.0
C295 C 0.9183 0.3913 0.8728 0.0
C296 C 0.92162 0.42256 0.87872 0.0
C297 C 0.92536 0.43101 0.90059 0.0
C298 C 0.89181 0.41907 0.94777 0.0
C299 C 0.86581 0.41496 0.93376 0.0
C300 C 0.83575 0.41315 0.94207 0.0
C301 C 0.83022 0.41639 0.9645 0.0
C302 C 0.85558 0.42185 0.97856 0.0
C303 C 0.88607 0.42247 0.97032 0.0
C304 C 0.9452 0.44042 0.94653 0.0
C305 C 0.97603 0.43242 0.95153 0.0
C306 C 0.99865 0.45533 0.95477 0.0
C307 C 0.99093 0.4869 0.95302 0.0
C308 C 0.95964 0.49493 0.94903 0.0
C309 C 0.93701 0.47197 0.94584 0.0
H310 H 0.56068 0.37725 0.16427 0.0
N311 N 0.58763 0.42253 0.18965 0.0
H312 H 0.57061 0.36757 0.1255 0.0
H313 H 0.62321 0.45548 0.16301 0.0
H314 H 0.63247 0.44625 0.12384 0.0
H315 H 0.64305 0.40643 0.20463 0.0
H316 H 0.65786 0.35644 0.2206 0.0
H317 H 0.54679 0.37784 0.20425 0.0
H318 H 0.56168 0.32798 0.21996 0.0
H319 H 0.52516 0.41466 0.18163 0.0
H320 H 0.59324 0.47735 0.20889 0.0
H321 H 0.48483 0.45408 0.18603 0.0
H322 H 0.55298 0.51734 0.21277 0.0
H323 H 0.37767 0.55774 0.16801 0.0
H324 H 0.36081 0.57205 0.13095 0.0
H325 H 0.43475 0.63945 0.12775 0.0
H326 H 0.45132 0.62554 0.16467 0.0
H327 H 0.37196 0.6093 0.20805 0.0
H328 H 0.36705 0.66161 0.22366 0.0
H329 H 0.46674 0.67223 0.2216 0.0
H330 H 0.47181 0.6205 0.20587 0.0
H331 H 0.41712 0.52985 0.21215 0.0
H332 H 0.45631 0.48861 0.21562 0.0
H333 H 0.52277 0.54565 0.18161 0.0
N334 N 0.42286 0.58363 0.19164 0.0
H335 H 0.48367 0.58603 0.17762 0.0
C336 C 0.59155 0.41703 0.16659 0.0
C337 C 0.57642 0.39243 0.1557 0.0
C338 C 0.58202 0.38689 0.13357 0.0
C339 C 0.60231 0.40615 0.12193 0.0
C340 C 0.61681 0.43112 0.13264 0.0
C341 C 0.61153 0.43641 0.15484 0.0
C342 C 0.59393 0.39605 0.20322 0.0
C343 C 0.62506 0.38978 0.20856 0.0
C344 C 0.63351 0.36131 0.21749 0.0
C345 C 0.61084 0.33861 0.22121 0.0
C346 C 0.57943 0.34533 0.21711 0.0
C347 C 0.57096 0.3739 0.20821 0.0
C348 C 0.56228 0.44291 0.1953 0.0
C349 C 0.53131 0.43649 0.18922 0.0
C350 C 0.50824 0.45914 0.19162 0.0
C351 C 0.51585 0.48875 0.19967 0.0
C352 C 0.54654 0.49472 0.20645 0.0
C353 C 0.56945 0.47191 0.2044 0.0
C354 C 0.41576 0.59031 0.1691 0.0
C355 C 0.39048 0.57524 0.15917 0.0
C356 C 0.38087 0.58343 0.13815 0.0
C357 C 0.39657 0.6068 0.12674 0.0
C358 C 0.42245 0.62132 0.13634 0.0
C359 C 0.43198 0.61321 0.15737 0.0
C360 C 0.42208 0.61072 0.20563 0.0
C361 C 0.39284 0.62248 0.21165 0.0
C362 C 0.39002 0.65226 0.22046 0.0
C363 C 0.41655 0.67064 0.22365 0.0
C364 C 0.44606 0.65821 0.21929 0.0
C365 C 0.44887 0.62851 0.21026 0.0
C366 C 0.44738 0.56124 0.19495 0.0
C367 C 0.44028 0.53353 0.2057 0.0
C368 C 0.46257 0.51003 0.2076 0.0
C369 C 0.4926 0.51411 0.19905 0.0
C370 C 0.49994 0.54211 0.18867 0.0
C371 C 0.4775 0.56529 0.18639 0.0
H372 H 0.37959 0.95193 0.41782 0.0
N373 N 0.42669 0.92861 0.44346 0.0
H374 H 0.36839 0.93785 0.37991 0.0
H375 H 0.45829 0.88974 0.41788 0.0
H376 H 0.4473 0.87614 0.3795 0.0
H377 H 0.40423 0.877 0.46058 0.0
H378 H 0.35226 0.86956 0.47636 0.0
H379 H 0.38739 0.97545 0.45728 0.0
H380 H 0.33576 0.96788 0.47299 0.0
H381 H 0.42208 0.98784 0.42753 0.0
H382 H 0.47931 0.92729 0.46638 0.0
H383 H 0.46111 0.02849 0.43061 0.0
H384 H 0.51869 0.96828 0.46976 0.0
H385 H 0.58986 0.15499 0.4278 0.0
H386 H 0.60233 0.1718 0.39049 0.0
H387 H 0.59345 0.07761 0.36761 0.0
H388 H 0.58142 0.0607 0.40448 0.0
H389 H 0.64135 0.08812 0.41928 0.0
H390 H 0.6929 0.09212 0.43428 0.0
H391 H 0.6551 0.09649 0.49944 0.0
H392 H 0.60206 0.09642 0.48407 0.0
H393 H 0.52617 0.10435 0.45225 0.0
H394 H 0.48624 0.06425 0.45613 0.0
H395 H 0.55596 0.99374 0.44514 0.0
N396 N 0.58564 0.09676 0.44171 0.0
H397 H 0.59572 0.03396 0.44158 0.0
C398 C 0.41987 0.92168 0.42082 0.0
C399 C 0.39452 0.93528 0.40976 0.0
C400 C 0.38804 0.92727 0.3881 0.0
C401 C 0.40697 0.90594 0.37701 0.0
C402 C 0.4324 0.89258 0.38788 0.0
C403 C 0.43872 0.90038 0.40964 0.0
C404 C 0.39986 0.92662 0.4576 0.0
C405 C 0.38987 0.89707 0.46399 0.0
C406 C 0.3603 0.89282 0.47293 0.0
C407 C 0.34032 0.91819 0.47572 0.0
C408 C 0.35105 0.9481 0.47103 0.0
C409 C 0.38063 0.95236 0.46203 0.0
C410 C 0.44772 0.95435 0.44682 0.0
C411 C 0.4428 0.98339 0.43706 0.0
C412 C 0.46519 0.00676 0.43891 0.0
C413 C 0.49308 0.00166 0.45043 0.0
C414 C 0.49761 0.97287 0.46061 0.0
C415 C 0.47508 0.94953 0.45883 0.0
C416 C 0.58458 0.1067 0.41915 0.0
C417 C 0.58944 0.13818 0.4146 0.0
C418 C 0.59668 0.14772 0.39342 0.0
C419 C 0.59893 0.12583 0.37648 0.0
C420 C 0.5917 0.09475 0.38055 0.0
C421 C 0.58458 0.08518 0.40168 0.0
C422 C 0.61698 0.09295 0.45045 0.0
C423 C 0.64337 0.09036 0.43679 0.0
C424 C 0.6733 0.09241 0.44541 0.0
C425 C 0.67807 0.09518 0.468 0.0
C426 C 0.65203 0.09502 0.4819 0.0
C427 C 0.62179 0.09466 0.47316 0.0
C428 C 0.56385 0.07226 0.44669 0.0
C429 C 0.53286 0.0802 0.4511 0.0
C430 C 0.51008 0.05728 0.45313 0.0
C431 C 0.51785 0.02579 0.45077 0.0
C432 C 0.54922 0.01774 0.44728 0.0
C433 C 0.57202 0.04073 0.44522 0.0
H434 H 0.04265 0.9123 0.65803 0.0
N435 N 0.08335 0.91798 0.69249 0.0
H436 H 0.05654 0.9042 0.61962 0.0
H437 H 0.14002 0.91305 0.67548 0.0
H438 H 0.15387 0.90349 0.63709 0.0
H439 H 0.1216 0.90603 0.72551 0.0
H440 H 0.13359 0.85487 0.7409 0.0
H441 H 0.04975 0.86486 0.68553 0.0
H442 H 0.06135 0.81395 0.70116 0.0
H443 H 0.02105 0.90706 0.70066 0.0
H444 H 0.09019 0.9789 0.69471 0.0
H445 H 0.98057 0.94611 0.70474 0.0
H446 H 0.04965 0.01827 0.69788 0.0
H447 H 0.86116 0.08823 0.67625 0.0
H448 H 0.84863 0.10268 0.63845 0.0
H449 H 0.94638 0.10156 0.62248 0.0
H450 H 0.95896 0.08808 0.66039 0.0
H451 H 0.96164 0.12618 0.69135 0.0
H452 H 0.9555 0.17952 0.70443 0.0
H453 H 0.86805 0.15507 0.7342 0.0
H454 H 0.87485 0.10123 0.7218 0.0
H455 H 0.91426 0.02208 0.68017 0.0
H456 H 0.95371 0.9818 0.68267 0.0
H457 H 0.01243 0.04388 0.72002 0.0
N458 N 0.91737 0.08062 0.69384 0.0
H459 H 0.97356 0.08424 0.717 0.0
C460 C 0.09046 0.91404 0.66961 0.0
C461 C 0.06698 0.91095 0.65364 0.0
C462 C 0.07487 0.90604 0.63175 0.0
C463 C 0.10621 0.90332 0.62556 0.0
C464 C 0.12957 0.90567 0.64155 0.0
C465 C 0.12172 0.91124 0.66334 0.0
C466 C 0.08462 0.88943 0.70461 0.0
C467 C 0.10771 0.88619 0.72065 0.0
C468 C 0.11468 0.85707 0.72928 0.0
C469 C 0.09847 0.83073 0.72202 0.0
C470 C 0.07405 0.83409 0.70695 0.0
C471 C 0.06726 0.86319 0.6982 0.0
C472 C 0.05896 0.94001 0.69749 0.0
C473 C 0.02771 0.93118 0.70048 0.0
C474 C 0.00439 0.9537 0.70258 0.0
C475 C 0.01164 0.98551 0.70149 0.0
C476 C 0.04306 0.99413 0.69915 0.0
C477 C 0.06633 0.97165 0.69724 0.0
C478 C 0.91083 0.08656 0.67107 0.0
C479 C 0.87982 0.09089 0.66454 0.0
C480 C 0.87273 0.0993 0.64311 0.0
C481 C 0.8966 0.1031 0.62774 0.0
C482 C 0.92768 0.0987 0.63415 0.0
C483 C 0.93481 0.09078 0.65569 0.0
C484 C 0.91889 0.10943 0.70596 0.0
C485 C 0.94186 0.13185 0.70153 0.0
C486 C 0.93824 0.16236 0.70885 0.0
C487 C 0.91124 0.17124 0.72017 0.0
C488 C 0.88913 0.14863 0.7256 0.0
C489 C 0.8931 0.11794 0.71868 0.0
C490 C 0.94085 0.05689 0.69757 0.0
C491 C 0.93565 0.02708 0.6889 0.0
C492 C 0.9582 0.00388 0.69055 0.0
C493 C 0.98657 0.00955 0.70136 0.0
C494 C 0.99124 0.03887 0.71105 0.0
C495 C 0.96873 0.06224 0.70924 0.0
Co496 Co 0.33741 0.66283 0.00836 0.0
O497 O 0.31015 0.62818 0.00254 0.0
O498 O 0.29812 0.67743 0.99679 0.0
C499 C 0.35224 0.64695 0.04191 0.0
O500 O 0.35865 0.70474 0.01329 0.0
Co501 Co 0.40845 0.65319 0.01511 0.0
O502 O 0.40928 0.69813 0.02185 0.0
C503 C 0.3818 0.64949 0.9708 0.0
C504 C 0.2897 0.64848 0.99643 0.0
C505 C 0.38559 0.71537 0.01893 0.0
O506 O 0.35551 0.65956 0.97799 0.0
O507 O 0.40486 0.64289 0.9832 0.0
O508 O 0.32607 0.66148 0.03917 0.0
O509 O 0.36725 0.64034 0.0242 0.0
Co510 Co 0.3526 0.85375 0.24642 0.0
O511 O 0.32253 0.88687 0.2488 0.0
O512 O 0.31321 0.83743 0.25616 0.0
C513 C 0.37045 0.86814 0.21315 0.0
O514 O 0.37546 0.81246 0.24474 0.0
Co515 Co 0.42265 0.86393 0.24444 0.0
O516 O 0.42687 0.81861 0.24006 0.0
C517 C 0.39076 0.87332 0.28602 0.0
C518 C 0.30296 0.86564 0.25479 0.0
C519 C 0.40292 0.80155 0.24163 0.0
O520 O 0.36599 0.86135 0.27768 0.0
O521 O 0.41531 0.87883 0.27496 0.0
O522 O 0.34559 0.85125 0.21514 0.0
O523 O 0.38329 0.87714 0.23131 0.0
Co524 Co 0.15718 0.8481 0.49557 0.0
O525 O 0.12375 0.81847 0.49809 0.0
O526 O 0.17311 0.80947 0.50676 0.0
C527 C 0.14405 0.86392 0.46152 0.0
O528 O 0.19856 0.87102 0.49407 0.0
Co529 Co 0.1458 0.91757 0.49184 0.0
O530 O 0.19163 0.92213 0.4895 0.0
C531 C 0.13617 0.88807 0.53393 0.0
C532 C 0.14473 0.7993 0.50509 0.0
C533 C 0.20912 0.89857 0.49137 0.0
O534 O 0.14906 0.86338 0.52634 0.0
O535 O 0.12984 0.91158 0.52215 0.0
O536 O 0.16069 0.83919 0.46457 0.0
O537 O 0.13414 0.87757 0.47912 0.0
Co538 Co 0.14856 0.65816 0.75735 0.0
O539 O 0.11503 0.68747 0.75359 0.0
O540 O 0.16499 0.6977 0.7481 0.0
C541 C 0.13237 0.63985 0.78996 0.0
O542 O 0.19 0.63538 0.76082 0.0
Co543 Co 0.13776 0.58859 0.75766 0.0
O544 O 0.18359 0.58395 0.75936 0.0
C545 C 0.13129 0.62102 0.71666 0.0
C546 C 0.13629 0.70727 0.74801 0.0
C547 C 0.20099 0.60763 0.76134 0.0
O548 O 0.14377 0.64492 0.72574 0.0
O549 O 0.12387 0.59671 0.72719 0.0
O550 O 0.14852 0.66524 0.78863 0.0
O551 O 0.12433 0.62732 0.77147 0.0
Co552 Co 0.85658 0.16923 0.49799 0.0
O553 O 0.88855 0.19971 0.50321 0.0
O554 O 0.83808 0.2071 0.50898 0.0
C555 C 0.87351 0.15464 0.46476 0.0
O556 O 0.81679 0.14423 0.49323 0.0
Co557 Co 0.87291 0.09983 0.49304 0.0
O558 O 0.82748 0.09356 0.48948 0.0
C559 C 0.87485 0.12858 0.53642 0.0
C560 C 0.86626 0.21814 0.50916 0.0
C561 C 0.80819 0.11595 0.49003 0.0
O562 O 0.86154 0.15294 0.52875 0.0
O563 O 0.88418 0.10608 0.52445 0.0
O564 O 0.85645 0.17925 0.46705 0.0
O565 O 0.8821 0.14122 0.48261 0.0
Co566 Co 0.8449 0.35636 0.74464 0.0
O567 O 0.81895 0.39179 0.75073 0.0
O568 O 0.80554 0.343 0.75683 0.0
C569 C 0.85889 0.37176 0.71091 0.0
O570 O 0.86499 0.31396 0.73939 0.0
Co571 Co 0.91597 0.3647 0.737 0.0
O572 O 0.91548 0.3198 0.73015 0.0
C573 C 0.89065 0.36916 0.78154 0.0
C574 C 0.79805 0.37221 0.75718 0.0
C575 C 0.89157 0.30297 0.73334 0.0
O576 O 0.86412 0.35916 0.77468 0.0
O577 O 0.91335 0.37567 0.76885 0.0
O578 O 0.83244 0.35795 0.71405 0.0
O579 O 0.87469 0.37804 0.72838 0.0
Co580 Co 0.64911 0.34719 0.99248 0.0
O581 O 0.61589 0.31781 0.99648 0.0
O582 O 0.66532 0.30929 0.00473 0.0
C583 C 0.63526 0.36194 0.95875 0.0
O584 O 0.69006 0.37088 0.98916 0.0
Co585 Co 0.63523 0.41718 0.98727 0.0
O586 O 0.68083 0.42154 0.98378 0.0
C587 C 0.6288 0.3887 0.03019 0.0
C588 C 0.63682 0.29905 0.00411 0.0
C589 C 0.69947 0.39871 0.98532 0.0
O590 O 0.64206 0.36406 0.02286 0.0
O591 O 0.62131 0.41163 0.01816 0.0
O592 O 0.65099 0.33653 0.96156 0.0
O593 O 0.62595 0.37581 0.97633 0.0
Co594 Co 0.66766 0.16974 0.2588 0.0
O595 O 0.63196 0.19565 0.25341 0.0
O596 O 0.68095 0.20882 0.24674 0.0
C597 C 0.65273 0.15547 0.29264 0.0
O598 O 0.71074 0.15076 0.26296 0.0
Co599 Co 0.66191 0.09961 0.2659 0.0
O600 O 0.70751 0.1001 0.27095 0.0
C601 C 0.65315 0.12477 0.22193 0.0
C602 C 0.65166 0.21632 0.24676 0.0
C603 C 0.72326 0.12471 0.26802 0.0
O604 O 0.66378 0.15105 0.2286 0.0
O605 O 0.64766 0.10211 0.23474 0.0
O606 O 0.66711 0.18153 0.28957 0.0
O607 O 0.64594 0.13972 0.27524 0.0
C608 C 0.22971 0.88605 0.28615 0.0
C609 C 0.20754 0.88812 0.26895 0.0
C610 C 0.24826 0.87556 0.24217 0.0
C611 C 0.27011 0.87319 0.25956 0.0
N612 N 0.28213 0.87625 0.29807 0.0
N613 N 0.19431 0.88294 0.23089 0.0
C614 C 0.26093 0.87839 0.28145 0.0
C615 C 0.21647 0.88245 0.24698 0.0
N616 N 0.22173 0.89103 0.30743 0.0
N617 N 0.25814 0.87154 0.22112 0.0
H618 H 0.17111 0.88871 0.23387 0.0
H619 H 0.19822 0.87649 0.21474 0.0
H620 H 0.28079 0.86486 0.21721 0.0
H621 H 0.24456 0.87572 0.20738 0.0
H622 H 0.19935 0.89668 0.31274 0.0
H623 H 0.19935 0.89668 0.31274 0.0
H624 H 0.27618 0.87998 0.3144 0.0
H625 H 0.30552 0.87082 0.29556 0.0
C626 C 0.1255 0.72698 0.53765 0.0
C627 C 0.11854 0.70583 0.52044 0.0
C628 C 0.13181 0.7452 0.4933 0.0
C629 C 0.13662 0.76695 0.51046 0.0
N630 N 0.13544 0.7802 0.54872 0.0
N631 N 0.11138 0.69505 0.48212 0.0
C632 C 0.13284 0.75828 0.53259 0.0
C633 C 0.12063 0.71503 0.4983 0.0
N634 N 0.12575 0.71691 0.5588 0.0
N635 N 0.13906 0.75309 0.47231 0.0
H636 H 0.10385 0.67252 0.48522 0.0
H637 H 0.10904 0.70135 0.46582 0.0
H638 H 0.14755 0.7749 0.46811 0.0
H639 H 0.13917 0.73747 0.4593 0.0
H640 H 0.13408 0.73002 0.57188 0.0
H641 H 0.1194 0.69449 0.56327 0.0
H642 H 0.12918 0.77649 0.56491 0.0
H643 H 0.14215 0.803 0.54569 0.0
C644 C 0.28846 0.62307 0.7647 0.0
C645 C 0.29919 0.59639 0.77597 0.0
C646 C 0.24551 0.57824 0.779 0.0
C647 C 0.23501 0.60296 0.76552 0.0
N648 N 0.24953 0.64304 0.73995 0.0
N649 N 0.28834 0.54388 0.78698 0.0
C650 C 0.2574 0.62361 0.75659 0.0
C651 C 0.27784 0.57234 0.78073 0.0
N652 N 0.30699 0.6486 0.76269 0.0
N653 N 0.22523 0.5618 0.79161 0.0
H654 H 0.31199 0.53842 0.78767 0.0
H655 H 0.27351 0.52497 0.78901 0.0
H656 H 0.2018 0.56742 0.79321 0.0
H657 H 0.23264 0.5453 0.80286 0.0
H658 H 0.29886 0.66947 0.75637 0.0
H659 H 0.32926 0.6501 0.76939 0.0
H660 H 0.26586 0.65671 0.7319 0.0
H661 H 0.22774 0.64262 0.73241 0.0
C662 C 0.40405 0.79352 0.04501 0.0
C663 C 0.40005 0.81382 0.02703 0.0
C664 C 0.3861 0.76945 0.00354 0.0
C665 C 0.38974 0.74935 0.02173 0.0
N666 N 0.40312 0.7422 0.05982 0.0
N667 N 0.38372 0.8223 0.98992 0.0
C668 C 0.39902 0.7614 0.04236 0.0
C669 C 0.38998 0.8021 0.00648 0.0
N670 N 0.41215 0.80418 0.06525 0.0
N671 N 0.38085 0.75712 0.98322 0.0
H672 H 0.38764 0.84609 0.99125 0.0
H673 H 0.37293 0.81597 0.97533 0.0
H674 H 0.37836 0.73341 0.98035 0.0
H675 H 0.38123 0.76991 0.96888 0.0
H676 H 0.41573 0.82746 0.06924 0.0
H677 H 0.41573 0.82746 0.06924 0.0
H678 H 0.40983 0.75028 0.07523 0.0
H679 H 0.40004 0.71829 0.05898 0.0
C680 C 0.21796 0.62713 0.96279 0.0
C681 C 0.1966 0.61953 0.97964 0.0
C682 C 0.23685 0.62932 0.00733 0.0
C683 C 0.25756 0.63895 0.99059 0.0
N684 N 0.26762 0.64997 0.95273 0.0
N685 N 0.18383 0.61674 0.01785 0.0
C686 C 0.24801 0.63879 0.9684 0.0
C687 C 0.20556 0.62147 0.0019 0.0
N688 N 0.20974 0.62232 0.94143 0.0
N689 N 0.24722 0.62737 0.02842 0.0
H690 H 0.16092 0.61021 0.01446 0.0
H691 H 0.18771 0.62128 0.03434 0.0
H692 H 0.26935 0.6345 0.03331 0.0
H693 H 0.23465 0.61699 0.04092 0.0
H694 H 0.22516 0.62413 0.92842 0.0
H695 H 0.18781 0.6143 0.93669 0.0
H696 H 0.26104 0.65375 0.9366 0.0
H697 H 0.29026 0.65736 0.95612 0.0
C698 C 0.41138 0.72539 0.21096 0.0
C699 C 0.4131 0.70416 0.22858 0.0
C700 C 0.40969 0.74707 0.25496 0.0
C701 C 0.40628 0.76801 0.23735 0.0
N702 N 0.39942 0.77747 0.19886 0.0
N703 N 0.41043 0.69351 0.26709 0.0
C704 C 0.40593 0.75727 0.21541 0.0
C705 C 0.41125 0.71465 0.25055 0.0
N706 N 0.41552 0.71508 0.18998 0.0
N707 N 0.41217 0.75834 0.27582 0.0
H708 H 0.41249 0.66971 0.26441 0.0
H709 H 0.40581 0.69921 0.2833 0.0
H710 H 0.41055 0.7819 0.27955 0.0
H711 H 0.4178 0.74479 0.28926 0.0
H712 H 0.41842 0.72971 0.17668 0.0
H713 H 0.41812 0.69174 0.18586 0.0
H714 H 0.39516 0.77064 0.1828 0.0
H715 H 0.39596 0.80115 0.20138 0.0
C716 C 0.28614 0.90816 0.46233 0.0
C717 C 0.30682 0.91291 0.48018 0.0
C718 C 0.26319 0.90775 0.50587 0.0
C719 C 0.24287 0.90265 0.48787 0.0
N720 N 0.23472 0.89702 0.44896 0.0
N721 N 0.31647 0.91412 0.51892 0.0
C722 C 0.25432 0.90249 0.4662 0.0
C723 C 0.29572 0.91186 0.50201 0.0
N724 N 0.29612 0.90868 0.4412 0.0
N725 N 0.25111 0.90945 0.52649 0.0
H726 H 0.34022 0.91788 0.51654 0.0
H727 H 0.31072 0.91073 0.53523 0.0
H728 H 0.22758 0.9057 0.52978 0.0
H729 H 0.26379 0.91596 0.54026 0.0
H730 H 0.3191 0.9126 0.43643 0.0
H731 H 0.3191 0.9126 0.43643 0.0
H732 H 0.24233 0.89686 0.43278 0.0
H733 H 0.21105 0.89228 0.45079 0.0
C734 C 0.10112 0.78835 0.75005 0.0
C735 C 0.10874 0.79936 0.72893 0.0
C736 C 0.13423 0.74987 0.72026 0.0
C737 C 0.12787 0.73933 0.74168 0.0
N738 N 0.11133 0.7507 0.77845 0.0
N739 N 0.13518 0.79073 0.6943 0.0
C740 C 0.11287 0.75914 0.757 0.0
C741 C 0.12606 0.78039 0.71428 0.0
N742 N 0.08184 0.80537 0.7632 0.0
N743 N 0.14796 0.73071 0.70525 0.0
H744 H 0.13093 0.81301 0.68845 0.0
H745 H 0.13093 0.81301 0.68845 0.0
H746 H 0.15361 0.70768 0.70843 0.0
H747 H 0.15287 0.73776 0.68934 0.0
H748 H 0.07254 0.7971 0.77773 0.0
H749 H 0.07306 0.82697 0.75874 0.0
H750 H 0.10352 0.76531 0.79087 0.0
H751 H 0.12085 0.7301 0.78423 0.0
C752 C 0.71751 0.40879 0.75232 0.0
C753 C 0.7064 0.40532 0.77396 0.0
C754 C 0.75563 0.38069 0.78473 0.0
C755 C 0.76629 0.38291 0.76293 0.0
N756 N 0.75607 0.39462 0.7251 0.0
N757 N 0.71543 0.38762 0.81109 0.0
C758 C 0.74693 0.39593 0.74648 0.0
C759 C 0.72539 0.39117 0.79013 0.0
N760 N 0.70022 0.42504 0.73751 0.0
N761 N 0.77445 0.36876 0.80062 0.0
H762 H 0.69364 0.39467 0.81678 0.0
H763 H 0.69364 0.39467 0.81678 0.0
H764 H 0.79714 0.36122 0.79764 0.0
H765 H 0.76739 0.36688 0.81687 0.0
H766 H 0.70837 0.43161 0.72222 0.0
H767 H 0.67824 0.43401 0.74106 0.0
H768 H 0.74177 0.4005 0.71202 0.0
H769 H 0.77726 0.38521 0.72014 0.0
C770 C 0.58949 0.23224 0.0274 0.0
C771 C 0.61128 0.20757 0.02658 0.0
C772 C 0.64803 0.24177 0.00788 0.0
C773 C 0.62825 0.26754 0.01195 0.0
N774 N 0.58345 0.2875 0.03153 0.0
N775 N 0.66486 0.19191 0.02105 0.0
C776 C 0.59982 0.2629 0.02336 0.0
C777 C 0.64163 0.21315 0.01825 0.0
N778 N 0.55881 0.22648 0.03155 0.0
N779 N 0.67208 0.24391 0.9934 0.0
H780 H 0.66188 0.1714 0.02971 0.0
H781 H 0.68796 0.19641 0.01692 0.0
H782 H 0.67633 0.26359 0.98409 0.0
H783 H 0.68535 0.22479 0.98867 0.0
H784 H 0.5417 0.24353 0.03046 0.0
H785 H 0.55006 0.20414 0.03365 0.0
H786 H 0.56397 0.28481 0.04148 0.0
H787 H 0.59145 0.31028 0.03085 0.0
C788 C 0.80678 0.0979 0.26045 0.0
C789 C 0.82126 0.11174 0.27893 0.0
C790 C 0.77204 0.13706 0.28909 0.0
C791 C 0.75755 0.12297 0.27068 0.0
N792 N 0.76179 0.09586 0.23636 0.0
N793 N 0.81946 0.14704 0.30965 0.0
C794 C 0.77515 0.10503 0.25564 0.0
C795 C 0.80442 0.13224 0.29283 0.0
N796 N 0.82319 0.07751 0.24774 0.0
N797 N 0.75453 0.154 0.30348 0.0
H798 H 0.84246 0.14245 0.31401 0.0
H799 H 0.80985 0.16504 0.31876 0.0
H800 H 0.73139 0.15989 0.30057 0.0
H801 H 0.76231 0.16138 0.31874 0.0
H802 H 0.81318 0.06373 0.23562 0.0
H803 H 0.84683 0.07304 0.25007 0.0
H804 H 0.7739 0.08523 0.22366 0.0
H805 H 0.73891 0.10139 0.23221 0.0
C806 C 0.88852 0.30294 0.50253 0.0
C807 C 0.89029 0.31247 0.52472 0.0
C808 C 0.87497 0.26045 0.53663 0.0
C809 C 0.87283 0.25094 0.51453 0.0
N810 N 0.8726 0.26355 0.47624 0.0
N811 N 0.88419 0.29997 0.56318 0.0
C812 C 0.87827 0.27232 0.49739 0.0
C813 C 0.88314 0.29136 0.54173 0.0
N814 N 0.89755 0.32292 0.48647 0.0
N815 N 0.86926 0.2399 0.55305 0.0
H816 H 0.88991 0.32219 0.56871 0.0
H817 H 0.88991 0.32219 0.56871 0.0
H818 H 0.86288 0.2169 0.55019 0.0
H819 H 0.87091 0.24602 0.56954 0.0
H820 H 0.90016 0.31661 0.47015 0.0
H821 H 0.9044 0.3457 0.48965 0.0
H822 H 0.87294 0.27865 0.46307 0.0
H823 H 0.86516 0.24133 0.47194 0.0
C824 C 0.7197 0.12433 0.4895 0.0
C825 C 0.71059 0.09848 0.47648 0.0
C826 C 0.76542 0.08579 0.47076 0.0
C827 C 0.77451 0.10918 0.486 0.0
N828 N 0.75794 0.14361 0.51515 0.0
N829 N 0.72532 0.04893 0.46116 0.0
C830 C 0.75096 0.12631 0.49705 0.0
C831 C 0.73365 0.07725 0.46934 0.0
N832 N 0.69936 0.14791 0.49375 0.0
N833 N 0.78628 0.07321 0.45641 0.0
H834 H 0.70223 0.04139 0.46071 0.0
H835 H 0.74164 0.03189 0.45725 0.0
H836 H 0.80909 0.08102 0.45481 0.0
H837 H 0.77961 0.05788 0.44403 0.0
H838 H 0.70618 0.16838 0.50154 0.0
H839 H 0.67682 0.14863 0.48748 0.0
H840 H 0.74089 0.15456 0.52453 0.0
H841 H 0.77995 0.14373 0.52237 0.0
C842 C 0.89989 0.22425 0.70566 0.0
C843 C 0.90453 0.20471 0.72394 0.0
C844 C 0.89593 0.24908 0.74853 0.0
C845 C 0.89506 0.26904 0.73015 0.0
N846 N 0.90275 0.27622 0.69141 0.0
N847 N 0.91111 0.1989 0.76281 0.0
C848 C 0.899 0.25681 0.70877 0.0
C849 C 0.90347 0.21717 0.74544 0.0
N850 N 0.89522 0.21165 0.68536 0.0
N851 N 0.88998 0.26065 0.76893 0.0
H852 H 0.91706 0.17558 0.76114 0.0
H853 H 0.91405 0.20734 0.77865 0.0
H854 H 0.88616 0.28413 0.77203 0.0
H855 H 0.88682 0.24675 0.7826 0.0
H856 H 0.88855 0.2247 0.67187 0.0
H857 H 0.89474 0.18782 0.68243 0.0
H858 H 0.90896 0.26849 0.67587 0.0
H859 H 0.90261 0.30026 0.69292 0.0
C860 C 0.7746 0.43369 0.96316 0.0
C861 C 0.79749 0.41428 0.97259 0.0
C862 C 0.75649 0.38928 0.99409 0.0
C863 C 0.73333 0.40447 0.98141 0.0
N864 N 0.72222 0.43552 0.94932 0.0
N865 N 0.80899 0.36908 0.99439 0.0
C866 C 0.74282 0.42531 0.96473 0.0
C867 C 0.78819 0.39084 0.98743 0.0
N868 N 0.78315 0.4602 0.95266 0.0
N869 N 0.74863 0.37433 0.01289 0.0
H870 H 0.83213 0.36851 0.98935 0.0
H871 H 0.80237 0.34982 0.00348 0.0
H872 H 0.72609 0.37428 0.01916 0.0
H873 H 0.76517 0.3652 0.02355 0.0
H874 H 0.76699 0.47635 0.94706 0.0
H875 H 0.80625 0.46759 0.95181 0.0
H876 H 0.72911 0.44855 0.93588 0.0
H877 H 0.69929 0.42784 0.9482 0.0
C878 C 0.62046 0.2989 0.2503 0.0
C879 C 0.6204 0.30702 0.22787 0.0
C880 C 0.64158 0.25603 0.21804 0.0
C881 C 0.64112 0.24757 0.24034 0.0
N882 N 0.62737 0.25898 0.27773 0.0
N883 N 0.63031 0.29246 0.19007 0.0
C884 C 0.62969 0.26845 0.2565 0.0
C885 C 0.63066 0.28552 0.21176 0.0
N886 N 0.61281 0.32076 0.26566 0.0
N887 N 0.65181 0.2356 0.20249 0.0
H888 H 0.62239 0.3134 0.18367 0.0
H889 H 0.62239 0.3134 0.18367 0.0
H890 H 0.65964 0.21333 0.20612 0.0
H891 H 0.65233 0.24102 0.18589 0.0
H892 H 0.61553 0.31775 0.28239 0.0
H893 H 0.60532 0.34299 0.26162 0.0
H894 H 0.61599 0.27146 0.2899 0.0
H895 H 0.63556 0.23761 0.28313 0.0
C896 C 0.11578 0.85416 0.40296 0.0
C897 C 0.11349 0.88538 0.39604 0.0
C898 C 0.13228 0.90292 0.43174 0.0
C899 C 0.13205 0.87188 0.43936 0.0
N900 N 0.11325 0.81956 0.43373 0.0
N901 N 0.11116 0.93954 0.40588 0.0
C902 C 0.12075 0.8479 0.42542 0.0
C903 C 0.119 0.9098 0.41111 0.0
N904 N 0.11441 0.83046 0.3881 0.0
N905 N 0.14685 0.92564 0.44343 0.0
H906 H 0.10068 0.94536 0.39107 0.0
H907 H 0.11203 0.95776 0.41712 0.0
H908 H 0.15856 0.92114 0.45784 0.0
H909 H 0.15038 0.94797 0.43752 0.0
H910 H 0.11914 0.80752 0.39219 0.0
H911 H 0.11157 0.83398 0.37138 0.0
H912 H 0.10256 0.80221 0.42447 0.0
H913 H 0.11395 0.81476 0.45039 0.0
C914 C 0.08843 0.6077 0.66348 0.0
C915 C 0.11233 0.61302 0.64799 0.0
C916 C 0.14912 0.62479 0.67758 0.0
C917 C 0.12465 0.6213 0.69293 0.0
N918 N 0.06956 0.61764 0.70006 0.0
N919 N 0.16324 0.63347 0.63979 0.0
C920 C 0.09382 0.61528 0.68573 0.0
C921 C 0.14204 0.62374 0.65489 0.0
N922 N 0.06106 0.59415 0.65714 0.0
N923 N 0.17926 0.62744 0.68455 0.0
H924 H 0.15876 0.63321 0.62303 0.0
H925 H 0.18404 0.64446 0.64395 0.0
H926 H 0.18558 0.62786 0.701 0.0
H927 H 0.19828 0.62657 0.67403 0.0
H928 H 0.04424 0.58669 0.66816 0.0
H929 H 0.05629 0.58773 0.64103 0.0
H930 H 0.0463 0.61649 0.69525 0.0
H931 H 0.07255 0.62402 0.7164 0.0
C932 C 0.42128 0.65386 0.91557 0.0
C933 C 0.40114 0.63538 0.90254 0.0
C934 C 0.36713 0.62687 0.9341 0.0
C935 C 0.38655 0.64651 0.94688 0.0
N936 N 0.42693 0.6854 0.94817 0.0
N937 N 0.35111 0.61082 0.89776 0.0
C938 C 0.41208 0.66206 0.93711 0.0
C939 C 0.37282 0.62395 0.91131 0.0
N940 N 0.44974 0.66254 0.90774 0.0
N941 N 0.34432 0.60971 0.94383 0.0
H942 H 0.35439 0.60854 0.88094 0.0
H943 H 0.32875 0.60495 0.90283 0.0
H944 H 0.33966 0.61067 0.96052 0.0
H945 H 0.33175 0.59252 0.93569 0.0
H946 H 0.46676 0.67303 0.91741 0.0
H947 H 0.4574 0.65696 0.89205 0.0
H948 H 0.44367 0.69958 0.94107 0.0
H949 H 0.4202 0.69275 0.96373 0.0
C950 C 0.41851 0.89782 0.165 0.0
C951 C 0.39466 0.90402 0.14961 0.0
C952 C 0.35569 0.89349 0.17767 0.0
C953 C 0.37927 0.88164 0.19164 0.0
N954 N 0.43333 0.86757 0.19625 0.0
N955 N 0.33995 0.90176 0.14027 0.0
C956 C 0.41083 0.88265 0.18476 0.0
C957 C 0.36302 0.90021 0.15562 0.0
N958 N 0.44844 0.90681 0.16093 0.0
N959 N 0.32668 0.89992 0.1856 0.0
H960 H 0.34426 0.90555 0.12375 0.0
H961 H 0.31686 0.89611 0.14366 0.0
H962 H 0.32111 0.89815 0.20211 0.0
H963 H 0.30955 0.91087 0.17636 0.0
H964 H 0.46615 0.90533 0.17255 0.0
H965 H 0.4548 0.91874 0.14686 0.0
H966 H 0.45615 0.86512 0.19074 0.0
H967 H 0.42827 0.85445 0.20989 0.0
C968 C 0.10103 0.64473 0.84769 0.0
C969 C 0.0997 0.61307 0.85372 0.0
C970 C 0.1202 0.59831 0.81788 0.0
C971 C 0.11906 0.62977 0.81122 0.0
N972 N 0.09759 0.68073 0.81779 0.0
N973 N 0.09976 0.55945 0.84233 0.0
C974 C 0.10619 0.65237 0.82552 0.0
C975 C 0.10658 0.58974 0.83806 0.0
N976 N 0.09884 0.66763 0.86312 0.0
N977 N 0.13587 0.57687 0.80574 0.0
H978 H 0.08903 0.55244 0.85676 0.0
H979 H 0.10173 0.5419 0.83065 0.0
H980 H 0.14767 0.58262 0.79158 0.0
H981 H 0.14003 0.55433 0.81102 0.0
H982 H 0.10274 0.69091 0.85959 0.0
H983 H 0.09638 0.66323 0.87975 0.0
H984 H 0.08588 0.69708 0.8273 0.0
H985 H 0.09842 0.68621 0.80124 0.0
C986 C 0.36972 0.64603 0.10314 0.0
C987 C 0.38504 0.61706 0.10507 0.0
C988 C 0.37454 0.60601 0.06651 0.0
C989 C 0.36308 0.63668 0.0638 0.0
N990 N 0.35396 0.68764 0.07929 0.0
N991 N 0.40676 0.57155 0.08791 0.0
C992 C 0.36169 0.65718 0.08206 0.0
C993 C 0.3889 0.59768 0.08654 0.0
N994 N 0.36203 0.66251 0.1215 0.0
N995 N 0.36994 0.58416 0.05057 0.0
H996 H 0.41758 0.5646 0.10234 0.0
H997 H 0.41309 0.55839 0.07431 0.0
H998 H 0.35744 0.58842 0.0363 0.0
H999 H 0.37522 0.5608 0.05265 0.0
H1000 H 0.34776 0.68202 0.12125 0.0
H1001 H 0.36749 0.65514 0.13724 0.0
H1002 H 0.35593 0.70422 0.09164 0.0
H1003 H 0.34869 0.69725 0.06417 0.0
C1004 C 0.40604 0.92026 0.33732 0.0
C1005 C 0.4005 0.89799 0.3538 0.0
C1006 C 0.38731 0.85916 0.32585 0.0
C1007 C 0.39116 0.882 0.30948 0.0
N1008 N 0.39616 0.93596 0.30005 0.0
N1009 N 0.37933 0.84851 0.36429 0.0
C1010 C 0.39808 0.9131 0.31536 0.0
C1011 C 0.38908 0.86809 0.34822 0.0
N1012 N 0.4201 0.94779 0.34246 0.0
N1013 N 0.38355 0.82873 0.32011 0.0
H1014 H 0.38021 0.85433 0.38084 0.0
H1015 H 0.36779 0.82772 0.36113 0.0
H1016 H 0.38226 0.82114 0.30394 0.0
H1017 H 0.38423 0.81068 0.33132 0.0
H1018 H 0.4278 0.96341 0.33074 0.0
H1019 H 0.42664 0.95388 0.35833 0.0
H1020 H 0.3979 0.95945 0.30386 0.0
H1021 H 0.38956 0.93168 0.2839 0.0
C1022 C 0.10586 0.87097 0.59115 0.0
C1023 C 0.11468 0.89862 0.60223 0.0
C1024 C 0.14245 0.91589 0.56963 0.0
C1025 C 0.12991 0.89051 0.55768 0.0
N1026 N 0.09513 0.84655 0.55624 0.0
N1027 N 0.13632 0.95025 0.60062 0.0
C1028 C 0.11045 0.86863 0.56821 0.0
C1029 C 0.13162 0.9219 0.5911 0.0
N1030 N 0.09395 0.84661 0.6026 0.0
N1031 N 0.16552 0.93366 0.56079 0.0
H1032 H 0.12799 0.95602 0.61611 0.0
H1033 H 0.14575 0.96902 0.59228 0.0
H1034 H 0.17493 0.92936 0.54537 0.0
H1035 H 0.17759 0.9505 0.56966 0.0
H1036 H 0.09011 0.82483 0.59567 0.0
H1037 H 0.09076 0.84725 0.61948 0.0
H1038 H 0.0782 0.83206 0.56282 0.0
H1039 H 0.09727 0.84447 0.53933 0.0
C1040 C 0.64191 0.38502 0.89903 0.0
C1041 C 0.61146 0.39648 0.8951 0.0
C1042 C 0.59577 0.38137 0.93189 0.0
C1043 C 0.62714 0.37352 0.93675 0.0
N1044 N 0.68129 0.3731 0.92597 0.0
N1045 N 0.56084 0.41073 0.90887 0.0
C1046 C 0.6506 0.37669 0.92059 0.0
C1047 C 0.58878 0.39619 0.91186 0.0
N1048 N 0.66225 0.38123 0.88207 0.0
N1049 N 0.57235 0.37319 0.94583 0.0
H1050 H 0.55486 0.42194 0.8944 0.0
H1051 H 0.54479 0.4141 0.9214 0.0
H1052 H 0.57613 0.36081 0.96016 0.0
H1053 H 0.54884 0.37565 0.94199 0.0
H1054 H 0.68353 0.36988 0.88362 0.0
H1055 H 0.65668 0.3868 0.86596 0.0
H1056 H 0.69945 0.37849 0.9154 0.0
H1057 H 0.68888 0.36781 0.94169 0.0
C1058 C 0.62409 0.13552 0.1635 0.0
C1059 C 0.6334 0.10693 0.15399 0.0
C1060 C 0.66099 0.09359 0.18766 0.0
C1061 C 0.64769 0.11984 0.19821 0.0
N1062 N 0.61223 0.16332 0.19687 0.0
N1063 N 0.65701 0.05653 0.15797 0.0
C1064 C 0.62822 0.14033 0.1863 0.0
C1065 C 0.65094 0.08535 0.1663 0.0
N1066 N 0.61187 0.15832 0.15068 0.0
N1067 N 0.68405 0.07712 0.19772 0.0
H1068 H 0.64985 0.04945 0.14244 0.0
H1069 H 0.66671 0.03875 0.16719 0.0
H1070 H 0.69278 0.08294 0.21311 0.0
H1071 H 0.69674 0.05975 0.1899 0.0
H1072 H 0.60767 0.18074 0.15634 0.0
H1073 H 0.60881 0.15576 0.13385 0.0
H1074 H 0.59531 0.17683 0.1893 0.0
H1075 H 0.61357 0.16704 0.21368 0.0
C1076 C 0.87265 0.13104 0.40481 0.0
C1077 C 0.90487 0.12628 0.40106 0.0
C1078 C 0.91669 0.14189 0.43868 0.0
C1079 C 0.88427 0.14409 0.44301 0.0
N1080 N 0.83115 0.13602 0.43133 0.0
N1081 N 0.95723 0.12199 0.41496 0.0
C1082 C 0.86214 0.1374 0.42637 0.0
C1083 C 0.9268 0.1301 0.41819 0.0
N1084 N 0.8522 0.13029 0.38766 0.0
N1085 N 0.93783 0.15273 0.45361 0.0
H1086 H 0.96561 0.1138 0.40002 0.0
H1087 H 0.97357 0.12094 0.42752 0.0
H1088 H 0.9315 0.16251 0.46857 0.0
H1089 H 0.96152 0.15484 0.45036 0.0
H1090 H 0.82901 0.13708 0.38892 0.0
H1091 H 0.85895 0.12518 0.37168 0.0
H1092 H 0.81424 0.12784 0.42053 0.0
H1093 H 0.82248 0.14043 0.44692 0.0
C1094 C 0.89531 0.42022 0.66592 0.0
C1095 C 0.88997 0.40117 0.6474 0.0
C1096 C 0.86598 0.3617 0.67054 0.0
C1097 C 0.86906 0.3819 0.68889 0.0
N1098 N 0.87832 0.43403 0.70224 0.0
N1099 N 0.86467 0.35679 0.63109 0.0
C1100 C 0.88152 0.41217 0.68614 0.0
C1101 C 0.87362 0.37279 0.64941 0.0
N1102 N 0.91392 0.44579 0.66429 0.0
N1103 N 0.85698 0.33158 0.67325 0.0
H1104 H 0.87 0.36402 0.6153 0.0
H1105 H 0.84961 0.33788 0.63143 0.0
H1106 H 0.85183 0.32196 0.68837 0.0
H1107 H 0.85771 0.31509 0.66078 0.0
H1108 H 0.92134 0.45859 0.67782 0.0
H1109 H 0.9242 0.45261 0.64965 0.0
H1110 H 0.88441 0.4572 0.70019 0.0
H1111 H 0.8661 0.43013 0.71666 0.0
C1112 C 0.64449 0.12771 0.35118 0.0
C1113 C 0.61268 0.13451 0.35519 0.0
C1114 C 0.60792 0.1574 0.31882 0.0
C1115 C 0.63887 0.14788 0.31409 0.0
N1116 N 0.68502 0.11978 0.32435 0.0
N1117 N 0.56282 0.15241 0.34241 0.0
C1118 C 0.65674 0.13189 0.32989 0.0
C1119 C 0.594 0.14848 0.3389 0.0
N1120 N 0.66322 0.11803 0.36791 0.0
N1121 N 0.59211 0.17561 0.30435 0.0
H1122 H 0.55206 0.14672 0.35711 0.0
H1123 H 0.54723 0.15921 0.33031 0.0
H1124 H 0.6012 0.18203 0.28927 0.0
H1125 H 0.57094 0.18624 0.30789 0.0
H1126 H 0.6873 0.116 0.3666 0.0
H1127 H 0.65512 0.11457 0.38376 0.0
H1128 H 0.69774 0.105 0.33435 0.0
H1129 H 0.6945 0.12232 0.30887 0.0
C1130 C 0.87305 0.0893 0.59137 0.0
C1131 C 0.88901 0.11108 0.60474 0.0
C1132 C 0.89501 0.14569 0.57335 0.0
C1133 C 0.87744 0.12463 0.56038 0.0
N1134 N 0.84225 0.08107 0.55874 0.0
N1135 N 0.90875 0.16297 0.60989 0.0
C1136 C 0.86413 0.09786 0.56994 0.0
C1137 C 0.89801 0.14025 0.59617 0.0
N1138 N 0.86762 0.05994 0.59872 0.0
N1139 N 0.91007 0.16997 0.56379 0.0
H1140 H 0.91092 0.15989 0.62671 0.0
H1141 H 0.9127 0.18567 0.60491 0.0
H1142 H 0.90869 0.17459 0.54712 0.0
H1143 H 0.9259 0.18409 0.57206 0.0
H1144 H 0.85905 0.04223 0.58874 0.0
H1145 H 0.87438 0.05236 0.61416 0.0
H1146 H 0.82958 0.0631 0.56574 0.0
H1147 H 0.83431 0.08725 0.54324 0.0
C1148 C 0.88093 0.39275 0.84128 0.0
C1149 C 0.90999 0.38299 0.84993 0.0
C1150 C 0.92234 0.35804 0.81501 0.0
C1151 C 0.89592 0.37238 0.8054 0.0
N1152 N 0.85218 0.40732 0.80893 0.0
N1153 N 0.96041 0.35963 0.84419 0.0
C1154 C 0.87558 0.39064 0.81842 0.0
C1155 C 0.93126 0.36639 0.8366 0.0
N1156 N 0.85816 0.40342 0.85496 0.0
N1157 N 0.93826 0.3356 0.80382 0.0
H1158 H 0.968 0.36564 0.85985 0.0
H1159 H 0.97791 0.35051 0.83431 0.0
H1160 H 0.93164 0.32788 0.78831 0.0
H1161 H 0.95585 0.32233 0.81085 0.0
H1162 H 0.83549 0.40793 0.84977 0.0
H1163 H 0.86097 0.40469 0.87187 0.0
H1164 H 0.83878 0.42346 0.81746 0.0
H1165 H 0.84798 0.40737 0.79216 0.0
C1166 C 0.58494 0.40462 0.08273 0.0
C1167 C 0.6087 0.40002 0.0985 0.0
C1168 C 0.64617 0.38875 0.06942 0.0
C1169 C 0.62182 0.39094 0.0538 0.0
N1170 N 0.56674 0.39346 0.04609 0.0
N1171 N 0.65996 0.38088 0.10736 0.0
C1172 C 0.59078 0.39666 0.0606 0.0
C1173 C 0.63875 0.38997 0.092 0.0
N1174 N 0.55723 0.41771 0.0887 0.0
N1175 N 0.6765 0.3871 0.06278 0.0
H1176 H 0.65524 0.38109 0.12407 0.0
H1177 H 0.68106 0.37035 0.10342 0.0
H1178 H 0.68307 0.38697 0.0464 0.0
H1179 H 0.6953 0.38881 0.0735 0.0
H1180 H 0.54041 0.42463 0.07746 0.0
H1181 H 0.55214 0.42427 0.10472 0.0
H1182 H 0.54341 0.39431 0.05069 0.0
H1183 H 0.57001 0.38676 0.02985 0.0
loop_
_geom_bond_atom_site_label_1
_geom_bond_atom_site_label_2
_geom_bond_distance
_geom_bond_site_symmetry_2
_ccdc_geom_bond_type
H0 C27 0.929 . S
N1 C26 1.433 . S
N1 C32 1.435 . S
N1 C38 1.423 . S
H2 C28 0.930 . S
H3 C31 0.931 . S
H4 C30 0.929 . S
H5 C33 0.930 . S
H6 C34 0.932 . S
H7 C37 0.929 . S
H8 C36 0.931 . S
H9 C39 0.929 . S
H10 C43 0.932 . S
H11 C40 0.931 . S
H12 C42 0.929 . S
H13 C45 0.929 . S
H14 C46 0.930 . S
H15 C48 0.929 . S
H16 C49 0.931 . S
H17 C51 0.930 . S
H18 C52 0.932 . S
H19 C54 0.931 . S
H20 C55 0.929 . S
H21 C57 0.929 . S
H22 C58 0.943 . S
H23 C60 0.929 . S
N24 C44 1.433 . S
N24 C50 1.435 . S
N24 C56 1.423 . S
H25 C61 0.932 . S
C26 N1 1.433 . S
C26 C27 1.363 . S
C26 C31 1.370 . S
C27 H0 0.929 . S
C27 C26 1.363 . S
C27 C28 1.385 . S
C28 H2 0.930 . S
C28 C27 1.385 . S
C28 C29 1.357 . S
C29 C28 1.357 . S
C29 C30 1.406 . S
C30 H4 0.929 . S
C30 C29 1.406 . S
C30 C31 1.391 . S
C31 H3 0.931 . S
C31 C26 1.370 . S
C31 C30 1.391 . S
C32 N1 1.435 . S
C32 C33 1.358 . S
C32 C37 1.371 . S
C33 H5 0.930 . S
C33 C32 1.358 . S
C33 C34 1.405 . S
C34 H6 0.932 . S
C34 C33 1.405 . S
C34 C35 1.383 . S
C35 C34 1.383 . S
C35 C36 1.393 . S
C36 H8 0.931 . S
C36 C35 1.393 . S
C36 C37 1.382 . S
C37 H7 0.929 . S
C37 C32 1.371 . S
C37 C36 1.382 . S
C38 N1 1.423 . S
C38 C39 1.362 . S
C38 C43 1.388 . S
C39 H9 0.929 . S
C39 C38 1.362 . S
C39 C40 1.376 1_565 S
C40 H11 0.931 . S
C40 C39 1.376 1_545 S
C40 C41 1.396 . S
C41 C40 1.396 . S
C41 C42 1.348 1_545 S
C41 C59 1.472 . S
C42 H12 0.929 . S
C42 C41 1.348 1_565 S
C42 C43 1.443 . S
C43 H10 0.932 . S
C43 C38 1.388 . S
C43 C42 1.443 . S
C44 N24 1.433 . S
C44 C45 1.363 . S
C44 C49 1.370 . S
C45 H13 0.929 . S
C45 C44 1.363 . S
C45 C46 1.385 . S
C46 H14 0.930 . S
C46 C45 1.385 . S
C46 C47 1.357 . S
C47 C46 1.357 . S
C47 C48 1.406 . S
C48 H15 0.929 . S
C48 C47 1.406 . S
C48 C49 1.391 . S
C49 H16 0.931 . S
C49 C44 1.370 . S
C49 C48 1.391 . S
C50 N24 1.435 . S
C50 C51 1.358 . S
C50 C55 1.371 . S
C51 H17 0.930 . S
C51 C50 1.358 . S
C51 C52 1.405 . S
C52 H18 0.932 . S
C52 C51 1.405 . S
C52 C53 1.383 . S
C53 C52 1.383 . S
C53 C54 1.393 . S
C54 H19 0.931 . S
C54 C53 1.393 . S
C54 C55 1.382 . S
C55 H20 0.929 . S
C55 C50 1.371 . S
C55 C54 1.382 . S
C56 N24 1.423 . S
C56 C57 1.362 . S
C56 C61 1.388 . S
C57 H21 0.929 . S
C57 C56 1.362 . S
C57 C58 1.364 1_655 S
C58 H22 0.943 . S
C58 C57 1.364 1_455 S
C58 C59 1.398 . S
C59 C41 1.472 . S
C59 C58 1.398 . S
C59 C60 1.348 1_455 S
C60 H23 0.929 . S
C60 C59 1.348 1_655 S
C60 C61 1.443 . S
C61 H25 0.932 . S
C61 C56 1.388 . S
C61 C60 1.443 . S
H62 C89 0.929 . S
N63 C88 1.433 . S
N63 C94 1.435 . S
N63 C100 1.423 . S
H64 C90 0.930 . S
H65 C93 0.931 . S
H66 C92 0.929 . S
H67 C95 0.930 . S
H68 C96 0.932 . S
H69 C99 0.929 . S
H70 C98 0.931 . S
H71 C101 0.929 . S
H72 C105 0.932 . S
H73 C102 0.931 . S
H74 C104 0.929 . S
H75 C107 0.929 . S
H76 C108 0.930 . S
H77 C110 0.929 . S
H78 C111 0.931 . S
H79 C113 0.930 . S
H80 C114 0.932 . S
H81 C116 0.931 . S
H82 C117 0.929 . S
H83 C119 0.929 . S
H84 C120 0.931 . S
H85 C122 0.929 . S
N86 C106 1.433 . S
N86 C112 1.435 . S
N86 C118 1.423 . S
H87 C123 0.932 . S
C88 N63 1.433 . S
C88 C89 1.363 . S
C88 C93 1.370 . S
C89 H62 0.929 . S
C89 C88 1.363 . S
C89 C90 1.385 . S
C90 H64 0.930 . S
C90 C89 1.385 . S
C90 C91 1.357 . S
C91 C90 1.357 . S
C91 C92 1.406 . S
C92 H66 0.929 . S
C92 C91 1.406 . S
C92 C93 1.391 . S
C93 H65 0.931 . S
C93 C88 1.370 . S
C93 C92 1.391 . S
C94 N63 1.435 . S
C94 C95 1.358 . S
C94 C99 1.371 . S
C95 H67 0.930 . S
C95 C94 1.358 . S
C95 C96 1.405 . S
C96 H68 0.932 . S
C96 C95 1.405 . S
C96 C97 1.383 . S
C97 C96 1.383 . S
C97 C98 1.393 . S
C98 H70 0.931 . S
C98 C97 1.393 . S
C98 C99 1.382 . S
C99 H69 0.929 . S
C99 C94 1.371 . S
C99 C98 1.382 . S
C100 N63 1.423 . S
C100 C101 1.362 . S
C100 C105 1.388 . S
C101 H71 0.929 . S
C101 C100 1.362 . S
C101 C102 1.376 1_655 S
C102 H73 0.931 . S
C102 C101 1.376 1_455 S
C102 C103 1.396 . S
C103 C102 1.396 . S
C103 C104 1.348 1_455 S
C103 C121 1.472 . S
C104 H74 0.929 . S
C104 C103 1.348 1_655 S
C104 C105 1.443 . S
C105 H72 0.932 . S
C105 C100 1.388 . S
C105 C104 1.443 . S
C106 N86 1.433 . S
C106 C107 1.363 . S
C106 C111 1.370 . S
C107 H75 0.929 . S
C107 C106 1.363 . S
C107 C108 1.385 . S
C108 H76 0.930 . S
C108 C107 1.385 . S
C108 C109 1.357 . S
C109 C108 1.357 . S
C109 C110 1.406 . S
C110 H77 0.929 . S
C110 C109 1.406 . S
C110 C111 1.391 . S
C111 H78 0.931 . S
C111 C106 1.370 . S
C111 C110 1.391 . S
C112 N86 1.435 . S
C112 C113 1.358 . S
C112 C117 1.371 . S
C113 H79 0.930 . S
C113 C112 1.358 . S
C113 C114 1.405 . S
C114 H80 0.932 . S
C114 C113 1.405 . S
C114 C115 1.383 . S
C115 C114 1.383 . S
C115 C116 1.393 . S
C116 H81 0.931 . S
C116 C115 1.393 . S
C116 C117 1.382 . S
C117 H82 0.929 . S
C117 C112 1.371 . S
C117 C116 1.382 . S
C118 N86 1.423 . S
C118 C119 1.362 . S
C118 C123 1.388 . S
C119 H83 0.929 . S
C119 C118 1.362 . S
C119 C120 1.376 . S
C120 H84 0.931 . S
C120 C119 1.376 . S
C120 C121 1.396 . S
C121 C103 1.472 . S
C121 C120 1.396 . S
C121 C122 1.348 . S
C122 H85 0.929 . S
C122 C121 1.348 . S
C122 C123 1.443 . S
C123 H87 0.932 . S
C123 C118 1.388 . S
C123 C122 1.443 . S
H124 C151 0.929 . S
N125 C150 1.433 . S
N125 C156 1.435 . S
N125 C162 1.423 . S
H126 C152 0.930 . S
H127 C155 0.931 . S
H128 C154 0.929 . S
H129 C157 0.930 . S
H130 C158 0.932 . S
H131 C161 0.929 . S
H132 C160 0.931 . S
H133 C163 0.929 . S
H134 C167 0.932 . S
H135 C164 0.931 . S
H136 C166 0.929 . S
H137 C169 0.929 . S
H138 C170 0.930 . S
H139 C172 0.929 . S
H140 C173 0.931 . S
H141 C175 0.930 . S
H142 C176 0.932 . S
H143 C178 0.931 . S
H144 C179 0.929 . S
H145 C181 0.929 . S
H146 C182 0.931 . S
H147 C184 0.929 . S
N148 C168 1.433 . S
N148 C174 1.435 . S
N148 C180 1.423 . S
H149 C185 0.932 . S
C150 N125 1.433 . S
C150 C151 1.363 . S
C150 C155 1.370 . S
C151 H124 0.929 . S
C151 C150 1.363 . S
C151 C152 1.385 . S
C152 H126 0.930 . S
C152 C151 1.385 . S
C152 C153 1.357 . S
C153 C152 1.357 . S
C153 C154 1.406 . S
C154 H128 0.929 . S
C154 C153 1.406 . S
C154 C155 1.391 . S
C155 H127 0.931 . S
C155 C150 1.370 . S
C155 C154 1.391 . S
C156 N125 1.435 . S
C156 C157 1.358 . S
C156 C161 1.371 . S
C157 H129 0.930 . S
C157 C156 1.358 . S
C157 C158 1.405 . S
C158 H130 0.932 . S
C158 C157 1.405 . S
C158 C159 1.383 . S
C159 C158 1.383 . S
C159 C160 1.393 . S
C160 H132 0.931 . S
C160 C159 1.393 . S
C160 C161 1.382 . S
C161 H131 0.929 . S
C161 C156 1.371 . S
C161 C160 1.382 . S
C162 N125 1.423 . S
C162 C163 1.362 . S
C162 C167 1.388 . S
C163 H133 0.929 . S
C163 C162 1.362 . S
C163 C164 1.376 . S
C164 H135 0.931 . S
C164 C163 1.376 . S
C164 C165 1.396 . S
C165 C164 1.396 . S
C165 C166 1.348 . S
C165 C183 1.472 . S
C166 H136 0.929 . S
C166 C165 1.348 . S
C166 C167 1.443 . S
C167 H134 0.932 . S
C167 C162 1.388 . S
C167 C166 1.443 . S
C168 N148 1.433 . S
C168 C169 1.363 . S
C168 C173 1.370 . S
C169 H137 0.929 . S
C169 C168 1.363 . S
C169 C170 1.385 . S
C170 H138 0.930 . S
C170 C169 1.385 . S
C170 C171 1.357 . S
C171 C170 1.357 . S
C171 C172 1.406 . S
C172 H139 0.929 . S
C172 C171 1.406 . S
C172 C173 1.391 . S
C173 H140 0.931 . S
C173 C168 1.370 . S
C173 C172 1.391 . S
C174 N148 1.435 . S
C174 C175 1.358 . S
C174 C179 1.371 . S
C175 H141 0.930 . S
C175 C174 1.358 . S
C175 C176 1.405 . S
C176 H142 0.932 . S
C176 C175 1.405 . S
C176 C177 1.383 . S
C177 C176 1.383 . S
C177 C178 1.393 . S
C178 H143 0.931 . S
C178 C177 1.393 . S
C178 C179 1.382 . S
C179 H144 0.929 . S
C179 C174 1.371 . S
C179 C178 1.382 . S
C180 N148 1.423 . S
C180 C181 1.362 . S
C180 C185 1.388 . S
C181 H145 0.929 . S
C181 C180 1.362 . S
C181 C182 1.376 . S
C182 H146 0.931 . S
C182 C181 1.376 . S
C182 C183 1.396 . S
C183 C165 1.472 . S
C183 C182 1.396 . S
C183 C184 1.348 . S
C184 H147 0.929 . S
C184 C183 1.348 . S
C184 C185 1.443 . S
C185 H149 0.932 . S
C185 C180 1.388 . S
C185 C184 1.443 . S
H186 C213 0.929 . S
N187 C212 1.433 . S
N187 C218 1.435 . S
N187 C224 1.423 . S
H188 C214 0.930 . S
H189 C217 0.931 . S
H190 C216 0.929 . S
H191 C219 0.930 . S
H192 C220 0.932 . S
H193 C223 0.929 . S
H194 C222 0.931 1_556 S
H195 C225 0.929 . S
H196 C229 0.932 . S
H197 C226 0.931 . S
H198 C228 0.929 . S
H199 C231 0.929 . S
H200 C232 0.930 . S
H201 C234 0.929 . S
H202 C235 0.931 . S
H203 C237 0.930 . S
H204 C238 0.932 . S
H205 C240 0.931 1_556 S
H206 C241 0.929 . S
H207 C243 0.929 . S
H208 C244 0.931 1_565 S
H209 C246 0.929 . S
N210 C230 1.433 . S
N210 C236 1.435 . S
N210 C242 1.423 . S
H211 C247 0.932 . S
C212 N187 1.433 . S
C212 C213 1.363 . S
C212 C217 1.370 . S
C213 H186 0.929 . S
C213 C212 1.363 . S
C213 C214 1.385 . S
C214 H188 0.930 . S
C214 C213 1.385 . S
C214 C215 1.357 . S
C215 C214 1.357 . S
C215 C216 1.406 . S
C216 H190 0.929 . S
C216 C215 1.406 . S
C216 C217 1.391 . S
C217 H189 0.931 . S
C217 C212 1.370 . S
C217 C216 1.391 . S
C218 N187 1.435 . S
C218 C219 1.358 . S
C218 C223 1.371 . S
C219 H191 0.930 . S
C219 C218 1.358 . S
C219 C220 1.405 . S
C220 H192 0.932 . S
C220 C219 1.405 . S
C220 C221 1.383 . S
C221 C220 1.383 . S
C221 C222 1.393 . S
C222 H194 0.931 1_554 S
C222 C221 1.393 . S
C222 C223 1.382 . S
C223 H193 0.929 . S
C223 C218 1.371 . S
C223 C222 1.382 . S
C224 N187 1.423 . S
C224 C225 1.362 . S
C224 C229 1.388 . S
C225 H195 0.929 . S
C225 C224 1.362 . S
C225 C226 1.376 . S
C226 H197 0.931 . S
C226 C225 1.376 . S
C226 C227 1.396 . S
C227 C226 1.396 . S
C227 C228 1.348 . S
C227 C245 1.472 1_565 S
C228 H198 0.929 . S
C228 C227 1.348 . S
C228 C229 1.443 . S
C229 H196 0.932 . S
C229 C224 1.388 . S
C229 C228 1.443 . S
C230 N210 1.433 . S
C230 C231 1.363 . S
C230 C235 1.370 . S
C231 H199 0.929 . S
C231 C230 1.363 . S
C231 C232 1.385 . S
C232 H200 0.930 . S
C232 C231 1.385 . S
C232 C233 1.357 . S
C233 C232 1.357 . S
C233 C234 1.406 . S
C234 H201 0.929 . S
C234 C233 1.406 . S
C234 C235 1.391 . S
C235 H202 0.931 . S
C235 C230 1.370 . S
C235 C234 1.391 . S
C236 N210 1.435 . S
C236 C237 1.358 . S
C236 C241 1.371 . S
C237 H203 0.930 . S
C237 C236 1.358 . S
C237 C238 1.405 . S
C238 H204 0.932 . S
C238 C237 1.405 . S
C238 C239 1.383 . S
C239 C238 1.383 . S
C239 C240 1.393 . S
C240 H205 0.931 1_554 S
C240 C239 1.393 . S
C240 C241 1.382 . S
C241 H206 0.929 . S
C241 C236 1.371 . S
C241 C240 1.382 . S
C242 N210 1.423 . S
C242 C243 1.362 . S
C242 C247 1.388 . S
C243 H207 0.929 . S
C243 C242 1.362 . S
C243 C244 1.376 . S
C244 H208 0.931 1_545 S
C244 C243 1.376 . S
C244 C245 1.396 . S
C245 C227 1.472 1_545 S
C245 C244 1.396 . S
C245 C246 1.348 . S
C246 H209 0.929 . S
C246 C245 1.348 . S
C246 C247 1.443 . S
C247 H211 0.932 . S
C247 C242 1.388 . S
C247 C246 1.443 . S
H248 C275 0.929 . S
N249 C274 1.433 . S
N249 C280 1.435 . S
N249 C286 1.423 . S
H250 C276 0.930 . S
H251 C279 0.931 . S
H252 C278 0.929 . S
H253 C281 0.930 . S
H254 C282 0.932 . S
H255 C285 0.929 . S
H256 C284 0.931 1_554 S
H257 C287 0.929 . S
H258 C291 0.932 . S
H259 C288 0.931 . S
H260 C290 0.929 . S
H261 C293 0.929 . S
H262 C294 0.930 . S
H263 C296 0.929 . S
H264 C297 0.931 . S
H265 C299 0.930 . S
H266 C300 0.932 . S
H267 C302 0.931 1_554 S
H268 C303 0.929 . S
H269 C305 0.929 . S
H270 C306 0.931 1_455 S
H271 C308 0.929 . S
N272 C292 1.433 . S
N272 C298 1.435 . S
N272 C304 1.423 . S
H273 C309 0.932 . S
C274 N249 1.433 . S
C274 C275 1.363 . S
C274 C279 1.370 . S
C275 H248 0.929 . S
C275 C274 1.363 . S
C275 C276 1.385 . S
C276 H250 0.930 . S
C276 C275 1.385 . S
C276 C277 1.357 . S
C277 C276 1.357 . S
C277 C278 1.406 . S
C278 H252 0.929 . S
C278 C277 1.406 . S
C278 C279 1.391 . S
C279 H251 0.931 . S
C279 C274 1.370 . S
C279 C278 1.391 . S
C280 N249 1.435 . S
C280 C281 1.358 . S
C280 C285 1.371 . S
C281 H253 0.930 . S
C281 C280 1.358 . S
C281 C282 1.405 . S
C282 H254 0.932 . S
C282 C281 1.405 . S
C282 C283 1.383 . S
C283 C282 1.383 . S
C283 C284 1.393 . S
C284 H256 0.931 1_556 S
C284 C283 1.393 . S
C284 C285 1.382 . S
C285 H255 0.929 . S
C285 C280 1.371 . S
C285 C284 1.382 . S
C286 N249 1.423 . S
C286 C287 1.362 . S
C286 C291 1.388 . S
C287 H257 0.929 . S
C287 C286 1.362 . S
C287 C288 1.376 . S
C288 H259 0.931 . S
C288 C287 1.376 . S
C288 C289 1.396 . S
C289 C288 1.396 . S
C289 C290 1.348 . S
C289 C307 1.472 . S
C290 H260 0.929 . S
C290 C289 1.348 . S
C290 C291 1.443 . S
C291 H258 0.932 . S
C291 C286 1.388 . S
C291 C290 1.443 . S
C292 N272 1.433 . S
C292 C293 1.363 . S
C292 C297 1.370 . S
C293 H261 0.929 . S
C293 C292 1.363 . S
C293 C294 1.385 . S
C294 H262 0.930 . S
C294 C293 1.385 . S
C294 C295 1.357 . S
C295 C294 1.357 . S
C295 C296 1.406 . S
C296 H263 0.929 . S
C296 C295 1.406 . S
C296 C297 1.391 . S
C297 H264 0.931 . S
C297 C292 1.370 . S
C297 C296 1.391 . S
C298 N272 1.435 . S
C298 C299 1.358 . S
C298 C303 1.371 . S
C299 H265 0.930 . S
C299 C298 1.358 . S
C299 C300 1.405 . S
C300 H266 0.932 . S
C300 C299 1.405 . S
C300 C301 1.383 . S
C301 C300 1.383 . S
C301 C302 1.393 . S
C302 H267 0.931 1_556 S
C302 C301 1.393 . S
C302 C303 1.382 . S
C303 H268 0.929 . S
C303 C298 1.371 . S
C303 C302 1.382 . S
C304 N272 1.423 . S
C304 C305 1.362 . S
C304 C309 1.388 . S
C305 H269 0.929 . S
C305 C304 1.362 . S
C305 C306 1.376 . S
C306 H270 0.931 1_655 S
C306 C305 1.376 . S
C306 C307 1.396 1_655 S
C307 C289 1.472 . S
C307 C306 1.396 1_455 S
C307 C308 1.348 1_455 S
C308 H271 0.929 . S
C308 C307 1.348 1_655 S
C308 C309 1.443 . S
C309 H273 0.932 . S
C309 C304 1.388 . S
C309 C308 1.443 . S
H310 C337 0.929 . S
N311 C336 1.433 . S
N311 C342 1.435 . S
N311 C348 1.423 . S
H312 C338 0.930 . S
H313 C341 0.931 . S
H314 C340 0.929 . S
H315 C343 0.930 . S
H316 C344 0.932 . S
H317 C347 0.929 . S
H318 C346 0.931 . S
H319 C349 0.929 . S
H320 C353 0.932 . S
H321 C350 0.931 . S
H322 C352 0.929 . S
H323 C355 0.929 . S
H324 C356 0.930 . S
H325 C358 0.929 . S
H326 C359 0.931 . S
H327 C361 0.930 . S
H328 C362 0.932 . S
H329 C364 0.931 . S
H330 C365 0.929 . S
H331 C367 0.929 . S
H332 C368 0.931 . S
H333 C370 0.929 . S
N334 C354 1.433 . S
N334 C360 1.435 . S
N334 C366 1.423 . S
H335 C371 0.932 . S
C336 N311 1.433 . S
C336 C337 1.363 . S
C336 C341 1.370 . S
C337 H310 0.929 . S
C337 C336 1.363 . S
C337 C338 1.385 . S
C338 H312 0.930 . S
C338 C337 1.385 . S
C338 C339 1.357 . S
C339 C338 1.357 . S
C339 C340 1.406 . S
C340 H314 0.929 . S
C340 C339 1.406 . S
C340 C341 1.391 . S
C341 H313 0.931 . S
C341 C336 1.370 . S
C341 C340 1.391 . S
C342 N311 1.435 . S
C342 C343 1.358 . S
C342 C347 1.371 . S
C343 H315 0.930 . S
C343 C342 1.358 . S
C343 C344 1.405 . S
C344 H316 0.932 . S
C344 C343 1.405 . S
C344 C345 1.383 . S
C345 C344 1.383 . S
C345 C346 1.393 . S
C346 H318 0.931 . S
C346 C345 1.393 . S
C346 C347 1.382 . S
C347 H317 0.929 . S
C347 C342 1.371 . S
C347 C346 1.382 . S
C348 N311 1.423 . S
C348 C349 1.362 . S
C348 C353 1.388 . S
C349 H319 0.929 . S
C349 C348 1.362 . S
C349 C350 1.376 . S
C350 H321 0.931 . S
C350 C349 1.376 . S
C350 C351 1.396 . S
C351 C350 1.396 . S
C351 C352 1.348 . S
C351 C369 1.472 . S
C352 H322 0.929 . S
C352 C351 1.348 . S
C352 C353 1.443 . S
C353 H320 0.932 . S
C353 C348 1.388 . S
C353 C352 1.443 . S
C354 N334 1.433 . S
C354 C355 1.363 . S
C354 C359 1.370 . S
C355 H323 0.929 . S
C355 C354 1.363 . S
C355 C356 1.385 . S
C356 H324 0.930 . S
C356 C355 1.385 . S
C356 C357 1.357 . S
C357 C356 1.357 . S
C357 C358 1.406 . S
C358 H325 0.929 . S
C358 C357 1.406 . S
C358 C359 1.391 . S
C359 H326 0.931 . S
C359 C354 1.370 . S
C359 C358 1.391 . S
C360 N334 1.435 . S
C360 C361 1.358 . S
C360 C365 1.371 . S
C361 H327 0.930 . S
C361 C360 1.358 . S
C361 C362 1.405 . S
C362 H328 0.932 . S
C362 C361 1.405 . S
C362 C363 1.383 . S
C363 C362 1.383 . S
C363 C364 1.393 . S
C364 H329 0.931 . S
C364 C363 1.393 . S
C364 C365 1.382 . S
C365 H330 0.929 . S
C365 C360 1.371 . S
C365 C364 1.382 . S
C366 N334 1.423 . S
C366 C367 1.362 . S
C366 C371 1.388 . S
C367 H331 0.929 . S
C367 C366 1.362 . S
C367 C368 1.376 . S
C368 H332 0.931 . S
C368 C367 1.376 . S
C368 C369 1.396 . S
C369 C351 1.472 . S
C369 C368 1.396 . S
C369 C370 1.348 . S
C370 H333 0.929 . S
C370 C369 1.348 . S
C370 C371 1.443 . S
C371 H335 0.932 . S
C371 C366 1.388 . S
C371 C370 1.443 . S
H372 C399 0.929 . S
N373 C398 1.433 . S
N373 C404 1.435 . S
N373 C410 1.423 . S
H374 C400 0.930 . S
H375 C403 0.931 . S
H376 C402 0.929 . S
H377 C405 0.930 . S
H378 C406 0.932 . S
H379 C409 0.929 . S
H380 C408 0.931 . S
H381 C411 0.929 . S
H382 C415 0.932 . S
H383 C412 0.931 . S
H384 C414 0.929 . S
H385 C417 0.929 . S
H386 C418 0.930 . S
H387 C420 0.929 . S
H388 C421 0.931 . S
H389 C423 0.930 . S
H390 C424 0.932 . S
H391 C426 0.931 . S
H392 C427 0.929 . S
H393 C429 0.929 . S
H394 C430 0.931 . S
H395 C432 0.929 . S
N396 C416 1.433 . S
N396 C422 1.435 . S
N396 C428 1.423 . S
H397 C433 0.932 . S
C398 N373 1.433 . S
C398 C399 1.363 . S
C398 C403 1.370 . S
C399 H372 0.929 . S
C399 C398 1.363 . S
C399 C400 1.385 . S
C400 H374 0.930 . S
C400 C399 1.385 . S
C400 C401 1.357 . S
C401 C400 1.357 . S
C401 C402 1.406 . S
C402 H376 0.929 . S
C402 C401 1.406 . S
C402 C403 1.391 . S
C403 H375 0.931 . S
C403 C398 1.370 . S
C403 C402 1.391 . S
C404 N373 1.435 . S
C404 C405 1.358 . S
C404 C409 1.371 . S
C405 H377 0.930 . S
C405 C404 1.358 . S
C405 C406 1.405 . S
C406 H378 0.932 . S
C406 C405 1.405 . S
C406 C407 1.383 . S
C407 C406 1.383 . S
C407 C408 1.393 . S
C408 H380 0.931 . S
C408 C407 1.393 . S
C408 C409 1.382 . S
C409 H379 0.929 . S
C409 C404 1.371 . S
C409 C408 1.382 . S
C410 N373 1.423 . S
C410 C411 1.362 . S
C410 C415 1.388 . S
C411 H381 0.929 . S
C411 C410 1.362 . S
C411 C412 1.376 1_565 S
C412 H383 0.931 . S
C412 C411 1.376 1_545 S
C412 C413 1.396 . S
C413 C412 1.396 . S
C413 C414 1.348 1_545 S
C413 C431 1.472 . S
C414 H384 0.929 . S
C414 C413 1.348 1_565 S
C414 C415 1.443 . S
C415 H382 0.932 . S
C415 C410 1.388 . S
C415 C414 1.443 . S
C416 N396 1.433 . S
C416 C417 1.363 . S
C416 C421 1.370 . S
C417 H385 0.929 . S
C417 C416 1.363 . S
C417 C418 1.385 . S
C418 H386 0.930 . S
C418 C417 1.385 . S
C418 C419 1.357 . S
C419 C418 1.357 . S
C419 C420 1.406 . S
C420 H387 0.929 . S
C420 C419 1.406 . S
C420 C421 1.391 . S
C421 H388 0.931 . S
C421 C416 1.370 . S
C421 C420 1.391 . S
C422 N396 1.435 . S
C422 C423 1.358 . S
C422 C427 1.371 . S
C423 H389 0.930 . S
C423 C422 1.358 . S
C423 C424 1.405 . S
C424 H390 0.932 . S
C424 C423 1.405 . S
C424 C425 1.383 . S
C425 C424 1.383 . S
C425 C426 1.393 . S
C426 H391 0.931 . S
C426 C425 1.393 . S
C426 C427 1.382 . S
C427 H392 0.929 . S
C427 C422 1.371 . S
C427 C426 1.382 . S
C428 N396 1.423 . S
C428 C429 1.362 . S
C428 C433 1.388 . S
C429 H393 0.929 . S
C429 C428 1.362 . S
C429 C430 1.376 . S
C430 H394 0.931 . S
C430 C429 1.376 . S
C430 C431 1.396 . S
C431 C413 1.472 . S
C431 C430 1.396 . S
C431 C432 1.348 . S
C432 H395 0.929 . S
C432 C431 1.348 . S
C432 C433 1.443 . S
C433 H397 0.932 . S
C433 C428 1.388 . S
C433 C432 1.443 . S
H434 C461 0.929 . S
N435 C460 1.433 . S
N435 C466 1.435 . S
N435 C472 1.423 . S
H436 C462 0.930 . S
H437 C465 0.931 . S
H438 C464 0.929 . S
H439 C467 0.930 . S
H440 C468 0.932 . S
H441 C471 0.929 . S
H442 C470 0.931 . S
H443 C473 0.929 . S
H444 C477 0.932 . S
H445 C474 0.931 . S
H446 C476 0.929 . S
H447 C479 0.929 . S
H448 C480 0.930 . S
H449 C482 0.929 . S
H450 C483 0.931 . S
H451 C485 0.930 . S
H452 C486 0.932 . S
H453 C488 0.931 . S
H454 C489 0.929 . S
H455 C491 0.929 . S
H456 C492 0.931 1_565 S
H457 C494 0.929 . S
N458 C478 1.433 . S
N458 C484 1.435 . S
N458 C490 1.423 . S
H459 C495 0.932 . S
C460 N435 1.433 . S
C460 C461 1.363 . S
C460 C465 1.370 . S
C461 H434 0.929 . S
C461 C460 1.363 . S
C461 C462 1.385 . S
C462 H436 0.930 . S
C462 C461 1.385 . S
C462 C463 1.357 . S
C463 C462 1.357 . S
C463 C464 1.406 . S
C464 H438 0.929 . S
C464 C463 1.406 . S
C464 C465 1.391 . S
C465 H437 0.931 . S
C465 C460 1.370 . S
C465 C464 1.391 . S
C466 N435 1.435 . S
C466 C467 1.358 . S
C466 C471 1.371 . S
C467 H439 0.930 . S
C467 C466 1.358 . S
C467 C468 1.405 . S
C468 H440 0.932 . S
C468 C467 1.405 . S
C468 C469 1.383 . S
C469 C468 1.383 . S
C469 C470 1.393 . S
C470 H442 0.931 . S
C470 C469 1.393 . S
C470 C471 1.382 . S
C471 H441 0.929 . S
C471 C466 1.371 . S
C471 C470 1.382 . S
C472 N435 1.423 . S
C472 C473 1.362 . S
C472 C477 1.388 . S
C473 H443 0.929 . S
C473 C472 1.362 . S
C473 C474 1.376 1_455 S
C474 H445 0.931 . S
C474 C473 1.376 1_655 S
C474 C475 1.396 . S
C475 C474 1.396 . S
C475 C476 1.348 1_655 S
C475 C493 1.472 1_565 S
C476 H446 0.929 . S
C476 C475 1.348 1_455 S
C476 C477 1.443 . S
C477 H444 0.932 . S
C477 C472 1.388 . S
C477 C476 1.443 . S
C478 N458 1.433 . S
C478 C479 1.363 . S
C478 C483 1.370 . S
C479 H447 0.929 . S
C479 C478 1.363 . S
C479 C480 1.385 . S
C480 H448 0.930 . S
C480 C479 1.385 . S
C480 C481 1.357 . S
C481 C480 1.357 . S
C481 C482 1.406 . S
C482 H449 0.929 . S
C482 C481 1.406 . S
C482 C483 1.391 . S
C483 H450 0.931 . S
C483 C478 1.370 . S
C483 C482 1.391 . S
C484 N458 1.435 . S
C484 C485 1.358 . S
C484 C489 1.371 . S
C485 H451 0.930 . S
C485 C484 1.358 . S
C485 C486 1.405 . S
C486 H452 0.932 . S
C486 C485 1.405 . S
C486 C487 1.383 . S
C487 C486 1.383 . S
C487 C488 1.393 . S
C488 H453 0.931 . S
C488 C487 1.393 . S
C488 C489 1.382 . S
C489 H454 0.929 . S
C489 C484 1.371 . S
C489 C488 1.382 . S
C490 N458 1.423 . S
C490 C491 1.362 . S
C490 C495 1.388 . S
C491 H455 0.929 . S
C491 C490 1.362 . S
C491 C492 1.376 . S
C492 H456 0.931 1_545 S
C492 C491 1.376 . S
C492 C493 1.396 . S
C493 C475 1.472 1_545 S
C493 C492 1.396 . S
C493 C494 1.348 . S
C494 H457 0.929 . S
C494 C493 1.348 . S
C494 C495 1.443 . S
C495 H459 0.932 . S
C495 C490 1.388 . S
C495 C494 1.443 . S
Co496 O497 2.215 1_554 S
Co496 O498 2.087 1_554 S
Co496 O500 2.004 . S
Co496 O506 2.021 1_554 S
Co496 O508 2.137 . S
Co496 O509 2.244 . S
O497 Co496 2.215 1_556 S
O497 C504 1.247 . S
O498 Co496 2.087 1_556 S
O498 C504 1.264 . S
C499 O508 1.247 . S
C499 O509 1.272 . S
O500 Co496 2.004 . S
O500 C505 1.259 . S
Co501 O502 2.061 . S
Co501 O507 2.052 1_554 S
Co501 O509 2.135 . S
O502 Co501 2.061 . S
O502 C505 1.235 . S
C503 O506 1.238 . S
C503 O507 1.241 . S
C504 O497 1.247 . S
C504 O498 1.264 . S
C505 O500 1.259 . S
C505 O502 1.235 . S
O506 Co496 2.021 1_556 S
O506 C503 1.238 . S
O507 Co501 2.052 1_556 S
O507 C503 1.241 . S
O508 Co496 2.137 . S
O508 C499 1.247 . S
O509 Co496 2.244 . S
O509 C499 1.272 . S
O509 Co501 2.135 . S
Co510 O511 2.216 . S
Co510 O512 2.091 . S
Co510 O514 2.004 . S
Co510 O520 2.021 . S
Co510 O522 2.137 . S
Co510 O523 2.244 . S
O511 Co510 2.216 . S
O511 C518 1.247 . S
O512 Co510 2.091 . S
O512 C518 1.261 . S
C513 O522 1.247 . S
C513 O523 1.272 . S
O514 Co510 2.004 . S
O514 C519 1.259 . S
Co515 O516 2.061 . S
Co515 O521 2.052 . S
Co515 O523 2.135 . S
O516 Co515 2.061 . S
O516 C519 1.235 . S
C517 O520 1.238 . S
C517 O521 1.241 . S
C518 O511 1.247 . S
C518 O512 1.261 . S
C519 O514 1.259 . S
C519 O516 1.235 . S
O520 Co510 2.021 . S
O520 C517 1.238 . S
O521 Co515 2.052 . S
O521 C517 1.241 . S
O522 Co510 2.137 . S
O522 C513 1.247 . S
O523 Co510 2.244 . S
O523 C513 1.272 . S
O523 Co515 2.135 . S
Co524 O525 2.216 . S
Co524 O526 2.091 . S
Co524 O528 2.004 . S
Co524 O534 2.021 . S
Co524 O536 2.137 . S
Co524 O537 2.244 . S
O525 Co524 2.216 . S
O525 C532 1.247 . S
O526 Co524 2.091 . S
O526 C532 1.261 . S
C527 O536 1.247 . S
C527 O537 1.272 . S
O528 Co524 2.004 . S
O528 C533 1.259 . S
Co529 O530 2.061 . S
Co529 O535 2.052 . S
Co529 O537 2.135 . S
O530 Co529 2.061 . S
O530 C533 1.235 . S
C531 O534 1.238 . S
C531 O535 1.241 . S
C532 O525 1.247 . S
C532 O526 1.261 . S
C533 O528 1.259 . S
C533 O530 1.235 . S
O534 Co524 2.021 . S
O534 C531 1.238 . S
O535 Co529 2.052 . S
O535 C531 1.241 . S
O536 Co524 2.137 . S
O536 C527 1.247 . S
O537 Co524 2.244 . S
O537 C527 1.272 . S
O537 Co529 2.135 . S
Co538 O539 2.216 . S
Co538 O540 2.091 . S
Co538 O542 2.004 . S
Co538 O548 2.021 . S
Co538 O550 2.137 . S
Co538 O551 2.244 . S
O539 Co538 2.216 . S
O539 C546 1.247 . S
O540 Co538 2.091 . S
O540 C546 1.261 . S
C541 O550 1.247 . S
C541 O551 1.272 . S
O542 Co538 2.004 . S
O542 C547 1.259 . S
Co543 O544 2.061 . S
Co543 O549 2.052 . S
Co543 O551 2.135 . S
O544 Co543 2.061 . S
O544 C547 1.235 . S
C545 O548 1.238 . S
C545 O549 1.241 . S
C546 O539 1.247 . S
C546 O540 1.261 . S
C547 O542 1.259 . S
C547 O544 1.235 . S
O548 Co538 2.021 . S
O548 C545 1.238 . S
O549 Co543 2.052 . S
O549 C545 1.241 . S
O550 Co538 2.137 . S
O550 C541 1.247 . S
O551 Co538 2.244 . S
O551 C541 1.272 . S
O551 Co543 2.135 . S
Co552 O553 2.216 . S
Co552 O554 2.091 . S
Co552 O556 2.004 . S
Co552 O562 2.021 . S
Co552 O564 2.137 . S
Co552 O565 2.244 . S
O553 Co552 2.216 . S
O553 C560 1.247 . S
O554 Co552 2.091 . S
O554 C560 1.261 . S
C555 O564 1.247 . S
C555 O565 1.272 . S
O556 Co552 2.004 . S
O556 C561 1.259 . S
Co557 O558 2.061 . S
Co557 O563 2.052 . S
Co557 O565 2.135 . S
O558 Co557 2.061 . S
O558 C561 1.235 . S
C559 O562 1.238 . S
C559 O563 1.241 . S
C560 O553 1.247 . S
C560 O554 1.261 . S
C561 O556 1.259 . S
C561 O558 1.235 . S
O562 Co552 2.021 . S
O562 C559 1.238 . S
O563 Co557 2.052 . S
O563 C559 1.241 . S
O564 Co552 2.137 . S
O564 C555 1.247 . S
O565 Co552 2.244 . S
O565 C555 1.272 . S
O565 Co557 2.135 . S
Co566 O567 2.216 . S
Co566 O568 2.091 . S
Co566 O570 2.004 . S
Co566 O576 2.021 . S
Co566 O578 2.137 . S
Co566 O579 2.244 . S
O567 Co566 2.216 . S
O567 C574 1.247 . S
O568 Co566 2.091 . S
O568 C574 1.261 . S
C569 O578 1.247 . S
C569 O579 1.272 . S
O570 Co566 2.004 . S
O570 C575 1.259 . S
Co571 O572 2.061 . S
Co571 O577 2.052 . S
Co571 O579 2.135 . S
O572 Co571 2.061 . S
O572 C575 1.235 . S
C573 O576 1.238 . S
C573 O577 1.241 . S
C574 O567 1.247 . S
C574 O568 1.261 . S
C575 O570 1.259 . S
C575 O572 1.235 . S
O576 Co566 2.021 . S
O576 C573 1.238 . S
O577 Co571 2.052 . S
O577 C573 1.241 . S
O578 Co566 2.137 . S
O578 C569 1.247 . S
O579 Co566 2.244 . S
O579 C569 1.272 . S
O579 Co571 2.135 . S
Co580 O581 2.216 1_556 S
Co580 O582 2.091 1_556 S
Co580 O584 2.004 . S
Co580 O590 2.021 1_556 S
Co580 O592 2.137 . S
Co580 O593 2.244 . S
O581 Co580 2.216 1_554 S
O581 C588 1.247 . S
O582 Co580 2.091 1_554 S
O582 C588 1.261 . S
C583 O592 1.247 . S
C583 O593 1.272 . S
O584 Co580 2.004 . S
O584 C589 1.259 . S
Co585 O586 2.061 . S
Co585 O591 2.052 1_556 S
Co585 O593 2.135 . S
O586 Co585 2.061 . S
O586 C589 1.235 . S
C587 O590 1.238 . S
C587 O591 1.241 . S
C588 O581 1.247 . S
C588 O582 1.261 . S
C589 O584 1.259 . S
C589 O586 1.235 . S
O590 Co580 2.021 1_554 S
O590 C587 1.238 . S
O591 Co585 2.052 1_554 S
O591 C587 1.241 . S
O592 Co580 2.137 . S
O592 C583 1.247 . S
O593 Co580 2.244 . S
O593 C583 1.272 . S
O593 Co585 2.135 . S
Co594 O595 2.216 . S
Co594 O596 2.091 . S
Co594 O598 2.004 . S
Co594 O604 2.021 . S
Co594 O606 2.137 . S
Co594 O607 2.244 . S
O595 Co594 2.216 . S
O595 C602 1.247 . S
O596 Co594 2.091 . S
O596 C602 1.261 . S
C597 O606 1.247 . S
C597 O607 1.272 . S
O598 Co594 2.004 . S
O598 C603 1.259 . S
Co599 O600 2.061 . S
Co599 O605 2.052 . S
Co599 O607 2.135 . S
O600 Co599 2.061 . S
O600 C603 1.235 . S
C601 O604 1.238 . S
C601 O605 1.241 . S
C602 O595 1.247 . S
C602 O596 1.261 . S
C603 O598 1.259 . S
C603 O600 1.235 . S
O604 Co594 2.021 . S
O604 C601 1.238 . S
O605 Co599 2.052 . S
O605 C601 1.241 . S
O606 Co594 2.137 . S
O606 C597 1.247 . S
O607 Co594 2.244 . S
O607 C597 1.272 . S
O607 Co599 2.135 . S
C608 C609 1.363 . S
C608 C614 1.379 . S
C608 N616 1.356 . S
C609 C608 1.363 . S
C609 C615 1.363 . S
C610 C611 1.363 . S
C610 C615 1.379 . S
C610 N617 1.356 . S
C611 C610 1.363 . S
C611 C614 1.363 . S
N612 C614 1.356 . S
N612 H624 0.984 . S
N612 H625 0.985 . S
N613 C615 1.356 . S
N613 H618 0.984 . S
N613 H619 0.985 . S
C614 C608 1.379 . S
C614 C611 1.363 . S
C614 N612 1.356 . S
C615 C609 1.363 . S
C615 C610 1.379 . S
C615 N613 1.356 . S
N616 C608 1.356 . S
N616 H622 0.984 . S
N616 H623 0.984 . S
N617 C610 1.356 . S
N617 H620 0.984 . S
N617 H621 0.985 . S
H618 N613 0.984 . S
H619 N613 0.985 . S
H620 N617 0.984 . S
H621 N617 0.985 . S
H622 N616 0.984 . S
H623 N616 0.984 . S
H624 N612 0.984 . S
H625 N612 0.985 . S
C626 C627 1.363 . S
C626 C632 1.379 . S
C626 N634 1.356 . S
C627 C626 1.363 . S
C627 C633 1.363 . S
C628 C629 1.363 . S
C628 C633 1.379 . S
C628 N635 1.356 . S
C629 C628 1.363 . S
C629 C632 1.363 . S
N630 C632 1.356 . S
N630 H642 0.984 . S
N630 H643 0.985 . S
N631 C633 1.356 . S
N631 H636 0.984 . S
N631 H637 0.985 . S
C632 C626 1.379 . S
C632 C629 1.363 . S
C632 N630 1.356 . S
C633 C627 1.363 . S
C633 C628 1.379 . S
C633 N631 1.356 . S
N634 C626 1.356 . S
N634 H640 0.984 . S
N634 H641 0.984 . S
N635 C628 1.356 . S
N635 H638 0.984 . S
N635 H639 0.985 . S
H636 N631 0.984 . S
H637 N631 0.985 . S
H638 N635 0.984 . S
H639 N635 0.985 . S
H640 N634 0.984 . S
H641 N634 0.984 . S
H642 N630 0.984 . S
H643 N630 0.985 . S
C644 C645 1.363 . S
C644 C650 1.379 . S
C644 N652 1.356 . S
C645 C644 1.363 . S
C645 C651 1.363 . S
C646 C647 1.363 . S
C646 C651 1.379 . S
C646 N653 1.356 . S
C647 C646 1.363 . S
C647 C650 1.363 . S
N648 C650 1.356 . S
N648 H660 0.984 . S
N648 H661 0.985 . S
N649 C651 1.356 . S
N649 H654 0.984 . S
N649 H655 0.985 . S
C650 C644 1.379 . S
C650 C647 1.363 . S
C650 N648 1.356 . S
C651 C645 1.363 . S
C651 C646 1.379 . S
C651 N649 1.356 . S
N652 C644 1.356 . S
N652 H658 0.984 . S
N652 H659 0.984 . S
N653 C646 1.356 . S
N653 H656 0.984 . S
N653 H657 0.985 . S
H654 N649 0.984 . S
H655 N649 0.985 . S
H656 N653 0.984 . S
H657 N653 0.985 . S
H658 N652 0.984 . S
H659 N652 0.984 . S
H660 N648 0.984 . S
H661 N648 0.985 . S
C662 C663 1.363 . S
C662 C668 1.379 . S
C662 N670 1.356 . S
C663 C662 1.363 . S
C663 C669 1.363 1_554 S
C664 C665 1.363 1_556 S
C664 C669 1.379 . S
C664 N671 1.356 . S
C665 C664 1.363 1_554 S
C665 C668 1.363 . S
N666 C668 1.356 . S
N666 H678 0.984 . S
N666 H679 0.985 . S
N667 C669 1.356 . S
N667 H672 0.984 . S
N667 H673 0.985 . S
C668 C662 1.379 . S
C668 C665 1.363 . S
C668 N666 1.356 . S
C669 C663 1.363 1_556 S
C669 C664 1.379 . S
C669 N667 1.356 . S
N670 C662 1.356 . S
N670 H676 0.984 . S
N670 H677 0.984 . S
N671 C664 1.356 . S
N671 H674 0.984 . S
N671 H675 0.985 . S
H672 N667 0.984 . S
H673 N667 0.985 . S
H674 N671 0.984 . S
H675 N671 0.985 . S
H676 N670 0.984 . S
H677 N670 0.984 . S
H678 N666 0.984 . S
H679 N666 0.985 . S
C680 C681 1.363 1_556 S
C680 C686 1.379 . S
C680 N688 1.356 . S
C681 C680 1.363 1_554 S
C681 C687 1.363 . S
C682 C683 1.363 1_554 S
C682 C687 1.379 . S
C682 N689 1.356 . S
C683 C682 1.363 1_556 S
C683 C686 1.363 . S
N684 C686 1.356 . S
N684 H696 0.984 . S
N684 H697 0.985 . S
N685 C687 1.356 . S
N685 H690 0.984 . S
N685 H691 0.985 . S
C686 C680 1.379 . S
C686 C683 1.363 . S
C686 N684 1.356 . S
C687 C681 1.363 . S
C687 C682 1.379 . S
C687 N685 1.356 . S
N688 C680 1.356 . S
N688 H694 0.984 . S
N688 H695 0.984 . S
N689 C682 1.356 . S
N689 H692 0.984 . S
N689 H693 0.985 . S
H690 N685 0.984 . S
H691 N685 0.985 . S
H692 N689 0.984 . S
H693 N689 0.985 . S
H694 N688 0.984 . S
H695 N688 0.984 . S
H696 N684 0.984 . S
H697 N684 0.985 . S
C698 C699 1.363 . S
C698 C704 1.379 . S
C698 N706 1.356 . S
C699 C698 1.363 . S
C699 C705 1.363 . S
C700 C701 1.363 . S
C700 C705 1.379 . S
C700 N707 1.356 . S
C701 C700 1.363 . S
C701 C704 1.363 . S
N702 C704 1.356 . S
N702 H714 0.984 . S
N702 H715 0.985 . S
N703 C705 1.356 . S
N703 H708 0.984 . S
N703 H709 0.985 . S
C704 C698 1.379 . S
C704 C701 1.363 . S
C704 N702 1.356 . S
C705 C699 1.363 . S
C705 C700 1.379 . S
C705 N703 1.356 . S
N706 C698 1.356 . S
N706 H712 0.984 . S
N706 H713 0.984 . S
N707 C700 1.356 . S
N707 H710 0.984 . S
N707 H711 0.985 . S
H708 N703 0.984 . S
H709 N703 0.985 . S
H710 N707 0.984 . S
H711 N707 0.985 . S
H712 N706 0.984 . S
H713 N706 0.984 . S
H714 N702 0.984 . S
H715 N702 0.985 . S
C716 C717 1.363 . S
C716 C722 1.379 . S
C716 N724 1.356 . S
C717 C716 1.363 . S
C717 C723 1.363 . S
C718 C719 1.363 . S
C718 C723 1.379 . S
C718 N725 1.356 . S
C719 C718 1.363 . S
C719 C722 1.363 . S
N720 C722 1.356 . S
N720 H732 0.984 . S
N720 H733 0.985 . S
N721 C723 1.356 . S
N721 H726 0.984 . S
N721 H727 0.985 . S
C722 C716 1.379 . S
C722 C719 1.363 . S
C722 N720 1.356 . S
C723 C717 1.363 . S
C723 C718 1.379 . S
C723 N721 1.356 . S
N724 C716 1.356 . S
N724 H730 0.984 . S
N724 H731 0.984 . S
N725 C718 1.356 . S
N725 H728 0.984 . S
N725 H729 0.985 . S
H726 N721 0.984 . S
H727 N721 0.985 . S
H728 N725 0.984 . S
H729 N725 0.985 . S
H730 N724 0.984 . S
H731 N724 0.984 . S
H732 N720 0.984 . S
H733 N720 0.985 . S
C734 C735 1.363 . S
C734 C740 1.379 . S
C734 N742 1.356 . S
C735 C734 1.363 . S
C735 C741 1.363 . S
C736 C737 1.363 . S
C736 C741 1.379 . S
C736 N743 1.356 . S
C737 C736 1.363 . S
C737 C740 1.363 . S
N738 C740 1.356 . S
N738 H750 0.984 . S
N738 H751 0.985 . S
N739 C741 1.356 . S
N739 H744 0.984 . S
N739 H745 0.985 . S
C740 C734 1.379 . S
C740 C737 1.363 . S
C740 N738 1.356 . S
C741 C735 1.363 . S
C741 C736 1.379 . S
C741 N739 1.356 . S
N742 C734 1.356 . S
N742 H748 0.984 . S
N742 H749 0.984 . S
N743 C736 1.356 . S
N743 H746 0.984 . S
N743 H747 0.985 . S
H744 N739 0.984 . S
H745 N739 0.985 . S
H746 N743 0.984 . S
H747 N743 0.985 . S
H748 N742 0.984 . S
H749 N742 0.984 . S
H750 N738 0.984 . S
H751 N738 0.985 . S
C752 C753 1.363 . S
C752 C758 1.379 . S
C752 N760 1.356 . S
C753 C752 1.363 . S
C753 C759 1.363 . S
C754 C755 1.363 . S
C754 C759 1.379 . S
C754 N761 1.356 . S
C755 C754 1.363 . S
C755 C758 1.363 . S
N756 C758 1.356 . S
N756 H768 0.984 . S
N756 H769 0.985 . S
N757 C759 1.356 . S
N757 H762 0.984 . S
N757 H763 0.985 . S
C758 C752 1.379 . S
C758 C755 1.363 . S
C758 N756 1.356 . S
C759 C753 1.363 . S
C759 C754 1.379 . S
C759 N757 1.356 . S
N760 C752 1.356 . S
N760 H766 0.984 . S
N760 H767 0.984 . S
N761 C754 1.356 . S
N761 H764 0.984 . S
N761 H765 0.985 . S
H762 N757 0.984 . S
H763 N757 0.985 . S
H764 N761 0.984 . S
H765 N761 0.985 . S
H766 N760 0.984 . S
H767 N760 0.984 . S
H768 N756 0.984 . S
H769 N756 0.985 . S
C770 C771 1.363 . S
C770 C776 1.379 . S
C770 N778 1.356 . S
C771 C770 1.363 . S
C771 C777 1.363 1_554 S
C772 C773 1.363 1_556 S
C772 C777 1.379 . S
C772 N779 1.356 . S
C773 C772 1.363 1_554 S
C773 C776 1.363 . S
N774 C776 1.356 . S
N774 H786 0.984 . S
N774 H787 0.985 . S
N775 C777 1.356 . S
N775 H780 0.984 . S
N775 H781 0.985 . S
C776 C770 1.379 . S
C776 C773 1.363 . S
C776 N774 1.356 . S
C777 C771 1.363 1_556 S
C777 C772 1.379 . S
C777 N775 1.356 . S
N778 C770 1.356 . S
N778 H784 0.984 . S
N778 H785 0.984 . S
N779 C772 1.356 . S
N779 H782 0.984 . S
N779 H783 0.985 . S
H780 N775 0.984 . S
H781 N775 0.985 . S
H782 N779 0.984 . S
H783 N779 0.985 . S
H784 N778 0.984 . S
H785 N778 0.984 . S
H786 N774 0.984 . S
H787 N774 0.985 . S
C788 C789 1.363 . S
C788 C794 1.379 . S
C788 N796 1.356 . S
C789 C788 1.363 . S
C789 C795 1.363 . S
C790 C791 1.363 . S
C790 C795 1.379 . S
C790 N797 1.356 . S
C791 C790 1.363 . S
C791 C794 1.363 . S
N792 C794 1.356 . S
N792 H804 0.984 . S
N792 H805 0.985 . S
N793 C795 1.356 . S
N793 H798 0.984 . S
N793 H799 0.985 . S
C794 C788 1.379 . S
C794 C791 1.363 . S
C794 N792 1.356 . S
C795 C789 1.363 . S
C795 C790 1.379 . S
C795 N793 1.356 . S
N796 C788 1.356 . S
N796 H802 0.984 . S
N796 H803 0.984 . S
N797 C790 1.356 . S
N797 H800 0.984 . S
N797 H801 0.985 . S
H798 N793 0.984 . S
H799 N793 0.985 . S
H800 N797 0.984 . S
H801 N797 0.985 . S
H802 N796 0.984 . S
H803 N796 0.984 . S
H804 N792 0.984 . S
H805 N792 0.985 . S
C806 C807 1.363 . S
C806 C812 1.379 . S
C806 N814 1.356 . S
C807 C806 1.363 . S
C807 C813 1.363 . S
C808 C809 1.363 . S
C808 C813 1.379 . S
C808 N815 1.356 . S
C809 C808 1.363 . S
C809 C812 1.363 . S
N810 C812 1.356 . S
N810 H822 0.984 . S
N810 H823 0.985 . S
N811 C813 1.356 . S
N811 H816 0.984 . S
N811 H817 0.985 . S
C812 C806 1.379 . S
C812 C809 1.363 . S
C812 N810 1.356 . S
C813 C807 1.363 . S
C813 C808 1.379 . S
C813 N811 1.356 . S
N814 C806 1.356 . S
N814 H820 0.984 . S
N814 H821 0.984 . S
N815 C808 1.356 . S
N815 H818 0.984 . S
N815 H819 0.985 . S
H816 N811 0.984 . S
H817 N811 0.985 . S
H818 N815 0.984 . S
H819 N815 0.985 . S
H820 N814 0.984 . S
H821 N814 0.984 . S
H822 N810 0.984 . S
H823 N810 0.985 . S
C824 C825 1.363 . S
C824 C830 1.379 . S
C824 N832 1.356 . S
C825 C824 1.363 . S
C825 C831 1.363 . S
C826 C827 1.363 . S
C826 C831 1.379 . S
C826 N833 1.356 . S
C827 C826 1.363 . S
C827 C830 1.363 . S
N828 C830 1.356 . S
N828 H840 0.984 . S
N828 H841 0.985 . S
N829 C831 1.356 . S
N829 H834 0.984 . S
N829 H835 0.985 . S
C830 C824 1.379 . S
C830 C827 1.363 . S
C830 N828 1.356 . S
C831 C825 1.363 . S
C831 C826 1.379 . S
C831 N829 1.356 . S
N832 C824 1.356 . S
N832 H838 0.984 . S
N832 H839 0.984 . S
N833 C826 1.356 . S
N833 H836 0.984 . S
N833 H837 0.985 . S
H834 N829 0.984 . S
H835 N829 0.985 . S
H836 N833 0.984 . S
H837 N833 0.985 . S
H838 N832 0.984 . S
H839 N832 0.984 . S
H840 N828 0.984 . S
H841 N828 0.985 . S
C842 C843 1.363 . S
C842 C848 1.379 . S
C842 N850 1.356 . S
C843 C842 1.363 . S
C843 C849 1.363 . S
C844 C845 1.363 . S
C844 C849 1.379 . S
C844 N851 1.356 . S
C845 C844 1.363 . S
C845 C848 1.363 . S
N846 C848 1.356 . S
N846 H858 0.984 . S
N846 H859 0.985 . S
N847 C849 1.356 . S
N847 H852 0.984 . S
N847 H853 0.985 . S
C848 C842 1.379 . S
C848 C845 1.363 . S
C848 N846 1.356 . S
C849 C843 1.363 . S
C849 C844 1.379 . S
C849 N847 1.356 . S
N850 C842 1.356 . S
N850 H856 0.984 . S
N850 H857 0.984 . S
N851 C844 1.356 . S
N851 H854 0.984 . S
N851 H855 0.985 . S
H852 N847 0.984 . S
H853 N847 0.985 . S
H854 N851 0.984 . S
H855 N851 0.985 . S
H856 N850 0.984 . S
H857 N850 0.984 . S
H858 N846 0.984 . S
H859 N846 0.985 . S
C860 C861 1.363 1_556 S
C860 C866 1.379 . S
C860 N868 1.356 . S
C861 C860 1.363 1_554 S
C861 C867 1.363 . S
C862 C863 1.363 1_554 S
C862 C867 1.379 . S
C862 N869 1.356 . S
C863 C862 1.363 1_556 S
C863 C866 1.363 . S
N864 C866 1.356 . S
N864 H876 0.984 . S
N864 H877 0.985 . S
N865 C867 1.356 . S
N865 H870 0.984 . S
N865 H871 0.985 . S
C866 C860 1.379 . S
C866 C863 1.363 . S
C866 N864 1.356 . S
C867 C861 1.363 . S
C867 C862 1.379 . S
C867 N865 1.356 . S
N868 C860 1.356 . S
N868 H874 0.984 . S
N868 H875 0.984 . S
N869 C862 1.356 . S
N869 H872 0.984 . S
N869 H873 0.985 . S
H870 N865 0.984 . S
H871 N865 0.985 . S
H872 N869 0.984 . S
H873 N869 0.985 . S
H874 N868 0.984 . S
H875 N868 0.984 . S
H876 N864 0.984 . S
H877 N864 0.985 . S
C878 C879 1.363 . S
C878 C884 1.379 . S
C878 N886 1.356 . S
C879 C878 1.363 . S
C879 C885 1.363 . S
C880 C881 1.363 . S
C880 C885 1.379 . S
C880 N887 1.356 . S
C881 C880 1.363 . S
C881 C884 1.363 . S
N882 C884 1.356 . S
N882 H894 0.984 . S
N882 H895 0.985 . S
N883 C885 1.356 . S
N883 H888 0.984 . S
N883 H889 0.985 . S
C884 C878 1.379 . S
C884 C881 1.363 . S
C884 N882 1.356 . S
C885 C879 1.363 . S
C885 C880 1.379 . S
C885 N883 1.356 . S
N886 C878 1.356 . S
N886 H892 0.984 . S
N886 H893 0.984 . S
N887 C880 1.356 . S
N887 H890 0.984 . S
N887 H891 0.985 . S
H888 N883 0.984 . S
H889 N883 0.985 . S
H890 N887 0.984 . S
H891 N887 0.985 . S
H892 N886 0.984 . S
H893 N886 0.984 . S
H894 N882 0.984 . S
H895 N882 0.985 . S
C896 C897 1.363 . S
C896 C902 1.379 . S
C896 N904 1.356 . S
C897 C896 1.363 . S
C897 C903 1.363 . S
C898 C899 1.363 . S
C898 C903 1.379 . S
C898 N905 1.356 . S
C899 C898 1.363 . S
C899 C902 1.363 . S
N900 C902 1.356 . S
N900 H912 0.984 . S
N900 H913 0.985 . S
N901 C903 1.356 . S
N901 H906 0.984 . S
N901 H907 0.985 . S
C902 C896 1.379 . S
C902 C899 1.363 . S
C902 N900 1.356 . S
C903 C897 1.363 . S
C903 C898 1.379 . S
C903 N901 1.356 . S
N904 C896 1.356 . S
N904 H910 0.984 . S
N904 H911 0.984 . S
N905 C898 1.356 . S
N905 H908 0.984 . S
N905 H909 0.985 . S
H906 N901 0.984 . S
H907 N901 0.985 . S
H908 N905 0.984 . S
H909 N905 0.985 . S
H910 N904 0.984 . S
H911 N904 0.984 . S
H912 N900 0.984 . S
H913 N900 0.985 . S
C914 C915 1.363 . S
C914 C920 1.379 . S
C914 N922 1.356 . S
C915 C914 1.363 . S
C915 C921 1.363 . S
C916 C917 1.363 . S
C916 C921 1.379 . S
C916 N923 1.356 . S
C917 C916 1.363 . S
C917 C920 1.363 . S
N918 C920 1.356 . S
N918 H930 0.984 . S
N918 H931 0.985 . S
N919 C921 1.356 . S
N919 H924 0.984 . S
N919 H925 0.985 . S
C920 C914 1.379 . S
C920 C917 1.363 . S
C920 N918 1.356 . S
C921 C915 1.363 . S
C921 C916 1.379 . S
C921 N919 1.356 . S
N922 C914 1.356 . S
N922 H928 0.984 . S
N922 H929 0.984 . S
N923 C916 1.356 . S
N923 H926 0.984 . S
N923 H927 0.985 . S
H924 N919 0.984 . S
H925 N919 0.985 . S
H926 N923 0.984 . S
H927 N923 0.985 . S
H928 N922 0.984 . S
H929 N922 0.984 . S
H930 N918 0.984 . S
H931 N918 0.985 . S
C932 C933 1.363 . S
C932 C938 1.379 . S
C932 N940 1.356 . S
C933 C932 1.363 . S
C933 C939 1.363 . S
C934 C935 1.363 . S
C934 C939 1.379 . S
C934 N941 1.356 . S
C935 C934 1.363 . S
C935 C938 1.363 . S
N936 C938 1.356 . S
N936 H948 0.984 . S
N936 H949 0.985 . S
N937 C939 1.356 . S
N937 H942 0.984 . S
N937 H943 0.985 . S
C938 C932 1.379 . S
C938 C935 1.363 . S
C938 N936 1.356 . S
C939 C933 1.363 . S
C939 C934 1.379 . S
C939 N937 1.356 . S
N940 C932 1.356 . S
N940 H946 0.984 . S
N940 H947 0.984 . S
N941 C934 1.356 . S
N941 H944 0.984 . S
N941 H945 0.985 . S
H942 N937 0.984 . S
H943 N937 0.985 . S
H944 N941 0.984 . S
H945 N941 0.985 . S
H946 N940 0.984 . S
H947 N940 0.984 . S
H948 N936 0.984 . S
H949 N936 0.985 . S
C950 C951 1.363 . S
C950 C956 1.379 . S
C950 N958 1.356 . S
C951 C950 1.363 . S
C951 C957 1.363 . S
C952 C953 1.363 . S
C952 C957 1.379 . S
C952 N959 1.356 . S
C953 C952 1.363 . S
C953 C956 1.363 . S
N954 C956 1.356 . S
N954 H966 0.984 . S
N954 H967 0.985 . S
N955 C957 1.356 . S
N955 H960 0.984 . S
N955 H961 0.985 . S
C956 C950 1.379 . S
C956 C953 1.363 . S
C956 N954 1.356 . S
C957 C951 1.363 . S
C957 C952 1.379 . S
C957 N955 1.356 . S
N958 C950 1.356 . S
N958 H964 0.984 . S
N958 H965 0.984 . S
N959 C952 1.356 . S
N959 H962 0.984 . S
N959 H963 0.985 . S
H960 N955 0.984 . S
H961 N955 0.985 . S
H962 N959 0.984 . S
H963 N959 0.985 . S
H964 N958 0.984 . S
H965 N958 0.984 . S
H966 N954 0.984 . S
H967 N954 0.985 . S
C968 C969 1.363 . S
C968 C974 1.379 . S
C968 N976 1.356 . S
C969 C968 1.363 . S
C969 C975 1.363 . S
C970 C971 1.363 . S
C970 C975 1.379 . S
C970 N977 1.356 . S
C971 C970 1.363 . S
C971 C974 1.363 . S
N972 C974 1.356 . S
N972 H984 0.984 . S
N972 H985 0.985 . S
N973 C975 1.356 . S
N973 H978 0.984 . S
N973 H979 0.985 . S
C974 C968 1.379 . S
C974 C971 1.363 . S
C974 N972 1.356 . S
C975 C969 1.363 . S
C975 C970 1.379 . S
C975 N973 1.356 . S
N976 C968 1.356 . S
N976 H982 0.984 . S
N976 H983 0.984 . S
N977 C970 1.356 . S
N977 H980 0.984 . S
N977 H981 0.985 . S
H978 N973 0.984 . S
H979 N973 0.985 . S
H980 N977 0.984 . S
H981 N977 0.985 . S
H982 N976 0.984 . S
H983 N976 0.984 . S
H984 N972 0.984 . S
H985 N972 0.985 . S
C986 C987 1.363 . S
C986 C992 1.379 . S
C986 N994 1.356 . S
C987 C986 1.363 . S
C987 C993 1.363 . S
C988 C989 1.363 . S
C988 C993 1.379 . S
C988 N995 1.356 . S
C989 C988 1.363 . S
C989 C992 1.363 . S
N990 C992 1.356 . S
N990 H1002 0.984 . S
N990 H1003 0.985 . S
N991 C993 1.356 . S
N991 H996 0.984 . S
N991 H997 0.985 . S
C992 C986 1.379 . S
C992 C989 1.363 . S
C992 N990 1.356 . S
C993 C987 1.363 . S
C993 C988 1.379 . S
C993 N991 1.356 . S
N994 C986 1.356 . S
N994 H1000 0.984 . S
N994 H1001 0.984 . S
N995 C988 1.356 . S
N995 H998 0.984 . S
N995 H999 0.985 . S
H996 N991 0.984 . S
H997 N991 0.985 . S
H998 N995 0.984 . S
H999 N995 0.985 . S
H1000 N994 0.984 . S
H1001 N994 0.984 . S
H1002 N990 0.984 . S
H1003 N990 0.985 . S
C1004 C1005 1.363 . S
C1004 C1010 1.379 . S
C1004 N1012 1.356 . S
C1005 C1004 1.363 . S
C1005 C1011 1.363 . S
C1006 C1007 1.363 . S
C1006 C1011 1.379 . S
C1006 N1013 1.356 . S
C1007 C1006 1.363 . S
C1007 C1010 1.363 . S
N1008 C1010 1.356 . S
N1008 H1020 0.984 . S
N1008 H1021 0.985 . S
N1009 C1011 1.356 . S
N1009 H1014 0.984 . S
N1009 H1015 0.985 . S
C1010 C1004 1.379 . S
C1010 C1007 1.363 . S
C1010 N1008 1.356 . S
C1011 C1005 1.363 . S
C1011 C1006 1.379 . S
C1011 N1009 1.356 . S
N1012 C1004 1.356 . S
N1012 H1018 0.984 . S
N1012 H1019 0.984 . S
N1013 C1006 1.356 . S
N1013 H1016 0.984 . S
N1013 H1017 0.985 . S
H1014 N1009 0.984 . S
H1015 N1009 0.985 . S
H1016 N1013 0.984 . S
H1017 N1013 0.985 . S
H1018 N1012 0.984 . S
H1019 N1012 0.984 . S
H1020 N1008 0.984 . S
H1021 N1008 0.985 . S
C1022 C1023 1.363 . S
C1022 C1028 1.379 . S
C1022 N1030 1.356 . S
C1023 C1022 1.363 . S
C1023 C1029 1.363 . S
C1024 C1025 1.363 . S
C1024 C1029 1.379 . S
C1024 N1031 1.356 . S
C1025 C1024 1.363 . S
C1025 C1028 1.363 . S
N1026 C1028 1.356 . S
N1026 H1038 0.984 . S
N1026 H1039 0.985 . S
N1027 C1029 1.356 . S
N1027 H1032 0.984 . S
N1027 H1033 0.985 . S
C1028 C1022 1.379 . S
C1028 C1025 1.363 . S
C1028 N1026 1.356 . S
C1029 C1023 1.363 . S
C1029 C1024 1.379 . S
C1029 N1027 1.356 . S
N1030 C1022 1.356 . S
N1030 H1036 0.984 . S
N1030 H1037 0.984 . S
N1031 C1024 1.356 . S
N1031 H1034 0.984 . S
N1031 H1035 0.985 . S
H1032 N1027 0.984 . S
H1033 N1027 0.985 . S
H1034 N1031 0.984 . S
H1035 N1031 0.985 . S
H1036 N1030 0.984 . S
H1037 N1030 0.984 . S
H1038 N1026 0.984 . S
H1039 N1026 0.985 . S
C1040 C1041 1.363 . S
C1040 C1046 1.379 . S
C1040 N1048 1.356 . S
C1041 C1040 1.363 . S
C1041 C1047 1.363 . S
C1042 C1043 1.363 . S
C1042 C1047 1.379 . S
C1042 N1049 1.356 . S
C1043 C1042 1.363 . S
C1043 C1046 1.363 . S
N1044 C1046 1.356 . S
N1044 H1056 0.984 . S
N1044 H1057 0.985 . S
N1045 C1047 1.356 . S
N1045 H1050 0.984 . S
N1045 H1051 0.985 . S
C1046 C1040 1.379 . S
C1046 C1043 1.363 . S
C1046 N1044 1.356 . S
C1047 C1041 1.363 . S
C1047 C1042 1.379 . S
C1047 N1045 1.356 . S
N1048 C1040 1.356 . S
N1048 H1054 0.984 . S
N1048 H1055 0.984 . S
N1049 C1042 1.356 . S
N1049 H1052 0.984 . S
N1049 H1053 0.985 . S
H1050 N1045 0.984 . S
H1051 N1045 0.985 . S
H1052 N1049 0.984 . S
H1053 N1049 0.985 . S
H1054 N1048 0.984 . S
H1055 N1048 0.984 . S
H1056 N1044 0.984 . S
H1057 N1044 0.985 . S
C1058 C1059 1.363 . S
C1058 C1064 1.379 . S
C1058 N1066 1.356 . S
C1059 C1058 1.363 . S
C1059 C1065 1.363 . S
C1060 C1061 1.363 . S
C1060 C1065 1.379 . S
C1060 N1067 1.356 . S
C1061 C1060 1.363 . S
C1061 C1064 1.363 . S
N1062 C1064 1.356 . S
N1062 H1074 0.984 . S
N1062 H1075 0.985 . S
N1063 C1065 1.356 . S
N1063 H1068 0.984 . S
N1063 H1069 0.985 . S
C1064 C1058 1.379 . S
C1064 C1061 1.363 . S
C1064 N1062 1.356 . S
C1065 C1059 1.363 . S
C1065 C1060 1.379 . S
C1065 N1063 1.356 . S
N1066 C1058 1.356 . S
N1066 H1072 0.984 . S
N1066 H1073 0.984 . S
N1067 C1060 1.356 . S
N1067 H1070 0.984 . S
N1067 H1071 0.985 . S
H1068 N1063 0.984 . S
H1069 N1063 0.985 . S
H1070 N1067 0.984 . S
H1071 N1067 0.985 . S
H1072 N1066 0.984 . S
H1073 N1066 0.984 . S
H1074 N1062 0.984 . S
H1075 N1062 0.985 . S
C1076 C1077 1.363 . S
C1076 C1082 1.379 . S
C1076 N1084 1.356 . S
C1077 C1076 1.363 . S
C1077 C1083 1.363 . S
C1078 C1079 1.363 . S
C1078 C1083 1.379 . S
C1078 N1085 1.356 . S
C1079 C1078 1.363 . S
C1079 C1082 1.363 . S
N1080 C1082 1.356 . S
N1080 H1092 0.984 . S
N1080 H1093 0.985 . S
N1081 C1083 1.356 . S
N1081 H1086 0.984 . S
N1081 H1087 0.985 . S
C1082 C1076 1.379 . S
C1082 C1079 1.363 . S
C1082 N1080 1.356 . S
C1083 C1077 1.363 . S
C1083 C1078 1.379 . S
C1083 N1081 1.356 . S
N1084 C1076 1.356 . S
N1084 H1090 0.984 . S
N1084 H1091 0.984 . S
N1085 C1078 1.356 . S
N1085 H1088 0.984 . S
N1085 H1089 0.985 . S
H1086 N1081 0.984 . S
H1087 N1081 0.985 . S
H1088 N1085 0.984 . S
H1089 N1085 0.985 . S
H1090 N1084 0.984 . S
H1091 N1084 0.984 . S
H1092 N1080 0.984 . S
H1093 N1080 0.985 . S
C1094 C1095 1.363 . S
C1094 C1100 1.379 . S
C1094 N1102 1.356 . S
C1095 C1094 1.363 . S
C1095 C1101 1.363 . S
C1096 C1097 1.363 . S
C1096 C1101 1.379 . S
C1096 N1103 1.356 . S
C1097 C1096 1.363 . S
C1097 C1100 1.363 . S
N1098 C1100 1.356 . S
N1098 H1110 0.984 . S
N1098 H1111 0.985 . S
N1099 C1101 1.356 . S
N1099 H1104 0.984 . S
N1099 H1105 0.985 . S
C1100 C1094 1.379 . S
C1100 C1097 1.363 . S
C1100 N1098 1.356 . S
C1101 C1095 1.363 . S
C1101 C1096 1.379 . S
C1101 N1099 1.356 . S
N1102 C1094 1.356 . S
N1102 H1108 0.984 . S
N1102 H1109 0.984 . S
N1103 C1096 1.356 . S
N1103 H1106 0.984 . S
N1103 H1107 0.985 . S
H1104 N1099 0.984 . S
H1105 N1099 0.985 . S
H1106 N1103 0.984 . S
H1107 N1103 0.985 . S
H1108 N1102 0.984 . S
H1109 N1102 0.984 . S
H1110 N1098 0.984 . S
H1111 N1098 0.985 . S
C1112 C1113 1.363 . S
C1112 C1118 1.379 . S
C1112 N1120 1.356 . S
C1113 C1112 1.363 . S
C1113 C1119 1.363 . S
C1114 C1115 1.363 . S
C1114 C1119 1.379 . S
C1114 N1121 1.356 . S
C1115 C1114 1.363 . S
C1115 C1118 1.363 . S
N1116 C1118 1.356 . S
N1116 H1128 0.984 . S
N1116 H1129 0.985 . S
N1117 C1119 1.356 . S
N1117 H1122 0.984 . S
N1117 H1123 0.985 . S
C1118 C1112 1.379 . S
C1118 C1115 1.363 . S
C1118 N1116 1.356 . S
C1119 C1113 1.363 . S
C1119 C1114 1.379 . S
C1119 N1117 1.356 . S
N1120 C1112 1.356 . S
N1120 H1126 0.984 . S
N1120 H1127 0.984 . S
N1121 C1114 1.356 . S
N1121 H1124 0.984 . S
N1121 H1125 0.985 . S
H1122 N1117 0.984 . S
H1123 N1117 0.985 . S
H1124 N1121 0.984 . S
H1125 N1121 0.985 . S
H1126 N1120 0.984 . S
H1127 N1120 0.984 . S
H1128 N1116 0.984 . S
H1129 N1116 0.985 . S
C1130 C1131 1.363 . S
C1130 C1136 1.379 . S
C1130 N1138 1.356 . S
C1131 C1130 1.363 . S
C1131 C1137 1.363 . S
C1132 C1133 1.363 . S
C1132 C1137 1.379 . S
C1132 N1139 1.356 . S
C1133 C1132 1.363 . S
C1133 C1136 1.363 . S
N1134 C1136 1.356 . S
N1134 H1146 0.984 . S
N1134 H1147 0.985 . S
N1135 C1137 1.356 . S
N1135 H1140 0.984 . S
N1135 H1141 0.985 . S
C1136 C1130 1.379 . S
C1136 C1133 1.363 . S
C1136 N1134 1.356 . S
C1137 C1131 1.363 . S
C1137 C1132 1.379 . S
C1137 N1135 1.356 . S
N1138 C1130 1.356 . S
N1138 H1144 0.984 . S
N1138 H1145 0.984 . S
N1139 C1132 1.356 . S
N1139 H1142 0.984 . S
N1139 H1143 0.985 . S
H1140 N1135 0.984 . S
H1141 N1135 0.985 . S
H1142 N1139 0.984 . S
H1143 N1139 0.985 . S
H1144 N1138 0.984 . S
H1145 N1138 0.984 . S
H1146 N1134 0.984 . S
H1147 N1134 0.985 . S
C1148 C1149 1.363 . S
C1148 C1154 1.379 . S
C1148 N1156 1.356 . S
C1149 C1148 1.363 . S
C1149 C1155 1.363 . S
C1150 C1151 1.363 . S
C1150 C1155 1.379 . S
C1150 N1157 1.356 . S
C1151 C1150 1.363 . S
C1151 C1154 1.363 . S
N1152 C1154 1.356 . S
N1152 H1164 0.984 . S
N1152 H1165 0.985 . S
N1153 C1155 1.356 . S
N1153 H1158 0.984 . S
N1153 H1159 0.985 . S
C1154 C1148 1.379 . S
C1154 C1151 1.363 . S
C1154 N1152 1.356 . S
C1155 C1149 1.363 . S
C1155 C1150 1.379 . S
C1155 N1153 1.356 . S
N1156 C1148 1.356 . S
N1156 H1162 0.984 . S
N1156 H1163 0.984 . S
N1157 C1150 1.356 . S
N1157 H1160 0.984 . S
N1157 H1161 0.985 . S
H1158 N1153 0.984 . S
H1159 N1153 0.985 . S
H1160 N1157 0.984 . S
H1161 N1157 0.985 . S
H1162 N1156 0.984 . S
H1163 N1156 0.984 . S
H1164 N1152 0.984 . S
H1165 N1152 0.985 . S
C1166 C1167 1.363 . S
C1166 C1172 1.379 . S
C1166 N1174 1.356 . S
C1167 C1166 1.363 . S
C1167 C1173 1.363 . S
C1168 C1169 1.363 . S
C1168 C1173 1.379 . S
C1168 N1175 1.356 . S
C1169 C1168 1.363 . S
C1169 C1172 1.363 . S
N1170 C1172 1.356 . S
N1170 H1182 0.984 . S
N1170 H1183 0.985 . S
N1171 C1173 1.356 . S
N1171 H1176 0.984 . S
N1171 H1177 0.985 . S
C1172 C1166 1.379 . S
C1172 C1169 1.363 . S
C1172 N1170 1.356 . S
C1173 C1167 1.363 . S
C1173 C1168 1.379 . S
C1173 N1171 1.356 . S
N1174 C1166 1.356 . S
N1174 H1180 0.984 . S
N1174 H1181 0.984 . S
N1175 C1168 1.356 . S
N1175 H1178 0.984 . S
N1175 H1179 0.985 . S
H1176 N1171 0.984 . S
H1177 N1171 0.985 . S
H1178 N1175 0.984 . S
H1179 N1175 0.985 . S
H1180 N1174 0.984 . S
H1181 N1174 0.984 . S
H1182 N1170 0.984 . S
H1183 N1170 0.985 . S
C611 C518 1.591 . S
C609 C35 1.364 . S
C629 C532 1.583 . S
C627 C115 1.383 . S
C647 C547 1.595 . S
C645 C177 1.392 . S
C663 C221 1.360 . S
C665 C505 1.581 . S
C681 C283 1.354 1_554 S
C683 C504 1.579 . S
C699 C363 1.379 . S
C701 C519 1.584 . S
C719 C533 1.629 . S
C717 C407 1.397 . S
C737 C546 1.600 . S
C735 C469 1.375 . S
C753 C159 1.356 . S
C755 C574 1.581 . S
C773 C588 1.616 . S
C771 C239 1.410 . S
C789 C53 1.384 . S
C791 C603 1.591 . S
C809 C560 1.563 . S
C807 C97 1.341 . S
C825 C425 1.391 . S
C827 C561 1.597 . S
C843 C487 1.387 . S
C845 C575 1.588 . S
C863 C589 1.595 . S
C861 C301 1.392 1_554 S
C879 C345 1.383 . S
C881 C602 1.609 . S
C899 C527 1.905 . S
C897 C29 1.903 . S
C917 C545 1.891 . S
C915 C109 1.854 . S
C933 C171 1.859 . S
C935 C503 1.902 . S
C951 C215 1.923 . S
C953 C513 1.924 . S
C969 C277 1.902 . S
C971 C541 1.902 . S
C989 C499 1.916 . S
C987 C357 1.858 . S
C1007 C517 1.891 . S
C1005 C401 1.910 . S
C1025 C531 1.887 . S
C1023 C463 1.907 . S
C1043 C583 1.902 . S
C1041 C153 1.902 . S
C1061 C601 1.880 . S
C1059 C233 1.850 . S
C1077 C47 1.852 . S
C1079 C555 1.908 . S
C1097 C569 1.904 . S
C1095 C91 1.903 . S
C1115 C597 1.922 . S
C1113 C419 1.864 . S
C1131 C481 1.865 . S
C1133 C559 1.910 . S
C1151 C573 1.903 . S
C1149 C295 1.861 . S
C1169 C587 1.889 . S
C1167 C339 1.908 . S
