# Generated by pormake.
# Topology ctn, (3,4)-cn, num edge types: 1
# Building blocks:
#     Node 0, Type 0, BuildingBlock: BETDAH_clean_linker_0, # of connection points: 3
#     Node 1, Type 0, BuildingBlock: BETDAH_clean_linker_0, # of connection points: 3
#     Node 2, Type 0, BuildingBlock: BETDAH_clean_linker_0, # of connection points: 3
#     Node 3, Type 0, BuildingBlock: BETDAH_clean_linker_0, # of connection points: 3
#     Node 4, Type 0, BuildingBlock: BETDAH_clean_linker_0, # of connection points: 3
#     Node 5, Type 0, BuildingBlock: BETDAH_clean_linker_0, # of connection points: 3
#     Node 6, Type 0, BuildingBlock: BETDAH_clean_linker_0, # of connection points: 3
#     Node 7, Type 0, BuildingBlock: BETDAH_clean_linker_0, # of connection points: 3
#     Node 8, Type 0, BuildingBlock: BETDAH_clean_linker_0, # of connection points: 3
#     Node 9, Type 0, BuildingBlock: BETDAH_clean_linker_0, # of connection points: 3
#     Node 10, Type 0, BuildingBlock: BETDAH_clean_linker_0, # of connection points: 3
#     Node 11, Type 0, BuildingBlock: BETDAH_clean_linker_0, # of connection points: 3
#     Node 12, Type 0, BuildingBlock: BETDAH_clean_linker_0, # of connection points: 3
#     Node 13, Type 0, BuildingBlock: BETDAH_clean_linker_0, # of connection points: 3
#     Node 14, Type 0, BuildingBlock: BETDAH_clean_linker_0, # of connection points: 3
#     Node 15, Type 0, BuildingBlock: BETDAH_clean_linker_0, # of connection points: 3
#     Node 16, Type 1, BuildingBlock: TATPOV_clean_sbu_0, # of connection points: 4
#     Node 17, Type 1, BuildingBlock: TATPOV_clean_sbu_0, # of connection points: 4
#     Node 18, Type 1, BuildingBlock: TATPOV_clean_sbu_0, # of connection points: 4
#     Node 19, Type 1, BuildingBlock: TATPOV_clean_sbu_0, # of connection points: 4
#     Node 20, Type 1, BuildingBlock: TATPOV_clean_sbu_0, # of connection points: 4
#     Node 21, Type 1, BuildingBlock: TATPOV_clean_sbu_0, # of connection points: 4
#     Node 22, Type 1, BuildingBlock: TATPOV_clean_sbu_0, # of connection points: 4
#     Node 23, Type 1, BuildingBlock: TATPOV_clean_sbu_0, # of connection points: 4
#     Node 24, Type 1, BuildingBlock: TATPOV_clean_sbu_0, # of connection points: 4
#     Node 25, Type 1, BuildingBlock: TATPOV_clean_sbu_0, # of connection points: 4
#     Node 26, Type 1, BuildingBlock: TATPOV_clean_sbu_0, # of connection points: 4
#     Node 27, Type 1, BuildingBlock: TATPOV_clean_sbu_0, # of connection points: 4
#     Edge 28, Type (0, 1), BuildingBlock: XUDNAN_clean_linker_2, # of connection points: 2
#     Edge 29, Type (0, 1), BuildingBlock: XUDNAN_clean_linker_2, # of connection points: 2
#     Edge 30, Type (0, 1), BuildingBlock: XUDNAN_clean_linker_2, # of connection points: 2
#     Edge 31, Type (0, 1), BuildingBlock: XUDNAN_clean_linker_2, # of connection points: 2
#     Edge 32, Type (0, 1), BuildingBlock: XUDNAN_clean_linker_2, # of connection points: 2
#     Edge 33, Type (0, 1), BuildingBlock: XUDNAN_clean_linker_2, # of connection points: 2
#     Edge 34, Type (0, 1), BuildingBlock: XUDNAN_clean_linker_2, # of connection points: 2
#     Edge 35, Type (0, 1), BuildingBlock: XUDNAN_clean_linker_2, # of connection points: 2
#     Edge 36, Type (0, 1), BuildingBlock: XUDNAN_clean_linker_2, # of connection points: 2
#     Edge 37, Type (0, 1), BuildingBlock: XUDNAN_clean_linker_2, # of connection points: 2
#     Edge 38, Type (0, 1), BuildingBlock: XUDNAN_clean_linker_2, # of connection points: 2
#     Edge 39, Type (0, 1), BuildingBlock: XUDNAN_clean_linker_2, # of connection points: 2
#     Edge 40, Type (0, 1), BuildingBlock: XUDNAN_clean_linker_2, # of connection points: 2
#     Edge 41, Type (0, 1), BuildingBlock: XUDNAN_clean_linker_2, # of connection points: 2
#     Edge 42, Type (0, 1), BuildingBlock: XUDNAN_clean_linker_2, # of connection points: 2
#     Edge 43, Type (0, 1), BuildingBlock: XUDNAN_clean_linker_2, # of connection points: 2
#     Edge 44, Type (0, 1), BuildingBlock: XUDNAN_clean_linker_2, # of connection points: 2
#     Edge 45, Type (0, 1), BuildingBlock: XUDNAN_clean_linker_2, # of connection points: 2
#     Edge 46, Type (0, 1), BuildingBlock: XUDNAN_clean_linker_2, # of connection points: 2
#     Edge 47, Type (0, 1), BuildingBlock: XUDNAN_clean_linker_2, # of connection points: 2
#     Edge 48, Type (0, 1), BuildingBlock: XUDNAN_clean_linker_2, # of connection points: 2
#     Edge 49, Type (0, 1), BuildingBlock: XUDNAN_clean_linker_2, # of connection points: 2
#     Edge 50, Type (0, 1), BuildingBlock: XUDNAN_clean_linker_2, # of connection points: 2
#     Edge 51, Type (0, 1), BuildingBlock: XUDNAN_clean_linker_2, # of connection points: 2
#     Edge 52, Type (0, 1), BuildingBlock: XUDNAN_clean_linker_2, # of connection points: 2
#     Edge 53, Type (0, 1), BuildingBlock: XUDNAN_clean_linker_2, # of connection points: 2
#     Edge 54, Type (0, 1), BuildingBlock: XUDNAN_clean_linker_2, # of connection points: 2
#     Edge 55, Type (0, 1), BuildingBlock: XUDNAN_clean_linker_2, # of connection points: 2
#     Edge 56, Type (0, 1), BuildingBlock: XUDNAN_clean_linker_2, # of connection points: 2
#     Edge 57, Type (0, 1), BuildingBlock: XUDNAN_clean_linker_2, # of connection points: 2
#     Edge 58, Type (0, 1), BuildingBlock: XUDNAN_clean_linker_2, # of connection points: 2
#     Edge 59, Type (0, 1), BuildingBlock: XUDNAN_clean_linker_2, # of connection points: 2
#     Edge 60, Type (0, 1), BuildingBlock: XUDNAN_clean_linker_2, # of connection points: 2
#     Edge 61, Type (0, 1), BuildingBlock: XUDNAN_clean_linker_2, # of connection points: 2
#     Edge 62, Type (0, 1), BuildingBlock: XUDNAN_clean_linker_2, # of connection points: 2
#     Edge 63, Type (0, 1), BuildingBlock: XUDNAN_clean_linker_2, # of connection points: 2
#     Edge 64, Type (0, 1), BuildingBlock: XUDNAN_clean_linker_2, # of connection points: 2
#     Edge 65, Type (0, 1), BuildingBlock: XUDNAN_clean_linker_2, # of connection points: 2
#     Edge 66, Type (0, 1), BuildingBlock: XUDNAN_clean_linker_2, # of connection points: 2
#     Edge 67, Type (0, 1), BuildingBlock: XUDNAN_clean_linker_2, # of connection points: 2
#     Edge 68, Type (0, 1), BuildingBlock: XUDNAN_clean_linker_2, # of connection points: 2
#     Edge 69, Type (0, 1), BuildingBlock: XUDNAN_clean_linker_2, # of connection points: 2
#     Edge 70, Type (0, 1), BuildingBlock: XUDNAN_clean_linker_2, # of connection points: 2
#     Edge 71, Type (0, 1), BuildingBlock: XUDNAN_clean_linker_2, # of connection points: 2
#     Edge 72, Type (0, 1), BuildingBlock: XUDNAN_clean_linker_2, # of connection points: 2
#     Edge 73, Type (0, 1), BuildingBlock: XUDNAN_clean_linker_2, # of connection points: 2
#     Edge 74, Type (0, 1), BuildingBlock: XUDNAN_clean_linker_2, # of connection points: 2
#     Edge 75, Type (0, 1), BuildingBlock: XUDNAN_clean_linker_2, # of connection points: 2
# Relax obj value: 0.047
# Max RMSD: 0.164
# Mean RMSD: 0.097
data_MOF--net-ctn--node1-TATPOV_clean_sbu_0--node2-BETDAH_clean_linker_0--edge1-XUDNAN_clean_linker_2
_symmetry_space_group_name_H-M    P1
_symmetry_Int_Tables_number       1
_symmetry_cell_setting            triclinic
loop_
_symmetry_equiv_pos_as_xyz
'x, y, z'
_cell_length_a     53.706453
_cell_length_b     53.726063
_cell_length_c     54.425399
_cell_angle_alpha  99.94166
_cell_angle_beta   91.544198
_cell_angle_gamma 96.107702
loop_
_atom_site_label
_atom_site_type_symbol
_atom_site_fract_x
_atom_site_fract_y
_atom_site_fract_z
_atom_type_partial_charge
H0 H 0.06562 0.01394 0.08925 0.0
H1 H 0.06438 0.01993 0.01117 0.0
H2 H 0.00297 0.04147 0.0559 0.0
C3 C 0.05675 0.0194 0.07318 0.0
C4 C 0.03334 0.02881 0.07562 0.0
C5 C 0.06813 0.01578 0.04999 0.0
C6 C 0.05598 0.02248 0.02918 0.0
C7 C 0.03251 0.03179 0.03144 0.0
C8 C 0.02116 0.03445 0.05445 0.0
N9 N 0.01901 0.03666 0.01039 0.0
C10 C 0.028 0.05433 0.99595 0.0
H11 H 0.3072 0.67104 0.25134 0.0
H12 H 0.33797 0.74745 0.2472 0.0
H13 H 0.26612 0.7176 0.21174 0.0
C14 C 0.30568 0.68904 0.24532 0.0
C15 C 0.28404 0.69213 0.23147 0.0
C16 C 0.32553 0.70866 0.25087 0.0
C17 C 0.3233 0.7317 0.2425 0.0
C18 C 0.30233 0.73487 0.22799 0.0
C19 C 0.28271 0.71497 0.22233 0.0
N20 N 0.30141 0.75874 0.22032 0.0
C21 C 0.28711 0.76299 0.20007 0.0
H22 H 0.04046 0.42347 0.04713 0.0
H23 H 0.03233 0.50278 0.05121 0.0
H24 H 0.04111 0.45632 0.98021 0.0
C25 C 0.03939 0.43961 0.03781 0.0
C26 C 0.04094 0.43655 0.01175 0.0
C27 C 0.03682 0.46347 0.05219 0.0
C28 C 0.03456 0.48434 0.04028 0.0
C29 C 0.03562 0.48149 0.01422 0.0
C30 C 0.03952 0.45791 1.0002 0.0
N31 N 0.03322 0.50221 0.00175 0.0
C32 C 0.01362 0.5171 0.00595 0.0
H33 H 0.8171 0.78292 0.17957 0.0
H34 H 0.76088 0.73839 0.21392 0.0
H35 H 0.78885 0.81371 0.25027 0.0
C36 C 0.8044 0.78114 0.19446 0.0
C37 C 0.80474 0.80128 0.21474 0.0
C38 C 0.78879 0.75821 0.19401 0.0
C39 C 0.773 0.75587 0.214 0.0
C40 C 0.77333 0.77592 0.23437 0.0
C41 C 0.78908 0.79834 0.23453 0.0
N42 N 0.75902 0.77415 0.25566 0.0
C43 C 0.73826 0.75668 0.25685 0.0
H44 H 0.09475 0.01474 0.43117 0.0
H45 H 0.10522 0.99485 0.50394 0.0
H46 H 0.03428 0.01563 0.48125 0.0
C47 C 0.08727 0.01093 0.44862 0.0
C48 C 0.0625 0.01523 0.4537 0.0
C49 C 0.10303 0.00406 0.4668 0.0
C50 C 0.09322 0.99991 0.48968 0.0
C51 C 0.06831 0.0039 0.49474 0.0
C52 C 0.05331 0.01203 0.47696 0.0
N53 N 0.05847 0.00199 0.5183 0.0
C54 C 0.06177 0.98211 0.53089 0.0
H55 H 0.26837 0.72598 0.82797 0.0
H56 H 0.20873 0.74455 0.78267 0.0
H57 H 0.24528 0.67786 0.75768 0.0
C58 C 0.25653 0.72173 0.81102 0.0
C59 C 0.25933 0.69992 0.79335 0.0
C60 C 0.23815 0.73775 0.80759 0.0
C61 C 0.22289 0.73227 0.78551 0.0
C62 C 0.22585 0.71085 0.76727 0.0
C63 C 0.24382 0.69473 0.77145 0.0
N64 N 0.21074 0.70453 0.74478 0.0
C65 C 0.19524 0.72067 0.73628 0.0
H66 H 0.92846 0.57773 0.52913 0.0
H67 H 0.99494 0.57899 0.48684 0.0
H68 H 0.95085 0.50795 0.48867 0.0
C69 C 0.94117 0.56758 0.51705 0.0
C70 C 0.93664 0.54102 0.50981 0.0
C71 C 0.9621 0.58124 0.50877 0.0
C72 C 0.97874 0.56841 0.49311 0.0
C73 C 0.97478 0.54182 0.48632 0.0
C74 C 0.95392 0.52837 0.49474 0.0
N75 N 0.99163 0.52775 0.47159 0.0
C76 C 0.00677 0.53695 0.4541 0.0
H77 H 0.85182 0.7593 0.82349 0.0
H78 H 0.81929 0.79972 0.77043 0.0
H79 H 0.77226 0.76046 0.81633 0.0
C80 C 0.83597 0.76598 0.81499 0.0
C81 C 0.81182 0.75804 0.82201 0.0
C82 C 0.83938 0.78076 0.79589 0.0
C83 C 0.81797 0.78934 0.78576 0.0
C84 C 0.794 0.78249 0.79366 0.0
C85 C 0.79104 0.76663 0.81133 0.0
N86 N 0.77227 0.78823 0.7815 0.0
C87 C 0.76776 0.81274 0.77936 0.0
H88 H 0.35009 0.28012 0.33549 0.0
H89 H 0.33979 0.35362 0.31867 0.0
H90 H 0.30361 0.32883 0.38075 0.0
C91 C 0.3418 0.29774 0.34001 0.0
C92 C 0.32566 0.30145 0.35998 0.0
C93 C 0.34757 0.31668 0.32552 0.0
C94 C 0.3355 0.33888 0.32972 0.0
C95 C 0.31933 0.34289 0.34951 0.0
C96 C 0.31518 0.32465 0.3649 0.0
N97 N 0.30817 0.3658 0.35544 0.0
C98 C 0.29856 0.37835 0.33766 0.0
H99 H 0.53218 0.91048 0.56361 0.0
H100 H 0.47907 0.96581 0.57042 0.0
H101 H 0.47902 0.91101 0.50311 0.0
C102 C 0.51706 0.91883 0.55565 0.0
C103 C 0.5074 0.90865 0.53132 0.0
C104 C 0.50678 0.93934 0.56998 0.0
C105 C 0.48715 0.95009 0.5595 0.0
C106 C 0.47734 0.93988 0.53528 0.0
C107 C 0.48724 0.9191 0.52155 0.0
N108 N 0.45667 0.94919 0.5246 0.0
C109 C 0.45246 0.97459 0.52871 0.0
H110 H 0.30143 0.29484 0.68147 0.0
H111 H 0.26682 0.23546 0.71745 0.0
H112 H 0.29641 0.3069 0.76144 0.0
C113 C 0.2959 0.28799 0.69833 0.0
C114 C 0.30019 0.30426 0.72156 0.0
C115 C 0.28428 0.26295 0.69659 0.0
C116 C 0.27566 0.2547 0.71834 0.0
C117 C 0.27989 0.27077 0.74163 0.0
C118 C 0.29262 0.2951 0.74319 0.0
N119 N 0.27242 0.26252 0.76393 0.0
C120 C 0.24887 0.2499 0.76608 0.0
H121 H 0.80834 0.16805 0.74754 0.0
H122 H 0.83293 0.24667 0.7454 0.0
H123 H 0.75903 0.2142 0.71728 0.0
C124 C 0.8053 0.18611 0.74237 0.0
C125 C 0.78199 0.18855 0.73125 0.0
C126 C 0.8241 0.20681 0.74768 0.0
C127 C 0.81885 0.23034 0.74189 0.0
C128 C 0.79565 0.23312 0.73084 0.0
C129 C 0.77714 0.21213 0.72547 0.0
N130 N 0.79127 0.25765 0.7266 0.0
C131 C 0.77713 0.26237 0.70645 0.0
H132 H 0.56931 0.5041 0.59483 0.0
H133 H 0.57466 0.54264 0.53176 0.0
H134 H 0.5152 0.55466 0.58218 0.0
C135 C 0.56234 0.51727 0.58404 0.0
C136 C 0.54083 0.52891 0.59145 0.0
C137 C 0.57457 0.52182 0.56243 0.0
C138 C 0.56538 0.53893 0.5484 0.0
C139 C 0.54412 0.55106 0.55585 0.0
C140 C 0.53201 0.54583 0.57716 0.0
N141 N 0.53377 0.56814 0.54223 0.0
C142 C 0.54408 0.57701 0.52176 0.0
H143 H 0.59344 0.52869 0.95065 0.0
H144 H 0.58739 0.50141 0.0205 0.0
H145 H 0.52164 0.49956 0.97369 0.0
C146 C 0.5822 0.5199 0.96375 0.0
C147 C 0.55616 0.51441 0.95904 0.0
C148 C 0.59367 0.51539 0.98592 0.0
C149 C 0.57884 0.50482 0.0033 0.0
C150 C 0.55282 0.49941 0.9988 0.0
C151 C 0.54172 0.50426 0.97688 0.0
N152 N 0.53693 0.49044 0.01649 0.0
C153 C 0.54325 0.47383 0.03193 0.0
H154 H 0.77738 0.21797 0.33001 0.0
H155 H 0.72377 0.24812 0.28616 0.0
H156 H 0.75933 0.18302 0.2538 0.0
C157 C 0.76668 0.21737 0.31273 0.0
C158 C 0.76972 0.19799 0.29253 0.0
C159 C 0.74991 0.2355 0.31097 0.0
C160 C 0.73702 0.23465 0.28788 0.0
C161 C 0.74089 0.21606 0.26707 0.0
C162 C 0.75727 0.19792 0.26956 0.0
N163 N 0.72811 0.21448 0.24357 0.0
C164 C 0.70809 0.22792 0.23954 0.0
H165 H 0.43158 0.07569 0.02984 0.0
H166 H 0.49066 0.08661 0.97944 0.0
H167 H 0.43614 0.02076 0.96303 0.0
C168 C 0.44066 0.06938 0.01268 0.0
C169 C 0.43139 0.04631 0.99741 0.0
C170 C 0.4621 0.08398 0.00639 0.0
C171 C 0.47431 0.0753 0.98451 0.0
C172 C 0.46474 0.05251 0.96879 0.0
C173 C 0.44341 0.03826 0.97534 0.0
N174 N 0.4755 0.04341 0.94592 0.0
C175 C 0.49885 0.05224 0.93846 0.0
Zn176 Zn 0.29009 0.85633 0.01264 0.0
Zn177 Zn 0.24959 0.88039 0.02113 0.0
O178 O 0.25037 0.85844 0.04935 0.0
O179 O 0.2834 0.83793 0.04133 0.0
O180 O 0.22106 0.90198 0.03004 0.0
O181 O 0.31303 0.88888 0.01735 0.0
O182 O 0.27932 0.90877 0.02248 0.0
C183 C 0.26489 0.84254 0.05463 0.0
C184 C 0.25418 0.8459 0.97067 0.0
O185 O 0.24092 0.85982 0.98521 0.0
O186 O 0.27565 0.8418 0.97815 0.0
C187 C 0.20296 0.90528 0.01578 0.0
O188 O 0.20067 0.89282 0.9927 0.0
C189 C 0.30303 0.9094 0.02085 0.0
Zn190 Zn 0.1142 0.4629 0.26993 0.0
Zn191 Zn 0.13845 0.50718 0.26296 0.0
O192 O 0.11962 0.51862 0.29507 0.0
O193 O 0.09906 0.48211 0.29978 0.0
O194 O 0.1579 0.53961 0.25589 0.0
O195 O 0.14691 0.44836 0.27344 0.0
O196 O 0.16676 0.48486 0.26806 0.0
C197 C 0.10421 0.50587 0.3069 0.0
C198 C 0.0987 0.47546 0.22395 0.0
O199 O 0.11448 0.49493 0.23157 0.0
O200 O 0.09534 0.45808 0.23691 0.0
C201 C 0.16164 0.54311 0.23367 0.0
O202 O 0.15248 0.52549 0.21486 0.0
C203 C 0.16725 0.46218 0.27202 0.0
Zn204 Zn 0.81216 0.58447 0.94965 0.0
Zn205 Zn 0.81396 0.6229 0.98911 0.0
O206 O 0.84702 0.60734 0.99334 0.0
O207 O 0.84587 0.57602 0.96126 0.0
O208 O 0.81295 0.64785 0.02141 0.0
O209 O 0.80951 0.6114 0.92829 0.0
O210 O 0.81273 0.64333 0.96017 0.0
C211 C 0.857 0.58891 0.98093 0.0
C212 C 0.77034 0.5785 0.97916 0.0
O213 O 0.7814 0.59938 0.99118 0.0
O214 O 0.77998 0.5671 0.96005 0.0
C215 C 0.81193 0.63725 0.0406 0.0
O216 O 0.81287 0.61257 0.0376 0.0
C217 C 0.81029 0.635 0.93671 0.0
Zn218 Zn 0.89021 0.01219 0.31007 0.0
Zn219 Zn 0.91405 0.02744 0.27307 0.0
O220 O 0.8874 0.05336 0.27897 0.0
O221 O 0.86658 0.03813 0.30843 0.0
O222 O 0.93523 0.03731 0.24522 0.0
O223 O 0.91985 0.02144 0.33382 0.0
O224 O 0.94104 0.03201 0.30232 0.0
C225 C 0.86963 0.05436 0.29414 0.0
C226 C 0.88833 0.97234 0.26858 0.0
O227 O 0.89957 0.99004 0.25872 0.0
O228 O 0.88274 0.97675 0.29122 0.0
C229 C 0.9296 0.0297 0.22208 0.0
O230 O 0.90805 0.01589 0.21528 0.0
C231 C 0.94017 0.02935 0.32514 0.0
Zn232 Zn 0.32145 0.1013 0.44217 0.0
Zn233 Zn 0.30695 0.12261 0.48811 0.0
O234 O 0.33995 0.10903 0.4964 0.0
O235 O 0.35299 0.09357 0.45934 0.0
O236 O 0.29583 0.13913 0.52141 0.0
O237 O 0.32146 0.13541 0.43094 0.0
O238 O 0.30842 0.15159 0.46774 0.0
C239 C 0.35615 0.09833 0.4829 0.0
C240 C 0.27427 0.07746 0.45708 0.0
O241 O 0.27892 0.09434 0.4766 0.0
O242 O 0.28924 0.07632 0.43937 0.0
C243 C 0.30931 0.15789 0.53443 0.0
O244 O 0.33084 0.16605 0.52605 0.0
C245 C 0.31461 0.15402 0.44578 0.0
Zn246 Zn 0.38248 0.52094 0.81487 0.0
Zn247 Zn 0.40822 0.53158 0.77619 0.0
O248 O 0.38663 0.56224 0.78243 0.0
O249 O 0.36665 0.55282 0.8151 0.0
O250 O 0.42909 0.53509 0.74607 0.0
O251 O 0.41411 0.52263 0.83568 0.0
O252 O 0.43564 0.53196 0.80398 0.0
C253 C 0.3712 0.56753 0.79954 0.0
C254 C 0.37246 0.48139 0.77351 0.0
O255 O 0.38807 0.49627 0.76412 0.0
O256 O 0.36613 0.48766 0.79575 0.0
C257 C 0.44135 0.51617 0.73962 0.0
O258 O 0.43971 0.49791 0.75295 0.0
C259 C 0.43493 0.52803 0.82642 0.0
Zn260 Zn 0.78979 0.35436 0.52017 0.0
Zn261 Zn 0.74918 0.37911 0.52483 0.0
O262 O 0.74681 0.35852 0.55436 0.0
O263 O 0.78082 0.33889 0.55002 0.0
O264 O 0.71854 0.3984 0.52601 0.0
O265 O 0.81195 0.38775 0.52413 0.0
O266 O 0.7784 0.40803 0.52855 0.0
C267 C 0.76119 0.3434 0.56156 0.0
C268 C 0.75732 0.34105 0.47673 0.0
O269 O 0.7449 0.35758 0.48905 0.0
O270 O 0.77734 0.33551 0.48617 0.0
C271 C 0.71361 0.41533 0.54408 0.0
O272 O 0.72843 0.4203 0.56434 0.0
C273 C 0.80215 0.40842 0.52764 0.0
Zn274 Zn 0.61101 0.96079 0.78047 0.0
Zn275 Zn 0.64046 0.9979 0.76643 0.0
O276 O 0.62688 0.01564 0.79972 0.0
O277 O 0.60649 0.98315 0.81309 0.0
O278 O 0.66346 0.02525 0.75455 0.0
O279 O 0.63873 0.93835 0.77778 0.0
O280 O 0.66422 0.97034 0.76945 0.0
C281 C 0.61429 0.0066 0.81638 0.0
C282 C 0.59302 0.97339 0.73488 0.0
O283 O 0.61362 0.98793 0.73751 0.0
O284 O 0.58675 0.96024 0.75136 0.0
C285 C 0.66077 0.04883 0.75829 0.0
O286 O 0.64203 0.05693 0.77125 0.0
C287 C 0.66053 0.94756 0.77348 0.0
Zn288 Zn 0.0371 0.26249 0.83401 0.0
Zn289 Zn 0.03942 0.22498 0.86081 0.0
O290 O 0.07024 0.22311 0.83903 0.0
O291 O 0.06847 0.25328 0.81659 0.0
O292 O 0.04351 0.19686 0.88074 0.0
O293 O 0.0394 0.28808 0.86569 0.0
O294 O 0.04145 0.2576 0.88786 0.0
C295 C 0.07939 0.23531 0.82263 0.0
C296 C 0.99292 0.22643 0.8268 0.0
O297 O 0.00471 0.21521 0.84157 0.0
O298 O 0.0028 0.24682 0.82073 0.0
C299 C 0.02669 0.18747 0.89359 0.0
O300 O 0.00463 0.19598 0.89422 0.0
C301 C 0.04103 0.28108 0.88665 0.0
Zn302 Zn 0.53658 0.75729 0.34336 0.0
Zn303 Zn 0.5383 0.71787 0.36685 0.0
O304 O 0.56928 0.71662 0.3444 0.0
O305 O 0.56765 0.74955 0.32556 0.0
O306 O 0.5407 0.68899 0.38629 0.0
O307 O 0.5386 0.78152 0.37617 0.0
O308 O 0.54015 0.74893 0.39546 0.0
C309 C 0.57831 0.73054 0.32924 0.0
C310 C 0.49241 0.72153 0.33274 0.0
O311 O 0.50329 0.70991 0.34782 0.0
O312 O 0.5031 0.74199 0.3275 0.0
C313 C 0.56195 0.68498 0.39481 0.0
O314 O 0.58213 0.69906 0.38993 0.0
C315 C 0.53994 0.77277 0.39626 0.0
Zn316 Zn 0.96809 0.80546 0.62249 0.0
Zn317 Zn 0.01157 0.79335 0.64149 0.0
O318 O 0.0217 0.82654 0.62757 0.0
O319 O 0.98628 0.83681 0.61303 0.0
O320 O 0.04378 0.78499 0.65701 0.0
O321 O 0.95307 0.80696 0.65645 0.0
O322 O 0.98807 0.79565 0.67095 0.0
C323 C 0.0098 0.84136 0.61689 0.0
C324 C 0.9826 0.75691 0.59824 0.0
O325 O 0.00099 0.76221 0.61425 0.0
O326 O 0.96625 0.77221 0.59772 0.0
C327 C 0.06551 0.79462 0.65256 0.0
O328 O 0.06771 0.81066 0.63687 0.0
C329 C 0.9658 0.80134 0.67422 0.0
Zn330 Zn 0.46507 0.29733 0.13279 0.0
Zn331 Zn 0.50913 0.29493 0.15716 0.0
O332 O 0.51783 0.3258 0.13996 0.0
O333 O 0.4823 0.32723 0.11936 0.0
O334 O 0.54081 0.2922 0.17694 0.0
O335 O 0.44753 0.30283 0.16538 0.0
O336 O 0.4833 0.29935 0.18451 0.0
C337 C 0.50495 0.33594 0.12516 0.0
C338 C 0.486 0.25029 0.11704 0.0
O339 O 0.50367 0.26092 0.13266 0.0
O340 O 0.46691 0.26161 0.11404 0.0
C341 C 0.55931 0.2824 0.16667 0.0
O342 O 0.55813 0.27452 0.14239 0.0
C343 C 0.46008 0.30241 0.1853 0.0
H344 H 0.27418 0.77101 0.83595 0.0
H345 H 0.19361 0.75204 0.82617 0.0
H346 H 0.18811 0.78241 0.86485 0.0
H347 H 0.2773 0.7703 0.89862 0.0
H348 H 0.3023 0.7959 0.9064 0.0
H349 H 0.29947 0.77693 0.87565 0.0
H350 H 0.29774 0.81746 0.8561 0.0
H351 H 0.30078 0.83667 0.88686 0.0
H352 H 0.27475 0.83878 0.866 0.0
H353 H 0.19217 0.8111 0.90808 0.0
H354 H 0.20552 0.83423 0.95077 0.0
H355 H 0.28327 0.8316 0.932 0.0
C356 C 0.25532 0.77359 0.84164 0.0
C357 C 0.23434 0.75914 0.82801 0.0
C358 C 0.20998 0.76317 0.83608 0.0
C359 C 0.20668 0.78031 0.85812 0.0
C360 C 0.22792 0.79338 0.87175 0.0
C361 C 0.25177 0.7903 0.8636 0.0
C362 C 0.27171 0.80423 0.88262 0.0
C363 C 0.28867 0.78573 0.89133 0.0
C364 C 0.28715 0.82556 0.87228 0.0
C365 C 0.25547 0.81493 0.90319 0.0
C366 C 0.23025 0.80901 0.89655 0.0
C367 C 0.21189 0.81606 0.91331 0.0
C368 C 0.2196 0.82917 0.93749 0.0
C369 C 0.2454 0.83456 0.94473 0.0
C370 C 0.26338 0.82767 0.9271 0.0
H371 H 0.00234 0.50751 0.40926 0.0
H372 H 0.04564 0.57379 0.45274 0.0
H373 H 0.07405 0.57606 0.41758 0.0
H374 H 0.05267 0.47829 0.38464 0.0
H375 H 0.03747 0.46537 0.35452 0.0
H376 H 0.01901 0.47146 0.38152 0.0
H377 H 0.99319 0.50006 0.35946 0.0
H378 H 0.01152 0.49392 0.33227 0.0
H379 H 0.00918 0.52619 0.34722 0.0
H380 H 0.09951 0.56831 0.378 0.0
H381 H 0.11997 0.55062 0.33942 0.0
H382 H 0.05978 0.48877 0.32384 0.0
C383 C 0.01747 0.52286 0.41105 0.0
C384 C 0.02182 0.54071 0.43326 0.0
C385 C 0.042 0.56021 0.43551 0.0
C386 C 0.05814 0.56159 0.41568 0.0
C387 C 0.05363 0.5433 0.39395 0.0
C388 C 0.03366 0.52437 0.39161 0.0
C389 C 0.03379 0.50574 0.36745 0.0
C390 C 0.03587 0.47863 0.37234 0.0
C391 C 0.01054 0.50654 0.3506 0.0
C392 C 0.05735 0.51659 0.35678 0.0
C393 C 0.06842 0.5385 0.37196 0.0
C394 C 0.09086 0.55127 0.36593 0.0
C395 C 0.10234 0.54114 0.34401 0.0
C396 C 0.09155 0.51826 0.32877 0.0
C397 C 0.06861 0.50621 0.33519 0.0
H398 H 0.83524 0.7554 0.86747 0.0
H399 H 0.77949 0.71499 0.81132 0.0
H400 H 0.77204 0.6808 0.83587 0.0
H401 H 0.86117 0.70024 0.8813 0.0
H402 H 0.86581 0.71186 0.91439 0.0
H403 H 0.86646 0.73397 0.89295 0.0
H404 H 0.83167 0.75648 0.91679 0.0
H405 H 0.83087 0.7344 0.93828 0.0
H406 H 0.80258 0.73819 0.9214 0.0
H407 H 0.77195 0.65012 0.86424 0.0
H408 H 0.77842 0.62411 0.89638 0.0
H409 H 0.83297 0.68384 0.93624 0.0
C410 C 0.82143 0.73937 0.86049 0.0
C411 C 0.80771 0.73799 0.83762 0.0
C412 C 0.78985 0.71669 0.82899 0.0
C413 C 0.78555 0.69711 0.84275 0.0
C414 C 0.79918 0.69906 0.86521 0.0
C415 C 0.81669 0.71959 0.8742 0.0
C416 C 0.82886 0.71646 0.89888 0.0
C417 C 0.85726 0.71558 0.89674 0.0
C418 C 0.82315 0.73765 0.92009 0.0
C419 C 0.81565 0.69081 0.90203 0.0
C420 C 0.79867 0.68125 0.88225 0.0
C421 C 0.78498 0.65744 0.87997 0.0
C422 C 0.78886 0.6428 0.89827 0.0
C423 C 0.80607 0.65204 0.9188 0.0
C424 C 0.81943 0.67653 0.92091 0.0
H425 H 0.0523 0.99434 0.40442 0.0
H426 H 0.03666 0.0566 0.46186 0.0
H427 H 0.00833 0.07101 0.43202 0.0
H428 H 0.04833 0.0282 0.35026 0.0
H429 H 0.03294 1.00032 0.33011 0.0
H430 H 0.05482 0.99701 0.35474 0.0
H431 H 0.02087 0.96786 0.37245 0.0
H432 H 0.99902 0.97094 0.34785 0.0
H433 H 0.99108 0.97913 0.37999 0.0
H434 H 0.9784 0.0757 0.39826 0.0
H435 H 0.94677 0.06896 0.36324 0.0
H436 H 0.98133 0.00389 0.32705 0.0
C437 C 0.04331 0.01134 0.41044 0.0
C438 C 0.04666 0.02449 0.43532 0.0
C439 C 0.0342 0.04628 0.44286 0.0
C440 C 0.0183 0.05471 0.426 0.0
C441 C 0.01509 0.04115 0.40167 0.0
C442 C 0.02715 0.01988 0.39387 0.0
C443 C 0.01835 0.00721 0.36753 0.0
C444 C 0.0399 0.00825 0.3496 0.0
C445 C 0.00663 0.97966 0.36694 0.0
C446 C 0.99881 0.02417 0.36209 0.0
C447 C 0.99762 0.04391 0.3819 0.0
C448 C 0.97953 0.06072 0.38238 0.0
C449 C 0.96172 0.05683 0.36244 0.0
C450 C 0.96224 0.03641 0.34234 0.0
C451 C 0.98128 0.02021 0.34184 0.0
H452 H 0.31987 0.25799 0.66158 0.0
H453 H 0.24489 0.22738 0.67679 0.0
H454 H 0.24305 0.19689 0.63694 0.0
H455 H 0.30867 0.25403 0.59517 0.0
H456 H 0.33955 0.24556 0.58784 0.0
H457 H 0.33467 0.26486 0.61745 0.0
H458 H 0.35391 0.23248 0.64041 0.0
H459 H 0.35871 0.213 0.61089 0.0
H460 H 0.3409 0.19954 0.63399 0.0
H461 H 0.24988 0.16938 0.59549 0.0
H462 H 0.26442 0.14757 0.5556 0.0
H463 H 0.33457 0.1972 0.56765 0.0
C464 C 0.30287 0.24516 0.65641 0.0
C465 C 0.28247 0.24516 0.67229 0.0
C466 C 0.26084 0.2276 0.66503 0.0
C467 C 0.25958 0.21031 0.64239 0.0
C468 C 0.2801 0.21084 0.62725 0.0
C469 C 0.30129 0.22789 0.63395 0.0
C470 C 0.32088 0.22453 0.61455 0.0
C471 C 0.32625 0.24868 0.60307 0.0
C472 C 0.34502 0.21693 0.62563 0.0
C473 C 0.30744 0.20286 0.59583 0.0
C474 C 0.28396 0.19518 0.60348 0.0
C475 C 0.2682 0.17529 0.5893 0.0
C476 C 0.27666 0.163 0.56669 0.0
C477 C 0.30063 0.17068 0.55847 0.0
C478 C 0.31614 0.19088 0.57334 0.0
H479 H 0.51685 0.56068 0.62648 0.0
H480 H 0.53268 0.48231 0.60586 0.0
H481 H 0.50978 0.47129 0.64172 0.0
H482 H 0.52131 0.5644 0.69315 0.0
H483 H 0.49554 0.5832 0.69901 0.0
H484 H 0.514 0.58543 0.67217 0.0
H485 H 0.4738 0.57412 0.64328 0.0
H486 H 0.45521 0.57188 0.67004 0.0
H487 H 0.45361 0.54537 0.64451 0.0
H488 H 0.48546 0.46844 0.6795 0.0
H489 H 0.45996 0.47355 0.71651 0.0
H490 H 0.45738 0.55318 0.71201 0.0
C491 C 0.51541 0.54116 0.62937 0.0
C492 C 0.52696 0.52247 0.61336 0.0
C493 C 0.52466 0.49719 0.61808 0.0
C494 C 0.51147 0.49065 0.63832 0.0
C495 C 0.50039 0.50949 0.65364 0.0
C496 C 0.50205 0.5342 0.64939 0.0
C497 C 0.4879 0.55062 0.66852 0.0
C498 C 0.50576 0.57218 0.68414 0.0
C499 C 0.46635 0.56111 0.65582 0.0
C500 C 0.47803 0.53122 0.68415 0.0
C501 C 0.48563 0.50768 0.67524 0.0
C502 C 0.47932 0.48675 0.68663 0.0
C503 C 0.46485 0.4899 0.70771 0.0
C504 C 0.45661 0.51376 0.71719 0.0
C505 C 0.46326 0.53468 0.70514 0.0
H506 H 0.79408 0.25745 0.66011 0.0
H507 H 0.7372 0.28934 0.70666 0.0
H508 H 0.72358 0.31116 0.67274 0.0
H509 H 0.81272 0.31137 0.63606 0.0
H510 H 0.8184 0.29518 0.60521 0.0
H511 H 0.82087 0.27924 0.63148 0.0
H512 H 0.78836 0.24232 0.60978 0.0
H513 H 0.78596 0.25805 0.58326 0.0
H514 H 0.7582 0.24923 0.59909 0.0
H515 H 0.7196 0.33323 0.63476 0.0
H516 H 0.72544 0.35269 0.59681 0.0
H517 H 0.78533 0.30599 0.57625 0.0
C518 C 0.77821 0.26835 0.66275 0.0
C519 C 0.76625 0.27141 0.68557 0.0
C520 C 0.74615 0.28645 0.68894 0.0
C521 C 0.73839 0.29893 0.66983 0.0
C522 C 0.75097 0.29606 0.64757 0.0
C523 C 0.77033 0.2809 0.64393 0.0
C524 C 0.78222 0.28244 0.6193 0.0
C525 C 0.8102 0.29268 0.62327 0.0
C526 C 0.77845 0.25647 0.60183 0.0
C527 C 0.76708 0.30134 0.60991 0.0
C528 C 0.74893 0.30886 0.62621 0.0
C529 C 0.73357 0.3272 0.62174 0.0
C530 C 0.737 0.33818 0.60016 0.0
C531 C 0.75583 0.33094 0.5835 0.0
C532 C 0.77072 0.31203 0.58849 0.0
H533 H 0.55511 0.9519 0.58951 0.0
H534 H 0.47752 0.946 0.6101 0.0
H535 H 0.49127 0.95708 0.65468 0.0
H536 H 0.57933 0.92449 0.6377 0.0
H537 H 0.60823 0.94541 0.64304 0.0
H538 H 0.59236 0.93898 0.61269 0.0
H539 H 0.59118 0.98727 0.61395 0.0
H540 H 0.60716 0.99388 0.64431 0.0
H541 H 0.57755 0.00584 0.6399 0.0
H542 H 0.51324 0.96357 0.69656 0.0
H543 H 0.5422 0.96875 0.73359 0.0
H544 H 0.60573 0.97343 0.68642 0.0
C545 C 0.54107 0.95329 0.60346 0.0
C546 C 0.51526 0.9482 0.59646 0.0
C547 C 0.49737 0.95014 0.61512 0.0
C548 C 0.505 0.95633 0.64045 0.0
C549 C 0.53058 0.96089 0.64677 0.0
C550 C 0.54837 0.95984 0.62885 0.0
C551 C 0.57468 0.96497 0.64076 0.0
C552 C 0.58952 0.9421 0.63309 0.0
C553 C 0.58845 0.98945 0.63435 0.0
C554 C 0.56889 0.96831 0.66815 0.0
C555 C 0.54331 0.96581 0.67115 0.0
C556 C 0.53329 0.96608 0.69452 0.0
C557 C 0.54985 0.96891 0.71539 0.0
C558 C 0.57609 0.9718 0.71279 0.0
C559 C 0.58571 0.97182 0.68891 0.0
H560 H 0.85581 0.24291 0.77974 0.0
H561 H 0.84951 0.16409 0.74206 0.0
H562 H 0.88993 0.15916 0.76194 0.0
H563 H 0.92054 0.25536 0.76888 0.0
H564 H 0.92744 0.27698 0.79806 0.0
H565 H 0.8966 0.2733 0.78323 0.0
H566 H 0.87739 0.26193 0.82363 0.0
H567 H 0.90824 0.26531 0.8385 0.0
H568 H 0.88795 0.23603 0.83668 0.0
H569 H 0.93204 0.16304 0.78591 0.0
H570 H 0.97401 0.17726 0.8071 0.0
H571 H 0.95416 0.25423 0.82438 0.0
C572 C 0.86281 0.22458 0.77536 0.0
C573 C 0.84892 0.20384 0.75945 0.0
C574 C 0.85911 0.18019 0.75473 0.0
C575 C 0.88225 0.17718 0.76584 0.0
C576 C 0.89532 0.19806 0.78137 0.0
C577 C 0.88611 0.2214 0.78576 0.0
C578 C 0.90467 0.24145 0.80138 0.0
C579 C 0.9128 0.26303 0.78702 0.0
C580 C 0.89391 0.25178 0.82654 0.0
C581 C 0.9259 0.22582 0.80485 0.0
C582 C 0.92002 0.20068 0.79371 0.0
C583 C 0.93686 0.18271 0.79464 0.0
C584 C 0.96055 0.19085 0.80678 0.0
C585 C 0.96718 0.21677 0.81717 0.0
C586 C 0.9495 0.23429 0.81644 0.0
H587 H 0.51817 0.90293 0.48211 0.0
H588 H 0.51886 0.86454 0.54592 0.0
H589 H 0.53124 0.82621 0.51895 0.0
H590 H 0.49023 0.85131 0.43941 0.0
H591 H 0.50796 0.85852 0.41337 0.0
H592 H 0.50237 0.88368 0.4383 0.0
H593 H 0.5502 0.89726 0.44507 0.0
H594 H 0.55595 0.87216 0.42003 0.0
H595 H 0.57076 0.87416 0.45053 0.0
H596 H 0.53902 0.79052 0.48362 0.0
H597 H 0.54253 0.76135 0.44367 0.0
H598 H 0.53652 0.82386 0.40364 0.0
C599 C 0.52124 0.88657 0.49049 0.0
C600 C 0.51756 0.88667 0.51608 0.0
C601 C 0.52187 0.86495 0.5264 0.0
C602 C 0.52881 0.84309 0.5112 0.0
C603 C 0.5316 0.84342 0.48584 0.0
C604 C 0.52817 0.86474 0.47566 0.0
C605 C 0.53077 0.85992 0.44771 0.0
C606 C 0.50638 0.86356 0.4339 0.0
C607 C 0.55326 0.87688 0.44041 0.0
C608 C 0.53551 0.83231 0.44355 0.0
C609 C 0.53615 0.8231 0.46572 0.0
C610 C 0.5389 0.79765 0.4662 0.0
C611 C 0.54083 0.78121 0.44341 0.0
C612 C 0.5399 0.7903 0.42049 0.0
C613 C 0.53754 0.81629 0.42079 0.0
H614 H 0.20644 0.27043 0.75867 0.0
H615 H 0.23581 0.20765 0.78564 0.0
H616 H 0.19363 0.19387 0.79936 0.0
H617 H 0.16889 0.28666 0.80806 0.0
H618 H 0.14349 0.29503 0.78992 0.0
H619 H 0.1748 0.29754 0.779 0.0
H620 H 0.15947 0.26807 0.73729 0.0
H621 H 0.128 0.2656 0.74804 0.0
H622 H 0.14278 0.23724 0.73781 0.0
H623 H 0.14958 0.19032 0.81453 0.0
H624 H 0.10725 0.19676 0.82939 0.0
H625 H 0.1069 0.26193 0.79209 0.0
C626 C 0.20368 0.25335 0.7668 0.0
C627 C 0.22393 0.23974 0.77085 0.0
C628 C 0.22018 0.21795 0.78212 0.0
C629 C 0.19637 0.21006 0.78995 0.0
C630 C 0.17668 0.2242 0.78619 0.0
C631 C 0.18007 0.24527 0.77468 0.0
C632 C 0.15651 0.25841 0.77465 0.0
C633 C 0.16122 0.28603 0.78875 0.0
C634 C 0.14607 0.25725 0.74785 0.0
C635 C 0.13956 0.24196 0.78866 0.0
C636 C 0.1514 0.22216 0.79494 0.0
C637 C 0.13998 0.2055 0.80936 0.0
C638 C 0.11595 0.20935 0.81777 0.0
C639 C 0.10366 0.22976 0.81181 0.0
C640 C 0.11559 0.24594 0.79672 0.0
H641 H 0.51386 0.59631 0.49149 0.0
H642 H 0.59132 0.58579 0.50628 0.0
H643 H 0.6043 0.61017 0.473 0.0
H644 H 0.51699 0.59223 0.42338 0.0
H645 H 0.49626 0.61638 0.42257 0.0
H646 H 0.49316 0.5964 0.44597 0.0
H647 H 0.49781 0.63643 0.4807 0.0
H648 H 0.50102 0.6565 0.45745 0.0
H649 H 0.52496 0.65953 0.48197 0.0
H650 H 0.60876 0.63844 0.44035 0.0
H651 H 0.60472 0.66783 0.41063 0.0
H652 H 0.52398 0.65955 0.41695 0.0
C653 C 0.53349 0.59878 0.4873 0.0
C654 C 0.55168 0.58909 0.50102 0.0
C655 C 0.57721 0.59295 0.49562 0.0
C656 C 0.58468 0.60674 0.47682 0.0
C657 C 0.56629 0.6164 0.4637 0.0
C658 C 0.54119 0.61246 0.46863 0.0
C659 C 0.52528 0.62585 0.45277 0.0
C660 C 0.50683 0.60656 0.43513 0.0
C661 C 0.51146 0.64576 0.46921 0.0
C662 C 0.54534 0.63835 0.43843 0.0
C663 C 0.56885 0.63257 0.44491 0.0
C664 C 0.59042 0.64285 0.43496 0.0
C665 C 0.58792 0.65959 0.41811 0.0
C666 C 0.56402 0.66593 0.41132 0.0
C667 C 0.54248 0.65487 0.42148 0.0
H668 H 0.85737 0.81861 0.76955 0.0
H669 H 0.87847 0.75059 0.79443 0.0
H670 H 0.91685 0.75377 0.77168 0.0
H671 H 0.87196 0.79784 0.70842 0.0
H672 H 0.8826 0.82893 0.70198 0.0
H673 H 0.85991 0.82563 0.72523 0.0
H674 H 0.88883 0.85705 0.75813 0.0
H675 H 0.91168 0.86045 0.73492 0.0
H676 H 0.92064 0.85086 0.76374 0.0
H677 H 0.95111 0.76115 0.7426 0.0
H678 H 0.9754 0.76938 0.70634 0.0
H679 H 0.92865 0.82792 0.69528 0.0
C680 C 0.8699 0.80431 0.77052 0.0
C681 C 0.8644 0.78452 0.78444 0.0
C682 C 0.88206 0.76663 0.78499 0.0
C683 C 0.90409 0.76808 0.77181 0.0
C684 C 0.90825 0.78721 0.75764 0.0
C685 C 0.8915 0.80483 0.75668 0.0
C686 C 0.89828 0.82101 0.73709 0.0
C687 C 0.87693 0.81816 0.717 0.0
C688 C 0.90528 0.84901 0.7492 0.0
C689 C 0.921 0.80914 0.72666 0.0
C690 C 0.92694 0.79024 0.73934 0.0
C691 C 0.94675 0.77603 0.73265 0.0
C692 C 0.96047 0.78087 0.71207 0.0
C693 C 0.95385 0.79924 0.69804 0.0
C694 C 0.93412 0.81379 0.70573 0.0
H695 H 0.01952 0.95688 0.54259 0.0
H696 H 0.10037 0.96133 0.55032 0.0
H697 H 0.09641 0.92624 0.57497 0.0
H698 H 0.00654 0.94433 0.60403 0.0
H699 H 0.97871 0.92286 0.59357 0.0
H700 H 0.98832 0.94819 0.57691 0.0
H701 H 0.98876 0.9155 0.53589 0.0
H702 H 0.979 0.89011 0.55239 0.0
H703 H 0.00712 0.88919 0.53507 0.0
H704 H 0.08264 0.88997 0.59863 0.0
H705 H 0.06085 0.85552 0.6177 0.0
H706 H 0.98918 0.87618 0.59401 0.0
C707 C 0.03635 0.95038 0.5495 0.0
C708 C 0.06022 0.96148 0.54472 0.0
C709 C 0.08194 0.95279 0.55391 0.0
C710 C 0.07982 0.933 0.56792 0.0
C711 C 0.05585 0.92237 0.57246 0.0
C712 C 0.03453 0.9308 0.56343 0.0
C713 C 0.01095 0.91625 0.57047 0.0
C714 C 0.99521 0.93397 0.58725 0.0
C715 C 0.99556 0.90191 0.54706 0.0
C716 C 0.02219 0.89813 0.5848 0.0
C717 C 0.04808 0.90191 0.5859 0.0
C718 C 0.06237 0.88694 0.59791 0.0
C719 C 0.04983 0.86745 0.60874 0.0
C720 C 0.02329 0.8631 0.60741 0.0
C721 C 0.00947 0.87895 0.59548 0.0
H722 H 0.14458 0.71464 0.73113 0.0
H723 H 0.21117 0.76167 0.71634 0.0
H724 H 0.18491 0.78702 0.69437 0.0
H725 H 0.1125 0.71188 0.67296 0.0
H726 H 0.08182 0.71331 0.68542 0.0
H727 H 0.10561 0.70005 0.70136 0.0
H728 H 0.10036 0.73194 0.7419 0.0
H729 H 0.07641 0.74521 0.72612 0.0
H730 H 0.10336 0.76554 0.74116 0.0
H731 H 0.15172 0.80525 0.67188 0.0
H732 H 0.11381 0.81639 0.6516 0.0
H733 H 0.06852 0.75771 0.6815 0.0
C734 C 0.15346 0.73056 0.72356 0.0
C735 C 0.17969 0.73655 0.72541 0.0
C736 C 0.19098 0.75712 0.71513 0.0
C737 C 0.17624 0.77152 0.70265 0.0
C738 C 0.15033 0.76502 0.70078 0.0
C739 C 0.13899 0.74514 0.71111 0.0
C740 C 0.11087 0.74164 0.70582 0.0
C741 C 0.1022 0.71515 0.69047 0.0
C742 C 0.09693 0.74638 0.7302 0.0
C743 C 0.1082 0.76238 0.69059 0.0
C744 C 0.13118 0.77566 0.68795 0.0
C745 C 0.13359 0.79514 0.674 0.0
C746 C 0.11194 0.80127 0.66248 0.0
C747 C 0.08816 0.78799 0.665 0.0
C748 C 0.08637 0.76835 0.67935 0.0
H749 H 0.98282 0.60751 0.55314 0.0
H750 H 0.95015 0.61697 0.48219 0.0
H751 H 0.95379 0.66367 0.49665 0.0
H752 H 0.95307 0.65435 0.59119 0.0
H753 H 0.97958 0.6655 0.61275 0.0
H754 H 0.97582 0.63317 0.59626 0.0
H755 H 0.02005 0.63978 0.57893 0.0
H756 H 0.02401 0.67213 0.59548 0.0
H757 H 0.02763 0.66559 0.56223 0.0
H758 H 0.95713 0.70838 0.52039 0.0
H759 H 0.9629 0.74883 0.55055 0.0
H760 H 0.99596 0.71073 0.60529 0.0
C761 C 0.97685 0.61958 0.54061 0.0
C762 C 0.96634 0.60902 0.51658 0.0
C763 C 0.95841 0.62503 0.5006 0.0
C764 C 0.96038 0.65144 0.50867 0.0
C765 C 0.97058 0.66137 0.53265 0.0
C766 C 0.97899 0.64599 0.54828 0.0
C767 C 0.98866 0.66141 0.57334 0.0
C768 C 0.97336 0.65311 0.59463 0.0
C769 C 0.01676 0.65962 0.57774 0.0
C770 C 0.98397 0.68781 0.56954 0.0
C771 C 0.97341 0.68734 0.54598 0.0
C772 C 0.96578 0.70907 0.53872 0.0
C773 C 0.96902 0.7319 0.55599 0.0
C774 C 0.98011 0.73288 0.58008 0.0
C775 C 0.98789 0.71058 0.58681 0.0
H776 H 0.83203 0.82875 0.25539 0.0
H777 H 0.81525 0.82843 0.17692 0.0
H778 H 0.83974 0.87079 0.18066 0.0
H779 H 0.82238 0.89133 0.27578 0.0
H780 H 0.84676 0.89744 0.30018 0.0
H781 H 0.83164 0.86568 0.29011 0.0
H782 H 0.87481 0.84952 0.28071 0.0
H783 H 0.8901 0.88132 0.2908 0.0
H784 H 0.89509 0.8642 0.26014 0.0
H785 H 0.86272 0.9156 0.19462 0.0
H786 H 0.88019 0.95818 0.21757 0.0
H787 H 0.87937 0.92853 0.28681 0.0
C788 C 0.83365 0.83742 0.23887 0.0
C789 C 0.82163 0.8253 0.21588 0.0
C790 C 0.82452 0.83723 0.19469 0.0
C791 C 0.83835 0.86131 0.19666 0.0
C792 C 0.84928 0.87308 0.2199 0.0
C793 C 0.84709 0.86138 0.24058 0.0
C794 C 0.85842 0.87864 0.26395 0.0
C795 C 0.83862 0.88356 0.28365 0.0
C796 C 0.88095 0.86777 0.27451 0.0
C797 C 0.86666 0.90226 0.25344 0.0
C798 C 0.86174 0.8987 0.22794 0.0
C799 C 0.86686 0.91847 0.21455 0.0
C800 C 0.87681 0.94256 0.22769 0.0
C801 C 0.88102 0.94662 0.25394 0.0
C802 C 0.8763 0.92602 0.26673 0.0
H803 H 0.80448 0.17436 0.26249 0.0
H804 H 0.76581 0.17249 0.33133 0.0
H805 H 0.78739 0.13613 0.33856 0.0
H806 H 0.80282 0.10633 0.24372 0.0
H807 H 0.83371 0.10751 0.23151 0.0
H808 H 0.81556 0.13384 0.23144 0.0
H809 H 0.85174 0.16446 0.25616 0.0
H810 H 0.87003 0.13823 0.25626 0.0
H811 H 0.86381 0.15785 0.2853 0.0
H812 H 0.81128 0.09994 0.33825 0.0
H813 H 0.83836 0.06581 0.33165 0.0
H814 H 0.86353 0.08999 0.26331 0.0
C815 C 0.80064 0.16625 0.27906 0.0
C816 C 0.78363 0.17644 0.2965 0.0
C817 C 0.77908 0.16534 0.31798 0.0
C818 C 0.79112 0.14457 0.32217 0.0
C819 C 0.80774 0.13503 0.30476 0.0
C820 C 0.81272 0.14545 0.2837 0.0
C821 C 0.83169 0.1313 0.26821 0.0
C822 C 0.82026 0.11902 0.24218 0.0
C823 C 0.85575 0.14902 0.26638 0.0
C824 C 0.83638 0.11127 0.28389 0.0
C825 C 0.82216 0.11389 0.30478 0.0
C826 C 0.8226 0.09769 0.32203 0.0
C827 C 0.83806 0.07824 0.31799 0.0
C828 C 0.85315 0.07508 0.29691 0.0
C829 C 0.8523 0.09193 0.27962 0.0
H830 H 0.42665 0.99504 0.99629 0.0
H831 H 0.38669 0.06136 0.01451 0.0
H832 H 0.3497 0.03395 0.02472 0.0
H833 H 0.37535 0.95284 0.9666 0.0
H834 H 0.38451 0.92568 0.97847 0.0
H835 H 0.40793 0.95082 0.97394 0.0
H836 H 0.42351 0.95624 0.02027 0.0
H837 H 0.40008 0.93111 0.02496 0.0
H838 H 0.40159 0.96196 0.04458 0.0
H839 H 0.31608 0.99831 0.0303 0.0
H840 H 0.28951 0.95804 0.03185 0.0
H841 H 0.35254 0.91593 0.01064 0.0
C842 C 0.41012 0.00382 0.00244 0.0
C843 C 0.40946 0.03028 0.00452 0.0
C844 C 0.38761 0.04111 0.01295 0.0
C845 C 0.36652 0.0257 0.01871 0.0
C846 C 0.36773 0.99957 0.01617 0.0
C847 C 0.38908 0.9888 0.00839 0.0
C848 C 0.38561 0.96026 0.00672 0.0
C849 C 0.38851 0.94661 0.97984 0.0
C850 C 0.40377 0.95191 0.02524 0.0
C851 C 0.35882 0.95652 0.01437 0.0
C852 C 0.34875 0.97935 0.01981 0.0
C853 C 0.32387 0.98036 0.02632 0.0
C854 C 0.30892 0.9574 0.02714 0.0
C855 C 0.31895 0.93382 0.02153 0.0
C856 C 0.34431 0.9336 0.01532 0.0
H857 H 0.25119 0.36547 0.31945 0.0
H858 H 0.31507 0.42244 0.32245 0.0
H859 H 0.28921 0.44886 0.30127 0.0
H860 H 0.22259 0.37396 0.25844 0.0
H861 H 0.19128 0.36918 0.26919 0.0
H862 H 0.21588 0.35342 0.28092 0.0
H863 H 0.20654 0.37301 0.3262 0.0
H864 H 0.18212 0.38895 0.31465 0.0
H865 H 0.20731 0.40704 0.3348 0.0
H866 H 0.25469 0.47106 0.28441 0.0
H867 H 0.21506 0.4869 0.27315 0.0
H868 H 0.17407 0.41497 0.28155 0.0
C869 C 0.25984 0.38315 0.31487 0.0
C870 C 0.28505 0.39192 0.32201 0.0
C871 C 0.2958 0.41539 0.31659 0.0
C872 C 0.28125 0.43045 0.30464 0.0
C873 C 0.25611 0.42159 0.29826 0.0
C874 C 0.24558 0.39834 0.30301 0.0
C875 C 0.21774 0.39404 0.29637 0.0
C876 C 0.21152 0.3713 0.27495 0.0
C877 C 0.20255 0.39057 0.31938 0.0
C878 C 0.21401 0.41883 0.28793 0.0
C879 C 0.23635 0.43439 0.28882 0.0
C880 C 0.23716 0.45887 0.28329 0.0
C881 C 0.21454 0.46773 0.27695 0.0
C882 C 0.19141 0.4522 0.27639 0.0
C883 C 0.19139 0.42731 0.28159 0.0
H884 H 0.14047 0.02915 0.4992 0.0
H885 H 0.12679 0.98338 0.42536 0.0
H886 H 0.17132 0.99326 0.41633 0.0
H887 H 0.17658 0.07783 0.4813 0.0
H888 H 0.19809 0.08493 0.50822 0.0
H889 H 0.16686 0.07022 0.51084 0.0
H890 H 0.18455 0.03288 0.52734 0.0
H891 H 0.21596 0.04771 0.52519 0.0
H892 H 0.20695 0.01547 0.50954 0.0
H893 H 0.21558 0.01328 0.41336 0.0
H894 H 0.25588 0.04091 0.41701 0.0
H895 H 0.23981 0.07389 0.4927 0.0
C896 C 0.14711 0.02028 0.48155 0.0
C897 C 0.13034 0.00521 0.4631 0.0
C898 C 0.13945 0.99481 0.4398 0.0
C899 C 0.16469 1.00029 0.43455 0.0
C900 C 0.18054 0.0161 0.45283 0.0
C901 C 0.17213 0.02571 0.47598 0.0
C902 C 0.19198 0.0445 0.49137 0.0
C903 C 0.18282 0.07092 0.49832 0.0
C904 C 0.20036 0.03454 0.51474 0.0
C905 C 0.21254 0.04471 0.47294 0.0
C906 C 0.20581 0.02794 0.45096 0.0
C907 C 0.22122 0.02615 0.43065 0.0
C908 C 0.24403 0.04199 0.43286 0.0
C909 C 0.25104 0.05957 0.45513 0.0
C910 C 0.23513 0.06058 0.47545 0.0
H911 H 0.73603 0.1837 0.75149 0.0
H912 H 0.78594 0.14276 0.70244 0.0
H913 H 0.75781 0.10292 0.70084 0.0
H914 H 0.72394 0.13763 0.78781 0.0
H915 H 0.69144 0.14181 0.79249 0.0
H916 H 0.71287 0.16791 0.78646 0.0
H917 H 0.68459 0.17262 0.7486 0.0
H918 H 0.66283 0.14669 0.7547 0.0
H919 H 0.6758 0.14544 0.72436 0.0
H920 H 0.72775 0.06705 0.70891 0.0
H921 H 0.69663 0.03732 0.72478 0.0
H922 H 0.66594 0.10115 0.76911 0.0
C923 C 0.74042 0.16649 0.73969 0.0
C924 C 0.76282 0.1662 0.72671 0.0
C925 C 0.76863 0.14325 0.71219 0.0
C926 C 0.75279 0.1206 0.71121 0.0
C927 C 0.73124 0.12126 0.72488 0.0
C928 C 0.72487 0.14361 0.73868 0.0
C929 C 0.70191 0.1386 0.75351 0.0
C930 C 0.70791 0.14698 0.78173 0.0
C931 C 0.67998 0.15161 0.74476 0.0
C932 C 0.69687 0.1099 0.74646 0.0
C933 C 0.71388 0.10034 0.72975 0.0
C934 C 0.71406 0.07431 0.72168 0.0
C935 C 0.69638 0.05757 0.73093 0.0
C936 C 0.67876 0.06688 0.74812 0.0
C937 C 0.67895 0.09344 0.75576 0.0
H938 H 0.4119 0.99571 0.54718 0.0
H939 H 0.47896 0.00925 0.50691 0.0
H940 H 0.46447 0.0488 0.49717 0.0
H941 H 0.37134 0.01126 0.50625 0.0
H942 H 0.3509 0.02687 0.52814 0.0
H943 H 0.36898 0.00335 0.53704 0.0
H944 H 0.38869 0.03577 0.57521 0.0
H945 H 0.37044 0.05946 0.56652 0.0
H946 H 0.40405 0.06604 0.57068 0.0
H947 H 0.43868 0.0799 0.48354 0.0
H948 H 0.4046 0.10243 0.46949 0.0
H949 H 0.35492 0.07114 0.52061 0.0
C950 C 0.42396 0.00775 0.53735 0.0
C951 C 0.44668 1.00002 0.52813 0.0
C952 C 0.46172 0.01539 0.51448 0.0
C953 C 0.45362 0.03782 0.5089 0.0
C954 C 0.4306 0.04463 0.51742 0.0
C955 C 0.41616 0.03032 0.53179 0.0
C956 C 0.39088 0.04007 0.53604 0.0
C957 C 0.36928 0.01915 0.52627 0.0
C958 C 0.38838 0.05099 0.56376 0.0
C959 C 0.3927 0.06094 0.52046 0.0
C960 C 0.41591 0.06349 0.51015 0.0
C961 C 0.42079 0.07881 0.4922 0.0
C962 C 0.40136 0.09145 0.48427 0.0
C963 C 0.37751 0.08895 0.4945 0.0
C964 C 0.37336 0.0741 0.5133 0.0
H965 H 0.61433 0.51213 0.59096 0.0
H966 H 0.58266 0.49815 0.51499 0.0
H967 H 0.6154 0.47025 0.50177 0.0
H968 H 0.68011 0.51213 0.57485 0.0
H969 H 0.68812 0.49643 0.60022 0.0
H970 H 0.66323 0.5166 0.60319 0.0
H971 H 0.63277 0.47941 0.61338 0.0
H972 H 0.65747 0.45906 0.61023 0.0
H973 H 0.62853 0.44961 0.59183 0.0
H974 H 0.64959 0.44115 0.49758 0.0
H975 H 0.6845 0.4156 0.50199 0.0
H976 H 0.69414 0.44884 0.5807 0.0
C977 C 0.6144 0.50337 0.57149 0.0
C978 C 0.59591 0.50737 0.55399 0.0
C979 C 0.59679 0.49567 0.52866 0.0
C980 C 0.61522 0.47964 0.52102 0.0
C981 C 0.63277 0.47563 0.53888 0.0
C982 C 0.6327 0.48741 0.56353 0.0
C983 C 0.65332 0.47954 0.57913 0.0
C984 C 0.67232 0.50254 0.58998 0.0
C985 C 0.64236 0.46611 0.59987 0.0
C986 C 0.66479 0.46117 0.55948 0.0
C987 C 0.65264 0.45917 0.5364 0.0
C988 C 0.65938 0.44277 0.51552 0.0
C989 C 0.67919 0.42823 0.51826 0.0
C990 C 0.69216 0.43022 0.54168 0.0
C991 C 0.68474 0.44696 0.56251 0.0
H992 H 0.75158 0.22965 0.36035 0.0
H993 H 0.73851 0.28501 0.31322 0.0
H994 H 0.73331 0.31662 0.35085 0.0
H995 H 0.71167 0.25048 0.4108 0.0
H996 H 0.73385 0.2456 0.43448 0.0
H997 H 0.73245 0.22621 0.40385 0.0
H998 H 0.77981 0.23931 0.39963 0.0
H999 H 0.78139 0.25855 0.43026 0.0
H1000 H 0.79141 0.27259 0.40387 0.0
H1001 H 0.73178 0.34314 0.3945 0.0
H1002 H 0.73895 0.36296 0.43919 0.0
H1003 H 0.75837 0.29143 0.45634 0.0
C1004 C 0.74781 0.2484 0.35765 0.0
C1005 C 0.74554 0.2546 0.3335 0.0
C1006 C 0.73991 0.27939 0.33132 0.0
C1007 C 0.73701 0.29759 0.35266 0.0
C1008 C 0.74002 0.29088 0.37611 0.0
C1009 C 0.74558 0.26691 0.37863 0.0
C1010 C 0.75058 0.26503 0.4057 0.0
C1011 C 0.73096 0.24568 0.4142 0.0
C1012 C 0.77738 0.2585 0.41011 0.0
C1013 C 0.74748 0.29188 0.41808 0.0
C1014 C 0.7407 0.30638 0.40086 0.0
C1015 C 0.73704 0.33191 0.4081 0.0
C1016 C 0.74102 0.34298 0.43347 0.0
C1017 C 0.74922 0.32866 0.45103 0.0
C1018 C 0.7521 0.30275 0.44322 0.0
H1019 H 0.53393 0.02044 0.93375 0.0
H1020 H 0.51484 0.09122 0.91489 0.0
H1021 H 0.55036 0.09188 0.88668 0.0
H1022 H 0.60475 0.03189 0.92665 0.0
H1023 H 0.60541 0.9989 0.91309 0.0
H1024 H 0.58331 0.00776 0.93651 0.0
H1025 H 0.54687 0.9842 0.90628 0.0
H1026 H 0.56871 0.97543 0.88286 0.0
H1027 H 0.54313 0.99262 0.87583 0.0
H1028 H 0.58242 0.08024 0.85472 0.0
H1029 H 0.60585 0.05679 0.82135 0.0
H1030 H 0.60301 0.99316 0.86083 0.0
C1031 C 0.53811 0.03666 0.92456 0.0
C1032 C 0.52234 0.0561 0.92676 0.0
C1033 C 0.52731 0.07653 0.91376 0.0
C1034 C 0.54742 0.07701 0.89776 0.0
C1035 C 0.56226 0.05695 0.89516 0.0
C1036 C 0.55792 0.03724 0.90845 0.0
C1037 C 0.57364 0.01598 0.89964 0.0
C1038 C 0.59293 0.0135 0.9202 0.0
C1039 C 0.55709 0.99059 0.89061 0.0
C1040 C 0.58632 0.02595 0.87825 0.0
C1041 C 0.58021 0.04993 0.87635 0.0
C1042 C 0.58779 0.06174 0.8564 0.0
C1043 C 0.60115 0.04833 0.83755 0.0
C1044 C 0.60625 0.02322 0.8386 0.0
C1045 C 0.59954 0.01244 0.85969 0.0
H1046 H 0.35534 0.26473 0.3702 0.0
H1047 H 0.28271 0.29166 0.38541 0.0
H1048 H 0.27377 0.25927 0.41168 0.0
H1049 H 0.33112 0.19889 0.36172 0.0
H1050 H 0.35913 0.18946 0.37473 0.0
H1051 H 0.36112 0.21669 0.3594 0.0
H1052 H 0.38341 0.24454 0.39917 0.0
H1053 H 0.38132 0.21743 0.41471 0.0
H1054 H 0.36855 0.24599 0.42861 0.0
H1055 H 0.27287 0.224 0.43706 0.0
H1056 H 0.27766 0.18503 0.45452 0.0
H1057 H 0.34755 0.17746 0.41738 0.0
C1058 C 0.33735 0.26388 0.37865 0.0
C1059 C 0.32 0.28142 0.37575 0.0
C1060 C 0.2969 0.27932 0.3878 0.0
C1061 C 0.29146 0.26073 0.40268 0.0
C1062 C 0.30899 0.24387 0.40497 0.0
C1063 C 0.33123 0.24495 0.39287 0.0
C1064 C 0.346 0.22331 0.39669 0.0
C1065 C 0.34954 0.20607 0.37165 0.0
C1066 C 0.37132 0.23343 0.41063 0.0
C1067 C 0.32853 0.20986 0.41281 0.0
C1068 C 0.30754 0.22235 0.41786 0.0
C1069 C 0.28911 0.21394 0.43305 0.0
C1070 C 0.29202 0.19191 0.44296 0.0
C1071 C 0.31285 0.17829 0.43708 0.0
C1072 C 0.33134 0.18746 0.42192 0.0
H1073 H 0.51038 0.53177 0.95404 0.0
H1074 H 0.57355 0.50812 0.91132 0.0
H1075 H 0.55116 0.51351 0.87261 0.0
H1076 H 0.46445 0.49665 0.91152 0.0
H1077 H 0.44233 0.51979 0.91682 0.0
H1078 H 0.46485 0.51768 0.94121 0.0
H1079 H 0.48065 0.56548 0.94423 0.0
H1080 H 0.45816 0.56774 0.91977 0.0
H1081 H 0.49099 0.57713 0.91663 0.0
H1082 H 0.51995 0.51864 0.83794 0.0
H1083 H 0.48245 0.52073 0.811 0.0
H1084 H 0.43962 0.53782 0.87705 0.0
C1085 C 0.51965 0.52772 0.93662 0.0
C1086 C 0.54377 0.51945 0.93584 0.0
C1087 C 0.55524 0.51484 0.91255 0.0
C1088 C 0.54262 0.51775 0.89042 0.0
C1089 C 0.51856 0.52528 0.89188 0.0
C1090 C 0.50724 0.53014 0.91445 0.0
C1091 C 0.48056 0.53587 0.91104 0.0
C1092 C 0.46197 0.51633 0.92071 0.0
C1093 C 0.47742 0.56318 0.92366 0.0
C1094 C 0.47835 0.53294 0.88295 0.0
C1095 C 0.50053 0.52731 0.87214 0.0
C1096 C 0.50255 0.52318 0.84625 0.0
C1097 C 0.48122 0.52445 0.83111 0.0
C1098 C 0.45817 0.52932 0.84197 0.0
C1099 C 0.45697 0.53395 0.8682 0.0
H1100 H 0.79252 0.75869 0.14362 0.0
H1101 H 0.78914 0.70815 0.198 0.0
H1102 H 0.79404 0.67198 0.16455 0.0
H1103 H 0.75907 0.71403 0.09264 0.0
H1104 H 0.77846 0.72462 0.06909 0.0
H1105 H 0.77352 0.74644 0.09714 0.0
H1106 H 0.82154 0.75595 0.10592 0.0
H1107 H 0.82665 0.73408 0.07797 0.0
H1108 H 0.83992 0.73006 0.10761 0.0
H1109 H 0.80102 0.64171 0.1259 0.0
H1110 H 0.80813 0.61862 0.08402 0.0
H1111 H 0.80763 0.68859 0.05426 0.0
C1112 C 0.79278 0.74001 0.1485 0.0
C1113 C 0.79029 0.73627 0.17348 0.0
C1114 C 0.79054 0.71146 0.17899 0.0
C1115 C 0.79351 0.69081 0.16014 0.0
C1116 C 0.7962 0.69523 0.13583 0.0
C1117 C 0.79575 0.71915 0.12989 0.0
C1118 C 0.79942 0.71869 0.10228 0.0
C1119 C 0.77623 0.7264 0.08954 0.0
C1120 C 0.8233 0.7357 0.09821 0.0
C1121 C 0.80223 0.69079 0.09368 0.0
C1122 C 0.80029 0.67766 0.11339 0.0
C1123 C 0.80248 0.65175 0.11029 0.0
C1124 C 0.80657 0.63881 0.08638 0.0
C1125 C 0.80845 0.65175 0.06578 0.0
C1126 C 0.80631 0.67815 0.06959 0.0
H1127 H 0.9845 0.01465 0.08582 0.0
H1128 H 0.05565 0.05113 0.12098 0.0
H1129 H 0.03636 0.05711 0.16202 0.0
H1130 H 0.94459 0.05422 0.12447 0.0
H1131 H 0.92071 0.02825 0.12561 0.0
H1132 H 0.93988 0.02771 0.0989 0.0
H1133 H 0.95307 0.98405 0.1049 0.0
H1134 H 0.93392 0.98443 0.13157 0.0
H1135 H 0.96676 0.98072 0.1346 0.0
H1136 H 0.00943 0.05867 0.19928 0.0
H1137 H 0.97748 0.05378 0.23037 0.0
H1138 H 0.92393 0.01571 0.17099 0.0
C1139 C 0.99594 0.02415 0.10213 0.0
C1140 C 0.02157 0.03252 0.10022 0.0
C1141 C 0.03603 0.04443 0.12205 0.0
C1142 C 0.0252 0.04805 0.1454 0.0
C1143 C 0.9999 0.03956 0.14664 0.0
C1144 C 0.98547 0.02775 0.12561 0.0
C1145 C 0.95897 0.01951 0.13219 0.0
C1146 C 0.93991 0.03325 0.11954 0.0
C1147 C 0.95283 0.99045 0.12542 0.0
C1148 C 0.96078 0.0284 0.16023 0.0
C1149 C 0.98449 0.04011 0.16816 0.0
C1150 C 0.99078 0.04959 0.19328 0.0
C1151 C 0.97246 0.04674 0.2108 0.0
C1152 C 0.94814 0.03437 0.20318 0.0
C1153 C 0.94228 0.02533 0.17747 0.0
H1154 H 0.30565 0.76066 0.15445 0.0
H1155 H 0.24465 0.78602 0.19909 0.0
H1156 H 0.22963 0.80675 0.16493 0.0
H1157 H 0.31984 0.81609 0.13088 0.0
H1158 H 0.32743 0.80086 0.10026 0.0
H1159 H 0.33112 0.78527 0.12661 0.0
H1160 H 0.30215 0.74579 0.1041 0.0
H1161 H 0.29856 0.76119 0.07752 0.0
H1162 H 0.27127 0.74965 0.09256 0.0
H1163 H 0.22424 0.8285 0.12719 0.0
H1164 H 0.22838 0.84825 0.08936 0.0
H1165 H 0.2932 0.80827 0.0701 0.0
C1166 C 0.28868 0.76992 0.15662 0.0
C1167 C 0.27591 0.77145 0.17898 0.0
C1168 C 0.25429 0.78433 0.18174 0.0
C1169 C 0.24572 0.79619 0.1625 0.0
C1170 C 0.25905 0.79486 0.14071 0.0
C1171 C 0.27996 0.78181 0.13764 0.0
C1172 C 0.29207 0.78465 0.11335 0.0
C1173 C 0.31921 0.79748 0.11807 0.0
C1174 C 0.29093 0.75878 0.09585 0.0
C1175 C 0.27516 0.80183 0.10347 0.0
C1176 C 0.25608 0.8074 0.11933 0.0
C1177 C 0.23893 0.82397 0.1145 0.0
C1178 C 0.24144 0.83515 0.09299 0.0
C1179 C 0.26105 0.82982 0.07665 0.0
C1180 C 0.27787 0.81271 0.08202 0.0
H1181 H 0.06889 0.49672 0.08517 0.0
H1182 H 0.00842 0.43565 0.08072 0.0
H1183 H 0.01527 0.43523 0.12572 0.0
H1184 H 0.109 0.47281 0.12302 0.0
H1185 H 0.12193 0.50277 0.14148 0.0
H1186 H 0.1097 0.50163 0.11017 0.0
H1187 H 0.0796 0.53479 0.12633 0.0
H1188 H 0.09201 0.53632 0.15774 0.0
H1189 H 0.05878 0.529 0.15067 0.0
H1190 H 0.03216 0.43719 0.16885 0.0
H1191 H 0.05678 0.44262 0.20857 0.0
H1192 H 0.10675 0.50263 0.1857 0.0
C1193 C 0.05653 0.48396 0.09397 0.0
C1194 C 0.03794 0.4664 0.07971 0.0
C1195 C 0.02263 0.44933 0.09149 0.0
C1196 C 0.02637 0.44899 0.11698 0.0
C1197 C 0.04546 0.46591 0.13038 0.0
C1198 C 0.06015 0.48328 0.11941 0.0
C1199 C 0.08089 0.49768 0.13749 0.0
C1200 C 0.10691 0.49345 0.12743 0.0
C1201 C 0.07761 0.52614 0.14341 0.0
C1202 C 0.07606 0.48506 0.16002 0.0
C1203 C 0.05538 0.46698 0.15553 0.0
C1204 C 0.04813 0.45158 0.17277 0.0
C1205 C 0.06237 0.45471 0.19522 0.0
C1206 C 0.08368 0.4731 0.20029 0.0
C1207 C 0.09041 0.48863 0.1825 0.0
H1208 H 0.37427 0.72644 0.2439 0.0
H1209 H 0.32931 0.68306 0.29046 0.0
H1210 H 0.36771 0.67791 0.31423 0.0
H1211 H 0.42891 0.69215 0.24276 0.0
H1212 H 0.45054 0.72053 0.24456 0.0
H1213 H 0.41977 0.71875 0.22989 0.0
H1214 H 0.41131 0.75981 0.25971 0.0
H1215 H 0.44207 0.76181 0.27432 0.0
H1216 H 0.41487 0.76132 0.29299 0.0
H1217 H 0.41162 0.67927 0.33427 0.0
H1218 H 0.45597 0.68952 0.35003 0.0
H1219 H 0.47077 0.73352 0.29121 0.0
C1220 C 0.37235 0.71592 0.25914 0.0
C1221 C 0.34863 0.70512 0.26517 0.0
C1222 C 0.34723 0.69118 0.2851 0.0
C1223 C 0.36897 0.68822 0.2988 0.0
C1224 C 0.392 0.6993 0.29241 0.0
C1225 C 0.39373 0.71297 0.27309 0.0
C1226 C 0.42036 0.72432 0.27075 0.0
C1227 C 0.43049 0.71327 0.24549 0.0
C1228 C 0.42225 0.75354 0.27469 0.0
C1229 C 0.43334 0.71532 0.29206 0.0
C1230 C 0.41685 0.70059 0.30417 0.0
C1231 C 0.4247 0.6907 0.32483 0.0
C1232 C 0.44992 0.69652 0.3336 0.0
C1233 C 0.4668 0.71235 0.32189 0.0
C1234 C 0.45834 0.7214 0.30062 0.0
H1235 H 0.02075 0.41604 0.96462 0.0
H1236 H 0.0677 0.39917 0.02456 0.0
H1237 H 0.07069 0.35647 1.00033 0.0
H1238 H 0.98775 0.354 0.94552 0.0
H1239 H 0.98805 0.35554 0.9127 0.0
H1240 H 0.98839 0.38428 0.93539 0.0
H1241 H 0.02894 0.40332 0.9175 0.0
H1242 H 0.02861 0.37474 0.89462 0.0
H1243 H 0.05592 0.38589 0.91511 0.0
H1244 H 0.06804 0.31491 0.96932 0.0
H1245 H 0.06346 0.28012 0.93245 0.0
H1246 H 0.02146 0.32619 0.89217 0.0
C1247 C 0.03194 0.40359 0.97266 0.0
C1248 C 0.04373 0.41108 0.99673 0.0
C1249 C 0.0579 0.39382 0.00647 0.0
C1250 C 0.05985 0.3695 0.99278 0.0
C1251 C 0.04782 0.36276 0.96922 0.0
C1252 C 0.03444 0.37947 0.95913 0.0
C1253 C 0.02423 0.36814 0.93297 0.0
C1254 C 0.99539 0.36533 0.93158 0.0
C1255 C 0.03508 0.38396 0.91393 0.0
C1256 C 0.03408 0.3425 0.92985 0.0
C1257 C 0.04732 0.33951 0.95106 0.0
C1258 C 0.05782 0.3171 0.95256 0.0
C1259 C 0.05506 0.29743 0.93163 0.0
C1260 C 0.0423 0.3006 0.90948 0.0
C1261 C 0.03154 0.32335 0.90879 0.0
H1262 H 0.69186 0.76816 0.24851 0.0
H1263 H 0.73372 0.71619 0.28059 0.0
H1264 H 0.69501 0.69912 0.29881 0.0
H1265 H 0.65807 0.78546 0.2992 0.0
H1266 H 0.62931 0.78812 0.28251 0.0
H1267 H 0.6587 0.79236 0.26794 0.0
H1268 H 0.64264 0.75686 0.23066 0.0
H1269 H 0.61297 0.75269 0.245 0.0
H1270 H 0.63045 0.72591 0.23642 0.0
H1271 H 0.65294 0.6926 0.31863 0.0
H1272 H 0.61178 0.69688 0.33751 0.0
H1273 H 0.59831 0.75365 0.29235 0.0
C1274 C 0.69252 0.75243 0.25848 0.0
C1275 C 0.71534 0.74291 0.26275 0.0
C1276 C 0.71607 0.72314 0.27671 0.0
C1277 C 0.69424 0.71344 0.28715 0.0
C1278 C 0.67197 0.72378 0.2833 0.0
C1279 C 0.67096 0.74267 0.26903 0.0
C1280 C 0.64565 0.75263 0.26989 0.0
C1281 C 0.6481 0.78132 0.28053 0.0
C1282 C 0.63213 0.74666 0.24395 0.0
C1283 C 0.63286 0.73717 0.28764 0.0
C1284 C 0.64808 0.72033 0.29494 0.0
C1285 C 0.64071 0.70539 0.31266 0.0
C1286 C 0.61732 0.70796 0.32333 0.0
C1287 C 0.60177 0.72557 0.31642 0.0
C1288 C 0.60963 0.73992 0.298 0.0
H1289 H 0.99544 0.08402 0.98115 0.0
H1290 H 0.07249 0.06743 0.97626 0.0
H1291 H 0.0809 0.10006 0.9493 0.0
H1292 H 0.98676 0.09368 0.91796 0.0
H1293 H 0.96746 0.11909 0.92598 0.0
H1294 H 0.96789 0.09478 0.94495 0.0
H1295 H 0.98037 0.12927 0.98409 0.0
H1296 H 0.97994 0.15369 0.96525 0.0
H1297 H 0.00773 0.15178 0.98385 0.0
H1298 H 0.0803 0.13435 0.92245 0.0
H1299 H 0.07126 0.16762 0.8984 0.0
H1300 H 0.99434 0.16164 0.92127 0.0
C1301 C 0.01408 0.08739 0.9744 0.0
C1302 C 0.03341 0.07347 0.98061 0.0
C1303 C 0.05755 0.0781 0.97157 0.0
C1304 C 0.06243 0.09653 0.9563 0.0
C1305 C 0.0429 0.11001 0.95038 0.0
C1306 C 0.01921 0.10566 0.9592 0.0
C1307 C 0.00143 0.12255 0.95009 0.0
C1308 C 0.9796 0.10657 0.93378 0.0
C1309 C 0.99181 0.14038 0.97214 0.0
C1310 C 0.01875 0.13715 0.93474 0.0
C1311 C 0.04258 0.12964 0.93509 0.0
C1312 C 0.06171 0.14037 0.9221 0.0
C1313 C 0.05637 0.15927 0.90846 0.0
C1314 C 0.03208 0.16732 0.90791 0.0
C1315 C 0.01311 0.15601 0.92129 0.0
H1316 H 0.34683 0.3239 0.27654 0.0
H1317 H 0.394 0.30339 0.33416 0.0
H1318 H 0.42825 0.29872 0.30497 0.0
H1319 H 0.36732 0.27969 0.22584 0.0
H1320 H 0.36624 0.30077 0.2035 0.0
H1321 H 0.34564 0.30335 0.22916 0.0
H1322 H 0.36257 0.35092 0.24255 0.0
H1323 H 0.38326 0.34846 0.21694 0.0
H1324 H 0.3958 0.35977 0.24842 0.0
H1325 H 0.45743 0.29646 0.26987 0.0
H1326 H 0.47899 0.29452 0.23022 0.0
H1327 H 0.41265 0.31529 0.19482 0.0
C1328 C 0.36444 0.31857 0.28297 0.0
C1329 C 0.36779 0.31393 0.30755 0.0
C1330 C 0.39099 0.30676 0.3153 0.0
C1331 C 0.41059 0.3042 0.29893 0.0
C1332 C 0.40669 0.30878 0.2748 0.0
C1333 C 0.38417 0.31565 0.26674 0.0
C1334 C 0.3847 0.31863 0.23957 0.0
C1335 C 0.36479 0.29946 0.22358 0.0
C1336 C 0.38139 0.34608 0.23671 0.0
C1337 C 0.41099 0.31235 0.23368 0.0
C1338 C 0.42341 0.30693 0.25433 0.0
C1339 C 0.44791 0.30064 0.25353 0.0
C1340 C 0.46002 0.29964 0.23093 0.0
C1341 C 0.44753 0.3047 0.20937 0.0
C1342 C 0.42271 0.31125 0.21092 0.0
H1343 H 0.50636 0.43742 0.03473 0.0
H1344 H 0.58148 0.4674 0.06358 0.0
H1345 H 0.58065 0.43462 0.09092 0.0
H1346 H 0.48232 0.42456 0.09186 0.0
H1347 H 0.46304 0.39589 0.07765 0.0
H1348 H 0.47039 0.42092 0.06001 0.0
H1349 H 0.48863 0.38917 0.0256 0.0
H1350 H 0.48122 0.36401 0.04309 0.0
H1351 H 0.51287 0.37098 0.03398 0.0
H1352 H 0.57038 0.39834 0.11562 0.0
H1353 H 0.55205 0.36259 0.13515 0.0
H1354 H 0.48354 0.35798 0.08961 0.0
C1355 C 0.52269 0.43689 0.0467 0.0
C1356 C 0.54402 0.45456 0.04721 0.0
C1357 C 0.56504 0.45372 0.06306 0.0
C1358 C 0.56468 0.43524 0.07857 0.0
C1359 C 0.54313 0.41801 0.07781 0.0
C1360 C 0.52256 0.41874 0.06219 0.0
C1361 C 0.50148 0.39863 0.06501 0.0
C1362 C 0.47793 0.41073 0.07419 0.0
C1363 C 0.49573 0.37957 0.04046 0.0
C1364 C 0.51319 0.38649 0.08482 0.0
C1365 C 0.53724 0.39772 0.09198 0.0
C1366 C 0.55157 0.38944 0.11011 0.0
C1367 C 0.541 0.36914 0.12111 0.0
C1368 C 0.51632 0.35751 0.114 0.0
C1369 C 0.5024 0.36645 0.09561 0.0
H1370 H 0.6868 0.22586 0.19382 0.0
H1371 H 0.68097 0.25679 0.27212 0.0
H1372 H 0.64283 0.27601 0.26187 0.0
H1373 H 0.66549 0.27923 0.169 0.0
H1374 H 0.64846 0.25909 0.14263 0.0
H1375 H 0.67584 0.24903 0.15617 0.0
H1376 H 0.64975 0.20736 0.16252 0.0
H1377 H 0.62232 0.2173 0.14904 0.0
H1378 H 0.62162 0.20909 0.17977 0.0
H1379 H 0.60432 0.29011 0.24294 0.0
H1380 H 0.56849 0.29811 0.21712 0.0
H1381 H 0.59984 0.25784 0.15107 0.0
C1382 C 0.67757 0.23695 0.2087 0.0
C1383 C 0.68665 0.24017 0.23367 0.0
C1384 C 0.67419 0.25441 0.25284 0.0
C1385 C 0.65259 0.26533 0.24718 0.0
C1386 C 0.64389 0.26174 0.22227 0.0
C1387 C 0.65604 0.24793 0.20334 0.0
C1388 C 0.64247 0.24616 0.17825 0.0
C1389 C 0.65905 0.25916 0.16046 0.0
C1390 C 0.63351 0.21832 0.16673 0.0
C1391 C 0.62063 0.2609 0.186 0.0
C1392 C 0.62181 0.26982 0.21144 0.0
C1393 C 0.6033 0.28336 0.22298 0.0
C1394 C 0.583 0.28779 0.20815 0.0
C1395 C 0.58136 0.27868 0.18204 0.0
C1396 C 0.60059 0.26522 0.17092 0.0
H1397 H 0.43475 0.12241 0.02457 0.0
H1398 H 0.51014 0.10053 0.02483 0.0
H1399 H 0.52483 0.14073 0.05367 0.0
H1400 H 0.4528 0.1892 0.02529 0.0
H1401 H 0.42795 0.19913 0.04501 0.0
H1402 H 0.42378 0.16876 0.02446 0.0
H1403 H 0.41334 0.14646 0.06213 0.0
H1404 H 0.41758 0.17674 0.08283 0.0
H1405 H 0.4353 0.15151 0.08864 0.0
H1406 H 0.53055 0.18282 0.084 0.0
H1407 H 0.52757 0.22454 0.11071 0.0
H1408 H 0.44848 0.21871 0.08907 0.0
C1409 C 0.45434 0.1261 0.03074 0.0
C1410 C 0.47133 0.10841 0.02267 0.0
C1411 C 0.4969 0.11397 0.03079 0.0
C1412 C 0.50534 0.13665 0.04722 0.0
C1413 C 0.488 0.15358 0.05506 0.0
C1414 C 0.46309 0.14866 0.04686 0.0
C1415 C 0.44825 0.17003 0.05764 0.0
C1416 C 0.43757 0.18252 0.03686 0.0
C1417 C 0.42739 0.16061 0.07377 0.0
C1418 C 0.46862 0.18771 0.07343 0.0
C1419 C 0.4914 0.17789 0.07185 0.0
C1420 C 0.51283 0.19075 0.08524 0.0
C1421 C 0.51094 0.21438 0.10042 0.0
C1422 C 0.48782 0.22494 0.10189 0.0
C1423 C 0.46646 0.21127 0.08823 0.0
H1424 H 0.29 0.34723 0.75327 0.0
H1425 H 0.33897 0.32124 0.69426 0.0
H1426 H 0.36019 0.36491 0.69828 0.0
H1427 H 0.28524 0.41022 0.73889 0.0
H1428 H 0.2862 0.42497 0.77132 0.0
H1429 H 0.27314 0.39228 0.76192 0.0
H1430 H 0.30398 0.37862 0.79323 0.0
H1431 H 0.31703 0.41123 0.80279 0.0
H1432 H 0.33718 0.38734 0.79164 0.0
H1433 H 0.37758 0.41129 0.71041 0.0
H1434 H 0.39119 0.4555 0.73133 0.0
H1435 H 0.33224 0.44985 0.78377 0.0
C1436 C 0.3052 0.35059 0.74117 0.0
C1437 C 0.31267 0.33069 0.72336 0.0
C1438 C 0.3325 0.33618 0.70773 0.0
C1439 C 0.34477 0.36093 0.70994 0.0
C1440 C 0.33706 0.37999 0.72789 0.0
C1441 C 0.3178 0.37504 0.7433 0.0
C1442 C 0.31414 0.39836 0.76223 0.0
C1443 C 0.28814 0.40696 0.75835 0.0
C1444 C 0.31835 0.3936 0.78905 0.0
C1445 C 0.33471 0.41711 0.75543 0.0
C1446 C 0.34748 0.40634 0.73532 0.0
C1447 C 0.36763 0.41994 0.72609 0.0
C1448 C 0.37518 0.44505 0.73805 0.0
C1449 C 0.3628 0.45609 0.75919 0.0
C1450 C 0.3421 0.44196 0.76766 0.0
H1451 H 0.28824 0.67123 0.76007 0.0
H1452 H 0.2711 0.68716 0.83851 0.0
H1453 H 0.30155 0.65902 0.84813 0.0
H1454 H 0.29171 0.60482 0.75867 0.0
H1455 H 0.31675 0.60253 0.73729 0.0
H1456 H 0.29543 0.6261 0.73645 0.0
H1457 H 0.33296 0.66141 0.74241 0.0
H1458 H 0.35441 0.63794 0.74349 0.0
H1459 H 0.35475 0.66448 0.76883 0.0
H1460 H 0.3319 0.62864 0.84984 0.0
H1461 H 0.35812 0.59363 0.84311 0.0
H1462 H 0.3551 0.59392 0.76333 0.0
C1463 C 0.29088 0.66884 0.77928 0.0
C1464 C 0.27758 0.68214 0.7986 0.0
C1465 C 0.2816 0.67816 0.82343 0.0
C1466 C 0.29881 0.66202 0.82913 0.0
C1467 C 0.31174 0.64955 0.8098 0.0
C1468 C 0.30784 0.65238 0.78532 0.0
C1469 C 0.32301 0.63505 0.76803 0.0
C1470 C 0.30569 0.61599 0.74899 0.0
C1471 C 0.34244 0.65066 0.75491 0.0
C1472 C 0.33565 0.62181 0.78668 0.0
C1473 C 0.32902 0.63091 0.81067 0.0
C1474 C 0.3373 0.62136 0.83118 0.0
C1475 C 0.35216 0.60142 0.82712 0.0
C1476 C 0.35862 0.591 0.8027 0.0
C1477 C 0.35074 0.60174 0.78221 0.0
H1478 H 0.93167 0.49314 0.52203 0.0
H1479 H 0.88904 0.55557 0.51319 0.0
H1480 H 0.85024 0.52991 0.52131 0.0
H1481 H 0.8883 0.44543 0.48869 0.0
H1482 H 0.89342 0.4221 0.5079 0.0
H1483 H 0.91815 0.44664 0.50507 0.0
H1484 H 0.92157 0.4604 0.55321 0.0
H1485 H 0.89681 0.43584 0.5562 0.0
H1486 H 0.89408 0.46845 0.56974 0.0
H1487 H 0.81541 0.49581 0.52663 0.0
H1488 H 0.78783 0.45611 0.52769 0.0
H1489 H 0.85341 0.41579 0.53093 0.0
C1490 C 0.91425 0.50157 0.52194 0.0
C1491 C 0.91356 0.5265 0.51703 0.0
C1492 C 0.89026 0.53674 0.51736 0.0
C1493 C 0.86804 0.52225 0.52183 0.0
C1494 C 0.86938 0.49752 0.52596 0.0
C1495 C 0.89193 0.48731 0.52608 0.0
C1496 C 0.88818 0.45967 0.52898 0.0
C1497 C 0.89756 0.44246 0.50631 0.0
C1498 C 0.90091 0.45588 0.5535 0.0
C1499 C 0.85992 0.45571 0.52985 0.0
C1500 C 0.84939 0.47782 0.52845 0.0
C1501 C 0.82348 0.47845 0.52796 0.0
C1502 C 0.80796 0.4558 0.52857 0.0
C1503 C 0.81842 0.43281 0.52938 0.0
C1504 C 0.84477 0.43302 0.53038 0.0
H1505 H 0.72077 0.82174 0.78821 0.0
H1506 H 0.79172 0.85602 0.76693 0.0
H1507 H 0.77242 0.89555 0.76357 0.0
H1508 H 0.68177 0.84697 0.74703 0.0
H1509 H 0.65723 0.85147 0.76877 0.0
H1510 H 0.67712 0.82677 0.77013 0.0
H1511 H 0.689 0.84535 0.81668 0.0
H1512 H 0.66909 0.87008 0.81548 0.0
H1513 H 0.70167 0.87825 0.8254 0.0
H1514 H 0.74404 0.93115 0.76207 0.0
H1515 H 0.70993 0.9589 0.76237 0.0
H1516 H 0.65831 0.89976 0.78443 0.0
C1517 C 0.73223 0.83769 0.78298 0.0
C1518 C 0.75758 0.83621 0.77789 0.0
C1519 C 0.77218 0.85712 0.77096 0.0
C1520 C 0.76138 0.87952 0.76902 0.0
C1521 C 0.73607 0.88042 0.77409 0.0
C1522 C 0.72177 0.85996 0.78096 0.0
C1523 C 0.69499 0.86524 0.78504 0.0
C1524 C 0.67671 0.8465 0.76664 0.0
C1525 C 0.68831 0.8647 0.81227 0.0
C1526 C 0.69626 0.89183 0.77929 0.0
C1527 C 0.72004 0.90043 0.77308 0.0
C1528 C 0.72539 0.92456 0.76695 0.0
C1529 C 0.7059 0.94019 0.76716 0.0
C1530 C 0.6814 0.93154 0.77338 0.0
C1531 C 0.67676 0.90704 0.77953 0.0
H1532 H 0.63206 0.50763 0.95429 0.0
H1533 H 0.61647 0.5417 0.02971 0.0
H1534 H 0.66111 0.55868 0.03756 0.0
H1535 H 0.69517 0.49121 0.96907 0.0
H1536 H 0.70719 0.49873 0.9403 0.0
H1537 H 0.67459 0.48714 0.9416 0.0
H1538 H 0.66181 0.52685 0.92548 0.0
H1539 H 0.6943 0.5386 0.92421 0.0
H1540 H 0.67349 0.5581 0.94209 0.0
H1541 H 0.7063 0.57607 0.03546 0.0
H1542 H 0.74905 0.59064 0.02425 0.0
H1543 H 0.73523 0.54425 0.95057 0.0
C1544 C 0.63813 0.51838 0.97256 0.0
C1545 C 0.62085 0.52328 0.99143 0.0
C1546 C 0.62947 0.53741 0.01512 0.0
C1547 C 0.65476 0.54721 0.01971 0.0
C1548 C 0.67121 0.54247 1.00052 0.0
C1549 C 0.66329 0.52814 0.9775 0.0
C1550 C 0.68442 0.52681 0.95965 0.0
C1551 C 0.69071 0.49934 0.95223 0.0
C1552 C 0.67812 0.53828 0.9365 0.0
C1553 C 0.70531 0.54323 0.97597 0.0
C1554 C 0.69736 0.55203 0.9995 0.0
C1555 C 0.71287 0.56895 0.01724 0.0
C1556 C 0.73707 0.57718 0.01068 0.0
C1557 C 0.74554 0.56838 0.98663 0.0
C1558 C 0.72948 0.55094 0.96925 0.0
H1559 H 0.26386 0.66449 0.26532 0.0
H1560 H 0.25659 0.67294 0.1877 0.0
H1561 H 0.22293 0.63686 0.18017 0.0
H1562 H 0.25586 0.59722 0.25495 0.0
H1563 H 0.23829 0.59499 0.28239 0.0
H1564 H 0.26065 0.62231 0.28184 0.0
H1565 H 0.22603 0.652 0.29277 0.0
H1566 H 0.20354 0.62475 0.29338 0.0
H1567 H 0.19755 0.64716 0.27342 0.0
H1568 H 0.19216 0.59794 0.18067 0.0
H1569 H 0.16551 0.56036 0.18934 0.0
H1570 H 0.19258 0.57799 0.26694 0.0
C1571 C 0.25515 0.65879 0.24674 0.0
C1572 C 0.26288 0.67145 0.22704 0.0
C1573 C 0.25081 0.66363 0.20308 0.0
C1574 C 0.23177 0.64312 0.19863 0.0
C1575 C 0.22487 0.63083 0.21841 0.0
C1576 C 0.23607 0.63851 0.24203 0.0
C1577 C 0.22565 0.62186 0.25999 0.0
C1578 C 0.24635 0.60829 0.27039 0.0
C1579 C 0.2124 0.63737 0.28114 0.0
C1580 C 0.20708 0.60327 0.2427 0.0
C1581 C 0.20689 0.60877 0.2188 0.0
C1582 C 0.19198 0.59362 0.19936 0.0
C1583 C 0.17695 0.57227 0.20447 0.0
C1584 C 0.17685 0.56629 0.22885 0.0
C1585 C 0.19201 0.5822 0.24819 0.0
H1586 H 0.97496 0.50987 0.97236 0.0
H1587 H 0.00406 0.55548 0.04275 0.0
H1588 H 0.96684 0.57952 0.04438 0.0
H1589 H 0.94977 0.55983 0.9471 0.0
H1590 H 0.92268 0.53968 0.93214 0.0
H1591 H 0.9514 0.5263 0.93692 0.0
H1592 H 0.92774 0.49387 0.96072 0.0
H1593 H 0.89895 0.50713 0.95596 0.0
H1594 H 0.9099 0.50524 0.98711 0.0
H1595 H 0.92614 0.59854 0.03761 0.0
H1596 H 0.88558 0.61056 0.02357 0.0
H1597 H 0.88386 0.5519 0.95757 0.0
C1598 C 0.97338 0.52492 0.9881 0.0
C1599 C 0.99207 0.53104 0.00744 0.0
C1600 C 0.9897 0.55071 0.0278 0.0
C1601 C 0.96871 0.56438 0.02884 0.0
C1602 C 0.95046 0.55798 0.00934 0.0
C1603 C 0.95263 0.53866 0.98938 0.0
C1604 C 0.93058 0.53541 0.9708 0.0
C1605 C 0.93913 0.54062 0.94523 0.0
C1606 C 0.91593 0.50884 0.96853 0.0
C1607 C 0.91559 0.5559 0.98334 0.0
C1608 C 0.92729 0.56877 0.00552 0.0
C1609 C 0.91683 0.58856 0.02027 0.0
C1610 C 0.8938 0.59527 0.01212 0.0
C1611 C 0.88148 0.5822 0.98946 0.0
C1612 C 0.89269 0.5623 0.97498 0.0
H1613 H 0.08103 0.97889 0.01211 0.0
H1614 H 0.10911 0.02524 0.08277 0.0
H1615 H 0.1466 0.0023 0.08141 0.0
H1616 H 0.10085 0.92117 0.02325 0.0
H1617 H 0.1098 0.91065 0.99179 0.0
H1618 H 0.08569 0.93154 0.99743 0.0
H1619 H 0.11033 0.96394 0.97437 0.0
H1620 H 0.1344 0.94301 0.9684 0.0
H1621 H 0.14247 0.97538 0.9841 0.0
H1622 H 0.17966 0.97258 0.07388 0.0
H1623 H 0.20759 0.94005 0.05925 0.0
H1624 H 0.159 0.91367 0.99272 0.0
C1625 C 0.09531 0.98461 0.02703 0.0
C1626 C 0.092 0.00385 0.04762 0.0
C1627 C 0.111 0.01037 0.06697 0.0
C1628 C 0.13243 0.99751 0.06632 0.0
C1629 C 0.13479 0.97825 0.0461 0.0
C1630 C 0.11692 0.972 0.02665 0.0
C1631 C 0.12383 0.95017 0.00736 0.0
C1632 C 0.10385 0.92702 0.00482 0.0
C1633 C 0.12801 0.95864 0.98206 0.0
C1634 C 0.14821 0.94494 0.01918 0.0
C1635 C 0.15414 0.96135 0.04154 0.0
C1636 C 0.17533 0.95978 0.05628 0.0
C1637 C 0.19103 0.94113 0.04785 0.0
C1638 C 0.18558 0.92429 0.02479 0.0
C1639 C 0.16381 0.92631 0.01035 0.0
loop_
_geom_bond_atom_site_label_1
_geom_bond_atom_site_label_2
_geom_bond_distance
_geom_bond_site_symmetry_2
_ccdc_geom_bond_type
H0 C3 0.929 . S
H1 C6 0.929 . S
H2 C8 0.930 . S
C3 H0 0.929 . S
C3 C4 1.398 . S
C3 C5 1.396 . S
C4 C3 1.398 . S
C4 C8 1.407 . S
C5 C3 1.396 . S
C5 C6 1.394 . S
C6 H1 0.929 . S
C6 C5 1.394 . S
C6 C7 1.382 . S
C7 C6 1.382 . S
C7 C8 1.392 . S
C7 N9 1.420 . S
C8 H2 0.930 . S
C8 C4 1.407 . S
C8 C7 1.392 . S
N9 C7 1.420 . S
N9 C10 1.244 . S
C10 N9 1.244 . S
H11 C14 0.929 . S
H12 C17 0.929 . S
H13 C19 0.930 . S
C14 H11 0.929 . S
C14 C15 1.398 . S
C14 C16 1.396 . S
C15 C14 1.398 . S
C15 C19 1.407 . S
C16 C14 1.396 . S
C16 C17 1.394 . S
C17 H12 0.929 . S
C17 C16 1.394 . S
C17 C18 1.382 . S
C18 C17 1.382 . S
C18 C19 1.392 . S
C18 N20 1.420 . S
C19 H13 0.930 . S
C19 C15 1.407 . S
C19 C18 1.392 . S
N20 C18 1.420 . S
N20 C21 1.244 . S
C21 N20 1.244 . S
H22 C25 0.912 1_455 S
H23 C28 0.929 . S
H24 C30 0.930 . S
C25 H22 0.912 1_655 S
C25 C26 1.398 . S
C25 C27 1.396 . S
C26 C25 1.398 . S
C26 C30 1.407 . S
C27 C25 1.396 . S
C27 C28 1.394 . S
C28 H23 0.929 . S
C28 C27 1.394 . S
C28 C29 1.382 . S
C29 C28 1.382 . S
C29 C30 1.392 . S
C29 N31 1.420 . S
C30 H24 0.930 . S
C30 C26 1.407 . S
C30 C29 1.392 . S
N31 C29 1.420 . S
N31 C32 1.244 . S
C32 N31 1.244 . S
H33 C36 0.929 . S
H34 C39 0.929 . S
H35 C41 0.930 . S
C36 H33 0.929 . S
C36 C37 1.398 . S
C36 C38 1.396 . S
C37 C36 1.398 . S
C37 C41 1.407 . S
C38 C36 1.396 . S
C38 C39 1.394 . S
C39 H34 0.929 . S
C39 C38 1.394 . S
C39 C40 1.382 . S
C40 C39 1.382 . S
C40 C41 1.392 . S
C40 N42 1.420 . S
C41 H35 0.930 . S
C41 C37 1.407 . S
C41 C40 1.392 . S
N42 C40 1.420 . S
N42 C43 1.244 . S
C43 N42 1.244 . S
H44 C47 0.929 . S
H45 C50 0.929 . S
H46 C52 0.930 . S
C47 H44 0.929 . S
C47 C48 1.398 . S
C47 C49 1.396 . S
C48 C47 1.398 . S
C48 C52 1.407 . S
C49 C47 1.396 . S
C49 C50 1.394 . S
C50 H45 0.929 . S
C50 C49 1.394 . S
C50 C51 1.382 . S
C51 C50 1.382 . S
C51 C52 1.392 . S
C51 N53 1.420 . S
C52 H46 0.930 . S
C52 C48 1.407 . S
C52 C51 1.392 . S
N53 C51 1.420 . S
N53 C54 1.244 . S
C54 N53 1.244 . S
H55 C58 0.929 . S
H56 C61 0.929 . S
H57 C63 0.930 . S
C58 H55 0.929 . S
C58 C59 1.398 . S
C58 C60 1.396 . S
C59 C58 1.398 . S
C59 C63 1.407 . S
C60 C58 1.396 . S
C60 C61 1.394 . S
C61 H56 0.929 . S
C61 C60 1.394 . S
C61 C62 1.382 . S
C62 C61 1.382 . S
C62 C63 1.392 . S
C62 N64 1.420 . S
C63 H57 0.930 . S
C63 C59 1.407 . S
C63 C62 1.392 . S
N64 C62 1.420 . S
N64 C65 1.244 . S
C65 N64 1.244 . S
H66 C69 0.929 . S
H67 C72 0.929 1_455 S
H68 C74 0.930 . S
C69 H66 0.929 . S
C69 C70 1.398 . S
C69 C71 1.396 . S
C70 C69 1.398 . S
C70 C74 1.407 . S
C71 C69 1.396 . S
C71 C72 1.394 . S
C72 H67 0.929 1_655 S
C72 C71 1.394 . S
C72 C73 1.382 . S
C73 C72 1.382 . S
C73 C74 1.392 . S
C73 N75 1.425 . S
C74 H68 0.930 . S
C74 C70 1.407 . S
C74 C73 1.392 . S
N75 C73 1.425 . S
N75 C76 1.242 1_655 S
C76 N75 1.242 1_455 S
H77 C80 0.929 . S
H78 C83 0.929 . S
H79 C85 0.930 . S
C80 H77 0.929 . S
C80 C81 1.398 . S
C80 C82 1.396 . S
C81 C80 1.398 . S
C81 C85 1.407 . S
C82 C80 1.396 . S
C82 C83 1.394 . S
C83 H78 0.929 . S
C83 C82 1.394 . S
C83 C84 1.382 . S
C84 C83 1.382 . S
C84 C85 1.392 . S
C84 N86 1.420 . S
C85 H79 0.930 . S
C85 C81 1.407 . S
C85 C84 1.392 . S
N86 C84 1.420 . S
N86 C87 1.244 . S
C87 N86 1.244 . S
H88 C91 0.929 . S
H89 C94 0.929 . S
H90 C96 0.930 . S
C91 H88 0.929 . S
C91 C92 1.398 . S
C91 C93 1.396 . S
C92 C91 1.398 . S
C92 C96 1.407 . S
C93 C91 1.396 . S
C93 C94 1.394 . S
C94 H89 0.929 . S
C94 C93 1.394 . S
C94 C95 1.382 . S
C95 C94 1.382 . S
C95 C96 1.392 . S
C95 N97 1.420 . S
C96 H90 0.930 . S
C96 C92 1.407 . S
C96 C95 1.392 . S
N97 C95 1.420 . S
N97 C98 1.244 . S
C98 N97 1.244 . S
H99 C102 0.929 . S
H100 C105 0.929 . S
H101 C107 0.930 . S
C102 H99 0.929 . S
C102 C103 1.398 . S
C102 C104 1.396 . S
C103 C102 1.398 . S
C103 C107 1.407 . S
C104 C102 1.396 . S
C104 C105 1.394 . S
C105 H100 0.929 . S
C105 C104 1.394 . S
C105 C106 1.382 . S
C106 C105 1.382 . S
C106 C107 1.392 . S
C106 N108 1.420 . S
C107 H101 0.930 . S
C107 C103 1.407 . S
C107 C106 1.392 . S
N108 C106 1.420 . S
N108 C109 1.244 1_565 S
C109 N108 1.244 1_545 S
H110 C113 0.929 . S
H111 C116 0.929 . S
H112 C118 0.930 . S
C113 H110 0.929 . S
C113 C114 1.398 . S
C113 C115 1.396 . S
C114 C113 1.398 . S
C114 C118 1.407 . S
C115 C113 1.396 . S
C115 C116 1.394 . S
C116 H111 0.929 . S
C116 C115 1.394 . S
C116 C117 1.382 . S
C117 C116 1.382 . S
C117 C118 1.392 . S
C117 N119 1.420 . S
C118 H112 0.930 . S
C118 C114 1.407 . S
C118 C117 1.392 . S
N119 C117 1.420 . S
N119 C120 1.244 . S
C120 N119 1.244 . S
H121 C124 0.929 . S
H122 C127 0.929 . S
H123 C129 0.930 . S
C124 H121 0.929 . S
C124 C125 1.398 . S
C124 C126 1.396 . S
C125 C124 1.398 . S
C125 C129 1.407 . S
C126 C124 1.396 . S
C126 C127 1.394 . S
C127 H122 0.929 . S
C127 C126 1.394 . S
C127 C128 1.382 . S
C128 C127 1.382 . S
C128 C129 1.392 . S
C128 N130 1.420 . S
C129 H123 0.930 . S
C129 C125 1.407 . S
C129 C128 1.392 . S
N130 C128 1.420 . S
N130 C131 1.244 . S
C131 N130 1.244 . S
H132 C135 0.929 . S
H133 C138 0.929 . S
H134 C140 0.930 . S
C135 H132 0.929 . S
C135 C136 1.398 . S
C135 C137 1.396 . S
C136 C135 1.398 . S
C136 C140 1.407 . S
C137 C135 1.396 . S
C137 C138 1.394 . S
C138 H133 0.929 . S
C138 C137 1.394 . S
C138 C139 1.382 . S
C139 C138 1.382 . S
C139 C140 1.392 . S
C139 N141 1.420 . S
C140 H134 0.930 . S
C140 C136 1.407 . S
C140 C139 1.392 . S
N141 C139 1.420 . S
N141 C142 1.244 . S
C142 N141 1.244 . S
H143 C146 0.929 . S
H144 C149 0.929 1_554 S
H145 C151 0.930 . S
C146 H143 0.929 . S
C146 C147 1.398 . S
C146 C148 1.396 . S
C147 C146 1.398 . S
C147 C151 1.407 . S
C148 C146 1.396 . S
C148 C149 1.394 . S
C149 H144 0.929 1_556 S
C149 C148 1.394 . S
C149 C150 1.382 . S
C150 C149 1.382 . S
C150 C151 1.392 . S
C150 N152 1.420 1_556 S
C151 H145 0.930 . S
C151 C147 1.407 . S
C151 C150 1.392 . S
N152 C150 1.420 1_554 S
N152 C153 1.244 . S
C153 N152 1.244 . S
H154 C157 0.929 . S
H155 C160 0.929 . S
H156 C162 0.930 . S
C157 H154 0.929 . S
C157 C158 1.398 . S
C157 C159 1.396 . S
C158 C157 1.398 . S
C158 C162 1.407 . S
C159 C157 1.396 . S
C159 C160 1.394 . S
C160 H155 0.929 . S
C160 C159 1.394 . S
C160 C161 1.382 . S
C161 C160 1.382 . S
C161 C162 1.392 . S
C161 N163 1.420 . S
C162 H156 0.930 . S
C162 C158 1.407 . S
C162 C161 1.392 . S
N163 C161 1.420 . S
N163 C164 1.244 . S
C164 N163 1.244 . S
H165 C168 0.929 . S
H166 C171 0.929 . S
H167 C173 0.930 . S
C168 H165 0.929 . S
C168 C169 1.398 . S
C168 C170 1.396 . S
C169 C168 1.398 . S
C169 C173 1.407 . S
C170 C168 1.396 . S
C170 C171 1.394 . S
C171 H166 0.929 . S
C171 C170 1.394 . S
C171 C172 1.382 . S
C172 C171 1.382 . S
C172 C173 1.392 . S
C172 N174 1.420 . S
C173 H167 0.930 . S
C173 C169 1.407 . S
C173 C172 1.392 . S
N174 C172 1.420 . S
N174 C175 1.244 . S
C175 N174 1.244 . S
Zn176 O179 2.031 . S
Zn176 O181 2.049 . S
Zn176 O186 2.067 1_554 S
Zn177 O178 1.962 . S
Zn177 O180 1.986 . S
Zn177 O182 1.996 . S
Zn177 O185 1.943 . S
O178 Zn177 1.962 . S
O178 C183 1.254 . S
O179 Zn176 2.031 . S
O179 C183 1.269 . S
O180 Zn177 1.986 . S
O180 C187 1.262 . S
O181 Zn176 2.049 . S
O181 C189 1.260 . S
O182 Zn177 1.996 . S
O182 C189 1.257 . S
C183 O178 1.254 . S
C183 O179 1.269 . S
C184 O185 1.249 1_556 S
C184 O186 1.270 . S
O185 Zn177 1.943 . S
O185 C184 1.249 1_554 S
O186 Zn176 2.067 1_556 S
O186 C184 1.270 . S
C187 O180 1.262 . S
C187 O188 1.232 . S
O188 C187 1.232 . S
C189 O181 1.260 . S
C189 O182 1.257 . S
Zn190 O193 2.031 . S
Zn190 O195 2.049 . S
Zn190 O200 2.067 . S
Zn191 O192 1.962 . S
Zn191 O194 1.986 . S
Zn191 O196 1.996 . S
Zn191 O199 1.943 . S
O192 Zn191 1.962 . S
O192 C197 1.254 . S
O193 Zn190 2.031 . S
O193 C197 1.269 . S
O194 Zn191 1.986 . S
O194 C201 1.262 . S
O195 Zn190 2.049 . S
O195 C203 1.260 . S
O196 Zn191 1.996 . S
O196 C203 1.257 . S
C197 O192 1.254 . S
C197 O193 1.269 . S
C198 O199 1.249 . S
C198 O200 1.270 . S
O199 Zn191 1.943 . S
O199 C198 1.249 . S
O200 Zn190 2.067 . S
O200 C198 1.270 . S
C201 O194 1.262 . S
C201 O202 1.232 . S
O202 C201 1.232 . S
C203 O195 1.260 . S
C203 O196 1.257 . S
Zn204 O207 2.031 . S
Zn204 O209 2.049 . S
Zn204 O214 2.067 . S
Zn205 O206 1.962 . S
Zn205 O208 1.986 . S
Zn205 O210 1.996 1_554 S
Zn205 O213 1.943 . S
O206 Zn205 1.962 . S
O206 C211 1.254 . S
O207 Zn204 2.031 . S
O207 C211 1.269 1_556 S
O208 Zn205 1.986 . S
O208 C215 1.262 . S
O209 Zn204 2.049 . S
O209 C217 1.260 . S
O210 Zn205 1.996 1_556 S
O210 C217 1.257 . S
C211 O206 1.254 . S
C211 O207 1.269 1_554 S
C212 O213 1.249 1_556 S
C212 O214 1.270 . S
O213 Zn205 1.943 . S
O213 C212 1.249 1_554 S
O214 Zn204 2.067 . S
O214 C212 1.270 . S
C215 O208 1.262 . S
C215 O216 1.232 . S
O216 C215 1.232 . S
C217 O209 1.260 . S
C217 O210 1.257 . S
Zn218 O221 2.031 . S
Zn218 O223 2.049 . S
Zn218 O228 2.067 1_545 S
Zn219 O220 1.962 . S
Zn219 O222 1.986 . S
Zn219 O224 1.996 . S
Zn219 O227 1.943 1_545 S
O220 Zn219 1.962 . S
O220 C225 1.254 . S
O221 Zn218 2.031 . S
O221 C225 1.269 . S
O222 Zn219 1.986 . S
O222 C229 1.262 . S
O223 Zn218 2.049 . S
O223 C231 1.260 . S
O224 Zn219 1.996 . S
O224 C231 1.257 . S
C225 O220 1.254 . S
C225 O221 1.269 . S
C226 O227 1.249 . S
C226 O228 1.270 . S
O227 Zn219 1.943 1_565 S
O227 C226 1.249 . S
O228 Zn218 2.067 1_565 S
O228 C226 1.270 . S
C229 O222 1.262 . S
C229 O230 1.232 . S
O230 C229 1.232 . S
C231 O223 1.260 . S
C231 O224 1.257 . S
Zn232 O235 2.031 . S
Zn232 O237 2.049 . S
Zn232 O242 2.067 . S
Zn233 O234 1.962 . S
Zn233 O236 1.986 . S
Zn233 O238 1.996 . S
Zn233 O241 1.943 . S
O234 Zn233 1.962 . S
O234 C239 1.254 . S
O235 Zn232 2.031 . S
O235 C239 1.269 . S
O236 Zn233 1.986 . S
O236 C243 1.262 . S
O237 Zn232 2.049 . S
O237 C245 1.260 . S
O238 Zn233 1.996 . S
O238 C245 1.257 . S
C239 O234 1.254 . S
C239 O235 1.269 . S
C240 O241 1.249 . S
C240 O242 1.270 . S
O241 Zn233 1.943 . S
O241 C240 1.249 . S
O242 Zn232 2.067 . S
O242 C240 1.270 . S
C243 O236 1.262 . S
C243 O244 1.232 . S
O244 C243 1.232 . S
C245 O237 1.260 . S
C245 O238 1.257 . S
Zn246 O249 2.031 . S
Zn246 O251 2.049 . S
Zn246 O256 2.067 . S
Zn247 O248 1.962 . S
Zn247 O250 1.986 . S
Zn247 O252 1.996 . S
Zn247 O255 1.943 . S
O248 Zn247 1.962 . S
O248 C253 1.254 . S
O249 Zn246 2.031 . S
O249 C253 1.269 . S
O250 Zn247 1.986 . S
O250 C257 1.262 . S
O251 Zn246 2.049 . S
O251 C259 1.260 . S
O252 Zn247 1.996 . S
O252 C259 1.257 . S
C253 O248 1.254 . S
C253 O249 1.269 . S
C254 O255 1.249 . S
C254 O256 1.270 . S
O255 Zn247 1.943 . S
O255 C254 1.249 . S
O256 Zn246 2.067 . S
O256 C254 1.270 . S
C257 O250 1.262 . S
C257 O258 1.232 . S
O258 C257 1.232 . S
C259 O251 1.260 . S
C259 O252 1.257 . S
Zn260 O263 2.031 . S
Zn260 O265 2.049 . S
Zn260 O270 2.067 . S
Zn261 O262 1.962 . S
Zn261 O264 1.986 . S
Zn261 O266 1.996 . S
Zn261 O269 1.943 . S
O262 Zn261 1.962 . S
O262 C267 1.254 . S
O263 Zn260 2.031 . S
O263 C267 1.269 . S
O264 Zn261 1.986 . S
O264 C271 1.262 . S
O265 Zn260 2.049 . S
O265 C273 1.260 . S
O266 Zn261 1.996 . S
O266 C273 1.257 . S
C267 O262 1.254 . S
C267 O263 1.269 . S
C268 O269 1.249 . S
C268 O270 1.270 . S
O269 Zn261 1.943 . S
O269 C268 1.249 . S
O270 Zn260 2.067 . S
O270 C268 1.270 . S
C271 O264 1.262 . S
C271 O272 1.232 . S
O272 C271 1.232 . S
C273 O265 1.260 . S
C273 O266 1.257 . S
Zn274 O277 2.031 . S
Zn274 O279 2.049 . S
Zn274 O284 2.067 . S
Zn275 O276 1.962 . S
Zn275 O278 1.986 . S
Zn275 O280 1.996 1_545 S
Zn275 O283 1.943 . S
O276 Zn275 1.962 . S
O276 C281 1.254 . S
O277 Zn274 2.031 . S
O277 C281 1.269 1_565 S
O278 Zn275 1.986 . S
O278 C285 1.262 . S
O279 Zn274 2.049 . S
O279 C287 1.260 . S
O280 Zn275 1.996 1_565 S
O280 C287 1.257 . S
C281 O276 1.254 . S
C281 O277 1.269 1_545 S
C282 O283 1.222 1_565 S
C282 O284 1.270 . S
O283 Zn275 1.943 . S
O283 C282 1.222 1_545 S
O284 Zn274 2.067 . S
O284 C282 1.270 . S
C285 O278 1.262 . S
C285 O286 1.232 . S
O286 C285 1.232 . S
C287 O279 1.260 . S
C287 O280 1.257 . S
Zn288 O291 2.031 . S
Zn288 O293 2.049 . S
Zn288 O298 2.067 1_455 S
Zn289 O290 1.962 . S
Zn289 O292 1.986 . S
Zn289 O294 1.996 . S
Zn289 O297 1.943 1_455 S
O290 Zn289 1.962 . S
O290 C295 1.254 . S
O291 Zn288 2.031 . S
O291 C295 1.269 . S
O292 Zn289 1.986 . S
O292 C299 1.262 . S
O293 Zn288 2.049 . S
O293 C301 1.260 . S
O294 Zn289 1.996 . S
O294 C301 1.257 . S
C295 O290 1.254 . S
C295 O291 1.269 . S
C296 O297 1.249 . S
C296 O298 1.270 . S
O297 Zn289 1.943 1_655 S
O297 C296 1.249 . S
O298 Zn288 2.067 1_655 S
O298 C296 1.270 . S
C299 O292 1.262 . S
C299 O300 1.232 . S
O300 C299 1.232 . S
C301 O293 1.260 . S
C301 O294 1.257 . S
Zn302 O305 2.031 . S
Zn302 O307 2.049 . S
Zn302 O312 2.067 . S
Zn303 O304 1.962 . S
Zn303 O306 1.986 . S
Zn303 O308 1.996 . S
Zn303 O311 1.943 . S
O304 Zn303 1.962 . S
O304 C309 1.254 . S
O305 Zn302 2.031 . S
O305 C309 1.269 . S
O306 Zn303 1.986 . S
O306 C313 1.262 . S
O307 Zn302 2.049 . S
O307 C315 1.260 . S
O308 Zn303 1.996 . S
O308 C315 1.257 . S
C309 O304 1.254 . S
C309 O305 1.269 . S
C310 O311 1.249 . S
C310 O312 1.270 . S
O311 Zn303 1.943 . S
O311 C310 1.249 . S
O312 Zn302 2.067 . S
O312 C310 1.270 . S
C313 O306 1.262 . S
C313 O314 1.232 . S
O314 C313 1.232 . S
C315 O307 1.260 . S
C315 O308 1.257 . S
Zn316 O319 2.031 1_655 S
Zn316 O321 2.049 . S
Zn316 O326 2.067 . S
Zn317 O318 1.962 . S
Zn317 O320 1.986 . S
Zn317 O322 1.996 1_455 S
Zn317 O325 1.943 . S
O318 Zn317 1.962 . S
O318 C323 1.254 . S
O319 Zn316 2.031 1_455 S
O319 C323 1.269 . S
O320 Zn317 1.986 . S
O320 C327 1.262 . S
O321 Zn316 2.049 . S
O321 C329 1.260 . S
O322 Zn317 1.996 1_655 S
O322 C329 1.257 . S
C323 O318 1.254 . S
C323 O319 1.269 . S
C324 O325 1.249 1_655 S
C324 O326 1.270 . S
O325 Zn317 1.943 . S
O325 C324 1.249 1_455 S
O326 Zn316 2.067 . S
O326 C324 1.270 . S
C327 O320 1.262 . S
C327 O328 1.232 . S
O328 C327 1.232 . S
C329 O321 1.260 . S
C329 O322 1.257 . S
Zn330 O333 2.031 . S
Zn330 O335 2.049 . S
Zn330 O340 2.067 . S
Zn331 O332 1.962 . S
Zn331 O334 1.986 . S
Zn331 O336 1.996 . S
Zn331 O339 1.943 . S
O332 Zn331 1.962 . S
O332 C337 1.254 . S
O333 Zn330 2.031 . S
O333 C337 1.269 . S
O334 Zn331 1.986 . S
O334 C341 1.262 . S
O335 Zn330 2.049 . S
O335 C343 1.260 . S
O336 Zn331 1.996 . S
O336 C343 1.257 . S
C337 O332 1.254 . S
C337 O333 1.269 . S
C338 O339 1.249 . S
C338 O340 1.270 . S
O339 Zn331 1.943 . S
O339 C338 1.249 . S
O340 Zn330 2.067 . S
O340 C338 1.270 . S
C341 O334 1.262 . S
C341 O342 1.232 . S
O342 C341 1.232 . S
C343 O335 1.260 . S
C343 O336 1.257 . S
H344 C356 0.930 . S
H345 C358 0.930 . S
H346 C359 0.930 . S
H347 C363 0.959 . S
H348 C363 0.959 . S
H349 C363 0.961 . S
H350 C364 0.960 . S
H351 C364 0.961 . S
H352 C364 0.959 . S
H353 C367 0.929 . S
H354 C368 0.941 . S
H355 C370 0.930 . S
C356 H344 0.930 . S
C356 C357 1.399 . S
C356 C361 1.399 . S
C357 C356 1.399 . S
C357 C358 1.376 . S
C358 H345 0.930 . S
C358 C357 1.376 . S
C358 C359 1.388 . S
C359 H346 0.930 . S
C359 C358 1.388 . S
C359 C360 1.390 . S
C360 C359 1.390 . S
C360 C361 1.394 . S
C360 C366 1.465 . S
C361 C356 1.399 . S
C361 C360 1.394 . S
C361 C362 1.516 . S
C362 C361 1.516 . S
C362 C363 1.502 . S
C362 C364 1.561 . S
C362 C365 1.526 . S
C363 H347 0.959 . S
C363 H348 0.959 . S
C363 H349 0.961 . S
C363 C362 1.502 . S
C364 H350 0.960 . S
C364 H351 0.961 . S
C364 H352 0.959 . S
C364 C362 1.561 . S
C365 C362 1.526 . S
C365 C366 1.396 . S
C365 C370 1.390 . S
C366 C360 1.465 . S
C366 C365 1.396 . S
C366 C367 1.399 . S
C367 H353 0.929 . S
C367 C366 1.399 . S
C367 C368 1.385 . S
C368 H354 0.941 . S
C368 C367 1.385 . S
C368 C369 1.389 . S
C369 C368 1.389 . S
C369 C370 1.387 . S
C370 H355 0.930 . S
C370 C365 1.390 . S
C370 C369 1.387 . S
H371 C383 0.930 . S
H372 C385 0.930 . S
H373 C386 0.930 . S
H374 C390 0.959 . S
H375 C390 0.959 . S
H376 C390 0.961 . S
H377 C391 0.960 . S
H378 C391 0.961 . S
H379 C391 0.959 . S
H380 C394 0.929 . S
H381 C395 0.931 . S
H382 C397 0.930 . S
C383 H371 0.930 . S
C383 C384 1.399 . S
C383 C388 1.399 . S
C384 C383 1.399 . S
C384 C385 1.376 . S
C385 H372 0.930 . S
C385 C384 1.376 . S
C385 C386 1.388 . S
C386 H373 0.930 . S
C386 C385 1.388 . S
C386 C387 1.390 . S
C387 C386 1.390 . S
C387 C388 1.394 . S
C387 C393 1.465 . S
C388 C383 1.399 . S
C388 C387 1.394 . S
C388 C389 1.516 . S
C389 C388 1.516 . S
C389 C390 1.502 . S
C389 C391 1.561 . S
C389 C392 1.526 . S
C390 H374 0.959 . S
C390 H375 0.959 . S
C390 H376 0.961 . S
C390 C389 1.502 . S
C391 H377 0.960 . S
C391 H378 0.961 . S
C391 H379 0.959 . S
C391 C389 1.561 . S
C392 C389 1.526 . S
C392 C393 1.396 . S
C392 C397 1.390 . S
C393 C387 1.465 . S
C393 C392 1.396 . S
C393 C394 1.399 . S
C394 H380 0.929 . S
C394 C393 1.399 . S
C394 C395 1.385 . S
C395 H381 0.931 . S
C395 C394 1.385 . S
C395 C396 1.389 . S
C396 C395 1.389 . S
C396 C397 1.387 . S
C397 H382 0.930 . S
C397 C392 1.390 . S
C397 C396 1.387 . S
H398 C410 0.930 . S
H399 C412 0.930 . S
H400 C413 0.930 . S
H401 C417 0.959 . S
H402 C417 0.959 . S
H403 C417 0.961 . S
H404 C418 0.960 . S
H405 C418 0.961 . S
H406 C418 0.959 . S
H407 C421 0.929 . S
H408 C422 0.931 . S
H409 C424 0.930 . S
C410 H398 0.930 . S
C410 C411 1.399 . S
C410 C415 1.399 . S
C411 C410 1.399 . S
C411 C412 1.376 . S
C412 H399 0.930 . S
C412 C411 1.376 . S
C412 C413 1.388 . S
C413 H400 0.930 . S
C413 C412 1.388 . S
C413 C414 1.390 . S
C414 C413 1.390 . S
C414 C415 1.394 . S
C414 C420 1.465 . S
C415 C410 1.399 . S
C415 C414 1.394 . S
C415 C416 1.516 . S
C416 C415 1.516 . S
C416 C417 1.502 . S
C416 C418 1.561 . S
C416 C419 1.526 . S
C417 H401 0.959 . S
C417 H402 0.959 . S
C417 H403 0.961 . S
C417 C416 1.502 . S
C418 H404 0.960 . S
C418 H405 0.961 . S
C418 H406 0.959 . S
C418 C416 1.561 . S
C419 C416 1.526 . S
C419 C420 1.396 . S
C419 C424 1.390 . S
C420 C414 1.465 . S
C420 C419 1.396 . S
C420 C421 1.399 . S
C421 H407 0.929 . S
C421 C420 1.399 . S
C421 C422 1.385 . S
C422 H408 0.931 . S
C422 C421 1.385 . S
C422 C423 1.389 . S
C423 C422 1.389 . S
C423 C424 1.387 . S
C424 H409 0.930 . S
C424 C419 1.390 . S
C424 C423 1.387 . S
H425 C437 0.930 . S
H426 C439 0.930 . S
H427 C440 0.930 1_545 S
H428 C444 0.959 . S
H429 C444 0.959 . S
H430 C444 0.961 . S
H431 C445 0.960 . S
H432 C445 0.961 . S
H433 C445 0.959 1_655 S
H434 C448 0.929 . S
H435 C449 0.931 . S
H436 C451 0.930 . S
C437 H425 0.930 . S
C437 C438 1.399 . S
C437 C442 1.399 . S
C438 C437 1.399 . S
C438 C439 1.376 . S
C439 H426 0.930 . S
C439 C438 1.376 . S
C439 C440 1.388 . S
C440 H427 0.930 1_565 S
C440 C439 1.388 . S
C440 C441 1.390 . S
C441 C440 1.390 . S
C441 C442 1.394 . S
C441 C447 1.465 1_455 S
C442 C437 1.399 . S
C442 C441 1.394 . S
C442 C443 1.516 . S
C443 C442 1.516 . S
C443 C444 1.502 . S
C443 C445 1.561 . S
C443 C446 1.526 . S
C444 H428 0.959 . S
C444 H429 0.959 . S
C444 H430 0.961 . S
C444 C443 1.502 . S
C445 H431 0.960 . S
C445 H432 0.961 . S
C445 H433 0.959 1_455 S
C445 C443 1.561 . S
C446 C443 1.526 . S
C446 C447 1.396 1_455 S
C446 C451 1.390 1_455 S
C447 C441 1.465 1_655 S
C447 C446 1.396 1_655 S
C447 C448 1.399 1_565 S
C448 H434 0.929 . S
C448 C447 1.399 1_545 S
C448 C449 1.385 . S
C449 H435 0.931 . S
C449 C448 1.385 . S
C449 C450 1.389 . S
C450 C449 1.389 . S
C450 C451 1.387 1_545 S
C451 H436 0.930 . S
C451 C446 1.390 1_655 S
C451 C450 1.387 1_565 S
H452 C464 0.930 . S
H453 C466 0.930 . S
H454 C467 0.930 . S
H455 C471 0.959 . S
H456 C471 0.959 . S
H457 C471 0.961 . S
H458 C472 0.960 . S
H459 C472 0.961 . S
H460 C472 0.959 . S
H461 C475 0.929 . S
H462 C476 0.931 . S
H463 C478 0.930 . S
C464 H452 0.930 . S
C464 C465 1.399 . S
C464 C469 1.399 . S
C465 C464 1.399 . S
C465 C466 1.376 . S
C466 H453 0.930 . S
C466 C465 1.376 . S
C466 C467 1.388 . S
C467 H454 0.930 . S
C467 C466 1.388 . S
C467 C468 1.390 . S
C468 C467 1.390 . S
C468 C469 1.394 . S
C468 C474 1.465 . S
C469 C464 1.399 . S
C469 C468 1.394 . S
C469 C470 1.516 . S
C470 C469 1.516 . S
C470 C471 1.502 . S
C470 C472 1.561 . S
C470 C473 1.526 . S
C471 H455 0.959 . S
C471 H456 0.959 . S
C471 H457 0.961 . S
C471 C470 1.502 . S
C472 H458 0.960 . S
C472 H459 0.961 . S
C472 H460 0.959 . S
C472 C470 1.561 . S
C473 C470 1.526 . S
C473 C474 1.396 . S
C473 C478 1.390 . S
C474 C468 1.465 . S
C474 C473 1.396 . S
C474 C475 1.399 . S
C475 H461 0.929 . S
C475 C474 1.399 . S
C475 C476 1.385 . S
C476 H462 0.931 . S
C476 C475 1.385 . S
C476 C477 1.389 . S
C477 C476 1.389 . S
C477 C478 1.387 . S
C478 H463 0.930 . S
C478 C473 1.390 . S
C478 C477 1.387 . S
H479 C491 0.930 . S
H480 C493 0.930 . S
H481 C494 0.930 . S
H482 C498 0.959 . S
H483 C498 0.959 . S
H484 C498 0.961 . S
H485 C499 0.960 . S
H486 C499 0.961 . S
H487 C499 0.959 . S
H488 C502 0.929 . S
H489 C503 0.931 . S
H490 C505 0.930 . S
C491 H479 0.930 . S
C491 C492 1.399 . S
C491 C496 1.399 . S
C492 C491 1.399 . S
C492 C493 1.376 . S
C493 H480 0.930 . S
C493 C492 1.376 . S
C493 C494 1.388 . S
C494 H481 0.930 . S
C494 C493 1.388 . S
C494 C495 1.390 . S
C495 C494 1.390 . S
C495 C496 1.394 . S
C495 C501 1.465 . S
C496 C491 1.399 . S
C496 C495 1.394 . S
C496 C497 1.516 . S
C497 C496 1.516 . S
C497 C498 1.502 . S
C497 C499 1.561 . S
C497 C500 1.526 . S
C498 H482 0.959 . S
C498 H483 0.959 . S
C498 H484 0.961 . S
C498 C497 1.502 . S
C499 H485 0.960 . S
C499 H486 0.961 . S
C499 H487 0.959 . S
C499 C497 1.561 . S
C500 C497 1.526 . S
C500 C501 1.396 . S
C500 C505 1.390 . S
C501 C495 1.465 . S
C501 C500 1.396 . S
C501 C502 1.399 . S
C502 H488 0.929 . S
C502 C501 1.399 . S
C502 C503 1.385 . S
C503 H489 0.931 . S
C503 C502 1.385 . S
C503 C504 1.389 . S
C504 C503 1.389 . S
C504 C505 1.387 . S
C505 H490 0.930 . S
C505 C500 1.390 . S
C505 C504 1.387 . S
H506 C518 0.930 . S
H507 C520 0.930 . S
H508 C521 0.930 . S
H509 C525 0.959 . S
H510 C525 0.959 . S
H511 C525 0.961 . S
H512 C526 0.960 . S
H513 C526 0.961 . S
H514 C526 0.959 . S
H515 C529 0.929 . S
H516 C530 0.931 . S
H517 C532 0.930 . S
C518 H506 0.930 . S
C518 C519 1.399 . S
C518 C523 1.399 . S
C519 C518 1.399 . S
C519 C520 1.376 . S
C520 H507 0.930 . S
C520 C519 1.376 . S
C520 C521 1.388 . S
C521 H508 0.930 . S
C521 C520 1.388 . S
C521 C522 1.390 . S
C522 C521 1.390 . S
C522 C523 1.394 . S
C522 C528 1.465 . S
C523 C518 1.399 . S
C523 C522 1.394 . S
C523 C524 1.516 . S
C524 C523 1.516 . S
C524 C525 1.502 . S
C524 C526 1.561 . S
C524 C527 1.526 . S
C525 H509 0.959 . S
C525 H510 0.959 . S
C525 H511 0.961 . S
C525 C524 1.502 . S
C526 H512 0.960 . S
C526 H513 0.961 . S
C526 H514 0.959 . S
C526 C524 1.561 . S
C527 C524 1.526 . S
C527 C528 1.396 . S
C527 C532 1.390 . S
C528 C522 1.465 . S
C528 C527 1.396 . S
C528 C529 1.399 . S
C529 H515 0.929 . S
C529 C528 1.399 . S
C529 C530 1.385 . S
C530 H516 0.931 . S
C530 C529 1.385 . S
C530 C531 1.389 . S
C531 C530 1.389 . S
C531 C532 1.387 . S
C532 H517 0.930 . S
C532 C527 1.390 . S
C532 C531 1.387 . S
H533 C545 0.930 1_545 S
H534 C547 0.930 . S
H535 C548 0.930 . S
H536 C552 0.959 . S
H537 C552 0.959 . S
H538 C552 0.961 . S
H539 C553 0.960 . S
H540 C553 0.961 . S
H541 C553 0.959 . S
H542 C556 0.929 . S
H543 C557 0.931 . S
H544 C559 0.933 . S
C545 H533 0.930 1_565 S
C545 C546 1.399 . S
C545 C550 1.399 . S
C546 C545 1.399 . S
C546 C547 1.376 . S
C547 H534 0.930 . S
C547 C546 1.376 . S
C547 C548 1.388 . S
C548 H535 0.930 . S
C548 C547 1.388 . S
C548 C549 1.390 . S
C549 C548 1.390 . S
C549 C550 1.394 . S
C549 C555 1.465 . S
C550 C545 1.399 . S
C550 C549 1.394 . S
C550 C551 1.516 1_565 S
C551 C550 1.516 1_545 S
C551 C552 1.502 . S
C551 C553 1.561 . S
C551 C554 1.526 1_545 S
C552 H536 0.959 . S
C552 H537 0.959 . S
C552 H538 0.961 . S
C552 C551 1.502 . S
C553 H539 0.960 . S
C553 H540 0.961 . S
C553 H541 0.959 . S
C553 C551 1.561 . S
C554 C551 1.526 1_565 S
C554 C555 1.396 . S
C554 C559 1.389 1_565 S
C555 C549 1.465 . S
C555 C554 1.396 . S
C555 C556 1.399 . S
C556 H542 0.929 . S
C556 C555 1.399 . S
C556 C557 1.385 . S
C557 H543 0.931 . S
C557 C556 1.385 . S
C557 C558 1.389 . S
C558 C557 1.389 . S
C558 C559 1.384 1_565 S
C559 H544 0.933 . S
C559 C554 1.389 1_545 S
C559 C558 1.384 1_545 S
H560 C572 0.930 . S
H561 C574 0.930 . S
H562 C575 0.930 . S
H563 C579 0.959 . S
H564 C579 0.959 . S
H565 C579 0.961 . S
H566 C580 0.960 . S
H567 C580 0.961 . S
H568 C580 0.959 . S
H569 C583 0.929 . S
H570 C584 0.931 . S
H571 C586 0.930 . S
C572 H560 0.930 . S
C572 C573 1.399 . S
C572 C577 1.399 . S
C573 C572 1.399 . S
C573 C574 1.376 . S
C574 H561 0.930 . S
C574 C573 1.376 . S
C574 C575 1.388 . S
C575 H562 0.930 . S
C575 C574 1.388 . S
C575 C576 1.390 . S
C576 C575 1.390 . S
C576 C577 1.394 . S
C576 C582 1.465 . S
C577 C572 1.399 . S
C577 C576 1.394 . S
C577 C578 1.516 . S
C578 C577 1.516 . S
C578 C579 1.502 . S
C578 C580 1.561 . S
C578 C581 1.526 . S
C579 H563 0.959 . S
C579 H564 0.959 . S
C579 H565 0.961 . S
C579 C578 1.502 . S
C580 H566 0.960 . S
C580 H567 0.961 . S
C580 H568 0.959 . S
C580 C578 1.561 . S
C581 C578 1.526 . S
C581 C582 1.396 . S
C581 C586 1.390 . S
C582 C576 1.465 . S
C582 C581 1.396 . S
C582 C583 1.399 . S
C583 H569 0.929 . S
C583 C582 1.399 . S
C583 C584 1.385 . S
C584 H570 0.931 . S
C584 C583 1.385 . S
C584 C585 1.389 . S
C585 C584 1.389 . S
C585 C586 1.387 . S
C586 H571 0.930 . S
C586 C581 1.390 . S
C586 C585 1.387 . S
H587 C599 0.930 . S
H588 C601 0.930 . S
H589 C602 0.930 . S
H590 C606 0.959 . S
H591 C606 0.959 . S
H592 C606 0.961 . S
H593 C607 0.960 . S
H594 C607 0.961 . S
H595 C607 0.959 . S
H596 C610 0.929 . S
H597 C611 0.931 . S
H598 C613 0.930 . S
C599 H587 0.930 . S
C599 C600 1.399 . S
C599 C604 1.399 . S
C600 C599 1.399 . S
C600 C601 1.376 . S
C601 H588 0.930 . S
C601 C600 1.376 . S
C601 C602 1.388 . S
C602 H589 0.930 . S
C602 C601 1.388 . S
C602 C603 1.390 . S
C603 C602 1.390 . S
C603 C604 1.394 . S
C603 C609 1.465 . S
C604 C599 1.399 . S
C604 C603 1.394 . S
C604 C605 1.516 . S
C605 C604 1.516 . S
C605 C606 1.502 . S
C605 C607 1.561 . S
C605 C608 1.526 . S
C606 H590 0.959 . S
C606 H591 0.959 . S
C606 H592 0.961 . S
C606 C605 1.502 . S
C607 H593 0.960 . S
C607 H594 0.961 . S
C607 H595 0.959 . S
C607 C605 1.561 . S
C608 C605 1.526 . S
C608 C609 1.396 . S
C608 C613 1.390 . S
C609 C603 1.465 . S
C609 C608 1.396 . S
C609 C610 1.399 . S
C610 H596 0.929 . S
C610 C609 1.399 . S
C610 C611 1.385 . S
C611 H597 0.931 . S
C611 C610 1.385 . S
C611 C612 1.389 . S
C612 C611 1.389 . S
C612 C613 1.387 . S
C613 H598 0.930 . S
C613 C608 1.390 . S
C613 C612 1.387 . S
H614 C626 0.930 . S
H615 C628 0.930 . S
H616 C629 0.930 . S
H617 C633 0.959 . S
H618 C633 0.959 . S
H619 C633 0.961 . S
H620 C634 0.960 . S
H621 C634 0.961 . S
H622 C634 0.959 . S
H623 C637 0.929 . S
H624 C638 0.931 . S
H625 C640 0.930 . S
C626 H614 0.930 . S
C626 C627 1.399 . S
C626 C631 1.399 . S
C627 C626 1.399 . S
C627 C628 1.376 . S
C628 H615 0.930 . S
C628 C627 1.376 . S
C628 C629 1.388 . S
C629 H616 0.930 . S
C629 C628 1.388 . S
C629 C630 1.390 . S
C630 C629 1.390 . S
C630 C631 1.394 . S
C630 C636 1.465 . S
C631 C626 1.399 . S
C631 C630 1.394 . S
C631 C632 1.516 . S
C632 C631 1.516 . S
C632 C633 1.502 . S
C632 C634 1.561 . S
C632 C635 1.526 . S
C633 H617 0.959 . S
C633 H618 0.959 . S
C633 H619 0.961 . S
C633 C632 1.502 . S
C634 H620 0.960 . S
C634 H621 0.961 . S
C634 H622 0.959 . S
C634 C632 1.561 . S
C635 C632 1.526 . S
C635 C636 1.396 . S
C635 C640 1.390 . S
C636 C630 1.465 . S
C636 C635 1.396 . S
C636 C637 1.399 . S
C637 H623 0.929 . S
C637 C636 1.399 . S
C637 C638 1.385 . S
C638 H624 0.931 . S
C638 C637 1.385 . S
C638 C639 1.389 . S
C639 C638 1.389 . S
C639 C640 1.387 . S
C640 H625 0.930 . S
C640 C635 1.390 . S
C640 C639 1.387 . S
H641 C653 0.930 . S
H642 C655 0.930 . S
H643 C656 0.930 . S
H644 C660 0.959 . S
H645 C660 0.959 . S
H646 C660 0.961 . S
H647 C661 0.960 . S
H648 C661 0.961 . S
H649 C661 0.959 . S
H650 C664 0.929 . S
H651 C665 0.931 . S
H652 C667 0.930 . S
C653 H641 0.930 . S
C653 C654 1.399 . S
C653 C658 1.399 . S
C654 C653 1.399 . S
C654 C655 1.376 . S
C655 H642 0.930 . S
C655 C654 1.376 . S
C655 C656 1.388 . S
C656 H643 0.930 . S
C656 C655 1.388 . S
C656 C657 1.390 . S
C657 C656 1.390 . S
C657 C658 1.394 . S
C657 C663 1.465 . S
C658 C653 1.399 . S
C658 C657 1.394 . S
C658 C659 1.516 . S
C659 C658 1.516 . S
C659 C660 1.502 . S
C659 C661 1.561 . S
C659 C662 1.526 . S
C660 H644 0.959 . S
C660 H645 0.959 . S
C660 H646 0.961 . S
C660 C659 1.502 . S
C661 H647 0.960 . S
C661 H648 0.961 . S
C661 H649 0.959 . S
C661 C659 1.561 . S
C662 C659 1.526 . S
C662 C663 1.396 . S
C662 C667 1.390 . S
C663 C657 1.465 . S
C663 C662 1.396 . S
C663 C664 1.399 . S
C664 H650 0.929 . S
C664 C663 1.399 . S
C664 C665 1.385 . S
C665 H651 0.931 . S
C665 C664 1.385 . S
C665 C666 1.389 . S
C666 C665 1.389 . S
C666 C667 1.387 . S
C667 H652 0.930 . S
C667 C662 1.390 . S
C667 C666 1.387 . S
H668 C680 0.930 . S
H669 C682 0.930 . S
H670 C683 0.930 . S
H671 C687 0.959 . S
H672 C687 0.959 . S
H673 C687 0.961 . S
H674 C688 0.960 . S
H675 C688 0.961 . S
H676 C688 0.959 . S
H677 C691 0.929 . S
H678 C692 0.931 . S
H679 C694 0.930 . S
C680 H668 0.930 . S
C680 C681 1.399 . S
C680 C685 1.399 . S
C681 C680 1.399 . S
C681 C682 1.376 . S
C682 H669 0.930 . S
C682 C681 1.376 . S
C682 C683 1.388 . S
C683 H670 0.930 . S
C683 C682 1.388 . S
C683 C684 1.390 . S
C684 C683 1.390 . S
C684 C685 1.394 . S
C684 C690 1.465 . S
C685 C680 1.399 . S
C685 C684 1.394 . S
C685 C686 1.516 . S
C686 C685 1.516 . S
C686 C687 1.502 . S
C686 C688 1.561 . S
C686 C689 1.526 . S
C687 H671 0.959 . S
C687 H672 0.959 . S
C687 H673 0.961 . S
C687 C686 1.502 . S
C688 H674 0.960 . S
C688 H675 0.961 . S
C688 H676 0.959 . S
C688 C686 1.561 . S
C689 C686 1.526 . S
C689 C690 1.396 . S
C689 C694 1.390 . S
C690 C684 1.465 . S
C690 C689 1.396 . S
C690 C691 1.399 . S
C691 H677 0.929 . S
C691 C690 1.399 . S
C691 C692 1.385 . S
C692 H678 0.931 . S
C692 C691 1.385 . S
C692 C693 1.389 . S
C693 C692 1.389 . S
C693 C694 1.387 . S
C694 H679 0.930 . S
C694 C689 1.390 . S
C694 C693 1.387 . S
H695 C707 0.930 . S
H696 C709 0.930 . S
H697 C710 0.930 . S
H698 C714 0.959 1_455 S
H699 C714 0.959 . S
H700 C714 0.961 . S
H701 C715 0.960 . S
H702 C715 0.961 . S
H703 C715 0.959 . S
H704 C718 0.929 . S
H705 C719 0.931 . S
H706 C721 0.930 . S
C707 H695 0.930 . S
C707 C708 1.399 . S
C707 C712 1.399 . S
C708 C707 1.399 . S
C708 C709 1.376 . S
C709 H696 0.930 . S
C709 C708 1.376 . S
C709 C710 1.388 . S
C710 H697 0.930 . S
C710 C709 1.388 . S
C710 C711 1.390 . S
C711 C710 1.390 . S
C711 C712 1.394 . S
C711 C717 1.465 . S
C712 C707 1.399 . S
C712 C711 1.394 . S
C712 C713 1.516 . S
C713 C712 1.516 . S
C713 C714 1.502 1_455 S
C713 C715 1.561 . S
C713 C716 1.526 . S
C714 H698 0.959 1_655 S
C714 H699 0.959 . S
C714 H700 0.961 . S
C714 C713 1.502 1_655 S
C715 H701 0.960 . S
C715 H702 0.961 . S
C715 H703 0.959 . S
C715 C713 1.561 . S
C716 C713 1.526 . S
C716 C717 1.396 . S
C716 C721 1.390 . S
C717 C711 1.465 . S
C717 C716 1.396 . S
C717 C718 1.399 . S
C718 H704 0.929 . S
C718 C717 1.399 . S
C718 C719 1.385 . S
C719 H705 0.931 . S
C719 C718 1.385 . S
C719 C720 1.389 . S
C720 C719 1.389 . S
C720 C721 1.387 . S
C721 H706 0.930 . S
C721 C716 1.390 . S
C721 C720 1.387 . S
H722 C734 0.930 . S
H723 C736 0.930 . S
H724 C737 0.930 . S
H725 C741 0.959 . S
H726 C741 0.959 . S
H727 C741 0.961 . S
H728 C742 0.960 . S
H729 C742 0.961 . S
H730 C742 0.959 . S
H731 C745 0.929 . S
H732 C746 0.931 . S
H733 C748 0.930 . S
C734 H722 0.930 . S
C734 C735 1.399 . S
C734 C739 1.399 . S
C735 C734 1.399 . S
C735 C736 1.376 . S
C736 H723 0.930 . S
C736 C735 1.376 . S
C736 C737 1.388 . S
C737 H724 0.930 . S
C737 C736 1.388 . S
C737 C738 1.390 . S
C738 C737 1.390 . S
C738 C739 1.394 . S
C738 C744 1.465 . S
C739 C734 1.399 . S
C739 C738 1.394 . S
C739 C740 1.516 . S
C740 C739 1.516 . S
C740 C741 1.502 . S
C740 C742 1.561 . S
C740 C743 1.526 . S
C741 H725 0.959 . S
C741 H726 0.959 . S
C741 H727 0.961 . S
C741 C740 1.502 . S
C742 H728 0.960 . S
C742 H729 0.961 . S
C742 H730 0.959 . S
C742 C740 1.561 . S
C743 C740 1.526 . S
C743 C744 1.396 . S
C743 C748 1.390 . S
C744 C738 1.465 . S
C744 C743 1.396 . S
C744 C745 1.399 . S
C745 H731 0.929 . S
C745 C744 1.399 . S
C745 C746 1.385 . S
C746 H732 0.931 . S
C746 C745 1.385 . S
C746 C747 1.389 . S
C747 C746 1.389 . S
C747 C748 1.387 . S
C748 H733 0.930 . S
C748 C743 1.390 . S
C748 C747 1.387 . S
H749 C761 0.930 . S
H750 C763 0.930 . S
H751 C764 0.930 . S
H752 C768 0.959 . S
H753 C768 0.959 . S
H754 C768 0.961 . S
H755 C769 0.960 . S
H756 C769 0.961 . S
H757 C769 0.959 . S
H758 C772 0.929 . S
H759 C773 0.931 . S
H760 C775 0.930 . S
C761 H749 0.930 . S
C761 C762 1.399 . S
C761 C766 1.399 . S
C762 C761 1.399 . S
C762 C763 1.376 . S
C763 H750 0.930 . S
C763 C762 1.376 . S
C763 C764 1.388 . S
C764 H751 0.930 . S
C764 C763 1.388 . S
C764 C765 1.390 . S
C765 C764 1.390 . S
C765 C766 1.394 . S
C765 C771 1.465 . S
C766 C761 1.399 . S
C766 C765 1.394 . S
C766 C767 1.516 . S
C767 C766 1.516 . S
C767 C768 1.502 . S
C767 C769 1.561 1_655 S
C767 C770 1.526 . S
C768 H752 0.959 . S
C768 H753 0.959 . S
C768 H754 0.961 . S
C768 C767 1.502 . S
C769 H755 0.960 . S
C769 H756 0.961 . S
C769 H757 0.959 . S
C769 C767 1.561 1_455 S
C770 C767 1.526 . S
C770 C771 1.396 . S
C770 C775 1.390 . S
C771 C765 1.465 . S
C771 C770 1.396 . S
C771 C772 1.399 1_655 S
C772 H758 0.929 . S
C772 C771 1.399 1_455 S
C772 C773 1.385 . S
C773 H759 0.931 . S
C773 C772 1.385 . S
C773 C774 1.392 . S
C774 C773 1.392 . S
C774 C775 1.385 1_455 S
C775 H760 0.930 . S
C775 C770 1.390 . S
C775 C774 1.385 1_655 S
H776 C788 0.930 . S
H777 C790 0.930 . S
H778 C791 0.930 . S
H779 C795 0.959 . S
H780 C795 0.959 . S
H781 C795 0.961 . S
H782 C796 0.960 . S
H783 C796 0.961 . S
H784 C796 0.959 . S
H785 C799 0.929 . S
H786 C800 0.931 . S
H787 C802 0.930 . S
C788 H776 0.930 . S
C788 C789 1.399 . S
C788 C793 1.399 . S
C789 C788 1.399 . S
C789 C790 1.376 . S
C790 H777 0.930 . S
C790 C789 1.376 . S
C790 C791 1.388 . S
C791 H778 0.930 . S
C791 C790 1.388 . S
C791 C792 1.390 . S
C792 C791 1.390 . S
C792 C793 1.394 . S
C792 C798 1.465 . S
C793 C788 1.399 . S
C793 C792 1.394 . S
C793 C794 1.516 . S
C794 C793 1.516 . S
C794 C795 1.502 . S
C794 C796 1.561 . S
C794 C797 1.526 . S
C795 H779 0.959 . S
C795 H780 0.959 . S
C795 H781 0.961 . S
C795 C794 1.502 . S
C796 H782 0.960 . S
C796 H783 0.961 . S
C796 H784 0.959 . S
C796 C794 1.561 . S
C797 C794 1.526 . S
C797 C798 1.396 . S
C797 C802 1.390 . S
C798 C792 1.465 . S
C798 C797 1.396 . S
C798 C799 1.399 . S
C799 H785 0.929 . S
C799 C798 1.399 . S
C799 C800 1.385 . S
C800 H786 0.931 . S
C800 C799 1.385 . S
C800 C801 1.389 . S
C801 C800 1.389 . S
C801 C802 1.387 . S
C802 H787 0.930 . S
C802 C797 1.390 . S
C802 C801 1.387 . S
H803 C815 0.930 . S
H804 C817 0.930 . S
H805 C818 0.930 . S
H806 C822 0.959 . S
H807 C822 0.959 . S
H808 C822 0.961 . S
H809 C823 0.960 . S
H810 C823 0.961 . S
H811 C823 0.959 . S
H812 C826 0.929 . S
H813 C827 0.931 . S
H814 C829 0.930 . S
C815 H803 0.930 . S
C815 C816 1.399 . S
C815 C820 1.399 . S
C816 C815 1.399 . S
C816 C817 1.376 . S
C817 H804 0.930 . S
C817 C816 1.376 . S
C817 C818 1.388 . S
C818 H805 0.930 . S
C818 C817 1.388 . S
C818 C819 1.390 . S
C819 C818 1.390 . S
C819 C820 1.394 . S
C819 C825 1.465 . S
C820 C815 1.399 . S
C820 C819 1.394 . S
C820 C821 1.516 . S
C821 C820 1.516 . S
C821 C822 1.502 . S
C821 C823 1.561 . S
C821 C824 1.526 . S
C822 H806 0.959 . S
C822 H807 0.959 . S
C822 H808 0.961 . S
C822 C821 1.502 . S
C823 H809 0.960 . S
C823 H810 0.961 . S
C823 H811 0.959 . S
C823 C821 1.561 . S
C824 C821 1.526 . S
C824 C825 1.396 . S
C824 C829 1.390 . S
C825 C819 1.465 . S
C825 C824 1.396 . S
C825 C826 1.399 . S
C826 H812 0.929 . S
C826 C825 1.399 . S
C826 C827 1.385 . S
C827 H813 0.931 . S
C827 C826 1.385 . S
C827 C828 1.389 . S
C828 C827 1.389 . S
C828 C829 1.387 . S
C829 H814 0.930 . S
C829 C824 1.390 . S
C829 C828 1.387 . S
H830 C842 0.930 . S
H831 C844 0.929 1_554 S
H832 C845 0.930 . S
H833 C849 0.959 . S
H834 C849 0.959 . S
H835 C849 0.961 . S
H836 C850 0.960 . S
H837 C850 0.961 . S
H838 C850 0.959 . S
H839 C853 0.929 . S
H840 C854 0.931 . S
H841 C856 0.930 . S
C842 H830 0.930 . S
C842 C843 1.399 1_565 S
C842 C847 1.399 . S
C843 C842 1.399 1_545 S
C843 C844 1.376 . S
C844 H831 0.929 1_556 S
C844 C843 1.376 . S
C844 C845 1.388 1_556 S
C845 H832 0.930 . S
C845 C844 1.388 1_554 S
C845 C846 1.390 1_544 S
C846 C845 1.390 1_566 S
C846 C847 1.394 . S
C846 C852 1.465 1_556 S
C847 C842 1.399 . S
C847 C846 1.394 . S
C847 C848 1.516 . S
C848 C847 1.516 . S
C848 C849 1.502 . S
C848 C850 1.561 . S
C848 C851 1.526 . S
C849 H833 0.959 . S
C849 H834 0.959 . S
C849 H835 0.961 . S
C849 C848 1.502 . S
C850 H836 0.960 . S
C850 H837 0.961 . S
C850 H838 0.959 . S
C850 C848 1.561 . S
C851 C848 1.526 . S
C851 C852 1.396 1_556 S
C851 C856 1.390 . S
C852 C846 1.465 1_554 S
C852 C851 1.396 1_554 S
C852 C853 1.399 . S
C853 H839 0.929 . S
C853 C852 1.399 . S
C853 C854 1.385 . S
C854 H840 0.931 . S
C854 C853 1.385 . S
C854 C855 1.389 . S
C855 C854 1.389 . S
C855 C856 1.387 1_554 S
C856 H841 0.930 . S
C856 C851 1.390 . S
C856 C855 1.387 1_556 S
H857 C869 0.930 . S
H858 C871 0.930 . S
H859 C872 0.930 . S
H860 C876 0.959 . S
H861 C876 0.959 . S
H862 C876 0.961 . S
H863 C877 0.960 . S
H864 C877 0.961 . S
H865 C877 0.959 . S
H866 C880 0.929 . S
H867 C881 0.931 . S
H868 C883 0.930 . S
C869 H857 0.930 . S
C869 C870 1.399 . S
C869 C874 1.399 . S
C870 C869 1.399 . S
C870 C871 1.376 . S
C871 H858 0.930 . S
C871 C870 1.376 . S
C871 C872 1.388 . S
C872 H859 0.930 . S
C872 C871 1.388 . S
C872 C873 1.390 . S
C873 C872 1.390 . S
C873 C874 1.394 . S
C873 C879 1.465 . S
C874 C869 1.399 . S
C874 C873 1.394 . S
C874 C875 1.516 . S
C875 C874 1.516 . S
C875 C876 1.502 . S
C875 C877 1.561 . S
C875 C878 1.526 . S
C876 H860 0.959 . S
C876 H861 0.959 . S
C876 H862 0.961 . S
C876 C875 1.502 . S
C877 H863 0.960 . S
C877 H864 0.961 . S
C877 H865 0.959 . S
C877 C875 1.561 . S
C878 C875 1.526 . S
C878 C879 1.396 . S
C878 C883 1.390 . S
C879 C873 1.465 . S
C879 C878 1.396 . S
C879 C880 1.399 . S
C880 H866 0.929 . S
C880 C879 1.399 . S
C880 C881 1.385 . S
C881 H867 0.931 . S
C881 C880 1.385 . S
C881 C882 1.389 . S
C882 C881 1.389 . S
C882 C883 1.387 . S
C883 H868 0.930 . S
C883 C878 1.390 . S
C883 C882 1.387 . S
H884 C896 0.925 1_565 S
H885 C898 0.930 1_565 S
H886 C899 0.930 . S
H887 C903 0.959 . S
H888 C903 0.959 . S
H889 C903 0.961 . S
H890 C904 0.960 . S
H891 C904 0.961 . S
H892 C904 0.959 . S
H893 C907 0.929 . S
H894 C908 0.931 . S
H895 C910 0.930 . S
C896 H884 0.925 1_545 S
C896 C897 1.399 1_545 S
C896 C901 1.399 . S
C897 C896 1.399 1_565 S
C897 C898 1.376 1_565 S
C898 H885 0.930 1_545 S
C898 C897 1.376 1_545 S
C898 C899 1.388 . S
C899 H886 0.930 . S
C899 C898 1.388 . S
C899 C900 1.390 . S
C900 C899 1.390 . S
C900 C901 1.394 . S
C900 C906 1.465 . S
C901 C896 1.399 . S
C901 C900 1.394 . S
C901 C902 1.516 . S
C902 C901 1.516 . S
C902 C903 1.502 . S
C902 C904 1.561 . S
C902 C905 1.526 . S
C903 H887 0.959 . S
C903 H888 0.959 . S
C903 H889 0.961 . S
C903 C902 1.502 . S
C904 H890 0.960 . S
C904 H891 0.961 . S
C904 H892 0.959 . S
C904 C902 1.561 . S
C905 C902 1.526 . S
C905 C906 1.396 . S
C905 C910 1.390 . S
C906 C900 1.465 . S
C906 C905 1.396 . S
C906 C907 1.399 . S
C907 H893 0.929 . S
C907 C906 1.399 . S
C907 C908 1.385 . S
C908 H894 0.931 . S
C908 C907 1.385 . S
C908 C909 1.389 . S
C909 C908 1.389 . S
C909 C910 1.387 . S
C910 H895 0.930 . S
C910 C905 1.390 . S
C910 C909 1.387 . S
H911 C923 0.930 . S
H912 C925 0.930 . S
H913 C926 0.930 . S
H914 C930 0.959 . S
H915 C930 0.959 . S
H916 C930 0.961 . S
H917 C931 0.960 . S
H918 C931 0.961 . S
H919 C931 0.959 . S
H920 C934 0.929 . S
H921 C935 0.931 . S
H922 C937 0.930 . S
C923 H911 0.930 . S
C923 C924 1.399 . S
C923 C928 1.399 . S
C924 C923 1.399 . S
C924 C925 1.376 . S
C925 H912 0.930 . S
C925 C924 1.376 . S
C925 C926 1.388 . S
C926 H913 0.930 . S
C926 C925 1.388 . S
C926 C927 1.390 . S
C927 C926 1.390 . S
C927 C928 1.394 . S
C927 C933 1.465 . S
C928 C923 1.399 . S
C928 C927 1.394 . S
C928 C929 1.516 . S
C929 C928 1.516 . S
C929 C930 1.502 . S
C929 C931 1.561 . S
C929 C932 1.526 . S
C930 H914 0.959 . S
C930 H915 0.959 . S
C930 H916 0.961 . S
C930 C929 1.502 . S
C931 H917 0.960 . S
C931 H918 0.961 . S
C931 H919 0.959 . S
C931 C929 1.561 . S
C932 C929 1.526 . S
C932 C933 1.396 . S
C932 C937 1.390 . S
C933 C927 1.465 . S
C933 C932 1.396 . S
C933 C934 1.399 . S
C934 H920 0.929 . S
C934 C933 1.399 . S
C934 C935 1.385 . S
C935 H921 0.931 . S
C935 C934 1.385 . S
C935 C936 1.389 . S
C936 C935 1.389 . S
C936 C937 1.387 . S
C937 H922 0.930 . S
C937 C932 1.390 . S
C937 C936 1.387 . S
H938 C950 0.930 . S
H939 C952 0.930 . S
H940 C953 0.930 . S
H941 C957 0.959 . S
H942 C957 0.959 . S
H943 C957 0.961 . S
H944 C958 0.960 . S
H945 C958 0.961 . S
H946 C958 0.959 . S
H947 C961 0.929 . S
H948 C962 0.931 . S
H949 C964 0.930 . S
C950 H938 0.930 . S
C950 C951 1.399 . S
C950 C955 1.399 . S
C951 C950 1.399 . S
C951 C952 1.376 . S
C952 H939 0.930 . S
C952 C951 1.376 . S
C952 C953 1.388 . S
C953 H940 0.930 . S
C953 C952 1.388 . S
C953 C954 1.390 . S
C954 C953 1.390 . S
C954 C955 1.394 . S
C954 C960 1.465 . S
C955 C950 1.399 . S
C955 C954 1.394 . S
C955 C956 1.516 . S
C956 C955 1.516 . S
C956 C957 1.502 . S
C956 C958 1.561 . S
C956 C959 1.526 . S
C957 H941 0.959 . S
C957 H942 0.959 . S
C957 H943 0.961 . S
C957 C956 1.502 . S
C958 H944 0.960 . S
C958 H945 0.961 . S
C958 H946 0.959 . S
C958 C956 1.561 . S
C959 C956 1.526 . S
C959 C960 1.396 . S
C959 C964 1.390 . S
C960 C954 1.465 . S
C960 C959 1.396 . S
C960 C961 1.399 . S
C961 H947 0.929 . S
C961 C960 1.399 . S
C961 C962 1.385 . S
C962 H948 0.931 . S
C962 C961 1.385 . S
C962 C963 1.389 . S
C963 C962 1.389 . S
C963 C964 1.387 . S
C964 H949 0.930 . S
C964 C959 1.390 . S
C964 C963 1.387 . S
H965 C977 0.930 . S
H966 C979 0.930 . S
H967 C980 0.930 . S
H968 C984 0.959 . S
H969 C984 0.959 . S
H970 C984 0.961 . S
H971 C985 0.960 . S
H972 C985 0.961 . S
H973 C985 0.959 . S
H974 C988 0.929 . S
H975 C989 0.931 . S
H976 C991 0.930 . S
C977 H965 0.930 . S
C977 C978 1.399 . S
C977 C982 1.399 . S
C978 C977 1.399 . S
C978 C979 1.376 . S
C979 H966 0.930 . S
C979 C978 1.376 . S
C979 C980 1.388 . S
C980 H967 0.930 . S
C980 C979 1.388 . S
C980 C981 1.390 . S
C981 C980 1.390 . S
C981 C982 1.394 . S
C981 C987 1.465 . S
C982 C977 1.399 . S
C982 C981 1.394 . S
C982 C983 1.516 . S
C983 C982 1.516 . S
C983 C984 1.502 . S
C983 C985 1.561 . S
C983 C986 1.526 . S
C984 H968 0.959 . S
C984 H969 0.959 . S
C984 H970 0.961 . S
C984 C983 1.502 . S
C985 H971 0.960 . S
C985 H972 0.961 . S
C985 H973 0.959 . S
C985 C983 1.561 . S
C986 C983 1.526 . S
C986 C987 1.396 . S
C986 C991 1.390 . S
C987 C981 1.465 . S
C987 C986 1.396 . S
C987 C988 1.399 . S
C988 H974 0.929 . S
C988 C987 1.399 . S
C988 C989 1.385 . S
C989 H975 0.931 . S
C989 C988 1.385 . S
C989 C990 1.389 . S
C990 C989 1.389 . S
C990 C991 1.387 . S
C991 H976 0.930 . S
C991 C986 1.390 . S
C991 C990 1.387 . S
H992 C1004 0.930 . S
H993 C1006 0.930 . S
H994 C1007 0.930 . S
H995 C1011 0.959 . S
H996 C1011 0.959 . S
H997 C1011 0.961 . S
H998 C1012 0.960 . S
H999 C1012 0.961 . S
H1000 C1012 0.959 . S
H1001 C1015 0.929 . S
H1002 C1016 0.931 . S
H1003 C1018 0.930 . S
C1004 H992 0.930 . S
C1004 C1005 1.399 . S
C1004 C1009 1.399 . S
C1005 C1004 1.399 . S
C1005 C1006 1.376 . S
C1006 H993 0.930 . S
C1006 C1005 1.376 . S
C1006 C1007 1.388 . S
C1007 H994 0.930 . S
C1007 C1006 1.388 . S
C1007 C1008 1.390 . S
C1008 C1007 1.390 . S
C1008 C1009 1.394 . S
C1008 C1014 1.465 . S
C1009 C1004 1.399 . S
C1009 C1008 1.394 . S
C1009 C1010 1.516 . S
C1010 C1009 1.516 . S
C1010 C1011 1.502 . S
C1010 C1012 1.561 . S
C1010 C1013 1.526 . S
C1011 H995 0.959 . S
C1011 H996 0.959 . S
C1011 H997 0.961 . S
C1011 C1010 1.502 . S
C1012 H998 0.960 . S
C1012 H999 0.961 . S
C1012 H1000 0.959 . S
C1012 C1010 1.561 . S
C1013 C1010 1.526 . S
C1013 C1014 1.396 . S
C1013 C1018 1.390 . S
C1014 C1008 1.465 . S
C1014 C1013 1.396 . S
C1014 C1015 1.399 . S
C1015 H1001 0.929 . S
C1015 C1014 1.399 . S
C1015 C1016 1.385 . S
C1016 H1002 0.931 . S
C1016 C1015 1.385 . S
C1016 C1017 1.389 . S
C1017 C1016 1.389 . S
C1017 C1018 1.387 . S
C1018 H1003 0.930 . S
C1018 C1013 1.390 . S
C1018 C1017 1.387 . S
H1019 C1031 0.930 . S
H1020 C1033 0.930 . S
H1021 C1034 0.930 . S
H1022 C1038 0.959 1_545 S
H1023 C1038 0.959 . S
H1024 C1038 0.961 . S
H1025 C1039 0.960 . S
H1026 C1039 0.961 . S
H1027 C1039 0.959 . S
H1028 C1042 0.929 . S
H1029 C1043 0.931 . S
H1030 C1045 0.930 1_565 S
C1031 H1019 0.930 . S
C1031 C1032 1.399 . S
C1031 C1036 1.399 . S
C1032 C1031 1.399 . S
C1032 C1033 1.376 . S
C1033 H1020 0.930 . S
C1033 C1032 1.376 . S
C1033 C1034 1.388 . S
C1034 H1021 0.930 . S
C1034 C1033 1.388 . S
C1034 C1035 1.390 . S
C1035 C1034 1.390 . S
C1035 C1036 1.394 . S
C1035 C1041 1.465 . S
C1036 C1031 1.399 . S
C1036 C1035 1.394 . S
C1036 C1037 1.516 . S
C1037 C1036 1.516 . S
C1037 C1038 1.502 1_545 S
C1037 C1039 1.561 1_545 S
C1037 C1040 1.526 . S
C1038 H1022 0.959 1_565 S
C1038 H1023 0.959 . S
C1038 H1024 0.961 . S
C1038 C1037 1.502 1_565 S
C1039 H1025 0.960 . S
C1039 H1026 0.961 . S
C1039 H1027 0.959 . S
C1039 C1037 1.561 1_565 S
C1040 C1037 1.526 . S
C1040 C1041 1.396 . S
C1040 C1045 1.390 . S
C1041 C1035 1.465 . S
C1041 C1040 1.396 . S
C1041 C1042 1.399 . S
C1042 H1028 0.929 . S
C1042 C1041 1.399 . S
C1042 C1043 1.385 . S
C1043 H1029 0.931 . S
C1043 C1042 1.385 . S
C1043 C1044 1.389 . S
C1044 C1043 1.389 . S
C1044 C1045 1.387 . S
C1045 H1030 0.930 1_545 S
C1045 C1040 1.390 . S
C1045 C1044 1.387 . S
H1046 C1058 0.930 . S
H1047 C1060 0.930 . S
H1048 C1061 0.930 . S
H1049 C1065 0.959 . S
H1050 C1065 0.959 . S
H1051 C1065 0.961 . S
H1052 C1066 0.960 . S
H1053 C1066 0.961 . S
H1054 C1066 0.959 . S
H1055 C1069 0.929 . S
H1056 C1070 0.931 . S
H1057 C1072 0.930 . S
C1058 H1046 0.930 . S
C1058 C1059 1.399 . S
C1058 C1063 1.399 . S
C1059 C1058 1.399 . S
C1059 C1060 1.376 . S
C1060 H1047 0.930 . S
C1060 C1059 1.376 . S
C1060 C1061 1.388 . S
C1061 H1048 0.930 . S
C1061 C1060 1.388 . S
C1061 C1062 1.390 . S
C1062 C1061 1.390 . S
C1062 C1063 1.394 . S
C1062 C1068 1.465 . S
C1063 C1058 1.399 . S
C1063 C1062 1.394 . S
C1063 C1064 1.516 . S
C1064 C1063 1.516 . S
C1064 C1065 1.502 . S
C1064 C1066 1.561 . S
C1064 C1067 1.526 . S
C1065 H1049 0.959 . S
C1065 H1050 0.959 . S
C1065 H1051 0.961 . S
C1065 C1064 1.502 . S
C1066 H1052 0.960 . S
C1066 H1053 0.961 . S
C1066 H1054 0.959 . S
C1066 C1064 1.561 . S
C1067 C1064 1.526 . S
C1067 C1068 1.396 . S
C1067 C1072 1.390 . S
C1068 C1062 1.465 . S
C1068 C1067 1.396 . S
C1068 C1069 1.399 . S
C1069 H1055 0.929 . S
C1069 C1068 1.399 . S
C1069 C1070 1.385 . S
C1070 H1056 0.931 . S
C1070 C1069 1.385 . S
C1070 C1071 1.389 . S
C1071 C1070 1.389 . S
C1071 C1072 1.387 . S
C1072 H1057 0.930 . S
C1072 C1067 1.390 . S
C1072 C1071 1.387 . S
H1073 C1085 0.930 . S
H1074 C1087 0.930 . S
H1075 C1088 0.930 . S
H1076 C1092 0.959 . S
H1077 C1092 0.959 . S
H1078 C1092 0.961 . S
H1079 C1093 0.960 . S
H1080 C1093 0.961 . S
H1081 C1093 0.959 . S
H1082 C1096 0.929 . S
H1083 C1097 0.931 . S
H1084 C1099 0.930 . S
C1085 H1073 0.930 . S
C1085 C1086 1.399 . S
C1085 C1090 1.399 . S
C1086 C1085 1.399 . S
C1086 C1087 1.376 . S
C1087 H1074 0.930 . S
C1087 C1086 1.376 . S
C1087 C1088 1.388 . S
C1088 H1075 0.930 . S
C1088 C1087 1.388 . S
C1088 C1089 1.390 . S
C1089 C1088 1.390 . S
C1089 C1090 1.394 . S
C1089 C1095 1.465 . S
C1090 C1085 1.399 . S
C1090 C1089 1.394 . S
C1090 C1091 1.516 . S
C1091 C1090 1.516 . S
C1091 C1092 1.502 . S
C1091 C1093 1.561 . S
C1091 C1094 1.526 . S
C1092 H1076 0.959 . S
C1092 H1077 0.959 . S
C1092 H1078 0.961 . S
C1092 C1091 1.502 . S
C1093 H1079 0.960 . S
C1093 H1080 0.961 . S
C1093 H1081 0.959 . S
C1093 C1091 1.561 . S
C1094 C1091 1.526 . S
C1094 C1095 1.396 . S
C1094 C1099 1.390 . S
C1095 C1089 1.465 . S
C1095 C1094 1.396 . S
C1095 C1096 1.399 . S
C1096 H1082 0.929 . S
C1096 C1095 1.399 . S
C1096 C1097 1.385 . S
C1097 H1083 0.931 . S
C1097 C1096 1.385 . S
C1097 C1098 1.389 . S
C1098 C1097 1.389 . S
C1098 C1099 1.387 . S
C1099 H1084 0.930 . S
C1099 C1094 1.390 . S
C1099 C1098 1.387 . S
H1100 C1112 0.930 . S
H1101 C1114 0.930 . S
H1102 C1115 0.930 . S
H1103 C1119 0.959 . S
H1104 C1119 0.959 . S
H1105 C1119 0.961 . S
H1106 C1120 0.960 . S
H1107 C1120 0.961 . S
H1108 C1120 0.959 . S
H1109 C1123 0.929 . S
H1110 C1124 0.931 . S
H1111 C1126 0.930 . S
C1112 H1100 0.930 . S
C1112 C1113 1.399 . S
C1112 C1117 1.399 . S
C1113 C1112 1.399 . S
C1113 C1114 1.376 . S
C1114 H1101 0.930 . S
C1114 C1113 1.376 . S
C1114 C1115 1.388 . S
C1115 H1102 0.930 . S
C1115 C1114 1.388 . S
C1115 C1116 1.390 . S
C1116 C1115 1.390 . S
C1116 C1117 1.394 . S
C1116 C1122 1.465 . S
C1117 C1112 1.399 . S
C1117 C1116 1.394 . S
C1117 C1118 1.516 . S
C1118 C1117 1.516 . S
C1118 C1119 1.502 . S
C1118 C1120 1.561 . S
C1118 C1121 1.526 . S
C1119 H1103 0.959 . S
C1119 H1104 0.959 . S
C1119 H1105 0.961 . S
C1119 C1118 1.502 . S
C1120 H1106 0.960 . S
C1120 H1107 0.961 . S
C1120 H1108 0.959 . S
C1120 C1118 1.561 . S
C1121 C1118 1.526 . S
C1121 C1122 1.396 . S
C1121 C1126 1.390 . S
C1122 C1116 1.465 . S
C1122 C1121 1.396 . S
C1122 C1123 1.399 . S
C1123 H1109 0.929 . S
C1123 C1122 1.399 . S
C1123 C1124 1.385 . S
C1124 H1110 0.931 . S
C1124 C1123 1.385 . S
C1124 C1125 1.389 . S
C1125 C1124 1.389 . S
C1125 C1126 1.387 . S
C1126 H1111 0.930 . S
C1126 C1121 1.390 . S
C1126 C1125 1.387 . S
H1127 C1139 0.930 . S
H1128 C1141 0.930 . S
H1129 C1142 0.930 . S
H1130 C1146 0.959 . S
H1131 C1146 0.959 1_565 S
H1132 C1146 0.972 . S
H1133 C1147 0.960 . S
H1134 C1147 0.961 1_655 S
H1135 C1147 0.959 . S
H1136 C1150 0.929 . S
H1137 C1151 0.931 1_455 S
H1138 C1153 0.930 . S
C1139 H1127 0.930 . S
C1139 C1140 1.399 . S
C1139 C1144 1.399 . S
C1140 C1139 1.399 . S
C1140 C1141 1.376 . S
C1141 H1128 0.930 . S
C1141 C1140 1.376 . S
C1141 C1142 1.388 . S
C1142 H1129 0.930 . S
C1142 C1141 1.388 . S
C1142 C1143 1.390 . S
C1143 C1142 1.390 . S
C1143 C1144 1.394 . S
C1143 C1149 1.465 . S
C1144 C1139 1.399 . S
C1144 C1143 1.394 . S
C1144 C1145 1.516 1_455 S
C1145 C1144 1.516 1_655 S
C1145 C1146 1.502 . S
C1145 C1147 1.561 1_645 S
C1145 C1148 1.526 . S
C1146 H1130 0.959 . S
C1146 H1131 0.959 1_545 S
C1146 H1132 0.972 . S
C1146 C1145 1.502 . S
C1147 H1133 0.960 . S
C1147 H1134 0.961 1_455 S
C1147 H1135 0.959 . S
C1147 C1145 1.561 1_465 S
C1148 C1145 1.526 . S
C1148 C1149 1.396 1_655 S
C1148 C1153 1.390 . S
C1149 C1143 1.465 . S
C1149 C1148 1.396 1_455 S
C1149 C1150 1.399 . S
C1150 H1136 0.929 . S
C1150 C1149 1.399 . S
C1150 C1151 1.384 1_455 S
C1151 H1137 0.931 1_655 S
C1151 C1150 1.384 1_655 S
C1151 C1152 1.390 . S
C1152 C1151 1.390 . S
C1152 C1153 1.387 . S
C1153 H1138 0.930 . S
C1153 C1148 1.390 . S
C1153 C1152 1.387 . S
H1154 C1166 0.930 . S
H1155 C1168 0.930 . S
H1156 C1169 0.930 . S
H1157 C1173 0.959 . S
H1158 C1173 0.959 . S
H1159 C1173 0.961 . S
H1160 C1174 0.960 . S
H1161 C1174 0.961 . S
H1162 C1174 0.959 . S
H1163 C1177 0.929 . S
H1164 C1178 0.931 . S
H1165 C1180 0.930 . S
C1166 H1154 0.930 . S
C1166 C1167 1.399 . S
C1166 C1171 1.399 . S
C1167 C1166 1.399 . S
C1167 C1168 1.376 . S
C1168 H1155 0.930 . S
C1168 C1167 1.376 . S
C1168 C1169 1.388 . S
C1169 H1156 0.930 . S
C1169 C1168 1.388 . S
C1169 C1170 1.390 . S
C1170 C1169 1.390 . S
C1170 C1171 1.394 . S
C1170 C1176 1.465 . S
C1171 C1166 1.399 . S
C1171 C1170 1.394 . S
C1171 C1172 1.516 . S
C1172 C1171 1.516 . S
C1172 C1173 1.502 . S
C1172 C1174 1.561 . S
C1172 C1175 1.526 . S
C1173 H1157 0.959 . S
C1173 H1158 0.959 . S
C1173 H1159 0.961 . S
C1173 C1172 1.502 . S
C1174 H1160 0.960 . S
C1174 H1161 0.961 . S
C1174 H1162 0.959 . S
C1174 C1172 1.561 . S
C1175 C1172 1.526 . S
C1175 C1176 1.396 . S
C1175 C1180 1.390 . S
C1176 C1170 1.465 . S
C1176 C1175 1.396 . S
C1176 C1177 1.399 . S
C1177 H1163 0.929 . S
C1177 C1176 1.399 . S
C1177 C1178 1.385 . S
C1178 H1164 0.931 . S
C1178 C1177 1.385 . S
C1178 C1179 1.389 . S
C1179 C1178 1.389 . S
C1179 C1180 1.387 . S
C1180 H1165 0.930 . S
C1180 C1175 1.390 . S
C1180 C1179 1.387 . S
H1181 C1193 0.930 . S
H1182 C1195 0.930 . S
H1183 C1196 0.930 . S
H1184 C1200 0.959 . S
H1185 C1200 0.959 . S
H1186 C1200 0.961 . S
H1187 C1201 0.960 . S
H1188 C1201 0.961 . S
H1189 C1201 0.959 . S
H1190 C1204 0.929 . S
H1191 C1205 0.931 . S
H1192 C1207 0.930 . S
C1193 H1181 0.930 . S
C1193 C1194 1.399 . S
C1193 C1198 1.399 . S
C1194 C1193 1.399 . S
C1194 C1195 1.376 1_455 S
C1195 H1182 0.930 . S
C1195 C1194 1.376 1_655 S
C1195 C1196 1.388 1_655 S
C1196 H1183 0.930 . S
C1196 C1195 1.388 1_455 S
C1196 C1197 1.390 . S
C1197 C1196 1.390 . S
C1197 C1198 1.394 . S
C1197 C1203 1.465 . S
C1198 C1193 1.399 . S
C1198 C1197 1.394 . S
C1198 C1199 1.516 . S
C1199 C1198 1.516 . S
C1199 C1200 1.502 . S
C1199 C1201 1.561 . S
C1199 C1202 1.526 . S
C1200 H1184 0.959 . S
C1200 H1185 0.959 . S
C1200 H1186 0.961 . S
C1200 C1199 1.502 . S
C1201 H1187 0.960 . S
C1201 H1188 0.961 . S
C1201 H1189 0.959 . S
C1201 C1199 1.561 . S
C1202 C1199 1.526 . S
C1202 C1203 1.396 . S
C1202 C1207 1.390 . S
C1203 C1197 1.465 . S
C1203 C1202 1.396 . S
C1203 C1204 1.399 . S
C1204 H1190 0.929 . S
C1204 C1203 1.399 . S
C1204 C1205 1.385 . S
C1205 H1191 0.931 . S
C1205 C1204 1.385 . S
C1205 C1206 1.389 . S
C1206 C1205 1.389 . S
C1206 C1207 1.387 . S
C1207 H1192 0.930 . S
C1207 C1202 1.390 . S
C1207 C1206 1.387 . S
H1208 C1220 0.930 . S
H1209 C1222 0.930 . S
H1210 C1223 0.930 . S
H1211 C1227 0.959 . S
H1212 C1227 0.959 . S
H1213 C1227 0.961 . S
H1214 C1228 0.960 . S
H1215 C1228 0.961 . S
H1216 C1228 0.959 . S
H1217 C1231 0.929 . S
H1218 C1232 0.931 . S
H1219 C1234 0.930 . S
C1220 H1208 0.930 . S
C1220 C1221 1.399 . S
C1220 C1225 1.399 . S
C1221 C1220 1.399 . S
C1221 C1222 1.376 . S
C1222 H1209 0.930 . S
C1222 C1221 1.376 . S
C1222 C1223 1.388 . S
C1223 H1210 0.930 . S
C1223 C1222 1.388 . S
C1223 C1224 1.390 . S
C1224 C1223 1.390 . S
C1224 C1225 1.394 . S
C1224 C1230 1.465 . S
C1225 C1220 1.399 . S
C1225 C1224 1.394 . S
C1225 C1226 1.516 . S
C1226 C1225 1.516 . S
C1226 C1227 1.502 . S
C1226 C1228 1.561 . S
C1226 C1229 1.526 . S
C1227 H1211 0.959 . S
C1227 H1212 0.959 . S
C1227 H1213 0.961 . S
C1227 C1226 1.502 . S
C1228 H1214 0.960 . S
C1228 H1215 0.961 . S
C1228 H1216 0.959 . S
C1228 C1226 1.561 . S
C1229 C1226 1.526 . S
C1229 C1230 1.396 . S
C1229 C1234 1.390 . S
C1230 C1224 1.465 . S
C1230 C1229 1.396 . S
C1230 C1231 1.399 . S
C1231 H1217 0.929 . S
C1231 C1230 1.399 . S
C1231 C1232 1.385 . S
C1232 H1218 0.931 . S
C1232 C1231 1.385 . S
C1232 C1233 1.389 . S
C1233 C1232 1.389 . S
C1233 C1234 1.387 . S
C1234 H1219 0.930 . S
C1234 C1229 1.390 . S
C1234 C1233 1.387 . S
H1235 C1247 0.930 . S
H1236 C1249 0.930 . S
H1237 C1250 0.926 1_455 S
H1238 C1254 0.934 1_455 S
H1239 C1254 0.959 . S
H1240 C1254 0.961 . S
H1241 C1255 0.962 1_554 S
H1242 C1255 0.961 . S
H1243 C1255 0.959 . S
H1244 C1258 0.929 . S
H1245 C1259 0.931 . S
H1246 C1261 0.930 . S
C1247 H1235 0.930 . S
C1247 C1248 1.399 . S
C1247 C1252 1.399 1_554 S
C1248 C1247 1.399 . S
C1248 C1249 1.376 1_554 S
C1249 H1236 0.930 . S
C1249 C1248 1.376 1_556 S
C1249 C1250 1.391 . S
C1250 H1237 0.926 1_655 S
C1250 C1249 1.391 . S
C1250 C1251 1.391 . S
C1251 C1250 1.391 . S
C1251 C1252 1.394 . S
C1251 C1257 1.481 . S
C1252 C1247 1.399 1_556 S
C1252 C1251 1.394 . S
C1252 C1253 1.516 . S
C1253 C1252 1.516 . S
C1253 C1254 1.502 1_556 S
C1253 C1255 1.561 . S
C1253 C1256 1.526 . S
C1254 H1238 0.934 1_655 S
C1254 H1239 0.959 . S
C1254 H1240 0.961 . S
C1254 C1253 1.502 1_554 S
C1255 H1241 0.962 1_556 S
C1255 H1242 0.961 . S
C1255 H1243 0.959 . S
C1255 C1253 1.561 . S
C1256 C1253 1.526 . S
C1256 C1257 1.412 . S
C1256 C1261 1.390 . S
C1257 C1251 1.481 . S
C1257 C1256 1.412 . S
C1257 C1258 1.374 1_655 S
C1258 H1244 0.929 . S
C1258 C1257 1.374 1_455 S
C1258 C1259 1.385 . S
C1259 H1245 0.931 . S
C1259 C1258 1.385 . S
C1259 C1260 1.389 . S
C1260 C1259 1.389 . S
C1260 C1261 1.387 1_455 S
C1261 H1246 0.930 . S
C1261 C1256 1.390 . S
C1261 C1260 1.387 1_655 S
H1262 C1274 0.930 . S
H1263 C1276 0.930 . S
H1264 C1277 0.930 . S
H1265 C1281 0.959 . S
H1266 C1281 0.959 . S
H1267 C1281 0.961 . S
H1268 C1282 0.960 . S
H1269 C1282 0.961 . S
H1270 C1282 0.959 . S
H1271 C1285 0.929 . S
H1272 C1286 0.931 . S
H1273 C1288 0.930 . S
C1274 H1262 0.930 . S
C1274 C1275 1.399 . S
C1274 C1279 1.399 . S
C1275 C1274 1.399 . S
C1275 C1276 1.376 . S
C1276 H1263 0.930 . S
C1276 C1275 1.376 . S
C1276 C1277 1.388 . S
C1277 H1264 0.930 . S
C1277 C1276 1.388 . S
C1277 C1278 1.390 . S
C1278 C1277 1.390 . S
C1278 C1279 1.394 . S
C1278 C1284 1.465 . S
C1279 C1274 1.399 . S
C1279 C1278 1.394 . S
C1279 C1280 1.516 . S
C1280 C1279 1.516 . S
C1280 C1281 1.502 . S
C1280 C1282 1.561 . S
C1280 C1283 1.526 . S
C1281 H1265 0.959 . S
C1281 H1266 0.959 . S
C1281 H1267 0.961 . S
C1281 C1280 1.502 . S
C1282 H1268 0.960 . S
C1282 H1269 0.961 . S
C1282 H1270 0.959 . S
C1282 C1280 1.561 . S
C1283 C1280 1.526 . S
C1283 C1284 1.396 . S
C1283 C1288 1.390 . S
C1284 C1278 1.465 . S
C1284 C1283 1.396 . S
C1284 C1285 1.399 . S
C1285 H1271 0.929 . S
C1285 C1284 1.399 . S
C1285 C1286 1.385 . S
C1286 H1272 0.931 . S
C1286 C1285 1.385 . S
C1286 C1287 1.389 . S
C1287 C1286 1.389 . S
C1287 C1288 1.387 . S
C1288 H1273 0.930 . S
C1288 C1283 1.390 . S
C1288 C1287 1.387 . S
H1289 C1301 0.930 . S
H1290 C1303 0.930 . S
H1291 C1304 0.930 . S
H1292 C1308 0.959 . S
H1293 C1308 0.959 . S
H1294 C1308 0.961 . S
H1295 C1309 0.960 . S
H1296 C1309 0.961 . S
H1297 C1309 0.959 . S
H1298 C1312 0.929 . S
H1299 C1313 0.931 . S
H1300 C1315 0.930 . S
C1301 H1289 0.930 . S
C1301 C1302 1.399 1_556 S
C1301 C1306 1.399 . S
C1302 C1301 1.399 1_554 S
C1302 C1303 1.376 . S
C1303 H1290 0.930 . S
C1303 C1302 1.376 . S
C1303 C1304 1.388 . S
C1304 H1291 0.930 . S
C1304 C1303 1.388 . S
C1304 C1305 1.390 1_554 S
C1305 C1304 1.390 1_556 S
C1305 C1306 1.394 . S
C1305 C1311 1.465 . S
C1306 C1301 1.399 . S
C1306 C1305 1.394 . S
C1306 C1307 1.516 . S
C1307 C1306 1.516 . S
C1307 C1308 1.502 . S
C1307 C1309 1.561 1_455 S
C1307 C1310 1.526 . S
C1308 H1292 0.959 . S
C1308 H1293 0.959 . S
C1308 H1294 0.961 . S
C1308 C1307 1.502 . S
C1309 H1295 0.960 . S
C1309 H1296 0.961 . S
C1309 H1297 0.959 . S
C1309 C1307 1.561 1_655 S
C1310 C1307 1.526 . S
C1310 C1311 1.396 . S
C1310 C1315 1.390 . S
C1311 C1305 1.465 . S
C1311 C1310 1.396 . S
C1311 C1312 1.399 . S
C1312 H1298 0.929 . S
C1312 C1311 1.399 . S
C1312 C1313 1.385 . S
C1313 H1299 0.931 . S
C1313 C1312 1.385 . S
C1313 C1314 1.389 . S
C1314 C1313 1.389 . S
C1314 C1315 1.387 . S
C1315 H1300 0.930 . S
C1315 C1310 1.390 . S
C1315 C1314 1.387 . S
H1316 C1328 0.930 . S
H1317 C1330 0.930 . S
H1318 C1331 0.930 . S
H1319 C1335 0.959 . S
H1320 C1335 0.959 . S
H1321 C1335 0.961 . S
H1322 C1336 0.960 . S
H1323 C1336 0.961 . S
H1324 C1336 0.959 . S
H1325 C1339 0.929 . S
H1326 C1340 0.931 . S
H1327 C1342 0.930 . S
C1328 H1316 0.930 . S
C1328 C1329 1.399 . S
C1328 C1333 1.399 . S
C1329 C1328 1.399 . S
C1329 C1330 1.376 . S
C1330 H1317 0.930 . S
C1330 C1329 1.376 . S
C1330 C1331 1.388 . S
C1331 H1318 0.930 . S
C1331 C1330 1.388 . S
C1331 C1332 1.390 . S
C1332 C1331 1.390 . S
C1332 C1333 1.394 . S
C1332 C1338 1.465 . S
C1333 C1328 1.399 . S
C1333 C1332 1.394 . S
C1333 C1334 1.516 . S
C1334 C1333 1.516 . S
C1334 C1335 1.502 . S
C1334 C1336 1.561 . S
C1334 C1337 1.526 . S
C1335 H1319 0.959 . S
C1335 H1320 0.959 . S
C1335 H1321 0.961 . S
C1335 C1334 1.502 . S
C1336 H1322 0.960 . S
C1336 H1323 0.961 . S
C1336 H1324 0.959 . S
C1336 C1334 1.561 . S
C1337 C1334 1.526 . S
C1337 C1338 1.396 . S
C1337 C1342 1.390 . S
C1338 C1332 1.465 . S
C1338 C1337 1.396 . S
C1338 C1339 1.399 . S
C1339 H1325 0.929 . S
C1339 C1338 1.399 . S
C1339 C1340 1.385 . S
C1340 H1326 0.931 . S
C1340 C1339 1.385 . S
C1340 C1341 1.389 . S
C1341 C1340 1.389 . S
C1341 C1342 1.387 . S
C1342 H1327 0.930 . S
C1342 C1337 1.390 . S
C1342 C1341 1.387 . S
H1343 C1355 0.930 . S
H1344 C1357 0.930 . S
H1345 C1358 0.930 . S
H1346 C1362 0.959 . S
H1347 C1362 0.959 . S
H1348 C1362 0.961 . S
H1349 C1363 0.960 . S
H1350 C1363 0.961 . S
H1351 C1363 0.959 . S
H1352 C1366 0.929 . S
H1353 C1367 0.931 . S
H1354 C1369 0.930 . S
C1355 H1343 0.930 . S
C1355 C1356 1.399 . S
C1355 C1360 1.399 . S
C1356 C1355 1.399 . S
C1356 C1357 1.376 . S
C1357 H1344 0.930 . S
C1357 C1356 1.376 . S
C1357 C1358 1.388 . S
C1358 H1345 0.930 . S
C1358 C1357 1.388 . S
C1358 C1359 1.390 . S
C1359 C1358 1.390 . S
C1359 C1360 1.394 . S
C1359 C1365 1.465 . S
C1360 C1355 1.399 . S
C1360 C1359 1.394 . S
C1360 C1361 1.516 . S
C1361 C1360 1.516 . S
C1361 C1362 1.502 . S
C1361 C1363 1.561 . S
C1361 C1364 1.526 . S
C1362 H1346 0.959 . S
C1362 H1347 0.959 . S
C1362 H1348 0.961 . S
C1362 C1361 1.502 . S
C1363 H1349 0.960 . S
C1363 H1350 0.961 . S
C1363 H1351 0.959 . S
C1363 C1361 1.561 . S
C1364 C1361 1.526 . S
C1364 C1365 1.396 . S
C1364 C1369 1.390 . S
C1365 C1359 1.465 . S
C1365 C1364 1.396 . S
C1365 C1366 1.399 . S
C1366 H1352 0.929 . S
C1366 C1365 1.399 . S
C1366 C1367 1.385 . S
C1367 H1353 0.931 . S
C1367 C1366 1.385 . S
C1367 C1368 1.389 . S
C1368 C1367 1.389 . S
C1368 C1369 1.387 . S
C1369 H1354 0.930 . S
C1369 C1364 1.390 . S
C1369 C1368 1.387 . S
H1370 C1382 0.930 . S
H1371 C1384 0.930 . S
H1372 C1385 0.930 . S
H1373 C1389 0.959 . S
H1374 C1389 0.959 . S
H1375 C1389 0.961 . S
H1376 C1390 0.960 . S
H1377 C1390 0.961 . S
H1378 C1390 0.959 . S
H1379 C1393 0.929 . S
H1380 C1394 0.931 . S
H1381 C1396 0.930 . S
C1382 H1370 0.930 . S
C1382 C1383 1.399 . S
C1382 C1387 1.399 . S
C1383 C1382 1.399 . S
C1383 C1384 1.376 . S
C1384 H1371 0.930 . S
C1384 C1383 1.376 . S
C1384 C1385 1.388 . S
C1385 H1372 0.930 . S
C1385 C1384 1.388 . S
C1385 C1386 1.390 . S
C1386 C1385 1.390 . S
C1386 C1387 1.394 . S
C1386 C1392 1.465 . S
C1387 C1382 1.399 . S
C1387 C1386 1.394 . S
C1387 C1388 1.516 . S
C1388 C1387 1.516 . S
C1388 C1389 1.502 . S
C1388 C1390 1.561 . S
C1388 C1391 1.526 . S
C1389 H1373 0.959 . S
C1389 H1374 0.959 . S
C1389 H1375 0.961 . S
C1389 C1388 1.502 . S
C1390 H1376 0.960 . S
C1390 H1377 0.961 . S
C1390 H1378 0.959 . S
C1390 C1388 1.561 . S
C1391 C1388 1.526 . S
C1391 C1392 1.396 . S
C1391 C1396 1.390 . S
C1392 C1386 1.465 . S
C1392 C1391 1.396 . S
C1392 C1393 1.399 . S
C1393 H1379 0.929 . S
C1393 C1392 1.399 . S
C1393 C1394 1.385 . S
C1394 H1380 0.931 . S
C1394 C1393 1.385 . S
C1394 C1395 1.389 . S
C1395 C1394 1.389 . S
C1395 C1396 1.387 . S
C1396 H1381 0.930 . S
C1396 C1391 1.390 . S
C1396 C1395 1.387 . S
H1397 C1409 0.930 . S
H1398 C1411 0.930 . S
H1399 C1412 0.930 . S
H1400 C1416 0.959 . S
H1401 C1416 0.959 . S
H1402 C1416 1.002 . S
H1403 C1417 0.960 1_556 S
H1404 C1417 0.961 . S
H1405 C1417 0.959 . S
H1406 C1420 0.929 . S
H1407 C1421 0.931 . S
H1408 C1423 0.930 . S
C1409 H1397 0.930 . S
C1409 C1410 1.399 . S
C1409 C1414 1.399 1_556 S
C1410 C1409 1.399 . S
C1410 C1411 1.376 1_556 S
C1411 H1398 0.930 . S
C1411 C1410 1.376 1_554 S
C1411 C1412 1.388 . S
C1412 H1399 0.930 . S
C1412 C1411 1.388 . S
C1412 C1413 1.390 . S
C1413 C1412 1.390 . S
C1413 C1414 1.394 . S
C1413 C1419 1.465 . S
C1414 C1409 1.399 1_554 S
C1414 C1413 1.394 . S
C1414 C1415 1.516 . S
C1415 C1414 1.516 . S
C1415 C1416 1.502 . S
C1415 C1417 1.561 . S
C1415 C1418 1.526 . S
C1416 H1400 0.959 . S
C1416 H1401 0.959 . S
C1416 H1402 1.002 . S
C1416 C1415 1.502 . S
C1417 H1403 0.960 1_554 S
C1417 H1404 0.961 . S
C1417 H1405 0.959 . S
C1417 C1415 1.561 . S
C1418 C1415 1.526 . S
C1418 C1419 1.396 . S
C1418 C1423 1.390 . S
C1419 C1413 1.465 . S
C1419 C1418 1.396 . S
C1419 C1420 1.399 . S
C1420 H1406 0.929 . S
C1420 C1419 1.399 . S
C1420 C1421 1.385 . S
C1421 H1407 0.931 . S
C1421 C1420 1.385 . S
C1421 C1422 1.389 . S
C1422 C1421 1.389 . S
C1422 C1423 1.387 . S
C1423 H1408 0.930 . S
C1423 C1418 1.390 . S
C1423 C1422 1.387 . S
H1424 C1436 0.930 . S
H1425 C1438 0.930 . S
H1426 C1439 0.930 . S
H1427 C1443 0.959 . S
H1428 C1443 0.959 . S
H1429 C1443 0.961 . S
H1430 C1444 0.960 . S
H1431 C1444 0.961 . S
H1432 C1444 0.959 . S
H1433 C1447 0.929 . S
H1434 C1448 0.931 . S
H1435 C1450 0.930 . S
C1436 H1424 0.930 . S
C1436 C1437 1.399 . S
C1436 C1441 1.399 . S
C1437 C1436 1.399 . S
C1437 C1438 1.376 . S
C1438 H1425 0.930 . S
C1438 C1437 1.376 . S
C1438 C1439 1.388 . S
C1439 H1426 0.930 . S
C1439 C1438 1.388 . S
C1439 C1440 1.390 . S
C1440 C1439 1.390 . S
C1440 C1441 1.394 . S
C1440 C1446 1.465 . S
C1441 C1436 1.399 . S
C1441 C1440 1.394 . S
C1441 C1442 1.516 . S
C1442 C1441 1.516 . S
C1442 C1443 1.502 . S
C1442 C1444 1.561 . S
C1442 C1445 1.526 . S
C1443 H1427 0.959 . S
C1443 H1428 0.959 . S
C1443 H1429 0.961 . S
C1443 C1442 1.502 . S
C1444 H1430 0.960 . S
C1444 H1431 0.961 . S
C1444 H1432 0.959 . S
C1444 C1442 1.561 . S
C1445 C1442 1.526 . S
C1445 C1446 1.396 . S
C1445 C1450 1.390 . S
C1446 C1440 1.465 . S
C1446 C1445 1.396 . S
C1446 C1447 1.399 . S
C1447 H1433 0.929 . S
C1447 C1446 1.399 . S
C1447 C1448 1.385 . S
C1448 H1434 0.931 . S
C1448 C1447 1.385 . S
C1448 C1449 1.389 . S
C1449 C1448 1.389 . S
C1449 C1450 1.387 . S
C1450 H1435 0.930 . S
C1450 C1445 1.390 . S
C1450 C1449 1.387 . S
H1451 C1463 0.930 . S
H1452 C1465 0.930 . S
H1453 C1466 0.930 . S
H1454 C1470 0.959 . S
H1455 C1470 0.959 . S
H1456 C1470 0.961 . S
H1457 C1471 0.960 . S
H1458 C1471 0.961 . S
H1459 C1471 0.959 . S
H1460 C1474 0.929 . S
H1461 C1475 0.931 . S
H1462 C1477 0.930 . S
C1463 H1451 0.930 . S
C1463 C1464 1.399 . S
C1463 C1468 1.399 . S
C1464 C1463 1.399 . S
C1464 C1465 1.376 . S
C1465 H1452 0.930 . S
C1465 C1464 1.376 . S
C1465 C1466 1.388 . S
C1466 H1453 0.930 . S
C1466 C1465 1.388 . S
C1466 C1467 1.390 . S
C1467 C1466 1.390 . S
C1467 C1468 1.394 . S
C1467 C1473 1.465 . S
C1468 C1463 1.399 . S
C1468 C1467 1.394 . S
C1468 C1469 1.516 . S
C1469 C1468 1.516 . S
C1469 C1470 1.502 . S
C1469 C1471 1.561 . S
C1469 C1472 1.526 . S
C1470 H1454 0.959 . S
C1470 H1455 0.959 . S
C1470 H1456 0.961 . S
C1470 C1469 1.502 . S
C1471 H1457 0.960 . S
C1471 H1458 0.961 . S
C1471 H1459 0.959 . S
C1471 C1469 1.561 . S
C1472 C1469 1.526 . S
C1472 C1473 1.396 . S
C1472 C1477 1.390 . S
C1473 C1467 1.465 . S
C1473 C1472 1.396 . S
C1473 C1474 1.399 . S
C1474 H1460 0.929 . S
C1474 C1473 1.399 . S
C1474 C1475 1.385 . S
C1475 H1461 0.931 . S
C1475 C1474 1.385 . S
C1475 C1476 1.389 . S
C1476 C1475 1.389 . S
C1476 C1477 1.387 . S
C1477 H1462 0.930 . S
C1477 C1472 1.390 . S
C1477 C1476 1.387 . S
H1478 C1490 0.930 . S
H1479 C1492 0.930 . S
H1480 C1493 0.930 . S
H1481 C1497 0.959 . S
H1482 C1497 0.959 . S
H1483 C1497 0.961 . S
H1484 C1498 0.960 . S
H1485 C1498 0.961 . S
H1486 C1498 0.959 . S
H1487 C1501 0.929 . S
H1488 C1502 0.931 . S
H1489 C1504 0.930 . S
C1490 H1478 0.930 . S
C1490 C1491 1.399 . S
C1490 C1495 1.399 . S
C1491 C1490 1.399 . S
C1491 C1492 1.376 . S
C1492 H1479 0.930 . S
C1492 C1491 1.376 . S
C1492 C1493 1.388 . S
C1493 H1480 0.930 . S
C1493 C1492 1.388 . S
C1493 C1494 1.390 . S
C1494 C1493 1.390 . S
C1494 C1495 1.394 . S
C1494 C1500 1.465 . S
C1495 C1490 1.399 . S
C1495 C1494 1.394 . S
C1495 C1496 1.516 . S
C1496 C1495 1.516 . S
C1496 C1497 1.502 . S
C1496 C1498 1.561 . S
C1496 C1499 1.526 . S
C1497 H1481 0.959 . S
C1497 H1482 0.959 . S
C1497 H1483 0.961 . S
C1497 C1496 1.502 . S
C1498 H1484 0.960 . S
C1498 H1485 0.961 . S
C1498 H1486 0.959 . S
C1498 C1496 1.561 . S
C1499 C1496 1.526 . S
C1499 C1500 1.396 . S
C1499 C1504 1.390 . S
C1500 C1494 1.465 . S
C1500 C1499 1.396 . S
C1500 C1501 1.399 . S
C1501 H1487 0.929 . S
C1501 C1500 1.399 . S
C1501 C1502 1.385 . S
C1502 H1488 0.931 . S
C1502 C1501 1.385 . S
C1502 C1503 1.389 . S
C1503 C1502 1.389 . S
C1503 C1504 1.387 . S
C1504 H1489 0.930 . S
C1504 C1499 1.390 . S
C1504 C1503 1.387 . S
H1505 C1517 0.930 . S
H1506 C1519 0.930 . S
H1507 C1520 0.930 . S
H1508 C1524 0.959 . S
H1509 C1524 0.959 . S
H1510 C1524 0.961 . S
H1511 C1525 0.960 . S
H1512 C1525 0.961 . S
H1513 C1525 0.959 . S
H1514 C1528 0.929 . S
H1515 C1529 0.931 . S
H1516 C1531 0.930 . S
C1517 H1505 0.930 . S
C1517 C1518 1.399 . S
C1517 C1522 1.399 . S
C1518 C1517 1.399 . S
C1518 C1519 1.376 . S
C1519 H1506 0.930 . S
C1519 C1518 1.376 . S
C1519 C1520 1.388 . S
C1520 H1507 0.930 . S
C1520 C1519 1.388 . S
C1520 C1521 1.390 . S
C1521 C1520 1.390 . S
C1521 C1522 1.394 . S
C1521 C1527 1.465 . S
C1522 C1517 1.399 . S
C1522 C1521 1.394 . S
C1522 C1523 1.516 . S
C1523 C1522 1.516 . S
C1523 C1524 1.502 . S
C1523 C1525 1.561 . S
C1523 C1526 1.526 . S
C1524 H1508 0.959 . S
C1524 H1509 0.959 . S
C1524 H1510 0.961 . S
C1524 C1523 1.502 . S
C1525 H1511 0.960 . S
C1525 H1512 0.961 . S
C1525 H1513 0.959 . S
C1525 C1523 1.561 . S
C1526 C1523 1.526 . S
C1526 C1527 1.396 . S
C1526 C1531 1.390 . S
C1527 C1521 1.465 . S
C1527 C1526 1.396 . S
C1527 C1528 1.399 . S
C1528 H1514 0.929 . S
C1528 C1527 1.399 . S
C1528 C1529 1.385 . S
C1529 H1515 0.931 . S
C1529 C1528 1.385 . S
C1529 C1530 1.389 . S
C1530 C1529 1.389 . S
C1530 C1531 1.387 . S
C1531 H1516 0.930 . S
C1531 C1526 1.390 . S
C1531 C1530 1.387 . S
H1532 C1544 0.930 . S
H1533 C1546 0.930 . S
H1534 C1547 0.930 . S
H1535 C1551 0.959 . S
H1536 C1551 0.959 . S
H1537 C1551 0.961 . S
H1538 C1552 0.960 . S
H1539 C1552 0.961 . S
H1540 C1552 0.959 . S
H1541 C1555 0.929 . S
H1542 C1556 0.931 . S
H1543 C1558 0.930 . S
C1544 H1532 0.930 . S
C1544 C1545 1.399 . S
C1544 C1549 1.399 . S
C1545 C1544 1.399 . S
C1545 C1546 1.376 1_556 S
C1546 H1533 0.930 . S
C1546 C1545 1.376 1_554 S
C1546 C1547 1.388 . S
C1547 H1534 0.930 . S
C1547 C1546 1.388 . S
C1547 C1548 1.390 1_554 S
C1548 C1547 1.390 1_556 S
C1548 C1549 1.394 . S
C1548 C1554 1.465 . S
C1549 C1544 1.399 . S
C1549 C1548 1.394 . S
C1549 C1550 1.516 . S
C1550 C1549 1.516 . S
C1550 C1551 1.502 . S
C1550 C1552 1.561 . S
C1550 C1553 1.526 . S
C1551 H1535 0.959 . S
C1551 H1536 0.959 . S
C1551 H1537 0.961 . S
C1551 C1550 1.502 . S
C1552 H1538 0.960 . S
C1552 H1539 0.961 . S
C1552 H1540 0.959 . S
C1552 C1550 1.561 . S
C1553 C1550 1.526 . S
C1553 C1554 1.396 . S
C1553 C1558 1.390 . S
C1554 C1548 1.465 . S
C1554 C1553 1.396 . S
C1554 C1555 1.399 1_556 S
C1555 H1541 0.929 . S
C1555 C1554 1.399 1_554 S
C1555 C1556 1.385 . S
C1556 H1542 0.931 . S
C1556 C1555 1.385 . S
C1556 C1557 1.389 1_554 S
C1557 C1556 1.389 1_556 S
C1557 C1558 1.387 . S
C1558 H1543 0.930 . S
C1558 C1553 1.390 . S
C1558 C1557 1.387 . S
H1559 C1571 0.930 . S
H1560 C1573 0.930 . S
H1561 C1574 0.930 . S
H1562 C1578 0.959 . S
H1563 C1578 0.959 . S
H1564 C1578 0.961 . S
H1565 C1579 0.960 . S
H1566 C1579 0.961 . S
H1567 C1579 0.959 . S
H1568 C1582 0.929 . S
H1569 C1583 0.931 . S
H1570 C1585 0.930 . S
C1571 H1559 0.930 . S
C1571 C1572 1.399 . S
C1571 C1576 1.399 . S
C1572 C1571 1.399 . S
C1572 C1573 1.376 . S
C1573 H1560 0.930 . S
C1573 C1572 1.376 . S
C1573 C1574 1.388 . S
C1574 H1561 0.930 . S
C1574 C1573 1.388 . S
C1574 C1575 1.390 . S
C1575 C1574 1.390 . S
C1575 C1576 1.394 . S
C1575 C1581 1.465 . S
C1576 C1571 1.399 . S
C1576 C1575 1.394 . S
C1576 C1577 1.516 . S
C1577 C1576 1.516 . S
C1577 C1578 1.502 . S
C1577 C1579 1.561 . S
C1577 C1580 1.526 . S
C1578 H1562 0.959 . S
C1578 H1563 0.959 . S
C1578 H1564 0.961 . S
C1578 C1577 1.502 . S
C1579 H1565 0.960 . S
C1579 H1566 0.961 . S
C1579 H1567 0.959 . S
C1579 C1577 1.561 . S
C1580 C1577 1.526 . S
C1580 C1581 1.396 . S
C1580 C1585 1.390 . S
C1581 C1575 1.465 . S
C1581 C1580 1.396 . S
C1581 C1582 1.399 . S
C1582 H1568 0.929 . S
C1582 C1581 1.399 . S
C1582 C1583 1.385 . S
C1583 H1569 0.931 . S
C1583 C1582 1.385 . S
C1583 C1584 1.389 . S
C1584 C1583 1.389 . S
C1584 C1585 1.387 . S
C1585 H1570 0.930 . S
C1585 C1580 1.390 . S
C1585 C1584 1.387 . S
H1586 C1598 0.930 . S
H1587 C1600 0.930 . S
H1588 C1601 0.930 . S
H1589 C1605 0.959 . S
H1590 C1605 0.959 . S
H1591 C1605 0.961 . S
H1592 C1606 0.960 . S
H1593 C1606 0.961 . S
H1594 C1606 0.959 . S
H1595 C1609 0.929 . S
H1596 C1610 0.931 . S
H1597 C1612 0.930 . S
C1598 H1586 0.930 . S
C1598 C1599 1.399 . S
C1598 C1603 1.399 . S
C1599 C1598 1.399 . S
C1599 C1600 1.376 . S
C1600 H1587 0.930 . S
C1600 C1599 1.376 . S
C1600 C1601 1.388 . S
C1601 H1588 0.930 . S
C1601 C1600 1.388 . S
C1601 C1602 1.390 . S
C1602 C1601 1.390 . S
C1602 C1603 1.394 . S
C1602 C1608 1.465 . S
C1603 C1598 1.399 . S
C1603 C1602 1.394 . S
C1603 C1604 1.516 . S
C1604 C1603 1.516 . S
C1604 C1605 1.502 . S
C1604 C1606 1.561 1_554 S
C1604 C1607 1.526 . S
C1605 H1589 0.959 . S
C1605 H1590 0.959 . S
C1605 H1591 0.961 . S
C1605 C1604 1.502 . S
C1606 H1592 0.960 . S
C1606 H1593 0.961 . S
C1606 H1594 0.959 . S
C1606 C1604 1.561 1_556 S
C1607 C1604 1.526 . S
C1607 C1608 1.396 . S
C1607 C1612 1.390 . S
C1608 C1602 1.465 . S
C1608 C1607 1.396 . S
C1608 C1609 1.399 . S
C1609 H1595 0.929 . S
C1609 C1608 1.399 . S
C1609 C1610 1.385 . S
C1610 H1596 0.931 . S
C1610 C1609 1.385 . S
C1610 C1611 1.389 . S
C1611 C1610 1.389 . S
C1611 C1612 1.387 . S
C1612 H1597 0.930 . S
C1612 C1607 1.390 . S
C1612 C1611 1.387 . S
H1613 C1625 0.932 . S
H1614 C1627 0.930 . S
H1615 C1628 0.930 . S
H1616 C1632 0.959 . S
H1617 C1632 0.959 1_556 S
H1618 C1632 0.961 . S
H1619 C1633 0.958 1_556 S
H1620 C1633 0.958 1_556 S
H1621 C1633 0.960 . S
H1622 C1636 0.929 . S
H1623 C1637 0.931 . S
H1624 C1639 0.930 . S
C1625 H1613 0.932 . S
C1625 C1626 1.384 1_565 S
C1625 C1630 1.413 . S
C1626 C1625 1.384 1_545 S
C1626 C1627 1.376 . S
C1627 H1614 0.930 . S
C1627 C1626 1.376 . S
C1627 C1628 1.388 . S
C1628 H1615 0.930 . S
C1628 C1627 1.388 . S
C1628 C1629 1.390 1_545 S
C1629 C1628 1.390 1_565 S
C1629 C1630 1.394 . S
C1629 C1635 1.465 . S
C1630 C1625 1.413 . S
C1630 C1629 1.394 . S
C1630 C1631 1.516 . S
C1631 C1630 1.516 . S
C1631 C1632 1.502 . S
C1631 C1633 1.565 . S
C1631 C1634 1.526 . S
C1632 H1616 0.959 . S
C1632 H1617 0.959 1_554 S
C1632 H1618 0.961 . S
C1632 C1631 1.502 . S
C1633 H1619 0.958 1_554 S
C1633 H1620 0.958 1_554 S
C1633 H1621 0.960 . S
C1633 C1631 1.565 . S
C1634 C1631 1.526 . S
C1634 C1635 1.396 . S
C1634 C1639 1.390 . S
C1635 C1629 1.465 . S
C1635 C1634 1.396 . S
C1635 C1636 1.399 . S
C1636 H1622 0.929 . S
C1636 C1635 1.399 . S
C1636 C1637 1.385 . S
C1637 H1623 0.931 . S
C1637 C1636 1.385 . S
C1637 C1638 1.389 . S
C1638 C1637 1.389 . S
C1638 C1639 1.387 . S
C1639 H1624 0.930 . S
C1639 C1634 1.390 . S
C1639 C1638 1.387 . S
C369 C184 1.606 . S
C357 C60 1.629 . S
C396 C197 1.284 . S
C384 C76 1.311 . S
C411 C81 1.809 . S
C423 C217 1.632 . S
C450 C231 1.367 . S
C438 C48 1.499 . S
C477 C243 1.531 . S
C465 C115 1.543 . S
C504 C257 1.526 . S
C492 C136 1.534 . S
C519 C131 1.302 . S
C531 C267 1.308 . S
C558 C282 1.520 . S
C546 C104 1.540 . S
C573 C126 1.472 . S
C585 C296 1.470 . S
C612 C315 1.261 . S
C600 C103 1.317 . S
C627 C120 1.386 . S
C639 C295 1.411 . S
C666 C313 1.343 . S
C654 C142 1.360 . S
C681 C82 1.635 . S
C693 C329 1.577 . S
C708 C54 1.768 . S
C720 C323 1.777 . S
C735 C65 1.434 . S
C747 C327 1.426 . S
C762 C71 1.321 . S
C774 C324 1.281 1_455 S
C789 C37 1.559 . S
C801 C226 1.552 . S
C816 C158 1.895 . S
C828 C225 1.866 . S
C855 C189 1.304 . S
C843 C169 1.322 . S
C882 C203 1.273 . S
C870 C98 1.442 . S
C897 C49 1.703 . S
C909 C240 1.702 . S
C936 C285 1.451 . S
C924 C125 1.457 . S
C963 C239 1.346 . S
C951 C109 1.351 . S
C990 C271 1.699 . S
C978 C137 1.700 . S
C1017 C268 1.569 . S
C1005 C159 1.616 . S
C1032 C175 1.315 . S
C1044 C281 1.319 . S
C1059 C92 1.808 . S
C1071 C245 1.647 . S
C1098 C259 1.440 . S
C1086 C147 1.512 . S
C1113 C38 1.531 . S
C1125 C215 1.507 . S
C1152 C229 1.534 . S
C1140 C4 1.532 . S
C1179 C183 1.326 . S
C1167 C21 1.311 . S
C1206 C198 1.527 . S
C1194 C27 1.553 1_455 S
C1221 C16 1.475 . S
C1233 C310 1.456 . S
C1248 C26 1.318 . S
C1260 C301 1.178 . S
C1275 C43 1.391 . S
C1287 C309 1.408 . S
C1302 C10 1.366 . S
C1314 C299 1.351 . S
C1341 C343 1.583 . S
C1329 C93 1.631 . S
C1368 C337 1.777 . S
C1356 C153 1.768 . S
C1395 C341 1.449 . S
C1383 C164 1.423 . S
C1410 C170 1.269 . S
C1422 C338 1.276 . S
C1437 C114 1.560 . S
C1449 C254 1.554 . S
C1476 C253 1.867 . S
C1464 C59 1.894 . S
C1503 C273 1.302 . S
C1491 C70 1.322 . S
C1530 C287 1.317 . S
C1518 C87 1.425 . S
C1545 C148 1.713 . S
C1557 C212 1.736 . S
C1584 C201 1.449 . S
C1572 C15 1.456 . S
C1599 C32 1.365 . S
C1611 C211 1.341 . S
C1638 C187 1.706 . S
C1626 C5 1.690 . S
