# Generated by pormake.
# Topology ptr, (4,4)-cn, num edge types: 1
# Building blocks:
#     Node 0, Type 0, BuildingBlock: UXUYUI_clean_sbu_0, # of connection points: 4
#     Node 1, Type 0, BuildingBlock: UXUYUI_clean_sbu_0, # of connection points: 4
#     Node 2, Type 0, BuildingBlock: UXUYUI_clean_sbu_0, # of connection points: 4
#     Node 3, Type 0, BuildingBlock: UXUYUI_clean_sbu_0, # of connection points: 4
#     Node 4, Type 0, BuildingBlock: UXUYUI_clean_sbu_0, # of connection points: 4
#     Node 5, Type 0, BuildingBlock: UXUYUI_clean_sbu_0, # of connection points: 4
#     Node 6, Type 0, BuildingBlock: UXUYUI_clean_sbu_0, # of connection points: 4
#     Node 7, Type 0, BuildingBlock: UXUYUI_clean_sbu_0, # of connection points: 4
#     Node 8, Type 0, BuildingBlock: UXUYUI_clean_sbu_0, # of connection points: 4
#     Node 9, Type 0, BuildingBlock: UXUYUI_clean_sbu_0, # of connection points: 4
#     Node 10, Type 0, BuildingBlock: UXUYUI_clean_sbu_0, # of connection points: 4
#     Node 11, Type 0, BuildingBlock: UXUYUI_clean_sbu_0, # of connection points: 4
#     Node 12, Type 0, BuildingBlock: UXUYUI_clean_sbu_0, # of connection points: 4
#     Node 13, Type 0, BuildingBlock: UXUYUI_clean_sbu_0, # of connection points: 4
#     Node 14, Type 0, BuildingBlock: UXUYUI_clean_sbu_0, # of connection points: 4
#     Node 15, Type 0, BuildingBlock: UXUYUI_clean_sbu_0, # of connection points: 4
#     Node 16, Type 0, BuildingBlock: UXUYUI_clean_sbu_0, # of connection points: 4
#     Node 17, Type 0, BuildingBlock: UXUYUI_clean_sbu_0, # of connection points: 4
#     Node 18, Type 1, BuildingBlock: AZAVOO_clean_linker_0, # of connection points: 4
#     Node 19, Type 1, BuildingBlock: AZAVOO_clean_linker_0, # of connection points: 4
#     Node 20, Type 1, BuildingBlock: AZAVOO_clean_linker_0, # of connection points: 4
#     Node 21, Type 1, BuildingBlock: AZAVOO_clean_linker_0, # of connection points: 4
#     Node 22, Type 1, BuildingBlock: AZAVOO_clean_linker_0, # of connection points: 4
#     Node 23, Type 1, BuildingBlock: AZAVOO_clean_linker_0, # of connection points: 4
#     Node 24, Type 1, BuildingBlock: AZAVOO_clean_linker_0, # of connection points: 4
#     Node 25, Type 1, BuildingBlock: AZAVOO_clean_linker_0, # of connection points: 4
#     Node 26, Type 1, BuildingBlock: AZAVOO_clean_linker_0, # of connection points: 4
#     Node 27, Type 1, BuildingBlock: AZAVOO_clean_linker_0, # of connection points: 4
#     Node 28, Type 1, BuildingBlock: AZAVOO_clean_linker_0, # of connection points: 4
#     Node 29, Type 1, BuildingBlock: AZAVOO_clean_linker_0, # of connection points: 4
#     Node 30, Type 1, BuildingBlock: AZAVOO_clean_linker_0, # of connection points: 4
#     Node 31, Type 1, BuildingBlock: AZAVOO_clean_linker_0, # of connection points: 4
#     Node 32, Type 1, BuildingBlock: AZAVOO_clean_linker_0, # of connection points: 4
#     Node 33, Type 1, BuildingBlock: AZAVOO_clean_linker_0, # of connection points: 4
#     Node 34, Type 1, BuildingBlock: AZAVOO_clean_linker_0, # of connection points: 4
#     Node 35, Type 1, BuildingBlock: AZAVOO_clean_linker_0, # of connection points: 4
#     Edge 36, Type (0, 1), BuildingBlock: AJUNOK_clean_linker_0, # of connection points: 2
#     Edge 37, Type (0, 1), BuildingBlock: AJUNOK_clean_linker_0, # of connection points: 2
#     Edge 38, Type (0, 1), BuildingBlock: AJUNOK_clean_linker_0, # of connection points: 2
#     Edge 39, Type (0, 1), BuildingBlock: AJUNOK_clean_linker_0, # of connection points: 2
#     Edge 40, Type (0, 1), BuildingBlock: AJUNOK_clean_linker_0, # of connection points: 2
#     Edge 41, Type (0, 1), BuildingBlock: AJUNOK_clean_linker_0, # of connection points: 2
#     Edge 42, Type (0, 1), BuildingBlock: AJUNOK_clean_linker_0, # of connection points: 2
#     Edge 43, Type (0, 1), BuildingBlock: AJUNOK_clean_linker_0, # of connection points: 2
#     Edge 44, Type (0, 1), BuildingBlock: AJUNOK_clean_linker_0, # of connection points: 2
#     Edge 45, Type (0, 1), BuildingBlock: AJUNOK_clean_linker_0, # of connection points: 2
#     Edge 46, Type (0, 1), BuildingBlock: AJUNOK_clean_linker_0, # of connection points: 2
#     Edge 47, Type (0, 1), BuildingBlock: AJUNOK_clean_linker_0, # of connection points: 2
#     Edge 48, Type (0, 1), BuildingBlock: AJUNOK_clean_linker_0, # of connection points: 2
#     Edge 49, Type (0, 1), BuildingBlock: AJUNOK_clean_linker_0, # of connection points: 2
#     Edge 50, Type (0, 1), BuildingBlock: AJUNOK_clean_linker_0, # of connection points: 2
#     Edge 51, Type (0, 1), BuildingBlock: AJUNOK_clean_linker_0, # of connection points: 2
#     Edge 52, Type (0, 1), BuildingBlock: AJUNOK_clean_linker_0, # of connection points: 2
#     Edge 53, Type (0, 1), BuildingBlock: AJUNOK_clean_linker_0, # of connection points: 2
#     Edge 54, Type (0, 1), BuildingBlock: AJUNOK_clean_linker_0, # of connection points: 2
#     Edge 55, Type (0, 1), BuildingBlock: AJUNOK_clean_linker_0, # of connection points: 2
#     Edge 56, Type (0, 1), BuildingBlock: AJUNOK_clean_linker_0, # of connection points: 2
#     Edge 57, Type (0, 1), BuildingBlock: AJUNOK_clean_linker_0, # of connection points: 2
#     Edge 58, Type (0, 1), BuildingBlock: AJUNOK_clean_linker_0, # of connection points: 2
#     Edge 59, Type (0, 1), BuildingBlock: AJUNOK_clean_linker_0, # of connection points: 2
#     Edge 60, Type (0, 1), BuildingBlock: AJUNOK_clean_linker_0, # of connection points: 2
#     Edge 61, Type (0, 1), BuildingBlock: AJUNOK_clean_linker_0, # of connection points: 2
#     Edge 62, Type (0, 1), BuildingBlock: AJUNOK_clean_linker_0, # of connection points: 2
#     Edge 63, Type (0, 1), BuildingBlock: AJUNOK_clean_linker_0, # of connection points: 2
#     Edge 64, Type (0, 1), BuildingBlock: AJUNOK_clean_linker_0, # of connection points: 2
#     Edge 65, Type (0, 1), BuildingBlock: AJUNOK_clean_linker_0, # of connection points: 2
#     Edge 66, Type (0, 1), BuildingBlock: AJUNOK_clean_linker_0, # of connection points: 2
#     Edge 67, Type (0, 1), BuildingBlock: AJUNOK_clean_linker_0, # of connection points: 2
#     Edge 68, Type (0, 1), BuildingBlock: AJUNOK_clean_linker_0, # of connection points: 2
#     Edge 69, Type (0, 1), BuildingBlock: AJUNOK_clean_linker_0, # of connection points: 2
#     Edge 70, Type (0, 1), BuildingBlock: AJUNOK_clean_linker_0, # of connection points: 2
#     Edge 71, Type (0, 1), BuildingBlock: AJUNOK_clean_linker_0, # of connection points: 2
#     Edge 72, Type (0, 1), BuildingBlock: AJUNOK_clean_linker_0, # of connection points: 2
#     Edge 73, Type (0, 1), BuildingBlock: AJUNOK_clean_linker_0, # of connection points: 2
#     Edge 74, Type (0, 1), BuildingBlock: AJUNOK_clean_linker_0, # of connection points: 2
#     Edge 75, Type (0, 1), BuildingBlock: AJUNOK_clean_linker_0, # of connection points: 2
#     Edge 76, Type (0, 1), BuildingBlock: AJUNOK_clean_linker_0, # of connection points: 2
#     Edge 77, Type (0, 1), BuildingBlock: AJUNOK_clean_linker_0, # of connection points: 2
#     Edge 78, Type (0, 1), BuildingBlock: AJUNOK_clean_linker_0, # of connection points: 2
#     Edge 79, Type (0, 1), BuildingBlock: AJUNOK_clean_linker_0, # of connection points: 2
#     Edge 80, Type (0, 1), BuildingBlock: AJUNOK_clean_linker_0, # of connection points: 2
#     Edge 81, Type (0, 1), BuildingBlock: AJUNOK_clean_linker_0, # of connection points: 2
#     Edge 82, Type (0, 1), BuildingBlock: AJUNOK_clean_linker_0, # of connection points: 2
#     Edge 83, Type (0, 1), BuildingBlock: AJUNOK_clean_linker_0, # of connection points: 2
#     Edge 84, Type (0, 1), BuildingBlock: AJUNOK_clean_linker_0, # of connection points: 2
#     Edge 85, Type (0, 1), BuildingBlock: AJUNOK_clean_linker_0, # of connection points: 2
#     Edge 86, Type (0, 1), BuildingBlock: AJUNOK_clean_linker_0, # of connection points: 2
#     Edge 87, Type (0, 1), BuildingBlock: AJUNOK_clean_linker_0, # of connection points: 2
#     Edge 88, Type (0, 1), BuildingBlock: AJUNOK_clean_linker_0, # of connection points: 2
#     Edge 89, Type (0, 1), BuildingBlock: AJUNOK_clean_linker_0, # of connection points: 2
#     Edge 90, Type (0, 1), BuildingBlock: AJUNOK_clean_linker_0, # of connection points: 2
#     Edge 91, Type (0, 1), BuildingBlock: AJUNOK_clean_linker_0, # of connection points: 2
#     Edge 92, Type (0, 1), BuildingBlock: AJUNOK_clean_linker_0, # of connection points: 2
#     Edge 93, Type (0, 1), BuildingBlock: AJUNOK_clean_linker_0, # of connection points: 2
#     Edge 94, Type (0, 1), BuildingBlock: AJUNOK_clean_linker_0, # of connection points: 2
#     Edge 95, Type (0, 1), BuildingBlock: AJUNOK_clean_linker_0, # of connection points: 2
#     Edge 96, Type (0, 1), BuildingBlock: AJUNOK_clean_linker_0, # of connection points: 2
#     Edge 97, Type (0, 1), BuildingBlock: AJUNOK_clean_linker_0, # of connection points: 2
#     Edge 98, Type (0, 1), BuildingBlock: AJUNOK_clean_linker_0, # of connection points: 2
#     Edge 99, Type (0, 1), BuildingBlock: AJUNOK_clean_linker_0, # of connection points: 2
#     Edge 100, Type (0, 1), BuildingBlock: AJUNOK_clean_linker_0, # of connection points: 2
#     Edge 101, Type (0, 1), BuildingBlock: AJUNOK_clean_linker_0, # of connection points: 2
#     Edge 102, Type (0, 1), BuildingBlock: AJUNOK_clean_linker_0, # of connection points: 2
#     Edge 103, Type (0, 1), BuildingBlock: AJUNOK_clean_linker_0, # of connection points: 2
#     Edge 104, Type (0, 1), BuildingBlock: AJUNOK_clean_linker_0, # of connection points: 2
#     Edge 105, Type (0, 1), BuildingBlock: AJUNOK_clean_linker_0, # of connection points: 2
#     Edge 106, Type (0, 1), BuildingBlock: AJUNOK_clean_linker_0, # of connection points: 2
#     Edge 107, Type (0, 1), BuildingBlock: AJUNOK_clean_linker_0, # of connection points: 2
# Relax obj value: 0.134
# Max RMSD: 0.320
# Mean RMSD: 0.191
data_MOF--net-ptr--node1-UXUYUI_clean_sbu_0--node2-AZAVOO_clean_linker_0--edge1-AJUNOK_clean_linker_0
_symmetry_space_group_name_H-M    P1
_symmetry_Int_Tables_number       1
_symmetry_cell_setting            triclinic
loop_
_symmetry_equiv_pos_as_xyz
'x, y, z'
_cell_length_a     80.619284
_cell_length_b     79.870304
_cell_length_c     65.579161
_cell_angle_alpha  92.814147
_cell_angle_beta   92.469562
_cell_angle_gamma 120.23726
loop_
_atom_site_label
_atom_site_type_symbol
_atom_site_fract_x
_atom_site_fract_y
_atom_site_fract_z
_atom_type_partial_charge
Li0 Li 0.99422 0.34602 0.00923 0.0
Li1 Li 0.02579 0.36322 0.0282 0.0
Li2 Li 0.00133 0.3729 0.035 0.0
Li3 Li 0.01813 0.38106 0.00367 0.0
C4 C 0.98633 0.33302 0.04898 0.0
N5 N 0.95801 0.30264 0.06811 0.0
C6 C 0.99052 0.32042 0.05907 0.0
C7 C 0.96779 0.3303 0.04884 0.0
C8 C 0.97599 0.30511 0.06859 0.0
C9 C 0.95366 0.31484 0.05854 0.0
C10 C 0.03145 0.35117 0.99006 0.0
C11 C 0.06058 0.35775 0.97473 0.0
N12 N 0.05475 0.3385 0.97405 0.0
C13 C 0.02559 0.33141 0.98889 0.0
C14 C 0.04895 0.36442 0.98265 0.0
C15 C 0.03764 0.32531 0.98089 0.0
C16 C 0.96631 0.32141 0.97792 0.0
N17 N 0.97549 0.32166 0.99592 0.0
C18 C 0.95849 0.28697 0.99408 0.0
C19 C 0.97209 0.30493 0.00393 0.0
C20 C 0.94869 0.28628 0.97559 0.0
C21 C 0.95275 0.30372 0.9674 0.0
H22 H 0.96955 0.33496 0.97177 0.0
H23 H 0.98009 0.3055 0.01781 0.0
C24 C 0.05961 0.37238 0.05337 0.0
N25 N 0.04433 0.35836 0.04117 0.0
C26 C 0.07163 0.36773 0.06467 0.0
C27 C 0.05193 0.33434 0.05069 0.0
C28 C 0.04032 0.33963 0.0397 0.0
C29 C 0.06775 0.34846 0.06347 0.0
H30 H 0.06212 0.38701 0.05493 0.0
H31 H 0.02758 0.3286 0.03067 0.0
C32 C 0.97404 0.37016 0.00472 0.0
N33 N 0.94191 0.37411 0.00092 0.0
C34 C 0.97599 0.38812 0.00094 0.0
C35 C 0.95568 0.3541 0.00606 0.0
C36 C 0.9596 0.38986 0.99923 0.0
C37 C 0.93963 0.35642 0.00423 0.0
C38 C 0.04602 0.40726 0.03301 0.0
C39 C 0.04741 0.42366 0.04344 0.0
C40 C 0.0617 0.40895 0.02304 0.0
C41 C 0.06444 0.44156 0.04352 0.0
C42 C 0.07849 0.4271 0.02349 0.0
N43 N 0.0795 0.4429 0.03361 0.0
C44 C 0.98762 0.37603 0.07359 0.0
C45 C 0.99347 0.40078 0.05156 0.0
C46 C 0.98367 0.38573 0.0892 0.0
N47 N 0.99243 0.38369 0.05522 0.0
C48 C 0.9897 0.41099 0.06673 0.0
C49 C 0.98497 0.4036 0.08594 0.0
H50 H 0.98769 0.36288 0.07649 0.0
H51 H 0.99828 0.40703 0.03722 0.0
C52 C 0.02628 0.3946 0.96416 0.0
N53 N 0.02609 0.39984 0.98415 0.0
C54 C 0.02817 0.40716 0.94913 0.0
C55 C 0.03041 0.43045 0.9757 0.0
C56 C 0.02844 0.41747 0.99016 0.0
C57 C 0.02978 0.42513 0.95485 0.0
H58 H 0.02386 0.38026 0.95978 0.0
H59 H 0.02751 0.42098 0.00602 0.0
O60 O 0.00033 0.3479 0.03931 0.0
O61 O 0.01981 0.3574 0.99778 0.0
O62 O 0.98994 0.36815 0.00626 0.0
O63 O 0.02935 0.38967 0.03252 0.0
H64 H 0.00482 0.32238 0.05949 0.0
H65 H 0.96446 0.34021 0.04162 0.0
H66 H 0.97902 0.29519 0.07636 0.0
H67 H 0.93925 0.31258 0.05854 0.0
H68 H 0.07421 0.36786 0.96902 0.0
H69 H 0.01196 0.32092 0.99426 0.0
H70 H 0.05343 0.37967 0.98282 0.0
H71 H 0.03337 0.31009 0.98008 0.0
H72 H 0.9558 0.27374 0.00069 0.0
H73 H 0.94532 0.30366 0.9532 0.0
H74 H 0.08363 0.37899 0.07449 0.0
H75 H 0.04811 0.31922 0.04983 0.0
H76 H 0.99001 0.40063 0.99946 0.0
H77 H 0.95376 0.33994 0.00829 0.0
H78 H 0.96095 0.40372 0.9965 0.0
H79 H 0.92536 0.34412 0.00534 0.0
H80 H 0.03544 0.42258 0.05133 0.0
H81 H 0.06094 0.39635 0.01521 0.0
H82 H 0.0657 0.45439 0.05146 0.0
H83 H 0.09073 0.42862 0.01582 0.0
H84 H 0.9803 0.37969 0.10391 0.0
H85 H 0.99153 0.42504 0.06384 0.0
H86 H 0.02721 0.40236 0.93316 0.0
H87 H 0.03154 0.44414 0.98069 0.0
Li88 Li 0.65303 0.62987 0.05632 0.0
Li89 Li 0.63877 0.64705 0.07253 0.0
Li90 Li 0.62665 0.61284 0.07803 0.0
Li91 Li 0.61954 0.62141 0.04505 0.0
C92 C 0.66922 0.64004 0.09714 0.0
N93 N 0.703 0.64937 0.11962 0.0
C94 C 0.68352 0.6595 0.10176 0.0
C95 C 0.67208 0.62533 0.10409 0.0
C96 C 0.70051 0.66391 0.11308 0.0
C97 C 0.68925 0.63035 0.11542 0.0
C98 C 0.65743 0.66397 0.03763 0.0
C99 C 0.66676 0.6904 0.01602 0.0
N100 N 0.68459 0.69992 0.0261 0.0
C101 C 0.67583 0.67402 0.04778 0.0
C102 C 0.65283 0.6722 0.0216 0.0
C103 C 0.68937 0.69217 0.04172 0.0
C104 C 0.67417 0.63307 0.02373 0.0
N105 N 0.67563 0.63323 0.04447 0.0
C106 C 0.70868 0.64199 0.04436 0.0
C107 C 0.69237 0.63725 0.05487 0.0
C108 C 0.70776 0.64275 0.02302 0.0
C109 C 0.69012 0.63782 0.01265 0.0
H110 H 0.66071 0.62991 0.01587 0.0
H111 H 0.69335 0.63729 0.07127 0.0
C112 C 0.64885 0.67425 0.10596 0.0
N113 N 0.64437 0.67131 0.08539 0.0
C114 C 0.65455 0.69226 0.11622 0.0
C115 C 0.65029 0.70366 0.08402 0.0
C116 C 0.64464 0.68542 0.07439 0.0
C117 C 0.65546 0.70726 0.10516 0.0
H118 H 0.64841 0.6627 0.11431 0.0
H119 H 0.64067 0.68263 0.05813 0.0
C120 C 0.62787 0.58617 0.05214 0.0
N121 N 0.62387 0.55014 0.05662 0.0
C122 C 0.61045 0.56926 0.04583 0.0
C123 C 0.64335 0.58479 0.06044 0.0
C124 C 0.60868 0.55117 0.04831 0.0
C125 C 0.64102 0.56643 0.06265 0.0
C126 C 0.59947 0.63312 0.0699 0.0
C127 C 0.58527 0.62893 0.08351 0.0
C128 C 0.60161 0.64519 0.05427 0.0
C129 C 0.57343 0.63693 0.08127 0.0
C130 C 0.5895 0.65291 0.05255 0.0
N131 N 0.57577 0.64866 0.06597 0.0
C132 C 0.62287 0.59634 0.11644 0.0
C133 C 0.59683 0.57874 0.09125 0.0
C134 C 0.61291 0.58306 0.13072 0.0
N135 N 0.61479 0.59384 0.09709 0.0
C136 C 0.58629 0.56521 0.10505 0.0
C137 C 0.59431 0.56729 0.12511 0.0
H138 H 0.63672 0.60899 0.12107 0.0
H139 H 0.5904 0.57763 0.07606 0.0
C140 C 0.60845 0.61928 0.00362 0.0
N141 N 0.60162 0.61267 0.02189 0.0
C142 C 0.59622 0.61195 0.98572 0.0
C143 C 0.57013 0.59118 0.00581 0.0
C144 C 0.58286 0.59903 0.02339 0.0
C145 C 0.57684 0.59759 0.98667 0.0
H146 H 0.62355 0.62975 0.00288 0.0
H147 H 0.57796 0.59387 0.03815 0.0
O148 O 0.65238 0.63544 0.08627 0.0
O149 O 0.64389 0.64621 0.04335 0.0
O150 O 0.62977 0.60399 0.05013 0.0
O151 O 0.6112 0.62544 0.07204 0.0
H152 H 0.68157 0.67111 0.09669 0.0
H153 H 0.66124 0.61019 0.10066 0.0
H154 H 0.71171 0.67891 0.11669 0.0
H155 H 0.69166 0.61911 0.12083 0.0
H156 H 0.66338 0.69697 0.00368 0.0
H157 H 0.67963 0.66787 0.06016 0.0
H158 H 0.6386 0.66471 0.01369 0.0
H159 H 0.70368 0.70008 0.04944 0.0
H160 H 0.72193 0.64526 0.05286 0.0
H161 H 0.68883 0.63827 0.9962 0.0
H162 H 0.65863 0.69457 0.13252 0.0
H163 H 0.65064 0.71485 0.07505 0.0
H164 H 0.59838 0.57013 0.03924 0.0
H165 H 0.657 0.59774 0.0651 0.0
H166 H 0.59524 0.53795 0.04364 0.0
H167 H 0.65284 0.56513 0.06914 0.0
H168 H 0.58344 0.61961 0.09569 0.0
H169 H 0.61251 0.64862 0.04358 0.0
H170 H 0.56238 0.63382 0.09171 0.0
H171 H 0.59102 0.66229 0.04054 0.0
H172 H 0.61949 0.58533 0.14611 0.0
H173 H 0.57173 0.55373 0.1003 0.0
H174 H 0.60205 0.61687 0.97118 0.0
H175 H 0.55531 0.58 0.00708 0.0
Li176 Li 0.38058 0.98877 0.99916 0.0
Li177 Li 0.38889 0.0016 0.03466 0.0
Li178 Li 0.3549 0.9792 0.02186 0.0
Li179 Li 0.37169 0.01225 0.01195 0.0
C180 C 0.38072 0.96001 0.01902 0.0
N181 N 0.38961 0.93162 0.00889 0.0
C182 C 0.39987 0.96446 0.02044 0.0
C183 C 0.36604 0.94104 0.01286 0.0
C184 C 0.40409 0.94993 0.01512 0.0
C185 C 0.37084 0.9269 0.0077 0.0
C186 C 0.41146 0.03532 0.01579 0.0
C187 C 0.42354 0.06417 0.03885 0.0
N188 N 0.43843 0.07383 0.02697 0.0
C189 C 0.42688 0.04551 0.00382 0.0
C190 C 0.40976 0.04469 0.03347 0.0
C191 C 0.44037 0.06498 0.00973 0.0
C192 C 0.38092 0.9747 0.95798 0.0
N193 N 0.39116 0.98278 0.97636 0.0
C194 C 0.42016 0.98846 0.96203 0.0
C195 C 0.41039 0.98953 0.97865 0.0
C196 C 0.41007 0.98067 0.94277 0.0
C197 C 0.39012 0.97334 0.94093 0.0
H198 H 0.36582 0.97002 0.95625 0.0
H199 H 0.41831 0.9965 0.99324 0.0
C200 C 0.39991 0.00458 0.07619 0.0
N201 N 0.40684 0.00783 0.05739 0.0
C202 C 0.41196 0.0069 0.09333 0.0
C203 C 0.43813 0.01611 0.07147 0.0
C204 C 0.42558 0.01373 0.05473 0.0
C205 C 0.43122 0.01236 0.091 0.0
H206 H 0.38486 0.99957 0.07774 0.0
H207 H 0.43063 0.01605 0.03953 0.0
C208 C 0.33955 0.97522 0.98214 0.0
N209 N 0.30603 0.94891 0.95899 0.0
C210 C 0.32714 0.98115 0.97417 0.0
C211 C 0.3349 0.95591 0.97834 0.0
C212 C 0.31026 0.96763 0.9625 0.0
C213 C 0.3179 0.94283 0.9666 0.0
C214 C 0.35126 0.00604 0.04699 0.0
C215 C 0.33608 0.00328 0.03341 0.0
C216 C 0.35126 0.01074 0.0678 0.0
C217 C 0.32113 0.00524 0.04088 0.0
C218 C 0.33604 0.01256 0.07468 0.0
N219 N 0.32141 0.00979 0.0612 0.0
C220 C 0.33342 0.95311 0.04932 0.0
C221 C 0.31358 0.95542 0.02319 0.0
C222 C 0.31746 0.94196 0.06021 0.0
N223 N 0.33127 0.95984 0.03134 0.0
C224 C 0.2972 0.94409 0.03345 0.0
C225 C 0.29914 0.93762 0.0524 0.0
H226 H 0.34771 0.95728 0.0557 0.0
H227 H 0.31218 0.96159 0.00943 0.0
C228 C 0.36544 0.03346 0.98383 0.0
N229 N 0.36848 0.03306 0.00428 0.0
C230 C 0.36066 0.04669 0.97651 0.0
C231 C 0.3631 0.05949 0.01141 0.0
C232 C 0.36785 0.04596 0.01808 0.0
C233 C 0.35905 0.05964 0.99039 0.0
H234 H 0.36614 0.02304 0.97326 0.0
H235 H 0.37051 0.04543 0.03427 0.0
O236 O 0.37631 0.97404 0.0241 0.0
O237 O 0.39819 0.01625 0.01012 0.0
O238 O 0.35599 0.98821 0.99386 0.0
O239 O 0.36595 0.00395 0.04009 0.0
H240 H 0.41137 0.97901 0.02548 0.0
H241 H 0.3511 0.93722 0.01224 0.0
H242 H 0.41887 0.95321 0.01598 0.0
H243 H 0.35964 0.91217 0.00282 0.0
H244 H 0.42239 0.07161 0.05248 0.0
H245 H 0.4284 0.03844 0.99011 0.0
H246 H 0.39798 0.03705 0.04298 0.0
H247 H 0.45238 0.07306 0.0006 0.0
H248 H 0.43559 0.99447 0.96402 0.0
H249 H 0.38182 0.96706 0.92635 0.0
H250 H 0.40609 0.00373 0.10814 0.0
H251 H 0.45296 0.02052 0.06914 0.0
H252 H 0.33039 0.99598 0.9771 0.0
H253 H 0.34437 0.95113 0.98432 0.0
H254 H 0.3005 0.972 0.95628 0.0
H255 H 0.31414 0.92785 0.96353 0.0
H256 H 0.33582 -0.00035 0.01727 0.0
H257 H 0.3629 0.01295 0.07853 0.0
H258 H 0.3093 0.00312 0.03052 0.0
H259 H 0.33585 0.01617 0.09076 0.0
H260 H 0.31946 0.93728 0.07488 0.0
H261 H 0.28331 0.94137 0.02722 0.0
H262 H 0.35761 0.04634 0.96019 0.0
H263 H 0.3624 0.06955 0.02254 0.0
Li264 Li 0.01226 0.65867 0.05747 0.0
Li265 Li 0.98858 0.62553 0.06504 0.0
Li266 Li 0.00384 0.63139 0.03173 0.0
Li267 Li 0.97938 0.64059 0.03816 0.0
C268 C 0.03489 0.64164 0.0647 0.0
N269 N 0.07298 0.65299 0.07433 0.0
C270 C 0.04061 0.63841 0.08382 0.0
C271 C 0.04847 0.65042 0.0504 0.0
C272 C 0.05996 0.64432 0.08842 0.0
C273 C 0.06768 0.65611 0.05557 0.0
C274 C 0.97667 0.64999 0.08387 0.0
C275 C 0.94685 0.64181 0.09856 0.0
N276 N 0.9569 0.65169 0.11653 0.0
C277 C 0.98673 0.66033 0.10236 0.0
C278 C 0.9566 0.64087 0.08183 0.0
C279 C 0.97646 0.66091 0.11875 0.0
C280 C 0.03281 0.69939 0.06079 0.0
N281 N 0.03125 0.68356 0.06936 0.0
C282 C 0.05494 0.70373 0.09633 0.0
C283 C 0.04185 0.68535 0.08688 0.0
C284 C 0.05692 0.72038 0.08781 0.0
C285 C 0.04561 0.71805 0.06982 0.0
H286 H 0.02378 0.69747 0.04716 0.0
H287 H 0.03984 0.67252 0.09377 0.0
C288 C 0.97313 0.58894 0.08094 0.0
N289 N 0.98123 0.6083 0.08621 0.0
C290 C 0.9708 0.5762 0.09587 0.0
C291 C 0.98483 0.60351 0.12144 0.0
C292 C 0.98699 0.61572 0.106 0.0
C293 C 0.97698 0.58351 0.1164 0.0
H294 H 0.96945 0.5835 0.065 0.0
H295 H 0.99422 0.63124 0.10968 0.0
C296 C 0.01369 0.66573 0.01105 0.0
N297 N 0.03093 0.68485 0.97726 0.0
C298 C 0.00243 0.66379 0.9933 0.0
C299 C 0.0337 0.67767 0.01175 0.0
C300 C 0.01142 0.67349 0.97633 0.0
C301 C 0.04215 0.68714 0.99447 0.0
C302 C 0.95825 0.59933 0.0316 0.0
C303 C 0.95413 0.5882 0.01298 0.0
C304 C 0.94365 0.59495 0.04474 0.0
C305 C 0.93534 0.57299 0.00767 0.0
C306 C 0.92505 0.57962 0.03888 0.0
N307 N 0.92131 0.56906 0.02062 0.0
C308 C 0.01987 0.60932 0.01657 0.0
C309 C 0.00663 0.62038 0.99126 0.0
C310 C 0.02304 0.59837 0.00161 0.0
N311 N 0.0117 0.61993 0.01115 0.0
C312 C 0.00965 0.6098 0.97583 0.0
C313 C 0.01765 0.59835 0.98095 0.0
H314 H 0.02315 0.60868 0.03258 0.0
H315 H 0.99942 0.62823 0.98742 0.0
C316 C 0.96089 0.66143 0.03032 0.0
N317 N 0.96048 0.64459 0.02481 0.0
C318 C 0.94923 0.66667 0.01928 0.0
C319 C 0.93664 0.63691 0.99741 0.0
C320 C 0.94868 0.63235 0.00873 0.0
C321 C 0.937 0.65436 0.00254 0.0
H322 H 0.97074 0.67108 0.0429 0.0
H323 H 0.94916 0.61946 0.00411 0.0
O324 O 0.01601 0.636 0.06 0.0
O325 O 0.9865 0.64946 0.06762 0.0
O326 O 0.00509 0.65655 0.02789 0.0
O327 O 0.97655 0.6143 0.03697 0.0
H328 H 0.03021 0.63153 0.09502 0.0
H329 H 0.04419 0.65265 0.0354 0.0
H330 H 0.06463 0.64202 0.1032 0.0
H331 H 0.07836 0.66295 0.04465 0.0
H332 H 0.93131 0.63475 0.09723 0.0
H333 H 0.0023 0.6677 0.10408 0.0
H334 H 0.94863 0.63331 0.06743 0.0
H335 H 0.98405 0.66871 0.13321 0.0
H336 H 0.06334 0.7049 0.11022 0.0
H337 H 0.04628 0.73046 0.06307 0.0
H338 H 0.96529 0.56101 0.0912 0.0
H339 H 0.98994 0.60974 0.13705 0.0
H340 H 0.98691 0.65477 0.99256 0.0
H341 H 0.0426 0.67977 0.02554 0.0
H342 H 0.00289 0.672 0.96244 0.0
H343 H 0.05762 0.69638 0.99478 0.0
H344 H 0.96532 0.59137 0.0027 0.0
H345 H 0.9467 0.60317 0.05937 0.0
H346 H 0.93191 0.56431 0.99326 0.0
H347 H 0.9136 0.57607 0.04889 0.0
H348 H 0.02878 0.58934 0.00625 0.0
H349 H 0.00522 0.6101 0.96008 0.0
H350 H 0.94991 0.68029 0.0236 0.0
H351 H 0.92768 0.62727 0.98432 0.0
Li352 Li 0.34785 0.37436 0.01075 0.0
Li353 Li 0.38079 0.38118 0.02219 0.0
Li354 Li 0.37371 0.39029 0.98781 0.0
Li355 Li 0.362 0.35624 0.99367 0.0
C356 C 0.36987 0.41449 0.02415 0.0
N357 N 0.36501 0.44386 0.04129 0.0
C358 C 0.37577 0.42115 0.04476 0.0
C359 C 0.36174 0.42293 0.01219 0.0
C360 C 0.37312 0.43597 0.05316 0.0
C361 C 0.35934 0.43772 0.02116 0.0
C362 C 0.35139 0.34204 0.03441 0.0
C363 C 0.35674 0.31684 0.04601 0.0
N364 N 0.34219 0.31162 0.05856 0.0
C365 C 0.33643 0.33638 0.04734 0.0
C366 C 0.3616 0.33219 0.03367 0.0
C367 C 0.33203 0.32098 0.05947 0.0
C368 C 0.30798 0.3554 0.01151 0.0
N369 N 0.32465 0.37033 0.02088 0.0
C370 C 0.30788 0.37401 0.04825 0.0
C371 C 0.3249 0.37977 0.03881 0.0
C372 C 0.29061 0.35813 0.03937 0.0
C373 C 0.29064 0.349 0.02056 0.0
H374 H 0.30833 0.34783 0.99754 0.0
H375 H 0.33839 0.391 0.0464 0.0
C376 C 0.41691 0.40318 0.04474 0.0
N377 N 0.3982 0.38914 0.04567 0.0
C378 C 0.42913 0.41117 0.06268 0.0
C379 C 0.40273 0.38949 0.0819 0.0
C380 C 0.39103 0.38203 0.06368 0.0
C381 C 0.42186 0.40466 0.08159 0.0
H382 H 0.4221 0.4087 0.03019 0.0
H383 H 0.37603 0.37113 0.06403 0.0
C384 C 0.33819 0.36927 0.96439 0.0
N385 N 0.31952 0.37286 0.93005 0.0
C386 C 0.3364 0.35885 0.94588 0.0
C387 C 0.33023 0.38126 0.96556 0.0
C388 C 0.32699 0.36094 0.92865 0.0
C389 C 0.32092 0.38295 0.94799 0.0
C390 C 0.40295 0.37359 0.99043 0.0
C391 C 0.41099 0.37772 0.97156 0.0
C392 C 0.40936 0.36529 0.00474 0.0
C393 C 0.42506 0.37306 0.96715 0.0
C394 C 0.42347 0.36086 0.99976 0.0
N395 N 0.43094 0.36478 0.98122 0.0
C396 C 0.39605 0.42788 0.97452 0.0
C397 C 0.38316 0.40209 0.9483 0.0
C398 C 0.40662 0.44128 0.96057 0.0
N399 N 0.38478 0.4087 0.96819 0.0
C400 C 0.39331 0.41497 0.93384 0.0
C401 C 0.40551 0.43479 0.93998 0.0
H402 H 0.39753 0.43264 0.99055 0.0
H403 H 0.3747 0.3867 0.94384 0.0
C404 C 0.33743 0.31649 0.98569 0.0
N405 N 0.35478 0.3314 0.9813 0.0
C406 C 0.33041 0.29784 0.97638 0.0
C407 C 0.3592 0.31027 0.95808 0.0
C408 C 0.36564 0.32869 0.96772 0.0
C409 C 0.34129 0.29462 0.96225 0.0
H410 H 0.32892 0.31919 0.99623 0.0
H411 H 0.37914 0.3408 0.9641 0.0
O412 O 0.37239 0.40002 0.0157 0.0
O413 O 0.35582 0.35707 0.02243 0.0
O414 O 0.34728 0.36732 0.9814 0.0
O415 O 0.38924 0.37816 0.99501 0.0
H416 H 0.38222 0.41484 0.05418 0.0
H417 H 0.35746 0.41819 0.99613 0.0
H418 H 0.37751 0.44119 0.06911 0.0
H419 H 0.35302 0.44436 0.0121 0.0
H420 H 0.36449 0.30906 0.04557 0.0
H421 H 0.32835 0.34382 0.04804 0.0
H422 H 0.37298 0.33616 0.02351 0.0
H423 H 0.32052 0.31646 0.06958 0.0
H424 H 0.30839 0.38118 0.06293 0.0
H425 H 0.27753 0.33669 0.01332 0.0
H426 H 0.4438 0.4229 0.06189 0.0
H427 H 0.39671 0.3839 0.09617 0.0
H428 H 0.34233 0.34935 0.94482 0.0
H429 H 0.33112 0.38906 0.97989 0.0
H430 H 0.32561 0.35307 0.91417 0.0
H431 H 0.31473 0.39223 0.94864 0.0
H432 H 0.40631 0.38431 0.96039 0.0
H433 H 0.40365 0.36246 0.0196 0.0
H434 H 0.43132 0.37604 0.95256 0.0
H435 H 0.42853 0.35438 0.01067 0.0
H436 H 0.41627 0.45633 0.96607 0.0
H437 H 0.39215 0.40938 0.91813 0.0
H438 H 0.31649 0.28614 0.97989 0.0
H439 H 0.36814 0.30828 0.94751 0.0
Li440 Li 0.62988 0.98686 0.05126 0.0
Li441 Li 0.62383 0.0127 0.06668 0.0
Li442 Li 0.61469 0.0002 0.02886 0.0
Li443 Li 0.64744 0.01891 0.04226 0.0
C444 C 0.58938 0.96994 0.06024 0.0
N445 N 0.558 0.93788 0.07384 0.0
C446 C 0.58758 0.96793 0.08121 0.0
C447 C 0.57508 0.9557 0.04619 0.0
C448 C 0.57165 0.95161 0.08778 0.0
C449 C 0.55937 0.93958 0.05336 0.0
C450 C 0.66509 0.0229 0.07789 0.0
C451 C 0.68832 0.05334 0.09633 0.0
N452 N 0.70251 0.04938 0.09256 0.0
C453 C 0.67987 0.01906 0.07429 0.0
C454 C 0.6693 0.04012 0.08905 0.0
C455 C 0.69871 0.03267 0.08179 0.0
C456 C 0.64823 0.96558 0.04893 0.0
N457 N 0.63327 0.96579 0.0575 0.0
C458 C 0.62885 0.94032 0.07822 0.0
C459 C 0.62339 0.95334 0.07169 0.0
C460 C 0.64471 0.94031 0.07017 0.0
C461 C 0.65423 0.95288 0.05507 0.0
H462 H 0.65607 0.97594 0.03799 0.0
H463 H 0.61193 0.95413 0.0787 0.0
C464 C 0.6022 0.0261 0.08693 0.0
N465 N 0.61497 0.01993 0.08991 0.0
C466 C 0.59262 0.02807 0.1033 0.0
C467 C 0.60998 0.01785 0.12556 0.0
C468 C 0.61942 0.01634 0.10881 0.0
C469 C 0.59607 0.0234 0.12283 0.0
H470 H 0.59882 0.02863 0.07166 0.0
H471 H 0.62938 0.0111 0.1106 0.0
C472 C 0.62866 0.97956 0.00892 0.0
N473 N 0.61405 0.94827 0.97981 0.0
C474 C 0.63657 0.98168 0.98999 0.0
C475 C 0.6133 0.9615 0.01299 0.0
C476 C 0.62898 0.96571 0.97549 0.0
C477 C 0.60613 0.94586 0.99811 0.0
C478 C 0.63804 0.04609 0.03731 0.0
C479 C 0.64296 0.05032 0.01726 0.0
C480 C 0.64357 0.06122 0.05249 0.0
C481 C 0.65364 0.06973 0.0128 0.0
C482 C 0.65418 0.08044 0.04739 0.0
N483 N 0.65898 0.08426 0.02783 0.0
C484 C 0.57819 0.9897 0.00897 0.0
C485 C 0.60425 -4e-05 0.98788 0.0
C486 C 0.56581 0.98768 0.9922 0.0
N487 N 0.59698 0.99569 0.00645 0.0
C488 C 0.59245 0.99816 0.97078 0.0
C489 C 0.573 0.99207 0.97285 0.0
H490 H 0.57294 0.98689 0.02405 0.0
H491 H 0.61934 0.00518 0.98644 0.0
C492 C 0.67902 0.02854 0.02032 0.0
N493 N 0.67273 0.03683 0.03423 0.0
C494 C 0.69639 0.03967 0.01176 0.0
C495 C 0.70152 0.06765 0.03306 0.0
C496 C 0.6838 0.05593 0.0411 0.0
C497 C 0.70778 0.05958 0.01779 0.0
H498 H 0.67044 0.01323 0.01565 0.0
H499 H 0.67889 0.06215 0.05265 0.0
O500 O 0.6047 0.98605 0.05351 0.0
O501 O 0.64661 0.00994 0.07039 0.0
O502 O 0.63583 0.99523 0.02315 0.0
O503 O 0.62765 0.02721 0.04202 0.0
H504 H 0.59851 0.97868 0.09231 0.0
H505 H 0.57606 0.95706 0.02989 0.0
H506 H 0.57017 0.94983 0.10397 0.0
H507 H 0.54825 0.92845 0.04264 0.0
H508 H 0.69182 0.06678 0.10491 0.0
H509 H 0.67684 0.00582 0.06564 0.0
H510 H 0.65802 0.04334 0.09186 0.0
H511 H 0.71032 0.02997 0.07902 0.0
H512 H 0.62145 0.93115 0.09026 0.0
H513 H 0.66658 0.95333 0.04861 0.0
H514 H 0.58208 0.03247 0.10055 0.0
H515 H 0.61273 0.01359 0.14016 0.0
H516 H 0.64831 0.99559 0.98641 0.0
H517 H 0.60706 0.95949 0.0275 0.0
H518 H 0.63494 0.96719 0.96077 0.0
H519 H 0.59427 0.93181 0.00112 0.0
H520 H 0.63877 0.03875 0.00536 0.0
H521 H 0.6398 0.05814 0.06807 0.0
H522 H 0.65771 0.07325 0.9974 0.0
H523 H 0.65865 0.09232 0.059 0.0
H524 H 0.55099 0.98334 0.99446 0.0
H525 H 0.59852 0.00171 0.95611 0.0
H526 H 0.7006 0.03278 8e-05 0.0
H527 H 0.71014 0.08282 0.03864 0.0
Li528 Li 0.65532 0.68121 0.34438 0.0
Li529 Li 0.68575 0.6984 0.36424 0.0
Li530 Li 0.66249 0.70876 0.36875 0.0
Li531 Li 0.68014 0.71581 0.33804 0.0
C532 C 0.64494 0.67059 0.3847 0.0
N533 N 0.61437 0.64451 0.40538 0.0
C534 C 0.64645 0.65679 0.3957 0.0
C535 C 0.62799 0.67133 0.38457 0.0
C536 C 0.6308 0.64366 0.40594 0.0
C537 C 0.61267 0.65798 0.39503 0.0
C538 C 0.6955 0.6877 0.33075 0.0
C539 C 0.72907 0.69865 0.32775 0.0
N540 N 0.72475 0.67983 0.32548 0.0
C541 C 0.69134 0.66846 0.32828 0.0
C542 C 0.71446 0.70294 0.33039 0.0
C543 C 0.70636 0.66478 0.32566 0.0
C544 C 0.62887 0.65607 0.31235 0.0
N545 N 0.63697 0.65675 0.33122 0.0
C546 C 0.61987 0.62212 0.33037 0.0
C547 C 0.63299 0.64029 0.34019 0.0
C548 C 0.61114 0.62097 0.31099 0.0
C549 C 0.61577 0.63818 0.3019 0.0
H550 H 0.63261 0.66944 0.30546 0.0
H551 H 0.64019 0.64123 0.35483 0.0
C552 C 0.72098 0.70805 0.38658 0.0
N553 N 0.70373 0.69345 0.37801 0.0
C554 C 0.73323 0.70372 0.39791 0.0
C555 C 0.70985 0.66948 0.39088 0.0
C556 C 0.69808 0.67447 0.37975 0.0
C557 C 0.72753 0.68421 0.4004 0.0
H558 H 0.72511 0.72301 0.3848 0.0
H559 H 0.68429 0.66321 0.37266 0.0
C560 C 0.63523 0.70387 0.33496 0.0
N561 N 0.60168 0.70399 0.32441 0.0
C562 C 0.63604 0.72015 0.32688 0.0
C563 C 0.61728 0.6875 0.33717 0.0
C564 C 0.61895 0.71997 0.32178 0.0
C565 C 0.60051 0.68789 0.33189 0.0
C566 C 0.69665 0.74475 0.37082 0.0
C567 C 0.6865 0.75244 0.36115 0.0
C568 C 0.71242 0.7567 0.38474 0.0
C569 C 0.69232 0.77201 0.36547 0.0
C570 C 0.71781 0.77622 0.38866 0.0
N571 N 0.70774 0.78341 0.37902 0.0
C572 C 0.65633 0.71684 0.40847 0.0
C573 C 0.64459 0.72981 0.38373 0.0
C574 C 0.65125 0.72524 0.42433 0.0
N575 N 0.65298 0.71928 0.38866 0.0
C576 C 0.63939 0.73859 0.39913 0.0
C577 C 0.64278 0.73637 0.41972 0.0
H578 H 0.66337 0.70871 0.41194 0.0
H579 H 0.64245 0.73193 0.36795 0.0
C580 C 0.6766 0.7284 0.30072 0.0
N581 N 0.68947 0.73307 0.3171 0.0
C582 C 0.68039 0.74143 0.28584 0.0
C583 C 0.71135 0.7633 0.30406 0.0
C584 C 0.70684 0.74986 0.31882 0.0
C585 C 0.69775 0.75927 0.28768 0.0
H586 H 0.66298 0.71486 0.29974 0.0
H587 H 0.7168 0.75317 0.33203 0.0
O588 O 0.66023 0.68358 0.37467 0.0
O589 O 0.6811 0.69162 0.33385 0.0
O590 O 0.65185 0.70367 0.33974 0.0
O591 O 0.69111 0.72557 0.36696 0.0
H592 H 0.65954 0.65615 0.39628 0.0
H593 H 0.62675 0.68227 0.3768 0.0
H594 H 0.63175 0.63283 0.41438 0.0
H595 H 0.59947 0.65841 0.39501 0.0
H596 H 0.74384 0.71029 0.32756 0.0
H597 H 0.67671 0.65653 0.32858 0.0
H598 H 0.71787 0.71791 0.33236 0.0
H599 H 0.70339 0.64997 0.32384 0.0
H600 H 0.61673 0.60909 0.33772 0.0
H601 H 0.60915 0.6378 0.28702 0.0
H602 H 0.74696 0.71546 0.40468 0.0
H603 H 0.70498 0.65428 0.39244 0.0
H604 H 0.64969 0.73285 0.32459 0.0
H605 H 0.61622 0.67449 0.34267 0.0
H606 H 0.61941 0.73253 0.31568 0.0
H607 H 0.58656 0.67533 0.33363 0.0
H608 H 0.67425 0.74338 0.35045 0.0
H609 H 0.72038 0.75097 0.39248 0.0
H610 H 0.68457 0.77813 0.35806 0.0
H611 H 0.73 0.78564 0.39939 0.0
H612 H 0.65455 0.72362 0.44004 0.0
H613 H 0.63305 0.74724 0.39504 0.0
H614 H 0.66965 0.73789 0.27331 0.0
H615 H 0.72484 0.77701 0.30593 0.0
Li616 Li 0.28433 0.95132 0.38017 0.0
Li617 Li 0.29245 0.9429 0.41258 0.0
Li618 Li 0.30753 0.97722 0.40556 0.0
Li619 Li 0.31734 0.95572 0.38826 0.0
C620 C 0.26396 0.96028 0.40638 0.0
N621 N 0.23172 0.96403 0.40302 0.0
C622 C 0.24613 0.94514 0.4112 0.0
C623 C 0.26543 0.97742 0.40012 0.0
C624 C 0.22999 0.94728 0.40933 0.0
C625 C 0.24896 0.97901 0.39845 0.0
C626 C 0.28054 0.91179 0.38394 0.0
C627 C 0.2765 0.87981 0.37881 0.0
N628 N 0.25781 0.87185 0.38327 0.0
C629 C 0.2613 0.90331 0.38843 0.0
C630 C 0.28823 0.89998 0.37908 0.0
C631 C 0.25004 0.88309 0.38804 0.0
C632 C 0.27281 0.95054 0.33933 0.0
N633 N 0.26564 0.94421 0.35758 0.0
C634 C 0.23373 0.92535 0.34134 0.0
C635 C 0.24646 0.93194 0.35892 0.0
C636 C 0.24083 0.93156 0.3223 0.0
C637 C 0.2606 0.9445 0.32145 0.0
H638 H 0.28815 0.9597 0.33848 0.0
H639 H 0.24107 0.92666 0.37342 0.0
C640 C 0.27211 0.93044 0.44708 0.0
N641 N 0.28176 0.9257 0.43367 0.0
C642 C 0.26233 0.91811 0.4621 0.0
C643 C 0.27332 0.89658 0.44993 0.0
C644 C 0.28289 0.90935 0.43507 0.0
C645 C 0.26258 0.90075 0.46344 0.0
H646 H 0.27169 0.94367 0.44583 0.0
H647 H 0.29089 0.906 0.42445 0.0
C648 C 0.31742 0.98999 0.36596 0.0
N649 N 0.33236 0.02339 0.34544 0.0
C650 C 0.33635 0.99882 0.36032 0.0
C651 C 0.30599 0.99798 0.36088 0.0
C652 C 0.34367 0.01575 0.35003 0.0
C653 C 0.31383 0.01492 0.35059 0.0
C654 C 0.32969 0.95675 0.42942 0.0
C655 C 0.33945 0.96639 0.44826 0.0
C656 C 0.32947 0.93984 0.42235 0.0
C657 C 0.3489 0.95894 0.45975 0.0
C658 C 0.33909 0.93285 0.43428 0.0
N659 N 0.34852 0.94246 0.45258 0.0
C660 C 0.30769 0.0055 0.43294 0.0
C661 C 0.3331 0.01814 0.41088 0.0
C662 C 0.31415 0.02409 0.44218 0.0
N663 N 0.31704 0.00293 0.41741 0.0
C664 C 0.33985 0.03702 0.41943 0.0
C665 C 0.3303 0.04007 0.43525 0.0
H666 H 0.29516 0.99308 0.43808 0.0
H667 H 0.34076 0.01568 0.39914 0.0
C668 C 0.3338 0.94676 0.35635 0.0
N669 N 0.33794 0.95577 0.37553 0.0
C670 C 0.34862 0.9488 0.34459 0.0
C671 C 0.37162 0.96881 0.37283 0.0
C672 C 0.35635 0.9665 0.38402 0.0
C673 C 0.36781 0.96017 0.35272 0.0
H674 H 0.31901 0.93865 0.34992 0.0
H675 H 0.35921 0.97394 0.3991 0.0
O676 O 0.27992 0.95843 0.40815 0.0
O677 O 0.29191 0.93156 0.38462 0.0
O678 O 0.31002 0.97339 0.37601 0.0
O679 O 0.32025 0.9638 0.41812 0.0
H680 H 0.24473 0.93178 0.41614 0.0
H681 H 0.27917 0.98942 0.39673 0.0
H682 H 0.21608 0.93563 0.41286 0.0
H683 H 0.24989 0.99218 0.39357 0.0
H684 H 0.28226 0.87048 0.3751 0.0
H685 H 0.25528 0.91228 0.39265 0.0
H686 H 0.30314 0.90636 0.37563 0.0
H687 H 0.23517 0.87633 0.39164 0.0
H688 H 0.21857 0.91517 0.34251 0.0
H689 H 0.26671 0.94915 0.30696 0.0
H690 H 0.25422 0.92187 0.47221 0.0
H691 H 0.27422 0.88355 0.45077 0.0
H692 H 0.34536 0.99276 0.36398 0.0
H693 H 0.29117 0.99107 0.36466 0.0
H694 H 0.35833 0.0228 0.34569 0.0
H695 H 0.30517 0.02129 0.34662 0.0
H696 H 0.3397 0.97947 0.45395 0.0
H697 H 0.32191 0.93215 0.40786 0.0
H698 H 0.35652 0.96624 0.47437 0.0
H699 H 0.33902 0.91977 0.42901 0.0
H700 H 0.30646 0.02603 0.45436 0.0
H701 H 0.35246 0.04908 0.41389 0.0
H702 H 0.34517 0.94198 0.3291 0.0
H703 H 0.38627 0.97801 0.37944 0.0
Li704 Li 0.0547 0.32293 0.33683 0.0
Li705 Li 0.06344 0.33812 0.37221 0.0
Li706 Li 0.0294 0.31513 0.36002 0.0
Li707 Li 0.04617 0.34736 0.34803 0.0
C708 C 0.0466 0.29115 0.35934 0.0
N709 N 0.0375 0.253 0.35201 0.0
C710 C 0.0577 0.28457 0.3692 0.0
C711 C 0.03089 0.27836 0.34578 0.0
C712 C 0.05287 0.26522 0.36528 0.0
C713 C 0.0265 0.25912 0.34228 0.0
C714 C 0.08604 0.37015 0.34996 0.0
C715 C 0.09975 0.4007 0.37044 0.0
N716 N 0.11329 0.40919 0.35679 0.0
C717 C 0.10007 0.37915 0.33614 0.0
C718 C 0.08585 0.38098 0.36725 0.0
C719 C 0.11373 0.39891 0.33987 0.0
C720 C 0.05881 0.31725 0.29544 0.0
N721 N 0.0637 0.31465 0.31463 0.0
C722 C 0.08516 0.30503 0.30172 0.0
C723 C 0.0764 0.30845 0.31806 0.0
C724 C 0.08085 0.30821 0.28181 0.0
C725 C 0.06714 0.31392 0.27867 0.0
H726 H 0.04901 0.32264 0.29328 0.0
H727 H 0.08028 0.30687 0.33354 0.0
C728 C 0.07496 0.34509 0.41389 0.0
N729 N 0.08154 0.34592 0.39504 0.0
C730 C 0.08725 0.34931 0.43141 0.0
C731 C 0.11293 0.35531 0.40976 0.0
C732 C 0.10013 0.35105 0.39261 0.0
C733 C 0.1064 0.35418 0.42944 0.0
H734 H 0.06001 0.34065 0.41528 0.0
H735 H 0.10489 0.35146 0.37737 0.0
C736 C 0.01322 0.31376 0.31963 0.0
N737 N 0.97882 0.29632 0.29555 0.0
C738 C 0.00078 0.32113 0.32084 0.0
C739 C 0.0083 0.29773 0.30587 0.0
C740 C 0.98342 0.31205 0.30863 0.0
C741 C 0.9908 0.28905 0.29391 0.0
C742 C 0.02986 0.34729 0.38523 0.0
C743 C 0.01073 0.33998 0.37788 0.0
C744 C 0.03788 0.36153 0.40168 0.0
C745 C -1e-05 0.3472 0.38695 0.0
C746 C 0.02667 0.36841 0.41033 0.0
N747 N 0.00812 0.36117 0.40284 0.0
C748 C 0.00636 0.29659 0.39066 0.0
C749 C 0.98962 0.28342 0.35798 0.0
C750 C 0.9898 0.28466 0.40031 0.0
N751 N 0.00593 0.29596 0.3699 0.0
C752 C 0.9727 0.27114 0.36702 0.0
C753 C 0.97267 0.27176 0.38845 0.0
H754 H 0.01951 0.3068 0.39973 0.0
H755 H 0.98957 0.28305 0.34153 0.0
C756 C 0.03992 0.36733 0.31814 0.0
N757 N 0.04358 0.36808 0.33868 0.0
C758 C 0.03708 0.38148 0.30975 0.0
C759 C 0.04241 0.39728 0.34377 0.0
C760 C 0.04516 0.3828 0.35151 0.0
C761 C 0.03829 0.39666 0.32264 0.0
H762 H 0.03893 0.35554 0.3083 0.0
H763 H 0.04854 0.38336 0.36771 0.0
O764 O 0.05129 0.3101 0.36289 0.0
O765 O 0.07248 0.35086 0.34638 0.0
O766 O 0.03037 0.32251 0.33136 0.0
O767 O 0.04068 0.34045 0.37659 0.0
H768 H 0.06995 0.29434 0.37972 0.0
H769 H 0.02218 0.28324 0.33807 0.0
H770 H 0.06134 0.25992 0.37277 0.0
H771 H 0.01437 0.24906 0.33181 0.0
H772 H 0.09976 0.40927 0.38374 0.0
H773 H 0.10036 0.37095 0.32265 0.0
H774 H 0.07506 0.37427 0.37807 0.0
H775 H 0.12468 0.40608 0.3293 0.0
H776 H 0.09557 0.30048 0.30467 0.0
H777 H 0.06362 0.31669 0.26355 0.0
H778 H 0.08166 0.34809 0.44633 0.0
H779 H 0.12767 0.35917 0.40768 0.0
H780 H 0.00454 0.33384 0.33095 0.0
H781 H 0.01785 0.29198 0.30446 0.0
H782 H 0.97364 0.31757 0.30948 0.0
H783 H 0.98677 0.27656 0.28331 0.0
H784 H 0.00419 0.32874 0.36544 0.0
H785 H 0.05266 0.36735 0.40759 0.0
H786 H 0.98517 0.34167 0.38139 0.0
H787 H 0.03273 0.37951 0.42299 0.0
H788 H 0.99028 0.28591 0.41687 0.0
H789 H 0.95975 0.26135 0.35738 0.0
H790 H 0.03361 0.38033 0.29342 0.0
H791 H 0.04355 0.40886 0.35414 0.0
Li792 Li 0.67614 0.98381 0.39143 0.0
Li793 Li 0.65312 0.95001 0.39664 0.0
Li794 Li 0.67211 0.95778 0.36595 0.0
Li795 Li 0.64549 0.96431 0.36833 0.0
C796 C 0.70053 0.9692 0.40102 0.0
N797 N 0.73898 0.98324 0.41229 0.0
C798 C 0.70597 0.96463 0.4195 0.0
C799 C 0.71461 0.98076 0.38821 0.0
C800 C 0.72549 0.97191 0.42495 0.0
C801 C 0.73398 0.98775 0.39418 0.0
C802 C 0.63931 0.97095 0.41515 0.0
C803 C 0.60967 0.95896 0.43162 0.0
N804 N 0.61997 0.96739 0.4499 0.0
C805 C 0.6496 0.97972 0.43402 0.0
C806 C 0.61919 0.96068 0.41386 0.0
C807 C 0.63955 0.97766 0.45145 0.0
C808 C 0.69327 0.02429 0.39631 0.0
N809 N 0.6931 0.00889 0.40446 0.0
C810 C 0.71653 0.02977 0.43129 0.0
C811 C 0.70421 0.01123 0.42175 0.0
C812 C 0.71711 0.04599 0.42318 0.0
C813 C 0.70528 0.04309 0.40544 0.0
H814 H 0.68404 0.02192 0.3827 0.0
H815 H 0.70347 0.99872 0.42822 0.0
C816 C 0.63083 0.91342 0.41338 0.0
N817 N 0.64414 0.93258 0.41762 0.0
C818 C 0.62653 0.90045 0.42856 0.0
C819 C 0.64942 0.92724 0.45223 0.0
C820 C 0.65333 0.93964 0.4366 0.0
C821 C 0.63607 0.90732 0.4482 0.0
H822 H 0.62415 0.90802 0.39804 0.0
H823 H 0.66435 0.95479 0.43935 0.0
C824 C 0.68179 0.99227 0.34534 0.0
N825 N 0.70111 0.01319 0.31328 0.0
C826 C 0.67221 0.98849 0.32591 0.0
C827 C 0.70111 0.00698 0.34854 0.0
C828 C 0.68225 0.99913 0.30987 0.0
C829 C 0.71065 0.01732 0.33212 0.0
C830 C 0.62733 0.92481 0.35808 0.0
C831 C 0.62714 0.91488 0.33984 0.0
C832 C 0.60995 0.92045 0.36611 0.0
C833 C 0.60949 0.90085 0.32981 0.0
C834 C 0.59261 0.90634 0.35563 0.0
N835 N 0.59274 0.89693 0.33784 0.0
C836 C 0.69532 0.94189 0.35366 0.0
C837 C 0.67901 0.94816 0.32688 0.0
C838 C 0.70253 0.934 0.33951 0.0
N839 N 0.68386 0.94885 0.34712 0.0
C840 C 0.68582 0.94036 0.31225 0.0
C841 C 0.69758 0.93297 0.31851 0.0
H842 H 0.69849 0.942 0.36986 0.0
H843 H 0.6692 0.95295 0.32212 0.0
C844 C 0.62292 0.98084 0.35953 0.0
N845 N 0.62675 0.96695 0.35248 0.0
C846 C 0.61094 0.98514 0.34768 0.0
C847 C 0.60669 0.96041 0.32175 0.0
C848 C 0.61895 0.95677 0.33397 0.0
C849 C 0.60284 0.97497 0.32847 0.0
H850 H 0.62957 0.98891 0.37416 0.0
H851 H 0.62274 0.94631 0.32834 0.0
O852 O 0.68149 0.96241 0.39561 0.0
O853 O 0.64889 0.9727 0.39795 0.0
O854 O 0.67209 0.98217 0.36129 0.0
O855 O 0.64446 0.93875 0.36795 0.0
H856 H 0.69525 0.95563 0.42958 0.0
H857 H 0.7106 0.98407 0.3737 0.0
H858 H 0.72992 0.96856 0.43925 0.0
H859 H 0.74503 0.99671 0.38439 0.0
H860 H 0.5941 0.95098 0.43087 0.0
H861 H 0.66517 0.98787 0.43525 0.0
H862 H 0.61101 0.95421 0.39928 0.0
H863 H 0.64733 0.98422 0.46619 0.0
H864 H 0.7257 0.03139 0.44471 0.0
H865 H 0.70525 0.05521 0.39876 0.0
H866 H 0.61628 0.88514 0.42484 0.0
H867 H 0.65751 0.933 0.46699 0.0
H868 H 0.65722 0.97734 0.32317 0.0
H869 H 0.70866 0.01054 0.36356 0.0
H870 H 0.67504 0.99622 0.29473 0.0
H871 H 0.72562 0.02868 0.33438 0.0
H872 H 0.64046 0.91798 0.33346 0.0
H873 H 0.60988 0.92789 0.38029 0.0
H874 H 0.60912 0.8931 0.31564 0.0
H875 H 0.57905 0.90288 0.36165 0.0
H876 H 0.71166 0.92856 0.34495 0.0
H877 H 0.68135 0.93948 0.29622 0.0
H878 H 0.60814 0.99637 0.35337 0.0
H879 H 0.60078 0.95241 0.30692 0.0
Li880 Li 0.05073 0.72129 0.3582 0.0
Li881 Li 0.01776 0.71228 0.34765 0.0
Li882 Li 0.03425 0.6965 0.33009 0.0
Li883 Li 0.04332 0.73013 0.32444 0.0
C884 C 0.02901 0.68915 0.37701 0.0
N885 N 0.0338 0.6772 0.41453 0.0
C886 C 0.0202 0.69174 0.39381 0.0
C887 C 0.03997 0.68018 0.3792 0.0
C888 C 0.02287 0.68568 0.41268 0.0
C889 C 0.0423 0.67432 0.39832 0.0
C890 C 0.03584 0.7531 0.35472 0.0
C891 C 0.02156 0.77076 0.34085 0.0
N892 N 0.02612 0.78161 0.35904 0.0
C893 C 0.04055 0.76454 0.37323 0.0
C894 C 0.0264 0.75631 0.33835 0.0
C895 C 0.03544 0.77883 0.37513 0.0
C896 C 0.08617 0.7321 0.38123 0.0
N897 N 0.0683 0.72983 0.38179 0.0
C898 C 0.07387 0.73959 0.41758 0.0
C899 C 0.06212 0.7337 0.39938 0.0
C900 C 0.09227 0.74182 0.41754 0.0
C901 C 0.09854 0.73824 0.39908 0.0
H902 H 0.09084 0.72924 0.36695 0.0
H903 H 0.04801 0.73217 0.39925 0.0
C904 C 0.97797 0.68994 0.34941 0.0
N905 N 0.99387 0.70664 0.35738 0.0
C906 C 0.96042 0.68329 0.35806 0.0
C907 C 0.97587 0.71142 0.38263 0.0
C908 C 0.99312 0.71751 0.37354 0.0
C909 C 0.95937 0.69388 0.37518 0.0
H910 H 0.97912 0.68143 0.33679 0.0
H911 H 0.00608 0.73034 0.38004 0.0
C912 C 0.07212 0.71433 0.3222 0.0
N913 N 0.09506 0.70278 0.30315 0.0
C914 C 0.07922 0.72126 0.30345 0.0
C915 C 0.07688 0.70172 0.33138 0.0
C916 C 0.09075 0.71521 0.29404 0.0
C917 C 0.08843 0.69599 0.32147 0.0
C918 C 0.00592 0.70386 0.3016 0.0
C919 C 0.0053 0.69341 0.28357 0.0
C920 C 0.99359 0.71137 0.30286 0.0
C921 C 0.99269 0.69103 0.26692 0.0
C922 C 0.98117 0.70866 0.28588 0.0
N923 N 0.981 0.69866 0.2684 0.0
C924 C 0.01756 0.65612 0.32601 0.0
C925 C 0.03685 0.67191 0.29904 0.0
C926 C 0.01258 0.63797 0.31666 0.0
N927 N 0.0295 0.6726 0.31712 0.0
C928 C 0.0325 0.65409 0.28931 0.0
C929 C 0.02001 0.63679 0.29799 0.0
H930 H 0.01164 0.65709 0.34021 0.0
H931 H 0.04588 0.68517 0.29199 0.0
C932 C 0.0665 0.7675 0.31123 0.0
N933 N 0.05318 0.7488 0.30474 0.0
C934 C 0.07637 0.78092 0.29702 0.0
C935 C 0.0582 0.75569 0.26979 0.0
C936 C 0.04871 0.74278 0.28449 0.0
C937 C 0.0725 0.77492 0.27602 0.0
H938 H 0.07008 0.77175 0.32745 0.0
H939 H 0.03858 0.72774 0.27973 0.0
O940 O 0.02687 0.69534 0.35852 0.0
O941 O 0.04071 0.73902 0.35269 0.0
O942 O 0.06072 0.72002 0.33158 0.0
O943 O 0.01799 0.70606 0.31815 0.0
H944 H 0.01159 0.69857 0.39238 0.0
H945 H 0.04659 0.67775 0.36627 0.0
H946 H 0.01629 0.68775 0.42585 0.0
H947 H 0.05085 0.66747 0.40026 0.0
H948 H 0.01423 0.77338 0.3283 0.0
H949 H 0.04798 0.76233 0.38602 0.0
H950 H 0.02303 0.74789 0.32382 0.0
H951 H 0.0389 0.78773 0.3894 0.0
H952 H 0.06875 0.74266 0.43148 0.0
H953 H 0.11274 0.74002 0.39853 0.0
H954 H 0.94793 0.66979 0.35178 0.0
H955 H 0.97565 0.71985 0.39597 0.0
H956 H 0.07584 0.73116 0.29621 0.0
H957 H 0.07166 0.69637 0.34595 0.0
H958 H 0.09627 0.72039 0.27948 0.0
H959 H 0.09214 0.68615 0.32835 0.0
H960 H 0.01459 0.68733 0.28238 0.0
H961 H 0.99344 0.71901 0.31685 0.0
H962 H 0.99219 0.6831 0.25283 0.0
H963 H 0.9716 0.71443 0.28664 0.0
H964 H 0.00279 0.62498 0.32379 0.0
H965 H 0.0389 0.65389 0.27519 0.0
H966 H 0.08761 0.7955 0.30246 0.0
H967 H 0.05491 0.7505 0.25373 0.0
Li968 Li 0.28784 0.34774 0.40189 0.0
Li969 Li 0.29783 0.32624 0.38873 0.0
Li970 Li 0.31273 0.35759 0.37709 0.0
Li971 Li 0.2784 0.33242 0.36486 0.0
C972 C 0.32548 0.36742 0.41839 0.0
N973 N 0.34858 0.40057 0.44408 0.0
C974 C 0.33522 0.36648 0.43606 0.0
C975 C 0.32756 0.38524 0.41376 0.0
C976 C 0.3468 0.38339 0.44887 0.0
C977 C 0.33929 0.40183 0.42694 0.0
C978 C 0.26163 0.30328 0.40021 0.0
C979 C 0.2376 0.26927 0.39923 0.0
N980 N 0.2433 0.26895 0.41897 0.0
C981 C 0.26718 0.30268 0.42052 0.0
C982 C 0.24668 0.2865 0.38947 0.0
C983 C 0.25777 0.28515 0.42971 0.0
C984 C 0.26394 0.35889 0.42162 0.0
N985 N 0.27831 0.35486 0.4247 0.0
C986 C 0.27624 0.35641 0.4609 0.0
C987 C 0.28466 0.35375 0.44384 0.0
C988 C 0.26106 0.36013 0.45821 0.0
C989 C 0.25508 0.36165 0.43828 0.0
H990 H 0.25889 0.35923 0.40618 0.0
H991 H 0.29575 0.35002 0.44585 0.0
C992 C 0.32152 0.31456 0.40704 0.0
N993 N 0.30401 0.30717 0.39657 0.0
C994 C 0.32749 0.30219 0.41429 0.0
C995 C 0.29759 0.27473 0.39928 0.0
C996 C 0.29222 0.28767 0.39219 0.0
C997 C 0.31532 0.28209 0.4106 0.0
H998 H 0.33081 0.33011 0.40989 0.0
H999 H 0.27861 0.28213 0.38336 0.0
C1000 C 0.28875 0.37543 0.36819 0.0
N1001 N 0.28707 0.40602 0.3523 0.0
C1002 C 0.28562 0.37549 0.34706 0.0
C1003 C 0.29074 0.39082 0.38125 0.0
C1004 C 0.2849 0.39112 0.33932 0.0
C1005 C 0.28993 0.40618 0.37292 0.0
C1006 C 0.30714 0.31953 0.35311 0.0
C1007 C 0.32627 0.32388 0.35496 0.0
C1008 C 0.29271 0.3012 0.34464 0.0
C1009 C 0.33063 0.30972 0.34842 0.0
C1010 C 0.29767 0.28746 0.33825 0.0
N1011 N 0.31636 0.29196 0.34027 0.0
C1012 C 0.35266 0.37827 0.37554 0.0
C1013 C 0.33607 0.38676 0.35126 0.0
C1014 C 0.36987 0.38907 0.36639 0.0
N1015 N 0.33616 0.37701 0.36763 0.0
C1016 C 0.35298 0.39785 0.34171 0.0
C1017 C 0.36998 0.39855 0.3489 0.0
H1018 H 0.35222 0.36997 0.38826 0.0
H1019 H 0.32272 0.38507 0.34486 0.0
C1020 C 0.24177 0.32018 0.34402 0.0
N1021 N 0.26007 0.32406 0.34206 0.0
C1022 C 0.22934 0.31616 0.32656 0.0
C1023 C 0.25477 0.31981 0.30563 0.0
C1024 C 0.26663 0.3237 0.3234 0.0
C1025 C 0.23597 0.31626 0.30707 0.0
H1026 H 0.23706 0.32082 0.35909 0.0
H1027 H 0.28135 0.32713 0.32232 0.0
O1028 O 0.314 0.35089 0.40582 0.0
O1029 O 0.2707 0.32024 0.39088 0.0
O1030 O 0.28911 0.36007 0.3761 0.0
O1031 O 0.30252 0.33303 0.35984 0.0
H1032 H 0.33373 0.35279 0.43992 0.0
H1033 H 0.32039 0.38632 0.40007 0.0
H1034 H 0.35436 0.38285 0.46263 0.0
H1035 H 0.34103 0.41571 0.4235 0.0
H1036 H 0.22605 0.25614 0.39111 0.0
H1037 H 0.27881 0.31553 0.42896 0.0
H1038 H 0.24222 0.28679 0.37374 0.0
H1039 H 0.26201 0.28442 0.44537 0.0
H1040 H 0.28119 0.35506 0.47601 0.0
H1041 H 0.24312 0.36403 0.43553 0.0
H1042 H 0.34127 0.30822 0.42303 0.0
H1043 H 0.28793 0.25921 0.39624 0.0
H1044 H 0.28402 0.36373 0.33672 0.0
H1045 H 0.29284 0.39089 0.39767 0.0
H1046 H 0.28263 0.3914 0.32299 0.0
H1047 H 0.29152 0.4182 0.38285 0.0
H1048 H 0.33759 0.33796 0.36155 0.0
H1049 H 0.27781 0.29754 0.34331 0.0
H1050 H 0.34536 0.31285 0.34985 0.0
H1051 H 0.28664 0.27318 0.33178 0.0
H1052 H 0.38277 0.38941 0.37241 0.0
H1053 H 0.35252 0.40484 0.32813 0.0
H1054 H 0.21503 0.31379 0.32825 0.0
H1055 H 0.26037 0.32 0.29086 0.0
Li1056 Li 0.3237 0.01557 0.67737 0.0
Li1057 Li 0.35482 0.03377 0.69684 0.0
Li1058 Li 0.32947 0.04133 0.70263 0.0
Li1059 Li 0.34653 0.04939 0.67151 0.0
C1060 C 0.32164 0.0121 0.72535 0.0
N1061 N 0.30627 0.00367 0.76289 0.0
C1062 C 0.3336 0.01565 0.74306 0.0
C1063 C 0.30186 0.00417 0.72672 0.0
C1064 C 0.32555 0.0113 0.7619 0.0
C1065 C 0.29437 4e-05 0.74584 0.0
C1066 C 0.36178 0.01982 0.66379 0.0
C1067 C 0.39395 0.02564 0.66092 0.0
N1068 N 0.38694 0.00614 0.65971 0.0
C1069 C 0.35487 -0.00017 0.66242 0.0
C1070 C 0.38146 0.03285 0.66292 0.0
C1071 C 0.36783 0.9932 0.66038 0.0
C1072 C 0.30127 0.98781 0.64433 0.0
N1073 N 0.30525 0.99064 0.66499 0.0
C1074 C 0.28318 0.95712 0.66872 0.0
C1075 C 0.29678 0.97572 0.67717 0.0
C1076 C 0.27818 0.95391 0.64753 0.0
C1077 C 0.28758 0.96947 0.63524 0.0
H1078 H 0.3087 -0.00019 0.63495 0.0
H1079 H 0.30071 0.97823 0.69345 0.0
C1080 C 0.39111 0.0463 0.71829 0.0
N1081 N 0.3741 0.03068 0.71062 0.0
C1082 C 0.40427 0.04362 0.73015 0.0
C1083 C 0.38219 0.00888 0.72573 0.0
C1084 C 0.36951 0.01222 0.71393 0.0
C1085 C 0.39967 0.02473 0.73427 0.0
H1086 H 0.39423 0.06082 0.71565 0.0
H1087 H 0.35574 0.00012 0.70782 0.0
C1088 C 0.3022 0.02892 0.66153 0.0
N1089 N 0.26924 0.01103 0.63515 0.0
C1090 C 0.3033 0.03213 0.64074 0.0
C1091 C 0.28432 0.01675 0.66894 0.0
C1092 C 0.28647 0.02294 0.62765 0.0
C1093 C 0.26783 0.00778 0.65534 0.0
C1094 C 0.36817 0.07891 0.69831 0.0
C1095 C 0.36139 0.09131 0.70421 0.0
C1096 C 0.38588 0.08646 0.68974 0.0
C1097 C 0.3724 0.11107 0.70125 0.0
C1098 C 0.39644 0.10631 0.687 0.0
N1099 N 0.38954 0.1181 0.69276 0.0
C1100 C 0.32786 0.05552 0.74178 0.0
C1101 C 0.304 0.05312 0.71736 0.0
C1102 C 0.32157 0.06346 0.75684 0.0
N1103 N 0.31896 0.05042 0.72257 0.0
C1104 C 0.29746 0.06137 0.7319 0.0
C1105 C 0.30637 0.06666 0.75185 0.0
H1106 H 0.34014 0.05384 0.74525 0.0
H1107 H 0.2975 0.04933 0.70183 0.0
C1108 C 0.36555 0.06746 0.63628 0.0
N1109 N 0.35475 0.06773 0.65152 0.0
C1110 C 0.36984 0.08019 0.62085 0.0
C1111 C 0.35222 0.09341 0.63744 0.0
C1112 C 0.34815 0.08037 0.65241 0.0
C1113 C 0.3629 0.09318 0.62124 0.0
H1114 H 0.37041 0.05707 0.63585 0.0
H1115 H 0.33927 0.07995 0.6645 0.0
O1116 O 0.32926 0.01645 0.70677 0.0
O1117 O 0.34939 0.02661 0.66624 0.0
O1118 O 0.31853 0.03759 0.67456 0.0
O1119 O 0.35744 0.05945 0.70072 0.0
H1120 H 0.34896 0.02193 0.74235 0.0
H1121 H 0.2924 0.00133 0.71318 0.0
H1122 H 0.33464 0.01406 0.77574 0.0
H1123 H 0.2791 0.99398 0.74714 0.0
H1124 H 0.40924 0.03556 0.66037 0.0
H1125 H 0.33969 0.98955 0.66311 0.0
H1126 H 0.38704 0.04836 0.66402 0.0
H1127 H 0.3627 0.97777 0.65941 0.0
H1128 H 0.27677 0.94537 0.67864 0.0
H1129 H 0.28421 0.96754 0.61882 0.0
H1130 H 0.41763 0.05618 0.73654 0.0
H1131 H 0.37831 0.99409 0.7283 0.0
H1132 H 0.31701 0.04145 0.63472 0.0
H1133 H 0.28322 0.01415 0.68498 0.0
H1134 H 0.28711 0.02521 0.61151 0.0
H1135 H 0.25392 0.99823 0.66084 0.0
H1136 H 0.34769 0.08572 0.71082 0.0
H1137 H 0.39129 0.07706 0.68501 0.0
H1138 H 0.36729 0.12082 0.70565 0.0
H1139 H 0.4101 0.11233 0.68025 0.0
H1140 H 0.32894 0.06769 0.77203 0.0
H1141 H 0.28575 0.06379 0.72759 0.0
H1142 H 0.37823 0.07971 0.60861 0.0
H1143 H 0.34646 0.10308 0.63811 0.0
Li1144 Li 0.98357 0.29097 0.71898 0.0
Li1145 Li 0.96815 0.30747 0.73374 0.0
Li1146 Li 0.95809 0.27275 0.74117 0.0
Li1147 Li 0.95045 0.28002 0.70754 0.0
C1148 C 0.00082 0.30195 0.75575 0.0
N1149 N 0.03773 0.31142 0.76893 0.0
C1150 C 0.01532 0.32144 0.75933 0.0
C1151 C 0.00501 0.28727 0.759 0.0
C1152 C 0.03392 0.32593 0.76596 0.0
C1153 C 0.02379 0.29236 0.76563 0.0
C1154 C 0.97213 0.31818 0.69231 0.0
C1155 C 0.95304 0.32968 0.67533 0.0
N1156 N 0.96897 0.34318 0.66682 0.0
C1157 C 0.98826 0.33206 0.68323 0.0
C1158 C 0.95434 0.3169 0.6882 0.0
C1159 C 0.98639 0.34461 0.67046 0.0
C1160 C 0.0113 0.28229 0.70379 0.0
N1161 N 0.00781 0.29658 0.71021 0.0
C1162 C 0.03839 0.32106 0.70059 0.0
C1163 C 0.02102 0.31566 0.70911 0.0
C1164 C 0.04223 0.30664 0.69323 0.0
C1165 C 0.02855 0.28704 0.69518 0.0
H1166 H 0.0005 0.26723 0.70486 0.0
H1167 H 0.01777 0.32667 0.71432 0.0
C1168 C 0.97317 0.33226 0.7674 0.0
N1169 N 0.97251 0.33132 0.74661 0.0
C1170 C 0.9771 0.34934 0.77861 0.0
C1171 C 0.97938 0.36411 0.74676 0.0
C1172 C 0.97558 0.34681 0.73619 0.0
C1173 C 0.98019 0.36552 0.76824 0.0
H1174 H 0.9709 0.31977 0.77527 0.0
H1175 H 0.9752 0.34592 0.71973 0.0
C1176 C 0.94898 0.24436 0.70881 0.0
N1177 N 0.92234 0.20564 0.6981 0.0
C1178 C 0.93022 0.23628 0.71477 0.0
C1179 C 0.95418 0.23276 0.69731 0.0
C1180 C 0.91696 0.21668 0.70924 0.0
C1181 C 0.94051 0.21321 0.69207 0.0
C1182 C 0.92485 0.28379 0.73551 0.0
C1183 C 0.90885 0.26722 0.74169 0.0
C1184 C 0.92336 0.30004 0.73154 0.0
C1185 C 0.8915 0.26698 0.74313 0.0
C1186 C 0.90576 0.29923 0.73317 0.0
N1187 N 0.89031 0.28284 0.73884 0.0
C1188 C 0.9401 0.26082 0.77667 0.0
C1189 C 0.9484 0.23846 0.76225 0.0
C1190 C 0.93062 0.24849 0.79177 0.0
N1191 N 0.94837 0.25547 0.76209 0.0
C1192 C 0.93906 0.22563 0.77717 0.0
C1193 C 0.92971 0.23048 0.79195 0.0
H1194 H 0.94041 0.27449 0.77616 0.0
H1195 H 0.95526 0.23465 0.75055 0.0
C1196 C 0.94029 0.27316 0.66576 0.0
N1197 N 0.93245 0.26972 0.68411 0.0
C1198 C 0.9285 0.26583 0.64758 0.0
C1199 C 0.90072 0.25109 0.66747 0.0
C1200 C 0.91307 0.25896 0.68532 0.0
C1201 C 0.90849 0.25452 0.64835 0.0
H1202 H 0.95576 0.2815 0.66528 0.0
H1203 H 0.90719 0.25618 0.70007 0.0
O1204 O 0.98268 0.29725 0.74874 0.0
O1205 O 0.97374 0.30568 0.70471 0.0
O1206 O 0.96217 0.26359 0.71386 0.0
O1207 O 0.94208 0.28441 0.73432 0.0
H1208 H 0.01227 0.33295 0.75681 0.0
H1209 H 0.99391 0.27211 0.75621 0.0
H1210 H 0.04533 0.34094 0.76869 0.0
H1211 H 0.02729 0.28116 0.7681 0.0
H1212 H 0.93936 0.32883 0.67206 0.0
H1213 H 0.0021 0.33315 0.68597 0.0
H1214 H 0.94162 0.30606 0.69471 0.0
H1215 H 0.99879 0.35546 0.66341 0.0
H1216 H 0.04833 0.3363 0.69899 0.0
H1217 H 0.03102 0.27551 0.6897 0.0
H1218 H 0.97804 0.34997 0.79517 0.0
H1219 H 0.98162 0.37625 0.73821 0.0
H1220 H 0.92596 0.24506 0.72356 0.0
H1221 H 0.96862 0.23881 0.69243 0.0
H1222 H 0.90239 0.21026 0.7138 0.0
H1223 H 0.94435 0.20406 0.68318 0.0
H1224 H 0.90976 0.25464 0.74536 0.0
H1225 H 0.93568 0.31324 0.72744 0.0
H1226 H 0.87899 0.25419 0.74774 0.0
H1227 H 0.9044 0.31168 0.73002 0.0
H1228 H 0.92354 0.25274 0.80282 0.0
H1229 H 0.93901 0.21204 0.77705 0.0
H1230 H 0.93496 0.26856 0.63307 0.0
H1231 H 0.88532 0.24239 0.66857 0.0
Li1232 Li 0.70656 0.67785 0.6813 0.0
Li1233 Li 0.69244 0.64479 0.69291 0.0
Li1234 Li 0.72691 0.67044 0.70344 0.0
Li1235 Li 0.71775 0.65514 0.66855 0.0
C1236 C 0.69677 0.68017 0.72117 0.0
N1237 N 0.68444 0.70106 0.74435 0.0
C1238 C 0.67782 0.67117 0.72681 0.0
C1239 C 0.70949 0.69974 0.72753 0.0
C1240 C 0.67185 0.68199 0.73848 0.0
C1241 C 0.70297 0.71007 0.73918 0.0
C1242 C 0.67643 0.64059 0.65141 0.0
C1243 C 0.65797 0.61093 0.62954 0.0
N1244 N 0.64498 0.61643 0.62443 0.0
C1245 C 0.663 0.64604 0.6458 0.0
C1246 C 0.674 0.62297 0.64311 0.0
C1247 C 0.64715 0.63359 0.6322 0.0
C1248 C 0.71085 0.70934 0.65998 0.0
N1249 N 0.69997 0.69637 0.67333 0.0
C1250 C 0.67768 0.70778 0.67242 0.0
C1251 C 0.68361 0.69531 0.67954 0.0
C1252 C 0.68843 0.72101 0.65837 0.0
C1253 C 0.70526 0.72186 0.65218 0.0
H1254 H 0.72356 0.70956 0.65497 0.0
H1255 H 0.67477 0.68433 0.68942 0.0
C1256 C 0.67211 0.61894 0.7215 0.0
N1257 N 0.66975 0.62497 0.70314 0.0
C1258 C 0.65615 0.60746 0.73226 0.0
C1259 C 0.63559 0.60784 0.70455 0.0
C1260 C 0.65195 0.61944 0.6944 0.0
C1261 C 0.63768 0.60225 0.72399 0.0
H1262 H 0.68648 0.62388 0.72823 0.0
H1263 H 0.65041 0.62487 0.68015 0.0
C1264 C 0.75127 0.69916 0.68061 0.0
N1265 N 0.78804 0.73097 0.68727 0.0
C1266 C 0.76696 0.69805 0.674 0.0
C1267 C 0.75422 0.71652 0.69029 0.0
C1268 C 0.78546 0.71427 0.6776 0.0
C1269 C 0.77294 0.73243 0.6936 0.0
C1270 C 0.71634 0.62564 0.69167 0.0
C1271 C 0.73304 0.62531 0.69754 0.0
C1272 C 0.69993 0.60856 0.68345 0.0
C1273 C 0.73318 0.60794 0.69461 0.0
C1274 C 0.70063 0.59147 0.68078 0.0
N1275 N 0.71711 0.59152 0.68634 0.0
C1276 C 0.74178 0.68264 0.74439 0.0
C1277 C 0.76354 0.68087 0.72244 0.0
C1278 C 0.75474 0.68718 0.76139 0.0
N1279 N 0.74632 0.67949 0.72542 0.0
C1280 C 0.77702 0.68553 0.73902 0.0
C1281 C 0.77249 0.68834 0.75888 0.0
H1282 H 0.72779 0.68088 0.74645 0.0
H1283 H 0.76657 0.67772 0.7073 0.0
C1284 C 0.72022 0.64888 0.62641 0.0
N1285 N 0.72715 0.64825 0.64546 0.0
C1286 C 0.72869 0.64662 0.60914 0.0
C1287 C 0.75108 0.64286 0.63141 0.0
C1288 C 0.74216 0.64515 0.64823 0.0
C1289 C 0.74462 0.64405 0.61161 0.0
H1290 H 0.70864 0.65194 0.62465 0.0
H1291 H 0.74782 0.64538 0.66353 0.0
O1292 O 0.70286 0.66979 0.70975 0.0
O1293 O 0.69202 0.65264 0.6647 0.0
O1294 O 0.73306 0.68343 0.67724 0.0
O1295 O 0.71594 0.6425 0.69458 0.0
H1296 H 0.66779 0.65602 0.72213 0.0
H1297 H 0.72428 0.70683 0.72362 0.0
H1298 H 0.65721 0.67523 0.74287 0.0
H1299 H 0.71265 0.72524 0.74415 0.0
H1300 H 0.6559 0.59724 0.62301 0.0
H1301 H 0.66473 0.65969 0.65198 0.0
H1302 H 0.68448 0.61874 0.64689 0.0
H1303 H 0.63659 0.63758 0.62781 0.0
H1304 H 0.66446 0.7066 0.6772 0.0
H1305 H 0.71378 0.73189 0.64124 0.0
H1306 H 0.65825 0.60325 0.74717 0.0
H1307 H 0.62155 0.6042 0.69782 0.0
H1308 H 0.7649 0.68477 0.66631 0.0
H1309 H 0.74219 0.71775 0.69507 0.0
H1310 H 0.79776 0.71358 0.67271 0.0
H1311 H 0.77545 0.74594 0.70115 0.0
H1312 H 0.7458 0.63838 0.70417 0.0
H1313 H 0.68674 0.60843 0.67935 0.0
H1314 H 0.74604 0.6075 0.69893 0.0
H1315 H 0.68805 0.57815 0.67437 0.0
H1316 H 0.75056 0.68895 0.77646 0.0
H1317 H 0.79063 0.68649 0.73639 0.0
H1318 H 0.72344 0.6478 0.59411 0.0
H1319 H 0.76324 0.64074 0.6339 0.0
Li1320 Li 0.34636 0.31963 0.72371 0.0
Li1321 Li 0.32268 0.28642 0.72861 0.0
Li1322 Li 0.33968 0.29351 0.69771 0.0
Li1323 Li 0.31583 0.3031 0.70233 0.0
C1324 C 0.36993 0.30352 0.72666 0.0
N1325 N 0.40875 0.31605 0.72709 0.0
C1326 C 0.37811 0.29604 0.73996 0.0
C1327 C 0.38149 0.31736 0.71353 0.0
C1328 C 0.39777 0.30257 0.73997 0.0
C1329 C 0.40109 0.3235 0.71399 0.0
C1330 C 0.32035 0.31692 0.75171 0.0
C1331 C 0.31017 0.33305 0.77583 0.0
N1332 N 0.32182 0.33221 0.79088 0.0
C1333 C 0.33225 0.31624 0.76738 0.0
C1334 C 0.30926 0.32542 0.7559 0.0
C1335 C 0.33278 0.32405 0.7871 0.0
C1336 C 0.36367 0.35981 0.73096 0.0
N1337 N 0.36469 0.34427 0.7369 0.0
C1338 C 0.39047 0.36454 0.76199 0.0
C1339 C 0.37761 0.34622 0.75221 0.0
C1340 C 0.38996 0.3809 0.75594 0.0
C1341 C 0.37627 0.37838 0.7403 0.0
H1342 H 0.35291 0.3577 0.71907 0.0
H1343 H 0.37783 0.33357 0.75697 0.0
C1344 C 0.31743 0.25329 0.7453 0.0
N1345 N 0.31268 0.2673 0.74786 0.0
C1346 C 0.31273 0.23947 0.75954 0.0
C1347 C 0.29793 0.25449 0.77861 0.0
C1348 C 0.30261 0.26783 0.76376 0.0
C1349 C 0.30332 0.24033 0.77669 0.0
H1350 H 0.3254 0.25324 0.73247 0.0
H1351 H 0.29865 0.27888 0.76525 0.0
C1352 C 0.34439 0.32657 0.67538 0.0
N1353 N 0.34876 0.34185 0.6378 0.0
C1354 C 0.33224 0.31513 0.6583 0.0
C1355 C 0.35882 0.34572 0.67335 0.0
C1356 C 0.33465 0.32315 0.63944 0.0
C1357 C 0.3608 0.35319 0.65422 0.0
C1358 C 0.29258 0.26267 0.69984 0.0
C1359 C 0.28487 0.24528 0.68744 0.0
C1360 C 0.28068 0.26599 0.71225 0.0
C1361 C 0.26531 0.2315 0.68759 0.0
C1362 C 0.2612 0.25185 0.71196 0.0
N1363 N 0.25398 0.23504 0.69974 0.0
C1364 C 0.34476 0.26429 0.68017 0.0
C1365 C 0.35936 0.29287 0.6624 0.0
C1366 C 0.34915 0.25435 0.66525 0.0
N1367 N 0.34953 0.28304 0.67825 0.0
C1368 C 0.36372 0.28338 0.64693 0.0
C1369 C 0.35824 0.26379 0.64815 0.0
H1370 H 0.33693 0.25687 0.69295 0.0
H1371 H 0.36332 0.30786 0.66138 0.0
C1372 C 0.29932 0.32544 0.6926 0.0
N1373 N 0.29778 0.30789 0.68816 0.0
C1374 C 0.28758 0.33063 0.68165 0.0
C1375 C 0.27278 0.2995 0.66188 0.0
C1376 C 0.28489 0.29496 0.67311 0.0
C1377 C 0.2741 0.31755 0.66609 0.0
H1378 H 0.30995 0.33554 0.70442 0.0
H1379 H 0.28434 0.28134 0.66945 0.0
O1380 O 0.3507 0.29724 0.72663 0.0
O1381 O 0.31981 0.3097 0.7322 0.0
O1382 O 0.34232 0.31913 0.69405 0.0
O1383 O 0.31173 0.2762 0.69985 0.0
H1384 H 0.36933 0.28532 0.75021 0.0
H1385 H 0.37549 0.32337 0.70314 0.0
H1386 H 0.40429 0.29692 0.75022 0.0
H1387 H 0.4102 0.33421 0.70394 0.0
H1388 H 0.30165 0.33965 0.77932 0.0
H1389 H 0.34095 0.30973 0.76434 0.0
H1390 H 0.30005 0.32612 0.74388 0.0
H1391 H 0.34192 0.32362 0.79939 0.0
H1392 H 0.4008 0.36592 0.77405 0.0
H1393 H 0.37514 0.39059 0.73554 0.0
H1394 H 0.31717 0.22877 0.75769 0.0
H1395 H 0.29057 0.25544 0.79166 0.0
H1396 H 0.3212 0.30018 0.65958 0.0
H1397 H 0.36846 0.3547 0.6864 0.0
H1398 H 0.32534 0.31449 0.62608 0.0
H1399 H 0.37192 0.36798 0.65241 0.0
H1400 H 0.29392 0.24249 0.6778 0.0
H1401 H 0.28636 0.27933 0.72197 0.0
H1402 H 0.25914 0.21798 0.67805 0.0
H1403 H 0.25182 0.25423 0.72146 0.0
H1404 H 0.34465 0.2392 0.66653 0.0
H1405 H 0.37082 0.29105 0.6339 0.0
H1406 H 0.28901 0.3447 0.68528 0.0
H1407 H 0.26284 0.28922 0.6497 0.0
Li1408 Li 0.68938 0.04705 0.68002 0.0
Li1409 Li 0.72168 0.05227 0.68904 0.0
Li1410 Li 0.71361 0.06081 0.6552 0.0
Li1411 Li 0.70103 0.02681 0.66145 0.0
C1412 C 0.71176 0.08668 0.69053 0.0
N1413 N 0.70579 0.11594 0.70575 0.0
C1414 C 0.72076 0.09684 0.70944 0.0
C1415 C 0.69985 0.0915 0.67929 0.0
C1416 C 0.71752 0.11156 0.71689 0.0
C1417 C 0.69698 0.10631 0.68726 0.0
C1418 C 0.69466 0.01741 0.7066 0.0
C1419 C 0.69811 0.99214 0.72137 0.0
N1420 N 0.69077 0.99482 0.7387 0.0
C1421 C 0.68686 0.01968 0.72444 0.0
C1422 C 0.70009 0.00334 0.70494 0.0
C1423 C 0.68514 0.00823 0.74055 0.0
C1424 C 0.64983 0.03289 0.68341 0.0
N1425 N 0.6678 0.04558 0.69214 0.0
C1426 C 0.65485 0.05233 0.72138 0.0
C1427 C 0.67056 0.05534 0.71069 0.0
C1428 C 0.6361 0.03883 0.71312 0.0
C1429 C 0.63366 0.02923 0.69372 0.0
H1430 H 0.6481 0.02496 0.66886 0.0
H1431 H 0.68496 0.06475 0.71769 0.0
C1432 C 0.75889 0.06607 0.7103 0.0
N1433 N 0.73997 0.06008 0.71201 0.0
C1434 C 0.77174 0.07256 0.72782 0.0
C1435 C 0.74543 0.06681 0.74832 0.0
C1436 C 0.73317 0.06052 0.7305 0.0
C1437 C 0.765 0.07303 0.74711 0.0
H1438 H 0.76408 0.06613 0.69537 0.0
H1439 H 0.71829 0.05652 0.73133 0.0
C1440 C 0.67954 0.0404 0.63167 0.0
N1441 N 0.66572 0.04369 0.5937 0.0
C1442 C 0.68136 0.03095 0.61415 0.0
C1443 C 0.67034 0.05119 0.62995 0.0
C1444 C 0.67439 0.0329 0.59507 0.0
C1445 C 0.66353 0.05277 0.6106 0.0
C1446 C 0.74065 0.04067 0.65802 0.0
C1447 C 0.75078 0.04471 0.64042 0.0
C1448 C 0.74298 0.02944 0.67227 0.0
C1449 C 0.76286 0.03716 0.63725 0.0
C1450 C 0.7552 0.02217 0.66856 0.0
N1451 N 0.76479 0.02612 0.65125 0.0
C1452 C 0.7308 0.09766 0.63826 0.0
C1453 C 0.7258 0.07091 0.6161 0.0
C1454 C 0.74004 0.11045 0.62333 0.0
N1455 N 0.72395 0.0783 0.63441 0.0
C1456 C 0.73484 0.08313 0.60072 0.0
C1457 C 0.74224 0.1032 0.60433 0.0
H1458 H 0.72968 0.1033 0.65312 0.0
H1459 H 0.72088 0.05558 0.61371 0.0
C1460 C 0.67658 0.98646 0.65557 0.0
N1461 N 0.69282 0.00157 0.64923 0.0
C1462 C 0.66964 0.96757 0.64691 0.0
C1463 C 0.69617 0.98021 0.62521 0.0
C1464 C 0.7025 0.99885 0.63416 0.0
C1465 C 0.67954 0.96433 0.63157 0.0
H1466 H 0.66905 0.98911 0.66741 0.0
H1467 H 0.71498 0.01114 0.6289 0.0
O1468 O 0.71453 0.07203 0.68316 0.0
O1469 O 0.69627 0.02839 0.69058 0.0
O1470 O 0.68632 0.03871 0.65047 0.0
O1471 O 0.72858 0.04775 0.6612 0.0
H1472 H 0.73011 0.09337 0.7183 0.0
H1473 H 0.69295 0.0839 0.66457 0.0
H1474 H 0.72434 0.1195 0.73154 0.0
H1475 H 0.68776 0.11015 0.67874 0.0
H1476 H 0.70232 0.98125 0.72029 0.0
H1477 H 0.68231 0.03028 0.72592 0.0
H1478 H 0.70556 0.00088 0.69105 0.0
H1479 H 0.67929 0.00998 0.7545 0.0
H1480 H 0.65738 0.06003 0.73629 0.0
H1481 H 0.61949 0.01835 0.68701 0.0
H1482 H 0.78675 0.07724 0.72629 0.0
H1483 H 0.73977 0.06734 0.76287 0.0
H1484 H 0.68827 0.02238 0.61525 0.0
H1485 H 0.66833 0.05815 0.64341 0.0
H1486 H 0.67587 0.02582 0.58136 0.0
H1487 H 0.65646 0.06115 0.60902 0.0
H1488 H 0.74925 0.05349 0.62928 0.0
H1489 H 0.73565 0.0266 0.68618 0.0
H1490 H 0.77071 0.04008 0.62365 0.0
H1491 H 0.75712 0.01344 0.67947 0.0
H1492 H 0.74577 0.12589 0.62672 0.0
H1493 H 0.73676 0.07705 0.5865 0.0
H1494 H 0.65686 0.95562 0.65232 0.0
H1495 H 0.70405 0.97823 0.61326 0.0
Li1496 Li 0.95066 0.68052 0.73191 0.0
Li1497 Li 0.95786 0.65648 0.71893 0.0
Li1498 Li 0.97539 0.68883 0.70743 0.0
Li1499 Li 0.94069 0.66574 0.6949 0.0
C1500 C 0.98584 0.69257 0.75247 0.0
N1501 N 0.00673 0.71602 0.7873 0.0
C1502 C 0.98738 0.68427 0.7702 0.0
C1503 C 0.99509 0.71278 0.75237 0.0
C1504 C 0.99795 0.69637 0.78768 0.0
C1505 C 0.00554 0.72439 0.77015 0.0
C1506 C 0.91866 0.63498 0.72492 0.0
C1507 C 0.89279 0.60263 0.71375 0.0
N1508 N 0.8916 0.59781 0.73345 0.0
C1509 C 0.91711 0.62975 0.74508 0.0
C1510 C 0.90636 0.62136 0.70912 0.0
C1511 C 0.90336 0.61086 0.74907 0.0
C1512 C 0.93423 0.70012 0.75261 0.0
N1513 N 0.94222 0.68879 0.75486 0.0
C1514 C 0.9343 0.68484 0.78964 0.0
C1515 C 0.94261 0.68136 0.77296 0.0
C1516 C 0.92534 0.69591 0.78761 0.0
C1517 C 0.92575 0.704 0.76895 0.0
H1518 H 0.93385 0.70559 0.73794 0.0
H1519 H 0.94867 0.67206 0.7742 0.0
C1520 C 0.98079 0.64268 0.7338 0.0
N1521 N 0.9623 0.63623 0.72674 0.0
C1522 C 0.98617 0.62972 0.74063 0.0
C1523 C 0.95339 0.60355 0.73266 0.0
C1524 C 0.94874 0.617 0.72554 0.0
C1525 C 0.97232 0.60989 0.74044 0.0
H1526 H 0.99141 0.65798 0.73415 0.0
H1527 H 0.93431 0.612 0.71924 0.0
C1528 C 0.9577 0.71118 0.69957 0.0
N1529 N 0.96687 0.74678 0.68585 0.0
C1530 C 0.95251 0.7124 0.67931 0.0
C1531 C 0.96723 0.72801 0.71294 0.0
C1532 C 0.95737 0.73055 0.67264 0.0
C1533 C 0.97183 0.74589 0.70568 0.0
C1534 C 0.96765 0.64995 0.68354 0.0
C1535 C 0.98668 0.65403 0.68424 0.0
C1536 C 0.95266 0.63136 0.67656 0.0
C1537 C 0.9904 0.63932 0.67807 0.0
C1538 C 0.95697 0.61706 0.67053 0.0
N1539 N 0.9756 0.62129 0.67142 0.0
C1540 C 0.01589 0.70953 0.70751 0.0
C1541 C -0.00036 0.71634 0.68112 0.0
C1542 C 0.03352 0.72086 0.69922 0.0
N1543 N 0.99943 0.70745 0.69833 0.0
C1544 C 0.01694 0.728 0.6725 0.0
C1545 C 0.0341 0.73014 0.68143 0.0
H1546 H 0.01522 0.70174 0.72078 0.0
H1547 H 0.98632 0.71367 0.67351 0.0
C1548 C 0.90564 0.65768 0.67355 0.0
N1549 N 0.92296 0.6589 0.67194 0.0
C1550 C 0.89373 0.65456 0.65591 0.0
C1551 C 0.9176 0.6536 0.63555 0.0
C1552 C 0.92899 0.65671 0.6535 0.0
C1553 C 0.89994 0.65294 0.63663 0.0
H1554 H 0.90134 0.65966 0.68846 0.0
H1555 H 0.94293 0.65794 0.65271 0.0
O1556 O 0.97548 0.68091 0.73527 0.0
O1557 O 0.93179 0.65346 0.72071 0.0
O1558 O 0.95301 0.69351 0.70635 0.0
O1559 O 0.96367 0.66395 0.69014 0.0
H1560 H 0.98036 0.66863 0.77048 0.0
H1561 H 0.99432 0.71943 0.73868 0.0
H1562 H 0.99917 0.69014 0.80155 0.0
H1563 H 0.01275 0.74006 0.7703 0.0
H1564 H 0.88323 0.59193 0.70167 0.0
H1565 H 0.92649 0.64009 0.75748 0.0
H1566 H 0.90734 0.62518 0.69344 0.0
H1567 H 0.90206 0.60658 0.76458 0.0
H1568 H 0.93413 0.6782 0.8037 0.0
H1569 H 0.91919 0.71281 0.76687 0.0
H1570 H 0.00099 0.63521 0.74621 0.0
H1571 H 0.94213 0.58848 0.73254 0.0
H1572 H 0.94499 0.6995 0.66879 0.0
H1573 H 0.97091 0.72727 0.72879 0.0
H1574 H 0.95359 0.73173 0.65696 0.0
H1575 H 0.97928 0.75904 0.71585 0.0
H1576 H 0.99843 0.66833 0.6897 0.0
H1577 H 0.93784 0.62797 0.67608 0.0
H1578 H 0.00505 0.64222 0.67864 0.0
H1579 H 0.94552 0.60256 0.66523 0.0
H1580 H 0.04647 0.72202 0.70634 0.0
H1581 H 0.01678 0.7345 0.65844 0.0
H1582 H 0.88019 0.65416 0.65726 0.0
H1583 H 0.92272 0.65213 0.62094 0.0
H1584 H 0.15911 0.3541 0.02761 0.0
H1585 H 0.26601 0.28966 0.17497 0.0
H1586 H 0.15568 0.34914 0.14417 0.0
H1587 H 0.13312 0.35657 0.12637 0.0
H1588 H 0.09539 0.29552 0.10812 0.0
H1589 H 0.11802 0.28814 0.12619 0.0
H1590 H 0.18399 0.35115 0.11184 0.0
H1591 H 0.17776 0.35818 0.07733 0.0
H1592 H 0.13661 0.29709 0.06256 0.0
H1593 H 0.1431 0.29029 0.09708 0.0
H1594 H 0.21884 0.34736 0.13631 0.0
H1595 H 0.24363 0.35656 0.11208 0.0
H1596 H 0.20639 0.30352 0.07409 0.0
H1597 H 0.18189 0.294 0.09898 0.0
H1598 H 0.2183 0.33782 0.17917 0.0
H1599 H 0.24654 0.33551 0.18955 0.0
H1600 H 0.22224 0.28069 0.15289 0.0
H1601 H 0.19394 0.28306 0.14288 0.0
H1602 H 0.18543 0.33839 0.19972 0.0
H1603 H 0.19748 0.3387 0.23469 0.0
H1604 H 0.18561 0.27997 0.22189 0.0
H1605 H 0.17304 0.27956 0.18695 0.0
H1606 H 0.15515 0.341 0.18231 0.0
H1607 H 0.13591 0.33929 0.21094 0.0
H1608 H 0.11079 0.27696 0.2077 0.0
H1609 H 0.13017 0.27877 0.17901 0.0
O1610 O 0.16154 0.35098 0.04107 0.0
O1611 O 0.14124 0.31931 0.03393 0.0
O1612 O 0.2668 0.31911 0.18984 0.0
O1613 O 0.25499 0.29093 0.17114 0.0
C1614 C 0.15412 0.31453 0.14269 0.0
C1615 C 0.16712 0.31616 0.1281 0.0
C1616 C 0.18357 0.31509 0.13399 0.0
C1617 C 0.1867 0.31174 0.15436 0.0
C1618 C 0.17362 0.31002 0.16897 0.0
C1619 C 0.15729 0.31137 0.16308 0.0
C1620 C 0.13835 0.3181 0.13661 0.0
C1621 C 0.1422 0.3373 0.137 0.0
C1622 C 0.1294 0.34153 0.12673 0.0
C1623 C 0.11271 0.32663 0.1157 0.0
C1624 C 0.10831 0.30726 0.11636 0.0
C1625 C 0.12104 0.30301 0.12682 0.0
C1626 C 0.16403 0.32023 0.10686 0.0
C1627 C 0.17376 0.33932 0.10105 0.0
C1628 C 0.17011 0.34328 0.08137 0.0
C1629 C 0.15666 0.32819 0.06719 0.0
C1630 C 0.14706 0.30904 0.07309 0.0
C1631 C 0.15074 0.3051 0.09276 0.0
C1632 C 0.19868 0.31994 0.11949 0.0
C1633 C 0.21615 0.33759 0.12292 0.0
C1634 C 0.23019 0.34291 0.10897 0.0
C1635 C 0.22695 0.33073 0.09123 0.0
C1636 C 0.2094 0.31303 0.0878 0.0
C1637 C 0.19538 0.30763 0.10189 0.0
C1638 C 0.20399 0.3105 0.16045 0.0
C1639 C 0.21904 0.32526 0.17353 0.0
C1640 C 0.23519 0.32394 0.17936 0.0
C1641 C 0.23663 0.30788 0.17209 0.0
C1642 C 0.22158 0.29323 0.15881 0.0
C1643 C 0.20541 0.29454 0.15305 0.0
C1644 C 0.17823 0.30891 0.19086 0.0
C1645 C 0.18485 0.32537 0.20465 0.0
C1646 C 0.19187 0.32559 0.22453 0.0
C1647 C 0.19244 0.30936 0.23096 0.0
C1648 C 0.18504 0.29256 0.21741 0.0
C1649 C 0.17797 0.29233 0.19747 0.0
C1650 C 0.14392 0.31 0.17855 0.0
C1651 C 0.14522 0.32695 0.18751 0.0
C1652 C 0.1344 0.32597 0.20393 0.0
C1653 C 0.12208 0.30801 0.21154 0.0
C1654 C 0.12021 0.29095 0.20203 0.0
C1655 C 0.13119 0.29196 0.18571 0.0
C1656 C 0.15264 0.33247 0.04639 0.0
C1657 C 0.25374 0.30639 0.17826 0.0
H1658 H 0.64982 0.81459 0.04086 0.0
H1659 H 0.72926 0.98336 0.20447 0.0
H1660 H 0.66035 0.81244 0.15201 0.0
H1661 H 0.65124 0.77929 0.13969 0.0
H1662 H 0.71099 0.79493 0.14577 0.0
H1663 H 0.72009 0.82833 0.15803 0.0
H1664 H 0.65867 0.84102 0.1275 0.0
H1665 H 0.64948 0.82893 0.09142 0.0
H1666 H 0.70668 0.83856 0.0845 0.0
H1667 H 0.71575 0.85085 0.12057 0.0
H1668 H 0.66376 0.87483 0.15754 0.0
H1669 H 0.65165 0.89011 0.13459 0.0
H1670 H 0.70053 0.90711 0.09863 0.0
H1671 H 0.71288 0.89204 0.1221 0.0
H1672 H 0.67849 0.88641 0.20001 0.0
H1673 H 0.68303 0.91787 0.2127 0.0
H1674 H 0.73426 0.947 0.17981 0.0
H1675 H 0.72972 0.91542 0.16751 0.0
H1676 H 0.67958 0.85295 0.21951 0.0
H1677 H 0.68194 0.86805 0.25354 0.0
H1678 H 0.73927 0.91433 0.24423 0.0
H1679 H 0.73677 0.89904 0.20995 0.0
H1680 H 0.67173 0.81612 0.19469 0.0
H1681 H 0.67265 0.79494 0.2197 0.0
H1682 H 0.73374 0.83447 0.23295 0.0
H1683 H 0.73288 0.8551 0.20686 0.0
O1684 O 0.65378 0.81947 0.05508 0.0
O1685 O 0.68335 0.82458 0.05236 0.0
O1686 O 0.7008 0.95502 0.21646 0.0
O1687 O 0.72707 0.97071 0.19959 0.0
C1688 C 0.69606 0.84286 0.16262 0.0
C1689 C 0.69356 0.85434 0.14847 0.0
C1690 C 0.69577 0.87242 0.15531 0.0
C1691 C 0.7016 0.87957 0.17602 0.0
C1692 C 0.70446 0.86825 0.19016 0.0
C1693 C 0.70141 0.84974 0.1835 0.0
C1694 C 0.69087 0.82273 0.15582 0.0
C1695 C 0.67147 0.80869 0.15074 0.0
C1696 C 0.66628 0.78978 0.1439 0.0
C1697 C 0.68042 0.78459 0.14204 0.0
C1698 C 0.69987 0.79865 0.14717 0.0
C1699 C 0.70506 0.81761 0.15416 0.0
C1700 C 0.68793 0.847 0.12656 0.0
C1701 C 0.66923 0.84066 0.11812 0.0
C1702 C 0.664 0.83369 0.09752 0.0
C1703 C 0.67736 0.83282 0.08505 0.0
C1704 C 0.69606 0.83907 0.09366 0.0
C1705 C 0.70128 0.84609 0.11424 0.0
C1706 C 0.68924 0.88246 0.14153 0.0
C1707 C 0.67193 0.88197 0.14479 0.0
C1708 C 0.66491 0.89044 0.13153 0.0
C1709 C 0.67499 0.89943 0.11464 0.0
C1710 C 0.69247 0.90014 0.1115 0.0
C1711 C 0.69952 0.89162 0.12484 0.0
C1712 C 0.7039 0.89866 0.18304 0.0
C1713 C 0.69073 0.89961 0.19565 0.0
C1714 C 0.69333 0.91759 0.20282 0.0
C1715 C 0.70906 0.93497 0.19733 0.0
C1716 C 0.72203 0.93392 0.18439 0.0
C1717 C 0.71946 0.91591 0.1773 0.0
C1718 C 0.70802 0.87486 0.21229 0.0
C1719 C 0.69296 0.86589 0.22511 0.0
C1720 C 0.69435 0.87456 0.24458 0.0
C1721 C 0.71084 0.89233 0.25156 0.0
C1722 C 0.72642 0.90062 0.2392 0.0
C1723 C 0.72506 0.89189 0.21972 0.0
C1724 C 0.70229 0.83695 0.19867 0.0
C1725 C 0.6854 0.82 0.20266 0.0
C1726 C 0.68592 0.80805 0.21713 0.0
C1727 C 0.7033 0.81297 0.22821 0.0
C1728 C 0.72023 0.83007 0.22434 0.0
C1729 C 0.71973 0.84194 0.2096 0.0
C1730 C 0.67176 0.82539 0.06319 0.0
C1731 C 0.71198 0.95412 0.20507 0.0
H1732 H 0.14417 0.83257 0.02596 0.0
H1733 H 0.29728 0.96242 0.19677 0.0
H1734 H 0.12846 0.84455 0.1285 0.0
H1735 H 0.10186 0.81324 0.11312 0.0
H1736 H 0.12304 0.78311 0.14911 0.0
H1737 H 0.14986 0.81433 0.16398 0.0
H1738 H 0.16558 0.87595 0.10642 0.0
H1739 H 0.15662 0.86255 0.07067 0.0
H1740 H 0.15954 0.81219 0.0868 0.0
H1741 H 0.16879 0.8259 0.1224 0.0
H1742 H 0.20614 0.91269 0.13086 0.0
H1743 H 0.23192 0.92731 0.10746 0.0
H1744 H 0.23349 0.87408 0.10172 0.0
H1745 H 0.20823 0.85974 0.12554 0.0
H1746 H 0.20196 0.92006 0.17856 0.0
H1747 H 0.23296 0.94887 0.19009 0.0
H1748 H 0.26141 0.91602 0.17873 0.0
H1749 H 0.23027 0.88726 0.16751 0.0
H1750 H 0.16971 0.89495 0.20407 0.0
H1751 H 0.18106 0.90842 0.23983 0.0
H1752 H 0.21753 0.88325 0.241 0.0
H1753 H 0.20631 0.87003 0.20539 0.0
H1754 H 0.12884 0.85409 0.18008 0.0
H1755 H 0.10599 0.83478 0.20481 0.0
H1756 H 0.14607 0.81812 0.22812 0.0
H1757 H 0.16858 0.83705 0.20319 0.0
O1758 O 0.14797 0.83772 0.04012 0.0
O1759 O 0.14994 0.81227 0.04916 0.0
O1760 O 0.26949 0.96743 0.19806 0.0
O1761 O 0.28484 0.95125 0.19228 0.0
C1762 C 0.15913 0.85033 0.15357 0.0
C1763 C 0.17247 0.85976 0.13882 0.0
C1764 C 0.19049 0.87649 0.14486 0.0
C1765 C 0.19496 0.88409 0.16557 0.0
C1766 C 0.18167 0.87462 0.18028 0.0
C1767 C 0.16379 0.85772 0.17432 0.0
C1768 C 0.14109 0.83171 0.14735 0.0
C1769 C 0.12713 0.83117 0.13335 0.0
C1770 C 0.11206 0.81337 0.12453 0.0
C1771 C 0.11062 0.79589 0.12986 0.0
C1772 C 0.12386 0.79643 0.14485 0.0
C1773 C 0.13908 0.81422 0.15342 0.0
C1774 C 0.16771 0.85185 0.117 0.0
C1775 C 0.16439 0.86209 0.10216 0.0
C1776 C 0.15922 0.85437 0.08177 0.0
C1777 C 0.15729 0.83626 0.07589 0.0
C1778 C 0.16086 0.82614 0.09081 0.0
C1779 C 0.1661 0.83392 0.11116 0.0
C1780 C 0.20525 0.88512 0.12982 0.0
C1781 C 0.21202 0.90419 0.1245 0.0
C1782 C 0.22667 0.91248 0.11118 0.0
C1783 C 0.23447 0.90169 0.10273 0.0
C1784 C 0.22746 0.88253 0.10781 0.0
C1785 C 0.21306 0.87437 0.12136 0.0
C1786 C 0.2139 0.90162 0.17213 0.0
C1787 C 0.21491 0.91913 0.17859 0.0
C1788 C 0.23263 0.93556 0.18515 0.0
C1789 C 0.24968 0.93475 0.1853 0.0
C1790 C 0.24858 0.91716 0.17878 0.0
C1791 C 0.23083 0.90072 0.1723 0.0
C1792 C 0.18727 0.8816 0.20222 0.0
C1793 C 0.18002 0.89224 0.21217 0.0
C1794 C 0.18653 0.89995 0.23246 0.0
C1795 C 0.20018 0.89687 0.24303 0.0
C1796 C 0.20693 0.88571 0.23318 0.0
C1797 C 0.2006 0.87823 0.21289 0.0
C1798 C 0.1504 0.84708 0.18999 0.0
C1799 C 0.13271 0.8464 0.19068 0.0
C1800 C 0.11976 0.8355 0.20483 0.0
C1801 C 0.12436 0.8251 0.21843 0.0
C1802 C 0.14218 0.82599 0.21779 0.0
C1803 C 0.15509 0.83689 0.2037 0.0
C1804 C 0.15153 0.82797 0.05428 0.0
C1805 C 0.26855 0.95216 0.19228 0.0
H1806 H 0.3147 0.17703 0.03233 0.0
H1807 H 0.32309 0.04575 0.85794 0.0
H1808 H 0.2831 0.16993 0.92374 0.0
H1809 H 0.28922 0.20222 0.93639 0.0
H1810 H 0.3446 0.22881 0.91105 0.0
H1811 H 0.33864 0.19667 0.89895 0.0
H1812 H 0.2871 0.13662 0.95048 0.0
H1813 H 0.29352 0.14925 0.98647 0.0
H1814 H 0.34962 0.19573 0.9734 0.0
H1815 H 0.34311 0.18278 0.93753 0.0
H1816 H 0.28846 0.09887 0.93073 0.0
H1817 H 0.30077 0.08239 0.95184 0.0
H1818 H 0.35828 0.13202 0.9524 0.0
H1819 H 0.346 0.14797 0.93055 0.0
H1820 H 0.27492 0.08861 0.88995 0.0
H1821 H 0.27515 0.059 0.87883 0.0
H1822 H 0.33626 0.09345 0.87188 0.0
H1823 H 0.33576 0.12291 0.88296 0.0
H1824 H 0.26915 0.10626 0.85832 0.0
H1825 H 0.26644 0.08936 0.8249 0.0
H1826 H 0.32545 0.13192 0.8164 0.0
H1827 H 0.32829 0.14829 0.84999 0.0
H1828 H 0.27124 0.15305 0.86742 0.0
H1829 H 0.26935 0.17368 0.84171 0.0
H1830 H 0.3309 0.20211 0.8384 0.0
H1831 H 0.33266 0.18131 0.86362 0.0
O1832 O 0.3125 0.17223 0.01806 0.0
O1833 O 0.34115 0.1959 0.01052 0.0
O1834 O 0.29118 0.04016 0.86627 0.0
O1835 O 0.32261 0.0572 0.86251 0.0
C1836 C 0.30764 0.16167 0.90432 0.0
C1837 C 0.31041 0.1512 0.91956 0.0
C1838 C 0.30965 0.13353 0.91398 0.0
C1839 C 0.30503 0.12579 0.89336 0.0
C1840 C 0.30191 0.13608 0.87819 0.0
C1841 C 0.3036 0.15421 0.88359 0.0
C1842 C 0.31026 0.18105 0.91005 0.0
C1843 C 0.29638 0.18279 0.92063 0.0
C1844 C 0.2999 0.20113 0.92787 0.0
C1845 C 0.31725 0.21791 0.92439 0.0
C1846 C 0.33093 0.21611 0.91347 0.0
C1847 C 0.32751 0.19781 0.90649 0.0
C1848 C 0.31455 0.15891 0.94139 0.0
C1849 C 0.30077 0.14952 0.95545 0.0
C1850 C 0.30447 0.15678 0.97598 0.0
C1851 C 0.32205 0.17355 0.9828 0.0
C1852 C 0.3359 0.18283 0.96865 0.0
C1853 C 0.33219 0.17552 0.94813 0.0
C1854 C 0.31635 0.12456 0.92908 0.0
C1855 C 0.30366 0.10624 0.93563 0.0
C1856 C 0.31069 0.09696 0.94785 0.0
C1857 C 0.33048 0.106 0.95387 0.0
C1858 C 0.34299 0.1247 0.94793 0.0
C1859 C 0.33598 0.13387 0.93559 0.0
C1860 C 0.30532 0.10782 0.88726 0.0
C1861 C 0.28833 0.08968 0.88607 0.0
C1862 C 0.28851 0.07282 0.8797 0.0
C1863 C 0.30574 0.07387 0.87444 0.0
C1864 C 0.32276 0.09212 0.8758 0.0
C1865 C 0.32253 0.10896 0.88215 0.0
C1866 C 0.29886 0.12857 0.85644 0.0
C1867 C 0.2813 0.11221 0.84896 0.0
C1868 C 0.27977 0.10259 0.82998 0.0
C1869 C 0.29569 0.10951 0.81813 0.0
C1870 C 0.31289 0.12657 0.82513 0.0
C1871 C 0.31451 0.13595 0.84423 0.0
C1872 C 0.30211 0.16586 0.86747 0.0
C1873 C 0.28426 0.16366 0.86102 0.0
C1874 C 0.28319 0.17538 0.84641 0.0
C1875 C 0.30002 0.18957 0.8384 0.0
C1876 C 0.31779 0.19145 0.84463 0.0
C1877 C 0.3188 0.17959 0.85895 0.0
C1878 C 0.32588 0.18129 0.0046 0.0
C1879 C 0.30599 0.05603 0.86752 0.0
H1880 H 0.83225 0.18698 0.03498 0.0
H1881 H 0.73323 0.01325 0.87876 0.0
H1882 H 0.84097 0.18604 0.9274 0.0
H1883 H 0.86705 0.21827 0.94092 0.0
H1884 H 0.9085 0.2002 0.93103 0.0
H1885 H 0.88222 0.16762 0.91805 0.0
H1886 H 0.80907 0.15646 0.94926 0.0
H1887 H 0.81412 0.16998 0.98477 0.0
H1888 H 0.86379 0.16315 0.99377 0.0
H1889 H 0.85842 0.14941 0.95829 0.0
H1890 H 0.77731 0.11823 0.92024 0.0
H1891 H 0.75293 0.10343 0.94467 0.0
H1892 H 0.79311 0.09653 0.98405 0.0
H1893 H 0.81703 0.11008 0.95867 0.0
H1894 H 0.78038 0.1098 0.87666 0.0
H1895 H 0.75263 0.07793 0.86516 0.0
H1896 H 0.77608 0.05054 0.90268 0.0
H1897 H 0.80389 0.08249 0.91384 0.0
H1898 H 0.81585 0.14456 0.85728 0.0
H1899 H 0.80548 0.13131 0.82169 0.0
H1900 H 0.813 0.08292 0.83452 0.0
H1901 H 0.82369 0.09646 0.87026 0.0
H1902 H 0.84816 0.18182 0.88199 0.0
H1903 H 0.8711 0.20122 0.85757 0.0
H1904 H 0.88671 0.15717 0.84862 0.0
H1905 H 0.86413 0.138 0.87364 0.0
O1906 O 0.83047 0.18152 0.02102 0.0
O1907 O 0.85596 0.17783 0.02481 0.0
O1908 O 0.73266 0.04083 0.86396 0.0
O1909 O 0.74404 0.02605 0.88308 0.0
C1910 C 0.8436 0.15455 0.91542 0.0
C1911 C 0.83029 0.14371 0.92963 0.0
C1912 C 0.81401 0.12541 0.9232 0.0
C1913 C 0.81128 0.11775 0.90263 0.0
C1914 C 0.82464 0.12859 0.88839 0.0
C1915 C 0.84085 0.14698 0.89482 0.0
C1916 C 0.85971 0.17444 0.92201 0.0
C1917 C 0.85567 0.18901 0.92816 0.0
C1918 C 0.87051 0.20737 0.93579 0.0
C1919 C 0.88964 0.21156 0.93696 0.0
C1920 C 0.8938 0.19724 0.9301 0.0
C1921 C 0.87888 0.17872 0.92276 0.0
C1922 C 0.8333 0.15183 0.95126 0.0
C1923 C 0.82095 0.15777 0.95898 0.0
C1924 C 0.82391 0.16555 0.97925 0.0
C1925 C 0.83935 0.16763 0.99213 0.0
C1926 C 0.85175 0.16172 0.98428 0.0
C1927 C 0.84873 0.15389 0.96403 0.0
C1928 C 0.79894 0.11518 0.93761 0.0
C1929 C 0.78075 0.11321 0.93396 0.0
C1930 C 0.76698 0.10515 0.94818 0.0
C1931 C 0.77129 0.09935 0.96662 0.0
C1932 C 0.78941 0.10098 0.97006 0.0
C1933 C 0.80308 0.10872 0.95561 0.0
C1934 C 0.79421 0.09843 0.89596 0.0
C1935 C 0.77954 0.09689 0.88229 0.0
C1936 C 0.76368 0.07867 0.8758 0.0
C1937 C 0.76216 0.06167 0.88297 0.0
C1938 C 0.77681 0.06332 0.89683 0.0
C1939 C 0.79269 0.08155 0.90326 0.0
C1940 C 0.82057 0.12151 0.86635 0.0
C1941 C 0.81578 0.13138 0.8523 0.0
C1942 C 0.80992 0.12383 0.83197 0.0
C1943 C 0.80865 0.10621 0.82534 0.0
C1944 C 0.81395 0.09658 0.83927 0.0
C1945 C 0.82002 0.10426 0.85961 0.0
C1946 C 0.85462 0.15859 0.87978 0.0
C1947 C 0.85669 0.17644 0.87497 0.0
C1948 C 0.86972 0.18746 0.86102 0.0
C1949 C 0.88061 0.18063 0.85132 0.0
C1950 C 0.87837 0.16265 0.85589 0.0
C1951 C 0.86554 0.15175 0.87012 0.0
C1952 C 0.84249 0.17595 0.01363 0.0
C1953 C 0.74537 0.04227 0.87606 0.0
H1954 H 0.8595 0.684 0.05171 0.0
H1955 H 0.71598 0.66915 0.88303 0.0
H1956 H 0.88058 0.71246 0.95056 0.0
H1957 H 0.90335 0.7051 0.9681 0.0
H1958 H 0.87894 0.65091 0.93048 0.0
H1959 H 0.85585 0.65806 0.91346 0.0
H1960 H 0.84436 0.70842 0.97381 0.0
H1961 H 0.85136 0.70332 0.00891 0.0
H1962 H 0.84278 0.64714 0.98781 0.0
H1963 H 0.83549 0.65229 0.95288 0.0
H1964 H 0.80612 0.70699 0.95096 0.0
H1965 H 0.77986 0.69733 0.97359 0.0
H1966 H 0.77177 0.63952 0.97205 0.0
H1967 H 0.79747 0.64906 0.94884 0.0
H1968 H 0.81145 0.71771 0.90307 0.0
H1969 H 0.78191 0.71755 0.89236 0.0
H1970 H 0.74884 0.65576 0.89893 0.0
H1971 H 0.77852 0.6561 0.90939 0.0
H1972 H 0.84377 0.72147 0.87617 0.0
H1973 H 0.834 0.72292 0.84049 0.0
H1974 H 0.79184 0.66161 0.83721 0.0
H1975 H 0.80172 0.66025 0.87257 0.0
H1976 H 0.88091 0.72057 0.89876 0.0
H1977 H 0.90102 0.72385 0.8703 0.0
H1978 H 0.85922 0.66538 0.84609 0.0
H1979 H 0.83928 0.66223 0.8744 0.0
O1980 O 0.85649 0.68563 0.03777 0.0
O1981 O 0.85223 0.65701 0.02606 0.0
O1982 O 0.74556 0.70139 0.884 0.0
O1983 O 0.72788 0.66963 0.88722 0.0
C1984 C 0.8494 0.68727 0.9248 0.0
C1985 C 0.83594 0.68427 0.93943 0.0
C1986 C 0.81874 0.68401 0.93364 0.0
C1987 C 0.81513 0.68714 0.91333 0.0
C1988 C 0.82839 0.68979 0.89866 0.0
C1989 C 0.84549 0.68977 0.90434 0.0
C1990 C 0.86651 0.68574 0.93083 0.0
C1991 C 0.88057 0.69929 0.94568 0.0
C1992 C 0.89349 0.69504 0.95572 0.0
C1993 C 0.89253 0.67722 0.95096 0.0
C1994 C 0.87964 0.66454 0.93474 0.0
C1995 C 0.86668 0.66875 0.92479 0.0
C1996 C 0.83958 0.68081 0.96081 0.0
C1997 C 0.84391 0.69499 0.97684 0.0
C1998 C 0.84794 0.69205 0.99685 0.0
C1999 C 0.84771 0.67485 0.00115 0.0
C2000 C 0.84315 0.66057 0.98503 0.0
C2001 C 0.83902 0.6635 0.96506 0.0
C2002 C 0.80375 0.67875 0.94838 0.0
C2003 C 0.79874 0.69229 0.95564 0.0
C2004 C 0.78388 0.6868 0.96867 0.0
C2005 C 0.77394 0.66773 0.97475 0.0
C2006 C 0.77918 0.6543 0.9676 0.0
C2007 C 0.79392 0.65975 0.95449 0.0
C2008 C 0.79709 0.68695 0.90713 0.0
C2009 C 0.7978 0.70417 0.90219 0.0
C2010 C 0.78091 0.70403 0.89609 0.0
C2011 C 0.763 0.68664 0.89483 0.0
C2012 C 0.76238 0.6694 0.89978 0.0
C2013 C 0.77929 0.66956 0.90583 0.0
C2014 C 0.82339 0.69076 0.87688 0.0
C2015 C 0.83259 0.70836 0.86761 0.0
C2016 C 0.82701 0.70916 0.84734 0.0
C2017 C 0.81236 0.69232 0.83608 0.0
C2018 C 0.80345 0.6747 0.84539 0.0
C2019 C 0.80894 0.67393 0.8656 0.0
C2020 C 0.8586 0.69123 0.88848 0.0
C2021 C 0.87624 0.70845 0.88738 0.0
C2022 C 0.88763 0.71031 0.87116 0.0
C2023 C 0.88142 0.69501 0.85582 0.0
C2024 C 0.86408 0.67756 0.85743 0.0
C2025 C 0.85278 0.67569 0.87363 0.0
C2026 C 0.85226 0.67189 0.02237 0.0
C2027 C 0.74501 0.68641 0.88835 0.0
H2028 H 0.83163 0.68991 0.35474 0.0
H2029 H 0.93047 0.62812 0.51244 0.0
H2030 H 0.82289 0.68693 0.46894 0.0
H2031 H 0.79946 0.69435 0.45336 0.0
H2032 H 0.75765 0.63296 0.44419 0.0
H2033 H 0.78135 0.62562 0.45982 0.0
H2034 H 0.8526 0.68757 0.44063 0.0
H2035 H 0.8482 0.69422 0.40537 0.0
H2036 H 0.80203 0.63462 0.39264 0.0
H2037 H 0.80673 0.62814 0.42789 0.0
H2038 H 0.8839 0.68474 0.46777 0.0
H2039 H 0.90962 0.69369 0.4447 0.0
H2040 H 0.87392 0.6399 0.4073 0.0
H2041 H 0.84832 0.63079 0.43084 0.0
H2042 H 0.88167 0.67521 0.51111 0.0
H2043 H 0.90966 0.67335 0.52365 0.0
H2044 H 0.88756 0.61861 0.48741 0.0
H2045 H 0.85945 0.62049 0.47528 0.0
H2046 H 0.84759 0.67451 0.53012 0.0
H2047 H 0.86007 0.67524 0.56502 0.0
H2048 H 0.84954 0.617 0.55241 0.0
H2049 H 0.83668 0.61618 0.51744 0.0
H2050 H 0.81699 0.67732 0.50926 0.0
H2051 H 0.79732 0.67595 0.53731 0.0
H2052 H 0.77557 0.61436 0.53831 0.0
H2053 H 0.79515 0.61576 0.51002 0.0
O2054 O 0.8332 0.68695 0.36856 0.0
O2055 O 0.80954 0.65618 0.36283 0.0
O2056 O 0.93015 0.65729 0.52625 0.0
O2057 O 0.91956 0.62924 0.50769 0.0
C2058 C 0.81897 0.65164 0.47216 0.0
C2059 C 0.83252 0.65341 0.4582 0.0
C2060 C 0.84876 0.65226 0.46488 0.0
C2061 C 0.85113 0.64871 0.48536 0.0
C2062 C 0.83736 0.64658 0.49925 0.0
C2063 C 0.82123 0.64799 0.49262 0.0
C2064 C 0.8037 0.65577 0.46561 0.0
C2065 C 0.80852 0.67512 0.464 0.0
C2066 C 0.79514 0.67932 0.45516 0.0
C2067 C 0.77674 0.66422 0.44773 0.0
C2068 C 0.77176 0.64483 0.44985 0.0
C2069 C 0.78516 0.64063 0.45885 0.0
C2070 C 0.83006 0.65736 0.43672 0.0
C2071 C 0.84164 0.67595 0.43014 0.0
C2072 C 0.83905 0.67972 0.41003 0.0
C2073 C 0.82477 0.66494 0.39618 0.0
C2074 C 0.81317 0.64632 0.4029 0.0
C2075 C 0.81581 0.64257 0.423 0.0
C2076 C 0.86437 0.65704 0.45107 0.0
C2077 C 0.88172 0.67479 0.45473 0.0
C2078 C 0.89629 0.67995 0.44147 0.0
C2079 C 0.89375 0.66746 0.42428 0.0
C2080 C 0.87633 0.64966 0.42061 0.0
C2081 C 0.86172 0.64448 0.43394 0.0
C2082 C 0.86845 0.64789 0.49245 0.0
C2083 C 0.88285 0.66278 0.50598 0.0
C2084 C 0.89885 0.66171 0.51307 0.0
C2085 C 0.90082 0.64579 0.50657 0.0
C2086 C 0.88647 0.63103 0.49276 0.0
C2087 C 0.87042 0.63208 0.48577 0.0
C2088 C 0.84125 0.6453 0.52127 0.0
C2089 C 0.84736 0.66166 0.53507 0.0
C2090 C 0.85461 0.66213 0.5549 0.0
C2091 C 0.85593 0.64626 0.56118 0.0
C2092 C 0.84859 0.62936 0.54784 0.0
C2093 C 0.84131 0.6289 0.52795 0.0
C2094 C 0.80738 0.64662 0.50754 0.0
C2095 C 0.80763 0.66345 0.51519 0.0
C2096 C 0.79659 0.66269 0.53132 0.0
C2097 C 0.78517 0.64509 0.54007 0.0
C2098 C 0.78427 0.62808 0.53178 0.0
C2099 C 0.79539 0.62886 0.51568 0.0
C2100 C 0.82198 0.66901 0.37485 0.0
C2101 C 0.91775 0.64453 0.51413 0.0
H2102 H 0.33242 0.1519 0.36515 0.0
H2103 H 0.37297 0.3041 0.54022 0.0
H2104 H 0.32697 0.14189 0.47409 0.0
H2105 H 0.32162 0.11035 0.46048 0.0
H2106 H 0.38027 0.12786 0.48021 0.0
H2107 H 0.38584 0.15989 0.49326 0.0
H2108 H 0.32535 0.16851 0.45115 0.0
H2109 H 0.32258 0.15976 0.4144 0.0
H2110 H 0.38328 0.17868 0.41739 0.0
H2111 H 0.38588 0.1876 0.45413 0.0
H2112 H 0.32114 0.19275 0.47568 0.0
H2113 H 0.31036 0.21121 0.456 0.0
H2114 H 0.36919 0.25116 0.44372 0.0
H2115 H 0.37984 0.23214 0.46305 0.0
H2116 H 0.33017 0.20794 0.51998 0.0
H2117 H 0.32852 0.23648 0.53224 0.0
H2118 H 0.3881 0.27358 0.52013 0.0
H2119 H 0.38948 0.24489 0.5078 0.0
H2120 H 0.33562 0.18047 0.54578 0.0
H2121 H 0.33502 0.19548 0.57907 0.0
H2122 H 0.39451 0.23987 0.57641 0.0
H2123 H 0.39502 0.22489 0.54296 0.0
H2124 H 0.33457 0.14306 0.52202 0.0
H2125 H 0.33632 0.12226 0.54719 0.0
H2126 H 0.39612 0.16504 0.56333 0.0
H2127 H 0.39428 0.18584 0.53799 0.0
O2128 O 0.33386 0.15556 0.37969 0.0
O2129 O 0.3651 0.16542 0.38207 0.0
O2130 O 0.34237 0.27294 0.54044 0.0
O2131 O 0.37319 0.29258 0.53535 0.0
C2132 C 0.35991 0.17259 0.49174 0.0
C2133 C 0.35767 0.18424 0.47756 0.0
C2134 C 0.35748 0.20105 0.48466 0.0
C2135 C 0.36088 0.20706 0.50572 0.0
C2136 C 0.36391 0.19592 0.51988 0.0
C2137 C 0.36309 0.17848 0.51297 0.0
C2138 C 0.35688 0.1533 0.48436 0.0
C2139 C 0.33875 0.13904 0.47529 0.0
C2140 C 0.33569 0.12106 0.46761 0.0
C2141 C 0.35057 0.11683 0.46928 0.0
C2142 C 0.3686 0.13087 0.47884 0.0
C2143 C 0.37178 0.14907 0.48624 0.0
C2144 C 0.35587 0.17896 0.45522 0.0
C2145 C 0.33808 0.171 0.44379 0.0
C2146 C 0.33652 0.16589 0.42282 0.0
C2147 C 0.35273 0.16858 0.41293 0.0
C2148 C 0.37052 0.17647 0.42451 0.0
C2149 C 0.37205 0.18158 0.44548 0.0
C2150 C 0.35122 0.21108 0.47061 0.0
C2151 C 0.33164 0.20526 0.46838 0.0
C2152 C 0.32555 0.21591 0.45735 0.0
C2153 C 0.339 0.23277 0.44867 0.0
C2154 C 0.35856 0.23819 0.45027 0.0
C2155 C 0.36465 0.2274 0.46125 0.0
C2156 C 0.35996 0.22442 0.51309 0.0
C2157 C 0.34283 0.22226 0.52001 0.0
C2158 C 0.34194 0.23857 0.52698 0.0
C2159 C 0.3582 0.25732 0.52722 0.0
C2160 C 0.37533 0.25937 0.5202 0.0
C2161 C 0.37617 0.24304 0.51314 0.0
C2162 C 0.36537 0.20159 0.54204 0.0
C2163 C 0.34873 0.19298 0.55275 0.0
C2164 C 0.34837 0.2016 0.57163 0.0
C2165 C 0.36469 0.21883 0.58008 0.0
C2166 C 0.38182 0.22651 0.57017 0.0
C2167 C 0.38214 0.21797 0.55117 0.0
C2168 C 0.36435 0.16585 0.52806 0.0
C2169 C 0.34811 0.14784 0.53081 0.0
C2170 C 0.34915 0.13596 0.5451 0.0
C2171 C 0.36645 0.14194 0.55694 0.0
C2172 C 0.38266 0.16009 0.5543 0.0
C2173 C 0.38163 0.17194 0.5399 0.0
C2174 C 0.35102 0.16312 0.39065 0.0
C2175 C 0.35736 0.27469 0.53475 0.0
H2176 H 0.81211 0.16228 0.35086 0.0
H2177 H 0.96556 0.28658 0.51962 0.0
H2178 H 0.7949 0.17116 0.45451 0.0
H2179 H 0.76641 0.1399 0.44195 0.0
H2180 H 0.78773 0.10982 0.47786 0.0
H2181 H 0.81632 0.14089 0.48984 0.0
H2182 H 0.83227 0.20334 0.43249 0.0
H2183 H 0.82366 0.19087 0.39645 0.0
H2184 H 0.82565 0.13966 0.41105 0.0
H2185 H 0.83448 0.15241 0.44699 0.0
H2186 H 0.87242 0.23891 0.45593 0.0
H2187 H 0.89968 0.25438 0.43453 0.0
H2188 H 0.90162 0.20129 0.42904 0.0
H2189 H 0.87491 0.1862 0.451 0.0
H2190 H 0.87024 0.24653 0.50411 0.0
H2191 H 0.90184 0.27489 0.51483 0.0
H2192 H 0.92847 0.2404 0.50277 0.0
H2193 H 0.89675 0.21211 0.49238 0.0
H2194 H 0.8386 0.22198 0.53043 0.0
H2195 H 0.85025 0.23435 0.56644 0.0
H2196 H 0.88428 0.20649 0.56596 0.0
H2197 H 0.87298 0.19457 0.53004 0.0
H2198 H 0.79575 0.18019 0.50543 0.0
H2199 H 0.77319 0.16164 0.53075 0.0
H2200 H 0.81351 0.14563 0.55487 0.0
H2201 H 0.83573 0.16378 0.52938 0.0
O2202 O 0.81561 0.16698 0.36516 0.0
O2203 O 0.81675 0.1409 0.37348 0.0
O2204 O 0.93847 0.29263 0.52169 0.0
O2205 O 0.95288 0.27558 0.51554 0.0
C2206 C 0.82582 0.17682 0.47914 0.0
C2207 C 0.83892 0.18633 0.46422 0.0
C2208 C 0.85709 0.20287 0.47018 0.0
C2209 C 0.86201 0.21017 0.49096 0.0
C2210 C 0.84892 0.20071 0.50582 0.0
C2211 C 0.83083 0.18404 0.49996 0.0
C2212 C 0.80761 0.15829 0.47317 0.0
C2213 C 0.79328 0.15782 0.45981 0.0
C2214 C 0.77709 0.14005 0.45268 0.0
C2215 C 0.77489 0.12258 0.45914 0.0
C2216 C 0.78896 0.12314 0.47298 0.0
C2217 C 0.80525 0.14084 0.47983 0.0
C2218 C 0.83387 0.17872 0.44235 0.0
C2219 C 0.83088 0.18945 0.42785 0.0
C2220 C 0.82594 0.18228 0.40729 0.0
C2221 C 0.82391 0.16423 0.40088 0.0
C2222 C 0.82704 0.15358 0.41548 0.0
C2223 C 0.83204 0.16079 0.43601 0.0
C2224 C 0.87176 0.21148 0.45507 0.0
C2225 C 0.87863 0.2306 0.44992 0.0
C2226 C 0.89412 0.23936 0.43769 0.0
C2227 C 0.90291 0.2291 0.43044 0.0
C2228 C 0.89536 0.20965 0.4348 0.0
C2229 C 0.87999 0.20095 0.44711 0.0
C2230 C 0.88124 0.22733 0.4974 0.0
C2231 C 0.88292 0.24514 0.50385 0.0
C2232 C 0.90098 0.2613 0.50993 0.0
C2233 C 0.91769 0.25992 0.50962 0.0
C2234 C 0.91591 0.24198 0.50317 0.0
C2235 C 0.89783 0.22582 0.49718 0.0
C2236 C 0.85495 0.20739 0.52775 0.0
C2237 C 0.84845 0.21847 0.53821 0.0
C2238 C 0.85507 0.22548 0.55864 0.0
C2239 C 0.86793 0.22112 0.56887 0.0
C2240 C 0.87413 0.20975 0.55843 0.0
C2241 C 0.86779 0.20305 0.53798 0.0
C2242 C 0.81748 0.17354 0.51576 0.0
C2243 C 0.7997 0.17272 0.51625 0.0
C2244 C 0.78685 0.1621 0.5306 0.0
C2245 C 0.79168 0.15225 0.5447 0.0
C2246 C 0.80956 0.15327 0.54428 0.0
C2247 C 0.82228 0.16368 0.52983 0.0
C2248 C 0.81855 0.15661 0.37905 0.0
C2249 C 0.93692 0.27706 0.516 0.0
H2250 H 0.01104 0.52474 0.36684 0.0
H2251 H 0.02013 0.39593 0.19479 0.0
H2252 H 0.97379 0.51331 0.26406 0.0
H2253 H 0.97814 0.54462 0.27757 0.0
H2254 H 0.02597 0.57464 0.24042 0.0
H2255 H 0.02211 0.54344 0.22758 0.0
H2256 H 0.98012 0.48237 0.28624 0.0
H2257 H 0.98824 0.49563 0.32205 0.0
H2258 H 0.04122 0.54438 0.30518 0.0
H2259 H 0.03303 0.53083 0.26948 0.0
H2260 H 0.97788 0.44565 0.26268 0.0
H2261 H 0.98808 0.4271 0.28326 0.0
H2262 H 0.04683 0.47481 0.28667 0.0
H2263 H 0.03658 0.49317 0.26585 0.0
H2264 H 0.96731 0.43675 0.21515 0.0
H2265 H 0.96915 0.40818 0.20347 0.0
H2266 H 0.03127 0.44213 0.21287 0.0
H2267 H 0.02922 0.47064 0.22419 0.0
H2268 H 0.95949 0.46015 0.18829 0.0
H2269 H 0.956 0.44146 0.15585 0.0
H2270 H 0.01791 0.47086 0.15519 0.0
H2271 H 0.02126 0.48918 0.18759 0.0
H2272 H 0.9616 0.5051 0.21327 0.0
H2273 H 0.95653 0.52496 0.18919 0.0
H2274 H 0.00987 0.53882 0.16315 0.0
H2275 H 0.0152 0.51963 0.18774 0.0
O2276 O 0.00815 0.51971 0.35262 0.0
O2277 O 0.03515 0.54453 0.34312 0.0
O2278 O 0.98701 0.39022 0.19459 0.0
O2279 O 0.01897 0.40697 0.19943 0.0
C2280 C 0.9966 0.50747 0.23863 0.0
C2281 C 0.00087 0.49765 0.25354 0.0
C2282 C 0.00095 0.48048 0.24763 0.0
C2283 C 0.99701 0.47322 0.22689 0.0
C2284 C 0.99299 0.48312 0.21197 0.0
C2285 C 0.99258 0.50014 0.2178 0.0
C2286 C 0.99761 0.52611 0.24481 0.0
C2287 C 0.98509 0.52664 0.2587 0.0
C2288 C 0.98757 0.54443 0.26638 0.0
C2289 C 0.00232 0.56187 0.2599 0.0
C2290 C 0.01436 0.56131 0.24541 0.0
C2291 C 0.01213 0.54354 0.23804 0.0
C2292 C 0.00595 0.50568 0.27528 0.0
C2293 C 0.9935 0.49587 0.29034 0.0
C2294 C 0.99816 0.5035 0.31077 0.0
C2295 C 0.01536 0.52109 0.31648 0.0
C2296 C 0.02784 0.53082 0.30131 0.0
C2297 C 0.02319 0.52314 0.28091 0.0
C2298 C 0.00651 0.47068 0.26279 0.0
C2299 C 0.99288 0.4522 0.26822 0.0
C2300 C 0.9987 0.44168 0.27994 0.0
C2301 C 0.01825 0.44949 0.28627 0.0
C2302 C 0.03172 0.46841 0.2817 0.0
C2303 C 0.02588 0.47894 0.27001 0.0
C2304 C 0.99812 0.45571 0.22052 0.0
C2305 C 0.98129 0.43796 0.21467 0.0
C2306 C 0.98239 0.42168 0.20802 0.0
C2307 C 0.00037 0.42288 0.20722 0.0
C2308 C 0.0172 0.4407 0.21328 0.0
C2309 C 0.01608 0.45698 0.21983 0.0
C2310 C 0.99062 0.47602 0.19017 0.0
C2311 C 0.97224 0.46304 0.1807 0.0
C2312 C 0.97028 0.45237 0.16226 0.0
C2313 C 0.98671 0.45468 0.15318 0.0
C2314 C 0.00504 0.46875 0.16199 0.0
C2315 C 0.00697 0.47933 0.18034 0.0
C2316 C 0.98864 0.51073 0.20208 0.0
C2317 C 0.97206 0.51227 0.20221 0.0
C2318 C 0.96914 0.52351 0.18839 0.0
C2319 C 0.98273 0.53328 0.17418 0.0
C2320 C 0.99918 0.53147 0.17395 0.0
C2321 C 0.00214 0.52034 0.18781 0.0
C2322 C 0.02022 0.52921 0.33817 0.0
C2323 C 0.00163 0.40567 0.20003 0.0
H2324 H 0.49743 0.51666 0.37031 0.0
H2325 H 0.39197 0.35293 0.20244 0.0
H2326 H 0.50465 0.52066 0.26122 0.0
H2327 H 0.53055 0.55263 0.27555 0.0
H2328 H 0.57217 0.5348 0.26551 0.0
H2329 H 0.54604 0.5025 0.25154 0.0
H2330 H 0.47382 0.49138 0.28346 0.0
H2331 H 0.47923 0.50298 0.3197 0.0
H2332 H 0.52697 0.49279 0.32606 0.0
H2333 H 0.52125 0.48098 0.28984 0.0
H2334 H 0.44207 0.45738 0.25318 0.0
H2335 H 0.417 0.44212 0.27695 0.0
H2336 H 0.45304 0.42648 0.31205 0.0
H2337 H 0.47784 0.44117 0.28767 0.0
H2338 H 0.44436 0.44985 0.20887 0.0
H2339 H 0.41557 0.41965 0.19519 0.0
H2340 H 0.43545 0.38676 0.22839 0.0
H2341 H 0.46437 0.41709 0.24167 0.0
H2342 H 0.47982 0.48281 0.19065 0.0
H2343 H 0.46651 0.46966 0.15553 0.0
H2344 H 0.47259 0.41983 0.16489 0.0
H2345 H 0.48653 0.4334 0.19998 0.0
H2346 H 0.51047 0.51697 0.21408 0.0
H2347 H 0.53305 0.53679 0.18962 0.0
H2348 H 0.55312 0.4959 0.184 0.0
H2349 H 0.53009 0.47588 0.20814 0.0
O2350 O 0.49549 0.51193 0.35604 0.0
O2351 O 0.51997 0.50653 0.35847 0.0
O2352 O 0.39375 0.38269 0.19073 0.0
O2353 O 0.40321 0.3651 0.20767 0.0
C2354 C 0.50742 0.48956 0.24828 0.0
C2355 C 0.49386 0.47822 0.26204 0.0
C2356 C 0.47714 0.4606 0.25473 0.0
C2357 C 0.47434 0.45398 0.23382 0.0
C2358 C 0.4882 0.46508 0.22014 0.0
C2359 C 0.50471 0.4829 0.22738 0.0
C2360 C 0.52348 0.50924 0.25557 0.0
C2361 C 0.51936 0.52364 0.26211 0.0
C2362 C 0.5341 0.54184 0.27023 0.0
C2363 C 0.55324 0.54604 0.27159 0.0
C2364 C 0.55748 0.53185 0.26444 0.0
C2365 C 0.54265 0.51349 0.25653 0.0
C2366 C 0.49703 0.48516 0.28409 0.0
C2367 C 0.48533 0.4915 0.29276 0.0
C2368 C 0.4885 0.4982 0.31344 0.0
C2369 C 0.50351 0.49878 0.32579 0.0
C2370 C 0.51527 0.4925 0.31699 0.0
C2371 C 0.51204 0.48576 0.29632 0.0
C2372 C 0.46166 0.45019 0.26859 0.0
C2373 C 0.4444 0.45034 0.26579 0.0
C2374 C 0.43022 0.44184 0.27949 0.0
C2375 C 0.43307 0.4331 0.29631 0.0
C2376 C 0.45034 0.43284 0.29903 0.0
C2377 C 0.46452 0.44127 0.28521 0.0
C2378 C 0.45652 0.43564 0.22611 0.0
C2379 C 0.44251 0.4361 0.21309 0.0
C2380 C 0.42605 0.41883 0.20535 0.0
C2381 C 0.42323 0.40077 0.21067 0.0
C2382 C 0.43719 0.4004 0.22396 0.0
C2383 C 0.4537 0.4177 0.23161 0.0
C2384 C 0.48409 0.45904 0.19788 0.0
C2385 C 0.47895 0.46942 0.18492 0.0
C2386 C 0.47117 0.46181 0.16498 0.0
C2387 C 0.46823 0.4436 0.15775 0.0
C2388 C 0.47472 0.43389 0.17018 0.0
C2389 C 0.48263 0.44159 0.19016 0.0
C2390 C 0.51869 0.49503 0.21285 0.0
C2391 C 0.51978 0.51234 0.20758 0.0
C2392 C 0.53269 0.52363 0.19367 0.0
C2393 C 0.54473 0.5178 0.18477 0.0
C2394 C 0.54374 0.50054 0.19027 0.0
C2395 C 0.53072 0.48918 0.20413 0.0
C2396 C 0.50688 0.50596 0.34774 0.0
C2397 C 0.40582 0.38236 0.20239 0.0
H2398 H 0.50719 0.98872 0.37916 0.0
H2399 H 0.37224 0.97339 0.2027 0.0
H2400 H 0.53489 0.02281 0.2805 0.0
H2401 H 0.55981 0.01836 0.2975 0.0
H2402 H 0.54234 0.96723 0.25655 0.0
H2403 H 0.51671 0.97118 0.2404 0.0
H2404 H 0.49722 0.0159 0.30088 0.0
H2405 H 0.50182 0.00951 0.33617 0.0
H2406 H 0.49765 0.95548 0.31416 0.0
H2407 H 0.49279 0.96192 0.27897 0.0
H2408 H 0.46213 0.01631 0.2747 0.0
H2409 H 0.43647 0.00817 0.29786 0.0
H2410 H 0.42748 0.9502 0.29927 0.0
H2411 H 0.4529 0.95829 0.27581 0.0
H2412 H 0.46662 0.02614 0.2295 0.0
H2413 H 0.43668 0.0244 0.21706 0.0
H2414 H 0.40622 0.96203 0.22017 0.0
H2415 H 0.43631 0.96397 0.23234 0.0
H2416 H 0.50003 0.03446 0.20739 0.0
H2417 H 0.49012 0.03918 0.17316 0.0
H2418 H 0.45386 0.97698 0.16098 0.0
H2419 H 0.46376 0.9724 0.1951 0.0
H2420 H 0.53696 0.03478 0.22853 0.0
H2421 H 0.5602 0.04167 0.20264 0.0
H2422 H 0.52598 0.98226 0.17647 0.0
H2423 H 0.50254 0.97577 0.20192 0.0
O2424 O 0.50531 0.99094 0.3651 0.0
O2425 O 0.50327 0.96341 0.35298 0.0
O2426 O 0.40064 0.00658 0.20611 0.0
O2427 O 0.38428 0.9745 0.20759 0.0
C2428 C 0.50634 0.99751 0.2522 0.0
C2429 C 0.49193 0.99336 0.26597 0.0
C2430 C 0.4747 0.99273 0.25933 0.0
C2431 C 0.47188 0.99626 0.23896 0.0
C2432 C 0.4862 0.00029 0.22519 0.0
C2433 C 0.50343 0.00094 0.23179 0.0
C2434 C 0.52401 0.99734 0.2592 0.0
C2435 C 0.53675 0.01091 0.2749 0.0
C2436 C 0.55105 0.0084 0.28451 0.0
C2437 C 0.55309 0.99247 0.27831 0.0
C2438 C 0.54103 0.97957 0.26174 0.0
C2439 C 0.52656 0.98195 0.25232 0.0
C2440 C 0.49474 0.98941 0.28739 0.0
C2441 C 0.49725 0.00267 0.30374 0.0
C2442 C 0.49991 0.999 0.32387 0.0
C2443 C 0.50013 0.98199 0.32799 0.0
C2444 C 0.49758 0.96872 0.31153 0.0
C2445 C 0.49485 0.97238 0.29142 0.0
C2446 C 0.45939 0.98791 0.27362 0.0
C2447 C 0.45459 0.00186 0.27998 0.0
C2448 C 0.44001 0.99722 0.29319 0.0
C2449 C 0.43019 0.97864 0.30044 0.0
C2450 C 0.43508 0.96472 0.29413 0.0
C2451 C 0.44951 0.9693 0.28074 0.0
C2452 C 0.45361 0.99518 0.23178 0.0
C2453 C 0.45347 0.01212 0.22741 0.0
C2454 C 0.43635 0.01108 0.22035 0.0
C2455 C 0.41904 0.99306 0.21761 0.0
C2456 C 0.41927 0.97613 0.22211 0.0
C2457 C 0.43642 0.97719 0.2291 0.0
C2458 C 0.48262 0.00309 0.20362 0.0
C2459 C 0.49029 0.02188 0.19711 0.0
C2460 C 0.48458 0.02454 0.17768 0.0
C2461 C 0.47135 0.00843 0.16444 0.0
C2462 C 0.46434 0.98961 0.17074 0.0
C2463 C 0.46991 0.98698 0.1902 0.0
C2464 C 0.51815 0.00478 0.21707 0.0
C2465 C 0.53463 0.02326 0.21728 0.0
C2466 C 0.54792 0.02711 0.20258 0.0
C2467 C 0.54501 0.01245 0.18762 0.0
C2468 C 0.52856 0.99388 0.18771 0.0
C2469 C 0.51523 0.99011 0.20226 0.0
C2470 C 0.50299 0.97815 0.3494 0.0
C2471 C 0.40082 0.99187 0.21009 0.0
H2472 H 0.51651 0.05165 0.69816 0.0
H2473 H 0.60764 0.97781 0.84851 0.0
H2474 H 0.49903 0.03778 0.80636 0.0
H2475 H 0.47448 0.04309 0.78968 0.0
H2476 H 0.43496 0.98105 0.78304 0.0
H2477 H 0.45957 0.97588 0.80002 0.0
H2478 H 0.53346 0.04192 0.78292 0.0
H2479 H 0.5309 0.05154 0.74859 0.0
H2480 H 0.48288 0.9937 0.73131 0.0
H2481 H 0.48578 0.98421 0.76561 0.0
H2482 H 0.56404 0.03532 0.80906 0.0
H2483 H 0.58992 0.04326 0.78632 0.0
H2484 H 0.55118 0.99327 0.74518 0.0
H2485 H 0.5254 0.98505 0.76828 0.0
H2486 H 0.55816 0.02417 0.85244 0.0
H2487 H 0.58586 0.02156 0.86444 0.0
H2488 H 0.56547 0.96997 0.82317 0.0
H2489 H 0.53767 0.97259 0.81152 0.0
H2490 H 0.5213 0.02071 0.87141 0.0
H2491 H 0.53159 0.01813 0.90617 0.0
H2492 H 0.52535 0.96263 0.88682 0.0
H2493 H 0.51435 0.96498 0.85223 0.0
H2494 H 0.48965 0.02417 0.84816 0.0
H2495 H 0.46656 0.01873 0.87375 0.0
H2496 H 0.45045 0.95825 0.87205 0.0
H2497 H 0.47361 0.96379 0.8464 0.0
O2498 O 0.51733 0.04752 0.7116 0.0
O2499 O 0.49256 0.01764 0.70356 0.0
O2500 O 0.6066 0.00569 0.86509 0.0
O2501 O 0.59681 0.97919 0.84405 0.0
C2502 C 0.49694 0.00334 0.81114 0.0
C2503 C 0.51131 0.00664 0.79764 0.0
C2504 C 0.52727 0.00494 0.80418 0.0
C2505 C 0.52883 -0.00011 0.82422 0.0
C2506 C 0.51438 0.99647 0.83769 0.0
C2507 C 0.49829 0.99798 0.83107 0.0
C2508 C 0.48101 0.00646 0.80436 0.0
C2509 C 0.48491 0.02538 0.80172 0.0
C2510 C 0.47097 0.02837 0.7921 0.0
C2511 C 0.45288 0.01248 0.78505 0.0
C2512 C 0.4487 0.99356 0.78859 0.0
C2513 C 0.46269 0.99058 0.79825 0.0
C2514 C 0.50984 0.01237 0.77671 0.0
C2515 C 0.52248 0.03133 0.77165 0.0
C2516 C 0.52094 0.03679 0.75205 0.0
C2517 C 0.50668 0.02339 0.7372 0.0
C2518 C 0.49403 0.00438 0.74238 0.0
C2519 C 0.49563 0.99893 0.76195 0.0
C2520 C 0.5429 0.00953 0.79039 0.0
C2521 C 0.56119 0.02597 0.79524 0.0
C2522 C 0.57588 0.03053 0.78225 0.0
C2523 C 0.57242 0.01892 0.76402 0.0
C2524 C 0.55408 0.00254 0.75906 0.0
C2525 C 0.53943 0.99782 0.77223 0.0
C2526 C 0.54586 0.9985 0.83121 0.0
C2527 C 0.55966 0.01227 0.84609 0.0
C2528 C 0.57549 0.01077 0.85287 0.0
C2529 C 0.57787 0.99553 0.84478 0.0
C2530 C 0.56407 0.98186 0.82974 0.0
C2531 C 0.5482 0.98334 0.82303 0.0
C2532 C 0.51713 0.99306 0.85931 0.0
C2533 C 0.52151 0.00769 0.87485 0.0
C2534 C 0.52751 0.00626 0.89463 0.0
C2535 C 0.52929 0.9902 0.89916 0.0
C2536 C 0.52381 0.97501 0.88385 0.0
C2537 C 0.51767 0.97639 0.86408 0.0
C2538 C 0.48317 0.99434 0.84528 0.0
C2539 C 0.48085 0.00966 0.85299 0.0
C2540 C 0.46766 0.00653 0.86757 0.0
C2541 C 0.45658 0.98801 0.87469 0.0
C2542 C 0.4588 0.97264 0.86679 0.0
C2543 C 0.47194 0.97577 0.85214 0.0
C2544 C 0.50503 0.02926 0.71643 0.0
C2545 C 0.59464 0.99385 0.85197 0.0
H2546 H 0.96207 0.463 0.70599 0.0
H2547 H 0.02438 0.63132 0.86746 0.0
H2548 H 0.97166 0.4632 0.81647 0.0
H2549 H 0.96597 0.43132 0.80384 0.0
H2550 H 0.02677 0.45197 0.81428 0.0
H2551 H 0.03246 0.48422 0.8262 0.0
H2552 H 0.96759 0.49008 0.79185 0.0
H2553 H 0.95965 0.47731 0.7559 0.0
H2554 H 0.01868 0.49191 0.75081 0.0
H2555 H 0.02646 0.50484 0.78675 0.0
H2556 H 0.96903 0.52083 0.81161 0.0
H2557 H 0.96159 0.54053 0.78947 0.0
H2558 H 0.02052 0.57106 0.7736 0.0
H2559 H 0.02779 0.55086 0.79526 0.0
H2560 H 0.98177 0.53451 0.86115 0.0
H2561 H 0.98198 0.56422 0.87275 0.0
H2562 H 0.03599 0.59851 0.84581 0.0
H2563 H 0.03572 0.56869 0.83459 0.0
H2564 H 0.9897 0.50622 0.88617 0.0
H2565 H 0.99274 0.5229 0.91964 0.0
H2566 H 0.04728 0.57107 0.90546 0.0
H2567 H 0.04454 0.55391 0.87245 0.0
H2568 H 0.98454 0.46959 0.8637 0.0
H2569 H 0.99002 0.45082 0.88884 0.0
H2570 H 0.0508 0.49342 0.89429 0.0
H2571 H 0.04524 0.51202 0.86888 0.0
O2572 O 0.96555 0.46822 0.72015 0.0
O2573 O 0.99605 0.47596 0.71834 0.0
O2574 O 0.99626 0.60106 0.87682 0.0
O2575 O 0.02391 0.61934 0.86303 0.0
C2576 C 0.00577 0.4956 0.82834 0.0
C2577 C 0.00242 0.50615 0.81366 0.0
C2578 C 0.0037 0.52393 0.81979 0.0
C2579 C 0.0087 0.53141 0.84046 0.0
C2580 C 0.01271 0.52122 0.85506 0.0
C2581 C 0.01114 0.50323 0.84902 0.0
C2582 C 0.00247 0.476 0.82213 0.0
C2583 C 0.98374 0.46081 0.81611 0.0
C2584 C 0.98049 0.44256 0.80914 0.0
C2585 C 0.99591 0.4391 0.80835 0.0
C2586 C 0.01465 0.45427 0.81476 0.0
C2587 C 0.01791 0.47261 0.82162 0.0
C2588 C 0.99764 0.49857 0.7918 0.0
C2589 C 0.97882 0.49069 0.78288 0.0
C2590 C 0.97431 0.48332 0.76237 0.0
C2591 C 0.98854 0.48363 0.75046 0.0
C2592 C 0.00739 0.49148 0.75953 0.0
C2593 C 0.01188 0.49888 0.78003 0.0
C2594 C 0.99889 0.53441 0.80486 0.0
C2595 C 0.9802 0.53146 0.80297 0.0
C2596 C 0.97598 0.54263 0.7904 0.0
C2597 C 0.99051 0.55709 0.7799 0.0
C2598 C 0.00914 0.55982 0.7815 0.0
C2599 C 0.01327 0.54837 0.79379 0.0
C2600 C 0.00871 0.54949 0.84701 0.0
C2601 C 0.99362 0.54847 0.85778 0.0
C2602 C 0.99377 0.56545 0.86437 0.0
C2603 C 0.009 0.58376 0.86019 0.0
C2604 C 0.02404 0.58467 0.84927 0.0
C2605 C 0.0239 0.56767 0.84277 0.0
C2606 C 0.01689 0.52887 0.87689 0.0
C2607 C 0.00269 0.51998 0.89067 0.0
C2608 C 0.00436 0.52961 0.90966 0.0
C2609 C 0.02019 0.54832 0.91511 0.0
C2610 C 0.03507 0.55655 0.90188 0.0
C2611 C 0.03349 0.54681 0.88297 0.0
C2612 C 0.01451 0.49209 0.86444 0.0
C2613 C 0.99904 0.4748 0.87025 0.0
C2614 C 0.00218 0.46416 0.88461 0.0
C2615 C 0.02086 0.47061 0.89332 0.0
C2616 C 0.03633 0.48797 0.88752 0.0
C2617 C 0.03316 0.49866 0.87319 0.0
C2618 C 0.98369 0.47573 0.72869 0.0
C2619 C 0.00927 0.60185 0.86721 0.0
H2620 H 0.47486 0.49143 0.6926 0.0
H2621 H 0.63257 0.62516 0.85524 0.0
H2622 H 0.46232 0.50511 0.79583 0.0
H2623 H 0.43531 0.47369 0.78134 0.0
H2624 H 0.45839 0.44401 0.81529 0.0
H2625 H 0.48534 0.47539 0.82964 0.0
H2626 H 0.49877 0.53612 0.77242 0.0
H2627 H 0.48867 0.52212 0.73693 0.0
H2628 H 0.49313 0.47253 0.75279 0.0
H2629 H 0.5035 0.48684 0.78813 0.0
H2630 H 0.53942 0.57318 0.79571 0.0
H2631 H 0.56635 0.58884 0.77391 0.0
H2632 H 0.56969 0.53655 0.76896 0.0
H2633 H 0.54307 0.52109 0.79108 0.0
H2634 H 0.53668 0.58123 0.84364 0.0
H2635 H 0.5679 0.61056 0.8531 0.0
H2636 H 0.59638 0.57787 0.841 0.0
H2637 H 0.56506 0.54859 0.83195 0.0
H2638 H 0.50388 0.55557 0.8696 0.0
H2639 H 0.51563 0.56998 0.90501 0.0
H2640 H 0.55418 0.54724 0.90609 0.0
H2641 H 0.54247 0.53298 0.87086 0.0
H2642 H 0.46302 0.51391 0.84471 0.0
H2643 H 0.43998 0.49434 0.86904 0.0
H2644 H 0.48165 0.48117 0.89562 0.0
H2645 H 0.50422 0.5 0.87073 0.0
O2646 O 0.47921 0.49686 0.70661 0.0
O2647 O 0.4817 0.47167 0.71559 0.0
O2648 O 0.60466 0.62971 0.85864 0.0
O2649 O 0.62002 0.61373 0.85186 0.0
C2650 C 0.4938 0.51123 0.81958 0.0
C2651 C 0.50687 0.52053 0.80458 0.0
C2652 C 0.52485 0.53738 0.81029 0.0
C2653 C 0.52964 0.54516 0.83093 0.0
C2654 C 0.51658 0.53588 0.84591 0.0
C2655 C 0.49866 0.5189 0.84026 0.0
C2656 C 0.47579 0.4925 0.81371 0.0
C2657 C 0.46132 0.4918 0.80041 0.0
C2658 C 0.44603 0.47392 0.79207 0.0
C2659 C 0.44499 0.4565 0.79699 0.0
C2660 C 0.45887 0.45723 0.81129 0.0
C2661 C 0.4742 0.47511 0.81953 0.0
C2662 C 0.50176 0.51244 0.78284 0.0
C2663 C 0.49771 0.52231 0.76814 0.0
C2664 C 0.49188 0.51425 0.74791 0.0
C2665 C 0.49 0.49616 0.74205 0.0
C2666 C 0.49438 0.48646 0.7568 0.0
C2667 C 0.50028 0.49458 0.77699 0.0
C2668 C 0.53934 0.54603 0.795 0.0
C2669 C 0.54584 0.56506 0.78974 0.0
C2670 C 0.56121 0.57397 0.77741 0.0
C2671 C 0.57012 0.56389 0.77001 0.0
C2672 C 0.56299 0.54455 0.77448 0.0
C2673 C 0.54779 0.53573 0.78701 0.0
C2674 C 0.54863 0.56283 0.83704 0.0
C2675 C 0.54968 0.58042 0.84316 0.0
C2676 C 0.56752 0.59715 0.8485 0.0
C2677 C 0.58465 0.59657 0.84773 0.0
C2678 C 0.58349 0.57885 0.84171 0.0
C2679 C 0.56563 0.56211 0.8365 0.0
C2680 C 0.5224 0.54332 0.86773 0.0
C2681 C 0.51472 0.55358 0.87761 0.0
C2682 C 0.52148 0.56184 0.8977 0.0
C2683 C 0.53584 0.55976 0.90815 0.0
C2684 C 0.54303 0.54895 0.89838 0.0
C2685 C 0.53643 0.54088 0.8783 0.0
C2686 C 0.48534 0.50851 0.85608 0.0
C2687 C 0.4672 0.50694 0.85593 0.0
C2688 C 0.45414 0.4959 0.86991 0.0
C2689 C 0.45911 0.48639 0.88434 0.0
C2690 C 0.47744 0.48832 0.88465 0.0
C2691 C 0.4904 0.4992 0.87059 0.0
C2692 C 0.48342 0.48744 0.72065 0.0
C2693 C 0.60366 0.61436 0.8531 0.0
H2694 H 0.64658 0.8409 0.70384 0.0
H2695 H 0.66205 0.71372 0.53541 0.0
H2696 H 0.62171 0.83891 0.59848 0.0
H2697 H 0.62924 0.87152 0.61143 0.0
H2698 H 0.68071 0.89672 0.57867 0.0
H2699 H 0.67359 0.86417 0.56662 0.0
H2700 H 0.62185 0.80274 0.62084 0.0
H2701 H 0.62703 0.81432 0.65708 0.0
H2702 H 0.6832 0.86211 0.64634 0.0
H2703 H 0.67793 0.85025 0.61019 0.0
H2704 H 0.62176 0.7645 0.59645 0.0
H2705 H 0.63132 0.74493 0.61617 0.0
H2706 H 0.68868 0.79448 0.62795 0.0
H2707 H 0.67938 0.8138 0.60754 0.0
H2708 H 0.61234 0.75893 0.54996 0.0
H2709 H 0.61305 0.72961 0.53883 0.0
H2710 H 0.67467 0.76038 0.55353 0.0
H2711 H 0.6738 0.7897 0.5642 0.0
H2712 H 0.60781 0.78307 0.52364 0.0
H2713 H 0.60578 0.76685 0.48993 0.0
H2714 H 0.66782 0.79599 0.49258 0.0
H2715 H 0.66976 0.81172 0.52632 0.0
H2716 H 0.61105 0.82905 0.54762 0.0
H2717 H 0.60783 0.84869 0.52175 0.0
H2718 H 0.6629 0.86199 0.50083 0.0
H2719 H 0.66616 0.84263 0.52681 0.0
O2720 O 0.64486 0.83654 0.68948 0.0
O2721 O 0.67359 0.86089 0.68313 0.0
O2722 O 0.6297 0.71003 0.53214 0.0
O2723 O 0.66136 0.72513 0.53964 0.0
C2724 C 0.64401 0.82959 0.57571 0.0
C2725 C 0.64613 0.81863 0.59089 0.0
C2726 C 0.64551 0.80105 0.58509 0.0
C2727 C 0.64258 0.79432 0.56418 0.0
C2728 C 0.64028 0.80515 0.5491 0.0
C2729 C 0.64087 0.82271 0.5548 0.0
C2730 C 0.64707 0.84919 0.58157 0.0
C2731 C 0.63448 0.85151 0.59394 0.0
C2732 C 0.63873 0.87011 0.60118 0.0
C2733 C 0.65553 0.88665 0.59596 0.0
C2734 C 0.66773 0.88423 0.58302 0.0
C2735 C 0.66359 0.86568 0.57597 0.0
C2736 C 0.64945 0.82573 0.61288 0.0
C2737 C 0.63527 0.81569 0.62637 0.0
C2738 C 0.63826 0.82235 0.64705 0.0
C2739 C 0.65551 0.83918 0.6546 0.0
C2740 C 0.66974 0.84914 0.64102 0.0
C2741 C 0.66674 0.84243 0.62035 0.0
C2742 C 0.6499 0.79055 0.60052 0.0
C2743 C 0.63627 0.77124 0.60363 0.0
C2744 C 0.6417 0.76012 0.61483 0.0
C2745 C 0.66069 0.76833 0.62341 0.0
C2746 C 0.67393 0.78799 0.62153 0.0
C2747 C 0.66861 0.79901 0.61 0.0
C2748 C 0.64301 0.77641 0.55785 0.0
C2749 C 0.62598 0.75931 0.55068 0.0
C2750 C 0.62642 0.74258 0.54439 0.0
C2751 C 0.64393 0.74265 0.54529 0.0
C2752 C 0.66096 0.75982 0.55261 0.0
C2753 C 0.6605 0.77658 0.55877 0.0
C2754 C 0.63893 0.79862 0.52726 0.0
C2755 C 0.62093 0.78631 0.51665 0.0
C2756 C 0.61979 0.77701 0.49757 0.0
C2757 C 0.63666 0.78021 0.48885 0.0
C2758 C 0.65466 0.79345 0.49898 0.0
C2759 C 0.65578 0.80245 0.51815 0.0
C2760 C 0.6387 0.83418 0.53887 0.0
C2761 C 0.62237 0.83618 0.5374 0.0
C2762 C 0.62059 0.84743 0.52274 0.0
C2763 C 0.63513 0.85681 0.50935 0.0
C2764 C 0.65142 0.85473 0.51085 0.0
C2765 C 0.65325 0.84362 0.52558 0.0
C2766 C 0.65861 0.84625 0.67657 0.0
C2767 C 0.64448 0.72492 0.53861 0.0
H2768 H 0.16298 0.85487 0.70345 0.0
H2769 H 0.06169 0.68356 0.54035 0.0
H2770 H 0.17217 0.85373 0.59348 0.0
H2771 H 0.19757 0.8858 0.60807 0.0
H2772 H 0.23851 0.866 0.60766 0.0
H2773 H 0.21294 0.83386 0.59261 0.0
H2774 H 0.14062 0.82496 0.61746 0.0
H2775 H 0.14544 0.83842 0.65298 0.0
H2776 H 0.19246 0.82766 0.66365 0.0
H2777 H 0.18732 0.81403 0.62815 0.0
H2778 H 0.10912 0.78904 0.58783 0.0
H2779 H 0.0835 0.77438 0.61103 0.0
H2780 H 0.11912 0.76056 0.64946 0.0
H2781 H 0.14455 0.77463 0.6256 0.0
H2782 H 0.11242 0.78047 0.54436 0.0
H2783 H 0.08415 0.7497 0.53095 0.0
H2784 H 0.10421 0.71855 0.56703 0.0
H2785 H 0.13258 0.74944 0.5801 0.0
H2786 H 0.14895 0.81387 0.52589 0.0
H2787 H 0.13703 0.80009 0.49061 0.0
H2788 H 0.14208 0.75029 0.50345 0.0
H2789 H 0.15454 0.76441 0.53873 0.0
H2790 H 0.17925 0.84948 0.55158 0.0
H2791 H 0.20249 0.8696 0.52781 0.0
H2792 H 0.22018 0.82704 0.51977 0.0
H2793 H 0.19706 0.80704 0.54396 0.0
O2794 O 0.16119 0.84929 0.68952 0.0
O2795 O 0.18526 0.84349 0.69419 0.0
O2796 O 0.0626 0.71269 0.52793 0.0
O2797 O 0.07271 0.69593 0.54547 0.0
C2798 C 0.1748 0.82178 0.58493 0.0
C2799 C 0.16096 0.81073 0.59857 0.0
C2800 C 0.14446 0.79291 0.59137 0.0
C2801 C 0.14214 0.78583 0.57065 0.0
C2802 C 0.15619 0.79676 0.55704 0.0
C2803 C 0.17249 0.81482 0.56418 0.0
C2804 C 0.19074 0.8415 0.5922 0.0
C2805 C 0.18665 0.85636 0.59644 0.0
C2806 C 0.2011 0.87457 0.60488 0.0
C2807 C 0.21986 0.87818 0.6094 0.0
C2808 C 0.22412 0.86351 0.6044 0.0
C2809 C 0.20961 0.84523 0.59585 0.0
C2810 C 0.16351 0.81838 0.62031 0.0
C2811 C 0.15182 0.82535 0.62756 0.0
C2812 C 0.15467 0.83311 0.64783 0.0
C2813 C 0.16934 0.83412 0.66116 0.0
C2814 C 0.18102 0.82709 0.6538 0.0
C2815 C 0.17812 0.81929 0.63355 0.0
C2816 C 0.12865 0.78282 0.60498 0.0
C2817 C 0.11131 0.78262 0.60111 0.0
C2818 C 0.09682 0.77452 0.61454 0.0
C2819 C 0.09951 0.76673 0.63229 0.0
C2820 C 0.11673 0.76656 0.63594 0.0
C2821 C 0.13122 0.77457 0.62237 0.0
C2822 C 0.12461 0.76716 0.56308 0.0
C2823 C 0.11071 0.76698 0.5493 0.0
C2824 C 0.09455 0.74939 0.5417 0.0
C2825 C 0.09194 0.73165 0.54789 0.0
C2826 C 0.1058 0.73193 0.56191 0.0
C2827 C 0.12199 0.74955 0.56945 0.0
C2828 C 0.15259 0.79013 0.53489 0.0
C2829 C 0.14815 0.80033 0.52093 0.0
C2830 C 0.14129 0.79243 0.50083 0.0
C2831 C 0.1385 0.77409 0.49449 0.0
C2832 C 0.144 0.7644 0.50811 0.0
C2833 C 0.15113 0.77244 0.52816 0.0
C2834 C 0.18664 0.82692 0.54971 0.0
C2835 C 0.18831 0.84461 0.54492 0.0
C2836 C 0.20152 0.85604 0.53133 0.0
C2837 C 0.21309 0.84984 0.52202 0.0
C2838 C 0.21131 0.83205 0.52667 0.0
C2839 C 0.1982 0.82068 0.54047 0.0
C2840 C 0.17247 0.84256 0.68262 0.0
C2841 C 0.07485 0.71291 0.53979 0.0
H2842 H 0.19253 0.34231 0.72009 0.0
H2843 H 0.0508 0.3351 0.55349 0.0
H2844 H 0.21451 0.3744 0.61912 0.0
H2845 H 0.23807 0.36722 0.63511 0.0
H2846 H 0.21234 0.31283 0.59768 0.0
H2847 H 0.18862 0.31989 0.58205 0.0
H2848 H 0.17852 0.36969 0.64373 0.0
H2849 H 0.18521 0.36335 0.67838 0.0
H2850 H 0.17515 0.30711 0.65515 0.0
H2851 H 0.16815 0.3135 0.62068 0.0
H2852 H 0.14182 0.37 0.62333 0.0
H2853 H 0.11596 0.36028 0.6466 0.0
H2854 H 0.10387 0.30105 0.63932 0.0
H2855 H 0.1295 0.31079 0.61591 0.0
H2856 H 0.14601 0.38183 0.57542 0.0
H2857 H 0.11686 0.38264 0.56529 0.0
H2858 H 0.08295 0.32029 0.56781 0.0
H2859 H 0.11225 0.31969 0.57771 0.0
H2860 H 0.17591 0.38584 0.54763 0.0
H2861 H 0.16579 0.38816 0.51239 0.0
H2862 H 0.12703 0.326 0.506 0.0
H2863 H 0.13706 0.32382 0.54107 0.0
H2864 H 0.21395 0.38395 0.56767 0.0
H2865 H 0.23493 0.387 0.54022 0.0
H2866 H 0.19401 0.32814 0.51629 0.0
H2867 H 0.17333 0.32513 0.54384 0.0
O2868 O 0.18965 0.34443 0.70634 0.0
O2869 O 0.18465 0.31581 0.69354 0.0
O2870 O 0.08066 0.36723 0.55638 0.0
O2871 O 0.06256 0.3352 0.5575 0.0
C2872 C 0.18286 0.34946 0.59386 0.0
C2873 C 0.16948 0.34629 0.60863 0.0
C2874 C 0.15248 0.34655 0.60323 0.0
C2875 C 0.149 0.35035 0.58318 0.0
C2876 C 0.16216 0.35313 0.56835 0.0
C2877 C 0.17906 0.35262 0.57364 0.0
C2878 C 0.19987 0.34766 0.59945 0.0
C2879 C 0.21435 0.36122 0.61395 0.0
C2880 C 0.22772 0.35709 0.62309 0.0
C2881 C 0.22672 0.33932 0.61786 0.0
C2882 C 0.21316 0.32647 0.6022 0.0
C2883 C 0.19981 0.33061 0.59307 0.0
C2884 C 0.173 0.34212 0.62971 0.0
C2885 C 0.17767 0.35598 0.6462 0.0
C2886 C 0.18153 0.35233 0.66595 0.0
C2887 C 0.18079 0.33475 0.66953 0.0
C2888 C 0.1759 0.32082 0.65294 0.0
C2889 C 0.17195 0.32445 0.63323 0.0
C2890 C 0.13753 0.3411 0.61803 0.0
C2891 C 0.13366 0.35497 0.62691 0.0
C2892 C 0.11902 0.34944 0.64026 0.0
C2893 C 0.10807 0.32995 0.64485 0.0
C2894 C 0.11211 0.31615 0.63601 0.0
C2895 C 0.12675 0.3217 0.62275 0.0
C2896 C 0.1312 0.35073 0.5774 0.0
C2897 C 0.13226 0.36838 0.57378 0.0
C2898 C 0.11559 0.36879 0.56801 0.0
C2899 C 0.09755 0.35152 0.56577 0.0
C2900 C 0.09659 0.33385 0.56943 0.0
C2901 C 0.11328 0.33347 0.57515 0.0
C2902 C 0.1572 0.35466 0.54678 0.0
C2903 C 0.1654 0.37275 0.53848 0.0
C2904 C 0.15963 0.37405 0.51847 0.0
C2905 C 0.14584 0.35722 0.5065 0.0
C2906 C 0.13796 0.33912 0.5148 0.0
C2907 C 0.14356 0.33787 0.5348 0.0
C2908 C 0.19215 0.35434 0.55765 0.0
C2909 C 0.20961 0.37173 0.55651 0.0
C2910 C 0.22145 0.37349 0.54079 0.0
C2911 C 0.21597 0.35785 0.52605 0.0
C2912 C 0.19858 0.34039 0.52747 0.0
C2913 C 0.18676 0.33867 0.54312 0.0
C2914 C 0.18512 0.33102 0.69048 0.0
C2915 C 0.0798 0.35187 0.5596 0.0
C2916 C 0.99471 0.41872 0.12179 0.0
C2917 C 0.9838 0.41557 0.1032 0.0
C2918 C 0.99534 0.43124 0.13785 0.0
C2919 C 0.98505 0.44108 0.13598 0.0
H2920 H 0.0033 0.41188 0.12376 0.0
H2921 H 0.00405 0.43332 0.15185 0.0
S2922 S 0.95348 0.43707 0.09098 0.0
N2923 N 0.96177 0.42262 0.08417 0.0
N2924 N 0.96311 0.44639 0.11446 0.0
C2925 C 0.97366 0.4377 0.11774 0.0
C2926 C 0.97307 0.42496 0.10129 0.0
C2927 C 0.5817 0.56199 0.15983 0.0
C2928 C 0.5827 0.5541 0.14057 0.0
C2929 C 0.56968 0.5501 0.17414 0.0
C2930 C 0.55821 0.52984 0.16978 0.0
H2931 H 0.58984 0.57756 0.16368 0.0
H2932 H 0.56924 0.55685 0.18869 0.0
S2933 S 0.55621 0.50185 0.12194 0.0
N2934 N 0.57192 0.52467 0.11829 0.0
N2935 N 0.54887 0.50235 0.14497 0.0
C2936 C 0.55939 0.5217 0.15078 0.0
C2937 C 0.5717 0.53382 0.13621 0.0
C2938 C 0.44484 0.02345 0.12735 0.0
C2939 C 0.44355 0.01305 0.10884 0.0
C2940 C 0.4547 0.02262 0.14505 0.0
C2941 C 0.46341 0.01116 0.14492 0.0
H2942 H 0.43782 0.03197 0.12825 0.0
H2943 H 0.4548 0.03034 0.15915 0.0
S2944 S 0.46492 0.98186 0.10019 0.0
N2945 N 0.4524 0.99149 0.09127 0.0
N2946 N 0.47096 0.98997 0.12458 0.0
C2947 C 0.46275 0.00118 0.12638 0.0
C2948 C 0.45284 0.00214 0.10831 0.0
C2949 C 0.4339 0.97474 0.92534 0.0
C2950 C 0.42065 0.9813 0.92458 0.0
C2951 C 0.44506 0.97646 0.90889 0.0
C2952 C 0.44353 0.985 0.89117 0.0
H2953 H 0.43578 0.9684 0.93884 0.0
H2954 H 0.45537 0.97158 0.91029 0.0
S2955 S 0.41068 0.00403 0.88131 0.0
N2956 N 0.40645 0.99641 0.9045 0.0
N2957 N 0.42727 0.99941 0.8735 0.0
C2958 C 0.43009 0.99128 0.89005 0.0
C2959 C 0.41867 0.98945 0.90675 0.0
C2960 C 0.01492 0.44339 0.94068 0.0
C2961 C 0.02848 0.43729 0.9392 0.0
C2962 C 0.01265 0.4542 0.92582 0.0
C2963 C 0.02393 0.45946 0.90895 0.0
H2964 H 0.00572 0.43945 0.95327 0.0
H2965 H 0.00199 0.45852 0.92756 0.0
S2966 S 0.06156 0.44729 0.89798 0.0
N2967 N 0.05349 0.43748 0.91964 0.0
N2968 N 0.04913 0.45778 0.89152 0.0
C2969 C 0.03766 0.45363 0.90732 0.0
C2970 C 0.03991 0.44249 0.92244 0.0
C2971 C 0.55493 0.56779 0.96372 0.0
C2972 C 0.5643 0.58812 0.96754 0.0
C2973 C 0.54513 0.55862 0.94468 0.0
C2974 C 0.54413 0.56944 0.92888 0.0
H2975 H 0.55592 0.55898 0.97522 0.0
H2976 H 0.53867 0.543 0.9421 0.0
S2977 S 0.56505 0.62288 0.93161 0.0
N2978 N 0.57103 0.61868 0.9544 0.0
N2979 N 0.55259 0.60142 0.91854 0.0
C2980 C 0.5527 0.58967 0.93278 0.0
C2981 C 0.56282 0.59903 0.95211 0.0
C2982 C 0.00266 0.57368 0.95097 0.0
C2983 C 0.01876 0.58526 0.96489 0.0
C2984 C 0.00318 0.56144 0.93535 0.0
C2985 C 0.01981 0.56022 0.933 0.0
H2986 H 0.9895 0.57409 0.95212 0.0
H2987 H 0.99058 0.55324 0.92468 0.0
S2988 S 0.06567 0.58706 0.96573 0.0
N2989 N 0.05176 0.59457 0.97549 0.0
N2990 N 0.05261 0.57117 0.94627 0.0
C2991 C 0.03593 0.57145 0.947 0.0
C2992 C 0.03541 0.58399 0.96295 0.0
C2993 C 0.42902 0.44235 0.91341 0.0
C2994 C 0.41844 0.44814 0.9254 0.0
C2995 C 0.442 0.45479 0.90016 0.0
C2996 C 0.44495 0.47355 0.89833 0.0
H2997 H 0.42755 0.42818 0.91456 0.0
H2998 H 0.44979 0.44965 0.89122 0.0
S2999 S 0.42059 0.49566 0.92602 0.0
N3000 N 0.41139 0.47372 0.93422 0.0
N3001 N 0.43621 0.49736 0.90957 0.0
C3002 C 0.43435 0.47951 0.91006 0.0
C3003 C 0.42106 0.46678 0.92358 0.0
C3004 C 0.56765 0.00748 0.94309 0.0
C3005 C 0.56078 0.99142 0.95494 0.0
C3006 C 0.55706 0.00707 0.92544 0.0
C3007 C 0.53917 0.99056 0.91891 0.0
H3008 H 0.58145 0.02045 0.9474 0.0
H3009 H 0.5632 0.01961 0.91651 0.0
S3010 S 0.51444 0.94493 0.94492 0.0
N3011 N 0.5348 0.95867 0.95922 0.0
N3012 N 0.51468 0.95799 0.92603 0.0
C3013 C 0.53191 0.97452 0.93082 0.0
C3014 C 0.54272 0.97496 0.94889 0.0
C3015 C 0.56362 0.01287 0.13532 0.0
C3016 C 0.58372 0.02222 0.13958 0.0
C3017 C 0.55135 0.01008 0.15089 0.0
C3018 C 0.55861 0.01647 0.17142 0.0
H3019 H 0.55722 0.00714 0.11987 0.0
H3020 H 0.53598 0.00273 0.1468 0.0
S3021 S 0.61014 0.04241 0.19071 0.0
N3022 N 0.6104 0.03867 0.16577 0.0
N3023 N 0.58724 0.03283 0.19518 0.0
C3024 C 0.57869 0.02616 0.1759 0.0
C3025 C 0.59124 0.02911 0.15998 0.0
C3026 C 0.99436 0.57703 0.14456 0.0
C3027 C 0.97735 0.57081 0.13201 0.0
C3028 C 0.99582 0.56489 0.1583 0.0
C3029 C 0.98032 0.54603 0.16008 0.0
H3030 H 0.00688 0.59123 0.14336 0.0
H3031 H 0.00925 0.57028 0.16753 0.0
S3032 S 0.93234 0.52301 0.13134 0.0
N3033 N 0.94439 0.54483 0.12286 0.0
N3034 N 0.94728 0.52179 0.14844 0.0
C3035 C 0.96308 0.53973 0.14796 0.0
C3036 C 0.96158 0.55214 0.13395 0.0
C3037 C 0.4523 0.41749 0.10436 0.0
C3038 C 0.43364 0.4146 0.10103 0.0
C3039 C 0.46351 0.42683 0.12281 0.0
C3040 C 0.4565 0.43384 0.13829 0.0
H3041 H 0.45817 0.4123 0.09274 0.0
H3042 H 0.47777 0.42872 0.12491 0.0
S3043 S 0.40867 0.43003 0.13704 0.0
N3044 N 0.40882 0.41974 0.11465 0.0
N3045 N 0.42971 0.43697 0.14931 0.0
C3046 C 0.4379 0.43105 0.13511 0.0
C3047 C 0.42651 0.42152 0.11647 0.0
C3048 C 0.64676 0.76708 0.43644 0.0
C3049 C 0.63895 0.74686 0.4364 0.0
C3050 C 0.64533 0.77776 0.45318 0.0
C3051 C 0.63577 0.76852 0.47024 0.0
H3052 H 0.65474 0.77482 0.42385 0.0
H3053 H 0.65215 0.79341 0.45303 0.0
S3054 S 0.61205 0.71584 0.47723 0.0
N3055 N 0.62064 0.71792 0.45448 0.0
N3056 N 0.61795 0.73805 0.48595 0.0
C3057 C 0.6273 0.74825 0.47008 0.0
C3058 C 0.62891 0.7374 0.45315 0.0
C3059 C 0.2519 0.89404 0.49889 0.0
C3060 C 0.25117 0.88701 0.47857 0.0
C3061 C 0.23989 0.88179 0.51299 0.0
C3062 C 0.22679 0.86201 0.50734 0.0
H3063 H 0.26163 0.90923 0.50385 0.0
H3064 H 0.2407 0.88788 0.52838 0.0
S3065 S 0.21895 0.8364 0.45605 0.0
N3066 N 0.23609 0.85898 0.4535 0.0
N3067 N 0.21369 0.8359 0.48015 0.0
C3068 C 0.22619 0.85465 0.48725 0.0
C3069 C 0.23835 0.86715 0.47284 0.0
C3070 C 0.12045 0.36924 0.46488 0.0
C3071 C 0.11896 0.35688 0.44796 0.0
C3072 C 0.13017 0.37011 0.4835 0.0
C3073 C 0.13851 0.35846 0.48589 0.0
H3074 H 0.1136 0.37789 0.46386 0.0
H3075 H 0.13036 0.37924 0.49639 0.0
S3076 S 0.13971 0.32466 0.446 0.0
N3077 N 0.12746 0.33349 0.43453 0.0
N3078 N 0.14577 0.3352 0.46956 0.0
C3079 C 0.13782 0.34667 0.46889 0.0
C3080 C 0.12805 0.34588 0.44989 0.0
C3081 C 0.08163 0.29616 0.24606 0.0
C3082 C 0.09159 0.3071 0.26454 0.0
C3083 C 0.0916 0.2961 0.22906 0.0
C3084 C 0.1118 0.30725 0.2299 0.0
H3085 H 0.06604 0.28773 0.24472 0.0
H3086 H 0.08345 0.28769 0.21501 0.0
S3087 S 0.14459 0.33798 0.27471 0.0
N3088 N 0.12278 0.32906 0.28271 0.0
N3089 N 0.14145 0.32891 0.25075 0.0
C3090 C 0.12191 0.31797 0.24834 0.0
C3091 C 0.11182 0.31789 0.26568 0.0
C3092 C 0.68735 0.78056 0.27216 0.0
C3093 C 0.70063 0.7741 0.27344 0.0
C3094 C 0.68873 0.79356 0.25789 0.0
C3095 C 0.70332 0.80043 0.24419 0.0
H3096 H 0.6757 0.77537 0.28218 0.0
H3097 H 0.67814 0.79811 0.25747 0.0
S3098 S 0.74159 0.78769 0.24142 0.0
N3099 N 0.72896 0.77559 0.26025 0.0
N3100 N 0.73136 0.79974 0.2329 0.0
C3101 C 0.71693 0.79433 0.24559 0.0
C3102 C 0.71561 0.7812 0.26034 0.0
C3103 C 0.21768 0.90273 0.29886 0.0
C3104 C 0.2282 0.92305 0.30309 0.0
C3105 C 0.20796 0.8943 0.2796 0.0
C3106 C 0.20821 0.90589 0.26402 0.0
H3107 H 0.21773 0.89332 0.31018 0.0
H3108 H 0.20064 0.87863 0.27667 0.0
S3109 S 0.23241 0.95968 0.26786 0.0
N3110 N 0.23736 0.95447 0.29059 0.0
N3111 N 0.21901 0.93859 0.25434 0.0
C3112 C 0.2179 0.92615 0.26835 0.0
C3113 C 0.22795 0.93475 0.2879 0.0
C3114 C 0.71101 0.93235 0.28501 0.0
C3115 C 0.70363 0.92336 0.30303 0.0
C3116 C 0.71441 0.92258 0.2689 0.0
C3117 C 0.71049 0.9034 0.27018 0.0
H3118 H 0.71362 0.94686 0.2831 0.0
H3119 H 0.71918 0.92973 0.25493 0.0
S3120 S 0.69247 0.87388 0.31459 0.0
N3121 N 0.69344 0.89452 0.32161 0.0
N3122 N 0.70022 0.8763 0.29142 0.0
C3123 C 0.70402 0.89459 0.28848 0.0
C3124 C 0.70054 0.90454 0.3049 0.0
C3125 C 0.09322 0.78101 0.24692 0.0
C3126 C 0.08475 0.78788 0.26081 0.0
C3127 C 0.10582 0.79312 0.23317 0.0
C3128 C 0.11037 0.81255 0.23268 0.0
H3129 H 0.09045 0.76626 0.247 0.0
H3130 H 0.11212 0.78724 0.22286 0.0
S3131 S 0.09162 0.83748 0.2654 0.0
N3132 N 0.08137 0.8152 0.27287 0.0
N3133 N 0.10526 0.83809 0.24704 0.0
C3134 C 0.10177 0.81955 0.24621 0.0
C3135 C 0.08896 0.80721 0.26032 0.0
C3136 C 0.23201 0.32818 0.27383 0.0
C3137 C 0.22408 0.31421 0.28819 0.0
C3138 C 0.2215 0.32657 0.25558 0.0
C3139 C 0.20267 0.31086 0.2509 0.0
H3140 H 0.24651 0.3405 0.27674 0.0
H3141 H 0.22833 0.33755 0.24485 0.0
S3142 S 0.17516 0.27054 0.28346 0.0
N3143 N 0.19618 0.28425 0.29665 0.0
N3144 N 0.17632 0.28125 0.26221 0.0
C3145 C 0.19446 0.29685 0.26516 0.0
C3146 C 0.20516 0.29856 0.28387 0.0
C3147 C 0.24402 0.34559 0.48922 0.0
C3148 C 0.25044 0.36062 0.47596 0.0
C3149 C 0.23311 0.34499 0.50551 0.0
C3150 C 0.22832 0.35946 0.50927 0.0
H3151 H 0.24707 0.33394 0.48672 0.0
H3152 H 0.22832 0.33304 0.51521 0.0
S3153 S 0.24201 0.4022 0.47939 0.0
N3154 N 0.25164 0.39059 0.46797 0.0
N3155 N 0.23092 0.38935 0.49854 0.0
C3156 C 0.23489 0.37475 0.49635 0.0
C3157 C 0.24594 0.37531 0.47967 0.0
C3158 C 0.6361 0.87765 0.45844 0.0
C3159 C 0.63374 0.89356 0.46373 0.0
C3160 C 0.6361 0.86559 0.47323 0.0
C3161 C 0.63355 0.86888 0.49381 0.0
H3162 H 0.63866 0.8749 0.44288 0.0
H3163 H 0.63839 0.85374 0.46859 0.0
S3164 S 0.62581 0.90797 0.5154 0.0
N3165 N 0.62796 0.91149 0.4908 0.0
N3166 N 0.62805 0.88881 0.51867 0.0
C3167 C 0.63058 0.88436 0.49921 0.0
C3168 C 0.6307 0.89673 0.48417 0.0
C3169 C 0.12298 0.76579 0.43775 0.0
C3170 C 0.10499 0.74853 0.4367 0.0
C3171 C 0.13418 0.77369 0.45642 0.0
C3172 C 0.1279 0.76437 0.47451 0.0
H3173 H 0.12802 0.77366 0.42424 0.0
H3174 H 0.14763 0.78741 0.45682 0.0
S3175 S 0.08242 0.71823 0.47955 0.0
N3176 N 0.08181 0.7219 0.45503 0.0
N3177 N 0.10292 0.73666 0.4901 0.0
C3178 C 0.11031 0.74669 0.47347 0.0
C3179 C 0.09883 0.7388 0.45455 0.0
C3180 C 0.295 0.06854 0.78615 0.0
C3181 C 0.30079 0.07654 0.76734 0.0
C3182 C 0.29219 0.0789 0.80215 0.0
C3183 C 0.29539 0.0977 0.79993 0.0
H3184 H 0.29321 0.05444 0.78869 0.0
H3185 H 0.28846 0.07258 0.8167 0.0
S3186 S 0.30983 0.12469 0.75343 0.0
N3187 N 0.30879 0.10389 0.74703 0.0
N3188 N 0.30378 0.12353 0.7773 0.0
C3189 C 0.30054 0.10558 0.78098 0.0
C3190 C 0.30315 0.09492 0.7646 0.0
C3191 C 0.92043 0.2237 0.82784 0.0
C3192 C 0.91844 0.21678 0.80719 0.0
C3193 C 0.90845 0.21174 0.84214 0.0
C3194 C 0.89416 0.19237 0.83635 0.0
H3195 H 0.9311 0.23861 0.83291 0.0
H3196 H 0.91021 0.21775 0.85779 0.0
S3197 S 0.88279 0.16718 0.78433 0.0
N3198 N 0.90088 0.18928 0.78172 0.0
N3199 N 0.8786 0.16671 0.80879 0.0
C3200 C 0.8923 0.18507 0.81595 0.0
C3201 C 0.9044 0.19729 0.80132 0.0
C3202 C 0.78901 0.70524 0.79314 0.0
C3203 C 0.78538 0.69107 0.77719 0.0
C3204 C 0.7988 0.70631 0.81179 0.0
C3205 C 0.8052 0.69318 0.8152 0.0
H3206 H 0.78372 0.7152 0.79141 0.0
H3207 H 0.8005 0.71685 0.82398 0.0
S3208 S 0.80098 0.65457 0.7779 0.0
N3209 N 0.79005 0.66439 0.76572 0.0
N3210 N 0.8088 0.66674 0.80065 0.0
C3211 C 0.80262 0.67965 0.79905 0.0
C3212 C 0.79265 0.67854 0.78007 0.0
C3213 C 0.74534 0.63159 0.576 0.0
C3214 C 0.75523 0.644 0.59372 0.0
C3215 C 0.75513 0.63181 0.55872 0.0
C3216 C 0.77505 0.64471 0.5585 0.0
H3217 H 0.72996 0.62159 0.57553 0.0
H3218 H 0.74703 0.62207 0.54534 0.0
S3219 S 0.80754 0.68008 0.60098 0.0
N3220 N 0.78603 0.66953 0.60994 0.0
N3221 N 0.80439 0.66983 0.57756 0.0
C3222 C 0.78509 0.65711 0.57614 0.0
C3223 C 0.77519 0.65678 0.59373 0.0
C3224 C 0.37287 0.12573 0.6086 0.0
C3225 C 0.36567 0.10571 0.6043 0.0
C3226 C 0.37376 0.13751 0.59304 0.0
C3227 C 0.36723 0.12962 0.57268 0.0
H3228 H 0.37753 0.13224 0.62419 0.0
H3229 H 0.37894 0.15275 0.59709 0.0
S3230 S 0.34771 0.07822 0.55336 0.0
N3231 N 0.35236 0.07862 0.5782 0.0
N3232 N 0.35415 0.10079 0.54889 0.0
C3233 C 0.36048 0.10974 0.5681 0.0
C3234 C 0.3597 0.09779 0.58392 0.0
C3235 C 0.89711 0.25768 0.61352 0.0
C3236 C 0.89604 0.24578 0.62912 0.0
C3237 C 0.88708 0.24958 0.59432 0.0
C3238 C 0.87594 0.22932 0.59003 0.0
H3239 H 0.90611 0.27335 0.61606 0.0
H3240 H 0.88872 0.25918 0.58247 0.0
S3241 S 0.86781 0.19193 0.62588 0.0
N3242 N 0.88235 0.21282 0.6393 0.0
N3243 N 0.86367 0.19757 0.60305 0.0
C3244 C 0.87429 0.21729 0.60566 0.0
C3245 C 0.88429 0.22554 0.62528 0.0
C3246 C 0.37236 0.24486 0.63273 0.0
C3247 C 0.36023 0.25269 0.63071 0.0
C3248 C 0.37394 0.23395 0.61624 0.0
C3249 C 0.36303 0.23018 0.59751 0.0
H3250 H 0.38075 0.24731 0.64708 0.0
H3251 H 0.38353 0.22825 0.61818 0.0
S3252 S 0.32911 0.24729 0.58468 0.0
N3253 N 0.33726 0.25601 0.60864 0.0
N3254 N 0.33989 0.2352 0.57785 0.0
C3255 C 0.35082 0.23787 0.59541 0.0
C3256 C 0.34949 0.2492 0.61199 0.0
C3257 C 0.77243 0.13212 0.59507 0.0
C3258 C 0.75376 0.11661 0.58906 0.0
C3259 C 0.78444 0.14385 0.58066 0.0
C3260 C 0.77814 0.14065 0.55976 0.0
H3261 H 0.77805 0.13478 0.61093 0.0
H3262 H 0.79889 0.15537 0.58585 0.0
S3263 S 0.73018 0.10261 0.53628 0.0
N3264 N 0.72922 0.09918 0.56094 0.0
N3265 N 0.75188 0.12126 0.5338 0.0
C3266 C 0.75931 0.12559 0.55361 0.0
C3267 C 0.74711 0.11354 0.56827 0.0
C3268 C 0.86914 0.63697 0.61405 0.0
C3269 C 0.88863 0.65158 0.6176 0.0
C3270 C 0.8585 0.63521 0.59571 0.0
C3271 C 0.86697 0.64826 0.58061 0.0
H3272 H 0.86219 0.62664 0.62534 0.0
H3273 H 0.84359 0.62367 0.59335 0.0
S3274 S 0.91737 0.68917 0.58265 0.0
N3275 N 0.91582 0.67945 0.60465 0.0
N3276 N 0.89589 0.67609 0.57026 0.0
C3277 C 0.88636 0.663 0.58408 0.0
C3278 C 0.89718 0.66469 0.60257 0.0
C3279 C 0.92302 0.70278 0.82476 0.0
C3280 C 0.91454 0.69772 0.80452 0.0
C3281 C 0.91242 0.70257 0.84126 0.0
C3282 C 0.89292 0.69708 0.8381 0.0
H3283 H 0.93787 0.70659 0.82789 0.0
H3284 H 0.91934 0.70606 0.85664 0.0
S3285 S 0.86421 0.68355 0.78811 0.0
N3286 N 0.88562 0.68771 0.78226 0.0
N3287 N 0.86584 0.68761 0.81324 0.0
C3288 C 0.88445 0.69262 0.81792 0.0
C3289 C 0.89523 0.6929 0.80113 0.0
C3290 C 0.28991 0.20718 0.7893 0.0
C3291 C 0.30075 0.22752 0.79325 0.0
C3292 C 0.28902 0.19488 0.80433 0.0
C3293 C 0.29929 0.20259 0.82357 0.0
H3294 H 0.28238 0.20079 0.77438 0.0
H3295 H 0.28086 0.17929 0.80063 0.0
S3296 S 0.3295 0.25476 0.84147 0.0
N3297 N 0.32153 0.25476 0.81785 0.0
N3298 N 0.32013 0.23167 0.84597 0.0
C3299 C 0.30986 0.22286 0.82779 0.0
C3300 C 0.31052 0.23534 0.81265 0.0
C3301 C 0.77303 0.07008 0.78349 0.0
C3302 C 0.77817 0.08067 0.76604 0.0
C3303 C 0.78369 0.07806 0.8024 0.0
C3304 C 0.79979 0.09698 0.80458 0.0
H3305 H 0.7603 0.05573 0.78266 0.0
H3306 H 0.7787 0.06973 0.81563 0.0
S3307 S 0.82022 0.13013 0.76331 0.0
N3308 N 0.80113 0.11062 0.75188 0.0
N3309 N 0.82129 0.12554 0.78746 0.0
C3310 C 0.80565 0.10736 0.78707 0.0
C3311 C 0.79484 0.09921 0.76777 0.0
C3312 C 0.08323 0.34876 0.09752 0.0
C3313 C 0.07943 0.34287 0.07643 0.0
C3314 C 0.0938 0.34325 0.11021 0.0
C3315 C 0.10084 0.33157 0.10228 0.0
H3316 H 0.07779 0.3575 0.10431 0.0
H3317 H 0.09641 0.34808 0.12637 0.0
S3318 S 0.0963 0.31369 0.04791 0.0
N3319 N 0.08452 0.32565 0.04802 0.0
N3320 N 0.10431 0.31523 0.07193 0.0
C3321 C 0.09737 0.32577 0.08121 0.0
C3322 C 0.08667 0.33143 0.06828 0.0
C3323 C 0.67685 0.74336 0.10742 0.0
C3324 C 0.66216 0.72675 0.11546 0.0
C3325 C 0.68314 0.76203 0.11654 0.0
C3326 C 0.67481 0.76471 0.13386 0.0
H3327 H 0.68349 0.74191 0.09395 0.0
H3328 H 0.69422 0.77447 0.10966 0.0
S3329 S 0.63629 0.72601 0.16111 0.0
N3330 N 0.63972 0.71417 0.14194 0.0
N3331 N 0.65163 0.7493 0.15914 0.0
C3332 C 0.66035 0.74823 0.14225 0.0
C3333 C 0.65403 0.72923 0.13305 0.0
C3334 C 0.28342 0.93615 0.0847 0.0
C3335 C 0.28245 0.92798 0.06488 0.0
C3336 C 0.26768 0.92772 0.09671 0.0
C3337 C 0.25055 0.9107 0.08939 0.0
H3338 H 0.29638 0.94929 0.09087 0.0
H3339 H 0.26901 0.93441 0.11193 0.0
S3340 S 0.2407 0.88369 0.03856 0.0
N3341 N 0.26299 0.90207 0.0384 0.0
N3342 N 0.23341 0.88604 0.06113 0.0
C3343 C 0.24939 0.90236 0.06963 0.0
C3344 C 0.26534 0.91109 0.0573 0.0
C3345 C 0.36103 0.08349 0.96595 0.0
C3346 C 0.35259 0.07275 0.98271 0.0
C3347 C 0.35409 0.0946 0.95714 0.0
C3348 C 0.33838 0.09535 0.96469 0.0
H3349 H 0.37293 0.08306 0.95938 0.0
H3350 H 0.36071 0.10218 0.94388 0.0
S3351 S 0.31168 0.0705 0.00885 0.0
N3352 N 0.32795 0.06386 0.00685 0.0
N3353 N 0.31515 0.08513 0.99051 0.0
C3354 C 0.33011 0.08509 0.98178 0.0
C3355 C 0.3372 0.07376 0.99078 0.0
C3356 C 0.91834 0.25445 0.97599 0.0
C3357 C 0.93391 0.26734 0.96528 0.0
C3358 C 0.90404 0.23644 0.96663 0.0
C3359 C 0.90504 0.2306 0.94637 0.0
H3360 H 0.9171 0.25844 0.99165 0.0
H3361 H 0.89218 0.22693 0.97533 0.0
S3362 S 0.94304 0.25885 0.91191 0.0
N3363 N 0.94961 0.27304 0.93344 0.0
N3364 N 0.92277 0.23892 0.9159 0.0
C3365 C 0.92061 0.24323 0.93555 0.0
C3366 C 0.93504 0.26171 0.94499 0.0
C3367 C 0.72409 0.63821 0.99347 0.0
C3368 C 0.72512 0.64906 0.01153 0.0
C3369 C 0.74001 0.64428 0.98184 0.0
C3370 C 0.75754 0.66147 0.98775 0.0
H3371 H 0.71085 0.62493 0.98828 0.0
H3372 H 0.73847 0.63559 0.96789 0.0
S3373 S 0.76779 0.69502 0.03382 0.0
N3374 N 0.74506 0.67788 0.03474 0.0
N3375 N 0.77516 0.68903 0.01307 0.0
C3376 C 0.75884 0.67237 0.00585 0.0
C3377 C 0.74261 0.6662 0.01772 0.0
C3378 C 0.93425 0.67822 0.9814 0.0
C3379 C 0.92535 0.6601 0.98982 0.0
C3380 C 0.9236 0.68366 0.96871 0.0
C3381 C 0.90371 0.67116 0.96402 0.0
H3382 H 0.9496 0.68812 0.98439 0.0
H3383 H 0.931 0.69766 0.96237 0.0
S3384 S 0.87335 0.62307 0.98404 0.0
N3385 N 0.89539 0.63025 0.9937 0.0
N3386 N 0.87531 0.64053 0.97007 0.0
C3387 C 0.8946 0.6532 0.97276 0.0
C3388 C 0.90544 0.64766 0.98559 0.0
C3389 C 0.32715 0.25879 0.96373 0.0
C3390 C 0.33404 0.27498 0.95203 0.0
C3391 C 0.32112 0.24021 0.95454 0.0
C3392 C 0.32181 0.23722 0.93336 0.0
H3393 H 0.32693 0.26058 0.98018 0.0
H3394 H 0.3165 0.22822 0.96416 0.0
S3395 S 0.3365 0.27433 0.89568 0.0
N3396 N 0.33961 0.2865 0.91796 0.0
N3397 N 0.32846 0.25156 0.90073 0.0
C3398 C 0.32803 0.25313 0.9214 0.0
C3399 C 0.3341 0.27202 0.93073 0.0
C3400 C 0.73785 0.06433 0.00301 0.0
C3401 C 0.72557 0.0716 0.00733 0.0
C3402 C 0.75301 0.07376 0.99044 0.0
C3403 C 0.7566 0.09093 0.9818 0.0
H3404 H 0.73536 0.05087 0.00888 0.0
H3405 H 0.76147 0.06709 0.98682 0.0
S3406 S 0.73015 0.11727 0.99025 0.0
N3407 N 0.71882 0.09772 0.00297 0.0
N3408 N 0.74795 0.11598 0.98022 0.0
C3409 C 0.74519 0.09902 0.98701 0.0
C3410 C 0.72959 0.08928 0.99962 0.0
C3411 C 0.67211 0.93816 0.08631 0.0
C3412 C 0.65255 0.92883 0.07913 0.0
C3413 C 0.67948 0.92829 0.09705 0.0
C3414 C 0.66754 0.90877 0.10098 0.0
H3415 H 0.68161 0.95344 0.08439 0.0
H3416 H 0.69442 0.93624 0.10309 0.0
S3417 S 0.61601 0.87707 0.08293 0.0
N3418 N 0.62187 0.89852 0.07492 0.0
N3419 N 0.63575 0.87988 0.09505 0.0
C3420 C 0.64821 0.899 0.09296 0.0
C3421 C 0.64071 0.90905 0.08207 0.0
C3422 C 0.07071 0.74336 0.11943 0.0
C3423 C 0.07033 0.74001 0.09807 0.0
C3424 C 0.08354 0.76159 0.12961 0.0
C3425 C 0.09629 0.77716 0.11876 0.0
H3426 H 0.061 0.7318 0.12836 0.0
H3427 H 0.08353 0.76352 0.14607 0.0
S3428 S 0.10189 0.77588 0.06301 0.0
N3429 N 0.08447 0.75371 0.06661 0.0
N3430 N 0.10832 0.78807 0.08576 0.0
C3431 C 0.09605 0.77411 0.09745 0.0
C3432 C 0.08311 0.75552 0.08709 0.0
C3433 C 0.26645 0.36252 0.05781 0.0
C3434 C 0.2731 0.35024 0.05072 0.0
C3435 C 0.2511 0.35587 0.07037 0.0
C3436 C 0.24199 0.33677 0.07645 0.0
H3437 H 0.27336 0.37746 0.05385 0.0
H3438 H 0.2465 0.36586 0.07561 0.0
S3439 S 0.25454 0.29915 0.06248 0.0
N3440 N 0.26964 0.31822 0.0507 0.0
N3441 N 0.24095 0.30576 0.0746 0.0
C3442 C 0.24834 0.32426 0.06919 0.0
C3443 C 0.26388 0.331 0.05627 0.0
C3444 C 0.74391 0.66497 0.40512 0.0
C3445 C 0.73981 0.6791 0.41296 0.0
C3446 C 0.7555 0.6599 0.41669 0.0
C3447 C 0.76337 0.66876 0.43649 0.0
H3448 H 0.73839 0.65803 0.3898 0.0
H3449 H 0.7587 0.64931 0.40989 0.0
S3450 S 0.7555 0.70521 0.46474 0.0
N3451 N 0.74347 0.70091 0.44223 0.0
N3452 N 0.76535 0.69142 0.46393 0.0
C3453 C 0.75904 0.68258 0.44468 0.0
C3454 C 0.74725 0.68774 0.43292 0.0
C3455 C 0.33603 0.07342 0.4316 0.0
C3456 C 0.33678 0.05996 0.44404 0.0
C3457 C 0.3409 0.09198 0.43986 0.0
C3458 C 0.34704 0.09777 0.46071 0.0
H3459 H 0.33114 0.06937 0.41552 0.0
H3460 H 0.3397 0.10183 0.42992 0.0
S3461 S 0.35245 0.06819 0.49933 0.0
N3462 N 0.34465 0.05375 0.47793 0.0
N3463 N 0.35419 0.08887 0.49344 0.0
C3464 C 0.34842 0.08465 0.47315 0.0
C3465 C 0.34316 0.06564 0.46481 0.0
C3466 C 0.93777 0.25973 0.39229 0.0
C3467 C 0.9547 0.25971 0.39847 0.0
C3468 C 0.92099 0.24963 0.40255 0.0
C3469 C 0.9205 0.23901 0.41922 0.0
H3470 H 0.93765 0.26804 0.37978 0.0
H3471 H 0.90833 0.2502 0.39746 0.0
S3472 S 0.96081 0.2339 0.44105 0.0
N3473 N 0.96974 0.24767 0.42187 0.0
N3474 N 0.93835 0.22903 0.44142 0.0
C3475 C 0.93723 0.23861 0.42533 0.0
C3476 C 0.95429 0.2489 0.41491 0.0
C3477 C 0.02081 0.41511 0.32244 0.0
C3478 C 0.03452 0.41135 0.31411 0.0
C3479 C 0.01586 0.42778 0.3136 0.0
C3480 C 0.02464 0.43729 0.29631 0.0
H3481 H 0.01344 0.40775 0.3355 0.0
H3482 H 0.00495 0.43 0.32018 0.0
S3483 S 0.06187 0.43294 0.26916 0.0
N3484 N 0.05727 0.41866 0.28807 0.0
N3485 N 0.04781 0.44232 0.27131 0.0
C3486 C 0.03868 0.43401 0.28813 0.0
C3487 C 0.04364 0.42106 0.29705 0.0
C3488 C 0.58093 0.58892 0.3109 0.0
C3489 C 0.59685 0.60183 0.30062 0.0
C3490 C 0.56692 0.57086 0.30136 0.0
C3491 C 0.56853 0.56499 0.28134 0.0
H3492 H 0.57913 0.59296 0.32631 0.0
H3493 H 0.55476 0.56138 0.30972 0.0
S3494 S 0.6077 0.59321 0.24807 0.0
N3495 N 0.61362 0.60743 0.2695 0.0
N3496 N 0.58726 0.57328 0.25159 0.0
C3497 C 0.58449 0.57761 0.27099 0.0
C3498 C 0.59866 0.59611 0.28061 0.0
C3499 C 0.38395 0.97168 0.32052 0.0
C3500 C 0.38375 0.96433 0.33963 0.0
C3501 C 0.3991 0.97637 0.30801 0.0
C3502 C 0.41446 0.97365 0.31406 0.0
H3503 H 0.37244 0.9741 0.31533 0.0
H3504 H 0.39872 0.98202 0.29342 0.0
S3505 S 0.42069 0.95474 0.36255 0.0
N3506 N 0.40016 0.95449 0.36397 0.0
N3507 N 0.42867 0.96325 0.34036 0.0
C3508 C 0.4144 0.96621 0.33305 0.0
C3509 C 0.39905 0.96161 0.34589 0.0
C3510 C 0.5719 0.9651 0.30826 0.0
C3511 C 0.59066 0.97971 0.3153 0.0
C3512 C 0.55999 0.96934 0.29606 0.0
C3513 C 0.5665 0.98829 0.29024 0.0
H3514 H 0.56626 0.95039 0.31257 0.0
H3515 H 0.54542 0.95774 0.29153 0.0
S3516 S 0.61526 0.0312 0.30308 0.0
N3517 N 0.61568 0.01353 0.31473 0.0
N3518 N 0.59348 0.02146 0.29136 0.0
C3519 C 0.58547 0.0029 0.29675 0.0
C3520 C 0.59751 0.99861 0.30936 0.0
C3521 C 0.01502 0.60332 0.29958 0.0
C3522 C 0.01489 0.61757 0.28786 0.0
C3523 C 0.01056 0.58518 0.29044 0.0
C3524 C 0.00598 0.58072 0.26924 0.0
H3525 H 0.01893 0.60632 0.31592 0.0
H3526 H 0.01109 0.57472 0.29994 0.0
S3527 S 0.00211 0.6121 0.23188 0.0
N3528 N 0.00847 0.62533 0.25403 0.0
N3529 N 0.0007 0.59136 0.23683 0.0
C3530 C 0.00554 0.59462 0.25734 0.0
C3531 C 0.00985 0.61302 0.26665 0.0
C3532 C 0.39434 0.42671 0.33131 0.0
C3533 C 0.38718 0.40769 0.33704 0.0
C3534 C 0.40953 0.43498 0.31856 0.0
C3535 C 0.41799 0.42447 0.31097 0.0
H3536 H 0.38802 0.43516 0.33655 0.0
H3537 H 0.41457 0.44966 0.31444 0.0
S3538 S 0.40387 0.37383 0.32081 0.0
N3539 N 0.38939 0.37843 0.33395 0.0
N3540 N 0.41782 0.39392 0.3098 0.0
C3541 C 0.41109 0.40551 0.31677 0.0
C3542 C 0.39569 0.39712 0.32984 0.0
C3543 C 0.33207 0.26299 0.4099 0.0
C3544 C 0.32064 0.26893 0.41995 0.0
C3545 C 0.33802 0.25126 0.41927 0.0
C3546 C 0.33267 0.24516 0.43892 0.0
H3547 H 0.33651 0.26755 0.39482 0.0
H3548 H 0.34676 0.24684 0.41107 0.0
S3549 S 0.3038 0.25807 0.47186 0.0
N3550 N 0.30471 0.26862 0.45057 0.0
N3551 N 0.31604 0.2468 0.4684 0.0
C3552 C 0.32138 0.25126 0.44911 0.0
C3553 C 0.31533 0.26312 0.43956 0.0
C3554 C 0.74223 0.08073 0.42032 0.0
C3555 C 0.73056 0.06591 0.43268 0.0
C3556 C 0.75606 0.09929 0.42899 0.0
C3557 C 0.75876 0.10364 0.45031 0.0
H3558 H 0.74112 0.07779 0.40386 0.0
H3559 H 0.7652 0.11009 0.41899 0.0
S3560 S 0.73047 0.07084 0.48925 0.0
N3561 N 0.72145 0.05747 0.46724 0.0
N3562 N 0.74777 0.09231 0.48351 0.0
C3563 C 0.74676 0.08925 0.46281 0.0
C3564 C 0.73258 0.07038 0.454 0.0
C3565 C 0.93415 0.69828 0.39135 0.0
C3566 C 0.94159 0.6862 0.38614 0.0
C3567 C 0.91833 0.69189 0.40321 0.0
C3568 C 0.90941 0.6732 0.41035 0.0
H3569 H 0.94076 0.71287 0.38639 0.0
H3570 H 0.91315 0.70173 0.40702 0.0
S3571 S 0.92381 0.63623 0.40156 0.0
N3572 N 0.93907 0.6548 0.38928 0.0
N3573 N 0.90933 0.64281 0.41164 0.0
C3574 C 0.91653 0.66087 0.40502 0.0
C3575 C 0.93263 0.66737 0.39291 0.0
C3576 C 0.43248 0.03023 0.74378 0.0
C3577 C 0.41296 0.02158 0.74763 0.0
C3578 C 0.44528 0.02728 0.75606 0.0
C3579 C 0.43903 0.01565 0.77269 0.0
H3580 H 0.43783 0.03909 0.73098 0.0
H3581 H 0.46013 0.03391 0.75231 0.0
S3582 S 0.38971 0.9911 0.79022 0.0
N3583 N 0.38818 0.00178 0.76986 0.0
N3584 N 0.4123 0.99628 0.79301 0.0
C3585 C 0.41962 0.00717 0.77691 0.0
C3586 C 0.40657 0.01014 0.76437 0.0
C3587 C -0.00015 0.40173 0.77432 0.0
C3588 C 0.98454 0.38397 0.77963 0.0
C3589 C 0.00379 0.41945 0.78414 0.0
C3590 C 0.99253 0.42008 0.79961 0.0
H3591 H 0.00881 0.40195 0.76235 0.0
H3592 H 0.0154 0.43279 0.77916 0.0
S3593 S 0.95131 0.37767 0.81985 0.0
N3594 N 0.95829 0.36808 0.80167 0.0
N3595 N 0.96604 0.40141 0.82053 0.0
C3596 C 0.97749 0.40241 0.80546 0.0
C3597 C 0.97344 0.38436 0.79541 0.0
C3598 C 0.60419 0.57515 0.72789 0.0
C3599 C 0.62077 0.59232 0.73614 0.0
C3600 C 0.58784 0.56592 0.73898 0.0
C3601 C 0.58743 0.5738 0.75848 0.0
H3602 H 0.60393 0.56879 0.71282 0.0
H3603 H 0.57534 0.55268 0.73218 0.0
S3604 S 0.62702 0.61849 0.78677 0.0
N3605 N 0.63574 0.61686 0.7649 0.0
N3606 N 0.60498 0.59951 0.7857 0.0
C3607 C 0.60388 0.59094 0.76687 0.0
C3608 C 0.62057 0.60021 0.75571 0.0
C3609 C 0.67997 0.74706 0.66171 0.0
C3610 C 0.68143 0.73306 0.64931 0.0
C3611 C 0.6732 0.75853 0.65328 0.0
C3612 C 0.66728 0.75593 0.63234 0.0
H3613 H 0.68428 0.74927 0.67795 0.0
H3614 H 0.67249 0.76939 0.66316 0.0
S3615 S 0.66795 0.72099 0.59357 0.0
N3616 N 0.67637 0.71718 0.61519 0.0
N3617 N 0.66326 0.73846 0.59943 0.0
C3618 C 0.66849 0.74186 0.61987 0.0
C3619 C 0.67567 0.73047 0.62835 0.0
C3620 C 0.2667 0.9262 0.62062 0.0
C3621 C 0.26326 0.9344 0.63827 0.0
C3622 C 0.25273 0.90785 0.61152 0.0
C3623 C 0.23479 0.89715 0.61968 0.0
H3624 H 0.28034 0.93398 0.61384 0.0
H3625 H 0.25586 0.90215 0.59782 0.0
S3626 S 0.21871 0.9119 0.66585 0.0
N3627 N 0.24054 0.93036 0.66352 0.0
N3628 N 0.21453 0.89568 0.64675 0.0
C3629 C 0.23124 0.90506 0.63744 0.0
C3630 C 0.24542 0.92372 0.64667 0.0
C3631 C 0.05771 0.30236 0.66277 0.0
C3632 C 0.0596 0.31201 0.68201 0.0
C3633 C 0.07353 0.3081 0.65102 0.0
C3634 C 0.09182 0.32375 0.65804 0.0
H3635 H 0.04377 0.29063 0.65645 0.0
H3636 H 0.07132 0.30055 0.63608 0.0
S3637 S 0.10487 0.35256 0.70819 0.0
N3638 N 0.08152 0.33706 0.7082 0.0
N3639 N 0.11126 0.34796 0.68597 0.0
C3640 C 0.09406 0.33321 0.67746 0.0
C3641 C 0.07795 0.32731 0.68948 0.0
C3642 C 0.2701 0.34066 0.64479 0.0
C3643 C 0.26178 0.32291 0.65395 0.0
C3644 C 0.25872 0.34588 0.633 0.0
C3645 C 0.23866 0.33348 0.62993 0.0
H3646 H 0.28554 0.35048 0.64656 0.0
H3647 H 0.26567 0.35961 0.62609 0.0
S3648 S 0.2097 0.28638 0.65234 0.0
N3649 N 0.23218 0.29357 0.66027 0.0
N3650 N 0.2108 0.30338 0.63817 0.0
C3651 C 0.23014 0.31588 0.63933 0.0
C3652 C 0.2417 0.31058 0.65131 0.0
C3653 C 0.6858 0.93749 0.62222 0.0
C3654 C 0.67289 0.94443 0.6225 0.0
C3655 C 0.67999 0.91878 0.61367 0.0
C3656 C 0.66109 0.90635 0.60493 0.0
H3657 H 0.70046 0.94653 0.62888 0.0
H3658 H 0.69036 0.91393 0.61409 0.0
S3659 S 0.62216 0.91817 0.60064 0.0
N3660 N 0.6406 0.93782 0.61273 0.0
N3661 N 0.6297 0.90265 0.59633 0.0
C3662 C 0.64807 0.91319 0.60496 0.0
C3663 C 0.65397 0.93224 0.6138 0.0
C3664 C 0.06203 0.73109 0.66528 0.0
C3665 C 0.05212 0.74064 0.67108 0.0
C3666 C 0.07777 0.73986 0.65326 0.0
C3667 C 0.08413 0.75851 0.64669 0.0
H3668 H 0.0571 0.71641 0.66936 0.0
H3669 H 0.08452 0.7317 0.64843 0.0
S3670 S 0.0647 0.79063 0.6603 0.0
N3671 N 0.05079 0.77034 0.67103 0.0
N3672 N 0.08058 0.78704 0.64875 0.0
C3673 C 0.07493 0.76859 0.65331 0.0
C3674 C 0.05887 0.7596 0.66542 0.0
C3675 C 0.98894 0.60202 0.76818 0.0
C3676 C 0.97746 0.59626 0.7495 0.0
C3677 C 0.9935 0.58936 0.77762 0.0
C3678 C 0.98657 0.57044 0.76884 0.0
H3679 H 0.9941 0.61628 0.77587 0.0
H3680 H 0.0021 0.59422 0.79215 0.0
S3681 S 0.95715 0.54841 0.71971 0.0
N3682 N 0.96033 0.57055 0.72201 0.0
N3683 N 0.96837 0.54653 0.74037 0.0
C3684 C 0.97534 0.56446 0.75016 0.0
C3685 C 0.97089 0.57742 0.74034 0.0
C3686 C 0.40601 0.40338 0.78759 0.0
C3687 C 0.40358 0.40048 0.76608 0.0
C3688 C 0.41916 0.42164 0.79751 0.0
C3689 C 0.4303 0.43765 0.78627 0.0
H3690 H 0.39766 0.39144 0.79681 0.0
H3691 H 0.42066 0.42326 0.8141 0.0
S3692 S 0.43032 0.4374 0.7297 0.0
N3693 N 0.41397 0.41494 0.73388 0.0
N3694 N 0.43869 0.44926 0.75255 0.0
C3695 C 0.42804 0.43495 0.76477 0.0
C3696 C 0.41467 0.41637 0.75467 0.0
C3697 C 0.62086 0.03049 0.74633 0.0
C3698 C 0.61947 0.03373 0.72556 0.0
C3699 C 0.60555 0.02568 0.7586 0.0
C3700 C 0.58819 0.02371 0.75053 0.0
H3701 H 0.63384 0.0315 0.75315 0.0
H3702 H 0.60724 0.0233 0.77449 0.0
S3703 S 0.57729 0.0314 0.69751 0.0
N3704 N 0.59945 0.03526 0.69771 0.0
N3705 N 0.57048 0.02579 0.72081 0.0
C3706 C 0.58649 0.02682 0.72985 0.0
C3707 C 0.60217 0.03191 0.71735 0.0
loop_
_geom_bond_atom_site_label_1
_geom_bond_atom_site_label_2
_geom_bond_distance
_geom_bond_site_symmetry_2
_ccdc_geom_bond_type
Li0 N17 1.990 . S
Li0 O60 1.968 . S
Li0 O61 1.970 1_655 S
Li0 O62 1.961 . S
Li1 N25 1.990 . S
Li1 O60 1.945 1_455 S
Li1 O61 1.956 . S
Li1 O63 1.961 . S
Li2 N47 1.990 . S
Li2 O60 1.979 . S
Li2 O62 1.956 . S
Li2 O63 1.970 1_655 S
Li3 N53 1.990 1_554 S
Li3 O61 1.961 . S
Li3 O62 1.970 1_455 S
Li3 O63 1.956 . S
C4 C6 1.348 1_655 S
C4 C7 1.356 . S
C4 O60 1.325 . S
N5 C8 1.314 . S
N5 C9 1.279 . S
C6 C4 1.348 1_455 S
C6 C8 1.353 1_455 S
C6 H64 0.929 . S
C7 C4 1.356 . S
C7 C9 1.358 . S
C7 H65 0.930 . S
C8 N5 1.314 . S
C8 C6 1.353 1_655 S
C8 H66 0.930 1_655 S
C9 N5 1.279 . S
C9 C7 1.358 . S
C9 H67 0.930 . S
C10 C13 1.348 . S
C10 C14 1.356 . S
C10 O61 1.325 1_556 S
C11 N12 1.279 . S
C11 C14 1.358 . S
C11 H68 0.930 . S
N12 C11 1.279 . S
N12 C15 1.314 . S
C13 C10 1.348 . S
C13 C15 1.353 . S
C13 H69 0.929 1_455 S
C14 C10 1.356 . S
C14 C11 1.358 . S
C14 H70 0.930 . S
C15 N12 1.314 . S
C15 C13 1.353 . S
C15 H71 0.930 . S
C16 N17 1.314 1_556 S
C16 C21 1.353 . S
C16 H22 0.930 . S
N17 Li0 1.990 . S
N17 C16 1.314 1_554 S
N17 C19 1.279 . S
C18 C19 1.358 . S
C18 C20 1.356 1_554 S
C18 H72 0.930 . S
C19 N17 1.279 . S
C19 C18 1.358 . S
C19 H23 0.930 . S
C20 C18 1.356 1_556 S
C20 C21 1.348 . S
C21 C16 1.353 . S
C21 C20 1.348 . S
C21 H73 0.929 . S
H22 C16 0.930 . S
H23 C19 0.930 . S
C24 N25 1.314 . S
C24 C26 1.353 . S
C24 H30 0.930 . S
N25 Li1 1.990 . S
N25 C24 1.314 . S
N25 C28 1.279 . S
C26 C24 1.353 . S
C26 C29 1.348 . S
C26 H74 0.929 . S
C27 C28 1.358 . S
C27 C29 1.356 . S
C27 H75 0.930 . S
C28 N25 1.279 . S
C28 C27 1.358 . S
C28 H31 0.930 . S
C29 C26 1.348 . S
C29 C27 1.356 . S
H30 C24 0.930 . S
H31 C28 0.930 . S
C32 C34 1.348 1_554 S
C32 C35 1.356 . S
C32 O62 1.325 . S
N33 C36 1.314 . S
N33 C37 1.279 1_556 S
C34 C32 1.348 1_556 S
C34 C36 1.353 . S
C34 H76 0.929 . S
C35 C32 1.356 . S
C35 C37 1.358 . S
C35 H77 0.930 . S
C36 N33 1.314 . S
C36 C34 1.353 . S
C36 H78 0.930 . S
C37 N33 1.279 1_554 S
C37 C35 1.358 . S
C37 H79 0.930 . S
C38 C39 1.348 . S
C38 C40 1.356 . S
C38 O63 1.325 . S
C39 C38 1.348 . S
C39 C41 1.353 . S
C39 H80 0.929 . S
C40 C38 1.356 . S
C40 C42 1.358 . S
C40 H81 0.930 . S
C41 C39 1.353 . S
C41 N43 1.314 . S
C41 H82 0.930 . S
C42 C40 1.358 . S
C42 N43 1.279 . S
C42 H83 0.930 . S
N43 C41 1.314 . S
N43 C42 1.279 . S
C44 C46 1.353 . S
C44 N47 1.314 . S
C44 H50 0.930 1_655 S
C45 N47 1.279 . S
C45 C48 1.358 . S
C45 H51 0.930 . S
C46 C44 1.353 . S
C46 C49 1.348 . S
C46 H84 0.929 . S
N47 Li2 1.990 . S
N47 C44 1.314 . S
N47 C45 1.279 . S
C48 C45 1.358 . S
C48 C49 1.356 . S
C48 H85 0.930 . S
C49 C46 1.348 . S
C49 C48 1.356 . S
H50 C44 0.930 1_455 S
H51 C45 0.930 . S
C52 N53 1.314 . S
C52 C54 1.353 . S
C52 H58 0.930 . S
N53 Li3 1.990 1_556 S
N53 C52 1.314 . S
N53 C56 1.279 . S
C54 C52 1.353 . S
C54 C57 1.348 . S
C54 H86 0.929 . S
C55 C56 1.358 . S
C55 C57 1.356 . S
C55 H87 0.930 . S
C56 N53 1.279 . S
C56 C55 1.358 . S
C56 H59 0.930 . S
C57 C54 1.348 . S
C57 C55 1.356 . S
H58 C52 0.930 . S
H59 C56 0.930 . S
O60 Li0 1.968 . S
O60 Li1 1.945 1_655 S
O60 Li2 1.979 . S
O60 C4 1.325 . S
O61 Li0 1.970 1_455 S
O61 Li1 1.956 . S
O61 Li3 1.961 . S
O61 C10 1.325 1_554 S
O62 Li0 1.961 . S
O62 Li2 1.956 . S
O62 Li3 1.970 1_655 S
O62 C32 1.325 . S
O63 Li1 1.961 . S
O63 Li2 1.970 1_455 S
O63 Li3 1.956 . S
O63 C38 1.325 . S
H64 C6 0.929 . S
H65 C7 0.930 . S
H66 C8 0.930 1_455 S
H67 C9 0.930 . S
H68 C11 0.930 . S
H69 C13 0.929 1_655 S
H70 C14 0.930 . S
H71 C15 0.930 . S
H72 C18 0.930 . S
H73 C21 0.929 . S
H74 C26 0.929 . S
H75 C27 0.930 . S
H76 C34 0.929 . S
H77 C35 0.930 . S
H78 C36 0.930 . S
H79 C37 0.930 . S
H80 C39 0.929 . S
H81 C40 0.930 . S
H82 C41 0.930 . S
H83 C42 0.930 . S
H84 C46 0.929 . S
H85 C48 0.930 . S
H86 C54 0.929 . S
H87 C55 0.930 . S
Li88 N105 1.990 . S
Li88 O148 1.956 . S
Li88 O149 1.970 . S
Li88 O150 1.961 . S
Li89 N113 1.990 . S
Li89 O148 1.970 . S
Li89 O149 1.956 . S
Li89 O151 1.961 . S
Li90 N135 1.990 . S
Li90 O148 1.961 . S
Li90 O150 1.956 . S
Li90 O151 1.970 . S
Li91 N141 1.990 . S
Li91 O149 1.961 . S
Li91 O150 1.970 . S
Li91 O151 1.956 . S
C92 C94 1.348 . S
C92 C95 1.356 . S
C92 O148 1.325 . S
N93 C96 1.314 . S
N93 C97 1.279 . S
C94 C92 1.348 . S
C94 C96 1.353 . S
C94 H152 0.929 . S
C95 C92 1.356 . S
C95 C97 1.358 . S
C95 H153 0.930 . S
C96 N93 1.314 . S
C96 C94 1.353 . S
C96 H154 0.930 . S
C97 N93 1.279 . S
C97 C95 1.358 . S
C97 H155 0.930 . S
C98 C101 1.348 . S
C98 C102 1.356 . S
C98 O149 1.325 . S
C99 N100 1.280 . S
C99 C102 1.358 . S
C99 H156 0.940 . S
N100 C99 1.280 . S
N100 C103 1.316 . S
C101 C98 1.348 . S
C101 C103 1.353 . S
C101 H157 0.929 . S
C102 C98 1.356 . S
C102 C99 1.358 . S
C102 H158 0.930 . S
C103 N100 1.316 . S
C103 C101 1.353 . S
C103 H159 0.930 . S
C104 N105 1.314 . S
C104 C109 1.353 . S
C104 H110 0.930 . S
N105 Li88 1.990 . S
N105 C104 1.314 . S
N105 C107 1.279 . S
C106 C107 1.358 . S
C106 C108 1.356 . S
C106 H160 0.930 . S
C107 N105 1.279 . S
C107 C106 1.358 . S
C107 H111 0.930 . S
C108 C106 1.356 . S
C108 C109 1.348 . S
C109 C104 1.353 . S
C109 C108 1.348 . S
C109 H161 0.929 . S
H110 C104 0.930 . S
H111 C107 0.930 . S
C112 N113 1.314 . S
C112 C114 1.353 . S
C112 H118 0.930 . S
N113 Li89 1.990 . S
N113 C112 1.314 . S
N113 C116 1.279 . S
C114 C112 1.353 . S
C114 C117 1.348 . S
C114 H162 0.929 . S
C115 C116 1.358 . S
C115 C117 1.356 . S
C115 H163 0.930 . S
C116 N113 1.279 . S
C116 C115 1.358 . S
C116 H119 0.930 . S
C117 C114 1.348 . S
C117 C115 1.356 . S
H118 C112 0.930 . S
H119 C116 0.930 . S
C120 C122 1.348 . S
C120 C123 1.356 . S
C120 O150 1.325 . S
N121 C124 1.314 . S
N121 C125 1.279 . S
C122 C120 1.348 . S
C122 C124 1.353 . S
C122 H164 0.929 . S
C123 C120 1.356 . S
C123 C125 1.358 . S
C123 H165 0.930 . S
C124 N121 1.314 . S
C124 C122 1.353 . S
C124 H166 0.930 . S
C125 N121 1.279 . S
C125 C123 1.358 . S
C125 H167 0.930 . S
C126 C127 1.348 . S
C126 C128 1.356 . S
C126 O151 1.325 . S
C127 C126 1.348 . S
C127 C129 1.353 . S
C127 H168 0.929 . S
C128 C126 1.356 . S
C128 C130 1.358 . S
C128 H169 0.930 . S
C129 C127 1.353 . S
C129 N131 1.314 . S
C129 H170 0.930 . S
C130 C128 1.358 . S
C130 N131 1.279 . S
C130 H171 0.930 . S
N131 C129 1.314 . S
N131 C130 1.279 . S
C132 C134 1.353 . S
C132 N135 1.314 . S
C132 H138 0.930 . S
C133 N135 1.279 . S
C133 C136 1.358 . S
C133 H139 0.930 . S
C134 C132 1.353 . S
C134 C137 1.348 . S
C134 H172 0.929 . S
N135 Li90 1.990 . S
N135 C132 1.314 . S
N135 C133 1.279 . S
C136 C133 1.358 . S
C136 C137 1.356 . S
C136 H173 0.930 . S
C137 C134 1.348 . S
C137 C136 1.356 . S
H138 C132 0.930 . S
H139 C133 0.930 . S
C140 N141 1.319 . S
C140 C142 1.349 1_554 S
C140 H146 0.928 1_554 S
N141 Li91 1.990 . S
N141 C140 1.319 . S
N141 C144 1.279 . S
C142 C140 1.349 1_556 S
C142 C145 1.348 . S
C142 H174 0.929 . S
C143 C144 1.358 . S
C143 C145 1.356 1_554 S
C143 H175 0.930 . S
C144 N141 1.279 . S
C144 C143 1.358 . S
C144 H147 0.930 . S
C145 C142 1.348 . S
C145 C143 1.356 1_556 S
H146 C140 0.928 1_556 S
H147 C144 0.930 . S
O148 Li88 1.956 . S
O148 Li89 1.970 . S
O148 Li90 1.961 . S
O148 C92 1.325 . S
O149 Li88 1.970 . S
O149 Li89 1.956 . S
O149 Li91 1.961 . S
O149 C98 1.325 . S
O150 Li88 1.961 . S
O150 Li90 1.956 . S
O150 Li91 1.970 . S
O150 C120 1.325 . S
O151 Li89 1.961 . S
O151 Li90 1.970 . S
O151 Li91 1.956 . S
O151 C126 1.325 . S
H152 C94 0.929 . S
H153 C95 0.930 . S
H154 C96 0.930 . S
H155 C97 0.930 . S
H156 C99 0.940 . S
H157 C101 0.929 . S
H158 C102 0.930 . S
H159 C103 0.930 . S
H160 C106 0.930 . S
H161 C109 0.929 . S
H162 C114 0.929 . S
H163 C115 0.930 . S
H164 C122 0.929 . S
H165 C123 0.930 . S
H166 C124 0.930 . S
H167 C125 0.930 . S
H168 C127 0.929 . S
H169 C128 0.930 . S
H170 C129 0.930 . S
H171 C130 0.930 . S
H172 C134 0.929 . S
H173 C136 0.930 . S
H174 C142 0.929 . S
H175 C143 0.930 . S
Li176 N193 1.990 1_554 S
Li176 O236 1.956 . S
Li176 O237 1.970 1_565 S
Li176 O238 1.961 . S
Li177 N201 1.990 . S
Li177 O236 1.970 1_545 S
Li177 O237 1.956 . S
Li177 O239 1.961 . S
Li178 N223 1.990 . S
Li178 O236 1.961 . S
Li178 O238 1.956 . S
Li178 O239 1.970 1_565 S
Li179 N229 1.990 . S
Li179 O237 1.961 . S
Li179 O238 1.970 1_545 S
Li179 O239 1.956 . S
C180 C182 1.348 . S
C180 C183 1.356 . S
C180 O236 1.325 . S
N181 C184 1.314 . S
N181 C185 1.279 . S
C182 C180 1.348 . S
C182 C184 1.353 . S
C182 H240 0.929 . S
C183 C180 1.356 . S
C183 C185 1.358 . S
C183 H241 0.930 . S
C184 N181 1.314 . S
C184 C182 1.353 . S
C184 H242 0.930 . S
C185 N181 1.279 . S
C185 C183 1.358 . S
C185 H243 0.930 . S
C186 C189 1.348 . S
C186 C190 1.356 . S
C186 O237 1.325 . S
C187 N188 1.279 . S
C187 C190 1.358 . S
C187 H244 0.930 . S
N188 C187 1.279 . S
N188 C191 1.314 1_554 S
C189 C186 1.348 . S
C189 C191 1.353 1_554 S
C189 H245 0.929 1_554 S
C190 C186 1.356 . S
C190 C187 1.358 . S
C190 H246 0.930 . S
C191 N188 1.314 1_556 S
C191 C189 1.353 1_556 S
C191 H247 0.930 . S
C192 N193 1.314 . S
C192 C197 1.353 . S
C192 H198 0.930 . S
N193 Li176 1.990 1_556 S
N193 C192 1.314 . S
N193 C195 1.279 . S
C194 C195 1.358 . S
C194 C196 1.356 . S
C194 H248 0.930 . S
C195 N193 1.279 . S
C195 C194 1.358 . S
C195 H199 0.930 . S
C196 C194 1.356 . S
C196 C197 1.348 . S
C197 C192 1.353 . S
C197 C196 1.348 . S
C197 H249 0.929 . S
H198 C192 0.930 . S
H199 C195 0.930 . S
C200 N201 1.314 . S
C200 C202 1.353 . S
C200 H206 0.930 . S
N201 Li177 1.990 . S
N201 C200 1.314 . S
N201 C204 1.279 . S
C202 C200 1.353 . S
C202 C205 1.348 . S
C202 H250 0.929 . S
C203 C204 1.358 . S
C203 C205 1.356 . S
C203 H251 0.930 . S
C204 N201 1.279 . S
C204 C203 1.358 . S
C204 H207 0.930 . S
C205 C202 1.348 . S
C205 C203 1.356 . S
H206 C200 0.930 . S
H207 C204 0.930 . S
C208 C210 1.348 . S
C208 C211 1.356 . S
C208 O238 1.325 1_556 S
N209 C212 1.314 . S
N209 C213 1.279 . S
C210 C208 1.348 . S
C210 C212 1.353 . S
C210 H252 0.929 1_565 S
C211 C208 1.356 . S
C211 C213 1.358 . S
C211 H253 0.930 . S
C212 N209 1.314 . S
C212 C210 1.353 . S
C212 H254 0.930 . S
C213 N209 1.279 . S
C213 C211 1.358 . S
C213 H255 0.930 . S
C214 C215 1.348 . S
C214 C216 1.356 . S
C214 O239 1.325 . S
C215 C214 1.348 . S
C215 C217 1.353 . S
C215 H256 0.929 1_545 S
C216 C214 1.356 . S
C216 C218 1.358 . S
C216 H257 0.930 . S
C217 C215 1.353 . S
C217 N219 1.314 . S
C217 H258 0.930 . S
C218 C216 1.358 . S
C218 N219 1.279 . S
C218 H259 0.930 . S
N219 C217 1.314 . S
N219 C218 1.279 . S
C220 C222 1.353 . S
C220 N223 1.314 . S
C220 H226 0.930 . S
C221 N223 1.279 . S
C221 C224 1.358 . S
C221 H227 0.930 . S
C222 C220 1.353 . S
C222 C225 1.348 . S
C222 H260 0.929 . S
N223 Li178 1.990 . S
N223 C220 1.314 . S
N223 C221 1.279 . S
C224 C221 1.358 . S
C224 C225 1.356 . S
C224 H261 0.930 . S
C225 C222 1.348 . S
C225 C224 1.356 . S
H226 C220 0.930 . S
H227 C221 0.930 . S
C228 N229 1.314 1_556 S
C228 C230 1.353 . S
C228 H234 0.930 . S
N229 Li179 1.990 . S
N229 C228 1.314 1_554 S
N229 C232 1.279 . S
C230 C228 1.353 . S
C230 C233 1.348 . S
C230 H262 0.929 . S
C231 C232 1.358 . S
C231 C233 1.356 1_554 S
C231 H263 0.930 . S
C232 N229 1.279 . S
C232 C231 1.358 . S
C232 H235 0.930 . S
C233 C230 1.348 . S
C233 C231 1.356 1_556 S
H234 C228 0.930 . S
H235 C232 0.930 . S
O236 Li176 1.956 . S
O236 Li177 1.970 1_565 S
O236 Li178 1.961 . S
O236 C180 1.325 . S
O237 Li176 1.970 1_545 S
O237 Li177 1.956 . S
O237 Li179 1.961 . S
O237 C186 1.325 . S
O238 Li176 1.961 . S
O238 Li178 1.956 . S
O238 Li179 1.970 1_565 S
O238 C208 1.325 1_554 S
O239 Li177 1.961 . S
O239 Li178 1.970 1_545 S
O239 Li179 1.956 . S
O239 C214 1.325 . S
H240 C182 0.929 . S
H241 C183 0.930 . S
H242 C184 0.930 . S
H243 C185 0.930 . S
H244 C187 0.930 . S
H245 C189 0.929 1_556 S
H246 C190 0.930 . S
H247 C191 0.930 . S
H248 C194 0.930 . S
H249 C197 0.929 . S
H250 C202 0.929 . S
H251 C203 0.930 . S
H252 C210 0.929 1_545 S
H253 C211 0.930 . S
H254 C212 0.930 . S
H255 C213 0.930 . S
H256 C215 0.929 1_565 S
H257 C216 0.930 . S
H258 C217 0.930 . S
H259 C218 0.930 . S
H260 C222 0.929 . S
H261 C224 0.930 . S
H262 C230 0.929 . S
H263 C231 0.930 . S
Li264 N281 1.990 . S
Li264 O324 1.956 . S
Li264 O325 1.970 1_455 S
Li264 O326 1.961 . S
Li265 N289 1.990 . S
Li265 O324 1.970 1_655 S
Li265 O325 1.956 . S
Li265 O327 1.961 . S
Li266 N311 2.023 . S
Li266 O324 1.961 . S
Li266 O326 1.956 . S
Li266 O327 1.970 1_455 S
Li267 N317 1.990 . S
Li267 O325 1.961 . S
Li267 O326 1.970 1_655 S
Li267 O327 1.956 . S
C268 C270 1.348 . S
C268 C271 1.356 . S
C268 O324 1.325 . S
N269 C272 1.314 . S
N269 C273 1.279 . S
C270 C268 1.348 . S
C270 C272 1.353 . S
C270 H328 0.929 . S
C271 C268 1.356 . S
C271 C273 1.358 . S
C271 H329 0.930 . S
C272 N269 1.314 . S
C272 C270 1.353 . S
C272 H330 0.930 . S
C273 N269 1.279 . S
C273 C271 1.358 . S
C273 H331 0.930 . S
C274 C277 1.348 1_655 S
C274 C278 1.356 . S
C274 O325 1.325 . S
C275 N276 1.279 . S
C275 C278 1.358 . S
C275 H332 0.930 . S
N276 C275 1.279 . S
N276 C279 1.314 . S
C277 C274 1.348 1_455 S
C277 C279 1.353 1_455 S
C277 H333 0.929 . S
C278 C274 1.356 . S
C278 C275 1.358 . S
C278 H334 0.930 . S
C279 N276 1.314 . S
C279 C277 1.353 1_655 S
C279 H335 0.930 1_655 S
C280 N281 1.314 . S
C280 C285 1.353 . S
C280 H286 0.930 . S
N281 Li264 1.990 . S
N281 C280 1.314 . S
N281 C283 1.279 . S
C282 C283 1.358 . S
C282 C284 1.356 . S
C282 H336 0.930 . S
C283 N281 1.279 . S
C283 C282 1.358 . S
C283 H287 0.930 . S
C284 C282 1.356 . S
C284 C285 1.348 . S
C285 C280 1.353 . S
C285 C284 1.348 . S
C285 H337 0.929 . S
H286 C280 0.930 . S
H287 C283 0.930 . S
C288 N289 1.314 . S
C288 C290 1.353 . S
C288 H294 0.930 . S
N289 Li265 1.990 . S
N289 C288 1.314 . S
N289 C292 1.279 . S
C290 C288 1.353 . S
C290 C293 1.348 . S
C290 H338 0.929 . S
C291 C292 1.358 . S
C291 C293 1.356 . S
C291 H339 0.930 . S
C292 N289 1.279 . S
C292 C291 1.358 . S
C292 H295 0.930 . S
C293 C290 1.348 . S
C293 C291 1.356 . S
H294 C288 0.930 . S
H295 C292 0.930 . S
C296 C298 1.326 1_454 S
C296 C299 1.356 . S
C296 O326 1.325 . S
N297 C300 1.314 . S
N297 C301 1.279 . S
C298 C296 1.326 1_656 S
C298 C300 1.351 1_655 S
C298 H340 0.953 . S
C299 C296 1.356 . S
C299 C301 1.358 1_554 S
C299 H341 0.930 . S
C300 N297 1.314 . S
C300 C298 1.351 1_455 S
C300 H342 0.930 1_455 S
C301 N297 1.279 . S
C301 C299 1.358 1_556 S
C301 H343 0.930 . S
C302 C303 1.348 . S
C302 C304 1.356 . S
C302 O327 1.325 . S
C303 C302 1.348 . S
C303 C305 1.353 . S
C303 H344 0.923 1_554 S
C304 C302 1.356 . S
C304 C306 1.358 . S
C304 H345 0.930 . S
C305 C303 1.353 . S
C305 N307 1.314 . S
C305 H346 0.930 1_554 S
C306 C304 1.358 . S
C306 N307 1.279 . S
C306 H347 0.930 . S
N307 C305 1.314 . S
N307 C306 1.279 . S
C308 C310 1.353 1_554 S
C308 N311 1.319 . S
C308 H314 0.930 . S
C309 N311 1.239 1_556 S
C309 C312 1.358 . S
C309 H315 0.930 . S
C310 C308 1.353 1_556 S
C310 C313 1.348 . S
C310 H348 0.929 . S
N311 Li266 2.023 . S
N311 C308 1.319 . S
N311 C309 1.239 1_554 S
C312 C309 1.358 . S
C312 C313 1.356 . S
C312 H349 0.930 . S
C313 C310 1.348 . S
C313 C312 1.356 . S
H314 C308 0.930 . S
H315 C309 0.930 . S
C316 N317 1.314 . S
C316 C318 1.353 . S
C316 H322 0.930 . S
N317 Li267 1.990 . S
N317 C316 1.314 . S
N317 C320 1.279 . S
C318 C316 1.353 . S
C318 C321 1.348 . S
C318 H350 0.929 . S
C319 C320 1.358 . S
C319 C321 1.356 . S
C319 H351 0.930 . S
C320 N317 1.279 . S
C320 C319 1.358 . S
C320 H323 0.930 . S
C321 C318 1.348 . S
C321 C319 1.356 . S
H322 C316 0.930 . S
H323 C320 0.930 . S
O324 Li264 1.956 . S
O324 Li265 1.970 1_455 S
O324 Li266 1.961 . S
O324 C268 1.325 . S
O325 Li264 1.970 1_655 S
O325 Li265 1.956 . S
O325 Li267 1.961 . S
O325 C274 1.325 . S
O326 Li264 1.961 . S
O326 Li266 1.956 . S
O326 Li267 1.970 1_455 S
O326 C296 1.325 . S
O327 Li265 1.961 . S
O327 Li266 1.970 1_655 S
O327 Li267 1.956 . S
O327 C302 1.325 . S
H328 C270 0.929 . S
H329 C271 0.930 . S
H330 C272 0.930 . S
H331 C273 0.930 . S
H332 C275 0.930 . S
H333 C277 0.929 . S
H334 C278 0.930 . S
H335 C279 0.930 1_455 S
H336 C282 0.930 . S
H337 C285 0.929 . S
H338 C290 0.929 . S
H339 C291 0.930 . S
H340 C298 0.953 . S
H341 C299 0.930 . S
H342 C300 0.930 1_655 S
H343 C301 0.930 . S
H344 C303 0.923 1_556 S
H345 C304 0.930 . S
H346 C305 0.930 1_556 S
H347 C306 0.930 . S
H348 C310 0.929 . S
H349 C312 0.930 . S
H350 C318 0.929 . S
H351 C319 0.930 . S
Li352 N369 1.990 . S
Li352 O412 1.956 . S
Li352 O413 1.970 . S
Li352 O414 1.961 1_554 S
Li353 N377 1.990 . S
Li353 O412 1.970 . S
Li353 O413 1.956 . S
Li353 O415 1.961 1_554 S
Li354 N399 1.990 . S
Li354 O412 1.961 1_556 S
Li354 O414 1.956 . S
Li354 O415 1.970 . S
Li355 N405 1.990 . S
Li355 O413 1.961 1_556 S
Li355 O414 1.970 . S
Li355 O415 1.956 . S
C356 C358 1.348 . S
C356 C359 1.356 . S
C356 O412 1.325 . S
N357 C360 1.314 . S
N357 C361 1.279 . S
C358 C356 1.348 . S
C358 C360 1.353 . S
C358 H416 0.929 . S
C359 C356 1.356 . S
C359 C361 1.358 . S
C359 H417 0.930 . S
C360 N357 1.314 . S
C360 C358 1.353 . S
C360 H418 0.930 . S
C361 N357 1.279 . S
C361 C359 1.358 . S
C361 H419 0.930 . S
C362 C365 1.348 . S
C362 C366 1.356 . S
C362 O413 1.325 . S
C363 N364 1.279 . S
C363 C366 1.358 . S
C363 H420 0.930 . S
N364 C363 1.279 . S
N364 C367 1.314 . S
C365 C362 1.348 . S
C365 C367 1.353 . S
C365 H421 0.929 . S
C366 C362 1.356 . S
C366 C363 1.358 . S
C366 H422 0.930 . S
C367 N364 1.314 . S
C367 C365 1.353 . S
C367 H423 0.930 . S
C368 N369 1.314 . S
C368 C373 1.353 . S
C368 H374 0.930 . S
N369 Li352 1.990 . S
N369 C368 1.314 . S
N369 C371 1.279 . S
C370 C371 1.358 . S
C370 C372 1.356 . S
C370 H424 0.930 . S
C371 N369 1.279 . S
C371 C370 1.358 . S
C371 H375 0.930 . S
C372 C370 1.356 . S
C372 C373 1.348 . S
C373 C368 1.353 . S
C373 C372 1.348 . S
C373 H425 0.929 . S
H374 C368 0.930 . S
H375 C371 0.930 . S
C376 N377 1.314 . S
C376 C378 1.353 . S
C376 H382 0.930 . S
N377 Li353 1.990 . S
N377 C376 1.314 . S
N377 C380 1.279 . S
C378 C376 1.353 . S
C378 C381 1.348 . S
C378 H426 0.929 . S
C379 C380 1.358 . S
C379 C381 1.356 . S
C379 H427 0.930 . S
C380 N377 1.279 . S
C380 C379 1.358 . S
C380 H383 0.930 . S
C381 C378 1.348 . S
C381 C379 1.356 . S
H382 C376 0.930 . S
H383 C380 0.930 . S
C384 C386 1.348 . S
C384 C387 1.356 . S
C384 O414 1.325 . S
N385 C388 1.314 . S
N385 C389 1.279 . S
C386 C384 1.348 . S
C386 C388 1.353 . S
C386 H428 0.929 . S
C387 C384 1.356 . S
C387 C389 1.358 . S
C387 H429 0.930 . S
C388 N385 1.314 . S
C388 C386 1.353 . S
C388 H430 0.930 . S
C389 N385 1.279 . S
C389 C387 1.358 . S
C389 H431 0.930 . S
C390 C391 1.348 . S
C390 C392 1.339 1_556 S
C390 O415 1.325 . S
C391 C390 1.348 . S
C391 C393 1.353 . S
C391 H432 0.929 . S
C392 C390 1.339 1_554 S
C392 C394 1.344 1_554 S
C392 H433 0.964 . S
C393 C391 1.353 . S
C393 N395 1.314 . S
C393 H434 0.930 . S
C394 C392 1.344 1_556 S
C394 N395 1.279 . S
C394 H435 0.930 1_556 S
N395 C393 1.314 . S
N395 C394 1.279 . S
C396 C398 1.353 . S
C396 N399 1.314 . S
C396 H402 0.930 . S
C397 N399 1.279 . S
C397 C400 1.358 . S
C397 H403 0.930 . S
C398 C396 1.353 . S
C398 C401 1.348 . S
C398 H436 0.929 . S
N399 Li354 1.990 . S
N399 C396 1.314 . S
N399 C397 1.279 . S
C400 C397 1.358 . S
C400 C401 1.356 . S
C400 H437 0.930 . S
C401 C398 1.348 . S
C401 C400 1.356 . S
H402 C396 0.930 . S
H403 C397 0.930 . S
C404 N405 1.314 . S
C404 C406 1.353 . S
C404 H410 0.930 . S
N405 Li355 1.990 . S
N405 C404 1.314 . S
N405 C408 1.279 . S
C406 C404 1.353 . S
C406 C409 1.348 . S
C406 H438 0.929 . S
C407 C408 1.358 . S
C407 C409 1.356 . S
C407 H439 0.930 . S
C408 N405 1.279 . S
C408 C407 1.358 . S
C408 H411 0.930 . S
C409 C406 1.348 . S
C409 C407 1.356 . S
H410 C404 0.930 . S
H411 C408 0.930 . S
O412 Li352 1.956 . S
O412 Li353 1.970 . S
O412 Li354 1.961 1_554 S
O412 C356 1.325 . S
O413 Li352 1.970 . S
O413 Li353 1.956 . S
O413 Li355 1.961 1_554 S
O413 C362 1.325 . S
O414 Li352 1.961 1_556 S
O414 Li354 1.956 . S
O414 Li355 1.970 . S
O414 C384 1.325 . S
O415 Li353 1.961 1_556 S
O415 Li354 1.970 . S
O415 Li355 1.956 . S
O415 C390 1.325 . S
H416 C358 0.929 . S
H417 C359 0.930 . S
H418 C360 0.930 . S
H419 C361 0.930 . S
H420 C363 0.930 . S
H421 C365 0.929 . S
H422 C366 0.930 . S
H423 C367 0.930 . S
H424 C370 0.930 . S
H425 C373 0.929 . S
H426 C378 0.929 . S
H427 C379 0.930 . S
H428 C386 0.929 . S
H429 C387 0.930 . S
H430 C388 0.930 . S
H431 C389 0.930 . S
H432 C391 0.929 . S
H433 C392 0.964 . S
H434 C393 0.930 . S
H435 C394 0.930 1_554 S
H436 C398 0.929 . S
H437 C400 0.930 . S
H438 C406 0.929 . S
H439 C407 0.930 . S
Li440 N457 1.990 . S
Li440 O500 1.956 . S
Li440 O501 1.970 1_565 S
Li440 O502 1.961 . S
Li441 N465 1.990 . S
Li441 O500 1.970 1_545 S
Li441 O501 1.956 . S
Li441 O503 1.961 . S
Li442 N487 1.990 . S
Li442 O500 1.961 . S
Li442 O502 1.956 . S
Li442 O503 1.970 1_565 S
Li443 N493 1.990 . S
Li443 O501 1.961 . S
Li443 O502 1.970 1_545 S
Li443 O503 1.956 . S
C444 C446 1.348 . S
C444 C447 1.356 . S
C444 O500 1.325 . S
N445 C448 1.314 . S
N445 C449 1.279 . S
C446 C444 1.348 . S
C446 C448 1.353 . S
C446 H504 0.929 . S
C447 C444 1.356 . S
C447 C449 1.358 . S
C447 H505 0.930 . S
C448 N445 1.314 . S
C448 C446 1.353 . S
C448 H506 0.930 . S
C449 N445 1.279 . S
C449 C447 1.358 . S
C449 H507 0.930 . S
C450 C453 1.348 . S
C450 C454 1.356 . S
C450 O501 1.325 . S
C451 N452 1.279 . S
C451 C454 1.358 . S
C451 H508 0.930 . S
N452 C451 1.279 . S
N452 C455 1.314 . S
C453 C450 1.348 . S
C453 C455 1.353 . S
C453 H509 0.929 1_545 S
C454 C450 1.356 . S
C454 C451 1.358 . S
C454 H510 0.930 . S
C455 N452 1.314 . S
C455 C453 1.353 . S
C455 H511 0.930 . S
C456 N457 1.314 . S
C456 C461 1.353 . S
C456 H462 0.930 . S
N457 Li440 1.990 . S
N457 C456 1.314 . S
N457 C459 1.279 . S
C458 C459 1.358 . S
C458 C460 1.356 . S
C458 H512 0.930 . S
C459 N457 1.279 . S
C459 C458 1.358 . S
C459 H463 0.930 . S
C460 C458 1.356 . S
C460 C461 1.348 . S
C461 C456 1.353 . S
C461 C460 1.348 . S
C461 H513 0.929 . S
H462 C456 0.930 . S
H463 C459 0.930 . S
C464 N465 1.314 . S
C464 C466 1.353 . S
C464 H470 0.930 . S
N465 Li441 1.990 . S
N465 C464 1.314 . S
N465 C468 1.279 . S
C466 C464 1.353 . S
C466 C469 1.348 . S
C466 H514 0.929 . S
C467 C468 1.358 . S
C467 C469 1.356 . S
C467 H515 0.930 . S
C468 N465 1.279 . S
C468 C467 1.358 . S
C468 H471 0.930 . S
C469 C466 1.348 . S
C469 C467 1.356 . S
H470 C464 0.930 . S
H471 C468 0.930 . S
C472 C474 1.348 1_564 S
C472 C475 1.356 . S
C472 O502 1.325 . S
N473 C476 1.314 . S
N473 C477 1.279 . S
C474 C472 1.348 1_546 S
C474 C476 1.353 1_545 S
C474 H516 0.930 . S
C475 C472 1.356 . S
C475 C477 1.358 1_554 S
C475 H517 0.930 . S
C476 N473 1.314 . S
C476 C474 1.353 1_565 S
C476 H518 0.930 1_565 S
C477 N473 1.279 . S
C477 C475 1.358 1_556 S
C477 H519 0.930 . S
C478 C479 1.348 . S
C478 C480 1.356 . S
C478 O503 1.325 . S
C479 C478 1.348 . S
C479 C481 1.353 . S
C479 H520 0.929 . S
C480 C478 1.356 . S
C480 C482 1.358 . S
C480 H521 0.930 . S
C481 C479 1.353 . S
C481 N483 1.314 . S
C481 H522 0.930 1_554 S
C482 C480 1.358 . S
C482 N483 1.279 . S
C482 H523 0.930 . S
N483 C481 1.314 . S
N483 C482 1.279 . S
C484 C486 1.353 1_554 S
C484 N487 1.314 . S
C484 H490 0.930 . S
C485 N487 1.279 1_556 S
C485 C488 1.358 . S
C485 H491 0.930 . S
C486 C484 1.353 1_556 S
C486 C489 1.348 . S
C486 H524 0.929 . S
N487 Li442 1.990 . S
N487 C484 1.314 . S
N487 C485 1.279 1_554 S
C488 C485 1.358 . S
C488 C489 1.356 . S
C488 H525 0.930 . S
C489 C486 1.348 . S
C489 C488 1.356 . S
H490 C484 0.930 . S
H491 C485 0.930 . S
C492 N493 1.314 . S
C492 C494 1.353 . S
C492 H498 0.930 . S
N493 Li443 1.990 . S
N493 C492 1.314 . S
N493 C496 1.279 . S
C494 C492 1.353 . S
C494 C497 1.348 . S
C494 H526 0.929 . S
C495 C496 1.358 . S
C495 C497 1.356 . S
C495 H527 0.930 . S
C496 N493 1.279 . S
C496 C495 1.358 . S
C496 H499 0.930 . S
C497 C494 1.348 . S
C497 C495 1.356 . S
H498 C492 0.930 . S
H499 C496 0.930 . S
O500 Li440 1.956 . S
O500 Li441 1.970 1_565 S
O500 Li442 1.961 . S
O500 C444 1.325 . S
O501 Li440 1.970 1_545 S
O501 Li441 1.956 . S
O501 Li443 1.961 . S
O501 C450 1.325 . S
O502 Li440 1.961 . S
O502 Li442 1.956 . S
O502 Li443 1.970 1_565 S
O502 C472 1.325 . S
O503 Li441 1.961 . S
O503 Li442 1.970 1_545 S
O503 Li443 1.956 . S
O503 C478 1.325 . S
H504 C446 0.929 . S
H505 C447 0.930 . S
H506 C448 0.930 . S
H507 C449 0.930 . S
H508 C451 0.930 . S
H509 C453 0.929 1_565 S
H510 C454 0.930 . S
H511 C455 0.930 . S
H512 C458 0.930 . S
H513 C461 0.929 . S
H514 C466 0.929 . S
H515 C467 0.930 . S
H516 C474 0.930 . S
H517 C475 0.930 . S
H518 C476 0.930 1_545 S
H519 C477 0.930 . S
H520 C479 0.929 . S
H521 C480 0.930 . S
H522 C481 0.930 1_556 S
H523 C482 0.930 . S
H524 C486 0.929 . S
H525 C488 0.930 . S
H526 C494 0.929 . S
H527 C495 0.930 . S
Li528 N545 1.990 . S
Li528 O588 1.956 . S
Li528 O589 1.970 . S
Li528 O590 1.961 . S
Li529 N553 1.990 . S
Li529 O588 1.970 . S
Li529 O589 1.956 . S
Li529 O591 1.961 . S
Li530 N575 1.990 . S
Li530 O588 1.961 . S
Li530 O590 1.956 . S
Li530 O591 1.970 . S
Li531 N581 1.990 . S
Li531 O589 1.961 . S
Li531 O590 1.970 . S
Li531 O591 1.956 . S
C532 C534 1.348 . S
C532 C535 1.356 . S
C532 O588 1.325 . S
N533 C536 1.314 . S
N533 C537 1.279 . S
C534 C532 1.348 . S
C534 C536 1.353 . S
C534 H592 0.929 . S
C535 C532 1.356 . S
C535 C537 1.358 . S
C535 H593 0.930 . S
C536 N533 1.314 . S
C536 C534 1.353 . S
C536 H594 0.930 . S
C537 N533 1.279 . S
C537 C535 1.358 . S
C537 H595 0.930 . S
C538 C541 1.348 . S
C538 C542 1.356 . S
C538 O589 1.325 . S
C539 N540 1.279 . S
C539 C542 1.358 . S
C539 H596 0.930 . S
N540 C539 1.279 . S
N540 C543 1.314 . S
C541 C538 1.348 . S
C541 C543 1.353 . S
C541 H597 0.929 . S
C542 C538 1.356 . S
C542 C539 1.358 . S
C542 H598 0.930 . S
C543 N540 1.314 . S
C543 C541 1.353 . S
C543 H599 0.930 . S
C544 N545 1.314 . S
C544 C549 1.353 . S
C544 H550 0.930 . S
N545 Li528 1.990 . S
N545 C544 1.314 . S
N545 C547 1.279 . S
C546 C547 1.358 . S
C546 C548 1.356 . S
C546 H600 0.930 . S
C547 N545 1.279 . S
C547 C546 1.358 . S
C547 H551 0.930 . S
C548 C546 1.356 . S
C548 C549 1.348 . S
C549 C544 1.353 . S
C549 C548 1.348 . S
C549 H601 0.929 . S
H550 C544 0.930 . S
H551 C547 0.930 . S
C552 N553 1.314 . S
C552 C554 1.353 . S
C552 H558 0.930 . S
N553 Li529 1.990 . S
N553 C552 1.314 . S
N553 C556 1.279 . S
C554 C552 1.353 . S
C554 C557 1.348 . S
C554 H602 0.929 . S
C555 C556 1.358 . S
C555 C557 1.356 . S
C555 H603 0.930 . S
C556 N553 1.279 . S
C556 C555 1.358 . S
C556 H559 0.930 . S
C557 C554 1.348 . S
C557 C555 1.356 . S
H558 C552 0.930 . S
H559 C556 0.930 . S
C560 C562 1.348 . S
C560 C563 1.356 . S
C560 O590 1.325 . S
N561 C564 1.314 . S
N561 C565 1.279 . S
C562 C560 1.348 . S
C562 C564 1.353 . S
C562 H604 0.929 . S
C563 C560 1.356 . S
C563 C565 1.358 . S
C563 H605 0.930 . S
C564 N561 1.314 . S
C564 C562 1.353 . S
C564 H606 0.930 . S
C565 N561 1.279 . S
C565 C563 1.358 . S
C565 H607 0.930 . S
C566 C567 1.348 . S
C566 C568 1.356 . S
C566 O591 1.325 . S
C567 C566 1.348 . S
C567 C569 1.353 . S
C567 H608 0.929 . S
C568 C566 1.356 . S
C568 C570 1.358 . S
C568 H609 0.930 . S
C569 C567 1.353 . S
C569 N571 1.314 . S
C569 H610 0.930 . S
C570 C568 1.358 . S
C570 N571 1.279 . S
C570 H611 0.930 . S
N571 C569 1.314 . S
N571 C570 1.279 . S
C572 C574 1.353 . S
C572 N575 1.314 . S
C572 H578 0.930 . S
C573 N575 1.279 . S
C573 C576 1.358 . S
C573 H579 0.930 . S
C574 C572 1.353 . S
C574 C577 1.348 . S
C574 H612 0.929 . S
N575 Li530 1.990 . S
N575 C572 1.314 . S
N575 C573 1.279 . S
C576 C573 1.358 . S
C576 C577 1.356 . S
C576 H613 0.930 . S
C577 C574 1.348 . S
C577 C576 1.356 . S
H578 C572 0.930 . S
H579 C573 0.930 . S
C580 N581 1.314 . S
C580 C582 1.353 . S
C580 H586 0.930 . S
N581 Li531 1.990 . S
N581 C580 1.314 . S
N581 C584 1.279 . S
C582 C580 1.353 . S
C582 C585 1.348 . S
C582 H614 0.929 . S
C583 C584 1.358 . S
C583 C585 1.356 . S
C583 H615 0.930 . S
C584 N581 1.279 . S
C584 C583 1.358 . S
C584 H587 0.930 . S
C585 C582 1.348 . S
C585 C583 1.356 . S
H586 C580 0.930 . S
H587 C584 0.930 . S
O588 Li528 1.956 . S
O588 Li529 1.970 . S
O588 Li530 1.961 . S
O588 C532 1.325 . S
O589 Li528 1.970 . S
O589 Li529 1.956 . S
O589 Li531 1.961 . S
O589 C538 1.325 . S
O590 Li528 1.961 . S
O590 Li530 1.956 . S
O590 Li531 1.970 . S
O590 C560 1.325 . S
O591 Li529 1.961 . S
O591 Li530 1.970 . S
O591 Li531 1.956 . S
O591 C566 1.325 . S
H592 C534 0.929 . S
H593 C535 0.930 . S
H594 C536 0.930 . S
H595 C537 0.930 . S
H596 C539 0.930 . S
H597 C541 0.929 . S
H598 C542 0.930 . S
H599 C543 0.930 . S
H600 C546 0.930 . S
H601 C549 0.929 . S
H602 C554 0.929 . S
H603 C555 0.930 . S
H604 C562 0.929 . S
H605 C563 0.930 . S
H606 C564 0.930 . S
H607 C565 0.930 . S
H608 C567 0.929 . S
H609 C568 0.930 . S
H610 C569 0.930 . S
H611 C570 0.930 . S
H612 C574 0.929 . S
H613 C576 0.930 . S
H614 C582 0.929 . S
H615 C583 0.930 . S
Li616 N633 1.990 . S
Li616 O676 1.956 . S
Li616 O677 1.970 . S
Li616 O678 1.961 . S
Li617 N641 1.990 . S
Li617 O676 1.970 . S
Li617 O677 1.956 . S
Li617 O679 1.961 . S
Li618 N663 1.990 1_565 S
Li618 O676 1.961 . S
Li618 O678 1.956 . S
Li618 O679 1.970 . S
Li619 N669 1.990 . S
Li619 O677 1.961 . S
Li619 O678 1.970 . S
Li619 O679 1.956 . S
C620 C622 1.348 . S
C620 C623 1.356 . S
C620 O676 1.325 . S
N621 C624 1.314 . S
N621 C625 1.279 . S
C622 C620 1.348 . S
C622 C624 1.353 . S
C622 H680 0.929 . S
C623 C620 1.356 . S
C623 C625 1.358 . S
C623 H681 0.930 . S
C624 N621 1.314 . S
C624 C622 1.353 . S
C624 H682 0.930 . S
C625 N621 1.279 . S
C625 C623 1.358 . S
C625 H683 0.930 . S
C626 C629 1.348 . S
C626 C630 1.356 . S
C626 O677 1.325 . S
C627 N628 1.279 . S
C627 C630 1.358 . S
C627 H684 0.930 . S
N628 C627 1.279 . S
N628 C631 1.314 . S
C629 C626 1.348 . S
C629 C631 1.353 . S
C629 H685 0.929 . S
C630 C626 1.356 . S
C630 C627 1.358 . S
C630 H686 0.930 . S
C631 N628 1.314 . S
C631 C629 1.353 . S
C631 H687 0.930 . S
C632 N633 1.314 . S
C632 C637 1.353 . S
C632 H638 0.930 . S
N633 Li616 1.990 . S
N633 C632 1.314 . S
N633 C635 1.279 . S
C634 C635 1.358 . S
C634 C636 1.356 . S
C634 H688 0.930 . S
C635 N633 1.279 . S
C635 C634 1.358 . S
C635 H639 0.930 . S
C636 C634 1.356 . S
C636 C637 1.348 . S
C637 C632 1.353 . S
C637 C636 1.348 . S
C637 H689 0.929 . S
H638 C632 0.930 . S
H639 C635 0.930 . S
C640 N641 1.314 . S
C640 C642 1.353 . S
C640 H646 0.930 . S
N641 Li617 1.990 . S
N641 C640 1.314 . S
N641 C644 1.279 . S
C642 C640 1.353 . S
C642 C645 1.348 . S
C642 H690 0.929 . S
C643 C644 1.358 . S
C643 C645 1.356 . S
C643 H691 0.930 . S
C644 N641 1.279 . S
C644 C643 1.358 . S
C644 H647 0.930 . S
C645 C642 1.348 . S
C645 C643 1.356 . S
H646 C640 0.930 . S
H647 C644 0.930 . S
C648 C650 1.348 . S
C648 C651 1.356 . S
C648 O678 1.325 . S
N649 C652 1.314 . S
N649 C653 1.279 . S
C650 C648 1.348 . S
C650 C652 1.322 1_565 S
C650 H692 0.962 . S
C651 C648 1.356 . S
C651 C653 1.358 1_565 S
C651 H693 0.930 . S
C652 N649 1.314 . S
C652 C650 1.322 1_545 S
C652 H694 0.930 . S
C653 N649 1.279 . S
C653 C651 1.358 1_545 S
C653 H695 0.930 . S
C654 C655 1.348 . S
C654 C656 1.356 . S
C654 O679 1.325 . S
C655 C654 1.348 . S
C655 C657 1.353 . S
C655 H696 0.929 1_565 S
C656 C654 1.356 . S
C656 C658 1.358 . S
C656 H697 0.930 . S
C657 C655 1.353 . S
C657 N659 1.314 . S
C657 H698 0.930 1_565 S
C658 C656 1.358 . S
C658 N659 1.279 . S
C658 H699 0.930 . S
N659 C657 1.314 . S
N659 C658 1.279 . S
C660 C662 1.353 . S
C660 N663 1.314 . S
C660 H666 0.944 . S
C661 N663 1.279 . S
C661 C664 1.358 . S
C661 H667 0.930 . S
C662 C660 1.353 . S
C662 C665 1.348 . S
C662 H700 0.929 . S
N663 Li618 1.990 1_545 S
N663 C660 1.314 . S
N663 C661 1.279 . S
C664 C661 1.358 . S
C664 C665 1.356 . S
C664 H701 0.930 . S
C665 C662 1.348 . S
C665 C664 1.356 . S
H666 C660 0.944 . S
H667 C661 0.930 . S
C668 N669 1.314 . S
C668 C670 1.353 . S
C668 H674 0.930 . S
N669 Li619 1.990 . S
N669 C668 1.314 . S
N669 C672 1.279 . S
C670 C668 1.353 . S
C670 C673 1.348 . S
C670 H702 0.929 . S
C671 C672 1.358 . S
C671 C673 1.356 . S
C671 H703 0.930 . S
C672 N669 1.279 . S
C672 C671 1.358 . S
C672 H675 0.930 . S
C673 C670 1.348 . S
C673 C671 1.356 . S
H674 C668 0.930 . S
H675 C672 0.930 . S
O676 Li616 1.956 . S
O676 Li617 1.970 . S
O676 Li618 1.961 . S
O676 C620 1.325 . S
O677 Li616 1.970 . S
O677 Li617 1.956 . S
O677 Li619 1.961 . S
O677 C626 1.325 . S
O678 Li616 1.961 . S
O678 Li618 1.956 . S
O678 Li619 1.970 . S
O678 C648 1.325 . S
O679 Li617 1.961 . S
O679 Li618 1.970 . S
O679 Li619 1.956 . S
O679 C654 1.325 . S
H680 C622 0.929 . S
H681 C623 0.930 . S
H682 C624 0.930 . S
H683 C625 0.930 . S
H684 C627 0.930 . S
H685 C629 0.929 . S
H686 C630 0.930 . S
H687 C631 0.930 . S
H688 C634 0.930 . S
H689 C637 0.929 . S
H690 C642 0.929 . S
H691 C643 0.930 . S
H692 C650 0.962 . S
H693 C651 0.930 . S
H694 C652 0.930 . S
H695 C653 0.930 . S
H696 C655 0.929 1_545 S
H697 C656 0.930 . S
H698 C657 0.930 1_545 S
H699 C658 0.930 . S
H700 C662 0.929 . S
H701 C664 0.930 . S
H702 C670 0.929 . S
H703 C671 0.930 . S
Li704 N721 1.990 . S
Li704 O764 1.956 . S
Li704 O765 1.970 . S
Li704 O766 1.961 . S
Li705 N729 1.990 . S
Li705 O764 1.970 . S
Li705 O765 1.956 . S
Li705 O767 1.961 . S
Li706 N751 1.990 . S
Li706 O764 1.961 . S
Li706 O766 1.956 . S
Li706 O767 1.970 . S
Li707 N757 1.990 . S
Li707 O765 1.961 . S
Li707 O766 1.970 . S
Li707 O767 1.956 . S
C708 C710 1.348 . S
C708 C711 1.356 . S
C708 O764 1.325 . S
N709 C712 1.314 . S
N709 C713 1.279 . S
C710 C708 1.348 . S
C710 C712 1.353 . S
C710 H768 0.929 . S
C711 C708 1.356 . S
C711 C713 1.358 . S
C711 H769 0.930 . S
C712 N709 1.314 . S
C712 C710 1.353 . S
C712 H770 0.930 . S
C713 N709 1.279 . S
C713 C711 1.358 . S
C713 H771 0.930 . S
C714 C717 1.348 . S
C714 C718 1.356 . S
C714 O765 1.325 . S
C715 N716 1.279 . S
C715 C718 1.358 . S
C715 H772 0.930 . S
N716 C715 1.279 . S
N716 C719 1.314 . S
C717 C714 1.348 . S
C717 C719 1.353 . S
C717 H773 0.929 . S
C718 C714 1.356 . S
C718 C715 1.358 . S
C718 H774 0.930 . S
C719 N716 1.314 . S
C719 C717 1.353 . S
C719 H775 0.930 . S
C720 N721 1.314 . S
C720 C725 1.353 . S
C720 H726 0.930 . S
N721 Li704 1.990 . S
N721 C720 1.314 . S
N721 C723 1.279 . S
C722 C723 1.358 . S
C722 C724 1.356 . S
C722 H776 0.930 . S
C723 N721 1.279 . S
C723 C722 1.358 . S
C723 H727 0.930 . S
C724 C722 1.356 . S
C724 C725 1.348 . S
C725 C720 1.353 . S
C725 C724 1.348 . S
C725 H777 0.929 . S
H726 C720 0.930 . S
H727 C723 0.930 . S
C728 N729 1.314 . S
C728 C730 1.353 . S
C728 H734 0.930 . S
N729 Li705 1.990 . S
N729 C728 1.314 . S
N729 C732 1.279 . S
C730 C728 1.353 . S
C730 C733 1.348 . S
C730 H778 0.929 . S
C731 C732 1.358 . S
C731 C733 1.356 . S
C731 H779 0.930 . S
C732 N729 1.279 . S
C732 C731 1.358 . S
C732 H735 0.930 . S
C733 C730 1.348 . S
C733 C731 1.356 . S
H734 C728 0.930 . S
H735 C732 0.930 . S
C736 C738 1.348 . S
C736 C739 1.356 . S
C736 O766 1.325 . S
N737 C740 1.314 . S
N737 C741 1.279 . S
C738 C736 1.348 . S
C738 C740 1.353 1_455 S
C738 H780 0.929 . S
C739 C736 1.356 . S
C739 C741 1.358 1_455 S
C739 H781 0.930 . S
C740 N737 1.314 . S
C740 C738 1.353 1_655 S
C740 H782 0.930 . S
C741 N737 1.279 . S
C741 C739 1.358 1_655 S
C741 H783 0.930 . S
C742 C743 1.348 . S
C742 C744 1.356 . S
C742 O767 1.325 . S
C743 C742 1.348 . S
C743 C745 1.353 . S
C743 H784 0.929 . S
C744 C742 1.356 . S
C744 C746 1.358 . S
C744 H785 0.930 . S
C745 C743 1.353 . S
C745 N747 1.314 . S
C745 H786 0.988 . S
C746 C744 1.358 . S
C746 N747 1.279 . S
C746 H787 0.930 . S
N747 C745 1.314 . S
N747 C746 1.279 . S
C748 C750 1.370 . S
C748 N751 1.317 1_655 S
C748 H754 0.908 1_655 S
C749 N751 1.279 1_655 S
C749 C752 1.358 . S
C749 H755 0.930 . S
C750 C748 1.370 . S
C750 C753 1.348 . S
C750 H788 0.929 . S
N751 Li706 1.990 . S
N751 C748 1.317 1_455 S
N751 C749 1.279 1_455 S
C752 C749 1.358 . S
C752 C753 1.356 . S
C752 H789 0.930 . S
C753 C750 1.348 . S
C753 C752 1.356 . S
H754 C748 0.908 1_455 S
H755 C749 0.930 . S
C756 N757 1.314 . S
C756 C758 1.353 . S
C756 H762 0.930 . S
N757 Li707 1.990 . S
N757 C756 1.314 . S
N757 C760 1.279 . S
C758 C756 1.353 . S
C758 C761 1.348 . S
C758 H790 0.929 . S
C759 C760 1.358 . S
C759 C761 1.356 . S
C759 H791 0.930 . S
C760 N757 1.279 . S
C760 C759 1.358 . S
C760 H763 0.930 . S
C761 C758 1.348 . S
C761 C759 1.356 . S
H762 C756 0.930 . S
H763 C760 0.930 . S
O764 Li704 1.956 . S
O764 Li705 1.970 . S
O764 Li706 1.961 . S
O764 C708 1.325 . S
O765 Li704 1.970 . S
O765 Li705 1.956 . S
O765 Li707 1.961 . S
O765 C714 1.325 . S
O766 Li704 1.961 . S
O766 Li706 1.956 . S
O766 Li707 1.970 . S
O766 C736 1.325 . S
O767 Li705 1.961 . S
O767 Li706 1.970 . S
O767 Li707 1.956 . S
O767 C742 1.325 . S
H768 C710 0.929 . S
H769 C711 0.930 . S
H770 C712 0.930 . S
H771 C713 0.930 . S
H772 C715 0.930 . S
H773 C717 0.929 . S
H774 C718 0.930 . S
H775 C719 0.930 . S
H776 C722 0.930 . S
H777 C725 0.929 . S
H778 C730 0.929 . S
H779 C731 0.930 . S
H780 C738 0.929 . S
H781 C739 0.930 . S
H782 C740 0.930 . S
H783 C741 0.930 . S
H784 C743 0.929 . S
H785 C744 0.930 . S
H786 C745 0.988 . S
H787 C746 0.930 . S
H788 C750 0.929 . S
H789 C752 0.930 . S
H790 C758 0.929 . S
H791 C759 0.930 . S
Li792 N809 1.990 1_565 S
Li792 O852 1.956 . S
Li792 O853 1.970 . S
Li792 O854 1.961 . S
Li793 N817 1.990 . S
Li793 O852 1.970 . S
Li793 O853 1.956 . S
Li793 O855 1.961 . S
Li794 N839 1.990 . S
Li794 O852 1.961 . S
Li794 O854 1.956 . S
Li794 O855 1.970 . S
Li795 N845 1.990 . S
Li795 O853 1.961 . S
Li795 O854 1.970 . S
Li795 O855 1.956 . S
C796 C798 1.348 . S
C796 C799 1.356 . S
C796 O852 1.325 . S
N797 C800 1.314 . S
N797 C801 1.279 . S
C798 C796 1.348 . S
C798 C800 1.353 . S
C798 H856 0.929 . S
C799 C796 1.356 . S
C799 C801 1.358 . S
C799 H857 0.930 . S
C800 N797 1.314 . S
C800 C798 1.353 . S
C800 H858 0.930 . S
C801 N797 1.279 . S
C801 C799 1.358 . S
C801 H859 0.930 . S
C802 C805 1.348 . S
C802 C806 1.356 . S
C802 O853 1.325 . S
C803 N804 1.279 . S
C803 C806 1.358 . S
C803 H860 0.930 . S
N804 C803 1.279 . S
N804 C807 1.314 . S
C805 C802 1.348 . S
C805 C807 1.353 . S
C805 H861 0.929 . S
C806 C802 1.356 . S
C806 C803 1.358 . S
C806 H862 0.930 . S
C807 N804 1.314 . S
C807 C805 1.353 . S
C807 H863 0.930 1_565 S
C808 N809 1.314 . S
C808 C813 1.353 . S
C808 H814 0.930 . S
N809 Li792 1.990 1_545 S
N809 C808 1.314 . S
N809 C811 1.279 . S
C810 C811 1.358 . S
C810 C812 1.356 . S
C810 H864 0.930 . S
C811 N809 1.279 . S
C811 C810 1.358 . S
C811 H815 0.930 . S
C812 C810 1.356 . S
C812 C813 1.348 . S
C813 C808 1.353 . S
C813 C812 1.348 . S
C813 H865 0.929 . S
H814 C808 0.930 . S
H815 C811 0.930 . S
C816 N817 1.314 . S
C816 C818 1.353 . S
C816 H822 0.930 . S
N817 Li793 1.990 . S
N817 C816 1.314 . S
N817 C820 1.279 . S
C818 C816 1.353 . S
C818 C821 1.348 . S
C818 H866 0.929 . S
C819 C820 1.358 . S
C819 C821 1.356 . S
C819 H867 0.930 . S
C820 N817 1.279 . S
C820 C819 1.358 . S
C820 H823 0.930 . S
C821 C818 1.348 . S
C821 C819 1.356 . S
H822 C816 0.930 . S
H823 C820 0.930 . S
C824 C826 1.348 . S
C824 C827 1.356 1_565 S
C824 O854 1.325 . S
N825 C828 1.314 . S
N825 C829 1.279 . S
C826 C824 1.348 . S
C826 C828 1.353 1_565 S
C826 H868 0.929 . S
C827 C824 1.356 1_545 S
C827 C829 1.358 . S
C827 H869 0.930 . S
C828 N825 1.314 . S
C828 C826 1.353 1_545 S
C828 H870 0.930 . S
C829 N825 1.279 . S
C829 C827 1.358 . S
C829 H871 0.930 . S
C830 C831 1.348 . S
C830 C832 1.356 . S
C830 O855 1.325 . S
C831 C830 1.348 . S
C831 C833 1.353 . S
C831 H872 0.929 . S
C832 C830 1.356 . S
C832 C834 1.358 . S
C832 H873 0.930 . S
C833 C831 1.353 . S
C833 N835 1.314 . S
C833 H874 0.930 . S
C834 C832 1.358 . S
C834 N835 1.279 . S
C834 H875 0.930 . S
N835 C833 1.314 . S
N835 C834 1.279 . S
C836 C838 1.353 . S
C836 N839 1.314 . S
C836 H842 0.930 . S
C837 N839 1.279 . S
C837 C840 1.358 . S
C837 H843 0.930 . S
C838 C836 1.353 . S
C838 C841 1.348 . S
C838 H876 0.929 . S
N839 Li794 1.990 . S
N839 C836 1.314 . S
N839 C837 1.279 . S
C840 C837 1.358 . S
C840 C841 1.356 . S
C840 H877 0.930 . S
C841 C838 1.348 . S
C841 C840 1.356 . S
H842 C836 0.930 . S
H843 C837 0.930 . S
C844 N845 1.314 . S
C844 C846 1.353 . S
C844 H850 0.930 . S
N845 Li795 1.990 . S
N845 C844 1.314 . S
N845 C848 1.279 . S
C846 C844 1.353 . S
C846 C849 1.348 . S
C846 H878 0.929 . S
C847 C848 1.358 . S
C847 C849 1.356 . S
C847 H879 0.930 . S
C848 N845 1.279 . S
C848 C847 1.358 . S
C848 H851 0.930 . S
C849 C846 1.348 . S
C849 C847 1.356 . S
H850 C844 0.930 . S
H851 C848 0.930 . S
O852 Li792 1.956 . S
O852 Li793 1.970 . S
O852 Li794 1.961 . S
O852 C796 1.325 . S
O853 Li792 1.970 . S
O853 Li793 1.956 . S
O853 Li795 1.961 . S
O853 C802 1.325 . S
O854 Li792 1.961 . S
O854 Li794 1.956 . S
O854 Li795 1.970 . S
O854 C824 1.325 . S
O855 Li793 1.961 . S
O855 Li794 1.970 . S
O855 Li795 1.956 . S
O855 C830 1.325 . S
H856 C798 0.929 . S
H857 C799 0.930 . S
H858 C800 0.930 . S
H859 C801 0.930 . S
H860 C803 0.930 . S
H861 C805 0.929 . S
H862 C806 0.930 . S
H863 C807 0.930 1_545 S
H864 C810 0.930 . S
H865 C813 0.929 . S
H866 C818 0.929 . S
H867 C819 0.930 . S
H868 C826 0.929 . S
H869 C827 0.930 . S
H870 C828 0.930 . S
H871 C829 0.930 . S
H872 C831 0.929 . S
H873 C832 0.930 . S
H874 C833 0.930 . S
H875 C834 0.930 . S
H876 C838 0.929 . S
H877 C840 0.930 . S
H878 C846 0.929 . S
H879 C847 0.930 . S
Li880 N897 1.990 . S
Li880 O940 1.956 . S
Li880 O941 1.970 . S
Li880 O942 1.961 . S
Li881 N905 1.990 1_455 S
Li881 O940 1.970 . S
Li881 O941 1.956 . S
Li881 O943 1.961 . S
Li882 N927 1.990 . S
Li882 O940 1.961 . S
Li882 O942 1.956 . S
Li882 O943 1.970 . S
Li883 N933 1.990 . S
Li883 O941 1.961 . S
Li883 O942 1.970 . S
Li883 O943 1.956 . S
C884 C886 1.348 . S
C884 C887 1.356 . S
C884 O940 1.325 . S
N885 C888 1.314 . S
N885 C889 1.279 . S
C886 C884 1.348 . S
C886 C888 1.353 . S
C886 H944 0.929 . S
C887 C884 1.356 . S
C887 C889 1.358 . S
C887 H945 0.930 . S
C888 N885 1.314 . S
C888 C886 1.353 . S
C888 H946 0.930 . S
C889 N885 1.279 . S
C889 C887 1.358 . S
C889 H947 0.930 . S
C890 C893 1.348 . S
C890 C894 1.356 . S
C890 O941 1.325 . S
C891 N892 1.279 . S
C891 C894 1.358 . S
C891 H948 0.930 . S
N892 C891 1.279 . S
N892 C895 1.314 . S
C893 C890 1.348 . S
C893 C895 1.353 . S
C893 H949 0.929 . S
C894 C890 1.356 . S
C894 C891 1.358 . S
C894 H950 0.930 . S
C895 N892 1.314 . S
C895 C893 1.353 . S
C895 H951 0.930 . S
C896 N897 1.314 . S
C896 C901 1.353 . S
C896 H902 0.930 . S
N897 Li880 1.990 . S
N897 C896 1.314 . S
N897 C899 1.279 . S
C898 C899 1.358 . S
C898 C900 1.356 . S
C898 H952 0.930 . S
C899 N897 1.279 . S
C899 C898 1.358 . S
C899 H903 0.930 . S
C900 C898 1.356 . S
C900 C901 1.348 . S
C901 C896 1.353 . S
C901 C900 1.348 . S
C901 H953 0.929 . S
H902 C896 0.930 . S
H903 C899 0.930 . S
C904 N905 1.314 . S
C904 C906 1.353 . S
C904 H910 0.930 . S
N905 Li881 1.990 1_655 S
N905 C904 1.314 . S
N905 C908 1.279 . S
C906 C904 1.353 . S
C906 C909 1.348 . S
C906 H954 0.929 . S
C907 C908 1.358 . S
C907 C909 1.356 . S
C907 H955 0.930 . S
C908 N905 1.279 . S
C908 C907 1.358 . S
C908 H911 0.930 1_655 S
C909 C906 1.348 . S
C909 C907 1.356 . S
H910 C904 0.930 . S
H911 C908 0.930 1_455 S
C912 C914 1.348 . S
C912 C915 1.356 . S
C912 O942 1.325 . S
N913 C916 1.314 . S
N913 C917 1.279 . S
C914 C912 1.348 . S
C914 C916 1.353 . S
C914 H956 0.929 . S
C915 C912 1.356 . S
C915 C917 1.358 . S
C915 H957 0.930 . S
C916 N913 1.314 . S
C916 C914 1.353 . S
C916 H958 0.930 . S
C917 N913 1.279 . S
C917 C915 1.358 . S
C917 H959 0.930 . S
C918 C919 1.348 . S
C918 C920 1.325 1_455 S
C918 O943 1.325 . S
C919 C918 1.348 . S
C919 C921 1.353 1_455 S
C919 H960 0.929 . S
C920 C918 1.325 1_655 S
C920 C922 1.377 . S
C920 H961 0.946 1_655 S
C921 C919 1.353 1_655 S
C921 N923 1.314 . S
C921 H962 0.930 . S
C922 C920 1.377 . S
C922 N923 1.279 . S
C922 H963 0.930 . S
N923 C921 1.314 . S
N923 C922 1.279 . S
C924 C926 1.353 . S
C924 N927 1.314 . S
C924 H930 0.930 . S
C925 N927 1.279 . S
C925 C928 1.358 . S
C925 H931 0.930 . S
C926 C924 1.353 . S
C926 C929 1.348 . S
C926 H964 0.929 . S
N927 Li882 1.990 . S
N927 C924 1.314 . S
N927 C925 1.279 . S
C928 C925 1.358 . S
C928 C929 1.356 . S
C928 H965 0.930 . S
C929 C926 1.348 . S
C929 C928 1.356 . S
H930 C924 0.930 . S
H931 C925 0.930 . S
C932 N933 1.314 . S
C932 C934 1.353 . S
C932 H938 0.930 . S
N933 Li883 1.990 . S
N933 C932 1.314 . S
N933 C936 1.279 . S
C934 C932 1.353 . S
C934 C937 1.348 . S
C934 H966 0.929 . S
C935 C936 1.358 . S
C935 C937 1.356 . S
C935 H967 0.930 . S
C936 N933 1.279 . S
C936 C935 1.358 . S
C936 H939 0.930 . S
C937 C934 1.348 . S
C937 C935 1.356 . S
H938 C932 0.930 . S
H939 C936 0.930 . S
O940 Li880 1.956 . S
O940 Li881 1.970 . S
O940 Li882 1.961 . S
O940 C884 1.325 . S
O941 Li880 1.970 . S
O941 Li881 1.956 . S
O941 Li883 1.961 . S
O941 C890 1.325 . S
O942 Li880 1.961 . S
O942 Li882 1.956 . S
O942 Li883 1.970 . S
O942 C912 1.325 . S
O943 Li881 1.961 . S
O943 Li882 1.970 . S
O943 Li883 1.956 . S
O943 C918 1.325 . S
H944 C886 0.929 . S
H945 C887 0.930 . S
H946 C888 0.930 . S
H947 C889 0.930 . S
H948 C891 0.930 . S
H949 C893 0.929 . S
H950 C894 0.930 . S
H951 C895 0.930 . S
H952 C898 0.930 . S
H953 C901 0.929 . S
H954 C906 0.929 . S
H955 C907 0.930 . S
H956 C914 0.929 . S
H957 C915 0.930 . S
H958 C916 0.930 . S
H959 C917 0.930 . S
H960 C919 0.929 . S
H961 C920 0.946 1_455 S
H962 C921 0.930 . S
H963 C922 0.930 . S
H964 C926 0.929 . S
H965 C928 0.930 . S
H966 C934 0.929 . S
H967 C935 0.930 . S
Li968 N985 1.990 . S
Li968 O1028 1.956 . S
Li968 O1029 1.970 . S
Li968 O1030 1.961 . S
Li969 N993 1.990 . S
Li969 O1028 1.970 . S
Li969 O1029 1.956 . S
Li969 O1031 1.961 . S
Li970 N1015 1.990 . S
Li970 O1028 1.961 . S
Li970 O1030 1.956 . S
Li970 O1031 1.970 . S
Li971 N1021 1.990 . S
Li971 O1029 1.961 . S
Li971 O1030 1.970 . S
Li971 O1031 1.956 . S
C972 C974 1.348 . S
C972 C975 1.356 . S
C972 O1028 1.325 . S
N973 C976 1.314 . S
N973 C977 1.279 . S
C974 C972 1.348 . S
C974 C976 1.353 . S
C974 H1032 0.929 . S
C975 C972 1.356 . S
C975 C977 1.358 . S
C975 H1033 0.930 . S
C976 N973 1.314 . S
C976 C974 1.353 . S
C976 H1034 0.930 . S
C977 N973 1.279 . S
C977 C975 1.358 . S
C977 H1035 0.930 . S
C978 C981 1.348 . S
C978 C982 1.356 . S
C978 O1029 1.325 . S
C979 N980 1.279 . S
C979 C982 1.358 . S
C979 H1036 0.930 . S
N980 C979 1.279 . S
N980 C983 1.314 . S
C981 C978 1.348 . S
C981 C983 1.353 . S
C981 H1037 0.929 . S
C982 C978 1.356 . S
C982 C979 1.358 . S
C982 H1038 0.930 . S
C983 N980 1.314 . S
C983 C981 1.353 . S
C983 H1039 0.930 . S
C984 N985 1.314 . S
C984 C989 1.353 . S
C984 H990 0.930 . S
N985 Li968 1.990 . S
N985 C984 1.314 . S
N985 C987 1.279 . S
C986 C987 1.358 . S
C986 C988 1.356 . S
C986 H1040 0.930 . S
C987 N985 1.279 . S
C987 C986 1.358 . S
C987 H991 0.930 . S
C988 C986 1.356 . S
C988 C989 1.348 . S
C989 C984 1.353 . S
C989 C988 1.348 . S
C989 H1041 0.929 . S
H990 C984 0.930 . S
H991 C987 0.930 . S
C992 N993 1.314 . S
C992 C994 1.353 . S
C992 H998 0.930 . S
N993 Li969 1.990 . S
N993 C992 1.314 . S
N993 C996 1.279 . S
C994 C992 1.353 . S
C994 C997 1.348 . S
C994 H1042 0.929 . S
C995 C996 1.358 . S
C995 C997 1.356 . S
C995 H1043 0.930 . S
C996 N993 1.279 . S
C996 C995 1.358 . S
C996 H999 0.930 . S
C997 C994 1.348 . S
C997 C995 1.356 . S
H998 C992 0.930 . S
H999 C996 0.930 . S
C1000 C1002 1.348 . S
C1000 C1003 1.356 . S
C1000 O1030 1.325 . S
N1001 C1004 1.314 . S
N1001 C1005 1.279 . S
C1002 C1000 1.348 . S
C1002 C1004 1.353 . S
C1002 H1044 0.929 . S
C1003 C1000 1.356 . S
C1003 C1005 1.358 . S
C1003 H1045 0.930 . S
C1004 N1001 1.314 . S
C1004 C1002 1.353 . S
C1004 H1046 0.930 . S
C1005 N1001 1.279 . S
C1005 C1003 1.358 . S
C1005 H1047 0.930 . S
C1006 C1007 1.348 . S
C1006 C1008 1.356 . S
C1006 O1031 1.325 . S
C1007 C1006 1.348 . S
C1007 C1009 1.353 . S
C1007 H1048 0.929 . S
C1008 C1006 1.356 . S
C1008 C1010 1.358 . S
C1008 H1049 0.930 . S
C1009 C1007 1.353 . S
C1009 N1011 1.314 . S
C1009 H1050 0.930 . S
C1010 C1008 1.358 . S
C1010 N1011 1.279 . S
C1010 H1051 0.930 . S
N1011 C1009 1.314 . S
N1011 C1010 1.279 . S
C1012 C1014 1.353 . S
C1012 N1015 1.314 . S
C1012 H1018 0.930 . S
C1013 N1015 1.279 . S
C1013 C1016 1.358 . S
C1013 H1019 0.930 . S
C1014 C1012 1.353 . S
C1014 C1017 1.348 . S
C1014 H1052 0.929 . S
N1015 Li970 1.990 . S
N1015 C1012 1.314 . S
N1015 C1013 1.279 . S
C1016 C1013 1.358 . S
C1016 C1017 1.356 . S
C1016 H1053 0.930 . S
C1017 C1014 1.348 . S
C1017 C1016 1.356 . S
H1018 C1012 0.930 . S
H1019 C1013 0.930 . S
C1020 N1021 1.314 . S
C1020 C1022 1.353 . S
C1020 H1026 0.930 . S
N1021 Li971 1.990 . S
N1021 C1020 1.314 . S
N1021 C1024 1.279 . S
C1022 C1020 1.353 . S
C1022 C1025 1.348 . S
C1022 H1054 0.929 . S
C1023 C1024 1.358 . S
C1023 C1025 1.356 . S
C1023 H1055 0.930 . S
C1024 N1021 1.279 . S
C1024 C1023 1.358 . S
C1024 H1027 0.930 . S
C1025 C1022 1.348 . S
C1025 C1023 1.356 . S
H1026 C1020 0.930 . S
H1027 C1024 0.930 . S
O1028 Li968 1.956 . S
O1028 Li969 1.970 . S
O1028 Li970 1.961 . S
O1028 C972 1.325 . S
O1029 Li968 1.970 . S
O1029 Li969 1.956 . S
O1029 Li971 1.961 . S
O1029 C978 1.325 . S
O1030 Li968 1.961 . S
O1030 Li970 1.956 . S
O1030 Li971 1.970 . S
O1030 C1000 1.325 . S
O1031 Li969 1.961 . S
O1031 Li970 1.970 . S
O1031 Li971 1.956 . S
O1031 C1006 1.325 . S
H1032 C974 0.929 . S
H1033 C975 0.930 . S
H1034 C976 0.930 . S
H1035 C977 0.930 . S
H1036 C979 0.930 . S
H1037 C981 0.929 . S
H1038 C982 0.930 . S
H1039 C983 0.930 . S
H1040 C986 0.930 . S
H1041 C989 0.929 . S
H1042 C994 0.929 . S
H1043 C995 0.930 . S
H1044 C1002 0.929 . S
H1045 C1003 0.930 . S
H1046 C1004 0.930 . S
H1047 C1005 0.930 . S
H1048 C1007 0.929 . S
H1049 C1008 0.930 . S
H1050 C1009 0.930 . S
H1051 C1010 0.930 . S
H1052 C1014 0.929 . S
H1053 C1016 0.930 . S
H1054 C1022 0.929 . S
H1055 C1023 0.930 . S
Li1056 N1073 1.990 1_545 S
Li1056 O1116 1.956 . S
Li1056 O1117 1.970 . S
Li1056 O1118 1.961 . S
Li1057 N1081 1.990 . S
Li1057 O1116 1.970 . S
Li1057 O1117 1.956 . S
Li1057 O1119 1.961 . S
Li1058 N1103 1.990 . S
Li1058 O1116 1.961 . S
Li1058 O1118 1.956 . S
Li1058 O1119 1.970 . S
Li1059 N1109 1.990 . S
Li1059 O1117 1.961 . S
Li1059 O1118 1.970 . S
Li1059 O1119 1.956 . S
C1060 C1062 1.348 . S
C1060 C1063 1.356 . S
C1060 O1116 1.325 . S
N1061 C1064 1.314 . S
N1061 C1065 1.279 . S
C1062 C1060 1.348 . S
C1062 C1064 1.353 1_545 S
C1062 H1120 0.929 . S
C1063 C1060 1.356 . S
C1063 C1065 1.358 1_545 S
C1063 H1121 0.930 . S
C1064 N1061 1.314 . S
C1064 C1062 1.353 1_565 S
C1064 H1122 0.930 . S
C1065 N1061 1.279 . S
C1065 C1063 1.358 1_565 S
C1065 H1123 0.930 . S
C1066 C1069 1.348 . S
C1066 C1070 1.356 . S
C1066 O1117 1.325 . S
C1067 N1068 1.279 . S
C1067 C1070 1.358 . S
C1067 H1124 0.930 . S
N1068 C1067 1.279 . S
N1068 C1071 1.314 . S
C1069 C1066 1.348 . S
C1069 C1071 1.353 . S
C1069 H1125 0.929 1_545 S
C1070 C1066 1.356 . S
C1070 C1067 1.358 . S
C1070 H1126 0.930 . S
C1071 N1068 1.314 . S
C1071 C1069 1.353 . S
C1071 H1127 0.930 1_545 S
C1072 N1073 1.314 . S
C1072 C1077 1.353 . S
C1072 H1078 0.916 1_565 S
N1073 Li1056 1.990 1_565 S
N1073 C1072 1.314 . S
N1073 C1075 1.279 . S
C1074 C1075 1.358 . S
C1074 C1076 1.356 . S
C1074 H1128 0.930 . S
C1075 N1073 1.279 . S
C1075 C1074 1.358 . S
C1075 H1079 0.930 . S
C1076 C1074 1.356 . S
C1076 C1077 1.348 . S
C1077 C1072 1.353 . S
C1077 C1076 1.348 . S
C1077 H1129 0.929 . S
H1078 C1072 0.916 1_545 S
H1079 C1075 0.930 . S
C1080 N1081 1.314 . S
C1080 C1082 1.353 . S
C1080 H1086 0.930 . S
N1081 Li1057 1.990 . S
N1081 C1080 1.314 . S
N1081 C1084 1.279 . S
C1082 C1080 1.353 . S
C1082 C1085 1.348 . S
C1082 H1130 0.929 . S
C1083 C1084 1.358 . S
C1083 C1085 1.356 . S
C1083 H1131 0.930 . S
C1084 N1081 1.279 . S
C1084 C1083 1.358 . S
C1084 H1087 0.930 . S
C1085 C1082 1.348 . S
C1085 C1083 1.356 . S
H1086 C1080 0.930 . S
H1087 C1084 0.930 . S
C1088 C1090 1.348 . S
C1088 C1091 1.356 . S
C1088 O1118 1.325 . S
N1089 C1092 1.314 . S
N1089 C1093 1.279 . S
C1090 C1088 1.348 . S
C1090 C1092 1.353 . S
C1090 H1132 0.929 . S
C1091 C1088 1.356 . S
C1091 C1093 1.358 . S
C1091 H1133 0.930 . S
C1092 N1089 1.314 . S
C1092 C1090 1.353 . S
C1092 H1134 0.930 . S
C1093 N1089 1.279 . S
C1093 C1091 1.358 . S
C1093 H1135 0.930 . S
C1094 C1095 1.348 . S
C1094 C1096 1.356 . S
C1094 O1119 1.325 . S
C1095 C1094 1.348 . S
C1095 C1097 1.353 . S
C1095 H1136 0.929 . S
C1096 C1094 1.356 . S
C1096 C1098 1.358 . S
C1096 H1137 0.930 . S
C1097 C1095 1.353 . S
C1097 N1099 1.314 . S
C1097 H1138 0.930 . S
C1098 C1096 1.358 . S
C1098 N1099 1.279 . S
C1098 H1139 0.930 . S
N1099 C1097 1.314 . S
N1099 C1098 1.279 . S
C1100 C1102 1.353 . S
C1100 N1103 1.314 . S
C1100 H1106 0.930 . S
C1101 N1103 1.279 . S
C1101 C1104 1.358 . S
C1101 H1107 0.930 . S
C1102 C1100 1.353 . S
C1102 C1105 1.348 . S
C1102 H1140 0.929 . S
N1103 Li1058 1.990 . S
N1103 C1100 1.314 . S
N1103 C1101 1.279 . S
C1104 C1101 1.358 . S
C1104 C1105 1.356 . S
C1104 H1141 0.930 . S
C1105 C1102 1.348 . S
C1105 C1104 1.356 . S
H1106 C1100 0.930 . S
H1107 C1101 0.930 . S
C1108 N1109 1.314 . S
C1108 C1110 1.353 . S
C1108 H1114 0.930 . S
N1109 Li1059 1.990 . S
N1109 C1108 1.314 . S
N1109 C1112 1.279 . S
C1110 C1108 1.353 . S
C1110 C1113 1.348 . S
C1110 H1142 0.929 . S
C1111 C1112 1.358 . S
C1111 C1113 1.356 . S
C1111 H1143 0.930 . S
C1112 N1109 1.279 . S
C1112 C1111 1.358 . S
C1112 H1115 0.930 . S
C1113 C1110 1.348 . S
C1113 C1111 1.356 . S
H1114 C1108 0.930 . S
H1115 C1112 0.930 . S
O1116 Li1056 1.956 . S
O1116 Li1057 1.970 . S
O1116 Li1058 1.961 . S
O1116 C1060 1.325 . S
O1117 Li1056 1.970 . S
O1117 Li1057 1.956 . S
O1117 Li1059 1.961 . S
O1117 C1066 1.325 . S
O1118 Li1056 1.961 . S
O1118 Li1058 1.956 . S
O1118 Li1059 1.970 . S
O1118 C1088 1.325 . S
O1119 Li1057 1.961 . S
O1119 Li1058 1.970 . S
O1119 Li1059 1.956 . S
O1119 C1094 1.325 . S
H1120 C1062 0.929 . S
H1121 C1063 0.930 . S
H1122 C1064 0.930 . S
H1123 C1065 0.930 . S
H1124 C1067 0.930 . S
H1125 C1069 0.929 1_565 S
H1126 C1070 0.930 . S
H1127 C1071 0.930 1_565 S
H1128 C1074 0.930 . S
H1129 C1077 0.929 . S
H1130 C1082 0.929 . S
H1131 C1083 0.930 . S
H1132 C1090 0.929 . S
H1133 C1091 0.930 . S
H1134 C1092 0.930 . S
H1135 C1093 0.930 . S
H1136 C1095 0.929 . S
H1137 C1096 0.930 . S
H1138 C1097 0.930 . S
H1139 C1098 0.930 . S
H1140 C1102 0.929 . S
H1141 C1104 0.930 . S
H1142 C1110 0.929 . S
H1143 C1111 0.930 . S
Li1144 N1161 1.990 1_655 S
Li1144 O1204 1.956 . S
Li1144 O1205 1.970 . S
Li1144 O1206 1.961 . S
Li1145 N1169 1.990 . S
Li1145 O1204 1.970 . S
Li1145 O1205 1.956 . S
Li1145 O1207 1.961 . S
Li1146 N1191 1.990 . S
Li1146 O1204 1.961 . S
Li1146 O1206 1.956 . S
Li1146 O1207 1.970 . S
Li1147 N1197 1.990 . S
Li1147 O1205 1.961 . S
Li1147 O1206 1.970 . S
Li1147 O1207 1.956 . S
C1148 C1150 1.349 1_655 S
C1148 C1151 1.356 . S
C1148 O1204 1.325 . S
N1149 C1152 1.314 . S
N1149 C1153 1.279 . S
C1150 C1148 1.349 1_455 S
C1150 C1152 1.376 . S
C1150 H1208 0.906 1_455 S
C1151 C1148 1.356 . S
C1151 C1153 1.358 1_655 S
C1151 H1209 0.930 . S
C1152 N1149 1.314 . S
C1152 C1150 1.376 . S
C1152 H1210 0.930 . S
C1153 N1149 1.279 . S
C1153 C1151 1.358 1_455 S
C1153 H1211 0.930 . S
C1154 C1157 1.348 . S
C1154 C1158 1.356 . S
C1154 O1205 1.325 . S
C1155 N1156 1.279 . S
C1155 C1158 1.358 . S
C1155 H1212 0.930 . S
N1156 C1155 1.279 . S
N1156 C1159 1.314 . S
C1157 C1154 1.348 . S
C1157 C1159 1.353 . S
C1157 H1213 0.929 1_655 S
C1158 C1154 1.356 . S
C1158 C1155 1.358 . S
C1158 H1214 0.930 . S
C1159 N1156 1.314 . S
C1159 C1157 1.353 . S
C1159 H1215 0.930 1_655 S
C1160 N1161 1.314 . S
C1160 C1165 1.353 . S
C1160 H1166 0.930 1_455 S
N1161 Li1144 1.990 1_455 S
N1161 C1160 1.314 . S
N1161 C1163 1.279 . S
C1162 C1163 1.358 . S
C1162 C1164 1.356 . S
C1162 H1216 0.930 . S
C1163 N1161 1.279 . S
C1163 C1162 1.358 . S
C1163 H1167 0.930 . S
C1164 C1162 1.356 . S
C1164 C1165 1.348 . S
C1165 C1160 1.353 . S
C1165 C1164 1.348 . S
C1165 H1217 0.929 . S
H1166 C1160 0.930 1_655 S
H1167 C1163 0.930 . S
C1168 N1169 1.314 . S
C1168 C1170 1.353 . S
C1168 H1174 0.930 . S
N1169 Li1145 1.990 . S
N1169 C1168 1.314 . S
N1169 C1172 1.279 . S
C1170 C1168 1.353 . S
C1170 C1173 1.348 . S
C1170 H1218 0.929 . S
C1171 C1172 1.358 . S
C1171 C1173 1.356 . S
C1171 H1219 0.930 . S
C1172 N1169 1.279 . S
C1172 C1171 1.358 . S
C1172 H1175 0.930 . S
C1173 C1170 1.348 . S
C1173 C1171 1.356 . S
H1174 C1168 0.930 . S
H1175 C1172 0.930 . S
C1176 C1178 1.348 . S
C1176 C1179 1.356 . S
C1176 O1206 1.325 . S
N1177 C1180 1.314 . S
N1177 C1181 1.279 . S
C1178 C1176 1.348 . S
C1178 C1180 1.353 . S
C1178 H1220 0.929 . S
C1179 C1176 1.356 . S
C1179 C1181 1.358 . S
C1179 H1221 0.930 . S
C1180 N1177 1.314 . S
C1180 C1178 1.353 . S
C1180 H1222 0.930 . S
C1181 N1177 1.279 . S
C1181 C1179 1.358 . S
C1181 H1223 0.930 . S
C1182 C1183 1.348 . S
C1182 C1184 1.356 . S
C1182 O1207 1.325 . S
C1183 C1182 1.348 . S
C1183 C1185 1.353 . S
C1183 H1224 0.929 . S
C1184 C1182 1.356 . S
C1184 C1186 1.358 . S
C1184 H1225 0.930 . S
C1185 C1183 1.353 . S
C1185 N1187 1.314 . S
C1185 H1226 0.930 . S
C1186 C1184 1.358 . S
C1186 N1187 1.279 . S
C1186 H1227 0.930 . S
N1187 C1185 1.314 . S
N1187 C1186 1.279 . S
C1188 C1190 1.353 . S
C1188 N1191 1.314 . S
C1188 H1194 0.930 . S
C1189 N1191 1.279 . S
C1189 C1192 1.358 . S
C1189 H1195 0.930 . S
C1190 C1188 1.353 . S
C1190 C1193 1.348 . S
C1190 H1228 0.929 . S
N1191 Li1146 1.990 . S
N1191 C1188 1.314 . S
N1191 C1189 1.279 . S
C1192 C1189 1.358 . S
C1192 C1193 1.356 . S
C1192 H1229 0.930 . S
C1193 C1190 1.348 . S
C1193 C1192 1.356 . S
H1194 C1188 0.930 . S
H1195 C1189 0.930 . S
C1196 N1197 1.314 . S
C1196 C1198 1.353 . S
C1196 H1202 0.930 . S
N1197 Li1147 1.990 . S
N1197 C1196 1.314 . S
N1197 C1200 1.279 . S
C1198 C1196 1.353 . S
C1198 C1201 1.348 . S
C1198 H1230 0.929 . S
C1199 C1200 1.358 . S
C1199 C1201 1.356 . S
C1199 H1231 0.930 . S
C1200 N1197 1.279 . S
C1200 C1199 1.358 . S
C1200 H1203 0.930 . S
C1201 C1198 1.348 . S
C1201 C1199 1.356 . S
H1202 C1196 0.930 . S
H1203 C1200 0.930 . S
O1204 Li1144 1.956 . S
O1204 Li1145 1.970 . S
O1204 Li1146 1.961 . S
O1204 C1148 1.325 . S
O1205 Li1144 1.970 . S
O1205 Li1145 1.956 . S
O1205 Li1147 1.961 . S
O1205 C1154 1.325 . S
O1206 Li1144 1.961 . S
O1206 Li1146 1.956 . S
O1206 Li1147 1.970 . S
O1206 C1176 1.325 . S
O1207 Li1145 1.961 . S
O1207 Li1146 1.970 . S
O1207 Li1147 1.956 . S
O1207 C1182 1.325 . S
H1208 C1150 0.906 1_655 S
H1209 C1151 0.930 . S
H1210 C1152 0.930 . S
H1211 C1153 0.930 . S
H1212 C1155 0.930 . S
H1213 C1157 0.929 1_455 S
H1214 C1158 0.930 . S
H1215 C1159 0.930 1_455 S
H1216 C1162 0.930 . S
H1217 C1165 0.929 . S
H1218 C1170 0.929 . S
H1219 C1171 0.930 . S
H1220 C1178 0.929 . S
H1221 C1179 0.930 . S
H1222 C1180 0.930 . S
H1223 C1181 0.930 . S
H1224 C1183 0.929 . S
H1225 C1184 0.930 . S
H1226 C1185 0.930 . S
H1227 C1186 0.930 . S
H1228 C1190 0.929 . S
H1229 C1192 0.930 . S
H1230 C1198 0.929 . S
H1231 C1199 0.930 . S
Li1232 N1249 1.990 . S
Li1232 O1292 1.956 . S
Li1232 O1293 1.970 . S
Li1232 O1294 1.961 . S
Li1233 N1257 1.990 . S
Li1233 O1292 1.970 . S
Li1233 O1293 1.956 . S
Li1233 O1295 1.961 . S
Li1234 N1279 1.990 . S
Li1234 O1292 1.961 . S
Li1234 O1294 1.956 . S
Li1234 O1295 1.970 . S
Li1235 N1285 1.990 . S
Li1235 O1293 1.961 . S
Li1235 O1294 1.970 . S
Li1235 O1295 1.956 . S
C1236 C1238 1.348 . S
C1236 C1239 1.356 . S
C1236 O1292 1.325 . S
N1237 C1240 1.314 . S
N1237 C1241 1.279 . S
C1238 C1236 1.348 . S
C1238 C1240 1.353 . S
C1238 H1296 0.929 . S
C1239 C1236 1.356 . S
C1239 C1241 1.358 . S
C1239 H1297 0.930 . S
C1240 N1237 1.314 . S
C1240 C1238 1.353 . S
C1240 H1298 0.930 . S
C1241 N1237 1.279 . S
C1241 C1239 1.358 . S
C1241 H1299 0.930 . S
C1242 C1245 1.348 . S
C1242 C1246 1.356 . S
C1242 O1293 1.325 . S
C1243 N1244 1.279 . S
C1243 C1246 1.358 . S
C1243 H1300 0.930 . S
N1244 C1243 1.279 . S
N1244 C1247 1.314 . S
C1245 C1242 1.348 . S
C1245 C1247 1.353 . S
C1245 H1301 0.929 . S
C1246 C1242 1.356 . S
C1246 C1243 1.358 . S
C1246 H1302 0.930 . S
C1247 N1244 1.314 . S
C1247 C1245 1.353 . S
C1247 H1303 0.930 . S
C1248 N1249 1.314 . S
C1248 C1253 1.353 . S
C1248 H1254 0.930 . S
N1249 Li1232 1.990 . S
N1249 C1248 1.314 . S
N1249 C1251 1.279 . S
C1250 C1251 1.358 . S
C1250 C1252 1.356 . S
C1250 H1304 0.930 . S
C1251 N1249 1.279 . S
C1251 C1250 1.358 . S
C1251 H1255 0.930 . S
C1252 C1250 1.356 . S
C1252 C1253 1.348 . S
C1253 C1248 1.353 . S
C1253 C1252 1.348 . S
C1253 H1305 0.929 . S
H1254 C1248 0.930 . S
H1255 C1251 0.930 . S
C1256 N1257 1.314 . S
C1256 C1258 1.353 . S
C1256 H1262 0.930 . S
N1257 Li1233 1.990 . S
N1257 C1256 1.314 . S
N1257 C1260 1.279 . S
C1258 C1256 1.353 . S
C1258 C1261 1.348 . S
C1258 H1306 0.929 . S
C1259 C1260 1.358 . S
C1259 C1261 1.356 . S
C1259 H1307 0.930 . S
C1260 N1257 1.279 . S
C1260 C1259 1.358 . S
C1260 H1263 0.930 . S
C1261 C1258 1.348 . S
C1261 C1259 1.356 . S
H1262 C1256 0.930 . S
H1263 C1260 0.930 . S
C1264 C1266 1.348 . S
C1264 C1267 1.356 . S
C1264 O1294 1.325 . S
N1265 C1268 1.314 . S
N1265 C1269 1.279 . S
C1266 C1264 1.348 . S
C1266 C1268 1.353 . S
C1266 H1308 0.929 . S
C1267 C1264 1.356 . S
C1267 C1269 1.358 . S
C1267 H1309 0.930 . S
C1268 N1265 1.314 . S
C1268 C1266 1.353 . S
C1268 H1310 0.930 . S
C1269 N1265 1.279 . S
C1269 C1267 1.358 . S
C1269 H1311 0.930 . S
C1270 C1271 1.348 . S
C1270 C1272 1.356 . S
C1270 O1295 1.325 . S
C1271 C1270 1.348 . S
C1271 C1273 1.353 . S
C1271 H1312 0.929 . S
C1272 C1270 1.356 . S
C1272 C1274 1.358 . S
C1272 H1313 0.930 . S
C1273 C1271 1.353 . S
C1273 N1275 1.314 . S
C1273 H1314 0.930 . S
C1274 C1272 1.358 . S
C1274 N1275 1.279 . S
C1274 H1315 0.930 . S
N1275 C1273 1.314 . S
N1275 C1274 1.279 . S
C1276 C1278 1.353 . S
C1276 N1279 1.314 . S
C1276 H1282 0.930 . S
C1277 N1279 1.279 . S
C1277 C1280 1.358 . S
C1277 H1283 0.930 . S
C1278 C1276 1.353 . S
C1278 C1281 1.348 . S
C1278 H1316 0.929 . S
N1279 Li1234 1.990 . S
N1279 C1276 1.314 . S
N1279 C1277 1.279 . S
C1280 C1277 1.358 . S
C1280 C1281 1.356 . S
C1280 H1317 0.930 . S
C1281 C1278 1.348 . S
C1281 C1280 1.356 . S
H1282 C1276 0.930 . S
H1283 C1277 0.930 . S
C1284 N1285 1.314 . S
C1284 C1286 1.353 . S
C1284 H1290 0.930 . S
N1285 Li1235 1.990 . S
N1285 C1284 1.314 . S
N1285 C1288 1.279 . S
C1286 C1284 1.353 . S
C1286 C1289 1.348 . S
C1286 H1318 0.929 . S
C1287 C1288 1.358 . S
C1287 C1289 1.356 . S
C1287 H1319 0.930 . S
C1288 N1285 1.279 . S
C1288 C1287 1.358 . S
C1288 H1291 0.930 . S
C1289 C1286 1.348 . S
C1289 C1287 1.356 . S
H1290 C1284 0.930 . S
H1291 C1288 0.930 . S
O1292 Li1232 1.956 . S
O1292 Li1233 1.970 . S
O1292 Li1234 1.961 . S
O1292 C1236 1.325 . S
O1293 Li1232 1.970 . S
O1293 Li1233 1.956 . S
O1293 Li1235 1.961 . S
O1293 C1242 1.325 . S
O1294 Li1232 1.961 . S
O1294 Li1234 1.956 . S
O1294 Li1235 1.970 . S
O1294 C1264 1.325 . S
O1295 Li1233 1.961 . S
O1295 Li1234 1.970 . S
O1295 Li1235 1.956 . S
O1295 C1270 1.325 . S
H1296 C1238 0.929 . S
H1297 C1239 0.930 . S
H1298 C1240 0.930 . S
H1299 C1241 0.930 . S
H1300 C1243 0.930 . S
H1301 C1245 0.929 . S
H1302 C1246 0.930 . S
H1303 C1247 0.930 . S
H1304 C1250 0.930 . S
H1305 C1253 0.929 . S
H1306 C1258 0.929 . S
H1307 C1259 0.930 . S
H1308 C1266 0.929 . S
H1309 C1267 0.930 . S
H1310 C1268 0.930 . S
H1311 C1269 0.930 . S
H1312 C1271 0.929 . S
H1313 C1272 0.930 . S
H1314 C1273 0.930 . S
H1315 C1274 0.930 . S
H1316 C1278 0.929 . S
H1317 C1280 0.930 . S
H1318 C1286 0.929 . S
H1319 C1287 0.930 . S
Li1320 N1337 1.990 . S
Li1320 O1380 1.956 . S
Li1320 O1381 1.970 . S
Li1320 O1382 1.961 . S
Li1321 N1345 1.990 . S
Li1321 O1380 1.970 . S
Li1321 O1381 1.956 . S
Li1321 O1383 1.961 . S
Li1322 N1367 1.990 . S
Li1322 O1380 1.961 . S
Li1322 O1382 1.956 . S
Li1322 O1383 1.970 . S
Li1323 N1373 1.990 . S
Li1323 O1381 1.961 . S
Li1323 O1382 1.970 . S
Li1323 O1383 1.956 . S
C1324 C1326 1.348 . S
C1324 C1327 1.356 . S
C1324 O1380 1.325 . S
N1325 C1328 1.314 . S
N1325 C1329 1.279 . S
C1326 C1324 1.348 . S
C1326 C1328 1.353 . S
C1326 H1384 0.929 . S
C1327 C1324 1.356 . S
C1327 C1329 1.358 . S
C1327 H1385 0.930 . S
C1328 N1325 1.314 . S
C1328 C1326 1.353 . S
C1328 H1386 0.930 . S
C1329 N1325 1.279 . S
C1329 C1327 1.358 . S
C1329 H1387 0.930 . S
C1330 C1333 1.348 . S
C1330 C1334 1.356 . S
C1330 O1381 1.325 . S
C1331 N1332 1.279 . S
C1331 C1334 1.358 . S
C1331 H1388 0.930 . S
N1332 C1331 1.279 . S
N1332 C1335 1.314 . S
C1333 C1330 1.348 . S
C1333 C1335 1.353 . S
C1333 H1389 0.929 . S
C1334 C1330 1.356 . S
C1334 C1331 1.358 . S
C1334 H1390 0.930 . S
C1335 N1332 1.314 . S
C1335 C1333 1.353 . S
C1335 H1391 0.930 . S
C1336 N1337 1.314 . S
C1336 C1341 1.353 . S
C1336 H1342 0.930 . S
N1337 Li1320 1.990 . S
N1337 C1336 1.314 . S
N1337 C1339 1.279 . S
C1338 C1339 1.358 . S
C1338 C1340 1.356 . S
C1338 H1392 0.930 . S
C1339 N1337 1.279 . S
C1339 C1338 1.358 . S
C1339 H1343 0.930 . S
C1340 C1338 1.356 . S
C1340 C1341 1.348 . S
C1341 C1336 1.353 . S
C1341 C1340 1.348 . S
C1341 H1393 0.929 . S
H1342 C1336 0.930 . S
H1343 C1339 0.930 . S
C1344 N1345 1.314 . S
C1344 C1346 1.353 . S
C1344 H1350 0.930 . S
N1345 Li1321 1.990 . S
N1345 C1344 1.314 . S
N1345 C1348 1.279 . S
C1346 C1344 1.353 . S
C1346 C1349 1.348 . S
C1346 H1394 0.929 . S
C1347 C1348 1.358 . S
C1347 C1349 1.356 . S
C1347 H1395 0.930 . S
C1348 N1345 1.279 . S
C1348 C1347 1.358 . S
C1348 H1351 0.930 . S
C1349 C1346 1.348 . S
C1349 C1347 1.356 . S
H1350 C1344 0.930 . S
H1351 C1348 0.930 . S
C1352 C1354 1.348 . S
C1352 C1355 1.356 . S
C1352 O1382 1.325 . S
N1353 C1356 1.314 . S
N1353 C1357 1.279 . S
C1354 C1352 1.348 . S
C1354 C1356 1.353 . S
C1354 H1396 0.929 . S
C1355 C1352 1.356 . S
C1355 C1357 1.358 . S
C1355 H1397 0.930 . S
C1356 N1353 1.314 . S
C1356 C1354 1.353 . S
C1356 H1398 0.930 . S
C1357 N1353 1.279 . S
C1357 C1355 1.358 . S
C1357 H1399 0.930 . S
C1358 C1359 1.348 . S
C1358 C1360 1.356 . S
C1358 O1383 1.325 . S
C1359 C1358 1.348 . S
C1359 C1361 1.353 . S
C1359 H1400 0.929 . S
C1360 C1358 1.356 . S
C1360 C1362 1.358 . S
C1360 H1401 0.930 . S
C1361 C1359 1.353 . S
C1361 N1363 1.314 . S
C1361 H1402 0.930 . S
C1362 C1360 1.358 . S
C1362 N1363 1.279 . S
C1362 H1403 0.930 . S
N1363 C1361 1.314 . S
N1363 C1362 1.279 . S
C1364 C1366 1.353 . S
C1364 N1367 1.314 . S
C1364 H1370 0.930 . S
C1365 N1367 1.279 . S
C1365 C1368 1.358 . S
C1365 H1371 0.930 . S
C1366 C1364 1.353 . S
C1366 C1369 1.348 . S
C1366 H1404 0.929 . S
N1367 Li1322 1.990 . S
N1367 C1364 1.314 . S
N1367 C1365 1.279 . S
C1368 C1365 1.358 . S
C1368 C1369 1.356 . S
C1368 H1405 0.930 . S
C1369 C1366 1.348 . S
C1369 C1368 1.356 . S
H1370 C1364 0.930 . S
H1371 C1365 0.930 . S
C1372 N1373 1.314 . S
C1372 C1374 1.353 . S
C1372 H1378 0.930 . S
N1373 Li1323 1.990 . S
N1373 C1372 1.314 . S
N1373 C1376 1.279 . S
C1374 C1372 1.353 . S
C1374 C1377 1.348 . S
C1374 H1406 0.929 . S
C1375 C1376 1.358 . S
C1375 C1377 1.356 . S
C1375 H1407 0.930 . S
C1376 N1373 1.279 . S
C1376 C1375 1.358 . S
C1376 H1379 0.930 . S
C1377 C1374 1.348 . S
C1377 C1375 1.356 . S
H1378 C1372 0.930 . S
H1379 C1376 0.930 . S
O1380 Li1320 1.956 . S
O1380 Li1321 1.970 . S
O1380 Li1322 1.961 . S
O1380 C1324 1.325 . S
O1381 Li1320 1.970 . S
O1381 Li1321 1.956 . S
O1381 Li1323 1.961 . S
O1381 C1330 1.325 . S
O1382 Li1320 1.961 . S
O1382 Li1322 1.956 . S
O1382 Li1323 1.970 . S
O1382 C1352 1.325 . S
O1383 Li1321 1.961 . S
O1383 Li1322 1.970 . S
O1383 Li1323 1.956 . S
O1383 C1358 1.325 . S
H1384 C1326 0.929 . S
H1385 C1327 0.930 . S
H1386 C1328 0.930 . S
H1387 C1329 0.930 . S
H1388 C1331 0.930 . S
H1389 C1333 0.929 . S
H1390 C1334 0.930 . S
H1391 C1335 0.930 . S
H1392 C1338 0.930 . S
H1393 C1341 0.929 . S
H1394 C1346 0.929 . S
H1395 C1347 0.930 . S
H1396 C1354 0.929 . S
H1397 C1355 0.930 . S
H1398 C1356 0.930 . S
H1399 C1357 0.930 . S
H1400 C1359 0.929 . S
H1401 C1360 0.930 . S
H1402 C1361 0.930 . S
H1403 C1362 0.930 . S
H1404 C1366 0.929 . S
H1405 C1368 0.930 . S
H1406 C1374 0.929 . S
H1407 C1375 0.930 . S
Li1408 N1425 1.990 . S
Li1408 O1468 1.956 . S
Li1408 O1469 1.970 . S
Li1408 O1470 1.961 . S
Li1409 N1433 1.990 . S
Li1409 O1468 1.970 . S
Li1409 O1469 1.956 . S
Li1409 O1471 1.961 . S
Li1410 N1455 1.990 . S
Li1410 O1468 1.961 . S
Li1410 O1470 1.956 . S
Li1410 O1471 1.970 . S
Li1411 N1461 1.990 1_545 S
Li1411 O1469 1.961 . S
Li1411 O1470 1.970 . S
Li1411 O1471 1.956 . S
C1412 C1414 1.348 . S
C1412 C1415 1.356 . S
C1412 O1468 1.325 . S
N1413 C1416 1.314 . S
N1413 C1417 1.279 . S
C1414 C1412 1.348 . S
C1414 C1416 1.353 . S
C1414 H1472 0.929 . S
C1415 C1412 1.356 . S
C1415 C1417 1.358 . S
C1415 H1473 0.930 . S
C1416 N1413 1.314 . S
C1416 C1414 1.353 . S
C1416 H1474 0.930 . S
C1417 N1413 1.279 . S
C1417 C1415 1.358 . S
C1417 H1475 0.930 . S
C1418 C1421 1.348 . S
C1418 C1422 1.356 1_545 S
C1418 O1469 1.325 . S
C1419 N1420 1.279 . S
C1419 C1422 1.359 . S
C1419 H1476 0.930 . S
N1420 C1419 1.279 . S
N1420 C1423 1.314 . S
C1421 C1418 1.348 . S
C1421 C1423 1.353 1_545 S
C1421 H1477 0.929 . S
C1422 C1418 1.356 1_565 S
C1422 C1419 1.359 . S
C1422 H1478 0.934 1_565 S
C1423 N1420 1.314 . S
C1423 C1421 1.353 1_565 S
C1423 H1479 0.930 . S
C1424 N1425 1.314 . S
C1424 C1429 1.353 . S
C1424 H1430 0.930 . S
N1425 Li1408 1.990 . S
N1425 C1424 1.314 . S
N1425 C1427 1.279 . S
C1426 C1427 1.358 . S
C1426 C1428 1.356 . S
C1426 H1480 0.930 . S
C1427 N1425 1.279 . S
C1427 C1426 1.358 . S
C1427 H1431 0.930 . S
C1428 C1426 1.356 . S
C1428 C1429 1.348 . S
C1429 C1424 1.353 . S
C1429 C1428 1.348 . S
C1429 H1481 0.929 . S
H1430 C1424 0.930 . S
H1431 C1427 0.930 . S
C1432 N1433 1.314 . S
C1432 C1434 1.353 . S
C1432 H1438 0.930 . S
N1433 Li1409 1.990 . S
N1433 C1432 1.314 . S
N1433 C1436 1.279 . S
C1434 C1432 1.353 . S
C1434 C1437 1.348 . S
C1434 H1482 0.929 . S
C1435 C1436 1.358 . S
C1435 C1437 1.356 . S
C1435 H1483 0.930 . S
C1436 N1433 1.279 . S
C1436 C1435 1.358 . S
C1436 H1439 0.930 . S
C1437 C1434 1.348 . S
C1437 C1435 1.356 . S
H1438 C1432 0.930 . S
H1439 C1436 0.930 . S
C1440 C1442 1.348 . S
C1440 C1443 1.356 . S
C1440 O1470 1.325 . S
N1441 C1444 1.314 . S
N1441 C1445 1.279 . S
C1442 C1440 1.348 . S
C1442 C1444 1.353 . S
C1442 H1484 0.929 . S
C1443 C1440 1.356 . S
C1443 C1445 1.358 . S
C1443 H1485 0.930 . S
C1444 N1441 1.314 . S
C1444 C1442 1.353 . S
C1444 H1486 0.930 1_545 S
C1445 N1441 1.279 . S
C1445 C1443 1.358 . S
C1445 H1487 0.930 . S
C1446 C1447 1.348 . S
C1446 C1448 1.356 . S
C1446 O1471 1.325 . S
C1447 C1446 1.348 . S
C1447 C1449 1.353 . S
C1447 H1488 0.929 . S
C1448 C1446 1.356 . S
C1448 C1450 1.358 . S
C1448 H1489 0.930 . S
C1449 C1447 1.353 . S
C1449 N1451 1.314 . S
C1449 H1490 0.930 . S
C1450 C1448 1.358 . S
C1450 N1451 1.279 . S
C1450 H1491 0.930 . S
N1451 C1449 1.314 . S
N1451 C1450 1.279 . S
C1452 C1454 1.353 . S
C1452 N1455 1.314 . S
C1452 H1458 0.930 . S
C1453 N1455 1.279 . S
C1453 C1456 1.358 . S
C1453 H1459 0.930 . S
C1454 C1452 1.353 . S
C1454 C1457 1.348 . S
C1454 H1492 0.929 . S
N1455 Li1410 1.990 . S
N1455 C1452 1.314 . S
N1455 C1453 1.279 . S
C1456 C1453 1.358 . S
C1456 C1457 1.356 . S
C1456 H1493 0.930 . S
C1457 C1454 1.348 . S
C1457 C1456 1.356 . S
H1458 C1452 0.930 . S
H1459 C1453 0.930 . S
C1460 N1461 1.314 . S
C1460 C1462 1.353 . S
C1460 H1466 0.930 . S
N1461 Li1411 1.990 1_565 S
N1461 C1460 1.314 . S
N1461 C1464 1.279 . S
C1462 C1460 1.353 . S
C1462 C1465 1.348 . S
C1462 H1494 0.929 . S
C1463 C1464 1.358 . S
C1463 C1465 1.356 . S
C1463 H1495 0.930 . S
C1464 N1461 1.279 . S
C1464 C1463 1.358 . S
C1464 H1467 0.930 1_565 S
C1465 C1462 1.348 . S
C1465 C1463 1.356 . S
H1466 C1460 0.930 . S
H1467 C1464 0.930 1_545 S
O1468 Li1408 1.956 . S
O1468 Li1409 1.970 . S
O1468 Li1410 1.961 . S
O1468 C1412 1.325 . S
O1469 Li1408 1.970 . S
O1469 Li1409 1.956 . S
O1469 Li1411 1.961 . S
O1469 C1418 1.325 . S
O1470 Li1408 1.961 . S
O1470 Li1410 1.956 . S
O1470 Li1411 1.970 . S
O1470 C1440 1.325 . S
O1471 Li1409 1.961 . S
O1471 Li1410 1.970 . S
O1471 Li1411 1.956 . S
O1471 C1446 1.325 . S
H1472 C1414 0.929 . S
H1473 C1415 0.930 . S
H1474 C1416 0.930 . S
H1475 C1417 0.930 . S
H1476 C1419 0.930 . S
H1477 C1421 0.929 . S
H1478 C1422 0.934 1_545 S
H1479 C1423 0.930 . S
H1480 C1426 0.930 . S
H1481 C1429 0.929 . S
H1482 C1434 0.929 . S
H1483 C1435 0.930 . S
H1484 C1442 0.929 . S
H1485 C1443 0.930 . S
H1486 C1444 0.930 1_565 S
H1487 C1445 0.930 . S
H1488 C1447 0.929 . S
H1489 C1448 0.930 . S
H1490 C1449 0.930 . S
H1491 C1450 0.930 . S
H1492 C1454 0.929 . S
H1493 C1456 0.930 . S
H1494 C1462 0.929 . S
H1495 C1463 0.930 . S
Li1496 N1513 1.990 . S
Li1496 O1556 1.956 . S
Li1496 O1557 1.970 . S
Li1496 O1558 1.961 . S
Li1497 N1521 1.990 . S
Li1497 O1556 1.970 . S
Li1497 O1557 1.956 . S
Li1497 O1559 1.961 . S
Li1498 N1543 1.972 1_655 S
Li1498 O1556 1.961 . S
Li1498 O1558 1.956 . S
Li1498 O1559 1.970 . S
Li1499 N1549 1.990 . S
Li1499 O1557 1.961 . S
Li1499 O1558 1.970 . S
Li1499 O1559 1.956 . S
C1500 C1502 1.348 . S
C1500 C1503 1.356 . S
C1500 O1556 1.325 . S
N1501 C1504 1.313 . S
N1501 C1505 1.279 . S
C1502 C1500 1.348 . S
C1502 C1504 1.356 1_655 S
C1502 H1560 0.929 . S
C1503 C1500 1.356 . S
C1503 C1505 1.358 1_655 S
C1503 H1561 0.930 . S
C1504 N1501 1.313 . S
C1504 C1502 1.356 1_455 S
C1504 H1562 0.913 . S
C1505 N1501 1.279 . S
C1505 C1503 1.358 1_455 S
C1505 H1563 0.930 . S
C1506 C1509 1.348 . S
C1506 C1510 1.356 . S
C1506 O1557 1.325 . S
C1507 N1508 1.279 . S
C1507 C1510 1.358 . S
C1507 H1564 0.930 . S
N1508 C1507 1.279 . S
N1508 C1511 1.314 . S
C1509 C1506 1.348 . S
C1509 C1511 1.353 . S
C1509 H1565 0.929 . S
C1510 C1506 1.356 . S
C1510 C1507 1.358 . S
C1510 H1566 0.930 . S
C1511 N1508 1.314 . S
C1511 C1509 1.353 . S
C1511 H1567 0.930 . S
C1512 N1513 1.314 . S
C1512 C1517 1.353 . S
C1512 H1518 0.930 . S
N1513 Li1496 1.990 . S
N1513 C1512 1.314 . S
N1513 C1515 1.279 . S
C1514 C1515 1.358 . S
C1514 C1516 1.356 . S
C1514 H1568 0.930 . S
C1515 N1513 1.279 . S
C1515 C1514 1.358 . S
C1515 H1519 0.930 . S
C1516 C1514 1.356 . S
C1516 C1517 1.348 . S
C1517 C1512 1.353 . S
C1517 C1516 1.348 . S
C1517 H1569 0.929 . S
H1518 C1512 0.930 . S
H1519 C1515 0.930 . S
C1520 N1521 1.314 . S
C1520 C1522 1.353 . S
C1520 H1526 0.930 . S
N1521 Li1497 1.990 . S
N1521 C1520 1.314 . S
N1521 C1524 1.279 . S
C1522 C1520 1.353 . S
C1522 C1525 1.348 . S
C1522 H1570 0.929 . S
C1523 C1524 1.358 . S
C1523 C1525 1.356 . S
C1523 H1571 0.930 . S
C1524 N1521 1.279 . S
C1524 C1523 1.358 . S
C1524 H1527 0.930 . S
C1525 C1522 1.348 . S
C1525 C1523 1.356 . S
H1526 C1520 0.930 . S
H1527 C1524 0.930 . S
C1528 C1530 1.348 . S
C1528 C1531 1.356 . S
C1528 O1558 1.325 . S
N1529 C1532 1.314 . S
N1529 C1533 1.279 . S
C1530 C1528 1.348 . S
C1530 C1532 1.353 . S
C1530 H1572 0.929 . S
C1531 C1528 1.356 . S
C1531 C1533 1.358 . S
C1531 H1573 0.930 . S
C1532 N1529 1.314 . S
C1532 C1530 1.353 . S
C1532 H1574 0.930 . S
C1533 N1529 1.279 . S
C1533 C1531 1.358 . S
C1533 H1575 0.930 . S
C1534 C1535 1.348 . S
C1534 C1536 1.356 . S
C1534 O1559 1.325 . S
C1535 C1534 1.348 . S
C1535 C1537 1.353 . S
C1535 H1576 0.929 . S
C1536 C1534 1.356 . S
C1536 C1538 1.358 . S
C1536 H1577 0.930 . S
C1537 C1535 1.353 . S
C1537 N1539 1.314 . S
C1537 H1578 0.930 . S
C1538 C1536 1.358 . S
C1538 N1539 1.279 . S
C1538 H1579 0.930 . S
N1539 C1537 1.314 . S
N1539 C1538 1.279 . S
C1540 C1542 1.353 . S
C1540 N1543 1.343 . S
C1540 H1546 0.930 . S
C1541 N1543 1.273 . S
C1541 C1544 1.358 . S
C1541 H1547 0.930 1_455 S
C1542 C1540 1.353 . S
C1542 C1545 1.348 . S
C1542 H1580 0.929 . S
N1543 Li1498 1.972 1_455 S
N1543 C1540 1.343 . S
N1543 C1541 1.273 . S
C1544 C1541 1.358 . S
C1544 C1545 1.356 . S
C1544 H1581 0.930 . S
C1545 C1542 1.348 . S
C1545 C1544 1.356 . S
H1546 C1540 0.930 . S
H1547 C1541 0.930 1_655 S
C1548 N1549 1.314 . S
C1548 C1550 1.353 . S
C1548 H1554 0.930 . S
N1549 Li1499 1.990 . S
N1549 C1548 1.314 . S
N1549 C1552 1.279 . S
C1550 C1548 1.353 . S
C1550 C1553 1.348 . S
C1550 H1582 0.929 . S
C1551 C1552 1.358 . S
C1551 C1553 1.356 . S
C1551 H1583 0.930 . S
C1552 N1549 1.279 . S
C1552 C1551 1.358 . S
C1552 H1555 0.930 . S
C1553 C1550 1.348 . S
C1553 C1551 1.356 . S
H1554 C1548 0.930 . S
H1555 C1552 0.930 . S
O1556 Li1496 1.956 . S
O1556 Li1497 1.970 . S
O1556 Li1498 1.961 . S
O1556 C1500 1.325 . S
O1557 Li1496 1.970 . S
O1557 Li1497 1.956 . S
O1557 Li1499 1.961 . S
O1557 C1506 1.325 . S
O1558 Li1496 1.961 . S
O1558 Li1498 1.956 . S
O1558 Li1499 1.970 . S
O1558 C1528 1.325 . S
O1559 Li1497 1.961 . S
O1559 Li1498 1.970 . S
O1559 Li1499 1.956 . S
O1559 C1534 1.325 . S
H1560 C1502 0.929 . S
H1561 C1503 0.930 . S
H1562 C1504 0.913 . S
H1563 C1505 0.930 . S
H1564 C1507 0.930 . S
H1565 C1509 0.929 . S
H1566 C1510 0.930 . S
H1567 C1511 0.930 . S
H1568 C1514 0.930 . S
H1569 C1517 0.929 . S
H1570 C1522 0.929 . S
H1571 C1523 0.930 . S
H1572 C1530 0.929 . S
H1573 C1531 0.930 . S
H1574 C1532 0.930 . S
H1575 C1533 0.930 . S
H1576 C1535 0.929 . S
H1577 C1536 0.930 . S
H1578 C1537 0.930 . S
H1579 C1538 0.930 . S
H1580 C1542 0.929 . S
H1581 C1544 0.930 . S
H1582 C1550 0.929 . S
H1583 C1551 0.930 . S
H1584 O1610 0.856 . S
H1585 O1613 0.854 . S
H1586 C1621 0.930 . S
H1587 C1622 0.930 . S
H1588 C1624 0.930 . S
H1589 C1625 0.930 . S
H1590 C1627 0.931 . S
H1591 C1628 0.930 . S
H1592 C1630 0.930 . S
H1593 C1631 0.929 . S
H1594 C1633 0.930 . S
H1595 C1634 0.931 . S
H1596 C1636 0.930 . S
H1597 C1637 0.929 . S
H1598 C1639 0.931 . S
H1599 C1640 0.930 . S
H1600 C1642 0.930 . S
H1601 C1643 0.932 . S
H1602 C1645 0.930 . S
H1603 C1646 0.929 . S
H1604 C1648 0.931 . S
H1605 C1649 0.930 . S
H1606 C1651 0.929 . S
H1607 C1652 0.931 . S
H1608 C1654 0.930 . S
H1609 C1655 0.929 . S
O1610 H1584 0.856 . S
O1610 C1656 1.300 . S
O1611 C1656 1.209 . S
O1612 C1657 1.199 . S
O1613 H1585 0.854 . S
O1613 C1657 1.297 . S
C1614 C1615 1.404 . S
C1614 C1619 1.397 . S
C1614 C1620 1.492 . S
C1615 C1614 1.404 . S
C1615 C1616 1.396 . S
C1615 C1626 1.492 . S
C1616 C1615 1.396 . S
C1616 C1617 1.397 . S
C1616 C1632 1.509 . S
C1617 C1616 1.397 . S
C1617 C1618 1.412 . S
C1617 C1638 1.485 . S
C1618 C1617 1.412 . S
C1618 C1619 1.388 . S
C1618 C1644 1.490 . S
C1619 C1614 1.397 . S
C1619 C1618 1.388 . S
C1619 C1650 1.519 . S
C1620 C1614 1.492 . S
C1620 C1621 1.363 . S
C1620 C1625 1.390 . S
C1621 H1586 0.930 . S
C1621 C1620 1.363 . S
C1621 C1622 1.372 . S
C1622 H1587 0.930 . S
C1622 C1621 1.372 . S
C1622 C1623 1.383 . S
C1623 C1622 1.383 . S
C1623 C1624 1.395 . S
C1624 H1588 0.930 . S
C1624 C1623 1.395 . S
C1624 C1625 1.362 . S
C1625 H1589 0.930 . S
C1625 C1620 1.390 . S
C1625 C1624 1.362 . S
C1626 C1615 1.492 . S
C1626 C1627 1.377 . S
C1626 C1631 1.397 . S
C1627 H1590 0.931 . S
C1627 C1626 1.377 . S
C1627 C1628 1.376 . S
C1628 H1591 0.930 . S
C1628 C1627 1.376 . S
C1628 C1629 1.376 . S
C1629 C1628 1.376 . S
C1629 C1630 1.378 . S
C1629 C1656 1.486 . S
C1630 H1592 0.930 . S
C1630 C1629 1.378 . S
C1630 C1631 1.376 . S
C1631 H1593 0.929 . S
C1631 C1626 1.397 . S
C1631 C1630 1.376 . S
C1632 C1616 1.509 . S
C1632 C1633 1.391 . S
C1632 C1637 1.386 . S
C1633 H1594 0.930 . S
C1633 C1632 1.391 . S
C1633 C1634 1.375 . S
C1634 H1595 0.931 . S
C1634 C1633 1.375 . S
C1634 C1635 1.375 . S
C1635 C1634 1.375 . S
C1635 C1636 1.361 . S
C1636 H1596 0.930 . S
C1636 C1635 1.361 . S
C1636 C1637 1.399 . S
C1637 H1597 0.929 . S
C1637 C1632 1.386 . S
C1637 C1636 1.399 . S
C1638 C1617 1.485 . S
C1638 C1639 1.394 . S
C1638 C1643 1.360 . S
C1639 H1598 0.931 . S
C1639 C1638 1.394 . S
C1639 C1640 1.372 . S
C1640 H1599 0.930 . S
C1640 C1639 1.372 . S
C1640 C1641 1.397 . S
C1641 C1640 1.397 . S
C1641 C1642 1.390 . S
C1641 C1657 1.476 . S
C1642 H1600 0.930 . S
C1642 C1641 1.390 . S
C1642 C1643 1.366 . S
C1643 H1601 0.932 . S
C1643 C1638 1.360 . S
C1643 C1642 1.366 . S
C1644 C1618 1.490 . S
C1644 C1645 1.380 . S
C1644 C1649 1.386 . S
C1645 H1602 0.930 . S
C1645 C1644 1.380 . S
C1645 C1646 1.381 . S
C1646 H1603 0.929 . S
C1646 C1645 1.381 . S
C1646 C1647 1.371 . S
C1647 C1646 1.371 . S
C1647 C1648 1.380 . S
C1648 H1604 0.931 . S
C1648 C1647 1.380 . S
C1648 C1649 1.387 . S
C1649 H1605 0.930 . S
C1649 C1644 1.386 . S
C1649 C1648 1.387 . S
C1650 C1619 1.519 . S
C1650 C1651 1.377 . S
C1650 C1655 1.361 . S
C1651 H1606 0.929 . S
C1651 C1650 1.377 . S
C1651 C1652 1.386 . S
C1652 H1607 0.931 . S
C1652 C1651 1.386 . S
C1652 C1653 1.363 . S
C1653 C1652 1.363 . S
C1653 C1654 1.385 . S
C1654 H1608 0.930 . S
C1654 C1653 1.385 . S
C1654 C1655 1.396 . S
C1655 H1609 0.929 . S
C1655 C1650 1.361 . S
C1655 C1654 1.396 . S
C1656 O1610 1.300 . S
C1656 O1611 1.209 . S
C1656 C1629 1.486 . S
C1657 O1612 1.199 . S
C1657 O1613 1.297 . S
C1657 C1641 1.476 . S
H1658 O1684 0.856 . S
H1659 O1687 0.854 . S
H1660 C1695 0.930 . S
H1661 C1696 0.930 . S
H1662 C1698 0.930 . S
H1663 C1699 0.930 . S
H1664 C1701 0.931 . S
H1665 C1702 0.930 . S
H1666 C1704 0.930 . S
H1667 C1705 0.929 . S
H1668 C1707 0.930 . S
H1669 C1708 0.931 . S
H1670 C1710 0.930 . S
H1671 C1711 0.929 . S
H1672 C1713 0.931 . S
H1673 C1714 0.930 . S
H1674 C1716 0.930 . S
H1675 C1717 0.932 . S
H1676 C1719 0.930 . S
H1677 C1720 0.929 . S
H1678 C1722 0.931 . S
H1679 C1723 0.930 . S
H1680 C1725 0.929 . S
H1681 C1726 0.931 . S
H1682 C1728 0.930 . S
H1683 C1729 0.929 . S
O1684 H1658 0.856 . S
O1684 C1730 1.300 . S
O1685 C1730 1.209 . S
O1686 C1731 1.199 . S
O1687 H1659 0.854 . S
O1687 C1731 1.297 . S
C1688 C1689 1.404 . S
C1688 C1693 1.397 . S
C1688 C1694 1.492 . S
C1689 C1688 1.404 . S
C1689 C1690 1.396 . S
C1689 C1700 1.492 . S
C1690 C1689 1.396 . S
C1690 C1691 1.397 . S
C1690 C1706 1.509 . S
C1691 C1690 1.397 . S
C1691 C1692 1.412 . S
C1691 C1712 1.485 . S
C1692 C1691 1.412 . S
C1692 C1693 1.388 . S
C1692 C1718 1.490 . S
C1693 C1688 1.397 . S
C1693 C1692 1.388 . S
C1693 C1724 1.519 . S
C1694 C1688 1.492 . S
C1694 C1695 1.363 . S
C1694 C1699 1.390 . S
C1695 H1660 0.930 . S
C1695 C1694 1.363 . S
C1695 C1696 1.372 . S
C1696 H1661 0.930 . S
C1696 C1695 1.372 . S
C1696 C1697 1.383 . S
C1697 C1696 1.383 . S
C1697 C1698 1.395 . S
C1698 H1662 0.930 . S
C1698 C1697 1.395 . S
C1698 C1699 1.362 . S
C1699 H1663 0.930 . S
C1699 C1694 1.390 . S
C1699 C1698 1.362 . S
C1700 C1689 1.492 . S
C1700 C1701 1.377 . S
C1700 C1705 1.397 . S
C1701 H1664 0.931 . S
C1701 C1700 1.377 . S
C1701 C1702 1.376 . S
C1702 H1665 0.930 . S
C1702 C1701 1.376 . S
C1702 C1703 1.376 . S
C1703 C1702 1.376 . S
C1703 C1704 1.378 . S
C1703 C1730 1.486 . S
C1704 H1666 0.930 . S
C1704 C1703 1.378 . S
C1704 C1705 1.376 . S
C1705 H1667 0.929 . S
C1705 C1700 1.397 . S
C1705 C1704 1.376 . S
C1706 C1690 1.509 . S
C1706 C1707 1.391 . S
C1706 C1711 1.386 . S
C1707 H1668 0.930 . S
C1707 C1706 1.391 . S
C1707 C1708 1.375 . S
C1708 H1669 0.931 . S
C1708 C1707 1.375 . S
C1708 C1709 1.375 . S
C1709 C1708 1.375 . S
C1709 C1710 1.361 . S
C1710 H1670 0.930 . S
C1710 C1709 1.361 . S
C1710 C1711 1.399 . S
C1711 H1671 0.929 . S
C1711 C1706 1.386 . S
C1711 C1710 1.399 . S
C1712 C1691 1.485 . S
C1712 C1713 1.394 . S
C1712 C1717 1.360 . S
C1713 H1672 0.931 . S
C1713 C1712 1.394 . S
C1713 C1714 1.372 . S
C1714 H1673 0.930 . S
C1714 C1713 1.372 . S
C1714 C1715 1.397 . S
C1715 C1714 1.397 . S
C1715 C1716 1.390 . S
C1715 C1731 1.476 . S
C1716 H1674 0.930 . S
C1716 C1715 1.390 . S
C1716 C1717 1.366 . S
C1717 H1675 0.932 . S
C1717 C1712 1.360 . S
C1717 C1716 1.366 . S
C1718 C1692 1.490 . S
C1718 C1719 1.380 . S
C1718 C1723 1.386 . S
C1719 H1676 0.930 . S
C1719 C1718 1.380 . S
C1719 C1720 1.381 . S
C1720 H1677 0.929 . S
C1720 C1719 1.381 . S
C1720 C1721 1.371 . S
C1721 C1720 1.371 . S
C1721 C1722 1.380 . S
C1722 H1678 0.931 . S
C1722 C1721 1.380 . S
C1722 C1723 1.387 . S
C1723 H1679 0.930 . S
C1723 C1718 1.386 . S
C1723 C1722 1.387 . S
C1724 C1693 1.519 . S
C1724 C1725 1.377 . S
C1724 C1729 1.361 . S
C1725 H1680 0.929 . S
C1725 C1724 1.377 . S
C1725 C1726 1.386 . S
C1726 H1681 0.931 . S
C1726 C1725 1.386 . S
C1726 C1727 1.363 . S
C1727 C1726 1.363 . S
C1727 C1728 1.385 . S
C1728 H1682 0.930 . S
C1728 C1727 1.385 . S
C1728 C1729 1.396 . S
C1729 H1683 0.929 . S
C1729 C1724 1.361 . S
C1729 C1728 1.396 . S
C1730 O1684 1.300 . S
C1730 O1685 1.209 . S
C1730 C1703 1.486 . S
C1731 O1686 1.199 . S
C1731 O1687 1.297 . S
C1731 C1715 1.476 . S
H1732 O1758 0.856 . S
H1733 O1761 0.854 . S
H1734 C1769 0.930 . S
H1735 C1770 0.930 . S
H1736 C1772 0.930 . S
H1737 C1773 0.930 . S
H1738 C1775 0.931 . S
H1739 C1776 0.930 . S
H1740 C1778 0.930 . S
H1741 C1779 0.929 . S
H1742 C1781 0.930 . S
H1743 C1782 0.931 . S
H1744 C1784 0.930 . S
H1745 C1785 0.929 . S
H1746 C1787 0.931 . S
H1747 C1788 0.930 . S
H1748 C1790 0.930 . S
H1749 C1791 0.932 . S
H1750 C1793 0.930 . S
H1751 C1794 0.929 . S
H1752 C1796 0.931 . S
H1753 C1797 0.930 . S
H1754 C1799 0.929 . S
H1755 C1800 0.931 . S
H1756 C1802 0.930 . S
H1757 C1803 0.929 . S
O1758 H1732 0.856 . S
O1758 C1804 1.300 . S
O1759 C1804 1.209 . S
O1760 C1805 1.199 . S
O1761 H1733 0.854 . S
O1761 C1805 1.297 . S
C1762 C1763 1.404 . S
C1762 C1767 1.397 . S
C1762 C1768 1.492 . S
C1763 C1762 1.404 . S
C1763 C1764 1.396 . S
C1763 C1774 1.492 . S
C1764 C1763 1.396 . S
C1764 C1765 1.397 . S
C1764 C1780 1.509 . S
C1765 C1764 1.397 . S
C1765 C1766 1.412 . S
C1765 C1786 1.485 . S
C1766 C1765 1.412 . S
C1766 C1767 1.388 . S
C1766 C1792 1.490 . S
C1767 C1762 1.397 . S
C1767 C1766 1.388 . S
C1767 C1798 1.519 . S
C1768 C1762 1.492 . S
C1768 C1769 1.363 . S
C1768 C1773 1.390 . S
C1769 H1734 0.930 . S
C1769 C1768 1.363 . S
C1769 C1770 1.372 . S
C1770 H1735 0.930 . S
C1770 C1769 1.372 . S
C1770 C1771 1.383 . S
C1771 C1770 1.383 . S
C1771 C1772 1.395 . S
C1772 H1736 0.930 . S
C1772 C1771 1.395 . S
C1772 C1773 1.362 . S
C1773 H1737 0.930 . S
C1773 C1768 1.390 . S
C1773 C1772 1.362 . S
C1774 C1763 1.492 . S
C1774 C1775 1.377 . S
C1774 C1779 1.397 . S
C1775 H1738 0.931 . S
C1775 C1774 1.377 . S
C1775 C1776 1.376 . S
C1776 H1739 0.930 . S
C1776 C1775 1.376 . S
C1776 C1777 1.376 . S
C1777 C1776 1.376 . S
C1777 C1778 1.378 . S
C1777 C1804 1.486 . S
C1778 H1740 0.930 . S
C1778 C1777 1.378 . S
C1778 C1779 1.376 . S
C1779 H1741 0.929 . S
C1779 C1774 1.397 . S
C1779 C1778 1.376 . S
C1780 C1764 1.509 . S
C1780 C1781 1.391 . S
C1780 C1785 1.386 . S
C1781 H1742 0.930 . S
C1781 C1780 1.391 . S
C1781 C1782 1.375 . S
C1782 H1743 0.931 . S
C1782 C1781 1.375 . S
C1782 C1783 1.375 . S
C1783 C1782 1.375 . S
C1783 C1784 1.361 . S
C1784 H1744 0.930 . S
C1784 C1783 1.361 . S
C1784 C1785 1.399 . S
C1785 H1745 0.929 . S
C1785 C1780 1.386 . S
C1785 C1784 1.399 . S
C1786 C1765 1.485 . S
C1786 C1787 1.394 . S
C1786 C1791 1.360 . S
C1787 H1746 0.931 . S
C1787 C1786 1.394 . S
C1787 C1788 1.372 . S
C1788 H1747 0.930 . S
C1788 C1787 1.372 . S
C1788 C1789 1.397 . S
C1789 C1788 1.397 . S
C1789 C1790 1.390 . S
C1789 C1805 1.476 . S
C1790 H1748 0.930 . S
C1790 C1789 1.390 . S
C1790 C1791 1.366 . S
C1791 H1749 0.932 . S
C1791 C1786 1.360 . S
C1791 C1790 1.366 . S
C1792 C1766 1.490 . S
C1792 C1793 1.380 . S
C1792 C1797 1.386 . S
C1793 H1750 0.930 . S
C1793 C1792 1.380 . S
C1793 C1794 1.381 . S
C1794 H1751 0.929 . S
C1794 C1793 1.381 . S
C1794 C1795 1.371 . S
C1795 C1794 1.371 . S
C1795 C1796 1.380 . S
C1796 H1752 0.931 . S
C1796 C1795 1.380 . S
C1796 C1797 1.387 . S
C1797 H1753 0.930 . S
C1797 C1792 1.386 . S
C1797 C1796 1.387 . S
C1798 C1767 1.519 . S
C1798 C1799 1.377 . S
C1798 C1803 1.361 . S
C1799 H1754 0.929 . S
C1799 C1798 1.377 . S
C1799 C1800 1.386 . S
C1800 H1755 0.931 . S
C1800 C1799 1.386 . S
C1800 C1801 1.363 . S
C1801 C1800 1.363 . S
C1801 C1802 1.385 . S
C1802 H1756 0.930 . S
C1802 C1801 1.385 . S
C1802 C1803 1.396 . S
C1803 H1757 0.929 . S
C1803 C1798 1.361 . S
C1803 C1802 1.396 . S
C1804 O1758 1.300 . S
C1804 O1759 1.209 . S
C1804 C1777 1.486 . S
C1805 O1760 1.199 . S
C1805 O1761 1.297 . S
C1805 C1789 1.476 . S
H1806 O1832 0.856 . S
H1807 O1835 0.854 . S
H1808 C1843 0.930 . S
H1809 C1844 0.930 . S
H1810 C1846 0.930 . S
H1811 C1847 0.930 . S
H1812 C1849 0.931 . S
H1813 C1850 0.930 . S
H1814 C1852 0.930 . S
H1815 C1853 0.929 . S
H1816 C1855 0.930 . S
H1817 C1856 0.931 . S
H1818 C1858 0.930 . S
H1819 C1859 0.929 . S
H1820 C1861 0.931 . S
H1821 C1862 0.930 . S
H1822 C1864 0.930 . S
H1823 C1865 0.932 . S
H1824 C1867 0.930 . S
H1825 C1868 0.929 . S
H1826 C1870 0.931 . S
H1827 C1871 0.930 . S
H1828 C1873 0.929 . S
H1829 C1874 0.931 . S
H1830 C1876 0.930 . S
H1831 C1877 0.929 . S
O1832 H1806 0.856 . S
O1832 C1878 1.300 . S
O1833 C1878 1.209 . S
O1834 C1879 1.199 . S
O1835 H1807 0.854 . S
O1835 C1879 1.297 . S
C1836 C1837 1.404 . S
C1836 C1841 1.397 . S
C1836 C1842 1.492 . S
C1837 C1836 1.404 . S
C1837 C1838 1.396 . S
C1837 C1848 1.492 . S
C1838 C1837 1.396 . S
C1838 C1839 1.397 . S
C1838 C1854 1.509 . S
C1839 C1838 1.397 . S
C1839 C1840 1.412 . S
C1839 C1860 1.485 . S
C1840 C1839 1.412 . S
C1840 C1841 1.388 . S
C1840 C1866 1.490 . S
C1841 C1836 1.397 . S
C1841 C1840 1.388 . S
C1841 C1872 1.519 . S
C1842 C1836 1.492 . S
C1842 C1843 1.363 . S
C1842 C1847 1.390 . S
C1843 H1808 0.930 . S
C1843 C1842 1.363 . S
C1843 C1844 1.372 . S
C1844 H1809 0.930 . S
C1844 C1843 1.372 . S
C1844 C1845 1.383 . S
C1845 C1844 1.383 . S
C1845 C1846 1.395 . S
C1846 H1810 0.930 . S
C1846 C1845 1.395 . S
C1846 C1847 1.362 . S
C1847 H1811 0.930 . S
C1847 C1842 1.390 . S
C1847 C1846 1.362 . S
C1848 C1837 1.492 . S
C1848 C1849 1.377 . S
C1848 C1853 1.397 . S
C1849 H1812 0.931 . S
C1849 C1848 1.377 . S
C1849 C1850 1.376 . S
C1850 H1813 0.930 . S
C1850 C1849 1.376 . S
C1850 C1851 1.376 . S
C1851 C1850 1.376 . S
C1851 C1852 1.378 . S
C1851 C1878 1.486 1_556 S
C1852 H1814 0.930 . S
C1852 C1851 1.378 . S
C1852 C1853 1.376 . S
C1853 H1815 0.929 . S
C1853 C1848 1.397 . S
C1853 C1852 1.376 . S
C1854 C1838 1.509 . S
C1854 C1855 1.391 . S
C1854 C1859 1.386 . S
C1855 H1816 0.930 . S
C1855 C1854 1.391 . S
C1855 C1856 1.375 . S
C1856 H1817 0.931 . S
C1856 C1855 1.375 . S
C1856 C1857 1.375 . S
C1857 C1856 1.375 . S
C1857 C1858 1.361 . S
C1858 H1818 0.930 . S
C1858 C1857 1.361 . S
C1858 C1859 1.399 . S
C1859 H1819 0.929 . S
C1859 C1854 1.386 . S
C1859 C1858 1.399 . S
C1860 C1839 1.485 . S
C1860 C1861 1.394 . S
C1860 C1865 1.360 . S
C1861 H1820 0.931 . S
C1861 C1860 1.394 . S
C1861 C1862 1.372 . S
C1862 H1821 0.930 . S
C1862 C1861 1.372 . S
C1862 C1863 1.397 . S
C1863 C1862 1.397 . S
C1863 C1864 1.390 . S
C1863 C1879 1.476 . S
C1864 H1822 0.930 . S
C1864 C1863 1.390 . S
C1864 C1865 1.366 . S
C1865 H1823 0.932 . S
C1865 C1860 1.360 . S
C1865 C1864 1.366 . S
C1866 C1840 1.490 . S
C1866 C1867 1.380 . S
C1866 C1871 1.386 . S
C1867 H1824 0.930 . S
C1867 C1866 1.380 . S
C1867 C1868 1.381 . S
C1868 H1825 0.929 . S
C1868 C1867 1.381 . S
C1868 C1869 1.371 . S
C1869 C1868 1.371 . S
C1869 C1870 1.380 . S
C1870 H1826 0.931 . S
C1870 C1869 1.380 . S
C1870 C1871 1.387 . S
C1871 H1827 0.930 . S
C1871 C1866 1.386 . S
C1871 C1870 1.387 . S
C1872 C1841 1.519 . S
C1872 C1873 1.377 . S
C1872 C1877 1.361 . S
C1873 H1828 0.929 . S
C1873 C1872 1.377 . S
C1873 C1874 1.386 . S
C1874 H1829 0.931 . S
C1874 C1873 1.386 . S
C1874 C1875 1.363 . S
C1875 C1874 1.363 . S
C1875 C1876 1.385 . S
C1876 H1830 0.930 . S
C1876 C1875 1.385 . S
C1876 C1877 1.396 . S
C1877 H1831 0.929 . S
C1877 C1872 1.361 . S
C1877 C1876 1.396 . S
C1878 O1832 1.300 . S
C1878 O1833 1.209 . S
C1878 C1851 1.486 1_554 S
C1879 O1834 1.199 . S
C1879 O1835 1.297 . S
C1879 C1863 1.476 . S
H1880 O1906 0.856 . S
H1881 O1909 0.854 . S
H1882 C1917 0.930 . S
H1883 C1918 0.930 . S
H1884 C1920 0.930 . S
H1885 C1921 0.930 . S
H1886 C1923 0.931 . S
H1887 C1924 0.930 . S
H1888 C1926 0.930 . S
H1889 C1927 0.929 . S
H1890 C1929 0.930 . S
H1891 C1930 0.931 . S
H1892 C1932 0.930 . S
H1893 C1933 0.929 . S
H1894 C1935 0.931 . S
H1895 C1936 0.930 . S
H1896 C1938 0.930 . S
H1897 C1939 0.932 . S
H1898 C1941 0.930 . S
H1899 C1942 0.929 . S
H1900 C1944 0.931 . S
H1901 C1945 0.930 . S
H1902 C1947 0.929 . S
H1903 C1948 0.931 . S
H1904 C1950 0.930 . S
H1905 C1951 0.929 . S
O1906 H1880 0.856 . S
O1906 C1952 1.300 . S
O1907 C1952 1.209 . S
O1908 C1953 1.199 . S
O1909 H1881 0.854 . S
O1909 C1953 1.297 . S
C1910 C1911 1.404 . S
C1910 C1915 1.397 . S
C1910 C1916 1.492 . S
C1911 C1910 1.404 . S
C1911 C1912 1.396 . S
C1911 C1922 1.492 . S
C1912 C1911 1.396 . S
C1912 C1913 1.397 . S
C1912 C1928 1.509 . S
C1913 C1912 1.397 . S
C1913 C1914 1.412 . S
C1913 C1934 1.485 . S
C1914 C1913 1.412 . S
C1914 C1915 1.388 . S
C1914 C1940 1.490 . S
C1915 C1910 1.397 . S
C1915 C1914 1.388 . S
C1915 C1946 1.519 . S
C1916 C1910 1.492 . S
C1916 C1917 1.363 . S
C1916 C1921 1.390 . S
C1917 H1882 0.930 . S
C1917 C1916 1.363 . S
C1917 C1918 1.372 . S
C1918 H1883 0.930 . S
C1918 C1917 1.372 . S
C1918 C1919 1.383 . S
C1919 C1918 1.383 . S
C1919 C1920 1.395 . S
C1920 H1884 0.930 . S
C1920 C1919 1.395 . S
C1920 C1921 1.362 . S
C1921 H1885 0.930 . S
C1921 C1916 1.390 . S
C1921 C1920 1.362 . S
C1922 C1911 1.492 . S
C1922 C1923 1.377 . S
C1922 C1927 1.397 . S
C1923 H1886 0.931 . S
C1923 C1922 1.377 . S
C1923 C1924 1.376 . S
C1924 H1887 0.930 . S
C1924 C1923 1.376 . S
C1924 C1925 1.376 . S
C1925 C1924 1.376 . S
C1925 C1926 1.378 . S
C1925 C1952 1.486 1_556 S
C1926 H1888 0.930 . S
C1926 C1925 1.378 . S
C1926 C1927 1.376 . S
C1927 H1889 0.929 . S
C1927 C1922 1.397 . S
C1927 C1926 1.376 . S
C1928 C1912 1.509 . S
C1928 C1929 1.391 . S
C1928 C1933 1.386 . S
C1929 H1890 0.930 . S
C1929 C1928 1.391 . S
C1929 C1930 1.375 . S
C1930 H1891 0.931 . S
C1930 C1929 1.375 . S
C1930 C1931 1.375 . S
C1931 C1930 1.375 . S
C1931 C1932 1.361 . S
C1932 H1892 0.930 . S
C1932 C1931 1.361 . S
C1932 C1933 1.399 . S
C1933 H1893 0.929 . S
C1933 C1928 1.386 . S
C1933 C1932 1.399 . S
C1934 C1913 1.485 . S
C1934 C1935 1.394 . S
C1934 C1939 1.360 . S
C1935 H1894 0.931 . S
C1935 C1934 1.394 . S
C1935 C1936 1.372 . S
C1936 H1895 0.930 . S
C1936 C1935 1.372 . S
C1936 C1937 1.397 . S
C1937 C1936 1.397 . S
C1937 C1938 1.390 . S
C1937 C1953 1.476 . S
C1938 H1896 0.930 . S
C1938 C1937 1.390 . S
C1938 C1939 1.366 . S
C1939 H1897 0.932 . S
C1939 C1934 1.360 . S
C1939 C1938 1.366 . S
C1940 C1914 1.490 . S
C1940 C1941 1.380 . S
C1940 C1945 1.386 . S
C1941 H1898 0.930 . S
C1941 C1940 1.380 . S
C1941 C1942 1.381 . S
C1942 H1899 0.929 . S
C1942 C1941 1.381 . S
C1942 C1943 1.371 . S
C1943 C1942 1.371 . S
C1943 C1944 1.380 . S
C1944 H1900 0.931 . S
C1944 C1943 1.380 . S
C1944 C1945 1.387 . S
C1945 H1901 0.930 . S
C1945 C1940 1.386 . S
C1945 C1944 1.387 . S
C1946 C1915 1.519 . S
C1946 C1947 1.377 . S
C1946 C1951 1.361 . S
C1947 H1902 0.929 . S
C1947 C1946 1.377 . S
C1947 C1948 1.386 . S
C1948 H1903 0.931 . S
C1948 C1947 1.386 . S
C1948 C1949 1.363 . S
C1949 C1948 1.363 . S
C1949 C1950 1.385 . S
C1950 H1904 0.930 . S
C1950 C1949 1.385 . S
C1950 C1951 1.396 . S
C1951 H1905 0.929 . S
C1951 C1946 1.361 . S
C1951 C1950 1.396 . S
C1952 O1906 1.300 . S
C1952 O1907 1.209 . S
C1952 C1925 1.486 1_554 S
C1953 O1908 1.199 . S
C1953 O1909 1.297 . S
C1953 C1937 1.476 . S
H1954 O1980 0.856 . S
H1955 O1983 0.854 . S
H1956 C1991 0.930 . S
H1957 C1992 0.930 . S
H1958 C1994 0.930 . S
H1959 C1995 0.930 . S
H1960 C1997 0.931 . S
H1961 C1998 0.930 . S
H1962 C2000 0.930 . S
H1963 C2001 0.929 . S
H1964 C2003 0.930 . S
H1965 C2004 0.931 . S
H1966 C2006 0.930 . S
H1967 C2007 0.929 . S
H1968 C2009 0.931 . S
H1969 C2010 0.930 . S
H1970 C2012 0.930 . S
H1971 C2013 0.932 . S
H1972 C2015 0.930 . S
H1973 C2016 0.929 . S
H1974 C2018 0.931 . S
H1975 C2019 0.930 . S
H1976 C2021 0.929 . S
H1977 C2022 0.931 . S
H1978 C2024 0.930 . S
H1979 C2025 0.929 . S
O1980 H1954 0.856 . S
O1980 C2026 1.300 . S
O1981 C2026 1.209 . S
O1982 C2027 1.199 . S
O1983 H1955 0.854 . S
O1983 C2027 1.297 . S
C1984 C1985 1.404 . S
C1984 C1989 1.397 . S
C1984 C1990 1.492 . S
C1985 C1984 1.404 . S
C1985 C1986 1.396 . S
C1985 C1996 1.492 . S
C1986 C1985 1.396 . S
C1986 C1987 1.397 . S
C1986 C2002 1.509 . S
C1987 C1986 1.397 . S
C1987 C1988 1.412 . S
C1987 C2008 1.485 . S
C1988 C1987 1.412 . S
C1988 C1989 1.388 . S
C1988 C2014 1.490 . S
C1989 C1984 1.397 . S
C1989 C1988 1.388 . S
C1989 C2020 1.519 . S
C1990 C1984 1.492 . S
C1990 C1991 1.363 . S
C1990 C1995 1.390 . S
C1991 H1956 0.930 . S
C1991 C1990 1.363 . S
C1991 C1992 1.372 . S
C1992 H1957 0.930 . S
C1992 C1991 1.372 . S
C1992 C1993 1.383 . S
C1993 C1992 1.383 . S
C1993 C1994 1.395 . S
C1994 H1958 0.930 . S
C1994 C1993 1.395 . S
C1994 C1995 1.362 . S
C1995 H1959 0.930 . S
C1995 C1990 1.390 . S
C1995 C1994 1.362 . S
C1996 C1985 1.492 . S
C1996 C1997 1.377 . S
C1996 C2001 1.397 . S
C1997 H1960 0.931 . S
C1997 C1996 1.377 . S
C1997 C1998 1.376 1_556 S
C1998 H1961 0.930 . S
C1998 C1997 1.376 1_554 S
C1998 C1999 1.376 . S
C1999 C1998 1.376 . S
C1999 C2000 1.378 1_554 S
C1999 C2026 1.486 . S
C2000 H1962 0.930 . S
C2000 C1999 1.378 1_556 S
C2000 C2001 1.376 . S
C2001 H1963 0.929 . S
C2001 C1996 1.397 . S
C2001 C2000 1.376 . S
C2002 C1986 1.509 . S
C2002 C2003 1.391 . S
C2002 C2007 1.386 . S
C2003 H1964 0.930 . S
C2003 C2002 1.391 . S
C2003 C2004 1.375 . S
C2004 H1965 0.931 . S
C2004 C2003 1.375 . S
C2004 C2005 1.375 . S
C2005 C2004 1.375 . S
C2005 C2006 1.361 . S
C2006 H1966 0.930 . S
C2006 C2005 1.361 . S
C2006 C2007 1.399 . S
C2007 H1967 0.929 . S
C2007 C2002 1.386 . S
C2007 C2006 1.399 . S
C2008 C1987 1.485 . S
C2008 C2009 1.394 . S
C2008 C2013 1.360 . S
C2009 H1968 0.931 . S
C2009 C2008 1.394 . S
C2009 C2010 1.372 . S
C2010 H1969 0.930 . S
C2010 C2009 1.372 . S
C2010 C2011 1.397 . S
C2011 C2010 1.397 . S
C2011 C2012 1.390 . S
C2011 C2027 1.476 . S
C2012 H1970 0.930 . S
C2012 C2011 1.390 . S
C2012 C2013 1.366 . S
C2013 H1971 0.932 . S
C2013 C2008 1.360 . S
C2013 C2012 1.366 . S
C2014 C1988 1.490 . S
C2014 C2015 1.380 . S
C2014 C2019 1.386 . S
C2015 H1972 0.930 . S
C2015 C2014 1.380 . S
C2015 C2016 1.381 . S
C2016 H1973 0.929 . S
C2016 C2015 1.381 . S
C2016 C2017 1.371 . S
C2017 C2016 1.371 . S
C2017 C2018 1.380 . S
C2018 H1974 0.931 . S
C2018 C2017 1.380 . S
C2018 C2019 1.387 . S
C2019 H1975 0.930 . S
C2019 C2014 1.386 . S
C2019 C2018 1.387 . S
C2020 C1989 1.519 . S
C2020 C2021 1.377 . S
C2020 C2025 1.361 . S
C2021 H1976 0.929 . S
C2021 C2020 1.377 . S
C2021 C2022 1.386 . S
C2022 H1977 0.931 . S
C2022 C2021 1.386 . S
C2022 C2023 1.363 . S
C2023 C2022 1.363 . S
C2023 C2024 1.385 . S
C2024 H1978 0.930 . S
C2024 C2023 1.385 . S
C2024 C2025 1.396 . S
C2025 H1979 0.929 . S
C2025 C2020 1.361 . S
C2025 C2024 1.396 . S
C2026 O1980 1.300 . S
C2026 O1981 1.209 . S
C2026 C1999 1.486 . S
C2027 O1982 1.199 . S
C2027 O1983 1.297 . S
C2027 C2011 1.476 . S
H2028 O2054 0.856 . S
H2029 O2057 0.854 . S
H2030 C2065 0.930 . S
H2031 C2066 0.930 . S
H2032 C2068 0.930 . S
H2033 C2069 0.930 . S
H2034 C2071 0.931 . S
H2035 C2072 0.930 . S
H2036 C2074 0.930 . S
H2037 C2075 0.929 . S
H2038 C2077 0.930 . S
H2039 C2078 0.931 . S
H2040 C2080 0.930 . S
H2041 C2081 0.929 . S
H2042 C2083 0.931 . S
H2043 C2084 0.930 . S
H2044 C2086 0.930 . S
H2045 C2087 0.932 . S
H2046 C2089 0.930 . S
H2047 C2090 0.929 . S
H2048 C2092 0.931 . S
H2049 C2093 0.930 . S
H2050 C2095 0.929 . S
H2051 C2096 0.931 . S
H2052 C2098 0.930 . S
H2053 C2099 0.929 . S
O2054 H2028 0.856 . S
O2054 C2100 1.300 . S
O2055 C2100 1.209 . S
O2056 C2101 1.199 . S
O2057 H2029 0.854 . S
O2057 C2101 1.297 . S
C2058 C2059 1.404 . S
C2058 C2063 1.397 . S
C2058 C2064 1.492 . S
C2059 C2058 1.404 . S
C2059 C2060 1.396 . S
C2059 C2070 1.492 . S
C2060 C2059 1.396 . S
C2060 C2061 1.397 . S
C2060 C2076 1.509 . S
C2061 C2060 1.397 . S
C2061 C2062 1.412 . S
C2061 C2082 1.485 . S
C2062 C2061 1.412 . S
C2062 C2063 1.388 . S
C2062 C2088 1.490 . S
C2063 C2058 1.397 . S
C2063 C2062 1.388 . S
C2063 C2094 1.519 . S
C2064 C2058 1.492 . S
C2064 C2065 1.363 . S
C2064 C2069 1.390 . S
C2065 H2030 0.930 . S
C2065 C2064 1.363 . S
C2065 C2066 1.372 . S
C2066 H2031 0.930 . S
C2066 C2065 1.372 . S
C2066 C2067 1.383 . S
C2067 C2066 1.383 . S
C2067 C2068 1.395 . S
C2068 H2032 0.930 . S
C2068 C2067 1.395 . S
C2068 C2069 1.362 . S
C2069 H2033 0.930 . S
C2069 C2064 1.390 . S
C2069 C2068 1.362 . S
C2070 C2059 1.492 . S
C2070 C2071 1.377 . S
C2070 C2075 1.397 . S
C2071 H2034 0.931 . S
C2071 C2070 1.377 . S
C2071 C2072 1.376 . S
C2072 H2035 0.930 . S
C2072 C2071 1.376 . S
C2072 C2073 1.376 . S
C2073 C2072 1.376 . S
C2073 C2074 1.378 . S
C2073 C2100 1.486 . S
C2074 H2036 0.930 . S
C2074 C2073 1.378 . S
C2074 C2075 1.376 . S
C2075 H2037 0.929 . S
C2075 C2070 1.397 . S
C2075 C2074 1.376 . S
C2076 C2060 1.509 . S
C2076 C2077 1.391 . S
C2076 C2081 1.386 . S
C2077 H2038 0.930 . S
C2077 C2076 1.391 . S
C2077 C2078 1.375 . S
C2078 H2039 0.931 . S
C2078 C2077 1.375 . S
C2078 C2079 1.375 . S
C2079 C2078 1.375 . S
C2079 C2080 1.361 . S
C2080 H2040 0.930 . S
C2080 C2079 1.361 . S
C2080 C2081 1.399 . S
C2081 H2041 0.929 . S
C2081 C2076 1.386 . S
C2081 C2080 1.399 . S
C2082 C2061 1.485 . S
C2082 C2083 1.394 . S
C2082 C2087 1.360 . S
C2083 H2042 0.931 . S
C2083 C2082 1.394 . S
C2083 C2084 1.372 . S
C2084 H2043 0.930 . S
C2084 C2083 1.372 . S
C2084 C2085 1.397 . S
C2085 C2084 1.397 . S
C2085 C2086 1.390 . S
C2085 C2101 1.476 . S
C2086 H2044 0.930 . S
C2086 C2085 1.390 . S
C2086 C2087 1.366 . S
C2087 H2045 0.932 . S
C2087 C2082 1.360 . S
C2087 C2086 1.366 . S
C2088 C2062 1.490 . S
C2088 C2089 1.380 . S
C2088 C2093 1.386 . S
C2089 H2046 0.930 . S
C2089 C2088 1.380 . S
C2089 C2090 1.381 . S
C2090 H2047 0.929 . S
C2090 C2089 1.381 . S
C2090 C2091 1.371 . S
C2091 C2090 1.371 . S
C2091 C2092 1.380 . S
C2092 H2048 0.931 . S
C2092 C2091 1.380 . S
C2092 C2093 1.387 . S
C2093 H2049 0.930 . S
C2093 C2088 1.386 . S
C2093 C2092 1.387 . S
C2094 C2063 1.519 . S
C2094 C2095 1.377 . S
C2094 C2099 1.361 . S
C2095 H2050 0.929 . S
C2095 C2094 1.377 . S
C2095 C2096 1.386 . S
C2096 H2051 0.931 . S
C2096 C2095 1.386 . S
C2096 C2097 1.363 . S
C2097 C2096 1.363 . S
C2097 C2098 1.385 . S
C2098 H2052 0.930 . S
C2098 C2097 1.385 . S
C2098 C2099 1.396 . S
C2099 H2053 0.929 . S
C2099 C2094 1.361 . S
C2099 C2098 1.396 . S
C2100 O2054 1.300 . S
C2100 O2055 1.209 . S
C2100 C2073 1.486 . S
C2101 O2056 1.199 . S
C2101 O2057 1.297 . S
C2101 C2085 1.476 . S
H2102 O2128 0.856 . S
H2103 O2131 0.854 . S
H2104 C2139 0.930 . S
H2105 C2140 0.930 . S
H2106 C2142 0.930 . S
H2107 C2143 0.930 . S
H2108 C2145 0.931 . S
H2109 C2146 0.930 . S
H2110 C2148 0.930 . S
H2111 C2149 0.929 . S
H2112 C2151 0.930 . S
H2113 C2152 0.931 . S
H2114 C2154 0.930 . S
H2115 C2155 0.929 . S
H2116 C2157 0.931 . S
H2117 C2158 0.930 . S
H2118 C2160 0.930 . S
H2119 C2161 0.932 . S
H2120 C2163 0.930 . S
H2121 C2164 0.929 . S
H2122 C2166 0.931 . S
H2123 C2167 0.930 . S
H2124 C2169 0.929 . S
H2125 C2170 0.931 . S
H2126 C2172 0.930 . S
H2127 C2173 0.929 . S
O2128 H2102 0.856 . S
O2128 C2174 1.300 . S
O2129 C2174 1.209 . S
O2130 C2175 1.199 . S
O2131 H2103 0.854 . S
O2131 C2175 1.297 . S
C2132 C2133 1.404 . S
C2132 C2137 1.397 . S
C2132 C2138 1.492 . S
C2133 C2132 1.404 . S
C2133 C2134 1.396 . S
C2133 C2144 1.492 . S
C2134 C2133 1.396 . S
C2134 C2135 1.397 . S
C2134 C2150 1.509 . S
C2135 C2134 1.397 . S
C2135 C2136 1.412 . S
C2135 C2156 1.485 . S
C2136 C2135 1.412 . S
C2136 C2137 1.388 . S
C2136 C2162 1.490 . S
C2137 C2132 1.397 . S
C2137 C2136 1.388 . S
C2137 C2168 1.519 . S
C2138 C2132 1.492 . S
C2138 C2139 1.363 . S
C2138 C2143 1.390 . S
C2139 H2104 0.930 . S
C2139 C2138 1.363 . S
C2139 C2140 1.372 . S
C2140 H2105 0.930 . S
C2140 C2139 1.372 . S
C2140 C2141 1.383 . S
C2141 C2140 1.383 . S
C2141 C2142 1.395 . S
C2142 H2106 0.930 . S
C2142 C2141 1.395 . S
C2142 C2143 1.362 . S
C2143 H2107 0.930 . S
C2143 C2138 1.390 . S
C2143 C2142 1.362 . S
C2144 C2133 1.492 . S
C2144 C2145 1.377 . S
C2144 C2149 1.397 . S
C2145 H2108 0.931 . S
C2145 C2144 1.377 . S
C2145 C2146 1.376 . S
C2146 H2109 0.930 . S
C2146 C2145 1.376 . S
C2146 C2147 1.376 . S
C2147 C2146 1.376 . S
C2147 C2148 1.378 . S
C2147 C2174 1.486 . S
C2148 H2110 0.930 . S
C2148 C2147 1.378 . S
C2148 C2149 1.376 . S
C2149 H2111 0.929 . S
C2149 C2144 1.397 . S
C2149 C2148 1.376 . S
C2150 C2134 1.509 . S
C2150 C2151 1.391 . S
C2150 C2155 1.386 . S
C2151 H2112 0.930 . S
C2151 C2150 1.391 . S
C2151 C2152 1.375 . S
C2152 H2113 0.931 . S
C2152 C2151 1.375 . S
C2152 C2153 1.375 . S
C2153 C2152 1.375 . S
C2153 C2154 1.361 . S
C2154 H2114 0.930 . S
C2154 C2153 1.361 . S
C2154 C2155 1.399 . S
C2155 H2115 0.929 . S
C2155 C2150 1.386 . S
C2155 C2154 1.399 . S
C2156 C2135 1.485 . S
C2156 C2157 1.394 . S
C2156 C2161 1.360 . S
C2157 H2116 0.931 . S
C2157 C2156 1.394 . S
C2157 C2158 1.372 . S
C2158 H2117 0.930 . S
C2158 C2157 1.372 . S
C2158 C2159 1.397 . S
C2159 C2158 1.397 . S
C2159 C2160 1.390 . S
C2159 C2175 1.476 . S
C2160 H2118 0.930 . S
C2160 C2159 1.390 . S
C2160 C2161 1.366 . S
C2161 H2119 0.932 . S
C2161 C2156 1.360 . S
C2161 C2160 1.366 . S
C2162 C2136 1.490 . S
C2162 C2163 1.380 . S
C2162 C2167 1.386 . S
C2163 H2120 0.930 . S
C2163 C2162 1.380 . S
C2163 C2164 1.381 . S
C2164 H2121 0.929 . S
C2164 C2163 1.381 . S
C2164 C2165 1.371 . S
C2165 C2164 1.371 . S
C2165 C2166 1.380 . S
C2166 H2122 0.931 . S
C2166 C2165 1.380 . S
C2166 C2167 1.387 . S
C2167 H2123 0.930 . S
C2167 C2162 1.386 . S
C2167 C2166 1.387 . S
C2168 C2137 1.519 . S
C2168 C2169 1.377 . S
C2168 C2173 1.361 . S
C2169 H2124 0.929 . S
C2169 C2168 1.377 . S
C2169 C2170 1.386 . S
C2170 H2125 0.931 . S
C2170 C2169 1.386 . S
C2170 C2171 1.363 . S
C2171 C2170 1.363 . S
C2171 C2172 1.385 . S
C2172 H2126 0.930 . S
C2172 C2171 1.385 . S
C2172 C2173 1.396 . S
C2173 H2127 0.929 . S
C2173 C2168 1.361 . S
C2173 C2172 1.396 . S
C2174 O2128 1.300 . S
C2174 O2129 1.209 . S
C2174 C2147 1.486 . S
C2175 O2130 1.199 . S
C2175 O2131 1.297 . S
C2175 C2159 1.476 . S
H2176 O2202 0.856 . S
H2177 O2205 0.854 . S
H2178 C2213 0.930 . S
H2179 C2214 0.930 . S
H2180 C2216 0.930 . S
H2181 C2217 0.930 . S
H2182 C2219 0.931 . S
H2183 C2220 0.930 . S
H2184 C2222 0.930 . S
H2185 C2223 0.929 . S
H2186 C2225 0.930 . S
H2187 C2226 0.931 . S
H2188 C2228 0.930 . S
H2189 C2229 0.929 . S
H2190 C2231 0.931 . S
H2191 C2232 0.930 . S
H2192 C2234 0.930 . S
H2193 C2235 0.932 . S
H2194 C2237 0.930 . S
H2195 C2238 0.929 . S
H2196 C2240 0.931 . S
H2197 C2241 0.930 . S
H2198 C2243 0.929 . S
H2199 C2244 0.931 . S
H2200 C2246 0.930 . S
H2201 C2247 0.929 . S
O2202 H2176 0.856 . S
O2202 C2248 1.300 . S
O2203 C2248 1.209 . S
O2204 C2249 1.199 . S
O2205 H2177 0.854 . S
O2205 C2249 1.297 . S
C2206 C2207 1.404 . S
C2206 C2211 1.397 . S
C2206 C2212 1.492 . S
C2207 C2206 1.404 . S
C2207 C2208 1.396 . S
C2207 C2218 1.492 . S
C2208 C2207 1.396 . S
C2208 C2209 1.397 . S
C2208 C2224 1.509 . S
C2209 C2208 1.397 . S
C2209 C2210 1.412 . S
C2209 C2230 1.485 . S
C2210 C2209 1.412 . S
C2210 C2211 1.388 . S
C2210 C2236 1.490 . S
C2211 C2206 1.397 . S
C2211 C2210 1.388 . S
C2211 C2242 1.519 . S
C2212 C2206 1.492 . S
C2212 C2213 1.363 . S
C2212 C2217 1.390 . S
C2213 H2178 0.930 . S
C2213 C2212 1.363 . S
C2213 C2214 1.372 . S
C2214 H2179 0.930 . S
C2214 C2213 1.372 . S
C2214 C2215 1.383 . S
C2215 C2214 1.383 . S
C2215 C2216 1.395 . S
C2216 H2180 0.930 . S
C2216 C2215 1.395 . S
C2216 C2217 1.362 . S
C2217 H2181 0.930 . S
C2217 C2212 1.390 . S
C2217 C2216 1.362 . S
C2218 C2207 1.492 . S
C2218 C2219 1.377 . S
C2218 C2223 1.397 . S
C2219 H2182 0.931 . S
C2219 C2218 1.377 . S
C2219 C2220 1.376 . S
C2220 H2183 0.930 . S
C2220 C2219 1.376 . S
C2220 C2221 1.376 . S
C2221 C2220 1.376 . S
C2221 C2222 1.378 . S
C2221 C2248 1.486 . S
C2222 H2184 0.930 . S
C2222 C2221 1.378 . S
C2222 C2223 1.376 . S
C2223 H2185 0.929 . S
C2223 C2218 1.397 . S
C2223 C2222 1.376 . S
C2224 C2208 1.509 . S
C2224 C2225 1.391 . S
C2224 C2229 1.386 . S
C2225 H2186 0.930 . S
C2225 C2224 1.391 . S
C2225 C2226 1.375 . S
C2226 H2187 0.931 . S
C2226 C2225 1.375 . S
C2226 C2227 1.375 . S
C2227 C2226 1.375 . S
C2227 C2228 1.361 . S
C2228 H2188 0.930 . S
C2228 C2227 1.361 . S
C2228 C2229 1.399 . S
C2229 H2189 0.929 . S
C2229 C2224 1.386 . S
C2229 C2228 1.399 . S
C2230 C2209 1.485 . S
C2230 C2231 1.394 . S
C2230 C2235 1.360 . S
C2231 H2190 0.931 . S
C2231 C2230 1.394 . S
C2231 C2232 1.372 . S
C2232 H2191 0.930 . S
C2232 C2231 1.372 . S
C2232 C2233 1.397 . S
C2233 C2232 1.397 . S
C2233 C2234 1.390 . S
C2233 C2249 1.476 . S
C2234 H2192 0.930 . S
C2234 C2233 1.390 . S
C2234 C2235 1.366 . S
C2235 H2193 0.932 . S
C2235 C2230 1.360 . S
C2235 C2234 1.366 . S
C2236 C2210 1.490 . S
C2236 C2237 1.380 . S
C2236 C2241 1.386 . S
C2237 H2194 0.930 . S
C2237 C2236 1.380 . S
C2237 C2238 1.381 . S
C2238 H2195 0.929 . S
C2238 C2237 1.381 . S
C2238 C2239 1.371 . S
C2239 C2238 1.371 . S
C2239 C2240 1.380 . S
C2240 H2196 0.931 . S
C2240 C2239 1.380 . S
C2240 C2241 1.387 . S
C2241 H2197 0.930 . S
C2241 C2236 1.386 . S
C2241 C2240 1.387 . S
C2242 C2211 1.519 . S
C2242 C2243 1.377 . S
C2242 C2247 1.361 . S
C2243 H2198 0.929 . S
C2243 C2242 1.377 . S
C2243 C2244 1.386 . S
C2244 H2199 0.931 . S
C2244 C2243 1.386 . S
C2244 C2245 1.363 . S
C2245 C2244 1.363 . S
C2245 C2246 1.385 . S
C2246 H2200 0.930 . S
C2246 C2245 1.385 . S
C2246 C2247 1.396 . S
C2247 H2201 0.929 . S
C2247 C2242 1.361 . S
C2247 C2246 1.396 . S
C2248 O2202 1.300 . S
C2248 O2203 1.209 . S
C2248 C2221 1.486 . S
C2249 O2204 1.199 . S
C2249 O2205 1.297 . S
C2249 C2233 1.476 . S
H2250 O2276 0.856 . S
H2251 O2279 0.854 . S
H2252 C2287 0.930 . S
H2253 C2288 0.930 . S
H2254 C2290 0.930 . S
H2255 C2291 0.930 . S
H2256 C2293 0.931 . S
H2257 C2294 0.930 1_655 S
H2258 C2296 0.930 . S
H2259 C2297 0.929 . S
H2260 C2299 0.930 . S
H2261 C2300 0.931 1_655 S
H2262 C2302 0.930 . S
H2263 C2303 0.929 . S
H2264 C2305 0.931 . S
H2265 C2306 0.930 . S
H2266 C2308 0.930 . S
H2267 C2309 0.932 . S
H2268 C2311 0.930 . S
H2269 C2312 0.929 . S
H2270 C2314 0.931 . S
H2271 C2315 0.930 . S
H2272 C2317 0.929 . S
H2273 C2318 0.931 . S
H2274 C2320 0.930 . S
H2275 C2321 0.929 . S
O2276 H2250 0.856 . S
O2276 C2322 1.300 . S
O2277 C2322 1.209 . S
O2278 C2323 1.199 1_655 S
O2279 H2251 0.854 . S
O2279 C2323 1.297 . S
C2280 C2281 1.404 . S
C2280 C2285 1.395 . S
C2280 C2286 1.492 . S
C2281 C2280 1.404 . S
C2281 C2282 1.396 . S
C2281 C2292 1.492 . S
C2282 C2281 1.396 . S
C2282 C2283 1.397 . S
C2282 C2298 1.509 . S
C2283 C2282 1.397 . S
C2283 C2284 1.422 . S
C2283 C2304 1.485 . S
C2284 C2283 1.422 . S
C2284 C2285 1.406 . S
C2284 C2310 1.490 1_455 S
C2285 C2280 1.395 . S
C2285 C2284 1.406 . S
C2285 C2316 1.486 1_455 S
C2286 C2280 1.492 . S
C2286 C2287 1.363 1_455 S
C2286 C2291 1.390 . S
C2287 H2252 0.930 . S
C2287 C2286 1.363 1_655 S
C2287 C2288 1.372 . S
C2288 H2253 0.930 . S
C2288 C2287 1.372 . S
C2288 C2289 1.383 . S
C2289 C2288 1.383 . S
C2289 C2290 1.395 1_655 S
C2290 H2254 0.930 . S
C2290 C2289 1.395 1_455 S
C2290 C2291 1.362 . S
C2291 H2255 0.930 . S
C2291 C2286 1.390 . S
C2291 C2290 1.362 . S
C2292 C2281 1.492 . S
C2292 C2293 1.377 1_455 S
C2292 C2297 1.397 . S
C2293 H2256 0.931 . S
C2293 C2292 1.377 1_655 S
C2293 C2294 1.376 1_655 S
C2294 H2257 0.930 1_455 S
C2294 C2293 1.376 1_455 S
C2294 C2295 1.376 . S
C2295 C2294 1.376 . S
C2295 C2296 1.378 . S
C2295 C2322 1.486 . S
C2296 H2258 0.930 . S
C2296 C2295 1.378 . S
C2296 C2297 1.376 . S
C2297 H2259 0.929 . S
C2297 C2292 1.397 . S
C2297 C2296 1.376 . S
C2298 C2282 1.509 . S
C2298 C2299 1.391 1_455 S
C2298 C2303 1.386 . S
C2299 H2260 0.930 . S
C2299 C2298 1.391 1_655 S
C2299 C2300 1.375 1_655 S
C2300 H2261 0.931 1_455 S
C2300 C2299 1.375 1_455 S
C2300 C2301 1.375 . S
C2301 C2300 1.375 . S
C2301 C2302 1.361 . S
C2302 H2262 0.930 . S
C2302 C2301 1.361 . S
C2302 C2303 1.399 . S
C2303 H2263 0.929 . S
C2303 C2298 1.386 . S
C2303 C2302 1.399 . S
C2304 C2283 1.485 . S
C2304 C2305 1.394 1_455 S
C2304 C2309 1.360 . S
C2305 H2264 0.931 . S
C2305 C2304 1.394 1_655 S
C2305 C2306 1.372 . S
C2306 H2265 0.930 . S
C2306 C2305 1.372 . S
C2306 C2307 1.397 1_655 S
C2307 C2306 1.397 1_455 S
C2307 C2308 1.390 . S
C2307 C2323 1.476 . S
C2308 H2266 0.930 . S
C2308 C2307 1.390 . S
C2308 C2309 1.366 . S
C2309 H2267 0.932 . S
C2309 C2304 1.360 . S
C2309 C2308 1.366 . S
C2310 C2284 1.490 1_655 S
C2310 C2311 1.380 . S
C2310 C2315 1.386 1_655 S
C2311 H2268 0.930 . S
C2311 C2310 1.380 . S
C2311 C2312 1.381 . S
C2312 H2269 0.929 . S
C2312 C2311 1.381 . S
C2312 C2313 1.371 . S
C2313 C2312 1.371 . S
C2313 C2314 1.380 1_655 S
C2314 H2270 0.931 . S
C2314 C2313 1.380 1_455 S
C2314 C2315 1.387 . S
C2315 H2271 0.930 . S
C2315 C2310 1.386 1_455 S
C2315 C2314 1.387 . S
C2316 C2285 1.486 1_655 S
C2316 C2317 1.415 . S
C2316 C2321 1.336 1_655 S
C2317 H2272 0.929 . S
C2317 C2316 1.415 . S
C2317 C2318 1.386 . S
C2318 H2273 0.931 . S
C2318 C2317 1.386 . S
C2318 C2319 1.392 . S
C2319 C2318 1.392 . S
C2319 C2320 1.342 1_655 S
C2320 H2274 0.930 . S
C2320 C2319 1.342 1_455 S
C2320 C2321 1.396 . S
C2321 H2275 0.929 . S
C2321 C2316 1.336 1_455 S
C2321 C2320 1.396 . S
C2322 O2276 1.300 . S
C2322 O2277 1.209 . S
C2322 C2295 1.486 . S
C2323 O2278 1.199 1_455 S
C2323 O2279 1.297 . S
C2323 C2307 1.476 . S
H2324 O2350 0.856 . S
H2325 O2353 0.854 . S
H2326 C2361 0.930 . S
H2327 C2362 0.930 . S
H2328 C2364 0.930 . S
H2329 C2365 0.930 . S
H2330 C2367 0.931 . S
H2331 C2368 0.930 . S
H2332 C2370 0.930 . S
H2333 C2371 0.929 . S
H2334 C2373 0.930 . S
H2335 C2374 0.931 . S
H2336 C2376 0.930 . S
H2337 C2377 0.929 . S
H2338 C2379 0.931 . S
H2339 C2380 0.930 . S
H2340 C2382 0.930 . S
H2341 C2383 0.932 . S
H2342 C2385 0.930 . S
H2343 C2386 0.929 . S
H2344 C2388 0.931 . S
H2345 C2389 0.930 . S
H2346 C2391 0.929 . S
H2347 C2392 0.931 . S
H2348 C2394 0.930 . S
H2349 C2395 0.929 . S
O2350 H2324 0.856 . S
O2350 C2396 1.300 . S
O2351 C2396 1.209 . S
O2352 C2397 1.199 . S
O2353 H2325 0.854 . S
O2353 C2397 1.297 . S
C2354 C2355 1.404 . S
C2354 C2359 1.397 . S
C2354 C2360 1.492 . S
C2355 C2354 1.404 . S
C2355 C2356 1.396 . S
C2355 C2366 1.492 . S
C2356 C2355 1.396 . S
C2356 C2357 1.397 . S
C2356 C2372 1.509 . S
C2357 C2356 1.397 . S
C2357 C2358 1.412 . S
C2357 C2378 1.485 . S
C2358 C2357 1.412 . S
C2358 C2359 1.388 . S
C2358 C2384 1.490 . S
C2359 C2354 1.397 . S
C2359 C2358 1.388 . S
C2359 C2390 1.519 . S
C2360 C2354 1.492 . S
C2360 C2361 1.363 . S
C2360 C2365 1.390 . S
C2361 H2326 0.930 . S
C2361 C2360 1.363 . S
C2361 C2362 1.372 . S
C2362 H2327 0.930 . S
C2362 C2361 1.372 . S
C2362 C2363 1.383 . S
C2363 C2362 1.383 . S
C2363 C2364 1.395 . S
C2364 H2328 0.930 . S
C2364 C2363 1.395 . S
C2364 C2365 1.362 . S
C2365 H2329 0.930 . S
C2365 C2360 1.390 . S
C2365 C2364 1.362 . S
C2366 C2355 1.492 . S
C2366 C2367 1.377 . S
C2366 C2371 1.397 . S
C2367 H2330 0.931 . S
C2367 C2366 1.377 . S
C2367 C2368 1.376 . S
C2368 H2331 0.930 . S
C2368 C2367 1.376 . S
C2368 C2369 1.376 . S
C2369 C2368 1.376 . S
C2369 C2370 1.378 . S
C2369 C2396 1.486 . S
C2370 H2332 0.930 . S
C2370 C2369 1.378 . S
C2370 C2371 1.376 . S
C2371 H2333 0.929 . S
C2371 C2366 1.397 . S
C2371 C2370 1.376 . S
C2372 C2356 1.509 . S
C2372 C2373 1.391 . S
C2372 C2377 1.386 . S
C2373 H2334 0.930 . S
C2373 C2372 1.391 . S
C2373 C2374 1.375 . S
C2374 H2335 0.931 . S
C2374 C2373 1.375 . S
C2374 C2375 1.375 . S
C2375 C2374 1.375 . S
C2375 C2376 1.361 . S
C2376 H2336 0.930 . S
C2376 C2375 1.361 . S
C2376 C2377 1.399 . S
C2377 H2337 0.929 . S
C2377 C2372 1.386 . S
C2377 C2376 1.399 . S
C2378 C2357 1.485 . S
C2378 C2379 1.394 . S
C2378 C2383 1.360 . S
C2379 H2338 0.931 . S
C2379 C2378 1.394 . S
C2379 C2380 1.372 . S
C2380 H2339 0.930 . S
C2380 C2379 1.372 . S
C2380 C2381 1.397 . S
C2381 C2380 1.397 . S
C2381 C2382 1.390 . S
C2381 C2397 1.476 . S
C2382 H2340 0.930 . S
C2382 C2381 1.390 . S
C2382 C2383 1.366 . S
C2383 H2341 0.932 . S
C2383 C2378 1.360 . S
C2383 C2382 1.366 . S
C2384 C2358 1.490 . S
C2384 C2385 1.380 . S
C2384 C2389 1.386 . S
C2385 H2342 0.930 . S
C2385 C2384 1.380 . S
C2385 C2386 1.381 . S
C2386 H2343 0.929 . S
C2386 C2385 1.381 . S
C2386 C2387 1.371 . S
C2387 C2386 1.371 . S
C2387 C2388 1.380 . S
C2388 H2344 0.931 . S
C2388 C2387 1.380 . S
C2388 C2389 1.387 . S
C2389 H2345 0.930 . S
C2389 C2384 1.386 . S
C2389 C2388 1.387 . S
C2390 C2359 1.519 . S
C2390 C2391 1.377 . S
C2390 C2395 1.361 . S
C2391 H2346 0.929 . S
C2391 C2390 1.377 . S
C2391 C2392 1.386 . S
C2392 H2347 0.931 . S
C2392 C2391 1.386 . S
C2392 C2393 1.363 . S
C2393 C2392 1.363 . S
C2393 C2394 1.385 . S
C2394 H2348 0.930 . S
C2394 C2393 1.385 . S
C2394 C2395 1.396 . S
C2395 H2349 0.929 . S
C2395 C2390 1.361 . S
C2395 C2394 1.396 . S
C2396 O2350 1.300 . S
C2396 O2351 1.209 . S
C2396 C2369 1.486 . S
C2397 O2352 1.199 . S
C2397 O2353 1.297 . S
C2397 C2381 1.476 . S
H2398 O2424 0.856 . S
H2399 O2427 0.854 . S
H2400 C2435 0.930 . S
H2401 C2436 0.930 . S
H2402 C2438 0.930 . S
H2403 C2439 0.930 . S
H2404 C2441 0.931 . S
H2405 C2442 0.927 1_545 S
H2406 C2444 0.930 . S
H2407 C2445 0.929 . S
H2408 C2447 0.930 . S
H2409 C2448 0.980 . S
H2410 C2450 0.930 . S
H2411 C2451 0.929 . S
H2412 C2453 0.931 . S
H2413 C2454 0.930 . S
H2414 C2456 0.930 . S
H2415 C2457 0.932 . S
H2416 C2459 0.930 . S
H2417 C2460 0.929 . S
H2418 C2462 0.931 . S
H2419 C2463 0.930 . S
H2420 C2465 0.929 . S
H2421 C2466 0.931 . S
H2422 C2468 0.930 . S
H2423 C2469 0.929 . S
O2424 H2398 0.856 . S
O2424 C2470 1.300 . S
O2425 C2470 1.209 . S
O2426 C2471 1.199 1_545 S
O2427 H2399 0.854 . S
O2427 C2471 1.297 . S
C2428 C2429 1.404 . S
C2428 C2433 1.414 . S
C2428 C2434 1.492 . S
C2429 C2428 1.404 . S
C2429 C2430 1.396 . S
C2429 C2440 1.492 . S
C2430 C2429 1.396 . S
C2430 C2431 1.397 . S
C2430 C2446 1.509 . S
C2431 C2430 1.397 . S
C2431 C2432 1.410 . S
C2431 C2452 1.485 . S
C2432 C2431 1.410 . S
C2432 C2433 1.368 . S
C2432 C2458 1.486 1_565 S
C2433 C2428 1.414 . S
C2433 C2432 1.368 . S
C2433 C2464 1.536 1_565 S
C2434 C2428 1.492 . S
C2434 C2435 1.363 1_565 S
C2434 C2439 1.390 . S
C2435 H2400 0.930 . S
C2435 C2434 1.363 1_545 S
C2435 C2436 1.372 . S
C2436 H2401 0.930 . S
C2436 C2435 1.372 . S
C2436 C2437 1.383 . S
C2437 C2436 1.383 . S
C2437 C2438 1.395 1_545 S
C2438 H2402 0.930 . S
C2438 C2437 1.395 1_565 S
C2438 C2439 1.362 . S
C2439 H2403 0.930 . S
C2439 C2434 1.390 . S
C2439 C2438 1.362 . S
C2440 C2429 1.492 . S
C2440 C2441 1.377 1_565 S
C2440 C2445 1.397 . S
C2441 H2404 0.931 . S
C2441 C2440 1.377 1_545 S
C2441 C2442 1.374 1_545 S
C2442 H2405 0.927 1_565 S
C2442 C2441 1.374 1_565 S
C2442 C2443 1.380 . S
C2443 C2442 1.380 . S
C2443 C2444 1.378 . S
C2443 C2470 1.486 . S
C2444 H2406 0.930 . S
C2444 C2443 1.378 . S
C2444 C2445 1.376 . S
C2445 H2407 0.929 . S
C2445 C2440 1.397 . S
C2445 C2444 1.376 . S
C2446 C2430 1.509 . S
C2446 C2447 1.391 1_565 S
C2446 C2451 1.386 . S
C2447 H2408 0.930 . S
C2447 C2446 1.391 1_545 S
C2447 C2448 1.368 . S
C2448 H2409 0.980 . S
C2448 C2447 1.368 . S
C2448 C2449 1.336 1_545 S
C2449 C2448 1.336 1_565 S
C2449 C2450 1.361 . S
C2450 H2410 0.930 . S
C2450 C2449 1.361 . S
C2450 C2451 1.399 . S
C2451 H2411 0.929 . S
C2451 C2446 1.386 . S
C2451 C2450 1.399 . S
C2452 C2431 1.485 . S
C2452 C2453 1.394 1_565 S
C2452 C2457 1.360 . S
C2453 H2412 0.931 . S
C2453 C2452 1.394 1_545 S
C2453 C2454 1.372 . S
C2454 H2413 0.930 . S
C2454 C2453 1.372 . S
C2454 C2455 1.397 1_545 S
C2455 C2454 1.397 1_565 S
C2455 C2456 1.390 . S
C2455 C2471 1.476 . S
C2456 H2414 0.930 . S
C2456 C2455 1.390 . S
C2456 C2457 1.366 . S
C2457 H2415 0.932 . S
C2457 C2452 1.360 . S
C2457 C2456 1.366 . S
C2458 C2432 1.486 1_545 S
C2458 C2459 1.380 . S
C2458 C2463 1.386 1_545 S
C2459 H2416 0.930 . S
C2459 C2458 1.380 . S
C2459 C2460 1.381 . S
C2460 H2417 0.929 . S
C2460 C2459 1.381 . S
C2460 C2461 1.371 . S
C2461 C2460 1.371 . S
C2461 C2462 1.380 1_545 S
C2462 H2418 0.931 . S
C2462 C2461 1.380 1_565 S
C2462 C2463 1.387 . S
C2463 H2419 0.930 . S
C2463 C2458 1.386 1_565 S
C2463 C2462 1.387 . S
C2464 C2433 1.536 1_545 S
C2464 C2465 1.380 . S
C2464 C2469 1.355 1_545 S
C2465 H2420 0.929 . S
C2465 C2464 1.380 . S
C2465 C2466 1.386 . S
C2466 H2421 0.931 . S
C2466 C2465 1.386 . S
C2466 C2467 1.339 1_545 S
C2467 C2466 1.339 1_565 S
C2467 C2468 1.398 . S
C2468 H2422 0.930 . S
C2468 C2467 1.398 . S
C2468 C2469 1.396 . S
C2469 H2423 0.929 . S
C2469 C2464 1.355 1_565 S
C2469 C2468 1.396 . S
C2470 O2424 1.300 . S
C2470 O2425 1.209 . S
C2470 C2443 1.486 . S
C2471 O2426 1.199 1_565 S
C2471 O2427 1.297 . S
C2471 C2455 1.476 . S
H2472 O2498 0.856 . S
H2473 O2501 0.854 . S
H2474 C2509 0.930 . S
H2475 C2510 0.930 . S
H2476 C2512 0.930 . S
H2477 C2513 0.930 . S
H2478 C2515 0.931 . S
H2479 C2516 0.930 . S
H2480 C2518 0.930 . S
H2481 C2519 0.929 . S
H2482 C2521 0.930 . S
H2483 C2522 0.931 . S
H2484 C2524 0.930 . S
H2485 C2525 0.929 . S
H2486 C2527 0.931 . S
H2487 C2528 0.930 . S
H2488 C2530 0.930 . S
H2489 C2531 0.932 . S
H2490 C2533 0.930 . S
H2491 C2534 0.929 . S
H2492 C2536 0.931 . S
H2493 C2537 0.930 . S
H2494 C2539 0.929 . S
H2495 C2540 0.931 . S
H2496 C2542 0.930 . S
H2497 C2543 0.929 . S
O2498 H2472 0.856 . S
O2498 C2544 1.300 . S
O2499 C2544 1.209 1_565 S
O2500 C2545 1.199 1_545 S
O2501 H2473 0.854 . S
O2501 C2545 1.297 . S
C2502 C2503 1.404 . S
C2502 C2507 1.397 1_545 S
C2502 C2508 1.492 . S
C2503 C2502 1.404 . S
C2503 C2504 1.396 . S
C2503 C2514 1.492 . S
C2504 C2503 1.396 . S
C2504 C2505 1.393 1_545 S
C2504 C2520 1.532 . S
C2505 C2504 1.393 1_565 S
C2505 C2506 1.419 . S
C2505 C2526 1.494 . S
C2506 C2505 1.419 . S
C2506 C2507 1.368 . S
C2506 C2532 1.487 . S
C2507 C2502 1.397 1_565 S
C2507 C2506 1.368 . S
C2507 C2538 1.519 . S
C2508 C2502 1.492 . S
C2508 C2509 1.363 . S
C2508 C2513 1.390 1_545 S
C2509 H2474 0.930 . S
C2509 C2508 1.363 . S
C2509 C2510 1.372 . S
C2510 H2475 0.930 . S
C2510 C2509 1.372 . S
C2510 C2511 1.383 . S
C2511 C2510 1.383 . S
C2511 C2512 1.395 1_545 S
C2512 H2476 0.930 . S
C2512 C2511 1.395 1_565 S
C2512 C2513 1.362 . S
C2513 H2477 0.930 . S
C2513 C2508 1.390 1_565 S
C2513 C2512 1.362 . S
C2514 C2503 1.492 . S
C2514 C2515 1.377 . S
C2514 C2519 1.397 1_545 S
C2515 H2478 0.931 . S
C2515 C2514 1.377 . S
C2515 C2516 1.376 . S
C2516 H2479 0.930 . S
C2516 C2515 1.376 . S
C2516 C2517 1.376 . S
C2517 C2516 1.376 . S
C2517 C2518 1.378 1_545 S
C2517 C2544 1.486 . S
C2518 H2480 0.930 . S
C2518 C2517 1.378 1_565 S
C2518 C2519 1.376 . S
C2519 H2481 0.929 . S
C2519 C2514 1.397 1_565 S
C2519 C2518 1.376 . S
C2520 C2504 1.532 . S
C2520 C2521 1.421 . S
C2520 C2525 1.338 1_545 S
C2521 H2482 0.930 . S
C2521 C2520 1.421 . S
C2521 C2522 1.375 . S
C2522 H2483 0.931 . S
C2522 C2521 1.375 . S
C2522 C2523 1.412 . S
C2523 C2522 1.412 . S
C2523 C2524 1.342 1_545 S
C2524 H2484 0.930 . S
C2524 C2523 1.342 1_565 S
C2524 C2525 1.399 . S
C2525 H2485 0.929 . S
C2525 C2520 1.338 1_565 S
C2525 C2524 1.399 . S
C2526 C2505 1.494 . S
C2526 C2527 1.394 1_565 S
C2526 C2531 1.360 . S
C2527 H2486 0.931 . S
C2527 C2526 1.394 1_545 S
C2527 C2528 1.372 . S
C2528 H2487 0.930 . S
C2528 C2527 1.372 . S
C2528 C2529 1.397 1_545 S
C2529 C2528 1.397 1_565 S
C2529 C2530 1.390 . S
C2529 C2545 1.476 . S
C2530 H2488 0.930 . S
C2530 C2529 1.390 . S
C2530 C2531 1.366 . S
C2531 H2489 0.932 . S
C2531 C2526 1.360 . S
C2531 C2530 1.366 . S
C2532 C2506 1.487 . S
C2532 C2533 1.340 1_565 S
C2532 C2537 1.436 . S
C2533 H2490 0.930 . S
C2533 C2532 1.340 1_545 S
C2533 C2534 1.381 . S
C2534 H2491 0.929 . S
C2534 C2533 1.381 . S
C2534 C2535 1.376 . S
C2535 C2534 1.376 . S
C2535 C2536 1.376 1_545 S
C2536 H2492 0.931 . S
C2536 C2535 1.376 1_565 S
C2536 C2537 1.387 . S
C2537 H2493 0.930 . S
C2537 C2532 1.436 . S
C2537 C2536 1.387 . S
C2538 C2507 1.519 . S
C2538 C2539 1.377 1_565 S
C2538 C2543 1.361 . S
C2539 H2494 0.929 . S
C2539 C2538 1.377 1_545 S
C2539 C2540 1.386 . S
C2540 H2495 0.931 . S
C2540 C2539 1.386 . S
C2540 C2541 1.363 1_545 S
C2541 C2540 1.363 1_565 S
C2541 C2542 1.385 . S
C2542 H2496 0.930 . S
C2542 C2541 1.385 . S
C2542 C2543 1.396 . S
C2543 H2497 0.929 . S
C2543 C2538 1.361 . S
C2543 C2542 1.396 . S
C2544 O2498 1.300 . S
C2544 O2499 1.209 1_545 S
C2544 C2517 1.486 . S
C2545 O2500 1.199 1_565 S
C2545 O2501 1.297 . S
C2545 C2529 1.476 . S
H2546 O2572 0.856 . S
H2547 O2575 0.854 . S
H2548 C2583 0.930 . S
H2549 C2584 0.930 . S
H2550 C2586 0.930 . S
H2551 C2587 0.930 . S
H2552 C2589 0.931 . S
H2553 C2590 0.930 . S
H2554 C2592 0.930 . S
H2555 C2593 0.929 . S
H2556 C2595 0.930 . S
H2557 C2596 0.931 . S
H2558 C2598 0.930 . S
H2559 C2599 0.929 . S
H2560 C2601 0.931 . S
H2561 C2602 0.930 . S
H2562 C2604 0.930 . S
H2563 C2605 0.932 . S
H2564 C2607 0.930 . S
H2565 C2608 0.929 . S
H2566 C2610 0.931 . S
H2567 C2611 0.930 . S
H2568 C2613 0.929 . S
H2569 C2614 0.931 . S
H2570 C2616 0.930 . S
H2571 C2617 0.929 . S
O2572 H2546 0.856 . S
O2572 C2618 1.300 . S
O2573 C2618 1.209 1_455 S
O2574 C2619 1.199 1_655 S
O2575 H2547 0.854 . S
O2575 C2619 1.297 . S
C2576 C2577 1.404 . S
C2576 C2581 1.398 . S
C2576 C2582 1.492 . S
C2577 C2576 1.404 . S
C2577 C2578 1.396 . S
C2577 C2588 1.492 . S
C2578 C2577 1.396 . S
C2578 C2579 1.396 . S
C2578 C2594 1.509 . S
C2579 C2578 1.396 . S
C2579 C2580 1.393 1_655 S
C2579 C2600 1.490 1_655 S
C2580 C2579 1.393 1_455 S
C2580 C2581 1.407 1_455 S
C2580 C2606 1.485 . S
C2581 C2576 1.398 . S
C2581 C2580 1.407 1_655 S
C2581 C2612 1.522 1_655 S
C2582 C2576 1.492 . S
C2582 C2583 1.363 . S
C2582 C2587 1.390 1_655 S
C2583 H2548 0.930 . S
C2583 C2582 1.363 . S
C2583 C2584 1.372 . S
C2584 H2549 0.930 . S
C2584 C2583 1.372 . S
C2584 C2585 1.383 . S
C2585 C2584 1.383 . S
C2585 C2586 1.395 1_655 S
C2586 H2550 0.930 . S
C2586 C2585 1.395 1_455 S
C2586 C2587 1.362 . S
C2587 H2551 0.930 . S
C2587 C2582 1.390 1_455 S
C2587 C2586 1.362 . S
C2588 C2577 1.492 . S
C2588 C2589 1.377 . S
C2588 C2593 1.397 1_655 S
C2589 H2552 0.931 . S
C2589 C2588 1.377 . S
C2589 C2590 1.376 . S
C2590 H2553 0.930 . S
C2590 C2589 1.376 . S
C2590 C2591 1.376 . S
C2591 C2590 1.376 . S
C2591 C2592 1.378 1_655 S
C2591 C2618 1.486 . S
C2592 H2554 0.930 . S
C2592 C2591 1.378 1_455 S
C2592 C2593 1.376 . S
C2593 H2555 0.929 . S
C2593 C2588 1.397 1_455 S
C2593 C2592 1.376 . S
C2594 C2578 1.509 . S
C2594 C2595 1.391 . S
C2594 C2599 1.386 1_655 S
C2595 H2556 0.930 . S
C2595 C2594 1.391 . S
C2595 C2596 1.375 . S
C2596 H2557 0.931 . S
C2596 C2595 1.375 . S
C2596 C2597 1.375 . S
C2597 C2596 1.375 . S
C2597 C2598 1.361 1_655 S
C2598 H2558 0.930 . S
C2598 C2597 1.361 1_455 S
C2598 C2599 1.399 . S
C2599 H2559 0.929 . S
C2599 C2594 1.386 1_455 S
C2599 C2598 1.399 . S
C2600 C2579 1.490 1_455 S
C2600 C2601 1.394 1_455 S
C2600 C2605 1.360 . S
C2601 H2560 0.931 . S
C2601 C2600 1.394 1_655 S
C2601 C2602 1.372 . S
C2602 H2561 0.930 . S
C2602 C2601 1.372 . S
C2602 C2603 1.397 1_655 S
C2603 C2602 1.397 1_455 S
C2603 C2604 1.390 . S
C2603 C2619 1.476 . S
C2604 H2562 0.930 . S
C2604 C2603 1.390 . S
C2604 C2605 1.366 . S
C2605 H2563 0.932 . S
C2605 C2600 1.360 . S
C2605 C2604 1.366 . S
C2606 C2580 1.485 . S
C2606 C2607 1.380 1_455 S
C2606 C2611 1.386 . S
C2607 H2564 0.930 . S
C2607 C2606 1.380 1_655 S
C2607 C2608 1.381 . S
C2608 H2565 0.929 . S
C2608 C2607 1.381 . S
C2608 C2609 1.371 1_655 S
C2609 C2608 1.371 1_455 S
C2609 C2610 1.380 . S
C2610 H2566 0.931 . S
C2610 C2609 1.380 . S
C2610 C2611 1.387 . S
C2611 H2567 0.930 . S
C2611 C2606 1.386 . S
C2611 C2610 1.387 . S
C2612 C2581 1.522 1_455 S
C2612 C2613 1.377 1_455 S
C2612 C2617 1.361 . S
C2613 H2568 0.929 . S
C2613 C2612 1.377 1_655 S
C2613 C2614 1.386 . S
C2614 H2569 0.931 . S
C2614 C2613 1.386 . S
C2614 C2615 1.363 1_655 S
C2615 C2614 1.363 1_455 S
C2615 C2616 1.385 . S
C2616 H2570 0.930 . S
C2616 C2615 1.385 . S
C2616 C2617 1.396 . S
C2617 H2571 0.929 . S
C2617 C2612 1.361 . S
C2617 C2616 1.396 . S
C2618 O2572 1.300 . S
C2618 O2573 1.209 1_655 S
C2618 C2591 1.486 . S
C2619 O2574 1.199 1_455 S
C2619 O2575 1.297 . S
C2619 C2603 1.476 . S
H2620 O2646 0.856 . S
H2621 O2649 0.854 . S
H2622 C2657 0.930 . S
H2623 C2658 0.930 . S
H2624 C2660 0.930 . S
H2625 C2661 0.930 . S
H2626 C2663 0.931 . S
H2627 C2664 0.930 . S
H2628 C2666 0.930 . S
H2629 C2667 0.929 . S
H2630 C2669 0.930 . S
H2631 C2670 0.931 . S
H2632 C2672 0.930 . S
H2633 C2673 0.929 . S
H2634 C2675 0.931 . S
H2635 C2676 0.930 . S
H2636 C2678 0.930 . S
H2637 C2679 0.932 . S
H2638 C2681 0.930 . S
H2639 C2682 0.929 . S
H2640 C2684 0.931 . S
H2641 C2685 0.930 . S
H2642 C2687 0.929 . S
H2643 C2688 0.931 . S
H2644 C2690 0.930 . S
H2645 C2691 0.929 . S
O2646 H2620 0.856 . S
O2646 C2692 1.300 . S
O2647 C2692 1.209 . S
O2648 C2693 1.199 . S
O2649 H2621 0.854 . S
O2649 C2693 1.297 . S
C2650 C2651 1.404 . S
C2650 C2655 1.397 . S
C2650 C2656 1.492 . S
C2651 C2650 1.404 . S
C2651 C2652 1.396 . S
C2651 C2662 1.492 . S
C2652 C2651 1.396 . S
C2652 C2653 1.397 . S
C2652 C2668 1.509 . S
C2653 C2652 1.397 . S
C2653 C2654 1.412 . S
C2653 C2674 1.485 . S
C2654 C2653 1.412 . S
C2654 C2655 1.388 . S
C2654 C2680 1.490 . S
C2655 C2650 1.397 . S
C2655 C2654 1.388 . S
C2655 C2686 1.519 . S
C2656 C2650 1.492 . S
C2656 C2657 1.363 . S
C2656 C2661 1.390 . S
C2657 H2622 0.930 . S
C2657 C2656 1.363 . S
C2657 C2658 1.372 . S
C2658 H2623 0.930 . S
C2658 C2657 1.372 . S
C2658 C2659 1.383 . S
C2659 C2658 1.383 . S
C2659 C2660 1.395 . S
C2660 H2624 0.930 . S
C2660 C2659 1.395 . S
C2660 C2661 1.362 . S
C2661 H2625 0.930 . S
C2661 C2656 1.390 . S
C2661 C2660 1.362 . S
C2662 C2651 1.492 . S
C2662 C2663 1.377 . S
C2662 C2667 1.397 . S
C2663 H2626 0.931 . S
C2663 C2662 1.377 . S
C2663 C2664 1.376 . S
C2664 H2627 0.930 . S
C2664 C2663 1.376 . S
C2664 C2665 1.376 . S
C2665 C2664 1.376 . S
C2665 C2666 1.378 . S
C2665 C2692 1.486 . S
C2666 H2628 0.930 . S
C2666 C2665 1.378 . S
C2666 C2667 1.376 . S
C2667 H2629 0.929 . S
C2667 C2662 1.397 . S
C2667 C2666 1.376 . S
C2668 C2652 1.509 . S
C2668 C2669 1.391 . S
C2668 C2673 1.386 . S
C2669 H2630 0.930 . S
C2669 C2668 1.391 . S
C2669 C2670 1.375 . S
C2670 H2631 0.931 . S
C2670 C2669 1.375 . S
C2670 C2671 1.375 . S
C2671 C2670 1.375 . S
C2671 C2672 1.361 . S
C2672 H2632 0.930 . S
C2672 C2671 1.361 . S
C2672 C2673 1.399 . S
C2673 H2633 0.929 . S
C2673 C2668 1.386 . S
C2673 C2672 1.399 . S
C2674 C2653 1.485 . S
C2674 C2675 1.394 . S
C2674 C2679 1.360 . S
C2675 H2634 0.931 . S
C2675 C2674 1.394 . S
C2675 C2676 1.372 . S
C2676 H2635 0.930 . S
C2676 C2675 1.372 . S
C2676 C2677 1.397 . S
C2677 C2676 1.397 . S
C2677 C2678 1.390 . S
C2677 C2693 1.476 . S
C2678 H2636 0.930 . S
C2678 C2677 1.390 . S
C2678 C2679 1.366 . S
C2679 H2637 0.932 . S
C2679 C2674 1.360 . S
C2679 C2678 1.366 . S
C2680 C2654 1.490 . S
C2680 C2681 1.380 . S
C2680 C2685 1.386 . S
C2681 H2638 0.930 . S
C2681 C2680 1.380 . S
C2681 C2682 1.381 . S
C2682 H2639 0.929 . S
C2682 C2681 1.381 . S
C2682 C2683 1.371 . S
C2683 C2682 1.371 . S
C2683 C2684 1.380 . S
C2684 H2640 0.931 . S
C2684 C2683 1.380 . S
C2684 C2685 1.387 . S
C2685 H2641 0.930 . S
C2685 C2680 1.386 . S
C2685 C2684 1.387 . S
C2686 C2655 1.519 . S
C2686 C2687 1.377 . S
C2686 C2691 1.361 . S
C2687 H2642 0.929 . S
C2687 C2686 1.377 . S
C2687 C2688 1.386 . S
C2688 H2643 0.931 . S
C2688 C2687 1.386 . S
C2688 C2689 1.363 . S
C2689 C2688 1.363 . S
C2689 C2690 1.385 . S
C2690 H2644 0.930 . S
C2690 C2689 1.385 . S
C2690 C2691 1.396 . S
C2691 H2645 0.929 . S
C2691 C2686 1.361 . S
C2691 C2690 1.396 . S
C2692 O2646 1.300 . S
C2692 O2647 1.209 . S
C2692 C2665 1.486 . S
C2693 O2648 1.199 . S
C2693 O2649 1.297 . S
C2693 C2677 1.476 . S
H2694 O2720 0.856 . S
H2695 O2723 0.854 . S
H2696 C2731 0.930 . S
H2697 C2732 0.930 . S
H2698 C2734 0.930 . S
H2699 C2735 0.930 . S
H2700 C2737 0.931 . S
H2701 C2738 0.930 . S
H2702 C2740 0.930 . S
H2703 C2741 0.929 . S
H2704 C2743 0.930 . S
H2705 C2744 0.931 . S
H2706 C2746 0.930 . S
H2707 C2747 0.929 . S
H2708 C2749 0.931 . S
H2709 C2750 0.930 . S
H2710 C2752 0.930 . S
H2711 C2753 0.932 . S
H2712 C2755 0.930 . S
H2713 C2756 0.929 . S
H2714 C2758 0.931 . S
H2715 C2759 0.930 . S
H2716 C2761 0.929 . S
H2717 C2762 0.931 . S
H2718 C2764 0.930 . S
H2719 C2765 0.929 . S
O2720 H2694 0.856 . S
O2720 C2766 1.300 . S
O2721 C2766 1.209 . S
O2722 C2767 1.199 . S
O2723 H2695 0.854 . S
O2723 C2767 1.297 . S
C2724 C2725 1.404 . S
C2724 C2729 1.397 . S
C2724 C2730 1.492 . S
C2725 C2724 1.404 . S
C2725 C2726 1.396 . S
C2725 C2736 1.492 . S
C2726 C2725 1.396 . S
C2726 C2727 1.397 . S
C2726 C2742 1.509 . S
C2727 C2726 1.397 . S
C2727 C2728 1.412 . S
C2727 C2748 1.485 . S
C2728 C2727 1.412 . S
C2728 C2729 1.388 . S
C2728 C2754 1.490 . S
C2729 C2724 1.397 . S
C2729 C2728 1.388 . S
C2729 C2760 1.519 . S
C2730 C2724 1.492 . S
C2730 C2731 1.363 . S
C2730 C2735 1.390 . S
C2731 H2696 0.930 . S
C2731 C2730 1.363 . S
C2731 C2732 1.372 . S
C2732 H2697 0.930 . S
C2732 C2731 1.372 . S
C2732 C2733 1.383 . S
C2733 C2732 1.383 . S
C2733 C2734 1.395 . S
C2734 H2698 0.930 . S
C2734 C2733 1.395 . S
C2734 C2735 1.362 . S
C2735 H2699 0.930 . S
C2735 C2730 1.390 . S
C2735 C2734 1.362 . S
C2736 C2725 1.492 . S
C2736 C2737 1.377 . S
C2736 C2741 1.397 . S
C2737 H2700 0.931 . S
C2737 C2736 1.377 . S
C2737 C2738 1.376 . S
C2738 H2701 0.930 . S
C2738 C2737 1.376 . S
C2738 C2739 1.376 . S
C2739 C2738 1.376 . S
C2739 C2740 1.378 . S
C2739 C2766 1.486 . S
C2740 H2702 0.930 . S
C2740 C2739 1.378 . S
C2740 C2741 1.376 . S
C2741 H2703 0.929 . S
C2741 C2736 1.397 . S
C2741 C2740 1.376 . S
C2742 C2726 1.509 . S
C2742 C2743 1.391 . S
C2742 C2747 1.386 . S
C2743 H2704 0.930 . S
C2743 C2742 1.391 . S
C2743 C2744 1.375 . S
C2744 H2705 0.931 . S
C2744 C2743 1.375 . S
C2744 C2745 1.375 . S
C2745 C2744 1.375 . S
C2745 C2746 1.361 . S
C2746 H2706 0.930 . S
C2746 C2745 1.361 . S
C2746 C2747 1.399 . S
C2747 H2707 0.929 . S
C2747 C2742 1.386 . S
C2747 C2746 1.399 . S
C2748 C2727 1.485 . S
C2748 C2749 1.394 . S
C2748 C2753 1.360 . S
C2749 H2708 0.931 . S
C2749 C2748 1.394 . S
C2749 C2750 1.372 . S
C2750 H2709 0.930 . S
C2750 C2749 1.372 . S
C2750 C2751 1.397 . S
C2751 C2750 1.397 . S
C2751 C2752 1.390 . S
C2751 C2767 1.476 . S
C2752 H2710 0.930 . S
C2752 C2751 1.390 . S
C2752 C2753 1.366 . S
C2753 H2711 0.932 . S
C2753 C2748 1.360 . S
C2753 C2752 1.366 . S
C2754 C2728 1.490 . S
C2754 C2755 1.380 . S
C2754 C2759 1.386 . S
C2755 H2712 0.930 . S
C2755 C2754 1.380 . S
C2755 C2756 1.381 . S
C2756 H2713 0.929 . S
C2756 C2755 1.381 . S
C2756 C2757 1.371 . S
C2757 C2756 1.371 . S
C2757 C2758 1.380 . S
C2758 H2714 0.931 . S
C2758 C2757 1.380 . S
C2758 C2759 1.387 . S
C2759 H2715 0.930 . S
C2759 C2754 1.386 . S
C2759 C2758 1.387 . S
C2760 C2729 1.519 . S
C2760 C2761 1.377 . S
C2760 C2765 1.361 . S
C2761 H2716 0.929 . S
C2761 C2760 1.377 . S
C2761 C2762 1.386 . S
C2762 H2717 0.931 . S
C2762 C2761 1.386 . S
C2762 C2763 1.363 . S
C2763 C2762 1.363 . S
C2763 C2764 1.385 . S
C2764 H2718 0.930 . S
C2764 C2763 1.385 . S
C2764 C2765 1.396 . S
C2765 H2719 0.929 . S
C2765 C2760 1.361 . S
C2765 C2764 1.396 . S
C2766 O2720 1.300 . S
C2766 O2721 1.209 . S
C2766 C2739 1.486 . S
C2767 O2722 1.199 . S
C2767 O2723 1.297 . S
C2767 C2751 1.476 . S
H2768 O2794 0.856 . S
H2769 O2797 0.854 . S
H2770 C2805 0.930 . S
H2771 C2806 0.930 . S
H2772 C2808 0.930 . S
H2773 C2809 0.930 . S
H2774 C2811 0.931 . S
H2775 C2812 0.930 . S
H2776 C2814 0.930 . S
H2777 C2815 0.929 . S
H2778 C2817 0.930 . S
H2779 C2818 0.931 . S
H2780 C2820 0.930 . S
H2781 C2821 0.929 . S
H2782 C2823 0.931 . S
H2783 C2824 0.930 . S
H2784 C2826 0.930 . S
H2785 C2827 0.932 . S
H2786 C2829 0.930 . S
H2787 C2830 0.929 . S
H2788 C2832 0.931 . S
H2789 C2833 0.930 . S
H2790 C2835 0.929 . S
H2791 C2836 0.931 . S
H2792 C2838 0.930 . S
H2793 C2839 0.929 . S
O2794 H2768 0.856 . S
O2794 C2840 1.300 . S
O2795 C2840 1.209 . S
O2796 C2841 1.199 . S
O2797 H2769 0.854 . S
O2797 C2841 1.297 . S
C2798 C2799 1.404 . S
C2798 C2803 1.397 . S
C2798 C2804 1.492 . S
C2799 C2798 1.404 . S
C2799 C2800 1.396 . S
C2799 C2810 1.492 . S
C2800 C2799 1.396 . S
C2800 C2801 1.397 . S
C2800 C2816 1.509 . S
C2801 C2800 1.397 . S
C2801 C2802 1.412 . S
C2801 C2822 1.485 . S
C2802 C2801 1.412 . S
C2802 C2803 1.388 . S
C2802 C2828 1.490 . S
C2803 C2798 1.397 . S
C2803 C2802 1.388 . S
C2803 C2834 1.519 . S
C2804 C2798 1.492 . S
C2804 C2805 1.363 . S
C2804 C2809 1.390 . S
C2805 H2770 0.930 . S
C2805 C2804 1.363 . S
C2805 C2806 1.372 . S
C2806 H2771 0.930 . S
C2806 C2805 1.372 . S
C2806 C2807 1.383 . S
C2807 C2806 1.383 . S
C2807 C2808 1.395 . S
C2808 H2772 0.930 . S
C2808 C2807 1.395 . S
C2808 C2809 1.362 . S
C2809 H2773 0.930 . S
C2809 C2804 1.390 . S
C2809 C2808 1.362 . S
C2810 C2799 1.492 . S
C2810 C2811 1.377 . S
C2810 C2815 1.397 . S
C2811 H2774 0.931 . S
C2811 C2810 1.377 . S
C2811 C2812 1.376 . S
C2812 H2775 0.930 . S
C2812 C2811 1.376 . S
C2812 C2813 1.376 . S
C2813 C2812 1.376 . S
C2813 C2814 1.378 . S
C2813 C2840 1.486 . S
C2814 H2776 0.930 . S
C2814 C2813 1.378 . S
C2814 C2815 1.376 . S
C2815 H2777 0.929 . S
C2815 C2810 1.397 . S
C2815 C2814 1.376 . S
C2816 C2800 1.509 . S
C2816 C2817 1.391 . S
C2816 C2821 1.386 . S
C2817 H2778 0.930 . S
C2817 C2816 1.391 . S
C2817 C2818 1.375 . S
C2818 H2779 0.931 . S
C2818 C2817 1.375 . S
C2818 C2819 1.375 . S
C2819 C2818 1.375 . S
C2819 C2820 1.361 . S
C2820 H2780 0.930 . S
C2820 C2819 1.361 . S
C2820 C2821 1.399 . S
C2821 H2781 0.929 . S
C2821 C2816 1.386 . S
C2821 C2820 1.399 . S
C2822 C2801 1.485 . S
C2822 C2823 1.394 . S
C2822 C2827 1.360 . S
C2823 H2782 0.931 . S
C2823 C2822 1.394 . S
C2823 C2824 1.372 . S
C2824 H2783 0.930 . S
C2824 C2823 1.372 . S
C2824 C2825 1.397 . S
C2825 C2824 1.397 . S
C2825 C2826 1.390 . S
C2825 C2841 1.476 . S
C2826 H2784 0.930 . S
C2826 C2825 1.390 . S
C2826 C2827 1.366 . S
C2827 H2785 0.932 . S
C2827 C2822 1.360 . S
C2827 C2826 1.366 . S
C2828 C2802 1.490 . S
C2828 C2829 1.380 . S
C2828 C2833 1.386 . S
C2829 H2786 0.930 . S
C2829 C2828 1.380 . S
C2829 C2830 1.381 . S
C2830 H2787 0.929 . S
C2830 C2829 1.381 . S
C2830 C2831 1.371 . S
C2831 C2830 1.371 . S
C2831 C2832 1.380 . S
C2832 H2788 0.931 . S
C2832 C2831 1.380 . S
C2832 C2833 1.387 . S
C2833 H2789 0.930 . S
C2833 C2828 1.386 . S
C2833 C2832 1.387 . S
C2834 C2803 1.519 . S
C2834 C2835 1.377 . S
C2834 C2839 1.361 . S
C2835 H2790 0.929 . S
C2835 C2834 1.377 . S
C2835 C2836 1.386 . S
C2836 H2791 0.931 . S
C2836 C2835 1.386 . S
C2836 C2837 1.363 . S
C2837 C2836 1.363 . S
C2837 C2838 1.385 . S
C2838 H2792 0.930 . S
C2838 C2837 1.385 . S
C2838 C2839 1.396 . S
C2839 H2793 0.929 . S
C2839 C2834 1.361 . S
C2839 C2838 1.396 . S
C2840 O2794 1.300 . S
C2840 O2795 1.209 . S
C2840 C2813 1.486 . S
C2841 O2796 1.199 . S
C2841 O2797 1.297 . S
C2841 C2825 1.476 . S
H2842 O2868 0.856 . S
H2843 O2871 0.854 . S
H2844 C2879 0.930 . S
H2845 C2880 0.930 . S
H2846 C2882 0.930 . S
H2847 C2883 0.930 . S
H2848 C2885 0.931 . S
H2849 C2886 0.930 . S
H2850 C2888 0.930 . S
H2851 C2889 0.929 . S
H2852 C2891 0.930 . S
H2853 C2892 0.931 . S
H2854 C2894 0.930 . S
H2855 C2895 0.929 . S
H2856 C2897 0.931 . S
H2857 C2898 0.930 . S
H2858 C2900 0.930 . S
H2859 C2901 0.932 . S
H2860 C2903 0.930 . S
H2861 C2904 0.929 . S
H2862 C2906 0.931 . S
H2863 C2907 0.930 . S
H2864 C2909 0.929 . S
H2865 C2910 0.931 . S
H2866 C2912 0.930 . S
H2867 C2913 0.929 . S
O2868 H2842 0.856 . S
O2868 C2914 1.300 . S
O2869 C2914 1.209 . S
O2870 C2915 1.199 . S
O2871 H2843 0.854 . S
O2871 C2915 1.297 . S
C2872 C2873 1.404 . S
C2872 C2877 1.397 . S
C2872 C2878 1.492 . S
C2873 C2872 1.404 . S
C2873 C2874 1.396 . S
C2873 C2884 1.492 . S
C2874 C2873 1.396 . S
C2874 C2875 1.397 . S
C2874 C2890 1.509 . S
C2875 C2874 1.397 . S
C2875 C2876 1.412 . S
C2875 C2896 1.485 . S
C2876 C2875 1.412 . S
C2876 C2877 1.388 . S
C2876 C2902 1.490 . S
C2877 C2872 1.397 . S
C2877 C2876 1.388 . S
C2877 C2908 1.519 . S
C2878 C2872 1.492 . S
C2878 C2879 1.363 . S
C2878 C2883 1.390 . S
C2879 H2844 0.930 . S
C2879 C2878 1.363 . S
C2879 C2880 1.372 . S
C2880 H2845 0.930 . S
C2880 C2879 1.372 . S
C2880 C2881 1.383 . S
C2881 C2880 1.383 . S
C2881 C2882 1.395 . S
C2882 H2846 0.930 . S
C2882 C2881 1.395 . S
C2882 C2883 1.362 . S
C2883 H2847 0.930 . S
C2883 C2878 1.390 . S
C2883 C2882 1.362 . S
C2884 C2873 1.492 . S
C2884 C2885 1.377 . S
C2884 C2889 1.397 . S
C2885 H2848 0.931 . S
C2885 C2884 1.377 . S
C2885 C2886 1.376 . S
C2886 H2849 0.930 . S
C2886 C2885 1.376 . S
C2886 C2887 1.376 . S
C2887 C2886 1.376 . S
C2887 C2888 1.378 . S
C2887 C2914 1.486 . S
C2888 H2850 0.930 . S
C2888 C2887 1.378 . S
C2888 C2889 1.376 . S
C2889 H2851 0.929 . S
C2889 C2884 1.397 . S
C2889 C2888 1.376 . S
C2890 C2874 1.509 . S
C2890 C2891 1.391 . S
C2890 C2895 1.386 . S
C2891 H2852 0.930 . S
C2891 C2890 1.391 . S
C2891 C2892 1.375 . S
C2892 H2853 0.931 . S
C2892 C2891 1.375 . S
C2892 C2893 1.375 . S
C2893 C2892 1.375 . S
C2893 C2894 1.361 . S
C2894 H2854 0.930 . S
C2894 C2893 1.361 . S
C2894 C2895 1.399 . S
C2895 H2855 0.929 . S
C2895 C2890 1.386 . S
C2895 C2894 1.399 . S
C2896 C2875 1.485 . S
C2896 C2897 1.394 . S
C2896 C2901 1.360 . S
C2897 H2856 0.931 . S
C2897 C2896 1.394 . S
C2897 C2898 1.372 . S
C2898 H2857 0.930 . S
C2898 C2897 1.372 . S
C2898 C2899 1.397 . S
C2899 C2898 1.397 . S
C2899 C2900 1.390 . S
C2899 C2915 1.476 . S
C2900 H2858 0.930 . S
C2900 C2899 1.390 . S
C2900 C2901 1.366 . S
C2901 H2859 0.932 . S
C2901 C2896 1.360 . S
C2901 C2900 1.366 . S
C2902 C2876 1.490 . S
C2902 C2903 1.380 . S
C2902 C2907 1.386 . S
C2903 H2860 0.930 . S
C2903 C2902 1.380 . S
C2903 C2904 1.381 . S
C2904 H2861 0.929 . S
C2904 C2903 1.381 . S
C2904 C2905 1.371 . S
C2905 C2904 1.371 . S
C2905 C2906 1.380 . S
C2906 H2862 0.931 . S
C2906 C2905 1.380 . S
C2906 C2907 1.387 . S
C2907 H2863 0.930 . S
C2907 C2902 1.386 . S
C2907 C2906 1.387 . S
C2908 C2877 1.519 . S
C2908 C2909 1.377 . S
C2908 C2913 1.361 . S
C2909 H2864 0.929 . S
C2909 C2908 1.377 . S
C2909 C2910 1.386 . S
C2910 H2865 0.931 . S
C2910 C2909 1.386 . S
C2910 C2911 1.363 . S
C2911 C2910 1.363 . S
C2911 C2912 1.385 . S
C2912 H2866 0.930 . S
C2912 C2911 1.385 . S
C2912 C2913 1.396 . S
C2913 H2867 0.929 . S
C2913 C2908 1.361 . S
C2913 C2912 1.396 . S
C2914 O2868 1.300 . S
C2914 O2869 1.209 . S
C2914 C2887 1.486 . S
C2915 O2870 1.199 . S
C2915 O2871 1.297 . S
C2915 C2899 1.476 . S
C2916 C2917 1.369 . S
C2916 C2918 1.419 . S
C2916 H2920 0.930 . S
C2917 C2916 1.369 . S
C2917 C2926 1.429 . S
C2918 C2916 1.419 . S
C2918 C2919 1.363 . S
C2918 H2921 0.929 1_655 S
C2919 C2918 1.363 . S
C2919 C2925 1.428 . S
H2920 C2916 0.930 . S
H2921 C2918 0.929 1_455 S
S2922 N2923 1.613 . S
S2922 N2924 1.610 . S
N2923 S2922 1.613 . S
N2923 C2926 1.350 . S
N2924 S2922 1.610 . S
N2924 C2925 1.351 . S
C2925 C2919 1.428 . S
C2925 N2924 1.351 . S
C2925 C2926 1.434 . S
C2926 C2917 1.429 . S
C2926 N2923 1.350 . S
C2926 C2925 1.434 . S
C2927 C2928 1.369 . S
C2927 C2929 1.419 . S
C2927 H2931 0.930 . S
C2928 C2927 1.369 . S
C2928 C2937 1.429 . S
C2929 C2927 1.419 . S
C2929 C2930 1.363 . S
C2929 H2932 0.929 . S
C2930 C2929 1.363 . S
C2930 C2936 1.428 . S
H2931 C2927 0.930 . S
H2932 C2929 0.929 . S
S2933 N2934 1.613 . S
S2933 N2935 1.610 . S
N2934 S2933 1.613 . S
N2934 C2937 1.350 . S
N2935 S2933 1.610 . S
N2935 C2936 1.351 . S
C2936 C2930 1.428 . S
C2936 N2935 1.351 . S
C2936 C2937 1.434 . S
C2937 C2928 1.429 . S
C2937 N2934 1.350 . S
C2937 C2936 1.434 . S
C2938 C2939 1.369 . S
C2938 C2940 1.419 . S
C2938 H2942 0.930 . S
C2939 C2938 1.369 . S
C2939 C2948 1.429 . S
C2940 C2938 1.419 . S
C2940 C2941 1.363 . S
C2940 H2943 0.929 . S
C2941 C2940 1.363 . S
C2941 C2947 1.428 . S
H2942 C2938 0.930 . S
H2943 C2940 0.929 . S
S2944 N2945 1.613 . S
S2944 N2946 1.610 . S
N2945 S2944 1.613 . S
N2945 C2948 1.350 1_565 S
N2946 S2944 1.610 . S
N2946 C2947 1.351 1_565 S
C2947 C2941 1.428 . S
C2947 N2946 1.351 1_545 S
C2947 C2948 1.434 . S
C2948 C2939 1.429 . S
C2948 N2945 1.350 1_545 S
C2948 C2947 1.434 . S
C2949 C2950 1.369 . S
C2949 C2951 1.419 . S
C2949 H2953 0.930 . S
C2950 C2949 1.369 . S
C2950 C2959 1.429 . S
C2951 C2949 1.419 . S
C2951 C2952 1.363 . S
C2951 H2954 0.929 . S
C2952 C2951 1.363 . S
C2952 C2958 1.428 . S
H2953 C2949 0.930 . S
H2954 C2951 0.929 . S
S2955 N2956 1.614 1_545 S
S2955 N2957 1.610 . S
N2956 S2955 1.614 1_565 S
N2956 C2959 1.348 . S
N2957 S2955 1.610 . S
N2957 C2958 1.351 1_545 S
C2958 C2952 1.428 . S
C2958 N2957 1.351 1_565 S
C2958 C2959 1.434 . S
C2959 C2950 1.429 . S
C2959 N2956 1.348 . S
C2959 C2958 1.434 . S
C2960 C2961 1.369 . S
C2960 C2962 1.419 . S
C2960 H2964 0.930 . S
C2961 C2960 1.369 . S
C2961 C2970 1.429 . S
C2962 C2960 1.419 . S
C2962 C2963 1.363 . S
C2962 H2965 0.929 . S
C2963 C2962 1.363 . S
C2963 C2969 1.428 . S
H2964 C2960 0.930 . S
H2965 C2962 0.929 . S
S2966 N2967 1.613 . S
S2966 N2968 1.610 . S
N2967 S2966 1.613 . S
N2967 C2970 1.350 . S
N2968 S2966 1.610 . S
N2968 C2969 1.351 . S
C2969 C2963 1.428 . S
C2969 N2968 1.351 . S
C2969 C2970 1.434 . S
C2970 C2961 1.429 . S
C2970 N2967 1.350 . S
C2970 C2969 1.434 . S
C2971 C2972 1.369 . S
C2971 C2973 1.419 . S
C2971 H2975 0.930 . S
C2972 C2971 1.369 . S
C2972 C2981 1.429 . S
C2973 C2971 1.419 . S
C2973 C2974 1.363 . S
C2973 H2976 0.929 . S
C2974 C2973 1.363 . S
C2974 C2980 1.428 . S
H2975 C2971 0.930 . S
H2976 C2973 0.929 . S
S2977 N2978 1.613 . S
S2977 N2979 1.610 . S
N2978 S2977 1.613 . S
N2978 C2981 1.350 . S
N2979 S2977 1.610 . S
N2979 C2980 1.351 . S
C2980 C2974 1.428 . S
C2980 N2979 1.351 . S
C2980 C2981 1.434 . S
C2981 C2972 1.429 . S
C2981 N2978 1.350 . S
C2981 C2980 1.434 . S
C2982 C2983 1.369 . S
C2982 C2984 1.419 1_455 S
C2982 H2986 0.930 1_455 S
C2983 C2982 1.369 . S
C2983 C2992 1.429 . S
C2984 C2982 1.419 1_655 S
C2984 C2985 1.363 1_655 S
C2984 H2987 0.929 . S
C2985 C2984 1.363 1_455 S
C2985 C2991 1.428 . S
H2986 C2982 0.930 1_655 S
H2987 C2984 0.929 . S
S2988 N2989 1.613 . S
S2988 N2990 1.610 . S
N2989 S2988 1.613 . S
N2989 C2992 1.350 . S
N2990 S2988 1.610 . S
N2990 C2991 1.351 . S
C2991 C2985 1.428 . S
C2991 N2990 1.351 . S
C2991 C2992 1.434 . S
C2992 C2983 1.429 . S
C2992 N2989 1.350 . S
C2992 C2991 1.434 . S
C2993 C2994 1.369 . S
C2993 C2995 1.419 . S
C2993 H2997 0.930 . S
C2994 C2993 1.369 . S
C2994 C3003 1.429 . S
C2995 C2993 1.419 . S
C2995 C2996 1.363 . S
C2995 H2998 0.929 . S
C2996 C2995 1.363 . S
C2996 C3002 1.428 . S
H2997 C2993 0.930 . S
H2998 C2995 0.929 . S
S2999 N3000 1.613 . S
S2999 N3001 1.610 . S
N3000 S2999 1.613 . S
N3000 C3003 1.350 . S
N3001 S2999 1.610 . S
N3001 C3002 1.351 . S
C3002 C2996 1.428 . S
C3002 N3001 1.351 . S
C3002 C3003 1.434 . S
C3003 C2994 1.429 . S
C3003 N3000 1.350 . S
C3003 C3002 1.434 . S
C3004 C3005 1.369 . S
C3004 C3006 1.419 1_565 S
C3004 H3008 0.927 . S
C3005 C3004 1.369 . S
C3005 C3014 1.429 . S
C3006 C3004 1.419 1_545 S
C3006 C3007 1.363 1_545 S
C3006 H3009 0.929 . S
C3007 C3006 1.363 1_565 S
C3007 C3013 1.428 . S
H3008 C3004 0.927 . S
H3009 C3006 0.929 . S
S3010 N3011 1.613 . S
S3010 N3012 1.610 . S
N3011 S3010 1.613 . S
N3011 C3014 1.350 . S
N3012 S3010 1.610 . S
N3012 C3013 1.351 . S
C3013 C3007 1.428 . S
C3013 N3012 1.351 . S
C3013 C3014 1.434 . S
C3014 C3005 1.429 . S
C3014 N3011 1.350 . S
C3014 C3013 1.434 . S
C3015 C3016 1.369 . S
C3015 C3017 1.419 . S
C3015 H3019 0.930 . S
C3016 C3015 1.369 . S
C3016 C3025 1.429 . S
C3017 C3015 1.419 . S
C3017 C3018 1.363 . S
C3017 H3020 0.929 . S
C3018 C3017 1.363 . S
C3018 C3024 1.428 . S
H3019 C3015 0.930 . S
H3020 C3017 0.929 . S
S3021 N3022 1.613 . S
S3021 N3023 1.610 . S
N3022 S3021 1.613 . S
N3022 C3025 1.350 . S
N3023 S3021 1.610 . S
N3023 C3024 1.351 . S
C3024 C3018 1.428 . S
C3024 N3023 1.351 . S
C3024 C3025 1.434 . S
C3025 C3016 1.429 . S
C3025 N3022 1.350 . S
C3025 C3024 1.434 . S
C3026 C3027 1.369 . S
C3026 C3028 1.419 1_655 S
C3026 H3030 0.930 1_655 S
C3027 C3026 1.369 . S
C3027 C3036 1.429 . S
C3028 C3026 1.419 1_455 S
C3028 C3029 1.363 1_455 S
C3028 H3031 0.929 . S
C3029 C3028 1.363 1_655 S
C3029 C3035 1.428 . S
H3030 C3026 0.930 1_455 S
H3031 C3028 0.929 . S
S3032 N3033 1.613 . S
S3032 N3034 1.610 . S
N3033 S3032 1.613 . S
N3033 C3036 1.350 . S
N3034 S3032 1.610 . S
N3034 C3035 1.351 . S
C3035 C3029 1.428 . S
C3035 N3034 1.351 . S
C3035 C3036 1.434 . S
C3036 C3027 1.429 . S
C3036 N3033 1.350 . S
C3036 C3035 1.434 . S
C3037 C3038 1.369 . S
C3037 C3039 1.419 . S
C3037 H3041 0.930 . S
C3038 C3037 1.369 . S
C3038 C3047 1.429 . S
C3039 C3037 1.419 . S
C3039 C3040 1.363 . S
C3039 H3042 0.929 . S
C3040 C3039 1.363 . S
C3040 C3046 1.428 . S
H3041 C3037 0.930 . S
H3042 C3039 0.929 . S
S3043 N3044 1.613 . S
S3043 N3045 1.610 . S
N3044 S3043 1.613 . S
N3044 C3047 1.350 . S
N3045 S3043 1.610 . S
N3045 C3046 1.351 . S
C3046 C3040 1.428 . S
C3046 N3045 1.351 . S
C3046 C3047 1.434 . S
C3047 C3038 1.429 . S
C3047 N3044 1.350 . S
C3047 C3046 1.434 . S
C3048 C3049 1.369 . S
C3048 C3050 1.419 . S
C3048 H3052 0.930 . S
C3049 C3048 1.369 . S
C3049 C3058 1.429 . S
C3050 C3048 1.419 . S
C3050 C3051 1.363 . S
C3050 H3053 0.929 . S
C3051 C3050 1.363 . S
C3051 C3057 1.428 . S
H3052 C3048 0.930 . S
H3053 C3050 0.929 . S
S3054 N3055 1.613 . S
S3054 N3056 1.610 . S
N3055 S3054 1.613 . S
N3055 C3058 1.350 . S
N3056 S3054 1.610 . S
N3056 C3057 1.351 . S
C3057 C3051 1.428 . S
C3057 N3056 1.351 . S
C3057 C3058 1.434 . S
C3058 C3049 1.429 . S
C3058 N3055 1.350 . S
C3058 C3057 1.434 . S
C3059 C3060 1.369 . S
C3059 C3061 1.419 . S
C3059 H3063 0.930 . S
C3060 C3059 1.369 . S
C3060 C3069 1.429 . S
C3061 C3059 1.419 . S
C3061 C3062 1.363 . S
C3061 H3064 0.929 . S
C3062 C3061 1.363 . S
C3062 C3068 1.428 . S
H3063 C3059 0.930 . S
H3064 C3061 0.929 . S
S3065 N3066 1.613 . S
S3065 N3067 1.610 . S
N3066 S3065 1.613 . S
N3066 C3069 1.350 . S
N3067 S3065 1.610 . S
N3067 C3068 1.351 . S
C3068 C3062 1.428 . S
C3068 N3067 1.351 . S
C3068 C3069 1.434 . S
C3069 C3060 1.429 . S
C3069 N3066 1.350 . S
C3069 C3068 1.434 . S
C3070 C3071 1.369 . S
C3070 C3072 1.419 . S
C3070 H3074 0.930 . S
C3071 C3070 1.369 . S
C3071 C3080 1.429 . S
C3072 C3070 1.419 . S
C3072 C3073 1.363 . S
C3072 H3075 0.929 . S
C3073 C3072 1.363 . S
C3073 C3079 1.428 . S
H3074 C3070 0.930 . S
H3075 C3072 0.929 . S
S3076 N3077 1.613 . S
S3076 N3078 1.610 . S
N3077 S3076 1.613 . S
N3077 C3080 1.350 . S
N3078 S3076 1.610 . S
N3078 C3079 1.351 . S
C3079 C3073 1.428 . S
C3079 N3078 1.351 . S
C3079 C3080 1.434 . S
C3080 C3071 1.429 . S
C3080 N3077 1.350 . S
C3080 C3079 1.434 . S
C3081 C3082 1.369 . S
C3081 C3083 1.419 . S
C3081 H3085 0.930 . S
C3082 C3081 1.369 . S
C3082 C3091 1.429 . S
C3083 C3081 1.419 . S
C3083 C3084 1.363 . S
C3083 H3086 0.929 . S
C3084 C3083 1.363 . S
C3084 C3090 1.428 . S
H3085 C3081 0.930 . S
H3086 C3083 0.929 . S
S3087 N3088 1.613 . S
S3087 N3089 1.610 . S
N3088 S3087 1.613 . S
N3088 C3091 1.350 . S
N3089 S3087 1.610 . S
N3089 C3090 1.351 . S
C3090 C3084 1.428 . S
C3090 N3089 1.351 . S
C3090 C3091 1.434 . S
C3091 C3082 1.429 . S
C3091 N3088 1.350 . S
C3091 C3090 1.434 . S
C3092 C3093 1.369 . S
C3092 C3094 1.419 . S
C3092 H3096 0.930 . S
C3093 C3092 1.369 . S
C3093 C3102 1.429 . S
C3094 C3092 1.419 . S
C3094 C3095 1.363 . S
C3094 H3097 0.929 . S
C3095 C3094 1.363 . S
C3095 C3101 1.428 . S
H3096 C3092 0.930 . S
H3097 C3094 0.929 . S
S3098 N3099 1.613 . S
S3098 N3100 1.610 . S
N3099 S3098 1.613 . S
N3099 C3102 1.350 . S
N3100 S3098 1.610 . S
N3100 C3101 1.351 . S
C3101 C3095 1.428 . S
C3101 N3100 1.351 . S
C3101 C3102 1.434 . S
C3102 C3093 1.429 . S
C3102 N3099 1.350 . S
C3102 C3101 1.434 . S
C3103 C3104 1.369 . S
C3103 C3105 1.419 . S
C3103 H3107 0.930 . S
C3104 C3103 1.369 . S
C3104 C3113 1.429 . S
C3105 C3103 1.419 . S
C3105 C3106 1.363 . S
C3105 H3108 0.929 . S
C3106 C3105 1.363 . S
C3106 C3112 1.428 . S
H3107 C3103 0.930 . S
H3108 C3105 0.929 . S
S3109 N3110 1.613 . S
S3109 N3111 1.610 . S
N3110 S3109 1.613 . S
N3110 C3113 1.350 . S
N3111 S3109 1.610 . S
N3111 C3112 1.351 . S
C3112 C3106 1.428 . S
C3112 N3111 1.351 . S
C3112 C3113 1.434 . S
C3113 C3104 1.429 . S
C3113 N3110 1.350 . S
C3113 C3112 1.434 . S
C3114 C3115 1.369 . S
C3114 C3116 1.419 . S
C3114 H3118 0.930 . S
C3115 C3114 1.369 . S
C3115 C3124 1.429 . S
C3116 C3114 1.419 . S
C3116 C3117 1.363 . S
C3116 H3119 0.929 . S
C3117 C3116 1.363 . S
C3117 C3123 1.428 . S
H3118 C3114 0.930 . S
H3119 C3116 0.929 . S
S3120 N3121 1.613 . S
S3120 N3122 1.610 . S
N3121 S3120 1.613 . S
N3121 C3124 1.350 . S
N3122 S3120 1.610 . S
N3122 C3123 1.351 . S
C3123 C3117 1.428 . S
C3123 N3122 1.351 . S
C3123 C3124 1.434 . S
C3124 C3115 1.429 . S
C3124 N3121 1.350 . S
C3124 C3123 1.434 . S
C3125 C3126 1.369 . S
C3125 C3127 1.419 . S
C3125 H3129 0.930 . S
C3126 C3125 1.369 . S
C3126 C3135 1.429 . S
C3127 C3125 1.419 . S
C3127 C3128 1.363 . S
C3127 H3130 0.929 . S
C3128 C3127 1.363 . S
C3128 C3134 1.428 . S
H3129 C3125 0.930 . S
H3130 C3127 0.929 . S
S3131 N3132 1.613 . S
S3131 N3133 1.610 . S
N3132 S3131 1.613 . S
N3132 C3135 1.350 . S
N3133 S3131 1.610 . S
N3133 C3134 1.351 . S
C3134 C3128 1.428 . S
C3134 N3133 1.351 . S
C3134 C3135 1.434 . S
C3135 C3126 1.429 . S
C3135 N3132 1.350 . S
C3135 C3134 1.434 . S
C3136 C3137 1.369 . S
C3136 C3138 1.419 . S
C3136 H3140 0.930 . S
C3137 C3136 1.369 . S
C3137 C3146 1.429 . S
C3138 C3136 1.419 . S
C3138 C3139 1.363 . S
C3138 H3141 0.929 . S
C3139 C3138 1.363 . S
C3139 C3145 1.428 . S
H3140 C3136 0.930 . S
H3141 C3138 0.929 . S
S3142 N3143 1.613 . S
S3142 N3144 1.610 . S
N3143 S3142 1.613 . S
N3143 C3146 1.350 . S
N3144 S3142 1.610 . S
N3144 C3145 1.351 . S
C3145 C3139 1.428 . S
C3145 N3144 1.351 . S
C3145 C3146 1.434 . S
C3146 C3137 1.429 . S
C3146 N3143 1.350 . S
C3146 C3145 1.434 . S
C3147 C3148 1.369 . S
C3147 C3149 1.419 . S
C3147 H3151 0.930 . S
C3148 C3147 1.369 . S
C3148 C3157 1.429 . S
C3149 C3147 1.419 . S
C3149 C3150 1.363 . S
C3149 H3152 0.929 . S
C3150 C3149 1.363 . S
C3150 C3156 1.428 . S
H3151 C3147 0.930 . S
H3152 C3149 0.929 . S
S3153 N3154 1.613 . S
S3153 N3155 1.610 . S
N3154 S3153 1.613 . S
N3154 C3157 1.350 . S
N3155 S3153 1.610 . S
N3155 C3156 1.351 . S
C3156 C3150 1.428 . S
C3156 N3155 1.351 . S
C3156 C3157 1.434 . S
C3157 C3148 1.429 . S
C3157 N3154 1.350 . S
C3157 C3156 1.434 . S
C3158 C3159 1.369 . S
C3158 C3160 1.419 . S
C3158 H3162 0.930 . S
C3159 C3158 1.369 . S
C3159 C3168 1.429 . S
C3160 C3158 1.419 . S
C3160 C3161 1.363 . S
C3160 H3163 0.929 . S
C3161 C3160 1.363 . S
C3161 C3167 1.428 . S
H3162 C3158 0.930 . S
H3163 C3160 0.929 . S
S3164 N3165 1.613 . S
S3164 N3166 1.610 . S
N3165 S3164 1.613 . S
N3165 C3168 1.350 . S
N3166 S3164 1.610 . S
N3166 C3167 1.351 . S
C3167 C3161 1.428 . S
C3167 N3166 1.351 . S
C3167 C3168 1.434 . S
C3168 C3159 1.429 . S
C3168 N3165 1.350 . S
C3168 C3167 1.434 . S
C3169 C3170 1.369 . S
C3169 C3171 1.419 . S
C3169 H3173 0.930 . S
C3170 C3169 1.369 . S
C3170 C3179 1.429 . S
C3171 C3169 1.419 . S
C3171 C3172 1.363 . S
C3171 H3174 0.929 . S
C3172 C3171 1.363 . S
C3172 C3178 1.428 . S
H3173 C3169 0.930 . S
H3174 C3171 0.929 . S
S3175 N3176 1.613 . S
S3175 N3177 1.610 . S
N3176 S3175 1.613 . S
N3176 C3179 1.350 . S
N3177 S3175 1.610 . S
N3177 C3178 1.351 . S
C3178 C3172 1.428 . S
C3178 N3177 1.351 . S
C3178 C3179 1.434 . S
C3179 C3170 1.429 . S
C3179 N3176 1.350 . S
C3179 C3178 1.434 . S
C3180 C3181 1.369 . S
C3180 C3182 1.419 . S
C3180 H3184 0.930 . S
C3181 C3180 1.369 . S
C3181 C3190 1.429 . S
C3182 C3180 1.419 . S
C3182 C3183 1.363 . S
C3182 H3185 0.929 . S
C3183 C3182 1.363 . S
C3183 C3189 1.428 . S
H3184 C3180 0.930 . S
H3185 C3182 0.929 . S
S3186 N3187 1.613 . S
S3186 N3188 1.610 . S
N3187 S3186 1.613 . S
N3187 C3190 1.350 . S
N3188 S3186 1.610 . S
N3188 C3189 1.351 . S
C3189 C3183 1.428 . S
C3189 N3188 1.351 . S
C3189 C3190 1.434 . S
C3190 C3181 1.429 . S
C3190 N3187 1.350 . S
C3190 C3189 1.434 . S
C3191 C3192 1.369 . S
C3191 C3193 1.419 . S
C3191 H3195 0.930 . S
C3192 C3191 1.369 . S
C3192 C3201 1.429 . S
C3193 C3191 1.419 . S
C3193 C3194 1.363 . S
C3193 H3196 0.929 . S
C3194 C3193 1.363 . S
C3194 C3200 1.428 . S
H3195 C3191 0.930 . S
H3196 C3193 0.929 . S
S3197 N3198 1.613 . S
S3197 N3199 1.610 . S
N3198 S3197 1.613 . S
N3198 C3201 1.350 . S
N3199 S3197 1.610 . S
N3199 C3200 1.351 . S
C3200 C3194 1.428 . S
C3200 N3199 1.351 . S
C3200 C3201 1.434 . S
C3201 C3192 1.429 . S
C3201 N3198 1.350 . S
C3201 C3200 1.434 . S
C3202 C3203 1.369 . S
C3202 C3204 1.419 . S
C3202 H3206 0.930 . S
C3203 C3202 1.369 . S
C3203 C3212 1.429 . S
C3204 C3202 1.419 . S
C3204 C3205 1.363 . S
C3204 H3207 0.929 . S
C3205 C3204 1.363 . S
C3205 C3211 1.428 . S
H3206 C3202 0.930 . S
H3207 C3204 0.929 . S
S3208 N3209 1.613 . S
S3208 N3210 1.610 . S
N3209 S3208 1.613 . S
N3209 C3212 1.350 . S
N3210 S3208 1.610 . S
N3210 C3211 1.351 . S
C3211 C3205 1.428 . S
C3211 N3210 1.351 . S
C3211 C3212 1.434 . S
C3212 C3203 1.429 . S
C3212 N3209 1.350 . S
C3212 C3211 1.434 . S
C3213 C3214 1.369 . S
C3213 C3215 1.419 . S
C3213 H3217 0.930 . S
C3214 C3213 1.369 . S
C3214 C3223 1.429 . S
C3215 C3213 1.419 . S
C3215 C3216 1.363 . S
C3215 H3218 0.929 . S
C3216 C3215 1.363 . S
C3216 C3222 1.428 . S
H3217 C3213 0.930 . S
H3218 C3215 0.929 . S
S3219 N3220 1.613 . S
S3219 N3221 1.610 . S
N3220 S3219 1.613 . S
N3220 C3223 1.350 . S
N3221 S3219 1.610 . S
N3221 C3222 1.351 . S
C3222 C3216 1.428 . S
C3222 N3221 1.351 . S
C3222 C3223 1.434 . S
C3223 C3214 1.429 . S
C3223 N3220 1.350 . S
C3223 C3222 1.434 . S
C3224 C3225 1.369 . S
C3224 C3226 1.419 . S
C3224 H3228 0.930 . S
C3225 C3224 1.369 . S
C3225 C3234 1.429 . S
C3226 C3224 1.419 . S
C3226 C3227 1.363 . S
C3226 H3229 0.929 . S
C3227 C3226 1.363 . S
C3227 C3233 1.428 . S
H3228 C3224 0.930 . S
H3229 C3226 0.929 . S
S3230 N3231 1.613 . S
S3230 N3232 1.610 . S
N3231 S3230 1.613 . S
N3231 C3234 1.350 . S
N3232 S3230 1.610 . S
N3232 C3233 1.351 . S
C3233 C3227 1.428 . S
C3233 N3232 1.351 . S
C3233 C3234 1.434 . S
C3234 C3225 1.429 . S
C3234 N3231 1.350 . S
C3234 C3233 1.434 . S
C3235 C3236 1.369 . S
C3235 C3237 1.419 . S
C3235 H3239 0.930 . S
C3236 C3235 1.369 . S
C3236 C3245 1.429 . S
C3237 C3235 1.419 . S
C3237 C3238 1.363 . S
C3237 H3240 0.929 . S
C3238 C3237 1.363 . S
C3238 C3244 1.428 . S
H3239 C3235 0.930 . S
H3240 C3237 0.929 . S
S3241 N3242 1.613 . S
S3241 N3243 1.610 . S
N3242 S3241 1.613 . S
N3242 C3245 1.350 . S
N3243 S3241 1.610 . S
N3243 C3244 1.351 . S
C3244 C3238 1.428 . S
C3244 N3243 1.351 . S
C3244 C3245 1.434 . S
C3245 C3236 1.429 . S
C3245 N3242 1.350 . S
C3245 C3244 1.434 . S
C3246 C3247 1.369 . S
C3246 C3248 1.419 . S
C3246 H3250 0.930 . S
C3247 C3246 1.369 . S
C3247 C3256 1.429 . S
C3248 C3246 1.419 . S
C3248 C3249 1.363 . S
C3248 H3251 0.929 . S
C3249 C3248 1.363 . S
C3249 C3255 1.428 . S
H3250 C3246 0.930 . S
H3251 C3248 0.929 . S
S3252 N3253 1.613 . S
S3252 N3254 1.610 . S
N3253 S3252 1.613 . S
N3253 C3256 1.350 . S
N3254 S3252 1.610 . S
N3254 C3255 1.351 . S
C3255 C3249 1.428 . S
C3255 N3254 1.351 . S
C3255 C3256 1.434 . S
C3256 C3247 1.429 . S
C3256 N3253 1.350 . S
C3256 C3255 1.434 . S
C3257 C3258 1.369 . S
C3257 C3259 1.419 . S
C3257 H3261 0.930 . S
C3258 C3257 1.369 . S
C3258 C3267 1.429 . S
C3259 C3257 1.419 . S
C3259 C3260 1.363 . S
C3259 H3262 0.929 . S
C3260 C3259 1.363 . S
C3260 C3266 1.428 . S
H3261 C3257 0.930 . S
H3262 C3259 0.929 . S
S3263 N3264 1.613 . S
S3263 N3265 1.610 . S
N3264 S3263 1.613 . S
N3264 C3267 1.350 . S
N3265 S3263 1.610 . S
N3265 C3266 1.351 . S
C3266 C3260 1.428 . S
C3266 N3265 1.351 . S
C3266 C3267 1.434 . S
C3267 C3258 1.429 . S
C3267 N3264 1.350 . S
C3267 C3266 1.434 . S
C3268 C3269 1.369 . S
C3268 C3270 1.419 . S
C3268 H3272 0.930 . S
C3269 C3268 1.369 . S
C3269 C3278 1.429 . S
C3270 C3268 1.419 . S
C3270 C3271 1.363 . S
C3270 H3273 0.929 . S
C3271 C3270 1.363 . S
C3271 C3277 1.428 . S
H3272 C3268 0.930 . S
H3273 C3270 0.929 . S
S3274 N3275 1.613 . S
S3274 N3276 1.610 . S
N3275 S3274 1.613 . S
N3275 C3278 1.350 . S
N3276 S3274 1.610 . S
N3276 C3277 1.351 . S
C3277 C3271 1.428 . S
C3277 N3276 1.351 . S
C3277 C3278 1.434 . S
C3278 C3269 1.429 . S
C3278 N3275 1.350 . S
C3278 C3277 1.434 . S
C3279 C3280 1.369 . S
C3279 C3281 1.419 . S
C3279 H3283 0.930 . S
C3280 C3279 1.369 . S
C3280 C3289 1.429 . S
C3281 C3279 1.419 . S
C3281 C3282 1.363 . S
C3281 H3284 0.929 . S
C3282 C3281 1.363 . S
C3282 C3288 1.428 . S
H3283 C3279 0.930 . S
H3284 C3281 0.929 . S
S3285 N3286 1.613 . S
S3285 N3287 1.610 . S
N3286 S3285 1.613 . S
N3286 C3289 1.350 . S
N3287 S3285 1.610 . S
N3287 C3288 1.351 . S
C3288 C3282 1.428 . S
C3288 N3287 1.351 . S
C3288 C3289 1.434 . S
C3289 C3280 1.429 . S
C3289 N3286 1.350 . S
C3289 C3288 1.434 . S
C3290 C3291 1.369 . S
C3290 C3292 1.419 . S
C3290 H3294 0.930 . S
C3291 C3290 1.369 . S
C3291 C3300 1.429 . S
C3292 C3290 1.419 . S
C3292 C3293 1.363 . S
C3292 H3295 0.929 . S
C3293 C3292 1.363 . S
C3293 C3299 1.428 . S
H3294 C3290 0.930 . S
H3295 C3292 0.929 . S
S3296 N3297 1.613 . S
S3296 N3298 1.610 . S
N3297 S3296 1.613 . S
N3297 C3300 1.350 . S
N3298 S3296 1.610 . S
N3298 C3299 1.351 . S
C3299 C3293 1.428 . S
C3299 N3298 1.351 . S
C3299 C3300 1.434 . S
C3300 C3291 1.429 . S
C3300 N3297 1.350 . S
C3300 C3299 1.434 . S
C3301 C3302 1.369 . S
C3301 C3303 1.419 . S
C3301 H3305 0.930 . S
C3302 C3301 1.369 . S
C3302 C3311 1.429 . S
C3303 C3301 1.419 . S
C3303 C3304 1.363 . S
C3303 H3306 0.929 . S
C3304 C3303 1.363 . S
C3304 C3310 1.428 . S
H3305 C3301 0.930 . S
H3306 C3303 0.929 . S
S3307 N3308 1.613 . S
S3307 N3309 1.610 . S
N3308 S3307 1.613 . S
N3308 C3311 1.350 . S
N3309 S3307 1.610 . S
N3309 C3310 1.351 . S
C3310 C3304 1.428 . S
C3310 N3309 1.351 . S
C3310 C3311 1.434 . S
C3311 C3302 1.429 . S
C3311 N3308 1.350 . S
C3311 C3310 1.434 . S
C3312 C3313 1.369 . S
C3312 C3314 1.419 . S
C3312 H3316 0.930 . S
C3313 C3312 1.369 . S
C3313 C3322 1.429 . S
C3314 C3312 1.419 . S
C3314 C3315 1.363 . S
C3314 H3317 0.929 . S
C3315 C3314 1.363 . S
C3315 C3321 1.428 . S
H3316 C3312 0.930 . S
H3317 C3314 0.929 . S
S3318 N3319 1.613 . S
S3318 N3320 1.610 . S
N3319 S3318 1.613 . S
N3319 C3322 1.350 . S
N3320 S3318 1.610 . S
N3320 C3321 1.351 . S
C3321 C3315 1.428 . S
C3321 N3320 1.351 . S
C3321 C3322 1.434 . S
C3322 C3313 1.429 . S
C3322 N3319 1.350 . S
C3322 C3321 1.434 . S
C3323 C3324 1.369 . S
C3323 C3325 1.419 . S
C3323 H3327 0.930 . S
C3324 C3323 1.369 . S
C3324 C3333 1.429 . S
C3325 C3323 1.419 . S
C3325 C3326 1.363 . S
C3325 H3328 0.929 . S
C3326 C3325 1.363 . S
C3326 C3332 1.428 . S
H3327 C3323 0.930 . S
H3328 C3325 0.929 . S
S3329 N3330 1.613 . S
S3329 N3331 1.610 . S
N3330 S3329 1.613 . S
N3330 C3333 1.350 . S
N3331 S3329 1.610 . S
N3331 C3332 1.351 . S
C3332 C3326 1.428 . S
C3332 N3331 1.351 . S
C3332 C3333 1.434 . S
C3333 C3324 1.429 . S
C3333 N3330 1.350 . S
C3333 C3332 1.434 . S
C3334 C3335 1.369 . S
C3334 C3336 1.419 . S
C3334 H3338 0.930 . S
C3335 C3334 1.369 . S
C3335 C3344 1.429 . S
C3336 C3334 1.419 . S
C3336 C3337 1.363 . S
C3336 H3339 0.929 . S
C3337 C3336 1.363 . S
C3337 C3343 1.428 . S
H3338 C3334 0.930 . S
H3339 C3336 0.929 . S
S3340 N3341 1.613 . S
S3340 N3342 1.610 . S
N3341 S3340 1.613 . S
N3341 C3344 1.350 . S
N3342 S3340 1.610 . S
N3342 C3343 1.351 . S
C3343 C3337 1.428 . S
C3343 N3342 1.351 . S
C3343 C3344 1.434 . S
C3344 C3335 1.429 . S
C3344 N3341 1.350 . S
C3344 C3343 1.434 . S
C3345 C3346 1.369 . S
C3345 C3347 1.419 . S
C3345 H3349 0.930 . S
C3346 C3345 1.369 . S
C3346 C3355 1.429 . S
C3347 C3345 1.419 . S
C3347 C3348 1.363 . S
C3347 H3350 0.929 . S
C3348 C3347 1.363 . S
C3348 C3354 1.428 . S
H3349 C3345 0.930 . S
H3350 C3347 0.929 . S
S3351 N3352 1.613 . S
S3351 N3353 1.610 . S
N3352 S3351 1.613 . S
N3352 C3355 1.350 . S
N3353 S3351 1.610 . S
N3353 C3354 1.351 . S
C3354 C3348 1.428 . S
C3354 N3353 1.351 . S
C3354 C3355 1.434 . S
C3355 C3346 1.429 . S
C3355 N3352 1.350 . S
C3355 C3354 1.434 . S
C3356 C3357 1.369 . S
C3356 C3358 1.419 . S
C3356 H3360 0.930 . S
C3357 C3356 1.369 . S
C3357 C3366 1.429 . S
C3358 C3356 1.419 . S
C3358 C3359 1.363 . S
C3358 H3361 0.929 . S
C3359 C3358 1.363 . S
C3359 C3365 1.428 . S
H3360 C3356 0.930 . S
H3361 C3358 0.929 . S
S3362 N3363 1.613 . S
S3362 N3364 1.610 . S
N3363 S3362 1.613 . S
N3363 C3366 1.350 . S
N3364 S3362 1.610 . S
N3364 C3365 1.351 . S
C3365 C3359 1.428 . S
C3365 N3364 1.351 . S
C3365 C3366 1.434 . S
C3366 C3357 1.429 . S
C3366 N3363 1.350 . S
C3366 C3365 1.434 . S
C3367 C3368 1.369 . S
C3367 C3369 1.419 1_554 S
C3367 H3371 0.930 . S
C3368 C3367 1.369 . S
C3368 C3377 1.429 . S
C3369 C3367 1.419 1_556 S
C3369 C3370 1.363 . S
C3369 H3372 0.929 . S
C3370 C3369 1.363 . S
C3370 C3376 1.428 1_556 S
H3371 C3367 0.930 . S
H3372 C3369 0.929 . S
S3373 N3374 1.613 . S
S3373 N3375 1.610 . S
N3374 S3373 1.613 . S
N3374 C3377 1.350 . S
N3375 S3373 1.610 . S
N3375 C3376 1.351 . S
C3376 C3370 1.428 1_554 S
C3376 N3375 1.351 . S
C3376 C3377 1.434 . S
C3377 C3368 1.429 . S
C3377 N3374 1.350 . S
C3377 C3376 1.434 . S
C3378 C3379 1.369 . S
C3378 C3380 1.419 . S
C3378 H3382 0.930 . S
C3379 C3378 1.369 . S
C3379 C3388 1.429 . S
C3380 C3378 1.419 . S
C3380 C3381 1.363 . S
C3380 H3383 0.929 . S
C3381 C3380 1.363 . S
C3381 C3387 1.428 . S
H3382 C3378 0.930 . S
H3383 C3380 0.929 . S
S3384 N3385 1.613 . S
S3384 N3386 1.610 . S
N3385 S3384 1.613 . S
N3385 C3388 1.350 . S
N3386 S3384 1.610 . S
N3386 C3387 1.351 . S
C3387 C3381 1.428 . S
C3387 N3386 1.351 . S
C3387 C3388 1.434 . S
C3388 C3379 1.429 . S
C3388 N3385 1.350 . S
C3388 C3387 1.434 . S
C3389 C3390 1.369 . S
C3389 C3391 1.419 . S
C3389 H3393 0.930 . S
C3390 C3389 1.369 . S
C3390 C3399 1.429 . S
C3391 C3389 1.419 . S
C3391 C3392 1.363 . S
C3391 H3394 0.929 . S
C3392 C3391 1.363 . S
C3392 C3398 1.428 . S
H3393 C3389 0.930 . S
H3394 C3391 0.929 . S
S3395 N3396 1.613 . S
S3395 N3397 1.610 . S
N3396 S3395 1.613 . S
N3396 C3399 1.350 . S
N3397 S3395 1.610 . S
N3397 C3398 1.351 . S
C3398 C3392 1.428 . S
C3398 N3397 1.351 . S
C3398 C3399 1.434 . S
C3399 C3390 1.429 . S
C3399 N3396 1.350 . S
C3399 C3398 1.434 . S
C3400 C3401 1.369 . S
C3400 C3402 1.419 . S
C3400 H3404 0.930 . S
C3401 C3400 1.369 . S
C3401 C3410 1.429 1_554 S
C3402 C3400 1.419 . S
C3402 C3403 1.363 1_554 S
C3402 H3405 0.929 . S
C3403 C3402 1.363 1_556 S
C3403 C3409 1.428 . S
H3404 C3400 0.930 . S
H3405 C3402 0.929 . S
S3406 N3407 1.613 . S
S3406 N3408 1.610 . S
N3407 S3406 1.613 . S
N3407 C3410 1.350 . S
N3408 S3406 1.610 . S
N3408 C3409 1.351 . S
C3409 C3403 1.428 . S
C3409 N3408 1.351 . S
C3409 C3410 1.434 . S
C3410 C3401 1.429 1_556 S
C3410 N3407 1.350 . S
C3410 C3409 1.434 . S
C3411 C3412 1.369 . S
C3411 C3413 1.419 . S
C3411 H3415 0.930 . S
C3412 C3411 1.369 . S
C3412 C3421 1.429 . S
C3413 C3411 1.419 . S
C3413 C3414 1.363 . S
C3413 H3416 0.929 . S
C3414 C3413 1.363 . S
C3414 C3420 1.428 . S
H3415 C3411 0.930 . S
H3416 C3413 0.929 . S
S3417 N3418 1.613 . S
S3417 N3419 1.610 . S
N3418 S3417 1.613 . S
N3418 C3421 1.350 . S
N3419 S3417 1.610 . S
N3419 C3420 1.351 . S
C3420 C3414 1.428 . S
C3420 N3419 1.351 . S
C3420 C3421 1.434 . S
C3421 C3412 1.429 . S
C3421 N3418 1.350 . S
C3421 C3420 1.434 . S
C3422 C3423 1.369 . S
C3422 C3424 1.419 . S
C3422 H3426 0.930 . S
C3423 C3422 1.369 . S
C3423 C3432 1.429 . S
C3424 C3422 1.419 . S
C3424 C3425 1.363 . S
C3424 H3427 0.929 . S
C3425 C3424 1.363 . S
C3425 C3431 1.428 . S
H3426 C3422 0.930 . S
H3427 C3424 0.929 . S
S3428 N3429 1.613 . S
S3428 N3430 1.610 . S
N3429 S3428 1.613 . S
N3429 C3432 1.350 . S
N3430 S3428 1.610 . S
N3430 C3431 1.351 . S
C3431 C3425 1.428 . S
C3431 N3430 1.351 . S
C3431 C3432 1.434 . S
C3432 C3423 1.429 . S
C3432 N3429 1.350 . S
C3432 C3431 1.434 . S
C3433 C3434 1.369 . S
C3433 C3435 1.419 . S
C3433 H3437 0.930 . S
C3434 C3433 1.369 . S
C3434 C3443 1.429 . S
C3435 C3433 1.419 . S
C3435 C3436 1.363 . S
C3435 H3438 0.929 . S
C3436 C3435 1.363 . S
C3436 C3442 1.428 . S
H3437 C3433 0.930 . S
H3438 C3435 0.929 . S
S3439 N3440 1.613 . S
S3439 N3441 1.610 . S
N3440 S3439 1.613 . S
N3440 C3443 1.350 . S
N3441 S3439 1.610 . S
N3441 C3442 1.351 . S
C3442 C3436 1.428 . S
C3442 N3441 1.351 . S
C3442 C3443 1.434 . S
C3443 C3434 1.429 . S
C3443 N3440 1.350 . S
C3443 C3442 1.434 . S
C3444 C3445 1.369 . S
C3444 C3446 1.419 . S
C3444 H3448 0.930 . S
C3445 C3444 1.369 . S
C3445 C3454 1.429 . S
C3446 C3444 1.419 . S
C3446 C3447 1.363 . S
C3446 H3449 0.929 . S
C3447 C3446 1.363 . S
C3447 C3453 1.428 . S
H3448 C3444 0.930 . S
H3449 C3446 0.929 . S
S3450 N3451 1.613 . S
S3450 N3452 1.610 . S
N3451 S3450 1.613 . S
N3451 C3454 1.350 . S
N3452 S3450 1.610 . S
N3452 C3453 1.351 . S
C3453 C3447 1.428 . S
C3453 N3452 1.351 . S
C3453 C3454 1.434 . S
C3454 C3445 1.429 . S
C3454 N3451 1.350 . S
C3454 C3453 1.434 . S
C3455 C3456 1.369 . S
C3455 C3457 1.419 . S
C3455 H3459 0.930 . S
C3456 C3455 1.369 . S
C3456 C3465 1.429 . S
C3457 C3455 1.419 . S
C3457 C3458 1.363 . S
C3457 H3460 0.929 . S
C3458 C3457 1.363 . S
C3458 C3464 1.428 . S
H3459 C3455 0.930 . S
H3460 C3457 0.929 . S
S3461 N3462 1.613 . S
S3461 N3463 1.610 . S
N3462 S3461 1.613 . S
N3462 C3465 1.350 . S
N3463 S3461 1.610 . S
N3463 C3464 1.351 . S
C3464 C3458 1.428 . S
C3464 N3463 1.351 . S
C3464 C3465 1.434 . S
C3465 C3456 1.429 . S
C3465 N3462 1.350 . S
C3465 C3464 1.434 . S
C3466 C3467 1.369 . S
C3466 C3468 1.419 . S
C3466 H3470 0.930 . S
C3467 C3466 1.369 . S
C3467 C3476 1.429 . S
C3468 C3466 1.419 . S
C3468 C3469 1.363 . S
C3468 H3471 0.929 . S
C3469 C3468 1.363 . S
C3469 C3475 1.428 . S
H3470 C3466 0.930 . S
H3471 C3468 0.929 . S
S3472 N3473 1.613 . S
S3472 N3474 1.610 . S
N3473 S3472 1.613 . S
N3473 C3476 1.350 . S
N3474 S3472 1.610 . S
N3474 C3475 1.351 . S
C3475 C3469 1.428 . S
C3475 N3474 1.351 . S
C3475 C3476 1.434 . S
C3476 C3467 1.429 . S
C3476 N3473 1.350 . S
C3476 C3475 1.434 . S
C3477 C3478 1.369 . S
C3477 C3479 1.419 . S
C3477 H3481 0.930 . S
C3478 C3477 1.369 . S
C3478 C3487 1.429 . S
C3479 C3477 1.419 . S
C3479 C3480 1.363 . S
C3479 H3482 0.929 . S
C3480 C3479 1.363 . S
C3480 C3486 1.428 . S
H3481 C3477 0.930 . S
H3482 C3479 0.929 . S
S3483 N3484 1.613 . S
S3483 N3485 1.610 . S
N3484 S3483 1.613 . S
N3484 C3487 1.350 . S
N3485 S3483 1.610 . S
N3485 C3486 1.351 . S
C3486 C3480 1.428 . S
C3486 N3485 1.351 . S
C3486 C3487 1.434 . S
C3487 C3478 1.429 . S
C3487 N3484 1.350 . S
C3487 C3486 1.434 . S
C3488 C3489 1.369 . S
C3488 C3490 1.419 . S
C3488 H3492 0.930 . S
C3489 C3488 1.369 . S
C3489 C3498 1.429 . S
C3490 C3488 1.419 . S
C3490 C3491 1.363 . S
C3490 H3493 0.929 . S
C3491 C3490 1.363 . S
C3491 C3497 1.428 . S
H3492 C3488 0.930 . S
H3493 C3490 0.929 . S
S3494 N3495 1.613 . S
S3494 N3496 1.610 . S
N3495 S3494 1.613 . S
N3495 C3498 1.350 . S
N3496 S3494 1.610 . S
N3496 C3497 1.351 . S
C3497 C3491 1.428 . S
C3497 N3496 1.351 . S
C3497 C3498 1.434 . S
C3498 C3489 1.429 . S
C3498 N3495 1.350 . S
C3498 C3497 1.434 . S
C3499 C3500 1.369 . S
C3499 C3501 1.419 . S
C3499 H3503 0.930 . S
C3500 C3499 1.369 . S
C3500 C3509 1.429 . S
C3501 C3499 1.419 . S
C3501 C3502 1.363 . S
C3501 H3504 0.929 1_565 S
C3502 C3501 1.363 . S
C3502 C3508 1.428 . S
H3503 C3499 0.930 . S
H3504 C3501 0.929 1_545 S
S3505 N3506 1.613 . S
S3505 N3507 1.610 . S
N3506 S3505 1.613 . S
N3506 C3509 1.350 . S
N3507 S3505 1.610 . S
N3507 C3508 1.351 . S
C3508 C3502 1.428 . S
C3508 N3507 1.351 . S
C3508 C3509 1.434 . S
C3509 C3500 1.429 . S
C3509 N3506 1.350 . S
C3509 C3508 1.434 . S
C3510 C3511 1.369 . S
C3510 C3512 1.419 . S
C3510 H3514 0.930 . S
C3511 C3510 1.369 . S
C3511 C3520 1.429 . S
C3512 C3510 1.419 . S
C3512 C3513 1.363 . S
C3512 H3515 0.929 . S
C3513 C3512 1.363 . S
C3513 C3519 1.428 1_565 S
H3514 C3510 0.930 . S
H3515 C3512 0.929 . S
S3516 N3517 1.613 . S
S3516 N3518 1.610 . S
N3517 S3516 1.613 . S
N3517 C3520 1.350 1_545 S
N3518 S3516 1.610 . S
N3518 C3519 1.351 . S
C3519 C3513 1.428 1_545 S
C3519 N3518 1.351 . S
C3519 C3520 1.434 1_545 S
C3520 C3511 1.429 . S
C3520 N3517 1.350 1_565 S
C3520 C3519 1.434 1_565 S
C3521 C3522 1.369 . S
C3521 C3523 1.419 . S
C3521 H3525 0.930 . S
C3522 C3521 1.369 . S
C3522 C3531 1.429 . S
C3523 C3521 1.419 . S
C3523 C3524 1.363 . S
C3523 H3526 0.929 1_455 S
C3524 C3523 1.363 . S
C3524 C3530 1.428 . S
H3525 C3521 0.930 . S
H3526 C3523 0.929 1_655 S
S3527 N3528 1.613 . S
S3527 N3529 1.610 . S
N3528 S3527 1.613 . S
N3528 C3531 1.350 . S
N3529 S3527 1.610 . S
N3529 C3530 1.351 . S
C3530 C3524 1.428 . S
C3530 N3529 1.351 . S
C3530 C3531 1.434 . S
C3531 C3522 1.429 . S
C3531 N3528 1.350 . S
C3531 C3530 1.434 . S
C3532 C3533 1.369 . S
C3532 C3534 1.419 . S
C3532 H3536 0.930 . S
C3533 C3532 1.369 . S
C3533 C3542 1.429 . S
C3534 C3532 1.419 . S
C3534 C3535 1.363 . S
C3534 H3537 0.929 . S
C3535 C3534 1.363 . S
C3535 C3541 1.428 . S
H3536 C3532 0.930 . S
H3537 C3534 0.929 . S
S3538 N3539 1.613 . S
S3538 N3540 1.610 . S
N3539 S3538 1.613 . S
N3539 C3542 1.350 . S
N3540 S3538 1.610 . S
N3540 C3541 1.351 . S
C3541 C3535 1.428 . S
C3541 N3540 1.351 . S
C3541 C3542 1.434 . S
C3542 C3533 1.429 . S
C3542 N3539 1.350 . S
C3542 C3541 1.434 . S
C3543 C3544 1.369 . S
C3543 C3545 1.419 . S
C3543 H3547 0.930 . S
C3544 C3543 1.369 . S
C3544 C3553 1.429 . S
C3545 C3543 1.419 . S
C3545 C3546 1.363 . S
C3545 H3548 0.929 . S
C3546 C3545 1.363 . S
C3546 C3552 1.428 . S
H3547 C3543 0.930 . S
H3548 C3545 0.929 . S
S3549 N3550 1.613 . S
S3549 N3551 1.610 . S
N3550 S3549 1.613 . S
N3550 C3553 1.350 . S
N3551 S3549 1.610 . S
N3551 C3552 1.351 . S
C3552 C3546 1.428 . S
C3552 N3551 1.351 . S
C3552 C3553 1.434 . S
C3553 C3544 1.429 . S
C3553 N3550 1.350 . S
C3553 C3552 1.434 . S
C3554 C3555 1.369 . S
C3554 C3556 1.419 . S
C3554 H3558 0.930 . S
C3555 C3554 1.369 . S
C3555 C3564 1.429 . S
C3556 C3554 1.419 . S
C3556 C3557 1.363 . S
C3556 H3559 0.929 . S
C3557 C3556 1.363 . S
C3557 C3563 1.428 . S
H3558 C3554 0.930 . S
H3559 C3556 0.929 . S
S3560 N3561 1.613 . S
S3560 N3562 1.610 . S
N3561 S3560 1.613 . S
N3561 C3564 1.350 . S
N3562 S3560 1.610 . S
N3562 C3563 1.351 . S
C3563 C3557 1.428 . S
C3563 N3562 1.351 . S
C3563 C3564 1.434 . S
C3564 C3555 1.429 . S
C3564 N3561 1.350 . S
C3564 C3563 1.434 . S
C3565 C3566 1.369 . S
C3565 C3567 1.419 . S
C3565 H3569 0.930 . S
C3566 C3565 1.369 . S
C3566 C3575 1.429 . S
C3567 C3565 1.419 . S
C3567 C3568 1.363 . S
C3567 H3570 0.929 . S
C3568 C3567 1.363 . S
C3568 C3574 1.428 . S
H3569 C3565 0.930 . S
H3570 C3567 0.929 . S
S3571 N3572 1.613 . S
S3571 N3573 1.610 . S
N3572 S3571 1.613 . S
N3572 C3575 1.350 . S
N3573 S3571 1.610 . S
N3573 C3574 1.351 . S
C3574 C3568 1.428 . S
C3574 N3573 1.351 . S
C3574 C3575 1.434 . S
C3575 C3566 1.429 . S
C3575 N3572 1.350 . S
C3575 C3574 1.434 . S
C3576 C3577 1.369 . S
C3576 C3578 1.419 . S
C3576 H3580 0.930 . S
C3577 C3576 1.369 . S
C3577 C3586 1.429 . S
C3578 C3576 1.419 . S
C3578 C3579 1.363 . S
C3578 H3581 0.929 . S
C3579 C3578 1.363 . S
C3579 C3585 1.428 . S
H3580 C3576 0.930 . S
H3581 C3578 0.929 . S
S3582 N3583 1.613 . S
S3582 N3584 1.610 . S
N3583 S3582 1.613 . S
N3583 C3586 1.350 1_565 S
N3584 S3582 1.610 . S
N3584 C3585 1.351 1_565 S
C3585 C3579 1.428 . S
C3585 N3584 1.351 1_545 S
C3585 C3586 1.434 . S
C3586 C3577 1.429 . S
C3586 N3583 1.350 1_545 S
C3586 C3585 1.434 . S
C3587 C3588 1.369 . S
C3587 C3589 1.419 . S
C3587 H3591 0.930 . S
C3588 C3587 1.369 . S
C3588 C3597 1.429 . S
C3589 C3587 1.419 . S
C3589 C3590 1.363 . S
C3589 H3592 0.929 1_655 S
C3590 C3589 1.363 . S
C3590 C3596 1.428 . S
H3591 C3587 0.930 . S
H3592 C3589 0.929 1_455 S
S3593 N3594 1.613 . S
S3593 N3595 1.610 . S
N3594 S3593 1.613 . S
N3594 C3597 1.350 . S
N3595 S3593 1.610 . S
N3595 C3596 1.351 . S
C3596 C3590 1.428 . S
C3596 N3595 1.351 . S
C3596 C3597 1.434 . S
C3597 C3588 1.429 . S
C3597 N3594 1.350 . S
C3597 C3596 1.434 . S
C3598 C3599 1.369 . S
C3598 C3600 1.419 . S
C3598 H3602 0.930 . S
C3599 C3598 1.369 . S
C3599 C3608 1.429 . S
C3600 C3598 1.419 . S
C3600 C3601 1.363 . S
C3600 H3603 0.929 . S
C3601 C3600 1.363 . S
C3601 C3607 1.428 . S
H3602 C3598 0.930 . S
H3603 C3600 0.929 . S
S3604 N3605 1.613 . S
S3604 N3606 1.610 . S
N3605 S3604 1.613 . S
N3605 C3608 1.350 . S
N3606 S3604 1.610 . S
N3606 C3607 1.351 . S
C3607 C3601 1.428 . S
C3607 N3606 1.351 . S
C3607 C3608 1.434 . S
C3608 C3599 1.429 . S
C3608 N3605 1.350 . S
C3608 C3607 1.434 . S
C3609 C3610 1.369 . S
C3609 C3611 1.419 . S
C3609 H3613 0.930 . S
C3610 C3609 1.369 . S
C3610 C3619 1.429 . S
C3611 C3609 1.419 . S
C3611 C3612 1.363 . S
C3611 H3614 0.929 . S
C3612 C3611 1.363 . S
C3612 C3618 1.428 . S
H3613 C3609 0.930 . S
H3614 C3611 0.929 . S
S3615 N3616 1.613 . S
S3615 N3617 1.610 . S
N3616 S3615 1.613 . S
N3616 C3619 1.350 . S
N3617 S3615 1.610 . S
N3617 C3618 1.351 . S
C3618 C3612 1.428 . S
C3618 N3617 1.351 . S
C3618 C3619 1.434 . S
C3619 C3610 1.429 . S
C3619 N3616 1.350 . S
C3619 C3618 1.434 . S
C3620 C3621 1.369 . S
C3620 C3622 1.419 . S
C3620 H3624 0.930 . S
C3621 C3620 1.369 . S
C3621 C3630 1.429 . S
C3622 C3620 1.419 . S
C3622 C3623 1.363 . S
C3622 H3625 0.929 . S
C3623 C3622 1.363 . S
C3623 C3629 1.428 . S
H3624 C3620 0.930 . S
H3625 C3622 0.929 . S
S3626 N3627 1.613 . S
S3626 N3628 1.610 . S
N3627 S3626 1.613 . S
N3627 C3630 1.350 . S
N3628 S3626 1.610 . S
N3628 C3629 1.351 . S
C3629 C3623 1.428 . S
C3629 N3628 1.351 . S
C3629 C3630 1.434 . S
C3630 C3621 1.429 . S
C3630 N3627 1.350 . S
C3630 C3629 1.434 . S
C3631 C3632 1.369 . S
C3631 C3633 1.419 . S
C3631 H3635 0.930 . S
C3632 C3631 1.369 . S
C3632 C3641 1.429 . S
C3633 C3631 1.419 . S
C3633 C3634 1.363 . S
C3633 H3636 0.929 . S
C3634 C3633 1.363 . S
C3634 C3640 1.428 . S
H3635 C3631 0.930 . S
H3636 C3633 0.929 . S
S3637 N3638 1.613 . S
S3637 N3639 1.610 . S
N3638 S3637 1.613 . S
N3638 C3641 1.350 . S
N3639 S3637 1.610 . S
N3639 C3640 1.351 . S
C3640 C3634 1.428 . S
C3640 N3639 1.351 . S
C3640 C3641 1.434 . S
C3641 C3632 1.429 . S
C3641 N3638 1.350 . S
C3641 C3640 1.434 . S
C3642 C3643 1.369 . S
C3642 C3644 1.419 . S
C3642 H3646 0.930 . S
C3643 C3642 1.369 . S
C3643 C3652 1.429 . S
C3644 C3642 1.419 . S
C3644 C3645 1.363 . S
C3644 H3647 0.929 . S
C3645 C3644 1.363 . S
C3645 C3651 1.428 . S
H3646 C3642 0.930 . S
H3647 C3644 0.929 . S
S3648 N3649 1.613 . S
S3648 N3650 1.610 . S
N3649 S3648 1.613 . S
N3649 C3652 1.350 . S
N3650 S3648 1.610 . S
N3650 C3651 1.351 . S
C3651 C3645 1.428 . S
C3651 N3650 1.351 . S
C3651 C3652 1.434 . S
C3652 C3643 1.429 . S
C3652 N3649 1.350 . S
C3652 C3651 1.434 . S
C3653 C3654 1.369 . S
C3653 C3655 1.419 . S
C3653 H3657 0.930 . S
C3654 C3653 1.369 . S
C3654 C3663 1.429 . S
C3655 C3653 1.419 . S
C3655 C3656 1.363 . S
C3655 H3658 0.929 . S
C3656 C3655 1.363 . S
C3656 C3662 1.428 . S
H3657 C3653 0.930 . S
H3658 C3655 0.929 . S
S3659 N3660 1.613 . S
S3659 N3661 1.610 . S
N3660 S3659 1.613 . S
N3660 C3663 1.350 . S
N3661 S3659 1.610 . S
N3661 C3662 1.351 . S
C3662 C3656 1.428 . S
C3662 N3661 1.351 . S
C3662 C3663 1.434 . S
C3663 C3654 1.429 . S
C3663 N3660 1.350 . S
C3663 C3662 1.434 . S
C3664 C3665 1.369 . S
C3664 C3666 1.419 . S
C3664 H3668 0.930 . S
C3665 C3664 1.369 . S
C3665 C3674 1.429 . S
C3666 C3664 1.419 . S
C3666 C3667 1.363 . S
C3666 H3669 0.929 . S
C3667 C3666 1.363 . S
C3667 C3673 1.428 . S
H3668 C3664 0.930 . S
H3669 C3666 0.929 . S
S3670 N3671 1.613 . S
S3670 N3672 1.610 . S
N3671 S3670 1.613 . S
N3671 C3674 1.350 . S
N3672 S3670 1.610 . S
N3672 C3673 1.351 . S
C3673 C3667 1.428 . S
C3673 N3672 1.351 . S
C3673 C3674 1.434 . S
C3674 C3665 1.429 . S
C3674 N3671 1.350 . S
C3674 C3673 1.434 . S
C3675 C3676 1.369 . S
C3675 C3677 1.419 . S
C3675 H3679 0.930 . S
C3676 C3675 1.369 . S
C3676 C3685 1.429 . S
C3677 C3675 1.419 . S
C3677 C3678 1.363 . S
C3677 H3680 0.929 1_655 S
C3678 C3677 1.363 . S
C3678 C3684 1.428 . S
H3679 C3675 0.930 . S
H3680 C3677 0.929 1_455 S
S3681 N3682 1.613 . S
S3681 N3683 1.610 . S
N3682 S3681 1.613 . S
N3682 C3685 1.350 . S
N3683 S3681 1.610 . S
N3683 C3684 1.351 . S
C3684 C3678 1.428 . S
C3684 N3683 1.351 . S
C3684 C3685 1.434 . S
C3685 C3676 1.429 . S
C3685 N3682 1.350 . S
C3685 C3684 1.434 . S
C3686 C3687 1.369 . S
C3686 C3688 1.419 . S
C3686 H3690 0.930 . S
C3687 C3686 1.369 . S
C3687 C3696 1.429 . S
C3688 C3686 1.419 . S
C3688 C3689 1.363 . S
C3688 H3691 0.929 . S
C3689 C3688 1.363 . S
C3689 C3695 1.428 . S
H3690 C3686 0.930 . S
H3691 C3688 0.929 . S
S3692 N3693 1.613 . S
S3692 N3694 1.610 . S
N3693 S3692 1.613 . S
N3693 C3696 1.350 . S
N3694 S3692 1.610 . S
N3694 C3695 1.351 . S
C3695 C3689 1.428 . S
C3695 N3694 1.351 . S
C3695 C3696 1.434 . S
C3696 C3687 1.429 . S
C3696 N3693 1.350 . S
C3696 C3695 1.434 . S
C3697 C3698 1.369 . S
C3697 C3699 1.419 . S
C3697 H3701 0.930 . S
C3698 C3697 1.369 . S
C3698 C3707 1.429 . S
C3699 C3697 1.419 . S
C3699 C3700 1.363 . S
C3699 H3702 0.929 . S
C3700 C3699 1.363 . S
C3700 C3706 1.428 . S
H3701 C3697 0.930 . S
H3702 C3699 0.929 . S
S3703 N3704 1.613 . S
S3703 N3705 1.610 . S
N3704 S3703 1.613 . S
N3704 C3707 1.350 . S
N3705 S3703 1.610 . S
N3705 C3706 1.351 . S
C3706 C3700 1.428 . S
C3706 N3705 1.351 . S
C3706 C3707 1.434 . S
C3707 C3698 1.429 . S
C3707 N3704 1.350 . S
C3707 C3706 1.434 . S
C2917 C49 1.315 . S
C2919 C2313 1.270 . S
C2928 C137 1.639 . S
C2930 C2393 1.611 . S
C2941 C2461 1.468 . S
C2939 C205 1.450 . S
C2950 C196 1.813 . S
C2952 C2541 1.880 . S
C2961 C57 1.630 . S
C2963 C2615 1.689 . S
C2972 C145 1.658 . S
C2974 C2683 1.585 . S
C2983 C313 1.381 . S
C2985 C2609 1.331 . S
C2996 C2689 1.548 . S
C2994 C401 1.525 . S
C3007 C2535 1.531 1_565 S
C3005 C489 1.531 . S
C3016 C469 1.929 . S
C3018 C2467 2.005 1_545 S
C3029 C2319 1.749 . S
C3027 C293 1.677 . S
C3038 C381 1.527 . S
C3040 C2387 1.523 . S
C3049 C577 1.517 . S
C3051 C2757 1.383 . S
C3060 C645 1.669 . S
C3062 C2837 1.601 . S
C3073 C2905 1.502 . S
C3071 C733 1.601 . S
C3082 C724 1.902 . S
C3084 C1653 1.867 . S
C3093 C585 1.746 . S
C3095 C1727 1.708 . S
C3104 C636 1.690 . S
C3106 C1795 1.612 . S
C3115 C841 1.222 . S
C3117 C1721 1.187 . S
C3126 C937 1.576 . S
C3128 C1801 1.591 . S
C3139 C1647 1.480 . S
C3137 C1025 1.488 . S
C3150 C2911 1.902 . S
C3148 C988 1.887 . S
C3161 C2763 1.553 . S
C3159 C821 1.547 . S
C3172 C2831 1.507 . S
C3170 C900 1.520 . S
C3181 C1105 1.415 . S
C3183 C1869 1.297 . S
C3192 C1193 1.712 . S
C3194 C1949 1.660 . S
C3203 C1281 1.645 . S
C3205 C2017 1.556 . S
C3214 C1289 1.981 . S
C3216 C2097 1.937 . S
C3227 C2171 1.645 . S
C3225 C1113 1.699 . S
C3238 C2239 1.608 . S
C3236 C1201 1.709 . S
C3249 C2165 1.281 . S
C3247 C1369 1.336 . S
C3260 C2245 1.516 . S
C3258 C1457 1.511 . S
C3269 C1553 1.391 . S
C3271 C2091 1.381 . S
C3282 C2023 1.821 . S
C3280 C1516 1.801 . S
C3291 C1349 1.628 . S
C3293 C1875 1.650 . S
C3304 C1943 1.540 . S
C3302 C1437 1.535 . S
C3315 C1623 2.201 . S
C3313 C29 2.211 . S
C3324 C117 1.558 . S
C3326 C1697 1.546 . S
C3337 C1783 1.835 . S
C3335 C225 1.787 . S
C3348 C1857 1.425 . S
C3346 C233 1.409 . S
C3359 C1919 1.764 . S
C3357 C20 1.763 . S
C3370 C2005 1.721 . S
C3368 C108 1.690 . S
C3379 C321 2.474 1_556 S
C3381 C1993 2.345 . S
C3390 C409 1.882 . S
C3392 C1845 1.754 . S
C3401 C497 2.176 . S
C3403 C1931 2.148 . S
C3412 C460 1.830 . S
C3414 C1709 1.727 . S
C3425 C1771 1.973 . S
C3423 C284 2.102 . S
C3434 C372 2.040 . S
C3436 C1635 1.994 . S
C3447 C2067 2.017 . S
C3445 C557 2.047 . S
C3456 C665 1.623 . S
C3458 C2141 1.610 . S
C3467 C753 1.705 . S
C3469 C2227 1.700 . S
C3480 C2301 0.991 . S
C3478 C761 1.012 . S
C3489 C548 1.573 . S
C3491 C2363 1.570 . S
C3500 C673 1.374 . S
C3502 C2449 1.396 . S
C3511 C849 1.858 . S
C3513 C2437 1.780 1_565 S
C3522 C929 1.376 . S
C3524 C2289 1.318 1_455 S
C3535 C2375 1.906 . S
C3533 C1017 1.955 . S
C3544 C997 1.781 . S
C3546 C2153 1.653 . S
C3555 C812 1.975 . S
C3557 C2215 1.845 . S
C3568 C2079 1.997 . S
C3566 C909 2.059 . S
C3579 C2511 1.728 . S
C3577 C1085 1.750 . S
C3588 C1173 1.158 . S
C3590 C2585 1.151 . S
C3599 C1261 1.603 . S
C3601 C2671 1.620 . S
C3612 C2745 1.333 . S
C3610 C1252 1.366 . S
C3623 C2807 1.669 . S
C3621 C1076 1.691 . S
C3632 C1164 1.731 . S
C3634 C2893 1.744 . S
C3643 C1377 2.338 . S
C3645 C2881 2.187 . S
C3654 C1465 1.931 . S
C3656 C2733 1.800 . S
C3667 C2819 1.960 . S
C3665 C1545 2.049 . S
C3678 C2597 1.151 . S
C3676 C1525 1.210 . S
C3689 C2659 1.767 . S
C3687 C1340 1.886 . S
C3698 C1428 1.547 . S
C3700 C2523 1.539 . S
